# Generated by pormake.
# Topology wiu, (6)-cn, num edge types: 1
# Building blocks:
#     Node 0, Type 0, BuildingBlock: CUKXOW_clean_sbu_0, # of connection points: 6
#     Node 1, Type 0, BuildingBlock: CUKXOW_clean_sbu_0, # of connection points: 6
#     Node 2, Type 0, BuildingBlock: CUKXOW_clean_sbu_0, # of connection points: 6
#     Node 3, Type 0, BuildingBlock: CUKXOW_clean_sbu_0, # of connection points: 6
#     Node 4, Type 0, BuildingBlock: CUKXOW_clean_sbu_0, # of connection points: 6
#     Node 5, Type 0, BuildingBlock: CUKXOW_clean_sbu_0, # of connection points: 6
#     Node 6, Type 0, BuildingBlock: CUKXOW_clean_sbu_0, # of connection points: 6
#     Node 7, Type 0, BuildingBlock: CUKXOW_clean_sbu_0, # of connection points: 6
#     Node 8, Type 0, BuildingBlock: CUKXOW_clean_sbu_0, # of connection points: 6
#     Node 9, Type 0, BuildingBlock: CUKXOW_clean_sbu_0, # of connection points: 6
#     Node 10, Type 0, BuildingBlock: CUKXOW_clean_sbu_0, # of connection points: 6
#     Node 11, Type 0, BuildingBlock: CUKXOW_clean_sbu_0, # of connection points: 6
#     Node 12, Type 0, BuildingBlock: CUKXOW_clean_sbu_0, # of connection points: 6
#     Node 13, Type 0, BuildingBlock: CUKXOW_clean_sbu_0, # of connection points: 6
#     Node 14, Type 0, BuildingBlock: CUKXOW_clean_sbu_0, # of connection points: 6
#     Node 15, Type 0, BuildingBlock: CUKXOW_clean_sbu_0, # of connection points: 6
#     Edge 16, Type (0, 0), BuildingBlock: KIFKEQ_clean_linker_1, # of connection points: 2
#     Edge 17, Type (0, 0), BuildingBlock: KIFKEQ_clean_linker_1, # of connection points: 2
#     Edge 18, Type (0, 0), BuildingBlock: KIFKEQ_clean_linker_1, # of connection points: 2
#     Edge 19, Type (0, 0), BuildingBlock: KIFKEQ_clean_linker_1, # of connection points: 2
#     Edge 20, Type (0, 0), BuildingBlock: KIFKEQ_clean_linker_1, # of connection points: 2
#     Edge 21, Type (0, 0), BuildingBlock: KIFKEQ_clean_linker_1, # of connection points: 2
#     Edge 22, Type (0, 0), BuildingBlock: KIFKEQ_clean_linker_1, # of connection points: 2
#     Edge 23, Type (0, 0), BuildingBlock: KIFKEQ_clean_linker_1, # of connection points: 2
#     Edge 24, Type (0, 0), BuildingBlock: KIFKEQ_clean_linker_1, # of connection points: 2
#     Edge 25, Type (0, 0), BuildingBlock: KIFKEQ_clean_linker_1, # of connection points: 2
#     Edge 26, Type (0, 0), BuildingBlock: KIFKEQ_clean_linker_1, # of connection points: 2
#     Edge 27, Type (0, 0), BuildingBlock: KIFKEQ_clean_linker_1, # of connection points: 2
#     Edge 28, Type (0, 0), BuildingBlock: KIFKEQ_clean_linker_1, # of connection points: 2
#     Edge 29, Type (0, 0), BuildingBlock: KIFKEQ_clean_linker_1, # of connection points: 2
#     Edge 30, Type (0, 0), BuildingBlock: KIFKEQ_clean_linker_1, # of connection points: 2
#     Edge 31, Type (0, 0), BuildingBlock: KIFKEQ_clean_linker_1, # of connection points: 2
#     Edge 32, Type (0, 0), BuildingBlock: KIFKEQ_clean_linker_1, # of connection points: 2
#     Edge 33, Type (0, 0), BuildingBlock: KIFKEQ_clean_linker_1, # of connection points: 2
#     Edge 34, Type (0, 0), BuildingBlock: KIFKEQ_clean_linker_1, # of connection points: 2
#     Edge 35, Type (0, 0), BuildingBlock: KIFKEQ_clean_linker_1, # of connection points: 2
#     Edge 36, Type (0, 0), BuildingBlock: KIFKEQ_clean_linker_1, # of connection points: 2
#     Edge 37, Type (0, 0), BuildingBlock: KIFKEQ_clean_linker_1, # of connection points: 2
#     Edge 38, Type (0, 0), BuildingBlock: KIFKEQ_clean_linker_1, # of connection points: 2
#     Edge 39, Type (0, 0), BuildingBlock: KIFKEQ_clean_linker_1, # of connection points: 2
#     Edge 40, Type (0, 0), BuildingBlock: KIFKEQ_clean_linker_1, # of connection points: 2
#     Edge 41, Type (0, 0), BuildingBlock: KIFKEQ_clean_linker_1, # of connection points: 2
#     Edge 42, Type (0, 0), BuildingBlock: KIFKEQ_clean_linker_1, # of connection points: 2
#     Edge 43, Type (0, 0), BuildingBlock: KIFKEQ_clean_linker_1, # of connection points: 2
#     Edge 44, Type (0, 0), BuildingBlock: KIFKEQ_clean_linker_1, # of connection points: 2
#     Edge 45, Type (0, 0), BuildingBlock: KIFKEQ_clean_linker_1, # of connection points: 2
#     Edge 46, Type (0, 0), BuildingBlock: KIFKEQ_clean_linker_1, # of connection points: 2
#     Edge 47, Type (0, 0), BuildingBlock: KIFKEQ_clean_linker_1, # of connection points: 2
#     Edge 48, Type (0, 0), BuildingBlock: KIFKEQ_clean_linker_1, # of connection points: 2
#     Edge 49, Type (0, 0), BuildingBlock: KIFKEQ_clean_linker_1, # of connection points: 2
#     Edge 50, Type (0, 0), BuildingBlock: KIFKEQ_clean_linker_1, # of connection points: 2
#     Edge 51, Type (0, 0), BuildingBlock: KIFKEQ_clean_linker_1, # of connection points: 2
#     Edge 52, Type (0, 0), BuildingBlock: KIFKEQ_clean_linker_1, # of connection points: 2
#     Edge 53, Type (0, 0), BuildingBlock: KIFKEQ_clean_linker_1, # of connection points: 2
#     Edge 54, Type (0, 0), BuildingBlock: KIFKEQ_clean_linker_1, # of connection points: 2
#     Edge 55, Type (0, 0), BuildingBlock: KIFKEQ_clean_linker_1, # of connection points: 2
#     Edge 56, Type (0, 0), BuildingBlock: KIFKEQ_clean_linker_1, # of connection points: 2
#     Edge 57, Type (0, 0), BuildingBlock: KIFKEQ_clean_linker_1, # of connection points: 2
#     Edge 58, Type (0, 0), BuildingBlock: KIFKEQ_clean_linker_1, # of connection points: 2
#     Edge 59, Type (0, 0), BuildingBlock: KIFKEQ_clean_linker_1, # of connection points: 2
#     Edge 60, Type (0, 0), BuildingBlock: KIFKEQ_clean_linker_1, # of connection points: 2
#     Edge 61, Type (0, 0), BuildingBlock: KIFKEQ_clean_linker_1, # of connection points: 2
#     Edge 62, Type (0, 0), BuildingBlock: KIFKEQ_clean_linker_1, # of connection points: 2
#     Edge 63, Type (0, 0), BuildingBlock: KIFKEQ_clean_linker_1, # of connection points: 2
# Relax obj value: 0.180
# Max RMSD: 0.246
# Mean RMSD: 0.246
data_MOF--net-wiu--node1-CUKXOW_clean_sbu_0--edge1-KIFKEQ_clean_linker_1
_symmetry_space_group_name_H-M    P1
_symmetry_Int_Tables_number       1
_symmetry_cell_setting            triclinic
loop_
_symmetry_equiv_pos_as_xyz
'x, y, z'
_cell_length_a     26.602984
_cell_length_b     26.51661
_cell_length_c     69.100231
_cell_angle_alpha  90.073354
_cell_angle_beta   89.909431
_cell_angle_gamma 90.063507
loop_
_atom_site_label
_atom_site_type_symbol
_atom_site_fract_x
_atom_site_fract_y
_atom_site_fract_z
_atom_type_partial_charge
Tb0 Tb 0.34932 0.09883 0.10071 0.0
C1 C 0.35707 0.18643 0.07111 0.0
Tb2 Tb 0.27606 0.10444 0.06631 0.0
O3 O 0.41471 0.08385 0.08321 0.0
O4 O 0.34437 0.06092 0.07271 0.0
O5 O 0.3624 0.17471 0.08974 0.0
C6 C 0.23656 0.09358 0.03139 0.0
O7 O 0.33454 0.15677 0.05844 0.0
C8 C 0.25176 0.16937 0.09467 0.0
C9 C 0.23694 0.04815 0.10272 0.0
O10 O 0.23785 0.13509 0.04124 0.0
O11 O 0.25743 0.05752 0.04124 0.0
O12 O 0.22667 0.1656 0.07857 0.0
O13 O 0.28521 0.13642 0.09332 0.0
O14 O 0.23011 0.05379 0.08382 0.0
O15 O 0.27928 0.06279 0.11143 0.0
C16 C 0.38599 0.08222 0.13576 0.0
O17 O 0.37237 0.04772 0.12346 0.0
O18 O 0.3813 0.12657 0.12788 0.0
C19 C 0.39128 0.06678 0.06815 0.0
Tb20 Tb 0.69944 0.57645 0.34989 0.0
C21 C 0.63263 0.64079 0.32335 0.0
Tb22 Tb 0.66089 0.53172 0.31468 0.0
O23 O 0.73957 0.6398 0.33716 0.0
O24 O 0.7281 0.57528 0.32047 0.0
O25 O 0.64095 0.62887 0.34163 0.0
C26 C 0.65259 0.49081 0.27956 0.0
O27 O 0.64445 0.60976 0.30917 0.0
C28 C 0.59273 0.53385 0.34255 0.0
C29 C 0.71816 0.46001 0.3442 0.0
O30 O 0.61633 0.51063 0.28943 0.0
O31 O 0.69374 0.49343 0.28952 0.0
O32 O 0.58285 0.53753 0.32423 0.0
O33 O 0.63939 0.52511 0.34447 0.0
O34 O 0.68818 0.46221 0.32883 0.0
O35 O 0.73267 0.50158 0.35323 0.0
C36 C 0.71105 0.59814 0.38707 0.0
O37 O 0.74702 0.58435 0.37547 0.0
O38 O 0.66917 0.60097 0.37759 0.0
C39 C 0.74201 0.62193 0.3197 0.0
Tb40 Tb 0.1938 0.93662 0.59898 0.0
C41 C 0.14295 0.86326 0.57106 0.0
Tb42 Tb 0.24658 0.9092 0.56406 0.0
O43 O 0.12649 0.96743 0.58614 0.0
O44 O 0.19318 0.96953 0.57006 0.0
O45 O 0.15309 0.87051 0.58956 0.0
C46 C 0.29062 0.90619 0.52924 0.0
O47 O 0.17198 0.88232 0.55743 0.0
C48 C 0.25171 0.83796 0.59083 0.0
C49 C 0.30657 0.97389 0.59515 0.0
O50 O 0.27757 0.86763 0.53949 0.0
O51 O 0.2793 0.94697 0.53864 0.0
O52 O 0.25116 0.82976 0.57234 0.0
O53 O 0.25345 0.88526 0.59364 0.0
O54 O 0.30999 0.94762 0.57878 0.0
O55 O 0.26306 0.9784 0.60426 0.0
C56 C 0.16665 0.94888 0.63564 0.0
O57 O 0.17958 0.98479 0.6239 0.0
O58 O 0.16793 0.90597 0.62662 0.0
C59 C 0.14504 0.97598 0.56914 0.0
Tb60 Tb 0.83168 0.43671 0.84965 0.0
C61 C 0.90168 0.39395 0.81749 0.0
Tb62 Tb 0.85248 0.49831 0.81437 0.0
O63 O 0.79648 0.37293 0.83536 0.0
O64 O 0.79556 0.44322 0.82175 0.0
O65 O 0.89268 0.39464 0.83637 0.0
C66 C 0.84684 0.54269 0.77978 0.0
O67 O 0.88497 0.4283 0.80541 0.0
C68 C 0.92755 0.49618 0.83949 0.0
C69 C 0.79237 0.55089 0.84857 0.0
O70 O 0.87829 0.55462 0.79336 0.0
O71 O 0.81776 0.50691 0.78595 0.0
O72 O 0.9332 0.50039 0.82087 0.0
O73 O 0.88088 0.49725 0.84327 0.0
O74 O 0.81141 0.55622 0.83088 0.0
O75 O 0.79311 0.50681 0.85771 0.0
C76 C 0.8303 0.40355 0.88588 0.0
O77 O 0.79069 0.41196 0.87536 0.0
O78 O 0.87054 0.41271 0.87582 0.0
C79 C 0.78793 0.39553 0.81909 0.0
Tb80 Tb 0.73835 0.92895 0.96285 0.0
C81 C 0.80295 0.99194 0.93211 0.0
Tb82 Tb 0.69028 0.95752 0.926 0.0
O83 O 0.73796 0.84875 0.95525 0.0
O84 O 0.74559 0.90324 0.93366 0.0
O85 O 0.80211 0.9703 0.94953 0.0
C86 C 0.66434 0.96326 0.88905 0.0
O87 O 0.76211 0.99485 0.92125 0.0
C88 C 0.64297 0.99927 0.95599 0.0
C89 C 0.63341 0.88519 0.95312 0.0
O90 O 0.6709 1.00182 0.90042 0.0
O91 O 0.67229 0.92183 0.89849 0.0
O92 O 0.62412 0.99147 0.93898 0.0
O93 O 0.69071 0.99103 0.95472 0.0
O94 O 0.6431 0.89546 0.9348 0.0
O95 O 0.66364 0.8992 0.96724 0.0
C96 C 0.77009 0.92646 0.99946 0.0
O97 O 0.7273 0.9436 0.99359 0.0
O98 O 0.79607 0.91139 0.98465 0.0
C99 C 0.74068 0.85632 0.93671 0.0
Tb100 Tb 0.35296 0.48452 0.71352 0.0
C101 C 0.28744 0.53705 0.68136 0.0
Tb102 Tb 0.33853 0.42806 0.67799 0.0
O103 O 0.43077 0.50462 0.70718 0.0
O104 O 0.37939 0.49503 0.68452 0.0
O105 O 0.30432 0.54024 0.69937 0.0
C106 C 0.32413 0.39709 0.64186 0.0
O107 O 0.29415 0.49555 0.67093 0.0
C108 C 0.30746 0.37523 0.70852 0.0
C109 C 0.42832 0.39953 0.70382 0.0
O110 O 0.28892 0.40559 0.65447 0.0
O111 O 0.36773 0.40503 0.64971 0.0
O112 O 0.32427 0.35699 0.69243 0.0
O113 O 0.30243 0.42324 0.70631 0.0
O114 O 0.41233 0.40164 0.68572 0.0
O115 O 0.4036 0.42162 0.71811 0.0
C116 C 0.34354 0.51953 0.7495 0.0
O117 O 0.36523 0.54316 0.73538 0.0
O118 O 0.3265 0.47683 0.74324 0.0
C119 C 0.42546 0.50317 0.68848 0.0
Tb120 Tb 0.78061 0.08898 0.46061 0.0
C121 C 0.7415 0.03652 0.42335 0.0
Tb122 Tb 0.85481 0.08462 0.42601 0.0
O123 O 0.73246 0.1516 0.44884 0.0
O124 O 0.79224 0.12411 0.43422 0.0
O125 O 0.7344 0.04066 0.44232 0.0
C126 C 0.89435 0.07862 0.39087 0.0
O127 O 0.78446 0.0504 0.41482 0.0
C128 C 0.89405 0.04716 0.45807 0.0
C129 C 0.86574 0.16719 0.45763 0.0
O130 O 0.88208 0.04036 0.40165 0.0
O131 O 0.88587 0.12032 0.40023 0.0
O132 O 0.91909 0.06375 0.44331 0.0
O133 O 0.8472 0.04429 0.45322 0.0
O134 O 0.87089 0.15783 0.43881 0.0
O135 O 0.84107 0.13752 0.46963 0.0
C136 C 0.74214 0.07913 0.49586 0.0
O137 O 0.74324 0.12025 0.4858 0.0
O138 O 0.76205 0.04257 0.4859 0.0
C139 C 0.75881 0.15718 0.4331 0.0
Tb140 Tb 0.16403 0.54483 0.21349 0.0
C141 C 0.22115 0.47013 0.18486 0.0
Tb142 Tb 0.20785 0.5865 0.17895 0.0
O143 O 0.08754 0.55502 0.20286 0.0
O144 O 0.145 0.53782 0.18348 0.0
O145 O 0.18934 0.47406 0.19965 0.0
C146 C 0.21947 0.60761 0.14174 0.0
O147 O 0.23891 0.51073 0.17611 0.0
C148 C 0.25088 0.62991 0.20952 0.0
C149 C 0.14443 0.65552 0.20506 0.0
O150 O 0.25549 0.59376 0.15327 0.0
O151 O 0.17773 0.61083 0.15133 0.0
O152 O 0.25074 0.64764 0.19202 0.0
O153 O 0.23429 0.58417 0.20862 0.0
O154 O 0.15241 0.64258 0.18685 0.0
O155 O 0.15243 0.62357 0.21927 0.0
C156 C 0.14945 0.50222 0.24791 0.0
O157 O 0.11564 0.52534 0.23788 0.0
O158 O 0.19173 0.50296 0.2386 0.0
C159 C 0.09867 0.54886 0.18474 0.0
Tb160 Tb 0.84605 0.59907 0.60192 0.0
C161 C 0.85455 0.68633 0.57199 0.0
Tb162 Tb 0.77439 0.60405 0.56672 0.0
O163 O 0.91229 0.58256 0.58493 0.0
O164 O 0.84224 0.56117 0.57396 0.0
O165 O 0.85886 0.67474 0.59066 0.0
C166 C 0.73869 0.59196 0.53119 0.0
O167 O 0.833 0.65636 0.5592 0.0
C168 C 0.74823 0.66911 0.59488 0.0
C169 C 0.73535 0.54495 0.60266 0.0
O170 O 0.73838 0.63368 0.54094 0.0
O171 O 0.75848 0.55633 0.54157 0.0
O172 O 0.72427 0.6652 0.57852 0.0
O173 O 0.78168 0.63593 0.59393 0.0
O174 O 0.72866 0.55253 0.58384 0.0
O175 O 0.77715 0.55948 0.61183 0.0
C176 C 0.88373 0.59029 0.63738 0.0
O177 O 0.87051 0.55301 0.62625 0.0
O178 O 0.87736 0.63255 0.62821 0.0
C179 C 0.88928 0.56622 0.56966 0.0
Tb180 Tb 0.19837 0.07815 0.85174 0.0
C181 C 0.1203 0.1191 0.82251 0.0
Tb182 Tb 0.17829 0.01981 0.81591 0.0
O183 O 0.22663 0.14502 0.83741 0.0
O184 O 0.23417 0.07545 0.82361 0.0
O185 O 0.13241 0.11725 0.84108 0.0
C186 C 0.18588 0.98875 0.77949 0.0
O187 O 0.13865 0.08796 0.80947 0.0
C188 C 0.10472 1.01466 0.84176 0.0
C189 C 0.23981 0.9647 0.84868 0.0
O190 O 0.16453 0.96315 0.79328 0.0
O191 O 0.20382 0.03034 0.78642 0.0
O192 O 0.09803 1.01116 0.82315 0.0
O193 O 0.15153 0.01641 0.84495 0.0
O194 O 0.22227 0.96147 0.8307 0.0
O195 O 0.23726 1.00737 0.85875 0.0
C196 C 0.2046 0.10744 0.88822 0.0
O197 O 0.24283 0.09783 0.87708 0.0
O198 O 0.16305 0.10188 0.87863 0.0
C199 C 0.23761 0.12359 0.82111 0.0
Tb200 Tb 0.69218 0.44158 0.09969 0.0
C201 C 0.63399 0.37309 0.07176 0.0
Tb202 Tb 0.74112 0.40966 0.06393 0.0
O203 O 0.62682 0.47781 0.08702 0.0
O204 O 0.6926 0.47289 0.07067 0.0
O205 O 0.64569 0.37944 0.09017 0.0
C206 C 0.78287 0.40328 0.02879 0.0
O207 O 0.66438 0.38847 0.05788 0.0
C208 C 0.74303 0.33919 0.09096 0.0
C209 C 0.80585 0.47299 0.0943 0.0
O210 O 0.76789 0.3658 0.03924 0.0
O211 O 0.77496 0.44488 0.0382 0.0
O212 O 0.74073 0.33052 0.07253 0.0
O213 O 0.74812 0.3864 0.09354 0.0
O214 O 0.80696 0.44444 0.07841 0.0
O215 O 0.76329 0.48128 0.10376 0.0
C216 C 0.66535 0.44722 0.13663 0.0
O217 O 0.67409 0.4858 0.12554 0.0
O218 O 0.67118 0.40591 0.12687 0.0
C219 C 0.64532 0.48365 0.0698 0.0
Tb220 Tb 0.35253 0.94037 0.35064 0.0
C221 C 0.43602 0.92078 0.32049 0.0
Tb222 Tb 0.35183 0.99979 0.31451 0.0
O223 O 0.34056 0.86903 0.33601 0.0
O224 O 0.30992 0.9339 0.32374 0.0
O225 O 0.42602 0.92128 0.33926 0.0
C226 C 0.33509 0.02783 0.27809 0.0
O227 O 0.40637 0.94194 0.30758 0.0
C228 C 0.42678 0.02444 0.33803 0.0
C229 C 0.28804 0.0432 0.34924 0.0
O230 O 0.32796 0.98326 0.28516 0.0
O231 O 0.3498 0.05782 0.29183 0.0
O232 O 0.42864 0.02841 0.31929 0.0
O233 O 0.38266 1.01087 0.34257 0.0
O234 O 0.29891 0.04818 0.33053 0.0
O235 O 0.30281 1.00294 0.35919 0.0
C236 C 0.3539 0.90876 0.38713 0.0
O237 O 0.3149 0.90783 0.37584 0.0
O238 O 0.39231 0.92643 0.37772 0.0
C239 C 0.3181 0.88651 0.32086 0.0
Tb240 Tb 0.22944 0.4213 0.46305 0.0
C241 C 0.29391 0.48491 0.4326 0.0
Tb242 Tb 0.18123 0.45049 0.42652 0.0
O243 O 0.22559 0.34102 0.45561 0.0
O244 O 0.23514 0.3946 0.43388 0.0
O245 O 0.29325 0.46262 0.44988 0.0
C246 C 0.15464 0.45385 0.38966 0.0
O247 O 0.25316 0.48766 0.42168 0.0
C248 C 0.13661 0.49557 0.45635 0.0
C249 C 0.12162 0.38351 0.45487 0.0
O250 O 0.16168 0.49316 0.4006 0.0
O251 O 0.16253 0.41301 0.39947 0.0
O252 O 0.11699 0.48811 0.43943 0.0
O253 O 0.18386 0.48496 0.45497 0.0
O254 O 0.13097 0.3917 0.43636 0.0
O255 O 0.15378 0.39606 0.46851 0.0
C256 C 0.26237 0.41805 0.4994 0.0
O257 O 0.22017 0.43696 0.49373 0.0
O258 O 0.28719 0.40153 0.48451 0.0
C259 C 0.22835 0.34796 0.43705 0.0
Tb260 Tb 0.8524 0.99015 0.21422 0.0
C261 C 0.78718 0.03923 0.18146 0.0
Tb262 Tb 0.84386 0.93255 0.17865 0.0
O263 O 0.93013 1.0129 0.20844 0.0
O264 O 0.88067 1.00137 0.18545 0.0
O265 O 0.8016 0.04288 0.19975 0.0
C266 C 0.83208 0.90152 0.14228 0.0
O267 O 0.79761 0.99853 0.171 0.0
C268 C 0.81074 0.87926 0.2088 0.0
C269 C 0.92984 0.90659 0.20668 0.0
O270 O 0.79624 0.90844 0.15476 0.0
O271 O 0.87509 0.91072 0.15046 0.0
O272 O 0.83037 0.86136 0.19312 0.0
O273 O 0.80452 0.9271 0.20637 0.0
O274 O 0.91802 0.90938 0.1881 0.0
O275 O 0.9022 0.92785 0.22025 0.0
C276 C 0.84159 0.02704 0.2499 0.0
O277 O 0.86306 0.05008 0.2356 0.0
O278 O 0.82505 0.98379 0.24395 0.0
C279 C 0.92605 1.01142 0.18972 0.0
Tb280 Tb 0.27992 0.58646 0.96307 0.0
C281 C 0.23143 0.52319 0.92918 0.0
Tb282 Tb 0.33944 0.57781 0.92762 0.0
O283 O 0.25873 0.665 0.9567 0.0
O284 O 0.27111 0.614 0.93429 0.0
O285 O 0.22614 0.53921 0.94728 0.0
C286 C 0.37322 0.57423 0.89152 0.0
O287 O 0.27396 0.53086 0.91944 0.0
C288 C 0.3913 0.54443 0.95784 0.0
C289 C 0.36566 0.6612 0.95738 0.0
O290 O 0.36781 0.53553 0.90285 0.0
O291 O 0.36054 0.61503 0.90069 0.0
O292 O 0.40989 0.5624 0.942 0.0
O293 O 0.3435 0.53908 0.95535 0.0
O294 O 0.36326 0.65087 0.93863 0.0
O295 O 0.34285 0.63358 0.97053 0.0
C296 C 0.24195 0.57077 0.99824 0.0
O297 O 0.22631 0.60426 0.98605 0.0
O298 O 0.27812 0.54526 0.99042 0.0
C299 C 0.26154 0.65979 0.93801 0.0
Tb300 Tb 0.66598 0.05236 0.71197 0.0
C301 C 0.71991 0.97496 0.68328 0.0
Tb302 Tb 0.71367 0.0922 0.67702 0.0
O303 O 0.59074 0.06762 0.70069 0.0
O304 O 0.64843 0.04714 0.68189 0.0
O305 O 0.68762 0.9805 0.69789 0.0
C306 C 0.7257 0.11064 0.63965 0.0
O307 O 0.74038 1.01457 0.67469 0.0
C308 C 0.75856 0.13188 0.70795 0.0
C309 C 0.65474 0.16511 0.70379 0.0
O310 O 0.76101 0.0949 0.65116 0.0
O311 O 0.68455 0.11756 0.64937 0.0
O312 O 0.76239 0.14858 0.69033 0.0
O313 O 0.73763 0.08803 0.70673 0.0
O314 O 0.66448 0.15399 0.68547 0.0
O315 O 0.65831 0.13138 0.71769 0.0
C316 C 0.65161 1.01099 0.74666 0.0
O317 O 0.61774 0.03423 0.73664 0.0
O318 O 0.69351 1.0106 0.73708 0.0
C319 C 0.60293 0.06116 0.68267 0.0
H320 H 0.34331 0.27821 0.08734 0.0
H321 H 0.40945 0.20217 0.0383 0.0
H322 H 0.39105 0.35425 0.0795 0.0
H323 H 0.45988 0.27624 0.0313 0.0
H324 H 0.58798 0.37585 0.03631 0.0
H325 H 0.49909 0.35971 0.02964 0.0
H326 H 0.47471 0.33114 0.09064 0.0
H327 H 0.56146 0.34709 0.09713 0.0
C328 C 0.36747 0.27839 0.07469 0.0
C329 C 0.37591 0.23427 0.06408 0.0
C330 C 0.39376 0.32197 0.06992 0.0
C331 C 0.43148 0.31971 0.05566 0.0
C332 C 0.43222 0.27865 0.04278 0.0
C333 C 0.40437 0.23574 0.04706 0.0
C334 C 0.56327 0.36609 0.04821 0.0
C335 C 0.58178 0.36111 0.06715 0.0
C336 C 0.5124 0.35802 0.04444 0.0
C337 C 0.47973 0.34472 0.05958 0.0
C338 C 0.49823 0.34257 0.07861 0.0
C339 C 0.54859 0.35034 0.08231 0.0
H340 H 0.63156 0.68595 0.2878 0.0
H341 H 0.60474 0.71271 0.34875 0.0
H342 H 0.60806 0.77314 0.28074 0.0
H343 H 0.58118 0.79796 0.34185 0.0
H344 H 0.5266 0.93008 0.33748 0.0
H345 H 0.60126 0.88125 0.33028 0.0
H346 H 0.52298 0.80931 0.28288 0.0
H347 H 0.45071 0.86366 0.28854 0.0
C348 C 0.62076 0.71044 0.29965 0.0
C349 C 0.61853 0.69248 0.31877 0.0
C350 C 0.60823 0.76033 0.29563 0.0
C351 C 0.59342 0.79253 0.3107 0.0
C352 C 0.59377 0.77477 0.32988 0.0
C353 C 0.60614 0.72534 0.33385 0.0
C354 C 0.52661 0.90615 0.32482 0.0
C355 C 0.48301 0.89911 0.31387 0.0
C356 C 0.56934 0.8784 0.3206 0.0
C357 C 0.56668 0.83977 0.30675 0.0
C358 C 0.52579 0.83828 0.29389 0.0
C359 C 0.48399 0.86845 0.29739 0.0
H360 H 0.09262 0.87616 0.5369 0.0
H361 H 0.07914 0.81401 0.59457 0.0
H362 H 1.00294 0.86001 0.5314 0.0
H363 H 0.99117 0.79845 0.58917 0.0
H364 H 0.85247 0.77689 0.59011 0.0
H365 H 0.90772 0.84775 0.58262 0.0
H366 H 0.95742 0.77159 0.53076 0.0
H367 H 0.90027 0.70229 0.53762 0.0
C368 C 0.07066 0.85875 0.54829 0.0
C369 C 0.09251 0.84617 0.56617 0.0
C370 C 0.01944 0.85069 0.54527 0.0
C371 C 0.98998 0.83031 0.56015 0.0
C372 C 1.01249 0.81663 0.57776 0.0
C373 C 0.06318 0.82433 0.58071 0.0
C374 C 0.87372 0.77657 0.57671 0.0
C375 C 0.87518 0.73355 0.56499 0.0
C376 C 0.90417 0.81746 0.57216 0.0
C377 C 0.93848 0.81323 0.55677 0.0
C378 C 0.93206 0.77496 0.54298 0.0
C379 C 0.90032 0.73477 0.54716 0.0
H380 H 0.05106 0.1108 0.79416 0.0
H381 H 0.11768 0.21515 0.83487 0.0
H382 H 0.99523 0.17778 0.78247 0.0
H383 H 0.06373 0.28212 0.82262 0.0
H384 H 0.98197 0.3983 0.79381 0.0
H385 H 0.03591 0.32683 0.785 0.0
H386 H 0.93166 0.22498 0.81282 0.0
H387 H 0.87912 0.29637 0.82228 0.0
C388 C 0.05415 0.14831 0.8003 0.0
C389 C 0.08741 0.15835 0.81559 0.0
C390 C 0.02312 0.18632 0.79341 0.0
C391 C 0.02675 0.23461 0.80137 0.0
C392 C 0.0617 0.24507 0.81601 0.0
C393 C 0.09149 0.20684 0.82329 0.0
C394 C 0.9703 0.36034 0.7975 0.0
C395 C 0.9284 0.3519 0.80932 0.0
C396 C 1.00031 0.31983 0.79216 0.0
C397 C 0.98732 0.27122 0.7983 0.0
C398 C 0.94166 0.26243 0.80784 0.0
C399 C 0.91253 0.30298 0.81364 0.0
H400 H 0.56366 0.85129 0.92798 0.0
H401 H 0.59241 0.87298 0.98909 0.0
H402 H 0.4827 0.81626 0.9354 0.0
H403 H 0.5098 0.83742 0.99662 0.0
H404 H 0.4314 0.67316 0.98672 0.0
H405 H 0.4837 0.74747 0.99216 0.0
H406 H 0.39858 0.8289 0.94905 0.0
H407 H 0.3498 0.75316 0.94248 0.0
C408 C 0.55241 0.849 0.94303 0.0
C409 C 0.58467 0.86361 0.95797 0.0
C410 C 0.50542 0.82994 0.9473 0.0
C411 C 0.48972 0.82495 0.96663 0.0
C412 C 0.52114 0.84132 0.98163 0.0
C413 C 0.56848 0.86074 0.97732 0.0
C414 C 0.42349 0.7075 0.9788 0.0
C415 C 0.38885 0.70768 0.96361 0.0
C416 C 0.45246 0.75026 0.98219 0.0
C417 C 0.44592 0.79313 0.97052 0.0
C418 C 0.40491 0.79566 0.95783 0.0
C419 C 0.37757 0.7524 0.95388 0.0
H420 H 0.61105 0.1996 0.73659 0.0
H421 H 0.68908 0.24853 0.68508 0.0
H422 H 0.58491 0.28513 0.74288 0.0
H423 H 0.6652 0.33547 0.69197 0.0
H424 H 0.49493 0.36715 0.67701 0.0
H425 H 0.57921 0.3392 0.68213 0.0
H426 H 0.56614 0.37281 0.7433 0.0
H427 H 0.47996 0.40089 0.73803 0.0
C428 C 0.62354 0.22909 0.72686 0.0
C429 C 0.64785 0.21755 0.70944 0.0
C430 C 0.60993 0.27855 0.73076 0.0
C431 C 0.61989 0.31634 0.71701 0.0
C432 C 0.65463 0.30628 0.70216 0.0
C433 C 0.66695 0.25655 0.69789 0.0
C434 C 0.50985 0.36877 0.69158 0.0
C435 C 0.48002 0.38349 0.70729 0.0
C436 C 0.5591 0.35419 0.69449 0.0
C437 C 0.57934 0.35281 0.71329 0.0
C438 C 0.55122 0.3727 0.72873 0.0
C439 C 0.50163 0.3876 0.72577 0.0
H440 H 0.0854 0.37046 0.49154 0.0
H441 H 0.04257 0.36706 0.43116 0.0
H442 H 1.00128 0.34231 0.50059 0.0
H443 H 0.96012 0.33875 0.43998 0.0
H444 H 0.8378 0.26016 0.44665 0.0
H445 H 0.87954 0.33894 0.45558 0.0
H446 H 0.97536 0.25624 0.49492 0.0
H447 H 0.93093 0.17888 0.48696 0.0
C448 C 0.05801 0.36387 0.48023 0.0
C449 C 0.07101 0.36836 0.46058 0.0
C450 C 1.00973 0.34885 0.48545 0.0
C451 C 0.97424 0.33775 0.47106 0.0
C452 C 0.98617 0.34727 0.45156 0.0
C453 C 0.03414 0.36215 0.44638 0.0
C454 C 0.86688 0.25969 0.45762 0.0
C455 C 0.88402 0.21422 0.46537 0.0
C456 C 0.88992 0.30455 0.46302 0.0
C457 C 0.93238 0.30312 0.47508 0.0
C458 C 0.94342 0.25855 0.48526 0.0
C459 C 0.91905 0.21399 0.48038 0.0
H460 H 0.13512 0.73159 0.17945 0.0
H461 H 0.14013 0.6999 0.24079 0.0
H462 H 0.11154 0.8164 0.18601 0.0
H463 H 0.11753 0.78712 0.24771 0.0
H464 H 0.95432 0.85226 0.23837 0.0
H465 H 0.03528 0.81414 0.24494 0.0
H466 H 0.09984 0.89599 0.19668 0.0
H467 H 0.0167 0.92556 0.18814 0.0
C468 C 0.13168 0.74314 0.19444 0.0
C469 C 0.13579 0.7085 0.20957 0.0
C470 C 0.11939 0.79267 0.19835 0.0
C471 C 0.11008 0.80838 0.21752 0.0
C472 C 0.12214 0.77556 0.23278 0.0
C473 C 0.1342 0.72552 0.22881 0.0
C474 C 0.98607 0.86159 0.22919 0.0
C475 C 0.97942 0.88932 0.21222 0.0
C476 C 0.03299 0.84117 0.23326 0.0
C477 C 0.07364 0.84962 0.22053 0.0
C478 C 0.06858 0.88633 0.20604 0.0
C479 C 0.02106 0.90331 0.20109 0.0
H480 H 0.37247 0.06907 0.02792 0.0
H481 H 0.48346 0.02351 0.06963 0.0
H482 H 0.4334 0.05335 1.00177 0.0
H483 H 0.54351 1.00695 0.04393 0.0
H484 H 0.66268 0.02543 0.99533 0.0
H485 H 0.60086 0.03833 0.02145 0.0
H486 H 0.48082 1.00085 0.98203 0.0
H487 H 0.54153 0.98934 0.95637 0.0
C488 C 0.40914 0.05415 0.03156 0.0
C489 C 0.42201 0.04687 0.05114 0.0
C490 C 0.44481 0.0454 0.01647 0.0
C491 C 0.49489 0.02913 0.02032 0.0
C492 C 0.5066 0.02044 0.03992 0.0
C493 C 0.47131 0.02928 0.05484 0.0
C494 C 0.62319 0.01978 0.99226 0.0
C495 C 0.60801 1.00644 0.9734 0.0
C496 C 0.58715 0.02708 1.00736 0.0
C497 C 0.53447 0.02122 1.00425 0.0
C498 C 0.52003 1.00721 0.98539 0.0
C499 C 0.55564 1.00018 0.97047 0.0
H500 H 0.76509 0.72174 0.32108 0.0
H501 H 0.7375 0.6047 0.27913 0.0
H502 H 0.77704 0.78287 0.29546 0.0
H503 H 0.74898 0.66683 0.25299 0.0
H504 H 0.82224 0.77766 0.20986 0.0
H505 H 0.8042 0.71701 0.23502 0.0
H506 H 0.74647 0.83641 0.27121 0.0
H507 H 0.76567 0.89822 0.24561 0.0
C508 C 0.76162 0.70864 0.30629 0.0
C509 C 0.75083 0.65722 0.30251 0.0
C510 C 0.76801 0.74451 0.29138 0.0
C511 C 0.76418 0.73117 0.27169 0.0
C512 C 0.75318 0.67951 0.26779 0.0
C513 C 0.74649 0.64333 0.28287 0.0
C514 C 0.80537 0.79162 0.2231 0.0
C515 C 0.79569 0.84386 0.22532 0.0
C516 C 0.79455 0.75603 0.23771 0.0
C517 C 0.77344 0.77041 0.25559 0.0
C518 C 0.76324 0.82286 0.25791 0.0
C519 C 0.77405 0.85883 0.24308 0.0
H520 H 0.16403 0.98756 0.52879 0.0
H521 H 0.04404 0.98768 0.57074 0.0
H522 H 0.10172 1.00133 0.50295 0.0
H523 H 0.98272 0.99918 0.54548 0.0
H524 H 0.87972 0.06386 0.49776 0.0
H525 H 0.94087 0.0488 0.52365 0.0
H526 H 0.03772 0.97186 0.48306 0.0
H527 H 0.97742 0.98845 0.45742 0.0
C528 C 0.12468 0.99077 0.53261 0.0
C529 C 0.11 0.98702 0.55217 0.0
C530 C 0.08832 0.99814 0.51769 0.0
C531 C 0.03585 1.00183 0.52171 0.0
C532 C 0.02191 0.99794 0.54132 0.0
C533 C 0.05784 0.99093 0.55604 0.0
C534 C 0.9132 0.04223 0.49451 0.0
C535 C 0.92238 0.02634 0.47537 0.0
C536 C 0.94912 0.03384 0.50943 0.0
C537 C 0.99581 1.00923 0.50586 0.0
C538 C 1.00361 0.99186 0.48678 0.0
C539 C 0.96807 1.00054 0.47197 0.0
H540 H 0.73257 0.30996 0.81767 0.0
H541 H 0.81801 0.40637 0.7799 0.0
H542 H 0.72439 0.24779 0.7922 0.0
H543 H 0.81333 0.34274 0.75454 0.0
H544 H 0.78332 0.23115 0.70622 0.0
H545 H 0.78471 0.29525 0.73082 0.0
H546 H 0.74792 0.18291 0.77389 0.0
H547 H 0.74291 0.11871 0.74837 0.0
C548 C 0.74935 0.31837 0.80375 0.0
C549 C 0.7755 0.36434 0.80114 0.0
C550 C 0.74549 0.2816 0.78898 0.0
C551 C 0.76874 0.28795 0.77074 0.0
C552 C 0.79392 0.33493 0.76795 0.0
C553 C 0.79678 0.3724 0.78271 0.0
C554 C 0.77557 0.21955 0.72095 0.0
C555 C 0.76308 0.16872 0.72496 0.0
C556 C 0.77676 0.25714 0.73541 0.0
C557 C 0.76684 0.24619 0.75504 0.0
C558 C 0.75515 0.19473 0.75919 0.0
C559 C 0.75287 0.15697 0.74446 0.0
H560 H 0.2754 0.39542 0.74711 0.0
H561 H 0.30675 0.27281 0.70801 0.0
H562 H 0.25998 0.3345 0.77305 0.0
H563 H 0.28874 0.21229 0.73317 0.0
H564 H 0.2903 0.1053 0.78594 0.0
H565 H 0.30655 0.16576 0.75972 0.0
H566 H 0.21461 0.27623 0.78909 0.0
H567 H 0.20122 0.21741 0.81519 0.0
C568 C 0.2787 0.35569 0.74388 0.0
C569 C 0.29291 0.34005 0.72516 0.0
C570 C 0.2693 0.31994 0.75888 0.0
C571 C 0.27294 0.26686 0.75577 0.0
C572 C 0.28627 0.25184 0.73686 0.0
C573 C 0.2962 0.28731 0.7221 0.0
C574 C 0.27322 0.14229 0.78666 0.0
C575 C 0.24423 0.15568 0.80296 0.0
C576 C 0.28249 0.17764 0.77149 0.0
C577 C 0.26264 0.22764 0.77184 0.0
C578 C 0.23233 0.23967 0.78796 0.0
C579 C 0.22388 0.20497 0.80307 0.0
H580 H 0.26685 0.90434 0.28522 0.0
H581 H 0.33459 0.78568 0.31877 0.0
H582 H 0.24804 0.84268 0.25947 0.0
H583 H 0.31602 0.72505 0.29356 0.0
H584 H 0.24649 0.61204 0.25004 0.0
H585 H 0.25755 0.67389 0.2764 0.0
H586 H 0.28237 0.7913 0.23432 0.0
H587 H 0.27151 0.73039 0.20846 0.0
C588 C 0.27789 0.86546 0.28723 0.0
C589 C 0.30275 0.851 0.30438 0.0
C590 C 0.26712 0.82959 0.27234 0.0
C591 C 0.28021 0.7777 0.27407 0.0
C592 C 0.30425 0.76369 0.29139 0.0
C593 C 0.31531 0.79924 0.30601 0.0
C594 C 0.25466 0.65091 0.24642 0.0
C595 C 0.25862 0.66524 0.22682 0.0
C596 C 0.26106 0.68688 0.26162 0.0
C597 C 0.27106 0.73875 0.25787 0.0
C598 C 0.27424 0.75263 0.23823 0.0
C599 C 0.26846 0.71692 0.2232 0.0
H600 H 0.03499 0.48784 0.45719 0.0
H601 H 0.15818 0.5213 0.49553 0.0
H602 H 0.9755 0.49997 0.48317 0.0
H603 H 0.09762 0.53549 0.52195 0.0
H604 H 0.98228 0.52475 0.57081 0.0
H605 H 0.04119 0.5072 0.54486 0.0
H606 H 0.92894 0.55124 0.50312 0.0
H607 H 0.86909 0.56748 0.52954 0.0
C608 C 0.0498 0.49832 0.47122 0.0
C609 C 0.10236 0.5035 0.47389 0.0
C610 C 0.01489 0.50576 0.48634 0.0
C611 C 0.03026 0.51948 0.50512 0.0
C612 C 0.08315 0.52444 0.50795 0.0
C613 C 0.11848 0.51645 0.49267 0.0
C614 C 0.96947 0.52984 0.55607 0.0
C615 C 0.91991 0.54685 0.55256 0.0
C616 C 1.0041 0.52041 0.54098 0.0
C617 C 0.99143 0.52806 0.5214 0.0
C618 C 0.94112 0.54397 0.51778 0.0
C619 C 0.90608 0.55313 0.53303 0.0
H620 H 0.66396 0.48164 0.02936 0.0
H621 H 0.54535 0.50392 0.07099 0.0
H622 H 0.6024 0.49148 1.00307 0.0
H623 H 0.48472 0.51447 0.04521 0.0
H624 H 0.37182 0.49979 0.9947 0.0
H625 H 0.43303 0.48276 0.02065 0.0
H626 H 0.5514 0.54513 0.98522 0.0
H627 H 0.49157 0.56072 0.95973 0.0
C628 C 0.6251 0.48927 0.03299 0.0
C629 C 0.61053 0.49248 0.05257 0.0
C630 C 0.58924 0.49497 0.01783 0.0
C631 C 0.53733 0.504 0.0216 0.0
C632 C 0.52335 0.50693 0.04124 0.0
C633 C 0.55889 0.50139 0.05624 0.0
C634 C 0.41086 0.50965 0.99244 0.0
C635 C 0.4259 0.53163 0.97477 0.0
C636 C 0.44646 0.5001 1.00745 0.0
C637 C 0.49846 0.51214 1.00541 0.0
C638 C 0.51279 0.53395 0.98767 0.0
C639 C 0.47764 0.54336 0.97287 0.0
H640 H 0.17265 0.2336 0.10086 0.0
H641 H 0.31949 0.19644 0.12273 0.0
H642 H 0.16613 0.302 0.12476 0.0
H643 H 0.31385 0.26544 0.14611 0.0
H644 H 0.30184 0.44005 0.16297 0.0
H645 H 0.30891 0.36449 0.14269 0.0
H646 H 0.16425 0.31363 0.16307 0.0
H647 H 0.15775 0.38851 0.18381 0.0
C648 C 0.20349 0.23983 0.1108 0.0
C649 C 0.24669 0.20937 0.10983 0.0
C650 C 0.1997 0.27894 0.12454 0.0
C651 C 0.23953 0.28934 0.13737 0.0
C652 C 0.28257 0.25868 0.13643 0.0
C653 C 0.28577 0.2189 0.12303 0.0
C654 C 0.27209 0.41217 0.16351 0.0
C655 C 0.22952 0.42024 0.17525 0.0
C656 C 0.27607 0.3689 0.15183 0.0
C657 C 0.23699 0.33311 0.15113 0.0
C658 C 0.19489 0.34056 0.16317 0.0
C659 C 0.19148 0.38323 0.17524 0.0
H660 H 0.60171 0.51775 0.38228 0.0
H661 H 0.49216 0.54066 0.33723 0.0
H662 H 0.53342 0.5119 0.40627 0.0
H663 H 0.42476 0.53304 0.36059 0.0
H664 H 0.30785 0.55715 0.40496 0.0
H665 H 0.38219 0.57296 0.38542 0.0
H666 H 0.46452 0.46269 0.41861 0.0
H667 H 0.38995 0.44852 0.4388 0.0
C668 C 0.56317 0.5215 0.37748 0.0
C669 C 0.55264 0.52992 0.35777 0.0
C670 C 0.52381 0.51785 0.39123 0.0
C671 C 0.47288 0.52252 0.38563 0.0
C672 C 0.46299 0.53057 0.36583 0.0
C673 C 0.50199 0.53446 0.35225 0.0
C674 C 0.34208 0.53699 0.40841 0.0
C675 C 0.34254 0.50149 0.42353 0.0
C676 C 0.38488 0.54555 0.39696 0.0
C677 C 0.42972 0.5182 0.39989 0.0
C678 C 0.43111 0.4847 0.41577 0.0
C679 C 0.3882 0.47661 0.42745 0.0
H680 H 0.25878 0.73756 0.58408 0.0
H681 H 0.24958 0.84413 0.63109 0.0
H682 H 0.26197 0.66845 0.60687 0.0
H683 H 0.25012 0.77412 0.65434 0.0
H684 H 0.30667 0.63641 0.69051 0.0
H685 H 0.29571 0.71022 0.66987 0.0
H686 H 0.21865 0.61769 0.62778 0.0
H687 H 0.23207 0.54389 0.64797 0.0
C688 C 0.25691 0.7463 0.59938 0.0
C689 C 0.25378 0.79669 0.60565 0.0
C690 C 0.25811 0.70624 0.6126 0.0
C691 C 0.25549 0.7147 0.63274 0.0
C692 C 0.25254 0.76544 0.63906 0.0
C693 C 0.25189 0.80585 0.62571 0.0
C694 C 0.28643 0.632 0.67703 0.0
C695 C 0.27037 0.58378 0.67099 0.0
C696 C 0.28017 0.67463 0.66506 0.0
C697 C 0.25718 0.67059 0.64672 0.0
C698 C 0.23815 0.62277 0.64137 0.0
C699 C 0.24513 0.58017 0.65316 0.0
H700 H 0.92491 0.49347 0.87965 0.0
H701 H 0.02764 0.49835 0.83144 0.0
H702 H 0.99586 0.49039 0.90202 0.0
H703 H 0.09837 0.49954 0.85349 0.0
H704 H 0.22574 0.47321 0.8942 0.0
H705 H 0.15217 0.46095 0.87381 0.0
H706 H 0.05926 0.53092 0.91765 0.0
H707 H 0.13233 0.53985 0.93836 0.0
C708 C 0.96266 0.49372 0.8738 0.0
C709 C 0.97027 0.49535 0.85366 0.0
C710 C 1.00381 0.49273 0.8867 0.0
C711 C 0.05405 0.49447 0.8799 0.0
C712 C 0.06109 0.49668 0.85965 0.0
C713 C 0.02011 0.49667 0.84684 0.0
C714 C 0.18938 0.48484 0.89968 0.0
C715 C 0.18542 0.50726 0.91809 0.0
C716 C 0.14684 0.47863 0.88778 0.0
C717 C 0.09877 0.49583 0.8936 0.0
C718 C 0.09475 0.51647 0.9124 0.0
C719 C 0.13714 0.52168 0.92444 0.0
H720 H 0.77182 0.55694 0.88729 0.0
H721 H 0.77889 0.64966 0.8361 0.0
H722 H 0.75772 0.6307 0.90696 0.0
H723 H 0.76152 0.72441 0.85583 0.0
H724 H 0.78186 0.85608 0.89981 0.0
H725 H 0.79026 0.78405 0.87774 0.0
H726 H 0.70686 0.69166 0.91816 0.0
H727 H 0.70199 0.76232 0.94039 0.0
C728 C 0.76902 0.59304 0.88006 0.0
C729 C 0.77627 0.59668 0.85991 0.0
C730 C 0.76053 0.63599 0.89148 0.0
C731 C 0.75788 0.68465 0.88327 0.0
C732 C 0.76388 0.68822 0.86297 0.0
C733 C 0.77326 0.64501 0.85152 0.0
C734 C 0.76537 0.82024 0.90387 0.0
C735 C 0.74194 0.8148 0.92202 0.0
C736 C 0.76987 0.7787 0.89114 0.0
C737 C 0.75018 0.73073 0.89604 0.0
C738 C 0.72446 0.7267 0.91387 0.0
C739 C 0.72107 0.76767 0.92668 0.0
H740 H 0.52307 0.48752 0.6974 0.0
H741 H 0.42721 0.51904 0.6487 0.0
H742 H 0.59606 0.48826 0.6766 0.0
H743 H 0.50152 0.52426 0.62766 0.0
H744 H 0.64367 0.50557 0.59088 0.0
H745 H 0.56879 0.49059 0.61064 0.0
H746 H 0.6509 0.53868 0.66138 0.0
H747 H 0.72541 0.5503 0.64199 0.0
C748 C 0.51764 0.49533 0.68217 0.0
C749 C 0.46912 0.50361 0.6748 0.0
C750 C 0.55998 0.49635 0.67012 0.0
C751 C 0.55592 0.50762 0.65024 0.0
C752 C 0.50693 0.51512 0.64276 0.0
C753 C 0.46407 0.51259 0.65485 0.0
C754 C 0.64595 0.51174 0.60635 0.0
C755 C 0.69124 0.52861 0.61474 0.0
C756 C 0.60255 0.50382 0.61773 0.0
C757 C 0.60274 0.51327 0.63787 0.0
C758 C 0.64851 0.52944 0.64616 0.0
C759 C 0.69186 0.53642 0.63489 0.0
H760 H 0.6751 0.21294 0.42455 0.0
H761 H 0.83006 0.19427 0.40797 0.0
H762 H 0.6668 0.28193 0.40107 0.0
H763 H 0.82231 0.26356 0.3849 0.0
H764 H 0.7969 0.43565 0.36804 0.0
H765 H 0.807 0.36 0.38794 0.0
H766 H 0.67123 0.29783 0.36362 0.0
H767 H 0.66174 0.37305 0.3433 0.0
C768 C 0.70735 0.22328 0.41583 0.0
C769 C 0.75322 0.19758 0.41811 0.0
C770 C 0.70256 0.26273 0.4023 0.0
C771 C 0.74388 0.27847 0.39102 0.0
C772 C 0.78971 0.25266 0.39332 0.0
C773 C 0.79409 0.21251 0.4065 0.0
C774 C 0.76977 0.4054 0.36658 0.0
C775 C 0.72877 0.41049 0.35384 0.0
C776 C 0.77552 0.36198 0.37805 0.0
C777 C 0.73977 0.32279 0.37753 0.0
C778 C 0.69931 0.32734 0.3645 0.0
C779 C 0.69421 0.37029 0.35267 0.0
H780 H 0.8176 0.55222 0.1192 0.0
H781 H 0.9021 0.43385 0.09138 0.0
H782 H 0.89029 0.57396 0.13873 0.0
H783 H 0.97502 0.45425 0.11162 0.0
H784 H 0.10983 0.52158 0.14602 0.0
H785 H 0.04293 0.50777 0.12201 0.0
H786 H 0.93165 0.54289 0.16558 0.0
H787 H 0.99774 0.55813 0.18891 0.0
C788 C 0.85195 0.53098 0.11711 0.0
C789 C 0.85357 0.49112 0.10365 0.0
C790 C 0.89382 0.54309 0.12856 0.0
C791 C 0.93889 0.51523 0.12732 0.0
C792 C 0.9414 0.47688 0.11312 0.0
C793 C 0.89942 0.46513 0.10142 0.0
C794 C 0.07101 0.5267 0.15034 0.0
C795 C 0.05937 0.54115 0.16945 0.0
C796 C 0.03245 0.51846 0.13659 0.0
C797 C 0.98119 0.52451 0.14158 0.0
C798 C 0.97018 0.53894 0.16077 0.0
C799 C 1.00841 0.54731 0.17435 0.0
H800 H 0.66941 0.73467 0.60001 0.0
H801 H 0.81465 0.69748 0.62321 0.0
H802 H 0.6625 0.8046 0.62326 0.0
H803 H 0.80866 0.7675 0.64602 0.0
H804 H 0.8009 0.94085 0.6625 0.0
H805 H 0.80664 0.86471 0.64255 0.0
H806 H 0.6579 0.82073 0.66084 0.0
H807 H 0.65263 0.89642 0.68124 0.0
C808 C 0.69982 0.74113 0.61012 0.0
C809 C 0.74271 0.71008 0.60971 0.0
C810 C 0.69579 0.78114 0.6235 0.0
C811 C 0.73509 0.7919 0.63655 0.0
C812 C 0.77775 0.76063 0.63617 0.0
C813 C 0.78117 0.72011 0.62311 0.0
C814 C 0.76985 0.9144 0.66264 0.0
C815 C 0.72659 0.92463 0.67375 0.0
C816 C 0.77308 0.87074 0.65113 0.0
C817 C 0.73262 0.83657 0.64995 0.0
C818 C 0.68964 0.84631 0.6613 0.0
C819 C 0.6869 0.88942 0.6732 0.0
H820 H 0.89897 0.9573 0.93992 0.0
H821 H 0.81767 0.05634 0.90171 0.0
H822 H 0.97365 0.96537 0.91932 0.0
H823 H 0.892 0.0655 0.88152 0.0
H824 H 1.00392 0.01731 0.83524 0.0
H825 H 0.93527 0.0168 0.85852 0.0
H826 H 0.0423 1.01316 0.90544 0.0
H827 H 0.1114 1.01213 0.8818 0.0
C828 C 0.89736 0.98207 0.92749 0.0
C829 C 0.85186 1.00604 0.92257 0.0
C830 C 0.94033 0.98657 0.91555 0.0
C831 C 0.93913 0.01526 0.89833 0.0
C832 C 0.89449 0.04178 0.89422 0.0
C833 C 0.85171 0.03705 0.90603 0.0
C834 C 1.01296 0.01643 0.85052 0.0
C835 C 0.06338 0.01495 0.85656 0.0
C836 C 0.97337 0.01663 0.86399 0.0
C837 C 0.98256 0.01551 0.8841 0.0
C838 C 0.03325 1.0138 0.89017 0.0
C839 C 0.07305 1.0136 0.87659 0.0
H840 H 0.80542 0.13862 0.19022 0.0
H841 H 0.73059 0.04449 0.14831 0.0
H842 H 0.79283 0.21189 0.16959 0.0
H843 H 0.71461 0.11793 0.12821 0.0
H844 H 0.74615 0.23871 0.08415 0.0
H845 H 0.75177 0.16965 0.10676 0.0
H846 H 0.7498 0.27558 0.15442 0.0
H847 H 0.74813 0.34542 0.13123 0.0
C848 C 0.78465 0.13379 0.17688 0.0
C849 C 0.76904 0.08532 0.17101 0.0
C850 C 0.77739 0.17616 0.1649 0.0
C851 C 0.75349 0.17171 0.14674 0.0
C852 C 0.7349 0.12351 0.14159 0.0
C853 C 0.74324 0.08106 0.15335 0.0
C854 C 0.74701 0.24751 0.09946 0.0
C855 C 0.74623 0.29797 0.10576 0.0
C856 C 0.74954 0.20742 0.11263 0.0
C857 C 0.75034 0.21586 0.13278 0.0
C858 C 0.74961 0.2667 0.13913 0.0
C859 C 0.74806 0.30713 0.12581 0.0
H860 H 0.65065 0.98995 0.4321 0.0
H861 H 0.72943 0.06509 0.38579 0.0
H862 H 0.57536 0.9851 0.41194 0.0
H863 H 0.65445 0.06428 0.36639 0.0
H864 H 0.52469 0.03233 0.32729 0.0
H865 H 0.59927 0.02837 0.34709 0.0
H866 H 0.50632 0.02087 0.3985 0.0
H867 H 0.43136 0.02087 0.37807 0.0
C868 C 0.6521 1.00508 0.41756 0.0
C869 C 0.69682 0.02699 0.41057 0.0
C870 C 0.60841 1.00312 0.40598 0.0
C871 C 0.60749 0.02428 0.38718 0.0
C872 C 0.65268 0.04596 0.38034 0.0
C873 C 0.69641 0.04664 0.39165 0.0
C874 C 0.5201 0.02999 0.34285 0.0
C875 C 0.47185 0.02632 0.351 0.0
C876 C 0.56335 0.02811 0.35442 0.0
C877 C 0.56022 0.02462 0.3748 0.0
C878 C 0.51141 0.0224 0.38299 0.0
C879 C 0.46798 0.02287 0.37125 0.0
H880 H 0.26507 0.34796 0.39938 0.0
H881 H 0.19508 0.25205 0.44187 0.0
H882 H 0.27367 0.27562 0.37745 0.0
H883 H 0.20058 0.18083 0.4199 0.0
H884 H 0.2701 0.04869 0.38824 0.0
H885 H 0.25352 0.12208 0.40786 0.0
H886 H 0.24344 0.21375 0.35636 0.0
H887 H 0.263 0.1396 0.33657 0.0
C888 C 0.25086 0.31156 0.40393 0.0
C889 C 0.23004 0.3058 0.42255 0.0
C890 C 0.25547 0.26982 0.39128 0.0
C891 C 0.2387 0.22115 0.39674 0.0
C892 C 0.21576 0.21656 0.41511 0.0
C893 C 0.21206 0.25785 0.42779 0.0
C894 C 0.2636 0.08417 0.38091 0.0
C895 C 0.26782 0.08744 0.36061 0.0
C896 C 0.25372 0.1269 0.39232 0.0
C897 C 0.24681 0.17499 0.384 0.0
C898 C 0.24921 0.17804 0.36357 0.0
C899 C 0.25972 0.13508 0.3521 0.0
H900 H 0.02323 0.02793 0.19939 0.0
H901 H 0.92857 1.0076 0.14946 0.0
H902 H 0.09667 0.03003 0.17904 0.0
H903 H 1.00237 1.01458 0.12836 0.0
H904 H 0.1487 0.99674 0.09374 0.0
H905 H 0.07395 0.98641 0.11405 0.0
H906 H 0.14797 0.07011 0.15967 0.0
H907 H 0.22257 0.07606 0.14019 0.0
C908 C 0.01797 0.02514 0.18388 0.0
C909 C 0.96974 0.01734 0.17616 0.0
C910 C 0.06061 0.02686 0.17196 0.0
C911 C 0.05686 0.02325 0.15161 0.0
C912 C 1.00799 0.01672 0.14383 0.0
C913 C 0.96518 1.01334 0.15594 0.0
C914 C 0.14917 1.01169 0.10833 0.0
C915 C 0.19246 0.03622 0.11536 0.0
C916 C 0.10576 1.00652 0.12 0.0
C917 C 0.10363 0.02703 0.13893 0.0
C918 C 0.14726 0.05183 0.14569 0.0
C919 C 0.19078 0.05558 0.13431 0.0
H920 H 0.28736 0.95651 0.88379 0.0
H921 H 0.22139 0.86556 0.83864 0.0
H922 H 0.29509 0.88222 0.90418 0.0
H923 H 0.22758 0.79121 0.85931 0.0
H924 H 0.27219 0.65695 0.8982 0.0
H925 H 0.27433 0.7282 0.87566 0.0
H926 H 0.2441 0.83001 0.92314 0.0
H927 H 0.24434 0.75922 0.94551 0.0
C928 C 0.27507 0.92052 0.87805 0.0
C929 C 0.25375 0.9175 0.85944 0.0
C930 C 0.27886 0.8777 0.88993 0.0
C931 C 0.26097 0.83022 0.88375 0.0
C932 C 0.24203 0.82669 0.86472 0.0
C933 C 0.23857 0.86959 0.85276 0.0
C934 C 0.26659 0.69465 0.90381 0.0
C935 C 0.25915 0.7023 0.92377 0.0
C936 C 0.26731 0.73569 0.89083 0.0
C937 C 0.26013 0.78565 0.89742 0.0
C938 C 0.25122 0.79272 0.91738 0.0
C939 C 0.25071 0.75183 0.93028 0.0
H940 H 0.51334 0.10892 0.6796 0.0
H941 H 0.60489 0.99819 0.65063 0.0
H942 H 0.446 0.0945 0.65657 0.0
H943 H 0.53591 0.98063 0.62807 0.0
H944 H 0.40721 0.97253 0.58355 0.0
H945 H 0.48105 0.99798 0.60247 0.0
H946 H 0.38339 0.0401 0.64984 0.0
H947 H 0.3111 0.01781 0.63084 0.0
C948 C 0.51898 0.08124 0.66825 0.0
C949 C 0.56444 0.05459 0.66708 0.0
C950 C 0.47988 0.07232 0.65506 0.0
C951 C 0.48406 0.03516 0.64047 0.0
C952 C 0.53061 1.00968 0.63889 0.0
C953 C 0.57037 0.01957 0.65192 0.0
C954 C 0.40163 0.98821 0.59787 0.0
C955 C 0.35264 0.99339 0.60542 0.0
C956 C 0.4442 1.00236 0.6089 0.0
C957 C 0.43914 0.0217 0.62791 0.0
C958 C 0.3899 0.02699 0.63522 0.0
C959 C 0.34777 1.01363 0.6242 0.0
H960 H 0.26132 0.02107 1.00523 0.0
H961 H 0.18146 0.16186 1.01173 0.0
H962 H 0.25066 0.02604 0.97009 0.0
H963 H 0.17059 0.16666 0.97669 0.0
H964 H 0.12733 0.12518 0.91299 0.0
H965 H 0.12939 0.11881 0.9483 0.0
H966 H 0.2891 0.09019 0.946 0.0
H967 H 0.28717 0.09685 0.91076 0.0
C968 C 0.24051 0.05235 0.99915 0.0
C969 C 0.22234 0.09119 1.011 0.0
C970 C 0.23485 0.05545 0.97913 0.0
C971 C 0.2104 0.09707 0.97083 0.0
C972 C 0.18953 0.13425 0.98281 0.0
C973 C 0.19575 0.13148 1.00278 0.0
C974 C 0.16295 0.11844 0.9201 0.0
C975 C 0.20714 0.11162 0.9093 0.0
C976 C 0.16405 0.11455 0.94021 0.0
C977 C 0.20923 0.10319 0.94969 0.0
C978 C 0.25367 0.09804 0.9389 0.0
C979 C 0.25268 0.10249 0.91883 0.0
H980 H 0.67295 0.37022 0.16218 0.0
H981 H 0.6383 0.52897 0.15801 0.0
H982 H 0.66544 0.37492 0.19745 0.0
H983 H 0.62979 0.53334 0.19328 0.0
H984 H 0.57411 0.50632 0.25538 0.0
H985 H 0.57194 0.49159 0.22045 0.0
H986 H 0.7206 0.42682 0.22297 0.0
H987 H 0.72326 0.44243 0.25792 0.0
C988 C 0.66296 0.40589 0.16882 0.0
C989 C 0.65621 0.44933 0.15753 0.0
C990 C 0.65889 0.40853 0.18892 0.0
C991 C 0.64703 0.45442 0.19792 0.0
C992 C 0.63858 0.49747 0.18657 0.0
C993 C 0.64359 0.49504 0.16648 0.0
C994 C 0.606 0.48826 0.2485 0.0
C995 C 0.64897 0.47564 0.2592 0.0
C996 C 0.60478 0.48009 0.22858 0.0
C997 C 0.64615 0.45833 0.21917 0.0
C998 C 0.68817 0.44341 0.23001 0.0
C999 C 0.68974 0.4524 0.24991 0.0
H1000 H 0.29777 0.8226 0.50686 0.0
H1001 H 0.32434 0.98331 0.5065 0.0
H1002 H 0.31965 0.8182 0.47255 0.0
H1003 H 0.34702 0.9787 0.47212 0.0
H1004 H 0.42252 0.93922 0.41381 0.0
H1005 H 0.41391 0.93587 0.44911 0.0
H1006 H 0.27286 0.85684 0.44288 0.0
H1007 H 0.28097 0.861 0.40766 0.0
C1008 C 0.30905 0.85684 0.49949 0.0
C1009 C 0.30917 0.90337 0.50922 0.0
C1010 C 0.32141 0.85428 0.47989 0.0
C1011 C 0.33485 0.89809 0.46977 0.0
C1012 C 0.33712 0.94434 0.4797 0.0
C1013 C 0.324 0.94703 0.49928 0.0
C1014 C 0.39015 0.9204 0.42004 0.0
C1015 C 0.35234 0.90031 0.40813 0.0
C1016 C 0.38512 0.91881 0.44016 0.0
C1017 C 0.34271 0.89622 0.44862 0.0
C1018 C 0.30608 0.87414 0.43668 0.0
C1019 C 0.31065 0.87656 0.41658 0.0
H1020 H 0.89445 0.66652 0.66362 0.0
H1021 H 0.88601 0.50437 0.65854 0.0
H1022 H 0.88696 0.65945 0.69886 0.0
H1023 H 0.8787 0.49734 0.69361 0.0
H1024 H 0.91329 0.6096 0.76393 0.0
H1025 H 0.92893 0.62361 0.72936 0.0
H1026 H 0.80671 0.52269 0.71535 0.0
H1027 H 0.79122 0.50871 0.74969 0.0
C1028 C 0.89232 0.62938 0.67009 0.0
C1029 C 0.89048 0.58597 0.65843 0.0
C1030 C 0.88789 0.62537 0.6902 0.0
C1031 C 0.88123 0.57793 0.69886 0.0
C1032 C 0.88273 0.53444 0.68724 0.0
C1033 C 0.8874 0.53842 0.66721 0.0
C1034 C 0.88929 0.59122 0.75341 0.0
C1035 C 0.85118 0.55797 0.7594 0.0
C1036 C 0.89832 0.59911 0.73369 0.0
C1037 C 0.86965 0.57345 0.71974 0.0
C1038 C 0.83007 0.54208 0.72582 0.0
C1039 C 0.82086 0.53451 0.74546 0.0
H1040 H 0.9001 0.87377 0.11444 0.0
H1041 H 0.74605 0.9193 0.12305 0.0
H1042 H 0.88678 0.87281 0.0794 0.0
H1043 H 0.73352 0.92263 0.08851 0.0
H1044 H 0.70532 0.89626 0.02683 0.0
H1045 H 0.72178 0.88017 0.06072 0.0
H1046 H 0.87757 0.92261 0.05224 0.0
H1047 H 0.86123 0.93378 0.01764 0.0
C1048 C 0.86338 0.88331 0.10878 0.0
C1049 C 0.82393 0.89603 0.12135 0.0
C1050 C 0.8558 0.88344 0.08871 0.0
C1051 C 0.80896 0.89756 0.08089 0.0
C1052 C 0.76969 0.90998 0.09373 0.0
C1053 C 0.77689 0.90845 0.11366 0.0
C1054 C 0.74314 0.90181 0.03227 0.0
C1055 C 0.78194 0.91683 0.01984 0.0
C1056 C 0.75264 0.89303 0.05177 0.0
C1057 C 0.80085 0.9012 0.05956 0.0
C1058 C 0.84006 0.91537 0.04688 0.0
C1059 C 0.83077 0.92234 0.0271 0.0
H1060 H 0.36471 0.64984 0.86517 0.0
H1061 H 0.39575 0.49064 0.87071 0.0
H1062 H 0.35876 0.64026 0.83005 0.0
H1063 H 0.39068 0.48118 0.83566 0.0
H1064 H 0.30338 0.46908 0.77977 0.0
H1065 H 0.31681 0.48567 0.81404 0.0
H1066 H 0.405 0.61743 0.79968 0.0
H1067 H 0.39085 0.60108 0.76521 0.0
C1068 C 0.37159 0.61312 0.8588 0.0
C1069 C 0.38025 0.57082 0.87053 0.0
C1070 C 0.36813 0.60765 0.83875 0.0
C1071 C 0.37327 0.55981 0.83024 0.0
C1072 C 0.3854 0.51827 0.84193 0.0
C1073 C 0.38878 0.52373 0.86193 0.0
C1074 C 0.32509 0.50193 0.78395 0.0
C1075 C 0.34625 0.53376 0.76996 0.0
C1076 C 0.33325 0.51111 0.80352 0.0
C1077 C 0.3628 0.55225 0.80945 0.0
C1078 C 0.38219 0.5854 0.79546 0.0
C1079 C 0.37403 0.57614 0.77581 0.0
H1080 H 0.65144 0.1363 0.61487 0.0
H1081 H 0.80382 0.08046 0.61689 0.0
H1082 H 0.64992 0.12379 0.57996 0.0
H1083 H 0.80272 0.06876 0.58176 0.0
H1084 H 0.76608 1.0063 0.52215 0.0
H1085 H 0.76046 1.01382 0.55745 0.0
H1086 H 0.68931 0.15936 0.55117 0.0
H1087 H 0.69422 0.15139 0.51616 0.0
C1088 C 0.6849 0.12214 0.60776 0.0
C1089 C 0.72787 0.10959 0.61846 0.0
C1090 C 0.68397 0.11483 0.5878 0.0
C1091 C 0.72602 0.09486 0.5782 0.0
C1092 C 0.76946 0.08335 0.58887 0.0
C1093 C 0.77039 0.09072 0.60888 0.0
C1094 C 0.74816 0.03919 0.5284 0.0
C1095 C 0.73058 0.07829 0.51658 0.0
C1096 C 0.74554 0.04383 0.54853 0.0
C1097 C 0.72501 0.08747 0.55701 0.0
C1098 C 0.70507 0.12521 0.54506 0.0
C1099 C 0.7079 0.12066 0.52503 0.0
H1100 H 0.1254 0.53458 0.36837 0.0
H1101 H 0.16117 0.37602 0.36434 0.0
H1102 H 0.11612 0.53827 0.3332 0.0
H1103 H 0.15256 0.37993 0.32912 0.0
H1104 H 0.21535 0.44862 0.26969 0.0
H1105 H 0.2082 0.42995 0.30426 0.0
H1106 H 0.06139 0.49925 0.30546 0.0
H1107 H 0.06821 0.51736 0.27087 0.0
C1108 C 0.13061 0.50049 0.35995 0.0
C1109 C 0.14419 0.45514 0.36889 0.0
C1110 C 0.12503 0.50249 0.33992 0.0
C1111 C 0.13368 0.45933 0.3286 0.0
C1112 C 0.14584 0.41362 0.33762 0.0
C1113 C 0.15064 0.41143 0.35769 0.0
C1114 C 0.18121 0.45887 0.2773 0.0
C1115 C 0.1425 0.48468 0.26781 0.0
C1116 C 0.17701 0.44803 0.29698 0.0
C1117 C 0.13434 0.46348 0.30739 0.0
C1118 C 0.0947 0.48729 0.29768 0.0
C1119 C 0.09859 0.49748 0.27796 0.0
H1120 H 0.63727 0.6243 0.41217 0.0
H1121 H 0.79219 0.57612 0.40941 0.0
H1122 H 0.6397 0.61955 0.44742 0.0
H1123 H 0.79477 0.57166 0.44476 0.0
H1124 H 0.76277 0.51634 0.50613 0.0
H1125 H 0.75473 0.51822 0.47083 0.0
H1126 H 0.68268 0.66389 0.47459 0.0
H1127 H 0.69047 0.66182 0.50972 0.0
C1128 C 0.67202 0.61336 0.41916 0.0
C1129 C 0.71465 0.60081 0.4082 0.0
C1130 C 0.67335 0.61053 0.43928 0.0
C1131 C 0.71726 0.5948 0.44874 0.0
C1132 C 0.76022 0.58312 0.43776 0.0
C1133 C 0.75896 0.58625 0.41761 0.0
C1134 C 0.74437 0.54819 0.49937 0.0
C1135 C 0.7272 0.58893 0.5105 0.0
C1136 C 0.74027 0.54954 0.47923 0.0
C1137 C 0.71854 0.59144 0.47005 0.0
C1138 C 0.69937 0.63107 0.48132 0.0
C1139 C 0.70385 0.62989 0.50139 0.0
H1140 H 0.12617 0.88271 0.6616 0.0
H1141 H 0.19919 0.02757 0.65678 0.0
H1142 H 0.1256 0.89098 0.69688 0.0
H1143 H 0.20244 0.03442 0.6916 0.0
H1144 H 0.16952 0.06001 0.75301 0.0
H1145 H 0.15633 0.04976 0.71864 0.0
H1146 H 0.17617 0.88839 0.72455 0.0
H1147 H 0.18485 0.89903 0.75967 0.0
C1148 C 0.14186 0.91634 0.66815 0.0
C1149 C 0.16208 0.95485 0.65662 0.0
C1150 C 0.14216 0.92087 0.68832 0.0
C1151 C 0.16377 0.96348 0.69721 0.0
C1152 C 0.18402 1.00176 0.68543 0.0
C1153 C 0.18246 0.99781 0.66539 0.0
C1154 C 0.17099 0.02233 0.74693 0.0
C1155 C 0.17898 0.9803 0.75876 0.0
C1156 C 0.16374 0.01638 0.72718 0.0
C1157 C 0.16633 0.96834 0.71862 0.0
C1158 C 0.17352 0.92595 0.73062 0.0
C1159 C 0.17905 0.93189 0.75065 0.0
H1160 H 0.90602 0.42025 0.91141 0.0
H1161 H 0.75231 0.3687 0.90746 0.0
H1162 H 0.90088 0.41691 0.94682 0.0
H1163 H 0.74769 0.36413 0.94281 0.0
H1164 H 0.7782 0.32016 1.0061 0.0
H1165 H 0.79508 0.31462 0.97139 0.0
H1166 H 0.84062 0.47088 0.97099 0.0
H1167 H 0.8226 0.47689 1.00577 0.0
C1168 C 0.87157 0.40715 0.91813 0.0
C1169 C 0.8295 0.39464 0.90683 0.0
C1170 C 0.8686 0.40558 0.93831 0.0
C1171 C 0.82392 0.39035 0.9474 0.0
C1172 C 0.78263 0.37569 0.93606 0.0
C1173 C 0.78524 0.37832 0.91591 0.0
C1174 C 0.79244 0.35315 0.99865 0.0
C1175 C 0.79895 0.39905 1.0085 0.0
C1176 C 0.80193 0.34994 0.97884 0.0
C1177 C 0.819 0.39231 0.96864 0.0
C1178 C 0.82777 0.43764 0.97864 0.0
C1179 C 0.81736 0.44112 0.99844 0.0
H1180 H 0.35613 0.95841 0.25105 0.0
H1181 H 0.3318 0.11804 0.25871 0.0
H1182 H 0.37754 0.97173 0.21754 0.0
H1183 H 0.34851 0.13155 0.22423 0.0
H1184 H 0.41613 0.1473 0.16434 0.0
H1185 H 0.40661 0.1349 0.19925 0.0
H1186 H 0.34425 0.98657 0.18837 0.0
H1187 H 0.3581 0.99753 0.15423 0.0
C1188 C 0.35393 0.99638 0.24532 0.0
C1189 C 0.34165 0.03718 0.25732 0.0
C1190 C 0.36603 1.00412 0.22599 0.0
C1191 C 0.3642 0.05271 0.21787 0.0
C1192 C 0.35115 0.09366 0.22993 0.0
C1193 C 0.34075 0.08601 0.2496 0.0
C1194 C 0.4019 0.1116 0.16964 0.0
C1195 C 0.38846 0.07315 0.15669 0.0
C1196 C 0.39555 0.10471 0.18959 0.0
C1197 C 0.37441 0.05973 0.19683 0.0
C1198 C 0.36193 0.02121 0.18365 0.0
C1199 C 0.36969 0.02752 0.16391 0.0
H1200 H 0.39052 0.36453 0.61436 0.0
H1201 H 0.23853 0.41703 0.62262 0.0
H1202 H 0.37704 0.3619 0.57936 0.0
H1203 H 0.22596 0.41851 0.58803 0.0
H1204 H 0.19703 0.38925 0.52669 0.0
H1205 H 0.21302 0.37363 0.56065 0.0
H1206 H 0.36976 0.41226 0.55208 0.0
H1207 H 0.35377 0.42312 0.51743 0.0
C1208 C 0.35419 0.37522 0.60862 0.0
C1209 C 0.31536 0.39048 0.62106 0.0
C1210 C 0.34657 0.37436 0.58859 0.0
C1211 C 0.30035 0.38995 0.58069 0.0
C1212 C 0.26159 0.40475 0.59339 0.0
C1213 C 0.2688 0.40427 0.61332 0.0
C1214 C 0.23496 0.39397 0.53212 0.0
C1215 C 0.27414 0.40794 0.51969 0.0
C1216 C 0.24418 0.38544 0.55163 0.0
C1217 C 0.29251 0.3928 0.55938 0.0
C1218 C 0.33213 0.40571 0.5467 0.0
C1219 C 0.32308 0.41245 0.52691 0.0
H1220 H 0.91024 0.99423 0.36961 0.0
H1221 H 0.8896 0.15526 0.36481 0.0
H1222 H 0.89897 0.98551 0.33477 0.0
H1223 H 0.87704 0.1465 0.32997 0.0
H1224 H 0.89245 0.10748 0.26457 0.0
H1225 H 0.91334 0.12251 0.29854 0.0
H1226 H 0.8234 0.99353 0.31493 0.0
H1227 H 0.80361 0.97797 0.28102 0.0
C1228 C 0.9044 0.02784 0.36101 0.0
C1229 C 0.90041 0.0753 0.36982 0.0
C1230 C 0.89731 0.02283 0.34114 0.0
C1231 C 0.88578 0.06518 0.32977 0.0
C1232 C 0.88573 0.1132 0.33838 0.0
C1233 C 0.8931 0.11823 0.3583 0.0
C1234 C 0.87658 0.08293 0.27552 0.0
C1235 C 0.84665 0.04147 0.27029 0.0
C1236 C 0.88863 0.09143 0.29491 0.0
C1237 C 0.87088 0.05856 0.30931 0.0
C1238 C 0.83878 0.01866 0.30407 0.0
C1239 C 0.82687 1.01012 0.28472 0.0
H1240 H 0.14256 0.62206 0.11682 0.0
H1241 H 0.30207 0.59245 0.11917 0.0
H1242 H 0.14363 0.60986 0.0819 0.0
H1243 H 0.30359 0.58167 0.08405 0.0
H1244 H 0.17977 0.6349 0.01729 0.0
H1245 H 0.17395 0.64669 0.0522 0.0
H1246 H 0.27325 0.51971 0.0608 0.0
H1247 H 0.28014 0.50898 0.02582 0.0
C1248 C 0.17807 0.61399 0.10977 0.0
C1249 C 0.22229 0.60818 0.12058 0.0
C1250 C 0.17865 0.60696 0.08979 0.0
C1251 C 0.22356 0.59422 0.08028 0.0
C1252 C 0.26821 0.59039 0.09106 0.0
C1253 C 0.26755 0.5972 0.11109 0.0
C1254 C 0.19954 0.60898 0.02669 0.0
C1255 C 0.23052 0.57119 0.01898 0.0
C1256 C 0.19629 0.61574 0.04666 0.0
C1257 C 0.22381 0.58463 0.05921 0.0
C1258 C 0.25259 0.54501 0.05145 0.0
C1259 C 0.25599 0.53841 0.03147 0.0
H1260 H 0.66822 0.88641 0.8632 0.0
H1261 H 0.63739 0.04581 0.8682 0.0
H1262 H 0.65815 0.89169 0.82808 0.0
H1263 H 0.6268 0.05095 0.83308 0.0
H1264 H 0.57377 0.03183 0.77082 0.0
H1265 H 0.56973 0.01563 0.80565 0.0
H1266 H 0.71252 0.93866 0.80265 0.0
H1267 H 0.71687 0.95537 0.7679 0.0
C1268 C 0.65859 0.92238 0.85678 0.0
C1269 C 0.65379 0.96582 0.86826 0.0
C1270 C 0.65297 0.92536 0.83675 0.0
C1271 C 0.64172 0.97166 0.82799 0.0
C1272 C 0.63499 1.01471 0.83957 0.0
C1273 C 0.64131 1.01187 0.85958 0.0
C1274 C 0.60381 1.01071 0.77758 0.0
C1275 C 0.64576 0.99498 0.76683 0.0
C1276 C 0.60158 1.00169 0.79745 0.0
C1277 C 0.64089 0.97613 0.80673 0.0
C1278 C 0.68158 0.95813 0.79576 0.0
C1279 C 0.68415 0.9678 0.77595 0.0
loop_
_geom_bond_atom_site_label_1
_geom_bond_atom_site_label_2
_geom_bond_distance
_geom_bond_site_symmetry_2
_ccdc_geom_bond_type
Tb0 O3 2.453 . S
Tb0 O4 2.596 . S
Tb0 O5 2.374 . S
Tb0 O13 2.343 . S
Tb0 O15 2.353 . S
Tb0 O17 2.427 . S
Tb0 O18 2.513 . S
C1 O5 1.251 . S
C1 O7 1.263 . S
Tb2 O4 2.343 . S
Tb2 O7 2.353 . S
Tb2 O10 2.427 . S
Tb2 O11 2.513 . S
Tb2 O12 2.453 . S
Tb2 O13 2.596 . S
Tb2 O14 2.374 . S
O3 Tb0 2.453 . S
O3 C19 1.245 . S
O4 Tb0 2.596 . S
O4 Tb2 2.343 . S
O4 C19 1.259 . S
O5 Tb0 2.374 . S
O5 C1 1.251 . S
C6 O10 1.275 . S
C6 O11 1.246 . S
O7 C1 1.263 . S
O7 Tb2 2.353 . S
C8 O12 1.245 . S
C8 O13 1.259 . S
C9 O14 1.250 . S
C9 O15 1.263 . S
O10 Tb2 2.427 . S
O10 C6 1.275 . S
O11 Tb2 2.513 . S
O11 C6 1.246 . S
O12 Tb2 2.453 . S
O12 C8 1.245 . S
O13 Tb0 2.343 . S
O13 Tb2 2.596 . S
O13 C8 1.259 . S
O14 Tb2 2.374 . S
O14 C9 1.250 . S
O15 Tb0 2.353 . S
O15 C9 1.263 . S
C16 O17 1.275 . S
C16 O18 1.246 . S
O17 Tb0 2.427 . S
O17 C16 1.275 . S
O18 Tb0 2.513 . S
O18 C16 1.246 . S
C19 O3 1.245 . S
C19 O4 1.259 . S
Tb20 O23 2.453 . S
Tb20 O24 2.596 . S
Tb20 O25 2.374 . S
Tb20 O33 2.343 . S
Tb20 O35 2.353 . S
Tb20 O37 2.427 . S
Tb20 O38 2.513 . S
C21 O25 1.251 . S
C21 O27 1.263 . S
Tb22 O24 2.343 . S
Tb22 O27 2.353 . S
Tb22 O30 2.427 . S
Tb22 O31 2.513 . S
Tb22 O32 2.453 . S
Tb22 O33 2.596 . S
Tb22 O34 2.374 . S
O23 Tb20 2.453 . S
O23 C39 1.245 . S
O24 Tb20 2.596 . S
O24 Tb22 2.343 . S
O24 C39 1.259 . S
O25 Tb20 2.374 . S
O25 C21 1.251 . S
C26 O30 1.275 . S
C26 O31 1.246 . S
O27 C21 1.263 . S
O27 Tb22 2.353 . S
C28 O32 1.245 . S
C28 O33 1.259 . S
C29 O34 1.250 . S
C29 O35 1.263 . S
O30 Tb22 2.427 . S
O30 C26 1.275 . S
O31 Tb22 2.513 . S
O31 C26 1.246 . S
O32 Tb22 2.453 . S
O32 C28 1.245 . S
O33 Tb20 2.343 . S
O33 Tb22 2.596 . S
O33 C28 1.259 . S
O34 Tb22 2.374 . S
O34 C29 1.250 . S
O35 Tb20 2.353 . S
O35 C29 1.263 . S
C36 O37 1.275 . S
C36 O38 1.246 . S
O37 Tb20 2.427 . S
O37 C36 1.275 . S
O38 Tb20 2.513 . S
O38 C36 1.246 . S
C39 O23 1.245 . S
C39 O24 1.259 . S
Tb40 O43 2.453 . S
Tb40 O44 2.596 . S
Tb40 O45 2.374 . S
Tb40 O53 2.343 . S
Tb40 O55 2.353 . S
Tb40 O57 2.427 . S
Tb40 O58 2.513 . S
C41 O45 1.251 . S
C41 O47 1.263 . S
Tb42 O44 2.343 . S
Tb42 O47 2.353 . S
Tb42 O50 2.427 . S
Tb42 O51 2.513 . S
Tb42 O52 2.453 . S
Tb42 O53 2.596 . S
Tb42 O54 2.374 . S
O43 Tb40 2.453 . S
O43 C59 1.245 . S
O44 Tb40 2.596 . S
O44 Tb42 2.343 . S
O44 C59 1.259 . S
O45 Tb40 2.374 . S
O45 C41 1.251 . S
C46 O50 1.275 . S
C46 O51 1.246 . S
O47 C41 1.263 . S
O47 Tb42 2.353 . S
C48 O52 1.245 . S
C48 O53 1.259 . S
C49 O54 1.250 . S
C49 O55 1.263 . S
O50 Tb42 2.427 . S
O50 C46 1.275 . S
O51 Tb42 2.513 . S
O51 C46 1.246 . S
O52 Tb42 2.453 . S
O52 C48 1.245 . S
O53 Tb40 2.343 . S
O53 Tb42 2.596 . S
O53 C48 1.259 . S
O54 Tb42 2.374 . S
O54 C49 1.250 . S
O55 Tb40 2.353 . S
O55 C49 1.263 . S
C56 O57 1.275 . S
C56 O58 1.246 . S
O57 Tb40 2.427 . S
O57 C56 1.275 . S
O58 Tb40 2.513 . S
O58 C56 1.246 . S
C59 O43 1.245 . S
C59 O44 1.259 . S
Tb60 O63 2.453 . S
Tb60 O64 2.596 . S
Tb60 O65 2.374 . S
Tb60 O73 2.343 . S
Tb60 O75 2.353 . S
Tb60 O77 2.427 . S
Tb60 O78 2.513 . S
C61 O65 1.251 . S
C61 O67 1.263 . S
Tb62 O64 2.343 . S
Tb62 O67 2.353 . S
Tb62 O70 2.427 . S
Tb62 O71 2.513 . S
Tb62 O72 2.453 . S
Tb62 O73 2.596 . S
Tb62 O74 2.374 . S
O63 Tb60 2.453 . S
O63 C79 1.245 . S
O64 Tb60 2.596 . S
O64 Tb62 2.343 . S
O64 C79 1.259 . S
O65 Tb60 2.374 . S
O65 C61 1.251 . S
C66 O70 1.275 . S
C66 O71 1.246 . S
O67 C61 1.263 . S
O67 Tb62 2.353 . S
C68 O72 1.245 . S
C68 O73 1.259 . S
C69 O74 1.250 . S
C69 O75 1.263 . S
O70 Tb62 2.427 . S
O70 C66 1.275 . S
O71 Tb62 2.513 . S
O71 C66 1.246 . S
O72 Tb62 2.453 . S
O72 C68 1.245 . S
O73 Tb60 2.343 . S
O73 Tb62 2.596 . S
O73 C68 1.259 . S
O74 Tb62 2.374 . S
O74 C69 1.250 . S
O75 Tb60 2.353 . S
O75 C69 1.263 . S
C76 O77 1.275 . S
C76 O78 1.246 . S
O77 Tb60 2.427 . S
O77 C76 1.275 . S
O78 Tb60 2.513 . S
O78 C76 1.246 . S
C79 O63 1.245 . S
C79 O64 1.259 . S
Tb80 O83 2.453 . S
Tb80 O84 2.596 . S
Tb80 O85 2.374 . S
Tb80 O93 2.343 . S
Tb80 O95 2.353 . S
Tb80 O97 2.427 . S
Tb80 O98 2.513 . S
C81 O85 1.251 . S
C81 O87 1.263 . S
Tb82 O84 2.343 . S
Tb82 O87 2.353 . S
Tb82 O90 2.427 . S
Tb82 O91 2.513 . S
Tb82 O92 2.453 . S
Tb82 O93 2.596 . S
Tb82 O94 2.374 . S
O83 Tb80 2.453 . S
O83 C99 1.245 . S
O84 Tb80 2.596 . S
O84 Tb82 2.343 . S
O84 C99 1.259 . S
O85 Tb80 2.374 . S
O85 C81 1.251 . S
C86 O90 1.275 . S
C86 O91 1.246 . S
O87 C81 1.263 . S
O87 Tb82 2.353 . S
C88 O92 1.245 . S
C88 O93 1.259 . S
C89 O94 1.250 . S
C89 O95 1.263 . S
O90 Tb82 2.427 . S
O90 C86 1.275 . S
O91 Tb82 2.513 . S
O91 C86 1.246 . S
O92 Tb82 2.453 . S
O92 C88 1.245 . S
O93 Tb80 2.343 . S
O93 Tb82 2.596 . S
O93 C88 1.259 . S
O94 Tb82 2.374 . S
O94 C89 1.250 . S
O95 Tb80 2.353 . S
O95 C89 1.263 . S
C96 O97 1.275 . S
C96 O98 1.246 . S
O97 Tb80 2.427 . S
O97 C96 1.275 . S
O98 Tb80 2.513 . S
O98 C96 1.246 . S
C99 O83 1.245 . S
C99 O84 1.259 . S
Tb100 O103 2.453 . S
Tb100 O104 2.596 . S
Tb100 O105 2.374 . S
Tb100 O113 2.343 . S
Tb100 O115 2.353 . S
Tb100 O117 2.427 . S
Tb100 O118 2.513 . S
C101 O105 1.251 . S
C101 O107 1.263 . S
Tb102 O104 2.343 . S
Tb102 O107 2.353 . S
Tb102 O110 2.427 . S
Tb102 O111 2.513 . S
Tb102 O112 2.453 . S
Tb102 O113 2.596 . S
Tb102 O114 2.374 . S
O103 Tb100 2.453 . S
O103 C119 1.245 . S
O104 Tb100 2.596 . S
O104 Tb102 2.343 . S
O104 C119 1.259 . S
O105 Tb100 2.374 . S
O105 C101 1.251 . S
C106 O110 1.275 . S
C106 O111 1.246 . S
O107 C101 1.263 . S
O107 Tb102 2.353 . S
C108 O112 1.245 . S
C108 O113 1.259 . S
C109 O114 1.250 . S
C109 O115 1.263 . S
O110 Tb102 2.427 . S
O110 C106 1.275 . S
O111 Tb102 2.513 . S
O111 C106 1.246 . S
O112 Tb102 2.453 . S
O112 C108 1.245 . S
O113 Tb100 2.343 . S
O113 Tb102 2.596 . S
O113 C108 1.259 . S
O114 Tb102 2.374 . S
O114 C109 1.250 . S
O115 Tb100 2.353 . S
O115 C109 1.263 . S
C116 O117 1.275 . S
C116 O118 1.246 . S
O117 Tb100 2.427 . S
O117 C116 1.275 . S
O118 Tb100 2.513 . S
O118 C116 1.246 . S
C119 O103 1.245 . S
C119 O104 1.259 . S
Tb120 O123 2.453 . S
Tb120 O124 2.596 . S
Tb120 O125 2.374 . S
Tb120 O133 2.343 . S
Tb120 O135 2.353 . S
Tb120 O137 2.427 . S
Tb120 O138 2.513 . S
C121 O125 1.251 . S
C121 O127 1.263 . S
Tb122 O124 2.343 . S
Tb122 O127 2.353 . S
Tb122 O130 2.427 . S
Tb122 O131 2.513 . S
Tb122 O132 2.453 . S
Tb122 O133 2.596 . S
Tb122 O134 2.374 . S
O123 Tb120 2.453 . S
O123 C139 1.245 . S
O124 Tb120 2.596 . S
O124 Tb122 2.343 . S
O124 C139 1.259 . S
O125 Tb120 2.374 . S
O125 C121 1.251 . S
C126 O130 1.275 . S
C126 O131 1.246 . S
O127 C121 1.263 . S
O127 Tb122 2.353 . S
C128 O132 1.245 . S
C128 O133 1.259 . S
C129 O134 1.250 . S
C129 O135 1.263 . S
O130 Tb122 2.427 . S
O130 C126 1.275 . S
O131 Tb122 2.513 . S
O131 C126 1.246 . S
O132 Tb122 2.453 . S
O132 C128 1.245 . S
O133 Tb120 2.343 . S
O133 Tb122 2.596 . S
O133 C128 1.259 . S
O134 Tb122 2.374 . S
O134 C129 1.250 . S
O135 Tb120 2.353 . S
O135 C129 1.263 . S
C136 O137 1.275 . S
C136 O138 1.246 . S
O137 Tb120 2.427 . S
O137 C136 1.275 . S
O138 Tb120 2.513 . S
O138 C136 1.246 . S
C139 O123 1.245 . S
C139 O124 1.259 . S
Tb140 O143 2.453 . S
Tb140 O144 2.596 . S
Tb140 O145 2.374 . S
Tb140 O153 2.343 . S
Tb140 O155 2.353 . S
Tb140 O157 2.427 . S
Tb140 O158 2.513 . S
C141 O145 1.251 . S
C141 O147 1.263 . S
Tb142 O144 2.343 . S
Tb142 O147 2.353 . S
Tb142 O150 2.427 . S
Tb142 O151 2.513 . S
Tb142 O152 2.453 . S
Tb142 O153 2.596 . S
Tb142 O154 2.374 . S
O143 Tb140 2.453 . S
O143 C159 1.245 . S
O144 Tb140 2.596 . S
O144 Tb142 2.343 . S
O144 C159 1.259 . S
O145 Tb140 2.374 . S
O145 C141 1.251 . S
C146 O150 1.275 . S
C146 O151 1.246 . S
O147 C141 1.263 . S
O147 Tb142 2.353 . S
C148 O152 1.245 . S
C148 O153 1.259 . S
C149 O154 1.250 . S
C149 O155 1.263 . S
O150 Tb142 2.427 . S
O150 C146 1.275 . S
O151 Tb142 2.513 . S
O151 C146 1.246 . S
O152 Tb142 2.453 . S
O152 C148 1.245 . S
O153 Tb140 2.343 . S
O153 Tb142 2.596 . S
O153 C148 1.259 . S
O154 Tb142 2.374 . S
O154 C149 1.250 . S
O155 Tb140 2.353 . S
O155 C149 1.263 . S
C156 O157 1.275 . S
C156 O158 1.246 . S
O157 Tb140 2.427 . S
O157 C156 1.275 . S
O158 Tb140 2.513 . S
O158 C156 1.246 . S
C159 O143 1.245 . S
C159 O144 1.259 . S
Tb160 O163 2.453 . S
Tb160 O164 2.596 . S
Tb160 O165 2.374 . S
Tb160 O173 2.343 . S
Tb160 O175 2.353 . S
Tb160 O177 2.427 . S
Tb160 O178 2.513 . S
C161 O165 1.251 . S
C161 O167 1.263 . S
Tb162 O164 2.343 . S
Tb162 O167 2.353 . S
Tb162 O170 2.427 . S
Tb162 O171 2.513 . S
Tb162 O172 2.453 . S
Tb162 O173 2.596 . S
Tb162 O174 2.374 . S
O163 Tb160 2.453 . S
O163 C179 1.245 . S
O164 Tb160 2.596 . S
O164 Tb162 2.343 . S
O164 C179 1.259 . S
O165 Tb160 2.374 . S
O165 C161 1.251 . S
C166 O170 1.275 . S
C166 O171 1.246 . S
O167 C161 1.263 . S
O167 Tb162 2.353 . S
C168 O172 1.245 . S
C168 O173 1.259 . S
C169 O174 1.250 . S
C169 O175 1.263 . S
O170 Tb162 2.427 . S
O170 C166 1.275 . S
O171 Tb162 2.513 . S
O171 C166 1.246 . S
O172 Tb162 2.453 . S
O172 C168 1.245 . S
O173 Tb160 2.343 . S
O173 Tb162 2.596 . S
O173 C168 1.259 . S
O174 Tb162 2.374 . S
O174 C169 1.250 . S
O175 Tb160 2.353 . S
O175 C169 1.263 . S
C176 O177 1.275 . S
C176 O178 1.246 . S
O177 Tb160 2.427 . S
O177 C176 1.275 . S
O178 Tb160 2.513 . S
O178 C176 1.246 . S
C179 O163 1.245 . S
C179 O164 1.259 . S
Tb180 O183 2.453 . S
Tb180 O184 2.596 . S
Tb180 O185 2.374 . S
Tb180 O193 2.343 . S
Tb180 O195 2.373 . S
Tb180 O197 2.427 . S
Tb180 O198 2.513 . S
C181 O185 1.251 . S
C181 O187 1.263 . S
Tb182 O184 2.343 . S
Tb182 O187 2.353 . S
Tb182 O190 2.427 . S
Tb182 O191 2.513 1_545 S
Tb182 O192 2.453 1_545 S
Tb182 O193 2.596 . S
Tb182 O194 2.374 1_545 S
O183 Tb180 2.453 . S
O183 C199 1.245 . S
O184 Tb180 2.596 . S
O184 Tb182 2.343 . S
O184 C199 1.259 . S
O185 Tb180 2.374 . S
O185 C181 1.251 . S
C186 O190 1.275 . S
C186 O191 1.246 1_545 S
O187 C181 1.263 . S
O187 Tb182 2.353 . S
C188 O192 1.245 1_545 S
C188 O193 1.259 . S
C189 O194 1.250 . S
C189 O195 1.245 1_565 S
O190 Tb182 2.427 . S
O190 C186 1.275 . S
O191 Tb182 2.513 1_565 S
O191 C186 1.246 1_565 S
O192 Tb182 2.453 1_565 S
O192 C188 1.245 1_565 S
O193 Tb180 2.343 . S
O193 Tb182 2.596 . S
O193 C188 1.259 . S
O194 Tb182 2.374 1_565 S
O194 C189 1.250 . S
O195 Tb180 2.373 . S
O195 C189 1.245 1_545 S
C196 O197 1.275 . S
C196 O198 1.246 . S
O197 Tb180 2.427 . S
O197 C196 1.275 . S
O198 Tb180 2.513 . S
O198 C196 1.246 . S
C199 O183 1.245 . S
C199 O184 1.259 . S
Tb200 O203 2.453 . S
Tb200 O204 2.596 . S
Tb200 O205 2.374 . S
Tb200 O213 2.343 . S
Tb200 O215 2.353 . S
Tb200 O217 2.427 . S
Tb200 O218 2.513 . S
C201 O205 1.251 . S
C201 O207 1.263 . S
Tb202 O204 2.343 . S
Tb202 O207 2.353 . S
Tb202 O210 2.427 . S
Tb202 O211 2.513 . S
Tb202 O212 2.453 . S
Tb202 O213 2.596 . S
Tb202 O214 2.374 . S
O203 Tb200 2.453 . S
O203 C219 1.245 . S
O204 Tb200 2.596 . S
O204 Tb202 2.343 . S
O204 C219 1.259 . S
O205 Tb200 2.374 . S
O205 C201 1.251 . S
C206 O210 1.275 . S
C206 O211 1.246 . S
O207 C201 1.263 . S
O207 Tb202 2.353 . S
C208 O212 1.245 . S
C208 O213 1.259 . S
C209 O214 1.250 . S
C209 O215 1.263 . S
O210 Tb202 2.427 . S
O210 C206 1.275 . S
O211 Tb202 2.513 . S
O211 C206 1.246 . S
O212 Tb202 2.453 . S
O212 C208 1.245 . S
O213 Tb200 2.343 . S
O213 Tb202 2.596 . S
O213 C208 1.259 . S
O214 Tb202 2.374 . S
O214 C209 1.250 . S
O215 Tb200 2.353 . S
O215 C209 1.263 . S
C216 O217 1.275 . S
C216 O218 1.246 . S
O217 Tb200 2.427 . S
O217 C216 1.275 . S
O218 Tb200 2.513 . S
O218 C216 1.246 . S
C219 O203 1.245 . S
C219 O204 1.259 . S
Tb220 O223 2.453 . S
Tb220 O224 2.596 . S
Tb220 O225 2.374 . S
Tb220 O233 2.343 . S
Tb220 O235 2.373 . S
Tb220 O237 2.427 . S
Tb220 O238 2.513 . S
C221 O225 1.251 . S
C221 O227 1.263 . S
Tb222 O224 2.343 . S
Tb222 O227 2.353 . S
Tb222 O230 2.427 . S
Tb222 O231 2.513 1_565 S
Tb222 O232 2.453 1_565 S
Tb222 O233 2.596 . S
Tb222 O234 2.374 1_565 S
O223 Tb220 2.453 . S
O223 C239 1.245 . S
O224 Tb220 2.596 . S
O224 Tb222 2.343 . S
O224 C239 1.259 . S
O225 Tb220 2.374 . S
O225 C221 1.251 . S
C226 O230 1.275 . S
C226 O231 1.246 1_565 S
O227 C221 1.263 . S
O227 Tb222 2.353 . S
C228 O232 1.245 1_565 S
C228 O233 1.259 . S
C229 O234 1.250 . S
C229 O235 1.245 1_545 S
O230 Tb222 2.427 . S
O230 C226 1.275 . S
O231 Tb222 2.513 1_545 S
O231 C226 1.246 1_545 S
O232 Tb222 2.453 1_545 S
O232 C228 1.245 1_545 S
O233 Tb220 2.343 . S
O233 Tb222 2.596 . S
O233 C228 1.259 . S
O234 Tb222 2.374 1_545 S
O234 C229 1.250 . S
O235 Tb220 2.373 . S
O235 C229 1.245 1_565 S
C236 O237 1.275 . S
C236 O238 1.246 . S
O237 Tb220 2.427 . S
O237 C236 1.275 . S
O238 Tb220 2.513 . S
O238 C236 1.246 . S
C239 O223 1.245 . S
C239 O224 1.259 . S
Tb240 O243 2.453 . S
Tb240 O244 2.596 . S
Tb240 O245 2.374 . S
Tb240 O253 2.343 . S
Tb240 O255 2.353 . S
Tb240 O257 2.427 . S
Tb240 O258 2.513 . S
C241 O245 1.251 . S
C241 O247 1.263 . S
Tb242 O244 2.343 . S
Tb242 O247 2.353 . S
Tb242 O250 2.427 . S
Tb242 O251 2.513 . S
Tb242 O252 2.453 . S
Tb242 O253 2.596 . S
Tb242 O254 2.374 . S
O243 Tb240 2.453 . S
O243 C259 1.245 . S
O244 Tb240 2.596 . S
O244 Tb242 2.343 . S
O244 C259 1.259 . S
O245 Tb240 2.374 . S
O245 C241 1.251 . S
C246 O250 1.275 . S
C246 O251 1.246 . S
O247 C241 1.263 . S
O247 Tb242 2.353 . S
C248 O252 1.245 . S
C248 O253 1.259 . S
C249 O254 1.250 . S
C249 O255 1.263 . S
O250 Tb242 2.427 . S
O250 C246 1.275 . S
O251 Tb242 2.513 . S
O251 C246 1.246 . S
O252 Tb242 2.453 . S
O252 C248 1.245 . S
O253 Tb240 2.343 . S
O253 Tb242 2.596 . S
O253 C248 1.259 . S
O254 Tb242 2.374 . S
O254 C249 1.250 . S
O255 Tb240 2.353 . S
O255 C249 1.263 . S
C256 O257 1.275 . S
C256 O258 1.246 . S
O257 Tb240 2.427 . S
O257 C256 1.275 . S
O258 Tb240 2.513 . S
O258 C256 1.246 . S
C259 O243 1.245 . S
C259 O244 1.259 . S
Tb260 O263 2.453 1_565 S
Tb260 O264 2.596 . S
Tb260 O265 2.374 1_565 S
Tb260 O273 2.343 . S
Tb260 O275 2.353 . S
Tb260 O277 2.427 . S
Tb260 O278 2.513 1_565 S
C261 O265 1.251 . S
C261 O267 1.245 1_545 S
Tb262 O264 2.343 . S
Tb262 O267 2.373 . S
Tb262 O270 2.427 . S
Tb262 O271 2.513 . S
Tb262 O272 2.453 . S
Tb262 O273 2.596 . S
Tb262 O274 2.374 . S
O263 Tb260 2.453 1_545 S
O263 C279 1.245 1_545 S
O264 Tb260 2.596 . S
O264 Tb262 2.343 . S
O264 C279 1.259 . S
O265 Tb260 2.374 1_545 S
O265 C261 1.251 . S
C266 O270 1.275 . S
C266 O271 1.246 . S
O267 C261 1.245 1_565 S
O267 Tb262 2.373 . S
C268 O272 1.245 . S
C268 O273 1.259 . S
C269 O274 1.250 . S
C269 O275 1.263 . S
O270 Tb262 2.427 . S
O270 C266 1.275 . S
O271 Tb262 2.513 . S
O271 C266 1.246 . S
O272 Tb262 2.453 . S
O272 C268 1.245 . S
O273 Tb260 2.343 . S
O273 Tb262 2.596 . S
O273 C268 1.259 . S
O274 Tb262 2.374 . S
O274 C269 1.250 . S
O275 Tb260 2.353 . S
O275 C269 1.263 . S
C276 O277 1.275 . S
C276 O278 1.246 1_565 S
O277 Tb260 2.427 . S
O277 C276 1.275 . S
O278 Tb260 2.513 1_545 S
O278 C276 1.246 1_545 S
C279 O263 1.245 1_565 S
C279 O264 1.259 . S
Tb280 O283 2.453 . S
Tb280 O284 2.596 . S
Tb280 O285 2.374 . S
Tb280 O293 2.343 . S
Tb280 O295 2.353 . S
Tb280 O297 2.427 . S
Tb280 O298 2.513 . S
C281 O285 1.251 . S
C281 O287 1.263 . S
Tb282 O284 2.343 . S
Tb282 O287 2.353 . S
Tb282 O290 2.427 . S
Tb282 O291 2.513 . S
Tb282 O292 2.453 . S
Tb282 O293 2.596 . S
Tb282 O294 2.374 . S
O283 Tb280 2.453 . S
O283 C299 1.245 . S
O284 Tb280 2.596 . S
O284 Tb282 2.343 . S
O284 C299 1.259 . S
O285 Tb280 2.374 . S
O285 C281 1.251 . S
C286 O290 1.275 . S
C286 O291 1.246 . S
O287 C281 1.263 . S
O287 Tb282 2.353 . S
C288 O292 1.245 . S
C288 O293 1.259 . S
C289 O294 1.250 . S
C289 O295 1.263 . S
O290 Tb282 2.427 . S
O290 C286 1.275 . S
O291 Tb282 2.513 . S
O291 C286 1.246 . S
O292 Tb282 2.453 . S
O292 C288 1.245 . S
O293 Tb280 2.343 . S
O293 Tb282 2.596 . S
O293 C288 1.259 . S
O294 Tb282 2.374 . S
O294 C289 1.250 . S
O295 Tb280 2.353 . S
O295 C289 1.263 . S
C296 O297 1.275 . S
C296 O298 1.246 . S
O297 Tb280 2.427 . S
O297 C296 1.275 . S
O298 Tb280 2.513 . S
O298 C296 1.246 . S
C299 O283 1.245 . S
C299 O284 1.259 . S
Tb300 O303 2.453 1_545 S
Tb300 O304 2.596 . S
Tb300 O305 2.374 1_545 S
Tb300 O313 2.343 . S
Tb300 O315 2.353 . S
Tb300 O317 2.427 . S
Tb300 O318 2.513 1_545 S
C301 O305 1.251 . S
C301 O307 1.245 1_565 S
Tb302 O304 2.343 . S
Tb302 O307 2.373 . S
Tb302 O310 2.427 . S
Tb302 O311 2.513 . S
Tb302 O312 2.453 . S
Tb302 O313 2.596 . S
Tb302 O314 2.374 . S
O303 Tb300 2.453 1_565 S
O303 C319 1.245 1_565 S
O304 Tb300 2.596 . S
O304 Tb302 2.343 . S
O304 C319 1.259 . S
O305 Tb300 2.374 1_565 S
O305 C301 1.251 . S
C306 O310 1.275 . S
C306 O311 1.246 . S
O307 C301 1.245 1_545 S
O307 Tb302 2.373 . S
C308 O312 1.245 . S
C308 O313 1.259 . S
C309 O314 1.250 . S
C309 O315 1.263 . S
O310 Tb302 2.427 . S
O310 C306 1.275 . S
O311 Tb302 2.513 . S
O311 C306 1.246 . S
O312 Tb302 2.453 . S
O312 C308 1.245 . S
O313 Tb300 2.343 . S
O313 Tb302 2.596 . S
O313 C308 1.259 . S
O314 Tb302 2.374 . S
O314 C309 1.250 . S
O315 Tb300 2.353 . S
O315 C309 1.263 . S
C316 O317 1.275 . S
C316 O318 1.246 1_545 S
O317 Tb300 2.427 . S
O317 C316 1.275 . S
O318 Tb300 2.513 1_565 S
O318 C316 1.246 1_565 S
C319 O303 1.245 1_545 S
C319 O304 1.259 . S
H320 C328 0.950 . S
H321 C333 0.950 . S
H322 C330 0.950 . S
H323 C332 0.950 . S
H324 C334 0.950 . S
H325 C336 0.950 . S
H326 C338 0.950 . S
H327 C339 0.950 . S
C328 H320 0.950 . S
C328 C329 1.386 . S
C328 C330 1.391 . S
C329 C328 1.386 . S
C329 C333 1.393 . S
C330 H322 0.950 . S
C330 C328 1.391 . S
C330 C331 1.400 . S
C331 C330 1.400 . S
C331 C332 1.398 . S
C331 C337 1.491 . S
C332 H323 0.950 . S
C332 C331 1.398 . S
C332 C333 1.391 . S
C333 H321 0.950 . S
C333 C329 1.393 . S
C333 C332 1.391 . S
C334 H324 0.950 . S
C334 C335 1.386 . S
C334 C336 1.391 . S
C335 C334 1.386 . S
C335 C339 1.393 . S
C336 H325 0.950 . S
C336 C334 1.391 . S
C336 C337 1.400 . S
C337 C331 1.491 . S
C337 C336 1.400 . S
C337 C338 1.398 . S
C338 H326 0.950 . S
C338 C337 1.398 . S
C338 C339 1.391 . S
C339 H327 0.950 . S
C339 C335 1.393 . S
C339 C338 1.391 . S
H340 C348 0.950 . S
H341 C353 0.950 . S
H342 C350 0.950 . S
H343 C352 0.950 . S
H344 C354 0.950 . S
H345 C356 0.950 . S
H346 C358 0.950 . S
H347 C359 0.950 . S
C348 H340 0.950 . S
C348 C349 1.386 . S
C348 C350 1.391 . S
C349 C348 1.386 . S
C349 C353 1.393 . S
C350 H342 0.950 . S
C350 C348 1.391 . S
C350 C351 1.400 . S
C351 C350 1.400 . S
C351 C352 1.398 . S
C351 C357 1.491 . S
C352 H343 0.950 . S
C352 C351 1.398 . S
C352 C353 1.391 . S
C353 H341 0.950 . S
C353 C349 1.393 . S
C353 C352 1.391 . S
C354 H344 0.950 . S
C354 C355 1.386 . S
C354 C356 1.391 . S
C355 C354 1.386 . S
C355 C359 1.393 . S
C356 H345 0.950 . S
C356 C354 1.391 . S
C356 C357 1.400 . S
C357 C351 1.491 . S
C357 C356 1.400 . S
C357 C358 1.398 . S
C358 H346 0.950 . S
C358 C357 1.398 . S
C358 C359 1.391 . S
C359 H347 0.950 . S
C359 C355 1.393 . S
C359 C358 1.391 . S
H360 C368 0.950 . S
H361 C373 0.950 . S
H362 C370 0.950 . S
H363 C372 0.950 . S
H364 C374 0.950 . S
H365 C376 0.950 . S
H366 C378 0.950 . S
H367 C379 0.950 . S
C368 H360 0.950 . S
C368 C369 1.386 . S
C368 C370 1.391 . S
C369 C368 1.386 . S
C369 C373 1.393 . S
C370 H362 0.950 . S
C370 C368 1.391 . S
C370 C371 1.400 . S
C371 C370 1.400 . S
C371 C372 1.398 . S
C371 C377 1.491 1_455 S
C372 H363 0.950 . S
C372 C371 1.398 . S
C372 C373 1.391 . S
C373 H361 0.950 . S
C373 C369 1.393 . S
C373 C372 1.391 . S
C374 H364 0.950 . S
C374 C375 1.386 . S
C374 C376 1.391 . S
C375 C374 1.386 . S
C375 C379 1.393 . S
C376 H365 0.950 . S
C376 C374 1.391 . S
C376 C377 1.400 . S
C377 C371 1.491 1_655 S
C377 C376 1.400 . S
C377 C378 1.398 . S
C378 H366 0.950 . S
C378 C377 1.398 . S
C378 C379 1.391 . S
C379 H367 0.950 . S
C379 C375 1.393 . S
C379 C378 1.391 . S
H380 C388 0.950 . S
H381 C393 0.950 . S
H382 C390 0.963 . S
H383 C392 0.950 . S
H384 C394 0.950 . S
H385 C396 0.964 . S
H386 C398 0.950 . S
H387 C399 0.950 . S
C388 H380 0.950 . S
C388 C389 1.386 . S
C388 C390 1.383 1_455 S
C389 C388 1.386 . S
C389 C393 1.393 . S
C390 H382 0.963 . S
C390 C388 1.383 1_655 S
C390 C391 1.396 1_655 S
C391 C390 1.396 1_455 S
C391 C392 1.398 . S
C391 C397 1.491 1_455 S
C392 H383 0.950 . S
C392 C391 1.398 . S
C392 C393 1.391 . S
C393 H381 0.950 . S
C393 C389 1.393 . S
C393 C392 1.391 . S
C394 H384 0.950 . S
C394 C395 1.386 . S
C394 C396 1.383 1_655 S
C395 C394 1.386 . S
C395 C399 1.393 . S
C396 H385 0.964 . S
C396 C394 1.383 1_455 S
C396 C397 1.395 1_455 S
C397 C391 1.491 1_655 S
C397 C396 1.395 1_655 S
C397 C398 1.398 . S
C398 H386 0.950 . S
C398 C397 1.398 . S
C398 C399 1.391 . S
C399 H387 0.950 . S
C399 C395 1.393 . S
C399 C398 1.391 . S
H400 C408 0.950 . S
H401 C413 0.950 . S
H402 C410 0.950 . S
H403 C412 0.950 . S
H404 C414 0.950 . S
H405 C416 0.950 . S
H406 C418 0.950 . S
H407 C419 0.950 . S
C408 H400 0.950 . S
C408 C409 1.386 . S
C408 C410 1.391 . S
C409 C408 1.386 . S
C409 C413 1.393 . S
C410 H402 0.950 . S
C410 C408 1.391 . S
C410 C411 1.400 . S
C411 C410 1.400 . S
C411 C412 1.398 . S
C411 C417 1.491 . S
C412 H403 0.950 . S
C412 C411 1.398 . S
C412 C413 1.391 . S
C413 H401 0.950 . S
C413 C409 1.393 . S
C413 C412 1.391 . S
C414 H404 0.950 . S
C414 C415 1.386 . S
C414 C416 1.391 . S
C415 C414 1.386 . S
C415 C419 1.393 . S
C416 H405 0.950 . S
C416 C414 1.391 . S
C416 C417 1.400 . S
C417 C411 1.491 . S
C417 C416 1.400 . S
C417 C418 1.398 . S
C418 H406 0.950 . S
C418 C417 1.398 . S
C418 C419 1.391 . S
C419 H407 0.950 . S
C419 C415 1.393 . S
C419 C418 1.391 . S
H420 C428 0.950 . S
H421 C433 0.950 . S
H422 C430 0.950 . S
H423 C432 0.950 . S
H424 C434 0.950 . S
H425 C436 0.950 . S
H426 C438 0.950 . S
H427 C439 0.950 . S
C428 H420 0.950 . S
C428 C429 1.386 . S
C428 C430 1.391 . S
C429 C428 1.386 . S
C429 C433 1.393 . S
C430 H422 0.950 . S
C430 C428 1.391 . S
C430 C431 1.400 . S
C431 C430 1.400 . S
C431 C432 1.398 . S
C431 C437 1.491 . S
C432 H423 0.950 . S
C432 C431 1.398 . S
C432 C433 1.391 . S
C433 H421 0.950 . S
C433 C429 1.393 . S
C433 C432 1.391 . S
C434 H424 0.950 . S
C434 C435 1.386 . S
C434 C436 1.391 . S
C435 C434 1.386 . S
C435 C439 1.393 . S
C436 H425 0.950 . S
C436 C434 1.391 . S
C436 C437 1.400 . S
C437 C431 1.491 . S
C437 C436 1.400 . S
C437 C438 1.398 . S
C438 H426 0.950 . S
C438 C437 1.398 . S
C438 C439 1.391 . S
C439 H427 0.950 . S
C439 C435 1.393 . S
C439 C438 1.391 . S
H440 C448 0.950 . S
H441 C453 0.950 . S
H442 C450 0.950 . S
H443 C452 0.950 1_655 S
H444 C454 0.950 . S
H445 C456 0.950 . S
H446 C458 0.950 1_455 S
H447 C459 0.950 . S
C448 H440 0.950 . S
C448 C449 1.386 . S
C448 C450 1.391 . S
C449 C448 1.386 . S
C449 C453 1.393 . S
C450 H442 0.950 . S
C450 C448 1.391 . S
C450 C451 1.400 . S
C451 C450 1.400 . S
C451 C452 1.398 . S
C451 C457 1.491 1_455 S
C452 H443 0.950 1_455 S
C452 C451 1.398 . S
C452 C453 1.391 . S
C453 H441 0.950 . S
C453 C449 1.393 . S
C453 C452 1.391 . S
C454 H444 0.950 . S
C454 C455 1.386 . S
C454 C456 1.391 . S
C455 C454 1.386 . S
C455 C459 1.393 . S
C456 H445 0.950 . S
C456 C454 1.391 . S
C456 C457 1.400 . S
C457 C451 1.491 1_655 S
C457 C456 1.400 . S
C457 C458 1.398 . S
C458 H446 0.950 1_655 S
C458 C457 1.398 . S
C458 C459 1.391 . S
C459 H447 0.950 . S
C459 C455 1.393 . S
C459 C458 1.391 . S
H460 C468 0.950 . S
H461 C473 0.950 . S
H462 C470 0.950 . S
H463 C472 0.950 1_655 S
H464 C474 0.950 . S
H465 C476 0.950 . S
H466 C478 0.950 1_455 S
H467 C479 0.950 . S
C468 H460 0.950 . S
C468 C469 1.386 . S
C468 C470 1.391 . S
C469 C468 1.386 . S
C469 C473 1.393 . S
C470 H462 0.950 . S
C470 C468 1.391 . S
C470 C471 1.400 . S
C471 C470 1.400 . S
C471 C472 1.398 . S
C471 C477 1.491 1_455 S
C472 H463 0.950 1_455 S
C472 C471 1.398 . S
C472 C473 1.391 . S
C473 H461 0.950 . S
C473 C469 1.393 . S
C473 C472 1.391 . S
C474 H464 0.950 . S
C474 C475 1.386 . S
C474 C476 1.391 . S
C475 C474 1.386 . S
C475 C479 1.393 . S
C476 H465 0.950 . S
C476 C474 1.391 . S
C476 C477 1.400 . S
C477 C471 1.491 1_655 S
C477 C476 1.400 . S
C477 C478 1.398 . S
C478 H466 0.950 1_655 S
C478 C477 1.398 . S
C478 C479 1.391 . S
C479 H467 0.950 . S
C479 C475 1.393 . S
C479 C478 1.391 . S
H480 C488 0.950 . S
H481 C493 0.950 . S
H482 C490 0.967 1_565 S
H483 C492 0.950 . S
H484 C494 0.950 . S
H485 C496 0.966 1_545 S
H486 C498 0.950 . S
H487 C499 0.950 . S
C488 H480 0.950 . S
C488 C489 1.386 . S
C488 C490 1.381 1_554 S
C489 C488 1.386 . S
C489 C493 1.393 . S
C490 H482 0.967 1_545 S
C490 C488 1.381 1_556 S
C490 C491 1.394 1_556 S
C491 C490 1.394 1_554 S
C491 C492 1.398 . S
C491 C497 1.491 1_544 S
C492 H483 0.950 . S
C492 C491 1.398 . S
C492 C493 1.391 . S
C493 H481 0.950 . S
C493 C489 1.393 . S
C493 C492 1.391 . S
C494 H484 0.950 . S
C494 C495 1.386 . S
C494 C496 1.381 1_556 S
C495 C494 1.386 . S
C495 C499 1.393 . S
C496 H485 0.966 1_565 S
C496 C494 1.381 1_554 S
C496 C497 1.395 1_554 S
C497 C491 1.491 1_566 S
C497 C496 1.395 1_556 S
C497 C498 1.398 . S
C498 H486 0.950 . S
C498 C497 1.398 . S
C498 C499 1.391 . S
C499 H487 0.950 . S
C499 C495 1.393 . S
C499 C498 1.391 . S
H500 C508 0.950 . S
H501 C513 0.950 . S
H502 C510 0.950 . S
H503 C512 0.950 . S
H504 C514 0.950 . S
H505 C516 0.950 . S
H506 C518 0.950 . S
H507 C519 0.950 . S
C508 H500 0.950 . S
C508 C509 1.386 . S
C508 C510 1.391 . S
C509 C508 1.386 . S
C509 C513 1.393 . S
C510 H502 0.950 . S
C510 C508 1.391 . S
C510 C511 1.400 . S
C511 C510 1.400 . S
C511 C512 1.398 . S
C511 C517 1.491 . S
C512 H503 0.950 . S
C512 C511 1.398 . S
C512 C513 1.391 . S
C513 H501 0.950 . S
C513 C509 1.393 . S
C513 C512 1.391 . S
C514 H504 0.950 . S
C514 C515 1.386 . S
C514 C516 1.391 . S
C515 C514 1.386 . S
C515 C519 1.393 . S
C516 H505 0.950 . S
C516 C514 1.391 . S
C516 C517 1.400 . S
C517 C511 1.491 . S
C517 C516 1.400 . S
C517 C518 1.398 . S
C518 H506 0.950 . S
C518 C517 1.398 . S
C518 C519 1.391 . S
C519 H507 0.950 . S
C519 C515 1.393 . S
C519 C518 1.391 . S
H520 C528 0.950 . S
H521 C533 0.950 . S
H522 C530 0.950 . S
H523 C532 0.950 1_645 S
H524 C534 0.950 . S
H525 C536 0.950 . S
H526 C538 0.950 1_465 S
H527 C539 0.950 . S
C528 H520 0.950 . S
C528 C529 1.386 . S
C528 C530 1.391 . S
C529 C528 1.386 . S
C529 C533 1.393 . S
C530 H522 0.950 . S
C530 C528 1.391 . S
C530 C531 1.400 . S
C531 C530 1.400 . S
C531 C532 1.398 . S
C531 C537 1.491 1_465 S
C532 H523 0.950 1_465 S
C532 C531 1.398 . S
C532 C533 1.391 . S
C533 H521 0.950 . S
C533 C529 1.393 . S
C533 C532 1.391 . S
C534 H524 0.950 . S
C534 C535 1.386 . S
C534 C536 1.391 . S
C535 C534 1.386 . S
C535 C539 1.393 . S
C536 H525 0.950 . S
C536 C534 1.391 . S
C536 C537 1.400 . S
C537 C531 1.491 1_645 S
C537 C536 1.400 . S
C537 C538 1.398 . S
C538 H526 0.950 1_645 S
C538 C537 1.398 . S
C538 C539 1.391 . S
C539 H527 0.950 . S
C539 C535 1.393 . S
C539 C538 1.391 . S
H540 C548 0.950 . S
H541 C553 0.950 . S
H542 C550 0.950 . S
H543 C552 0.950 . S
H544 C554 0.950 . S
H545 C556 0.950 . S
H546 C558 0.950 . S
H547 C559 0.950 . S
C548 H540 0.950 . S
C548 C549 1.386 . S
C548 C550 1.391 . S
C549 C548 1.386 . S
C549 C553 1.393 . S
C550 H542 0.950 . S
C550 C548 1.391 . S
C550 C551 1.400 . S
C551 C550 1.400 . S
C551 C552 1.398 . S
C551 C557 1.491 . S
C552 H543 0.950 . S
C552 C551 1.398 . S
C552 C553 1.391 . S
C553 H541 0.950 . S
C553 C549 1.393 . S
C553 C552 1.391 . S
C554 H544 0.950 . S
C554 C555 1.386 . S
C554 C556 1.391 . S
C555 C554 1.386 . S
C555 C559 1.393 . S
C556 H545 0.950 . S
C556 C554 1.391 . S
C556 C557 1.400 . S
C557 C551 1.491 . S
C557 C556 1.400 . S
C557 C558 1.398 . S
C558 H546 0.950 . S
C558 C557 1.398 . S
C558 C559 1.391 . S
C559 H547 0.950 . S
C559 C555 1.393 . S
C559 C558 1.391 . S
H560 C568 0.950 . S
H561 C573 0.950 . S
H562 C570 0.950 . S
H563 C572 0.950 . S
H564 C574 0.950 . S
H565 C576 0.950 . S
H566 C578 0.950 . S
H567 C579 0.950 . S
C568 H560 0.950 . S
C568 C569 1.386 . S
C568 C570 1.391 . S
C569 C568 1.386 . S
C569 C573 1.393 . S
C570 H562 0.950 . S
C570 C568 1.391 . S
C570 C571 1.400 . S
C571 C570 1.400 . S
C571 C572 1.398 . S
C571 C577 1.491 . S
C572 H563 0.950 . S
C572 C571 1.398 . S
C572 C573 1.391 . S
C573 H561 0.950 . S
C573 C569 1.393 . S
C573 C572 1.391 . S
C574 H564 0.950 . S
C574 C575 1.386 . S
C574 C576 1.391 . S
C575 C574 1.386 . S
C575 C579 1.393 . S
C576 H565 0.950 . S
C576 C574 1.391 . S
C576 C577 1.400 . S
C577 C571 1.491 . S
C577 C576 1.400 . S
C577 C578 1.398 . S
C578 H566 0.950 . S
C578 C577 1.398 . S
C578 C579 1.391 . S
C579 H567 0.950 . S
C579 C575 1.393 . S
C579 C578 1.391 . S
H580 C588 0.950 . S
H581 C593 0.950 . S
H582 C590 0.950 . S
H583 C592 0.950 . S
H584 C594 0.950 . S
H585 C596 0.950 . S
H586 C598 0.950 . S
H587 C599 0.950 . S
C588 H580 0.950 . S
C588 C589 1.386 . S
C588 C590 1.391 . S
C589 C588 1.386 . S
C589 C593 1.393 . S
C590 H582 0.950 . S
C590 C588 1.391 . S
C590 C591 1.400 . S
C591 C590 1.400 . S
C591 C592 1.398 . S
C591 C597 1.491 . S
C592 H583 0.950 . S
C592 C591 1.398 . S
C592 C593 1.391 . S
C593 H581 0.950 . S
C593 C589 1.393 . S
C593 C592 1.391 . S
C594 H584 0.950 . S
C594 C595 1.386 . S
C594 C596 1.391 . S
C595 C594 1.386 . S
C595 C599 1.393 . S
C596 H585 0.950 . S
C596 C594 1.391 . S
C596 C597 1.400 . S
C597 C591 1.491 . S
C597 C596 1.400 . S
C597 C598 1.398 . S
C598 H586 0.950 . S
C598 C597 1.398 . S
C598 C599 1.391 . S
C599 H587 0.950 . S
C599 C595 1.393 . S
C599 C598 1.391 . S
H600 C608 0.950 . S
H601 C613 0.950 . S
H602 C610 0.950 1_655 S
H603 C612 0.950 . S
H604 C614 0.950 . S
H605 C616 0.950 1_455 S
H606 C618 0.950 . S
H607 C619 0.950 . S
C608 H600 0.950 . S
C608 C609 1.386 . S
C608 C610 1.391 . S
C609 C608 1.386 . S
C609 C613 1.393 . S
C610 H602 0.950 1_455 S
C610 C608 1.391 . S
C610 C611 1.400 . S
C611 C610 1.400 . S
C611 C612 1.398 . S
C611 C617 1.491 1_455 S
C612 H603 0.950 . S
C612 C611 1.398 . S
C612 C613 1.391 . S
C613 H601 0.950 . S
C613 C609 1.393 . S
C613 C612 1.391 . S
C614 H604 0.950 . S
C614 C615 1.386 . S
C614 C616 1.391 . S
C615 C614 1.386 . S
C615 C619 1.393 . S
C616 H605 0.950 1_655 S
C616 C614 1.391 . S
C616 C617 1.400 . S
C617 C611 1.491 1_655 S
C617 C616 1.400 . S
C617 C618 1.398 . S
C618 H606 0.950 . S
C618 C617 1.398 . S
C618 C619 1.391 . S
C619 H607 0.950 . S
C619 C615 1.393 . S
C619 C618 1.391 . S
H620 C628 0.950 . S
H621 C633 0.950 . S
H622 C630 0.950 1_556 S
H623 C632 0.950 . S
H624 C634 0.950 . S
H625 C636 0.950 1_554 S
H626 C638 0.950 . S
H627 C639 0.950 . S
C628 H620 0.950 . S
C628 C629 1.386 . S
C628 C630 1.391 . S
C629 C628 1.386 . S
C629 C633 1.393 . S
C630 H622 0.950 1_554 S
C630 C628 1.391 . S
C630 C631 1.400 . S
C631 C630 1.400 . S
C631 C632 1.398 . S
C631 C637 1.491 1_554 S
C632 H623 0.950 . S
C632 C631 1.398 . S
C632 C633 1.391 . S
C633 H621 0.950 . S
C633 C629 1.393 . S
C633 C632 1.391 . S
C634 H624 0.950 . S
C634 C635 1.386 . S
C634 C636 1.391 . S
C635 C634 1.386 . S
C635 C639 1.393 . S
C636 H625 0.950 1_556 S
C636 C634 1.391 . S
C636 C637 1.400 . S
C637 C631 1.491 1_556 S
C637 C636 1.400 . S
C637 C638 1.398 . S
C638 H626 0.950 . S
C638 C637 1.398 . S
C638 C639 1.391 . S
C639 H627 0.950 . S
C639 C635 1.393 . S
C639 C638 1.391 . S
H640 C648 0.950 . S
H641 C653 0.950 . S
H642 C650 0.950 . S
H643 C652 0.950 . S
H644 C654 0.950 . S
H645 C656 0.950 . S
H646 C658 0.950 . S
H647 C659 0.950 . S
C648 H640 0.950 . S
C648 C649 1.386 . S
C648 C650 1.391 . S
C649 C648 1.386 . S
C649 C653 1.393 . S
C650 H642 0.950 . S
C650 C648 1.391 . S
C650 C651 1.400 . S
C651 C650 1.400 . S
C651 C652 1.398 . S
C651 C657 1.491 . S
C652 H643 0.950 . S
C652 C651 1.398 . S
C652 C653 1.391 . S
C653 H641 0.950 . S
C653 C649 1.393 . S
C653 C652 1.391 . S
C654 H644 0.950 . S
C654 C655 1.386 . S
C654 C656 1.391 . S
C655 C654 1.386 . S
C655 C659 1.393 . S
C656 H645 0.950 . S
C656 C654 1.391 . S
C656 C657 1.400 . S
C657 C651 1.491 . S
C657 C656 1.400 . S
C657 C658 1.398 . S
C658 H646 0.950 . S
C658 C657 1.398 . S
C658 C659 1.391 . S
C659 H647 0.950 . S
C659 C655 1.393 . S
C659 C658 1.391 . S
H660 C668 0.950 . S
H661 C673 0.950 . S
H662 C670 0.950 . S
H663 C672 0.950 . S
H664 C674 0.950 . S
H665 C676 0.950 . S
H666 C678 0.950 . S
H667 C679 0.950 . S
C668 H660 0.950 . S
C668 C669 1.386 . S
C668 C670 1.391 . S
C669 C668 1.386 . S
C669 C673 1.393 . S
C670 H662 0.950 . S
C670 C668 1.391 . S
C670 C671 1.400 . S
C671 C670 1.400 . S
C671 C672 1.398 . S
C671 C677 1.491 . S
C672 H663 0.950 . S
C672 C671 1.398 . S
C672 C673 1.391 . S
C673 H661 0.950 . S
C673 C669 1.393 . S
C673 C672 1.391 . S
C674 H664 0.950 . S
C674 C675 1.386 . S
C674 C676 1.391 . S
C675 C674 1.386 . S
C675 C679 1.393 . S
C676 H665 0.950 . S
C676 C674 1.391 . S
C676 C677 1.400 . S
C677 C671 1.491 . S
C677 C676 1.400 . S
C677 C678 1.398 . S
C678 H666 0.950 . S
C678 C677 1.398 . S
C678 C679 1.391 . S
C679 H667 0.950 . S
C679 C675 1.393 . S
C679 C678 1.391 . S
H680 C688 0.950 . S
H681 C693 0.950 . S
H682 C690 0.950 . S
H683 C692 0.950 . S
H684 C694 0.950 . S
H685 C696 0.950 . S
H686 C698 0.950 . S
H687 C699 0.950 . S
C688 H680 0.950 . S
C688 C689 1.386 . S
C688 C690 1.391 . S
C689 C688 1.386 . S
C689 C693 1.393 . S
C690 H682 0.950 . S
C690 C688 1.391 . S
C690 C691 1.400 . S
C691 C690 1.400 . S
C691 C692 1.398 . S
C691 C697 1.491 . S
C692 H683 0.950 . S
C692 C691 1.398 . S
C692 C693 1.391 . S
C693 H681 0.950 . S
C693 C689 1.393 . S
C693 C692 1.391 . S
C694 H684 0.950 . S
C694 C695 1.386 . S
C694 C696 1.391 . S
C695 C694 1.386 . S
C695 C699 1.393 . S
C696 H685 0.950 . S
C696 C694 1.391 . S
C696 C697 1.400 . S
C697 C691 1.491 . S
C697 C696 1.400 . S
C697 C698 1.398 . S
C698 H686 0.950 . S
C698 C697 1.398 . S
C698 C699 1.391 . S
C699 H687 0.950 . S
C699 C695 1.393 . S
C699 C698 1.391 . S
H700 C708 0.950 . S
H701 C713 0.950 . S
H702 C710 0.950 . S
H703 C712 0.950 . S
H704 C714 0.950 . S
H705 C716 0.950 . S
H706 C718 0.950 . S
H707 C719 0.950 . S
C708 H700 0.950 . S
C708 C709 1.386 . S
C708 C710 1.391 1_655 S
C709 C708 1.386 . S
C709 C713 1.393 1_655 S
C710 H702 0.950 . S
C710 C708 1.391 1_455 S
C710 C711 1.400 . S
C711 C710 1.400 . S
C711 C712 1.398 . S
C711 C717 1.491 . S
C712 H703 0.950 . S
C712 C711 1.398 . S
C712 C713 1.391 . S
C713 H701 0.950 . S
C713 C709 1.393 1_455 S
C713 C712 1.391 . S
C714 H704 0.950 . S
C714 C715 1.386 . S
C714 C716 1.391 . S
C715 C714 1.386 . S
C715 C719 1.393 . S
C716 H705 0.950 . S
C716 C714 1.391 . S
C716 C717 1.400 . S
C717 C711 1.491 . S
C717 C716 1.400 . S
C717 C718 1.398 . S
C718 H706 0.950 . S
C718 C717 1.398 . S
C718 C719 1.391 . S
C719 H707 0.950 . S
C719 C715 1.393 . S
C719 C718 1.391 . S
H720 C728 0.950 . S
H721 C733 0.950 . S
H722 C730 0.950 . S
H723 C732 0.950 . S
H724 C734 0.950 . S
H725 C736 0.950 . S
H726 C738 0.950 . S
H727 C739 0.950 . S
C728 H720 0.950 . S
C728 C729 1.386 . S
C728 C730 1.391 . S
C729 C728 1.386 . S
C729 C733 1.393 . S
C730 H722 0.950 . S
C730 C728 1.391 . S
C730 C731 1.400 . S
C731 C730 1.400 . S
C731 C732 1.398 . S
C731 C737 1.491 . S
C732 H723 0.950 . S
C732 C731 1.398 . S
C732 C733 1.391 . S
C733 H721 0.950 . S
C733 C729 1.393 . S
C733 C732 1.391 . S
C734 H724 0.950 . S
C734 C735 1.386 . S
C734 C736 1.391 . S
C735 C734 1.386 . S
C735 C739 1.393 . S
C736 H725 0.950 . S
C736 C734 1.391 . S
C736 C737 1.400 . S
C737 C731 1.491 . S
C737 C736 1.400 . S
C737 C738 1.398 . S
C738 H726 0.950 . S
C738 C737 1.398 . S
C738 C739 1.391 . S
C739 H727 0.950 . S
C739 C735 1.393 . S
C739 C738 1.391 . S
H740 C748 0.950 . S
H741 C753 0.950 . S
H742 C750 0.950 . S
H743 C752 0.950 . S
H744 C754 0.950 . S
H745 C756 0.950 . S
H746 C758 0.950 . S
H747 C759 0.950 . S
C748 H740 0.950 . S
C748 C749 1.386 . S
C748 C750 1.391 . S
C749 C748 1.386 . S
C749 C753 1.393 . S
C750 H742 0.950 . S
C750 C748 1.391 . S
C750 C751 1.400 . S
C751 C750 1.400 . S
C751 C752 1.398 . S
C751 C757 1.491 . S
C752 H743 0.950 . S
C752 C751 1.398 . S
C752 C753 1.391 . S
C753 H741 0.950 . S
C753 C749 1.393 . S
C753 C752 1.391 . S
C754 H744 0.950 . S
C754 C755 1.386 . S
C754 C756 1.391 . S
C755 C754 1.386 . S
C755 C759 1.393 . S
C756 H745 0.950 . S
C756 C754 1.391 . S
C756 C757 1.400 . S
C757 C751 1.491 . S
C757 C756 1.400 . S
C757 C758 1.398 . S
C758 H746 0.950 . S
C758 C757 1.398 . S
C758 C759 1.391 . S
C759 H747 0.950 . S
C759 C755 1.393 . S
C759 C758 1.391 . S
H760 C768 0.950 . S
H761 C773 0.950 . S
H762 C770 0.950 . S
H763 C772 0.950 . S
H764 C774 0.950 . S
H765 C776 0.950 . S
H766 C778 0.950 . S
H767 C779 0.950 . S
C768 H760 0.950 . S
C768 C769 1.386 . S
C768 C770 1.391 . S
C769 C768 1.386 . S
C769 C773 1.393 . S
C770 H762 0.950 . S
C770 C768 1.391 . S
C770 C771 1.400 . S
C771 C770 1.400 . S
C771 C772 1.398 . S
C771 C777 1.491 . S
C772 H763 0.950 . S
C772 C771 1.398 . S
C772 C773 1.391 . S
C773 H761 0.950 . S
C773 C769 1.393 . S
C773 C772 1.391 . S
C774 H764 0.950 . S
C774 C775 1.386 . S
C774 C776 1.391 . S
C775 C774 1.386 . S
C775 C779 1.393 . S
C776 H765 0.950 . S
C776 C774 1.391 . S
C776 C777 1.400 . S
C777 C771 1.491 . S
C777 C776 1.400 . S
C777 C778 1.398 . S
C778 H766 0.950 . S
C778 C777 1.398 . S
C778 C779 1.391 . S
C779 H767 0.950 . S
C779 C775 1.393 . S
C779 C778 1.391 . S
H780 C788 0.950 . S
H781 C793 0.950 . S
H782 C790 0.950 . S
H783 C792 0.950 . S
H784 C794 0.950 . S
H785 C796 0.950 . S
H786 C798 0.950 . S
H787 C799 0.950 . S
C788 H780 0.950 . S
C788 C789 1.386 . S
C788 C790 1.391 . S
C789 C788 1.386 . S
C789 C793 1.393 . S
C790 H782 0.950 . S
C790 C788 1.391 . S
C790 C791 1.400 . S
C791 C790 1.400 . S
C791 C792 1.398 . S
C791 C797 1.491 . S
C792 H783 0.950 . S
C792 C791 1.398 . S
C792 C793 1.391 . S
C793 H781 0.950 . S
C793 C789 1.393 . S
C793 C792 1.391 . S
C794 H784 0.950 . S
C794 C795 1.386 . S
C794 C796 1.391 1_455 S
C795 C794 1.386 . S
C795 C799 1.393 . S
C796 H785 0.950 . S
C796 C794 1.391 1_655 S
C796 C797 1.400 . S
C797 C791 1.491 . S
C797 C796 1.400 . S
C797 C798 1.398 . S
C798 H786 0.950 . S
C798 C797 1.398 . S
C798 C799 1.391 1_655 S
C799 H787 0.950 . S
C799 C795 1.393 . S
C799 C798 1.391 1_455 S
H800 C808 0.950 . S
H801 C813 0.950 . S
H802 C810 0.950 . S
H803 C812 0.950 . S
H804 C814 0.950 . S
H805 C816 0.950 . S
H806 C818 0.950 . S
H807 C819 0.950 . S
C808 H800 0.950 . S
C808 C809 1.386 . S
C808 C810 1.391 . S
C809 C808 1.386 . S
C809 C813 1.393 . S
C810 H802 0.950 . S
C810 C808 1.391 . S
C810 C811 1.400 . S
C811 C810 1.400 . S
C811 C812 1.398 . S
C811 C817 1.491 . S
C812 H803 0.950 . S
C812 C811 1.398 . S
C812 C813 1.391 . S
C813 H801 0.950 . S
C813 C809 1.393 . S
C813 C812 1.391 . S
C814 H804 0.950 . S
C814 C815 1.386 . S
C814 C816 1.391 . S
C815 C814 1.386 . S
C815 C819 1.393 . S
C816 H805 0.950 . S
C816 C814 1.391 . S
C816 C817 1.400 . S
C817 C811 1.491 . S
C817 C816 1.400 . S
C817 C818 1.398 . S
C818 H806 0.950 . S
C818 C817 1.398 . S
C818 C819 1.391 . S
C819 H807 0.950 . S
C819 C815 1.393 . S
C819 C818 1.391 . S
H820 C828 0.950 . S
H821 C833 0.950 . S
H822 C830 0.950 . S
H823 C832 0.950 . S
H824 C834 0.950 . S
H825 C836 0.950 . S
H826 C838 0.950 . S
H827 C839 0.950 1_545 S
C828 H820 0.950 . S
C828 C829 1.386 . S
C828 C830 1.391 . S
C829 C828 1.386 . S
C829 C833 1.393 . S
C830 H822 0.950 . S
C830 C828 1.391 . S
C830 C831 1.400 . S
C831 C830 1.400 . S
C831 C832 1.398 . S
C831 C837 1.491 . S
C832 H823 0.950 . S
C832 C831 1.398 . S
C832 C833 1.391 . S
C833 H821 0.950 . S
C833 C829 1.393 . S
C833 C832 1.391 . S
C834 H824 0.950 . S
C834 C835 1.386 1_655 S
C834 C836 1.391 . S
C835 C834 1.386 1_455 S
C835 C839 1.393 . S
C836 H825 0.950 . S
C836 C834 1.391 . S
C836 C837 1.400 . S
C837 C831 1.491 . S
C837 C836 1.400 . S
C837 C838 1.390 1_655 S
C838 H826 0.950 . S
C838 C837 1.390 1_455 S
C838 C839 1.399 . S
C839 H827 0.950 1_565 S
C839 C835 1.393 . S
C839 C838 1.399 . S
H840 C848 0.950 . S
H841 C853 0.950 . S
H842 C850 0.950 . S
H843 C852 0.950 . S
H844 C854 0.950 . S
H845 C856 0.950 . S
H846 C858 0.950 . S
H847 C859 0.950 . S
C848 H840 0.950 . S
C848 C849 1.386 . S
C848 C850 1.391 . S
C849 C848 1.386 . S
C849 C853 1.393 . S
C850 H842 0.950 . S
C850 C848 1.391 . S
C850 C851 1.400 . S
C851 C850 1.400 . S
C851 C852 1.398 . S
C851 C857 1.491 . S
C852 H843 0.950 . S
C852 C851 1.398 . S
C852 C853 1.391 . S
C853 H841 0.950 . S
C853 C849 1.393 . S
C853 C852 1.391 . S
C854 H844 0.950 . S
C854 C855 1.386 . S
C854 C856 1.391 . S
C855 C854 1.386 . S
C855 C859 1.393 . S
C856 H845 0.950 . S
C856 C854 1.391 . S
C856 C857 1.400 . S
C857 C851 1.491 . S
C857 C856 1.400 . S
C857 C858 1.398 . S
C858 H846 0.950 . S
C858 C857 1.398 . S
C858 C859 1.391 . S
C859 H847 0.950 . S
C859 C855 1.393 . S
C859 C858 1.391 . S
H860 C868 0.950 . S
H861 C873 0.950 1_565 S
H862 C870 0.950 . S
H863 C872 0.950 1_565 S
H864 C874 0.950 . S
H865 C876 0.950 . S
H866 C878 0.950 . S
H867 C879 0.950 . S
C868 H860 0.950 . S
C868 C869 1.386 . S
C868 C870 1.391 . S
C869 C868 1.386 . S
C869 C873 1.393 . S
C870 H862 0.950 . S
C870 C868 1.391 . S
C870 C871 1.400 . S
C871 C870 1.400 . S
C871 C872 1.398 . S
C871 C877 1.491 . S
C872 H863 0.950 1_545 S
C872 C871 1.398 . S
C872 C873 1.391 . S
C873 H861 0.950 1_545 S
C873 C869 1.393 . S
C873 C872 1.391 . S
C874 H864 0.950 . S
C874 C875 1.386 1_565 S
C874 C876 1.391 . S
C875 C874 1.386 1_545 S
C875 C879 1.393 . S
C876 H865 0.950 . S
C876 C874 1.391 . S
C876 C877 1.400 1_565 S
C877 C871 1.491 . S
C877 C876 1.400 1_545 S
C877 C878 1.398 . S
C878 H866 0.950 . S
C878 C877 1.398 . S
C878 C879 1.391 . S
C879 H867 0.950 . S
C879 C875 1.393 . S
C879 C878 1.391 . S
H880 C888 0.950 . S
H881 C893 0.950 . S
H882 C890 0.950 . S
H883 C892 0.950 . S
H884 C894 0.950 . S
H885 C896 0.950 . S
H886 C898 0.950 . S
H887 C899 0.950 . S
C888 H880 0.950 . S
C888 C889 1.386 . S
C888 C890 1.391 . S
C889 C888 1.386 . S
C889 C893 1.393 . S
C890 H882 0.950 . S
C890 C888 1.391 . S
C890 C891 1.400 . S
C891 C890 1.400 . S
C891 C892 1.398 . S
C891 C897 1.491 . S
C892 H883 0.950 . S
C892 C891 1.398 . S
C892 C893 1.391 . S
C893 H881 0.950 . S
C893 C889 1.393 . S
C893 C892 1.391 . S
C894 H884 0.950 . S
C894 C895 1.386 . S
C894 C896 1.391 . S
C895 C894 1.386 . S
C895 C899 1.393 . S
C896 H885 0.950 . S
C896 C894 1.391 . S
C896 C897 1.400 . S
C897 C891 1.491 . S
C897 C896 1.400 . S
C897 C898 1.398 . S
C898 H886 0.950 . S
C898 C897 1.398 . S
C898 C899 1.391 . S
C899 H887 0.950 . S
C899 C895 1.393 . S
C899 C898 1.391 . S
H900 C908 0.950 1_565 S
H901 C913 0.950 . S
H902 C910 0.950 . S
H903 C912 0.950 . S
H904 C914 0.950 . S
H905 C916 0.950 . S
H906 C918 0.950 . S
H907 C919 0.950 . S
C908 H900 0.950 1_545 S
C908 C909 1.386 1_455 S
C908 C910 1.391 . S
C909 C908 1.386 1_655 S
C909 C913 1.393 . S
C910 H902 0.950 . S
C910 C908 1.391 . S
C910 C911 1.400 . S
C911 C910 1.400 . S
C911 C912 1.398 1_455 S
C911 C917 1.491 . S
C912 H903 0.950 . S
C912 C911 1.398 1_655 S
C912 C913 1.391 . S
C913 H901 0.950 . S
C913 C909 1.393 . S
C913 C912 1.391 . S
C914 H904 0.950 . S
C914 C915 1.386 . S
C914 C916 1.391 . S
C915 C914 1.386 . S
C915 C919 1.393 . S
C916 H905 0.950 . S
C916 C914 1.391 . S
C916 C917 1.400 . S
C917 C911 1.491 . S
C917 C916 1.400 . S
C917 C918 1.398 . S
C918 H906 0.950 . S
C918 C917 1.398 . S
C918 C919 1.391 . S
C919 H907 0.950 . S
C919 C915 1.393 . S
C919 C918 1.391 . S
H920 C928 0.950 . S
H921 C933 0.950 . S
H922 C930 0.950 . S
H923 C932 0.950 . S
H924 C934 0.950 . S
H925 C936 0.950 . S
H926 C938 0.950 . S
H927 C939 0.950 . S
C928 H920 0.950 . S
C928 C929 1.386 . S
C928 C930 1.391 . S
C929 C928 1.386 . S
C929 C933 1.393 . S
C930 H922 0.950 . S
C930 C928 1.391 . S
C930 C931 1.400 . S
C931 C930 1.400 . S
C931 C932 1.398 . S
C931 C937 1.491 . S
C932 H923 0.950 . S
C932 C931 1.398 . S
C932 C933 1.391 . S
C933 H921 0.950 . S
C933 C929 1.393 . S
C933 C932 1.391 . S
C934 H924 0.950 . S
C934 C935 1.386 . S
C934 C936 1.391 . S
C935 C934 1.386 . S
C935 C939 1.393 . S
C936 H925 0.950 . S
C936 C934 1.391 . S
C936 C937 1.400 . S
C937 C931 1.491 . S
C937 C936 1.400 . S
C937 C938 1.398 . S
C938 H926 0.950 . S
C938 C937 1.398 . S
C938 C939 1.391 . S
C939 H927 0.950 . S
C939 C935 1.393 . S
C939 C938 1.391 . S
H940 C948 0.950 . S
H941 C953 0.950 . S
H942 C950 0.950 . S
H943 C952 0.950 . S
H944 C954 0.950 . S
H945 C956 0.950 . S
H946 C958 0.950 . S
H947 C959 0.950 . S
C948 H940 0.950 . S
C948 C949 1.386 . S
C948 C950 1.391 . S
C949 C948 1.386 . S
C949 C953 1.393 . S
C950 H942 0.950 . S
C950 C948 1.391 . S
C950 C951 1.400 . S
C951 C950 1.400 . S
C951 C952 1.398 . S
C951 C957 1.491 . S
C952 H943 0.950 . S
C952 C951 1.398 . S
C952 C953 1.391 . S
C953 H941 0.950 . S
C953 C949 1.393 . S
C953 C952 1.391 . S
C954 H944 0.950 . S
C954 C955 1.386 . S
C954 C956 1.391 . S
C955 C954 1.386 . S
C955 C959 1.393 . S
C956 H945 0.950 . S
C956 C954 1.391 . S
C956 C957 1.400 . S
C957 C951 1.491 . S
C957 C956 1.400 . S
C957 C958 1.398 . S
C958 H946 0.950 . S
C958 C957 1.398 . S
C958 C959 1.391 . S
C959 H947 0.950 . S
C959 C955 1.393 . S
C959 C958 1.391 . S
H960 C968 0.950 . S
H961 C973 0.950 . S
H962 C970 0.950 . S
H963 C972 0.950 . S
H964 C974 0.950 . S
H965 C976 0.950 . S
H966 C978 0.950 . S
H967 C979 0.950 . S
C968 H960 0.950 . S
C968 C969 1.386 . S
C968 C970 1.391 . S
C969 C968 1.386 . S
C969 C973 1.393 . S
C970 H962 0.950 . S
C970 C968 1.391 . S
C970 C971 1.400 . S
C971 C970 1.400 . S
C971 C972 1.398 . S
C971 C977 1.491 . S
C972 H963 0.950 . S
C972 C971 1.398 . S
C972 C973 1.391 . S
C973 H961 0.950 . S
C973 C969 1.393 . S
C973 C972 1.391 . S
C974 H964 0.950 . S
C974 C975 1.386 . S
C974 C976 1.391 . S
C975 C974 1.386 . S
C975 C979 1.393 . S
C976 H965 0.950 . S
C976 C974 1.391 . S
C976 C977 1.400 . S
C977 C971 1.491 . S
C977 C976 1.400 . S
C977 C978 1.398 . S
C978 H966 0.950 . S
C978 C977 1.398 . S
C978 C979 1.391 . S
C979 H967 0.950 . S
C979 C975 1.393 . S
C979 C978 1.391 . S
H980 C988 0.950 . S
H981 C993 0.950 . S
H982 C990 0.950 . S
H983 C992 0.950 . S
H984 C994 0.950 . S
H985 C996 0.950 . S
H986 C998 0.950 . S
H987 C999 0.950 . S
C988 H980 0.950 . S
C988 C989 1.386 . S
C988 C990 1.391 . S
C989 C988 1.386 . S
C989 C993 1.393 . S
C990 H982 0.950 . S
C990 C988 1.391 . S
C990 C991 1.400 . S
C991 C990 1.400 . S
C991 C992 1.398 . S
C991 C997 1.491 . S
C992 H983 0.950 . S
C992 C991 1.398 . S
C992 C993 1.391 . S
C993 H981 0.950 . S
C993 C989 1.393 . S
C993 C992 1.391 . S
C994 H984 0.950 . S
C994 C995 1.386 . S
C994 C996 1.391 . S
C995 C994 1.386 . S
C995 C999 1.393 . S
C996 H985 0.950 . S
C996 C994 1.391 . S
C996 C997 1.400 . S
C997 C991 1.491 . S
C997 C996 1.400 . S
C997 C998 1.398 . S
C998 H986 0.950 . S
C998 C997 1.398 . S
C998 C999 1.391 . S
C999 H987 0.950 . S
C999 C995 1.393 . S
C999 C998 1.391 . S
H1000 C1008 0.950 . S
H1001 C1013 0.950 . S
H1002 C1010 0.950 . S
H1003 C1012 0.950 . S
H1004 C1014 0.950 . S
H1005 C1016 0.950 . S
H1006 C1018 0.950 . S
H1007 C1019 0.950 . S
C1008 H1000 0.950 . S
C1008 C1009 1.386 . S
C1008 C1010 1.391 . S
C1009 C1008 1.386 . S
C1009 C1013 1.393 . S
C1010 H1002 0.950 . S
C1010 C1008 1.391 . S
C1010 C1011 1.400 . S
C1011 C1010 1.400 . S
C1011 C1012 1.398 . S
C1011 C1017 1.491 . S
C1012 H1003 0.950 . S
C1012 C1011 1.398 . S
C1012 C1013 1.391 . S
C1013 H1001 0.950 . S
C1013 C1009 1.393 . S
C1013 C1012 1.391 . S
C1014 H1004 0.950 . S
C1014 C1015 1.386 . S
C1014 C1016 1.391 . S
C1015 C1014 1.386 . S
C1015 C1019 1.393 . S
C1016 H1005 0.950 . S
C1016 C1014 1.391 . S
C1016 C1017 1.400 . S
C1017 C1011 1.491 . S
C1017 C1016 1.400 . S
C1017 C1018 1.398 . S
C1018 H1006 0.950 . S
C1018 C1017 1.398 . S
C1018 C1019 1.391 . S
C1019 H1007 0.950 . S
C1019 C1015 1.393 . S
C1019 C1018 1.391 . S
H1020 C1028 0.950 . S
H1021 C1033 0.950 . S
H1022 C1030 0.950 . S
H1023 C1032 0.950 . S
H1024 C1034 0.950 . S
H1025 C1036 0.950 . S
H1026 C1038 0.950 . S
H1027 C1039 0.950 . S
C1028 H1020 0.950 . S
C1028 C1029 1.386 . S
C1028 C1030 1.391 . S
C1029 C1028 1.386 . S
C1029 C1033 1.393 . S
C1030 H1022 0.950 . S
C1030 C1028 1.391 . S
C1030 C1031 1.400 . S
C1031 C1030 1.400 . S
C1031 C1032 1.398 . S
C1031 C1037 1.491 . S
C1032 H1023 0.950 . S
C1032 C1031 1.398 . S
C1032 C1033 1.391 . S
C1033 H1021 0.950 . S
C1033 C1029 1.393 . S
C1033 C1032 1.391 . S
C1034 H1024 0.950 . S
C1034 C1035 1.386 . S
C1034 C1036 1.391 . S
C1035 C1034 1.386 . S
C1035 C1039 1.393 . S
C1036 H1025 0.950 . S
C1036 C1034 1.391 . S
C1036 C1037 1.400 . S
C1037 C1031 1.491 . S
C1037 C1036 1.400 . S
C1037 C1038 1.398 . S
C1038 H1026 0.950 . S
C1038 C1037 1.398 . S
C1038 C1039 1.391 . S
C1039 H1027 0.950 . S
C1039 C1035 1.393 . S
C1039 C1038 1.391 . S
H1040 C1048 0.950 . S
H1041 C1053 0.950 . S
H1042 C1050 0.950 . S
H1043 C1052 0.950 . S
H1044 C1054 0.950 . S
H1045 C1056 0.950 . S
H1046 C1058 0.950 . S
H1047 C1059 0.950 . S
C1048 H1040 0.950 . S
C1048 C1049 1.386 . S
C1048 C1050 1.391 . S
C1049 C1048 1.386 . S
C1049 C1053 1.393 . S
C1050 H1042 0.950 . S
C1050 C1048 1.391 . S
C1050 C1051 1.400 . S
C1051 C1050 1.400 . S
C1051 C1052 1.398 . S
C1051 C1057 1.491 . S
C1052 H1043 0.950 . S
C1052 C1051 1.398 . S
C1052 C1053 1.391 . S
C1053 H1041 0.950 . S
C1053 C1049 1.393 . S
C1053 C1052 1.391 . S
C1054 H1044 0.950 . S
C1054 C1055 1.386 . S
C1054 C1056 1.391 . S
C1055 C1054 1.386 . S
C1055 C1059 1.393 . S
C1056 H1045 0.950 . S
C1056 C1054 1.391 . S
C1056 C1057 1.400 . S
C1057 C1051 1.491 . S
C1057 C1056 1.400 . S
C1057 C1058 1.398 . S
C1058 H1046 0.950 . S
C1058 C1057 1.398 . S
C1058 C1059 1.391 . S
C1059 H1047 0.950 . S
C1059 C1055 1.393 . S
C1059 C1058 1.391 . S
H1060 C1068 0.950 . S
H1061 C1073 0.950 . S
H1062 C1070 0.950 . S
H1063 C1072 0.950 . S
H1064 C1074 0.950 . S
H1065 C1076 0.950 . S
H1066 C1078 0.950 . S
H1067 C1079 0.950 . S
C1068 H1060 0.950 . S
C1068 C1069 1.386 . S
C1068 C1070 1.391 . S
C1069 C1068 1.386 . S
C1069 C1073 1.393 . S
C1070 H1062 0.950 . S
C1070 C1068 1.391 . S
C1070 C1071 1.400 . S
C1071 C1070 1.400 . S
C1071 C1072 1.398 . S
C1071 C1077 1.491 . S
C1072 H1063 0.950 . S
C1072 C1071 1.398 . S
C1072 C1073 1.391 . S
C1073 H1061 0.950 . S
C1073 C1069 1.393 . S
C1073 C1072 1.391 . S
C1074 H1064 0.950 . S
C1074 C1075 1.386 . S
C1074 C1076 1.391 . S
C1075 C1074 1.386 . S
C1075 C1079 1.393 . S
C1076 H1065 0.950 . S
C1076 C1074 1.391 . S
C1076 C1077 1.400 . S
C1077 C1071 1.491 . S
C1077 C1076 1.400 . S
C1077 C1078 1.398 . S
C1078 H1066 0.950 . S
C1078 C1077 1.398 . S
C1078 C1079 1.391 . S
C1079 H1067 0.950 . S
C1079 C1075 1.393 . S
C1079 C1078 1.391 . S
H1080 C1088 0.950 . S
H1081 C1093 0.950 . S
H1082 C1090 0.950 . S
H1083 C1092 0.950 . S
H1084 C1094 0.950 . S
H1085 C1096 0.950 . S
H1086 C1098 0.950 . S
H1087 C1099 0.950 . S
C1088 H1080 0.950 . S
C1088 C1089 1.386 . S
C1088 C1090 1.391 . S
C1089 C1088 1.386 . S
C1089 C1093 1.393 . S
C1090 H1082 0.950 . S
C1090 C1088 1.391 . S
C1090 C1091 1.400 . S
C1091 C1090 1.400 . S
C1091 C1092 1.398 . S
C1091 C1097 1.491 . S
C1092 H1083 0.950 . S
C1092 C1091 1.398 . S
C1092 C1093 1.391 . S
C1093 H1081 0.950 . S
C1093 C1089 1.393 . S
C1093 C1092 1.391 . S
C1094 H1084 0.950 . S
C1094 C1095 1.386 . S
C1094 C1096 1.391 . S
C1095 C1094 1.386 . S
C1095 C1099 1.393 . S
C1096 H1085 0.950 . S
C1096 C1094 1.391 . S
C1096 C1097 1.400 . S
C1097 C1091 1.491 . S
C1097 C1096 1.400 . S
C1097 C1098 1.398 . S
C1098 H1086 0.950 . S
C1098 C1097 1.398 . S
C1098 C1099 1.391 . S
C1099 H1087 0.950 . S
C1099 C1095 1.393 . S
C1099 C1098 1.391 . S
H1100 C1108 0.950 . S
H1101 C1113 0.950 . S
H1102 C1110 0.950 . S
H1103 C1112 0.950 . S
H1104 C1114 0.950 . S
H1105 C1116 0.950 . S
H1106 C1118 0.950 . S
H1107 C1119 0.950 . S
C1108 H1100 0.950 . S
C1108 C1109 1.386 . S
C1108 C1110 1.391 . S
C1109 C1108 1.386 . S
C1109 C1113 1.393 . S
C1110 H1102 0.950 . S
C1110 C1108 1.391 . S
C1110 C1111 1.400 . S
C1111 C1110 1.400 . S
C1111 C1112 1.398 . S
C1111 C1117 1.491 . S
C1112 H1103 0.950 . S
C1112 C1111 1.398 . S
C1112 C1113 1.391 . S
C1113 H1101 0.950 . S
C1113 C1109 1.393 . S
C1113 C1112 1.391 . S
C1114 H1104 0.950 . S
C1114 C1115 1.386 . S
C1114 C1116 1.391 . S
C1115 C1114 1.386 . S
C1115 C1119 1.393 . S
C1116 H1105 0.950 . S
C1116 C1114 1.391 . S
C1116 C1117 1.400 . S
C1117 C1111 1.491 . S
C1117 C1116 1.400 . S
C1117 C1118 1.398 . S
C1118 H1106 0.950 . S
C1118 C1117 1.398 . S
C1118 C1119 1.391 . S
C1119 H1107 0.950 . S
C1119 C1115 1.393 . S
C1119 C1118 1.391 . S
H1120 C1128 0.950 . S
H1121 C1133 0.950 . S
H1122 C1130 0.950 . S
H1123 C1132 0.950 . S
H1124 C1134 0.950 . S
H1125 C1136 0.950 . S
H1126 C1138 0.950 . S
H1127 C1139 0.950 . S
C1128 H1120 0.950 . S
C1128 C1129 1.386 . S
C1128 C1130 1.391 . S
C1129 C1128 1.386 . S
C1129 C1133 1.393 . S
C1130 H1122 0.950 . S
C1130 C1128 1.391 . S
C1130 C1131 1.400 . S
C1131 C1130 1.400 . S
C1131 C1132 1.398 . S
C1131 C1137 1.491 . S
C1132 H1123 0.950 . S
C1132 C1131 1.398 . S
C1132 C1133 1.391 . S
C1133 H1121 0.950 . S
C1133 C1129 1.393 . S
C1133 C1132 1.391 . S
C1134 H1124 0.950 . S
C1134 C1135 1.386 . S
C1134 C1136 1.391 . S
C1135 C1134 1.386 . S
C1135 C1139 1.393 . S
C1136 H1125 0.950 . S
C1136 C1134 1.391 . S
C1136 C1137 1.400 . S
C1137 C1131 1.491 . S
C1137 C1136 1.400 . S
C1137 C1138 1.398 . S
C1138 H1126 0.950 . S
C1138 C1137 1.398 . S
C1138 C1139 1.391 . S
C1139 H1127 0.950 . S
C1139 C1135 1.393 . S
C1139 C1138 1.391 . S
H1140 C1148 0.950 . S
H1141 C1153 0.950 . S
H1142 C1150 0.950 . S
H1143 C1152 0.950 . S
H1144 C1154 0.950 . S
H1145 C1156 0.950 . S
H1146 C1158 0.950 . S
H1147 C1159 0.950 . S
C1148 H1140 0.950 . S
C1148 C1149 1.386 . S
C1148 C1150 1.391 . S
C1149 C1148 1.386 . S
C1149 C1153 1.393 . S
C1150 H1142 0.950 . S
C1150 C1148 1.391 . S
C1150 C1151 1.400 . S
C1151 C1150 1.400 . S
C1151 C1152 1.398 . S
C1151 C1157 1.491 . S
C1152 H1143 0.950 . S
C1152 C1151 1.398 . S
C1152 C1153 1.391 . S
C1153 H1141 0.950 . S
C1153 C1149 1.393 . S
C1153 C1152 1.391 . S
C1154 H1144 0.950 . S
C1154 C1155 1.386 . S
C1154 C1156 1.391 . S
C1155 C1154 1.386 . S
C1155 C1159 1.393 1_545 S
C1156 H1145 0.950 . S
C1156 C1154 1.391 . S
C1156 C1157 1.400 1_545 S
C1157 C1151 1.491 . S
C1157 C1156 1.400 1_565 S
C1157 C1158 1.398 . S
C1158 H1146 0.950 . S
C1158 C1157 1.398 . S
C1158 C1159 1.391 . S
C1159 H1147 0.950 . S
C1159 C1155 1.393 1_565 S
C1159 C1158 1.391 . S
H1160 C1168 0.950 . S
H1161 C1173 0.950 . S
H1162 C1170 0.950 . S
H1163 C1172 0.950 . S
H1164 C1174 0.950 . S
H1165 C1176 0.950 . S
H1166 C1178 0.950 . S
H1167 C1179 0.950 1_554 S
C1168 H1160 0.950 . S
C1168 C1169 1.386 . S
C1168 C1170 1.391 . S
C1169 C1168 1.386 . S
C1169 C1173 1.393 . S
C1170 H1162 0.950 . S
C1170 C1168 1.391 . S
C1170 C1171 1.400 . S
C1171 C1170 1.400 . S
C1171 C1172 1.398 . S
C1171 C1177 1.491 . S
C1172 H1163 0.950 . S
C1172 C1171 1.398 . S
C1172 C1173 1.391 . S
C1173 H1161 0.950 . S
C1173 C1169 1.393 . S
C1173 C1172 1.391 . S
C1174 H1164 0.950 . S
C1174 C1175 1.386 . S
C1174 C1176 1.391 . S
C1175 C1174 1.386 . S
C1175 C1179 1.393 . S
C1176 H1165 0.950 . S
C1176 C1174 1.391 . S
C1176 C1177 1.400 . S
C1177 C1171 1.491 . S
C1177 C1176 1.400 . S
C1177 C1178 1.398 . S
C1178 H1166 0.950 . S
C1178 C1177 1.398 . S
C1178 C1179 1.391 . S
C1179 H1167 0.950 1_556 S
C1179 C1175 1.393 . S
C1179 C1178 1.391 . S
H1180 C1188 0.950 . S
H1181 C1193 0.950 . S
H1182 C1190 0.950 . S
H1183 C1192 0.950 . S
H1184 C1194 0.950 . S
H1185 C1196 0.950 . S
H1186 C1198 0.950 1_565 S
H1187 C1199 0.950 . S
C1188 H1180 0.950 . S
C1188 C1189 1.386 . S
C1188 C1190 1.391 . S
C1189 C1188 1.386 . S
C1189 C1193 1.393 1_565 S
C1190 H1182 0.950 . S
C1190 C1188 1.391 . S
C1190 C1191 1.400 1_565 S
C1191 C1190 1.400 1_545 S
C1191 C1192 1.398 . S
C1191 C1197 1.491 . S
C1192 H1183 0.950 . S
C1192 C1191 1.398 . S
C1192 C1193 1.391 . S
C1193 H1181 0.950 . S
C1193 C1189 1.393 1_545 S
C1193 C1192 1.391 . S
C1194 H1184 0.950 . S
C1194 C1195 1.386 . S
C1194 C1196 1.391 . S
C1195 C1194 1.386 . S
C1195 C1199 1.393 . S
C1196 H1185 0.950 . S
C1196 C1194 1.391 . S
C1196 C1197 1.400 . S
C1197 C1191 1.491 . S
C1197 C1196 1.400 . S
C1197 C1198 1.398 . S
C1198 H1186 0.950 1_545 S
C1198 C1197 1.398 . S
C1198 C1199 1.391 . S
C1199 H1187 0.950 . S
C1199 C1195 1.393 . S
C1199 C1198 1.391 . S
H1200 C1208 0.950 . S
H1201 C1213 0.950 . S
H1202 C1210 0.950 . S
H1203 C1212 0.950 . S
H1204 C1214 0.950 . S
H1205 C1216 0.950 . S
H1206 C1218 0.950 . S
H1207 C1219 0.950 . S
C1208 H1200 0.950 . S
C1208 C1209 1.386 . S
C1208 C1210 1.391 . S
C1209 C1208 1.386 . S
C1209 C1213 1.393 . S
C1210 H1202 0.950 . S
C1210 C1208 1.391 . S
C1210 C1211 1.400 . S
C1211 C1210 1.400 . S
C1211 C1212 1.398 . S
C1211 C1217 1.491 . S
C1212 H1203 0.950 . S
C1212 C1211 1.398 . S
C1212 C1213 1.391 . S
C1213 H1201 0.950 . S
C1213 C1209 1.393 . S
C1213 C1212 1.391 . S
C1214 H1204 0.950 . S
C1214 C1215 1.386 . S
C1214 C1216 1.391 . S
C1215 C1214 1.386 . S
C1215 C1219 1.393 . S
C1216 H1205 0.950 . S
C1216 C1214 1.391 . S
C1216 C1217 1.400 . S
C1217 C1211 1.491 . S
C1217 C1216 1.400 . S
C1217 C1218 1.398 . S
C1218 H1206 0.950 . S
C1218 C1217 1.398 . S
C1218 C1219 1.391 . S
C1219 H1207 0.950 . S
C1219 C1215 1.393 . S
C1219 C1218 1.391 . S
H1220 C1228 0.950 . S
H1221 C1233 0.950 . S
H1222 C1230 0.950 . S
H1223 C1232 0.950 . S
H1224 C1234 0.950 . S
H1225 C1236 0.950 . S
H1226 C1238 0.950 . S
H1227 C1239 0.950 . S
C1228 H1220 0.950 . S
C1228 C1229 1.386 . S
C1228 C1230 1.391 . S
C1229 C1228 1.386 . S
C1229 C1233 1.393 . S
C1230 H1222 0.950 . S
C1230 C1228 1.391 . S
C1230 C1231 1.400 . S
C1231 C1230 1.400 . S
C1231 C1232 1.398 . S
C1231 C1237 1.491 . S
C1232 H1223 0.950 . S
C1232 C1231 1.398 . S
C1232 C1233 1.391 . S
C1233 H1221 0.950 . S
C1233 C1229 1.393 . S
C1233 C1232 1.391 . S
C1234 H1224 0.950 . S
C1234 C1235 1.386 1_545 S
C1234 C1236 1.391 . S
C1235 C1234 1.386 1_565 S
C1235 C1239 1.393 . S
C1236 H1225 0.950 . S
C1236 C1234 1.391 . S
C1236 C1237 1.400 . S
C1237 C1231 1.491 . S
C1237 C1236 1.400 . S
C1237 C1238 1.398 . S
C1238 H1226 0.950 . S
C1238 C1237 1.398 . S
C1238 C1239 1.391 1_545 S
C1239 H1227 0.950 . S
C1239 C1235 1.393 . S
C1239 C1238 1.391 1_565 S
H1240 C1248 0.950 . S
H1241 C1253 0.950 . S
H1242 C1250 0.950 . S
H1243 C1252 0.950 . S
H1244 C1254 0.950 . S
H1245 C1256 0.950 . S
H1246 C1258 0.950 . S
H1247 C1259 0.950 . S
C1248 H1240 0.950 . S
C1248 C1249 1.386 . S
C1248 C1250 1.391 . S
C1249 C1248 1.386 . S
C1249 C1253 1.393 . S
C1250 H1242 0.950 . S
C1250 C1248 1.391 . S
C1250 C1251 1.400 . S
C1251 C1250 1.400 . S
C1251 C1252 1.398 . S
C1251 C1257 1.491 . S
C1252 H1243 0.950 . S
C1252 C1251 1.398 . S
C1252 C1253 1.391 . S
C1253 H1241 0.950 . S
C1253 C1249 1.393 . S
C1253 C1252 1.391 . S
C1254 H1244 0.950 . S
C1254 C1255 1.386 . S
C1254 C1256 1.391 . S
C1255 C1254 1.386 . S
C1255 C1259 1.393 . S
C1256 H1245 0.950 . S
C1256 C1254 1.391 . S
C1256 C1257 1.400 . S
C1257 C1251 1.491 . S
C1257 C1256 1.400 . S
C1257 C1258 1.398 . S
C1258 H1246 0.950 . S
C1258 C1257 1.398 . S
C1258 C1259 1.391 . S
C1259 H1247 0.950 . S
C1259 C1255 1.393 . S
C1259 C1258 1.391 . S
H1260 C1268 0.950 . S
H1261 C1273 0.950 . S
H1262 C1270 0.950 . S
H1263 C1272 0.950 . S
H1264 C1274 0.950 . S
H1265 C1276 0.950 . S
H1266 C1278 0.950 . S
H1267 C1279 0.950 . S
C1268 H1260 0.950 . S
C1268 C1269 1.386 . S
C1268 C1270 1.391 . S
C1269 C1268 1.386 . S
C1269 C1273 1.393 . S
C1270 H1262 0.950 . S
C1270 C1268 1.391 . S
C1270 C1271 1.400 . S
C1271 C1270 1.400 . S
C1271 C1272 1.398 . S
C1271 C1277 1.491 . S
C1272 H1263 0.950 . S
C1272 C1271 1.398 . S
C1272 C1273 1.391 . S
C1273 H1261 0.950 . S
C1273 C1269 1.393 . S
C1273 C1272 1.391 . S
C1274 H1264 0.950 . S
C1274 C1275 1.386 . S
C1274 C1276 1.391 . S
C1275 C1274 1.386 . S
C1275 C1279 1.393 1_545 S
C1276 H1265 0.950 . S
C1276 C1274 1.391 . S
C1276 C1277 1.400 1_545 S
C1277 C1271 1.491 . S
C1277 C1276 1.400 1_565 S
C1277 C1278 1.398 . S
C1278 H1266 0.950 . S
C1278 C1277 1.398 . S
C1278 C1279 1.391 . S
C1279 H1267 0.950 . S
C1279 C1275 1.393 1_565 S
C1279 C1278 1.391 . S
C329 C1 0.462 . S
C335 C201 0.518 . S
C349 C21 0.490 . S
C355 C221 0.440 . S
C369 C41 0.458 . S
C375 C161 0.455 . S
C389 C181 0.460 . S
C395 C61 0.517 . S
C409 C89 0.445 . S
C415 C289 0.473 . S
C429 C309 0.497 . S
C435 C109 0.509 . S
C449 C249 0.518 . S
C455 C129 0.468 . S
C469 C149 0.443 . S
C475 C269 0.478 . S
C489 C19 2.340 . S
C495 C88 2.340 . S
C509 C39 2.341 . S
C515 C268 2.341 . S
C529 C59 2.335 . S
C535 C128 2.335 . S
C549 C79 2.346 . S
C555 C308 2.346 . S
C569 C108 2.346 . S
C575 C199 2.346 . S
C589 C239 2.340 . S
C595 C148 2.340 . S
C609 C248 2.341 . S
C615 C179 2.341 . S
C629 C219 2.329 . S
C635 C288 2.329 . S
C649 C8 1.294 . S
C655 C141 1.366 . S
C669 C28 1.254 . S
C675 C241 1.373 . S
C689 C48 1.284 . S
C695 C101 1.372 . S
C709 C68 1.259 . S
C715 C281 1.370 . S
C729 C69 1.366 . S
C735 C99 1.294 . S
C749 C119 1.294 . S
C755 C169 1.367 . S
C769 C139 1.257 . S
C775 C29 1.375 . S
C789 C209 1.372 . S
C795 C159 1.256 . S
C809 C168 1.295 . S
C815 C301 1.367 . S
C829 C81 1.368 . S
C835 C188 1.267 1_565 S
C849 C261 1.369 . S
C855 C208 1.264 . S
C869 C121 1.366 . S
C875 C228 1.294 1_545 S
C889 C259 1.257 . S
C895 C229 1.375 . S
C909 C279 1.276 1_545 S
C915 C9 1.367 . S
C929 C189 1.371 . S
C935 C299 1.257 . S
C949 C319 1.272 1_565 S
C955 C49 1.367 . S
C969 C6 1.652 1_556 S
C975 C196 1.596 . S
C989 C216 1.606 . S
C995 C26 1.653 . S
C1009 C46 1.664 . S
C1015 C236 1.606 . S
C1029 C176 1.615 . S
C1035 C66 1.659 . S
C1049 C266 1.600 . S
C1055 C96 1.659 1_554 S
C1069 C286 1.599 . S
C1075 C116 1.651 . S
C1089 C306 1.597 . S
C1095 C136 1.651 . S
C1109 C246 1.607 . S
C1115 C156 1.654 . S
C1129 C36 1.626 . S
C1135 C166 1.673 . S
C1149 C56 1.622 . S
C1155 C186 1.665 . S
C1169 C76 1.604 . S
C1175 C206 1.653 1_556 S
C1189 C226 1.660 . S
C1195 C16 1.601 . S
C1209 C106 1.603 . S
C1215 C256 1.662 . S
C1229 C126 1.626 . S
C1235 C276 1.674 . S
C1249 C146 1.600 . S
C1255 C296 1.659 1_554 S
C1269 C86 1.615 . S
C1275 C316 1.671 . S
