# Generated by pormake.
# Topology wiq, (6)-cn, num edge types: 1
# Building blocks:
#     Node 0, Type 0, BuildingBlock: IZENUY_clean_sbu_0, # of connection points: 6
#     Node 1, Type 0, BuildingBlock: IZENUY_clean_sbu_0, # of connection points: 6
#     Node 2, Type 0, BuildingBlock: IZENUY_clean_sbu_0, # of connection points: 6
#     Node 3, Type 0, BuildingBlock: IZENUY_clean_sbu_0, # of connection points: 6
#     Node 4, Type 0, BuildingBlock: IZENUY_clean_sbu_0, # of connection points: 6
#     Node 5, Type 0, BuildingBlock: IZENUY_clean_sbu_0, # of connection points: 6
#     Node 6, Type 0, BuildingBlock: IZENUY_clean_sbu_0, # of connection points: 6
#     Node 7, Type 0, BuildingBlock: IZENUY_clean_sbu_0, # of connection points: 6
#     Node 8, Type 0, BuildingBlock: IZENUY_clean_sbu_0, # of connection points: 6
#     Node 9, Type 0, BuildingBlock: IZENUY_clean_sbu_0, # of connection points: 6
#     Node 10, Type 0, BuildingBlock: IZENUY_clean_sbu_0, # of connection points: 6
#     Node 11, Type 0, BuildingBlock: IZENUY_clean_sbu_0, # of connection points: 6
#     Node 12, Type 0, BuildingBlock: IZENUY_clean_sbu_0, # of connection points: 6
#     Node 13, Type 0, BuildingBlock: IZENUY_clean_sbu_0, # of connection points: 6
#     Node 14, Type 0, BuildingBlock: IZENUY_clean_sbu_0, # of connection points: 6
#     Node 15, Type 0, BuildingBlock: IZENUY_clean_sbu_0, # of connection points: 6
#     Node 16, Type 0, BuildingBlock: IZENUY_clean_sbu_0, # of connection points: 6
#     Node 17, Type 0, BuildingBlock: IZENUY_clean_sbu_0, # of connection points: 6
#     Node 18, Type 0, BuildingBlock: IZENUY_clean_sbu_0, # of connection points: 6
#     Node 19, Type 0, BuildingBlock: IZENUY_clean_sbu_0, # of connection points: 6
#     Node 20, Type 0, BuildingBlock: IZENUY_clean_sbu_0, # of connection points: 6
#     Node 21, Type 0, BuildingBlock: IZENUY_clean_sbu_0, # of connection points: 6
#     Node 22, Type 0, BuildingBlock: IZENUY_clean_sbu_0, # of connection points: 6
#     Node 23, Type 0, BuildingBlock: IZENUY_clean_sbu_0, # of connection points: 6
#     Node 24, Type 0, BuildingBlock: IZENUY_clean_sbu_0, # of connection points: 6
#     Node 25, Type 0, BuildingBlock: IZENUY_clean_sbu_0, # of connection points: 6
#     Node 26, Type 0, BuildingBlock: IZENUY_clean_sbu_0, # of connection points: 6
#     Node 27, Type 0, BuildingBlock: IZENUY_clean_sbu_0, # of connection points: 6
#     Node 28, Type 0, BuildingBlock: IZENUY_clean_sbu_0, # of connection points: 6
#     Node 29, Type 0, BuildingBlock: IZENUY_clean_sbu_0, # of connection points: 6
#     Node 30, Type 0, BuildingBlock: IZENUY_clean_sbu_0, # of connection points: 6
#     Node 31, Type 0, BuildingBlock: IZENUY_clean_sbu_0, # of connection points: 6
#     Edge 32, Type (0, 0), BuildingBlock: CIFDUS_clean_linker_0, # of connection points: 2
#     Edge 33, Type (0, 0), BuildingBlock: CIFDUS_clean_linker_0, # of connection points: 2
#     Edge 34, Type (0, 0), BuildingBlock: CIFDUS_clean_linker_0, # of connection points: 2
#     Edge 35, Type (0, 0), BuildingBlock: CIFDUS_clean_linker_0, # of connection points: 2
#     Edge 36, Type (0, 0), BuildingBlock: CIFDUS_clean_linker_0, # of connection points: 2
#     Edge 37, Type (0, 0), BuildingBlock: CIFDUS_clean_linker_0, # of connection points: 2
#     Edge 38, Type (0, 0), BuildingBlock: CIFDUS_clean_linker_0, # of connection points: 2
#     Edge 39, Type (0, 0), BuildingBlock: CIFDUS_clean_linker_0, # of connection points: 2
#     Edge 40, Type (0, 0), BuildingBlock: CIFDUS_clean_linker_0, # of connection points: 2
#     Edge 41, Type (0, 0), BuildingBlock: CIFDUS_clean_linker_0, # of connection points: 2
#     Edge 42, Type (0, 0), BuildingBlock: CIFDUS_clean_linker_0, # of connection points: 2
#     Edge 43, Type (0, 0), BuildingBlock: CIFDUS_clean_linker_0, # of connection points: 2
#     Edge 44, Type (0, 0), BuildingBlock: CIFDUS_clean_linker_0, # of connection points: 2
#     Edge 45, Type (0, 0), BuildingBlock: CIFDUS_clean_linker_0, # of connection points: 2
#     Edge 46, Type (0, 0), BuildingBlock: CIFDUS_clean_linker_0, # of connection points: 2
#     Edge 47, Type (0, 0), BuildingBlock: CIFDUS_clean_linker_0, # of connection points: 2
#     Edge 48, Type (0, 0), BuildingBlock: CIFDUS_clean_linker_0, # of connection points: 2
#     Edge 49, Type (0, 0), BuildingBlock: CIFDUS_clean_linker_0, # of connection points: 2
#     Edge 50, Type (0, 0), BuildingBlock: CIFDUS_clean_linker_0, # of connection points: 2
#     Edge 51, Type (0, 0), BuildingBlock: CIFDUS_clean_linker_0, # of connection points: 2
#     Edge 52, Type (0, 0), BuildingBlock: CIFDUS_clean_linker_0, # of connection points: 2
#     Edge 53, Type (0, 0), BuildingBlock: CIFDUS_clean_linker_0, # of connection points: 2
#     Edge 54, Type (0, 0), BuildingBlock: CIFDUS_clean_linker_0, # of connection points: 2
#     Edge 55, Type (0, 0), BuildingBlock: CIFDUS_clean_linker_0, # of connection points: 2
#     Edge 56, Type (0, 0), BuildingBlock: CIFDUS_clean_linker_0, # of connection points: 2
#     Edge 57, Type (0, 0), BuildingBlock: CIFDUS_clean_linker_0, # of connection points: 2
#     Edge 58, Type (0, 0), BuildingBlock: CIFDUS_clean_linker_0, # of connection points: 2
#     Edge 59, Type (0, 0), BuildingBlock: CIFDUS_clean_linker_0, # of connection points: 2
#     Edge 60, Type (0, 0), BuildingBlock: CIFDUS_clean_linker_0, # of connection points: 2
#     Edge 61, Type (0, 0), BuildingBlock: CIFDUS_clean_linker_0, # of connection points: 2
#     Edge 62, Type (0, 0), BuildingBlock: CIFDUS_clean_linker_0, # of connection points: 2
#     Edge 63, Type (0, 0), BuildingBlock: CIFDUS_clean_linker_0, # of connection points: 2
#     Edge 64, Type (0, 0), BuildingBlock: CIFDUS_clean_linker_0, # of connection points: 2
#     Edge 65, Type (0, 0), BuildingBlock: CIFDUS_clean_linker_0, # of connection points: 2
#     Edge 66, Type (0, 0), BuildingBlock: CIFDUS_clean_linker_0, # of connection points: 2
#     Edge 67, Type (0, 0), BuildingBlock: CIFDUS_clean_linker_0, # of connection points: 2
#     Edge 68, Type (0, 0), BuildingBlock: CIFDUS_clean_linker_0, # of connection points: 2
#     Edge 69, Type (0, 0), BuildingBlock: CIFDUS_clean_linker_0, # of connection points: 2
#     Edge 70, Type (0, 0), BuildingBlock: CIFDUS_clean_linker_0, # of connection points: 2
#     Edge 71, Type (0, 0), BuildingBlock: CIFDUS_clean_linker_0, # of connection points: 2
#     Edge 72, Type (0, 0), BuildingBlock: CIFDUS_clean_linker_0, # of connection points: 2
#     Edge 73, Type (0, 0), BuildingBlock: CIFDUS_clean_linker_0, # of connection points: 2
#     Edge 74, Type (0, 0), BuildingBlock: CIFDUS_clean_linker_0, # of connection points: 2
#     Edge 75, Type (0, 0), BuildingBlock: CIFDUS_clean_linker_0, # of connection points: 2
#     Edge 76, Type (0, 0), BuildingBlock: CIFDUS_clean_linker_0, # of connection points: 2
#     Edge 77, Type (0, 0), BuildingBlock: CIFDUS_clean_linker_0, # of connection points: 2
#     Edge 78, Type (0, 0), BuildingBlock: CIFDUS_clean_linker_0, # of connection points: 2
#     Edge 79, Type (0, 0), BuildingBlock: CIFDUS_clean_linker_0, # of connection points: 2
#     Edge 80, Type (0, 0), BuildingBlock: CIFDUS_clean_linker_0, # of connection points: 2
#     Edge 81, Type (0, 0), BuildingBlock: CIFDUS_clean_linker_0, # of connection points: 2
#     Edge 82, Type (0, 0), BuildingBlock: CIFDUS_clean_linker_0, # of connection points: 2
#     Edge 83, Type (0, 0), BuildingBlock: CIFDUS_clean_linker_0, # of connection points: 2
#     Edge 84, Type (0, 0), BuildingBlock: CIFDUS_clean_linker_0, # of connection points: 2
#     Edge 85, Type (0, 0), BuildingBlock: CIFDUS_clean_linker_0, # of connection points: 2
#     Edge 86, Type (0, 0), BuildingBlock: CIFDUS_clean_linker_0, # of connection points: 2
#     Edge 87, Type (0, 0), BuildingBlock: CIFDUS_clean_linker_0, # of connection points: 2
#     Edge 88, Type (0, 0), BuildingBlock: CIFDUS_clean_linker_0, # of connection points: 2
#     Edge 89, Type (0, 0), BuildingBlock: CIFDUS_clean_linker_0, # of connection points: 2
#     Edge 90, Type (0, 0), BuildingBlock: CIFDUS_clean_linker_0, # of connection points: 2
#     Edge 91, Type (0, 0), BuildingBlock: CIFDUS_clean_linker_0, # of connection points: 2
#     Edge 92, Type (0, 0), BuildingBlock: CIFDUS_clean_linker_0, # of connection points: 2
#     Edge 93, Type (0, 0), BuildingBlock: CIFDUS_clean_linker_0, # of connection points: 2
#     Edge 94, Type (0, 0), BuildingBlock: CIFDUS_clean_linker_0, # of connection points: 2
#     Edge 95, Type (0, 0), BuildingBlock: CIFDUS_clean_linker_0, # of connection points: 2
#     Edge 96, Type (0, 0), BuildingBlock: CIFDUS_clean_linker_0, # of connection points: 2
#     Edge 97, Type (0, 0), BuildingBlock: CIFDUS_clean_linker_0, # of connection points: 2
#     Edge 98, Type (0, 0), BuildingBlock: CIFDUS_clean_linker_0, # of connection points: 2
#     Edge 99, Type (0, 0), BuildingBlock: CIFDUS_clean_linker_0, # of connection points: 2
#     Edge 100, Type (0, 0), BuildingBlock: CIFDUS_clean_linker_0, # of connection points: 2
#     Edge 101, Type (0, 0), BuildingBlock: CIFDUS_clean_linker_0, # of connection points: 2
#     Edge 102, Type (0, 0), BuildingBlock: CIFDUS_clean_linker_0, # of connection points: 2
#     Edge 103, Type (0, 0), BuildingBlock: CIFDUS_clean_linker_0, # of connection points: 2
#     Edge 104, Type (0, 0), BuildingBlock: CIFDUS_clean_linker_0, # of connection points: 2
#     Edge 105, Type (0, 0), BuildingBlock: CIFDUS_clean_linker_0, # of connection points: 2
#     Edge 106, Type (0, 0), BuildingBlock: CIFDUS_clean_linker_0, # of connection points: 2
#     Edge 107, Type (0, 0), BuildingBlock: CIFDUS_clean_linker_0, # of connection points: 2
#     Edge 108, Type (0, 0), BuildingBlock: CIFDUS_clean_linker_0, # of connection points: 2
#     Edge 109, Type (0, 0), BuildingBlock: CIFDUS_clean_linker_0, # of connection points: 2
#     Edge 110, Type (0, 0), BuildingBlock: CIFDUS_clean_linker_0, # of connection points: 2
#     Edge 111, Type (0, 0), BuildingBlock: CIFDUS_clean_linker_0, # of connection points: 2
#     Edge 112, Type (0, 0), BuildingBlock: CIFDUS_clean_linker_0, # of connection points: 2
#     Edge 113, Type (0, 0), BuildingBlock: CIFDUS_clean_linker_0, # of connection points: 2
#     Edge 114, Type (0, 0), BuildingBlock: CIFDUS_clean_linker_0, # of connection points: 2
#     Edge 115, Type (0, 0), BuildingBlock: CIFDUS_clean_linker_0, # of connection points: 2
#     Edge 116, Type (0, 0), BuildingBlock: CIFDUS_clean_linker_0, # of connection points: 2
#     Edge 117, Type (0, 0), BuildingBlock: CIFDUS_clean_linker_0, # of connection points: 2
#     Edge 118, Type (0, 0), BuildingBlock: CIFDUS_clean_linker_0, # of connection points: 2
#     Edge 119, Type (0, 0), BuildingBlock: CIFDUS_clean_linker_0, # of connection points: 2
#     Edge 120, Type (0, 0), BuildingBlock: CIFDUS_clean_linker_0, # of connection points: 2
#     Edge 121, Type (0, 0), BuildingBlock: CIFDUS_clean_linker_0, # of connection points: 2
#     Edge 122, Type (0, 0), BuildingBlock: CIFDUS_clean_linker_0, # of connection points: 2
#     Edge 123, Type (0, 0), BuildingBlock: CIFDUS_clean_linker_0, # of connection points: 2
#     Edge 124, Type (0, 0), BuildingBlock: CIFDUS_clean_linker_0, # of connection points: 2
#     Edge 125, Type (0, 0), BuildingBlock: CIFDUS_clean_linker_0, # of connection points: 2
#     Edge 126, Type (0, 0), BuildingBlock: CIFDUS_clean_linker_0, # of connection points: 2
#     Edge 127, Type (0, 0), BuildingBlock: CIFDUS_clean_linker_0, # of connection points: 2
# Relax obj value: 0.285
# Max RMSD: 0.209
# Mean RMSD: 0.209
data_MOF--net-wiq--node1-IZENUY_clean_sbu_0--edge1-CIFDUS_clean_linker_0
_symmetry_space_group_name_H-M    P1
_symmetry_Int_Tables_number       1
_symmetry_cell_setting            triclinic
loop_
_symmetry_equiv_pos_as_xyz
'x, y, z'
_cell_length_a     42.854508
_cell_length_b     42.916949
_cell_length_c     46.679078
_cell_angle_alpha  90.051877
_cell_angle_beta   89.845737
_cell_angle_gamma 90.003576
loop_
_atom_site_label
_atom_site_type_symbol
_atom_site_fract_x
_atom_site_fract_y
_atom_site_fract_z
_atom_type_partial_charge
Fe0 Fe 0.16478 0.16075 0.3065 0.0
Fe1 Fe 0.14492 0.20452 0.25793 0.0
O2 O 0.13996 0.16937 0.27707 0.0
Fe3 Fe 0.11015 0.14294 0.26678 0.0
O4 O 0.09183 0.14612 0.30158 0.0
O5 O 0.13431 0.13902 0.32707 0.0
O6 O 0.15198 0.19561 0.32588 0.0
C7 C 0.15253 0.22304 0.31589 0.0
C8 C 0.16091 0.10308 0.27982 0.0
O9 O 0.1567 0.22764 0.28933 0.0
C10 C 0.13255 0.16042 0.21435 0.0
O11 O 0.19921 0.1828 0.29192 0.0
O12 O 0.18432 0.19421 0.24852 0.0
O13 O 0.13193 0.10799 0.27721 0.0
O14 O 0.17888 0.1246 0.28891 0.0
C15 C 0.08165 0.20189 0.26019 0.0
O16 O 0.13368 0.18822 0.22325 0.0
O17 O 0.12639 0.13819 0.23109 0.0
C18 C 0.20545 0.19312 0.26693 0.0
O19 O 0.10596 0.21691 0.26597 0.0
O20 O 0.08275 0.17306 0.25457 0.0
C21 C 0.10463 0.14047 0.3253 0.0
Fe22 Fe 0.11823 0.92257 0.55688 0.0
Fe23 Fe 0.07821 0.89949 0.50691 0.0
O24 O 0.1116 0.89565 0.52863 0.0
Fe25 Fe 0.13867 0.86515 0.52212 0.0
O26 O 0.13228 0.84969 0.55739 0.0
O27 O 0.13871 0.89385 0.58042 0.0
O28 O 0.08232 0.91098 0.57503 0.0
C29 C 0.05554 0.91063 0.56355 0.0
C30 C 0.17719 0.91704 0.53324 0.0
O31 O 0.05259 0.91275 0.53651 0.0
C32 C 0.12608 0.88271 0.46726 0.0
O33 O 0.09685 0.95561 0.53961 0.0
O34 O 0.0894 0.9383 0.49639 0.0
O35 O 0.17289 0.88784 0.53365 0.0
O36 O 0.15495 0.9355 0.53957 0.0
C37 C 0.08018 0.83653 0.51301 0.0
O38 O 0.09757 0.88607 0.47394 0.0
O39 O 0.1466 0.87834 0.48609 0.0
C40 C 0.08824 0.96034 0.51391 0.0
O41 O 0.06501 0.8613 0.51588 0.0
O42 O 0.10947 0.83687 0.50959 0.0
C43 C 0.13664 0.86416 0.58046 0.0
Fe44 Fe 0.38821 0.82627 0.76575 0.0
Fe45 Fe 0.42431 0.88763 0.76601 0.0
O46 O 0.39509 0.86337 0.78082 0.0
Fe47 Fe 0.3726 0.87608 0.81067 0.0
O48 O 0.38654 0.84391 0.83206 0.0
O49 O 0.37816 0.80708 0.80029 0.0
O50 O 0.42722 0.81387 0.77255 0.0
C51 C 0.45125 0.82751 0.76369 0.0
C52 C 0.32926 0.83868 0.77752 0.0
O53 O 0.45026 0.8555 0.75514 0.0
C54 C 0.37554 0.93036 0.7793 0.0
O55 O 0.39741 0.83801 0.72883 0.0
O56 O 0.40542 0.88853 0.73142 0.0
O57 O 0.3367 0.8529 0.80062 0.0
O58 O 0.34893 0.8372 0.75785 0.0
C59 C 0.43443 0.89686 0.82326 0.0
O60 O 0.40397 0.92414 0.77449 0.0
O61 O 0.35777 0.91024 0.79097 0.0
C62 C 0.39855 0.86459 0.71712 0.0
O63 O 0.44509 0.88807 0.79942 0.0
O64 O 0.405 0.89924 0.82714 0.0
C65 C 0.38438 0.8154 0.82577 0.0
Fe66 Fe 0.39115 0.16888 0.02562 0.0
Fe67 Fe 0.40912 0.11171 0.06141 0.0
O68 O 0.4168 0.13755 0.03247 0.0
Fe69 Fe 0.44998 0.1319 0.01063 0.0
O70 O 0.46498 0.16991 0.01844 0.0
O71 O 0.4214 0.19581 0.01244 0.0
O72 O 0.3982 0.18463 0.06059 0.0
C73 C 0.3918 0.17093 0.08364 0.0
C74 C 0.40266 0.14958 0.97118 0.0
O75 O 0.38915 0.14139 0.08419 0.0
C76 C 0.43784 0.07177 0.01939 0.0
O77 O 0.35626 0.14765 0.03753 0.0
O78 O 0.37186 0.09939 0.04499 0.0
O79 O 0.43104 0.1451 0.97755 0.0
O80 O 0.38254 0.15527 0.99009 0.0
C81 C 0.47207 0.12246 0.06725 0.0
O82 O 0.42945 0.0776 0.04498 0.0
O83 O 0.43709 0.09324 1.00127 0.0
C84 C 0.3505 0.11869 0.03831 0.0
O85 O 0.44533 0.12308 0.07893 0.0
O86 O 0.47498 0.11859 0.04038 0.0
C87 C 0.45077 0.19519 0.01526 0.0
Fe88 Fe 0.11579 0.88542 0.24411 0.0
Fe89 Fe 0.17109 0.86787 0.20511 0.0
O90 O 0.14653 0.85954 0.23497 0.0
Fe91 Fe 0.15263 0.82542 0.25553 0.0
O92 O 0.11398 0.81156 0.2487 0.0
O93 O 0.08909 0.85519 0.25739 0.0
O94 O 0.0979 0.88007 0.20963 0.0
C95 C 0.11044 0.8856 0.18578 0.0
C96 C 0.13735 0.8715 0.29745 0.0
O97 O 0.14006 0.88803 0.18389 0.0
C98 C 0.21263 0.83626 0.24457 0.0
O99 O 0.13667 0.9206 0.23269 0.0
O100 O 0.18417 0.90486 0.2217 0.0
O101 O 0.14122 0.84335 0.28992 0.0
O102 O 0.13139 0.89233 0.27933 0.0
C103 C 0.16064 0.80487 0.19783 0.0
O104 O 0.20611 0.84728 0.21991 0.0
O105 O 0.19204 0.83678 0.26368 0.0
C106 C 0.16562 0.92602 0.23056 0.0
O107 O 0.15933 0.83196 0.18705 0.0
O108 O 0.16436 0.80116 0.2246 0.0
C109 C 0.0891 0.82606 0.25336 0.0
Fe110 Fe 0.39868 0.86222 0.49749 0.0
Fe111 Fe 0.41089 0.91913 0.45904 0.0
O112 O 0.42342 0.89298 0.48619 0.0
Fe113 Fe 0.46045 0.89754 0.50222 0.0
O114 O 0.47246 0.85907 0.49189 0.0
O115 O 0.43025 0.83525 0.50676 0.0
O116 O 0.39927 0.84554 0.46208 0.0
C117 C 0.39106 0.85933 0.43948 0.0
C118 C 0.42055 0.88314 0.54888 0.0
O119 O 0.38811 0.88896 0.43913 0.0
C120 C 0.44785 0.95821 0.49648 0.0
O121 O 0.36228 0.88313 0.49035 0.0
O122 O 0.3766 0.9312 0.48087 0.0
O123 O 0.44756 0.88485 0.53788 0.0
O124 O 0.39694 0.87719 0.53376 0.0
C125 C 0.47222 0.90875 0.44309 0.0
O126 O 0.43354 0.95331 0.47296 0.0
O127 O 0.45094 0.93628 0.51385 0.0
C128 C 0.35653 0.91201 0.49061 0.0
O129 O 0.44371 0.90856 0.43598 0.0
O130 O 0.48008 0.91085 0.46921 0.0
C131 C 0.45844 0.83455 0.4988 0.0
Fe132 Fe 0.3734 0.20877 0.76122 0.0
Fe133 Fe 0.41631 0.15321 0.74965 0.0
O134 O 0.38383 0.17622 0.74015 0.0
Fe135 Fe 0.36136 0.1664 0.70944 0.0
O136 O 0.37154 0.20293 0.69257 0.0
O137 O 0.36089 0.23253 0.73005 0.0
O138 O 0.41041 0.22698 0.75631 0.0
C139 C 0.43636 0.21498 0.76166 0.0
C140 C 0.31549 0.19212 0.74843 0.0
O141 O 0.4395 0.18575 0.76429 0.0
C142 C 0.37032 0.10894 0.73417 0.0
O143 O 0.38517 0.19119 0.79553 0.0
O144 O 0.4001 0.14379 0.78399 0.0
O145 O 0.32407 0.18449 0.72319 0.0
O146 O 0.33547 0.19234 0.76783 0.0
C147 C 0.42384 0.15499 0.69181 0.0
O148 O 0.3988 0.11656 0.73691 0.0
O149 O 0.3504 0.12864 0.72523 0.0
C150 C 0.39148 0.16332 0.8024 0.0
O151 O 0.43476 0.1614 0.71602 0.0
O152 O 0.39488 0.14872 0.68908 0.0
C153 C 0.36707 0.22955 0.70346 0.0
Fe154 Fe 0.12098 0.1103 0.95501 0.0
Fe155 Fe 0.07057 0.12929 0.99859 0.0
O156 O 0.10808 0.13456 0.98354 0.0
Fe157 Fe 0.13262 0.16428 0.99706 0.0
O158 O 0.13313 0.18332 0.9627 0.0
O159 O 0.14418 0.14167 0.93713 0.0
O160 O 0.08893 0.12272 0.93257 0.0
C161 C 0.0603 0.12132 0.93883 0.0
C162 C 0.17483 0.11463 0.98701 0.0
O163 O 0.05163 0.11751 0.96461 0.0
C164 C 0.109 0.14083 0.04681 0.0
O165 O 0.09799 0.07524 0.96695 0.0
O166 O 0.08007 0.09015 1.00853 0.0
O167 O 0.16908 0.14341 0.98974 0.0
O168 O 0.15487 0.09653 0.9757 0.0
C169 C 0.073 0.19235 0.998 0.0
O170 O 0.08233 0.14019 0.03512 0.0
O171 O 0.13314 0.14691 0.03236 0.0
C172 C 0.08355 0.0691 0.99027 0.0
O173 O 0.05898 0.1683 0.98976 0.0
O174 O 0.1008 0.19094 1.00694 0.0
C175 C 0.14093 0.17118 0.93916 0.0
Fe176 Fe 0.86745 0.87517 0.70518 0.0
Fe177 Fe 0.92196 0.88888 0.74599 0.0
O178 O 0.89179 0.86405 0.73413 0.0
Fe179 Fe 0.88588 0.82777 0.75115 0.0
O180 O 0.87274 0.80705 0.71813 0.0
O181 O 0.88009 0.842 0.68442 0.0
O182 O 0.89841 0.8979 0.68584 0.0
C183 C 0.92804 0.89659 0.68826 0.0
C184 C 0.8262 0.8408 0.74304 0.0
O185 O 0.94027 0.88834 0.71144 0.0
C186 C 0.90219 0.86805 0.79766 0.0
O187 O 0.85363 0.90969 0.72428 0.0
O188 O 0.90037 0.92497 0.73834 0.0
O189 O 0.84727 0.83931 0.76149 0.0
O190 O 0.83255 0.85284 0.71865 0.0
C191 C 0.94885 0.82872 0.74747 0.0
O192 O 0.90609 0.89118 0.78161 0.0
O193 O 0.89874 0.84097 0.78713 0.0
C194 C 0.87147 0.93019 0.73489 0.0
O195 O 0.94875 0.85694 0.75561 0.0
O196 O 0.92396 0.81485 0.74157 0.0
C197 C 0.8771 0.81393 0.6919 0.0
Fe198 Fe 0.95794 0.12491 0.50255 0.0
Fe199 Fe 0.90576 0.11224 0.45928 0.0
O200 O 0.92091 0.13392 0.4884 0.0
Fe201 Fe 0.89904 0.16468 0.50346 0.0
O202 O 0.93313 0.18802 0.51397 0.0
O203 O 0.9725 0.16299 0.49473 0.0
O204 O 0.97543 0.11341 0.46745 0.0
C205 C 0.96675 0.12003 0.44209 0.0
C206 C 0.92112 0.13853 0.55208 0.0
O207 O 0.93813 0.12379 0.43664 0.0
C208 C 0.85276 0.1191 0.49201 0.0
O209 O 0.94516 0.08638 0.51137 0.0
O210 O 0.92667 0.07517 0.46908 0.0
O211 O 0.89733 0.14574 0.53781 0.0
O212 O 0.94751 0.1353 0.53993 0.0
C213 C 0.88864 0.17531 0.44703 0.0
O214 O 0.87151 0.09974 0.48057 0.0
O215 O 0.86092 0.1472 0.49557 0.0
C216 C 0.93935 0.06659 0.4925 0.0
O217 O 0.88419 0.14611 0.44337 0.0
O218 O 0.89966 0.18538 0.47019 0.0
C219 C 0.96072 0.18764 0.50421 0.0
Fe220 Fe 0.63302 0.19864 0.2559 0.0
Fe221 Fe 0.66025 0.15631 0.20841 0.0
O222 O 0.63366 0.16296 0.23696 0.0
Fe223 Fe 0.60593 0.13386 0.24611 0.0
O224 O 0.57366 0.15943 0.23554 0.0
O225 O 0.59134 0.19789 0.26175 0.0
O226 O 0.62576 0.22112 0.22327 0.0
C227 C 0.641 0.21892 0.20008 0.0
C228 C 0.62147 0.15861 0.29985 0.0
O229 O 0.65936 0.19637 0.19537 0.0
C230 C 0.65834 0.09864 0.23984 0.0
O231 O 0.67418 0.2056 0.25299 0.0
O232 O 0.69477 0.16525 0.2306 0.0
O233 O 0.60232 0.14534 0.28342 0.0
O234 O 0.64022 0.17874 0.29 0.0
C235 C 0.60593 0.12981 0.18732 0.0
O236 O 0.66514 0.11431 0.21738 0.0
O237 O 0.63691 0.10754 0.25667 0.0
C238 C 0.6976 0.18981 0.24573 0.0
O239 O 0.62781 0.14899 0.1832 0.0
O240 O 0.60434 0.11601 0.21091 0.0
C241 C 0.57063 0.18661 0.24572 0.0
Fe242 Fe 0.57435 0.90597 0.01248 0.0
Fe243 Fe 0.61736 0.92216 0.96226 0.0
O244 O 0.60797 0.89803 0.99194 0.0
Fe245 Fe 0.63276 0.86672 1.00114 0.0
O246 O 0.60124 0.8413 0.01437 0.0
O247 O 0.55852 0.8683 1.00615 0.0
O248 O 0.55073 0.91837 0.98095 0.0
C249 C 0.5547 0.91342 0.9542 0.0
C250 C 0.61939 0.88821 0.05478 0.0
O251 O 0.58193 0.91059 0.94387 0.0
C252 C 0.67429 0.91574 0.98829 0.0
O253 O 0.58847 0.94449 0.02048 0.0
O254 O 0.59693 0.95758 0.9763 0.0
O255 O 0.64017 0.88214 0.03651 0.0
O256 O 0.59152 0.89369 0.04703 0.0
C257 C 0.63436 0.86129 0.94313 0.0
O258 O 0.65353 0.93477 0.97993 0.0
O259 O 0.66859 0.88677 0.98954 0.0
C260 C 0.58846 0.96502 1.00151 0.0
O261 O 0.63783 0.89078 0.94157 0.0
O262 O 0.62697 0.84897 0.96662 0.0
C263 C 0.5719 0.84307 0.01156 0.0
Fe264 Fe 0.91403 0.14799 0.76918 0.0
Fe265 Fe 0.87898 0.20985 0.76571 0.0
O266 O 0.88406 0.17292 0.78162 0.0
Fe267 Fe 0.85942 0.16103 0.8102 0.0
O268 O 0.89024 0.13793 0.82876 0.0
O269 O 0.9324 0.14867 0.8037 0.0
O270 O 0.94085 0.17932 0.75874 0.0
C271 C 0.94196 0.20745 0.76673 0.0
C272 C 0.86407 0.10637 0.78024 0.0
O273 O 0.91783 0.22159 0.77464 0.0
C274 C 0.81864 0.19637 0.77345 0.0
O275 O 0.89754 0.14614 0.7337 0.0
O276 O 0.89046 0.19678 0.72946 0.0
O277 O 0.84564 0.12689 0.79016 0.0
O278 O 0.89288 0.11204 0.77744 0.0
C279 C 0.87068 0.22172 0.82544 0.0
O280 O 0.83996 0.20004 0.75548 0.0
O281 O 0.82475 0.184 0.79763 0.0
C282 C 0.89242 0.16977 0.71843 0.0
O283 O 0.86689 0.22992 0.79947 0.0
O284 O 0.87208 0.19328 0.83194 0.0
C285 C 0.91983 0.14057 0.82693 0.0
Fe286 Fe 0.61757 0.12016 0.56371 0.0
Fe287 Fe 0.6229 0.17488 0.52226 0.0
O288 O 0.60385 0.14068 0.53315 0.0
Fe289 Fe 0.57206 0.12629 0.51347 0.0
O290 O 0.55085 0.11265 0.54601 0.0
O291 O 0.58072 0.12781 0.58205 0.0
O292 O 0.63311 0.15582 0.58232 0.0
C293 C 0.62354 0.18387 0.57962 0.0
C294 C 0.59325 0.07125 0.52773 0.0
O295 O 0.61341 0.19301 0.5558 0.0
C296 C 0.61439 0.14752 0.47033 0.0
O297 O 0.65546 0.11223 0.54547 0.0
O298 O 0.6611 0.16175 0.53503 0.0
O299 O 0.59289 0.09055 0.50782 0.0
O300 O 0.60223 0.081 0.55215 0.0
C301 C 0.55917 0.18806 0.51138 0.0
O302 O 0.6334 0.15876 0.48798 0.0
O303 O 0.58743 0.13866 0.47829 0.0
C304 C 0.67201 0.13428 0.53516 0.0
O305 O 0.5879 0.19373 0.50758 0.0
O306 O 0.54988 0.16128 0.51776 0.0
C307 C 0.55402 0.12112 0.57203 0.0
Fe308 Fe 0.61516 0.88466 0.2787 0.0
Fe309 Fe 0.64229 0.81987 0.26825 0.0
O310 O 0.64392 0.85602 0.28642 0.0
Fe311 Fe 0.67277 0.86328 0.31281 0.0
O312 O 0.64272 0.87076 0.34013 0.0
O313 O 0.61456 0.90218 0.31431 0.0
O314 O 0.58394 0.85902 0.29089 0.0
C315 C 0.58058 0.83181 0.28126 0.0
C316 C 0.66706 0.92109 0.28191 0.0
O317 O 0.60044 0.82035 0.26442 0.0
C318 C 0.70739 0.82898 0.27395 0.0
O319 O 0.61008 0.87297 0.24134 0.0
O320 O 0.64749 0.83906 0.23338 0.0
O321 O 0.67637 0.90532 0.30345 0.0
O322 O 0.6448 0.91158 0.26653 0.0
C323 C 0.65372 0.80118 0.32406 0.0
O324 O 0.68358 0.81276 0.26911 0.0
O325 O 0.70542 0.85428 0.28817 0.0
C326 C 0.62829 0.85915 0.22417 0.0
O327 O 0.63684 0.79843 0.30193 0.0
O328 O 0.67318 0.82328 0.32642 0.0
C329 C 0.61974 0.88897 0.33786 0.0
Fe330 Fe 0.95479 0.89086 0.01425 0.0
Fe331 Fe 0.90661 0.91105 0.0595 0.0
O332 O 0.91848 0.88556 0.03157 0.0
Fe333 Fe 0.89366 0.85464 0.02113 0.0
O334 O 0.92491 0.82799 1.01046 0.0
O335 O 0.96745 0.85251 0.02342 0.0
O336 O 0.97565 0.90356 0.04741 0.0
C337 C 0.96811 0.90069 0.07374 0.0
C338 C 0.91297 0.87424 0.96872 0.0
O339 O 0.9397 0.89976 0.08114 0.0
C340 C 0.85219 0.90449 0.02911 0.0
O341 O 0.94451 0.92974 1.00378 0.0
O342 O 0.92894 0.9455 0.04578 0.0
O343 O 0.89027 0.86948 0.9853 0.0
O344 O 0.9404 0.87838 0.97848 0.0
C345 C 0.88798 0.85096 0.07906 0.0
O346 O 0.87224 0.9236 0.03871 0.0
O347 O 0.85758 0.87553 0.02976 0.0
C348 C 0.94225 0.95114 0.02187 0.0
O349 O 0.88419 0.88051 0.07961 0.0
O350 O 0.89607 0.83775 0.05618 0.0
C351 C 0.95345 0.82788 0.01699 0.0
Fe352 Fe 0.61818 0.64713 0.77543 0.0
Fe353 Fe 0.6737 0.65953 0.81531 0.0
O354 O 0.64824 0.67201 0.78772 0.0
Fe355 Fe 0.65283 0.70925 0.77227 0.0
O356 O 0.61401 0.7206 0.78196 0.0
O357 O 0.59112 0.67854 0.76569 0.0
O358 O 0.60025 0.64702 0.81043 0.0
C359 C 0.61354 0.63849 0.83321 0.0
C360 C 0.64031 0.66995 0.72475 0.0
O361 O 0.64324 0.63607 0.83421 0.0
C362 C 0.7134 0.69703 0.77889 0.0
O363 O 0.63928 0.611 0.78297 0.0
O364 O 0.687 0.62569 0.79383 0.0
O365 O 0.64115 0.69679 0.73614 0.0
O366 O 0.63457 0.64603 0.7396 0.0
C367 C 0.66171 0.72016 0.83183 0.0
O368 O 0.7081 0.68287 0.80244 0.0
O369 O 0.69176 0.69999 0.76126 0.0
C370 C 0.66815 0.60514 0.7845 0.0
O371 O 0.66158 0.69154 0.83821 0.0
O372 O 0.66515 0.72869 0.80595 0.0
C373 C 0.58992 0.70658 0.77392 0.0
Fe374 Fe 0.61748 0.41618 0.0639 0.0
Fe375 Fe 0.57429 0.39677 0.01459 0.0
O376 O 0.60851 0.39093 0.03488 0.0
Fe377 Fe 0.63414 0.35986 0.02628 0.0
O378 O 0.62821 0.34305 0.06098 0.0
O379 O 0.63756 0.38568 0.08545 0.0
O380 O 0.58169 0.40522 0.08286 0.0
C381 C 0.5544 0.40616 0.07235 0.0
C382 C 0.67519 0.40957 0.0379 0.0
O383 O 0.55042 0.40944 0.04553 0.0
C384 C 0.62022 0.3802 0.97273 0.0
O385 O 0.59722 0.45071 0.04876 0.0
O386 O 0.58591 0.43584 1.00545 0.0
O387 O 0.66976 0.38056 0.03753 0.0
O388 O 0.65397 0.42848 0.04582 0.0
C389 C 0.57432 0.33344 0.01758 0.0
O390 O 0.59206 0.38437 0.9804 0.0
O391 O 0.64122 0.37466 0.99081 0.0
C392 C 0.58635 0.45686 0.02409 0.0
O393 O 0.56011 0.35843 0.02236 0.0
O394 O 0.60352 0.33322 0.0134 0.0
C395 C 0.63354 0.35628 0.08449 0.0
Fe396 Fe 0.85721 0.36217 0.31076 0.0
Fe397 Fe 0.87517 0.31742 0.26212 0.0
O398 O 0.88127 0.35253 0.28103 0.0
Fe399 Fe 0.91141 0.3783 0.27012 0.0
O400 O 0.93052 0.37398 0.30426 0.0
O401 O 0.88868 0.38298 0.33039 0.0
O402 O 0.86932 0.32721 0.33016 0.0
C403 C 0.86817 0.29963 0.32046 0.0
C404 C 0.8623 0.41944 0.28417 0.0
O405 O 0.86415 0.29462 0.29396 0.0
C406 C 0.88672 0.36171 0.21845 0.0
O407 O 0.82208 0.34102 0.2975 0.0
O408 O 0.83566 0.32823 0.25415 0.0
O409 O 0.89117 0.41383 0.28179 0.0
O410 O 0.84373 0.39824 0.29277 0.0
C411 C 0.93851 0.31898 0.26215 0.0
O412 O 0.88541 0.33382 0.22718 0.0
O413 O 0.89401 0.38373 0.23509 0.0
C414 C 0.81538 0.32873 0.27347 0.0
O415 O 0.91422 0.30435 0.2688 0.0
O416 O 0.93757 0.34777 0.25653 0.0
C417 C 0.91815 0.37945 0.32828 0.0
Fe418 Fe 0.9003 0.66851 0.52246 0.0
Fe419 Fe 0.91215 0.61271 0.56244 0.0
O420 O 0.92498 0.63832 0.5349 0.0
Fe421 Fe 0.96242 0.63382 0.5196 0.0
O422 O 0.97383 0.67242 0.52967 0.0
O423 O 0.93199 0.69556 0.5133 0.0
O424 O 0.89984 0.68596 0.55743 0.0
C425 C 0.8914 0.67276 0.58026 0.0
C426 C 0.92377 0.64723 0.47182 0.0
O427 O 0.88873 0.64314 0.58138 0.0
C428 C 0.95025 0.57343 0.52603 0.0
O429 O 0.86383 0.64744 0.5293 0.0
O430 O 0.87833 0.59985 0.54068 0.0
O431 O 0.95046 0.64588 0.48344 0.0
O432 O 0.89964 0.65273 0.48649 0.0
C433 C 0.97301 0.62362 0.57921 0.0
O434 O 0.93543 0.57841 0.54936 0.0
O435 O 0.95309 0.59508 0.50837 0.0
C436 C 0.85815 0.61856 0.53046 0.0
O437 O 0.94432 0.62409 0.58573 0.0
O438 O 0.98149 0.62111 0.55321 0.0
C439 C 0.95993 0.69665 0.52189 0.0
Fe440 Fe 0.60933 0.37854 0.74886 0.0
Fe441 Fe 0.66855 0.37164 0.7127 0.0
O442 O 0.64384 0.35821 0.7408 0.0
Fe443 Fe 0.65424 0.32482 0.76047 0.0
O444 O 0.61889 0.30489 0.7518 0.0
O445 O 0.58673 0.34385 0.75944 0.0
O446 O 0.59512 0.37221 0.71317 0.0
C447 C 0.6078 0.38279 0.69092 0.0
C448 C 0.62953 0.36581 0.80292 0.0
O449 O 0.63659 0.39028 0.69143 0.0
C450 C 0.71193 0.34505 0.75273 0.0
O451 O 0.62638 0.41668 0.7399 0.0
O452 O 0.67653 0.40812 0.73261 0.0
O453 O 0.63864 0.33904 0.79494 0.0
O454 O 0.62103 0.38599 0.78511 0.0
C455 C 0.66444 0.30884 0.70227 0.0
O456 O 0.70507 0.35363 0.72743 0.0
O457 O 0.69037 0.34304 0.77064 0.0
C458 C 0.6546 0.42573 0.74158 0.0
O459 O 0.66068 0.33619 0.6926 0.0
O460 O 0.67054 0.30442 0.72867 0.0
C461 C 0.59177 0.31509 0.75529 0.0
Fe462 Fe 0.89514 0.3622 1.00013 0.0
Fe463 Fe 0.90977 0.41835 0.96139 0.0
O464 O 0.92053 0.39275 0.98956 0.0
Fe465 Fe 0.95646 0.39782 1.00743 0.0
O466 O 0.96925 0.35937 0.99799 0.0
O467 O 0.92633 0.33525 0.01078 0.0
O468 O 0.89744 0.34507 0.96496 0.0
C469 C 0.89032 0.35851 0.94188 0.0
C470 C 0.91425 0.38408 0.05219 0.0
O471 O 0.88777 0.38811 0.941 0.0
C472 C 0.94417 0.45816 1.00002 0.0
O473 O 0.8591 0.38314 0.99134 0.0
O474 O 0.87448 0.43087 0.98156 0.0
O475 O 0.94178 0.38532 0.04241 0.0
O476 O 0.89151 0.37769 0.03613 0.0
C477 C 0.97212 0.4078 0.94898 0.0
O478 O 0.93157 0.45259 0.97585 0.0
O479 O 0.94591 0.43669 0.01808 0.0
C480 C 0.85369 0.41208 0.99071 0.0
O481 O 0.94414 0.40722 0.94003 0.0
O482 O 0.97784 0.41097 0.97545 0.0
C483 C 0.95485 0.3347 1.00374 0.0
Fe484 Fe 0.92397 0.64356 0.25313 0.0
Fe485 Fe 0.86774 0.65215 0.21323 0.0
O486 O 0.89284 0.66675 0.2404 0.0
Fe487 Fe 0.88687 0.7043 0.2549 0.0
O488 O 0.92527 0.71706 0.24494 0.0
O489 O 0.9499 0.67627 0.26171 0.0
O490 O 0.94142 0.64326 0.21807 0.0
C491 C 0.92851 0.63387 0.19543 0.0
C492 C 0.9017 0.66713 0.30342 0.0
O493 O 0.89907 0.62924 0.19489 0.0
C494 C 0.82699 0.6903 0.2481 0.0
O495 O 0.90411 0.60636 0.24693 0.0
O496 O 0.85581 0.61863 0.2359 0.0
O497 O 0.89904 0.69349 0.29136 0.0
O498 O 0.90825 0.64302 0.28914 0.0
C499 C 0.87666 0.71271 0.19498 0.0
O500 O 0.83258 0.67472 0.22537 0.0
O501 O 0.8483 0.6937 0.26602 0.0
C502 C 0.87535 0.59965 0.24671 0.0
O503 O 0.8783 0.68389 0.18934 0.0
O504 O 0.87381 0.72204 0.22071 0.0
C505 C 0.95004 0.70403 0.25268 0.0
Fe506 Fe 0.63722 0.6661 0.50423 0.0
Fe507 Fe 0.62046 0.61002 0.46595 0.0
O508 O 0.61119 0.63559 0.49467 0.0
Fe509 Fe 0.57589 0.63064 0.5138 0.0
O510 O 0.56311 0.66908 0.50489 0.0
O511 O 0.60655 0.69342 0.51565 0.0
O512 O 0.63386 0.68314 0.46901 0.0
C513 C 0.63911 0.66943 0.4456 0.0
C514 C 0.61967 0.64499 0.55719 0.0
O515 O 0.64179 0.6399 0.44481 0.0
C516 C 0.58758 0.57029 0.50567 0.0
O517 O 0.67278 0.64453 0.49436 0.0
O518 O 0.65634 0.59707 0.48445 0.0
O519 O 0.5919 0.64303 0.54825 0.0
O520 O 0.64195 0.65115 0.54038 0.0
C521 C 0.55783 0.62119 0.45595 0.0
O522 O 0.59913 0.57601 0.48108 0.0
O523 O 0.5865 0.59164 0.52393 0.0
C524 C 0.67775 0.61549 0.49283 0.0
O525 O 0.58544 0.62162 0.44606 0.0
O526 O 0.55307 0.61775 0.48258 0.0
C527 C 0.57776 0.69382 0.50971 0.0
Fe528 Fe 0.37577 0.31939 0.25649 0.0
Fe529 Fe 0.36369 0.37004 0.21154 0.0
O530 O 0.38565 0.35559 0.24087 0.0
Fe531 Fe 0.41737 0.37709 0.25451 0.0
O532 O 0.44072 0.34255 0.26398 0.0
O533 O 0.41299 0.30323 0.24802 0.0
O534 O 0.36274 0.30135 0.22239 0.0
C535 C 0.36935 0.30878 0.19672 0.0
C536 C 0.39222 0.35667 0.30454 0.0
O537 O 0.37445 0.3368 0.19009 0.0
C538 C 0.37139 0.42336 0.24333 0.0
O539 O 0.33782 0.33393 0.26581 0.0
O540 O 0.32637 0.35008 0.22283 0.0
O541 O 0.40007 0.37966 0.28956 0.0
O542 O 0.38769 0.33021 0.29317 0.0
C543 C 0.42671 0.38669 0.19747 0.0
O544 O 0.35208 0.40494 0.23157 0.0
O545 O 0.39955 0.41523 0.24724 0.0
C546 C 0.31778 0.33875 0.24692 0.0
O547 O 0.39741 0.39084 0.19418 0.0
O548 O 0.43703 0.37601 0.2206 0.0
C549 C 0.43878 0.31481 0.25471 0.0
Fe550 Fe 0.46189 0.62706 1.00518 0.0
Fe551 Fe 0.41157 0.61432 0.95991 0.0
O552 O 0.42754 0.63834 0.98736 0.0
Fe553 Fe 0.40842 0.6731 0.99688 0.0
O554 O 0.444 0.69445 1.00648 0.0
O555 O 0.48201 0.66211 0.99609 0.0
O556 O 0.48044 0.61113 0.97187 0.0
C557 C 0.47364 0.61567 0.94553 0.0
C558 C 0.42347 0.65239 0.0502 0.0
O559 O 0.44573 0.6206 0.93795 0.0
C560 C 0.3597 0.62966 0.9911 0.0
O561 O 0.44356 0.5912 0.01554 0.0
O562 O 0.42902 0.57712 0.97329 0.0
O563 O 0.40239 0.66083 0.03323 0.0
O564 O 0.44959 0.64234 0.04089 0.0
C565 C 0.40158 0.67572 0.93925 0.0
O566 O 0.37618 0.60735 0.98145 0.0
O567 O 0.36947 0.65751 0.98923 0.0
C568 C 0.44073 0.57003 0.99741 0.0
O569 O 0.39313 0.64722 0.93978 0.0
O570 O 0.41345 0.68783 0.96119 0.0
C571 C 0.47242 0.68913 1.00089 0.0
Fe572 Fe 0.17272 0.66689 0.71082 0.0
Fe573 Fe 0.11627 0.64827 0.74853 0.0
O574 O 0.14541 0.67562 0.73826 0.0
Fe575 Fe 0.1462 0.71253 0.75538 0.0
O576 O 0.13781 0.73278 0.72172 0.0
O577 O 0.17312 0.70694 0.69653 0.0
O578 O 0.14146 0.65939 0.68499 0.0
C579 C 0.11727 0.64291 0.68839 0.0
C580 C 0.21004 0.70131 0.74727 0.0
O581 O 0.11079 0.63166 0.7127 0.0
C582 C 0.13752 0.67381 0.80105 0.0
O583 O 0.17569 0.62469 0.72029 0.0
O584 O 0.14503 0.61907 0.75799 0.0
O585 O 0.18721 0.71918 0.7506 0.0
O586 O 0.20674 0.67544 0.73416 0.0
C587 C 0.08308 0.70234 0.74952 0.0
O588 O 0.11664 0.66001 0.7865 0.0
O589 O 0.15492 0.69413 0.78954 0.0
C590 C 0.16593 0.6086 0.74152 0.0
O591 O 0.08519 0.67536 0.73924 0.0
O592 O 0.10511 0.7134 0.76389 0.0
C593 C 0.15396 0.72947 0.69909 0.0
Fe594 Fe 0.11781 0.41142 0.45561 0.0
Fe595 Fe 0.13665 0.35986 0.49797 0.0
O596 O 0.10867 0.38671 0.48487 0.0
Fe597 Fe 0.07127 0.38796 0.50093 0.0
O598 O 0.0522 0.37699 0.46739 0.0
O599 O 0.07825 0.4105 0.44056 0.0
O600 O 0.126 0.37759 0.43253 0.0
C601 C 0.14358 0.35489 0.43866 0.0
C602 C 0.08267 0.45101 0.4895 0.0
O603 O 0.1554 0.35307 0.46332 0.0
C604 C 0.10811 0.38298 0.5483 0.0
O605 O 0.15966 0.41579 0.46563 0.0
O606 O 0.16358 0.39094 0.50672 0.0
O607 O 0.06458 0.42847 0.49372 0.0
O608 O 0.10856 0.44711 0.47645 0.0
C609 C 0.08424 0.32433 0.49996 0.0
O610 O 0.1231 0.36192 0.53515 0.0
O611 O 0.08805 0.39927 0.53529 0.0
C612 C 0.17443 0.40995 0.4887 0.0
O613 O 0.1114 0.32688 0.48987 0.0
O614 O 0.07087 0.34737 0.51125 0.0
C615 C 0.05582 0.3915 0.44398 0.0
Fe616 Fe 0.42384 0.64707 0.27307 0.0
Fe617 Fe 0.38353 0.70518 0.26628 0.0
O618 O 0.39207 0.67005 0.28437 0.0
Fe619 Fe 0.36889 0.65789 0.31381 0.0
O620 O 0.40186 0.63776 0.33313 0.0
O621 O 0.44246 0.6512 0.30716 0.0
O622 O 0.4479 0.68012 0.26131 0.0
C623 C 0.44644 0.70828 0.26928 0.0
C624 C 0.37733 0.60215 0.2864 0.0
O625 O 0.42079 0.72099 0.27448 0.0
C626 C 0.32494 0.68968 0.27655 0.0
O627 O 0.40729 0.64162 0.23813 0.0
O628 O 0.39654 0.69089 0.23032 0.0
O629 O 0.35738 0.62179 0.29533 0.0
O630 O 0.40564 0.60996 0.28318 0.0
C631 C 0.37503 0.72008 0.32572 0.0
O632 O 0.34541 0.69092 0.25742 0.0
O633 O 0.33231 0.67787 0.30078 0.0
C634 C 0.40191 0.66347 0.22095 0.0
O635 O 0.37017 0.72625 0.29935 0.0
O636 O 0.37944 0.69233 0.3337 0.0
C637 C 0.43134 0.64165 0.33045 0.0
Fe638 Fe 0.13671 0.66553 0.01689 0.0
Fe639 Fe 0.07607 0.62849 0.01724 0.0
O640 O 0.11303 0.63615 0.032 0.0
Fe641 Fe 0.12636 0.61412 0.06167 0.0
O642 O 0.14912 0.64717 0.07774 0.0
O643 O 0.13667 0.68671 0.04999 0.0
O644 O 0.10409 0.69048 1.00588 0.0
C645 C 0.07621 0.69123 0.01485 0.0
C646 C 0.18004 0.61778 0.02992 0.0
O647 O 0.06301 0.66723 0.0243 0.0
C648 C 0.09054 0.56981 0.02858 0.0
O649 O 0.13799 0.64622 0.98245 0.0
O650 O 0.08746 0.63812 0.98011 0.0
O651 O 0.16022 0.59965 0.04134 0.0
O652 O 0.17353 0.64614 0.02555 0.0
C653 C 0.06565 0.62418 0.07758 0.0
O654 O 0.08798 0.58955 1.00911 0.0
O655 O 0.10392 0.57784 0.05188 0.0
C656 C 0.11395 0.64008 0.96802 0.0
O657 O 0.05726 0.61795 0.05207 0.0
O658 O 0.09418 0.62751 0.08343 0.0
C659 C 0.14618 0.6765 0.07365 0.0
Fe660 Fe 0.16081 0.37278 0.81038 0.0
Fe661 Fe 0.11063 0.38594 0.76464 0.0
O662 O 0.13901 0.36099 0.77999 0.0
Fe663 Fe 0.14523 0.32363 0.76493 0.0
O664 O 0.15565 0.3039 0.79911 0.0
O665 O 0.14663 0.34009 0.83114 0.0
O666 O 0.12797 0.39541 0.82699 0.0
C667 C 0.09869 0.39468 0.82181 0.0
C668 C 0.20484 0.33768 0.77555 0.0
O669 O 0.0888 0.38719 0.79744 0.0
C670 C 0.13553 0.36197 0.71603 0.0
O671 O 0.17618 0.40749 0.79202 0.0
O672 O 0.13142 0.42216 0.77311 0.0
O673 O 0.18482 0.33325 0.75653 0.0
O674 O 0.19687 0.3502 0.79942 0.0
C675 C 0.08239 0.3265 0.76292 0.0
O676 O 0.13039 0.38625 0.73041 0.0
O677 O 0.1358 0.33548 0.72802 0.0
C678 C 0.15946 0.42792 0.77974 0.0
O679 O 0.08431 0.3542 0.75369 0.0
O680 O 0.1059 0.31244 0.77234 0.0
C681 C 0.14965 0.31172 0.82477 0.0
Fe682 Fe 0.45517 0.40525 0.51885 0.0
Fe683 Fe 0.40594 0.41496 0.5655 0.0
O684 O 0.41941 0.39451 0.53463 0.0
Fe685 Fe 0.39692 0.3643 0.51957 0.0
O686 O 0.43078 0.34082 0.5079 0.0
O687 O 0.47149 0.36742 0.5231 0.0
O688 O 0.47447 0.41444 0.55377 0.0
C689 C 0.46723 0.40517 0.57887 0.0
C690 C 0.4169 0.39203 0.47044 0.0
O691 O 0.43897 0.4012 0.58566 0.0
C692 C 0.35233 0.41103 0.53393 0.0
O693 O 0.43979 0.44348 0.51318 0.0
O694 O 0.42727 0.45226 0.55716 0.0
O695 O 0.39406 0.38335 0.48533 0.0
O696 O 0.44331 0.39691 0.48171 0.0
C697 C 0.38788 0.35232 0.57624 0.0
O698 O 0.37142 0.42907 0.54651 0.0
O699 O 0.35941 0.38286 0.52853 0.0
C700 C 0.43887 0.46202 0.53368 0.0
O701 O 0.38393 0.38131 0.58071 0.0
O702 O 0.39821 0.34288 0.55255 0.0
C703 C 0.45961 0.3427 0.51385 0.0
H704 H 0.18648 0.07232 0.23346 0.0
H705 H 0.15473 0.05858 0.32013 0.0
H706 H 0.15624 1.00208 0.31337 0.0
H707 H 0.15986 0.95671 0.28097 0.0
H708 H 0.19258 0.96915 0.1945 0.0
H709 H 0.19784 0.02552 0.20292 0.0
C710 C 0.18114 0.05689 0.25118 0.0
C711 C 0.17121 0.06984 0.2776 0.0
C712 C 0.18177 0.02404 0.24697 0.0
C713 C 0.16323 0.04938 0.29993 0.0
C714 C 0.16373 0.01698 0.29593 0.0
C715 C 0.16905 0.97164 0.26422 0.0
C716 C 0.17612 0.95855 0.23719 0.0
C717 C 0.17203 1.00404 0.26931 0.0
C718 C 0.18751 0.97838 0.21561 0.0
C719 C 0.19021 1.01074 0.2204 0.0
H720 H 0.30458 0.94298 0.46829 0.0
H721 H 0.34022 0.89976 0.54484 0.0
H722 H 0.28847 0.90042 0.56629 0.0
H723 H 0.23167 0.90628 0.56108 0.0
H724 H 0.1945 0.95052 0.48593 0.0
H725 H 0.24751 0.95676 0.46647 0.0
C726 C 0.30117 0.9348 0.49004 0.0
C727 C 0.32663 0.9215 0.50493 0.0
C728 C 0.27071 0.93498 0.50245 0.0
C729 C 0.32136 0.91031 0.53288 0.0
C730 C 0.29157 0.91045 0.54518 0.0
C731 C 0.23526 0.91825 0.54088 0.0
C732 C 0.20908 0.92833 0.52523 0.0
C733 C 0.26587 0.92172 0.52986 0.0
C734 C 0.2142 0.94318 0.49876 0.0
C735 C 0.2446 0.94642 0.48747 0.0
H736 H 0.3811 0.07645 0.78271 0.0
H737 H 0.34152 0.06673 0.69853 0.0
H738 H 0.33619 1.01021 0.70591 0.0
H739 H 0.34848 0.96256 0.73479 0.0
H740 H 0.3861 0.97376 0.81964 0.0
H741 H 0.38603 0.03038 0.81387 0.0
C742 C 0.3707 0.06202 0.7662 0.0
C743 C 0.36177 0.0758 0.74006 0.0
C744 C 0.36737 0.02965 0.77081 0.0
C745 C 0.34834 0.05679 0.71889 0.0
C746 C 0.34549 0.0244 0.72309 0.0
C747 C 0.35553 0.97752 0.75235 0.0
C748 C 0.36668 0.9639 0.77792 0.0
C749 C 0.35557 1.01039 0.74876 0.0
C750 C 0.37671 0.98361 0.8001 0.0
C751 C 0.37702 0.01603 0.79666 0.0
H752 H 0.31967 0.08642 0.99574 0.0
H753 H 0.30577 0.1337 0.07623 0.0
H754 H 0.24943 0.1337 0.0687 0.0
H755 H 0.20483 0.12707 0.03638 0.0
H756 H 0.21698 0.07961 0.95585 0.0
H757 H 0.27282 0.07251 0.96618 0.0
C758 C 0.30415 0.09557 0.01209 0.0
C759 C 0.31698 0.10959 0.03683 0.0
C760 C 0.2714 0.09599 1.0073 0.0
C761 C 0.29655 0.12228 0.05734 0.0
C762 C 0.26428 0.12259 0.05288 0.0
C763 C 0.21956 0.11448 0.02138 0.0
C764 C 0.20671 0.10391 0.99536 0.0
C765 C 0.25154 0.11053 0.02752 0.0
C766 C 0.22613 0.0877 0.97614 0.0
C767 C 0.25818 0.08389 0.98199 0.0
H768 H 0.87291 0.96162 0.78503 0.0
H769 H 0.84549 0.97068 0.69679 0.0
H770 H 0.83614 0.02664 0.70382 0.0
H771 H 0.84285 0.07417 0.73382 0.0
H772 H 0.86849 0.06411 0.82245 0.0
H773 H 0.87075 1.00748 0.8169 0.0
C774 C 0.86413 0.97579 0.76758 0.0
C775 C 0.85994 0.96219 0.74043 0.0
C776 C 0.85848 1.0078 0.77193 0.0
C777 C 0.84864 0.98066 0.71791 0.0
C778 C 0.84349 1.01268 0.72191 0.0
C779 C 0.84759 0.0594 0.75214 0.0
C780 C 0.85489 0.0732 0.77868 0.0
C781 C 0.84915 0.0267 0.74865 0.0
C782 C 0.86203 0.05393 0.80205 0.0
C783 C 0.86375 0.02157 0.79877 0.0
H784 H 0.80309 0.15221 0.47552 0.0
H785 H 0.82736 0.06998 0.52308 0.0
H786 H 0.77295 0.06536 0.54007 0.0
H787 H 0.7186 0.08845 0.54469 0.0
H788 H 0.6979 0.17119 0.49546 0.0
H789 H 0.75 0.17153 0.47604 0.0
C790 C 0.7964 0.13287 0.48919 0.0
C791 C 0.8193 0.11146 0.49789 0.0
C792 C 0.7654 0.13066 0.49901 0.0
C793 C 0.81015 0.08659 0.51568 0.0
C794 C 0.77903 0.08418 0.52565 0.0
C795 C 0.72545 0.10628 0.5295 0.0
C796 C 0.70398 0.13014 0.52221 0.0
C797 C 0.75641 0.1066 0.51801 0.0
C798 C 0.71361 0.15285 0.5022 0.0
C799 C 0.74362 0.15311 0.49083 0.0
H800 H 0.67012 0.06684 0.28914 0.0
H801 H 0.67032 0.05692 0.19722 0.0
H802 H 0.67687 1.00057 0.20198 0.0
H803 H 0.67495 0.95355 0.23245 0.0
H804 H 0.67743 0.96346 0.32431 0.0
H805 H 0.67805 0.02023 0.31947 0.0
C806 C 0.67238 0.05238 0.27017 0.0
C807 C 0.66945 0.06603 0.24286 0.0
C808 C 0.6764 0.01993 0.27308 0.0
C809 C 0.67262 0.04706 0.21846 0.0
C810 C 0.67612 0.01476 0.22119 0.0
C811 C 0.67655 0.96818 0.25136 0.0
C812 C 0.67599 0.95431 0.2787 0.0
C813 C 0.67698 1.00084 0.24839 0.0
C814 C 0.6781 0.97351 0.30303 0.0
C815 C 0.67811 1.00601 0.30027 0.0
H816 H 0.80227 0.93819 0.05115 0.0
H817 H 0.83525 0.89092 0.97536 0.0
H818 H 0.78366 0.89379 0.95418 0.0
H819 H 0.72745 0.90251 0.9598 0.0
H820 H 0.69272 0.94962 0.03471 0.0
H821 H 0.74608 0.95439 0.05341 0.0
C822 C 0.79829 0.92952 0.02965 0.0
C823 C 0.82275 0.91436 0.01488 0.0
C824 C 0.76795 0.93082 0.01752 0.0
C825 C 0.817 0.90269 0.98723 0.0
C826 C 0.78734 0.90417 0.97508 0.0
C827 C 0.73175 0.91477 0.97975 0.0
C828 C 0.70631 0.92608 0.99566 0.0
C829 C 0.76241 0.91712 0.99039 0.0
C830 C 0.71205 0.94132 0.02179 0.0
C831 C 0.74257 0.94372 0.03262 0.0
H832 H 0.64111 0.55405 0.80595 0.0
H833 H 0.71451 0.58222 0.74856 0.0
H834 H 0.71945 0.52813 0.73115 0.0
H835 H 0.6979 0.47323 0.72861 0.0
H836 H 0.62291 0.44859 0.78631 0.0
H837 H 0.62387 0.50019 0.80713 0.0
C838 C 0.65878 0.54824 0.79012 0.0
C839 C 0.67755 0.57217 0.77878 0.0
C840 C 0.66088 0.51746 0.77987 0.0
C841 C 0.70012 0.56423 0.75807 0.0
C842 C 0.70263 0.53329 0.74786 0.0
C843 C 0.68221 0.47908 0.74605 0.0
C844 C 0.66007 0.45677 0.75554 0.0
C845 C 0.68244 0.50971 0.758 0.0
C846 C 0.63991 0.46505 0.77817 0.0
C847 C 0.6404 0.49473 0.79024 0.0
H848 H 0.79801 0.42531 0.9637 0.0
H849 H 0.84048 0.41831 0.04691 0.0
H850 H 0.78908 0.41977 0.06975 0.0
H851 H 0.73129 0.41631 0.06586 0.0
H852 H 0.6886 0.42394 0.98282 0.0
H853 H 0.74006 0.42934 0.96037 0.0
C854 C 0.79603 0.4254 0.98686 0.0
C855 C 0.82335 0.42247 1.00354 0.0
C856 C 0.76601 0.42592 0.99998 0.0
C857 C 0.82008 0.42136 0.03353 0.0
C858 C 0.79053 0.42184 0.04664 0.0
C859 C 0.73326 0.42022 0.04298 0.0
C860 C 0.70592 0.42032 0.02615 0.0
C861 C 0.76321 0.42322 0.03011 0.0
C862 C 0.70908 0.42445 0.99639 0.0
C863 C 0.73864 0.42727 0.98347 0.0
H864 H 0.8809 0.4715 0.31181 0.0
H865 H 0.82336 0.44102 0.24188 0.0
H866 H 0.81882 0.4951 0.22485 0.0
H867 H 0.83743 0.55087 0.22661 0.0
H868 H 0.89506 0.57923 0.29764 0.0
H869 H 0.89284 0.52699 0.31751 0.0
C870 C 0.86647 0.47683 0.29339 0.0
C871 C 0.85207 0.4522 0.27848 0.0
C872 C 0.8643 0.50792 0.28362 0.0
C873 C 0.83406 0.45952 0.25423 0.0
C874 C 0.83182 0.49051 0.24427 0.0
C875 C 0.84866 0.54579 0.24685 0.0
C876 C 0.8665 0.56928 0.2605 0.0
C877 C 0.84763 0.51496 0.25831 0.0
C878 C 0.88127 0.56186 0.28654 0.0
C879 C 0.88014 0.53181 0.29796 0.0
H880 H 0.7319 0.6184 0.46207 0.0
H881 H 0.69507 0.59058 0.54394 0.0
H882 H 0.74821 0.58489 0.56276 0.0
H883 H 0.80559 0.59465 0.55757 0.0
H884 H 0.84145 0.62261 0.47522 0.0
H885 H 0.78905 0.62076 0.45497 0.0
C886 C 0.73557 0.61 0.48371 0.0
C887 C 0.70943 0.60425 0.50135 0.0
C888 C 0.76635 0.60703 0.49445 0.0
C889 C 0.71467 0.59435 0.52966 0.0
C890 C 0.74517 0.59144 0.54053 0.0
C891 C 0.80203 0.59913 0.53496 0.0
C892 C 0.82774 0.60825 0.51785 0.0
C893 C 0.77131 0.59852 0.52338 0.0
C894 C 0.82235 0.61502 0.48879 0.0
C895 C 0.79222 0.61427 0.47721 0.0
H896 H 0.39207 0.45715 0.28813 0.0
H897 H 0.33172 0.46325 0.21472 0.0
H898 H 0.32466 0.51935 0.22339 0.0
H899 H 0.34091 0.56804 0.2491 0.0
H900 H 0.4012 0.56008 0.32247 0.0
H901 H 0.40259 0.50357 0.31696 0.0
C902 C 0.37699 0.47067 0.27423 0.0
C903 C 0.36272 0.45608 0.25063 0.0
C904 C 0.37303 0.50274 0.27943 0.0
C905 C 0.34296 0.47386 0.23306 0.0
C906 C 0.33906 0.50601 0.23795 0.0
C907 C 0.35344 0.55374 0.26436 0.0
C908 C 0.37067 0.5682 0.28641 0.0
C909 C 0.3546 0.52093 0.26072 0.0
C910 C 0.38747 0.54946 0.30561 0.0
C911 C 0.38851 0.51715 0.3023 0.0
H912 H 0.31315 0.58597 0.97903 0.0
H913 H 0.33622 0.66327 0.03437 0.0
H914 H 0.28387 0.66322 0.05404 0.0
H915 H 0.22994 0.64606 0.05183 0.0
H916 H 0.20385 0.57007 0.99675 0.0
H917 H 0.25854 0.56434 0.9811 0.0
C918 C 0.30676 0.60235 0.99573 0.0
C919 C 0.32861 0.62495 1.00481 0.0
C920 C 0.27591 0.60257 1.00695 0.0
C921 C 0.31988 0.646 0.02654 0.0
C922 C 0.28986 0.646 0.03793 0.0
C923 C 0.23639 0.6277 0.03693 0.0
C924 C 0.21303 0.60844 0.02556 0.0
C925 C 0.26748 0.6251 0.02774 0.0
C926 C 0.22156 0.58488 1.00613 0.0
C927 C 0.25279 0.5819 0.99695 0.0
H928 H 0.17251 0.5738 0.79035 0.0
H929 H 0.17505 0.56663 0.69827 0.0
H930 H 0.17588 0.5097 0.70175 0.0
H931 H 0.16943 0.4617 0.73103 0.0
H932 H 0.17052 0.46875 0.82303 0.0
H933 H 0.17503 0.5256 0.81964 0.0
C934 C 0.17405 0.55978 0.77105 0.0
C935 C 0.17367 0.57467 0.74404 0.0
C936 C 0.17492 0.52688 0.77324 0.0
C937 C 0.17564 0.55601 0.71931 0.0
C938 C 0.17582 0.52334 0.7213 0.0
C939 C 0.17166 0.47567 0.75029 0.0
C940 C 0.16998 0.46093 0.77729 0.0
C941 C 0.17461 0.50846 0.74812 0.0
C942 C 0.17235 0.47939 0.80205 0.0
C943 C 0.17461 0.51198 0.80008 0.0
H944 H 0.20618 0.42255 0.53798 0.0
H945 H 0.21812 0.41592 0.44644 0.0
H946 H 0.2748 0.41842 0.4521 0.0
H947 H 0.32115 0.41563 0.48367 0.0
H948 H 0.30943 0.42525 0.57488 0.0
H949 H 0.25268 0.42873 0.56889 0.0
C950 C 0.22119 0.42245 0.51924 0.0
C951 C 0.20785 0.4189 0.49181 0.0
C952 C 0.25387 0.42413 0.52266 0.0
C953 C 0.22764 0.41888 0.46774 0.0
C954 C 0.26014 0.42001 0.471 0.0
C955 C 0.30614 0.4194 0.5021 0.0
C956 C 0.31937 0.42036 0.52968 0.0
C957 C 0.27354 0.42168 0.4984 0.0
C958 C 0.29978 0.42491 0.55346 0.0
C959 C 0.26731 0.42661 0.55002 0.0
H960 H 0.30163 0.28877 0.21429 0.0
H961 H 0.27381 0.3414 0.28868 0.0
H962 H 0.23942 0.29886 0.30378 0.0
H963 H 0.21938 0.24529 0.29728 0.0
H964 H 0.24712 0.19257 0.22294 0.0
H965 H 0.28062 0.23562 0.20717 0.0
C966 C 0.28723 0.29136 0.23327 0.0
C967 C 0.2896 0.31879 0.24985 0.0
C968 C 0.26871 0.26602 0.24262 0.0
C969 C 0.27162 0.3211 0.275 0.0
C970 C 0.2525 0.29644 0.28399 0.0
C971 C 0.23348 0.24289 0.27808 0.0
C972 C 0.23168 0.21516 0.26189 0.0
C973 C 0.25152 0.26842 0.26843 0.0
C974 C 0.24899 0.21311 0.23633 0.0
C975 C 0.26765 0.23802 0.22702 0.0
H976 H 0.98859 0.05075 0.45881 0.0
H977 H 0.9369 0.02242 0.53363 0.0
H978 H 0.98062 0.9899 0.54904 0.0
H979 H 0.03514 0.97295 0.54337 0.0
H980 H 0.08667 0.99935 0.46786 0.0
H981 H 0.04225 0.03062 0.45136 0.0
C982 C 0.98643 0.03641 0.47784 0.0
C983 C 0.95904 0.03832 0.49462 0.0
C984 C 1.01235 0.01884 0.48726 0.0
C985 C 0.95721 0.02054 0.51985 0.0
C986 C 0.98254 1.00256 0.52903 0.0
C987 C 0.03689 0.98601 0.52356 0.0
C988 C 0.06467 0.98469 0.50735 0.0
C989 C 1.0106 1.00238 0.51343 0.0
C990 C 0.066 1.00086 0.4812 0.0
C991 C 0.04036 0.01823 0.47151 0.0
H992 H 0.32238 0.79238 0.73795 0.0
H993 H 0.2819 0.8271 0.81663 0.0
H994 H 0.24542 0.78296 0.81693 0.0
H995 H 0.22335 0.73643 0.79331 0.0
H996 H 0.26338 0.7028 0.71431 0.0
H997 H 0.30329 0.74376 0.71668 0.0
C998 C 0.30553 0.79067 0.75524 0.0
C999 C 0.30465 0.8138 0.77706 0.0
C1000 C 0.2853 0.76482 0.75564 0.0
C1001 C 0.28286 0.81029 0.79934 0.0
C1002 C 0.26225 0.78479 0.79965 0.0
C1003 C 0.24151 0.73741 0.77708 0.0
C1004 C 0.24053 0.71625 0.75374 0.0
C1005 C 0.26324 0.76202 0.77787 0.0
C1006 C 0.26394 0.7181 0.73277 0.0
C1007 C 0.28628 0.74206 0.73382 0.0
H1008 H 0.48624 0.05409 0.05304 0.0
H1009 H 0.44335 0.03625 0.97127 0.0
H1010 H 0.48843 1.00476 0.9567 0.0
H1011 H 0.54072 0.98323 0.96691 0.0
H1012 H 0.58372 1.00196 0.0485 0.0
H1013 H 0.53876 0.03355 0.06285 0.0
C1014 C 0.48639 0.04265 0.03231 0.0
C1015 C 0.461 0.04679 0.01356 0.0
C1016 C 0.51307 0.02589 0.02357 0.0
C1017 C 0.46218 0.03272 0.98637 0.0
C1018 C 0.48821 0.01519 0.97785 0.0
C1019 C 0.54066 0.995 0.98748 0.0
C1020 C 0.56597 0.99083 1.00636 0.0
C1021 C 0.51408 1.01209 0.99606 0.0
C1022 C 0.56494 1.00542 0.03333 0.0
C1023 C 0.53896 0.023 0.04174 0.0
H1024 H 0.22377 0.79716 0.29007 0.0
H1025 H 0.25772 0.81968 0.20537 0.0
H1026 H 0.29262 0.77468 0.20695 0.0
H1027 H 0.31264 0.72844 0.23154 0.0
H1028 H 0.28016 0.7061 0.31673 0.0
H1029 H 0.24465 0.7509 0.31519 0.0
C1030 C 0.23911 0.79264 0.27204 0.0
C1031 C 0.23804 0.81234 0.24762 0.0
C1032 C 0.25879 0.76618 0.27284 0.0
C1033 C 0.25805 0.80548 0.22454 0.0
C1034 C 0.27782 0.77943 0.22531 0.0
C1035 C 0.2976 0.73294 0.2498 0.0
C1036 C 0.29912 0.71332 0.27422 0.0
C1037 C 0.27806 0.75939 0.24915 0.0
C1038 C 0.2794 0.7202 0.29752 0.0
C1039 C 0.25933 0.74615 0.29676 0.0
H1040 H 0.48455 0.97209 0.54265 0.0
H1041 H 0.46405 1.00255 0.45656 0.0
H1042 H 0.509 0.0376 0.45799 0.0
H1043 H 0.55519 0.05779 0.48257 0.0
H1044 H 0.57543 0.02865 0.5691 0.0
H1045 H 0.53015 0.99374 0.56798 0.0
C1046 C 0.48951 0.98672 0.52426 0.0
C1047 C 0.47054 0.98456 0.49947 0.0
C1048 C 0.51596 1.0063 0.52497 0.0
C1049 C 0.47771 1.0038 0.47601 0.0
C1050 C 0.50377 0.02356 0.47668 0.0
C1051 C 0.55011 0.04361 0.50122 0.0
C1052 C 0.56928 0.04581 0.52587 0.0
C1053 C 0.52338 0.02452 0.50081 0.0
C1054 C 0.56166 0.02728 0.54971 0.0
C1055 C 0.53546 1.00759 0.54919 0.0
H1056 H 0.21796 0.28433 0.80434 0.0
H1057 H 0.25097 0.3433 0.73614 0.0
H1058 H 0.28457 0.30126 0.7185 0.0
H1059 H 0.30248 0.24665 0.72083 0.0
H1060 H 0.2712 0.18805 0.79004 0.0
H1061 H 0.23763 0.23012 0.80784 0.0
C1062 C 0.23348 0.28838 0.78634 0.0
C1063 C 0.23283 0.31752 0.7723 0.0
C1064 C 0.25175 0.26348 0.77552 0.0
C1065 C 0.25196 0.32168 0.74807 0.0
C1066 C 0.2706 0.29732 0.73755 0.0
C1067 C 0.28784 0.2428 0.73945 0.0
C1068 C 0.28874 0.2137 0.75354 0.0
C1069 C 0.27008 0.26784 0.75063 0.0
C1070 C 0.27018 0.20971 0.77817 0.0
C1071 C 0.2515 0.23406 0.78874 0.0
H1072 H 0.98135 0.96347 0.97679 0.0
H1073 H 0.95563 0.9974 0.06077 0.0
H1074 H 0.9992 0.03415 0.05931 0.0
H1075 H 0.04509 0.05556 0.03507 0.0
H1076 H 0.07054 0.02294 0.95062 0.0
H1077 H 0.02726 0.98557 0.95212 0.0
C1078 C 0.98488 0.97916 0.99471 0.0
C1079 C 0.96479 0.9776 0.01889 0.0
C1080 C 1.01051 0.99977 0.99402 0.0
C1081 C 0.97021 0.99814 0.0418 0.0
C1082 C 0.99544 0.01893 0.04111 0.0
C1083 C 0.04157 0.04012 0.01696 0.0
C1084 C 0.0615 0.04214 0.99273 0.0
C1085 C 0.01597 0.01959 0.01754 0.0
C1086 C 0.0561 0.0218 0.96966 0.0
C1087 C 0.03101 1.0007 0.97038 0.0
H1088 H 0.72719 0.73235 0.73211 0.0
H1089 H 0.75774 0.71437 0.81864 0.0
H1090 H 0.79287 0.75933 0.81588 0.0
H1091 H 0.81317 0.8047 0.78971 0.0
H1092 H 0.7823 0.82274 0.70326 0.0
H1093 H 0.74758 0.77754 0.70592 0.0
C1094 C 0.74178 0.73788 0.75038 0.0
C1095 C 0.73976 0.71961 0.77561 0.0
C1096 C 0.76103 0.76442 0.749 0.0
C1097 C 0.75896 0.72749 0.79887 0.0
C1098 C 0.77871 0.75356 0.79742 0.0
C1099 C 0.79861 0.79913 0.77144 0.0
C1100 C 0.80039 0.81755 0.74627 0.0
C1101 C 0.77946 0.7725 0.7728 0.0
C1102 C 0.78128 0.80952 0.72299 0.0
C1103 C 0.76173 0.78333 0.72438 0.0
H1104 H 0.71234 0.22521 0.29106 0.0
H1105 H 0.74889 0.19325 0.21008 0.0
H1106 H 0.78795 0.23514 0.21098 0.0
H1107 H 0.80757 0.28395 0.23232 0.0
H1108 H 0.76854 0.31711 0.3122 0.0
H1109 H 0.73324 0.27238 0.31334 0.0
C1110 C 0.72943 0.22687 0.27393 0.0
C1111 C 0.72776 0.20596 0.25056 0.0
C1112 C 0.75029 0.25208 0.27375 0.0
C1113 C 0.74997 0.20851 0.22855 0.0
C1114 C 0.77179 0.23297 0.22877 0.0
C1115 C 0.79111 0.28174 0.24989 0.0
C1116 C 0.79051 0.30442 0.272 0.0
C1117 C 0.77131 0.25556 0.25072 0.0
C1118 C 0.76929 0.30053 0.2947 0.0
C1119 C 0.74938 0.27469 0.29555 0.0
H1120 H 0.80144 0.24513 0.80699 0.0
H1121 H 0.77938 0.19765 0.72828 0.0
H1122 H 0.74889 0.24249 0.71224 0.0
H1123 H 0.73037 0.29617 0.7196 0.0
H1124 H 0.74984 0.34298 0.79925 0.0
H1125 H 0.78112 0.29845 0.81515 0.0
C1126 C 0.78886 0.24414 0.78687 0.0
C1127 C 0.79179 0.21757 0.76928 0.0
C1128 C 0.77231 0.27062 0.77729 0.0
C1129 C 0.77655 0.21731 0.74264 0.0
C1130 C 0.75971 0.24326 0.73319 0.0
C1131 C 0.74194 0.29692 0.74021 0.0
C1132 C 0.73826 0.32327 0.75795 0.0
C1133 C 0.75805 0.27034 0.75001 0.0
C1134 C 0.75301 0.32342 0.78484 0.0
C1135 C 0.7703 0.29764 0.7942 0.0
H1136 H 0.82056 0.73842 0.28594 0.0
H1137 H 0.77734 0.69766 0.21122 0.0
H1138 H 0.74022 0.74107 0.20969 0.0
H1139 H 0.7191 0.7893 0.23054 0.0
H1140 H 0.76142 0.82921 0.30583 0.0
H1141 H 0.80138 0.78825 0.305 0.0
C1142 C 0.8029 0.73866 0.26935 0.0
C1143 C 0.80156 0.71417 0.24893 0.0
C1144 C 0.78223 0.76411 0.26816 0.0
C1145 C 0.7787 0.71562 0.22748 0.0
C1146 C 0.75773 0.7407 0.2264 0.0
C1147 C 0.73758 0.78955 0.24638 0.0
C1148 C 0.73729 0.81249 0.26821 0.0
C1149 C 0.75935 0.76504 0.2466 0.0
C1150 C 0.76134 0.81237 0.28854 0.0
C1151 C 0.78375 0.78848 0.2884 0.0
H1152 H 0.54383 0.46583 0.98115 0.0
H1153 H 0.57555 0.50523 0.06116 0.0
H1154 H 0.53125 0.54099 0.06126 0.0
H1155 H 0.48306 0.55993 0.03975 0.0
H1156 H 0.45159 0.52222 0.95901 0.0
H1157 H 0.49571 0.48586 0.95887 0.0
C1158 C 0.54147 0.48258 0.99843 0.0
C1159 C 0.56336 0.48278 0.02111 0.0
C1160 C 0.51546 0.50268 0.9987 0.0
C1161 C 0.55943 0.50457 0.04333 0.0
C1162 C 0.53384 0.52481 0.04357 0.0
C1163 C 0.48543 0.54357 0.02216 0.0
C1164 C 0.46361 0.54383 0.99945 0.0
C1165 C 0.51147 0.52368 0.02165 0.0
C1166 C 0.46761 0.52243 0.97692 0.0
C1167 C 0.49312 0.5019 0.97666 0.0
H1168 H 0.05013 0.46538 0.53658 0.0
H1169 H 0.08026 0.50364 0.45577 0.0
H1170 H 0.04004 0.54425 0.45962 0.0
H1171 H 0.993 0.56479 0.4833 0.0
H1172 H 0.96164 0.52503 0.56341 0.0
H1173 H 1.00488 0.48773 0.56165 0.0
C1174 C 0.04853 0.48326 0.52021 0.0
C1175 C 0.06845 0.4817 0.49602 0.0
C1176 C 0.02422 0.50517 0.52179 0.0
C1177 C 0.06588 0.50472 0.47487 0.0
C1178 C 0.04233 0.52742 0.47679 0.0
C1179 C 0.99529 0.54786 0.5004 0.0
C1180 C 0.97349 0.54759 0.52337 0.0
C1181 C 0.02067 0.52707 0.4996 0.0
C1182 C 0.97746 0.52556 0.54529 0.0
C1183 C 1.00249 0.50452 0.54446 0.0
H1184 H 0.05328 0.55454 0.98385 0.0
H1185 H 0.07351 0.52785 0.07105 0.0
H1186 H 0.02801 0.49303 0.07074 0.0
H1187 H 0.98168 0.47155 0.04596 0.0
H1188 H 0.96088 0.5015 0.95971 0.0
H1189 H 1.00669 0.5352 0.96019 0.0
C1190 C 0.04813 0.54099 1.0029 0.0
C1191 C 0.06725 0.54385 0.02747 0.0
C1192 C 0.02117 0.52241 1.00305 0.0
C1193 C 0.05973 0.52594 0.05172 0.0
C1194 C 0.03337 0.50638 0.05166 0.0
C1195 C 0.98678 0.48583 0.02737 0.0
C1196 C 0.96751 0.48385 1.00277 0.0
C1197 C 1.01363 0.50486 0.02758 0.0
C1198 C 0.97483 0.50258 0.97901 0.0
C1199 C 1.00135 0.52158 0.97912 0.0
H1200 H 0.55023 0.55726 0.55201 0.0
H1201 H 0.57101 0.52668 0.46577 0.0
H1202 H 0.52469 0.49383 0.46622 0.0
H1203 H 0.47741 0.47604 0.48949 0.0
H1204 H 0.45711 0.50264 0.57686 0.0
H1205 H 0.50353 0.53629 0.57689 0.0
C1206 C 0.54502 0.54297 0.53346 0.0
C1207 C 0.5643 0.54468 0.50877 0.0
C1208 C 0.5179 0.52436 0.53366 0.0
C1209 C 0.55695 0.52589 0.48507 0.0
C1210 C 0.53015 0.50738 0.48516 0.0
C1211 C 0.48276 0.48925 0.50869 0.0
C1212 C 0.46333 0.48684 0.53315 0.0
C1213 C 0.51017 0.50703 0.50905 0.0
C1214 C 0.47117 0.50426 0.55761 0.0
C1215 C 0.498 0.52315 0.55774 0.0
H1216 H 0.16782 0.22772 0.37274 0.0
H1217 H 0.13067 0.28071 0.30222 0.0
H1218 H 0.12489 0.32633 0.33317 0.0
H1219 H 0.12954 0.35133 0.38091 0.0
H1220 H 0.16961 0.29856 0.45041 0.0
H1221 H 0.17517 0.2534 0.41943 0.0
C1222 C 0.15845 0.24924 0.36416 0.0
C1223 C 0.14958 0.25062 0.33519 0.0
C1224 C 0.1558 0.27575 0.38197 0.0
C1225 C 0.13781 0.27892 0.32441 0.0
C1226 C 0.13443 0.30509 0.34213 0.0
C1227 C 0.13978 0.33008 0.38918 0.0
C1228 C 0.14921 0.32871 0.41808 0.0
C1229 C 0.14332 0.30386 0.37102 0.0
C1230 C 0.16235 0.30071 0.4283 0.0
C1231 C 0.16542 0.27461 0.41059 0.0
H1232 H 0.0485 0.93162 0.6183 0.0
H1233 H 0.99822 0.88669 0.54998 0.0
H1234 H 0.9524 0.88103 0.58112 0.0
H1235 H 0.92789 0.88518 0.62971 0.0
H1236 H 0.97894 0.93189 0.6967 0.0
H1237 H 0.02244 0.94098 0.66425 0.0
C1238 C 0.02746 0.92075 0.61015 0.0
C1239 C 0.02702 0.90929 0.58193 0.0
C1240 C 1.00104 0.918 0.62804 0.0
C1241 C 0.9993 0.8957 0.57164 0.0
C1242 C 0.97303 0.89241 0.58948 0.0
C1243 C 0.94817 0.89811 0.63687 0.0
C1244 C 0.95007 0.90774 0.66571 0.0
C1245 C 0.97369 0.90309 0.61796 0.0
C1246 C 0.97682 0.92409 0.6747 0.0
C1247 C 1.0019 0.92918 0.65618 0.0
H1248 H 0.37383 0.75157 0.82454 0.0
H1249 H 0.40364 0.8266 0.88001 0.0
H1250 H 0.41086 0.79021 0.919 0.0
H1251 H 0.40948 0.73801 0.93776 0.0
H1252 H 0.37994 0.66115 0.8847 0.0
H1253 H 0.37179 0.69737 0.84452 0.0
C1254 C 0.38186 0.7599 0.84517 0.0
C1255 C 0.38805 0.79201 0.84914 0.0
C1256 C 0.38603 0.73858 0.86801 0.0
C1257 C 0.39845 0.80226 0.87613 0.0
C1258 C 0.40269 0.7814 0.89857 0.0
C1259 C 0.40121 0.72886 0.91748 0.0
C1260 C 0.39539 0.69671 0.91439 0.0
C1261 C 0.39662 0.74964 0.89476 0.0
C1262 C 0.38457 0.68573 0.88781 0.0
C1263 C 0.37997 0.70647 0.86481 0.0
H1264 H 0.60188 0.14568 0.12964 0.0
H1265 H 0.55004 0.10366 0.19913 0.0
H1266 H 0.50479 0.09806 0.16878 0.0
H1267 H 0.47861 0.10573 0.123 0.0
H1268 H 0.52964 0.1444 0.05177 0.0
H1269 H 0.576 0.1504 0.08195 0.0
C1270 C 0.58078 0.13508 0.13799 0.0
C1271 C 0.57974 0.12508 0.16674 0.0
C1272 C 0.55438 0.13131 0.12008 0.0
C1273 C 0.55198 0.11139 0.17711 0.0
C1274 C 0.52579 0.10824 0.15978 0.0
C1275 C 0.49989 0.11541 0.11405 0.0
C1276 C 0.50056 0.12471 0.08525 0.0
C1277 C 0.52659 0.11823 0.13132 0.0
C1278 C 0.5285 0.1369 0.07391 0.0
C1279 C 0.55503 0.14045 0.09119 0.0
H1280 H 0.14086 0.67577 0.13286 0.0
H1281 H 0.17278 0.73196 0.062 0.0
H1282 H 0.18031 0.77622 0.0937 0.0
H1283 H 0.17436 0.80076 0.14078 0.0
H1284 H 0.14381 0.74548 0.21262 0.0
H1285 H 0.13925 0.69966 0.18164 0.0
C1286 C 0.15016 0.69747 0.12457 0.0
C1287 C 0.15611 0.7004 0.09498 0.0
C1288 C 0.15422 0.7234 0.14307 0.0
C1289 C 0.16779 0.72896 0.0846 0.0
C1290 C 0.17202 0.75446 0.10271 0.0
C1291 C 0.1668 0.77868 0.14971 0.0
C1292 C 0.15922 0.77678 0.17898 0.0
C1293 C 0.1646 0.75226 0.13184 0.0
C1294 C 0.14983 0.74774 0.19016 0.0
C1295 C 0.14718 0.72144 0.17242 0.0
H1296 H 0.53371 0.89252 0.44902 0.0
H1297 H 0.4665 0.92289 0.38625 0.0
H1298 H 0.50664 0.92125 0.34905 0.0
H1299 H 0.56027 0.91016 0.33393 0.0
H1300 H 0.62713 0.8762 0.39537 0.0
H1301 H 0.58779 0.88048 0.43348 0.0
C1302 C 0.52788 0.899 0.42723 0.0
C1303 C 0.49702 0.90804 0.42057 0.0
C1304 C 0.55107 0.89742 0.4057 0.0
C1305 C 0.48991 0.91586 0.39209 0.0
C1306 C 0.51292 0.91498 0.37077 0.0
C1307 C 0.56649 0.90405 0.35572 0.0
C1308 C 0.59692 0.89333 0.36177 0.0
C1309 C 0.54352 0.90572 0.37729 0.0
C1310 C 0.6041 0.88482 0.39008 0.0
C1311 C 0.58153 0.88718 0.41187 0.0
H1312 H 0.38336 0.35676 0.63533 0.0
H1313 H 0.37148 0.29299 0.56452 0.0
H1314 H 0.36253 0.25034 0.59747 0.0
H1315 H 0.36169 0.2298 0.6458 0.0
H1316 H 0.37304 0.29155 0.71792 0.0
H1317 H 0.37823 0.33607 0.68524 0.0
C1318 C 0.3783 0.33363 0.62722 0.0
C1319 C 0.37846 0.32818 0.59741 0.0
C1320 C 0.37333 0.30865 0.64651 0.0
C1321 C 0.37196 0.29795 0.58728 0.0
C1322 C 0.36679 0.27339 0.60612 0.0
C1323 C 0.36513 0.253 0.6545 0.0
C1324 C 0.36732 0.25721 0.68428 0.0
C1325 C 0.3681 0.2783 0.63569 0.0
C1326 C 0.37132 0.28759 0.69506 0.0
C1327 C 0.37439 0.31306 0.67636 0.0
H1328 H 0.98259 0.13505 0.8252 0.0
H1329 H 0.90483 0.13039 0.88396 0.0
H1330 H 0.94126 0.12303 0.924 0.0
H1331 H 0.99588 0.12025 0.94234 0.0
H1332 H 0.07219 0.12614 0.8818 0.0
H1333 H 0.0355 0.13081 0.8426 0.0
C1334 C 0.97334 0.13229 0.8467 0.0
C1335 C 0.94086 0.13338 0.85145 0.0
C1336 C 0.99429 0.12845 0.86943 0.0
C1337 C 0.92965 0.12955 0.87958 0.0
C1338 C 0.95052 0.12549 0.9025 0.0
C1339 C 1.00445 0.12239 0.92055 0.0
C1340 C 0.03696 0.12287 0.91524 0.0
C1341 C 0.983 0.12525 0.89772 0.0
C1342 C 0.04749 0.1257 0.88678 0.0
C1343 C 0.02648 0.12839 0.86421 0.0
H1344 H 0.87869 0.73415 0.57872 0.0
H1345 H 0.88849 0.65787 0.63806 0.0
H1346 H 0.88344 0.69448 0.67846 0.0
H1347 H 0.87987 0.74944 0.69662 0.0
H1348 H 0.87189 0.82407 0.63488 0.0
H1349 H 0.87284 0.78682 0.596 0.0
C1350 C 0.87953 0.72527 0.60046 0.0
C1351 C 0.88414 0.69322 0.60525 0.0
C1352 C 0.87724 0.74636 0.62331 0.0
C1353 C 0.8848 0.68237 0.63368 0.0
C1354 C 0.88215 0.70338 0.65678 0.0
C1355 C 0.8781 0.75745 0.67467 0.0
C1356 C 0.87605 0.78975 0.66892 0.0
C1357 C 0.87893 0.73562 0.65186 0.0
C1358 C 0.87379 0.79958 0.64023 0.0
C1359 C 0.87425 0.77823 0.61779 0.0
H1360 H 0.03168 0.11713 0.44313 0.0
H1361 H 0.95351 0.12869 0.38578 0.0
H1362 H 0.98883 0.13516 0.34565 0.0
H1363 H 0.04128 0.13895 0.32626 0.0
H1364 H 0.1209 0.1282 0.38171 0.0
H1365 H 0.08579 0.11999 0.42275 0.0
C1366 C 0.0224 0.12087 0.42184 0.0
C1367 C 0.98967 0.12235 0.41782 0.0
C1368 C 0.04314 0.12484 0.39832 0.0
C1369 C 0.97833 0.12737 0.38989 0.0
C1370 C 0.9986 0.13114 0.36672 0.0
C1371 C 0.05121 0.13469 0.34724 0.0
C1372 C 0.08393 0.13421 0.35065 0.0
C1373 C 0.03096 0.13013 0.37065 0.0
C1374 C 0.09593 0.12866 0.37824 0.0
C1375 C 0.07579 0.12401 0.40178 0.0
H1376 H 0.6358 0.29367 0.08514 0.0
H1377 H 0.63606 0.37301 0.14197 0.0
H1378 H 0.63646 0.33766 0.1835 0.0
H1379 H 0.63686 0.28324 0.2034 0.0
H1380 H 0.63731 0.20587 0.14421 0.0
H1381 H 0.63583 0.24153 0.1039 0.0
C1382 C 0.636 0.30353 0.10655 0.0
C1383 C 0.636 0.33608 0.11032 0.0
C1384 C 0.63601 0.28328 0.12999 0.0
C1385 C 0.63634 0.34808 0.13837 0.0
C1386 C 0.63635 0.32784 0.16212 0.0
C1387 C 0.6363 0.27438 0.18165 0.0
C1388 C 0.63723 0.24194 0.17677 0.0
C1389 C 0.63608 0.29528 0.15819 0.0
C1390 C 0.63681 0.23069 0.14851 0.0
C1391 C 0.63602 0.25106 0.12542 0.0
H1392 H 0.42886 0.89733 0.88278 0.0
H1393 H 0.49351 0.91617 0.81378 0.0
H1394 H 0.53542 0.92371 0.84779 0.0
H1395 H 0.55533 0.92171 0.89651 0.0
H1396 H 0.49247 0.90416 0.96689 0.0
H1397 H 0.44871 0.89964 0.93327 0.0
C1398 C 0.45197 0.90365 0.87529 0.0
C1399 C 0.45781 0.90587 0.84554 0.0
C1400 C 0.47661 0.9079 0.89525 0.0
C1401 C 0.48813 0.91391 0.83638 0.0
C1402 C 0.51232 0.91825 0.85586 0.0
C1403 C 0.53206 0.91704 0.90464 0.0
C1404 C 0.52742 0.91298 0.93426 0.0
C1405 C 0.50706 0.91466 0.88525 0.0
C1406 C 0.49687 0.90735 0.94422 0.0
C1407 C 0.47179 0.90469 0.92495 0.0
H1408 H 0.88409 0.29593 0.94123 0.0
H1409 H 0.88172 0.37561 0.88506 0.0
H1410 H 0.87438 0.3408 0.84369 0.0
H1411 H 0.87076 0.28668 0.82339 0.0
H1412 H 0.87402 0.2088 0.8821 0.0
H1413 H 0.87889 0.24401 0.92217 0.0
C1414 C 0.88187 0.30597 0.92001 0.0
C1415 C 0.88359 0.33849 0.91642 0.0
C1416 C 0.87792 0.28596 0.89654 0.0
C1417 C 0.88043 0.35071 0.88859 0.0
C1418 C 0.87634 0.33075 0.86489 0.0
C1419 C 0.87237 0.27749 0.84496 0.0
C1420 C 0.87211 0.24487 0.84937 0.0
C1421 C 0.87536 0.29817 0.86854 0.0
C1422 C 0.87421 0.23357 0.87765 0.0
C1423 C 0.87703 0.25375 0.90081 0.0
H1424 H 0.54407 0.16263 0.61448 0.0
H1425 H 0.50071 0.08526 0.57135 0.0
H1426 H 0.45483 0.08977 0.60284 0.0
H1427 H 0.42786 0.11492 0.64476 0.0
H1428 H 0.47218 0.19379 0.68521 0.0
H1429 H 0.51612 0.18988 0.65253 0.0
C1430 C 0.52464 0.14663 0.61205 0.0
C1431 C 0.52608 0.1233 0.59097 0.0
C1432 C 0.49816 0.14988 0.62969 0.0
C1433 C 0.50031 0.10329 0.5876 0.0
C1434 C 0.47402 0.10593 0.60558 0.0
C1435 C 0.44684 0.13156 0.64595 0.0
C1436 C 0.44669 0.15448 0.66766 0.0
C1437 C 0.47266 0.12911 0.62691 0.0
C1438 C 0.4717 0.17574 0.66895 0.0
C1439 C 0.49702 0.17349 0.65031 0.0
H1440 H 0.64294 0.73743 0.32416 0.0
H1441 H 0.65795 0.81645 0.3797 0.0
H1442 H 0.6554 0.78291 0.42156 0.0
H1443 H 0.64935 0.73163 0.44284 0.0
H1444 H 0.63629 0.65105 0.38894 0.0
H1445 H 0.63812 0.68441 0.34623 0.0
C1446 C 0.64549 0.74718 0.34546 0.0
C1447 C 0.65067 0.77947 0.34873 0.0
C1448 C 0.6447 0.72744 0.36979 0.0
C1449 C 0.6542 0.79172 0.37649 0.0
C1450 C 0.65273 0.77254 0.40052 0.0
C1451 C 0.64703 0.72118 0.42178 0.0
C1452 C 0.64274 0.68877 0.41923 0.0
C1453 C 0.64819 0.74041 0.39746 0.0
C1454 C 0.63991 0.67586 0.39162 0.0
C1455 C 0.64074 0.695 0.36717 0.0
H1456 H 0.04753 0.89071 0.18711 0.0
H1457 H 0.12492 0.89182 0.12786 0.0
H1458 H 0.08821 0.89732 0.08768 0.0
H1459 H 0.03313 0.90024 0.0694 0.0
H1460 H 0.95761 0.89855 0.13104 0.0
H1461 H 0.99462 0.89483 0.16987 0.0
C1462 C 0.05669 0.89223 0.16547 0.0
C1463 C 0.08919 0.89076 0.16073 0.0
C1464 C 0.03557 0.89522 0.14266 0.0
C1465 C 0.10014 0.89296 0.13233 0.0
C1466 C 0.07907 0.89601 0.10931 0.0
C1467 C 0.02481 0.89922 0.09132 0.0
C1468 C 0.99228 0.89968 0.09693 0.0
C1469 C 0.04657 0.89695 0.11417 0.0
C1470 C 0.98222 0.89826 0.12566 0.0
C1471 C 1.00346 0.8961 0.14811 0.0
H1472 H 0.6615 0.78471 0.82837 0.0
H1473 H 0.65331 0.70868 0.88861 0.0
H1474 H 0.64471 0.74539 0.92736 0.0
H1475 H 0.63829 0.79831 0.94455 0.0
H1476 H 0.64639 0.87581 0.88621 0.0
H1477 H 0.6563 0.83934 0.84653 0.0
C1478 C 0.65804 0.77619 0.85 0.0
C1479 C 0.65816 0.7437 0.85531 0.0
C1480 C 0.65298 0.79769 0.87262 0.0
C1481 C 0.6535 0.73332 0.8836 0.0
C1482 C 0.64848 0.75437 0.90593 0.0
C1483 C 0.64226 0.8075 0.92321 0.0
C1484 C 0.64147 0.83999 0.91853 0.0
C1485 C 0.64798 0.7865 0.90069 0.0
C1486 C 0.64687 0.85105 0.89059 0.0
C1487 C 0.6525 0.83012 0.86786 0.0
H1488 H 0.55106 0.41647 0.13014 0.0
H1489 H 0.49429 0.39164 0.05753 0.0
H1490 H 0.44872 0.38593 0.08876 0.0
H1491 H 0.42529 0.38486 0.13787 0.0
H1492 H 0.48311 0.41095 0.20954 0.0
H1493 H 0.52716 0.41963 0.17775 0.0
C1494 C 0.52871 0.40996 0.12108 0.0
C1495 C 0.52637 0.40435 0.09147 0.0
C1496 C 0.50242 0.40698 0.13914 0.0
C1497 C 0.49696 0.39619 0.08022 0.0
C1498 C 0.47077 0.39286 0.09812 0.0
C1499 C 0.44732 0.3931 0.14637 0.0
C1500 C 0.45071 0.39703 0.1762 0.0
C1501 C 0.47318 0.39789 0.12777 0.0
C1502 C 0.47971 0.40743 0.18677 0.0
C1503 C 0.50511 0.41236 0.16859 0.0
H1504 H 0.88822 0.17239 0.38782 0.0
H1505 H 0.86718 0.23292 0.45917 0.0
H1506 H 0.85869 0.27634 0.42681 0.0
H1507 H 0.8605 0.29864 0.37859 0.0
H1508 H 0.88061 0.23898 0.30649 0.0
H1509 H 0.88614 0.1943 0.33848 0.0
C1510 C 0.88114 0.19491 0.39614 0.0
C1511 C 0.87856 0.19928 0.42595 0.0
C1512 C 0.87653 0.22031 0.37726 0.0
C1513 C 0.86965 0.22883 0.43637 0.0
C1514 C 0.86484 0.25384 0.41787 0.0
C1515 C 0.86598 0.27586 0.36984 0.0
C1516 C 0.87029 0.27238 0.34016 0.0
C1517 C 0.86888 0.2501 0.38834 0.0
C1518 C 0.87712 0.24249 0.32926 0.0
C1519 C 0.88032 0.21681 0.34756 0.0
H1520 H 0.03585 0.63596 0.5746 0.0
H1521 H 0.96435 0.61342 0.63652 0.0
H1522 H 1.00277 0.61553 0.67495 0.0
H1523 H 0.05628 0.6251 0.69154 0.0
H1524 H 0.12757 0.65074 0.63057 0.0
H1525 H 0.08983 0.64592 0.59145 0.0
C1526 C 0.02868 0.63129 0.59647 0.0
C1527 C 0.99706 0.62437 0.60245 0.0
C1528 C 0.05096 0.63307 0.61877 0.0
C1529 C 0.98835 0.61881 0.63109 0.0
C1530 C 1.01038 0.61997 0.65318 0.0
C1531 C 0.06377 0.62924 0.66966 0.0
C1532 C 0.09503 0.63788 0.66412 0.0
C1533 C 0.04172 0.62719 0.64733 0.0
C1534 C 0.10387 0.64382 0.63558 0.0
C1535 C 0.08221 0.64115 0.61316 0.0
H1536 H 0.65823 0.18262 0.63022 0.0
H1537 H 0.59666 0.24072 0.5801 0.0
H1538 H 0.60513 0.2839 0.61235 0.0
H1539 H 0.63049 0.30655 0.65384 0.0
H1540 H 0.68931 0.24975 0.70725 0.0
H1541 H 0.68165 0.20524 0.67486 0.0
C1542 C 0.64649 0.20462 0.62656 0.0
C1543 C 0.62721 0.20822 0.60229 0.0
C1544 C 0.65123 0.22996 0.64564 0.0
C1545 C 0.61206 0.23706 0.59816 0.0
C1546 C 0.61684 0.26201 0.61666 0.0
C1547 C 0.64193 0.28453 0.65831 0.0
C1548 C 0.661 0.28175 0.68259 0.0
C1549 C 0.63666 0.25894 0.64018 0.0
C1550 C 0.67485 0.2527 0.68846 0.0
C1551 C 0.67034 0.22717 0.66998 0.0
H1552 H 0.97441 0.42124 0.89133 0.0
H1553 H 0.03138 0.38951 0.96148 0.0
H1554 H 0.07636 0.38495 0.92961 0.0
H1555 H 0.09957 0.38773 0.88081 0.0
H1556 H 0.0423 0.42049 0.81119 0.0
H1557 H 0.9983 0.42727 0.84358 0.0
C1558 C 0.99666 0.41338 0.89964 0.0
C1559 C 0.99925 0.40567 0.92883 0.0
C1560 C 0.02281 0.41114 0.88118 0.0
C1561 C 0.02853 0.39577 0.93916 0.0
C1562 C 0.05442 0.39311 0.92091 0.0
C1563 C 0.07768 0.39698 0.8729 0.0
C1564 C 0.07447 0.4035 0.84348 0.0
C1565 C 0.05192 0.4006 0.89177 0.0
C1566 C 0.0456 0.41507 0.83365 0.0
C1567 C 0.02022 0.41889 0.85217 0.0
H1568 H 0.88357 0.78814 0.07915 0.0
H1569 H 0.87965 0.86712 0.13629 0.0
H1570 H 0.87489 0.83151 0.1774 0.0
H1571 H 0.87423 0.77725 0.19706 0.0
H1572 H 0.87944 0.69978 0.13797 0.0
H1573 H 0.88146 0.73563 0.09786 0.0
C1574 C 0.88153 0.79786 0.10053 0.0
C1575 C 0.88205 0.83049 0.10445 0.0
C1576 C 0.87922 0.77737 0.12386 0.0
C1577 C 0.87917 0.84223 0.13248 0.0
C1578 C 0.87662 0.8218 0.15602 0.0
C1579 C 0.87566 0.76822 0.1754 0.0
C1580 C 0.87672 0.73559 0.1708 0.0
C1581 C 0.87699 0.78922 0.152 0.0
C1582 C 0.87859 0.72453 0.14245 0.0
C1583 C 0.87976 0.74509 0.11935 0.0
H1584 H 0.55428 0.60889 0.39836 0.0
H1585 H 0.49881 0.63981 0.47011 0.0
H1586 H 0.45361 0.6465 0.43888 0.0
H1587 H 0.43013 0.6464 0.38995 0.0
H1588 H 0.48625 0.61379 0.31915 0.0
H1589 H 0.52998 0.60458 0.35097 0.0
C1590 C 0.53229 0.61697 0.4072 0.0
C1591 C 0.5302 0.62395 0.43658 0.0
C1592 C 0.50609 0.62039 0.38915 0.0
C1593 C 0.50125 0.63414 0.4476 0.0
C1594 C 0.47526 0.63803 0.4297 0.0
C1595 C 0.45168 0.63663 0.38168 0.0
C1596 C 0.45473 0.63102 0.35205 0.0
C1597 C 0.47735 0.63147 0.40029 0.0
C1598 C 0.48313 0.61863 0.34176 0.0
C1599 C 0.50837 0.6134 0.35996 0.0
H1600 H 0.37732 0.23178 0.08278 0.0
H1601 H 0.38976 0.15499 0.1412 0.0
H1602 H 0.38184 0.19058 0.18201 0.0
H1603 H 0.37464 0.24482 0.20071 0.0
H1604 H 0.36371 0.32002 0.14001 0.0
H1605 H 0.3678 0.28359 0.10052 0.0
C1606 C 0.37829 0.22257 0.1044 0.0
C1607 C 0.3845 0.19076 0.10889 0.0
C1608 C 0.37406 0.243 0.12741 0.0
C1609 C 0.38507 0.17938 0.13712 0.0
C1610 C 0.38066 0.19977 0.16042 0.0
C1611 C 0.37281 0.25307 0.17884 0.0
C1612 C 0.36911 0.28524 0.17343 0.0
C1613 C 0.37558 0.23181 0.15582 0.0
C1614 C 0.36687 0.29555 0.14492 0.0
C1615 C 0.36917 0.27471 0.12223 0.0
H1616 H 0.53794 0.62199 0.94987 0.0
H1617 H 0.46391 0.60634 0.88885 0.0
H1618 H 0.50085 0.60995 0.84958 0.0
H1619 H 0.55293 0.62119 0.83177 0.0
H1620 H 0.62834 0.63737 0.89084 0.0
H1621 H 0.5924 0.62955 0.93138 0.0
C1622 C 0.53004 0.61889 0.92801 0.0
C1623 C 0.49794 0.61412 0.92253 0.0
C1624 C 0.55165 0.62128 0.90503 0.0
C1625 C 0.48824 0.61032 0.89394 0.0
C1626 C 0.50941 0.61238 0.87131 0.0
C1627 C 0.56171 0.62279 0.85349 0.0
C1628 C 0.59334 0.63007 0.85815 0.0
C1629 C 0.54097 0.61848 0.87652 0.0
C1630 C 0.60418 0.63167 0.88655 0.0
C1631 C 0.58354 0.62737 0.90976 0.0
H1632 H 0.13807 0.79234 0.70019 0.0
H1633 H 0.16527 0.71757 0.64337 0.0
H1634 H 0.1637 0.75279 0.60274 0.0
H1635 H 0.15437 0.80397 0.58276 0.0
H1636 H 0.12816 0.8806 0.63752 0.0
H1637 H 0.13019 0.84581 0.67944 0.0
C1638 C 0.14355 0.78384 0.67889 0.0
C1639 C 0.1518 0.75218 0.67498 0.0
C1640 C 0.14311 0.80461 0.65524 0.0
C1641 C 0.15907 0.74171 0.64719 0.0
C1642 C 0.15817 0.76186 0.62384 0.0
C1643 C 0.1492 0.81331 0.60385 0.0
C1644 C 0.14104 0.84497 0.60685 0.0
C1645 C 0.15029 0.79327 0.62757 0.0
C1646 C 0.13475 0.85645 0.63451 0.0
C1647 C 0.13567 0.83644 0.65846 0.0
H1648 H 0.98104 0.38592 0.32813 0.0
H1649 H 0.90238 0.3793 0.38565 0.0
H1650 H 0.93786 0.38066 0.42685 0.0
H1651 H 0.99197 0.38358 0.44651 0.0
H1652 H 0.06929 0.3921 0.38764 0.0
H1653 H 0.03368 0.38967 0.34712 0.0
C1654 C 0.97147 0.38488 0.34965 0.0
C1655 C 0.93896 0.38258 0.35368 0.0
C1656 C 0.99193 0.38572 0.37309 0.0
C1657 C 0.92723 0.38136 0.38184 0.0
C1658 C 0.94757 0.38193 0.40542 0.0
C1659 C 1.00091 0.38462 0.42478 0.0
C1660 C 0.03329 0.38791 0.4201 0.0
C1661 C 0.98005 0.38396 0.40133 0.0
C1662 C 0.04452 0.38968 0.39184 0.0
C1663 C 0.02416 0.38833 0.36862 0.0
H1664 H 0.37421 0.79883 0.43969 0.0
H1665 H 0.39226 0.87493 0.38182 0.0
H1666 H 0.38713 0.83923 0.34075 0.0
H1667 H 0.38132 0.78467 0.32164 0.0
H1668 H 0.36402 0.71026 0.38199 0.0
H1669 H 0.36509 0.74692 0.42133 0.0
C1670 C 0.3768 0.80785 0.4181 0.0
C1671 C 0.3838 0.83957 0.41396 0.0
C1672 C 0.37418 0.78725 0.39484 0.0
C1673 C 0.38669 0.85068 0.38572 0.0
C1674 C 0.38398 0.83017 0.36222 0.0
C1675 C 0.37742 0.77662 0.34336 0.0
C1676 C 0.37294 0.74444 0.34861 0.0
C1677 C 0.37827 0.79815 0.36651 0.0
C1678 C 0.36796 0.7346 0.37704 0.0
C1679 C 0.36848 0.75563 0.39975 0.0
H1680 H 0.99134 0.63783 0.19358 0.0
H1681 H 0.91224 0.61766 0.1397 0.0
H1682 H 0.94736 0.61236 0.09816 0.0
H1683 H 1.00126 0.61509 0.07701 0.0
H1684 H 0.07838 0.63681 0.13321 0.0
H1685 H 0.04319 0.63997 0.17363 0.0
C1686 C 0.98149 0.63208 0.17285 0.0
C1687 C 0.949 0.62809 0.16998 0.0
C1688 C 1.00162 0.62952 0.14924 0.0
C1689 C 0.9371 0.62069 0.14273 0.0
C1690 C 0.95722 0.61781 0.11891 0.0
C1691 C 1.01031 0.62046 0.09811 0.0
C1692 C 0.0427 0.62562 0.10175 0.0
C1693 C 0.98963 0.62244 0.12184 0.0
C1694 C 0.05381 0.63259 0.1294 0.0
C1695 C 0.03364 0.63444 0.15275 0.0
H1696 H 0.15999 0.24765 0.82285 0.0
H1697 H 0.13502 0.32263 0.88045 0.0
H1698 H 0.13158 0.2863 0.91995 0.0
H1699 H 0.13463 0.23393 0.93871 0.0
H1700 H 0.15818 0.15705 0.88311 0.0
H1701 H 0.16336 0.19337 0.84261 0.0
C1702 C 0.1538 0.256 0.84404 0.0
C1703 C 0.14785 0.28814 0.84837 0.0
C1704 C 0.15168 0.23465 0.8672 0.0
C1705 C 0.13989 0.2983 0.87615 0.0
C1706 C 0.13786 0.27746 0.89895 0.0
C1707 C 0.14112 0.22484 0.91784 0.0
C1708 C 0.14616 0.19258 0.91423 0.0
C1709 C 0.14365 0.24568 0.89476 0.0
C1710 C 0.15432 0.18168 0.88675 0.0
C1711 C 0.15717 0.20249 0.86352 0.0
H1712 H 0.54647 0.36991 0.68728 0.0
H1713 H 0.62193 0.40953 0.63798 0.0
H1714 H 0.58548 0.42 0.59838 0.0
H1715 H 0.53103 0.4183 0.57825 0.0
H1716 H 0.45763 0.37874 0.63063 0.0
H1717 H 0.49451 0.36818 0.66836 0.0
C1718 C 0.55529 0.38091 0.66797 0.0
C1719 C 0.58707 0.38901 0.66584 0.0
C1720 C 0.53435 0.38705 0.64571 0.0
C1721 C 0.59764 0.40306 0.64036 0.0
C1722 C 0.57673 0.40908 0.61772 0.0
C1723 C 0.52319 0.40743 0.59794 0.0
C1724 C 0.49129 0.39962 0.6014 0.0
C1725 C 0.54485 0.40129 0.62019 0.0
C1726 C 0.48173 0.3854 0.62715 0.0
C1727 C 0.50289 0.37917 0.6489 0.0
H1728 H 0.07417 0.26426 0.25744 0.0
H1729 H 0.02267 0.17774 0.2592 0.0
H1730 H 0.97354 0.20672 0.25908 0.0
H1731 H 0.94569 0.25641 0.26028 0.0
H1732 H 0.99738 0.34283 0.25827 0.0
H1733 H 0.04637 0.3138 0.25657 0.0
C1734 C 0.05221 0.25167 0.25772 0.0
C1735 C 0.05197 0.21893 0.25848 0.0
C1736 C 0.02426 0.26838 0.25764 0.0
C1737 C 0.02338 0.20296 0.25855 0.0
C1738 C 0.99535 0.21949 0.25858 0.0
C1739 C 0.96766 0.26894 0.25939 0.0
C1740 C 0.96799 0.3017 0.25954 0.0
C1741 C 0.99559 0.25218 0.2584 0.0
C1742 C 0.99658 0.3176 0.25811 0.0
C1743 C 0.02454 0.30105 0.25723 0.0
H1744 H 0.01786 0.82991 0.50915 0.0
H1745 H 0.10332 0.77725 0.51729 0.0
H1746 H 0.07314 0.729 0.52095 0.0
H1747 H 0.02269 0.70252 0.52313 0.0
H1748 H 0.93747 0.75551 0.51469 0.0
H1749 H 0.96775 0.80348 0.51007 0.0
C1750 C 0.03 0.8079 0.51163 0.0
C1751 C 0.06276 0.80707 0.51305 0.0
C1752 C 1.01264 0.78056 0.51386 0.0
C1753 C 0.07811 0.77839 0.51603 0.0
C1754 C 0.06089 0.7509 0.51827 0.0
C1755 C 1.01069 0.72457 0.52036 0.0
C1756 C 0.97791 0.7256 0.51937 0.0
C1757 C 0.02817 0.75183 0.51748 0.0
C1758 C 0.9627 0.75422 0.51548 0.0
C1759 C 0.97996 0.78157 0.51284 0.0
H1760 H 0.45659 0.76509 0.76327 0.0
H1761 H 0.51087 0.84986 0.76118 0.0
H1762 H 0.55903 0.81934 0.76383 0.0
H1763 H 0.58499 0.76897 0.76911 0.0
H1764 H 0.53053 0.68429 0.77076 0.0
H1765 H 0.48258 0.71473 0.76605 0.0
C1766 C 0.47896 0.77693 0.76328 0.0
C1767 C 0.48034 0.80962 0.7623 0.0
C1768 C 0.50625 0.75937 0.76495 0.0
C1769 C 0.50938 0.82468 0.76187 0.0
C1770 C 0.5368 0.80729 0.76356 0.0
C1771 C 0.56262 0.75716 0.76852 0.0
C1772 C 0.56109 0.72453 0.7706 0.0
C1773 C 0.5354 0.77469 0.76556 0.0
C1774 C 0.53211 0.70944 0.76927 0.0
C1775 C 0.5048 0.72678 0.76659 0.0
H1776 H 0.51374 0.20007 0.01361 0.0
H1777 H 0.4294 0.25528 0.01399 0.0
H1778 H 0.4606 0.30295 0.01404 0.0
H1779 H 0.51143 0.32856 0.0154 0.0
H1780 H 0.59579 0.27342 0.015 0.0
H1781 H 0.56462 0.22572 0.01345 0.0
C1782 C 0.50208 0.2225 0.01359 0.0
C1783 C 0.46925 0.22413 0.01386 0.0
C1784 C 0.52008 0.24968 0.01367 0.0
C1785 C 0.45461 0.25339 0.01372 0.0
C1786 C 0.47242 0.28062 0.01383 0.0
C1787 C 0.5231 0.30614 0.01491 0.0
C1788 C 0.55591 0.30451 0.0154 0.0
C1789 C 0.50512 0.27898 0.01402 0.0
C1790 C 0.57059 0.27528 0.01457 0.0
C1791 C 0.55279 0.24805 0.01375 0.0
H1792 H 0.95501 0.76687 0.25114 0.0
H1793 H 1.0096 0.6825 0.2571 0.0
H1794 H 0.05749 0.71328 0.25874 0.0
H1795 H 0.08352 0.76366 0.25763 0.0
H1796 H 0.02928 0.84828 0.2522 0.0
H1797 H 0.98116 0.81761 0.2515 0.0
C1798 C 0.97739 0.7552 0.25275 0.0
C1799 C 0.97887 0.72249 0.25388 0.0
C1800 C 1.00469 0.77298 0.25392 0.0
C1801 C 1.00794 0.70768 0.25626 0.0
C1802 C 0.03527 0.72522 0.25717 0.0
C1803 C 0.06119 0.77548 0.25638 0.0
C1804 C 0.05989 0.80817 0.25488 0.0
C1805 C 0.03386 0.75782 0.25593 0.0
C1806 C 0.03081 0.82313 0.2535 0.0
C1807 C 1.00336 0.80563 0.25296 0.0
H1808 H 0.51523 0.70047 0.50924 0.0
H1809 H 0.60114 0.75315 0.50872 0.0
H1810 H 0.57142 0.80164 0.50477 0.0
H1811 H 0.52124 0.82852 0.50065 0.0
H1812 H 0.43555 0.77549 0.502 0.0
H1813 H 0.46533 0.72721 0.50624 0.0
C1814 C 0.52755 0.72254 0.50835 0.0
C1815 C 0.56032 0.7233 0.50923 0.0
C1816 C 0.51044 0.75006 0.50606 0.0
C1817 C 0.57589 0.75205 0.50824 0.0
C1818 C 0.55895 0.7797 0.50584 0.0
C1819 C 0.50907 0.80639 0.50176 0.0
C1820 C 0.47629 0.80545 0.50091 0.0
C1821 C 0.52625 0.77889 0.50454 0.0
C1822 C 0.46079 0.77671 0.50268 0.0
C1823 C 0.47776 0.74917 0.5051 0.0
H1824 H 0.49731 0.20275 0.75108 0.0
H1825 H 0.43444 0.27485 0.77989 0.0
H1826 H 0.47711 0.31233 0.7809 0.0
H1827 H 0.53169 0.32529 0.77141 0.0
H1828 H 0.59442 0.25355 0.74125 0.0
H1829 H 0.55244 0.21544 0.74284 0.0
C1830 C 0.49318 0.22653 0.75802 0.0
C1831 C 0.46297 0.23608 0.76539 0.0
C1832 C 0.51766 0.24816 0.75798 0.0
C1833 C 0.45763 0.26705 0.77398 0.0
C1834 C 0.48194 0.28852 0.77451 0.0
C1835 C 0.53616 0.30133 0.76521 0.0
C1836 C 0.56607 0.29234 0.75626 0.0
C1837 C 0.51194 0.27947 0.76609 0.0
C1838 C 0.57156 0.26113 0.74835 0.0
C1839 C 0.5476 0.23924 0.74925 0.0
H1840 H 0.0175 0.32762 1.00407 0.0
H1841 H 0.93118 0.27565 1.00342 0.0
H1842 H 0.96046 0.22681 1.00147 0.0
H1843 H 1.01035 0.19927 0.9992 0.0
H1844 H 0.09664 0.25121 1.00101 0.0
H1845 H 0.06736 0.30005 1.00325 0.0
C1846 C 1.00505 0.30561 1.00354 0.0
C1847 C 0.97225 0.30517 1.00382 0.0
C1848 C 0.02195 0.27779 1.00259 0.0
C1849 C 0.95644 0.27652 1.00336 0.0
C1850 C 0.97314 0.24866 1.00214 0.0
C1851 C 0.02277 0.22129 1.00003 0.0
C1852 C 0.05556 0.22176 0.99984 0.0
C1853 C 1.00586 0.24908 1.00161 0.0
C1854 C 0.07137 0.25035 1.00125 0.0
C1855 C 0.05468 0.27821 1.00247 0.0
H1856 H 0.07708 0.76223 0.76487 0.0
H1857 H 0.02691 0.68613 0.72542 0.0
H1858 H 0.98114 0.71985 0.71993 0.0
H1859 H 0.95573 0.77005 0.7277 0.0
H1860 H 1.00621 0.84559 0.76781 0.0
H1861 H 0.05242 0.8125 0.77131 0.0
C1862 C 0.05611 0.75278 0.7552 0.0
C1863 C 0.05509 0.72158 0.74598 0.0
C1864 C 0.03032 0.77211 0.75211 0.0
C1865 C 0.02801 0.70998 0.73297 0.0
C1866 C 1.002 0.72923 0.72978 0.0
C1867 C 0.97682 0.77937 0.73725 0.0
C1868 C 0.97753 0.8101 0.74786 0.0
C1869 C 1.00294 0.76021 0.73949 0.0
C1870 C 1.00512 0.82198 0.75966 0.0
C1871 C 0.03142 0.80307 0.76174 0.0
H1872 H 0.0303 0.31289 0.52703 0.0
H1873 H 0.09977 0.26942 0.47287 0.0
H1874 H 0.06726 0.22242 0.46992 0.0
H1875 H 0.01807 0.19553 0.48092 0.0
H1876 H 0.94838 0.24121 0.53336 0.0
H1877 H 0.98231 0.28644 0.53828 0.0
C1878 C 0.0386 0.29317 0.51459 0.0
C1879 C 0.06733 0.2946 0.50005 0.0
C1880 C 0.01967 0.26703 0.51242 0.0
C1881 C 0.07775 0.26874 0.48431 0.0
C1882 C 0.05911 0.24207 0.48249 0.0
C1883 C 1.01033 0.21535 0.49351 0.0
C1884 C 0.98079 0.21513 0.50679 0.0
C1885 C 0.02984 0.24125 0.49613 0.0
C1886 C 0.97096 0.24095 0.52286 0.0
C1887 C 0.99035 0.2667 0.52578 0.0
H1888 H 0.44052 0.25333 0.24108 0.0
H1889 H 0.4994 0.33182 0.26249 0.0
H1890 H 0.54546 0.29883 0.25804 0.0
H1891 H 0.56833 0.24821 0.25028 0.0
H1892 H 0.51065 0.16831 0.23152 0.0
H1893 H 0.46417 0.20205 0.23169 0.0
C1894 C 0.46343 0.26327 0.24484 0.0
C1895 C 0.46659 0.29494 0.25251 0.0
C1896 C 0.48971 0.24415 0.24243 0.0
C1897 C 0.49637 0.30749 0.25699 0.0
C1898 C 0.52266 0.28871 0.25428 0.0
C1899 C 0.54558 0.23798 0.24628 0.0
C1900 C 0.54264 0.20575 0.24157 0.0
C1901 C 0.51946 0.25708 0.24736 0.0
C1902 C 0.51329 0.19304 0.23545 0.0
C1903 C 0.48686 0.21226 0.23577 0.0
H1904 H 0.58427 0.78373 0.9961 0.0
H1905 H 0.515 0.84239 0.03618 0.0
H1906 H 0.47801 0.7993 0.03715 0.0
H1907 H 0.4642 0.74639 0.02352 0.0
H1908 H 0.53257 0.68774 0.98189 0.0
H1909 H 0.57106 0.72947 0.98444 0.0
C1910 C 0.56128 0.78671 1.00551 0.0
C1911 C 0.55213 0.81587 0.01593 0.0
C1912 C 0.53986 0.76213 1.0053 0.0
C1913 C 0.52227 0.81994 0.02785 0.0
C1914 C 0.50113 0.79545 0.02834 0.0
C1915 C 0.4875 0.74276 0.01499 0.0
C1916 C 0.49549 0.71426 1.00241 0.0
C1917 C 0.50943 0.76671 0.01648 0.0
C1918 C 0.52587 0.70965 0.9917 0.0
C1919 C 0.54792 0.73341 0.99316 0.0
H1920 H 0.94779 0.26985 0.76333 0.0
H1921 H 1.00105 0.18439 0.76394 0.0
H1922 H 0.04953 0.21426 0.76134 0.0
H1923 H 0.07627 0.26428 0.7609 0.0
H1924 H 0.02329 0.34987 0.75993 0.0
H1925 H 0.97461 0.31999 0.76035 0.0
C1926 C 0.97001 0.25775 0.76291 0.0
C1927 C 0.97105 0.22507 0.76411 0.0
C1928 C 0.99755 0.27497 0.76127 0.0
C1929 C 0.99985 0.20959 0.76307 0.0
C1930 C 0.02746 0.2266 0.76163 0.0
C1931 C 0.05406 0.27643 0.76071 0.0
C1932 C 0.05314 0.30912 0.76067 0.0
C1933 C 0.0265 0.25924 0.76102 0.0
C1934 C 0.02437 0.32465 0.75993 0.0
C1935 C 0.99666 0.30763 0.76031 0.0
H1936 H 0.4458 0.28097 0.51327 0.0
H1937 H 0.52114 0.34659 0.50158 0.0
H1938 H 0.55837 0.30413 0.49727 0.0
H1939 H 0.57027 0.24897 0.50097 0.0
H1940 H 0.49573 0.18283 0.51464 0.0
H1941 H 0.45751 0.22485 0.51378 0.0
C1942 C 0.4703 0.28581 0.50936 0.0
C1943 C 0.48082 0.31666 0.50809 0.0
C1944 C 0.49178 0.2613 0.50746 0.0
C1945 C 0.5126 0.32288 0.50307 0.0
C1946 C 0.53392 0.29868 0.50055 0.0
C1947 C 0.54565 0.24367 0.50344 0.0
C1948 C 0.53592 0.21296 0.5081 0.0
C1949 C 0.52388 0.26787 0.50342 0.0
C1950 C 0.50389 0.20643 0.5112 0.0
C1951 C 0.48197 0.2304 0.51074 0.0
H1952 H 0.44937 0.76949 0.28249 0.0
H1953 H 0.50674 0.68878 0.26461 0.0
H1954 H 0.5536 0.72012 0.27154 0.0
H1955 H 0.57758 0.77026 0.27963 0.0
H1956 H 0.52116 0.85212 0.29416 0.0
H1957 H 0.47384 0.81976 0.29292 0.0
C1958 C 0.47211 0.7587 0.28002 0.0
C1959 C 0.47473 0.72699 0.27256 0.0
C1960 C 0.49876 0.7768 0.28386 0.0
C1961 C 0.50425 0.71325 0.26984 0.0
C1962 C 0.53094 0.73105 0.27402 0.0
C1963 C 0.55489 0.78108 0.28262 0.0
C1964 C 0.55246 0.81345 0.28624 0.0
C1965 C 0.52833 0.7628 0.28061 0.0
C1966 C 0.52329 0.82719 0.29109 0.0
C1967 C 0.49642 0.80879 0.29008 0.0
H1968 H 0.01561 0.82355 0.01081 0.0
H1969 H 0.93168 0.76828 0.01786 0.0
H1970 H 0.96283 0.72057 0.01645 0.0
H1971 H 1.01366 0.69532 0.01539 0.0
H1972 H 0.09761 0.75058 1.00834 0.0
H1973 H 0.06629 0.79817 1.00734 0.0
C1974 C 1.00412 0.80105 0.01205 0.0
C1975 C 0.97156 0.7992 0.01475 0.0
C1976 C 0.02202 0.77403 0.0112 0.0
C1977 C 0.9568 0.77006 0.01581 0.0
C1978 C 0.97454 0.74291 0.01507 0.0
C1979 C 0.02513 0.71778 0.0136 0.0
C1980 C 0.05779 0.71968 0.01224 0.0
C1981 C 1.00714 0.74474 0.01312 0.0
C1982 C 0.07242 0.74874 1.00943 0.0
C1983 C 0.0546 0.77584 1.00897 0.0
H1984 H 0.15372 0.16499 0.08134 0.0
H1985 H 0.06907 0.1106 0.0828 0.0
H1986 H 0.07089 0.10857 0.13515 0.0
H1987 H 0.09454 0.12562 0.18071 0.0
H1988 H 0.17608 0.18435 0.17883 0.0
H1989 H 0.17783 0.18104 0.12653 0.0
C1990 C 0.13585 0.15242 0.09311 0.0
C1991 C 0.11125 0.13806 0.07828 0.0
C1992 C 0.13653 0.15216 0.12316 0.0
C1993 C 0.08811 0.12207 0.09381 0.0
C1994 C 0.08917 0.12085 0.12371 0.0
C1995 C 0.11294 0.13717 0.16875 0.0
C1996 C 0.13528 0.155 0.18335 0.0
C1997 C 0.11298 0.13624 0.13865 0.0
C1998 C 0.15871 0.17046 0.16783 0.0
C1999 C 0.15965 0.16865 0.138 0.0
H2000 H 0.10144 0.91388 0.42244 0.0
H2001 H 0.16976 0.84409 0.44405 0.0
H2002 H 0.17998 0.83461 0.39317 0.0
H2003 H 0.16708 0.84416 0.34237 0.0
H2004 H 0.10142 0.91676 0.32123 0.0
H2005 H 0.09274 0.9273 0.37196 0.0
C2006 C 0.11874 0.89679 0.41593 0.0
C2007 C 0.13461 0.87949 0.4368 0.0
C2008 C 0.12488 0.89189 0.38673 0.0
C2009 C 0.1573 0.85772 0.42826 0.0
C2010 C 0.16303 0.85218 0.3992 0.0
C2011 C 0.15106 0.8624 0.34896 0.0
C2012 C 0.13469 0.87941 0.32815 0.0
C2013 C 0.1466 0.8688 0.37823 0.0
C2014 C 0.11433 0.90333 0.33687 0.0
C2015 C 0.10923 0.90931 0.36587 0.0
H2016 H 0.43034 0.90353 0.68209 0.0
H2017 H 0.36195 0.82986 0.68187 0.0
H2018 H 0.36051 0.83094 0.62942 0.0
H2019 H 0.38111 0.85085 0.58356 0.0
H2020 H 0.45348 0.92067 0.58426 0.0
H2021 H 0.45092 0.92329 0.63652 0.0
C2022 C 0.41486 0.88801 0.67053 0.0
C2023 C 0.39615 0.86678 0.68569 0.0
C2024 C 0.41505 0.88797 0.64047 0.0
C2025 C 0.37658 0.84637 0.67053 0.0
C2026 C 0.37576 0.84698 0.6406 0.0
C2027 C 0.39606 0.86681 0.59523 0.0
C2028 C 0.41743 0.88556 0.58024 0.0
C2029 C 0.39524 0.86737 0.62533 0.0
C2030 C 0.43698 0.9059 0.59548 0.0
C2031 C 0.43551 0.90743 0.62531 0.0
H2032 H 0.36031 0.18848 0.84754 0.0
H2033 H 0.42838 0.11836 0.8251 0.0
H2034 H 0.43694 0.10692 0.87553 0.0
H2035 H 0.42778 0.1193 0.92608 0.0
H2036 H 0.3578 0.1872 0.94892 0.0
H2037 H 0.34706 0.19685 0.89832 0.0
C2038 C 0.37681 0.17057 0.85377 0.0
C2039 C 0.39393 0.15459 0.83276 0.0
C2040 C 0.38136 0.16376 0.88283 0.0
C2041 C 0.41491 0.13105 0.84096 0.0
C2042 C 0.41994 0.12453 0.86978 0.0
C2043 C 0.41003 0.136 0.91989 0.0
C2044 C 0.39388 0.15277 0.94097 0.0
C2045 C 0.40372 0.14113 0.89088 0.0
C2046 C 0.37054 0.17401 0.93291 0.0
C2047 C 0.36448 0.17966 0.90403 0.0
H2048 H 0.94282 0.90256 0.92398 0.0
H2049 H 0.87097 0.83556 0.94383 0.0
H2050 H 0.86188 0.8266 0.89294 0.0
H2051 H 0.87413 0.83786 0.84231 0.0
H2052 H 0.94269 0.90821 0.82253 0.0
H2053 H 0.9532 0.91574 0.8734 0.0
C2054 C 0.92524 0.88601 0.91708 0.0
C2055 C 0.90773 0.86972 0.93764 0.0
C2056 C 0.91947 0.88154 0.88766 0.0
C2057 C 0.88472 0.84856 0.92842 0.0
C2058 C 0.87952 0.84331 0.89929 0.0
C2059 C 0.89135 0.85478 0.84923 0.0
C2060 C 0.9076 0.87237 0.82872 0.0
C2061 C 0.89672 0.85967 0.87866 0.0
C2062 C 0.92967 0.89449 0.83794 0.0
C2063 C 0.93581 0.89877 0.86704 0.0
H2064 H 0.88242 0.17419 0.58391 0.0
H2065 H 0.95513 0.10517 0.59093 0.0
H2066 H 0.9513 0.10742 0.64336 0.0
H2067 H 0.92792 0.13004 0.68705 0.0
H2068 H 0.8587 0.20249 0.6795 0.0
H2069 H 0.86037 0.19786 0.62723 0.0
C2070 C 0.89727 0.15945 0.59691 0.0
C2071 C 0.91882 0.13928 0.58366 0.0
C2072 C 0.89555 0.16158 0.62685 0.0
C2073 C 0.93836 0.12081 0.60073 0.0
C2074 C 0.93613 0.12209 0.63063 0.0
C2075 C 0.91305 0.14461 0.6739 0.0
C2076 C 0.89299 0.1664 0.68698 0.0
C2077 C 0.91489 0.14249 0.64391 0.0
C2078 C 0.87428 0.18559 0.66982 0.0
C2079 C 0.87523 0.18292 0.64 0.0
H2080 H 0.5788 0.12849 0.42578 0.0
H2081 H 0.66773 0.17048 0.44549 0.0
H2082 H 0.67827 0.17779 0.39453 0.0
H2083 H 0.66102 0.17422 0.34397 0.0
H2084 H 0.5719 0.13148 0.32574 0.0
H2085 H 0.56285 0.12283 0.37623 0.0
C2086 C 0.6006 0.13905 0.41899 0.0
C2087 C 0.62221 0.14912 0.43947 0.0
C2088 C 0.60648 0.14337 0.38975 0.0
C2089 C 0.65049 0.16259 0.43019 0.0
C2090 C 0.65655 0.16691 0.40101 0.0
C2091 C 0.63969 0.16305 0.35113 0.0
C2092 C 0.61725 0.15371 0.33099 0.0
C2093 C 0.63448 0.1578 0.38055 0.0
C2094 C 0.58976 0.13895 0.34062 0.0
C2095 C 0.58441 0.13393 0.3696 0.0
H2096 H 0.6703 0.85762 0.1794 0.0
H2097 H 0.57284 0.87112 0.19935 0.0
H2098 H 0.56173 0.88257 0.14944 0.0
H2099 H 0.57919 0.88919 0.10005 0.0
H2100 H 0.67654 0.87687 0.07905 0.0
H2101 H 0.68809 0.86506 0.1291 0.0
C2102 C 0.64666 0.86277 0.17266 0.0
C2103 C 0.62249 0.86344 0.19311 0.0
C2104 C 0.64035 0.86997 0.14371 0.0
C2105 C 0.59197 0.87056 0.18412 0.0
C2106 C 0.58552 0.87718 0.15554 0.0
C2107 C 0.603 0.8842 0.10638 0.0
C2108 C 0.62686 0.88396 0.08567 0.0
C2109 C 0.60951 0.87721 0.13517 0.0
C2110 C 0.65759 0.87726 0.09445 0.0
C2111 C 0.66425 0.87034 0.12312 0.0
H2112 H 0.65536 0.68267 0.59059 0.0
H2113 H 0.59457 0.60272 0.59324 0.0
H2114 H 0.59783 0.60153 0.64551 0.0
H2115 H 0.61466 0.62562 0.69057 0.0
H2116 H 0.67132 0.70864 0.68832 0.0
H2117 H 0.67307 0.70633 0.63598 0.0
C2118 C 0.64332 0.66474 0.6027 0.0
C2119 C 0.62493 0.6427 0.58828 0.0
C2120 C 0.64428 0.66499 0.63283 0.0
C2121 C 0.60889 0.61989 0.60405 0.0
C2122 C 0.61068 0.61925 0.63389 0.0
C2123 C 0.62766 0.643 0.67861 0.0
C2124 C 0.64277 0.66729 0.69325 0.0
C2125 C 0.62778 0.64205 0.64854 0.0
C2126 C 0.65928 0.68984 0.67748 0.0
C2127 C 0.66035 0.6885 0.64757 0.0
H2128 H 0.66324 0.34382 0.84781 0.0
H2129 H 0.58583 0.40367 0.8265 0.0
H2130 H 0.57646 0.41411 0.87714 0.0
H2131 H 0.58907 0.40485 0.92764 0.0
H2132 H 0.66851 0.34775 0.94909 0.0
H2133 H 0.67846 0.33793 0.8984 0.0
C2134 C 0.64438 0.35914 0.85436 0.0
C2135 C 0.6251 0.37269 0.83358 0.0
C2136 C 0.63951 0.36562 0.88352 0.0
C2137 C 0.60101 0.39294 0.84217 0.0
C2138 C 0.59558 0.39889 0.87111 0.0
C2139 C 0.60864 0.39041 0.92117 0.0
C2140 C 0.6278 0.37686 0.94204 0.0
C2141 C 0.61451 0.38518 0.89198 0.0
C2142 C 0.65338 0.35852 0.9334 0.0
C2143 C 0.65903 0.35274 0.90442 0.0
H2144 H 0.86991 0.35617 0.08498 0.0
H2145 H 0.94848 0.41882 0.08903 0.0
H2146 H 0.94423 0.42082 0.1412 0.0
H2147 H 0.92129 0.40091 0.18587 0.0
H2148 H 0.84634 0.33408 0.18193 0.0
H2149 H 0.84569 0.33778 0.12965 0.0
C2150 C 0.8858 0.37054 0.09732 0.0
C2151 C 0.90957 0.38715 0.08333 0.0
C2152 C 0.8839 0.37073 0.12735 0.0
C2153 C 0.93019 0.40555 0.09947 0.0
C2154 C 0.92775 0.40676 0.12926 0.0
C2155 C 0.90447 0.38766 0.1735 0.0
C2156 C 0.88386 0.36734 0.18751 0.0
C2157 C 0.90515 0.3889 0.14347 0.0
C2158 C 0.86246 0.34983 0.17141 0.0
C2159 C 0.86213 0.35188 0.14158 0.0
H2160 H 0.88474 0.67976 0.43728 0.0
H2161 H 0.95832 0.61126 0.43596 0.0
H2162 H 0.95639 0.60956 0.38358 0.0
H2163 H 0.93524 0.62919 0.3381 0.0
H2164 H 0.86547 0.70156 0.33931 0.0
H2165 H 0.8643 0.70015 0.39173 0.0
C2166 C 0.90013 0.66431 0.42546 0.0
C2167 C 0.92154 0.64556 0.44033 0.0
C2168 C 0.89964 0.66428 0.39536 0.0
C2169 C 0.94172 0.62596 0.42486 0.0
C2170 C 0.9406 0.62496 0.39497 0.0
C2171 C 0.91963 0.64445 0.34989 0.0
C2172 C 0.90037 0.66535 0.33497 0.0
C2173 C 0.91988 0.64425 0.37998 0.0
C2174 C 0.88056 0.68535 0.35042 0.0
C2175 C 0.87987 0.68452 0.38035 0.0
H2176 H 0.37989 0.35412 0.43918 0.0
H2177 H 0.4481 0.42757 0.4313 0.0
H2178 H 0.44514 0.42405 0.37898 0.0
H2179 H 0.42456 0.39879 0.33581 0.0
H2180 H 0.35976 0.32229 0.34379 0.0
H2181 H 0.36001 0.32821 0.39599 0.0
C2182 C 0.39383 0.36961 0.42598 0.0
C2183 C 0.41395 0.39133 0.43897 0.0
C2184 C 0.39278 0.3667 0.39608 0.0
C2185 C 0.4324 0.41077 0.4217 0.0
C2186 C 0.43073 0.40872 0.39186 0.0
C2187 C 0.41033 0.38352 0.34896 0.0
C2188 C 0.39203 0.3602 0.33601 0.0
C2189 C 0.41122 0.38657 0.37886 0.0
C2190 C 0.37408 0.34032 0.35332 0.0
C2191 C 0.37417 0.34376 0.3831 0.0
H2192 H 0.3858 0.69929 0.17433 0.0
H2193 H 0.43144 0.6133 0.19759 0.0
H2194 H 0.44372 0.60295 0.14767 0.0
H2195 H 0.44172 0.6179 0.09666 0.0
H2196 H 0.39302 0.70183 0.07292 0.0
H2197 H 0.38212 0.71328 0.12314 0.0
C2198 C 0.39833 0.67827 0.16846 0.0
C2199 C 0.40757 0.65725 0.18991 0.0
C2200 C 0.40505 0.67202 0.13937 0.0
C2201 C 0.42375 0.62999 0.18171 0.0
C2202 C 0.431 0.624 0.15305 0.0
C2203 C 0.42891 0.63874 0.10258 0.0
C2204 C 0.41835 0.65898 0.08109 0.0
C2205 C 0.42187 0.64483 0.13162 0.0
C2206 C 0.40136 0.68575 0.08906 0.0
C2207 C 0.39509 0.69237 0.11782 0.0
H2208 H 0.1593 0.6662 0.93481 0.0
H2209 H 0.07228 0.61584 0.93 0.0
H2210 H 0.07267 0.62075 0.87785 0.0
H2211 H 0.09628 0.64147 0.83398 0.0
H2212 H 0.182 0.69409 0.83881 0.0
H2213 H 0.1835 0.68617 0.89065 0.0
C2214 C 0.14061 0.65595 0.92234 0.0
C2215 C 0.1158 0.64062 0.93631 0.0
C2216 C 0.14059 0.65953 0.8924 0.0
C2217 C 0.0916 0.62781 0.91981 0.0
C2218 C 0.09178 0.63066 0.88999 0.0
C2219 C 0.1154 0.65114 0.84629 0.0
C2220 C 0.13892 0.6685 0.83244 0.0
C2221 C 0.11591 0.64686 0.87611 0.0
C2222 C 0.16346 0.68083 0.84887 0.0
C2223 C 0.16438 0.67625 0.87853 0.0
H2224 H 0.14006 0.3436 0.5826 0.0
H2225 H 0.08441 0.42745 0.58489 0.0
H2226 H 0.09007 0.42969 0.6371 0.0
H2227 H 0.10914 0.4064 0.68217 0.0
H2228 H 0.16227 0.321 0.67908 0.0
H2229 H 0.15949 0.321 0.62685 0.0
C2230 C 0.12921 0.36253 0.59439 0.0
C2231 C 0.11173 0.38529 0.5798 0.0
C2232 C 0.13217 0.36339 0.62424 0.0
C2233 C 0.09784 0.40953 0.59558 0.0
C2234 C 0.10112 0.41084 0.62541 0.0
C2235 C 0.12043 0.38802 0.67001 0.0
C2236 C 0.13597 0.36374 0.68443 0.0
C2237 C 0.11804 0.38773 0.63998 0.0
C2238 C 0.15013 0.33987 0.66846 0.0
C2239 C 0.14851 0.33984 0.63863 0.0
loop_
_geom_bond_atom_site_label_1
_geom_bond_atom_site_label_2
_geom_bond_distance
_geom_bond_site_symmetry_2
_ccdc_geom_bond_type
Fe0 O2 1.918 . S
Fe0 O5 1.997 . S
Fe0 O6 2.002 . S
Fe0 O11 1.976 . S
Fe0 O14 1.996 . S
Fe1 O2 1.918 . S
Fe1 O9 1.997 . S
Fe1 O12 1.996 . S
Fe1 O16 1.976 . S
Fe1 O19 2.002 . S
O2 Fe0 1.918 . S
O2 Fe1 1.918 . S
O2 Fe3 1.918 . S
Fe3 O2 1.918 . S
Fe3 O4 2.002 . S
Fe3 O13 1.976 . S
Fe3 O17 1.996 . S
Fe3 O20 1.997 . S
O4 Fe3 2.002 . S
O4 C21 1.295 . S
O5 Fe0 1.997 . S
O5 C21 1.235 . S
O6 Fe0 2.002 . S
O6 C7 1.295 . S
C7 O6 1.295 . S
C7 O9 1.235 . S
C8 O13 1.287 . S
C8 O14 1.255 . S
O9 Fe1 1.997 . S
O9 C7 1.235 . S
C10 O16 1.287 . S
C10 O17 1.255 . S
O11 Fe0 1.976 . S
O11 C18 1.287 . S
O12 Fe1 1.996 . S
O12 C18 1.255 . S
O13 Fe3 1.976 . S
O13 C8 1.287 . S
O14 Fe0 1.996 . S
O14 C8 1.255 . S
C15 O19 1.295 . S
C15 O20 1.235 . S
O16 Fe1 1.976 . S
O16 C10 1.287 . S
O17 Fe3 1.996 . S
O17 C10 1.255 . S
C18 O11 1.287 . S
C18 O12 1.255 . S
O19 Fe1 2.002 . S
O19 C15 1.295 . S
O20 Fe3 1.997 . S
O20 C15 1.235 . S
C21 O4 1.295 . S
C21 O5 1.235 . S
Fe22 O24 1.918 . S
Fe22 O27 1.997 . S
Fe22 O28 2.002 . S
Fe22 O33 1.976 . S
Fe22 O36 1.996 . S
Fe23 O24 1.918 . S
Fe23 O31 1.997 . S
Fe23 O34 1.996 . S
Fe23 O38 1.976 . S
Fe23 O41 2.002 . S
O24 Fe22 1.918 . S
O24 Fe23 1.918 . S
O24 Fe25 1.918 . S
Fe25 O24 1.918 . S
Fe25 O26 2.002 . S
Fe25 O35 1.976 . S
Fe25 O39 1.996 . S
Fe25 O42 1.997 . S
O26 Fe25 2.002 . S
O26 C43 1.295 . S
O27 Fe22 1.997 . S
O27 C43 1.235 . S
O28 Fe22 2.002 . S
O28 C29 1.295 . S
C29 O28 1.295 . S
C29 O31 1.235 . S
C30 O35 1.287 . S
C30 O36 1.255 . S
O31 Fe23 1.997 . S
O31 C29 1.235 . S
C32 O38 1.287 . S
C32 O39 1.255 . S
O33 Fe22 1.976 . S
O33 C40 1.287 . S
O34 Fe23 1.996 . S
O34 C40 1.255 . S
O35 Fe25 1.976 . S
O35 C30 1.287 . S
O36 Fe22 1.996 . S
O36 C30 1.255 . S
C37 O41 1.295 . S
C37 O42 1.235 . S
O38 Fe23 1.976 . S
O38 C32 1.287 . S
O39 Fe25 1.996 . S
O39 C32 1.255 . S
C40 O33 1.287 . S
C40 O34 1.255 . S
O41 Fe23 2.002 . S
O41 C37 1.295 . S
O42 Fe25 1.997 . S
O42 C37 1.235 . S
C43 O26 1.295 . S
C43 O27 1.235 . S
Fe44 O46 1.918 . S
Fe44 O49 1.997 . S
Fe44 O50 2.002 . S
Fe44 O55 1.976 . S
Fe44 O58 1.996 . S
Fe45 O46 1.918 . S
Fe45 O53 1.997 . S
Fe45 O56 1.996 . S
Fe45 O60 1.976 . S
Fe45 O63 2.002 . S
O46 Fe44 1.918 . S
O46 Fe45 1.918 . S
O46 Fe47 1.918 . S
Fe47 O46 1.918 . S
Fe47 O48 2.002 . S
Fe47 O57 1.976 . S
Fe47 O61 1.996 . S
Fe47 O64 1.997 . S
O48 Fe47 2.002 . S
O48 C65 1.295 . S
O49 Fe44 1.997 . S
O49 C65 1.235 . S
O50 Fe44 2.002 . S
O50 C51 1.295 . S
C51 O50 1.295 . S
C51 O53 1.235 . S
C52 O57 1.287 . S
C52 O58 1.255 . S
O53 Fe45 1.997 . S
O53 C51 1.235 . S
C54 O60 1.287 . S
C54 O61 1.255 . S
O55 Fe44 1.976 . S
O55 C62 1.287 . S
O56 Fe45 1.996 . S
O56 C62 1.255 . S
O57 Fe47 1.976 . S
O57 C52 1.287 . S
O58 Fe44 1.996 . S
O58 C52 1.255 . S
C59 O63 1.295 . S
C59 O64 1.235 . S
O60 Fe45 1.976 . S
O60 C54 1.287 . S
O61 Fe47 1.996 . S
O61 C54 1.255 . S
C62 O55 1.287 . S
C62 O56 1.255 . S
O63 Fe45 2.002 . S
O63 C59 1.295 . S
O64 Fe47 1.997 . S
O64 C59 1.235 . S
C65 O48 1.295 . S
C65 O49 1.235 . S
Fe66 O68 1.918 . S
Fe66 O71 1.997 . S
Fe66 O72 2.002 . S
Fe66 O77 1.976 . S
Fe66 O80 1.996 1_554 S
Fe67 O68 1.918 . S
Fe67 O75 1.997 . S
Fe67 O78 1.996 . S
Fe67 O82 1.976 . S
Fe67 O85 2.002 . S
O68 Fe66 1.918 . S
O68 Fe67 1.918 . S
O68 Fe69 1.918 . S
Fe69 O68 1.918 . S
Fe69 O70 2.002 . S
Fe69 O79 1.976 1_554 S
Fe69 O83 1.996 . S
Fe69 O86 1.997 . S
O70 Fe69 2.002 . S
O70 C87 1.295 . S
O71 Fe66 1.997 . S
O71 C87 1.235 . S
O72 Fe66 2.002 . S
O72 C73 1.295 . S
C73 O72 1.295 . S
C73 O75 1.235 . S
C74 O79 1.287 . S
C74 O80 1.255 . S
O75 Fe67 1.997 . S
O75 C73 1.235 . S
C76 O82 1.287 . S
C76 O83 1.255 . S
O77 Fe66 1.976 . S
O77 C84 1.287 . S
O78 Fe67 1.996 . S
O78 C84 1.255 . S
O79 Fe69 1.976 1_556 S
O79 C74 1.287 . S
O80 Fe66 1.996 1_556 S
O80 C74 1.255 . S
C81 O85 1.295 . S
C81 O86 1.235 . S
O82 Fe67 1.976 . S
O82 C76 1.287 . S
O83 Fe69 1.996 . S
O83 C76 1.255 . S
C84 O77 1.287 . S
C84 O78 1.255 . S
O85 Fe67 2.002 . S
O85 C81 1.295 . S
O86 Fe69 1.997 . S
O86 C81 1.235 . S
C87 O70 1.295 . S
C87 O71 1.235 . S
Fe88 O90 1.918 . S
Fe88 O93 1.997 . S
Fe88 O94 2.002 . S
Fe88 O99 1.976 . S
Fe88 O102 1.996 . S
Fe89 O90 1.918 . S
Fe89 O97 1.997 . S
Fe89 O100 1.996 . S
Fe89 O104 1.976 . S
Fe89 O107 2.002 . S
O90 Fe88 1.918 . S
O90 Fe89 1.918 . S
O90 Fe91 1.918 . S
Fe91 O90 1.918 . S
Fe91 O92 2.002 . S
Fe91 O101 1.976 . S
Fe91 O105 1.996 . S
Fe91 O108 1.997 . S
O92 Fe91 2.002 . S
O92 C109 1.295 . S
O93 Fe88 1.997 . S
O93 C109 1.235 . S
O94 Fe88 2.002 . S
O94 C95 1.295 . S
C95 O94 1.295 . S
C95 O97 1.235 . S
C96 O101 1.287 . S
C96 O102 1.255 . S
O97 Fe89 1.997 . S
O97 C95 1.235 . S
C98 O104 1.287 . S
C98 O105 1.255 . S
O99 Fe88 1.976 . S
O99 C106 1.287 . S
O100 Fe89 1.996 . S
O100 C106 1.255 . S
O101 Fe91 1.976 . S
O101 C96 1.287 . S
O102 Fe88 1.996 . S
O102 C96 1.255 . S
C103 O107 1.295 . S
C103 O108 1.235 . S
O104 Fe89 1.976 . S
O104 C98 1.287 . S
O105 Fe91 1.996 . S
O105 C98 1.255 . S
C106 O99 1.287 . S
C106 O100 1.255 . S
O107 Fe89 2.002 . S
O107 C103 1.295 . S
O108 Fe91 1.997 . S
O108 C103 1.235 . S
C109 O92 1.295 . S
C109 O93 1.235 . S
Fe110 O112 1.918 . S
Fe110 O115 1.997 . S
Fe110 O116 2.002 . S
Fe110 O121 1.976 . S
Fe110 O124 1.996 . S
Fe111 O112 1.918 . S
Fe111 O119 1.997 . S
Fe111 O122 1.996 . S
Fe111 O126 1.976 . S
Fe111 O129 2.002 . S
O112 Fe110 1.918 . S
O112 Fe111 1.918 . S
O112 Fe113 1.918 . S
Fe113 O112 1.918 . S
Fe113 O114 2.002 . S
Fe113 O123 1.976 . S
Fe113 O127 1.996 . S
Fe113 O130 1.997 . S
O114 Fe113 2.002 . S
O114 C131 1.295 . S
O115 Fe110 1.997 . S
O115 C131 1.235 . S
O116 Fe110 2.002 . S
O116 C117 1.295 . S
C117 O116 1.295 . S
C117 O119 1.235 . S
C118 O123 1.287 . S
C118 O124 1.255 . S
O119 Fe111 1.997 . S
O119 C117 1.235 . S
C120 O126 1.287 . S
C120 O127 1.255 . S
O121 Fe110 1.976 . S
O121 C128 1.287 . S
O122 Fe111 1.996 . S
O122 C128 1.255 . S
O123 Fe113 1.976 . S
O123 C118 1.287 . S
O124 Fe110 1.996 . S
O124 C118 1.255 . S
C125 O129 1.295 . S
C125 O130 1.235 . S
O126 Fe111 1.976 . S
O126 C120 1.287 . S
O127 Fe113 1.996 . S
O127 C120 1.255 . S
C128 O121 1.287 . S
C128 O122 1.255 . S
O129 Fe111 2.002 . S
O129 C125 1.295 . S
O130 Fe113 1.997 . S
O130 C125 1.235 . S
C131 O114 1.295 . S
C131 O115 1.235 . S
Fe132 O134 1.918 . S
Fe132 O137 1.997 . S
Fe132 O138 2.002 . S
Fe132 O143 1.976 . S
Fe132 O146 1.996 . S
Fe133 O134 1.918 . S
Fe133 O141 1.997 . S
Fe133 O144 1.996 . S
Fe133 O148 1.976 . S
Fe133 O151 2.002 . S
O134 Fe132 1.918 . S
O134 Fe133 1.918 . S
O134 Fe135 1.918 . S
Fe135 O134 1.918 . S
Fe135 O136 2.002 . S
Fe135 O145 1.976 . S
Fe135 O149 1.996 . S
Fe135 O152 1.997 . S
O136 Fe135 2.002 . S
O136 C153 1.295 . S
O137 Fe132 1.997 . S
O137 C153 1.235 . S
O138 Fe132 2.002 . S
O138 C139 1.295 . S
C139 O138 1.295 . S
C139 O141 1.235 . S
C140 O145 1.287 . S
C140 O146 1.255 . S
O141 Fe133 1.997 . S
O141 C139 1.235 . S
C142 O148 1.287 . S
C142 O149 1.255 . S
O143 Fe132 1.976 . S
O143 C150 1.287 . S
O144 Fe133 1.996 . S
O144 C150 1.255 . S
O145 Fe135 1.976 . S
O145 C140 1.287 . S
O146 Fe132 1.996 . S
O146 C140 1.255 . S
C147 O151 1.295 . S
C147 O152 1.235 . S
O148 Fe133 1.976 . S
O148 C142 1.287 . S
O149 Fe135 1.996 . S
O149 C142 1.255 . S
C150 O143 1.287 . S
C150 O144 1.255 . S
O151 Fe133 2.002 . S
O151 C147 1.295 . S
O152 Fe135 1.997 . S
O152 C147 1.235 . S
C153 O136 1.295 . S
C153 O137 1.235 . S
Fe154 O156 1.918 . S
Fe154 O159 1.997 . S
Fe154 O160 2.002 . S
Fe154 O165 1.976 . S
Fe154 O168 1.996 . S
Fe155 O156 1.918 . S
Fe155 O163 1.997 . S
Fe155 O166 1.996 . S
Fe155 O170 1.976 1_556 S
Fe155 O173 2.002 . S
O156 Fe154 1.918 . S
O156 Fe155 1.918 . S
O156 Fe157 1.918 . S
Fe157 O156 1.918 . S
Fe157 O158 2.002 . S
Fe157 O167 1.976 . S
Fe157 O171 1.996 1_556 S
Fe157 O174 1.997 . S
O158 Fe157 2.002 . S
O158 C175 1.295 . S
O159 Fe154 1.997 . S
O159 C175 1.235 . S
O160 Fe154 2.002 . S
O160 C161 1.295 . S
C161 O160 1.295 . S
C161 O163 1.235 . S
C162 O167 1.287 . S
C162 O168 1.255 . S
O163 Fe155 1.997 . S
O163 C161 1.235 . S
C164 O170 1.287 . S
C164 O171 1.255 . S
O165 Fe154 1.976 . S
O165 C172 1.287 . S
O166 Fe155 1.996 . S
O166 C172 1.255 . S
O167 Fe157 1.976 . S
O167 C162 1.287 . S
O168 Fe154 1.996 . S
O168 C162 1.255 . S
C169 O173 1.295 . S
C169 O174 1.235 . S
O170 Fe155 1.976 1_554 S
O170 C164 1.287 . S
O171 Fe157 1.996 1_554 S
O171 C164 1.255 . S
C172 O165 1.287 . S
C172 O166 1.255 . S
O173 Fe155 2.002 . S
O173 C169 1.295 . S
O174 Fe157 1.997 . S
O174 C169 1.235 . S
C175 O158 1.295 . S
C175 O159 1.235 . S
Fe176 O178 1.918 . S
Fe176 O181 1.997 . S
Fe176 O182 2.002 . S
Fe176 O187 1.976 . S
Fe176 O190 1.996 . S
Fe177 O178 1.918 . S
Fe177 O185 1.997 . S
Fe177 O188 1.996 . S
Fe177 O192 1.976 . S
Fe177 O195 2.002 . S
O178 Fe176 1.918 . S
O178 Fe177 1.918 . S
O178 Fe179 1.918 . S
Fe179 O178 1.918 . S
Fe179 O180 2.002 . S
Fe179 O189 1.976 . S
Fe179 O193 1.996 . S
Fe179 O196 1.997 . S
O180 Fe179 2.002 . S
O180 C197 1.295 . S
O181 Fe176 1.997 . S
O181 C197 1.235 . S
O182 Fe176 2.002 . S
O182 C183 1.295 . S
C183 O182 1.295 . S
C183 O185 1.235 . S
C184 O189 1.287 . S
C184 O190 1.255 . S
O185 Fe177 1.997 . S
O185 C183 1.235 . S
C186 O192 1.287 . S
C186 O193 1.255 . S
O187 Fe176 1.976 . S
O187 C194 1.287 . S
O188 Fe177 1.996 . S
O188 C194 1.255 . S
O189 Fe179 1.976 . S
O189 C184 1.287 . S
O190 Fe176 1.996 . S
O190 C184 1.255 . S
C191 O195 1.295 . S
C191 O196 1.235 . S
O192 Fe177 1.976 . S
O192 C186 1.287 . S
O193 Fe179 1.996 . S
O193 C186 1.255 . S
C194 O187 1.287 . S
C194 O188 1.255 . S
O195 Fe177 2.002 . S
O195 C191 1.295 . S
O196 Fe179 1.997 . S
O196 C191 1.235 . S
C197 O180 1.295 . S
C197 O181 1.235 . S
Fe198 O200 1.918 . S
Fe198 O203 1.997 . S
Fe198 O204 2.002 . S
Fe198 O209 1.976 . S
Fe198 O212 1.996 . S
Fe199 O200 1.918 . S
Fe199 O207 1.997 . S
Fe199 O210 1.996 . S
Fe199 O214 1.976 . S
Fe199 O217 2.002 . S
O200 Fe198 1.918 . S
O200 Fe199 1.918 . S
O200 Fe201 1.918 . S
Fe201 O200 1.918 . S
Fe201 O202 2.002 . S
Fe201 O211 1.976 . S
Fe201 O215 1.996 . S
Fe201 O218 1.997 . S
O202 Fe201 2.002 . S
O202 C219 1.295 . S
O203 Fe198 1.997 . S
O203 C219 1.235 . S
O204 Fe198 2.002 . S
O204 C205 1.295 . S
C205 O204 1.295 . S
C205 O207 1.235 . S
C206 O211 1.287 . S
C206 O212 1.255 . S
O207 Fe199 1.997 . S
O207 C205 1.235 . S
C208 O214 1.287 . S
C208 O215 1.255 . S
O209 Fe198 1.976 . S
O209 C216 1.287 . S
O210 Fe199 1.996 . S
O210 C216 1.255 . S
O211 Fe201 1.976 . S
O211 C206 1.287 . S
O212 Fe198 1.996 . S
O212 C206 1.255 . S
C213 O217 1.295 . S
C213 O218 1.235 . S
O214 Fe199 1.976 . S
O214 C208 1.287 . S
O215 Fe201 1.996 . S
O215 C208 1.255 . S
C216 O209 1.287 . S
C216 O210 1.255 . S
O217 Fe199 2.002 . S
O217 C213 1.295 . S
O218 Fe201 1.997 . S
O218 C213 1.235 . S
C219 O202 1.295 . S
C219 O203 1.235 . S
Fe220 O222 1.918 . S
Fe220 O225 1.997 . S
Fe220 O226 2.002 . S
Fe220 O231 1.976 . S
Fe220 O234 1.996 . S
Fe221 O222 1.918 . S
Fe221 O229 1.997 . S
Fe221 O232 1.996 . S
Fe221 O236 1.976 . S
Fe221 O239 2.002 . S
O222 Fe220 1.918 . S
O222 Fe221 1.918 . S
O222 Fe223 1.918 . S
Fe223 O222 1.918 . S
Fe223 O224 2.002 . S
Fe223 O233 1.976 . S
Fe223 O237 1.996 . S
Fe223 O240 1.997 . S
O224 Fe223 2.002 . S
O224 C241 1.295 . S
O225 Fe220 1.997 . S
O225 C241 1.235 . S
O226 Fe220 2.002 . S
O226 C227 1.295 . S
C227 O226 1.295 . S
C227 O229 1.235 . S
C228 O233 1.287 . S
C228 O234 1.255 . S
O229 Fe221 1.997 . S
O229 C227 1.235 . S
C230 O236 1.287 . S
C230 O237 1.255 . S
O231 Fe220 1.976 . S
O231 C238 1.287 . S
O232 Fe221 1.996 . S
O232 C238 1.255 . S
O233 Fe223 1.976 . S
O233 C228 1.287 . S
O234 Fe220 1.996 . S
O234 C228 1.255 . S
C235 O239 1.295 . S
C235 O240 1.235 . S
O236 Fe221 1.976 . S
O236 C230 1.287 . S
O237 Fe223 1.996 . S
O237 C230 1.255 . S
C238 O231 1.287 . S
C238 O232 1.255 . S
O239 Fe221 2.002 . S
O239 C235 1.295 . S
O240 Fe223 1.997 . S
O240 C235 1.235 . S
C241 O224 1.295 . S
C241 O225 1.235 . S
Fe242 O244 1.918 . S
Fe242 O247 1.997 . S
Fe242 O248 2.002 . S
Fe242 O253 1.976 . S
Fe242 O256 1.996 1_556 S
Fe243 O244 1.918 . S
Fe243 O251 1.997 . S
Fe243 O254 1.996 . S
Fe243 O258 1.976 . S
Fe243 O261 2.002 . S
O244 Fe242 1.918 . S
O244 Fe243 1.918 . S
O244 Fe245 1.918 . S
Fe245 O244 1.918 . S
Fe245 O246 2.002 . S
Fe245 O255 1.976 1_556 S
Fe245 O259 1.996 . S
Fe245 O262 1.997 . S
O246 Fe245 2.002 . S
O246 C263 1.295 . S
O247 Fe242 1.997 . S
O247 C263 1.235 . S
O248 Fe242 2.002 . S
O248 C249 1.295 . S
C249 O248 1.295 . S
C249 O251 1.235 . S
C250 O255 1.287 . S
C250 O256 1.255 . S
O251 Fe243 1.997 . S
O251 C249 1.235 . S
C252 O258 1.287 . S
C252 O259 1.255 . S
O253 Fe242 1.976 . S
O253 C260 1.287 . S
O254 Fe243 1.996 . S
O254 C260 1.255 . S
O255 Fe245 1.976 1_554 S
O255 C250 1.287 . S
O256 Fe242 1.996 1_554 S
O256 C250 1.255 . S
C257 O261 1.295 . S
C257 O262 1.235 . S
O258 Fe243 1.976 . S
O258 C252 1.287 . S
O259 Fe245 1.996 . S
O259 C252 1.255 . S
C260 O253 1.287 . S
C260 O254 1.255 . S
O261 Fe243 2.002 . S
O261 C257 1.295 . S
O262 Fe245 1.997 . S
O262 C257 1.235 . S
C263 O246 1.295 . S
C263 O247 1.235 . S
Fe264 O266 1.918 . S
Fe264 O269 1.997 . S
Fe264 O270 2.002 . S
Fe264 O275 1.976 . S
Fe264 O278 1.996 . S
Fe265 O266 1.918 . S
Fe265 O273 1.997 . S
Fe265 O276 1.996 . S
Fe265 O280 1.976 . S
Fe265 O283 2.002 . S
O266 Fe264 1.918 . S
O266 Fe265 1.918 . S
O266 Fe267 1.918 . S
Fe267 O266 1.918 . S
Fe267 O268 2.002 . S
Fe267 O277 1.976 . S
Fe267 O281 1.996 . S
Fe267 O284 1.997 . S
O268 Fe267 2.002 . S
O268 C285 1.295 . S
O269 Fe264 1.997 . S
O269 C285 1.235 . S
O270 Fe264 2.002 . S
O270 C271 1.295 . S
C271 O270 1.295 . S
C271 O273 1.235 . S
C272 O277 1.287 . S
C272 O278 1.255 . S
O273 Fe265 1.997 . S
O273 C271 1.235 . S
C274 O280 1.287 . S
C274 O281 1.255 . S
O275 Fe264 1.976 . S
O275 C282 1.287 . S
O276 Fe265 1.996 . S
O276 C282 1.255 . S
O277 Fe267 1.976 . S
O277 C272 1.287 . S
O278 Fe264 1.996 . S
O278 C272 1.255 . S
C279 O283 1.295 . S
C279 O284 1.235 . S
O280 Fe265 1.976 . S
O280 C274 1.287 . S
O281 Fe267 1.996 . S
O281 C274 1.255 . S
C282 O275 1.287 . S
C282 O276 1.255 . S
O283 Fe265 2.002 . S
O283 C279 1.295 . S
O284 Fe267 1.997 . S
O284 C279 1.235 . S
C285 O268 1.295 . S
C285 O269 1.235 . S
Fe286 O288 1.918 . S
Fe286 O291 1.997 . S
Fe286 O292 2.002 . S
Fe286 O297 1.976 . S
Fe286 O300 1.996 . S
Fe287 O288 1.918 . S
Fe287 O295 1.997 . S
Fe287 O298 1.996 . S
Fe287 O302 1.976 . S
Fe287 O305 2.002 . S
O288 Fe286 1.918 . S
O288 Fe287 1.918 . S
O288 Fe289 1.918 . S
Fe289 O288 1.918 . S
Fe289 O290 2.002 . S
Fe289 O299 1.976 . S
Fe289 O303 1.996 . S
Fe289 O306 1.997 . S
O290 Fe289 2.002 . S
O290 C307 1.295 . S
O291 Fe286 1.997 . S
O291 C307 1.235 . S
O292 Fe286 2.002 . S
O292 C293 1.295 . S
C293 O292 1.295 . S
C293 O295 1.235 . S
C294 O299 1.287 . S
C294 O300 1.255 . S
O295 Fe287 1.997 . S
O295 C293 1.235 . S
C296 O302 1.287 . S
C296 O303 1.255 . S
O297 Fe286 1.976 . S
O297 C304 1.287 . S
O298 Fe287 1.996 . S
O298 C304 1.255 . S
O299 Fe289 1.976 . S
O299 C294 1.287 . S
O300 Fe286 1.996 . S
O300 C294 1.255 . S
C301 O305 1.295 . S
C301 O306 1.235 . S
O302 Fe287 1.976 . S
O302 C296 1.287 . S
O303 Fe289 1.996 . S
O303 C296 1.255 . S
C304 O297 1.287 . S
C304 O298 1.255 . S
O305 Fe287 2.002 . S
O305 C301 1.295 . S
O306 Fe289 1.997 . S
O306 C301 1.235 . S
C307 O290 1.295 . S
C307 O291 1.235 . S
Fe308 O310 1.918 . S
Fe308 O313 1.997 . S
Fe308 O314 2.002 . S
Fe308 O319 1.976 . S
Fe308 O322 1.996 . S
Fe309 O310 1.918 . S
Fe309 O317 1.997 . S
Fe309 O320 1.996 . S
Fe309 O324 1.976 . S
Fe309 O327 2.002 . S
O310 Fe308 1.918 . S
O310 Fe309 1.918 . S
O310 Fe311 1.918 . S
Fe311 O310 1.918 . S
Fe311 O312 2.002 . S
Fe311 O321 1.976 . S
Fe311 O325 1.996 . S
Fe311 O328 1.997 . S
O312 Fe311 2.002 . S
O312 C329 1.295 . S
O313 Fe308 1.997 . S
O313 C329 1.235 . S
O314 Fe308 2.002 . S
O314 C315 1.295 . S
C315 O314 1.295 . S
C315 O317 1.235 . S
C316 O321 1.287 . S
C316 O322 1.255 . S
O317 Fe309 1.997 . S
O317 C315 1.235 . S
C318 O324 1.287 . S
C318 O325 1.255 . S
O319 Fe308 1.976 . S
O319 C326 1.287 . S
O320 Fe309 1.996 . S
O320 C326 1.255 . S
O321 Fe311 1.976 . S
O321 C316 1.287 . S
O322 Fe308 1.996 . S
O322 C316 1.255 . S
C323 O327 1.295 . S
C323 O328 1.235 . S
O324 Fe309 1.976 . S
O324 C318 1.287 . S
O325 Fe311 1.996 . S
O325 C318 1.255 . S
C326 O319 1.287 . S
C326 O320 1.255 . S
O327 Fe309 2.002 . S
O327 C323 1.295 . S
O328 Fe311 1.997 . S
O328 C323 1.235 . S
C329 O312 1.295 . S
C329 O313 1.235 . S
Fe330 O332 1.918 . S
Fe330 O335 1.997 . S
Fe330 O336 2.002 . S
Fe330 O341 1.976 . S
Fe330 O344 1.996 1_554 S
Fe331 O332 1.918 . S
Fe331 O339 1.997 . S
Fe331 O342 1.996 . S
Fe331 O346 1.976 . S
Fe331 O349 2.002 . S
O332 Fe330 1.918 . S
O332 Fe331 1.918 . S
O332 Fe333 1.918 . S
Fe333 O332 1.918 . S
Fe333 O334 2.002 . S
Fe333 O343 1.976 1_554 S
Fe333 O347 1.996 . S
Fe333 O350 1.997 . S
O334 Fe333 2.002 . S
O334 C351 1.295 . S
O335 Fe330 1.997 . S
O335 C351 1.235 . S
O336 Fe330 2.002 . S
O336 C337 1.295 . S
C337 O336 1.295 . S
C337 O339 1.235 . S
C338 O343 1.287 . S
C338 O344 1.255 . S
O339 Fe331 1.997 . S
O339 C337 1.235 . S
C340 O346 1.287 . S
C340 O347 1.255 . S
O341 Fe330 1.976 . S
O341 C348 1.287 . S
O342 Fe331 1.996 . S
O342 C348 1.255 . S
O343 Fe333 1.976 1_556 S
O343 C338 1.287 . S
O344 Fe330 1.996 1_556 S
O344 C338 1.255 . S
C345 O349 1.295 . S
C345 O350 1.235 . S
O346 Fe331 1.976 . S
O346 C340 1.287 . S
O347 Fe333 1.996 . S
O347 C340 1.255 . S
C348 O341 1.287 . S
C348 O342 1.255 . S
O349 Fe331 2.002 . S
O349 C345 1.295 . S
O350 Fe333 1.997 . S
O350 C345 1.235 . S
C351 O334 1.295 . S
C351 O335 1.235 . S
Fe352 O354 1.918 . S
Fe352 O357 1.997 . S
Fe352 O358 2.002 . S
Fe352 O363 1.976 . S
Fe352 O366 1.996 . S
Fe353 O354 1.918 . S
Fe353 O361 1.997 . S
Fe353 O364 1.996 . S
Fe353 O368 1.976 . S
Fe353 O371 2.002 . S
O354 Fe352 1.918 . S
O354 Fe353 1.918 . S
O354 Fe355 1.918 . S
Fe355 O354 1.918 . S
Fe355 O356 2.002 . S
Fe355 O365 1.976 . S
Fe355 O369 1.996 . S
Fe355 O372 1.997 . S
O356 Fe355 2.002 . S
O356 C373 1.295 . S
O357 Fe352 1.997 . S
O357 C373 1.235 . S
O358 Fe352 2.002 . S
O358 C359 1.295 . S
C359 O358 1.295 . S
C359 O361 1.235 . S
C360 O365 1.287 . S
C360 O366 1.255 . S
O361 Fe353 1.997 . S
O361 C359 1.235 . S
C362 O368 1.287 . S
C362 O369 1.255 . S
O363 Fe352 1.976 . S
O363 C370 1.287 . S
O364 Fe353 1.996 . S
O364 C370 1.255 . S
O365 Fe355 1.976 . S
O365 C360 1.287 . S
O366 Fe352 1.996 . S
O366 C360 1.255 . S
C367 O371 1.295 . S
C367 O372 1.235 . S
O368 Fe353 1.976 . S
O368 C362 1.287 . S
O369 Fe355 1.996 . S
O369 C362 1.255 . S
C370 O363 1.287 . S
C370 O364 1.255 . S
O371 Fe353 2.002 . S
O371 C367 1.295 . S
O372 Fe355 1.997 . S
O372 C367 1.235 . S
C373 O356 1.295 . S
C373 O357 1.235 . S
Fe374 O376 1.918 . S
Fe374 O379 1.997 . S
Fe374 O380 2.002 . S
Fe374 O385 1.976 . S
Fe374 O388 1.996 . S
Fe375 O376 1.918 . S
Fe375 O383 1.997 . S
Fe375 O386 1.996 . S
Fe375 O390 1.976 1_554 S
Fe375 O393 2.002 . S
O376 Fe374 1.918 . S
O376 Fe375 1.918 . S
O376 Fe377 1.918 . S
Fe377 O376 1.918 . S
Fe377 O378 2.002 . S
Fe377 O387 1.976 . S
Fe377 O391 1.996 1_554 S
Fe377 O394 1.997 . S
O378 Fe377 2.002 . S
O378 C395 1.295 . S
O379 Fe374 1.997 . S
O379 C395 1.235 . S
O380 Fe374 2.002 . S
O380 C381 1.295 . S
C381 O380 1.295 . S
C381 O383 1.235 . S
C382 O387 1.287 . S
C382 O388 1.255 . S
O383 Fe375 1.997 . S
O383 C381 1.235 . S
C384 O390 1.287 . S
C384 O391 1.255 . S
O385 Fe374 1.976 . S
O385 C392 1.287 . S
O386 Fe375 1.996 . S
O386 C392 1.255 . S
O387 Fe377 1.976 . S
O387 C382 1.287 . S
O388 Fe374 1.996 . S
O388 C382 1.255 . S
C389 O393 1.295 . S
C389 O394 1.235 . S
O390 Fe375 1.976 1_556 S
O390 C384 1.287 . S
O391 Fe377 1.996 1_556 S
O391 C384 1.255 . S
C392 O385 1.287 . S
C392 O386 1.255 . S
O393 Fe375 2.002 . S
O393 C389 1.295 . S
O394 Fe377 1.997 . S
O394 C389 1.235 . S
C395 O378 1.295 . S
C395 O379 1.235 . S
Fe396 O398 1.918 . S
Fe396 O401 1.997 . S
Fe396 O402 2.002 . S
Fe396 O407 1.976 . S
Fe396 O410 1.996 . S
Fe397 O398 1.918 . S
Fe397 O405 1.997 . S
Fe397 O408 1.996 . S
Fe397 O412 1.976 . S
Fe397 O415 2.002 . S
O398 Fe396 1.918 . S
O398 Fe397 1.918 . S
O398 Fe399 1.918 . S
Fe399 O398 1.918 . S
Fe399 O400 2.002 . S
Fe399 O409 1.976 . S
Fe399 O413 1.996 . S
Fe399 O416 1.997 . S
O400 Fe399 2.002 . S
O400 C417 1.295 . S
O401 Fe396 1.997 . S
O401 C417 1.235 . S
O402 Fe396 2.002 . S
O402 C403 1.295 . S
C403 O402 1.295 . S
C403 O405 1.235 . S
C404 O409 1.287 . S
C404 O410 1.255 . S
O405 Fe397 1.997 . S
O405 C403 1.235 . S
C406 O412 1.287 . S
C406 O413 1.255 . S
O407 Fe396 1.976 . S
O407 C414 1.287 . S
O408 Fe397 1.996 . S
O408 C414 1.255 . S
O409 Fe399 1.976 . S
O409 C404 1.287 . S
O410 Fe396 1.996 . S
O410 C404 1.255 . S
C411 O415 1.295 . S
C411 O416 1.235 . S
O412 Fe397 1.976 . S
O412 C406 1.287 . S
O413 Fe399 1.996 . S
O413 C406 1.255 . S
C414 O407 1.287 . S
C414 O408 1.255 . S
O415 Fe397 2.002 . S
O415 C411 1.295 . S
O416 Fe399 1.997 . S
O416 C411 1.235 . S
C417 O400 1.295 . S
C417 O401 1.235 . S
Fe418 O420 1.918 . S
Fe418 O423 1.997 . S
Fe418 O424 2.002 . S
Fe418 O429 1.976 . S
Fe418 O432 1.996 . S
Fe419 O420 1.918 . S
Fe419 O427 1.997 . S
Fe419 O430 1.996 . S
Fe419 O434 1.976 . S
Fe419 O437 2.002 . S
O420 Fe418 1.918 . S
O420 Fe419 1.918 . S
O420 Fe421 1.918 . S
Fe421 O420 1.918 . S
Fe421 O422 2.002 . S
Fe421 O431 1.976 . S
Fe421 O435 1.996 . S
Fe421 O438 1.997 . S
O422 Fe421 2.002 . S
O422 C439 1.295 . S
O423 Fe418 1.997 . S
O423 C439 1.235 . S
O424 Fe418 2.002 . S
O424 C425 1.295 . S
C425 O424 1.295 . S
C425 O427 1.235 . S
C426 O431 1.287 . S
C426 O432 1.255 . S
O427 Fe419 1.997 . S
O427 C425 1.235 . S
C428 O434 1.287 . S
C428 O435 1.255 . S
O429 Fe418 1.976 . S
O429 C436 1.287 . S
O430 Fe419 1.996 . S
O430 C436 1.255 . S
O431 Fe421 1.976 . S
O431 C426 1.287 . S
O432 Fe418 1.996 . S
O432 C426 1.255 . S
C433 O437 1.295 . S
C433 O438 1.235 . S
O434 Fe419 1.976 . S
O434 C428 1.287 . S
O435 Fe421 1.996 . S
O435 C428 1.255 . S
C436 O429 1.287 . S
C436 O430 1.255 . S
O437 Fe419 2.002 . S
O437 C433 1.295 . S
O438 Fe421 1.997 . S
O438 C433 1.235 . S
C439 O422 1.295 . S
C439 O423 1.235 . S
Fe440 O442 1.918 . S
Fe440 O445 1.997 . S
Fe440 O446 2.002 . S
Fe440 O451 1.976 . S
Fe440 O454 1.996 . S
Fe441 O442 1.918 . S
Fe441 O449 1.997 . S
Fe441 O452 1.996 . S
Fe441 O456 1.976 . S
Fe441 O459 2.002 . S
O442 Fe440 1.918 . S
O442 Fe441 1.918 . S
O442 Fe443 1.918 . S
Fe443 O442 1.918 . S
Fe443 O444 2.002 . S
Fe443 O453 1.976 . S
Fe443 O457 1.996 . S
Fe443 O460 1.997 . S
O444 Fe443 2.002 . S
O444 C461 1.295 . S
O445 Fe440 1.997 . S
O445 C461 1.235 . S
O446 Fe440 2.002 . S
O446 C447 1.295 . S
C447 O446 1.295 . S
C447 O449 1.235 . S
C448 O453 1.287 . S
C448 O454 1.255 . S
O449 Fe441 1.997 . S
O449 C447 1.235 . S
C450 O456 1.287 . S
C450 O457 1.255 . S
O451 Fe440 1.976 . S
O451 C458 1.287 . S
O452 Fe441 1.996 . S
O452 C458 1.255 . S
O453 Fe443 1.976 . S
O453 C448 1.287 . S
O454 Fe440 1.996 . S
O454 C448 1.255 . S
C455 O459 1.295 . S
C455 O460 1.235 . S
O456 Fe441 1.976 . S
O456 C450 1.287 . S
O457 Fe443 1.996 . S
O457 C450 1.255 . S
C458 O451 1.287 . S
C458 O452 1.255 . S
O459 Fe441 2.002 . S
O459 C455 1.295 . S
O460 Fe443 1.997 . S
O460 C455 1.235 . S
C461 O444 1.295 . S
C461 O445 1.235 . S
Fe462 O464 1.918 . S
Fe462 O467 1.997 . S
Fe462 O468 2.002 . S
Fe462 O473 1.976 . S
Fe462 O476 1.996 1_556 S
Fe463 O464 1.918 . S
Fe463 O471 1.997 . S
Fe463 O474 1.996 . S
Fe463 O478 1.976 . S
Fe463 O481 2.002 . S
O464 Fe462 1.918 . S
O464 Fe463 1.918 . S
O464 Fe465 1.918 . S
Fe465 O464 1.918 . S
Fe465 O466 2.002 . S
Fe465 O475 1.976 1_556 S
Fe465 O479 1.996 . S
Fe465 O482 1.997 . S
O466 Fe465 2.002 . S
O466 C483 1.295 . S
O467 Fe462 1.997 . S
O467 C483 1.235 . S
O468 Fe462 2.002 . S
O468 C469 1.295 . S
C469 O468 1.295 . S
C469 O471 1.235 . S
C470 O475 1.287 . S
C470 O476 1.255 . S
O471 Fe463 1.997 . S
O471 C469 1.235 . S
C472 O478 1.287 . S
C472 O479 1.255 . S
O473 Fe462 1.976 . S
O473 C480 1.287 . S
O474 Fe463 1.996 . S
O474 C480 1.255 . S
O475 Fe465 1.976 1_554 S
O475 C470 1.287 . S
O476 Fe462 1.996 1_554 S
O476 C470 1.255 . S
C477 O481 1.295 . S
C477 O482 1.235 . S
O478 Fe463 1.976 . S
O478 C472 1.287 . S
O479 Fe465 1.996 . S
O479 C472 1.255 . S
C480 O473 1.287 . S
C480 O474 1.255 . S
O481 Fe463 2.002 . S
O481 C477 1.295 . S
O482 Fe465 1.997 . S
O482 C477 1.235 . S
C483 O466 1.295 . S
C483 O467 1.235 . S
Fe484 O486 1.918 . S
Fe484 O489 1.997 . S
Fe484 O490 2.002 . S
Fe484 O495 1.976 . S
Fe484 O498 1.996 . S
Fe485 O486 1.918 . S
Fe485 O493 1.997 . S
Fe485 O496 1.996 . S
Fe485 O500 1.976 . S
Fe485 O503 2.002 . S
O486 Fe484 1.918 . S
O486 Fe485 1.918 . S
O486 Fe487 1.918 . S
Fe487 O486 1.918 . S
Fe487 O488 2.002 . S
Fe487 O497 1.976 . S
Fe487 O501 1.996 . S
Fe487 O504 1.997 . S
O488 Fe487 2.002 . S
O488 C505 1.295 . S
O489 Fe484 1.997 . S
O489 C505 1.235 . S
O490 Fe484 2.002 . S
O490 C491 1.295 . S
C491 O490 1.295 . S
C491 O493 1.235 . S
C492 O497 1.287 . S
C492 O498 1.255 . S
O493 Fe485 1.997 . S
O493 C491 1.235 . S
C494 O500 1.287 . S
C494 O501 1.255 . S
O495 Fe484 1.976 . S
O495 C502 1.287 . S
O496 Fe485 1.996 . S
O496 C502 1.255 . S
O497 Fe487 1.976 . S
O497 C492 1.287 . S
O498 Fe484 1.996 . S
O498 C492 1.255 . S
C499 O503 1.295 . S
C499 O504 1.235 . S
O500 Fe485 1.976 . S
O500 C494 1.287 . S
O501 Fe487 1.996 . S
O501 C494 1.255 . S
C502 O495 1.287 . S
C502 O496 1.255 . S
O503 Fe485 2.002 . S
O503 C499 1.295 . S
O504 Fe487 1.997 . S
O504 C499 1.235 . S
C505 O488 1.295 . S
C505 O489 1.235 . S
Fe506 O508 1.918 . S
Fe506 O511 1.997 . S
Fe506 O512 2.002 . S
Fe506 O517 1.976 . S
Fe506 O520 1.996 . S
Fe507 O508 1.918 . S
Fe507 O515 1.997 . S
Fe507 O518 1.996 . S
Fe507 O522 1.976 . S
Fe507 O525 2.002 . S
O508 Fe506 1.918 . S
O508 Fe507 1.918 . S
O508 Fe509 1.918 . S
Fe509 O508 1.918 . S
Fe509 O510 2.002 . S
Fe509 O519 1.976 . S
Fe509 O523 1.996 . S
Fe509 O526 1.997 . S
O510 Fe509 2.002 . S
O510 C527 1.295 . S
O511 Fe506 1.997 . S
O511 C527 1.235 . S
O512 Fe506 2.002 . S
O512 C513 1.295 . S
C513 O512 1.295 . S
C513 O515 1.235 . S
C514 O519 1.287 . S
C514 O520 1.255 . S
O515 Fe507 1.997 . S
O515 C513 1.235 . S
C516 O522 1.287 . S
C516 O523 1.255 . S
O517 Fe506 1.976 . S
O517 C524 1.287 . S
O518 Fe507 1.996 . S
O518 C524 1.255 . S
O519 Fe509 1.976 . S
O519 C514 1.287 . S
O520 Fe506 1.996 . S
O520 C514 1.255 . S
C521 O525 1.295 . S
C521 O526 1.235 . S
O522 Fe507 1.976 . S
O522 C516 1.287 . S
O523 Fe509 1.996 . S
O523 C516 1.255 . S
C524 O517 1.287 . S
C524 O518 1.255 . S
O525 Fe507 2.002 . S
O525 C521 1.295 . S
O526 Fe509 1.997 . S
O526 C521 1.235 . S
C527 O510 1.295 . S
C527 O511 1.235 . S
Fe528 O530 1.918 . S
Fe528 O533 1.997 . S
Fe528 O534 2.002 . S
Fe528 O539 1.976 . S
Fe528 O542 1.996 . S
Fe529 O530 1.918 . S
Fe529 O537 1.997 . S
Fe529 O540 1.996 . S
Fe529 O544 1.976 . S
Fe529 O547 2.002 . S
O530 Fe528 1.918 . S
O530 Fe529 1.918 . S
O530 Fe531 1.918 . S
Fe531 O530 1.918 . S
Fe531 O532 2.002 . S
Fe531 O541 1.976 . S
Fe531 O545 1.996 . S
Fe531 O548 1.997 . S
O532 Fe531 2.002 . S
O532 C549 1.295 . S
O533 Fe528 1.997 . S
O533 C549 1.235 . S
O534 Fe528 2.002 . S
O534 C535 1.295 . S
C535 O534 1.295 . S
C535 O537 1.235 . S
C536 O541 1.287 . S
C536 O542 1.255 . S
O537 Fe529 1.997 . S
O537 C535 1.235 . S
C538 O544 1.287 . S
C538 O545 1.255 . S
O539 Fe528 1.976 . S
O539 C546 1.287 . S
O540 Fe529 1.996 . S
O540 C546 1.255 . S
O541 Fe531 1.976 . S
O541 C536 1.287 . S
O542 Fe528 1.996 . S
O542 C536 1.255 . S
C543 O547 1.295 . S
C543 O548 1.235 . S
O544 Fe529 1.976 . S
O544 C538 1.287 . S
O545 Fe531 1.996 . S
O545 C538 1.255 . S
C546 O539 1.287 . S
C546 O540 1.255 . S
O547 Fe529 2.002 . S
O547 C543 1.295 . S
O548 Fe531 1.997 . S
O548 C543 1.235 . S
C549 O532 1.295 . S
C549 O533 1.235 . S
Fe550 O552 1.918 . S
Fe550 O555 1.997 . S
Fe550 O556 2.002 . S
Fe550 O561 1.976 . S
Fe550 O564 1.996 1_556 S
Fe551 O552 1.918 . S
Fe551 O559 1.997 . S
Fe551 O562 1.996 . S
Fe551 O566 1.976 . S
Fe551 O569 2.002 . S
O552 Fe550 1.918 . S
O552 Fe551 1.918 . S
O552 Fe553 1.918 . S
Fe553 O552 1.918 . S
Fe553 O554 2.002 . S
Fe553 O563 1.976 1_556 S
Fe553 O567 1.996 . S
Fe553 O570 1.997 . S
O554 Fe553 2.002 . S
O554 C571 1.295 . S
O555 Fe550 1.997 . S
O555 C571 1.235 . S
O556 Fe550 2.002 . S
O556 C557 1.295 . S
C557 O556 1.295 . S
C557 O559 1.235 . S
C558 O563 1.287 . S
C558 O564 1.255 . S
O559 Fe551 1.997 . S
O559 C557 1.235 . S
C560 O566 1.287 . S
C560 O567 1.255 . S
O561 Fe550 1.976 . S
O561 C568 1.287 . S
O562 Fe551 1.996 . S
O562 C568 1.255 . S
O563 Fe553 1.976 1_554 S
O563 C558 1.287 . S
O564 Fe550 1.996 1_554 S
O564 C558 1.255 . S
C565 O569 1.295 . S
C565 O570 1.235 . S
O566 Fe551 1.976 . S
O566 C560 1.287 . S
O567 Fe553 1.996 . S
O567 C560 1.255 . S
C568 O561 1.287 . S
C568 O562 1.255 . S
O569 Fe551 2.002 . S
O569 C565 1.295 . S
O570 Fe553 1.997 . S
O570 C565 1.235 . S
C571 O554 1.295 . S
C571 O555 1.235 . S
Fe572 O574 1.918 . S
Fe572 O577 1.997 . S
Fe572 O578 2.002 . S
Fe572 O583 1.976 . S
Fe572 O586 1.996 . S
Fe573 O574 1.918 . S
Fe573 O581 1.997 . S
Fe573 O584 1.996 . S
Fe573 O588 1.976 . S
Fe573 O591 2.002 . S
O574 Fe572 1.918 . S
O574 Fe573 1.918 . S
O574 Fe575 1.918 . S
Fe575 O574 1.918 . S
Fe575 O576 2.002 . S
Fe575 O585 1.976 . S
Fe575 O589 1.996 . S
Fe575 O592 1.997 . S
O576 Fe575 2.002 . S
O576 C593 1.295 . S
O577 Fe572 1.997 . S
O577 C593 1.235 . S
O578 Fe572 2.002 . S
O578 C579 1.295 . S
C579 O578 1.295 . S
C579 O581 1.235 . S
C580 O585 1.287 . S
C580 O586 1.255 . S
O581 Fe573 1.997 . S
O581 C579 1.235 . S
C582 O588 1.287 . S
C582 O589 1.255 . S
O583 Fe572 1.976 . S
O583 C590 1.287 . S
O584 Fe573 1.996 . S
O584 C590 1.255 . S
O585 Fe575 1.976 . S
O585 C580 1.287 . S
O586 Fe572 1.996 . S
O586 C580 1.255 . S
C587 O591 1.295 . S
C587 O592 1.235 . S
O588 Fe573 1.976 . S
O588 C582 1.287 . S
O589 Fe575 1.996 . S
O589 C582 1.255 . S
C590 O583 1.287 . S
C590 O584 1.255 . S
O591 Fe573 2.002 . S
O591 C587 1.295 . S
O592 Fe575 1.997 . S
O592 C587 1.235 . S
C593 O576 1.295 . S
C593 O577 1.235 . S
Fe594 O596 1.918 . S
Fe594 O599 1.997 . S
Fe594 O600 2.002 . S
Fe594 O605 1.976 . S
Fe594 O608 1.996 . S
Fe595 O596 1.918 . S
Fe595 O603 1.997 . S
Fe595 O606 1.996 . S
Fe595 O610 1.976 . S
Fe595 O613 2.002 . S
O596 Fe594 1.918 . S
O596 Fe595 1.918 . S
O596 Fe597 1.918 . S
Fe597 O596 1.918 . S
Fe597 O598 2.002 . S
Fe597 O607 1.976 . S
Fe597 O611 1.996 . S
Fe597 O614 1.997 . S
O598 Fe597 2.002 . S
O598 C615 1.295 . S
O599 Fe594 1.997 . S
O599 C615 1.235 . S
O600 Fe594 2.002 . S
O600 C601 1.295 . S
C601 O600 1.295 . S
C601 O603 1.235 . S
C602 O607 1.287 . S
C602 O608 1.255 . S
O603 Fe595 1.997 . S
O603 C601 1.235 . S
C604 O610 1.287 . S
C604 O611 1.255 . S
O605 Fe594 1.976 . S
O605 C612 1.287 . S
O606 Fe595 1.996 . S
O606 C612 1.255 . S
O607 Fe597 1.976 . S
O607 C602 1.287 . S
O608 Fe594 1.996 . S
O608 C602 1.255 . S
C609 O613 1.295 . S
C609 O614 1.235 . S
O610 Fe595 1.976 . S
O610 C604 1.287 . S
O611 Fe597 1.996 . S
O611 C604 1.255 . S
C612 O605 1.287 . S
C612 O606 1.255 . S
O613 Fe595 2.002 . S
O613 C609 1.295 . S
O614 Fe597 1.997 . S
O614 C609 1.235 . S
C615 O598 1.295 . S
C615 O599 1.235 . S
Fe616 O618 1.918 . S
Fe616 O621 1.997 . S
Fe616 O622 2.002 . S
Fe616 O627 1.976 . S
Fe616 O630 1.996 . S
Fe617 O618 1.918 . S
Fe617 O625 1.997 . S
Fe617 O628 1.996 . S
Fe617 O632 1.976 . S
Fe617 O635 2.002 . S
O618 Fe616 1.918 . S
O618 Fe617 1.918 . S
O618 Fe619 1.918 . S
Fe619 O618 1.918 . S
Fe619 O620 2.002 . S
Fe619 O629 1.976 . S
Fe619 O633 1.996 . S
Fe619 O636 1.997 . S
O620 Fe619 2.002 . S
O620 C637 1.295 . S
O621 Fe616 1.997 . S
O621 C637 1.235 . S
O622 Fe616 2.002 . S
O622 C623 1.295 . S
C623 O622 1.295 . S
C623 O625 1.235 . S
C624 O629 1.287 . S
C624 O630 1.255 . S
O625 Fe617 1.997 . S
O625 C623 1.235 . S
C626 O632 1.287 . S
C626 O633 1.255 . S
O627 Fe616 1.976 . S
O627 C634 1.287 . S
O628 Fe617 1.996 . S
O628 C634 1.255 . S
O629 Fe619 1.976 . S
O629 C624 1.287 . S
O630 Fe616 1.996 . S
O630 C624 1.255 . S
C631 O635 1.295 . S
C631 O636 1.235 . S
O632 Fe617 1.976 . S
O632 C626 1.287 . S
O633 Fe619 1.996 . S
O633 C626 1.255 . S
C634 O627 1.287 . S
C634 O628 1.255 . S
O635 Fe617 2.002 . S
O635 C631 1.295 . S
O636 Fe619 1.997 . S
O636 C631 1.235 . S
C637 O620 1.295 . S
C637 O621 1.235 . S
Fe638 O640 1.918 . S
Fe638 O643 1.997 . S
Fe638 O644 2.002 . S
Fe638 O649 1.976 1_554 S
Fe638 O652 1.996 . S
Fe639 O640 1.918 . S
Fe639 O647 1.997 . S
Fe639 O650 1.996 1_554 S
Fe639 O654 1.976 . S
Fe639 O657 2.002 . S
O640 Fe638 1.918 . S
O640 Fe639 1.918 . S
O640 Fe641 1.918 . S
Fe641 O640 1.918 . S
Fe641 O642 2.002 . S
Fe641 O651 1.976 . S
Fe641 O655 1.996 . S
Fe641 O658 1.997 . S
O642 Fe641 2.002 . S
O642 C659 1.295 . S
O643 Fe638 1.997 . S
O643 C659 1.235 . S
O644 Fe638 2.002 . S
O644 C645 1.295 . S
C645 O644 1.295 . S
C645 O647 1.235 . S
C646 O651 1.287 . S
C646 O652 1.255 . S
O647 Fe639 1.997 . S
O647 C645 1.235 . S
C648 O654 1.287 . S
C648 O655 1.255 . S
O649 Fe638 1.976 1_556 S
O649 C656 1.287 . S
O650 Fe639 1.996 1_556 S
O650 C656 1.255 . S
O651 Fe641 1.976 . S
O651 C646 1.287 . S
O652 Fe638 1.996 . S
O652 C646 1.255 . S
C653 O657 1.295 . S
C653 O658 1.235 . S
O654 Fe639 1.976 . S
O654 C648 1.287 . S
O655 Fe641 1.996 . S
O655 C648 1.255 . S
C656 O649 1.287 . S
C656 O650 1.255 . S
O657 Fe639 2.002 . S
O657 C653 1.295 . S
O658 Fe641 1.997 . S
O658 C653 1.235 . S
C659 O642 1.295 . S
C659 O643 1.235 . S
Fe660 O662 1.918 . S
Fe660 O665 1.997 . S
Fe660 O666 2.002 . S
Fe660 O671 1.976 . S
Fe660 O674 1.996 . S
Fe661 O662 1.918 . S
Fe661 O669 1.997 . S
Fe661 O672 1.996 . S
Fe661 O676 1.976 . S
Fe661 O679 2.002 . S
O662 Fe660 1.918 . S
O662 Fe661 1.918 . S
O662 Fe663 1.918 . S
Fe663 O662 1.918 . S
Fe663 O664 2.002 . S
Fe663 O673 1.976 . S
Fe663 O677 1.996 . S
Fe663 O680 1.997 . S
O664 Fe663 2.002 . S
O664 C681 1.295 . S
O665 Fe660 1.997 . S
O665 C681 1.235 . S
O666 Fe660 2.002 . S
O666 C667 1.295 . S
C667 O666 1.295 . S
C667 O669 1.235 . S
C668 O673 1.287 . S
C668 O674 1.255 . S
O669 Fe661 1.997 . S
O669 C667 1.235 . S
C670 O676 1.287 . S
C670 O677 1.255 . S
O671 Fe660 1.976 . S
O671 C678 1.287 . S
O672 Fe661 1.996 . S
O672 C678 1.255 . S
O673 Fe663 1.976 . S
O673 C668 1.287 . S
O674 Fe660 1.996 . S
O674 C668 1.255 . S
C675 O679 1.295 . S
C675 O680 1.235 . S
O676 Fe661 1.976 . S
O676 C670 1.287 . S
O677 Fe663 1.996 . S
O677 C670 1.255 . S
C678 O671 1.287 . S
C678 O672 1.255 . S
O679 Fe661 2.002 . S
O679 C675 1.295 . S
O680 Fe663 1.997 . S
O680 C675 1.235 . S
C681 O664 1.295 . S
C681 O665 1.235 . S
Fe682 O684 1.918 . S
Fe682 O687 1.997 . S
Fe682 O688 2.002 . S
Fe682 O693 1.976 . S
Fe682 O696 1.996 . S
Fe683 O684 1.918 . S
Fe683 O691 1.997 . S
Fe683 O694 1.996 . S
Fe683 O698 1.976 . S
Fe683 O701 2.002 . S
O684 Fe682 1.918 . S
O684 Fe683 1.918 . S
O684 Fe685 1.918 . S
Fe685 O684 1.918 . S
Fe685 O686 2.002 . S
Fe685 O695 1.976 . S
Fe685 O699 1.996 . S
Fe685 O702 1.997 . S
O686 Fe685 2.002 . S
O686 C703 1.295 . S
O687 Fe682 1.997 . S
O687 C703 1.235 . S
O688 Fe682 2.002 . S
O688 C689 1.295 . S
C689 O688 1.295 . S
C689 O691 1.235 . S
C690 O695 1.287 . S
C690 O696 1.255 . S
O691 Fe683 1.997 . S
O691 C689 1.235 . S
C692 O698 1.287 . S
C692 O699 1.255 . S
O693 Fe682 1.976 . S
O693 C700 1.287 . S
O694 Fe683 1.996 . S
O694 C700 1.255 . S
O695 Fe685 1.976 . S
O695 C690 1.287 . S
O696 Fe682 1.996 . S
O696 C690 1.255 . S
C697 O701 1.295 . S
C697 O702 1.235 . S
O698 Fe683 1.976 . S
O698 C692 1.287 . S
O699 Fe685 1.996 . S
O699 C692 1.255 . S
C700 O693 1.287 . S
C700 O694 1.255 . S
O701 Fe683 2.002 . S
O701 C697 1.295 . S
O702 Fe685 1.997 . S
O702 C697 1.235 . S
C703 O686 1.295 . S
C703 O687 1.235 . S
H704 C710 0.930 . S
H705 C713 0.930 . S
H706 C714 0.930 . S
H707 C715 0.930 . S
H708 C718 0.930 . S
H709 C719 0.930 . S
C710 H704 0.930 . S
C710 C711 1.355 . S
C710 C712 1.415 . S
C711 C710 1.355 . S
C711 C713 1.419 . S
C712 C710 1.415 . S
C712 C717 1.425 1_545 S
C712 C719 1.409 1_545 S
C713 H705 0.930 . S
C713 C711 1.419 . S
C713 C714 1.362 . S
C714 H706 0.930 . S
C714 C713 1.362 . S
C714 C717 1.409 1_545 S
C715 H707 0.930 . S
C715 C716 1.355 . S
C715 C717 1.415 . S
C716 C715 1.355 . S
C716 C718 1.419 . S
C717 C712 1.425 1_565 S
C717 C714 1.409 1_565 S
C717 C715 1.415 . S
C718 H708 0.930 . S
C718 C716 1.419 . S
C718 C719 1.362 . S
C719 H709 0.930 . S
C719 C712 1.409 1_565 S
C719 C718 1.362 . S
H720 C726 0.930 . S
H721 C729 0.930 . S
H722 C730 0.930 . S
H723 C731 0.930 . S
H724 C734 0.930 . S
H725 C735 0.930 . S
C726 H720 0.930 . S
C726 C727 1.355 . S
C726 C728 1.415 . S
C727 C726 1.355 . S
C727 C729 1.419 . S
C728 C726 1.415 . S
C728 C733 1.425 . S
C728 C735 1.409 . S
C729 H721 0.930 . S
C729 C727 1.419 . S
C729 C730 1.362 . S
C730 H722 0.930 . S
C730 C729 1.362 . S
C730 C733 1.409 . S
C731 H723 0.930 . S
C731 C732 1.355 . S
C731 C733 1.415 . S
C732 C731 1.355 . S
C732 C734 1.419 . S
C733 C728 1.425 . S
C733 C730 1.409 . S
C733 C731 1.415 . S
C734 H724 0.930 . S
C734 C732 1.419 . S
C734 C735 1.362 . S
C735 H725 0.930 . S
C735 C728 1.409 . S
C735 C734 1.362 . S
H736 C742 0.930 . S
H737 C745 0.930 . S
H738 C746 0.930 1_565 S
H739 C747 0.930 . S
H740 C750 0.930 . S
H741 C751 0.930 1_545 S
C742 H736 0.930 . S
C742 C743 1.355 . S
C742 C744 1.415 . S
C743 C742 1.355 . S
C743 C745 1.419 . S
C744 C742 1.415 . S
C744 C749 1.425 1_545 S
C744 C751 1.409 1_545 S
C745 H737 0.930 . S
C745 C743 1.419 . S
C745 C746 1.362 . S
C746 H738 0.930 1_545 S
C746 C745 1.362 . S
C746 C749 1.409 1_545 S
C747 H739 0.930 . S
C747 C748 1.355 . S
C747 C749 1.415 . S
C748 C747 1.355 . S
C748 C750 1.419 . S
C749 C744 1.425 1_565 S
C749 C746 1.409 1_565 S
C749 C747 1.415 . S
C750 H740 0.930 . S
C750 C748 1.419 . S
C750 C751 1.362 . S
C751 H741 0.930 1_565 S
C751 C744 1.409 1_565 S
C751 C750 1.362 . S
H752 C758 0.930 . S
H753 C761 0.930 . S
H754 C762 0.930 . S
H755 C763 0.930 . S
H756 C766 0.930 . S
H757 C767 0.930 . S
C758 H752 0.930 . S
C758 C759 1.355 1_556 S
C758 C760 1.415 . S
C759 C758 1.355 1_554 S
C759 C761 1.419 . S
C760 C758 1.415 . S
C760 C765 1.425 1_556 S
C760 C767 1.409 . S
C761 H753 0.930 . S
C761 C759 1.419 . S
C761 C762 1.362 . S
C762 H754 0.930 . S
C762 C761 1.362 . S
C762 C765 1.409 . S
C763 H755 0.930 . S
C763 C764 1.355 1_554 S
C763 C765 1.415 . S
C764 C763 1.355 1_556 S
C764 C766 1.419 . S
C765 C760 1.425 1_554 S
C765 C762 1.409 . S
C765 C763 1.415 . S
C766 H756 0.930 . S
C766 C764 1.419 . S
C766 C767 1.362 . S
C767 H757 0.930 . S
C767 C760 1.409 . S
C767 C766 1.362 . S
H768 C774 0.930 . S
H769 C777 0.930 . S
H770 C778 0.930 . S
H771 C779 0.930 . S
H772 C782 0.930 . S
H773 C783 0.930 . S
C774 H768 0.930 . S
C774 C775 1.355 . S
C774 C776 1.415 . S
C775 C774 1.355 . S
C775 C777 1.419 . S
C776 C774 1.415 . S
C776 C781 1.425 1_565 S
C776 C783 1.409 1_565 S
C777 H769 0.930 . S
C777 C775 1.419 . S
C777 C778 1.362 . S
C778 H770 0.930 . S
C778 C777 1.362 . S
C778 C781 1.409 1_565 S
C779 H771 0.930 . S
C779 C780 1.355 . S
C779 C781 1.415 . S
C780 C779 1.355 . S
C780 C782 1.419 . S
C781 C776 1.425 1_545 S
C781 C778 1.409 1_545 S
C781 C779 1.415 . S
C782 H772 0.930 . S
C782 C780 1.419 . S
C782 C783 1.362 . S
C783 H773 0.930 . S
C783 C776 1.409 1_545 S
C783 C782 1.362 . S
H784 C790 0.930 . S
H785 C793 0.930 . S
H786 C794 0.930 . S
H787 C795 0.930 . S
H788 C798 0.930 . S
H789 C799 0.930 . S
C790 H784 0.930 . S
C790 C791 1.355 . S
C790 C792 1.415 . S
C791 C790 1.355 . S
C791 C793 1.419 . S
C792 C790 1.415 . S
C792 C797 1.425 . S
C792 C799 1.409 . S
C793 H785 0.930 . S
C793 C791 1.419 . S
C793 C794 1.362 . S
C794 H786 0.930 . S
C794 C793 1.362 . S
C794 C797 1.409 . S
C795 H787 0.930 . S
C795 C796 1.355 . S
C795 C797 1.415 . S
C796 C795 1.355 . S
C796 C798 1.419 . S
C797 C792 1.425 . S
C797 C794 1.409 . S
C797 C795 1.415 . S
C798 H788 0.930 . S
C798 C796 1.419 . S
C798 C799 1.362 . S
C799 H789 0.930 . S
C799 C792 1.409 . S
C799 C798 1.362 . S
H800 C806 0.930 . S
H801 C809 0.930 . S
H802 C810 0.930 1_565 S
H803 C811 0.930 . S
H804 C814 0.930 . S
H805 C815 0.930 1_545 S
C806 H800 0.930 . S
C806 C807 1.355 . S
C806 C808 1.415 . S
C807 C806 1.355 . S
C807 C809 1.419 . S
C808 C806 1.415 . S
C808 C813 1.425 1_545 S
C808 C815 1.409 1_545 S
C809 H801 0.930 . S
C809 C807 1.419 . S
C809 C810 1.362 . S
C810 H802 0.930 1_545 S
C810 C809 1.362 . S
C810 C813 1.409 1_545 S
C811 H803 0.930 . S
C811 C812 1.355 . S
C811 C813 1.415 . S
C812 C811 1.355 . S
C812 C814 1.419 . S
C813 C808 1.425 1_565 S
C813 C810 1.409 1_565 S
C813 C811 1.415 . S
C814 H804 0.930 . S
C814 C812 1.419 . S
C814 C815 1.362 . S
C815 H805 0.930 1_565 S
C815 C808 1.409 1_565 S
C815 C814 1.362 . S
H816 C822 0.930 . S
H817 C825 0.930 . S
H818 C826 0.930 . S
H819 C827 0.930 . S
H820 C830 0.930 . S
H821 C831 0.930 . S
C822 H816 0.930 . S
C822 C823 1.355 . S
C822 C824 1.415 . S
C823 C822 1.355 . S
C823 C825 1.419 1_554 S
C824 C822 1.415 . S
C824 C829 1.425 1_554 S
C824 C831 1.409 . S
C825 H817 0.930 . S
C825 C823 1.419 1_556 S
C825 C826 1.362 . S
C826 H818 0.930 . S
C826 C825 1.362 . S
C826 C829 1.409 . S
C827 H819 0.930 . S
C827 C828 1.355 . S
C827 C829 1.415 . S
C828 C827 1.355 . S
C828 C830 1.419 1_556 S
C829 C824 1.425 1_556 S
C829 C826 1.409 . S
C829 C827 1.415 . S
C830 H820 0.930 . S
C830 C828 1.419 1_554 S
C830 C831 1.362 . S
C831 H821 0.930 . S
C831 C824 1.409 . S
C831 C830 1.362 . S
H832 C838 0.930 . S
H833 C841 0.930 . S
H834 C842 0.930 . S
H835 C843 0.930 . S
H836 C846 0.930 . S
H837 C847 0.930 . S
C838 H832 0.930 . S
C838 C839 1.355 . S
C838 C840 1.415 . S
C839 C838 1.355 . S
C839 C841 1.419 . S
C840 C838 1.415 . S
C840 C845 1.425 . S
C840 C847 1.409 . S
C841 H833 0.930 . S
C841 C839 1.419 . S
C841 C842 1.362 . S
C842 H834 0.930 . S
C842 C841 1.362 . S
C842 C845 1.409 . S
C843 H835 0.930 . S
C843 C844 1.355 . S
C843 C845 1.415 . S
C844 C843 1.355 . S
C844 C846 1.419 . S
C845 C840 1.425 . S
C845 C842 1.409 . S
C845 C843 1.415 . S
C846 H836 0.930 . S
C846 C844 1.419 . S
C846 C847 1.362 . S
C847 H837 0.930 . S
C847 C840 1.409 . S
C847 C846 1.362 . S
H848 C854 0.930 . S
H849 C857 0.930 . S
H850 C858 0.930 . S
H851 C859 0.930 . S
H852 C862 0.930 . S
H853 C863 0.930 . S
C854 H848 0.930 . S
C854 C855 1.355 . S
C854 C856 1.415 . S
C855 C854 1.355 . S
C855 C857 1.419 1_556 S
C856 C854 1.415 . S
C856 C861 1.425 1_556 S
C856 C863 1.409 . S
C857 H849 0.930 . S
C857 C855 1.419 1_554 S
C857 C858 1.362 . S
C858 H850 0.930 . S
C858 C857 1.362 . S
C858 C861 1.409 . S
C859 H851 0.930 . S
C859 C860 1.355 . S
C859 C861 1.415 . S
C860 C859 1.355 . S
C860 C862 1.419 1_554 S
C861 C856 1.425 1_554 S
C861 C858 1.409 . S
C861 C859 1.415 . S
C862 H852 0.930 . S
C862 C860 1.419 1_556 S
C862 C863 1.362 . S
C863 H853 0.930 . S
C863 C856 1.409 . S
C863 C862 1.362 . S
H864 C870 0.930 . S
H865 C873 0.930 . S
H866 C874 0.930 . S
H867 C875 0.930 . S
H868 C878 0.930 . S
H869 C879 0.930 . S
C870 H864 0.930 . S
C870 C871 1.355 . S
C870 C872 1.415 . S
C871 C870 1.355 . S
C871 C873 1.419 . S
C872 C870 1.415 . S
C872 C877 1.425 . S
C872 C879 1.409 . S
C873 H865 0.930 . S
C873 C871 1.419 . S
C873 C874 1.362 . S
C874 H866 0.930 . S
C874 C873 1.362 . S
C874 C877 1.409 . S
C875 H867 0.930 . S
C875 C876 1.355 . S
C875 C877 1.415 . S
C876 C875 1.355 . S
C876 C878 1.419 . S
C877 C872 1.425 . S
C877 C874 1.409 . S
C877 C875 1.415 . S
C878 H868 0.930 . S
C878 C876 1.419 . S
C878 C879 1.362 . S
C879 H869 0.930 . S
C879 C872 1.409 . S
C879 C878 1.362 . S
H880 C886 0.930 . S
H881 C889 0.930 . S
H882 C890 0.930 . S
H883 C891 0.930 . S
H884 C894 0.930 . S
H885 C895 0.930 . S
C886 H880 0.930 . S
C886 C887 1.355 . S
C886 C888 1.415 . S
C887 C886 1.355 . S
C887 C889 1.419 . S
C888 C886 1.415 . S
C888 C893 1.425 . S
C888 C895 1.409 . S
C889 H881 0.930 . S
C889 C887 1.419 . S
C889 C890 1.362 . S
C890 H882 0.930 . S
C890 C889 1.362 . S
C890 C893 1.409 . S
C891 H883 0.930 . S
C891 C892 1.355 . S
C891 C893 1.415 . S
C892 C891 1.355 . S
C892 C894 1.419 . S
C893 C888 1.425 . S
C893 C890 1.409 . S
C893 C891 1.415 . S
C894 H884 0.930 . S
C894 C892 1.419 . S
C894 C895 1.362 . S
C895 H885 0.930 . S
C895 C888 1.409 . S
C895 C894 1.362 . S
H896 C902 0.930 . S
H897 C905 0.930 . S
H898 C906 0.930 . S
H899 C907 0.930 . S
H900 C910 0.930 . S
H901 C911 0.930 . S
C902 H896 0.930 . S
C902 C903 1.355 . S
C902 C904 1.415 . S
C903 C902 1.355 . S
C903 C905 1.419 . S
C904 C902 1.415 . S
C904 C909 1.425 . S
C904 C911 1.409 . S
C905 H897 0.930 . S
C905 C903 1.419 . S
C905 C906 1.362 . S
C906 H898 0.930 . S
C906 C905 1.362 . S
C906 C909 1.409 . S
C907 H899 0.930 . S
C907 C908 1.355 . S
C907 C909 1.415 . S
C908 C907 1.355 . S
C908 C910 1.419 . S
C909 C904 1.425 . S
C909 C906 1.409 . S
C909 C907 1.415 . S
C910 H900 0.930 . S
C910 C908 1.419 . S
C910 C911 1.362 . S
C911 H901 0.930 . S
C911 C904 1.409 . S
C911 C910 1.362 . S
H912 C918 0.930 . S
H913 C921 0.930 . S
H914 C922 0.930 . S
H915 C923 0.930 . S
H916 C926 0.930 . S
H917 C927 0.930 . S
C918 H912 0.930 . S
C918 C919 1.355 . S
C918 C920 1.415 . S
C919 C918 1.355 . S
C919 C921 1.419 1_556 S
C920 C918 1.415 . S
C920 C925 1.425 1_556 S
C920 C927 1.409 . S
C921 H913 0.930 . S
C921 C919 1.419 1_554 S
C921 C922 1.362 . S
C922 H914 0.930 . S
C922 C921 1.362 . S
C922 C925 1.409 . S
C923 H915 0.930 . S
C923 C924 1.355 . S
C923 C925 1.415 . S
C924 C923 1.355 . S
C924 C926 1.419 1_554 S
C925 C920 1.425 1_554 S
C925 C922 1.409 . S
C925 C923 1.415 . S
C926 H916 0.930 . S
C926 C924 1.419 1_556 S
C926 C927 1.362 . S
C927 H917 0.930 . S
C927 C920 1.409 . S
C927 C926 1.362 . S
H928 C934 0.930 . S
H929 C937 0.930 . S
H930 C938 0.930 . S
H931 C939 0.930 . S
H932 C942 0.930 . S
H933 C943 0.930 . S
C934 H928 0.930 . S
C934 C935 1.355 . S
C934 C936 1.415 . S
C935 C934 1.355 . S
C935 C937 1.419 . S
C936 C934 1.415 . S
C936 C941 1.425 . S
C936 C943 1.409 . S
C937 H929 0.930 . S
C937 C935 1.419 . S
C937 C938 1.362 . S
C938 H930 0.930 . S
C938 C937 1.362 . S
C938 C941 1.409 . S
C939 H931 0.930 . S
C939 C940 1.355 . S
C939 C941 1.415 . S
C940 C939 1.355 . S
C940 C942 1.419 . S
C941 C936 1.425 . S
C941 C938 1.409 . S
C941 C939 1.415 . S
C942 H932 0.930 . S
C942 C940 1.419 . S
C942 C943 1.362 . S
C943 H933 0.930 . S
C943 C936 1.409 . S
C943 C942 1.362 . S
H944 C950 0.930 . S
H945 C953 0.930 . S
H946 C954 0.930 . S
H947 C955 0.930 . S
H948 C958 0.930 . S
H949 C959 0.930 . S
C950 H944 0.930 . S
C950 C951 1.355 . S
C950 C952 1.415 . S
C951 C950 1.355 . S
C951 C953 1.419 . S
C952 C950 1.415 . S
C952 C957 1.425 . S
C952 C959 1.409 . S
C953 H945 0.930 . S
C953 C951 1.419 . S
C953 C954 1.362 . S
C954 H946 0.930 . S
C954 C953 1.362 . S
C954 C957 1.409 . S
C955 H947 0.930 . S
C955 C956 1.355 . S
C955 C957 1.415 . S
C956 C955 1.355 . S
C956 C958 1.419 . S
C957 C952 1.425 . S
C957 C954 1.409 . S
C957 C955 1.415 . S
C958 H948 0.930 . S
C958 C956 1.419 . S
C958 C959 1.362 . S
C959 H949 0.930 . S
C959 C952 1.409 . S
C959 C958 1.362 . S
H960 C966 0.930 . S
H961 C969 0.930 . S
H962 C970 0.930 . S
H963 C971 0.930 . S
H964 C974 0.930 . S
H965 C975 0.930 . S
C966 H960 0.930 . S
C966 C967 1.355 . S
C966 C968 1.415 . S
C967 C966 1.355 . S
C967 C969 1.419 . S
C968 C966 1.415 . S
C968 C973 1.425 . S
C968 C975 1.409 . S
C969 H961 0.930 . S
C969 C967 1.419 . S
C969 C970 1.362 . S
C970 H962 0.930 . S
C970 C969 1.362 . S
C970 C973 1.409 . S
C971 H963 0.930 . S
C971 C972 1.355 . S
C971 C973 1.415 . S
C972 C971 1.355 . S
C972 C974 1.419 . S
C973 C968 1.425 . S
C973 C970 1.409 . S
C973 C971 1.415 . S
C974 H964 0.930 . S
C974 C972 1.419 . S
C974 C975 1.362 . S
C975 H965 0.930 . S
C975 C968 1.409 . S
C975 C974 1.362 . S
H976 C982 0.930 1_565 S
H977 C985 0.930 . S
H978 C986 0.930 . S
H979 C987 0.930 1_545 S
H980 C990 0.930 . S
H981 C991 0.930 . S
C982 H976 0.930 1_545 S
C982 C983 1.355 . S
C982 C984 1.415 1_545 S
C983 C982 1.355 . S
C983 C985 1.419 . S
C984 C982 1.415 1_565 S
C984 C989 1.425 1_665 S
C984 C991 1.409 . S
C985 H977 0.930 . S
C985 C983 1.419 . S
C985 C986 1.362 1_655 S
C986 H978 0.930 . S
C986 C985 1.362 1_455 S
C986 C989 1.409 . S
C987 H979 0.930 1_565 S
C987 C988 1.355 . S
C987 C989 1.415 1_565 S
C988 C987 1.355 . S
C988 C990 1.419 . S
C989 C984 1.425 1_445 S
C989 C986 1.409 . S
C989 C987 1.415 1_545 S
C990 H980 0.930 . S
C990 C988 1.419 . S
C990 C991 1.362 1_455 S
C991 H981 0.930 . S
C991 C984 1.409 . S
C991 C990 1.362 1_655 S
H992 C998 0.930 . S
H993 C1001 0.930 . S
H994 C1002 0.930 . S
H995 C1003 0.930 . S
H996 C1006 0.930 . S
H997 C1007 0.930 . S
C998 H992 0.930 . S
C998 C999 1.355 . S
C998 C1000 1.415 . S
C999 C998 1.355 . S
C999 C1001 1.419 . S
C1000 C998 1.415 . S
C1000 C1005 1.425 . S
C1000 C1007 1.409 . S
C1001 H993 0.930 . S
C1001 C999 1.419 . S
C1001 C1002 1.362 . S
C1002 H994 0.930 . S
C1002 C1001 1.362 . S
C1002 C1005 1.409 . S
C1003 H995 0.930 . S
C1003 C1004 1.355 . S
C1003 C1005 1.415 . S
C1004 C1003 1.355 . S
C1004 C1006 1.419 . S
C1005 C1000 1.425 . S
C1005 C1002 1.409 . S
C1005 C1003 1.415 . S
C1006 H996 0.930 . S
C1006 C1004 1.419 . S
C1006 C1007 1.362 . S
C1007 H997 0.930 . S
C1007 C1000 1.409 . S
C1007 C1006 1.362 . S
H1008 C1014 0.930 1_565 S
H1009 C1017 0.930 . S
H1010 C1018 0.930 . S
H1011 C1019 0.930 1_545 S
H1012 C1022 0.930 . S
H1013 C1023 0.930 . S
C1014 H1008 0.930 1_545 S
C1014 C1015 1.355 . S
C1014 C1016 1.415 1_544 S
C1015 C1014 1.355 . S
C1015 C1017 1.419 . S
C1016 C1014 1.415 1_566 S
C1016 C1021 1.424 1_566 S
C1016 C1023 1.409 . S
C1017 H1009 0.930 . S
C1017 C1015 1.419 . S
C1017 C1018 1.362 . S
C1018 H1010 0.930 . S
C1018 C1017 1.362 . S
C1018 C1021 1.415 . S
C1019 H1011 0.930 1_565 S
C1019 C1020 1.355 . S
C1019 C1021 1.411 1_566 S
C1020 C1019 1.355 . S
C1020 C1022 1.419 . S
C1021 C1016 1.424 1_544 S
C1021 C1018 1.415 . S
C1021 C1019 1.411 1_544 S
C1022 H1012 0.930 . S
C1022 C1020 1.419 . S
C1022 C1023 1.362 . S
C1023 H1013 0.930 . S
C1023 C1016 1.409 . S
C1023 C1022 1.362 . S
H1024 C1030 0.930 . S
H1025 C1033 0.930 . S
H1026 C1034 0.930 . S
H1027 C1035 0.930 . S
H1028 C1038 0.930 . S
H1029 C1039 0.930 . S
C1030 H1024 0.930 . S
C1030 C1031 1.355 . S
C1030 C1032 1.415 . S
C1031 C1030 1.355 . S
C1031 C1033 1.419 . S
C1032 C1030 1.415 . S
C1032 C1037 1.425 . S
C1032 C1039 1.409 . S
C1033 H1025 0.930 . S
C1033 C1031 1.419 . S
C1033 C1034 1.362 . S
C1034 H1026 0.930 . S
C1034 C1033 1.362 . S
C1034 C1037 1.409 . S
C1035 H1027 0.930 . S
C1035 C1036 1.355 . S
C1035 C1037 1.415 . S
C1036 C1035 1.355 . S
C1036 C1038 1.419 . S
C1037 C1032 1.425 . S
C1037 C1034 1.409 . S
C1037 C1035 1.415 . S
C1038 H1028 0.930 . S
C1038 C1036 1.419 . S
C1038 C1039 1.362 . S
C1039 H1029 0.930 . S
C1039 C1032 1.409 . S
C1039 C1038 1.362 . S
H1040 C1046 0.930 . S
H1041 C1049 0.929 1_545 S
H1042 C1050 0.930 . S
H1043 C1051 0.930 . S
H1044 C1054 0.929 1_565 S
H1045 C1055 0.930 . S
C1046 H1040 0.930 . S
C1046 C1047 1.355 . S
C1046 C1048 1.415 . S
C1047 C1046 1.355 . S
C1047 C1049 1.425 . S
C1048 C1046 1.415 . S
C1048 C1053 1.425 1_565 S
C1048 C1055 1.409 . S
C1049 H1041 0.929 1_565 S
C1049 C1047 1.425 . S
C1049 C1050 1.358 1_565 S
C1050 H1042 0.930 . S
C1050 C1049 1.358 1_545 S
C1050 C1053 1.409 . S
C1051 H1043 0.930 . S
C1051 C1052 1.355 . S
C1051 C1053 1.415 . S
C1052 C1051 1.355 . S
C1052 C1054 1.423 . S
C1053 C1048 1.425 1_545 S
C1053 C1050 1.409 . S
C1053 C1051 1.415 . S
C1054 H1044 0.929 1_545 S
C1054 C1052 1.423 . S
C1054 C1055 1.359 1_545 S
C1055 H1045 0.930 . S
C1055 C1048 1.409 . S
C1055 C1054 1.359 1_565 S
H1056 C1062 0.930 . S
H1057 C1065 0.930 . S
H1058 C1066 0.930 . S
H1059 C1067 0.930 . S
H1060 C1070 0.930 . S
H1061 C1071 0.930 . S
C1062 H1056 0.930 . S
C1062 C1063 1.355 . S
C1062 C1064 1.415 . S
C1063 C1062 1.355 . S
C1063 C1065 1.419 . S
C1064 C1062 1.415 . S
C1064 C1069 1.425 . S
C1064 C1071 1.409 . S
C1065 H1057 0.930 . S
C1065 C1063 1.419 . S
C1065 C1066 1.362 . S
C1066 H1058 0.930 . S
C1066 C1065 1.362 . S
C1066 C1069 1.409 . S
C1067 H1059 0.930 . S
C1067 C1068 1.355 . S
C1067 C1069 1.415 . S
C1068 C1067 1.355 . S
C1068 C1070 1.419 . S
C1069 C1064 1.425 . S
C1069 C1066 1.409 . S
C1069 C1067 1.415 . S
C1070 H1060 0.930 . S
C1070 C1068 1.419 . S
C1070 C1071 1.362 . S
C1071 H1061 0.930 . S
C1071 C1064 1.409 . S
C1071 C1070 1.362 . S
H1072 C1078 0.930 . S
H1073 C1081 0.930 . S
H1074 C1082 0.937 . S
H1075 C1083 0.930 . S
H1076 C1086 0.930 . S
H1077 C1087 0.937 . S
C1078 H1072 0.930 . S
C1078 C1079 1.355 1_556 S
C1078 C1080 1.415 . S
C1079 C1078 1.355 1_554 S
C1079 C1081 1.419 . S
C1080 C1078 1.415 . S
C1080 C1085 1.425 1_666 S
C1080 C1087 1.412 1_655 S
C1081 H1073 0.930 . S
C1081 C1079 1.419 . S
C1081 C1082 1.352 1_565 S
C1082 H1074 0.937 . S
C1082 C1081 1.352 1_545 S
C1082 C1085 1.413 1_655 S
C1083 H1075 0.930 . S
C1083 C1084 1.355 1_554 S
C1083 C1085 1.415 . S
C1084 C1083 1.355 1_556 S
C1084 C1086 1.419 . S
C1085 C1080 1.425 1_444 S
C1085 C1082 1.413 1_455 S
C1085 C1083 1.415 . S
C1086 H1076 0.930 . S
C1086 C1084 1.419 . S
C1086 C1087 1.353 1_545 S
C1087 H1077 0.937 . S
C1087 C1080 1.412 1_455 S
C1087 C1086 1.353 1_565 S
H1088 C1094 0.930 . S
H1089 C1097 0.930 . S
H1090 C1098 0.930 . S
H1091 C1099 0.930 . S
H1092 C1102 0.930 . S
H1093 C1103 0.930 . S
C1094 H1088 0.930 . S
C1094 C1095 1.355 . S
C1094 C1096 1.415 . S
C1095 C1094 1.355 . S
C1095 C1097 1.419 . S
C1096 C1094 1.415 . S
C1096 C1101 1.425 . S
C1096 C1103 1.409 . S
C1097 H1089 0.930 . S
C1097 C1095 1.419 . S
C1097 C1098 1.362 . S
C1098 H1090 0.930 . S
C1098 C1097 1.362 . S
C1098 C1101 1.409 . S
C1099 H1091 0.930 . S
C1099 C1100 1.355 . S
C1099 C1101 1.415 . S
C1100 C1099 1.355 . S
C1100 C1102 1.419 . S
C1101 C1096 1.425 . S
C1101 C1098 1.409 . S
C1101 C1099 1.415 . S
C1102 H1092 0.930 . S
C1102 C1100 1.419 . S
C1102 C1103 1.362 . S
C1103 H1093 0.930 . S
C1103 C1096 1.409 . S
C1103 C1102 1.362 . S
H1104 C1110 0.930 . S
H1105 C1113 0.930 . S
H1106 C1114 0.930 . S
H1107 C1115 0.930 . S
H1108 C1118 0.930 . S
H1109 C1119 0.930 . S
C1110 H1104 0.930 . S
C1110 C1111 1.355 . S
C1110 C1112 1.415 . S
C1111 C1110 1.355 . S
C1111 C1113 1.419 . S
C1112 C1110 1.415 . S
C1112 C1117 1.425 . S
C1112 C1119 1.409 . S
C1113 H1105 0.930 . S
C1113 C1111 1.419 . S
C1113 C1114 1.362 . S
C1114 H1106 0.930 . S
C1114 C1113 1.362 . S
C1114 C1117 1.409 . S
C1115 H1107 0.930 . S
C1115 C1116 1.355 . S
C1115 C1117 1.415 . S
C1116 C1115 1.355 . S
C1116 C1118 1.419 . S
C1117 C1112 1.425 . S
C1117 C1114 1.409 . S
C1117 C1115 1.415 . S
C1118 H1108 0.930 . S
C1118 C1116 1.419 . S
C1118 C1119 1.362 . S
C1119 H1109 0.930 . S
C1119 C1112 1.409 . S
C1119 C1118 1.362 . S
H1120 C1126 0.930 . S
H1121 C1129 0.930 . S
H1122 C1130 0.930 . S
H1123 C1131 0.930 . S
H1124 C1134 0.930 . S
H1125 C1135 0.930 . S
C1126 H1120 0.930 . S
C1126 C1127 1.355 . S
C1126 C1128 1.415 . S
C1127 C1126 1.355 . S
C1127 C1129 1.419 . S
C1128 C1126 1.415 . S
C1128 C1133 1.425 . S
C1128 C1135 1.409 . S
C1129 H1121 0.930 . S
C1129 C1127 1.419 . S
C1129 C1130 1.362 . S
C1130 H1122 0.930 . S
C1130 C1129 1.362 . S
C1130 C1133 1.409 . S
C1131 H1123 0.930 . S
C1131 C1132 1.355 . S
C1131 C1133 1.415 . S
C1132 C1131 1.355 . S
C1132 C1134 1.419 . S
C1133 C1128 1.425 . S
C1133 C1130 1.409 . S
C1133 C1131 1.415 . S
C1134 H1124 0.930 . S
C1134 C1132 1.419 . S
C1134 C1135 1.362 . S
C1135 H1125 0.930 . S
C1135 C1128 1.409 . S
C1135 C1134 1.362 . S
H1136 C1142 0.930 . S
H1137 C1145 0.930 . S
H1138 C1146 0.930 . S
H1139 C1147 0.930 . S
H1140 C1150 0.930 . S
H1141 C1151 0.930 . S
C1142 H1136 0.930 . S
C1142 C1143 1.355 . S
C1142 C1144 1.415 . S
C1143 C1142 1.355 . S
C1143 C1145 1.419 . S
C1144 C1142 1.415 . S
C1144 C1149 1.425 . S
C1144 C1151 1.409 . S
C1145 H1137 0.930 . S
C1145 C1143 1.419 . S
C1145 C1146 1.362 . S
C1146 H1138 0.930 . S
C1146 C1145 1.362 . S
C1146 C1149 1.409 . S
C1147 H1139 0.930 . S
C1147 C1148 1.355 . S
C1147 C1149 1.415 . S
C1148 C1147 1.355 . S
C1148 C1150 1.419 . S
C1149 C1144 1.425 . S
C1149 C1146 1.409 . S
C1149 C1147 1.415 . S
C1150 H1140 0.930 . S
C1150 C1148 1.419 . S
C1150 C1151 1.362 . S
C1151 H1141 0.930 . S
C1151 C1144 1.409 . S
C1151 C1150 1.362 . S
H1152 C1158 0.931 . S
H1153 C1161 0.930 . S
H1154 C1162 0.930 . S
H1155 C1163 0.934 . S
H1156 C1166 0.930 . S
H1157 C1167 0.930 . S
C1158 H1152 0.931 . S
C1158 C1159 1.355 . S
C1158 C1160 1.415 1_554 S
C1159 C1158 1.355 . S
C1159 C1161 1.419 . S
C1160 C1158 1.415 1_556 S
C1160 C1165 1.424 1_556 S
C1160 C1167 1.409 . S
C1161 H1153 0.930 . S
C1161 C1159 1.419 . S
C1161 C1162 1.362 . S
C1162 H1154 0.930 . S
C1162 C1161 1.362 . S
C1162 C1165 1.414 . S
C1163 H1155 0.934 . S
C1163 C1164 1.355 . S
C1163 C1165 1.412 1_556 S
C1164 C1163 1.355 . S
C1164 C1166 1.419 . S
C1165 C1160 1.424 1_554 S
C1165 C1162 1.414 . S
C1165 C1163 1.412 1_554 S
C1166 H1156 0.930 . S
C1166 C1164 1.419 . S
C1166 C1167 1.362 . S
C1167 H1157 0.930 . S
C1167 C1160 1.409 . S
C1167 C1166 1.362 . S
H1168 C1174 0.930 . S
H1169 C1177 0.930 . S
H1170 C1178 0.930 . S
H1171 C1179 0.930 . S
H1172 C1182 0.930 . S
H1173 C1183 0.930 . S
C1174 H1168 0.930 . S
C1174 C1175 1.355 . S
C1174 C1176 1.415 1_455 S
C1175 C1174 1.355 . S
C1175 C1177 1.419 . S
C1176 C1174 1.415 1_655 S
C1176 C1181 1.425 1_655 S
C1176 C1183 1.409 . S
C1177 H1169 0.930 . S
C1177 C1175 1.419 . S
C1177 C1178 1.362 . S
C1178 H1170 0.930 . S
C1178 C1177 1.362 . S
C1178 C1181 1.409 . S
C1179 H1171 0.930 . S
C1179 C1180 1.355 . S
C1179 C1181 1.415 1_655 S
C1180 C1179 1.355 . S
C1180 C1182 1.419 . S
C1181 C1176 1.425 1_455 S
C1181 C1178 1.409 . S
C1181 C1179 1.415 1_455 S
C1182 H1172 0.930 . S
C1182 C1180 1.419 . S
C1182 C1183 1.362 . S
C1183 H1173 0.930 . S
C1183 C1176 1.409 . S
C1183 C1182 1.362 . S
H1184 C1190 0.938 . S
H1185 C1193 0.930 . S
H1186 C1194 0.930 . S
H1187 C1195 0.930 . S
H1188 C1198 0.930 . S
H1189 C1199 0.930 . S
C1190 H1184 0.938 . S
C1190 C1191 1.343 1_556 S
C1190 C1192 1.419 1_455 S
C1191 C1190 1.343 1_554 S
C1191 C1193 1.419 . S
C1192 C1190 1.419 1_655 S
C1192 C1197 1.425 1_656 S
C1192 C1199 1.409 . S
C1193 H1185 0.930 . S
C1193 C1191 1.419 . S
C1193 C1194 1.362 . S
C1194 H1186 0.930 . S
C1194 C1193 1.362 . S
C1194 C1197 1.409 . S
C1195 H1187 0.930 . S
C1195 C1196 1.355 1_554 S
C1195 C1197 1.415 1_655 S
C1196 C1195 1.355 1_556 S
C1196 C1198 1.419 . S
C1197 C1192 1.425 1_454 S
C1197 C1194 1.409 . S
C1197 C1195 1.415 1_455 S
C1198 H1188 0.930 . S
C1198 C1196 1.419 . S
C1198 C1199 1.362 . S
C1199 H1189 0.930 . S
C1199 C1192 1.409 . S
C1199 C1198 1.362 . S
H1200 C1206 0.930 . S
H1201 C1209 0.930 . S
H1202 C1210 0.930 . S
H1203 C1211 0.930 . S
H1204 C1214 0.930 . S
H1205 C1215 0.930 . S
C1206 H1200 0.930 . S
C1206 C1207 1.355 . S
C1206 C1208 1.415 . S
C1207 C1206 1.355 . S
C1207 C1209 1.419 . S
C1208 C1206 1.415 . S
C1208 C1213 1.425 . S
C1208 C1215 1.409 . S
C1209 H1201 0.930 . S
C1209 C1207 1.419 . S
C1209 C1210 1.362 . S
C1210 H1202 0.930 . S
C1210 C1209 1.362 . S
C1210 C1213 1.409 . S
C1211 H1203 0.930 . S
C1211 C1212 1.355 . S
C1211 C1213 1.415 . S
C1212 C1211 1.355 . S
C1212 C1214 1.419 . S
C1213 C1208 1.425 . S
C1213 C1210 1.409 . S
C1213 C1211 1.415 . S
C1214 H1204 0.930 . S
C1214 C1212 1.419 . S
C1214 C1215 1.362 . S
C1215 H1205 0.930 . S
C1215 C1208 1.409 . S
C1215 C1214 1.362 . S
H1216 C1222 0.930 . S
H1217 C1225 0.930 . S
H1218 C1226 0.930 . S
H1219 C1227 0.930 . S
H1220 C1230 0.930 . S
H1221 C1231 0.930 . S
C1222 H1216 0.930 . S
C1222 C1223 1.355 . S
C1222 C1224 1.415 . S
C1223 C1222 1.355 . S
C1223 C1225 1.419 . S
C1224 C1222 1.415 . S
C1224 C1229 1.425 . S
C1224 C1231 1.409 . S
C1225 H1217 0.930 . S
C1225 C1223 1.419 . S
C1225 C1226 1.362 . S
C1226 H1218 0.930 . S
C1226 C1225 1.362 . S
C1226 C1229 1.409 . S
C1227 H1219 0.930 . S
C1227 C1228 1.355 . S
C1227 C1229 1.415 . S
C1228 C1227 1.355 . S
C1228 C1230 1.419 . S
C1229 C1224 1.425 . S
C1229 C1226 1.409 . S
C1229 C1227 1.415 . S
C1230 H1220 0.930 . S
C1230 C1228 1.419 . S
C1230 C1231 1.362 . S
C1231 H1221 0.930 . S
C1231 C1224 1.409 . S
C1231 C1230 1.362 . S
H1232 C1238 0.930 . S
H1233 C1241 0.930 . S
H1234 C1242 0.930 . S
H1235 C1243 0.930 . S
H1236 C1246 0.930 . S
H1237 C1247 0.930 . S
C1238 H1232 0.930 . S
C1238 C1239 1.355 . S
C1238 C1240 1.415 1_455 S
C1239 C1238 1.355 . S
C1239 C1241 1.419 1_455 S
C1240 C1238 1.415 1_655 S
C1240 C1245 1.425 . S
C1240 C1247 1.409 . S
C1241 H1233 0.930 . S
C1241 C1239 1.419 1_655 S
C1241 C1242 1.362 . S
C1242 H1234 0.930 . S
C1242 C1241 1.362 . S
C1242 C1245 1.409 . S
C1243 H1235 0.930 . S
C1243 C1244 1.355 . S
C1243 C1245 1.415 . S
C1244 C1243 1.355 . S
C1244 C1246 1.419 . S
C1245 C1240 1.425 . S
C1245 C1242 1.409 . S
C1245 C1243 1.415 . S
C1246 H1236 0.930 . S
C1246 C1244 1.419 . S
C1246 C1247 1.362 . S
C1247 H1237 0.930 . S
C1247 C1240 1.409 . S
C1247 C1246 1.362 . S
H1248 C1254 0.930 . S
H1249 C1257 0.930 . S
H1250 C1258 0.930 . S
H1251 C1259 0.930 . S
H1252 C1262 0.930 . S
H1253 C1263 0.930 . S
C1254 H1248 0.930 . S
C1254 C1255 1.355 . S
C1254 C1256 1.415 . S
C1255 C1254 1.355 . S
C1255 C1257 1.419 . S
C1256 C1254 1.415 . S
C1256 C1261 1.425 . S
C1256 C1263 1.409 . S
C1257 H1249 0.930 . S
C1257 C1255 1.419 . S
C1257 C1258 1.362 . S
C1258 H1250 0.930 . S
C1258 C1257 1.362 . S
C1258 C1261 1.409 . S
C1259 H1251 0.930 . S
C1259 C1260 1.355 . S
C1259 C1261 1.415 . S
C1260 C1259 1.355 . S
C1260 C1262 1.419 . S
C1261 C1256 1.425 . S
C1261 C1258 1.409 . S
C1261 C1259 1.415 . S
C1262 H1252 0.930 . S
C1262 C1260 1.419 . S
C1262 C1263 1.362 . S
C1263 H1253 0.930 . S
C1263 C1256 1.409 . S
C1263 C1262 1.362 . S
H1264 C1270 0.930 . S
H1265 C1273 0.930 . S
H1266 C1274 0.930 . S
H1267 C1275 0.930 . S
H1268 C1278 0.930 . S
H1269 C1279 0.930 . S
C1270 H1264 0.930 . S
C1270 C1271 1.355 . S
C1270 C1272 1.415 . S
C1271 C1270 1.355 . S
C1271 C1273 1.419 . S
C1272 C1270 1.415 . S
C1272 C1277 1.425 . S
C1272 C1279 1.409 . S
C1273 H1265 0.930 . S
C1273 C1271 1.419 . S
C1273 C1274 1.362 . S
C1274 H1266 0.930 . S
C1274 C1273 1.362 . S
C1274 C1277 1.409 . S
C1275 H1267 0.930 . S
C1275 C1276 1.355 . S
C1275 C1277 1.415 . S
C1276 C1275 1.355 . S
C1276 C1278 1.419 . S
C1277 C1272 1.425 . S
C1277 C1274 1.409 . S
C1277 C1275 1.415 . S
C1278 H1268 0.930 . S
C1278 C1276 1.419 . S
C1278 C1279 1.362 . S
C1279 H1269 0.930 . S
C1279 C1272 1.409 . S
C1279 C1278 1.362 . S
H1280 C1286 0.930 . S
H1281 C1289 0.930 . S
H1282 C1290 0.930 . S
H1283 C1291 0.930 . S
H1284 C1294 0.930 . S
H1285 C1295 0.930 . S
C1286 H1280 0.930 . S
C1286 C1287 1.355 . S
C1286 C1288 1.415 . S
C1287 C1286 1.355 . S
C1287 C1289 1.419 . S
C1288 C1286 1.415 . S
C1288 C1293 1.425 . S
C1288 C1295 1.409 . S
C1289 H1281 0.930 . S
C1289 C1287 1.419 . S
C1289 C1290 1.362 . S
C1290 H1282 0.930 . S
C1290 C1289 1.362 . S
C1290 C1293 1.409 . S
C1291 H1283 0.930 . S
C1291 C1292 1.355 . S
C1291 C1293 1.415 . S
C1292 C1291 1.355 . S
C1292 C1294 1.419 . S
C1293 C1288 1.425 . S
C1293 C1290 1.409 . S
C1293 C1291 1.415 . S
C1294 H1284 0.930 . S
C1294 C1292 1.419 . S
C1294 C1295 1.362 . S
C1295 H1285 0.930 . S
C1295 C1288 1.409 . S
C1295 C1294 1.362 . S
H1296 C1302 0.930 . S
H1297 C1305 0.930 . S
H1298 C1306 0.930 . S
H1299 C1307 0.930 . S
H1300 C1310 0.930 . S
H1301 C1311 0.930 . S
C1302 H1296 0.930 . S
C1302 C1303 1.355 . S
C1302 C1304 1.415 . S
C1303 C1302 1.355 . S
C1303 C1305 1.419 . S
C1304 C1302 1.415 . S
C1304 C1309 1.425 . S
C1304 C1311 1.409 . S
C1305 H1297 0.930 . S
C1305 C1303 1.419 . S
C1305 C1306 1.362 . S
C1306 H1298 0.930 . S
C1306 C1305 1.362 . S
C1306 C1309 1.409 . S
C1307 H1299 0.930 . S
C1307 C1308 1.355 . S
C1307 C1309 1.415 . S
C1308 C1307 1.355 . S
C1308 C1310 1.419 . S
C1309 C1304 1.425 . S
C1309 C1306 1.409 . S
C1309 C1307 1.415 . S
C1310 H1300 0.930 . S
C1310 C1308 1.419 . S
C1310 C1311 1.362 . S
C1311 H1301 0.930 . S
C1311 C1304 1.409 . S
C1311 C1310 1.362 . S
H1312 C1318 0.930 . S
H1313 C1321 0.930 . S
H1314 C1322 0.930 . S
H1315 C1323 0.930 . S
H1316 C1326 0.930 . S
H1317 C1327 0.930 . S
C1318 H1312 0.930 . S
C1318 C1319 1.355 . S
C1318 C1320 1.415 . S
C1319 C1318 1.355 . S
C1319 C1321 1.419 . S
C1320 C1318 1.415 . S
C1320 C1325 1.425 . S
C1320 C1327 1.409 . S
C1321 H1313 0.930 . S
C1321 C1319 1.419 . S
C1321 C1322 1.362 . S
C1322 H1314 0.930 . S
C1322 C1321 1.362 . S
C1322 C1325 1.409 . S
C1323 H1315 0.930 . S
C1323 C1324 1.355 . S
C1323 C1325 1.415 . S
C1324 C1323 1.355 . S
C1324 C1326 1.419 . S
C1325 C1320 1.425 . S
C1325 C1322 1.409 . S
C1325 C1323 1.415 . S
C1326 H1316 0.930 . S
C1326 C1324 1.419 . S
C1326 C1327 1.362 . S
C1327 H1317 0.930 . S
C1327 C1320 1.409 . S
C1327 C1326 1.362 . S
H1328 C1334 0.930 . S
H1329 C1337 0.930 . S
H1330 C1338 0.930 . S
H1331 C1339 0.930 . S
H1332 C1342 0.930 . S
H1333 C1343 0.930 . S
C1334 H1328 0.930 . S
C1334 C1335 1.355 . S
C1334 C1336 1.415 . S
C1335 C1334 1.355 . S
C1335 C1337 1.419 . S
C1336 C1334 1.415 . S
C1336 C1341 1.425 . S
C1336 C1343 1.409 1_655 S
C1337 H1329 0.930 . S
C1337 C1335 1.419 . S
C1337 C1338 1.362 . S
C1338 H1330 0.930 . S
C1338 C1337 1.362 . S
C1338 C1341 1.409 . S
C1339 H1331 0.930 . S
C1339 C1340 1.355 1_655 S
C1339 C1341 1.415 . S
C1340 C1339 1.355 1_455 S
C1340 C1342 1.419 . S
C1341 C1336 1.425 . S
C1341 C1338 1.409 . S
C1341 C1339 1.415 . S
C1342 H1332 0.930 . S
C1342 C1340 1.419 . S
C1342 C1343 1.362 . S
C1343 H1333 0.930 . S
C1343 C1336 1.409 1_455 S
C1343 C1342 1.362 . S
H1344 C1350 0.930 . S
H1345 C1353 0.930 . S
H1346 C1354 0.930 . S
H1347 C1355 0.930 . S
H1348 C1358 0.930 . S
H1349 C1359 0.930 . S
C1350 H1344 0.930 . S
C1350 C1351 1.355 . S
C1350 C1352 1.415 . S
C1351 C1350 1.355 . S
C1351 C1353 1.419 . S
C1352 C1350 1.415 . S
C1352 C1357 1.425 . S
C1352 C1359 1.409 . S
C1353 H1345 0.930 . S
C1353 C1351 1.419 . S
C1353 C1354 1.362 . S
C1354 H1346 0.930 . S
C1354 C1353 1.362 . S
C1354 C1357 1.409 . S
C1355 H1347 0.930 . S
C1355 C1356 1.355 . S
C1355 C1357 1.415 . S
C1356 C1355 1.355 . S
C1356 C1358 1.419 . S
C1357 C1352 1.425 . S
C1357 C1354 1.409 . S
C1357 C1355 1.415 . S
C1358 H1348 0.930 . S
C1358 C1356 1.419 . S
C1358 C1359 1.362 . S
C1359 H1349 0.930 . S
C1359 C1352 1.409 . S
C1359 C1358 1.362 . S
H1360 C1366 0.930 . S
H1361 C1369 0.930 . S
H1362 C1370 0.930 . S
H1363 C1371 0.930 . S
H1364 C1374 0.930 . S
H1365 C1375 0.930 . S
C1366 H1360 0.930 . S
C1366 C1367 1.355 1_455 S
C1366 C1368 1.415 . S
C1367 C1366 1.355 1_655 S
C1367 C1369 1.419 . S
C1368 C1366 1.415 . S
C1368 C1373 1.425 . S
C1368 C1375 1.409 . S
C1369 H1361 0.930 . S
C1369 C1367 1.419 . S
C1369 C1370 1.362 1_655 S
C1370 H1362 0.930 . S
C1370 C1369 1.362 1_455 S
C1370 C1373 1.409 . S
C1371 H1363 0.930 . S
C1371 C1372 1.355 . S
C1371 C1373 1.415 . S
C1372 C1371 1.355 . S
C1372 C1374 1.419 . S
C1373 C1368 1.425 . S
C1373 C1370 1.409 . S
C1373 C1371 1.415 . S
C1374 H1364 0.930 . S
C1374 C1372 1.419 . S
C1374 C1375 1.362 . S
C1375 H1365 0.930 . S
C1375 C1368 1.409 . S
C1375 C1374 1.362 . S
H1376 C1382 0.930 . S
H1377 C1385 0.930 . S
H1378 C1386 0.930 . S
H1379 C1387 0.930 . S
H1380 C1390 0.930 . S
H1381 C1391 0.930 . S
C1382 H1376 0.930 . S
C1382 C1383 1.355 . S
C1382 C1384 1.415 . S
C1383 C1382 1.355 . S
C1383 C1385 1.419 . S
C1384 C1382 1.415 . S
C1384 C1389 1.425 . S
C1384 C1391 1.409 . S
C1385 H1377 0.930 . S
C1385 C1383 1.419 . S
C1385 C1386 1.362 . S
C1386 H1378 0.930 . S
C1386 C1385 1.362 . S
C1386 C1389 1.409 . S
C1387 H1379 0.930 . S
C1387 C1388 1.355 . S
C1387 C1389 1.415 . S
C1388 C1387 1.355 . S
C1388 C1390 1.419 . S
C1389 C1384 1.425 . S
C1389 C1386 1.409 . S
C1389 C1387 1.415 . S
C1390 H1380 0.930 . S
C1390 C1388 1.419 . S
C1390 C1391 1.362 . S
C1391 H1381 0.930 . S
C1391 C1384 1.409 . S
C1391 C1390 1.362 . S
H1392 C1398 0.930 . S
H1393 C1401 0.930 . S
H1394 C1402 0.930 . S
H1395 C1403 0.930 . S
H1396 C1406 0.930 . S
H1397 C1407 0.930 . S
C1398 H1392 0.930 . S
C1398 C1399 1.355 . S
C1398 C1400 1.415 . S
C1399 C1398 1.355 . S
C1399 C1401 1.419 . S
C1400 C1398 1.415 . S
C1400 C1405 1.425 . S
C1400 C1407 1.409 . S
C1401 H1393 0.930 . S
C1401 C1399 1.419 . S
C1401 C1402 1.362 . S
C1402 H1394 0.930 . S
C1402 C1401 1.362 . S
C1402 C1405 1.409 . S
C1403 H1395 0.930 . S
C1403 C1404 1.355 . S
C1403 C1405 1.415 . S
C1404 C1403 1.355 . S
C1404 C1406 1.419 . S
C1405 C1400 1.425 . S
C1405 C1402 1.409 . S
C1405 C1403 1.415 . S
C1406 H1396 0.930 . S
C1406 C1404 1.419 . S
C1406 C1407 1.362 . S
C1407 H1397 0.930 . S
C1407 C1400 1.409 . S
C1407 C1406 1.362 . S
H1408 C1414 0.930 . S
H1409 C1417 0.930 . S
H1410 C1418 0.930 . S
H1411 C1419 0.930 . S
H1412 C1422 0.930 . S
H1413 C1423 0.930 . S
C1414 H1408 0.930 . S
C1414 C1415 1.355 . S
C1414 C1416 1.415 . S
C1415 C1414 1.355 . S
C1415 C1417 1.419 . S
C1416 C1414 1.415 . S
C1416 C1421 1.425 . S
C1416 C1423 1.409 . S
C1417 H1409 0.930 . S
C1417 C1415 1.419 . S
C1417 C1418 1.362 . S
C1418 H1410 0.930 . S
C1418 C1417 1.362 . S
C1418 C1421 1.409 . S
C1419 H1411 0.930 . S
C1419 C1420 1.355 . S
C1419 C1421 1.415 . S
C1420 C1419 1.355 . S
C1420 C1422 1.419 . S
C1421 C1416 1.425 . S
C1421 C1418 1.409 . S
C1421 C1419 1.415 . S
C1422 H1412 0.930 . S
C1422 C1420 1.419 . S
C1422 C1423 1.362 . S
C1423 H1413 0.930 . S
C1423 C1416 1.409 . S
C1423 C1422 1.362 . S
H1424 C1430 0.930 . S
H1425 C1433 0.930 . S
H1426 C1434 0.930 . S
H1427 C1435 0.930 . S
H1428 C1438 0.930 . S
H1429 C1439 0.930 . S
C1430 H1424 0.930 . S
C1430 C1431 1.355 . S
C1430 C1432 1.415 . S
C1431 C1430 1.355 . S
C1431 C1433 1.419 . S
C1432 C1430 1.415 . S
C1432 C1437 1.425 . S
C1432 C1439 1.409 . S
C1433 H1425 0.930 . S
C1433 C1431 1.419 . S
C1433 C1434 1.362 . S
C1434 H1426 0.930 . S
C1434 C1433 1.362 . S
C1434 C1437 1.409 . S
C1435 H1427 0.930 . S
C1435 C1436 1.355 . S
C1435 C1437 1.415 . S
C1436 C1435 1.355 . S
C1436 C1438 1.419 . S
C1437 C1432 1.425 . S
C1437 C1434 1.409 . S
C1437 C1435 1.415 . S
C1438 H1428 0.930 . S
C1438 C1436 1.419 . S
C1438 C1439 1.362 . S
C1439 H1429 0.930 . S
C1439 C1432 1.409 . S
C1439 C1438 1.362 . S
H1440 C1446 0.930 . S
H1441 C1449 0.930 . S
H1442 C1450 0.930 . S
H1443 C1451 0.930 . S
H1444 C1454 0.930 . S
H1445 C1455 0.930 . S
C1446 H1440 0.930 . S
C1446 C1447 1.355 . S
C1446 C1448 1.415 . S
C1447 C1446 1.355 . S
C1447 C1449 1.419 . S
C1448 C1446 1.415 . S
C1448 C1453 1.425 . S
C1448 C1455 1.409 . S
C1449 H1441 0.930 . S
C1449 C1447 1.419 . S
C1449 C1450 1.362 . S
C1450 H1442 0.930 . S
C1450 C1449 1.362 . S
C1450 C1453 1.409 . S
C1451 H1443 0.930 . S
C1451 C1452 1.355 . S
C1451 C1453 1.415 . S
C1452 C1451 1.355 . S
C1452 C1454 1.419 . S
C1453 C1448 1.425 . S
C1453 C1450 1.409 . S
C1453 C1451 1.415 . S
C1454 H1444 0.930 . S
C1454 C1452 1.419 . S
C1454 C1455 1.362 . S
C1455 H1445 0.930 . S
C1455 C1448 1.409 . S
C1455 C1454 1.362 . S
H1456 C1462 0.930 . S
H1457 C1465 0.930 . S
H1458 C1466 0.930 . S
H1459 C1467 0.930 1_655 S
H1460 C1470 0.930 . S
H1461 C1471 0.930 . S
C1462 H1456 0.930 . S
C1462 C1463 1.355 . S
C1462 C1464 1.415 . S
C1463 C1462 1.355 . S
C1463 C1465 1.419 . S
C1464 C1462 1.415 . S
C1464 C1469 1.425 . S
C1464 C1471 1.409 . S
C1465 H1457 0.930 . S
C1465 C1463 1.419 . S
C1465 C1466 1.362 . S
C1466 H1458 0.930 . S
C1466 C1465 1.362 . S
C1466 C1469 1.409 . S
C1467 H1459 0.930 1_455 S
C1467 C1468 1.355 1_455 S
C1467 C1469 1.415 . S
C1468 C1467 1.355 1_655 S
C1468 C1470 1.419 . S
C1469 C1464 1.425 . S
C1469 C1466 1.409 . S
C1469 C1467 1.415 . S
C1470 H1460 0.930 . S
C1470 C1468 1.419 . S
C1470 C1471 1.362 1_655 S
C1471 H1461 0.930 . S
C1471 C1464 1.409 . S
C1471 C1470 1.362 1_455 S
H1472 C1478 0.930 . S
H1473 C1481 0.930 . S
H1474 C1482 0.930 . S
H1475 C1483 0.930 . S
H1476 C1486 0.930 . S
H1477 C1487 0.930 . S
C1478 H1472 0.930 . S
C1478 C1479 1.355 . S
C1478 C1480 1.415 . S
C1479 C1478 1.355 . S
C1479 C1481 1.419 . S
C1480 C1478 1.415 . S
C1480 C1485 1.425 . S
C1480 C1487 1.409 . S
C1481 H1473 0.930 . S
C1481 C1479 1.419 . S
C1481 C1482 1.362 . S
C1482 H1474 0.930 . S
C1482 C1481 1.362 . S
C1482 C1485 1.409 . S
C1483 H1475 0.930 . S
C1483 C1484 1.355 . S
C1483 C1485 1.415 . S
C1484 C1483 1.355 . S
C1484 C1486 1.419 . S
C1485 C1480 1.425 . S
C1485 C1482 1.409 . S
C1485 C1483 1.415 . S
C1486 H1476 0.930 . S
C1486 C1484 1.419 . S
C1486 C1487 1.362 . S
C1487 H1477 0.930 . S
C1487 C1480 1.409 . S
C1487 C1486 1.362 . S
H1488 C1494 0.930 . S
H1489 C1497 0.930 . S
H1490 C1498 0.930 . S
H1491 C1499 0.930 . S
H1492 C1502 0.930 . S
H1493 C1503 0.930 . S
C1494 H1488 0.930 . S
C1494 C1495 1.355 . S
C1494 C1496 1.415 . S
C1495 C1494 1.355 . S
C1495 C1497 1.419 . S
C1496 C1494 1.415 . S
C1496 C1501 1.425 . S
C1496 C1503 1.409 . S
C1497 H1489 0.930 . S
C1497 C1495 1.419 . S
C1497 C1498 1.362 . S
C1498 H1490 0.930 . S
C1498 C1497 1.362 . S
C1498 C1501 1.409 . S
C1499 H1491 0.930 . S
C1499 C1500 1.355 . S
C1499 C1501 1.415 . S
C1500 C1499 1.355 . S
C1500 C1502 1.419 . S
C1501 C1496 1.425 . S
C1501 C1498 1.409 . S
C1501 C1499 1.415 . S
C1502 H1492 0.930 . S
C1502 C1500 1.419 . S
C1502 C1503 1.362 . S
C1503 H1493 0.930 . S
C1503 C1496 1.409 . S
C1503 C1502 1.362 . S
H1504 C1510 0.930 . S
H1505 C1513 0.930 . S
H1506 C1514 0.930 . S
H1507 C1515 0.930 . S
H1508 C1518 0.930 . S
H1509 C1519 0.930 . S
C1510 H1504 0.930 . S
C1510 C1511 1.355 . S
C1510 C1512 1.415 . S
C1511 C1510 1.355 . S
C1511 C1513 1.419 . S
C1512 C1510 1.415 . S
C1512 C1517 1.425 . S
C1512 C1519 1.409 . S
C1513 H1505 0.930 . S
C1513 C1511 1.419 . S
C1513 C1514 1.362 . S
C1514 H1506 0.930 . S
C1514 C1513 1.362 . S
C1514 C1517 1.409 . S
C1515 H1507 0.930 . S
C1515 C1516 1.355 . S
C1515 C1517 1.415 . S
C1516 C1515 1.355 . S
C1516 C1518 1.419 . S
C1517 C1512 1.425 . S
C1517 C1514 1.409 . S
C1517 C1515 1.415 . S
C1518 H1508 0.930 . S
C1518 C1516 1.419 . S
C1518 C1519 1.362 . S
C1519 H1509 0.930 . S
C1519 C1512 1.409 . S
C1519 C1518 1.362 . S
H1520 C1526 0.930 . S
H1521 C1529 0.930 . S
H1522 C1530 0.930 . S
H1523 C1531 0.930 . S
H1524 C1534 0.930 . S
H1525 C1535 0.930 . S
C1526 H1520 0.930 . S
C1526 C1527 1.355 . S
C1526 C1528 1.415 1_655 S
C1527 C1526 1.355 . S
C1527 C1529 1.419 1_655 S
C1528 C1526 1.415 1_455 S
C1528 C1533 1.425 . S
C1528 C1535 1.409 . S
C1529 H1521 0.930 . S
C1529 C1527 1.419 1_455 S
C1529 C1530 1.362 . S
C1530 H1522 0.930 . S
C1530 C1529 1.362 . S
C1530 C1533 1.409 . S
C1531 H1523 0.930 . S
C1531 C1532 1.355 . S
C1531 C1533 1.415 . S
C1532 C1531 1.355 . S
C1532 C1534 1.419 . S
C1533 C1528 1.425 . S
C1533 C1530 1.409 . S
C1533 C1531 1.415 . S
C1534 H1524 0.930 . S
C1534 C1532 1.419 . S
C1534 C1535 1.362 . S
C1535 H1525 0.930 . S
C1535 C1528 1.409 . S
C1535 C1534 1.362 . S
H1536 C1542 0.930 . S
H1537 C1545 0.930 . S
H1538 C1546 0.930 . S
H1539 C1547 0.930 . S
H1540 C1550 0.930 . S
H1541 C1551 0.930 . S
C1542 H1536 0.930 . S
C1542 C1543 1.355 . S
C1542 C1544 1.415 . S
C1543 C1542 1.355 . S
C1543 C1545 1.419 . S
C1544 C1542 1.415 . S
C1544 C1549 1.425 . S
C1544 C1551 1.409 . S
C1545 H1537 0.930 . S
C1545 C1543 1.419 . S
C1545 C1546 1.362 . S
C1546 H1538 0.930 . S
C1546 C1545 1.362 . S
C1546 C1549 1.409 . S
C1547 H1539 0.930 . S
C1547 C1548 1.355 . S
C1547 C1549 1.415 . S
C1548 C1547 1.355 . S
C1548 C1550 1.419 . S
C1549 C1544 1.425 . S
C1549 C1546 1.409 . S
C1549 C1547 1.415 . S
C1550 H1540 0.930 . S
C1550 C1548 1.419 . S
C1550 C1551 1.362 . S
C1551 H1541 0.930 . S
C1551 C1544 1.409 . S
C1551 C1550 1.362 . S
H1552 C1558 0.930 . S
H1553 C1561 0.930 . S
H1554 C1562 0.930 . S
H1555 C1563 0.930 . S
H1556 C1566 0.930 . S
H1557 C1567 0.930 1_655 S
C1558 H1552 0.930 . S
C1558 C1559 1.355 . S
C1558 C1560 1.415 1_655 S
C1559 C1558 1.355 . S
C1559 C1561 1.419 1_655 S
C1560 C1558 1.415 1_455 S
C1560 C1565 1.425 . S
C1560 C1567 1.409 . S
C1561 H1553 0.930 . S
C1561 C1559 1.419 1_455 S
C1561 C1562 1.362 . S
C1562 H1554 0.930 . S
C1562 C1561 1.362 . S
C1562 C1565 1.409 . S
C1563 H1555 0.930 . S
C1563 C1564 1.355 . S
C1563 C1565 1.415 . S
C1564 C1563 1.355 . S
C1564 C1566 1.419 . S
C1565 C1560 1.425 . S
C1565 C1562 1.409 . S
C1565 C1563 1.415 . S
C1566 H1556 0.930 . S
C1566 C1564 1.419 . S
C1566 C1567 1.362 . S
C1567 H1557 0.930 1_455 S
C1567 C1560 1.409 . S
C1567 C1566 1.362 . S
H1568 C1574 0.930 . S
H1569 C1577 0.930 . S
H1570 C1578 0.930 . S
H1571 C1579 0.930 . S
H1572 C1582 0.930 . S
H1573 C1583 0.930 . S
C1574 H1568 0.930 . S
C1574 C1575 1.355 . S
C1574 C1576 1.415 . S
C1575 C1574 1.355 . S
C1575 C1577 1.419 . S
C1576 C1574 1.415 . S
C1576 C1581 1.425 . S
C1576 C1583 1.409 . S
C1577 H1569 0.930 . S
C1577 C1575 1.419 . S
C1577 C1578 1.362 . S
C1578 H1570 0.930 . S
C1578 C1577 1.362 . S
C1578 C1581 1.409 . S
C1579 H1571 0.930 . S
C1579 C1580 1.355 . S
C1579 C1581 1.415 . S
C1580 C1579 1.355 . S
C1580 C1582 1.419 . S
C1581 C1576 1.425 . S
C1581 C1578 1.409 . S
C1581 C1579 1.415 . S
C1582 H1572 0.930 . S
C1582 C1580 1.419 . S
C1582 C1583 1.362 . S
C1583 H1573 0.930 . S
C1583 C1576 1.409 . S
C1583 C1582 1.362 . S
H1584 C1590 0.930 . S
H1585 C1593 0.930 . S
H1586 C1594 0.930 . S
H1587 C1595 0.930 . S
H1588 C1598 0.930 . S
H1589 C1599 0.930 . S
C1590 H1584 0.930 . S
C1590 C1591 1.355 . S
C1590 C1592 1.415 . S
C1591 C1590 1.355 . S
C1591 C1593 1.419 . S
C1592 C1590 1.415 . S
C1592 C1597 1.425 . S
C1592 C1599 1.409 . S
C1593 H1585 0.930 . S
C1593 C1591 1.419 . S
C1593 C1594 1.362 . S
C1594 H1586 0.930 . S
C1594 C1593 1.362 . S
C1594 C1597 1.409 . S
C1595 H1587 0.930 . S
C1595 C1596 1.355 . S
C1595 C1597 1.415 . S
C1596 C1595 1.355 . S
C1596 C1598 1.419 . S
C1597 C1592 1.425 . S
C1597 C1594 1.409 . S
C1597 C1595 1.415 . S
C1598 H1588 0.930 . S
C1598 C1596 1.419 . S
C1598 C1599 1.362 . S
C1599 H1589 0.930 . S
C1599 C1592 1.409 . S
C1599 C1598 1.362 . S
H1600 C1606 0.930 . S
H1601 C1609 0.930 . S
H1602 C1610 0.930 . S
H1603 C1611 0.930 . S
H1604 C1614 0.930 . S
H1605 C1615 0.930 . S
C1606 H1600 0.930 . S
C1606 C1607 1.355 . S
C1606 C1608 1.415 . S
C1607 C1606 1.355 . S
C1607 C1609 1.419 . S
C1608 C1606 1.415 . S
C1608 C1613 1.425 . S
C1608 C1615 1.409 . S
C1609 H1601 0.930 . S
C1609 C1607 1.419 . S
C1609 C1610 1.362 . S
C1610 H1602 0.930 . S
C1610 C1609 1.362 . S
C1610 C1613 1.409 . S
C1611 H1603 0.930 . S
C1611 C1612 1.355 . S
C1611 C1613 1.415 . S
C1612 C1611 1.355 . S
C1612 C1614 1.419 . S
C1613 C1608 1.425 . S
C1613 C1610 1.409 . S
C1613 C1611 1.415 . S
C1614 H1604 0.930 . S
C1614 C1612 1.419 . S
C1614 C1615 1.362 . S
C1615 H1605 0.930 . S
C1615 C1608 1.409 . S
C1615 C1614 1.362 . S
H1616 C1622 0.930 . S
H1617 C1625 0.930 . S
H1618 C1626 0.930 . S
H1619 C1627 0.930 . S
H1620 C1630 0.930 . S
H1621 C1631 0.930 . S
C1622 H1616 0.930 . S
C1622 C1623 1.355 . S
C1622 C1624 1.415 . S
C1623 C1622 1.355 . S
C1623 C1625 1.419 . S
C1624 C1622 1.415 . S
C1624 C1629 1.425 . S
C1624 C1631 1.409 . S
C1625 H1617 0.930 . S
C1625 C1623 1.419 . S
C1625 C1626 1.362 . S
C1626 H1618 0.930 . S
C1626 C1625 1.362 . S
C1626 C1629 1.409 . S
C1627 H1619 0.930 . S
C1627 C1628 1.355 . S
C1627 C1629 1.415 . S
C1628 C1627 1.355 . S
C1628 C1630 1.419 . S
C1629 C1624 1.425 . S
C1629 C1626 1.409 . S
C1629 C1627 1.415 . S
C1630 H1620 0.930 . S
C1630 C1628 1.419 . S
C1630 C1631 1.362 . S
C1631 H1621 0.930 . S
C1631 C1624 1.409 . S
C1631 C1630 1.362 . S
H1632 C1638 0.930 . S
H1633 C1641 0.930 . S
H1634 C1642 0.930 . S
H1635 C1643 0.930 . S
H1636 C1646 0.930 . S
H1637 C1647 0.930 . S
C1638 H1632 0.930 . S
C1638 C1639 1.355 . S
C1638 C1640 1.415 . S
C1639 C1638 1.355 . S
C1639 C1641 1.419 . S
C1640 C1638 1.415 . S
C1640 C1645 1.425 . S
C1640 C1647 1.409 . S
C1641 H1633 0.930 . S
C1641 C1639 1.419 . S
C1641 C1642 1.362 . S
C1642 H1634 0.930 . S
C1642 C1641 1.362 . S
C1642 C1645 1.409 . S
C1643 H1635 0.930 . S
C1643 C1644 1.355 . S
C1643 C1645 1.415 . S
C1644 C1643 1.355 . S
C1644 C1646 1.419 . S
C1645 C1640 1.425 . S
C1645 C1642 1.409 . S
C1645 C1643 1.415 . S
C1646 H1636 0.930 . S
C1646 C1644 1.419 . S
C1646 C1647 1.362 . S
C1647 H1637 0.930 . S
C1647 C1640 1.409 . S
C1647 C1646 1.362 . S
H1648 C1654 0.930 . S
H1649 C1657 0.930 . S
H1650 C1658 0.930 . S
H1651 C1659 0.930 . S
H1652 C1662 0.930 . S
H1653 C1663 0.930 . S
C1654 H1648 0.930 . S
C1654 C1655 1.355 . S
C1654 C1656 1.415 . S
C1655 C1654 1.355 . S
C1655 C1657 1.419 . S
C1656 C1654 1.415 . S
C1656 C1661 1.425 . S
C1656 C1663 1.409 1_655 S
C1657 H1649 0.930 . S
C1657 C1655 1.419 . S
C1657 C1658 1.362 . S
C1658 H1650 0.930 . S
C1658 C1657 1.362 . S
C1658 C1661 1.409 . S
C1659 H1651 0.930 . S
C1659 C1660 1.355 1_655 S
C1659 C1661 1.415 . S
C1660 C1659 1.355 1_455 S
C1660 C1662 1.419 . S
C1661 C1656 1.425 . S
C1661 C1658 1.409 . S
C1661 C1659 1.415 . S
C1662 H1652 0.930 . S
C1662 C1660 1.419 . S
C1662 C1663 1.362 . S
C1663 H1653 0.930 . S
C1663 C1656 1.409 1_455 S
C1663 C1662 1.362 . S
H1664 C1670 0.930 . S
H1665 C1673 0.930 . S
H1666 C1674 0.930 . S
H1667 C1675 0.930 . S
H1668 C1678 0.930 . S
H1669 C1679 0.930 . S
C1670 H1664 0.930 . S
C1670 C1671 1.355 . S
C1670 C1672 1.415 . S
C1671 C1670 1.355 . S
C1671 C1673 1.419 . S
C1672 C1670 1.415 . S
C1672 C1677 1.425 . S
C1672 C1679 1.409 . S
C1673 H1665 0.930 . S
C1673 C1671 1.419 . S
C1673 C1674 1.362 . S
C1674 H1666 0.930 . S
C1674 C1673 1.362 . S
C1674 C1677 1.409 . S
C1675 H1667 0.930 . S
C1675 C1676 1.355 . S
C1675 C1677 1.415 . S
C1676 C1675 1.355 . S
C1676 C1678 1.419 . S
C1677 C1672 1.425 . S
C1677 C1674 1.409 . S
C1677 C1675 1.415 . S
C1678 H1668 0.930 . S
C1678 C1676 1.419 . S
C1678 C1679 1.362 . S
C1679 H1669 0.930 . S
C1679 C1672 1.409 . S
C1679 C1678 1.362 . S
H1680 C1686 0.930 . S
H1681 C1689 0.930 . S
H1682 C1690 0.930 . S
H1683 C1691 0.930 . S
H1684 C1694 0.930 . S
H1685 C1695 0.930 . S
C1686 H1680 0.930 . S
C1686 C1687 1.355 . S
C1686 C1688 1.415 . S
C1687 C1686 1.355 . S
C1687 C1689 1.419 . S
C1688 C1686 1.415 . S
C1688 C1693 1.425 . S
C1688 C1695 1.409 1_655 S
C1689 H1681 0.930 . S
C1689 C1687 1.419 . S
C1689 C1690 1.362 . S
C1690 H1682 0.930 . S
C1690 C1689 1.362 . S
C1690 C1693 1.409 . S
C1691 H1683 0.930 . S
C1691 C1692 1.355 1_655 S
C1691 C1693 1.415 . S
C1692 C1691 1.355 1_455 S
C1692 C1694 1.419 . S
C1693 C1688 1.425 . S
C1693 C1690 1.409 . S
C1693 C1691 1.415 . S
C1694 H1684 0.930 . S
C1694 C1692 1.419 . S
C1694 C1695 1.362 . S
C1695 H1685 0.930 . S
C1695 C1688 1.409 1_455 S
C1695 C1694 1.362 . S
H1696 C1702 0.930 . S
H1697 C1705 0.930 . S
H1698 C1706 0.930 . S
H1699 C1707 0.930 . S
H1700 C1710 0.930 . S
H1701 C1711 0.930 . S
C1702 H1696 0.930 . S
C1702 C1703 1.355 . S
C1702 C1704 1.415 . S
C1703 C1702 1.355 . S
C1703 C1705 1.419 . S
C1704 C1702 1.415 . S
C1704 C1709 1.425 . S
C1704 C1711 1.409 . S
C1705 H1697 0.930 . S
C1705 C1703 1.419 . S
C1705 C1706 1.362 . S
C1706 H1698 0.930 . S
C1706 C1705 1.362 . S
C1706 C1709 1.409 . S
C1707 H1699 0.930 . S
C1707 C1708 1.355 . S
C1707 C1709 1.415 . S
C1708 C1707 1.355 . S
C1708 C1710 1.419 . S
C1709 C1704 1.425 . S
C1709 C1706 1.409 . S
C1709 C1707 1.415 . S
C1710 H1700 0.930 . S
C1710 C1708 1.419 . S
C1710 C1711 1.362 . S
C1711 H1701 0.930 . S
C1711 C1704 1.409 . S
C1711 C1710 1.362 . S
H1712 C1718 0.930 . S
H1713 C1721 0.930 . S
H1714 C1722 0.930 . S
H1715 C1723 0.930 . S
H1716 C1726 0.930 . S
H1717 C1727 0.930 . S
C1718 H1712 0.930 . S
C1718 C1719 1.355 . S
C1718 C1720 1.415 . S
C1719 C1718 1.355 . S
C1719 C1721 1.419 . S
C1720 C1718 1.415 . S
C1720 C1725 1.425 . S
C1720 C1727 1.409 . S
C1721 H1713 0.930 . S
C1721 C1719 1.419 . S
C1721 C1722 1.362 . S
C1722 H1714 0.930 . S
C1722 C1721 1.362 . S
C1722 C1725 1.409 . S
C1723 H1715 0.930 . S
C1723 C1724 1.355 . S
C1723 C1725 1.415 . S
C1724 C1723 1.355 . S
C1724 C1726 1.419 . S
C1725 C1720 1.425 . S
C1725 C1722 1.409 . S
C1725 C1723 1.415 . S
C1726 H1716 0.930 . S
C1726 C1724 1.419 . S
C1726 C1727 1.362 . S
C1727 H1717 0.930 . S
C1727 C1720 1.409 . S
C1727 C1726 1.362 . S
H1728 C1734 0.930 . S
H1729 C1737 0.930 . S
H1730 C1738 0.930 . S
H1731 C1739 0.930 . S
H1732 C1742 0.930 . S
H1733 C1743 0.930 . S
C1734 H1728 0.930 . S
C1734 C1735 1.355 . S
C1734 C1736 1.415 . S
C1735 C1734 1.355 . S
C1735 C1737 1.419 . S
C1736 C1734 1.415 . S
C1736 C1741 1.425 1_455 S
C1736 C1743 1.409 . S
C1737 H1729 0.930 . S
C1737 C1735 1.419 . S
C1737 C1738 1.362 1_455 S
C1738 H1730 0.930 . S
C1738 C1737 1.362 1_655 S
C1738 C1741 1.409 . S
C1739 H1731 0.930 . S
C1739 C1740 1.355 . S
C1739 C1741 1.415 . S
C1740 C1739 1.355 . S
C1740 C1742 1.419 . S
C1741 C1736 1.425 1_655 S
C1741 C1738 1.409 . S
C1741 C1739 1.415 . S
C1742 H1732 0.930 . S
C1742 C1740 1.419 . S
C1742 C1743 1.362 1_655 S
C1743 H1733 0.930 . S
C1743 C1736 1.409 . S
C1743 C1742 1.362 1_455 S
H1744 C1750 0.930 . S
H1745 C1753 0.930 . S
H1746 C1754 0.930 . S
H1747 C1755 0.930 . S
H1748 C1758 0.930 . S
H1749 C1759 0.930 . S
C1750 H1744 0.930 . S
C1750 C1751 1.355 . S
C1750 C1752 1.415 . S
C1751 C1750 1.355 . S
C1751 C1753 1.419 . S
C1752 C1750 1.415 . S
C1752 C1757 1.425 1_455 S
C1752 C1759 1.409 . S
C1753 H1745 0.930 . S
C1753 C1751 1.419 . S
C1753 C1754 1.362 1_455 S
C1754 H1746 0.930 . S
C1754 C1753 1.362 1_655 S
C1754 C1757 1.409 . S
C1755 H1747 0.930 . S
C1755 C1756 1.355 . S
C1755 C1757 1.415 . S
C1756 C1755 1.355 . S
C1756 C1758 1.419 . S
C1757 C1752 1.425 1_655 S
C1757 C1754 1.409 . S
C1757 C1755 1.415 . S
C1758 H1748 0.930 . S
C1758 C1756 1.419 . S
C1758 C1759 1.362 1_655 S
C1759 H1749 0.930 . S
C1759 C1752 1.409 . S
C1759 C1758 1.362 1_455 S
H1760 C1766 0.930 . S
H1761 C1769 0.930 . S
H1762 C1770 0.930 . S
H1763 C1771 0.930 . S
H1764 C1774 0.930 . S
H1765 C1775 0.930 . S
C1766 H1760 0.930 . S
C1766 C1767 1.355 . S
C1766 C1768 1.415 . S
C1767 C1766 1.355 . S
C1767 C1769 1.419 . S
C1768 C1766 1.415 . S
C1768 C1773 1.425 . S
C1768 C1775 1.409 . S
C1769 H1761 0.930 . S
C1769 C1767 1.419 . S
C1769 C1770 1.362 . S
C1770 H1762 0.930 . S
C1770 C1769 1.362 . S
C1770 C1773 1.409 . S
C1771 H1763 0.930 . S
C1771 C1772 1.355 . S
C1771 C1773 1.415 . S
C1772 C1771 1.355 . S
C1772 C1774 1.419 . S
C1773 C1768 1.425 . S
C1773 C1770 1.409 . S
C1773 C1771 1.415 . S
C1774 H1764 0.930 . S
C1774 C1772 1.419 . S
C1774 C1775 1.362 . S
C1775 H1765 0.930 . S
C1775 C1768 1.409 . S
C1775 C1774 1.362 . S
H1776 C1782 0.930 . S
H1777 C1785 0.930 . S
H1778 C1786 0.930 . S
H1779 C1787 0.930 . S
H1780 C1790 0.930 . S
H1781 C1791 0.930 . S
C1782 H1776 0.930 . S
C1782 C1783 1.355 . S
C1782 C1784 1.415 . S
C1783 C1782 1.355 . S
C1783 C1785 1.419 1_554 S
C1784 C1782 1.415 . S
C1784 C1789 1.425 1_554 S
C1784 C1791 1.409 . S
C1785 H1777 0.930 . S
C1785 C1783 1.419 1_556 S
C1785 C1786 1.362 . S
C1786 H1778 0.930 . S
C1786 C1785 1.362 . S
C1786 C1789 1.409 . S
C1787 H1779 0.930 . S
C1787 C1788 1.355 1_556 S
C1787 C1789 1.415 . S
C1788 C1787 1.355 1_554 S
C1788 C1790 1.419 . S
C1789 C1784 1.425 1_556 S
C1789 C1786 1.409 . S
C1789 C1787 1.415 . S
C1790 H1780 0.930 . S
C1790 C1788 1.419 . S
C1790 C1791 1.362 . S
C1791 H1781 0.930 . S
C1791 C1784 1.409 . S
C1791 C1790 1.362 . S
H1792 C1798 0.930 . S
H1793 C1801 0.930 . S
H1794 C1802 0.930 1_455 S
H1795 C1803 0.930 . S
H1796 C1806 0.930 . S
H1797 C1807 0.930 1_655 S
C1798 H1792 0.930 . S
C1798 C1799 1.355 . S
C1798 C1800 1.415 . S
C1799 C1798 1.355 . S
C1799 C1801 1.419 . S
C1800 C1798 1.415 . S
C1800 C1805 1.425 1_655 S
C1800 C1807 1.409 1_655 S
C1801 H1793 0.930 . S
C1801 C1799 1.419 . S
C1801 C1802 1.362 . S
C1802 H1794 0.930 1_655 S
C1802 C1801 1.362 . S
C1802 C1805 1.409 1_655 S
C1803 H1795 0.930 . S
C1803 C1804 1.355 . S
C1803 C1805 1.415 . S
C1804 C1803 1.355 . S
C1804 C1806 1.419 . S
C1805 C1800 1.425 1_455 S
C1805 C1802 1.409 1_455 S
C1805 C1803 1.415 . S
C1806 H1796 0.930 . S
C1806 C1804 1.419 . S
C1806 C1807 1.362 . S
C1807 H1797 0.930 1_455 S
C1807 C1800 1.409 1_455 S
C1807 C1806 1.362 . S
H1808 C1814 0.930 . S
H1809 C1817 0.930 . S
H1810 C1818 0.930 . S
H1811 C1819 0.930 . S
H1812 C1822 0.930 . S
H1813 C1823 0.930 . S
C1814 H1808 0.930 . S
C1814 C1815 1.355 . S
C1814 C1816 1.415 . S
C1815 C1814 1.355 . S
C1815 C1817 1.419 . S
C1816 C1814 1.415 . S
C1816 C1821 1.425 . S
C1816 C1823 1.409 . S
C1817 H1809 0.930 . S
C1817 C1815 1.419 . S
C1817 C1818 1.362 . S
C1818 H1810 0.930 . S
C1818 C1817 1.362 . S
C1818 C1821 1.409 . S
C1819 H1811 0.930 . S
C1819 C1820 1.355 . S
C1819 C1821 1.415 . S
C1820 C1819 1.355 . S
C1820 C1822 1.419 . S
C1821 C1816 1.425 . S
C1821 C1818 1.409 . S
C1821 C1819 1.415 . S
C1822 H1812 0.930 . S
C1822 C1820 1.419 . S
C1822 C1823 1.362 . S
C1823 H1813 0.930 . S
C1823 C1816 1.409 . S
C1823 C1822 1.362 . S
H1824 C1830 0.930 . S
H1825 C1833 0.930 . S
H1826 C1834 0.930 . S
H1827 C1835 0.930 . S
H1828 C1838 0.930 . S
H1829 C1839 0.930 . S
C1830 H1824 0.930 . S
C1830 C1831 1.355 . S
C1830 C1832 1.415 . S
C1831 C1830 1.355 . S
C1831 C1833 1.419 . S
C1832 C1830 1.415 . S
C1832 C1837 1.425 . S
C1832 C1839 1.409 . S
C1833 H1825 0.930 . S
C1833 C1831 1.419 . S
C1833 C1834 1.362 . S
C1834 H1826 0.930 . S
C1834 C1833 1.362 . S
C1834 C1837 1.409 . S
C1835 H1827 0.930 . S
C1835 C1836 1.355 . S
C1835 C1837 1.415 . S
C1836 C1835 1.355 . S
C1836 C1838 1.419 . S
C1837 C1832 1.425 . S
C1837 C1834 1.409 . S
C1837 C1835 1.415 . S
C1838 H1828 0.930 . S
C1838 C1836 1.419 . S
C1838 C1839 1.362 . S
C1839 H1829 0.930 . S
C1839 C1832 1.409 . S
C1839 C1838 1.362 . S
H1840 C1846 0.930 . S
H1841 C1849 0.930 . S
H1842 C1850 0.930 . S
H1843 C1851 0.930 . S
H1844 C1854 0.930 . S
H1845 C1855 0.930 . S
C1846 H1840 0.930 . S
C1846 C1847 1.355 1_554 S
C1846 C1848 1.415 . S
C1847 C1846 1.355 1_556 S
C1847 C1849 1.419 . S
C1848 C1846 1.415 . S
C1848 C1853 1.425 1_654 S
C1848 C1855 1.409 . S
C1849 H1841 0.930 . S
C1849 C1847 1.419 . S
C1849 C1850 1.362 1_655 S
C1850 H1842 0.930 . S
C1850 C1849 1.362 1_455 S
C1850 C1853 1.409 . S
C1851 H1843 0.930 . S
C1851 C1852 1.355 . S
C1851 C1853 1.415 . S
C1852 C1851 1.355 . S
C1852 C1854 1.419 1_556 S
C1853 C1848 1.425 1_456 S
C1853 C1850 1.409 . S
C1853 C1851 1.415 . S
C1854 H1844 0.930 . S
C1854 C1852 1.419 1_554 S
C1854 C1855 1.362 1_455 S
C1855 H1845 0.930 . S
C1855 C1848 1.409 . S
C1855 C1854 1.362 1_655 S
H1856 C1862 0.930 . S
H1857 C1865 0.930 . S
H1858 C1866 0.930 . S
H1859 C1867 0.930 . S
H1860 C1870 0.930 . S
H1861 C1871 0.930 . S
C1862 H1856 0.930 . S
C1862 C1863 1.355 . S
C1862 C1864 1.415 1_455 S
C1863 C1862 1.355 . S
C1863 C1865 1.419 . S
C1864 C1862 1.415 1_655 S
C1864 C1869 1.425 1_655 S
C1864 C1871 1.409 . S
C1865 H1857 0.930 . S
C1865 C1863 1.419 . S
C1865 C1866 1.362 . S
C1866 H1858 0.930 . S
C1866 C1865 1.362 . S
C1866 C1869 1.409 . S
C1867 H1859 0.930 . S
C1867 C1868 1.355 . S
C1867 C1869 1.415 1_655 S
C1868 C1867 1.355 . S
C1868 C1870 1.419 . S
C1869 C1864 1.425 1_455 S
C1869 C1866 1.409 . S
C1869 C1867 1.415 1_455 S
C1870 H1860 0.930 . S
C1870 C1868 1.419 . S
C1870 C1871 1.362 . S
C1871 H1861 0.930 . S
C1871 C1864 1.409 . S
C1871 C1870 1.362 . S
H1872 C1878 0.930 . S
H1873 C1881 0.930 . S
H1874 C1882 0.930 . S
H1875 C1883 0.930 . S
H1876 C1886 0.930 . S
H1877 C1887 0.930 . S
C1878 H1872 0.930 . S
C1878 C1879 1.355 . S
C1878 C1880 1.415 . S
C1879 C1878 1.355 . S
C1879 C1881 1.419 . S
C1880 C1878 1.415 . S
C1880 C1885 1.425 1_455 S
C1880 C1887 1.409 . S
C1881 H1873 0.930 . S
C1881 C1879 1.419 . S
C1881 C1882 1.362 1_455 S
C1882 H1874 0.930 . S
C1882 C1881 1.362 1_655 S
C1882 C1885 1.409 . S
C1883 H1875 0.930 . S
C1883 C1884 1.355 . S
C1883 C1885 1.415 . S
C1884 C1883 1.355 . S
C1884 C1886 1.419 . S
C1885 C1880 1.425 1_655 S
C1885 C1882 1.409 . S
C1885 C1883 1.415 . S
C1886 H1876 0.930 . S
C1886 C1884 1.419 . S
C1886 C1887 1.362 1_655 S
C1887 H1877 0.930 . S
C1887 C1880 1.409 . S
C1887 C1886 1.362 1_455 S
H1888 C1894 0.930 . S
H1889 C1897 0.930 . S
H1890 C1898 0.930 . S
H1891 C1899 0.930 . S
H1892 C1902 0.930 . S
H1893 C1903 0.930 . S
C1894 H1888 0.930 . S
C1894 C1895 1.355 . S
C1894 C1896 1.415 . S
C1895 C1894 1.355 . S
C1895 C1897 1.419 . S
C1896 C1894 1.415 . S
C1896 C1901 1.425 . S
C1896 C1903 1.409 . S
C1897 H1889 0.930 . S
C1897 C1895 1.419 . S
C1897 C1898 1.362 . S
C1898 H1890 0.930 . S
C1898 C1897 1.362 . S
C1898 C1901 1.409 . S
C1899 H1891 0.930 . S
C1899 C1900 1.355 . S
C1899 C1901 1.415 . S
C1900 C1899 1.355 . S
C1900 C1902 1.419 . S
C1901 C1896 1.425 . S
C1901 C1898 1.409 . S
C1901 C1899 1.415 . S
C1902 H1892 0.930 . S
C1902 C1900 1.419 . S
C1902 C1903 1.362 . S
C1903 H1893 0.930 . S
C1903 C1896 1.409 . S
C1903 C1902 1.362 . S
H1904 C1910 0.928 1_554 S
H1905 C1913 0.930 . S
H1906 C1914 0.930 . S
H1907 C1915 0.930 . S
H1908 C1918 0.930 . S
H1909 C1919 0.930 . S
C1910 H1904 0.928 1_556 S
C1910 C1911 1.356 . S
C1910 C1912 1.414 . S
C1911 C1910 1.356 . S
C1911 C1913 1.419 . S
C1912 C1910 1.414 . S
C1912 C1917 1.435 . S
C1912 C1919 1.401 1_556 S
C1913 H1905 0.930 . S
C1913 C1911 1.419 . S
C1913 C1914 1.362 . S
C1914 H1906 0.930 . S
C1914 C1913 1.362 . S
C1914 C1917 1.409 . S
C1915 H1907 0.930 . S
C1915 C1916 1.355 . S
C1915 C1917 1.415 . S
C1916 C1915 1.355 . S
C1916 C1918 1.419 1_556 S
C1917 C1912 1.435 . S
C1917 C1914 1.409 . S
C1917 C1915 1.415 . S
C1918 H1908 0.930 . S
C1918 C1916 1.419 1_554 S
C1918 C1919 1.362 . S
C1919 H1909 0.930 . S
C1919 C1912 1.401 1_554 S
C1919 C1918 1.362 . S
H1920 C1926 0.930 . S
H1921 C1929 0.930 . S
H1922 C1930 0.930 . S
H1923 C1931 0.930 . S
H1924 C1934 0.930 . S
H1925 C1935 0.930 . S
C1926 H1920 0.930 . S
C1926 C1927 1.355 . S
C1926 C1928 1.415 . S
C1927 C1926 1.355 . S
C1927 C1929 1.419 . S
C1928 C1926 1.415 . S
C1928 C1933 1.425 1_655 S
C1928 C1935 1.409 . S
C1929 H1921 0.930 . S
C1929 C1927 1.419 . S
C1929 C1930 1.362 1_655 S
C1930 H1922 0.930 . S
C1930 C1929 1.362 1_455 S
C1930 C1933 1.409 . S
C1931 H1923 0.930 . S
C1931 C1932 1.355 . S
C1931 C1933 1.415 . S
C1932 C1931 1.355 . S
C1932 C1934 1.419 . S
C1933 C1928 1.425 1_455 S
C1933 C1930 1.409 . S
C1933 C1931 1.415 . S
C1934 H1924 0.930 . S
C1934 C1932 1.419 . S
C1934 C1935 1.362 1_455 S
C1935 H1925 0.930 . S
C1935 C1928 1.409 . S
C1935 C1934 1.362 1_655 S
H1936 C1942 0.930 . S
H1937 C1945 0.930 . S
H1938 C1946 0.930 . S
H1939 C1947 0.930 . S
H1940 C1950 0.930 . S
H1941 C1951 0.930 . S
C1942 H1936 0.930 . S
C1942 C1943 1.355 . S
C1942 C1944 1.415 . S
C1943 C1942 1.355 . S
C1943 C1945 1.419 . S
C1944 C1942 1.415 . S
C1944 C1949 1.425 . S
C1944 C1951 1.409 . S
C1945 H1937 0.930 . S
C1945 C1943 1.419 . S
C1945 C1946 1.362 . S
C1946 H1938 0.930 . S
C1946 C1945 1.362 . S
C1946 C1949 1.409 . S
C1947 H1939 0.930 . S
C1947 C1948 1.355 . S
C1947 C1949 1.415 . S
C1948 C1947 1.355 . S
C1948 C1950 1.419 . S
C1949 C1944 1.425 . S
C1949 C1946 1.409 . S
C1949 C1947 1.415 . S
C1950 H1940 0.930 . S
C1950 C1948 1.419 . S
C1950 C1951 1.362 . S
C1951 H1941 0.930 . S
C1951 C1944 1.409 . S
C1951 C1950 1.362 . S
H1952 C1958 0.930 . S
H1953 C1961 0.930 . S
H1954 C1962 0.930 . S
H1955 C1963 0.930 . S
H1956 C1966 0.930 . S
H1957 C1967 0.930 . S
C1958 H1952 0.930 . S
C1958 C1959 1.355 . S
C1958 C1960 1.415 . S
C1959 C1958 1.355 . S
C1959 C1961 1.419 . S
C1960 C1958 1.415 . S
C1960 C1965 1.425 . S
C1960 C1967 1.409 . S
C1961 H1953 0.930 . S
C1961 C1959 1.419 . S
C1961 C1962 1.362 . S
C1962 H1954 0.930 . S
C1962 C1961 1.362 . S
C1962 C1965 1.409 . S
C1963 H1955 0.930 . S
C1963 C1964 1.355 . S
C1963 C1965 1.415 . S
C1964 C1963 1.355 . S
C1964 C1966 1.419 . S
C1965 C1960 1.425 . S
C1965 C1962 1.409 . S
C1965 C1963 1.415 . S
C1966 H1956 0.930 . S
C1966 C1964 1.419 . S
C1966 C1967 1.362 . S
C1967 H1957 0.930 . S
C1967 C1960 1.409 . S
C1967 C1966 1.362 . S
H1968 C1974 0.930 . S
H1969 C1977 0.930 . S
H1970 C1978 0.930 . S
H1971 C1979 0.930 . S
H1972 C1982 0.930 . S
H1973 C1983 0.930 . S
C1974 H1968 0.930 . S
C1974 C1975 1.355 1_556 S
C1974 C1976 1.415 . S
C1975 C1974 1.355 1_554 S
C1975 C1977 1.419 . S
C1976 C1974 1.415 . S
C1976 C1981 1.425 1_656 S
C1976 C1983 1.409 . S
C1977 H1969 0.930 . S
C1977 C1975 1.419 . S
C1977 C1978 1.362 1_655 S
C1978 H1970 0.930 . S
C1978 C1977 1.362 1_455 S
C1978 C1981 1.409 . S
C1979 H1971 0.930 . S
C1979 C1980 1.355 . S
C1979 C1981 1.415 . S
C1980 C1979 1.355 . S
C1980 C1982 1.419 1_554 S
C1981 C1976 1.425 1_454 S
C1981 C1978 1.409 . S
C1981 C1979 1.415 . S
C1982 H1972 0.930 . S
C1982 C1980 1.419 1_556 S
C1982 C1983 1.362 1_455 S
C1983 H1973 0.930 . S
C1983 C1976 1.409 . S
C1983 C1982 1.362 1_655 S
H1984 C1990 0.930 . S
H1985 C1993 0.930 . S
H1986 C1994 0.930 . S
H1987 C1995 0.930 . S
H1988 C1998 0.930 . S
H1989 C1999 0.930 . S
C1990 H1984 0.930 . S
C1990 C1991 1.355 . S
C1990 C1992 1.415 . S
C1991 C1990 1.355 . S
C1991 C1993 1.419 . S
C1992 C1990 1.415 . S
C1992 C1997 1.425 . S
C1992 C1999 1.409 . S
C1993 H1985 0.930 . S
C1993 C1991 1.419 . S
C1993 C1994 1.362 . S
C1994 H1986 0.930 . S
C1994 C1993 1.362 . S
C1994 C1997 1.409 . S
C1995 H1987 0.930 . S
C1995 C1996 1.355 . S
C1995 C1997 1.415 . S
C1996 C1995 1.355 . S
C1996 C1998 1.419 . S
C1997 C1992 1.425 . S
C1997 C1994 1.409 . S
C1997 C1995 1.415 . S
C1998 H1988 0.930 . S
C1998 C1996 1.419 . S
C1998 C1999 1.362 . S
C1999 H1989 0.930 . S
C1999 C1992 1.409 . S
C1999 C1998 1.362 . S
H2000 C2006 0.930 . S
H2001 C2009 0.930 . S
H2002 C2010 0.930 . S
H2003 C2011 0.930 . S
H2004 C2014 0.930 . S
H2005 C2015 0.930 . S
C2006 H2000 0.930 . S
C2006 C2007 1.355 . S
C2006 C2008 1.415 . S
C2007 C2006 1.355 . S
C2007 C2009 1.419 . S
C2008 C2006 1.415 . S
C2008 C2013 1.425 . S
C2008 C2015 1.409 . S
C2009 H2001 0.930 . S
C2009 C2007 1.419 . S
C2009 C2010 1.362 . S
C2010 H2002 0.930 . S
C2010 C2009 1.362 . S
C2010 C2013 1.409 . S
C2011 H2003 0.930 . S
C2011 C2012 1.355 . S
C2011 C2013 1.415 . S
C2012 C2011 1.355 . S
C2012 C2014 1.419 . S
C2013 C2008 1.425 . S
C2013 C2010 1.409 . S
C2013 C2011 1.415 . S
C2014 H2004 0.930 . S
C2014 C2012 1.419 . S
C2014 C2015 1.362 . S
C2015 H2005 0.930 . S
C2015 C2008 1.409 . S
C2015 C2014 1.362 . S
H2016 C2022 0.930 . S
H2017 C2025 0.930 . S
H2018 C2026 0.930 . S
H2019 C2027 0.930 . S
H2020 C2030 0.930 . S
H2021 C2031 0.930 . S
C2022 H2016 0.930 . S
C2022 C2023 1.355 . S
C2022 C2024 1.415 . S
C2023 C2022 1.355 . S
C2023 C2025 1.419 . S
C2024 C2022 1.415 . S
C2024 C2029 1.425 . S
C2024 C2031 1.409 . S
C2025 H2017 0.930 . S
C2025 C2023 1.419 . S
C2025 C2026 1.362 . S
C2026 H2018 0.930 . S
C2026 C2025 1.362 . S
C2026 C2029 1.409 . S
C2027 H2019 0.930 . S
C2027 C2028 1.355 . S
C2027 C2029 1.415 . S
C2028 C2027 1.355 . S
C2028 C2030 1.419 . S
C2029 C2024 1.425 . S
C2029 C2026 1.409 . S
C2029 C2027 1.415 . S
C2030 H2020 0.930 . S
C2030 C2028 1.419 . S
C2030 C2031 1.362 . S
C2031 H2021 0.930 . S
C2031 C2024 1.409 . S
C2031 C2030 1.362 . S
H2032 C2038 0.930 . S
H2033 C2041 0.930 . S
H2034 C2042 0.930 . S
H2035 C2043 0.930 . S
H2036 C2046 0.930 . S
H2037 C2047 0.930 . S
C2038 H2032 0.930 . S
C2038 C2039 1.355 . S
C2038 C2040 1.415 . S
C2039 C2038 1.355 . S
C2039 C2041 1.419 . S
C2040 C2038 1.415 . S
C2040 C2045 1.425 . S
C2040 C2047 1.409 . S
C2041 H2033 0.930 . S
C2041 C2039 1.419 . S
C2041 C2042 1.362 . S
C2042 H2034 0.930 . S
C2042 C2041 1.362 . S
C2042 C2045 1.409 . S
C2043 H2035 0.930 . S
C2043 C2044 1.355 . S
C2043 C2045 1.415 . S
C2044 C2043 1.355 . S
C2044 C2046 1.419 . S
C2045 C2040 1.425 . S
C2045 C2042 1.409 . S
C2045 C2043 1.415 . S
C2046 H2036 0.930 . S
C2046 C2044 1.419 . S
C2046 C2047 1.362 . S
C2047 H2037 0.930 . S
C2047 C2040 1.409 . S
C2047 C2046 1.362 . S
H2048 C2054 0.930 . S
H2049 C2057 0.930 . S
H2050 C2058 0.930 . S
H2051 C2059 0.930 . S
H2052 C2062 0.930 . S
H2053 C2063 0.930 . S
C2054 H2048 0.930 . S
C2054 C2055 1.355 . S
C2054 C2056 1.415 . S
C2055 C2054 1.355 . S
C2055 C2057 1.419 . S
C2056 C2054 1.415 . S
C2056 C2061 1.425 . S
C2056 C2063 1.409 . S
C2057 H2049 0.930 . S
C2057 C2055 1.419 . S
C2057 C2058 1.362 . S
C2058 H2050 0.930 . S
C2058 C2057 1.362 . S
C2058 C2061 1.409 . S
C2059 H2051 0.930 . S
C2059 C2060 1.355 . S
C2059 C2061 1.415 . S
C2060 C2059 1.355 . S
C2060 C2062 1.419 . S
C2061 C2056 1.425 . S
C2061 C2058 1.409 . S
C2061 C2059 1.415 . S
C2062 H2052 0.930 . S
C2062 C2060 1.419 . S
C2062 C2063 1.362 . S
C2063 H2053 0.930 . S
C2063 C2056 1.409 . S
C2063 C2062 1.362 . S
H2064 C2070 0.930 . S
H2065 C2073 0.930 . S
H2066 C2074 0.930 . S
H2067 C2075 0.930 . S
H2068 C2078 0.930 . S
H2069 C2079 0.930 . S
C2070 H2064 0.930 . S
C2070 C2071 1.355 . S
C2070 C2072 1.415 . S
C2071 C2070 1.355 . S
C2071 C2073 1.419 . S
C2072 C2070 1.415 . S
C2072 C2077 1.425 . S
C2072 C2079 1.409 . S
C2073 H2065 0.930 . S
C2073 C2071 1.419 . S
C2073 C2074 1.362 . S
C2074 H2066 0.930 . S
C2074 C2073 1.362 . S
C2074 C2077 1.409 . S
C2075 H2067 0.930 . S
C2075 C2076 1.355 . S
C2075 C2077 1.415 . S
C2076 C2075 1.355 . S
C2076 C2078 1.419 . S
C2077 C2072 1.425 . S
C2077 C2074 1.409 . S
C2077 C2075 1.415 . S
C2078 H2068 0.930 . S
C2078 C2076 1.419 . S
C2078 C2079 1.362 . S
C2079 H2069 0.930 . S
C2079 C2072 1.409 . S
C2079 C2078 1.362 . S
H2080 C2086 0.930 . S
H2081 C2089 0.930 . S
H2082 C2090 0.930 . S
H2083 C2091 0.930 . S
H2084 C2094 0.930 . S
H2085 C2095 0.930 . S
C2086 H2080 0.930 . S
C2086 C2087 1.355 . S
C2086 C2088 1.415 . S
C2087 C2086 1.355 . S
C2087 C2089 1.419 . S
C2088 C2086 1.415 . S
C2088 C2093 1.425 . S
C2088 C2095 1.409 . S
C2089 H2081 0.930 . S
C2089 C2087 1.419 . S
C2089 C2090 1.362 . S
C2090 H2082 0.930 . S
C2090 C2089 1.362 . S
C2090 C2093 1.409 . S
C2091 H2083 0.930 . S
C2091 C2092 1.355 . S
C2091 C2093 1.415 . S
C2092 C2091 1.355 . S
C2092 C2094 1.419 . S
C2093 C2088 1.425 . S
C2093 C2090 1.409 . S
C2093 C2091 1.415 . S
C2094 H2084 0.930 . S
C2094 C2092 1.419 . S
C2094 C2095 1.362 . S
C2095 H2085 0.930 . S
C2095 C2088 1.409 . S
C2095 C2094 1.362 . S
H2096 C2102 0.930 . S
H2097 C2105 0.930 . S
H2098 C2106 0.930 . S
H2099 C2107 0.930 . S
H2100 C2110 0.930 . S
H2101 C2111 0.930 . S
C2102 H2096 0.930 . S
C2102 C2103 1.355 . S
C2102 C2104 1.415 . S
C2103 C2102 1.355 . S
C2103 C2105 1.419 . S
C2104 C2102 1.415 . S
C2104 C2109 1.425 . S
C2104 C2111 1.409 . S
C2105 H2097 0.930 . S
C2105 C2103 1.419 . S
C2105 C2106 1.362 . S
C2106 H2098 0.930 . S
C2106 C2105 1.362 . S
C2106 C2109 1.409 . S
C2107 H2099 0.930 . S
C2107 C2108 1.355 . S
C2107 C2109 1.415 . S
C2108 C2107 1.355 . S
C2108 C2110 1.419 . S
C2109 C2104 1.425 . S
C2109 C2106 1.409 . S
C2109 C2107 1.415 . S
C2110 H2100 0.930 . S
C2110 C2108 1.419 . S
C2110 C2111 1.362 . S
C2111 H2101 0.930 . S
C2111 C2104 1.409 . S
C2111 C2110 1.362 . S
H2112 C2118 0.930 . S
H2113 C2121 0.930 . S
H2114 C2122 0.930 . S
H2115 C2123 0.930 . S
H2116 C2126 0.930 . S
H2117 C2127 0.930 . S
C2118 H2112 0.930 . S
C2118 C2119 1.355 . S
C2118 C2120 1.415 . S
C2119 C2118 1.355 . S
C2119 C2121 1.419 . S
C2120 C2118 1.415 . S
C2120 C2125 1.425 . S
C2120 C2127 1.409 . S
C2121 H2113 0.930 . S
C2121 C2119 1.419 . S
C2121 C2122 1.362 . S
C2122 H2114 0.930 . S
C2122 C2121 1.362 . S
C2122 C2125 1.409 . S
C2123 H2115 0.930 . S
C2123 C2124 1.355 . S
C2123 C2125 1.415 . S
C2124 C2123 1.355 . S
C2124 C2126 1.419 . S
C2125 C2120 1.425 . S
C2125 C2122 1.409 . S
C2125 C2123 1.415 . S
C2126 H2116 0.930 . S
C2126 C2124 1.419 . S
C2126 C2127 1.362 . S
C2127 H2117 0.930 . S
C2127 C2120 1.409 . S
C2127 C2126 1.362 . S
H2128 C2134 0.930 . S
H2129 C2137 0.930 . S
H2130 C2138 0.930 . S
H2131 C2139 0.930 . S
H2132 C2142 0.930 . S
H2133 C2143 0.930 . S
C2134 H2128 0.930 . S
C2134 C2135 1.355 . S
C2134 C2136 1.415 . S
C2135 C2134 1.355 . S
C2135 C2137 1.419 . S
C2136 C2134 1.415 . S
C2136 C2141 1.425 . S
C2136 C2143 1.409 . S
C2137 H2129 0.930 . S
C2137 C2135 1.419 . S
C2137 C2138 1.362 . S
C2138 H2130 0.930 . S
C2138 C2137 1.362 . S
C2138 C2141 1.409 . S
C2139 H2131 0.930 . S
C2139 C2140 1.355 . S
C2139 C2141 1.415 . S
C2140 C2139 1.355 . S
C2140 C2142 1.419 . S
C2141 C2136 1.425 . S
C2141 C2138 1.409 . S
C2141 C2139 1.415 . S
C2142 H2132 0.930 . S
C2142 C2140 1.419 . S
C2142 C2143 1.362 . S
C2143 H2133 0.930 . S
C2143 C2136 1.409 . S
C2143 C2142 1.362 . S
H2144 C2150 0.930 . S
H2145 C2153 0.930 . S
H2146 C2154 0.930 . S
H2147 C2155 0.930 . S
H2148 C2158 0.930 . S
H2149 C2159 0.930 . S
C2150 H2144 0.930 . S
C2150 C2151 1.355 . S
C2150 C2152 1.415 . S
C2151 C2150 1.355 . S
C2151 C2153 1.419 . S
C2152 C2150 1.415 . S
C2152 C2157 1.425 . S
C2152 C2159 1.409 . S
C2153 H2145 0.930 . S
C2153 C2151 1.419 . S
C2153 C2154 1.362 . S
C2154 H2146 0.930 . S
C2154 C2153 1.362 . S
C2154 C2157 1.409 . S
C2155 H2147 0.930 . S
C2155 C2156 1.355 . S
C2155 C2157 1.415 . S
C2156 C2155 1.355 . S
C2156 C2158 1.419 . S
C2157 C2152 1.425 . S
C2157 C2154 1.409 . S
C2157 C2155 1.415 . S
C2158 H2148 0.930 . S
C2158 C2156 1.419 . S
C2158 C2159 1.362 . S
C2159 H2149 0.930 . S
C2159 C2152 1.409 . S
C2159 C2158 1.362 . S
H2160 C2166 0.930 . S
H2161 C2169 0.930 . S
H2162 C2170 0.930 . S
H2163 C2171 0.930 . S
H2164 C2174 0.930 . S
H2165 C2175 0.930 . S
C2166 H2160 0.930 . S
C2166 C2167 1.355 . S
C2166 C2168 1.415 . S
C2167 C2166 1.355 . S
C2167 C2169 1.419 . S
C2168 C2166 1.415 . S
C2168 C2173 1.425 . S
C2168 C2175 1.409 . S
C2169 H2161 0.930 . S
C2169 C2167 1.419 . S
C2169 C2170 1.362 . S
C2170 H2162 0.930 . S
C2170 C2169 1.362 . S
C2170 C2173 1.409 . S
C2171 H2163 0.930 . S
C2171 C2172 1.355 . S
C2171 C2173 1.415 . S
C2172 C2171 1.355 . S
C2172 C2174 1.419 . S
C2173 C2168 1.425 . S
C2173 C2170 1.409 . S
C2173 C2171 1.415 . S
C2174 H2164 0.930 . S
C2174 C2172 1.419 . S
C2174 C2175 1.362 . S
C2175 H2165 0.930 . S
C2175 C2168 1.409 . S
C2175 C2174 1.362 . S
H2176 C2182 0.930 . S
H2177 C2185 0.930 . S
H2178 C2186 0.930 . S
H2179 C2187 0.930 . S
H2180 C2190 0.930 . S
H2181 C2191 0.930 . S
C2182 H2176 0.930 . S
C2182 C2183 1.355 . S
C2182 C2184 1.415 . S
C2183 C2182 1.355 . S
C2183 C2185 1.419 . S
C2184 C2182 1.415 . S
C2184 C2189 1.425 . S
C2184 C2191 1.409 . S
C2185 H2177 0.930 . S
C2185 C2183 1.419 . S
C2185 C2186 1.362 . S
C2186 H2178 0.930 . S
C2186 C2185 1.362 . S
C2186 C2189 1.409 . S
C2187 H2179 0.930 . S
C2187 C2188 1.355 . S
C2187 C2189 1.415 . S
C2188 C2187 1.355 . S
C2188 C2190 1.419 . S
C2189 C2184 1.425 . S
C2189 C2186 1.409 . S
C2189 C2187 1.415 . S
C2190 H2180 0.930 . S
C2190 C2188 1.419 . S
C2190 C2191 1.362 . S
C2191 H2181 0.930 . S
C2191 C2184 1.409 . S
C2191 C2190 1.362 . S
H2192 C2198 0.930 . S
H2193 C2201 0.930 . S
H2194 C2202 0.930 . S
H2195 C2203 0.930 . S
H2196 C2206 0.930 . S
H2197 C2207 0.930 . S
C2198 H2192 0.930 . S
C2198 C2199 1.355 . S
C2198 C2200 1.415 . S
C2199 C2198 1.355 . S
C2199 C2201 1.419 . S
C2200 C2198 1.415 . S
C2200 C2205 1.425 . S
C2200 C2207 1.409 . S
C2201 H2193 0.930 . S
C2201 C2199 1.419 . S
C2201 C2202 1.362 . S
C2202 H2194 0.930 . S
C2202 C2201 1.362 . S
C2202 C2205 1.409 . S
C2203 H2195 0.930 . S
C2203 C2204 1.355 . S
C2203 C2205 1.415 . S
C2204 C2203 1.355 . S
C2204 C2206 1.419 . S
C2205 C2200 1.425 . S
C2205 C2202 1.409 . S
C2205 C2203 1.415 . S
C2206 H2196 0.930 . S
C2206 C2204 1.419 . S
C2206 C2207 1.362 . S
C2207 H2197 0.930 . S
C2207 C2200 1.409 . S
C2207 C2206 1.362 . S
H2208 C2214 0.930 . S
H2209 C2217 0.930 . S
H2210 C2218 0.930 . S
H2211 C2219 0.930 . S
H2212 C2222 0.930 . S
H2213 C2223 0.930 . S
C2214 H2208 0.930 . S
C2214 C2215 1.355 . S
C2214 C2216 1.415 . S
C2215 C2214 1.355 . S
C2215 C2217 1.419 . S
C2216 C2214 1.415 . S
C2216 C2221 1.425 . S
C2216 C2223 1.409 . S
C2217 H2209 0.930 . S
C2217 C2215 1.419 . S
C2217 C2218 1.362 . S
C2218 H2210 0.930 . S
C2218 C2217 1.362 . S
C2218 C2221 1.409 . S
C2219 H2211 0.930 . S
C2219 C2220 1.355 . S
C2219 C2221 1.415 . S
C2220 C2219 1.355 . S
C2220 C2222 1.419 . S
C2221 C2216 1.425 . S
C2221 C2218 1.409 . S
C2221 C2219 1.415 . S
C2222 H2212 0.930 . S
C2222 C2220 1.419 . S
C2222 C2223 1.362 . S
C2223 H2213 0.930 . S
C2223 C2216 1.409 . S
C2223 C2222 1.362 . S
H2224 C2230 0.930 . S
H2225 C2233 0.930 . S
H2226 C2234 0.930 . S
H2227 C2235 0.930 . S
H2228 C2238 0.930 . S
H2229 C2239 0.930 . S
C2230 H2224 0.930 . S
C2230 C2231 1.355 . S
C2230 C2232 1.415 . S
C2231 C2230 1.355 . S
C2231 C2233 1.419 . S
C2232 C2230 1.415 . S
C2232 C2237 1.425 . S
C2232 C2239 1.409 . S
C2233 H2225 0.930 . S
C2233 C2231 1.419 . S
C2233 C2234 1.362 . S
C2234 H2226 0.930 . S
C2234 C2233 1.362 . S
C2234 C2237 1.409 . S
C2235 H2227 0.930 . S
C2235 C2236 1.355 . S
C2235 C2237 1.415 . S
C2236 C2235 1.355 . S
C2236 C2238 1.419 . S
C2237 C2232 1.425 . S
C2237 C2234 1.409 . S
C2237 C2235 1.415 . S
C2238 H2228 0.930 . S
C2238 C2236 1.419 . S
C2238 C2239 1.362 . S
C2239 H2229 0.930 . S
C2239 C2232 1.409 . S
C2239 C2238 1.362 . S
C711 C8 1.916 . S
C716 C106 1.943 . S
C727 C128 1.931 . S
C732 C30 1.925 . S
C743 C142 1.933 . S
C748 C54 1.936 . S
C759 C84 1.921 . S
C764 C162 1.945 . S
C775 C194 1.932 . S
C780 C272 1.898 . S
C791 C208 1.907 . S
C796 C304 1.910 . S
C807 C230 1.914 . S
C812 C316 1.925 . S
C823 C340 1.897 . S
C828 C252 1.926 . S
C839 C370 1.939 . S
C844 C458 1.918 . S
C855 C480 1.930 . S
C860 C382 1.925 . S
C871 C404 1.945 . S
C876 C502 1.916 . S
C887 C524 1.919 . S
C892 C436 1.938 . S
C903 C538 1.932 . S
C908 C624 1.901 . S
C919 C560 1.899 . S
C924 C646 1.921 . S
C935 C590 1.926 . S
C940 C678 1.912 . S
C951 C612 1.932 . S
C956 C692 1.900 . S
C967 C546 1.528 . S
C972 C18 1.508 . S
C983 C216 1.522 . S
C988 C40 1.502 . S
C999 C52 1.511 . S
C1004 C580 1.528 . S
C1015 C76 1.505 . S
C1020 C260 1.522 . S
C1031 C98 1.579 . S
C1036 C626 1.596 . S
C1047 C120 1.597 . S
C1052 C294 1.611 . S
C1063 C668 1.532 . S
C1068 C140 1.512 . S
C1079 C348 1.554 . S
C1084 C172 1.541 . S
C1095 C362 1.555 . S
C1100 C184 1.573 . S
C1111 C238 1.608 . S
C1116 C414 1.595 . S
C1127 C274 1.527 . S
C1132 C450 1.508 . S
C1143 C494 1.509 . S
C1148 C318 1.529 . S
C1159 C392 1.597 . S
C1164 C568 1.611 . S
C1175 C602 1.603 . S
C1180 C428 1.590 . S
C1191 C648 1.594 . S
C1196 C472 1.582 . S
C1207 C516 1.597 . S
C1212 C700 1.611 . S
C1223 C7 1.172 . S
C1228 C601 1.162 . S
C1239 C29 1.162 . S
C1244 C183 1.171 . S
C1255 C65 1.160 . S
C1260 C565 1.160 . S
C1271 C235 1.159 . S
C1276 C81 1.173 . S
C1287 C659 1.156 . S
C1292 C103 1.172 . S
C1303 C125 1.164 . S
C1308 C329 1.157 . S
C1319 C697 1.156 . S
C1324 C153 1.170 . S
C1335 C285 1.164 . S
C1340 C161 1.156 . S
C1351 C425 1.157 . S
C1356 C197 1.174 . S
C1367 C205 1.160 . S
C1372 C21 1.173 . S
C1383 C395 1.170 . S
C1388 C227 1.164 . S
C1399 C59 1.170 . S
C1404 C249 1.163 . S
C1415 C469 1.175 . S
C1420 C279 1.159 . S
C1431 C307 1.173 . S
C1436 C147 1.159 . S
C1447 C323 1.163 . S
C1452 C513 1.171 . S
C1463 C95 1.157 . S
C1468 C337 1.174 . S
C1479 C367 1.169 . S
C1484 C257 1.156 . S
C1495 C381 1.173 . S
C1500 C543 1.159 . S
C1511 C213 1.162 . S
C1516 C403 1.172 . S
C1527 C433 1.173 . S
C1532 C579 1.157 . S
C1543 C293 1.165 . S
C1548 C455 1.170 . S
C1559 C477 1.164 . S
C1564 C667 1.170 . S
C1575 C345 1.168 . S
C1580 C499 1.154 . S
C1591 C521 1.171 . S
C1596 C637 1.164 . S
C1607 C73 1.160 . S
C1612 C535 1.172 . S
C1623 C557 1.164 . S
C1628 C359 1.170 . S
C1639 C593 1.161 . S
C1644 C43 1.173 . S
C1655 C417 1.173 . S
C1660 C615 1.161 . S
C1671 C117 1.175 . S
C1676 C631 1.160 . S
C1687 C491 1.175 . S
C1692 C653 1.160 . S
C1703 C681 1.159 . S
C1708 C175 1.175 . S
C1719 C447 1.175 . S
C1724 C689 1.159 . S
C1735 C15 0.685 . S
C1740 C411 0.683 . S
C1751 C37 0.648 . S
C1756 C439 0.659 . S
C1767 C51 0.669 . S
C1772 C373 0.657 . S
C1783 C87 0.651 . S
C1788 C389 0.662 . S
C1799 C505 0.671 . S
C1804 C109 0.660 . S
C1815 C527 0.651 . S
C1820 C131 0.663 . S
C1831 C139 0.642 . S
C1836 C461 0.640 . S
C1847 C483 0.652 . S
C1852 C169 0.644 . S
C1863 C587 0.653 . S
C1868 C191 0.648 . S
C1879 C609 0.658 . S
C1884 C219 0.649 . S
C1895 C549 0.649 . S
C1900 C241 0.647 . S
C1911 C263 0.655 . S
C1916 C571 0.648 . S
C1927 C271 0.676 . S
C1932 C675 0.680 . S
C1943 C703 0.649 . S
C1948 C301 0.647 . S
C1959 C623 0.648 . S
C1964 C315 0.655 . S
C1975 C351 0.666 . S
C1980 C645 0.655 . S
C1991 C164 1.340 . S
C1996 C10 1.346 . S
C2007 C32 1.308 . S
C2012 C96 1.309 . S
C2023 C62 1.331 . S
C2028 C118 1.322 . S
C2039 C150 1.322 . S
C2044 C74 1.330 . S
C2055 C338 1.328 . S
C2060 C186 1.331 . S
C2071 C206 1.329 . S
C2076 C282 1.330 . S
C2087 C296 1.329 . S
C2092 C228 1.335 . S
C2103 C326 1.343 . S
C2108 C250 1.333 . S
C2119 C514 1.342 . S
C2124 C360 1.348 . S
C2135 C448 1.308 . S
C2140 C384 1.309 . S
C2151 C470 1.344 . S
C2156 C406 1.337 . S
C2167 C426 1.341 . S
C2172 C492 1.333 . S
C2183 C690 1.351 . S
C2188 C536 1.360 . S
C2199 C634 1.332 . S
C2204 C558 1.328 . S
C2215 C656 1.358 . S
C2220 C582 1.363 . S
C2231 C604 1.357 . S
C2236 C670 1.363 . S
