# Generated by pormake.
# Topology une, (4)-cn, num edge types: 1
# Building blocks:
#     Node 0, Type 0, BuildingBlock: GALJAG_clean_sbu_0, # of connection points: 4
#     Node 1, Type 0, BuildingBlock: GALJAG_clean_sbu_0, # of connection points: 4
#     Node 2, Type 0, BuildingBlock: GALJAG_clean_sbu_0, # of connection points: 4
#     Node 3, Type 0, BuildingBlock: GALJAG_clean_sbu_0, # of connection points: 4
#     Node 4, Type 0, BuildingBlock: GALJAG_clean_sbu_0, # of connection points: 4
#     Node 5, Type 0, BuildingBlock: GALJAG_clean_sbu_0, # of connection points: 4
#     Node 6, Type 0, BuildingBlock: GALJAG_clean_sbu_0, # of connection points: 4
#     Node 7, Type 0, BuildingBlock: GALJAG_clean_sbu_0, # of connection points: 4
#     Node 8, Type 0, BuildingBlock: GALJAG_clean_sbu_0, # of connection points: 4
#     Node 9, Type 0, BuildingBlock: GALJAG_clean_sbu_0, # of connection points: 4
#     Node 10, Type 0, BuildingBlock: GALJAG_clean_sbu_0, # of connection points: 4
#     Node 11, Type 0, BuildingBlock: GALJAG_clean_sbu_0, # of connection points: 4
#     Node 12, Type 0, BuildingBlock: GALJAG_clean_sbu_0, # of connection points: 4
#     Node 13, Type 0, BuildingBlock: GALJAG_clean_sbu_0, # of connection points: 4
#     Node 14, Type 0, BuildingBlock: GALJAG_clean_sbu_0, # of connection points: 4
#     Node 15, Type 0, BuildingBlock: GALJAG_clean_sbu_0, # of connection points: 4
#     Node 16, Type 0, BuildingBlock: GALJAG_clean_sbu_0, # of connection points: 4
#     Node 17, Type 0, BuildingBlock: GALJAG_clean_sbu_0, # of connection points: 4
#     Edge 18, Type (0, 0), BuildingBlock: UVAHIK_clean_linker_0, # of connection points: 2
#     Edge 19, Type (0, 0), BuildingBlock: UVAHIK_clean_linker_0, # of connection points: 2
#     Edge 20, Type (0, 0), BuildingBlock: UVAHIK_clean_linker_0, # of connection points: 2
#     Edge 21, Type (0, 0), BuildingBlock: UVAHIK_clean_linker_0, # of connection points: 2
#     Edge 22, Type (0, 0), BuildingBlock: UVAHIK_clean_linker_0, # of connection points: 2
#     Edge 23, Type (0, 0), BuildingBlock: UVAHIK_clean_linker_0, # of connection points: 2
#     Edge 24, Type (0, 0), BuildingBlock: UVAHIK_clean_linker_0, # of connection points: 2
#     Edge 25, Type (0, 0), BuildingBlock: UVAHIK_clean_linker_0, # of connection points: 2
#     Edge 26, Type (0, 0), BuildingBlock: UVAHIK_clean_linker_0, # of connection points: 2
#     Edge 27, Type (0, 0), BuildingBlock: UVAHIK_clean_linker_0, # of connection points: 2
#     Edge 28, Type (0, 0), BuildingBlock: UVAHIK_clean_linker_0, # of connection points: 2
#     Edge 29, Type (0, 0), BuildingBlock: UVAHIK_clean_linker_0, # of connection points: 2
#     Edge 30, Type (0, 0), BuildingBlock: UVAHIK_clean_linker_0, # of connection points: 2
#     Edge 31, Type (0, 0), BuildingBlock: UVAHIK_clean_linker_0, # of connection points: 2
#     Edge 32, Type (0, 0), BuildingBlock: UVAHIK_clean_linker_0, # of connection points: 2
#     Edge 33, Type (0, 0), BuildingBlock: UVAHIK_clean_linker_0, # of connection points: 2
#     Edge 34, Type (0, 0), BuildingBlock: UVAHIK_clean_linker_0, # of connection points: 2
#     Edge 35, Type (0, 0), BuildingBlock: UVAHIK_clean_linker_0, # of connection points: 2
#     Edge 36, Type (0, 0), BuildingBlock: UVAHIK_clean_linker_0, # of connection points: 2
#     Edge 37, Type (0, 0), BuildingBlock: UVAHIK_clean_linker_0, # of connection points: 2
#     Edge 38, Type (0, 0), BuildingBlock: UVAHIK_clean_linker_0, # of connection points: 2
#     Edge 39, Type (0, 0), BuildingBlock: UVAHIK_clean_linker_0, # of connection points: 2
#     Edge 40, Type (0, 0), BuildingBlock: UVAHIK_clean_linker_0, # of connection points: 2
#     Edge 41, Type (0, 0), BuildingBlock: UVAHIK_clean_linker_0, # of connection points: 2
#     Edge 42, Type (0, 0), BuildingBlock: UVAHIK_clean_linker_0, # of connection points: 2
#     Edge 43, Type (0, 0), BuildingBlock: UVAHIK_clean_linker_0, # of connection points: 2
#     Edge 44, Type (0, 0), BuildingBlock: UVAHIK_clean_linker_0, # of connection points: 2
#     Edge 45, Type (0, 0), BuildingBlock: UVAHIK_clean_linker_0, # of connection points: 2
#     Edge 46, Type (0, 0), BuildingBlock: UVAHIK_clean_linker_0, # of connection points: 2
#     Edge 47, Type (0, 0), BuildingBlock: UVAHIK_clean_linker_0, # of connection points: 2
#     Edge 48, Type (0, 0), BuildingBlock: UVAHIK_clean_linker_0, # of connection points: 2
#     Edge 49, Type (0, 0), BuildingBlock: UVAHIK_clean_linker_0, # of connection points: 2
#     Edge 50, Type (0, 0), BuildingBlock: UVAHIK_clean_linker_0, # of connection points: 2
#     Edge 51, Type (0, 0), BuildingBlock: UVAHIK_clean_linker_0, # of connection points: 2
#     Edge 52, Type (0, 0), BuildingBlock: UVAHIK_clean_linker_0, # of connection points: 2
#     Edge 53, Type (0, 0), BuildingBlock: UVAHIK_clean_linker_0, # of connection points: 2
# Relax obj value: 0.162
# Max RMSD: 0.139
# Mean RMSD: 0.139
data_MOF--net-une--node1-GALJAG_clean_sbu_0--edge1-UVAHIK_clean_linker_0
_symmetry_space_group_name_H-M    P1
_symmetry_Int_Tables_number       1
_symmetry_cell_setting            triclinic
loop_
_symmetry_equiv_pos_as_xyz
'x, y, z'
_cell_length_a     51.619609
_cell_length_b     51.63625
_cell_length_c     67.115068
_cell_angle_alpha  89.939464
_cell_angle_beta   90.057263
_cell_angle_gamma 119.98814
loop_
_atom_site_label
_atom_site_type_symbol
_atom_site_fract_x
_atom_site_fract_y
_atom_site_fract_z
_atom_type_partial_charge
In0 In 0.36933 0.06168 0.05541 0.0
O1 O 0.34611 0.06006 0.08443 0.0
O2 O 0.39121 0.09458 0.08131 0.0
C3 C 0.32673 0.00628 0.04503 0.0
C4 C 0.35856 0.09961 0.03441 0.0
C5 C 0.41672 0.05598 0.04519 0.0
O6 O 0.33752 0.01237 0.06242 0.0
O7 O 0.33757 0.02803 0.03307 0.0
O8 O 0.40802 0.07078 0.03508 0.0
O9 O 0.40245 0.04524 0.06118 0.0
C10 C 0.36779 0.08315 0.09179 0.0
O11 O 0.38479 0.10481 0.03788 0.0
O12 O 0.33801 0.07539 0.04151 0.0
In13 In 0.92619 0.30448 0.05797 0.0
O14 O 0.92861 0.28655 0.08846 0.0
O15 O 0.88843 0.28595 0.08098 0.0
C16 C 0.9826 0.32148 0.04723 0.0
C17 C 0.89381 0.25695 0.03429 0.0
C18 C 0.92976 0.35777 0.05195 0.0
O19 O 0.97392 0.31587 0.06511 0.0
O20 O 0.96278 0.31824 0.03486 0.0
O21 O 0.91284 0.33473 0.04201 0.0
O22 O 0.94339 0.35348 0.06603 0.0
C23 C 0.90223 0.27894 0.0934 0.0
O24 O 0.88763 0.27748 0.03665 0.0
O25 O 0.91641 0.26045 0.04382 0.0
In26 In 0.68727 0.61821 0.05307 0.0
O27 O 0.71723 0.59988 0.04361 0.0
O28 O 0.71983 0.63627 0.02703 0.0
C29 C 0.63318 0.56894 0.04801 0.0
C30 C 0.71785 0.63086 0.08757 0.0
C31 C 0.67266 0.65985 0.04349 0.0
O32 O 0.65574 0.57446 0.03772 0.0
O33 O 0.63829 0.58733 0.0619 0.0
O34 O 0.67639 0.65458 0.06131 0.0
O35 O 0.67677 0.64449 0.03061 0.0
C36 C 0.72918 0.61809 0.02941 0.0
O37 O 0.72287 0.6502 0.07437 0.0
O38 O 0.69644 0.60496 0.08373 0.0
In39 In 0.62768 0.92943 0.93825 0.0
O40 O 0.65665 0.9328 0.91184 0.0
O41 O 0.61 0.90271 0.9093 0.0
C42 C 0.67616 0.98264 0.9461 0.0
C43 C 0.62337 0.88454 0.96096 0.0
C44 C 0.58152 0.93725 0.94856 0.0
O45 O 0.65342 0.98031 0.93735 0.0
O46 O 0.67449 0.95815 0.95069 0.0
O47 O 0.59136 0.92428 0.9595 0.0
O48 O 0.59416 0.94536 0.9318 0.0
C49 C 0.63559 0.91317 0.90155 0.0
O50 O 0.61123 0.88027 0.94403 0.0
O51 O 0.63745 0.91148 0.96654 0.0
In52 In 0.06138 0.6866 0.93937 0.0
O53 O 0.10709 0.71475 0.95372 0.0
O54 O 0.07262 0.72389 0.9617 0.0
C55 C 0.05617 0.63277 0.94614 0.0
C56 C 0.08232 0.71514 0.90434 0.0
C57 C 0.00439 0.67034 0.94768 0.0
O58 O 0.07298 0.65573 0.9562 0.0
O59 O 0.04342 0.63734 0.9316 0.0
O60 O 0.01442 0.67544 0.93009 0.0
O61 O 0.02315 0.67374 0.96096 0.0
C62 C 0.0995 0.73046 0.96383 0.0
O63 O 0.0641 0.71827 0.9151 0.0
O64 O 0.08925 0.69641 0.9108 0.0
In65 In 0.29726 0.36797 0.93915 0.0
O66 O 0.27401 0.33943 0.91207 0.0
O67 O 0.28914 0.38585 0.90995 0.0
C68 C 0.30355 0.3205 0.94743 0.0
C69 C 0.25516 0.3705 0.96122 0.0
C70 C 0.35045 0.4145 0.95032 0.0
O71 O 0.32409 0.34399 0.93951 0.0
O72 O 0.27968 0.32082 0.95092 0.0
O73 O 0.32717 0.4046 0.96075 0.0
O74 O 0.3467 0.40191 0.93361 0.0
C75 C 0.27542 0.36047 0.90176 0.0
O76 O 0.26332 0.38305 0.94443 0.0
O77 O 0.26842 0.35687 0.96694 0.0
In78 In 0.03329 0.39801 0.3845 0.0
O79 O 0.00646 0.39785 0.41121 0.0
O80 O 0.05364 0.42386 0.41358 0.0
C81 C 0.98478 0.34413 0.37842 0.0
C82 C 0.0366 0.44283 0.36228 0.0
C83 C 0.07646 0.38779 0.37079 0.0
O84 O 0.00762 0.34725 0.38747 0.0
O85 O 0.98637 0.36817 0.37269 0.0
O86 O 0.06561 0.40063 0.36067 0.0
O87 O 0.06647 0.38108 0.38833 0.0
C88 C 0.02857 0.41571 0.42154 0.0
O89 O 0.05464 0.44729 0.37634 0.0
O90 O 0.01724 0.41579 0.35933 0.0
In91 In 0.5903 0.6374 0.38909 0.0
O92 O 0.54185 0.60657 0.38041 0.0
O93 O 0.57519 0.60225 0.36459 0.0
C94 C 0.59467 0.69109 0.38298 0.0
C95 C 0.57435 0.60851 0.42425 0.0
C96 C 0.64622 0.65251 0.37857 0.0
O97 O 0.57771 0.66816 0.37298 0.0
O98 O 0.608 0.68656 0.39715 0.0
O99 O 0.63816 0.64993 0.39656 0.0
O100 O 0.62595 0.64699 0.36595 0.0
C101 C 0.54771 0.5931 0.36706 0.0
O102 O 0.59131 0.60574 0.41202 0.0
O103 O 0.56636 0.62708 0.4192 0.0
In104 In 0.35558 0.95677 0.38794 0.0
O105 O 0.38482 0.93761 0.37853 0.0
O106 O 0.39129 0.97689 0.36379 0.0
C107 C 0.30126 0.90814 0.38239 0.0
C108 C 0.38469 0.96869 0.42297 0.0
C109 C 0.34124 -0.00179 0.3775 0.0
O110 O 0.3236 0.91412 0.3717 0.0
O111 O 0.3067 0.92572 0.39686 0.0
O112 O 0.34476 0.99331 0.39546 0.0
O113 O 0.34538 0.98253 0.36489 0.0
C114 C 0.39921 0.95752 0.36567 0.0
O115 O 0.38801 0.98873 0.4108 0.0
O116 O 0.36549 0.94238 0.41792 0.0
In117 In 0.28539 0.26077 0.26973 0.0
O118 O 0.31916 0.261 0.24807 0.0
O119 O 0.27358 0.23879 0.23898 0.0
C120 C 0.3255 0.31605 0.28203 0.0
C121 C 0.28565 0.21837 0.29297 0.0
C122 C 0.2353 0.26458 0.27283 0.0
O123 O 0.32427 0.30792 0.26415 0.0
O124 O 0.30673 0.2963 0.29357 0.0
O125 O 0.23971 0.24646 0.28278 0.0
O126 O 0.25537 0.27959 0.26018 0.0
C127 C 0.30016 0.24559 0.23496 0.0
O128 O 0.26831 0.21225 0.27829 0.0
O129 O 0.30275 0.2459 0.29605 0.0
In130 In 0.73033 0.01996 0.27046 0.0
O131 O 0.72618 0.03235 0.23848 0.0
O132 O 0.76824 0.0387 0.24768 0.0
C133 C 0.6756 0.00706 0.28265 0.0
C134 C 0.76455 0.06767 0.29362 0.0
C135 C 0.72406 0.96551 0.27632 0.0
O136 O 0.68545 0.01757 0.26556 0.0
O137 O 0.69343 0.00338 0.29354 0.0
O138 O 0.7428 0.98848 0.28563 0.0
O139 O 0.70989 0.97037 0.26287 0.0
C140 C 0.75322 0.04201 0.23413 0.0
O141 O 0.76954 0.04628 0.29157 0.0
O142 O 0.74232 0.06493 0.28404 0.0
In143 In 0.96631 0.70847 0.27502 0.0
O144 O 0.93522 0.72663 0.28168 0.0
O145 O 0.93545 0.69474 0.30178 0.0
C146 C 0.01984 0.75671 0.28371 0.0
C147 C 0.93696 0.69542 0.23996 0.0
C148 C 0.97847 0.66491 0.28398 0.0
O149 O -0.00313 0.74845 0.29421 0.0
O150 O 0.01551 0.74171 0.268 0.0
O151 O 0.98815 0.68045 0.26835 0.0
O152 O 0.96218 0.67094 0.29475 0.0
C153 C 0.92468 0.7112 0.2973 0.0
O154 O 0.93282 0.6759 0.25281 0.0
O155 O 0.95696 0.72171 0.24441 0.0
In156 In 0.70194 0.7284 0.72382 0.0
O157 O 0.7211 0.77124 0.7055 0.0
O158 O 0.67464 0.74864 0.71258 0.0
C159 C 0.74523 0.7196 0.7088 0.0
C160 C 0.70426 0.74934 0.76104 0.0
C161 C 0.65547 0.67369 0.71603 0.0
O162 O 0.73173 0.72974 0.69866 0.0
O163 O 0.73782 0.71496 0.72695 0.0
O164 O 0.67536 0.67788 0.72862 0.0
O165 O 0.65896 0.69703 0.70758 0.0
C166 C 0.69638 0.7706 0.70416 0.0
O167 O 0.68252 0.72544 0.75462 0.0
O168 O 0.72604 0.76173 0.74916 0.0
In169 In 0.25951 0.96503 0.72036 0.0
O170 O 0.2612 0.93611 0.74516 0.0
O171 O 0.23464 0.95633 0.75009 0.0
C172 C 0.3154 0.97566 0.71426 0.0
C173 C 0.2152 0.9238 0.69765 0.0
C174 C 0.26469 0.01751 0.70902 0.0
O175 O 0.31003 0.99348 0.72384 0.0
O176 O 0.29257 0.95235 0.70806 0.0
O177 O 0.25616 0.99545 0.69755 0.0
O178 O 0.26962 0.0129 0.72675 0.0
C179 C 0.24345 0.93904 0.75655 0.0
O180 O 0.21036 0.93302 0.71386 0.0
O181 O 0.24239 0.93558 0.69281 0.0
In182 In 0.01987 0.28555 0.72144 0.0
O183 O 0.04046 0.30585 0.75141 0.0
O184 O 0.03927 0.26561 0.74338 0.0
C185 C 0.00508 0.32694 0.71144 0.0
C186 C 0.06327 0.29703 0.6947 0.0
C187 C 0.965 0.23673 0.71926 0.0
O188 O 0.01468 0.32584 0.72853 0.0
O189 O 0.00306 0.30727 0.69941 0.0
O190 O 0.98698 0.23978 0.70925 0.0
O191 O 0.97111 0.25754 0.7315 0.0
C192 C 0.04761 0.28655 0.75583 0.0
O193 O 0.04041 0.27157 0.69662 0.0
O194 O 0.06424 0.31674 0.70624 0.0
In195 In 0.95305 0.59296 0.6043 0.0
O196 O 0.9356 0.54497 0.61409 0.0
O197 O 0.97319 0.57915 0.62952 0.0
C198 C 0.90267 0.59565 0.60974 0.0
C199 C 0.96643 0.57565 0.56986 0.0
C200 C 0.99302 0.64966 0.61397 0.0
O201 O 0.90976 0.58011 0.62041 0.0
O202 O 0.92012 0.60858 0.59532 0.0
O203 O 0.98763 0.64091 0.5961 0.0
O204 O 0.97859 0.62976 0.62683 0.0
C205 C 0.95489 0.55156 0.62761 0.0
O206 O 0.9859 0.59179 0.58251 0.0
O207 O 0.94002 0.56917 0.57413 0.0
In208 In 0.39004 0.35924 0.60432 0.0
O209 O 0.38906 0.37779 0.57387 0.0
O210 O 0.42457 0.36942 0.57955 0.0
C211 C 0.33463 0.35089 0.60863 0.0
C212 C 0.4309 0.40487 0.62633 0.0
C213 C 0.37964 0.3066 0.61952 0.0
O214 O 0.34012 0.33486 0.59716 0.0
O215 O 0.35702 0.37097 0.61778 0.0
O216 O 0.38574 0.32908 0.63009 0.0
O217 O 0.37952 0.31075 0.60096 0.0
C218 C 0.41288 0.37958 0.56766 0.0
O219 O 0.43288 0.38191 0.62278 0.0
O220 O 0.40846 0.40471 0.61875 0.0
In221 In 0.63521 0.03759 0.60378 0.0
O222 O 0.61043 0.05696 0.6206 0.0
O223 O 0.58949 0.00961 0.6176 0.0
C224 C 0.68808 0.0834 0.61595 0.0
C225 C 0.61407 0.03504 0.56656 0.0
C226 C 0.64562 0.99387 0.61568 0.0
O227 O 0.66394 0.07508 0.62517 0.0
O228 O 0.68539 0.06969 0.59983 0.0
O229 O 0.65775 0.00933 0.60031 0.0
O230 O 0.62826 0.00034 0.62475 0.0
C231 C 0.58804 0.03165 0.62437 0.0
O232 O 0.61459 0.01341 0.57479 0.0
O233 O 0.62599 0.05883 0.57663 0.0
C234 C 0.45249 0.05982 0.01885 0.0
C235 C 0.43851 0.04809 0.03724 0.0
C236 C 0.46888 0.04857 0.00943 0.0
C237 C 0.47285 0.97968 0.00693 0.0
H238 H 0.54549 0.02856 0.97691 0.0
C239 C 0.54603 0.93466 0.97462 0.0
C240 C 0.55996 0.94571 0.95614 0.0
C241 C 0.5295 0.9461 0.98359 0.0
C242 C 0.52496 0.01458 0.98498 0.0
H243 H 0.43214 0.01663 0.06075 0.0
H244 H 0.46121 -0.00278 0.0444 0.0
H245 H 0.52285 0.05245 0.99586 0.0
H246 H 0.56635 0.97632 0.93204 0.0
H247 H 0.53714 -0.00377 0.94769 0.0
H248 H 0.475 0.94183 0.99611 0.0
C249 C 0.45901 0.01475 0.03711 0.0
C250 C 0.51209 0.02828 0.99592 0.0
C251 C 0.44265 0.02607 0.04657 0.0
C252 C 0.55581 0.96737 0.9463 0.0
C253 C 0.53936 0.97896 0.95534 0.0
C254 C 0.48572 0.966 0.99601 0.0
C255 C 0.47161 0.02532 0.01819 0.0
C256 C 0.48594 0.01098 0.00707 0.0
C257 C 0.52664 0.96892 0.9743 0.0
C258 C 0.51196 0.9833 0.98496 0.0
H259 H 0.44967 0.0768 0.0113 0.0
H260 H 0.47817 0.05709 0.99482 0.0
H261 H 0.45234 0.96569 0.01502 0.0
H262 H 0.54885 0.91795 0.98256 0.0
H263 H 0.52017 0.93802 -0.00175 0.0
C264 C 0.92329 0.39097 0.02799 0.0
C265 C 0.93784 0.38789 0.04475 0.0
C266 C 0.93536 0.41823 0.01792 0.0
C267 C 0.00865 0.48391 0.0086 0.0
H268 H 0.96281 0.5152 0.98277 0.0
C269 C 0.06174 0.59932 0.97035 0.0
C270 C 0.04743 0.60257 0.95351 0.0
C271 C 0.04934 0.57207 0.98044 0.0
C272 C 0.97585 0.50645 0.98963 0.0
H273 H 0.97502 0.41148 0.06514 0.0
H274 H -0.00411 0.45931 0.04772 0.0
H275 H 0.93754 0.47173 0.00456 0.0
H276 H 0.01021 0.57933 0.93311 0.0
H277 H 0.98875 0.53147 0.95059 0.0
H278 H 0.04696 0.51859 0.99367 0.0
C279 C 0.97549 0.44046 0.04212 0.0
C280 C 0.9614 0.48169 0.00222 0.0
C281 C 0.96335 0.41318 0.05223 0.0
C282 C 0.02172 0.57747 0.94606 0.0
C283 C 0.00925 0.55019 0.9562 0.0
C284 C 0.0231 0.50866 0.99601 0.0
C285 C 0.96225 0.44293 0.02443 0.0
C286 C 0.97765 0.47018 0.01188 0.0
C287 C 0.02236 0.54753 0.9739 0.0
C288 C 0.00687 0.52021 0.98638 0.0
H289 H 0.90357 0.37185 0.02189 0.0
H290 H 0.92464 0.41937 0.00433 0.0
H291 H 0.02171 0.47517 0.01547 0.0
H292 H 0.0816 0.6183 0.97644 0.0
H293 H 0.05996 0.57082 0.99405 0.0
C294 C 0.38258 0.44941 0.97694 0.0
C295 C 0.38021 0.43535 0.95858 0.0
C296 C 0.41003 0.46459 0.98677 0.0
C297 C 0.49172 0.49551 0.98051 0.0
H298 H 0.48908 0.48086 0.03741 0.0
C299 C 0.59875 0.52923 0.02458 0.0
C300 C 0.60269 0.54667 0.04159 0.0
C301 C 0.57078 0.5134 0.0155 0.0
C302 C 0.49012 0.48524 0.02156 0.0
H303 H 0.40487 0.42737 0.93562 0.0
H304 H 0.45278 0.45353 0.95288 0.0
H305 H 0.44254 0.46047 0.01853 0.0
H306 H 0.58004 0.55937 0.06333 0.0
H307 H 0.53096 0.53142 0.04751 0.0
H308 H 0.53933 0.51998 0.98354 0.0
C309 C 0.43355 0.45317 0.95962 0.0
C310 C 0.46349 0.47376 0.01074 0.0
C311 C 0.40609 0.43817 0.9497 0.0
C312 C 0.57764 0.54607 0.05025 0.0
C313 C 0.54956 0.53012 0.04118 0.0
C314 C 0.51831 0.5068 0.9913 0.0
C315 C 0.43565 0.46583 0.97853 0.0
C316 C 0.46398 0.47879 0.99008 0.0
C317 C 0.54616 0.5146 0.02328 0.0
C318 C 0.51779 0.50174 0.01192 0.0
H319 H 0.36298 0.44773 0.98408 0.0
H320 H 0.41102 0.47474 0.00108 0.0
H321 H 0.49291 0.50018 0.96469 0.0
H322 H 0.61762 0.52911 0.01762 0.0
H323 H 0.56863 0.5011 0.00195 0.0
C324 C 0.10913 0.38915 0.34304 0.0
C325 C 0.09609 0.37794 0.36172 0.0
C326 C 0.12396 0.37679 0.3329 0.0
C327 C 0.15607 0.32692 0.33913 0.0
H328 H 0.14329 0.31667 0.282 0.0
C329 C 0.1931 0.25677 0.29472 0.0
C330 C 0.21205 0.2718 0.27858 0.0
C331 C 0.17617 0.26787 0.30352 0.0
C332 C 0.14708 0.31948 0.29793 0.0
H333 H 0.08908 0.34569 0.38478 0.0
H334 H 0.1144 0.32359 0.36695 0.0
H335 H 0.12134 0.34128 0.30095 0.0
H336 H 0.22621 0.30875 0.25791 0.0
H337 H 0.19617 0.32796 0.27317 0.0
H338 H 0.1814 0.30468 0.33609 0.0
C339 C 0.11371 0.3423 0.36022 0.0
C340 C 0.13472 0.33376 0.30879 0.0
C341 C 0.09916 0.35493 0.37046 0.0
C342 C 0.21179 0.2967 0.27033 0.0
C343 C 0.19465 0.30772 0.27908 0.0
C344 C 0.16811 0.31239 0.3283 0.0
C345 C 0.12575 0.35267 0.34112 0.0
C346 C 0.13916 0.33775 0.32953 0.0
C347 C 0.17766 0.29408 0.29625 0.0
C348 C 0.16376 0.30854 0.30761 0.0
H349 H 0.10721 0.40701 0.336 0.0
H350 H 0.13362 0.38585 0.31847 0.0
H351 H 0.16039 0.33003 0.35499 0.0
H352 H 0.19268 0.23741 0.30134 0.0
H353 H 0.1628 0.25663 0.31652 0.0
C354 C 0.58777 0.72454 0.35953 0.0
C355 C 0.60307 0.72128 0.37578 0.0
C356 C 0.59986 0.75163 0.34927 0.0
C357 C 0.65865 0.83162 0.35057 0.0
H358 H 0.65766 0.82202 0.29318 0.0
C359 C 0.73002 0.9316 0.29992 0.0
C360 C 0.71486 0.93522 0.28373 0.0
C361 C 0.71741 0.90459 0.31031 0.0
C362 C 0.65796 0.82508 0.30916 0.0
H363 H 0.64176 0.74439 0.39503 0.0
H364 H 0.66298 0.79172 0.37708 0.0
H365 H 0.63119 0.77809 0.3144 0.0
H366 H 0.67576 0.91274 0.26474 0.0
H367 H 0.65373 0.8655 0.28287 0.0
H368 H 0.68552 0.87862 0.34531 0.0
C369 C 0.6416 0.77341 0.37227 0.0
C370 C 0.64265 0.79994 0.32133 0.0
C371 C 0.62942 0.7463 0.38259 0.0
C372 C 0.68801 0.91057 0.27713 0.0
C373 C 0.67536 0.88352 0.28755 0.0
C374 C 0.67399 0.85676 0.3384 0.0
C375 C 0.62754 0.77597 0.35502 0.0
C376 C 0.6428 0.80293 0.34218 0.0
C377 C 0.68939 0.88066 0.30472 0.0
C378 C 0.67386 0.85375 0.31756 0.0
H379 H 0.56729 0.70567 0.35403 0.0
H380 H 0.5881 0.75316 0.33635 0.0
H381 H 0.65896 0.83469 0.36655 0.0
H382 H 0.75085 0.95017 0.30528 0.0
H383 H 0.72909 0.9028 0.32319 0.0
C384 C 0.05293 0.79376 0.30903 0.0
C385 C 0.04991 0.77808 0.29129 0.0
C386 C 0.08048 0.80883 0.31875 0.0
C387 C 0.14837 0.80418 0.32466 0.0
H388 H 0.17902 0.88023 0.35175 0.0
C389 C 0.26639 0.86888 0.35888 0.0
C390 C 0.27065 0.88627 0.37596 0.0
C391 C 0.23834 0.85339 0.34985 0.0
C392 C 0.17047 0.85871 0.34456 0.0
H393 H 0.07367 0.76754 0.26906 0.0
H394 H 0.12199 0.79418 0.28599 0.0
H395 H 0.13379 0.86109 0.33159 0.0
H396 H 0.24848 0.89924 0.3979 0.0
H397 H 0.1992 0.87164 0.38232 0.0
H398 H 0.18494 0.8017 0.33766 0.0
C399 C 0.10292 0.7944 0.29252 0.0
C400 C 0.1447 0.84789 0.33289 0.0
C401 C 0.07536 0.77945 0.28272 0.0
C402 C 0.24586 0.88606 0.38472 0.0
C403 C 0.21774 0.87055 0.37566 0.0
C404 C 0.17408 0.81495 0.33637 0.0
C405 C 0.1055 0.8084 0.31096 0.0
C406 C 0.13346 0.82058 0.32275 0.0
C407 C 0.21394 0.85494 0.35774 0.0
C408 C 0.18549 0.84239 0.3464 0.0
H409 H 0.03366 0.79308 0.31597 0.0
H410 H 0.08174 0.81936 0.33295 0.0
H411 H 0.13987 0.78274 0.31737 0.0
H412 H 0.2851 0.86861 0.35179 0.0
H413 H 0.23625 0.8417 0.33602 0.0
C414 C 0.86323 0.58962 0.63364 0.0
C415 C 0.87955 0.60269 0.61616 0.0
C416 C 0.84664 0.60098 0.64261 0.0
C417 C 0.81341 0.64882 0.63604 0.0
H418 H 0.83387 0.66763 0.69185 0.0
C419 C 0.77533 0.71951 0.67984 0.0
C420 C 0.76504 0.71029 0.69935 0.0
C421 C 0.79026 0.70731 0.66962 0.0
C422 C 0.82757 0.66221 0.67637 0.0
H423 H 0.88934 0.63624 0.59344 0.0
H424 H 0.85988 0.65589 0.60906 0.0
H425 H 0.85453 0.64173 0.6732 0.0
H426 H 0.76306 0.68188 0.72376 0.0
H427 H 0.78852 0.66001 0.70583 0.0
H428 H 0.78601 0.66879 0.63924 0.0
C429 C 0.86016 0.63699 0.61586 0.0
C430 C 0.83942 0.64737 0.66569 0.0
C431 C 0.87696 0.62572 0.60691 0.0
C432 C 0.771 0.68956 0.70878 0.0
C433 C 0.78562 0.67706 0.69847 0.0
C434 C 0.80126 0.6634 0.64679 0.0
C435 C 0.84587 0.62548 0.6342 0.0
C436 C 0.83244 0.6405 0.64544 0.0
C437 C 0.79488 0.68534 0.67861 0.0
C438 C 0.80824 0.67032 0.66709 0.0
H439 H 0.86463 0.57171 0.64105 0.0
H440 H 0.83534 0.59134 0.65656 0.0
H441 H 0.80758 0.64366 0.62047 0.0
H442 H 0.77118 0.73561 0.67226 0.0
H443 H 0.79774 0.71478 0.65455 0.0
C444 C 0.35712 0.25111 0.61695 0.0
C445 C 0.37083 0.27726 0.62848 0.0
C446 C 0.34581 0.22312 0.62601 0.0
C447 C 0.3199 0.18621 0.67504 0.0
H448 H 0.32427 0.1213 0.64938 0.0
C449 C 0.28722 0.07288 0.71326 0.0
C450 C 0.27194 0.04719 0.70138 0.0
C451 C 0.29803 0.10128 0.70489 0.0
C452 C 0.32261 0.13915 0.65664 0.0
H453 H 0.38471 0.29484 0.65834 0.0
H454 H 0.36576 0.24616 0.67404 0.0
H455 H 0.34747 0.17029 0.63354 0.0
H456 H 0.25448 0.03091 0.67178 0.0
H457 H 0.27307 0.08031 0.65729 0.0
H458 H 0.29528 0.15497 0.69826 0.0
C459 C 0.36296 0.2471 0.65811 0.0
C460 C 0.3359 0.16721 0.64755 0.0
C461 C 0.37405 0.27501 0.64909 0.0
C462 C 0.26636 0.05032 0.68128 0.0
C463 C 0.27719 0.0786 0.67294 0.0
C464 C 0.30675 0.15815 0.68419 0.0
C465 C 0.34819 0.22079 0.64675 0.0
C466 C 0.33462 0.19106 0.6566 0.0
C467 C 0.2938 0.10439 0.6845 0.0
C468 C 0.30782 0.13429 0.67501 0.0
H469 H 0.35419 0.2522 0.60104 0.0
H470 H 0.33433 0.20329 0.61683 0.0
H471 H 0.31805 0.20396 0.68227 0.0
H472 H 0.29191 0.07111 0.72878 0.0
H473 H 0.31081 0.1208 0.71414 0.0
C474 C 0.71867 0.11918 0.64268 0.0
C475 C 0.71728 0.10367 0.62515 0.0
C476 C 0.74515 0.13375 0.65366 0.0
C477 C 0.81151 0.12819 0.66403 0.0
H478 H 0.8429 0.20673 0.68765 0.0
C479 C 0.92901 0.19397 0.69839 0.0
C480 C 0.93407 0.21421 0.71389 0.0
C481 C 0.90075 0.17769 0.68974 0.0
C482 C 0.83409 0.1845 0.68151 0.0
H483 H 0.74281 0.09253 0.60479 0.0
H484 H 0.78918 0.11808 0.62401 0.0
H485 H 0.79846 0.18664 0.66664 0.0
H486 H 0.91302 0.23136 0.7337 0.0
H487 H 0.86334 0.20225 0.71891 0.0
H488 H 0.84691 0.12586 0.67895 0.0
C489 C 0.76969 0.11871 0.62931 0.0
C490 C 0.80878 0.17315 0.66934 0.0
C491 C 0.74327 0.10438 0.61821 0.0
C492 C 0.90978 0.21599 0.72171 0.0
C493 C 0.88143 0.1996 0.71308 0.0
C494 C 0.83666 0.13943 0.67632 0.0
C495 C 0.77062 0.13283 0.6474 0.0
C496 C 0.79747 0.14504 0.6603 0.0
C497 C 0.8769 0.18118 0.69648 0.0
C498 C 0.84846 0.16786 0.68504 0.0
H499 H 0.69893 0.11897 0.64837 0.0
H500 H 0.74522 0.14443 0.66756 0.0
H501 H 0.80286 0.10616 0.65758 0.0
H502 H 0.9473 0.1921 0.69206 0.0
H503 H 0.89818 0.16386 0.67693 0.0
C504 C 0.38756 0.126 0.11581 0.0
C505 C 0.36411 0.09824 0.10933 0.0
C506 C 0.38224 0.14273 0.12993 0.0
C507 C 0.32186 0.15468 0.14622 0.0
H508 H 0.37108 0.19342 0.19247 0.0
C509 C 0.28589 0.20857 0.20732 0.0
C510 C 0.30811 0.23328 0.21772 0.0
C511 C 0.29376 0.19388 0.19318 0.0
C512 C 0.3574 0.18324 0.17941 0.0
H513 H 0.31719 0.06541 0.11341 0.0
H514 H 0.30798 0.09465 0.13792 0.0
H515 H 0.38357 0.16337 0.17074 0.0
H516 H 0.35588 0.26318 0.22069 0.0
H517 H 0.36964 0.23833 0.19545 0.0
H518 H 0.29599 0.17483 0.15448 0.0
C519 C 0.33034 0.10358 0.13196 0.0
C520 C 0.36449 0.16587 0.16707 0.0
C521 C 0.33571 0.08678 0.11804 0.0
C522 C 0.33828 0.24404 0.21296 0.0
C523 C 0.34615 0.22959 0.19865 0.0
C524 C 0.31498 0.17232 0.15838 0.0
C525 C 0.35333 0.13205 0.13761 0.0
C526 C 0.34654 0.15113 0.15052 0.0
C527 C 0.32403 0.20383 0.18896 0.0
C528 C 0.33245 0.18657 0.17528 0.0
H529 H 0.40966 0.1354 0.10932 0.0
H530 H 0.40034 0.16463 0.13408 0.0
H531 H 0.30798 0.14397 0.1333 0.0
H532 H 0.26246 0.19966 0.21081 0.0
H533 H 0.27609 0.17394 0.18621 0.0
C534 C 0.90352 0.25032 0.12297 0.0
C535 C 0.88726 0.25883 0.11043 0.0
C536 C 0.88873 0.227 0.13659 0.0
C537 C 0.81622 0.17922 0.16174 0.0
H538 H 0.84393 0.12187 0.16316 0.0
C539 C 0.75029 0.06771 0.20341 0.0
C540 C 0.76729 0.06069 0.21636 0.0
C541 C 0.76436 0.09018 0.18911 0.0
C542 C 0.83604 0.13776 0.16301 0.0
H543 H 0.84294 0.25078 0.10306 0.0
H544 H 0.81705 0.20996 0.12681 0.0
H545 H 0.87012 0.16661 0.1426 0.0
H546 H 0.81214 0.07023 0.22366 0.0
H547 H 0.83671 0.10939 0.19868 0.0
H548 H 0.78216 0.15036 0.18218 0.0
C549 C 0.84124 0.22138 0.1262 0.0
C550 C 0.85112 0.16347 0.15132 0.0
C551 C 0.85607 0.24479 0.1126 0.0
C552 C 0.79845 0.07512 0.21386 0.0
C553 C 0.81252 0.09756 0.19953 0.0
C554 C 0.80112 0.15348 0.17341 0.0
C555 C 0.85736 0.21165 0.13792 0.0
C556 C 0.84147 0.18458 0.15062 0.0
C557 C 0.7957 0.106 0.18745 0.0
C558 C 0.81091 0.1325 0.17422 0.0
H559 H 0.92761 0.26084 0.1217 0.0
H560 H 0.90183 0.22049 0.14574 0.0
H561 H 0.8084 0.19517 0.16167 0.0
H562 H 0.72621 0.0569 0.20494 0.0
H563 H 0.75076 0.09577 0.17973 0.0
C564 C 0.89468 0.6587 0.21892 0.0
C565 C 0.91737 0.68831 0.22238 0.0
C566 C 0.8735 0.6522 0.20396 0.0
C567 C 0.85752 0.68212 0.15853 0.0
H568 H 0.77474 0.62789 0.17281 0.0
C569 C 0.76089 0.66706 0.10827 0.0
C570 C 0.7377 0.63763 0.10497 0.0
C571 C 0.78212 0.67325 0.12313 0.0
C572 C 0.79775 0.64283 0.16852 0.0
H573 H 0.93641 0.7342 0.21242 0.0
H574 H 0.89933 0.72286 0.18625 0.0
H575 H 0.81432 0.63833 0.19678 0.0
H576 H 0.71786 0.59174 0.11508 0.0
H577 H 0.75513 0.60251 0.14104 0.0
H578 H 0.84098 0.6866 0.13027 0.0
C579 C 0.89801 0.70464 0.19504 0.0
C580 C 0.82044 0.64878 0.18223 0.0
C581 C 0.91923 0.71116 0.21004 0.0
C582 C 0.73544 0.61465 0.11735 0.0
C583 C 0.75677 0.62084 0.13222 0.0
C584 C 0.83483 0.67614 0.14481 0.0
C585 C 0.87455 0.67516 0.19214 0.0
C586 C 0.85058 0.6685 0.17739 0.0
C587 C 0.78069 0.65014 0.13499 0.0
C588 C 0.80468 0.65649 0.14967 0.0
H589 H 0.89274 0.64058 0.22814 0.0
H590 H 0.85604 0.6292 0.20184 0.0
H591 H 0.88053 0.69711 0.15427 0.0
H592 H 0.76311 0.68528 0.09904 0.0
H593 H 0.7999 0.69614 0.12516 0.0
C594 C 0.67015 0.9137 0.87544 0.0
C595 C 0.64139 0.89999 0.88382 0.0
C596 C 0.67757 0.89863 0.86133 0.0
C597 C 0.64557 0.83201 0.82815 0.0
H598 H 0.72313 0.83839 0.83566 0.0
C599 C 0.67471 0.75099 0.78982 0.0
C600 C 0.70151 0.76448 0.77889 0.0
C601 C 0.66879 0.76754 0.80362 0.0
C602 C 0.70149 0.83654 0.83334 0.0
H603 H 0.59736 0.86048 0.88328 0.0
H604 H 0.61034 0.83392 0.85891 0.0
H605 H 0.70915 0.86858 0.85604 0.0
H606 H 0.74411 0.80517 0.77496 0.0
H607 H 0.73388 0.83404 0.79937 0.0
H608 H 0.63777 0.79951 0.8057 0.0
C609 C 0.62714 0.85646 0.86298 0.0
C610 C 0.69351 0.85396 0.84489 0.0
C611 C 0.61965 0.87166 0.87697 0.0
C612 C 0.72328 0.79417 0.78318 0.0
C613 C 0.7174 0.81071 0.79712 0.0
C614 C 0.65345 0.81442 0.81673 0.0
C615 C 0.65646 0.86942 0.85543 0.0
C616 C 0.66541 0.85186 0.84247 0.0
C617 C 0.68962 0.79785 0.80689 0.0
C618 C 0.68142 0.8164 0.81928 0.0
H619 H 0.68731 0.93562 0.88037 0.0
H620 H 0.70012 0.90959 0.85544 0.0
H621 H 0.62398 0.83015 0.82565 0.0
H622 H 0.65755 0.7281 0.78691 0.0
H623 H 0.64745 0.7569 0.81126 0.0
C624 C 0.12247 0.73652 0.87833 0.0
C625 C 0.09694 0.73479 0.88707 0.0
C626 C 0.13884 0.75852 0.86408 0.0
C627 C 0.15336 0.83306 0.8485 0.0
H628 H 0.18846 0.819 0.80168 0.0
C629 C 0.2059 0.91832 0.78414 0.0
C630 C 0.23093 0.92029 0.77448 0.0
C631 C 0.19111 0.89686 0.79897 0.0
C632 C 0.17917 0.82339 0.81485 0.0
H633 H 0.0675 0.75347 0.88695 0.0
H634 H 0.09566 0.79135 0.8619 0.0
H635 H 0.15835 0.77769 0.82427 0.0
H636 H 0.26124 0.90265 0.77356 0.0
H637 H 0.23582 0.86566 0.79967 0.0
H638 H 0.17408 0.87873 0.83908 0.0
C639 C 0.1035 0.77628 0.86636 0.0
C640 C 0.16185 0.79969 0.82775 0.0
C641 C 0.08723 0.7544 0.88058 0.0
C642 C 0.24187 0.90153 0.78066 0.0
C643 C 0.22716 0.88016 0.79549 0.0
C644 C 0.17069 0.85676 0.83562 0.0
C645 C 0.12991 0.77911 0.85833 0.0
C646 C 0.14859 0.80422 0.84465 0.0
C647 C 0.20114 0.87702 0.80443 0.0
C648 C 0.18369 0.85218 0.8186 0.0
H649 H 0.13053 0.72176 0.88312 0.0
H650 H 0.15916 0.76018 0.85821 0.0
H651 H 0.14394 0.83742 0.86162 0.0
H652 H 0.1969 0.9324 0.7796 0.0
H653 H 0.17103 0.89492 0.80549 0.0
C654 C 0.2509 0.37583 0.87594 0.0
C655 C 0.25816 0.35474 0.88317 0.0
C656 C 0.22973 0.36812 0.86077 0.0
C657 C 0.1652 0.3009 0.83936 0.0
H658 H 0.16675 0.35746 0.80068 0.0
C659 C 0.07801 0.2704 0.77585 0.0
C660 C 0.06803 0.29085 0.77249 0.0
C661 C 0.10097 0.27702 0.78953 0.0
C662 C 0.16595 0.3415 0.81151 0.0
H663 H 0.25082 0.3099 0.87928 0.0
H664 H 0.21474 0.29678 0.85232 0.0
H665 H 0.20979 0.37209 0.82238 0.0
H666 H 0.07316 0.33352 0.78147 0.0
H667 H 0.11313 0.34499 0.8053 0.0
H668 H 0.12138 0.27026 0.82827 0.0
C669 C 0.22455 0.31892 0.85877 0.0
C670 C 0.19059 0.34987 0.82394 0.0
C671 C 0.24545 0.32653 0.87408 0.0
C672 C 0.08043 0.31735 0.7837 0.0
C673 C 0.10348 0.32405 0.79721 0.0
C674 C 0.14067 0.29246 0.82679 0.0
C675 C 0.21565 0.33926 0.85241 0.0
C676 C 0.19041 0.32978 0.83817 0.0
C677 C 0.11445 0.3043 0.79991 0.0
C678 C 0.14068 0.3128 0.81292 0.0
H679 H 0.26022 0.39769 0.88278 0.0
H680 H 0.22329 0.3843 0.85637 0.0
H681 H 0.16399 0.28502 0.85039 0.0
H682 H 0.06891 0.24984 0.76738 0.0
H683 H 0.10903 0.26141 0.79133 0.0
C684 C -0.00407 0.4191 0.44742 0.0
C685 C 0.02481 0.429 0.43999 0.0
C686 C 0.99132 0.43457 0.46274 0.0
C687 C 0.02569 0.50996 0.48436 0.0
H688 H 0.96301 0.47056 0.5238 0.0
C689 C 0.00378 0.57173 0.54843 0.0
C690 C 0.97376 0.56235 0.55288 0.0
C691 C 0.01094 0.55638 0.53438 0.0
C692 C 0.98038 0.48185 0.51273 0.0
H693 H 0.07176 0.46184 0.4435 0.0
H694 H 0.06378 0.48868 0.47065 0.0
H695 H 0.97517 0.44065 0.50177 0.0
H696 H 0.9277 0.53033 0.54556 0.0
H697 H 0.94023 0.50346 0.52094 0.0
H698 H 0.03093 0.55119 0.49549 0.0
C699 C 0.04462 0.46925 0.46433 0.0
C700 C 0.98742 0.46474 0.50015 0.0
C701 C 0.04924 0.45373 0.44894 0.0
C702 C 0.95102 0.53809 0.54241 0.0
C703 C 0.95819 0.52256 0.52847 0.0
C704 C 0.01877 0.52708 0.49705 0.0
C705 C 0.0155 0.46027 0.47104 0.0
C706 C 0.00991 0.47855 0.48564 0.0
C707 C 0.98822 0.53118 0.52463 0.0
C708 C -0.0042 0.51318 0.5112 0.0
H709 H 0.97663 0.40011 0.44082 0.0
H710 H 0.96857 0.42716 0.46736 0.0
H711 H 0.04279 0.52131 0.47314 0.0
H712 H 0.02178 0.59037 0.55629 0.0
H713 H 0.03426 0.56347 0.53178 0.0
C714 C 0.57406 0.57089 0.4477 0.0
C715 C 0.56151 0.58822 0.44144 0.0
C716 C 0.55919 0.54792 0.46156 0.0
C717 C 0.48378 0.4948 0.47731 0.0
H718 H 0.52083 0.48121 0.52337 0.0
C719 C 0.41538 0.41087 0.53871 0.0
C720 C 0.42812 0.3968 0.54961 0.0
C721 C 0.43184 0.43186 0.52406 0.0
C722 C 0.51027 0.48428 0.51034 0.0
H723 H 0.52431 0.59606 0.44534 0.0
H724 H 0.49813 0.55561 0.46947 0.0
H725 H 0.55023 0.52461 0.50211 0.0
H726 H 0.46734 0.39209 0.5528 0.0
H727 H 0.4959 0.42816 0.52666 0.0
H728 H 0.44404 0.45435 0.48514 0.0
C729 C 0.51945 0.55984 0.46361 0.0
C730 C 0.52708 0.50931 0.49829 0.0
C731 C 0.53454 0.58312 0.44997 0.0
C732 C 0.45699 0.40267 0.54466 0.0
C733 C 0.47344 0.42358 0.52985 0.0
C734 C 0.4671 0.46959 0.48916 0.0
C735 C 0.53132 0.54161 0.46916 0.0
C736 C 0.51383 0.51501 0.48186 0.0
C737 C 0.46138 0.43911 0.5198 0.0
C738 C 0.47997 0.46423 0.50602 0.0
H739 H 0.59484 0.57436 0.44133 0.0
H740 H 0.56878 0.53416 0.46558 0.0
H741 H 0.47324 0.49837 0.46445 0.0
H742 H 0.39318 0.40686 0.5422 0.0
H743 H 0.42184 0.44352 0.51684 0.0
C744 C 0.59152 0.05409 0.5416 0.0
C745 C 0.59609 0.03098 0.5485 0.0
C746 C 0.56975 0.04829 0.52713 0.0
C747 C 0.49836 0.98655 0.51025 0.0
H748 H 0.50751 0.03763 0.46532 0.0
C749 C 0.40797 0.95279 0.44939 0.0
C750 C 0.40481 0.97548 0.4402 0.0
C751 C 0.4307 0.95997 0.46333 0.0
C752 C 0.50441 0.02338 0.478 0.0
H753 H 0.58301 0.98428 0.54474 0.0
H754 H 0.54516 0.97427 0.51951 0.0
H755 H 0.55033 0.05004 0.48681 0.0
H756 H 0.42157 0.02323 0.43924 0.0
H757 H 0.46049 0.0357 0.46409 0.0
H758 H 0.45243 0.96016 0.50179 0.0
C759 C 0.55806 -0.0033 0.52547 0.0
C760 C 0.52902 0.03043 0.4902 0.0
C761 C 0.5799 0.00252 0.53978 0.0
C762 C 0.42364 0.00529 0.44601 0.0
C763 C 0.44614 0.01245 0.46009 0.0
C764 C 0.4737 0.97966 0.49818 0.0
C765 C 0.55212 0.01927 0.51947 0.0
C766 C 0.52627 0.01195 0.50635 0.0
C767 C 0.45051 0.98997 0.4685 0.0
C768 C 0.47644 -0.00211 0.48184 0.0
H769 H 0.60364 0.07623 0.54808 0.0
H770 H 0.56561 0.0661 0.52275 0.0
H771 H 0.49547 0.97222 0.52285 0.0
H772 H 0.39389 0.92964 0.44507 0.0
H773 H 0.43352 0.94209 0.46937 0.0
C774 C 0.29099 0.97172 0.01971 0.0
C775 C 0.30275 0.97635 0.03908 0.0
C776 C 0.26772 0.94377 0.01401 0.0
C777 C 0.23115 0.86395 0.02563 0.0
H778 H 0.16675 0.86093 0.994 0.0
C779 C 0.15078 0.76264 0.97764 0.0
C780 C 0.12079 0.75554 0.97634 0.0
C781 C 0.17151 0.78787 0.98817 0.0
C782 C 0.18432 0.86131 0.00305 0.0
H783 H 0.29973 0.95536 0.06764 0.0
H784 H 0.25881 0.90619 0.05761 0.0
H785 H 0.20577 0.90867 0.00691 0.0
H786 H 0.08861 0.76842 0.98569 0.0
H787 H 0.12481 0.81246 0.00417 0.0
H788 H 0.20969 0.8165 0.02159 0.0
C789 C 0.26775 0.92427 0.04686 0.0
C790 C 0.20685 0.8887 0.01024 0.0
C791 C 0.29105 0.95237 0.05261 0.0
C792 C 0.11164 0.77348 0.98635 0.0
C793 C 0.13237 0.79873 -0.00315 0.0
C794 C 0.20861 0.83649 0.01836 0.0
C795 C 0.25572 0.91981 0.02754 0.0
C796 C 0.23073 0.89037 0.02132 0.0
C797 C 0.16261 0.80648 -0.00244 0.0
C798 C 0.18518 0.83498 0.00678 0.0
H799 H 0.29965 0.98976 0.00893 0.0
H800 H 0.25924 0.94085 -0.00109 0.0
H801 H 0.24938 0.86463 0.03407 0.0
H802 H 0.15843 0.74916 0.97008 0.0
H803 H 0.19472 0.79345 0.98827 0.0
C804 C 0.02318 0.34199 0.02183 0.0
C805 C 0.01345 0.33091 0.04113 0.0
C806 C 0.05212 0.35025 0.01575 0.0
C807 C 0.11124 0.33326 0.02453 0.0
H808 H 0.16016 0.40593 0.99449 0.0
C809 C 0.22517 0.35958 0.99243 0.0
C810 C 0.23116 0.37077 0.97289 0.0
C811 C 0.2013 0.35826 0.00306 0.0
C812 C 0.14669 0.38544 0.00274 0.0
H813 H 0.02631 0.32007 0.06933 0.0
H814 H 0.07695 0.33406 0.05851 0.0
H815 H 0.11294 0.39692 0.00885 0.0
H816 H 0.21738 0.38989 0.94923 0.0
H817 H 0.17523 0.38679 0.96747 0.0
H818 H 0.14408 0.32098 0.01774 0.0
C819 C 0.06215 0.33644 0.04817 0.0
C820 C 0.11976 0.38039 0.01101 0.0
C821 C 0.03327 0.32853 0.05435 0.0
C822 C 0.21332 0.38124 0.96431 0.0
C823 C 0.18928 0.37966 0.97484 0.0
C824 C 0.13801 0.33814 0.01608 0.0
C825 C 0.07175 0.34726 0.02879 0.0
C826 C 0.1016 0.35404 0.02172 0.0
C827 C 0.18278 0.36785 0.99427 0.0
C828 C 0.15582 0.36407 0.00481 0.0
H829 H 0.00837 0.34414 0.01136 0.0
H830 H 0.05887 0.35821 0.00065 0.0
H831 H 0.09745 0.3126 0.03254 0.0
H832 H 0.23875 0.35157 -0.00055 0.0
H833 H 0.19723 0.34951 0.0181 0.0
C834 C 0.6534 0.68195 0.01866 0.0
C835 C 0.66369 0.68187 0.03801 0.0
C836 C 0.64487 0.70271 0.0133 0.0
C837 C 0.65982 0.77737 0.02416 0.0
H838 H 0.58703 0.75365 0.99422 0.0
C839 C 0.63331 0.86514 0.99245 0.0
C840 C 0.62242 0.86009 0.97283 0.0
C841 C 0.63433 0.84246 0.00315 0.0
C842 C 0.60753 0.76067 0.00246 0.0
H843 H 0.67309 0.70323 0.06699 0.0
H844 H 0.65879 0.7402 0.05739 0.0
H845 H 0.59676 0.71546 0.00777 0.0
H846 H 0.60342 0.8273 0.94914 0.0
H847 H 0.60605 0.78809 0.96748 0.0
H848 H 0.67149 0.82252 0.01805 0.0
C849 C 0.65713 0.72398 0.04649 0.0
C850 C 0.61299 0.7388 0.01027 0.0
C851 C 0.66524 0.70286 0.05196 0.0
C852 C 0.61183 0.83178 0.96428 0.0
C853 C 0.61314 0.80922 0.97488 0.0
C854 C 0.65455 0.79928 0.01614 0.0
C855 C 0.64685 0.72402 0.02711 0.0
C856 C 0.63944 0.74699 0.02086 0.0
C857 C 0.62477 0.81439 0.99436 0.0
C858 C 0.62863 0.79119 0.00483 0.0
H859 H 0.65188 0.66593 0.00764 0.0
H860 H 0.63737 0.70254 -0.00181 0.0
H861 H 0.68051 0.78422 0.03213 0.0
H862 H 0.6414 0.88674 -0.00056 0.0
H863 H 0.64294 0.84704 0.01823 0.0
C864 C 0.72769 0.01307 0.95984 0.0
C865 C 0.70217 0.01172 0.95138 0.0
C866 C 0.75152 0.04035 0.96619 0.0
C867 C 0.78375 0.12255 0.96289 0.0
H868 H 0.81667 0.12163 0.01469 0.0
C869 C 0.85067 0.2277 0.01143 0.0
C870 C 0.87542 0.23038 0.02195 0.0
C871 C 0.83222 0.20176 0.00067 0.0
C872 C 0.80806 0.12221 7e-05 0.0
H873 H 0.68178 0.03779 0.94236 0.0
H874 H 0.72311 0.08538 0.95384 0.0
H875 H 0.77951 0.07482 -0.00038 0.0
H876 H 0.90088 0.20854 0.02903 0.0
H877 H 0.8686 0.16317 0.01022 0.0
H878 H 0.81182 0.17018 0.96372 0.0
C879 C 0.72499 0.0655 0.95529 0.0
C880 C 0.78679 0.09538 0.99141 0.0
C881 C 0.70123 0.03822 0.94882 0.0
C882 C 0.88186 0.20701 0.02112 0.0
C883 C 0.86334 0.18102 0.01043 0.0
C884 C 0.80497 0.14944 0.97162 0.0
C885 C 0.7502 0.06678 0.96432 0.0
C886 C 0.77419 0.09524 0.9728 0.0
C887 C 0.83814 0.178 0.00032 0.0
C888 C 0.81712 0.14953 0.99037 0.0
H889 H 0.7291 0.99299 0.96184 0.0
H890 H 0.77085 0.04067 0.97276 0.0
H891 H 0.77477 0.12314 0.94841 0.0
H892 H 0.84522 0.24541 0.0118 0.0
H893 H 0.81277 0.19991 0.99318 0.0
C894 C 0.76807 0.60388 0.0235 0.0
C895 C 0.75321 0.61891 0.01715 0.0
C896 C 0.79227 0.60632 0.01271 0.0
C897 C 0.84935 0.65587 0.97629 0.0
H898 H 0.86866 0.59228 0.97639 0.0
C899 C 0.95534 0.66613 0.93896 0.0
C900 C 0.97315 0.6611 0.95248 0.0
C901 C 0.9261 0.65845 0.94404 0.0
C902 C 0.86338 0.61013 0.97617 0.0
H903 H 0.75097 0.6472 0.99414 0.0
H904 H 0.79259 0.65063 0.97482 0.0
H905 H 0.82075 0.58281 0.98976 0.0
H906 H 0.9743 0.6433 0.98154 0.0
H907 H 0.92299 0.62929 0.99021 0.0
H908 H 0.89211 0.68304 0.96259 0.0
C909 C 0.7862 0.63767 0.98846 0.0
C910 C 0.83609 0.60483 0.98394 0.0
C911 C 0.76226 0.63559 -0.00056 0.0
C912 C 0.96105 0.64754 0.97089 0.0
C913 C 0.9317 0.63934 0.9758 0.0
C914 C 0.87642 0.66098 0.96822 0.0
C915 C 0.80185 0.62348 0.99514 0.0
C916 C 0.82908 0.62789 0.98461 0.0
C917 C 0.91412 0.64504 0.96252 0.0
C918 C 0.88394 0.63837 0.96856 0.0
H919 H 0.76163 0.59099 0.03718 0.0
H920 H 0.80405 0.59554 0.01857 0.0
H921 H 0.845 0.67431 0.97679 0.0
H922 H 0.96422 0.67659 0.92467 0.0
H923 H 0.91287 0.66302 0.9336 0.0
C924 C 0.33593 0.29772 0.95173 0.0
C925 C 0.30762 0.29521 0.95308 0.0
C926 C 0.34034 0.27468 0.95857 0.0
C927 C 0.30783 0.21139 0.99357 0.0
H928 H 0.36196 0.19028 0.96778 0.0
C929 C 0.32259 0.11423 0.02116 0.0
C930 C 0.3522 0.12034 0.02322 0.0
C931 C 0.31642 0.13422 0.01117 0.0
C932 C 0.34692 0.1961 0.97517 0.0
H933 H 0.26144 0.26624 0.96181 0.0
H934 H 0.26895 0.2257 0.97337 0.0
H935 H 0.35181 0.22716 0.95231 0.0
H936 H 0.39853 0.15176 0.01613 0.0
H937 H 0.38771 0.18684 -0.00138 0.0
H938 H 0.30298 0.18041 0.01643 0.0
C939 C 0.28791 0.24573 0.96746 0.0
C940 C 0.34112 0.2172 0.96635 0.0
C941 C 0.28356 0.26885 0.96074 0.0
C942 C 0.37551 0.14654 0.01477 0.0
C943 C 0.36931 0.16649 0.00466 0.0
C944 C 0.3135 0.19022 0.00231 0.0
C945 C 0.31646 0.24861 0.96678 0.0
C946 C 0.32164 0.22519 0.97552 0.0
C947 C 0.33973 0.16064 0.00296 0.0
C948 C 0.33321 0.18249 0.99326 0.0
H949 H 0.35489 0.31785 0.94592 0.0
H950 H 0.36267 0.27775 0.95804 0.0
H951 H 0.2932 0.21747 0.00124 0.0
H952 H 0.30416 0.09413 0.02746 0.0
H953 H 0.29339 0.129 0.00987 0.0
C954 C 0.96012 0.28843 0.37696 0.0
C955 C 0.95883 0.31465 0.37383 0.0
C956 C 0.93656 0.2608 0.3708 0.0
C957 C 0.87511 0.22962 0.33441 0.0
H958 H 0.84973 0.15541 0.36296 0.0
C959 C 0.77827 0.11831 0.30627 0.0
C960 C 0.78383 0.09434 0.30563 0.0
C961 C 0.79755 0.14439 0.3166 0.0
C962 C 0.85672 0.17598 0.35482 0.0
H963 H 0.9314 0.3325 0.36282 0.0
H964 H 0.89004 0.28426 0.35247 0.0
H965 H 0.88702 0.20278 0.37785 0.0
H966 H 0.81327 0.07837 0.31578 0.0
H967 H 0.84711 0.12411 0.3338 0.0
H968 H 0.8451 0.20294 0.31133 0.0
C969 C 0.9095 0.28505 0.35921 0.0
C970 C 0.87806 0.20306 0.36331 0.0
C971 C 0.9331 0.31266 0.36523 0.0
C972 C 0.8085 0.09655 0.31601 0.0
C973 C 0.82774 0.12263 0.32641 0.0
C974 C 0.85375 0.20264 0.32599 0.0
C975 C 0.91124 0.2589 0.36151 0.0
C976 C 0.88758 0.23016 0.35313 0.0
C977 C 0.8227 0.14697 0.32653 0.0
C978 C 0.84444 0.17554 0.33604 0.0
H979 H 0.97974 0.28937 0.38355 0.0
H980 H 0.93872 0.24112 0.37263 0.0
H981 H 0.88243 0.24999 0.32596 0.0
H982 H 0.75932 0.11715 0.29849 0.0
H983 H 0.79292 0.16267 0.31666 0.0
C984 C 0.88328 0.72254 0.30048 0.0
C985 C 0.90037 0.71104 0.30882 0.0
C986 C 0.85841 0.71979 0.31057 0.0
C987 C 0.8043 0.67358 0.34951 0.0
H988 H 0.77727 0.73096 0.34303 0.0
C989 C 0.69704 0.66055 0.38637 0.0
C990 C 0.6771 0.66182 0.37268 0.0
C991 C 0.72623 0.6691 0.3806 0.0
C992 C 0.78468 0.71483 0.34498 0.0
H993 H 0.90601 0.68909 0.33464 0.0
H994 H 0.86327 0.68529 0.35266 0.0
H995 H 0.82605 0.74255 0.32999 0.0
H996 H 0.67202 0.67358 0.34248 0.0
H997 H 0.72325 0.68903 0.33253 0.0
H998 H 0.76287 0.64603 0.36463 0.0
C999 C 0.86839 0.69555 0.33805 0.0
C1000 C 0.81248 0.72134 0.33744 0.0
C1001 C 0.89299 0.6979 0.3278 0.0
C1002 C 0.68693 0.67226 0.35328 0.0
C1003 C 0.71623 0.68129 0.34763 0.0
C1004 C 0.77672 0.66731 0.35731 0.0
C1005 C 0.85039 0.70587 0.32937 0.0
C1006 C 0.82236 0.7005 0.33922 0.0
C1007 C 0.73603 0.67958 0.3612 0.0
C1008 C 0.76645 0.68762 0.35474 0.0
H1009 H 0.88842 0.73265 0.2858 0.0
H1010 H 0.84486 0.72758 0.30325 0.0
H1011 H 0.81086 0.65675 0.35089 0.0
H1012 H 0.68996 0.65259 0.40142 0.0
H1013 H 0.74119 0.66764 0.39129 0.0
C1014 C 0.30213 0.20237 0.32325 0.0
C1015 C 0.28678 0.19513 0.30501 0.0
C1016 C 0.30463 0.1806 0.33407 0.0
C1017 C 0.27506 0.09827 0.33693 0.0
H1018 H 0.35225 0.12275 0.36103 0.0
C1019 C 0.32068 0.01891 0.35259 0.0
C1020 C 0.33251 0.02024 0.37164 0.0
C1021 C 0.31233 0.0397 0.34692 0.0
C1022 C 0.33046 0.11572 0.35459 0.0
H1023 H 0.26163 0.15955 0.28385 0.0
H1024 H 0.26696 0.12188 0.3022 0.0
H1025 H 0.34251 0.16035 0.34657 0.0
H1026 H 0.34496 0.04415 0.39973 0.0
H1027 H 0.33114 0.08125 0.38949 0.0
H1028 H 0.26386 0.05338 0.34404 0.0
C1029 C 0.27634 0.14403 0.30858 0.0
C1030 C 0.32477 0.13722 0.34638 0.0
C1031 C 0.27347 0.16567 0.29794 0.0
C1032 C 0.33587 0.04268 0.38495 0.0
C1033 C 0.32803 0.06386 0.37913 0.0
C1034 C 0.28096 0.07676 0.34485 0.0
C1035 C 0.29221 0.15127 0.32668 0.0
C1036 C 0.29716 0.12872 0.33714 0.0
C1037 C 0.31616 0.06245 0.36007 0.0
C1038 C 0.30885 0.0853 0.35348 0.0
H1039 H 0.31238 0.22491 0.3291 0.0
H1040 H 0.31651 0.18685 0.34813 0.0
H1041 H 0.25331 0.09096 0.33037 0.0
H1042 H 0.31774 0.00173 0.34209 0.0
H1043 H 0.30348 0.03839 0.33207 0.0
C1044 C 0.49441 0.55369 0.36275 0.0
C1045 C 0.52413 0.56748 0.35607 0.0
C1046 C 0.47236 0.5279 0.35346 0.0
C1047 C 0.45162 0.48414 0.30778 0.0
H1048 H 0.40663 0.41637 0.34281 0.0
C1049 C 0.37306 0.3647 0.27801 0.0
C1050 C 0.34728 0.3462 0.2891 0.0
C1051 C 0.39432 0.39272 0.28535 0.0
C1052 C 0.41853 0.43515 0.33281 0.0
H1053 H 0.554 0.566 0.33399 0.0
H1054 H 0.5151 0.52098 0.31744 0.0
H1055 H 0.44382 0.46409 0.35678 0.0
H1056 H 0.32269 0.34276 0.31607 0.0
H1057 H 0.35898 0.39197 0.32851 0.0
H1058 H 0.4259 0.45548 0.28382 0.0
C1059 C 0.50904 0.53012 0.32995 0.0
C1060 C 0.43994 0.46243 0.34084 0.0
C1061 C 0.53124 0.55571 0.33945 0.0
C1062 C 0.34261 0.35646 0.30734 0.0
C1063 C 0.36354 0.3846 0.31451 0.0
C1064 C 0.42981 0.45691 0.29973 0.0
C1065 C 0.47956 0.51572 0.33714 0.0
C1066 C 0.45666 0.48712 0.32841 0.0
C1067 C 0.38992 0.4029 0.3038 0.0
C1068 C 0.413 0.43206 0.31217 0.0
H1069 H 0.48832 0.5623 0.37553 0.0
H1070 H 0.4497 0.51724 0.35915 0.0
H1071 H 0.46422 0.503 0.29794 0.0
H1072 H 0.37718 0.35721 0.26391 0.0
H1073 H 0.41452 0.40601 0.2768 0.0
C1074 C 0.63342 0.98204 0.30662 0.0
C1075 C 0.64565 -0.00027 0.28956 0.0
C1076 C 0.60535 0.9755 0.31355 0.0
C1077 C 0.5363 0.97647 0.29909 0.0
H1078 H 0.52572 0.97524 0.35636 0.0
C1079 C 0.43802 0.97952 0.33896 0.0
C1080 C 0.4246 0.95908 0.35467 0.0
C1081 C 0.46356 0.98253 0.32962 0.0
C1082 C 0.5283 0.97525 0.34034 0.0
H1083 H 0.63823 0.02432 0.26622 0.0
H1084 H 0.58955 0.01386 0.27873 0.0
H1085 H 0.57348 0.98501 0.34288 0.0
H1086 H 0.42673 0.9252 0.37258 0.0
H1087 H 0.47162 0.93082 0.35644 0.0
H1088 H 0.49115 0.96769 0.29677 0.0
C1089 C 0.60126 0.00438 0.28651 0.0
C1090 C 0.55561 0.98072 0.33258 0.0
C1091 C 0.62921 0.01055 0.2794 0.0
C1092 C 0.43664 0.94115 0.36052 0.0
C1093 C 0.46235 0.94443 0.35137 0.0
C1094 C 0.50905 0.97139 0.30689 0.0
C1095 C 0.58908 0.98693 0.30376 0.0
C1096 C 0.55993 0.98123 0.31187 0.0
C1097 C 0.47624 0.96542 0.33604 0.0
C1098 C 0.50482 0.97058 0.32758 0.0
H1099 H 0.6455 0.97311 0.3146 0.0
H1100 H 0.5964 0.96142 0.3266 0.0
H1101 H 0.5387 0.97631 0.28307 0.0
H1102 H 0.42912 0.99356 0.33414 0.0
H1103 H 0.474 -0.00104 0.31788 0.0
C1104 C 0.97732 0.62787 0.30826 0.0
C1105 C 0.98678 0.64252 0.28984 0.0
C1106 C 0.98644 0.6079 0.31446 0.0
C1107 C 0.01412 0.55929 0.29643 0.0
H1108 H 0.03726 0.56191 0.35172 0.0
C1109 C 0.01501 0.4611 0.33631 0.0
C1110 C 0.03687 0.46738 0.3509 0.0
C1111 C 0.01333 0.48429 0.32686 0.0
C1112 C 0.03133 0.56114 0.33616 0.0
H1113 H 0.01277 0.64749 0.26328 0.0
H1114 H 0.02867 0.61233 0.27414 0.0
H1115 H 0.02559 0.59918 0.33924 0.0
H1116 H 0.07506 0.50274 0.36638 0.0
H1117 H 0.0723 0.54336 0.34971 0.0
H1118 H 0.01969 0.52106 0.29342 0.0
C1119 C 0.01416 0.61631 0.28373 0.0
C1120 C 0.02427 0.58225 0.32909 0.0
C1121 C 0.00512 0.63644 0.27755 0.0
C1122 C 0.05785 0.49727 0.35527 0.0
C1123 C 0.05619 0.52049 0.3458 0.0
C1124 C 0.02114 0.53808 0.30353 0.0
C1125 C 0.00515 0.6021 0.30235 0.0
C1126 C 0.01503 0.58119 0.30927 0.0
C1127 C 0.03352 0.51421 0.33179 0.0
C1128 C 0.02932 0.5385 0.32356 0.0
H1129 H 0.96314 0.63207 0.31803 0.0
H1130 H 0.97871 0.59686 0.32873 0.0
H1131 H 0.007 0.5579 0.28109 0.0
H1132 H -0.00144 0.43824 0.33263 0.0
H1133 H -0.0046 0.4787 0.31631 0.0
C1134 C 0.4754 0.42797 0.64893 0.0
C1135 C 0.45299 0.43006 0.63842 0.0
C1136 C 0.49621 0.45203 0.66038 0.0
C1137 C 0.50941 0.5231 0.68334 0.0
H1138 H 0.5929 0.54473 0.68078 0.0
C1139 C 0.60655 0.64103 0.69951 0.0
C1140 C 0.63057 0.64381 0.71097 0.0
C1141 C 0.58366 0.6129 0.6937 0.0
C1142 C 0.5696 0.53866 0.68188 0.0
H1143 H 0.43477 0.45882 0.63146 0.0
H1144 H 0.47145 0.50098 0.65088 0.0
H1145 H 0.55518 0.49908 0.66452 0.0
H1146 H 0.64941 0.61953 0.72562 0.0
H1147 H 0.60942 0.57012 0.71511 0.0
H1148 H 0.52414 0.56346 0.69995 0.0
C1149 C 0.47261 0.48061 0.6508 0.0
C1150 C 0.54798 0.51251 0.67261 0.0
C1151 C 0.45172 0.45653 0.63952 0.0
C1152 C 0.63109 0.61795 0.71681 0.0
C1153 C 0.60835 0.58977 0.71075 0.0
C1154 C 0.53105 0.54935 0.69242 0.0
C1155 C 0.49508 0.47865 0.6614 0.0
C1156 C 0.5177 0.50475 0.67289 0.0
C1157 C 0.58455 0.58706 0.69905 0.0
C1158 C 0.56138 0.55763 0.69146 0.0
H1159 H 0.47676 0.40772 0.6484 0.0
H1160 H 0.51305 0.44969 0.66852 0.0
H1161 H 0.48621 0.51741 0.68424 0.0
H1162 H 0.60559 0.66062 0.69483 0.0
H1163 H 0.56573 0.61143 0.68449 0.0
C1164 C 0.53734 -0.00079 0.63865 0.0
C1165 C 0.56232 0.02782 0.63616 0.0
C1166 C 0.513 0.99525 0.64997 0.0
C1167 C 0.47618 0.03555 0.66884 0.0
H1168 H 0.43272 0.96427 0.70127 0.0
C1169 C 0.37056 0.01082 0.71321 0.0
C1170 C 0.34598 0.98224 0.70967 0.0
C1171 C 0.39922 0.01774 0.70719 0.0
C1172 C 0.44468 0.98428 0.69229 0.0
H1173 H 0.58167 0.07473 0.64363 0.0
H1174 H 0.53915 0.06777 0.66369 0.0
H1175 H 0.47913 0.9744 0.68503 0.0
H1176 H 0.33211 0.93815 0.69782 0.0
H1177 H 0.38214 0.95016 0.68743 0.0
H1178 H 0.44145 0.04517 0.67595 0.0
C1179 C 0.53824 0.04845 0.65667 0.0
C1180 C 0.47116 0.99004 0.68293 0.0
C1181 C 0.56259 0.05244 0.64524 0.0
C1182 C 0.35067 0.96038 0.7007 0.0
C1183 C 0.37931 0.9672 0.69487 0.0
C1184 C 0.44979 0.02988 0.67832 0.0
C1185 C 0.51318 0.01979 0.65915 0.0
C1186 C 0.48683 0.01537 0.67073 0.0
C1187 C 0.40377 -0.00392 0.69776 0.0
C1188 C 0.43347 0.00386 0.68976 0.0
H1189 H 0.53647 0.97984 0.63176 0.0
H1190 H 0.49381 0.97297 0.65123 0.0
H1191 H 0.48754 0.05509 0.65939 0.0
H1192 H 0.36755 0.02809 0.72012 0.0
H1193 H 0.41776 0.04011 0.70971 0.0
C1194 C 0.00632 0.37523 0.71765 0.0
C1195 C -0.00289 0.34964 0.70584 0.0
C1196 C -0.00034 0.39725 0.71187 0.0
C1197 C 0.94851 0.41048 0.68162 0.0
H1198 H 0.01482 0.49151 0.67625 0.0
C1199 C 0.94024 0.49846 0.63404 0.0
C1200 C 0.95666 0.52863 0.63964 0.0
C1201 C 0.94327 0.47684 0.64459 0.0
C1202 C -0.00411 0.46919 0.67805 0.0
H1203 H 0.97311 0.32651 0.67911 0.0
H1204 H 0.96106 0.36481 0.66919 0.0
H1205 H 0.02334 0.45304 0.69059 0.0
H1206 H 0.98824 0.55986 0.66105 0.0
H1207 H 0.99288 0.52196 0.67993 0.0
H1208 H 0.92095 0.42644 0.6692 0.0
C1209 C 0.9735 0.36785 0.68284 0.0
C1210 C 0.00085 0.44716 0.6862 0.0
C1211 C 0.98055 0.34609 0.68844 0.0
C1212 C 0.97549 0.53674 0.65634 0.0
C1213 C 0.97826 0.51505 0.66707 0.0
C1214 C 0.94344 0.43258 0.67373 0.0
C1215 C 0.98325 0.39374 0.6944 0.0
C1216 C 0.97733 0.41753 0.68767 0.0
C1217 C 0.96252 0.48488 0.66114 0.0
C1218 C 0.96721 0.46207 0.67144 0.0
H1219 H 0.01913 0.37848 0.73114 0.0
H1220 H 0.00732 0.41701 0.72103 0.0
H1221 H 0.92996 0.38781 0.68284 0.0
H1222 H 0.92566 0.49161 0.62115 0.0
H1223 H 0.93121 0.45396 0.63934 0.0
C1224 C 0.16241 0.88274 0.69395 0.0
C1225 C 0.19103 0.9001 0.68574 0.0
C1226 C 0.14007 0.85876 0.68331 0.0
C1227 C 0.13097 0.80689 0.64255 0.0
H1228 H 0.04699 0.78126 0.64972 0.0
C1229 C 0.03538 0.70056 0.60568 0.0
C1230 C 0.01438 0.68078 0.61951 0.0
C1231 C 0.05619 0.72978 0.61131 0.0
C1232 C 0.07039 0.78829 0.64754 0.0
H1233 H 0.2185 0.90704 0.65966 0.0
H1234 H 0.17919 0.86576 0.64075 0.0
H1235 H 0.08498 0.82906 0.66351 0.0
H1236 H -0.00202 0.6761 0.64979 0.0
H1237 H 0.03402 0.72728 0.65949 0.0
H1238 H 0.11616 0.76597 0.62657 0.0
C1239 C 0.17417 0.87005 0.65563 0.0
C1240 C 0.09215 0.81553 0.65552 0.0
C1241 C 0.19665 0.8938 0.66641 0.0
C1242 C 0.01403 0.69087 0.63887 0.0
C1243 C 0.03446 0.72017 0.64437 0.0
C1244 C 0.1092 0.77986 0.63434 0.0
C1245 C 0.14576 0.85189 0.6641 0.0
C1246 C 0.12271 0.82481 0.65357 0.0
C1247 C 0.05589 0.73977 0.63071 0.0
C1248 C 0.07876 0.77002 0.63719 0.0
H1249 H 0.15752 0.88705 0.70888 0.0
H1250 H 0.11867 0.84501 0.69048 0.0
H1251 H 0.15423 0.81303 0.64098 0.0
H1252 H 0.03607 0.69329 0.59066 0.0
H1253 H 0.07252 0.74457 0.60053 0.0
C1254 C 0.11396 0.33084 0.68066 0.0
C1255 C 0.08752 0.30299 0.68063 0.0
C1256 C 0.13778 0.33585 0.66835 0.0
C1257 C 0.16925 0.2948 0.64314 0.0
H1258 H 0.22325 0.37276 0.6206 0.0
C1259 C 0.27914 0.32044 0.60428 0.0
C1260 C 0.3043 0.3461 0.61173 0.0
C1261 C 0.25037 0.31501 0.60861 0.0
C1262 C 0.20829 0.35085 0.62676 0.0
H1263 H 0.06466 0.25894 0.66717 0.0
H1264 H 0.10618 0.26784 0.64541 0.0
H1265 H 0.17621 0.36335 0.63553 0.0
H1266 H 0.31929 0.38676 0.62883 0.0
H1267 H 0.26918 0.37732 0.63635 0.0
H1268 H 0.20167 0.28255 0.6348 0.0
C1269 C 0.1087 0.28562 0.65519 0.0
C1270 C 0.18143 0.34548 0.63535 0.0
C1271 C 0.08491 0.28057 0.66759 0.0
C1272 C 0.30027 0.36675 0.62294 0.0
C1273 C 0.27159 0.36146 0.62711 0.0
C1274 C 0.19602 0.30013 0.63445 0.0
C1275 C 0.13558 0.31317 0.65567 0.0
C1276 C 0.16201 0.31765 0.64413 0.0
C1277 C 0.24635 0.33532 0.62027 0.0
C1278 C 0.21615 0.32844 0.62667 0.0
H1279 H 0.11658 0.34852 0.69059 0.0
H1280 H 0.15832 0.35717 0.66932 0.0
H1281 H 0.15498 0.27324 0.64998 0.0
H1282 H 0.28166 0.30419 0.59556 0.0
H1283 H 0.23126 0.29476 0.60307 0.0
C1284 C 0.66701 0.79571 0.69681 0.0
C1285 C 0.69306 0.79402 0.69397 0.0
C1286 C 0.66396 0.8183 0.68772 0.0
C1287 C 0.68766 0.86912 0.64565 0.0
H1288 H 0.66309 0.9146 0.67871 0.0
C1289 C 0.67586 0.96818 0.61555 0.0
C1290 C 0.65181 0.97065 0.62305 0.0
C1291 C 0.6826 0.94726 0.62364 0.0
C1292 C 0.6696 0.90188 0.66921 0.0
H1293 H 0.73611 0.81414 0.67914 0.0
H1294 H 0.73044 0.85357 0.66285 0.0
H1295 H 0.67171 0.87671 0.69386 0.0
H1296 H 0.61525 0.95262 0.64427 0.0
H1297 H 0.62634 0.91566 0.65792 0.0
H1298 H 0.68466 0.89364 0.62087 0.0
C1299 C 0.71257 0.83745 0.67224 0.0
C1300 C 0.67467 0.88032 0.67792 0.0
C1301 C 0.71583 0.81504 0.6816 0.0
C1302 C 0.63412 0.95139 0.63834 0.0
C1303 C 0.64064 0.93037 0.64626 0.0
C1304 C 0.68225 0.89053 0.63685 0.0
C1305 C 0.68672 0.8394 0.67542 0.0
C1306 C 0.68336 0.86351 0.6662 0.0
C1307 C 0.66524 0.92837 0.63926 0.0
C1308 C 0.67273 0.90683 0.64852 0.0
H1309 H 0.64912 0.7798 0.70628 0.0
H1310 H 0.64369 0.81921 0.69023 0.0
H1311 H 0.69422 0.85627 0.63632 0.0
H1312 H 0.68989 0.98287 0.6038 0.0
H1313 H 0.70181 0.94642 0.61801 0.0
loop_
_geom_bond_atom_site_label_1
_geom_bond_atom_site_label_2
_geom_bond_distance
_geom_bond_site_symmetry_2
_ccdc_geom_bond_type
In0 O1 2.294 . S
In0 O2 2.326 . S
In0 O6 2.266 . S
In0 O7 2.326 . S
In0 O8 2.266 . S
In0 O9 2.326 . S
In0 O11 2.294 . S
In0 O12 2.326 . S
O1 In0 2.294 . S
O1 C10 1.240 . S
O2 In0 2.326 . S
O2 C10 1.252 . S
C3 O6 1.252 . S
C3 O7 1.260 . S
C4 O11 1.240 . S
C4 O12 1.252 . S
C5 O8 1.252 . S
C5 O9 1.260 . S
O6 In0 2.266 . S
O6 C3 1.252 . S
O7 In0 2.326 . S
O7 C3 1.260 . S
O8 In0 2.266 . S
O8 C5 1.252 . S
O9 In0 2.326 . S
O9 C5 1.260 . S
C10 O1 1.240 . S
C10 O2 1.252 . S
O11 In0 2.294 . S
O11 C4 1.240 . S
O12 In0 2.326 . S
O12 C4 1.252 . S
In13 O14 2.294 . S
In13 O15 2.326 . S
In13 O19 2.266 . S
In13 O20 2.326 . S
In13 O21 2.266 . S
In13 O22 2.326 . S
In13 O24 2.294 . S
In13 O25 2.326 . S
O14 In13 2.294 . S
O14 C23 1.240 . S
O15 In13 2.326 . S
O15 C23 1.252 . S
C16 O19 1.252 . S
C16 O20 1.260 . S
C17 O24 1.240 . S
C17 O25 1.252 . S
C18 O21 1.252 . S
C18 O22 1.260 . S
O19 In13 2.266 . S
O19 C16 1.252 . S
O20 In13 2.326 . S
O20 C16 1.260 . S
O21 In13 2.266 . S
O21 C18 1.252 . S
O22 In13 2.326 . S
O22 C18 1.260 . S
C23 O14 1.240 . S
C23 O15 1.252 . S
O24 In13 2.294 . S
O24 C17 1.240 . S
O25 In13 2.326 . S
O25 C17 1.252 . S
In26 O27 2.294 . S
In26 O28 2.326 . S
In26 O32 2.266 . S
In26 O33 2.326 . S
In26 O34 2.266 . S
In26 O35 2.326 . S
In26 O37 2.294 . S
In26 O38 2.326 . S
O27 In26 2.294 . S
O27 C36 1.240 . S
O28 In26 2.326 . S
O28 C36 1.252 . S
C29 O32 1.252 . S
C29 O33 1.260 . S
C30 O37 1.240 . S
C30 O38 1.252 . S
C31 O34 1.252 . S
C31 O35 1.260 . S
O32 In26 2.266 . S
O32 C29 1.252 . S
O33 In26 2.326 . S
O33 C29 1.260 . S
O34 In26 2.266 . S
O34 C31 1.252 . S
O35 In26 2.326 . S
O35 C31 1.260 . S
C36 O27 1.240 . S
C36 O28 1.252 . S
O37 In26 2.294 . S
O37 C30 1.240 . S
O38 In26 2.326 . S
O38 C30 1.252 . S
In39 O40 2.294 . S
In39 O41 2.326 . S
In39 O45 2.266 . S
In39 O46 2.326 . S
In39 O47 2.266 . S
In39 O48 2.326 . S
In39 O50 2.294 . S
In39 O51 2.326 . S
O40 In39 2.294 . S
O40 C49 1.240 . S
O41 In39 2.326 . S
O41 C49 1.252 . S
C42 O45 1.252 . S
C42 O46 1.260 . S
C43 O50 1.240 . S
C43 O51 1.252 . S
C44 O47 1.252 . S
C44 O48 1.260 . S
O45 In39 2.266 . S
O45 C42 1.252 . S
O46 In39 2.326 . S
O46 C42 1.260 . S
O47 In39 2.266 . S
O47 C44 1.252 . S
O48 In39 2.326 . S
O48 C44 1.260 . S
C49 O40 1.240 . S
C49 O41 1.252 . S
O50 In39 2.294 . S
O50 C43 1.240 . S
O51 In39 2.326 . S
O51 C43 1.252 . S
In52 O53 2.294 . S
In52 O54 2.326 . S
In52 O58 2.266 . S
In52 O59 2.326 . S
In52 O60 2.266 . S
In52 O61 2.326 . S
In52 O63 2.294 . S
In52 O64 2.326 . S
O53 In52 2.294 . S
O53 C62 1.240 . S
O54 In52 2.326 . S
O54 C62 1.252 . S
C55 O58 1.252 . S
C55 O59 1.260 . S
C56 O63 1.240 . S
C56 O64 1.252 . S
C57 O60 1.252 . S
C57 O61 1.260 . S
O58 In52 2.266 . S
O58 C55 1.252 . S
O59 In52 2.326 . S
O59 C55 1.260 . S
O60 In52 2.266 . S
O60 C57 1.252 . S
O61 In52 2.326 . S
O61 C57 1.260 . S
C62 O53 1.240 . S
C62 O54 1.252 . S
O63 In52 2.294 . S
O63 C56 1.240 . S
O64 In52 2.326 . S
O64 C56 1.252 . S
In65 O66 2.294 . S
In65 O67 2.326 . S
In65 O71 2.266 . S
In65 O72 2.326 . S
In65 O73 2.266 . S
In65 O74 2.326 . S
In65 O76 2.294 . S
In65 O77 2.326 . S
O66 In65 2.294 . S
O66 C75 1.240 . S
O67 In65 2.326 . S
O67 C75 1.252 . S
C68 O71 1.252 . S
C68 O72 1.260 . S
C69 O76 1.240 . S
C69 O77 1.252 . S
C70 O73 1.252 . S
C70 O74 1.260 . S
O71 In65 2.266 . S
O71 C68 1.252 . S
O72 In65 2.326 . S
O72 C68 1.260 . S
O73 In65 2.266 . S
O73 C70 1.252 . S
O74 In65 2.326 . S
O74 C70 1.260 . S
C75 O66 1.240 . S
C75 O67 1.252 . S
O76 In65 2.294 . S
O76 C69 1.240 . S
O77 In65 2.326 . S
O77 C69 1.252 . S
In78 O79 2.294 . S
In78 O80 2.326 . S
In78 O84 2.266 1_455 S
In78 O85 2.326 . S
In78 O86 2.266 . S
In78 O87 2.326 . S
In78 O89 2.294 . S
In78 O90 2.326 1_455 S
O79 In78 2.294 . S
O79 C88 1.240 . S
O80 In78 2.326 . S
O80 C88 1.252 . S
C81 O84 1.252 . S
C81 O85 1.260 1_655 S
C82 O89 1.240 . S
C82 O90 1.252 1_455 S
C83 O86 1.252 . S
C83 O87 1.260 . S
O84 In78 2.266 1_655 S
O84 C81 1.252 . S
O85 In78 2.326 . S
O85 C81 1.260 1_455 S
O86 In78 2.266 . S
O86 C83 1.252 . S
O87 In78 2.326 . S
O87 C83 1.260 . S
C88 O79 1.240 . S
C88 O80 1.252 . S
O89 In78 2.294 . S
O89 C82 1.240 . S
O90 In78 2.326 1_655 S
O90 C82 1.252 1_655 S
In91 O92 2.294 . S
In91 O93 2.326 . S
In91 O97 2.266 . S
In91 O98 2.326 . S
In91 O99 2.266 . S
In91 O100 2.326 . S
In91 O102 2.294 . S
In91 O103 2.326 . S
O92 In91 2.294 . S
O92 C101 1.240 . S
O93 In91 2.326 . S
O93 C101 1.252 . S
C94 O97 1.252 . S
C94 O98 1.260 . S
C95 O102 1.240 . S
C95 O103 1.252 . S
C96 O99 1.252 . S
C96 O100 1.260 . S
O97 In91 2.266 . S
O97 C94 1.252 . S
O98 In91 2.326 . S
O98 C94 1.260 . S
O99 In91 2.266 . S
O99 C96 1.252 . S
O100 In91 2.326 . S
O100 C96 1.260 . S
C101 O92 1.240 . S
C101 O93 1.252 . S
O102 In91 2.294 . S
O102 C95 1.240 . S
O103 In91 2.326 . S
O103 C95 1.252 . S
In104 O105 2.294 . S
In104 O106 2.326 1_565 S
In104 O110 2.266 . S
In104 O111 2.326 . S
In104 O112 2.266 1_565 S
In104 O113 2.326 . S
In104 O115 2.294 . S
In104 O116 2.326 . S
O105 In104 2.294 . S
O105 C114 1.240 . S
O106 In104 2.326 1_545 S
O106 C114 1.252 1_545 S
C107 O110 1.252 . S
C107 O111 1.260 . S
C108 O115 1.240 . S
C108 O116 1.252 . S
C109 O112 1.252 . S
C109 O113 1.260 1_545 S
O110 In104 2.266 . S
O110 C107 1.252 . S
O111 In104 2.326 . S
O111 C107 1.260 . S
O112 In104 2.266 1_545 S
O112 C109 1.252 . S
O113 In104 2.326 . S
O113 C109 1.260 1_565 S
C114 O105 1.240 . S
C114 O106 1.252 1_565 S
O115 In104 2.294 . S
O115 C108 1.240 . S
O116 In104 2.326 . S
O116 C108 1.252 . S
In117 O118 2.294 . S
In117 O119 2.326 . S
In117 O123 2.266 . S
In117 O124 2.326 . S
In117 O125 2.266 . S
In117 O126 2.326 . S
In117 O128 2.294 . S
In117 O129 2.326 . S
O118 In117 2.294 . S
O118 C127 1.240 . S
O119 In117 2.326 . S
O119 C127 1.252 . S
C120 O123 1.252 . S
C120 O124 1.260 . S
C121 O128 1.240 . S
C121 O129 1.252 . S
C122 O125 1.252 . S
C122 O126 1.260 . S
O123 In117 2.266 . S
O123 C120 1.252 . S
O124 In117 2.326 . S
O124 C120 1.260 . S
O125 In117 2.266 . S
O125 C122 1.252 . S
O126 In117 2.326 . S
O126 C122 1.260 . S
C127 O118 1.240 . S
C127 O119 1.252 . S
O128 In117 2.294 . S
O128 C121 1.240 . S
O129 In117 2.326 . S
O129 C121 1.252 . S
In130 O131 2.294 . S
In130 O132 2.326 . S
In130 O136 2.266 . S
In130 O137 2.326 . S
In130 O138 2.266 . S
In130 O139 2.326 1_545 S
In130 O141 2.294 . S
In130 O142 2.326 . S
O131 In130 2.294 . S
O131 C140 1.240 . S
O132 In130 2.326 . S
O132 C140 1.252 . S
C133 O136 1.252 . S
C133 O137 1.260 . S
C134 O141 1.240 . S
C134 O142 1.252 . S
C135 O138 1.252 1_565 S
C135 O139 1.260 . S
O136 In130 2.266 . S
O136 C133 1.252 . S
O137 In130 2.326 . S
O137 C133 1.260 . S
O138 In130 2.266 . S
O138 C135 1.252 1_545 S
O139 In130 2.326 1_565 S
O139 C135 1.260 . S
C140 O131 1.240 . S
C140 O132 1.252 . S
O141 In130 2.294 . S
O141 C134 1.240 . S
O142 In130 2.326 . S
O142 C134 1.252 . S
In143 O144 2.294 . S
In143 O145 2.326 . S
In143 O149 2.266 . S
In143 O150 2.326 1_655 S
In143 O151 2.266 . S
In143 O152 2.326 . S
In143 O154 2.294 . S
In143 O155 2.326 . S
O144 In143 2.294 . S
O144 C153 1.240 . S
O145 In143 2.326 . S
O145 C153 1.252 . S
C146 O149 1.252 1_455 S
C146 O150 1.260 . S
C147 O154 1.240 . S
C147 O155 1.252 . S
C148 O151 1.252 . S
C148 O152 1.260 . S
O149 In143 2.266 . S
O149 C146 1.252 1_655 S
O150 In143 2.326 1_455 S
O150 C146 1.260 . S
O151 In143 2.266 . S
O151 C148 1.252 . S
O152 In143 2.326 . S
O152 C148 1.260 . S
C153 O144 1.240 . S
C153 O145 1.252 . S
O154 In143 2.294 . S
O154 C147 1.240 . S
O155 In143 2.326 . S
O155 C147 1.252 . S
In156 O157 2.294 . S
In156 O158 2.326 . S
In156 O162 2.266 . S
In156 O163 2.326 . S
In156 O164 2.266 . S
In156 O165 2.326 . S
In156 O167 2.294 . S
In156 O168 2.326 . S
O157 In156 2.294 . S
O157 C166 1.240 . S
O158 In156 2.326 . S
O158 C166 1.252 . S
C159 O162 1.252 . S
C159 O163 1.260 . S
C160 O167 1.240 . S
C160 O168 1.252 . S
C161 O164 1.252 . S
C161 O165 1.260 . S
O162 In156 2.266 . S
O162 C159 1.252 . S
O163 In156 2.326 . S
O163 C159 1.260 . S
O164 In156 2.266 . S
O164 C161 1.252 . S
O165 In156 2.326 . S
O165 C161 1.260 . S
C166 O157 1.240 . S
C166 O158 1.252 . S
O167 In156 2.294 . S
O167 C160 1.240 . S
O168 In156 2.326 . S
O168 C160 1.252 . S
In169 O170 2.294 . S
In169 O171 2.326 . S
In169 O175 2.266 . S
In169 O176 2.326 . S
In169 O177 2.266 . S
In169 O178 2.326 1_565 S
In169 O180 2.294 . S
In169 O181 2.326 . S
O170 In169 2.294 . S
O170 C179 1.240 . S
O171 In169 2.326 . S
O171 C179 1.252 . S
C172 O175 1.252 . S
C172 O176 1.260 . S
C173 O180 1.240 . S
C173 O181 1.252 . S
C174 O177 1.252 1_545 S
C174 O178 1.260 . S
O175 In169 2.266 . S
O175 C172 1.252 . S
O176 In169 2.326 . S
O176 C172 1.260 . S
O177 In169 2.266 . S
O177 C174 1.252 1_565 S
O178 In169 2.326 1_545 S
O178 C174 1.260 . S
C179 O170 1.240 . S
C179 O171 1.252 . S
O180 In169 2.294 . S
O180 C173 1.240 . S
O181 In169 2.326 . S
O181 C173 1.252 . S
In182 O183 2.294 . S
In182 O184 2.326 . S
In182 O188 2.266 . S
In182 O189 2.326 . S
In182 O190 2.266 . S
In182 O191 2.326 1_455 S
In182 O193 2.294 . S
In182 O194 2.326 . S
O183 In182 2.294 . S
O183 C192 1.240 . S
O184 In182 2.326 . S
O184 C192 1.252 . S
C185 O188 1.252 . S
C185 O189 1.260 . S
C186 O193 1.240 . S
C186 O194 1.252 . S
C187 O190 1.252 1_655 S
C187 O191 1.260 . S
O188 In182 2.266 . S
O188 C185 1.252 . S
O189 In182 2.326 . S
O189 C185 1.260 . S
O190 In182 2.266 . S
O190 C187 1.252 1_455 S
O191 In182 2.326 1_655 S
O191 C187 1.260 . S
C192 O183 1.240 . S
C192 O184 1.252 . S
O193 In182 2.294 . S
O193 C186 1.240 . S
O194 In182 2.326 . S
O194 C186 1.252 . S
In195 O196 2.294 . S
In195 O197 2.326 1_655 S
In195 O201 2.266 . S
In195 O202 2.326 . S
In195 O203 2.266 1_655 S
In195 O204 2.326 . S
In195 O206 2.294 . S
In195 O207 2.326 . S
O196 In195 2.294 . S
O196 C205 1.240 . S
O197 In195 2.326 1_455 S
O197 C205 1.252 1_455 S
C198 O201 1.252 . S
C198 O202 1.260 . S
C199 O206 1.240 . S
C199 O207 1.252 . S
C200 O203 1.252 . S
C200 O204 1.260 1_455 S
O201 In195 2.266 . S
O201 C198 1.252 . S
O202 In195 2.326 . S
O202 C198 1.260 . S
O203 In195 2.266 1_455 S
O203 C200 1.252 . S
O204 In195 2.326 . S
O204 C200 1.260 1_655 S
C205 O196 1.240 . S
C205 O197 1.252 1_655 S
O206 In195 2.294 . S
O206 C199 1.240 . S
O207 In195 2.326 . S
O207 C199 1.252 . S
In208 O209 2.294 . S
In208 O210 2.326 . S
In208 O214 2.266 . S
In208 O215 2.326 . S
In208 O216 2.266 . S
In208 O217 2.326 . S
In208 O219 2.294 . S
In208 O220 2.326 . S
O209 In208 2.294 . S
O209 C218 1.240 . S
O210 In208 2.326 . S
O210 C218 1.252 . S
C211 O214 1.252 . S
C211 O215 1.260 . S
C212 O219 1.240 . S
C212 O220 1.252 . S
C213 O216 1.252 . S
C213 O217 1.260 . S
O214 In208 2.266 . S
O214 C211 1.252 . S
O215 In208 2.326 . S
O215 C211 1.260 . S
O216 In208 2.266 . S
O216 C213 1.252 . S
O217 In208 2.326 . S
O217 C213 1.260 . S
C218 O209 1.240 . S
C218 O210 1.252 . S
O219 In208 2.294 . S
O219 C212 1.240 . S
O220 In208 2.326 . S
O220 C212 1.252 . S
In221 O222 2.294 . S
In221 O223 2.326 1_545 S
In221 O227 2.266 . S
In221 O228 2.326 . S
In221 O229 2.266 1_545 S
In221 O230 2.326 . S
In221 O232 2.294 . S
In221 O233 2.326 . S
O222 In221 2.294 . S
O222 C231 1.240 . S
O223 In221 2.326 1_565 S
O223 C231 1.252 1_565 S
C224 O227 1.252 . S
C224 O228 1.260 . S
C225 O232 1.240 . S
C225 O233 1.252 . S
C226 O229 1.252 . S
C226 O230 1.260 1_565 S
O227 In221 2.266 . S
O227 C224 1.252 . S
O228 In221 2.326 . S
O228 C224 1.260 . S
O229 In221 2.266 1_565 S
O229 C226 1.252 . S
O230 In221 2.326 . S
O230 C226 1.260 1_545 S
C231 O222 1.240 . S
C231 O223 1.252 1_545 S
O232 In221 2.294 . S
O232 C225 1.240 . S
O233 In221 2.326 . S
O233 C225 1.252 . S
C234 C235 1.349 . S
C234 C236 1.327 . S
C234 H259 0.950 . S
C235 C234 1.349 . S
C235 C251 1.349 . S
C236 C234 1.327 . S
C236 C255 1.429 . S
C236 H260 0.950 . S
C237 C254 1.574 1_554 S
C237 C256 1.368 1_565 S
C237 H261 0.949 . S
H238 C242 0.949 . S
C239 C240 1.349 . S
C239 C241 1.327 . S
C239 H262 0.950 . S
C240 C239 1.349 . S
C240 C252 1.349 . S
C241 C239 1.327 . S
C241 C257 1.429 . S
C241 H263 0.950 . S
C242 H238 0.949 . S
C242 C250 1.574 1_556 S
C242 C258 1.368 1_545 S
H243 C251 0.950 1_565 S
H244 C249 0.989 . S
H245 C250 0.949 . S
H246 C252 0.950 1_545 S
H247 C253 0.989 . S
H248 C254 0.949 . S
C249 H244 0.989 . S
C249 C251 1.297 1_565 S
C249 C255 1.421 1_565 S
C250 C242 1.574 1_554 S
C250 H245 0.949 . S
C250 C256 1.368 . S
C251 C235 1.349 . S
C251 H243 0.950 1_545 S
C251 C249 1.297 1_545 S
C252 C240 1.349 . S
C252 H246 0.950 1_565 S
C252 C253 1.297 1_565 S
C253 H247 0.989 . S
C253 C252 1.297 1_545 S
C253 C257 1.421 1_545 S
C254 C237 1.574 1_556 S
C254 H248 0.949 . S
C254 C258 1.368 . S
C255 C236 1.429 . S
C255 C249 1.421 1_545 S
C255 C256 1.523 . S
C256 C237 1.368 1_545 S
C256 C250 1.368 . S
C256 C255 1.523 . S
C257 C241 1.429 . S
C257 C253 1.421 1_565 S
C257 C258 1.523 . S
C258 C242 1.368 1_565 S
C258 C254 1.368 . S
C258 C257 1.523 . S
H259 C234 0.950 . S
H260 C236 0.950 . S
H261 C237 0.949 . S
H262 C239 0.950 . S
H263 C241 0.950 . S
C264 C265 1.349 . S
C264 C266 1.327 . S
C264 H289 0.950 . S
C265 C264 1.349 . S
C265 C281 1.349 . S
C266 C264 1.327 . S
C266 C285 1.429 . S
C266 H290 0.950 . S
C267 C284 1.574 . S
C267 C286 1.368 1_455 S
C267 H291 0.949 . S
H268 C272 0.949 . S
C269 C270 1.349 . S
C269 C271 1.327 . S
C269 H292 0.950 . S
C270 C269 1.349 . S
C270 C282 1.349 . S
C271 C269 1.327 . S
C271 C287 1.429 . S
C271 H293 0.950 . S
C272 H268 0.949 . S
C272 C280 1.574 . S
C272 C288 1.368 1_655 S
H273 C281 0.950 1_455 S
H274 C279 0.950 1_455 S
H275 C280 0.949 . S
H276 C282 0.950 1_655 S
H277 C283 0.950 1_655 S
H278 C284 0.949 . S
C279 H274 0.950 1_655 S
C279 C281 1.327 . S
C279 C285 1.429 . S
C280 C272 1.574 . S
C280 H275 0.949 . S
C280 C286 1.368 1_556 S
C281 C265 1.349 . S
C281 H273 0.950 1_655 S
C281 C279 1.327 . S
C282 C270 1.349 . S
C282 H276 0.950 1_455 S
C282 C283 1.327 . S
C283 H277 0.950 1_455 S
C283 C282 1.327 . S
C283 C287 1.429 . S
C284 C267 1.574 . S
C284 H278 0.949 . S
C284 C288 1.368 1_554 S
C285 C266 1.429 . S
C285 C279 1.429 . S
C285 C286 1.523 . S
C286 C267 1.368 1_655 S
C286 C280 1.368 1_554 S
C286 C285 1.523 . S
C287 C271 1.429 . S
C287 C283 1.429 . S
C287 C288 1.523 . S
C288 C272 1.368 1_455 S
C288 C284 1.368 1_556 S
C288 C287 1.523 . S
H289 C264 0.950 . S
H290 C266 0.950 . S
H291 C267 0.949 . S
H292 C269 0.950 . S
H293 C271 0.950 . S
C294 C295 1.349 . S
C294 C296 1.327 . S
C294 H319 0.950 . S
C295 C294 1.349 . S
C295 C311 1.349 . S
C296 C294 1.327 . S
C296 C315 1.429 . S
C296 H320 0.950 1_556 S
C297 C314 1.574 . S
C297 C316 1.368 . S
C297 H321 0.949 . S
H298 C302 0.949 . S
C299 C300 1.349 . S
C299 C301 1.327 . S
C299 H322 0.950 . S
C300 C299 1.349 . S
C300 C312 1.349 . S
C301 C299 1.327 . S
C301 C317 1.429 . S
C301 H323 0.950 1_554 S
C302 H298 0.949 . S
C302 C310 1.574 . S
C302 C318 1.368 . S
H303 C311 0.950 . S
H304 C309 0.950 . S
H305 C310 0.949 . S
H306 C312 0.950 . S
H307 C313 0.950 . S
H308 C314 0.949 . S
C309 H304 0.950 . S
C309 C311 1.327 . S
C309 C315 1.429 . S
C310 C302 1.574 . S
C310 H305 0.949 . S
C310 C316 1.368 1_554 S
C311 C295 1.349 . S
C311 H303 0.950 . S
C311 C309 1.327 . S
C312 C300 1.349 . S
C312 H306 0.950 . S
C312 C313 1.327 . S
C313 H307 0.950 . S
C313 C312 1.327 . S
C313 C317 1.429 . S
C314 C297 1.574 . S
C314 H308 0.949 . S
C314 C318 1.368 1_556 S
C315 C296 1.429 . S
C315 C309 1.429 . S
C315 C316 1.523 . S
C316 C297 1.368 . S
C316 C310 1.368 1_556 S
C316 C315 1.523 . S
C317 C301 1.429 . S
C317 C313 1.429 . S
C317 C318 1.523 . S
C318 C302 1.368 . S
C318 C314 1.368 1_554 S
C318 C317 1.523 . S
H319 C294 0.950 . S
H320 C296 0.950 1_554 S
H321 C297 0.949 . S
H322 C299 0.950 . S
H323 C301 0.950 1_556 S
C324 C325 1.349 . S
C324 C326 1.327 . S
C324 H349 0.950 . S
C325 C324 1.349 . S
C325 C341 1.349 . S
C326 C324 1.327 . S
C326 C345 1.429 . S
C326 H350 0.950 . S
C327 C344 1.574 . S
C327 C346 1.368 . S
C327 H351 0.949 . S
H328 C332 0.949 . S
C329 C330 1.349 . S
C329 C331 1.327 . S
C329 H352 0.950 . S
C330 C329 1.349 . S
C330 C342 1.349 . S
C331 C329 1.327 . S
C331 C347 1.429 . S
C331 H353 0.950 . S
C332 H328 0.949 . S
C332 C340 1.574 . S
C332 C348 1.368 . S
H333 C341 0.950 . S
H334 C339 0.950 . S
H335 C340 0.949 . S
H336 C342 0.950 . S
H337 C343 0.950 . S
H338 C344 0.949 . S
C339 H334 0.950 . S
C339 C341 1.327 . S
C339 C345 1.429 . S
C340 C332 1.574 . S
C340 H335 0.949 . S
C340 C346 1.368 . S
C341 C325 1.349 . S
C341 H333 0.950 . S
C341 C339 1.327 . S
C342 C330 1.349 . S
C342 H336 0.950 . S
C342 C343 1.327 . S
C343 H337 0.950 . S
C343 C342 1.327 . S
C343 C347 1.429 . S
C344 C327 1.574 . S
C344 H338 0.949 . S
C344 C348 1.368 . S
C345 C326 1.429 . S
C345 C339 1.429 . S
C345 C346 1.523 . S
C346 C327 1.368 . S
C346 C340 1.368 . S
C346 C345 1.523 . S
C347 C331 1.429 . S
C347 C343 1.429 . S
C347 C348 1.523 . S
C348 C332 1.368 . S
C348 C344 1.368 . S
C348 C347 1.523 . S
H349 C324 0.950 . S
H350 C326 0.950 . S
H351 C327 0.949 . S
H352 C329 0.950 . S
H353 C331 0.950 . S
C354 C355 1.349 . S
C354 C356 1.327 . S
C354 H379 0.950 . S
C355 C354 1.349 . S
C355 C371 1.349 . S
C356 C354 1.327 . S
C356 C375 1.429 . S
C356 H380 0.950 . S
C357 C374 1.574 . S
C357 C376 1.368 . S
C357 H381 0.949 . S
H358 C362 0.949 . S
C359 C360 1.349 . S
C359 C361 1.327 . S
C359 H382 0.950 . S
C360 C359 1.349 . S
C360 C372 1.349 . S
C361 C359 1.327 . S
C361 C377 1.429 . S
C361 H383 0.950 . S
C362 H358 0.949 . S
C362 C370 1.574 . S
C362 C378 1.368 . S
H363 C371 0.950 . S
H364 C369 0.950 . S
H365 C370 0.949 . S
H366 C372 0.950 . S
H367 C373 0.950 . S
H368 C374 0.949 . S
C369 H364 0.950 . S
C369 C371 1.327 . S
C369 C375 1.429 . S
C370 C362 1.574 . S
C370 H365 0.949 . S
C370 C376 1.368 . S
C371 C355 1.349 . S
C371 H363 0.950 . S
C371 C369 1.327 . S
C372 C360 1.349 . S
C372 H366 0.950 . S
C372 C373 1.327 . S
C373 H367 0.950 . S
C373 C372 1.327 . S
C373 C377 1.429 . S
C374 C357 1.574 . S
C374 H368 0.949 . S
C374 C378 1.368 . S
C375 C356 1.429 . S
C375 C369 1.429 . S
C375 C376 1.523 . S
C376 C357 1.368 . S
C376 C370 1.368 . S
C376 C375 1.523 . S
C377 C361 1.429 . S
C377 C373 1.429 . S
C377 C378 1.523 . S
C378 C362 1.368 . S
C378 C374 1.368 . S
C378 C377 1.523 . S
H379 C354 0.950 . S
H380 C356 0.950 . S
H381 C357 0.949 . S
H382 C359 0.950 . S
H383 C361 0.950 . S
C384 C385 1.349 . S
C384 C386 1.327 . S
C384 H409 0.950 . S
C385 C384 1.349 . S
C385 C401 1.349 . S
C386 C384 1.327 . S
C386 C405 1.429 . S
C386 H410 0.950 . S
C387 C404 1.574 . S
C387 C406 1.368 . S
C387 H411 0.949 . S
H388 C392 0.949 . S
C389 C390 1.349 . S
C389 C391 1.327 . S
C389 H412 0.950 . S
C390 C389 1.349 . S
C390 C402 1.349 . S
C391 C389 1.327 . S
C391 C407 1.429 . S
C391 H413 0.950 . S
C392 H388 0.949 . S
C392 C400 1.574 . S
C392 C408 1.368 . S
H393 C401 0.950 . S
H394 C399 0.950 . S
H395 C400 0.949 . S
H396 C402 0.950 . S
H397 C403 0.950 . S
H398 C404 0.949 . S
C399 H394 0.950 . S
C399 C401 1.327 . S
C399 C405 1.429 . S
C400 C392 1.574 . S
C400 H395 0.949 . S
C400 C406 1.368 . S
C401 C385 1.349 . S
C401 H393 0.950 . S
C401 C399 1.327 . S
C402 C390 1.349 . S
C402 H396 0.950 . S
C402 C403 1.327 . S
C403 H397 0.950 . S
C403 C402 1.327 . S
C403 C407 1.429 . S
C404 C387 1.574 . S
C404 H398 0.949 . S
C404 C408 1.368 . S
C405 C386 1.429 . S
C405 C399 1.429 . S
C405 C406 1.523 . S
C406 C387 1.368 . S
C406 C400 1.368 . S
C406 C405 1.523 . S
C407 C391 1.429 . S
C407 C403 1.429 . S
C407 C408 1.523 . S
C408 C392 1.368 . S
C408 C404 1.368 . S
C408 C407 1.523 . S
H409 C384 0.950 . S
H410 C386 0.950 . S
H411 C387 0.949 . S
H412 C389 0.950 . S
H413 C391 0.950 . S
C414 C415 1.349 . S
C414 C416 1.327 . S
C414 H439 0.950 . S
C415 C414 1.349 . S
C415 C431 1.349 . S
C416 C414 1.327 . S
C416 C435 1.429 . S
C416 H440 0.950 . S
C417 C434 1.574 . S
C417 C436 1.368 . S
C417 H441 0.949 . S
H418 C422 0.949 . S
C419 C420 1.349 . S
C419 C421 1.327 . S
C419 H442 0.950 . S
C420 C419 1.349 . S
C420 C432 1.349 . S
C421 C419 1.327 . S
C421 C437 1.429 . S
C421 H443 0.950 . S
C422 H418 0.949 . S
C422 C430 1.574 . S
C422 C438 1.368 . S
H423 C431 0.950 . S
H424 C429 0.950 . S
H425 C430 0.949 . S
H426 C432 0.950 . S
H427 C433 0.950 . S
H428 C434 0.949 . S
C429 H424 0.950 . S
C429 C431 1.327 . S
C429 C435 1.429 . S
C430 C422 1.574 . S
C430 H425 0.949 . S
C430 C436 1.368 . S
C431 C415 1.349 . S
C431 H423 0.950 . S
C431 C429 1.327 . S
C432 C420 1.349 . S
C432 H426 0.950 . S
C432 C433 1.327 . S
C433 H427 0.950 . S
C433 C432 1.327 . S
C433 C437 1.429 . S
C434 C417 1.574 . S
C434 H428 0.949 . S
C434 C438 1.368 . S
C435 C416 1.429 . S
C435 C429 1.429 . S
C435 C436 1.523 . S
C436 C417 1.368 . S
C436 C430 1.368 . S
C436 C435 1.523 . S
C437 C421 1.429 . S
C437 C433 1.429 . S
C437 C438 1.523 . S
C438 C422 1.368 . S
C438 C434 1.368 . S
C438 C437 1.523 . S
H439 C414 0.950 . S
H440 C416 0.950 . S
H441 C417 0.949 . S
H442 C419 0.950 . S
H443 C421 0.950 . S
C444 C445 1.349 . S
C444 C446 1.327 . S
C444 H469 0.950 . S
C445 C444 1.349 . S
C445 C461 1.349 . S
C446 C444 1.327 . S
C446 C465 1.429 . S
C446 H470 0.950 . S
C447 C464 1.574 . S
C447 C466 1.368 . S
C447 H471 0.949 . S
H448 C452 0.949 . S
C449 C450 1.349 . S
C449 C451 1.327 . S
C449 H472 0.950 . S
C450 C449 1.349 . S
C450 C462 1.349 . S
C451 C449 1.327 . S
C451 C467 1.429 . S
C451 H473 0.950 . S
C452 H448 0.949 . S
C452 C460 1.574 . S
C452 C468 1.368 . S
H453 C461 0.950 . S
H454 C459 0.950 . S
H455 C460 0.949 . S
H456 C462 0.950 . S
H457 C463 0.950 . S
H458 C464 0.949 . S
C459 H454 0.950 . S
C459 C461 1.327 . S
C459 C465 1.429 . S
C460 C452 1.574 . S
C460 H455 0.949 . S
C460 C466 1.368 . S
C461 C445 1.349 . S
C461 H453 0.950 . S
C461 C459 1.327 . S
C462 C450 1.349 . S
C462 H456 0.950 . S
C462 C463 1.327 . S
C463 H457 0.950 . S
C463 C462 1.327 . S
C463 C467 1.429 . S
C464 C447 1.574 . S
C464 H458 0.949 . S
C464 C468 1.368 . S
C465 C446 1.429 . S
C465 C459 1.429 . S
C465 C466 1.523 . S
C466 C447 1.368 . S
C466 C460 1.368 . S
C466 C465 1.523 . S
C467 C451 1.429 . S
C467 C463 1.429 . S
C467 C468 1.523 . S
C468 C452 1.368 . S
C468 C464 1.368 . S
C468 C467 1.523 . S
H469 C444 0.950 . S
H470 C446 0.950 . S
H471 C447 0.949 . S
H472 C449 0.950 . S
H473 C451 0.950 . S
C474 C475 1.349 . S
C474 C476 1.327 . S
C474 H499 0.950 . S
C475 C474 1.349 . S
C475 C491 1.349 . S
C476 C474 1.327 . S
C476 C495 1.429 . S
C476 H500 0.950 . S
C477 C494 1.574 . S
C477 C496 1.368 . S
C477 H501 0.949 . S
H478 C482 0.949 . S
C479 C480 1.349 . S
C479 C481 1.327 . S
C479 H502 0.950 . S
C480 C479 1.349 . S
C480 C492 1.349 . S
C481 C479 1.327 . S
C481 C497 1.429 . S
C481 H503 0.950 . S
C482 H478 0.949 . S
C482 C490 1.574 . S
C482 C498 1.368 . S
H483 C491 0.950 . S
H484 C489 0.950 . S
H485 C490 0.949 . S
H486 C492 0.950 . S
H487 C493 0.950 . S
H488 C494 0.949 . S
C489 H484 0.950 . S
C489 C491 1.327 . S
C489 C495 1.429 . S
C490 C482 1.574 . S
C490 H485 0.949 . S
C490 C496 1.368 . S
C491 C475 1.349 . S
C491 H483 0.950 . S
C491 C489 1.327 . S
C492 C480 1.349 . S
C492 H486 0.950 . S
C492 C493 1.327 . S
C493 H487 0.950 . S
C493 C492 1.327 . S
C493 C497 1.429 . S
C494 C477 1.574 . S
C494 H488 0.949 . S
C494 C498 1.368 . S
C495 C476 1.429 . S
C495 C489 1.429 . S
C495 C496 1.523 . S
C496 C477 1.368 . S
C496 C490 1.368 . S
C496 C495 1.523 . S
C497 C481 1.429 . S
C497 C493 1.429 . S
C497 C498 1.523 . S
C498 C482 1.368 . S
C498 C494 1.368 . S
C498 C497 1.523 . S
H499 C474 0.950 . S
H500 C476 0.950 . S
H501 C477 0.949 . S
H502 C479 0.950 . S
H503 C481 0.950 . S
C504 C505 1.349 . S
C504 C506 1.327 . S
C504 H529 0.950 . S
C505 C504 1.349 . S
C505 C521 1.349 . S
C506 C504 1.327 . S
C506 C525 1.429 . S
C506 H530 0.950 . S
C507 C524 1.574 . S
C507 C526 1.368 . S
C507 H531 0.949 . S
H508 C512 0.949 . S
C509 C510 1.349 . S
C509 C511 1.327 . S
C509 H532 0.950 . S
C510 C509 1.349 . S
C510 C522 1.349 . S
C511 C509 1.327 . S
C511 C527 1.429 . S
C511 H533 0.950 . S
C512 H508 0.949 . S
C512 C520 1.574 . S
C512 C528 1.368 . S
H513 C521 0.950 . S
H514 C519 0.950 . S
H515 C520 0.949 . S
H516 C522 0.950 . S
H517 C523 0.950 . S
H518 C524 0.949 . S
C519 H514 0.950 . S
C519 C521 1.327 . S
C519 C525 1.429 . S
C520 C512 1.574 . S
C520 H515 0.949 . S
C520 C526 1.368 . S
C521 C505 1.349 . S
C521 H513 0.950 . S
C521 C519 1.327 . S
C522 C510 1.349 . S
C522 H516 0.950 . S
C522 C523 1.327 . S
C523 H517 0.950 . S
C523 C522 1.327 . S
C523 C527 1.429 . S
C524 C507 1.574 . S
C524 H518 0.949 . S
C524 C528 1.368 . S
C525 C506 1.429 . S
C525 C519 1.429 . S
C525 C526 1.523 . S
C526 C507 1.368 . S
C526 C520 1.368 . S
C526 C525 1.523 . S
C527 C511 1.429 . S
C527 C523 1.429 . S
C527 C528 1.523 . S
C528 C512 1.368 . S
C528 C524 1.368 . S
C528 C527 1.523 . S
H529 C504 0.950 . S
H530 C506 0.950 . S
H531 C507 0.949 . S
H532 C509 0.950 . S
H533 C511 0.950 . S
C534 C535 1.349 . S
C534 C536 1.327 . S
C534 H559 0.950 . S
C535 C534 1.349 . S
C535 C551 1.349 . S
C536 C534 1.327 . S
C536 C555 1.429 . S
C536 H560 0.950 . S
C537 C554 1.574 . S
C537 C556 1.368 . S
C537 H561 0.949 . S
H538 C542 0.949 . S
C539 C540 1.349 . S
C539 C541 1.327 . S
C539 H562 0.950 . S
C540 C539 1.349 . S
C540 C552 1.349 . S
C541 C539 1.327 . S
C541 C557 1.429 . S
C541 H563 0.950 . S
C542 H538 0.949 . S
C542 C550 1.574 . S
C542 C558 1.368 . S
H543 C551 0.950 . S
H544 C549 0.950 . S
H545 C550 0.949 . S
H546 C552 0.950 . S
H547 C553 0.950 . S
H548 C554 0.949 . S
C549 H544 0.950 . S
C549 C551 1.327 . S
C549 C555 1.429 . S
C550 C542 1.574 . S
C550 H545 0.949 . S
C550 C556 1.368 . S
C551 C535 1.349 . S
C551 H543 0.950 . S
C551 C549 1.327 . S
C552 C540 1.349 . S
C552 H546 0.950 . S
C552 C553 1.327 . S
C553 H547 0.950 . S
C553 C552 1.327 . S
C553 C557 1.429 . S
C554 C537 1.574 . S
C554 H548 0.949 . S
C554 C558 1.368 . S
C555 C536 1.429 . S
C555 C549 1.429 . S
C555 C556 1.523 . S
C556 C537 1.368 . S
C556 C550 1.368 . S
C556 C555 1.523 . S
C557 C541 1.429 . S
C557 C553 1.429 . S
C557 C558 1.523 . S
C558 C542 1.368 . S
C558 C554 1.368 . S
C558 C557 1.523 . S
H559 C534 0.950 . S
H560 C536 0.950 . S
H561 C537 0.949 . S
H562 C539 0.950 . S
H563 C541 0.950 . S
C564 C565 1.349 . S
C564 C566 1.327 . S
C564 H589 0.950 . S
C565 C564 1.349 . S
C565 C581 1.349 . S
C566 C564 1.327 . S
C566 C585 1.429 . S
C566 H590 0.950 . S
C567 C584 1.574 . S
C567 C586 1.368 . S
C567 H591 0.949 . S
H568 C572 0.949 . S
C569 C570 1.349 . S
C569 C571 1.327 . S
C569 H592 0.950 . S
C570 C569 1.349 . S
C570 C582 1.349 . S
C571 C569 1.327 . S
C571 C587 1.429 . S
C571 H593 0.950 . S
C572 H568 0.949 . S
C572 C580 1.574 . S
C572 C588 1.368 . S
H573 C581 0.950 . S
H574 C579 0.950 . S
H575 C580 0.949 . S
H576 C582 0.950 . S
H577 C583 0.950 . S
H578 C584 0.949 . S
C579 H574 0.950 . S
C579 C581 1.327 . S
C579 C585 1.429 . S
C580 C572 1.574 . S
C580 H575 0.949 . S
C580 C586 1.368 . S
C581 C565 1.349 . S
C581 H573 0.950 . S
C581 C579 1.327 . S
C582 C570 1.349 . S
C582 H576 0.950 . S
C582 C583 1.327 . S
C583 H577 0.950 . S
C583 C582 1.327 . S
C583 C587 1.429 . S
C584 C567 1.574 . S
C584 H578 0.949 . S
C584 C588 1.368 . S
C585 C566 1.429 . S
C585 C579 1.429 . S
C585 C586 1.523 . S
C586 C567 1.368 . S
C586 C580 1.368 . S
C586 C585 1.523 . S
C587 C571 1.429 . S
C587 C583 1.429 . S
C587 C588 1.523 . S
C588 C572 1.368 . S
C588 C584 1.368 . S
C588 C587 1.523 . S
H589 C564 0.950 . S
H590 C566 0.950 . S
H591 C567 0.949 . S
H592 C569 0.950 . S
H593 C571 0.950 . S
C594 C595 1.349 . S
C594 C596 1.327 . S
C594 H619 0.950 . S
C595 C594 1.349 . S
C595 C611 1.349 . S
C596 C594 1.327 . S
C596 C615 1.429 . S
C596 H620 0.950 . S
C597 C614 1.574 . S
C597 C616 1.368 . S
C597 H621 0.949 . S
H598 C602 0.949 . S
C599 C600 1.349 . S
C599 C601 1.327 . S
C599 H622 0.950 . S
C600 C599 1.349 . S
C600 C612 1.349 . S
C601 C599 1.327 . S
C601 C617 1.429 . S
C601 H623 0.950 . S
C602 H598 0.949 . S
C602 C610 1.574 . S
C602 C618 1.368 . S
H603 C611 0.950 . S
H604 C609 0.950 . S
H605 C610 0.949 . S
H606 C612 0.950 . S
H607 C613 0.950 . S
H608 C614 0.949 . S
C609 H604 0.950 . S
C609 C611 1.327 . S
C609 C615 1.429 . S
C610 C602 1.574 . S
C610 H605 0.949 . S
C610 C616 1.368 . S
C611 C595 1.349 . S
C611 H603 0.950 . S
C611 C609 1.327 . S
C612 C600 1.349 . S
C612 H606 0.950 . S
C612 C613 1.327 . S
C613 H607 0.950 . S
C613 C612 1.327 . S
C613 C617 1.429 . S
C614 C597 1.574 . S
C614 H608 0.949 . S
C614 C618 1.368 . S
C615 C596 1.429 . S
C615 C609 1.429 . S
C615 C616 1.523 . S
C616 C597 1.368 . S
C616 C610 1.368 . S
C616 C615 1.523 . S
C617 C601 1.429 . S
C617 C613 1.429 . S
C617 C618 1.523 . S
C618 C602 1.368 . S
C618 C614 1.368 . S
C618 C617 1.523 . S
H619 C594 0.950 . S
H620 C596 0.950 . S
H621 C597 0.949 . S
H622 C599 0.950 . S
H623 C601 0.950 . S
C624 C625 1.349 . S
C624 C626 1.327 . S
C624 H649 0.950 . S
C625 C624 1.349 . S
C625 C641 1.349 . S
C626 C624 1.327 . S
C626 C645 1.429 . S
C626 H650 0.950 . S
C627 C644 1.574 . S
C627 C646 1.368 . S
C627 H651 0.949 . S
H628 C632 0.949 . S
C629 C630 1.349 . S
C629 C631 1.327 . S
C629 H652 0.950 . S
C630 C629 1.349 . S
C630 C642 1.349 . S
C631 C629 1.327 . S
C631 C647 1.429 . S
C631 H653 0.950 . S
C632 H628 0.949 . S
C632 C640 1.574 . S
C632 C648 1.368 . S
H633 C641 0.950 . S
H634 C639 0.950 . S
H635 C640 0.949 . S
H636 C642 0.950 . S
H637 C643 0.950 . S
H638 C644 0.949 . S
C639 H634 0.950 . S
C639 C641 1.327 . S
C639 C645 1.429 . S
C640 C632 1.574 . S
C640 H635 0.949 . S
C640 C646 1.368 . S
C641 C625 1.349 . S
C641 H633 0.950 . S
C641 C639 1.327 . S
C642 C630 1.349 . S
C642 H636 0.950 . S
C642 C643 1.327 . S
C643 H637 0.950 . S
C643 C642 1.327 . S
C643 C647 1.429 . S
C644 C627 1.574 . S
C644 H638 0.949 . S
C644 C648 1.368 . S
C645 C626 1.429 . S
C645 C639 1.429 . S
C645 C646 1.523 . S
C646 C627 1.368 . S
C646 C640 1.368 . S
C646 C645 1.523 . S
C647 C631 1.429 . S
C647 C643 1.429 . S
C647 C648 1.523 . S
C648 C632 1.368 . S
C648 C644 1.368 . S
C648 C647 1.523 . S
H649 C624 0.950 . S
H650 C626 0.950 . S
H651 C627 0.949 . S
H652 C629 0.950 . S
H653 C631 0.950 . S
C654 C655 1.349 . S
C654 C656 1.327 . S
C654 H679 0.950 . S
C655 C654 1.349 . S
C655 C671 1.349 . S
C656 C654 1.327 . S
C656 C675 1.429 . S
C656 H680 0.950 . S
C657 C674 1.574 . S
C657 C676 1.368 . S
C657 H681 0.949 . S
H658 C662 0.949 . S
C659 C660 1.349 . S
C659 C661 1.327 . S
C659 H682 0.950 . S
C660 C659 1.349 . S
C660 C672 1.349 . S
C661 C659 1.327 . S
C661 C677 1.429 . S
C661 H683 0.950 . S
C662 H658 0.949 . S
C662 C670 1.574 . S
C662 C678 1.368 . S
H663 C671 0.950 . S
H664 C669 0.950 . S
H665 C670 0.949 . S
H666 C672 0.950 . S
H667 C673 0.950 . S
H668 C674 0.949 . S
C669 H664 0.950 . S
C669 C671 1.327 . S
C669 C675 1.429 . S
C670 C662 1.574 . S
C670 H665 0.949 . S
C670 C676 1.368 . S
C671 C655 1.349 . S
C671 H663 0.950 . S
C671 C669 1.327 . S
C672 C660 1.349 . S
C672 H666 0.950 . S
C672 C673 1.327 . S
C673 H667 0.950 . S
C673 C672 1.327 . S
C673 C677 1.429 . S
C674 C657 1.574 . S
C674 H668 0.949 . S
C674 C678 1.368 . S
C675 C656 1.429 . S
C675 C669 1.429 . S
C675 C676 1.523 . S
C676 C657 1.368 . S
C676 C670 1.368 . S
C676 C675 1.523 . S
C677 C661 1.429 . S
C677 C673 1.429 . S
C677 C678 1.523 . S
C678 C662 1.368 . S
C678 C674 1.368 . S
C678 C677 1.523 . S
H679 C654 0.950 . S
H680 C656 0.950 . S
H681 C657 0.949 . S
H682 C659 0.950 . S
H683 C661 0.950 . S
C684 C685 1.349 . S
C684 C686 1.327 . S
C684 H709 0.950 . S
C685 C684 1.349 . S
C685 C701 1.349 . S
C686 C684 1.327 . S
C686 C705 1.429 . S
C686 H710 0.950 . S
C687 C704 1.574 . S
C687 C706 1.368 . S
C687 H711 0.949 . S
H688 C692 0.949 . S
C689 C690 1.349 . S
C689 C691 1.327 . S
C689 H712 0.950 . S
C690 C689 1.349 . S
C690 C702 1.349 . S
C691 C689 1.327 . S
C691 C707 1.429 . S
C691 H713 0.950 . S
C692 H688 0.949 . S
C692 C700 1.574 . S
C692 C708 1.368 . S
H693 C701 0.950 . S
H694 C699 0.950 . S
H695 C700 0.949 . S
H696 C702 0.950 . S
H697 C703 0.950 . S
H698 C704 0.949 . S
C699 H694 0.950 . S
C699 C701 1.327 . S
C699 C705 1.429 . S
C700 C692 1.574 . S
C700 H695 0.949 . S
C700 C706 1.368 1_655 S
C701 C685 1.349 . S
C701 H693 0.950 . S
C701 C699 1.327 . S
C702 C690 1.349 . S
C702 H696 0.950 . S
C702 C703 1.327 . S
C703 H697 0.950 . S
C703 C702 1.327 . S
C703 C707 1.429 . S
C704 C687 1.574 . S
C704 H698 0.949 . S
C704 C708 1.368 1_455 S
C705 C686 1.429 . S
C705 C699 1.429 . S
C705 C706 1.523 . S
C706 C687 1.368 . S
C706 C700 1.368 1_455 S
C706 C705 1.523 . S
C707 C691 1.429 . S
C707 C703 1.429 . S
C707 C708 1.523 . S
C708 C692 1.368 . S
C708 C704 1.368 1_655 S
C708 C707 1.523 . S
H709 C684 0.950 . S
H710 C686 0.950 . S
H711 C687 0.949 . S
H712 C689 0.950 . S
H713 C691 0.950 . S
C714 C715 1.349 . S
C714 C716 1.327 . S
C714 H739 0.950 . S
C715 C714 1.349 . S
C715 C731 1.349 . S
C716 C714 1.327 . S
C716 C735 1.429 . S
C716 H740 0.950 . S
C717 C734 1.574 . S
C717 C736 1.368 . S
C717 H741 0.949 . S
H718 C722 0.949 . S
C719 C720 1.349 . S
C719 C721 1.327 . S
C719 H742 0.950 . S
C720 C719 1.349 . S
C720 C732 1.349 . S
C721 C719 1.327 . S
C721 C737 1.429 . S
C721 H743 0.950 . S
C722 H718 0.949 . S
C722 C730 1.574 . S
C722 C738 1.368 . S
H723 C731 0.950 . S
H724 C729 0.950 . S
H725 C730 0.949 . S
H726 C732 0.950 . S
H727 C733 0.950 . S
H728 C734 0.949 . S
C729 H724 0.950 . S
C729 C731 1.327 . S
C729 C735 1.429 . S
C730 C722 1.574 . S
C730 H725 0.949 . S
C730 C736 1.368 . S
C731 C715 1.349 . S
C731 H723 0.950 . S
C731 C729 1.327 . S
C732 C720 1.349 . S
C732 H726 0.950 . S
C732 C733 1.327 . S
C733 H727 0.950 . S
C733 C732 1.327 . S
C733 C737 1.429 . S
C734 C717 1.574 . S
C734 H728 0.949 . S
C734 C738 1.368 . S
C735 C716 1.429 . S
C735 C729 1.429 . S
C735 C736 1.523 . S
C736 C717 1.368 . S
C736 C730 1.368 . S
C736 C735 1.523 . S
C737 C721 1.429 . S
C737 C733 1.429 . S
C737 C738 1.523 . S
C738 C722 1.368 . S
C738 C734 1.368 . S
C738 C737 1.523 . S
H739 C714 0.950 . S
H740 C716 0.950 . S
H741 C717 0.949 . S
H742 C719 0.950 . S
H743 C721 0.950 . S
C744 C745 1.349 . S
C744 C746 1.327 . S
C744 H769 0.950 . S
C745 C744 1.349 . S
C745 C761 1.349 . S
C746 C744 1.327 . S
C746 C765 1.429 . S
C746 H770 0.950 . S
C747 C764 1.574 . S
C747 C766 1.368 1_565 S
C747 H771 0.949 . S
H748 C752 0.949 . S
C749 C750 1.349 . S
C749 C751 1.327 . S
C749 H772 0.950 . S
C750 C749 1.349 . S
C750 C762 1.349 . S
C751 C749 1.327 . S
C751 C767 1.429 . S
C751 H773 0.950 . S
C752 H748 0.949 . S
C752 C760 1.574 . S
C752 C768 1.368 1_545 S
H753 C761 0.950 1_565 S
H754 C759 0.954 . S
H755 C760 0.949 . S
H756 C762 0.950 1_545 S
H757 C763 0.954 . S
H758 C764 0.949 . S
C759 H754 0.954 . S
C759 C761 1.330 1_565 S
C759 C765 1.422 1_565 S
C760 C752 1.574 . S
C760 H755 0.949 . S
C760 C766 1.368 . S
C761 C745 1.349 . S
C761 H753 0.950 1_545 S
C761 C759 1.330 1_545 S
C762 C750 1.349 . S
C762 H756 0.950 1_565 S
C762 C763 1.330 1_565 S
C763 H757 0.954 . S
C763 C762 1.330 1_545 S
C763 C767 1.422 1_545 S
C764 C747 1.574 . S
C764 H758 0.949 . S
C764 C768 1.368 . S
C765 C746 1.429 . S
C765 C759 1.422 1_545 S
C765 C766 1.523 . S
C766 C747 1.368 1_545 S
C766 C760 1.368 . S
C766 C765 1.523 . S
C767 C751 1.429 . S
C767 C763 1.422 1_565 S
C767 C768 1.523 . S
C768 C752 1.368 1_565 S
C768 C764 1.368 . S
C768 C767 1.523 . S
H769 C744 0.950 . S
H770 C746 0.950 . S
H771 C747 0.949 . S
H772 C749 0.950 . S
H773 C751 0.950 . S
C774 C775 1.349 1_565 S
C774 C776 1.327 . S
C774 H799 0.954 1_565 S
C775 C774 1.349 1_545 S
C775 C791 1.349 1_545 S
C776 C774 1.327 . S
C776 C795 1.429 . S
C776 H800 0.950 1_554 S
C777 C794 1.574 . S
C777 C796 1.368 . S
C777 H801 0.949 . S
H778 C782 0.949 . S
C779 C780 1.349 . S
C779 C781 1.327 . S
C779 H802 0.976 . S
C780 C779 1.349 . S
C780 C792 1.349 . S
C781 C779 1.327 . S
C781 C797 1.429 . S
C781 H803 0.950 1_556 S
C782 H778 0.949 . S
C782 C790 1.574 . S
C782 C798 1.368 . S
H783 C791 0.950 . S
H784 C789 0.950 . S
H785 C790 0.949 . S
H786 C792 0.950 . S
H787 C793 0.950 . S
H788 C794 0.949 . S
C789 H784 0.950 . S
C789 C791 1.327 . S
C789 C795 1.429 . S
C790 C782 1.574 . S
C790 H785 0.949 . S
C790 C796 1.368 1_556 S
C791 C775 1.349 1_565 S
C791 H783 0.950 . S
C791 C789 1.327 . S
C792 C780 1.349 . S
C792 H786 0.950 . S
C792 C793 1.327 . S
C793 H787 0.950 . S
C793 C792 1.327 . S
C793 C797 1.429 . S
C794 C777 1.574 . S
C794 H788 0.949 . S
C794 C798 1.368 1_554 S
C795 C776 1.429 . S
C795 C789 1.429 . S
C795 C796 1.523 . S
C796 C777 1.368 . S
C796 C790 1.368 1_554 S
C796 C795 1.523 . S
C797 C781 1.429 . S
C797 C793 1.429 . S
C797 C798 1.523 . S
C798 C782 1.368 . S
C798 C794 1.368 1_556 S
C798 C797 1.523 . S
H799 C774 0.954 1_545 S
H800 C776 0.950 1_556 S
H801 C777 0.949 . S
H802 C779 0.976 . S
H803 C781 0.950 1_554 S
C804 C805 1.349 1_455 S
C804 C806 1.327 . S
C804 H829 0.947 . S
C805 C804 1.349 1_655 S
C805 C821 1.349 1_655 S
C806 C804 1.327 . S
C806 C825 1.429 . S
C806 H830 0.950 1_554 S
C807 C824 1.574 . S
C807 C826 1.368 . S
C807 H831 0.949 . S
H808 C812 0.949 . S
C809 C810 1.349 . S
C809 C811 1.327 . S
C809 H832 0.950 . S
C810 C809 1.349 . S
C810 C822 1.349 . S
C811 C809 1.327 . S
C811 C827 1.429 . S
C811 H833 0.950 1_556 S
C812 H808 0.949 . S
C812 C820 1.574 . S
C812 C828 1.368 . S
H813 C821 0.950 . S
H814 C819 0.950 . S
H815 C820 0.949 . S
H816 C822 0.950 . S
H817 C823 0.950 . S
H818 C824 0.949 . S
C819 H814 0.950 . S
C819 C821 1.327 . S
C819 C825 1.429 . S
C820 C812 1.574 . S
C820 H815 0.949 . S
C820 C826 1.368 1_556 S
C821 C805 1.349 1_455 S
C821 H813 0.950 . S
C821 C819 1.327 . S
C822 C810 1.349 . S
C822 H816 0.950 . S
C822 C823 1.327 . S
C823 H817 0.950 . S
C823 C822 1.327 . S
C823 C827 1.429 . S
C824 C807 1.574 . S
C824 H818 0.949 . S
C824 C828 1.368 1_554 S
C825 C806 1.429 . S
C825 C819 1.429 . S
C825 C826 1.523 . S
C826 C807 1.368 . S
C826 C820 1.368 1_554 S
C826 C825 1.523 . S
C827 C811 1.429 . S
C827 C823 1.429 . S
C827 C828 1.523 . S
C828 C812 1.368 . S
C828 C824 1.368 1_556 S
C828 C827 1.523 . S
H829 C804 0.947 . S
H830 C806 0.950 1_556 S
H831 C807 0.949 . S
H832 C809 0.950 . S
H833 C811 0.950 1_554 S
C834 C835 1.349 . S
C834 C836 1.327 . S
C834 H859 0.950 . S
C835 C834 1.349 . S
C835 C851 1.349 . S
C836 C834 1.327 . S
C836 C855 1.429 . S
C836 H860 0.950 . S
C837 C854 1.574 . S
C837 C856 1.368 . S
C837 H861 0.949 . S
H838 C842 0.949 . S
C839 C840 1.349 . S
C839 C841 1.327 . S
C839 H862 0.950 . S
C840 C839 1.349 . S
C840 C852 1.349 . S
C841 C839 1.327 . S
C841 C857 1.429 . S
C841 H863 0.950 . S
C842 H838 0.949 . S
C842 C850 1.574 . S
C842 C858 1.368 . S
H843 C851 0.950 . S
H844 C849 0.950 . S
H845 C850 0.949 . S
H846 C852 0.950 . S
H847 C853 0.950 . S
H848 C854 0.949 . S
C849 H844 0.950 . S
C849 C851 1.327 . S
C849 C855 1.429 . S
C850 C842 1.574 . S
C850 H845 0.949 . S
C850 C856 1.368 1_556 S
C851 C835 1.349 . S
C851 H843 0.950 . S
C851 C849 1.327 . S
C852 C840 1.349 . S
C852 H846 0.950 . S
C852 C853 1.327 . S
C853 H847 0.950 . S
C853 C852 1.327 . S
C853 C857 1.429 . S
C854 C837 1.574 . S
C854 H848 0.949 . S
C854 C858 1.368 1_554 S
C855 C836 1.429 . S
C855 C849 1.429 . S
C855 C856 1.523 . S
C856 C837 1.368 . S
C856 C850 1.368 1_554 S
C856 C855 1.523 . S
C857 C841 1.429 . S
C857 C853 1.429 . S
C857 C858 1.523 . S
C858 C842 1.368 . S
C858 C854 1.368 1_556 S
C858 C857 1.523 . S
H859 C834 0.950 . S
H860 C836 0.950 . S
H861 C837 0.949 . S
H862 C839 0.950 . S
H863 C841 0.950 . S
C864 C865 1.351 1_545 S
C864 C866 1.336 . S
C864 H889 0.938 1_545 S
C865 C864 1.351 1_565 S
C865 C881 1.349 1_565 S
C866 C864 1.336 . S
C866 C885 1.429 . S
C866 H890 0.950 1_556 S
C867 C884 1.574 . S
C867 C886 1.368 . S
C867 H891 0.949 . S
H868 C872 0.949 . S
C869 C870 1.349 . S
C869 C871 1.327 . S
C869 H892 0.950 . S
C870 C869 1.349 . S
C870 C882 1.349 . S
C871 C869 1.327 . S
C871 C887 1.429 . S
C871 H893 0.950 1_554 S
C872 H868 0.949 . S
C872 C880 1.574 . S
C872 C888 1.368 . S
H873 C881 0.950 . S
H874 C879 0.950 . S
H875 C880 0.949 . S
H876 C882 0.950 . S
H877 C883 0.950 . S
H878 C884 0.949 . S
C879 H874 0.950 . S
C879 C881 1.327 . S
C879 C885 1.429 . S
C880 C872 1.574 . S
C880 H875 0.949 . S
C880 C886 1.368 1_554 S
C881 C865 1.349 1_545 S
C881 H873 0.950 . S
C881 C879 1.327 . S
C882 C870 1.349 . S
C882 H876 0.950 . S
C882 C883 1.327 . S
C883 H877 0.950 . S
C883 C882 1.327 . S
C883 C887 1.429 . S
C884 C867 1.574 . S
C884 H878 0.949 . S
C884 C888 1.368 1_556 S
C885 C866 1.429 . S
C885 C879 1.429 . S
C885 C886 1.523 . S
C886 C867 1.368 . S
C886 C880 1.368 1_556 S
C886 C885 1.523 . S
C887 C871 1.429 . S
C887 C883 1.429 . S
C887 C888 1.523 . S
C888 C872 1.368 . S
C888 C884 1.368 1_554 S
C888 C887 1.523 . S
H889 C864 0.938 1_565 S
H890 C866 0.950 1_554 S
H891 C867 0.949 . S
H892 C869 0.950 . S
H893 C871 0.950 1_556 S
C894 C895 1.349 . S
C894 C896 1.327 . S
C894 H919 0.950 . S
C895 C894 1.349 . S
C895 C911 1.349 . S
C896 C894 1.327 . S
C896 C915 1.429 . S
C896 H920 0.950 . S
C897 C914 1.574 . S
C897 C916 1.368 1_556 S
C897 H921 0.949 . S
H898 C902 0.949 . S
C899 C900 1.349 1_655 S
C899 C901 1.327 . S
C899 H922 0.950 1_655 S
C900 C899 1.349 1_455 S
C900 C912 1.349 1_455 S
C901 C899 1.327 . S
C901 C917 1.429 . S
C901 H923 0.950 . S
C902 H898 0.949 . S
C902 C910 1.574 . S
C902 C918 1.368 1_554 S
H903 C911 0.950 . S
H904 C909 0.950 . S
H905 C910 0.949 . S
H906 C912 0.950 . S
H907 C913 0.950 . S
H908 C914 0.949 . S
C909 H904 0.950 . S
C909 C911 1.327 . S
C909 C915 1.429 . S
C910 C902 1.574 . S
C910 H905 0.949 . S
C910 C916 1.368 . S
C911 C895 1.349 . S
C911 H903 0.950 . S
C911 C909 1.327 . S
C912 C900 1.349 1_655 S
C912 H906 0.950 . S
C912 C913 1.327 . S
C913 H907 0.950 . S
C913 C912 1.327 . S
C913 C917 1.429 . S
C914 C897 1.574 . S
C914 H908 0.949 . S
C914 C918 1.368 . S
C915 C896 1.429 . S
C915 C909 1.429 . S
C915 C916 1.523 . S
C916 C897 1.368 1_554 S
C916 C910 1.368 . S
C916 C915 1.523 . S
C917 C901 1.429 . S
C917 C913 1.429 . S
C917 C918 1.523 . S
C918 C902 1.368 1_556 S
C918 C914 1.368 . S
C918 C917 1.523 . S
H919 C894 0.950 . S
H920 C896 0.950 . S
H921 C897 0.949 . S
H922 C899 0.950 1_455 S
H923 C901 0.950 . S
C924 C925 1.349 . S
C924 C926 1.327 . S
C924 H949 0.950 . S
C925 C924 1.349 . S
C925 C941 1.349 . S
C926 C924 1.327 . S
C926 C945 1.429 . S
C926 H950 0.950 . S
C927 C944 1.574 . S
C927 C946 1.368 1_554 S
C927 H951 0.949 . S
H928 C932 0.949 . S
C929 C930 1.349 . S
C929 C931 1.327 . S
C929 H952 0.950 . S
C930 C929 1.349 . S
C930 C942 1.349 . S
C931 C929 1.327 . S
C931 C947 1.429 . S
C931 H953 0.950 . S
C932 H928 0.949 . S
C932 C940 1.574 . S
C932 C948 1.368 1_556 S
H933 C941 0.939 1_554 S
H934 C939 0.950 1_554 S
H935 C940 0.949 . S
H936 C942 0.952 . S
H937 C943 0.950 1_556 S
H938 C944 0.949 . S
C939 H934 0.950 1_556 S
C939 C941 1.327 . S
C939 C945 1.429 . S
C940 C932 1.574 . S
C940 H935 0.949 . S
C940 C946 1.368 . S
C941 C925 1.349 . S
C941 H933 0.939 1_556 S
C941 C939 1.327 . S
C942 C930 1.349 . S
C942 H936 0.952 . S
C942 C943 1.327 . S
C943 H937 0.950 1_554 S
C943 C942 1.327 . S
C943 C947 1.429 . S
C944 C927 1.574 . S
C944 H938 0.949 . S
C944 C948 1.368 . S
C945 C926 1.429 . S
C945 C939 1.429 . S
C945 C946 1.523 . S
C946 C927 1.368 1_556 S
C946 C940 1.368 . S
C946 C945 1.523 . S
C947 C931 1.429 . S
C947 C943 1.429 . S
C947 C948 1.523 . S
C948 C932 1.368 1_554 S
C948 C944 1.368 . S
C948 C947 1.523 . S
H949 C924 0.950 . S
H950 C926 0.950 . S
H951 C927 0.949 . S
H952 C929 0.950 . S
H953 C931 0.950 . S
C954 C955 1.349 . S
C954 C956 1.327 . S
C954 H979 0.950 . S
C955 C954 1.349 . S
C955 C971 1.349 . S
C956 C954 1.327 . S
C956 C975 1.429 . S
C956 H980 0.950 . S
C957 C974 1.574 . S
C957 C976 1.368 . S
C957 H981 0.949 . S
H958 C962 0.949 . S
C959 C960 1.349 . S
C959 C961 1.327 . S
C959 H982 0.950 . S
C960 C959 1.349 . S
C960 C972 1.349 . S
C961 C959 1.327 . S
C961 C977 1.429 . S
C961 H983 0.950 . S
C962 H958 0.949 . S
C962 C970 1.574 . S
C962 C978 1.368 . S
H963 C971 0.950 . S
H964 C969 0.950 . S
H965 C970 0.949 . S
H966 C972 0.950 . S
H967 C973 0.950 . S
H968 C974 0.949 . S
C969 H964 0.950 . S
C969 C971 1.327 . S
C969 C975 1.429 . S
C970 C962 1.574 . S
C970 H965 0.949 . S
C970 C976 1.368 . S
C971 C955 1.349 . S
C971 H963 0.950 . S
C971 C969 1.327 . S
C972 C960 1.349 . S
C972 H966 0.950 . S
C972 C973 1.327 . S
C973 H967 0.950 . S
C973 C972 1.327 . S
C973 C977 1.429 . S
C974 C957 1.574 . S
C974 H968 0.949 . S
C974 C978 1.368 . S
C975 C956 1.429 . S
C975 C969 1.429 . S
C975 C976 1.523 . S
C976 C957 1.368 . S
C976 C970 1.368 . S
C976 C975 1.523 . S
C977 C961 1.429 . S
C977 C973 1.429 . S
C977 C978 1.523 . S
C978 C962 1.368 . S
C978 C974 1.368 . S
C978 C977 1.523 . S
H979 C954 0.950 . S
H980 C956 0.950 . S
H981 C957 0.949 . S
H982 C959 0.950 . S
H983 C961 0.950 . S
C984 C985 1.349 . S
C984 C986 1.327 . S
C984 H1009 0.950 . S
C985 C984 1.349 . S
C985 C1001 1.349 . S
C986 C984 1.327 . S
C986 C1005 1.429 . S
C986 H1010 0.950 . S
C987 C1004 1.574 . S
C987 C1006 1.368 . S
C987 H1011 0.949 . S
H988 C992 0.949 . S
C989 C990 1.349 . S
C989 C991 1.327 . S
C989 H1012 0.950 . S
C990 C989 1.349 . S
C990 C1002 1.349 . S
C991 C989 1.327 . S
C991 C1007 1.429 . S
C991 H1013 0.950 . S
C992 H988 0.949 . S
C992 C1000 1.574 . S
C992 C1008 1.368 . S
H993 C1001 0.950 . S
H994 C999 0.950 . S
H995 C1000 0.949 . S
H996 C1002 0.950 . S
H997 C1003 0.950 . S
H998 C1004 0.949 . S
C999 H994 0.950 . S
C999 C1001 1.327 . S
C999 C1005 1.429 . S
C1000 C992 1.574 . S
C1000 H995 0.949 . S
C1000 C1006 1.368 . S
C1001 C985 1.349 . S
C1001 H993 0.950 . S
C1001 C999 1.327 . S
C1002 C990 1.349 . S
C1002 H996 0.950 . S
C1002 C1003 1.327 . S
C1003 H997 0.950 . S
C1003 C1002 1.327 . S
C1003 C1007 1.429 . S
C1004 C987 1.574 . S
C1004 H998 0.949 . S
C1004 C1008 1.368 . S
C1005 C986 1.429 . S
C1005 C999 1.429 . S
C1005 C1006 1.523 . S
C1006 C987 1.368 . S
C1006 C1000 1.368 . S
C1006 C1005 1.523 . S
C1007 C991 1.429 . S
C1007 C1003 1.429 . S
C1007 C1008 1.523 . S
C1008 C992 1.368 . S
C1008 C1004 1.368 . S
C1008 C1007 1.523 . S
H1009 C984 0.950 . S
H1010 C986 0.950 . S
H1011 C987 0.949 . S
H1012 C989 0.950 . S
H1013 C991 0.950 . S
C1014 C1015 1.349 . S
C1014 C1016 1.327 . S
C1014 H1039 0.950 . S
C1015 C1014 1.349 . S
C1015 C1031 1.349 . S
C1016 C1014 1.327 . S
C1016 C1035 1.429 . S
C1016 H1040 0.950 . S
C1017 C1034 1.574 . S
C1017 C1036 1.368 . S
C1017 H1041 0.949 . S
H1018 C1022 0.949 . S
C1019 C1020 1.349 . S
C1019 C1021 1.327 . S
C1019 H1042 0.950 . S
C1020 C1019 1.349 . S
C1020 C1032 1.349 . S
C1021 C1019 1.327 . S
C1021 C1037 1.429 . S
C1021 H1043 0.950 . S
C1022 H1018 0.949 . S
C1022 C1030 1.574 . S
C1022 C1038 1.368 . S
H1023 C1031 0.950 . S
H1024 C1029 0.950 . S
H1025 C1030 0.949 . S
H1026 C1032 0.950 . S
H1027 C1033 0.950 . S
H1028 C1034 0.949 . S
C1029 H1024 0.950 . S
C1029 C1031 1.327 . S
C1029 C1035 1.429 . S
C1030 C1022 1.574 . S
C1030 H1025 0.949 . S
C1030 C1036 1.368 . S
C1031 C1015 1.349 . S
C1031 H1023 0.950 . S
C1031 C1029 1.327 . S
C1032 C1020 1.349 . S
C1032 H1026 0.950 . S
C1032 C1033 1.327 . S
C1033 H1027 0.950 . S
C1033 C1032 1.327 . S
C1033 C1037 1.429 . S
C1034 C1017 1.574 . S
C1034 H1028 0.949 . S
C1034 C1038 1.368 . S
C1035 C1016 1.429 . S
C1035 C1029 1.429 . S
C1035 C1036 1.523 . S
C1036 C1017 1.368 . S
C1036 C1030 1.368 . S
C1036 C1035 1.523 . S
C1037 C1021 1.429 . S
C1037 C1033 1.429 . S
C1037 C1038 1.523 . S
C1038 C1022 1.368 . S
C1038 C1034 1.368 . S
C1038 C1037 1.523 . S
H1039 C1014 0.950 . S
H1040 C1016 0.950 . S
H1041 C1017 0.949 . S
H1042 C1019 0.950 . S
H1043 C1021 0.950 . S
C1044 C1045 1.349 . S
C1044 C1046 1.327 . S
C1044 H1069 0.950 . S
C1045 C1044 1.349 . S
C1045 C1061 1.349 . S
C1046 C1044 1.327 . S
C1046 C1065 1.429 . S
C1046 H1070 0.950 . S
C1047 C1064 1.574 . S
C1047 C1066 1.368 . S
C1047 H1071 0.949 . S
H1048 C1052 0.949 . S
C1049 C1050 1.349 . S
C1049 C1051 1.327 . S
C1049 H1072 0.950 . S
C1050 C1049 1.349 . S
C1050 C1062 1.349 . S
C1051 C1049 1.327 . S
C1051 C1067 1.429 . S
C1051 H1073 0.950 . S
C1052 H1048 0.949 . S
C1052 C1060 1.574 . S
C1052 C1068 1.368 . S
H1053 C1061 0.950 . S
H1054 C1059 0.950 . S
H1055 C1060 0.949 . S
H1056 C1062 0.950 . S
H1057 C1063 0.950 . S
H1058 C1064 0.949 . S
C1059 H1054 0.950 . S
C1059 C1061 1.327 . S
C1059 C1065 1.429 . S
C1060 C1052 1.574 . S
C1060 H1055 0.949 . S
C1060 C1066 1.368 . S
C1061 C1045 1.349 . S
C1061 H1053 0.950 . S
C1061 C1059 1.327 . S
C1062 C1050 1.349 . S
C1062 H1056 0.950 . S
C1062 C1063 1.327 . S
C1063 H1057 0.950 . S
C1063 C1062 1.327 . S
C1063 C1067 1.429 . S
C1064 C1047 1.574 . S
C1064 H1058 0.949 . S
C1064 C1068 1.368 . S
C1065 C1046 1.429 . S
C1065 C1059 1.429 . S
C1065 C1066 1.523 . S
C1066 C1047 1.368 . S
C1066 C1060 1.368 . S
C1066 C1065 1.523 . S
C1067 C1051 1.429 . S
C1067 C1063 1.429 . S
C1067 C1068 1.523 . S
C1068 C1052 1.368 . S
C1068 C1064 1.368 . S
C1068 C1067 1.523 . S
H1069 C1044 0.950 . S
H1070 C1046 0.950 . S
H1071 C1047 0.949 . S
H1072 C1049 0.950 . S
H1073 C1051 0.950 . S
C1074 C1075 1.349 . S
C1074 C1076 1.327 . S
C1074 H1099 0.950 . S
C1075 C1074 1.349 . S
C1075 C1091 1.349 . S
C1076 C1074 1.327 . S
C1076 C1095 1.429 . S
C1076 H1100 0.954 . S
C1077 C1094 1.574 . S
C1077 C1096 1.368 . S
C1077 H1101 0.949 . S
H1078 C1082 0.949 . S
C1079 C1080 1.349 1_545 S
C1079 C1081 1.327 . S
C1079 H1102 0.950 . S
C1080 C1079 1.349 1_565 S
C1080 C1092 1.349 . S
C1081 C1079 1.327 . S
C1081 C1097 1.429 . S
C1081 H1103 0.950 . S
C1082 H1078 0.949 . S
C1082 C1090 1.583 1_565 S
C1082 C1098 1.368 1_565 S
H1083 C1091 0.950 . S
H1084 C1089 0.950 . S
H1085 C1090 0.931 1_565 S
H1086 C1092 0.950 . S
H1087 C1093 0.950 . S
H1088 C1094 0.949 . S
C1089 H1084 0.950 . S
C1089 C1091 1.327 . S
C1089 C1095 1.429 . S
C1090 C1082 1.583 1_545 S
C1090 H1085 0.931 1_545 S
C1090 C1096 1.380 . S
C1091 C1075 1.349 . S
C1091 H1083 0.950 . S
C1091 C1089 1.327 . S
C1092 C1080 1.349 . S
C1092 H1086 0.950 . S
C1092 C1093 1.327 . S
C1093 H1087 0.950 . S
C1093 C1092 1.327 . S
C1093 C1097 1.429 1_565 S
C1094 C1077 1.574 . S
C1094 H1088 0.949 . S
C1094 C1098 1.368 . S
C1095 C1076 1.429 . S
C1095 C1089 1.429 . S
C1095 C1096 1.523 . S
C1096 C1077 1.368 . S
C1096 C1090 1.380 . S
C1096 C1095 1.523 . S
C1097 C1081 1.429 . S
C1097 C1093 1.429 1_545 S
C1097 C1098 1.523 . S
C1098 C1082 1.368 1_545 S
C1098 C1094 1.368 . S
C1098 C1097 1.523 . S
H1099 C1074 0.950 . S
H1100 C1076 0.954 . S
H1101 C1077 0.949 . S
H1102 C1079 0.950 . S
H1103 C1081 0.950 . S
C1104 C1105 1.349 . S
C1104 C1106 1.327 1_655 S
C1104 H1129 0.950 1_655 S
C1105 C1104 1.349 . S
C1105 C1121 1.349 . S
C1106 C1104 1.327 1_455 S
C1106 C1125 1.429 1_455 S
C1106 H1130 0.950 . S
C1107 C1124 1.574 . S
C1107 C1126 1.368 . S
C1107 H1131 0.949 . S
H1108 C1112 0.949 . S
C1109 C1110 1.349 1_655 S
C1109 C1111 1.327 . S
C1109 H1132 0.950 . S
C1110 C1109 1.349 1_455 S
C1110 C1122 1.349 . S
C1111 C1109 1.327 . S
C1111 C1127 1.429 . S
C1111 H1133 0.950 . S
C1112 H1108 0.949 . S
C1112 C1120 1.574 . S
C1112 C1128 1.368 1_455 S
H1113 C1121 0.950 . S
H1114 C1119 0.950 . S
H1115 C1120 0.949 . S
H1116 C1122 0.950 . S
H1117 C1123 0.950 . S
H1118 C1124 0.949 . S
C1119 H1114 0.950 . S
C1119 C1121 1.327 . S
C1119 C1125 1.429 . S
C1120 C1112 1.574 . S
C1120 H1115 0.949 . S
C1120 C1126 1.368 1_455 S
C1121 C1105 1.349 . S
C1121 H1113 0.950 . S
C1121 C1119 1.327 . S
C1122 C1110 1.349 . S
C1122 H1116 0.950 . S
C1122 C1123 1.327 . S
C1123 H1117 0.950 . S
C1123 C1122 1.327 . S
C1123 C1127 1.429 1_455 S
C1124 C1107 1.574 . S
C1124 H1118 0.949 . S
C1124 C1128 1.368 . S
C1125 C1106 1.429 1_655 S
C1125 C1119 1.429 . S
C1125 C1126 1.523 . S
C1126 C1107 1.368 . S
C1126 C1120 1.368 1_655 S
C1126 C1125 1.523 . S
C1127 C1111 1.429 . S
C1127 C1123 1.429 1_655 S
C1127 C1128 1.523 . S
C1128 C1112 1.368 1_655 S
C1128 C1124 1.368 . S
C1128 C1127 1.523 . S
H1129 C1104 0.950 1_455 S
H1130 C1106 0.950 . S
H1131 C1107 0.949 . S
H1132 C1109 0.950 . S
H1133 C1111 0.950 . S
C1134 C1135 1.349 . S
C1134 C1136 1.327 . S
C1134 H1159 0.950 . S
C1135 C1134 1.349 . S
C1135 C1151 1.349 . S
C1136 C1134 1.327 . S
C1136 C1155 1.429 . S
C1136 H1160 0.950 . S
C1137 C1154 1.574 . S
C1137 C1156 1.368 . S
C1137 H1161 0.949 . S
H1138 C1142 0.949 . S
C1139 C1140 1.349 . S
C1139 C1141 1.327 . S
C1139 H1162 0.950 . S
C1140 C1139 1.349 . S
C1140 C1152 1.349 . S
C1141 C1139 1.327 . S
C1141 C1157 1.429 . S
C1141 H1163 0.950 . S
C1142 H1138 0.949 . S
C1142 C1150 1.574 . S
C1142 C1158 1.368 . S
H1143 C1151 0.950 . S
H1144 C1149 0.950 . S
H1145 C1150 0.949 . S
H1146 C1152 0.950 . S
H1147 C1153 0.950 . S
H1148 C1154 0.949 . S
C1149 H1144 0.950 . S
C1149 C1151 1.327 . S
C1149 C1155 1.429 . S
C1150 C1142 1.574 . S
C1150 H1145 0.949 . S
C1150 C1156 1.368 . S
C1151 C1135 1.349 . S
C1151 H1143 0.950 . S
C1151 C1149 1.327 . S
C1152 C1140 1.349 . S
C1152 H1146 0.950 . S
C1152 C1153 1.327 . S
C1153 H1147 0.950 . S
C1153 C1152 1.327 . S
C1153 C1157 1.429 . S
C1154 C1137 1.574 . S
C1154 H1148 0.949 . S
C1154 C1158 1.368 . S
C1155 C1136 1.429 . S
C1155 C1149 1.429 . S
C1155 C1156 1.523 . S
C1156 C1137 1.368 . S
C1156 C1150 1.368 . S
C1156 C1155 1.523 . S
C1157 C1141 1.429 . S
C1157 C1153 1.429 . S
C1157 C1158 1.523 . S
C1158 C1142 1.368 . S
C1158 C1154 1.368 . S
C1158 C1157 1.523 . S
H1159 C1134 0.950 . S
H1160 C1136 0.950 . S
H1161 C1137 0.949 . S
H1162 C1139 0.950 . S
H1163 C1141 0.950 . S
C1164 C1165 1.349 1_565 S
C1164 C1166 1.327 . S
C1164 H1189 0.950 . S
C1165 C1164 1.349 1_545 S
C1165 C1181 1.349 . S
C1166 C1164 1.327 . S
C1166 C1185 1.429 . S
C1166 H1190 0.950 . S
C1167 C1184 1.574 . S
C1167 C1186 1.368 1_545 S
C1167 H1191 0.949 . S
H1168 C1172 0.949 . S
C1169 C1170 1.349 . S
C1169 C1171 1.327 . S
C1169 H1192 0.950 1_565 S
C1170 C1169 1.349 . S
C1170 C1182 1.349 . S
C1171 C1169 1.327 . S
C1171 C1187 1.429 . S
C1171 H1193 0.950 1_565 S
C1172 H1168 0.949 . S
C1172 C1180 1.574 . S
C1172 C1188 1.368 . S
H1173 C1181 0.950 . S
H1174 C1179 0.950 . S
H1175 C1180 0.949 . S
H1176 C1182 0.950 . S
H1177 C1183 0.950 . S
H1178 C1184 0.949 . S
C1179 H1174 0.950 . S
C1179 C1181 1.327 . S
C1179 C1185 1.429 1_545 S
C1180 C1172 1.574 . S
C1180 H1175 0.949 . S
C1180 C1186 1.368 . S
C1181 C1165 1.349 . S
C1181 H1173 0.950 . S
C1181 C1179 1.327 . S
C1182 C1170 1.349 . S
C1182 H1176 0.950 . S
C1182 C1183 1.327 . S
C1183 H1177 0.950 . S
C1183 C1182 1.327 . S
C1183 C1187 1.429 . S
C1184 C1167 1.574 . S
C1184 H1178 0.949 . S
C1184 C1188 1.368 1_545 S
C1185 C1166 1.429 . S
C1185 C1179 1.429 1_565 S
C1185 C1186 1.523 . S
C1186 C1167 1.368 1_565 S
C1186 C1180 1.368 . S
C1186 C1185 1.523 . S
C1187 C1171 1.429 . S
C1187 C1183 1.429 . S
C1187 C1188 1.523 . S
C1188 C1172 1.368 . S
C1188 C1184 1.368 1_565 S
C1188 C1187 1.523 . S
H1189 C1164 0.950 . S
H1190 C1166 0.950 . S
H1191 C1167 0.949 . S
H1192 C1169 0.950 1_545 S
H1193 C1171 0.950 1_545 S
C1194 C1195 1.349 . S
C1194 C1196 1.327 . S
C1194 H1219 0.950 . S
C1195 C1194 1.349 . S
C1195 C1211 1.349 . S
C1196 C1194 1.327 . S
C1196 C1215 1.429 . S
C1196 H1220 0.950 . S
C1197 C1214 1.574 . S
C1197 C1216 1.368 1_655 S
C1197 H1221 0.949 . S
H1198 C1202 0.949 . S
C1199 C1200 1.349 . S
C1199 C1201 1.327 . S
C1199 H1222 0.950 . S
C1200 C1199 1.349 . S
C1200 C1212 1.349 1_655 S
C1201 C1199 1.327 . S
C1201 C1217 1.429 1_655 S
C1201 H1223 0.950 . S
C1202 H1198 0.949 . S
C1202 C1210 1.574 . S
C1202 C1218 1.368 . S
H1203 C1211 0.950 1_655 S
H1204 C1209 0.950 1_655 S
H1205 C1210 0.949 . S
H1206 C1212 0.950 . S
H1207 C1213 0.950 . S
H1208 C1214 0.949 . S
C1209 H1204 0.950 1_455 S
C1209 C1211 1.327 . S
C1209 C1215 1.429 . S
C1210 C1202 1.574 . S
C1210 H1205 0.949 . S
C1210 C1216 1.368 . S
C1211 C1195 1.349 . S
C1211 H1203 0.950 1_455 S
C1211 C1209 1.327 . S
C1212 C1200 1.349 1_455 S
C1212 H1206 0.950 . S
C1212 C1213 1.327 . S
C1213 H1207 0.950 . S
C1213 C1212 1.327 . S
C1213 C1217 1.429 . S
C1214 C1197 1.574 . S
C1214 H1208 0.949 . S
C1214 C1218 1.368 1_655 S
C1215 C1196 1.429 . S
C1215 C1209 1.429 . S
C1215 C1216 1.523 . S
C1216 C1197 1.368 1_455 S
C1216 C1210 1.368 . S
C1216 C1215 1.523 . S
C1217 C1201 1.429 1_455 S
C1217 C1213 1.429 . S
C1217 C1218 1.523 . S
C1218 C1202 1.368 . S
C1218 C1214 1.368 1_455 S
C1218 C1217 1.523 . S
H1219 C1194 0.950 . S
H1220 C1196 0.950 . S
H1221 C1197 0.949 . S
H1222 C1199 0.950 . S
H1223 C1201 0.950 . S
C1224 C1225 1.349 . S
C1224 C1226 1.327 . S
C1224 H1249 0.950 . S
C1225 C1224 1.349 . S
C1225 C1241 1.349 . S
C1226 C1224 1.327 . S
C1226 C1245 1.429 . S
C1226 H1250 0.950 . S
C1227 C1244 1.574 . S
C1227 C1246 1.368 . S
C1227 H1251 0.949 . S
H1228 C1232 0.949 . S
C1229 C1230 1.349 . S
C1229 C1231 1.327 . S
C1229 H1252 0.950 . S
C1230 C1229 1.349 . S
C1230 C1242 1.349 . S
C1231 C1229 1.327 . S
C1231 C1247 1.429 . S
C1231 H1253 0.950 . S
C1232 H1228 0.949 . S
C1232 C1240 1.574 . S
C1232 C1248 1.368 . S
H1233 C1241 0.950 . S
H1234 C1239 0.950 . S
H1235 C1240 0.949 . S
H1236 C1242 0.950 . S
H1237 C1243 0.950 . S
H1238 C1244 0.949 . S
C1239 H1234 0.950 . S
C1239 C1241 1.327 . S
C1239 C1245 1.429 . S
C1240 C1232 1.574 . S
C1240 H1235 0.949 . S
C1240 C1246 1.368 . S
C1241 C1225 1.349 . S
C1241 H1233 0.950 . S
C1241 C1239 1.327 . S
C1242 C1230 1.349 . S
C1242 H1236 0.950 . S
C1242 C1243 1.327 . S
C1243 H1237 0.950 . S
C1243 C1242 1.327 . S
C1243 C1247 1.429 . S
C1244 C1227 1.574 . S
C1244 H1238 0.949 . S
C1244 C1248 1.368 . S
C1245 C1226 1.429 . S
C1245 C1239 1.429 . S
C1245 C1246 1.523 . S
C1246 C1227 1.368 . S
C1246 C1240 1.368 . S
C1246 C1245 1.523 . S
C1247 C1231 1.429 . S
C1247 C1243 1.429 . S
C1247 C1248 1.523 . S
C1248 C1232 1.368 . S
C1248 C1244 1.368 . S
C1248 C1247 1.523 . S
H1249 C1224 0.950 . S
H1250 C1226 0.950 . S
H1251 C1227 0.949 . S
H1252 C1229 0.950 . S
H1253 C1231 0.950 . S
C1254 C1255 1.349 . S
C1254 C1256 1.327 . S
C1254 H1279 0.950 . S
C1255 C1254 1.349 . S
C1255 C1271 1.349 . S
C1256 C1254 1.327 . S
C1256 C1275 1.429 . S
C1256 H1280 0.950 . S
C1257 C1274 1.574 . S
C1257 C1276 1.368 . S
C1257 H1281 0.949 . S
H1258 C1262 0.949 . S
C1259 C1260 1.349 . S
C1259 C1261 1.327 . S
C1259 H1282 0.950 . S
C1260 C1259 1.349 . S
C1260 C1272 1.349 . S
C1261 C1259 1.327 . S
C1261 C1277 1.429 . S
C1261 H1283 0.950 . S
C1262 H1258 0.949 . S
C1262 C1270 1.574 . S
C1262 C1278 1.368 . S
H1263 C1271 0.950 . S
H1264 C1269 0.950 . S
H1265 C1270 0.949 . S
H1266 C1272 0.950 . S
H1267 C1273 0.950 . S
H1268 C1274 0.949 . S
C1269 H1264 0.950 . S
C1269 C1271 1.327 . S
C1269 C1275 1.429 . S
C1270 C1262 1.574 . S
C1270 H1265 0.949 . S
C1270 C1276 1.368 . S
C1271 C1255 1.349 . S
C1271 H1263 0.950 . S
C1271 C1269 1.327 . S
C1272 C1260 1.349 . S
C1272 H1266 0.950 . S
C1272 C1273 1.327 . S
C1273 H1267 0.950 . S
C1273 C1272 1.327 . S
C1273 C1277 1.429 . S
C1274 C1257 1.574 . S
C1274 H1268 0.949 . S
C1274 C1278 1.368 . S
C1275 C1256 1.429 . S
C1275 C1269 1.429 . S
C1275 C1276 1.523 . S
C1276 C1257 1.368 . S
C1276 C1270 1.368 . S
C1276 C1275 1.523 . S
C1277 C1261 1.429 . S
C1277 C1273 1.429 . S
C1277 C1278 1.523 . S
C1278 C1262 1.368 . S
C1278 C1274 1.368 . S
C1278 C1277 1.523 . S
H1279 C1254 0.950 . S
H1280 C1256 0.950 . S
H1281 C1257 0.949 . S
H1282 C1259 0.950 . S
H1283 C1261 0.950 . S
C1284 C1285 1.349 . S
C1284 C1286 1.327 . S
C1284 H1309 0.950 . S
C1285 C1284 1.349 . S
C1285 C1301 1.349 . S
C1286 C1284 1.327 . S
C1286 C1305 1.429 . S
C1286 H1310 0.950 . S
C1287 C1304 1.574 . S
C1287 C1306 1.368 . S
C1287 H1311 0.949 . S
H1288 C1292 0.949 . S
C1289 C1290 1.349 . S
C1289 C1291 1.327 . S
C1289 H1312 0.950 . S
C1290 C1289 1.349 . S
C1290 C1302 1.349 . S
C1291 C1289 1.327 . S
C1291 C1307 1.429 . S
C1291 H1313 0.950 . S
C1292 H1288 0.949 . S
C1292 C1300 1.574 . S
C1292 C1308 1.368 . S
H1293 C1301 0.950 . S
H1294 C1299 0.950 . S
H1295 C1300 0.949 . S
H1296 C1302 0.950 . S
H1297 C1303 0.950 . S
H1298 C1304 0.949 . S
C1299 H1294 0.950 . S
C1299 C1301 1.327 . S
C1299 C1305 1.429 . S
C1300 C1292 1.574 . S
C1300 H1295 0.949 . S
C1300 C1306 1.368 . S
C1301 C1285 1.349 . S
C1301 H1293 0.950 . S
C1301 C1299 1.327 . S
C1302 C1290 1.349 . S
C1302 H1296 0.950 . S
C1302 C1303 1.327 . S
C1303 H1297 0.950 . S
C1303 C1302 1.327 . S
C1303 C1307 1.429 . S
C1304 C1287 1.574 . S
C1304 H1298 0.949 . S
C1304 C1308 1.368 . S
C1305 C1286 1.429 . S
C1305 C1299 1.429 . S
C1305 C1306 1.523 . S
C1306 C1287 1.368 . S
C1306 C1300 1.368 . S
C1306 C1305 1.523 . S
C1307 C1291 1.429 . S
C1307 C1303 1.429 . S
C1307 C1308 1.523 . S
C1308 C1292 1.368 . S
C1308 C1304 1.368 . S
C1308 C1307 1.523 . S
H1309 C1284 0.950 . S
H1310 C1286 0.950 . S
H1311 C1287 0.949 . S
H1312 C1289 0.950 . S
H1313 C1291 0.950 . S
C235 C5 2.018 . S
C240 C44 2.018 . S
C265 C18 2.018 . S
C270 C55 2.018 . S
C295 C70 2.018 . S
C300 C29 2.018 . S
C325 C83 2.018 . S
C330 C122 2.018 . S
C355 C94 2.018 . S
C360 C135 2.018 . S
C385 C146 2.018 . S
C390 C107 2.018 . S
C415 C198 2.018 . S
C420 C159 2.018 . S
C445 C213 2.018 . S
C450 C174 2.018 . S
C475 C224 2.018 . S
C480 C187 2.018 . S
C505 C10 1.623 . S
C510 C127 1.623 . S
C535 C23 1.623 . S
C540 C140 1.623 . S
C565 C147 1.623 . S
C570 C30 1.623 . S
C595 C49 1.623 . S
C600 C160 1.623 . S
C625 C56 1.623 . S
C630 C179 1.623 . S
C655 C75 1.623 . S
C660 C192 1.623 . S
C685 C88 1.624 . S
C690 C199 1.624 . S
C715 C95 1.623 . S
C720 C218 1.623 . S
C745 C225 1.623 . S
C750 C108 1.623 . S
C775 C3 0.653 . S
C780 C62 0.653 . S
C805 C16 0.653 . S
C810 C69 0.653 . S
C835 C31 0.652 . S
C840 C43 0.653 . S
C865 C42 0.653 . S
C870 C17 0.653 . S
C895 C36 0.653 . S
C900 C57 0.653 . S
C925 C68 0.652 . S
C930 C4 0.653 . S
C955 C81 0.653 . S
C960 C134 0.653 . S
C985 C153 0.653 . S
C990 C96 0.653 . S
C1015 C121 0.653 . S
C1020 C109 0.652 . S
C1045 C101 0.653 . S
C1050 C120 0.653 . S
C1075 C133 0.653 . S
C1080 C114 0.653 . S
C1105 C148 0.653 . S
C1110 C82 0.653 . S
C1135 C212 0.653 . S
C1140 C161 0.653 . S
C1165 C231 0.653 . S
C1170 C172 0.653 . S
C1195 C185 0.653 . S
C1200 C205 0.653 . S
C1225 C173 0.653 . S
C1230 C200 0.653 . S
C1255 C186 0.653 . S
C1260 C211 0.653 . S
C1285 C166 0.653 . S
C1290 C226 0.652 . S
