# Generated by pormake.
# Topology sod, (4)-cn, num edge types: 1
# Building blocks:
#     Node 0, Type 0, BuildingBlock: QUQFOY_clean_sbu_1, # of connection points: 4
#     Node 1, Type 0, BuildingBlock: QUQFOY_clean_sbu_1, # of connection points: 4
#     Node 2, Type 0, BuildingBlock: QUQFOY_clean_sbu_1, # of connection points: 4
#     Node 3, Type 0, BuildingBlock: QUQFOY_clean_sbu_1, # of connection points: 4
#     Node 4, Type 0, BuildingBlock: QUQFOY_clean_sbu_1, # of connection points: 4
#     Node 5, Type 0, BuildingBlock: QUQFOY_clean_sbu_1, # of connection points: 4
#     Node 6, Type 0, BuildingBlock: QUQFOY_clean_sbu_1, # of connection points: 4
#     Node 7, Type 0, BuildingBlock: QUQFOY_clean_sbu_1, # of connection points: 4
#     Node 8, Type 0, BuildingBlock: QUQFOY_clean_sbu_1, # of connection points: 4
#     Node 9, Type 0, BuildingBlock: QUQFOY_clean_sbu_1, # of connection points: 4
#     Node 10, Type 0, BuildingBlock: QUQFOY_clean_sbu_1, # of connection points: 4
#     Node 11, Type 0, BuildingBlock: QUQFOY_clean_sbu_1, # of connection points: 4
#     Edge 12, Type (0, 0), BuildingBlock: TEMPAE_clean_linker_10, # of connection points: 2
#     Edge 13, Type (0, 0), BuildingBlock: TEMPAE_clean_linker_10, # of connection points: 2
#     Edge 14, Type (0, 0), BuildingBlock: TEMPAE_clean_linker_10, # of connection points: 2
#     Edge 15, Type (0, 0), BuildingBlock: TEMPAE_clean_linker_10, # of connection points: 2
#     Edge 16, Type (0, 0), BuildingBlock: TEMPAE_clean_linker_10, # of connection points: 2
#     Edge 17, Type (0, 0), BuildingBlock: TEMPAE_clean_linker_10, # of connection points: 2
#     Edge 18, Type (0, 0), BuildingBlock: TEMPAE_clean_linker_10, # of connection points: 2
#     Edge 19, Type (0, 0), BuildingBlock: TEMPAE_clean_linker_10, # of connection points: 2
#     Edge 20, Type (0, 0), BuildingBlock: TEMPAE_clean_linker_10, # of connection points: 2
#     Edge 21, Type (0, 0), BuildingBlock: TEMPAE_clean_linker_10, # of connection points: 2
#     Edge 22, Type (0, 0), BuildingBlock: TEMPAE_clean_linker_10, # of connection points: 2
#     Edge 23, Type (0, 0), BuildingBlock: TEMPAE_clean_linker_10, # of connection points: 2
#     Edge 24, Type (0, 0), BuildingBlock: TEMPAE_clean_linker_10, # of connection points: 2
#     Edge 25, Type (0, 0), BuildingBlock: TEMPAE_clean_linker_10, # of connection points: 2
#     Edge 26, Type (0, 0), BuildingBlock: TEMPAE_clean_linker_10, # of connection points: 2
#     Edge 27, Type (0, 0), BuildingBlock: TEMPAE_clean_linker_10, # of connection points: 2
#     Edge 28, Type (0, 0), BuildingBlock: TEMPAE_clean_linker_10, # of connection points: 2
#     Edge 29, Type (0, 0), BuildingBlock: TEMPAE_clean_linker_10, # of connection points: 2
#     Edge 30, Type (0, 0), BuildingBlock: TEMPAE_clean_linker_10, # of connection points: 2
#     Edge 31, Type (0, 0), BuildingBlock: TEMPAE_clean_linker_10, # of connection points: 2
#     Edge 32, Type (0, 0), BuildingBlock: TEMPAE_clean_linker_10, # of connection points: 2
#     Edge 33, Type (0, 0), BuildingBlock: TEMPAE_clean_linker_10, # of connection points: 2
#     Edge 34, Type (0, 0), BuildingBlock: TEMPAE_clean_linker_10, # of connection points: 2
#     Edge 35, Type (0, 0), BuildingBlock: TEMPAE_clean_linker_10, # of connection points: 2
# Relax obj value: 0.195
# Max RMSD: 0.259
# Mean RMSD: 0.229
data_MOF--net-sod--node1-QUQFOY_clean_sbu_1--edge1-TEMPAE_clean_linker_10
_symmetry_space_group_name_H-M    P1
_symmetry_Int_Tables_number       1
_symmetry_cell_setting            triclinic
loop_
_symmetry_equiv_pos_as_xyz
'x, y, z'
_cell_length_a     44.960051
_cell_length_b     44.984271
_cell_length_c     44.875984
_cell_angle_alpha  93.720573
_cell_angle_beta   89.396684
_cell_angle_gamma 97.364372
loop_
_atom_site_label
_atom_site_type_symbol
_atom_site_fract_x
_atom_site_fract_y
_atom_site_fract_z
_atom_type_partial_charge
O0 O 0.01645 0.22692 0.49698 0.0
Cd1 Cd 0.05381 0.25518 0.48547 0.0
Cd2 Cd 0.02973 0.2965 0.52489 0.0
O3 O -0.00095 0.25897 0.5298 0.0
O4 O 0.083 0.2284 0.4703 0.0
O5 O 0.09061 0.259 0.51103 0.0
C6 C 0.09966 0.23847 0.4929 0.0
C7 C 0.03644 0.32788 0.56853 0.0
C8 C -0.00295 0.23307 0.51639 0.0
C9 C 0.0399 0.3107 0.45956 0.0
O10 O 0.03142 0.31842 0.48574 0.0
O11 O 0.04968 0.28565 0.45414 0.0
O12 O 0.01218 0.32528 0.55317 0.0
O13 O 0.0576 0.31284 0.55892 0.0
O14 O 0.74125 0.03088 0.58749 0.0
Cd15 Cd 0.76684 0.03848 0.54958 0.0
Cd16 Cd 0.80616 0.01265 0.58682 0.0
O17 O 0.77224 0.01317 0.61761 0.0
O18 O 0.73815 0.05597 0.52461 0.0
O19 O 0.75587 0.0135 0.51128 0.0
C20 C 0.73887 0.03346 0.50554 0.0
C21 C 0.82644 0.96833 0.57648 0.0
C22 C 0.74679 0.02106 0.6125 0.0
C23 C 0.82867 0.07223 0.56305 0.0
O24 O 0.83379 0.05149 0.57942 0.0
O25 O 0.80372 0.07089 0.5497 0.0
O26 O 0.83344 0.98513 0.6004 0.0
O27 O 0.80713 0.97643 0.5585 0.0
O28 O 0.04553 0.82882 0.51041 0.0
Cd29 Cd 0.008 0.79741 0.51002 0.0
Cd30 Cd 0.04522 0.76892 0.54647 0.0
O31 O 0.07295 0.80841 0.54195 0.0
O32 O 0.97694 0.81909 0.49338 0.0
O33 O 0.97472 0.80325 0.53916 0.0
C34 C 0.96337 0.81738 0.51876 0.0
C35 C 0.04579 0.74738 0.5923 0.0
C36 C 0.06931 0.82967 0.52562 0.0
C37 C 0.02174 0.73669 0.48809 0.0
O38 O 0.03832 0.73747 0.51093 0.0
O39 O 0.00714 0.75835 0.48371 0.0
O40 O 0.068 0.74752 0.57396 0.0
O41 O 0.02326 0.76054 0.58505 0.0
O42 O 0.23423 0.02542 0.5465 0.0
Cd43 Cd 0.26672 0.06199 0.55207 0.0
Cd44 Cd 0.29743 0.02799 0.51285 0.0
O45 O 0.25662 0.00169 0.51005 0.0
O46 O 0.24446 0.09385 0.57037 0.0
O47 O 0.26594 0.0964 0.52582 0.0
C48 C 0.24965 0.10787 0.54633 0.0
C49 C 0.32452 0.0331 0.46854 0.0
C50 C 0.23409 0.00369 0.52697 0.0
C51 C 0.3221 0.04199 0.5752 0.0
O52 O 0.32317 0.02684 0.5504 0.0
O53 O 0.30196 0.05912 0.58001 0.0
O54 O 0.32038 0.00804 0.48119 0.0
O55 O 0.3129 0.05566 0.48092 0.0
O56 O 0.53383 0.0083 0.2349 0.0
Cd57 Cd 0.5234 0.04529 0.26052 0.0
Cd58 Cd 0.5499 0.01033 0.30507 0.0
O59 O 0.5499 0.98026 0.26843 0.0
O60 O 0.50669 0.06798 0.2296 0.0
O61 O 0.54715 0.08599 0.25566 0.0
C62 C 0.52812 0.08938 0.23519 0.0
C63 C 0.59077 0.01298 0.33716 0.0
C64 C 0.54354 0.98429 0.24161 0.0
C65 C 0.48863 0.0311 0.31696 0.0
O66 O 0.51044 0.01863 0.32582 0.0
O67 O 0.48917 0.04184 0.29146 0.0
O68 O 0.58891 0.03396 0.31919 0.0
O69 O 0.56973 0.99066 0.3364 0.0
O70 O 0.99195 0.54211 0.33206 0.0
Cd71 Cd 0.98949 0.5065 0.30059 0.0
Cd72 Cd 0.03208 0.54036 0.27265 0.0
O73 O 0.03183 0.56656 0.31177 0.0
O74 O 0.97419 0.46951 0.3205 0.0
O75 O 0.02045 0.47861 0.30266 0.0
C76 C 0.00055 0.46136 0.31667 0.0
C77 C 0.07853 0.53319 0.25211 0.0
C78 C 0.01261 0.56422 0.33268 0.0
C79 C 0.97252 0.52579 0.24195 0.0
O80 O -0.00186 0.54143 0.24244 0.0
O81 O 0.96478 0.50849 0.26271 0.0
O82 O 0.06851 0.55875 0.25219 0.0
O83 O 0.0622 0.5114 0.26413 0.0
O84 O 0.4864 0.04441 0.83007 0.0
Cd85 Cd 0.48388 0.00752 0.80015 0.0
Cd86 Cd 0.52722 0.03945 0.77093 0.0
O87 O 0.52634 0.0676 0.80869 0.0
O88 O 0.46974 0.97105 0.82146 0.0
O89 O 0.51567 0.98074 0.80291 0.0
C90 C 0.49637 0.96353 0.81763 0.0
C91 C 0.57424 0.03217 0.75179 0.0
C92 C 0.50712 0.0664 0.82965 0.0
C93 C 0.46782 0.02338 0.7399 0.0
O94 O 0.4937 0.03849 0.73983 0.0
O95 O 0.45943 0.00777 0.76178 0.0
O96 O 0.56372 0.05732 0.75019 0.0
O97 O 0.55803 0.01084 0.7646 0.0
O98 O 0.0287 0.50527 0.73471 0.0
Cd99 Cd 0.01869 0.54215 0.76075 0.0
Cd100 Cd 0.0458 0.5077 0.80445 0.0
O101 O 0.04521 0.47728 0.76801 0.0
O102 O 0.00238 0.56565 0.73028 0.0
O103 O 0.04296 0.58268 0.75664 0.0
C104 C 0.02404 0.58672 0.73628 0.0
C105 C 0.08764 0.51161 0.8354 0.0
C106 C 0.0385 0.48126 0.74128 0.0
C107 C 0.98471 0.52828 0.81753 0.0
O108 O 0.00679 0.516 0.82607 0.0
O109 O 0.9847 0.53874 0.79194 0.0
O110 O 0.06696 0.48899 0.83552 0.0
O111 O 0.08486 0.53214 0.81715 0.0
O112 O 0.33399 0.55487 0.07378 0.0
Cd113 Cd 0.30627 0.51591 0.08055 0.0
Cd114 Cd 0.26697 0.54328 0.04498 0.0
O115 O 0.30395 0.57558 0.04513 0.0
O116 O 0.33377 0.48863 0.09421 0.0
O117 O 0.3078 0.47978 0.05215 0.0
C118 C 0.32712 0.47185 0.07022 0.0
C119 C 0.23893 0.53772 0.00099 0.0
C120 C 0.32899 0.57621 0.05815 0.0
C121 C 0.24738 0.52479 0.10751 0.0
O122 O 0.24169 0.53567 0.08307 0.0
O123 O 0.27261 0.51596 0.11168 0.0
O124 O 0.23816 0.56042 0.01983 0.0
O125 O 0.25608 0.51794 0.00691 0.0
O126 O 0.54834 0.33215 0.00928 0.0
Cd127 Cd 0.51042 0.30121 0.00728 0.0
Cd128 Cd 0.54724 0.27059 0.04317 0.0
O129 O 0.57549 0.30991 0.03956 0.0
O130 O 0.48041 0.3239 0.99022 0.0
O131 O 0.47637 0.30697 0.03552 0.0
C132 C 0.46597 0.32178 0.01509 0.0
C133 C 0.54785 0.248 0.08845 0.0
C134 C 0.57209 0.33201 0.02428 0.0
C135 C 0.52313 0.24035 0.98407 0.0
O136 O 0.53941 0.24005 0.00697 0.0
O137 O 0.50932 0.26267 0.9801 0.0
O138 O 0.56978 0.24799 0.0698 0.0
O139 O 0.52554 0.26177 0.08179 0.0
O140 O 0.7355 0.52877 0.05316 0.0
Cd141 Cd 0.76732 0.5659 0.05883 0.0
Cd142 Cd 0.79882 0.53338 0.01841 0.0
O143 O 0.7584 0.50636 0.01618 0.0
O144 O 0.74464 0.59777 0.07637 0.0
O145 O 0.76648 0.59971 0.03192 0.0
C146 C 0.74994 0.61139 0.05209 0.0
C147 C 0.82533 0.53681 0.97356 0.0
C148 C 0.73586 0.50744 0.03327 0.0
C149 C 0.82387 0.54762 0.08085 0.0
O150 O 0.82524 0.53324 0.05566 0.0
O151 O 0.80294 0.56363 0.08647 0.0
O152 O 0.82152 0.51239 0.98729 0.0
O153 O 0.81386 0.55976 0.98522 0.0
O154 O 0.51859 0.7308 -0.00372 0.0
Cd155 Cd 0.55622 0.7591 0.98561 0.0
Cd156 Cd 0.5324 0.79974 0.02527 0.0
O157 O 0.50144 0.76234 0.02979 0.0
O158 O 0.58581 0.73252 0.97098 0.0
O159 O 0.59237 0.76282 0.01204 0.0
C160 C 0.60187 0.74242 0.99406 0.0
C161 C 0.53971 0.83065 0.06917 0.0
C162 C 0.49922 0.73671 0.01581 0.0
C163 C 0.54244 0.81482 0.96021 0.0
O164 O 0.53384 0.82217 0.98644 0.0
O165 O 0.55244 0.78992 0.95453 0.0
O166 O 0.51529 0.82835 0.05407 0.0
O167 O 0.56065 0.81552 0.05918 0.0
C168 C 0.03327 0.36094 0.44222 0.0
C169 C 0.03761 0.33097 0.43527 0.0
C170 C 0.02939 0.3802 0.4197 0.0
C171 C 0.02952 0.36916 0.38944 0.0
C172 C 0.03462 0.33914 0.38216 0.0
C173 C 0.03877 0.32039 0.40521 0.0
C174 C 0.02438 0.41221 0.42837 0.0
C175 C 0.03469 0.32658 0.35014 0.0
C176 C 0.98549 0.41373 0.34142 0.0
C177 C 0.00827 0.43441 0.3304 0.0
C178 C 0.99229 0.39083 0.35892 0.0
C179 C 0.02258 0.38885 0.36584 0.0
C180 C 0.04578 0.40839 0.35311 0.0
C181 C 0.03833 0.4309 0.33535 0.0
C182 C 0.96693 0.37009 0.37167 0.0
C183 C 0.07834 0.40699 0.36002 0.0
H184 H 0.03266 0.36936 0.46538 0.0
H185 H 0.04208 0.29723 0.39969 0.0
H186 H 0.04068 0.42807 0.41661 0.0
H187 H 0.00158 0.41591 0.42151 0.0
H188 H 0.02667 0.41774 0.4528 0.0
H189 H 0.04135 0.30359 0.34811 0.0
H190 H 0.01194 0.32576 0.34052 0.0
H191 H 0.05023 0.3414 0.33652 0.0
H192 H 0.96222 0.41612 0.33733 0.0
H193 H 0.05604 0.4468 0.32681 0.0
H194 H 0.965 0.37568 0.39601 0.0
H195 H 0.97147 0.34641 0.3687 0.0
H196 H 0.94508 0.37198 0.36108 0.0
H197 H 0.08305 0.4156 0.38345 0.0
H198 H 0.09365 0.42065 0.34511 0.0
H199 H 0.08343 0.38346 0.35788 0.0
C200 C 0.72478 0.01026 0.45445 0.0
C201 C 0.71999 0.03062 0.47848 0.0
C202 C 0.70628 0.00726 0.42908 0.0
C203 C 0.68216 0.02459 0.42812 0.0
C204 C 0.6775 0.04538 0.4522 0.0
C205 C 0.69661 0.04831 0.47694 0.0
C206 C 0.7122 0.98524 0.40356 0.0
C207 C 0.65172 0.0639 0.45229 0.0
C208 C 0.64115 0.03574 0.35689 0.0
C209 C 0.61547 0.01472 0.35895 0.0
C210 C 0.66387 0.03827 0.37853 0.0
C211 C 0.66045 0.01974 0.403 0.0
C212 C 0.63486 -0.00194 0.40479 0.0
C213 C 0.61283 -0.00434 0.38262 0.0
C214 C 0.69112 0.06128 0.37565 0.0
C215 C 0.63009 0.97824 0.43079 0.0
H216 H 0.74297 -0.00329 0.45545 0.0
H217 H 0.69272 0.06403 0.49547 0.0
H218 H 0.69328 0.96681 0.40145 0.0
H219 H 0.71371 -0.00349 0.38222 0.0
H220 H 0.73323 0.97528 0.4067 0.0
H221 H 0.6517 0.07963 0.47243 0.0
H222 H 0.65277 0.0771 0.43219 0.0
H223 H 0.63013 0.04884 0.45148 0.0
H224 H 0.64341 0.05036 0.3385 0.0
H225 H 0.59301 0.97938 0.3844 0.0
H226 H 0.7119 0.05077 0.37812 0.0
H227 H 0.69103 0.07926 0.39376 0.0
H228 H 0.69186 0.07175 0.35385 0.0
H229 H 0.64973 0.96602 0.43338 0.0
H230 H 0.60967 0.96157 0.42812 0.0
H231 H 0.62792 0.99232 0.45175 0.0
C232 C 0.037 0.61221 0.35763 0.0
C233 C 0.01402 0.58793 0.35722 0.0
C234 C 0.03807 0.63565 0.37983 0.0
C235 C 0.01563 0.63479 0.40219 0.0
C236 C 0.99269 0.61013 0.40231 0.0
C237 C 0.99214 0.58693 0.37977 0.0
C238 C 0.06294 0.66159 0.37905 0.0
C239 C 0.96848 0.6085 0.42594 0.0
C240 C 0.03381 0.68528 0.47219 0.0
C241 C 0.01943 0.71023 0.4665 0.0
C242 C 0.03219 0.66022 0.45174 0.0
C243 C 0.01591 0.66021 0.42495 0.0
C244 C 0.001 0.68509 0.41923 0.0
C245 C 0.0029 0.70982 0.44011 0.0
C246 C 0.04831 0.634 0.45857 0.0
C247 C 0.9835 0.68585 0.39079 0.0
H248 H 0.05407 0.61313 0.34037 0.0
H249 H 0.97435 0.56823 0.37964 0.0
H250 H 0.05329 0.68274 0.3763 0.0
H251 H 0.07538 0.6644 0.40048 0.0
H252 H 0.0791 0.65842 0.36057 0.0
H253 H 0.95288 0.58725 0.42352 0.0
H254 H 0.9787 0.61041 0.44849 0.0
H255 H 0.95534 0.62763 0.42462 0.0
H256 H 0.0465 0.68533 0.4926 0.0
H257 H 0.99167 0.72896 0.43556 0.0
H258 H 0.06607 0.63122 0.44164 0.0
H259 H 0.03246 0.61292 0.45733 0.0
H260 H 0.05882 0.63695 0.48104 0.0
H261 H -0.00123 0.68488 0.37126 0.0
H262 H 0.97228 0.70642 0.39025 0.0
H263 H 0.96621 0.66592 0.38827 0.0
C264 C 0.34784 0.00987 0.42392 0.0
C265 C 0.34356 0.03579 0.44165 0.0
C266 C 0.36913 0.01087 0.4009 0.0
C267 C 0.38695 0.03836 0.39588 0.0
C268 C 0.38158 0.06496 0.41262 0.0
C269 C 0.35969 0.0634 0.43524 0.0
C270 C 0.37375 0.98211 0.38317 0.0
C271 C 0.4003 0.09466 0.40804 0.0
C272 C 0.46507 0.02935 0.3675 0.0
C273 C 0.46264 0.03378 0.33702 0.0
C274 C 0.44084 0.03177 0.38698 0.0
C275 C 0.41331 0.03836 0.37566 0.0
C276 C 0.41073 0.04317 0.345 0.0
C277 C 0.43553 0.04101 0.32603 0.0
C278 C 0.44459 0.0268 0.41963 0.0
C279 C 0.3816 0.04987 0.33212 0.0
H280 H 0.3351 0.98854 0.42861 0.0
H281 H 0.35643 0.08345 0.44898 0.0
H282 H 0.3746 0.9856 0.35891 0.0
H283 H 0.39553 0.9751 0.38936 0.0
H284 H 0.35571 0.96352 0.38729 0.0
H285 H 0.39093 0.11373 0.4201 0.0
H286 H 0.42338 0.09406 0.41631 0.0
H287 H 0.40205 0.0988 0.38395 0.0
H288 H 0.48603 0.02409 0.37624 0.0
H289 H 0.4335 0.04447 0.3025 0.0
H290 H 0.42946 0.00662 0.42569 0.0
H291 H 0.43824 0.04622 0.43369 0.0
H292 H 0.46796 0.02364 0.42515 0.0
H293 H 0.36406 0.0304 0.33437 0.0
H294 H 0.38374 0.05464 0.30816 0.0
H295 H 0.37372 0.06942 0.34472 0.0
C296 C 0.01306 0.61322 0.69164 0.0
C297 C 0.02728 0.61402 0.71937 0.0
C298 C 0.01663 0.63815 0.67427 0.0
C299 C 0.03435 0.66485 0.68518 0.0
C300 C 0.04789 0.66623 0.71368 0.0
C301 C 0.04453 0.64058 0.73033 0.0
C302 C 0.00229 0.63551 0.64374 0.0
C303 C 0.06629 0.69459 0.72629 0.0
C304 C 0.06726 0.7111 0.6228 0.0
C305 C 0.04537 0.7302 0.61932 0.0
C306 C 0.06491 0.69092 0.64542 0.0
C307 C 0.04034 0.69019 0.66544 0.0
C308 C 0.01946 0.71104 0.66354 0.0
C309 C 0.02203 0.73065 0.64025 0.0
C310 C 0.08744 0.6688 0.64635 0.0
C311 C 0.99342 0.71144 0.685 0.0
H312 H -0.00022 0.5927 0.68302 0.0
H313 H 0.05529 0.64133 0.75192 0.0
H314 H 0.98752 0.65325 0.64197 0.0
H315 H 0.01991 0.63882 0.62633 0.0
H316 H 0.98877 0.6133 0.63883 0.0
H317 H 0.0726 0.69301 0.74996 0.0
H318 H 0.0871 0.69916 0.71298 0.0
H319 H 0.05363 0.71406 0.72482 0.0
H320 H 0.08547 0.7107 0.60682 0.0
H321 H 0.00523 0.7456 0.63788 0.0
H322 H 0.07633 0.64589 0.63969 0.0
H323 H 0.09609 0.6683 0.66933 0.0
H324 H 0.10674 0.6742 0.63112 0.0
H325 H 0.97645 0.69175 0.67945 0.0
H326 H 0.98246 0.73212 0.68393 0.0
H327 H 0.00092 0.70978 0.70824 0.0
C328 C 0.45515 0.04434 0.69207 0.0
C329 C 0.4471 0.0248 0.71479 0.0
C330 C 0.43531 0.04694 0.6688 0.0
C331 C 0.4068 0.02948 0.66816 0.0
C332 C 0.3987 0.00932 0.69067 0.0
C333 C 0.41894 0.00726 0.71378 0.0
C334 C 0.44466 0.06872 0.64516 0.0
C335 C 0.36852 0.9902 0.69054 0.0
C336 C 0.34438 0.05702 0.62562 0.0
C337 C 0.34409 0.03914 0.5988 0.0
C338 C 0.36475 0.05414 0.64837 0.0
C339 C 0.3852 0.03278 0.64422 0.0
C340 C 0.38509 0.0147 0.61723 0.0
C341 C 0.36457 0.01815 0.59479 0.0
C342 C 0.36437 0.07392 0.67685 0.0
C343 C 0.40655 0.99163 0.61211 0.0
H344 H 0.47686 0.05798 0.69266 0.0
H345 H 0.41258 0.99204 0.73118 0.0
H346 H 0.44323 0.05678 0.62271 0.0
H347 H 0.42914 0.08603 0.64534 0.0
H348 H 0.46788 0.08019 0.64856 0.0
H349 H 0.36605 0.97498 0.70918 0.0
H350 H 0.3504 0.00481 0.69235 0.0
H351 H 0.36524 0.97643 0.66913 0.0
H352 H 0.32867 0.07332 0.62889 0.0
H353 H 0.36447 0.00417 0.57418 0.0
H354 H 0.38667 0.08732 0.68053 0.0
H355 H 0.35981 0.05984 0.69619 0.0
H356 H 0.34717 0.08955 0.67647 0.0
H357 H 0.43002 0.0027 0.61392 0.0
H358 H 0.40352 0.9793 0.58986 0.0
H359 H 0.40328 0.97513 0.62957 0.0
C360 C 0.01349 0.35592 0.61039 0.0
C361 C 0.0394 0.34767 0.59619 0.0
C362 C 0.01535 0.37612 0.63556 0.0
C363 C 0.04386 0.38882 0.64655 0.0
C364 C 0.07016 0.38001 0.63281 0.0
C365 C 0.06761 0.35927 0.60785 0.0
C366 C 0.98675 0.38456 0.64983 0.0
C367 C 0.10092 0.39337 0.64374 0.0
C368 C 0.04275 0.465 0.68734 0.0
C369 C 0.04204 0.45779 0.7173 0.0
C370 C 0.04484 0.44295 0.66416 0.0
C371 C 0.04578 0.41283 0.67106 0.0
C372 C 0.04586 0.40549 0.70126 0.0
C373 C 0.04421 0.42813 0.72408 0.0
C374 C 0.04507 0.45176 0.63223 0.0
C375 C 0.04644 0.37354 0.70945 0.0
H376 H 0.99161 0.34672 0.60166 0.0
H377 H 0.08767 0.35294 0.59688 0.0
H378 H 0.98694 0.38162 0.67418 0.0
H379 H 0.98507 0.40859 0.64691 0.0
H380 H 0.96645 0.3709 0.64001 0.0
H381 H 0.11904 0.38254 0.6321 0.0
H382 H 0.10444 0.41773 0.64004 0.0
H383 H 0.10282 0.39116 0.6681 0.0
H384 H 0.04148 0.48795 0.68194 0.0
H385 H 0.04369 0.42242 0.74719 0.0
H386 H 0.02409 0.44139 0.62094 0.0
H387 H 0.06405 0.44328 0.61979 0.0
H388 H 0.04694 0.47648 0.63073 0.0
H389 H 0.0253 0.35964 0.70206 0.0
H390 H 0.0489 0.37194 0.73388 0.0
H391 H 0.06514 0.36376 0.6978 0.0
C392 C 0.60986 -0.00105 0.72872 0.0
C393 C 0.60326 0.0278 0.73772 0.0
C394 C 0.63528 0.99507 0.71114 0.0
C395 C 0.65452 0.02066 0.70285 0.0
C396 C 0.64908 0.04967 0.71381 0.0
C397 C 0.62338 0.0529 0.73094 0.0
C398 C 0.64033 0.96379 0.69978 0.0
C399 C 0.66934 0.0775 0.70586 0.0
C400 C 0.73003 0.01539 0.66554 0.0
C401 C 0.72312 0.01887 0.63564 0.0
C402 C 0.70774 0.01492 0.68773 0.0
C403 C 0.67792 0.0177 0.67968 0.0
C404 C 0.67066 0.02006 0.64938 0.0
C405 C 0.69336 0.02078 0.62779 0.0
C406 C 0.71627 0.01256 0.71985 0.0
C407 C 0.63902 0.02275 0.63985 0.0
H408 H 0.59434 0.9795 0.73399 0.0
H409 H 0.61854 0.07523 0.73825 0.0
H410 H 0.63488 0.9606 0.67563 0.0
H411 H 0.66419 0.96051 0.70224 0.0
H412 H 0.62611 0.94624 0.71166 0.0
H413 H 0.6641 0.09791 0.71911 0.0
H414 H 0.69317 0.07478 0.70954 0.0
H415 H 0.66673 0.08104 0.68183 0.0
H416 H 0.75299 0.01384 0.67173 0.0
H417 H 0.68777 0.02307 0.60468 0.0
H418 H 0.70098 0.99468 0.7301 0.0
H419 H 0.7139 0.034 0.73279 0.0
H420 H 0.73972 0.00767 0.72206 0.0
H421 H 0.62318 0.00421 0.64832 0.0
H422 H 0.63675 0.02222 0.61518 0.0
H423 H 0.6322 0.04417 0.64957 0.0
C424 C 0.4359 0.36213 0.00334 0.0
C425 C 0.43982 0.33812 0.0207 0.0
C426 C 0.41396 0.38083 0.01065 0.0
C427 C 0.39498 0.3749 0.03549 0.0
C428 C 0.39734 0.34936 0.05175 0.0
C429 C 0.4201 0.33147 0.04443 0.0
C430 C 0.41263 0.40819 0.99309 0.0
C431 C 0.37682 0.34181 0.07776 0.0
C432 C 0.37079 0.44415 0.07595 0.0
C433 C 0.34279 0.44543 0.06302 0.0
C434 C 0.38758 0.42081 0.06771 0.0
C435 C 0.37571 0.39769 0.04662 0.0
C436 C 0.34678 0.39801 0.03457 0.0
C437 C 0.33079 0.42222 0.04257 0.0
C438 C 0.41865 0.4217 0.08057 0.0
C439 C 0.33308 0.37326 0.0127 0.0
H440 H 0.45109 0.36738 0.98495 0.0
H441 H 0.42286 0.31269 0.05767 0.0
H442 H 0.38937 0.40931 0.98573 0.0
H443 H 0.41967 0.42878 0.00758 0.0
H444 H 0.42744 0.40834 0.97311 0.0
H445 H 0.3781 0.31875 0.0847 0.0
H446 H 0.38316 0.35793 0.09708 0.0
H447 H 0.35324 0.34379 0.072 0.0
H448 H 0.38021 0.46213 0.09166 0.0
H449 H 0.30901 0.42305 0.03276 0.0
H450 H 0.43554 0.42349 0.06234 0.0
H451 H 0.42064 0.40063 0.09149 0.0
H452 H 0.42426 0.44094 0.09721 0.0
H453 H 0.34521 0.37465 0.99108 0.0
H454 H 0.30899 0.37468 0.00861 0.0
H455 H 0.33529 0.35096 0.02106 0.0
C456 C 0.34915 0.62324 0.03392 0.0
C457 C 0.35311 0.60124 0.0538 0.0
C458 C 0.37252 0.64591 0.02807 0.0
C459 C 0.40044 0.64666 0.04254 0.0
C460 C 0.40439 0.62498 0.06313 0.0
C461 C 0.38069 0.6025 0.06849 0.0
C462 C 0.36752 0.66869 0.00595 0.0
C463 C 0.43382 0.62523 0.07912 0.0
C464 C 0.46988 0.68587 0.00605 0.0
C465 C 0.47392 0.71365 0.02255 0.0
C466 C 0.44599 0.66388 0.01229 0.0
C467 C 0.42575 0.66979 0.03565 0.0
C468 C 0.4297 0.69772 0.05243 0.0
C469 C 0.4537 0.71934 0.04564 0.0
C470 C 0.44239 0.63433 0.99386 0.0
C471 C 0.40861 0.70473 0.0776 0.0
H472 H 0.32795 0.62246 0.02245 0.0
H473 H 0.38395 0.58566 0.08394 0.0
H474 H 0.37228 0.69175 0.01657 0.0
H475 H 0.38323 0.66703 0.98686 0.0
H476 H 0.34423 0.66546 -0.0028 0.0
H477 H 0.43291 0.60738 0.09522 0.0
H478 H 0.45186 0.62195 0.06263 0.0
H479 H 0.44014 0.64732 0.09137 0.0
H480 H 0.48535 0.68128 0.98816 0.0
H481 H 0.45666 0.74071 0.05858 0.0
H482 H 0.42011 0.6307 0.98289 0.0
H483 H 0.44337 0.61556 0.00853 0.0
H484 H 0.45998 0.63333 0.97639 0.0
H485 H 0.38538 0.70318 0.06902 0.0
H486 H 0.41486 0.72751 0.08855 0.0
H487 H 0.40856 0.68797 0.09469 0.0
C488 C 0.6217 0.35865 0.04169 0.0
C489 C 0.5957 0.35817 0.02455 0.0
C490 C 0.64395 0.38354 0.04273 0.0
C491 C 0.64013 0.40852 0.02621 0.0
C492 C 0.61404 0.40819 0.00879 0.0
C493 C 0.59211 0.38301 0.00817 0.0
C494 C 0.67155 0.38311 0.06153 0.0
C495 C 0.60929 0.43446 0.99085 0.0
C496 C 0.68625 0.48251 0.05056 0.0
C497 C 0.71042 0.48308 0.0305 0.0
C498 C 0.66286 0.45862 0.04907 0.0
C499 C 0.6637 0.43483 0.02697 0.0
C500 C 0.68763 0.4356 0.00622 0.0
C501 C 0.71072 0.45971 0.00824 0.0
C502 C 0.63761 0.45852 0.07154 0.0
C503 C 0.68919 0.41064 0.98227 0.0
H504 H 0.62467 0.3396 0.05445 0.0
H505 H 0.57209 0.38286 0.99489 0.0
H506 H 0.69192 0.3857 0.04729 0.0
H507 H 0.67366 0.40232 0.07851 0.0
H508 H 0.67101 0.36199 0.07317 0.0
H509 H 0.5877 0.43069 0.97852 0.0
H510 H 0.60961 0.45511 0.00583 0.0
H511 H 0.62784 0.43861 0.97454 0.0
H512 H 0.68581 0.5005 0.06779 0.0
H513 H 0.72923 0.46 0.99255 0.0
H514 H 0.6374 0.43897 0.08543 0.0
H515 H 0.61571 0.45611 0.05987 0.0
H516 H 0.63964 0.47933 0.08651 0.0
H517 H 0.6909 0.38925 0.99275 0.0
H518 H 0.70869 0.41526 0.9671 0.0
H519 H 0.66838 0.4073 0.96875 0.0
C520 C 0.74347 0.65562 0.02263 0.0
C521 C 0.73474 0.63771 0.04644 0.0
C522 C 0.72619 0.67776 0.01461 0.0
C523 C 0.69919 0.68129 0.03021 0.0
C524 C 0.69127 0.66444 0.0553 0.0
C525 C 0.70937 0.64314 0.06333 0.0
C526 C 0.73594 0.69613 0.98845 0.0
C527 C 0.66241 0.66709 0.07226 0.0
C528 C 0.65059 0.74322 0.02103 0.0
C529 C 0.62903 0.7288 0.00079 0.0
C530 C 0.67491 0.72883 0.0294 0.0
C531 C 0.677 0.69907 0.01799 0.0
C532 C 0.65579 0.68488 -0.00318 0.0
C533 C 0.63233 0.70009 0.98819 0.0
C534 C 0.69769 0.74505 0.05123 0.0
C535 C 0.65679 0.65293 0.98454 0.0
H536 H 0.76329 0.65175 0.00973 0.0
H537 H 0.70251 0.62942 0.0818 0.0
H538 H 0.72198 0.68764 0.96872 0.0
H539 H 0.73275 0.72001 0.99341 0.0
H540 H 0.75982 0.69491 0.9825 0.0
H541 H 0.66068 0.65408 0.09256 0.0
H542 H 0.66054 0.69091 0.07904 0.0
H543 H 0.64305 0.65864 0.05756 0.0
H544 H 0.64825 0.76555 0.0306 0.0
H545 H 0.61568 0.6888 0.9726 0.0
H546 H 0.72078 0.74182 0.04391 0.0
H547 H 0.69409 0.73566 0.07342 0.0
H548 H 0.69599 0.7695 0.05381 0.0
H549 H 0.67895 0.6506 0.97421 0.0
H550 H 0.63913 0.64552 0.96755 0.0
H551 H 0.65374 0.63754 0.00301 0.0
C552 C 0.53537 0.86512 0.94333 0.0
C553 C 0.53968 0.83519 0.93611 0.0
C554 C 0.53056 0.88433 0.92104 0.0
C555 C 0.5297 0.87326 0.89076 0.0
C556 C 0.53489 0.84332 0.88319 0.0
C557 C 0.54 0.82463 0.906 0.0
C558 C 0.52553 0.91627 0.93 0.0
C559 C 0.53392 0.83073 0.85116 0.0
C560 C 0.48301 0.91663 0.84411 0.0
C561 C 0.50506 0.93729 0.83194 0.0
C562 C 0.49087 0.89424 0.8617 0.0
C563 C 0.5215 0.89275 0.86751 0.0
C564 C 0.54392 0.91237 0.85379 0.0
C565 C 0.53541 0.93437 0.83599 0.0
C566 C 0.4663 0.87338 0.87555 0.0
C567 C 0.57681 0.91151 0.85954 0.0
H568 H 0.53541 0.87351 0.96653 0.0
H569 H 0.54328 0.80149 0.90029 0.0
H570 H 0.54108 0.93223 0.91757 0.0
H571 H 0.50234 0.9197 0.92416 0.0
H572 H 0.52884 0.9219 0.95431 0.0
H573 H 0.54096 0.8079 0.84879 0.0
H574 H 0.51076 0.82949 0.84245 0.0
H575 H 0.54865 0.84574 0.83699 0.0
H576 H 0.45951 0.91858 0.84076 0.0
H577 H 0.55256 0.95026 0.82657 0.0
H578 H 0.46544 0.87905 0.89995 0.0
H579 H 0.47098 0.84977 0.87233 0.0
H580 H 0.44393 0.87503 0.86596 0.0
H581 H 0.58223 0.92019 0.88282 0.0
H582 H 0.59137 0.92535 0.84417 0.0
H583 H 0.58225 0.88811 0.85713 0.0
C584 C 0.19625 0.55179 0.97245 0.0
C585 C 0.21984 0.53436 0.97406 0.0
C586 C 0.17675 0.54814 0.94799 0.0
C587 C 0.18124 0.5269 0.92425 0.0
C588 C 0.20563 0.50993 0.92521 0.0
C589 C 0.22452 0.51365 0.95031 0.0
C590 C 0.1507 0.5663 0.94809 0.0
C591 C 0.2114 0.48748 0.90002 0.0
C592 C 0.11119 0.49582 0.88077 0.0
C593 C 0.11293 0.51423 0.8566 0.0
C594 C 0.13376 0.49914 0.90245 0.0
C595 C 0.15898 0.52108 0.89964 0.0
C596 C 0.1615 0.53893 0.87464 0.0
C597 C 0.13825 0.5355 0.85352 0.0
C598 C 0.12994 0.48003 0.92904 0.0
C599 C 0.18835 0.56217 0.87066 0.0
H600 H 0.19245 0.56779 0.99076 0.0
H601 H 0.24287 0.50031 0.95136 0.0
H602 H 0.15109 0.57886 0.9276 0.0
H603 H 0.12926 0.55101 0.9481 0.0
H604 H 0.15094 0.58256 0.96783 0.0
H605 H 0.23279 0.47809 0.90292 0.0
H606 H 0.1928 0.46869 0.89876 0.0
H607 H 0.21209 0.49815 0.87837 0.0
H608 H 0.09165 0.47937 0.88334 0.0
H609 H 0.1398 0.54961 0.83474 0.0
H610 H 0.12807 0.49459 0.94974 0.0
H611 H 0.14985 0.46819 0.9315 0.0
H612 H 0.10967 0.46308 0.92719 0.0
H613 H 0.18837 0.5806 0.88832 0.0
H614 H 0.18842 0.57195 0.84855 0.0
H615 H 0.20941 0.55209 0.87303 0.0
C616 C 0.53229 0.11495 0.85274 0.0
C617 C 0.50896 0.09106 0.85326 0.0
C618 C 0.53425 0.13887 0.87448 0.0
C619 C 0.51235 0.13893 0.89731 0.0
C620 C 0.48884 0.11485 0.89817 0.0
C621 C 0.48742 0.09114 0.8761 0.0
C622 C 0.55969 0.16417 0.8729 0.0
C623 C 0.46513 0.11424 0.92228 0.0
C624 C 0.53364 0.18867 0.96713 0.0
C625 C 0.51995 0.21422 0.96205 0.0
C626 C 0.53087 0.16374 0.94649 0.0
C627 C 0.51407 0.16442 0.92013 0.0
C628 C 0.49995 0.18997 0.91496 0.0
C629 C 0.50303 0.21457 0.93601 0.0
C630 C 0.54622 0.13683 0.9527 0.0
C631 C 0.48194 0.19147 0.887 0.0
H632 H 0.54909 0.11508 0.83523 0.0
H633 H 0.46933 0.07277 0.87666 0.0
H634 H 0.5506 0.18571 0.87066 0.0
H635 H 0.5729 0.16654 0.89386 0.0
H636 H 0.57505 0.16055 0.85382 0.0
H637 H 0.44855 0.09368 0.92 0.0
H638 H 0.47578 0.11541 0.94459 0.0
H639 H 0.45302 0.13417 0.92149 0.0
H640 H 0.54664 0.18813 0.98725 0.0
H641 H 0.49232 0.23418 0.93193 0.0
H642 H 0.56321 0.13334 0.93514 0.0
H643 H 0.52967 0.11627 0.95201 0.0
H644 H 0.55753 0.13943 0.97478 0.0
H645 H 0.49661 0.18991 0.86707 0.0
H646 H 0.47156 0.21258 0.88682 0.0
H647 H 0.46393 0.17214 0.88486 0.0
C648 C 0.93188 0.53847 0.82774 0.0
C649 C 0.95927 0.53139 0.83819 0.0
C650 C 0.90771 0.54141 0.84734 0.0
C651 C 0.91124 0.53758 0.8781 0.0
C652 C 0.93903 0.53104 0.88883 0.0
C653 C 0.9626 0.5278 0.86872 0.0
C654 C 0.87826 0.54797 0.83509 0.0
C655 C 0.94378 0.5271 0.92155 0.0
C656 C 0.85986 0.56541 0.93842 0.0
C657 C 0.84367 0.53828 0.94615 0.0
C658 C 0.88105 0.56588 0.91515 0.0
C659 C 0.8856 0.53864 0.8991 0.0
C660 C 0.8677 0.51159 0.90551 0.0
C661 C 0.84715 0.5117 0.92915 0.0
C662 C 0.89991 0.59511 0.90911 0.0
C663 C 0.87144 0.48217 0.88855 0.0
H664 H 0.92916 0.54128 0.80415 0.0
H665 H 0.98379 0.52267 0.87704 0.0
H666 H 0.8606 0.52892 0.83866 0.0
H667 H 0.8711 0.56816 0.84718 0.0
H668 H 0.87958 0.55167 0.81085 0.0
H669 H 0.96725 0.52378 0.92649 0.0
H670 H 0.93813 0.54706 0.93523 0.0
H671 H 0.92864 0.50736 0.92866 0.0
H672 H 0.85722 0.58598 0.9516 0.0
H673 H 0.83435 0.49074 0.93488 0.0
H674 H 0.90084 0.59843 0.88482 0.0
H675 H 0.92323 0.59445 0.91666 0.0
H676 H 0.89121 0.61471 0.92091 0.0
H677 H 0.87155 0.48479 0.86414 0.0
H678 H 0.85337 0.464 0.89378 0.0
H679 H 0.8933 0.47511 0.89436 0.0
C680 C 0.54887 0.14287 0.22759 0.0
C681 C 0.53097 0.1163 0.21769 0.0
C682 C 0.552 0.16807 0.2103 0.0
C683 C 0.53747 0.16624 0.18227 0.0
C684 C 0.51906 0.13958 0.17246 0.0
C685 C 0.51581 0.11508 0.19043 0.0
C686 C 0.57123 0.19641 0.22173 0.0
C687 C 0.50361 0.13647 0.14246 0.0
C688 C 0.52489 0.23173 0.1369 0.0
C689 C 0.54756 0.2306 0.11532 0.0
C690 C 0.52261 0.21235 0.16039 0.0
C691 C 0.54311 0.19105 0.16183 0.0
C692 C 0.56694 0.19096 0.14101 0.0
C693 C 0.56901 0.21091 0.11818 0.0
C694 C 0.49734 0.21357 0.18265 0.0
C695 C 0.58901 0.16833 0.14146 0.0
H696 H 0.5604 0.14396 0.2488 0.0
H697 H 0.502 0.09457 0.18262 0.0
H698 H 0.59156 0.20029 0.20758 0.0
H699 H 0.55885 0.21608 0.22032 0.0
H700 H 0.57838 0.19527 0.24521 0.0
H701 H 0.48954 0.11442 0.13848 0.0
H702 H 0.48916 0.1545 0.14079 0.0
H703 H 0.52062 0.13896 0.12439 0.0
H704 H 0.50844 0.24712 0.13499 0.0
H705 H 0.58669 0.20997 0.10166 0.0
H706 H 0.50562 0.21241 0.2057 0.0
H707 H 0.48006 0.19392 0.17808 0.0
H708 H 0.48653 0.23433 0.18151 0.0
H709 H 0.59855 0.16817 0.16412 0.0
H710 H 0.60774 0.17297 0.12539 0.0
H711 H 0.57724 0.1455 0.13566 0.0
C712 C 0.9585 0.54985 0.19634 0.0
C713 C 0.95136 0.52843 0.21753 0.0
C714 C 0.93825 0.55337 0.17369 0.0
C715 C 0.91029 0.53492 0.17212 0.0
C716 C 0.90307 0.51302 0.19319 0.0
C717 C 0.92367 0.51007 0.2157 0.0
C718 C 0.94666 0.57702 0.15161 0.0
C719 C 0.8735 0.49282 0.19204 0.0
C720 C 0.84605 0.56155 0.13155 0.0
C721 C 0.84645 0.54503 0.10397 0.0
C722 C 0.86686 0.55863 0.15388 0.0
C723 C 0.88849 0.53865 0.14851 0.0
C724 C 0.88918 0.52207 0.1207 0.0
C725 C 0.86819 0.5255 0.09873 0.0
C726 C 0.86561 0.57679 0.18328 0.0
C727 C 0.91192 0.5005 0.11424 0.0
H728 H 0.97981 0.56417 0.19761 0.0
H729 H 0.91801 0.49342 0.23194 0.0
H730 H 0.94594 0.56648 0.12854 0.0
H731 H 0.93018 0.59343 0.15281 0.0
H732 H 0.9694 0.58936 0.15578 0.0
H733 H 0.87153 0.47659 0.20981 0.0
H734 H 0.85472 0.50657 0.19455 0.0
H735 H 0.87084 0.48008 0.17002 0.0
H736 H 0.82938 0.57672 0.13577 0.0
H737 H 0.86867 0.51261 0.0775 0.0
H738 H 0.88745 0.59081 0.18771 0.0
H739 H 0.86152 0.56153 0.20176 0.0
H740 H 0.84771 0.59169 0.18372 0.0
H741 H 0.93496 0.51254 0.11681 0.0
H742 H 0.9096 0.48949 0.09136 0.0
H743 H 0.90934 0.48284 0.13056 0.0
C744 C 0.57149 0.86164 0.1083 0.0
C745 C 0.5431 0.85032 0.09689 0.0
C746 C 0.57446 0.88241 0.13324 0.0
C747 C 0.5484 0.89153 0.14719 0.0
C748 C 0.51971 0.87908 0.13649 0.0
C749 C 0.51743 0.85883 0.11135 0.0
C750 C 0.6054 0.89547 0.14388 0.0
C751 C 0.49135 0.88787 0.151 0.0
C752 C 0.54933 0.93115 0.22458 0.0
C753 C 0.54724 0.96079 0.21771 0.0
C754 C 0.55088 0.90841 0.20184 0.0
C755 C 0.55075 0.91565 0.17161 0.0
C756 C 0.54999 0.94577 0.16461 0.0
C757 C 0.54802 0.96791 0.18773 0.0
C758 C 0.55131 0.87648 0.21014 0.0
C759 C 0.55017 0.95446 0.13265 0.0
H760 H 0.59136 0.85511 0.09712 0.0
H761 H 0.49541 0.84985 0.10282 0.0
H762 H 0.6092 0.91977 0.13995 0.0
H763 H 0.60744 0.89345 0.16826 0.0
H764 H 0.62328 0.88429 0.1322 0.0
H765 H 0.47086 0.87437 0.1414 0.0
H766 H 0.49172 0.88501 0.17536 0.0
H767 H 0.48988 0.91193 0.14804 0.0
H768 H 0.54877 0.9255 0.24772 0.0
H769 H 0.54682 0.99085 0.18224 0.0
H770 H 0.56975 0.86644 0.19827 0.0
H771 H 0.52997 0.86274 0.20311 0.0
H772 H 0.5541 0.875 0.23455 0.0
H773 H 0.56895 0.94569 0.12013 0.0
H774 H 0.55232 0.97919 0.13105 0.0
H775 H 0.52904 0.94429 0.12151 0.0
C776 C 0.19451 0.52581 0.12431 0.0
C777 C 0.22419 0.52242 0.13114 0.0
C778 C 0.17229 0.5247 0.14643 0.0
C779 C 0.17999 0.52042 0.17621 0.0
C780 C 0.20973 0.51625 0.1832 0.0
C781 C 0.23151 0.51716 0.16049 0.0
C782 C 0.14071 0.52893 0.13802 0.0
C783 C 0.21873 0.51185 0.21476 0.0
C784 C 0.12755 0.55408 0.2311 0.0
C785 C 0.10707 0.52894 0.23695 0.0
C786 C 0.15269 0.55125 0.21299 0.0
C787 C 0.15716 0.52262 0.20009 0.0
C788 C 0.13755 0.49688 0.20737 0.0
C789 C 0.11274 0.50034 0.22596 0.0
C790 C 0.17338 0.57918 0.20617 0.0
C791 C 0.14156 0.46601 0.19392 0.0
H792 H 0.18859 0.52952 0.10162 0.0
H793 H 0.25442 0.51447 0.1659 0.0
H794 H 0.12455 0.51024 0.14573 0.0
H795 H 0.1347 0.55007 0.14922 0.0
H796 H 0.13802 0.52997 0.11355 0.0
H797 H 0.24208 0.5064 0.21605 0.0
H798 H 0.21694 0.53266 0.229 0.0
H799 H 0.20334 0.49356 0.22425 0.0
H800 H 0.12343 0.5762 0.23992 0.0
H801 H 0.09693 0.48085 0.23049 0.0
H802 H 0.17037 0.58424 0.1826 0.0
H803 H 0.19714 0.57564 0.20891 0.0
H804 H 0.16893 0.59904 0.22078 0.0
H805 H 0.1357 0.46447 0.16986 0.0
H806 H 0.1271 0.44801 0.20497 0.0
H807 H 0.16528 0.4619 0.19552 0.0
C808 C 0.8701 0.94044 0.58135 0.0
C809 C 0.84175 0.94169 0.56921 0.0
C810 C 0.88655 0.91689 0.57288 0.0
C811 C 0.87395 0.89352 0.55239 0.0
C812 C 0.84465 0.89381 0.54123 0.0
C813 C 0.82903 0.91824 0.5494 0.0
C814 C 0.91802 0.91784 0.58475 0.0
C815 C 0.83016 0.86878 0.5201 0.0
C816 C 0.93262 0.85731 0.50744 0.0
C817 C 0.93725 0.83362 0.52494 0.0
C818 C 0.9109 0.8761 0.51528 0.0
C819 C 0.89282 0.87055 0.54082 0.0
C820 C 0.8958 0.84527 0.55726 0.0
C821 C 0.91838 0.82731 0.54939 0.0
C822 C 0.90891 0.90319 0.49751 0.0
C823 C 0.87619 0.83808 0.584 0.0
H824 H 0.88006 0.95862 0.59657 0.0
H825 H 0.80696 0.91905 0.54022 0.0
H826 H 0.92032 0.89693 0.59583 0.0
H827 H 0.9343 0.91928 0.56597 0.0
H828 H 0.92421 0.93729 0.60101 0.0
H829 H 0.80592 0.87015 0.51691 0.0
H830 H 0.84142 0.86989 0.49802 0.0
H831 H 0.83276 0.84661 0.52855 0.0
H832 H 0.94717 0.8623 0.48851 0.0
H833 H 0.92167 0.80877 0.56275 0.0
H834 H 0.91638 0.92396 0.51158 0.0
H835 H 0.88541 0.9042 0.49088 0.0
H836 H 0.92304 0.90306 0.47705 0.0
H837 H 0.88326 0.85435 0.60301 0.0
H838 H 0.87766 0.81508 0.59102 0.0
H839 H 0.85243 0.84013 0.57905 0.0
C840 C 0.95181 0.21599 0.54674 0.0
C841 C 0.97203 0.20995 0.52376 0.0
C842 C 0.92814 0.1943 0.5542 0.0
C843 C 0.92453 0.16593 0.53822 0.0
C844 C 0.94478 0.15966 0.51498 0.0
C845 C 0.96834 0.18173 0.50806 0.0
C846 C 0.90703 0.20172 0.5792 0.0
C847 C 0.94152 0.12964 0.49739 0.0
C848 C 0.88018 0.09928 0.57288 0.0
C849 C 0.85256 0.09732 0.55814 0.0
C850 C 0.90367 0.1218 0.56695 0.0
C851 C 0.89946 0.14278 0.54571 0.0
C852 C 0.87149 0.14132 0.53117 0.0
C853 C 0.84835 0.11865 0.5376 0.0
C854 C 0.93317 0.12282 0.58303 0.0
C855 C 0.8662 0.16335 0.50837 0.0
H856 H 0.95452 0.23769 0.55907 0.0
H857 H 0.98382 0.17686 0.49027 0.0
H858 H 0.88375 0.19967 0.57064 0.0
H859 H 0.90721 0.18548 0.59676 0.0
H860 H 0.91306 0.22478 0.58957 0.0
H861 H 0.95913 0.12835 0.47997 0.0
H862 H 0.94275 0.11138 0.51263 0.0
H863 H 0.91924 0.12541 0.48643 0.0
H864 H 0.88364 0.08296 0.58883 0.0
H865 H 0.82711 0.11733 0.52608 0.0
H866 H 0.93928 0.14526 0.59467 0.0
H867 H 0.95123 0.11928 0.56665 0.0
H868 H 0.93246 0.10549 0.59966 0.0
H869 H 0.87072 0.18668 0.51838 0.0
H870 H 0.8429 0.15962 0.49964 0.0
H871 H 0.88193 0.16134 0.48934 0.0
C872 C 0.11886 0.8573 0.54186 0.0
C873 C 0.09277 0.85585 0.52468 0.0
C874 C 0.14111 0.88211 0.54154 0.0
C875 C 0.1372 0.90603 0.52358 0.0
C876 C 0.11098 0.90476 0.50616 0.0
C877 C 0.08905 0.87967 0.50691 0.0
C878 C 0.16883 0.88272 0.56042 0.0
C879 C 0.10613 0.9299 0.48673 0.0
C880 C 0.18391 0.98057 0.54456 0.0
C881 C 0.20816 0.97985 0.52471 0.0
C882 C 0.1602 0.95702 0.54394 0.0
C883 C 0.1608 0.93223 0.52294 0.0
C884 C 0.18472 0.93178 0.50226 0.0
C885 C 0.20812 0.9556 0.50339 0.0
C886 C 0.13497 0.95825 0.56628 0.0
C887 C 0.18601 0.90573 0.47948 0.0
H888 H 0.12193 0.83905 0.55568 0.0
H889 H 0.06895 0.87877 0.49358 0.0
H890 H 0.18911 0.88446 0.54602 0.0
H891 H 0.17108 0.90279 0.57636 0.0
H892 H 0.16835 0.86237 0.57327 0.0
H893 H 0.08443 0.9255 0.47462 0.0
H894 H 0.10663 0.95129 0.50059 0.0
H895 H 0.12454 0.93307 0.47013 0.0
H896 H 0.18369 -0.00074 0.56104 0.0
H897 H 0.22668 0.9549 0.48786 0.0
H898 H 0.13484 0.93969 0.58143 0.0
H899 H 0.11305 0.95507 0.55462 0.0
H900 H 0.137 0.97987 0.58001 0.0
H901 H 0.18792 0.88499 0.49103 0.0
H902 H 0.20531 0.9096 0.46393 0.0
H903 H 0.16503 0.90168 0.46623 0.0
C904 C 0.14925 0.23966 0.51836 0.0
C905 C 0.12708 0.22499 0.49891 0.0
C906 C 0.17396 0.22546 0.526 0.0
C907 C 0.17583 0.19563 0.51467 0.0
C908 C 0.15396 0.18117 0.49429 0.0
C909 C 0.13012 0.1962 0.48635 0.0
C910 C 0.1974 0.24195 0.54698 0.0
C911 C 0.15473 0.14914 0.48213 0.0
C912 C 0.24247 0.15218 0.51725 0.0
C913 C 0.23449 0.13438 0.54131 0.0
C914 C 0.22496 0.17435 0.5098 0.0
C915 C 0.1985 0.17804 0.52627 0.0
C916 C 0.19144 0.16138 0.55167 0.0
C917 C 0.20974 0.14004 0.55908 0.0
C918 C 0.23382 0.19252 0.48328 0.0
C919 C 0.16318 0.16422 0.56958 0.0
H920 H 0.14712 0.26206 0.52788 0.0
H921 H 0.113 0.18472 0.47137 0.0
H922 H 0.19451 0.23289 0.56937 0.0
H923 H 0.22025 0.23862 0.53899 0.0
H924 H 0.19573 0.26642 0.54937 0.0
H925 H 0.13651 0.14151 0.46579 0.0
H926 H 0.17655 0.1468 0.47107 0.0
H927 H 0.15241 0.13394 0.50077 0.0
H928 H 0.26181 0.14816 0.50367 0.0
H929 H 0.20348 0.12644 0.57778 0.0
H930 H 0.23065 0.21641 0.48823 0.0
H931 H 0.2193 0.18382 0.464 0.0
H932 H 0.25753 0.19132 0.47665 0.0
H933 H 0.16148 0.1881 0.57627 0.0
H934 H 0.1622 0.15145 0.59002 0.0
H935 H 0.14332 0.15561 0.5556 0.0
loop_
_geom_bond_atom_site_label_1
_geom_bond_atom_site_label_2
_geom_bond_distance
_geom_bond_site_symmetry_2
_ccdc_geom_bond_type
O0 Cd1 2.223 . S
O0 C8 1.315 1_455 S
Cd1 O0 2.223 . S
Cd1 O4 2.297 . S
Cd1 O5 2.439 . S
Cd1 O11 2.240 . S
Cd2 O3 2.240 . S
Cd2 O10 2.223 . S
Cd2 O12 2.297 1_655 S
Cd2 O13 2.439 1_655 S
O3 Cd2 2.240 . S
O3 C8 1.280 . S
O4 Cd1 2.297 . S
O4 C6 1.247 . S
O5 Cd1 2.439 . S
O5 C6 1.208 . S
C6 O4 1.247 . S
C6 O5 1.208 . S
C7 O12 1.247 . S
C7 O13 1.208 . S
C8 O0 1.315 1_655 S
C8 O3 1.280 . S
C9 O10 1.315 1_455 S
C9 O11 1.279 . S
O10 Cd2 2.223 . S
O10 C9 1.315 1_655 S
O11 Cd1 2.240 . S
O11 C9 1.279 . S
O12 Cd2 2.297 1_455 S
O12 C7 1.247 . S
O13 Cd2 2.439 1_455 S
O13 C7 1.208 . S
O14 Cd15 2.223 . S
O14 C22 1.315 . S
Cd15 O14 2.223 . S
Cd15 O18 2.297 . S
Cd15 O19 2.439 . S
Cd15 O25 2.240 . S
Cd16 O17 2.240 . S
Cd16 O24 2.223 . S
Cd16 O26 2.297 1_545 S
Cd16 O27 2.439 1_545 S
O17 Cd16 2.240 . S
O17 C22 1.279 . S
O18 Cd15 2.297 . S
O18 C20 1.247 . S
O19 Cd15 2.439 . S
O19 C20 1.208 . S
C20 O18 1.247 . S
C20 O19 1.208 . S
C21 O26 1.247 . S
C21 O27 1.208 . S
C22 O14 1.315 . S
C22 O17 1.279 . S
C23 O24 1.315 . S
C23 O25 1.279 . S
O24 Cd16 2.223 . S
O24 C23 1.315 . S
O25 Cd15 2.240 . S
O25 C23 1.279 . S
O26 Cd16 2.297 1_565 S
O26 C21 1.247 . S
O27 Cd16 2.439 1_565 S
O27 C21 1.208 . S
O28 Cd29 2.223 . S
O28 C36 1.315 . S
Cd29 O28 2.223 . S
Cd29 O32 2.297 1_455 S
Cd29 O33 2.439 1_455 S
Cd29 O39 2.240 . S
Cd30 O31 2.240 . S
Cd30 O38 2.223 . S
Cd30 O40 2.297 . S
Cd30 O41 2.439 . S
O31 Cd30 2.240 . S
O31 C36 1.279 . S
O32 Cd29 2.297 1_655 S
O32 C34 1.247 . S
O33 Cd29 2.439 1_655 S
O33 C34 1.208 . S
C34 O32 1.247 . S
C34 O33 1.208 . S
C35 O40 1.247 . S
C35 O41 1.208 . S
C36 O28 1.315 . S
C36 O31 1.279 . S
C37 O38 1.315 . S
C37 O39 1.279 . S
O38 Cd30 2.223 . S
O38 C37 1.315 . S
O39 Cd29 2.240 . S
O39 C37 1.279 . S
O40 Cd30 2.297 . S
O40 C35 1.247 . S
O41 Cd30 2.439 . S
O41 C35 1.208 . S
O42 Cd43 2.223 . S
O42 C50 1.315 1_545 S
Cd43 O42 2.223 . S
Cd43 O46 2.297 . S
Cd43 O47 2.439 . S
Cd43 O53 2.240 . S
Cd44 O45 2.246 . S
Cd44 O52 2.210 1_545 S
Cd44 O54 2.304 . S
Cd44 O55 2.473 . S
O45 Cd44 2.246 . S
O45 C50 1.279 1_545 S
O46 Cd43 2.297 . S
O46 C48 1.247 . S
O47 Cd43 2.439 . S
O47 C48 1.208 . S
C48 O46 1.247 . S
C48 O47 1.208 . S
C49 O54 1.247 . S
C49 O55 1.208 . S
C50 O42 1.315 1_565 S
C50 O45 1.279 1_565 S
C51 O52 1.315 1_545 S
C51 O53 1.279 . S
O52 Cd44 2.210 1_565 S
O52 C51 1.315 1_565 S
O53 Cd43 2.240 . S
O53 C51 1.279 . S
O54 Cd44 2.304 . S
O54 C49 1.247 . S
O55 Cd44 2.473 . S
O55 C49 1.208 . S
O56 Cd57 2.223 . S
O56 C64 1.315 . S
Cd57 O56 2.223 . S
Cd57 O60 2.297 . S
Cd57 O61 2.439 . S
Cd57 O67 2.240 . S
Cd58 O59 2.240 . S
Cd58 O66 2.223 . S
Cd58 O68 2.297 . S
Cd58 O69 2.439 . S
O59 Cd58 2.240 . S
O59 C64 1.279 . S
O60 Cd57 2.297 . S
O60 C62 1.247 . S
O61 Cd57 2.439 . S
O61 C62 1.208 . S
C62 O60 1.247 . S
C62 O61 1.208 . S
C63 O68 1.247 . S
C63 O69 1.208 . S
C64 O56 1.315 . S
C64 O59 1.279 . S
C65 O66 1.315 . S
C65 O67 1.279 . S
O66 Cd58 2.223 . S
O66 C65 1.315 . S
O67 Cd57 2.240 . S
O67 C65 1.279 . S
O68 Cd58 2.297 . S
O68 C63 1.247 . S
O69 Cd58 2.439 . S
O69 C63 1.208 . S
O70 Cd71 2.231 . S
O70 C78 1.315 1_655 S
Cd71 O70 2.231 . S
Cd71 O74 2.292 1_655 S
Cd71 O75 2.413 1_655 S
Cd71 O81 2.238 1_655 S
Cd72 O73 2.240 . S
Cd72 O80 2.223 . S
Cd72 O82 2.297 . S
Cd72 O83 2.439 . S
O73 Cd72 2.240 . S
O73 C78 1.279 . S
O74 Cd71 2.292 1_455 S
O74 C76 1.247 . S
O75 Cd71 2.413 1_455 S
O75 C76 1.208 . S
C76 O74 1.247 . S
C76 O75 1.208 . S
C77 O82 1.247 . S
C77 O83 1.208 . S
C78 O70 1.315 1_455 S
C78 O73 1.279 . S
C79 O80 1.315 1_655 S
C79 O81 1.279 1_655 S
O80 Cd72 2.223 . S
O80 C79 1.315 1_455 S
O81 Cd71 2.238 1_455 S
O81 C79 1.279 1_455 S
O82 Cd72 2.297 . S
O82 C77 1.247 . S
O83 Cd72 2.439 . S
O83 C77 1.208 . S
O84 Cd85 2.211 1_545 S
O84 C92 1.315 . S
Cd85 O84 2.211 1_565 S
Cd85 O88 2.303 . S
Cd85 O89 2.445 . S
Cd85 O95 2.235 1_565 S
Cd86 O87 2.240 . S
Cd86 O94 2.223 . S
Cd86 O96 2.297 . S
Cd86 O97 2.439 . S
O87 Cd86 2.240 . S
O87 C92 1.279 . S
O88 Cd85 2.303 . S
O88 C90 1.247 . S
O89 Cd85 2.445 . S
O89 C90 1.208 . S
C90 O88 1.247 . S
C90 O89 1.208 . S
C91 O96 1.247 . S
C91 O97 1.208 . S
C92 O84 1.315 . S
C92 O87 1.279 . S
C93 O94 1.315 . S
C93 O95 1.279 . S
O94 Cd86 2.223 . S
O94 C93 1.315 . S
O95 Cd85 2.235 1_545 S
O95 C93 1.279 . S
O96 Cd86 2.297 . S
O96 C91 1.247 . S
O97 Cd86 2.439 . S
O97 C91 1.208 . S
O98 Cd99 2.223 1_655 S
O98 C106 1.315 1_655 S
Cd99 O98 2.223 1_455 S
Cd99 O102 2.297 . S
Cd99 O103 2.439 . S
Cd99 O109 2.240 . S
Cd100 O101 2.240 . S
Cd100 O108 2.223 . S
Cd100 O110 2.297 . S
Cd100 O111 2.439 . S
O101 Cd100 2.240 . S
O101 C106 1.279 . S
O102 Cd99 2.297 . S
O102 C104 1.247 . S
O103 Cd99 2.439 . S
O103 C104 1.208 . S
C104 O102 1.247 . S
C104 O103 1.208 . S
C105 O110 1.247 . S
C105 O111 1.208 . S
C106 O98 1.315 1_455 S
C106 O101 1.279 . S
C107 O108 1.331 . S
C107 O109 1.287 . S
O108 Cd100 2.223 . S
O108 C107 1.331 . S
O109 Cd99 2.240 . S
O109 C107 1.287 . S
O110 Cd100 2.297 . S
O110 C105 1.247 . S
O111 Cd100 2.439 . S
O111 C105 1.208 . S
O112 Cd113 2.223 . S
O112 C120 1.315 . S
Cd113 O112 2.223 . S
Cd113 O116 2.297 . S
Cd113 O117 2.439 . S
Cd113 O123 2.240 . S
Cd114 O115 2.240 . S
Cd114 O122 2.223 . S
Cd114 O124 2.297 1_554 S
Cd114 O125 2.439 1_554 S
O115 Cd114 2.240 . S
O115 C120 1.279 . S
O116 Cd113 2.297 . S
O116 C118 1.247 . S
O117 Cd113 2.439 . S
O117 C118 1.208 . S
C118 O116 1.247 . S
C118 O117 1.208 . S
C119 O124 1.247 . S
C119 O125 1.208 . S
C120 O112 1.315 . S
C120 O115 1.279 . S
C121 O122 1.315 . S
C121 O123 1.279 . S
O122 Cd114 2.223 . S
O122 C121 1.315 . S
O123 Cd113 2.240 . S
O123 C121 1.279 . S
O124 Cd114 2.297 1_556 S
O124 C119 1.247 . S
O125 Cd114 2.439 1_556 S
O125 C119 1.208 . S
O126 Cd127 2.223 . S
O126 C134 1.315 1_556 S
Cd127 O126 2.223 . S
Cd127 O130 2.297 1_556 S
Cd127 O131 2.439 1_556 S
Cd127 O137 2.240 . S
Cd128 O129 2.240 . S
Cd128 O136 2.223 . S
Cd128 O138 2.297 . S
Cd128 O139 2.439 . S
O129 Cd128 2.240 . S
O129 C134 1.279 . S
O130 Cd127 2.297 1_554 S
O130 C132 1.247 . S
O131 Cd127 2.439 1_554 S
O131 C132 1.208 . S
C132 O130 1.247 . S
C132 O131 1.208 . S
C133 O138 1.247 . S
C133 O139 1.208 . S
C134 O126 1.315 1_554 S
C134 O129 1.279 . S
C135 O136 1.315 1_556 S
C135 O137 1.279 . S
O136 Cd128 2.223 . S
O136 C135 1.315 1_554 S
O137 Cd127 2.240 . S
O137 C135 1.279 . S
O138 Cd128 2.297 . S
O138 C133 1.247 . S
O139 Cd128 2.439 . S
O139 C133 1.208 . S
O140 Cd141 2.223 . S
O140 C148 1.315 . S
Cd141 O140 2.223 . S
Cd141 O144 2.297 . S
Cd141 O145 2.439 . S
Cd141 O151 2.240 . S
Cd142 O143 2.240 . S
Cd142 O150 2.223 . S
Cd142 O152 2.297 1_554 S
Cd142 O153 2.439 1_554 S
O143 Cd142 2.240 . S
O143 C148 1.279 . S
O144 Cd141 2.297 . S
O144 C146 1.247 . S
O145 Cd141 2.439 . S
O145 C146 1.208 . S
C146 O144 1.247 . S
C146 O145 1.208 . S
C147 O152 1.247 . S
C147 O153 1.208 . S
C148 O140 1.315 . S
C148 O143 1.279 . S
C149 O150 1.315 . S
C149 O151 1.279 . S
O150 Cd142 2.223 . S
O150 C149 1.315 . S
O151 Cd141 2.240 . S
O151 C149 1.279 . S
O152 Cd142 2.297 1_556 S
O152 C147 1.247 . S
O153 Cd142 2.439 1_556 S
O153 C147 1.208 . S
O154 Cd155 2.223 . S
O154 C162 1.315 . S
Cd155 O154 2.223 . S
Cd155 O158 2.297 . S
Cd155 O159 2.439 . S
Cd155 O165 2.240 . S
Cd156 O157 2.240 . S
Cd156 O164 2.223 . S
Cd156 O166 2.297 . S
Cd156 O167 2.439 . S
O157 Cd156 2.240 . S
O157 C162 1.279 . S
O158 Cd155 2.297 . S
O158 C160 1.247 . S
O159 Cd155 2.439 . S
O159 C160 1.208 . S
C160 O158 1.247 . S
C160 O159 1.208 . S
C161 O166 1.247 . S
C161 O167 1.208 . S
C162 O154 1.315 . S
C162 O157 1.279 . S
C163 O164 1.315 . S
C163 O165 1.279 . S
O164 Cd156 2.223 . S
O164 C163 1.315 . S
O165 Cd155 2.240 . S
O165 C163 1.279 . S
O166 Cd156 2.297 . S
O166 C161 1.247 . S
O167 Cd156 2.439 . S
O167 C161 1.208 . S
C168 C169 1.391 . S
C168 C170 1.394 . S
C168 H184 0.931 . S
C169 C168 1.391 . S
C169 C173 1.376 1_455 S
C170 C168 1.394 . S
C170 C171 1.369 . S
C170 C174 1.531 . S
C171 C170 1.369 . S
C171 C172 1.410 . S
C171 C179 1.503 . S
C172 C171 1.410 . S
C172 C173 1.392 1_455 S
C172 C175 1.511 1_455 S
C173 C169 1.376 1_655 S
C173 C172 1.392 1_655 S
C173 H185 0.929 . S
C174 C170 1.531 . S
C174 H186 0.960 . S
C174 H187 0.962 . S
C174 H188 0.960 . S
C175 C172 1.511 1_655 S
C175 H189 0.961 . S
C175 H190 0.961 . S
C175 H191 0.961 . S
C176 C177 1.370 . S
C176 C178 1.363 . S
C176 H192 0.931 . S
C177 C176 1.370 . S
C177 C181 1.408 . S
C178 C176 1.363 . S
C178 C179 1.370 . S
C178 C182 1.524 1_455 S
C179 C171 1.503 . S
C179 C178 1.370 . S
C179 C180 1.403 . S
C180 C179 1.403 . S
C180 C181 1.404 . S
C180 C183 1.539 . S
C181 C177 1.408 . S
C181 C180 1.404 . S
C181 H193 0.930 . S
C182 C178 1.524 1_655 S
C182 H194 0.956 1_655 S
C182 H195 0.961 . S
C182 H196 0.961 . S
C183 C180 1.539 . S
C183 H197 0.958 . S
C183 H198 0.961 . S
C183 H199 0.960 . S
H184 C168 0.931 . S
H185 C173 0.929 . S
H186 C174 0.960 . S
H187 C174 0.962 . S
H188 C174 0.960 . S
H189 C175 0.961 . S
H190 C175 0.961 . S
H191 C175 0.961 . S
H192 C176 0.931 . S
H193 C181 0.930 . S
H194 C182 0.956 1_455 S
H195 C182 0.961 . S
H196 C182 0.961 . S
H197 C183 0.958 . S
H198 C183 0.961 . S
H199 C183 0.960 . S
C200 C201 1.391 . S
C200 C202 1.394 . S
C200 H216 0.931 . S
C201 C200 1.391 . S
C201 C205 1.376 . S
C202 C200 1.394 . S
C202 C203 1.369 . S
C202 C206 1.531 . S
C203 C202 1.369 . S
C203 C204 1.410 . S
C203 C211 1.503 . S
C204 C203 1.410 . S
C204 C205 1.392 . S
C204 C207 1.511 . S
C205 C201 1.376 . S
C205 C204 1.392 . S
C205 H217 0.929 . S
C206 C202 1.531 . S
C206 H218 0.960 . S
C206 H219 0.962 . S
C206 H220 0.960 . S
C207 C204 1.511 . S
C207 H221 0.961 . S
C207 H222 0.961 . S
C207 H223 0.961 . S
C208 C209 1.370 . S
C208 C210 1.363 . S
C208 H224 0.931 . S
C209 C208 1.370 . S
C209 C213 1.408 . S
C210 C208 1.363 . S
C210 C211 1.370 . S
C210 C214 1.524 . S
C211 C203 1.503 . S
C211 C210 1.370 . S
C211 C212 1.403 . S
C212 C211 1.403 . S
C212 C213 1.404 . S
C212 C215 1.539 1_545 S
C213 C209 1.408 . S
C213 C212 1.404 . S
C213 H225 0.930 . S
C214 C210 1.524 . S
C214 H226 0.956 . S
C214 H227 0.961 . S
C214 H228 0.961 . S
C215 C212 1.539 1_565 S
C215 H229 0.958 . S
C215 H230 0.961 . S
C215 H231 0.960 . S
H216 C200 0.931 . S
H217 C205 0.929 . S
H218 C206 0.960 . S
H219 C206 0.962 . S
H220 C206 0.960 . S
H221 C207 0.961 . S
H222 C207 0.961 . S
H223 C207 0.961 . S
H224 C208 0.931 . S
H225 C213 0.930 . S
H226 C214 0.956 . S
H227 C214 0.961 . S
H228 C214 0.961 . S
H229 C215 0.958 . S
H230 C215 0.961 . S
H231 C215 0.960 . S
C232 C233 1.391 . S
C232 C234 1.394 . S
C232 H248 0.931 . S
C233 C232 1.391 . S
C233 C237 1.376 . S
C234 C232 1.394 . S
C234 C235 1.369 . S
C234 C238 1.531 . S
C235 C234 1.369 . S
C235 C236 1.410 . S
C235 C243 1.503 . S
C236 C235 1.410 . S
C236 C237 1.392 . S
C236 C239 1.511 1_455 S
C237 C233 1.376 . S
C237 C236 1.392 . S
C237 H249 0.929 1_455 S
C238 C234 1.531 . S
C238 H250 0.960 . S
C238 H251 0.962 . S
C238 H252 0.960 . S
C239 C236 1.511 1_655 S
C239 H253 0.961 . S
C239 H254 0.961 1_655 S
C239 H255 0.961 . S
C240 C241 1.370 . S
C240 C242 1.363 . S
C240 H256 0.931 . S
C241 C240 1.370 . S
C241 C245 1.408 . S
C242 C240 1.363 . S
C242 C243 1.370 . S
C242 C246 1.524 . S
C243 C235 1.503 . S
C243 C242 1.370 . S
C243 C244 1.403 . S
C244 C243 1.403 . S
C244 C245 1.404 . S
C244 C247 1.539 1_455 S
C245 C241 1.408 . S
C245 C244 1.404 . S
C245 H257 0.930 . S
C246 C242 1.524 . S
C246 H258 0.956 . S
C246 H259 0.961 . S
C246 H260 0.961 . S
C247 C244 1.539 1_655 S
C247 H261 0.958 . S
C247 H262 0.961 . S
C247 H263 0.960 . S
H248 C232 0.931 . S
H249 C237 0.929 1_655 S
H250 C238 0.960 . S
H251 C238 0.962 . S
H252 C238 0.960 . S
H253 C239 0.961 . S
H254 C239 0.961 1_455 S
H255 C239 0.961 . S
H256 C240 0.931 . S
H257 C245 0.930 . S
H258 C246 0.956 . S
H259 C246 0.961 . S
H260 C246 0.961 . S
H261 C247 0.958 . S
H262 C247 0.961 . S
H263 C247 0.960 . S
C264 C265 1.391 . S
C264 C266 1.394 . S
C264 H280 0.931 . S
C265 C264 1.391 . S
C265 C269 1.376 . S
C266 C264 1.394 . S
C266 C267 1.369 . S
C266 C270 1.531 1_545 S
C267 C266 1.369 . S
C267 C268 1.410 . S
C267 C275 1.503 . S
C268 C267 1.410 . S
C268 C269 1.392 . S
C268 C271 1.511 . S
C269 C265 1.376 . S
C269 C268 1.392 . S
C269 H281 0.929 . S
C270 C266 1.531 1_565 S
C270 H282 0.960 . S
C270 H283 0.962 . S
C270 H284 0.960 . S
C271 C268 1.511 . S
C271 H285 0.961 . S
C271 H286 0.961 . S
C271 H287 0.961 . S
C272 C273 1.370 . S
C272 C274 1.363 . S
C272 H288 0.931 . S
C273 C272 1.370 . S
C273 C277 1.408 . S
C274 C272 1.363 . S
C274 C275 1.370 . S
C274 C278 1.524 . S
C275 C267 1.503 . S
C275 C274 1.370 . S
C275 C276 1.403 . S
C276 C275 1.403 . S
C276 C277 1.404 . S
C276 C279 1.539 1_545 S
C277 C273 1.408 . S
C277 C276 1.404 . S
C277 H289 0.930 1_545 S
C278 C274 1.524 . S
C278 H290 0.956 . S
C278 H291 0.961 . S
C278 H292 0.961 . S
C279 C276 1.539 1_565 S
C279 H293 0.958 . S
C279 H294 0.961 . S
C279 H295 0.960 1_565 S
H280 C264 0.931 . S
H281 C269 0.929 . S
H282 C270 0.960 . S
H283 C270 0.962 . S
H284 C270 0.960 . S
H285 C271 0.961 . S
H286 C271 0.961 . S
H287 C271 0.961 . S
H288 C272 0.931 . S
H289 C277 0.930 1_565 S
H290 C278 0.956 . S
H291 C278 0.961 . S
H292 C278 0.961 . S
H293 C279 0.958 . S
H294 C279 0.961 . S
H295 C279 0.960 1_545 S
C296 C297 1.391 . S
C296 C298 1.394 . S
C296 H312 0.931 . S
C297 C296 1.391 . S
C297 C301 1.376 . S
C298 C296 1.394 . S
C298 C299 1.369 . S
C298 C302 1.531 . S
C299 C298 1.369 . S
C299 C300 1.410 . S
C299 C307 1.503 . S
C300 C299 1.410 . S
C300 C301 1.392 . S
C300 C303 1.511 1_455 S
C301 C297 1.376 . S
C301 C300 1.392 . S
C301 H313 0.929 . S
C302 C298 1.531 . S
C302 H314 0.960 . S
C302 H315 0.962 . S
C302 H316 0.960 . S
C303 C300 1.511 1_655 S
C303 H317 0.961 . S
C303 H318 0.961 1_655 S
C303 H319 0.961 . S
C304 C305 1.370 . S
C304 C306 1.363 . S
C304 H320 0.931 . S
C305 C304 1.370 . S
C305 C309 1.408 . S
C306 C304 1.363 . S
C306 C307 1.370 . S
C306 C310 1.524 . S
C307 C299 1.503 . S
C307 C306 1.370 . S
C307 C308 1.403 . S
C308 C307 1.403 . S
C308 C309 1.404 . S
C308 C311 1.539 1_455 S
C309 C305 1.408 . S
C309 C308 1.404 . S
C309 H321 0.930 1_455 S
C310 C306 1.524 . S
C310 H322 0.956 . S
C310 H323 0.961 . S
C310 H324 0.961 . S
C311 C308 1.539 1_655 S
C311 H325 0.958 . S
C311 H326 0.961 . S
C311 H327 0.960 . S
H312 C296 0.931 . S
H313 C301 0.929 . S
H314 C302 0.960 . S
H315 C302 0.962 . S
H316 C302 0.960 . S
H317 C303 0.961 . S
H318 C303 0.961 1_455 S
H319 C303 0.961 . S
H320 C304 0.931 . S
H321 C309 0.930 1_655 S
H322 C310 0.956 . S
H323 C310 0.961 . S
H324 C310 0.961 . S
H325 C311 0.958 . S
H326 C311 0.961 . S
H327 C311 0.960 . S
C328 C329 1.391 . S
C328 C330 1.394 . S
C328 H344 0.931 . S
C329 C328 1.391 . S
C329 C333 1.376 . S
C330 C328 1.394 . S
C330 C331 1.369 . S
C330 C334 1.531 . S
C331 C330 1.369 . S
C331 C332 1.410 . S
C331 C339 1.503 . S
C332 C331 1.410 . S
C332 C333 1.392 . S
C332 C335 1.511 1_545 S
C333 C329 1.376 . S
C333 C332 1.392 . S
C333 H345 0.929 1_545 S
C334 C330 1.531 . S
C334 H346 0.960 . S
C334 H347 0.962 . S
C334 H348 0.960 . S
C335 C332 1.511 1_565 S
C335 H349 0.961 . S
C335 H350 0.961 . S
C335 H351 0.961 . S
C336 C337 1.370 . S
C336 C338 1.363 . S
C336 H352 0.931 . S
C337 C336 1.370 . S
C337 C341 1.408 . S
C338 C336 1.363 . S
C338 C339 1.370 . S
C338 C342 1.524 . S
C339 C331 1.503 . S
C339 C338 1.370 . S
C339 C340 1.403 . S
C340 C339 1.403 . S
C340 C341 1.404 . S
C340 C343 1.539 . S
C341 C337 1.408 . S
C341 C340 1.404 . S
C341 H353 0.930 . S
C342 C338 1.524 . S
C342 H354 0.956 . S
C342 H355 0.985 . S
C342 H356 0.961 . S
C343 C340 1.539 . S
C343 H357 0.958 . S
C343 H358 0.961 . S
C343 H359 0.960 . S
H344 C328 0.931 . S
H345 C333 0.929 1_565 S
H346 C334 0.960 . S
H347 C334 0.962 . S
H348 C334 0.960 . S
H349 C335 0.961 . S
H350 C335 0.961 . S
H351 C335 0.961 . S
H352 C336 0.931 . S
H353 C341 0.930 . S
H354 C342 0.956 . S
H355 C342 0.985 . S
H356 C342 0.961 . S
H357 C343 0.958 . S
H358 C343 0.961 . S
H359 C343 0.960 . S
C360 C361 1.391 . S
C360 C362 1.394 . S
C360 H376 0.931 . S
C361 C360 1.391 . S
C361 C365 1.376 . S
C362 C360 1.394 . S
C362 C363 1.369 . S
C362 C366 1.531 1_455 S
C363 C362 1.369 . S
C363 C364 1.410 . S
C363 C371 1.503 . S
C364 C363 1.410 . S
C364 C365 1.392 . S
C364 C367 1.511 . S
C365 C361 1.376 . S
C365 C364 1.392 . S
C365 H377 0.929 . S
C366 C362 1.531 1_655 S
C366 H378 0.960 1_655 S
C366 H379 0.962 . S
C366 H380 0.960 . S
C367 C364 1.511 . S
C367 H381 0.961 . S
C367 H382 0.961 . S
C367 H383 0.961 . S
C368 C369 1.370 . S
C368 C370 1.363 . S
C368 H384 0.931 1_455 S
C369 C368 1.370 . S
C369 C373 1.408 . S
C370 C368 1.363 . S
C370 C371 1.370 . S
C370 C374 1.524 1_455 S
C371 C363 1.503 . S
C371 C370 1.370 . S
C371 C372 1.403 . S
C372 C371 1.403 . S
C372 C373 1.404 . S
C372 C375 1.539 . S
C373 C369 1.408 . S
C373 C372 1.404 . S
C373 H385 0.930 . S
C374 C370 1.524 1_655 S
C374 H386 0.956 . S
C374 H387 0.961 1_655 S
C374 H388 0.961 . S
C375 C372 1.539 . S
C375 H389 0.958 . S
C375 H390 0.961 . S
C375 H391 0.960 . S
H376 C360 0.931 . S
H377 C365 0.929 . S
H378 C366 0.960 1_455 S
H379 C366 0.962 . S
H380 C366 0.960 . S
H381 C367 0.961 . S
H382 C367 0.961 . S
H383 C367 0.961 . S
H384 C368 0.931 1_655 S
H385 C373 0.930 . S
H386 C374 0.956 . S
H387 C374 0.961 1_455 S
H388 C374 0.961 . S
H389 C375 0.958 . S
H390 C375 0.961 . S
H391 C375 0.960 . S
C392 C393 1.391 1_565 S
C392 C394 1.394 1_565 S
C392 H408 0.931 . S
C393 C392 1.391 1_545 S
C393 C397 1.376 . S
C394 C392 1.394 1_545 S
C394 C395 1.369 . S
C394 C398 1.531 1_545 S
C395 C394 1.369 . S
C395 C396 1.410 . S
C395 C403 1.503 . S
C396 C395 1.410 . S
C396 C397 1.392 . S
C396 C399 1.511 . S
C397 C393 1.376 . S
C397 C396 1.392 . S
C397 H409 0.929 . S
C398 C394 1.531 1_565 S
C398 H410 0.960 . S
C398 H411 0.962 . S
C398 H412 0.960 . S
C399 C396 1.511 . S
C399 H413 0.961 . S
C399 H414 0.961 . S
C399 H415 0.961 . S
C400 C401 1.370 . S
C400 C402 1.363 . S
C400 H416 0.931 . S
C401 C400 1.370 . S
C401 C405 1.408 . S
C402 C400 1.363 . S
C402 C403 1.370 . S
C402 C406 1.524 . S
C403 C395 1.503 . S
C403 C402 1.370 . S
C403 C404 1.403 . S
C404 C403 1.403 . S
C404 C405 1.404 . S
C404 C407 1.539 . S
C405 C401 1.408 . S
C405 C404 1.404 . S
C405 H417 0.930 . S
C406 C402 1.524 . S
C406 H418 0.956 . S
C406 H419 0.961 . S
C406 H420 0.961 . S
C407 C404 1.539 . S
C407 H421 0.958 1_545 S
C407 H422 0.961 . S
C407 H423 0.960 . S
H408 C392 0.931 . S
H409 C397 0.929 . S
H410 C398 0.960 . S
H411 C398 0.962 . S
H412 C398 0.960 . S
H413 C399 0.961 . S
H414 C399 0.961 . S
H415 C399 0.961 . S
H416 C400 0.931 . S
H417 C405 0.930 . S
H418 C406 0.956 . S
H419 C406 0.961 . S
H420 C406 0.961 . S
H421 C407 0.958 1_565 S
H422 C407 0.961 . S
H423 C407 0.960 . S
C424 C425 1.391 . S
C424 C426 1.394 . S
C424 H440 0.931 1_554 S
C425 C424 1.391 . S
C425 C429 1.376 . S
C426 C424 1.394 . S
C426 C427 1.369 . S
C426 C430 1.531 1_554 S
C427 C426 1.369 . S
C427 C428 1.410 . S
C427 C435 1.503 . S
C428 C427 1.410 . S
C428 C429 1.392 . S
C428 C431 1.511 . S
C429 C425 1.376 . S
C429 C428 1.392 . S
C429 H441 0.929 . S
C430 C426 1.531 1_556 S
C430 H442 0.960 . S
C430 H443 0.962 . S
C430 H444 0.960 . S
C431 C428 1.511 . S
C431 H445 0.961 . S
C431 H446 0.961 . S
C431 H447 0.961 . S
C432 C433 1.370 . S
C432 C434 1.363 . S
C432 H448 0.931 . S
C433 C432 1.370 . S
C433 C437 1.429 . S
C434 C432 1.363 . S
C434 C435 1.370 . S
C434 C438 1.524 . S
C435 C427 1.503 . S
C435 C434 1.370 . S
C435 C436 1.403 . S
C436 C435 1.403 . S
C436 C437 1.408 . S
C436 C439 1.539 1_554 S
C437 C433 1.429 . S
C437 C436 1.408 . S
C437 H449 0.907 1_554 S
C438 C434 1.524 . S
C438 H450 0.956 . S
C438 H451 0.961 . S
C438 H452 0.961 . S
C439 C436 1.539 1_556 S
C439 H453 0.958 . S
C439 H454 0.961 . S
C439 H455 0.960 . S
H440 C424 0.931 1_556 S
H441 C429 0.929 . S
H442 C430 0.960 . S
H443 C430 0.962 . S
H444 C430 0.960 . S
H445 C431 0.961 . S
H446 C431 0.961 . S
H447 C431 0.961 . S
H448 C432 0.931 . S
H449 C437 0.907 1_556 S
H450 C438 0.956 . S
H451 C438 0.961 . S
H452 C438 0.961 . S
H453 C439 0.958 . S
H454 C439 0.961 . S
H455 C439 0.960 . S
C456 C457 1.391 . S
C456 C458 1.394 . S
C456 H472 0.931 . S
C457 C456 1.391 . S
C457 C461 1.376 . S
C458 C456 1.394 . S
C458 C459 1.369 . S
C458 C462 1.531 . S
C459 C458 1.369 . S
C459 C460 1.410 . S
C459 C467 1.503 . S
C460 C459 1.410 . S
C460 C461 1.392 . S
C460 C463 1.511 . S
C461 C457 1.376 . S
C461 C460 1.392 . S
C461 H473 0.929 . S
C462 C458 1.531 . S
C462 H474 0.960 . S
C462 H475 0.962 . S
C462 H476 0.960 . S
C463 C460 1.511 . S
C463 H477 0.961 . S
C463 H478 0.961 . S
C463 H479 0.961 . S
C464 C465 1.370 . S
C464 C466 1.363 . S
C464 H480 0.931 1_554 S
C465 C464 1.370 . S
C465 C469 1.408 . S
C466 C464 1.363 . S
C466 C467 1.370 . S
C466 C470 1.524 1_554 S
C467 C459 1.503 . S
C467 C466 1.370 . S
C467 C468 1.403 . S
C468 C467 1.403 . S
C468 C469 1.404 . S
C468 C471 1.539 . S
C469 C465 1.408 . S
C469 C468 1.404 . S
C469 H481 0.930 . S
C470 C466 1.524 1_556 S
C470 H482 0.956 . S
C470 H483 0.961 . S
C470 H484 0.961 . S
C471 C468 1.539 . S
C471 H485 0.958 . S
C471 H486 0.961 . S
C471 H487 0.960 . S
H472 C456 0.931 . S
H473 C461 0.929 . S
H474 C462 0.960 . S
H475 C462 0.962 . S
H476 C462 0.960 . S
H477 C463 0.961 . S
H478 C463 0.961 . S
H479 C463 0.961 . S
H480 C464 0.931 1_556 S
H481 C469 0.930 . S
H482 C470 0.956 . S
H483 C470 0.961 . S
H484 C470 0.961 . S
H485 C471 0.958 . S
H486 C471 0.961 . S
H487 C471 0.960 . S
C488 C489 1.391 1_556 S
C488 C490 1.394 1_556 S
C488 H504 0.931 . S
C489 C488 1.391 1_554 S
C489 C493 1.376 . S
C490 C488 1.394 1_554 S
C490 C491 1.369 . S
C490 C494 1.531 1_554 S
C491 C490 1.369 . S
C491 C492 1.410 . S
C491 C499 1.503 . S
C492 C491 1.410 . S
C492 C493 1.392 . S
C492 C495 1.511 . S
C493 C489 1.376 . S
C493 C492 1.392 . S
C493 H505 0.929 . S
C494 C490 1.531 1_556 S
C494 H506 0.960 . S
C494 H507 0.962 1_556 S
C494 H508 0.960 . S
C495 C492 1.511 . S
C495 H509 0.961 . S
C495 H510 0.961 . S
C495 H511 0.961 . S
C496 C497 1.370 . S
C496 C498 1.363 . S
C496 H512 0.931 . S
C497 C496 1.370 . S
C497 C501 1.408 . S
C498 C496 1.363 . S
C498 C499 1.370 . S
C498 C502 1.524 . S
C499 C491 1.503 . S
C499 C498 1.370 . S
C499 C500 1.403 . S
C500 C499 1.403 . S
C500 C501 1.404 . S
C500 C503 1.539 1_554 S
C501 C497 1.408 . S
C501 C500 1.404 . S
C501 H513 0.930 . S
C502 C498 1.524 . S
C502 H514 0.956 . S
C502 H515 0.961 . S
C502 H516 0.961 . S
C503 C500 1.539 1_556 S
C503 H517 0.958 . S
C503 H518 0.961 . S
C503 H519 0.960 . S
H504 C488 0.931 . S
H505 C493 0.929 . S
H506 C494 0.960 . S
H507 C494 0.962 1_554 S
H508 C494 0.960 . S
H509 C495 0.961 . S
H510 C495 0.961 . S
H511 C495 0.961 . S
H512 C496 0.931 . S
H513 C501 0.930 . S
H514 C502 0.956 . S
H515 C502 0.961 . S
H516 C502 0.961 . S
H517 C503 0.958 . S
H518 C503 0.961 . S
H519 C503 0.960 . S
C520 C521 1.391 . S
C520 C522 1.394 . S
C520 H536 0.931 . S
C521 C520 1.391 . S
C521 C525 1.376 . S
C522 C520 1.394 . S
C522 C523 1.369 . S
C522 C526 1.531 . S
C523 C522 1.369 . S
C523 C524 1.410 . S
C523 C531 1.503 . S
C524 C523 1.410 . S
C524 C525 1.392 . S
C524 C527 1.511 . S
C525 C521 1.376 . S
C525 C524 1.392 . S
C525 H537 0.929 . S
C526 C522 1.531 . S
C526 H538 0.960 . S
C526 H539 0.962 . S
C526 H540 0.960 . S
C527 C524 1.511 . S
C527 H541 0.961 . S
C527 H542 0.961 . S
C527 H543 0.961 1_554 S
C528 C529 1.370 . S
C528 C530 1.363 . S
C528 H544 0.931 . S
C529 C528 1.370 . S
C529 C533 1.408 . S
C530 C528 1.363 . S
C530 C531 1.370 . S
C530 C534 1.524 . S
C531 C523 1.503 . S
C531 C530 1.370 . S
C531 C532 1.403 . S
C532 C531 1.403 . S
C532 C533 1.404 . S
C532 C535 1.539 1_554 S
C533 C529 1.408 . S
C533 C532 1.404 . S
C533 H545 0.930 . S
C534 C530 1.524 . S
C534 H546 0.956 . S
C534 H547 0.961 . S
C534 H548 0.961 . S
C535 C532 1.539 1_556 S
C535 H549 0.956 1_556 S
C535 H550 0.961 . S
C535 H551 0.960 . S
H536 C520 0.931 . S
H537 C525 0.929 . S
H538 C526 0.960 . S
H539 C526 0.962 . S
H540 C526 0.960 . S
H541 C527 0.961 . S
H542 C527 0.961 . S
H543 C527 0.961 1_556 S
H544 C528 0.931 . S
H545 C533 0.930 . S
H546 C534 0.956 . S
H547 C534 0.961 . S
H548 C534 0.961 . S
H549 C535 0.956 1_554 S
H550 C535 0.961 . S
H551 C535 0.960 . S
C552 C553 1.391 . S
C552 C554 1.394 . S
C552 H568 0.931 1_556 S
C553 C552 1.391 . S
C553 C557 1.376 . S
C554 C552 1.394 . S
C554 C555 1.369 . S
C554 C558 1.531 . S
C555 C554 1.369 . S
C555 C556 1.410 . S
C555 C563 1.503 . S
C556 C555 1.410 . S
C556 C557 1.392 . S
C556 C559 1.511 . S
C557 C553 1.376 . S
C557 C556 1.392 . S
C557 H569 0.929 . S
C558 C554 1.531 . S
C558 H570 0.960 . S
C558 H571 0.962 . S
C558 H572 0.960 1_556 S
C559 C556 1.511 . S
C559 H573 0.961 . S
C559 H574 0.961 . S
C559 H575 0.961 . S
C560 C561 1.370 . S
C560 C562 1.363 . S
C560 H576 0.931 . S
C561 C560 1.370 . S
C561 C565 1.408 . S
C562 C560 1.363 . S
C562 C563 1.370 . S
C562 C566 1.524 . S
C563 C555 1.503 . S
C563 C562 1.370 . S
C563 C564 1.403 . S
C564 C563 1.403 . S
C564 C565 1.404 . S
C564 C567 1.539 . S
C565 C561 1.408 . S
C565 C564 1.404 . S
C565 H577 0.930 . S
C566 C562 1.524 . S
C566 H578 0.956 . S
C566 H579 0.961 . S
C566 H580 0.961 . S
C567 C564 1.539 . S
C567 H581 0.958 . S
C567 H582 0.961 . S
C567 H583 0.960 . S
H568 C552 0.931 1_554 S
H569 C557 0.929 . S
H570 C558 0.960 . S
H571 C558 0.962 . S
H572 C558 0.960 1_554 S
H573 C559 0.961 . S
H574 C559 0.961 . S
H575 C559 0.961 . S
H576 C560 0.931 . S
H577 C565 0.930 . S
H578 C566 0.956 . S
H579 C566 0.961 . S
H580 C566 0.961 . S
H581 C567 0.958 . S
H582 C567 0.961 . S
H583 C567 0.960 . S
C584 C585 1.391 . S
C584 C586 1.394 . S
C584 H600 0.931 . S
C585 C584 1.391 . S
C585 C589 1.376 . S
C586 C584 1.394 . S
C586 C587 1.369 . S
C586 C590 1.531 . S
C587 C586 1.369 . S
C587 C588 1.410 . S
C587 C595 1.503 . S
C588 C587 1.410 . S
C588 C589 1.392 . S
C588 C591 1.511 . S
C589 C585 1.376 . S
C589 C588 1.392 . S
C589 H601 0.929 . S
C590 C586 1.531 . S
C590 H602 0.960 . S
C590 H603 0.962 . S
C590 H604 0.960 . S
C591 C588 1.511 . S
C591 H605 0.961 . S
C591 H606 0.961 . S
C591 H607 0.961 . S
C592 C593 1.370 . S
C592 C594 1.363 . S
C592 H608 0.931 . S
C593 C592 1.370 . S
C593 C597 1.408 . S
C594 C592 1.363 . S
C594 C595 1.370 . S
C594 C598 1.524 . S
C595 C587 1.503 . S
C595 C594 1.370 . S
C595 C596 1.403 . S
C596 C595 1.403 . S
C596 C597 1.404 . S
C596 C599 1.539 . S
C597 C593 1.408 . S
C597 C596 1.404 . S
C597 H609 0.930 . S
C598 C594 1.524 . S
C598 H610 0.956 . S
C598 H611 0.961 . S
C598 H612 0.961 . S
C599 C596 1.539 . S
C599 H613 0.958 . S
C599 H614 0.961 . S
C599 H615 0.960 . S
H600 C584 0.931 . S
H601 C589 0.929 . S
H602 C590 0.960 . S
H603 C590 0.962 . S
H604 C590 0.960 . S
H605 C591 0.961 . S
H606 C591 0.961 . S
H607 C591 0.961 . S
H608 C592 0.931 . S
H609 C597 0.930 . S
H610 C598 0.956 . S
H611 C598 0.961 . S
H612 C598 0.961 . S
H613 C599 0.958 . S
H614 C599 0.961 . S
H615 C599 0.960 . S
C616 C617 1.391 . S
C616 C618 1.394 . S
C616 H632 0.931 . S
C617 C616 1.391 . S
C617 C621 1.376 . S
C618 C616 1.394 . S
C618 C619 1.369 . S
C618 C622 1.531 . S
C619 C618 1.369 . S
C619 C620 1.410 . S
C619 C627 1.503 . S
C620 C619 1.410 . S
C620 C621 1.392 . S
C620 C623 1.511 . S
C621 C617 1.376 . S
C621 C620 1.392 . S
C621 H633 0.929 . S
C622 C618 1.531 . S
C622 H634 0.960 . S
C622 H635 0.962 . S
C622 H636 0.960 . S
C623 C620 1.511 . S
C623 H637 0.961 . S
C623 H638 0.961 . S
C623 H639 0.961 . S
C624 C625 1.370 . S
C624 C626 1.363 . S
C624 H640 0.931 . S
C625 C624 1.370 . S
C625 C629 1.408 . S
C626 C624 1.363 . S
C626 C627 1.370 . S
C626 C630 1.524 . S
C627 C619 1.503 . S
C627 C626 1.370 . S
C627 C628 1.403 . S
C628 C627 1.403 . S
C628 C629 1.404 . S
C628 C631 1.539 . S
C629 C625 1.408 . S
C629 C628 1.404 . S
C629 H641 0.930 . S
C630 C626 1.524 . S
C630 H642 0.956 . S
C630 H643 0.961 . S
C630 H644 0.961 . S
C631 C628 1.539 . S
C631 H645 0.958 . S
C631 H646 0.961 . S
C631 H647 0.960 . S
H632 C616 0.931 . S
H633 C621 0.929 . S
H634 C622 0.960 . S
H635 C622 0.962 . S
H636 C622 0.960 . S
H637 C623 0.961 . S
H638 C623 0.961 . S
H639 C623 0.961 . S
H640 C624 0.931 . S
H641 C629 0.930 . S
H642 C630 0.956 . S
H643 C630 0.961 . S
H644 C630 0.961 . S
H645 C631 0.958 . S
H646 C631 0.961 . S
H647 C631 0.960 . S
C648 C649 1.391 . S
C648 C650 1.394 . S
C648 H664 0.931 . S
C649 C648 1.391 . S
C649 C653 1.376 . S
C650 C648 1.394 . S
C650 C651 1.369 . S
C650 C654 1.531 . S
C651 C650 1.369 . S
C651 C652 1.410 . S
C651 C659 1.503 . S
C652 C651 1.410 . S
C652 C653 1.392 . S
C652 C655 1.511 . S
C653 C649 1.376 . S
C653 C652 1.392 . S
C653 H665 0.929 1_655 S
C654 C650 1.531 . S
C654 H666 0.960 . S
C654 H667 0.962 . S
C654 H668 0.960 . S
C655 C652 1.511 . S
C655 H669 0.961 . S
C655 H670 0.961 . S
C655 H671 0.961 . S
C656 C657 1.370 . S
C656 C658 1.363 . S
C656 H672 0.931 . S
C657 C656 1.370 . S
C657 C661 1.408 . S
C658 C656 1.363 . S
C658 C659 1.370 . S
C658 C662 1.524 . S
C659 C651 1.503 . S
C659 C658 1.370 . S
C659 C660 1.403 . S
C660 C659 1.403 . S
C660 C661 1.404 . S
C660 C663 1.539 . S
C661 C657 1.408 . S
C661 C660 1.404 . S
C661 H673 0.930 . S
C662 C658 1.524 . S
C662 H674 0.956 . S
C662 H675 0.961 . S
C662 H676 0.961 . S
C663 C660 1.539 . S
C663 H677 0.958 . S
C663 H678 0.961 . S
C663 H679 0.960 . S
H664 C648 0.931 . S
H665 C653 0.929 1_455 S
H666 C654 0.960 . S
H667 C654 0.962 . S
H668 C654 0.960 . S
H669 C655 0.961 . S
H670 C655 0.961 . S
H671 C655 0.961 . S
H672 C656 0.931 . S
H673 C661 0.930 . S
H674 C662 0.956 . S
H675 C662 0.961 . S
H676 C662 0.961 . S
H677 C663 0.958 . S
H678 C663 0.961 . S
H679 C663 0.960 . S
C680 C681 1.391 . S
C680 C682 1.394 . S
C680 H696 0.931 . S
C681 C680 1.391 . S
C681 C685 1.376 . S
C682 C680 1.394 . S
C682 C683 1.369 . S
C682 C686 1.531 . S
C683 C682 1.369 . S
C683 C684 1.410 . S
C683 C691 1.503 . S
C684 C683 1.410 . S
C684 C685 1.392 . S
C684 C687 1.511 . S
C685 C681 1.376 . S
C685 C684 1.392 . S
C685 H697 0.929 . S
C686 C682 1.531 . S
C686 H698 0.960 . S
C686 H699 0.962 . S
C686 H700 0.960 . S
C687 C684 1.511 . S
C687 H701 0.961 . S
C687 H702 0.961 . S
C687 H703 0.961 . S
C688 C689 1.370 . S
C688 C690 1.363 . S
C688 H704 0.931 . S
C689 C688 1.370 . S
C689 C693 1.408 . S
C690 C688 1.363 . S
C690 C691 1.370 . S
C690 C694 1.524 . S
C691 C683 1.503 . S
C691 C690 1.370 . S
C691 C692 1.403 . S
C692 C691 1.403 . S
C692 C693 1.404 . S
C692 C695 1.539 . S
C693 C689 1.408 . S
C693 C692 1.404 . S
C693 H705 0.930 . S
C694 C690 1.524 . S
C694 H706 0.956 . S
C694 H707 0.961 . S
C694 H708 0.961 . S
C695 C692 1.539 . S
C695 H709 0.958 . S
C695 H710 0.961 . S
C695 H711 0.960 . S
H696 C680 0.931 . S
H697 C685 0.929 . S
H698 C686 0.960 . S
H699 C686 0.962 . S
H700 C686 0.960 . S
H701 C687 0.961 . S
H702 C687 0.961 . S
H703 C687 0.961 . S
H704 C688 0.931 . S
H705 C693 0.930 . S
H706 C694 0.956 . S
H707 C694 0.961 . S
H708 C694 0.961 . S
H709 C695 0.958 . S
H710 C695 0.961 . S
H711 C695 0.960 . S
C712 C713 1.391 . S
C712 C714 1.394 . S
C712 H728 0.931 . S
C713 C712 1.391 . S
C713 C717 1.376 . S
C714 C712 1.394 . S
C714 C715 1.369 . S
C714 C718 1.531 . S
C715 C714 1.369 . S
C715 C716 1.410 . S
C715 C723 1.503 . S
C716 C715 1.410 . S
C716 C717 1.392 . S
C716 C719 1.511 . S
C717 C713 1.376 . S
C717 C716 1.392 . S
C717 H729 0.929 . S
C718 C714 1.531 . S
C718 H730 0.960 . S
C718 H731 0.962 . S
C718 H732 0.960 . S
C719 C716 1.511 . S
C719 H733 0.961 . S
C719 H734 0.961 . S
C719 H735 0.961 . S
C720 C721 1.370 . S
C720 C722 1.363 . S
C720 H736 0.931 . S
C721 C720 1.370 . S
C721 C725 1.408 . S
C722 C720 1.363 . S
C722 C723 1.370 . S
C722 C726 1.524 . S
C723 C715 1.503 . S
C723 C722 1.370 . S
C723 C724 1.403 . S
C724 C723 1.403 . S
C724 C725 1.404 . S
C724 C727 1.539 . S
C725 C721 1.408 . S
C725 C724 1.404 . S
C725 H737 0.930 . S
C726 C722 1.524 . S
C726 H738 0.956 . S
C726 H739 0.961 . S
C726 H740 0.961 . S
C727 C724 1.539 . S
C727 H741 0.958 . S
C727 H742 0.961 . S
C727 H743 0.960 . S
H728 C712 0.931 . S
H729 C717 0.929 . S
H730 C718 0.960 . S
H731 C718 0.962 . S
H732 C718 0.960 . S
H733 C719 0.961 . S
H734 C719 0.961 . S
H735 C719 0.961 . S
H736 C720 0.931 . S
H737 C725 0.930 . S
H738 C726 0.956 . S
H739 C726 0.961 . S
H740 C726 0.961 . S
H741 C727 0.958 . S
H742 C727 0.961 . S
H743 C727 0.960 . S
C744 C745 1.391 . S
C744 C746 1.394 . S
C744 H760 0.931 . S
C745 C744 1.391 . S
C745 C749 1.376 . S
C746 C744 1.394 . S
C746 C747 1.369 . S
C746 C750 1.531 . S
C747 C746 1.369 . S
C747 C748 1.410 . S
C747 C755 1.503 . S
C748 C747 1.410 . S
C748 C749 1.392 . S
C748 C751 1.511 . S
C749 C745 1.376 . S
C749 C748 1.392 . S
C749 H761 0.929 . S
C750 C746 1.531 . S
C750 H762 0.960 . S
C750 H763 0.962 . S
C750 H764 0.960 . S
C751 C748 1.511 . S
C751 H765 0.961 . S
C751 H766 0.961 . S
C751 H767 0.961 . S
C752 C753 1.370 . S
C752 C754 1.363 . S
C752 H768 0.931 . S
C753 C752 1.370 . S
C753 C757 1.408 . S
C754 C752 1.363 . S
C754 C755 1.370 . S
C754 C758 1.524 . S
C755 C747 1.503 . S
C755 C754 1.370 . S
C755 C756 1.403 . S
C756 C755 1.403 . S
C756 C757 1.404 . S
C756 C759 1.539 . S
C757 C753 1.408 . S
C757 C756 1.404 . S
C757 H769 0.930 . S
C758 C754 1.524 . S
C758 H770 0.956 . S
C758 H771 0.961 . S
C758 H772 0.961 . S
C759 C756 1.539 . S
C759 H773 0.958 . S
C759 H774 0.961 . S
C759 H775 0.960 . S
H760 C744 0.931 . S
H761 C749 0.929 . S
H762 C750 0.960 . S
H763 C750 0.962 . S
H764 C750 0.960 . S
H765 C751 0.961 . S
H766 C751 0.961 . S
H767 C751 0.961 . S
H768 C752 0.931 . S
H769 C757 0.930 . S
H770 C758 0.956 . S
H771 C758 0.961 . S
H772 C758 0.961 . S
H773 C759 0.958 . S
H774 C759 0.961 . S
H775 C759 0.960 . S
C776 C777 1.391 . S
C776 C778 1.394 . S
C776 H792 0.931 . S
C777 C776 1.391 . S
C777 C781 1.376 . S
C778 C776 1.394 . S
C778 C779 1.369 . S
C778 C782 1.531 . S
C779 C778 1.369 . S
C779 C780 1.410 . S
C779 C787 1.503 . S
C780 C779 1.410 . S
C780 C781 1.392 . S
C780 C783 1.511 . S
C781 C777 1.376 . S
C781 C780 1.392 . S
C781 H793 0.929 . S
C782 C778 1.531 . S
C782 H794 0.960 . S
C782 H795 0.962 . S
C782 H796 0.960 . S
C783 C780 1.511 . S
C783 H797 0.961 . S
C783 H798 0.961 . S
C783 H799 0.961 . S
C784 C785 1.370 . S
C784 C786 1.363 . S
C784 H800 0.931 . S
C785 C784 1.370 . S
C785 C789 1.408 . S
C786 C784 1.363 . S
C786 C787 1.370 . S
C786 C790 1.524 . S
C787 C779 1.503 . S
C787 C786 1.370 . S
C787 C788 1.403 . S
C788 C787 1.403 . S
C788 C789 1.404 . S
C788 C791 1.539 . S
C789 C785 1.408 . S
C789 C788 1.404 . S
C789 H801 0.930 . S
C790 C786 1.524 . S
C790 H802 0.956 . S
C790 H803 0.961 . S
C790 H804 0.961 . S
C791 C788 1.539 . S
C791 H805 0.958 . S
C791 H806 0.961 . S
C791 H807 0.960 . S
H792 C776 0.931 . S
H793 C781 0.929 . S
H794 C782 0.960 . S
H795 C782 0.962 . S
H796 C782 0.960 . S
H797 C783 0.961 . S
H798 C783 0.961 . S
H799 C783 0.961 . S
H800 C784 0.931 . S
H801 C789 0.930 . S
H802 C790 0.956 . S
H803 C790 0.961 . S
H804 C790 0.961 . S
H805 C791 0.958 . S
H806 C791 0.961 . S
H807 C791 0.960 . S
C808 C809 1.391 . S
C808 C810 1.394 . S
C808 H824 0.931 . S
C809 C808 1.391 . S
C809 C813 1.376 . S
C810 C808 1.394 . S
C810 C811 1.369 . S
C810 C814 1.531 . S
C811 C810 1.369 . S
C811 C812 1.410 . S
C811 C819 1.503 . S
C812 C811 1.410 . S
C812 C813 1.392 . S
C812 C815 1.511 . S
C813 C809 1.376 . S
C813 C812 1.392 . S
C813 H825 0.929 . S
C814 C810 1.531 . S
C814 H826 0.960 . S
C814 H827 0.962 . S
C814 H828 0.960 . S
C815 C812 1.511 . S
C815 H829 0.961 . S
C815 H830 0.961 . S
C815 H831 0.961 . S
C816 C817 1.370 . S
C816 C818 1.363 . S
C816 H832 0.931 . S
C817 C816 1.370 . S
C817 C821 1.408 . S
C818 C816 1.363 . S
C818 C819 1.370 . S
C818 C822 1.524 . S
C819 C811 1.503 . S
C819 C818 1.370 . S
C819 C820 1.403 . S
C820 C819 1.403 . S
C820 C821 1.404 . S
C820 C823 1.539 . S
C821 C817 1.408 . S
C821 C820 1.404 . S
C821 H833 0.930 . S
C822 C818 1.524 . S
C822 H834 0.956 . S
C822 H835 0.961 . S
C822 H836 0.961 . S
C823 C820 1.539 . S
C823 H837 0.958 . S
C823 H838 0.961 . S
C823 H839 0.960 . S
H824 C808 0.931 . S
H825 C813 0.929 . S
H826 C814 0.960 . S
H827 C814 0.962 . S
H828 C814 0.960 . S
H829 C815 0.961 . S
H830 C815 0.961 . S
H831 C815 0.961 . S
H832 C816 0.931 . S
H833 C821 0.930 . S
H834 C822 0.956 . S
H835 C822 0.961 . S
H836 C822 0.961 . S
H837 C823 0.958 . S
H838 C823 0.961 . S
H839 C823 0.960 . S
C840 C841 1.391 . S
C840 C842 1.394 . S
C840 H856 0.931 . S
C841 C840 1.391 . S
C841 C845 1.376 . S
C842 C840 1.394 . S
C842 C843 1.369 . S
C842 C846 1.531 . S
C843 C842 1.369 . S
C843 C844 1.410 . S
C843 C851 1.503 . S
C844 C843 1.410 . S
C844 C845 1.392 . S
C844 C847 1.511 . S
C845 C841 1.376 . S
C845 C844 1.392 . S
C845 H857 0.929 . S
C846 C842 1.531 . S
C846 H858 0.960 . S
C846 H859 0.962 . S
C846 H860 0.960 . S
C847 C844 1.511 . S
C847 H861 0.961 . S
C847 H862 0.961 . S
C847 H863 0.961 . S
C848 C849 1.370 . S
C848 C850 1.363 . S
C848 H864 0.931 . S
C849 C848 1.370 . S
C849 C853 1.408 . S
C850 C848 1.363 . S
C850 C851 1.370 . S
C850 C854 1.524 . S
C851 C843 1.503 . S
C851 C850 1.370 . S
C851 C852 1.403 . S
C852 C851 1.403 . S
C852 C853 1.404 . S
C852 C855 1.539 . S
C853 C849 1.408 . S
C853 C852 1.404 . S
C853 H865 0.930 . S
C854 C850 1.524 . S
C854 H866 0.956 . S
C854 H867 0.961 . S
C854 H868 0.961 . S
C855 C852 1.539 . S
C855 H869 0.958 . S
C855 H870 0.961 . S
C855 H871 0.960 . S
H856 C840 0.931 . S
H857 C845 0.929 . S
H858 C846 0.960 . S
H859 C846 0.962 . S
H860 C846 0.960 . S
H861 C847 0.961 . S
H862 C847 0.961 . S
H863 C847 0.961 . S
H864 C848 0.931 . S
H865 C853 0.930 . S
H866 C854 0.956 . S
H867 C854 0.961 . S
H868 C854 0.961 . S
H869 C855 0.958 . S
H870 C855 0.961 . S
H871 C855 0.960 . S
C872 C873 1.391 . S
C872 C874 1.394 . S
C872 H888 0.931 . S
C873 C872 1.391 . S
C873 C877 1.376 . S
C874 C872 1.394 . S
C874 C875 1.369 . S
C874 C878 1.531 . S
C875 C874 1.369 . S
C875 C876 1.410 . S
C875 C883 1.503 . S
C876 C875 1.410 . S
C876 C877 1.392 . S
C876 C879 1.511 . S
C877 C873 1.376 . S
C877 C876 1.392 . S
C877 H889 0.929 . S
C878 C874 1.531 . S
C878 H890 0.960 . S
C878 H891 0.962 . S
C878 H892 0.960 . S
C879 C876 1.511 . S
C879 H893 0.961 . S
C879 H894 0.961 . S
C879 H895 0.961 . S
C880 C881 1.370 . S
C880 C882 1.363 . S
C880 H896 0.931 . S
C881 C880 1.370 . S
C881 C885 1.408 . S
C882 C880 1.363 . S
C882 C883 1.370 . S
C882 C886 1.524 . S
C883 C875 1.503 . S
C883 C882 1.370 . S
C883 C884 1.403 . S
C884 C883 1.403 . S
C884 C885 1.404 . S
C884 C887 1.539 . S
C885 C881 1.408 . S
C885 C884 1.404 . S
C885 H897 0.930 . S
C886 C882 1.524 . S
C886 H898 0.956 . S
C886 H899 0.961 . S
C886 H900 0.961 . S
C887 C884 1.539 . S
C887 H901 0.958 . S
C887 H902 0.961 . S
C887 H903 0.960 . S
H888 C872 0.931 . S
H889 C877 0.929 . S
H890 C878 0.960 . S
H891 C878 0.962 . S
H892 C878 0.960 . S
H893 C879 0.961 . S
H894 C879 0.961 . S
H895 C879 0.961 . S
H896 C880 0.931 . S
H897 C885 0.930 . S
H898 C886 0.956 . S
H899 C886 0.961 . S
H900 C886 0.961 . S
H901 C887 0.958 . S
H902 C887 0.961 . S
H903 C887 0.960 . S
C904 C905 1.391 . S
C904 C906 1.394 . S
C904 H920 0.931 . S
C905 C904 1.391 . S
C905 C909 1.376 . S
C906 C904 1.394 . S
C906 C907 1.369 . S
C906 C910 1.531 . S
C907 C906 1.369 . S
C907 C908 1.410 . S
C907 C915 1.503 . S
C908 C907 1.410 . S
C908 C909 1.392 . S
C908 C911 1.511 . S
C909 C905 1.376 . S
C909 C908 1.392 . S
C909 H921 0.929 . S
C910 C906 1.531 . S
C910 H922 0.960 . S
C910 H923 0.962 . S
C910 H924 0.960 . S
C911 C908 1.511 . S
C911 H925 0.961 . S
C911 H926 0.961 . S
C911 H927 0.961 . S
C912 C913 1.370 . S
C912 C914 1.363 . S
C912 H928 0.931 . S
C913 C912 1.370 . S
C913 C917 1.408 . S
C914 C912 1.363 . S
C914 C915 1.370 . S
C914 C918 1.524 . S
C915 C907 1.503 . S
C915 C914 1.370 . S
C915 C916 1.403 . S
C916 C915 1.403 . S
C916 C917 1.404 . S
C916 C919 1.539 . S
C917 C913 1.408 . S
C917 C916 1.404 . S
C917 H929 0.930 . S
C918 C914 1.524 . S
C918 H930 0.956 . S
C918 H931 0.961 . S
C918 H932 0.961 . S
C919 C916 1.539 . S
C919 H933 0.958 . S
C919 H934 0.961 . S
C919 H935 0.960 . S
H920 C904 0.931 . S
H921 C909 0.929 . S
H922 C910 0.960 . S
H923 C910 0.962 . S
H924 C910 0.960 . S
H925 C911 0.961 . S
H926 C911 0.961 . S
H927 C911 0.961 . S
H928 C912 0.931 . S
H929 C917 0.930 . S
H930 C918 0.956 . S
H931 C918 0.961 . S
H932 C918 0.961 . S
H933 C919 0.958 . S
H934 C919 0.961 . S
H935 C919 0.960 . S
C169 C9 1.892 . S
C177 C76 1.852 . S
C201 C20 1.112 . S
C209 C63 1.024 . S
C233 C78 1.826 . S
C241 C37 1.798 . S
C265 C49 1.355 . S
C273 C65 1.443 . S
C297 C104 1.183 . S
C305 C35 1.238 . S
C329 C93 2.006 . S
C337 C51 2.022 . S
C361 C7 1.222 . S
C369 C106 1.234 . S
C393 C91 1.648 . S
C401 C22 1.680 . S
C425 C132 1.399 . S
C433 C118 1.420 . S
C457 C120 1.335 . S
C465 C162 1.314 . S
C489 C134 1.613 . S
C497 C148 1.601 . S
C521 C146 1.690 . S
C529 C160 1.639 . S
C553 C163 1.879 1_556 S
C561 C90 1.857 . S
C585 C119 1.003 . S
C593 C105 1.072 . S
C617 C92 1.821 . S
C625 C135 1.809 . S
C649 C107 1.399 1_655 S
C657 C147 1.379 . S
C681 C62 1.264 . S
C689 C133 1.200 . S
C713 C79 2.011 . S
C721 C149 2.021 . S
C745 C161 1.155 . S
C753 C64 1.235 1_565 S
C777 C121 1.664 . S
C785 C77 1.645 . S
C809 C21 1.386 . S
C817 C34 1.431 . S
C841 C8 1.324 . S
C849 C23 1.313 . S
C873 C36 1.617 . S
C881 C50 1.620 . S
C905 C6 1.633 . S
C913 C48 1.674 . S
