# Generated by pormake.
# Topology nfb, (4)-cn, num edge types: 1
# Building blocks:
#     Node 0, Type 0, BuildingBlock: GALJAG_clean_sbu_0, # of connection points: 4
#     Node 1, Type 0, BuildingBlock: GALJAG_clean_sbu_0, # of connection points: 4
#     Node 2, Type 0, BuildingBlock: GALJAG_clean_sbu_0, # of connection points: 4
#     Node 3, Type 0, BuildingBlock: GALJAG_clean_sbu_0, # of connection points: 4
#     Node 4, Type 0, BuildingBlock: GALJAG_clean_sbu_0, # of connection points: 4
#     Node 5, Type 0, BuildingBlock: GALJAG_clean_sbu_0, # of connection points: 4
#     Node 6, Type 0, BuildingBlock: GALJAG_clean_sbu_0, # of connection points: 4
#     Node 7, Type 0, BuildingBlock: GALJAG_clean_sbu_0, # of connection points: 4
#     Node 8, Type 0, BuildingBlock: GALJAG_clean_sbu_0, # of connection points: 4
#     Node 9, Type 0, BuildingBlock: GALJAG_clean_sbu_0, # of connection points: 4
#     Node 10, Type 0, BuildingBlock: GALJAG_clean_sbu_0, # of connection points: 4
#     Node 11, Type 0, BuildingBlock: GALJAG_clean_sbu_0, # of connection points: 4
#     Node 12, Type 0, BuildingBlock: GALJAG_clean_sbu_0, # of connection points: 4
#     Node 13, Type 0, BuildingBlock: GALJAG_clean_sbu_0, # of connection points: 4
#     Node 14, Type 0, BuildingBlock: GALJAG_clean_sbu_0, # of connection points: 4
#     Node 15, Type 0, BuildingBlock: GALJAG_clean_sbu_0, # of connection points: 4
#     Node 16, Type 0, BuildingBlock: GALJAG_clean_sbu_0, # of connection points: 4
#     Node 17, Type 0, BuildingBlock: GALJAG_clean_sbu_0, # of connection points: 4
#     Node 18, Type 0, BuildingBlock: GALJAG_clean_sbu_0, # of connection points: 4
#     Node 19, Type 0, BuildingBlock: GALJAG_clean_sbu_0, # of connection points: 4
#     Node 20, Type 0, BuildingBlock: GALJAG_clean_sbu_0, # of connection points: 4
#     Node 21, Type 0, BuildingBlock: GALJAG_clean_sbu_0, # of connection points: 4
#     Node 22, Type 0, BuildingBlock: GALJAG_clean_sbu_0, # of connection points: 4
#     Node 23, Type 0, BuildingBlock: GALJAG_clean_sbu_0, # of connection points: 4
#     Node 24, Type 0, BuildingBlock: GALJAG_clean_sbu_0, # of connection points: 4
#     Node 25, Type 0, BuildingBlock: GALJAG_clean_sbu_0, # of connection points: 4
#     Node 26, Type 0, BuildingBlock: GALJAG_clean_sbu_0, # of connection points: 4
#     Node 27, Type 0, BuildingBlock: GALJAG_clean_sbu_0, # of connection points: 4
#     Node 28, Type 0, BuildingBlock: GALJAG_clean_sbu_0, # of connection points: 4
#     Node 29, Type 0, BuildingBlock: GALJAG_clean_sbu_0, # of connection points: 4
#     Node 30, Type 0, BuildingBlock: GALJAG_clean_sbu_0, # of connection points: 4
#     Node 31, Type 0, BuildingBlock: GALJAG_clean_sbu_0, # of connection points: 4
#     Node 32, Type 0, BuildingBlock: GALJAG_clean_sbu_0, # of connection points: 4
#     Node 33, Type 0, BuildingBlock: GALJAG_clean_sbu_0, # of connection points: 4
#     Node 34, Type 0, BuildingBlock: GALJAG_clean_sbu_0, # of connection points: 4
#     Node 35, Type 0, BuildingBlock: GALJAG_clean_sbu_0, # of connection points: 4
#     Node 36, Type 0, BuildingBlock: GALJAG_clean_sbu_0, # of connection points: 4
#     Node 37, Type 0, BuildingBlock: GALJAG_clean_sbu_0, # of connection points: 4
#     Node 38, Type 0, BuildingBlock: GALJAG_clean_sbu_0, # of connection points: 4
#     Node 39, Type 0, BuildingBlock: GALJAG_clean_sbu_0, # of connection points: 4
#     Node 40, Type 0, BuildingBlock: GALJAG_clean_sbu_0, # of connection points: 4
#     Node 41, Type 0, BuildingBlock: GALJAG_clean_sbu_0, # of connection points: 4
#     Node 42, Type 0, BuildingBlock: GALJAG_clean_sbu_0, # of connection points: 4
#     Node 43, Type 0, BuildingBlock: GALJAG_clean_sbu_0, # of connection points: 4
#     Node 44, Type 0, BuildingBlock: GALJAG_clean_sbu_0, # of connection points: 4
#     Node 45, Type 0, BuildingBlock: GALJAG_clean_sbu_0, # of connection points: 4
#     Node 46, Type 0, BuildingBlock: GALJAG_clean_sbu_0, # of connection points: 4
#     Node 47, Type 0, BuildingBlock: GALJAG_clean_sbu_0, # of connection points: 4
#     Edge 48, Type (0, 0), BuildingBlock: KIFKEQ_clean_linker_1, # of connection points: 2
#     Edge 49, Type (0, 0), BuildingBlock: KIFKEQ_clean_linker_1, # of connection points: 2
#     Edge 50, Type (0, 0), BuildingBlock: KIFKEQ_clean_linker_1, # of connection points: 2
#     Edge 51, Type (0, 0), BuildingBlock: KIFKEQ_clean_linker_1, # of connection points: 2
#     Edge 52, Type (0, 0), BuildingBlock: KIFKEQ_clean_linker_1, # of connection points: 2
#     Edge 53, Type (0, 0), BuildingBlock: KIFKEQ_clean_linker_1, # of connection points: 2
#     Edge 54, Type (0, 0), BuildingBlock: KIFKEQ_clean_linker_1, # of connection points: 2
#     Edge 55, Type (0, 0), BuildingBlock: KIFKEQ_clean_linker_1, # of connection points: 2
#     Edge 56, Type (0, 0), BuildingBlock: KIFKEQ_clean_linker_1, # of connection points: 2
#     Edge 57, Type (0, 0), BuildingBlock: KIFKEQ_clean_linker_1, # of connection points: 2
#     Edge 58, Type (0, 0), BuildingBlock: KIFKEQ_clean_linker_1, # of connection points: 2
#     Edge 59, Type (0, 0), BuildingBlock: KIFKEQ_clean_linker_1, # of connection points: 2
#     Edge 60, Type (0, 0), BuildingBlock: KIFKEQ_clean_linker_1, # of connection points: 2
#     Edge 61, Type (0, 0), BuildingBlock: KIFKEQ_clean_linker_1, # of connection points: 2
#     Edge 62, Type (0, 0), BuildingBlock: KIFKEQ_clean_linker_1, # of connection points: 2
#     Edge 63, Type (0, 0), BuildingBlock: KIFKEQ_clean_linker_1, # of connection points: 2
#     Edge 64, Type (0, 0), BuildingBlock: KIFKEQ_clean_linker_1, # of connection points: 2
#     Edge 65, Type (0, 0), BuildingBlock: KIFKEQ_clean_linker_1, # of connection points: 2
#     Edge 66, Type (0, 0), BuildingBlock: KIFKEQ_clean_linker_1, # of connection points: 2
#     Edge 67, Type (0, 0), BuildingBlock: KIFKEQ_clean_linker_1, # of connection points: 2
#     Edge 68, Type (0, 0), BuildingBlock: KIFKEQ_clean_linker_1, # of connection points: 2
#     Edge 69, Type (0, 0), BuildingBlock: KIFKEQ_clean_linker_1, # of connection points: 2
#     Edge 70, Type (0, 0), BuildingBlock: KIFKEQ_clean_linker_1, # of connection points: 2
#     Edge 71, Type (0, 0), BuildingBlock: KIFKEQ_clean_linker_1, # of connection points: 2
#     Edge 72, Type (0, 0), BuildingBlock: KIFKEQ_clean_linker_1, # of connection points: 2
#     Edge 73, Type (0, 0), BuildingBlock: KIFKEQ_clean_linker_1, # of connection points: 2
#     Edge 74, Type (0, 0), BuildingBlock: KIFKEQ_clean_linker_1, # of connection points: 2
#     Edge 75, Type (0, 0), BuildingBlock: KIFKEQ_clean_linker_1, # of connection points: 2
#     Edge 76, Type (0, 0), BuildingBlock: KIFKEQ_clean_linker_1, # of connection points: 2
#     Edge 77, Type (0, 0), BuildingBlock: KIFKEQ_clean_linker_1, # of connection points: 2
#     Edge 78, Type (0, 0), BuildingBlock: KIFKEQ_clean_linker_1, # of connection points: 2
#     Edge 79, Type (0, 0), BuildingBlock: KIFKEQ_clean_linker_1, # of connection points: 2
#     Edge 80, Type (0, 0), BuildingBlock: KIFKEQ_clean_linker_1, # of connection points: 2
#     Edge 81, Type (0, 0), BuildingBlock: KIFKEQ_clean_linker_1, # of connection points: 2
#     Edge 82, Type (0, 0), BuildingBlock: KIFKEQ_clean_linker_1, # of connection points: 2
#     Edge 83, Type (0, 0), BuildingBlock: KIFKEQ_clean_linker_1, # of connection points: 2
#     Edge 84, Type (0, 0), BuildingBlock: KIFKEQ_clean_linker_1, # of connection points: 2
#     Edge 85, Type (0, 0), BuildingBlock: KIFKEQ_clean_linker_1, # of connection points: 2
#     Edge 86, Type (0, 0), BuildingBlock: KIFKEQ_clean_linker_1, # of connection points: 2
#     Edge 87, Type (0, 0), BuildingBlock: KIFKEQ_clean_linker_1, # of connection points: 2
#     Edge 88, Type (0, 0), BuildingBlock: KIFKEQ_clean_linker_1, # of connection points: 2
#     Edge 89, Type (0, 0), BuildingBlock: KIFKEQ_clean_linker_1, # of connection points: 2
#     Edge 90, Type (0, 0), BuildingBlock: KIFKEQ_clean_linker_1, # of connection points: 2
#     Edge 91, Type (0, 0), BuildingBlock: KIFKEQ_clean_linker_1, # of connection points: 2
#     Edge 92, Type (0, 0), BuildingBlock: KIFKEQ_clean_linker_1, # of connection points: 2
#     Edge 93, Type (0, 0), BuildingBlock: KIFKEQ_clean_linker_1, # of connection points: 2
#     Edge 94, Type (0, 0), BuildingBlock: KIFKEQ_clean_linker_1, # of connection points: 2
#     Edge 95, Type (0, 0), BuildingBlock: KIFKEQ_clean_linker_1, # of connection points: 2
#     Edge 96, Type (0, 0), BuildingBlock: KIFKEQ_clean_linker_1, # of connection points: 2
#     Edge 97, Type (0, 0), BuildingBlock: KIFKEQ_clean_linker_1, # of connection points: 2
#     Edge 98, Type (0, 0), BuildingBlock: KIFKEQ_clean_linker_1, # of connection points: 2
#     Edge 99, Type (0, 0), BuildingBlock: KIFKEQ_clean_linker_1, # of connection points: 2
#     Edge 100, Type (0, 0), BuildingBlock: KIFKEQ_clean_linker_1, # of connection points: 2
#     Edge 101, Type (0, 0), BuildingBlock: KIFKEQ_clean_linker_1, # of connection points: 2
#     Edge 102, Type (0, 0), BuildingBlock: KIFKEQ_clean_linker_1, # of connection points: 2
#     Edge 103, Type (0, 0), BuildingBlock: KIFKEQ_clean_linker_1, # of connection points: 2
#     Edge 104, Type (0, 0), BuildingBlock: KIFKEQ_clean_linker_1, # of connection points: 2
#     Edge 105, Type (0, 0), BuildingBlock: KIFKEQ_clean_linker_1, # of connection points: 2
#     Edge 106, Type (0, 0), BuildingBlock: KIFKEQ_clean_linker_1, # of connection points: 2
#     Edge 107, Type (0, 0), BuildingBlock: KIFKEQ_clean_linker_1, # of connection points: 2
#     Edge 108, Type (0, 0), BuildingBlock: KIFKEQ_clean_linker_1, # of connection points: 2
#     Edge 109, Type (0, 0), BuildingBlock: KIFKEQ_clean_linker_1, # of connection points: 2
#     Edge 110, Type (0, 0), BuildingBlock: KIFKEQ_clean_linker_1, # of connection points: 2
#     Edge 111, Type (0, 0), BuildingBlock: KIFKEQ_clean_linker_1, # of connection points: 2
#     Edge 112, Type (0, 0), BuildingBlock: KIFKEQ_clean_linker_1, # of connection points: 2
#     Edge 113, Type (0, 0), BuildingBlock: KIFKEQ_clean_linker_1, # of connection points: 2
#     Edge 114, Type (0, 0), BuildingBlock: KIFKEQ_clean_linker_1, # of connection points: 2
#     Edge 115, Type (0, 0), BuildingBlock: KIFKEQ_clean_linker_1, # of connection points: 2
#     Edge 116, Type (0, 0), BuildingBlock: KIFKEQ_clean_linker_1, # of connection points: 2
#     Edge 117, Type (0, 0), BuildingBlock: KIFKEQ_clean_linker_1, # of connection points: 2
#     Edge 118, Type (0, 0), BuildingBlock: KIFKEQ_clean_linker_1, # of connection points: 2
#     Edge 119, Type (0, 0), BuildingBlock: KIFKEQ_clean_linker_1, # of connection points: 2
#     Edge 120, Type (0, 0), BuildingBlock: KIFKEQ_clean_linker_1, # of connection points: 2
#     Edge 121, Type (0, 0), BuildingBlock: KIFKEQ_clean_linker_1, # of connection points: 2
#     Edge 122, Type (0, 0), BuildingBlock: KIFKEQ_clean_linker_1, # of connection points: 2
#     Edge 123, Type (0, 0), BuildingBlock: KIFKEQ_clean_linker_1, # of connection points: 2
#     Edge 124, Type (0, 0), BuildingBlock: KIFKEQ_clean_linker_1, # of connection points: 2
#     Edge 125, Type (0, 0), BuildingBlock: KIFKEQ_clean_linker_1, # of connection points: 2
#     Edge 126, Type (0, 0), BuildingBlock: KIFKEQ_clean_linker_1, # of connection points: 2
#     Edge 127, Type (0, 0), BuildingBlock: KIFKEQ_clean_linker_1, # of connection points: 2
#     Edge 128, Type (0, 0), BuildingBlock: KIFKEQ_clean_linker_1, # of connection points: 2
#     Edge 129, Type (0, 0), BuildingBlock: KIFKEQ_clean_linker_1, # of connection points: 2
#     Edge 130, Type (0, 0), BuildingBlock: KIFKEQ_clean_linker_1, # of connection points: 2
#     Edge 131, Type (0, 0), BuildingBlock: KIFKEQ_clean_linker_1, # of connection points: 2
#     Edge 132, Type (0, 0), BuildingBlock: KIFKEQ_clean_linker_1, # of connection points: 2
#     Edge 133, Type (0, 0), BuildingBlock: KIFKEQ_clean_linker_1, # of connection points: 2
#     Edge 134, Type (0, 0), BuildingBlock: KIFKEQ_clean_linker_1, # of connection points: 2
#     Edge 135, Type (0, 0), BuildingBlock: KIFKEQ_clean_linker_1, # of connection points: 2
#     Edge 136, Type (0, 0), BuildingBlock: KIFKEQ_clean_linker_1, # of connection points: 2
#     Edge 137, Type (0, 0), BuildingBlock: KIFKEQ_clean_linker_1, # of connection points: 2
#     Edge 138, Type (0, 0), BuildingBlock: KIFKEQ_clean_linker_1, # of connection points: 2
#     Edge 139, Type (0, 0), BuildingBlock: KIFKEQ_clean_linker_1, # of connection points: 2
#     Edge 140, Type (0, 0), BuildingBlock: KIFKEQ_clean_linker_1, # of connection points: 2
#     Edge 141, Type (0, 0), BuildingBlock: KIFKEQ_clean_linker_1, # of connection points: 2
#     Edge 142, Type (0, 0), BuildingBlock: KIFKEQ_clean_linker_1, # of connection points: 2
#     Edge 143, Type (0, 0), BuildingBlock: KIFKEQ_clean_linker_1, # of connection points: 2
# Relax obj value: 0.318
# Max RMSD: 0.087
# Mean RMSD: 0.085
data_MOF--net-nfb--node1-GALJAG_clean_sbu_0--edge1-KIFKEQ_clean_linker_1
_symmetry_space_group_name_H-M    P1
_symmetry_Int_Tables_number       1
_symmetry_cell_setting            triclinic
loop_
_symmetry_equiv_pos_as_xyz
'x, y, z'
_cell_length_a     59.84947
_cell_length_b     59.709034
_cell_length_c     59.8103
_cell_angle_alpha  89.966112
_cell_angle_beta   90.038965
_cell_angle_gamma 90.073447
loop_
_atom_site_label
_atom_site_type_symbol
_atom_site_fract_x
_atom_site_fract_y
_atom_site_fract_z
_atom_type_partial_charge
In0 In 0.13371 0.124 0.38691 0.0
O1 O 0.12367 0.11686 0.42246 0.0
O2 O 0.14655 0.09415 0.40703 0.0
C3 C 0.12327 0.16722 0.39315 0.0
C4 C 0.17823 0.12748 0.37684 0.0
C5 C 0.09603 0.10889 0.36552 0.0
O6 O 0.12732 0.15411 0.40922 0.0
O7 O 0.124 0.15838 0.37399 0.0
O8 O 0.1104 0.12096 0.35569 0.0
O9 O 0.10193 0.1028 0.38475 0.0
C10 C 0.13557 0.09949 0.42429 0.0
O11 O 0.1662 0.11212 0.36835 0.0
O12 O 0.16758 0.14087 0.38902 0.0
In13 In 0.38243 0.62391 0.88058 0.0
O14 O 0.38499 0.59923 0.85073 0.0
O15 O 0.41082 0.59847 0.87464 0.0
C16 C 0.38449 0.66986 0.87878 0.0
C17 C 0.33855 0.61744 0.87456 0.0
C18 C 0.39413 0.61414 0.9227 0.0
O19 O 0.39703 0.65783 0.86657 0.0
O20 O 0.37175 0.65873 0.89125 0.0
O21 O 0.377 0.60606 0.91338 0.0
O22 O 0.40558 0.6273 0.91071 0.0
C23 C 0.40201 0.5891 0.85794 0.0
O24 O 0.34868 0.61175 0.89219 0.0
O25 O 0.35073 0.62605 0.85955 0.0
In26 In 0.87974 0.88449 0.38759 0.0
O27 O 0.89961 0.88317 0.4196 0.0
O28 O 0.87387 0.9077 0.41743 0.0
C29 C 0.88691 0.84019 0.38658 0.0
C30 C 0.83417 0.88639 0.38209 0.0
C31 C 0.9145 0.90259 0.36386 0.0
O32 O 0.88673 0.85137 0.40449 0.0
O33 O 0.88387 0.85148 0.36893 0.0
O34 O 0.9037 0.88569 0.35718 0.0
O35 O 0.90586 0.91196 0.38061 0.0
C36 C 0.88936 0.89907 0.42892 0.0
O37 O 0.84688 0.90129 0.37385 0.0
O38 O 0.84447 0.87113 0.39217 0.0
In39 In 0.62426 0.38837 0.88537 0.0
O40 O 0.59798 0.41208 0.86893 0.0
O41 O 0.63194 0.41664 0.86064 0.0
C42 C 0.62099 0.34264 0.88288 0.0
C43 C 0.66885 0.38986 0.88788 0.0
C44 C 0.60406 0.40095 0.92324 0.0
O45 O 0.61494 0.35494 0.86659 0.0
O46 O 0.62754 0.35349 0.89964 0.0
O47 O 0.62269 0.40873 0.91708 0.0
O48 O 0.59536 0.38679 0.91017 0.0
C49 C 0.6124 0.42431 0.8594 0.0
O50 O 0.65647 0.39359 0.90458 0.0
O51 O 0.65868 0.38568 0.86981 0.0
In52 In 0.12562 0.88145 0.63301 0.0
O53 O 0.10073 0.90628 0.65049 0.0
O54 O 0.09191 0.87213 0.64779 0.0
C55 C 0.16892 0.89548 0.63802 0.0
C56 C 0.1349 0.83793 0.63829 0.0
C57 C 0.11237 0.88895 0.59086 0.0
O58 O 0.15734 0.89911 0.62085 0.0
O59 O 0.15791 0.88719 0.65405 0.0
O60 O 0.11484 0.86957 0.59891 0.0
O61 O 0.1166 0.90484 0.60418 0.0
C62 C 0.08586 0.89144 0.65348 0.0
O63 O 0.1341 0.84728 0.61936 0.0
O64 O 0.13079 0.85056 0.65477 0.0
In65 In 0.62968 0.63535 0.13151 0.0
O66 O 0.66313 0.64241 0.11552 0.0
O67 O 0.66213 0.63857 0.15102 0.0
C68 C 0.61974 0.6224 0.08978 0.0
C69 C 0.61872 0.59616 0.15294 0.0
C70 C 0.61804 0.67936 0.13733 0.0
O71 O 0.63941 0.62264 0.09739 0.0
O72 O 0.60481 0.62856 0.10337 0.0
O73 O 0.61281 0.66792 0.12048 0.0
O74 O 0.62691 0.66798 0.15279 0.0
C75 C 0.67379 0.64218 0.13376 0.0
O76 O 0.60419 0.61106 0.149 0.0
O77 O 0.63822 0.60197 0.14778 0.0
In78 In 0.90312 0.13325 0.62583 0.0
O79 O 0.91207 0.16869 0.61582 0.0
O80 O 0.89228 0.16411 0.64519 0.0
C81 C 0.91513 0.12149 0.58436 0.0
C82 C 0.93871 0.11643 0.64926 0.0
C83 C 0.85781 0.12739 0.62614 0.0
O84 O 0.92035 0.1401 0.59292 0.0
O85 O 0.90397 0.10859 0.59685 0.0
O86 O 0.86962 0.12245 0.64312 0.0
O87 O 0.869 0.13377 0.60952 0.0
C88 C 0.90147 0.17762 0.63174 0.0
O89 O 0.92524 0.10398 0.63873 0.0
O90 O 0.93254 0.13653 0.65026 0.0
In91 In 0.37952 0.38567 0.12565 0.0
O92 O 0.34436 0.37962 0.11344 0.0
O93 O 0.34974 0.38 0.14873 0.0
C94 C 0.3881 0.39905 0.0838 0.0
C95 C 0.3908 0.42512 0.14615 0.0
C96 C 0.39188 0.34166 0.12872 0.0
O97 O 0.3686 0.39814 0.09182 0.0
O98 O 0.40355 0.39345 0.09712 0.0
O99 O 0.38882 0.35347 0.14605 0.0
O100 O 0.391 0.35263 0.11081 0.0
C101 C 0.33608 0.37765 0.13275 0.0
O102 O 0.4053 0.41009 0.14246 0.0
O103 O 0.37123 0.41937 0.14107 0.0
In104 In 0.38723 0.12784 0.12699 0.0
O105 O 0.3876 0.16037 0.10606 0.0
O106 O 0.36847 0.16072 0.13555 0.0
C107 C 0.36371 0.09236 0.10966 0.0
C108 C 0.42919 0.11709 0.11532 0.0
C109 C 0.39325 0.12646 0.17164 0.0
O110 O 0.35712 0.10332 0.1264 0.0
O111 O 0.38032 0.10103 0.10012 0.0
O112 O 0.40696 0.13578 0.1586 0.0
O113 O 0.37649 0.1178 0.16217 0.0
C114 C 0.3765 0.17197 0.11966 0.0
O115 O 0.41882 0.10722 0.13084 0.0
O116 O 0.4184 0.1325 0.10571 0.0
In117 In 0.38285 0.88949 0.6263 0.0
O118 O 0.40566 0.86971 0.60149 0.0
O119 O 0.41369 0.86909 0.63585 0.0
C120 C 0.33768 0.88615 0.6202 0.0
C121 C 0.37969 0.89312 0.67079 0.0
C122 C 0.3945 0.92748 0.60559 0.0
O123 O 0.34989 0.86879 0.62114 0.0
O124 O 0.34844 0.90423 0.62084 0.0
O125 O 0.40023 0.9231 0.62546 0.0
O126 O 0.38323 0.91241 0.59591 0.0
C127 C 0.41958 0.86394 0.61635 0.0
O128 O 0.38679 0.90892 0.65862 0.0
O129 O 0.37465 0.87533 0.66049 0.0
In130 In 0.6329 0.89317 0.12664 0.0
O131 O 0.65106 0.85928 0.1191 0.0
O132 O 0.61573 0.85981 0.11997 0.0
C133 C 0.65823 0.92805 0.11081 0.0
C134 C 0.592 0.9074 0.11559 0.0
C135 C 0.63407 0.89022 0.17145 0.0
O136 O 0.66074 0.91967 0.12996 0.0
O137 O 0.64515 0.91697 0.09851 0.0
O138 O 0.62031 0.9024 0.16111 0.0
O139 O 0.64788 0.88001 0.15922 0.0
C140 C 0.63307 0.84805 0.11839 0.0
O141 O 0.60114 0.91201 0.13407 0.0
O142 O 0.6036 0.89556 0.10245 0.0
In143 In 0.64479 0.13217 0.62973 0.0
O144 O 0.61867 0.15983 0.61961 0.0
O145 O 0.61276 0.12639 0.61007 0.0
C146 C 0.68852 0.1445 0.62337 0.0
C147 C 0.63338 0.13489 0.67302 0.0
C148 C 0.65011 0.08823 0.62257 0.0
O149 O 0.67596 0.13894 0.6073 0.0
O150 O 0.67839 0.14622 0.64167 0.0
O151 O 0.65084 0.09697 0.64177 0.0
O152 O 0.64717 0.10183 0.60663 0.0
C153 C 0.60524 0.14597 0.61088 0.0
O154 O 0.63219 0.117 0.66188 0.0
O155 O 0.63991 0.15185 0.66214 0.0
In156 In 0.38224 0.88678 0.8814 0.0
O157 O 0.41739 0.89794 0.87441 0.0
O158 O 0.41078 0.88411 0.90666 0.0
C159 C 0.37631 0.89598 0.838 0.0
C160 C 0.37805 0.84094 0.88306 0.0
C161 C 0.36155 0.92342 0.89987 0.0
O162 O 0.39432 0.90011 0.84823 0.0
O163 O 0.36096 0.88751 0.84985 0.0
O164 O 0.3523 0.91133 0.88522 0.0
O165 O 0.37954 0.91534 0.90715 0.0
C166 C 0.42491 0.89265 0.89342 0.0
O167 O 0.36868 0.85333 0.89753 0.0
O168 O 0.38863 0.85167 0.86845 0.0
In169 In 0.61808 0.88584 0.3803 0.0
O170 O 0.6065 0.91969 0.36808 0.0
O171 O 0.61541 0.91683 0.40245 0.0
C172 C 0.61589 0.87521 0.33697 0.0
C173 C 0.66353 0.88489 0.38603 0.0
C174 C 0.58184 0.86506 0.39932 0.0
O175 O 0.60469 0.89097 0.34548 0.0
O176 O 0.62774 0.86411 0.35056 0.0
O177 O 0.58992 0.85941 0.38073 0.0
O178 O 0.59373 0.87911 0.4097 0.0
C179 C 0.60876 0.9293 0.38673 0.0
O180 O 0.65104 0.87047 0.39547 0.0
O181 O 0.653 0.89933 0.37498 0.0
In182 In 0.62635 0.12614 0.8851 0.0
O183 O 0.59436 0.10627 0.88267 0.0
O184 O 0.5985 0.1277 0.91098 0.0
C185 C 0.62821 0.12503 0.84038 0.0
C186 C 0.62764 0.17187 0.88915 0.0
C187 C 0.65127 0.09079 0.90053 0.0
O188 O 0.61149 0.11802 0.85123 0.0
O189 O 0.64437 0.13186 0.85219 0.0
O190 O 0.65452 0.09995 0.88183 0.0
O191 O 0.63763 0.10129 0.9127 0.0
C192 C 0.58627 0.11385 0.90065 0.0
O193 O 0.64311 0.15973 0.89725 0.0
O194 O 0.61206 0.16086 0.88032 0.0
In195 In 0.39325 0.12542 0.38263 0.0
O196 O 0.36045 0.14287 0.39509 0.0
O197 O 0.35921 0.12196 0.36644 0.0
C198 C 0.43119 0.1441 0.40036 0.0
C199 C 0.38997 0.08676 0.40487 0.0
C200 C 0.40349 0.12527 0.33892 0.0
O201 O 0.41587 0.15613 0.39195 0.0
O202 O 0.4264 0.12362 0.40116 0.0
O203 O 0.40178 0.10752 0.3503 0.0
O204 O 0.40064 0.14319 0.34979 0.0
C205 C 0.34843 0.1339 0.37999 0.0
O206 O 0.401 0.08879 0.38696 0.0
O207 O 0.38067 0.10443 0.41188 0.0
In208 In 0.12528 0.37995 0.13453 0.0
O209 O 0.1604 0.39388 0.1343 0.0
O210 O 0.15665 0.35864 0.13868 0.0
C211 C 0.11551 0.42032 0.11779 0.0
C212 C 0.10904 0.35635 0.09883 0.0
C213 C 0.11672 0.37946 0.17953 0.0
O214 O 0.13364 0.41032 0.11363 0.0
O215 O 0.1021 0.40979 0.13033 0.0
O216 O 0.11368 0.36213 0.16765 0.0
O217 O 0.12235 0.39642 0.16848 0.0
C218 C 0.16974 0.37521 0.13745 0.0
O219 O 0.12808 0.35312 0.1072 0.0
O220 O 0.09699 0.36951 0.1101 0.0
In221 In 0.1264 0.62253 0.88079 0.0
O222 O 0.15939 0.60406 0.88312 0.0
O223 O 0.16031 0.63836 0.87349 0.0
C224 C 0.11201 0.58365 0.89765 0.0
C225 C 0.11338 0.64847 0.91624 0.0
C226 C 0.11773 0.62455 0.83581 0.0
O227 O 0.13082 0.592 0.9025 0.0
O228 O 0.1003 0.59495 0.88411 0.0
O229 O 0.11933 0.64213 0.84757 0.0
O230 O 0.11864 0.60676 0.847 0.0
C231 C 0.17111 0.6206 0.87723 0.0
O232 O 0.13268 0.64903 0.90791 0.0
O233 O 0.09967 0.63702 0.90495 0.0
In234 In 0.88125 0.62745 0.38037 0.0
O235 O 0.91477 0.62964 0.39773 0.0
O236 O 0.91199 0.60748 0.36995 0.0
C237 C 0.88486 0.67214 0.38482 0.0
C238 C 0.86865 0.62224 0.33653 0.0
C239 C 0.86059 0.6092 0.41717 0.0
O240 O 0.90023 0.66021 0.37673 0.0
O241 O 0.86769 0.66149 0.39099 0.0
O242 O 0.85165 0.62431 0.40544 0.0
O243 O 0.87828 0.60159 0.40879 0.0
C244 C 0.92422 0.61559 0.38514 0.0
O245 O 0.87476 0.60593 0.34853 0.0
O246 O 0.86643 0.64017 0.34728 0.0
In247 In 0.88079 0.38222 0.89133 0.0
O248 O 0.84836 0.40137 0.88743 0.0
O249 O 0.8467 0.3682 0.90067 0.0
C250 C 0.89275 0.42539 0.89557 0.0
C251 C 0.89732 0.36313 0.92994 0.0
C252 C 0.88617 0.36957 0.84731 0.0
O253 O 0.87537 0.41735 0.90443 0.0
O254 O 0.90419 0.41162 0.8844 0.0
O255 O 0.90214 0.37658 0.85915 0.0
O256 O 0.86864 0.36624 0.85833 0.0
C257 C 0.83627 0.38562 0.89473 0.0
O258 O 0.88099 0.35504 0.91938 0.0
O259 O 0.90684 0.37881 0.91963 0.0
In260 In 0.11891 0.37901 0.39285 0.0
O261 O 0.12337 0.40101 0.36102 0.0
O262 O 0.13505 0.36783 0.35975 0.0
C263 C 0.13519 0.39591 0.43239 0.0
C264 C 0.07555 0.38998 0.3927 0.0
C265 C 0.11857 0.33454 0.39999 0.0
O266 O 0.14811 0.38847 0.4174 0.0
O267 O 0.11501 0.39602 0.4267 0.0
O268 O 0.10171 0.34541 0.39358 0.0
O269 O 0.13596 0.34618 0.40315 0.0
C270 C 0.13111 0.38548 0.34903 0.0
O271 O 0.08254 0.3701 0.39402 0.0
O272 O 0.09062 0.4048 0.39112 0.0
In273 In 0.88392 0.62591 0.1218 0.0
O274 O 0.84845 0.61336 0.12051 0.0
O275 O 0.85383 0.64851 0.12563 0.0
C276 C 0.90765 0.58856 0.11566 0.0
C277 C 0.89228 0.64578 0.08176 0.0
C278 C 0.88619 0.6274 0.16714 0.0
O279 O 0.88728 0.59014 0.11027 0.0
O280 O 0.91634 0.60614 0.12369 0.0
O281 O 0.89314 0.64383 0.15537 0.0
O282 O 0.8792 0.61095 0.15592 0.0
C283 C 0.84001 0.63251 0.12388 0.0
O284 O 0.90401 0.65059 0.09889 0.0
O285 O 0.87692 0.6318 0.08532 0.0
In286 In 0.87773 0.38894 0.63256 0.0
O287 O 0.91002 0.38743 0.61324 0.0
O288 O 0.9052 0.41528 0.63514 0.0
C289 C 0.87733 0.34417 0.62889 0.0
C290 C 0.8778 0.39139 0.67832 0.0
C291 C 0.85144 0.40577 0.59896 0.0
O292 O 0.89115 0.35633 0.61856 0.0
O293 O 0.8632 0.35463 0.64056 0.0
O294 O 0.84804 0.38698 0.60794 0.0
O295 O 0.86587 0.41739 0.60905 0.0
C296 C 0.91779 0.40535 0.62136 0.0
O297 O 0.86099 0.39789 0.66703 0.0
O298 O 0.89393 0.38497 0.66651 0.0
In299 In 0.13083 0.62825 0.62351 0.0
O300 O 0.11798 0.611 0.65525 0.0
O301 O 0.15142 0.62213 0.65604 0.0
C302 C 0.15175 0.61728 0.58418 0.0
C303 C 0.08861 0.62171 0.6099 0.0
C304 C 0.1369 0.67168 0.63278 0.0
O305 O 0.1477 0.60269 0.59902 0.0
O306 O 0.14682 0.63687 0.59001 0.0
O307 O 0.1178 0.66274 0.63162 0.0
O308 O 0.15315 0.65871 0.62898 0.0
C309 C 0.13514 0.61422 0.66695 0.0
O310 O 0.09719 0.64091 0.61212 0.0
O311 O 0.10146 0.60554 0.61445 0.0
In312 In 0.88114 0.88646 0.63357 0.0
O313 O 0.87993 0.85233 0.61723 0.0
O314 O 0.87781 0.85371 0.6528 0.0
C315 C 0.89486 0.8983 0.59275 0.0
C316 C 0.83634 0.89533 0.6376 0.0
C317 C 0.91884 0.89984 0.65606 0.0
O318 O 0.89739 0.87877 0.60052 0.0
O319 O 0.8857 0.91216 0.60587 0.0
O320 O 0.90698 0.91337 0.64498 0.0
O321 O 0.91037 0.88062 0.65772 0.0
C322 C 0.87787 0.84175 0.63538 0.0
O323 O 0.84898 0.89438 0.65457 0.0
O324 O 0.84662 0.89385 0.6194 0.0
In325 In 0.62753 0.39444 0.12583 0.0
O326 O 0.65991 0.40581 0.11018 0.0
O327 O 0.66015 0.39839 0.14509 0.0
C328 C 0.61156 0.40284 0.08489 0.0
C329 C 0.62802 0.34848 0.12876 0.0
C330 C 0.60953 0.42945 0.14936 0.0
O331 O 0.63029 0.4098 0.0917 0.0
O332 O 0.60053 0.39141 0.09891 0.0
O333 O 0.60068 0.42135 0.13206 0.0
O334 O 0.62574 0.41804 0.15659 0.0
C335 C 0.67109 0.40448 0.12804 0.0
O336 O 0.61451 0.36001 0.14037 0.0
O337 O 0.64057 0.36009 0.11659 0.0
In338 In 0.14497 0.12215 0.62169 0.0
O339 O 0.14252 0.15433 0.6015 0.0
O340 O 0.13253 0.15507 0.63571 0.0
C341 C 0.1513 0.10224 0.58218 0.0
C342 C 0.18776 0.12103 0.63797 0.0
C343 C 0.10429 0.10732 0.63648 0.0
O344 O 0.15347 0.1231 0.58501 0.0
O345 O 0.14575 0.09121 0.59937 0.0
O346 O 0.12059 0.10989 0.64985 0.0
O347 O 0.10906 0.11114 0.61636 0.0
C348 C 0.13516 0.16573 0.61767 0.0
O349 O 0.17514 0.13776 0.63956 0.0
O350 O 0.17791 0.10367 0.631 0.0
In351 In 0.3879 0.63057 0.12962 0.0
O352 O 0.35333 0.6349 0.11499 0.0
O353 O 0.35634 0.63435 0.15052 0.0
C354 C 0.39505 0.61601 0.08793 0.0
C355 C 0.39967 0.67488 0.13343 0.0
C356 C 0.40144 0.59228 0.15115 0.0
O357 O 0.37599 0.6157 0.09703 0.0
O358 O 0.41071 0.6234 0.10008 0.0
O359 O 0.41482 0.60436 0.14012 0.0
O360 O 0.38233 0.60074 0.15319 0.0
C361 C 0.34368 0.63615 0.1337 0.0
O362 O 0.39514 0.66308 0.15039 0.0
O363 O 0.40054 0.66382 0.11562 0.0
In364 In 0.89091 0.13529 0.37787 0.0
O365 O 0.91495 0.10934 0.36097 0.0
O366 O 0.92445 0.14336 0.36162 0.0
C367 C 0.84703 0.12439 0.37021 0.0
C368 C 0.90362 0.12661 0.42003 0.0
C369 C 0.88385 0.17944 0.37582 0.0
O370 O 0.85886 0.13469 0.35609 0.0
O371 O 0.85799 0.11708 0.38663 0.0
O372 O 0.88278 0.16849 0.39388 0.0
O373 O 0.88878 0.1681 0.35865 0.0
C374 C 0.93004 0.12365 0.35692 0.0
O375 O 0.90302 0.14607 0.41188 0.0
O376 O 0.89764 0.11118 0.40685 0.0
In377 In 0.3843 0.38536 0.87585 0.0
O378 O 0.35232 0.37047 0.89019 0.0
O379 O 0.34942 0.39845 0.86827 0.0
C380 C 0.39367 0.3963 0.91856 0.0
C381 C 0.39167 0.34177 0.86327 0.0
C382 C 0.40094 0.42136 0.85263 0.0
O383 O 0.3774 0.40441 0.90794 0.0
O384 O 0.40533 0.38252 0.90768 0.0
O385 O 0.412 0.41121 0.86744 0.0
O386 O 0.38305 0.41151 0.84743 0.0
C387 C 0.33961 0.38398 0.88012 0.0
O388 O 0.37725 0.35411 0.85408 0.0
O389 O 0.40439 0.35223 0.87645 0.0
In390 In 0.11861 0.88223 0.38515 0.0
O391 O 0.09498 0.90869 0.36838 0.0
O392 O 0.08674 0.87444 0.36583 0.0
C393 C 0.16295 0.89168 0.37854 0.0
C394 C 0.10516 0.89345 0.42633 0.0
C395 C 0.12507 0.83784 0.38512 0.0
O396 O 0.15063 0.88394 0.3632 0.0
O397 O 0.15239 0.89704 0.39591 0.0
O398 O 0.12342 0.84901 0.40296 0.0
O399 O 0.12327 0.84908 0.3673 0.0
C400 C 0.08073 0.89426 0.36223 0.0
O401 O 0.10139 0.87448 0.41779 0.0
O402 O 0.11569 0.90703 0.41398 0.0
In403 In 0.62654 0.62793 0.88236 0.0
O404 O 0.63952 0.66059 0.86661 0.0
O405 O 0.60633 0.6612 0.87809 0.0
C406 C 0.6087 0.59191 0.85989 0.0
C407 C 0.67098 0.62426 0.88776 0.0
C408 C 0.6145 0.6197 0.92486 0.0
O409 O 0.59946 0.60102 0.87643 0.0
O410 O 0.62532 0.60273 0.85273 0.0
O411 O 0.62923 0.60853 0.91475 0.0
O412 O 0.60576 0.63528 0.91354 0.0
C413 C 0.62264 0.67238 0.87065 0.0
O414 O 0.65846 0.63301 0.90229 0.0
O415 O 0.66103 0.617 0.87059 0.0
In416 In 0.62849 0.88597 0.88612 0.0
O417 O 0.59515 0.90313 0.88363 0.0
O418 O 0.60205 0.88499 0.91364 0.0
C419 C 0.62236 0.88087 0.84188 0.0
C420 C 0.65374 0.92305 0.89656 0.0
C421 C 0.6349 0.84121 0.89409 0.0
O422 O 0.60946 0.89252 0.85378 0.0
O423 O 0.63861 0.87221 0.85212 0.0
O424 O 0.65053 0.85386 0.88739 0.0
O425 O 0.61719 0.85153 0.89886 0.0
C426 C 0.58844 0.89688 0.90265 0.0
O427 O 0.6457 0.91038 0.91146 0.0
O428 O 0.65143 0.9154 0.87712 0.0
In429 In 0.63552 0.13768 0.38215 0.0
O430 O 0.61122 0.15149 0.40963 0.0
O431 O 0.60324 0.15698 0.37576 0.0
C432 C 0.6795 0.14487 0.39296 0.0
C433 C 0.62236 0.09529 0.38899 0.0
C434 C 0.64271 0.14161 0.33821 0.0
O435 O 0.66751 0.1596 0.38375 0.0
O436 O 0.66869 0.12791 0.39925 0.0
O437 O 0.64303 0.12289 0.34809 0.0
O438 O 0.63856 0.15829 0.35052 0.0
C439 C 0.59692 0.15852 0.3957 0.0
O440 O 0.61891 0.10554 0.37086 0.0
O441 O 0.63267 0.10637 0.40374 0.0
In442 In 0.38331 0.1285 0.87826 0.0
O443 O 0.36691 0.10457 0.90465 0.0
O444 O 0.36236 0.09731 0.87053 0.0
C445 C 0.37448 0.17324 0.88507 0.0
C446 C 0.42365 0.1151 0.89266 0.0
C447 C 0.38914 0.13088 0.83388 0.0
O448 O 0.36131 0.1605 0.87458 0.0
O449 O 0.3904 0.16299 0.89419 0.0
O450 O 0.40498 0.13359 0.84758 0.0
O451 O 0.37027 0.12715 0.84261 0.0
C452 C 0.35974 0.09077 0.89032 0.0
O453 O 0.41692 0.11247 0.87284 0.0
O454 O 0.40988 0.12458 0.90557 0.0
In455 In 0.37283 0.88675 0.38942 0.0
O456 O 0.3989 0.86051 0.40268 0.0
O457 O 0.40921 0.89404 0.39705 0.0
C458 C 0.33075 0.86928 0.39418 0.0
C459 C 0.36778 0.92765 0.40695 0.0
C460 C 0.37822 0.88811 0.34499 0.0
O461 O 0.3428 0.86619 0.37725 0.0
O462 O 0.34112 0.87814 0.41031 0.0
O463 O 0.3683 0.90338 0.35565 0.0
O464 O 0.38592 0.87234 0.35676 0.0
C465 C 0.41485 0.87459 0.40285 0.0
O466 O 0.36543 0.92366 0.38635 0.0
O467 O 0.37275 0.91093 0.41893 0.0
In468 In 0.63432 0.1337 0.12813 0.0
O469 O 0.65094 0.10934 0.10226 0.0
O470 O 0.65229 0.10135 0.13668 0.0
C471 C 0.63609 0.17823 0.1172 0.0
C472 C 0.59338 0.11858 0.11834 0.0
C473 C 0.64073 0.1404 0.17181 0.0
O474 O 0.65361 0.16631 0.11783 0.0
O475 O 0.61837 0.16726 0.11993 0.0
O476 O 0.62163 0.13741 0.16334 0.0
O477 O 0.65688 0.13982 0.15819 0.0
C478 C 0.6563 0.09507 0.11703 0.0
O479 O 0.60111 0.11908 0.13798 0.0
O480 O 0.6065 0.12564 0.10331 0.0
In481 In 0.39812 0.13022 0.62328 0.0
O482 O 0.40149 0.11105 0.6559 0.0
O483 O 0.40781 0.14613 0.65643 0.0
C484 C 0.3938 0.08903 0.60647 0.0
C485 C 0.35474 0.14451 0.61926 0.0
C486 C 0.43824 0.1461 0.608 0.0
O487 O 0.39065 0.09341 0.62691 0.0
O488 O 0.39919 0.10551 0.5943 0.0
O489 O 0.42231 0.15925 0.61262 0.0
O490 O 0.43349 0.12572 0.61013 0.0
C491 C 0.40636 0.12811 0.66737 0.0
O492 O 0.36662 0.14784 0.63626 0.0
O493 O 0.36554 0.13669 0.60292 0.0
In494 In 0.38686 0.88798 0.13282 0.0
O495 O 0.42105 0.89983 0.14352 0.0
O496 O 0.41457 0.89801 0.10855 0.0
C497 C 0.38226 0.88306 0.17698 0.0
C498 C 0.36488 0.92637 0.12089 0.0
C499 C 0.38214 0.84386 0.12105 0.0
O500 O 0.40066 0.87989 0.16716 0.0
O501 O 0.36605 0.88834 0.16449 0.0
O502 O 0.36615 0.85499 0.12921 0.0
O503 O 0.39905 0.85554 0.11665 0.0
C504 C 0.42832 0.90259 0.12392 0.0
O505 O 0.36857 0.911 0.10675 0.0
O506 O 0.37082 0.92148 0.14043 0.0
In507 In 0.62174 0.8801 0.63302 0.0
O508 O 0.65587 0.88514 0.64816 0.0
O509 O 0.65558 0.86734 0.61751 0.0
C510 C 0.5857 0.86177 0.61137 0.0
C511 C 0.61165 0.87084 0.67558 0.0
C512 C 0.62181 0.92372 0.6234 0.0
O513 O 0.59304 0.88116 0.60761 0.0
O514 O 0.59819 0.85035 0.62403 0.0
O515 O 0.61334 0.91591 0.64113 0.0
O516 O 0.62963 0.90932 0.61002 0.0
C517 C 0.66724 0.87581 0.63318 0.0
O518 O 0.60477 0.88834 0.66587 0.0
O519 O 0.62295 0.85766 0.66355 0.0
In520 In 0.88223 0.63038 0.88174 0.0
O521 O 0.8504 0.61226 0.89118 0.0
O522 O 0.84842 0.64745 0.88533 0.0
C523 C 0.89946 0.58991 0.89021 0.0
C524 C 0.88203 0.63458 0.83605 0.0
C525 C 0.89958 0.65509 0.91617 0.0
O526 O 0.88348 0.59814 0.90121 0.0
O527 O 0.90707 0.60221 0.87477 0.0
O528 O 0.90998 0.63917 0.90709 0.0
O529 O 0.88206 0.66062 0.9058 0.0
C530 C 0.83826 0.62951 0.89021 0.0
O531 O 0.86897 0.62249 0.8472 0.0
O532 O 0.89576 0.6456 0.84796 0.0
In533 In 0.88155 0.39445 0.13847 0.0
O534 O 0.86649 0.37553 0.16839 0.0
O535 O 0.9 0.38576 0.17167 0.0
C536 C 0.89323 0.37923 0.09689 0.0
C537 C 0.83786 0.40177 0.13207 0.0
C538 C 0.90506 0.43245 0.14165 0.0
O539 O 0.89325 0.36614 0.11367 0.0
O540 O 0.88788 0.39905 0.1015 0.0
O541 O 0.88446 0.43132 0.14612 0.0
O542 O 0.91409 0.41421 0.13588 0.0
C543 C 0.8829 0.37797 0.18131 0.0
O544 O 0.85081 0.41673 0.13952 0.0
O545 O 0.84705 0.38328 0.12757 0.0
In546 In 0.12118 0.37638 0.63384 0.0
O547 O 0.08723 0.37315 0.61793 0.0
O548 O 0.09412 0.40338 0.63556 0.0
C549 C 0.12361 0.33253 0.62531 0.0
C550 C 0.14462 0.39381 0.59855 0.0
C551 C 0.12528 0.37689 0.67957 0.0
O552 O 0.1055 0.34334 0.62429 0.0
O553 O 0.14068 0.34393 0.63055 0.0
O554 O 0.1118 0.36501 0.66874 0.0
O555 O 0.13746 0.38928 0.66736 0.0
C556 C 0.08031 0.39206 0.62422 0.0
O557 O 0.14922 0.37526 0.60744 0.0
O558 O 0.13023 0.4049 0.60924 0.0
In559 In 0.13348 0.62731 0.12315 0.0
O560 O 0.16806 0.61402 0.13046 0.0
O561 O 0.16422 0.64938 0.12659 0.0
C562 C 0.1246 0.58479 0.11204 0.0
C563 C 0.12174 0.63423 0.16688 0.0
C564 C 0.12318 0.64678 0.0829 0.0
O565 O 0.1442 0.59239 0.11394 0.0
O566 O 0.10918 0.59876 0.11577 0.0
O567 O 0.1087 0.64512 0.0983 0.0
O568 O 0.14224 0.64003 0.08853 0.0
C569 C 0.17717 0.63312 0.13049 0.0
O570 O 0.12946 0.64967 0.15465 0.0
O571 O 0.11731 0.61654 0.15634 0.0
In572 In 0.88315 0.63052 0.62158 0.0
O573 O 0.91539 0.63856 0.60377 0.0
O574 O 0.91168 0.60564 0.6172 0.0
C575 C 0.87896 0.67469 0.62763 0.0
C576 C 0.86047 0.61793 0.58384 0.0
C577 C 0.87972 0.62085 0.66621 0.0
O578 O 0.89765 0.66527 0.62511 0.0
O579 O 0.86218 0.66183 0.62677 0.0
O580 O 0.86266 0.62117 0.65361 0.0
O581 O 0.89785 0.62334 0.65591 0.0
C582 C 0.92389 0.61945 0.6068 0.0
O583 O 0.8674 0.60362 0.59788 0.0
O584 O 0.86319 0.63787 0.59002 0.0
In585 In 0.12755 0.38016 0.89384 0.0
O586 O 0.16117 0.3961 0.88729 0.0
O587 O 0.16024 0.36068 0.89213 0.0
C588 C 0.11598 0.42104 0.90822 0.0
C589 C 0.1169 0.3748 0.84959 0.0
C590 C 0.11617 0.3581 0.93231 0.0
O591 O 0.1358 0.41387 0.90859 0.0
O592 O 0.10165 0.40735 0.90079 0.0
O593 O 0.10154 0.36373 0.91806 0.0
O594 O 0.13589 0.36187 0.92611 0.0
C595 C 0.17188 0.37794 0.88829 0.0
O596 O 0.12005 0.3581 0.86229 0.0
O597 O 0.11706 0.39323 0.85969 0.0
In598 In 0.13421 0.62543 0.37955 0.0
O599 O 0.09989 0.63357 0.39267 0.0
O600 O 0.10326 0.60372 0.37346 0.0
C601 C 0.13355 0.67013 0.38424 0.0
C602 C 0.15326 0.60718 0.4173 0.0
C603 C 0.14544 0.62077 0.33515 0.0
O604 O 0.11738 0.6591 0.37632 0.0
O605 O 0.15015 0.65853 0.39031 0.0
O606 O 0.14982 0.63772 0.34674 0.0
O607 O 0.13789 0.60462 0.34652 0.0
C608 C 0.0905 0.61659 0.38433 0.0
O609 O 0.13487 0.60092 0.40929 0.0
O610 O 0.16354 0.62079 0.40484 0.0
In611 In 0.86901 0.39028 0.39262 0.0
O612 O 0.9026 0.38263 0.40778 0.0
O613 O 0.89791 0.41525 0.39401 0.0
C614 C 0.86974 0.34608 0.38507 0.0
C615 C 0.84767 0.40087 0.43193 0.0
C616 C 0.86096 0.4002 0.34857 0.0
O617 O 0.88733 0.35773 0.38628 0.0
O618 O 0.85172 0.35672 0.38789 0.0
O619 O 0.84676 0.39028 0.36069 0.0
O620 O 0.87743 0.40764 0.35935 0.0
C621 C 0.91093 0.4016 0.40355 0.0
O622 O 0.85242 0.41576 0.41762 0.0
O623 O 0.85182 0.38136 0.42538 0.0
H624 H 0.08406 0.30702 0.38956 0.0
H625 H 0.15163 0.30668 0.41513 0.0
H626 H 0.08356 0.26624 0.38998 0.0
H627 H 0.15101 0.26562 0.41562 0.0
H628 H 0.13195 0.1918 0.43056 0.0
H629 H 0.12984 0.23257 0.43451 0.0
H630 H 0.10544 0.2378 0.36674 0.0
H631 H 0.10771 0.1972 0.3627 0.0
C632 C 0.09874 0.29822 0.39548 0.0
C633 C 0.11797 0.30998 0.40217 0.0
C634 C 0.09844 0.27491 0.39564 0.0
C635 C 0.11727 0.26288 0.40271 0.0
C636 C 0.13623 0.27458 0.41022 0.0
C637 C 0.13662 0.298 0.40985 0.0
C638 C 0.12589 0.20168 0.41662 0.0
C639 C 0.11998 0.19142 0.39632 0.0
C640 C 0.12485 0.22494 0.41884 0.0
C641 C 0.11753 0.23822 0.40092 0.0
C642 C 0.11099 0.22788 0.38087 0.0
C643 C 0.11234 0.2047 0.37854 0.0
H644 H 0.3101 0.59743 0.90371 0.0
H645 H 0.31188 0.63352 0.84108 0.0
H646 H 0.26948 0.5973 0.90258 0.0
H647 H 0.27101 0.63313 0.83981 0.0
H648 H 0.19997 0.65359 0.86433 0.0
H649 H 0.24062 0.65124 0.86154 0.0
H650 H 0.23786 0.58175 0.88157 0.0
H651 H 0.19733 0.58419 0.88469 0.0
C652 C 0.30179 0.60507 0.88955 0.0
C653 C 0.31411 0.61554 0.87252 0.0
C654 C 0.27852 0.60491 0.88884 0.0
C655 C 0.26709 0.61525 0.87113 0.0
C656 C 0.27942 0.62524 0.85378 0.0
C657 C 0.30276 0.62532 0.85444 0.0
C658 C 0.20807 0.63783 0.86807 0.0
C659 C 0.19556 0.61914 0.8749 0.0
C660 C 0.2313 0.63642 0.8663 0.0
C661 C 0.24238 0.61632 0.87138 0.0
C662 C 0.22978 0.59753 0.87781 0.0
C663 C 0.20659 0.59893 0.87954 0.0
H664 H 0.89231 0.81252 0.35063 0.0
H665 H 0.88581 0.81246 0.42259 0.0
H666 H 0.89308 0.77153 0.35079 0.0
H667 H 0.88642 0.77159 0.42267 0.0
H668 H 0.85728 0.70085 0.40696 0.0
H669 H 0.85938 0.74174 0.4077 0.0
H670 H 0.91805 0.73969 0.36578 0.0
H671 H 0.9161 0.69879 0.36516 0.0
C672 C 0.89121 0.80375 0.36645 0.0
C673 C 0.88895 0.81562 0.38658 0.0
C674 C 0.89172 0.78036 0.36655 0.0
C675 C 0.88969 0.7685 0.38674 0.0
C676 C 0.8878 0.78038 0.40688 0.0
C677 C 0.88758 0.80373 0.40681 0.0
C678 C 0.87068 0.70914 0.39802 0.0
C679 C 0.88653 0.69671 0.38602 0.0
C680 C 0.87193 0.73248 0.39851 0.0
C681 C 0.88887 0.74377 0.38677 0.0
C682 C 0.90475 0.73134 0.37483 0.0
C683 C 0.90369 0.70799 0.37459 0.0
H684 H 0.807 0.35769 0.91586 0.0
H685 H 0.81032 0.4169 0.87439 0.0
H686 H 0.76612 0.3594 0.91491 0.0
H687 H 0.76955 0.41836 0.87325 0.0
H688 H 0.69873 0.39174 0.85366 0.0
H689 H 0.7395 0.39141 0.8563 0.0
H690 H 0.73497 0.38746 0.92823 0.0
H691 H 0.69416 0.3881 0.92567 0.0
C692 C 0.79898 0.37109 0.90665 0.0
C693 C 0.81175 0.38715 0.89518 0.0
C694 C 0.77567 0.3721 0.90618 0.0
C695 C 0.76483 0.38896 0.89394 0.0
C696 C 0.77759 0.40512 0.88265 0.0
C697 C 0.80086 0.40432 0.88341 0.0
C698 C 0.70646 0.39087 0.87002 0.0
C699 C 0.69337 0.38999 0.88946 0.0
C700 C 0.72972 0.39077 0.87152 0.0
C701 C 0.74024 0.38942 0.89247 0.0
C702 C 0.72717 0.3884 0.91191 0.0
C703 C 0.7039 0.38888 0.91043 0.0
H704 H 0.174 0.69748 0.62598 0.0
H705 H 0.10606 0.69996 0.65022 0.0
H706 H 0.17708 0.73815 0.6306 0.0
H707 H 0.10922 0.74038 0.655 0.0
H708 H 0.12707 0.8114 0.67466 0.0
H709 H 0.13084 0.7706 0.67678 0.0
H710 H 0.15661 0.76958 0.60937 0.0
H711 H 0.15269 0.81016 0.60715 0.0
C712 C 0.15988 0.70667 0.6326 0.0
C713 C 0.13972 0.69569 0.63753 0.0
C714 C 0.16164 0.72987 0.63521 0.0
C715 C 0.14339 0.74231 0.64315 0.0
C716 C 0.12361 0.73114 0.64907 0.0
C717 C 0.12175 0.70806 0.64615 0.0
C718 C 0.13384 0.80245 0.66045 0.0
C719 C 0.13938 0.81382 0.64067 0.0
C720 C 0.13596 0.77918 0.66166 0.0
C721 C 0.14399 0.76703 0.64323 0.0
C722 C 0.15058 0.77858 0.62388 0.0
C723 C 0.14816 0.80176 0.62256 0.0
H724 H 0.70182 0.62921 0.16721 0.0
H725 H 0.70077 0.65978 0.10172 0.0
H726 H 0.74273 0.62876 0.16626 0.0
H727 H 0.74163 0.65969 0.10103 0.0
H728 H 0.81655 0.67149 0.12021 0.0
H729 H 0.77609 0.67646 0.12447 0.0
H730 H 0.76885 0.60585 0.13823 0.0
H731 H 0.80906 0.60074 0.13354 0.0
C732 C 0.71035 0.6362 0.15283 0.0
C733 C 0.69824 0.64439 0.13447 0.0
C734 C 0.73366 0.63586 0.15227 0.0
C735 C 0.74515 0.64413 0.13354 0.0
C736 C 0.73307 0.65335 0.11568 0.0
C737 C 0.70977 0.6533 0.11605 0.0
C738 C 0.80627 0.65708 0.12415 0.0
C739 C 0.81581 0.63572 0.12642 0.0
C740 C 0.78323 0.65993 0.12658 0.0
C741 C 0.76956 0.64155 0.13182 0.0
C742 C 0.77916 0.62029 0.13443 0.0
C743 C 0.80207 0.61736 0.13156 0.0
H744 H 0.86719 0.20002 0.65132 0.0
H745 H 0.92875 0.20991 0.61509 0.0
H746 H 0.85994 0.24011 0.65001 0.0
H747 H 0.92247 0.25016 0.61502 0.0
H748 H 0.8958 0.31781 0.59691 0.0
H749 H 0.90101 0.27741 0.59805 0.0
H750 H 0.8694 0.27528 0.66311 0.0
H751 H 0.86291 0.31546 0.66105 0.0
C752 C 0.87942 0.21091 0.64353 0.0
C753 C 0.89849 0.20199 0.63327 0.0
C754 C 0.87533 0.23392 0.64281 0.0
C755 C 0.8905 0.24851 0.63223 0.0
C756 C 0.91005 0.23948 0.62274 0.0
C757 C 0.91383 0.21644 0.623 0.0
C758 C 0.88974 0.30856 0.61128 0.0
C759 C 0.87892 0.31963 0.62885 0.0
C760 C 0.89295 0.28544 0.61211 0.0
C761 C 0.88593 0.27297 0.63084 0.0
C762 C 0.87477 0.28416 0.64827 0.0
C763 C 0.87109 0.30722 0.64716 0.0
H764 H 0.30681 0.35992 0.10298 0.0
H765 H 0.31134 0.38659 0.16996 0.0
H766 H 0.26634 0.3564 0.10702 0.0
H767 H 0.27065 0.38349 0.17379 0.0
H768 H 0.19903 0.4081 0.14828 0.0
H769 H 0.2397 0.40558 0.1502 0.0
H770 H 0.23622 0.33549 0.1329 0.0
H771 H 0.19529 0.33784 0.13144 0.0
C772 C 0.29914 0.36482 0.11864 0.0
C773 C 0.31208 0.37367 0.13612 0.0
C774 C 0.27606 0.36265 0.12098 0.0
C775 C 0.26553 0.3697 0.14069 0.0
C776 C 0.2785 0.37798 0.15844 0.0
C777 C 0.30169 0.37971 0.15626 0.0
C778 C 0.20693 0.39211 0.14509 0.0
C779 C 0.19412 0.37319 0.13958 0.0
C780 C 0.23013 0.39064 0.14638 0.0
C781 C 0.24094 0.37034 0.14177 0.0
C782 C 0.22816 0.3513 0.13655 0.0
C783 C 0.20485 0.35265 0.13572 0.0
H784 H 0.36896 0.1031 0.2023 0.0
H785 H 0.42516 0.14815 0.19598 0.0
H786 H 0.37421 0.10226 0.24276 0.0
H787 H 0.43039 0.14729 0.23652 0.0
H788 H 0.40912 0.16099 0.311 0.0
H789 H 0.40855 0.16071 0.27014 0.0
H790 H 0.40262 0.08862 0.27074 0.0
H791 H 0.40317 0.08886 0.31155 0.0
C792 C 0.38246 0.11276 0.20956 0.0
C793 C 0.39662 0.12571 0.19604 0.0
C794 C 0.38556 0.11216 0.23268 0.0
C795 C 0.40276 0.12465 0.24273 0.0
C796 C 0.41694 0.1376 0.2292 0.0
C797 C 0.41398 0.13803 0.20603 0.0
C798 C 0.40803 0.14508 0.30238 0.0
C799 C 0.40607 0.12496 0.31442 0.0
C800 C 0.40777 0.14491 0.27903 0.0
C801 C 0.40534 0.12465 0.26733 0.0
C802 C 0.40421 0.10448 0.27938 0.0
C803 C 0.40468 0.10463 0.3027 0.0
H804 H 0.38987 0.9294 0.69653 0.0
H805 H 0.36393 0.86191 0.70002 0.0
H806 H 0.38644 0.93278 0.73706 0.0
H807 H 0.36083 0.86516 0.74052 0.0
H808 H 0.34153 0.88365 0.81107 0.0
H809 H 0.34029 0.88507 0.77023 0.0
H810 H 0.40552 0.91618 0.76939 0.0
H811 H 0.40661 0.91507 0.81005 0.0
C812 C 0.38343 0.9153 0.70597 0.0
C813 C 0.37731 0.89533 0.69519 0.0
C814 C 0.3815 0.91723 0.72914 0.0
C815 C 0.37336 0.89924 0.74194 0.0
C816 C 0.36686 0.87942 0.73107 0.0
C817 C 0.36883 0.87748 0.70791 0.0
C818 C 0.35543 0.8911 0.80213 0.0
C819 C 0.37423 0.89912 0.81367 0.0
C820 C 0.35478 0.89178 0.77879 0.0
C821 C 0.37288 0.90058 0.76664 0.0
C822 C 0.39123 0.90948 0.77829 0.0
C823 C 0.39191 0.90873 0.80157 0.0
H824 H 0.65141 0.85587 0.19603 0.0
H825 H 0.61342 0.91703 0.20151 0.0
H826 H 0.64575 0.84868 0.23585 0.0
H827 H 0.60867 0.91059 0.24131 0.0
H828 H 0.58438 0.88632 0.30643 0.0
H829 H 0.5887 0.88762 0.266 0.0
H830 H 0.65538 0.86046 0.27242 0.0
H831 H 0.6504 0.85803 0.31284 0.0
C832 C 0.64219 0.86795 0.20588 0.0
C833 C 0.63278 0.88696 0.19578 0.0
C834 C 0.63893 0.86385 0.22867 0.0
C835 C 0.62646 0.87887 0.24178 0.0
C836 C 0.61776 0.89828 0.23165 0.0
C837 C 0.62071 0.90216 0.20888 0.0
C838 C 0.59974 0.88018 0.29909 0.0
C839 C 0.6171 0.8722 0.31264 0.0
C840 C 0.60236 0.88117 0.27597 0.0
C841 C 0.62262 0.8747 0.26596 0.0
C842 C 0.63953 0.86551 0.27951 0.0
C843 C 0.6367 0.86411 0.30266 0.0
H844 H 0.59561 0.11108 0.81181 0.0
H845 H 0.6606 0.14265 0.81358 0.0
H846 H 0.59474 0.11515 0.77123 0.0
H847 H 0.65985 0.14645 0.77295 0.0
H848 H 0.64173 0.1689 0.70247 0.0
H849 H 0.63931 0.1672 0.74329 0.0
H850 H 0.61468 0.09928 0.73898 0.0
H851 H 0.61682 0.10107 0.69841 0.0
C852 C 0.60977 0.11876 0.8035 0.0
C853 C 0.62823 0.12646 0.8158 0.0
C854 C 0.60926 0.12107 0.78029 0.0
C855 C 0.62718 0.13121 0.76896 0.0
C856 C 0.64565 0.13888 0.78128 0.0
C857 C 0.64619 0.13649 0.8045 0.0
C858 C 0.63548 0.15376 0.71029 0.0
C859 C 0.62952 0.1351 0.69733 0.0
C860 C 0.63428 0.15272 0.7336 0.0
C861 C 0.62696 0.13305 0.74428 0.0
C862 C 0.62021 0.11472 0.73122 0.0
C863 C 0.62151 0.11572 0.70799 0.0
H864 H 0.86529 0.81439 0.60145 0.0
H865 H 0.88587 0.81402 0.67071 0.0
H866 H 0.86331 0.7735 0.60181 0.0
H867 H 0.88435 0.77296 0.67085 0.0
H868 H 0.91121 0.70299 0.64243 0.0
H869 H 0.90876 0.74364 0.64658 0.0
H870 H 0.84016 0.74179 0.62434 0.0
H871 H 0.84239 0.70095 0.62064 0.0
C872 C 0.86931 0.80554 0.61675 0.0
C873 C 0.87584 0.81724 0.63603 0.0
C874 C 0.86802 0.78223 0.61698 0.0
C875 C 0.87365 0.77028 0.63636 0.0
C876 C 0.87995 0.78195 0.65573 0.0
C877 C 0.88079 0.80532 0.65564 0.0
C878 C 0.89556 0.71125 0.63862 0.0
C879 C 0.87701 0.69896 0.63111 0.0
C880 C 0.89414 0.73441 0.64115 0.0
C881 C 0.87428 0.74565 0.63579 0.0
C882 C 0.85563 0.73336 0.62855 0.0
C883 C 0.8569 0.71011 0.62647 0.0
H884 H 0.80867 0.37683 0.10781 0.0
H885 H 0.81248 0.4339 0.15203 0.0
H886 H 0.76807 0.38063 0.10635 0.0
H887 H 0.77169 0.43743 0.15083 0.0
H888 H 0.69838 0.40787 0.16453 0.0
H889 H 0.73926 0.41014 0.16461 0.0
H890 H 0.73936 0.41081 0.09244 0.0
H891 H 0.69863 0.40886 0.09226 0.0
C892 C 0.80081 0.39026 0.11708 0.0
C893 C 0.81362 0.40508 0.13002 0.0
C894 C 0.77765 0.39248 0.11618 0.0
C895 C 0.7669 0.40932 0.12848 0.0
C896 C 0.77969 0.42429 0.14127 0.0
C897 C 0.80294 0.42233 0.14185 0.0
C898 C 0.70715 0.40883 0.14872 0.0
C899 C 0.69541 0.40806 0.1284 0.0
C900 C 0.73046 0.41022 0.14877 0.0
C901 C 0.7423 0.41053 0.12852 0.0
C902 C 0.73053 0.41045 0.10824 0.0
C903 C 0.70727 0.4094 0.10818 0.0
H904 H 0.11102 0.19158 0.64612 0.0
H905 H 0.15093 0.1945 0.58601 0.0
H906 H 0.10717 0.2323 0.64547 0.0
H907 H 0.14733 0.23537 0.5856 0.0
H908 H 0.16056 0.30675 0.6185 0.0
H909 H 0.16189 0.26602 0.61399 0.0
H910 H 0.09001 0.26292 0.6192 0.0
H911 H 0.08858 0.3036 0.6234 0.0
C912 C 0.1188 0.20093 0.63268 0.0
C913 C 0.1313 0.18999 0.61614 0.0
C914 C 0.11652 0.22416 0.63227 0.0
C915 C 0.12701 0.23683 0.61551 0.0
C916 C 0.13919 0.22588 0.59873 0.0
C917 C 0.14114 0.20258 0.59892 0.0
C918 C 0.14506 0.29736 0.61848 0.0
C919 C 0.12449 0.30823 0.6214 0.0
C920 C 0.14581 0.27415 0.61577 0.0
C921 C 0.12604 0.26148 0.61629 0.0
C922 C 0.10546 0.27239 0.61884 0.0
C923 C 0.10467 0.29561 0.62119 0.0
H924 H 0.20252 0.66992 0.12119 0.0
H925 H 0.20613 0.60276 0.14788 0.0
H926 H 0.24317 0.67337 0.12443 0.0
H927 H 0.24664 0.60635 0.15134 0.0
H928 H 0.31753 0.62854 0.17028 0.0
H929 H 0.27666 0.63028 0.17217 0.0
H930 H 0.27439 0.65171 0.10325 0.0
H931 H 0.31506 0.64971 0.10123 0.0
C932 C 0.21197 0.65605 0.12801 0.0
C933 C 0.2013 0.63601 0.13411 0.0
C934 C 0.23515 0.65802 0.12982 0.0
C935 C 0.2479 0.64012 0.13813 0.0
C936 C 0.23711 0.62044 0.14508 0.0
C937 C 0.214 0.61834 0.14294 0.0
C938 C 0.30827 0.63383 0.15564 0.0
C939 C 0.31934 0.63884 0.13557 0.0
C940 C 0.28497 0.63478 0.15672 0.0
C941 C 0.27251 0.64115 0.13786 0.0
C942 C 0.28367 0.64697 0.11807 0.0
C943 C 0.30689 0.64566 0.11688 0.0
H944 H 0.86458 0.205 0.40794 0.0
H945 H 0.89418 0.20854 0.34215 0.0
H946 H 0.85945 0.24552 0.4078 0.0
H947 H 0.8892 0.24928 0.34215 0.0
H948 H 0.90513 0.32128 0.37105 0.0
H949 H 0.90678 0.28067 0.36645 0.0
H950 H 0.83747 0.27547 0.38578 0.0
H951 H 0.8357 0.31616 0.39021 0.0
C952 C 0.86988 0.21446 0.39341 0.0
C953 C 0.87988 0.20373 0.3751 0.0
C954 C 0.8668 0.23758 0.39328 0.0
C955 C 0.87393 0.25041 0.37496 0.0
C956 C 0.88366 0.23968 0.35649 0.0
C957 C 0.88644 0.21645 0.35648 0.0
C958 C 0.8902 0.31147 0.37414 0.0
C959 C 0.87033 0.32178 0.38113 0.0
C960 C 0.89112 0.2883 0.37135 0.0
C961 C 0.87225 0.27505 0.37579 0.0
C962 C 0.85225 0.28538 0.38237 0.0
C963 C 0.85124 0.3086 0.38485 0.0
H964 H 0.19744 0.40497 0.86254 0.0
H965 H 0.20097 0.34966 0.9088 0.0
H966 H 0.23794 0.40537 0.85959 0.0
H967 H 0.24164 0.35104 0.90748 0.0
H968 H 0.31442 0.34686 0.88745 0.0
H969 H 0.27382 0.3442 0.8879 0.0
H970 H 0.26949 0.41597 0.87822 0.0
H971 H 0.30999 0.41805 0.876 0.0
C972 C 0.20702 0.393 0.87221 0.0
C973 C 0.19626 0.37729 0.88588 0.0
C974 C 0.23027 0.39335 0.87076 0.0
C975 C 0.2433 0.37846 0.88355 0.0
C976 C 0.23232 0.36256 0.89708 0.0
C977 C 0.209 0.36179 0.89798 0.0
C978 C 0.30465 0.362 0.88541 0.0
C979 C 0.31517 0.38264 0.88163 0.0
C980 C 0.28137 0.36055 0.88581 0.0
C981 C 0.26815 0.37985 0.88303 0.0
C982 C 0.27893 0.4006 0.87978 0.0
C983 C 0.30217 0.40191 0.87875 0.0
H984 H 0.13412 0.8109 0.4208 0.0
H985 H 0.12332 0.80979 0.34936 0.0
H986 H 0.13761 0.77008 0.4209 0.0
H987 H 0.12675 0.76906 0.34952 0.0
H988 H 0.1026 0.69771 0.36599 0.0
H989 H 0.1022 0.73847 0.36625 0.0
H990 H 0.16318 0.73907 0.40489 0.0
H991 H 0.16369 0.69799 0.40457 0.0
C992 C 0.13262 0.80194 0.40513 0.0
C993 C 0.12829 0.81342 0.38509 0.0
C994 C 0.13475 0.77865 0.40519 0.0
C995 C 0.13232 0.76652 0.38524 0.0
C996 C 0.12845 0.77807 0.36515 0.0
C997 C 0.12656 0.80133 0.36505 0.0
C998 C 0.11591 0.7065 0.37459 0.0
C999 C 0.1332 0.69474 0.38526 0.0
C1000 C 0.11574 0.72981 0.3746 0.0
C1001 C 0.13274 0.74182 0.38545 0.0
C1002 C 0.14987 0.73011 0.39646 0.0
C1003 C 0.15018 0.7067 0.39623 0.0
H1004 H 0.81252 0.59204 0.89236 0.0
H1005 H 0.80897 0.66431 0.89384 0.0
H1006 H 0.77179 0.58993 0.89354 0.0
H1007 H 0.76816 0.66213 0.8952 0.0
H1008 H 0.69624 0.64636 0.91851 0.0
H1009 H 0.737 0.6472 0.92122 0.0
H1010 H 0.74155 0.60179 0.86526 0.0
H1011 H 0.70081 0.60106 0.86238 0.0
C1012 C 0.80304 0.60746 0.8932 0.0
C1013 C 0.81385 0.62836 0.89292 0.0
C1014 C 0.77977 0.60623 0.89376 0.0
C1015 C 0.76694 0.62586 0.89436 0.0
C1016 C 0.77774 0.64675 0.89488 0.0
C1017 C 0.80103 0.648 0.89401 0.0
C1018 C 0.70596 0.63644 0.9069 0.0
C1019 C 0.69544 0.62366 0.89021 0.0
C1020 C 0.72923 0.63702 0.9084 0.0
C1021 C 0.74232 0.62458 0.89345 0.0
C1022 C 0.73178 0.61138 0.8771 0.0
C1023 C 0.70852 0.61104 0.8754 0.0
H1024 H 0.60174 0.90898 0.81281 0.0
H1025 H 0.63408 0.84461 0.81726 0.0
H1026 H 0.59686 0.90393 0.77278 0.0
H1027 H 0.62768 0.83849 0.77753 0.0
H1028 H 0.63982 0.84822 0.7028 0.0
H1029 H 0.6407 0.84904 0.7433 0.0
H1030 H 0.57889 0.8867 0.74367 0.0
H1031 H 0.57923 0.88728 0.70292 0.0
C1032 C 0.60746 0.89357 0.80517 0.0
C1033 C 0.61852 0.87731 0.81791 0.0
C1034 C 0.60444 0.89049 0.78224 0.0
C1035 C 0.61186 0.87076 0.77169 0.0
C1036 C 0.62223 0.85415 0.78481 0.0
C1037 C 0.62582 0.85755 0.80762 0.0
C1038 C 0.62626 0.85635 0.71161 0.0
C1039 C 0.60954 0.86782 0.69985 0.0
C1040 C 0.62666 0.85676 0.73491 0.0
C1041 C 0.60999 0.86817 0.74698 0.0
C1042 C 0.59241 0.87834 0.73505 0.0
C1043 C 0.59239 0.87846 0.7117 0.0
H1044 H 0.67854 0.13378 0.19651 0.0
H1045 H 0.60949 0.15422 0.20142 0.0
H1046 H 0.68209 0.1363 0.23733 0.0
H1047 H 0.61318 0.15708 0.24192 0.0
H1048 H 0.63362 0.17779 0.31209 0.0
H1049 H 0.63604 0.18013 0.27135 0.0
H1050 H 0.66191 0.11271 0.26901 0.0
H1051 H 0.65926 0.1102 0.30973 0.0
C1052 C 0.66428 0.13912 0.20629 0.0
C1053 C 0.64371 0.14369 0.19596 0.0
C1054 C 0.6663 0.14049 0.22953 0.0
C1055 C 0.64791 0.14693 0.2426 0.0
C1056 C 0.62763 0.1523 0.23214 0.0
C1057 C 0.6255 0.15052 0.20903 0.0
C1058 C 0.64007 0.16358 0.30289 0.0
C1059 C 0.64605 0.14373 0.31396 0.0
C1060 C 0.64143 0.16493 0.27965 0.0
C1061 C 0.64914 0.1466 0.2672 0.0
C1062 C 0.6561 0.12712 0.27833 0.0
C1063 C 0.65441 0.12564 0.30155 0.0
H1064 H 0.39506 0.0935 0.69469 0.0
H1065 H 0.41969 0.16157 0.6954 0.0
H1066 H 0.39202 0.09417 0.73538 0.0
H1067 H 0.41674 0.16214 0.73618 0.0
H1068 H 0.42656 0.14384 0.81138 0.0
H1069 H 0.43293 0.14256 0.771 0.0
H1070 H 0.36626 0.11656 0.7613 0.0
H1071 H 0.3598 0.11794 0.80158 0.0
C1072 C 0.40016 0.10846 0.70357 0.0
C1073 C 0.40752 0.12752 0.69193 0.0
C1074 C 0.39826 0.10889 0.7268 0.0
C1075 C 0.40394 0.12828 0.7388 0.0
C1076 C 0.41232 0.14698 0.72727 0.0
C1077 C 0.41397 0.14665 0.70399 0.0
C1078 C 0.41325 0.13793 0.80059 0.0
C1079 C 0.39269 0.13098 0.80954 0.0
C1080 C 0.4169 0.13725 0.77754 0.0
C1081 C 0.40015 0.1293 0.76316 0.0
C1082 C 0.37955 0.12247 0.77211 0.0
C1083 C 0.3758 0.12342 0.79511 0.0
H1084 H 0.35781 0.91075 0.20292 0.0
H1085 H 0.40299 0.85466 0.2057 0.0
H1086 H 0.35752 0.91276 0.24345 0.0
H1087 H 0.40121 0.85498 0.24638 0.0
H1088 H 0.41209 0.8734 0.31861 0.0
H1089 H 0.41298 0.87233 0.27791 0.0
H1090 H 0.34548 0.89853 0.27613 0.0
H1091 H 0.34581 0.9015 0.3166 0.0
C1092 C 0.36722 0.89847 0.21237 0.0
C1093 C 0.38039 0.88256 0.2014 0.0
C1094 C 0.36699 0.89947 0.23566 0.0
C1095 C 0.37934 0.88403 0.24851 0.0
C1096 C 0.39195 0.86759 0.23727 0.0
C1097 C 0.39279 0.86715 0.21395 0.0
C1098 C 0.39764 0.87913 0.30932 0.0
C1099 C 0.379 0.88774 0.32051 0.0
C1100 C 0.39795 0.87828 0.28599 0.0
C1101 C 0.37925 0.88526 0.27343 0.0
C1102 C 0.36047 0.89356 0.28494 0.0
C1103 C 0.36053 0.89515 0.30819 0.0
H1104 H 0.12806 0.06675 0.56539 0.0
H1105 H 0.17878 0.11548 0.54888 0.0
H1106 H 0.12577 0.0558 0.52589 0.0
H1107 H 0.17702 0.10413 0.50977 0.0
H1108 H 0.17293 0.07951 0.44084 0.0
H1109 H 0.17989 0.0706 0.48027 0.0
H1110 H 0.11102 0.08543 0.49564 0.0
H1111 H 0.10428 0.09492 0.45656 0.0
C1112 C 0.13928 0.07448 0.55345 0.0
C1113 C 0.15339 0.09212 0.55994 0.0
C1114 C 0.13799 0.0682 0.53095 0.0
C1115 C 0.15127 0.07909 0.51491 0.0
C1116 C 0.16683 0.09527 0.52186 0.0
C1117 C 0.16769 0.10192 0.54416 0.0
C1118 C 0.15914 0.08002 0.45255 0.0
C1119 C 0.13817 0.08815 0.4459 0.0
C1120 C 0.16312 0.07494 0.47502 0.0
C1121 C 0.14599 0.0774 0.49088 0.0
C1122 C 0.12443 0.08318 0.48369 0.0
C1123 C 0.12061 0.08877 0.4614 0.0
H1124 H 0.37781 0.58039 0.94833 0.0
H1125 H 0.42192 0.63765 0.95024 0.0
H1126 H 0.38189 0.57575 0.98858 0.0
H1127 H 0.42535 0.63362 0.99069 0.0
H1128 H 0.43363 0.61773 0.06348 0.0
H1129 H 0.43738 0.61259 0.02309 0.0
H1130 H 0.36693 0.59701 0.01875 0.0
H1131 H 0.36341 0.60149 0.05886 0.0
C1132 C 0.38855 0.59186 0.95738 0.0
C1133 C 0.39929 0.60958 0.94631 0.0
C1134 C 0.39083 0.58926 0.98042 0.0
C1135 C 0.40363 0.60455 0.9929 0.0
C1136 C 0.4155 0.62145 0.98158 0.0
C1137 C 0.41343 0.62387 0.95843 0.0
C1138 C 0.41909 0.61279 0.05387 0.0
C1139 C 0.39819 0.61017 0.06423 0.0
C1140 C 0.42121 0.60997 0.03076 0.0
C1141 C 0.40245 0.6045 0.01767 0.0
C1142 C 0.38181 0.60089 0.02831 0.0
C1143 C 0.37973 0.60363 0.05133 0.0
H1144 H 0.86268 0.92213 0.45782 0.0
H1145 H 0.9275 0.89102 0.45197 0.0
H1146 H 0.86863 0.9269 0.4979 0.0
H1147 H 0.93391 0.89658 0.49179 0.0
H1148 H 0.91526 0.87141 0.56257 0.0
H1149 H 0.91778 0.87694 0.52254 0.0
H1150 H 0.88859 0.94278 0.5295 0.0
H1151 H 0.88554 0.9369 0.56988 0.0
C1152 C 0.87844 0.91691 0.46503 0.0
C1153 C 0.89443 0.90579 0.45201 0.0
C1154 C 0.88195 0.91977 0.48795 0.0
C1155 C 0.90162 0.91178 0.49809 0.0
C1156 C 0.91837 0.90242 0.48457 0.0
C1157 C 0.91473 0.89929 0.46178 0.0
C1158 C 0.90976 0.88724 0.55564 0.0
C1159 C 0.89995 0.90361 0.56926 0.0
C1160 C 0.91137 0.89052 0.53266 0.0
C1161 C 0.90328 0.91029 0.52278 0.0
C1162 C 0.89471 0.92726 0.53661 0.0
C1163 C 0.89308 0.92396 0.5597 0.0
H1164 H 0.60721 0.44 0.946 0.0
H1165 H 0.58137 0.37269 0.95065 0.0
H1166 H 0.60121 0.44519 0.98595 0.0
H1167 H 0.57673 0.37716 0.99087 0.0
H1168 H 0.63317 0.42683 0.05328 0.0
H1169 H 0.62389 0.43038 0.01422 0.0
H1170 H 0.56304 0.3927 0.02499 0.0
H1171 H 0.57298 0.38845 0.06452 0.0
C1172 C 0.5998 0.4265 0.95558 0.0
C1173 C 0.59509 0.40585 0.94551 0.0
C1174 C 0.5965 0.42936 0.97846 0.0
C1175 C 0.58921 0.41134 0.99177 0.0
C1176 C 0.58236 0.39142 0.9812 0.0
C1177 C 0.58511 0.38878 0.95815 0.0
C1178 C 0.61764 0.41953 0.04744 0.0
C1179 C 0.60395 0.4071 0.06186 0.0
C1180 C 0.61212 0.42182 0.02499 0.0
C1181 C 0.59263 0.41189 0.01636 0.0
C1182 C 0.57828 0.40037 0.03106 0.0
C1183 C 0.58392 0.39798 0.05366 0.0
H1184 H 0.103 0.85697 0.56018 0.0
H1185 H 0.10789 0.92871 0.56836 0.0
H1186 H 0.09631 0.86183 0.52056 0.0
H1187 H 0.10053 0.93371 0.52837 0.0
H1188 H 0.12405 0.92492 0.45344 0.0
H1189 H 0.12111 0.92678 0.49409 0.0
H1190 H 0.07087 0.8747 0.4927 0.0
H1191 H 0.07458 0.87225 0.45223 0.0
C1192 C 0.10225 0.87384 0.55354 0.0
C1193 C 0.10613 0.89245 0.5673 0.0
C1194 C 0.09818 0.87666 0.53081 0.0
C1195 C 0.09777 0.89819 0.52128 0.0
C1196 C 0.10091 0.91691 0.5352 0.0
C1197 C 0.10504 0.91406 0.55806 0.0
C1198 C 0.11203 0.91427 0.46183 0.0
C1199 C 0.09986 0.89814 0.44986 0.0
C1200 C 0.11025 0.91539 0.48511 0.0
C1201 C 0.09607 0.90056 0.49666 0.0
C1202 C 0.08238 0.88593 0.48434 0.0
C1203 C 0.08441 0.88459 0.46117 0.0
H1204 H 0.59082 0.64663 0.95308 0.0
H1205 H 0.62697 0.58413 0.9502 0.0
H1206 H 0.58815 0.64313 0.99366 0.0
H1207 H 0.62379 0.58029 0.99062 0.0
H1208 H 0.64878 0.60564 0.0594 0.0
H1209 H 0.64304 0.60127 0.0195 0.0
H1210 H 0.57444 0.62259 0.02677 0.0
H1211 H 0.58036 0.62733 0.06702 0.0
C1212 C 0.59769 0.63189 0.96108 0.0
C1213 C 0.60946 0.61587 0.94863 0.0
C1214 C 0.59604 0.6298 0.98429 0.0
C1215 C 0.60604 0.61157 0.99533 0.0
C1216 C 0.61631 0.59473 0.98259 0.0
C1217 C 0.6181 0.59691 0.95947 0.0
C1218 C 0.63236 0.60908 0.05257 0.0
C1219 C 0.61507 0.617 0.06623 0.0
C1220 C 0.62901 0.6064 0.0297 0.0
C1221 C 0.60827 0.61159 0.01998 0.0
C1222 C 0.59064 0.61864 0.0338 0.0
C1223 C 0.59399 0.62124 0.0568 0.0
H1224 H 0.91586 0.15783 0.45042 0.0
H1225 H 0.90562 0.08662 0.44254 0.0
H1226 H 0.92333 0.15253 0.48981 0.0
H1227 H 0.91383 0.08112 0.48231 0.0
H1228 H 0.89356 0.09131 0.55787 0.0
H1229 H 0.89512 0.08929 0.51719 0.0
H1230 H 0.94853 0.13813 0.51695 0.0
H1231 H 0.94618 0.14085 0.55751 0.0
C1232 C 0.91557 0.14095 0.45708 0.0
C1233 C 0.90999 0.12265 0.44348 0.0
C1234 C 0.92011 0.13786 0.47967 0.0
C1235 C 0.91932 0.11636 0.48923 0.0
C1236 C 0.91441 0.0979 0.47546 0.0
C1237 C 0.90978 0.10103 0.45273 0.0
C1238 C 0.90595 0.10122 0.5491 0.0
C1239 C 0.91945 0.11656 0.56068 0.0
C1240 C 0.90694 0.09998 0.5258 0.0
C1241 C 0.92165 0.1139 0.5138 0.0
C1242 C 0.9366 0.12765 0.52568 0.0
C1243 C 0.93535 0.12914 0.54889 0.0
H1244 H 0.42053 0.374 0.94794 0.0
H1245 H 0.37558 0.43028 0.94261 0.0
H1246 H 0.42231 0.37922 0.98835 0.0
H1247 H 0.37797 0.43607 0.98285 0.0
H1248 H 0.35728 0.41168 0.05309 0.0
H1249 H 0.36222 0.41506 0.01302 0.0
H1250 H 0.43283 0.40174 0.0205 0.0
H1251 H 0.42768 0.39776 0.0609 0.0
C1252 C 0.41147 0.38781 0.95537 0.0
C1253 C 0.39761 0.40149 0.94228 0.0
C1254 C 0.4126 0.39092 0.9785 0.0
C1255 C 0.40003 0.40789 0.98885 0.0
C1256 C 0.38745 0.42254 0.97544 0.0
C1257 C 0.38614 0.41928 0.9524 0.0
C1258 C 0.37393 0.4098 0.04626 0.0
C1259 C 0.39205 0.40424 0.06006 0.0
C1260 C 0.37682 0.41192 0.02326 0.0
C1261 C 0.39794 0.40862 0.01354 0.0
C1262 C 0.41632 0.40412 0.02749 0.0
C1263 C 0.4134 0.40196 0.0506 0.0
H1264 H 0.56371 0.10149 0.14796 0.0
H1265 H 0.57038 0.12145 0.07884 0.0
H1266 H 0.52388 0.09647 0.14282 0.0
H1267 H 0.53022 0.11584 0.07343 0.0
H1268 H 0.45765 0.14154 0.08948 0.0
H1269 H 0.49792 0.13674 0.08619 0.0
H1270 H 0.49387 0.07621 0.1257 0.0
H1271 H 0.45369 0.08152 0.12963 0.0
C1272 C 0.55669 0.10432 0.1315 0.0
C1273 C 0.57005 0.11215 0.11388 0.0
C1274 C 0.53385 0.10124 0.12847 0.0
C1275 C 0.52383 0.10585 0.10772 0.0
C1276 C 0.53743 0.11242 0.08969 0.0
C1277 C 0.5604 0.11552 0.09274 0.0
C1278 C 0.46534 0.12702 0.09711 0.0
C1279 C 0.4527 0.11215 0.11017 0.0
C1280 C 0.48839 0.12414 0.09509 0.0
C1281 C 0.49913 0.10624 0.10594 0.0
C1282 C 0.48613 0.09042 0.11754 0.0
C1283 C 0.46314 0.09343 0.11975 0.0
H1284 H 0.42795 0.95684 0.61459 0.0
H1285 H 0.36745 0.94885 0.57601 0.0
H1286 H 0.42799 0.99696 0.60624 0.0
H1287 H 0.3671 0.9892 0.56841 0.0
H1288 H 0.36439 0.05714 0.61899 0.0
H1289 H 0.3657 0.01726 0.60981 0.0
H1290 H 0.42274 0.02888 0.56727 0.0
H1291 H 0.42083 0.06919 0.57571 0.0
C1292 C 0.4151 0.96358 0.60374 0.0
C1293 C 0.39763 0.94992 0.59603 0.0
C1294 C 0.41519 0.98643 0.59888 0.0
C1295 C 0.39757 0.99593 0.58668 0.0
C1296 C 0.38095 0.98205 0.57763 0.0
C1297 C 0.38118 0.95907 0.58199 0.0
C1298 C 0.37677 0.05125 0.60717 0.0
C1299 C 0.39253 0.06602 0.59805 0.0
C1300 C 0.37743 0.02856 0.60183 0.0
C1301 C 0.39423 0.02026 0.58777 0.0
C1302 C 0.40951 0.03511 0.57793 0.0
C1303 C 0.40841 0.05802 0.58275 0.0
H1304 H 0.44954 0.9062 0.08351 0.0
H1305 H 0.45964 0.9138 0.15464 0.0
H1306 H 0.48933 0.91338 0.0772 0.0
H1307 H 0.49909 0.92035 0.1485 0.0
H1308 H 0.56755 0.93983 0.13573 0.0
H1309 H 0.52719 0.94469 0.13385 0.0
H1310 H 0.5232 0.89216 0.08427 0.0
H1311 H 0.56372 0.88801 0.08554 0.0
C1312 C 0.46021 0.90967 0.09773 0.0
C1313 C 0.4516 0.90926 0.11957 0.0
C1314 C 0.48295 0.9137 0.09413 0.0
C1315 C 0.49738 0.91743 0.11233 0.0
C1316 C 0.48844 0.91795 0.13405 0.0
C1317 C 0.46581 0.91396 0.13761 0.0
C1318 C 0.55806 0.92973 0.12404 0.0
C1319 C 0.5686 0.91329 0.11107 0.0
C1320 C 0.53497 0.93244 0.12302 0.0
C1321 C 0.52194 0.91846 0.1093 0.0
C1322 C 0.53274 0.90327 0.09495 0.0
C1323 C 0.55593 0.90079 0.09575 0.0
H1324 H 0.65919 0.05698 0.65406 0.0
H1325 H 0.63998 0.06439 0.58478 0.0
H1326 H 0.65243 0.0169 0.65174 0.0
H1327 H 0.63301 0.02396 0.58254 0.0
H1328 H 0.6431 0.94504 0.58891 0.0
H1329 H 0.65193 0.98507 0.5864 0.0
H1330 H 0.61554 0.99674 0.64761 0.0
H1331 H 0.60684 0.95704 0.65022 0.0
C1332 C 0.65383 0.04998 0.63824 0.0
C1333 C 0.64982 0.06378 0.61968 0.0
C1334 C 0.64983 0.02707 0.63695 0.0
C1335 C 0.64174 0.01751 0.61711 0.0
C1336 C 0.63917 0.03102 0.59805 0.0
C1337 C 0.64316 0.05407 0.59934 0.0
C1338 C 0.63673 0.95626 0.60161 0.0
C1339 C 0.62448 0.94796 0.61988 0.0
C1340 C 0.64179 0.97909 0.60016 0.0
C1341 C 0.63477 0.9938 0.61704 0.0
C1342 C 0.62157 0.98562 0.63464 0.0
C1343 C 0.61646 0.96293 0.63604 0.0
H1344 H 0.44607 0.88332 0.93311 0.0
H1345 H 0.45703 0.91013 0.86689 0.0
H1346 H 0.48584 0.88851 0.94165 0.0
H1347 H 0.4963 0.91472 0.87505 0.0
H1348 H 0.56306 0.93297 0.89296 0.0
H1349 H 0.52261 0.93571 0.8964 0.0
H1350 H 0.52118 0.87167 0.93015 0.0
H1351 H 0.56188 0.86962 0.92769 0.0
C1352 C 0.45694 0.8904 0.92046 0.0
C1353 C 0.44852 0.89627 0.89932 0.0
C1354 C 0.47965 0.89334 0.92533 0.0
C1355 C 0.4942 0.90225 0.90913 0.0
C1356 C 0.48553 0.90837 0.88816 0.0
C1357 C 0.463 0.90549 0.88335 0.0
C1358 C 0.5541 0.91986 0.90174 0.0
C1359 C 0.56536 0.90094 0.90976 0.0
C1360 C 0.53097 0.92133 0.9036 0.0
C1361 C 0.51864 0.90358 0.91293 0.0
C1362 C 0.53017 0.88562 0.92286 0.0
C1363 C 0.55346 0.88439 0.92142 0.0
H1364 H 0.6095 0.95392 0.42529 0.0
H1365 H 0.60164 0.95955 0.35372 0.0
H1366 H 0.60826 0.9947 0.42856 0.0
H1367 H 0.60145 0.99997 0.35673 0.0
H1368 H 0.59087 0.07218 0.36588 0.0
H1369 H 0.58268 0.03229 0.36814 0.0
H1370 H 0.63215 0.02527 0.42046 0.0
H1371 H 0.63932 0.06543 0.41894 0.0
C1372 C 0.60735 0.96389 0.4103 0.0
C1373 C 0.60577 0.95363 0.38925 0.0
C1374 C 0.60679 0.98722 0.41214 0.0
C1375 C 0.60487 1.00069 0.39291 0.0
C1376 C 0.60253 0.99024 0.37197 0.0
C1377 C 0.60282 0.96699 0.37019 0.0
C1378 C 0.59971 0.0621 0.37807 0.0
C1379 C 0.6159 0.07173 0.39206 0.0
C1380 C 0.59513 0.03924 0.37931 0.0
C1381 C 0.60702 0.02544 0.39421 0.0
C1382 C 0.62249 0.03536 0.40894 0.0
C1383 C 0.62675 0.05835 0.40798 0.0
H1384 H 0.45452 0.09403 0.86733 0.0
H1385 H 0.44456 0.12293 0.93276 0.0
H1386 H 0.49376 0.08911 0.8753 0.0
H1387 H 0.48421 0.11728 0.94122 0.0
H1388 H 0.5583 0.13968 0.92551 0.0
H1389 H 0.51798 0.1351 0.92893 0.0
H1390 H 0.52239 0.07111 0.89537 0.0
H1391 H 0.56251 0.07643 0.89088 0.0
C1392 C 0.46067 0.09887 0.88367 0.0
C1393 C 0.44657 0.10914 0.89931 0.0
C1394 C 0.48321 0.09581 0.88838 0.0
C1395 C 0.49223 0.10281 0.90894 0.0
C1396 C 0.47783 0.11195 0.92513 0.0
C1397 C 0.45515 0.11509 0.92035 0.0
C1398 C 0.55065 0.12442 0.91937 0.0
C1399 C 0.56329 0.10864 0.90749 0.0
C1400 C 0.52755 0.12169 0.92144 0.0
C1401 C 0.51686 0.10295 0.91196 0.0
C1402 C 0.53001 0.08606 0.90225 0.0
C1403 C 0.55298 0.08902 0.89976 0.0
H1404 H 0.34166 0.96142 0.39202 0.0
H1405 H 0.39228 0.94548 0.44094 0.0
H1406 H 0.34535 1.00113 0.40104 0.0
H1407 H 0.39655 0.98549 0.44943 0.0
H1408 H 0.41956 0.05263 0.40652 0.0
H1409 H 0.41156 0.01373 0.41631 0.0
H1410 H 0.34442 0.03214 0.43503 0.0
H1411 H 0.3527 0.07139 0.42594 0.0
C1412 C 0.35315 0.96643 0.40512 0.0
C1413 C 0.36682 0.95058 0.41569 0.0
C1414 C 0.35513 0.98907 0.4104 0.0
C1415 C 0.3712 0.99622 0.42594 0.0
C1416 C 0.38393 0.98025 0.43753 0.0
C1417 C 0.38151 0.95747 0.43267 0.0
C1418 C 0.40337 0.04846 0.41349 0.0
C1419 C 0.38667 0.0648 0.41537 0.0
C1420 C 0.39885 0.0263 0.41924 0.0
C1421 C 0.3774 0.02009 0.42641 0.0
C1422 C 0.36111 0.03667 0.42968 0.0
C1423 C 0.36585 0.05902 0.4245 0.0
H1424 H 0.13697 0.44293 0.08474 0.0
H1425 H 0.08545 0.45002 0.13474 0.0
H1426 H 0.13554 0.48305 0.07744 0.0
H1427 H 0.08463 0.4903 0.12818 0.0
H1428 H 0.08429 0.56309 0.10949 0.0
H1429 H 0.07815 0.52279 0.10496 0.0
H1430 H 0.14953 0.51287 0.09986 0.0
H1431 H 0.15549 0.55278 0.10371 0.0
C1432 C 0.12512 0.45307 0.09394 0.0
C1433 C 0.11159 0.44352 0.11056 0.0
C1434 C 0.12435 0.47604 0.08984 0.0
C1435 C 0.11034 0.48994 0.10258 0.0
C1436 C 0.09555 0.48008 0.11799 0.0
C1437 C 0.0961 0.45701 0.12186 0.0
C1438 C 0.09857 0.55225 0.10702 0.0
C1439 C 0.12037 0.56099 0.10713 0.0
C1440 C 0.09508 0.52921 0.10451 0.0
C1441 C 0.11334 0.5146 0.10206 0.0
C1442 C 0.13503 0.52361 0.10129 0.0
C1443 C 0.13849 0.54652 0.10373 0.0
H1444 H 0.08365 0.5542 0.87756 0.0
H1445 H 0.12604 0.5627 0.93535 0.0
H1446 H 0.07994 0.51446 0.88604 0.0
H1447 H 0.12141 0.52324 0.94465 0.0
H1448 H 0.14443 0.45238 0.92435 0.0
H1449 H 0.13817 0.49224 0.92724 0.0
H1450 H 0.06908 0.48285 0.90808 0.0
H1451 H 0.07573 0.44258 0.90441 0.0
C1452 C 0.09151 0.54767 0.89253 0.0
C1453 C 0.10552 0.56127 0.90554 0.0
C1454 C 0.08929 0.52491 0.8975 0.0
C1455 C 0.10078 0.51553 0.91579 0.0
C1456 C 0.11288 0.52979 0.93008 0.0
C1457 C 0.11546 0.55239 0.92484 0.0
C1458 C 0.12779 0.45873 0.92113 0.0
C1459 C 0.11066 0.44445 0.91383 0.0
C1460 C 0.12409 0.48164 0.92302 0.0
C1461 C 0.1031 0.49085 0.91779 0.0
C1462 C 0.08551 0.47633 0.91192 0.0
C1463 C 0.08928 0.45329 0.90993 0.0
H1464 H 0.06068 0.64411 0.4042 0.0
H1465 H 0.06574 0.58097 0.36932 0.0
H1466 H 0.0205 0.63995 0.40609 0.0
H1467 H 0.02514 0.57636 0.37184 0.0
H1468 H 0.95139 0.59641 0.35398 0.0
H1469 H 0.99203 0.59322 0.35565 0.0
H1470 H 0.99122 0.61912 0.42315 0.0
H1471 H 0.95082 0.62317 0.42104 0.0
C1472 C 0.05319 0.62913 0.39722 0.0
C1473 C 0.0663 0.61289 0.38655 0.0
C1474 C 0.03013 0.62664 0.39848 0.0
C1475 C 0.0196 0.60772 0.38927 0.0
C1476 C 0.03276 0.59119 0.37895 0.0
C1477 C 0.05596 0.59377 0.37758 0.0
C1478 C 0.95994 0.6011 0.36925 0.0
C1479 C 0.94812 0.6104 0.38724 0.0
C1480 C 0.98318 0.59915 0.37027 0.0
C1481 C 0.99488 0.60625 0.38941 0.0
C1482 C 0.98276 0.61404 0.40795 0.0
C1483 C 0.95963 0.61628 0.40681 0.0
H1484 H 0.91818 0.56153 0.8599 0.0
H1485 H 0.89656 0.56611 0.92858 0.0
H1486 H 0.92138 0.52094 0.86364 0.0
H1487 H 0.90074 0.52576 0.93275 0.0
H1488 H 0.86929 0.45751 0.91715 0.0
H1489 H 0.87683 0.49734 0.91822 0.0
H1490 H 0.93721 0.48725 0.87988 0.0
H1491 H 0.9292 0.44705 0.87828 0.0
C1492 C 0.9149 0.55389 0.87601 0.0
C1493 C 0.90671 0.56673 0.89384 0.0
C1494 C 0.9168 0.53067 0.8782 0.0
C1495 C 0.9108 0.52009 0.89836 0.0
C1496 C 0.90484 0.53336 0.91682 0.0
C1497 C 0.90257 0.55644 0.9145 0.0
C1498 C 0.8843 0.46372 0.90913 0.0
C1499 C 0.89859 0.44924 0.89752 0.0
C1500 C 0.88877 0.48657 0.90994 0.0
C1501 C 0.90774 0.49548 0.89927 0.0
C1502 C 0.92241 0.48089 0.88814 0.0
C1503 C 0.91786 0.45792 0.88727 0.0
H1504 H 0.05524 0.43114 0.39623 0.0
H1505 H 0.04174 0.36008 0.393 0.0
H1506 H 0.0152 0.43826 0.40217 0.0
H1507 H 1.00233 0.36714 0.39866 0.0
H1508 H 0.93897 0.3797 0.43145 0.0
H1509 H 0.97961 0.3806 0.43071 0.0
H1510 H 0.97778 0.43345 0.3814 0.0
H1511 H 0.93685 0.43294 0.38257 0.0
C1512 C 0.04374 0.41713 0.39662 0.0
C1513 C 0.05156 0.39506 0.39436 0.0
C1514 C 0.02093 0.4212 0.40004 0.0
C1515 C 1.00582 0.40321 0.40138 0.0
C1516 C 0.01369 0.38129 0.39836 0.0
C1517 C 0.03626 0.37726 0.39492 0.0
C1518 C 0.94723 0.39191 0.42088 0.0
C1519 C 0.93487 0.40598 0.40678 0.0
C1520 C 0.97046 0.39237 0.42039 0.0
C1521 C 0.98175 0.4067 0.40557 0.0
C1522 C 0.96944 0.42222 0.39293 0.0
C1523 C 0.94607 0.4219 0.39358 0.0
H1524 H 0.89976 0.46786 0.16926 0.0
H1525 H 0.93525 0.44587 0.11047 0.0
H1526 H 0.91133 0.5064 0.16192 0.0
H1527 H 0.94611 0.48475 0.10258 0.0
H1528 H 0.90177 0.55399 0.08692 0.0
H1529 H 0.91191 0.51497 0.09373 0.0
H1530 H 0.94724 0.53454 0.15353 0.0
H1531 H 0.93779 0.57381 0.14626 0.0
C1532 C 0.91065 0.47125 0.15519 0.0
C1533 C 0.91659 0.4541 0.14038 0.0
C1534 C 0.91738 0.49322 0.15106 0.0
C1535 C 0.92961 0.49841 0.13171 0.0
C1536 C 0.93686 0.48103 0.1177 0.0
C1537 C 0.93067 0.45889 0.12222 0.0
C1538 C 0.91254 0.55004 0.10095 0.0
C1539 C 0.91891 0.56674 0.11615 0.0
C1540 C 0.91844 0.52778 0.10478 0.0
C1541 C 0.9303 0.52189 0.12416 0.0
C1542 C 0.93824 0.5388 0.1384 0.0
C1543 C 0.93285 0.56119 0.13422 0.0
H1544 H 0.94569 0.42755 0.6496 0.0
H1545 H 0.94202 0.39813 0.58383 0.0
H1546 H 0.98623 0.42978 0.64647 0.0
H1547 H 0.9824 0.40156 0.57997 0.0
H1548 H 0.04853 0.36929 0.60147 0.0
H1549 H 0.00963 0.37894 0.59692 0.0
H1550 H 0.02104 0.44184 0.63095 0.0
H1551 H 0.06031 0.4316 0.63624 0.0
C1552 C 0.95354 0.4224 0.63412 0.0
C1553 C 0.94095 0.41224 0.61713 0.0
C1554 C 0.97678 0.42376 0.63225 0.0
C1555 C 0.98765 0.41531 0.61318 0.0
C1556 C 0.97462 0.40754 0.59518 0.0
C1557 C 0.95151 0.4057 0.59729 0.0
C1558 C 0.04285 0.38532 0.60776 0.0
C1559 C 0.05737 0.39958 0.61944 0.0
C1560 C 0.02052 0.39102 0.60491 0.0
C1561 C 0.01212 0.41125 0.6135 0.0
C1562 C 0.02692 0.42604 0.62433 0.0
C1563 C 0.04938 0.42023 0.6273 0.0
H1564 H 0.06529 0.58245 0.60535 0.0
H1565 H 0.05844 0.65434 0.60115 0.0
H1566 H 0.02511 0.57825 0.59886 0.0
H1567 H 0.01861 0.6503 0.59542 0.0
H1568 H 0.94923 0.64126 0.57613 0.0
H1569 H 0.98952 0.63848 0.57121 0.0
H1570 H 0.99168 0.58522 0.62019 0.0
H1571 H 0.9512 0.5874 0.62427 0.0
C1572 C 0.05524 0.59731 0.60283 0.0
C1573 C 0.06492 0.61872 0.60389 0.0
C1574 C 0.03225 0.59492 0.59921 0.0
C1575 C 0.01861 0.61392 0.59662 0.0
C1576 C 0.02859 0.63526 0.5969 0.0
C1577 C 0.05146 0.63761 0.60042 0.0
C1578 C 0.95829 0.62861 0.58543 0.0
C1579 C 0.94725 0.61477 0.60083 0.0
C1580 C 0.98137 0.62709 0.58271 0.0
C1581 C 0.9939 0.61199 0.59569 0.0
C1582 C 0.98256 0.59697 0.60985 0.0
C1583 C 0.95938 0.59827 0.61229 0.0
H1584 H 0.95127 0.0826 0.35757 0.0
H1585 H 0.96262 0.15257 0.34364 0.0
H1586 H 0.99153 0.07561 0.35462 0.0
H1587 H 1.00256 0.14584 0.34117 0.0
H1588 H 0.06383 0.08223 0.38383 0.0
H1589 H 0.02379 0.08321 0.37697 0.0
H1590 H 0.03425 0.13011 0.32296 0.0
H1591 H 0.0745 0.12946 0.33029 0.0
C1592 C 0.96227 0.09639 0.35338 0.0
C1593 C 0.95363 0.11815 0.35087 0.0
C1594 C 0.98543 0.09246 0.35193 0.0
C1595 C 1.00057 0.11018 0.34784 0.0
C1596 C 0.99165 0.13166 0.34408 0.0
C1597 C 0.96861 0.13557 0.34561 0.0
C1598 C 0.05769 0.09237 0.37013 0.0
C1599 C 0.07249 0.10583 0.35768 0.0
C1600 C 0.03459 0.09289 0.36612 0.0
C1601 C 0.02548 0.10693 0.34954 0.0
C1602 C 0.04047 0.11936 0.33615 0.0
C1603 C 0.06365 0.11881 0.34016 0.0
H1604 H 0.43868 0.4465 0.86066 0.0
H1605 H 0.3728 0.45074 0.83178 0.0
H1606 H 0.44283 0.48701 0.85729 0.0
H1607 H 0.3762 0.49117 0.82959 0.0
H1608 H 0.42946 0.55964 0.87955 0.0
H1609 H 0.43182 0.51943 0.87438 0.0
H1610 H 0.38938 0.52452 0.81606 0.0
H1611 H 0.38605 0.56478 0.82223 0.0
C1612 C 0.42519 0.45605 0.85326 0.0
C1613 C 0.40543 0.44524 0.84646 0.0
C1614 C 0.4274 0.47946 0.85162 0.0
C1615 C 0.40972 0.49289 0.84352 0.0
C1616 C 0.39041 0.48179 0.83567 0.0
C1617 C 0.38838 0.45839 0.83697 0.0
C1618 C 0.421 0.55227 0.86532 0.0
C1619 C 0.40751 0.56558 0.85136 0.0
C1620 C 0.42239 0.529 0.86226 0.0
C1621 C 0.41058 0.51819 0.8449 0.0
C1622 C 0.39828 0.53183 0.83002 0.0
C1623 C 0.3966 0.55511 0.83333 0.0
H1624 H 0.04975 0.86502 0.34633 0.0
H1625 H 0.05829 0.93473 0.36321 0.0
H1626 H 0.00989 0.87057 0.34233 0.0
H1627 H 0.01805 0.94067 0.3584 0.0
H1628 H 0.93835 0.88316 0.32976 0.0
H1629 H 0.97868 0.8847 0.32391 0.0
H1630 H 0.9846 0.93269 0.37765 0.0
H1631 H 0.9443 0.93181 0.38272 0.0
C1632 C 0.04318 0.88177 0.34858 0.0
C1633 C 0.05734 0.8994 0.35518 0.0
C1634 C 0.02014 0.88502 0.34615 0.0
C1635 C 0.01036 0.90609 0.35014 0.0
C1636 C 0.02474 0.92409 0.35552 0.0
C1637 C 0.04793 0.92079 0.35802 0.0
C1638 C 0.9482 0.89453 0.33987 0.0
C1639 C 0.93798 0.90728 0.35676 0.0
C1640 C 0.97146 0.89522 0.33674 0.0
C1641 C 0.98527 0.90847 0.3506 0.0
C1642 C 0.97478 0.92237 0.36647 0.0
C1643 C 0.95151 0.92183 0.36944 0.0
H1644 H 0.64241 0.45404 0.84211 0.0
H1645 H 0.57321 0.44859 0.86147 0.0
H1646 H 0.63847 0.49425 0.8383 0.0
H1647 H 0.56883 0.48904 0.8567 0.0
H1648 H 0.57961 0.56257 0.87963 0.0
H1649 H 0.57801 0.52217 0.87514 0.0
H1650 H 0.62564 0.52649 0.82102 0.0
H1651 H 0.62793 0.56697 0.82634 0.0
C1652 C 0.62609 0.46135 0.8449 0.0
C1653 C 0.60816 0.44793 0.85217 0.0
C1654 C 0.62377 0.48462 0.84262 0.0
C1655 C 0.60335 0.49535 0.84737 0.0
C1656 C 0.585 0.48168 0.85333 0.0
C1657 C 0.58739 0.45833 0.85577 0.0
C1658 C 0.5894 0.55499 0.86642 0.0
C1659 C 0.60398 0.56816 0.85342 0.0
C1660 C 0.58845 0.53163 0.86377 0.0
C1661 C 0.60192 0.52062 0.84788 0.0
C1662 C 0.61539 0.53406 0.83385 0.0
C1663 C 0.61651 0.55743 0.83667 0.0
H1664 H 0.94762 0.93139 0.63895 0.0
H1665 H 0.94426 0.87706 0.68633 0.0
H1666 H 0.98834 0.93189 0.64234 0.0
H1667 H 0.9847 0.87814 0.69061 0.0
H1668 H 0.05436 0.86075 0.66462 0.0
H1669 H 0.01456 0.86599 0.66904 0.0
H1670 H 0.02302 0.93749 0.66148 0.0
H1671 H 0.06337 0.93195 0.65629 0.0
C1672 C 0.95551 0.92008 0.65071 0.0
C1673 C 0.94263 0.9041 0.66228 0.0
C1674 C 0.97896 0.92034 0.65267 0.0
C1675 C 0.99014 0.90473 0.66642 0.0
C1676 C 0.97696 0.88999 0.67931 0.0
C1677 C 0.95363 0.88953 0.6771 0.0
C1678 C 0.04789 0.87769 0.66427 0.0
C1679 C 0.0622 0.89592 0.6601 0.0
C1680 C 0.02487 0.88075 0.66696 0.0
C1681 C 0.01521 0.90222 0.66569 0.0
C1682 C 0.02967 0.92066 0.66235 0.0
C1683 C 0.05289 0.91754 0.65963 0.0
H1684 H 0.62956 0.45296 0.18343 0.0
H1685 H 0.58034 0.45967 0.13114 0.0
H1686 H 0.62849 0.49336 0.18961 0.0
H1687 H 0.57978 0.50006 0.1367 0.0
H1688 H 0.57818 0.57381 0.15311 0.0
H1689 H 0.5722 0.53336 0.15732 0.0
H1690 H 0.64266 0.52462 0.17037 0.0
H1691 H 0.64834 0.56465 0.16677 0.0
C1692 C 0.61814 0.46297 0.17356 0.0
C1693 C 0.60512 0.45296 0.15672 0.0
C1694 C 0.6177 0.48627 0.1769 0.0
C1695 C 0.60436 0.5003 0.16338 0.0
C1696 C 0.59019 0.49002 0.14759 0.0
C1697 C 0.59054 0.46672 0.14435 0.0
C1698 C 0.59223 0.56327 0.15749 0.0
C1699 C 0.61374 0.57255 0.15959 0.0
C1700 C 0.58888 0.53998 0.15965 0.0
C1701 C 0.60695 0.52541 0.16405 0.0
C1702 C 0.6282 0.53504 0.1673 0.0
C1703 C 0.63151 0.55816 0.1651 0.0
H1704 H 0.97016 0.14067 0.67206 0.0
H1705 H 0.96073 0.07773 0.63792 0.0
H1706 H 0.01041 0.13435 0.67286 0.0
H1707 H 1.00105 0.07124 0.63892 0.0
H1708 H 0.08372 0.11474 0.6772 0.0
H1709 H 0.04344 0.11302 0.68515 0.0
H1710 H 0.03144 0.08854 0.61829 0.0
H1711 H 0.07126 0.09023 0.61053 0.0
C1712 C 0.97659 0.12512 0.66533 0.0
C1713 C 0.96211 0.10976 0.65483 0.0
C1714 C 0.99977 0.12147 0.66582 0.0
C1715 C 0.00918 0.10242 0.65568 0.0
C1716 C 0.99451 0.0863 0.64658 0.0
C1717 C 0.9713 0.08989 0.64621 0.0
C1718 C 0.07248 0.10847 0.66445 0.0
C1719 C 0.08075 0.10261 0.64324 0.0
C1720 C 0.04936 0.10767 0.66891 0.0
C1721 C 0.03402 0.10068 0.65236 0.0
C1722 C 0.04258 0.09374 0.63159 0.0
C1723 C 0.06552 0.0948 0.62708 0.0
H1724 H 0.37946 0.56657 0.18177 0.0
H1725 H 0.43205 0.56347 0.13265 0.0
H1726 H 0.38022 0.52596 0.18539 0.0
H1727 H 0.43218 0.5226 0.13539 0.0
H1728 H 0.43161 0.44715 0.14799 0.0
H1729 H 0.43789 0.48743 0.1537 0.0
H1730 H 0.36698 0.49657 0.16373 0.0
H1731 H 0.36104 0.45684 0.15881 0.0
C1732 C 0.3915 0.55721 0.17201 0.0
C1733 C 0.40566 0.56833 0.1569 0.0
C1734 C 0.39175 0.53379 0.17385 0.0
C1735 C 0.40586 0.52065 0.16027 0.0
C1736 C 0.42111 0.53194 0.14622 0.0
C1737 C 0.42107 0.55548 0.14465 0.0
C1738 C 0.41751 0.45777 0.15198 0.0
C1739 C 0.39583 0.44867 0.15299 0.0
C1740 C 0.42104 0.48095 0.155 0.0
C1741 C 0.40298 0.49558 0.1592 0.0
C1742 C 0.38148 0.48612 0.161 0.0
C1743 C 0.378 0.46314 0.158 0.0
H1744 H 0.33021 0.06833 0.12994 0.0
H1745 H 0.38212 0.0625 0.08029 0.0
H1746 H 0.32481 0.02782 0.12906 0.0
H1747 H 0.37742 0.02201 0.07999 0.0
H1748 H 0.35005 0.95782 0.14992 0.0
H1749 H 0.34501 0.99753 0.14354 0.0
H1750 H 0.35783 0.98793 0.0731 0.0
H1751 H 0.36355 0.94777 0.07982 0.0
C1752 C 0.34015 0.05847 0.11847 0.0
C1753 C 0.35669 0.06875 0.10529 0.0
C1754 C 0.33726 0.03512 0.11814 0.0
C1755 C 0.35099 0.02133 0.10481 0.0
C1756 C 0.36639 0.03186 0.09042 0.0
C1757 C 0.36915 0.05522 0.09061 0.0
C1758 C 0.35136 0.96403 0.13295 0.0
C1759 C 0.35728 0.94953 0.11541 0.0
C1760 C 0.34832 0.98696 0.12922 0.0
C1761 C 0.35108 0.99627 0.10777 0.0
C1762 C 0.35585 0.98154 0.08992 0.0
C1763 C 0.35887 0.95843 0.09369 0.0
H1764 H 0.4427 0.86464 0.57649 0.0
H1765 H 0.44946 0.84649 0.64597 0.0
H1766 H 0.48295 0.85921 0.57126 0.0
H1767 H 0.48944 0.8414 0.64096 0.0
H1768 H 0.56105 0.82626 0.62729 0.0
H1769 H 0.5205 0.82149 0.62517 0.0
H1770 H 0.51611 0.8795 0.58224 0.0
H1771 H 0.55651 0.88395 0.58408 0.0
C1772 C 0.45264 0.85893 0.59051 0.0
C1773 C 0.44277 0.85601 0.61165 0.0
C1774 C 0.47582 0.85606 0.5876 0.0
C1775 C 0.4897 0.85004 0.60572 0.0
C1776 C 0.47947 0.84579 0.6265 0.0
C1777 C 0.45642 0.84879 0.62942 0.0
C1778 C 0.5515 0.83758 0.61685 0.0
C1779 C 0.56214 0.85552 0.6059 0.0
C1780 C 0.52815 0.83502 0.61584 0.0
C1781 C 0.51478 0.85028 0.60377 0.0
C1782 C 0.52567 0.86727 0.59157 0.0
C1783 C 0.54896 0.86986 0.59266 0.0
H1784 H 0.67067 0.06432 0.14717 0.0
H1785 H 0.65688 0.07201 0.07679 0.0
H1786 H 0.67527 0.02444 0.14225 0.0
H1787 H 0.66243 0.03164 0.07148 0.0
H1788 H 0.64055 0.95658 0.07955 0.0
H1789 H 0.64439 0.9972 0.0783 0.0
H1790 H 0.69502 0.99381 0.12975 0.0
H1791 H 0.69019 0.95333 0.13172 0.0
C1792 C 0.6692 0.05755 0.13043 0.0
C1793 C 0.66335 0.07151 0.1124 0.0
C1794 C 0.67201 0.03447 0.12753 0.0
C1795 C 0.66924 0.02439 0.10642 0.0
C1796 C 0.66442 0.03855 0.08808 0.0
C1797 C 0.6615 0.06181 0.09104 0.0
C1798 C 0.65293 0.96446 0.09019 0.0
C1799 C 0.66497 0.95163 0.10584 0.0
C1800 C 0.65516 0.98791 0.08949 0.0
C1801 C 0.6697 0.9992 0.10426 0.0
C1802 C 0.6831 0.98603 0.11857 0.0
C1803 C 0.68059 0.96266 0.11951 0.0
H1804 H 0.57539 0.11718 0.5926 0.0
H1805 H 0.58059 0.18487 0.61722 0.0
H1806 H 0.5355 0.12111 0.58911 0.0
H1807 H 0.54007 0.18945 0.6126 0.0
H1808 H 0.46458 0.17626 0.63044 0.0
H1809 H 0.5053 0.17956 0.62802 0.0
H1810 H 0.50501 0.1348 0.57119 0.0
H1811 H 0.46478 0.13039 0.57492 0.0
C1812 C 0.56806 0.13323 0.59672 0.0
C1813 C 0.58137 0.1507 0.60519 0.0
C1814 C 0.54493 0.1356 0.59454 0.0
C1815 C 0.53409 0.1557 0.60042 0.0
C1816 C 0.54755 0.17359 0.6081 0.0
C1817 C 0.5709 0.1711 0.61051 0.0
C1818 C 0.47327 0.16763 0.61711 0.0
C1819 C 0.46151 0.15309 0.60285 0.0
C1820 C 0.49671 0.16946 0.61569 0.0
C1821 C 0.5089 0.15702 0.59973 0.0
C1822 C 0.49663 0.14403 0.58429 0.0
C1823 C 0.4734 0.14176 0.58613 0.0
H1824 H 0.34319 0.05961 0.86141 0.0
H1825 H 0.36229 0.06799 0.93044 0.0
H1826 H 0.33967 0.0195 0.86702 0.0
H1827 H 0.35814 0.02759 0.93639 0.0
H1828 H 0.38247 0.95387 0.92694 0.0
H1829 H 0.37772 0.99433 0.92731 0.0
H1830 H 0.32158 0.98801 0.88231 0.0
H1831 H 0.32689 0.94745 0.88143 0.0
C1832 C 0.34606 0.05296 0.87802 0.0
C1833 C 0.35307 0.06716 0.89545 0.0
C1834 C 0.34394 0.02979 0.8813 0.0
C1835 C 0.34875 0.01994 0.90217 0.0
C1836 C 0.35463 0.03435 0.91997 0.0
C1837 C 0.35675 0.05762 0.91665 0.0
C1838 C 0.36876 0.96102 0.91752 0.0
C1839 C 0.35513 0.94727 0.90408 0.0
C1840 C 0.36598 0.98438 0.91776 0.0
C1841 C 0.34942 0.99479 0.90461 0.0
C1842 C 0.33485 0.98083 0.89231 0.0
C1843 C 0.3377 0.95744 0.89201 0.0
H1844 H 0.55767 0.88179 0.43451 0.0
H1845 H 0.55179 0.83817 0.37732 0.0
H1846 H 0.51717 0.88072 0.4394 0.0
H1847 H 0.51126 0.83731 0.38201 0.0
H1848 H 0.43692 0.83382 0.40075 0.0
H1849 H 0.47745 0.82747 0.40379 0.0
H1850 H 0.48715 0.89765 0.41824 0.0
H1851 H 0.44718 0.90383 0.41528 0.0
C1852 C 0.54783 0.8715 0.4233 0.0
C1853 C 0.55811 0.86014 0.40547 0.0
C1854 C 0.5245 0.87106 0.42596 0.0
C1855 C 0.51073 0.85921 0.41089 0.0
C1856 C 0.52119 0.84654 0.39403 0.0
C1857 C 0.54452 0.84705 0.39132 0.0
C1858 C 0.44773 0.84773 0.40503 0.0
C1859 C 0.43875 0.86932 0.40778 0.0
C1860 C 0.47099 0.84416 0.40659 0.0
C1861 C 0.48575 0.86204 0.41129 0.0
C1862 C 0.47649 0.88337 0.41493 0.0
C1863 C 0.45345 0.88695 0.4131 0.0
H1864 H 0.6341 0.0616 0.93148 0.0
H1865 H 0.68332 0.06603 0.87907 0.0
H1866 H 0.63892 0.02114 0.93284 0.0
H1867 H 0.68915 0.02569 0.88113 0.0
H1868 H 0.66822 0.95331 0.86567 0.0
H1869 H 0.67147 0.99353 0.86954 0.0
H1870 H 0.65772 0.98779 0.94026 0.0
H1871 H 0.65344 0.94724 0.93597 0.0
C1872 C 0.64656 0.05403 0.92076 0.0
C1873 C 0.65825 0.06718 0.90511 0.0
C1874 C 0.64938 0.03065 0.92153 0.0
C1875 C 0.66419 0.01967 0.90682 0.0
C1876 C 0.67707 0.03316 0.89231 0.0
C1877 C 0.67399 0.05648 0.89132 0.0
C1878 C 0.66632 0.96051 0.88218 0.0
C1879 C 0.66053 0.94687 0.90048 0.0
C1880 C 0.66829 0.9838 0.88447 0.0
C1881 C 0.66474 0.99439 0.90523 0.0
C1882 C 0.66016 0.98055 0.92386 0.0
C1883 C 0.65801 0.95715 0.9215 0.0
H1884 H 0.463 0.12198 0.42412 0.0
H1885 H 0.4521 0.18345 0.38783 0.0
H1886 H 0.50267 0.13022 0.42651 0.0
H1887 H 0.4921 0.19207 0.39057 0.0
H1888 H 0.56573 0.17731 0.36835 0.0
H1889 H 0.52544 0.17809 0.37338 0.0
H1890 H 0.53333 0.15188 0.44024 0.0
H1891 H 0.5739 0.15067 0.4349 0.0
C1892 C 0.469 0.13762 0.41713 0.0
C1893 C 0.45428 0.152 0.4057 0.0
C1894 C 0.49189 0.14242 0.4186 0.0
C1895 C 0.5009 0.16177 0.4086 0.0
C1896 C 0.48593 0.17684 0.39822 0.0
C1897 C 0.46291 0.17205 0.39685 0.0
C1898 C 0.55896 0.17221 0.38436 0.0
C1899 C 0.57316 0.16384 0.40118 0.0
C1900 C 0.53572 0.17273 0.38729 0.0
C1901 C 0.52585 0.16482 0.40714 0.0
C1902 C 0.54018 0.15778 0.42455 0.0
C1903 C 0.56353 0.15732 0.42162 0.0
H1904 H 0.1458 0.34308 0.96321 0.0
H1905 H 0.07585 0.35833 0.955 0.0
H1906 H 0.14047 0.3386 1.00303 0.0
H1907 H 0.07013 0.35301 0.99528 0.0
H1908 H 0.07873 0.37533 0.07015 0.0
H1909 H 0.07754 0.37144 0.02956 0.0
H1910 H 0.12688 0.31879 0.03342 0.0
H1911 H 0.12877 0.32357 0.07383 0.0
C1912 C 0.12906 0.3449 0.96985 0.0
C1913 C 0.11128 0.35111 0.95579 0.0
C1914 C 0.12593 0.34218 0.99288 0.0
C1915 C 0.10482 0.34545 1.00275 0.0
C1916 C 0.08671 0.35063 0.98849 0.0
C1917 C 0.08991 0.35342 0.96529 0.0
C1918 C 0.08888 0.36251 0.06237 0.0
C1919 C 0.10394 0.34985 0.07529 0.0
C1920 C 0.08823 0.36026 0.03897 0.0
C1921 C 0.10247 0.3451 0.02785 0.0
C1922 C 0.11614 0.33115 0.0411 0.0
C1923 C 0.11702 0.33366 0.06441 0.0
H1924 H 0.0812 0.63331 0.94524 0.0
H1925 H 0.13717 0.67863 0.94102 0.0
H1926 H 0.08104 0.63722 0.98589 0.0
H1927 H 0.13646 0.68346 0.98145 0.0
H1928 H 0.15369 0.65661 0.05097 0.0
H1929 H 0.14809 0.66134 0.01124 0.0
H1930 H 0.07663 0.65674 0.0206 0.0
H1931 H 0.08251 0.65124 0.06093 0.0
C1932 C 0.09294 0.64479 0.95291 0.0
C1933 C 0.10928 0.65556 0.93981 0.0
C1934 C 0.09288 0.64704 0.97634 0.0
C1935 C 0.10906 0.66029 0.98729 0.0
C1936 C 0.12414 0.67254 0.97388 0.0
C1937 C 0.12439 0.67003 0.95056 0.0
C1938 C 0.1367 0.65696 0.04471 0.0
C1939 C 0.11857 0.65352 0.05927 0.0
C1940 C 0.13343 0.65986 0.02174 0.0
C1941 C 0.11185 0.65951 0.01235 0.0
C1942 C 0.09354 0.6569 0.02704 0.0
C1943 C 0.09686 0.65399 0.05024 0.0
H1944 H 0.88164 0.58174 0.44709 0.0
H1945 H 0.82597 0.62722 0.44147 0.0
H1946 H 0.87714 0.5809 0.48748 0.0
H1947 H 0.82082 0.62578 0.48196 0.0
H1948 H 0.84314 0.64661 0.55305 0.0
H1949 H 0.83904 0.64098 0.51313 0.0
H1950 H 0.8582 0.57166 0.52093 0.0
H1951 H 0.86302 0.57767 0.56118 0.0
C1952 C 0.86796 0.59105 0.45441 0.0
C1953 C 0.85426 0.60466 0.44092 0.0
C1954 C 0.8653 0.59052 0.47773 0.0
C1955 C 0.84879 0.60352 0.48834 0.0
C1956 C 0.83409 0.61592 0.47462 0.0
C1957 C 0.83684 0.61655 0.45128 0.0
C1958 C 0.84606 0.63 0.54638 0.0
C1959 C 0.8535 0.61262 0.56044 0.0
C1960 C 0.84358 0.62671 0.52332 0.0
C1961 C 0.84841 0.60586 0.51344 0.0
C1962 C 0.85466 0.58807 0.52772 0.0
C1963 C 0.85718 0.59141 0.55091 0.0
H1964 H 0.93104 0.37983 0.95588 0.0
H1965 H 0.87262 0.33757 0.95934 0.0
H1966 H 0.93335 0.38007 0.99656 0.0
H1967 H 0.87474 0.33806 1.00026 0.0
H1968 H 0.89066 0.33744 0.07644 0.0
H1969 H 0.89474 0.32927 0.03621 0.0
H1970 H 0.91037 0.39882 0.02401 0.0
H1971 H 0.90638 0.40678 0.06353 0.0
C1972 C 0.91896 0.37014 0.96529 0.0
C1973 C 0.90158 0.35877 0.95421 0.0
C1974 C 0.92016 0.37044 0.98872 0.0
C1975 C 0.90399 0.35943 1.00187 0.0
C1976 C 0.88754 0.34669 0.99078 0.0
C1977 C 0.88633 0.3464 0.96725 0.0
C1978 C 0.89536 0.35082 0.06514 0.0
C1979 C 0.89822 0.37276 0.07327 0.0
C1980 C 0.89752 0.34621 0.04206 0.0
C1981 C 0.903 0.36335 0.02671 0.0
C1982 C 0.90651 0.38505 0.03517 0.0
C1983 C 0.90408 0.38967 0.05795 0.0
H1984 H 0.1344 0.43146 0.5743 0.0
H1985 H 0.16796 0.36778 0.569 0.0
H1986 H 0.13681 0.43615 0.53384 0.0
H1987 H 0.16972 0.37202 0.52852 0.0
H1988 H 0.17467 0.386 0.45434 0.0
H1989 H 0.18211 0.38939 0.49458 0.0
H1990 H 0.11737 0.42002 0.50361 0.0
H1991 H 0.11037 0.41711 0.46383 0.0
C1992 C 0.14274 0.41867 0.56457 0.0
C1993 C 0.15087 0.39919 0.57498 0.0
C1994 C 0.1439 0.42121 0.54126 0.0
C1995 C 0.15304 0.40426 0.52763 0.0
C1996 C 0.16265 0.38554 0.53827 0.0
C1997 C 0.16162 0.38307 0.56161 0.0
C1998 C 0.16234 0.39397 0.46491 0.0
C1999 C 0.14192 0.40126 0.45581 0.0
C2000 C 0.16647 0.39571 0.48805 0.0
C2001 C 0.15033 0.4049 0.50261 0.0
C2002 C 0.13043 0.41316 0.49315 0.0
C2003 C 0.12632 0.41136 0.47019 0.0
H2004 H 0.87544 0.68433 0.94187 0.0
H2005 H 0.93249 0.6403 0.94458 0.0
H2006 H 0.8762 0.68773 0.98253 0.0
H2007 H 0.93308 0.64347 0.98531 0.0
H2008 H 0.93185 0.65777 0.06077 0.0
H2009 H 0.93699 0.6656 0.02061 0.0
H2010 H 0.8657 0.66037 0.01074 0.0
H2011 H 0.86075 0.6526 0.05025 0.0
C2012 C 0.88856 0.67587 0.95105 0.0
C2013 C 0.90381 0.66192 0.93985 0.0
C2014 C 0.88887 0.67764 0.97446 0.0
C2015 C 0.90445 0.66556 0.98737 0.0
C2016 C 0.92088 0.6531 0.97603 0.0
C2017 C 0.92053 0.65127 0.95258 0.0
C2018 C 0.91731 0.65889 0.05003 0.0
C2019 C 0.89589 0.65462 0.05872 0.0
C2020 C 0.92024 0.66315 0.027 0.0
C2021 C 0.90176 0.66366 0.01229 0.0
C2022 C 0.88033 0.66048 0.0214 0.0
C2023 C 0.87748 0.65589 0.04415 0.0
H2024 H 0.83435 0.37033 0.46281 0.0
H2025 H 0.8478 0.44092 0.45541 0.0
H2026 H 0.83117 0.37483 0.50285 0.0
H2027 H 0.84375 0.44579 0.49595 0.0
H2028 H 0.86836 0.43703 0.56991 0.0
H2029 H 0.86316 0.43852 0.52953 0.0
H2030 H 0.81252 0.38709 0.53435 0.0
H2031 H 0.81863 0.38493 0.5746 0.0
C2032 C 0.83605 0.38703 0.4697 0.0
C2033 C 0.84137 0.40525 0.45574 0.0
C2034 C 0.83407 0.38967 0.49287 0.0
C2035 C 0.83722 0.41071 0.50307 0.0
C2036 C 0.84151 0.42923 0.48895 0.0
C2037 C 0.84356 0.42653 0.46559 0.0
C2038 C 0.8557 0.42643 0.56243 0.0
C2039 C 0.84401 0.41076 0.5756 0.0
C2040 C 0.85268 0.42728 0.53911 0.0
C2041 C 0.8377 0.41261 0.52825 0.0
C2042 C 0.82473 0.39822 0.54178 0.0
C2043 C 0.82798 0.39717 0.56503 0.0
H2044 H 0.1667 0.64678 0.55292 0.0
H2045 H 0.15126 0.57677 0.56183 0.0
H2046 H 0.17125 0.64094 0.51301 0.0
H2047 H 0.15619 0.57069 0.52155 0.0
H2048 H 0.13196 0.57993 0.44727 0.0
H2049 H 0.13598 0.57962 0.4878 0.0
H2050 H 0.19172 0.62532 0.48256 0.0
H2051 H 0.18731 0.62596 0.44191 0.0
C2052 C 0.16479 0.62996 0.54642 0.0
C2053 C 0.15858 0.61226 0.56068 0.0
C2054 C 0.16751 0.62656 0.5234 0.0
C2055 C 0.16402 0.60533 0.51377 0.0
C2056 C 0.15878 0.58735 0.52821 0.0
C2057 C 0.15618 0.59076 0.55139 0.0
C2058 C 0.14544 0.5895 0.45469 0.0
C2059 C 0.15924 0.60305 0.44122 0.0
C2060 C 0.14779 0.58929 0.47806 0.0
C2061 C 0.164 0.60267 0.48872 0.0
C2062 C 0.17875 0.6151 0.47509 0.0
C2063 C 0.1764 0.61529 0.45169 0.0
H2064 H 0.31845 0.15154 0.41051 0.0
H2065 H 0.3218 0.11874 0.34635 0.0
H2066 H 0.27755 0.15009 0.40885 0.0
H2067 H 0.28126 0.1177 0.3444 0.0
H2068 H 0.20833 0.09717 0.35895 0.0
H2069 H 0.24923 0.09952 0.35958 0.0
H2070 H 0.24509 0.16453 0.39094 0.0
H2071 H 0.20458 0.16191 0.39072 0.0
C2072 C 0.31049 0.14433 0.39592 0.0
C2073 C 0.32351 0.1353 0.3786 0.0
C2074 C 0.28698 0.14348 0.3949 0.0
C2075 C 0.27584 0.1336 0.37651 0.0
C2076 C 0.28901 0.12502 0.35904 0.0
C2077 C 0.31239 0.12583 0.36009 0.0
C2078 C 0.21619 0.11203 0.36573 0.0
C2079 C 0.20307 0.12931 0.37475 0.0
C2080 C 0.2397 0.11345 0.36612 0.0
C2081 C 0.25072 0.13219 0.3755 0.0
C2082 C 0.23744 0.14963 0.38401 0.0
C2083 C 0.21407 0.14819 0.38366 0.0
H2084 H 0.41294 0.70019 0.85807 0.0
H2085 H 0.35463 0.69652 0.90027 0.0
H2086 H 0.41153 0.74117 0.85991 0.0
H2087 H 0.35263 0.73706 0.90148 0.0
H2088 H 0.36515 0.81123 0.91635 0.0
H2089 H 0.36766 0.77026 0.91566 0.0
H2090 H 0.39253 0.77314 0.84789 0.0
H2091 H 0.39078 0.81371 0.84902 0.0
C2092 C 0.39974 0.70809 0.86759 0.0
C2093 C 0.38395 0.69494 0.87901 0.0
C2094 C 0.3988 0.73168 0.8686 0.0
C2095 C 0.38193 0.74279 0.88092 0.0
C2096 C 0.36615 0.72945 0.8922 0.0
C2097 C 0.3672 0.70601 0.89132 0.0
C2098 C 0.37104 0.80305 0.90132 0.0
C2099 C 0.37775 0.81587 0.88279 0.0
C2100 C 0.37246 0.77947 0.90083 0.0
C2101 C 0.38046 0.76803 0.88171 0.0
C2102 C 0.38679 0.78103 0.86313 0.0
C2103 C 0.38555 0.80447 0.8637 0.0
H2104 H 0.69104 0.90999 0.36008 0.0
H2105 H 0.69282 0.85995 0.4121 0.0
H2106 H 0.73144 0.91038 0.35854 0.0
H2107 H 0.73376 0.86103 0.41141 0.0
H2108 H 0.80624 0.85149 0.39049 0.0
H2109 H 0.76571 0.85102 0.3918 0.0
H2110 H 0.76467 0.92141 0.37484 0.0
H2111 H 0.8055 0.92144 0.37255 0.0
C2112 C 0.7001 0.89919 0.37147 0.0
C2113 C 0.68853 0.88492 0.38626 0.0
C2114 C 0.72348 0.89956 0.37069 0.0
C2115 C 0.73629 0.88585 0.38488 0.0
C2116 C 0.72469 0.87164 0.39989 0.0
C2117 C 0.70113 0.87108 0.40046 0.0
C2118 C 0.79737 0.86687 0.38685 0.0
C2119 C 0.80922 0.8865 0.3813 0.0
C2120 C 0.77397 0.86666 0.38787 0.0
C2121 C 0.7615 0.88618 0.38365 0.0
C2122 C 0.77342 0.90586 0.37791 0.0
C2123 C 0.79693 0.90597 0.37662 0.0
H2124 H 0.59628 0.19863 0.87003 0.0
H2125 H 0.65847 0.20209 0.90643 0.0
H2126 H 0.59512 0.23919 0.86764 0.0
H2127 H 0.65744 0.24314 0.90384 0.0
H2128 H 0.6346 0.31562 0.91681 0.0
H2129 H 0.63709 0.27507 0.91797 0.0
H2130 H 0.6121 0.27163 0.85032 0.0
H2131 H 0.60936 0.31268 0.84926 0.0
C2132 C 0.6098 0.20805 0.87756 0.0
C2133 C 0.62746 0.19694 0.88856 0.0
C2134 C 0.6092 0.23145 0.87597 0.0
C2135 C 0.62619 0.24468 0.88541 0.0
C2136 C 0.6439 0.2336 0.8965 0.0
C2137 C 0.64457 0.21003 0.89799 0.0
C2138 C 0.62957 0.30632 0.9021 0.0
C2139 C 0.62167 0.31757 0.88293 0.0
C2140 C 0.63122 0.28292 0.90274 0.0
C2141 C 0.62495 0.26984 0.88424 0.0
C2142 C 0.61693 0.28106 0.86501 0.0
C2143 C 0.61537 0.30463 0.86433 0.0
H2144 H 0.31038 0.92109 0.61065 0.0
H2145 H 0.3085 0.85213 0.63216 0.0
H2146 H 0.27031 0.92414 0.61619 0.0
H2147 H 0.26785 0.85507 0.6375 0.0
H2148 H 0.19931 0.87662 0.66709 0.0
H2149 H 0.23985 0.87337 0.66203 0.0
H2150 H 0.23516 0.91205 0.6012 0.0
H2151 H 0.19498 0.91547 0.60641 0.0
C2152 C 0.30133 0.90639 0.61625 0.0
C2153 C 0.31273 0.88629 0.6208 0.0
C2154 C 0.27823 0.90816 0.61942 0.0
C2155 C 0.26566 0.88991 0.62739 0.0
C2156 C 0.27697 0.86959 0.63161 0.0
C2157 C 0.30023 0.86777 0.62825 0.0
C2158 C 0.20703 0.88483 0.65291 0.0
C2159 C 0.19385 0.89653 0.6373 0.0
C2160 C 0.23026 0.88266 0.6498 0.0
C2161 C 0.24093 0.8923 0.6311 0.0
C2162 C 0.22772 0.90454 0.61591 0.0
C2163 C 0.20459 0.90657 0.61893 0.0
H2164 H 0.63994 0.70914 0.16492 0.0
H2165 H 0.59679 0.70617 0.10719 0.0
H2166 H 0.64426 0.74965 0.15953 0.0
H2167 H 0.60125 0.74632 0.10164 0.0
H2168 H 0.59632 0.82223 0.11117 0.0
H2169 H 0.59185 0.78218 0.11706 0.0
H2170 H 0.66186 0.77679 0.13367 0.0
H2171 H 0.66625 0.81731 0.12799 0.0
C2172 C 0.63103 0.71717 0.15134 0.0
C2173 C 0.61782 0.70437 0.13664 0.0
C2174 C 0.63379 0.74037 0.14802 0.0
C2175 C 0.62326 0.7514 0.13001 0.0
C2176 C 0.6095 0.73861 0.11579 0.0
C2177 C 0.60689 0.71549 0.11901 0.0
C2178 C 0.61089 0.81251 0.11578 0.0
C2179 C 0.6317 0.82306 0.11892 0.0
C2180 C 0.60831 0.78944 0.11917 0.0
C2181 C 0.62643 0.77607 0.12597 0.0
C2182 C 0.64743 0.78653 0.12873 0.0
C2183 C 0.65005 0.80973 0.12516 0.0
H2184 H 0.83133 0.13705 0.59051 0.0
H2185 H 0.82763 0.12004 0.66053 0.0
H2186 H 0.79121 0.1424 0.58935 0.0
H2187 H 0.78692 0.12471 0.65928 0.0
H2188 H 0.71796 0.15738 0.65587 0.0
H2189 H 0.75838 0.1524 0.65661 0.0
H2190 H 0.75595 0.12508 0.58977 0.0
H2191 H 0.71556 0.13071 0.5889 0.0
C2192 C 0.82189 0.13409 0.60567 0.0
C2193 C 0.83284 0.12806 0.62564 0.0
C2194 C 0.7987 0.13709 0.60496 0.0
C2195 C 0.78552 0.13409 0.6242 0.0
C2196 C 0.79642 0.12756 0.64415 0.0
C2197 C 0.81978 0.12461 0.64486 0.0
C2198 C 0.7261 0.15067 0.64116 0.0
C2199 C 0.71344 0.14464 0.62224 0.0
C2200 C 0.74933 0.14749 0.64171 0.0
C2201 C 0.76068 0.13806 0.62338 0.0
C2202 C 0.74803 0.1326 0.60419 0.0
C2203 C 0.72477 0.13588 0.60362 0.0
H2204 H 0.35452 0.2011 0.14765 0.0
H2205 H 0.40059 0.19949 0.09226 0.0
H2206 H 0.35933 0.24167 0.15045 0.0
H2207 H 0.40626 0.23964 0.09559 0.0
H2208 H 0.39644 0.31481 0.09238 0.0
H2209 H 0.39147 0.27469 0.08977 0.0
H2210 H 0.38355 0.27091 0.1615 0.0
H2211 H 0.38754 0.31173 0.16389 0.0
C2212 C 0.36551 0.20944 0.13591 0.0
C2213 C 0.37693 0.19699 0.11954 0.0
C2214 C 0.36857 0.23273 0.13773 0.0
C2215 C 0.38334 0.24426 0.12337 0.0
C2216 C 0.39445 0.23171 0.10678 0.0
C2217 C 0.3912 0.20852 0.10483 0.0
C2218 C 0.39394 0.30547 0.10771 0.0
C2219 C 0.39251 0.31664 0.12838 0.0
C2220 C 0.39113 0.28224 0.10621 0.0
C2221 C 0.38702 0.26918 0.12538 0.0
C2222 C 0.38628 0.28028 0.14625 0.0
C2223 C 0.38892 0.3037 0.14771 0.0
H2224 H 0.11183 0.34458 0.2098 0.0
H2225 H 0.122 0.41604 0.20592 0.0
H2226 H 0.11567 0.34646 0.25062 0.0
H2227 H 0.12659 0.41787 0.2461 0.0
H2228 H 0.11432 0.41798 0.32132 0.0
H2229 H 0.10905 0.41603 0.28095 0.0
H2230 H 0.14244 0.35192 0.2797 0.0
H2231 H 0.14702 0.35365 0.32021 0.0
C2232 C 0.11467 0.36069 0.21763 0.0
C2233 C 0.11648 0.38014 0.2045 0.0
C2234 C 0.11717 0.36178 0.24105 0.0
C2235 C 0.12159 0.38235 0.25191 0.0
C2236 C 0.1229 0.40177 0.23865 0.0
C2237 C 0.12033 0.40068 0.21542 0.0
C2238 C 0.12088 0.40365 0.31239 0.0
C2239 C 0.13126 0.38608 0.32408 0.0
C2240 C 0.11781 0.40246 0.28913 0.0
C2241 C 0.12515 0.38371 0.2768 0.0
C2242 C 0.13611 0.36643 0.2885 0.0
C2243 C 0.13907 0.36758 0.31177 0.0
H2244 H 0.10324 0.59444 0.69291 0.0
H2245 H 0.16425 0.63272 0.69749 0.0
H2246 H 0.098 0.59779 0.73317 0.0
H2247 H 0.15911 0.63599 0.73804 0.0
H2248 H 0.12917 0.65815 0.80614 0.0
H2249 H 0.1343 0.65478 0.76553 0.0
H2250 H 0.11303 0.58574 0.76873 0.0
H2251 H 0.1078 0.58918 0.80893 0.0
C2252 C 0.11581 0.60321 0.70258 0.0
C2253 C 0.13429 0.61311 0.6919 0.0
C2254 C 0.11277 0.6052 0.72575 0.0
C2255 C 0.12802 0.61733 0.73901 0.0
C2256 C 0.14683 0.6268 0.72839 0.0
C2257 C 0.14998 0.62463 0.70516 0.0
C2258 C 0.12521 0.64241 0.79807 0.0
C2259 C 0.11789 0.62401 0.81084 0.0
C2260 C 0.12845 0.64035 0.77482 0.0
C2261 C 0.12423 0.61991 0.76373 0.0
C2262 C 0.1163 0.60179 0.77651 0.0
C2263 C 0.11328 0.60378 0.79966 0.0
H2264 H 0.89473 0.66134 0.1978 0.0
H2265 H 0.87393 0.59226 0.19317 0.0
H2266 H 0.88984 0.65978 0.23857 0.0
H2267 H 0.86852 0.59085 0.23325 0.0
H2268 H 0.88139 0.58812 0.30853 0.0
H2269 H 0.88687 0.58982 0.26813 0.0
H2270 H 0.86188 0.65766 0.26747 0.0
H2271 H 0.85694 0.65605 0.30794 0.0
C2272 C 0.88924 0.64584 0.20543 0.0
C2273 C 0.88482 0.62695 0.19211 0.0
C2274 C 0.8862 0.64495 0.22881 0.0
C2275 C 0.87872 0.62514 0.23943 0.0
C2276 C 0.87461 0.60629 0.22597 0.0
C2277 C 0.87763 0.60718 0.2028 0.0
C2278 C 0.87669 0.60325 0.29972 0.0
C2279 C 0.86854 0.62185 0.31156 0.0
C2280 C 0.87989 0.6043 0.27646 0.0
C2281 C 0.87499 0.62397 0.2643 0.0
C2282 C 0.86628 0.64237 0.27615 0.0
C2283 C 0.86312 0.64132 0.29939 0.0
H2284 H 0.91947 0.38389 0.8191 0.0
H2285 H 0.85234 0.35752 0.81883 0.0
H2286 H 0.91708 0.39037 0.77888 0.0
H2287 H 0.85004 0.36349 0.77851 0.0
H2288 H 0.84434 0.39816 0.70981 0.0
H2289 H 0.84673 0.39214 0.75039 0.0
H2290 H 0.91601 0.37325 0.7434 0.0
H2291 H 0.91375 0.37977 0.70347 0.0
C2292 C 0.90438 0.37898 0.81039 0.0
C2293 C 0.8862 0.36999 0.82229 0.0
C2294 C 0.90293 0.38276 0.78722 0.0
C2295 C 0.88326 0.37765 0.77519 0.0
C2296 C 0.86531 0.36808 0.78708 0.0
C2297 C 0.86676 0.36432 0.81024 0.0
C2298 C 0.86011 0.39298 0.71704 0.0
C2299 C 0.87883 0.38957 0.70327 0.0
C2300 C 0.86147 0.38928 0.74031 0.0
C2301 C 0.88161 0.38211 0.75042 0.0
C2302 C 0.90031 0.37905 0.73654 0.0
C2303 C 0.89895 0.38272 0.71345 0.0
H2304 H 0.69278 0.89146 0.66726 0.0
H2305 H 0.69837 0.86269 0.60133 0.0
H2306 H 0.73286 0.89683 0.66875 0.0
H2307 H 0.7391 0.86747 0.60305 0.0
H2308 H 0.80763 0.90153 0.60281 0.0
H2309 H 0.76741 0.89558 0.60183 0.0
H2310 H 0.76821 0.87988 0.67235 0.0
H2311 H 0.80857 0.88646 0.67335 0.0
C2312 C 0.70263 0.88596 0.6531 0.0
C2313 C 0.6922 0.87664 0.63412 0.0
C2314 C 0.7258 0.88895 0.65405 0.0
C2315 C 0.73952 0.88268 0.63605 0.0
C2316 C 0.72916 0.87286 0.61717 0.0
C2317 C 0.70579 0.86988 0.61621 0.0
C2318 C 0.7992 0.89712 0.61822 0.0
C2319 C 0.8114 0.89467 0.63822 0.0
C2320 C 0.77607 0.89338 0.61757 0.0
C2321 C 0.76432 0.88694 0.63691 0.0
C2322 C 0.77649 0.885 0.65709 0.0
C2323 C 0.79969 0.88885 0.65774 0.0
H2324 H 0.59962 0.20544 0.11515 0.0
H2325 H 0.67155 0.20788 0.11932 0.0
H2326 H 0.59786 0.24597 0.11901 0.0
H2327 H 0.66982 0.24867 0.12349 0.0
H2328 H 0.65907 0.32321 0.10741 0.0
H2329 H 0.66139 0.28278 0.10412 0.0
H2330 H 0.60287 0.27593 0.14578 0.0
H2331 H 0.60035 0.3169 0.14878 0.0
C2332 C 0.61514 0.21465 0.11669 0.0
C2333 C 0.63577 0.20328 0.11675 0.0
C2334 C 0.61409 0.23798 0.11921 0.0
C2335 C 0.63364 0.25081 0.12183 0.0
C2336 C 0.65436 0.23949 0.12136 0.0
C2337 C 0.65541 0.21605 0.11889 0.0
C2338 C 0.64668 0.31317 0.11601 0.0
C2339 C 0.62945 0.32346 0.12836 0.0
C2340 C 0.64813 0.28983 0.11421 0.0
C2341 C 0.63236 0.27584 0.12463 0.0
C2342 C 0.61521 0.28609 0.13726 0.0
C2343 C 0.61381 0.3096 0.13915 0.0
H2344 H 0.21974 0.09114 0.62398 0.0
H2345 H 0.21198 0.15701 0.65254 0.0
H2346 H 0.2597 0.09821 0.61888 0.0
H2347 H 0.25171 0.16423 0.64717 0.0
H2348 H 0.32864 0.16108 0.65285 0.0
H2349 H 0.28887 0.15475 0.65898 0.0
H2350 H 0.28444 0.12066 0.59548 0.0
H2351 H 0.32445 0.12675 0.58953 0.0
C2352 C 0.22662 0.10696 0.62959 0.0
C2353 C 0.21259 0.12342 0.63884 0.0
C2354 C 0.24951 0.11118 0.62632 0.0
C2355 C 0.25906 0.13194 0.63231 0.0
C2356 C 0.24514 0.14801 0.64243 0.0
C2357 C 0.22227 0.14383 0.64559 0.0
C2358 C 0.31912 0.15262 0.63995 0.0
C2359 C 0.32981 0.14457 0.62061 0.0
C2360 C 0.29623 0.14892 0.64351 0.0
C2361 C 0.2833 0.13692 0.62788 0.0
C2362 C 0.29385 0.12959 0.60812 0.0
C2363 C 0.31677 0.1334 0.60451 0.0
H2364 H 0.35282 0.81337 0.13961 0.0
H2365 H 0.4145 0.81774 0.10256 0.0
H2366 H 0.35805 0.77281 0.14348 0.0
H2367 H 0.41999 0.77763 0.10677 0.0
H2368 H 0.41225 0.70193 0.09906 0.0
H2369 H 0.40683 0.74205 0.09519 0.0
H2370 H 0.38121 0.7451 0.1626 0.0
H2371 H 0.38625 0.70447 0.16627 0.0
C2372 C 0.36729 0.80565 0.13197 0.0
C2373 C 0.3831 0.81886 0.12057 0.0
C2374 C 0.3705 0.78242 0.13449 0.0
C2375 C 0.38956 0.77177 0.1256 0.0
C2376 C 0.40499 0.785 0.11368 0.0
C2377 C 0.40182 0.80813 0.11123 0.0
C2378 C 0.4058 0.71115 0.11325 0.0
C2379 C 0.39986 0.69989 0.13306 0.0
C2380 C 0.40266 0.73429 0.11101 0.0
C2381 C 0.39344 0.74704 0.12851 0.0
C2382 C 0.38804 0.73587 0.14861 0.0
C2383 C 0.39126 0.7126 0.15087 0.0
H2384 H 0.70558 0.16486 0.36138 0.0
H2385 H 0.70951 0.12308 0.41996 0.0
H2386 H 0.74492 0.15864 0.35402 0.0
H2387 H 0.74945 0.11825 0.414 0.0
H2388 H 0.81727 0.09587 0.39049 0.0
H2389 H 0.77731 0.10127 0.39585 0.0
H2390 H 0.78131 0.16368 0.35914 0.0
H2391 H 0.82065 0.15696 0.3523 0.0
C2392 C 0.71512 0.15496 0.37319 0.0
C2393 C 0.70439 0.14467 0.3914 0.0
C2394 C 0.73792 0.15131 0.36899 0.0
C2395 C 0.75101 0.13769 0.38321 0.0
C2396 C 0.74027 0.12826 0.40207 0.0
C2397 C 0.71729 0.13138 0.40585 0.0
C2398 C 0.80937 0.11042 0.38309 0.0
C2399 C 0.82213 0.12575 0.37065 0.0
C2400 C 0.78638 0.11386 0.38653 0.0
C2401 C 0.77549 0.13321 0.37832 0.0
C2402 C 0.78843 0.14832 0.36552 0.0
C2403 C 0.81124 0.14449 0.36152 0.0
H2404 H 0.35687 0.31568 0.84896 0.0
H2405 H 0.42251 0.31121 0.87831 0.0
H2406 H 0.35123 0.2758 0.85505 0.0
H2407 H 0.41759 0.27098 0.88329 0.0
H2408 H 0.39665 0.20388 0.91095 0.0
H2409 H 0.40073 0.24397 0.90465 0.0
H2410 H 0.35773 0.23897 0.84672 0.0
H2411 H 0.35275 0.19911 0.854 0.0
C2412 C 0.37042 0.30603 0.85612 0.0
C2413 C 0.39022 0.31675 0.86302 0.0
C2414 C 0.36718 0.28297 0.85968 0.0
C2415 C 0.38378 0.26972 0.86999 0.0
C2416 C 0.40402 0.28041 0.87592 0.0
C2417 C 0.40708 0.30355 0.8727 0.0
C2418 C 0.3877 0.21146 0.89714 0.0
C2419 C 0.37419 0.19822 0.88314 0.0
C2420 C 0.39034 0.23453 0.89322 0.0
C2421 C 0.37992 0.24513 0.87486 0.0
C2422 C 0.36591 0.23184 0.8612 0.0
C2423 C 0.36298 0.20882 0.86538 0.0
H2424 H 0.19268 0.91312 0.40594 0.0
H2425 H 0.18944 0.86552 0.35189 0.0
H2426 H 0.2326 0.90627 0.40983 0.0
H2427 H 0.22907 0.85754 0.35647 0.0
H2428 H 0.29969 0.87684 0.42736 0.0
H2429 H 0.25947 0.88201 0.42291 0.0
H2430 H 0.26562 0.8677 0.35231 0.0
H2431 H 0.3053 0.86128 0.35718 0.0
C2432 C 0.20057 0.90131 0.39472 0.0
C2433 C 0.18784 0.8901 0.37842 0.0
C2434 C 0.22352 0.89702 0.3972 0.0
C2435 C 0.23444 0.88101 0.38375 0.0
C2436 C 0.22167 0.8702 0.36705 0.0
C2437 C 0.19879 0.87481 0.36433 0.0
C2438 C 0.2923 0.87423 0.41103 0.0
C2439 C 0.30582 0.86845 0.39271 0.0
C2440 C 0.26919 0.87761 0.40831 0.0
C2441 C 0.25892 0.87571 0.3871 0.0
C2442 C 0.27247 0.86913 0.36899 0.0
C2443 C 0.29545 0.86541 0.37179 0.0
H2444 H 0.58892 0.70291 0.87855 0.0
H2445 H 0.65953 0.69864 0.86496 0.0
H2446 H 0.59252 0.74329 0.88406 0.0
H2447 H 0.66353 0.73849 0.8717 0.0
H2448 H 0.66266 0.81487 0.86883 0.0
H2449 H 0.65905 0.77495 0.86115 0.0
H2450 H 0.60424 0.77095 0.90807 0.0
H2451 H 0.60721 0.8111 0.9146 0.0
C2452 C 0.60519 0.71061 0.87655 0.0
C2453 C 0.62386 0.69743 0.87111 0.0
C2454 C 0.6074 0.73384 0.88008 0.0
C2455 C 0.62844 0.74458 0.87868 0.0
C2456 C 0.64696 0.7313 0.87269 0.0
C2457 C 0.64467 0.70822 0.86882 0.0
C2458 C 0.6501 0.80536 0.87777 0.0
C2459 C 0.63536 0.81624 0.89248 0.0
C2460 C 0.64794 0.7823 0.87335 0.0
C2461 C 0.63116 0.76927 0.88376 0.0
C2462 C 0.61699 0.78018 0.89914 0.0
C2463 C 0.61893 0.80328 0.90324 0.0
H2464 H 0.91134 0.65358 0.80543 0.0
H2465 H 0.85074 0.6146 0.80991 0.0
H2466 H 0.91013 0.65026 0.76451 0.0
H2467 H 0.84974 0.61089 0.76955 0.0
H2468 H 0.84322 0.62453 0.69421 0.0
H2469 H 0.84346 0.62956 0.73486 0.0
H2470 H 0.91532 0.62303 0.73528 0.0
H2471 H 0.91504 0.61842 0.69486 0.0
C2472 C 0.89772 0.64444 0.79773 0.0
C2473 C 0.88119 0.63437 0.81106 0.0
C2474 C 0.89708 0.64234 0.77425 0.0
C2475 C 0.87984 0.63019 0.76351 0.0
C2476 C 0.86313 0.6206 0.77696 0.0
C2477 C 0.86381 0.62264 0.80027 0.0
C2478 C 0.85901 0.62385 0.70304 0.0
C2479 C 0.87907 0.62093 0.69119 0.0
C2480 C 0.85921 0.62681 0.7264 0.0
C2481 C 0.87948 0.62695 0.73855 0.0
C2482 C 0.89943 0.62353 0.72663 0.0
C2483 C 0.89922 0.62057 0.70338 0.0
H2484 H 0.83625 0.37258 0.32142 0.0
H2485 H 0.88756 0.42328 0.31933 0.0
H2486 H 0.84212 0.36488 0.28182 0.0
H2487 H 0.89286 0.41641 0.27953 0.0
H2488 H 0.91448 0.38625 0.21382 0.0
H2489 H 0.90824 0.39155 0.25382 0.0
H2490 H 0.83833 0.3757 0.24478 0.0
H2491 H 0.8449 0.36945 0.20519 0.0
C2492 C 0.84835 0.38256 0.31235 0.0
C2493 C 0.8613 0.39868 0.32362 0.0
C2494 C 0.85182 0.3781 0.28952 0.0
C2495 C 0.86824 0.38976 0.27716 0.0
C2496 C 0.8805 0.40656 0.28835 0.0
C2497 C 0.87719 0.41082 0.31121 0.0
C2498 C 0.8979 0.38337 0.22049 0.0
C2499 C 0.88027 0.37727 0.20618 0.0
C2500 C 0.89417 0.3868 0.24347 0.0
C2501 C 0.87262 0.38448 0.25284 0.0
C2502 C 0.85521 0.37751 0.23855 0.0
C2503 C 0.859 0.37389 0.21566 0.0
H2504 H 0.12135 0.33809 0.82177 0.0
H2505 H 0.11241 0.4098 0.82073 0.0
H2506 H 0.12497 0.33818 0.7809 0.0
H2507 H 0.11596 0.4099 0.78021 0.0
H2508 H 0.14588 0.4057 0.70957 0.0
H2509 H 0.14391 0.40443 0.7506 0.0
H2510 H 0.1034 0.34467 0.74679 0.0
H2511 H 0.10547 0.34588 0.70623 0.0
C2512 C 0.11983 0.3538 0.81284 0.0
C2513 C 0.11645 0.37388 0.82462 0.0
C2514 C 0.12199 0.35391 0.78939 0.0
C2515 C 0.12102 0.37412 0.77714 0.0
C2516 C 0.11725 0.39408 0.78898 0.0
C2517 C 0.11493 0.39395 0.8123 0.0
C2518 C 0.13674 0.39223 0.71754 0.0
C2519 C 0.12581 0.37597 0.70453 0.0
C2520 C 0.13545 0.39154 0.74107 0.0
C2521 C 0.12341 0.37444 0.75214 0.0
C2522 C 0.113 0.35794 0.73902 0.0
C2523 C 0.1141 0.35875 0.71564 0.0
H2524 H 0.15164 0.65756 0.309 0.0
H2525 H 0.13616 0.58714 0.30472 0.0
H2526 H 0.14433 0.66189 0.26945 0.0
H2527 H 0.13017 0.59101 0.26446 0.0
H2528 H 0.10027 0.60662 0.19655 0.0
H2529 H 0.10662 0.60323 0.23668 0.0
H2530 H 0.15444 0.65751 0.23327 0.0
H2531 H 0.14686 0.66163 0.19356 0.0
C2532 C 0.14725 0.64278 0.29946 0.0
C2533 C 0.14462 0.62195 0.31018 0.0
C2534 C 0.14307 0.64526 0.27652 0.0
C2535 C 0.13647 0.62689 0.26326 0.0
C2536 C 0.13466 0.6058 0.27391 0.0
C2537 C 0.13847 0.60341 0.29705 0.0
C2538 C 0.11173 0.61817 0.20454 0.0
C2539 C 0.12279 0.63461 0.19182 0.0
C2540 C 0.11573 0.61599 0.22761 0.0
C2541 C 0.13134 0.62987 0.23866 0.0
C2542 C 0.14202 0.64665 0.22585 0.0
C2543 C 0.13765 0.6491 0.20288 0.0
loop_
_geom_bond_atom_site_label_1
_geom_bond_atom_site_label_2
_geom_bond_distance
_geom_bond_site_symmetry_2
_ccdc_geom_bond_type
In0 O1 2.294 . S
In0 O2 2.326 . S
In0 O6 2.266 . S
In0 O7 2.326 . S
In0 O8 2.266 . S
In0 O9 2.326 . S
In0 O11 2.294 . S
In0 O12 2.326 . S
O1 In0 2.294 . S
O1 C10 1.240 . S
O2 In0 2.326 . S
O2 C10 1.252 . S
C3 O6 1.252 . S
C3 O7 1.260 . S
C4 O11 1.240 . S
C4 O12 1.252 . S
C5 O8 1.252 . S
C5 O9 1.260 . S
O6 In0 2.266 . S
O6 C3 1.252 . S
O7 In0 2.326 . S
O7 C3 1.260 . S
O8 In0 2.266 . S
O8 C5 1.252 . S
O9 In0 2.326 . S
O9 C5 1.260 . S
C10 O1 1.240 . S
C10 O2 1.252 . S
O11 In0 2.294 . S
O11 C4 1.240 . S
O12 In0 2.326 . S
O12 C4 1.252 . S
In13 O14 2.294 . S
In13 O15 2.326 . S
In13 O19 2.266 . S
In13 O20 2.326 . S
In13 O21 2.266 . S
In13 O22 2.326 . S
In13 O24 2.294 . S
In13 O25 2.326 . S
O14 In13 2.294 . S
O14 C23 1.240 . S
O15 In13 2.326 . S
O15 C23 1.252 . S
C16 O19 1.252 . S
C16 O20 1.260 . S
C17 O24 1.240 . S
C17 O25 1.252 . S
C18 O21 1.252 . S
C18 O22 1.260 . S
O19 In13 2.266 . S
O19 C16 1.252 . S
O20 In13 2.326 . S
O20 C16 1.260 . S
O21 In13 2.266 . S
O21 C18 1.252 . S
O22 In13 2.326 . S
O22 C18 1.260 . S
C23 O14 1.240 . S
C23 O15 1.252 . S
O24 In13 2.294 . S
O24 C17 1.240 . S
O25 In13 2.326 . S
O25 C17 1.252 . S
In26 O27 2.294 . S
In26 O28 2.326 . S
In26 O32 2.266 . S
In26 O33 2.326 . S
In26 O34 2.266 . S
In26 O35 2.326 . S
In26 O37 2.294 . S
In26 O38 2.326 . S
O27 In26 2.294 . S
O27 C36 1.240 . S
O28 In26 2.326 . S
O28 C36 1.252 . S
C29 O32 1.252 . S
C29 O33 1.260 . S
C30 O37 1.240 . S
C30 O38 1.252 . S
C31 O34 1.252 . S
C31 O35 1.260 . S
O32 In26 2.266 . S
O32 C29 1.252 . S
O33 In26 2.326 . S
O33 C29 1.260 . S
O34 In26 2.266 . S
O34 C31 1.252 . S
O35 In26 2.326 . S
O35 C31 1.260 . S
C36 O27 1.240 . S
C36 O28 1.252 . S
O37 In26 2.294 . S
O37 C30 1.240 . S
O38 In26 2.326 . S
O38 C30 1.252 . S
In39 O40 2.294 . S
In39 O41 2.326 . S
In39 O45 2.266 . S
In39 O46 2.326 . S
In39 O47 2.266 . S
In39 O48 2.326 . S
In39 O50 2.294 . S
In39 O51 2.326 . S
O40 In39 2.294 . S
O40 C49 1.240 . S
O41 In39 2.326 . S
O41 C49 1.252 . S
C42 O45 1.252 . S
C42 O46 1.260 . S
C43 O50 1.240 . S
C43 O51 1.252 . S
C44 O47 1.252 . S
C44 O48 1.260 . S
O45 In39 2.266 . S
O45 C42 1.252 . S
O46 In39 2.326 . S
O46 C42 1.260 . S
O47 In39 2.266 . S
O47 C44 1.252 . S
O48 In39 2.326 . S
O48 C44 1.260 . S
C49 O40 1.240 . S
C49 O41 1.252 . S
O50 In39 2.294 . S
O50 C43 1.240 . S
O51 In39 2.326 . S
O51 C43 1.252 . S
In52 O53 2.294 . S
In52 O54 2.326 . S
In52 O58 2.266 . S
In52 O59 2.326 . S
In52 O60 2.266 . S
In52 O61 2.326 . S
In52 O63 2.294 . S
In52 O64 2.326 . S
O53 In52 2.294 . S
O53 C62 1.240 . S
O54 In52 2.326 . S
O54 C62 1.252 . S
C55 O58 1.252 . S
C55 O59 1.260 . S
C56 O63 1.240 . S
C56 O64 1.252 . S
C57 O60 1.252 . S
C57 O61 1.260 . S
O58 In52 2.266 . S
O58 C55 1.252 . S
O59 In52 2.326 . S
O59 C55 1.260 . S
O60 In52 2.266 . S
O60 C57 1.252 . S
O61 In52 2.326 . S
O61 C57 1.260 . S
C62 O53 1.240 . S
C62 O54 1.252 . S
O63 In52 2.294 . S
O63 C56 1.240 . S
O64 In52 2.326 . S
O64 C56 1.252 . S
In65 O66 2.294 . S
In65 O67 2.326 . S
In65 O71 2.266 . S
In65 O72 2.326 . S
In65 O73 2.266 . S
In65 O74 2.326 . S
In65 O76 2.294 . S
In65 O77 2.326 . S
O66 In65 2.294 . S
O66 C75 1.240 . S
O67 In65 2.326 . S
O67 C75 1.252 . S
C68 O71 1.252 . S
C68 O72 1.260 . S
C69 O76 1.240 . S
C69 O77 1.252 . S
C70 O73 1.252 . S
C70 O74 1.260 . S
O71 In65 2.266 . S
O71 C68 1.252 . S
O72 In65 2.326 . S
O72 C68 1.260 . S
O73 In65 2.266 . S
O73 C70 1.252 . S
O74 In65 2.326 . S
O74 C70 1.260 . S
C75 O66 1.240 . S
C75 O67 1.252 . S
O76 In65 2.294 . S
O76 C69 1.240 . S
O77 In65 2.326 . S
O77 C69 1.252 . S
In78 O79 2.294 . S
In78 O80 2.326 . S
In78 O84 2.266 . S
In78 O85 2.326 . S
In78 O86 2.266 . S
In78 O87 2.326 . S
In78 O89 2.294 . S
In78 O90 2.326 . S
O79 In78 2.294 . S
O79 C88 1.240 . S
O80 In78 2.326 . S
O80 C88 1.252 . S
C81 O84 1.252 . S
C81 O85 1.260 . S
C82 O89 1.240 . S
C82 O90 1.252 . S
C83 O86 1.252 . S
C83 O87 1.260 . S
O84 In78 2.266 . S
O84 C81 1.252 . S
O85 In78 2.326 . S
O85 C81 1.260 . S
O86 In78 2.266 . S
O86 C83 1.252 . S
O87 In78 2.326 . S
O87 C83 1.260 . S
C88 O79 1.240 . S
C88 O80 1.252 . S
O89 In78 2.294 . S
O89 C82 1.240 . S
O90 In78 2.326 . S
O90 C82 1.252 . S
In91 O92 2.294 . S
In91 O93 2.326 . S
In91 O97 2.266 . S
In91 O98 2.326 . S
In91 O99 2.266 . S
In91 O100 2.326 . S
In91 O102 2.294 . S
In91 O103 2.326 . S
O92 In91 2.294 . S
O92 C101 1.240 . S
O93 In91 2.326 . S
O93 C101 1.252 . S
C94 O97 1.252 . S
C94 O98 1.260 . S
C95 O102 1.240 . S
C95 O103 1.252 . S
C96 O99 1.252 . S
C96 O100 1.260 . S
O97 In91 2.266 . S
O97 C94 1.252 . S
O98 In91 2.326 . S
O98 C94 1.260 . S
O99 In91 2.266 . S
O99 C96 1.252 . S
O100 In91 2.326 . S
O100 C96 1.260 . S
C101 O92 1.240 . S
C101 O93 1.252 . S
O102 In91 2.294 . S
O102 C95 1.240 . S
O103 In91 2.326 . S
O103 C95 1.252 . S
In104 O105 2.294 . S
In104 O106 2.326 . S
In104 O110 2.266 . S
In104 O111 2.326 . S
In104 O112 2.266 . S
In104 O113 2.326 . S
In104 O115 2.294 . S
In104 O116 2.326 . S
O105 In104 2.294 . S
O105 C114 1.240 . S
O106 In104 2.326 . S
O106 C114 1.252 . S
C107 O110 1.252 . S
C107 O111 1.260 . S
C108 O115 1.240 . S
C108 O116 1.252 . S
C109 O112 1.252 . S
C109 O113 1.260 . S
O110 In104 2.266 . S
O110 C107 1.252 . S
O111 In104 2.326 . S
O111 C107 1.260 . S
O112 In104 2.266 . S
O112 C109 1.252 . S
O113 In104 2.326 . S
O113 C109 1.260 . S
C114 O105 1.240 . S
C114 O106 1.252 . S
O115 In104 2.294 . S
O115 C108 1.240 . S
O116 In104 2.326 . S
O116 C108 1.252 . S
In117 O118 2.294 . S
In117 O119 2.326 . S
In117 O123 2.266 . S
In117 O124 2.326 . S
In117 O125 2.266 . S
In117 O126 2.326 . S
In117 O128 2.294 . S
In117 O129 2.326 . S
O118 In117 2.294 . S
O118 C127 1.240 . S
O119 In117 2.326 . S
O119 C127 1.252 . S
C120 O123 1.252 . S
C120 O124 1.260 . S
C121 O128 1.240 . S
C121 O129 1.252 . S
C122 O125 1.252 . S
C122 O126 1.260 . S
O123 In117 2.266 . S
O123 C120 1.252 . S
O124 In117 2.326 . S
O124 C120 1.260 . S
O125 In117 2.266 . S
O125 C122 1.252 . S
O126 In117 2.326 . S
O126 C122 1.260 . S
C127 O118 1.240 . S
C127 O119 1.252 . S
O128 In117 2.294 . S
O128 C121 1.240 . S
O129 In117 2.326 . S
O129 C121 1.252 . S
In130 O131 2.294 . S
In130 O132 2.326 . S
In130 O136 2.266 . S
In130 O137 2.326 . S
In130 O138 2.266 . S
In130 O139 2.326 . S
In130 O141 2.294 . S
In130 O142 2.326 . S
O131 In130 2.294 . S
O131 C140 1.240 . S
O132 In130 2.326 . S
O132 C140 1.252 . S
C133 O136 1.252 . S
C133 O137 1.260 . S
C134 O141 1.240 . S
C134 O142 1.252 . S
C135 O138 1.252 . S
C135 O139 1.260 . S
O136 In130 2.266 . S
O136 C133 1.252 . S
O137 In130 2.326 . S
O137 C133 1.260 . S
O138 In130 2.266 . S
O138 C135 1.252 . S
O139 In130 2.326 . S
O139 C135 1.260 . S
C140 O131 1.240 . S
C140 O132 1.252 . S
O141 In130 2.294 . S
O141 C134 1.240 . S
O142 In130 2.326 . S
O142 C134 1.252 . S
In143 O144 2.294 . S
In143 O145 2.326 . S
In143 O149 2.266 . S
In143 O150 2.326 . S
In143 O151 2.266 . S
In143 O152 2.326 . S
In143 O154 2.294 . S
In143 O155 2.326 . S
O144 In143 2.294 . S
O144 C153 1.240 . S
O145 In143 2.326 . S
O145 C153 1.252 . S
C146 O149 1.252 . S
C146 O150 1.260 . S
C147 O154 1.240 . S
C147 O155 1.252 . S
C148 O151 1.252 . S
C148 O152 1.260 . S
O149 In143 2.266 . S
O149 C146 1.252 . S
O150 In143 2.326 . S
O150 C146 1.260 . S
O151 In143 2.266 . S
O151 C148 1.252 . S
O152 In143 2.326 . S
O152 C148 1.260 . S
C153 O144 1.240 . S
C153 O145 1.252 . S
O154 In143 2.294 . S
O154 C147 1.240 . S
O155 In143 2.326 . S
O155 C147 1.252 . S
In156 O157 2.294 . S
In156 O158 2.326 . S
In156 O162 2.266 . S
In156 O163 2.326 . S
In156 O164 2.266 . S
In156 O165 2.326 . S
In156 O167 2.294 . S
In156 O168 2.326 . S
O157 In156 2.294 . S
O157 C166 1.240 . S
O158 In156 2.326 . S
O158 C166 1.252 . S
C159 O162 1.252 . S
C159 O163 1.260 . S
C160 O167 1.240 . S
C160 O168 1.252 . S
C161 O164 1.252 . S
C161 O165 1.260 . S
O162 In156 2.266 . S
O162 C159 1.252 . S
O163 In156 2.326 . S
O163 C159 1.260 . S
O164 In156 2.266 . S
O164 C161 1.252 . S
O165 In156 2.326 . S
O165 C161 1.260 . S
C166 O157 1.240 . S
C166 O158 1.252 . S
O167 In156 2.294 . S
O167 C160 1.240 . S
O168 In156 2.326 . S
O168 C160 1.252 . S
In169 O170 2.294 . S
In169 O171 2.326 . S
In169 O175 2.266 . S
In169 O176 2.326 . S
In169 O177 2.266 . S
In169 O178 2.326 . S
In169 O180 2.294 . S
In169 O181 2.326 . S
O170 In169 2.294 . S
O170 C179 1.240 . S
O171 In169 2.326 . S
O171 C179 1.252 . S
C172 O175 1.252 . S
C172 O176 1.260 . S
C173 O180 1.240 . S
C173 O181 1.252 . S
C174 O177 1.252 . S
C174 O178 1.260 . S
O175 In169 2.266 . S
O175 C172 1.252 . S
O176 In169 2.326 . S
O176 C172 1.260 . S
O177 In169 2.266 . S
O177 C174 1.252 . S
O178 In169 2.326 . S
O178 C174 1.260 . S
C179 O170 1.240 . S
C179 O171 1.252 . S
O180 In169 2.294 . S
O180 C173 1.240 . S
O181 In169 2.326 . S
O181 C173 1.252 . S
In182 O183 2.294 . S
In182 O184 2.326 . S
In182 O188 2.266 . S
In182 O189 2.326 . S
In182 O190 2.266 . S
In182 O191 2.326 . S
In182 O193 2.294 . S
In182 O194 2.326 . S
O183 In182 2.294 . S
O183 C192 1.240 . S
O184 In182 2.326 . S
O184 C192 1.252 . S
C185 O188 1.252 . S
C185 O189 1.260 . S
C186 O193 1.240 . S
C186 O194 1.252 . S
C187 O190 1.252 . S
C187 O191 1.260 . S
O188 In182 2.266 . S
O188 C185 1.252 . S
O189 In182 2.326 . S
O189 C185 1.260 . S
O190 In182 2.266 . S
O190 C187 1.252 . S
O191 In182 2.326 . S
O191 C187 1.260 . S
C192 O183 1.240 . S
C192 O184 1.252 . S
O193 In182 2.294 . S
O193 C186 1.240 . S
O194 In182 2.326 . S
O194 C186 1.252 . S
In195 O196 2.294 . S
In195 O197 2.326 . S
In195 O201 2.266 . S
In195 O202 2.326 . S
In195 O203 2.266 . S
In195 O204 2.326 . S
In195 O206 2.294 . S
In195 O207 2.326 . S
O196 In195 2.294 . S
O196 C205 1.240 . S
O197 In195 2.326 . S
O197 C205 1.252 . S
C198 O201 1.252 . S
C198 O202 1.260 . S
C199 O206 1.240 . S
C199 O207 1.252 . S
C200 O203 1.252 . S
C200 O204 1.260 . S
O201 In195 2.266 . S
O201 C198 1.252 . S
O202 In195 2.326 . S
O202 C198 1.260 . S
O203 In195 2.266 . S
O203 C200 1.252 . S
O204 In195 2.326 . S
O204 C200 1.260 . S
C205 O196 1.240 . S
C205 O197 1.252 . S
O206 In195 2.294 . S
O206 C199 1.240 . S
O207 In195 2.326 . S
O207 C199 1.252 . S
In208 O209 2.294 . S
In208 O210 2.326 . S
In208 O214 2.266 . S
In208 O215 2.326 . S
In208 O216 2.266 . S
In208 O217 2.326 . S
In208 O219 2.294 . S
In208 O220 2.326 . S
O209 In208 2.294 . S
O209 C218 1.240 . S
O210 In208 2.326 . S
O210 C218 1.252 . S
C211 O214 1.252 . S
C211 O215 1.260 . S
C212 O219 1.240 . S
C212 O220 1.252 . S
C213 O216 1.252 . S
C213 O217 1.260 . S
O214 In208 2.266 . S
O214 C211 1.252 . S
O215 In208 2.326 . S
O215 C211 1.260 . S
O216 In208 2.266 . S
O216 C213 1.252 . S
O217 In208 2.326 . S
O217 C213 1.260 . S
C218 O209 1.240 . S
C218 O210 1.252 . S
O219 In208 2.294 . S
O219 C212 1.240 . S
O220 In208 2.326 . S
O220 C212 1.252 . S
In221 O222 2.294 . S
In221 O223 2.326 . S
In221 O227 2.266 . S
In221 O228 2.326 . S
In221 O229 2.266 . S
In221 O230 2.326 . S
In221 O232 2.294 . S
In221 O233 2.326 . S
O222 In221 2.294 . S
O222 C231 1.240 . S
O223 In221 2.326 . S
O223 C231 1.252 . S
C224 O227 1.252 . S
C224 O228 1.260 . S
C225 O232 1.240 . S
C225 O233 1.252 . S
C226 O229 1.252 . S
C226 O230 1.260 . S
O227 In221 2.266 . S
O227 C224 1.252 . S
O228 In221 2.326 . S
O228 C224 1.260 . S
O229 In221 2.266 . S
O229 C226 1.252 . S
O230 In221 2.326 . S
O230 C226 1.260 . S
C231 O222 1.240 . S
C231 O223 1.252 . S
O232 In221 2.294 . S
O232 C225 1.240 . S
O233 In221 2.326 . S
O233 C225 1.252 . S
In234 O235 2.294 . S
In234 O236 2.326 . S
In234 O240 2.266 . S
In234 O241 2.326 . S
In234 O242 2.266 . S
In234 O243 2.326 . S
In234 O245 2.294 . S
In234 O246 2.326 . S
O235 In234 2.294 . S
O235 C244 1.240 . S
O236 In234 2.326 . S
O236 C244 1.252 . S
C237 O240 1.252 . S
C237 O241 1.260 . S
C238 O245 1.240 . S
C238 O246 1.252 . S
C239 O242 1.252 . S
C239 O243 1.260 . S
O240 In234 2.266 . S
O240 C237 1.252 . S
O241 In234 2.326 . S
O241 C237 1.260 . S
O242 In234 2.266 . S
O242 C239 1.252 . S
O243 In234 2.326 . S
O243 C239 1.260 . S
C244 O235 1.240 . S
C244 O236 1.252 . S
O245 In234 2.294 . S
O245 C238 1.240 . S
O246 In234 2.326 . S
O246 C238 1.252 . S
In247 O248 2.294 . S
In247 O249 2.326 . S
In247 O253 2.266 . S
In247 O254 2.326 . S
In247 O255 2.266 . S
In247 O256 2.326 . S
In247 O258 2.294 . S
In247 O259 2.326 . S
O248 In247 2.294 . S
O248 C257 1.240 . S
O249 In247 2.326 . S
O249 C257 1.252 . S
C250 O253 1.252 . S
C250 O254 1.260 . S
C251 O258 1.240 . S
C251 O259 1.252 . S
C252 O255 1.252 . S
C252 O256 1.260 . S
O253 In247 2.266 . S
O253 C250 1.252 . S
O254 In247 2.326 . S
O254 C250 1.260 . S
O255 In247 2.266 . S
O255 C252 1.252 . S
O256 In247 2.326 . S
O256 C252 1.260 . S
C257 O248 1.240 . S
C257 O249 1.252 . S
O258 In247 2.294 . S
O258 C251 1.240 . S
O259 In247 2.326 . S
O259 C251 1.252 . S
In260 O261 2.294 . S
In260 O262 2.326 . S
In260 O266 2.266 . S
In260 O267 2.326 . S
In260 O268 2.266 . S
In260 O269 2.326 . S
In260 O271 2.294 . S
In260 O272 2.326 . S
O261 In260 2.294 . S
O261 C270 1.240 . S
O262 In260 2.326 . S
O262 C270 1.252 . S
C263 O266 1.252 . S
C263 O267 1.260 . S
C264 O271 1.240 . S
C264 O272 1.252 . S
C265 O268 1.252 . S
C265 O269 1.260 . S
O266 In260 2.266 . S
O266 C263 1.252 . S
O267 In260 2.326 . S
O267 C263 1.260 . S
O268 In260 2.266 . S
O268 C265 1.252 . S
O269 In260 2.326 . S
O269 C265 1.260 . S
C270 O261 1.240 . S
C270 O262 1.252 . S
O271 In260 2.294 . S
O271 C264 1.240 . S
O272 In260 2.326 . S
O272 C264 1.252 . S
In273 O274 2.294 . S
In273 O275 2.326 . S
In273 O279 2.266 . S
In273 O280 2.326 . S
In273 O281 2.266 . S
In273 O282 2.326 . S
In273 O284 2.294 . S
In273 O285 2.326 . S
O274 In273 2.294 . S
O274 C283 1.240 . S
O275 In273 2.326 . S
O275 C283 1.252 . S
C276 O279 1.252 . S
C276 O280 1.260 . S
C277 O284 1.240 . S
C277 O285 1.252 . S
C278 O281 1.252 . S
C278 O282 1.260 . S
O279 In273 2.266 . S
O279 C276 1.252 . S
O280 In273 2.326 . S
O280 C276 1.260 . S
O281 In273 2.266 . S
O281 C278 1.252 . S
O282 In273 2.326 . S
O282 C278 1.260 . S
C283 O274 1.240 . S
C283 O275 1.252 . S
O284 In273 2.294 . S
O284 C277 1.240 . S
O285 In273 2.326 . S
O285 C277 1.252 . S
In286 O287 2.294 . S
In286 O288 2.326 . S
In286 O292 2.266 . S
In286 O293 2.326 . S
In286 O294 2.266 . S
In286 O295 2.326 . S
In286 O297 2.294 . S
In286 O298 2.326 . S
O287 In286 2.294 . S
O287 C296 1.240 . S
O288 In286 2.326 . S
O288 C296 1.252 . S
C289 O292 1.252 . S
C289 O293 1.260 . S
C290 O297 1.240 . S
C290 O298 1.252 . S
C291 O294 1.252 . S
C291 O295 1.260 . S
O292 In286 2.266 . S
O292 C289 1.252 . S
O293 In286 2.326 . S
O293 C289 1.260 . S
O294 In286 2.266 . S
O294 C291 1.252 . S
O295 In286 2.326 . S
O295 C291 1.260 . S
C296 O287 1.240 . S
C296 O288 1.252 . S
O297 In286 2.294 . S
O297 C290 1.240 . S
O298 In286 2.326 . S
O298 C290 1.252 . S
In299 O300 2.294 . S
In299 O301 2.326 . S
In299 O305 2.266 . S
In299 O306 2.326 . S
In299 O307 2.266 . S
In299 O308 2.326 . S
In299 O310 2.294 . S
In299 O311 2.326 . S
O300 In299 2.294 . S
O300 C309 1.240 . S
O301 In299 2.326 . S
O301 C309 1.252 . S
C302 O305 1.252 . S
C302 O306 1.260 . S
C303 O310 1.240 . S
C303 O311 1.252 . S
C304 O307 1.252 . S
C304 O308 1.260 . S
O305 In299 2.266 . S
O305 C302 1.252 . S
O306 In299 2.326 . S
O306 C302 1.260 . S
O307 In299 2.266 . S
O307 C304 1.252 . S
O308 In299 2.326 . S
O308 C304 1.260 . S
C309 O300 1.240 . S
C309 O301 1.252 . S
O310 In299 2.294 . S
O310 C303 1.240 . S
O311 In299 2.326 . S
O311 C303 1.252 . S
In312 O313 2.294 . S
In312 O314 2.326 . S
In312 O318 2.266 . S
In312 O319 2.326 . S
In312 O320 2.266 . S
In312 O321 2.326 . S
In312 O323 2.294 . S
In312 O324 2.326 . S
O313 In312 2.294 . S
O313 C322 1.240 . S
O314 In312 2.326 . S
O314 C322 1.252 . S
C315 O318 1.252 . S
C315 O319 1.260 . S
C316 O323 1.240 . S
C316 O324 1.252 . S
C317 O320 1.252 . S
C317 O321 1.260 . S
O318 In312 2.266 . S
O318 C315 1.252 . S
O319 In312 2.326 . S
O319 C315 1.260 . S
O320 In312 2.266 . S
O320 C317 1.252 . S
O321 In312 2.326 . S
O321 C317 1.260 . S
C322 O313 1.240 . S
C322 O314 1.252 . S
O323 In312 2.294 . S
O323 C316 1.240 . S
O324 In312 2.326 . S
O324 C316 1.252 . S
In325 O326 2.294 . S
In325 O327 2.326 . S
In325 O331 2.266 . S
In325 O332 2.326 . S
In325 O333 2.266 . S
In325 O334 2.326 . S
In325 O336 2.294 . S
In325 O337 2.326 . S
O326 In325 2.294 . S
O326 C335 1.240 . S
O327 In325 2.326 . S
O327 C335 1.252 . S
C328 O331 1.252 . S
C328 O332 1.260 . S
C329 O336 1.240 . S
C329 O337 1.252 . S
C330 O333 1.252 . S
C330 O334 1.260 . S
O331 In325 2.266 . S
O331 C328 1.252 . S
O332 In325 2.326 . S
O332 C328 1.260 . S
O333 In325 2.266 . S
O333 C330 1.252 . S
O334 In325 2.326 . S
O334 C330 1.260 . S
C335 O326 1.240 . S
C335 O327 1.252 . S
O336 In325 2.294 . S
O336 C329 1.240 . S
O337 In325 2.326 . S
O337 C329 1.252 . S
In338 O339 2.294 . S
In338 O340 2.326 . S
In338 O344 2.266 . S
In338 O345 2.326 . S
In338 O346 2.266 . S
In338 O347 2.326 . S
In338 O349 2.294 . S
In338 O350 2.326 . S
O339 In338 2.294 . S
O339 C348 1.240 . S
O340 In338 2.326 . S
O340 C348 1.252 . S
C341 O344 1.252 . S
C341 O345 1.260 . S
C342 O349 1.240 . S
C342 O350 1.252 . S
C343 O346 1.252 . S
C343 O347 1.260 . S
O344 In338 2.266 . S
O344 C341 1.252 . S
O345 In338 2.326 . S
O345 C341 1.260 . S
O346 In338 2.266 . S
O346 C343 1.252 . S
O347 In338 2.326 . S
O347 C343 1.260 . S
C348 O339 1.240 . S
C348 O340 1.252 . S
O349 In338 2.294 . S
O349 C342 1.240 . S
O350 In338 2.326 . S
O350 C342 1.252 . S
In351 O352 2.294 . S
In351 O353 2.326 . S
In351 O357 2.266 . S
In351 O358 2.326 . S
In351 O359 2.266 . S
In351 O360 2.326 . S
In351 O362 2.294 . S
In351 O363 2.326 . S
O352 In351 2.294 . S
O352 C361 1.240 . S
O353 In351 2.326 . S
O353 C361 1.252 . S
C354 O357 1.252 . S
C354 O358 1.260 . S
C355 O362 1.240 . S
C355 O363 1.252 . S
C356 O359 1.252 . S
C356 O360 1.260 . S
O357 In351 2.266 . S
O357 C354 1.252 . S
O358 In351 2.326 . S
O358 C354 1.260 . S
O359 In351 2.266 . S
O359 C356 1.252 . S
O360 In351 2.326 . S
O360 C356 1.260 . S
C361 O352 1.240 . S
C361 O353 1.252 . S
O362 In351 2.294 . S
O362 C355 1.240 . S
O363 In351 2.326 . S
O363 C355 1.252 . S
In364 O365 2.294 . S
In364 O366 2.326 . S
In364 O370 2.266 . S
In364 O371 2.326 . S
In364 O372 2.266 . S
In364 O373 2.326 . S
In364 O375 2.294 . S
In364 O376 2.326 . S
O365 In364 2.294 . S
O365 C374 1.240 . S
O366 In364 2.326 . S
O366 C374 1.252 . S
C367 O370 1.252 . S
C367 O371 1.260 . S
C368 O375 1.240 . S
C368 O376 1.252 . S
C369 O372 1.252 . S
C369 O373 1.260 . S
O370 In364 2.266 . S
O370 C367 1.252 . S
O371 In364 2.326 . S
O371 C367 1.260 . S
O372 In364 2.266 . S
O372 C369 1.252 . S
O373 In364 2.326 . S
O373 C369 1.260 . S
C374 O365 1.240 . S
C374 O366 1.252 . S
O375 In364 2.294 . S
O375 C368 1.240 . S
O376 In364 2.326 . S
O376 C368 1.252 . S
In377 O378 2.294 . S
In377 O379 2.326 . S
In377 O383 2.266 . S
In377 O384 2.326 . S
In377 O385 2.266 . S
In377 O386 2.326 . S
In377 O388 2.294 . S
In377 O389 2.326 . S
O378 In377 2.294 . S
O378 C387 1.240 . S
O379 In377 2.326 . S
O379 C387 1.252 . S
C380 O383 1.252 . S
C380 O384 1.260 . S
C381 O388 1.240 . S
C381 O389 1.252 . S
C382 O385 1.252 . S
C382 O386 1.260 . S
O383 In377 2.266 . S
O383 C380 1.252 . S
O384 In377 2.326 . S
O384 C380 1.260 . S
O385 In377 2.266 . S
O385 C382 1.252 . S
O386 In377 2.326 . S
O386 C382 1.260 . S
C387 O378 1.240 . S
C387 O379 1.252 . S
O388 In377 2.294 . S
O388 C381 1.240 . S
O389 In377 2.326 . S
O389 C381 1.252 . S
In390 O391 2.294 . S
In390 O392 2.326 . S
In390 O396 2.266 . S
In390 O397 2.326 . S
In390 O398 2.266 . S
In390 O399 2.326 . S
In390 O401 2.294 . S
In390 O402 2.326 . S
O391 In390 2.294 . S
O391 C400 1.240 . S
O392 In390 2.326 . S
O392 C400 1.252 . S
C393 O396 1.252 . S
C393 O397 1.260 . S
C394 O401 1.240 . S
C394 O402 1.252 . S
C395 O398 1.252 . S
C395 O399 1.260 . S
O396 In390 2.266 . S
O396 C393 1.252 . S
O397 In390 2.326 . S
O397 C393 1.260 . S
O398 In390 2.266 . S
O398 C395 1.252 . S
O399 In390 2.326 . S
O399 C395 1.260 . S
C400 O391 1.240 . S
C400 O392 1.252 . S
O401 In390 2.294 . S
O401 C394 1.240 . S
O402 In390 2.326 . S
O402 C394 1.252 . S
In403 O404 2.294 . S
In403 O405 2.326 . S
In403 O409 2.266 . S
In403 O410 2.326 . S
In403 O411 2.266 . S
In403 O412 2.326 . S
In403 O414 2.294 . S
In403 O415 2.326 . S
O404 In403 2.294 . S
O404 C413 1.240 . S
O405 In403 2.326 . S
O405 C413 1.252 . S
C406 O409 1.252 . S
C406 O410 1.260 . S
C407 O414 1.240 . S
C407 O415 1.252 . S
C408 O411 1.252 . S
C408 O412 1.260 . S
O409 In403 2.266 . S
O409 C406 1.252 . S
O410 In403 2.326 . S
O410 C406 1.260 . S
O411 In403 2.266 . S
O411 C408 1.252 . S
O412 In403 2.326 . S
O412 C408 1.260 . S
C413 O404 1.240 . S
C413 O405 1.252 . S
O414 In403 2.294 . S
O414 C407 1.240 . S
O415 In403 2.326 . S
O415 C407 1.252 . S
In416 O417 2.294 . S
In416 O418 2.326 . S
In416 O422 2.266 . S
In416 O423 2.326 . S
In416 O424 2.266 . S
In416 O425 2.326 . S
In416 O427 2.294 . S
In416 O428 2.326 . S
O417 In416 2.294 . S
O417 C426 1.240 . S
O418 In416 2.326 . S
O418 C426 1.252 . S
C419 O422 1.252 . S
C419 O423 1.260 . S
C420 O427 1.240 . S
C420 O428 1.252 . S
C421 O424 1.252 . S
C421 O425 1.260 . S
O422 In416 2.266 . S
O422 C419 1.252 . S
O423 In416 2.326 . S
O423 C419 1.260 . S
O424 In416 2.266 . S
O424 C421 1.252 . S
O425 In416 2.326 . S
O425 C421 1.260 . S
C426 O417 1.240 . S
C426 O418 1.252 . S
O427 In416 2.294 . S
O427 C420 1.240 . S
O428 In416 2.326 . S
O428 C420 1.252 . S
In429 O430 2.294 . S
In429 O431 2.326 . S
In429 O435 2.266 . S
In429 O436 2.326 . S
In429 O437 2.266 . S
In429 O438 2.326 . S
In429 O440 2.294 . S
In429 O441 2.326 . S
O430 In429 2.294 . S
O430 C439 1.240 . S
O431 In429 2.326 . S
O431 C439 1.252 . S
C432 O435 1.252 . S
C432 O436 1.260 . S
C433 O440 1.240 . S
C433 O441 1.252 . S
C434 O437 1.252 . S
C434 O438 1.260 . S
O435 In429 2.266 . S
O435 C432 1.252 . S
O436 In429 2.326 . S
O436 C432 1.260 . S
O437 In429 2.266 . S
O437 C434 1.252 . S
O438 In429 2.326 . S
O438 C434 1.260 . S
C439 O430 1.240 . S
C439 O431 1.252 . S
O440 In429 2.294 . S
O440 C433 1.240 . S
O441 In429 2.326 . S
O441 C433 1.252 . S
In442 O443 2.294 . S
In442 O444 2.326 . S
In442 O448 2.266 . S
In442 O449 2.326 . S
In442 O450 2.266 . S
In442 O451 2.326 . S
In442 O453 2.294 . S
In442 O454 2.326 . S
O443 In442 2.294 . S
O443 C452 1.240 . S
O444 In442 2.326 . S
O444 C452 1.252 . S
C445 O448 1.252 . S
C445 O449 1.260 . S
C446 O453 1.240 . S
C446 O454 1.252 . S
C447 O450 1.252 . S
C447 O451 1.260 . S
O448 In442 2.266 . S
O448 C445 1.252 . S
O449 In442 2.326 . S
O449 C445 1.260 . S
O450 In442 2.266 . S
O450 C447 1.252 . S
O451 In442 2.326 . S
O451 C447 1.260 . S
C452 O443 1.240 . S
C452 O444 1.252 . S
O453 In442 2.294 . S
O453 C446 1.240 . S
O454 In442 2.326 . S
O454 C446 1.252 . S
In455 O456 2.294 . S
In455 O457 2.326 . S
In455 O461 2.266 . S
In455 O462 2.326 . S
In455 O463 2.266 . S
In455 O464 2.326 . S
In455 O466 2.294 . S
In455 O467 2.326 . S
O456 In455 2.294 . S
O456 C465 1.240 . S
O457 In455 2.326 . S
O457 C465 1.252 . S
C458 O461 1.252 . S
C458 O462 1.260 . S
C459 O466 1.240 . S
C459 O467 1.252 . S
C460 O463 1.252 . S
C460 O464 1.260 . S
O461 In455 2.266 . S
O461 C458 1.252 . S
O462 In455 2.326 . S
O462 C458 1.260 . S
O463 In455 2.266 . S
O463 C460 1.252 . S
O464 In455 2.326 . S
O464 C460 1.260 . S
C465 O456 1.240 . S
C465 O457 1.252 . S
O466 In455 2.294 . S
O466 C459 1.240 . S
O467 In455 2.326 . S
O467 C459 1.252 . S
In468 O469 2.294 . S
In468 O470 2.326 . S
In468 O474 2.266 . S
In468 O475 2.326 . S
In468 O476 2.266 . S
In468 O477 2.326 . S
In468 O479 2.294 . S
In468 O480 2.326 . S
O469 In468 2.294 . S
O469 C478 1.240 . S
O470 In468 2.326 . S
O470 C478 1.252 . S
C471 O474 1.252 . S
C471 O475 1.260 . S
C472 O479 1.240 . S
C472 O480 1.252 . S
C473 O476 1.252 . S
C473 O477 1.260 . S
O474 In468 2.266 . S
O474 C471 1.252 . S
O475 In468 2.326 . S
O475 C471 1.260 . S
O476 In468 2.266 . S
O476 C473 1.252 . S
O477 In468 2.326 . S
O477 C473 1.260 . S
C478 O469 1.240 . S
C478 O470 1.252 . S
O479 In468 2.294 . S
O479 C472 1.240 . S
O480 In468 2.326 . S
O480 C472 1.252 . S
In481 O482 2.294 . S
In481 O483 2.326 . S
In481 O487 2.266 . S
In481 O488 2.326 . S
In481 O489 2.266 . S
In481 O490 2.326 . S
In481 O492 2.294 . S
In481 O493 2.326 . S
O482 In481 2.294 . S
O482 C491 1.240 . S
O483 In481 2.326 . S
O483 C491 1.252 . S
C484 O487 1.252 . S
C484 O488 1.260 . S
C485 O492 1.240 . S
C485 O493 1.252 . S
C486 O489 1.252 . S
C486 O490 1.260 . S
O487 In481 2.266 . S
O487 C484 1.252 . S
O488 In481 2.326 . S
O488 C484 1.260 . S
O489 In481 2.266 . S
O489 C486 1.252 . S
O490 In481 2.326 . S
O490 C486 1.260 . S
C491 O482 1.240 . S
C491 O483 1.252 . S
O492 In481 2.294 . S
O492 C485 1.240 . S
O493 In481 2.326 . S
O493 C485 1.252 . S
In494 O495 2.294 . S
In494 O496 2.326 . S
In494 O500 2.266 . S
In494 O501 2.326 . S
In494 O502 2.266 . S
In494 O503 2.326 . S
In494 O505 2.294 . S
In494 O506 2.326 . S
O495 In494 2.294 . S
O495 C504 1.240 . S
O496 In494 2.326 . S
O496 C504 1.252 . S
C497 O500 1.252 . S
C497 O501 1.260 . S
C498 O505 1.240 . S
C498 O506 1.252 . S
C499 O502 1.252 . S
C499 O503 1.260 . S
O500 In494 2.266 . S
O500 C497 1.252 . S
O501 In494 2.326 . S
O501 C497 1.260 . S
O502 In494 2.266 . S
O502 C499 1.252 . S
O503 In494 2.326 . S
O503 C499 1.260 . S
C504 O495 1.240 . S
C504 O496 1.252 . S
O505 In494 2.294 . S
O505 C498 1.240 . S
O506 In494 2.326 . S
O506 C498 1.252 . S
In507 O508 2.294 . S
In507 O509 2.326 . S
In507 O513 2.266 . S
In507 O514 2.326 . S
In507 O515 2.266 . S
In507 O516 2.326 . S
In507 O518 2.294 . S
In507 O519 2.326 . S
O508 In507 2.294 . S
O508 C517 1.240 . S
O509 In507 2.326 . S
O509 C517 1.252 . S
C510 O513 1.252 . S
C510 O514 1.260 . S
C511 O518 1.240 . S
C511 O519 1.252 . S
C512 O515 1.252 . S
C512 O516 1.260 . S
O513 In507 2.266 . S
O513 C510 1.252 . S
O514 In507 2.326 . S
O514 C510 1.260 . S
O515 In507 2.266 . S
O515 C512 1.252 . S
O516 In507 2.326 . S
O516 C512 1.260 . S
C517 O508 1.240 . S
C517 O509 1.252 . S
O518 In507 2.294 . S
O518 C511 1.240 . S
O519 In507 2.326 . S
O519 C511 1.252 . S
In520 O521 2.294 . S
In520 O522 2.326 . S
In520 O526 2.266 . S
In520 O527 2.326 . S
In520 O528 2.266 . S
In520 O529 2.326 . S
In520 O531 2.294 . S
In520 O532 2.326 . S
O521 In520 2.294 . S
O521 C530 1.240 . S
O522 In520 2.326 . S
O522 C530 1.252 . S
C523 O526 1.252 . S
C523 O527 1.260 . S
C524 O531 1.240 . S
C524 O532 1.252 . S
C525 O528 1.252 . S
C525 O529 1.260 . S
O526 In520 2.266 . S
O526 C523 1.252 . S
O527 In520 2.326 . S
O527 C523 1.260 . S
O528 In520 2.266 . S
O528 C525 1.252 . S
O529 In520 2.326 . S
O529 C525 1.260 . S
C530 O521 1.240 . S
C530 O522 1.252 . S
O531 In520 2.294 . S
O531 C524 1.240 . S
O532 In520 2.326 . S
O532 C524 1.252 . S
In533 O534 2.294 . S
In533 O535 2.326 . S
In533 O539 2.266 . S
In533 O540 2.326 . S
In533 O541 2.266 . S
In533 O542 2.326 . S
In533 O544 2.294 . S
In533 O545 2.326 . S
O534 In533 2.294 . S
O534 C543 1.240 . S
O535 In533 2.326 . S
O535 C543 1.252 . S
C536 O539 1.252 . S
C536 O540 1.260 . S
C537 O544 1.240 . S
C537 O545 1.252 . S
C538 O541 1.252 . S
C538 O542 1.260 . S
O539 In533 2.266 . S
O539 C536 1.252 . S
O540 In533 2.326 . S
O540 C536 1.260 . S
O541 In533 2.266 . S
O541 C538 1.252 . S
O542 In533 2.326 . S
O542 C538 1.260 . S
C543 O534 1.240 . S
C543 O535 1.252 . S
O544 In533 2.294 . S
O544 C537 1.240 . S
O545 In533 2.326 . S
O545 C537 1.252 . S
In546 O547 2.294 . S
In546 O548 2.326 . S
In546 O552 2.266 . S
In546 O553 2.326 . S
In546 O554 2.266 . S
In546 O555 2.326 . S
In546 O557 2.294 . S
In546 O558 2.326 . S
O547 In546 2.294 . S
O547 C556 1.240 . S
O548 In546 2.326 . S
O548 C556 1.252 . S
C549 O552 1.252 . S
C549 O553 1.260 . S
C550 O557 1.240 . S
C550 O558 1.252 . S
C551 O554 1.252 . S
C551 O555 1.260 . S
O552 In546 2.266 . S
O552 C549 1.252 . S
O553 In546 2.326 . S
O553 C549 1.260 . S
O554 In546 2.266 . S
O554 C551 1.252 . S
O555 In546 2.326 . S
O555 C551 1.260 . S
C556 O547 1.240 . S
C556 O548 1.252 . S
O557 In546 2.294 . S
O557 C550 1.240 . S
O558 In546 2.326 . S
O558 C550 1.252 . S
In559 O560 2.294 . S
In559 O561 2.326 . S
In559 O565 2.266 . S
In559 O566 2.326 . S
In559 O567 2.266 . S
In559 O568 2.326 . S
In559 O570 2.294 . S
In559 O571 2.326 . S
O560 In559 2.294 . S
O560 C569 1.240 . S
O561 In559 2.326 . S
O561 C569 1.252 . S
C562 O565 1.252 . S
C562 O566 1.260 . S
C563 O570 1.240 . S
C563 O571 1.252 . S
C564 O567 1.252 . S
C564 O568 1.260 . S
O565 In559 2.266 . S
O565 C562 1.252 . S
O566 In559 2.326 . S
O566 C562 1.260 . S
O567 In559 2.266 . S
O567 C564 1.252 . S
O568 In559 2.326 . S
O568 C564 1.260 . S
C569 O560 1.240 . S
C569 O561 1.252 . S
O570 In559 2.294 . S
O570 C563 1.240 . S
O571 In559 2.326 . S
O571 C563 1.252 . S
In572 O573 2.294 . S
In572 O574 2.326 . S
In572 O578 2.266 . S
In572 O579 2.326 . S
In572 O580 2.266 . S
In572 O581 2.326 . S
In572 O583 2.294 . S
In572 O584 2.326 . S
O573 In572 2.294 . S
O573 C582 1.240 . S
O574 In572 2.326 . S
O574 C582 1.252 . S
C575 O578 1.252 . S
C575 O579 1.260 . S
C576 O583 1.240 . S
C576 O584 1.252 . S
C577 O580 1.252 . S
C577 O581 1.260 . S
O578 In572 2.266 . S
O578 C575 1.252 . S
O579 In572 2.326 . S
O579 C575 1.260 . S
O580 In572 2.266 . S
O580 C577 1.252 . S
O581 In572 2.326 . S
O581 C577 1.260 . S
C582 O573 1.240 . S
C582 O574 1.252 . S
O583 In572 2.294 . S
O583 C576 1.240 . S
O584 In572 2.326 . S
O584 C576 1.252 . S
In585 O586 2.294 . S
In585 O587 2.326 . S
In585 O591 2.266 . S
In585 O592 2.326 . S
In585 O593 2.266 . S
In585 O594 2.326 . S
In585 O596 2.294 . S
In585 O597 2.326 . S
O586 In585 2.294 . S
O586 C595 1.240 . S
O587 In585 2.326 . S
O587 C595 1.252 . S
C588 O591 1.252 . S
C588 O592 1.260 . S
C589 O596 1.240 . S
C589 O597 1.252 . S
C590 O593 1.252 . S
C590 O594 1.260 . S
O591 In585 2.266 . S
O591 C588 1.252 . S
O592 In585 2.326 . S
O592 C588 1.260 . S
O593 In585 2.266 . S
O593 C590 1.252 . S
O594 In585 2.326 . S
O594 C590 1.260 . S
C595 O586 1.240 . S
C595 O587 1.252 . S
O596 In585 2.294 . S
O596 C589 1.240 . S
O597 In585 2.326 . S
O597 C589 1.252 . S
In598 O599 2.294 . S
In598 O600 2.326 . S
In598 O604 2.266 . S
In598 O605 2.326 . S
In598 O606 2.266 . S
In598 O607 2.326 . S
In598 O609 2.294 . S
In598 O610 2.326 . S
O599 In598 2.294 . S
O599 C608 1.240 . S
O600 In598 2.326 . S
O600 C608 1.252 . S
C601 O604 1.252 . S
C601 O605 1.260 . S
C602 O609 1.240 . S
C602 O610 1.252 . S
C603 O606 1.252 . S
C603 O607 1.260 . S
O604 In598 2.266 . S
O604 C601 1.252 . S
O605 In598 2.326 . S
O605 C601 1.260 . S
O606 In598 2.266 . S
O606 C603 1.252 . S
O607 In598 2.326 . S
O607 C603 1.260 . S
C608 O599 1.240 . S
C608 O600 1.252 . S
O609 In598 2.294 . S
O609 C602 1.240 . S
O610 In598 2.326 . S
O610 C602 1.252 . S
In611 O612 2.294 . S
In611 O613 2.326 . S
In611 O617 2.266 . S
In611 O618 2.326 . S
In611 O619 2.266 . S
In611 O620 2.326 . S
In611 O622 2.294 . S
In611 O623 2.326 . S
O612 In611 2.294 . S
O612 C621 1.240 . S
O613 In611 2.326 . S
O613 C621 1.252 . S
C614 O617 1.252 . S
C614 O618 1.260 . S
C615 O622 1.240 . S
C615 O623 1.252 . S
C616 O619 1.252 . S
C616 O620 1.260 . S
O617 In611 2.266 . S
O617 C614 1.252 . S
O618 In611 2.326 . S
O618 C614 1.260 . S
O619 In611 2.266 . S
O619 C616 1.252 . S
O620 In611 2.326 . S
O620 C616 1.260 . S
C621 O612 1.240 . S
C621 O613 1.252 . S
O622 In611 2.294 . S
O622 C615 1.240 . S
O623 In611 2.326 . S
O623 C615 1.252 . S
H624 C632 0.950 . S
H625 C637 0.950 . S
H626 C634 0.950 . S
H627 C636 0.950 . S
H628 C638 0.950 . S
H629 C640 0.950 . S
H630 C642 0.950 . S
H631 C643 0.950 . S
C632 H624 0.950 . S
C632 C633 1.386 . S
C632 C634 1.391 . S
C633 C632 1.386 . S
C633 C637 1.393 . S
C634 H626 0.950 . S
C634 C632 1.391 . S
C634 C635 1.400 . S
C635 C634 1.400 . S
C635 C636 1.398 . S
C635 C641 1.491 . S
C636 H627 0.950 . S
C636 C635 1.398 . S
C636 C637 1.391 . S
C637 H625 0.950 . S
C637 C633 1.393 . S
C637 C636 1.391 . S
C638 H628 0.950 . S
C638 C639 1.386 . S
C638 C640 1.391 . S
C639 C638 1.386 . S
C639 C643 1.393 . S
C640 H629 0.950 . S
C640 C638 1.391 . S
C640 C641 1.400 . S
C641 C635 1.491 . S
C641 C640 1.400 . S
C641 C642 1.398 . S
C642 H630 0.950 . S
C642 C641 1.398 . S
C642 C643 1.391 . S
C643 H631 0.950 . S
C643 C639 1.393 . S
C643 C642 1.391 . S
H644 C652 0.950 . S
H645 C657 0.950 . S
H646 C654 0.950 . S
H647 C656 0.950 . S
H648 C658 0.950 . S
H649 C660 0.950 . S
H650 C662 0.950 . S
H651 C663 0.950 . S
C652 H644 0.950 . S
C652 C653 1.386 . S
C652 C654 1.391 . S
C653 C652 1.386 . S
C653 C657 1.393 . S
C654 H646 0.950 . S
C654 C652 1.391 . S
C654 C655 1.400 . S
C655 C654 1.400 . S
C655 C656 1.398 . S
C655 C661 1.491 . S
C656 H647 0.950 . S
C656 C655 1.398 . S
C656 C657 1.391 . S
C657 H645 0.950 . S
C657 C653 1.393 . S
C657 C656 1.391 . S
C658 H648 0.950 . S
C658 C659 1.386 . S
C658 C660 1.391 . S
C659 C658 1.386 . S
C659 C663 1.393 . S
C660 H649 0.950 . S
C660 C658 1.391 . S
C660 C661 1.400 . S
C661 C655 1.491 . S
C661 C660 1.400 . S
C661 C662 1.398 . S
C662 H650 0.950 . S
C662 C661 1.398 . S
C662 C663 1.391 . S
C663 H651 0.950 . S
C663 C659 1.393 . S
C663 C662 1.391 . S
H664 C672 0.950 . S
H665 C677 0.950 . S
H666 C674 0.950 . S
H667 C676 0.950 . S
H668 C678 0.950 . S
H669 C680 0.950 . S
H670 C682 0.950 . S
H671 C683 0.950 . S
C672 H664 0.950 . S
C672 C673 1.386 . S
C672 C674 1.391 . S
C673 C672 1.386 . S
C673 C677 1.393 . S
C674 H666 0.950 . S
C674 C672 1.391 . S
C674 C675 1.400 . S
C675 C674 1.400 . S
C675 C676 1.398 . S
C675 C681 1.491 . S
C676 H667 0.950 . S
C676 C675 1.398 . S
C676 C677 1.391 . S
C677 H665 0.950 . S
C677 C673 1.393 . S
C677 C676 1.391 . S
C678 H668 0.950 . S
C678 C679 1.386 . S
C678 C680 1.391 . S
C679 C678 1.386 . S
C679 C683 1.393 . S
C680 H669 0.950 . S
C680 C678 1.391 . S
C680 C681 1.400 . S
C681 C675 1.491 . S
C681 C680 1.400 . S
C681 C682 1.398 . S
C682 H670 0.950 . S
C682 C681 1.398 . S
C682 C683 1.391 . S
C683 H671 0.950 . S
C683 C679 1.393 . S
C683 C682 1.391 . S
H684 C692 0.950 . S
H685 C697 0.950 . S
H686 C694 0.950 . S
H687 C696 0.950 . S
H688 C698 0.950 . S
H689 C700 0.950 . S
H690 C702 0.950 . S
H691 C703 0.950 . S
C692 H684 0.950 . S
C692 C693 1.386 . S
C692 C694 1.391 . S
C693 C692 1.386 . S
C693 C697 1.393 . S
C694 H686 0.950 . S
C694 C692 1.391 . S
C694 C695 1.400 . S
C695 C694 1.400 . S
C695 C696 1.398 . S
C695 C701 1.491 . S
C696 H687 0.950 . S
C696 C695 1.398 . S
C696 C697 1.391 . S
C697 H685 0.950 . S
C697 C693 1.393 . S
C697 C696 1.391 . S
C698 H688 0.950 . S
C698 C699 1.386 . S
C698 C700 1.391 . S
C699 C698 1.386 . S
C699 C703 1.393 . S
C700 H689 0.950 . S
C700 C698 1.391 . S
C700 C701 1.400 . S
C701 C695 1.491 . S
C701 C700 1.400 . S
C701 C702 1.398 . S
C702 H690 0.950 . S
C702 C701 1.398 . S
C702 C703 1.391 . S
C703 H691 0.950 . S
C703 C699 1.393 . S
C703 C702 1.391 . S
H704 C712 0.950 . S
H705 C717 0.950 . S
H706 C714 0.950 . S
H707 C716 0.950 . S
H708 C718 0.950 . S
H709 C720 0.950 . S
H710 C722 0.950 . S
H711 C723 0.950 . S
C712 H704 0.950 . S
C712 C713 1.386 . S
C712 C714 1.391 . S
C713 C712 1.386 . S
C713 C717 1.393 . S
C714 H706 0.950 . S
C714 C712 1.391 . S
C714 C715 1.400 . S
C715 C714 1.400 . S
C715 C716 1.398 . S
C715 C721 1.491 . S
C716 H707 0.950 . S
C716 C715 1.398 . S
C716 C717 1.391 . S
C717 H705 0.950 . S
C717 C713 1.393 . S
C717 C716 1.391 . S
C718 H708 0.950 . S
C718 C719 1.386 . S
C718 C720 1.391 . S
C719 C718 1.386 . S
C719 C723 1.393 . S
C720 H709 0.950 . S
C720 C718 1.391 . S
C720 C721 1.400 . S
C721 C715 1.491 . S
C721 C720 1.400 . S
C721 C722 1.398 . S
C722 H710 0.950 . S
C722 C721 1.398 . S
C722 C723 1.391 . S
C723 H711 0.950 . S
C723 C719 1.393 . S
C723 C722 1.391 . S
H724 C732 0.950 . S
H725 C737 0.950 . S
H726 C734 0.950 . S
H727 C736 0.950 . S
H728 C738 0.950 . S
H729 C740 0.950 . S
H730 C742 0.950 . S
H731 C743 0.950 . S
C732 H724 0.950 . S
C732 C733 1.386 . S
C732 C734 1.391 . S
C733 C732 1.386 . S
C733 C737 1.393 . S
C734 H726 0.950 . S
C734 C732 1.391 . S
C734 C735 1.400 . S
C735 C734 1.400 . S
C735 C736 1.398 . S
C735 C741 1.491 . S
C736 H727 0.950 . S
C736 C735 1.398 . S
C736 C737 1.391 . S
C737 H725 0.950 . S
C737 C733 1.393 . S
C737 C736 1.391 . S
C738 H728 0.950 . S
C738 C739 1.386 . S
C738 C740 1.391 . S
C739 C738 1.386 . S
C739 C743 1.393 . S
C740 H729 0.950 . S
C740 C738 1.391 . S
C740 C741 1.400 . S
C741 C735 1.491 . S
C741 C740 1.400 . S
C741 C742 1.398 . S
C742 H730 0.950 . S
C742 C741 1.398 . S
C742 C743 1.391 . S
C743 H731 0.950 . S
C743 C739 1.393 . S
C743 C742 1.391 . S
H744 C752 0.950 . S
H745 C757 0.950 . S
H746 C754 0.950 . S
H747 C756 0.950 . S
H748 C758 0.950 . S
H749 C760 0.950 . S
H750 C762 0.950 . S
H751 C763 0.950 . S
C752 H744 0.950 . S
C752 C753 1.386 . S
C752 C754 1.391 . S
C753 C752 1.386 . S
C753 C757 1.393 . S
C754 H746 0.950 . S
C754 C752 1.391 . S
C754 C755 1.400 . S
C755 C754 1.400 . S
C755 C756 1.398 . S
C755 C761 1.491 . S
C756 H747 0.950 . S
C756 C755 1.398 . S
C756 C757 1.391 . S
C757 H745 0.950 . S
C757 C753 1.393 . S
C757 C756 1.391 . S
C758 H748 0.950 . S
C758 C759 1.386 . S
C758 C760 1.391 . S
C759 C758 1.386 . S
C759 C763 1.393 . S
C760 H749 0.950 . S
C760 C758 1.391 . S
C760 C761 1.400 . S
C761 C755 1.491 . S
C761 C760 1.400 . S
C761 C762 1.398 . S
C762 H750 0.950 . S
C762 C761 1.398 . S
C762 C763 1.391 . S
C763 H751 0.950 . S
C763 C759 1.393 . S
C763 C762 1.391 . S
H764 C772 0.950 . S
H765 C777 0.950 . S
H766 C774 0.950 . S
H767 C776 0.950 . S
H768 C778 0.950 . S
H769 C780 0.950 . S
H770 C782 0.950 . S
H771 C783 0.950 . S
C772 H764 0.950 . S
C772 C773 1.386 . S
C772 C774 1.391 . S
C773 C772 1.386 . S
C773 C777 1.393 . S
C774 H766 0.950 . S
C774 C772 1.391 . S
C774 C775 1.400 . S
C775 C774 1.400 . S
C775 C776 1.398 . S
C775 C781 1.491 . S
C776 H767 0.950 . S
C776 C775 1.398 . S
C776 C777 1.391 . S
C777 H765 0.950 . S
C777 C773 1.393 . S
C777 C776 1.391 . S
C778 H768 0.950 . S
C778 C779 1.386 . S
C778 C780 1.391 . S
C779 C778 1.386 . S
C779 C783 1.393 . S
C780 H769 0.950 . S
C780 C778 1.391 . S
C780 C781 1.400 . S
C781 C775 1.491 . S
C781 C780 1.400 . S
C781 C782 1.398 . S
C782 H770 0.950 . S
C782 C781 1.398 . S
C782 C783 1.391 . S
C783 H771 0.950 . S
C783 C779 1.393 . S
C783 C782 1.391 . S
H784 C792 0.950 . S
H785 C797 0.950 . S
H786 C794 0.950 . S
H787 C796 0.950 . S
H788 C798 0.950 . S
H789 C800 0.950 . S
H790 C802 0.950 . S
H791 C803 0.950 . S
C792 H784 0.950 . S
C792 C793 1.386 . S
C792 C794 1.391 . S
C793 C792 1.386 . S
C793 C797 1.393 . S
C794 H786 0.950 . S
C794 C792 1.391 . S
C794 C795 1.400 . S
C795 C794 1.400 . S
C795 C796 1.398 . S
C795 C801 1.491 . S
C796 H787 0.950 . S
C796 C795 1.398 . S
C796 C797 1.391 . S
C797 H785 0.950 . S
C797 C793 1.393 . S
C797 C796 1.391 . S
C798 H788 0.950 . S
C798 C799 1.386 . S
C798 C800 1.391 . S
C799 C798 1.386 . S
C799 C803 1.393 . S
C800 H789 0.950 . S
C800 C798 1.391 . S
C800 C801 1.400 . S
C801 C795 1.491 . S
C801 C800 1.400 . S
C801 C802 1.398 . S
C802 H790 0.950 . S
C802 C801 1.398 . S
C802 C803 1.391 . S
C803 H791 0.950 . S
C803 C799 1.393 . S
C803 C802 1.391 . S
H804 C812 0.950 . S
H805 C817 0.950 . S
H806 C814 0.950 . S
H807 C816 0.950 . S
H808 C818 0.950 . S
H809 C820 0.950 . S
H810 C822 0.950 . S
H811 C823 0.950 . S
C812 H804 0.950 . S
C812 C813 1.386 . S
C812 C814 1.391 . S
C813 C812 1.386 . S
C813 C817 1.393 . S
C814 H806 0.950 . S
C814 C812 1.391 . S
C814 C815 1.400 . S
C815 C814 1.400 . S
C815 C816 1.398 . S
C815 C821 1.491 . S
C816 H807 0.950 . S
C816 C815 1.398 . S
C816 C817 1.391 . S
C817 H805 0.950 . S
C817 C813 1.393 . S
C817 C816 1.391 . S
C818 H808 0.950 . S
C818 C819 1.386 . S
C818 C820 1.391 . S
C819 C818 1.386 . S
C819 C823 1.393 . S
C820 H809 0.950 . S
C820 C818 1.391 . S
C820 C821 1.400 . S
C821 C815 1.491 . S
C821 C820 1.400 . S
C821 C822 1.398 . S
C822 H810 0.950 . S
C822 C821 1.398 . S
C822 C823 1.391 . S
C823 H811 0.950 . S
C823 C819 1.393 . S
C823 C822 1.391 . S
H824 C832 0.950 . S
H825 C837 0.950 . S
H826 C834 0.950 . S
H827 C836 0.950 . S
H828 C838 0.950 . S
H829 C840 0.950 . S
H830 C842 0.950 . S
H831 C843 0.950 . S
C832 H824 0.950 . S
C832 C833 1.386 . S
C832 C834 1.391 . S
C833 C832 1.386 . S
C833 C837 1.393 . S
C834 H826 0.950 . S
C834 C832 1.391 . S
C834 C835 1.400 . S
C835 C834 1.400 . S
C835 C836 1.398 . S
C835 C841 1.491 . S
C836 H827 0.950 . S
C836 C835 1.398 . S
C836 C837 1.391 . S
C837 H825 0.950 . S
C837 C833 1.393 . S
C837 C836 1.391 . S
C838 H828 0.950 . S
C838 C839 1.386 . S
C838 C840 1.391 . S
C839 C838 1.386 . S
C839 C843 1.393 . S
C840 H829 0.950 . S
C840 C838 1.391 . S
C840 C841 1.400 . S
C841 C835 1.491 . S
C841 C840 1.400 . S
C841 C842 1.398 . S
C842 H830 0.950 . S
C842 C841 1.398 . S
C842 C843 1.391 . S
C843 H831 0.950 . S
C843 C839 1.393 . S
C843 C842 1.391 . S
H844 C852 0.950 . S
H845 C857 0.950 . S
H846 C854 0.950 . S
H847 C856 0.950 . S
H848 C858 0.950 . S
H849 C860 0.950 . S
H850 C862 0.950 . S
H851 C863 0.950 . S
C852 H844 0.950 . S
C852 C853 1.386 . S
C852 C854 1.391 . S
C853 C852 1.386 . S
C853 C857 1.393 . S
C854 H846 0.950 . S
C854 C852 1.391 . S
C854 C855 1.400 . S
C855 C854 1.400 . S
C855 C856 1.398 . S
C855 C861 1.491 . S
C856 H847 0.950 . S
C856 C855 1.398 . S
C856 C857 1.391 . S
C857 H845 0.950 . S
C857 C853 1.393 . S
C857 C856 1.391 . S
C858 H848 0.950 . S
C858 C859 1.386 . S
C858 C860 1.391 . S
C859 C858 1.386 . S
C859 C863 1.393 . S
C860 H849 0.950 . S
C860 C858 1.391 . S
C860 C861 1.400 . S
C861 C855 1.491 . S
C861 C860 1.400 . S
C861 C862 1.398 . S
C862 H850 0.950 . S
C862 C861 1.398 . S
C862 C863 1.391 . S
C863 H851 0.950 . S
C863 C859 1.393 . S
C863 C862 1.391 . S
H864 C872 0.950 . S
H865 C877 0.950 . S
H866 C874 0.950 . S
H867 C876 0.950 . S
H868 C878 0.950 . S
H869 C880 0.950 . S
H870 C882 0.950 . S
H871 C883 0.950 . S
C872 H864 0.950 . S
C872 C873 1.386 . S
C872 C874 1.391 . S
C873 C872 1.386 . S
C873 C877 1.393 . S
C874 H866 0.950 . S
C874 C872 1.391 . S
C874 C875 1.400 . S
C875 C874 1.400 . S
C875 C876 1.398 . S
C875 C881 1.491 . S
C876 H867 0.950 . S
C876 C875 1.398 . S
C876 C877 1.391 . S
C877 H865 0.950 . S
C877 C873 1.393 . S
C877 C876 1.391 . S
C878 H868 0.950 . S
C878 C879 1.386 . S
C878 C880 1.391 . S
C879 C878 1.386 . S
C879 C883 1.393 . S
C880 H869 0.950 . S
C880 C878 1.391 . S
C880 C881 1.400 . S
C881 C875 1.491 . S
C881 C880 1.400 . S
C881 C882 1.398 . S
C882 H870 0.950 . S
C882 C881 1.398 . S
C882 C883 1.391 . S
C883 H871 0.950 . S
C883 C879 1.393 . S
C883 C882 1.391 . S
H884 C892 0.950 . S
H885 C897 0.950 . S
H886 C894 0.950 . S
H887 C896 0.950 . S
H888 C898 0.950 . S
H889 C900 0.950 . S
H890 C902 0.950 . S
H891 C903 0.950 . S
C892 H884 0.950 . S
C892 C893 1.386 . S
C892 C894 1.391 . S
C893 C892 1.386 . S
C893 C897 1.393 . S
C894 H886 0.950 . S
C894 C892 1.391 . S
C894 C895 1.400 . S
C895 C894 1.400 . S
C895 C896 1.398 . S
C895 C901 1.491 . S
C896 H887 0.950 . S
C896 C895 1.398 . S
C896 C897 1.391 . S
C897 H885 0.950 . S
C897 C893 1.393 . S
C897 C896 1.391 . S
C898 H888 0.950 . S
C898 C899 1.386 . S
C898 C900 1.391 . S
C899 C898 1.386 . S
C899 C903 1.393 . S
C900 H889 0.950 . S
C900 C898 1.391 . S
C900 C901 1.400 . S
C901 C895 1.491 . S
C901 C900 1.400 . S
C901 C902 1.398 . S
C902 H890 0.950 . S
C902 C901 1.398 . S
C902 C903 1.391 . S
C903 H891 0.950 . S
C903 C899 1.393 . S
C903 C902 1.391 . S
H904 C912 0.950 . S
H905 C917 0.950 . S
H906 C914 0.950 . S
H907 C916 0.950 . S
H908 C918 0.950 . S
H909 C920 0.950 . S
H910 C922 0.950 . S
H911 C923 0.950 . S
C912 H904 0.950 . S
C912 C913 1.386 . S
C912 C914 1.391 . S
C913 C912 1.386 . S
C913 C917 1.393 . S
C914 H906 0.950 . S
C914 C912 1.391 . S
C914 C915 1.400 . S
C915 C914 1.400 . S
C915 C916 1.398 . S
C915 C921 1.491 . S
C916 H907 0.950 . S
C916 C915 1.398 . S
C916 C917 1.391 . S
C917 H905 0.950 . S
C917 C913 1.393 . S
C917 C916 1.391 . S
C918 H908 0.950 . S
C918 C919 1.386 . S
C918 C920 1.391 . S
C919 C918 1.386 . S
C919 C923 1.393 . S
C920 H909 0.950 . S
C920 C918 1.391 . S
C920 C921 1.400 . S
C921 C915 1.491 . S
C921 C920 1.400 . S
C921 C922 1.398 . S
C922 H910 0.950 . S
C922 C921 1.398 . S
C922 C923 1.391 . S
C923 H911 0.950 . S
C923 C919 1.393 . S
C923 C922 1.391 . S
H924 C932 0.950 . S
H925 C937 0.950 . S
H926 C934 0.950 . S
H927 C936 0.950 . S
H928 C938 0.950 . S
H929 C940 0.950 . S
H930 C942 0.950 . S
H931 C943 0.950 . S
C932 H924 0.950 . S
C932 C933 1.386 . S
C932 C934 1.391 . S
C933 C932 1.386 . S
C933 C937 1.393 . S
C934 H926 0.950 . S
C934 C932 1.391 . S
C934 C935 1.400 . S
C935 C934 1.400 . S
C935 C936 1.398 . S
C935 C941 1.491 . S
C936 H927 0.950 . S
C936 C935 1.398 . S
C936 C937 1.391 . S
C937 H925 0.950 . S
C937 C933 1.393 . S
C937 C936 1.391 . S
C938 H928 0.950 . S
C938 C939 1.386 . S
C938 C940 1.391 . S
C939 C938 1.386 . S
C939 C943 1.393 . S
C940 H929 0.950 . S
C940 C938 1.391 . S
C940 C941 1.400 . S
C941 C935 1.491 . S
C941 C940 1.400 . S
C941 C942 1.398 . S
C942 H930 0.950 . S
C942 C941 1.398 . S
C942 C943 1.391 . S
C943 H931 0.950 . S
C943 C939 1.393 . S
C943 C942 1.391 . S
H944 C952 0.950 . S
H945 C957 0.950 . S
H946 C954 0.950 . S
H947 C956 0.950 . S
H948 C958 0.950 . S
H949 C960 0.950 . S
H950 C962 0.950 . S
H951 C963 0.950 . S
C952 H944 0.950 . S
C952 C953 1.386 . S
C952 C954 1.391 . S
C953 C952 1.386 . S
C953 C957 1.393 . S
C954 H946 0.950 . S
C954 C952 1.391 . S
C954 C955 1.400 . S
C955 C954 1.400 . S
C955 C956 1.398 . S
C955 C961 1.491 . S
C956 H947 0.950 . S
C956 C955 1.398 . S
C956 C957 1.391 . S
C957 H945 0.950 . S
C957 C953 1.393 . S
C957 C956 1.391 . S
C958 H948 0.950 . S
C958 C959 1.386 . S
C958 C960 1.391 . S
C959 C958 1.386 . S
C959 C963 1.393 . S
C960 H949 0.950 . S
C960 C958 1.391 . S
C960 C961 1.400 . S
C961 C955 1.491 . S
C961 C960 1.400 . S
C961 C962 1.398 . S
C962 H950 0.950 . S
C962 C961 1.398 . S
C962 C963 1.391 . S
C963 H951 0.950 . S
C963 C959 1.393 . S
C963 C962 1.391 . S
H964 C972 0.950 . S
H965 C977 0.950 . S
H966 C974 0.950 . S
H967 C976 0.950 . S
H968 C978 0.950 . S
H969 C980 0.950 . S
H970 C982 0.950 . S
H971 C983 0.950 . S
C972 H964 0.950 . S
C972 C973 1.386 . S
C972 C974 1.391 . S
C973 C972 1.386 . S
C973 C977 1.393 . S
C974 H966 0.950 . S
C974 C972 1.391 . S
C974 C975 1.400 . S
C975 C974 1.400 . S
C975 C976 1.398 . S
C975 C981 1.491 . S
C976 H967 0.950 . S
C976 C975 1.398 . S
C976 C977 1.391 . S
C977 H965 0.950 . S
C977 C973 1.393 . S
C977 C976 1.391 . S
C978 H968 0.950 . S
C978 C979 1.386 . S
C978 C980 1.391 . S
C979 C978 1.386 . S
C979 C983 1.393 . S
C980 H969 0.950 . S
C980 C978 1.391 . S
C980 C981 1.400 . S
C981 C975 1.491 . S
C981 C980 1.400 . S
C981 C982 1.398 . S
C982 H970 0.950 . S
C982 C981 1.398 . S
C982 C983 1.391 . S
C983 H971 0.950 . S
C983 C979 1.393 . S
C983 C982 1.391 . S
H984 C992 0.950 . S
H985 C997 0.950 . S
H986 C994 0.950 . S
H987 C996 0.950 . S
H988 C998 0.950 . S
H989 C1000 0.950 . S
H990 C1002 0.950 . S
H991 C1003 0.950 . S
C992 H984 0.950 . S
C992 C993 1.386 . S
C992 C994 1.391 . S
C993 C992 1.386 . S
C993 C997 1.393 . S
C994 H986 0.950 . S
C994 C992 1.391 . S
C994 C995 1.400 . S
C995 C994 1.400 . S
C995 C996 1.398 . S
C995 C1001 1.491 . S
C996 H987 0.950 . S
C996 C995 1.398 . S
C996 C997 1.391 . S
C997 H985 0.950 . S
C997 C993 1.393 . S
C997 C996 1.391 . S
C998 H988 0.950 . S
C998 C999 1.386 . S
C998 C1000 1.391 . S
C999 C998 1.386 . S
C999 C1003 1.393 . S
C1000 H989 0.950 . S
C1000 C998 1.391 . S
C1000 C1001 1.400 . S
C1001 C995 1.491 . S
C1001 C1000 1.400 . S
C1001 C1002 1.398 . S
C1002 H990 0.950 . S
C1002 C1001 1.398 . S
C1002 C1003 1.391 . S
C1003 H991 0.950 . S
C1003 C999 1.393 . S
C1003 C1002 1.391 . S
H1004 C1012 0.950 . S
H1005 C1017 0.950 . S
H1006 C1014 0.950 . S
H1007 C1016 0.950 . S
H1008 C1018 0.950 . S
H1009 C1020 0.950 . S
H1010 C1022 0.950 . S
H1011 C1023 0.950 . S
C1012 H1004 0.950 . S
C1012 C1013 1.386 . S
C1012 C1014 1.391 . S
C1013 C1012 1.386 . S
C1013 C1017 1.393 . S
C1014 H1006 0.950 . S
C1014 C1012 1.391 . S
C1014 C1015 1.400 . S
C1015 C1014 1.400 . S
C1015 C1016 1.398 . S
C1015 C1021 1.491 . S
C1016 H1007 0.950 . S
C1016 C1015 1.398 . S
C1016 C1017 1.391 . S
C1017 H1005 0.950 . S
C1017 C1013 1.393 . S
C1017 C1016 1.391 . S
C1018 H1008 0.950 . S
C1018 C1019 1.386 . S
C1018 C1020 1.391 . S
C1019 C1018 1.386 . S
C1019 C1023 1.393 . S
C1020 H1009 0.950 . S
C1020 C1018 1.391 . S
C1020 C1021 1.400 . S
C1021 C1015 1.491 . S
C1021 C1020 1.400 . S
C1021 C1022 1.398 . S
C1022 H1010 0.950 . S
C1022 C1021 1.398 . S
C1022 C1023 1.391 . S
C1023 H1011 0.950 . S
C1023 C1019 1.393 . S
C1023 C1022 1.391 . S
H1024 C1032 0.950 . S
H1025 C1037 0.950 . S
H1026 C1034 0.950 . S
H1027 C1036 0.950 . S
H1028 C1038 0.950 . S
H1029 C1040 0.950 . S
H1030 C1042 0.950 . S
H1031 C1043 0.950 . S
C1032 H1024 0.950 . S
C1032 C1033 1.386 . S
C1032 C1034 1.391 . S
C1033 C1032 1.386 . S
C1033 C1037 1.393 . S
C1034 H1026 0.950 . S
C1034 C1032 1.391 . S
C1034 C1035 1.400 . S
C1035 C1034 1.400 . S
C1035 C1036 1.398 . S
C1035 C1041 1.491 . S
C1036 H1027 0.950 . S
C1036 C1035 1.398 . S
C1036 C1037 1.391 . S
C1037 H1025 0.950 . S
C1037 C1033 1.393 . S
C1037 C1036 1.391 . S
C1038 H1028 0.950 . S
C1038 C1039 1.386 . S
C1038 C1040 1.391 . S
C1039 C1038 1.386 . S
C1039 C1043 1.393 . S
C1040 H1029 0.950 . S
C1040 C1038 1.391 . S
C1040 C1041 1.400 . S
C1041 C1035 1.491 . S
C1041 C1040 1.400 . S
C1041 C1042 1.398 . S
C1042 H1030 0.950 . S
C1042 C1041 1.398 . S
C1042 C1043 1.391 . S
C1043 H1031 0.950 . S
C1043 C1039 1.393 . S
C1043 C1042 1.391 . S
H1044 C1052 0.950 . S
H1045 C1057 0.950 . S
H1046 C1054 0.950 . S
H1047 C1056 0.950 . S
H1048 C1058 0.950 . S
H1049 C1060 0.950 . S
H1050 C1062 0.950 . S
H1051 C1063 0.950 . S
C1052 H1044 0.950 . S
C1052 C1053 1.386 . S
C1052 C1054 1.391 . S
C1053 C1052 1.386 . S
C1053 C1057 1.393 . S
C1054 H1046 0.950 . S
C1054 C1052 1.391 . S
C1054 C1055 1.400 . S
C1055 C1054 1.400 . S
C1055 C1056 1.398 . S
C1055 C1061 1.491 . S
C1056 H1047 0.950 . S
C1056 C1055 1.398 . S
C1056 C1057 1.391 . S
C1057 H1045 0.950 . S
C1057 C1053 1.393 . S
C1057 C1056 1.391 . S
C1058 H1048 0.950 . S
C1058 C1059 1.386 . S
C1058 C1060 1.391 . S
C1059 C1058 1.386 . S
C1059 C1063 1.393 . S
C1060 H1049 0.950 . S
C1060 C1058 1.391 . S
C1060 C1061 1.400 . S
C1061 C1055 1.491 . S
C1061 C1060 1.400 . S
C1061 C1062 1.398 . S
C1062 H1050 0.950 . S
C1062 C1061 1.398 . S
C1062 C1063 1.391 . S
C1063 H1051 0.950 . S
C1063 C1059 1.393 . S
C1063 C1062 1.391 . S
H1064 C1072 0.950 . S
H1065 C1077 0.950 . S
H1066 C1074 0.950 . S
H1067 C1076 0.950 . S
H1068 C1078 0.950 . S
H1069 C1080 0.950 . S
H1070 C1082 0.950 . S
H1071 C1083 0.950 . S
C1072 H1064 0.950 . S
C1072 C1073 1.386 . S
C1072 C1074 1.391 . S
C1073 C1072 1.386 . S
C1073 C1077 1.393 . S
C1074 H1066 0.950 . S
C1074 C1072 1.391 . S
C1074 C1075 1.400 . S
C1075 C1074 1.400 . S
C1075 C1076 1.398 . S
C1075 C1081 1.491 . S
C1076 H1067 0.950 . S
C1076 C1075 1.398 . S
C1076 C1077 1.391 . S
C1077 H1065 0.950 . S
C1077 C1073 1.393 . S
C1077 C1076 1.391 . S
C1078 H1068 0.950 . S
C1078 C1079 1.386 . S
C1078 C1080 1.391 . S
C1079 C1078 1.386 . S
C1079 C1083 1.393 . S
C1080 H1069 0.950 . S
C1080 C1078 1.391 . S
C1080 C1081 1.400 . S
C1081 C1075 1.491 . S
C1081 C1080 1.400 . S
C1081 C1082 1.398 . S
C1082 H1070 0.950 . S
C1082 C1081 1.398 . S
C1082 C1083 1.391 . S
C1083 H1071 0.950 . S
C1083 C1079 1.393 . S
C1083 C1082 1.391 . S
H1084 C1092 0.950 . S
H1085 C1097 0.950 . S
H1086 C1094 0.950 . S
H1087 C1096 0.950 . S
H1088 C1098 0.950 . S
H1089 C1100 0.950 . S
H1090 C1102 0.950 . S
H1091 C1103 0.950 . S
C1092 H1084 0.950 . S
C1092 C1093 1.386 . S
C1092 C1094 1.391 . S
C1093 C1092 1.386 . S
C1093 C1097 1.393 . S
C1094 H1086 0.950 . S
C1094 C1092 1.391 . S
C1094 C1095 1.400 . S
C1095 C1094 1.400 . S
C1095 C1096 1.398 . S
C1095 C1101 1.491 . S
C1096 H1087 0.950 . S
C1096 C1095 1.398 . S
C1096 C1097 1.391 . S
C1097 H1085 0.950 . S
C1097 C1093 1.393 . S
C1097 C1096 1.391 . S
C1098 H1088 0.950 . S
C1098 C1099 1.386 . S
C1098 C1100 1.391 . S
C1099 C1098 1.386 . S
C1099 C1103 1.393 . S
C1100 H1089 0.950 . S
C1100 C1098 1.391 . S
C1100 C1101 1.400 . S
C1101 C1095 1.491 . S
C1101 C1100 1.400 . S
C1101 C1102 1.398 . S
C1102 H1090 0.950 . S
C1102 C1101 1.398 . S
C1102 C1103 1.391 . S
C1103 H1091 0.950 . S
C1103 C1099 1.393 . S
C1103 C1102 1.391 . S
H1104 C1112 0.950 . S
H1105 C1117 0.950 . S
H1106 C1114 0.950 . S
H1107 C1116 0.950 . S
H1108 C1118 0.950 . S
H1109 C1120 0.950 . S
H1110 C1122 0.950 . S
H1111 C1123 0.950 . S
C1112 H1104 0.950 . S
C1112 C1113 1.386 . S
C1112 C1114 1.391 . S
C1113 C1112 1.386 . S
C1113 C1117 1.393 . S
C1114 H1106 0.950 . S
C1114 C1112 1.391 . S
C1114 C1115 1.400 . S
C1115 C1114 1.400 . S
C1115 C1116 1.398 . S
C1115 C1121 1.491 . S
C1116 H1107 0.950 . S
C1116 C1115 1.398 . S
C1116 C1117 1.391 . S
C1117 H1105 0.950 . S
C1117 C1113 1.393 . S
C1117 C1116 1.391 . S
C1118 H1108 0.950 . S
C1118 C1119 1.386 . S
C1118 C1120 1.391 . S
C1119 C1118 1.386 . S
C1119 C1123 1.393 . S
C1120 H1109 0.950 . S
C1120 C1118 1.391 . S
C1120 C1121 1.400 . S
C1121 C1115 1.491 . S
C1121 C1120 1.400 . S
C1121 C1122 1.398 . S
C1122 H1110 0.950 . S
C1122 C1121 1.398 . S
C1122 C1123 1.391 . S
C1123 H1111 0.950 . S
C1123 C1119 1.393 . S
C1123 C1122 1.391 . S
H1124 C1132 0.950 . S
H1125 C1137 0.950 . S
H1126 C1134 0.950 1_554 S
H1127 C1136 0.950 1_554 S
H1128 C1138 0.950 . S
H1129 C1140 0.950 . S
H1130 C1142 0.950 . S
H1131 C1143 0.950 . S
C1132 H1124 0.950 . S
C1132 C1133 1.386 . S
C1132 C1134 1.391 . S
C1133 C1132 1.386 . S
C1133 C1137 1.393 . S
C1134 H1126 0.950 1_556 S
C1134 C1132 1.391 . S
C1134 C1135 1.400 1_556 S
C1135 C1134 1.400 1_554 S
C1135 C1136 1.398 1_554 S
C1135 C1141 1.491 . S
C1136 H1127 0.950 1_556 S
C1136 C1135 1.398 1_556 S
C1136 C1137 1.391 . S
C1137 H1125 0.950 . S
C1137 C1133 1.393 . S
C1137 C1136 1.391 . S
C1138 H1128 0.950 . S
C1138 C1139 1.386 . S
C1138 C1140 1.391 . S
C1139 C1138 1.386 . S
C1139 C1143 1.393 . S
C1140 H1129 0.950 . S
C1140 C1138 1.391 . S
C1140 C1141 1.400 . S
C1141 C1135 1.491 . S
C1141 C1140 1.400 . S
C1141 C1142 1.398 . S
C1142 H1130 0.950 . S
C1142 C1141 1.398 . S
C1142 C1143 1.391 . S
C1143 H1131 0.950 . S
C1143 C1139 1.393 . S
C1143 C1142 1.391 . S
H1144 C1152 0.950 . S
H1145 C1157 0.950 . S
H1146 C1154 0.950 . S
H1147 C1156 0.950 . S
H1148 C1158 0.950 . S
H1149 C1160 0.950 . S
H1150 C1162 0.950 . S
H1151 C1163 0.950 . S
C1152 H1144 0.950 . S
C1152 C1153 1.386 . S
C1152 C1154 1.391 . S
C1153 C1152 1.386 . S
C1153 C1157 1.393 . S
C1154 H1146 0.950 . S
C1154 C1152 1.391 . S
C1154 C1155 1.400 . S
C1155 C1154 1.400 . S
C1155 C1156 1.398 . S
C1155 C1161 1.491 . S
C1156 H1147 0.950 . S
C1156 C1155 1.398 . S
C1156 C1157 1.391 . S
C1157 H1145 0.950 . S
C1157 C1153 1.393 . S
C1157 C1156 1.391 . S
C1158 H1148 0.950 . S
C1158 C1159 1.386 . S
C1158 C1160 1.391 . S
C1159 C1158 1.386 . S
C1159 C1163 1.393 . S
C1160 H1149 0.950 . S
C1160 C1158 1.391 . S
C1160 C1161 1.400 . S
C1161 C1155 1.491 . S
C1161 C1160 1.400 . S
C1161 C1162 1.398 . S
C1162 H1150 0.950 . S
C1162 C1161 1.398 . S
C1162 C1163 1.391 . S
C1163 H1151 0.950 . S
C1163 C1159 1.393 . S
C1163 C1162 1.391 . S
H1164 C1172 0.950 . S
H1165 C1177 0.950 . S
H1166 C1174 0.950 1_554 S
H1167 C1176 0.950 1_554 S
H1168 C1178 0.950 . S
H1169 C1180 0.950 . S
H1170 C1182 0.950 . S
H1171 C1183 0.950 . S
C1172 H1164 0.950 . S
C1172 C1173 1.386 . S
C1172 C1174 1.391 . S
C1173 C1172 1.386 . S
C1173 C1177 1.393 . S
C1174 H1166 0.950 1_556 S
C1174 C1172 1.391 . S
C1174 C1175 1.400 1_556 S
C1175 C1174 1.400 1_554 S
C1175 C1176 1.398 1_554 S
C1175 C1181 1.491 . S
C1176 H1167 0.950 1_556 S
C1176 C1175 1.398 1_556 S
C1176 C1177 1.391 . S
C1177 H1165 0.950 . S
C1177 C1173 1.393 . S
C1177 C1176 1.391 . S
C1178 H1168 0.950 . S
C1178 C1179 1.386 . S
C1178 C1180 1.391 . S
C1179 C1178 1.386 . S
C1179 C1183 1.393 . S
C1180 H1169 0.950 . S
C1180 C1178 1.391 . S
C1180 C1181 1.400 . S
C1181 C1175 1.491 . S
C1181 C1180 1.400 . S
C1181 C1182 1.398 . S
C1182 H1170 0.950 . S
C1182 C1181 1.398 . S
C1182 C1183 1.391 . S
C1183 H1171 0.950 . S
C1183 C1179 1.393 . S
C1183 C1182 1.391 . S
H1184 C1192 0.950 . S
H1185 C1197 0.950 . S
H1186 C1194 0.950 . S
H1187 C1196 0.950 . S
H1188 C1198 0.950 . S
H1189 C1200 0.950 . S
H1190 C1202 0.950 . S
H1191 C1203 0.950 . S
C1192 H1184 0.950 . S
C1192 C1193 1.386 . S
C1192 C1194 1.391 . S
C1193 C1192 1.386 . S
C1193 C1197 1.393 . S
C1194 H1186 0.950 . S
C1194 C1192 1.391 . S
C1194 C1195 1.400 . S
C1195 C1194 1.400 . S
C1195 C1196 1.398 . S
C1195 C1201 1.491 . S
C1196 H1187 0.950 . S
C1196 C1195 1.398 . S
C1196 C1197 1.391 . S
C1197 H1185 0.950 . S
C1197 C1193 1.393 . S
C1197 C1196 1.391 . S
C1198 H1188 0.950 . S
C1198 C1199 1.386 . S
C1198 C1200 1.391 . S
C1199 C1198 1.386 . S
C1199 C1203 1.393 . S
C1200 H1189 0.950 . S
C1200 C1198 1.391 . S
C1200 C1201 1.400 . S
C1201 C1195 1.491 . S
C1201 C1200 1.400 . S
C1201 C1202 1.398 . S
C1202 H1190 0.950 . S
C1202 C1201 1.398 . S
C1202 C1203 1.391 . S
C1203 H1191 0.950 . S
C1203 C1199 1.393 . S
C1203 C1202 1.391 . S
H1204 C1212 0.950 . S
H1205 C1217 0.950 . S
H1206 C1214 0.950 . S
H1207 C1216 0.950 . S
H1208 C1218 0.950 . S
H1209 C1220 0.950 1_556 S
H1210 C1222 0.950 1_556 S
H1211 C1223 0.950 . S
C1212 H1204 0.950 . S
C1212 C1213 1.386 . S
C1212 C1214 1.391 . S
C1213 C1212 1.386 . S
C1213 C1217 1.393 . S
C1214 H1206 0.950 . S
C1214 C1212 1.391 . S
C1214 C1215 1.400 . S
C1215 C1214 1.400 . S
C1215 C1216 1.398 . S
C1215 C1221 1.491 . S
C1216 H1207 0.950 . S
C1216 C1215 1.398 . S
C1216 C1217 1.391 . S
C1217 H1205 0.950 . S
C1217 C1213 1.393 . S
C1217 C1216 1.391 . S
C1218 H1208 0.950 . S
C1218 C1219 1.386 . S
C1218 C1220 1.391 . S
C1219 C1218 1.386 . S
C1219 C1223 1.393 . S
C1220 H1209 0.950 1_554 S
C1220 C1218 1.391 . S
C1220 C1221 1.400 1_554 S
C1221 C1215 1.491 . S
C1221 C1220 1.400 1_556 S
C1221 C1222 1.398 1_556 S
C1222 H1210 0.950 1_554 S
C1222 C1221 1.398 1_554 S
C1222 C1223 1.391 . S
C1223 H1211 0.950 . S
C1223 C1219 1.393 . S
C1223 C1222 1.391 . S
H1224 C1232 0.950 . S
H1225 C1237 0.950 . S
H1226 C1234 0.950 . S
H1227 C1236 0.950 . S
H1228 C1238 0.950 . S
H1229 C1240 0.950 . S
H1230 C1242 0.950 . S
H1231 C1243 0.950 . S
C1232 H1224 0.950 . S
C1232 C1233 1.386 . S
C1232 C1234 1.391 . S
C1233 C1232 1.386 . S
C1233 C1237 1.393 . S
C1234 H1226 0.950 . S
C1234 C1232 1.391 . S
C1234 C1235 1.400 . S
C1235 C1234 1.400 . S
C1235 C1236 1.398 . S
C1235 C1241 1.491 . S
C1236 H1227 0.950 . S
C1236 C1235 1.398 . S
C1236 C1237 1.391 . S
C1237 H1225 0.950 . S
C1237 C1233 1.393 . S
C1237 C1236 1.391 . S
C1238 H1228 0.950 . S
C1238 C1239 1.386 . S
C1238 C1240 1.391 . S
C1239 C1238 1.386 . S
C1239 C1243 1.393 . S
C1240 H1229 0.950 . S
C1240 C1238 1.391 . S
C1240 C1241 1.400 . S
C1241 C1235 1.491 . S
C1241 C1240 1.400 . S
C1241 C1242 1.398 . S
C1242 H1230 0.950 . S
C1242 C1241 1.398 . S
C1242 C1243 1.391 . S
C1243 H1231 0.950 . S
C1243 C1239 1.393 . S
C1243 C1242 1.391 . S
H1244 C1252 0.950 . S
H1245 C1257 0.950 . S
H1246 C1254 0.950 . S
H1247 C1256 0.950 . S
H1248 C1258 0.950 . S
H1249 C1260 0.950 1_556 S
H1250 C1262 0.950 1_556 S
H1251 C1263 0.950 . S
C1252 H1244 0.950 . S
C1252 C1253 1.386 . S
C1252 C1254 1.391 . S
C1253 C1252 1.386 . S
C1253 C1257 1.393 . S
C1254 H1246 0.950 . S
C1254 C1252 1.391 . S
C1254 C1255 1.400 . S
C1255 C1254 1.400 . S
C1255 C1256 1.398 . S
C1255 C1261 1.491 . S
C1256 H1247 0.950 . S
C1256 C1255 1.398 . S
C1256 C1257 1.391 . S
C1257 H1245 0.950 . S
C1257 C1253 1.393 . S
C1257 C1256 1.391 . S
C1258 H1248 0.950 . S
C1258 C1259 1.386 . S
C1258 C1260 1.391 . S
C1259 C1258 1.386 . S
C1259 C1263 1.393 . S
C1260 H1249 0.950 1_554 S
C1260 C1258 1.391 . S
C1260 C1261 1.400 1_554 S
C1261 C1255 1.491 . S
C1261 C1260 1.400 1_556 S
C1261 C1262 1.398 1_556 S
C1262 H1250 0.950 1_554 S
C1262 C1261 1.398 1_554 S
C1262 C1263 1.391 . S
C1263 H1251 0.950 . S
C1263 C1259 1.393 . S
C1263 C1262 1.391 . S
H1264 C1272 0.950 . S
H1265 C1277 0.950 . S
H1266 C1274 0.950 . S
H1267 C1276 0.950 . S
H1268 C1278 0.950 . S
H1269 C1280 0.950 . S
H1270 C1282 0.950 . S
H1271 C1283 0.950 . S
C1272 H1264 0.950 . S
C1272 C1273 1.386 . S
C1272 C1274 1.391 . S
C1273 C1272 1.386 . S
C1273 C1277 1.393 . S
C1274 H1266 0.950 . S
C1274 C1272 1.391 . S
C1274 C1275 1.400 . S
C1275 C1274 1.400 . S
C1275 C1276 1.398 . S
C1275 C1281 1.491 . S
C1276 H1267 0.950 . S
C1276 C1275 1.398 . S
C1276 C1277 1.391 . S
C1277 H1265 0.950 . S
C1277 C1273 1.393 . S
C1277 C1276 1.391 . S
C1278 H1268 0.950 . S
C1278 C1279 1.386 . S
C1278 C1280 1.391 . S
C1279 C1278 1.386 . S
C1279 C1283 1.393 . S
C1280 H1269 0.950 . S
C1280 C1278 1.391 . S
C1280 C1281 1.400 . S
C1281 C1275 1.491 . S
C1281 C1280 1.400 . S
C1281 C1282 1.398 . S
C1282 H1270 0.950 . S
C1282 C1281 1.398 . S
C1282 C1283 1.391 . S
C1283 H1271 0.950 . S
C1283 C1279 1.393 . S
C1283 C1282 1.391 . S
H1284 C1292 0.950 . S
H1285 C1297 0.950 . S
H1286 C1294 0.950 1_545 S
H1287 C1296 0.950 1_545 S
H1288 C1298 0.950 . S
H1289 C1300 0.950 . S
H1290 C1302 0.950 . S
H1291 C1303 0.950 . S
C1292 H1284 0.950 . S
C1292 C1293 1.386 . S
C1292 C1294 1.391 . S
C1293 C1292 1.386 . S
C1293 C1297 1.393 . S
C1294 H1286 0.950 1_565 S
C1294 C1292 1.391 . S
C1294 C1295 1.400 1_565 S
C1295 C1294 1.400 1_545 S
C1295 C1296 1.398 1_545 S
C1295 C1301 1.491 . S
C1296 H1287 0.950 1_565 S
C1296 C1295 1.398 1_565 S
C1296 C1297 1.391 . S
C1297 H1285 0.950 . S
C1297 C1293 1.393 . S
C1297 C1296 1.391 . S
C1298 H1288 0.950 . S
C1298 C1299 1.386 . S
C1298 C1300 1.391 . S
C1299 C1298 1.386 . S
C1299 C1303 1.393 . S
C1300 H1289 0.950 . S
C1300 C1298 1.391 . S
C1300 C1301 1.400 . S
C1301 C1295 1.491 . S
C1301 C1300 1.400 . S
C1301 C1302 1.398 . S
C1302 H1290 0.950 . S
C1302 C1301 1.398 . S
C1302 C1303 1.391 . S
C1303 H1291 0.950 . S
C1303 C1299 1.393 . S
C1303 C1302 1.391 . S
H1304 C1312 0.950 . S
H1305 C1317 0.950 . S
H1306 C1314 0.950 . S
H1307 C1316 0.950 . S
H1308 C1318 0.950 . S
H1309 C1320 0.950 . S
H1310 C1322 0.950 . S
H1311 C1323 0.950 . S
C1312 H1304 0.950 . S
C1312 C1313 1.386 . S
C1312 C1314 1.391 . S
C1313 C1312 1.386 . S
C1313 C1317 1.393 . S
C1314 H1306 0.950 . S
C1314 C1312 1.391 . S
C1314 C1315 1.400 . S
C1315 C1314 1.400 . S
C1315 C1316 1.398 . S
C1315 C1321 1.491 . S
C1316 H1307 0.950 . S
C1316 C1315 1.398 . S
C1316 C1317 1.391 . S
C1317 H1305 0.950 . S
C1317 C1313 1.393 . S
C1317 C1316 1.391 . S
C1318 H1308 0.950 . S
C1318 C1319 1.386 . S
C1318 C1320 1.391 . S
C1319 C1318 1.386 . S
C1319 C1323 1.393 . S
C1320 H1309 0.950 . S
C1320 C1318 1.391 . S
C1320 C1321 1.400 . S
C1321 C1315 1.491 . S
C1321 C1320 1.400 . S
C1321 C1322 1.398 . S
C1322 H1310 0.950 . S
C1322 C1321 1.398 . S
C1322 C1323 1.391 . S
C1323 H1311 0.950 . S
C1323 C1319 1.393 . S
C1323 C1322 1.391 . S
H1324 C1332 0.950 . S
H1325 C1337 0.950 . S
H1326 C1334 0.950 1_565 S
H1327 C1336 0.950 1_565 S
H1328 C1338 0.950 . S
H1329 C1340 0.950 . S
H1330 C1342 0.950 . S
H1331 C1343 0.950 . S
C1332 H1324 0.950 . S
C1332 C1333 1.386 . S
C1332 C1334 1.391 . S
C1333 C1332 1.386 . S
C1333 C1337 1.393 . S
C1334 H1326 0.950 1_545 S
C1334 C1332 1.391 . S
C1334 C1335 1.400 1_545 S
C1335 C1334 1.400 1_565 S
C1335 C1336 1.398 1_565 S
C1335 C1341 1.491 . S
C1336 H1327 0.950 1_545 S
C1336 C1335 1.398 1_545 S
C1336 C1337 1.391 . S
C1337 H1325 0.950 . S
C1337 C1333 1.393 . S
C1337 C1336 1.391 . S
C1338 H1328 0.950 . S
C1338 C1339 1.386 . S
C1338 C1340 1.391 . S
C1339 C1338 1.386 . S
C1339 C1343 1.393 . S
C1340 H1329 0.950 . S
C1340 C1338 1.391 . S
C1340 C1341 1.400 . S
C1341 C1335 1.491 . S
C1341 C1340 1.400 . S
C1341 C1342 1.398 . S
C1342 H1330 0.950 . S
C1342 C1341 1.398 . S
C1342 C1343 1.391 . S
C1343 H1331 0.950 . S
C1343 C1339 1.393 . S
C1343 C1342 1.391 . S
H1344 C1352 0.950 . S
H1345 C1357 0.950 . S
H1346 C1354 0.950 . S
H1347 C1356 0.950 . S
H1348 C1358 0.950 . S
H1349 C1360 0.950 . S
H1350 C1362 0.950 . S
H1351 C1363 0.950 . S
C1352 H1344 0.950 . S
C1352 C1353 1.386 . S
C1352 C1354 1.391 . S
C1353 C1352 1.386 . S
C1353 C1357 1.393 . S
C1354 H1346 0.950 . S
C1354 C1352 1.391 . S
C1354 C1355 1.400 . S
C1355 C1354 1.400 . S
C1355 C1356 1.398 . S
C1355 C1361 1.491 . S
C1356 H1347 0.950 . S
C1356 C1355 1.398 . S
C1356 C1357 1.391 . S
C1357 H1345 0.950 . S
C1357 C1353 1.393 . S
C1357 C1356 1.391 . S
C1358 H1348 0.950 . S
C1358 C1359 1.386 . S
C1358 C1360 1.391 . S
C1359 C1358 1.386 . S
C1359 C1363 1.393 . S
C1360 H1349 0.950 . S
C1360 C1358 1.391 . S
C1360 C1361 1.400 . S
C1361 C1355 1.491 . S
C1361 C1360 1.400 . S
C1361 C1362 1.398 . S
C1362 H1350 0.950 . S
C1362 C1361 1.398 . S
C1362 C1363 1.391 . S
C1363 H1351 0.950 . S
C1363 C1359 1.393 . S
C1363 C1362 1.391 . S
H1364 C1372 0.950 . S
H1365 C1377 0.950 . S
H1366 C1374 0.950 1_545 S
H1367 C1376 0.950 1_545 S
H1368 C1378 0.950 . S
H1369 C1380 0.950 . S
H1370 C1382 0.950 . S
H1371 C1383 0.950 . S
C1372 H1364 0.950 . S
C1372 C1373 1.386 . S
C1372 C1374 1.391 . S
C1373 C1372 1.386 . S
C1373 C1377 1.393 . S
C1374 H1366 0.950 1_565 S
C1374 C1372 1.391 . S
C1374 C1375 1.400 1_565 S
C1375 C1374 1.400 1_545 S
C1375 C1376 1.398 1_545 S
C1375 C1381 1.491 . S
C1376 H1367 0.950 1_565 S
C1376 C1375 1.398 1_565 S
C1376 C1377 1.391 . S
C1377 H1365 0.950 . S
C1377 C1373 1.393 . S
C1377 C1376 1.391 . S
C1378 H1368 0.950 . S
C1378 C1379 1.386 . S
C1378 C1380 1.391 . S
C1379 C1378 1.386 . S
C1379 C1383 1.393 . S
C1380 H1369 0.950 . S
C1380 C1378 1.391 . S
C1380 C1381 1.400 . S
C1381 C1375 1.491 . S
C1381 C1380 1.400 . S
C1381 C1382 1.398 . S
C1382 H1370 0.950 . S
C1382 C1381 1.398 . S
C1382 C1383 1.391 . S
C1383 H1371 0.950 . S
C1383 C1379 1.393 . S
C1383 C1382 1.391 . S
H1384 C1392 0.950 . S
H1385 C1397 0.950 . S
H1386 C1394 0.950 . S
H1387 C1396 0.950 . S
H1388 C1398 0.950 . S
H1389 C1400 0.950 . S
H1390 C1402 0.950 . S
H1391 C1403 0.950 . S
C1392 H1384 0.950 . S
C1392 C1393 1.386 . S
C1392 C1394 1.391 . S
C1393 C1392 1.386 . S
C1393 C1397 1.393 . S
C1394 H1386 0.950 . S
C1394 C1392 1.391 . S
C1394 C1395 1.400 . S
C1395 C1394 1.400 . S
C1395 C1396 1.398 . S
C1395 C1401 1.491 . S
C1396 H1387 0.950 . S
C1396 C1395 1.398 . S
C1396 C1397 1.391 . S
C1397 H1385 0.950 . S
C1397 C1393 1.393 . S
C1397 C1396 1.391 . S
C1398 H1388 0.950 . S
C1398 C1399 1.386 . S
C1398 C1400 1.391 . S
C1399 C1398 1.386 . S
C1399 C1403 1.393 . S
C1400 H1389 0.950 . S
C1400 C1398 1.391 . S
C1400 C1401 1.400 . S
C1401 C1395 1.491 . S
C1401 C1400 1.400 . S
C1401 C1402 1.398 . S
C1402 H1390 0.950 . S
C1402 C1401 1.398 . S
C1402 C1403 1.391 . S
C1403 H1391 0.950 . S
C1403 C1399 1.393 . S
C1403 C1402 1.391 . S
H1404 C1412 0.950 . S
H1405 C1417 0.950 . S
H1406 C1414 0.950 . S
H1407 C1416 0.950 . S
H1408 C1418 0.950 . S
H1409 C1420 0.950 1_565 S
H1410 C1422 0.950 1_565 S
H1411 C1423 0.950 . S
C1412 H1404 0.950 . S
C1412 C1413 1.386 . S
C1412 C1414 1.391 . S
C1413 C1412 1.386 . S
C1413 C1417 1.393 . S
C1414 H1406 0.950 . S
C1414 C1412 1.391 . S
C1414 C1415 1.400 . S
C1415 C1414 1.400 . S
C1415 C1416 1.398 . S
C1415 C1421 1.491 . S
C1416 H1407 0.950 . S
C1416 C1415 1.398 . S
C1416 C1417 1.391 . S
C1417 H1405 0.950 . S
C1417 C1413 1.393 . S
C1417 C1416 1.391 . S
C1418 H1408 0.950 . S
C1418 C1419 1.386 . S
C1418 C1420 1.391 . S
C1419 C1418 1.386 . S
C1419 C1423 1.393 . S
C1420 H1409 0.950 1_545 S
C1420 C1418 1.391 . S
C1420 C1421 1.400 1_545 S
C1421 C1415 1.491 . S
C1421 C1420 1.400 1_565 S
C1421 C1422 1.398 1_565 S
C1422 H1410 0.950 1_545 S
C1422 C1421 1.398 1_545 S
C1422 C1423 1.391 . S
C1423 H1411 0.950 . S
C1423 C1419 1.393 . S
C1423 C1422 1.391 . S
H1424 C1432 0.950 . S
H1425 C1437 0.950 . S
H1426 C1434 0.950 . S
H1427 C1436 0.950 . S
H1428 C1438 0.950 . S
H1429 C1440 0.950 . S
H1430 C1442 0.950 . S
H1431 C1443 0.950 . S
C1432 H1424 0.950 . S
C1432 C1433 1.386 . S
C1432 C1434 1.391 . S
C1433 C1432 1.386 . S
C1433 C1437 1.393 . S
C1434 H1426 0.950 . S
C1434 C1432 1.391 . S
C1434 C1435 1.400 . S
C1435 C1434 1.400 . S
C1435 C1436 1.398 . S
C1435 C1441 1.491 . S
C1436 H1427 0.950 . S
C1436 C1435 1.398 . S
C1436 C1437 1.391 . S
C1437 H1425 0.950 . S
C1437 C1433 1.393 . S
C1437 C1436 1.391 . S
C1438 H1428 0.950 . S
C1438 C1439 1.386 . S
C1438 C1440 1.391 . S
C1439 C1438 1.386 . S
C1439 C1443 1.393 . S
C1440 H1429 0.950 . S
C1440 C1438 1.391 . S
C1440 C1441 1.400 . S
C1441 C1435 1.491 . S
C1441 C1440 1.400 . S
C1441 C1442 1.398 . S
C1442 H1430 0.950 . S
C1442 C1441 1.398 . S
C1442 C1443 1.391 . S
C1443 H1431 0.950 . S
C1443 C1439 1.393 . S
C1443 C1442 1.391 . S
H1444 C1452 0.950 . S
H1445 C1457 0.950 . S
H1446 C1454 0.950 . S
H1447 C1456 0.950 . S
H1448 C1458 0.950 . S
H1449 C1460 0.950 . S
H1450 C1462 0.950 . S
H1451 C1463 0.950 . S
C1452 H1444 0.950 . S
C1452 C1453 1.386 . S
C1452 C1454 1.391 . S
C1453 C1452 1.386 . S
C1453 C1457 1.393 . S
C1454 H1446 0.950 . S
C1454 C1452 1.391 . S
C1454 C1455 1.400 . S
C1455 C1454 1.400 . S
C1455 C1456 1.398 . S
C1455 C1461 1.491 . S
C1456 H1447 0.950 . S
C1456 C1455 1.398 . S
C1456 C1457 1.391 . S
C1457 H1445 0.950 . S
C1457 C1453 1.393 . S
C1457 C1456 1.391 . S
C1458 H1448 0.950 . S
C1458 C1459 1.386 . S
C1458 C1460 1.391 . S
C1459 C1458 1.386 . S
C1459 C1463 1.393 . S
C1460 H1449 0.950 . S
C1460 C1458 1.391 . S
C1460 C1461 1.400 . S
C1461 C1455 1.491 . S
C1461 C1460 1.400 . S
C1461 C1462 1.398 . S
C1462 H1450 0.950 . S
C1462 C1461 1.398 . S
C1462 C1463 1.391 . S
C1463 H1451 0.950 . S
C1463 C1459 1.393 . S
C1463 C1462 1.391 . S
H1464 C1472 0.950 . S
H1465 C1477 0.950 . S
H1466 C1474 0.950 . S
H1467 C1476 0.950 . S
H1468 C1478 0.950 . S
H1469 C1480 0.950 1_455 S
H1470 C1482 0.950 1_455 S
H1471 C1483 0.950 . S
C1472 H1464 0.950 . S
C1472 C1473 1.386 . S
C1472 C1474 1.391 . S
C1473 C1472 1.386 . S
C1473 C1477 1.393 . S
C1474 H1466 0.950 . S
C1474 C1472 1.391 . S
C1474 C1475 1.400 . S
C1475 C1474 1.400 . S
C1475 C1476 1.398 . S
C1475 C1481 1.491 . S
C1476 H1467 0.950 . S
C1476 C1475 1.398 . S
C1476 C1477 1.391 . S
C1477 H1465 0.950 . S
C1477 C1473 1.393 . S
C1477 C1476 1.391 . S
C1478 H1468 0.950 . S
C1478 C1479 1.386 . S
C1478 C1480 1.391 . S
C1479 C1478 1.386 . S
C1479 C1483 1.393 . S
C1480 H1469 0.950 1_655 S
C1480 C1478 1.391 . S
C1480 C1481 1.400 1_655 S
C1481 C1475 1.491 . S
C1481 C1480 1.400 1_455 S
C1481 C1482 1.398 1_455 S
C1482 H1470 0.950 1_655 S
C1482 C1481 1.398 1_655 S
C1482 C1483 1.391 . S
C1483 H1471 0.950 . S
C1483 C1479 1.393 . S
C1483 C1482 1.391 . S
H1484 C1492 0.950 . S
H1485 C1497 0.950 . S
H1486 C1494 0.950 . S
H1487 C1496 0.950 . S
H1488 C1498 0.950 . S
H1489 C1500 0.950 . S
H1490 C1502 0.950 . S
H1491 C1503 0.950 . S
C1492 H1484 0.950 . S
C1492 C1493 1.386 . S
C1492 C1494 1.391 . S
C1493 C1492 1.386 . S
C1493 C1497 1.393 . S
C1494 H1486 0.950 . S
C1494 C1492 1.391 . S
C1494 C1495 1.400 . S
C1495 C1494 1.400 . S
C1495 C1496 1.398 . S
C1495 C1501 1.491 . S
C1496 H1487 0.950 . S
C1496 C1495 1.398 . S
C1496 C1497 1.391 . S
C1497 H1485 0.950 . S
C1497 C1493 1.393 . S
C1497 C1496 1.391 . S
C1498 H1488 0.950 . S
C1498 C1499 1.386 . S
C1498 C1500 1.391 . S
C1499 C1498 1.386 . S
C1499 C1503 1.393 . S
C1500 H1489 0.950 . S
C1500 C1498 1.391 . S
C1500 C1501 1.400 . S
C1501 C1495 1.491 . S
C1501 C1500 1.400 . S
C1501 C1502 1.398 . S
C1502 H1490 0.950 . S
C1502 C1501 1.398 . S
C1502 C1503 1.391 . S
C1503 H1491 0.950 . S
C1503 C1499 1.393 . S
C1503 C1502 1.391 . S
H1504 C1512 0.950 . S
H1505 C1517 0.950 . S
H1506 C1514 0.950 1_655 S
H1507 C1516 0.950 1_655 S
H1508 C1518 0.950 . S
H1509 C1520 0.950 . S
H1510 C1522 0.950 . S
H1511 C1523 0.950 . S
C1512 H1504 0.950 . S
C1512 C1513 1.386 . S
C1512 C1514 1.391 . S
C1513 C1512 1.386 . S
C1513 C1517 1.393 . S
C1514 H1506 0.950 1_455 S
C1514 C1512 1.391 . S
C1514 C1515 1.400 1_455 S
C1515 C1514 1.400 1_655 S
C1515 C1516 1.398 1_655 S
C1515 C1521 1.491 . S
C1516 H1507 0.950 1_455 S
C1516 C1515 1.398 1_455 S
C1516 C1517 1.391 . S
C1517 H1505 0.950 . S
C1517 C1513 1.393 . S
C1517 C1516 1.391 . S
C1518 H1508 0.950 . S
C1518 C1519 1.386 . S
C1518 C1520 1.391 . S
C1519 C1518 1.386 . S
C1519 C1523 1.393 . S
C1520 H1509 0.950 . S
C1520 C1518 1.391 . S
C1520 C1521 1.400 . S
C1521 C1515 1.491 . S
C1521 C1520 1.400 . S
C1521 C1522 1.398 . S
C1522 H1510 0.950 . S
C1522 C1521 1.398 . S
C1522 C1523 1.391 . S
C1523 H1511 0.950 . S
C1523 C1519 1.393 . S
C1523 C1522 1.391 . S
H1524 C1532 0.950 . S
H1525 C1537 0.950 . S
H1526 C1534 0.950 . S
H1527 C1536 0.950 . S
H1528 C1538 0.950 . S
H1529 C1540 0.950 . S
H1530 C1542 0.950 . S
H1531 C1543 0.950 . S
C1532 H1524 0.950 . S
C1532 C1533 1.386 . S
C1532 C1534 1.391 . S
C1533 C1532 1.386 . S
C1533 C1537 1.393 . S
C1534 H1526 0.950 . S
C1534 C1532 1.391 . S
C1534 C1535 1.400 . S
C1535 C1534 1.400 . S
C1535 C1536 1.398 . S
C1535 C1541 1.491 . S
C1536 H1527 0.950 . S
C1536 C1535 1.398 . S
C1536 C1537 1.391 . S
C1537 H1525 0.950 . S
C1537 C1533 1.393 . S
C1537 C1536 1.391 . S
C1538 H1528 0.950 . S
C1538 C1539 1.386 . S
C1538 C1540 1.391 . S
C1539 C1538 1.386 . S
C1539 C1543 1.393 . S
C1540 H1529 0.950 . S
C1540 C1538 1.391 . S
C1540 C1541 1.400 . S
C1541 C1535 1.491 . S
C1541 C1540 1.400 . S
C1541 C1542 1.398 . S
C1542 H1530 0.950 . S
C1542 C1541 1.398 . S
C1542 C1543 1.391 . S
C1543 H1531 0.950 . S
C1543 C1539 1.393 . S
C1543 C1542 1.391 . S
H1544 C1552 0.950 . S
H1545 C1557 0.950 . S
H1546 C1554 0.950 1_455 S
H1547 C1556 0.950 1_455 S
H1548 C1558 0.950 . S
H1549 C1560 0.950 . S
H1550 C1562 0.950 . S
H1551 C1563 0.950 . S
C1552 H1544 0.950 . S
C1552 C1553 1.386 . S
C1552 C1554 1.391 . S
C1553 C1552 1.386 . S
C1553 C1557 1.393 . S
C1554 H1546 0.950 1_655 S
C1554 C1552 1.391 . S
C1554 C1555 1.400 1_655 S
C1555 C1554 1.400 1_455 S
C1555 C1556 1.398 1_455 S
C1555 C1561 1.491 . S
C1556 H1547 0.950 1_655 S
C1556 C1555 1.398 1_655 S
C1556 C1557 1.391 . S
C1557 H1545 0.950 . S
C1557 C1553 1.393 . S
C1557 C1556 1.391 . S
C1558 H1548 0.950 . S
C1558 C1559 1.386 . S
C1558 C1560 1.391 . S
C1559 C1558 1.386 . S
C1559 C1563 1.393 . S
C1560 H1549 0.950 . S
C1560 C1558 1.391 . S
C1560 C1561 1.400 . S
C1561 C1555 1.491 . S
C1561 C1560 1.400 . S
C1561 C1562 1.398 . S
C1562 H1550 0.950 . S
C1562 C1561 1.398 . S
C1562 C1563 1.391 . S
C1563 H1551 0.950 . S
C1563 C1559 1.393 . S
C1563 C1562 1.391 . S
H1564 C1572 0.950 . S
H1565 C1577 0.950 . S
H1566 C1574 0.950 1_655 S
H1567 C1576 0.950 1_655 S
H1568 C1578 0.950 . S
H1569 C1580 0.950 . S
H1570 C1582 0.950 . S
H1571 C1583 0.950 . S
C1572 H1564 0.950 . S
C1572 C1573 1.386 . S
C1572 C1574 1.391 . S
C1573 C1572 1.386 . S
C1573 C1577 1.393 . S
C1574 H1566 0.950 1_455 S
C1574 C1572 1.391 . S
C1574 C1575 1.400 1_455 S
C1575 C1574 1.400 1_655 S
C1575 C1576 1.398 1_655 S
C1575 C1581 1.491 . S
C1576 H1567 0.950 1_455 S
C1576 C1575 1.398 1_455 S
C1576 C1577 1.391 . S
C1577 H1565 0.950 . S
C1577 C1573 1.393 . S
C1577 C1576 1.391 . S
C1578 H1568 0.950 . S
C1578 C1579 1.386 . S
C1578 C1580 1.391 . S
C1579 C1578 1.386 . S
C1579 C1583 1.393 . S
C1580 H1569 0.950 . S
C1580 C1578 1.391 . S
C1580 C1581 1.400 . S
C1581 C1575 1.491 . S
C1581 C1580 1.400 . S
C1581 C1582 1.398 . S
C1582 H1570 0.950 . S
C1582 C1581 1.398 . S
C1582 C1583 1.391 . S
C1583 H1571 0.950 . S
C1583 C1579 1.393 . S
C1583 C1582 1.391 . S
H1584 C1592 0.950 . S
H1585 C1597 0.950 . S
H1586 C1594 0.950 . S
H1587 C1596 0.950 . S
H1588 C1598 0.950 . S
H1589 C1600 0.950 . S
H1590 C1602 0.950 . S
H1591 C1603 0.950 . S
C1592 H1584 0.950 . S
C1592 C1593 1.386 . S
C1592 C1594 1.391 . S
C1593 C1592 1.386 . S
C1593 C1597 1.393 . S
C1594 H1586 0.950 . S
C1594 C1592 1.391 . S
C1594 C1595 1.400 . S
C1595 C1594 1.400 . S
C1595 C1596 1.398 . S
C1595 C1601 1.491 1_655 S
C1596 H1587 0.950 . S
C1596 C1595 1.398 . S
C1596 C1597 1.391 . S
C1597 H1585 0.950 . S
C1597 C1593 1.393 . S
C1597 C1596 1.391 . S
C1598 H1588 0.950 . S
C1598 C1599 1.386 . S
C1598 C1600 1.391 . S
C1599 C1598 1.386 . S
C1599 C1603 1.393 . S
C1600 H1589 0.950 . S
C1600 C1598 1.391 . S
C1600 C1601 1.400 . S
C1601 C1595 1.491 1_455 S
C1601 C1600 1.400 . S
C1601 C1602 1.398 . S
C1602 H1590 0.950 . S
C1602 C1601 1.398 . S
C1602 C1603 1.391 . S
C1603 H1591 0.950 . S
C1603 C1599 1.393 . S
C1603 C1602 1.391 . S
H1604 C1612 0.950 . S
H1605 C1617 0.950 . S
H1606 C1614 0.950 . S
H1607 C1616 0.950 . S
H1608 C1618 0.950 . S
H1609 C1620 0.950 . S
H1610 C1622 0.950 . S
H1611 C1623 0.950 . S
C1612 H1604 0.950 . S
C1612 C1613 1.386 . S
C1612 C1614 1.391 . S
C1613 C1612 1.386 . S
C1613 C1617 1.393 . S
C1614 H1606 0.950 . S
C1614 C1612 1.391 . S
C1614 C1615 1.400 . S
C1615 C1614 1.400 . S
C1615 C1616 1.398 . S
C1615 C1621 1.491 . S
C1616 H1607 0.950 . S
C1616 C1615 1.398 . S
C1616 C1617 1.391 . S
C1617 H1605 0.950 . S
C1617 C1613 1.393 . S
C1617 C1616 1.391 . S
C1618 H1608 0.950 . S
C1618 C1619 1.386 . S
C1618 C1620 1.391 . S
C1619 C1618 1.386 . S
C1619 C1623 1.393 . S
C1620 H1609 0.950 . S
C1620 C1618 1.391 . S
C1620 C1621 1.400 . S
C1621 C1615 1.491 . S
C1621 C1620 1.400 . S
C1621 C1622 1.398 . S
C1622 H1610 0.950 . S
C1622 C1621 1.398 . S
C1622 C1623 1.391 . S
C1623 H1611 0.950 . S
C1623 C1619 1.393 . S
C1623 C1622 1.391 . S
H1624 C1632 0.950 . S
H1625 C1637 0.950 . S
H1626 C1634 0.950 . S
H1627 C1636 0.950 . S
H1628 C1638 0.950 . S
H1629 C1640 0.950 . S
H1630 C1642 0.950 . S
H1631 C1643 0.950 . S
C1632 H1624 0.950 . S
C1632 C1633 1.386 . S
C1632 C1634 1.391 . S
C1633 C1632 1.386 . S
C1633 C1637 1.393 . S
C1634 H1626 0.950 . S
C1634 C1632 1.391 . S
C1634 C1635 1.400 . S
C1635 C1634 1.400 . S
C1635 C1636 1.398 . S
C1635 C1641 1.491 1_455 S
C1636 H1627 0.950 . S
C1636 C1635 1.398 . S
C1636 C1637 1.391 . S
C1637 H1625 0.950 . S
C1637 C1633 1.393 . S
C1637 C1636 1.391 . S
C1638 H1628 0.950 . S
C1638 C1639 1.386 . S
C1638 C1640 1.391 . S
C1639 C1638 1.386 . S
C1639 C1643 1.393 . S
C1640 H1629 0.950 . S
C1640 C1638 1.391 . S
C1640 C1641 1.400 . S
C1641 C1635 1.491 1_655 S
C1641 C1640 1.400 . S
C1641 C1642 1.398 . S
C1642 H1630 0.950 . S
C1642 C1641 1.398 . S
C1642 C1643 1.391 . S
C1643 H1631 0.950 . S
C1643 C1639 1.393 . S
C1643 C1642 1.391 . S
H1644 C1652 0.950 . S
H1645 C1657 0.950 . S
H1646 C1654 0.950 . S
H1647 C1656 0.950 . S
H1648 C1658 0.950 . S
H1649 C1660 0.950 . S
H1650 C1662 0.950 . S
H1651 C1663 0.950 . S
C1652 H1644 0.950 . S
C1652 C1653 1.386 . S
C1652 C1654 1.391 . S
C1653 C1652 1.386 . S
C1653 C1657 1.393 . S
C1654 H1646 0.950 . S
C1654 C1652 1.391 . S
C1654 C1655 1.400 . S
C1655 C1654 1.400 . S
C1655 C1656 1.398 . S
C1655 C1661 1.491 . S
C1656 H1647 0.950 . S
C1656 C1655 1.398 . S
C1656 C1657 1.391 . S
C1657 H1645 0.950 . S
C1657 C1653 1.393 . S
C1657 C1656 1.391 . S
C1658 H1648 0.950 . S
C1658 C1659 1.386 . S
C1658 C1660 1.391 . S
C1659 C1658 1.386 . S
C1659 C1663 1.393 . S
C1660 H1649 0.950 . S
C1660 C1658 1.391 . S
C1660 C1661 1.400 . S
C1661 C1655 1.491 . S
C1661 C1660 1.400 . S
C1661 C1662 1.398 . S
C1662 H1650 0.950 . S
C1662 C1661 1.398 . S
C1662 C1663 1.391 . S
C1663 H1651 0.950 . S
C1663 C1659 1.393 . S
C1663 C1662 1.391 . S
H1664 C1672 0.950 . S
H1665 C1677 0.950 . S
H1666 C1674 0.950 . S
H1667 C1676 0.950 . S
H1668 C1678 0.950 . S
H1669 C1680 0.950 . S
H1670 C1682 0.950 . S
H1671 C1683 0.950 . S
C1672 H1664 0.950 . S
C1672 C1673 1.386 . S
C1672 C1674 1.391 . S
C1673 C1672 1.386 . S
C1673 C1677 1.393 . S
C1674 H1666 0.950 . S
C1674 C1672 1.391 . S
C1674 C1675 1.400 . S
C1675 C1674 1.400 . S
C1675 C1676 1.398 . S
C1675 C1681 1.491 1_655 S
C1676 H1667 0.950 . S
C1676 C1675 1.398 . S
C1676 C1677 1.391 . S
C1677 H1665 0.950 . S
C1677 C1673 1.393 . S
C1677 C1676 1.391 . S
C1678 H1668 0.950 . S
C1678 C1679 1.386 . S
C1678 C1680 1.391 . S
C1679 C1678 1.386 . S
C1679 C1683 1.393 . S
C1680 H1669 0.950 . S
C1680 C1678 1.391 . S
C1680 C1681 1.400 . S
C1681 C1675 1.491 1_455 S
C1681 C1680 1.400 . S
C1681 C1682 1.398 . S
C1682 H1670 0.950 . S
C1682 C1681 1.398 . S
C1682 C1683 1.391 . S
C1683 H1671 0.950 . S
C1683 C1679 1.393 . S
C1683 C1682 1.391 . S
H1684 C1692 0.950 . S
H1685 C1697 0.950 . S
H1686 C1694 0.950 . S
H1687 C1696 0.950 . S
H1688 C1698 0.950 . S
H1689 C1700 0.950 . S
H1690 C1702 0.950 . S
H1691 C1703 0.950 . S
C1692 H1684 0.950 . S
C1692 C1693 1.386 . S
C1692 C1694 1.391 . S
C1693 C1692 1.386 . S
C1693 C1697 1.393 . S
C1694 H1686 0.950 . S
C1694 C1692 1.391 . S
C1694 C1695 1.400 . S
C1695 C1694 1.400 . S
C1695 C1696 1.398 . S
C1695 C1701 1.491 . S
C1696 H1687 0.950 . S
C1696 C1695 1.398 . S
C1696 C1697 1.391 . S
C1697 H1685 0.950 . S
C1697 C1693 1.393 . S
C1697 C1696 1.391 . S
C1698 H1688 0.950 . S
C1698 C1699 1.386 . S
C1698 C1700 1.391 . S
C1699 C1698 1.386 . S
C1699 C1703 1.393 . S
C1700 H1689 0.950 . S
C1700 C1698 1.391 . S
C1700 C1701 1.400 . S
C1701 C1695 1.491 . S
C1701 C1700 1.400 . S
C1701 C1702 1.398 . S
C1702 H1690 0.950 . S
C1702 C1701 1.398 . S
C1702 C1703 1.391 . S
C1703 H1691 0.950 . S
C1703 C1699 1.393 . S
C1703 C1702 1.391 . S
H1704 C1712 0.950 . S
H1705 C1717 0.950 . S
H1706 C1714 0.950 . S
H1707 C1716 0.950 . S
H1708 C1718 0.950 . S
H1709 C1720 0.950 . S
H1710 C1722 0.950 . S
H1711 C1723 0.950 . S
C1712 H1704 0.950 . S
C1712 C1713 1.386 . S
C1712 C1714 1.391 . S
C1713 C1712 1.386 . S
C1713 C1717 1.393 . S
C1714 H1706 0.950 . S
C1714 C1712 1.391 . S
C1714 C1715 1.400 . S
C1715 C1714 1.400 . S
C1715 C1716 1.398 . S
C1715 C1721 1.491 1_655 S
C1716 H1707 0.950 . S
C1716 C1715 1.398 . S
C1716 C1717 1.391 . S
C1717 H1705 0.950 . S
C1717 C1713 1.393 . S
C1717 C1716 1.391 . S
C1718 H1708 0.950 . S
C1718 C1719 1.386 . S
C1718 C1720 1.391 . S
C1719 C1718 1.386 . S
C1719 C1723 1.393 . S
C1720 H1709 0.950 . S
C1720 C1718 1.391 . S
C1720 C1721 1.400 . S
C1721 C1715 1.491 1_455 S
C1721 C1720 1.400 . S
C1721 C1722 1.398 . S
C1722 H1710 0.950 . S
C1722 C1721 1.398 . S
C1722 C1723 1.391 . S
C1723 H1711 0.950 . S
C1723 C1719 1.393 . S
C1723 C1722 1.391 . S
H1724 C1732 0.950 . S
H1725 C1737 0.950 . S
H1726 C1734 0.950 . S
H1727 C1736 0.950 . S
H1728 C1738 0.950 . S
H1729 C1740 0.950 . S
H1730 C1742 0.950 . S
H1731 C1743 0.950 . S
C1732 H1724 0.950 . S
C1732 C1733 1.386 . S
C1732 C1734 1.391 . S
C1733 C1732 1.386 . S
C1733 C1737 1.393 . S
C1734 H1726 0.950 . S
C1734 C1732 1.391 . S
C1734 C1735 1.400 . S
C1735 C1734 1.400 . S
C1735 C1736 1.398 . S
C1735 C1741 1.491 . S
C1736 H1727 0.950 . S
C1736 C1735 1.398 . S
C1736 C1737 1.391 . S
C1737 H1725 0.950 . S
C1737 C1733 1.393 . S
C1737 C1736 1.391 . S
C1738 H1728 0.950 . S
C1738 C1739 1.386 . S
C1738 C1740 1.391 . S
C1739 C1738 1.386 . S
C1739 C1743 1.393 . S
C1740 H1729 0.950 . S
C1740 C1738 1.391 . S
C1740 C1741 1.400 . S
C1741 C1735 1.491 . S
C1741 C1740 1.400 . S
C1741 C1742 1.398 . S
C1742 H1730 0.950 . S
C1742 C1741 1.398 . S
C1742 C1743 1.391 . S
C1743 H1731 0.950 . S
C1743 C1739 1.393 . S
C1743 C1742 1.391 . S
H1744 C1752 0.950 . S
H1745 C1757 0.950 . S
H1746 C1754 0.950 . S
H1747 C1756 0.950 . S
H1748 C1758 0.950 . S
H1749 C1760 0.950 . S
H1750 C1762 0.950 . S
H1751 C1763 0.950 . S
C1752 H1744 0.950 . S
C1752 C1753 1.386 . S
C1752 C1754 1.391 . S
C1753 C1752 1.386 . S
C1753 C1757 1.393 . S
C1754 H1746 0.950 . S
C1754 C1752 1.391 . S
C1754 C1755 1.400 . S
C1755 C1754 1.400 . S
C1755 C1756 1.398 . S
C1755 C1761 1.491 1_545 S
C1756 H1747 0.950 . S
C1756 C1755 1.398 . S
C1756 C1757 1.391 . S
C1757 H1745 0.950 . S
C1757 C1753 1.393 . S
C1757 C1756 1.391 . S
C1758 H1748 0.950 . S
C1758 C1759 1.386 . S
C1758 C1760 1.391 . S
C1759 C1758 1.386 . S
C1759 C1763 1.393 . S
C1760 H1749 0.950 . S
C1760 C1758 1.391 . S
C1760 C1761 1.400 . S
C1761 C1755 1.491 1_565 S
C1761 C1760 1.400 . S
C1761 C1762 1.398 . S
C1762 H1750 0.950 . S
C1762 C1761 1.398 . S
C1762 C1763 1.391 . S
C1763 H1751 0.950 . S
C1763 C1759 1.393 . S
C1763 C1762 1.391 . S
H1764 C1772 0.950 . S
H1765 C1777 0.950 . S
H1766 C1774 0.950 . S
H1767 C1776 0.950 . S
H1768 C1778 0.950 . S
H1769 C1780 0.950 . S
H1770 C1782 0.950 . S
H1771 C1783 0.950 . S
C1772 H1764 0.950 . S
C1772 C1773 1.386 . S
C1772 C1774 1.391 . S
C1773 C1772 1.386 . S
C1773 C1777 1.393 . S
C1774 H1766 0.950 . S
C1774 C1772 1.391 . S
C1774 C1775 1.400 . S
C1775 C1774 1.400 . S
C1775 C1776 1.398 . S
C1775 C1781 1.491 . S
C1776 H1767 0.950 . S
C1776 C1775 1.398 . S
C1776 C1777 1.391 . S
C1777 H1765 0.950 . S
C1777 C1773 1.393 . S
C1777 C1776 1.391 . S
C1778 H1768 0.950 . S
C1778 C1779 1.386 . S
C1778 C1780 1.391 . S
C1779 C1778 1.386 . S
C1779 C1783 1.393 . S
C1780 H1769 0.950 . S
C1780 C1778 1.391 . S
C1780 C1781 1.400 . S
C1781 C1775 1.491 . S
C1781 C1780 1.400 . S
C1781 C1782 1.398 . S
C1782 H1770 0.950 . S
C1782 C1781 1.398 . S
C1782 C1783 1.391 . S
C1783 H1771 0.950 . S
C1783 C1779 1.393 . S
C1783 C1782 1.391 . S
H1784 C1792 0.950 . S
H1785 C1797 0.950 . S
H1786 C1794 0.950 . S
H1787 C1796 0.950 . S
H1788 C1798 0.950 . S
H1789 C1800 0.950 . S
H1790 C1802 0.950 . S
H1791 C1803 0.950 . S
C1792 H1784 0.950 . S
C1792 C1793 1.386 . S
C1792 C1794 1.391 . S
C1793 C1792 1.386 . S
C1793 C1797 1.393 . S
C1794 H1786 0.950 . S
C1794 C1792 1.391 . S
C1794 C1795 1.400 . S
C1795 C1794 1.400 . S
C1795 C1796 1.398 . S
C1795 C1801 1.491 1_545 S
C1796 H1787 0.950 . S
C1796 C1795 1.398 . S
C1796 C1797 1.391 . S
C1797 H1785 0.950 . S
C1797 C1793 1.393 . S
C1797 C1796 1.391 . S
C1798 H1788 0.950 . S
C1798 C1799 1.386 . S
C1798 C1800 1.391 . S
C1799 C1798 1.386 . S
C1799 C1803 1.393 . S
C1800 H1789 0.950 . S
C1800 C1798 1.391 . S
C1800 C1801 1.400 . S
C1801 C1795 1.491 1_565 S
C1801 C1800 1.400 . S
C1801 C1802 1.398 . S
C1802 H1790 0.950 . S
C1802 C1801 1.398 . S
C1802 C1803 1.391 . S
C1803 H1791 0.950 . S
C1803 C1799 1.393 . S
C1803 C1802 1.391 . S
H1804 C1812 0.950 . S
H1805 C1817 0.950 . S
H1806 C1814 0.950 . S
H1807 C1816 0.950 . S
H1808 C1818 0.950 . S
H1809 C1820 0.950 . S
H1810 C1822 0.950 . S
H1811 C1823 0.950 . S
C1812 H1804 0.950 . S
C1812 C1813 1.386 . S
C1812 C1814 1.391 . S
C1813 C1812 1.386 . S
C1813 C1817 1.393 . S
C1814 H1806 0.950 . S
C1814 C1812 1.391 . S
C1814 C1815 1.400 . S
C1815 C1814 1.400 . S
C1815 C1816 1.398 . S
C1815 C1821 1.491 . S
C1816 H1807 0.950 . S
C1816 C1815 1.398 . S
C1816 C1817 1.391 . S
C1817 H1805 0.950 . S
C1817 C1813 1.393 . S
C1817 C1816 1.391 . S
C1818 H1808 0.950 . S
C1818 C1819 1.386 . S
C1818 C1820 1.391 . S
C1819 C1818 1.386 . S
C1819 C1823 1.393 . S
C1820 H1809 0.950 . S
C1820 C1818 1.391 . S
C1820 C1821 1.400 . S
C1821 C1815 1.491 . S
C1821 C1820 1.400 . S
C1821 C1822 1.398 . S
C1822 H1810 0.950 . S
C1822 C1821 1.398 . S
C1822 C1823 1.391 . S
C1823 H1811 0.950 . S
C1823 C1819 1.393 . S
C1823 C1822 1.391 . S
H1824 C1832 0.950 . S
H1825 C1837 0.950 . S
H1826 C1834 0.950 . S
H1827 C1836 0.950 . S
H1828 C1838 0.950 . S
H1829 C1840 0.950 . S
H1830 C1842 0.950 . S
H1831 C1843 0.950 . S
C1832 H1824 0.950 . S
C1832 C1833 1.386 . S
C1832 C1834 1.391 . S
C1833 C1832 1.386 . S
C1833 C1837 1.393 . S
C1834 H1826 0.950 . S
C1834 C1832 1.391 . S
C1834 C1835 1.400 . S
C1835 C1834 1.400 . S
C1835 C1836 1.398 . S
C1835 C1841 1.491 1_545 S
C1836 H1827 0.950 . S
C1836 C1835 1.398 . S
C1836 C1837 1.391 . S
C1837 H1825 0.950 . S
C1837 C1833 1.393 . S
C1837 C1836 1.391 . S
C1838 H1828 0.950 . S
C1838 C1839 1.386 . S
C1838 C1840 1.391 . S
C1839 C1838 1.386 . S
C1839 C1843 1.393 . S
C1840 H1829 0.950 . S
C1840 C1838 1.391 . S
C1840 C1841 1.400 . S
C1841 C1835 1.491 1_565 S
C1841 C1840 1.400 . S
C1841 C1842 1.398 . S
C1842 H1830 0.950 . S
C1842 C1841 1.398 . S
C1842 C1843 1.391 . S
C1843 H1831 0.950 . S
C1843 C1839 1.393 . S
C1843 C1842 1.391 . S
H1844 C1852 0.950 . S
H1845 C1857 0.950 . S
H1846 C1854 0.950 . S
H1847 C1856 0.950 . S
H1848 C1858 0.950 . S
H1849 C1860 0.950 . S
H1850 C1862 0.950 . S
H1851 C1863 0.950 . S
C1852 H1844 0.950 . S
C1852 C1853 1.386 . S
C1852 C1854 1.391 . S
C1853 C1852 1.386 . S
C1853 C1857 1.393 . S
C1854 H1846 0.950 . S
C1854 C1852 1.391 . S
C1854 C1855 1.400 . S
C1855 C1854 1.400 . S
C1855 C1856 1.398 . S
C1855 C1861 1.491 . S
C1856 H1847 0.950 . S
C1856 C1855 1.398 . S
C1856 C1857 1.391 . S
C1857 H1845 0.950 . S
C1857 C1853 1.393 . S
C1857 C1856 1.391 . S
C1858 H1848 0.950 . S
C1858 C1859 1.386 . S
C1858 C1860 1.391 . S
C1859 C1858 1.386 . S
C1859 C1863 1.393 . S
C1860 H1849 0.950 . S
C1860 C1858 1.391 . S
C1860 C1861 1.400 . S
C1861 C1855 1.491 . S
C1861 C1860 1.400 . S
C1861 C1862 1.398 . S
C1862 H1850 0.950 . S
C1862 C1861 1.398 . S
C1862 C1863 1.391 . S
C1863 H1851 0.950 . S
C1863 C1859 1.393 . S
C1863 C1862 1.391 . S
H1864 C1872 0.950 . S
H1865 C1877 0.950 . S
H1866 C1874 0.950 . S
H1867 C1876 0.950 . S
H1868 C1878 0.950 . S
H1869 C1880 0.950 . S
H1870 C1882 0.950 . S
H1871 C1883 0.950 . S
C1872 H1864 0.950 . S
C1872 C1873 1.386 . S
C1872 C1874 1.391 . S
C1873 C1872 1.386 . S
C1873 C1877 1.393 . S
C1874 H1866 0.950 . S
C1874 C1872 1.391 . S
C1874 C1875 1.400 . S
C1875 C1874 1.400 . S
C1875 C1876 1.398 . S
C1875 C1881 1.491 1_545 S
C1876 H1867 0.950 . S
C1876 C1875 1.398 . S
C1876 C1877 1.391 . S
C1877 H1865 0.950 . S
C1877 C1873 1.393 . S
C1877 C1876 1.391 . S
C1878 H1868 0.950 . S
C1878 C1879 1.386 . S
C1878 C1880 1.391 . S
C1879 C1878 1.386 . S
C1879 C1883 1.393 . S
C1880 H1869 0.950 . S
C1880 C1878 1.391 . S
C1880 C1881 1.400 . S
C1881 C1875 1.491 1_565 S
C1881 C1880 1.400 . S
C1881 C1882 1.398 . S
C1882 H1870 0.950 . S
C1882 C1881 1.398 . S
C1882 C1883 1.391 . S
C1883 H1871 0.950 . S
C1883 C1879 1.393 . S
C1883 C1882 1.391 . S
H1884 C1892 0.950 . S
H1885 C1897 0.950 . S
H1886 C1894 0.950 . S
H1887 C1896 0.950 . S
H1888 C1898 0.950 . S
H1889 C1900 0.950 . S
H1890 C1902 0.950 . S
H1891 C1903 0.950 . S
C1892 H1884 0.950 . S
C1892 C1893 1.386 . S
C1892 C1894 1.391 . S
C1893 C1892 1.386 . S
C1893 C1897 1.393 . S
C1894 H1886 0.950 . S
C1894 C1892 1.391 . S
C1894 C1895 1.400 . S
C1895 C1894 1.400 . S
C1895 C1896 1.398 . S
C1895 C1901 1.491 . S
C1896 H1887 0.950 . S
C1896 C1895 1.398 . S
C1896 C1897 1.391 . S
C1897 H1885 0.950 . S
C1897 C1893 1.393 . S
C1897 C1896 1.391 . S
C1898 H1888 0.950 . S
C1898 C1899 1.386 . S
C1898 C1900 1.391 . S
C1899 C1898 1.386 . S
C1899 C1903 1.393 . S
C1900 H1889 0.950 . S
C1900 C1898 1.391 . S
C1900 C1901 1.400 . S
C1901 C1895 1.491 . S
C1901 C1900 1.400 . S
C1901 C1902 1.398 . S
C1902 H1890 0.950 . S
C1902 C1901 1.398 . S
C1902 C1903 1.391 . S
C1903 H1891 0.950 . S
C1903 C1899 1.393 . S
C1903 C1902 1.391 . S
H1904 C1912 0.950 . S
H1905 C1917 0.950 . S
H1906 C1914 0.950 . S
H1907 C1916 0.950 . S
H1908 C1918 0.950 . S
H1909 C1920 0.950 . S
H1910 C1922 0.950 . S
H1911 C1923 0.950 . S
C1912 H1904 0.950 . S
C1912 C1913 1.386 . S
C1912 C1914 1.391 . S
C1913 C1912 1.386 . S
C1913 C1917 1.393 . S
C1914 H1906 0.950 . S
C1914 C1912 1.391 . S
C1914 C1915 1.400 . S
C1915 C1914 1.400 . S
C1915 C1916 1.398 . S
C1915 C1921 1.491 1_556 S
C1916 H1907 0.950 . S
C1916 C1915 1.398 . S
C1916 C1917 1.391 . S
C1917 H1905 0.950 . S
C1917 C1913 1.393 . S
C1917 C1916 1.391 . S
C1918 H1908 0.950 . S
C1918 C1919 1.386 . S
C1918 C1920 1.391 . S
C1919 C1918 1.386 . S
C1919 C1923 1.393 . S
C1920 H1909 0.950 . S
C1920 C1918 1.391 . S
C1920 C1921 1.400 . S
C1921 C1915 1.491 1_554 S
C1921 C1920 1.400 . S
C1921 C1922 1.398 . S
C1922 H1910 0.950 . S
C1922 C1921 1.398 . S
C1922 C1923 1.391 . S
C1923 H1911 0.950 . S
C1923 C1919 1.393 . S
C1923 C1922 1.391 . S
H1924 C1932 0.950 . S
H1925 C1937 0.950 . S
H1926 C1934 0.950 . S
H1927 C1936 0.950 . S
H1928 C1938 0.950 . S
H1929 C1940 0.950 . S
H1930 C1942 0.950 . S
H1931 C1943 0.950 . S
C1932 H1924 0.950 . S
C1932 C1933 1.386 . S
C1932 C1934 1.391 . S
C1933 C1932 1.386 . S
C1933 C1937 1.393 . S
C1934 H1926 0.950 . S
C1934 C1932 1.391 . S
C1934 C1935 1.400 . S
C1935 C1934 1.400 . S
C1935 C1936 1.398 . S
C1935 C1941 1.491 1_556 S
C1936 H1927 0.950 . S
C1936 C1935 1.398 . S
C1936 C1937 1.391 . S
C1937 H1925 0.950 . S
C1937 C1933 1.393 . S
C1937 C1936 1.391 . S
C1938 H1928 0.950 . S
C1938 C1939 1.386 . S
C1938 C1940 1.391 . S
C1939 C1938 1.386 . S
C1939 C1943 1.393 . S
C1940 H1929 0.950 . S
C1940 C1938 1.391 . S
C1940 C1941 1.400 . S
C1941 C1935 1.491 1_554 S
C1941 C1940 1.400 . S
C1941 C1942 1.398 . S
C1942 H1930 0.950 . S
C1942 C1941 1.398 . S
C1942 C1943 1.391 . S
C1943 H1931 0.950 . S
C1943 C1939 1.393 . S
C1943 C1942 1.391 . S
H1944 C1952 0.950 . S
H1945 C1957 0.950 . S
H1946 C1954 0.950 . S
H1947 C1956 0.950 . S
H1948 C1958 0.950 . S
H1949 C1960 0.950 . S
H1950 C1962 0.950 . S
H1951 C1963 0.950 . S
C1952 H1944 0.950 . S
C1952 C1953 1.386 . S
C1952 C1954 1.391 . S
C1953 C1952 1.386 . S
C1953 C1957 1.393 . S
C1954 H1946 0.950 . S
C1954 C1952 1.391 . S
C1954 C1955 1.400 . S
C1955 C1954 1.400 . S
C1955 C1956 1.398 . S
C1955 C1961 1.491 . S
C1956 H1947 0.950 . S
C1956 C1955 1.398 . S
C1956 C1957 1.391 . S
C1957 H1945 0.950 . S
C1957 C1953 1.393 . S
C1957 C1956 1.391 . S
C1958 H1948 0.950 . S
C1958 C1959 1.386 . S
C1958 C1960 1.391 . S
C1959 C1958 1.386 . S
C1959 C1963 1.393 . S
C1960 H1949 0.950 . S
C1960 C1958 1.391 . S
C1960 C1961 1.400 . S
C1961 C1955 1.491 . S
C1961 C1960 1.400 . S
C1961 C1962 1.398 . S
C1962 H1950 0.950 . S
C1962 C1961 1.398 . S
C1962 C1963 1.391 . S
C1963 H1951 0.950 . S
C1963 C1959 1.393 . S
C1963 C1962 1.391 . S
H1964 C1972 0.950 . S
H1965 C1977 0.950 . S
H1966 C1974 0.950 . S
H1967 C1976 0.950 . S
H1968 C1978 0.950 . S
H1969 C1980 0.950 . S
H1970 C1982 0.950 . S
H1971 C1983 0.950 . S
C1972 H1964 0.950 . S
C1972 C1973 1.386 . S
C1972 C1974 1.391 . S
C1973 C1972 1.386 . S
C1973 C1977 1.393 . S
C1974 H1966 0.950 . S
C1974 C1972 1.391 . S
C1974 C1975 1.400 . S
C1975 C1974 1.400 . S
C1975 C1976 1.398 . S
C1975 C1981 1.491 1_556 S
C1976 H1967 0.950 . S
C1976 C1975 1.398 . S
C1976 C1977 1.391 . S
C1977 H1965 0.950 . S
C1977 C1973 1.393 . S
C1977 C1976 1.391 . S
C1978 H1968 0.950 . S
C1978 C1979 1.386 . S
C1978 C1980 1.391 . S
C1979 C1978 1.386 . S
C1979 C1983 1.393 . S
C1980 H1969 0.950 . S
C1980 C1978 1.391 . S
C1980 C1981 1.400 . S
C1981 C1975 1.491 1_554 S
C1981 C1980 1.400 . S
C1981 C1982 1.398 . S
C1982 H1970 0.950 . S
C1982 C1981 1.398 . S
C1982 C1983 1.391 . S
C1983 H1971 0.950 . S
C1983 C1979 1.393 . S
C1983 C1982 1.391 . S
H1984 C1992 0.950 . S
H1985 C1997 0.950 . S
H1986 C1994 0.950 . S
H1987 C1996 0.950 . S
H1988 C1998 0.950 . S
H1989 C2000 0.950 . S
H1990 C2002 0.950 . S
H1991 C2003 0.950 . S
C1992 H1984 0.950 . S
C1992 C1993 1.386 . S
C1992 C1994 1.391 . S
C1993 C1992 1.386 . S
C1993 C1997 1.393 . S
C1994 H1986 0.950 . S
C1994 C1992 1.391 . S
C1994 C1995 1.400 . S
C1995 C1994 1.400 . S
C1995 C1996 1.398 . S
C1995 C2001 1.491 . S
C1996 H1987 0.950 . S
C1996 C1995 1.398 . S
C1996 C1997 1.391 . S
C1997 H1985 0.950 . S
C1997 C1993 1.393 . S
C1997 C1996 1.391 . S
C1998 H1988 0.950 . S
C1998 C1999 1.386 . S
C1998 C2000 1.391 . S
C1999 C1998 1.386 . S
C1999 C2003 1.393 . S
C2000 H1989 0.950 . S
C2000 C1998 1.391 . S
C2000 C2001 1.400 . S
C2001 C1995 1.491 . S
C2001 C2000 1.400 . S
C2001 C2002 1.398 . S
C2002 H1990 0.950 . S
C2002 C2001 1.398 . S
C2002 C2003 1.391 . S
C2003 H1991 0.950 . S
C2003 C1999 1.393 . S
C2003 C2002 1.391 . S
H2004 C2012 0.950 . S
H2005 C2017 0.950 . S
H2006 C2014 0.950 . S
H2007 C2016 0.950 . S
H2008 C2018 0.950 . S
H2009 C2020 0.950 . S
H2010 C2022 0.950 . S
H2011 C2023 0.950 . S
C2012 H2004 0.950 . S
C2012 C2013 1.386 . S
C2012 C2014 1.391 . S
C2013 C2012 1.386 . S
C2013 C2017 1.393 . S
C2014 H2006 0.950 . S
C2014 C2012 1.391 . S
C2014 C2015 1.400 . S
C2015 C2014 1.400 . S
C2015 C2016 1.398 . S
C2015 C2021 1.491 1_556 S
C2016 H2007 0.950 . S
C2016 C2015 1.398 . S
C2016 C2017 1.391 . S
C2017 H2005 0.950 . S
C2017 C2013 1.393 . S
C2017 C2016 1.391 . S
C2018 H2008 0.950 . S
C2018 C2019 1.386 . S
C2018 C2020 1.391 . S
C2019 C2018 1.386 . S
C2019 C2023 1.393 . S
C2020 H2009 0.950 . S
C2020 C2018 1.391 . S
C2020 C2021 1.400 . S
C2021 C2015 1.491 1_554 S
C2021 C2020 1.400 . S
C2021 C2022 1.398 . S
C2022 H2010 0.950 . S
C2022 C2021 1.398 . S
C2022 C2023 1.391 . S
C2023 H2011 0.950 . S
C2023 C2019 1.393 . S
C2023 C2022 1.391 . S
H2024 C2032 0.950 . S
H2025 C2037 0.950 . S
H2026 C2034 0.950 . S
H2027 C2036 0.950 . S
H2028 C2038 0.950 . S
H2029 C2040 0.950 . S
H2030 C2042 0.950 . S
H2031 C2043 0.950 . S
C2032 H2024 0.950 . S
C2032 C2033 1.386 . S
C2032 C2034 1.391 . S
C2033 C2032 1.386 . S
C2033 C2037 1.393 . S
C2034 H2026 0.950 . S
C2034 C2032 1.391 . S
C2034 C2035 1.400 . S
C2035 C2034 1.400 . S
C2035 C2036 1.398 . S
C2035 C2041 1.491 . S
C2036 H2027 0.950 . S
C2036 C2035 1.398 . S
C2036 C2037 1.391 . S
C2037 H2025 0.950 . S
C2037 C2033 1.393 . S
C2037 C2036 1.391 . S
C2038 H2028 0.950 . S
C2038 C2039 1.386 . S
C2038 C2040 1.391 . S
C2039 C2038 1.386 . S
C2039 C2043 1.393 . S
C2040 H2029 0.950 . S
C2040 C2038 1.391 . S
C2040 C2041 1.400 . S
C2041 C2035 1.491 . S
C2041 C2040 1.400 . S
C2041 C2042 1.398 . S
C2042 H2030 0.950 . S
C2042 C2041 1.398 . S
C2042 C2043 1.391 . S
C2043 H2031 0.950 . S
C2043 C2039 1.393 . S
C2043 C2042 1.391 . S
H2044 C2052 0.950 . S
H2045 C2057 0.950 . S
H2046 C2054 0.950 . S
H2047 C2056 0.950 . S
H2048 C2058 0.950 . S
H2049 C2060 0.950 . S
H2050 C2062 0.950 . S
H2051 C2063 0.950 . S
C2052 H2044 0.950 . S
C2052 C2053 1.386 . S
C2052 C2054 1.391 . S
C2053 C2052 1.386 . S
C2053 C2057 1.393 . S
C2054 H2046 0.950 . S
C2054 C2052 1.391 . S
C2054 C2055 1.400 . S
C2055 C2054 1.400 . S
C2055 C2056 1.398 . S
C2055 C2061 1.491 . S
C2056 H2047 0.950 . S
C2056 C2055 1.398 . S
C2056 C2057 1.391 . S
C2057 H2045 0.950 . S
C2057 C2053 1.393 . S
C2057 C2056 1.391 . S
C2058 H2048 0.950 . S
C2058 C2059 1.386 . S
C2058 C2060 1.391 . S
C2059 C2058 1.386 . S
C2059 C2063 1.393 . S
C2060 H2049 0.950 . S
C2060 C2058 1.391 . S
C2060 C2061 1.400 . S
C2061 C2055 1.491 . S
C2061 C2060 1.400 . S
C2061 C2062 1.398 . S
C2062 H2050 0.950 . S
C2062 C2061 1.398 . S
C2062 C2063 1.391 . S
C2063 H2051 0.950 . S
C2063 C2059 1.393 . S
C2063 C2062 1.391 . S
H2064 C2072 0.950 . S
H2065 C2077 0.950 . S
H2066 C2074 0.950 . S
H2067 C2076 0.950 . S
H2068 C2078 0.950 . S
H2069 C2080 0.950 . S
H2070 C2082 0.950 . S
H2071 C2083 0.950 . S
C2072 H2064 0.950 . S
C2072 C2073 1.386 . S
C2072 C2074 1.391 . S
C2073 C2072 1.386 . S
C2073 C2077 1.393 . S
C2074 H2066 0.950 . S
C2074 C2072 1.391 . S
C2074 C2075 1.400 . S
C2075 C2074 1.400 . S
C2075 C2076 1.398 . S
C2075 C2081 1.491 . S
C2076 H2067 0.950 . S
C2076 C2075 1.398 . S
C2076 C2077 1.391 . S
C2077 H2065 0.950 . S
C2077 C2073 1.393 . S
C2077 C2076 1.391 . S
C2078 H2068 0.950 . S
C2078 C2079 1.386 . S
C2078 C2080 1.391 . S
C2079 C2078 1.386 . S
C2079 C2083 1.393 . S
C2080 H2069 0.950 . S
C2080 C2078 1.391 . S
C2080 C2081 1.400 . S
C2081 C2075 1.491 . S
C2081 C2080 1.400 . S
C2081 C2082 1.398 . S
C2082 H2070 0.950 . S
C2082 C2081 1.398 . S
C2082 C2083 1.391 . S
C2083 H2071 0.950 . S
C2083 C2079 1.393 . S
C2083 C2082 1.391 . S
H2084 C2092 0.950 . S
H2085 C2097 0.950 . S
H2086 C2094 0.950 . S
H2087 C2096 0.950 . S
H2088 C2098 0.950 . S
H2089 C2100 0.950 . S
H2090 C2102 0.950 . S
H2091 C2103 0.950 . S
C2092 H2084 0.950 . S
C2092 C2093 1.386 . S
C2092 C2094 1.391 . S
C2093 C2092 1.386 . S
C2093 C2097 1.393 . S
C2094 H2086 0.950 . S
C2094 C2092 1.391 . S
C2094 C2095 1.400 . S
C2095 C2094 1.400 . S
C2095 C2096 1.398 . S
C2095 C2101 1.491 . S
C2096 H2087 0.950 . S
C2096 C2095 1.398 . S
C2096 C2097 1.391 . S
C2097 H2085 0.950 . S
C2097 C2093 1.393 . S
C2097 C2096 1.391 . S
C2098 H2088 0.950 . S
C2098 C2099 1.386 . S
C2098 C2100 1.391 . S
C2099 C2098 1.386 . S
C2099 C2103 1.393 . S
C2100 H2089 0.950 . S
C2100 C2098 1.391 . S
C2100 C2101 1.400 . S
C2101 C2095 1.491 . S
C2101 C2100 1.400 . S
C2101 C2102 1.398 . S
C2102 H2090 0.950 . S
C2102 C2101 1.398 . S
C2102 C2103 1.391 . S
C2103 H2091 0.950 . S
C2103 C2099 1.393 . S
C2103 C2102 1.391 . S
H2104 C2112 0.950 . S
H2105 C2117 0.950 . S
H2106 C2114 0.950 . S
H2107 C2116 0.950 . S
H2108 C2118 0.950 . S
H2109 C2120 0.950 . S
H2110 C2122 0.950 . S
H2111 C2123 0.950 . S
C2112 H2104 0.950 . S
C2112 C2113 1.386 . S
C2112 C2114 1.391 . S
C2113 C2112 1.386 . S
C2113 C2117 1.393 . S
C2114 H2106 0.950 . S
C2114 C2112 1.391 . S
C2114 C2115 1.400 . S
C2115 C2114 1.400 . S
C2115 C2116 1.398 . S
C2115 C2121 1.491 . S
C2116 H2107 0.950 . S
C2116 C2115 1.398 . S
C2116 C2117 1.391 . S
C2117 H2105 0.950 . S
C2117 C2113 1.393 . S
C2117 C2116 1.391 . S
C2118 H2108 0.950 . S
C2118 C2119 1.386 . S
C2118 C2120 1.391 . S
C2119 C2118 1.386 . S
C2119 C2123 1.393 . S
C2120 H2109 0.950 . S
C2120 C2118 1.391 . S
C2120 C2121 1.400 . S
C2121 C2115 1.491 . S
C2121 C2120 1.400 . S
C2121 C2122 1.398 . S
C2122 H2110 0.950 . S
C2122 C2121 1.398 . S
C2122 C2123 1.391 . S
C2123 H2111 0.950 . S
C2123 C2119 1.393 . S
C2123 C2122 1.391 . S
H2124 C2132 0.950 . S
H2125 C2137 0.950 . S
H2126 C2134 0.950 . S
H2127 C2136 0.950 . S
H2128 C2138 0.950 . S
H2129 C2140 0.950 . S
H2130 C2142 0.950 . S
H2131 C2143 0.950 . S
C2132 H2124 0.950 . S
C2132 C2133 1.386 . S
C2132 C2134 1.391 . S
C2133 C2132 1.386 . S
C2133 C2137 1.393 . S
C2134 H2126 0.950 . S
C2134 C2132 1.391 . S
C2134 C2135 1.400 . S
C2135 C2134 1.400 . S
C2135 C2136 1.398 . S
C2135 C2141 1.491 . S
C2136 H2127 0.950 . S
C2136 C2135 1.398 . S
C2136 C2137 1.391 . S
C2137 H2125 0.950 . S
C2137 C2133 1.393 . S
C2137 C2136 1.391 . S
C2138 H2128 0.950 . S
C2138 C2139 1.386 . S
C2138 C2140 1.391 . S
C2139 C2138 1.386 . S
C2139 C2143 1.393 . S
C2140 H2129 0.950 . S
C2140 C2138 1.391 . S
C2140 C2141 1.400 . S
C2141 C2135 1.491 . S
C2141 C2140 1.400 . S
C2141 C2142 1.398 . S
C2142 H2130 0.950 . S
C2142 C2141 1.398 . S
C2142 C2143 1.391 . S
C2143 H2131 0.950 . S
C2143 C2139 1.393 . S
C2143 C2142 1.391 . S
H2144 C2152 0.950 . S
H2145 C2157 0.950 . S
H2146 C2154 0.950 . S
H2147 C2156 0.950 . S
H2148 C2158 0.950 . S
H2149 C2160 0.950 . S
H2150 C2162 0.950 . S
H2151 C2163 0.950 . S
C2152 H2144 0.950 . S
C2152 C2153 1.386 . S
C2152 C2154 1.391 . S
C2153 C2152 1.386 . S
C2153 C2157 1.393 . S
C2154 H2146 0.950 . S
C2154 C2152 1.391 . S
C2154 C2155 1.400 . S
C2155 C2154 1.400 . S
C2155 C2156 1.398 . S
C2155 C2161 1.491 . S
C2156 H2147 0.950 . S
C2156 C2155 1.398 . S
C2156 C2157 1.391 . S
C2157 H2145 0.950 . S
C2157 C2153 1.393 . S
C2157 C2156 1.391 . S
C2158 H2148 0.950 . S
C2158 C2159 1.386 . S
C2158 C2160 1.391 . S
C2159 C2158 1.386 . S
C2159 C2163 1.393 . S
C2160 H2149 0.950 . S
C2160 C2158 1.391 . S
C2160 C2161 1.400 . S
C2161 C2155 1.491 . S
C2161 C2160 1.400 . S
C2161 C2162 1.398 . S
C2162 H2150 0.950 . S
C2162 C2161 1.398 . S
C2162 C2163 1.391 . S
C2163 H2151 0.950 . S
C2163 C2159 1.393 . S
C2163 C2162 1.391 . S
H2164 C2172 0.950 . S
H2165 C2177 0.950 . S
H2166 C2174 0.950 . S
H2167 C2176 0.950 . S
H2168 C2178 0.950 . S
H2169 C2180 0.950 . S
H2170 C2182 0.950 . S
H2171 C2183 0.950 . S
C2172 H2164 0.950 . S
C2172 C2173 1.386 . S
C2172 C2174 1.391 . S
C2173 C2172 1.386 . S
C2173 C2177 1.393 . S
C2174 H2166 0.950 . S
C2174 C2172 1.391 . S
C2174 C2175 1.400 . S
C2175 C2174 1.400 . S
C2175 C2176 1.398 . S
C2175 C2181 1.491 . S
C2176 H2167 0.950 . S
C2176 C2175 1.398 . S
C2176 C2177 1.391 . S
C2177 H2165 0.950 . S
C2177 C2173 1.393 . S
C2177 C2176 1.391 . S
C2178 H2168 0.950 . S
C2178 C2179 1.386 . S
C2178 C2180 1.391 . S
C2179 C2178 1.386 . S
C2179 C2183 1.393 . S
C2180 H2169 0.950 . S
C2180 C2178 1.391 . S
C2180 C2181 1.400 . S
C2181 C2175 1.491 . S
C2181 C2180 1.400 . S
C2181 C2182 1.398 . S
C2182 H2170 0.950 . S
C2182 C2181 1.398 . S
C2182 C2183 1.391 . S
C2183 H2171 0.950 . S
C2183 C2179 1.393 . S
C2183 C2182 1.391 . S
H2184 C2192 0.950 . S
H2185 C2197 0.950 . S
H2186 C2194 0.950 . S
H2187 C2196 0.950 . S
H2188 C2198 0.950 . S
H2189 C2200 0.950 . S
H2190 C2202 0.950 . S
H2191 C2203 0.950 . S
C2192 H2184 0.950 . S
C2192 C2193 1.386 . S
C2192 C2194 1.391 . S
C2193 C2192 1.386 . S
C2193 C2197 1.393 . S
C2194 H2186 0.950 . S
C2194 C2192 1.391 . S
C2194 C2195 1.400 . S
C2195 C2194 1.400 . S
C2195 C2196 1.398 . S
C2195 C2201 1.491 . S
C2196 H2187 0.950 . S
C2196 C2195 1.398 . S
C2196 C2197 1.391 . S
C2197 H2185 0.950 . S
C2197 C2193 1.393 . S
C2197 C2196 1.391 . S
C2198 H2188 0.950 . S
C2198 C2199 1.386 . S
C2198 C2200 1.391 . S
C2199 C2198 1.386 . S
C2199 C2203 1.393 . S
C2200 H2189 0.950 . S
C2200 C2198 1.391 . S
C2200 C2201 1.400 . S
C2201 C2195 1.491 . S
C2201 C2200 1.400 . S
C2201 C2202 1.398 . S
C2202 H2190 0.950 . S
C2202 C2201 1.398 . S
C2202 C2203 1.391 . S
C2203 H2191 0.950 . S
C2203 C2199 1.393 . S
C2203 C2202 1.391 . S
H2204 C2212 0.950 . S
H2205 C2217 0.950 . S
H2206 C2214 0.950 . S
H2207 C2216 0.950 . S
H2208 C2218 0.950 . S
H2209 C2220 0.950 . S
H2210 C2222 0.950 . S
H2211 C2223 0.950 . S
C2212 H2204 0.950 . S
C2212 C2213 1.386 . S
C2212 C2214 1.391 . S
C2213 C2212 1.386 . S
C2213 C2217 1.393 . S
C2214 H2206 0.950 . S
C2214 C2212 1.391 . S
C2214 C2215 1.400 . S
C2215 C2214 1.400 . S
C2215 C2216 1.398 . S
C2215 C2221 1.491 . S
C2216 H2207 0.950 . S
C2216 C2215 1.398 . S
C2216 C2217 1.391 . S
C2217 H2205 0.950 . S
C2217 C2213 1.393 . S
C2217 C2216 1.391 . S
C2218 H2208 0.950 . S
C2218 C2219 1.386 . S
C2218 C2220 1.391 . S
C2219 C2218 1.386 . S
C2219 C2223 1.393 . S
C2220 H2209 0.950 . S
C2220 C2218 1.391 . S
C2220 C2221 1.400 . S
C2221 C2215 1.491 . S
C2221 C2220 1.400 . S
C2221 C2222 1.398 . S
C2222 H2210 0.950 . S
C2222 C2221 1.398 . S
C2222 C2223 1.391 . S
C2223 H2211 0.950 . S
C2223 C2219 1.393 . S
C2223 C2222 1.391 . S
H2224 C2232 0.950 . S
H2225 C2237 0.950 . S
H2226 C2234 0.950 . S
H2227 C2236 0.950 . S
H2228 C2238 0.950 . S
H2229 C2240 0.950 . S
H2230 C2242 0.950 . S
H2231 C2243 0.950 . S
C2232 H2224 0.950 . S
C2232 C2233 1.386 . S
C2232 C2234 1.391 . S
C2233 C2232 1.386 . S
C2233 C2237 1.393 . S
C2234 H2226 0.950 . S
C2234 C2232 1.391 . S
C2234 C2235 1.400 . S
C2235 C2234 1.400 . S
C2235 C2236 1.398 . S
C2235 C2241 1.491 . S
C2236 H2227 0.950 . S
C2236 C2235 1.398 . S
C2236 C2237 1.391 . S
C2237 H2225 0.950 . S
C2237 C2233 1.393 . S
C2237 C2236 1.391 . S
C2238 H2228 0.950 . S
C2238 C2239 1.386 . S
C2238 C2240 1.391 . S
C2239 C2238 1.386 . S
C2239 C2243 1.393 . S
C2240 H2229 0.950 . S
C2240 C2238 1.391 . S
C2240 C2241 1.400 . S
C2241 C2235 1.491 . S
C2241 C2240 1.400 . S
C2241 C2242 1.398 . S
C2242 H2230 0.950 . S
C2242 C2241 1.398 . S
C2242 C2243 1.391 . S
C2243 H2231 0.950 . S
C2243 C2239 1.393 . S
C2243 C2242 1.391 . S
H2244 C2252 0.950 . S
H2245 C2257 0.950 . S
H2246 C2254 0.950 . S
H2247 C2256 0.950 . S
H2248 C2258 0.950 . S
H2249 C2260 0.950 . S
H2250 C2262 0.950 . S
H2251 C2263 0.950 . S
C2252 H2244 0.950 . S
C2252 C2253 1.386 . S
C2252 C2254 1.391 . S
C2253 C2252 1.386 . S
C2253 C2257 1.393 . S
C2254 H2246 0.950 . S
C2254 C2252 1.391 . S
C2254 C2255 1.400 . S
C2255 C2254 1.400 . S
C2255 C2256 1.398 . S
C2255 C2261 1.491 . S
C2256 H2247 0.950 . S
C2256 C2255 1.398 . S
C2256 C2257 1.391 . S
C2257 H2245 0.950 . S
C2257 C2253 1.393 . S
C2257 C2256 1.391 . S
C2258 H2248 0.950 . S
C2258 C2259 1.386 . S
C2258 C2260 1.391 . S
C2259 C2258 1.386 . S
C2259 C2263 1.393 . S
C2260 H2249 0.950 . S
C2260 C2258 1.391 . S
C2260 C2261 1.400 . S
C2261 C2255 1.491 . S
C2261 C2260 1.400 . S
C2261 C2262 1.398 . S
C2262 H2250 0.950 . S
C2262 C2261 1.398 . S
C2262 C2263 1.391 . S
C2263 H2251 0.950 . S
C2263 C2259 1.393 . S
C2263 C2262 1.391 . S
H2264 C2272 0.950 . S
H2265 C2277 0.950 . S
H2266 C2274 0.950 . S
H2267 C2276 0.950 . S
H2268 C2278 0.950 . S
H2269 C2280 0.950 . S
H2270 C2282 0.950 . S
H2271 C2283 0.950 . S
C2272 H2264 0.950 . S
C2272 C2273 1.386 . S
C2272 C2274 1.391 . S
C2273 C2272 1.386 . S
C2273 C2277 1.393 . S
C2274 H2266 0.950 . S
C2274 C2272 1.391 . S
C2274 C2275 1.400 . S
C2275 C2274 1.400 . S
C2275 C2276 1.398 . S
C2275 C2281 1.491 . S
C2276 H2267 0.950 . S
C2276 C2275 1.398 . S
C2276 C2277 1.391 . S
C2277 H2265 0.950 . S
C2277 C2273 1.393 . S
C2277 C2276 1.391 . S
C2278 H2268 0.950 . S
C2278 C2279 1.386 . S
C2278 C2280 1.391 . S
C2279 C2278 1.386 . S
C2279 C2283 1.393 . S
C2280 H2269 0.950 . S
C2280 C2278 1.391 . S
C2280 C2281 1.400 . S
C2281 C2275 1.491 . S
C2281 C2280 1.400 . S
C2281 C2282 1.398 . S
C2282 H2270 0.950 . S
C2282 C2281 1.398 . S
C2282 C2283 1.391 . S
C2283 H2271 0.950 . S
C2283 C2279 1.393 . S
C2283 C2282 1.391 . S
H2284 C2292 0.950 . S
H2285 C2297 0.950 . S
H2286 C2294 0.950 . S
H2287 C2296 0.950 . S
H2288 C2298 0.950 . S
H2289 C2300 0.950 . S
H2290 C2302 0.950 . S
H2291 C2303 0.950 . S
C2292 H2284 0.950 . S
C2292 C2293 1.386 . S
C2292 C2294 1.391 . S
C2293 C2292 1.386 . S
C2293 C2297 1.393 . S
C2294 H2286 0.950 . S
C2294 C2292 1.391 . S
C2294 C2295 1.400 . S
C2295 C2294 1.400 . S
C2295 C2296 1.398 . S
C2295 C2301 1.491 . S
C2296 H2287 0.950 . S
C2296 C2295 1.398 . S
C2296 C2297 1.391 . S
C2297 H2285 0.950 . S
C2297 C2293 1.393 . S
C2297 C2296 1.391 . S
C2298 H2288 0.950 . S
C2298 C2299 1.386 . S
C2298 C2300 1.391 . S
C2299 C2298 1.386 . S
C2299 C2303 1.393 . S
C2300 H2289 0.950 . S
C2300 C2298 1.391 . S
C2300 C2301 1.400 . S
C2301 C2295 1.491 . S
C2301 C2300 1.400 . S
C2301 C2302 1.398 . S
C2302 H2290 0.950 . S
C2302 C2301 1.398 . S
C2302 C2303 1.391 . S
C2303 H2291 0.950 . S
C2303 C2299 1.393 . S
C2303 C2302 1.391 . S
H2304 C2312 0.950 . S
H2305 C2317 0.950 . S
H2306 C2314 0.950 . S
H2307 C2316 0.950 . S
H2308 C2318 0.950 . S
H2309 C2320 0.950 . S
H2310 C2322 0.950 . S
H2311 C2323 0.950 . S
C2312 H2304 0.950 . S
C2312 C2313 1.386 . S
C2312 C2314 1.391 . S
C2313 C2312 1.386 . S
C2313 C2317 1.393 . S
C2314 H2306 0.950 . S
C2314 C2312 1.391 . S
C2314 C2315 1.400 . S
C2315 C2314 1.400 . S
C2315 C2316 1.398 . S
C2315 C2321 1.491 . S
C2316 H2307 0.950 . S
C2316 C2315 1.398 . S
C2316 C2317 1.391 . S
C2317 H2305 0.950 . S
C2317 C2313 1.393 . S
C2317 C2316 1.391 . S
C2318 H2308 0.950 . S
C2318 C2319 1.386 . S
C2318 C2320 1.391 . S
C2319 C2318 1.386 . S
C2319 C2323 1.393 . S
C2320 H2309 0.950 . S
C2320 C2318 1.391 . S
C2320 C2321 1.400 . S
C2321 C2315 1.491 . S
C2321 C2320 1.400 . S
C2321 C2322 1.398 . S
C2322 H2310 0.950 . S
C2322 C2321 1.398 . S
C2322 C2323 1.391 . S
C2323 H2311 0.950 . S
C2323 C2319 1.393 . S
C2323 C2322 1.391 . S
H2324 C2332 0.950 . S
H2325 C2337 0.950 . S
H2326 C2334 0.950 . S
H2327 C2336 0.950 . S
H2328 C2338 0.950 . S
H2329 C2340 0.950 . S
H2330 C2342 0.950 . S
H2331 C2343 0.950 . S
C2332 H2324 0.950 . S
C2332 C2333 1.386 . S
C2332 C2334 1.391 . S
C2333 C2332 1.386 . S
C2333 C2337 1.393 . S
C2334 H2326 0.950 . S
C2334 C2332 1.391 . S
C2334 C2335 1.400 . S
C2335 C2334 1.400 . S
C2335 C2336 1.398 . S
C2335 C2341 1.491 . S
C2336 H2327 0.950 . S
C2336 C2335 1.398 . S
C2336 C2337 1.391 . S
C2337 H2325 0.950 . S
C2337 C2333 1.393 . S
C2337 C2336 1.391 . S
C2338 H2328 0.950 . S
C2338 C2339 1.386 . S
C2338 C2340 1.391 . S
C2339 C2338 1.386 . S
C2339 C2343 1.393 . S
C2340 H2329 0.950 . S
C2340 C2338 1.391 . S
C2340 C2341 1.400 . S
C2341 C2335 1.491 . S
C2341 C2340 1.400 . S
C2341 C2342 1.398 . S
C2342 H2330 0.950 . S
C2342 C2341 1.398 . S
C2342 C2343 1.391 . S
C2343 H2331 0.950 . S
C2343 C2339 1.393 . S
C2343 C2342 1.391 . S
H2344 C2352 0.950 . S
H2345 C2357 0.950 . S
H2346 C2354 0.950 . S
H2347 C2356 0.950 . S
H2348 C2358 0.950 . S
H2349 C2360 0.950 . S
H2350 C2362 0.950 . S
H2351 C2363 0.950 . S
C2352 H2344 0.950 . S
C2352 C2353 1.386 . S
C2352 C2354 1.391 . S
C2353 C2352 1.386 . S
C2353 C2357 1.393 . S
C2354 H2346 0.950 . S
C2354 C2352 1.391 . S
C2354 C2355 1.400 . S
C2355 C2354 1.400 . S
C2355 C2356 1.398 . S
C2355 C2361 1.491 . S
C2356 H2347 0.950 . S
C2356 C2355 1.398 . S
C2356 C2357 1.391 . S
C2357 H2345 0.950 . S
C2357 C2353 1.393 . S
C2357 C2356 1.391 . S
C2358 H2348 0.950 . S
C2358 C2359 1.386 . S
C2358 C2360 1.391 . S
C2359 C2358 1.386 . S
C2359 C2363 1.393 . S
C2360 H2349 0.950 . S
C2360 C2358 1.391 . S
C2360 C2361 1.400 . S
C2361 C2355 1.491 . S
C2361 C2360 1.400 . S
C2361 C2362 1.398 . S
C2362 H2350 0.950 . S
C2362 C2361 1.398 . S
C2362 C2363 1.391 . S
C2363 H2351 0.950 . S
C2363 C2359 1.393 . S
C2363 C2362 1.391 . S
H2364 C2372 0.950 . S
H2365 C2377 0.950 . S
H2366 C2374 0.950 . S
H2367 C2376 0.950 . S
H2368 C2378 0.950 . S
H2369 C2380 0.950 . S
H2370 C2382 0.950 . S
H2371 C2383 0.950 . S
C2372 H2364 0.950 . S
C2372 C2373 1.386 . S
C2372 C2374 1.391 . S
C2373 C2372 1.386 . S
C2373 C2377 1.393 . S
C2374 H2366 0.950 . S
C2374 C2372 1.391 . S
C2374 C2375 1.400 . S
C2375 C2374 1.400 . S
C2375 C2376 1.398 . S
C2375 C2381 1.491 . S
C2376 H2367 0.950 . S
C2376 C2375 1.398 . S
C2376 C2377 1.391 . S
C2377 H2365 0.950 . S
C2377 C2373 1.393 . S
C2377 C2376 1.391 . S
C2378 H2368 0.950 . S
C2378 C2379 1.386 . S
C2378 C2380 1.391 . S
C2379 C2378 1.386 . S
C2379 C2383 1.393 . S
C2380 H2369 0.950 . S
C2380 C2378 1.391 . S
C2380 C2381 1.400 . S
C2381 C2375 1.491 . S
C2381 C2380 1.400 . S
C2381 C2382 1.398 . S
C2382 H2370 0.950 . S
C2382 C2381 1.398 . S
C2382 C2383 1.391 . S
C2383 H2371 0.950 . S
C2383 C2379 1.393 . S
C2383 C2382 1.391 . S
H2384 C2392 0.950 . S
H2385 C2397 0.950 . S
H2386 C2394 0.950 . S
H2387 C2396 0.950 . S
H2388 C2398 0.950 . S
H2389 C2400 0.950 . S
H2390 C2402 0.950 . S
H2391 C2403 0.950 . S
C2392 H2384 0.950 . S
C2392 C2393 1.386 . S
C2392 C2394 1.391 . S
C2393 C2392 1.386 . S
C2393 C2397 1.393 . S
C2394 H2386 0.950 . S
C2394 C2392 1.391 . S
C2394 C2395 1.400 . S
C2395 C2394 1.400 . S
C2395 C2396 1.398 . S
C2395 C2401 1.491 . S
C2396 H2387 0.950 . S
C2396 C2395 1.398 . S
C2396 C2397 1.391 . S
C2397 H2385 0.950 . S
C2397 C2393 1.393 . S
C2397 C2396 1.391 . S
C2398 H2388 0.950 . S
C2398 C2399 1.386 . S
C2398 C2400 1.391 . S
C2399 C2398 1.386 . S
C2399 C2403 1.393 . S
C2400 H2389 0.950 . S
C2400 C2398 1.391 . S
C2400 C2401 1.400 . S
C2401 C2395 1.491 . S
C2401 C2400 1.400 . S
C2401 C2402 1.398 . S
C2402 H2390 0.950 . S
C2402 C2401 1.398 . S
C2402 C2403 1.391 . S
C2403 H2391 0.950 . S
C2403 C2399 1.393 . S
C2403 C2402 1.391 . S
H2404 C2412 0.950 . S
H2405 C2417 0.950 . S
H2406 C2414 0.950 . S
H2407 C2416 0.950 . S
H2408 C2418 0.950 . S
H2409 C2420 0.950 . S
H2410 C2422 0.950 . S
H2411 C2423 0.950 . S
C2412 H2404 0.950 . S
C2412 C2413 1.386 . S
C2412 C2414 1.391 . S
C2413 C2412 1.386 . S
C2413 C2417 1.393 . S
C2414 H2406 0.950 . S
C2414 C2412 1.391 . S
C2414 C2415 1.400 . S
C2415 C2414 1.400 . S
C2415 C2416 1.398 . S
C2415 C2421 1.491 . S
C2416 H2407 0.950 . S
C2416 C2415 1.398 . S
C2416 C2417 1.391 . S
C2417 H2405 0.950 . S
C2417 C2413 1.393 . S
C2417 C2416 1.391 . S
C2418 H2408 0.950 . S
C2418 C2419 1.386 . S
C2418 C2420 1.391 . S
C2419 C2418 1.386 . S
C2419 C2423 1.393 . S
C2420 H2409 0.950 . S
C2420 C2418 1.391 . S
C2420 C2421 1.400 . S
C2421 C2415 1.491 . S
C2421 C2420 1.400 . S
C2421 C2422 1.398 . S
C2422 H2410 0.950 . S
C2422 C2421 1.398 . S
C2422 C2423 1.391 . S
C2423 H2411 0.950 . S
C2423 C2419 1.393 . S
C2423 C2422 1.391 . S
H2424 C2432 0.950 . S
H2425 C2437 0.950 . S
H2426 C2434 0.950 . S
H2427 C2436 0.950 . S
H2428 C2438 0.950 . S
H2429 C2440 0.950 . S
H2430 C2442 0.950 . S
H2431 C2443 0.950 . S
C2432 H2424 0.950 . S
C2432 C2433 1.386 . S
C2432 C2434 1.391 . S
C2433 C2432 1.386 . S
C2433 C2437 1.393 . S
C2434 H2426 0.950 . S
C2434 C2432 1.391 . S
C2434 C2435 1.400 . S
C2435 C2434 1.400 . S
C2435 C2436 1.398 . S
C2435 C2441 1.491 . S
C2436 H2427 0.950 . S
C2436 C2435 1.398 . S
C2436 C2437 1.391 . S
C2437 H2425 0.950 . S
C2437 C2433 1.393 . S
C2437 C2436 1.391 . S
C2438 H2428 0.950 . S
C2438 C2439 1.386 . S
C2438 C2440 1.391 . S
C2439 C2438 1.386 . S
C2439 C2443 1.393 . S
C2440 H2429 0.950 . S
C2440 C2438 1.391 . S
C2440 C2441 1.400 . S
C2441 C2435 1.491 . S
C2441 C2440 1.400 . S
C2441 C2442 1.398 . S
C2442 H2430 0.950 . S
C2442 C2441 1.398 . S
C2442 C2443 1.391 . S
C2443 H2431 0.950 . S
C2443 C2439 1.393 . S
C2443 C2442 1.391 . S
H2444 C2452 0.950 . S
H2445 C2457 0.950 . S
H2446 C2454 0.950 . S
H2447 C2456 0.950 . S
H2448 C2458 0.950 . S
H2449 C2460 0.950 . S
H2450 C2462 0.950 . S
H2451 C2463 0.950 . S
C2452 H2444 0.950 . S
C2452 C2453 1.386 . S
C2452 C2454 1.391 . S
C2453 C2452 1.386 . S
C2453 C2457 1.393 . S
C2454 H2446 0.950 . S
C2454 C2452 1.391 . S
C2454 C2455 1.400 . S
C2455 C2454 1.400 . S
C2455 C2456 1.398 . S
C2455 C2461 1.491 . S
C2456 H2447 0.950 . S
C2456 C2455 1.398 . S
C2456 C2457 1.391 . S
C2457 H2445 0.950 . S
C2457 C2453 1.393 . S
C2457 C2456 1.391 . S
C2458 H2448 0.950 . S
C2458 C2459 1.386 . S
C2458 C2460 1.391 . S
C2459 C2458 1.386 . S
C2459 C2463 1.393 . S
C2460 H2449 0.950 . S
C2460 C2458 1.391 . S
C2460 C2461 1.400 . S
C2461 C2455 1.491 . S
C2461 C2460 1.400 . S
C2461 C2462 1.398 . S
C2462 H2450 0.950 . S
C2462 C2461 1.398 . S
C2462 C2463 1.391 . S
C2463 H2451 0.950 . S
C2463 C2459 1.393 . S
C2463 C2462 1.391 . S
H2464 C2472 0.950 . S
H2465 C2477 0.950 . S
H2466 C2474 0.950 . S
H2467 C2476 0.950 . S
H2468 C2478 0.950 . S
H2469 C2480 0.950 . S
H2470 C2482 0.950 . S
H2471 C2483 0.950 . S
C2472 H2464 0.950 . S
C2472 C2473 1.386 . S
C2472 C2474 1.391 . S
C2473 C2472 1.386 . S
C2473 C2477 1.393 . S
C2474 H2466 0.950 . S
C2474 C2472 1.391 . S
C2474 C2475 1.400 . S
C2475 C2474 1.400 . S
C2475 C2476 1.398 . S
C2475 C2481 1.491 . S
C2476 H2467 0.950 . S
C2476 C2475 1.398 . S
C2476 C2477 1.391 . S
C2477 H2465 0.950 . S
C2477 C2473 1.393 . S
C2477 C2476 1.391 . S
C2478 H2468 0.950 . S
C2478 C2479 1.386 . S
C2478 C2480 1.391 . S
C2479 C2478 1.386 . S
C2479 C2483 1.393 . S
C2480 H2469 0.950 . S
C2480 C2478 1.391 . S
C2480 C2481 1.400 . S
C2481 C2475 1.491 . S
C2481 C2480 1.400 . S
C2481 C2482 1.398 . S
C2482 H2470 0.950 . S
C2482 C2481 1.398 . S
C2482 C2483 1.391 . S
C2483 H2471 0.950 . S
C2483 C2479 1.393 . S
C2483 C2482 1.391 . S
H2484 C2492 0.950 . S
H2485 C2497 0.950 . S
H2486 C2494 0.950 . S
H2487 C2496 0.950 . S
H2488 C2498 0.950 . S
H2489 C2500 0.950 . S
H2490 C2502 0.950 . S
H2491 C2503 0.950 . S
C2492 H2484 0.950 . S
C2492 C2493 1.386 . S
C2492 C2494 1.391 . S
C2493 C2492 1.386 . S
C2493 C2497 1.393 . S
C2494 H2486 0.950 . S
C2494 C2492 1.391 . S
C2494 C2495 1.400 . S
C2495 C2494 1.400 . S
C2495 C2496 1.398 . S
C2495 C2501 1.491 . S
C2496 H2487 0.950 . S
C2496 C2495 1.398 . S
C2496 C2497 1.391 . S
C2497 H2485 0.950 . S
C2497 C2493 1.393 . S
C2497 C2496 1.391 . S
C2498 H2488 0.950 . S
C2498 C2499 1.386 . S
C2498 C2500 1.391 . S
C2499 C2498 1.386 . S
C2499 C2503 1.393 . S
C2500 H2489 0.950 . S
C2500 C2498 1.391 . S
C2500 C2501 1.400 . S
C2501 C2495 1.491 . S
C2501 C2500 1.400 . S
C2501 C2502 1.398 . S
C2502 H2490 0.950 . S
C2502 C2501 1.398 . S
C2502 C2503 1.391 . S
C2503 H2491 0.950 . S
C2503 C2499 1.393 . S
C2503 C2502 1.391 . S
H2504 C2512 0.950 . S
H2505 C2517 0.950 . S
H2506 C2514 0.950 . S
H2507 C2516 0.950 . S
H2508 C2518 0.950 . S
H2509 C2520 0.950 . S
H2510 C2522 0.950 . S
H2511 C2523 0.950 . S
C2512 H2504 0.950 . S
C2512 C2513 1.386 . S
C2512 C2514 1.391 . S
C2513 C2512 1.386 . S
C2513 C2517 1.393 . S
C2514 H2506 0.950 . S
C2514 C2512 1.391 . S
C2514 C2515 1.400 . S
C2515 C2514 1.400 . S
C2515 C2516 1.398 . S
C2515 C2521 1.491 . S
C2516 H2507 0.950 . S
C2516 C2515 1.398 . S
C2516 C2517 1.391 . S
C2517 H2505 0.950 . S
C2517 C2513 1.393 . S
C2517 C2516 1.391 . S
C2518 H2508 0.950 . S
C2518 C2519 1.386 . S
C2518 C2520 1.391 . S
C2519 C2518 1.386 . S
C2519 C2523 1.393 . S
C2520 H2509 0.950 . S
C2520 C2518 1.391 . S
C2520 C2521 1.400 . S
C2521 C2515 1.491 . S
C2521 C2520 1.400 . S
C2521 C2522 1.398 . S
C2522 H2510 0.950 . S
C2522 C2521 1.398 . S
C2522 C2523 1.391 . S
C2523 H2511 0.950 . S
C2523 C2519 1.393 . S
C2523 C2522 1.391 . S
H2524 C2532 0.950 . S
H2525 C2537 0.950 . S
H2526 C2534 0.950 . S
H2527 C2536 0.950 . S
H2528 C2538 0.950 . S
H2529 C2540 0.950 . S
H2530 C2542 0.950 . S
H2531 C2543 0.950 . S
C2532 H2524 0.950 . S
C2532 C2533 1.386 . S
C2532 C2534 1.391 . S
C2533 C2532 1.386 . S
C2533 C2537 1.393 . S
C2534 H2526 0.950 . S
C2534 C2532 1.391 . S
C2534 C2535 1.400 . S
C2535 C2534 1.400 . S
C2535 C2536 1.398 . S
C2535 C2541 1.491 . S
C2536 H2527 0.950 . S
C2536 C2535 1.398 . S
C2536 C2537 1.391 . S
C2537 H2525 0.950 . S
C2537 C2533 1.393 . S
C2537 C2536 1.391 . S
C2538 H2528 0.950 . S
C2538 C2539 1.386 . S
C2538 C2540 1.391 . S
C2539 C2538 1.386 . S
C2539 C2543 1.393 . S
C2540 H2529 0.950 . S
C2540 C2538 1.391 . S
C2540 C2541 1.400 . S
C2541 C2535 1.491 . S
C2541 C2540 1.400 . S
C2541 C2542 1.398 . S
C2542 H2530 0.950 . S
C2542 C2541 1.398 . S
C2542 C2543 1.391 . S
C2543 H2531 0.950 . S
C2543 C2539 1.393 . S
C2543 C2542 1.391 . S
C633 C265 1.790 . S
C639 C3 1.782 . S
C653 C17 1.764 . S
C659 C231 1.759 . S
C673 C29 1.779 . S
C679 C237 1.785 . S
C693 C257 1.760 . S
C699 C43 1.768 . S
C713 C304 1.777 . S
C719 C56 1.784 . S
C733 C75 1.763 . S
C739 C283 1.772 . S
C753 C88 1.783 . S
C759 C289 1.788 . S
C773 C101 1.777 . S
C779 C218 1.768 . S
C793 C109 1.776 . S
C799 C200 1.783 . S
C813 C121 1.775 . S
C819 C159 1.775 . S
C833 C135 1.787 . S
C839 C172 1.792 . S
C853 C185 1.775 . S
C859 C147 1.777 . S
C873 C322 1.459 . S
C879 C575 1.471 . S
C893 C537 1.439 . S
C899 C335 1.434 . S
C913 C348 1.466 . S
C919 C549 1.459 . S
C933 C569 1.449 . S
C939 C361 1.435 . S
C953 C369 1.464 . S
C959 C614 1.474 . S
C973 C595 1.441 . S
C979 C387 1.456 . S
C993 C395 1.456 . S
C999 C601 1.471 . S
C1013 C530 1.443 . S
C1019 C407 1.458 . S
C1033 C419 1.469 . S
C1039 C511 1.465 . S
C1053 C473 1.473 . S
C1059 C434 1.459 . S
C1073 C491 1.452 . S
C1079 C447 1.470 . S
C1093 C497 1.461 . S
C1099 C460 1.450 . S
C1113 C341 1.100 . S
C1119 C10 1.117 . S
C1133 C18 1.108 . S
C1139 C354 1.103 . S
C1153 C36 1.092 . S
C1159 C315 1.121 . S
C1173 C44 1.116 . S
C1179 C328 1.105 . S
C1193 C57 1.093 . S
C1199 C394 1.116 . S
C1213 C408 1.120 . S
C1219 C68 1.099 . S
C1233 C368 1.098 . S
C1239 C81 1.113 . S
C1253 C380 1.118 . S
C1259 C94 1.102 . S
C1273 C472 1.112 . S
C1279 C108 1.084 . S
C1293 C122 1.118 . S
C1299 C484 1.108 . S
C1313 C504 1.112 . S
C1319 C134 1.087 . S
C1333 C148 1.099 . S
C1339 C512 1.116 . S
C1353 C166 1.102 . S
C1359 C426 1.098 . S
C1373 C179 1.089 . S
C1379 C433 1.116 . S
C1393 C446 1.102 . S
C1399 C192 1.092 . S
C1413 C459 1.114 . S
C1419 C199 1.093 . S
C1433 C211 1.109 . S
C1439 C562 1.103 . S
C1453 C224 1.092 . S
C1459 C588 1.121 . S
C1473 C608 1.112 . S
C1479 C244 1.083 . S
C1493 C523 1.107 . S
C1499 C250 1.114 . S
C1513 C264 1.099 . S
C1519 C621 1.101 . S
C1533 C538 1.118 . S
C1539 C276 1.101 . S
C1553 C296 1.110 . S
C1559 C556 1.092 . S
C1573 C303 1.089 . S
C1579 C582 1.111 . S
C1593 C374 1.841 . S
C1599 C5 1.895 . S
C1613 C382 1.835 . S
C1619 C23 1.891 . S
C1633 C400 1.846 . S
C1639 C31 1.889 . S
C1653 C49 1.888 . S
C1659 C406 1.831 . S
C1673 C317 1.842 . S
C1679 C62 1.891 . S
C1693 C330 1.831 . S
C1699 C69 1.887 . S
C1713 C82 1.885 . S
C1719 C343 1.843 . S
C1733 C356 1.835 . S
C1739 C95 1.884 . S
C1753 C107 1.894 . S
C1759 C498 1.842 . S
C1773 C127 1.883 . S
C1779 C510 1.850 . S
C1793 C478 1.836 . S
C1799 C133 1.894 . S
C1813 C153 1.883 . S
C1819 C486 1.843 . S
C1833 C452 1.833 . S
C1839 C161 1.892 . S
C1853 C174 1.891 . S
C1859 C465 1.847 . S
C1873 C187 1.883 . S
C1879 C420 1.848 . S
C1893 C198 1.888 . S
C1899 C439 1.858 . S
C1913 C590 1.829 . S
C1919 C212 1.889 . S
C1933 C225 1.881 . S
C1939 C564 1.846 . S
C1953 C239 1.884 . S
C1959 C576 1.854 . S
C1973 C251 1.882 . S
C1979 C536 1.841 . S
C1993 C550 1.850 . S
C1999 C263 1.884 . S
C2013 C525 1.834 . S
C2019 C277 1.886 . S
C2033 C615 1.835 . S
C2039 C291 1.895 . S
C2053 C302 1.892 . S
C2059 C602 1.837 . S
C2073 C205 1.653 . S
C2079 C4 1.654 . S
C2093 C16 1.644 . S
C2099 C160 1.651 . S
C2113 C173 1.664 . S
C2119 C30 1.663 . S
C2133 C186 1.655 . S
C2139 C42 1.648 . S
C2153 C120 1.664 . S
C2159 C55 1.662 . S
C2173 C70 1.642 . S
C2179 C140 1.646 . S
C2193 C83 1.665 . S
C2199 C146 1.663 . S
C2213 C114 1.651 . S
C2219 C96 1.645 . S
C2233 C213 1.640 . S
C2239 C270 1.645 . S
C2253 C309 1.662 . S
C2259 C226 1.659 . S
C2273 C278 1.642 . S
C2279 C238 1.648 . S
C2293 C252 1.660 . S
C2299 C290 1.665 . S
C2313 C517 1.367 . S
C2319 C316 1.369 . S
C2333 C471 1.368 . S
C2339 C329 1.371 . S
C2353 C342 1.348 . S
C2359 C485 1.351 . S
C2373 C499 1.356 . S
C2379 C355 1.368 . S
C2393 C432 1.377 . S
C2399 C367 1.376 . S
C2413 C381 1.382 . S
C2419 C445 1.378 . S
C2433 C393 1.354 . S
C2439 C458 1.359 . S
C2453 C413 1.354 . S
C2459 C421 1.349 . S
C2473 C524 1.348 . S
C2479 C577 1.340 . S
C2493 C616 1.380 . S
C2499 C543 1.388 . S
C2513 C589 1.385 . S
C2519 C551 1.380 . S
C2533 C603 1.379 . S
C2539 C563 1.387 . S
