# Generated by pormake.
# Topology unc, (4)-cn, num edge types: 1
# Building blocks:
#     Node 0, Type 0, BuildingBlock: UXUYUI_clean_sbu_0, # of connection points: 4
#     Node 1, Type 0, BuildingBlock: UXUYUI_clean_sbu_0, # of connection points: 4
#     Node 2, Type 0, BuildingBlock: UXUYUI_clean_sbu_0, # of connection points: 4
#     Node 3, Type 0, BuildingBlock: UXUYUI_clean_sbu_0, # of connection points: 4
#     Edge 4, Type (0, 0), None
#     Edge 5, Type (0, 0), None
#     Edge 6, Type (0, 0), None
#     Edge 7, Type (0, 0), None
#     Edge 8, Type (0, 0), None
#     Edge 9, Type (0, 0), None
#     Edge 10, Type (0, 0), None
#     Edge 11, Type (0, 0), None
# Relax obj value: 0.184
# Max RMSD: 0.213
# Mean RMSD: 0.213
data_MOF--net-unc--node1-UXUYUI_clean_sbu_0--edge1-none
_symmetry_space_group_name_H-M    P1
_symmetry_Int_Tables_number       1
_symmetry_cell_setting            triclinic
loop_
_symmetry_equiv_pos_as_xyz
'x, y, z'
_cell_length_a     27.143103
_cell_length_b     27.143098
_cell_length_c     20.506702
_cell_angle_alpha  89.999966
_cell_angle_beta   90.000209
_cell_angle_gamma 89.999931
loop_
_atom_site_label
_atom_site_type_symbol
_atom_site_fract_x
_atom_site_fract_y
_atom_site_fract_z
_atom_type_partial_charge
Li0 Li 0.04532 0.69717 0.02574 0.0
Li1 Li 0.98411 0.63354 0.05758 0.0
Li2 Li 0.01951 0.63354 0.94563 0.0
Li3 Li 0.95831 0.69717 0.97746 0.0
C4 C 0.10027 0.60602 0.03317 0.0
N5 N 0.19484 0.56877 0.03831 0.0
C6 C 0.11473 0.57638 0.08547 0.0
C7 C 0.13372 0.61653 0.98331 0.0
C8 C 0.16278 0.55796 0.08725 0.0
C9 C 0.18142 0.59739 0.98683 0.0
C10 C 0.96126 0.72433 0.12562 0.0
C11 C 0.89188 0.75035 0.19043 0.0
N12 N 0.92302 0.7618 0.24015 0.0
C13 C 0.99267 0.737 0.17696 0.0
C14 C 0.91053 0.7316 0.13198 0.0
C15 C 0.97258 0.75563 0.23464 0.0
C16 C 0.08808 0.78895 0.05027 0.0
N17 N 0.09547 0.73979 0.05828 0.0
C18 C 0.1693 0.755 0.1187 0.0
C19 C 0.13499 0.72239 0.09196 0.0
C20 C 0.16233 0.80599 0.11183 0.0
C21 C 0.12111 0.8229 0.07697 0.0
H22 H 0.05598 0.80174 0.02395 0.0
H23 H 0.13953 0.68332 0.0994 0.0
C24 C 0.9481 0.54527 0.11259 0.0
N25 N 0.96653 0.59053 0.12724 0.0
C26 C 0.942 0.50993 0.16147 0.0
C27 C 0.9733 0.56862 0.23978 0.0
C28 C 0.97892 0.60273 0.18938 0.0
C29 C 0.9555 0.52114 0.22593 0.0
H30 H 0.94004 0.53584 0.0625 0.0
H31 H 0.99551 0.63802 0.19943 0.0
C32 C 0.04238 0.72432 0.87759 0.0
N33 N 0.08066 0.76178 0.76308 0.0
C34 C 0.01099 0.73701 0.82624 0.0
C35 C 0.09312 0.73157 0.87126 0.0
C36 C 0.0311 0.75562 0.76857 0.0
C37 C 0.11179 0.75031 0.81281 0.0
C38 C 0.90335 0.60602 0.97006 0.0
C39 C 0.88889 0.57635 0.91779 0.0
C40 C 0.8699 0.61656 0.01992 0.0
C41 C 0.84084 0.55793 0.91605 0.0
C42 C 0.82221 0.59741 0.01643 0.0
N43 N 0.80878 0.56877 0.96498 0.0
C44 C 0.05552 0.54527 0.89062 0.0
C45 C 0.02471 0.60273 0.81383 0.0
C46 C 0.06162 0.50993 0.84174 0.0
N47 N 0.0371 0.59053 0.87597 0.0
C48 C 0.03033 0.56862 0.76343 0.0
C49 C 0.04813 0.52114 0.77728 0.0
H50 H 0.06358 0.53583 0.94071 0.0
H51 H 0.00812 0.63802 0.80378 0.0
C52 C 0.91554 0.78895 0.95295 0.0
N53 N 0.90815 0.73979 0.94492 0.0
C54 C 0.8825 0.8229 0.92624 0.0
C55 C 0.83434 0.75499 0.88447 0.0
C56 C 0.86865 0.72238 0.91122 0.0
C57 C 0.84129 0.80599 0.89136 0.0
H58 H 0.94762 0.80174 0.97929 0.0
H59 H 0.86412 0.68332 0.90376 0.0
O60 O 0.05339 0.62428 0.03085 0.0
O61 O 0.98033 0.70665 0.06855 0.0
O62 O 0.0233 0.70665 0.93466 0.0
O63 O 0.95023 0.62428 0.97235 0.0
H64 H 0.0891 0.56783 0.12434 0.0
H65 H 0.12282 0.63886 0.94214 0.0
H66 H 0.17456 0.53505 0.1275 0.0
H67 H 0.20772 0.60518 0.94857 0.0
H68 H 0.85267 0.75599 0.19617 0.0
H69 H 0.0321 0.73211 0.17249 0.0
H70 H 0.88585 0.72327 0.09204 0.0
H71 H 0.9964 0.76522 0.27498 0.0
H72 H 0.20027 0.74052 0.14595 0.0
H73 H 0.11461 0.86194 0.07021 0.0
H74 H 0.92814 0.47379 0.14864 0.0
H75 H 0.98533 0.57851 0.2884 0.0
H76 H 0.97156 0.73213 0.8307 0.0
H77 H 0.11778 0.72323 0.9112 0.0
H78 H 0.0073 0.76523 0.72822 0.0
H79 H 0.15101 0.75593 0.80709 0.0
H80 H 0.91451 0.56778 0.87893 0.0
H81 H 0.88081 0.63891 0.06107 0.0
H82 H 0.82905 0.535 0.87582 0.0
H83 H 0.79591 0.60523 0.05468 0.0
H84 H 0.07548 0.47379 0.85458 0.0
H85 H 0.0183 0.57851 0.71481 0.0
H86 H 0.88899 0.86194 0.93302 0.0
H87 H 0.80338 0.7405 0.8572 0.0
Li88 Li 0.3701 0.98412 0.30756 0.0
Li89 Li 0.30647 0.04533 0.27573 0.0
Li90 Li 0.30646 0.95832 0.22744 0.0
Li91 Li 0.3701 0.01953 0.19561 0.0
C92 C 0.27931 0.96126 0.3756 0.0
N93 N 0.24185 0.92301 0.49012 0.0
C94 C 0.26664 0.99266 0.42695 0.0
C95 C 0.27204 0.91053 0.38194 0.0
C96 C 0.24802 0.97257 0.48462 0.0
C97 C 0.2533 0.89188 0.4404 0.0
C98 C 0.3976 0.10029 0.28313 0.0
C99 C 0.40619 0.18143 0.23678 0.0
N100 N 0.43482 0.19488 0.28824 0.0
C101 C 0.42725 0.11477 0.33542 0.0
C102 C 0.38706 0.13373 0.23327 0.0
C103 C 0.44565 0.16282 0.33718 0.0
C104 C 0.45836 0.94808 0.36258 0.0
N105 N 0.41311 0.96653 0.37722 0.0
C106 C 0.43502 0.97333 0.48975 0.0
C107 C 0.40091 0.97895 0.43935 0.0
C108 C 0.48249 0.9555 0.47591 0.0
C109 C 0.49369 0.94198 0.41146 0.0
H110 H 0.46779 0.94001 0.31249 0.0
H111 H 0.36563 0.99556 0.44939 0.0
C112 C 0.21469 0.0881 0.30023 0.0
N113 N 0.26385 0.09548 0.30827 0.0
C114 C 0.18074 0.12113 0.32694 0.0
C115 C 0.24864 0.16929 0.36873 0.0
C116 C 0.28125 0.13498 0.34198 0.0
C117 C 0.19765 0.16234 0.36183 0.0
H118 H 0.2019 0.05601 0.27389 0.0
H119 H 0.32032 0.13951 0.34944 0.0
C120 C 0.3976 0.90336 0.22003 0.0
N121 N 0.43483 0.80877 0.21491 0.0
C122 C 0.42726 0.88889 0.16774 0.0
C123 C 0.38706 0.86991 0.26989 0.0
C124 C 0.44566 0.84084 0.16598 0.0
C125 C 0.4062 0.82221 0.26638 0.0
C126 C 0.27931 0.04238 0.12757 0.0
C127 C 0.26664 0.01098 0.07622 0.0
C128 C 0.27204 0.09312 0.12122 0.0
C129 C 0.24802 0.03108 0.01855 0.0
C130 C 0.2533 0.11177 0.06277 0.0
N131 N 0.24185 0.08064 0.01305 0.0
C132 C 0.21469 0.91554 0.20296 0.0
C133 C 0.28125 0.86867 0.16118 0.0
C134 C 0.18073 0.8825 0.17625 0.0
N135 N 0.26385 0.90817 0.1949 0.0
C136 C 0.24864 0.83436 0.13443 0.0
C137 C 0.19764 0.84131 0.14135 0.0
H138 H 0.2019 0.94762 0.22932 0.0
H139 H 0.32031 0.86415 0.1537 0.0
C140 C 0.45836 0.05556 0.14058 0.0
N141 N 0.4131 0.03711 0.12594 0.0
C142 C 0.49369 0.06166 0.0917 0.0
C143 C 0.43501 0.0303 0.01341 0.0
C144 C 0.4009 0.02469 0.06382 0.0
C145 C 0.48248 0.04813 0.02725 0.0
H146 H 0.46778 0.06364 0.19066 0.0
H147 H 0.36563 0.00807 0.05377 0.0
O148 O 0.29698 0.98034 0.31852 0.0
O149 O 0.37936 0.0534 0.28083 0.0
O150 O 0.37936 0.95024 0.22233 0.0
O151 O 0.29698 0.02331 0.18464 0.0
H152 H 0.27154 0.0321 0.42248 0.0
H153 H 0.28037 0.88586 0.342 0.0
H154 H 0.23843 0.99638 0.52497 0.0
H155 H 0.24766 0.85266 0.44613 0.0
H156 H 0.39838 0.20773 0.19851 0.0
H157 H 0.43582 0.08915 0.37429 0.0
H158 H 0.36473 0.12282 0.19211 0.0
H159 H 0.46857 0.17461 0.37742 0.0
H160 H 0.42514 0.98538 0.53836 0.0
H161 H 0.52983 0.92811 0.39863 0.0
H162 H 0.1417 0.11464 0.32016 0.0
H163 H 0.26313 0.20025 0.39601 0.0
H164 H 0.43582 0.91451 0.12888 0.0
H165 H 0.36473 0.88082 0.31104 0.0
H166 H 0.46858 0.82904 0.12574 0.0
H167 H 0.39838 0.79591 0.30463 0.0
H168 H 0.27154 0.97155 0.08069 0.0
H169 H 0.28037 0.11779 0.16116 0.0
H170 H 0.23843 0.00727 0.97819 0.0
H171 H 0.24766 0.15099 0.05704 0.0
H172 H 0.1417 0.88899 0.18306 0.0
H173 H 0.26312 0.80341 0.10714 0.0
H174 H 0.52982 0.07554 0.10452 0.0
H175 H 0.42513 0.01825 0.9648 0.0
Li176 Li 0.01952 0.3701 0.55758 0.0
Li177 Li 0.95832 0.30646 0.52574 0.0
Li178 Li 0.04533 0.30647 0.47746 0.0
Li179 Li 0.98412 0.3701 0.44563 0.0
C180 C 0.04239 0.27932 0.62561 0.0
N181 N 0.08066 0.24186 0.74014 0.0
C182 C 0.011 0.26664 0.67697 0.0
C183 C 0.09312 0.27205 0.63196 0.0
C184 C 0.03109 0.24803 0.73464 0.0
C185 C 0.11179 0.25332 0.69041 0.0
C186 C 0.90336 0.3976 0.53315 0.0
C187 C 0.82221 0.40619 0.48679 0.0
N188 N 0.80877 0.43482 0.53825 0.0
C189 C 0.88888 0.42726 0.58543 0.0
C190 C 0.86991 0.38705 0.48329 0.0
C191 C 0.84083 0.44567 0.58718 0.0
C192 C 0.05556 0.45836 0.6126 0.0
N193 N 0.0371 0.41311 0.62724 0.0
C194 C 0.0303 0.43502 0.73977 0.0
C195 C 0.02469 0.40091 0.68937 0.0
C196 C 0.04813 0.48249 0.72593 0.0
C197 C 0.06165 0.49369 0.66148 0.0
H198 H 0.06364 0.46778 0.56252 0.0
H199 H 0.00808 0.36563 0.69941 0.0
C200 C 0.91554 0.21469 0.55022 0.0
N201 N 0.90817 0.26384 0.55828 0.0
C202 C 0.8825 0.18073 0.57692 0.0
C203 C 0.83436 0.24864 0.61876 0.0
C204 C 0.86867 0.28125 0.59201 0.0
C205 C 0.84131 0.19764 0.61183 0.0
H206 H 0.94761 0.2019 0.52386 0.0
H207 H 0.86415 0.32031 0.5995 0.0
C208 C 0.10029 0.3976 0.47004 0.0
N209 N 0.19487 0.43482 0.46491 0.0
C210 C 0.11476 0.42725 0.41774 0.0
C211 C 0.13373 0.38708 0.51991 0.0
C212 C 0.16281 0.44565 0.41598 0.0
C213 C 0.18143 0.40621 0.51639 0.0
C214 C 0.96127 0.27931 0.37759 0.0
C215 C 0.99267 0.26664 0.32624 0.0
C216 C 0.91054 0.27202 0.37123 0.0
C217 C 0.97259 0.24802 0.26856 0.0
C218 C 0.89189 0.25328 0.31278 0.0
N219 N 0.92303 0.24184 0.26306 0.0
C220 C 0.0881 0.21469 0.45295 0.0
C221 C 0.13499 0.28125 0.41121 0.0
C222 C 0.12113 0.18074 0.42624 0.0
N223 N 0.09548 0.26385 0.44491 0.0
C224 C 0.1693 0.24864 0.38446 0.0
C225 C 0.16234 0.19765 0.39135 0.0
H226 H 0.05601 0.2019 0.47928 0.0
H227 H 0.13952 0.32032 0.40375 0.0
C228 C 0.94808 0.45836 0.39061 0.0
N229 N 0.96653 0.41311 0.37596 0.0
C230 C 0.94198 0.4937 0.34173 0.0
C231 C 0.97333 0.43502 0.26344 0.0
C232 C 0.97895 0.40091 0.31384 0.0
C233 C 0.9555 0.48249 0.27728 0.0
H234 H 0.94001 0.46778 0.44069 0.0
H235 H 0.99555 0.36563 0.30379 0.0
O236 O 0.02331 0.29698 0.56854 0.0
O237 O 0.95024 0.37936 0.53086 0.0
O238 O 0.0534 0.37936 0.47235 0.0
O239 O 0.98034 0.29698 0.43466 0.0
H240 H 0.97156 0.27153 0.6725 0.0
H241 H 0.11779 0.28038 0.59201 0.0
H242 H 0.00729 0.23843 0.775 0.0
H243 H 0.151 0.24769 0.69614 0.0
H244 H 0.79591 0.39836 0.44853 0.0
H245 H 0.9145 0.43584 0.62429 0.0
H246 H 0.88082 0.36471 0.44214 0.0
H247 H 0.82904 0.46859 0.62741 0.0
H248 H 0.01825 0.42514 0.78839 0.0
H249 H 0.07553 0.52983 0.64865 0.0
H250 H 0.88898 0.1417 0.57012 0.0
H251 H 0.80342 0.26312 0.64605 0.0
H252 H 0.08914 0.4358 0.37888 0.0
H253 H 0.12282 0.36475 0.56107 0.0
H254 H 0.17461 0.46855 0.37573 0.0
H255 H 0.20773 0.3984 0.55465 0.0
H256 H 0.03211 0.27155 0.33071 0.0
H257 H 0.88586 0.28035 0.41117 0.0
H258 H 0.9964 0.23843 0.22821 0.0
H259 H 0.85267 0.24764 0.30705 0.0
H260 H 0.11464 0.1417 0.43302 0.0
H261 H 0.20025 0.26313 0.35719 0.0
H262 H 0.92811 0.52983 0.35456 0.0
H263 H 0.98538 0.42514 0.21482 0.0
Li264 Li 0.63353 0.01952 0.80756 0.0
Li265 Li 0.69717 0.95831 0.77572 0.0
Li266 Li 0.69717 0.04532 0.72744 0.0
Li267 Li 0.63354 0.98411 0.6956 0.0
C268 C 0.72432 0.04238 0.8756 0.0
N269 N 0.76178 0.08065 0.99011 0.0
C270 C 0.737 0.01099 0.92695 0.0
C271 C 0.73158 0.09311 0.88194 0.0
C272 C 0.75562 0.03109 0.98461 0.0
C273 C 0.75032 0.11178 0.94039 0.0
C274 C 0.60602 0.90336 0.78313 0.0
C275 C 0.5974 0.82221 0.73678 0.0
N276 N 0.56877 0.80878 0.78824 0.0
C277 C 0.57636 0.88889 0.83542 0.0
C278 C 0.61655 0.86991 0.73328 0.0
C279 C 0.55793 0.84085 0.83717 0.0
C280 C 0.54526 0.05553 0.86256 0.0
N281 N 0.59052 0.0371 0.87722 0.0
C282 C 0.56862 0.03033 0.98975 0.0
C283 C 0.60273 0.02471 0.93935 0.0
C284 C 0.52114 0.04813 0.9759 0.0
C285 C 0.50992 0.06163 0.91144 0.0
H286 H 0.53583 0.06358 0.81247 0.0
H287 H 0.63802 0.00813 0.94941 0.0
C288 C 0.78895 0.91554 0.80024 0.0
N289 N 0.73979 0.90815 0.80827 0.0
C290 C 0.8229 0.8825 0.82695 0.0
C291 C 0.75499 0.83434 0.86872 0.0
C292 C 0.72238 0.86865 0.84197 0.0
C293 C 0.80598 0.8413 0.86183 0.0
H294 H 0.80174 0.94762 0.7739 0.0
H295 H 0.68332 0.86412 0.84942 0.0
C296 C 0.60602 0.10027 0.72003 0.0
N297 N 0.56876 0.19485 0.7149 0.0
C298 C 0.57637 0.11474 0.66773 0.0
C299 C 0.61654 0.13372 0.76989 0.0
C300 C 0.55794 0.16278 0.66597 0.0
C301 C 0.59739 0.18142 0.76637 0.0
C302 C 0.72433 0.96126 0.62757 0.0
C303 C 0.737 0.99266 0.57622 0.0
C304 C 0.73159 0.91053 0.62122 0.0
C305 C 0.75562 0.97257 0.51855 0.0
C306 C 0.75033 0.89187 0.56277 0.0
N307 N 0.76179 0.92301 0.51305 0.0
C308 C 0.78895 0.08808 0.70291 0.0
C309 C 0.72239 0.135 0.66123 0.0
C310 C 0.8229 0.12111 0.67621 0.0
N311 N 0.73979 0.09547 0.69491 0.0
C312 C 0.755 0.16931 0.63449 0.0
C313 C 0.80599 0.16233 0.64135 0.0
H314 H 0.80174 0.05598 0.72923 0.0
H315 H 0.68332 0.13954 0.65379 0.0
C316 C 0.54527 0.9481 0.64059 0.0
N317 N 0.59053 0.96653 0.62594 0.0
C318 C 0.50993 0.942 0.59172 0.0
C319 C 0.56862 0.9733 0.51341 0.0
C320 C 0.60273 0.97892 0.56381 0.0
C321 C 0.52114 0.9555 0.52726 0.0
H322 H 0.53584 0.94004 0.69068 0.0
H323 H 0.63802 0.99551 0.55376 0.0
O324 O 0.70665 0.0233 0.81853 0.0
O325 O 0.62427 0.95023 0.78083 0.0
O326 O 0.62428 0.0534 0.72233 0.0
O327 O 0.70665 0.98033 0.68464 0.0
H328 H 0.73212 0.97155 0.92248 0.0
H329 H 0.72324 0.11778 0.842 0.0
H330 H 0.76523 0.00728 0.02497 0.0
H331 H 0.75594 0.151 0.94611 0.0
H332 H 0.60522 0.79591 0.69852 0.0
H333 H 0.56779 0.91452 0.87428 0.0
H334 H 0.63889 0.88081 0.69212 0.0
H335 H 0.53501 0.82906 0.87741 0.0
H336 H 0.5785 0.01831 0.03837 0.0
H337 H 0.47379 0.07548 0.8986 0.0
H338 H 0.86193 0.889 0.82017 0.0
H339 H 0.7405 0.80338 0.89599 0.0
H340 H 0.56781 0.08911 0.62887 0.0
H341 H 0.63887 0.12282 0.81105 0.0
H342 H 0.53503 0.17456 0.62572 0.0
H343 H 0.60519 0.20772 0.80463 0.0
H344 H 0.73211 0.03209 0.5807 0.0
H345 H 0.72326 0.88585 0.66115 0.0
H346 H 0.76522 0.99638 0.4782 0.0
H347 H 0.75596 0.85265 0.55703 0.0
H348 H 0.86194 0.1146 0.68297 0.0
H349 H 0.74051 0.20027 0.60724 0.0
H350 H 0.47379 0.92814 0.60455 0.0
H351 H 0.57851 0.98534 0.46479 0.0
loop_
_geom_bond_atom_site_label_1
_geom_bond_atom_site_label_2
_geom_bond_distance
_geom_bond_site_symmetry_2
_ccdc_geom_bond_type
Li0 N17 1.990 . S
Li0 O60 1.956 . S
Li0 O61 1.970 1_455 S
Li0 O62 1.961 1_554 S
Li1 N25 1.990 . S
Li1 O60 1.970 1_655 S
Li1 O61 1.956 . S
Li1 O63 1.961 1_554 S
Li2 N47 1.990 . S
Li2 O60 1.961 1_556 S
Li2 O62 1.956 . S
Li2 O63 1.970 1_455 S
Li3 N53 1.990 . S
Li3 O61 1.961 1_556 S
Li3 O62 1.970 1_655 S
Li3 O63 1.956 . S
C4 C6 1.348 . S
C4 C7 1.356 1_554 S
C4 O60 1.325 . S
N5 C8 1.314 . S
N5 C9 1.279 . S
C6 C4 1.348 . S
C6 C8 1.353 . S
C6 H64 0.929 . S
C7 C4 1.356 1_556 S
C7 C9 1.358 1_556 S
C7 H65 0.930 . S
C8 N5 1.314 . S
C8 C6 1.353 . S
C8 H66 0.930 . S
C9 N5 1.279 . S
C9 C7 1.358 1_554 S
C9 H67 0.930 1_554 S
C10 C13 1.348 1_655 S
C10 C14 1.356 . S
C10 O61 1.325 . S
C11 N12 1.279 . S
C11 C14 1.358 . S
C11 H68 0.930 . S
N12 C11 1.279 . S
N12 C15 1.314 . S
C13 C10 1.348 1_455 S
C13 C15 1.353 1_455 S
C13 H69 0.929 . S
C14 C10 1.356 . S
C14 C11 1.358 . S
C14 H70 0.930 . S
C15 N12 1.314 . S
C15 C13 1.353 1_655 S
C15 H71 0.930 1_655 S
C16 N17 1.314 . S
C16 C21 1.353 . S
C16 H22 0.930 1_554 S
N17 Li0 1.990 . S
N17 C16 1.314 . S
N17 C19 1.279 . S
C18 C19 1.358 . S
C18 C20 1.356 . S
C18 H72 0.930 . S
C19 N17 1.279 . S
C19 C18 1.358 . S
C19 H23 0.930 . S
C20 C18 1.356 . S
C20 C21 1.348 . S
C21 C16 1.353 . S
C21 C20 1.348 . S
C21 H73 0.929 . S
H22 C16 0.930 1_556 S
H23 C19 0.930 . S
C24 N25 1.314 . S
C24 C26 1.353 . S
C24 H30 0.930 . S
N25 Li1 1.990 . S
N25 C24 1.314 . S
N25 C28 1.279 . S
C26 C24 1.353 . S
C26 C29 1.348 . S
C26 H74 0.929 . S
C27 C28 1.358 . S
C27 C29 1.356 . S
C27 H75 0.930 . S
C28 N25 1.279 . S
C28 C27 1.358 . S
C28 H31 0.930 . S
C29 C26 1.348 . S
C29 C27 1.356 . S
H30 C24 0.930 . S
H31 C28 0.930 . S
C32 C34 1.348 1_455 S
C32 C35 1.356 . S
C32 O62 1.325 . S
N33 C36 1.314 . S
N33 C37 1.279 . S
C34 C32 1.348 1_655 S
C34 C36 1.353 1_655 S
C34 H76 0.929 . S
C35 C32 1.356 . S
C35 C37 1.358 . S
C35 H77 0.930 . S
C36 N33 1.314 . S
C36 C34 1.353 1_455 S
C36 H78 0.930 1_455 S
C37 N33 1.279 . S
C37 C35 1.358 . S
C37 H79 0.930 . S
C38 C39 1.348 . S
C38 C40 1.356 1_556 S
C38 O63 1.325 . S
C39 C38 1.348 . S
C39 C41 1.353 . S
C39 H80 0.929 . S
C40 C38 1.356 1_554 S
C40 C42 1.358 1_554 S
C40 H81 0.930 . S
C41 C39 1.353 . S
C41 N43 1.314 . S
C41 H82 0.930 . S
C42 C40 1.358 1_556 S
C42 N43 1.279 . S
C42 H83 0.930 1_556 S
N43 C41 1.314 . S
N43 C42 1.279 . S
C44 C46 1.353 . S
C44 N47 1.314 . S
C44 H50 0.930 . S
C45 N47 1.279 . S
C45 C48 1.358 . S
C45 H51 0.930 . S
C46 C44 1.353 . S
C46 C49 1.348 . S
C46 H84 0.929 . S
N47 Li2 1.990 . S
N47 C44 1.314 . S
N47 C45 1.279 . S
C48 C45 1.358 . S
C48 C49 1.356 . S
C48 H85 0.930 . S
C49 C46 1.348 . S
C49 C48 1.356 . S
H50 C44 0.930 . S
H51 C45 0.930 . S
C52 N53 1.314 . S
C52 C54 1.353 . S
C52 H58 0.930 1_556 S
N53 Li3 1.990 . S
N53 C52 1.314 . S
N53 C56 1.279 . S
C54 C52 1.353 . S
C54 C57 1.348 . S
C54 H86 0.929 . S
C55 C56 1.358 . S
C55 C57 1.356 . S
C55 H87 0.930 . S
C56 N53 1.279 . S
C56 C55 1.358 . S
C56 H59 0.930 . S
C57 C54 1.348 . S
C57 C55 1.356 . S
H58 C52 0.930 1_554 S
H59 C56 0.930 . S
O60 Li0 1.956 . S
O60 Li1 1.970 1_455 S
O60 Li2 1.961 1_554 S
O60 C4 1.325 . S
O61 Li0 1.970 1_655 S
O61 Li1 1.956 . S
O61 Li3 1.961 1_554 S
O61 C10 1.325 . S
O62 Li0 1.961 1_556 S
O62 Li2 1.956 . S
O62 Li3 1.970 1_455 S
O62 C32 1.325 . S
O63 Li1 1.961 1_556 S
O63 Li2 1.970 1_655 S
O63 Li3 1.956 . S
O63 C38 1.325 . S
H64 C6 0.929 . S
H65 C7 0.930 . S
H66 C8 0.930 . S
H67 C9 0.930 1_556 S
H68 C11 0.930 . S
H69 C13 0.929 . S
H70 C14 0.930 . S
H71 C15 0.930 1_455 S
H72 C18 0.930 . S
H73 C21 0.929 . S
H74 C26 0.929 . S
H75 C27 0.930 . S
H76 C34 0.929 . S
H77 C35 0.930 . S
H78 C36 0.930 1_655 S
H79 C37 0.930 . S
H80 C39 0.929 . S
H81 C40 0.930 . S
H82 C41 0.930 . S
H83 C42 0.930 1_554 S
H84 C46 0.929 . S
H85 C48 0.930 . S
H86 C54 0.929 . S
H87 C55 0.930 . S
Li88 N105 1.990 . S
Li88 O148 1.956 . S
Li88 O149 1.970 1_565 S
Li88 O150 1.961 . S
Li89 N113 1.990 . S
Li89 O148 1.970 1_545 S
Li89 O149 1.956 . S
Li89 O151 1.961 . S
Li90 N135 1.990 . S
Li90 O148 1.961 . S
Li90 O150 1.956 . S
Li90 O151 1.970 1_565 S
Li91 N141 1.990 . S
Li91 O149 1.961 . S
Li91 O150 1.970 1_545 S
Li91 O151 1.956 . S
C92 C94 1.348 1_565 S
C92 C95 1.356 . S
C92 O148 1.325 . S
N93 C96 1.314 . S
N93 C97 1.279 . S
C94 C92 1.348 1_545 S
C94 C96 1.353 1_545 S
C94 H152 0.929 . S
C95 C92 1.356 . S
C95 C97 1.358 . S
C95 H153 0.930 . S
C96 N93 1.314 . S
C96 C94 1.353 1_565 S
C96 H154 0.930 1_565 S
C97 N93 1.279 . S
C97 C95 1.358 . S
C97 H155 0.930 . S
C98 C101 1.348 . S
C98 C102 1.356 . S
C98 O149 1.325 . S
C99 N100 1.279 . S
C99 C102 1.358 . S
C99 H156 0.930 . S
N100 C99 1.279 . S
N100 C103 1.314 . S
C101 C98 1.348 . S
C101 C103 1.353 . S
C101 H157 0.929 . S
C102 C98 1.356 . S
C102 C99 1.358 . S
C102 H158 0.930 . S
C103 N100 1.314 . S
C103 C101 1.353 . S
C103 H159 0.930 . S
C104 N105 1.314 . S
C104 C109 1.353 . S
C104 H110 0.930 . S
N105 Li88 1.990 . S
N105 C104 1.314 . S
N105 C107 1.279 . S
C106 C107 1.358 . S
C106 C108 1.356 . S
C106 H160 0.930 . S
C107 N105 1.279 . S
C107 C106 1.358 . S
C107 H111 0.930 . S
C108 C106 1.356 . S
C108 C109 1.348 . S
C109 C104 1.353 . S
C109 C108 1.348 . S
C109 H161 0.929 . S
H110 C104 0.930 . S
H111 C107 0.930 . S
C112 N113 1.314 . S
C112 C114 1.353 . S
C112 H118 0.930 . S
N113 Li89 1.990 . S
N113 C112 1.314 . S
N113 C116 1.279 . S
C114 C112 1.353 . S
C114 C117 1.348 . S
C114 H162 0.929 . S
C115 C116 1.358 . S
C115 C117 1.356 . S
C115 H163 0.930 . S
C116 N113 1.279 . S
C116 C115 1.358 . S
C116 H119 0.930 . S
C117 C114 1.348 . S
C117 C115 1.356 . S
H118 C112 0.930 . S
H119 C116 0.930 . S
C120 C122 1.348 . S
C120 C123 1.356 . S
C120 O150 1.325 . S
N121 C124 1.314 . S
N121 C125 1.279 . S
C122 C120 1.348 . S
C122 C124 1.353 . S
C122 H164 0.929 . S
C123 C120 1.356 . S
C123 C125 1.358 . S
C123 H165 0.930 . S
C124 N121 1.314 . S
C124 C122 1.353 . S
C124 H166 0.930 . S
C125 N121 1.279 . S
C125 C123 1.358 . S
C125 H167 0.930 . S
C126 C127 1.348 1_545 S
C126 C128 1.356 . S
C126 O151 1.325 . S
C127 C126 1.348 1_565 S
C127 C129 1.353 1_565 S
C127 H168 0.929 . S
C128 C126 1.356 . S
C128 C130 1.358 . S
C128 H169 0.930 . S
C129 C127 1.353 1_545 S
C129 N131 1.314 . S
C129 H170 0.930 1_545 S
C130 C128 1.358 . S
C130 N131 1.279 . S
C130 H171 0.930 . S
N131 C129 1.314 . S
N131 C130 1.279 . S
C132 C134 1.353 . S
C132 N135 1.314 . S
C132 H138 0.930 . S
C133 N135 1.279 . S
C133 C136 1.358 . S
C133 H139 0.930 . S
C134 C132 1.353 . S
C134 C137 1.348 . S
C134 H172 0.929 . S
N135 Li90 1.990 . S
N135 C132 1.314 . S
N135 C133 1.279 . S
C136 C133 1.358 . S
C136 C137 1.356 . S
C136 H173 0.930 . S
C137 C134 1.348 . S
C137 C136 1.356 . S
H138 C132 0.930 . S
H139 C133 0.930 . S
C140 N141 1.314 . S
C140 C142 1.353 . S
C140 H146 0.930 . S
N141 Li91 1.990 . S
N141 C140 1.314 . S
N141 C144 1.279 . S
C142 C140 1.353 . S
C142 C145 1.348 . S
C142 H174 0.929 . S
C143 C144 1.358 1_556 S
C143 C145 1.356 1_556 S
C143 H175 0.930 . S
C144 N141 1.279 . S
C144 C143 1.358 1_554 S
C144 H147 0.930 . S
C145 C142 1.348 . S
C145 C143 1.356 1_554 S
H146 C140 0.930 . S
H147 C144 0.930 . S
O148 Li88 1.956 . S
O148 Li89 1.970 1_565 S
O148 Li90 1.961 . S
O148 C92 1.325 . S
O149 Li88 1.970 1_545 S
O149 Li89 1.956 . S
O149 Li91 1.961 . S
O149 C98 1.325 . S
O150 Li88 1.961 . S
O150 Li90 1.956 . S
O150 Li91 1.970 1_565 S
O150 C120 1.325 . S
O151 Li89 1.961 . S
O151 Li90 1.970 1_545 S
O151 Li91 1.956 . S
O151 C126 1.325 . S
H152 C94 0.929 . S
H153 C95 0.930 . S
H154 C96 0.930 1_545 S
H155 C97 0.930 . S
H156 C99 0.930 . S
H157 C101 0.929 . S
H158 C102 0.930 . S
H159 C103 0.930 . S
H160 C106 0.930 . S
H161 C109 0.929 . S
H162 C114 0.929 . S
H163 C115 0.930 . S
H164 C122 0.929 . S
H165 C123 0.930 . S
H166 C124 0.930 . S
H167 C125 0.930 . S
H168 C127 0.929 . S
H169 C128 0.930 . S
H170 C129 0.930 1_565 S
H171 C130 0.930 . S
H172 C134 0.929 . S
H173 C136 0.930 . S
H174 C142 0.929 . S
H175 C143 0.930 . S
Li176 N193 1.990 . S
Li176 O236 1.956 . S
Li176 O237 1.970 1_455 S
Li176 O238 1.961 . S
Li177 N201 1.990 . S
Li177 O236 1.970 1_655 S
Li177 O237 1.956 . S
Li177 O239 1.961 . S
Li178 N223 1.990 . S
Li178 O236 1.961 . S
Li178 O238 1.956 . S
Li178 O239 1.970 1_455 S
Li179 N229 1.990 . S
Li179 O237 1.961 . S
Li179 O238 1.970 1_655 S
Li179 O239 1.956 . S
C180 C182 1.348 1_455 S
C180 C183 1.356 . S
C180 O236 1.325 . S
N181 C184 1.314 . S
N181 C185 1.279 . S
C182 C180 1.348 1_655 S
C182 C184 1.353 1_655 S
C182 H240 0.929 . S
C183 C180 1.356 . S
C183 C185 1.358 . S
C183 H241 0.930 . S
C184 N181 1.314 . S
C184 C182 1.353 1_455 S
C184 H242 0.930 1_455 S
C185 N181 1.279 . S
C185 C183 1.358 . S
C185 H243 0.930 . S
C186 C189 1.348 . S
C186 C190 1.356 . S
C186 O237 1.325 . S
C187 N188 1.279 . S
C187 C190 1.358 . S
C187 H244 0.930 . S
N188 C187 1.279 . S
N188 C191 1.314 . S
C189 C186 1.348 . S
C189 C191 1.353 . S
C189 H245 0.929 . S
C190 C186 1.356 . S
C190 C187 1.358 . S
C190 H246 0.930 . S
C191 N188 1.314 . S
C191 C189 1.353 . S
C191 H247 0.930 . S
C192 N193 1.314 . S
C192 C197 1.353 . S
C192 H198 0.930 . S
N193 Li176 1.990 . S
N193 C192 1.314 . S
N193 C195 1.279 . S
C194 C195 1.358 . S
C194 C196 1.356 . S
C194 H248 0.930 . S
C195 N193 1.279 . S
C195 C194 1.358 . S
C195 H199 0.930 . S
C196 C194 1.356 . S
C196 C197 1.348 . S
C197 C192 1.353 . S
C197 C196 1.348 . S
C197 H249 0.929 . S
H198 C192 0.930 . S
H199 C195 0.930 . S
C200 N201 1.314 . S
C200 C202 1.353 . S
C200 H206 0.930 . S
N201 Li177 1.990 . S
N201 C200 1.314 . S
N201 C204 1.279 . S
C202 C200 1.353 . S
C202 C205 1.348 . S
C202 H250 0.929 . S
C203 C204 1.358 . S
C203 C205 1.356 . S
C203 H251 0.930 . S
C204 N201 1.279 . S
C204 C203 1.358 . S
C204 H207 0.930 . S
C205 C202 1.348 . S
C205 C203 1.356 . S
H206 C200 0.930 . S
H207 C204 0.930 . S
C208 C210 1.348 . S
C208 C211 1.356 . S
C208 O238 1.325 . S
N209 C212 1.314 . S
N209 C213 1.279 . S
C210 C208 1.348 . S
C210 C212 1.353 . S
C210 H252 0.929 . S
C211 C208 1.356 . S
C211 C213 1.358 . S
C211 H253 0.930 . S
C212 N209 1.314 . S
C212 C210 1.353 . S
C212 H254 0.930 . S
C213 N209 1.279 . S
C213 C211 1.358 . S
C213 H255 0.930 . S
C214 C215 1.348 1_655 S
C214 C216 1.356 . S
C214 O239 1.325 . S
C215 C214 1.348 1_455 S
C215 C217 1.353 1_455 S
C215 H256 0.929 . S
C216 C214 1.356 . S
C216 C218 1.358 . S
C216 H257 0.930 . S
C217 C215 1.353 1_655 S
C217 N219 1.314 . S
C217 H258 0.930 1_655 S
C218 C216 1.358 . S
C218 N219 1.279 . S
C218 H259 0.930 . S
N219 C217 1.314 . S
N219 C218 1.279 . S
C220 C222 1.353 . S
C220 N223 1.314 . S
C220 H226 0.930 . S
C221 N223 1.279 . S
C221 C224 1.358 . S
C221 H227 0.930 . S
C222 C220 1.353 . S
C222 C225 1.348 . S
C222 H260 0.929 . S
N223 Li178 1.990 . S
N223 C220 1.314 . S
N223 C221 1.279 . S
C224 C221 1.358 . S
C224 C225 1.356 . S
C224 H261 0.930 . S
C225 C222 1.348 . S
C225 C224 1.356 . S
H226 C220 0.930 . S
H227 C221 0.930 . S
C228 N229 1.314 . S
C228 C230 1.353 . S
C228 H234 0.930 . S
N229 Li179 1.990 . S
N229 C228 1.314 . S
N229 C232 1.279 . S
C230 C228 1.353 . S
C230 C233 1.348 . S
C230 H262 0.929 . S
C231 C232 1.358 . S
C231 C233 1.356 . S
C231 H263 0.930 . S
C232 N229 1.279 . S
C232 C231 1.358 . S
C232 H235 0.930 . S
C233 C230 1.348 . S
C233 C231 1.356 . S
H234 C228 0.930 . S
H235 C232 0.930 . S
O236 Li176 1.956 . S
O236 Li177 1.970 1_455 S
O236 Li178 1.961 . S
O236 C180 1.325 . S
O237 Li176 1.970 1_655 S
O237 Li177 1.956 . S
O237 Li179 1.961 . S
O237 C186 1.325 . S
O238 Li176 1.961 . S
O238 Li178 1.956 . S
O238 Li179 1.970 1_455 S
O238 C208 1.325 . S
O239 Li177 1.961 . S
O239 Li178 1.970 1_655 S
O239 Li179 1.956 . S
O239 C214 1.325 . S
H240 C182 0.929 . S
H241 C183 0.930 . S
H242 C184 0.930 1_655 S
H243 C185 0.930 . S
H244 C187 0.930 . S
H245 C189 0.929 . S
H246 C190 0.930 . S
H247 C191 0.930 . S
H248 C194 0.930 . S
H249 C197 0.929 . S
H250 C202 0.929 . S
H251 C203 0.930 . S
H252 C210 0.929 . S
H253 C211 0.930 . S
H254 C212 0.930 . S
H255 C213 0.930 . S
H256 C215 0.929 . S
H257 C216 0.930 . S
H258 C217 0.930 1_455 S
H259 C218 0.930 . S
H260 C222 0.929 . S
H261 C224 0.930 . S
H262 C230 0.929 . S
H263 C231 0.930 . S
Li264 N281 1.990 . S
Li264 O324 1.956 . S
Li264 O325 1.970 1_545 S
Li264 O326 1.961 . S
Li265 N289 1.990 . S
Li265 O324 1.970 1_565 S
Li265 O325 1.956 . S
Li265 O327 1.961 . S
Li266 N311 1.990 . S
Li266 O324 1.961 . S
Li266 O326 1.956 . S
Li266 O327 1.970 1_545 S
Li267 N317 1.990 . S
Li267 O325 1.961 . S
Li267 O326 1.970 1_565 S
Li267 O327 1.956 . S
C268 C270 1.348 1_545 S
C268 C271 1.356 . S
C268 O324 1.325 . S
N269 C272 1.314 . S
N269 C273 1.279 . S
C270 C268 1.348 1_565 S
C270 C272 1.353 1_565 S
C270 H328 0.929 . S
C271 C268 1.356 . S
C271 C273 1.358 . S
C271 H329 0.930 . S
C272 N269 1.314 . S
C272 C270 1.353 1_545 S
C272 H330 0.930 1_545 S
C273 N269 1.279 . S
C273 C271 1.358 . S
C273 H331 0.930 . S
C274 C277 1.348 . S
C274 C278 1.356 . S
C274 O325 1.325 . S
C275 N276 1.279 . S
C275 C278 1.358 . S
C275 H332 0.930 . S
N276 C275 1.279 . S
N276 C279 1.314 . S
C277 C274 1.348 . S
C277 C279 1.353 . S
C277 H333 0.929 . S
C278 C274 1.356 . S
C278 C275 1.358 . S
C278 H334 0.930 . S
C279 N276 1.314 . S
C279 C277 1.353 . S
C279 H335 0.930 . S
C280 N281 1.314 . S
C280 C285 1.353 . S
C280 H286 0.930 . S
N281 Li264 1.990 . S
N281 C280 1.314 . S
N281 C283 1.279 . S
C282 C283 1.358 1_554 S
C282 C284 1.356 1_554 S
C282 H336 0.930 . S
C283 N281 1.279 . S
C283 C282 1.358 1_556 S
C283 H287 0.930 . S
C284 C282 1.356 1_556 S
C284 C285 1.348 . S
C285 C280 1.353 . S
C285 C284 1.348 . S
C285 H337 0.929 . S
H286 C280 0.930 . S
H287 C283 0.930 . S
C288 N289 1.314 . S
C288 C290 1.353 . S
C288 H294 0.930 . S
N289 Li265 1.990 . S
N289 C288 1.314 . S
N289 C292 1.279 . S
C290 C288 1.353 . S
C290 C293 1.348 . S
C290 H338 0.929 . S
C291 C292 1.358 . S
C291 C293 1.356 . S
C291 H339 0.930 . S
C292 N289 1.279 . S
C292 C291 1.358 . S
C292 H295 0.930 . S
C293 C290 1.348 . S
C293 C291 1.356 . S
H294 C288 0.930 . S
H295 C292 0.930 . S
C296 C298 1.348 . S
C296 C299 1.356 . S
C296 O326 1.325 . S
N297 C300 1.314 . S
N297 C301 1.279 . S
C298 C296 1.348 . S
C298 C300 1.353 . S
C298 H340 0.929 . S
C299 C296 1.356 . S
C299 C301 1.358 . S
C299 H341 0.930 . S
C300 N297 1.314 . S
C300 C298 1.353 . S
C300 H342 0.930 . S
C301 N297 1.279 . S
C301 C299 1.358 . S
C301 H343 0.930 . S
C302 C303 1.348 1_565 S
C302 C304 1.356 . S
C302 O327 1.325 . S
C303 C302 1.348 1_545 S
C303 C305 1.353 1_545 S
C303 H344 0.929 . S
C304 C302 1.356 . S
C304 C306 1.358 . S
C304 H345 0.930 . S
C305 C303 1.353 1_565 S
C305 N307 1.314 . S
C305 H346 0.930 1_565 S
C306 C304 1.358 . S
C306 N307 1.279 . S
C306 H347 0.930 . S
N307 C305 1.314 . S
N307 C306 1.279 . S
C308 C310 1.353 . S
C308 N311 1.314 . S
C308 H314 0.930 . S
C309 N311 1.279 . S
C309 C312 1.358 . S
C309 H315 0.930 . S
C310 C308 1.353 . S
C310 C313 1.348 . S
C310 H348 0.929 . S
N311 Li266 1.990 . S
N311 C308 1.314 . S
N311 C309 1.279 . S
C312 C309 1.358 . S
C312 C313 1.356 . S
C312 H349 0.930 . S
C313 C310 1.348 . S
C313 C312 1.356 . S
H314 C308 0.930 . S
H315 C309 0.930 . S
C316 N317 1.314 . S
C316 C318 1.353 . S
C316 H322 0.930 . S
N317 Li267 1.990 . S
N317 C316 1.314 . S
N317 C320 1.279 . S
C318 C316 1.353 . S
C318 C321 1.348 . S
C318 H350 0.929 . S
C319 C320 1.358 . S
C319 C321 1.356 . S
C319 H351 0.930 . S
C320 N317 1.279 . S
C320 C319 1.358 . S
C320 H323 0.930 . S
C321 C318 1.348 . S
C321 C319 1.356 . S
H322 C316 0.930 . S
H323 C320 0.930 . S
O324 Li264 1.956 . S
O324 Li265 1.970 1_545 S
O324 Li266 1.961 . S
O324 C268 1.325 . S
O325 Li264 1.970 1_565 S
O325 Li265 1.956 . S
O325 Li267 1.961 . S
O325 C274 1.325 . S
O326 Li264 1.961 . S
O326 Li266 1.956 . S
O326 Li267 1.970 1_545 S
O326 C296 1.325 . S
O327 Li265 1.961 . S
O327 Li266 1.970 1_565 S
O327 Li267 1.956 . S
O327 C302 1.325 . S
H328 C270 0.929 . S
H329 C271 0.930 . S
H330 C272 0.930 1_565 S
H331 C273 0.930 . S
H332 C275 0.930 . S
H333 C277 0.929 . S
H334 C278 0.930 . S
H335 C279 0.930 . S
H336 C282 0.930 . S
H337 C285 0.929 . S
H338 C290 0.929 . S
H339 C291 0.930 . S
H340 C298 0.929 . S
H341 C299 0.930 . S
H342 C300 0.930 . S
H343 C301 0.930 . S
H344 C303 0.929 . S
H345 C304 0.930 . S
H346 C305 0.930 1_545 S
H347 C306 0.930 . S
H348 C310 0.929 . S
H349 C312 0.930 . S
H350 C318 0.929 . S
H351 C319 0.930 . S
C29 C233 1.082 . S
C108 C321 1.082 . S
C49 C196 1.083 . S
C145 C284 1.082 1_554 S
C137 C20 2.625 . S
C117 C225 2.626 . S
C313 C205 2.627 . S
C293 C57 2.630 . S
