# Generated by pormake.
# Topology wme, (6)-cn, num edge types: 1
# Building blocks:
#     Node 0, Type 0, BuildingBlock: NUHQIS_clean_sbu_0, # of connection points: 6
#     Node 1, Type 0, BuildingBlock: NUHQIS_clean_sbu_0, # of connection points: 6
#     Node 2, Type 0, BuildingBlock: NUHQIS_clean_sbu_0, # of connection points: 6
#     Node 3, Type 0, BuildingBlock: NUHQIS_clean_sbu_0, # of connection points: 6
#     Node 4, Type 0, BuildingBlock: NUHQIS_clean_sbu_0, # of connection points: 6
#     Node 5, Type 0, BuildingBlock: NUHQIS_clean_sbu_0, # of connection points: 6
#     Node 6, Type 0, BuildingBlock: NUHQIS_clean_sbu_0, # of connection points: 6
#     Node 7, Type 0, BuildingBlock: NUHQIS_clean_sbu_0, # of connection points: 6
#     Node 8, Type 0, BuildingBlock: NUHQIS_clean_sbu_0, # of connection points: 6
#     Node 9, Type 0, BuildingBlock: NUHQIS_clean_sbu_0, # of connection points: 6
#     Node 10, Type 0, BuildingBlock: NUHQIS_clean_sbu_0, # of connection points: 6
#     Node 11, Type 0, BuildingBlock: NUHQIS_clean_sbu_0, # of connection points: 6
#     Edge 12, Type (0, 0), BuildingBlock: AJUNOK_clean_linker_0, # of connection points: 2
#     Edge 13, Type (0, 0), BuildingBlock: AJUNOK_clean_linker_0, # of connection points: 2
#     Edge 14, Type (0, 0), BuildingBlock: AJUNOK_clean_linker_0, # of connection points: 2
#     Edge 15, Type (0, 0), BuildingBlock: AJUNOK_clean_linker_0, # of connection points: 2
#     Edge 16, Type (0, 0), BuildingBlock: AJUNOK_clean_linker_0, # of connection points: 2
#     Edge 17, Type (0, 0), BuildingBlock: AJUNOK_clean_linker_0, # of connection points: 2
#     Edge 18, Type (0, 0), BuildingBlock: AJUNOK_clean_linker_0, # of connection points: 2
#     Edge 19, Type (0, 0), BuildingBlock: AJUNOK_clean_linker_0, # of connection points: 2
#     Edge 20, Type (0, 0), BuildingBlock: AJUNOK_clean_linker_0, # of connection points: 2
#     Edge 21, Type (0, 0), BuildingBlock: AJUNOK_clean_linker_0, # of connection points: 2
#     Edge 22, Type (0, 0), BuildingBlock: AJUNOK_clean_linker_0, # of connection points: 2
#     Edge 23, Type (0, 0), BuildingBlock: AJUNOK_clean_linker_0, # of connection points: 2
#     Edge 24, Type (0, 0), BuildingBlock: AJUNOK_clean_linker_0, # of connection points: 2
#     Edge 25, Type (0, 0), BuildingBlock: AJUNOK_clean_linker_0, # of connection points: 2
#     Edge 26, Type (0, 0), BuildingBlock: AJUNOK_clean_linker_0, # of connection points: 2
#     Edge 27, Type (0, 0), BuildingBlock: AJUNOK_clean_linker_0, # of connection points: 2
#     Edge 28, Type (0, 0), BuildingBlock: AJUNOK_clean_linker_0, # of connection points: 2
#     Edge 29, Type (0, 0), BuildingBlock: AJUNOK_clean_linker_0, # of connection points: 2
#     Edge 30, Type (0, 0), BuildingBlock: AJUNOK_clean_linker_0, # of connection points: 2
#     Edge 31, Type (0, 0), BuildingBlock: AJUNOK_clean_linker_0, # of connection points: 2
#     Edge 32, Type (0, 0), BuildingBlock: AJUNOK_clean_linker_0, # of connection points: 2
#     Edge 33, Type (0, 0), BuildingBlock: AJUNOK_clean_linker_0, # of connection points: 2
#     Edge 34, Type (0, 0), BuildingBlock: AJUNOK_clean_linker_0, # of connection points: 2
#     Edge 35, Type (0, 0), BuildingBlock: AJUNOK_clean_linker_0, # of connection points: 2
#     Edge 36, Type (0, 0), BuildingBlock: AJUNOK_clean_linker_0, # of connection points: 2
#     Edge 37, Type (0, 0), BuildingBlock: AJUNOK_clean_linker_0, # of connection points: 2
#     Edge 38, Type (0, 0), BuildingBlock: AJUNOK_clean_linker_0, # of connection points: 2
#     Edge 39, Type (0, 0), BuildingBlock: AJUNOK_clean_linker_0, # of connection points: 2
#     Edge 40, Type (0, 0), BuildingBlock: AJUNOK_clean_linker_0, # of connection points: 2
#     Edge 41, Type (0, 0), BuildingBlock: AJUNOK_clean_linker_0, # of connection points: 2
#     Edge 42, Type (0, 0), BuildingBlock: AJUNOK_clean_linker_0, # of connection points: 2
#     Edge 43, Type (0, 0), BuildingBlock: AJUNOK_clean_linker_0, # of connection points: 2
#     Edge 44, Type (0, 0), BuildingBlock: AJUNOK_clean_linker_0, # of connection points: 2
#     Edge 45, Type (0, 0), BuildingBlock: AJUNOK_clean_linker_0, # of connection points: 2
#     Edge 46, Type (0, 0), BuildingBlock: AJUNOK_clean_linker_0, # of connection points: 2
#     Edge 47, Type (0, 0), BuildingBlock: AJUNOK_clean_linker_0, # of connection points: 2
# Relax obj value: 0.096
# Max RMSD: 0.208
# Mean RMSD: 0.208
data_MOF--net-wme--node1-NUHQIS_clean_sbu_0--edge1-AJUNOK_clean_linker_0
_symmetry_space_group_name_H-M    P1
_symmetry_Int_Tables_number       1
_symmetry_cell_setting            triclinic
loop_
_symmetry_equiv_pos_as_xyz
'x, y, z'
_cell_length_a     31.806751
_cell_length_b     31.997291
_cell_length_c     38.561432
_cell_angle_alpha  90.395895
_cell_angle_beta   89.96393
_cell_angle_gamma 120.21495
loop_
_atom_site_label
_atom_site_type_symbol
_atom_site_fract_x
_atom_site_fract_y
_atom_site_fract_z
_atom_type_partial_charge
Tb0 Tb 0.25252 0.40047 0.09877 0.0
Eu1 Eu 0.29398 0.33216 0.13217 0.0
C2 C 0.2833 0.33799 0.05273 0.0
C3 C 0.18068 0.29325 0.11761 0.0
C4 C 0.20819 0.49052 0.08716 0.0
C5 C 0.17565 0.54329 0.07348 0.0
C6 C 0.18722 0.50799 0.06351 0.0
C7 C 0.21732 0.50911 0.12121 0.0
C8 C 0.20585 0.54469 0.13123 0.0
C9 C 0.18485 0.56237 0.10745 0.0
C10 C 0.21736 0.45117 0.07596 0.0
O11 O 0.24061 0.39681 0.15505 0.0
O12 O 0.30005 0.38208 0.17506 0.0
O13 O 0.35997 0.40469 0.11626 0.0
O14 O 0.3235 0.45103 0.11999 0.0
C15 C 0.26834 0.3962 0.18034 0.0
O16 O 0.29311 0.28349 0.1721 0.0
O17 O 0.33638 0.29597 0.1259 0.0
O18 O 0.2686 0.30749 0.07825 0.0
O19 O 0.28725 0.38095 0.05656 0.0
O20 O 0.19449 0.32554 0.0929 0.0
O21 O 0.21247 0.29472 0.14008 0.0
C22 C 0.36276 0.44742 0.11768 0.0
O23 O 0.26229 0.46179 0.07132 0.0
O24 O 0.19227 0.40984 0.0915 0.0
C25 C 0.29804 0.21696 0.14966 0.0
C26 C 0.25897 0.11553 0.14239 0.0
C27 C 0.29772 0.14316 0.16548 0.0
C28 C 0.31693 0.19322 0.16909 0.0
C29 C 0.25927 0.18966 0.12666 0.0
C30 C 0.24002 0.13953 0.12299 0.0
C31 C 0.31871 0.26989 0.15378 0.0
H32 H 0.15998 0.55615 0.05435 0.0
H33 H 0.17943 0.49402 0.03719 0.0
H34 H 0.23289 0.49582 0.14011 0.0
H35 H 0.21281 0.55785 0.15774 0.0
H36 H 0.31308 0.12597 0.18095 0.0
H37 H 0.34666 0.21343 0.1871 0.0
H38 H 0.24408 0.2072 0.11136 0.0
H39 H 0.21094 0.11976 0.10446 0.0
Tb40 Tb 0.88134 0.22499 0.5925 0.0
Eu41 Eu 0.98766 0.26844 0.63127 0.0
C42 C 0.97891 0.25742 0.5518 0.0
C43 C 0.91673 0.15537 0.61583 0.0
C44 C 0.74897 0.18224 0.57185 0.0
C45 C 0.67244 0.17186 0.54987 0.0
C46 C 0.71937 0.17976 0.54404 0.0
C47 C 0.73043 0.17607 0.60577 0.0
C48 C 0.68324 0.16796 0.61162 0.0
C49 C 0.65387 0.16627 0.58372 0.0
C50 C 0.79779 0.18887 0.56449 0.0
O51 O 0.86808 0.21348 0.64865 0.0
O52 O 0.94021 0.27437 0.67095 0.0
O53 O 0.98042 0.33276 0.61331 0.0
O54 O 0.89697 0.2943 0.61304 0.0
C55 C 0.89422 0.24187 0.67467 0.0
O56 O 1.03335 0.27057 0.67417 0.0
O57 O 0.06691 0.31299 0.62817 0.0
O58 O 0.99207 0.2423 0.57861 0.0
O59 O 0.93979 0.26174 0.55343 0.0
O60 O 0.90023 0.16855 0.5894 0.0
O61 O 0.94437 0.18731 0.63944 0.0
C62 C 0.93952 0.33416 0.61258 0.0
O63 O 0.8333 0.23271 0.55879 0.0
O64 O 0.81189 0.1649 0.58376 0.0
C65 C 0.10627 0.27545 0.65459 0.0
C66 C 0.169 0.23733 0.6466 0.0
C67 C 0.18796 0.2874 0.65086 0.0
C68 C 0.15688 0.30624 0.65492 0.0
C69 C 0.08717 0.22538 0.65037 0.0
C70 C 0.11824 0.2065 0.64656 0.0
C71 C 0.07374 0.2959 0.65695 0.0
H72 H 0.65056 0.17013 0.52779 0.0
H73 H 0.73254 0.18378 0.51766 0.0
H74 H 0.75241 0.17754 0.62771 0.0
H75 H 0.67006 0.16404 0.63798 0.0
H76 H 0.22692 0.31201 0.65096 0.0
H77 H 0.17237 0.34495 0.65789 0.0
H78 H 1.04819 0.20091 0.6495 0.0
H79 H 0.10256 0.16792 0.64266 0.0
Tb80 Tb 0.68215 0.86957 0.09697 0.0
Eu81 Eu 0.75462 0.97522 0.13574 0.0
C82 C 0.7391 0.96861 0.05546 0.0
C83 C 0.78555 0.89564 0.12092 0.0
C84 C 0.59944 0.73645 0.07846 0.0
C85 C 0.54913 0.65157 0.0615 0.0
C86 C 0.58129 0.70007 0.05285 0.0
C87 C 0.58643 0.72311 0.1132 0.0
C88 C 0.55415 0.67464 0.12186 0.0
C89 C 0.53428 0.63826 0.09605 0.0
C90 C 0.62715 0.78812 0.06812 0.0
O91 O 0.66509 0.8536 0.15223 0.0
O92 O 0.7174 0.92642 0.17983 0.0
O93 O 0.6776 0.96217 0.14275 0.0
O94 O 0.64159 0.90756 0.0976 0.0
C95 C 0.68328 0.88079 0.18034 0.0
O96 O 0.81101 1.01718 0.17435 0.0
O97 O 0.7911 0.05413 0.13684 0.0
O98 O 0.73829 0.99103 0.08344 0.0
O99 O 0.72809 0.92274 0.05665 0.0
O100 O 0.73928 0.8633 0.1226 0.0
O101 O 0.79898 0.94147 0.11664 0.0
C102 C 0.64059 0.93649 0.1215 0.0
O103 O 0.61225 0.81584 0.08155 0.0
O104 O 0.67457 0.80973 0.06788 0.0
C105 C 0.874 0.09172 0.15336 0.0
C106 C 0.97398 0.15472 0.13966 0.0
C107 C 0.95348 0.15739 0.17137 0.0
C108 C 0.90396 0.12626 0.1781 0.0
C109 C 0.89439 0.08842 0.12184 0.0
C110 C 0.94389 0.11967 0.11504 0.0
C111 C 0.82196 0.05872 0.16092 0.0
H112 H 0.53394 0.62492 0.04082 0.0
H113 H 0.5904 0.70944 0.02586 0.0
H114 H 0.59978 0.75042 0.13349 0.0
H115 H 0.54364 0.66577 0.14872 0.0
H116 H 0.97568 0.18401 0.19082 0.0
H117 H 0.88903 0.12919 0.20265 0.0
H118 H 0.87204 0.06158 0.10254 0.0
H119 H 0.95875 0.11604 0.09067 0.0
Tb120 Tb 0.86005 0.67165 0.59456 0.0
Eu121 Eu 0.81902 0.73769 0.63083 0.0
C122 C 0.82937 0.73505 0.55146 0.0
C123 C 0.93236 0.7772 0.61713 0.0
C124 C 0.90317 0.58208 0.57796 0.0
C125 C 0.87804 0.49645 0.57488 0.0
C126 C 0.86936 0.53439 0.56791 0.0
C127 C 0.94613 0.5908 0.59493 0.0
C128 C 0.95481 0.55279 0.6019 0.0
C129 C 0.92096 0.50513 0.59182 0.0
C130 C 0.89548 0.62291 0.56858 0.0
O131 O 0.87108 0.67147 0.65088 0.0
O132 O 0.81251 0.68672 0.67224 0.0
O133 O 0.75315 0.66527 0.61402 0.0
O134 O 0.78986 0.61918 0.61498 0.0
C135 C 0.84347 0.67154 0.67653 0.0
O136 O 0.82071 0.78698 0.67111 0.0
O137 O 0.77299 0.76998 0.6267 0.0
O138 O 0.84524 0.76485 0.5777 0.0
O139 O 0.8237 0.69147 0.55434 0.0
O140 O 0.91796 0.7466 0.59099 0.0
O141 O 0.90057 0.77524 0.63983 0.0
C142 C 0.75045 0.62259 0.61408 0.0
O143 O 0.85108 0.61354 0.56295 0.0
O144 O 0.92052 0.66321 0.58585 0.0
C145 C 0.81206 0.85033 0.64794 0.0
C146 C 0.84936 0.95022 0.63685 0.0
C147 C 0.81863 0.92674 0.66516 0.0
C148 C 0.80004 0.87719 0.67058 0.0
C149 C 0.84347 0.87384 0.62005 0.0
C150 C 0.86189 0.92325 0.61454 0.0
C151 C 0.79263 0.79818 0.65368 0.0
H152 H 0.85133 0.4602 0.56654 0.0
H153 H 0.83632 0.52637 0.55429 0.0
H154 H 0.97335 0.62713 0.60269 0.0
H155 H 0.98782 0.5607 0.61549 0.0
H156 H 0.80837 0.94657 0.68278 0.0
H157 H 0.77617 0.85983 0.6924 0.0
H158 H 0.85377 0.85395 0.6025 0.0
H159 H 0.88625 0.94047 0.59295 0.0
Tb160 Tb 0.21675 0.83159 0.10121 0.0
Eu161 Eu 0.11151 0.79759 0.14157 0.0
C162 C 0.1158 0.79262 0.06134 0.0
C163 C 0.19083 0.90798 0.12621 0.0
C164 C 0.34991 0.87949 0.08419 0.0
C165 C 0.43569 0.91526 0.06894 0.0
C166 C 0.38723 0.89918 0.05945 0.0
C167 C 0.36225 0.87748 0.11893 0.0
C168 C 0.41075 0.89354 0.12845 0.0
C169 C 0.44818 0.91218 0.10352 0.0
C170 C 0.29827 0.85715 0.0728 0.0
O171 O 0.23325 0.82792 0.156 0.0
O172 O 0.16249 0.81128 0.18502 0.0
O173 O 0.12655 0.73509 0.14796 0.0
O174 O 0.1759 0.75303 0.09997 0.0
C175 C 0.20767 0.8208 0.1846 0.0
O176 O 0.07064 0.81414 0.17941 0.0
O177 O 1.03196 0.75415 0.14389 0.0
O178 O 0.09561 0.76686 0.08871 0.0
O179 O 0.16279 0.82584 0.0616 0.0
O180 O 0.22408 0.89535 0.12713 0.0
O181 O 0.14488 0.87474 0.1219 0.0
C182 C 0.15074 0.72388 0.1253 0.0
O183 O 0.26886 0.81407 0.08465 0.0
O184 O 0.27803 0.88392 0.07341 0.0
C185 C 0.99409 0.79961 0.15911 0.0
C186 C 0.92816 0.83291 0.14511 0.0
C187 C 0.91812 0.79821 0.17096 0.0
C188 C 0.95066 0.78177 0.17783 0.0
C189 C 1.00471 0.83471 0.13355 0.0
C190 C 0.97219 0.85138 0.12674 0.0
C191 C 1.02825 0.78208 0.16701 0.0
H192 H 0.46304 0.92813 0.0488 0.0
H193 H 0.37868 0.90062 0.03245 0.0
H194 H 0.33419 0.86217 0.13854 0.0
H195 H 0.41887 0.89054 0.15528 0.0
H196 H 0.88505 0.78387 0.18607 0.0
H197 H 0.94187 0.75507 0.19787 0.0
H198 H 1.03808 0.84911 0.11879 0.0
H199 H 0.98105 0.87807 0.10669 0.0
Tb200 Tb 0.41035 0.20713 0.59601 0.0
Eu201 Eu 0.35049 0.09915 0.63207 0.0
C202 C 0.34766 0.11021 0.55346 0.0
C203 C 0.30513 0.16801 0.62158 0.0
C204 C 0.49627 0.33977 0.57849 0.0
C205 C 0.55026 0.42363 0.56182 0.0
C206 C 0.51197 0.37696 0.55406 0.0
C207 C 0.51946 0.35002 0.61097 0.0
C208 C 0.55782 0.39676 0.61878 0.0
C209 C 0.57364 0.43429 0.59434 0.0
C210 C 0.45459 0.29133 0.56999 0.0
O211 O 0.41412 0.21785 0.65259 0.0
O212 O 0.40446 0.14577 0.67208 0.0
O213 O 0.42314 0.1094 0.61189 0.0
O214 O 0.46645 0.19258 0.61271 0.0
C215 C 0.41729 0.19117 0.67738 0.0
O216 O 0.30667 0.05081 0.67361 0.0
O217 O 0.31827 1.02084 0.62641 0.0
O218 O 0.3189 0.09634 0.58014 0.0
O219 O 0.39 0.15078 0.55551 0.0
O220 O 0.33387 0.18555 0.59464 0.0
O221 O 0.31069 0.13991 0.64355 0.0
C222 C 0.46479 0.15091 0.60952 0.0
O223 O 0.46413 0.25725 0.56223 0.0
O224 O 0.41707 0.27547 0.59037 0.0
C225 C 0.24019 0.97821 0.65159 0.0
C226 C 0.13959 0.91364 0.64082 0.0
C227 C 0.17184 0.89612 0.64566 0.0
C228 C 0.22165 0.92811 0.65097 0.0
C229 C 0.20798 0.99584 0.64724 0.0
C230 C 0.15811 0.96385 0.64217 0.0
C231 C 0.29321 1.01178 0.655 0.0
H232 H 0.56222 0.45113 0.54205 0.0
H233 H 0.49459 0.36987 0.52884 0.0
H234 H 0.50782 0.32193 0.63029 0.0
H235 H 0.57503 0.40362 0.64403 0.0
H236 H 0.15851 0.8576 0.64527 0.0
H237 H 0.24579 0.91373 0.65417 0.0
H238 H 0.22147 1.0344 0.64725 0.0
H239 H 0.1342 0.97839 0.63842 0.0
Tb240 Tb 0.69452 0.84123 0.40209 0.0
Eu241 Eu 0.76007 0.80229 0.36323 0.0
C242 C 0.75832 0.80886 0.44314 0.0
C243 C 0.79957 0.91422 0.37995 0.0
C244 C 0.60562 0.88399 0.41709 0.0
C245 C 0.52307 0.86878 0.42443 0.0
C246 C 0.56056 0.86035 0.43405 0.0
C247 C 0.61242 0.91661 0.3903 0.0
C248 C 0.57494 0.92531 0.38083 0.0
C249 C 0.52984 0.90148 0.39783 0.0
C250 C 0.64544 0.8757 0.42856 0.0
O251 O 0.69242 0.85321 0.34621 0.0
O252 O 0.70744 0.79594 0.32246 0.0
O253 O 0.68819 0.73575 0.37966 0.0
O254 O 0.64163 0.77197 0.38055 0.0
C255 C 0.69123 0.82622 0.31969 0.0
O256 O 0.81113 0.80798 0.32289 0.0
O257 O 0.79247 0.75628 0.36439 0.0
O258 O 0.78788 0.82592 0.41693 0.0
O259 O 0.71465 0.80389 0.44106 0.0
O260 O 0.76981 0.8988 0.4064 0.0
O261 O 0.79661 0.88348 0.35597 0.0
C262 C 0.64521 0.73291 0.3805 0.0
O263 O 0.63493 0.83101 0.43263 0.0
O264 O 0.68753 0.90151 0.41372 0.0
C265 C 0.87519 0.79921 0.34618 0.0
C266 C 0.97608 0.83996 0.35926 0.0
C267 C 0.95862 0.83584 0.32517 0.0
C268 C 0.90866 0.81557 0.31871 0.0
C269 C 0.89277 0.80379 0.38032 0.0
C270 C 0.94257 0.8236 0.38672 0.0
C271 C 0.82259 0.7794 0.33913 0.0
H272 H 0.48877 0.85006 0.43812 0.0
H273 H 0.55438 0.83543 0.45494 0.0
H274 H 0.64671 0.93557 0.37663 0.0
H275 H 0.581 0.95017 0.35995 0.0
H276 H 0.98349 0.84738 0.30346 0.0
H277 H 0.89615 0.81267 0.2922 0.0
H278 H 0.86812 0.79217 0.40218 0.0
H279 H 0.95499 0.82633 0.41324 0.0
Tb280 Tb 0.88561 0.67656 0.90083 0.0
Eu281 Eu 0.9932 0.73683 0.8626 0.0
C282 C 0.98404 0.74029 0.94261 0.0
C283 C 0.92407 0.78151 0.87705 0.0
C284 C 0.75221 0.58964 0.91907 0.0
C285 C 0.66865 0.53436 0.93705 0.0
C286 C 0.7157 0.57254 0.94443 0.0
C287 C 0.74083 0.56784 0.88604 0.0
C288 C 0.69369 0.52955 0.87862 0.0
C289 C 0.65682 0.51241 0.90399 0.0
C290 C 0.8011 0.63118 0.92739 0.0
O291 O 0.87372 0.67483 0.84447 0.0
O292 O 0.94497 0.68325 0.82305 0.0
O293 O 0.9837 0.66393 0.88022 0.0
O294 O 0.90009 0.621 0.88242 0.0
C295 C 0.89939 0.6713 0.81881 0.0
O296 O 1.03933 0.78118 0.82024 0.0
O297 O 0.07246 0.77018 0.86569 0.0
O298 O 1.00026 0.7676 0.91537 0.0
O299 O 0.94218 0.69898 0.94151 0.0
O300 O 0.90733 0.75263 0.9038 0.0
O301 O 0.95079 0.77563 0.85365 0.0
C302 C 0.94203 0.62229 0.88232 0.0
O303 O 0.83572 0.62185 0.93412 0.0
O304 O 0.81657 0.66897 0.90767 0.0
C305 C 0.11243 0.84852 0.84123 0.0
C306 C 0.17539 0.94952 0.85081 0.0
C307 C 0.12457 0.92939 0.85083 0.0
C308 C 0.09345 0.87946 0.84622 0.0
C309 C 0.1631 0.86847 0.8412 0.0
C310 C 0.19425 0.91839 0.84604 0.0
C311 C 0.07963 0.79547 0.8376 0.0
H312 H 0.64176 0.52141 0.95751 0.0
H313 H 0.72361 0.58877 0.9701 0.0
H314 H 0.76832 0.58053 0.86598 0.0
H315 H 0.68597 0.51348 0.85292 0.0
H316 H 0.10882 0.95212 0.85517 0.0
H317 H 0.05448 0.86497 0.84695 0.0
H318 H 0.1786 0.84536 0.8377 0.0
H319 H 0.23321 0.93275 0.84593 0.0
Tb320 Tb 0.24937 0.86425 0.40582 0.0
Eu321 Eu 0.29488 0.97308 0.36956 0.0
C322 C 0.30072 0.96139 0.44773 0.0
C323 C 0.18045 0.90093 0.38174 0.0
C324 C 0.20553 0.73259 0.4251 0.0
C325 C 0.23126 0.67236 0.42668 0.0
C326 C 0.23999 0.71913 0.4339 0.0
C327 C 0.16181 0.69761 0.40916 0.0
C328 C 0.15308 0.65076 0.40194 0.0
C329 C 0.18764 0.63739 0.41069 0.0
C330 C 0.21395 0.78177 0.43428 0.0
O331 O 0.25677 0.85015 0.35111 0.0
O332 O 0.27628 0.92286 0.32456 0.0
O333 O 0.35675 0.95728 0.3639 0.0
O334 O 0.32547 0.88775 0.3974 0.0
C335 C 0.26573 0.87754 0.32343 0.0
O336 O 0.30218 1.02422 0.32921 0.0
O337 O 0.33302 0.05075 0.38003 0.0
O338 O 0.32838 0.97762 0.42072 0.0
O339 O 0.25949 0.9198 0.4451 0.0
O340 O 0.18854 0.86476 0.3816 0.0
O341 O 0.21635 0.94574 0.38536 0.0
C342 C 0.3605 0.92221 0.37896 0.0
O343 O 0.25871 0.81675 0.43843 0.0
O344 O 0.18836 0.79676 0.41782 0.0
C345 C 0.30048 0.09288 0.35137 0.0
C346 C 0.26114 0.15462 0.35838 0.0
C347 C 0.30935 0.17282 0.34718 0.0
C348 C 0.32873 0.14218 0.34355 0.0
C349 C 0.25236 0.07457 0.36258 0.0
C350 C 0.2327 0.10503 0.36578 0.0
C351 C 0.3224 0.06164 0.35005 0.0
H352 H 0.25859 0.66335 0.43405 0.0
H353 H 0.27371 0.74467 0.44665 0.0
H354 H 0.13412 0.70636 0.4023 0.0
H355 H 0.11947 0.62521 0.38908 0.0
H356 H 0.33213 0.21088 0.34135 0.0
H357 H 0.36611 0.15719 0.33523 0.0
H358 H 0.2304 0.03695 0.3696 0.0
H359 H 0.19576 0.09011 0.37504 0.0
Tb360 Tb 0.41546 0.22752 0.90239 0.0
Eu361 Eu 0.35194 0.27002 0.86446 0.0
C362 C 0.34879 0.25758 0.9435 0.0
C363 C 0.31072 0.15634 0.87553 0.0
C364 C 0.50393 0.18267 0.9189 0.0
C365 C 0.59047 0.20888 0.91574 0.0
C366 C 0.55301 0.21861 0.92327 0.0
C367 C 0.49348 0.13664 0.90699 0.0
C368 C 0.53096 0.12693 0.89943 0.0
C369 C 0.58004 0.16284 0.90387 0.0
C370 C 0.46356 0.19159 0.92864 0.0
O371 O 0.41846 0.21785 0.84595 0.0
O372 O 0.4055 0.27737 0.82445 0.0
O373 O 0.42391 0.33487 0.88328 0.0
O374 O 0.46968 0.29771 0.88324 0.0
C375 C 0.42016 0.24604 0.82036 0.0
O376 O 0.30542 0.27039 0.82292 0.0
O377 O 0.31826 0.31476 0.86877 0.0
O378 O 0.32104 0.24099 0.91624 0.0
O379 O 0.39262 0.26254 0.94242 0.0
O380 O 0.34006 0.16869 0.90243 0.0
O381 O 0.31455 0.18936 0.85359 0.0
C382 C 0.46665 0.33713 0.88409 0.0
O383 O 0.47366 0.23604 0.93393 0.0
O384 O 0.42269 0.16682 0.91185 0.0
C385 C 0.23902 0.27546 0.84513 0.0
C386 C 0.13787 0.23593 0.85482 0.0
C387 C 0.16339 0.27315 0.83074 0.0
C388 C 0.21361 0.2929 0.82605 0.0
C389 C 0.21343 0.23748 0.86855 0.0
C390 C 0.16339 0.218 0.87343 0.0
C391 C 0.292 0.29653 0.84074 0.0
H392 H 0.6278 0.23737 0.91972 0.0
H393 H 0.5626 0.25424 0.93282 0.0
H394 H 0.45613 0.10786 0.90364 0.0
H395 H 0.52145 0.09138 0.88975 0.0
H396 H 0.14464 0.28763 0.81605 0.0
H397 H 0.23264 0.32197 0.80771 0.0
H398 H 0.23224 0.22299 0.88315 0.0
H399 H 0.14459 0.18878 0.89169 0.0
Tb400 Tb 0.22641 0.39598 0.40526 0.0
Eu401 Eu 0.11876 0.33243 0.36848 0.0
C402 C 0.13063 0.33122 0.44725 0.0
C403 C 0.19075 0.29031 0.38057 0.0
C404 C 0.36002 0.48528 0.42113 0.0
C405 C 0.42068 0.57131 0.41996 0.0
C406 C 0.37385 0.53372 0.42815 0.0
C407 C 0.39456 0.47552 0.40596 0.0
C408 C 0.44145 0.51317 0.39778 0.0
C409 C 0.45521 0.56159 0.40479 0.0
C410 C 0.31106 0.44497 0.43142 0.0
O411 O 0.23855 0.396 0.34913 0.0
O412 O 0.16557 0.38255 0.32712 0.0
O413 O 0.12739 0.40475 0.38703 0.0
O414 O 0.21054 0.44912 0.38434 0.0
C415 C 0.21158 0.39591 0.32304 0.0
O416 O 0.06955 0.28751 0.32716 0.0
O417 O 1.03996 0.2992 0.37448 0.0
O418 O 0.11794 0.30254 0.42046 0.0
O419 O 0.16913 0.37497 0.44524 0.0
O420 O 0.20962 0.32113 0.40656 0.0
O421 O 0.16005 0.29266 0.35891 0.0
C422 C 0.16835 0.44699 0.38662 0.0
O423 O 0.27627 0.45467 0.43646 0.0
O424 O 0.29501 0.4039 0.41515 0.0
C425 C 0.99738 0.22117 0.34929 0.0
C426 C 0.93387 0.12099 0.35946 0.0
C427 C 0.91547 0.15262 0.35606 0.0
C428 C 0.94695 0.20223 0.351 0.0
C429 C 1.01582 0.1896 0.35245 0.0
C430 C 0.98436 0.13994 0.35717 0.0
C431 C 1.03057 0.27391 0.34588 0.0
H432 H 0.43014 0.60815 0.42595 0.0
H433 H 0.34862 0.54267 0.44026 0.0
H434 H 0.38546 0.43865 0.40049 0.0
H435 H 0.46674 0.50436 0.38561 0.0
H436 H 0.87666 0.13892 0.35728 0.0
H437 H 0.93194 0.2259 0.34878 0.0
H438 H 0.05464 0.20346 0.35172 0.0
H439 H 0.99956 0.1165 0.35985 0.0
Tb440 Tb 0.8607 0.20158 0.89889 0.0
Eu441 Eu 0.81736 0.094 0.86174 0.0
C442 C 0.82811 0.1052 0.941 0.0
C443 C 0.93105 0.16646 0.87585 0.0
C444 C 0.90369 0.33503 0.91467 0.0
C445 C 0.88372 0.39869 0.92425 0.0
C446 C 0.87528 0.35194 0.9307 0.0
C447 C 0.94101 0.36649 0.89203 0.0
C448 C 0.94957 0.4134 0.88568 0.0
C449 C 0.92121 0.4303 0.90186 0.0
C450 C 0.89692 0.28663 0.92398 0.0
O451 O 0.87032 0.21192 0.84239 0.0
O452 O 0.80981 0.13883 0.82123 0.0
O453 O 0.75221 0.10102 0.87978 0.0
O454 O 0.79006 0.18403 0.87913 0.0
C455 C 0.84166 0.18469 0.81682 0.0
O456 O 0.77291 1.01539 0.86567 0.0
O457 O 0.81795 0.04716 0.82043 0.0
O458 O 0.84443 0.09255 0.91444 0.0
O459 O 0.8252 0.14501 0.93922 0.0
O460 O 0.91802 0.18358 0.90216 0.0
O461 O 0.8988 0.13831 0.85258 0.0
C462 C 0.75031 0.14148 0.88029 0.0
O463 O 0.85303 0.25146 0.93073 0.0
O464 O 0.92125 0.2711 0.90621 0.0
C465 C 0.81323 0.9764 0.84271 0.0
C466 C 0.8534 0.9161 0.85334 0.0
C467 C 0.81469 0.90249 0.82986 0.0
C468 C 0.79459 0.93228 0.82475 0.0
C469 C 0.85279 0.99069 0.86539 0.0
C470 C 0.87246 0.96072 0.87084 0.0
C471 C 0.79172 1.00759 0.83796 0.0
H472 H 0.86125 0.41045 0.9373 0.0
H473 H 0.84681 0.32918 0.94867 0.0
H474 H 0.96403 0.35511 0.87936 0.0
H475 H 0.97813 0.43627 0.86781 0.0
H476 H 0.79934 0.86833 0.81602 0.0
H477 H 0.76433 0.92073 0.80695 0.0
H478 H 0.8683 1.025 0.87904 0.0
H479 H 0.90271 0.97249 0.88868 0.0
C480 C 0.25632 0.99553 0.13038 0.0
C481 C 0.20632 0.96051 0.12979 0.0
C482 C 0.27266 0.04509 0.13433 0.0
C483 C 0.23991 0.06229 0.13789 0.0
H484 H 0.28345 0.98475 0.12772 0.0
H485 H 0.31151 0.07026 0.13428 0.0
S486 S 0.10515 0.98606 0.13962 0.0
N487 N 0.12405 0.94696 0.13394 0.0
N488 N 0.15479 0.03992 0.14166 0.0
C489 C 0.18977 1.02781 0.13746 0.0
C490 C 0.17302 0.97713 0.13339 0.0
C491 C 0.2702 0.22107 0.60843 0.0
C492 C 0.26825 0.18297 0.62788 0.0
C493 C 0.2381 0.23825 0.61475 0.0
C494 C 0.20224 0.21784 0.64056 0.0
H495 H 0.29729 0.23853 0.58839 0.0
H496 H 0.24125 0.2677 0.59912 0.0
S497 S 0.18093 0.11722 0.69879 0.0
N498 N 0.22685 0.12518 0.67416 0.0
N499 N 0.16641 0.15744 0.68579 0.0
C500 C 0.19928 0.17937 0.65998 0.0
C501 C 0.23231 0.16203 0.65375 0.0
C502 C 0.06207 0.1952 0.15725 0.0
C503 C 1.02664 0.1885 0.13252 0.0
C504 C 0.11171 0.22802 0.15173 0.0
C505 C 0.12812 0.25602 0.12137 0.0
H506 H 1.05133 0.1749 0.18117 0.0
H507 H 0.13726 0.23208 0.17186 0.0
S508 S 1.04977 0.25182 0.04835 0.0
N509 N 1.01131 0.21234 0.07641 0.0
N510 N 0.1043 0.27383 0.06585 0.0
C511 C 0.09299 0.24914 0.09618 0.0
C512 C 1.04244 0.21547 0.10178 0.0
C513 C 0.88995 0.03671 0.65753 0.0
C514 C 0.86794 1.0026 0.63052 0.0
C515 C 0.90689 0.08611 0.65227 0.0
C516 C 0.90193 0.10341 0.6199 0.0
H517 H 0.89422 1.02511 0.68296 0.0
H518 H 0.92306 0.11073 0.67404 0.0
S519 S 0.84686 1.02867 0.54061 0.0
N520 N 0.84221 0.98953 0.57019 0.0
N521 N 0.87387 0.08198 0.56018 0.0
C522 C 0.88033 0.0696 0.59257 0.0
C523 C 0.86344 1.01939 0.5979 0.0
C524 C 0.90639 0.89823 0.13571 0.0
C525 C 0.89215 0.84878 0.1371 0.0
C526 C 0.87216 0.91331 0.12994 0.0
C527 C 0.82226 0.87957 0.12511 0.0
H528 H 0.94414 0.9255 0.13995 0.0
H529 H 0.88487 0.95171 0.12987 0.0
S530 S 0.76724 0.7457 0.12249 0.0
N531 N 0.82542 0.76634 0.13044 0.0
N532 N 0.76144 0.79399 0.11968 0.0
C533 C 0.80804 0.82998 0.1253 0.0
C534 C 0.84279 0.81482 0.13126 0.0
C535 C 1.00109 0.84914 0.64767 0.0
C536 C 0.98528 0.81323 0.62156 0.0
C537 C 1.05087 0.88187 0.65345 0.0
C538 C 0.08693 0.87967 0.63368 0.0
H539 H 0.97487 0.85188 0.66403 0.0
H540 H 0.06124 0.90851 0.67404 0.0
S541 S 0.06567 0.79464 0.56101 0.0
N542 N 1.01062 0.77908 0.57485 0.0
N543 N 0.10357 0.84036 0.58593 0.0
C544 C 0.07179 0.84463 0.60717 0.0
C545 C 1.02121 0.81157 0.60105 0.0
C546 C 0.09168 0.84528 0.39123 0.0
C547 C 0.12916 0.88928 0.37796 0.0
C548 C 1.04253 0.83041 0.38572 0.0
C549 C 1.02867 0.85848 0.3662 0.0
H550 H 0.10037 0.82175 0.40579 0.0
H551 H 1.01513 0.79591 0.39605 0.0
S552 S 0.11232 0.97723 0.32639 0.0
N553 N 0.14886 0.96127 0.34499 0.0
N554 N 0.05635 0.93323 0.33448 0.0
C555 C 0.06564 0.90294 0.35319 0.0
C556 C 0.11588 0.91842 0.35919 0.0
C557 C 0.24589 1.01865 0.88191 0.0
C558 C 0.20872 1.00255 0.85682 0.0
C559 C 0.27777 0.06819 0.88817 0.0
C560 C 0.27436 0.10404 0.86935 0.0
H561 H 0.25019 0.99266 0.89709 0.0
H562 H 0.30583 0.07833 0.90767 0.0
S563 S 0.18362 0.08091 0.80022 0.0
N564 N 0.1705 1.02642 0.81276 0.0
N565 N 0.23025 0.11935 0.82433 0.0
C566 C 0.23722 0.08838 0.84414 0.0
C567 C 0.20449 0.03781 0.83797 0.0
C568 C 0.24998 0.26149 0.39051 0.0
C569 C 0.20646 0.25391 0.37511 0.0
C570 C 0.26733 0.22942 0.38479 0.0
C571 C 0.24159 0.18789 0.36387 0.0
H572 H 0.27149 0.293 0.40673 0.0
H573 H 0.3011 0.23704 0.3971 0.0
S574 S 0.12555 0.15055 0.31769 0.0
N575 N 0.13805 0.20128 0.33781 0.0
N576 N 0.17026 0.14065 0.32772 0.0
C577 C 0.19777 0.17938 0.34862 0.0
C578 C 0.18039 0.21247 0.354 0.0
C579 C 1.05197 0.20035 0.83289 0.0
C580 C 0.08494 0.21643 0.86091 0.0
C581 C 1.00206 0.18276 0.83808 0.0
C582 C 0.98328 0.18143 0.87143 0.0
H583 H 0.06487 0.2013 0.80674 0.0
H584 H 0.97826 0.17134 0.81564 0.0
S585 S 0.05443 0.21892 0.95348 0.0
N586 N 0.0952 0.22927 0.92321 0.0
N587 N 1.00181 0.19682 0.933 0.0
C588 C 1.01589 0.19706 0.89968 0.0
C589 C 0.06654 0.21434 0.89442 0.0
C590 C 0.90201 1.03343 0.34444 0.0
C591 C 0.90054 0.06847 0.36585 0.0
C592 C 0.86982 0.98374 0.34947 0.0
C593 C 0.83523 0.96701 0.37641 0.0
H594 H 0.92762 0.04455 0.32318 0.0
H595 H 0.87189 0.95832 0.33186 0.0
S596 S 0.81927 0.04458 0.44124 0.0
N597 N 0.86352 0.08323 0.41596 0.0
N598 N 0.80332 0.99036 0.42573 0.0
C599 C 0.83441 1.00192 0.39857 0.0
C600 C 0.86689 0.05243 0.39319 0.0
C601 C 0.90752 0.83464 0.83833 0.0
C602 C 0.90915 0.81841 0.87193 0.0
C603 C 0.88948 0.86615 0.83248 0.0
C604 C 0.87324 0.88342 0.86005 0.0
H605 H 0.919 0.82189 0.81619 0.0
H606 H 0.88826 0.87712 0.80615 0.0
S607 S 0.871 0.85332 0.953 0.0
N608 N 0.89356 0.82299 0.93324 0.0
N609 N 0.86042 0.88246 0.92218 0.0
C610 C 0.87559 0.86833 0.89379 0.0
C611 C 0.89329 0.83578 0.89974 0.0
C612 C 0.11949 0.6358 0.11252 0.0
C613 C 0.15416 0.67935 0.12844 0.0
C614 C 0.12882 0.59747 0.10716 0.0
C615 C 0.17334 0.60121 0.11729 0.0
H616 H 0.086 0.63224 0.10254 0.0
H617 H 0.10144 0.56513 0.094 0.0
S618 S 0.27617 0.70846 0.15984 0.0
N619 N 0.2344 0.72405 0.15443 0.0
N620 N 0.25213 0.65277 0.1444 0.0
C621 C 0.20758 0.64423 0.13422 0.0
C622 C 0.19801 0.68308 0.13963 0.0
C623 C 0.56893 0.12305 0.60947 0.0
C624 C 0.60508 0.16135 0.58977 0.0
C625 C 0.52282 0.11848 0.61503 0.0
C626 C 0.51168 0.15267 0.60171 0.0
H627 H 0.57625 0.09631 0.62048 0.0
H628 H 0.49629 0.08877 0.63053 0.0
S629 S 0.59355 0.25931 0.54816 0.0
N630 N 0.62611 0.23361 0.55683 0.0
N631 N 0.54055 0.22536 0.56709 0.0
C632 C 0.54755 0.1908 0.58178 0.0
C633 C 0.5939 0.19508 0.57588 0.0
C634 C 0.45458 0.58206 0.12467 0.0
C635 C 0.49419 0.58808 0.10457 0.0
C636 C 0.41366 0.53621 0.13003 0.0
C637 C 0.41032 0.49386 0.11587 0.0
H638 H 0.45416 0.61333 0.13517 0.0
H639 H 0.38365 0.53419 0.14473 0.0
S640 S 0.50587 0.48884 0.06386 0.0
N641 N 0.52889 0.54704 0.07239 0.0
N642 N 0.45187 0.46081 0.08255 0.0
C643 C 0.45059 0.49891 0.09713 0.0
C644 C 0.49235 0.54592 0.09136 0.0
C645 C 0.89126 0.42132 0.61374 0.0
C646 C 0.92921 0.46402 0.59951 0.0
C647 C 0.89614 0.38072 0.61916 0.0
C648 C 0.93924 0.38063 0.61058 0.0
H649 H 0.85708 0.41901 0.62048 0.0
H650 H 0.86519 0.34868 0.62966 0.0
S651 S 1.05039 0.48393 0.57352 0.0
N652 N 1.01215 0.50433 0.57767 0.0
N653 N 1.02143 0.42791 0.58813 0.0
C654 C 0.97826 0.42365 0.59745 0.0
C655 C 0.97322 0.46526 0.59184 0.0
C656 C 0.55307 0.89769 0.13746 0.0
C657 C 0.59472 0.93787 0.12382 0.0
C658 C 0.50628 0.89114 0.13236 0.0
C659 C 0.49899 0.92407 0.11279 0.0
H660 H 0.55644 0.86976 0.15073 0.0
H661 H 0.47534 0.85851 0.14219 0.0
S662 S 0.59692 0.03702 0.07339 0.0
N663 N 0.62621 1.01223 0.09138 0.0
N664 N 0.53866 1.0005 0.08188 0.0
C665 C 0.5408 0.96555 0.10025 0.0
C666 C 0.58848 0.97226 0.1057 0.0
C667 C 0.70122 0.53261 0.62082 0.0
C668 C 0.70283 0.57619 0.61215 0.0
C669 C 0.6591 0.48743 0.61592 0.0
C670 C 0.61641 0.4834 0.60189 0.0
H671 H 0.73324 0.53311 0.63096 0.0
H672 H 0.66059 0.45523 0.62212 0.0
S673 S 0.59941 0.58606 0.5774 0.0
N674 N 0.65657 0.61225 0.59064 0.0
N675 N 0.57722 0.52727 0.58153 0.0
C676 C 0.61674 0.52663 0.59417 0.0
C677 C 0.65981 0.57292 0.59938 0.0
C678 C 0.4022 0.87429 0.37619 0.0
C679 C 0.40598 0.92009 0.37688 0.0
C680 C 0.4428 0.86902 0.3815 0.0
C681 C 0.48909 0.90931 0.38775 0.0
H682 H 0.36703 0.84187 0.37282 0.0
H683 H 0.43763 0.83286 0.38171 0.0
S684 S 0.51931 0.03748 0.39054 0.0
N685 N 0.46016 1.00677 0.38275 0.0
N686 N 0.53692 0.99698 0.39275 0.0
C687 C 0.49404 0.95562 0.38674 0.0
C688 C 0.45239 0.961 0.38127 0.0
C689 C 0.60265 0.42819 0.88075 0.0
C690 C 0.60717 0.46997 0.89666 0.0
C691 C 0.55702 0.3864 0.87589 0.0
C692 C 0.51347 0.38432 0.88636 0.0
H693 H 0.63483 0.42712 0.87299 0.0
H694 H 0.5561 0.35503 0.86424 0.0
S695 S 0.50463 0.48502 0.92706 0.0
N696 N 0.56359 0.50756 0.92117 0.0
N697 N 0.47791 0.42892 0.91207 0.0
C698 C 0.51718 0.42639 0.90116 0.0
C699 C 0.56389 0.46904 0.90639 0.0
C700 C 0.21707 0.58293 0.38762 0.0
C701 C 0.1794 0.58781 0.40258 0.0
C702 C 0.21206 0.53735 0.38146 0.0
C703 C 0.16908 0.49407 0.38993 0.0
H704 H 0.25111 0.61478 0.38075 0.0
H705 H 0.2428 0.53626 0.37037 0.0
S706 S 0.05888 0.48636 0.42929 0.0
N707 N 0.09703 0.54503 0.42542 0.0
N708 N 0.08748 0.45932 0.41353 0.0
C709 C 0.13045 0.4982 0.40403 0.0
C710 C 0.13563 0.54494 0.41041 0.0
C711 C 0.70133 0.18177 0.87048 0.0
C712 C 0.70335 0.1414 0.88283 0.0
C713 C 0.66103 0.1875 0.87665 0.0
C714 C 0.6206 0.15325 0.89558 0.0
H715 H 0.73179 0.21001 0.85643 0.0
H716 H 0.66189 0.21955 0.86681 0.0
S717 S 0.60682 0.04046 0.93336 0.0
N718 N 0.66055 0.06584 0.91429 0.0
N719 N 0.58481 0.07669 0.92623 0.0
C720 C 0.62128 0.1118 0.9072 0.0
C721 C 0.66254 0.10587 0.90075 0.0
C722 C 0.5094 0.64317 0.37887 0.0
C723 C 0.50483 0.60233 0.39581 0.0
C724 C 0.55508 0.6838 0.37248 0.0
C725 C 0.59862 0.68575 0.3827 0.0
H726 H 0.47723 0.64411 0.37089 0.0
H727 H 0.55608 0.71458 0.36009 0.0
S728 S 0.6072 0.58764 0.42679 0.0
N729 N 0.54813 0.56566 0.42177 0.0
N730 N 0.63415 0.64213 0.4095 0.0
C731 C 0.59486 0.64444 0.39839 0.0
C732 C 0.54802 0.6028 0.40501 0.0
C733 C 0.89428 0.53139 0.88251 0.0
C734 C 0.94 0.57439 0.88484 0.0
C735 C 0.88903 0.48559 0.8875 0.0
C736 C 0.92917 0.47998 0.89492 0.0
H737 H 0.86159 0.5328 0.87719 0.0
H738 H 0.85291 0.45412 0.88559 0.0
S739 S 0.05725 0.57997 0.90343 0.0
N740 N 1.02663 0.60776 0.89463 0.0
N741 N 1.01673 0.52156 0.90397 0.0
C742 C 0.9754 0.52232 0.89654 0.0
C743 C 0.98079 0.56937 0.89155 0.0
C744 C 0.20096 0.40227 0.25938 0.0
C745 C 0.23114 0.40509 0.28714 0.0
C746 C 0.21462 0.40241 0.22485 0.0
C747 C 0.259 0.40521 0.21656 0.0
H748 H 0.16538 0.39782 0.26419 0.0
H749 H 0.18894 0.39775 0.20464 0.0
S750 S 0.3552 0.42214 0.27917 0.0
N751 N 0.31043 0.41726 0.3037 0.0
N752 N 0.33613 0.41756 0.23878 0.0
C753 C 0.29124 0.41185 0.2439 0.0
C754 C 0.27735 0.41183 0.27916 0.0
C755 C 0.83591 0.18583 0.71865 0.0
C756 C 0.87445 0.232 0.71035 0.0
C757 C 0.82366 0.17195 0.75322 0.0
C758 C 0.84945 0.20369 0.78092 0.0
H759 H 0.81695 0.15908 0.69847 0.0
H760 H 0.7953 0.13508 0.7581 0.0
S761 S 0.94656 0.33217 0.77267 0.0
N762 N 0.93326 0.31209 0.73232 0.0
N763 N 0.91033 0.28591 0.79733 0.0
C764 C 0.8851 0.25141 0.77286 0.0
C765 C 0.89758 0.26557 0.73759 0.0
C766 C 0.6724 0.81743 0.22214 0.0
C767 C 0.6698 0.85897 0.21498 0.0
C768 C 0.676 0.80517 0.25643 0.0
C769 C 0.67689 0.83394 0.28469 0.0
H770 H 0.67589 0.79666 0.20117 0.0
H771 H 0.681 0.7745 0.26057 0.0
S772 S 0.6603 0.94061 0.27916 0.0
N773 N 0.66072 0.92459 0.23842 0.0
N774 N 0.66664 0.90137 0.30288 0.0
C775 C 0.66902 0.87262 0.27776 0.0
C776 C 0.66575 0.88521 0.24287 0.0
C777 C 0.89668 0.66414 0.72066 0.0
C778 C 0.85221 0.66104 0.71234 0.0
C779 C 0.91015 0.66419 0.75521 0.0
C780 C 0.87972 0.66113 0.78288 0.0
H781 H 0.92265 0.66943 0.70054 0.0
H782 H 0.94593 0.66918 0.76011 0.0
S783 S 0.75489 0.64185 0.77455 0.0
N784 N 0.77435 0.64706 0.73424 0.0
N785 N 0.79982 0.64736 0.79921 0.0
C786 C 0.83327 0.65356 0.77478 0.0
C787 C 0.81951 0.65352 0.73952 0.0
C788 C 0.20297 0.79815 0.24647 0.0
C789 C 0.2309 0.82745 0.21876 0.0
C790 C 0.21735 0.81197 0.28096 0.0
C791 C 0.2596 0.85597 0.28865 0.0
H792 H 0.16802 0.76609 0.24151 0.0
H793 H 0.19298 0.79041 0.30152 0.0
S794 S 0.34954 0.94106 0.22557 0.0
N795 N 0.30613 0.89855 0.20127 0.0
N796 N 0.33286 0.92515 0.26617 0.0
C797 C 0.29021 0.88308 0.26123 0.0
C798 C 0.27596 0.86857 0.22615 0.0
C799 C 0.42372 0.19134 0.77552 0.0
C800 C 0.43082 0.23703 0.78458 0.0
C801 C 0.42263 0.17802 0.74073 0.0
C802 C 0.42861 0.20988 0.71357 0.0
H803 H 0.41581 0.16443 0.79524 0.0
H804 H 0.41435 0.14141 0.73524 0.0
S805 S 0.4591 0.33755 0.72397 0.0
N806 N 0.45189 0.317 0.76397 0.0
N807 N 0.44969 0.2919 0.69854 0.0
C808 C 0.4403 0.25725 0.72243 0.0
C809 C 0.44142 0.27082 0.75793 0.0
C810 C 0.3657 0.31671 0.99297 0.0
C811 C 0.33221 0.2779 0.97199 0.0
C812 C 0.3499 0.33908 0.01732 0.0
C813 C 0.30014 0.32369 0.02141 0.0
H814 H 0.40433 0.33015 0.99042 0.0
H815 H 0.37666 0.36747 0.03394 0.0
S816 S 0.19758 0.22336 0.97383 0.0
N817 N 0.24648 0.22502 0.95768 0.0
N818 N 0.21771 0.26695 0.00328 0.0
C819 C 0.26651 0.28519 0.00072 0.0
C820 C 0.28229 0.26244 0.97605 0.0
C821 C 0.07251 0.26711 0.4869 0.0
C822 C 0.09508 0.31556 0.47608 0.0
C823 C 1.03341 0.24815 0.51019 0.0
C824 C 1.01392 0.27623 0.52268 0.0
H825 H 0.08521 0.24355 0.47718 0.0
H826 H 1.01838 0.21112 0.51869 0.0
S827 S 0.05886 0.40483 0.50187 0.0
N828 N 0.09477 0.39125 0.47948 0.0
N829 N 1.0204 0.35517 0.5228 0.0
C830 C 1.03563 0.32457 0.51181 0.0
C831 C 0.07642 0.34434 0.48866 0.0
C832 C 0.75632 0.04276 0.02251 0.0
C833 C 0.758 0.99942 0.02393 0.0
C834 C 0.77968 0.07701 0.99624 0.0
C835 C 0.80604 0.06976 0.97004 0.0
H836 H 0.73716 0.05081 0.04229 0.0
H837 H 0.77685 0.10936 0.99651 0.0
S838 S 0.82119 0.96183 0.96129 0.0
N839 N 0.78757 0.95091 0.99637 0.0
N840 N 0.83169 1.01474 0.947 0.0
C841 C 0.80745 1.02609 0.97083 0.0
C842 C 0.7833 0.99107 0.9976 0.0
C843 C 0.84105 0.79587 0.5072 0.0
C844 C 0.8112 0.74984 0.52141 0.0
C845 C 0.82297 0.8151 0.48273 0.0
C846 C 0.7738 0.78988 0.47241 0.0
H847 H 0.87872 0.8174 0.51531 0.0
H848 H 0.84773 0.85021 0.47185 0.0
S849 S 0.68005 0.66853 0.50281 0.0
N850 N 0.72994 0.67957 0.52383 0.0
N851 N 0.69548 0.71626 0.47829 0.0
C852 C 0.74329 0.744 0.48673 0.0
C853 C 0.76212 0.72383 0.51109 0.0
C854 C 0.06789 0.77975 0.96864 0.0
C855 C 1.01683 0.75503 0.97328 0.0
C856 C 0.10023 0.79329 0.99698 0.0
C857 C 0.0827 0.78298 0.03108 0.0
H858 H 0.08308 0.78773 0.94276 0.0
H859 H 0.13895 0.81075 0.99208 0.0
S860 S 0.95235 0.72569 0.05725 0.0
N861 N 0.95072 0.72479 0.01448 0.0
N862 N 1.01044 0.75128 0.06778 0.0
C863 C 1.0316 0.76034 0.03597 0.0
C864 C 0.99894 0.74598 0.00712 0.0
C865 C 0.27665 0.99722 0.49702 0.0
C866 C 0.31309 0.99623 0.47707 0.0
C867 C 0.28808 0.03513 0.52079 0.0
C868 C 0.33632 0.07378 0.52537 0.0
H869 H 0.23894 0.96937 0.49358 0.0
H870 H 0.25872 1.03419 0.53567 0.0
S871 S 0.44567 0.08583 0.48153 0.0
N872 N 0.4 0.03569 0.46517 0.0
N873 N 0.42097 0.10669 0.50926 0.0
C874 C 0.37312 0.07264 0.50602 0.0
C875 C 0.36164 1.03392 0.48215 0.0
loop_
_geom_bond_atom_site_label_1
_geom_bond_atom_site_label_2
_geom_bond_distance
_geom_bond_site_symmetry_2
_ccdc_geom_bond_type
Tb0 C10 2.825 . S
Tb0 O11 2.347 . S
Tb0 O14 2.366 . S
Tb0 O19 2.418 . S
Tb0 O20 2.384 . S
Tb0 O23 2.479 . S
Tb0 O24 2.471 . S
Eu1 O12 2.418 . S
Eu1 O13 2.384 . S
Eu1 O16 2.479 . S
Eu1 O17 2.471 . S
Eu1 O18 2.347 . S
Eu1 O21 2.366 . S
Eu1 C31 2.825 . S
C2 O18 1.259 . S
C2 O19 1.265 . S
C3 O20 1.255 . S
C3 O21 1.265 . S
C4 C6 1.380 . S
C4 C7 1.374 . S
C4 C10 1.507 . S
C5 C6 1.384 . S
C5 C9 1.387 . S
C5 H32 0.930 . S
C6 C4 1.380 . S
C6 C5 1.384 . S
C6 H33 0.931 . S
C7 C4 1.374 . S
C7 C8 1.390 . S
C7 H34 0.930 . S
C8 C7 1.390 . S
C8 C9 1.391 . S
C8 H35 0.930 . S
C9 C5 1.387 . S
C9 C8 1.391 . S
C10 Tb0 2.825 . S
C10 C4 1.507 . S
C10 O23 1.238 . S
C10 O24 1.247 . S
O11 Tb0 2.347 . S
O11 C15 1.259 . S
O12 Eu1 2.418 . S
O12 C15 1.265 . S
O13 Eu1 2.384 . S
O13 C22 1.255 . S
O14 Tb0 2.366 . S
O14 C22 1.265 . S
C15 O11 1.259 . S
C15 O12 1.265 . S
O16 Eu1 2.479 . S
O16 C31 1.238 . S
O17 Eu1 2.471 . S
O17 C31 1.247 . S
O18 Eu1 2.347 . S
O18 C2 1.259 . S
O19 Tb0 2.418 . S
O19 C2 1.265 . S
O20 Tb0 2.384 . S
O20 C3 1.255 . S
O21 Eu1 2.366 . S
O21 C3 1.265 . S
C22 O13 1.255 . S
C22 O14 1.265 . S
O23 Tb0 2.479 . S
O23 C10 1.238 . S
O24 Tb0 2.471 . S
O24 C10 1.247 . S
C25 C28 1.380 . S
C25 C29 1.374 . S
C25 C31 1.507 . S
C26 C27 1.387 . S
C26 C30 1.391 . S
C27 C26 1.387 . S
C27 C28 1.384 . S
C27 H36 0.930 . S
C28 C25 1.380 . S
C28 C27 1.384 . S
C28 H37 0.931 . S
C29 C25 1.374 . S
C29 C30 1.390 . S
C29 H38 0.930 . S
C30 C26 1.391 . S
C30 C29 1.390 . S
C30 H39 0.930 . S
C31 Eu1 2.825 . S
C31 O16 1.238 . S
C31 O17 1.247 . S
C31 C25 1.507 . S
H32 C5 0.930 . S
H33 C6 0.931 . S
H34 C7 0.930 . S
H35 C8 0.930 . S
H36 C27 0.930 . S
H37 C28 0.931 . S
H38 C29 0.930 . S
H39 C30 0.930 . S
Tb40 C50 2.825 . S
Tb40 O51 2.347 . S
Tb40 O54 2.366 . S
Tb40 O59 2.418 . S
Tb40 O60 2.384 . S
Tb40 O63 2.479 . S
Tb40 O64 2.471 . S
Eu41 O52 2.418 . S
Eu41 O53 2.384 . S
Eu41 O56 2.479 . S
Eu41 O57 2.471 . S
Eu41 O58 2.347 . S
Eu41 O61 2.366 . S
Eu41 C71 2.849 . S
C42 O58 1.259 . S
C42 O59 1.265 . S
C43 O60 1.255 . S
C43 O61 1.265 . S
C44 C46 1.380 . S
C44 C47 1.374 . S
C44 C50 1.507 . S
C45 C46 1.384 . S
C45 C49 1.387 . S
C45 H72 0.930 . S
C46 C44 1.380 . S
C46 C45 1.384 . S
C46 H73 0.931 . S
C47 C44 1.374 . S
C47 C48 1.390 . S
C47 H74 0.930 . S
C48 C47 1.390 . S
C48 C49 1.391 . S
C48 H75 0.930 . S
C49 C45 1.387 . S
C49 C48 1.391 . S
C50 Tb40 2.825 . S
C50 C44 1.507 . S
C50 O63 1.238 . S
C50 O64 1.247 . S
O51 Tb40 2.347 . S
O51 C55 1.259 . S
O52 Eu41 2.418 . S
O52 C55 1.265 . S
O53 Eu41 2.384 . S
O53 C62 1.255 . S
O54 Tb40 2.366 . S
O54 C62 1.265 . S
C55 O51 1.259 . S
C55 O52 1.265 . S
O56 Eu41 2.479 . S
O56 C71 1.250 . S
O57 Eu41 2.471 . S
O57 C71 1.258 . S
O58 Eu41 2.347 . S
O58 C42 1.259 . S
O59 Tb40 2.418 . S
O59 C42 1.265 . S
O60 Tb40 2.384 . S
O60 C43 1.255 . S
O61 Eu41 2.366 . S
O61 C43 1.265 . S
C62 O53 1.255 . S
C62 O54 1.265 . S
O63 Tb40 2.479 . S
O63 C50 1.238 . S
O64 Tb40 2.471 . S
O64 C50 1.247 . S
C65 C68 1.380 . S
C65 C69 1.374 . S
C65 C71 1.483 1_455 S
C66 C67 1.387 . S
C66 C70 1.391 . S
C67 C66 1.387 . S
C67 C68 1.384 . S
C67 H76 0.930 . S
C68 C65 1.380 . S
C68 C67 1.384 . S
C68 H77 0.931 . S
C69 C65 1.374 . S
C69 C70 1.390 . S
C69 H78 0.930 . S
C70 C66 1.391 . S
C70 C69 1.390 . S
C70 H79 0.930 . S
C71 Eu41 2.849 . S
C71 O56 1.250 . S
C71 O57 1.258 . S
C71 C65 1.483 1_655 S
H72 C45 0.930 . S
H73 C46 0.931 . S
H74 C47 0.930 . S
H75 C48 0.930 . S
H76 C67 0.930 . S
H77 C68 0.931 . S
H78 C69 0.930 . S
H79 C70 0.930 . S
Tb80 C90 2.825 . S
Tb80 O91 2.347 . S
Tb80 O94 2.366 . S
Tb80 O99 2.418 . S
Tb80 O100 2.384 . S
Tb80 O103 2.479 . S
Tb80 O104 2.471 . S
Eu81 O92 2.418 . S
Eu81 O93 2.384 . S
Eu81 O96 2.479 . S
Eu81 O97 2.471 . S
Eu81 O98 2.347 . S
Eu81 O101 2.366 . S
Eu81 C111 2.834 . S
C82 O98 1.259 . S
C82 O99 1.265 . S
C83 O100 1.255 . S
C83 O101 1.265 . S
C84 C86 1.380 . S
C84 C87 1.374 . S
C84 C90 1.507 . S
C85 C86 1.384 . S
C85 C89 1.387 . S
C85 H112 0.930 . S
C86 C84 1.380 . S
C86 C85 1.384 . S
C86 H113 0.931 . S
C87 C84 1.374 . S
C87 C88 1.390 . S
C87 H114 0.930 . S
C88 C87 1.390 . S
C88 C89 1.391 . S
C88 H115 0.930 . S
C89 C85 1.387 . S
C89 C88 1.391 . S
C90 Tb80 2.825 . S
C90 C84 1.507 . S
C90 O103 1.238 . S
C90 O104 1.247 . S
O91 Tb80 2.347 . S
O91 C95 1.259 . S
O92 Eu81 2.418 . S
O92 C95 1.265 . S
O93 Eu81 2.384 . S
O93 C102 1.255 . S
O94 Tb80 2.366 . S
O94 C102 1.265 . S
C95 O91 1.259 . S
C95 O92 1.265 . S
O96 Eu81 2.479 . S
O96 C111 1.243 . S
O97 Eu81 2.471 . S
O97 C111 1.249 . S
O98 Eu81 2.347 . S
O98 C82 1.259 . S
O99 Tb80 2.418 . S
O99 C82 1.265 . S
O100 Tb80 2.384 . S
O100 C83 1.255 . S
O101 Eu81 2.366 . S
O101 C83 1.265 . S
C102 O93 1.255 . S
C102 O94 1.265 . S
O103 Tb80 2.479 . S
O103 C90 1.238 . S
O104 Tb80 2.471 . S
O104 C90 1.247 . S
C105 C108 1.380 . S
C105 C109 1.374 . S
C105 C111 1.500 1_545 S
C106 C107 1.387 . S
C106 C110 1.391 . S
C107 C106 1.387 . S
C107 C108 1.384 . S
C107 H116 0.930 . S
C108 C105 1.380 . S
C108 C107 1.384 . S
C108 H117 0.931 . S
C109 C105 1.374 . S
C109 C110 1.390 . S
C109 H118 0.930 . S
C110 C106 1.391 . S
C110 C109 1.390 . S
C110 H119 0.930 . S
C111 Eu81 2.834 . S
C111 O96 1.243 . S
C111 O97 1.249 . S
C111 C105 1.500 1_565 S
H112 C85 0.930 . S
H113 C86 0.931 . S
H114 C87 0.930 . S
H115 C88 0.930 . S
H116 C107 0.930 . S
H117 C108 0.931 . S
H118 C109 0.930 . S
H119 C110 0.930 . S
Tb120 C130 2.825 . S
Tb120 O131 2.347 . S
Tb120 O134 2.366 . S
Tb120 O139 2.418 . S
Tb120 O140 2.384 . S
Tb120 O143 2.479 . S
Tb120 O144 2.471 . S
Eu121 O132 2.418 . S
Eu121 O133 2.384 . S
Eu121 O136 2.479 . S
Eu121 O137 2.471 . S
Eu121 O138 2.347 . S
Eu121 O141 2.366 . S
Eu121 C151 2.825 . S
C122 O138 1.259 . S
C122 O139 1.265 . S
C123 O140 1.255 . S
C123 O141 1.265 . S
C124 C126 1.380 . S
C124 C127 1.374 . S
C124 C130 1.507 . S
C125 C126 1.384 . S
C125 C129 1.387 . S
C125 H152 0.930 . S
C126 C124 1.380 . S
C126 C125 1.384 . S
C126 H153 0.931 . S
C127 C124 1.374 . S
C127 C128 1.390 . S
C127 H154 0.930 . S
C128 C127 1.390 . S
C128 C129 1.391 . S
C128 H155 0.930 . S
C129 C125 1.387 . S
C129 C128 1.391 . S
C130 Tb120 2.825 . S
C130 C124 1.507 . S
C130 O143 1.238 . S
C130 O144 1.247 . S
O131 Tb120 2.347 . S
O131 C135 1.259 . S
O132 Eu121 2.418 . S
O132 C135 1.265 . S
O133 Eu121 2.384 . S
O133 C142 1.255 . S
O134 Tb120 2.366 . S
O134 C142 1.265 . S
C135 O131 1.259 . S
C135 O132 1.265 . S
O136 Eu121 2.479 . S
O136 C151 1.238 . S
O137 Eu121 2.471 . S
O137 C151 1.247 . S
O138 Eu121 2.347 . S
O138 C122 1.259 . S
O139 Tb120 2.418 . S
O139 C122 1.265 . S
O140 Tb120 2.384 . S
O140 C123 1.255 . S
O141 Eu121 2.366 . S
O141 C123 1.265 . S
C142 O133 1.255 . S
C142 O134 1.265 . S
O143 Tb120 2.479 . S
O143 C130 1.238 . S
O144 Tb120 2.471 . S
O144 C130 1.247 . S
C145 C148 1.380 . S
C145 C149 1.374 . S
C145 C151 1.507 . S
C146 C147 1.387 . S
C146 C150 1.391 . S
C147 C146 1.387 . S
C147 C148 1.384 . S
C147 H156 0.930 . S
C148 C145 1.380 . S
C148 C147 1.384 . S
C148 H157 0.931 . S
C149 C145 1.374 . S
C149 C150 1.390 . S
C149 H158 0.930 . S
C150 C146 1.391 . S
C150 C149 1.390 . S
C150 H159 0.930 . S
C151 Eu121 2.825 . S
C151 O136 1.238 . S
C151 O137 1.247 . S
C151 C145 1.507 . S
H152 C125 0.930 . S
H153 C126 0.931 . S
H154 C127 0.930 . S
H155 C128 0.930 . S
H156 C147 0.930 . S
H157 C148 0.931 . S
H158 C149 0.930 . S
H159 C150 0.930 . S
Tb160 C170 2.825 . S
Tb160 O171 2.347 . S
Tb160 O174 2.366 . S
Tb160 O179 2.418 . S
Tb160 O180 2.384 . S
Tb160 O183 2.479 . S
Tb160 O184 2.471 . S
Eu161 O172 2.418 . S
Eu161 O173 2.384 . S
Eu161 O176 2.479 . S
Eu161 O177 2.471 . S
Eu161 O178 2.347 . S
Eu161 O181 2.366 . S
Eu161 C191 2.849 . S
C162 O178 1.259 . S
C162 O179 1.265 . S
C163 O180 1.255 . S
C163 O181 1.265 . S
C164 C166 1.380 . S
C164 C167 1.374 . S
C164 C170 1.507 . S
C165 C166 1.384 . S
C165 C169 1.387 . S
C165 H192 0.930 . S
C166 C164 1.380 . S
C166 C165 1.384 . S
C166 H193 0.931 . S
C167 C164 1.374 . S
C167 C168 1.390 . S
C167 H194 0.930 . S
C168 C167 1.390 . S
C168 C169 1.391 . S
C168 H195 0.930 . S
C169 C165 1.387 . S
C169 C168 1.391 . S
C170 Tb160 2.825 . S
C170 C164 1.507 . S
C170 O183 1.238 . S
C170 O184 1.247 . S
O171 Tb160 2.347 . S
O171 C175 1.259 . S
O172 Eu161 2.418 . S
O172 C175 1.265 . S
O173 Eu161 2.384 . S
O173 C182 1.255 . S
O174 Tb160 2.366 . S
O174 C182 1.265 . S
C175 O171 1.259 . S
C175 O172 1.265 . S
O176 Eu161 2.479 . S
O176 C191 1.250 . S
O177 Eu161 2.471 . S
O177 C191 1.258 . S
O178 Eu161 2.347 . S
O178 C162 1.259 . S
O179 Tb160 2.418 . S
O179 C162 1.265 . S
O180 Tb160 2.384 . S
O180 C163 1.255 . S
O181 Eu161 2.366 . S
O181 C163 1.265 . S
C182 O173 1.255 . S
C182 O174 1.265 . S
O183 Tb160 2.479 . S
O183 C170 1.238 . S
O184 Tb160 2.471 . S
O184 C170 1.247 . S
C185 C188 1.380 . S
C185 C189 1.374 . S
C185 C191 1.483 1_655 S
C186 C187 1.387 . S
C186 C190 1.391 . S
C187 C186 1.387 . S
C187 C188 1.384 . S
C187 H196 0.930 . S
C188 C185 1.380 . S
C188 C187 1.384 . S
C188 H197 0.931 . S
C189 C185 1.374 . S
C189 C190 1.390 . S
C189 H198 0.930 . S
C190 C186 1.391 . S
C190 C189 1.390 . S
C190 H199 0.930 . S
C191 Eu161 2.849 . S
C191 O176 1.250 . S
C191 O177 1.258 . S
C191 C185 1.483 1_455 S
H192 C165 0.930 . S
H193 C166 0.931 . S
H194 C167 0.930 . S
H195 C168 0.930 . S
H196 C187 0.930 . S
H197 C188 0.931 . S
H198 C189 0.930 . S
H199 C190 0.930 . S
Tb200 C210 2.825 . S
Tb200 O211 2.347 . S
Tb200 O214 2.366 . S
Tb200 O219 2.418 . S
Tb200 O220 2.384 . S
Tb200 O223 2.479 . S
Tb200 O224 2.471 . S
Eu201 O212 2.418 . S
Eu201 O213 2.384 . S
Eu201 O216 2.479 . S
Eu201 O217 2.471 . S
Eu201 O218 2.347 . S
Eu201 O221 2.366 . S
Eu201 C231 2.834 . S
C202 O218 1.259 . S
C202 O219 1.265 . S
C203 O220 1.255 . S
C203 O221 1.265 . S
C204 C206 1.380 . S
C204 C207 1.374 . S
C204 C210 1.507 . S
C205 C206 1.384 . S
C205 C209 1.387 . S
C205 H232 0.930 . S
C206 C204 1.380 . S
C206 C205 1.384 . S
C206 H233 0.931 . S
C207 C204 1.374 . S
C207 C208 1.390 . S
C207 H234 0.930 . S
C208 C207 1.390 . S
C208 C209 1.391 . S
C208 H235 0.930 . S
C209 C205 1.387 . S
C209 C208 1.391 . S
C210 Tb200 2.825 . S
C210 C204 1.507 . S
C210 O223 1.238 . S
C210 O224 1.247 . S
O211 Tb200 2.347 . S
O211 C215 1.259 . S
O212 Eu201 2.418 . S
O212 C215 1.265 . S
O213 Eu201 2.384 . S
O213 C222 1.255 . S
O214 Tb200 2.366 . S
O214 C222 1.265 . S
C215 O211 1.259 . S
C215 O212 1.265 . S
O216 Eu201 2.479 . S
O216 C231 1.243 . S
O217 Eu201 2.471 . S
O217 C231 1.249 . S
O218 Eu201 2.347 . S
O218 C202 1.259 . S
O219 Tb200 2.418 . S
O219 C202 1.265 . S
O220 Tb200 2.384 . S
O220 C203 1.255 . S
O221 Eu201 2.366 . S
O221 C203 1.265 . S
C222 O213 1.255 . S
C222 O214 1.265 . S
O223 Tb200 2.479 . S
O223 C210 1.238 . S
O224 Tb200 2.471 . S
O224 C210 1.247 . S
C225 C228 1.380 . S
C225 C229 1.374 . S
C225 C231 1.500 1_565 S
C226 C227 1.387 . S
C226 C230 1.391 . S
C227 C226 1.387 . S
C227 C228 1.384 . S
C227 H236 0.930 . S
C228 C225 1.380 . S
C228 C227 1.384 . S
C228 H237 0.931 . S
C229 C225 1.374 . S
C229 C230 1.390 . S
C229 H238 0.930 . S
C230 C226 1.391 . S
C230 C229 1.390 . S
C230 H239 0.930 . S
C231 Eu201 2.834 . S
C231 O216 1.243 . S
C231 O217 1.249 . S
C231 C225 1.500 1_545 S
H232 C205 0.930 . S
H233 C206 0.931 . S
H234 C207 0.930 . S
H235 C208 0.930 . S
H236 C227 0.930 . S
H237 C228 0.931 . S
H238 C229 0.930 . S
H239 C230 0.930 . S
Tb240 C250 2.825 . S
Tb240 O251 2.347 . S
Tb240 O254 2.366 . S
Tb240 O259 2.418 . S
Tb240 O260 2.384 . S
Tb240 O263 2.479 . S
Tb240 O264 2.471 . S
Eu241 O252 2.418 . S
Eu241 O253 2.384 . S
Eu241 O256 2.479 . S
Eu241 O257 2.471 . S
Eu241 O258 2.347 . S
Eu241 O261 2.366 . S
Eu241 C271 2.825 . S
C242 O258 1.259 . S
C242 O259 1.265 . S
C243 O260 1.255 . S
C243 O261 1.265 . S
C244 C246 1.380 . S
C244 C247 1.374 . S
C244 C250 1.507 . S
C245 C246 1.384 . S
C245 C249 1.387 . S
C245 H272 0.930 . S
C246 C244 1.380 . S
C246 C245 1.384 . S
C246 H273 0.931 . S
C247 C244 1.374 . S
C247 C248 1.390 . S
C247 H274 0.930 . S
C248 C247 1.390 . S
C248 C249 1.391 . S
C248 H275 0.930 . S
C249 C245 1.387 . S
C249 C248 1.391 . S
C250 Tb240 2.825 . S
C250 C244 1.507 . S
C250 O263 1.238 . S
C250 O264 1.247 . S
O251 Tb240 2.347 . S
O251 C255 1.259 . S
O252 Eu241 2.418 . S
O252 C255 1.265 . S
O253 Eu241 2.384 . S
O253 C262 1.255 . S
O254 Tb240 2.366 . S
O254 C262 1.265 . S
C255 O251 1.259 . S
C255 O252 1.265 . S
O256 Eu241 2.479 . S
O256 C271 1.238 . S
O257 Eu241 2.471 . S
O257 C271 1.247 . S
O258 Eu241 2.347 . S
O258 C242 1.259 . S
O259 Tb240 2.418 . S
O259 C242 1.265 . S
O260 Tb240 2.384 . S
O260 C243 1.255 . S
O261 Eu241 2.366 . S
O261 C243 1.265 . S
C262 O253 1.255 . S
C262 O254 1.265 . S
O263 Tb240 2.479 . S
O263 C250 1.238 . S
O264 Tb240 2.471 . S
O264 C250 1.247 . S
C265 C268 1.380 . S
C265 C269 1.374 . S
C265 C271 1.507 . S
C266 C267 1.387 . S
C266 C270 1.391 . S
C267 C266 1.387 . S
C267 C268 1.384 . S
C267 H276 0.930 . S
C268 C265 1.380 . S
C268 C267 1.384 . S
C268 H277 0.931 . S
C269 C265 1.374 . S
C269 C270 1.390 . S
C269 H278 0.930 . S
C270 C266 1.391 . S
C270 C269 1.390 . S
C270 H279 0.930 . S
C271 Eu241 2.825 . S
C271 O256 1.238 . S
C271 O257 1.247 . S
C271 C265 1.507 . S
H272 C245 0.930 . S
H273 C246 0.931 . S
H274 C247 0.930 . S
H275 C248 0.930 . S
H276 C267 0.930 . S
H277 C268 0.931 . S
H278 C269 0.930 . S
H279 C270 0.930 . S
Tb280 C290 2.825 . S
Tb280 O291 2.347 . S
Tb280 O294 2.366 . S
Tb280 O299 2.418 . S
Tb280 O300 2.384 . S
Tb280 O303 2.479 . S
Tb280 O304 2.471 . S
Eu281 O292 2.418 . S
Eu281 O293 2.384 . S
Eu281 O296 2.479 . S
Eu281 O297 2.471 . S
Eu281 O298 2.347 . S
Eu281 O301 2.366 . S
Eu281 C311 2.834 . S
C282 O298 1.259 . S
C282 O299 1.265 . S
C283 O300 1.255 . S
C283 O301 1.265 . S
C284 C286 1.380 . S
C284 C287 1.374 . S
C284 C290 1.507 . S
C285 C286 1.384 . S
C285 C289 1.387 . S
C285 H312 0.930 . S
C286 C284 1.380 . S
C286 C285 1.384 . S
C286 H313 0.931 . S
C287 C284 1.374 . S
C287 C288 1.390 . S
C287 H314 0.930 . S
C288 C287 1.390 . S
C288 C289 1.391 . S
C288 H315 0.930 . S
C289 C285 1.387 . S
C289 C288 1.391 . S
C290 Tb280 2.825 . S
C290 C284 1.507 . S
C290 O303 1.238 . S
C290 O304 1.247 . S
O291 Tb280 2.347 . S
O291 C295 1.259 . S
O292 Eu281 2.418 . S
O292 C295 1.265 . S
O293 Eu281 2.384 . S
O293 C302 1.255 . S
O294 Tb280 2.366 . S
O294 C302 1.265 . S
C295 O291 1.259 . S
C295 O292 1.265 . S
O296 Eu281 2.479 . S
O296 C311 1.243 . S
O297 Eu281 2.471 . S
O297 C311 1.249 . S
O298 Eu281 2.347 . S
O298 C282 1.259 . S
O299 Tb280 2.418 . S
O299 C282 1.265 . S
O300 Tb280 2.384 . S
O300 C283 1.255 . S
O301 Eu281 2.366 . S
O301 C283 1.265 . S
C302 O293 1.255 . S
C302 O294 1.265 . S
O303 Tb280 2.479 . S
O303 C290 1.238 . S
O304 Tb280 2.471 . S
O304 C290 1.247 . S
C305 C308 1.380 . S
C305 C309 1.374 . S
C305 C311 1.500 1_455 S
C306 C307 1.387 . S
C306 C310 1.391 . S
C307 C306 1.387 . S
C307 C308 1.384 . S
C307 H316 0.930 . S
C308 C305 1.380 . S
C308 C307 1.384 . S
C308 H317 0.931 . S
C309 C305 1.374 . S
C309 C310 1.390 . S
C309 H318 0.930 . S
C310 C306 1.391 . S
C310 C309 1.390 . S
C310 H319 0.930 . S
C311 Eu281 2.834 . S
C311 O296 1.243 . S
C311 O297 1.249 . S
C311 C305 1.500 1_655 S
H312 C285 0.930 . S
H313 C286 0.931 . S
H314 C287 0.930 . S
H315 C288 0.930 . S
H316 C307 0.930 . S
H317 C308 0.931 . S
H318 C309 0.930 . S
H319 C310 0.930 . S
Tb320 C330 2.825 . S
Tb320 O331 2.347 . S
Tb320 O334 2.366 . S
Tb320 O339 2.418 . S
Tb320 O340 2.384 . S
Tb320 O343 2.479 . S
Tb320 O344 2.471 . S
Eu321 O332 2.418 . S
Eu321 O333 2.384 . S
Eu321 O336 2.479 . S
Eu321 O337 2.471 . S
Eu321 O338 2.347 . S
Eu321 O341 2.366 . S
Eu321 C351 2.849 . S
C322 O338 1.259 . S
C322 O339 1.265 . S
C323 O340 1.255 . S
C323 O341 1.265 . S
C324 C326 1.380 . S
C324 C327 1.374 . S
C324 C330 1.507 . S
C325 C326 1.384 . S
C325 C329 1.387 . S
C325 H352 0.930 . S
C326 C324 1.380 . S
C326 C325 1.384 . S
C326 H353 0.931 . S
C327 C324 1.374 . S
C327 C328 1.390 . S
C327 H354 0.930 . S
C328 C327 1.390 . S
C328 C329 1.391 . S
C328 H355 0.930 . S
C329 C325 1.387 . S
C329 C328 1.391 . S
C330 Tb320 2.825 . S
C330 C324 1.507 . S
C330 O343 1.238 . S
C330 O344 1.247 . S
O331 Tb320 2.347 . S
O331 C335 1.259 . S
O332 Eu321 2.418 . S
O332 C335 1.265 . S
O333 Eu321 2.384 . S
O333 C342 1.255 . S
O334 Tb320 2.366 . S
O334 C342 1.265 . S
C335 O331 1.259 . S
C335 O332 1.265 . S
O336 Eu321 2.479 . S
O336 C351 1.250 . S
O337 Eu321 2.471 . S
O337 C351 1.258 . S
O338 Eu321 2.347 . S
O338 C322 1.259 . S
O339 Tb320 2.418 . S
O339 C322 1.265 . S
O340 Tb320 2.384 . S
O340 C323 1.255 . S
O341 Eu321 2.366 . S
O341 C323 1.265 . S
C342 O333 1.255 . S
C342 O334 1.265 . S
O343 Tb320 2.479 . S
O343 C330 1.238 . S
O344 Tb320 2.471 . S
O344 C330 1.247 . S
C345 C348 1.380 . S
C345 C349 1.374 . S
C345 C351 1.483 1_545 S
C346 C347 1.387 . S
C346 C350 1.391 . S
C347 C346 1.387 . S
C347 C348 1.384 . S
C347 H356 0.930 . S
C348 C345 1.380 . S
C348 C347 1.384 . S
C348 H357 0.931 . S
C349 C345 1.374 . S
C349 C350 1.390 . S
C349 H358 0.930 . S
C350 C346 1.391 . S
C350 C349 1.390 . S
C350 H359 0.930 . S
C351 Eu321 2.849 . S
C351 O336 1.250 . S
C351 O337 1.258 . S
C351 C345 1.483 1_565 S
H352 C325 0.930 . S
H353 C326 0.931 . S
H354 C327 0.930 . S
H355 C328 0.930 . S
H356 C347 0.930 . S
H357 C348 0.931 . S
H358 C349 0.930 . S
H359 C350 0.930 . S
Tb360 C370 2.825 . S
Tb360 O371 2.347 . S
Tb360 O374 2.366 . S
Tb360 O379 2.418 . S
Tb360 O380 2.384 . S
Tb360 O383 2.479 . S
Tb360 O384 2.471 . S
Eu361 O372 2.418 . S
Eu361 O373 2.384 . S
Eu361 O376 2.479 . S
Eu361 O377 2.471 . S
Eu361 O378 2.347 . S
Eu361 O381 2.366 . S
Eu361 C391 2.825 . S
C362 O378 1.259 . S
C362 O379 1.265 . S
C363 O380 1.255 . S
C363 O381 1.265 . S
C364 C366 1.380 . S
C364 C367 1.374 . S
C364 C370 1.507 . S
C365 C366 1.384 . S
C365 C369 1.387 . S
C365 H392 0.930 . S
C366 C364 1.380 . S
C366 C365 1.384 . S
C366 H393 0.931 . S
C367 C364 1.374 . S
C367 C368 1.390 . S
C367 H394 0.930 . S
C368 C367 1.390 . S
C368 C369 1.391 . S
C368 H395 0.930 . S
C369 C365 1.387 . S
C369 C368 1.391 . S
C370 Tb360 2.825 . S
C370 C364 1.507 . S
C370 O383 1.238 . S
C370 O384 1.247 . S
O371 Tb360 2.347 . S
O371 C375 1.259 . S
O372 Eu361 2.418 . S
O372 C375 1.265 . S
O373 Eu361 2.384 . S
O373 C382 1.255 . S
O374 Tb360 2.366 . S
O374 C382 1.265 . S
C375 O371 1.259 . S
C375 O372 1.265 . S
O376 Eu361 2.479 . S
O376 C391 1.238 . S
O377 Eu361 2.471 . S
O377 C391 1.247 . S
O378 Eu361 2.347 . S
O378 C362 1.259 . S
O379 Tb360 2.418 . S
O379 C362 1.265 . S
O380 Tb360 2.384 . S
O380 C363 1.255 . S
O381 Eu361 2.366 . S
O381 C363 1.265 . S
C382 O373 1.255 . S
C382 O374 1.265 . S
O383 Tb360 2.479 . S
O383 C370 1.238 . S
O384 Tb360 2.471 . S
O384 C370 1.247 . S
C385 C388 1.380 . S
C385 C389 1.374 . S
C385 C391 1.507 . S
C386 C387 1.387 . S
C386 C390 1.391 . S
C387 C386 1.387 . S
C387 C388 1.384 . S
C387 H396 0.930 . S
C388 C385 1.380 . S
C388 C387 1.384 . S
C388 H397 0.931 . S
C389 C385 1.374 . S
C389 C390 1.390 . S
C389 H398 0.930 . S
C390 C386 1.391 . S
C390 C389 1.390 . S
C390 H399 0.930 . S
C391 Eu361 2.825 . S
C391 O376 1.238 . S
C391 O377 1.247 . S
C391 C385 1.507 . S
H392 C365 0.930 . S
H393 C366 0.931 . S
H394 C367 0.930 . S
H395 C368 0.930 . S
H396 C387 0.930 . S
H397 C388 0.931 . S
H398 C389 0.930 . S
H399 C390 0.930 . S
Tb400 C410 2.825 . S
Tb400 O411 2.347 . S
Tb400 O414 2.366 . S
Tb400 O419 2.418 . S
Tb400 O420 2.384 . S
Tb400 O423 2.479 . S
Tb400 O424 2.471 . S
Eu401 O412 2.418 . S
Eu401 O413 2.384 . S
Eu401 O416 2.479 . S
Eu401 O417 2.471 . S
Eu401 O418 2.347 . S
Eu401 O421 2.366 . S
Eu401 C431 2.834 . S
C402 O418 1.259 . S
C402 O419 1.265 . S
C403 O420 1.255 . S
C403 O421 1.265 . S
C404 C406 1.380 . S
C404 C407 1.374 . S
C404 C410 1.507 . S
C405 C406 1.384 . S
C405 C409 1.387 . S
C405 H432 0.930 . S
C406 C404 1.380 . S
C406 C405 1.384 . S
C406 H433 0.931 . S
C407 C404 1.374 . S
C407 C408 1.390 . S
C407 H434 0.930 . S
C408 C407 1.390 . S
C408 C409 1.391 . S
C408 H435 0.930 . S
C409 C405 1.387 . S
C409 C408 1.391 . S
C410 Tb400 2.825 . S
C410 C404 1.507 . S
C410 O423 1.238 . S
C410 O424 1.247 . S
O411 Tb400 2.347 . S
O411 C415 1.259 . S
O412 Eu401 2.418 . S
O412 C415 1.265 . S
O413 Eu401 2.384 . S
O413 C422 1.255 . S
O414 Tb400 2.366 . S
O414 C422 1.265 . S
C415 O411 1.259 . S
C415 O412 1.265 . S
O416 Eu401 2.479 . S
O416 C431 1.243 . S
O417 Eu401 2.471 . S
O417 C431 1.249 . S
O418 Eu401 2.347 . S
O418 C402 1.259 . S
O419 Tb400 2.418 . S
O419 C402 1.265 . S
O420 Tb400 2.384 . S
O420 C403 1.255 . S
O421 Eu401 2.366 . S
O421 C403 1.265 . S
C422 O413 1.255 . S
C422 O414 1.265 . S
O423 Tb400 2.479 . S
O423 C410 1.238 . S
O424 Tb400 2.471 . S
O424 C410 1.247 . S
C425 C428 1.380 . S
C425 C429 1.374 . S
C425 C431 1.500 1_655 S
C426 C427 1.387 . S
C426 C430 1.391 . S
C427 C426 1.387 . S
C427 C428 1.384 . S
C427 H436 0.930 . S
C428 C425 1.380 . S
C428 C427 1.384 . S
C428 H437 0.931 . S
C429 C425 1.374 . S
C429 C430 1.390 . S
C429 H438 0.930 . S
C430 C426 1.391 . S
C430 C429 1.390 . S
C430 H439 0.930 . S
C431 Eu401 2.834 . S
C431 O416 1.243 . S
C431 O417 1.249 . S
C431 C425 1.500 1_455 S
H432 C405 0.930 . S
H433 C406 0.931 . S
H434 C407 0.930 . S
H435 C408 0.930 . S
H436 C427 0.930 . S
H437 C428 0.931 . S
H438 C429 0.930 . S
H439 C430 0.930 . S
Tb440 C450 2.825 . S
Tb440 O451 2.347 . S
Tb440 O454 2.366 . S
Tb440 O459 2.418 . S
Tb440 O460 2.384 . S
Tb440 O463 2.479 . S
Tb440 O464 2.471 . S
Eu441 O452 2.418 . S
Eu441 O453 2.384 . S
Eu441 O456 2.479 . S
Eu441 O457 2.471 . S
Eu441 O458 2.347 . S
Eu441 O461 2.366 . S
Eu441 C471 2.849 . S
C442 O458 1.259 . S
C442 O459 1.265 . S
C443 O460 1.255 . S
C443 O461 1.265 . S
C444 C446 1.380 . S
C444 C447 1.374 . S
C444 C450 1.507 . S
C445 C446 1.384 . S
C445 C449 1.387 . S
C445 H472 0.930 . S
C446 C444 1.380 . S
C446 C445 1.384 . S
C446 H473 0.931 . S
C447 C444 1.374 . S
C447 C448 1.390 . S
C447 H474 0.930 . S
C448 C447 1.390 . S
C448 C449 1.391 . S
C448 H475 0.930 . S
C449 C445 1.387 . S
C449 C448 1.391 . S
C450 Tb440 2.825 . S
C450 C444 1.507 . S
C450 O463 1.238 . S
C450 O464 1.247 . S
O451 Tb440 2.347 . S
O451 C455 1.259 . S
O452 Eu441 2.418 . S
O452 C455 1.265 . S
O453 Eu441 2.384 . S
O453 C462 1.255 . S
O454 Tb440 2.366 . S
O454 C462 1.265 . S
C455 O451 1.259 . S
C455 O452 1.265 . S
O456 Eu441 2.479 . S
O456 C471 1.250 . S
O457 Eu441 2.471 . S
O457 C471 1.258 . S
O458 Eu441 2.347 . S
O458 C442 1.259 . S
O459 Tb440 2.418 . S
O459 C442 1.265 . S
O460 Tb440 2.384 . S
O460 C443 1.255 . S
O461 Eu441 2.366 . S
O461 C443 1.265 . S
C462 O453 1.255 . S
C462 O454 1.265 . S
O463 Tb440 2.479 . S
O463 C450 1.238 . S
O464 Tb440 2.471 . S
O464 C450 1.247 . S
C465 C468 1.380 . S
C465 C469 1.374 . S
C465 C471 1.483 1_565 S
C466 C467 1.387 . S
C466 C470 1.391 . S
C467 C466 1.387 . S
C467 C468 1.384 . S
C467 H476 0.930 . S
C468 C465 1.380 . S
C468 C467 1.384 . S
C468 H477 0.931 . S
C469 C465 1.374 . S
C469 C470 1.390 . S
C469 H478 0.930 . S
C470 C466 1.391 . S
C470 C469 1.390 . S
C470 H479 0.930 . S
C471 Eu441 2.849 . S
C471 O456 1.250 . S
C471 O457 1.258 . S
C471 C465 1.483 1_545 S
H472 C445 0.930 . S
H473 C446 0.931 . S
H474 C447 0.930 . S
H475 C448 0.930 . S
H476 C467 0.930 . S
H477 C468 0.931 . S
H478 C469 0.930 . S
H479 C470 0.930 . S
C480 C481 1.369 . S
C480 C482 1.419 1_565 S
C480 H484 0.930 . S
C481 C480 1.369 . S
C481 C490 1.429 . S
C482 C480 1.419 1_545 S
C482 C483 1.363 . S
C482 H485 0.929 . S
C483 C482 1.363 . S
C483 C489 1.428 1_545 S
H484 C480 0.930 . S
H485 C482 0.929 . S
S486 N487 1.613 . S
S486 N488 1.610 1_565 S
N487 S486 1.613 . S
N487 C490 1.350 . S
N488 S486 1.610 1_545 S
N488 C489 1.351 1_545 S
C489 C483 1.428 1_565 S
C489 N488 1.351 1_565 S
C489 C490 1.434 . S
C490 C481 1.429 . S
C490 N487 1.350 . S
C490 C489 1.434 . S
C491 C492 1.369 . S
C491 C493 1.419 . S
C491 H495 0.930 . S
C492 C491 1.369 . S
C492 C501 1.429 . S
C493 C491 1.419 . S
C493 C494 1.363 . S
C493 H496 0.929 . S
C494 C493 1.363 . S
C494 C500 1.428 . S
H495 C491 0.930 . S
H496 C493 0.929 . S
S497 N498 1.613 . S
S497 N499 1.610 . S
N498 S497 1.613 . S
N498 C501 1.350 . S
N499 S497 1.610 . S
N499 C500 1.351 . S
C500 C494 1.428 . S
C500 N499 1.351 . S
C500 C501 1.434 . S
C501 C492 1.429 . S
C501 N498 1.350 . S
C501 C500 1.434 . S
C502 C503 1.369 1_455 S
C502 C504 1.419 . S
C502 H506 0.930 . S
C503 C502 1.369 1_655 S
C503 C512 1.429 . S
C504 C502 1.419 . S
C504 C505 1.363 . S
C504 H507 0.929 . S
C505 C504 1.363 . S
C505 C511 1.428 . S
H506 C502 0.930 . S
H507 C504 0.929 . S
S508 N509 1.613 . S
S508 N510 1.610 1_655 S
N509 S508 1.613 . S
N509 C512 1.350 . S
N510 S508 1.610 1_455 S
N510 C511 1.351 . S
C511 C505 1.428 . S
C511 N510 1.351 . S
C511 C512 1.434 1_455 S
C512 C503 1.429 . S
C512 N509 1.350 . S
C512 C511 1.434 1_655 S
C513 C514 1.369 1_545 S
C513 C515 1.419 . S
C513 H517 0.930 . S
C514 C513 1.369 1_565 S
C514 C523 1.429 . S
C515 C513 1.419 . S
C515 C516 1.363 . S
C515 H518 0.929 . S
C516 C515 1.363 . S
C516 C522 1.428 . S
H517 C513 0.930 . S
H518 C515 0.929 . S
S519 N520 1.613 . S
S519 N521 1.610 1_565 S
N520 S519 1.613 . S
N520 C523 1.350 . S
N521 S519 1.610 1_545 S
N521 C522 1.351 . S
C522 C516 1.428 . S
C522 N521 1.351 . S
C522 C523 1.434 1_545 S
C523 C514 1.429 . S
C523 N520 1.350 . S
C523 C522 1.434 1_565 S
C524 C525 1.369 . S
C524 C526 1.419 . S
C524 H528 0.930 . S
C525 C524 1.369 . S
C525 C534 1.429 . S
C526 C524 1.419 . S
C526 C527 1.363 . S
C526 H529 0.929 . S
C527 C526 1.363 . S
C527 C533 1.428 . S
H528 C524 0.930 . S
H529 C526 0.929 . S
S530 N531 1.613 . S
S530 N532 1.610 . S
N531 S530 1.613 . S
N531 C534 1.350 . S
N532 S530 1.610 . S
N532 C533 1.351 . S
C533 C527 1.428 . S
C533 N532 1.351 . S
C533 C534 1.434 . S
C534 C525 1.429 . S
C534 N531 1.350 . S
C534 C533 1.434 . S
C535 C536 1.369 . S
C535 C537 1.419 . S
C535 H539 0.930 . S
C536 C535 1.369 . S
C536 C545 1.429 . S
C537 C535 1.419 . S
C537 C538 1.363 1_655 S
C537 H540 0.929 1_655 S
C538 C537 1.363 1_455 S
C538 C544 1.428 . S
H539 C535 0.930 . S
H540 C537 0.929 1_455 S
S541 N542 1.613 . S
S541 N543 1.610 1_655 S
N542 S541 1.613 . S
N542 C545 1.350 . S
N543 S541 1.610 1_455 S
N543 C544 1.351 . S
C544 C538 1.428 . S
C544 N543 1.351 . S
C544 C545 1.434 1_455 S
C545 C536 1.429 . S
C545 N542 1.350 . S
C545 C544 1.434 1_655 S
C546 C547 1.369 . S
C546 C548 1.419 1_455 S
C546 H550 0.930 . S
C547 C546 1.369 . S
C547 C556 1.429 . S
C548 C546 1.419 1_655 S
C548 C549 1.363 . S
C548 H551 0.929 . S
C549 C548 1.363 . S
C549 C555 1.428 1_655 S
H550 C546 0.930 . S
H551 C548 0.929 . S
S552 N553 1.613 . S
S552 N554 1.610 . S
N553 S552 1.613 . S
N553 C556 1.350 . S
N554 S552 1.610 . S
N554 C555 1.351 . S
C555 C549 1.428 1_455 S
C555 N554 1.351 . S
C555 C556 1.434 . S
C556 C547 1.429 . S
C556 N553 1.350 . S
C556 C555 1.434 . S
C557 C558 1.369 . S
C557 C559 1.419 1_565 S
C557 H561 0.930 . S
C558 C557 1.369 . S
C558 C567 1.429 1_565 S
C559 C557 1.419 1_545 S
C559 C560 1.363 . S
C559 H562 0.929 . S
C560 C559 1.363 . S
C560 C566 1.428 . S
H561 C557 0.930 . S
H562 C559 0.929 . S
S563 N564 1.599 1_545 S
S563 N565 1.610 . S
N564 S563 1.599 1_565 S
N564 C567 1.342 1_565 S
N565 S563 1.610 . S
N565 C566 1.351 . S
C566 C560 1.428 . S
C566 N565 1.351 . S
C566 C567 1.434 . S
C567 C558 1.429 1_545 S
C567 N564 1.342 1_545 S
C567 C566 1.434 . S
C568 C569 1.369 . S
C568 C570 1.419 . S
C568 H572 0.930 . S
C569 C568 1.369 . S
C569 C578 1.429 . S
C570 C568 1.419 . S
C570 C571 1.363 . S
C570 H573 0.929 . S
C571 C570 1.363 . S
C571 C577 1.428 . S
H572 C568 0.930 . S
H573 C570 0.929 . S
S574 N575 1.613 . S
S574 N576 1.610 . S
N575 S574 1.613 . S
N575 C578 1.350 . S
N576 S574 1.610 . S
N576 C577 1.351 . S
C577 C571 1.428 . S
C577 N576 1.351 . S
C577 C578 1.434 . S
C578 C569 1.429 . S
C578 N575 1.350 . S
C578 C577 1.434 . S
C579 C580 1.369 1_655 S
C579 C581 1.419 . S
C579 H583 0.930 . S
C580 C579 1.369 1_455 S
C580 C589 1.429 . S
C581 C579 1.419 . S
C581 C582 1.363 . S
C581 H584 0.929 . S
C582 C581 1.363 . S
C582 C588 1.428 . S
H583 C579 0.930 . S
H584 C581 0.929 . S
S585 N586 1.613 . S
S585 N587 1.610 1_455 S
N586 S585 1.613 . S
N586 C589 1.350 . S
N587 S585 1.610 1_655 S
N587 C588 1.351 . S
C588 C582 1.428 . S
C588 N587 1.351 . S
C588 C589 1.434 1_655 S
C589 C580 1.429 . S
C589 N586 1.350 . S
C589 C588 1.434 1_455 S
C590 C591 1.369 . S
C590 C592 1.419 1_545 S
C590 H594 0.930 . S
C591 C590 1.369 . S
C591 C600 1.429 1_545 S
C592 C590 1.419 1_565 S
C592 C593 1.363 . S
C592 H595 0.929 . S
C593 C592 1.363 . S
C593 C599 1.428 . S
H594 C590 0.930 . S
H595 C592 0.929 . S
S596 N597 1.613 1_565 S
S596 N598 1.610 . S
N597 S596 1.613 1_545 S
N597 C600 1.350 1_545 S
N598 S596 1.610 . S
N598 C599 1.351 . S
C599 C593 1.428 . S
C599 N598 1.351 . S
C599 C600 1.434 . S
C600 C591 1.429 1_565 S
C600 N597 1.350 1_565 S
C600 C599 1.434 . S
C601 C602 1.369 . S
C601 C603 1.419 . S
C601 H605 0.930 . S
C602 C601 1.369 . S
C602 C611 1.429 . S
C603 C601 1.419 . S
C603 C604 1.363 . S
C603 H606 0.929 . S
C604 C603 1.363 . S
C604 C610 1.428 . S
H605 C601 0.930 . S
H606 C603 0.929 . S
S607 N608 1.613 . S
S607 N609 1.610 . S
N608 S607 1.613 . S
N608 C611 1.350 . S
N609 S607 1.610 . S
N609 C610 1.351 . S
C610 C604 1.428 . S
C610 N609 1.351 . S
C610 C611 1.434 . S
C611 C602 1.429 . S
C611 N608 1.350 . S
C611 C610 1.434 . S
C612 C613 1.369 . S
C612 C614 1.419 . S
C612 H616 0.930 . S
C613 C612 1.369 . S
C613 C622 1.429 . S
C614 C612 1.419 . S
C614 C615 1.363 . S
C614 H617 0.929 . S
C615 C614 1.363 . S
C615 C621 1.428 . S
H616 C612 0.930 . S
H617 C614 0.929 . S
S618 N619 1.613 . S
S618 N620 1.610 . S
N619 S618 1.613 . S
N619 C622 1.350 . S
N620 S618 1.610 . S
N620 C621 1.351 . S
C621 C615 1.428 . S
C621 N620 1.351 . S
C621 C622 1.434 . S
C622 C613 1.429 . S
C622 N619 1.350 . S
C622 C621 1.434 . S
C623 C624 1.369 . S
C623 C625 1.419 . S
C623 H627 0.930 . S
C624 C623 1.369 . S
C624 C633 1.429 . S
C625 C623 1.419 . S
C625 C626 1.363 . S
C625 H628 0.929 . S
C626 C625 1.363 . S
C626 C632 1.428 . S
H627 C623 0.930 . S
H628 C625 0.929 . S
S629 N630 1.613 . S
S629 N631 1.610 . S
N630 S629 1.613 . S
N630 C633 1.350 . S
N631 S629 1.610 . S
N631 C632 1.351 . S
C632 C626 1.428 . S
C632 N631 1.351 . S
C632 C633 1.434 . S
C633 C624 1.429 . S
C633 N630 1.350 . S
C633 C632 1.434 . S
C634 C635 1.369 . S
C634 C636 1.419 . S
C634 H638 0.930 . S
C635 C634 1.369 . S
C635 C644 1.429 . S
C636 C634 1.419 . S
C636 C637 1.363 . S
C636 H639 0.929 . S
C637 C636 1.363 . S
C637 C643 1.428 . S
H638 C634 0.930 . S
H639 C636 0.929 . S
S640 N641 1.613 . S
S640 N642 1.610 . S
N641 S640 1.613 . S
N641 C644 1.350 . S
N642 S640 1.610 . S
N642 C643 1.351 . S
C643 C637 1.428 . S
C643 N642 1.351 . S
C643 C644 1.434 . S
C644 C635 1.429 . S
C644 N641 1.350 . S
C644 C643 1.434 . S
C645 C646 1.369 . S
C645 C647 1.419 . S
C645 H649 0.930 . S
C646 C645 1.369 . S
C646 C655 1.429 . S
C647 C645 1.419 . S
C647 C648 1.363 . S
C647 H650 0.929 . S
C648 C647 1.363 . S
C648 C654 1.428 . S
H649 C645 0.930 . S
H650 C647 0.929 . S
S651 N652 1.613 . S
S651 N653 1.610 . S
N652 S651 1.613 . S
N652 C655 1.350 . S
N653 S651 1.610 . S
N653 C654 1.351 . S
C654 C648 1.428 . S
C654 N653 1.351 . S
C654 C655 1.434 . S
C655 C646 1.429 . S
C655 N652 1.350 . S
C655 C654 1.434 . S
C656 C657 1.369 . S
C656 C658 1.419 . S
C656 H660 0.930 . S
C657 C656 1.369 . S
C657 C666 1.429 . S
C658 C656 1.419 . S
C658 C659 1.363 . S
C658 H661 0.929 . S
C659 C658 1.363 . S
C659 C665 1.428 . S
H660 C656 0.930 . S
H661 C658 0.929 . S
S662 N663 1.613 . S
S662 N664 1.610 . S
N663 S662 1.613 . S
N663 C666 1.350 . S
N664 S662 1.610 . S
N664 C665 1.351 . S
C665 C659 1.428 . S
C665 N664 1.351 . S
C665 C666 1.434 . S
C666 C657 1.429 . S
C666 N663 1.350 . S
C666 C665 1.434 . S
C667 C668 1.369 . S
C667 C669 1.419 . S
C667 H671 0.930 . S
C668 C667 1.369 . S
C668 C677 1.429 . S
C669 C667 1.419 . S
C669 C670 1.363 . S
C669 H672 0.929 . S
C670 C669 1.363 . S
C670 C676 1.428 . S
H671 C667 0.930 . S
H672 C669 0.929 . S
S673 N674 1.613 . S
S673 N675 1.610 . S
N674 S673 1.613 . S
N674 C677 1.350 . S
N675 S673 1.610 . S
N675 C676 1.351 . S
C676 C670 1.428 . S
C676 N675 1.351 . S
C676 C677 1.434 . S
C677 C668 1.429 . S
C677 N674 1.350 . S
C677 C676 1.434 . S
C678 C679 1.369 . S
C678 C680 1.419 . S
C678 H682 0.930 . S
C679 C678 1.369 . S
C679 C688 1.429 . S
C680 C678 1.419 . S
C680 C681 1.363 . S
C680 H683 0.929 . S
C681 C680 1.363 . S
C681 C687 1.428 . S
H682 C678 0.930 . S
H683 C680 0.929 . S
S684 N685 1.613 . S
S684 N686 1.610 . S
N685 S684 1.613 . S
N685 C688 1.350 . S
N686 S684 1.610 . S
N686 C687 1.351 . S
C687 C681 1.428 . S
C687 N686 1.351 . S
C687 C688 1.434 . S
C688 C679 1.429 . S
C688 N685 1.350 . S
C688 C687 1.434 . S
C689 C690 1.369 . S
C689 C691 1.419 . S
C689 H693 0.930 . S
C690 C689 1.369 . S
C690 C699 1.429 . S
C691 C689 1.419 . S
C691 C692 1.363 . S
C691 H694 0.929 . S
C692 C691 1.363 . S
C692 C698 1.428 . S
H693 C689 0.930 . S
H694 C691 0.929 . S
S695 N696 1.613 . S
S695 N697 1.610 . S
N696 S695 1.613 . S
N696 C699 1.350 . S
N697 S695 1.610 . S
N697 C698 1.351 . S
C698 C692 1.428 . S
C698 N697 1.351 . S
C698 C699 1.434 . S
C699 C690 1.429 . S
C699 N696 1.350 . S
C699 C698 1.434 . S
C700 C701 1.369 . S
C700 C702 1.419 . S
C700 H704 0.930 . S
C701 C700 1.369 . S
C701 C710 1.429 . S
C702 C700 1.419 . S
C702 C703 1.363 . S
C702 H705 0.929 . S
C703 C702 1.363 . S
C703 C709 1.428 . S
H704 C700 0.930 . S
H705 C702 0.929 . S
S706 N707 1.613 . S
S706 N708 1.610 . S
N707 S706 1.613 . S
N707 C710 1.350 . S
N708 S706 1.610 . S
N708 C709 1.351 . S
C709 C703 1.428 . S
C709 N708 1.351 . S
C709 C710 1.434 . S
C710 C701 1.429 . S
C710 N707 1.350 . S
C710 C709 1.434 . S
C711 C712 1.369 . S
C711 C713 1.419 . S
C711 H715 0.930 . S
C712 C711 1.369 . S
C712 C721 1.429 . S
C713 C711 1.419 . S
C713 C714 1.363 . S
C713 H716 0.929 . S
C714 C713 1.363 . S
C714 C720 1.428 . S
H715 C711 0.930 . S
H716 C713 0.929 . S
S717 N718 1.613 . S
S717 N719 1.610 . S
N718 S717 1.613 . S
N718 C721 1.350 . S
N719 S717 1.610 . S
N719 C720 1.351 . S
C720 C714 1.428 . S
C720 N719 1.351 . S
C720 C721 1.434 . S
C721 C712 1.429 . S
C721 N718 1.350 . S
C721 C720 1.434 . S
C722 C723 1.369 . S
C722 C724 1.419 . S
C722 H726 0.930 . S
C723 C722 1.369 . S
C723 C732 1.429 . S
C724 C722 1.419 . S
C724 C725 1.363 . S
C724 H727 0.929 . S
C725 C724 1.363 . S
C725 C731 1.428 . S
H726 C722 0.930 . S
H727 C724 0.929 . S
S728 N729 1.613 . S
S728 N730 1.610 . S
N729 S728 1.613 . S
N729 C732 1.350 . S
N730 S728 1.610 . S
N730 C731 1.351 . S
C731 C725 1.428 . S
C731 N730 1.351 . S
C731 C732 1.434 . S
C732 C723 1.429 . S
C732 N729 1.350 . S
C732 C731 1.434 . S
C733 C734 1.369 . S
C733 C735 1.419 . S
C733 H737 0.930 . S
C734 C733 1.369 . S
C734 C743 1.429 . S
C735 C733 1.419 . S
C735 C736 1.363 . S
C735 H738 0.929 . S
C736 C735 1.363 . S
C736 C742 1.428 . S
H737 C733 0.930 . S
H738 C735 0.929 . S
S739 N740 1.613 . S
S739 N741 1.610 . S
N740 S739 1.613 . S
N740 C743 1.350 . S
N741 S739 1.610 . S
N741 C742 1.351 . S
C742 C736 1.428 . S
C742 N741 1.351 . S
C742 C743 1.434 . S
C743 C734 1.429 . S
C743 N740 1.350 . S
C743 C742 1.434 . S
C744 C745 1.369 . S
C744 C746 1.419 . S
C744 H748 0.930 . S
C745 C744 1.369 . S
C745 C754 1.429 . S
C746 C744 1.419 . S
C746 C747 1.363 . S
C746 H749 0.929 . S
C747 C746 1.363 . S
C747 C753 1.428 . S
H748 C744 0.930 . S
H749 C746 0.929 . S
S750 N751 1.613 . S
S750 N752 1.610 . S
N751 S750 1.613 . S
N751 C754 1.350 . S
N752 S750 1.610 . S
N752 C753 1.351 . S
C753 C747 1.428 . S
C753 N752 1.351 . S
C753 C754 1.434 . S
C754 C745 1.429 . S
C754 N751 1.350 . S
C754 C753 1.434 . S
C755 C756 1.369 . S
C755 C757 1.419 . S
C755 H759 0.930 . S
C756 C755 1.369 . S
C756 C765 1.429 . S
C757 C755 1.419 . S
C757 C758 1.363 . S
C757 H760 0.929 . S
C758 C757 1.363 . S
C758 C764 1.428 . S
H759 C755 0.930 . S
H760 C757 0.929 . S
S761 N762 1.613 . S
S761 N763 1.610 . S
N762 S761 1.613 . S
N762 C765 1.350 . S
N763 S761 1.610 . S
N763 C764 1.351 . S
C764 C758 1.428 . S
C764 N763 1.351 . S
C764 C765 1.434 . S
C765 C756 1.429 . S
C765 N762 1.350 . S
C765 C764 1.434 . S
C766 C767 1.369 . S
C766 C768 1.419 . S
C766 H770 0.930 . S
C767 C766 1.369 . S
C767 C776 1.429 . S
C768 C766 1.419 . S
C768 C769 1.363 . S
C768 H771 0.929 . S
C769 C768 1.363 . S
C769 C775 1.428 . S
H770 C766 0.930 . S
H771 C768 0.929 . S
S772 N773 1.613 . S
S772 N774 1.610 . S
N773 S772 1.613 . S
N773 C776 1.350 . S
N774 S772 1.610 . S
N774 C775 1.351 . S
C775 C769 1.428 . S
C775 N774 1.351 . S
C775 C776 1.434 . S
C776 C767 1.429 . S
C776 N773 1.350 . S
C776 C775 1.434 . S
C777 C778 1.369 . S
C777 C779 1.419 . S
C777 H781 0.930 . S
C778 C777 1.369 . S
C778 C787 1.429 . S
C779 C777 1.419 . S
C779 C780 1.363 . S
C779 H782 0.929 . S
C780 C779 1.363 . S
C780 C786 1.428 . S
H781 C777 0.930 . S
H782 C779 0.929 . S
S783 N784 1.613 . S
S783 N785 1.610 . S
N784 S783 1.613 . S
N784 C787 1.350 . S
N785 S783 1.610 . S
N785 C786 1.351 . S
C786 C780 1.428 . S
C786 N785 1.351 . S
C786 C787 1.434 . S
C787 C778 1.429 . S
C787 N784 1.350 . S
C787 C786 1.434 . S
C788 C789 1.369 . S
C788 C790 1.419 . S
C788 H792 0.930 . S
C789 C788 1.369 . S
C789 C798 1.429 . S
C790 C788 1.419 . S
C790 C791 1.363 . S
C790 H793 0.929 . S
C791 C790 1.363 . S
C791 C797 1.428 . S
H792 C788 0.930 . S
H793 C790 0.929 . S
S794 N795 1.613 . S
S794 N796 1.610 . S
N795 S794 1.613 . S
N795 C798 1.350 . S
N796 S794 1.610 . S
N796 C797 1.351 . S
C797 C791 1.428 . S
C797 N796 1.351 . S
C797 C798 1.434 . S
C798 C789 1.429 . S
C798 N795 1.350 . S
C798 C797 1.434 . S
C799 C800 1.369 . S
C799 C801 1.419 . S
C799 H803 0.930 . S
C800 C799 1.369 . S
C800 C809 1.429 . S
C801 C799 1.419 . S
C801 C802 1.363 . S
C801 H804 0.929 . S
C802 C801 1.363 . S
C802 C808 1.428 . S
H803 C799 0.930 . S
H804 C801 0.929 . S
S805 N806 1.613 . S
S805 N807 1.610 . S
N806 S805 1.613 . S
N806 C809 1.350 . S
N807 S805 1.610 . S
N807 C808 1.351 . S
C808 C802 1.428 . S
C808 N807 1.351 . S
C808 C809 1.434 . S
C809 C800 1.429 . S
C809 N806 1.350 . S
C809 C808 1.434 . S
C810 C811 1.369 . S
C810 C812 1.419 . S
C810 H814 0.930 . S
C811 C810 1.369 . S
C811 C820 1.429 1_556 S
C812 C810 1.419 . S
C812 C813 1.363 1_556 S
C812 H815 0.929 . S
C813 C812 1.363 1_554 S
C813 C819 1.428 . S
H814 C810 0.930 . S
H815 C812 0.929 . S
S816 N817 1.613 . S
S816 N818 1.610 . S
N817 S816 1.613 . S
N817 C820 1.350 . S
N818 S816 1.610 . S
N818 C819 1.351 . S
C819 C813 1.428 . S
C819 N818 1.351 . S
C819 C820 1.434 . S
C820 C811 1.429 1_554 S
C820 N817 1.350 . S
C820 C819 1.434 . S
C821 C822 1.369 . S
C821 C823 1.419 1_455 S
C821 H825 0.930 . S
C822 C821 1.369 . S
C822 C831 1.429 . S
C823 C821 1.419 1_655 S
C823 C824 1.363 . S
C823 H826 0.929 . S
C824 C823 1.363 . S
C824 C830 1.428 . S
H825 C821 0.930 . S
H826 C823 0.929 . S
S827 N828 1.613 . S
S827 N829 1.610 1_455 S
N828 S827 1.613 . S
N828 C831 1.350 . S
N829 S827 1.610 1_655 S
N829 C830 1.351 . S
C830 C824 1.428 . S
C830 N829 1.351 . S
C830 C831 1.434 1_655 S
C831 C822 1.429 . S
C831 N828 1.350 . S
C831 C830 1.434 1_455 S
C832 C833 1.369 . S
C832 C834 1.419 1_565 S
C832 H836 0.930 . S
C833 C832 1.369 . S
C833 C842 1.429 1_554 S
C834 C832 1.419 1_545 S
C834 C835 1.363 1_554 S
C834 H837 0.929 . S
C835 C834 1.363 1_556 S
C835 C841 1.428 . S
H836 C832 0.930 . S
H837 C834 0.929 . S
S838 N839 1.613 . S
S838 N840 1.610 1_565 S
N839 S838 1.613 . S
N839 C842 1.350 . S
N840 S838 1.610 1_545 S
N840 C841 1.351 . S
C841 C835 1.428 . S
C841 N840 1.351 . S
C841 C842 1.434 1_545 S
C842 C833 1.429 1_556 S
C842 N839 1.350 . S
C842 C841 1.434 1_565 S
C843 C844 1.369 . S
C843 C845 1.419 . S
C843 H847 0.930 . S
C844 C843 1.369 . S
C844 C853 1.429 . S
C845 C843 1.419 . S
C845 C846 1.363 . S
C845 H848 0.929 . S
C846 C845 1.363 . S
C846 C852 1.428 . S
H847 C843 0.930 . S
H848 C845 0.929 . S
S849 N850 1.613 . S
S849 N851 1.610 . S
N850 S849 1.613 . S
N850 C853 1.350 . S
N851 S849 1.610 . S
N851 C852 1.351 . S
C852 C846 1.428 . S
C852 N851 1.351 . S
C852 C853 1.434 . S
C853 C844 1.429 . S
C853 N850 1.350 . S
C853 C852 1.434 . S
C854 C855 1.369 . S
C854 C856 1.419 1_656 S
C854 H858 0.930 . S
C855 C854 1.369 . S
C855 C864 1.429 . S
C856 C854 1.419 1_454 S
C856 C857 1.363 . S
C856 H859 0.929 . S
C857 C856 1.363 . S
C857 C863 1.428 . S
H858 C854 0.930 . S
H859 C856 0.929 . S
S860 N861 1.613 1_455 S
S860 N862 1.610 1_556 S
N861 S860 1.613 1_655 S
N861 C864 1.350 . S
N862 S860 1.610 1_554 S
N862 C863 1.351 . S
C863 C857 1.428 . S
C863 N862 1.351 . S
C863 C864 1.434 1_454 S
C864 C855 1.429 . S
C864 N861 1.350 . S
C864 C863 1.434 1_656 S
C865 C866 1.369 . S
C865 C867 1.419 1_565 S
C865 H869 0.930 . S
C866 C865 1.369 . S
C866 C875 1.429 . S
C867 C865 1.419 1_545 S
C867 C868 1.363 . S
C867 H870 0.929 . S
C868 C867 1.363 . S
C868 C874 1.428 . S
H869 C865 0.930 . S
H870 C867 0.929 . S
S871 N872 1.613 . S
S871 N873 1.610 1_565 S
N872 S871 1.613 . S
N872 C875 1.350 . S
N873 S871 1.610 1_545 S
N873 C874 1.351 . S
C874 C868 1.428 . S
C874 N873 1.351 . S
C874 C875 1.434 1_545 S
C875 C866 1.429 . S
C875 N872 1.350 . S
C875 C874 1.434 1_565 S
C481 C163 1.402 . S
C483 C26 1.420 . S
C492 C203 1.401 . S
C494 C66 1.419 . S
C503 C106 1.419 . S
C505 C3 1.400 . S
C514 C146 1.419 . S
C516 C43 1.400 . S
C525 C186 1.424 . S
C527 C83 1.395 . S
C536 C123 1.394 . S
C538 C226 1.423 . S
C547 C323 1.402 . S
C549 C266 1.421 . S
C558 C306 1.424 . S
C560 C363 1.395 . S
C569 C403 1.402 . S
C571 C346 1.420 . S
C580 C386 1.419 . S
C582 C443 1.399 . S
C591 C426 1.423 . S
C593 C243 1.395 . S
C602 C283 1.396 . S
C604 C466 1.421 . S
C613 C182 1.819 . S
C615 C9 1.764 . S
C624 C49 1.765 . S
C626 C222 1.819 . S
C635 C89 1.759 . S
C637 C22 1.822 . S
C646 C129 1.756 . S
C648 C62 1.824 . S
C657 C102 1.824 . S
C659 C169 1.757 . S
C668 C142 1.824 . S
C670 C209 1.757 . S
C679 C342 1.824 . S
C681 C249 1.759 . S
C690 C289 1.762 . S
C692 C382 1.821 . S
C701 C329 1.757 . S
C703 C422 1.824 . S
C712 C462 1.824 . S
C714 C369 1.758 . S
C723 C409 1.756 . S
C725 C262 1.823 . S
C734 C302 1.822 . S
C736 C449 1.761 . S
C745 C415 1.642 . S
C747 C15 1.633 . S
C756 C55 1.631 . S
C758 C455 1.639 . S
C767 C95 1.631 . S
C769 C255 1.640 . S
C778 C135 1.633 . S
C780 C295 1.636 . S
C789 C175 1.642 . S
C791 C335 1.636 . S
C800 C375 1.634 . S
C802 C215 1.635 . S
C811 C362 2.329 . S
C813 C2 2.327 . S
C822 C402 2.330 . S
C824 C42 2.327 . S
C833 C82 2.330 . S
C835 C442 2.326 . S
C844 C122 2.330 . S
C846 C242 2.326 . S
C855 C282 2.326 . S
C857 C162 2.329 . S
C866 C322 2.331 . S
C868 C202 2.326 . S
