# Generated by pormake.
# Topology lcv-e, (6)-cn, num edge types: 1
# Building blocks:
#     Node 0, Type 0, BuildingBlock: KUMJIN_clean_sbu_1, # of connection points: 6
#     Node 1, Type 0, BuildingBlock: KUMJIN_clean_sbu_1, # of connection points: 6
#     Node 2, Type 0, BuildingBlock: KUMJIN_clean_sbu_1, # of connection points: 6
#     Node 3, Type 0, BuildingBlock: KUMJIN_clean_sbu_1, # of connection points: 6
#     Node 4, Type 0, BuildingBlock: KUMJIN_clean_sbu_1, # of connection points: 6
#     Node 5, Type 0, BuildingBlock: KUMJIN_clean_sbu_1, # of connection points: 6
#     Node 6, Type 0, BuildingBlock: KUMJIN_clean_sbu_1, # of connection points: 6
#     Node 7, Type 0, BuildingBlock: KUMJIN_clean_sbu_1, # of connection points: 6
#     Node 8, Type 0, BuildingBlock: KUMJIN_clean_sbu_1, # of connection points: 6
#     Node 9, Type 0, BuildingBlock: KUMJIN_clean_sbu_1, # of connection points: 6
#     Node 10, Type 0, BuildingBlock: KUMJIN_clean_sbu_1, # of connection points: 6
#     Node 11, Type 0, BuildingBlock: KUMJIN_clean_sbu_1, # of connection points: 6
#     Node 12, Type 0, BuildingBlock: KUMJIN_clean_sbu_1, # of connection points: 6
#     Node 13, Type 0, BuildingBlock: KUMJIN_clean_sbu_1, # of connection points: 6
#     Node 14, Type 0, BuildingBlock: KUMJIN_clean_sbu_1, # of connection points: 6
#     Node 15, Type 0, BuildingBlock: KUMJIN_clean_sbu_1, # of connection points: 6
#     Node 16, Type 0, BuildingBlock: KUMJIN_clean_sbu_1, # of connection points: 6
#     Node 17, Type 0, BuildingBlock: KUMJIN_clean_sbu_1, # of connection points: 6
#     Node 18, Type 0, BuildingBlock: KUMJIN_clean_sbu_1, # of connection points: 6
#     Node 19, Type 0, BuildingBlock: KUMJIN_clean_sbu_1, # of connection points: 6
#     Node 20, Type 0, BuildingBlock: KUMJIN_clean_sbu_1, # of connection points: 6
#     Node 21, Type 0, BuildingBlock: KUMJIN_clean_sbu_1, # of connection points: 6
#     Node 22, Type 0, BuildingBlock: KUMJIN_clean_sbu_1, # of connection points: 6
#     Node 23, Type 0, BuildingBlock: KUMJIN_clean_sbu_1, # of connection points: 6
#     Edge 24, Type (0, 0), BuildingBlock: TEMPAE_clean_linker_10, # of connection points: 2
#     Edge 25, Type (0, 0), BuildingBlock: TEMPAE_clean_linker_10, # of connection points: 2
#     Edge 26, Type (0, 0), BuildingBlock: TEMPAE_clean_linker_10, # of connection points: 2
#     Edge 27, Type (0, 0), BuildingBlock: TEMPAE_clean_linker_10, # of connection points: 2
#     Edge 28, Type (0, 0), BuildingBlock: TEMPAE_clean_linker_10, # of connection points: 2
#     Edge 29, Type (0, 0), BuildingBlock: TEMPAE_clean_linker_10, # of connection points: 2
#     Edge 30, Type (0, 0), BuildingBlock: TEMPAE_clean_linker_10, # of connection points: 2
#     Edge 31, Type (0, 0), BuildingBlock: TEMPAE_clean_linker_10, # of connection points: 2
#     Edge 32, Type (0, 0), BuildingBlock: TEMPAE_clean_linker_10, # of connection points: 2
#     Edge 33, Type (0, 0), BuildingBlock: TEMPAE_clean_linker_10, # of connection points: 2
#     Edge 34, Type (0, 0), BuildingBlock: TEMPAE_clean_linker_10, # of connection points: 2
#     Edge 35, Type (0, 0), BuildingBlock: TEMPAE_clean_linker_10, # of connection points: 2
#     Edge 36, Type (0, 0), BuildingBlock: TEMPAE_clean_linker_10, # of connection points: 2
#     Edge 37, Type (0, 0), BuildingBlock: TEMPAE_clean_linker_10, # of connection points: 2
#     Edge 38, Type (0, 0), BuildingBlock: TEMPAE_clean_linker_10, # of connection points: 2
#     Edge 39, Type (0, 0), BuildingBlock: TEMPAE_clean_linker_10, # of connection points: 2
#     Edge 40, Type (0, 0), BuildingBlock: TEMPAE_clean_linker_10, # of connection points: 2
#     Edge 41, Type (0, 0), BuildingBlock: TEMPAE_clean_linker_10, # of connection points: 2
#     Edge 42, Type (0, 0), BuildingBlock: TEMPAE_clean_linker_10, # of connection points: 2
#     Edge 43, Type (0, 0), BuildingBlock: TEMPAE_clean_linker_10, # of connection points: 2
#     Edge 44, Type (0, 0), BuildingBlock: TEMPAE_clean_linker_10, # of connection points: 2
#     Edge 45, Type (0, 0), BuildingBlock: TEMPAE_clean_linker_10, # of connection points: 2
#     Edge 46, Type (0, 0), BuildingBlock: TEMPAE_clean_linker_10, # of connection points: 2
#     Edge 47, Type (0, 0), BuildingBlock: TEMPAE_clean_linker_10, # of connection points: 2
#     Edge 48, Type (0, 0), BuildingBlock: TEMPAE_clean_linker_10, # of connection points: 2
#     Edge 49, Type (0, 0), BuildingBlock: TEMPAE_clean_linker_10, # of connection points: 2
#     Edge 50, Type (0, 0), BuildingBlock: TEMPAE_clean_linker_10, # of connection points: 2
#     Edge 51, Type (0, 0), BuildingBlock: TEMPAE_clean_linker_10, # of connection points: 2
#     Edge 52, Type (0, 0), BuildingBlock: TEMPAE_clean_linker_10, # of connection points: 2
#     Edge 53, Type (0, 0), BuildingBlock: TEMPAE_clean_linker_10, # of connection points: 2
#     Edge 54, Type (0, 0), BuildingBlock: TEMPAE_clean_linker_10, # of connection points: 2
#     Edge 55, Type (0, 0), BuildingBlock: TEMPAE_clean_linker_10, # of connection points: 2
#     Edge 56, Type (0, 0), BuildingBlock: TEMPAE_clean_linker_10, # of connection points: 2
#     Edge 57, Type (0, 0), BuildingBlock: TEMPAE_clean_linker_10, # of connection points: 2
#     Edge 58, Type (0, 0), BuildingBlock: TEMPAE_clean_linker_10, # of connection points: 2
#     Edge 59, Type (0, 0), BuildingBlock: TEMPAE_clean_linker_10, # of connection points: 2
#     Edge 60, Type (0, 0), BuildingBlock: TEMPAE_clean_linker_10, # of connection points: 2
#     Edge 61, Type (0, 0), BuildingBlock: TEMPAE_clean_linker_10, # of connection points: 2
#     Edge 62, Type (0, 0), BuildingBlock: TEMPAE_clean_linker_10, # of connection points: 2
#     Edge 63, Type (0, 0), BuildingBlock: TEMPAE_clean_linker_10, # of connection points: 2
#     Edge 64, Type (0, 0), BuildingBlock: TEMPAE_clean_linker_10, # of connection points: 2
#     Edge 65, Type (0, 0), BuildingBlock: TEMPAE_clean_linker_10, # of connection points: 2
#     Edge 66, Type (0, 0), BuildingBlock: TEMPAE_clean_linker_10, # of connection points: 2
#     Edge 67, Type (0, 0), BuildingBlock: TEMPAE_clean_linker_10, # of connection points: 2
#     Edge 68, Type (0, 0), BuildingBlock: TEMPAE_clean_linker_10, # of connection points: 2
#     Edge 69, Type (0, 0), BuildingBlock: TEMPAE_clean_linker_10, # of connection points: 2
#     Edge 70, Type (0, 0), BuildingBlock: TEMPAE_clean_linker_10, # of connection points: 2
#     Edge 71, Type (0, 0), BuildingBlock: TEMPAE_clean_linker_10, # of connection points: 2
#     Edge 72, Type (0, 0), BuildingBlock: TEMPAE_clean_linker_10, # of connection points: 2
#     Edge 73, Type (0, 0), BuildingBlock: TEMPAE_clean_linker_10, # of connection points: 2
#     Edge 74, Type (0, 0), BuildingBlock: TEMPAE_clean_linker_10, # of connection points: 2
#     Edge 75, Type (0, 0), BuildingBlock: TEMPAE_clean_linker_10, # of connection points: 2
#     Edge 76, Type (0, 0), BuildingBlock: TEMPAE_clean_linker_10, # of connection points: 2
#     Edge 77, Type (0, 0), BuildingBlock: TEMPAE_clean_linker_10, # of connection points: 2
#     Edge 78, Type (0, 0), BuildingBlock: TEMPAE_clean_linker_10, # of connection points: 2
#     Edge 79, Type (0, 0), BuildingBlock: TEMPAE_clean_linker_10, # of connection points: 2
#     Edge 80, Type (0, 0), BuildingBlock: TEMPAE_clean_linker_10, # of connection points: 2
#     Edge 81, Type (0, 0), BuildingBlock: TEMPAE_clean_linker_10, # of connection points: 2
#     Edge 82, Type (0, 0), BuildingBlock: TEMPAE_clean_linker_10, # of connection points: 2
#     Edge 83, Type (0, 0), BuildingBlock: TEMPAE_clean_linker_10, # of connection points: 2
#     Edge 84, Type (0, 0), BuildingBlock: TEMPAE_clean_linker_10, # of connection points: 2
#     Edge 85, Type (0, 0), BuildingBlock: TEMPAE_clean_linker_10, # of connection points: 2
#     Edge 86, Type (0, 0), BuildingBlock: TEMPAE_clean_linker_10, # of connection points: 2
#     Edge 87, Type (0, 0), BuildingBlock: TEMPAE_clean_linker_10, # of connection points: 2
#     Edge 88, Type (0, 0), BuildingBlock: TEMPAE_clean_linker_10, # of connection points: 2
#     Edge 89, Type (0, 0), BuildingBlock: TEMPAE_clean_linker_10, # of connection points: 2
#     Edge 90, Type (0, 0), BuildingBlock: TEMPAE_clean_linker_10, # of connection points: 2
#     Edge 91, Type (0, 0), BuildingBlock: TEMPAE_clean_linker_10, # of connection points: 2
#     Edge 92, Type (0, 0), BuildingBlock: TEMPAE_clean_linker_10, # of connection points: 2
#     Edge 93, Type (0, 0), BuildingBlock: TEMPAE_clean_linker_10, # of connection points: 2
#     Edge 94, Type (0, 0), BuildingBlock: TEMPAE_clean_linker_10, # of connection points: 2
#     Edge 95, Type (0, 0), BuildingBlock: TEMPAE_clean_linker_10, # of connection points: 2
# Relax obj value: 0.480
# Max RMSD: 0.305
# Mean RMSD: 0.290
data_MOF--net-lcv-e--node1-KUMJIN_clean_sbu_1--edge1-TEMPAE_clean_linker_10
_symmetry_space_group_name_H-M    P1
_symmetry_Int_Tables_number       1
_symmetry_cell_setting            triclinic
loop_
_symmetry_equiv_pos_as_xyz
'x, y, z'
_cell_length_a     62.348969
_cell_length_b     62.335429
_cell_length_c     62.373085
_cell_angle_alpha  89.844775
_cell_angle_beta   90.144546
_cell_angle_gamma 90.071641
loop_
_atom_site_label
_atom_site_type_symbol
_atom_site_fract_x
_atom_site_fract_y
_atom_site_fract_z
_atom_type_partial_charge
Eu0 Eu 0.10626 0.26344 0.30836 0.0
C1 C 0.03872 0.22134 0.26077 0.0
N2 N 0.05749 0.21927 0.25008 0.0
C3 C 0.04388 0.18843 0.23156 0.0
C4 C 0.02151 0.20713 0.25694 0.0
C5 C 0.06051 0.20282 0.236 0.0
C6 C 0.0242 0.19073 0.24191 0.0
C7 C 1.01844 0.23837 0.28902 0.0
C8 C 0.03729 0.23673 0.2766 0.0
C9 C 1.00093 0.22487 0.28469 0.0
C10 C 1.00247 0.20926 0.2687 0.0
Eu11 Eu 0.08483 0.24436 0.2576 0.0
N12 N 0.05476 0.24913 0.28079 0.0
C13 C 1.01797 0.25303 0.30592 0.0
C14 C 0.05451 0.2626 0.29788 0.0
C15 C 0.03622 0.26503 0.31052 0.0
H16 H 0.07583 0.20066 0.22827 0.0
H17 H 0.03634 0.27595 0.32398 0.0
H18 H 0.06958 0.30047 0.3247 0.0
H19 H 0.19292 0.26593 0.32369 0.0
H20 H 0.06847 0.27117 0.30211 0.0
H21 H 1.00385 0.25474 0.31587 0.0
H22 H 0.15766 0.24833 0.32009 0.0
H23 H 0.04631 0.17549 0.22029 0.0
H24 H 0.98633 0.22601 0.294 0.0
H25 H 0.98904 0.19858 0.2659 0.0
H26 H 0.06889 0.3391 0.33323 0.0
H27 H 1.01139 0.17944 0.23859 0.0
H28 H 0.19525 0.30551 0.32479 0.0
N29 N 0.10299 0.30013 0.31758 0.0
C30 C 0.12198 0.31085 0.31937 0.0
C31 C 0.08385 0.33144 0.32899 0.0
C32 C 0.12229 0.33294 0.32424 0.0
C33 C 0.08429 0.30959 0.32414 0.0
C34 C 0.10284 0.34331 0.32844 0.0
N35 N 0.14049 0.27761 0.31662 0.0
C36 C 0.15859 0.26558 0.31954 0.0
C37 C 0.16095 0.31004 0.32154 0.0
C38 C 0.14119 0.29936 0.31848 0.0
C39 C 0.17979 0.29786 0.32257 0.0
C40 C 0.17855 0.27552 0.32199 0.0
H41 H 0.10246 0.36024 0.33233 0.0
H42 H 0.14249 0.36079 0.32934 0.0
H43 H 0.1763 0.34082 0.32661 0.0
O44 O 0.1178 0.26323 0.34126 0.0
O45 O 0.13257 0.26545 0.28258 0.0
O46 O 0.10974 0.27072 0.25477 0.0
O47 O 0.08337 0.26025 0.33493 0.0
O48 O 0.12641 0.23461 0.30107 0.0
O49 O 0.11604 0.22563 0.26644 0.0
O50 O 0.07086 0.24845 0.2257 0.0
O51 O 0.08399 0.21353 0.27742 0.0
O52 O 0.08915 0.22791 0.31104 0.0
O53 O 0.10153 0.23274 0.22933 0.0
O54 O 0.07297 0.28042 0.25851 0.0
O55 O 0.09286 0.29307 0.28678 0.0
C56 C 0.12923 0.27054 0.26239 0.0
C57 C 0.09581 0.25156 0.37031 0.0
C58 C 0.10749 0.22778 0.39918 0.0
C59 C 0.09128 0.23633 0.4123 0.0
C60 C 0.07961 0.25956 0.3836 0.0
C61 C 0.07742 0.25202 0.4045 0.0
C62 C 0.10983 0.23563 0.37809 0.0
C63 C 0.12865 0.22326 0.28354 0.0
C64 C 0.09857 0.26187 0.34935 0.0
C65 C 0.14199 0.34375 0.32597 0.0
C66 C 0.16125 0.33236 0.32448 0.0
C67 C 0.08379 0.21094 0.29838 0.0
C68 C 0.09831 0.2569 0.20131 0.0
C69 C 0.10756 0.29373 0.1915 0.0
C70 C 0.11816 0.28542 0.17319 0.0
C71 C 0.10828 0.24921 0.18286 0.0
C72 C 0.0987 0.27894 0.20601 0.0
C73 C 0.11828 0.26349 0.16892 0.0
C74 C 0.07977 0.2971 0.27011 0.0
C75 C 0.08821 0.24185 0.21614 0.0
H76 H 0.08949 0.23108 0.42877 0.0
H77 H 0.06893 0.27207 0.37794 0.0
H78 H 0.06509 0.25854 0.41477 0.0
H79 H 0.1224 0.22945 0.36786 0.0
H80 H 0.12502 0.29577 0.16106 0.0
H81 H 0.10833 0.23222 0.17925 0.0
H82 H 0.09071 0.28466 0.22022 0.0
H83 H 0.12564 0.25761 0.15439 0.0
Eu84 Eu 0.03476 0.84959 0.54865 0.0
C85 C 0.07102 0.77485 0.50801 0.0
N86 N 0.07568 0.7927 0.49656 0.0
C87 C 0.10608 0.77517 0.48094 0.0
C88 C 0.0835 0.7561 0.50598 0.0
C89 C 0.09328 0.79335 0.48356 0.0
C90 C 0.10099 0.75634 0.49198 0.0
C91 C 0.05071 0.75822 0.53652 0.0
C92 C 0.05487 0.77598 0.52302 0.0
C93 C 0.06228 0.73912 0.53383 0.0
C94 C 0.07868 0.73807 0.5186 0.0
Eu95 Eu 0.05247 0.82237 0.49997 0.0
N96 N 0.04445 0.79494 0.52559 0.0
C97 C 0.03572 0.76048 0.55294 0.0
C98 C 0.03092 0.79742 0.54243 0.0
C99 C 0.02609 0.78032 0.55617 0.0
H100 H 0.09751 0.80794 0.47521 0.0
H101 H 1.01526 0.78246 0.5695 0.0
H102 H 0.9978 0.81489 0.56957 0.0
H103 H 0.03459 0.93751 0.55374 0.0
H104 H 0.0245 0.8127 0.54572 0.0
H105 H 0.03214 0.7473 0.56373 0.0
H106 H 0.05111 0.90189 0.55007 0.0
H107 H 0.1199 0.77572 0.4705 0.0
H108 H 0.05915 0.72531 0.54395 0.0
H109 H 0.08797 0.72347 0.51716 0.0
H110 H 0.96012 0.81567 0.58107 0.0
H111 H 0.11104 0.74231 0.49007 0.0
H112 H 0.9958 0.94067 0.56108 0.0
N113 N 0.999 0.84804 0.56155 0.0
C114 C 0.98894 0.86736 0.56318 0.0
C115 C 0.96792 0.83027 0.57578 0.0
C116 C 0.96733 0.86855 0.56982 0.0
C117 C 0.98928 0.82984 0.56911 0.0
C118 C 0.95673 0.84962 0.57566 0.0
N119 N 0.02185 0.88479 0.55482 0.0
C120 C 0.03415 0.90294 0.55326 0.0
C121 C 0.99058 0.90633 0.5619 0.0
C122 C 1.00058 0.88614 0.55952 0.0
C123 C 1.00293 0.92492 0.55941 0.0
C124 C 0.02484 0.92321 0.55532 0.0
H125 H 0.94016 0.8499 0.58086 0.0
H126 H 0.9405 0.88971 0.57595 0.0
H127 H 0.96078 0.92275 0.56884 0.0
O128 O 0.04162 0.86483 0.57919 0.0
O129 O 0.03364 0.87309 0.52046 0.0
O130 O 0.02869 0.84894 0.49348 0.0
O131 O 0.03999 0.82961 0.577 0.0
O132 O 0.06423 0.86723 0.53776 0.0
O133 O 0.07246 0.85364 0.50431 0.0
O134 O 0.04831 0.80431 0.47031 0.0
O135 O 0.08313 0.82241 0.51998 0.0
O136 O 0.06791 0.82901 0.5527 0.0
O137 O 0.06685 0.83358 0.47028 0.0
O138 O 1.01446 0.8168 0.50068 0.0
O139 O 1.00345 0.83718 0.52937 0.0
C140 C 0.02877 0.86867 0.50046 0.0
C141 C 0.03821 0.84556 0.61187 0.0
C142 C 0.04926 0.85449 0.64814 0.0
C143 C 0.03205 0.8424 0.65621 0.0
C144 C 1.02098 0.83359 0.61994 0.0
C145 C 1.01787 0.83216 0.64211 0.0
C146 C 0.05209 0.8561 0.62597 0.0
C147 C 0.07556 0.8676 0.52007 0.0
C148 C 0.04354 0.84644 0.58911 0.0
C149 C 0.95717 0.88857 0.5712 0.0
C150 C 0.96874 0.90739 0.56719 0.0
C151 C 0.08507 0.82281 0.54092 0.0
C152 C 0.04305 0.8291 0.44261 0.0
C153 C 1.00769 0.84183 0.433 0.0
C154 C 1.01624 0.85055 0.41409 0.0
C155 C 0.05172 0.83876 0.4243 0.0
C156 C 1.02115 0.83099 0.44702 0.0
C157 C 0.03822 0.84937 0.40994 0.0
C158 C 0.99834 0.82504 0.51236 0.0
C159 C 0.05686 0.81949 0.4587 0.0
H160 H 0.02955 0.84097 0.67333 0.0
H161 H 1.01021 0.82516 0.60925 0.0
H162 H 1.0046 0.82287 0.64838 0.0
H163 H 0.06566 0.86501 0.61963 0.0
H164 H 1.00586 0.85745 0.40209 0.0
H165 H 0.06879 0.83806 0.42116 0.0
H166 H 1.01426 0.82339 0.461 0.0
H167 H 0.0447 0.85633 0.39542 0.0
Eu168 Eu 0.46353 0.8025 0.7492 0.0
C169 C 0.46737 0.73901 0.82155 0.0
N170 N 0.44907 0.74506 0.81139 0.0
C171 C 0.43346 0.71044 0.81743 0.0
C172 C 0.46925 0.71826 0.83039 0.0
C173 C 0.43237 0.73108 0.80872 0.0
C174 C 0.45188 0.70407 0.82851 0.0
C175 C 0.50434 0.74669 0.83108 0.0
C176 C 0.48483 0.75311 0.8216 0.0
C177 C 0.50599 0.7263 0.84063 0.0
C178 C 0.48853 0.71214 0.84027 0.0
Eu179 Eu 0.44774 0.78126 0.80082 0.0
N180 N 0.48295 0.77271 0.81185 0.0
C181 C 0.5217 0.76092 0.83063 0.0
C182 C 0.49968 0.78682 0.81191 0.0
C183 C 0.51935 0.78103 0.82101 0.0
H184 H 0.41804 0.73611 0.80029 0.0
H185 H 0.53265 0.79219 0.82081 0.0
H186 H 0.50602 0.83647 0.74795 0.0
H187 H 0.3911 0.80421 0.70223 0.0
H188 H 0.49805 0.8026 0.80506 0.0
H189 H 0.53697 0.75656 0.83773 0.0
H190 H 0.424 0.78503 0.71183 0.0
H191 H 0.42008 0.6995 0.81565 0.0
H192 H 0.52085 0.7212 0.8481 0.0
H193 H 0.49022 0.69633 0.84734 0.0
H194 H 0.51289 0.8739 0.73757 0.0
H195 H 0.45271 0.68802 0.83517 0.0
H196 H 0.39217 0.84309 0.69553 0.0
N197 N 0.47576 0.83459 0.73197 0.0
C198 C 0.46073 0.84564 0.72095 0.0
C199 C 0.49818 0.86613 0.7326 0.0
C200 C 0.46315 0.86767 0.71629 0.0
C201 C 0.49443 0.84463 0.73792 0.0
C202 C 0.48229 0.87783 0.72206 0.0
N203 N 0.44174 0.81344 0.719 0.0
C204 C 0.42432 0.8022 0.71175 0.0
C205 C 0.42526 0.84608 0.70562 0.0
C206 C 0.4426 0.83485 0.715 0.0
C207 C 0.40635 0.83493 0.70142 0.0
C208 C 0.40587 0.8129 0.70473 0.0
H209 H 0.48482 0.89472 0.71876 0.0
H210 H 0.44745 0.89597 0.70347 0.0
H211 H 0.41379 0.87711 0.69481 0.0
O212 O 0.49405 0.80164 0.73353 0.0
O213 O 0.4376 0.8232 0.76462 0.0
O214 O 0.42045 0.79932 0.78641 0.0
O215 O 0.49127 0.79069 0.7669 0.0
O216 O 0.43884 0.7764 0.74377 0.0
O217 O 0.42093 0.77286 0.77588 0.0
O218 O 0.44646 0.79345 0.83396 0.0
O219 O 0.4633 0.75264 0.78082 0.0
O220 O 0.46356 0.76352 0.7455 0.0
O221 O 0.4219 0.77144 0.82219 0.0
O222 O 0.46182 0.8174 0.80622 0.0
O223 O 0.46819 0.8308 0.7727 0.0
C224 C 0.4209 0.81729 0.77587 0.0
C225 C 0.51297 0.7709 0.74301 0.0
C226 C 0.50731 0.74119 0.7189 0.0
C227 C 0.51782 0.72746 0.7335 0.0
C228 C 0.52318 0.75732 0.75778 0.0
C229 C 0.52638 0.73573 0.75257 0.0
C230 C 0.50747 0.76301 0.72277 0.0
C231 C 0.422 0.77011 0.75481 0.0
C232 C 0.50327 0.79128 0.74949 0.0
C233 C 0.44614 0.87893 0.70671 0.0
C234 C 0.42704 0.8682 0.70173 0.0
C235 C 0.4658 0.74748 0.7602 0.0
C236 C 0.41863 0.78221 0.85896 0.0
C237 C 0.40717 0.80073 0.89101 0.0
C238 C 0.39826 0.78157 0.89883 0.0
C239 C 0.40937 0.76318 0.86669 0.0
C240 C 0.41738 0.80104 0.87107 0.0
C241 C 0.39929 0.76288 0.88664 0.0
C242 C 0.46812 0.83389 0.79359 0.0
C243 C 0.42922 0.78246 0.83811 0.0
H244 H 0.51841 0.71034 0.73088 0.0
H245 H 0.5277 0.7631 0.77351 0.0
H246 H 0.53403 0.72508 0.76397 0.0
H247 H 0.50078 0.77353 0.71065 0.0
H248 H 0.39025 0.78119 0.91423 0.0
H249 H 0.4101 0.74854 0.85739 0.0
H250 H 0.4242 0.81588 0.865 0.0
H251 H 0.39224 0.74817 0.89262 0.0
Eu252 Eu 0.50768 0.20288 0.03748 0.0
C253 C 0.46945 0.27753 0.99859 0.0
N254 N 0.46421 0.25942 0.98784 0.0
C255 C 0.43184 0.27595 0.97496 0.0
C256 C 0.45618 0.29585 0.99755 0.0
C257 C 0.44541 0.25823 0.9765 0.0
C258 C 0.43737 0.29496 0.9853 0.0
C259 C 0.49201 0.29531 0.02469 0.0
C260 C 0.48715 0.27714 1.012 0.0
C261 C 0.47946 0.3139 0.02292 0.0
C262 C 0.46156 0.31416 1.0094 0.0
Eu263 Eu 0.48886 0.23056 0.98929 0.0
N264 N 0.49862 0.25863 1.01383 0.0
C265 C 0.50886 0.29406 0.03941 0.0
C266 C 0.51419 0.25727 0.02914 0.0
C267 C 0.51978 0.2748 0.04186 0.0
H268 H 0.44057 0.24349 0.96885 0.0
H269 H 0.53233 0.27329 0.05379 0.0
H270 H 0.55182 0.22721 0.05717 0.0
H271 H 0.4884 0.11689 0.04311 0.0
H272 H 0.52208 0.24274 0.03227 0.0
H273 H 0.51304 0.30758 0.04947 0.0
H274 H 0.48003 0.15534 0.04344 0.0
H275 H 0.41704 0.27488 0.96592 0.0
H276 H 0.4831 0.32797 0.03244 0.0
H277 H 0.45164 0.3284 1.00869 0.0
H278 H 0.58894 0.2175 0.06727 0.0
H279 H 0.42672 0.30864 0.98424 0.0
H280 H 0.5261 0.1048 0.04428 0.0
N281 N 0.54349 0.19557 0.0475 0.0
C282 C 0.54928 0.17457 0.04735 0.0
C283 C 0.57807 0.20532 0.06136 0.0
C284 C 0.5705 0.16842 0.05234 0.0
C285 C 0.55704 0.21074 0.05571 0.0
C286 C 0.58506 0.18421 0.05892 0.0
N287 N 0.51269 0.16536 0.04248 0.0
C288 C 0.49654 0.15049 0.0431 0.0
C289 C 0.53897 0.13707 0.04518 0.0
C290 C 0.53352 0.15904 0.0444 0.0
C291 C 0.52255 0.12181 0.04389 0.0
C292 C 0.50124 0.12857 0.04327 0.0
H293 H 0.60143 0.1801 0.0631 0.0
H294 H 0.59249 0.14167 0.05518 0.0
H295 H 0.56497 0.11422 0.04843 0.0
O296 O 0.50621 0.19099 0.0701 0.0
O297 O 0.50905 0.17901 1.00966 0.0
O298 O 0.51103 0.20261 0.98149 0.0
O299 O 0.51072 0.22585 0.0639 0.0
O300 O 0.47453 0.19104 0.03014 0.0
O301 O 0.47155 0.19801 0.99402 0.0
O302 O 0.49318 0.24796 0.959 0.0
O303 O 0.4594 0.23303 1.01161 0.0
O304 O 0.4739 0.22204 0.04368 0.0
O305 O 0.47112 0.22141 0.96081 0.0
O306 O 0.52686 0.23526 0.98789 0.0
O307 O 0.53809 0.21535 1.01704 0.0
C308 C 0.51209 0.18296 0.98917 0.0
C309 C 0.50979 0.21385 0.10094 0.0
C310 C 0.4964 0.20501 0.13632 0.0
C311 C 0.51119 0.2195 0.14532 0.0
C312 C 0.52433 0.22844 0.10994 0.0
C313 C 0.52511 0.23112 0.13214 0.0
C314 C 0.49598 0.20211 0.11411 0.0
C315 C 0.46616 0.18698 1.01133 0.0
C316 C 0.50936 0.2102 0.07792 0.0
C317 C 0.57617 0.14664 0.05184 0.0
C318 C 0.56047 0.13101 0.04807 0.0
C319 C 0.4574 0.23104 0.03256 0.0
C320 C 0.48827 0.22602 0.92856 0.0
C321 C 0.51583 0.20614 0.91002 0.0
C322 C 0.50221 0.204 0.89218 0.0
C323 C 0.47449 0.22348 0.91095 0.0
C324 C 0.50883 0.21733 0.92805 0.0
C325 C 0.48152 0.21255 0.89275 0.0
C326 C 0.54304 0.22722 0.99974 0.0
C327 C 0.48032 0.23531 0.94838 0.0
H328 H 0.51196 0.22184 0.1625 0.0
H329 H 0.53526 0.23745 0.09986 0.0
H330 H 0.53647 0.24223 0.13914 0.0
H331 H 0.48447 0.19116 0.10696 0.0
H332 H 0.50773 0.19618 0.87772 0.0
H333 H 0.45828 0.22971 0.9114 0.0
H334 H 0.51949 0.21925 0.94169 0.0
H335 H 0.47097 0.21074 0.87907 0.0
Eu336 Eu 0.05085 0.99047 0.33059 0.0
C337 C 0.98243 0.0568 0.33856 0.0
N338 N 0.99287 0.04884 0.35599 0.0
C339 C 0.98967 0.08262 0.3741 0.0
C340 C 0.97503 0.07818 0.33842 0.0
C341 C 0.99705 0.06151 0.37345 0.0
C342 C 0.97849 0.09096 0.35657 0.0
C343 C 0.97081 0.05245 0.30168 0.0
C344 C 0.98064 0.04399 0.32026 0.0
C345 C 0.96279 0.07352 0.30177 0.0
C346 C 0.96491 0.08633 0.32005 0.0
Eu347 Eu 1.00185 1.01208 0.35429 0.0
N348 N 0.98893 0.02365 0.32039 0.0
C349 C 0.96938 0.03956 0.28343 0.0
C350 C 0.98702 1.0109 0.30271 0.0
C351 C 0.97752 1.01875 0.28395 0.0
H352 H 1.00595 0.05512 0.38695 0.0
H353 H 0.97638 1.00866 0.2699 0.0
H354 H 0.04356 0.9454 0.30137 0.0
H355 H 0.12588 1.02137 0.36092 0.0
H356 H 0.99308 0.99474 0.30264 0.0
H357 H 0.962 0.04553 0.26885 0.0
H358 H 0.09208 0.02451 0.34293 0.0
H359 H 0.99279 0.09248 0.38802 0.0
H360 H 0.95513 0.08017 0.28764 0.0
H361 H 0.95897 0.10265 0.3197 0.0
H362 H 0.06032 0.9098 0.29768 0.0
H363 H 0.97299 0.10743 0.35703 0.0
H364 H 0.1444 0.98596 0.36424 0.0
N365 N 0.06886 0.95826 0.32045 0.0
C366 C 0.08836 0.95466 0.32914 0.0
C367 C 0.06842 0.92227 0.30665 0.0
C368 C 0.09854 0.93454 0.32768 0.0
C369 C 0.05899 0.94252 0.30876 0.0
C370 C 0.08816 0.91813 0.31644 0.0
N371 N 0.08851 0.99088 0.33776 0.0
C372 C 0.09931 1.00885 0.34406 0.0
C373 C 0.11906 0.96919 0.34755 0.0
C374 C 0.09849 0.97163 0.3385 0.0
C375 C 0.12893 0.9872 0.3564 0.0
C376 C 0.11893 1.00713 0.35438 0.0
H377 H 0.09538 0.90241 0.31493 0.0
H378 H 0.12679 0.91625 0.33658 0.0
H379 H 0.14473 0.94672 0.35439 0.0
O380 O 0.05536 0.98658 0.29633 0.0
O381 O 0.03936 0.96884 0.3584 0.0
O382 O 1.01686 0.99008 0.37845 0.0
O383 O 0.03147 1.00897 0.30804 0.0
O384 O 0.0604 1.00909 0.3595 0.0
O385 O 0.02979 1.0164 0.37882 0.0
O386 O 0.96906 1.00001 0.35902 0.0
O387 O 0.02245 0.04158 0.34278 0.0
O388 O 0.05511 0.02894 0.33144 0.0
O389 O 0.98264 0.02227 0.3813 0.0
O390 O 0.99399 0.97811 0.33674 0.0
O391 O 0.02672 0.96217 0.33285 0.0
C392 C 0.02871 0.97303 0.3762 0.0
C393 C 0.05634 1.02054 0.28176 0.0
C394 C 0.08992 0.04069 0.28144 0.0
C395 C 0.08256 0.05235 0.2636 0.0
C396 C 0.04879 0.0326 0.26439 0.0
C397 C 0.062 0.04837 0.25523 0.0
C398 C 0.07698 0.02461 0.28997 0.0
C399 C 0.051 1.01583 0.37683 0.0
C400 C 0.0437 1.00338 0.29189 0.0
C401 C 0.11879 0.93165 0.33721 0.0
C402 C 0.129 0.94897 0.34731 0.0
C403 C 0.04194 0.04564 0.3353 0.0
C404 C 0.96046 0.99595 0.39558 0.0
C405 C 0.93343 0.9736 0.41203 0.0
C406 C 0.94659 0.9707 0.43008 0.0
C407 C 0.97389 0.99269 0.41351 0.0
C408 C 0.94035 0.98632 0.39494 0.0
C409 C 0.96686 0.98019 0.43073 0.0
C410 C 1.00561 0.9605 0.33196 0.0
C411 C 0.96699 1.00938 0.37748 0.0
H412 H 0.09238 0.06489 0.25665 0.0
H413 H 0.03291 0.02976 0.2579 0.0
H414 H 0.05623 0.05769 0.24174 0.0
H415 H 0.08303 1.01531 0.30329 0.0
H416 H 0.94139 0.96072 0.44334 0.0
H417 H 0.98973 0.99981 0.41429 0.0
H418 H 0.93006 0.98865 0.38106 0.0
H419 H 0.97715 0.97781 0.44452 0.0
Eu420 Eu 0.28026 0.73651 0.60776 0.0
C421 C 0.31936 0.78983 0.5402 0.0
N422 N 0.3226 0.79924 0.55947 0.0
C423 C 0.35216 0.81931 0.54521 0.0
C424 C 0.33224 0.79517 0.5224 0.0
C425 C 0.33908 0.81338 0.5624 0.0
C426 C 0.34855 0.81038 0.52503 0.0
C427 C 0.30222 0.76183 0.51957 0.0
C428 C 0.30448 0.77347 0.53885 0.0
C429 C 0.3141 0.76786 0.50144 0.0
C430 C 0.32909 0.78451 0.50285 0.0
Eu431 Eu 0.29952 0.7895 0.58777 0.0
N432 N 0.29379 0.7676 0.5569 0.0
C433 C 0.28906 0.74371 0.5194 0.0
C434 C 0.28215 0.74914 0.55703 0.0
C435 C 0.27943 0.73702 0.53836 0.0
H436 H 0.34228 0.82004 0.57804 0.0
H437 H 0.27039 0.72221 0.5386 0.0
H438 H 0.24723 0.72188 0.56625 0.0
H439 H 0.2666 0.72308 0.69391 0.0
H440 H 0.27585 0.74326 0.5717 0.0
H441 H 0.28712 0.73416 0.50502 0.0
H442 H 0.2879 0.73022 0.66166 0.0
H443 H 0.36511 0.83064 0.54758 0.0
H444 H 0.3124 0.7592 0.48649 0.0
H445 H 0.33871 0.7885 0.48895 0.0
H446 H 0.20963 0.71165 0.56062 0.0
H447 H 0.35886 0.81481 0.51178 0.0
H448 H 0.22772 0.7162 0.69068 0.0
N449 N 0.24425 0.72585 0.59997 0.0
C450 C 0.23151 0.72233 0.6174 0.0
C451 C 0.21548 0.71491 0.57663 0.0
C452 C 0.20982 0.71617 0.61484 0.0
C453 C 0.23684 0.72086 0.57987 0.0
C454 C 0.2018 0.71296 0.59415 0.0
N455 N 0.26162 0.72809 0.64008 0.0
C456 C 0.27108 0.72721 0.65991 0.0
C457 C 0.22755 0.71924 0.65607 0.0
C458 C 0.24036 0.72366 0.63788 0.0
C459 C 0.23706 0.71943 0.6764 0.0
C460 C 0.25898 0.72323 0.67829 0.0
H461 H 0.18527 0.7082 0.59158 0.0
H462 H 0.18025 0.70811 0.6312 0.0
H463 H 0.19573 0.71095 0.66727 0.0
O464 O 0.28928 0.70684 0.62313 0.0
O465 O 0.28012 0.76086 0.63514 0.0
O466 O 0.27416 0.78925 0.61364 0.0
O467 O 0.28257 0.70685 0.58881 0.0
O468 O 0.30838 0.74546 0.62784 0.0
O469 O 0.3208 0.77877 0.61688 0.0
O470 O 0.31232 0.81741 0.60445 0.0
O471 O 0.32977 0.76924 0.58506 0.0
O472 O 0.31432 0.73558 0.58771 0.0
O473 O 0.29304 0.82208 0.57623 0.0
O474 O 0.26297 0.78815 0.57746 0.0
O475 O 0.25074 0.75788 0.59492 0.0
C476 C 0.27592 0.78126 0.63286 0.0
C477 C 0.27791 0.67428 0.60905 0.0
C478 C 0.28236 0.63877 0.62464 0.0
C479 C 0.26106 0.63381 0.61926 0.0
C480 C 0.25654 0.66941 0.60397 0.0
C481 C 0.24819 0.64917 0.60906 0.0
C482 C 0.29062 0.65897 0.61933 0.0
C483 C 0.3219 0.76145 0.62944 0.0
C484 C 0.28751 0.69545 0.6058 0.0
C485 C 0.19695 0.71264 0.63293 0.0
C486 C 0.20577 0.71422 0.65348 0.0
C487 C 0.33163 0.74827 0.58327 0.0
C488 C 0.28669 0.8444 0.60603 0.0
C489 C 0.25082 0.85085 0.62052 0.0
C490 C 0.25914 0.86887 0.63144 0.0
C491 C 0.29438 0.86269 0.61644 0.0
C492 C 0.26523 0.83817 0.60879 0.0
C493 C 0.28071 0.87461 0.62947 0.0
C494 C 0.24658 0.7756 0.5834 0.0
C495 C 0.30118 0.83098 0.5933 0.0
H496 H 0.25444 0.61817 0.62298 0.0
H497 H 0.24634 0.68109 0.59627 0.0
H498 H 0.2317 0.64539 0.60511 0.0
H499 H 0.30721 0.6628 0.62309 0.0
H500 H 0.24879 0.8796 0.64022 0.0
H501 H 0.31099 0.86752 0.61478 0.0
H502 H 0.25947 0.82403 0.60067 0.0
H503 H 0.2867 0.88873 0.63759 0.0
Eu504 Eu 0.549 0.0361 0.8494 0.0
C505 C 0.51871 0.07891 0.77772 0.0
N506 N 0.50503 0.08193 0.79426 0.0
C507 C 0.4941 0.11581 0.77959 0.0
C508 C 0.52053 0.09435 0.76124 0.0
C509 C 0.49277 0.10004 0.79548 0.0
C510 C 0.50796 0.1129 0.76231 0.0
C511 C 0.54677 0.05786 0.76131 0.0
C512 C 0.53166 0.06089 0.77788 0.0
C513 C 0.54813 0.07278 0.74447 0.0
C514 C 0.53508 0.09101 0.74446 0.0
Eu515 Eu 0.5026 0.05443 0.8202 0.0
N516 N 0.53036 0.04702 0.79477 0.0
C517 C 0.56055 0.04025 0.76242 0.0
C518 C 0.54459 0.0306 0.79624 0.0
C519 C 0.55962 0.02671 0.78013 0.0
H520 H 0.48216 0.10239 0.80896 0.0
H521 H 0.57076 1.01348 0.78156 0.0
H522 H 0.56933 0.99695 0.81653 0.0
H523 H 0.55245 0.03909 0.93727 0.0
H524 H 0.5451 1.02105 0.8101 0.0
H525 H 0.57237 0.03736 0.75006 0.0
H526 H 0.54986 0.05436 0.90103 0.0
H527 H 0.48447 0.13019 0.7807 0.0
H528 H 0.55956 0.07059 0.7316 0.0
H529 H 0.53661 0.10261 0.73159 0.0
H530 H 0.57964 0.95907 0.81927 0.0
H531 H 0.50901 0.12518 0.75003 0.0
H532 H 0.55909 1.00033 0.94219 0.0
N533 N 0.561 0.99991 0.84953 0.0
C534 C 0.56227 0.99063 0.8693 0.0
C535 C 0.57445 0.96764 0.8334 0.0
C536 C 0.56836 0.96891 0.87157 0.0
C537 C 0.56832 0.98913 0.83187 0.0
C538 C 0.57402 0.95734 0.85325 0.0
N539 N 0.55444 0.02441 0.88518 0.0
C540 C 0.5527 0.03739 0.90278 0.0
C541 C 0.56051 0.99384 0.90813 0.0
C542 C 0.55869 1.00311 0.8875 0.0
C543 C 0.55787 1.00691 0.92613 0.0
C544 C 0.55418 0.0288 0.92343 0.0
H545 H 0.57882 0.94068 0.85438 0.0
H546 H 0.57369 0.94283 0.89398 0.0
H547 H 0.5666 0.96457 0.92594 0.0
O548 O 0.57904 0.04414 0.86497 0.0
O549 O 0.52024 0.03463 0.87211 0.0
O550 O 0.49313 0.03229 0.84736 0.0
O551 O 0.57818 0.03814 0.83022 0.0
O552 O 0.53804 0.06611 0.86619 0.0
O553 O 0.50421 0.07333 0.8525 0.0
O554 O 0.47005 0.06572 0.82615 0.0
O555 O 0.52212 0.08478 0.8257 0.0
O556 O 0.5542 0.0678 0.82669 0.0
O557 O 0.47838 0.05333 0.79514 0.0
O558 O 0.5023 1.01635 0.81529 0.0
O559 O 0.5291 1.00503 0.83807 0.0
C560 C 0.49995 0.03144 0.86724 0.0
C561 C 0.61203 0.03587 0.84847 0.0
C562 C 0.6486 0.04469 0.85857 0.0
C563 C 0.65561 0.02517 0.84991 0.0
C564 C 0.61905 1.01636 0.83986 0.0
C565 C 0.6408 1.01097 0.8408 0.0
C566 C 0.62679 0.04978 0.85802 0.0
C567 C 0.51977 0.07657 0.86685 0.0
C568 C 0.58983 0.04321 0.84706 0.0
C569 C 0.56933 0.95955 0.89203 0.0
C570 C 0.56535 0.97195 0.91024 0.0
C571 C 0.54296 0.08614 0.82384 0.0
C572 C 0.44449 0.04622 0.8074 0.0
C573 C 0.43075 1.01064 0.81344 0.0
C574 C 0.41297 1.0156 0.80028 0.0
C575 C 0.42667 0.05137 0.79475 0.0
C576 C 0.44617 0.02616 0.8173 0.0
C577 C 0.41076 0.03604 0.79137 0.0
C578 C 0.51276 1.00011 0.82496 0.0
C579 C 0.46304 0.06004 0.80741 0.0
H580 H 0.67247 1.02101 0.85011 0.0
H581 H 0.60797 1.00552 0.83217 0.0
H582 H 0.64624 0.99594 0.8341 0.0
H583 H 0.62139 0.06508 0.8643 0.0
H584 H 0.40087 1.00365 0.79671 0.0
H585 H 0.42552 0.06684 0.78687 0.0
H586 H 0.46015 0.02209 0.82675 0.0
H587 H 0.3971 0.03973 0.78128 0.0
Eu588 Eu 0.23932 0.25961 0.08426 0.0
C589 C 0.30279 0.33229 0.08973 0.0
N590 N 0.29775 0.32136 0.10786 0.0
C591 C 0.33194 0.33019 0.12336 0.0
C592 C 0.32254 0.34325 0.08804 0.0
C593 C 0.31226 0.31954 0.12433 0.0
C594 C 0.33695 0.34242 0.10529 0.0
C595 C 0.29472 0.34094 0.05268 0.0
C596 C 0.28894 0.33099 0.0722 0.0
C597 C 0.31374 0.35299 0.0514 0.0
C598 C 0.32762 0.35411 0.06902 0.0
Eu599 Eu 0.26219 0.30811 0.10937 0.0
N600 N 0.27073 0.31882 0.07373 0.0
C601 C 0.28161 0.33795 0.03476 0.0
C602 C 0.25883 0.31483 0.05585 0.0
C603 C 0.26384 0.32448 0.03626 0.0
H604 H 0.30847 0.31002 0.13836 0.0
H605 H 0.25405 0.32137 1.02225 0.0
H606 H 0.21199 0.26617 0.03783 0.0
H607 H 0.21986 0.20438 0.1507 0.0
H608 H 0.2458 0.30398 0.05617 0.0
H609 H 0.28549 0.34532 1.0195 0.0
H610 H 0.24309 0.2272 0.12921 0.0
H611 H 0.34318 0.32901 0.13656 0.0
H612 H 0.3182 0.36095 0.0366 0.0
H613 H 0.34255 0.3629 0.06754 0.0
H614 H 0.17592 0.25852 0.02342 0.0
H615 H 0.35225 0.35066 0.10457 0.0
H616 H 0.18207 0.1993 0.14054 0.0
N617 N 0.20536 0.25294 0.06862 0.0
C618 C 0.19146 0.24121 0.08069 0.0
C619 C 0.17997 0.25382 0.03965 0.0
C620 C 0.17058 0.2367 0.07309 0.0
C621 C 0.20039 0.25806 0.04786 0.0
C622 C 0.1648 0.24362 0.05252 0.0
N623 N 0.21937 0.23528 0.10615 0.0
C624 C 0.22699 0.22517 0.12407 0.0
C625 C 0.18457 0.21917 0.11213 0.0
C626 C 0.19858 0.23218 0.0999 0.0
C627 C 0.19233 0.20935 0.13073 0.0
C628 C 0.21368 0.21218 0.13654 0.0
H629 H 0.14896 0.24039 0.04611 0.0
H630 H 0.14026 0.22128 0.08026 0.0
H631 H 0.15242 0.20621 0.11459 0.0
O632 O 0.23698 0.2271 0.07216 0.0
O633 O 0.22023 0.2703 0.11457 0.0
O634 O 0.24439 0.28982 0.13418 0.0
O635 O 0.24827 0.25298 0.05131 0.0
O636 O 0.26527 0.24981 0.1074 0.0
O637 O 0.27052 0.2784 0.13037 0.0
O638 O 0.25212 0.34149 0.11527 0.0
O639 O 0.2924 0.28921 0.09859 0.0
O640 O 0.27709 0.26578 0.07484 0.0
O641 O 0.27183 0.32486 0.13803 0.0
O642 O 0.22509 0.31351 0.09799 0.0
O643 O 0.2187 0.28788 0.07276 0.0
C644 C 0.22611 0.27986 0.1326 0.0
C645 C 0.26895 0.22201 0.05368 0.0
C646 C 0.29862 0.20973 0.07603 0.0
C647 C 0.31244 0.22144 0.06265 0.0
C648 C 0.28347 0.22942 0.03828 0.0
C649 C 0.30526 0.22897 0.04279 0.0
C650 C 0.27667 0.2106 0.07163 0.0
C651 C 0.27268 0.25779 0.12545 0.0
C652 C 0.24793 0.23219 0.05503 0.0
C653 C 0.15643 0.2246 0.08574 0.0
C654 C 0.16338 0.21595 0.10524 0.0
C655 C 0.29499 0.275 0.08322 0.0
C656 C 0.25014 0.35185 0.15212 0.0
C657 C 0.22801 0.38034 0.16633 0.0
C658 C 0.23189 0.37287 0.18725 0.0
C659 C 0.25398 0.34454 0.17321 0.0
C660 C 0.237 0.36973 0.14881 0.0
C661 C 0.2448 0.35499 0.19062 0.0
C662 C 0.21183 0.30481 0.08319 0.0
C663 C 0.26155 0.34231 0.1339 0.0
H664 H 0.32912 0.22344 0.06661 0.0
H665 H 0.27794 0.23771 0.02401 0.0
H666 H 0.31647 0.23548 0.03133 0.0
H667 H 0.26564 0.20312 0.0828 0.0
H668 H 0.22483 0.38084 0.20095 0.0
H669 H 0.2643 0.33093 0.17636 0.0
H670 H 0.23426 0.3758 0.13272 0.0
H671 H 0.24782 0.34931 0.20677 0.0
Eu672 Eu 0.25412 0.08266 0.23911 0.0
C673 C 0.32801 0.08363 0.29981 0.0
N674 N 0.31792 0.10225 0.29464 0.0
C675 C 0.32663 0.11725 0.3289 0.0
C676 C 0.33794 0.08121 0.32 0.0
C677 C 0.31676 0.11887 0.30885 0.0
C678 C 0.33742 0.0984 0.33445 0.0
C679 C 0.33691 0.04683 0.29089 0.0
C680 C 0.32732 0.06655 0.28527 0.0
C681 C 0.34721 0.04456 0.31083 0.0
C682 C 0.34777 0.06169 0.3253 0.0
Eu683 Eu 0.30569 0.10456 0.25911 0.0
N684 N 0.31715 0.06907 0.26594 0.0
C685 C 0.33596 0.02989 0.27626 0.0
C686 C 0.31695 0.05277 0.25138 0.0
C687 C 0.32596 0.03289 0.25646 0.0
H688 H 0.30839 0.13346 0.30456 0.0
H689 H 0.32538 1.01993 0.24497 0.0
H690 H 0.25668 0.04895 0.19669 0.0
H691 H 0.17583 0.11421 0.26344 0.0
H692 H 0.30969 0.05475 0.23588 0.0
H693 H 0.34305 1.01448 0.28004 0.0
H694 H 0.21012 0.09553 0.26943 0.0
H695 H 0.32596 0.13052 0.34003 0.0
H696 H 0.35473 0.02954 0.31529 0.0
H697 H 0.35561 0.05958 0.34068 0.0
H698 H 0.24485 0.04978 0.15865 0.0
H699 H 0.34501 0.09717 0.35005 0.0
H700 H 0.1652 0.12602 0.2271 0.0
N701 N 0.23746 0.07541 0.20565 0.0
C702 C 0.22146 0.0887 0.19994 0.0
C703 C 0.23825 0.06104 0.17005 0.0
C704 C 0.21385 0.08981 0.17874 0.0
C705 C 0.245 0.06062 0.19148 0.0
C706 C 0.22304 0.0762 0.16347 0.0
N707 N 0.21791 0.09465 0.23637 0.0
C708 C 0.20519 0.09961 0.25335 0.0
C709 C 0.19231 0.11065 0.21202 0.0
C710 C 0.21107 0.09887 0.21618 0.0
C711 C 0.17998 0.11721 0.22946 0.0
C712 C 0.18601 0.11077 0.25009 0.0
H713 H 0.21775 0.07651 0.14692 0.0
H714 H 0.19081 0.10518 0.15763 0.0
H715 H 0.17173 0.12354 0.18701 0.0
O716 O 0.24018 0.05085 0.23788 0.0
O717 O 0.26472 0.11134 0.21793 0.0
O718 O 0.29095 0.12886 0.23732 0.0
O719 O 0.27226 0.05559 0.25138 0.0
O720 O 0.24681 0.10944 0.2617 0.0
O721 O 0.27831 0.12862 0.26658 0.0
O722 O 0.33984 0.10762 0.25069 0.0
O723 O 0.28675 0.09084 0.28902 0.0
O724 O 0.2526 0.0825 0.27765 0.0
O725 O 0.32337 0.13368 0.26721 0.0
O726 O 0.31152 0.09189 0.22313 0.0
O727 O 0.27855 0.08052 0.21139 0.0
C728 C 0.27769 0.12784 0.22116 0.0
C729 C 0.24908 0.0312 0.26835 0.0
C730 C 0.22815 0.03262 0.30134 0.0
C731 C 0.23664 1.01235 0.30698 0.0
C732 C 0.25834 1.01186 0.27478 0.0
C733 C 0.25164 1.00217 0.29382 0.0
C734 C 0.23331 0.04073 0.28104 0.0
C735 C 0.25717 0.12655 0.26799 0.0
C736 C 0.256 0.04237 0.24891 0.0
C737 C 0.19662 0.10353 0.17393 0.0
C738 C 0.18579 0.11399 0.19065 0.0
C739 C 0.2671 0.08393 0.29365 0.0
C740 C 0.36095 0.139 0.26039 0.0
C741 C 0.39394 0.15107 0.24371 0.0
C742 C 0.39872 0.16314 0.26214 0.0
C743 C 0.36571 0.1513 0.2786 0.0
C744 C 0.37505 0.1389 0.24299 0.0
C745 C 0.38463 0.16323 0.27948 0.0
C746 C 0.29903 0.08387 0.20745 0.0
C747 C 0.34118 0.12646 0.25947 0.0
H748 H 0.23233 1.00426 0.32164 0.0
H749 H 0.27048 1.00421 0.26504 0.0
H750 H 0.25835 0.98689 0.29862 0.0
H751 H 0.22508 0.05466 0.27481 0.0
H752 H 0.4131 0.17288 0.26292 0.0
H753 H 0.35489 0.15154 0.29216 0.0
H754 H 0.37124 0.12954 0.22883 0.0
H755 H 0.38831 0.17268 0.29355 0.0
Eu756 Eu 0.20158 0.03926 0.50829 0.0
C757 C 0.27457 1.00098 0.46718 0.0
N758 N 0.25615 0.99033 0.4627 0.0
C759 C 0.27118 0.97697 0.42999 0.0
C760 C 0.29229 0.99972 0.45319 0.0
C761 C 0.25408 0.97865 0.44428 0.0
C762 C 0.29046 0.98737 0.43457 0.0
C763 C 0.29406 0.02606 0.48953 0.0
C764 C 0.27532 1.014 0.48519 0.0
C765 C 0.31195 0.02429 0.47605 0.0
C766 C 0.31107 1.01116 0.45793 0.0
Eu767 Eu 0.22905 0.99143 0.48889 0.0
N768 N 0.25764 1.01552 0.49796 0.0
C769 C 0.29423 0.03986 0.50711 0.0
C770 C 0.25784 0.02944 0.5148 0.0
C771 C 0.27594 0.04171 0.51966 0.0
H772 H 0.23913 0.97075 0.44046 0.0
H773 H 0.2757 0.05267 0.53309 0.0
H774 H 0.22761 0.05458 0.55318 0.0
H775 H 0.11653 0.05302 0.48931 0.0
H776 H 0.24417 0.03171 0.52451 0.0
H777 H 0.30824 0.04943 0.51092 0.0
H778 H 0.1548 0.05031 0.48083 0.0
H779 H 0.26948 0.96765 0.41546 0.0
H780 H 0.32646 0.03331 0.4793 0.0
H781 H 0.32488 1.01025 0.44747 0.0
H782 H 0.21891 0.06256 0.59103 0.0
H783 H 0.3037 0.98607 0.42344 0.0
H784 H 0.10459 0.05355 0.52706 0.0
N785 N 0.19522 0.04817 0.54448 0.0
C786 C 0.1743 0.04948 0.55029 0.0
C787 C 0.20623 0.05865 0.57982 0.0
C788 C 0.1686 0.05367 0.57174 0.0
C789 C 0.2111 0.05414 0.55844 0.0
C790 C 0.18493 0.05778 0.58665 0.0
N791 N 0.16477 0.04747 0.51349 0.0
C792 C 0.15002 0.04985 0.4974 0.0
C793 C 0.13679 0.05109 0.53991 0.0
C794 C 0.1586 0.04878 0.5344 0.0
C795 C 0.1215 0.05192 0.52347 0.0
C796 C 0.12819 0.05167 0.50214 0.0
H797 H 0.1812 0.06118 0.60325 0.0
H798 H 0.14217 0.05755 0.59388 0.0
H799 H 0.11429 0.05484 0.56607 0.0
O800 O 0.19404 0.07304 0.51083 0.0
O801 O 0.17731 1.01174 0.51037 0.0
O802 O 0.20077 0.98336 0.51055 0.0
O803 O 0.22766 0.0627 0.50938 0.0
O804 O 0.18711 0.03151 0.47634 0.0
O805 O 0.19643 0.99593 0.47146 0.0
O806 O 0.2484 0.96253 0.49343 0.0
O807 O 0.23054 1.01403 0.4594 0.0
O808 O 0.21704 0.0456 0.47279 0.0
O809 O 0.22019 0.96138 0.47355 0.0
O810 O 0.23528 0.98996 0.52634 0.0
O811 O 0.21338 1.01715 0.53775 0.0
C812 C 0.18122 0.99107 0.51241 0.0
C813 C 0.21955 0.09851 0.49827 0.0
C814 C 0.20861 0.12992 0.47768 0.0
C815 C 0.229 0.13893 0.48082 0.0
C816 C 0.23994 0.10766 0.50104 0.0
C817 C 0.24465 0.12772 0.49225 0.0
C818 C 0.20396 0.10959 0.4862 0.0
C819 C 0.18415 1.0128 0.46731 0.0
C820 C 0.21423 0.07889 0.51032 0.0
C821 C 0.14686 0.05478 0.5774 0.0
C822 C 0.13098 0.05331 0.56154 0.0
C823 C 0.22658 0.03465 0.45662 0.0
C824 C 0.22749 0.93119 0.49376 0.0
C825 C 0.20953 0.91551 0.52439 0.0
C826 C 0.207 0.89626 0.51294 0.0
C827 C 0.22474 0.91207 0.48232 0.0
C828 C 0.2203 0.93271 0.51494 0.0
C829 C 0.2147 0.89454 0.49202 0.0
C830 C 0.22609 1.00046 0.54256 0.0
C831 C 0.23522 0.95033 0.48279 0.0
H832 H 0.23278 0.15465 0.4744 0.0
H833 H 0.25207 0.09953 0.51052 0.0
H834 H 0.26034 0.13477 0.49466 0.0
H835 H 0.18802 0.10292 0.48412 0.0
H836 H 0.19913 0.88257 0.52018 0.0
H837 H 0.22995 0.91086 0.46581 0.0
H838 H 0.22239 0.94747 0.52386 0.0
H839 H 0.21256 0.87975 0.48322 0.0
Eu840 Eu 0.24982 0.93842 0.76032 0.0
C841 C 0.30144 1.00368 0.71922 0.0
N842 N 0.3114 0.98444 0.7177 0.0
C843 C 0.33136 0.99687 0.68728 0.0
C844 C 0.30642 1.02054 0.70493 0.0
C845 C 0.32586 0.98064 0.70175 0.0
C846 C 0.3218 1.01701 0.68903 0.0
C847 C 0.2734 0.02532 0.73495 0.0
C848 C 0.28513 1.00596 0.73403 0.0
C849 C 0.27895 0.04249 0.72145 0.0
C850 C 0.29542 0.04009 0.70645 0.0
Eu851 Eu 0.30243 0.95813 0.74342 0.0
N852 N 0.27976 0.98883 0.74646 0.0
C853 C 0.25591 0.02662 0.74885 0.0
C854 C 0.262 0.98983 0.75902 0.0
C855 C 0.25 1.00865 0.76072 0.0
H856 H 0.33306 0.96503 0.69993 0.0
H857 H 0.23602 1.00914 0.77097 0.0
H858 H 0.2325 0.97532 0.79643 0.0
H859 H 0.23546 0.85145 0.76132 0.0
H860 H 0.25674 0.97611 0.76743 0.0
H861 H 0.24646 0.04115 0.74998 0.0
H862 H 0.24218 0.88649 0.74422 0.0
H863 H 0.34289 0.9938 0.67471 0.0
H864 H 0.2702 0.05748 0.72207 0.0
H865 H 0.29913 0.05327 0.69572 0.0
H866 H 0.22077 0.97587 0.83421 0.0
H867 H 0.32597 0.02951 0.67768 0.0
H868 H 0.22913 0.84927 0.80037 0.0
N869 N 0.23775 0.94156 0.79605 0.0
C870 C 0.23451 0.92253 0.80635 0.0
C871 C 0.22485 0.96081 0.82666 0.0
C872 C 0.22785 0.92216 0.82796 0.0
C873 C 0.23149 0.96045 0.8053 0.0
C874 C 0.22354 0.94165 0.83821 0.0
N875 N 0.24052 0.90401 0.77348 0.0
C876 C 0.23952 0.88578 0.76129 0.0
C877 C 0.23195 0.88356 0.80517 0.0
C878 C 0.23618 0.90332 0.79488 0.0
C879 C 0.23222 0.86473 0.79299 0.0
C880 C 0.23571 0.86589 0.77092 0.0
H881 H 0.21836 0.94199 0.85477 0.0
H882 H 0.22001 0.90189 0.85511 0.0
H883 H 0.22386 0.86815 0.83527 0.0
O884 O 0.21717 0.9268 0.75651 0.0
O885 O 0.27428 0.91153 0.76536 0.0
O886 O 0.30295 0.93336 0.77017 0.0
O887 O 0.22363 0.96172 0.75641 0.0
O888 O 0.25845 0.92014 0.73061 0.0
O889 O 0.29507 0.92518 0.72763 0.0
O890 O 0.33386 0.97148 0.7518 0.0
O891 O 0.28368 0.95918 0.71159 0.0
O892 O 0.24937 0.95518 0.72473 0.0
O893 O 0.33187 0.94323 0.73213 0.0
O894 O 0.29987 0.97013 0.77915 0.0
O895 O 0.26999 0.95186 0.79066 0.0
C896 C 0.29434 0.91427 0.77098 0.0
C897 C 0.18648 0.95015 0.75249 0.0
C898 C 0.15159 0.93823 0.73942 0.0
C899 C 0.14263 0.95764 0.74661 0.0
C900 C 0.1773 0.96938 0.75953 0.0
C901 C 0.15541 0.97301 0.7567 0.0
C902 C 0.17357 0.93453 0.7427 0.0
C903 C 0.27719 0.91463 0.72286 0.0
C904 C 0.20944 0.94623 0.75548 0.0
C905 C 0.22476 0.90244 0.83842 0.0
C906 C 0.22691 0.88321 0.82709 0.0
C907 C 0.26276 0.95987 0.70818 0.0
C908 C 0.35619 0.94197 0.76019 0.0
C909 C 0.35871 0.9259 0.7961 0.0
C910 C 0.37338 0.91087 0.78765 0.0
C911 C 0.37259 0.92854 0.75305 0.0
C912 C 0.34936 0.94061 0.78166 0.0
C913 C 0.38104 0.913 0.76673 0.0
C914 C 0.28713 0.96407 0.79525 0.0
C915 C 0.34397 0.95473 0.74455 0.0
H916 H 0.12582 0.96119 0.74405 0.0
H917 H 0.18702 0.98151 0.76731 0.0
H918 H 0.14837 0.98788 0.76215 0.0
H919 H 0.18067 0.91956 0.73752 0.0
H920 H 0.38121 0.89917 0.79775 0.0
H921 H 0.37812 0.92937 0.73661 0.0
H922 H 0.33708 0.95142 0.78727 0.0
H923 H 0.39373 0.90259 0.76116 0.0
Eu924 Eu 0.35578 1.00626 1.00767 0.0
C925 C 0.27908 0.04692 0.97321 0.0
N926 N 0.29691 0.05713 0.96623 0.0
C927 C 0.27727 0.07118 0.93609 0.0
C928 C 0.25933 0.04908 0.96228 0.0
C929 C 0.29643 0.06849 0.94741 0.0
C930 C 0.25853 0.06175 0.94377 0.0
C931 C 0.26313 1.02068 0.99691 0.0
C932 C 0.28102 0.03291 0.99021 0.0
C933 C 0.24314 0.02373 0.98698 0.0
C934 C 0.24125 0.0379 0.96965 0.0
Eu935 Eu 0.32833 0.05425 0.98773 0.0
N936 N 0.30074 0.02996 0.99904 0.0
C937 C 0.26603 1.00511 1.01279 0.0
C938 C 0.30366 1.01378 1.01338 0.0
C939 C 0.28653 1.00138 1.02078 0.0
H940 H 0.31079 0.0754 0.94072 0.0
H941 H 0.28924 0.9888 0.03247 0.0
H942 H 0.32807 0.98977 0.05151 0.0
H943 H 0.44285 1.00246 0.99438 0.0
H944 H 0.31913 1.0102 1.01896 0.0
H945 H 0.25275 0.99536 1.01836 0.0
H946 H 0.40503 1.00262 0.9833 0.0
H947 H 0.27703 0.08039 0.92136 0.0
H948 H 0.22922 1.01466 0.99209 0.0
H949 H 0.22591 0.03957 0.96164 0.0
H950 H 0.33546 0.98212 0.08971 0.0
H951 H 0.2437 0.06373 0.93488 0.0
H952 H 0.45234 1.00108 0.03285 0.0
N953 N 0.3604 0.9982 0.04441 0.0
C954 C 0.38112 0.99834 0.05137 0.0
C955 C 0.34838 0.98691 0.07917 0.0
C956 C 0.38597 0.99428 0.07313 0.0
C957 C 0.34427 0.99121 0.05756 0.0
C958 C 0.36923 0.98895 0.0871 0.0
N959 N 0.39287 1.00266 1.01523 0.0
C960 C 0.40878 1.00241 1.00015 0.0
C961 C 0.41929 1.00028 0.04345 0.0
C962 C 0.39772 1.0009 0.03651 0.0
C963 C 0.43561 1.00143 0.02811 0.0
C964 C 0.43032 1.00217 1.00637 0.0
H965 H 0.37235 0.98566 0.10389 0.0
H966 H 0.41133 0.99203 0.09683 0.0
H967 H 0.44043 0.9976 0.07095 0.0
O968 O 0.37008 0.97445 1.00669 0.0
O969 O 0.37918 0.03462 1.00873 0.0
O970 O 0.35565 0.06285 1.01027 0.0
O971 O 0.33502 0.97801 1.01155 0.0
O972 O 0.36844 1.01226 0.97479 0.0
O973 O 0.36076 0.04814 0.97074 0.0
O974 O 0.31487 0.08655 0.99118 0.0
O975 O 0.32565 0.03195 0.95898 0.0
O976 O 0.33651 0.99992 0.97385 0.0
O977 O 0.33817 0.07978 0.96655 0.0
O978 O 0.32268 0.05627 0.02537 0.0
O979 O 0.3438 0.02824 0.03702 0.0
C980 C 0.37507 0.055 1.0122 0.0
C981 C 0.34953 0.94208 1.0118 0.0
C982 C 0.35928 0.907 0.99808 0.0
C983 C 0.3505 0.89759 1.01669 0.0
C984 C 0.34035 0.93255 0.02993 0.0
C985 C 0.34091 0.91032 0.03236 0.0
C986 C 0.35868 0.92939 0.99586 0.0
C987 C 0.3719 0.03084 0.96573 0.0
C988 C 0.35165 0.96527 1.01055 0.0
C989 C 0.40738 0.99474 0.08011 0.0
C990 C 0.42397 0.99786 0.06535 0.0
C991 C 0.32794 1.0111 0.95712 0.0
C992 C 0.34192 0.112 0.98303 0.0
C993 C 0.36497 0.12787 1.00986 0.0
C994 C 0.37531 0.13977 0.99365 0.0
C995 C 0.35177 0.12445 0.96708 0.0
C996 C 0.34865 0.11364 1.00432 0.0
C997 C 0.36843 0.13833 0.97244 0.0
C998 C 0.33137 0.04513 0.04165 0.0
C999 C 0.32783 0.09454 0.97678 0.0
H1000 H 0.35119 0.88043 1.01928 0.0
H1001 H 0.33345 0.94233 0.04248 0.0
H1002 H 0.33422 0.90295 0.04659 0.0
H1003 H 0.36522 0.93711 0.98171 0.0
H1004 H 0.38789 0.15109 0.99766 0.0
H1005 H 0.34709 0.12283 0.95043 0.0
H1006 H 0.34057 0.10447 1.01671 0.0
H1007 H 0.37621 0.14781 0.96014 0.0
Eu1008 Eu 0.74316 0.30408 0.9577 0.0
C1009 C 0.80204 0.22744 0.95687 0.0
N1010 N 0.79666 0.23878 0.93904 0.0
C1011 C 0.83087 0.23147 0.92329 0.0
C1012 C 0.82214 0.21722 0.95836 0.0
C1013 C 0.81084 0.24149 0.92259 0.0
C1014 C 0.83643 0.21902 0.94112 0.0
C1015 C 0.79399 0.21722 0.99352 0.0
C1016 C 0.78811 0.22773 0.97435 0.0
C1017 C 0.81363 0.20623 0.99475 0.0
C1018 C 0.82765 0.20622 0.97723 0.0
Eu1019 Eu 0.76165 0.25267 0.93828 0.0
N1020 N 0.76936 0.23902 0.97292 0.0
C1021 C 0.78007 0.21827 1.01104 0.0
C1022 C 0.75554 0.23958 0.98983 0.0
C1023 C 0.7608 0.22949 1.00917 0.0
H1024 H 0.80641 0.25099 0.90874 0.0
H1025 H 0.74989 0.23025 0.02262 0.0
H1026 H 0.70717 0.29888 0.99645 0.0
H1027 H 0.73865 0.36156 0.89093 0.0
H1028 H 0.74041 0.2478 0.98867 0.0
H1029 H 0.78406 0.21048 0.02608 0.0
H1030 H 0.74628 0.32746 0.90846 0.0
H1031 H 0.84194 0.23325 0.91007 0.0
H1032 H 0.81831 0.19798 1.00934 0.0
H1033 H 0.84294 0.19809 0.97862 0.0
H1034 H 0.67737 0.31885 1.013 0.0
H1035 H 0.85199 0.21132 0.94165 0.0
H1036 H 0.71611 0.38827 0.90896 0.0
N1037 N 0.71484 0.32363 0.97414 0.0
C1038 C 0.70958 0.34316 0.96633 0.0
C1039 C 0.68635 0.32597 0.99996 0.0
C1040 C 0.6925 0.35507 0.97514 0.0
C1041 C 0.70317 0.3147 0.99049 0.0
C1042 C 0.68109 0.34636 0.99237 0.0
N1043 N 0.73428 0.33674 0.93898 0.0
C1044 C 0.73927 0.33992 0.91786 0.0
C1045 C 0.71297 0.36915 0.93782 0.0
C1046 C 0.71986 0.35013 0.94819 0.0
C1047 C 0.72102 0.37393 0.91752 0.0
C1048 C 0.73377 0.3589 0.90727 0.0
H1049 H 0.66781 0.35495 0.99949 0.0
H1050 H 0.67364 0.38413 0.97236 0.0
H1051 H 0.69151 0.39642 0.93943 0.0
O1052 O 0.74589 0.31872 0.98873 0.0
O1053 O 0.72239 0.29138 0.92989 0.0
O1054 O 0.74656 0.27133 0.91147 0.0
O1055 O 0.75529 0.28504 0.98462 0.0
O1056 O 0.76943 0.31102 0.93419 0.0
O1057 O 0.77317 0.27966 0.9147 0.0
O1058 O 0.74589 0.22148 0.93403 0.0
O1059 O 0.79167 0.26933 0.9547 0.0
O1060 O 0.78193 0.30474 0.95882 0.0
O1061 O 0.76842 0.23267 0.91045 0.0
O1062 O 0.72566 0.24843 0.95289 0.0
O1063 O 0.71324 0.28229 0.95898 0.0
C1064 C 0.72925 0.28288 0.9119 0.0
C1065 C 0.77531 0.3076 1.00856 0.0
C1066 C 0.80618 0.33162 1.01138 0.0
C1067 C 0.81096 0.32282 0.03157 0.0
C1068 C 0.78084 0.29816 0.02819 0.0
C1069 C 0.79853 0.30592 0.03973 0.0
C1070 C 0.7879 0.32449 1.00055 0.0
C1071 C 0.77667 0.30058 0.91733 0.0
C1072 C 0.75527 0.30195 0.99735 0.0
C1073 C 0.68667 0.37474 0.96581 0.0
C1074 C 0.69691 0.38178 0.94715 0.0
C1075 C 0.79722 0.28934 0.95971 0.0
C1076 C 0.7632 0.19505 0.9129 0.0
C1077 C 0.75342 0.15822 0.90407 0.0
C1078 C 0.77529 0.15345 0.90118 0.0
C1079 C 0.78491 0.18996 0.91002 0.0
C1080 C 0.74762 0.17907 0.91032 0.0
C1081 C 0.7909 0.16919 0.90439 0.0
C1082 C 0.70944 0.2615 0.95867 0.0
C1083 C 0.75592 0.21717 0.91635 0.0
H1084 H 0.82443 0.32872 0.04083 0.0
H1085 H 0.77116 0.28535 0.03484 0.0
H1086 H 0.80252 0.29894 0.05513 0.0
H1087 H 0.78309 0.33275 0.98601 0.0
H1088 H 0.78039 0.13774 0.89589 0.0
H1089 H 0.79721 0.202 0.91159 0.0
H1090 H 0.7309 0.18311 0.91276 0.0
H1091 H 0.80765 0.16541 0.90195 0.0
Eu1092 Eu 0.0353 0.51031 0.19917 0.0
C1093 C 0.9935 0.46991 0.27163 0.0
N1094 N 0.98407 0.4651 0.25266 0.0
C1095 C 0.96977 0.43253 0.26743 0.0
C1096 C 0.99104 0.45624 0.28953 0.0
C1097 C 0.97267 0.44652 0.25015 0.0
C1098 C 0.9788 0.43753 0.28729 0.0
C1099 C 1.0175 0.49255 0.29211 0.0
C1100 C 1.00656 0.4879 0.27278 0.0
C1101 C 1.01445 0.47945 0.31019 0.0
C1102 C 1.00126 0.46134 0.3089 0.0
Eu1103 Eu 0.98715 0.49062 0.22494 0.0
N1104 N 1.00936 0.50022 0.25489 0.0
C1105 C 0.03158 0.50997 0.29265 0.0
C1106 C 0.02373 0.51673 0.25542 0.0
C1107 C 0.03489 0.52193 0.27412 0.0
H1108 H 0.96582 0.44246 0.23476 0.0
H1109 H 0.04614 0.53518 0.27416 0.0
H1110 H 0.05114 0.55606 0.22302 0.0
H1111 H 0.04699 0.48867 0.11437 0.0
H1112 H 0.02704 0.52601 0.24162 0.0
H1113 H 0.04031 0.51402 0.30713 0.0
H1114 H 0.04541 0.48135 0.15283 0.0
H1115 H 0.96062 0.41791 0.26541 0.0
H1116 H 0.02258 0.48295 0.32515 0.0
H1117 H 0.99941 0.45114 0.32287 0.0
H1118 H 0.06041 0.59324 0.21268 0.0
H1119 H 0.9766 0.42662 0.30066 0.0
H1120 H 0.04746 0.52603 0.10109 0.0
N1121 N 0.0441 0.5463 0.19108 0.0
C1122 C 0.04515 0.55141 0.16995 0.0
C1123 C 0.05583 0.58174 0.20052 0.0
C1124 C 0.04968 0.57261 0.16338 0.0
C1125 C 0.05061 0.56071 0.20631 0.0
C1126 C 0.05462 0.58793 0.17903 0.0
N1127 N 0.04265 0.51429 0.16187 0.0
C1128 C 0.04469 0.49777 0.1476 0.0
C1129 C 0.04588 0.53984 0.13285 0.0
C1130 C 0.04397 0.53501 0.15489 0.0
C1131 C 0.04618 0.52295 0.11814 0.0
C1132 C 0.04596 0.50185 0.12559 0.0
H1133 H 0.05842 0.60432 0.17461 0.0
H1134 H 0.05342 0.59386 0.1361 0.0
H1135 H 0.04953 0.56525 0.10933 0.0
O1136 O 0.06871 0.51448 0.19157 0.0
O1137 O 1.00772 0.51186 0.1746 0.0
O1138 O 0.97939 0.51377 0.1978 0.0
O1139 O 0.05861 0.51366 0.22532 0.0
O1140 O 0.03011 0.47714 0.1866 0.0
O1141 O 0.99393 0.47321 0.19293 0.0
O1142 O 0.95691 0.49135 0.24232 0.0
O1143 O 1.0099 0.46158 0.22825 0.0
O1144 O 0.04203 0.47543 0.21656 0.0
O1145 O 0.95857 0.47529 0.21178 0.0
O1146 O 0.98512 0.52833 0.23117 0.0
O1147 O 1.01347 0.53985 0.21078 0.0
C1148 C 0.98728 0.51561 0.17837 0.0
C1149 C 0.09563 0.5078 0.21744 0.0
C1150 C 0.12758 0.48797 0.2083 0.0
C1151 C 0.13823 0.49677 0.22605 0.0
C1152 C 0.10632 0.51664 0.23515 0.0
C1153 C 0.12757 0.51108 0.23946 0.0
C1154 C 0.1063 0.49335 0.20404 0.0
C1155 C 1.01165 0.46798 0.18259 0.0
C1156 C 0.07448 0.516 0.21172 0.0
C1157 C 0.05041 0.57758 0.14144 0.0
C1158 C 0.04828 0.56126 0.1262 0.0
C1159 C 0.03077 0.45913 0.22583 0.0
C1160 C 0.92757 0.49432 0.21903 0.0
C1161 C 0.90999 0.52832 0.21375 0.0
C1162 C 0.89225 0.51779 0.20469 0.0
C1163 C 0.9102 0.48372 0.2094 0.0
C1164 C 0.92764 0.51663 0.22054 0.0
C1165 C 0.89259 0.49554 0.20209 0.0
C1166 C 0.99636 0.5447 0.22279 0.0
C1167 C 0.94612 0.48247 0.22676 0.0
H1168 H 0.15475 0.49257 0.22947 0.0
H1169 H 0.09838 0.52821 0.24535 0.0
H1170 H 0.13584 0.51803 0.25304 0.0
H1171 H 0.09824 0.48649 0.19022 0.0
H1172 H 0.87843 0.52677 0.19931 0.0
H1173 H 0.91027 0.46644 0.2076 0.0
H1174 H 0.94114 0.52499 0.22768 0.0
H1175 H 0.8791 0.48745 0.19471 0.0
Eu1176 Eu 0.79909 0.75046 0.46711 0.0
C1177 C 0.73583 0.82041 0.46958 0.0
N1178 N 0.74115 0.80978 0.45136 0.0
C1179 C 0.70541 0.81385 0.43764 0.0
C1180 C 0.71491 0.82847 0.47233 0.0
C1181 C 0.72626 0.80601 0.43561 0.0
C1182 C 0.69978 0.82537 0.45595 0.0
C1183 C 0.74514 0.83111 0.50581 0.0
C1184 C 0.75088 0.82143 0.48626 0.0
C1185 C 0.72461 0.84009 0.5082 0.0
C1186 C 0.70956 0.83875 0.49154 0.0
Eu1187 Eu 0.77784 0.80118 0.4483 0.0
N1188 N 0.77065 0.81221 0.48372 0.0
C1189 C 0.76011 0.83126 0.52255 0.0
C1190 C 0.78527 0.8124 0.5 0.0
C1191 C 0.78016 0.82176 0.51967 0.0
H1192 H 0.73072 0.79723 0.42135 0.0
H1193 H 0.79177 0.82176 0.5326 0.0
H1194 H 0.83518 0.75316 0.50832 0.0
H1195 H 0.78776 0.68609 0.41409 0.0
H1196 H 0.80083 0.80523 0.49807 0.0
H1197 H 0.75628 0.83852 0.53783 0.0
H1198 H 0.77479 0.70685 0.44322 0.0
H1199 H 0.69374 0.81109 0.42506 0.0
H1200 H 0.72005 0.84775 0.52307 0.0
H1201 H 0.69364 0.8453 0.49386 0.0
H1202 H 0.87225 0.7407 0.51541 0.0
H1203 H 0.68356 0.83139 0.45749 0.0
H1204 H 0.82629 0.67525 0.41117 0.0
N1205 N 0.83148 0.73442 0.48015 0.0
C1206 C 0.84035 0.71952 0.4674 0.0
C1207 C 0.86355 0.73478 0.50162 0.0
C1208 C 0.86168 0.71267 0.46997 0.0
C1209 C 0.84249 0.74162 0.4977 0.0
C1210 C 0.87344 0.72071 0.48731 0.0
N1211 N 0.80622 0.71556 0.45351 0.0
C1212 C 0.79185 0.70413 0.4418 0.0
C1213 C 0.83517 0.69474 0.43847 0.0
C1214 C 0.82722 0.71018 0.4528 0.0
C1215 C 0.82087 0.68596 0.42368 0.0
C1216 C 0.79915 0.69101 0.4255 0.0
H1217 H 0.88986 0.71575 0.49009 0.0
H1218 H 0.88674 0.69259 0.45667 0.0
H1219 H 0.86354 0.67747 0.42822 0.0
O1220 O 0.79853 0.73716 0.49911 0.0
O1221 O 0.82009 0.76397 0.43917 0.0
O1222 O 0.79792 0.78805 0.42228 0.0
O1223 O 0.78141 0.76691 0.49259 0.0
O1224 O 0.77842 0.74338 0.43839 0.0
O1225 O 0.77109 0.7755 0.42158 0.0
O1226 O 0.78712 0.83507 0.44495 0.0
O1227 O 0.74968 0.78076 0.46349 0.0
O1228 O 0.76069 0.74585 0.46297 0.0
O1229 O 0.76463 0.82111 0.42306 0.0
O1230 O 0.81456 0.80736 0.46131 0.0
O1231 O 0.82729 0.77425 0.47097 0.0
C1232 C 0.81511 0.77627 0.42249 0.0
C1233 C 0.7643 0.73896 0.51241 0.0
C1234 C 0.73934 0.71 0.50405 0.0
C1235 C 0.72679 0.7157 0.52176 0.0
C1236 C 0.75206 0.74451 0.53031 0.0
C1237 C 0.73357 0.73252 0.53523 0.0
C1238 C 0.75827 0.7211 0.50023 0.0
C1239 C 0.77127 0.75413 0.42189 0.0
C1240 C 0.7838 0.75046 0.5057 0.0
C1241 C 0.87019 0.69772 0.45543 0.0
C1242 C 0.85698 0.68904 0.43934 0.0
C1243 C 0.74456 0.76017 0.46485 0.0
C1244 C 0.78581 0.84885 0.40933 0.0
C1245 C 0.80861 0.87739 0.39601 0.0
C1246 C 0.80346 0.87177 0.37486 0.0
C1247 C 0.78085 0.84315 0.38802 0.0
C1248 C 0.79966 0.86602 0.41314 0.0
C1249 C 0.78966 0.85461 0.37091 0.0
C1250 C 0.83088 0.79497 0.46877 0.0
C1251 C 0.77578 0.8379 0.42763 0.0
H1252 H 0.712 0.70724 0.52516 0.0
H1253 H 0.75668 0.75793 0.5403 0.0
H1254 H 0.72415 0.73668 0.54915 0.0
H1255 H 0.76817 0.7161 0.48688 0.0
H1256 H 0.81045 0.88035 0.36145 0.0
H1257 H 0.77005 0.82999 0.38452 0.0
H1258 H 0.80342 0.87067 0.42948 0.0
H1259 H 0.7858 0.85016 0.35459 0.0
Eu1260 Eu 0.9531 0.74367 0.30297 0.0
C1261 C 0.96378 0.8057 0.23127 0.0
N1262 N 0.94507 0.80117 0.24149 0.0
C1263 C 0.93328 0.8375 0.23732 0.0
C1264 C 0.96768 0.82645 0.22317 0.0
C1265 C 0.93012 0.81676 0.24524 0.0
C1266 C 0.95198 0.84228 0.22594 0.0
C1267 C 1.00004 0.79501 0.2221 0.0
C1268 C 0.97989 0.79006 0.23101 0.0
C1269 C 1.00349 0.81528 0.21276 0.0
C1270 C 0.98739 0.83094 0.21333 0.0
Eu1271 Eu 0.9402 0.76464 0.24981 0.0
N1272 N 0.97635 0.77067 0.24076 0.0
C1273 C 1.01634 0.77964 0.22331 0.0
C1274 C 0.99232 0.75587 0.24242 0.0
C1275 C 1.01254 0.76013 0.23372 0.0
H1276 H 0.91551 0.81287 0.25373 0.0
H1277 H 0.02518 0.74831 0.23497 0.0
H1278 H 0.99786 0.71378 0.30306 0.0
H1279 H 0.88404 0.73624 0.35665 0.0
H1280 H 0.98967 0.74077 0.25037 0.0
H1281 H 0.03205 0.78284 0.21663 0.0
H1282 H 0.91202 0.75735 0.33887 0.0
H1283 H 0.92125 0.84973 0.23986 0.0
H1284 H 1.0188 0.81923 0.20559 0.0
H1285 H 0.99058 0.84671 0.2067 0.0
H1286 H 1.00935 0.67776 0.31509 0.0
H1287 H 0.95439 0.85841 0.21989 0.0
H1288 H 0.88899 0.69795 0.36367 0.0
N1289 N 0.96754 0.71207 0.31858 0.0
C1290 C 0.95403 0.7 0.33039 0.0
C1291 C 0.99374 0.68382 0.31957 0.0
C1292 C 0.95914 0.67872 0.33613 0.0
C1293 C 0.98734 0.70436 0.31314 0.0
C1294 C 0.97933 0.6707 0.33064 0.0
N1295 N 0.93207 0.73037 0.33246 0.0
C1296 C 0.91444 0.74041 0.34071 0.0
C1297 C 0.92019 0.69702 0.34866 0.0
C1298 C 0.93528 0.70927 0.33704 0.0
C1299 C 0.90131 0.70686 0.35526 0.0
C1300 C 0.89858 0.72865 0.35145 0.0
H1301 H 0.98396 0.65448 0.33488 0.0
H1302 H 0.94732 0.64969 0.35126 0.0
H1303 H 0.91277 0.66561 0.36175 0.0
O1304 O 0.98001 0.7466 0.32434 0.0
O1305 O 0.92729 0.72302 0.28656 0.0
O1306 O 0.91219 0.74602 0.26219 0.0
O1307 O 0.98296 0.75734 0.29066 0.0
O1308 O 0.9266 0.76788 0.30712 0.0
O1309 O 0.91203 0.77222 0.27319 0.0
O1310 O 0.93737 0.75259 0.21676 0.0
O1311 O 0.95825 0.79067 0.27082 0.0
O1312 O 0.95078 0.78223 0.30557 0.0
O1313 O 0.91891 0.77973 0.22675 0.0
O1314 O 0.95254 0.72816 0.24473 0.0
O1315 O 0.95931 0.71606 0.27877 0.0
C1316 C 0.91158 0.72836 0.27341 0.0
C1317 C 0.99808 0.77878 0.3185 0.0
C1318 C 0.99024 0.80973 0.3414 0.0
C1319 C 1.00891 0.81963 0.33322 0.0
C1320 C 1.01559 0.78954 0.30962 0.0
C1321 C 1.02128 0.80971 0.3174 0.0
C1322 C 0.98614 0.78862 0.33489 0.0
C1323 C 0.91091 0.77396 0.2944 0.0
C1324 C 0.99112 0.7578 0.3103 0.0
C1325 C 0.94398 0.66626 0.34718 0.0
C1326 C 0.92437 0.67533 0.35319 0.0
C1327 C 0.95656 0.79714 0.291 0.0
C1328 C 0.9028 0.75732 0.20141 0.0
C1329 C 0.88662 0.73835 0.1715 0.0
C1330 C 0.86619 0.74188 0.18023 0.0
C1331 C 0.88223 0.76065 0.21009 0.0
C1332 C 0.90483 0.74625 0.1821 0.0
C1333 C 0.86406 0.753 0.19946 0.0
C1334 C 0.95848 0.71208 0.25796 0.0
C1335 C 0.92217 0.76599 0.21172 0.0
H1336 H 1.0143 0.83497 0.33877 0.0
H1337 H 0.0249 0.78228 0.29693 0.0
H1338 H 0.0352 0.81786 0.31097 0.0
H1339 H 0.97314 0.77978 0.34216 0.0
H1340 H 0.85196 0.73566 0.17241 0.0
H1341 H 0.88014 0.76925 0.22501 0.0
H1342 H 0.92063 0.74384 0.17528 0.0
H1343 H 0.8483 0.75564 0.20616 0.0
Eu1344 Eu 0.60943 0.28124 0.73602 0.0
C1345 C 0.53928 0.31727 0.78938 0.0
N1346 N 0.5586 0.3221 0.79798 0.0
C1347 C 0.54317 0.35173 0.81691 0.0
C1348 C 0.52082 0.32914 0.79477 0.0
C1349 C 0.56097 0.33952 0.811 0.0
C1350 C 0.52292 0.3463 0.80904 0.0
C1351 C 0.51898 0.29798 0.76261 0.0
C1352 C 0.53846 0.30191 0.77356 0.0
C1353 C 0.50021 0.30858 0.76896 0.0
C1354 C 0.50113 0.3242 0.785 0.0
Eu1355 Eu 0.58807 0.30031 0.78876 0.0
N1356 N 0.55713 0.29268 0.76725 0.0
C1357 C 0.51921 0.28465 0.7447 0.0
C1358 C 0.5576 0.28138 0.74863 0.0
C1359 C 0.53871 0.27687 0.73728 0.0
H1360 H 0.57665 0.34408 0.81683 0.0
H1361 H 0.53907 0.26799 0.72245 0.0
H1362 H 0.56887 0.24958 0.7178 0.0
H1363 H 0.6961 0.26765 0.7262 0.0
H1364 H 0.57256 0.27679 0.74196 0.0
H1365 H 0.50468 0.28141 0.7357 0.0
H1366 H 0.66362 0.28873 0.73264 0.0
H1367 H 0.54511 0.3654 0.82741 0.0
H1368 H 0.48511 0.30556 0.76086 0.0
H1369 H 0.48673 0.33297 0.7891 0.0
H1370 H 0.56328 0.21253 0.70556 0.0
H1371 H 0.50916 0.35591 0.81346 0.0
H1372 H 0.69311 0.22917 0.71735 0.0
N1373 N 0.60219 0.2458 0.72359 0.0
C1374 C 0.61965 0.23309 0.7203 0.0
C1375 C 0.57917 0.21797 0.71 0.0
C1376 C 0.61725 0.2118 0.7129 0.0
C1377 C 0.58231 0.23895 0.71719 0.0
C1378 C 0.59666 0.2042 0.70823 0.0
N1379 N 0.64206 0.26274 0.72833 0.0
C1380 C 0.66195 0.27209 0.72887 0.0
C1381 C 0.65839 0.22904 0.71875 0.0
C1382 C 0.64006 0.24172 0.72293 0.0
C1383 C 0.67871 0.23841 0.72035 0.0
C1384 C 0.68047 0.2601 0.72525 0.0
H1385 H 0.5942 0.18801 0.70245 0.0
H1386 H 0.63382 0.18261 0.70403 0.0
H1387 H 0.66982 0.19764 0.70939 0.0
O1388 O 0.62561 0.28975 0.70667 0.0
O1389 O 0.63601 0.28165 0.76153 0.0
O1390 O 0.61432 0.27531 0.78962 0.0
O1391 O 0.59064 0.28692 0.70677 0.0
O1392 O 0.62944 0.30899 0.74629 0.0
O1393 O 0.61603 0.32248 0.7781 0.0
O1394 O 0.60503 0.31488 0.81558 0.0
O1395 O 0.58452 0.32993 0.76759 0.0
O1396 O 0.58835 0.31451 0.73421 0.0
O1397 O 0.57692 0.29579 0.82171 0.0
O1398 O 0.58157 0.26272 0.78829 0.0
O1399 O 0.5953 0.25141 0.75579 0.0
C1400 C 0.6336 0.2773 0.7819 0.0
C1401 C 0.60941 0.28382 0.67347 0.0
C1402 C 0.62139 0.29262 0.63752 0.0
C1403 C 0.61709 0.27144 0.63111 0.0
C1404 C 0.60514 0.26272 0.6671 0.0
C1405 C 0.6089 0.2566 0.64588 0.0
C1406 C 0.61749 0.29858 0.65874 0.0
C1407 C 0.62957 0.32316 0.76173 0.0
C1408 C 0.60794 0.29103 0.6956 0.0
C1409 C 0.63543 0.19901 0.70953 0.0
C1410 C 0.65594 0.20758 0.71253 0.0
C1411 C 0.58302 0.33164 0.7466 0.0
C1412 C 0.60634 0.29224 0.84512 0.0
C1413 C 0.61987 0.25698 0.8554 0.0
C1414 C 0.62781 0.26616 0.87456 0.0
C1415 C 0.61443 0.30111 0.86402 0.0
C1416 C 0.61041 0.27075 0.84033 0.0
C1417 C 0.6256 0.28813 0.87849 0.0
C1418 C 0.58581 0.2468 0.77447 0.0
C1419 C 0.59374 0.30509 0.83002 0.0
H1420 H 0.62 0.26642 0.61477 0.0
H1421 H 0.5993 0.25098 0.67842 0.0
H1422 H 0.60568 0.24029 0.64092 0.0
H1423 H 0.6215 0.31466 0.66409 0.0
H1424 H 0.6346 0.25638 0.88717 0.0
H1425 H 0.612 0.31792 0.86762 0.0
H1426 H 0.6047 0.26449 0.82533 0.0
H1427 H 0.63169 0.29489 0.89327 0.0
Eu1428 Eu 0.54671 0.5503 0.71212 0.0
C1429 C 0.47675 0.48555 0.71267 0.0
N1430 N 0.48598 0.4929 0.69433 0.0
C1431 C 0.48164 0.45843 0.67774 0.0
C1432 C 0.46937 0.46418 0.71405 0.0
C1433 C 0.4889 0.4796 0.67707 0.0
C1434 C 0.47166 0.45073 0.69622 0.0
C1435 C 0.4678 0.4911 0.7501 0.0
C1436 C 0.47635 0.49894 0.73065 0.0
C1437 C 0.4597 0.47008 0.75122 0.0
C1438 C 0.46053 0.45667 0.73329 0.0
Eu1439 Eu 0.49541 0.52972 0.6943 0.0
N1440 N 0.48479 0.51922 0.72938 0.0
C1441 C 0.46771 0.50453 0.768 0.0
C1442 C 0.48416 0.53249 0.74679 0.0
C1443 C 0.47592 0.52527 0.76632 0.0
H1444 H 0.49667 0.4856 0.66276 0.0
H1445 H 0.47582 0.53578 0.7801 0.0
H1446 H 0.54379 0.59624 0.74042 0.0
H1447 H 0.61914 0.51438 0.68042 0.0
H1448 H 0.49032 0.5486 0.74609 0.0
H1449 H 0.46133 0.49905 0.7832 0.0
H1450 H 0.58623 0.51364 0.7 0.0
H1451 H 0.4838 0.44805 0.66403 0.0
H1452 H 0.45302 0.46391 0.76603 0.0
H1453 H 0.45461 0.44036 0.73459 0.0
H1454 H 0.56243 0.63112 0.74195 0.0
H1455 H 0.46618 0.43424 0.69673 0.0
H1456 H 0.63834 0.54911 0.67353 0.0
N1457 N 0.56699 0.58177 0.72008 0.0
C1458 C 0.58594 0.58421 0.71001 0.0
C1459 C 0.56926 0.61807 0.73284 0.0
C1460 C 0.59712 0.60387 0.71016 0.0
C1461 C 0.55878 0.59822 0.73197 0.0
C1462 C 0.58837 0.62104 0.72156 0.0
N1463 N 0.58391 0.54775 0.70297 0.0
C1464 C 0.59374 0.52899 0.69737 0.0
C1465 C 0.61473 0.56761 0.6906 0.0
C1466 C 0.59464 0.56648 0.70077 0.0
C1467 C 0.62343 0.54877 0.68238 0.0
C1468 C 0.61298 0.52931 0.68625 0.0
H1469 H 0.59641 0.63644 0.72211 0.0
H1470 H 0.62548 0.62056 0.69883 0.0
H1471 H 0.64085 0.58865 0.68128 0.0
O1472 O 0.5525 0.55529 0.74616 0.0
O1473 O 0.53428 0.57044 0.68299 0.0
O1474 O 0.50736 0.55032 0.66742 0.0
O1475 O 0.52743 0.53354 0.736 0.0
O1476 O 0.55316 0.52807 0.68519 0.0
O1477 O 0.52114 0.52438 0.66719 0.0
O1478 O 0.46335 0.5444 0.6919 0.0
O1479 O 0.5161 0.49988 0.70493 0.0
O1480 O 0.55011 0.51176 0.71239 0.0
O1481 O 0.4717 0.51809 0.67169 0.0
O1482 O 0.49126 0.56438 0.71217 0.0
O1483 O 0.52426 0.5798 0.70951 0.0
C1484 C 0.52034 0.56676 0.66726 0.0
C1485 C 0.5532 0.5216 0.76134 0.0
C1486 C 0.58584 0.50016 0.75944 0.0
C1487 C 0.57945 0.48884 0.77782 0.0
C1488 C 0.54637 0.50974 0.77915 0.0
C1489 C 0.55969 0.49358 0.78755 0.0
C1490 C 0.57312 0.51689 0.75203 0.0
C1491 C 0.5425 0.52318 0.66798 0.0
C1492 C 0.54055 0.539 0.75154 0.0
C1493 C 0.61676 0.60552 0.69926 0.0
C1494 C 0.6255 0.58738 0.6893 0.0
C1495 C 0.53612 0.49537 0.71051 0.0
C1496 C 0.44831 0.54322 0.657 0.0
C1497 C 0.41768 0.56083 0.64049 0.0
C1498 C 0.42817 0.55998 0.62052 0.0
C1499 C 0.45886 0.54309 0.63708 0.0
C1500 C 0.42796 0.55237 0.65867 0.0
C1501 C 0.44873 0.55138 0.61894 0.0
C1502 C 0.50373 0.58206 0.71403 0.0
C1503 C 0.4576 0.53253 0.67579 0.0
H1504 H 0.58942 0.47618 0.78431 0.0
H1505 H 0.53104 0.51305 0.78656 0.0
H1506 H 0.55458 0.48452 0.80146 0.0
H1507 H 0.57874 0.52616 0.73853 0.0
H1508 H 0.42046 0.56583 0.60608 0.0
H1509 H 0.47471 0.5362 0.63543 0.0
H1510 H 0.42019 0.55285 0.6742 0.0
H1511 H 0.45673 0.55091 0.60356 0.0
Eu1512 Eu 0.98942 0.33051 0.0509 0.0
C1513 C 0.05472 0.3341 0.98406 0.0
N1514 N 0.04839 0.35302 0.99273 0.0
C1515 C 0.08384 0.36759 0.9885 0.0
C1516 C 0.07614 0.33128 0.97733 0.0
C1517 C 0.06258 0.36972 0.99504 0.0
C1518 C 0.09064 0.34833 0.97952 0.0
C1519 C 0.04673 0.29721 0.97461 0.0
C1520 C 0.04003 0.31716 0.98295 0.0
C1521 C 0.06795 0.29454 0.96758 0.0
C1522 C 0.08259 0.31149 0.96894 0.0
Eu1523 Eu 1.01155 0.35555 1.00139 0.0
N1524 N 1.01947 0.31997 0.9901 0.0
C1525 C 0.03194 0.2804 0.97352 0.0
C1526 C 1.00492 0.30362 0.98843 0.0
C1527 C 1.01099 0.28363 0.98043 0.0
H1528 H 0.0576 0.38453 1.00252 0.0
H1529 H 0.99944 0.27068 0.97963 0.0
H1530 H 0.9465 0.29872 0.04151 0.0
H1531 H 1.01499 0.35795 0.13095 0.0
H1532 H 0.98875 0.30534 0.99395 0.0
H1533 H 0.03654 0.26485 0.96731 0.0
H1534 H 1.02006 0.34525 0.09377 0.0
H1535 H 0.095 0.38075 0.99054 0.0
H1536 H 0.07325 0.27933 0.96113 0.0
H1537 H 0.09894 0.30908 0.96362 0.0
H1538 H 0.91036 0.29281 0.05619 0.0
H1539 H 0.1072 0.34669 0.97455 0.0
H1540 H 0.97894 0.35836 0.14677 0.0
N1541 N 0.95672 0.31888 0.06713 0.0
C1542 C 0.95171 0.32695 0.08654 0.0
C1543 C 0.92176 0.30261 0.06487 0.0
C1544 C 0.93124 0.32397 0.09566 0.0
C1545 C 0.94229 0.30611 0.05656 0.0
C1546 C 0.91605 0.31195 0.08434 0.0
N1547 N 0.9874 0.33766 0.08877 0.0
C1548 C 1.00439 0.34468 0.1007 0.0
C1549 C 0.96391 0.34428 0.11883 0.0
C1550 C 0.96771 0.33678 0.09784 0.0
C1551 C 0.98112 0.35242 0.13061 0.0
C1552 C 1.00154 0.35218 0.12167 0.0
H1553 H 0.90014 0.30925 0.09077 0.0
H1554 H 0.91114 0.33081 0.12313 0.0
H1555 H 0.93989 0.34878 0.1435 0.0
O1556 O 0.98682 0.29626 0.05663 0.0
O1557 O 0.9678 0.35912 0.04129 0.0
O1558 O 0.9863 0.37716 1.01475 0.0
O1559 O 1.00833 0.30818 0.03202 0.0
O1560 O 1.00889 0.35901 0.05989 0.0
O1561 O 1.01434 0.37958 0.02944 0.0
O1562 O 1.00542 0.36138 0.96707 0.0
O1563 O 0.04076 0.34582 0.02348 0.0
O1564 O 0.02803 0.33237 0.05542 0.0
O1565 O 0.02225 0.38466 0.98582 0.0
O1566 O 0.97643 0.34133 0.99294 0.0
O1567 O 0.96234 0.33032 0.0252 0.0
C1568 C 0.97041 0.37582 0.02837 0.0
C1569 C 1.02081 0.28216 0.0565 0.0
C1570 C 0.04314 0.2841 0.08841 0.0
C1571 C 0.05445 0.2659 0.08153 0.0
C1572 C 0.03259 0.2646 0.04912 0.0
C1573 C 0.04921 0.25626 0.06187 0.0
C1574 C 0.02586 0.2913 0.07636 0.0
C1575 C 1.01399 0.37702 0.05052 0.0
C1576 C 1.00319 0.29192 0.0444 0.0
C1577 C 0.92687 0.33255 0.11598 0.0
C1578 C 0.94321 0.34276 0.12757 0.0
C1579 C 0.04484 0.33747 0.04267 0.0
C1580 C 1.00159 0.39836 0.95764 0.0
C1581 C 0.97838 0.41174 0.92915 0.0
C1582 C 0.98147 0.43277 0.93673 0.0
C1583 C 1.00435 0.41951 0.96504 0.0
C1584 C 0.98838 0.39459 0.93987 0.0
C1585 C 0.99428 0.43655 0.95464 0.0
C1586 C 0.95983 0.33342 1.00438 0.0
C1587 C 1.01367 0.38055 0.96746 0.0
H1588 H 0.06782 0.25979 0.09082 0.0
H1589 H 0.02892 0.25737 0.03377 0.0
H1590 H 0.05831 0.2426 0.05633 0.0
H1591 H 1.01656 0.30464 0.08236 0.0
H1592 H 0.97441 0.4464 0.92856 0.0
H1593 H 1.01454 0.42301 0.97868 0.0
H1594 H 0.98608 0.3783 0.93429 0.0
H1595 H 0.99663 0.45278 0.96033 0.0
Eu1596 Eu 0.5292 0.69112 0.49666 0.0
C1597 C 0.56885 0.76003 0.54444 0.0
N1598 N 0.57224 0.74118 0.55474 0.0
C1599 C 0.60298 0.75589 0.5726 0.0
C1600 C 0.58234 0.77783 0.54815 0.0
C1601 C 0.58925 0.73869 0.56834 0.0
C1602 C 0.5994 0.77563 0.56262 0.0
C1603 C 0.54969 0.78016 0.51723 0.0
C1604 C 0.55275 0.76108 0.52916 0.0
C1605 C 0.56251 0.79818 0.52148 0.0
C1606 C 0.57882 0.79701 0.53687 0.0
Eu1607 Eu 0.54825 0.7129 0.54747 0.0
N1608 N 0.54101 0.74315 0.525 0.0
C1609 C 0.53431 0.78037 0.5009 0.0
C1610 C 0.52685 0.74319 0.50835 0.0
C1611 C 0.52301 0.76168 0.49629 0.0
H1612 H 0.5924 0.72339 0.57583 0.0
H1613 H 0.51152 0.76139 0.48325 0.0
H1614 H 0.4869 0.72222 0.48168 0.0
H1615 H 0.53852 0.60438 0.48373 0.0
H1616 H 0.5187 0.729 0.50403 0.0
H1617 H 0.5315 0.79466 0.49138 0.0
H1618 H 0.55132 0.64155 0.48706 0.0
H1619 H 0.61638 0.75388 0.58348 0.0
H1620 H 0.56027 0.81295 0.51255 0.0
H1621 H 0.58894 0.81089 0.5396 0.0
H1622 H 0.44843 0.71734 0.47334 0.0
H1623 H 0.61015 0.78891 0.56582 0.0
H1624 H 0.49962 0.59678 0.48237 0.0
N1625 N 0.49231 0.68904 0.48794 0.0
C1626 C 0.48437 0.66873 0.48633 0.0
C1627 C 0.45829 0.70359 0.47723 0.0
C1628 C 0.46243 0.66529 0.48186 0.0
C1629 C 0.48005 0.70628 0.4819 0.0
C1630 C 0.44931 0.68307 0.47777 0.0
N1631 N 0.51994 0.65498 0.48913 0.0
C1632 C 0.5343 0.63853 0.48688 0.0
C1633 C 0.49053 0.63021 0.48476 0.0
C1634 C 0.49845 0.6513 0.48727 0.0
C1635 C 0.50513 0.61318 0.48415 0.0
C1636 C 0.5271 0.6174 0.48485 0.0
H1637 H 0.43242 0.68105 0.47419 0.0
H1638 H 0.43755 0.64137 0.4776 0.0
H1639 H 0.46206 0.61069 0.48052 0.0
O1640 O 0.5308 0.67969 0.46372 0.0
O1641 O 0.52796 0.66445 0.5216 0.0
O1642 O 0.52378 0.68603 0.55053 0.0
O1643 O 0.52682 0.71434 0.47043 0.0
O1644 O 0.56119 0.67559 0.50278 0.0
O1645 O 0.56601 0.68169 0.53898 0.0
O1646 O 0.54383 0.7253 0.57997 0.0
O1647 O 0.57846 0.71617 0.52675 0.0
O1648 O 0.56291 0.7112 0.49354 0.0
O1649 O 0.5627 0.69677 0.57498 0.0
O1650 O 0.51141 0.7222 0.54722 0.0
O1651 O 0.4995 0.70211 0.5188 0.0
C1652 C 0.52347 0.66697 0.54188 0.0
C1653 C 0.52654 0.70343 0.43333 0.0
C1654 C 0.53811 0.69541 0.39729 0.0
C1655 C 0.52372 0.71073 0.38921 0.0
C1656 C 0.5121 0.7187 0.42527 0.0
C1657 C 0.51059 0.72219 0.4032 0.0
C1658 C 0.53927 0.69157 0.41931 0.0
C1659 C 0.57052 0.67129 0.52113 0.0
C1660 C 0.52751 0.69897 0.4562 0.0
C1661 C 0.45444 0.64427 0.48058 0.0
C1662 C 0.46842 0.62679 0.48219 0.0
C1663 C 0.58 0.71732 0.5057 0.0
C1664 C 0.53618 0.69447 0.60056 0.0
C1665 C 0.49904 0.68257 0.60515 0.0
C1666 C 0.5067 0.66595 0.61851 0.0
C1667 C 0.54318 0.67903 0.61523 0.0
C1668 C 0.51447 0.69518 0.59481 0.0
C1669 C 0.52847 0.66451 0.62382 0.0
C1670 C 0.49499 0.71437 0.53581 0.0
C1671 C 0.55143 0.70773 0.58854 0.0
H1672 H 0.52283 0.71392 0.37215 0.0
H1673 H 0.50184 0.72765 0.436 0.0
H1674 H 0.4994 0.73391 0.39696 0.0
H1675 H 0.55058 0.67986 0.42554 0.0
H1676 H 0.49588 0.65634 0.62777 0.0
H1677 H 0.55998 0.67784 0.61954 0.0
H1678 H 0.50941 0.70667 0.583 0.0
H1679 H 0.53372 0.65273 0.63547 0.0
Eu1680 Eu 0.69054 0.49699 0.52972 0.0
C1681 C 0.7601 0.53433 0.57185 0.0
N1682 N 0.74164 0.54501 0.57616 0.0
C1683 C 0.75637 0.5585 0.609 0.0
C1684 C 0.77778 0.53588 0.58593 0.0
C1685 C 0.73941 0.5569 0.59444 0.0
C1686 C 0.77572 0.54815 0.60461 0.0
C1687 C 0.78015 0.51002 0.54918 0.0
C1688 C 0.7612 0.52166 0.55345 0.0
C1689 C 0.79789 0.51189 0.56295 0.0
C1690 C 0.79673 0.52479 0.58123 0.0
Eu1691 Eu 0.71602 0.54505 0.54847 0.0
N1692 N 0.74385 0.52037 0.54004 0.0
C1693 C 0.78075 0.49669 0.53122 0.0
C1694 C 0.74439 0.50685 0.52296 0.0
C1695 C 0.76267 0.49489 0.51824 0.0
H1696 H 0.72462 0.56546 0.59736 0.0
H1697 H 0.76277 0.48427 0.50453 0.0
H1698 H 0.72127 0.481 0.48753 0.0
H1699 H 0.60411 0.48313 0.54059 0.0
H1700 H 0.73083 0.50478 0.51305 0.0
H1701 H 0.79496 0.48748 0.52743 0.0
H1702 H 0.64116 0.48783 0.55279 0.0
H1703 H 0.75464 0.56795 0.62341 0.0
H1704 H 0.81258 0.50322 0.55971 0.0
H1705 H 0.8105 0.52585 0.59181 0.0
H1706 H 0.71611 0.47183 0.44948 0.0
H1707 H 0.78891 0.54957 0.61585 0.0
H1708 H 0.59612 0.47924 0.50199 0.0
N1709 N 0.68807 0.4867 0.49327 0.0
C1710 C 0.66772 0.48427 0.48568 0.0
C1711 C 0.70239 0.47559 0.45939 0.0
C1712 C 0.66408 0.47895 0.46397 0.0
C1713 C 0.70525 0.48085 0.48095 0.0
C1714 C 0.68176 0.47517 0.45071 0.0
N1715 N 0.65445 0.48826 0.52124 0.0
C1716 C 0.63813 0.4868 0.53583 0.0
C1717 C 0.62938 0.48195 0.4924 0.0
C1718 C 0.6505 0.48534 0.49993 0.0
C1719 C 0.61253 0.48172 0.50718 0.0
C1720 C 0.61698 0.48387 0.52899 0.0
H1721 H 0.67959 0.471 0.43399 0.0
H1722 H 0.63995 0.47284 0.43969 0.0
H1723 H 0.60958 0.47577 0.46448 0.0
O1724 O 0.68029 0.46384 0.53211 0.0
O1725 O 0.6657 0.52372 0.52681 0.0
O1726 O 0.68692 0.55404 0.52882 0.0
O1727 O 0.71494 0.47181 0.52843 0.0
O1728 O 0.67366 0.50528 0.56028 0.0
O1729 O 0.68388 0.54046 0.56721 0.0
O1730 O 0.70836 0.57949 0.55223 0.0
O1731 O 0.71332 0.52496 0.57953 0.0
O1732 O 0.70997 0.49217 0.5636 0.0
O1733 O 0.74083 0.56884 0.55179 0.0
O1734 O 0.72099 0.54651 0.51074 0.0
O1735 O 0.70009 0.51856 0.49936 0.0
C1736 C 0.6685 0.54459 0.52498 0.0
C1737 C 0.70494 0.43412 0.53022 0.0
C1738 C 0.69623 0.39833 0.54257 0.0
C1739 C 0.71132 0.38975 0.52837 0.0
C1740 C 0.72032 0.42559 0.51628 0.0
C1741 C 0.72341 0.40341 0.51532 0.0
C1742 C 0.69301 0.42046 0.54343 0.0
C1743 C 0.67081 0.52369 0.56996 0.0
C1744 C 0.69999 0.45697 0.52978 0.0
C1745 C 0.64301 0.4766 0.45637 0.0
C1746 C 0.62572 0.47821 0.47051 0.0
C1747 C 0.71463 0.50393 0.58128 0.0
C1748 C 0.73543 0.60008 0.53471 0.0
C1749 C 0.73672 0.60789 0.49656 0.0
C1750 C 0.75786 0.61538 0.49922 0.0
C1751 C 0.75585 0.6092 0.53725 0.0
C1752 C 0.72574 0.59974 0.51441 0.0
C1753 C 0.76717 0.61643 0.51947 0.0
C1754 C 0.71174 0.5359 0.49458 0.0
C1755 C 0.72839 0.58522 0.55127 0.0
H1756 H 0.71383 0.37258 0.52754 0.0
H1757 H 0.72946 0.43599 0.50576 0.0
H1758 H 0.73507 0.39679 0.50436 0.0
H1759 H 0.68108 0.427 0.55425 0.0
H1760 H 0.76703 0.62132 0.4859 0.0
H1761 H 0.7638 0.60898 0.55273 0.0
H1762 H 0.70997 0.59266 0.51236 0.0
H1763 H 0.7833 0.62259 0.52135 0.0
Eu1764 Eu 0.75102 0.46774 0.79941 0.0
C1765 C 0.82669 0.46454 0.73946 0.0
N1766 N 0.81686 0.44594 0.74513 0.0
C1767 C 0.82625 0.42993 0.71157 0.0
C1768 C 0.83722 0.46632 0.71956 0.0
C1769 C 0.81581 0.42896 0.73133 0.0
C1770 C 0.8373 0.44857 0.70579 0.0
C1771 C 0.83335 0.50224 0.74645 0.0
C1772 C 0.82453 0.48238 0.75281 0.0
C1773 C 0.84469 0.50379 0.72706 0.0
C1774 C 0.84664 0.48589 0.71368 0.0
Eu1775 Eu 0.80249 0.44522 0.7799 0.0
N1776 N 0.81305 0.4806 0.77139 0.0
C1777 C 0.83024 0.5201 0.7596 0.0
C1778 C 0.81022 0.49793 0.7843 0.0
C1779 C 0.81857 0.51794 0.77854 0.0
H1780 H 0.80718 0.41456 0.73579 0.0
H1781 H 0.8161 0.53168 0.78881 0.0
H1782 H 0.75225 0.51104 0.83135 0.0
H1783 H 0.69904 0.39789 0.80526 0.0
H1784 H 0.8016 0.49659 0.79906 0.0
H1785 H 0.83669 0.53565 0.75523 0.0
H1786 H 0.71183 0.42892 0.78484 0.0
H1787 H 0.82581 0.41632 0.70084 0.0
H1788 H 0.85169 0.51891 0.72206 0.0
H1789 H 0.855 0.48752 0.69855 0.0
H1790 H 0.74371 0.51971 0.86897 0.0
H1791 H 0.84531 0.44931 0.69041 0.0
H1792 H 0.69384 0.40043 0.84418 0.0
N1793 N 0.73662 0.48069 0.83211 0.0
C1794 C 0.72545 0.46647 0.84399 0.0
C1795 C 0.7384 0.50467 0.86215 0.0
C1796 C 0.72132 0.47009 0.86589 0.0
C1797 C 0.74283 0.49988 0.84072 0.0
C1798 C 0.72795 0.48951 0.87494 0.0
N1799 N 0.72135 0.44655 0.81253 0.0
C1800 C 0.71221 0.42966 0.80197 0.0
C1801 C 0.70753 0.43229 0.84598 0.0
C1802 C 0.71811 0.44836 0.834 0.0
C1803 C 0.70097 0.41371 0.83548 0.0
C1804 C 0.70342 0.41243 0.81339 0.0
H1805 H 0.72508 0.49296 0.8917 0.0
H1806 H 0.7081 0.45632 0.89496 0.0
H1807 H 0.6966 0.42274 0.87759 0.0
O1808 O 0.72916 0.49457 0.79744 0.0
O1809 O 0.76501 0.44155 0.82159 0.0
O1810 O 0.78357 0.42092 0.79792 0.0
O1811 O 0.76299 0.49843 0.78797 0.0
O1812 O 0.74396 0.44282 0.77403 0.0
O1813 O 0.77463 0.42188 0.77216 0.0
O1814 O 0.83405 0.44101 0.79456 0.0
O1815 O 0.78464 0.45783 0.74872 0.0
O1816 O 0.75113 0.46787 0.76059 0.0
O1817 O 0.82151 0.41645 0.7736 0.0
O1818 O 0.80803 0.45892 0.81572 0.0
O1819 O 0.77678 0.47559 0.82491 0.0
C1820 C 0.77446 0.42345 0.8164 0.0
C1821 C 0.73664 0.51536 0.76708 0.0
C1822 C 0.71905 0.50771 0.73297 0.0
C1823 C 0.72583 0.52805 0.72552 0.0
C1824 C 0.74449 0.53474 0.75903 0.0
C1825 C 0.73855 0.54133 0.73843 0.0
C1826 C 0.72325 0.5027 0.75442 0.0
C1827 C 0.7539 0.42505 0.76852 0.0
C1828 C 0.74355 0.50674 0.7878 0.0
C1829 C 0.71099 0.45413 0.87799 0.0
C1830 C 0.70438 0.43507 0.8681 0.0
C1831 C 0.76516 0.46544 0.74428 0.0
C1832 C 0.85912 0.41645 0.78019 0.0
C1833 C 0.89415 0.40556 0.79323 0.0
C1834 C 0.9014 0.40374 0.77204 0.0
C1835 C 0.86625 0.41431 0.75899 0.0
C1836 C 0.87306 0.41199 0.79712 0.0
C1837 C 0.88739 0.40798 0.75498 0.0
C1838 C 0.79649 0.47006 0.83007 0.0
C1839 C 0.83721 0.42238 0.78584 0.0
H1840 H 0.72166 0.53395 0.7098 0.0
H1841 H 0.75502 0.5447 0.76861 0.0
H1842 H 0.74409 0.55661 0.7323 0.0
H1843 H 0.71641 0.48855 0.76166 0.0
H1844 H 0.91775 0.39892 0.76873 0.0
H1845 H 0.85565 0.41743 0.74566 0.0
H1846 H 0.86749 0.41375 0.81351 0.0
H1847 H 0.89293 0.40636 0.73863 0.0
Eu1848 Eu 0.81959 0.50014 0.05066 0.0
C1849 C 0.82572 0.56995 0.98832 0.0
N1850 N 0.84462 0.56121 0.99473 0.0
C1851 C 0.86042 0.56911 0.96049 0.0
C1852 C 0.8236 0.5788 0.96756 0.0
C1853 C 0.86185 0.56044 0.98108 0.0
C1854 C 0.84129 0.57853 0.95376 0.0
C1855 C 0.7881 0.577 0.99514 0.0
C1856 C 0.80809 0.56885 1.00209 0.0
C1857 C 0.78617 0.58639 0.97473 0.0
C1858 C 0.80385 0.58729 0.961 0.0
Eu1859 Eu 0.84602 0.55014 0.03105 0.0
N1860 N 0.81024 0.55952 1.02189 0.0
C1861 C 0.77049 0.57543 1.00885 0.0
C1862 C 0.79302 0.55826 0.03527 0.0
C1863 C 0.77295 0.56595 0.02893 0.0
H1864 H 0.87662 0.55274 0.98595 0.0
H1865 H 0.75938 0.56462 0.03963 0.0
H1866 H 0.77904 0.5064 0.08572 0.0
H1867 H 0.86323 0.42372 0.04318 0.0
H1868 H 0.79426 0.55106 0.05073 0.0
H1869 H 0.75489 0.58144 1.00405 0.0
H1870 H 0.84111 0.45357 0.02914 0.0
H1871 H 0.87406 0.56845 0.94981 0.0
H1872 H 0.77096 0.59282 0.96929 0.0
H1873 H 0.80198 0.59432 0.9452 0.0
H1874 H 0.77218 0.49773 0.12397 0.0
H1875 H 0.84022 0.58519 0.93773 0.0
H1876 H 0.8663 0.41781 0.08233 0.0
N1877 N 0.8072 0.48742 0.08416 0.0
C1878 C 0.8196 0.47267 0.09396 0.0
C1879 C 0.78576 0.49074 0.11581 0.0
C1880 C 0.81663 0.46732 0.11568 0.0
C1881 C 0.78961 0.49556 0.09423 0.0
C1882 C 0.79977 0.47706 0.12681 0.0
N1883 N 0.83357 0.46564 0.06003 0.0
C1884 C 0.84289 0.45153 0.04623 0.0
C1885 C 0.84544 0.44428 0.09017 0.0
C1886 C 0.83357 0.46136 0.08137 0.0
C1887 C 0.85701 0.43118 0.07624 0.0
C1888 C 0.85525 0.43446 0.05413 0.0
H1889 H 0.79686 0.4734 0.14354 0.0
H1890 H 0.82836 0.44773 0.14196 0.0
H1891 H 0.85384 0.42752 0.11955 0.0
O1892 O 0.79117 0.48034 0.04969 0.0
O1893 O 0.84663 0.51023 0.0743 0.0
O1894 O 0.86699 0.53471 0.05548 0.0
O1895 O 0.79042 0.51284 0.03606 0.0
O1896 O 0.84736 0.49155 0.02934 0.0
O1897 O 0.86937 0.52139 0.02895 0.0
O1898 O 0.85167 0.5844 0.03773 0.0
O1899 O 0.83797 0.52977 1.00044 0.0
O1900 O 0.82009 0.49964 1.01201 0.0
O1901 O 0.87583 0.5655 0.02239 0.0
O1902 O 0.83148 0.55812 0.06618 0.0
O1903 O 0.81427 0.52708 0.07608 0.0
C1904 C 0.864 0.52228 0.07209 0.0
C1905 C 0.77153 0.48511 1.01811 0.0
C1906 C 0.77431 0.45965 0.98864 0.0
C1907 C 0.75403 0.46617 0.98127 0.0
C1908 C 0.75164 0.49199 1.01024 0.0
C1909 C 0.7429 0.48245 0.99191 0.0
C1910 C 0.78273 0.46893 1.00727 0.0
C1911 C 0.86625 0.50047 0.02692 0.0
C1912 C 0.78058 0.49421 0.03786 0.0
C1913 C 0.8299 0.45172 0.12512 0.0
C1914 C 0.84439 0.44022 0.11235 0.0
C1915 C 0.82709 0.5121 0.99576 0.0
C1916 C 0.88835 0.59484 0.04215 0.0
C1917 C 0.90081 0.62589 0.06197 0.0
C1918 C 0.92183 0.61788 0.0615 0.0
C1919 C 0.90951 0.58686 0.04191 0.0
C1920 C 0.88415 0.61435 0.05228 0.0
C1921 C 0.92611 0.59839 0.05153 0.0
C1922 C 0.82014 0.54693 0.08088 0.0
C1923 C 0.8711 0.58404 0.03017 0.0
H1924 H 0.747 0.45898 0.96711 0.0
H1925 H 0.74281 0.50449 1.0184 0.0
H1926 H 0.72743 0.48763 0.98596 0.0
H1927 H 0.79804 0.46335 1.01343 0.0
H1928 H 0.93483 0.62653 0.06917 0.0
H1929 H 0.91335 0.57189 0.03405 0.0
H1930 H 0.86799 0.62079 0.05233 0.0
H1931 H 0.94231 0.59219 0.05129 0.0
Eu1932 Eu 0.78613 0.58469 0.29904 0.0
C1933 C 0.71427 0.5875 0.23745 0.0
N1934 N 0.72231 0.60676 0.24358 0.0
C1935 C 0.71057 0.62301 0.21074 0.0
C1936 C 0.70361 0.58541 0.21761 0.0
C1937 C 0.72096 0.62438 0.23053 0.0
C1938 C 0.70163 0.6035 0.20434 0.0
C1939 C 0.71033 0.54932 0.24392 0.0
C1940 C 0.71781 0.56962 0.25056 0.0
C1941 C 0.69889 0.54737 0.22457 0.0
C1942 C 0.69559 0.56533 0.21145 0.0
Eu1943 Eu 0.73567 0.60796 0.27871 0.0
N1944 N 0.72912 0.57187 0.26925 0.0
C1945 C 0.71481 0.53147 0.25678 0.0
C1946 C 0.73406 0.55439 0.28139 0.0
C1947 C 0.72694 0.53399 0.27543 0.0
H1948 H 0.72793 0.63949 0.23543 0.0
H1949 H 0.73076 0.52019 0.28529 0.0
H1950 H 0.78088 0.53743 0.32551 0.0
H1951 H 0.8353 0.65407 0.32006 0.0
H1952 H 0.74341 0.55586 0.2956 0.0
H1953 H 0.7093 0.51562 0.25226 0.0
H1954 H 0.82218 0.62765 0.2943 0.0
H1955 H 0.70939 0.637 0.20049 0.0
H1956 H 0.69286 0.53191 0.21941 0.0
H1957 H 0.68711 0.56345 0.19638 0.0
H1958 H 0.7876 0.52337 0.36206 0.0
H1959 H 0.69355 0.60249 0.18898 0.0
H1960 H 0.83878 0.64479 0.35813 0.0
N1961 N 0.7945 0.56802 0.33209 0.0
C1962 C 0.80555 0.58034 0.34623 0.0
C1963 C 0.79261 0.53946 0.35785 0.0
C1964 C 0.80906 0.57325 0.36744 0.0
C1965 C 0.789 0.54738 0.33717 0.0
C1966 C 0.80234 0.55259 0.37317 0.0
N1967 N 0.81198 0.60543 0.31824 0.0
C1968 C 0.82149 0.62382 0.31101 0.0
C1969 C 0.82423 0.6135 0.35418 0.0
C1970 C 0.81392 0.59983 0.33934 0.0
C1971 C 0.83167 0.63339 0.3471 0.0
C1972 C 0.83017 0.63854 0.32547 0.0
H1973 H 0.80485 0.54652 0.38927 0.0
H1974 H 0.82149 0.58196 0.39871 0.0
H1975 H 0.83405 0.61759 0.38726 0.0
O1976 O 0.81675 0.56853 0.29984 0.0
O1977 O 0.77465 0.61319 0.3196 0.0
O1978 O 0.75097 0.63271 0.29917 0.0
O1979 O 0.78852 0.55243 0.28588 0.0
O1980 O 0.79457 0.61131 0.27574 0.0
O1981 O 0.7635 0.63147 0.27227 0.0
O1982 O 0.70064 0.60956 0.28505 0.0
O1983 O 0.7557 0.60123 0.24753 0.0
O1984 O 0.78151 0.57891 0.26099 0.0
O1985 O 0.71845 0.63761 0.27388 0.0
O1986 O 0.73 0.59478 0.31493 0.0
O1987 O 0.75966 0.57474 0.32292 0.0
C1988 C 0.76334 0.6307 0.31584 0.0
C1989 C 0.82124 0.55118 0.26736 0.0
C1990 C 0.83918 0.56977 0.23798 0.0
C1991 C 0.84406 0.54956 0.22908 0.0
C1992 C 0.8259 0.53132 0.25823 0.0
C1993 C 0.83732 0.53055 0.23903 0.0
C1994 C 0.82752 0.57018 0.257 0.0
C1995 C 0.7845 0.62903 0.27027 0.0
C1996 C 0.80962 0.55298 0.28755 0.0
C1997 C 0.81917 0.5869 0.38221 0.0
C1998 C 0.82641 0.60714 0.37567 0.0
C1999 C 0.7716 0.5876 0.24386 0.0
C2000 C 0.6807 0.64263 0.27728 0.0
C2001 C 0.64597 0.65331 0.29114 0.0
C2002 C 0.64503 0.66969 0.27556 0.0
C2003 C 0.67949 0.65895 0.26177 0.0
C2004 C 0.66383 0.63962 0.2917 0.0
C2005 C 0.66164 0.67233 0.26087 0.0
C2006 C 0.74097 0.58243 0.32894 0.0
C2007 C 0.70005 0.62953 0.27897 0.0
H2008 H 0.85357 0.54829 0.21473 0.0
H2009 H 0.82086 0.51657 0.26594 0.0
H2010 H 0.84122 0.51522 0.23195 0.0
H2011 H 0.8234 0.58538 0.26408 0.0
H2012 H 0.63175 0.68085 0.27505 0.0
H2013 H 0.69242 0.66148 0.25047 0.0
H2014 H 0.66485 0.62698 0.30362 0.0
H2015 H 0.66085 0.68503 0.24903 0.0
C2016 C 0.14537 0.29205 0.23233 0.0
C2017 C 0.14716 0.27523 0.2472 0.0
C2018 C 0.16005 0.29426 0.21525 0.0
C2019 C 0.17648 0.27881 0.21237 0.0
C2020 C 0.17955 0.26308 0.22849 0.0
C2021 C 0.16466 0.26128 0.24538 0.0
C2022 C 0.15807 0.31323 0.20041 0.0
C2023 C 0.19848 0.24805 0.22787 0.0
C2024 C 0.1959 0.2649 0.15559 0.0
C2025 C 0.21281 0.27935 0.15262 0.0
C2026 C 0.18456 0.26397 0.17518 0.0
C2027 C 0.18962 0.27848 0.19211 0.0
C2028 C 0.20698 0.29288 0.18925 0.0
C2029 C 0.21811 0.2932 0.16968 0.0
C2030 C 0.16802 0.2465 0.17779 0.0
C2031 C 0.21452 0.30788 0.20671 0.0
H2032 H 0.13218 0.30326 0.23382 0.0
H2033 H 0.16608 0.24813 0.25631 0.0
H2034 H 0.17268 0.32326 0.20146 0.0
H2035 H 0.15662 0.30779 0.18355 0.0
H2036 H 0.14431 0.32358 0.20472 0.0
H2037 H 0.20094 0.23979 0.24347 0.0
H2038 H 0.19589 0.23568 0.21541 0.0
H2039 H 0.21333 0.25698 0.22371 0.0
H2040 H 0.19175 0.25401 0.14279 0.0
H2041 H 0.23121 0.30447 0.16789 0.0
H2042 H 0.15562 0.25054 0.1898 0.0
H2043 H 0.17619 0.23162 0.18316 0.0
H2044 H 0.16022 0.24274 0.16223 0.0
H2045 H 0.21058 0.32462 0.20209 0.0
H2046 H 0.23225 0.30702 0.20826 0.0
H2047 H 0.20736 0.30443 0.22261 0.0
C2048 C 1.01124 0.90045 0.48231 0.0
C2049 C 0.02821 0.88584 0.48401 0.0
C2050 C 1.01032 0.9152 0.46503 0.0
C2051 C 0.02742 0.91614 0.44999 0.0
C2052 C 0.04472 0.90162 0.45214 0.0
C2053 C 0.04439 0.88621 0.46853 0.0
C2054 C 0.99055 0.92883 0.46214 0.0
C2055 C 0.06351 0.90206 0.43692 0.0
C2056 C 0.02336 0.93721 0.39256 0.0
C2057 C 0.02973 0.95843 0.39481 0.0
C2058 C 1.02115 0.92386 0.41057 0.0
C2059 C 0.02697 0.93131 0.43126 0.0
C2060 C 0.03405 0.9528 0.43349 0.0
C2061 C 0.03438 0.96635 0.41538 0.0
C2062 C 1.01273 0.90176 0.40683 0.0
C2063 C 0.04181 0.96133 0.45476 0.0
H2064 H 0.99828 0.89967 0.49384 0.0
H2065 H 0.05696 0.8743 0.46924 0.0
H2066 H 0.99491 0.94606 0.46205 0.0
H2067 H 0.98303 0.92523 0.44639 0.0
H2068 H 0.97853 0.92602 0.47496 0.0
H2069 H 0.07686 0.89162 0.44246 0.0
H2070 H 0.05835 0.89641 0.42089 0.0
H2071 H 0.06962 0.91871 0.43508 0.0
H2072 H 1.01909 0.93127 0.37678 0.0
H2073 H 0.03859 0.9831 0.41728 0.0
H2074 H 1.00559 0.89448 0.42141 0.0
H2075 H 0.02607 0.89174 0.40092 0.0
H2076 H 1.00055 0.90226 0.39392 0.0
H2077 H 0.02832 0.96206 0.46627 0.0
H2078 H 0.04892 0.97763 0.45328 0.0
H2079 H 0.05406 0.95039 0.46167 0.0
C2080 C 0.40918 0.74597 0.72547 0.0
C2081 C 0.40407 0.76062 0.74176 0.0
C2082 C 0.39565 0.74266 0.70764 0.0
C2083 C 0.37696 0.75517 0.70534 0.0
C2084 C 0.36969 0.76675 0.72348 0.0
C2085 C 0.38343 0.76962 0.74146 0.0
C2086 C 0.40097 0.72544 0.69159 0.0
C2087 C 0.34738 0.77594 0.72394 0.0
C2088 C 0.35521 0.77281 0.65013 0.0
C2089 C 0.33732 0.75956 0.64784 0.0
C2090 C 0.36953 0.77003 0.66753 0.0
C2091 C 0.3645 0.75544 0.68455 0.0
C2092 C 0.34704 0.74129 0.68161 0.0
C2093 C 0.33441 0.74303 0.66308 0.0
C2094 C 0.39068 0.7815 0.66601 0.0
C2095 C 0.3417 0.7237 0.69748 0.0
H2096 H 0.42435 0.73794 0.72614 0.0
H2097 H 0.37842 0.77971 0.75461 0.0
H2098 H 0.38911 0.71225 0.69309 0.0
H2099 H 0.39973 0.7317 0.67497 0.0
H2100 H 0.41718 0.71858 0.69428 0.0
H2101 H 0.34123 0.77635 0.74057 0.0
H2102 H 0.34762 0.7922 0.7168 0.0
H2103 H 0.3358 0.76631 0.71454 0.0
H2104 H 0.35867 0.78462 0.63782 0.0
H2105 H 0.32215 0.73109 0.66074 0.0
H2106 H 0.402 0.77692 0.67887 0.0
H2107 H 0.38791 0.79908 0.66576 0.0
H2108 H 0.39836 0.77754 0.65047 0.0
H2109 H 0.34886 0.70845 0.6918 0.0
H2110 H 0.32407 0.72123 0.69839 0.0
H2111 H 0.34781 0.72686 0.71387 0.0
C2112 C 0.52053 0.14442 0.9783 0.0
C2113 C 0.51273 0.16497 0.97329 0.0
C2114 C 0.51996 0.12764 0.96298 0.0
C2115 C 0.5116 0.13156 0.94202 0.0
C2116 C 0.50224 0.1518 0.93766 0.0
C2117 C 0.50302 0.16805 0.9532 0.0
C2118 C 0.52794 0.10581 0.96974 0.0
C2119 C 0.491 0.15642 0.91663 0.0
C2120 C 0.53506 0.10173 0.8941 0.0
C2121 C 0.51702 0.09136 0.88538 0.0
C2122 C 0.53378 0.11379 0.91312 0.0
C2123 C 0.5139 0.1157 0.92393 0.0
C2124 C 0.49593 0.10423 0.9158 0.0
C2125 C 0.49758 0.09257 0.89648 0.0
C2126 C 0.55393 0.12395 0.92193 0.0
C2127 C 0.47549 0.10258 0.92841 0.0
H2128 H 0.52704 0.14138 0.99416 0.0
H2129 H 0.49516 0.18312 0.94988 0.0
H2130 H 0.5238 0.09302 0.9581 0.0
H2131 H 0.5456 0.10637 0.97185 0.0
H2132 H 0.5211 0.10145 0.98559 0.0
H2133 H 0.48456 0.17293 0.91599 0.0
H2134 H 0.50187 0.15363 0.90292 0.0
H2135 H 0.47712 0.14565 0.91433 0.0
H2136 H 0.55039 0.10025 0.88607 0.0
H2137 H 0.4839 0.08357 0.8906 0.0
H2138 H 0.5582 0.11627 0.93738 0.0
H2139 H 0.55138 0.14126 0.92505 0.0
H2140 H 0.56783 0.12191 0.91106 0.0
H2141 H 0.47844 0.0916 0.9421 0.0
H2142 H 0.46211 0.09622 0.9185 0.0
H2143 H 0.47056 0.11811 0.93532 0.0
C2144 C 0.16843 0.21855 0.2858 0.0
C2145 C 0.14805 0.20945 0.28264 0.0
C2146 C 0.18724 0.20619 0.28483 0.0
C2147 C 0.1857 0.18366 0.2828 0.0
C2148 C 0.16492 0.17418 0.28189 0.0
C2149 C 0.14644 0.1872 0.28089 0.0
C2150 C 0.20875 0.21736 0.28549 0.0
C2151 C 0.16168 0.15036 0.28195 0.0
C2152 C 0.23114 0.15342 0.2555 0.0
C2153 C 0.24288 0.14496 0.27271 0.0
C2154 C 0.21288 0.16619 0.25859 0.0
C2155 C 0.2057 0.17052 0.27964 0.0
C2156 C 0.21764 0.16227 0.29729 0.0
C2157 C 0.23608 0.14952 0.29362 0.0
C2158 C 0.20072 0.17423 0.23921 0.0
C2159 C 0.21023 0.16591 0.31998 0.0
H2160 H 0.16982 0.23559 0.2884 0.0
H2161 H 0.13069 0.17989 0.27957 0.0
H2162 H 0.21821 0.2116 0.29942 0.0
H2163 H 0.21801 0.21345 0.27084 0.0
H2164 H 0.20717 0.23508 0.28658 0.0
H2165 H 0.15716 0.14535 0.26551 0.0
H2166 H 0.17615 0.14161 0.28745 0.0
H2167 H 0.14813 0.14595 0.29264 0.0
H2168 H 0.23548 0.14876 0.23948 0.0
H2169 H 0.24443 0.14218 0.307 0.0
H2170 H 0.20849 0.16954 0.22391 0.0
H2171 H 0.19948 0.19198 0.23974 0.0
H2172 H 0.18418 0.16764 0.23934 0.0
H2173 H 0.20978 0.18333 0.32347 0.0
H2174 H 0.22082 0.15794 0.33193 0.0
H2175 H 0.19366 0.15967 0.32192 0.0
C2176 C 0.16716 0.95395 0.50685 0.0
C2177 C 0.16327 0.97503 0.51373 0.0
C2178 C 0.15099 0.9383 0.50635 0.0
C2179 C 0.12996 0.94355 0.51291 0.0
C2180 C 0.12536 0.96512 0.51864 0.0
C2181 C 0.14214 0.98053 0.51938 0.0
C2182 C 0.15636 0.91622 0.49798 0.0
C2183 C 0.10255 0.97229 0.52225 0.0
C2184 C 0.0933 0.89668 0.49769 0.0
C2185 C 0.09012 0.88657 0.51757 0.0
C2186 C 0.10434 0.91645 0.49609 0.0
C2187 C 0.11362 0.92584 0.51468 0.0
C2188 C 0.1101 0.91586 0.53482 0.0
C2189 C 0.09839 0.89657 0.536 0.0
C2190 C 0.10513 0.92759 0.47456 0.0
C2191 C 0.11871 0.9255 0.55528 0.0
H2192 H 0.18289 0.94972 0.50103 0.0
H2193 H 0.13859 0.99699 0.52368 0.0
H2194 H 0.14699 0.91284 0.48326 0.0
H2195 H 0.17346 0.91475 0.49364 0.0
H2196 H 0.15211 0.9037 0.50993 0.0
H2197 H 0.10167 0.98913 0.52796 0.0
H2198 H 0.09358 0.97103 0.5069 0.0
H2199 H 0.09421 0.96175 0.53386 0.0
H2200 H 0.08671 0.88953 0.4834 0.0
H2201 H 0.09571 0.88923 0.55154 0.0
H2202 H 0.11944 0.93798 0.47261 0.0
H2203 H 0.0908 0.93802 0.47302 0.0
H2204 H 0.10471 0.91581 0.46125 0.0
H2205 H 0.13619 0.92845 0.55389 0.0
H2206 H 0.11549 0.91514 0.56941 0.0
H2207 H 0.11105 0.9412 0.55832 0.0
C2208 C 0.3266 0.8948 0.75915 0.0
C2209 C 0.30924 0.89578 0.77318 0.0
C2210 C 0.34175 0.87832 0.76009 0.0
C2211 C 0.34105 0.86328 0.77722 0.0
C2212 C 0.32268 0.86327 0.79084 0.0
C2213 C 0.30693 0.87956 0.78863 0.0
C2214 C 0.35788 0.87687 0.742 0.0
C2215 C 0.31918 0.84612 0.80757 0.0
C2216 C 0.38513 0.82527 0.76092 0.0
C2217 C 0.40108 0.82991 0.77593 0.0
C2218 C 0.36427 0.83326 0.76345 0.0
C2219 C 0.35962 0.84798 0.77993 0.0
C2220 C 0.37515 0.8507 0.79637 0.0
C2221 C 0.39572 0.84174 0.79412 0.0
C2222 C 0.34683 0.82443 0.74965 0.0
C2223 C 0.36973 0.86075 0.8174 0.0
H2224 H 0.32785 0.90657 0.74653 0.0
H2225 H 0.2932 0.87984 0.79925 0.0
H2226 H 0.37418 0.87296 0.74794 0.0
H2227 H 0.35301 0.86401 0.73083 0.0
H2228 H 0.35862 0.89179 0.73229 0.0
H2229 H 0.30221 0.84069 0.80726 0.0
H2230 H 0.32972 0.83199 0.80529 0.0
H2231 H 0.32217 0.85298 0.82371 0.0
H2232 H 0.38866 0.81459 0.74776 0.0
H2233 H 0.4074 0.84341 0.80693 0.0
H2234 H 0.35172 0.82473 0.73257 0.0
H2235 H 0.3315 0.83283 0.75195 0.0
H2236 H 0.34404 0.80775 0.75482 0.0
H2237 H 0.38392 0.86911 0.82421 0.0
H2238 H 0.3652 0.84789 0.82888 0.0
H2239 H 0.35603 0.87178 0.81589 0.0
C2240 C 0.46168 0.14971 0.99748 0.0
C2241 C 0.45385 0.16668 1.00985 0.0
C2242 C 0.45428 0.12856 1.00045 0.0
C2243 C 0.4371 0.1244 1.01474 0.0
C2244 C 0.43007 0.14141 0.02816 0.0
C2245 C 0.43842 0.16219 0.02545 0.0
C2246 C 0.46615 0.11076 0.98934 0.0
C2247 C 0.41542 0.13788 0.04695 0.0
C2248 C 0.39419 0.08576 0.99609 0.0
C2249 C 0.39284 0.07088 1.01282 0.0
C2250 C 0.41069 0.101 0.99512 0.0
C2251 C 0.42431 0.10391 1.01309 0.0
C2252 C 0.42373 0.08827 0.02981 0.0
C2253 C 0.40816 0.07168 0.02929 0.0
C2254 C 0.41383 0.11325 0.9744 0.0
C2255 C 0.43914 0.089 0.04843 0.0
H2256 H 0.47462 0.1526 0.98644 0.0
H2257 H 0.43352 0.17485 0.03627 0.0
H2258 H 0.45947 0.09459 0.99261 0.0
H2259 H 0.46625 0.11383 0.9719 0.0
H2260 H 0.48314 0.11093 0.99471 0.0
H2261 H 0.40471 0.15189 0.04927 0.0
H2262 H 0.40586 0.12311 0.04553 0.0
H2263 H 0.42534 0.13649 0.06168 0.0
H2264 H 0.38269 0.08489 0.98306 0.0
H2265 H 0.40747 0.05995 0.04214 0.0
H2266 H 0.42865 0.10761 0.96653 0.0
H2267 H 0.41571 0.1307 0.97725 0.0
H2268 H 0.40061 0.11047 0.96279 0.0
H2269 H 0.45336 0.09915 0.04505 0.0
H2270 H 0.44462 0.07256 0.0526 0.0
H2271 H 0.43075 0.09545 0.0627 0.0
C2272 C 0.07189 0.03461 0.40624 0.0
C2273 C 0.06561 1.0158 0.39569 0.0
C2274 C 0.09016 0.03472 0.41983 0.0
C2275 C 0.10252 1.0157 0.42257 0.0
C2276 C 0.09551 0.99656 0.41266 0.0
C2277 C 0.07732 0.9969 0.39944 0.0
C2278 C 0.09707 0.05545 0.43014 0.0
C2279 C 0.10809 0.97595 0.41472 0.0
C2280 C 0.16285 1.01836 0.434 0.0
C2281 C 0.16399 1.01067 0.45497 0.0
C2282 C 0.14295 1.02101 0.42364 0.0
C2283 C 0.12356 1.01579 0.43439 0.0
C2284 C 0.12469 1.00874 0.45595 0.0
C2285 C 0.14484 1.00614 0.46583 0.0
C2286 C 0.14328 0.02902 0.40099 0.0
C2287 C 0.10466 1.00436 0.4688 0.0
H2288 H 0.06336 0.0494 0.40292 0.0
H2289 H 0.07294 0.98244 0.39085 0.0
H2290 H 0.10107 0.05279 0.4473 0.0
H2291 H 0.11178 0.06147 0.42213 0.0
H2292 H 0.08448 0.068 0.42892 0.0
H2293 H 0.10013 0.96231 0.40645 0.0
H2294 H 0.12429 0.97819 0.40771 0.0
H2295 H 0.11023 0.97164 0.43185 0.0
H2296 H 0.17754 0.0228 0.42582 0.0
H2297 H 0.14553 1.00159 0.48246 0.0
H2298 H 0.15569 0.04167 0.39902 0.0
H2299 H 0.12768 0.03557 0.39557 0.0
H2300 H 0.14783 1.01535 0.39068 0.0
H2301 H 0.0922 1.01663 0.46544 0.0
H2302 H 0.108 1.00425 0.48629 0.0
H2303 H 0.09799 0.98849 0.4643 0.0
C2304 C 0.29333 0.87828 0.71564 0.0
C2305 C 0.27764 0.89374 0.71127 0.0
C2306 C 0.2913 0.85702 0.70822 0.0
C2307 C 0.27433 0.85129 0.69427 0.0
C2308 C 0.25771 0.86652 0.69112 0.0
C2309 C 0.25963 0.88739 0.69946 0.0
C2310 C 0.30622 0.8404 0.71719 0.0
C2311 C 0.23693 0.86078 0.68063 0.0
C2312 C 0.29329 0.81142 0.65196 0.0
C2313 C 0.27677 0.79634 0.6513 0.0
C2314 C 0.29282 0.82901 0.66587 0.0
C2315 C 0.27579 0.83109 0.68089 0.0
C2316 C 0.26062 0.81395 0.6824 0.0
C2317 C 0.26084 0.7972 0.66707 0.0
C2318 C 0.31096 0.84509 0.66423 0.0
C2319 C 0.24418 0.81279 0.70004 0.0
H2320 H 0.30664 0.88232 0.72578 0.0
H2321 H 0.24662 0.89873 0.69715 0.0
H2322 H 0.30547 0.82466 0.709 0.0
H2323 H 0.3229 0.8465 0.71672 0.0
H2324 H 0.30153 0.83768 0.73411 0.0
H2325 H 0.22912 0.87534 0.67394 0.0
H2326 H 0.23918 0.84854 0.66804 0.0
H2327 H 0.22587 0.85424 0.69292 0.0
H2328 H 0.30667 0.80966 0.64125 0.0
H2329 H 0.24841 0.78501 0.6673 0.0
H2330 H 0.32314 0.84155 0.67669 0.0
H2331 H 0.30526 0.86178 0.66644 0.0
H2332 H 0.31935 0.84405 0.64859 0.0
H2333 H 0.24435 0.79653 0.70737 0.0
H2334 H 0.22793 0.81511 0.6931 0.0
H2335 H 0.24698 0.82476 0.71288 0.0
C2336 C 0.46383 0.04188 0.88008 0.0
C2337 C 0.48322 0.03124 0.88422 0.0
C2338 C 0.44735 0.04263 0.89526 0.0
C2339 C 0.44976 0.03179 0.91504 0.0
C2340 C 0.46951 1.02133 0.91968 0.0
C2341 C 0.48618 1.02143 0.90428 0.0
C2342 C 0.42718 0.05497 0.88997 0.0
C2343 C 0.47285 1.00974 0.94067 0.0
C2344 C 0.40692 0.04762 0.95551 0.0
C2345 C 0.39105 0.0322 0.95183 0.0
C2346 C 0.42686 0.04683 0.94509 0.0
C2347 C 0.43087 0.03055 0.92988 0.0
C2348 C 0.41505 1.01457 0.9267 0.0
C2349 C 0.39544 1.01552 0.93764 0.0
C2350 C 0.44323 0.06367 0.95049 0.0
C2351 C 0.41877 0.99644 0.91161 0.0
H2352 H 0.46159 0.05008 0.86491 0.0
H2353 H 0.50123 1.0134 0.9077 0.0
H2354 H 0.41329 0.04384 0.88937 0.0
H2355 H 0.42397 0.06695 0.9027 0.0
H2356 H 0.42828 0.06351 0.87434 0.0
H2357 H 0.48988 1.00509 0.94314 0.0
H2358 H 0.46764 1.0199 0.95428 0.0
H2359 H 0.46288 0.99498 0.94095 0.0
H2360 H 0.40423 0.05985 0.96715 0.0
H2361 H 0.38352 1.00305 0.93524 0.0
H2362 H 0.43871 0.07868 0.94208 0.0
H2363 H 0.45969 0.05896 0.94581 0.0
H2364 H 0.44309 0.06708 0.96796 0.0
H2365 H 0.41822 1.00266 0.89492 0.0
H2366 H 0.40652 0.98364 0.91357 0.0
H2367 H 0.43485 0.98943 0.91453 0.0
C2368 C 0.2808 0.24511 0.16364 0.0
C2369 C 0.28069 0.24152 0.14141 0.0
C2370 C 0.28268 0.22771 0.17829 0.0
C2371 C 0.28318 0.20625 0.17053 0.0
C2372 C 0.28397 0.20284 0.14817 0.0
C2373 C 0.28404 0.22045 0.13418 0.0
C2374 C 0.28276 0.23222 0.202 0.0
C2375 C 0.28334 0.1806 0.13852 0.0
C2376 C 0.29847 0.15511 0.20059 0.0
C2377 C 0.27839 0.14669 0.20644 0.0
C2378 C 0.30036 0.17488 0.18978 0.0
C2379 C 0.28174 0.18713 0.18523 0.0
C2380 C 0.26144 0.17896 0.19177 0.0
C2381 C 0.25997 0.1585 0.20143 0.0
C2382 C 0.32236 0.18263 0.18323 0.0
C2383 C 0.24105 0.19173 0.18942 0.0
H2384 H 0.27839 0.26123 0.16963 0.0
H2385 H 0.28424 0.21737 0.1172 0.0
H2386 H 0.29408 0.22137 0.2105 0.0
H2387 H 0.28728 0.24912 0.20542 0.0
H2388 H 0.26647 0.22929 0.20853 0.0
H2389 H 0.27485 0.18078 0.12285 0.0
H2390 H 0.29996 0.17496 0.13577 0.0
H2391 H 0.27509 0.16872 0.14888 0.0
H2392 H 0.31285 0.14616 0.20458 0.0
H2393 H 0.24439 0.1522 0.20569 0.0
H2394 H 0.32428 0.19994 0.18693 0.0
H2395 H 0.32432 0.18066 0.16568 0.0
H2396 H 0.33536 0.1735 0.19136 0.0
H2397 H 0.23544 0.19644 0.20562 0.0
H2398 H 0.22827 0.1816 0.18224 0.0
H2399 H 0.24295 0.20656 0.17981 0.0
C2400 C 0.7849 0.30947 0.8783 0.0
C2401 C 0.78558 0.31478 0.90015 0.0
C2402 C 0.78616 0.32576 0.86243 0.0
C2403 C 0.78618 0.34771 0.86869 0.0
C2404 C 0.78829 0.35279 0.89067 0.0
C2405 C 0.78968 0.33624 0.90576 0.0
C2406 C 0.78701 0.31966 0.83909 0.0
C2407 C 0.78749 0.37563 0.89886 0.0
C2408 C 0.79722 0.39911 0.83788 0.0
C2409 C 0.7766 0.40523 0.83135 0.0
C2410 C 0.80087 0.37949 0.84838 0.0
C2411 C 0.78336 0.36564 0.85287 0.0
C2412 C 0.76257 0.37136 0.84526 0.0
C2413 C 0.75952 0.39106 0.83456 0.0
C2414 C 0.8236 0.37384 0.85463 0.0
C2415 C 0.74335 0.35679 0.84745 0.0
H2416 H 0.78234 0.29293 0.87363 0.0
H2417 H 0.79104 0.34054 0.92252 0.0
H2418 H 0.77306 0.32639 0.83035 0.0
H2419 H 0.8016 0.32673 0.83172 0.0
H2420 H 0.78731 0.30199 0.83681 0.0
H2421 H 0.78087 0.37629 0.91536 0.0
H2422 H 0.80397 0.38229 0.89948 0.0
H2423 H 0.77748 0.3862 0.88859 0.0
H2424 H 0.8107 0.40954 0.83429 0.0
H2425 H 0.7439 0.39501 0.82804 0.0
H2426 H 0.82593 0.35627 0.85638 0.0
H2427 H 0.82762 0.38165 0.87007 0.0
H2428 H 0.83514 0.37998 0.84252 0.0
H2429 H 0.73974 0.34983 0.83153 0.0
H2430 H 0.729 0.36614 0.85228 0.0
H2431 H 0.74574 0.3434 0.85888 0.0
C2432 C 0.9516 0.52941 0.1658 0.0
C2433 C 0.97174 0.52083 0.16061 0.0
C2434 C 0.93523 0.5318 0.15041 0.0
C2435 C 0.93816 0.52352 0.1296 0.0
C2436 C 0.95892 0.51652 0.12354 0.0
C2437 C 0.97567 0.51581 0.13898 0.0
C2438 C 0.91517 0.54388 0.15647 0.0
C2439 C 0.96326 0.50918 0.10096 0.0
C2440 C 0.88585 0.50538 0.10234 0.0
C2441 C 0.88218 0.52219 0.08783 0.0
C2442 C 0.9043 0.50534 0.11564 0.0
C2443 C 0.91943 0.52244 0.1144 0.0
C2444 C 0.91535 0.53971 0.10027 0.0
C2445 C 0.89706 0.53926 0.08715 0.0
C2446 C 0.9074 0.48726 0.13145 0.0
C2447 C 0.92996 0.55908 0.09945 0.0
H2448 H 0.94856 0.53407 0.18213 0.0
H2449 H 0.99146 0.5104 0.13428 0.0
H2450 H 0.90248 0.54409 0.14402 0.0
H2451 H 0.90826 0.53692 0.1711 0.0
H2452 H 0.91947 0.5608 0.15994 0.0
H2453 H 0.95824 0.4922 0.09943 0.0
H2454 H 0.95391 0.51837 0.08894 0.0
H2455 H 0.98049 0.51075 0.09685 0.0
H2456 H 0.87452 0.49219 0.1031 0.0
H2457 H 0.89438 0.55264 0.07634 0.0
H2458 H 0.90604 0.49361 0.14802 0.0
H2459 H 0.92372 0.48036 0.12974 0.0
H2460 H 0.89533 0.47431 0.12934 0.0
H2461 H 0.93289 0.56534 0.11584 0.0
H2462 H 0.92315 0.57223 0.08953 0.0
H2463 H 0.94572 0.55454 0.09264 0.0
C2464 C 0.7487 0.72715 0.40188 0.0
C2465 C 0.76693 0.74044 0.4026 0.0
C2466 C 0.74743 0.70927 0.38787 0.0
C2467 C 0.76528 0.70356 0.37494 0.0
C2468 C 0.7836 0.71712 0.37544 0.0
C2469 C 0.78411 0.73526 0.38904 0.0
C2470 C 0.72718 0.69604 0.38767 0.0
C2471 C 0.80306 0.71211 0.36205 0.0
C2472 C 0.77137 0.64649 0.35143 0.0
C2473 C 0.76432 0.64933 0.33058 0.0
C2474 C 0.77074 0.66332 0.36625 0.0
C2475 C 0.76442 0.68445 0.35986 0.0
C2476 C 0.75735 0.68736 0.33841 0.0
C2477 C 0.75698 0.66977 0.32423 0.0
C2478 C 0.77648 0.65747 0.38865 0.0
C2479 C 0.74965 0.70896 0.33055 0.0
H2480 H 0.73569 0.73022 0.41292 0.0
H2481 H 0.7987 0.74454 0.39014 0.0
H2482 H 0.72394 0.68897 0.37169 0.0
H2483 H 0.72894 0.68269 0.39933 0.0
H2484 H 0.71309 0.70583 0.39232 0.0
H2485 H 0.81694 0.72249 0.36622 0.0
H2486 H 0.8078 0.69508 0.36421 0.0
H2487 H 0.79919 0.71455 0.34485 0.0
H2488 H 0.77658 0.63066 0.35652 0.0
H2489 H 0.75117 0.67214 0.308 0.0
H2490 H 0.76549 0.6657 0.39978 0.0
H2491 H 0.79359 0.66151 0.39116 0.0
H2492 H 0.7751 0.63996 0.39162 0.0
H2493 H 0.73619 0.71459 0.34068 0.0
H2494 H 0.74418 0.70849 0.31359 0.0
H2495 H 0.76274 0.72095 0.33194 0.0
C2496 C 0.79975 0.6642 0.28142 0.0
C2497 C 0.79828 0.64801 0.26593 0.0
C2498 C 0.81718 0.67858 0.28182 0.0
C2499 C 0.83331 0.6772 0.26592 0.0
C2500 C 0.83015 0.66284 0.24848 0.0
C2501 C 0.81322 0.6478 0.24921 0.0
C2502 C 0.81848 0.69506 0.29948 0.0
C2503 C 0.8437 0.66368 0.22847 0.0
C2504 C 0.87458 0.72197 0.2586 0.0
C2505 C 0.89175 0.71511 0.27165 0.0
C2506 C 0.85549 0.71005 0.25686 0.0
C2507 C 0.85348 0.69035 0.26801 0.0
C2508 C 0.8707 0.68364 0.28155 0.0
C2509 C 0.88948 0.69606 0.28317 0.0
C2510 C 0.83752 0.71875 0.2431 0.0
C2511 C 0.86968 0.66385 0.29529 0.0
H2512 H 0.78826 0.66451 0.29429 0.0
H2513 H 0.81186 0.63566 0.23686 0.0
H2514 H 0.83284 0.69209 0.30959 0.0
H2515 H 0.82025 0.71134 0.29244 0.0
H2516 H 0.80407 0.69482 0.30991 0.0
H2517 H 0.84646 0.64736 0.22201 0.0
H2518 H 0.83468 0.67258 0.21594 0.0
H2519 H 0.85926 0.67195 0.23078 0.0
H2520 H 0.87587 0.73692 0.24984 0.0
H2521 H 0.90238 0.69081 0.29364 0.0
H2522 H 0.82162 0.71556 0.25042 0.0
H2523 H 0.83791 0.71083 0.22721 0.0
H2524 H 0.83914 0.73631 0.24052 0.0
H2525 H 0.86669 0.66887 0.31205 0.0
H2526 H 0.88547 0.65562 0.29557 0.0
H2527 H 0.85719 0.6524 0.28992 0.0
C2528 C 0.72347 0.41137 0.74661 0.0
C2529 C 0.73989 0.40723 0.76147 0.0
C2530 C 0.70547 0.39785 0.74505 0.0
C2531 C 0.70349 0.38017 0.75921 0.0
C2532 C 0.721 0.37478 0.7728 0.0
C2533 C 0.73904 0.38838 0.77372 0.0
C2534 C 0.68828 0.40281 0.72871 0.0
C2535 C 0.72025 0.35541 0.78736 0.0
C2536 C 0.64819 0.35719 0.77364 0.0
C2537 C 0.6476 0.33884 0.76089 0.0
C2538 C 0.66538 0.37182 0.77203 0.0
C2539 C 0.68356 0.36677 0.75913 0.0
C2540 C 0.68269 0.34852 0.74586 0.0
C2541 C 0.66445 0.33549 0.74627 0.0
C2542 C 0.66287 0.39293 0.78337 0.0
C2543 C 0.70087 0.3428 0.73089 0.0
H2544 H 0.72405 0.42597 0.73717 0.0
H2545 H 0.75159 0.38522 0.78537 0.0
H2546 H 0.68693 0.38944 0.71712 0.0
H2547 H 0.67247 0.40428 0.73668 0.0
H2548 H 0.69171 0.41776 0.71959 0.0
H2549 H 0.73648 0.35103 0.79329 0.0
H2550 H 0.70989 0.35899 0.80135 0.0
H2551 H 0.71331 0.34129 0.77907 0.0
H2552 H 0.63483 0.36063 0.78418 0.0
H2553 H 0.6636 0.32258 0.73493 0.0
H2554 H 0.67485 0.40504 0.77831 0.0
H2555 H 0.66364 0.3902 0.80094 0.0
H2556 H 0.6467 0.39962 0.78001 0.0
H2557 H 0.70268 0.35542 0.71847 0.0
H2558 H 0.6982 0.32721 0.7227 0.0
H2559 H 0.71625 0.34189 0.73981 0.0
C2560 C 0.53096 0.57256 0.62912 0.0
C2561 C 0.52003 0.57981 0.64731 0.0
C2562 C 0.52916 0.5829 0.60918 0.0
C2563 C 0.51512 0.60058 0.60689 0.0
C2564 C 0.501 0.60527 0.62418 0.0
C2565 C 0.50425 0.59548 0.64438 0.0
C2566 C 0.54142 0.57371 0.59047 0.0
C2567 C 0.48071 0.61799 0.62104 0.0
C2568 C 0.53795 0.64501 0.57165 0.0
C2569 C 0.52177 0.64822 0.55645 0.0
C2570 C 0.53643 0.62887 0.58728 0.0
C2571 C 0.51774 0.61579 0.58828 0.0
C2572 C 0.50222 0.61767 0.57159 0.0
C2573 C 0.5043 0.63407 0.55599 0.0
C2574 C 0.55525 0.62581 0.60238 0.0
C2575 C 0.4834 0.60254 0.56986 0.0
H2576 H 0.54024 0.5582 0.63003 0.0
H2577 H 0.49356 0.59916 0.65756 0.0
H2578 H 0.53275 0.55933 0.58454 0.0
H2579 H 0.54316 0.58498 0.57682 0.0
H2580 H 0.55758 0.56838 0.59576 0.0
H2581 H 0.47596 0.62627 0.63605 0.0
H2582 H 0.48179 0.62971 0.60774 0.0
H2583 H 0.46756 0.60665 0.61706 0.0
H2584 H 0.55198 0.65527 0.57134 0.0
H2585 H 0.49207 0.63605 0.54376 0.0
H2586 H 0.56516 0.61222 0.59669 0.0
H2587 H 0.54996 0.62208 0.61894 0.0
H2588 H 0.56584 0.64014 0.60284 0.0
H2589 H 0.48544 0.58783 0.5797 0.0
H2590 H 0.48094 0.59777 0.55288 0.0
H2591 H 0.46861 0.61095 0.57502 0.0
C2592 C 0.72396 0.29468 0.87376 0.0
C2593 C 0.71658 0.28338 0.89184 0.0
C2594 C 0.71424 0.29194 0.85342 0.0
C2595 C 0.6967 0.27763 0.85107 0.0
C2596 C 0.69104 0.26467 0.86889 0.0
C2597 C 0.70057 0.26806 0.88905 0.0
C2598 C 0.7235 0.30343 0.83427 0.0
C2599 C 0.67647 0.24579 0.86665 0.0
C2600 C 0.6533 0.29533 0.81157 0.0
C2601 C 0.65203 0.27821 0.79718 0.0
C2602 C 0.66778 0.29531 0.82886 0.0
C2603 C 0.68263 0.27825 0.8313 0.0
C2604 C 0.68268 0.26165 0.81561 0.0
C2605 C 0.6671 0.26162 0.799 0.0
C2606 C 0.66646 0.31335 0.84495 0.0
C2607 C 0.69856 0.24345 0.81642 0.0
H2608 H 0.73765 0.30528 0.87539 0.0
H2609 H 0.6963 0.25784 0.9025 0.0
H2610 H 0.72158 0.29383 0.81941 0.0
H2611 H 0.71515 0.31893 0.8319 0.0
H2612 H 0.74079 0.3068 0.83668 0.0
H2613 H 0.66955 0.2417 0.8825 0.0
H2614 H 0.66371 0.24859 0.85463 0.0
H2615 H 0.68601 0.23177 0.86138 0.0
H2616 H 0.64256 0.30872 0.80959 0.0
H2617 H 0.66644 0.24838 0.78777 0.0
H2618 H 0.6804 0.32419 0.84303 0.0
H2619 H 0.66677 0.30698 0.86159 0.0
H2620 H 0.6517 0.3231 0.84285 0.0
H2621 H 0.70437 0.23973 0.80002 0.0
H2622 H 0.69039 0.22883 0.8225 0.0
H2623 H 0.71259 0.24698 0.82681 0.0
C2624 C 0.03239 0.40741 0.07004 0.0
C2625 C 1.01399 0.39536 0.06546 0.0
C2626 C 0.03326 0.42047 0.08856 0.0
C2627 C 1.01574 0.42048 0.10316 0.0
C2628 C 0.99699 0.40875 0.09803 0.0
C2629 C 0.99619 0.39693 0.07906 0.0
C2630 C 0.05312 0.43363 0.0927 0.0
C2631 C 0.97797 0.40782 0.113 0.0
C2632 C 0.0239 0.43597 0.16194 0.0
C2633 C 1.01084 0.45416 0.16341 0.0
C2634 C 0.02599 0.42483 0.14241 0.0
C2635 C 1.01617 0.4331 0.12356 0.0
C2636 C 1.00416 0.45227 0.12491 0.0
C2637 C 1.0007 0.46184 0.14495 0.0
C2638 C 0.03888 0.40444 0.14215 0.0
C2639 C 0.99522 0.46317 0.10527 0.0
H2640 H 0.04631 0.40596 0.05977 0.0
H2641 H 0.98198 0.38748 0.07561 0.0
H2642 H 0.04915 0.44906 0.10058 0.0
H2643 H 0.06403 0.42454 0.10343 0.0
H2644 H 0.06189 0.43705 0.07758 0.0
H2645 H 0.98335 0.40448 0.12966 0.0
H2646 H 0.96961 0.4235 0.11295 0.0
H2647 H 0.96619 0.39531 0.10824 0.0
H2648 H 0.0324 0.4304 0.17608 0.0
H2649 H 0.99098 0.47606 0.146 0.0
H2650 H 0.05556 0.40818 0.13724 0.0
H2651 H 0.03211 0.39277 0.13061 0.0
H2652 H 0.03952 0.39683 0.15827 0.0
H2653 H 1.00222 0.45727 0.09007 0.0
H2654 H 0.99858 0.48058 0.10628 0.0
H2655 H 0.97761 0.4608 0.10477 0.0
C2656 C 0.88955 0.79781 0.31835 0.0
C2657 C 0.89065 0.77931 0.30564 0.0
C2658 C 0.87501 0.79921 0.33563 0.0
C2659 C 0.86264 0.78104 0.34154 0.0
C2660 C 0.86188 0.76337 0.32722 0.0
C2661 C 0.87577 0.76282 0.30938 0.0
C2662 C 0.87248 0.82021 0.34721 0.0
C2663 C 0.84677 0.74478 0.33092 0.0
C2664 C 0.84935 0.77116 0.40122 0.0
C2665 C 0.82773 0.77675 0.40208 0.0
C2666 C 0.86117 0.77342 0.38204 0.0
C2667 C 0.85085 0.78029 0.36267 0.0
C2668 C 0.82899 0.78623 0.36364 0.0
C2669 C 0.8179 0.7846 0.38318 0.0
C2670 C 0.8849 0.76947 0.38363 0.0
C2671 C 0.81734 0.79558 0.3445 0.0
H2672 H 0.90069 0.81082 0.31533 0.0
H2673 H 0.87636 0.74855 0.29957 0.0
H2674 H 0.85673 0.82727 0.34291 0.0
H2675 H 0.87248 0.8178 0.36484 0.0
H2676 H 0.88507 0.83196 0.34261 0.0
H2677 H 0.85048 0.73091 0.32041 0.0
H2678 H 0.84732 0.73942 0.34787 0.0
H2679 H 0.83009 0.75 0.32753 0.0
H2680 H 0.85733 0.76583 0.41576 0.0
H2681 H 0.80123 0.7895 0.38352 0.0
H2682 H 0.8934 0.77179 0.36831 0.0
H2683 H 0.88784 0.75302 0.38983 0.0
H2684 H 0.89188 0.78051 0.39571 0.0
H2685 H 0.82043 0.81311 0.34389 0.0
H2686 H 0.79972 0.79326 0.3458 0.0
H2687 H 0.82282 0.7886 0.32914 0.0
C2688 C 0.65056 0.51679 0.60371 0.0
C2689 C 0.6509 0.52509 0.58292 0.0
C2690 C 0.63106 0.51366 0.61469 0.0
C2691 C 0.61127 0.51971 0.60517 0.0
C2692 C 0.61149 0.52738 0.58377 0.0
C2693 C 0.63118 0.52946 0.57283 0.0
C2694 C 0.63215 0.50465 0.63691 0.0
C2695 C 0.59108 0.53379 0.57245 0.0
C2696 C 0.55937 0.50446 0.63561 0.0
C2697 C 0.55669 0.52255 0.64867 0.0
C2698 C 0.57668 0.50336 0.62079 0.0
C2699 C 0.59123 0.52092 0.61866 0.0
C2700 C 0.58792 0.53936 0.63131 0.0
C2701 C 0.57141 0.53957 0.64647 0.0
C2702 C 0.58029 0.48292 0.60849 0.0
C2703 C 0.6024 0.55873 0.62948 0.0
H2704 H 0.66555 0.51221 0.61126 0.0
H2705 H 0.63102 0.53391 0.55609 0.0
H2706 H 0.61686 0.49739 0.64234 0.0
H2707 H 0.64498 0.49233 0.63803 0.0
H2708 H 0.63639 0.51809 0.64765 0.0
H2709 H 0.59312 0.53418 0.55476 0.0
H2710 H 0.57772 0.52272 0.57647 0.0
H2711 H 0.58647 0.5501 0.57774 0.0
H2712 H 0.54887 0.49078 0.63786 0.0
H2713 H 0.56988 0.55344 0.65683 0.0
H2714 H 0.5949 0.47485 0.61476 0.0
H2715 H 0.58311 0.48646 0.59128 0.0
H2716 H 0.56654 0.47167 0.60995 0.0
H2717 H 0.61891 0.5544 0.63456 0.0
H2718 H 0.59684 0.57234 0.6395 0.0
H2719 H 0.60322 0.56417 0.61255 0.0
C2720 C 0.95782 0.41092 1.01318 0.0
C2721 C 0.9559 0.39494 0.02911 0.0
C2722 C 0.94518 0.42955 1.01335 0.0
C2723 C 0.92997 0.4326 0.02982 0.0
C2724 C 0.92819 0.41681 0.04625 0.0
C2725 C 0.94107 0.39815 0.04565 0.0
C2726 C 0.94799 0.44594 0.99569 0.0
C2727 C 0.91204 0.41879 0.06405 0.0
C2728 C 0.90351 0.48786 0.03654 0.0
C2729 C 0.88462 0.48535 0.02449 0.0
C2730 C 0.91858 0.47098 0.03834 0.0
C2731 C 0.91448 0.45102 0.02818 0.0
C2732 C 0.89575 0.44876 1.01551 0.0
C2733 C 0.88145 0.46606 1.01337 0.0
C2734 C 0.93847 0.47419 0.05177 0.0
C2735 C 0.89044 0.42782 1.00459 0.0
H2736 H 0.96922 0.40889 1.00026 0.0
H2737 H 0.9395 0.38614 0.05815 0.0
H2738 H 0.93273 0.44811 0.98678 0.0
H2739 H 0.95235 0.4617 1.00272 0.0
H2740 H 0.96058 0.44125 0.9841 0.0
H2741 H 0.91859 0.41213 0.07926 0.0
H2742 H 0.90695 0.43559 0.06685 0.0
H2743 H 0.89772 0.40913 0.05974 0.0
H2744 H 0.90602 0.50259 0.04541 0.0
H2745 H 0.86709 0.46411 1.00375 0.0
H2746 H 0.95296 0.47051 0.04217 0.0
H2747 H 0.93826 0.46291 0.06558 0.0
H2748 H 0.9398 0.49083 0.05797 0.0
H2749 H 0.90009 0.42627 0.98976 0.0
H2750 H 0.87325 0.4269 1.00027 0.0
H2751 H 0.89416 0.4139 1.01508 0.0
C2752 C 0.57285 0.63191 0.52722 0.0
C2753 C 0.58316 0.65131 0.52223 0.0
C2754 C 0.58387 0.61227 0.5265 0.0
C2755 C 0.60578 0.61204 0.5206 0.0
C2756 C 0.61615 0.63163 0.51527 0.0
C2757 C 0.60468 0.65103 0.51611 0.0
C2758 C 0.57213 0.59187 0.53236 0.0
C2759 C 0.63953 0.63211 0.50906 0.0
C2760 C 0.64571 0.57192 0.542 0.0
C2761 C 0.64977 0.55904 0.52409 0.0
C2762 C 0.62992 0.58781 0.5416 0.0
C2763 C 0.61871 0.59196 0.52231 0.0
C2764 C 0.62213 0.57849 0.50428 0.0
C2765 C 0.63751 0.56189 0.50548 0.0
C2766 C 0.62617 0.60101 0.56153 0.0
C2767 C 0.61042 0.58238 0.48345 0.0
H2768 H 0.55602 0.63203 0.53132 0.0
H2769 H 0.61255 0.66599 0.51203 0.0
H2770 H 0.57441 0.57957 0.51976 0.0
H2771 H 0.57879 0.58521 0.54748 0.0
H2772 H 0.55465 0.59457 0.53458 0.0
H2773 H 0.64491 0.64839 0.50419 0.0
H2774 H 0.64953 0.62673 0.52279 0.0
H2775 H 0.64245 0.62084 0.49565 0.0
H2776 H 0.65519 0.56972 0.55643 0.0
H2777 H 0.64076 0.55201 0.49159 0.0
H2778 H 0.60877 0.60221 0.56498 0.0
H2779 H 0.6323 0.61753 0.55896 0.0
H2780 H 0.63432 0.59408 0.57582 0.0
H2781 H 0.59289 0.5834 0.48629 0.0
H2782 H 0.61354 0.56956 0.47153 0.0
H2783 H 0.61557 0.59797 0.47653 0.0
C2784 C 0.0419 0.08748 0.34457 0.0
C2785 C 0.04864 0.07017 0.33129 0.0
C2786 C 0.04685 0.10997 0.34043 0.0
C2787 C 0.06021 0.11681 0.32285 0.0
C2788 C 0.06713 0.09933 0.30951 0.0
C2789 C 0.06056 0.0773 0.31332 0.0
C2790 C 0.0371 0.12643 0.35508 0.0
C2791 C 0.08183 0.10333 0.29078 0.0
C2792 C 0.06351 0.17432 0.29384 0.0
C2793 C 0.07706 0.1876 0.30659 0.0
C2794 C 0.05757 0.15251 0.29918 0.0
C2795 C 0.06585 0.14157 0.31774 0.0
C2796 C 0.07987 0.15478 0.3307 0.0
C2797 C 0.08483 0.17708 0.32535 0.0
C2798 C 0.04216 0.14129 0.28428 0.0
C2799 C 0.09041 0.14551 0.3504 0.0
H2800 H 0.03245 0.08353 0.35852 0.0
H2801 H 0.06471 0.06545 0.30173 0.0
H2802 H 0.04822 0.12943 0.36865 0.0
H2803 H 0.03411 0.14185 0.34666 0.0
H2804 H 0.0217 0.12058 0.36189 0.0
H2805 H 0.09517 0.09158 0.29101 0.0
H2806 H 0.07284 0.10074 0.27563 0.0
H2807 H 0.08893 0.11964 0.29067 0.0
H2808 H 0.05711 0.18113 0.27921 0.0
H2809 H 0.09557 0.18602 0.33569 0.0
H2810 H 0.03255 0.12886 0.29266 0.0
H2811 H 0.05135 0.13353 0.27123 0.0
H2812 H 0.03099 0.15293 0.27666 0.0
H2813 H 0.08116 0.15042 0.36474 0.0
H2814 H 0.10692 0.15197 0.35231 0.0
H2815 H 0.09124 0.12774 0.34999 0.0
C2816 C 0.20474 0.77656 0.59124 0.0
C2817 C 0.22246 0.78211 0.57794 0.0
C2818 C 0.18271 0.78284 0.58679 0.0
C2819 C 0.17677 0.79496 0.56805 0.0
C2820 C 0.19451 0.80006 0.55427 0.0
C2821 C 0.21649 0.79415 0.55944 0.0
C2822 C 0.1655 0.77618 0.60235 0.0
C2823 C 0.19027 0.81154 0.5334 0.0
C2824 C 0.1178 0.79639 0.54221 0.0
C2825 C 0.10744 0.81495 0.55041 0.0
C2826 C 0.13913 0.78948 0.54833 0.0
C2827 C 0.15245 0.80165 0.56263 0.0
C2828 C 0.14204 0.82042 0.5712 0.0
C2829 C 0.12028 0.82662 0.56524 0.0
C2830 C 0.1473 0.76871 0.53917 0.0
C2831 C 0.15412 0.83505 0.5861 0.0
H2832 H 0.20811 0.76738 0.60563 0.0
H2833 H 0.22915 0.79873 0.54848 0.0
H2834 H 0.15795 0.79065 0.60938 0.0
H2835 H 0.15274 0.76717 0.59378 0.0
H2836 H 0.17187 0.76602 0.61557 0.0
H2837 H 0.20526 0.81757 0.52591 0.0
H2838 H 0.18255 0.80033 0.52199 0.0
H2839 H 0.1791 0.82517 0.53585 0.0
H2840 H 0.10903 0.78684 0.53072 0.0
H2841 H 0.11368 0.84132 0.5717 0.0
H2842 H 0.15678 0.75965 0.55126 0.0
H2843 H 0.15786 0.77217 0.52533 0.0
H2844 H 0.13395 0.75835 0.53345 0.0
H2845 H 0.14315 0.84244 0.59798 0.0
H2846 H 0.16119 0.84813 0.5764 0.0
H2847 H 0.16731 0.8268 0.59475 0.0
C2848 C 0.46516 0.86993 0.81756 0.0
C2849 C 0.4754 0.85729 0.80153 0.0
C2850 C 0.47098 0.89223 0.82224 0.0
C2851 C 0.48771 0.90363 0.81092 0.0
C2852 C 0.49838 0.89064 0.79527 0.0
C2853 C 0.49218 0.86861 0.79088 0.0
C2854 C 0.45852 0.9039 0.83917 0.0
C2855 C 0.51673 0.90001 0.78267 0.0
C2856 C 0.49143 0.9683 0.80531 0.0
C2857 C 0.50606 0.97544 0.8214 0.0
C2858 C 0.48566 0.94587 0.80185 0.0
C2859 C 0.4938 0.92859 0.81491 0.0
C2860 C 0.50867 0.93568 0.83112 0.0
C2861 C 0.51433 0.9582 0.8341 0.0
C2862 C 0.47135 0.94059 0.78317 0.0
C2863 C 0.51916 0.91927 0.84546 0.0
H2864 H 0.45196 0.86265 0.8262 0.0
H2865 H 0.50101 0.85998 0.77881 0.0
H2866 H 0.46936 0.91328 0.84971 0.0
H2867 H 0.4475 0.91543 0.83126 0.0
H2868 H 0.44902 0.89269 0.84924 0.0
H2869 H 0.5269 0.88732 0.7755 0.0
H2870 H 0.51023 0.91003 0.76946 0.0
H2871 H 0.52696 0.91037 0.79293 0.0
H2872 H 0.48455 0.98038 0.79484 0.0
H2873 H 0.52549 0.96229 0.84677 0.0
H2874 H 0.46038 0.92716 0.78714 0.0
H2875 H 0.48141 0.9354 0.76951 0.0
H2876 H 0.46193 0.9547 0.77779 0.0
H2877 H 0.50732 0.91335 0.85734 0.0
H2878 H 0.53309 0.92603 0.8543 0.0
H2879 H 0.52465 0.90527 0.83598 0.0
C2880 C 0.42572 0.25877 0.03897 0.0
C2881 C 0.43501 0.23824 0.04285 0.0
C2882 C 0.40462 0.26545 0.04644 0.0
C2883 C 0.38996 0.25117 0.05743 0.0
C2884 C 0.39963 0.23036 0.0616 0.0
C2885 C 0.42121 0.2245 0.05467 0.0
C2886 C 0.39893 0.28866 0.04294 0.0
C2887 C 0.38768 0.21327 0.07354 0.0
C2888 C 0.33545 0.26348 0.09148 0.0
C2889 C 0.3192 0.26916 0.07632 0.0
C2890 C 0.35764 0.25833 0.08601 0.0
C2891 C 0.36549 0.25787 0.06416 0.0
C2892 C 0.3492 0.26451 0.04888 0.0
C2893 C 0.32736 0.27047 0.05504 0.0
C2894 C 0.3726 0.25381 0.10449 0.0
C2895 C 0.35434 0.26539 0.02531 0.0
H2896 H 0.43534 0.27028 0.03023 0.0
H2897 H 0.42701 0.20848 0.05815 0.0
H2898 H 0.38476 0.29383 0.05228 0.0
H2899 H 0.41273 0.29901 0.04749 0.0
H2900 H 0.39597 0.29145 0.0256 0.0
H2901 H 0.39651 0.20939 0.08853 0.0
H2902 H 0.37122 0.21805 0.07774 0.0
H2903 H 0.38724 0.19839 0.0638 0.0
H2904 H 0.33081 0.26297 0.10821 0.0
H2905 H 0.3163 0.27571 0.04267 0.0
H2906 H 0.38975 0.25458 0.09988 0.0
H2907 H 0.36905 0.23765 0.11111 0.0
H2908 H 0.36981 0.26547 0.11762 0.0
H2909 H 0.35873 0.28208 1.02094 0.0
H2910 H 0.3401 0.26115 1.01547 0.0
H2911 H 0.36769 0.25452 1.02093 0.0
C2912 C 0.34115 0.04415 0.08311 0.0
C2913 C 0.32779 0.05174 0.06613 0.0
C2914 C 0.3381 0.04951 0.10557 0.0
C2915 C 0.32095 0.06306 0.11276 0.0
C2916 C 0.30747 0.07088 0.09571 0.0
C2917 C 0.31107 0.0655 0.07329 0.0
C2918 C 0.35338 0.04013 0.12181 0.0
C2919 C 0.28854 0.08474 0.10125 0.0
C2920 C 0.2989 0.05973 0.17299 0.0
C2921 C 0.30704 0.07799 0.18403 0.0
C2922 C 0.30323 0.05486 0.15074 0.0
C2923 C 0.3166 0.06819 0.13764 0.0
C2924 C 0.32548 0.08637 0.14888 0.0
C2925 C 0.32069 0.09099 0.17124 0.0
C2926 C 0.29313 0.03513 0.14114 0.0
C2927 C 0.33985 0.1016 0.13708 0.0
H2928 H 0.35446 0.03393 0.07884 0.0
H2929 H 0.30026 0.07192 0.06127 0.0
H2930 H 0.35885 0.05265 0.13321 0.0
H2931 H 0.34497 0.02758 0.13125 0.0
H2932 H 0.36763 0.03276 0.11415 0.0
H2933 H 0.28051 0.09133 0.08676 0.0
H2934 H 0.27669 0.07512 0.11041 0.0
H2935 H 0.29366 0.0982 0.1117 0.0
H2936 H 0.28903 0.04873 0.18198 0.0
H2937 H 0.32728 0.10533 0.17851 0.0
H2938 H 0.3058 0.02427 0.13506 0.0
H2939 H 0.28293 0.03973 0.12728 0.0
H2940 H 0.28312 0.02621 0.15288 0.0
H2941 H 0.34811 0.113 0.14801 0.0
H2942 H 0.32998 0.11093 0.12555 0.0
H2943 H 0.35211 0.09251 0.12801 0.0
C2944 C 0.25515 0.09295 0.33387 0.0
C2945 C 0.26142 0.07782 0.31799 0.0
C2946 C 0.25065 0.08745 0.3562 0.0
C2947 C 0.25117 0.06567 0.36424 0.0
C2948 C 0.25815 0.05047 0.34829 0.0
C2949 C 0.26367 0.0567 0.32643 0.0
C2950 C 0.2461 0.10577 0.37119 0.0
C2951 C 0.25963 0.02704 0.3541 0.0
C2952 C 0.25356 0.04221 0.42493 0.0
C2953 C 0.23275 0.04476 0.43384 0.0
C2954 C 0.25986 0.0496 0.40374 0.0
C2955 C 0.24486 0.05885 0.38861 0.0
C2956 C 0.22358 0.06137 0.39758 0.0
C2957 C 0.21813 0.05491 0.41946 0.0
C2958 C 0.28343 0.04812 0.39868 0.0
C2959 C 0.20584 0.07093 0.38418 0.0
H2960 H 0.25413 0.10961 0.32901 0.0
H2961 H 0.26961 0.04457 0.31558 0.0
H2962 H 0.22961 0.11177 0.36819 0.0
H2963 H 0.24766 0.1012 0.38833 0.0
H2964 H 0.25726 0.11929 0.36794 0.0
H2965 H 0.26298 1.01681 0.34004 0.0
H2966 H 0.27308 0.0243 0.36527 0.0
H2967 H 0.24464 1.02163 0.36203 0.0
H2968 H 0.26561 0.03472 0.43498 0.0
H2969 H 0.20185 0.05725 0.42501 0.0
H2970 H 0.28783 0.05586 0.38329 0.0
H2971 H 0.28835 0.031 0.39853 0.0
H2972 H 0.29283 0.05585 0.41169 0.0
H2973 H 0.20426 0.08819 0.38821 0.0
H2974 H 0.19024 0.06316 0.38791 0.0
H2975 H 0.20884 0.06945 0.36673 0.0
C2976 C 0.21884 1.00261 0.58463 0.0
C2977 C 0.23045 0.99385 0.56703 0.0
C2978 C 0.223 0.99737 0.60702 0.0
C2979 C 0.23917 0.98224 0.61352 0.0
C2980 C 0.25071 0.97304 0.59582 0.0
C2981 C 0.24634 0.97874 0.57356 0.0
C2982 C 0.21014 1.00867 0.62398 0.0
C2983 C 0.26843 0.95727 0.6003 0.0
C2984 C 0.26635 0.98165 0.67208 0.0
C2985 C 0.25503 0.96618 0.68455 0.0
C2986 C 0.26113 0.98721 0.65007 0.0
C2987 C 0.24436 0.97671 0.63827 0.0
C2988 C 0.23299 0.96074 0.65061 0.0
C2989 C 0.23806 0.95605 0.67303 0.0
C2990 C 0.27384 1.00477 0.63939 0.0
C2991 C 0.21551 0.94798 0.63988 0.0
H2992 H 0.2061 1.01376 0.58093 0.0
H2993 H 0.2558 0.9713 0.56109 0.0
H2994 H 0.20135 0.99677 0.63386 0.0
H2995 H 0.22111 1.01753 0.63487 0.0
H2996 H 0.1984 1.02015 0.61703 0.0
H2997 H 0.27231 0.94755 0.58593 0.0
H2998 H 0.28311 0.96614 0.60503 0.0
H2999 H 0.26414 0.94639 0.61375 0.0
H3000 H 0.2796 0.98985 0.67973 0.0
H3001 H 0.22903 0.94372 0.68132 0.0
H3002 H 0.26281 1.01694 0.63247 0.0
H3003 H 0.2833 0.998 0.626 0.0
H3004 H 0.28502 1.01287 0.65068 0.0
H3005 H 0.20189 0.95866 0.63579 0.0
H3006 H 0.20951 0.93474 0.65021 0.0
H3007 H 0.2215 0.94115 0.62462 0.0
C3008 C 0.30545 1.01186 0.92164 0.0
C3009 C 0.32124 1.00141 0.93447 0.0
C3010 C 0.29975 1.00565 0.90005 0.0
C3011 C 0.30992 0.98811 0.88928 0.0
C3012 C 0.32605 0.97739 0.90203 0.0
C3013 C 0.33125 0.98384 0.92393 0.0
C3014 C 0.28217 1.01826 0.88919 0.0
C3015 C 0.33847 0.95922 0.89219 0.0
C3016 C 0.28352 0.95995 0.83753 0.0
C3017 C 0.29284 0.97025 0.81938 0.0
C3018 C 0.28877 0.96531 0.8596 0.0
C3019 C 0.3042 0.98157 0.86505 0.0
C3020 C 0.31319 0.9924 0.84681 0.0
C3021 C 0.30786 0.98657 0.8249 0.0
C3022 C 0.27709 0.95381 0.87733 0.0
C3023 C 0.3279 1.01121 0.8505 0.0
H3024 H 0.29715 0.02539 0.9286 0.0
H3025 H 0.3438 0.97542 0.93253 0.0
H3026 H 0.28195 1.01636 0.87153 0.0
H3027 H 0.26647 1.01275 0.89553 0.0
H3028 H 0.2837 0.0356 0.893 0.0
H3029 H 0.35114 0.95298 0.9031 0.0
H3030 H 0.3274 0.94591 0.88807 0.0
H3031 H 0.34606 0.9647 0.87705 0.0
H3032 H 0.27193 0.94736 0.83454 0.0
H3033 H 0.31539 0.99528 0.81189 0.0
H3034 H 0.26964 0.96567 0.88828 0.0
H3035 H 0.28863 0.94423 0.88694 0.0
H3036 H 0.26438 0.94295 0.87114 0.0
H3037 H 0.31859 0.02469 0.85737 0.0
H3038 H 0.3355 1.01691 0.83544 0.0
H3039 H 0.34052 1.00698 0.86237 0.0
C3040 C 0.07783 0.31503 0.05867 0.0
C3041 C 0.06956 0.33428 0.04964 0.0
C3042 C 0.10007 0.31165 0.06499 0.0
C3043 C 0.11662 0.32729 0.06117 0.0
C3044 C 0.10869 0.3465 0.05095 0.0
C3045 C 0.08605 0.34973 0.04569 0.0
C3046 C 0.10531 0.29079 0.07605 0.0
C3047 C 0.12445 0.36385 0.04516 0.0
C3048 C 0.17451 0.32475 0.09125 0.0
C3049 C 0.18822 0.31311 0.07734 0.0
C3050 C 0.15222 0.32986 0.08619 0.0
C3051 C 0.1417 0.32323 0.06664 0.0
C3052 C 0.15566 0.3118 0.05247 0.0
C3053 C 0.17793 0.30731 0.0577 0.0
C3054 C 0.13969 0.34122 0.10305 0.0
C3055 C 0.14683 0.30366 0.03152 0.0
H3056 H 0.06682 0.30195 0.06026 0.0
H3057 H 0.08129 0.36469 0.03824 0.0
H3058 H 0.12268 0.28841 0.07901 0.0
H3059 H 0.09691 0.2903 0.09172 0.0
H3060 H 0.09919 0.27717 0.06636 0.0
H3061 H 0.11665 0.37762 0.03691 0.0
H3062 H 0.13258 0.36972 0.05987 0.0
H3063 H 0.13702 0.35719 0.0345 0.0
H3064 H 0.18097 0.32949 0.10668 0.0
H3065 H 0.18749 0.29905 0.04594 0.0
H3066 H 0.13461 0.32889 0.11483 0.0
H3067 H 0.12534 0.34948 0.09651 0.0
H3068 H 0.14987 0.3531 0.11162 0.0
H3069 H 0.13479 0.29094 0.03478 0.0
H3070 H 0.15953 0.29693 1.02107 0.0
H3071 H 0.13854 0.3168 0.02278 0.0
C3072 C 0.58477 0.23132 1.00906 0.0
C3073 C 0.56777 0.23138 0.99367 0.0
C3074 C 0.60734 0.23472 1.00401 0.0
C3075 C 0.61479 0.23841 0.98255 0.0
C3076 C 0.59781 0.23839 0.96695 0.0
C3077 C 0.57529 0.23515 0.97243 0.0
C3078 C 0.62341 0.23457 1.02206 0.0
C3079 C 0.60306 0.24147 0.94377 0.0
C3080 C 0.66945 0.26987 0.96933 0.0
C3081 C 0.68546 0.25421 0.96461 0.0
C3082 C 0.64749 0.26501 0.97518 0.0
C3083 C 0.63951 0.24351 0.9767 0.0
C3084 C 0.65533 0.22743 0.97152 0.0
C3085 C 0.67751 0.23277 0.96587 0.0
C3086 C 0.63246 0.28339 0.97947 0.0
C3087 C 0.6487 0.20422 0.97164 0.0
H3088 H 0.58042 0.22924 0.02557 0.0
H3089 H 0.5635 0.23528 0.95964 0.0
H3090 H 0.63518 0.2215 1.01949 0.0
H3091 H 0.63246 0.24992 1.0222 0.0
H3092 H 0.61573 0.23223 0.03794 0.0
H3093 H 0.59436 0.25579 0.9378 0.0
H3094 H 0.62036 0.2436 0.94037 0.0
H3095 H 0.59742 0.22709 0.93503 0.0
H3096 H 0.67403 0.28658 0.96833 0.0
H3097 H 0.6886 0.21992 0.96232 0.0
H3098 H 0.62491 0.28137 0.99544 0.0
H3099 H 0.61941 0.28335 0.96732 0.0
H3100 H 0.64071 0.29918 0.97893 0.0
H3101 H 0.64448 0.19929 0.98821 0.0
H3102 H 0.66158 0.19353 0.96565 0.0
H3103 H 0.63416 0.20202 0.96155 0.0
C3104 C 0.05371 0.32653 0.25318 0.0
C3105 C 0.07322 0.32116 0.26382 0.0
C3106 C 0.04739 0.34833 0.24753 0.0
C3107 C 0.06087 0.36673 0.25147 0.0
C3108 C 0.08054 0.36138 0.26246 0.0
C3109 C 0.08622 0.33945 0.26836 0.0
C3110 C 0.02535 0.35152 0.23813 0.0
C3111 C 0.09587 0.37903 0.26857 0.0
C3112 C 0.0571 0.42494 0.22203 0.0
C3113 C 0.04039 0.43626 0.23269 0.0
C3114 C 0.06359 0.40304 0.22754 0.0
C3115 C 0.05412 0.39101 0.24503 0.0
C3116 C 0.03771 0.40278 0.25612 0.0
C3117 C 0.03105 0.42415 0.24969 0.0
C3118 C 0.08067 0.39289 0.21387 0.0
C3119 C 0.0266 0.39323 0.27534 0.0
H3120 H 0.0428 0.3135 0.24955 0.0
H3121 H 0.10131 0.33665 0.27654 0.0
H3122 H 1.01409 0.35553 0.25123 0.0
H3123 H 0.02507 0.36487 0.22633 0.0
H3124 H 1.0192 0.33669 0.23048 0.0
H3125 H 0.10676 0.374 0.28178 0.0
H3126 H 0.10586 0.38321 0.25448 0.0
H3127 H 0.08712 0.39367 0.2736 0.0
H3128 H 0.06481 0.43289 0.20864 0.0
H3129 H 1.01822 0.43162 0.25858 0.0
H3130 H 0.08058 0.37512 0.21488 0.0
H3131 H 0.09661 0.39884 0.21915 0.0
H3132 H 0.07861 0.39766 0.19682 0.0
H3133 H 1.01002 0.3886 0.27074 0.0
H3134 H 0.02515 0.40546 0.28819 0.0
H3135 H 0.03499 0.37903 0.28201 0.0
C3136 C 0.95621 0.83327 0.51491 0.0
C3137 C 0.97357 0.82161 0.50561 0.0
C3138 C 0.9337 0.83065 0.50884 0.0
C3139 C 0.92665 0.81566 0.49275 0.0
C3140 C 0.94406 0.80375 0.48343 0.0
C3141 C 0.96651 0.80699 0.48947 0.0
C3142 C 0.91718 0.84412 0.52008 0.0
C3143 C 0.93887 0.78682 0.46712 0.0
C3144 C 0.86602 0.79285 0.4926 0.0
C3145 C 0.85466 0.80288 0.47536 0.0
C3146 C 0.88834 0.79674 0.49816 0.0
C3147 C 0.9016 0.81164 0.48669 0.0
C3148 C 0.89027 0.82233 0.46943 0.0
C3149 C 0.86773 0.81796 0.46407 0.0
C3150 C 0.89794 0.78403 0.51638 0.0
C3151 C 0.90225 0.83846 0.45613 0.0
H3152 H 0.9602 0.84489 0.52715 0.0
H3153 H 0.9787 0.79755 0.48153 0.0
H3154 H 0.90708 0.85262 0.5081 0.0
H3155 H 0.90642 0.8336 0.5296 0.0
H3156 H 0.92457 0.8561 0.531 0.0
H3157 H 0.95348 0.7788 0.46098 0.0
H3158 H 0.92829 0.7745 0.47443 0.0
H3159 H 0.92987 0.79406 0.45356 0.0
H3160 H 0.85719 0.78167 0.50234 0.0
H3161 H 0.86054 0.82613 0.4505 0.0
H3162 H 0.90818 0.7943 0.52668 0.0
H3163 H 0.90825 0.77118 0.5097 0.0
H3164 H 0.88544 0.77645 0.52654 0.0
H3165 H 0.90972 0.85066 0.46671 0.0
H3166 H 0.89174 0.84663 0.44426 0.0
H3167 H 0.91536 0.83025 0.44743 0.0
C3168 C 0.46446 0.73454 0.55766 0.0
C3169 C 0.47069 0.71856 0.54268 0.0
C3170 C 0.44248 0.73791 0.56467 0.0
C3171 C 0.42473 0.72581 0.55626 0.0
C3172 C 0.43084 0.70997 0.54073 0.0
C3173 C 0.45305 0.70642 0.53461 0.0
C3174 C 0.43837 0.75438 0.58178 0.0
C3175 C 0.41366 0.69666 0.53016 0.0
C3176 C 0.36669 0.72337 0.58504 0.0
C3177 C 0.35445 0.74009 0.57533 0.0
C3178 C 0.38891 0.7187 0.57935 0.0
C3179 C 0.40024 0.73035 0.56286 0.0
C3180 C 0.38772 0.74688 0.55286 0.0
C3181 C 0.36596 0.75164 0.55932 0.0
C3182 C 0.40062 0.7015 0.59168 0.0
C3183 C 0.39747 0.76004 0.53507 0.0
H3184 H 0.477 0.74457 0.56428 0.0
H3185 H 0.45658 0.69377 0.52333 0.0
H3186 H 0.42573 0.76575 0.57655 0.0
H3187 H 0.43241 0.74618 0.59643 0.0
H3188 H 0.45303 0.76362 0.58593 0.0
H3189 H 0.42023 0.68583 0.51769 0.0
H3190 H 0.40529 0.68681 0.54237 0.0
H3191 H 0.40151 0.70732 0.52266 0.0
H3192 H 0.35921 0.71436 0.59788 0.0
H3193 H 0.35777 0.76486 0.55157 0.0
H3194 H 0.41539 0.70829 0.59901 0.0
H3195 H 0.4057 0.68857 0.58064 0.0
H3196 H 0.39058 0.69435 0.60455 0.0
H3197 H 0.41065 0.77008 0.54157 0.0
H3198 H 0.38554 0.77074 0.52723 0.0
H3199 H 0.40451 0.74934 0.52276 0.0
C3200 C 0.97564 0.93269 0.31725 0.0
C3201 C 0.9961 0.93723 0.3264 0.0
C3202 C 0.96862 0.91121 0.31081 0.0
C3203 C 0.98158 0.89212 0.31389 0.0
C3204 C 1.00221 0.89692 0.32334 0.0
C3205 C 1.00884 0.91847 0.3291 0.0
C3206 C 0.94712 0.90968 0.29991 0.0
C3207 C 1.01809 0.87945 0.32826 0.0
C3208 C 0.95112 0.83428 0.31203 0.0
C3209 C 0.96237 0.82156 0.29683 0.0
C3210 C 0.95655 0.85648 0.31725 0.0
C3211 C 0.97412 0.86793 0.30729 0.0
C3212 C 0.9843 0.85557 0.29058 0.0
C3213 C 0.97866 0.83336 0.28596 0.0
C3214 C 0.94224 0.86776 0.33299 0.0
C3215 C 1.0011 0.86578 0.27652 0.0
H3216 H 0.96505 0.94617 0.31437 0.0
H3217 H 0.02464 0.92052 0.3361 0.0
H3218 H 0.9449 0.8944 0.2911 0.0
H3219 H 0.93432 0.91123 0.31214 0.0
H3220 H 0.94504 0.92318 0.28844 0.0
H3221 H 1.0179 0.87615 0.34575 0.0
H3222 H 1.01469 0.8645 0.31958 0.0
H3223 H 0.0346 0.8847 0.32408 0.0
H3224 H 0.93747 0.82695 0.31984 0.0
H3225 H 0.98735 0.82511 0.27342 0.0
H3226 H 0.92822 0.87435 0.32424 0.0
H3227 H 0.95053 0.88112 0.34125 0.0
H3228 H 0.93576 0.85644 0.34507 0.0
H3229 H 1.00021 0.88356 0.27659 0.0
H3230 H 0.99937 0.86014 0.25972 0.0
H3231 H 1.01726 0.8608 0.2821 0.0
C3232 C 0.57109 0.11268 0.8049 0.0
C3233 C 0.55203 0.10885 0.81671 0.0
C3234 C 0.57731 0.1338 0.79696 0.0
C3235 C 0.56494 0.15299 0.80119 0.0
C3236 C 0.54571 0.14891 0.81325 0.0
C3237 C 0.53976 0.12768 0.8204 0.0
C3238 C 0.59693 0.1347 0.78297 0.0
C3239 C 0.53031 0.16665 0.81885 0.0
C3240 C 0.59431 0.21027 0.79448 0.0
C3241 C 0.58096 0.22252 0.78059 0.0
C3242 C 0.58985 0.18824 0.80079 0.0
C3243 C 0.57141 0.17665 0.79301 0.0
C3244 C 0.55888 0.18852 0.77756 0.0
C3245 C 0.56349 0.21068 0.77198 0.0
C3246 C 0.60533 0.17746 0.81599 0.0
C3247 C 0.54038 0.17783 0.76621 0.0
H3248 H 0.58097 0.09894 0.80101 0.0
H3249 H 0.52485 0.12593 0.82915 0.0
H3250 H 0.59882 0.15025 0.77452 0.0
H3251 H 0.61136 0.13157 0.79296 0.0
H3252 H 0.59619 0.12174 0.7708 0.0
H3253 H 0.52671 0.16612 0.83628 0.0
H3254 H 0.5362 0.18288 0.81476 0.0
H3255 H 0.51491 0.1639 0.81031 0.0
H3256 H 0.60858 0.21804 0.80067 0.0
H3257 H 0.55317 0.2188 0.76056 0.0
H3258 H 0.61629 0.16704 0.80677 0.0
H3259 H 0.59674 0.16736 0.82789 0.0
H3260 H 0.61559 0.1892 0.82456 0.0
H3261 H 0.54212 0.16012 0.76572 0.0
H3262 H 0.5389 0.1839 0.74951 0.0
H3263 H 0.52526 0.18182 0.77461 0.0
C3264 C 0.55954 0.36624 0.75021 0.0
C3265 C 0.57455 0.35419 0.73803 0.0
C3266 C 0.55248 0.3877 0.74487 0.0
C3267 C 0.5611 0.39962 0.72705 0.0
C3268 C 0.57645 0.38753 0.71459 0.0
C3269 C 0.58249 0.3655 0.71985 0.0
C3270 C 0.53558 0.39744 0.75907 0.0
C3271 C 0.58723 0.39778 0.69555 0.0
C3272 C 0.53803 0.45397 0.69964 0.0
C3273 C 0.54263 0.47084 0.71436 0.0
C3274 C 0.54327 0.43148 0.70347 0.0
C3275 C 0.55469 0.42429 0.72235 0.0
C3276 C 0.55907 0.44135 0.73726 0.0
C3277 C 0.55213 0.46329 0.73358 0.0
C3278 C 0.53574 0.41554 0.68698 0.0
C3279 C 0.57192 0.43718 0.75736 0.0
H3280 H 0.55293 0.3587 0.7644 0.0
H3281 H 0.59429 0.35746 0.71001 0.0
H3282 H 0.52642 0.41033 0.75088 0.0
H3283 H 0.52411 0.38497 0.76464 0.0
H3284 H 0.54339 0.40419 0.77357 0.0
H3285 H 0.60384 0.39164 0.69364 0.0
H3286 H 0.57821 0.39347 0.68082 0.0
H3287 H 0.58786 0.41552 0.69683 0.0
H3288 H 0.53001 0.45825 0.68483 0.0
H3289 H 0.55454 0.47485 0.74602 0.0
H3290 H 0.53545 0.39884 0.69318 0.0
H3291 H 0.54652 0.41632 0.67287 0.0
H3292 H 0.51937 0.41975 0.6813 0.0
H3293 H 0.56198 0.44088 0.77161 0.0
H3294 H 0.58595 0.44807 0.75777 0.0
H3295 H 0.57817 0.42063 0.75869 0.0
C3296 C 0.9294 0.30532 0.99543 0.0
C3297 C 0.93718 0.32679 0.99443 0.0
C3298 C 0.90802 0.29876 0.98875 0.0
C3299 C 0.89207 0.31382 0.9815 0.0
C3300 C 0.89977 0.33565 0.98065 0.0
C3301 C 0.92161 0.34164 0.98669 0.0
C3302 C 0.90264 0.27519 0.98941 0.0
C3303 C 0.88459 0.35316 0.97387 0.0
C3304 C 0.83756 0.29921 0.94914 0.0
C3305 C 0.82179 0.29468 0.96504 0.0
C3306 C 0.85986 0.30454 0.95398 0.0
C3307 C 0.86779 0.30686 0.9756 0.0
C3308 C 0.85202 0.30177 0.99162 0.0
C3309 C 0.83026 0.29512 0.98625 0.0
C3310 C 0.87502 0.3073 0.93542 0.0
C3311 C 0.85763 0.30457 1.01495 0.0
H3312 H 0.9403 0.29322 1.0015 0.0
H3313 H 0.92622 0.35839 0.98605 0.0
H3314 H 0.89192 0.27173 1.00313 0.0
H3315 H 0.89406 0.27038 0.97455 0.0
H3316 H 0.91721 0.2651 0.99123 0.0
H3317 H 0.89142 0.36941 0.9765 0.0
H3318 H 0.88079 0.35144 0.95659 0.0
H3319 H 0.86935 0.35177 0.9829 0.0
H3320 H 0.83254 0.29842 0.93251 0.0
H3321 H 0.81952 0.29069 0.99909 0.0
H3322 H 0.89159 0.30239 0.93976 0.0
H3323 H 0.87533 0.3244 0.93051 0.0
H3324 H 0.8697 0.29774 0.92136 0.0
H3325 H 0.87427 0.29964 1.01863 0.0
H3326 H 0.84661 0.29542 0.02552 0.0
H3327 H 0.8565 0.32187 1.01893 0.0
C3328 C 0.97356 0.57625 0.24092 0.0
C3329 C 0.99011 0.56937 0.22686 0.0
C3330 C 0.96815 0.5987 0.24478 0.0
C3331 C 0.97944 0.61642 0.23487 0.0
C3332 C 0.99634 0.60944 0.22079 0.0
C3333 C 1.00076 0.5869 0.21666 0.0
C3334 C 0.94981 0.60315 0.25971 0.0
C3335 C 1.0106 0.62568 0.20992 0.0
C3336 C 0.96175 0.67935 0.22972 0.0
C3337 C 0.96396 0.68802 0.25068 0.0
C3338 C 0.96653 0.65703 0.22429 0.0
C3339 C 0.97422 0.64143 0.23991 0.0
C3340 C 0.97715 0.65061 0.26086 0.0
C3341 C 0.9715 0.67258 0.26578 0.0
C3342 C 0.96327 0.65098 0.20118 0.0
C3343 C 0.98748 0.63797 0.27875 0.0
H3344 H 0.96448 0.56389 0.24912 0.0
H3345 H 1.01289 0.58307 0.20503 0.0
H3346 H 0.95609 0.60676 0.27591 0.0
H3347 H 0.94017 0.61704 0.25409 0.0
H3348 H 0.93933 0.58891 0.26139 0.0
H3349 H 0.02735 0.61972 0.20914 0.0
H3350 H 1.00505 0.62807 0.19317 0.0
H3351 H 1.01068 0.6414 0.21822 0.0
H3352 H 0.95603 0.69001 0.2172 0.0
H3353 H 0.97337 0.67774 0.28211 0.0
H3354 H 0.96653 0.63392 0.19785 0.0
H3355 H 0.97399 0.66091 0.19098 0.0
H3356 H 0.94657 0.65478 0.19626 0.0
H3357 H 0.97564 0.63541 0.29177 0.0
H3358 H 1.00083 0.64745 0.28578 0.0
H3359 H 0.99404 0.62231 0.2736 0.0
C3360 C 0.6108 0.74593 0.49856 0.0
C3361 C 0.6025 0.72477 0.49624 0.0
C3362 C 0.63237 0.75241 0.49228 0.0
C3363 C 0.64818 0.73739 0.48447 0.0
C3364 C 0.63967 0.71587 0.48259 0.0
C3365 C 0.61766 0.71021 0.48776 0.0
C3366 C 0.63745 0.77597 0.49382 0.0
C3367 C 0.65366 0.69787 0.47536 0.0
C3368 C 0.70458 0.74855 0.45336 0.0
C3369 C 0.71998 0.75379 0.46953 0.0
C3370 C 0.68194 0.74393 0.45759 0.0
C3371 C 0.67292 0.74374 0.47895 0.0
C3372 C 0.68824 0.75009 0.4951 0.0
C3373 C 0.71049 0.75551 0.4902 0.0
C3374 C 0.66756 0.7408 0.43839 0.0
C3375 C 0.68114 0.75148 0.51811 0.0
H3376 H 0.60018 0.75792 0.50522 0.0
H3377 H 0.61252 0.69373 0.48579 0.0
H3378 H 0.65307 0.78032 0.48655 0.0
H3379 H 0.62465 0.78536 0.48571 0.0
H3380 H 0.63733 0.78085 0.51093 0.0
H3381 H 0.64917 0.68273 0.48362 0.0
H3382 H 0.65097 0.69536 0.45797 0.0
H3383 H 0.67079 0.70115 0.47856 0.0
H3384 H 0.71008 0.74847 0.43691 0.0
H3385 H 0.72067 0.76125 0.503 0.0
H3386 H 0.65183 0.73363 0.44245 0.0
H3387 H 0.67555 0.7307 0.42617 0.0
H3388 H 0.66462 0.75667 0.43084 0.0
H3389 H 0.67148 0.76618 0.52038 0.0
H3390 H 0.69486 0.75256 0.52934 0.0
H3391 H 0.67109 0.73743 0.5225 0.0
C3392 C 0.72588 0.53039 0.45472 0.0
C3393 C 0.71483 0.54305 0.47012 0.0
C3394 C 0.72847 0.53641 0.43228 0.0
C3395 C 0.71996 0.556 0.42342 0.0
C3396 C 0.70751 0.56811 0.43861 0.0
C3397 C 0.70558 0.56195 0.46111 0.0
C3398 C 0.73967 0.52088 0.41765 0.0
C3399 C 0.69465 0.58704 0.43088 0.0
C3400 C 0.74895 0.57845 0.37021 0.0
C3401 C 0.73387 0.57715 0.35306 0.0
C3402 C 0.74459 0.57235 0.39225 0.0
C3403 C 0.72433 0.56362 0.39897 0.0
C3404 C 0.70879 0.5624 0.38172 0.0
C3405 C 0.7135 0.56925 0.35976 0.0
C3406 C 0.7623 0.57556 0.40842 0.0
C3407 C 0.68675 0.55349 0.38593 0.0
H3408 H 0.73275 0.51541 0.46026 0.0
H3409 H 0.69605 0.57188 0.47166 0.0
H3410 H 0.73075 0.5193 0.4023 0.0
H3411 H 0.75594 0.52695 0.41389 0.0
H3412 H 0.74128 0.50473 0.42505 0.0
H3413 H 0.69012 0.5978 0.44422 0.0
H3414 H 0.7033 0.59628 0.41843 0.0
H3415 H 0.67954 0.5811 0.4236 0.0
H3416 H 0.76466 0.58475 0.36642 0.0
H3417 H 0.70114 0.56767 0.34763 0.0
H3418 H 0.77202 0.56074 0.40953 0.0
H3419 H 0.75589 0.57907 0.42458 0.0
H3420 H 0.77317 0.58884 0.40357 0.0
H3421 H 0.68153 0.54316 0.3724 0.0
H3422 H 0.6752 0.56699 0.38693 0.0
H3423 H 0.68592 0.54402 0.40099 0.0
C3424 C 0.70861 0.48507 0.61948 0.0
C3425 C 0.72242 0.49431 0.60382 0.0
C3426 C 0.71544 0.4791 0.64112 0.0
C3427 C 0.73706 0.48263 0.64905 0.0
C3428 C 0.75122 0.49077 0.63264 0.0
C3429 C 0.74386 0.49645 0.61126 0.0
C3430 C 0.69904 0.46798 0.6549 0.0
C3431 C 0.775 0.49265 0.63656 0.0
C3432 C 0.75918 0.4901 0.70981 0.0
C3433 C 0.75826 0.46959 0.71983 0.0
C3434 C 0.75233 0.49442 0.68784 0.0
C3435 C 0.74475 0.47785 0.67353 0.0
C3436 C 0.74537 0.45675 0.68319 0.0
C3437 C 0.75155 0.4531 0.7055 0.0
C3438 C 0.75333 0.51732 0.68006 0.0
C3439 C 0.74019 0.4372 0.67001 0.0
H3440 H 0.69204 0.48248 0.61491 0.0
H3441 H 0.75553 0.50221 0.59996 0.0
H3442 H 0.69823 0.45086 0.65013 0.0
H3443 H 0.70296 0.46869 0.67218 0.0
H3444 H 0.68282 0.47475 0.65211 0.0
H3445 H 0.77978 0.50979 0.6357 0.0
H3446 H 0.78021 0.48574 0.65211 0.0
H3447 H 0.78383 0.48436 0.62355 0.0
H3448 H 0.76509 0.50326 0.71947 0.0
H3449 H 0.75143 0.43683 0.71161 0.0
H3450 H 0.73871 0.52152 0.67076 0.0
H3451 H 0.76742 0.51949 0.66958 0.0
H3452 H 0.75543 0.52886 0.69338 0.0
H3453 H 0.72401 0.43125 0.67444 0.0
H3454 H 0.75172 0.42411 0.67368 0.0
H3455 H 0.74062 0.4404 0.65251 0.0
C3456 C 0.83926 0.51004 0.95487 0.0
C3457 C 0.82369 0.50593 0.97109 0.0
C3458 C 0.83619 0.50497 0.93227 0.0
C3459 C 0.81718 0.49452 0.92433 0.0
C3460 C 0.80111 0.49116 0.94047 0.0
C3461 C 0.80429 0.49731 0.96273 0.0
C3462 C 0.85327 0.51173 0.9166 0.0
C3463 C 0.78014 0.48063 0.93458 0.0
C3464 C 0.7965 0.49566 0.8634 0.0
C3465 C 0.80441 0.47675 0.85341 0.0
C3466 C 0.80092 0.50166 0.88538 0.0
C3467 C 0.81352 0.48854 0.89952 0.0
C3468 C 0.82167 0.46933 0.8896 0.0
C3469 C 0.81733 0.46391 0.86725 0.0
C3470 C 0.79141 0.52226 0.89361 0.0
C3471 C 0.83429 0.45369 0.90304 0.0
H3472 H 0.85415 0.51754 0.9598 0.0
H3473 H 0.79112 0.4956 0.97371 0.0
H3474 H 0.86134 0.49736 0.91002 0.0
H3475 H 0.84591 0.5205 0.90292 0.0
H3476 H 0.86558 0.5222 0.92414 0.0
H3477 H 0.76679 0.48755 0.94403 0.0
H3478 H 0.77607 0.48213 0.91736 0.0
H3479 H 0.78119 0.46326 0.93826 0.0
H3480 H 0.78654 0.50617 0.85381 0.0
H3481 H 0.82345 0.44897 0.86089 0.0
H3482 H 0.8034 0.5313 0.9032 0.0
H3483 H 0.77766 0.51853 0.90424 0.0
H3484 H 0.78552 0.53269 0.88039 0.0
H3485 H 0.84823 0.46183 0.91052 0.0
H3486 H 0.84016 0.43985 0.89355 0.0
H3487 H 0.824 0.44762 0.91624 0.0
C3488 C 0.79111 0.56427 0.21349 0.0
C3489 C 0.77879 0.5825 0.21962 0.0
C3490 C 0.7977 0.55966 0.19152 0.0
C3491 C 0.79242 0.57335 0.17364 0.0
C3492 C 0.77972 0.59164 0.17966 0.0
C3493 C 0.77327 0.59582 0.20175 0.0
C3494 C 0.81076 0.5398 0.18746 0.0
C3495 C 0.77262 0.60706 0.16245 0.0
C3496 C 0.8242 0.57089 0.1167 0.0
C3497 C 0.81267 0.55593 0.10381 0.0
C3498 C 0.81791 0.57687 0.13849 0.0
C3499 C 0.79929 0.56804 0.14916 0.0
C3500 C 0.78719 0.55375 0.13576 0.0
C3501 C 0.79385 0.54808 0.1142 0.0
C3502 C 0.83142 0.59334 0.14971 0.0
C3503 C 0.76662 0.54423 0.14415 0.0
H3504 H 0.79547 0.55307 0.22603 0.0
H3505 H 0.76376 0.60997 0.20501 0.0
H3506 H 0.8044 0.53081 0.17352 0.0
H3507 H 0.82746 0.54457 0.18353 0.0
H3508 H 0.81096 0.52888 0.20153 0.0
H3509 H 0.76135 0.61936 0.16862 0.0
H3510 H 0.78685 0.6153 0.15565 0.0
H3511 H 0.76471 0.59819 0.14918 0.0
H3512 H 0.83861 0.57784 0.10994 0.0
H3513 H 0.78367 0.53746 0.10513 0.0
H3514 H 0.83044 0.59183 0.16736 0.0
H3515 H 0.82562 0.60957 0.1452 0.0
H3516 H 0.8484 0.59209 0.14457 0.0
H3517 H 0.77041 0.5312 0.1557 0.0
H3518 H 0.75661 0.53737 0.1311 0.0
H3519 H 0.75708 0.5565 0.15276 0.0
C3520 C 0.50952 0.62396 0.71839 0.0
C3521 C 0.49584 0.60572 0.72089 0.0
C3522 C 0.50429 0.64565 0.72514 0.0
C3523 C 0.48436 0.65117 0.73524 0.0
C3524 C 0.47018 0.63289 0.73762 0.0
C3525 C 0.47585 0.61116 0.73058 0.0
C3526 C 0.52044 0.66307 0.72094 0.0
C3527 C 0.44848 0.63602 0.74764 0.0
C3528 C 0.48064 0.7076 0.76786 0.0
C3529 C 0.47007 0.72259 0.75398 0.0
C3530 C 0.48494 0.68514 0.76244 0.0
C3531 C 0.47861 0.67561 0.74234 0.0
C3532 C 0.46697 0.69028 0.72889 0.0
C3533 C 0.46312 0.71264 0.7346 0.0
C3534 C 0.49609 0.67129 0.77879 0.0
C3535 C 0.45798 0.68213 0.70812 0.0
H3536 H 0.52485 0.62138 0.71073 0.0
H3537 H 0.46441 0.5983 0.73299 0.0
H3538 H 0.51302 0.67537 0.71049 0.0
H3539 H 0.52501 0.67095 0.73621 0.0
H3540 H 0.53518 0.657 0.71306 0.0
H3541 H 0.44282 0.62107 0.75555 0.0
H3542 H 0.44864 0.64919 0.75958 0.0
H3543 H 0.43675 0.64017 0.73489 0.0
H3544 H 0.48607 0.71355 0.78325 0.0
H3545 H 0.45439 0.72239 0.72343 0.0
H3546 H 0.51192 0.66619 0.77252 0.0
H3547 H 0.48653 0.65653 0.78172 0.0
H3548 H 0.49856 0.67974 0.79426 0.0
H3549 H 0.47089 0.67463 0.6985 0.0
H3550 H 0.45027 0.69509 0.69872 0.0
H3551 H 0.4458 0.66958 0.71136 0.0
C3552 C 0.11329 0.19451 0.42072 0.0
C3553 C 0.1219 0.21101 0.40805 0.0
C3554 C 0.12658 0.18004 0.43163 0.0
C3555 C 0.14907 0.18185 0.42951 0.0
C3556 C 0.15791 0.19781 0.41593 0.0
C3557 C 0.1442 0.21228 0.40536 0.0
C3558 C 0.11654 0.16342 0.44615 0.0
C3559 C 0.18187 0.20008 0.41322 0.0
C3560 C 0.18512 0.1619 0.4743 0.0
C3561 C 0.19207 0.14224 0.4661 0.0
C3562 C 0.17063 0.17469 0.46279 0.0
C3563 C 0.16337 0.16778 0.4424 0.0
C3564 C 0.17 0.14765 0.4343 0.0
C3565 C 0.18416 0.13497 0.44641 0.0
C3566 C 0.16345 0.19577 0.47225 0.0
C3567 C 0.16271 0.13986 0.41257 0.0
H3568 H 0.09605 0.19324 0.42253 0.0
H3569 H 0.15095 0.22508 0.39569 0.0
H3570 H 0.12246 0.14718 0.44206 0.0
H3571 H 0.12125 0.16663 0.46301 0.0
H3572 H 0.09875 0.16342 0.44511 0.0
H3573 H 0.18615 0.21228 0.40093 0.0
H3574 H 0.18928 0.20482 0.4287 0.0
H3575 H 0.189 0.18447 0.40857 0.0
H3576 H 0.19118 0.16731 0.48968 0.0
H3577 H 0.18966 0.11971 0.44019 0.0
H3578 H 0.14568 0.19678 0.47223 0.0
H3579 H 0.16952 0.20924 0.46229 0.0
H3580 H 0.1693 0.19798 0.48894 0.0
H3581 H 0.14494 0.13991 0.41158 0.0
H3582 H 0.16856 0.12342 0.40903 0.0
H3583 H 0.1687 0.15093 0.39997 0.0
C3584 C 0.07525 0.8533 0.67862 0.0
C3585 C 0.06483 0.86506 0.66253 0.0
C3586 C 0.09097 0.86292 0.69154 0.0
C3587 C 0.09599 0.88486 0.68846 0.0
C3588 C 0.08559 0.89675 0.67211 0.0
C3589 C 0.0702 0.88664 0.65925 0.0
C3590 C 0.10216 0.84968 0.70849 0.0
C3591 C 0.09046 0.92023 0.66843 0.0
C3592 C 0.11691 0.91872 0.73409 0.0
C3593 C 0.13818 0.92235 0.7278 0.0
C3594 C 0.10322 0.90583 0.72182 0.0
C3595 C 0.11113 0.89591 0.70307 0.0
C3596 C 0.13296 0.89829 0.69738 0.0
C3597 C 0.14619 0.91167 0.7097 0.0
C3598 C 0.07997 0.9038 0.72829 0.0
C3599 C 0.14209 0.8876 0.67771 0.0
H3600 H 0.07138 0.83647 0.6808 0.0
H3601 H 0.06217 0.89567 0.6467 0.0
H3602 H 0.11981 0.85103 0.70666 0.0
H3603 H 0.09809 0.85587 0.72463 0.0
H3604 H 0.09759 0.83247 0.70771 0.0
H3605 H 0.08118 0.92705 0.6548 0.0
H3606 H 0.08666 0.92951 0.68309 0.0
H3607 H 0.1078 0.92246 0.66515 0.0
H3608 H 0.11078 0.92643 0.74837 0.0
H3609 H 0.16258 0.91444 0.70461 0.0
H3610 H 0.07518 0.88668 0.72907 0.0
H3611 H 0.06969 0.91165 0.71603 0.0
H3612 H 0.07671 0.91133 0.74407 0.0
H3613 H 0.13677 0.87063 0.67673 0.0
H3614 H 0.1599 0.88805 0.67758 0.0
H3615 H 0.13615 0.89592 0.66311 0.0
C3616 C 0.41539 0.82174 0.92355 0.0
C3617 C 0.40523 0.82041 0.90362 0.0
C3618 C 0.41076 0.83859 0.93753 0.0
C3619 C 0.3953 0.85406 0.93143 0.0
C3620 C 0.38624 0.85366 0.91059 0.0
C3621 C 0.39145 0.83676 0.89679 0.0
C3622 C 0.42099 0.8387 0.9595 0.0
C3623 C 0.36974 0.86996 0.90356 0.0
C3624 C 0.35975 0.87354 0.97616 0.0
C3625 C 0.36876 0.89358 0.98091 0.0
C3626 C 0.36835 0.86058 0.96011 0.0
C3627 C 0.38599 0.86813 0.94799 0.0
C3628 C 0.39493 0.88851 0.95224 0.0
C3629 C 0.38643 0.90087 0.96893 0.0
C3630 C 0.3586 0.83872 0.95622 0.0
C3631 C 0.41352 0.89711 0.93933 0.0
H3632 H 0.42621 0.80906 0.92854 0.0
H3633 H 0.38372 0.83558 0.88124 0.0
H3634 H 0.4263 0.8551 0.96388 0.0
H3635 H 0.40901 0.8335 0.97158 0.0
H3636 H 0.43499 0.82773 0.96044 0.0
H3637 H 0.36653 0.86918 0.88605 0.0
H3638 H 0.35447 0.86693 0.91217 0.0
H3639 H 0.37505 0.88643 0.90769 0.0
H3640 H 0.3458 0.86797 0.98487 0.0
H3641 H 0.3938 0.91616 0.97266 0.0
H3642 H 0.37095 0.8261 0.95845 0.0
H3643 H 0.35271 0.8376 0.93947 0.0
H3644 H 0.34504 0.83523 0.96722 0.0
H3645 H 0.42779 0.88675 0.9417 0.0
H3646 H 0.41781 0.9138 0.94386 0.0
H3647 H 0.40958 0.8968 0.92197 0.0
C3648 C 0.43035 0.15021 0.22767 0.0
C3649 C 0.40817 0.15217 0.22492 0.0
C3650 C 0.44436 0.15492 0.21085 0.0
C3651 C 0.43587 0.16186 0.19096 0.0
C3652 C 0.41344 0.16194 0.18749 0.0
C3653 C 0.39977 0.15707 0.20462 0.0
C3654 C 0.46823 0.15439 0.21502 0.0
C3655 C 0.40387 0.16897 0.16634 0.0
C3656 C 0.46936 0.20519 0.1654 0.0
C3657 C 0.48063 0.19372 0.14987 0.0
C3658 C 0.45419 0.19503 0.17835 0.0
C3659 C 0.45021 0.17284 0.17564 0.0
C3660 C 0.46104 0.16123 0.15953 0.0
C3661 C 0.47624 0.17184 0.14681 0.0
C3662 C 0.44279 0.20801 0.19529 0.0
C3663 C 0.45708 0.13757 0.15618 0.0
H3664 H 0.43676 0.14593 0.24328 0.0
H3665 H 0.38256 0.15848 0.20249 0.0
H3666 H 0.47673 0.1465 0.20159 0.0
H3667 H 0.4744 0.17106 0.21619 0.0
H3668 H 0.47222 0.14582 0.23015 0.0
H3669 H 0.38656 0.16488 0.16513 0.0
H3670 H 0.4056 0.18661 0.16461 0.0
H3671 H 0.41249 0.16147 0.15275 0.0
H3672 H 0.47235 0.22221 0.16736 0.0
H3673 H 0.48496 0.16296 0.13472 0.0
H3674 H 0.44703 0.20181 0.21144 0.0
H3675 H 0.42517 0.20642 0.19338 0.0
H3676 H 0.44704 0.22531 0.19457 0.0
H3677 H 0.46448 0.12837 0.16952 0.0
H3678 H 0.464 0.13179 0.14085 0.0
H3679 H 0.43965 0.13397 0.15629 0.0
C3680 C 0.11099 0.05464 0.3128 0.0
C3681 C 0.11049 0.04573 0.29215 0.0
C3682 C 0.13045 0.0595 0.32307 0.0
C3683 C 0.14991 0.05336 0.31326 0.0
C3684 C 0.14928 0.04314 0.29279 0.0
C3685 C 0.12963 0.04013 0.2823 0.0
C3686 C 0.12961 0.07128 0.34417 0.0
C3687 C 0.16923 0.035 0.2818 0.0
C3688 C 0.20616 0.06581 0.31001 0.0
C3689 C 0.21274 0.0447 0.31521 0.0
C3690 C 0.18496 0.07216 0.31405 0.0
C3691 C 0.17112 0.05722 0.32367 0.0
C3692 C 0.18044 0.04061 0.33587 0.0
C3693 C 0.20128 0.03411 0.33129 0.0
C3694 C 0.17626 0.09259 0.30463 0.0
C3695 C 0.16758 0.02759 0.35102 0.0
H3696 H 0.09624 0.05798 0.32107 0.0
H3697 H 0.12912 0.03263 0.26663 0.0
H3698 H 0.12332 0.06036 0.35677 0.0
H3699 H 0.14542 0.07758 0.34936 0.0
H3700 H 0.11817 0.0849 0.34297 0.0
H3701 H 0.16549 0.0255 0.26722 0.0
H3702 H 0.17946 0.04869 0.27687 0.0
H3703 H 0.1785 0.02456 0.29284 0.0
H3704 H 0.21634 0.0763 0.30073 0.0
H3705 H 0.20708 1.01948 0.33852 0.0
H3706 H 0.16372 0.09946 0.3152 0.0
H3707 H 0.16854 0.08885 0.28904 0.0
H3708 H 0.18915 0.10463 0.30209 0.0
H3709 H 0.15639 0.03831 0.35949 0.0
H3710 H 0.17785 1.01921 0.36298 0.0
H3711 H 0.15885 1.01546 0.34148 0.0
C3712 C 0.21962 0.91766 0.56232 0.0
C3713 C 0.20331 0.91646 0.54701 0.0
C3714 C 0.21669 0.90811 0.58236 0.0
C3715 C 0.19695 0.89764 0.58667 0.0
C3716 C 0.17903 0.90192 0.57367 0.0
C3717 C 0.1825 0.91081 0.55334 0.0
C3718 C 0.23612 0.90486 0.59639 0.0
C3719 C 0.15692 0.89476 0.58014 0.0
C3720 C 0.22088 0.84508 0.59516 0.0
C3721 C 0.2272 0.849 0.61637 0.0
C3722 C 0.20695 0.85942 0.58508 0.0
C3723 C 0.19833 0.87653 0.59727 0.0
C3724 C 0.19874 0.87525 0.61975 0.0
C3725 C 0.21265 0.86037 0.62918 0.0
C3726 C 0.20582 0.85914 0.56094 0.0
C3727 C 0.18691 0.89112 0.63358 0.0
H3728 H 0.23555 0.92283 0.55758 0.0
H3729 H 0.16954 0.91126 0.54186 0.0
H3730 H 0.23168 0.9049 0.61359 0.0
H3731 H 0.24355 0.88919 0.59248 0.0
H3732 H 0.24838 0.91737 0.59348 0.0
H3733 H 0.14781 0.88854 0.56614 0.0
H3734 H 0.15707 0.88255 0.59309 0.0
H3735 H 0.14836 0.90887 0.58665 0.0
H3736 H 0.22988 0.83421 0.58515 0.0
H3737 H 0.21428 0.86033 0.64617 0.0
H3738 H 0.21685 0.87145 0.5544 0.0
H3739 H 0.18935 0.86267 0.55522 0.0
H3740 H 0.21111 0.84355 0.55442 0.0
H3741 H 0.18726 0.90751 0.62659 0.0
H3742 H 0.19361 0.89177 0.65009 0.0
H3743 H 0.16986 0.88614 0.63461 0.0
C3744 C 0.35891 0.95176 0.82604 0.0
C3745 C 0.3583 0.9302 0.81981 0.0
C3746 C 0.3768 0.95926 0.8374 0.0
C3747 C 0.39347 0.94453 0.84246 0.0
C3748 C 0.38804 0.92263 0.84358 0.0
C3749 C 0.369 0.91598 0.83362 0.0
C3750 C 0.37923 0.98301 0.84069 0.0
C3751 C 0.4031 0.90598 0.85237 0.0
C3752 C 0.43044 0.97177 0.80824 0.0
C3753 C 0.43344 0.9889 0.82214 0.0
C3754 C 0.42185 0.95266 0.81594 0.0
C3755 C 0.41592 0.95131 0.83781 0.0
C3756 C 0.4259 0.96539 0.85221 0.0
C3757 C 0.43385 0.98504 0.84435 0.0
C3758 C 0.41412 0.93699 0.79967 0.0
C3759 C 0.42484 0.96096 0.8757 0.0
H3760 H 0.34814 0.96331 0.81885 0.0
H3761 H 0.36516 0.89933 0.83332 0.0
H3762 H 0.38446 0.98645 0.85734 0.0
H3763 H 0.3913 0.98939 0.82959 0.0
H3764 H 0.36418 0.99166 0.83721 0.0
H3765 H 0.39418 0.8946 0.8628 0.0
H3766 H 0.40984 0.89656 0.83891 0.0
H3767 H 0.41641 0.91317 0.86166 0.0
H3768 H 0.43152 0.97444 0.79108 0.0
H3769 H 0.43777 0.99787 0.85539 0.0
H3770 H 0.39873 0.9433 0.79357 0.0
H3771 H 0.41235 0.92073 0.80665 0.0
H3772 H 0.42496 0.9362 0.78565 0.0
H3773 H 0.40893 0.96607 0.88166 0.0
H3774 H 0.43804 0.96938 0.8841 0.0
H3775 H 0.42634 0.94357 0.87904 0.0
C3776 C 0.32716 0.19432 0.1004 0.0
C3777 C 0.30731 0.19227 0.08986 0.0
C3778 C 0.34139 0.17671 0.10072 0.0
C3779 C 0.33579 0.15819 0.08885 0.0
C3780 C 0.31373 0.15421 0.08536 0.0
C3781 C 0.29952 0.17151 0.08597 0.0
C3782 C 0.36362 0.17911 0.10986 0.0
C3783 C 0.30593 0.13339 0.07599 0.0
C3784 C 0.36236 0.15707 0.03466 0.0
C3785 C 0.36572 0.13535 0.03207 0.0
C3786 C 0.35322 0.16472 0.05314 0.0
C3787 C 0.35052 0.15112 0.07132 0.0
C3788 C 0.35822 0.1298 0.07001 0.0
C3789 C 0.3642 0.12159 0.04989 0.0
C3790 C 0.34322 0.18621 0.05102 0.0
C3791 C 0.35954 0.11546 0.08929 0.0
H3792 H 0.33274 0.21004 0.1053 0.0
H3793 H 0.2835 0.16926 0.07956 0.0
H3794 H 0.36571 0.16731 0.12306 0.0
H3795 H 0.3759 0.17532 0.09761 0.0
H3796 H 0.36652 0.19547 0.11627 0.0
H3797 H 0.2883 0.13156 0.0778 0.0
H3798 H 0.30983 0.13286 0.05864 0.0
H3799 H 0.31392 0.11972 0.08398 0.0
H3800 H 0.3634 0.16773 1.02092 0.0
H3801 H 0.3675 0.10462 0.04805 0.0
H3802 H 0.34808 0.19565 0.06481 0.0
H3803 H 0.32564 0.18389 0.05013 0.0
H3804 H 0.34818 0.19535 0.03651 0.0
H3805 H 0.359 0.1249 0.10432 0.0
H3806 H 0.37475 0.10621 0.089 0.0
H3807 H 0.34631 0.10358 0.08889 0.0
C3808 C 0.19574 0.39771 0.15066 0.0
C3809 C 0.21442 0.39922 0.16306 0.0
C3810 C 0.18024 0.41391 0.15151 0.0
C3811 C 0.18377 0.43169 0.16511 0.0
C3812 C 0.2038 0.4344 0.1755 0.0
C3813 C 0.21892 0.41799 0.17439 0.0
C3814 C 0.15927 0.41089 0.13977 0.0
C3815 C 0.20831 0.45336 0.18987 0.0
C3816 C 0.14773 0.47894 0.17527 0.0
C3817 C 0.13861 0.47252 0.19472 0.0
C3818 C 0.1612 0.46497 0.16402 0.0
C3819 C 0.16547 0.44445 0.17276 0.0
C3820 C 0.15469 0.43742 0.1915 0.0
C3821 C 0.14136 0.45167 0.2023 0.0
C3822 C 0.1721 0.47282 0.14389 0.0
C3823 C 0.15872 0.41558 0.2013 0.0
H3824 H 0.19252 0.38318 0.14167 0.0
H3825 H 0.23371 0.41919 0.18352 0.0
H3826 H 0.14696 0.40491 0.15113 0.0
H3827 H 0.15346 0.42635 0.13309 0.0
H3828 H 0.16077 0.39907 0.12656 0.0
H3829 H 0.22552 0.45442 0.19442 0.0
H3830 H 0.2036 0.46855 0.18187 0.0
H3831 H 0.1987 0.45186 0.20476 0.0
H3832 H 0.14523 0.49517 0.16947 0.0
H3833 H 0.13391 0.44691 0.21728 0.0
H3834 H 0.17487 0.45953 0.13243 0.0
H3835 H 0.18792 0.4798 0.14814 0.0
H3836 H 0.1625 0.48551 0.13583 0.0
H3837 H 0.1573 0.40285 0.189 0.0
H3838 H 0.14736 0.4119 0.21451 0.0
H3839 H 0.17528 0.41499 0.20786 0.0
C3840 C 0.66129 0.06933 0.88733 0.0
C3841 C 0.66392 0.06066 0.8668 0.0
C3842 C 0.6749 0.08563 0.89472 0.0
C3843 C 0.69117 0.09357 0.88105 0.0
C3844 C 0.69364 0.08504 0.86019 0.0
C3845 C 0.68005 0.06852 0.85337 0.0
C3846 C 0.6719 0.09436 0.91708 0.0
C3847 C 0.71058 0.09344 0.84505 0.0
C3848 C 0.7171 0.1477 0.89005 0.0
C3849 C 0.73667 0.14182 0.89963 0.0
C3850 C 0.70163 0.13224 0.88482 0.0
C3851 C 0.70614 0.11034 0.88868 0.0
C3852 C 0.7256 0.1043 0.89867 0.0
C3853 C 0.7405 0.12014 0.9043 0.0
C3854 C 0.6808 0.13928 0.87456 0.0
C3855 C 0.73097 0.08104 0.90283 0.0
H3856 H 0.64859 0.0633 0.89756 0.0
H3857 H 0.68165 0.06209 0.83731 0.0
H3858 H 0.68677 0.09199 0.9266 0.0
H3859 H 0.66884 0.11188 0.91637 0.0
H3860 H 0.65837 0.0865 0.92562 0.0
H3861 H 0.71007 0.08533 0.82922 0.0
H3862 H 0.70839 0.11092 0.84249 0.0
H3863 H 0.72673 0.09111 0.85217 0.0
H3864 H 0.71403 0.16433 0.88602 0.0
H3865 H 0.75529 0.11546 0.91216 0.0
H3866 H 0.66696 0.13225 0.88325 0.0
H3867 H 0.68003 0.13336 0.85781 0.0
H3868 H 0.67903 0.15701 0.87435 0.0
H3869 H 0.71809 0.07333 0.91238 0.0
H3870 H 0.74644 0.07908 0.91148 0.0
H3871 H 0.73198 0.07232 0.88737 0.0
C3872 C 0.90943 0.94885 0.39276 0.0
C3873 C 0.91291 0.96246 0.4102 0.0
C3874 C 0.89031 0.93743 0.39089 0.0
C3875 C 0.87438 0.94 0.40678 0.0
C3876 C 0.87743 0.95453 0.42389 0.0
C3877 C 0.89692 0.96552 0.42553 0.0
C3878 C 0.88765 0.92181 0.37256 0.0
C3879 C 0.86052 0.95779 0.44084 0.0
C3880 C 0.82184 0.91471 0.39118 0.0
C3881 C 0.82423 0.89438 0.40041 0.0
C3882 C 0.83747 0.9305 0.39435 0.0
C3883 C 0.85585 0.92546 0.40668 0.0
C3884 C 0.85782 0.90523 0.4168 0.0
C3885 C 0.84187 0.8899 0.41357 0.0
C3886 C 0.83486 0.95208 0.38363 0.0
C3887 C 0.87742 0.89928 0.42983 0.0
H3888 H 0.92198 0.94667 0.38095 0.0
H3889 H 0.89973 0.97642 0.43877 0.0
H3890 H 0.88728 0.90517 0.37893 0.0
H3891 H 0.87223 0.92464 0.36412 0.0
H3892 H 0.90089 0.92303 0.36073 0.0
H3893 H 0.86417 0.97176 0.45127 0.0
H3894 H 0.84455 0.9602 0.43333 0.0
H3895 H 0.85946 0.94324 0.45107 0.0
H3896 H 0.80792 0.91811 0.38129 0.0
H3897 H 0.84361 0.87406 0.42062 0.0
H3898 H 0.84606 0.95328 0.36988 0.0
H3899 H 0.83892 0.96521 0.39491 0.0
H3900 H 0.81828 0.95457 0.37756 0.0
H3901 H 0.89153 0.89807 0.41909 0.0
H3902 H 0.87543 0.88373 0.43833 0.0
H3903 H 0.88103 0.91187 0.44185 0.0
C3904 C 0.05291 0.31906 0.10559 0.0
C3905 C 0.04983 0.29684 0.10718 0.0
C3906 C 0.05823 0.33154 0.12349 0.0
C3907 C 0.06157 0.32134 0.14361 0.0
C3908 C 0.05647 0.2988 0.14531 0.0
C3909 C 0.05119 0.28705 0.12698 0.0
C3910 C 0.05998 0.35554 0.12033 0.0
C3911 C 0.05659 0.28605 0.16587 0.0
C3912 C 0.10868 0.33028 0.17601 0.0
C3913 C 0.10029 0.3167 0.19174 0.0
C3914 C 0.09488 0.33776 0.15995 0.0
C3915 C 0.07264 0.33305 0.16169 0.0
C3916 C 0.06492 0.3302 0.1827 0.0
C3917 C 0.07901 0.32126 0.198 0.0
C3918 C 0.10456 0.34895 0.14104 0.0
C3919 C 0.04165 0.33378 0.18779 0.0
H3920 H 0.05107 0.32686 0.09026 0.0
H3921 H 0.04775 0.27002 0.12811 0.0
H3922 H 0.04638 0.36182 0.11087 0.0
H3923 H 0.0606 0.36436 0.13571 0.0
H3924 H 0.07421 0.35933 0.11037 0.0
H3925 H 0.05206 0.26895 0.16365 0.0
H3926 H 0.07276 0.28604 0.17242 0.0
H3927 H 0.0452 0.29268 0.17763 0.0
H3928 H 0.12579 0.33077 0.17324 0.0
H3929 H 0.07242 0.31464 0.2126 0.0
H3930 H 0.09771 0.36527 0.13953 0.0
H3931 H 0.10123 0.33962 0.12634 0.0
H3932 H 0.12214 0.35105 0.14289 0.0
H3933 H 0.03986 0.35037 0.19386 0.0
H3934 H 0.03606 0.32245 0.20034 0.0
H3935 H 0.03131 0.33232 0.17333 0.0
C3936 C 0.39124 0.58897 0.63025 0.0
C3937 C 0.39616 0.57067 0.64233 0.0
C3938 C 0.37083 0.5981 0.63094 0.0
C3939 C 0.35507 0.58905 0.64456 0.0
C3940 C 0.36012 0.57117 0.65758 0.0
C3941 C 0.38056 0.56194 0.65607 0.0
C3942 C 0.36605 0.61721 0.61675 0.0
C3943 C 0.34387 0.56155 0.67273 0.0
C3944 C 0.31044 0.62876 0.65126 0.0
C3945 C 0.29697 0.6228 0.63423 0.0
C3946 C 0.32853 0.61652 0.65645 0.0
C3947 C 0.33316 0.59807 0.64419 0.0
C3948 C 0.31836 0.59078 0.62856 0.0
C3949 C 0.30031 0.60328 0.62378 0.0
C3950 C 0.34377 0.62453 0.67352 0.0
C3951 C 0.32282 0.57115 0.61518 0.0
H3952 H 0.40339 0.5962 0.62013 0.0
H3953 H 0.38416 0.54769 0.66538 0.0
H3954 H 0.35259 0.61337 0.60574 0.0
H3955 H 0.36105 0.63107 0.62665 0.0
H3956 H 0.38011 0.62212 0.60697 0.0
H3957 H 0.35126 0.54981 0.68396 0.0
H3958 H 0.33592 0.57429 0.68221 0.0
H3959 H 0.3312 0.55321 0.66341 0.0
H3960 H 0.30765 0.64381 0.65948 0.0
H3961 H 0.28994 0.59875 0.61056 0.0
H3962 H 0.35801 0.63191 0.66579 0.0
H3963 H 0.34955 0.61107 0.68366 0.0
H3964 H 0.33618 0.63677 0.68395 0.0
H3965 H 0.33594 0.57476 0.60372 0.0
H3966 H 0.30848 0.56598 0.60591 0.0
H3967 H 0.32821 0.55762 0.62543 0.0
C3968 C 0.9768 0.81822 0.43029 0.0
C3969 C 0.98451 0.83869 0.4349 0.0
C3970 C 0.9574 0.81601 0.41938 0.0
C3971 C 0.94717 0.83512 0.41192 0.0
C3972 C 0.95016 0.85351 0.42486 0.0
C3973 C 0.97017 0.85595 0.43504 0.0
C3974 C 0.95131 0.79372 0.41214 0.0
C3975 C 0.9347 0.87202 0.42393 0.0
C3976 C 0.97997 0.84074 0.36573 0.0
C3977 C 0.9748 0.82098 0.3562 0.0
C3978 C 0.9658 0.85054 0.38003 0.0
C3979 C 0.94825 0.83867 0.38812 0.0
C3980 C 0.94009 0.82267 0.37475 0.0
C3981 C 0.95352 0.81343 0.35921 0.0
C3982 C 0.96744 0.87436 0.38339 0.0
C3983 C 0.91696 0.81665 0.37654 0.0
H3984 H 0.9872 0.8044 0.43222 0.0
H3985 H 0.9753 0.87155 0.44073 0.0
H3986 H 0.93371 0.79166 0.4115 0.0
H3987 H 0.95839 0.79028 0.39626 0.0
H3988 H 0.95785 0.78136 0.4232 0.0
H3989 H 0.92724 0.87403 0.43991 0.0
H3990 H 0.94321 0.88729 0.42049 0.0
H3991 H 0.92183 0.86932 0.41188 0.0
H3992 H 0.99443 0.84929 0.36175 0.0
H3993 H 0.94699 0.80065 0.3495 0.0
H3994 H 0.97762 0.88209 0.37098 0.0
H3995 H 0.97452 0.87788 0.39917 0.0
H3996 H 0.95127 0.88176 0.38272 0.0
H3997 H 0.91239 0.81289 0.39325 0.0
H3998 H 0.91276 0.80325 0.36568 0.0
H3999 H 0.90746 0.83105 0.37229 0.0
C4000 C 0.55276 0.21818 0.90945 0.0
C4001 C 0.53859 0.20102 0.90805 0.0
C4002 C 0.57241 0.2173 0.89923 0.0
C4003 C 0.57887 0.19778 0.88933 0.0
C4004 C 0.56609 0.17919 0.89138 0.0
C4005 C 0.5456 0.18119 0.9003 0.0
C4006 C 0.5836 0.23852 0.89546 0.0
C4007 C 0.57296 0.15805 0.88186 0.0
C4008 C 0.5973 0.22594 0.84387 0.0
C4009 C 0.61638 0.23326 0.85356 0.0
C4010 C 0.58615 0.20872 0.85275 0.0
C4011 C 0.59432 0.19935 0.87166 0.0
C4012 C 0.61611 0.20185 0.87675 0.0
C4013 C 0.62717 0.21891 0.86729 0.0
C4014 C 0.56338 0.2047 0.84555 0.0
C4015 C 0.62599 0.19037 0.89559 0.0
H4016 H 0.54714 0.23347 0.91555 0.0
H4017 H 0.53465 0.16779 0.89973 0.0
H4018 H 0.60109 0.23698 0.89786 0.0
H4019 H 0.58025 0.2442 0.87897 0.0
H4020 H 0.57754 0.25138 0.90609 0.0
H4021 H 0.55947 0.14645 0.88088 0.0
H4022 H 0.57971 0.1601 0.86556 0.0
H4023 H 0.58585 0.15111 0.89202 0.0
H4024 H 0.5888 0.23545 0.83215 0.0
H4025 H 0.64255 0.22275 0.87372 0.0
H4026 H 0.55209 0.21331 0.85624 0.0
H4027 H 0.5597 0.18735 0.84652 0.0
H4028 H 0.56055 0.21049 0.82894 0.0
H4029 H 0.62381 0.20024 0.91023 0.0
H4030 H 0.64349 0.18811 0.89314 0.0
H4031 H 0.61827 0.17453 0.89825 0.0
C4032 C 0.69496 0.50016 0.70171 0.0
C4033 C 0.70565 0.49264 0.71989 0.0
C4034 C 0.67375 0.49398 0.69833 0.0
C4035 C 0.66355 0.48098 0.71379 0.0
C4036 C 0.6765 0.46787 0.72688 0.0
C4037 C 0.69827 0.47308 0.72873 0.0
C4038 C 0.6615 0.50472 0.68103 0.0
C4039 C 0.6667 0.45163 0.74192 0.0
C4040 C 0.62371 0.50757 0.75058 0.0
C4041 C 0.60553 0.49503 0.7474 0.0
C4042 C 0.64217 0.50434 0.73831 0.0
C4043 C 0.64254 0.48779 0.72259 0.0
C4044 C 0.62363 0.47609 0.71828 0.0
C4045 C 0.60531 0.48008 0.73062 0.0
C4046 C 0.66147 0.51824 0.74296 0.0
C4047 C 0.62247 0.45902 0.70119 0.0
H4048 H 0.70167 0.51268 0.69176 0.0
H4049 H 0.70809 0.46399 0.73981 0.0
H4050 H 0.64788 0.49438 0.67629 0.0
H4051 H 0.65594 0.52022 0.68738 0.0
H4052 H 0.67178 0.50816 0.66691 0.0
H4053 H 0.67907 0.44216 0.75059 0.0
H4054 H 0.65671 0.45991 0.75406 0.0
H4055 H 0.65599 0.4407 0.73282 0.0
H4056 H 0.62344 0.51995 0.76276 0.0
H4057 H 0.59093 0.47145 0.72687 0.0
H4058 H 0.66757 0.52561 0.72797 0.0
H4059 H 0.67435 0.5083 0.75015 0.0
H4060 H 0.65777 0.5314 0.75433 0.0
H4061 H 0.63628 0.45943 0.69003 0.0
H4062 H 0.60743 0.46082 0.69175 0.0
H4063 H 0.62187 0.44301 0.709 0.0
C4064 C 0.77659 0.42293 0.97359 0.0
C4065 C 0.78655 0.44252 0.97785 0.0
C4066 C 0.78892 0.40461 0.96987 0.0
C4067 C 0.81168 0.40629 0.97027 0.0
C4068 C 0.82124 0.42673 0.96928 0.0
C4069 C 0.80872 0.44464 0.97428 0.0
C4070 C 0.77753 0.38323 0.9688 0.0
C4071 C 0.8448 0.42954 0.96459 0.0
C4072 C 0.82186 0.36812 1.01368 0.0
C4073 C 0.81861 0.34949 1.0018 0.0
C4074 C 0.82435 0.3878 1.00313 0.0
C4075 C 0.82369 0.38841 0.98038 0.0
C4076 C 0.82645 0.36929 0.96891 0.0
C4077 C 0.82277 0.34991 0.9796 0.0
C4078 C 0.82414 0.408 1.0163 0.0
C4079 C 0.83021 0.36934 0.94506 0.0
H4080 H 0.75938 0.4214 0.97558 0.0
H4081 H 0.81659 0.45984 0.97683 0.0
H4082 H 0.78415 0.37324 0.95576 0.0
H4083 H 0.77977 0.37449 0.98417 0.0
H4084 H 0.76003 0.38508 0.96594 0.0
H4085 H 0.85138 0.44399 0.97263 0.0
H4086 H 0.85436 0.41522 0.96909 0.0
H4087 H 0.84675 0.43191 0.94707 0.0
H4088 H 0.81952 0.36782 0.0309 0.0
H4089 H 0.82091 0.33567 0.97014 0.0
H4090 H 0.80824 0.41587 1.01498 0.0
H4091 H 0.83644 0.41932 1.01027 0.0
H4092 H 0.82732 0.40464 0.03351 0.0
H4093 H 0.81513 0.36537 0.93661 0.0
H4094 H 0.84208 0.3568 0.9408 0.0
H4095 H 0.83601 0.38518 0.93928 0.0
C4096 C 0.85712 0.59034 0.20844 0.0
C4097 C 0.84907 0.58985 0.2294 0.0
C4098 C 0.87551 0.60252 0.20422 0.0
C4099 C 0.88757 0.60968 0.22212 0.0
C4100 C 0.87493 0.6176 0.23888 0.0
C4101 C 0.8556 0.60667 0.24326 0.0
C4102 C 0.88364 0.60433 0.18169 0.0
C4103 C 0.88457 0.63263 0.25497 0.0
C4104 C 0.89952 0.55684 0.23823 0.0
C4105 C 0.90927 0.55103 0.21912 0.0
C4106 C 0.89926 0.57826 0.24439 0.0
C4107 C 0.90487 0.59427 0.22894 0.0
C4108 C 0.91966 0.58803 0.21306 0.0
C4109 C 0.92152 0.56627 0.20803 0.0
C4110 C 0.89481 0.58296 0.26766 0.0
C4111 C 0.93222 0.60419 0.20042 0.0
H4112 H 0.85046 0.5801 0.19613 0.0
H4113 H 0.84812 0.6092 0.25866 0.0
H4114 H 0.89523 0.61774 0.18011 0.0
H4115 H 0.89117 0.58899 0.17678 0.0
H4116 H 0.8701 0.60747 0.17063 0.0
H4117 H 0.88001 0.62768 0.27141 0.0
H4118 H 0.90232 0.63343 0.25361 0.0
H4119 H 0.87835 0.64894 0.25216 0.0
H4120 H 0.89316 0.54456 0.24884 0.0
H4121 H 0.93197 0.56157 0.1952 0.0
H4122 H 0.87734 0.58304 0.27081 0.0
H4123 H 0.90225 0.59823 0.27276 0.0
H4124 H 0.90159 0.57008 0.27799 0.0
H4125 H 0.92942 0.60201 0.18298 0.0
H4126 H 0.94953 0.60112 0.20297 0.0
H4127 H 0.92828 0.62084 0.20525 0.0
C4128 C 0.70553 0.62373 0.47798 0.0
C4129 C 0.72507 0.61279 0.47651 0.0
C4130 C 0.70021 0.63883 0.46224 0.0
C4131 C 0.71639 0.64494 0.4475 0.0
C4132 C 0.72979 0.62797 0.44103 0.0
C4133 C 0.73549 0.61255 0.45656 0.0
C4134 C 0.67944 0.65065 0.46432 0.0
C4135 C 0.74062 0.62844 0.41962 0.0
C4136 C 0.7169 0.69724 0.47352 0.0
C4137 C 0.73339 0.6933 0.48829 0.0
C4138 C 0.71443 0.6843 0.45523 0.0
C4139 C 0.72726 0.6659 0.45284 0.0
C4140 C 0.74677 0.66538 0.46465 0.0
C4141 C 0.74864 0.67762 0.48333 0.0
C4142 C 0.6999 0.69132 0.43734 0.0
C4143 C 0.76714 0.65674 0.45493 0.0
H4144 H 0.69566 0.62245 0.49221 0.0
H4145 H 0.74926 0.6023 0.45407 0.0
H4146 H 0.68128 0.66302 0.4769 0.0
H4147 H 0.67453 0.65804 0.44891 0.0
H4148 H 0.66654 0.63954 0.46955 0.0
H4149 H 0.73411 0.6154 0.40949 0.0
H4150 H 0.73767 0.64386 0.41122 0.0
H4151 H 0.75804 0.62535 0.42145 0.0
H4152 H 0.7067 0.71095 0.47571 0.0
H4153 H 0.76322 0.67658 0.49281 0.0
H4154 H 0.68398 0.69568 0.44349 0.0
H4155 H 0.6982 0.67893 0.42469 0.0
H4156 H 0.70672 0.70604 0.43005 0.0
H4157 H 0.78169 0.6636 0.46263 0.0
H4158 H 0.76751 0.66063 0.43762 0.0
H4159 H 0.76837 0.63923 0.45641 0.0
C4160 C 0.66627 0.37297 0.54894 0.0
C4161 C 0.68397 0.38426 0.55681 0.0
C4162 C 0.65479 0.35906 0.56233 0.0
C4163 C 0.66153 0.35631 0.58385 0.0
C4164 C 0.67906 0.36826 0.59198 0.0
C4165 C 0.69003 0.38229 0.5783 0.0
C4166 C 0.63584 0.34691 0.55336 0.0
C4167 C 0.68666 0.36572 0.61486 0.0
C4168 C 0.6233 0.32978 0.6227 0.0
C4169 C 0.63083 0.30857 0.62271 0.0
C4170 C 0.63326 0.34561 0.61028 0.0
C4171 C 0.651 0.33997 0.59743 0.0
C4172 C 0.65858 0.31858 0.59723 0.0
C4173 C 0.64836 0.30308 0.6099 0.0
C4174 C 0.62485 0.36832 0.61094 0.0
C4175 C 0.67761 0.31213 0.58378 0.0
H4176 H 0.66155 0.37496 0.53231 0.0
H4177 H 0.70365 0.39138 0.58421 0.0
H4178 H 0.63946 0.32949 0.55317 0.0
H4179 H 0.62158 0.34918 0.56372 0.0
H4180 H 0.63172 0.35208 0.5368 0.0
H4181 H 0.69971 0.37717 0.61895 0.0
H4182 H 0.67317 0.36817 0.62614 0.0
H4183 H 0.69266 0.34915 0.61739 0.0
H4184 H 0.60966 0.33403 0.63255 0.0
H4185 H 0.65445 0.2868 0.61023 0.0
H4186 H 0.61933 0.37324 0.59474 0.0
H4187 H 0.63783 0.37954 0.6157 0.0
H4188 H 0.6113 0.37014 0.62234 0.0
H4189 H 0.67413 0.31518 0.56659 0.0
H4190 H 0.6818 0.29493 0.58581 0.0
H4191 H 0.69179 0.32199 0.58814 0.0
C4192 C 0.94717 0.42016 0.90538 0.0
C4193 C 0.9655 0.40783 0.90956 0.0
C4194 C 0.93589 0.41793 0.88612 0.0
C4195 C 0.94271 0.40248 0.87105 0.0
C4196 C 0.96051 0.38922 0.87557 0.0
C4197 C 0.97194 0.3923 0.89465 0.0
C4198 C 0.91708 0.43256 0.88165 0.0
C4199 C 0.96778 0.37216 0.86005 0.0
C4200 C 0.90165 0.38887 0.82869 0.0
C4201 C 0.90845 0.40193 0.81167 0.0
C4202 C 0.91321 0.38814 0.84792 0.0
C4203 C 0.93178 0.40098 0.8501 0.0
C4204 C 0.93918 0.41352 0.83266 0.0
C4205 C 0.92744 0.41372 0.8135 0.0
C4206 C 0.90509 0.37435 0.86614 0.0
C4207 C 0.95876 0.42768 0.83464 0.0
H4208 H 0.94178 0.4318 0.91706 0.0
H4209 H 0.98625 0.38288 0.89756 0.0
H4210 H 0.92013 0.44203 0.86687 0.0
H4211 H 0.90237 0.42295 0.87884 0.0
H4212 H 0.91401 0.44386 0.89504 0.0
H4213 H 0.98083 0.36204 0.86678 0.0
H4214 H 0.9541 0.36165 0.85562 0.0
H4215 H 0.97364 0.37979 0.84508 0.0
H4216 H 0.88689 0.37977 0.82715 0.0
H4217 H 0.93242 0.42404 0.8004 0.0
H4218 H 0.89992 0.38467 0.87964 0.0
H4219 H 0.91814 0.36388 0.87226 0.0
H4220 H 0.89132 0.36413 0.86127 0.0
H4221 H 0.95591 0.44013 0.84699 0.0
H4222 H 0.96283 0.43578 0.81929 0.0
H4223 H 0.97279 0.4181 0.83996 0.0
C4224 C 0.88045 0.64573 0.08951 0.0
C4225 C 0.89609 0.6458 0.07349 0.0
C4226 C 0.87778 0.66352 0.10277 0.0
C4227 C 0.89098 0.68175 0.09963 0.0
C4228 C 0.90558 0.68252 0.08234 0.0
C4229 C 0.90812 0.66434 0.06951 0.0
C4230 C 0.86215 0.6621 0.1212 0.0
C4231 C 0.91962 0.70187 0.07836 0.0
C4232 C 0.87606 0.72907 0.13404 0.0
C4233 C 0.88914 0.72543 0.15198 0.0
C4234 C 0.87731 0.71567 0.11612 0.0
C4235 C 0.89179 0.69825 0.11645 0.0
C4236 C 0.90572 0.69514 0.13413 0.0
C4237 C 0.90421 0.70882 0.15172 0.0
C4238 C 0.8625 0.71953 0.09732 0.0
C4239 C 0.92139 0.67665 0.13501 0.0
H4240 H 0.87118 0.63129 0.09249 0.0
H4241 H 0.91995 0.66436 0.0568 0.0
H4242 H 0.87115 0.66105 0.13654 0.0
H4243 H 0.85204 0.67671 0.12189 0.0
H4244 H 0.85151 0.64784 0.11997 0.0
H4245 H 0.92678 0.70161 0.06207 0.0
H4246 H 0.91038 0.71694 0.08028 0.0
H4247 H 0.93285 0.70208 0.09029 0.0
H4248 H 0.86466 0.74219 0.13419 0.0
H4249 H 0.91422 0.70595 0.16567 0.0
H4250 H 0.84996 0.7069 0.09696 0.0
H4251 H 0.87146 0.71856 0.082 0.0
H4252 H 0.85449 0.73541 0.09824 0.0
H4253 H 0.91245 0.66126 0.13563 0.0
H4254 H 0.93212 0.67749 0.14924 0.0
H4255 H 0.93144 0.67642 0.12037 0.0
C4256 C 0.55297 0.66286 0.37971 0.0
C4257 C 0.55357 0.68504 0.38312 0.0
C4258 C 0.5679 0.65312 0.36608 0.0
C4259 C 0.58372 0.66599 0.35611 0.0
C4260 C 0.58486 0.68826 0.36042 0.0
C4261 C 0.5696 0.69754 0.3738 0.0
C4262 C 0.56633 0.62935 0.36181 0.0
C4263 C 0.6018 0.70245 0.35043 0.0
C4264 C 0.63452 0.64836 0.32927 0.0
C4265 C 0.62906 0.65169 0.30766 0.0
C4266 C 0.61915 0.6507 0.34542 0.0
C4267 C 0.59811 0.65697 0.33972 0.0
C4268 C 0.5921 0.6585 0.3179 0.0
C4269 C 0.60764 0.65558 0.30209 0.0
C4270 C 0.6259 0.64837 0.36858 0.0
C4271 C 0.56981 0.66532 0.31125 0.0
H4272 H 0.5406 0.6533 0.38736 0.0
H4273 H 0.57017 0.71462 0.37706 0.0
H4274 H 0.56005 0.62673 0.34537 0.0
H4275 H 0.58238 0.62173 0.36268 0.0
H4276 H 0.55546 0.62116 0.37331 0.0
H4277 H 0.60102 0.71922 0.35637 0.0
H4278 H 0.61802 0.69602 0.35392 0.0
H4279 H 0.59977 0.70268 0.33275 0.0
H4280 H 0.65105 0.64531 0.33374 0.0
H4281 H 0.60325 0.6575 0.28537 0.0
H4282 H 0.61351 0.63963 0.3779 0.0
H4283 H 0.62771 0.66451 0.37584 0.0
H4284 H 0.64141 0.63976 0.37019 0.0
H4285 H 0.55753 0.65602 0.32015 0.0
H4286 H 0.56703 0.66323 0.29378 0.0
H4287 H 0.56749 0.68251 0.31523 0.0
C4288 C 0.4752 0.74348 0.69424 0.0
C4289 C 0.49438 0.73325 0.70063 0.0
C4290 C 0.46324 0.73621 0.67664 0.0
C4291 C 0.47061 0.71824 0.66499 0.0
C4292 C 0.48971 0.70773 0.67212 0.0
C4293 C 0.50128 0.71552 0.68949 0.0
C4294 C 0.44376 0.74895 0.67007 0.0
C4295 C 0.49992 0.68983 0.66018 0.0
C4296 C 0.4621 0.68101 0.6213 0.0
C4297 C 0.47679 0.69158 0.60789 0.0
C4298 C 0.45394 0.692 0.6392 0.0
C4299 C 0.46171 0.71299 0.64337 0.0
C4300 C 0.4693 0.72506 0.62573 0.0
C4301 C 0.4749 0.71406 0.60712 0.0
C4302 C 0.44032 0.68009 0.65508 0.0
C4303 C 0.47484 0.74862 0.62728 0.0
H4304 H 0.46923 0.75714 0.70311 0.0
H4305 H 0.51653 0.70834 0.69371 0.0
H4306 H 0.44896 0.76435 0.66281 0.0
H4307 H 0.43335 0.74029 0.65853 0.0
H4308 H 0.43442 0.75347 0.68444 0.0
H4309 H 0.51398 0.68273 0.66859 0.0
H4310 H 0.48832 0.67671 0.65757 0.0
H4311 H 0.50572 0.69692 0.64505 0.0
H4312 H 0.46001 0.6638 0.62018 0.0
H4313 H 0.48263 0.72316 0.59469 0.0
H4314 H 0.43186 0.69133 0.66591 0.0
H4315 H 0.4505 0.66902 0.66459 0.0
H4316 H 0.42828 0.67012 0.64651 0.0
H4317 H 0.4598 0.75804 0.62799 0.0
H4318 H 0.48405 0.75442 0.61318 0.0
H4319 H 0.48449 0.75208 0.64181 0.0
loop_
_geom_bond_atom_site_label_1
_geom_bond_atom_site_label_2
_geom_bond_distance
_geom_bond_site_symmetry_2
_ccdc_geom_bond_type
Eu0 N29 2.600 . S
Eu0 N35 2.562 . S
Eu0 O44 2.462 . S
Eu0 O45 2.373 . S
Eu0 O47 2.432 . S
Eu0 O48 2.291 . S
Eu0 O52 2.335 . S
Eu0 O55 2.372 . S
Eu0 C64 2.787 . S
C1 N2 1.365 . S
C1 C4 1.405 . S
C1 C8 1.448 . S
N2 C1 1.365 . S
N2 C5 1.319 . S
N2 Eu11 2.600 . S
C3 C5 1.397 . S
C3 C6 1.367 . S
C3 H23 0.931 . S
C4 C1 1.405 . S
C4 C6 1.403 . S
C4 C10 1.439 . S
C5 N2 1.319 . S
C5 C3 1.397 . S
C5 H16 0.930 . S
C6 C3 1.367 . S
C6 C4 1.403 . S
C6 H27 0.929 . S
C7 C8 1.430 . S
C7 C9 1.387 . S
C7 C13 1.404 . S
C8 C1 1.448 . S
C8 C7 1.430 . S
C8 N12 1.351 . S
C9 C7 1.387 . S
C9 C10 1.374 . S
C9 H24 0.931 . S
C10 C4 1.439 . S
C10 C9 1.374 . S
C10 H25 0.931 . S
Eu11 N2 2.600 . S
Eu11 N12 2.562 . S
Eu11 O46 2.335 . S
Eu11 O49 2.372 . S
Eu11 O50 2.462 . S
Eu11 O51 2.373 . S
Eu11 O53 2.432 . S
Eu11 O54 2.291 . S
Eu11 C75 2.787 . S
N12 C8 1.351 . S
N12 Eu11 2.562 . S
N12 C14 1.325 . S
C13 C7 1.404 . S
C13 C15 1.366 . S
C13 H21 0.930 1_455 S
C14 N12 1.325 . S
C14 C15 1.416 . S
C14 H20 0.929 . S
C15 C13 1.366 . S
C15 C14 1.416 . S
C15 H17 0.964 . S
H16 C5 0.930 . S
H17 C15 0.964 . S
H18 C33 0.930 . S
H19 C40 0.930 . S
H20 C14 0.929 . S
H21 C13 0.930 1_655 S
H22 C36 0.929 . S
H23 C3 0.931 . S
H24 C9 0.931 . S
H25 C10 0.931 . S
H26 C31 0.931 . S
H27 C6 0.929 . S
H28 C39 0.930 . S
N29 Eu0 2.600 . S
N29 C30 1.365 . S
N29 C33 1.319 . S
C30 N29 1.365 . S
C30 C32 1.405 . S
C30 C38 1.448 . S
C31 H26 0.931 . S
C31 C33 1.397 . S
C31 C34 1.367 . S
C32 C30 1.405 . S
C32 C34 1.403 . S
C32 C65 1.439 . S
C33 H18 0.930 . S
C33 N29 1.319 . S
C33 C31 1.397 . S
C34 C31 1.367 . S
C34 C32 1.403 . S
C34 H41 0.929 . S
N35 Eu0 2.562 . S
N35 C36 1.325 . S
N35 C38 1.351 . S
C36 H22 0.929 . S
C36 N35 1.325 . S
C36 C40 1.416 . S
C37 C38 1.430 . S
C37 C39 1.404 . S
C37 C66 1.387 . S
C38 C30 1.448 . S
C38 N35 1.351 . S
C38 C37 1.430 . S
C39 H28 0.930 . S
C39 C37 1.404 . S
C39 C40 1.366 . S
C40 H19 0.930 . S
C40 C36 1.416 . S
C40 C39 1.366 . S
H41 C34 0.929 . S
H42 C65 0.931 . S
H43 C66 0.931 . S
O44 Eu0 2.462 . S
O44 C64 1.252 . S
O45 Eu0 2.373 . S
O45 C56 1.249 . S
O46 Eu11 2.335 . S
O46 C56 1.264 . S
O47 Eu0 2.432 . S
O47 C64 1.268 . S
O48 Eu0 2.291 . S
O48 C63 1.255 . S
O49 Eu11 2.372 . S
O49 C63 1.257 . S
O50 Eu11 2.462 . S
O50 C75 1.252 . S
O51 Eu11 2.373 . S
O51 C67 1.249 . S
O52 Eu0 2.335 . S
O52 C67 1.264 . S
O53 Eu11 2.432 . S
O53 C75 1.268 . S
O54 Eu11 2.291 . S
O54 C74 1.255 . S
O55 Eu0 2.372 . S
O55 C74 1.257 . S
C56 O45 1.249 . S
C56 O46 1.264 . S
C57 C60 1.382 . S
C57 C62 1.390 . S
C57 C64 1.506 . S
C58 C59 1.398 . S
C58 C62 1.392 . S
C59 C58 1.398 . S
C59 C61 1.372 . S
C59 H76 0.931 . S
C60 C57 1.382 . S
C60 C61 1.390 . S
C60 H77 0.931 . S
C61 C59 1.372 . S
C61 C60 1.390 . S
C61 H78 0.929 . S
C62 C57 1.390 . S
C62 C58 1.392 . S
C62 H79 0.930 . S
C63 O48 1.255 . S
C63 O49 1.257 . S
C64 Eu0 2.787 . S
C64 O44 1.252 . S
C64 O47 1.268 . S
C64 C57 1.506 . S
C65 C32 1.439 . S
C65 H42 0.931 . S
C65 C66 1.374 . S
C66 C37 1.387 . S
C66 H43 0.931 . S
C66 C65 1.374 . S
C67 O51 1.249 . S
C67 O52 1.264 . S
C68 C71 1.382 . S
C68 C72 1.390 . S
C68 C75 1.506 . S
C69 C70 1.398 . S
C69 C72 1.392 . S
C70 C69 1.398 . S
C70 C73 1.372 . S
C70 H80 0.931 . S
C71 C68 1.382 . S
C71 C73 1.390 . S
C71 H81 0.931 . S
C72 C68 1.390 . S
C72 C69 1.392 . S
C72 H82 0.930 . S
C73 C70 1.372 . S
C73 C71 1.390 . S
C73 H83 0.929 . S
C74 O54 1.255 . S
C74 O55 1.257 . S
C75 Eu11 2.787 . S
C75 O50 1.252 . S
C75 O53 1.268 . S
C75 C68 1.506 . S
H76 C59 0.931 . S
H77 C60 0.931 . S
H78 C61 0.929 . S
H79 C62 0.930 . S
H80 C70 0.931 . S
H81 C71 0.931 . S
H82 C72 0.930 . S
H83 C73 0.929 . S
Eu84 N113 2.600 . S
Eu84 N119 2.562 . S
Eu84 O128 2.462 1_655 S
Eu84 O129 2.373 . S
Eu84 O131 2.432 . S
Eu84 O132 2.291 1_655 S
Eu84 O136 2.335 1_655 S
Eu84 O139 2.372 . S
Eu84 C148 2.787 1_655 S
C85 N86 1.365 . S
C85 C88 1.405 . S
C85 C92 1.448 . S
N86 C85 1.365 . S
N86 C89 1.319 . S
N86 Eu95 2.600 . S
C87 C89 1.397 . S
C87 C90 1.367 . S
C87 H107 0.931 . S
C88 C85 1.405 . S
C88 C90 1.403 . S
C88 C94 1.439 . S
C89 N86 1.319 . S
C89 C87 1.397 . S
C89 H100 0.930 . S
C90 C87 1.367 . S
C90 C88 1.403 . S
C90 H111 0.929 . S
C91 C92 1.430 . S
C91 C93 1.387 . S
C91 C97 1.404 . S
C92 C85 1.448 . S
C92 C91 1.430 . S
C92 N96 1.351 . S
C93 C91 1.387 . S
C93 C94 1.374 . S
C93 H108 0.931 . S
C94 C88 1.439 . S
C94 C93 1.374 . S
C94 H109 0.931 . S
Eu95 N86 2.600 . S
Eu95 N96 2.562 . S
Eu95 O130 2.335 1_455 S
Eu95 O133 2.372 . S
Eu95 O134 2.462 1_455 S
Eu95 O135 2.373 . S
Eu95 O137 2.432 . S
Eu95 O138 2.291 1_455 S
Eu95 C159 2.787 1_455 S
N96 C92 1.351 . S
N96 Eu95 2.562 . S
N96 C98 1.325 1_455 S
C97 C91 1.404 . S
C97 C99 1.337 1_455 S
C97 H105 0.930 . S
C98 N96 1.325 1_655 S
C98 C99 1.419 . S
C98 H104 0.929 . S
C99 C97 1.337 1_655 S
C99 C98 1.419 . S
C99 H101 0.955 . S
H100 C89 0.930 . S
H101 C99 0.955 . S
H102 C117 0.930 . S
H103 C124 0.966 . S
H104 C98 0.929 . S
H105 C97 0.930 . S
H106 C120 0.929 . S
H107 C87 0.931 . S
H108 C93 0.931 . S
H109 C94 0.931 . S
H110 C115 0.931 . S
H111 C90 0.929 . S
H112 C123 0.930 . S
N113 Eu84 2.600 . S
N113 C114 1.365 . S
N113 C117 1.319 . S
C114 N113 1.365 . S
C114 C116 1.405 . S
C114 C122 1.448 . S
C115 H110 0.931 . S
C115 C117 1.397 . S
C115 C118 1.367 . S
C116 C114 1.405 . S
C116 C118 1.403 . S
C116 C149 1.439 . S
C117 H102 0.930 . S
C117 N113 1.319 . S
C117 C115 1.397 . S
C118 C115 1.367 . S
C118 C116 1.403 . S
C118 H125 0.929 . S
N119 Eu84 2.562 . S
N119 C120 1.325 1_655 S
N119 C122 1.351 . S
C120 H106 0.929 . S
C120 N119 1.325 1_455 S
C120 C124 1.420 . S
C121 C122 1.430 . S
C121 C123 1.404 . S
C121 C150 1.387 . S
C122 C114 1.448 . S
C122 N119 1.351 . S
C122 C121 1.430 . S
C123 H112 0.930 . S
C123 C121 1.404 . S
C123 C124 1.325 1_655 S
C124 H103 0.966 . S
C124 C120 1.420 . S
C124 C123 1.325 1_455 S
H125 C118 0.929 . S
H126 C149 0.931 . S
H127 C150 0.931 . S
O128 Eu84 2.462 1_455 S
O128 C148 1.252 . S
O129 Eu84 2.373 . S
O129 C140 1.249 . S
O130 Eu95 2.335 1_655 S
O130 C140 1.264 . S
O131 Eu84 2.432 . S
O131 C148 1.268 1_655 S
O132 Eu84 2.291 1_455 S
O132 C147 1.255 . S
O133 Eu95 2.372 . S
O133 C147 1.257 . S
O134 Eu95 2.462 1_655 S
O134 C159 1.252 . S
O135 Eu95 2.373 . S
O135 C151 1.249 . S
O136 Eu84 2.335 1_455 S
O136 C151 1.264 . S
O137 Eu95 2.432 . S
O137 C159 1.268 1_455 S
O138 Eu95 2.291 1_655 S
O138 C158 1.255 . S
O139 Eu84 2.372 . S
O139 C158 1.257 . S
C140 O129 1.249 . S
C140 O130 1.264 . S
C141 C144 1.382 1_455 S
C141 C146 1.390 . S
C141 C148 1.506 . S
C142 C143 1.398 . S
C142 C146 1.392 . S
C143 C142 1.398 . S
C143 C145 1.372 . S
C143 H160 0.931 . S
C144 C141 1.382 1_655 S
C144 C145 1.390 1_655 S
C144 H161 0.931 . S
C145 C143 1.372 . S
C145 C144 1.390 1_455 S
C145 H162 0.929 1_455 S
C146 C141 1.390 . S
C146 C142 1.392 . S
C146 H163 0.930 . S
C147 O132 1.255 . S
C147 O133 1.257 . S
C148 Eu84 2.787 1_455 S
C148 O128 1.252 . S
C148 O131 1.268 1_455 S
C148 C141 1.506 . S
C149 C116 1.439 . S
C149 H126 0.931 . S
C149 C150 1.374 . S
C150 C121 1.387 . S
C150 H127 0.931 . S
C150 C149 1.374 . S
C151 O135 1.249 . S
C151 O136 1.264 . S
C152 C155 1.382 1_655 S
C152 C156 1.390 . S
C152 C159 1.506 . S
C153 C154 1.398 . S
C153 C156 1.392 . S
C154 C153 1.398 . S
C154 C157 1.372 . S
C154 H164 0.931 . S
C155 C152 1.382 1_455 S
C155 C157 1.390 1_455 S
C155 H165 0.931 . S
C156 C152 1.390 . S
C156 C153 1.392 . S
C156 H166 0.930 . S
C157 C154 1.372 . S
C157 C155 1.390 1_655 S
C157 H167 0.929 1_655 S
C158 O138 1.255 . S
C158 O139 1.257 . S
C159 Eu95 2.787 1_655 S
C159 O134 1.252 . S
C159 O137 1.268 1_655 S
C159 C152 1.506 . S
H160 C143 0.931 . S
H161 C144 0.931 . S
H162 C145 0.929 1_655 S
H163 C146 0.930 . S
H164 C154 0.931 . S
H165 C155 0.931 . S
H166 C156 0.930 . S
H167 C157 0.929 1_455 S
Eu168 N197 2.600 . S
Eu168 N203 2.562 . S
Eu168 O212 2.462 . S
Eu168 O213 2.373 . S
Eu168 O215 2.432 . S
Eu168 O216 2.291 . S
Eu168 O220 2.335 . S
Eu168 O223 2.372 . S
Eu168 C232 2.787 . S
C169 N170 1.365 . S
C169 C172 1.405 . S
C169 C176 1.448 . S
N170 C169 1.365 . S
N170 C173 1.319 . S
N170 Eu179 2.600 . S
C171 C173 1.397 . S
C171 C174 1.367 . S
C171 H191 0.931 . S
C172 C169 1.405 . S
C172 C174 1.403 . S
C172 C178 1.439 . S
C173 N170 1.319 . S
C173 C171 1.397 . S
C173 H184 0.930 . S
C174 C171 1.367 . S
C174 C172 1.403 . S
C174 H195 0.929 . S
C175 C176 1.430 . S
C175 C177 1.387 . S
C175 C181 1.404 . S
C176 C169 1.448 . S
C176 C175 1.430 . S
C176 N180 1.351 . S
C177 C175 1.387 . S
C177 C178 1.374 . S
C177 H192 0.931 . S
C178 C172 1.439 . S
C178 C177 1.374 . S
C178 H193 0.931 . S
Eu179 N170 2.600 . S
Eu179 N180 2.562 . S
Eu179 O214 2.335 . S
Eu179 O217 2.372 . S
Eu179 O218 2.462 . S
Eu179 O219 2.373 . S
Eu179 O221 2.432 . S
Eu179 O222 2.291 . S
Eu179 C243 2.787 . S
N180 C176 1.351 . S
N180 Eu179 2.562 . S
N180 C182 1.325 . S
C181 C175 1.404 . S
C181 C183 1.366 . S
C181 H189 0.930 . S
C182 N180 1.325 . S
C182 C183 1.416 . S
C182 H188 0.929 . S
C183 C181 1.366 . S
C183 C182 1.416 . S
C183 H185 0.930 . S
H184 C173 0.930 . S
H185 C183 0.930 . S
H186 C201 0.930 . S
H187 C208 0.930 . S
H188 C182 0.929 . S
H189 C181 0.930 . S
H190 C204 0.929 . S
H191 C171 0.931 . S
H192 C177 0.931 . S
H193 C178 0.931 . S
H194 C199 0.931 . S
H195 C174 0.929 . S
H196 C207 0.930 . S
N197 Eu168 2.600 . S
N197 C198 1.365 . S
N197 C201 1.319 . S
C198 N197 1.365 . S
C198 C200 1.405 . S
C198 C206 1.448 . S
C199 H194 0.931 . S
C199 C201 1.397 . S
C199 C202 1.367 . S
C200 C198 1.405 . S
C200 C202 1.403 . S
C200 C233 1.439 . S
C201 H186 0.930 . S
C201 N197 1.319 . S
C201 C199 1.397 . S
C202 C199 1.367 . S
C202 C200 1.403 . S
C202 H209 0.929 . S
N203 Eu168 2.562 . S
N203 C204 1.325 . S
N203 C206 1.351 . S
C204 H190 0.929 . S
C204 N203 1.325 . S
C204 C208 1.416 . S
C205 C206 1.430 . S
C205 C207 1.404 . S
C205 C234 1.387 . S
C206 C198 1.448 . S
C206 N203 1.351 . S
C206 C205 1.430 . S
C207 H196 0.930 . S
C207 C205 1.404 . S
C207 C208 1.366 . S
C208 H187 0.930 . S
C208 C204 1.416 . S
C208 C207 1.366 . S
H209 C202 0.929 . S
H210 C233 0.931 . S
H211 C234 0.931 . S
O212 Eu168 2.462 . S
O212 C232 1.252 . S
O213 Eu168 2.373 . S
O213 C224 1.249 . S
O214 Eu179 2.335 . S
O214 C224 1.264 . S
O215 Eu168 2.432 . S
O215 C232 1.268 . S
O216 Eu168 2.291 . S
O216 C231 1.255 . S
O217 Eu179 2.372 . S
O217 C231 1.257 . S
O218 Eu179 2.462 . S
O218 C243 1.252 . S
O219 Eu179 2.373 . S
O219 C235 1.249 . S
O220 Eu168 2.335 . S
O220 C235 1.264 . S
O221 Eu179 2.432 . S
O221 C243 1.268 . S
O222 Eu179 2.291 . S
O222 C242 1.255 . S
O223 Eu168 2.372 . S
O223 C242 1.257 . S
C224 O213 1.249 . S
C224 O214 1.264 . S
C225 C228 1.382 . S
C225 C230 1.390 . S
C225 C232 1.506 . S
C226 C227 1.398 . S
C226 C230 1.392 . S
C227 C226 1.398 . S
C227 C229 1.372 . S
C227 H244 0.931 . S
C228 C225 1.382 . S
C228 C229 1.390 . S
C228 H245 0.931 . S
C229 C227 1.372 . S
C229 C228 1.390 . S
C229 H246 0.929 . S
C230 C225 1.390 . S
C230 C226 1.392 . S
C230 H247 0.930 . S
C231 O216 1.255 . S
C231 O217 1.257 . S
C232 Eu168 2.787 . S
C232 O212 1.252 . S
C232 O215 1.268 . S
C232 C225 1.506 . S
C233 C200 1.439 . S
C233 H210 0.931 . S
C233 C234 1.374 . S
C234 C205 1.387 . S
C234 H211 0.931 . S
C234 C233 1.374 . S
C235 O219 1.249 . S
C235 O220 1.264 . S
C236 C239 1.382 . S
C236 C240 1.390 . S
C236 C243 1.506 . S
C237 C238 1.398 . S
C237 C240 1.392 . S
C238 C237 1.398 . S
C238 C241 1.372 . S
C238 H248 0.931 . S
C239 C236 1.382 . S
C239 C241 1.390 . S
C239 H249 0.931 . S
C240 C236 1.390 . S
C240 C237 1.392 . S
C240 H250 0.930 . S
C241 C238 1.372 . S
C241 C239 1.390 . S
C241 H251 0.929 . S
C242 O222 1.255 . S
C242 O223 1.257 . S
C243 Eu179 2.787 . S
C243 O218 1.252 . S
C243 O221 1.268 . S
C243 C236 1.506 . S
H244 C227 0.931 . S
H245 C228 0.931 . S
H246 C229 0.929 . S
H247 C230 0.930 . S
H248 C238 0.931 . S
H249 C239 0.931 . S
H250 C240 0.930 . S
H251 C241 0.929 . S
Eu252 N281 2.600 . S
Eu252 N287 2.562 . S
Eu252 O296 2.462 . S
Eu252 O297 2.373 1_554 S
Eu252 O299 2.432 . S
Eu252 O300 2.291 . S
Eu252 O304 2.335 . S
Eu252 O307 2.372 . S
Eu252 C316 2.787 . S
C253 N254 1.365 . S
C253 C256 1.405 . S
C253 C260 1.448 . S
N254 C253 1.365 . S
N254 C257 1.319 . S
N254 Eu263 2.600 . S
C255 C257 1.397 . S
C255 C258 1.367 . S
C255 H275 0.931 . S
C256 C253 1.405 . S
C256 C258 1.403 . S
C256 C262 1.439 . S
C257 N254 1.319 . S
C257 C255 1.397 . S
C257 H268 0.930 . S
C258 C255 1.367 . S
C258 C256 1.403 . S
C258 H279 0.929 . S
C259 C260 1.430 . S
C259 C261 1.387 . S
C259 C265 1.404 . S
C260 C253 1.448 . S
C260 C259 1.430 . S
C260 N264 1.351 . S
C261 C259 1.387 . S
C261 C262 1.374 . S
C261 H276 0.931 . S
C262 C256 1.439 . S
C262 C261 1.374 . S
C262 H277 0.931 . S
Eu263 N254 2.600 . S
Eu263 N264 2.562 . S
Eu263 O298 2.335 . S
Eu263 O301 2.372 . S
Eu263 O302 2.462 . S
Eu263 O303 2.373 1_556 S
Eu263 O305 2.432 . S
Eu263 O306 2.291 . S
Eu263 C327 2.787 . S
N264 C260 1.351 . S
N264 Eu263 2.562 . S
N264 C266 1.325 . S
C265 C259 1.404 . S
C265 C267 1.366 . S
C265 H273 0.930 . S
C266 N264 1.325 . S
C266 C267 1.416 . S
C266 H272 0.929 . S
C267 C265 1.366 . S
C267 C266 1.416 . S
C267 H269 0.930 . S
H268 C257 0.930 . S
H269 C267 0.930 . S
H270 C285 0.930 . S
H271 C292 0.930 . S
H272 C266 0.929 . S
H273 C265 0.930 . S
H274 C288 0.929 . S
H275 C255 0.931 . S
H276 C261 0.931 . S
H277 C262 0.931 . S
H278 C283 0.931 . S
H279 C258 0.929 . S
H280 C291 0.930 . S
N281 Eu252 2.600 . S
N281 C282 1.365 . S
N281 C285 1.319 . S
C282 N281 1.365 . S
C282 C284 1.405 . S
C282 C290 1.448 . S
C283 H278 0.931 . S
C283 C285 1.397 . S
C283 C286 1.367 . S
C284 C282 1.405 . S
C284 C286 1.403 . S
C284 C317 1.439 . S
C285 H270 0.930 . S
C285 N281 1.319 . S
C285 C283 1.397 . S
C286 C283 1.367 . S
C286 C284 1.403 . S
C286 H293 0.929 . S
N287 Eu252 2.562 . S
N287 C288 1.325 . S
N287 C290 1.351 . S
C288 H274 0.929 . S
C288 N287 1.325 . S
C288 C292 1.416 . S
C289 C290 1.430 . S
C289 C291 1.404 . S
C289 C318 1.387 . S
C290 C282 1.448 . S
C290 N287 1.351 . S
C290 C289 1.430 . S
C291 H280 0.930 . S
C291 C289 1.404 . S
C291 C292 1.366 . S
C292 H271 0.930 . S
C292 C288 1.416 . S
C292 C291 1.366 . S
H293 C286 0.929 . S
H294 C317 0.931 . S
H295 C318 0.931 . S
O296 Eu252 2.462 . S
O296 C316 1.252 . S
O297 Eu252 2.373 1_556 S
O297 C308 1.249 . S
O298 Eu263 2.335 . S
O298 C308 1.264 . S
O299 Eu252 2.432 . S
O299 C316 1.268 . S
O300 Eu252 2.291 . S
O300 C315 1.255 1_554 S
O301 Eu263 2.372 . S
O301 C315 1.257 . S
O302 Eu263 2.462 . S
O302 C327 1.252 . S
O303 Eu263 2.373 1_554 S
O303 C319 1.249 . S
O304 Eu252 2.335 . S
O304 C319 1.264 . S
O305 Eu263 2.432 . S
O305 C327 1.268 . S
O306 Eu263 2.291 . S
O306 C326 1.255 1_556 S
O307 Eu252 2.372 . S
O307 C326 1.257 . S
C308 O297 1.249 . S
C308 O298 1.264 . S
C309 C312 1.382 . S
C309 C314 1.390 . S
C309 C316 1.506 . S
C310 C311 1.398 . S
C310 C314 1.392 . S
C311 C310 1.398 . S
C311 C313 1.372 . S
C311 H328 0.931 . S
C312 C309 1.382 . S
C312 C313 1.390 . S
C312 H329 0.931 . S
C313 C311 1.372 . S
C313 C312 1.390 . S
C313 H330 0.929 . S
C314 C309 1.390 . S
C314 C310 1.392 . S
C314 H331 0.930 . S
C315 O300 1.255 1_556 S
C315 O301 1.257 . S
C316 Eu252 2.787 . S
C316 O296 1.252 . S
C316 O299 1.268 . S
C316 C309 1.506 . S
C317 C284 1.439 . S
C317 H294 0.931 . S
C317 C318 1.374 . S
C318 C289 1.387 . S
C318 H295 0.931 . S
C318 C317 1.374 . S
C319 O303 1.249 . S
C319 O304 1.264 . S
C320 C323 1.382 . S
C320 C324 1.390 . S
C320 C327 1.506 . S
C321 C322 1.398 . S
C321 C324 1.392 . S
C322 C321 1.398 . S
C322 C325 1.372 . S
C322 H332 0.931 . S
C323 C320 1.382 . S
C323 C325 1.390 . S
C323 H333 0.931 . S
C324 C320 1.390 . S
C324 C321 1.392 . S
C324 H334 0.930 . S
C325 C322 1.372 . S
C325 C323 1.390 . S
C325 H335 0.929 . S
C326 O306 1.255 1_554 S
C326 O307 1.257 . S
C327 Eu263 2.787 . S
C327 O302 1.252 . S
C327 O305 1.268 . S
C327 C320 1.506 . S
H328 C311 0.931 . S
H329 C312 0.931 . S
H330 C313 0.929 . S
H331 C314 0.930 . S
H332 C322 0.931 . S
H333 C323 0.931 . S
H334 C324 0.930 . S
H335 C325 0.929 . S
Eu336 N365 2.600 . S
Eu336 N371 2.562 . S
Eu336 O380 2.486 . S
Eu336 O381 2.373 . S
Eu336 O383 2.432 . S
Eu336 O384 2.291 . S
Eu336 O388 2.335 1_565 S
Eu336 O391 2.356 1_455 S
Eu336 C400 2.787 . S
C337 N338 1.365 . S
C337 C340 1.405 . S
C337 C344 1.448 . S
N338 C337 1.365 . S
N338 C341 1.319 . S
N338 Eu347 2.595 1_545 S
C339 C341 1.397 . S
C339 C342 1.367 . S
C339 H359 0.931 . S
C340 C337 1.405 . S
C340 C342 1.403 . S
C340 C346 1.439 . S
C341 N338 1.319 . S
C341 C339 1.397 . S
C341 H352 0.930 . S
C342 C339 1.367 . S
C342 C340 1.403 . S
C342 H363 0.929 . S
C343 C344 1.430 . S
C343 C345 1.387 . S
C343 C349 1.404 . S
C344 C337 1.448 . S
C344 C343 1.430 . S
C344 N348 1.351 . S
C345 C343 1.387 . S
C345 C346 1.374 . S
C345 H360 0.931 . S
C346 C340 1.439 . S
C346 C345 1.374 . S
C346 H361 0.931 . S
Eu347 N338 2.595 1_565 S
Eu347 N348 2.559 1_565 S
Eu347 O382 2.340 . S
Eu347 O385 2.345 1_665 S
Eu347 O386 2.464 . S
Eu347 O387 2.369 1_565 S
Eu347 O389 2.432 . S
Eu347 O390 2.293 . S
Eu347 C411 2.789 . S
N348 C344 1.351 . S
N348 Eu347 2.559 1_545 S
N348 C350 1.325 . S
C349 C343 1.404 . S
C349 C351 1.366 . S
C349 H357 0.930 . S
C350 N348 1.325 . S
C350 C351 1.416 . S
C350 H356 0.929 . S
C351 C349 1.366 . S
C351 C350 1.416 . S
C351 H353 0.930 . S
H352 C341 0.930 . S
H353 C351 0.930 . S
H354 C369 0.930 . S
H355 C376 0.930 . S
H356 C350 0.929 . S
H357 C349 0.930 . S
H358 C372 0.929 . S
H359 C339 0.931 . S
H360 C345 0.931 . S
H361 C346 0.931 . S
H362 C367 0.931 . S
H363 C342 0.929 . S
H364 C375 0.930 . S
N365 Eu336 2.600 . S
N365 C366 1.365 . S
N365 C369 1.319 . S
C366 N365 1.365 . S
C366 C368 1.405 . S
C366 C374 1.448 . S
C367 H362 0.931 . S
C367 C369 1.397 . S
C367 C370 1.367 . S
C368 C366 1.405 . S
C368 C370 1.403 . S
C368 C401 1.439 . S
C369 H354 0.930 . S
C369 N365 1.319 . S
C369 C367 1.397 . S
C370 C367 1.367 . S
C370 C368 1.403 . S
C370 H377 0.929 . S
N371 Eu336 2.562 . S
N371 C372 1.325 . S
N371 C374 1.351 . S
C372 H358 0.929 . S
C372 N371 1.325 . S
C372 C376 1.416 . S
C373 C374 1.430 . S
C373 C375 1.404 . S
C373 C402 1.387 . S
C374 C366 1.448 . S
C374 N371 1.351 . S
C374 C373 1.430 . S
C375 H364 0.930 . S
C375 C373 1.404 . S
C375 C376 1.366 . S
C376 H355 0.930 . S
C376 C372 1.416 . S
C376 C375 1.366 . S
H377 C370 0.929 . S
H378 C401 0.931 . S
H379 C402 0.931 . S
O380 Eu336 2.486 . S
O380 C400 1.262 . S
O381 Eu336 2.373 . S
O381 C392 1.249 1_455 S
O382 Eu347 2.340 . S
O382 C392 1.264 . S
O383 Eu336 2.432 . S
O383 C400 1.268 . S
O384 Eu336 2.291 . S
O384 C399 1.255 1_565 S
O385 Eu347 2.345 1_445 S
O385 C399 1.289 . S
O386 Eu347 2.464 . S
O386 C411 1.252 . S
O387 Eu347 2.369 1_545 S
O387 C403 1.249 1_655 S
O388 Eu336 2.335 1_545 S
O388 C403 1.264 . S
O389 Eu347 2.432 . S
O389 C411 1.268 . S
O390 Eu347 2.293 . S
O390 C410 1.255 . S
O391 Eu336 2.356 1_655 S
O391 C410 1.276 . S
C392 O381 1.249 1_655 S
C392 O382 1.264 . S
C393 C396 1.382 1_545 S
C393 C398 1.390 . S
C393 C400 1.506 1_545 S
C394 C395 1.398 . S
C394 C398 1.392 . S
C395 C394 1.398 . S
C395 C397 1.372 . S
C395 H412 0.931 . S
C396 C393 1.382 1_565 S
C396 C397 1.390 1_565 S
C396 H413 0.931 . S
C397 C395 1.372 . S
C397 C396 1.390 1_545 S
C397 H414 0.929 . S
C398 C393 1.390 . S
C398 C394 1.392 . S
C398 H415 0.930 . S
C399 O384 1.255 1_545 S
C399 O385 1.289 . S
C400 Eu336 2.787 . S
C400 O380 1.262 . S
C400 O383 1.268 . S
C400 C393 1.506 1_565 S
C401 C368 1.439 . S
C401 H378 0.931 . S
C401 C402 1.374 . S
C402 C373 1.387 . S
C402 H379 0.931 . S
C402 C401 1.374 . S
C403 O387 1.249 1_455 S
C403 O388 1.264 . S
C404 C407 1.382 . S
C404 C408 1.390 . S
C404 C411 1.506 . S
C405 C406 1.398 . S
C405 C408 1.392 . S
C406 C405 1.398 . S
C406 C409 1.372 . S
C406 H416 0.931 . S
C407 C404 1.382 . S
C407 C409 1.390 . S
C407 H417 0.931 . S
C408 C404 1.390 . S
C408 C405 1.392 . S
C408 H418 0.930 . S
C409 C406 1.372 . S
C409 C407 1.390 . S
C409 H419 0.929 . S
C410 O390 1.255 . S
C410 O391 1.276 . S
C411 Eu347 2.789 . S
C411 O386 1.252 . S
C411 O389 1.268 . S
C411 C404 1.506 . S
H412 C395 0.931 . S
H413 C396 0.931 . S
H414 C397 0.929 . S
H415 C398 0.930 . S
H416 C406 0.931 . S
H417 C407 0.931 . S
H418 C408 0.930 . S
H419 C409 0.929 . S
Eu420 N449 2.600 . S
Eu420 N455 2.562 . S
Eu420 O464 2.462 . S
Eu420 O465 2.373 . S
Eu420 O467 2.432 . S
Eu420 O468 2.291 . S
Eu420 O472 2.335 . S
Eu420 O475 2.372 . S
Eu420 C484 2.787 . S
C421 N422 1.365 . S
C421 C424 1.405 . S
C421 C428 1.448 . S
N422 C421 1.365 . S
N422 C425 1.319 . S
N422 Eu431 2.600 . S
C423 C425 1.397 . S
C423 C426 1.367 . S
C423 H443 0.931 . S
C424 C421 1.405 . S
C424 C426 1.403 . S
C424 C430 1.439 . S
C425 N422 1.319 . S
C425 C423 1.397 . S
C425 H436 0.930 . S
C426 C423 1.367 . S
C426 C424 1.403 . S
C426 H447 0.929 . S
C427 C428 1.430 . S
C427 C429 1.387 . S
C427 C433 1.404 . S
C428 C421 1.448 . S
C428 C427 1.430 . S
C428 N432 1.351 . S
C429 C427 1.387 . S
C429 C430 1.374 . S
C429 H444 0.931 . S
C430 C424 1.439 . S
C430 C429 1.374 . S
C430 H445 0.931 . S
Eu431 N422 2.600 . S
Eu431 N432 2.562 . S
Eu431 O466 2.335 . S
Eu431 O469 2.372 . S
Eu431 O470 2.462 . S
Eu431 O471 2.373 . S
Eu431 O473 2.432 . S
Eu431 O474 2.291 . S
Eu431 C495 2.787 . S
N432 C428 1.351 . S
N432 Eu431 2.562 . S
N432 C434 1.325 . S
C433 C427 1.404 . S
C433 C435 1.366 . S
C433 H441 0.930 . S
C434 N432 1.325 . S
C434 C435 1.416 . S
C434 H440 0.929 . S
C435 C433 1.366 . S
C435 C434 1.416 . S
C435 H437 0.930 . S
H436 C425 0.930 . S
H437 C435 0.930 . S
H438 C453 0.930 . S
H439 C460 0.930 . S
H440 C434 0.929 . S
H441 C433 0.930 . S
H442 C456 0.929 . S
H443 C423 0.931 . S
H444 C429 0.931 . S
H445 C430 0.931 . S
H446 C451 0.931 . S
H447 C426 0.929 . S
H448 C459 0.930 . S
N449 Eu420 2.600 . S
N449 C450 1.365 . S
N449 C453 1.319 . S
C450 N449 1.365 . S
C450 C452 1.405 . S
C450 C458 1.448 . S
C451 H446 0.931 . S
C451 C453 1.397 . S
C451 C454 1.367 . S
C452 C450 1.405 . S
C452 C454 1.403 . S
C452 C485 1.439 . S
C453 H438 0.930 . S
C453 N449 1.319 . S
C453 C451 1.397 . S
C454 C451 1.367 . S
C454 C452 1.403 . S
C454 H461 0.929 . S
N455 Eu420 2.562 . S
N455 C456 1.325 . S
N455 C458 1.351 . S
C456 H442 0.929 . S
C456 N455 1.325 . S
C456 C460 1.416 . S
C457 C458 1.430 . S
C457 C459 1.404 . S
C457 C486 1.387 . S
C458 C450 1.448 . S
C458 N455 1.351 . S
C458 C457 1.430 . S
C459 H448 0.930 . S
C459 C457 1.404 . S
C459 C460 1.366 . S
C460 H439 0.930 . S
C460 C456 1.416 . S
C460 C459 1.366 . S
H461 C454 0.929 . S
H462 C485 0.931 . S
H463 C486 0.931 . S
O464 Eu420 2.462 . S
O464 C484 1.252 . S
O465 Eu420 2.373 . S
O465 C476 1.249 . S
O466 Eu431 2.335 . S
O466 C476 1.264 . S
O467 Eu420 2.432 . S
O467 C484 1.268 . S
O468 Eu420 2.291 . S
O468 C483 1.255 . S
O469 Eu431 2.372 . S
O469 C483 1.257 . S
O470 Eu431 2.462 . S
O470 C495 1.252 . S
O471 Eu431 2.373 . S
O471 C487 1.249 . S
O472 Eu420 2.335 . S
O472 C487 1.264 . S
O473 Eu431 2.432 . S
O473 C495 1.268 . S
O474 Eu431 2.291 . S
O474 C494 1.255 . S
O475 Eu420 2.372 . S
O475 C494 1.257 . S
C476 O465 1.249 . S
C476 O466 1.264 . S
C477 C480 1.382 . S
C477 C482 1.390 . S
C477 C484 1.506 . S
C478 C479 1.398 . S
C478 C482 1.392 . S
C479 C478 1.398 . S
C479 C481 1.372 . S
C479 H496 0.931 . S
C480 C477 1.382 . S
C480 C481 1.390 . S
C480 H497 0.931 . S
C481 C479 1.372 . S
C481 C480 1.390 . S
C481 H498 0.929 . S
C482 C477 1.390 . S
C482 C478 1.392 . S
C482 H499 0.930 . S
C483 O468 1.255 . S
C483 O469 1.257 . S
C484 Eu420 2.787 . S
C484 O464 1.252 . S
C484 O467 1.268 . S
C484 C477 1.506 . S
C485 C452 1.439 . S
C485 H462 0.931 . S
C485 C486 1.374 . S
C486 C457 1.387 . S
C486 H463 0.931 . S
C486 C485 1.374 . S
C487 O471 1.249 . S
C487 O472 1.264 . S
C488 C491 1.382 . S
C488 C492 1.390 . S
C488 C495 1.506 . S
C489 C490 1.398 . S
C489 C492 1.392 . S
C490 C489 1.398 . S
C490 C493 1.372 . S
C490 H500 0.931 . S
C491 C488 1.382 . S
C491 C493 1.390 . S
C491 H501 0.931 . S
C492 C488 1.390 . S
C492 C489 1.392 . S
C492 H502 0.930 . S
C493 C490 1.372 . S
C493 C491 1.390 . S
C493 H503 0.929 . S
C494 O474 1.255 . S
C494 O475 1.257 . S
C495 Eu431 2.787 . S
C495 O470 1.252 . S
C495 O473 1.268 . S
C495 C488 1.506 . S
H496 C479 0.931 . S
H497 C480 0.931 . S
H498 C481 0.929 . S
H499 C482 0.930 . S
H500 C490 0.931 . S
H501 C491 0.931 . S
H502 C492 0.930 . S
H503 C493 0.929 . S
Eu504 N533 2.600 . S
Eu504 N539 2.562 . S
Eu504 O548 2.462 1_565 S
Eu504 O549 2.373 . S
Eu504 O551 2.432 . S
Eu504 O552 2.291 1_565 S
Eu504 O556 2.335 1_565 S
Eu504 O559 2.372 . S
Eu504 C568 2.787 1_565 S
C505 N506 1.365 . S
C505 C508 1.405 . S
C505 C512 1.448 . S
N506 C505 1.365 . S
N506 C509 1.319 . S
N506 Eu515 2.600 . S
C507 C509 1.397 . S
C507 C510 1.367 . S
C507 H527 0.931 . S
C508 C505 1.405 . S
C508 C510 1.403 . S
C508 C514 1.439 . S
C509 N506 1.319 . S
C509 C507 1.397 . S
C509 H520 0.930 . S
C510 C507 1.367 . S
C510 C508 1.403 . S
C510 H531 0.929 . S
C511 C512 1.430 . S
C511 C513 1.387 . S
C511 C517 1.404 . S
C512 C505 1.448 . S
C512 C511 1.430 . S
C512 N516 1.351 . S
C513 C511 1.387 . S
C513 C514 1.374 . S
C513 H528 0.931 . S
C514 C508 1.439 . S
C514 C513 1.374 . S
C514 H529 0.931 . S
Eu515 N506 2.600 . S
Eu515 N516 2.562 . S
Eu515 O550 2.335 1_545 S
Eu515 O553 2.372 . S
Eu515 O554 2.462 1_545 S
Eu515 O555 2.373 . S
Eu515 O557 2.432 . S
Eu515 O558 2.291 1_545 S
Eu515 C579 2.787 1_545 S
N516 C512 1.351 . S
N516 Eu515 2.562 . S
N516 C518 1.325 1_545 S
C517 C511 1.404 . S
C517 C519 1.318 1_545 S
C517 H525 0.930 . S
C518 N516 1.325 1_565 S
C518 C519 1.421 . S
C518 H524 0.929 . S
C519 C517 1.318 1_565 S
C519 C518 1.421 . S
C519 H521 0.972 . S
H520 C509 0.930 . S
H521 C519 0.972 . S
H522 C537 0.930 . S
H523 C544 0.930 . S
H524 C518 0.929 . S
H525 C517 0.930 . S
H526 C540 0.929 . S
H527 C507 0.931 . S
H528 C513 0.931 . S
H529 C514 0.931 . S
H530 C535 0.931 . S
H531 C510 0.929 . S
H532 C543 0.930 . S
N533 Eu504 2.600 . S
N533 C534 1.365 . S
N533 C537 1.319 . S
C534 N533 1.365 . S
C534 C536 1.405 . S
C534 C542 1.448 . S
C535 H530 0.931 . S
C535 C537 1.397 . S
C535 C538 1.367 . S
C536 C534 1.405 . S
C536 C538 1.403 . S
C536 C569 1.439 . S
C537 H522 0.930 . S
C537 N533 1.319 . S
C537 C535 1.397 . S
C538 C535 1.367 . S
C538 C536 1.403 . S
C538 H545 0.929 . S
N539 Eu504 2.562 . S
N539 C540 1.325 1_565 S
N539 C542 1.351 . S
C540 H526 0.929 . S
C540 N539 1.325 1_545 S
C540 C544 1.416 . S
C541 C542 1.430 . S
C541 C543 1.404 . S
C541 C570 1.387 . S
C542 C534 1.448 . S
C542 N539 1.351 . S
C542 C541 1.430 . S
C543 H532 0.930 . S
C543 C541 1.404 . S
C543 C544 1.366 1_565 S
C544 H523 0.930 . S
C544 C540 1.416 . S
C544 C543 1.366 1_545 S
H545 C538 0.929 . S
H546 C569 0.931 . S
H547 C570 0.931 . S
O548 Eu504 2.462 1_545 S
O548 C568 1.252 . S
O549 Eu504 2.373 . S
O549 C560 1.249 . S
O550 Eu515 2.335 1_565 S
O550 C560 1.264 . S
O551 Eu504 2.432 . S
O551 C568 1.268 1_565 S
O552 Eu504 2.291 1_545 S
O552 C567 1.255 . S
O553 Eu515 2.372 . S
O553 C567 1.257 . S
O554 Eu515 2.462 1_565 S
O554 C579 1.252 . S
O555 Eu515 2.373 . S
O555 C571 1.249 . S
O556 Eu504 2.335 1_545 S
O556 C571 1.264 . S
O557 Eu515 2.432 . S
O557 C579 1.268 1_545 S
O558 Eu515 2.291 1_565 S
O558 C578 1.255 . S
O559 Eu504 2.372 . S
O559 C578 1.257 . S
C560 O549 1.249 . S
C560 O550 1.264 . S
C561 C564 1.382 1_545 S
C561 C566 1.390 . S
C561 C568 1.506 . S
C562 C563 1.398 . S
C562 C566 1.392 . S
C563 C562 1.398 . S
C563 C565 1.372 . S
C563 H580 0.931 . S
C564 C561 1.382 1_565 S
C564 C565 1.390 1_565 S
C564 H581 0.931 . S
C565 C563 1.372 . S
C565 C564 1.390 1_545 S
C565 H582 0.929 1_545 S
C566 C561 1.390 . S
C566 C562 1.392 . S
C566 H583 0.930 . S
C567 O552 1.255 . S
C567 O553 1.257 . S
C568 Eu504 2.787 1_545 S
C568 O548 1.252 . S
C568 O551 1.268 1_545 S
C568 C561 1.506 . S
C569 C536 1.439 . S
C569 H546 0.931 . S
C569 C570 1.374 . S
C570 C541 1.387 . S
C570 H547 0.931 . S
C570 C569 1.374 . S
C571 O555 1.249 . S
C571 O556 1.264 . S
C572 C575 1.382 1_565 S
C572 C576 1.390 . S
C572 C579 1.506 . S
C573 C574 1.398 . S
C573 C576 1.392 . S
C574 C573 1.398 . S
C574 C577 1.372 . S
C574 H584 0.931 . S
C575 C572 1.382 1_545 S
C575 C577 1.390 1_545 S
C575 H585 0.931 . S
C576 C572 1.390 . S
C576 C573 1.392 . S
C576 H586 0.930 . S
C577 C574 1.372 . S
C577 C575 1.390 1_565 S
C577 H587 0.929 1_565 S
C578 O558 1.255 . S
C578 O559 1.257 . S
C579 Eu515 2.787 1_565 S
C579 O554 1.252 . S
C579 O557 1.268 1_565 S
C579 C572 1.506 . S
H580 C563 0.931 . S
H581 C564 0.931 . S
H582 C565 0.929 1_565 S
H583 C566 0.930 . S
H584 C574 0.931 . S
H585 C575 0.931 . S
H586 C576 0.930 . S
H587 C577 0.929 1_545 S
Eu588 N617 2.600 . S
Eu588 N623 2.562 . S
Eu588 O632 2.462 . S
Eu588 O633 2.373 . S
Eu588 O635 2.432 . S
Eu588 O636 2.291 . S
Eu588 O640 2.335 . S
Eu588 O643 2.372 . S
Eu588 C652 2.787 . S
C589 N590 1.365 . S
C589 C592 1.405 . S
C589 C596 1.448 . S
N590 C589 1.365 . S
N590 C593 1.319 . S
N590 Eu599 2.600 . S
C591 C593 1.397 . S
C591 C594 1.367 . S
C591 H611 0.931 . S
C592 C589 1.405 . S
C592 C594 1.403 . S
C592 C598 1.439 . S
C593 N590 1.319 . S
C593 C591 1.397 . S
C593 H604 0.930 . S
C594 C591 1.367 . S
C594 C592 1.403 . S
C594 H615 0.929 . S
C595 C596 1.430 . S
C595 C597 1.387 . S
C595 C601 1.404 . S
C596 C589 1.448 . S
C596 C595 1.430 . S
C596 N600 1.351 . S
C597 C595 1.387 . S
C597 C598 1.374 . S
C597 H612 0.931 . S
C598 C592 1.439 . S
C598 C597 1.374 . S
C598 H613 0.931 . S
Eu599 N590 2.600 . S
Eu599 N600 2.562 . S
Eu599 O634 2.335 . S
Eu599 O637 2.372 . S
Eu599 O638 2.462 . S
Eu599 O639 2.373 . S
Eu599 O641 2.432 . S
Eu599 O642 2.291 . S
Eu599 C663 2.787 . S
N600 C596 1.351 . S
N600 Eu599 2.562 . S
N600 C602 1.325 . S
C601 C595 1.404 . S
C601 C603 1.366 . S
C601 H609 0.930 . S
C602 N600 1.325 . S
C602 C603 1.416 . S
C602 H608 0.929 . S
C603 C601 1.366 . S
C603 C602 1.416 . S
C603 H605 0.930 . S
H604 C593 0.930 . S
H605 C603 0.930 . S
H606 C621 0.930 . S
H607 C628 0.930 . S
H608 C602 0.929 . S
H609 C601 0.930 . S
H610 C624 0.929 . S
H611 C591 0.931 . S
H612 C597 0.931 . S
H613 C598 0.931 . S
H614 C619 0.931 . S
H615 C594 0.929 . S
H616 C627 0.930 . S
N617 Eu588 2.600 . S
N617 C618 1.365 . S
N617 C621 1.319 . S
C618 N617 1.365 . S
C618 C620 1.405 . S
C618 C626 1.448 . S
C619 H614 0.931 . S
C619 C621 1.397 . S
C619 C622 1.367 . S
C620 C618 1.405 . S
C620 C622 1.403 . S
C620 C653 1.439 . S
C621 H606 0.930 . S
C621 N617 1.319 . S
C621 C619 1.397 . S
C622 C619 1.367 . S
C622 C620 1.403 . S
C622 H629 0.929 . S
N623 Eu588 2.562 . S
N623 C624 1.325 . S
N623 C626 1.351 . S
C624 H610 0.929 . S
C624 N623 1.325 . S
C624 C628 1.416 . S
C625 C626 1.430 . S
C625 C627 1.404 . S
C625 C654 1.387 . S
C626 C618 1.448 . S
C626 N623 1.351 . S
C626 C625 1.430 . S
C627 H616 0.930 . S
C627 C625 1.404 . S
C627 C628 1.366 . S
C628 H607 0.930 . S
C628 C624 1.416 . S
C628 C627 1.366 . S
H629 C622 0.929 . S
H630 C653 0.931 . S
H631 C654 0.931 . S
O632 Eu588 2.462 . S
O632 C652 1.252 . S
O633 Eu588 2.373 . S
O633 C644 1.249 . S
O634 Eu599 2.335 . S
O634 C644 1.264 . S
O635 Eu588 2.432 . S
O635 C652 1.268 . S
O636 Eu588 2.291 . S
O636 C651 1.255 . S
O637 Eu599 2.372 . S
O637 C651 1.257 . S
O638 Eu599 2.462 . S
O638 C663 1.252 . S
O639 Eu599 2.373 . S
O639 C655 1.249 . S
O640 Eu588 2.335 . S
O640 C655 1.264 . S
O641 Eu599 2.432 . S
O641 C663 1.268 . S
O642 Eu599 2.291 . S
O642 C662 1.255 . S
O643 Eu588 2.372 . S
O643 C662 1.257 . S
C644 O633 1.249 . S
C644 O634 1.264 . S
C645 C648 1.382 . S
C645 C650 1.390 . S
C645 C652 1.506 . S
C646 C647 1.398 . S
C646 C650 1.392 . S
C647 C646 1.398 . S
C647 C649 1.372 . S
C647 H664 0.931 . S
C648 C645 1.382 . S
C648 C649 1.390 . S
C648 H665 0.931 . S
C649 C647 1.372 . S
C649 C648 1.390 . S
C649 H666 0.929 . S
C650 C645 1.390 . S
C650 C646 1.392 . S
C650 H667 0.930 . S
C651 O636 1.255 . S
C651 O637 1.257 . S
C652 Eu588 2.787 . S
C652 O632 1.252 . S
C652 O635 1.268 . S
C652 C645 1.506 . S
C653 C620 1.439 . S
C653 H630 0.931 . S
C653 C654 1.374 . S
C654 C625 1.387 . S
C654 H631 0.931 . S
C654 C653 1.374 . S
C655 O639 1.249 . S
C655 O640 1.264 . S
C656 C659 1.382 . S
C656 C660 1.390 . S
C656 C663 1.506 . S
C657 C658 1.398 . S
C657 C660 1.392 . S
C658 C657 1.398 . S
C658 C661 1.372 . S
C658 H668 0.931 . S
C659 C656 1.382 . S
C659 C661 1.390 . S
C659 H669 0.931 . S
C660 C656 1.390 . S
C660 C657 1.392 . S
C660 H670 0.930 . S
C661 C658 1.372 . S
C661 C659 1.390 . S
C661 H671 0.929 . S
C662 O642 1.255 . S
C662 O643 1.257 . S
C663 Eu599 2.787 . S
C663 O638 1.252 . S
C663 O641 1.268 . S
C663 C656 1.506 . S
H664 C647 0.931 . S
H665 C648 0.931 . S
H666 C649 0.929 . S
H667 C650 0.930 . S
H668 C658 0.931 . S
H669 C659 0.931 . S
H670 C660 0.930 . S
H671 C661 0.929 . S
Eu672 N701 2.600 . S
Eu672 N707 2.562 . S
Eu672 O716 2.462 . S
Eu672 O717 2.373 . S
Eu672 O719 2.432 . S
Eu672 O720 2.291 . S
Eu672 O724 2.335 . S
Eu672 O727 2.372 . S
Eu672 C736 2.787 . S
C673 N674 1.365 . S
C673 C676 1.405 . S
C673 C680 1.448 . S
N674 C673 1.365 . S
N674 C677 1.319 . S
N674 Eu683 2.600 . S
C675 C677 1.397 . S
C675 C678 1.367 . S
C675 H695 0.931 . S
C676 C673 1.405 . S
C676 C678 1.403 . S
C676 C682 1.439 . S
C677 N674 1.319 . S
C677 C675 1.397 . S
C677 H688 0.930 . S
C678 C675 1.367 . S
C678 C676 1.403 . S
C678 H699 0.929 . S
C679 C680 1.430 . S
C679 C681 1.387 . S
C679 C685 1.404 . S
C680 C673 1.448 . S
C680 C679 1.430 . S
C680 N684 1.351 . S
C681 C679 1.387 . S
C681 C682 1.374 . S
C681 H696 0.931 . S
C682 C676 1.439 . S
C682 C681 1.374 . S
C682 H697 0.931 . S
Eu683 N674 2.600 . S
Eu683 N684 2.562 . S
Eu683 O718 2.335 . S
Eu683 O721 2.372 . S
Eu683 O722 2.462 . S
Eu683 O723 2.373 . S
Eu683 O725 2.432 . S
Eu683 O726 2.291 . S
Eu683 C747 2.787 . S
N684 C680 1.351 . S
N684 Eu683 2.562 . S
N684 C686 1.325 . S
C685 C679 1.404 . S
C685 C687 1.366 . S
C685 H693 0.930 . S
C686 N684 1.325 . S
C686 C687 1.416 . S
C686 H692 0.929 . S
C687 C685 1.366 . S
C687 C686 1.416 . S
C687 H689 0.930 . S
H688 C677 0.930 . S
H689 C687 0.930 . S
H690 C705 0.930 . S
H691 C712 0.930 . S
H692 C686 0.929 . S
H693 C685 0.930 . S
H694 C708 0.929 . S
H695 C675 0.931 . S
H696 C681 0.931 . S
H697 C682 0.931 . S
H698 C703 0.931 . S
H699 C678 0.929 . S
H700 C711 0.930 . S
N701 Eu672 2.600 . S
N701 C702 1.365 . S
N701 C705 1.319 . S
C702 N701 1.365 . S
C702 C704 1.405 . S
C702 C710 1.448 . S
C703 H698 0.931 . S
C703 C705 1.397 . S
C703 C706 1.367 . S
C704 C702 1.405 . S
C704 C706 1.403 . S
C704 C737 1.439 . S
C705 H690 0.930 . S
C705 N701 1.319 . S
C705 C703 1.397 . S
C706 C703 1.367 . S
C706 C704 1.403 . S
C706 H713 0.929 . S
N707 Eu672 2.562 . S
N707 C708 1.325 . S
N707 C710 1.351 . S
C708 H694 0.929 . S
C708 N707 1.325 . S
C708 C712 1.416 . S
C709 C710 1.430 . S
C709 C711 1.404 . S
C709 C738 1.387 . S
C710 C702 1.448 . S
C710 N707 1.351 . S
C710 C709 1.430 . S
C711 H700 0.930 . S
C711 C709 1.404 . S
C711 C712 1.366 . S
C712 H691 0.930 . S
C712 C708 1.416 . S
C712 C711 1.366 . S
H713 C706 0.929 . S
H714 C737 0.931 . S
H715 C738 0.931 . S
O716 Eu672 2.462 . S
O716 C736 1.252 . S
O717 Eu672 2.373 . S
O717 C728 1.249 . S
O718 Eu683 2.335 . S
O718 C728 1.264 . S
O719 Eu672 2.432 . S
O719 C736 1.268 . S
O720 Eu672 2.291 . S
O720 C735 1.255 . S
O721 Eu683 2.372 . S
O721 C735 1.257 . S
O722 Eu683 2.462 . S
O722 C747 1.252 . S
O723 Eu683 2.373 . S
O723 C739 1.249 . S
O724 Eu672 2.335 . S
O724 C739 1.264 . S
O725 Eu683 2.432 . S
O725 C747 1.268 . S
O726 Eu683 2.291 . S
O726 C746 1.255 . S
O727 Eu672 2.372 . S
O727 C746 1.257 . S
C728 O717 1.249 . S
C728 O718 1.264 . S
C729 C732 1.382 . S
C729 C734 1.390 . S
C729 C736 1.506 . S
C730 C731 1.398 . S
C730 C734 1.392 . S
C731 C730 1.398 . S
C731 C733 1.372 . S
C731 H748 0.931 . S
C732 C729 1.382 . S
C732 C733 1.390 . S
C732 H749 0.931 . S
C733 C731 1.372 . S
C733 C732 1.390 . S
C733 H750 0.929 . S
C734 C729 1.390 . S
C734 C730 1.392 . S
C734 H751 0.930 . S
C735 O720 1.255 . S
C735 O721 1.257 . S
C736 Eu672 2.787 . S
C736 O716 1.252 . S
C736 O719 1.268 . S
C736 C729 1.506 . S
C737 C704 1.439 . S
C737 H714 0.931 . S
C737 C738 1.374 . S
C738 C709 1.387 . S
C738 H715 0.931 . S
C738 C737 1.374 . S
C739 O723 1.249 . S
C739 O724 1.264 . S
C740 C743 1.382 . S
C740 C744 1.390 . S
C740 C747 1.506 . S
C741 C742 1.398 . S
C741 C744 1.392 . S
C742 C741 1.398 . S
C742 C745 1.372 . S
C742 H752 0.931 . S
C743 C740 1.382 . S
C743 C745 1.390 . S
C743 H753 0.931 . S
C744 C740 1.390 . S
C744 C741 1.392 . S
C744 H754 0.930 . S
C745 C742 1.372 . S
C745 C743 1.390 . S
C745 H755 0.929 . S
C746 O726 1.255 . S
C746 O727 1.257 . S
C747 Eu683 2.787 . S
C747 O722 1.252 . S
C747 O725 1.268 . S
C747 C740 1.506 . S
H748 C731 0.931 . S
H749 C732 0.931 . S
H750 C733 0.929 . S
H751 C734 0.930 . S
H752 C742 0.931 . S
H753 C743 0.931 . S
H754 C744 0.930 . S
H755 C745 0.929 . S
Eu756 N785 2.600 . S
Eu756 N791 2.562 . S
Eu756 O800 2.462 . S
Eu756 O801 2.373 1_545 S
Eu756 O803 2.432 . S
Eu756 O804 2.291 . S
Eu756 O808 2.335 . S
Eu756 O811 2.372 . S
Eu756 C820 2.787 . S
C757 N758 1.365 . S
C757 C760 1.405 . S
C757 C764 1.448 . S
N758 C757 1.365 . S
N758 C761 1.319 . S
N758 Eu767 2.600 . S
C759 C761 1.397 . S
C759 C762 1.367 . S
C759 H779 0.931 . S
C760 C757 1.405 . S
C760 C762 1.403 . S
C760 C766 1.439 . S
C761 N758 1.319 . S
C761 C759 1.397 . S
C761 H772 0.930 . S
C762 C759 1.367 . S
C762 C760 1.403 . S
C762 H783 0.929 . S
C763 C764 1.430 . S
C763 C765 1.387 . S
C763 C769 1.404 . S
C764 C757 1.448 . S
C764 C763 1.430 . S
C764 N768 1.351 . S
C765 C763 1.387 . S
C765 C766 1.374 . S
C765 H780 0.931 . S
C766 C760 1.439 . S
C766 C765 1.374 . S
C766 H781 0.931 . S
Eu767 N758 2.600 . S
Eu767 N768 2.562 . S
Eu767 O802 2.335 . S
Eu767 O805 2.372 . S
Eu767 O806 2.462 . S
Eu767 O807 2.373 1_565 S
Eu767 O809 2.432 . S
Eu767 O810 2.291 . S
Eu767 C831 2.787 . S
N768 C764 1.351 . S
N768 Eu767 2.562 . S
N768 C770 1.325 . S
C769 C763 1.404 . S
C769 C771 1.366 . S
C769 H777 0.930 . S
C770 N768 1.325 . S
C770 C771 1.416 . S
C770 H776 0.929 . S
C771 C769 1.366 . S
C771 C770 1.416 . S
C771 H773 0.930 . S
H772 C761 0.930 . S
H773 C771 0.930 . S
H774 C789 0.930 . S
H775 C796 0.930 . S
H776 C770 0.929 . S
H777 C769 0.930 . S
H778 C792 0.929 . S
H779 C759 0.931 . S
H780 C765 0.931 . S
H781 C766 0.931 . S
H782 C787 0.931 . S
H783 C762 0.929 . S
H784 C795 0.930 . S
N785 Eu756 2.600 . S
N785 C786 1.365 . S
N785 C789 1.319 . S
C786 N785 1.365 . S
C786 C788 1.405 . S
C786 C794 1.448 . S
C787 H782 0.931 . S
C787 C789 1.397 . S
C787 C790 1.367 . S
C788 C786 1.405 . S
C788 C790 1.403 . S
C788 C821 1.439 . S
C789 H774 0.930 . S
C789 N785 1.319 . S
C789 C787 1.397 . S
C790 C787 1.367 . S
C790 C788 1.403 . S
C790 H797 0.929 . S
N791 Eu756 2.562 . S
N791 C792 1.325 . S
N791 C794 1.351 . S
C792 H778 0.929 . S
C792 N791 1.325 . S
C792 C796 1.416 . S
C793 C794 1.430 . S
C793 C795 1.404 . S
C793 C822 1.387 . S
C794 C786 1.448 . S
C794 N791 1.351 . S
C794 C793 1.430 . S
C795 H784 0.930 . S
C795 C793 1.404 . S
C795 C796 1.366 . S
C796 H775 0.930 . S
C796 C792 1.416 . S
C796 C795 1.366 . S
H797 C790 0.929 . S
H798 C821 0.931 . S
H799 C822 0.931 . S
O800 Eu756 2.462 . S
O800 C820 1.252 . S
O801 Eu756 2.373 1_565 S
O801 C812 1.249 . S
O802 Eu767 2.335 . S
O802 C812 1.264 . S
O803 Eu756 2.432 . S
O803 C820 1.268 . S
O804 Eu756 2.291 . S
O804 C819 1.255 1_545 S
O805 Eu767 2.372 . S
O805 C819 1.257 . S
O806 Eu767 2.462 . S
O806 C831 1.252 . S
O807 Eu767 2.373 1_545 S
O807 C823 1.249 . S
O808 Eu756 2.335 . S
O808 C823 1.264 . S
O809 Eu767 2.432 . S
O809 C831 1.268 . S
O810 Eu767 2.291 . S
O810 C830 1.255 1_565 S
O811 Eu756 2.372 . S
O811 C830 1.257 . S
C812 O801 1.249 . S
C812 O802 1.264 . S
C813 C816 1.382 . S
C813 C818 1.390 . S
C813 C820 1.506 . S
C814 C815 1.398 . S
C814 C818 1.392 . S
C815 C814 1.398 . S
C815 C817 1.372 . S
C815 H832 0.931 . S
C816 C813 1.382 . S
C816 C817 1.390 . S
C816 H833 0.931 . S
C817 C815 1.372 . S
C817 C816 1.390 . S
C817 H834 0.929 . S
C818 C813 1.390 . S
C818 C814 1.392 . S
C818 H835 0.930 . S
C819 O804 1.255 1_565 S
C819 O805 1.257 . S
C820 Eu756 2.787 . S
C820 O800 1.252 . S
C820 O803 1.268 . S
C820 C813 1.506 . S
C821 C788 1.439 . S
C821 H798 0.931 . S
C821 C822 1.374 . S
C822 C793 1.387 . S
C822 H799 0.931 . S
C822 C821 1.374 . S
C823 O807 1.249 . S
C823 O808 1.264 . S
C824 C827 1.382 . S
C824 C828 1.390 . S
C824 C831 1.506 . S
C825 C826 1.398 . S
C825 C828 1.392 . S
C826 C825 1.398 . S
C826 C829 1.372 . S
C826 H836 0.931 . S
C827 C824 1.382 . S
C827 C829 1.390 . S
C827 H837 0.931 . S
C828 C824 1.390 . S
C828 C825 1.392 . S
C828 H838 0.930 . S
C829 C826 1.372 . S
C829 C827 1.390 . S
C829 H839 0.929 . S
C830 O810 1.255 1_545 S
C830 O811 1.257 . S
C831 Eu767 2.787 . S
C831 O806 1.252 . S
C831 O809 1.268 . S
C831 C824 1.506 . S
H832 C815 0.931 . S
H833 C816 0.931 . S
H834 C817 0.929 . S
H835 C818 0.930 . S
H836 C826 0.931 . S
H837 C827 0.931 . S
H838 C828 0.930 . S
H839 C829 0.929 . S
Eu840 N869 2.600 . S
Eu840 N875 2.562 . S
Eu840 O884 2.462 . S
Eu840 O885 2.373 . S
Eu840 O887 2.432 . S
Eu840 O888 2.291 . S
Eu840 O892 2.335 . S
Eu840 O895 2.372 . S
Eu840 C904 2.787 . S
C841 N842 1.365 . S
C841 C844 1.405 . S
C841 C848 1.448 . S
N842 C841 1.365 . S
N842 C845 1.319 . S
N842 Eu851 2.600 . S
C843 C845 1.397 . S
C843 C846 1.367 . S
C843 H863 0.931 . S
C844 C841 1.405 . S
C844 C846 1.403 . S
C844 C850 1.439 . S
C845 N842 1.319 . S
C845 C843 1.397 . S
C845 H856 0.930 . S
C846 C843 1.367 . S
C846 C844 1.403 . S
C846 H867 0.929 . S
C847 C848 1.430 . S
C847 C849 1.387 . S
C847 C853 1.404 . S
C848 C841 1.448 . S
C848 C847 1.430 . S
C848 N852 1.351 . S
C849 C847 1.387 . S
C849 C850 1.374 . S
C849 H864 0.931 . S
C850 C844 1.439 . S
C850 C849 1.374 . S
C850 H865 0.931 . S
Eu851 N842 2.600 . S
Eu851 N852 2.562 . S
Eu851 O886 2.335 . S
Eu851 O889 2.372 . S
Eu851 O890 2.462 . S
Eu851 O891 2.373 . S
Eu851 O893 2.432 . S
Eu851 O894 2.291 . S
Eu851 C915 2.787 . S
N852 C848 1.351 . S
N852 Eu851 2.562 . S
N852 C854 1.325 . S
C853 C847 1.404 . S
C853 C855 1.366 . S
C853 H861 0.930 1_565 S
C854 N852 1.325 . S
C854 C855 1.416 . S
C854 H860 0.929 . S
C855 C853 1.366 . S
C855 C854 1.416 . S
C855 H857 0.902 1_565 S
H856 C845 0.930 . S
H857 C855 0.902 1_545 S
H858 C873 0.930 . S
H859 C880 0.930 . S
H860 C854 0.929 . S
H861 C853 0.930 1_545 S
H862 C876 0.929 . S
H863 C843 0.931 . S
H864 C849 0.931 . S
H865 C850 0.931 . S
H866 C871 0.931 . S
H867 C846 0.929 . S
H868 C879 0.930 . S
N869 Eu840 2.600 . S
N869 C870 1.365 . S
N869 C873 1.319 . S
C870 N869 1.365 . S
C870 C872 1.405 . S
C870 C878 1.448 . S
C871 H866 0.931 . S
C871 C873 1.397 . S
C871 C874 1.367 . S
C872 C870 1.405 . S
C872 C874 1.403 . S
C872 C905 1.439 . S
C873 H858 0.930 . S
C873 N869 1.319 . S
C873 C871 1.397 . S
C874 C871 1.367 . S
C874 C872 1.403 . S
C874 H881 0.929 . S
N875 Eu840 2.562 . S
N875 C876 1.325 . S
N875 C878 1.351 . S
C876 H862 0.929 . S
C876 N875 1.325 . S
C876 C880 1.416 . S
C877 C878 1.430 . S
C877 C879 1.404 . S
C877 C906 1.387 . S
C878 C870 1.448 . S
C878 N875 1.351 . S
C878 C877 1.430 . S
C879 H868 0.930 . S
C879 C877 1.404 . S
C879 C880 1.366 . S
C880 H859 0.930 . S
C880 C876 1.416 . S
C880 C879 1.366 . S
H881 C874 0.929 . S
H882 C905 0.931 . S
H883 C906 0.931 . S
O884 Eu840 2.462 . S
O884 C904 1.252 . S
O885 Eu840 2.373 . S
O885 C896 1.249 . S
O886 Eu851 2.335 . S
O886 C896 1.264 . S
O887 Eu840 2.432 . S
O887 C904 1.268 . S
O888 Eu840 2.291 . S
O888 C903 1.255 . S
O889 Eu851 2.372 . S
O889 C903 1.257 . S
O890 Eu851 2.462 . S
O890 C915 1.252 . S
O891 Eu851 2.373 . S
O891 C907 1.249 . S
O892 Eu840 2.335 . S
O892 C907 1.264 . S
O893 Eu851 2.432 . S
O893 C915 1.268 . S
O894 Eu851 2.291 . S
O894 C914 1.255 . S
O895 Eu840 2.372 . S
O895 C914 1.257 . S
C896 O885 1.249 . S
C896 O886 1.264 . S
C897 C900 1.382 . S
C897 C902 1.390 . S
C897 C904 1.506 . S
C898 C899 1.398 . S
C898 C902 1.392 . S
C899 C898 1.398 . S
C899 C901 1.372 . S
C899 H916 0.931 . S
C900 C897 1.382 . S
C900 C901 1.390 . S
C900 H917 0.931 . S
C901 C899 1.372 . S
C901 C900 1.390 . S
C901 H918 0.929 . S
C902 C897 1.390 . S
C902 C898 1.392 . S
C902 H919 0.930 . S
C903 O888 1.255 . S
C903 O889 1.257 . S
C904 Eu840 2.787 . S
C904 O884 1.252 . S
C904 O887 1.268 . S
C904 C897 1.506 . S
C905 C872 1.439 . S
C905 H882 0.931 . S
C905 C906 1.374 . S
C906 C877 1.387 . S
C906 H883 0.931 . S
C906 C905 1.374 . S
C907 O891 1.249 . S
C907 O892 1.264 . S
C908 C911 1.382 . S
C908 C912 1.390 . S
C908 C915 1.506 . S
C909 C910 1.398 . S
C909 C912 1.392 . S
C910 C909 1.398 . S
C910 C913 1.372 . S
C910 H920 0.931 . S
C911 C908 1.382 . S
C911 C913 1.390 . S
C911 H921 0.931 . S
C912 C908 1.390 . S
C912 C909 1.392 . S
C912 H922 0.930 . S
C913 C910 1.372 . S
C913 C911 1.390 . S
C913 H923 0.929 . S
C914 O894 1.255 . S
C914 O895 1.257 . S
C915 Eu851 2.787 . S
C915 O890 1.252 . S
C915 O893 1.268 . S
C915 C908 1.506 . S
H916 C899 0.931 . S
H917 C900 0.931 . S
H918 C901 0.929 . S
H919 C902 0.930 . S
H920 C910 0.931 . S
H921 C911 0.931 . S
H922 C912 0.930 . S
H923 C913 0.929 . S
Eu924 N953 2.601 1_556 S
Eu924 N959 2.562 1_556 S
Eu924 O968 2.461 . S
Eu924 O969 2.373 1_566 S
Eu924 O971 2.432 1_556 S
Eu924 O972 2.290 . S
Eu924 O976 2.335 . S
Eu924 O979 2.372 1_556 S
Eu924 C988 2.786 . S
C925 N926 1.365 . S
C925 C928 1.405 . S
C925 C932 1.448 . S
N926 C925 1.365 . S
N926 C929 1.319 . S
N926 Eu935 2.600 . S
C927 C929 1.397 . S
C927 C930 1.367 . S
C927 H947 0.931 . S
C928 C925 1.405 . S
C928 C930 1.403 . S
C928 C934 1.439 . S
C929 N926 1.319 . S
C929 C927 1.397 . S
C929 H940 0.930 . S
C930 C927 1.367 . S
C930 C928 1.403 . S
C930 H951 0.929 . S
C931 C932 1.430 . S
C931 C933 1.387 . S
C931 C937 1.404 . S
C932 C925 1.448 . S
C932 C931 1.430 . S
C932 N936 1.351 . S
C933 C931 1.387 . S
C933 C934 1.374 . S
C933 H948 0.931 . S
C934 C928 1.439 . S
C934 C933 1.374 . S
C934 H949 0.931 . S
Eu935 N926 2.600 . S
Eu935 N936 2.562 . S
Eu935 O970 2.349 . S
Eu935 O973 2.372 . S
Eu935 O974 2.462 1_556 S
Eu935 O975 2.373 1_545 S
Eu935 O977 2.432 . S
Eu935 O978 2.291 1_556 S
Eu935 C999 2.787 . S
N936 C932 1.351 . S
N936 Eu935 2.562 . S
N936 C938 1.325 . S
C937 C931 1.404 . S
C937 C939 1.366 . S
C937 H945 0.930 . S
C938 N936 1.325 . S
C938 C939 1.416 . S
C938 H944 0.929 1_556 S
C939 C937 1.366 . S
C939 C938 1.416 . S
C939 H941 0.930 . S
H940 C929 0.930 . S
H941 C939 0.930 . S
H942 C957 0.930 . S
H943 C964 0.930 . S
H944 C938 0.929 1_554 S
H945 C937 0.930 . S
H946 C960 0.929 . S
H947 C927 0.931 . S
H948 C933 0.931 . S
H949 C934 0.931 . S
H950 C955 0.931 . S
H951 C930 0.929 . S
H952 C963 0.930 . S
N953 Eu924 2.601 1_554 S
N953 C954 1.365 . S
N953 C957 1.319 . S
C954 N953 1.365 . S
C954 C956 1.405 . S
C954 C962 1.448 . S
C955 H950 0.931 . S
C955 C957 1.397 . S
C955 C958 1.367 . S
C956 C954 1.405 . S
C956 C958 1.403 . S
C956 C989 1.439 . S
C957 H942 0.930 . S
C957 N953 1.319 . S
C957 C955 1.397 . S
C958 C955 1.367 . S
C958 C956 1.403 . S
C958 H965 0.929 . S
N959 Eu924 2.562 1_554 S
N959 C960 1.325 1_554 S
N959 C962 1.351 . S
C960 H946 0.929 . S
C960 N959 1.325 1_556 S
C960 C964 1.416 . S
C961 C962 1.430 . S
C961 C963 1.404 . S
C961 C990 1.387 . S
C962 C954 1.448 . S
C962 N959 1.351 . S
C962 C961 1.430 . S
C963 H952 0.930 . S
C963 C961 1.404 . S
C963 C964 1.366 1_554 S
C964 H943 0.930 . S
C964 C960 1.416 . S
C964 C963 1.366 1_556 S
H965 C958 0.929 . S
H966 C989 0.931 . S
H967 C990 0.931 . S
O968 Eu924 2.461 . S
O968 C988 1.252 . S
O969 Eu924 2.373 1_544 S
O969 C980 1.249 . S
O970 Eu935 2.349 . S
O970 C980 1.251 1_556 S
O971 Eu924 2.432 1_554 S
O971 C988 1.268 1_554 S
O972 Eu924 2.290 . S
O972 C987 1.255 1_565 S
O973 Eu935 2.372 . S
O973 C987 1.257 . S
O974 Eu935 2.462 1_554 S
O974 C999 1.252 1_554 S
O975 Eu935 2.373 1_565 S
O975 C991 1.249 . S
O976 Eu924 2.335 . S
O976 C991 1.264 . S
O977 Eu935 2.432 . S
O977 C999 1.268 . S
O978 Eu935 2.291 1_554 S
O978 C998 1.255 1_545 S
O979 Eu924 2.372 1_554 S
O979 C998 1.257 . S
C980 O969 1.249 . S
C980 O970 1.251 1_554 S
C981 C984 1.382 . S
C981 C986 1.390 . S
C981 C988 1.506 . S
C982 C983 1.398 . S
C982 C986 1.392 . S
C983 C982 1.398 . S
C983 C985 1.372 . S
C983 H1000 0.931 . S
C984 C981 1.382 . S
C984 C985 1.390 . S
C984 H1001 0.931 1_556 S
C985 C983 1.372 . S
C985 C984 1.390 . S
C985 H1002 0.929 . S
C986 C981 1.390 . S
C986 C982 1.392 . S
C986 H1003 0.930 . S
C987 O972 1.255 1_545 S
C987 O973 1.257 . S
C988 Eu924 2.786 . S
C988 O968 1.252 . S
C988 O971 1.268 1_556 S
C988 C981 1.506 . S
C989 C956 1.439 . S
C989 H966 0.931 . S
C989 C990 1.374 . S
C990 C961 1.387 . S
C990 H967 0.931 . S
C990 C989 1.374 . S
C991 O975 1.249 . S
C991 O976 1.264 . S
C992 C995 1.382 . S
C992 C996 1.390 1_556 S
C992 C999 1.506 . S
C993 C994 1.398 . S
C993 C996 1.392 . S
C994 C993 1.398 . S
C994 C997 1.372 1_554 S
C994 H1004 0.931 . S
C995 C992 1.382 . S
C995 C997 1.390 . S
C995 H1005 0.931 . S
C996 C992 1.390 1_554 S
C996 C993 1.392 . S
C996 H1006 0.930 . S
C997 C994 1.372 1_556 S
C997 C995 1.390 . S
C997 H1007 0.929 . S
C998 O978 1.255 1_565 S
C998 O979 1.257 . S
C999 Eu935 2.787 . S
C999 O974 1.252 1_556 S
C999 O977 1.268 . S
C999 C992 1.506 . S
H1000 C983 0.931 . S
H1001 C984 0.931 1_554 S
H1002 C985 0.929 . S
H1003 C986 0.930 . S
H1004 C994 0.931 . S
H1005 C995 0.931 . S
H1006 C996 0.930 . S
H1007 C997 0.929 . S
Eu1008 N1037 2.600 . S
Eu1008 N1043 2.562 . S
Eu1008 O1052 2.462 . S
Eu1008 O1053 2.373 . S
Eu1008 O1055 2.432 . S
Eu1008 O1056 2.291 . S
Eu1008 O1060 2.335 . S
Eu1008 O1063 2.372 . S
Eu1008 C1072 2.787 . S
C1009 N1010 1.365 . S
C1009 C1012 1.405 . S
C1009 C1016 1.448 . S
N1010 C1009 1.365 . S
N1010 C1013 1.319 . S
N1010 Eu1019 2.600 . S
C1011 C1013 1.397 . S
C1011 C1014 1.367 . S
C1011 H1031 0.931 . S
C1012 C1009 1.405 . S
C1012 C1014 1.403 . S
C1012 C1018 1.439 . S
C1013 N1010 1.319 . S
C1013 C1011 1.397 . S
C1013 H1024 0.930 . S
C1014 C1011 1.367 . S
C1014 C1012 1.403 . S
C1014 H1035 0.929 . S
C1015 C1016 1.430 . S
C1015 C1017 1.387 . S
C1015 C1021 1.404 . S
C1016 C1009 1.448 . S
C1016 C1015 1.430 . S
C1016 N1020 1.351 . S
C1017 C1015 1.387 . S
C1017 C1018 1.374 . S
C1017 H1032 0.931 . S
C1018 C1012 1.439 . S
C1018 C1017 1.374 . S
C1018 H1033 0.931 . S
Eu1019 N1010 2.600 . S
Eu1019 N1020 2.562 . S
Eu1019 O1054 2.335 . S
Eu1019 O1057 2.372 . S
Eu1019 O1058 2.462 . S
Eu1019 O1059 2.373 . S
Eu1019 O1061 2.432 . S
Eu1019 O1062 2.291 . S
Eu1019 C1083 2.787 . S
N1020 C1016 1.351 . S
N1020 Eu1019 2.562 . S
N1020 C1022 1.325 . S
C1021 C1015 1.404 . S
C1021 C1023 1.366 . S
C1021 H1029 0.930 . S
C1022 N1020 1.325 . S
C1022 C1023 1.416 . S
C1022 H1028 0.929 . S
C1023 C1021 1.366 . S
C1023 C1022 1.416 . S
C1023 H1025 0.930 . S
H1024 C1013 0.930 . S
H1025 C1023 0.930 . S
H1026 C1041 0.930 . S
H1027 C1048 0.930 . S
H1028 C1022 0.929 . S
H1029 C1021 0.930 . S
H1030 C1044 0.929 . S
H1031 C1011 0.931 . S
H1032 C1017 0.931 . S
H1033 C1018 0.931 . S
H1034 C1039 0.931 . S
H1035 C1014 0.929 . S
H1036 C1047 0.930 . S
N1037 Eu1008 2.600 . S
N1037 C1038 1.365 . S
N1037 C1041 1.319 . S
C1038 N1037 1.365 . S
C1038 C1040 1.405 . S
C1038 C1046 1.448 . S
C1039 H1034 0.931 . S
C1039 C1041 1.397 . S
C1039 C1042 1.367 . S
C1040 C1038 1.405 . S
C1040 C1042 1.403 . S
C1040 C1073 1.439 . S
C1041 H1026 0.930 . S
C1041 N1037 1.319 . S
C1041 C1039 1.397 . S
C1042 C1039 1.367 . S
C1042 C1040 1.403 . S
C1042 H1049 0.929 . S
N1043 Eu1008 2.562 . S
N1043 C1044 1.325 . S
N1043 C1046 1.351 . S
C1044 H1030 0.929 . S
C1044 N1043 1.325 . S
C1044 C1048 1.416 . S
C1045 C1046 1.430 . S
C1045 C1047 1.404 . S
C1045 C1074 1.387 . S
C1046 C1038 1.448 . S
C1046 N1043 1.351 . S
C1046 C1045 1.430 . S
C1047 H1036 0.930 . S
C1047 C1045 1.404 . S
C1047 C1048 1.366 . S
C1048 H1027 0.930 . S
C1048 C1044 1.416 . S
C1048 C1047 1.366 . S
H1049 C1042 0.929 . S
H1050 C1073 0.931 . S
H1051 C1074 0.931 . S
O1052 Eu1008 2.462 . S
O1052 C1072 1.252 . S
O1053 Eu1008 2.373 . S
O1053 C1064 1.249 . S
O1054 Eu1019 2.335 . S
O1054 C1064 1.264 . S
O1055 Eu1008 2.432 . S
O1055 C1072 1.268 . S
O1056 Eu1008 2.291 . S
O1056 C1071 1.255 . S
O1057 Eu1019 2.372 . S
O1057 C1071 1.257 . S
O1058 Eu1019 2.462 . S
O1058 C1083 1.252 . S
O1059 Eu1019 2.373 . S
O1059 C1075 1.249 . S
O1060 Eu1008 2.335 . S
O1060 C1075 1.264 . S
O1061 Eu1019 2.432 . S
O1061 C1083 1.268 . S
O1062 Eu1019 2.291 . S
O1062 C1082 1.255 . S
O1063 Eu1008 2.372 . S
O1063 C1082 1.257 . S
C1064 O1053 1.249 . S
C1064 O1054 1.264 . S
C1065 C1068 1.382 . S
C1065 C1070 1.390 . S
C1065 C1072 1.506 . S
C1066 C1067 1.398 . S
C1066 C1070 1.392 . S
C1067 C1066 1.398 . S
C1067 C1069 1.372 . S
C1067 H1084 0.931 . S
C1068 C1065 1.382 . S
C1068 C1069 1.390 . S
C1068 H1085 0.931 . S
C1069 C1067 1.372 . S
C1069 C1068 1.390 . S
C1069 H1086 0.929 . S
C1070 C1065 1.390 . S
C1070 C1066 1.392 . S
C1070 H1087 0.930 . S
C1071 O1056 1.255 . S
C1071 O1057 1.257 . S
C1072 Eu1008 2.787 . S
C1072 O1052 1.252 . S
C1072 O1055 1.268 . S
C1072 C1065 1.506 . S
C1073 C1040 1.439 . S
C1073 H1050 0.931 . S
C1073 C1074 1.374 . S
C1074 C1045 1.387 . S
C1074 H1051 0.931 . S
C1074 C1073 1.374 . S
C1075 O1059 1.249 . S
C1075 O1060 1.264 . S
C1076 C1079 1.382 . S
C1076 C1080 1.390 . S
C1076 C1083 1.506 . S
C1077 C1078 1.398 . S
C1077 C1080 1.392 . S
C1078 C1077 1.398 . S
C1078 C1081 1.372 . S
C1078 H1088 0.931 . S
C1079 C1076 1.382 . S
C1079 C1081 1.390 . S
C1079 H1089 0.931 . S
C1080 C1076 1.390 . S
C1080 C1077 1.392 . S
C1080 H1090 0.930 . S
C1081 C1078 1.372 . S
C1081 C1079 1.390 . S
C1081 H1091 0.929 . S
C1082 O1062 1.255 . S
C1082 O1063 1.257 . S
C1083 Eu1019 2.787 . S
C1083 O1058 1.252 . S
C1083 O1061 1.268 . S
C1083 C1076 1.506 . S
H1084 C1067 0.931 . S
H1085 C1068 0.931 . S
H1086 C1069 0.929 . S
H1087 C1070 0.930 . S
H1088 C1078 0.931 . S
H1089 C1079 0.931 . S
H1090 C1080 0.930 . S
H1091 C1081 0.929 . S
Eu1092 N1121 2.600 . S
Eu1092 N1127 2.562 . S
Eu1092 O1136 2.462 . S
Eu1092 O1137 2.373 1_455 S
Eu1092 O1139 2.432 . S
Eu1092 O1140 2.291 . S
Eu1092 O1144 2.335 . S
Eu1092 O1147 2.372 . S
Eu1092 C1156 2.787 . S
C1093 N1094 1.365 . S
C1093 C1096 1.405 . S
C1093 C1100 1.448 . S
N1094 C1093 1.365 . S
N1094 C1097 1.319 . S
N1094 Eu1103 2.600 . S
C1095 C1097 1.397 . S
C1095 C1098 1.367 . S
C1095 H1115 0.931 . S
C1096 C1093 1.405 . S
C1096 C1098 1.403 . S
C1096 C1102 1.439 . S
C1097 N1094 1.319 . S
C1097 C1095 1.397 . S
C1097 H1108 0.930 . S
C1098 C1095 1.367 . S
C1098 C1096 1.403 . S
C1098 H1119 0.929 . S
C1099 C1100 1.430 . S
C1099 C1101 1.387 . S
C1099 C1105 1.404 . S
C1100 C1093 1.448 . S
C1100 C1099 1.430 . S
C1100 N1104 1.351 . S
C1101 C1099 1.387 . S
C1101 C1102 1.374 . S
C1101 H1116 0.931 . S
C1102 C1096 1.439 . S
C1102 C1101 1.374 . S
C1102 H1117 0.931 . S
Eu1103 N1094 2.600 . S
Eu1103 N1104 2.562 . S
Eu1103 O1138 2.335 . S
Eu1103 O1141 2.372 . S
Eu1103 O1142 2.462 . S
Eu1103 O1143 2.373 1_655 S
Eu1103 O1145 2.432 . S
Eu1103 O1146 2.291 . S
Eu1103 C1167 2.787 . S
N1104 C1100 1.351 . S
N1104 Eu1103 2.562 . S
N1104 C1106 1.325 . S
C1105 C1099 1.404 . S
C1105 C1107 1.366 . S
C1105 H1113 0.930 . S
C1106 N1104 1.325 . S
C1106 C1107 1.416 . S
C1106 H1112 0.929 . S
C1107 C1105 1.366 . S
C1107 C1106 1.416 . S
C1107 H1109 0.930 . S
H1108 C1097 0.930 . S
H1109 C1107 0.930 . S
H1110 C1125 0.930 . S
H1111 C1132 0.930 . S
H1112 C1106 0.929 . S
H1113 C1105 0.930 . S
H1114 C1128 0.929 . S
H1115 C1095 0.931 . S
H1116 C1101 0.931 . S
H1117 C1102 0.931 . S
H1118 C1123 0.931 . S
H1119 C1098 0.929 . S
H1120 C1131 0.930 . S
N1121 Eu1092 2.600 . S
N1121 C1122 1.365 . S
N1121 C1125 1.319 . S
C1122 N1121 1.365 . S
C1122 C1124 1.405 . S
C1122 C1130 1.448 . S
C1123 H1118 0.931 . S
C1123 C1125 1.397 . S
C1123 C1126 1.367 . S
C1124 C1122 1.405 . S
C1124 C1126 1.403 . S
C1124 C1157 1.439 . S
C1125 H1110 0.930 . S
C1125 N1121 1.319 . S
C1125 C1123 1.397 . S
C1126 C1123 1.367 . S
C1126 C1124 1.403 . S
C1126 H1133 0.929 . S
N1127 Eu1092 2.562 . S
N1127 C1128 1.325 . S
N1127 C1130 1.351 . S
C1128 H1114 0.929 . S
C1128 N1127 1.325 . S
C1128 C1132 1.416 . S
C1129 C1130 1.430 . S
C1129 C1131 1.404 . S
C1129 C1158 1.387 . S
C1130 C1122 1.448 . S
C1130 N1127 1.351 . S
C1130 C1129 1.430 . S
C1131 H1120 0.930 . S
C1131 C1129 1.404 . S
C1131 C1132 1.366 . S
C1132 H1111 0.930 . S
C1132 C1128 1.416 . S
C1132 C1131 1.366 . S
H1133 C1126 0.929 . S
H1134 C1157 0.931 . S
H1135 C1158 0.931 . S
O1136 Eu1092 2.462 . S
O1136 C1156 1.252 . S
O1137 Eu1092 2.373 1_655 S
O1137 C1148 1.249 . S
O1138 Eu1103 2.335 . S
O1138 C1148 1.264 . S
O1139 Eu1092 2.432 . S
O1139 C1156 1.268 . S
O1140 Eu1092 2.291 . S
O1140 C1155 1.255 1_455 S
O1141 Eu1103 2.372 . S
O1141 C1155 1.257 . S
O1142 Eu1103 2.462 . S
O1142 C1167 1.252 . S
O1143 Eu1103 2.373 1_455 S
O1143 C1159 1.249 . S
O1144 Eu1092 2.335 . S
O1144 C1159 1.264 . S
O1145 Eu1103 2.432 . S
O1145 C1167 1.268 . S
O1146 Eu1103 2.291 . S
O1146 C1166 1.255 1_655 S
O1147 Eu1092 2.372 . S
O1147 C1166 1.257 . S
C1148 O1137 1.249 . S
C1148 O1138 1.264 . S
C1149 C1152 1.382 . S
C1149 C1154 1.390 . S
C1149 C1156 1.506 . S
C1150 C1151 1.398 . S
C1150 C1154 1.392 . S
C1151 C1150 1.398 . S
C1151 C1153 1.372 . S
C1151 H1168 0.931 . S
C1152 C1149 1.382 . S
C1152 C1153 1.390 . S
C1152 H1169 0.931 . S
C1153 C1151 1.372 . S
C1153 C1152 1.390 . S
C1153 H1170 0.929 . S
C1154 C1149 1.390 . S
C1154 C1150 1.392 . S
C1154 H1171 0.930 . S
C1155 O1140 1.255 1_655 S
C1155 O1141 1.257 . S
C1156 Eu1092 2.787 . S
C1156 O1136 1.252 . S
C1156 O1139 1.268 . S
C1156 C1149 1.506 . S
C1157 C1124 1.439 . S
C1157 H1134 0.931 . S
C1157 C1158 1.374 . S
C1158 C1129 1.387 . S
C1158 H1135 0.931 . S
C1158 C1157 1.374 . S
C1159 O1143 1.249 . S
C1159 O1144 1.264 . S
C1160 C1163 1.382 . S
C1160 C1164 1.390 . S
C1160 C1167 1.506 . S
C1161 C1162 1.398 . S
C1161 C1164 1.392 . S
C1162 C1161 1.398 . S
C1162 C1165 1.372 . S
C1162 H1172 0.931 . S
C1163 C1160 1.382 . S
C1163 C1165 1.390 . S
C1163 H1173 0.931 . S
C1164 C1160 1.390 . S
C1164 C1161 1.392 . S
C1164 H1174 0.930 . S
C1165 C1162 1.372 . S
C1165 C1163 1.390 . S
C1165 H1175 0.929 . S
C1166 O1146 1.255 1_455 S
C1166 O1147 1.257 . S
C1167 Eu1103 2.787 . S
C1167 O1142 1.252 . S
C1167 O1145 1.268 . S
C1167 C1160 1.506 . S
H1168 C1151 0.931 . S
H1169 C1152 0.931 . S
H1170 C1153 0.929 . S
H1171 C1154 0.930 . S
H1172 C1162 0.931 . S
H1173 C1163 0.931 . S
H1174 C1164 0.930 . S
H1175 C1165 0.929 . S
Eu1176 N1205 2.600 . S
Eu1176 N1211 2.562 . S
Eu1176 O1220 2.462 . S
Eu1176 O1221 2.373 . S
Eu1176 O1223 2.432 . S
Eu1176 O1224 2.291 . S
Eu1176 O1228 2.335 . S
Eu1176 O1231 2.372 . S
Eu1176 C1240 2.787 . S
C1177 N1178 1.365 . S
C1177 C1180 1.405 . S
C1177 C1184 1.448 . S
N1178 C1177 1.365 . S
N1178 C1181 1.319 . S
N1178 Eu1187 2.600 . S
C1179 C1181 1.397 . S
C1179 C1182 1.367 . S
C1179 H1199 0.931 . S
C1180 C1177 1.405 . S
C1180 C1182 1.403 . S
C1180 C1186 1.439 . S
C1181 N1178 1.319 . S
C1181 C1179 1.397 . S
C1181 H1192 0.930 . S
C1182 C1179 1.367 . S
C1182 C1180 1.403 . S
C1182 H1203 0.929 . S
C1183 C1184 1.430 . S
C1183 C1185 1.387 . S
C1183 C1189 1.404 . S
C1184 C1177 1.448 . S
C1184 C1183 1.430 . S
C1184 N1188 1.351 . S
C1185 C1183 1.387 . S
C1185 C1186 1.374 . S
C1185 H1200 0.931 . S
C1186 C1180 1.439 . S
C1186 C1185 1.374 . S
C1186 H1201 0.931 . S
Eu1187 N1178 2.600 . S
Eu1187 N1188 2.562 . S
Eu1187 O1222 2.335 . S
Eu1187 O1225 2.372 . S
Eu1187 O1226 2.462 . S
Eu1187 O1227 2.373 . S
Eu1187 O1229 2.432 . S
Eu1187 O1230 2.291 . S
Eu1187 C1251 2.787 . S
N1188 C1184 1.351 . S
N1188 Eu1187 2.562 . S
N1188 C1190 1.325 . S
C1189 C1183 1.404 . S
C1189 C1191 1.366 . S
C1189 H1197 0.930 . S
C1190 N1188 1.325 . S
C1190 C1191 1.416 . S
C1190 H1196 0.929 . S
C1191 C1189 1.366 . S
C1191 C1190 1.416 . S
C1191 H1193 0.930 . S
H1192 C1181 0.930 . S
H1193 C1191 0.930 . S
H1194 C1209 0.930 . S
H1195 C1216 0.930 . S
H1196 C1190 0.929 . S
H1197 C1189 0.930 . S
H1198 C1212 0.929 . S
H1199 C1179 0.931 . S
H1200 C1185 0.931 . S
H1201 C1186 0.931 . S
H1202 C1207 0.931 . S
H1203 C1182 0.929 . S
H1204 C1215 0.930 . S
N1205 Eu1176 2.600 . S
N1205 C1206 1.365 . S
N1205 C1209 1.319 . S
C1206 N1205 1.365 . S
C1206 C1208 1.405 . S
C1206 C1214 1.448 . S
C1207 H1202 0.931 . S
C1207 C1209 1.397 . S
C1207 C1210 1.367 . S
C1208 C1206 1.405 . S
C1208 C1210 1.403 . S
C1208 C1241 1.439 . S
C1209 H1194 0.930 . S
C1209 N1205 1.319 . S
C1209 C1207 1.397 . S
C1210 C1207 1.367 . S
C1210 C1208 1.403 . S
C1210 H1217 0.929 . S
N1211 Eu1176 2.562 . S
N1211 C1212 1.325 . S
N1211 C1214 1.351 . S
C1212 H1198 0.929 . S
C1212 N1211 1.325 . S
C1212 C1216 1.416 . S
C1213 C1214 1.430 . S
C1213 C1215 1.404 . S
C1213 C1242 1.387 . S
C1214 C1206 1.448 . S
C1214 N1211 1.351 . S
C1214 C1213 1.430 . S
C1215 H1204 0.930 . S
C1215 C1213 1.404 . S
C1215 C1216 1.366 . S
C1216 H1195 0.930 . S
C1216 C1212 1.416 . S
C1216 C1215 1.366 . S
H1217 C1210 0.929 . S
H1218 C1241 0.931 . S
H1219 C1242 0.931 . S
O1220 Eu1176 2.462 . S
O1220 C1240 1.252 . S
O1221 Eu1176 2.373 . S
O1221 C1232 1.249 . S
O1222 Eu1187 2.335 . S
O1222 C1232 1.264 . S
O1223 Eu1176 2.432 . S
O1223 C1240 1.268 . S
O1224 Eu1176 2.291 . S
O1224 C1239 1.255 . S
O1225 Eu1187 2.372 . S
O1225 C1239 1.257 . S
O1226 Eu1187 2.462 . S
O1226 C1251 1.252 . S
O1227 Eu1187 2.373 . S
O1227 C1243 1.249 . S
O1228 Eu1176 2.335 . S
O1228 C1243 1.264 . S
O1229 Eu1187 2.432 . S
O1229 C1251 1.268 . S
O1230 Eu1187 2.291 . S
O1230 C1250 1.255 . S
O1231 Eu1176 2.372 . S
O1231 C1250 1.257 . S
C1232 O1221 1.249 . S
C1232 O1222 1.264 . S
C1233 C1236 1.382 . S
C1233 C1238 1.390 . S
C1233 C1240 1.506 . S
C1234 C1235 1.398 . S
C1234 C1238 1.392 . S
C1235 C1234 1.398 . S
C1235 C1237 1.372 . S
C1235 H1252 0.931 . S
C1236 C1233 1.382 . S
C1236 C1237 1.390 . S
C1236 H1253 0.931 . S
C1237 C1235 1.372 . S
C1237 C1236 1.390 . S
C1237 H1254 0.929 . S
C1238 C1233 1.390 . S
C1238 C1234 1.392 . S
C1238 H1255 0.930 . S
C1239 O1224 1.255 . S
C1239 O1225 1.257 . S
C1240 Eu1176 2.787 . S
C1240 O1220 1.252 . S
C1240 O1223 1.268 . S
C1240 C1233 1.506 . S
C1241 C1208 1.439 . S
C1241 H1218 0.931 . S
C1241 C1242 1.374 . S
C1242 C1213 1.387 . S
C1242 H1219 0.931 . S
C1242 C1241 1.374 . S
C1243 O1227 1.249 . S
C1243 O1228 1.264 . S
C1244 C1247 1.382 . S
C1244 C1248 1.390 . S
C1244 C1251 1.506 . S
C1245 C1246 1.398 . S
C1245 C1248 1.392 . S
C1246 C1245 1.398 . S
C1246 C1249 1.372 . S
C1246 H1256 0.931 . S
C1247 C1244 1.382 . S
C1247 C1249 1.390 . S
C1247 H1257 0.931 . S
C1248 C1244 1.390 . S
C1248 C1245 1.392 . S
C1248 H1258 0.930 . S
C1249 C1246 1.372 . S
C1249 C1247 1.390 . S
C1249 H1259 0.929 . S
C1250 O1230 1.255 . S
C1250 O1231 1.257 . S
C1251 Eu1187 2.787 . S
C1251 O1226 1.252 . S
C1251 O1229 1.268 . S
C1251 C1244 1.506 . S
H1252 C1235 0.931 . S
H1253 C1236 0.931 . S
H1254 C1237 0.929 . S
H1255 C1238 0.930 . S
H1256 C1246 0.931 . S
H1257 C1247 0.931 . S
H1258 C1248 0.930 . S
H1259 C1249 0.929 . S
Eu1260 N1289 2.600 . S
Eu1260 N1295 2.562 . S
Eu1260 O1304 2.462 . S
Eu1260 O1305 2.373 . S
Eu1260 O1307 2.432 . S
Eu1260 O1308 2.291 . S
Eu1260 O1312 2.335 . S
Eu1260 O1315 2.372 . S
Eu1260 C1324 2.787 . S
C1261 N1262 1.365 . S
C1261 C1264 1.405 . S
C1261 C1268 1.448 . S
N1262 C1261 1.365 . S
N1262 C1265 1.319 . S
N1262 Eu1271 2.600 . S
C1263 C1265 1.397 . S
C1263 C1266 1.367 . S
C1263 H1283 0.931 . S
C1264 C1261 1.405 . S
C1264 C1266 1.403 . S
C1264 C1270 1.439 . S
C1265 N1262 1.319 . S
C1265 C1263 1.397 . S
C1265 H1276 0.930 . S
C1266 C1263 1.367 . S
C1266 C1264 1.403 . S
C1266 H1287 0.929 . S
C1267 C1268 1.430 . S
C1267 C1269 1.387 . S
C1267 C1273 1.404 . S
C1268 C1261 1.448 . S
C1268 C1267 1.430 . S
C1268 N1272 1.351 . S
C1269 C1267 1.387 . S
C1269 C1270 1.374 . S
C1269 H1284 0.931 . S
C1270 C1264 1.439 . S
C1270 C1269 1.374 . S
C1270 H1285 0.931 . S
Eu1271 N1262 2.600 . S
Eu1271 N1272 2.562 . S
Eu1271 O1306 2.335 . S
Eu1271 O1309 2.372 . S
Eu1271 O1310 2.462 . S
Eu1271 O1311 2.373 . S
Eu1271 O1313 2.432 . S
Eu1271 O1314 2.291 . S
Eu1271 C1335 2.787 . S
N1272 C1268 1.351 . S
N1272 Eu1271 2.562 . S
N1272 C1274 1.325 . S
C1273 C1267 1.404 . S
C1273 C1275 1.366 . S
C1273 H1281 0.930 . S
C1274 N1272 1.325 . S
C1274 C1275 1.416 . S
C1274 H1280 0.929 . S
C1275 C1273 1.366 . S
C1275 C1274 1.416 . S
C1275 H1277 0.930 . S
H1276 C1265 0.930 . S
H1277 C1275 0.930 . S
H1278 C1293 0.930 . S
H1279 C1300 0.930 . S
H1280 C1274 0.929 . S
H1281 C1273 0.930 . S
H1282 C1296 0.929 . S
H1283 C1263 0.931 . S
H1284 C1269 0.931 . S
H1285 C1270 0.931 . S
H1286 C1291 0.931 . S
H1287 C1266 0.929 . S
H1288 C1299 0.930 . S
N1289 Eu1260 2.600 . S
N1289 C1290 1.365 . S
N1289 C1293 1.319 . S
C1290 N1289 1.365 . S
C1290 C1292 1.405 . S
C1290 C1298 1.448 . S
C1291 H1286 0.931 . S
C1291 C1293 1.397 . S
C1291 C1294 1.367 . S
C1292 C1290 1.405 . S
C1292 C1294 1.403 . S
C1292 C1325 1.439 . S
C1293 H1278 0.930 . S
C1293 N1289 1.319 . S
C1293 C1291 1.397 . S
C1294 C1291 1.367 . S
C1294 C1292 1.403 . S
C1294 H1301 0.929 . S
N1295 Eu1260 2.562 . S
N1295 C1296 1.325 . S
N1295 C1298 1.351 . S
C1296 H1282 0.929 . S
C1296 N1295 1.325 . S
C1296 C1300 1.416 . S
C1297 C1298 1.430 . S
C1297 C1299 1.404 . S
C1297 C1326 1.387 . S
C1298 C1290 1.448 . S
C1298 N1295 1.351 . S
C1298 C1297 1.430 . S
C1299 H1288 0.930 . S
C1299 C1297 1.404 . S
C1299 C1300 1.366 . S
C1300 H1279 0.930 . S
C1300 C1296 1.416 . S
C1300 C1299 1.366 . S
H1301 C1294 0.929 . S
H1302 C1325 0.931 . S
H1303 C1326 0.931 . S
O1304 Eu1260 2.462 . S
O1304 C1324 1.252 . S
O1305 Eu1260 2.373 . S
O1305 C1316 1.249 . S
O1306 Eu1271 2.335 . S
O1306 C1316 1.264 . S
O1307 Eu1260 2.432 . S
O1307 C1324 1.268 . S
O1308 Eu1260 2.291 . S
O1308 C1323 1.255 . S
O1309 Eu1271 2.372 . S
O1309 C1323 1.257 . S
O1310 Eu1271 2.462 . S
O1310 C1335 1.252 . S
O1311 Eu1271 2.373 . S
O1311 C1327 1.249 . S
O1312 Eu1260 2.335 . S
O1312 C1327 1.264 . S
O1313 Eu1271 2.432 . S
O1313 C1335 1.268 . S
O1314 Eu1271 2.291 . S
O1314 C1334 1.255 . S
O1315 Eu1260 2.372 . S
O1315 C1334 1.257 . S
C1316 O1305 1.249 . S
C1316 O1306 1.264 . S
C1317 C1320 1.382 . S
C1317 C1322 1.390 . S
C1317 C1324 1.506 . S
C1318 C1319 1.398 . S
C1318 C1322 1.392 . S
C1319 C1318 1.398 . S
C1319 C1321 1.372 . S
C1319 H1336 0.931 . S
C1320 C1317 1.382 . S
C1320 C1321 1.390 . S
C1320 H1337 0.931 . S
C1321 C1319 1.372 . S
C1321 C1320 1.390 . S
C1321 H1338 0.929 . S
C1322 C1317 1.390 . S
C1322 C1318 1.392 . S
C1322 H1339 0.930 . S
C1323 O1308 1.255 . S
C1323 O1309 1.257 . S
C1324 Eu1260 2.787 . S
C1324 O1304 1.252 . S
C1324 O1307 1.268 . S
C1324 C1317 1.506 . S
C1325 C1292 1.439 . S
C1325 H1302 0.931 . S
C1325 C1326 1.374 . S
C1326 C1297 1.387 . S
C1326 H1303 0.931 . S
C1326 C1325 1.374 . S
C1327 O1311 1.249 . S
C1327 O1312 1.264 . S
C1328 C1331 1.382 . S
C1328 C1332 1.390 . S
C1328 C1335 1.506 . S
C1329 C1330 1.398 . S
C1329 C1332 1.392 . S
C1330 C1329 1.398 . S
C1330 C1333 1.372 . S
C1330 H1340 0.931 . S
C1331 C1328 1.382 . S
C1331 C1333 1.390 . S
C1331 H1341 0.931 . S
C1332 C1328 1.390 . S
C1332 C1329 1.392 . S
C1332 H1342 0.930 . S
C1333 C1330 1.372 . S
C1333 C1331 1.390 . S
C1333 H1343 0.929 . S
C1334 O1314 1.255 . S
C1334 O1315 1.257 . S
C1335 Eu1271 2.787 . S
C1335 O1310 1.252 . S
C1335 O1313 1.268 . S
C1335 C1328 1.506 . S
H1336 C1319 0.931 . S
H1337 C1320 0.931 . S
H1338 C1321 0.929 . S
H1339 C1322 0.930 . S
H1340 C1330 0.931 . S
H1341 C1331 0.931 . S
H1342 C1332 0.930 . S
H1343 C1333 0.929 . S
Eu1344 N1373 2.600 . S
Eu1344 N1379 2.562 . S
Eu1344 O1388 2.462 . S
Eu1344 O1389 2.373 . S
Eu1344 O1391 2.432 . S
Eu1344 O1392 2.291 . S
Eu1344 O1396 2.335 . S
Eu1344 O1399 2.372 . S
Eu1344 C1408 2.787 . S
C1345 N1346 1.365 . S
C1345 C1348 1.405 . S
C1345 C1352 1.448 . S
N1346 C1345 1.365 . S
N1346 C1349 1.319 . S
N1346 Eu1355 2.600 . S
C1347 C1349 1.397 . S
C1347 C1350 1.367 . S
C1347 H1367 0.931 . S
C1348 C1345 1.405 . S
C1348 C1350 1.403 . S
C1348 C1354 1.439 . S
C1349 N1346 1.319 . S
C1349 C1347 1.397 . S
C1349 H1360 0.930 . S
C1350 C1347 1.367 . S
C1350 C1348 1.403 . S
C1350 H1371 0.929 . S
C1351 C1352 1.430 . S
C1351 C1353 1.387 . S
C1351 C1357 1.404 . S
C1352 C1345 1.448 . S
C1352 C1351 1.430 . S
C1352 N1356 1.351 . S
C1353 C1351 1.387 . S
C1353 C1354 1.374 . S
C1353 H1368 0.931 . S
C1354 C1348 1.439 . S
C1354 C1353 1.374 . S
C1354 H1369 0.931 . S
Eu1355 N1346 2.600 . S
Eu1355 N1356 2.562 . S
Eu1355 O1390 2.335 . S
Eu1355 O1393 2.372 . S
Eu1355 O1394 2.462 . S
Eu1355 O1395 2.373 . S
Eu1355 O1397 2.432 . S
Eu1355 O1398 2.291 . S
Eu1355 C1419 2.787 . S
N1356 C1352 1.351 . S
N1356 Eu1355 2.562 . S
N1356 C1358 1.325 . S
C1357 C1351 1.404 . S
C1357 C1359 1.366 . S
C1357 H1365 0.930 . S
C1358 N1356 1.325 . S
C1358 C1359 1.416 . S
C1358 H1364 0.929 . S
C1359 C1357 1.366 . S
C1359 C1358 1.416 . S
C1359 H1361 0.930 . S
H1360 C1349 0.930 . S
H1361 C1359 0.930 . S
H1362 C1377 0.930 . S
H1363 C1384 0.930 . S
H1364 C1358 0.929 . S
H1365 C1357 0.930 . S
H1366 C1380 0.929 . S
H1367 C1347 0.931 . S
H1368 C1353 0.931 . S
H1369 C1354 0.931 . S
H1370 C1375 0.931 . S
H1371 C1350 0.929 . S
H1372 C1383 0.930 . S
N1373 Eu1344 2.600 . S
N1373 C1374 1.365 . S
N1373 C1377 1.319 . S
C1374 N1373 1.365 . S
C1374 C1376 1.405 . S
C1374 C1382 1.448 . S
C1375 H1370 0.931 . S
C1375 C1377 1.397 . S
C1375 C1378 1.367 . S
C1376 C1374 1.405 . S
C1376 C1378 1.403 . S
C1376 C1409 1.439 . S
C1377 H1362 0.930 . S
C1377 N1373 1.319 . S
C1377 C1375 1.397 . S
C1378 C1375 1.367 . S
C1378 C1376 1.403 . S
C1378 H1385 0.929 . S
N1379 Eu1344 2.562 . S
N1379 C1380 1.325 . S
N1379 C1382 1.351 . S
C1380 H1366 0.929 . S
C1380 N1379 1.325 . S
C1380 C1384 1.416 . S
C1381 C1382 1.430 . S
C1381 C1383 1.404 . S
C1381 C1410 1.387 . S
C1382 C1374 1.448 . S
C1382 N1379 1.351 . S
C1382 C1381 1.430 . S
C1383 H1372 0.930 . S
C1383 C1381 1.404 . S
C1383 C1384 1.366 . S
C1384 H1363 0.930 . S
C1384 C1380 1.416 . S
C1384 C1383 1.366 . S
H1385 C1378 0.929 . S
H1386 C1409 0.931 . S
H1387 C1410 0.931 . S
O1388 Eu1344 2.462 . S
O1388 C1408 1.252 . S
O1389 Eu1344 2.373 . S
O1389 C1400 1.249 . S
O1390 Eu1355 2.335 . S
O1390 C1400 1.264 . S
O1391 Eu1344 2.432 . S
O1391 C1408 1.268 . S
O1392 Eu1344 2.291 . S
O1392 C1407 1.255 . S
O1393 Eu1355 2.372 . S
O1393 C1407 1.257 . S
O1394 Eu1355 2.462 . S
O1394 C1419 1.252 . S
O1395 Eu1355 2.373 . S
O1395 C1411 1.249 . S
O1396 Eu1344 2.335 . S
O1396 C1411 1.264 . S
O1397 Eu1355 2.432 . S
O1397 C1419 1.268 . S
O1398 Eu1355 2.291 . S
O1398 C1418 1.255 . S
O1399 Eu1344 2.372 . S
O1399 C1418 1.257 . S
C1400 O1389 1.249 . S
C1400 O1390 1.264 . S
C1401 C1404 1.382 . S
C1401 C1406 1.390 . S
C1401 C1408 1.506 . S
C1402 C1403 1.398 . S
C1402 C1406 1.392 . S
C1403 C1402 1.398 . S
C1403 C1405 1.372 . S
C1403 H1420 0.931 . S
C1404 C1401 1.382 . S
C1404 C1405 1.390 . S
C1404 H1421 0.931 . S
C1405 C1403 1.372 . S
C1405 C1404 1.390 . S
C1405 H1422 0.929 . S
C1406 C1401 1.390 . S
C1406 C1402 1.392 . S
C1406 H1423 0.930 . S
C1407 O1392 1.255 . S
C1407 O1393 1.257 . S
C1408 Eu1344 2.787 . S
C1408 O1388 1.252 . S
C1408 O1391 1.268 . S
C1408 C1401 1.506 . S
C1409 C1376 1.439 . S
C1409 H1386 0.931 . S
C1409 C1410 1.374 . S
C1410 C1381 1.387 . S
C1410 H1387 0.931 . S
C1410 C1409 1.374 . S
C1411 O1395 1.249 . S
C1411 O1396 1.264 . S
C1412 C1415 1.382 . S
C1412 C1416 1.390 . S
C1412 C1419 1.506 . S
C1413 C1414 1.398 . S
C1413 C1416 1.392 . S
C1414 C1413 1.398 . S
C1414 C1417 1.372 . S
C1414 H1424 0.931 . S
C1415 C1412 1.382 . S
C1415 C1417 1.390 . S
C1415 H1425 0.931 . S
C1416 C1412 1.390 . S
C1416 C1413 1.392 . S
C1416 H1426 0.930 . S
C1417 C1414 1.372 . S
C1417 C1415 1.390 . S
C1417 H1427 0.929 . S
C1418 O1398 1.255 . S
C1418 O1399 1.257 . S
C1419 Eu1355 2.787 . S
C1419 O1394 1.252 . S
C1419 O1397 1.268 . S
C1419 C1412 1.506 . S
H1420 C1403 0.931 . S
H1421 C1404 0.931 . S
H1422 C1405 0.929 . S
H1423 C1406 0.930 . S
H1424 C1414 0.931 . S
H1425 C1415 0.931 . S
H1426 C1416 0.930 . S
H1427 C1417 0.929 . S
Eu1428 N1457 2.600 . S
Eu1428 N1463 2.562 . S
Eu1428 O1472 2.462 . S
Eu1428 O1473 2.373 . S
Eu1428 O1475 2.432 . S
Eu1428 O1476 2.291 . S
Eu1428 O1480 2.335 . S
Eu1428 O1483 2.372 . S
Eu1428 C1492 2.787 . S
C1429 N1430 1.365 . S
C1429 C1432 1.405 . S
C1429 C1436 1.448 . S
N1430 C1429 1.365 . S
N1430 C1433 1.319 . S
N1430 Eu1439 2.600 . S
C1431 C1433 1.397 . S
C1431 C1434 1.367 . S
C1431 H1451 0.931 . S
C1432 C1429 1.405 . S
C1432 C1434 1.403 . S
C1432 C1438 1.439 . S
C1433 N1430 1.319 . S
C1433 C1431 1.397 . S
C1433 H1444 0.930 . S
C1434 C1431 1.367 . S
C1434 C1432 1.403 . S
C1434 H1455 0.929 . S
C1435 C1436 1.430 . S
C1435 C1437 1.387 . S
C1435 C1441 1.404 . S
C1436 C1429 1.448 . S
C1436 C1435 1.430 . S
C1436 N1440 1.351 . S
C1437 C1435 1.387 . S
C1437 C1438 1.374 . S
C1437 H1452 0.931 . S
C1438 C1432 1.439 . S
C1438 C1437 1.374 . S
C1438 H1453 0.931 . S
Eu1439 N1430 2.600 . S
Eu1439 N1440 2.562 . S
Eu1439 O1474 2.335 . S
Eu1439 O1477 2.372 . S
Eu1439 O1478 2.462 . S
Eu1439 O1479 2.373 . S
Eu1439 O1481 2.432 . S
Eu1439 O1482 2.291 . S
Eu1439 C1503 2.787 . S
N1440 C1436 1.351 . S
N1440 Eu1439 2.562 . S
N1440 C1442 1.325 . S
C1441 C1435 1.404 . S
C1441 C1443 1.366 . S
C1441 H1449 0.930 . S
C1442 N1440 1.325 . S
C1442 C1443 1.416 . S
C1442 H1448 0.929 . S
C1443 C1441 1.366 . S
C1443 C1442 1.416 . S
C1443 H1445 0.930 . S
H1444 C1433 0.930 . S
H1445 C1443 0.930 . S
H1446 C1461 0.930 . S
H1447 C1468 0.930 . S
H1448 C1442 0.929 . S
H1449 C1441 0.930 . S
H1450 C1464 0.929 . S
H1451 C1431 0.931 . S
H1452 C1437 0.931 . S
H1453 C1438 0.931 . S
H1454 C1459 0.931 . S
H1455 C1434 0.929 . S
H1456 C1467 0.930 . S
N1457 Eu1428 2.600 . S
N1457 C1458 1.365 . S
N1457 C1461 1.319 . S
C1458 N1457 1.365 . S
C1458 C1460 1.405 . S
C1458 C1466 1.448 . S
C1459 H1454 0.931 . S
C1459 C1461 1.397 . S
C1459 C1462 1.367 . S
C1460 C1458 1.405 . S
C1460 C1462 1.403 . S
C1460 C1493 1.439 . S
C1461 H1446 0.930 . S
C1461 N1457 1.319 . S
C1461 C1459 1.397 . S
C1462 C1459 1.367 . S
C1462 C1460 1.403 . S
C1462 H1469 0.929 . S
N1463 Eu1428 2.562 . S
N1463 C1464 1.325 . S
N1463 C1466 1.351 . S
C1464 H1450 0.929 . S
C1464 N1463 1.325 . S
C1464 C1468 1.416 . S
C1465 C1466 1.430 . S
C1465 C1467 1.404 . S
C1465 C1494 1.387 . S
C1466 C1458 1.448 . S
C1466 N1463 1.351 . S
C1466 C1465 1.430 . S
C1467 H1456 0.930 . S
C1467 C1465 1.404 . S
C1467 C1468 1.366 . S
C1468 H1447 0.930 . S
C1468 C1464 1.416 . S
C1468 C1467 1.366 . S
H1469 C1462 0.929 . S
H1470 C1493 0.931 . S
H1471 C1494 0.931 . S
O1472 Eu1428 2.462 . S
O1472 C1492 1.252 . S
O1473 Eu1428 2.373 . S
O1473 C1484 1.249 . S
O1474 Eu1439 2.335 . S
O1474 C1484 1.264 . S
O1475 Eu1428 2.432 . S
O1475 C1492 1.268 . S
O1476 Eu1428 2.291 . S
O1476 C1491 1.255 . S
O1477 Eu1439 2.372 . S
O1477 C1491 1.257 . S
O1478 Eu1439 2.462 . S
O1478 C1503 1.252 . S
O1479 Eu1439 2.373 . S
O1479 C1495 1.249 . S
O1480 Eu1428 2.335 . S
O1480 C1495 1.264 . S
O1481 Eu1439 2.432 . S
O1481 C1503 1.268 . S
O1482 Eu1439 2.291 . S
O1482 C1502 1.255 . S
O1483 Eu1428 2.372 . S
O1483 C1502 1.257 . S
C1484 O1473 1.249 . S
C1484 O1474 1.264 . S
C1485 C1488 1.382 . S
C1485 C1490 1.390 . S
C1485 C1492 1.506 . S
C1486 C1487 1.398 . S
C1486 C1490 1.392 . S
C1487 C1486 1.398 . S
C1487 C1489 1.372 . S
C1487 H1504 0.931 . S
C1488 C1485 1.382 . S
C1488 C1489 1.390 . S
C1488 H1505 0.931 . S
C1489 C1487 1.372 . S
C1489 C1488 1.390 . S
C1489 H1506 0.929 . S
C1490 C1485 1.390 . S
C1490 C1486 1.392 . S
C1490 H1507 0.930 . S
C1491 O1476 1.255 . S
C1491 O1477 1.257 . S
C1492 Eu1428 2.787 . S
C1492 O1472 1.252 . S
C1492 O1475 1.268 . S
C1492 C1485 1.506 . S
C1493 C1460 1.439 . S
C1493 H1470 0.931 . S
C1493 C1494 1.374 . S
C1494 C1465 1.387 . S
C1494 H1471 0.931 . S
C1494 C1493 1.374 . S
C1495 O1479 1.249 . S
C1495 O1480 1.264 . S
C1496 C1499 1.382 . S
C1496 C1500 1.390 . S
C1496 C1503 1.506 . S
C1497 C1498 1.398 . S
C1497 C1500 1.392 . S
C1498 C1497 1.398 . S
C1498 C1501 1.372 . S
C1498 H1508 0.931 . S
C1499 C1496 1.382 . S
C1499 C1501 1.390 . S
C1499 H1509 0.931 . S
C1500 C1496 1.390 . S
C1500 C1497 1.392 . S
C1500 H1510 0.930 . S
C1501 C1498 1.372 . S
C1501 C1499 1.390 . S
C1501 H1511 0.929 . S
C1502 O1482 1.255 . S
C1502 O1483 1.257 . S
C1503 Eu1439 2.787 . S
C1503 O1478 1.252 . S
C1503 O1481 1.268 . S
C1503 C1496 1.506 . S
H1504 C1487 0.931 . S
H1505 C1488 0.931 . S
H1506 C1489 0.929 . S
H1507 C1490 0.930 . S
H1508 C1498 0.931 . S
H1509 C1499 0.931 . S
H1510 C1500 0.930 . S
H1511 C1501 0.929 . S
Eu1512 N1541 2.600 . S
Eu1512 N1547 2.562 . S
Eu1512 O1556 2.462 1_655 S
Eu1512 O1557 2.373 . S
Eu1512 O1559 2.432 . S
Eu1512 O1560 2.291 . S
Eu1512 O1564 2.335 1_655 S
Eu1512 O1567 2.348 1_554 S
Eu1512 C1576 2.787 . S
C1513 N1514 1.365 . S
C1513 C1516 1.405 . S
C1513 C1520 1.448 . S
N1514 C1513 1.365 . S
N1514 C1517 1.319 . S
N1514 Eu1523 2.600 . S
C1515 C1517 1.397 . S
C1515 C1518 1.367 . S
C1515 H1535 0.931 . S
C1516 C1513 1.405 . S
C1516 C1518 1.403 . S
C1516 C1522 1.439 . S
C1517 N1514 1.319 . S
C1517 C1515 1.397 . S
C1517 H1528 0.930 . S
C1518 C1515 1.367 . S
C1518 C1516 1.403 . S
C1518 H1539 0.929 . S
C1519 C1520 1.430 . S
C1519 C1521 1.387 . S
C1519 C1525 1.404 . S
C1520 C1513 1.448 . S
C1520 C1519 1.430 . S
C1520 N1524 1.351 . S
C1521 C1519 1.387 . S
C1521 C1522 1.374 . S
C1521 H1536 0.931 . S
C1522 C1516 1.439 . S
C1522 C1521 1.374 . S
C1522 H1537 0.931 . S
Eu1523 N1514 2.600 . S
Eu1523 N1524 2.562 . S
Eu1523 O1558 2.335 1_455 S
Eu1523 O1561 2.338 1_556 S
Eu1523 O1562 2.462 1_455 S
Eu1523 O1563 2.373 . S
Eu1523 O1565 2.432 1_455 S
Eu1523 O1566 2.291 1_455 S
Eu1523 C1587 2.787 1_455 S
N1524 C1520 1.351 . S
N1524 Eu1523 2.562 . S
N1524 C1526 1.325 . S
C1525 C1519 1.404 . S
C1525 C1527 1.366 . S
C1525 H1533 0.930 . S
C1526 N1524 1.325 . S
C1526 C1527 1.416 . S
C1526 H1532 0.929 . S
C1527 C1525 1.366 . S
C1527 C1526 1.416 . S
C1527 H1529 0.930 . S
H1528 C1517 0.930 . S
H1529 C1527 0.930 . S
H1530 C1545 0.930 . S
H1531 C1552 0.930 . S
H1532 C1526 0.929 . S
H1533 C1525 0.930 . S
H1534 C1548 0.929 . S
H1535 C1515 0.931 . S
H1536 C1521 0.931 . S
H1537 C1522 0.931 . S
H1538 C1543 0.931 . S
H1539 C1518 0.929 . S
H1540 C1551 0.930 . S
N1541 Eu1512 2.600 . S
N1541 C1542 1.365 . S
N1541 C1545 1.319 . S
C1542 N1541 1.365 . S
C1542 C1544 1.405 . S
C1542 C1550 1.448 . S
C1543 H1538 0.931 . S
C1543 C1545 1.397 . S
C1543 C1546 1.367 . S
C1544 C1542 1.405 . S
C1544 C1546 1.403 . S
C1544 C1577 1.439 . S
C1545 H1530 0.930 . S
C1545 N1541 1.319 . S
C1545 C1543 1.397 . S
C1546 C1543 1.367 . S
C1546 C1544 1.403 . S
C1546 H1553 0.929 . S
N1547 Eu1512 2.562 . S
N1547 C1548 1.325 . S
N1547 C1550 1.351 . S
C1548 H1534 0.929 . S
C1548 N1547 1.325 . S
C1548 C1552 1.416 . S
C1549 C1550 1.430 . S
C1549 C1551 1.404 . S
C1549 C1578 1.387 . S
C1550 C1542 1.448 . S
C1550 N1547 1.351 . S
C1550 C1549 1.430 . S
C1551 H1540 0.930 . S
C1551 C1549 1.404 . S
C1551 C1552 1.366 . S
C1552 H1531 0.930 . S
C1552 C1548 1.416 . S
C1552 C1551 1.366 . S
H1553 C1546 0.929 . S
H1554 C1577 0.931 . S
H1555 C1578 0.931 . S
O1556 Eu1512 2.462 1_455 S
O1556 C1576 1.252 1_455 S
O1557 Eu1512 2.373 . S
O1557 C1568 1.249 1_554 S
O1558 Eu1523 2.335 1_655 S
O1558 C1568 1.264 . S
O1559 Eu1512 2.432 . S
O1559 C1576 1.268 . S
O1560 Eu1512 2.291 . S
O1560 C1575 1.255 1_655 S
O1561 Eu1523 2.338 1_554 S
O1561 C1575 1.299 . S
O1562 Eu1523 2.462 1_655 S
O1562 C1587 1.252 . S
O1563 Eu1523 2.373 . S
O1563 C1579 1.249 1_556 S
O1564 Eu1512 2.335 1_455 S
O1564 C1579 1.264 . S
O1565 Eu1523 2.432 1_655 S
O1565 C1587 1.268 . S
O1566 Eu1523 2.291 1_655 S
O1566 C1586 1.255 . S
O1567 Eu1512 2.348 1_556 S
O1567 C1586 1.286 . S
C1568 O1557 1.249 1_556 S
C1568 O1558 1.264 . S
C1569 C1572 1.384 . S
C1569 C1574 1.390 . S
C1569 C1576 1.506 1_455 S
C1570 C1571 1.398 . S
C1570 C1574 1.392 . S
C1571 C1570 1.398 . S
C1571 C1573 1.372 . S
C1571 H1588 0.931 . S
C1572 C1569 1.384 . S
C1572 C1573 1.392 . S
C1572 H1589 0.926 1_455 S
C1573 C1571 1.372 . S
C1573 C1572 1.392 . S
C1573 H1590 0.929 . S
C1574 C1569 1.390 . S
C1574 C1570 1.392 . S
C1574 H1591 0.930 . S
C1575 O1560 1.255 1_455 S
C1575 O1561 1.299 . S
C1576 Eu1512 2.787 . S
C1576 O1556 1.252 1_655 S
C1576 O1559 1.268 . S
C1576 C1569 1.506 1_655 S
C1577 C1544 1.439 . S
C1577 H1554 0.931 . S
C1577 C1578 1.374 . S
C1578 C1549 1.387 . S
C1578 H1555 0.931 . S
C1578 C1577 1.374 . S
C1579 O1563 1.249 1_554 S
C1579 O1564 1.264 . S
C1580 C1583 1.382 . S
C1580 C1584 1.390 . S
C1580 C1587 1.506 . S
C1581 C1582 1.398 . S
C1581 C1584 1.392 . S
C1582 C1581 1.398 . S
C1582 C1585 1.372 . S
C1582 H1592 0.931 . S
C1583 C1580 1.382 . S
C1583 C1585 1.390 . S
C1583 H1593 0.931 . S
C1584 C1580 1.390 . S
C1584 C1581 1.392 . S
C1584 H1594 0.930 . S
C1585 C1582 1.372 . S
C1585 C1583 1.390 . S
C1585 H1595 0.929 . S
C1586 O1566 1.255 . S
C1586 O1567 1.286 . S
C1587 Eu1523 2.787 1_655 S
C1587 O1562 1.252 . S
C1587 O1565 1.268 . S
C1587 C1580 1.506 . S
H1588 C1571 0.931 . S
H1589 C1572 0.926 1_655 S
H1590 C1573 0.929 . S
H1591 C1574 0.930 . S
H1592 C1582 0.931 . S
H1593 C1583 0.931 . S
H1594 C1584 0.930 . S
H1595 C1585 0.929 . S
Eu1596 N1625 2.600 . S
Eu1596 N1631 2.562 . S
Eu1596 O1640 2.462 . S
Eu1596 O1641 2.373 . S
Eu1596 O1643 2.432 . S
Eu1596 O1644 2.291 . S
Eu1596 O1648 2.335 . S
Eu1596 O1651 2.372 . S
Eu1596 C1660 2.787 . S
C1597 N1598 1.365 . S
C1597 C1600 1.405 . S
C1597 C1604 1.448 . S
N1598 C1597 1.365 . S
N1598 C1601 1.319 . S
N1598 Eu1607 2.600 . S
C1599 C1601 1.397 . S
C1599 C1602 1.367 . S
C1599 H1619 0.931 . S
C1600 C1597 1.405 . S
C1600 C1602 1.403 . S
C1600 C1606 1.439 . S
C1601 N1598 1.319 . S
C1601 C1599 1.397 . S
C1601 H1612 0.930 . S
C1602 C1599 1.367 . S
C1602 C1600 1.403 . S
C1602 H1623 0.929 . S
C1603 C1604 1.430 . S
C1603 C1605 1.387 . S
C1603 C1609 1.404 . S
C1604 C1597 1.448 . S
C1604 C1603 1.430 . S
C1604 N1608 1.351 . S
C1605 C1603 1.387 . S
C1605 C1606 1.374 . S
C1605 H1620 0.931 . S
C1606 C1600 1.439 . S
C1606 C1605 1.374 . S
C1606 H1621 0.931 . S
Eu1607 N1598 2.600 . S
Eu1607 N1608 2.562 . S
Eu1607 O1642 2.335 . S
Eu1607 O1645 2.372 . S
Eu1607 O1646 2.462 . S
Eu1607 O1647 2.373 . S
Eu1607 O1649 2.432 . S
Eu1607 O1650 2.291 . S
Eu1607 C1671 2.787 . S
N1608 C1604 1.351 . S
N1608 Eu1607 2.562 . S
N1608 C1610 1.325 . S
C1609 C1603 1.404 . S
C1609 C1611 1.366 . S
C1609 H1617 0.930 . S
C1610 N1608 1.325 . S
C1610 C1611 1.416 . S
C1610 H1616 0.929 . S
C1611 C1609 1.366 . S
C1611 C1610 1.416 . S
C1611 H1613 0.930 . S
H1612 C1601 0.930 . S
H1613 C1611 0.930 . S
H1614 C1629 0.930 . S
H1615 C1636 0.930 . S
H1616 C1610 0.929 . S
H1617 C1609 0.930 . S
H1618 C1632 0.929 . S
H1619 C1599 0.931 . S
H1620 C1605 0.931 . S
H1621 C1606 0.931 . S
H1622 C1627 0.931 . S
H1623 C1602 0.929 . S
H1624 C1635 0.930 . S
N1625 Eu1596 2.600 . S
N1625 C1626 1.365 . S
N1625 C1629 1.319 . S
C1626 N1625 1.365 . S
C1626 C1628 1.405 . S
C1626 C1634 1.448 . S
C1627 H1622 0.931 . S
C1627 C1629 1.397 . S
C1627 C1630 1.367 . S
C1628 C1626 1.405 . S
C1628 C1630 1.403 . S
C1628 C1661 1.439 . S
C1629 H1614 0.930 . S
C1629 N1625 1.319 . S
C1629 C1627 1.397 . S
C1630 C1627 1.367 . S
C1630 C1628 1.403 . S
C1630 H1637 0.929 . S
N1631 Eu1596 2.562 . S
N1631 C1632 1.325 . S
N1631 C1634 1.351 . S
C1632 H1618 0.929 . S
C1632 N1631 1.325 . S
C1632 C1636 1.416 . S
C1633 C1634 1.430 . S
C1633 C1635 1.404 . S
C1633 C1662 1.387 . S
C1634 C1626 1.448 . S
C1634 N1631 1.351 . S
C1634 C1633 1.430 . S
C1635 H1624 0.930 . S
C1635 C1633 1.404 . S
C1635 C1636 1.366 . S
C1636 H1615 0.930 . S
C1636 C1632 1.416 . S
C1636 C1635 1.366 . S
H1637 C1630 0.929 . S
H1638 C1661 0.931 . S
H1639 C1662 0.931 . S
O1640 Eu1596 2.462 . S
O1640 C1660 1.252 . S
O1641 Eu1596 2.373 . S
O1641 C1652 1.249 . S
O1642 Eu1607 2.335 . S
O1642 C1652 1.264 . S
O1643 Eu1596 2.432 . S
O1643 C1660 1.268 . S
O1644 Eu1596 2.291 . S
O1644 C1659 1.255 . S
O1645 Eu1607 2.372 . S
O1645 C1659 1.257 . S
O1646 Eu1607 2.462 . S
O1646 C1671 1.252 . S
O1647 Eu1607 2.373 . S
O1647 C1663 1.249 . S
O1648 Eu1596 2.335 . S
O1648 C1663 1.264 . S
O1649 Eu1607 2.432 . S
O1649 C1671 1.268 . S
O1650 Eu1607 2.291 . S
O1650 C1670 1.255 . S
O1651 Eu1596 2.372 . S
O1651 C1670 1.257 . S
C1652 O1641 1.249 . S
C1652 O1642 1.264 . S
C1653 C1656 1.382 . S
C1653 C1658 1.390 . S
C1653 C1660 1.506 . S
C1654 C1655 1.398 . S
C1654 C1658 1.392 . S
C1655 C1654 1.398 . S
C1655 C1657 1.372 . S
C1655 H1672 0.931 . S
C1656 C1653 1.382 . S
C1656 C1657 1.390 . S
C1656 H1673 0.931 . S
C1657 C1655 1.372 . S
C1657 C1656 1.390 . S
C1657 H1674 0.929 . S
C1658 C1653 1.390 . S
C1658 C1654 1.392 . S
C1658 H1675 0.930 . S
C1659 O1644 1.255 . S
C1659 O1645 1.257 . S
C1660 Eu1596 2.787 . S
C1660 O1640 1.252 . S
C1660 O1643 1.268 . S
C1660 C1653 1.506 . S
C1661 C1628 1.439 . S
C1661 H1638 0.931 . S
C1661 C1662 1.374 . S
C1662 C1633 1.387 . S
C1662 H1639 0.931 . S
C1662 C1661 1.374 . S
C1663 O1647 1.249 . S
C1663 O1648 1.264 . S
C1664 C1667 1.382 . S
C1664 C1668 1.390 . S
C1664 C1671 1.506 . S
C1665 C1666 1.398 . S
C1665 C1668 1.392 . S
C1666 C1665 1.398 . S
C1666 C1669 1.372 . S
C1666 H1676 0.931 . S
C1667 C1664 1.382 . S
C1667 C1669 1.390 . S
C1667 H1677 0.931 . S
C1668 C1664 1.390 . S
C1668 C1665 1.392 . S
C1668 H1678 0.930 . S
C1669 C1666 1.372 . S
C1669 C1667 1.390 . S
C1669 H1679 0.929 . S
C1670 O1650 1.255 . S
C1670 O1651 1.257 . S
C1671 Eu1607 2.787 . S
C1671 O1646 1.252 . S
C1671 O1649 1.268 . S
C1671 C1664 1.506 . S
H1672 C1655 0.931 . S
H1673 C1656 0.931 . S
H1674 C1657 0.929 . S
H1675 C1658 0.930 . S
H1676 C1666 0.931 . S
H1677 C1667 0.931 . S
H1678 C1668 0.930 . S
H1679 C1669 0.929 . S
Eu1680 N1709 2.600 . S
Eu1680 N1715 2.562 . S
Eu1680 O1724 2.462 . S
Eu1680 O1725 2.373 . S
Eu1680 O1727 2.432 . S
Eu1680 O1728 2.291 . S
Eu1680 O1732 2.335 . S
Eu1680 O1735 2.372 . S
Eu1680 C1744 2.787 . S
C1681 N1682 1.365 . S
C1681 C1684 1.405 . S
C1681 C1688 1.448 . S
N1682 C1681 1.365 . S
N1682 C1685 1.319 . S
N1682 Eu1691 2.600 . S
C1683 C1685 1.397 . S
C1683 C1686 1.367 . S
C1683 H1703 0.931 . S
C1684 C1681 1.405 . S
C1684 C1686 1.403 . S
C1684 C1690 1.439 . S
C1685 N1682 1.319 . S
C1685 C1683 1.397 . S
C1685 H1696 0.930 . S
C1686 C1683 1.367 . S
C1686 C1684 1.403 . S
C1686 H1707 0.929 . S
C1687 C1688 1.430 . S
C1687 C1689 1.387 . S
C1687 C1693 1.404 . S
C1688 C1681 1.448 . S
C1688 C1687 1.430 . S
C1688 N1692 1.351 . S
C1689 C1687 1.387 . S
C1689 C1690 1.374 . S
C1689 H1704 0.931 . S
C1690 C1684 1.439 . S
C1690 C1689 1.374 . S
C1690 H1705 0.931 . S
Eu1691 N1682 2.600 . S
Eu1691 N1692 2.562 . S
Eu1691 O1726 2.335 . S
Eu1691 O1729 2.372 . S
Eu1691 O1730 2.462 . S
Eu1691 O1731 2.373 . S
Eu1691 O1733 2.432 . S
Eu1691 O1734 2.291 . S
Eu1691 C1755 2.787 . S
N1692 C1688 1.351 . S
N1692 Eu1691 2.562 . S
N1692 C1694 1.325 . S
C1693 C1687 1.404 . S
C1693 C1695 1.366 . S
C1693 H1701 0.930 . S
C1694 N1692 1.325 . S
C1694 C1695 1.416 . S
C1694 H1700 0.929 . S
C1695 C1693 1.366 . S
C1695 C1694 1.416 . S
C1695 H1697 0.930 . S
H1696 C1685 0.930 . S
H1697 C1695 0.930 . S
H1698 C1713 0.930 . S
H1699 C1720 0.930 . S
H1700 C1694 0.929 . S
H1701 C1693 0.930 . S
H1702 C1716 0.929 . S
H1703 C1683 0.931 . S
H1704 C1689 0.931 . S
H1705 C1690 0.931 . S
H1706 C1711 0.931 . S
H1707 C1686 0.929 . S
H1708 C1719 0.930 . S
N1709 Eu1680 2.600 . S
N1709 C1710 1.365 . S
N1709 C1713 1.319 . S
C1710 N1709 1.365 . S
C1710 C1712 1.405 . S
C1710 C1718 1.448 . S
C1711 H1706 0.931 . S
C1711 C1713 1.397 . S
C1711 C1714 1.367 . S
C1712 C1710 1.405 . S
C1712 C1714 1.403 . S
C1712 C1745 1.439 . S
C1713 H1698 0.930 . S
C1713 N1709 1.319 . S
C1713 C1711 1.397 . S
C1714 C1711 1.367 . S
C1714 C1712 1.403 . S
C1714 H1721 0.929 . S
N1715 Eu1680 2.562 . S
N1715 C1716 1.325 . S
N1715 C1718 1.351 . S
C1716 H1702 0.929 . S
C1716 N1715 1.325 . S
C1716 C1720 1.416 . S
C1717 C1718 1.430 . S
C1717 C1719 1.404 . S
C1717 C1746 1.387 . S
C1718 C1710 1.448 . S
C1718 N1715 1.351 . S
C1718 C1717 1.430 . S
C1719 H1708 0.930 . S
C1719 C1717 1.404 . S
C1719 C1720 1.366 . S
C1720 H1699 0.930 . S
C1720 C1716 1.416 . S
C1720 C1719 1.366 . S
H1721 C1714 0.929 . S
H1722 C1745 0.931 . S
H1723 C1746 0.931 . S
O1724 Eu1680 2.462 . S
O1724 C1744 1.252 . S
O1725 Eu1680 2.373 . S
O1725 C1736 1.249 . S
O1726 Eu1691 2.335 . S
O1726 C1736 1.264 . S
O1727 Eu1680 2.432 . S
O1727 C1744 1.268 . S
O1728 Eu1680 2.291 . S
O1728 C1743 1.255 . S
O1729 Eu1691 2.372 . S
O1729 C1743 1.257 . S
O1730 Eu1691 2.462 . S
O1730 C1755 1.252 . S
O1731 Eu1691 2.373 . S
O1731 C1747 1.249 . S
O1732 Eu1680 2.335 . S
O1732 C1747 1.264 . S
O1733 Eu1691 2.432 . S
O1733 C1755 1.268 . S
O1734 Eu1691 2.291 . S
O1734 C1754 1.255 . S
O1735 Eu1680 2.372 . S
O1735 C1754 1.257 . S
C1736 O1725 1.249 . S
C1736 O1726 1.264 . S
C1737 C1740 1.382 . S
C1737 C1742 1.390 . S
C1737 C1744 1.506 . S
C1738 C1739 1.398 . S
C1738 C1742 1.392 . S
C1739 C1738 1.398 . S
C1739 C1741 1.372 . S
C1739 H1756 0.931 . S
C1740 C1737 1.382 . S
C1740 C1741 1.390 . S
C1740 H1757 0.931 . S
C1741 C1739 1.372 . S
C1741 C1740 1.390 . S
C1741 H1758 0.929 . S
C1742 C1737 1.390 . S
C1742 C1738 1.392 . S
C1742 H1759 0.930 . S
C1743 O1728 1.255 . S
C1743 O1729 1.257 . S
C1744 Eu1680 2.787 . S
C1744 O1724 1.252 . S
C1744 O1727 1.268 . S
C1744 C1737 1.506 . S
C1745 C1712 1.439 . S
C1745 H1722 0.931 . S
C1745 C1746 1.374 . S
C1746 C1717 1.387 . S
C1746 H1723 0.931 . S
C1746 C1745 1.374 . S
C1747 O1731 1.249 . S
C1747 O1732 1.264 . S
C1748 C1751 1.382 . S
C1748 C1752 1.390 . S
C1748 C1755 1.506 . S
C1749 C1750 1.398 . S
C1749 C1752 1.392 . S
C1750 C1749 1.398 . S
C1750 C1753 1.372 . S
C1750 H1760 0.931 . S
C1751 C1748 1.382 . S
C1751 C1753 1.390 . S
C1751 H1761 0.931 . S
C1752 C1748 1.390 . S
C1752 C1749 1.392 . S
C1752 H1762 0.930 . S
C1753 C1750 1.372 . S
C1753 C1751 1.390 . S
C1753 H1763 0.929 . S
C1754 O1734 1.255 . S
C1754 O1735 1.257 . S
C1755 Eu1691 2.787 . S
C1755 O1730 1.252 . S
C1755 O1733 1.268 . S
C1755 C1748 1.506 . S
H1756 C1739 0.931 . S
H1757 C1740 0.931 . S
H1758 C1741 0.929 . S
H1759 C1742 0.930 . S
H1760 C1750 0.931 . S
H1761 C1751 0.931 . S
H1762 C1752 0.930 . S
H1763 C1753 0.929 . S
Eu1764 N1793 2.600 . S
Eu1764 N1799 2.562 . S
Eu1764 O1808 2.462 . S
Eu1764 O1809 2.373 . S
Eu1764 O1811 2.432 . S
Eu1764 O1812 2.291 . S
Eu1764 O1816 2.335 . S
Eu1764 O1819 2.372 . S
Eu1764 C1828 2.787 . S
C1765 N1766 1.365 . S
C1765 C1768 1.405 . S
C1765 C1772 1.448 . S
N1766 C1765 1.365 . S
N1766 C1769 1.319 . S
N1766 Eu1775 2.600 . S
C1767 C1769 1.397 . S
C1767 C1770 1.367 . S
C1767 H1787 0.931 . S
C1768 C1765 1.405 . S
C1768 C1770 1.403 . S
C1768 C1774 1.439 . S
C1769 N1766 1.319 . S
C1769 C1767 1.397 . S
C1769 H1780 0.930 . S
C1770 C1767 1.367 . S
C1770 C1768 1.403 . S
C1770 H1791 0.929 . S
C1771 C1772 1.430 . S
C1771 C1773 1.387 . S
C1771 C1777 1.404 . S
C1772 C1765 1.448 . S
C1772 C1771 1.430 . S
C1772 N1776 1.351 . S
C1773 C1771 1.387 . S
C1773 C1774 1.374 . S
C1773 H1788 0.931 . S
C1774 C1768 1.439 . S
C1774 C1773 1.374 . S
C1774 H1789 0.931 . S
Eu1775 N1766 2.600 . S
Eu1775 N1776 2.562 . S
Eu1775 O1810 2.335 . S
Eu1775 O1813 2.372 . S
Eu1775 O1814 2.462 . S
Eu1775 O1815 2.373 . S
Eu1775 O1817 2.432 . S
Eu1775 O1818 2.291 . S
Eu1775 C1839 2.787 . S
N1776 C1772 1.351 . S
N1776 Eu1775 2.562 . S
N1776 C1778 1.325 . S
C1777 C1771 1.404 . S
C1777 C1779 1.366 . S
C1777 H1785 0.930 . S
C1778 N1776 1.325 . S
C1778 C1779 1.416 . S
C1778 H1784 0.929 . S
C1779 C1777 1.366 . S
C1779 C1778 1.416 . S
C1779 H1781 0.930 . S
H1780 C1769 0.930 . S
H1781 C1779 0.930 . S
H1782 C1797 0.930 . S
H1783 C1804 0.930 . S
H1784 C1778 0.929 . S
H1785 C1777 0.930 . S
H1786 C1800 0.929 . S
H1787 C1767 0.931 . S
H1788 C1773 0.931 . S
H1789 C1774 0.931 . S
H1790 C1795 0.931 . S
H1791 C1770 0.929 . S
H1792 C1803 0.930 . S
N1793 Eu1764 2.600 . S
N1793 C1794 1.365 . S
N1793 C1797 1.319 . S
C1794 N1793 1.365 . S
C1794 C1796 1.405 . S
C1794 C1802 1.448 . S
C1795 H1790 0.931 . S
C1795 C1797 1.397 . S
C1795 C1798 1.367 . S
C1796 C1794 1.405 . S
C1796 C1798 1.403 . S
C1796 C1829 1.439 . S
C1797 H1782 0.930 . S
C1797 N1793 1.319 . S
C1797 C1795 1.397 . S
C1798 C1795 1.367 . S
C1798 C1796 1.403 . S
C1798 H1805 0.929 . S
N1799 Eu1764 2.562 . S
N1799 C1800 1.325 . S
N1799 C1802 1.351 . S
C1800 H1786 0.929 . S
C1800 N1799 1.325 . S
C1800 C1804 1.416 . S
C1801 C1802 1.430 . S
C1801 C1803 1.404 . S
C1801 C1830 1.387 . S
C1802 C1794 1.448 . S
C1802 N1799 1.351 . S
C1802 C1801 1.430 . S
C1803 H1792 0.930 . S
C1803 C1801 1.404 . S
C1803 C1804 1.366 . S
C1804 H1783 0.930 . S
C1804 C1800 1.416 . S
C1804 C1803 1.366 . S
H1805 C1798 0.929 . S
H1806 C1829 0.931 . S
H1807 C1830 0.931 . S
O1808 Eu1764 2.462 . S
O1808 C1828 1.252 . S
O1809 Eu1764 2.373 . S
O1809 C1820 1.249 . S
O1810 Eu1775 2.335 . S
O1810 C1820 1.264 . S
O1811 Eu1764 2.432 . S
O1811 C1828 1.268 . S
O1812 Eu1764 2.291 . S
O1812 C1827 1.255 . S
O1813 Eu1775 2.372 . S
O1813 C1827 1.257 . S
O1814 Eu1775 2.462 . S
O1814 C1839 1.252 . S
O1815 Eu1775 2.373 . S
O1815 C1831 1.249 . S
O1816 Eu1764 2.335 . S
O1816 C1831 1.264 . S
O1817 Eu1775 2.432 . S
O1817 C1839 1.268 . S
O1818 Eu1775 2.291 . S
O1818 C1838 1.255 . S
O1819 Eu1764 2.372 . S
O1819 C1838 1.257 . S
C1820 O1809 1.249 . S
C1820 O1810 1.264 . S
C1821 C1824 1.382 . S
C1821 C1826 1.390 . S
C1821 C1828 1.506 . S
C1822 C1823 1.398 . S
C1822 C1826 1.392 . S
C1823 C1822 1.398 . S
C1823 C1825 1.372 . S
C1823 H1840 0.931 . S
C1824 C1821 1.382 . S
C1824 C1825 1.390 . S
C1824 H1841 0.931 . S
C1825 C1823 1.372 . S
C1825 C1824 1.390 . S
C1825 H1842 0.929 . S
C1826 C1821 1.390 . S
C1826 C1822 1.392 . S
C1826 H1843 0.930 . S
C1827 O1812 1.255 . S
C1827 O1813 1.257 . S
C1828 Eu1764 2.787 . S
C1828 O1808 1.252 . S
C1828 O1811 1.268 . S
C1828 C1821 1.506 . S
C1829 C1796 1.439 . S
C1829 H1806 0.931 . S
C1829 C1830 1.374 . S
C1830 C1801 1.387 . S
C1830 H1807 0.931 . S
C1830 C1829 1.374 . S
C1831 O1815 1.249 . S
C1831 O1816 1.264 . S
C1832 C1835 1.382 . S
C1832 C1836 1.390 . S
C1832 C1839 1.506 . S
C1833 C1834 1.398 . S
C1833 C1836 1.392 . S
C1834 C1833 1.398 . S
C1834 C1837 1.372 . S
C1834 H1844 0.931 . S
C1835 C1832 1.382 . S
C1835 C1837 1.390 . S
C1835 H1845 0.931 . S
C1836 C1832 1.390 . S
C1836 C1833 1.392 . S
C1836 H1846 0.930 . S
C1837 C1834 1.372 . S
C1837 C1835 1.390 . S
C1837 H1847 0.929 . S
C1838 O1818 1.255 . S
C1838 O1819 1.257 . S
C1839 Eu1775 2.787 . S
C1839 O1814 1.252 . S
C1839 O1817 1.268 . S
C1839 C1832 1.506 . S
H1840 C1823 0.931 . S
H1841 C1824 0.931 . S
H1842 C1825 0.929 . S
H1843 C1826 0.930 . S
H1844 C1834 0.931 . S
H1845 C1835 0.931 . S
H1846 C1836 0.930 . S
H1847 C1837 0.929 . S
Eu1848 N1877 2.600 . S
Eu1848 N1883 2.562 . S
Eu1848 O1892 2.462 1_554 S
Eu1848 O1893 2.373 . S
Eu1848 O1895 2.432 . S
Eu1848 O1896 2.291 1_554 S
Eu1848 O1900 2.335 1_554 S
Eu1848 O1903 2.372 . S
Eu1848 C1912 2.787 1_554 S
C1849 N1850 1.365 . S
C1849 C1852 1.405 . S
C1849 C1856 1.448 . S
N1850 C1849 1.365 . S
N1850 C1853 1.319 . S
N1850 Eu1859 2.600 . S
C1851 C1853 1.397 . S
C1851 C1854 1.367 . S
C1851 H1871 0.931 . S
C1852 C1849 1.405 . S
C1852 C1854 1.403 . S
C1852 C1858 1.439 . S
C1853 N1850 1.319 . S
C1853 C1851 1.397 . S
C1853 H1864 0.930 . S
C1854 C1851 1.367 . S
C1854 C1852 1.403 . S
C1854 H1875 0.929 . S
C1855 C1856 1.430 . S
C1855 C1857 1.387 . S
C1855 C1861 1.404 . S
C1856 C1849 1.448 . S
C1856 C1855 1.430 . S
C1856 N1860 1.351 . S
C1857 C1855 1.387 . S
C1857 C1858 1.374 . S
C1857 H1872 0.931 . S
C1858 C1852 1.439 . S
C1858 C1857 1.374 . S
C1858 H1873 0.931 . S
Eu1859 N1850 2.600 . S
Eu1859 N1860 2.562 . S
Eu1859 O1894 2.335 1_556 S
Eu1859 O1897 2.372 . S
Eu1859 O1898 2.462 1_556 S
Eu1859 O1899 2.373 . S
Eu1859 O1901 2.432 . S
Eu1859 O1902 2.291 1_556 S
Eu1859 C1923 2.787 1_556 S
N1860 C1856 1.351 . S
N1860 Eu1859 2.562 . S
N1860 C1862 1.325 . S
C1861 C1855 1.404 . S
C1861 C1863 1.366 . S
C1861 H1869 0.930 . S
C1862 N1860 1.325 . S
C1862 C1863 1.416 . S
C1862 H1868 0.929 . S
C1863 C1861 1.366 . S
C1863 C1862 1.416 . S
C1863 H1865 0.930 . S
H1864 C1853 0.930 . S
H1865 C1863 0.930 . S
H1866 C1881 0.930 . S
H1867 C1888 0.930 . S
H1868 C1862 0.929 . S
H1869 C1861 0.930 . S
H1870 C1884 0.929 . S
H1871 C1851 0.931 . S
H1872 C1857 0.931 . S
H1873 C1858 0.931 . S
H1874 C1879 0.931 . S
H1875 C1854 0.929 . S
H1876 C1887 0.930 . S
N1877 Eu1848 2.600 . S
N1877 C1878 1.365 . S
N1877 C1881 1.319 . S
C1878 N1877 1.365 . S
C1878 C1880 1.405 . S
C1878 C1886 1.448 . S
C1879 H1874 0.931 . S
C1879 C1881 1.397 . S
C1879 C1882 1.367 . S
C1880 C1878 1.405 . S
C1880 C1882 1.403 . S
C1880 C1913 1.439 . S
C1881 H1866 0.930 . S
C1881 N1877 1.319 . S
C1881 C1879 1.397 . S
C1882 C1879 1.367 . S
C1882 C1880 1.403 . S
C1882 H1889 0.929 . S
N1883 Eu1848 2.562 . S
N1883 C1884 1.325 . S
N1883 C1886 1.351 . S
C1884 H1870 0.929 . S
C1884 N1883 1.325 . S
C1884 C1888 1.416 . S
C1885 C1886 1.430 . S
C1885 C1887 1.404 . S
C1885 C1914 1.387 . S
C1886 C1878 1.448 . S
C1886 N1883 1.351 . S
C1886 C1885 1.430 . S
C1887 H1876 0.930 . S
C1887 C1885 1.404 . S
C1887 C1888 1.366 . S
C1888 H1867 0.930 . S
C1888 C1884 1.416 . S
C1888 C1887 1.366 . S
H1889 C1882 0.929 . S
H1890 C1913 0.931 . S
H1891 C1914 0.931 . S
O1892 Eu1848 2.462 1_556 S
O1892 C1912 1.252 . S
O1893 Eu1848 2.373 . S
O1893 C1904 1.249 . S
O1894 Eu1859 2.335 1_554 S
O1894 C1904 1.264 . S
O1895 Eu1848 2.432 . S
O1895 C1912 1.268 1_554 S
O1896 Eu1848 2.291 1_556 S
O1896 C1911 1.255 . S
O1897 Eu1859 2.372 . S
O1897 C1911 1.257 . S
O1898 Eu1859 2.462 1_554 S
O1898 C1923 1.252 . S
O1899 Eu1859 2.373 . S
O1899 C1915 1.249 . S
O1900 Eu1848 2.335 1_556 S
O1900 C1915 1.264 . S
O1901 Eu1859 2.432 . S
O1901 C1923 1.268 1_556 S
O1902 Eu1859 2.291 1_554 S
O1902 C1922 1.255 . S
O1903 Eu1848 2.372 . S
O1903 C1922 1.257 . S
C1904 O1893 1.249 . S
C1904 O1894 1.264 . S
C1905 C1908 1.382 . S
C1905 C1910 1.390 . S
C1905 C1912 1.506 . S
C1906 C1907 1.398 . S
C1906 C1910 1.392 . S
C1907 C1906 1.398 . S
C1907 C1909 1.372 . S
C1907 H1924 0.931 . S
C1908 C1905 1.382 . S
C1908 C1909 1.390 . S
C1908 H1925 0.931 . S
C1909 C1907 1.372 . S
C1909 C1908 1.390 . S
C1909 H1926 0.929 . S
C1910 C1905 1.390 . S
C1910 C1906 1.392 . S
C1910 H1927 0.930 . S
C1911 O1896 1.255 . S
C1911 O1897 1.257 . S
C1912 Eu1848 2.787 1_556 S
C1912 O1892 1.252 . S
C1912 O1895 1.268 1_556 S
C1912 C1905 1.506 . S
C1913 C1880 1.439 . S
C1913 H1890 0.931 . S
C1913 C1914 1.374 . S
C1914 C1885 1.387 . S
C1914 H1891 0.931 . S
C1914 C1913 1.374 . S
C1915 O1899 1.249 . S
C1915 O1900 1.264 . S
C1916 C1919 1.382 . S
C1916 C1920 1.390 . S
C1916 C1923 1.506 . S
C1917 C1918 1.398 . S
C1917 C1920 1.392 . S
C1918 C1917 1.398 . S
C1918 C1921 1.372 . S
C1918 H1928 0.931 . S
C1919 C1916 1.382 . S
C1919 C1921 1.390 . S
C1919 H1929 0.931 . S
C1920 C1916 1.390 . S
C1920 C1917 1.392 . S
C1920 H1930 0.930 . S
C1921 C1918 1.372 . S
C1921 C1919 1.390 . S
C1921 H1931 0.929 . S
C1922 O1902 1.255 . S
C1922 O1903 1.257 . S
C1923 Eu1859 2.787 1_554 S
C1923 O1898 1.252 . S
C1923 O1901 1.268 1_554 S
C1923 C1916 1.506 . S
H1924 C1907 0.931 . S
H1925 C1908 0.931 . S
H1926 C1909 0.929 . S
H1927 C1910 0.930 . S
H1928 C1918 0.931 . S
H1929 C1919 0.931 . S
H1930 C1920 0.930 . S
H1931 C1921 0.929 . S
Eu1932 N1961 2.600 . S
Eu1932 N1967 2.562 . S
Eu1932 O1976 2.462 . S
Eu1932 O1977 2.373 . S
Eu1932 O1979 2.432 . S
Eu1932 O1980 2.291 . S
Eu1932 O1984 2.335 . S
Eu1932 O1987 2.372 . S
Eu1932 C1996 2.787 . S
C1933 N1934 1.365 . S
C1933 C1936 1.405 . S
C1933 C1940 1.448 . S
N1934 C1933 1.365 . S
N1934 C1937 1.319 . S
N1934 Eu1943 2.600 . S
C1935 C1937 1.397 . S
C1935 C1938 1.367 . S
C1935 H1955 0.931 . S
C1936 C1933 1.405 . S
C1936 C1938 1.403 . S
C1936 C1942 1.439 . S
C1937 N1934 1.319 . S
C1937 C1935 1.397 . S
C1937 H1948 0.930 . S
C1938 C1935 1.367 . S
C1938 C1936 1.403 . S
C1938 H1959 0.929 . S
C1939 C1940 1.430 . S
C1939 C1941 1.387 . S
C1939 C1945 1.404 . S
C1940 C1933 1.448 . S
C1940 C1939 1.430 . S
C1940 N1944 1.351 . S
C1941 C1939 1.387 . S
C1941 C1942 1.374 . S
C1941 H1956 0.931 . S
C1942 C1936 1.439 . S
C1942 C1941 1.374 . S
C1942 H1957 0.931 . S
Eu1943 N1934 2.600 . S
Eu1943 N1944 2.562 . S
Eu1943 O1978 2.335 . S
Eu1943 O1981 2.372 . S
Eu1943 O1982 2.462 . S
Eu1943 O1983 2.373 . S
Eu1943 O1985 2.432 . S
Eu1943 O1986 2.291 . S
Eu1943 C2007 2.787 . S
N1944 C1940 1.351 . S
N1944 Eu1943 2.562 . S
N1944 C1946 1.325 . S
C1945 C1939 1.404 . S
C1945 C1947 1.366 . S
C1945 H1953 0.930 . S
C1946 N1944 1.325 . S
C1946 C1947 1.416 . S
C1946 H1952 0.929 . S
C1947 C1945 1.366 . S
C1947 C1946 1.416 . S
C1947 H1949 0.930 . S
H1948 C1937 0.930 . S
H1949 C1947 0.930 . S
H1950 C1965 0.930 . S
H1951 C1972 0.930 . S
H1952 C1946 0.929 . S
H1953 C1945 0.930 . S
H1954 C1968 0.929 . S
H1955 C1935 0.931 . S
H1956 C1941 0.931 . S
H1957 C1942 0.931 . S
H1958 C1963 0.931 . S
H1959 C1938 0.929 . S
H1960 C1971 0.930 . S
N1961 Eu1932 2.600 . S
N1961 C1962 1.365 . S
N1961 C1965 1.319 . S
C1962 N1961 1.365 . S
C1962 C1964 1.405 . S
C1962 C1970 1.448 . S
C1963 H1958 0.931 . S
C1963 C1965 1.397 . S
C1963 C1966 1.367 . S
C1964 C1962 1.405 . S
C1964 C1966 1.403 . S
C1964 C1997 1.439 . S
C1965 H1950 0.930 . S
C1965 N1961 1.319 . S
C1965 C1963 1.397 . S
C1966 C1963 1.367 . S
C1966 C1964 1.403 . S
C1966 H1973 0.929 . S
N1967 Eu1932 2.562 . S
N1967 C1968 1.325 . S
N1967 C1970 1.351 . S
C1968 H1954 0.929 . S
C1968 N1967 1.325 . S
C1968 C1972 1.416 . S
C1969 C1970 1.430 . S
C1969 C1971 1.404 . S
C1969 C1998 1.387 . S
C1970 C1962 1.448 . S
C1970 N1967 1.351 . S
C1970 C1969 1.430 . S
C1971 H1960 0.930 . S
C1971 C1969 1.404 . S
C1971 C1972 1.366 . S
C1972 H1951 0.930 . S
C1972 C1968 1.416 . S
C1972 C1971 1.366 . S
H1973 C1966 0.929 . S
H1974 C1997 0.931 . S
H1975 C1998 0.931 . S
O1976 Eu1932 2.462 . S
O1976 C1996 1.252 . S
O1977 Eu1932 2.373 . S
O1977 C1988 1.249 . S
O1978 Eu1943 2.335 . S
O1978 C1988 1.264 . S
O1979 Eu1932 2.432 . S
O1979 C1996 1.268 . S
O1980 Eu1932 2.291 . S
O1980 C1995 1.255 . S
O1981 Eu1943 2.372 . S
O1981 C1995 1.257 . S
O1982 Eu1943 2.462 . S
O1982 C2007 1.252 . S
O1983 Eu1943 2.373 . S
O1983 C1999 1.249 . S
O1984 Eu1932 2.335 . S
O1984 C1999 1.264 . S
O1985 Eu1943 2.432 . S
O1985 C2007 1.268 . S
O1986 Eu1943 2.291 . S
O1986 C2006 1.255 . S
O1987 Eu1932 2.372 . S
O1987 C2006 1.257 . S
C1988 O1977 1.249 . S
C1988 O1978 1.264 . S
C1989 C1992 1.382 . S
C1989 C1994 1.390 . S
C1989 C1996 1.506 . S
C1990 C1991 1.398 . S
C1990 C1994 1.392 . S
C1991 C1990 1.398 . S
C1991 C1993 1.372 . S
C1991 H2008 0.931 . S
C1992 C1989 1.382 . S
C1992 C1993 1.390 . S
C1992 H2009 0.931 . S
C1993 C1991 1.372 . S
C1993 C1992 1.390 . S
C1993 H2010 0.929 . S
C1994 C1989 1.390 . S
C1994 C1990 1.392 . S
C1994 H2011 0.930 . S
C1995 O1980 1.255 . S
C1995 O1981 1.257 . S
C1996 Eu1932 2.787 . S
C1996 O1976 1.252 . S
C1996 O1979 1.268 . S
C1996 C1989 1.506 . S
C1997 C1964 1.439 . S
C1997 H1974 0.931 . S
C1997 C1998 1.374 . S
C1998 C1969 1.387 . S
C1998 H1975 0.931 . S
C1998 C1997 1.374 . S
C1999 O1983 1.249 . S
C1999 O1984 1.264 . S
C2000 C2003 1.382 . S
C2000 C2004 1.390 . S
C2000 C2007 1.506 . S
C2001 C2002 1.398 . S
C2001 C2004 1.392 . S
C2002 C2001 1.398 . S
C2002 C2005 1.372 . S
C2002 H2012 0.931 . S
C2003 C2000 1.382 . S
C2003 C2005 1.390 . S
C2003 H2013 0.931 . S
C2004 C2000 1.390 . S
C2004 C2001 1.392 . S
C2004 H2014 0.930 . S
C2005 C2002 1.372 . S
C2005 C2003 1.390 . S
C2005 H2015 0.929 . S
C2006 O1986 1.255 . S
C2006 O1987 1.257 . S
C2007 Eu1943 2.787 . S
C2007 O1982 1.252 . S
C2007 O1985 1.268 . S
C2007 C2000 1.506 . S
H2008 C1991 0.931 . S
H2009 C1992 0.931 . S
H2010 C1993 0.929 . S
H2011 C1994 0.930 . S
H2012 C2002 0.931 . S
H2013 C2003 0.931 . S
H2014 C2004 0.930 . S
H2015 C2005 0.929 . S
C2016 C2017 1.391 . S
C2016 C2018 1.394 . S
C2016 H2032 0.931 . S
C2017 C2016 1.391 . S
C2017 C2021 1.376 . S
C2018 C2016 1.394 . S
C2018 C2019 1.369 . S
C2018 C2022 1.531 . S
C2019 C2018 1.369 . S
C2019 C2020 1.410 . S
C2019 C2027 1.503 . S
C2020 C2019 1.410 . S
C2020 C2021 1.392 . S
C2020 C2023 1.511 . S
C2021 C2017 1.376 . S
C2021 C2020 1.392 . S
C2021 H2033 0.929 . S
C2022 C2018 1.531 . S
C2022 H2034 0.960 . S
C2022 H2035 0.962 . S
C2022 H2036 0.960 . S
C2023 C2020 1.511 . S
C2023 H2037 0.961 . S
C2023 H2038 0.961 . S
C2023 H2039 0.961 . S
C2024 C2025 1.370 . S
C2024 C2026 1.363 . S
C2024 H2040 0.931 . S
C2025 C2024 1.370 . S
C2025 C2029 1.408 . S
C2026 C2024 1.363 . S
C2026 C2027 1.370 . S
C2026 C2030 1.524 . S
C2027 C2019 1.503 . S
C2027 C2026 1.370 . S
C2027 C2028 1.403 . S
C2028 C2027 1.403 . S
C2028 C2029 1.404 . S
C2028 C2031 1.539 . S
C2029 C2025 1.408 . S
C2029 C2028 1.404 . S
C2029 H2041 0.930 . S
C2030 C2026 1.524 . S
C2030 H2042 0.956 . S
C2030 H2043 0.961 . S
C2030 H2044 0.961 . S
C2031 C2028 1.539 . S
C2031 H2045 0.958 . S
C2031 H2046 0.961 . S
C2031 H2047 0.960 . S
H2032 C2016 0.931 . S
H2033 C2021 0.929 . S
H2034 C2022 0.960 . S
H2035 C2022 0.962 . S
H2036 C2022 0.960 . S
H2037 C2023 0.961 . S
H2038 C2023 0.961 . S
H2039 C2023 0.961 . S
H2040 C2024 0.931 . S
H2041 C2029 0.930 . S
H2042 C2030 0.956 . S
H2043 C2030 0.961 . S
H2044 C2030 0.961 . S
H2045 C2031 0.958 . S
H2046 C2031 0.961 . S
H2047 C2031 0.960 . S
C2048 C2049 1.391 . S
C2048 C2050 1.394 . S
C2048 H2064 0.931 . S
C2049 C2048 1.391 . S
C2049 C2053 1.376 . S
C2050 C2048 1.394 . S
C2050 C2051 1.369 . S
C2050 C2054 1.531 . S
C2051 C2050 1.369 . S
C2051 C2052 1.410 1_655 S
C2051 C2059 1.503 . S
C2052 C2051 1.410 1_455 S
C2052 C2053 1.392 1_455 S
C2052 C2055 1.511 . S
C2053 C2049 1.376 . S
C2053 C2052 1.392 1_655 S
C2053 H2065 0.929 1_655 S
C2054 C2050 1.531 . S
C2054 H2066 0.960 . S
C2054 H2067 0.962 . S
C2054 H2068 0.960 . S
C2055 C2052 1.511 . S
C2055 H2069 0.961 . S
C2055 H2070 0.961 . S
C2055 H2071 0.961 . S
C2056 C2057 1.370 . S
C2056 C2058 1.363 . S
C2056 H2072 0.931 . S
C2057 C2056 1.370 . S
C2057 C2061 1.408 1_655 S
C2058 C2056 1.363 . S
C2058 C2059 1.370 . S
C2058 C2062 1.524 . S
C2059 C2051 1.503 . S
C2059 C2058 1.370 . S
C2059 C2060 1.403 1_655 S
C2060 C2059 1.403 1_455 S
C2060 C2061 1.404 . S
C2060 C2063 1.539 . S
C2061 C2057 1.408 1_455 S
C2061 C2060 1.404 . S
C2061 H2073 0.930 . S
C2062 C2058 1.524 . S
C2062 H2074 0.956 . S
C2062 H2075 0.961 . S
C2062 H2076 0.961 . S
C2063 C2060 1.539 . S
C2063 H2077 0.958 . S
C2063 H2078 0.961 . S
C2063 H2079 0.960 . S
H2064 C2048 0.931 . S
H2065 C2053 0.929 1_455 S
H2066 C2054 0.960 . S
H2067 C2054 0.962 . S
H2068 C2054 0.960 . S
H2069 C2055 0.961 . S
H2070 C2055 0.961 . S
H2071 C2055 0.961 . S
H2072 C2056 0.931 . S
H2073 C2061 0.930 . S
H2074 C2062 0.956 . S
H2075 C2062 0.961 . S
H2076 C2062 0.961 . S
H2077 C2063 0.958 . S
H2078 C2063 0.961 . S
H2079 C2063 0.960 . S
C2080 C2081 1.391 . S
C2080 C2082 1.394 . S
C2080 H2096 0.931 . S
C2081 C2080 1.391 . S
C2081 C2085 1.376 . S
C2082 C2080 1.394 . S
C2082 C2083 1.369 . S
C2082 C2086 1.531 . S
C2083 C2082 1.369 . S
C2083 C2084 1.410 . S
C2083 C2091 1.503 . S
C2084 C2083 1.410 . S
C2084 C2085 1.392 . S
C2084 C2087 1.511 . S
C2085 C2081 1.376 . S
C2085 C2084 1.392 . S
C2085 H2097 0.929 . S
C2086 C2082 1.531 . S
C2086 H2098 0.960 . S
C2086 H2099 0.962 . S
C2086 H2100 0.960 . S
C2087 C2084 1.511 . S
C2087 H2101 0.961 . S
C2087 H2102 0.961 . S
C2087 H2103 0.961 . S
C2088 C2089 1.370 . S
C2088 C2090 1.363 . S
C2088 H2104 0.931 . S
C2089 C2088 1.370 . S
C2089 C2093 1.408 . S
C2090 C2088 1.363 . S
C2090 C2091 1.370 . S
C2090 C2094 1.524 . S
C2091 C2083 1.503 . S
C2091 C2090 1.370 . S
C2091 C2092 1.403 . S
C2092 C2091 1.403 . S
C2092 C2093 1.404 . S
C2092 C2095 1.539 . S
C2093 C2089 1.408 . S
C2093 C2092 1.404 . S
C2093 H2105 0.930 . S
C2094 C2090 1.524 . S
C2094 H2106 0.956 . S
C2094 H2107 0.961 . S
C2094 H2108 0.961 . S
C2095 C2092 1.539 . S
C2095 H2109 0.958 . S
C2095 H2110 0.961 . S
C2095 H2111 0.960 . S
H2096 C2080 0.931 . S
H2097 C2085 0.929 . S
H2098 C2086 0.960 . S
H2099 C2086 0.962 . S
H2100 C2086 0.960 . S
H2101 C2087 0.961 . S
H2102 C2087 0.961 . S
H2103 C2087 0.961 . S
H2104 C2088 0.931 . S
H2105 C2093 0.930 . S
H2106 C2094 0.956 . S
H2107 C2094 0.961 . S
H2108 C2094 0.961 . S
H2109 C2095 0.958 . S
H2110 C2095 0.961 . S
H2111 C2095 0.960 . S
C2112 C2113 1.391 . S
C2112 C2114 1.394 . S
C2112 H2128 0.931 . S
C2113 C2112 1.391 . S
C2113 C2117 1.376 . S
C2114 C2112 1.394 . S
C2114 C2115 1.369 . S
C2114 C2118 1.531 . S
C2115 C2114 1.369 . S
C2115 C2116 1.410 . S
C2115 C2123 1.503 . S
C2116 C2115 1.410 . S
C2116 C2117 1.392 . S
C2116 C2119 1.511 . S
C2117 C2113 1.376 . S
C2117 C2116 1.392 . S
C2117 H2129 0.929 . S
C2118 C2114 1.531 . S
C2118 H2130 0.960 . S
C2118 H2131 0.962 . S
C2118 H2132 0.960 . S
C2119 C2116 1.511 . S
C2119 H2133 0.961 . S
C2119 H2134 0.961 . S
C2119 H2135 0.961 . S
C2120 C2121 1.370 . S
C2120 C2122 1.363 . S
C2120 H2136 0.931 . S
C2121 C2120 1.370 . S
C2121 C2125 1.408 . S
C2122 C2120 1.363 . S
C2122 C2123 1.370 . S
C2122 C2126 1.524 . S
C2123 C2115 1.503 . S
C2123 C2122 1.370 . S
C2123 C2124 1.403 . S
C2124 C2123 1.403 . S
C2124 C2125 1.404 . S
C2124 C2127 1.539 . S
C2125 C2121 1.408 . S
C2125 C2124 1.404 . S
C2125 H2137 0.930 . S
C2126 C2122 1.524 . S
C2126 H2138 0.956 . S
C2126 H2139 0.961 . S
C2126 H2140 0.961 . S
C2127 C2124 1.539 . S
C2127 H2141 0.958 . S
C2127 H2142 0.961 . S
C2127 H2143 0.960 . S
H2128 C2112 0.931 . S
H2129 C2117 0.929 . S
H2130 C2118 0.960 . S
H2131 C2118 0.962 . S
H2132 C2118 0.960 . S
H2133 C2119 0.961 . S
H2134 C2119 0.961 . S
H2135 C2119 0.961 . S
H2136 C2120 0.931 . S
H2137 C2125 0.930 . S
H2138 C2126 0.956 . S
H2139 C2126 0.961 . S
H2140 C2126 0.961 . S
H2141 C2127 0.958 . S
H2142 C2127 0.961 . S
H2143 C2127 0.960 . S
C2144 C2145 1.391 . S
C2144 C2146 1.394 . S
C2144 H2160 0.931 . S
C2145 C2144 1.391 . S
C2145 C2149 1.376 . S
C2146 C2144 1.394 . S
C2146 C2147 1.369 . S
C2146 C2150 1.531 . S
C2147 C2146 1.369 . S
C2147 C2148 1.410 . S
C2147 C2155 1.503 . S
C2148 C2147 1.410 . S
C2148 C2149 1.392 . S
C2148 C2151 1.511 . S
C2149 C2145 1.376 . S
C2149 C2148 1.392 . S
C2149 H2161 0.929 . S
C2150 C2146 1.531 . S
C2150 H2162 0.960 . S
C2150 H2163 0.962 . S
C2150 H2164 0.960 . S
C2151 C2148 1.511 . S
C2151 H2165 0.961 . S
C2151 H2166 0.961 . S
C2151 H2167 0.961 . S
C2152 C2153 1.370 . S
C2152 C2154 1.363 . S
C2152 H2168 0.931 . S
C2153 C2152 1.370 . S
C2153 C2157 1.408 . S
C2154 C2152 1.363 . S
C2154 C2155 1.370 . S
C2154 C2158 1.524 . S
C2155 C2147 1.503 . S
C2155 C2154 1.370 . S
C2155 C2156 1.403 . S
C2156 C2155 1.403 . S
C2156 C2157 1.404 . S
C2156 C2159 1.539 . S
C2157 C2153 1.408 . S
C2157 C2156 1.404 . S
C2157 H2169 0.930 . S
C2158 C2154 1.524 . S
C2158 H2170 0.956 . S
C2158 H2171 0.961 . S
C2158 H2172 0.961 . S
C2159 C2156 1.539 . S
C2159 H2173 0.958 . S
C2159 H2174 0.961 . S
C2159 H2175 0.960 . S
H2160 C2144 0.931 . S
H2161 C2149 0.929 . S
H2162 C2150 0.960 . S
H2163 C2150 0.962 . S
H2164 C2150 0.960 . S
H2165 C2151 0.961 . S
H2166 C2151 0.961 . S
H2167 C2151 0.961 . S
H2168 C2152 0.931 . S
H2169 C2157 0.930 . S
H2170 C2158 0.956 . S
H2171 C2158 0.961 . S
H2172 C2158 0.961 . S
H2173 C2159 0.958 . S
H2174 C2159 0.961 . S
H2175 C2159 0.960 . S
C2176 C2177 1.391 . S
C2176 C2178 1.394 . S
C2176 H2192 0.931 . S
C2177 C2176 1.391 . S
C2177 C2181 1.376 . S
C2178 C2176 1.394 . S
C2178 C2179 1.369 . S
C2178 C2182 1.531 . S
C2179 C2178 1.369 . S
C2179 C2180 1.410 . S
C2179 C2187 1.503 . S
C2180 C2179 1.410 . S
C2180 C2181 1.392 . S
C2180 C2183 1.511 . S
C2181 C2177 1.376 . S
C2181 C2180 1.392 . S
C2181 H2193 0.929 . S
C2182 C2178 1.531 . S
C2182 H2194 0.960 . S
C2182 H2195 0.962 . S
C2182 H2196 0.960 . S
C2183 C2180 1.511 . S
C2183 H2197 0.961 . S
C2183 H2198 0.961 . S
C2183 H2199 0.961 . S
C2184 C2185 1.370 . S
C2184 C2186 1.363 . S
C2184 H2200 0.931 . S
C2185 C2184 1.370 . S
C2185 C2189 1.408 . S
C2186 C2184 1.363 . S
C2186 C2187 1.370 . S
C2186 C2190 1.524 . S
C2187 C2179 1.503 . S
C2187 C2186 1.370 . S
C2187 C2188 1.403 . S
C2188 C2187 1.403 . S
C2188 C2189 1.404 . S
C2188 C2191 1.539 . S
C2189 C2185 1.408 . S
C2189 C2188 1.404 . S
C2189 H2201 0.930 . S
C2190 C2186 1.524 . S
C2190 H2202 0.956 . S
C2190 H2203 0.961 . S
C2190 H2204 0.961 . S
C2191 C2188 1.539 . S
C2191 H2205 0.958 . S
C2191 H2206 0.961 . S
C2191 H2207 0.960 . S
H2192 C2176 0.931 . S
H2193 C2181 0.929 . S
H2194 C2182 0.960 . S
H2195 C2182 0.962 . S
H2196 C2182 0.960 . S
H2197 C2183 0.961 . S
H2198 C2183 0.961 . S
H2199 C2183 0.961 . S
H2200 C2184 0.931 . S
H2201 C2189 0.930 . S
H2202 C2190 0.956 . S
H2203 C2190 0.961 . S
H2204 C2190 0.961 . S
H2205 C2191 0.958 . S
H2206 C2191 0.961 . S
H2207 C2191 0.960 . S
C2208 C2209 1.391 . S
C2208 C2210 1.394 . S
C2208 H2224 0.931 . S
C2209 C2208 1.391 . S
C2209 C2213 1.376 . S
C2210 C2208 1.394 . S
C2210 C2211 1.369 . S
C2210 C2214 1.531 . S
C2211 C2210 1.369 . S
C2211 C2212 1.410 . S
C2211 C2219 1.503 . S
C2212 C2211 1.410 . S
C2212 C2213 1.392 . S
C2212 C2215 1.511 . S
C2213 C2209 1.376 . S
C2213 C2212 1.392 . S
C2213 H2225 0.929 . S
C2214 C2210 1.531 . S
C2214 H2226 0.960 . S
C2214 H2227 0.962 . S
C2214 H2228 0.960 . S
C2215 C2212 1.511 . S
C2215 H2229 0.961 . S
C2215 H2230 0.961 . S
C2215 H2231 0.961 . S
C2216 C2217 1.370 . S
C2216 C2218 1.363 . S
C2216 H2232 0.931 . S
C2217 C2216 1.370 . S
C2217 C2221 1.408 . S
C2218 C2216 1.363 . S
C2218 C2219 1.370 . S
C2218 C2222 1.524 . S
C2219 C2211 1.503 . S
C2219 C2218 1.370 . S
C2219 C2220 1.403 . S
C2220 C2219 1.403 . S
C2220 C2221 1.404 . S
C2220 C2223 1.539 . S
C2221 C2217 1.408 . S
C2221 C2220 1.404 . S
C2221 H2233 0.930 . S
C2222 C2218 1.524 . S
C2222 H2234 0.956 . S
C2222 H2235 0.961 . S
C2222 H2236 0.961 . S
C2223 C2220 1.539 . S
C2223 H2237 0.958 . S
C2223 H2238 0.961 . S
C2223 H2239 0.960 . S
H2224 C2208 0.931 . S
H2225 C2213 0.929 . S
H2226 C2214 0.960 . S
H2227 C2214 0.962 . S
H2228 C2214 0.960 . S
H2229 C2215 0.961 . S
H2230 C2215 0.961 . S
H2231 C2215 0.961 . S
H2232 C2216 0.931 . S
H2233 C2221 0.930 . S
H2234 C2222 0.956 . S
H2235 C2222 0.961 . S
H2236 C2222 0.961 . S
H2237 C2223 0.958 . S
H2238 C2223 0.961 . S
H2239 C2223 0.960 . S
C2240 C2241 1.391 1_556 S
C2240 C2242 1.394 . S
C2240 H2256 0.931 . S
C2241 C2240 1.391 1_554 S
C2241 C2245 1.376 . S
C2242 C2240 1.394 . S
C2242 C2243 1.369 1_556 S
C2242 C2246 1.531 . S
C2243 C2242 1.369 1_554 S
C2243 C2244 1.410 . S
C2243 C2251 1.503 . S
C2244 C2243 1.410 . S
C2244 C2245 1.392 . S
C2244 C2247 1.511 . S
C2245 C2241 1.376 . S
C2245 C2244 1.392 . S
C2245 H2257 0.929 . S
C2246 C2242 1.531 . S
C2246 H2258 0.960 . S
C2246 H2259 0.962 . S
C2246 H2260 0.960 . S
C2247 C2244 1.511 . S
C2247 H2261 0.961 . S
C2247 H2262 0.961 . S
C2247 H2263 0.961 . S
C2248 C2249 1.370 1_556 S
C2248 C2250 1.363 . S
C2248 H2264 0.931 . S
C2249 C2248 1.370 1_554 S
C2249 C2253 1.408 . S
C2250 C2248 1.363 . S
C2250 C2251 1.370 1_556 S
C2250 C2254 1.524 . S
C2251 C2243 1.503 . S
C2251 C2250 1.370 1_554 S
C2251 C2252 1.403 . S
C2252 C2251 1.403 . S
C2252 C2253 1.404 . S
C2252 C2255 1.539 . S
C2253 C2249 1.408 . S
C2253 C2252 1.404 . S
C2253 H2265 0.930 . S
C2254 C2250 1.524 . S
C2254 H2266 0.956 . S
C2254 H2267 0.961 . S
C2254 H2268 0.961 . S
C2255 C2252 1.539 . S
C2255 H2269 0.958 . S
C2255 H2270 0.961 . S
C2255 H2271 0.960 . S
H2256 C2240 0.931 . S
H2257 C2245 0.929 . S
H2258 C2246 0.960 . S
H2259 C2246 0.962 . S
H2260 C2246 0.960 . S
H2261 C2247 0.961 . S
H2262 C2247 0.961 . S
H2263 C2247 0.961 . S
H2264 C2248 0.931 . S
H2265 C2253 0.930 . S
H2266 C2254 0.956 . S
H2267 C2254 0.961 . S
H2268 C2254 0.961 . S
H2269 C2255 0.958 . S
H2270 C2255 0.961 . S
H2271 C2255 0.960 . S
C2272 C2273 1.391 . S
C2272 C2274 1.394 . S
C2272 H2288 0.931 . S
C2273 C2272 1.391 . S
C2273 C2277 1.376 1_545 S
C2274 C2272 1.394 . S
C2274 C2275 1.369 . S
C2274 C2278 1.531 . S
C2275 C2274 1.369 . S
C2275 C2276 1.410 1_545 S
C2275 C2283 1.503 . S
C2276 C2275 1.410 1_565 S
C2276 C2277 1.392 . S
C2276 C2279 1.511 . S
C2277 C2273 1.376 1_565 S
C2277 C2276 1.392 . S
C2277 H2289 0.929 . S
C2278 C2274 1.531 . S
C2278 H2290 0.960 . S
C2278 H2291 0.962 . S
C2278 H2292 0.960 . S
C2279 C2276 1.511 . S
C2279 H2293 0.961 . S
C2279 H2294 0.961 . S
C2279 H2295 0.961 . S
C2280 C2281 1.372 . S
C2280 C2282 1.368 . S
C2280 H2296 0.926 1_545 S
C2281 C2280 1.372 . S
C2281 C2285 1.408 . S
C2282 C2280 1.368 . S
C2282 C2283 1.370 . S
C2282 C2286 1.529 . S
C2283 C2275 1.503 . S
C2283 C2282 1.370 . S
C2283 C2284 1.403 . S
C2284 C2283 1.403 . S
C2284 C2285 1.404 . S
C2284 C2287 1.539 . S
C2285 C2281 1.408 . S
C2285 C2284 1.404 . S
C2285 H2297 0.930 . S
C2286 C2282 1.529 . S
C2286 H2298 1.005 . S
C2286 H2299 0.924 1_545 S
C2286 H2300 0.947 1_545 S
C2287 C2284 1.539 . S
C2287 H2301 0.958 . S
C2287 H2302 0.961 . S
C2287 H2303 0.960 . S
H2288 C2272 0.931 . S
H2289 C2277 0.929 . S
H2290 C2278 0.960 . S
H2291 C2278 0.962 . S
H2292 C2278 0.960 . S
H2293 C2279 0.961 . S
H2294 C2279 0.961 . S
H2295 C2279 0.961 . S
H2296 C2280 0.926 1_565 S
H2297 C2285 0.930 . S
H2298 C2286 1.005 . S
H2299 C2286 0.924 1_565 S
H2300 C2286 0.947 1_565 S
H2301 C2287 0.958 . S
H2302 C2287 0.961 . S
H2303 C2287 0.960 . S
C2304 C2305 1.391 . S
C2304 C2306 1.394 . S
C2304 H2320 0.931 . S
C2305 C2304 1.391 . S
C2305 C2309 1.376 . S
C2306 C2304 1.394 . S
C2306 C2307 1.369 . S
C2306 C2310 1.531 . S
C2307 C2306 1.369 . S
C2307 C2308 1.410 . S
C2307 C2315 1.503 . S
C2308 C2307 1.410 . S
C2308 C2309 1.392 . S
C2308 C2311 1.511 . S
C2309 C2305 1.376 . S
C2309 C2308 1.392 . S
C2309 H2321 0.929 . S
C2310 C2306 1.531 . S
C2310 H2322 0.960 . S
C2310 H2323 0.962 . S
C2310 H2324 0.960 . S
C2311 C2308 1.511 . S
C2311 H2325 0.961 . S
C2311 H2326 0.961 . S
C2311 H2327 0.961 . S
C2312 C2313 1.370 . S
C2312 C2314 1.363 . S
C2312 H2328 0.931 . S
C2313 C2312 1.370 . S
C2313 C2317 1.408 . S
C2314 C2312 1.363 . S
C2314 C2315 1.370 . S
C2314 C2318 1.524 . S
C2315 C2307 1.503 . S
C2315 C2314 1.370 . S
C2315 C2316 1.403 . S
C2316 C2315 1.403 . S
C2316 C2317 1.404 . S
C2316 C2319 1.539 . S
C2317 C2313 1.408 . S
C2317 C2316 1.404 . S
C2317 H2329 0.930 . S
C2318 C2314 1.524 . S
C2318 H2330 0.956 . S
C2318 H2331 0.961 . S
C2318 H2332 0.961 . S
C2319 C2316 1.539 . S
C2319 H2333 0.958 . S
C2319 H2334 0.961 . S
C2319 H2335 0.960 . S
H2320 C2304 0.931 . S
H2321 C2309 0.929 . S
H2322 C2310 0.960 . S
H2323 C2310 0.962 . S
H2324 C2310 0.960 . S
H2325 C2311 0.961 . S
H2326 C2311 0.961 . S
H2327 C2311 0.961 . S
H2328 C2312 0.931 . S
H2329 C2317 0.930 . S
H2330 C2318 0.956 . S
H2331 C2318 0.961 . S
H2332 C2318 0.961 . S
H2333 C2319 0.958 . S
H2334 C2319 0.961 . S
H2335 C2319 0.960 . S
C2336 C2337 1.391 . S
C2336 C2338 1.394 . S
C2336 H2352 0.931 1_565 S
C2337 C2336 1.391 . S
C2337 C2341 1.376 . S
C2338 C2336 1.394 . S
C2338 C2339 1.369 . S
C2338 C2342 1.531 1_565 S
C2339 C2338 1.369 . S
C2339 C2340 1.410 . S
C2339 C2347 1.503 . S
C2340 C2339 1.410 . S
C2340 C2341 1.392 . S
C2340 C2343 1.511 . S
C2341 C2337 1.376 . S
C2341 C2340 1.392 . S
C2341 H2353 0.929 . S
C2342 C2338 1.531 1_545 S
C2342 H2354 0.960 . S
C2342 H2355 0.962 . S
C2342 H2356 0.960 . S
C2343 C2340 1.511 . S
C2343 H2357 0.961 . S
C2343 H2358 0.961 . S
C2343 H2359 0.961 . S
C2344 C2345 1.370 1_545 S
C2344 C2346 1.363 1_545 S
C2344 H2360 0.931 . S
C2345 C2344 1.370 1_565 S
C2345 C2349 1.408 . S
C2346 C2344 1.363 1_565 S
C2346 C2347 1.370 . S
C2346 C2350 1.524 1_565 S
C2347 C2339 1.503 . S
C2347 C2346 1.370 . S
C2347 C2348 1.403 . S
C2348 C2347 1.403 . S
C2348 C2349 1.404 . S
C2348 C2351 1.539 . S
C2349 C2345 1.408 . S
C2349 C2348 1.404 . S
C2349 H2361 0.930 . S
C2350 C2346 1.524 1_545 S
C2350 H2362 0.956 . S
C2350 H2363 0.961 1_545 S
C2350 H2364 0.961 . S
C2351 C2348 1.539 . S
C2351 H2365 0.958 . S
C2351 H2366 0.961 . S
C2351 H2367 0.960 . S
H2352 C2336 0.931 1_545 S
H2353 C2341 0.929 . S
H2354 C2342 0.960 . S
H2355 C2342 0.962 . S
H2356 C2342 0.960 . S
H2357 C2343 0.961 . S
H2358 C2343 0.961 . S
H2359 C2343 0.961 . S
H2360 C2344 0.931 . S
H2361 C2349 0.930 . S
H2362 C2350 0.956 . S
H2363 C2350 0.961 1_565 S
H2364 C2350 0.961 . S
H2365 C2351 0.958 . S
H2366 C2351 0.961 . S
H2367 C2351 0.960 . S
C2368 C2369 1.391 . S
C2368 C2370 1.394 . S
C2368 H2384 0.931 . S
C2369 C2368 1.391 . S
C2369 C2373 1.376 . S
C2370 C2368 1.394 . S
C2370 C2371 1.369 . S
C2370 C2374 1.531 . S
C2371 C2370 1.369 . S
C2371 C2372 1.410 . S
C2371 C2379 1.503 . S
C2372 C2371 1.410 . S
C2372 C2373 1.392 . S
C2372 C2375 1.511 . S
C2373 C2369 1.376 . S
C2373 C2372 1.392 . S
C2373 H2385 0.929 . S
C2374 C2370 1.531 . S
C2374 H2386 0.960 . S
C2374 H2387 0.962 . S
C2374 H2388 0.960 . S
C2375 C2372 1.511 . S
C2375 H2389 0.961 . S
C2375 H2390 0.961 . S
C2375 H2391 0.961 . S
C2376 C2377 1.370 . S
C2376 C2378 1.363 . S
C2376 H2392 0.931 . S
C2377 C2376 1.370 . S
C2377 C2381 1.408 . S
C2378 C2376 1.363 . S
C2378 C2379 1.370 . S
C2378 C2382 1.524 . S
C2379 C2371 1.503 . S
C2379 C2378 1.370 . S
C2379 C2380 1.403 . S
C2380 C2379 1.403 . S
C2380 C2381 1.404 . S
C2380 C2383 1.539 . S
C2381 C2377 1.408 . S
C2381 C2380 1.404 . S
C2381 H2393 0.930 . S
C2382 C2378 1.524 . S
C2382 H2394 0.956 . S
C2382 H2395 0.961 . S
C2382 H2396 0.961 . S
C2383 C2380 1.539 . S
C2383 H2397 0.958 . S
C2383 H2398 0.961 . S
C2383 H2399 0.960 . S
H2384 C2368 0.931 . S
H2385 C2373 0.929 . S
H2386 C2374 0.960 . S
H2387 C2374 0.962 . S
H2388 C2374 0.960 . S
H2389 C2375 0.961 . S
H2390 C2375 0.961 . S
H2391 C2375 0.961 . S
H2392 C2376 0.931 . S
H2393 C2381 0.930 . S
H2394 C2382 0.956 . S
H2395 C2382 0.961 . S
H2396 C2382 0.961 . S
H2397 C2383 0.958 . S
H2398 C2383 0.961 . S
H2399 C2383 0.960 . S
C2400 C2401 1.391 . S
C2400 C2402 1.394 . S
C2400 H2416 0.931 . S
C2401 C2400 1.391 . S
C2401 C2405 1.376 . S
C2402 C2400 1.394 . S
C2402 C2403 1.369 . S
C2402 C2406 1.531 . S
C2403 C2402 1.369 . S
C2403 C2404 1.410 . S
C2403 C2411 1.503 . S
C2404 C2403 1.410 . S
C2404 C2405 1.392 . S
C2404 C2407 1.511 . S
C2405 C2401 1.376 . S
C2405 C2404 1.392 . S
C2405 H2417 0.929 . S
C2406 C2402 1.531 . S
C2406 H2418 0.960 . S
C2406 H2419 0.962 . S
C2406 H2420 0.960 . S
C2407 C2404 1.511 . S
C2407 H2421 0.961 . S
C2407 H2422 0.961 . S
C2407 H2423 0.961 . S
C2408 C2409 1.370 . S
C2408 C2410 1.363 . S
C2408 H2424 0.931 . S
C2409 C2408 1.370 . S
C2409 C2413 1.408 . S
C2410 C2408 1.363 . S
C2410 C2411 1.370 . S
C2410 C2414 1.524 . S
C2411 C2403 1.503 . S
C2411 C2410 1.370 . S
C2411 C2412 1.403 . S
C2412 C2411 1.403 . S
C2412 C2413 1.404 . S
C2412 C2415 1.539 . S
C2413 C2409 1.408 . S
C2413 C2412 1.404 . S
C2413 H2425 0.930 . S
C2414 C2410 1.524 . S
C2414 H2426 0.956 . S
C2414 H2427 0.961 . S
C2414 H2428 0.961 . S
C2415 C2412 1.539 . S
C2415 H2429 0.958 . S
C2415 H2430 0.961 . S
C2415 H2431 0.960 . S
H2416 C2400 0.931 . S
H2417 C2405 0.929 . S
H2418 C2406 0.960 . S
H2419 C2406 0.962 . S
H2420 C2406 0.960 . S
H2421 C2407 0.961 . S
H2422 C2407 0.961 . S
H2423 C2407 0.961 . S
H2424 C2408 0.931 . S
H2425 C2413 0.930 . S
H2426 C2414 0.956 . S
H2427 C2414 0.961 . S
H2428 C2414 0.961 . S
H2429 C2415 0.958 . S
H2430 C2415 0.961 . S
H2431 C2415 0.960 . S
C2432 C2433 1.391 . S
C2432 C2434 1.394 . S
C2432 H2448 0.931 . S
C2433 C2432 1.391 . S
C2433 C2437 1.376 . S
C2434 C2432 1.394 . S
C2434 C2435 1.369 . S
C2434 C2438 1.531 . S
C2435 C2434 1.369 . S
C2435 C2436 1.410 . S
C2435 C2443 1.503 . S
C2436 C2435 1.410 . S
C2436 C2437 1.392 . S
C2436 C2439 1.511 . S
C2437 C2433 1.376 . S
C2437 C2436 1.392 . S
C2437 H2449 0.929 . S
C2438 C2434 1.531 . S
C2438 H2450 0.960 . S
C2438 H2451 0.962 . S
C2438 H2452 0.960 . S
C2439 C2436 1.511 . S
C2439 H2453 0.961 . S
C2439 H2454 0.961 . S
C2439 H2455 0.961 . S
C2440 C2441 1.370 . S
C2440 C2442 1.363 . S
C2440 H2456 0.931 . S
C2441 C2440 1.370 . S
C2441 C2445 1.408 . S
C2442 C2440 1.363 . S
C2442 C2443 1.370 . S
C2442 C2446 1.524 . S
C2443 C2435 1.503 . S
C2443 C2442 1.370 . S
C2443 C2444 1.403 . S
C2444 C2443 1.403 . S
C2444 C2445 1.404 . S
C2444 C2447 1.539 . S
C2445 C2441 1.408 . S
C2445 C2444 1.404 . S
C2445 H2457 0.930 . S
C2446 C2442 1.524 . S
C2446 H2458 0.956 . S
C2446 H2459 0.961 . S
C2446 H2460 0.961 . S
C2447 C2444 1.539 . S
C2447 H2461 0.958 . S
C2447 H2462 0.961 . S
C2447 H2463 0.960 . S
H2448 C2432 0.931 . S
H2449 C2437 0.929 . S
H2450 C2438 0.960 . S
H2451 C2438 0.962 . S
H2452 C2438 0.960 . S
H2453 C2439 0.961 . S
H2454 C2439 0.961 . S
H2455 C2439 0.961 . S
H2456 C2440 0.931 . S
H2457 C2445 0.930 . S
H2458 C2446 0.956 . S
H2459 C2446 0.961 . S
H2460 C2446 0.961 . S
H2461 C2447 0.958 . S
H2462 C2447 0.961 . S
H2463 C2447 0.960 . S
C2464 C2465 1.391 . S
C2464 C2466 1.394 . S
C2464 H2480 0.931 . S
C2465 C2464 1.391 . S
C2465 C2469 1.376 . S
C2466 C2464 1.394 . S
C2466 C2467 1.369 . S
C2466 C2470 1.531 . S
C2467 C2466 1.369 . S
C2467 C2468 1.410 . S
C2467 C2475 1.503 . S
C2468 C2467 1.410 . S
C2468 C2469 1.392 . S
C2468 C2471 1.511 . S
C2469 C2465 1.376 . S
C2469 C2468 1.392 . S
C2469 H2481 0.929 . S
C2470 C2466 1.531 . S
C2470 H2482 0.960 . S
C2470 H2483 0.962 . S
C2470 H2484 0.960 . S
C2471 C2468 1.511 . S
C2471 H2485 0.961 . S
C2471 H2486 0.961 . S
C2471 H2487 0.961 . S
C2472 C2473 1.370 . S
C2472 C2474 1.363 . S
C2472 H2488 0.931 . S
C2473 C2472 1.370 . S
C2473 C2477 1.408 . S
C2474 C2472 1.363 . S
C2474 C2475 1.370 . S
C2474 C2478 1.524 . S
C2475 C2467 1.503 . S
C2475 C2474 1.370 . S
C2475 C2476 1.403 . S
C2476 C2475 1.403 . S
C2476 C2477 1.404 . S
C2476 C2479 1.539 . S
C2477 C2473 1.408 . S
C2477 C2476 1.404 . S
C2477 H2489 0.930 . S
C2478 C2474 1.524 . S
C2478 H2490 0.956 . S
C2478 H2491 0.961 . S
C2478 H2492 0.961 . S
C2479 C2476 1.539 . S
C2479 H2493 0.958 . S
C2479 H2494 0.961 . S
C2479 H2495 0.960 . S
H2480 C2464 0.931 . S
H2481 C2469 0.929 . S
H2482 C2470 0.960 . S
H2483 C2470 0.962 . S
H2484 C2470 0.960 . S
H2485 C2471 0.961 . S
H2486 C2471 0.961 . S
H2487 C2471 0.961 . S
H2488 C2472 0.931 . S
H2489 C2477 0.930 . S
H2490 C2478 0.956 . S
H2491 C2478 0.961 . S
H2492 C2478 0.961 . S
H2493 C2479 0.958 . S
H2494 C2479 0.961 . S
H2495 C2479 0.960 . S
C2496 C2497 1.391 . S
C2496 C2498 1.394 . S
C2496 H2512 0.931 . S
C2497 C2496 1.391 . S
C2497 C2501 1.376 . S
C2498 C2496 1.394 . S
C2498 C2499 1.369 . S
C2498 C2502 1.531 . S
C2499 C2498 1.369 . S
C2499 C2500 1.410 . S
C2499 C2507 1.503 . S
C2500 C2499 1.410 . S
C2500 C2501 1.392 . S
C2500 C2503 1.511 . S
C2501 C2497 1.376 . S
C2501 C2500 1.392 . S
C2501 H2513 0.929 . S
C2502 C2498 1.531 . S
C2502 H2514 0.960 . S
C2502 H2515 0.962 . S
C2502 H2516 0.960 . S
C2503 C2500 1.511 . S
C2503 H2517 0.961 . S
C2503 H2518 0.961 . S
C2503 H2519 0.961 . S
C2504 C2505 1.370 . S
C2504 C2506 1.363 . S
C2504 H2520 0.931 . S
C2505 C2504 1.370 . S
C2505 C2509 1.408 . S
C2506 C2504 1.363 . S
C2506 C2507 1.370 . S
C2506 C2510 1.524 . S
C2507 C2499 1.503 . S
C2507 C2506 1.370 . S
C2507 C2508 1.403 . S
C2508 C2507 1.403 . S
C2508 C2509 1.404 . S
C2508 C2511 1.539 . S
C2509 C2505 1.408 . S
C2509 C2508 1.404 . S
C2509 H2521 0.930 . S
C2510 C2506 1.524 . S
C2510 H2522 0.956 . S
C2510 H2523 0.961 . S
C2510 H2524 0.961 . S
C2511 C2508 1.539 . S
C2511 H2525 0.958 . S
C2511 H2526 0.961 . S
C2511 H2527 0.960 . S
H2512 C2496 0.931 . S
H2513 C2501 0.929 . S
H2514 C2502 0.960 . S
H2515 C2502 0.962 . S
H2516 C2502 0.960 . S
H2517 C2503 0.961 . S
H2518 C2503 0.961 . S
H2519 C2503 0.961 . S
H2520 C2504 0.931 . S
H2521 C2509 0.930 . S
H2522 C2510 0.956 . S
H2523 C2510 0.961 . S
H2524 C2510 0.961 . S
H2525 C2511 0.958 . S
H2526 C2511 0.961 . S
H2527 C2511 0.960 . S
C2528 C2529 1.391 . S
C2528 C2530 1.394 . S
C2528 H2544 0.931 . S
C2529 C2528 1.391 . S
C2529 C2533 1.376 . S
C2530 C2528 1.394 . S
C2530 C2531 1.369 . S
C2530 C2534 1.531 . S
C2531 C2530 1.369 . S
C2531 C2532 1.410 . S
C2531 C2539 1.503 . S
C2532 C2531 1.410 . S
C2532 C2533 1.392 . S
C2532 C2535 1.511 . S
C2533 C2529 1.376 . S
C2533 C2532 1.392 . S
C2533 H2545 0.929 . S
C2534 C2530 1.531 . S
C2534 H2546 0.960 . S
C2534 H2547 0.962 . S
C2534 H2548 0.960 . S
C2535 C2532 1.511 . S
C2535 H2549 0.961 . S
C2535 H2550 0.961 . S
C2535 H2551 0.961 . S
C2536 C2537 1.370 . S
C2536 C2538 1.363 . S
C2536 H2552 0.931 . S
C2537 C2536 1.370 . S
C2537 C2541 1.408 . S
C2538 C2536 1.363 . S
C2538 C2539 1.370 . S
C2538 C2542 1.524 . S
C2539 C2531 1.503 . S
C2539 C2538 1.370 . S
C2539 C2540 1.403 . S
C2540 C2539 1.403 . S
C2540 C2541 1.404 . S
C2540 C2543 1.539 . S
C2541 C2537 1.408 . S
C2541 C2540 1.404 . S
C2541 H2553 0.930 . S
C2542 C2538 1.524 . S
C2542 H2554 0.956 . S
C2542 H2555 0.961 . S
C2542 H2556 0.961 . S
C2543 C2540 1.539 . S
C2543 H2557 0.958 . S
C2543 H2558 0.961 . S
C2543 H2559 0.960 . S
H2544 C2528 0.931 . S
H2545 C2533 0.929 . S
H2546 C2534 0.960 . S
H2547 C2534 0.962 . S
H2548 C2534 0.960 . S
H2549 C2535 0.961 . S
H2550 C2535 0.961 . S
H2551 C2535 0.961 . S
H2552 C2536 0.931 . S
H2553 C2541 0.930 . S
H2554 C2542 0.956 . S
H2555 C2542 0.961 . S
H2556 C2542 0.961 . S
H2557 C2543 0.958 . S
H2558 C2543 0.961 . S
H2559 C2543 0.960 . S
C2560 C2561 1.391 . S
C2560 C2562 1.394 . S
C2560 H2576 0.931 . S
C2561 C2560 1.391 . S
C2561 C2565 1.376 . S
C2562 C2560 1.394 . S
C2562 C2563 1.369 . S
C2562 C2566 1.531 . S
C2563 C2562 1.369 . S
C2563 C2564 1.410 . S
C2563 C2571 1.503 . S
C2564 C2563 1.410 . S
C2564 C2565 1.392 . S
C2564 C2567 1.511 . S
C2565 C2561 1.376 . S
C2565 C2564 1.392 . S
C2565 H2577 0.929 . S
C2566 C2562 1.531 . S
C2566 H2578 0.960 . S
C2566 H2579 0.962 . S
C2566 H2580 0.960 . S
C2567 C2564 1.511 . S
C2567 H2581 0.961 . S
C2567 H2582 0.961 . S
C2567 H2583 0.961 . S
C2568 C2569 1.370 . S
C2568 C2570 1.363 . S
C2568 H2584 0.931 . S
C2569 C2568 1.370 . S
C2569 C2573 1.408 . S
C2570 C2568 1.363 . S
C2570 C2571 1.370 . S
C2570 C2574 1.524 . S
C2571 C2563 1.503 . S
C2571 C2570 1.370 . S
C2571 C2572 1.403 . S
C2572 C2571 1.403 . S
C2572 C2573 1.404 . S
C2572 C2575 1.539 . S
C2573 C2569 1.408 . S
C2573 C2572 1.404 . S
C2573 H2585 0.930 . S
C2574 C2570 1.524 . S
C2574 H2586 0.956 . S
C2574 H2587 0.961 . S
C2574 H2588 0.961 . S
C2575 C2572 1.539 . S
C2575 H2589 0.958 . S
C2575 H2590 0.961 . S
C2575 H2591 0.960 . S
H2576 C2560 0.931 . S
H2577 C2565 0.929 . S
H2578 C2566 0.960 . S
H2579 C2566 0.962 . S
H2580 C2566 0.960 . S
H2581 C2567 0.961 . S
H2582 C2567 0.961 . S
H2583 C2567 0.961 . S
H2584 C2568 0.931 . S
H2585 C2573 0.930 . S
H2586 C2574 0.956 . S
H2587 C2574 0.961 . S
H2588 C2574 0.961 . S
H2589 C2575 0.958 . S
H2590 C2575 0.961 . S
H2591 C2575 0.960 . S
C2592 C2593 1.391 . S
C2592 C2594 1.394 . S
C2592 H2608 0.931 . S
C2593 C2592 1.391 . S
C2593 C2597 1.376 . S
C2594 C2592 1.394 . S
C2594 C2595 1.369 . S
C2594 C2598 1.531 . S
C2595 C2594 1.369 . S
C2595 C2596 1.410 . S
C2595 C2603 1.503 . S
C2596 C2595 1.410 . S
C2596 C2597 1.392 . S
C2596 C2599 1.511 . S
C2597 C2593 1.376 . S
C2597 C2596 1.392 . S
C2597 H2609 0.929 . S
C2598 C2594 1.531 . S
C2598 H2610 0.960 . S
C2598 H2611 0.962 . S
C2598 H2612 0.960 . S
C2599 C2596 1.511 . S
C2599 H2613 0.961 . S
C2599 H2614 0.961 . S
C2599 H2615 0.961 . S
C2600 C2601 1.370 . S
C2600 C2602 1.363 . S
C2600 H2616 0.931 . S
C2601 C2600 1.370 . S
C2601 C2605 1.408 . S
C2602 C2600 1.363 . S
C2602 C2603 1.370 . S
C2602 C2606 1.524 . S
C2603 C2595 1.503 . S
C2603 C2602 1.370 . S
C2603 C2604 1.403 . S
C2604 C2603 1.403 . S
C2604 C2605 1.404 . S
C2604 C2607 1.539 . S
C2605 C2601 1.408 . S
C2605 C2604 1.404 . S
C2605 H2617 0.930 . S
C2606 C2602 1.524 . S
C2606 H2618 0.956 . S
C2606 H2619 0.961 . S
C2606 H2620 0.961 . S
C2607 C2604 1.539 . S
C2607 H2621 0.958 . S
C2607 H2622 0.961 . S
C2607 H2623 0.960 . S
H2608 C2592 0.931 . S
H2609 C2597 0.929 . S
H2610 C2598 0.960 . S
H2611 C2598 0.962 . S
H2612 C2598 0.960 . S
H2613 C2599 0.961 . S
H2614 C2599 0.961 . S
H2615 C2599 0.961 . S
H2616 C2600 0.931 . S
H2617 C2605 0.930 . S
H2618 C2606 0.956 . S
H2619 C2606 0.961 . S
H2620 C2606 0.961 . S
H2621 C2607 0.958 . S
H2622 C2607 0.961 . S
H2623 C2607 0.960 . S
C2624 C2625 1.391 . S
C2624 C2626 1.394 . S
C2624 H2640 0.931 . S
C2625 C2624 1.391 . S
C2625 C2629 1.376 1_455 S
C2626 C2624 1.394 . S
C2626 C2627 1.369 . S
C2626 C2630 1.531 . S
C2627 C2626 1.369 . S
C2627 C2628 1.410 1_455 S
C2627 C2635 1.503 . S
C2628 C2627 1.410 1_655 S
C2628 C2629 1.392 . S
C2628 C2631 1.511 . S
C2629 C2625 1.376 1_655 S
C2629 C2628 1.392 . S
C2629 H2641 0.929 . S
C2630 C2626 1.531 . S
C2630 H2642 0.960 . S
C2630 H2643 0.962 . S
C2630 H2644 0.960 . S
C2631 C2628 1.511 . S
C2631 H2645 0.961 . S
C2631 H2646 0.961 . S
C2631 H2647 0.961 . S
C2632 C2633 1.370 . S
C2632 C2634 1.363 . S
C2632 H2648 0.931 . S
C2633 C2632 1.370 . S
C2633 C2637 1.408 1_455 S
C2634 C2632 1.363 . S
C2634 C2635 1.370 . S
C2634 C2638 1.524 . S
C2635 C2627 1.503 . S
C2635 C2634 1.370 . S
C2635 C2636 1.403 1_455 S
C2636 C2635 1.403 1_655 S
C2636 C2637 1.404 . S
C2636 C2639 1.539 . S
C2637 C2633 1.408 1_655 S
C2637 C2636 1.404 . S
C2637 H2649 0.930 . S
C2638 C2634 1.524 . S
C2638 H2650 0.956 . S
C2638 H2651 0.961 . S
C2638 H2652 0.961 . S
C2639 C2636 1.539 . S
C2639 H2653 0.958 . S
C2639 H2654 0.961 . S
C2639 H2655 0.960 . S
H2640 C2624 0.931 . S
H2641 C2629 0.929 . S
H2642 C2630 0.960 . S
H2643 C2630 0.962 . S
H2644 C2630 0.960 . S
H2645 C2631 0.961 . S
H2646 C2631 0.961 . S
H2647 C2631 0.961 . S
H2648 C2632 0.931 . S
H2649 C2637 0.930 . S
H2650 C2638 0.956 . S
H2651 C2638 0.961 . S
H2652 C2638 0.961 . S
H2653 C2639 0.958 . S
H2654 C2639 0.961 . S
H2655 C2639 0.960 . S
C2656 C2657 1.391 . S
C2656 C2658 1.394 . S
C2656 H2672 0.931 . S
C2657 C2656 1.391 . S
C2657 C2661 1.376 . S
C2658 C2656 1.394 . S
C2658 C2659 1.369 . S
C2658 C2662 1.531 . S
C2659 C2658 1.369 . S
C2659 C2660 1.410 . S
C2659 C2667 1.503 . S
C2660 C2659 1.410 . S
C2660 C2661 1.392 . S
C2660 C2663 1.511 . S
C2661 C2657 1.376 . S
C2661 C2660 1.392 . S
C2661 H2673 0.929 . S
C2662 C2658 1.531 . S
C2662 H2674 0.960 . S
C2662 H2675 0.962 . S
C2662 H2676 0.960 . S
C2663 C2660 1.511 . S
C2663 H2677 0.961 . S
C2663 H2678 0.961 . S
C2663 H2679 0.961 . S
C2664 C2665 1.370 . S
C2664 C2666 1.363 . S
C2664 H2680 0.931 . S
C2665 C2664 1.370 . S
C2665 C2669 1.408 . S
C2666 C2664 1.363 . S
C2666 C2667 1.370 . S
C2666 C2670 1.524 . S
C2667 C2659 1.503 . S
C2667 C2666 1.370 . S
C2667 C2668 1.403 . S
C2668 C2667 1.403 . S
C2668 C2669 1.404 . S
C2668 C2671 1.539 . S
C2669 C2665 1.408 . S
C2669 C2668 1.404 . S
C2669 H2681 0.930 . S
C2670 C2666 1.524 . S
C2670 H2682 0.956 . S
C2670 H2683 0.961 . S
C2670 H2684 0.961 . S
C2671 C2668 1.539 . S
C2671 H2685 0.958 . S
C2671 H2686 0.961 . S
C2671 H2687 0.960 . S
H2672 C2656 0.931 . S
H2673 C2661 0.929 . S
H2674 C2662 0.960 . S
H2675 C2662 0.962 . S
H2676 C2662 0.960 . S
H2677 C2663 0.961 . S
H2678 C2663 0.961 . S
H2679 C2663 0.961 . S
H2680 C2664 0.931 . S
H2681 C2669 0.930 . S
H2682 C2670 0.956 . S
H2683 C2670 0.961 . S
H2684 C2670 0.961 . S
H2685 C2671 0.958 . S
H2686 C2671 0.961 . S
H2687 C2671 0.960 . S
C2688 C2689 1.391 . S
C2688 C2690 1.394 . S
C2688 H2704 0.931 . S
C2689 C2688 1.391 . S
C2689 C2693 1.376 . S
C2690 C2688 1.394 . S
C2690 C2691 1.369 . S
C2690 C2694 1.531 . S
C2691 C2690 1.369 . S
C2691 C2692 1.410 . S
C2691 C2699 1.503 . S
C2692 C2691 1.410 . S
C2692 C2693 1.392 . S
C2692 C2695 1.511 . S
C2693 C2689 1.376 . S
C2693 C2692 1.392 . S
C2693 H2705 0.929 . S
C2694 C2690 1.531 . S
C2694 H2706 0.960 . S
C2694 H2707 0.962 . S
C2694 H2708 0.960 . S
C2695 C2692 1.511 . S
C2695 H2709 0.961 . S
C2695 H2710 0.961 . S
C2695 H2711 0.961 . S
C2696 C2697 1.370 . S
C2696 C2698 1.363 . S
C2696 H2712 0.931 . S
C2697 C2696 1.370 . S
C2697 C2701 1.408 . S
C2698 C2696 1.363 . S
C2698 C2699 1.370 . S
C2698 C2702 1.524 . S
C2699 C2691 1.503 . S
C2699 C2698 1.370 . S
C2699 C2700 1.403 . S
C2700 C2699 1.403 . S
C2700 C2701 1.404 . S
C2700 C2703 1.539 . S
C2701 C2697 1.408 . S
C2701 C2700 1.404 . S
C2701 H2713 0.930 . S
C2702 C2698 1.524 . S
C2702 H2714 0.956 . S
C2702 H2715 0.961 . S
C2702 H2716 0.961 . S
C2703 C2700 1.539 . S
C2703 H2717 0.958 . S
C2703 H2718 0.961 . S
C2703 H2719 0.960 . S
H2704 C2688 0.931 . S
H2705 C2693 0.929 . S
H2706 C2694 0.960 . S
H2707 C2694 0.962 . S
H2708 C2694 0.960 . S
H2709 C2695 0.961 . S
H2710 C2695 0.961 . S
H2711 C2695 0.961 . S
H2712 C2696 0.931 . S
H2713 C2701 0.930 . S
H2714 C2702 0.956 . S
H2715 C2702 0.961 . S
H2716 C2702 0.961 . S
H2717 C2703 0.958 . S
H2718 C2703 0.961 . S
H2719 C2703 0.960 . S
C2720 C2721 1.391 . S
C2720 C2722 1.394 . S
C2720 H2736 0.931 . S
C2721 C2720 1.391 . S
C2721 C2725 1.376 1_556 S
C2722 C2720 1.394 . S
C2722 C2723 1.369 . S
C2722 C2726 1.531 . S
C2723 C2722 1.369 . S
C2723 C2724 1.410 1_556 S
C2723 C2731 1.503 . S
C2724 C2723 1.410 1_554 S
C2724 C2725 1.392 . S
C2724 C2727 1.511 . S
C2725 C2721 1.376 1_554 S
C2725 C2724 1.392 . S
C2725 H2737 0.929 . S
C2726 C2722 1.531 . S
C2726 H2738 0.960 . S
C2726 H2739 0.962 . S
C2726 H2740 0.960 . S
C2727 C2724 1.511 . S
C2727 H2741 0.961 . S
C2727 H2742 0.961 . S
C2727 H2743 0.961 . S
C2728 C2729 1.370 . S
C2728 C2730 1.363 . S
C2728 H2744 0.931 . S
C2729 C2728 1.370 . S
C2729 C2733 1.408 . S
C2730 C2728 1.363 . S
C2730 C2731 1.370 . S
C2730 C2734 1.536 . S
C2731 C2723 1.503 . S
C2731 C2730 1.370 . S
C2731 C2732 1.403 . S
C2732 C2731 1.403 . S
C2732 C2733 1.404 . S
C2732 C2735 1.539 . S
C2733 C2729 1.408 . S
C2733 C2732 1.404 . S
C2733 H2745 0.930 . S
C2734 C2730 1.536 . S
C2734 H2746 0.976 . S
C2734 H2747 0.938 1_556 S
C2734 H2748 0.952 1_556 S
C2735 C2732 1.539 . S
C2735 H2749 0.958 . S
C2735 H2750 0.961 . S
C2735 H2751 0.960 . S
H2736 C2720 0.931 . S
H2737 C2725 0.929 . S
H2738 C2726 0.960 . S
H2739 C2726 0.962 . S
H2740 C2726 0.960 . S
H2741 C2727 0.961 . S
H2742 C2727 0.961 . S
H2743 C2727 0.961 . S
H2744 C2728 0.931 . S
H2745 C2733 0.930 . S
H2746 C2734 0.976 . S
H2747 C2734 0.938 1_554 S
H2748 C2734 0.952 1_554 S
H2749 C2735 0.958 . S
H2750 C2735 0.961 . S
H2751 C2735 0.960 . S
C2752 C2753 1.391 . S
C2752 C2754 1.394 . S
C2752 H2768 0.931 . S
C2753 C2752 1.391 . S
C2753 C2757 1.376 . S
C2754 C2752 1.394 . S
C2754 C2755 1.369 . S
C2754 C2758 1.531 . S
C2755 C2754 1.369 . S
C2755 C2756 1.410 . S
C2755 C2763 1.503 . S
C2756 C2755 1.410 . S
C2756 C2757 1.392 . S
C2756 C2759 1.511 . S
C2757 C2753 1.376 . S
C2757 C2756 1.392 . S
C2757 H2769 0.929 . S
C2758 C2754 1.531 . S
C2758 H2770 0.960 . S
C2758 H2771 0.962 . S
C2758 H2772 0.960 . S
C2759 C2756 1.511 . S
C2759 H2773 0.961 . S
C2759 H2774 0.961 . S
C2759 H2775 0.961 . S
C2760 C2761 1.370 . S
C2760 C2762 1.363 . S
C2760 H2776 0.931 . S
C2761 C2760 1.370 . S
C2761 C2765 1.408 . S
C2762 C2760 1.363 . S
C2762 C2763 1.370 . S
C2762 C2766 1.524 . S
C2763 C2755 1.503 . S
C2763 C2762 1.370 . S
C2763 C2764 1.403 . S
C2764 C2763 1.403 . S
C2764 C2765 1.404 . S
C2764 C2767 1.539 . S
C2765 C2761 1.408 . S
C2765 C2764 1.404 . S
C2765 H2777 0.930 . S
C2766 C2762 1.524 . S
C2766 H2778 0.956 . S
C2766 H2779 0.961 . S
C2766 H2780 0.961 . S
C2767 C2764 1.539 . S
C2767 H2781 0.958 . S
C2767 H2782 0.961 . S
C2767 H2783 0.960 . S
H2768 C2752 0.931 . S
H2769 C2757 0.929 . S
H2770 C2758 0.960 . S
H2771 C2758 0.962 . S
H2772 C2758 0.960 . S
H2773 C2759 0.961 . S
H2774 C2759 0.961 . S
H2775 C2759 0.961 . S
H2776 C2760 0.931 . S
H2777 C2765 0.930 . S
H2778 C2766 0.956 . S
H2779 C2766 0.961 . S
H2780 C2766 0.961 . S
H2781 C2767 0.958 . S
H2782 C2767 0.961 . S
H2783 C2767 0.960 . S
C2784 C2785 1.391 . S
C2784 C2786 1.394 . S
C2784 H2800 0.931 1_455 S
C2785 C2784 1.391 . S
C2785 C2789 1.376 . S
C2786 C2784 1.394 . S
C2786 C2787 1.369 . S
C2786 C2790 1.531 . S
C2787 C2786 1.369 . S
C2787 C2788 1.410 . S
C2787 C2795 1.503 . S
C2788 C2787 1.410 . S
C2788 C2789 1.392 . S
C2788 C2791 1.511 . S
C2789 C2785 1.376 . S
C2789 C2788 1.392 . S
C2789 H2801 0.929 . S
C2790 C2786 1.531 . S
C2790 H2802 0.960 . S
C2790 H2803 0.962 1_455 S
C2790 H2804 0.960 1_455 S
C2791 C2788 1.511 . S
C2791 H2805 0.961 . S
C2791 H2806 0.961 . S
C2791 H2807 0.961 . S
C2792 C2793 1.370 . S
C2792 C2794 1.363 . S
C2792 H2808 0.931 . S
C2793 C2792 1.370 . S
C2793 C2797 1.408 . S
C2794 C2792 1.363 . S
C2794 C2795 1.370 . S
C2794 C2798 1.524 . S
C2795 C2787 1.503 . S
C2795 C2794 1.370 . S
C2795 C2796 1.403 . S
C2796 C2795 1.403 . S
C2796 C2797 1.404 . S
C2796 C2799 1.539 . S
C2797 C2793 1.408 . S
C2797 C2796 1.404 . S
C2797 H2809 0.930 . S
C2798 C2794 1.524 . S
C2798 H2810 0.956 . S
C2798 H2811 0.961 . S
C2798 H2812 0.961 . S
C2799 C2796 1.539 . S
C2799 H2813 0.958 . S
C2799 H2814 0.961 . S
C2799 H2815 0.960 . S
H2800 C2784 0.931 1_655 S
H2801 C2789 0.929 . S
H2802 C2790 0.960 . S
H2803 C2790 0.962 1_655 S
H2804 C2790 0.960 1_655 S
H2805 C2791 0.961 . S
H2806 C2791 0.961 . S
H2807 C2791 0.961 . S
H2808 C2792 0.931 . S
H2809 C2797 0.930 . S
H2810 C2798 0.956 . S
H2811 C2798 0.961 . S
H2812 C2798 0.961 . S
H2813 C2799 0.958 . S
H2814 C2799 0.961 . S
H2815 C2799 0.960 . S
C2816 C2817 1.391 . S
C2816 C2818 1.394 . S
C2816 H2832 0.931 . S
C2817 C2816 1.391 . S
C2817 C2821 1.376 . S
C2818 C2816 1.394 . S
C2818 C2819 1.369 . S
C2818 C2822 1.531 . S
C2819 C2818 1.369 . S
C2819 C2820 1.410 . S
C2819 C2827 1.503 . S
C2820 C2819 1.410 . S
C2820 C2821 1.392 . S
C2820 C2823 1.511 . S
C2821 C2817 1.376 . S
C2821 C2820 1.392 . S
C2821 H2833 0.929 . S
C2822 C2818 1.531 . S
C2822 H2834 0.960 . S
C2822 H2835 0.962 . S
C2822 H2836 0.960 . S
C2823 C2820 1.511 . S
C2823 H2837 0.961 . S
C2823 H2838 0.961 . S
C2823 H2839 0.961 . S
C2824 C2825 1.370 . S
C2824 C2826 1.363 . S
C2824 H2840 0.931 . S
C2825 C2824 1.370 . S
C2825 C2829 1.408 . S
C2826 C2824 1.363 . S
C2826 C2827 1.370 . S
C2826 C2830 1.524 . S
C2827 C2819 1.503 . S
C2827 C2826 1.370 . S
C2827 C2828 1.403 . S
C2828 C2827 1.403 . S
C2828 C2829 1.404 . S
C2828 C2831 1.539 . S
C2829 C2825 1.408 . S
C2829 C2828 1.404 . S
C2829 H2841 0.930 . S
C2830 C2826 1.524 . S
C2830 H2842 0.956 . S
C2830 H2843 0.961 . S
C2830 H2844 0.961 . S
C2831 C2828 1.539 . S
C2831 H2845 0.958 . S
C2831 H2846 0.961 . S
C2831 H2847 0.960 . S
H2832 C2816 0.931 . S
H2833 C2821 0.929 . S
H2834 C2822 0.960 . S
H2835 C2822 0.962 . S
H2836 C2822 0.960 . S
H2837 C2823 0.961 . S
H2838 C2823 0.961 . S
H2839 C2823 0.961 . S
H2840 C2824 0.931 . S
H2841 C2829 0.930 . S
H2842 C2830 0.956 . S
H2843 C2830 0.961 . S
H2844 C2830 0.961 . S
H2845 C2831 0.958 . S
H2846 C2831 0.961 . S
H2847 C2831 0.960 . S
C2848 C2849 1.391 . S
C2848 C2850 1.394 . S
C2848 H2864 0.931 . S
C2849 C2848 1.391 . S
C2849 C2853 1.376 . S
C2850 C2848 1.394 . S
C2850 C2851 1.369 . S
C2850 C2854 1.531 . S
C2851 C2850 1.369 . S
C2851 C2852 1.410 . S
C2851 C2859 1.503 . S
C2852 C2851 1.410 . S
C2852 C2853 1.392 . S
C2852 C2855 1.511 . S
C2853 C2849 1.376 . S
C2853 C2852 1.392 . S
C2853 H2865 0.929 . S
C2854 C2850 1.531 . S
C2854 H2866 0.960 . S
C2854 H2867 0.962 . S
C2854 H2868 0.960 . S
C2855 C2852 1.511 . S
C2855 H2869 0.961 . S
C2855 H2870 0.961 . S
C2855 H2871 0.961 . S
C2856 C2857 1.370 . S
C2856 C2858 1.363 . S
C2856 H2872 0.931 . S
C2857 C2856 1.370 . S
C2857 C2861 1.408 . S
C2858 C2856 1.363 . S
C2858 C2859 1.370 . S
C2858 C2862 1.524 . S
C2859 C2851 1.503 . S
C2859 C2858 1.370 . S
C2859 C2860 1.403 . S
C2860 C2859 1.403 . S
C2860 C2861 1.404 . S
C2860 C2863 1.539 . S
C2861 C2857 1.408 . S
C2861 C2860 1.404 . S
C2861 H2873 0.930 . S
C2862 C2858 1.524 . S
C2862 H2874 0.956 . S
C2862 H2875 0.961 . S
C2862 H2876 0.961 . S
C2863 C2860 1.539 . S
C2863 H2877 0.958 . S
C2863 H2878 0.961 . S
C2863 H2879 0.960 . S
H2864 C2848 0.931 . S
H2865 C2853 0.929 . S
H2866 C2854 0.960 . S
H2867 C2854 0.962 . S
H2868 C2854 0.960 . S
H2869 C2855 0.961 . S
H2870 C2855 0.961 . S
H2871 C2855 0.961 . S
H2872 C2856 0.931 . S
H2873 C2861 0.930 . S
H2874 C2862 0.956 . S
H2875 C2862 0.961 . S
H2876 C2862 0.961 . S
H2877 C2863 0.958 . S
H2878 C2863 0.961 . S
H2879 C2863 0.960 . S
C2880 C2881 1.391 . S
C2880 C2882 1.394 . S
C2880 H2896 0.931 . S
C2881 C2880 1.391 . S
C2881 C2885 1.376 . S
C2882 C2880 1.394 . S
C2882 C2883 1.369 . S
C2882 C2886 1.531 . S
C2883 C2882 1.369 . S
C2883 C2884 1.410 . S
C2883 C2891 1.503 . S
C2884 C2883 1.410 . S
C2884 C2885 1.392 . S
C2884 C2887 1.511 . S
C2885 C2881 1.376 . S
C2885 C2884 1.392 . S
C2885 H2897 0.929 . S
C2886 C2882 1.531 . S
C2886 H2898 0.960 . S
C2886 H2899 0.962 . S
C2886 H2900 0.960 . S
C2887 C2884 1.511 . S
C2887 H2901 0.961 . S
C2887 H2902 0.961 . S
C2887 H2903 0.961 . S
C2888 C2889 1.370 . S
C2888 C2890 1.363 . S
C2888 H2904 0.931 . S
C2889 C2888 1.370 . S
C2889 C2893 1.408 . S
C2890 C2888 1.363 . S
C2890 C2891 1.370 . S
C2890 C2894 1.524 . S
C2891 C2883 1.503 . S
C2891 C2890 1.370 . S
C2891 C2892 1.403 . S
C2892 C2891 1.403 . S
C2892 C2893 1.404 . S
C2892 C2895 1.539 . S
C2893 C2889 1.408 . S
C2893 C2892 1.404 . S
C2893 H2905 0.930 . S
C2894 C2890 1.524 . S
C2894 H2906 0.956 . S
C2894 H2907 0.961 . S
C2894 H2908 0.961 . S
C2895 C2892 1.539 . S
C2895 H2909 0.958 1_554 S
C2895 H2910 0.959 1_554 S
C2895 H2911 0.960 . S
H2896 C2880 0.931 . S
H2897 C2885 0.929 . S
H2898 C2886 0.960 . S
H2899 C2886 0.962 . S
H2900 C2886 0.960 . S
H2901 C2887 0.961 . S
H2902 C2887 0.961 . S
H2903 C2887 0.961 . S
H2904 C2888 0.931 . S
H2905 C2893 0.930 . S
H2906 C2894 0.956 . S
H2907 C2894 0.961 . S
H2908 C2894 0.961 . S
H2909 C2895 0.958 1_556 S
H2910 C2895 0.959 1_556 S
H2911 C2895 0.960 . S
C2912 C2913 1.391 . S
C2912 C2914 1.394 . S
C2912 H2928 0.931 . S
C2913 C2912 1.391 . S
C2913 C2917 1.376 . S
C2914 C2912 1.394 . S
C2914 C2915 1.369 . S
C2914 C2918 1.531 . S
C2915 C2914 1.369 . S
C2915 C2916 1.410 . S
C2915 C2923 1.503 . S
C2916 C2915 1.410 . S
C2916 C2917 1.392 . S
C2916 C2919 1.511 . S
C2917 C2913 1.376 . S
C2917 C2916 1.392 . S
C2917 H2929 0.929 . S
C2918 C2914 1.531 . S
C2918 H2930 0.960 . S
C2918 H2931 0.962 . S
C2918 H2932 0.960 . S
C2919 C2916 1.511 . S
C2919 H2933 0.961 . S
C2919 H2934 0.961 . S
C2919 H2935 0.961 . S
C2920 C2921 1.370 . S
C2920 C2922 1.363 . S
C2920 H2936 0.931 . S
C2921 C2920 1.370 . S
C2921 C2925 1.408 . S
C2922 C2920 1.363 . S
C2922 C2923 1.370 . S
C2922 C2926 1.524 . S
C2923 C2915 1.503 . S
C2923 C2922 1.370 . S
C2923 C2924 1.403 . S
C2924 C2923 1.403 . S
C2924 C2925 1.404 . S
C2924 C2927 1.539 . S
C2925 C2921 1.408 . S
C2925 C2924 1.404 . S
C2925 H2937 0.930 . S
C2926 C2922 1.524 . S
C2926 H2938 0.956 1_545 S
C2926 H2939 0.961 . S
C2926 H2940 0.961 1_545 S
C2927 C2924 1.539 . S
C2927 H2941 0.958 . S
C2927 H2942 0.961 . S
C2927 H2943 0.960 . S
H2928 C2912 0.931 . S
H2929 C2917 0.929 . S
H2930 C2918 0.960 . S
H2931 C2918 0.962 . S
H2932 C2918 0.960 . S
H2933 C2919 0.961 . S
H2934 C2919 0.961 . S
H2935 C2919 0.961 . S
H2936 C2920 0.931 . S
H2937 C2925 0.930 . S
H2938 C2926 0.956 1_565 S
H2939 C2926 0.961 . S
H2940 C2926 0.961 1_565 S
H2941 C2927 0.958 . S
H2942 C2927 0.961 . S
H2943 C2927 0.960 . S
C2944 C2945 1.391 . S
C2944 C2946 1.394 . S
C2944 H2960 0.931 . S
C2945 C2944 1.391 . S
C2945 C2949 1.376 . S
C2946 C2944 1.394 . S
C2946 C2947 1.369 . S
C2946 C2950 1.531 . S
C2947 C2946 1.369 . S
C2947 C2948 1.410 . S
C2947 C2955 1.503 . S
C2948 C2947 1.410 . S
C2948 C2949 1.392 . S
C2948 C2951 1.511 . S
C2949 C2945 1.376 . S
C2949 C2948 1.392 . S
C2949 H2961 0.929 . S
C2950 C2946 1.531 . S
C2950 H2962 0.960 . S
C2950 H2963 0.962 . S
C2950 H2964 0.960 . S
C2951 C2948 1.511 . S
C2951 H2965 0.961 . S
C2951 H2966 0.961 . S
C2951 H2967 0.961 . S
C2952 C2953 1.370 . S
C2952 C2954 1.363 . S
C2952 H2968 0.931 . S
C2953 C2952 1.370 . S
C2953 C2957 1.408 . S
C2954 C2952 1.363 . S
C2954 C2955 1.370 . S
C2954 C2958 1.524 . S
C2955 C2947 1.503 . S
C2955 C2954 1.370 . S
C2955 C2956 1.403 . S
C2956 C2955 1.403 . S
C2956 C2957 1.404 . S
C2956 C2959 1.539 . S
C2957 C2953 1.408 . S
C2957 C2956 1.404 . S
C2957 H2969 0.930 . S
C2958 C2954 1.524 . S
C2958 H2970 0.956 . S
C2958 H2971 0.961 . S
C2958 H2972 0.961 . S
C2959 C2956 1.539 . S
C2959 H2973 0.958 . S
C2959 H2974 0.961 . S
C2959 H2975 0.960 . S
H2960 C2944 0.931 . S
H2961 C2949 0.929 . S
H2962 C2950 0.960 . S
H2963 C2950 0.962 . S
H2964 C2950 0.960 . S
H2965 C2951 0.961 . S
H2966 C2951 0.961 . S
H2967 C2951 0.961 . S
H2968 C2952 0.931 . S
H2969 C2957 0.930 . S
H2970 C2958 0.956 . S
H2971 C2958 0.961 . S
H2972 C2958 0.961 . S
H2973 C2959 0.958 . S
H2974 C2959 0.961 . S
H2975 C2959 0.960 . S
C2976 C2977 1.391 . S
C2976 C2978 1.394 . S
C2976 H2992 0.931 . S
C2977 C2976 1.391 . S
C2977 C2981 1.376 . S
C2978 C2976 1.394 . S
C2978 C2979 1.369 . S
C2978 C2982 1.531 . S
C2979 C2978 1.369 . S
C2979 C2980 1.410 . S
C2979 C2987 1.503 . S
C2980 C2979 1.410 . S
C2980 C2981 1.392 . S
C2980 C2983 1.511 . S
C2981 C2977 1.376 . S
C2981 C2980 1.392 . S
C2981 H2993 0.929 . S
C2982 C2978 1.531 . S
C2982 H2994 0.960 . S
C2982 H2995 0.962 . S
C2982 H2996 0.960 . S
C2983 C2980 1.511 . S
C2983 H2997 0.961 . S
C2983 H2998 0.961 . S
C2983 H2999 0.961 . S
C2984 C2985 1.370 . S
C2984 C2986 1.363 . S
C2984 H3000 0.931 . S
C2985 C2984 1.370 . S
C2985 C2989 1.408 . S
C2986 C2984 1.363 . S
C2986 C2987 1.370 . S
C2986 C2990 1.512 1_565 S
C2987 C2979 1.503 . S
C2987 C2986 1.370 . S
C2987 C2988 1.403 . S
C2988 C2987 1.403 . S
C2988 C2989 1.404 . S
C2988 C2991 1.539 . S
C2989 C2985 1.408 . S
C2989 C2988 1.404 . S
C2989 H3001 0.930 . S
C2990 C2986 1.512 1_545 S
C2990 H3002 0.961 . S
C2990 H3003 0.960 . S
C2990 H3004 0.968 . S
C2991 C2988 1.539 . S
C2991 H3005 0.958 . S
C2991 H3006 0.961 . S
C2991 H3007 0.960 . S
H2992 C2976 0.931 . S
H2993 C2981 0.929 . S
H2994 C2982 0.960 . S
H2995 C2982 0.962 . S
H2996 C2982 0.960 . S
H2997 C2983 0.961 . S
H2998 C2983 0.961 . S
H2999 C2983 0.961 . S
H3000 C2984 0.931 . S
H3001 C2989 0.930 . S
H3002 C2990 0.961 . S
H3003 C2990 0.960 . S
H3004 C2990 0.968 . S
H3005 C2991 0.958 . S
H3006 C2991 0.961 . S
H3007 C2991 0.960 . S
C3008 C3009 1.391 . S
C3008 C3010 1.394 . S
C3008 H3024 0.931 . S
C3009 C3008 1.391 . S
C3009 C3013 1.376 . S
C3010 C3008 1.394 . S
C3010 C3011 1.369 . S
C3010 C3014 1.531 . S
C3011 C3010 1.369 . S
C3011 C3012 1.410 . S
C3011 C3019 1.503 . S
C3012 C3011 1.410 . S
C3012 C3013 1.392 . S
C3012 C3015 1.511 . S
C3013 C3009 1.376 . S
C3013 C3012 1.392 . S
C3013 H3025 0.929 . S
C3014 C3010 1.531 . S
C3014 H3026 0.960 . S
C3014 H3027 0.962 . S
C3014 H3028 0.960 1_565 S
C3015 C3012 1.511 . S
C3015 H3029 0.961 . S
C3015 H3030 0.961 . S
C3015 H3031 0.961 . S
C3016 C3017 1.370 . S
C3016 C3018 1.363 . S
C3016 H3032 0.931 . S
C3017 C3016 1.370 . S
C3017 C3021 1.408 . S
C3018 C3016 1.363 . S
C3018 C3019 1.370 . S
C3018 C3022 1.524 . S
C3019 C3011 1.503 . S
C3019 C3018 1.370 . S
C3019 C3020 1.403 . S
C3020 C3019 1.403 . S
C3020 C3021 1.404 . S
C3020 C3023 1.539 . S
C3021 C3017 1.408 . S
C3021 C3020 1.404 . S
C3021 H3033 0.930 . S
C3022 C3018 1.524 . S
C3022 H3034 0.956 . S
C3022 H3035 0.961 . S
C3022 H3036 0.961 . S
C3023 C3020 1.539 . S
C3023 H3037 0.958 . S
C3023 H3038 0.961 . S
C3023 H3039 0.960 . S
H3024 C3008 0.931 . S
H3025 C3013 0.929 . S
H3026 C3014 0.960 . S
H3027 C3014 0.962 . S
H3028 C3014 0.960 1_545 S
H3029 C3015 0.961 . S
H3030 C3015 0.961 . S
H3031 C3015 0.961 . S
H3032 C3016 0.931 . S
H3033 C3021 0.930 . S
H3034 C3022 0.956 . S
H3035 C3022 0.961 . S
H3036 C3022 0.961 . S
H3037 C3023 0.958 . S
H3038 C3023 0.961 . S
H3039 C3023 0.960 . S
C3040 C3041 1.391 . S
C3040 C3042 1.394 . S
C3040 H3056 0.931 . S
C3041 C3040 1.391 . S
C3041 C3045 1.376 . S
C3042 C3040 1.394 . S
C3042 C3043 1.369 . S
C3042 C3046 1.531 . S
C3043 C3042 1.369 . S
C3043 C3044 1.410 . S
C3043 C3051 1.503 . S
C3044 C3043 1.410 . S
C3044 C3045 1.392 . S
C3044 C3047 1.511 . S
C3045 C3041 1.376 . S
C3045 C3044 1.392 . S
C3045 H3057 0.929 . S
C3046 C3042 1.531 . S
C3046 H3058 0.960 . S
C3046 H3059 0.962 . S
C3046 H3060 0.960 . S
C3047 C3044 1.511 . S
C3047 H3061 0.961 . S
C3047 H3062 0.961 . S
C3047 H3063 0.971 . S
C3048 C3049 1.370 . S
C3048 C3050 1.363 . S
C3048 H3064 0.931 . S
C3049 C3048 1.370 . S
C3049 C3053 1.408 . S
C3050 C3048 1.363 . S
C3050 C3051 1.370 . S
C3050 C3054 1.524 . S
C3051 C3043 1.503 . S
C3051 C3050 1.370 . S
C3051 C3052 1.403 . S
C3052 C3051 1.403 . S
C3052 C3053 1.404 . S
C3052 C3055 1.539 1_554 S
C3053 C3049 1.408 . S
C3053 C3052 1.404 . S
C3053 H3065 0.930 . S
C3054 C3050 1.524 . S
C3054 H3066 0.956 . S
C3054 H3067 0.961 . S
C3054 H3068 0.961 . S
C3055 C3052 1.539 1_556 S
C3055 H3069 0.958 . S
C3055 H3070 0.961 . S
C3055 H3071 0.960 . S
H3056 C3040 0.931 . S
H3057 C3045 0.929 . S
H3058 C3046 0.960 . S
H3059 C3046 0.962 . S
H3060 C3046 0.960 . S
H3061 C3047 0.961 . S
H3062 C3047 0.961 . S
H3063 C3047 0.971 . S
H3064 C3048 0.931 . S
H3065 C3053 0.930 . S
H3066 C3054 0.956 . S
H3067 C3054 0.961 . S
H3068 C3054 0.961 . S
H3069 C3055 0.958 . S
H3070 C3055 0.961 . S
H3071 C3055 0.960 . S
C3072 C3073 1.356 1_554 S
C3072 C3074 1.379 1_554 S
C3072 H3088 0.981 . S
C3073 C3072 1.356 1_556 S
C3073 C3077 1.376 . S
C3074 C3072 1.379 1_556 S
C3074 C3075 1.369 . S
C3074 C3078 1.531 1_556 S
C3075 C3074 1.369 . S
C3075 C3076 1.410 . S
C3075 C3083 1.503 . S
C3076 C3075 1.410 . S
C3076 C3077 1.392 . S
C3076 C3079 1.511 . S
C3077 C3073 1.376 . S
C3077 C3076 1.392 . S
C3077 H3089 0.929 . S
C3078 C3074 1.531 1_554 S
C3078 H3090 0.960 . S
C3078 H3091 0.962 . S
C3078 H3092 0.960 . S
C3079 C3076 1.511 . S
C3079 H3093 0.961 . S
C3079 H3094 0.961 . S
C3079 H3095 0.961 . S
C3080 C3081 1.370 . S
C3080 C3082 1.363 . S
C3080 H3096 0.931 . S
C3081 C3080 1.370 . S
C3081 C3085 1.408 . S
C3082 C3080 1.363 . S
C3082 C3083 1.370 . S
C3082 C3086 1.524 . S
C3083 C3075 1.503 . S
C3083 C3082 1.370 . S
C3083 C3084 1.403 . S
C3084 C3083 1.403 . S
C3084 C3085 1.404 . S
C3084 C3087 1.539 . S
C3085 C3081 1.408 . S
C3085 C3084 1.404 . S
C3085 H3097 0.930 . S
C3086 C3082 1.524 . S
C3086 H3098 0.956 . S
C3086 H3099 0.961 . S
C3086 H3100 0.961 . S
C3087 C3084 1.539 . S
C3087 H3101 0.958 . S
C3087 H3102 0.961 . S
C3087 H3103 0.960 . S
H3088 C3072 0.981 . S
H3089 C3077 0.929 . S
H3090 C3078 0.960 . S
H3091 C3078 0.962 . S
H3092 C3078 0.960 . S
H3093 C3079 0.961 . S
H3094 C3079 0.961 . S
H3095 C3079 0.961 . S
H3096 C3080 0.931 . S
H3097 C3085 0.930 . S
H3098 C3086 0.956 . S
H3099 C3086 0.961 . S
H3100 C3086 0.961 . S
H3101 C3087 0.958 . S
H3102 C3087 0.961 . S
H3103 C3087 0.960 . S
C3104 C3105 1.391 . S
C3104 C3106 1.394 . S
C3104 H3120 0.931 . S
C3105 C3104 1.391 . S
C3105 C3109 1.376 . S
C3106 C3104 1.394 . S
C3106 C3107 1.369 . S
C3106 C3110 1.531 . S
C3107 C3106 1.369 . S
C3107 C3108 1.410 . S
C3107 C3115 1.503 . S
C3108 C3107 1.410 . S
C3108 C3109 1.392 . S
C3108 C3111 1.511 . S
C3109 C3105 1.376 . S
C3109 C3108 1.392 . S
C3109 H3121 0.929 . S
C3110 C3106 1.531 . S
C3110 H3122 0.960 . S
C3110 H3123 0.962 . S
C3110 H3124 0.980 . S
C3111 C3108 1.511 . S
C3111 H3125 0.961 . S
C3111 H3126 0.961 . S
C3111 H3127 0.961 . S
C3112 C3113 1.370 . S
C3112 C3114 1.363 . S
C3112 H3128 0.931 . S
C3113 C3112 1.370 . S
C3113 C3117 1.408 . S
C3114 C3112 1.363 . S
C3114 C3115 1.370 . S
C3114 C3118 1.524 . S
C3115 C3107 1.503 . S
C3115 C3114 1.370 . S
C3115 C3116 1.403 . S
C3116 C3115 1.403 . S
C3116 C3117 1.404 . S
C3116 C3119 1.539 . S
C3117 C3113 1.408 . S
C3117 C3116 1.404 . S
C3117 H3129 0.930 . S
C3118 C3114 1.524 . S
C3118 H3130 0.956 . S
C3118 H3131 0.961 . S
C3118 H3132 0.961 . S
C3119 C3116 1.539 . S
C3119 H3133 0.958 . S
C3119 H3134 0.961 . S
C3119 H3135 0.960 . S
H3120 C3104 0.931 . S
H3121 C3109 0.929 . S
H3122 C3110 0.960 . S
H3123 C3110 0.962 . S
H3124 C3110 0.980 . S
H3125 C3111 0.961 . S
H3126 C3111 0.961 . S
H3127 C3111 0.961 . S
H3128 C3112 0.931 . S
H3129 C3117 0.930 . S
H3130 C3118 0.956 . S
H3131 C3118 0.961 . S
H3132 C3118 0.961 . S
H3133 C3119 0.958 . S
H3134 C3119 0.961 . S
H3135 C3119 0.960 . S
C3136 C3137 1.391 . S
C3136 C3138 1.394 . S
C3136 H3152 0.931 . S
C3137 C3136 1.391 . S
C3137 C3141 1.376 . S
C3138 C3136 1.394 . S
C3138 C3139 1.369 . S
C3138 C3142 1.531 . S
C3139 C3138 1.369 . S
C3139 C3140 1.410 . S
C3139 C3147 1.503 . S
C3140 C3139 1.410 . S
C3140 C3141 1.392 . S
C3140 C3143 1.511 . S
C3141 C3137 1.376 . S
C3141 C3140 1.392 . S
C3141 H3153 0.929 . S
C3142 C3138 1.531 . S
C3142 H3154 0.960 . S
C3142 H3155 0.962 . S
C3142 H3156 0.960 . S
C3143 C3140 1.511 . S
C3143 H3157 0.961 . S
C3143 H3158 0.961 . S
C3143 H3159 0.961 . S
C3144 C3145 1.370 . S
C3144 C3146 1.363 . S
C3144 H3160 0.931 . S
C3145 C3144 1.370 . S
C3145 C3149 1.408 . S
C3146 C3144 1.363 . S
C3146 C3147 1.370 . S
C3146 C3150 1.524 . S
C3147 C3139 1.503 . S
C3147 C3146 1.370 . S
C3147 C3148 1.403 . S
C3148 C3147 1.403 . S
C3148 C3149 1.404 . S
C3148 C3151 1.539 . S
C3149 C3145 1.408 . S
C3149 C3148 1.404 . S
C3149 H3161 0.930 . S
C3150 C3146 1.524 . S
C3150 H3162 0.956 . S
C3150 H3163 0.961 . S
C3150 H3164 0.961 . S
C3151 C3148 1.539 . S
C3151 H3165 0.958 . S
C3151 H3166 0.961 . S
C3151 H3167 0.960 . S
H3152 C3136 0.931 . S
H3153 C3141 0.929 . S
H3154 C3142 0.960 . S
H3155 C3142 0.962 . S
H3156 C3142 0.960 . S
H3157 C3143 0.961 . S
H3158 C3143 0.961 . S
H3159 C3143 0.961 . S
H3160 C3144 0.931 . S
H3161 C3149 0.930 . S
H3162 C3150 0.956 . S
H3163 C3150 0.961 . S
H3164 C3150 0.961 . S
H3165 C3151 0.958 . S
H3166 C3151 0.961 . S
H3167 C3151 0.960 . S
C3168 C3169 1.391 . S
C3168 C3170 1.394 . S
C3168 H3184 0.931 . S
C3169 C3168 1.391 . S
C3169 C3173 1.376 . S
C3170 C3168 1.394 . S
C3170 C3171 1.369 . S
C3170 C3174 1.531 . S
C3171 C3170 1.369 . S
C3171 C3172 1.410 . S
C3171 C3179 1.503 . S
C3172 C3171 1.410 . S
C3172 C3173 1.392 . S
C3172 C3175 1.511 . S
C3173 C3169 1.376 . S
C3173 C3172 1.392 . S
C3173 H3185 0.929 . S
C3174 C3170 1.531 . S
C3174 H3186 0.960 . S
C3174 H3187 0.962 . S
C3174 H3188 0.960 . S
C3175 C3172 1.511 . S
C3175 H3189 0.961 . S
C3175 H3190 0.961 . S
C3175 H3191 0.961 . S
C3176 C3177 1.370 . S
C3176 C3178 1.363 . S
C3176 H3192 0.931 . S
C3177 C3176 1.370 . S
C3177 C3181 1.408 . S
C3178 C3176 1.363 . S
C3178 C3179 1.370 . S
C3178 C3182 1.524 . S
C3179 C3171 1.503 . S
C3179 C3178 1.370 . S
C3179 C3180 1.403 . S
C3180 C3179 1.403 . S
C3180 C3181 1.404 . S
C3180 C3183 1.539 . S
C3181 C3177 1.408 . S
C3181 C3180 1.404 . S
C3181 H3193 0.930 . S
C3182 C3178 1.524 . S
C3182 H3194 0.956 . S
C3182 H3195 0.961 . S
C3182 H3196 0.961 . S
C3183 C3180 1.539 . S
C3183 H3197 0.958 . S
C3183 H3198 0.961 . S
C3183 H3199 0.960 . S
H3184 C3168 0.931 . S
H3185 C3173 0.929 . S
H3186 C3174 0.960 . S
H3187 C3174 0.962 . S
H3188 C3174 0.960 . S
H3189 C3175 0.961 . S
H3190 C3175 0.961 . S
H3191 C3175 0.961 . S
H3192 C3176 0.931 . S
H3193 C3181 0.930 . S
H3194 C3182 0.956 . S
H3195 C3182 0.961 . S
H3196 C3182 0.961 . S
H3197 C3183 0.958 . S
H3198 C3183 0.961 . S
H3199 C3183 0.960 . S
C3200 C3201 1.391 . S
C3200 C3202 1.394 . S
C3200 H3216 0.931 . S
C3201 C3200 1.391 . S
C3201 C3205 1.376 . S
C3202 C3200 1.394 . S
C3202 C3203 1.369 . S
C3202 C3206 1.531 . S
C3203 C3202 1.369 . S
C3203 C3204 1.410 . S
C3203 C3211 1.503 . S
C3204 C3203 1.410 . S
C3204 C3205 1.392 . S
C3204 C3207 1.511 . S
C3205 C3201 1.376 . S
C3205 C3204 1.392 . S
C3205 H3217 0.929 . S
C3206 C3202 1.531 . S
C3206 H3218 0.960 . S
C3206 H3219 0.962 . S
C3206 H3220 0.960 . S
C3207 C3204 1.511 . S
C3207 H3221 0.961 1_655 S
C3207 H3222 0.961 . S
C3207 H3223 0.961 1_655 S
C3208 C3209 1.370 . S
C3208 C3210 1.363 . S
C3208 H3224 0.931 . S
C3209 C3208 1.370 . S
C3209 C3213 1.408 . S
C3210 C3208 1.363 . S
C3210 C3211 1.370 . S
C3210 C3214 1.524 . S
C3211 C3203 1.503 . S
C3211 C3210 1.370 . S
C3211 C3212 1.403 . S
C3212 C3211 1.403 . S
C3212 C3213 1.404 . S
C3212 C3215 1.539 . S
C3213 C3209 1.408 . S
C3213 C3212 1.404 . S
C3213 H3225 0.930 . S
C3214 C3210 1.524 . S
C3214 H3226 0.956 . S
C3214 H3227 0.961 . S
C3214 H3228 0.961 . S
C3215 C3212 1.539 . S
C3215 H3229 0.958 . S
C3215 H3230 0.961 . S
C3215 H3231 0.960 . S
H3216 C3200 0.931 . S
H3217 C3205 0.929 . S
H3218 C3206 0.960 . S
H3219 C3206 0.962 . S
H3220 C3206 0.960 . S
H3221 C3207 0.961 1_455 S
H3222 C3207 0.961 . S
H3223 C3207 0.961 1_455 S
H3224 C3208 0.931 . S
H3225 C3213 0.930 . S
H3226 C3214 0.956 . S
H3227 C3214 0.961 . S
H3228 C3214 0.961 . S
H3229 C3215 0.958 . S
H3230 C3215 0.961 . S
H3231 C3215 0.960 . S
C3232 C3233 1.391 . S
C3232 C3234 1.394 . S
C3232 H3248 0.931 . S
C3233 C3232 1.391 . S
C3233 C3237 1.376 . S
C3234 C3232 1.394 . S
C3234 C3235 1.369 . S
C3234 C3238 1.531 . S
C3235 C3234 1.369 . S
C3235 C3236 1.410 . S
C3235 C3243 1.503 . S
C3236 C3235 1.410 . S
C3236 C3237 1.392 . S
C3236 C3239 1.511 . S
C3237 C3233 1.376 . S
C3237 C3236 1.392 . S
C3237 H3249 0.929 . S
C3238 C3234 1.531 . S
C3238 H3250 0.960 . S
C3238 H3251 0.962 . S
C3238 H3252 0.960 . S
C3239 C3236 1.511 . S
C3239 H3253 0.961 . S
C3239 H3254 0.961 . S
C3239 H3255 0.961 . S
C3240 C3241 1.370 . S
C3240 C3242 1.363 . S
C3240 H3256 0.931 . S
C3241 C3240 1.370 . S
C3241 C3245 1.408 . S
C3242 C3240 1.363 . S
C3242 C3243 1.370 . S
C3242 C3246 1.524 . S
C3243 C3235 1.503 . S
C3243 C3242 1.370 . S
C3243 C3244 1.403 . S
C3244 C3243 1.403 . S
C3244 C3245 1.404 . S
C3244 C3247 1.539 . S
C3245 C3241 1.408 . S
C3245 C3244 1.404 . S
C3245 H3257 0.930 . S
C3246 C3242 1.524 . S
C3246 H3258 0.956 . S
C3246 H3259 0.961 . S
C3246 H3260 0.961 . S
C3247 C3244 1.539 . S
C3247 H3261 0.958 . S
C3247 H3262 0.961 . S
C3247 H3263 0.960 . S
H3248 C3232 0.931 . S
H3249 C3237 0.929 . S
H3250 C3238 0.960 . S
H3251 C3238 0.962 . S
H3252 C3238 0.960 . S
H3253 C3239 0.961 . S
H3254 C3239 0.961 . S
H3255 C3239 0.961 . S
H3256 C3240 0.931 . S
H3257 C3245 0.930 . S
H3258 C3246 0.956 . S
H3259 C3246 0.961 . S
H3260 C3246 0.961 . S
H3261 C3247 0.958 . S
H3262 C3247 0.961 . S
H3263 C3247 0.960 . S
C3264 C3265 1.391 . S
C3264 C3266 1.394 . S
C3264 H3280 0.931 . S
C3265 C3264 1.391 . S
C3265 C3269 1.376 . S
C3266 C3264 1.394 . S
C3266 C3267 1.369 . S
C3266 C3270 1.531 . S
C3267 C3266 1.369 . S
C3267 C3268 1.410 . S
C3267 C3275 1.503 . S
C3268 C3267 1.410 . S
C3268 C3269 1.392 . S
C3268 C3271 1.511 . S
C3269 C3265 1.376 . S
C3269 C3268 1.392 . S
C3269 H3281 0.929 . S
C3270 C3266 1.531 . S
C3270 H3282 0.960 . S
C3270 H3283 0.962 . S
C3270 H3284 0.960 . S
C3271 C3268 1.511 . S
C3271 H3285 0.961 . S
C3271 H3286 0.961 . S
C3271 H3287 0.961 . S
C3272 C3273 1.370 . S
C3272 C3274 1.363 . S
C3272 H3288 0.931 . S
C3273 C3272 1.370 . S
C3273 C3277 1.408 . S
C3274 C3272 1.363 . S
C3274 C3275 1.370 . S
C3274 C3278 1.524 . S
C3275 C3267 1.503 . S
C3275 C3274 1.370 . S
C3275 C3276 1.403 . S
C3276 C3275 1.403 . S
C3276 C3277 1.404 . S
C3276 C3279 1.539 . S
C3277 C3273 1.408 . S
C3277 C3276 1.404 . S
C3277 H3289 0.930 . S
C3278 C3274 1.524 . S
C3278 H3290 0.956 . S
C3278 H3291 0.961 . S
C3278 H3292 0.961 . S
C3279 C3276 1.539 . S
C3279 H3293 0.958 . S
C3279 H3294 0.961 . S
C3279 H3295 0.960 . S
H3280 C3264 0.931 . S
H3281 C3269 0.929 . S
H3282 C3270 0.960 . S
H3283 C3270 0.962 . S
H3284 C3270 0.960 . S
H3285 C3271 0.961 . S
H3286 C3271 0.961 . S
H3287 C3271 0.961 . S
H3288 C3272 0.931 . S
H3289 C3277 0.930 . S
H3290 C3278 0.956 . S
H3291 C3278 0.961 . S
H3292 C3278 0.961 . S
H3293 C3279 0.958 . S
H3294 C3279 0.961 . S
H3295 C3279 0.960 . S
C3296 C3297 1.391 . S
C3296 C3298 1.394 . S
C3296 H3312 0.931 . S
C3297 C3296 1.391 . S
C3297 C3301 1.376 . S
C3298 C3296 1.394 . S
C3298 C3299 1.369 . S
C3298 C3302 1.531 . S
C3299 C3298 1.369 . S
C3299 C3300 1.410 . S
C3299 C3307 1.503 . S
C3300 C3299 1.410 . S
C3300 C3301 1.392 . S
C3300 C3303 1.511 . S
C3301 C3297 1.376 . S
C3301 C3300 1.392 . S
C3301 H3313 0.929 . S
C3302 C3298 1.531 . S
C3302 H3314 0.960 . S
C3302 H3315 0.962 . S
C3302 H3316 0.965 . S
C3303 C3300 1.511 . S
C3303 H3317 0.961 . S
C3303 H3318 0.961 . S
C3303 H3319 0.961 . S
C3304 C3305 1.370 . S
C3304 C3306 1.363 . S
C3304 H3320 0.931 . S
C3305 C3304 1.370 . S
C3305 C3309 1.408 . S
C3306 C3304 1.363 . S
C3306 C3307 1.370 . S
C3306 C3310 1.524 . S
C3307 C3299 1.503 . S
C3307 C3306 1.370 . S
C3307 C3308 1.403 . S
C3308 C3307 1.403 . S
C3308 C3309 1.404 . S
C3308 C3311 1.539 . S
C3309 C3305 1.408 . S
C3309 C3308 1.404 . S
C3309 H3321 0.930 . S
C3310 C3306 1.524 . S
C3310 H3322 0.956 . S
C3310 H3323 0.961 . S
C3310 H3324 0.961 . S
C3311 C3308 1.539 . S
C3311 H3325 0.957 1_556 S
C3311 H3326 0.961 . S
C3311 H3327 0.960 . S
H3312 C3296 0.931 . S
H3313 C3301 0.929 . S
H3314 C3302 0.960 . S
H3315 C3302 0.962 . S
H3316 C3302 0.965 . S
H3317 C3303 0.961 . S
H3318 C3303 0.961 . S
H3319 C3303 0.961 . S
H3320 C3304 0.931 . S
H3321 C3309 0.930 . S
H3322 C3310 0.956 . S
H3323 C3310 0.961 . S
H3324 C3310 0.961 . S
H3325 C3311 0.957 1_554 S
H3326 C3311 0.961 . S
H3327 C3311 0.960 . S
C3328 C3329 1.391 . S
C3328 C3330 1.394 . S
C3328 H3344 0.931 . S
C3329 C3328 1.391 . S
C3329 C3333 1.376 . S
C3330 C3328 1.394 . S
C3330 C3331 1.369 . S
C3330 C3334 1.531 . S
C3331 C3330 1.369 . S
C3331 C3332 1.410 . S
C3331 C3339 1.503 . S
C3332 C3331 1.410 . S
C3332 C3333 1.392 . S
C3332 C3335 1.511 1_655 S
C3333 C3329 1.376 . S
C3333 C3332 1.392 . S
C3333 H3345 0.929 1_655 S
C3334 C3330 1.531 . S
C3334 H3346 0.960 . S
C3334 H3347 0.962 . S
C3334 H3348 0.960 . S
C3335 C3332 1.511 1_455 S
C3335 H3349 0.961 . S
C3335 H3350 0.961 1_455 S
C3335 H3351 0.961 . S
C3336 C3337 1.370 . S
C3336 C3338 1.363 . S
C3336 H3352 0.931 . S
C3337 C3336 1.370 . S
C3337 C3341 1.408 . S
C3338 C3336 1.363 . S
C3338 C3339 1.370 . S
C3338 C3342 1.524 . S
C3339 C3331 1.503 . S
C3339 C3338 1.370 . S
C3339 C3340 1.403 . S
C3340 C3339 1.403 . S
C3340 C3341 1.404 . S
C3340 C3343 1.539 . S
C3341 C3337 1.408 . S
C3341 C3340 1.404 . S
C3341 H3353 0.930 . S
C3342 C3338 1.524 . S
C3342 H3354 0.956 . S
C3342 H3355 0.961 . S
C3342 H3356 0.961 . S
C3343 C3340 1.539 . S
C3343 H3357 0.958 . S
C3343 H3358 0.961 1_655 S
C3343 H3359 0.960 1_655 S
H3344 C3328 0.931 . S
H3345 C3333 0.929 1_455 S
H3346 C3334 0.960 . S
H3347 C3334 0.962 . S
H3348 C3334 0.960 . S
H3349 C3335 0.961 . S
H3350 C3335 0.961 1_655 S
H3351 C3335 0.961 . S
H3352 C3336 0.931 . S
H3353 C3341 0.930 . S
H3354 C3342 0.956 . S
H3355 C3342 0.961 . S
H3356 C3342 0.961 . S
H3357 C3343 0.958 . S
H3358 C3343 0.961 1_455 S
H3359 C3343 0.960 1_455 S
C3360 C3361 1.391 . S
C3360 C3362 1.394 . S
C3360 H3376 0.931 . S
C3361 C3360 1.391 . S
C3361 C3365 1.376 . S
C3362 C3360 1.394 . S
C3362 C3363 1.369 . S
C3362 C3366 1.531 . S
C3363 C3362 1.369 . S
C3363 C3364 1.410 . S
C3363 C3371 1.503 . S
C3364 C3363 1.410 . S
C3364 C3365 1.392 . S
C3364 C3367 1.511 . S
C3365 C3361 1.376 . S
C3365 C3364 1.392 . S
C3365 H3377 0.929 . S
C3366 C3362 1.531 . S
C3366 H3378 0.960 . S
C3366 H3379 0.962 . S
C3366 H3380 0.960 . S
C3367 C3364 1.511 . S
C3367 H3381 0.961 . S
C3367 H3382 0.961 . S
C3367 H3383 0.961 . S
C3368 C3369 1.370 . S
C3368 C3370 1.363 . S
C3368 H3384 0.931 . S
C3369 C3368 1.370 . S
C3369 C3373 1.408 . S
C3370 C3368 1.363 . S
C3370 C3371 1.370 . S
C3370 C3374 1.524 . S
C3371 C3363 1.503 . S
C3371 C3370 1.370 . S
C3371 C3372 1.403 . S
C3372 C3371 1.403 . S
C3372 C3373 1.404 . S
C3372 C3375 1.539 . S
C3373 C3369 1.408 . S
C3373 C3372 1.404 . S
C3373 H3385 0.930 . S
C3374 C3370 1.524 . S
C3374 H3386 0.956 . S
C3374 H3387 0.961 . S
C3374 H3388 0.961 . S
C3375 C3372 1.539 . S
C3375 H3389 0.958 . S
C3375 H3390 0.961 . S
C3375 H3391 0.960 . S
H3376 C3360 0.931 . S
H3377 C3365 0.929 . S
H3378 C3366 0.960 . S
H3379 C3366 0.962 . S
H3380 C3366 0.960 . S
H3381 C3367 0.961 . S
H3382 C3367 0.961 . S
H3383 C3367 0.961 . S
H3384 C3368 0.931 . S
H3385 C3373 0.930 . S
H3386 C3374 0.956 . S
H3387 C3374 0.961 . S
H3388 C3374 0.961 . S
H3389 C3375 0.958 . S
H3390 C3375 0.961 . S
H3391 C3375 0.960 . S
C3392 C3393 1.391 . S
C3392 C3394 1.394 . S
C3392 H3408 0.931 . S
C3393 C3392 1.391 . S
C3393 C3397 1.376 . S
C3394 C3392 1.394 . S
C3394 C3395 1.369 . S
C3394 C3398 1.531 . S
C3395 C3394 1.369 . S
C3395 C3396 1.410 . S
C3395 C3403 1.503 . S
C3396 C3395 1.410 . S
C3396 C3397 1.392 . S
C3396 C3399 1.511 . S
C3397 C3393 1.376 . S
C3397 C3396 1.392 . S
C3397 H3409 0.929 . S
C3398 C3394 1.531 . S
C3398 H3410 0.960 . S
C3398 H3411 0.962 . S
C3398 H3412 0.960 . S
C3399 C3396 1.511 . S
C3399 H3413 0.961 . S
C3399 H3414 0.961 . S
C3399 H3415 0.961 . S
C3400 C3401 1.370 . S
C3400 C3402 1.363 . S
C3400 H3416 0.931 . S
C3401 C3400 1.370 . S
C3401 C3405 1.408 . S
C3402 C3400 1.363 . S
C3402 C3403 1.370 . S
C3402 C3406 1.524 . S
C3403 C3395 1.503 . S
C3403 C3402 1.370 . S
C3403 C3404 1.403 . S
C3404 C3403 1.403 . S
C3404 C3405 1.404 . S
C3404 C3407 1.539 . S
C3405 C3401 1.408 . S
C3405 C3404 1.404 . S
C3405 H3417 0.930 . S
C3406 C3402 1.524 . S
C3406 H3418 0.956 . S
C3406 H3419 0.961 . S
C3406 H3420 0.961 . S
C3407 C3404 1.539 . S
C3407 H3421 0.958 . S
C3407 H3422 0.961 . S
C3407 H3423 0.960 . S
H3408 C3392 0.931 . S
H3409 C3397 0.929 . S
H3410 C3398 0.960 . S
H3411 C3398 0.962 . S
H3412 C3398 0.960 . S
H3413 C3399 0.961 . S
H3414 C3399 0.961 . S
H3415 C3399 0.961 . S
H3416 C3400 0.931 . S
H3417 C3405 0.930 . S
H3418 C3406 0.956 . S
H3419 C3406 0.961 . S
H3420 C3406 0.961 . S
H3421 C3407 0.958 . S
H3422 C3407 0.961 . S
H3423 C3407 0.960 . S
C3424 C3425 1.391 . S
C3424 C3426 1.394 . S
C3424 H3440 0.931 . S
C3425 C3424 1.391 . S
C3425 C3429 1.376 . S
C3426 C3424 1.394 . S
C3426 C3427 1.369 . S
C3426 C3430 1.531 . S
C3427 C3426 1.369 . S
C3427 C3428 1.410 . S
C3427 C3435 1.503 . S
C3428 C3427 1.410 . S
C3428 C3429 1.392 . S
C3428 C3431 1.511 . S
C3429 C3425 1.376 . S
C3429 C3428 1.392 . S
C3429 H3441 0.929 . S
C3430 C3426 1.531 . S
C3430 H3442 0.960 . S
C3430 H3443 0.962 . S
C3430 H3444 0.960 . S
C3431 C3428 1.511 . S
C3431 H3445 0.961 . S
C3431 H3446 0.961 . S
C3431 H3447 0.961 . S
C3432 C3433 1.370 . S
C3432 C3434 1.363 . S
C3432 H3448 0.931 . S
C3433 C3432 1.370 . S
C3433 C3437 1.408 . S
C3434 C3432 1.363 . S
C3434 C3435 1.370 . S
C3434 C3438 1.524 . S
C3435 C3427 1.503 . S
C3435 C3434 1.370 . S
C3435 C3436 1.403 . S
C3436 C3435 1.403 . S
C3436 C3437 1.404 . S
C3436 C3439 1.539 . S
C3437 C3433 1.408 . S
C3437 C3436 1.404 . S
C3437 H3449 0.930 . S
C3438 C3434 1.524 . S
C3438 H3450 0.956 . S
C3438 H3451 0.961 . S
C3438 H3452 0.961 . S
C3439 C3436 1.539 . S
C3439 H3453 0.958 . S
C3439 H3454 0.961 . S
C3439 H3455 0.960 . S
H3440 C3424 0.931 . S
H3441 C3429 0.929 . S
H3442 C3430 0.960 . S
H3443 C3430 0.962 . S
H3444 C3430 0.960 . S
H3445 C3431 0.961 . S
H3446 C3431 0.961 . S
H3447 C3431 0.961 . S
H3448 C3432 0.931 . S
H3449 C3437 0.930 . S
H3450 C3438 0.956 . S
H3451 C3438 0.961 . S
H3452 C3438 0.961 . S
H3453 C3439 0.958 . S
H3454 C3439 0.961 . S
H3455 C3439 0.960 . S
C3456 C3457 1.391 . S
C3456 C3458 1.394 . S
C3456 H3472 0.931 . S
C3457 C3456 1.391 . S
C3457 C3461 1.376 . S
C3458 C3456 1.394 . S
C3458 C3459 1.369 . S
C3458 C3462 1.531 . S
C3459 C3458 1.369 . S
C3459 C3460 1.410 . S
C3459 C3467 1.503 . S
C3460 C3459 1.410 . S
C3460 C3461 1.392 . S
C3460 C3463 1.511 . S
C3461 C3457 1.376 . S
C3461 C3460 1.392 . S
C3461 H3473 0.929 . S
C3462 C3458 1.531 . S
C3462 H3474 0.960 . S
C3462 H3475 0.962 . S
C3462 H3476 0.960 . S
C3463 C3460 1.511 . S
C3463 H3477 0.961 . S
C3463 H3478 0.961 . S
C3463 H3479 0.961 . S
C3464 C3465 1.370 . S
C3464 C3466 1.363 . S
C3464 H3480 0.931 . S
C3465 C3464 1.370 . S
C3465 C3469 1.408 . S
C3466 C3464 1.363 . S
C3466 C3467 1.370 . S
C3466 C3470 1.524 . S
C3467 C3459 1.503 . S
C3467 C3466 1.370 . S
C3467 C3468 1.403 . S
C3468 C3467 1.403 . S
C3468 C3469 1.404 . S
C3468 C3471 1.539 . S
C3469 C3465 1.408 . S
C3469 C3468 1.404 . S
C3469 H3481 0.930 . S
C3470 C3466 1.524 . S
C3470 H3482 0.956 . S
C3470 H3483 0.961 . S
C3470 H3484 0.961 . S
C3471 C3468 1.539 . S
C3471 H3485 0.958 . S
C3471 H3486 0.961 . S
C3471 H3487 0.960 . S
H3472 C3456 0.931 . S
H3473 C3461 0.929 . S
H3474 C3462 0.960 . S
H3475 C3462 0.962 . S
H3476 C3462 0.960 . S
H3477 C3463 0.961 . S
H3478 C3463 0.961 . S
H3479 C3463 0.961 . S
H3480 C3464 0.931 . S
H3481 C3469 0.930 . S
H3482 C3470 0.956 . S
H3483 C3470 0.961 . S
H3484 C3470 0.961 . S
H3485 C3471 0.958 . S
H3486 C3471 0.961 . S
H3487 C3471 0.960 . S
C3488 C3489 1.391 . S
C3488 C3490 1.394 . S
C3488 H3504 0.931 . S
C3489 C3488 1.391 . S
C3489 C3493 1.376 . S
C3490 C3488 1.394 . S
C3490 C3491 1.369 . S
C3490 C3494 1.531 . S
C3491 C3490 1.369 . S
C3491 C3492 1.410 . S
C3491 C3499 1.503 . S
C3492 C3491 1.410 . S
C3492 C3493 1.392 . S
C3492 C3495 1.511 . S
C3493 C3489 1.376 . S
C3493 C3492 1.392 . S
C3493 H3505 0.929 . S
C3494 C3490 1.531 . S
C3494 H3506 0.960 . S
C3494 H3507 0.962 . S
C3494 H3508 0.960 . S
C3495 C3492 1.511 . S
C3495 H3509 0.961 . S
C3495 H3510 0.961 . S
C3495 H3511 0.961 . S
C3496 C3497 1.370 . S
C3496 C3498 1.363 . S
C3496 H3512 0.931 . S
C3497 C3496 1.370 . S
C3497 C3501 1.408 . S
C3498 C3496 1.363 . S
C3498 C3499 1.370 . S
C3498 C3502 1.524 . S
C3499 C3491 1.503 . S
C3499 C3498 1.370 . S
C3499 C3500 1.403 . S
C3500 C3499 1.403 . S
C3500 C3501 1.404 . S
C3500 C3503 1.539 . S
C3501 C3497 1.408 . S
C3501 C3500 1.404 . S
C3501 H3513 0.930 . S
C3502 C3498 1.524 . S
C3502 H3514 0.956 . S
C3502 H3515 0.961 . S
C3502 H3516 0.961 . S
C3503 C3500 1.539 . S
C3503 H3517 0.958 . S
C3503 H3518 0.961 . S
C3503 H3519 0.960 . S
H3504 C3488 0.931 . S
H3505 C3493 0.929 . S
H3506 C3494 0.960 . S
H3507 C3494 0.962 . S
H3508 C3494 0.960 . S
H3509 C3495 0.961 . S
H3510 C3495 0.961 . S
H3511 C3495 0.961 . S
H3512 C3496 0.931 . S
H3513 C3501 0.930 . S
H3514 C3502 0.956 . S
H3515 C3502 0.961 . S
H3516 C3502 0.961 . S
H3517 C3503 0.958 . S
H3518 C3503 0.961 . S
H3519 C3503 0.960 . S
C3520 C3521 1.391 . S
C3520 C3522 1.394 . S
C3520 H3536 0.931 . S
C3521 C3520 1.391 . S
C3521 C3525 1.376 . S
C3522 C3520 1.394 . S
C3522 C3523 1.369 . S
C3522 C3526 1.531 . S
C3523 C3522 1.369 . S
C3523 C3524 1.410 . S
C3523 C3531 1.503 . S
C3524 C3523 1.410 . S
C3524 C3525 1.392 . S
C3524 C3527 1.511 . S
C3525 C3521 1.376 . S
C3525 C3524 1.392 . S
C3525 H3537 0.929 . S
C3526 C3522 1.531 . S
C3526 H3538 0.960 . S
C3526 H3539 0.962 . S
C3526 H3540 0.960 . S
C3527 C3524 1.511 . S
C3527 H3541 0.961 . S
C3527 H3542 0.961 . S
C3527 H3543 0.961 . S
C3528 C3529 1.370 . S
C3528 C3530 1.363 . S
C3528 H3544 0.931 . S
C3529 C3528 1.370 . S
C3529 C3533 1.408 . S
C3530 C3528 1.363 . S
C3530 C3531 1.370 . S
C3530 C3534 1.524 . S
C3531 C3523 1.503 . S
C3531 C3530 1.370 . S
C3531 C3532 1.403 . S
C3532 C3531 1.403 . S
C3532 C3533 1.404 . S
C3532 C3535 1.539 . S
C3533 C3529 1.408 . S
C3533 C3532 1.404 . S
C3533 H3545 0.930 . S
C3534 C3530 1.524 . S
C3534 H3546 0.956 . S
C3534 H3547 0.961 . S
C3534 H3548 0.961 . S
C3535 C3532 1.539 . S
C3535 H3549 0.958 . S
C3535 H3550 0.961 . S
C3535 H3551 0.960 . S
H3536 C3520 0.931 . S
H3537 C3525 0.929 . S
H3538 C3526 0.960 . S
H3539 C3526 0.962 . S
H3540 C3526 0.960 . S
H3541 C3527 0.961 . S
H3542 C3527 0.961 . S
H3543 C3527 0.961 . S
H3544 C3528 0.931 . S
H3545 C3533 0.930 . S
H3546 C3534 0.956 . S
H3547 C3534 0.961 . S
H3548 C3534 0.961 . S
H3549 C3535 0.958 . S
H3550 C3535 0.961 . S
H3551 C3535 0.960 . S
C3552 C3553 1.391 . S
C3552 C3554 1.394 . S
C3552 H3568 0.931 . S
C3553 C3552 1.391 . S
C3553 C3557 1.376 . S
C3554 C3552 1.394 . S
C3554 C3555 1.369 . S
C3554 C3558 1.531 . S
C3555 C3554 1.369 . S
C3555 C3556 1.410 . S
C3555 C3563 1.503 . S
C3556 C3555 1.410 . S
C3556 C3557 1.392 . S
C3556 C3559 1.511 . S
C3557 C3553 1.376 . S
C3557 C3556 1.392 . S
C3557 H3569 0.929 . S
C3558 C3554 1.531 . S
C3558 H3570 0.960 . S
C3558 H3571 0.962 . S
C3558 H3572 0.960 . S
C3559 C3556 1.511 . S
C3559 H3573 0.961 . S
C3559 H3574 0.961 . S
C3559 H3575 0.961 . S
C3560 C3561 1.370 . S
C3560 C3562 1.363 . S
C3560 H3576 0.931 . S
C3561 C3560 1.370 . S
C3561 C3565 1.408 . S
C3562 C3560 1.363 . S
C3562 C3563 1.370 . S
C3562 C3566 1.524 . S
C3563 C3555 1.503 . S
C3563 C3562 1.370 . S
C3563 C3564 1.403 . S
C3564 C3563 1.403 . S
C3564 C3565 1.404 . S
C3564 C3567 1.539 . S
C3565 C3561 1.408 . S
C3565 C3564 1.404 . S
C3565 H3577 0.930 . S
C3566 C3562 1.524 . S
C3566 H3578 0.956 . S
C3566 H3579 0.961 . S
C3566 H3580 0.961 . S
C3567 C3564 1.539 . S
C3567 H3581 0.958 . S
C3567 H3582 0.961 . S
C3567 H3583 0.960 . S
H3568 C3552 0.931 . S
H3569 C3557 0.929 . S
H3570 C3558 0.960 . S
H3571 C3558 0.962 . S
H3572 C3558 0.960 . S
H3573 C3559 0.961 . S
H3574 C3559 0.961 . S
H3575 C3559 0.961 . S
H3576 C3560 0.931 . S
H3577 C3565 0.930 . S
H3578 C3566 0.956 . S
H3579 C3566 0.961 . S
H3580 C3566 0.961 . S
H3581 C3567 0.958 . S
H3582 C3567 0.961 . S
H3583 C3567 0.960 . S
C3584 C3585 1.391 . S
C3584 C3586 1.394 . S
C3584 H3600 0.931 . S
C3585 C3584 1.391 . S
C3585 C3589 1.376 . S
C3586 C3584 1.394 . S
C3586 C3587 1.369 . S
C3586 C3590 1.531 . S
C3587 C3586 1.369 . S
C3587 C3588 1.410 . S
C3587 C3595 1.503 . S
C3588 C3587 1.410 . S
C3588 C3589 1.392 . S
C3588 C3591 1.511 . S
C3589 C3585 1.376 . S
C3589 C3588 1.392 . S
C3589 H3601 0.929 . S
C3590 C3586 1.531 . S
C3590 H3602 0.960 . S
C3590 H3603 0.962 . S
C3590 H3604 0.960 . S
C3591 C3588 1.511 . S
C3591 H3605 0.961 . S
C3591 H3606 0.961 . S
C3591 H3607 0.961 . S
C3592 C3593 1.370 . S
C3592 C3594 1.363 . S
C3592 H3608 0.931 . S
C3593 C3592 1.370 . S
C3593 C3597 1.408 . S
C3594 C3592 1.363 . S
C3594 C3595 1.370 . S
C3594 C3598 1.524 . S
C3595 C3587 1.503 . S
C3595 C3594 1.370 . S
C3595 C3596 1.403 . S
C3596 C3595 1.403 . S
C3596 C3597 1.404 . S
C3596 C3599 1.539 . S
C3597 C3593 1.408 . S
C3597 C3596 1.404 . S
C3597 H3609 0.930 . S
C3598 C3594 1.524 . S
C3598 H3610 0.956 . S
C3598 H3611 0.961 . S
C3598 H3612 0.961 . S
C3599 C3596 1.539 . S
C3599 H3613 0.958 . S
C3599 H3614 0.961 . S
C3599 H3615 0.960 . S
H3600 C3584 0.931 . S
H3601 C3589 0.929 . S
H3602 C3590 0.960 . S
H3603 C3590 0.962 . S
H3604 C3590 0.960 . S
H3605 C3591 0.961 . S
H3606 C3591 0.961 . S
H3607 C3591 0.961 . S
H3608 C3592 0.931 . S
H3609 C3597 0.930 . S
H3610 C3598 0.956 . S
H3611 C3598 0.961 . S
H3612 C3598 0.961 . S
H3613 C3599 0.958 . S
H3614 C3599 0.961 . S
H3615 C3599 0.960 . S
C3616 C3617 1.391 . S
C3616 C3618 1.394 . S
C3616 H3632 0.931 . S
C3617 C3616 1.391 . S
C3617 C3621 1.376 . S
C3618 C3616 1.394 . S
C3618 C3619 1.369 . S
C3618 C3622 1.531 . S
C3619 C3618 1.369 . S
C3619 C3620 1.410 . S
C3619 C3627 1.503 . S
C3620 C3619 1.410 . S
C3620 C3621 1.392 . S
C3620 C3623 1.511 . S
C3621 C3617 1.376 . S
C3621 C3620 1.392 . S
C3621 H3633 0.929 . S
C3622 C3618 1.531 . S
C3622 H3634 0.960 . S
C3622 H3635 0.962 . S
C3622 H3636 0.960 . S
C3623 C3620 1.511 . S
C3623 H3637 0.961 . S
C3623 H3638 0.961 . S
C3623 H3639 0.961 . S
C3624 C3625 1.370 . S
C3624 C3626 1.363 . S
C3624 H3640 0.931 . S
C3625 C3624 1.370 . S
C3625 C3629 1.408 . S
C3626 C3624 1.363 . S
C3626 C3627 1.370 . S
C3626 C3630 1.524 . S
C3627 C3619 1.503 . S
C3627 C3626 1.370 . S
C3627 C3628 1.403 . S
C3628 C3627 1.403 . S
C3628 C3629 1.404 . S
C3628 C3631 1.539 . S
C3629 C3625 1.408 . S
C3629 C3628 1.404 . S
C3629 H3641 0.930 . S
C3630 C3626 1.524 . S
C3630 H3642 0.956 . S
C3630 H3643 0.961 . S
C3630 H3644 0.961 . S
C3631 C3628 1.539 . S
C3631 H3645 0.958 . S
C3631 H3646 0.961 . S
C3631 H3647 0.960 . S
H3632 C3616 0.931 . S
H3633 C3621 0.929 . S
H3634 C3622 0.960 . S
H3635 C3622 0.962 . S
H3636 C3622 0.960 . S
H3637 C3623 0.961 . S
H3638 C3623 0.961 . S
H3639 C3623 0.961 . S
H3640 C3624 0.931 . S
H3641 C3629 0.930 . S
H3642 C3630 0.956 . S
H3643 C3630 0.961 . S
H3644 C3630 0.961 . S
H3645 C3631 0.958 . S
H3646 C3631 0.961 . S
H3647 C3631 0.960 . S
C3648 C3649 1.391 . S
C3648 C3650 1.394 . S
C3648 H3664 0.931 . S
C3649 C3648 1.391 . S
C3649 C3653 1.376 . S
C3650 C3648 1.394 . S
C3650 C3651 1.369 . S
C3650 C3654 1.531 . S
C3651 C3650 1.369 . S
C3651 C3652 1.410 . S
C3651 C3659 1.503 . S
C3652 C3651 1.410 . S
C3652 C3653 1.392 . S
C3652 C3655 1.511 . S
C3653 C3649 1.376 . S
C3653 C3652 1.392 . S
C3653 H3665 0.929 . S
C3654 C3650 1.531 . S
C3654 H3666 0.960 . S
C3654 H3667 0.962 . S
C3654 H3668 0.960 . S
C3655 C3652 1.511 . S
C3655 H3669 0.961 . S
C3655 H3670 0.961 . S
C3655 H3671 0.961 . S
C3656 C3657 1.370 . S
C3656 C3658 1.363 . S
C3656 H3672 0.931 . S
C3657 C3656 1.370 . S
C3657 C3661 1.408 . S
C3658 C3656 1.363 . S
C3658 C3659 1.370 . S
C3658 C3662 1.524 . S
C3659 C3651 1.503 . S
C3659 C3658 1.370 . S
C3659 C3660 1.403 . S
C3660 C3659 1.403 . S
C3660 C3661 1.404 . S
C3660 C3663 1.539 . S
C3661 C3657 1.408 . S
C3661 C3660 1.404 . S
C3661 H3673 0.930 . S
C3662 C3658 1.524 . S
C3662 H3674 0.956 . S
C3662 H3675 0.961 . S
C3662 H3676 0.961 . S
C3663 C3660 1.539 . S
C3663 H3677 0.958 . S
C3663 H3678 0.961 . S
C3663 H3679 0.960 . S
H3664 C3648 0.931 . S
H3665 C3653 0.929 . S
H3666 C3654 0.960 . S
H3667 C3654 0.962 . S
H3668 C3654 0.960 . S
H3669 C3655 0.961 . S
H3670 C3655 0.961 . S
H3671 C3655 0.961 . S
H3672 C3656 0.931 . S
H3673 C3661 0.930 . S
H3674 C3662 0.956 . S
H3675 C3662 0.961 . S
H3676 C3662 0.961 . S
H3677 C3663 0.958 . S
H3678 C3663 0.961 . S
H3679 C3663 0.960 . S
C3680 C3681 1.391 . S
C3680 C3682 1.394 . S
C3680 H3696 0.931 . S
C3681 C3680 1.391 . S
C3681 C3685 1.376 . S
C3682 C3680 1.394 . S
C3682 C3683 1.369 . S
C3682 C3686 1.531 . S
C3683 C3682 1.369 . S
C3683 C3684 1.410 . S
C3683 C3691 1.503 . S
C3684 C3683 1.410 . S
C3684 C3685 1.392 . S
C3684 C3687 1.511 . S
C3685 C3681 1.376 . S
C3685 C3684 1.392 . S
C3685 H3697 0.929 . S
C3686 C3682 1.531 . S
C3686 H3698 0.960 . S
C3686 H3699 0.962 . S
C3686 H3700 0.960 . S
C3687 C3684 1.511 . S
C3687 H3701 0.961 . S
C3687 H3702 0.961 . S
C3687 H3703 0.961 . S
C3688 C3689 1.370 . S
C3688 C3690 1.363 . S
C3688 H3704 0.931 . S
C3689 C3688 1.370 . S
C3689 C3693 1.408 . S
C3690 C3688 1.363 . S
C3690 C3691 1.370 . S
C3690 C3694 1.524 . S
C3691 C3683 1.503 . S
C3691 C3690 1.370 . S
C3691 C3692 1.403 . S
C3692 C3691 1.403 . S
C3692 C3693 1.404 . S
C3692 C3695 1.539 . S
C3693 C3689 1.408 . S
C3693 C3692 1.404 . S
C3693 H3705 0.930 . S
C3694 C3690 1.524 . S
C3694 H3706 0.956 . S
C3694 H3707 0.961 . S
C3694 H3708 0.961 . S
C3695 C3692 1.539 . S
C3695 H3709 0.958 . S
C3695 H3710 0.961 . S
C3695 H3711 0.960 . S
H3696 C3680 0.931 . S
H3697 C3685 0.929 . S
H3698 C3686 0.960 . S
H3699 C3686 0.962 . S
H3700 C3686 0.960 . S
H3701 C3687 0.961 . S
H3702 C3687 0.961 . S
H3703 C3687 0.961 . S
H3704 C3688 0.931 . S
H3705 C3693 0.930 . S
H3706 C3694 0.956 . S
H3707 C3694 0.961 . S
H3708 C3694 0.961 . S
H3709 C3695 0.958 . S
H3710 C3695 0.961 . S
H3711 C3695 0.960 . S
C3712 C3713 1.391 . S
C3712 C3714 1.394 . S
C3712 H3728 0.931 . S
C3713 C3712 1.391 . S
C3713 C3717 1.376 . S
C3714 C3712 1.394 . S
C3714 C3715 1.369 . S
C3714 C3718 1.531 . S
C3715 C3714 1.369 . S
C3715 C3716 1.410 . S
C3715 C3723 1.503 . S
C3716 C3715 1.410 . S
C3716 C3717 1.392 . S
C3716 C3719 1.511 . S
C3717 C3713 1.376 . S
C3717 C3716 1.392 . S
C3717 H3729 0.929 . S
C3718 C3714 1.531 . S
C3718 H3730 0.960 . S
C3718 H3731 0.962 . S
C3718 H3732 0.960 . S
C3719 C3716 1.511 . S
C3719 H3733 0.961 . S
C3719 H3734 0.961 . S
C3719 H3735 0.961 . S
C3720 C3721 1.370 . S
C3720 C3722 1.363 . S
C3720 H3736 0.931 . S
C3721 C3720 1.370 . S
C3721 C3725 1.408 . S
C3722 C3720 1.363 . S
C3722 C3723 1.370 . S
C3722 C3726 1.524 . S
C3723 C3715 1.503 . S
C3723 C3722 1.370 . S
C3723 C3724 1.403 . S
C3724 C3723 1.403 . S
C3724 C3725 1.404 . S
C3724 C3727 1.539 . S
C3725 C3721 1.408 . S
C3725 C3724 1.404 . S
C3725 H3737 0.930 . S
C3726 C3722 1.524 . S
C3726 H3738 0.956 . S
C3726 H3739 0.961 . S
C3726 H3740 0.961 . S
C3727 C3724 1.539 . S
C3727 H3741 0.958 . S
C3727 H3742 0.961 . S
C3727 H3743 0.960 . S
H3728 C3712 0.931 . S
H3729 C3717 0.929 . S
H3730 C3718 0.960 . S
H3731 C3718 0.962 . S
H3732 C3718 0.960 . S
H3733 C3719 0.961 . S
H3734 C3719 0.961 . S
H3735 C3719 0.961 . S
H3736 C3720 0.931 . S
H3737 C3725 0.930 . S
H3738 C3726 0.956 . S
H3739 C3726 0.961 . S
H3740 C3726 0.961 . S
H3741 C3727 0.958 . S
H3742 C3727 0.961 . S
H3743 C3727 0.960 . S
C3744 C3745 1.391 . S
C3744 C3746 1.394 . S
C3744 H3760 0.931 . S
C3745 C3744 1.391 . S
C3745 C3749 1.376 . S
C3746 C3744 1.394 . S
C3746 C3747 1.369 . S
C3746 C3750 1.531 . S
C3747 C3746 1.369 . S
C3747 C3748 1.410 . S
C3747 C3755 1.503 . S
C3748 C3747 1.410 . S
C3748 C3749 1.392 . S
C3748 C3751 1.511 . S
C3749 C3745 1.376 . S
C3749 C3748 1.392 . S
C3749 H3761 0.929 . S
C3750 C3746 1.531 . S
C3750 H3762 0.960 . S
C3750 H3763 0.962 . S
C3750 H3764 0.960 . S
C3751 C3748 1.511 . S
C3751 H3765 0.961 . S
C3751 H3766 0.961 . S
C3751 H3767 0.961 . S
C3752 C3753 1.370 . S
C3752 C3754 1.363 . S
C3752 H3768 0.931 . S
C3753 C3752 1.370 . S
C3753 C3757 1.408 . S
C3754 C3752 1.363 . S
C3754 C3755 1.370 . S
C3754 C3758 1.524 . S
C3755 C3747 1.503 . S
C3755 C3754 1.370 . S
C3755 C3756 1.403 . S
C3756 C3755 1.403 . S
C3756 C3757 1.404 . S
C3756 C3759 1.539 . S
C3757 C3753 1.408 . S
C3757 C3756 1.404 . S
C3757 H3769 0.930 . S
C3758 C3754 1.524 . S
C3758 H3770 0.956 . S
C3758 H3771 0.961 . S
C3758 H3772 0.961 . S
C3759 C3756 1.539 . S
C3759 H3773 0.958 . S
C3759 H3774 0.961 . S
C3759 H3775 0.960 . S
H3760 C3744 0.931 . S
H3761 C3749 0.929 . S
H3762 C3750 0.960 . S
H3763 C3750 0.962 . S
H3764 C3750 0.960 . S
H3765 C3751 0.961 . S
H3766 C3751 0.961 . S
H3767 C3751 0.961 . S
H3768 C3752 0.931 . S
H3769 C3757 0.930 . S
H3770 C3758 0.956 . S
H3771 C3758 0.961 . S
H3772 C3758 0.961 . S
H3773 C3759 0.958 . S
H3774 C3759 0.961 . S
H3775 C3759 0.960 . S
C3776 C3777 1.391 . S
C3776 C3778 1.394 . S
C3776 H3792 0.931 . S
C3777 C3776 1.391 . S
C3777 C3781 1.376 . S
C3778 C3776 1.394 . S
C3778 C3779 1.369 . S
C3778 C3782 1.531 . S
C3779 C3778 1.369 . S
C3779 C3780 1.410 . S
C3779 C3787 1.503 . S
C3780 C3779 1.410 . S
C3780 C3781 1.392 . S
C3780 C3783 1.511 . S
C3781 C3777 1.376 . S
C3781 C3780 1.392 . S
C3781 H3793 0.929 . S
C3782 C3778 1.531 . S
C3782 H3794 0.960 . S
C3782 H3795 0.962 . S
C3782 H3796 0.960 . S
C3783 C3780 1.511 . S
C3783 H3797 0.961 . S
C3783 H3798 0.961 . S
C3783 H3799 0.961 . S
C3784 C3785 1.370 . S
C3784 C3786 1.363 . S
C3784 H3800 0.934 1_554 S
C3785 C3784 1.370 . S
C3785 C3789 1.408 . S
C3786 C3784 1.363 . S
C3786 C3787 1.370 . S
C3786 C3790 1.524 . S
C3787 C3779 1.503 . S
C3787 C3786 1.370 . S
C3787 C3788 1.403 . S
C3788 C3787 1.403 . S
C3788 C3789 1.404 . S
C3788 C3791 1.539 . S
C3789 C3785 1.408 . S
C3789 C3788 1.404 . S
C3789 H3801 0.930 . S
C3790 C3786 1.524 . S
C3790 H3802 0.956 . S
C3790 H3803 0.961 . S
C3790 H3804 0.961 1_554 S
C3791 C3788 1.539 . S
C3791 H3805 0.958 . S
C3791 H3806 0.961 . S
C3791 H3807 0.960 . S
H3792 C3776 0.931 . S
H3793 C3781 0.929 . S
H3794 C3782 0.960 . S
H3795 C3782 0.962 . S
H3796 C3782 0.960 . S
H3797 C3783 0.961 . S
H3798 C3783 0.961 . S
H3799 C3783 0.961 . S
H3800 C3784 0.934 1_556 S
H3801 C3789 0.930 . S
H3802 C3790 0.956 . S
H3803 C3790 0.961 . S
H3804 C3790 0.961 1_556 S
H3805 C3791 0.958 . S
H3806 C3791 0.961 . S
H3807 C3791 0.960 . S
C3808 C3809 1.391 . S
C3808 C3810 1.394 . S
C3808 H3824 0.931 . S
C3809 C3808 1.391 . S
C3809 C3813 1.376 . S
C3810 C3808 1.394 . S
C3810 C3811 1.369 . S
C3810 C3814 1.531 . S
C3811 C3810 1.369 . S
C3811 C3812 1.410 . S
C3811 C3819 1.503 . S
C3812 C3811 1.410 . S
C3812 C3813 1.392 . S
C3812 C3815 1.511 . S
C3813 C3809 1.376 . S
C3813 C3812 1.392 . S
C3813 H3825 0.929 . S
C3814 C3810 1.531 . S
C3814 H3826 0.960 . S
C3814 H3827 0.962 . S
C3814 H3828 0.960 . S
C3815 C3812 1.511 . S
C3815 H3829 0.961 . S
C3815 H3830 0.961 . S
C3815 H3831 0.961 . S
C3816 C3817 1.370 . S
C3816 C3818 1.363 . S
C3816 H3832 0.931 . S
C3817 C3816 1.370 . S
C3817 C3821 1.408 . S
C3818 C3816 1.363 . S
C3818 C3819 1.370 . S
C3818 C3822 1.524 . S
C3819 C3811 1.503 . S
C3819 C3818 1.370 . S
C3819 C3820 1.403 . S
C3820 C3819 1.403 . S
C3820 C3821 1.404 . S
C3820 C3823 1.539 . S
C3821 C3817 1.408 . S
C3821 C3820 1.404 . S
C3821 H3833 0.930 . S
C3822 C3818 1.524 . S
C3822 H3834 0.956 . S
C3822 H3835 0.961 . S
C3822 H3836 0.961 . S
C3823 C3820 1.539 . S
C3823 H3837 0.958 . S
C3823 H3838 0.961 . S
C3823 H3839 0.960 . S
H3824 C3808 0.931 . S
H3825 C3813 0.929 . S
H3826 C3814 0.960 . S
H3827 C3814 0.962 . S
H3828 C3814 0.960 . S
H3829 C3815 0.961 . S
H3830 C3815 0.961 . S
H3831 C3815 0.961 . S
H3832 C3816 0.931 . S
H3833 C3821 0.930 . S
H3834 C3822 0.956 . S
H3835 C3822 0.961 . S
H3836 C3822 0.961 . S
H3837 C3823 0.958 . S
H3838 C3823 0.961 . S
H3839 C3823 0.960 . S
C3840 C3841 1.391 . S
C3840 C3842 1.394 . S
C3840 H3856 0.931 . S
C3841 C3840 1.391 . S
C3841 C3845 1.376 . S
C3842 C3840 1.394 . S
C3842 C3843 1.369 . S
C3842 C3846 1.531 . S
C3843 C3842 1.369 . S
C3843 C3844 1.410 . S
C3843 C3851 1.503 . S
C3844 C3843 1.410 . S
C3844 C3845 1.392 . S
C3844 C3847 1.511 . S
C3845 C3841 1.376 . S
C3845 C3844 1.392 . S
C3845 H3857 0.929 . S
C3846 C3842 1.531 . S
C3846 H3858 0.960 . S
C3846 H3859 0.962 . S
C3846 H3860 0.960 . S
C3847 C3844 1.511 . S
C3847 H3861 0.961 . S
C3847 H3862 0.961 . S
C3847 H3863 0.961 . S
C3848 C3849 1.370 . S
C3848 C3850 1.363 . S
C3848 H3864 0.931 . S
C3849 C3848 1.370 . S
C3849 C3853 1.408 . S
C3850 C3848 1.363 . S
C3850 C3851 1.370 . S
C3850 C3854 1.524 . S
C3851 C3843 1.503 . S
C3851 C3850 1.370 . S
C3851 C3852 1.403 . S
C3852 C3851 1.403 . S
C3852 C3853 1.404 . S
C3852 C3855 1.539 . S
C3853 C3849 1.408 . S
C3853 C3852 1.404 . S
C3853 H3865 0.930 . S
C3854 C3850 1.524 . S
C3854 H3866 0.956 . S
C3854 H3867 0.961 . S
C3854 H3868 0.961 . S
C3855 C3852 1.539 . S
C3855 H3869 0.958 . S
C3855 H3870 0.961 . S
C3855 H3871 0.960 . S
H3856 C3840 0.931 . S
H3857 C3845 0.929 . S
H3858 C3846 0.960 . S
H3859 C3846 0.962 . S
H3860 C3846 0.960 . S
H3861 C3847 0.961 . S
H3862 C3847 0.961 . S
H3863 C3847 0.961 . S
H3864 C3848 0.931 . S
H3865 C3853 0.930 . S
H3866 C3854 0.956 . S
H3867 C3854 0.961 . S
H3868 C3854 0.961 . S
H3869 C3855 0.958 . S
H3870 C3855 0.961 . S
H3871 C3855 0.960 . S
C3872 C3873 1.391 . S
C3872 C3874 1.394 . S
C3872 H3888 0.931 . S
C3873 C3872 1.391 . S
C3873 C3877 1.376 . S
C3874 C3872 1.394 . S
C3874 C3875 1.369 . S
C3874 C3878 1.531 . S
C3875 C3874 1.369 . S
C3875 C3876 1.410 . S
C3875 C3883 1.503 . S
C3876 C3875 1.410 . S
C3876 C3877 1.392 . S
C3876 C3879 1.511 . S
C3877 C3873 1.376 . S
C3877 C3876 1.392 . S
C3877 H3889 0.929 . S
C3878 C3874 1.531 . S
C3878 H3890 0.960 . S
C3878 H3891 0.962 . S
C3878 H3892 0.960 . S
C3879 C3876 1.511 . S
C3879 H3893 0.961 . S
C3879 H3894 0.961 . S
C3879 H3895 0.961 . S
C3880 C3881 1.370 . S
C3880 C3882 1.363 . S
C3880 H3896 0.931 . S
C3881 C3880 1.370 . S
C3881 C3885 1.408 . S
C3882 C3880 1.363 . S
C3882 C3883 1.370 . S
C3882 C3886 1.524 . S
C3883 C3875 1.503 . S
C3883 C3882 1.370 . S
C3883 C3884 1.403 . S
C3884 C3883 1.403 . S
C3884 C3885 1.404 . S
C3884 C3887 1.539 . S
C3885 C3881 1.408 . S
C3885 C3884 1.404 . S
C3885 H3897 0.930 . S
C3886 C3882 1.524 . S
C3886 H3898 0.956 . S
C3886 H3899 0.961 . S
C3886 H3900 0.961 . S
C3887 C3884 1.539 . S
C3887 H3901 0.958 . S
C3887 H3902 0.961 . S
C3887 H3903 0.960 . S
H3888 C3872 0.931 . S
H3889 C3877 0.929 . S
H3890 C3878 0.960 . S
H3891 C3878 0.962 . S
H3892 C3878 0.960 . S
H3893 C3879 0.961 . S
H3894 C3879 0.961 . S
H3895 C3879 0.961 . S
H3896 C3880 0.931 . S
H3897 C3885 0.930 . S
H3898 C3886 0.956 . S
H3899 C3886 0.961 . S
H3900 C3886 0.961 . S
H3901 C3887 0.958 . S
H3902 C3887 0.961 . S
H3903 C3887 0.960 . S
C3904 C3905 1.391 . S
C3904 C3906 1.394 . S
C3904 H3920 0.931 . S
C3905 C3904 1.391 . S
C3905 C3909 1.376 . S
C3906 C3904 1.394 . S
C3906 C3907 1.369 . S
C3906 C3910 1.531 . S
C3907 C3906 1.369 . S
C3907 C3908 1.410 . S
C3907 C3915 1.503 . S
C3908 C3907 1.410 . S
C3908 C3909 1.392 . S
C3908 C3911 1.511 . S
C3909 C3905 1.376 . S
C3909 C3908 1.392 . S
C3909 H3921 0.929 . S
C3910 C3906 1.531 . S
C3910 H3922 0.960 . S
C3910 H3923 0.962 . S
C3910 H3924 0.960 . S
C3911 C3908 1.511 . S
C3911 H3925 0.961 . S
C3911 H3926 0.961 . S
C3911 H3927 0.961 . S
C3912 C3913 1.370 . S
C3912 C3914 1.363 . S
C3912 H3928 0.931 . S
C3913 C3912 1.370 . S
C3913 C3917 1.408 . S
C3914 C3912 1.363 . S
C3914 C3915 1.370 . S
C3914 C3918 1.524 . S
C3915 C3907 1.503 . S
C3915 C3914 1.370 . S
C3915 C3916 1.403 . S
C3916 C3915 1.403 . S
C3916 C3917 1.404 . S
C3916 C3919 1.539 . S
C3917 C3913 1.408 . S
C3917 C3916 1.404 . S
C3917 H3929 0.930 . S
C3918 C3914 1.524 . S
C3918 H3930 0.956 . S
C3918 H3931 0.961 . S
C3918 H3932 0.961 . S
C3919 C3916 1.539 . S
C3919 H3933 0.958 . S
C3919 H3934 0.961 . S
C3919 H3935 0.960 . S
H3920 C3904 0.931 . S
H3921 C3909 0.929 . S
H3922 C3910 0.960 . S
H3923 C3910 0.962 . S
H3924 C3910 0.960 . S
H3925 C3911 0.961 . S
H3926 C3911 0.961 . S
H3927 C3911 0.961 . S
H3928 C3912 0.931 . S
H3929 C3917 0.930 . S
H3930 C3918 0.956 . S
H3931 C3918 0.961 . S
H3932 C3918 0.961 . S
H3933 C3919 0.958 . S
H3934 C3919 0.961 . S
H3935 C3919 0.960 . S
C3936 C3937 1.391 . S
C3936 C3938 1.394 . S
C3936 H3952 0.931 . S
C3937 C3936 1.391 . S
C3937 C3941 1.376 . S
C3938 C3936 1.394 . S
C3938 C3939 1.369 . S
C3938 C3942 1.531 . S
C3939 C3938 1.369 . S
C3939 C3940 1.410 . S
C3939 C3947 1.503 . S
C3940 C3939 1.410 . S
C3940 C3941 1.392 . S
C3940 C3943 1.511 . S
C3941 C3937 1.376 . S
C3941 C3940 1.392 . S
C3941 H3953 0.929 . S
C3942 C3938 1.531 . S
C3942 H3954 0.960 . S
C3942 H3955 0.962 . S
C3942 H3956 0.960 . S
C3943 C3940 1.511 . S
C3943 H3957 0.961 . S
C3943 H3958 0.961 . S
C3943 H3959 0.961 . S
C3944 C3945 1.370 . S
C3944 C3946 1.363 . S
C3944 H3960 0.931 . S
C3945 C3944 1.370 . S
C3945 C3949 1.408 . S
C3946 C3944 1.363 . S
C3946 C3947 1.370 . S
C3946 C3950 1.524 . S
C3947 C3939 1.503 . S
C3947 C3946 1.370 . S
C3947 C3948 1.403 . S
C3948 C3947 1.403 . S
C3948 C3949 1.404 . S
C3948 C3951 1.539 . S
C3949 C3945 1.408 . S
C3949 C3948 1.404 . S
C3949 H3961 0.930 . S
C3950 C3946 1.524 . S
C3950 H3962 0.956 . S
C3950 H3963 0.961 . S
C3950 H3964 0.961 . S
C3951 C3948 1.539 . S
C3951 H3965 0.958 . S
C3951 H3966 0.961 . S
C3951 H3967 0.960 . S
H3952 C3936 0.931 . S
H3953 C3941 0.929 . S
H3954 C3942 0.960 . S
H3955 C3942 0.962 . S
H3956 C3942 0.960 . S
H3957 C3943 0.961 . S
H3958 C3943 0.961 . S
H3959 C3943 0.961 . S
H3960 C3944 0.931 . S
H3961 C3949 0.930 . S
H3962 C3950 0.956 . S
H3963 C3950 0.961 . S
H3964 C3950 0.961 . S
H3965 C3951 0.958 . S
H3966 C3951 0.961 . S
H3967 C3951 0.960 . S
C3968 C3969 1.391 . S
C3968 C3970 1.394 . S
C3968 H3984 0.931 . S
C3969 C3968 1.391 . S
C3969 C3973 1.376 . S
C3970 C3968 1.394 . S
C3970 C3971 1.369 . S
C3970 C3974 1.531 . S
C3971 C3970 1.369 . S
C3971 C3972 1.410 . S
C3971 C3979 1.503 . S
C3972 C3971 1.410 . S
C3972 C3973 1.392 . S
C3972 C3975 1.511 . S
C3973 C3969 1.376 . S
C3973 C3972 1.392 . S
C3973 H3985 0.929 . S
C3974 C3970 1.531 . S
C3974 H3986 0.960 . S
C3974 H3987 0.962 . S
C3974 H3988 0.960 . S
C3975 C3972 1.511 . S
C3975 H3989 0.961 . S
C3975 H3990 0.961 . S
C3975 H3991 0.961 . S
C3976 C3977 1.370 . S
C3976 C3978 1.363 . S
C3976 H3992 0.931 . S
C3977 C3976 1.370 . S
C3977 C3981 1.408 . S
C3978 C3976 1.363 . S
C3978 C3979 1.370 . S
C3978 C3982 1.524 . S
C3979 C3971 1.503 . S
C3979 C3978 1.370 . S
C3979 C3980 1.403 . S
C3980 C3979 1.403 . S
C3980 C3981 1.404 . S
C3980 C3983 1.539 . S
C3981 C3977 1.408 . S
C3981 C3980 1.404 . S
C3981 H3993 0.930 . S
C3982 C3978 1.524 . S
C3982 H3994 0.956 . S
C3982 H3995 0.961 . S
C3982 H3996 0.961 . S
C3983 C3980 1.539 . S
C3983 H3997 0.958 . S
C3983 H3998 0.961 . S
C3983 H3999 0.960 . S
H3984 C3968 0.931 . S
H3985 C3973 0.929 . S
H3986 C3974 0.960 . S
H3987 C3974 0.962 . S
H3988 C3974 0.960 . S
H3989 C3975 0.961 . S
H3990 C3975 0.961 . S
H3991 C3975 0.961 . S
H3992 C3976 0.931 . S
H3993 C3981 0.930 . S
H3994 C3982 0.956 . S
H3995 C3982 0.961 . S
H3996 C3982 0.961 . S
H3997 C3983 0.958 . S
H3998 C3983 0.961 . S
H3999 C3983 0.960 . S
C4000 C4001 1.391 . S
C4000 C4002 1.394 . S
C4000 H4016 0.931 . S
C4001 C4000 1.391 . S
C4001 C4005 1.376 . S
C4002 C4000 1.394 . S
C4002 C4003 1.369 . S
C4002 C4006 1.531 . S
C4003 C4002 1.369 . S
C4003 C4004 1.410 . S
C4003 C4011 1.503 . S
C4004 C4003 1.410 . S
C4004 C4005 1.392 . S
C4004 C4007 1.511 . S
C4005 C4001 1.376 . S
C4005 C4004 1.392 . S
C4005 H4017 0.929 . S
C4006 C4002 1.531 . S
C4006 H4018 0.960 . S
C4006 H4019 0.962 . S
C4006 H4020 0.960 . S
C4007 C4004 1.511 . S
C4007 H4021 0.961 . S
C4007 H4022 0.961 . S
C4007 H4023 0.961 . S
C4008 C4009 1.370 . S
C4008 C4010 1.363 . S
C4008 H4024 0.931 . S
C4009 C4008 1.370 . S
C4009 C4013 1.408 . S
C4010 C4008 1.363 . S
C4010 C4011 1.370 . S
C4010 C4014 1.524 . S
C4011 C4003 1.503 . S
C4011 C4010 1.370 . S
C4011 C4012 1.403 . S
C4012 C4011 1.403 . S
C4012 C4013 1.404 . S
C4012 C4015 1.539 . S
C4013 C4009 1.408 . S
C4013 C4012 1.404 . S
C4013 H4025 0.930 . S
C4014 C4010 1.524 . S
C4014 H4026 0.956 . S
C4014 H4027 0.961 . S
C4014 H4028 0.961 . S
C4015 C4012 1.539 . S
C4015 H4029 0.958 . S
C4015 H4030 0.961 . S
C4015 H4031 0.960 . S
H4016 C4000 0.931 . S
H4017 C4005 0.929 . S
H4018 C4006 0.960 . S
H4019 C4006 0.962 . S
H4020 C4006 0.960 . S
H4021 C4007 0.961 . S
H4022 C4007 0.961 . S
H4023 C4007 0.961 . S
H4024 C4008 0.931 . S
H4025 C4013 0.930 . S
H4026 C4014 0.956 . S
H4027 C4014 0.961 . S
H4028 C4014 0.961 . S
H4029 C4015 0.958 . S
H4030 C4015 0.961 . S
H4031 C4015 0.960 . S
C4032 C4033 1.391 . S
C4032 C4034 1.394 . S
C4032 H4048 0.931 . S
C4033 C4032 1.391 . S
C4033 C4037 1.376 . S
C4034 C4032 1.394 . S
C4034 C4035 1.369 . S
C4034 C4038 1.531 . S
C4035 C4034 1.369 . S
C4035 C4036 1.410 . S
C4035 C4043 1.503 . S
C4036 C4035 1.410 . S
C4036 C4037 1.392 . S
C4036 C4039 1.511 . S
C4037 C4033 1.376 . S
C4037 C4036 1.392 . S
C4037 H4049 0.929 . S
C4038 C4034 1.531 . S
C4038 H4050 0.960 . S
C4038 H4051 0.962 . S
C4038 H4052 0.960 . S
C4039 C4036 1.511 . S
C4039 H4053 0.961 . S
C4039 H4054 0.961 . S
C4039 H4055 0.961 . S
C4040 C4041 1.370 . S
C4040 C4042 1.363 . S
C4040 H4056 0.931 . S
C4041 C4040 1.370 . S
C4041 C4045 1.408 . S
C4042 C4040 1.363 . S
C4042 C4043 1.370 . S
C4042 C4046 1.524 . S
C4043 C4035 1.503 . S
C4043 C4042 1.370 . S
C4043 C4044 1.403 . S
C4044 C4043 1.403 . S
C4044 C4045 1.404 . S
C4044 C4047 1.539 . S
C4045 C4041 1.408 . S
C4045 C4044 1.404 . S
C4045 H4057 0.930 . S
C4046 C4042 1.524 . S
C4046 H4058 0.956 . S
C4046 H4059 0.961 . S
C4046 H4060 0.961 . S
C4047 C4044 1.539 . S
C4047 H4061 0.958 . S
C4047 H4062 0.961 . S
C4047 H4063 0.960 . S
H4048 C4032 0.931 . S
H4049 C4037 0.929 . S
H4050 C4038 0.960 . S
H4051 C4038 0.962 . S
H4052 C4038 0.960 . S
H4053 C4039 0.961 . S
H4054 C4039 0.961 . S
H4055 C4039 0.961 . S
H4056 C4040 0.931 . S
H4057 C4045 0.930 . S
H4058 C4046 0.956 . S
H4059 C4046 0.961 . S
H4060 C4046 0.961 . S
H4061 C4047 0.958 . S
H4062 C4047 0.961 . S
H4063 C4047 0.960 . S
C4064 C4065 1.391 . S
C4064 C4066 1.394 . S
C4064 H4080 0.931 . S
C4065 C4064 1.391 . S
C4065 C4069 1.376 . S
C4066 C4064 1.394 . S
C4066 C4067 1.369 . S
C4066 C4070 1.531 . S
C4067 C4066 1.369 . S
C4067 C4068 1.410 . S
C4067 C4075 1.503 . S
C4068 C4067 1.410 . S
C4068 C4069 1.392 . S
C4068 C4071 1.511 . S
C4069 C4065 1.376 . S
C4069 C4068 1.392 . S
C4069 H4081 0.929 . S
C4070 C4066 1.531 . S
C4070 H4082 0.960 . S
C4070 H4083 0.962 . S
C4070 H4084 0.960 . S
C4071 C4068 1.511 . S
C4071 H4085 0.961 . S
C4071 H4086 0.961 . S
C4071 H4087 0.961 . S
C4072 C4073 1.370 . S
C4072 C4074 1.363 . S
C4072 H4088 0.931 . S
C4073 C4072 1.370 . S
C4073 C4077 1.408 . S
C4074 C4072 1.363 . S
C4074 C4075 1.370 . S
C4074 C4078 1.524 . S
C4075 C4067 1.503 . S
C4075 C4074 1.370 . S
C4075 C4076 1.403 . S
C4076 C4075 1.403 . S
C4076 C4077 1.404 . S
C4076 C4079 1.539 . S
C4077 C4073 1.408 . S
C4077 C4076 1.404 . S
C4077 H4089 0.930 . S
C4078 C4074 1.524 . S
C4078 H4090 0.956 . S
C4078 H4091 0.961 . S
C4078 H4092 0.961 . S
C4079 C4076 1.539 . S
C4079 H4093 0.958 . S
C4079 H4094 0.961 . S
C4079 H4095 0.960 . S
H4080 C4064 0.931 . S
H4081 C4069 0.929 . S
H4082 C4070 0.960 . S
H4083 C4070 0.962 . S
H4084 C4070 0.960 . S
H4085 C4071 0.961 . S
H4086 C4071 0.961 . S
H4087 C4071 0.961 . S
H4088 C4072 0.931 . S
H4089 C4077 0.930 . S
H4090 C4078 0.956 . S
H4091 C4078 0.961 . S
H4092 C4078 0.961 . S
H4093 C4079 0.958 . S
H4094 C4079 0.961 . S
H4095 C4079 0.960 . S
C4096 C4097 1.391 . S
C4096 C4098 1.394 . S
C4096 H4112 0.931 . S
C4097 C4096 1.391 . S
C4097 C4101 1.376 . S
C4098 C4096 1.394 . S
C4098 C4099 1.369 . S
C4098 C4102 1.531 . S
C4099 C4098 1.369 . S
C4099 C4100 1.410 . S
C4099 C4107 1.503 . S
C4100 C4099 1.410 . S
C4100 C4101 1.392 . S
C4100 C4103 1.511 . S
C4101 C4097 1.376 . S
C4101 C4100 1.392 . S
C4101 H4113 0.929 . S
C4102 C4098 1.531 . S
C4102 H4114 0.960 . S
C4102 H4115 0.962 . S
C4102 H4116 0.960 . S
C4103 C4100 1.511 . S
C4103 H4117 0.961 . S
C4103 H4118 0.961 . S
C4103 H4119 0.961 . S
C4104 C4105 1.370 . S
C4104 C4106 1.363 . S
C4104 H4120 0.931 . S
C4105 C4104 1.370 . S
C4105 C4109 1.408 . S
C4106 C4104 1.363 . S
C4106 C4107 1.370 . S
C4106 C4110 1.524 . S
C4107 C4099 1.503 . S
C4107 C4106 1.370 . S
C4107 C4108 1.403 . S
C4108 C4107 1.403 . S
C4108 C4109 1.404 . S
C4108 C4111 1.539 . S
C4109 C4105 1.408 . S
C4109 C4108 1.404 . S
C4109 H4121 0.930 . S
C4110 C4106 1.524 . S
C4110 H4122 0.956 . S
C4110 H4123 0.961 . S
C4110 H4124 0.961 . S
C4111 C4108 1.539 . S
C4111 H4125 0.958 . S
C4111 H4126 0.961 . S
C4111 H4127 0.960 . S
H4112 C4096 0.931 . S
H4113 C4101 0.929 . S
H4114 C4102 0.960 . S
H4115 C4102 0.962 . S
H4116 C4102 0.960 . S
H4117 C4103 0.961 . S
H4118 C4103 0.961 . S
H4119 C4103 0.961 . S
H4120 C4104 0.931 . S
H4121 C4109 0.930 . S
H4122 C4110 0.956 . S
H4123 C4110 0.961 . S
H4124 C4110 0.961 . S
H4125 C4111 0.958 . S
H4126 C4111 0.961 . S
H4127 C4111 0.960 . S
C4128 C4129 1.391 . S
C4128 C4130 1.394 . S
C4128 H4144 0.931 . S
C4129 C4128 1.391 . S
C4129 C4133 1.376 . S
C4130 C4128 1.394 . S
C4130 C4131 1.369 . S
C4130 C4134 1.531 . S
C4131 C4130 1.369 . S
C4131 C4132 1.410 . S
C4131 C4139 1.503 . S
C4132 C4131 1.410 . S
C4132 C4133 1.392 . S
C4132 C4135 1.511 . S
C4133 C4129 1.376 . S
C4133 C4132 1.392 . S
C4133 H4145 0.929 . S
C4134 C4130 1.531 . S
C4134 H4146 0.960 . S
C4134 H4147 0.962 . S
C4134 H4148 0.960 . S
C4135 C4132 1.511 . S
C4135 H4149 0.961 . S
C4135 H4150 0.961 . S
C4135 H4151 0.961 . S
C4136 C4137 1.370 . S
C4136 C4138 1.363 . S
C4136 H4152 0.931 . S
C4137 C4136 1.370 . S
C4137 C4141 1.408 . S
C4138 C4136 1.363 . S
C4138 C4139 1.370 . S
C4138 C4142 1.524 . S
C4139 C4131 1.503 . S
C4139 C4138 1.370 . S
C4139 C4140 1.403 . S
C4140 C4139 1.403 . S
C4140 C4141 1.404 . S
C4140 C4143 1.539 . S
C4141 C4137 1.408 . S
C4141 C4140 1.404 . S
C4141 H4153 0.930 . S
C4142 C4138 1.524 . S
C4142 H4154 0.956 . S
C4142 H4155 0.961 . S
C4142 H4156 0.961 . S
C4143 C4140 1.539 . S
C4143 H4157 0.958 . S
C4143 H4158 0.961 . S
C4143 H4159 0.960 . S
H4144 C4128 0.931 . S
H4145 C4133 0.929 . S
H4146 C4134 0.960 . S
H4147 C4134 0.962 . S
H4148 C4134 0.960 . S
H4149 C4135 0.961 . S
H4150 C4135 0.961 . S
H4151 C4135 0.961 . S
H4152 C4136 0.931 . S
H4153 C4141 0.930 . S
H4154 C4142 0.956 . S
H4155 C4142 0.961 . S
H4156 C4142 0.961 . S
H4157 C4143 0.958 . S
H4158 C4143 0.961 . S
H4159 C4143 0.960 . S
C4160 C4161 1.391 . S
C4160 C4162 1.394 . S
C4160 H4176 0.931 . S
C4161 C4160 1.391 . S
C4161 C4165 1.376 . S
C4162 C4160 1.394 . S
C4162 C4163 1.369 . S
C4162 C4166 1.531 . S
C4163 C4162 1.369 . S
C4163 C4164 1.410 . S
C4163 C4171 1.503 . S
C4164 C4163 1.410 . S
C4164 C4165 1.392 . S
C4164 C4167 1.511 . S
C4165 C4161 1.376 . S
C4165 C4164 1.392 . S
C4165 H4177 0.929 . S
C4166 C4162 1.531 . S
C4166 H4178 0.960 . S
C4166 H4179 0.962 . S
C4166 H4180 0.960 . S
C4167 C4164 1.511 . S
C4167 H4181 0.961 . S
C4167 H4182 0.961 . S
C4167 H4183 0.961 . S
C4168 C4169 1.370 . S
C4168 C4170 1.363 . S
C4168 H4184 0.931 . S
C4169 C4168 1.370 . S
C4169 C4173 1.408 . S
C4170 C4168 1.363 . S
C4170 C4171 1.370 . S
C4170 C4174 1.524 . S
C4171 C4163 1.503 . S
C4171 C4170 1.370 . S
C4171 C4172 1.403 . S
C4172 C4171 1.403 . S
C4172 C4173 1.404 . S
C4172 C4175 1.539 . S
C4173 C4169 1.408 . S
C4173 C4172 1.404 . S
C4173 H4185 0.930 . S
C4174 C4170 1.524 . S
C4174 H4186 0.956 . S
C4174 H4187 0.961 . S
C4174 H4188 0.961 . S
C4175 C4172 1.539 . S
C4175 H4189 0.958 . S
C4175 H4190 0.961 . S
C4175 H4191 0.960 . S
H4176 C4160 0.931 . S
H4177 C4165 0.929 . S
H4178 C4166 0.960 . S
H4179 C4166 0.962 . S
H4180 C4166 0.960 . S
H4181 C4167 0.961 . S
H4182 C4167 0.961 . S
H4183 C4167 0.961 . S
H4184 C4168 0.931 . S
H4185 C4173 0.930 . S
H4186 C4174 0.956 . S
H4187 C4174 0.961 . S
H4188 C4174 0.961 . S
H4189 C4175 0.958 . S
H4190 C4175 0.961 . S
H4191 C4175 0.960 . S
C4192 C4193 1.391 . S
C4192 C4194 1.394 . S
C4192 H4208 0.931 . S
C4193 C4192 1.391 . S
C4193 C4197 1.376 . S
C4194 C4192 1.394 . S
C4194 C4195 1.369 . S
C4194 C4198 1.531 . S
C4195 C4194 1.369 . S
C4195 C4196 1.410 . S
C4195 C4203 1.503 . S
C4196 C4195 1.410 . S
C4196 C4197 1.392 . S
C4196 C4199 1.511 . S
C4197 C4193 1.376 . S
C4197 C4196 1.392 . S
C4197 H4209 0.929 . S
C4198 C4194 1.531 . S
C4198 H4210 0.960 . S
C4198 H4211 0.962 . S
C4198 H4212 0.960 . S
C4199 C4196 1.511 . S
C4199 H4213 0.961 . S
C4199 H4214 0.961 . S
C4199 H4215 0.961 . S
C4200 C4201 1.370 . S
C4200 C4202 1.363 . S
C4200 H4216 0.931 . S
C4201 C4200 1.370 . S
C4201 C4205 1.408 . S
C4202 C4200 1.363 . S
C4202 C4203 1.370 . S
C4202 C4206 1.524 . S
C4203 C4195 1.503 . S
C4203 C4202 1.370 . S
C4203 C4204 1.403 . S
C4204 C4203 1.403 . S
C4204 C4205 1.404 . S
C4204 C4207 1.539 . S
C4205 C4201 1.408 . S
C4205 C4204 1.404 . S
C4205 H4217 0.930 . S
C4206 C4202 1.524 . S
C4206 H4218 0.956 . S
C4206 H4219 0.961 . S
C4206 H4220 0.961 . S
C4207 C4204 1.539 . S
C4207 H4221 0.958 . S
C4207 H4222 0.961 . S
C4207 H4223 0.960 . S
H4208 C4192 0.931 . S
H4209 C4197 0.929 . S
H4210 C4198 0.960 . S
H4211 C4198 0.962 . S
H4212 C4198 0.960 . S
H4213 C4199 0.961 . S
H4214 C4199 0.961 . S
H4215 C4199 0.961 . S
H4216 C4200 0.931 . S
H4217 C4205 0.930 . S
H4218 C4206 0.956 . S
H4219 C4206 0.961 . S
H4220 C4206 0.961 . S
H4221 C4207 0.958 . S
H4222 C4207 0.961 . S
H4223 C4207 0.960 . S
C4224 C4225 1.391 . S
C4224 C4226 1.394 . S
C4224 H4240 0.931 . S
C4225 C4224 1.391 . S
C4225 C4229 1.376 . S
C4226 C4224 1.394 . S
C4226 C4227 1.369 . S
C4226 C4230 1.531 . S
C4227 C4226 1.369 . S
C4227 C4228 1.410 . S
C4227 C4235 1.503 . S
C4228 C4227 1.410 . S
C4228 C4229 1.392 . S
C4228 C4231 1.511 . S
C4229 C4225 1.376 . S
C4229 C4228 1.392 . S
C4229 H4241 0.929 . S
C4230 C4226 1.531 . S
C4230 H4242 0.960 . S
C4230 H4243 0.962 . S
C4230 H4244 0.960 . S
C4231 C4228 1.511 . S
C4231 H4245 0.961 . S
C4231 H4246 0.961 . S
C4231 H4247 0.961 . S
C4232 C4233 1.370 . S
C4232 C4234 1.363 . S
C4232 H4248 0.931 . S
C4233 C4232 1.370 . S
C4233 C4237 1.408 . S
C4234 C4232 1.363 . S
C4234 C4235 1.370 . S
C4234 C4238 1.524 . S
C4235 C4227 1.503 . S
C4235 C4234 1.370 . S
C4235 C4236 1.403 . S
C4236 C4235 1.403 . S
C4236 C4237 1.404 . S
C4236 C4239 1.539 . S
C4237 C4233 1.408 . S
C4237 C4236 1.404 . S
C4237 H4249 0.930 . S
C4238 C4234 1.524 . S
C4238 H4250 0.956 . S
C4238 H4251 0.961 . S
C4238 H4252 0.961 . S
C4239 C4236 1.539 . S
C4239 H4253 0.958 . S
C4239 H4254 0.961 . S
C4239 H4255 0.960 . S
H4240 C4224 0.931 . S
H4241 C4229 0.929 . S
H4242 C4230 0.960 . S
H4243 C4230 0.962 . S
H4244 C4230 0.960 . S
H4245 C4231 0.961 . S
H4246 C4231 0.961 . S
H4247 C4231 0.961 . S
H4248 C4232 0.931 . S
H4249 C4237 0.930 . S
H4250 C4238 0.956 . S
H4251 C4238 0.961 . S
H4252 C4238 0.961 . S
H4253 C4239 0.958 . S
H4254 C4239 0.961 . S
H4255 C4239 0.960 . S
C4256 C4257 1.391 . S
C4256 C4258 1.394 . S
C4256 H4272 0.931 . S
C4257 C4256 1.391 . S
C4257 C4261 1.376 . S
C4258 C4256 1.394 . S
C4258 C4259 1.369 . S
C4258 C4262 1.531 . S
C4259 C4258 1.369 . S
C4259 C4260 1.410 . S
C4259 C4267 1.503 . S
C4260 C4259 1.410 . S
C4260 C4261 1.392 . S
C4260 C4263 1.511 . S
C4261 C4257 1.376 . S
C4261 C4260 1.392 . S
C4261 H4273 0.929 . S
C4262 C4258 1.531 . S
C4262 H4274 0.960 . S
C4262 H4275 0.962 . S
C4262 H4276 0.960 . S
C4263 C4260 1.511 . S
C4263 H4277 0.961 . S
C4263 H4278 0.961 . S
C4263 H4279 0.961 . S
C4264 C4265 1.370 . S
C4264 C4266 1.363 . S
C4264 H4280 0.931 . S
C4265 C4264 1.370 . S
C4265 C4269 1.408 . S
C4266 C4264 1.363 . S
C4266 C4267 1.370 . S
C4266 C4270 1.524 . S
C4267 C4259 1.503 . S
C4267 C4266 1.370 . S
C4267 C4268 1.403 . S
C4268 C4267 1.403 . S
C4268 C4269 1.404 . S
C4268 C4271 1.539 . S
C4269 C4265 1.408 . S
C4269 C4268 1.404 . S
C4269 H4281 0.930 . S
C4270 C4266 1.524 . S
C4270 H4282 0.956 . S
C4270 H4283 0.961 . S
C4270 H4284 0.961 . S
C4271 C4268 1.539 . S
C4271 H4285 0.958 . S
C4271 H4286 0.961 . S
C4271 H4287 0.960 . S
H4272 C4256 0.931 . S
H4273 C4261 0.929 . S
H4274 C4262 0.960 . S
H4275 C4262 0.962 . S
H4276 C4262 0.960 . S
H4277 C4263 0.961 . S
H4278 C4263 0.961 . S
H4279 C4263 0.961 . S
H4280 C4264 0.931 . S
H4281 C4269 0.930 . S
H4282 C4270 0.956 . S
H4283 C4270 0.961 . S
H4284 C4270 0.961 . S
H4285 C4271 0.958 . S
H4286 C4271 0.961 . S
H4287 C4271 0.960 . S
C4288 C4289 1.391 . S
C4288 C4290 1.394 . S
C4288 H4304 0.931 . S
C4289 C4288 1.391 . S
C4289 C4293 1.376 . S
C4290 C4288 1.394 . S
C4290 C4291 1.369 . S
C4290 C4294 1.531 . S
C4291 C4290 1.369 . S
C4291 C4292 1.410 . S
C4291 C4299 1.503 . S
C4292 C4291 1.410 . S
C4292 C4293 1.392 . S
C4292 C4295 1.511 . S
C4293 C4289 1.376 . S
C4293 C4292 1.392 . S
C4293 H4305 0.929 . S
C4294 C4290 1.531 . S
C4294 H4306 0.960 . S
C4294 H4307 0.962 . S
C4294 H4308 0.960 . S
C4295 C4292 1.511 . S
C4295 H4309 0.961 . S
C4295 H4310 0.961 . S
C4295 H4311 0.961 . S
C4296 C4297 1.370 . S
C4296 C4298 1.363 . S
C4296 H4312 0.931 . S
C4297 C4296 1.370 . S
C4297 C4301 1.408 . S
C4298 C4296 1.363 . S
C4298 C4299 1.370 . S
C4298 C4302 1.524 . S
C4299 C4291 1.503 . S
C4299 C4298 1.370 . S
C4299 C4300 1.403 . S
C4300 C4299 1.403 . S
C4300 C4301 1.404 . S
C4300 C4303 1.539 . S
C4301 C4297 1.408 . S
C4301 C4300 1.404 . S
C4301 H4313 0.930 . S
C4302 C4298 1.524 . S
C4302 H4314 0.956 . S
C4302 H4315 0.961 . S
C4302 H4316 0.961 . S
C4303 C4300 1.539 . S
C4303 H4317 0.958 . S
C4303 H4318 0.961 . S
C4303 H4319 0.960 . S
H4304 C4288 0.931 . S
H4305 C4293 0.929 . S
H4306 C4294 0.960 . S
H4307 C4294 0.962 . S
H4308 C4294 0.960 . S
H4309 C4295 0.961 . S
H4310 C4295 0.961 . S
H4311 C4295 0.961 . S
H4312 C4296 0.931 . S
H4313 C4301 0.930 . S
H4314 C4302 0.956 . S
H4315 C4302 0.961 . S
H4316 C4302 0.961 . S
H4317 C4303 0.958 . S
H4318 C4303 0.961 . S
H4319 C4303 0.960 . S
C2017 C56 2.466 . S
C2025 C644 2.553 . S
C2049 C140 2.141 . S
C2057 C392 2.212 . S
C2081 C231 2.404 . S
C2089 C483 2.443 . S
C2113 C308 2.020 . S
C2121 C567 2.001 . S
C2145 C63 2.545 . S
C2153 C735 2.482 . S
C2177 C812 2.030 . S
C2185 C147 1.982 . S
C2209 C896 2.289 . S
C2217 C224 2.402 . S
C2241 C315 1.746 1_554 S
C2249 C980 1.750 . S
C2273 C399 1.679 . S
C2281 C819 1.711 1_545 S
C2305 C903 2.378 . S
C2313 C476 2.343 . S
C2337 C560 2.181 . S
C2345 C987 2.229 1_565 S
C2369 C651 2.440 . S
C2377 C728 2.593 . S
C2401 C1071 2.251 . S
C2409 C1820 2.406 . S
C2433 C1148 2.023 . S
C2441 C1904 2.037 . S
C2465 C1239 2.371 . S
C2473 C1988 2.476 . S
C2497 C1995 2.308 . S
C2505 C1316 2.468 . S
C2529 C1827 2.357 . S
C2537 C1407 2.393 . S
C2561 C1484 2.146 . S
C2569 C1652 2.095 . S
C2593 C1064 2.407 . S
C2601 C1400 2.327 . S
C2625 C1575 1.699 . S
C2633 C1155 1.754 1_455 S
C2657 C1323 2.303 . S
C2665 C1232 2.410 . S
C2689 C1743 2.140 . S
C2697 C1491 2.098 . S
C2721 C1568 2.231 . S
C2729 C1911 2.117 . S
C2753 C1659 2.146 . S
C2761 C1736 2.133 . S
C2785 C403 3.470 . S
C2793 C67 3.493 . S
C2817 C494 3.625 . S
C2825 C151 3.480 . S
C2849 C242 3.673 . S
C2857 C578 3.743 . S
C2881 C319 3.517 . S
C2889 C655 3.488 . S
C2913 C998 3.656 1_545 S
C2921 C746 3.592 . S
C2945 C739 3.508 . S
C2953 C823 3.587 . S
C2977 C830 3.592 1_565 S
C2985 C907 3.456 . S
C3009 C991 3.265 . S
C3017 C914 3.414 . S
C3041 C1579 3.500 . S
C3049 C662 3.547 . S
C3073 C326 3.592 1_556 S
C3081 C1082 3.532 . S
C3105 C74 3.656 . S
C3113 C1159 3.557 . S
C3137 C158 3.731 . S
C3145 C1250 3.679 . S
C3169 C1670 3.640 . S
C3177 C487 3.520 . S
C3201 C410 3.348 . S
C3209 C1327 3.281 . S
C3233 C571 3.473 . S
C3241 C1418 3.615 . S
C3265 C1411 3.517 . S
C3273 C1495 3.497 . S
C3297 C1586 3.373 . S
C3305 C1075 3.311 . S
C3329 C1166 3.618 1_655 S
C3337 C1334 3.532 . S
C3361 C1663 3.610 . S
C3369 C1243 3.584 . S
C3393 C1754 3.676 . S
C3401 C2006 3.616 . S
C3425 C1747 3.692 . S
C3433 C1831 3.628 . S
C3457 C1915 3.533 . S
C3465 C1838 3.645 . S
C3489 C1999 3.495 . S
C3497 C1922 3.555 . S
C3521 C1502 3.731 . S
C3529 C235 3.633 . S
C3553 C58 0.477 . S
C3561 C814 0.626 . S
C3585 C142 0.524 . S
C3593 C898 0.477 . S
C3617 C237 0.525 . S
C3625 C982 0.642 . S
C3649 C741 0.514 . S
C3657 C310 0.617 . S
C3681 C394 0.986 . S
C3689 C730 1.337 . S
C3713 C825 1.390 . S
C3721 C489 1.503 . S
C3745 C909 1.311 . S
C3753 C573 1.168 . S
C3777 C646 1.363 . S
C3785 C993 1.197 . S
C3809 C657 0.370 . S
C3817 C1150 0.593 . S
C3841 C562 0.405 . S
C3849 C1077 0.354 . S
C3873 C405 0.505 . S
C3881 C1245 0.531 . S
C3905 C1570 0.970 . S
C3913 C69 1.326 . S
C3937 C1497 0.217 . S
C3945 C478 0.443 . S
C3969 C153 1.280 . S
C3977 C1318 1.141 . S
C4001 C321 1.394 . S
C4009 C1413 1.511 . S
C4033 C1822 1.127 . S
C4041 C1486 0.964 . S
C4065 C1906 0.918 . S
C4073 C1066 1.138 . S
C4097 C1990 1.631 . S
C4105 C1161 1.401 . S
C4129 C1749 1.141 . S
C4137 C1234 1.017 . S
C4161 C1738 0.421 . S
C4169 C1402 0.502 . S
C4193 C1581 0.458 . S
C4201 C1833 0.562 . S
C4225 C1917 0.303 . S
C4233 C1329 0.378 . S
C4257 C1654 0.441 . S
C4265 C2001 0.281 . S
C4289 C226 0.990 . S
C4297 C1665 1.152 . S
