# Generated by pormake.
# Topology yfo, (5)-cn, num edge types: 1
# Building blocks:
#     Node 0, Type 0, BuildingBlock: BEQFEK_clean_sbu_0, # of connection points: 5
#     Node 1, Type 0, BuildingBlock: BEQFEK_clean_sbu_0, # of connection points: 5
#     Node 2, Type 0, BuildingBlock: BEQFEK_clean_sbu_0, # of connection points: 5
#     Node 3, Type 0, BuildingBlock: BEQFEK_clean_sbu_0, # of connection points: 5
#     Node 4, Type 0, BuildingBlock: BEQFEK_clean_sbu_0, # of connection points: 5
#     Node 5, Type 0, BuildingBlock: BEQFEK_clean_sbu_0, # of connection points: 5
#     Node 6, Type 0, BuildingBlock: BEQFEK_clean_sbu_0, # of connection points: 5
#     Node 7, Type 0, BuildingBlock: BEQFEK_clean_sbu_0, # of connection points: 5
#     Node 8, Type 0, BuildingBlock: BEQFEK_clean_sbu_0, # of connection points: 5
#     Node 9, Type 0, BuildingBlock: BEQFEK_clean_sbu_0, # of connection points: 5
#     Node 10, Type 0, BuildingBlock: BEQFEK_clean_sbu_0, # of connection points: 5
#     Node 11, Type 0, BuildingBlock: BEQFEK_clean_sbu_0, # of connection points: 5
#     Node 12, Type 0, BuildingBlock: BEQFEK_clean_sbu_0, # of connection points: 5
#     Node 13, Type 0, BuildingBlock: BEQFEK_clean_sbu_0, # of connection points: 5
#     Node 14, Type 0, BuildingBlock: BEQFEK_clean_sbu_0, # of connection points: 5
#     Node 15, Type 0, BuildingBlock: BEQFEK_clean_sbu_0, # of connection points: 5
#     Node 16, Type 0, BuildingBlock: BEQFEK_clean_sbu_0, # of connection points: 5
#     Node 17, Type 0, BuildingBlock: BEQFEK_clean_sbu_0, # of connection points: 5
#     Node 18, Type 0, BuildingBlock: BEQFEK_clean_sbu_0, # of connection points: 5
#     Node 19, Type 0, BuildingBlock: BEQFEK_clean_sbu_0, # of connection points: 5
#     Node 20, Type 0, BuildingBlock: BEQFEK_clean_sbu_0, # of connection points: 5
#     Node 21, Type 0, BuildingBlock: BEQFEK_clean_sbu_0, # of connection points: 5
#     Node 22, Type 0, BuildingBlock: BEQFEK_clean_sbu_0, # of connection points: 5
#     Node 23, Type 0, BuildingBlock: BEQFEK_clean_sbu_0, # of connection points: 5
#     Node 24, Type 0, BuildingBlock: BEQFEK_clean_sbu_0, # of connection points: 5
#     Node 25, Type 0, BuildingBlock: BEQFEK_clean_sbu_0, # of connection points: 5
#     Node 26, Type 0, BuildingBlock: BEQFEK_clean_sbu_0, # of connection points: 5
#     Node 27, Type 0, BuildingBlock: BEQFEK_clean_sbu_0, # of connection points: 5
#     Node 28, Type 0, BuildingBlock: BEQFEK_clean_sbu_0, # of connection points: 5
#     Node 29, Type 0, BuildingBlock: BEQFEK_clean_sbu_0, # of connection points: 5
#     Node 30, Type 0, BuildingBlock: BEQFEK_clean_sbu_0, # of connection points: 5
#     Node 31, Type 0, BuildingBlock: BEQFEK_clean_sbu_0, # of connection points: 5
#     Edge 32, Type (0, 0), BuildingBlock: UVAHIK_clean_linker_0, # of connection points: 2
#     Edge 33, Type (0, 0), BuildingBlock: UVAHIK_clean_linker_0, # of connection points: 2
#     Edge 34, Type (0, 0), BuildingBlock: UVAHIK_clean_linker_0, # of connection points: 2
#     Edge 35, Type (0, 0), BuildingBlock: UVAHIK_clean_linker_0, # of connection points: 2
#     Edge 36, Type (0, 0), BuildingBlock: UVAHIK_clean_linker_0, # of connection points: 2
#     Edge 37, Type (0, 0), BuildingBlock: UVAHIK_clean_linker_0, # of connection points: 2
#     Edge 38, Type (0, 0), BuildingBlock: UVAHIK_clean_linker_0, # of connection points: 2
#     Edge 39, Type (0, 0), BuildingBlock: UVAHIK_clean_linker_0, # of connection points: 2
#     Edge 40, Type (0, 0), BuildingBlock: UVAHIK_clean_linker_0, # of connection points: 2
#     Edge 41, Type (0, 0), BuildingBlock: UVAHIK_clean_linker_0, # of connection points: 2
#     Edge 42, Type (0, 0), BuildingBlock: UVAHIK_clean_linker_0, # of connection points: 2
#     Edge 43, Type (0, 0), BuildingBlock: UVAHIK_clean_linker_0, # of connection points: 2
#     Edge 44, Type (0, 0), BuildingBlock: UVAHIK_clean_linker_0, # of connection points: 2
#     Edge 45, Type (0, 0), BuildingBlock: UVAHIK_clean_linker_0, # of connection points: 2
#     Edge 46, Type (0, 0), BuildingBlock: UVAHIK_clean_linker_0, # of connection points: 2
#     Edge 47, Type (0, 0), BuildingBlock: UVAHIK_clean_linker_0, # of connection points: 2
#     Edge 48, Type (0, 0), BuildingBlock: UVAHIK_clean_linker_0, # of connection points: 2
#     Edge 49, Type (0, 0), BuildingBlock: UVAHIK_clean_linker_0, # of connection points: 2
#     Edge 50, Type (0, 0), BuildingBlock: UVAHIK_clean_linker_0, # of connection points: 2
#     Edge 51, Type (0, 0), BuildingBlock: UVAHIK_clean_linker_0, # of connection points: 2
#     Edge 52, Type (0, 0), BuildingBlock: UVAHIK_clean_linker_0, # of connection points: 2
#     Edge 53, Type (0, 0), BuildingBlock: UVAHIK_clean_linker_0, # of connection points: 2
#     Edge 54, Type (0, 0), BuildingBlock: UVAHIK_clean_linker_0, # of connection points: 2
#     Edge 55, Type (0, 0), BuildingBlock: UVAHIK_clean_linker_0, # of connection points: 2
#     Edge 56, Type (0, 0), BuildingBlock: UVAHIK_clean_linker_0, # of connection points: 2
#     Edge 57, Type (0, 0), BuildingBlock: UVAHIK_clean_linker_0, # of connection points: 2
#     Edge 58, Type (0, 0), BuildingBlock: UVAHIK_clean_linker_0, # of connection points: 2
#     Edge 59, Type (0, 0), BuildingBlock: UVAHIK_clean_linker_0, # of connection points: 2
#     Edge 60, Type (0, 0), BuildingBlock: UVAHIK_clean_linker_0, # of connection points: 2
#     Edge 61, Type (0, 0), BuildingBlock: UVAHIK_clean_linker_0, # of connection points: 2
#     Edge 62, Type (0, 0), BuildingBlock: UVAHIK_clean_linker_0, # of connection points: 2
#     Edge 63, Type (0, 0), BuildingBlock: UVAHIK_clean_linker_0, # of connection points: 2
#     Edge 64, Type (0, 0), BuildingBlock: UVAHIK_clean_linker_0, # of connection points: 2
#     Edge 65, Type (0, 0), BuildingBlock: UVAHIK_clean_linker_0, # of connection points: 2
#     Edge 66, Type (0, 0), BuildingBlock: UVAHIK_clean_linker_0, # of connection points: 2
#     Edge 67, Type (0, 0), BuildingBlock: UVAHIK_clean_linker_0, # of connection points: 2
#     Edge 68, Type (0, 0), BuildingBlock: UVAHIK_clean_linker_0, # of connection points: 2
#     Edge 69, Type (0, 0), BuildingBlock: UVAHIK_clean_linker_0, # of connection points: 2
#     Edge 70, Type (0, 0), BuildingBlock: UVAHIK_clean_linker_0, # of connection points: 2
#     Edge 71, Type (0, 0), BuildingBlock: UVAHIK_clean_linker_0, # of connection points: 2
#     Edge 72, Type (0, 0), BuildingBlock: UVAHIK_clean_linker_0, # of connection points: 2
#     Edge 73, Type (0, 0), BuildingBlock: UVAHIK_clean_linker_0, # of connection points: 2
#     Edge 74, Type (0, 0), BuildingBlock: UVAHIK_clean_linker_0, # of connection points: 2
#     Edge 75, Type (0, 0), BuildingBlock: UVAHIK_clean_linker_0, # of connection points: 2
#     Edge 76, Type (0, 0), BuildingBlock: UVAHIK_clean_linker_0, # of connection points: 2
#     Edge 77, Type (0, 0), BuildingBlock: UVAHIK_clean_linker_0, # of connection points: 2
#     Edge 78, Type (0, 0), BuildingBlock: UVAHIK_clean_linker_0, # of connection points: 2
#     Edge 79, Type (0, 0), BuildingBlock: UVAHIK_clean_linker_0, # of connection points: 2
#     Edge 80, Type (0, 0), BuildingBlock: UVAHIK_clean_linker_0, # of connection points: 2
#     Edge 81, Type (0, 0), BuildingBlock: UVAHIK_clean_linker_0, # of connection points: 2
#     Edge 82, Type (0, 0), BuildingBlock: UVAHIK_clean_linker_0, # of connection points: 2
#     Edge 83, Type (0, 0), BuildingBlock: UVAHIK_clean_linker_0, # of connection points: 2
#     Edge 84, Type (0, 0), BuildingBlock: UVAHIK_clean_linker_0, # of connection points: 2
#     Edge 85, Type (0, 0), BuildingBlock: UVAHIK_clean_linker_0, # of connection points: 2
#     Edge 86, Type (0, 0), BuildingBlock: UVAHIK_clean_linker_0, # of connection points: 2
#     Edge 87, Type (0, 0), BuildingBlock: UVAHIK_clean_linker_0, # of connection points: 2
#     Edge 88, Type (0, 0), BuildingBlock: UVAHIK_clean_linker_0, # of connection points: 2
#     Edge 89, Type (0, 0), BuildingBlock: UVAHIK_clean_linker_0, # of connection points: 2
#     Edge 90, Type (0, 0), BuildingBlock: UVAHIK_clean_linker_0, # of connection points: 2
#     Edge 91, Type (0, 0), BuildingBlock: UVAHIK_clean_linker_0, # of connection points: 2
#     Edge 92, Type (0, 0), BuildingBlock: UVAHIK_clean_linker_0, # of connection points: 2
#     Edge 93, Type (0, 0), BuildingBlock: UVAHIK_clean_linker_0, # of connection points: 2
#     Edge 94, Type (0, 0), BuildingBlock: UVAHIK_clean_linker_0, # of connection points: 2
#     Edge 95, Type (0, 0), BuildingBlock: UVAHIK_clean_linker_0, # of connection points: 2
#     Edge 96, Type (0, 0), BuildingBlock: UVAHIK_clean_linker_0, # of connection points: 2
#     Edge 97, Type (0, 0), BuildingBlock: UVAHIK_clean_linker_0, # of connection points: 2
#     Edge 98, Type (0, 0), BuildingBlock: UVAHIK_clean_linker_0, # of connection points: 2
#     Edge 99, Type (0, 0), BuildingBlock: UVAHIK_clean_linker_0, # of connection points: 2
#     Edge 100, Type (0, 0), BuildingBlock: UVAHIK_clean_linker_0, # of connection points: 2
#     Edge 101, Type (0, 0), BuildingBlock: UVAHIK_clean_linker_0, # of connection points: 2
#     Edge 102, Type (0, 0), BuildingBlock: UVAHIK_clean_linker_0, # of connection points: 2
#     Edge 103, Type (0, 0), BuildingBlock: UVAHIK_clean_linker_0, # of connection points: 2
#     Edge 104, Type (0, 0), BuildingBlock: UVAHIK_clean_linker_0, # of connection points: 2
#     Edge 105, Type (0, 0), BuildingBlock: UVAHIK_clean_linker_0, # of connection points: 2
#     Edge 106, Type (0, 0), BuildingBlock: UVAHIK_clean_linker_0, # of connection points: 2
#     Edge 107, Type (0, 0), BuildingBlock: UVAHIK_clean_linker_0, # of connection points: 2
#     Edge 108, Type (0, 0), BuildingBlock: UVAHIK_clean_linker_0, # of connection points: 2
#     Edge 109, Type (0, 0), BuildingBlock: UVAHIK_clean_linker_0, # of connection points: 2
#     Edge 110, Type (0, 0), BuildingBlock: UVAHIK_clean_linker_0, # of connection points: 2
#     Edge 111, Type (0, 0), BuildingBlock: UVAHIK_clean_linker_0, # of connection points: 2
# Relax obj value: 0.612
# Max RMSD: 0.374
# Mean RMSD: 0.303
data_MOF--net-yfo--node1-BEQFEK_clean_sbu_0--edge1-UVAHIK_clean_linker_0
_symmetry_space_group_name_H-M    P1
_symmetry_Int_Tables_number       1
_symmetry_cell_setting            triclinic
loop_
_symmetry_equiv_pos_as_xyz
'x, y, z'
_cell_length_a     100.99758
_cell_length_b     85.810618
_cell_length_c     33.729458
_cell_angle_alpha  90.000198
_cell_angle_beta   90.003297
_cell_angle_gamma 89.998559
loop_
_atom_site_label
_atom_site_type_symbol
_atom_site_fract_x
_atom_site_fract_y
_atom_site_fract_z
_atom_type_partial_charge
Co0 Co 0.24115 0.15569 0.23208 0.0
Co1 Co 0.23338 0.17629 0.1591 0.0
C2 C 0.25936 0.17906 0.19069 0.0
O3 O 0.25625 0.16993 0.21914 0.0
O4 O 0.25257 0.17917 0.15891 0.0
C5 C 0.25489 0.14244 0.29871 0.0
O6 O 0.2633 0.15388 0.29269 0.0
C7 C 0.2301 0.19491 0.08506 0.0
C8 C 0.2083 0.19722 0.08363 0.0
C9 C 0.21972 0.20134 0.06356 0.0
N10 N 0.225 0.18725 0.11643 0.0
N11 N 0.21198 0.18881 0.11541 0.0
C12 C 0.24454 0.19578 0.07548 0.0
H13 H 0.249 0.2056 0.0922 0.0
H14 H 0.24958 0.18485 0.08437 0.0
H15 H 0.24613 0.19785 0.04333 0.0
C16 C 0.22699 0.13203 0.18534 0.0
N17 N 0.23268 0.14615 0.18852 0.0
N18 N 0.22934 0.15468 0.15773 0.0
C19 C 0.22186 0.146 0.1331 0.0
C20 C 0.21982 0.13144 0.1502 0.0
C21 C 0.22713 0.12009 0.21764 0.0
H22 H 0.23752 0.11764 0.22634 0.0
H23 H 0.22232 0.10908 0.20809 0.0
H24 H 0.22193 0.12479 0.24404 0.0
O25 O 0.22879 0.17004 0.25776 0.0
O26 O 0.22696 0.18694 0.20837 0.0
H27 H 0.20579 0.15777 0.10481 0.0
H28 H 0.21315 0.14279 0.07503 0.0
C29 C 0.2153 0.15219 0.09654 0.0
H30 H 0.22177 0.16085 0.08185 0.0
H31 H 0.20559 0.18419 0.13671 0.0
O32 O 0.24543 0.14046 0.27442 0.0
C33 C 0.22523 0.18327 0.24462 0.0
Co34 Co 0.06696 0.92234 0.57193 0.0
Co35 Co 0.05259 0.90257 0.50694 0.0
C36 C 0.04472 0.93556 0.52346 0.0
O37 O 0.0535 0.93668 0.55038 0.0
O38 O 0.04325 0.92301 0.50371 0.0
C39 C 0.08124 0.94845 0.6019 0.0
O40 O 0.07738 0.95495 0.56857 0.0
C41 C 0.04182 0.8936 0.42974 0.0
C42 C 0.03838 0.86838 0.4379 0.0
C43 C 0.03662 0.88045 0.41103 0.0
N44 N 0.04617 0.88941 0.46583 0.0
N45 N 0.04419 0.87431 0.47044 0.0
C46 C 0.04328 0.90978 0.4138 0.0
H47 H 0.05145 0.91595 0.42924 0.0
H48 H 0.04532 0.90954 0.38147 0.0
H49 H 0.03401 0.91638 0.41926 0.0
C50 C 0.09016 0.9146 0.52252 0.0
N51 N 0.07715 0.91365 0.53072 0.0
N52 N 0.07125 0.90524 0.50327 0.0
C53 C 0.0804 0.90047 0.47674 0.0
C54 C 0.09262 0.90642 0.48795 0.0
C55 C 0.10013 0.92266 0.54815 0.0
H56 H 0.09813 0.92007 0.57977 0.0
H57 H 0.09932 0.93543 0.5436 0.0
H58 H 0.11037 0.91897 0.54088 0.0
O59 O 0.05804 0.90606 0.60325 0.0
O60 O 0.04751 0.89232 0.5574 0.0
H61 H 0.07213 0.88012 0.44978 0.0
H62 H 0.0865 0.88779 0.42422 0.0
C63 C 0.07739 0.8909 0.44079 0.0
H64 H 0.07075 0.89758 0.4209 0.0
H65 H 0.04653 0.86813 0.49616 0.0
O66 O 0.0781 0.93439 0.60892 0.0
C67 C 0.0504 0.89491 0.59353 0.0
Co68 Co 0.25432 0.83803 0.7257 0.0
Co69 Co 0.26722 0.81805 0.65788 0.0
C70 C 0.23732 0.82035 0.67379 0.0
O71 O 0.23788 0.83152 0.69874 0.0
O72 O 0.24779 0.81509 0.65729 0.0
C73 C 0.24048 0.85529 0.78862 0.0
O74 O 0.22927 0.85075 0.77261 0.0
C75 C 0.26932 0.80458 0.57799 0.0
C76 C 0.2901 0.79659 0.57685 0.0
C77 C 0.27856 0.79692 0.55472 0.0
N78 N 0.27509 0.80861 0.61237 0.0
N79 N 0.28753 0.80381 0.61145 0.0
C80 C 0.25524 0.80806 0.5678 0.0
H81 H 0.25239 0.81962 0.57982 0.0
H82 H 0.2537 0.80786 0.53523 0.0
H83 H 0.24883 0.79913 0.58172 0.0
C84 C 0.27206 0.86184 0.69113 0.0
N85 N 0.26661 0.84752 0.69111 0.0
N86 N 0.27181 0.83929 0.66217 0.0
C87 C 0.28055 0.84819 0.64234 0.0
C88 C 0.28101 0.86278 0.66008 0.0
C89 C 0.26918 0.87409 0.72145 0.0
H90 H 0.25831 0.87546 0.72469 0.0
H91 H 0.27366 0.88545 0.71316 0.0
H92 H 0.2732 0.87032 0.75053 0.0
O93 O 0.26086 0.81829 0.74861 0.0
O94 O 0.27296 0.80558 0.70432 0.0
H95 H 0.29626 0.8335 0.62252 0.0
H96 H 0.29525 0.8516 0.59597 0.0
C97 C 0.28934 0.84223 0.60995 0.0
H98 H 0.28325 0.83646 0.58689 0.0
H99 H 0.29419 0.80514 0.63488 0.0
O100 O 0.25136 0.85157 0.77228 0.0
C101 C 0.26799 0.8067 0.73884 0.0
Co102 Co 0.43398 0.08035 0.07368 0.0
Co103 Co 0.4469 0.09855 0.00279 0.0
C104 C 0.45438 0.06566 0.01975 0.0
O105 O 0.4466 0.06543 0.04946 0.0
O106 O 0.45539 0.07772 0.99794 0.0
C107 C 0.41928 0.05504 0.10431 0.0
O108 O 0.42098 0.04975 0.0681 0.0
C109 C 0.45987 0.10838 0.92886 0.0
C110 C 0.45401 0.13316 0.92462 0.0
C111 C 0.46124 0.12165 0.90568 0.0
N112 N 0.45196 0.11179 0.95968 0.0
N113 N 0.44852 0.12662 0.95703 0.0
C114 C 0.46716 0.09328 0.92477 0.0
H115 H 0.45996 0.08377 0.9191 0.0
H116 H 0.47463 0.09354 0.90076 0.0
H117 H 0.47236 0.09073 0.95298 0.0
C118 C 0.40957 0.08827 0.0296 0.0
N119 N 0.42277 0.08901 0.03471 0.0
N120 N 0.42812 0.09623 0.00421 0.0
C121 C 0.41846 0.09996 0.97824 0.0
C122 C 0.40643 0.09501 0.99355 0.0
C123 C 0.40004 0.08167 0.05914 0.0
H124 H 0.39915 0.06893 0.05439 0.0
H125 H 0.39007 0.08694 0.0556 0.0
H126 H 0.40362 0.08384 0.08971 0.0
O127 O 0.44408 0.09658 0.10166 0.0
O128 O 0.45398 0.10861 0.05155 0.0
H129 H 0.42213 0.11967 0.94127 0.0
H130 H 0.41228 0.10475 0.91807 0.0
C131 C 0.42079 0.1069 0.93815 0.0
H132 H 0.42988 0.10191 0.92481 0.0
H133 H 0.44256 0.13235 0.97769 0.0
O134 O 0.42384 0.06838 0.11335 0.0
C135 C 0.45202 0.10687 0.08858 0.0
Co136 Co 0.23867 0.83941 0.26489 0.0
Co137 Co 0.23091 0.81964 0.33997 0.0
C138 C 0.25831 0.8195 0.31035 0.0
O139 O 0.25516 0.82844 0.28154 0.0
O140 O 0.25016 0.81659 0.33828 0.0
C141 C 0.25145 0.85329 0.19698 0.0
O142 O 0.26094 0.84321 0.20414 0.0
C143 C 0.22804 0.80075 0.41357 0.0
C144 C 0.20623 0.80046 0.41933 0.0
C145 C 0.21774 0.79506 0.43688 0.0
N146 N 0.22279 0.80941 0.38421 0.0
N147 N 0.20976 0.80902 0.3877 0.0
C148 C 0.24238 0.79636 0.41556 0.0
H149 H 0.24596 0.79344 0.38541 0.0
H150 H 0.2482 0.80644 0.4266 0.0
H151 H 0.24408 0.78615 0.43502 0.0
C152 C 0.22447 0.86363 0.30966 0.0
N153 N 0.22974 0.84927 0.30695 0.0
N154 N 0.22673 0.84128 0.33896 0.0
C155 C 0.21988 0.85058 0.36382 0.0
C156 C 0.21798 0.86497 0.34574 0.0
C157 C 0.22488 0.87542 0.27699 0.0
H158 H 0.23531 0.87748 0.26822 0.0
H159 H 0.22035 0.88663 0.28621 0.0
H160 H 0.21955 0.87076 0.25076 0.0
O161 O 0.22772 0.82297 0.24114 0.0
O162 O 0.22408 0.80792 0.29332 0.0
H163 H 0.20414 0.8405 0.39753 0.0
H164 H 0.21323 0.85519 0.42363 0.0
C165 C 0.21417 0.84536 0.40259 0.0
H166 H 0.22059 0.83641 0.41634 0.0
H167 H 0.20324 0.81437 0.3679 0.0
O168 O 0.24171 0.85415 0.22067 0.0
C169 C 0.22329 0.81045 0.25625 0.0
Co170 Co 0.42958 0.92364 0.43915 0.0
Co171 Co 0.44527 0.90216 0.49766 0.0
C172 C 0.45393 0.93481 0.48224 0.0
O173 O 0.4444 0.93666 0.45798 0.0
O174 O 0.45554 0.92199 0.50072 0.0
C175 C 0.416 0.95134 0.41597 0.0
O176 O 0.42118 0.95693 0.44875 0.0
C177 C 0.45729 0.89014 0.57084 0.0
C178 C 0.46052 0.86539 0.55535 0.0
C179 C 0.46255 0.8763 0.58492 0.0
N180 N 0.45228 0.88753 0.53456 0.0
N181 N 0.45411 0.87268 0.52566 0.0
C182 C 0.45816 0.90587 0.58977 0.0
H183 H 0.45088 0.91397 0.57625 0.0
H184 H 0.45637 0.90501 0.62214 0.0
H185 H 0.46827 0.9106 0.58527 0.0
C186 C 0.40782 0.9162 0.49416 0.0
N187 N 0.42048 0.91487 0.48235 0.0
N188 N 0.42693 0.90579 0.50718 0.0
C189 C 0.41849 0.90099 0.53569 0.0
C190 C 0.40616 0.90759 0.52852 0.0
C191 C 0.39737 0.92483 0.47161 0.0
H192 H 0.39854 0.92266 0.4394 0.0
H193 H 0.39853 0.9375 0.47704 0.0
H194 H 0.38727 0.92125 0.4808 0.0
O195 O 0.43651 0.90743 0.40351 0.0
O196 O 0.44831 0.89283 0.4446 0.0
H197 H 0.42668 0.87975 0.55812 0.0
H198 H 0.41369 0.88792 0.58883 0.0
C199 C 0.42229 0.8907 0.56965 0.0
H200 H 0.42989 0.89667 0.58781 0.0
H201 H 0.45137 0.86763 0.49874 0.0
O202 O 0.41798 0.93716 0.40697 0.0
C203 C 0.44417 0.89594 0.40985 0.0
Co204 Co 0.25804 0.15638 0.76931 0.0
Co205 Co 0.26822 0.17838 0.83802 0.0
C206 C 0.23984 0.17794 0.80958 0.0
O207 O 0.24128 0.1665 0.78573 0.0
O208 O 0.24916 0.18209 0.83279 0.0
C209 C 0.24495 0.13828 0.70738 0.0
O210 O 0.23379 0.14411 0.72082 0.0
C211 C 0.2681 0.1943 0.9159 0.0
C212 C 0.28924 0.20028 0.92301 0.0
C213 C 0.27704 0.20132 0.94145 0.0
N214 N 0.27475 0.18915 0.88386 0.0
N215 N 0.28736 0.19292 0.88822 0.0
C216 C 0.25354 0.19235 0.92213 0.0
H217 H 0.24823 0.20145 0.905 0.0
H218 H 0.25032 0.18077 0.91112 0.0
H219 H 0.2509 0.19359 0.95394 0.0
C220 C 0.27307 0.13333 0.81618 0.0
N221 N 0.26793 0.14768 0.81135 0.0
N222 N 0.27213 0.15676 0.84015 0.0
C223 C 0.27984 0.14836 0.86473 0.0
C224 C 0.28077 0.13323 0.85023 0.0
C225 C 0.27141 0.12034 0.78704 0.0
H226 H 0.26077 0.11906 0.77944 0.0
H227 H 0.27523 0.10917 0.79905 0.0
H228 H 0.27683 0.12327 0.7594 0.0
O229 O 0.26752 0.1736 0.74371 0.0
O230 O 0.27567 0.18906 0.7903 0.0
H231 H 0.29541 0.16292 0.88604 0.0
H232 H 0.29238 0.14633 0.91702 0.0
C233 C 0.28758 0.15527 0.8983 0.0
H234 H 0.28092 0.16236 0.91719 0.0
H235 H 0.2947 0.19049 0.86732 0.0
O236 O 0.25569 0.14132 0.72536 0.0
C237 C 0.2737 0.18587 0.75386 0.0
Co238 Co 0.06628 0.07785 0.93351 0.0
Co239 Co 0.05133 0.09814 0.99629 0.0
C240 C 0.0438 0.06504 0.98266 0.0
O241 O 0.05271 0.06392 0.95613 0.0
O242 O 0.04206 0.0777 0.00176 0.0
C243 C 0.08143 0.05147 0.91072 0.0
O244 O 0.07844 0.04678 0.94671 0.0
C245 C 0.03988 0.10952 0.071 0.0
C246 C 0.03658 0.13438 0.05696 0.0
C247 C 0.03464 0.12322 0.08597 0.0
N248 N 0.04478 0.11244 0.03474 0.0
N249 N 0.04294 0.12737 0.02675 0.0
C250 C 0.03902 0.09362 0.08897 0.0
H251 H 0.04704 0.08606 0.07731 0.0
H252 H 0.03965 0.09427 0.12176 0.0
H253 H 0.02934 0.08835 0.08099 0.0
C254 C 0.0892 0.08686 0.98289 0.0
N255 N 0.07622 0.08736 0.97413 0.0
N256 N 0.07002 0.09573 0.00108 0.0
C257 C 0.07892 0.10076 0.02804 0.0
C258 C 0.09132 0.09515 0.01748 0.0
C259 C 0.09951 0.07912 0.95779 0.0
H260 H 0.09706 0.08052 0.92597 0.0
H261 H 0.09981 0.06652 0.96499 0.0
H262 H 0.10946 0.08413 0.96344 0.0
O263 O 0.0575 0.09341 0.8997 0.0
O264 O 0.04641 0.10724 0.94415 0.0
H265 H 0.07082 0.12123 0.05475 0.0
H266 H 0.08433 0.11261 0.08243 0.0
C267 C 0.07548 0.11011 0.06402 0.0
H268 H 0.06818 0.10359 0.08208 0.0
H269 H 0.04555 0.13265 -1e-05 0.0
O270 O 0.0775 0.06477 0.89912 0.0
C271 C 0.04954 0.10438 0.90833 0.0
Co272 Co 0.75864 0.84467 0.76372 0.0
Co273 Co 0.76669 0.82385 0.83738 0.0
C274 C 0.73892 0.82478 0.80461 0.0
O275 O 0.74142 0.83534 0.77901 0.0
O276 O 0.74762 0.8205 0.82979 0.0
C277 C 0.74736 0.85874 0.69377 0.0
O278 O 0.73721 0.84968 0.70159 0.0
C279 C 0.76569 0.80806 0.91569 0.0
C280 C 0.78686 0.80286 0.92548 0.0
C281 C 0.77444 0.80129 0.94232 0.0
N282 N 0.77265 0.81354 0.88461 0.0
N283 N 0.78528 0.81022 0.89057 0.0
C284 C 0.75102 0.8095 0.91993 0.0
H285 H 0.74622 0.80017 0.9023 0.0
H286 H 0.74766 0.82092 0.90824 0.0
H287 H 0.74798 0.80829 0.95137 0.0
C288 C 0.77341 0.8681 0.80975 0.0
N289 N 0.76782 0.85393 0.80639 0.0
N290 N 0.77106 0.84544 0.83739 0.0
C291 C 0.77857 0.85411 0.86195 0.0
C292 C 0.78047 0.86873 0.84502 0.0
C293 C 0.7729 0.8803 0.7781 0.0
H294 H 0.76248 0.88207 0.76866 0.0
H295 H 0.77706 0.89153 0.78864 0.0
H296 H 0.77859 0.87622 0.75194 0.0
O297 O 0.76856 0.82698 0.74168 0.0
O298 O 0.77481 0.81229 0.79234 0.0
H299 H 0.79379 0.84046 0.88882 0.0
H300 H 0.78909 0.8571 0.91771 0.0
C301 C 0.7853 0.84778 0.89811 0.0
H302 H 0.77826 0.84055 0.9153 0.0
H303 H 0.79284 0.81292 0.87061 0.0
O304 O 0.75701 0.85914 0.71793 0.0
C305 C 0.77417 0.81483 0.75519 0.0
Co306 Co 0.93198 0.07773 0.43063 0.0
Co307 Co 0.94591 0.09642 0.49877 0.0
C308 C 0.95364 0.06372 0.48125 0.0
O309 O 0.94525 0.0632 0.45311 0.0
O310 O 0.95496 0.07589 0.50253 0.0
C311 C 0.91767 0.0517 0.40179 0.0
O312 O 0.92095 0.0459 0.43648 0.0
C313 C 0.95998 0.10725 0.57009 0.0
C314 C 0.95483 0.13228 0.57093 0.0
C315 C 0.96232 0.12109 0.59017 0.0
N316 N 0.95164 0.11015 0.53997 0.0
N317 N 0.94855 0.12512 0.54075 0.0
C318 C 0.96519 0.0914 0.58007 0.0
H319 H 0.97342 0.08852 0.55955 0.0
H320 H 0.95726 0.0826 0.57619 0.0
H321 H 0.96886 0.09088 0.61104 0.0
C322 C 0.90831 0.0857 0.47772 0.0
N323 N 0.92143 0.08633 0.4711 0.0
N324 N 0.9272 0.09382 0.50047 0.0
C325 C 0.91788 0.09795 0.52714 0.0
C326 C 0.90563 0.0929 0.51357 0.0
C327 C 0.89845 0.07898 0.44931 0.0
H328 H 0.90151 0.08143 0.41838 0.0
H329 H 0.89798 0.06618 0.45354 0.0
H330 H 0.88843 0.0839 0.4543 0.0
O331 O 0.94129 0.09398 0.40036 0.0
O332 O 0.95188 0.10634 0.44863 0.0
H333 H 0.92212 0.1184 0.56084 0.0
H334 H 0.91245 0.10409 0.58715 0.0
C335 C 0.92073 0.10573 0.56591 0.0
H336 H 0.92996 0.10095 0.57891 0.0
H337 H 0.94234 0.13052 0.52017 0.0
O338 O 0.92116 0.06552 0.39317 0.0
C339 C 0.94932 0.10445 0.41199 0.0
Co340 Co 0.74071 0.15582 0.25743 0.0
Co341 Co 0.73464 0.17635 0.33232 0.0
C342 C 0.76096 0.17674 0.29812 0.0
O343 O 0.75707 0.16791 0.26992 0.0
O344 O 0.75395 0.17851 0.32924 0.0
C345 C 0.75324 0.14029 0.1909 0.0
O346 O 0.76322 0.14978 0.19746 0.0
C347 C 0.73324 0.19793 0.40078 0.0
C348 C 0.71189 0.19724 0.41476 0.0
C349 C 0.72371 0.20408 0.42614 0.0
N350 N 0.72735 0.1876 0.37646 0.0
N351 N 0.71455 0.18746 0.38465 0.0
C352 C 0.74707 0.20367 0.3948 0.0
H353 H 0.74893 0.205 0.36263 0.0
H354 H 0.75416 0.195 0.40681 0.0
H355 H 0.74873 0.21511 0.40917 0.0
C356 C 0.72682 0.13239 0.30533 0.0
N357 N 0.73245 0.14651 0.30152 0.0
N358 N 0.73003 0.15481 0.33347 0.0
C359 C 0.7233 0.14587 0.35947 0.0
C360 C 0.72068 0.1315 0.34207 0.0
C361 C 0.72639 0.12049 0.27291 0.0
H362 H 0.72092 0.12533 0.24716 0.0
H363 H 0.73663 0.11787 0.26306 0.0
H364 H 0.72159 0.10954 0.28289 0.0
O365 O 0.7291 0.17159 0.23387 0.0
O366 O 0.72774 0.1877 0.28498 0.0
H367 H 0.70813 0.15535 0.39659 0.0
H368 H 0.71873 0.14166 0.42097 0.0
C369 C 0.71852 0.15129 0.39916 0.0
H370 H 0.72489 0.16079 0.41053 0.0
H371 H 0.70755 0.18102 0.36883 0.0
O372 O 0.74338 0.14051 0.21424 0.0
C373 C 0.7258 0.18466 0.24851 0.0
Co374 Co 0.56475 0.91947 0.92994 0.0
Co375 Co 0.54973 0.90267 0.99909 0.0
C376 C 0.54323 0.9353 0.97833 0.0
O377 O 0.55167 0.93495 0.95024 0.0
O378 O 0.54155 0.9236 0.001 0.0
C379 C 0.58093 0.94407 0.90305 0.0
O380 O 0.57873 0.94913 0.93922 0.0
C381 C 0.53352 0.89281 0.0669 0.0
C382 C 0.54114 0.86912 0.07881 0.0
C383 C 0.532 0.88002 0.09169 0.0
N384 N 0.54333 0.88977 0.04116 0.0
N385 N 0.54776 0.87553 0.04821 0.0
C386 C 0.5249 0.90697 0.06468 0.0
H387 H 0.53036 0.91708 0.07706 0.0
H388 H 0.51549 0.90541 0.08116 0.0
H389 H 0.52247 0.9095 0.03327 0.0
C390 C 0.58784 0.9112 0.97986 0.0
N391 N 0.57477 0.9109 0.97194 0.0
N392 N 0.56845 0.90474 0.00224 0.0
C393 C 0.57726 0.90161 0.03122 0.0
C394 C 0.58985 0.90552 0.01791 0.0
C395 C 0.59823 0.91612 0.95081 0.0
H396 H 0.59491 0.91373 0.92009 0.0
H397 H 0.60008 0.9288 0.95401 0.0
H398 H 0.60767 0.90986 0.95637 0.0
O399 O 0.55521 0.90324 0.90039 0.0
O400 O 0.54382 0.89236 0.94933 0.0
H401 H 0.57323 0.88378 0.07374 0.0
H402 H 0.58091 0.90088 0.09428 0.0
C403 C 0.57354 0.89668 0.07233 0.0
H404 H 0.56365 0.90134 0.08027 0.0
H405 H 0.55526 0.87015 0.03189 0.0
O406 O 0.57612 0.93103 0.89253 0.0
C407 C 0.54671 0.89344 0.91268 0.0
Co408 Co 0.75523 0.1581 0.73082 0.0
Co409 Co 0.76569 0.18181 0.66675 0.0
C410 C 0.73701 0.17992 0.68875 0.0
O411 O 0.73876 0.16896 0.71384 0.0
O412 O 0.74647 0.18482 0.66705 0.0
C413 C 0.741 0.1386 0.78733 0.0
O414 O 0.73024 0.14579 0.77539 0.0
C415 C 0.76864 0.19956 0.59173 0.0
C416 C 0.78854 0.20973 0.60063 0.0
C417 C 0.77793 0.20947 0.57467 0.0
N418 N 0.77364 0.1942 0.62616 0.0
N419 N 0.78555 0.20028 0.6311 0.0
C420 C 0.75474 0.19664 0.5784 0.0
H421 H 0.7481 0.20515 0.59316 0.0
H422 H 0.75159 0.18475 0.58727 0.0
H423 H 0.75367 0.19806 0.54594 0.0
C424 C 0.77126 0.1366 0.68183 0.0
N425 N 0.76572 0.15064 0.68837 0.0
N426 N 0.77015 0.16055 0.66177 0.0
C427 C 0.77854 0.15314 0.63719 0.0
C428 C 0.77955 0.13767 0.64913 0.0
C429 C 0.76934 0.12278 0.70822 0.0
H430 H 0.75862 0.12106 0.71389 0.0
H431 H 0.77354 0.11205 0.6948 0.0
H432 H 0.77423 0.12501 0.73713 0.0
O433 O 0.76482 0.17394 0.76198 0.0
O434 O 0.77194 0.19095 0.71747 0.0
H435 H 0.79315 0.17006 0.62172 0.0
H436 H 0.79321 0.15331 0.58978 0.0
C437 C 0.78678 0.16135 0.60673 0.0
H438 H 0.78019 0.16763 0.58582 0.0
H439 H 0.7915 0.19827 0.65587 0.0
O440 O 0.75194 0.14149 0.77027 0.0
C441 C 0.77064 0.18663 0.75334 0.0
Co442 Co 0.56914 0.07443 0.56869 0.0
Co443 Co 0.55401 0.09473 0.50622 0.0
C444 C 0.5468 0.06137 0.52022 0.0
O445 O 0.55576 0.06016 0.54653 0.0
O446 O 0.54497 0.07411 0.50157 0.0
C447 C 0.58362 0.04795 0.59506 0.0
O448 O 0.57953 0.04206 0.56126 0.0
C449 C 0.54285 0.10448 0.43013 0.0
C450 C 0.53895 0.12949 0.44052 0.0
C451 C 0.53741 0.11775 0.41259 0.0
N452 N 0.54715 0.10828 0.46655 0.0
N453 N 0.54487 0.12325 0.47252 0.0
C454 C 0.54459 0.08857 0.41272 0.0
H455 H 0.55287 0.0824 0.42761 0.0
H456 H 0.54663 0.08932 0.38044 0.0
H457 H 0.53544 0.08168 0.41756 0.0
C458 C 0.59187 0.08339 0.51896 0.0
N459 N 0.57891 0.08393 0.52784 0.0
N460 N 0.57272 0.09258 0.50144 0.0
C461 C 0.58165 0.09791 0.47494 0.0
C462 C 0.59402 0.09208 0.48504 0.0
C463 C 0.60208 0.07513 0.54331 0.0
H464 H 0.60023 0.07723 0.57525 0.0
H465 H 0.60139 0.06242 0.53764 0.0
H466 H 0.61224 0.0791 0.53588 0.0
O467 O 0.56014 0.09004 0.60194 0.0
O468 O 0.54902 0.10408 0.55793 0.0
H469 H 0.57275 0.1183 0.45003 0.0
H470 H 0.58729 0.11159 0.42362 0.0
C471 C 0.5783 0.10788 0.43996 0.0
H472 H 0.57183 0.10123 0.41951 0.0
H473 H 0.54714 0.12913 0.49874 0.0
O474 O 0.58061 0.06191 0.60378 0.0
C475 C 0.5522 0.10109 0.59365 0.0
Co476 Co 0.74561 0.84272 0.22107 0.0
Co477 Co 0.73522 0.81963 0.15462 0.0
C478 C 0.76158 0.82133 0.17554 0.0
O479 O 0.76233 0.8323 0.2009 0.0
O480 O 0.75413 0.82375 0.14602 0.0
C481 C 0.75962 0.85886 0.28274 0.0
O482 O 0.76936 0.84945 0.27307 0.0
C483 C 0.73169 0.80277 0.07806 0.0
C484 C 0.71438 0.78824 0.09371 0.0
C485 C 0.72354 0.79093 0.06396 0.0
N486 N 0.72753 0.80673 0.11466 0.0
N487 N 0.71708 0.79813 0.12346 0.0
C488 C 0.74404 0.80898 0.05939 0.0
H489 H 0.74655 0.82054 0.072 0.0
H490 H 0.74299 0.80998 0.02685 0.0
H491 H 0.75228 0.80084 0.06549 0.0
C492 C 0.72516 0.8625 0.18243 0.0
N493 N 0.73276 0.84958 0.1826 0.0
N494 N 0.72789 0.8396 0.15667 0.0
C495 C 0.7173 0.84591 0.13877 0.0
C496 C 0.71508 0.86056 0.15478 0.0
C497 C 0.72625 0.87518 0.21269 0.0
H498 H 0.73661 0.87948 0.21371 0.0
H499 H 0.71947 0.88501 0.20607 0.0
H500 H 0.72382 0.87036 0.24235 0.0
O501 O 0.73711 0.82627 0.25213 0.0
O502 O 0.73145 0.80893 0.20636 0.0
H503 H 0.70346 0.82798 0.12412 0.0
H504 H 0.7017 0.84551 0.09472 0.0
C505 C 0.7089 0.83753 0.10907 0.0
H506 H 0.71531 0.83227 0.08597 0.0
H507 H 0.7121 0.79861 0.15055 0.0
O508 O 0.74914 0.85887 0.26186 0.0
C509 C 0.73224 0.81315 0.24253 0.0
Co510 Co 0.93334 0.92005 0.07028 0.0
Co511 Co 0.94719 0.90205 0.00085 0.0
C512 C 0.95471 0.93463 0.01911 0.0
O513 O 0.94644 0.93473 0.04759 0.0
O514 O 0.9561 0.92267 0.99707 0.0
C515 C 0.91841 0.94567 0.0967 0.0
O516 O 0.92066 0.95028 0.06016 0.0
C517 C 0.9613 0.89112 0.92967 0.0
C518 C 0.95546 0.8663 0.92782 0.0
C519 C 0.96332 0.8773 0.90919 0.0
N520 N 0.95276 0.88838 0.95941 0.0
N521 N 0.94928 0.87353 0.95804 0.0
C522 C 0.96695 0.90683 0.92041 0.0
H523 H 0.95915 0.91584 0.92361 0.0
H524 H 0.97096 0.90731 0.88983 0.0
H525 H 0.97498 0.90947 0.94182 0.0
C526 C 0.90955 0.91223 0.02324 0.0
N527 N 0.92268 0.91153 0.02986 0.0
N528 N 0.92845 0.90448 -0.0002 0.0
C529 C 0.91915 0.90077 0.97267 0.0
C530 C 0.90692 0.90561 0.9867 0.0
C531 C 0.89962 0.91861 0.05186 0.0
H532 H 0.90291 0.91657 0.08277 0.0
H533 H 0.89854 0.93133 0.04691 0.0
H534 H 0.88978 0.9131 0.0474 0.0
O535 O 0.94287 0.90379 0.09993 0.0
O536 O 0.95342 0.89205 0.0506 0.0
H537 H 0.92326 0.88101 0.9363 0.0
H538 H 0.91379 0.89598 0.91184 0.0
C539 C 0.92202 0.89379 0.93295 0.0
H540 H 0.93132 0.8987 0.92078 0.0
H541 H 0.94286 0.86827 0.97824 0.0
O542 O 0.92272 0.93246 0.10781 0.0
C543 C 0.95101 0.8936 0.08744 0.0
Co544 Co 0.74352 0.65747 0.72997 0.0
Co545 Co 0.73586 0.67721 0.65533 0.0
C546 C 0.76148 0.68119 0.68972 0.0
O547 O 0.75844 0.67206 0.71821 0.0
O548 O 0.75497 0.68085 0.65741 0.0
C549 C 0.75632 0.64515 0.7995 0.0
O550 O 0.76455 0.65685 0.79464 0.0
C551 C 0.73359 0.69452 0.57924 0.0
C552 C 0.71189 0.69739 0.57513 0.0
C553 C 0.72363 0.70092 0.55604 0.0
N554 N 0.72798 0.68749 0.61071 0.0
N555 N 0.71501 0.68932 0.60804 0.0
C556 C 0.74815 0.69488 0.57113 0.0
H557 H 0.75288 0.684 0.58176 0.0
H558 H 0.75012 0.69635 0.53896 0.0
H559 H 0.75258 0.70489 0.58713 0.0
C560 C 0.73073 0.63287 0.68307 0.0
N561 N 0.73589 0.64728 0.68602 0.0
N562 N 0.73242 0.65547 0.65478 0.0
C563 C 0.7253 0.64633 0.63024 0.0
C564 C 0.72373 0.63176 0.64774 0.0
C565 C 0.73114 0.6211 0.71578 0.0
H566 H 0.74155 0.61934 0.72529 0.0
H567 H 0.7269 0.60977 0.70625 0.0
H568 H 0.72552 0.6256 0.74163 0.0
O569 O 0.73052 0.67162 0.75344 0.0
O570 O 0.72851 0.68806 0.70311 0.0
H571 H 0.70914 0.65796 0.60208 0.0
H572 H 0.71612 0.64251 0.57297 0.0
C573 C 0.71852 0.65213 0.59362 0.0
H574 H 0.72496 0.66055 0.5779 0.0
H575 H 0.70827 0.6852 0.62904 0.0
O576 O 0.74744 0.64271 0.77357 0.0
C577 C 0.72662 0.68458 0.73941 0.0
Co578 Co 0.56287 0.41862 0.07052 0.0
Co579 Co 0.54886 0.40111 0.00062 0.0
C580 C 0.54246 0.43419 0.01798 0.0
O581 O 0.55059 0.43415 0.04687 0.0
O582 O 0.5408 0.42214 0.99648 0.0
C583 C 0.57988 0.44226 0.10245 0.0
O584 O 0.58004 0.44757 0.06592 0.0
C585 C 0.5346 0.39106 0.92893 0.0
C586 C 0.53921 0.36589 0.9274 0.0
C587 C 0.5319 0.37737 0.90862 0.0
N588 N 0.54296 0.38781 0.95877 0.0
N589 N 0.54573 0.37275 0.95755 0.0
C590 C 0.52968 0.40709 0.91954 0.0
H591 H 0.53785 0.41562 0.92299 0.0
H592 H 0.5258 0.40782 0.88882 0.0
H593 H 0.52169 0.4102 0.94066 0.0
C594 C 0.58675 0.40891 0.02555 0.0
N595 N 0.57355 0.40932 0.03103 0.0
N596 N 0.56767 0.40258 0.00069 0.0
C597 C 0.57697 0.39811 0.97433 0.0
C598 C 0.58935 0.40199 0.98926 0.0
C599 C 0.59676 0.41411 0.05547 0.0
H600 H 0.5928 0.4127 0.08591 0.0
H601 H 0.59917 0.42655 0.05035 0.0
H602 H 0.60604 0.40727 0.05262 0.0
O603 O 0.55247 0.40291 0.09925 0.0
O604 O 0.54187 0.39134 0.04979 0.0
H605 H 0.57235 0.37861 0.93756 0.0
H606 H 0.58239 0.39319 0.91361 0.0
C607 C 0.57403 0.39133 0.93442 0.0
H608 H 0.56495 0.3967 0.92195 0.0
H609 H 0.55184 0.36709 0.97792 0.0
O610 O 0.57347 0.42991 0.11037 0.0
C611 C 0.54415 0.39297 0.08667 0.0
Co612 Co 0.76229 0.34439 0.24423 0.0
Co613 Co 0.76778 0.32441 0.16799 0.0
C614 C 0.74199 0.32309 0.20431 0.0
O615 O 0.74615 0.33174 0.23254 0.0
O616 O 0.74854 0.32186 0.17213 0.0
C617 C 0.7486 0.36301 0.30457 0.0
O618 O 0.73746 0.35804 0.28895 0.0
C619 C 0.76936 0.30369 0.09727 0.0
C620 C 0.79076 0.30494 0.08417 0.0
C621 C 0.77907 0.2981 0.0716 0.0
N622 N 0.77506 0.31366 0.12298 0.0
N623 N 0.78788 0.31415 0.1152 0.0
C624 C 0.75548 0.29788 0.10164 0.0
H625 H 0.75332 0.29613 0.13351 0.0
H626 H 0.7485 0.30673 0.08984 0.0
H627 H 0.75395 0.28666 0.08607 0.0
C628 C 0.77544 0.36839 0.19597 0.0
N629 N 0.76997 0.35417 0.19985 0.0
N630 N 0.7721 0.34607 0.16739 0.0
C631 C 0.77845 0.35523 0.14101 0.0
C632 C 0.78115 0.36955 0.15862 0.0
C633 C 0.7761 0.3801 0.22877 0.0
H634 H 0.78201 0.37524 0.25363 0.0
H635 H 0.76597 0.38239 0.24001 0.0
H636 H 0.78058 0.39122 0.21863 0.0
O637 O 0.77446 0.32888 0.26613 0.0
O638 O 0.77505 0.31287 0.21468 0.0
H639 H 0.79326 0.34612 0.10205 0.0
H640 H 0.78222 0.35971 0.0791 0.0
C641 C 0.78281 0.35003 0.1007 0.0
H642 H 0.77641 0.34049 0.08976 0.0
H643 H 0.79474 0.3205 0.13181 0.0
O644 O 0.75953 0.35911 0.28876 0.0
C645 C 0.77748 0.31581 0.25096 0.0
Co646 Co 0.92833 0.57417 0.55884 0.0
Co647 Co 0.94349 0.59607 0.50005 0.0
C648 C 0.952 0.56319 0.51202 0.0
O649 O 0.94274 0.56125 0.53713 0.0
O650 O 0.95356 0.57618 0.49427 0.0
C651 C 0.91424 0.54655 0.57901 0.0
O652 O 0.91795 0.54218 0.54336 0.0
C653 C 0.95507 0.60878 0.42696 0.0
C654 C 0.9583 0.6334 0.44368 0.0
C655 C 0.96027 0.62274 0.41349 0.0
N656 N 0.95014 0.61108 0.46348 0.0
N657 N 0.95196 0.62586 0.4731 0.0
C658 C 0.95598 0.59319 0.40731 0.0
H659 H 0.96594 0.5882 0.41288 0.0
H660 H 0.94841 0.58514 0.41956 0.0
H661 H 0.95465 0.59431 0.37479 0.0
C662 C 0.90589 0.58276 0.50735 0.0
N663 N 0.91873 0.58365 0.51762 0.0
N664 N 0.92498 0.59282 0.49254 0.0
C665 C 0.91624 0.59807 0.46537 0.0
C666 C 0.90391 0.5917 0.47373 0.0
C667 C 0.89557 0.5742 0.5306 0.0
H668 H 0.89753 0.57541 0.56278 0.0
H669 H 0.89594 0.56165 0.52273 0.0
H670 H 0.88549 0.57866 0.52404 0.0
O671 O 0.93595 0.58978 0.5949 0.0
O672 O 0.94732 0.6047 0.55348 0.0
H673 H 0.92417 0.61944 0.44307 0.0
H674 H 0.91102 0.61133 0.41291 0.0
C675 C 0.91976 0.60851 0.43147 0.0
H676 H 0.92729 0.60269 0.41273 0.0
H677 H 0.9493 0.63068 0.50037 0.0
O678 O 0.91722 0.56013 0.59106 0.0
C679 C 0.94365 0.60123 0.58848 0.0
Co680 Co 0.74578 0.34489 0.7709 0.0
Co681 Co 0.73684 0.31967 0.83294 0.0
C682 C 0.76269 0.32312 0.81322 0.0
O683 O 0.76272 0.33339 0.78599 0.0
O684 O 0.75522 0.32575 0.84237 0.0
C685 C 0.75838 0.36191 0.70973 0.0
O686 O 0.76712 0.35067 0.71335 0.0
C687 C 0.73351 0.30184 0.90861 0.0
C688 C 0.71951 0.28385 0.88767 0.0
C689 C 0.72675 0.28848 0.92051 0.0
N690 N 0.73037 0.30482 0.87049 0.0
N691 N 0.72195 0.29405 0.85842 0.0
C692 C 0.7434 0.31101 0.93195 0.0
H693 H 0.74961 0.31828 0.91225 0.0
H694 H 0.73808 0.31888 0.95262 0.0
H695 H 0.74978 0.3031 0.9496 0.0
C696 C 0.72586 0.36297 0.81813 0.0
N697 N 0.73304 0.34995 0.81183 0.0
N698 N 0.72845 0.33886 0.83515 0.0
C699 C 0.71849 0.34442 0.85733 0.0
C700 C 0.7165 0.35994 0.84742 0.0
C701 C 0.72759 0.37775 0.79524 0.0
H702 H 0.73829 0.38042 0.7922 0.0
H703 H 0.72248 0.38765 0.80992 0.0
H704 H 0.72346 0.37617 0.76502 0.0
O705 O 0.73728 0.32958 0.73612 0.0
O706 O 0.73382 0.31036 0.7789 0.0
H707 H 0.70871 0.32296 0.87152 0.0
H708 H 0.70074 0.33997 0.89187 0.0
C709 C 0.71044 0.33457 0.88496 0.0
H710 H 0.71605 0.33286 0.91292 0.0
H711 H 0.71808 0.29345 0.82976 0.0
O712 O 0.74891 0.36266 0.73448 0.0
C713 C 0.73375 0.31566 0.74354 0.0
Co714 Co 0.93448 0.41874 0.92714 0.0
Co715 Co 0.94768 0.40075 0.99789 0.0
C716 C 0.95509 0.43363 0.9797 0.0
O717 O 0.94711 0.43386 0.95047 0.0
O718 O 0.95629 0.42157 0.00148 0.0
C719 C 0.92033 0.44396 0.89213 0.0
O720 O 0.92317 0.45092 0.92577 0.0
C721 C 0.96141 0.39089 0.07065 0.0
C722 C 0.95642 0.36584 0.07322 0.0
C723 C 0.96384 0.37729 0.09169 0.0
N724 N 0.9531 0.3876 0.0407 0.0
N725 N 0.95009 0.37262 0.04257 0.0
C726 C 0.9666 0.40685 0.07936 0.0
H727 H 0.97472 0.40957 0.05831 0.0
H728 H 0.95861 0.41556 0.07528 0.0
H729 H 0.97041 0.40772 0.11014 0.0
C730 C 0.91031 0.41123 0.97254 0.0
N731 N 0.92347 0.41029 0.96683 0.0
N732 N 0.92891 0.40298 0.99704 0.0
C733 C 0.91933 0.39922 0.02324 0.0
C734 C 0.90727 0.40436 0.00851 0.0
C735 C 0.90078 0.41841 0.94387 0.0
H736 H 0.90366 0.41544 0.91307 0.0
H737 H 0.90102 0.43126 0.94729 0.0
H738 H 0.89052 0.41431 0.94931 0.0
O739 O 0.94455 0.40243 0.89936 0.0
O740 O 0.95456 0.39047 0.9493 0.0
H741 H 0.92341 0.37929 0.05904 0.0
H742 H 0.91323 0.39372 0.08311 0.0
C743 C 0.92178 0.39198 0.06292 0.0
H744 H 0.93079 0.39709 0.07649 0.0
H745 H 0.94398 0.36692 0.02224 0.0
O746 O 0.92402 0.42997 0.88676 0.0
C747 C 0.9525 0.39214 0.91232 0.0
Co748 Co 0.75334 0.66028 0.27076 0.0
Co749 Co 0.76401 0.6808 0.34165 0.0
C750 C 0.73515 0.67977 0.3183 0.0
O751 O 0.73668 0.66929 0.29176 0.0
O752 O 0.74476 0.68409 0.34029 0.0
C753 C 0.74004 0.64337 0.20645 0.0
O754 O 0.72888 0.64957 0.21879 0.0
C755 C 0.76602 0.69692 0.41947 0.0
C756 C 0.7877 0.6998 0.42469 0.0
C757 C 0.77589 0.70256 0.44415 0.0
N758 N 0.77177 0.69073 0.38705 0.0
N759 N 0.78471 0.69268 0.39026 0.0
C760 C 0.75141 0.69762 0.42637 0.0
H761 H 0.7468 0.68634 0.41816 0.0
H762 H 0.7491 0.70038 0.45778 0.0
H763 H 0.74711 0.70683 0.40719 0.0
C764 C 0.76945 0.63657 0.31137 0.0
N765 N 0.76402 0.65089 0.3098 0.0
N766 N 0.76824 0.65917 0.34009 0.0
C767 C 0.77613 0.65012 0.3627 0.0
C768 C 0.77732 0.63558 0.34493 0.0
C769 C 0.76784 0.62449 0.27978 0.0
H770 H 0.7725 0.6287 0.25199 0.0
H771 H 0.75714 0.62266 0.27384 0.0
H772 H 0.77242 0.61325 0.28859 0.0
O773 O 0.76218 0.67815 0.24603 0.0
O774 O 0.77045 0.69265 0.29436 0.0
H775 H 0.79245 0.66221 0.38864 0.0
H776 H 0.78678 0.64603 0.41758 0.0
C777 C 0.78352 0.65577 0.39842 0.0
H778 H 0.77713 0.66357 0.41624 0.0
H779 H 0.79153 0.68924 0.36871 0.0
O780 O 0.75064 0.64591 0.22562 0.0
C781 C 0.76828 0.69027 0.25764 0.0
Co782 Co 0.57091 0.57413 0.43465 0.0
Co783 Co 0.55624 0.59502 0.49683 0.0
C784 C 0.54803 0.56209 0.48313 0.0
O785 O 0.55704 0.56055 0.45704 0.0
O786 O 0.54649 0.57488 0.50183 0.0
C787 C 0.58623 0.54776 0.4087 0.0
O788 O 0.58456 0.54264 0.44506 0.0
C789 C 0.54484 0.60676 0.57141 0.0
C790 C 0.54226 0.63174 0.55734 0.0
C791 C 0.53992 0.62065 0.58627 0.0
N792 N 0.54993 0.6095 0.53527 0.0
N793 N 0.54851 0.6245 0.52728 0.0
C794 C 0.5435 0.59088 0.58927 0.0
H795 H 0.55137 0.58305 0.57781 0.0
H796 H 0.54404 0.59147 0.62208 0.0
H797 H 0.53373 0.58597 0.58094 0.0
C798 C 0.59394 0.58262 0.48419 0.0
N799 N 0.58097 0.58334 0.47537 0.0
N800 N 0.57488 0.59198 0.50198 0.0
C801 C 0.58383 0.59696 0.52882 0.0
C802 C 0.59616 0.59104 0.51852 0.0
C803 C 0.60418 0.57479 0.45903 0.0
H804 H 0.60158 0.57594 0.42725 0.0
H805 H 0.6046 0.56225 0.46682 0.0
H806 H 0.61412 0.57992 0.46406 0.0
O807 O 0.56258 0.59005 0.40108 0.0
O808 O 0.55162 0.60438 0.44473 0.0
H809 H 0.57627 0.61794 0.55439 0.0
H810 H 0.58936 0.60889 0.58301 0.0
C811 C 0.58053 0.60667 0.56429 0.0
H812 H 0.57293 0.60059 0.58227 0.0
H813 H 0.55136 0.62968 0.50062 0.0
O814 O 0.58164 0.56101 0.39903 0.0
C815 C 0.55489 0.60133 0.40914 0.0
Co816 Co 0.25535 0.34237 0.26672 0.0
Co817 Co 0.26482 0.32127 0.33807 0.0
C818 C 0.23656 0.32194 0.30976 0.0
O819 O 0.23849 0.33267 0.28415 0.0
O820 O 0.24567 0.31781 0.33376 0.0
C821 C 0.24369 0.35599 0.19704 0.0
O822 O 0.2343 0.34567 0.20307 0.0
C823 C 0.2654 0.30518 0.41582 0.0
C824 C 0.28669 0.29976 0.42143 0.0
C825 C 0.27464 0.29816 0.44049 0.0
N826 N 0.27174 0.31077 0.38372 0.0
N827 N 0.28445 0.30736 0.3872 0.0
C828 C 0.25086 0.30683 0.42288 0.0
H829 H 0.24559 0.29779 0.40548 0.0
H830 H 0.24744 0.31842 0.41257 0.0
H831 H 0.24845 0.30535 0.45474 0.0
C832 C 0.27068 0.36572 0.31148 0.0
N833 N 0.26522 0.35147 0.30824 0.0
N834 N 0.26905 0.34283 0.33835 0.0
C835 C 0.27682 0.35146 0.36225 0.0
C836 C 0.27823 0.36623 0.34581 0.0
C837 C 0.26952 0.37815 0.28059 0.0
H838 H 0.27474 0.37432 0.25332 0.0
H839 H 0.25893 0.3799 0.27299 0.0
H840 H 0.27381 0.38933 0.29098 0.0
O841 O 0.2649 0.32491 0.24218 0.0
O842 O 0.27211 0.31001 0.29127 0.0
H843 H 0.29245 0.33771 0.38651 0.0
H844 H 0.2883 0.35432 0.4163 0.0
C845 C 0.28415 0.34504 0.39722 0.0
H846 H 0.27741 0.33776 0.41534 0.0
H847 H 0.29159 0.31014 0.36599 0.0
O848 O 0.25298 0.35724 0.22224 0.0
C849 C 0.27075 0.3127 0.25437 0.0
Co850 Co 0.43469 0.58249 0.92737 0.0
Co851 Co 0.44935 0.59951 0.99698 0.0
C852 C 0.45568 0.56659 0.97708 0.0
O853 O 0.4474 0.56687 0.94858 0.0
O854 O 0.45735 0.5784 0.99944 0.0
C855 C 0.4195 0.55772 0.8952 0.0
O856 O 0.42258 0.55104 0.92902 0.0
C857 C 0.46425 0.60873 0.06812 0.0
C858 C 0.45775 0.6331 0.07676 0.0
C859 C 0.46579 0.62161 0.09258 0.0
N860 N 0.45545 0.61231 0.03967 0.0
N861 N 0.45168 0.62693 0.04484 0.0
C862 C 0.47199 0.59386 0.06893 0.0
H863 H 0.46538 0.58419 0.07818 0.0
H864 H 0.48059 0.59449 0.08924 0.0
H865 H 0.47572 0.59129 0.03872 0.0
C866 C 0.41141 0.59028 0.97663 0.0
N867 N 0.42445 0.59109 0.96875 0.0
N868 N 0.43057 0.59772 0.9988 0.0
C869 C 0.4216 0.60094 0.02731 0.0
C870 C 0.40918 0.59636 0.01411 0.0
C871 C 0.40125 0.58392 0.94868 0.0
H872 H 0.40392 0.58686 0.91769 0.0
H873 H 0.40086 0.57106 0.95172 0.0
H874 H 0.39128 0.58871 0.95533 0.0
O875 O 0.44471 0.59856 0.89857 0.0
O876 O 0.45585 0.60966 0.94768 0.0
H877 H 0.42596 0.61943 0.06757 0.0
H878 H 0.41724 0.60337 0.08979 0.0
C879 C 0.42503 0.60656 0.06805 0.0
H880 H 0.43459 0.60148 0.07772 0.0
H881 H 0.44499 0.63272 0.02641 0.0
O882 O 0.42343 0.57153 0.8885 0.0
C883 C 0.45322 0.60835 0.91092 0.0
Co884 Co 0.24238 0.65537 0.77369 0.0
Co885 Co 0.23086 0.67743 0.8407 0.0
C886 C 0.2573 0.67759 0.81905 0.0
O887 O 0.25866 0.66644 0.79442 0.0
O888 O 0.25 0.67496 0.84879 0.0
C889 C 0.25655 0.64054 0.71004 0.0
O890 O 0.26599 0.65043 0.71924 0.0
C891 C 0.2269 0.6925 0.91891 0.0
C892 C 0.20913 0.70664 0.9057 0.0
C893 C 0.21841 0.70362 0.93494 0.0
N894 N 0.22276 0.68925 0.88187 0.0
N895 N 0.21207 0.69761 0.87444 0.0
C896 C 0.23945 0.6862 0.93619 0.0
H897 H 0.24038 0.67364 0.92885 0.0
H898 H 0.23992 0.68782 0.96869 0.0
H899 H 0.24799 0.69231 0.9226 0.0
C900 C 0.22402 0.63346 0.81448 0.0
N901 N 0.23019 0.64736 0.81237 0.0
N902 N 0.2247 0.65688 0.83828 0.0
C903 C 0.21506 0.64938 0.85794 0.0
C904 C 0.21427 0.63423 0.84354 0.0
C905 C 0.22687 0.62009 0.78736 0.0
H906 H 0.23773 0.61862 0.78419 0.0
H907 H 0.22243 0.60912 0.79865 0.0
H908 H 0.22273 0.62268 0.7576 0.0
O909 O 0.23314 0.67163 0.74373 0.0
O910 O 0.2265 0.68834 0.78982 0.0
H911 H 0.20191 0.66803 0.87255 0.0
H912 H 0.19743 0.6498 0.89517 0.0
C913 C 0.20587 0.65728 0.88642 0.0
H914 H 0.21148 0.66075 0.91328 0.0
H915 H 0.20706 0.69757 0.84736 0.0
O916 O 0.2463 0.6398 0.73181 0.0
C917 C 0.22764 0.68439 0.75355 0.0
Co918 Co 0.06865 0.42495 0.43015 0.0
Co919 Co 0.05389 0.4049 0.49379 0.0
C920 C 0.04621 0.43791 0.47877 0.0
O921 O 0.05512 0.43906 0.45228 0.0
O922 O 0.04456 0.42529 0.49803 0.0
C923 C 0.08374 0.45122 0.40771 0.0
O924 O 0.08097 0.45548 0.4442 0.0
C925 C 0.04274 0.39514 0.56992 0.0
C926 C 0.03954 0.36996 0.56027 0.0
C927 C 0.0376 0.38178 0.58775 0.0
N928 N 0.04727 0.39131 0.53376 0.0
N929 N 0.0454 0.37624 0.52824 0.0
C930 C 0.04404 0.41119 0.58688 0.0
H931 H 0.05223 0.41756 0.57212 0.0
H932 H 0.04596 0.41066 0.61925 0.0
H933 H 0.03475 0.41775 0.58149 0.0
C934 C 0.09174 0.4159 0.47885 0.0
N935 N 0.07869 0.41566 0.47095 0.0
N936 N 0.07257 0.40735 0.4982 0.0
C937 C 0.0816 0.40208 0.52447 0.0
C938 C 0.09401 0.40749 0.51321 0.0
C939 C 0.10198 0.42315 0.45261 0.0
H940 H 0.09914 0.4218 0.42107 0.0
H941 H 0.10274 0.43575 0.45957 0.0
H942 H 0.11184 0.41774 0.45727 0.0
O943 O 0.05979 0.40911 0.39717 0.0
O944 O 0.04899 0.39526 0.44232 0.0
H945 H 0.07345 0.38148 0.55045 0.0
H946 H 0.08725 0.38961 0.57782 0.0
C947 C 0.07832 0.39243 0.56009 0.0
H948 H 0.07126 0.39887 0.5791 0.0
H949 H 0.04791 0.37031 0.50229 0.0
O950 O 0.07975 0.43804 0.3954 0.0
C951 C 0.05199 0.39802 0.40633 0.0
Co952 Co 0.25484 0.65341 0.2296 0.0
Co953 Co 0.2644 0.67509 0.15888 0.0
C954 C 0.23821 0.67318 0.18297 0.0
O955 O 0.23766 0.66272 0.20971 0.0
O956 O 0.24548 0.67018 0.15342 0.0
C957 C 0.24327 0.64038 0.29908 0.0
O958 O 0.2345 0.65144 0.2932 0.0
C959 C 0.26574 0.68832 0.07785 0.0
C960 C 0.28388 0.7026 0.08226 0.0
C961 C 0.27374 0.69853 0.05666 0.0
N962 N 0.27093 0.68651 0.11432 0.0
N963 N 0.28176 0.6951 0.11669 0.0
C964 C 0.25366 0.67998 0.06338 0.0
H965 H 0.24475 0.68692 0.07096 0.0
H966 H 0.25284 0.66844 0.07799 0.0
H967 H 0.25401 0.67844 0.03072 0.0
C968 C 0.2741 0.63235 0.18953 0.0
N969 N 0.26719 0.64577 0.19068 0.0
N970 N 0.27195 0.65525 0.16339 0.0
C971 C 0.28182 0.64816 0.14376 0.0
C972 C 0.28355 0.63336 0.15966 0.0
C973 C 0.27216 0.61921 0.21807 0.0
H974 H 0.26142 0.61702 0.22219 0.0
H975 H 0.27707 0.60841 0.20748 0.0
H976 H 0.27638 0.62253 0.24725 0.0
O977 O 0.26329 0.67101 0.25658 0.0
O978 O 0.2686 0.68738 0.20809 0.0
H979 H 0.29396 0.66734 0.12624 0.0
H980 H 0.29893 0.64914 0.10446 0.0
C981 C 0.29029 0.65622 0.11362 0.0
H982 H 0.2842 0.65903 0.08719 0.0
H983 H 0.28762 0.696 0.14208 0.0
O984 O 0.25227 0.63822 0.2733 0.0
C985 C 0.26794 0.684 0.24489 0.0
Co986 Co 0.06382 0.58112 0.0721 0.0
Co987 Co 0.04912 0.59803 0.00237 0.0
C988 C 0.0425 0.5653 0.02346 0.0
O989 O 0.05086 0.56559 0.05175 0.0
O990 O 0.0409 0.57704 0.00082 0.0
C991 C 0.07899 0.55625 0.10335 0.0
O992 O 0.07576 0.54976 0.06941 0.0
C993 C 0.03391 0.60714 0.93175 0.0
C994 C 0.04055 0.6314 0.92215 0.0
C995 C 0.03229 0.61996 0.90714 0.0
N996 N 0.04295 0.6107 0.95953 0.0
N997 N 0.04681 0.62525 0.95377 0.0
C998 C 0.02603 0.59237 0.93179 0.0
H999 H 0.0325 0.58256 0.9226 0.0
H1000 H 0.01733 0.59301 0.91183 0.0
H1001 H 0.02242 0.59002 0.96225 0.0
C1002 C 0.08704 0.5885 0.02212 0.0
N1003 N 0.07401 0.58939 0.03015 0.0
N1004 N 0.06787 0.59594 1e-05 0.0
C1005 C 0.0768 0.59898 0.97128 0.0
C1006 C 0.08923 0.59439 0.98444 0.0
C1007 C 0.09724 0.5824 0.05031 0.0
H1008 H 0.09452 0.58541 0.08121 0.0
H1009 H 0.09777 0.56953 0.04758 0.0
H1010 H 0.10716 0.5873 0.04361 0.0
O1011 O 0.05412 0.59749 0.10078 0.0
O1012 O 0.04299 0.60854 0.05158 0.0
H1013 H 0.07255 0.61743 0.93079 0.0
H1014 H 0.08102 0.60116 0.90867 0.0
C1015 C 0.07333 0.60454 0.93052 0.0
H1016 H 0.06368 0.5996 0.92118 0.0
H1017 H 0.05367 0.63104 0.97166 0.0
O1018 O 0.07513 0.57004 0.11063 0.0
C1019 C 0.04573 0.60739 0.0883 0.0
Co1020 Co 0.24349 0.34015 0.72828 0.0
Co1021 Co 0.232 0.31698 0.66424 0.0
C1022 C 0.2607 0.31689 0.68909 0.0
O1023 O 0.25968 0.32841 0.71284 0.0
O1024 O 0.2509 0.31233 0.66835 0.0
C1025 C 0.25763 0.35735 0.78888 0.0
O1026 O 0.26786 0.34879 0.7787 0.0
C1027 C 0.23003 0.29891 0.5895 0.0
C1028 C 0.20963 0.2898 0.5947 0.0
C1029 C 0.22085 0.28924 0.57122 0.0
N1030 N 0.22441 0.30492 0.62235 0.0
N1031 N 0.2122 0.29949 0.62503 0.0
C1032 C 0.24433 0.30085 0.57901 0.0
H1033 H 0.2502 0.29192 0.59509 0.0
H1034 H 0.24786 0.31254 0.58831 0.0
H1035 H 0.24604 0.29923 0.54681 0.0
C1036 C 0.22868 0.3625 0.67831 0.0
N1037 N 0.23373 0.34821 0.68485 0.0
N1038 N 0.229 0.33854 0.6581 0.0
C1039 C 0.22094 0.34638 0.63338 0.0
C1040 C 0.2204 0.36186 0.64546 0.0
C1041 C 0.23069 0.37607 0.70548 0.0
H1042 H 0.24139 0.37733 0.71227 0.0
H1043 H 0.22692 0.38703 0.69212 0.0
H1044 H 0.22542 0.37384 0.73379 0.0
O1045 O 0.23289 0.32485 0.75801 0.0
O1046 O 0.22405 0.30882 0.71393 0.0
H1047 H 0.20539 0.33056 0.61857 0.0
H1048 H 0.20648 0.34694 0.58545 0.0
C1049 C 0.21233 0.33855 0.6032 0.0
H1050 H 0.21858 0.33151 0.58296 0.0
H1051 H 0.20576 0.30202 0.64836 0.0
O1052 O 0.24699 0.35632 0.76895 0.0
C1053 C 0.22584 0.31303 0.7497 0.0
Co1054 Co 0.42968 0.42627 0.56609 0.0
Co1055 Co 0.44406 0.40511 0.50392 0.0
C1056 C 0.45284 0.43775 0.51758 0.0
O1057 O 0.44387 0.4394 0.54376 0.0
O1058 O 0.45416 0.42498 0.49865 0.0
C1059 C 0.4155 0.45349 0.58762 0.0
O1060 O 0.41869 0.45774 0.55143 0.0
C1061 C 0.45491 0.39293 0.42919 0.0
C1062 C 0.45746 0.36799 0.44378 0.0
C1063 C 0.45958 0.37892 0.41433 0.0
N1064 N 0.45015 0.39039 0.46581 0.0
N1065 N 0.45156 0.37542 0.47416 0.0
C1066 C 0.45615 0.4087 0.41071 0.0
H1067 H 0.4487 0.41679 0.42344 0.0
H1068 H 0.45488 0.40801 0.3781 0.0
H1069 H 0.46618 0.41337 0.4169 0.0
C1070 C 0.40656 0.41814 0.51651 0.0
N1071 N 0.41954 0.41723 0.52523 0.0
N1072 N 0.42551 0.40851 0.49857 0.0
C1073 C 0.41648 0.40362 0.47186 0.0
C1074 C 0.40422 0.4097 0.48225 0.0
C1075 C 0.39645 0.42615 0.54178 0.0
H1076 H 0.39898 0.42476 0.57356 0.0
H1077 H 0.39635 0.43875 0.53447 0.0
H1078 H 0.3864 0.42137 0.53647 0.0
O1079 O 0.43771 0.41026 0.60035 0.0
O1080 O 0.44836 0.3958 0.55621 0.0
H1081 H 0.42385 0.38251 0.44648 0.0
H1082 H 0.41077 0.3916 0.41793 0.0
C1083 C 0.41964 0.39379 0.43649 0.0
H1084 H 0.42722 0.39976 0.41824 0.0
H1085 H 0.44891 0.37038 0.50117 0.0
O1086 O 0.4189 0.44008 0.59987 0.0
C1087 C 0.44522 0.39883 0.59193 0.0
C1088 C 0.22572 0.29711 0.32694 0.0
C1089 C 0.22697 0.30948 0.29979 0.0
C1090 C 0.22759 0.28181 0.31389 0.0
C1091 C 0.2484 0.25976 0.28411 0.0
H1092 H 0.2402 0.23885 0.18541 0.0
C1093 C 0.26587 0.20619 0.1736 0.0
C1094 C 0.26553 0.19414 0.2019 0.0
C1095 C 0.2632 0.22151 0.18506 0.0
C1096 C 0.2428 0.24475 0.21271 0.0
H1097 H 0.22577 0.31526 0.23727 0.0
H1098 H 0.22884 0.28881 0.21451 0.0
H1099 H 0.22669 0.26084 0.20675 0.0
H1100 H 0.26599 0.18941 0.26518 0.0
H1101 H 0.26161 0.21597 0.28497 0.0
H1102 H 0.26449 0.2437 0.29016 0.0
C1103 C 0.22751 0.29076 0.24598 0.0
C1104 C 0.23492 0.25722 0.22515 0.0
C1105 C 0.22557 0.30603 0.25919 0.0
C1106 C 0.26582 0.19827 0.24232 0.0
C1107 C 0.2632 0.21361 0.2538 0.0
C1108 C 0.25625 0.24729 0.27173 0.0
C1109 C 0.22998 0.27882 0.27351 0.0
C1110 C 0.23753 0.26476 0.26126 0.0
C1111 C 0.26071 0.22508 0.22501 0.0
C1112 C 0.2535 0.23955 0.23601 0.0
H1113 H 0.22603 0.29937 0.35853 0.0
H1114 H 0.22872 0.27266 0.33572 0.0
H1115 H 0.25101 0.26566 0.31141 0.0
H1116 H 0.26624 0.20352 0.14225 0.0
H1117 H 0.26182 0.23021 0.16234 0.0
C1118 C 0.03728 0.96275 0.53846 0.0
C1119 C 0.03575 0.94895 0.51645 0.0
C1120 C 0.02845 0.97512 0.53377 0.0
C1121 C 0.99456 0.98395 0.50025 0.0
H1122 H 0.00707 0.02668 0.50164 0.0
C1123 C 0.96079 0.0365 0.46496 0.0
C1124 C 0.9624 0.0501 0.48779 0.0
C1125 C 0.96954 0.024 0.46903 0.0
C1126 C 0.00341 0.01482 0.50169 0.0
H1127 H 0.02384 0.93749 0.47151 0.0
H1128 H 0.00848 0.95921 0.46302 0.0
H1129 H 0.02296 0.00536 0.50555 0.0
H1130 H 0.97433 0.06099 0.53357 0.0
H1131 H 0.98953 0.03909 0.54086 0.0
H1132 H 0.975 0.99344 0.49633 0.0
C1133 C 0.01644 0.96034 0.48435 0.0
C1134 C 0.01251 0.00259 0.50385 0.0
C1135 C 0.0253 0.94793 0.48903 0.0
C1136 C 0.97281 0.05074 0.51543 0.0
C1137 C 0.98158 0.03823 0.51941 0.0
C1138 C 0.98545 0.99619 0.49804 0.0
C1139 C 0.01786 0.97403 0.50692 0.0
C1140 C 0.0082 0.98702 0.50327 0.0
C1141 C 0.98012 0.02478 0.49596 0.0
C1142 C 0.98977 0.01176 0.49884 0.0
H1143 H 0.04521 0.96397 0.55988 0.0
H1144 H 0.02975 0.98541 0.55197 0.0
H1145 H 0.99089 0.9721 0.50039 0.0
H1146 H 0.95289 0.03558 0.44338 0.0
H1147 H 0.9682 0.01388 0.45026 0.0
C1148 C 0.22229 0.80546 0.71633 0.0
C1149 C 0.22646 0.8089 0.67749 0.0
C1150 C 0.22161 0.78995 0.72881 0.0
C1151 C 0.24112 0.75627 0.70015 0.0
H1152 H 0.22593 0.7376 0.79419 0.0
C1153 C 0.25799 0.6965 0.76175 0.0
C1154 C 0.25637 0.69362 0.80252 0.0
C1155 C 0.25397 0.71072 0.74538 0.0
C1156 C 0.23046 0.74281 0.7683 0.0
H1157 H 0.22835 0.79933 0.61843 0.0
H1158 H 0.22672 0.77233 0.63975 0.0
H1159 H 0.21547 0.76043 0.76495 0.0
H1160 H 0.25115 0.70432 0.8587 0.0
H1161 H 0.24442 0.72905 0.83042 0.0
H1162 H 0.25627 0.73895 0.70383 0.0
C1163 C 0.22512 0.78143 0.66137 0.0
C1164 C 0.22432 0.75579 0.75124 0.0
C1165 C 0.22581 0.79695 0.64902 0.0
C1166 C 0.2521 0.70591 0.827 0.0
C1167 C 0.24811 0.72009 0.81069 0.0
C1168 C 0.24726 0.74333 0.71721 0.0
C1169 C 0.22446 0.77786 0.70201 0.0
C1170 C 0.22961 0.76273 0.71705 0.0
C1171 C 0.24838 0.72241 0.76948 0.0
C1172 C 0.24207 0.73647 0.75166 0.0
H1173 H 0.22216 0.81446 0.73889 0.0
H1174 H 0.2207 0.78767 0.76027 0.0
H1175 H 0.24574 0.76158 0.67452 0.0
H1176 H 0.26142 0.6874 0.742 0.0
H1177 H 0.2544 0.71208 0.7135 0.0
C1178 C 0.46199 0.03866 0.03648 0.0
C1179 C 0.46285 0.05187 0.01193 0.0
C1180 C 0.47053 0.02604 0.03103 0.0
C1181 C 0.50308 0.01595 0.989 0.0
H1182 H 0.49056 0.97352 0.0014 0.0
C1183 C 0.5359 0.962 0.95723 0.0
C1184 C 0.53472 0.94925 0.98325 0.0
C1185 C 0.52728 0.9747 0.96017 0.0
C1186 C 0.49424 0.98531 0.99829 0.0
H1187 H 0.47316 0.06191 0.96161 0.0
H1188 H 0.48799 0.03981 0.95195 0.0
H1189 H 0.47492 0.99506 0.00597 0.0
H1190 H 0.52377 0.94016 0.03353 0.0
H1191 H 0.50887 0.96234 0.03887 0.0
H1192 H 0.52242 0.00617 0.98147 0.0
C1193 C 0.48082 0.03935 0.9758 0.0
C1194 C 0.48527 0.99765 0.00083 0.0
C1195 C 0.47226 0.05199 0.98121 0.0
C1196 C 0.52493 0.9497 0.01284 0.0
C1197 C 0.51631 0.96238 0.01574 0.0
C1198 C 0.51206 0.00359 0.98644 0.0
C1199 C 0.48014 0.02629 0.0009 0.0
C1200 C 0.48959 0.01313 0.99647 0.0
C1201 C 0.51729 0.97495 0.98917 0.0
C1202 C 0.50776 0.98813 0.99132 0.0
H1203 H 0.45488 0.03813 0.06047 0.0
H1204 H 0.46982 0.01624 0.05118 0.0
H1205 H 0.50677 0.02775 0.98607 0.0
H1206 H 0.54332 0.96206 0.93406 0.0
H1207 H 0.52824 0.98414 0.93905 0.0
C1208 C 0.27043 0.79588 0.33186 0.0
C1209 C 0.26863 0.80755 0.30306 0.0
C1210 C 0.27105 0.78029 0.32015 0.0
C1211 C 0.25365 0.75526 0.28582 0.0
H1212 H 0.26822 0.73395 0.1946 0.0
C1213 C 0.24219 0.70138 0.16928 0.0
C1214 C 0.23844 0.68968 0.19628 0.0
C1215 C 0.24603 0.71606 0.18271 0.0
C1216 C 0.26385 0.7399 0.2197 0.0
H1217 H 0.27089 0.81265 0.24035 0.0
H1218 H 0.27221 0.78563 0.22016 0.0
H1219 H 0.27887 0.75756 0.21897 0.0
H1220 H 0.23376 0.68511 0.25799 0.0
H1221 H 0.2402 0.71084 0.28135 0.0
H1222 H 0.23841 0.73798 0.2861 0.0
C1223 C 0.27221 0.78826 0.25157 0.0
C1224 C 0.27012 0.75329 0.23398 0.0
C1225 C 0.27155 0.80385 0.26332 0.0
C1226 C 0.23686 0.69371 0.23643 0.0
C1227 C 0.24057 0.70853 0.24983 0.0
C1228 C 0.24734 0.74193 0.27147 0.0
C1229 C 0.2705 0.77639 0.27976 0.0
C1230 C 0.2651 0.76109 0.26725 0.0
C1231 C 0.24593 0.71956 0.22336 0.0
C1232 C 0.25233 0.73408 0.23813 0.0
H1233 H 0.26898 0.79844 0.36301 0.0
H1234 H 0.27031 0.77133 0.34248 0.0
H1235 H 0.24926 0.76131 0.31075 0.0
H1236 H 0.24306 0.69889 0.13794 0.0
H1237 H 0.24962 0.72443 0.16128 0.0
C1238 C 0.47473 0.94601 0.5118 0.0
C1239 C 0.46349 0.94775 0.48762 0.0
C1240 C 0.484 0.95808 0.51502 0.0
C1241 C 0.49574 0.99332 0.46255 0.0
H1242 H 0.51122 0.00393 0.56417 0.0
C1243 C 0.52694 0.0491 0.48784 0.0
C1244 C 0.538 0.04785 0.51293 0.0
C1245 C 0.51817 0.03658 0.48355 0.0
C1246 C 0.50711 0.00099 0.53547 0.0
H1247 H 0.45304 0.96372 0.44862 0.0
H1248 H 0.46905 0.98469 0.45467 0.0
H1249 H 0.49528 0.98267 0.55996 0.0
H1250 H 0.54878 0.03221 0.55201 0.0
H1251 H 0.53362 0.01045 0.54409 0.0
H1252 H 0.50755 0.01168 0.43809 0.0
C1253 C 0.47086 0.97392 0.47055 0.0
C1254 C 0.49798 0.9888 0.53308 0.0
C1255 C 0.46162 0.96191 0.46733 0.0
C1256 C 0.5403 0.03366 0.53269 0.0
C1257 C 0.53156 0.02119 0.52837 0.0
C1258 C 0.50488 0.00551 0.46494 0.0
C1259 C 0.48221 0.97212 0.49413 0.0
C1260 C 0.49215 0.98486 0.49662 0.0
C1261 C 0.52029 0.02256 0.50422 0.0
C1262 C 0.51066 0.0095 0.50144 0.0
H1263 H 0.47649 0.93526 0.52779 0.0
H1264 H 0.4927 0.95629 0.53323 0.0
H1265 H 0.49159 0.99041 0.43388 0.0
H1266 H 0.52487 0.05986 0.47221 0.0
H1267 H 0.50953 0.03805 0.46491 0.0
C1268 C 0.27207 0.2929 0.66882 0.0
C1269 C 0.27066 0.30474 0.69733 0.0
C1270 C 0.27064 0.27736 0.68031 0.0
C1271 C 0.2504 0.25426 0.70789 0.0
H1272 H 0.25802 0.23322 0.80681 0.0
C1273 C 0.23029 0.20374 0.82312 0.0
C1274 C 0.23111 0.19092 0.79721 0.0
C1275 C 0.2336 0.21858 0.80925 0.0
C1276 C 0.25563 0.23915 0.77939 0.0
H1277 H 0.27178 0.30959 0.76029 0.0
H1278 H 0.26966 0.28266 0.78035 0.0
H1279 H 0.27204 0.25478 0.78551 0.0
H1280 H 0.23061 0.18441 0.73507 0.0
H1281 H 0.23565 0.21027 0.71067 0.0
H1282 H 0.234 0.2386 0.70176 0.0
C1283 C 0.27082 0.28516 0.74908 0.0
C1284 C 0.26377 0.25138 0.76699 0.0
C1285 C 0.27226 0.30071 0.73747 0.0
C1286 C 0.23065 0.19393 0.75617 0.0
C1287 C 0.23379 0.20881 0.74208 0.0
C1288 C 0.24229 0.24199 0.72022 0.0
C1289 C 0.26853 0.27359 0.72035 0.0
C1290 C 0.26121 0.25916 0.7312 0.0
C1291 C 0.23661 0.22086 0.76899 0.0
C1292 C 0.24469 0.23444 0.75638 0.0
H1293 H 0.27147 0.29567 0.63752 0.0
H1294 H 0.26947 0.26863 0.65763 0.0
H1295 H 0.24788 0.26024 0.68065 0.0
H1296 H 0.22995 0.20188 0.85487 0.0
H1297 H 0.23522 0.22782 0.83053 0.0
C1298 C 0.03702 0.03757 0.96836 0.0
C1299 C 0.03497 0.0515 0.9895 0.0
C1300 C 0.02825 0.02511 0.97216 0.0
C1301 C 0.00239 0.00836 0.03626 0.0
H1302 H 0.99187 0.98698 0.9399 0.0
C1303 C 0.96107 0.96207 0.03564 0.0
C1304 C 0.96321 0.94851 0.01308 0.0
C1305 C 0.96953 0.97486 0.03219 0.0
C1306 C 0.99481 0.99271 0.96713 0.0
H1307 H 0.02222 0.06304 0.03216 0.0
H1308 H 0.00684 0.04118 0.03874 0.0
H1309 H 0.00731 0.00876 0.93625 0.0
H1310 H 0.97583 0.93795 0.96853 0.0
H1311 H 0.9907 0.96024 0.96278 0.0
H1312 H 0.98995 0.99225 0.06718 0.0
C1313 C 0.01531 0.03995 0.0193 0.0
C1314 C 0.00366 0.0052 0.96505 0.0
C1315 C 0.0241 0.05249 0.01545 0.0
C1316 C 0.97387 0.9482 0.98627 0.0
C1317 C 0.98237 0.96102 0.98289 0.0
C1318 C 0.99355 0.99584 0.03835 0.0
C1319 C 0.01719 0.02622 0.99722 0.0
C1320 C 0.00759 0.01313 0.99959 0.0
C1321 C 0.98038 0.97443 0.00615 0.0
C1322 C 0.98968 0.98784 0.00381 0.0
H1323 H 0.04534 0.03632 0.94833 0.0
H1324 H 0.03013 0.01459 0.95536 0.0
H1325 H 0.00534 0.01411 0.06344 0.0
H1326 H 0.9529 0.96279 0.05637 0.0
H1327 H 0.96755 0.98511 0.04996 0.0
C1328 C 0.76702 0.70091 0.74114 0.0
C1329 C 0.76708 0.69659 0.70083 0.0
C1330 C 0.76413 0.71625 0.752 0.0
C1331 C 0.74374 0.74714 0.70955 0.0
H1332 H 0.75217 0.76892 0.80686 0.0
C1333 C 0.72785 0.80924 0.75341 0.0
C1334 C 0.72907 0.81269 0.79408 0.0
C1335 C 0.72937 0.79387 0.74049 0.0
C1336 C 0.74951 0.76277 0.77995 0.0
H1337 H 0.76789 0.7057 0.64095 0.0
H1338 H 0.76285 0.73238 0.65997 0.0
H1339 H 0.76549 0.74662 0.7869 0.0
H1340 H 0.72737 0.80275 0.85284 0.0
H1341 H 0.7294 0.77592 0.83046 0.0
H1342 H 0.72776 0.76338 0.70266 0.0
C1343 C 0.76429 0.72381 0.68301 0.0
C1344 C 0.75726 0.7501 0.76832 0.0
C1345 C 0.7673 0.70851 0.67218 0.0
C1346 C 0.72721 0.80045 0.82126 0.0
C1347 C 0.72868 0.78506 0.80848 0.0
C1348 C 0.73596 0.75981 0.72125 0.0
C1349 C 0.76164 0.72754 0.72276 0.0
C1350 C 0.75443 0.74207 0.73311 0.0
C1351 C 0.73127 0.7819 0.76833 0.0
C1352 C 0.73866 0.76764 0.75688 0.0
H1353 H 0.76723 0.69216 0.76428 0.0
H1354 H 0.7624 0.71876 0.78304 0.0
H1355 H 0.74111 0.74102 0.68259 0.0
H1356 H 0.72852 0.81841 0.73142 0.0
H1357 H 0.73088 0.79177 0.70914 0.0
C1358 C 0.73156 0.29784 0.18668 0.0
C1359 C 0.73392 0.30933 0.21557 0.0
C1360 C 0.73339 0.28213 0.19616 0.0
C1361 C 0.74189 0.2545 0.27757 0.0
H1362 H 0.76938 0.24146 0.20426 0.0
C1363 C 0.77191 0.20162 0.31615 0.0
C1364 C 0.76949 0.19015 0.28722 0.0
C1365 C 0.77022 0.21734 0.30659 0.0
C1366 C 0.76174 0.24493 0.22498 0.0
H1367 H 0.73535 0.31319 0.27909 0.0
H1368 H 0.73828 0.28601 0.29564 0.0
H1369 H 0.75618 0.26453 0.18958 0.0
H1370 H 0.7683 0.18628 0.22367 0.0
H1371 H 0.76558 0.21347 0.207 0.0
H1372 H 0.74746 0.23491 0.31297 0.0
C1373 C 0.73596 0.28899 0.26522 0.0
C1374 C 0.75404 0.25802 0.21635 0.0
C1375 C 0.73416 0.30468 0.25563 0.0
C1376 C 0.76949 0.19479 0.24715 0.0
C1377 C 0.7678 0.21048 0.23749 0.0
C1378 C 0.7496 0.24141 0.28619 0.0
C1379 C 0.73693 0.27781 0.23495 0.0
C1380 C 0.744 0.26293 0.24249 0.0
C1381 C 0.76676 0.22167 0.26774 0.0
C1382 C 0.75966 0.23651 0.26009 0.0
H1383 H 0.73057 0.30103 0.15574 0.0
H1384 H 0.73343 0.27363 0.17247 0.0
H1385 H 0.73426 0.25798 0.29829 0.0
H1386 H 0.77271 0.19842 0.34713 0.0
H1387 H 0.77014 0.22585 0.33029 0.0
C1388 C 0.76375 0.30234 0.76043 0.0
C1389 C 0.76312 0.30652 0.80071 0.0
C1390 C 0.75951 0.28756 0.7482 0.0
C1391 C 0.75201 0.25389 0.73044 0.0
H1392 H 0.71922 0.24203 0.78258 0.0
C1393 C 0.72372 0.19478 0.73635 0.0
C1394 C 0.7264 0.19141 0.69628 0.0
C1395 C 0.72394 0.21026 0.74931 0.0
C1396 C 0.72832 0.24527 0.76773 0.0
H1397 H 0.75983 0.29758 0.86014 0.0
H1398 H 0.75217 0.27215 0.83874 0.0
H1399 H 0.73164 0.26468 0.80627 0.0
H1400 H 0.72626 0.20116 0.6371 0.0
H1401 H 0.72611 0.2281 0.65946 0.0
H1402 H 0.74886 0.2343 0.69253 0.0
C1403 C 0.75556 0.28033 0.81652 0.0
C1404 C 0.73555 0.25808 0.78154 0.0
C1405 C 0.76 0.29492 0.82875 0.0
C1406 C 0.72485 0.20347 0.66841 0.0
C1407 C 0.72504 0.21894 0.68124 0.0
C1408 C 0.74485 0.24105 0.71688 0.0
C1409 C 0.75461 0.27677 0.77604 0.0
C1410 C 0.74744 0.26258 0.76287 0.0
C1411 C 0.72613 0.22229 0.72188 0.0
C1412 C 0.73284 0.23675 0.73494 0.0
H1413 H 0.76628 0.31088 0.73803 0.0
H1414 H 0.75899 0.28514 0.71673 0.0
H1415 H 0.76121 0.25689 0.71581 0.0
H1416 H 0.72422 0.18569 0.75861 0.0
H1417 H 0.72434 0.21253 0.78088 0.0
C1418 C 0.7216 0.69508 0.27215 0.0
C1419 C 0.72479 0.69172 0.31188 0.0
C1420 C 0.72217 0.71048 0.25872 0.0
C1421 C 0.7432 0.74252 0.28908 0.0
H1422 H 0.73024 0.76261 0.19398 0.0
C1423 C 0.76263 0.80193 0.23177 0.0
C1424 C 0.76131 0.80512 0.19104 0.0
C1425 C 0.75848 0.78756 0.24709 0.0
C1426 C 0.73417 0.75697 0.22017 0.0
H1427 H 0.72576 0.70171 0.37074 0.0
H1428 H 0.72647 0.7285 0.34756 0.0
H1429 H 0.71822 0.7405 0.22131 0.0
H1430 H 0.75692 0.79475 0.13388 0.0
H1431 H 0.74953 0.77006 0.16052 0.0
H1432 H 0.75927 0.75873 0.28768 0.0
C1433 C 0.7247 0.71935 0.32623 0.0
C1434 C 0.72714 0.74443 0.23611 0.0
C1435 C 0.72406 0.70396 0.33955 0.0
C1436 C 0.75756 0.79293 0.16555 0.0
C1437 C 0.75328 0.77872 0.18085 0.0
C1438 C 0.75025 0.75504 0.27312 0.0
C1439 C 0.72519 0.72255 0.28541 0.0
C1440 C 0.73156 0.73706 0.27078 0.0
C1441 C 0.75298 0.77617 0.22194 0.0
C1442 C 0.74586 0.76241 0.23837 0.0
H1443 H 0.72138 0.6859 0.2501 0.0
H1444 H 0.72206 0.71256 0.22705 0.0
H1445 H 0.74716 0.73679 0.31514 0.0
H1446 H 0.76574 0.81094 0.25226 0.0
H1447 H 0.75857 0.78597 0.27892 0.0
C1448 C 0.53558 0.46141 0.03547 0.0
C1449 C 0.53426 0.44826 0.01088 0.0
C1450 C 0.52724 0.47427 0.03078 0.0
C1451 C 0.49455 0.48518 0.99085 0.0
H1452 H 0.50781 0.52735 0.00242 0.0
C1453 C 0.46267 0.53961 0.95742 0.0
C1454 C 0.464 0.55252 0.98284 0.0
C1455 C 0.47108 0.52676 0.96103 0.0
C1456 C 0.50392 0.51564 0.99958 0.0
H1457 H 0.52335 0.43859 0.96123 0.0
H1458 H 0.50891 0.4611 0.95279 0.0
H1459 H 0.52311 0.50544 0.00671 0.0
H1460 H 0.47505 0.56175 0.03277 0.0
H1461 H 0.48962 0.53929 0.03926 0.0
H1462 H 0.47535 0.49539 0.98375 0.0
C1463 C 0.51626 0.46133 0.97615 0.0
C1464 C 0.5127 0.50308 0.00196 0.0
C1465 C 0.52461 0.44846 0.98083 0.0
C1466 C 0.47377 0.55209 0.01254 0.0
C1467 C 0.4822 0.53924 0.0161 0.0
C1468 C 0.48577 0.49774 0.98844 0.0
C1469 C 0.51738 0.47432 0.00136 0.0
C1470 C 0.50811 0.4877 0.99772 0.0
C1471 C 0.48104 0.5265 0.99013 0.0
C1472 C 0.49034 0.51312 0.99288 0.0
H1473 H 0.54288 0.46169 0.05897 0.0
H1474 H 0.52829 0.48401 0.05096 0.0
H1475 H 0.49065 0.47347 0.9881 0.0
H1476 H 0.45527 0.53952 0.93418 0.0
H1477 H 0.47 0.5172 0.94033 0.0
C1478 C 0.97269 0.55214 0.4813 0.0
C1479 C 0.9614 0.5502 0.50518 0.0
C1480 C 0.98193 0.54007 0.47743 0.0
C1481 C 0.98607 0.49748 0.49181 0.0
H1482 H 0.02342 0.50756 0.49834 0.0
C1483 C 0.02597 0.44988 0.50967 0.0
C1484 C 0.0372 0.4513 0.48532 0.0
C1485 C 0.01693 0.46217 0.5129 0.0
C1486 C 0.01303 0.50457 0.49615 0.0
H1487 H 0.95084 0.53387 0.54293 0.0
H1488 H 0.96692 0.51304 0.53644 0.0
H1489 H 0.00705 0.52846 0.49978 0.0
H1490 H 0.04796 0.46699 0.44636 0.0
H1491 H 0.03221 0.4883 0.45193 0.0
H1492 H 0.99204 0.47359 0.48835 0.0
C1493 C 0.96861 0.52379 0.52038 0.0
C1494 C 0.00365 0.51655 0.49682 0.0
C1495 C 0.95941 0.53581 0.52428 0.0
C1496 C 0.0394 0.46546 0.46532 0.0
C1497 C 0.0304 0.47773 0.46866 0.0
C1498 C 0.99544 0.48551 0.49122 0.0
C1499 C 0.98004 0.5258 0.49724 0.0
C1500 C 0.99005 0.51314 0.49479 0.0
C1501 C 0.01897 0.47616 0.49202 0.0
C1502 C 0.00903 0.48891 0.49348 0.0
H1503 H 0.97451 0.56305 0.46611 0.0
H1504 H 0.99056 0.5419 0.45896 0.0
H1505 H 0.97568 0.49446 0.4896 0.0
H1506 H 0.024 0.43916 0.52557 0.0
H1507 H 0.00831 0.46069 0.5316 0.0
C1508 C 0.96246 0.46072 0.9628 0.0
C1509 C 0.96353 0.44748 0.98718 0.0
C1510 C 0.97087 0.47346 0.96816 0.0
C1511 C 0.00336 0.48408 0.00993 0.0
H1512 H 0.99021 0.5263 0.99859 0.0
C1513 C 0.03533 0.53846 0.0438 0.0
C1514 C 0.03407 0.5513 0.01812 0.0
C1515 C 0.02687 0.52564 0.04033 0.0
C1516 C 0.99407 0.51457 0.0014 0.0
H1517 H 0.97413 0.43749 0.03702 0.0
H1518 H 0.98872 0.45981 0.0466 0.0
H1519 H 0.97489 0.50445 0.99349 0.0
H1520 H 0.0231 0.56046 0.96795 0.0
H1521 H 0.00845 0.53807 0.96173 0.0
H1522 H 0.02255 0.49423 0.01776 0.0
C1523 C 0.98148 0.4602 0.02293 0.0
C1524 C 0.98528 0.50205 0.99854 0.0
C1525 C 0.97305 0.44744 0.01759 0.0
C1526 C 0.02432 0.55085 0.98838 0.0
C1527 C 0.01585 0.53804 0.98497 0.0
C1528 C 0.01215 0.49661 0.01282 0.0
C1529 C 0.98056 0.47331 0.99806 0.0
C1530 C 0.98983 0.48665 0.00257 0.0
C1531 C 0.01694 0.52536 0.01114 0.0
C1532 C 0.00762 0.512 0.00838 0.0
H1533 H 0.95525 0.46119 0.93904 0.0
H1534 H 0.96998 0.48329 0.94818 0.0
H1535 H 0.00722 0.47235 0.01258 0.0
H1536 H 0.04272 0.53839 0.06707 0.0
H1537 H 0.02791 0.51612 0.06118 0.0
C1538 C 0.54081 0.53467 0.47011 0.0
C1539 C 0.53879 0.54892 0.48983 0.0
C1540 C 0.53165 0.52257 0.47358 0.0
C1541 C 0.50403 0.50792 0.53481 0.0
H1542 H 0.49467 0.48541 0.43903 0.0
C1543 C 0.46031 0.46506 0.53067 0.0
C1544 C 0.46222 0.45078 0.51096 0.0
C1545 C 0.46956 0.47705 0.52724 0.0
C1546 C 0.49728 0.49146 0.46611 0.0
H1547 H 0.52569 0.56144 0.52962 0.0
H1548 H 0.50962 0.54029 0.53549 0.0
H1549 H 0.51111 0.50619 0.43605 0.0
H1550 H 0.47523 0.43811 0.47122 0.0
H1551 H 0.49148 0.45909 0.46541 0.0
H1552 H 0.4902 0.49319 0.56486 0.0
C1553 C 0.51836 0.53848 0.51751 0.0
C1554 C 0.5067 0.50337 0.46443 0.0
C1555 C 0.52756 0.55062 0.51406 0.0
C1556 C 0.47345 0.44896 0.48678 0.0
C1557 C 0.48274 0.46099 0.48337 0.0
C1558 C 0.49461 0.49601 0.53648 0.0
C1559 C 0.52022 0.5244 0.49683 0.0
C1560 C 0.51019 0.51174 0.49876 0.0
C1561 C 0.48099 0.47509 0.50404 0.0
C1562 C 0.4911 0.48766 0.50214 0.0
H1563 H 0.5494 0.53287 0.45144 0.0
H1564 H 0.53352 0.51178 0.45791 0.0
H1565 H 0.50663 0.51397 0.56188 0.0
H1566 H 0.45172 0.46696 0.54928 0.0
H1567 H 0.46777 0.48787 0.54287 0.0
C1568 C 0.20696 0.11452 0.10384 0.0
C1569 C 0.20844 0.12121 0.14149 0.0
C1570 C 0.19476 0.10828 0.09237 0.0
C1571 C 0.16171 0.09581 0.12678 0.0
H1572 H 0.14929 0.11633 0.03123 0.0
C1573 C 0.11122 0.08376 0.04981 0.0
C1574 C 0.10405 0.097 0.03821 0.0
C1575 C 0.124 0.08526 0.06505 0.0
C1576 C 0.15263 0.11054 0.05797 0.0
H1577 H 0.19885 0.12555 0.19786 0.0
H1578 H 0.17767 0.11428 0.17828 0.0
H1579 H 0.17227 0.11956 0.05202 0.0
H1580 H 0.10428 0.12214 0.03386 0.0
H1581 H 0.12681 0.12484 0.06028 0.0
H1582 H 0.14195 0.08694 0.13277 0.0
C1583 C 0.18585 0.1139 0.15752 0.0
C1584 C 0.16581 0.1122 0.06956 0.0
C1585 C 0.19797 0.1203 0.16877 0.0
C1586 C 0.10965 0.11181 0.04298 0.0
C1587 C 0.12251 0.11332 0.05772 0.0
C1588 C 0.14854 0.09396 0.11482 0.0
C1589 C 0.18397 0.10846 0.11866 0.0
C1590 C 0.17044 0.10502 0.10433 0.0
C1591 C 0.12987 0.10003 0.06829 0.0
C1592 C 0.14385 0.10154 0.08066 0.0
H1593 H 0.21498 0.11494 0.08255 0.0
H1594 H 0.19359 0.10398 0.06238 0.0
H1595 H 0.16505 0.09019 0.15375 0.0
H1596 H 0.10703 0.07222 0.04615 0.0
H1597 H 0.12949 0.07485 0.0728 0.0
C1598 C 0.1125 0.91798 0.45591 0.0
C1599 C 0.10549 0.9047 0.46809 0.0
C1600 C 0.12532 0.91658 0.44085 0.0
C1601 C 0.15421 0.89154 0.44772 0.0
H1602 H 0.16553 0.91024 0.34862 0.0
C1603 C 0.20716 0.88338 0.39311 0.0
C1604 C 0.20742 0.87615 0.35586 0.0
C1605 C 0.19566 0.89083 0.40619 0.0
C1606 C 0.16252 0.90512 0.37655 0.0
H1607 H 0.10606 0.87962 0.47396 0.0
H1608 H 0.12861 0.87709 0.44778 0.0
H1609 H 0.14284 0.9144 0.37231 0.0
H1610 H 0.19648 0.87212 0.30159 0.0
H1611 H 0.1765 0.88539 0.324 0.0
H1612 H 0.17369 0.88196 0.45172 0.0
C1613 C 0.12419 0.88856 0.44979 0.0
C1614 C 0.14959 0.90749 0.39006 0.0
C1615 C 0.11131 0.88997 0.46437 0.0
C1616 C 0.19652 0.87772 0.33038 0.0
C1617 C 0.18509 0.8853 0.34323 0.0
C1618 C 0.16715 0.88934 0.43453 0.0
C1619 C 0.13136 0.90188 0.4384 0.0
C1620 C 0.14526 0.90041 0.42529 0.0
C1621 C 0.18436 0.8913 0.3819 0.0
C1622 C 0.17136 0.89584 0.39843 0.0
H1623 H 0.10814 0.92946 0.45882 0.0
H1624 H 0.13067 0.927 0.43239 0.0
H1625 H 0.15114 0.88613 0.47524 0.0
H1626 H 0.21557 0.88252 0.4129 0.0
H1627 H 0.19538 0.89555 0.43596 0.0
C1628 C 0.38828 0.89046 0.55431 0.0
C1629 C 0.39372 0.90538 0.5505 0.0
C1630 C 0.3756 0.88858 0.57002 0.0
C1631 C 0.3494 0.90675 0.62922 0.0
H1632 H 0.32642 0.8809 0.56471 0.0
C1633 C 0.29228 0.8817 0.61576 0.0
C1634 C 0.29118 0.87473 0.65316 0.0
C1635 C 0.30385 0.88959 0.60535 0.0
C1636 C 0.33263 0.88837 0.58274 0.0
H1637 H 0.39069 0.92999 0.56131 0.0
H1638 H 0.36845 0.92671 0.58932 0.0
H1639 H 0.34915 0.88536 0.54395 0.0
H1640 H 0.30046 0.8717 0.71044 0.0
H1641 H 0.32076 0.88549 0.69235 0.0
H1642 H 0.33283 0.90943 0.66851 0.0
C1643 C 0.37396 0.91649 0.58023 0.0
C1644 C 0.3457 0.89071 0.57115 0.0
C1645 C 0.38661 0.91836 0.56419 0.0
C1646 C 0.30115 0.87707 0.68145 0.0
C1647 C 0.31274 0.88496 0.67107 0.0
C1648 C 0.33629 0.90426 0.64112 0.0
C1649 C 0.36822 0.90162 0.58229 0.0
C1650 C 0.35426 0.89972 0.59452 0.0
C1651 C 0.31446 0.89056 0.63224 0.0
C1652 C 0.32782 0.89493 0.61809 0.0
H1653 H 0.39359 0.88033 0.54359 0.0
H1654 H 0.37142 0.87697 0.5717 0.0
H1655 H 0.35584 0.91378 0.64766 0.0
H1656 H 0.28462 0.88005 0.59368 0.0
H1657 H 0.30484 0.89403 0.57543 0.0
C1658 C 0.30133 0.11841 0.83539 0.0
C1659 C 0.29093 0.12174 0.86163 0.0
C1660 C 0.31277 0.11105 0.84915 0.0
C1661 C 0.33188 0.11182 0.93859 0.0
H1662 H 0.35493 0.08219 0.88586 0.0
C1663 C 0.38803 0.11049 0.96405 0.0
C1664 C 0.39322 0.096 0.97519 0.0
C1665 C 0.3751 0.11155 0.94965 0.0
C1666 C 0.34853 0.09042 0.90092 0.0
H1667 H 0.28356 0.11865 0.9213 0.0
H1668 H 0.30369 0.10591 0.94568 0.0
H1669 H 0.33213 0.0858 0.86214 0.0
H1670 H 0.38942 0.07121 0.97877 0.0
H1671 H 0.36679 0.07302 0.95267 0.0
H1672 H 0.34835 0.11691 0.97633 0.0
C1673 C 0.30304 0.10907 0.91464 0.0
C1674 C 0.33555 0.09247 0.88741 0.0
C1675 C 0.29155 0.11628 0.90075 0.0
C1676 C 0.38552 0.08251 0.97048 0.0
C1677 C 0.37266 0.08353 0.95546 0.0
C1678 C 0.34488 0.10997 0.9516 0.0
C1679 C 0.31398 0.10706 0.88938 0.0
C1680 C 0.32715 0.10329 0.90599 0.0
C1681 C 0.36728 0.09809 0.94561 0.0
C1682 C 0.35336 0.0994 0.9326 0.0
H1683 H 0.30105 0.1226 0.8051 0.0
H1684 H 0.32108 0.1097 0.82911 0.0
H1685 H 0.32569 0.12042 0.95306 0.0
H1686 H 0.39383 0.12101 0.96758 0.0
H1687 H 0.37116 0.12289 0.94192 0.0
C1688 C 0.80185 0.88161 0.8289 0.0
C1689 C 0.79121 0.87966 0.85521 0.0
C1690 C 0.81353 0.8887 0.84169 0.0
C1691 C 0.83658 0.90769 0.8773 0.0
H1692 H 0.84897 0.88459 0.96904 0.0
C1693 C 0.88634 0.9181 0.96132 0.0
C1694 C 0.89394 0.90459 0.967 0.0
C1695 C 0.87356 0.91706 0.94572 0.0
C1696 C 0.84561 0.89115 0.94351 0.0
H1697 H 0.78378 0.8849 0.91384 0.0
H1698 H 0.8044 0.897 0.93674 0.0
H1699 H 0.8262 0.88127 0.94626 0.0
H1700 H 0.8945 0.87953 0.96045 0.0
H1701 H 0.87193 0.87762 0.93387 0.0
H1702 H 0.85614 0.91746 0.87459 0.0
C1703 C 0.80371 0.89301 0.90633 0.0
C1704 C 0.83257 0.88941 0.93077 0.0
C1705 C 0.79196 0.88613 0.89331 0.0
C1706 C 0.88877 0.89007 0.95612 0.0
C1707 C 0.8759 0.88899 0.9412 0.0
C1708 C 0.8496 0.90967 0.89056 0.0
C1709 C 0.81476 0.89377 0.88109 0.0
C1710 C 0.82799 0.89746 0.8972 0.0
C1711 C 0.86816 0.90246 0.93632 0.0
C1712 C 0.85426 0.90116 0.92328 0.0
H1713 H 0.8015 0.87662 0.79941 0.0
H1714 H 0.82193 0.88906 0.82174 0.0
H1715 H 0.83327 0.91396 0.85125 0.0
H1716 H 0.89023 0.92942 0.96948 0.0
H1717 H 0.86774 0.92758 0.94229 0.0
C1718 C 0.79129 0.12253 0.59684 0.0
C1719 C 0.78994 0.12663 0.63686 0.0
C1720 C 0.80281 0.1152 0.58362 0.0
C1721 C 0.8338 0.0956 0.6142 0.0
H1722 H 0.84932 0.11999 0.5292 0.0
C1723 C 0.88418 0.08205 0.53755 0.0
C1724 C 0.89256 0.09493 0.53221 0.0
C1725 C 0.87131 0.08413 0.55178 0.0
C1726 C 0.84511 0.11308 0.55294 0.0
H1727 H 0.79885 0.12519 0.69512 0.0
H1728 H 0.81895 0.11215 0.67218 0.0
H1729 H 0.82663 0.12512 0.54989 0.0
H1730 H 0.8944 0.11993 0.53827 0.0
H1731 H 0.87181 0.12365 0.56299 0.0
H1732 H 0.85249 0.08374 0.61747 0.0
C1733 C 0.81117 0.1146 0.65097 0.0
C1734 C 0.83207 0.11586 0.56443 0.0
C1735 C 0.79968 0.12204 0.66411 0.0
C1736 C 0.88808 0.10986 0.54234 0.0
C1737 C 0.87517 0.11197 0.55612 0.0
C1738 C 0.84684 0.09267 0.60231 0.0
C1739 C 0.81308 0.11175 0.61035 0.0
C1740 C 0.82634 0.10731 0.59551 0.0
C1741 C 0.86662 0.09915 0.56039 0.0
C1742 C 0.85266 0.1016 0.57206 0.0
H1743 H 0.78381 0.1259 0.57546 0.0
H1744 H 0.80398 0.11293 0.55222 0.0
H1745 H 0.8296 0.08885 0.63826 0.0
H1746 H 0.88751 0.07042 0.53003 0.0
H1747 H 0.86489 0.07408 0.55473 0.0
C1748 C 0.61374 0.0811 0.45099 0.0
C1749 C 0.60674 0.09418 0.46453 0.0
C1750 C 0.6265 0.08277 0.43567 0.0
C1751 C 0.65533 0.10793 0.44369 0.0
H1752 H 0.66675 0.08925 0.34468 0.0
C1753 C 0.69857 0.12028 0.32725 0.0
C1754 C 0.70952 0.12124 0.35278 0.0
C1755 C 0.68681 0.11345 0.34007 0.0
C1756 C 0.6637 0.09439 0.37256 0.0
H1757 H 0.60723 0.11918 0.47243 0.0
H1758 H 0.62966 0.12217 0.44566 0.0
H1759 H 0.64397 0.08534 0.36776 0.0
H1760 H 0.71724 0.11467 0.41023 0.0
H1761 H 0.69644 0.10303 0.43329 0.0
H1762 H 0.67491 0.11725 0.44826 0.0
C1763 C 0.6253 0.11065 0.44687 0.0
C1764 C 0.65072 0.09215 0.38573 0.0
C1765 C 0.61247 0.10899 0.46177 0.0
C1766 C 0.70883 0.11431 0.39036 0.0
C1767 C 0.69698 0.10763 0.40343 0.0
C1768 C 0.66833 0.11001 0.4308 0.0
C1769 C 0.63249 0.09752 0.43424 0.0
C1770 C 0.64637 0.09917 0.42102 0.0
C1771 C 0.68575 0.10763 0.37882 0.0
C1772 C 0.67257 0.10348 0.39479 0.0
H1773 H 0.60944 0.06957 0.45315 0.0
H1774 H 0.63186 0.07247 0.42629 0.0
H1775 H 0.65226 0.11328 0.47129 0.0
H1776 H 0.69882 0.12572 0.29828 0.0
H1777 H 0.67828 0.11374 0.32062 0.0
C1778 C 0.69069 0.86214 0.16125 0.0
C1779 C 0.70267 0.86946 0.15172 0.0
C1780 C 0.6787 0.86965 0.1544 0.0
C1781 C 0.66427 0.89894 0.08882 0.0
H1782 H 0.63305 0.89088 0.15262 0.0
C1783 C 0.61166 0.91673 0.03867 0.0
C1784 C 0.60251 0.90441 0.03975 0.0
C1785 C 0.62388 0.91537 0.05776 0.0
C1786 C 0.64169 0.89327 0.13461 0.0
H1787 H 0.71175 0.89055 0.12961 0.0
H1788 H 0.69061 0.90397 0.11777 0.0
H1789 H 0.65488 0.88402 0.17828 0.0
H1790 H 0.59879 0.88117 0.06214 0.0
H1791 H 0.62004 0.87887 0.09613 0.0
H1792 H 0.651 0.90786 0.0448 0.0
C1793 C 0.6905 0.89231 0.13008 0.0
C1794 C 0.65418 0.88934 0.14923 0.0
C1795 C 0.70256 0.88473 0.13701 0.0
C1796 C 0.60561 0.8909 0.06123 0.0
C1797 C 0.61776 0.8896 0.08068 0.0
C1798 C 0.65177 0.90299 0.07434 0.0
C1799 C 0.67843 0.88471 0.13798 0.0
C1800 C 0.66557 0.89162 0.12591 0.0
C1801 C 0.62707 0.90175 0.07873 0.0
C1802 C 0.64035 0.89971 0.09657 0.0
H1803 H 0.6906 0.85036 0.17287 0.0
H1804 H 0.66962 0.86333 0.16028 0.0
H1805 H 0.6728 0.9007 0.06991 0.0
H1806 H 0.60939 0.92742 0.02303 0.0
H1807 H 0.63084 0.92495 0.0561 0.0
C1808 C 0.70227 0.61967 0.66643 0.0
C1809 C 0.71273 0.62096 0.63923 0.0
C1810 C 0.69042 0.61255 0.65535 0.0
C1811 C 0.66693 0.59331 0.62529 0.0
H1812 H 0.65397 0.6129 0.52913 0.0
C1813 C 0.61629 0.57999 0.55027 0.0
C1814 C 0.60895 0.5931 0.53866 0.0
C1815 C 0.62913 0.5817 0.5649 0.0
C1816 C 0.65747 0.60735 0.55601 0.0
H1817 H 0.71959 0.61467 0.58063 0.0
H1818 H 0.69867 0.60243 0.56073 0.0
H1819 H 0.6769 0.61688 0.54945 0.0
H1820 H 0.60895 0.61823 0.53366 0.0
H1821 H 0.63156 0.6213 0.55905 0.0
H1822 H 0.64734 0.58399 0.63198 0.0
C1823 C 0.69964 0.60698 0.59055 0.0
C1824 C 0.67062 0.60944 0.56734 0.0
C1825 C 0.71156 0.61394 0.60186 0.0
C1826 C 0.61445 0.608 0.54282 0.0
C1827 C 0.62736 0.60971 0.55695 0.0
C1828 C 0.65378 0.59104 0.61361 0.0
C1829 C 0.68881 0.60677 0.61673 0.0
C1830 C 0.67542 0.60264 0.6024 0.0
C1831 C 0.63488 0.59656 0.5675 0.0
C1832 C 0.64889 0.5983 0.57928 0.0
H1833 H 0.7029 0.62516 0.6953 0.0
H1834 H 0.68221 0.61266 0.67601 0.0
H1835 H 0.6704 0.58798 0.65248 0.0
H1836 H 0.61218 0.56839 0.54708 0.0
H1837 H 0.63476 0.5714 0.57269 0.0
C1838 C 0.7032 0.37145 0.90202 0.0
C1839 C 0.70552 0.36985 0.86125 0.0
C1840 C 0.69131 0.37775 0.91558 0.0
C1841 C 0.66104 0.39919 0.88768 0.0
H1842 H 0.64435 0.37139 0.96345 0.0
C1843 C 0.6114 0.4121 0.96815 0.0
C1844 C 0.60242 0.39966 0.97071 0.0
C1845 C 0.6241 0.40974 0.9529 0.0
C1846 C 0.64886 0.37922 0.94219 0.0
H1847 H 0.69784 0.37454 0.80254 0.0
H1848 H 0.67699 0.38575 0.82624 0.0
H1849 H 0.66694 0.36631 0.94181 0.0
H1850 H 0.5994 0.37514 0.95882 0.0
H1851 H 0.62167 0.37092 0.9322 0.0
H1852 H 0.6428 0.41201 0.88799 0.0
C1853 C 0.68436 0.38216 0.84772 0.0
C1854 C 0.66185 0.37644 0.93019 0.0
C1855 C 0.69627 0.37579 0.83415 0.0
C1856 C 0.60618 0.3849 0.95698 0.0
C1857 C 0.61891 0.38249 0.94207 0.0
C1858 C 0.64805 0.40208 0.90007 0.0
C1859 C 0.68156 0.38259 0.88854 0.0
C1860 C 0.66806 0.38634 0.9027 0.0
C1861 C 0.62804 0.39485 0.94032 0.0
C1862 C 0.64181 0.39202 0.92717 0.0
H1863 H 0.71029 0.36702 0.92336 0.0
H1864 H 0.68949 0.37819 0.94722 0.0
H1865 H 0.66561 0.40699 0.86645 0.0
H1866 H 0.60863 0.42363 0.97829 0.0
H1867 H 0.63095 0.41944 0.95206 0.0
C1868 C 0.88854 0.38906 0.03659 0.0
C1869 C 0.89415 0.40354 0.02738 0.0
C1870 C 0.87563 0.38823 0.05127 0.0
C1871 C 0.85029 0.40913 0.1053 0.0
H1872 H 0.82576 0.38196 0.04997 0.0
C1873 C 0.79225 0.38688 0.10902 0.0
C1874 C 0.79203 0.38008 0.14684 0.0
C1875 C 0.80393 0.39348 0.09442 0.0
C1876 C 0.83244 0.38977 0.06536 0.0
H1877 H 0.89111 0.42851 0.02735 0.0
H1878 H 0.86856 0.4271 0.05423 0.0
H1879 H 0.84832 0.38509 0.02497 0.0
H1880 H 0.80337 0.376 0.20038 0.0
H1881 H 0.82359 0.38803 0.17549 0.0
H1882 H 0.83454 0.41324 0.14675 0.0
C1883 C 0.87407 0.41643 0.04963 0.0
C1884 C 0.84535 0.39141 0.05133 0.0
C1885 C 0.88689 0.41722 0.03426 0.0
C1886 C 0.80324 0.38131 0.17124 0.0
C1887 C 0.81483 0.38815 0.15696 0.0
C1888 C 0.83741 0.40726 0.1198 0.0
C1889 C 0.86826 0.40191 0.05759 0.0
C1890 C 0.85443 0.40093 0.07147 0.0
C1891 C 0.81544 0.39366 0.11783 0.0
C1892 C 0.82843 0.39744 0.10013 0.0
H1893 H 0.894 0.37839 0.03134 0.0
H1894 H 0.87136 0.37692 0.05753 0.0
H1895 H 0.85715 0.41654 0.12126 0.0
H1896 H 0.78362 0.38638 0.09004 0.0
H1897 H 0.80414 0.39783 0.06427 0.0
C1898 C 0.8858 0.60907 0.45019 0.0
C1899 C 0.89126 0.59411 0.45299 0.0
C1900 C 0.873 0.61106 0.43548 0.0
C1901 C 0.84667 0.59329 0.37617 0.0
H1902 H 0.82363 0.61866 0.44176 0.0
C1903 C 0.78918 0.61711 0.38963 0.0
C1904 C 0.78803 0.62431 0.3525 0.0
C1905 C 0.80097 0.60972 0.4003 0.0
C1906 C 0.82987 0.61134 0.42343 0.0
H1907 H 0.88807 0.56958 0.44154 0.0
H1908 H 0.86565 0.57307 0.4151 0.0
H1909 H 0.84645 0.61419 0.46221 0.0
H1910 H 0.7976 0.62829 0.29598 0.0
H1911 H 0.81816 0.61519 0.31431 0.0
H1912 H 0.8301 0.59079 0.33686 0.0
C1913 C 0.87124 0.58323 0.4243 0.0
C1914 C 0.84298 0.60899 0.43485 0.0
C1915 C 0.884 0.58123 0.43942 0.0
C1916 C 0.79828 0.62273 0.32475 0.0
C1917 C 0.81004 0.61524 0.33527 0.0
C1918 C 0.83356 0.59581 0.36444 0.0
C1919 C 0.86552 0.59812 0.4231 0.0
C1920 C 0.85154 0.60012 0.41111 0.0
C1921 C 0.8117 0.60933 0.37378 0.0
C1922 C 0.82508 0.60497 0.38785 0.0
H1923 H 0.89123 0.61912 0.46086 0.0
H1924 H 0.86883 0.62269 0.43447 0.0
H1925 H 0.85311 0.58638 0.35742 0.0
H1926 H 0.78128 0.61808 0.41124 0.0
H1927 H 0.80194 0.60504 0.42998 0.0
C1928 C 0.29924 0.37967 0.32856 0.0
C1929 C 0.28883 0.37741 0.35545 0.0
C1930 C 0.31083 0.38715 0.34066 0.0
C1931 C 0.3338 0.40662 0.37344 0.0
H1932 H 0.34656 0.38659 0.46925 0.0
C1933 C 0.38388 0.42061 0.45113 0.0
C1934 C 0.39136 0.40756 0.46248 0.0
C1935 C 0.37109 0.41873 0.43614 0.0
C1936 C 0.34312 0.39227 0.44248 0.0
H1937 H 0.28164 0.38239 0.41449 0.0
H1938 H 0.30201 0.3954 0.43602 0.0
H1939 H 0.32392 0.38202 0.44724 0.0
H1940 H 0.39164 0.38242 0.46683 0.0
H1941 H 0.36917 0.37907 0.44074 0.0
H1942 H 0.3532 0.41663 0.3685 0.0
C1943 C 0.30128 0.39128 0.40575 0.0
C1944 C 0.33011 0.38984 0.43018 0.0
C1945 C 0.28966 0.38391 0.39349 0.0
C1946 C 0.38604 0.3926 0.45789 0.0
C1947 C 0.37319 0.39072 0.44335 0.0
C1948 C 0.3468 0.40921 0.38608 0.0
C1949 C 0.31217 0.39237 0.37993 0.0
C1950 C 0.32538 0.39678 0.39522 0.0
C1951 C 0.36555 0.40379 0.43289 0.0
C1952 C 0.35163 0.4018 0.42029 0.0
H1953 H 0.29882 0.37465 0.2991 0.0
H1954 H 0.31908 0.38775 0.32022 0.0
H1955 H 0.33038 0.41209 0.34637 0.0
H1956 H 0.38785 0.43226 0.45462 0.0
H1957 H 0.36537 0.42898 0.42845 0.0
C1958 C 0.39216 0.61058 0.05359 0.0
C1959 C 0.39655 0.59671 0.0361 0.0
C1960 C 0.37993 0.61111 0.07283 0.0
C1961 C 0.3477 0.59097 0.0757 0.0
H1962 H 0.34204 0.61837 0.16544 0.0
C1963 C 0.29743 0.61823 0.11239 0.0
C1964 C 0.29467 0.6227 0.15147 0.0
C1965 C 0.30943 0.61104 0.10315 0.0
C1966 C 0.34344 0.61038 0.14094 0.0
H1967 H 0.39206 0.57235 0.02629 0.0
H1968 H 0.37071 0.57316 0.06033 0.0
H1969 H 0.3644 0.61382 0.14162 0.0
H1970 H 0.30159 0.62203 0.21218 0.0
H1971 H 0.32242 0.60893 0.1964 0.0
H1972 H 0.32672 0.58753 0.07509 0.0
C1973 C 0.37653 0.58373 0.05849 0.0
C1974 C 0.35627 0.60798 0.12685 0.0
C1975 C 0.38873 0.58325 0.03904 0.0
C1976 C 0.30354 0.61867 0.18177 0.0
C1977 C 0.31551 0.61136 0.17263 0.0
C1978 C 0.33486 0.59328 0.08998 0.0
C1979 C 0.37191 0.59772 0.07523 0.0
C1980 C 0.35851 0.59863 0.09333 0.0
C1981 C 0.31884 0.60806 0.13298 0.0
C1982 C 0.33254 0.60338 0.12204 0.0
H1983 H 0.39803 0.62112 0.05144 0.0
H1984 H 0.37659 0.62215 0.08476 0.0
H1985 H 0.34905 0.58373 0.04972 0.0
H1986 H 0.29065 0.62118 0.08864 0.0
H1987 H 0.31165 0.60879 0.07227 0.0
C1988 C 0.10615 0.60855 0.94442 0.0
C1989 C 0.10186 0.59475 0.96248 0.0
C1990 C 0.11844 0.60914 0.92552 0.0
C1991 C 0.15095 0.58979 0.92559 0.0
H1992 H 0.15667 0.61637 0.8343 0.0
C1993 C 0.1952 0.61807 0.82097 0.0
C1994 C 0.20358 0.62298 0.85167 0.0
C1995 C 0.18343 0.61024 0.8297 0.0
C1996 C 0.15527 0.60861 0.85926 0.0
H1997 H 0.10661 0.57053 0.97358 0.0
H1998 H 0.12809 0.57146 0.94028 0.0
H1999 H 0.13425 0.61137 0.85698 0.0
H2000 H 0.207 0.62254 0.91493 0.0
H2001 H 0.18634 0.60922 0.93052 0.0
H2002 H 0.172 0.5871 0.92796 0.0
C2003 C 0.12212 0.58194 0.94136 0.0
C2004 C 0.1424 0.60595 0.87265 0.0
C2005 C 0.10985 0.58139 0.96039 0.0
C2006 C 0.2006 0.61888 0.89087 0.0
C2007 C 0.1888 0.61116 0.89967 0.0
C2008 C 0.16384 0.59238 0.91205 0.0
C2009 C 0.12664 0.59588 0.92412 0.0
C2010 C 0.14011 0.59691 0.9067 0.0
C2011 C 0.17982 0.60731 0.8693 0.0
C2012 C 0.16618 0.60221 0.87946 0.0
H2013 H 0.10016 0.61902 0.94593 0.0
H2014 H 0.12169 0.62014 0.91317 0.0
H2015 H 0.14956 0.5828 0.952 0.0
H2016 H 0.19732 0.62115 0.79048 0.0
H2017 H 0.17685 0.60716 0.80557 0.0
C2018 C 0.11174 0.38975 0.53787 0.0
C2019 C 0.10691 0.4049 0.5324 0.0
C2020 C 0.12461 0.3874 0.55176 0.0
C2021 C 0.15234 0.40588 0.6043 0.0
H2022 H 0.17338 0.37567 0.54643 0.0
C2023 C 0.20017 0.37696 0.66216 0.0
C2024 C 0.20997 0.37304 0.63444 0.0
C2025 C 0.18855 0.38431 0.64982 0.0
C2026 C 0.16771 0.38432 0.56253 0.0
H2027 H 0.11136 0.42947 0.53805 0.0
H2028 H 0.13391 0.4254 0.56271 0.0
H2029 H 0.15066 0.38074 0.52609 0.0
H2030 H 0.21602 0.37481 0.57313 0.0
H2031 H 0.19567 0.38775 0.55132 0.0
H2032 H 0.16942 0.40925 0.64114 0.0
C2033 C 0.12777 0.41535 0.55639 0.0
C2034 C 0.15464 0.38704 0.55125 0.0
C2035 C 0.11494 0.41768 0.5422 0.0
C2036 C 0.20852 0.37771 0.59487 0.0
C2037 C 0.19688 0.385 0.58245 0.0
C2038 C 0.16543 0.40305 0.61585 0.0
C2039 C 0.13282 0.40019 0.56054 0.0
C2040 C 0.14678 0.3977 0.57228 0.0
C2041 C 0.18655 0.38775 0.60953 0.0
C2042 C 0.1732 0.39215 0.59522 0.0
H2043 H 0.10572 0.37975 0.53009 0.0
H2044 H 0.12821 0.37559 0.55513 0.0
H2045 H 0.14648 0.41416 0.62101 0.0
H2046 H 0.20106 0.37333 0.6928 0.0
H2047 H 0.18074 0.3862 0.67131 0.0
C2048 C 0.21105 0.20964 0.99767 0.0
C2049 C 0.22019 0.21166 0.02861 0.0
C2050 C 0.21051 0.22028 0.96633 0.0
C2051 C 0.21666 0.2611 0.94472 0.0
H2052 H 0.2176 0.2488 0.83419 0.0
C2053 C 0.22615 0.30552 0.82118 0.0
C2054 C 0.22147 0.30277 0.78256 0.0
C2055 C 0.22418 0.29458 0.85113 0.0
C2056 C 0.21704 0.25246 0.86485 0.0
H2057 H 0.23583 0.22638 0.05148 0.0
H2058 H 0.23475 0.24518 0.99699 0.0
H2059 H 0.21822 0.22889 0.88591 0.0
H2060 H 0.21029 0.28674 0.74583 0.0
H2061 H 0.20628 0.26791 0.79872 0.0
H2062 H 0.21503 0.28455 0.92433 0.0
C2063 C 0.22817 0.23522 0.99668 0.0
C2064 C 0.21753 0.24104 0.89441 0.0
C2065 C 0.22888 0.22441 0.02758 0.0
C2066 C 0.21406 0.2892 0.77523 0.0
C2067 C 0.21191 0.27831 0.8055 0.0
C2068 C 0.2159 0.27249 0.91528 0.0
C2069 C 0.21889 0.23333 0.966 0.0
C2070 C 0.21766 0.24529 0.93457 0.0
C2071 C 0.21726 0.28067 0.84363 0.0
C2072 C 0.21642 0.26839 0.87488 0.0
H2073 H 0.20419 0.19993 0.99802 0.0
H2074 H 0.20324 0.21861 0.94311 0.0
H2075 H 0.21643 0.26465 0.97554 0.0
H2076 H 0.23197 0.31578 0.82797 0.0
H2077 H 0.22869 0.29678 0.87971 0.0
C2078 C 0.9716 0.87899 0.10499 0.0
C2079 C 0.95924 0.88507 0.11648 0.0
C2080 C 0.9807 0.87407 0.13354 0.0
C2081 C -0.00044 0.88175 0.20184 0.0
H2082 H 0.9928 0.85668 0.29541 0.0
C2083 C 0.02291 0.89163 0.35529 0.0
C2084 C 0.02959 0.87894 0.37251 0.0
C2085 C 0.01569 0.88973 0.32038 0.0
C2086 C 0.99486 0.86353 0.26914 0.0
H2087 H 0.94626 0.88935 0.16654 0.0
H2088 H 0.9621 0.88043 0.21634 0.0
H2089 H 0.97678 0.85665 0.24058 0.0
H2090 H 0.03353 0.85415 0.36673 0.0
H2091 H 0.02034 0.8508 0.30642 0.0
H2092 H 0.01716 0.88945 0.23148 0.0
C2093 C 0.96476 0.87965 0.18529 0.0
C2094 C 0.98572 0.86355 0.23799 0.0
C2095 C 0.95573 0.88482 0.1568 0.0
C2096 C 0.02863 0.86423 0.35414 0.0
C2097 C 0.02111 0.86227 0.31967 0.0
C2098 C 0.00854 0.88197 0.23328 0.0
C2099 C 0.97751 0.87485 0.17398 0.0
C2100 C 0.98791 0.87286 0.20438 0.0
C2101 C 0.01462 0.87503 0.30258 0.0
C2102 C 0.00613 0.87309 0.26739 0.0
H2103 H 0.97461 0.879 0.07417 0.0
H2104 H 0.99046 0.87034 0.12417 0.0
H2105 H 0.00138 0.88918 0.17645 0.0
H2106 H 0.0227 0.90292 0.36926 0.0
H2107 H 0.01049 0.89967 0.30805 0.0
C2108 C 0.26615 0.77724 0.51532 0.0
C2109 C 0.27637 0.78824 0.51765 0.0
C2110 C 0.26508 0.76748 0.48238 0.0
C2111 C 0.28563 0.75179 0.40005 0.0
H2112 H 0.25201 0.73449 0.36641 0.0
C2113 C 0.27846 0.70924 0.26628 0.0
C2114 C 0.27076 0.69604 0.2751 0.0
C2115 C 0.27972 0.7213 0.29404 0.0
C2116 C 0.26147 0.73922 0.37561 0.0
H2117 H 0.29322 0.79818 0.48726 0.0
H2118 H 0.29102 0.7817 0.42851 0.0
H2119 H 0.25237 0.75502 0.41625 0.0
H2120 H 0.25863 0.685 0.32029 0.0
H2121 H 0.26056 0.70615 0.3678 0.0
H2122 H 0.29461 0.73613 0.35838 0.0
C2123 C 0.28405 0.78019 0.45258 0.0
C2124 C 0.2617 0.75092 0.40437 0.0
C2125 C 0.28525 0.78974 0.48595 0.0
C2126 C 0.26469 0.69496 0.31253 0.0
C2127 C 0.26566 0.70715 0.33965 0.0
C2128 C 0.28536 0.74029 0.3707 0.0
C2129 C 0.27416 0.76862 0.45081 0.0
C2130 C 0.27381 0.75716 0.41761 0.0
C2131 C 0.27299 0.72054 0.33046 0.0
C2132 C 0.2733 0.73368 0.35884 0.0
H2133 H 0.25943 0.7756 0.53995 0.0
H2134 H 0.25748 0.75859 0.48265 0.0
H2135 H 0.29517 0.75608 0.40979 0.0
H2136 H 0.28325 0.71038 0.2377 0.0
H2137 H 0.28552 0.7315 0.28645 0.0
C2138 C 0.46902 0.1122 0.83988 0.0
C2139 C 0.46938 0.12355 0.86974 0.0
C2140 C 0.47801 0.11274 0.80859 0.0
C2141 C 0.50177 0.13672 0.75342 0.0
H2142 H 0.52013 0.09731 0.74084 0.0
C2143 C 0.53427 0.11877 0.61869 0.0
C2144 C 0.54526 0.10915 0.62641 0.0
C2145 C 0.52607 0.12369 0.64966 0.0
C2146 C 0.51522 0.10846 0.74427 0.0
H2147 H 0.47842 0.1452 0.88858 0.0
H2148 H 0.49424 0.14621 0.83338 0.0
H2149 H 0.50272 0.09969 0.79015 0.0
H2150 H 0.55703 0.09857 0.67306 0.0
H2151 H 0.54277 0.10722 0.72688 0.0
H2152 H 0.5143 0.14537 0.70685 0.0
C2153 C 0.4871 0.13681 0.83453 0.0
C2154 C 0.50512 0.10975 0.77213 0.0
C2155 C 0.4781 0.13622 0.86605 0.0
C2156 C 0.54853 0.10574 0.66598 0.0
C2157 C 0.54035 0.11066 0.69683 0.0
C2158 C 0.51184 0.13538 0.72504 0.0
C2159 C 0.48743 0.12476 0.80635 0.0
C2160 C 0.49822 0.12382 0.77679 0.0
C2161 C 0.52873 0.11909 0.68881 0.0
C2162 C 0.51865 0.1212 0.72024 0.0
H2163 H 0.46207 0.1026 0.84147 0.0
H2164 H 0.47787 0.10349 0.78671 0.0
H2165 H 0.49659 0.1477 0.75654 0.0
H2166 H 0.53152 0.1217 0.58856 0.0
H2167 H 0.51717 0.13017 0.64262 0.0
C2168 C 0.21674 0.70906 0.72989 0.0
C2169 C 0.22425 0.69563 0.72189 0.0
C2170 C 0.21505 0.7205 0.7007 0.0
C2171 C 0.23203 0.73577 0.6127 0.0
H2172 H 0.19849 0.75529 0.58707 0.0
C2173 C 0.22819 0.78624 0.50063 0.0
C2174 C 0.21823 0.78469 0.47186 0.0
C2175 C 0.22843 0.77639 0.53363 0.0
C2176 C 0.20791 0.7499 0.59392 0.0
H2177 H 0.23549 0.68345 0.67652 0.0
H2178 H 0.23273 0.70343 0.62631 0.0
H2179 H 0.19952 0.73577 0.63997 0.0
H2180 H 0.20041 0.77208 0.45588 0.0
H2181 H 0.20092 0.75479 0.51332 0.0
H2182 H 0.24043 0.74965 0.56644 0.0
C2183 C 0.22818 0.70516 0.65506 0.0
C2184 C 0.20852 0.73886 0.62438 0.0
C2185 C 0.22963 0.69364 0.68378 0.0
C2186 C 0.20828 0.77345 0.47742 0.0
C2187 C 0.20852 0.76362 0.5104 0.0
C2188 C 0.23145 0.74685 0.58252 0.0
C2189 C 0.22114 0.71886 0.66346 0.0
C2190 C 0.22054 0.73146 0.63349 0.0
C2191 C 0.21867 0.76489 0.53864 0.0
C2192 C 0.21935 0.75386 0.57238 0.0
H2193 H 0.21246 0.71091 0.75897 0.0
H2194 H 0.20948 0.73091 0.7078 0.0
H2195 H 0.24149 0.73046 0.61964 0.0
H2196 H 0.23568 0.79519 0.49791 0.0
H2197 H 0.23616 0.77782 0.55549 0.0
C2198 C 0.48364 0.86953 0.61853 0.0
C2199 C 0.47032 0.87391 0.6212 0.0
C2200 C 0.4913 0.86804 0.65277 0.0
C2201 C 0.49166 0.88048 0.75829 0.0
H2202 H 0.5225 0.85356 0.76218 0.0
C2203 C 0.52596 0.87953 0.89336 0.0
C2204 C 0.53872 0.88478 0.88331 0.0
C2205 C 0.51728 0.87438 0.86393 0.0
C2206 C 0.51384 0.86102 0.76151 0.0
H2207 H 0.45421 0.87932 0.66105 0.0
H2208 H 0.46734 0.876 0.72126 0.0
H2209 H 0.50724 0.85174 0.70613 0.0
H2210 H 0.55279 0.8874 0.83519 0.0
H2211 H 0.53767 0.87801 0.78389 0.0
H2212 H 0.49826 0.88958 0.81393 0.0
C2213 C 0.47213 0.87434 0.69287 0.0
C2214 C 0.50516 0.86012 0.72929 0.0
C2215 C 0.46456 0.87618 0.65851 0.0
C2216 C 0.543 0.88352 0.84378 0.0
C2217 C 0.53438 0.87808 0.81447 0.0
C2218 C 0.50017 0.88111 0.7908 0.0
C2219 C 0.48569 0.87055 0.69047 0.0
C2220 C 0.49412 0.87013 0.72675 0.0
C2221 C 0.5213 0.87407 0.82413 0.0
C2222 C 0.51148 0.87164 0.79228 0.0
H2223 H 0.48823 0.86776 0.58985 0.0
H2224 H 0.50172 0.8654 0.64943 0.0
H2225 H 0.48347 0.88861 0.75728 0.0
H2226 H 0.52236 0.88036 0.92354 0.0
H2227 H 0.50724 0.87127 0.87201 0.0
C2228 C 0.26578 0.22243 0.97927 0.0
C2229 C 0.2744 0.20965 0.9788 0.0
C2230 C 0.2648 0.23179 0.01306 0.0
C2231 C 0.28371 0.24144 0.10488 0.0
H2232 H 0.25276 0.26685 0.12583 0.0
C2233 C 0.27748 0.28522 0.23729 0.0
C2234 C 0.27365 0.30026 0.22506 0.0
C2235 C 0.27771 0.27285 0.21014 0.0
C2236 C 0.26146 0.25979 0.12026 0.0
H2237 H 0.2881 0.19589 0.01344 0.0
H2238 H 0.28566 0.21146 0.0736 0.0
H2239 H 0.25176 0.24682 0.0748 0.0
H2240 H 0.26761 0.3141 0.17419 0.0
H2241 H 0.26791 0.29256 0.12745 0.0
H2242 H 0.29324 0.25442 0.15122 0.0
C2243 C 0.28014 0.21485 0.04748 0.0
C2244 C 0.26094 0.24836 0.09082 0.0
C2245 C 0.28145 0.2058 0.01322 0.0
C2246 C 0.27061 0.30273 0.18481 0.0
C2247 C 0.27065 0.29037 0.158 0.0
C2248 C 0.28412 0.2527 0.13486 0.0
C2249 C 0.27214 0.2283 0.04751 0.0
C2250 C 0.27216 0.23925 0.08198 0.0
C2251 C 0.27394 0.27528 0.17054 0.0
C2252 C 0.27311 0.26221 0.14209 0.0
H2253 H 0.26037 0.2257 0.95281 0.0
H2254 H 0.25877 0.24217 0.01132 0.0
H2255 H 0.29265 0.23493 0.09877 0.0
H2256 H 0.27975 0.28286 0.26809 0.0
H2257 H 0.2803 0.26128 0.22039 0.0
C2258 C 0.03219 0.12322 0.15947 0.0
C2259 C 0.02658 0.12516 0.12185 0.0
C2260 C 0.02435 0.12469 0.19342 0.0
C2261 C 0.99065 0.1375 0.22773 0.0
H2262 H 0.9981 0.10896 0.31399 0.0
C2263 C 0.95309 0.11346 0.34231 0.0
C2264 C 0.9572 0.11297 0.38211 0.0
C2265 C 0.96167 0.11884 0.31285 0.0
C2266 C 0.99603 0.11716 0.29037 0.0
H2267 H 0.00863 0.13026 0.08948 0.0
H2268 H 0.99471 0.13198 0.14828 0.0
H2269 H 0.01313 0.11023 0.25788 0.0
H2270 H 0.97323 0.11863 0.42252 0.0
H2271 H 0.98831 0.12763 0.37075 0.0
H2272 H 0.97296 0.14349 0.25959 0.0
C2273 C 0.0052 0.12991 0.15222 0.0
C2274 C 0.00467 0.11797 0.25818 0.0
C2275 C 0.01311 0.12878 0.11842 0.0
C2276 C 0.96975 0.11888 0.39215 0.0
C2277 C 0.97841 0.12397 0.36259 0.0
C2278 C 0.98185 0.13642 0.25961 0.0
C2279 C 0.01068 0.1278 0.19025 0.0
C2280 C 0.00203 0.128 0.2261 0.0
C2281 C 0.97456 0.12357 0.32264 0.0
C2282 C 0.98442 0.12613 0.29096 0.0
H2283 H 0.04263 0.1206 0.16257 0.0
H2284 H 0.02903 0.12334 0.22208 0.0
H2285 H 0.98841 0.14563 0.20414 0.0
H2286 H 0.94346 0.10904 0.33372 0.0
H2287 H 0.95852 0.11836 0.28216 0.0
C2288 C 0.76751 0.70018 0.18804 0.0
C2289 C 0.77069 0.70281 0.22814 0.0
C2290 C 0.76731 0.71245 0.16095 0.0
C2291 C 0.78072 0.7501 0.13703 0.0
H2292 H 0.74873 0.75545 0.07492 0.0
C2293 C 0.77897 0.79635 0.01375 0.0
C2294 C 0.77162 0.79293 0.9796 0.0
C2295 C 0.77762 0.78723 0.04784 0.0
C2296 C 0.75785 0.75401 0.09131 0.0
H2297 H 0.77666 0.72045 0.27066 0.0
H2298 H 0.77676 0.7419 0.22248 0.0
H2299 H 0.74954 0.73561 0.12642 0.0
H2300 H 0.75698 0.77753 0.95406 0.0
H2301 H 0.75506 0.76107 0.01241 0.0
H2302 H 0.78946 0.7676 0.10078 0.0
C2303 C 0.77428 0.73026 0.21254 0.0
C2304 C 0.75824 0.7427 0.12116 0.0
C2305 C 0.77431 0.71796 0.23998 0.0
C2306 C 0.76263 0.7805 0.98031 0.0
C2307 C 0.76152 0.7711 0.01404 0.0
C2308 C 0.78047 0.76114 0.10654 0.0
C2309 C 0.77048 0.72763 0.17302 0.0
C2310 C 0.76972 0.74054 0.14397 0.0
C2311 C 0.76921 0.77412 0.04817 0.0
C2312 C 0.76908 0.76317 0.08281 0.0
H2313 H 0.76467 0.68871 0.1777 0.0
H2314 H 0.76456 0.71009 0.13049 0.0
H2315 H 0.78973 0.74854 0.154 0.0
H2316 H 0.7859 0.80599 0.01389 0.0
H2317 H 0.78334 0.79043 0.07371 0.0
C2318 C 0.03229 0.12318 0.88427 0.0
C2319 C 0.0427 0.11279 0.87592 0.0
C2320 C 0.0244 0.12907 0.85367 0.0
C2321 C 0.02164 0.13215 0.74378 0.0
H2322 H 0.98414 0.12629 0.76357 0.0
C2323 C 0.98452 0.11753 0.62124 0.0
C2324 C 0.97177 0.124 0.62267 0.0
C2325 C 0.99346 0.1201 0.65204 0.0
C2326 C 0.99454 0.12831 0.75772 0.0
H2327 H 0.05356 0.10136 0.82862 0.0
H2328 H 0.03978 0.11144 0.77558 0.0
H2329 H -0.00023 0.12439 0.8183 0.0
H2330 H 0.95852 0.13881 0.65621 0.0
H2331 H 0.97418 0.14319 0.71073 0.0
H2332 H 0.01641 0.13532 0.68279 0.0
C2333 C 0.03772 0.11515 0.80565 0.0
C2334 C 0.00352 0.12726 0.78911 0.0
C2335 C 0.04559 0.10926 0.83617 0.0
C2336 C 0.96825 0.13354 0.65478 0.0
C2337 C 0.97718 0.13601 0.68589 0.0
C2338 C 0.01267 0.13314 0.71238 0.0
C2339 C 0.02679 0.12473 0.81413 0.0
C2340 C 0.01721 0.12867 0.78227 0.0
C2341 C 0.98985 0.12922 0.6849 0.0
C2342 C -0.00093 0.13074 0.71885 0.0
H2343 H 0.02985 0.12624 0.91455 0.0
H2344 H 0.01617 0.13661 0.86109 0.0
H2345 H 0.0321 0.13359 0.73768 0.0
H2346 H 0.98761 0.1105 0.59623 0.0
H2347 H 0.0031 0.11459 0.65057 0.0
C2348 C 0.71469 0.22656 0.46452 0.0
C2349 C 0.72513 0.21613 0.45731 0.0
C2350 C 0.71568 0.23773 0.49443 0.0
C2351 C 0.73375 0.24662 0.58701 0.0
H2352 H 0.71859 0.28772 0.57179 0.0
C2353 C 0.73364 0.30977 0.67079 0.0
C2354 C 0.73097 0.30502 0.70992 0.0
C2355 C 0.73255 0.29925 0.63935 0.0
C2356 C 0.72291 0.27631 0.57642 0.0
H2357 H 0.74455 0.20876 0.47721 0.0
H2358 H 0.74656 0.22872 0.52838 0.0
H2359 H 0.7183 0.26899 0.5174 0.0
H2360 H 0.72438 0.28571 0.74631 0.0
H2361 H 0.72258 0.26726 0.69133 0.0
H2362 H 0.73868 0.25421 0.64555 0.0
C2363 C 0.73757 0.22824 0.51092 0.0
C2364 C 0.72264 0.26552 0.54539 0.0
C2365 C 0.73653 0.21697 0.4811 0.0
C2366 C 0.72669 0.28966 0.71663 0.0
C2367 C 0.72571 0.27909 0.68519 0.0
C2368 C 0.73403 0.25744 0.61795 0.0
C2369 C 0.72713 0.23875 0.51799 0.0
C2370 C 0.72796 0.25048 0.55041 0.0
C2371 C 0.72881 0.28373 0.64629 0.0
C2372 C 0.7285 0.27233 0.61318 0.0
H2373 H 0.70572 0.22609 0.44696 0.0
H2374 H 0.70733 0.24539 0.49954 0.0
H2375 H 0.73787 0.23514 0.59209 0.0
H2376 H 0.73699 0.3215 0.66446 0.0
H2377 H 0.73507 0.30315 0.60976 0.0
C2378 C 0.46144 0.87868 0.37981 0.0
C2379 C 0.44978 0.88748 0.37555 0.0
C2380 C 0.46845 0.87372 0.34639 0.0
C2381 C 0.47382 0.88789 0.24599 0.0
H2382 H 0.49745 0.8524 0.2377 0.0
C2383 C 0.5157 0.86405 0.13009 0.0
C2384 C 0.52256 0.87813 0.1247 0.0
C2385 C 0.50602 0.86277 0.15961 0.0
C2386 C 0.4908 0.86228 0.23944 0.0
H2387 H 0.43549 0.89633 0.33314 0.0
H2388 H 0.44756 0.88737 0.27495 0.0
H2389 H 0.48055 0.85296 0.28988 0.0
H2390 H 0.52571 0.90134 0.14816 0.0
H2391 H 0.50877 0.89921 0.19926 0.0
H2392 H 0.48413 0.89735 0.19624 0.0
C2393 C 0.45152 0.88475 0.30404 0.0
C2394 C 0.48119 0.86264 0.26936 0.0
C2395 C 0.44458 0.88983 0.33739 0.0
C2396 C 0.52019 0.89056 0.15071 0.0
C2397 C 0.51052 0.88932 0.17998 0.0
C2398 C 0.4834 0.88754 0.21635 0.0
C2399 C 0.46386 0.87736 0.30814 0.0
C2400 C 0.47276 0.87561 0.27339 0.0
C2401 C 0.50312 0.87556 0.18415 0.0
C2402 C 0.4922 0.87494 0.21336 0.0
H2403 H 0.46568 0.87659 0.40882 0.0
H2404 H 0.47794 0.86809 0.35064 0.0
H2405 H 0.46766 0.89817 0.24849 0.0
H2406 H 0.5175 0.85423 0.11063 0.0
H2407 H 0.5005 0.852 0.16236 0.0
C2408 C 0.77356 0.21277 0.50176 0.0
C2409 C 0.77695 0.2192 0.53869 0.0
C2410 C 0.77424 0.22187 0.46731 0.0
C2411 C 0.79145 0.25645 0.42853 0.0
H2412 H 0.7637 0.25782 0.34927 0.0
C2413 C 0.78598 0.30633 0.31622 0.0
C2414 C 0.7814 0.30298 0.27784 0.0
C2415 C 0.78697 0.29454 0.34461 0.0
C2416 C 0.77166 0.25732 0.37072 0.0
H2417 H 0.78344 0.24011 0.56888 0.0
H2418 H 0.78448 0.25601 0.50911 0.0
H2419 H 0.76157 0.24022 0.40594 0.0
H2420 H 0.77482 0.28446 0.23864 0.0
H2421 H 0.77665 0.26386 0.28835 0.0
H2422 H 0.80144 0.2737 0.39386 0.0
C2423 C 0.78145 0.24395 0.50651 0.0
C2424 C 0.77041 0.24728 0.40324 0.0
C2425 C 0.78077 0.23489 0.54074 0.0
C2426 C 0.77851 0.28742 0.26784 0.0
C2427 C 0.77939 0.27564 0.29642 0.0
C2428 C 0.79271 0.26641 0.39605 0.0
C2429 C 0.77844 0.23748 0.46931 0.0
C2430 C 0.78016 0.24701 0.43293 0.0
C2431 C 0.78331 0.27916 0.33537 0.0
C2432 C 0.78272 0.2672 0.36718 0.0
H2433 H 0.77095 0.20057 0.49923 0.0
H2434 H 0.77201 0.21655 0.43899 0.0
H2435 H 0.79926 0.25625 0.45051 0.0
H2436 H 0.78822 0.3182 0.32489 0.0
H2437 H 0.78993 0.29767 0.37443 0.0
C2438 C 0.52941 0.13453 0.35675 0.0
C2439 C 0.53046 0.11963 0.37404 0.0
C2440 C 0.52205 0.13677 0.32209 0.0
C2441 C 0.49638 0.13623 0.26967 0.0
H2442 H 0.50265 0.11041 0.17713 0.0
C2443 C 0.45698 0.11595 0.15744 0.0
C2444 C 0.46049 0.11531 0.11715 0.0
C2445 C 0.46613 0.121 0.18572 0.0
C2446 C 0.5009 0.11791 0.20245 0.0
H2447 H 0.52385 0.0956 0.36877 0.0
H2448 H 0.51187 0.09937 0.30732 0.0
H2449 H 0.51826 0.10972 0.23251 0.0
H2450 H 0.47599 0.12051 0.07459 0.0
H2451 H 0.49206 0.12897 0.12428 0.0
H2452 H 0.47853 0.14362 0.24065 0.0
C2453 C 0.51691 0.10924 0.32056 0.0
C2454 C 0.50978 0.11743 0.23413 0.0
C2455 C 0.52399 0.10705 0.35563 0.0
C2456 C 0.47299 0.12087 0.1054 0.0
C2457 C 0.48221 0.12565 0.13379 0.0
C2458 C 0.48734 0.13648 0.23826 0.0
C2459 C 0.51578 0.12412 0.30374 0.0
C2460 C 0.50745 0.12635 0.26825 0.0
C2461 C 0.47899 0.12527 0.17426 0.0
C2462 C 0.48941 0.12709 0.20471 0.0
H2463 H 0.53415 0.14452 0.37028 0.0
H2464 H 0.52123 0.14837 0.30965 0.0
H2465 H 0.49437 0.14312 0.2959 0.0
H2466 H 0.4474 0.11183 0.16734 0.0
H2467 H 0.46343 0.12051 0.21678 0.0
C2468 C 0.72398 0.71266 0.75804 0.0
C2469 C 0.72232 0.69681 0.76756 0.0
C2470 C 0.72285 0.7241 0.78739 0.0
C2471 C 0.71095 0.73134 0.8898 0.0
H2472 H 0.73985 0.76112 0.89409 0.0
C2473 C 0.72336 0.76502 0.03135 0.0
C2474 C 0.72478 0.78123 0.02796 0.0
C2475 C 0.72297 0.75563 0.99765 0.0
C2476 C 0.73165 0.75299 0.89299 0.0
H2477 H 0.7174 0.68067 0.81477 0.0
H2478 H 0.71529 0.70059 0.86572 0.0
H2479 H 0.73814 0.7431 0.83804 0.0
H2480 H 0.72667 0.80039 0.98652 0.0
H2481 H 0.72643 0.78383 0.92724 0.0
H2482 H 0.70473 0.7408 0.94549 0.0
C2483 C 0.71747 0.70421 0.83565 0.0
C2484 C 0.73061 0.74277 0.8608 0.0
C2485 C 0.71869 0.69277 0.80643 0.0
C2486 C 0.72609 0.78789 0.99011 0.0
C2487 C 0.7258 0.77844 0.95621 0.0
C2488 C 0.71204 0.74146 0.92205 0.0
C2489 C 0.71993 0.71995 0.82675 0.0
C2490 C 0.72032 0.73173 0.85905 0.0
C2491 C 0.72396 0.76226 0.95973 0.0
C2492 C 0.72249 0.75225 0.92421 0.0
H2493 H 0.72693 0.71617 0.72847 0.0
H2494 H 0.72462 0.73616 0.77955 0.0
H2495 H 0.70282 0.72311 0.88913 0.0
H2496 H 0.72233 0.75959 0.0602 0.0
H2497 H 0.72173 0.74317 0.00124 0.0
C2498 C 0.03321 0.87571 0.61583 0.0
C2499 C 0.04362 0.88597 0.6251 0.0
C2500 C 0.02532 0.86942 0.64589 0.0
C2501 C 0.02243 0.86508 0.75552 0.0
H2502 H 0.98506 0.87214 0.736 0.0
C2503 C 0.98565 0.88015 0.87849 0.0
C2504 C 0.97273 0.87419 0.87673 0.0
C2505 C 0.99455 0.87738 0.84769 0.0
C2506 C 0.99542 0.86977 0.74175 0.0
H2507 H 0.05456 0.89665 0.67338 0.0
H2508 H 0.04078 0.88587 0.72549 0.0
H2509 H 0.00074 0.87407 0.68143 0.0
H2510 H 0.95912 0.86004 0.84263 0.0
H2511 H 0.9747 0.85531 0.78813 0.0
H2512 H 0.01712 0.86156 0.81632 0.0
C2513 C 0.03871 0.88259 0.69512 0.0
C2514 C 0.00442 0.87084 0.71044 0.0
C2515 C 0.04656 0.88889 0.66514 0.0
C2516 C 0.96899 0.86492 0.84431 0.0
C2517 C 0.97788 0.86225 0.81322 0.0
C2518 C 0.01343 0.86406 0.78685 0.0
C2519 C 0.02773 0.87321 0.68579 0.0
C2520 C 0.01808 0.86903 0.71724 0.0
C2521 C 0.99072 0.86855 0.81452 0.0
C2522 C -0.0001 0.86692 0.7805 0.0
H2523 H 0.03073 0.87312 0.58528 0.0
H2524 H 0.01704 0.86204 0.63783 0.0
H2525 H 0.03286 0.86333 0.76156 0.0
H2526 H 0.9889 0.88694 0.90373 0.0
H2527 H 0.00433 0.88251 0.8494 0.0
C2528 C 0.73493 0.80381 0.31196 0.0
C2529 C 0.72909 0.80193 0.27444 0.0
C2530 C 0.73361 0.79232 0.34083 0.0
C2531 C 0.71394 0.75931 0.37479 0.0
H2532 H 0.74699 0.74614 0.42278 0.0
C2533 C 0.71647 0.70874 0.48809 0.0
C2534 C 0.72486 0.71096 0.52076 0.0
C2535 C 0.7169 0.71899 0.45586 0.0
C2536 C 0.73765 0.74978 0.41007 0.0
H2537 H 0.71658 0.78698 0.23864 0.0
H2538 H 0.71383 0.76704 0.29021 0.0
H2539 H 0.74719 0.76598 0.3713 0.0
H2540 H 0.73999 0.72579 0.54617 0.0
H2541 H 0.74041 0.74399 0.49073 0.0
H2542 H 0.70435 0.74334 0.41426 0.0
C2543 C 0.71967 0.77732 0.29665 0.0
C2544 C 0.73778 0.76113 0.38052 0.0
C2545 C 0.72123 0.78871 0.26724 0.0
C2546 C 0.73368 0.72358 0.52083 0.0
C2547 C 0.73393 0.73397 0.48902 0.0
C2548 C 0.71378 0.74803 0.40478 0.0
C2549 C 0.72621 0.77882 0.3332 0.0
C2550 C 0.72592 0.76615 0.36294 0.0
C2551 C 0.72555 0.73183 0.45616 0.0
C2552 C 0.72565 0.74325 0.42303 0.0
H2553 H 0.74107 0.81384 0.31851 0.0
H2554 H 0.73858 0.79388 0.36903 0.0
H2555 H 0.70466 0.76302 0.36173 0.0
H2556 H 0.70955 0.6991 0.48755 0.0
H2557 H 0.71043 0.71688 0.43082 0.0
C2558 C 0.50966 0.38176 0.87847 0.0
C2559 C 0.52222 0.37482 0.87652 0.0
C2560 C 0.50054 0.37958 0.84798 0.0
C2561 C 0.49897 0.37144 0.74219 0.0
H2562 H 0.46126 0.36855 0.76286 0.0
C2563 C 0.46138 0.3788 0.61619 0.0
C2564 C 0.45159 0.38999 0.62446 0.0
C2565 C 0.46895 0.37238 0.6468 0.0
C2566 C 0.47176 0.36931 0.7566 0.0
H2567 H 0.5349 0.35951 0.84248 0.0
H2568 H 0.51891 0.35577 0.78855 0.0
H2569 H 0.47695 0.36585 0.81751 0.0
H2570 H 0.4414 0.40232 0.67166 0.0
H2571 H 0.45465 0.3913 0.72477 0.0
H2572 H 0.49381 0.37561 0.68167 0.0
C2573 C 0.51621 0.36304 0.81351 0.0
C2574 C 0.48073 0.36777 0.78785 0.0
C2575 C 0.52533 0.36515 0.84428 0.0
C2576 C 0.44892 0.3938 0.66418 0.0
C2577 C 0.45647 0.38738 0.69473 0.0
C2578 C 0.48999 0.37301 0.71094 0.0
C2579 C 0.50375 0.37036 0.81493 0.0
C2580 C 0.49441 0.36933 0.78115 0.0
C2581 C 0.46685 0.37699 0.68628 0.0
C2582 C 0.47628 0.37246 0.71802 0.0
H2583 H 0.50686 0.38887 0.90364 0.0
H2584 H 0.49108 0.38549 0.84981 0.0
H2585 H 0.50943 0.37282 0.73613 0.0
H2586 H 0.46363 0.37548 0.58594 0.0
H2587 H 0.47675 0.36422 0.63943 0.0
C2588 C 0.78882 0.27656 0.03154 0.0
C2589 C 0.77805 0.28646 0.03923 0.0
C2590 C 0.78833 0.2658 0.00059 0.0
C2591 C 0.77104 0.25686 0.90662 0.0
H2592 H 0.7868 0.21612 0.92256 0.0
C2593 C 0.7726 0.19292 0.82558 0.0
C2594 C 0.7741 0.19754 0.78584 0.0
C2595 C 0.77373 0.20376 0.85626 0.0
C2596 C 0.78228 0.2274 0.91762 0.0
H2597 H 0.75853 0.29336 0.01897 0.0
H2598 H 0.75741 0.27405 0.96579 0.0
H2599 H 0.78647 0.23475 0.97682 0.0
H2600 H 0.77846 0.21716 0.74737 0.0
H2601 H 0.78072 0.23602 0.80103 0.0
H2602 H 0.76653 0.24924 0.84766 0.0
C2603 C 0.76627 0.27465 0.98379 0.0
C2604 C 0.78222 0.23817 0.94865 0.0
C2605 C 0.76681 0.28553 0.01474 0.0
C2606 C 0.7773 0.21316 0.77764 0.0
C2607 C 0.77843 0.22403 0.80839 0.0
C2608 C 0.77107 0.24605 0.87556 0.0
C2609 C 0.77704 0.26464 0.97641 0.0
C2610 C 0.77666 0.25306 0.94354 0.0
C2611 C 0.77643 0.21951 0.84804 0.0
C2612 C 0.77671 0.23119 0.88067 0.0
H2613 H 0.79769 0.2771 0.04957 0.0
H2614 H 0.79691 0.25853 0.9953 0.0
H2615 H 0.76679 0.26828 0.90153 0.0
H2616 H 0.77006 0.18101 0.83303 0.0
H2617 H 0.77198 0.19988 0.88635 0.0
C2618 C 0.96255 0.62339 0.33993 0.0
C2619 C 0.96817 0.62538 0.37753 0.0
C2620 C 0.97025 0.62544 0.3059 0.0
C2621 C 0.00346 0.63979 0.27124 0.0
H2622 H 0.99682 0.61096 0.18502 0.0
C2623 C 0.04175 0.61712 0.15725 0.0
C2624 C 0.03765 0.61601 0.11753 0.0
C2625 C 0.03301 0.62241 0.1864 0.0
C2626 C 0.99866 0.61926 0.20859 0.0
H2627 H 0.98599 0.63123 0.40972 0.0
H2628 H -0.0003 0.63396 0.35072 0.0
H2629 H 0.9818 0.61161 0.24115 0.0
H2630 H 0.02145 0.62057 0.07683 0.0
H2631 H 0.0061 0.62942 0.12804 0.0
H2632 H 0.02095 0.64651 0.2393 0.0
C2633 C 0.98929 0.63139 0.34691 0.0
C2634 C 0.99001 0.61971 0.24082 0.0
C2635 C 0.98149 0.62968 0.38082 0.0
C2636 C 0.02492 0.62129 0.10716 0.0
C2637 C 0.01611 0.6263 0.13641 0.0
C2638 C 0.01227 0.63909 0.2393 0.0
C2639 C 0.98381 0.62916 0.30891 0.0
C2640 C 0.99238 0.62981 0.27293 0.0
C2641 C 0.01996 0.62644 0.17638 0.0
C2642 C 0.01 0.62869 0.20795 0.0
H2643 H 0.95219 0.6203 0.33691 0.0
H2644 H 0.96556 0.62399 0.27728 0.0
H2645 H 0.00547 0.64799 0.29486 0.0
H2646 H 0.05151 0.61321 0.16611 0.0
H2647 H 0.03617 0.62235 0.21709 0.0
C2648 C 0.71798 0.19387 0.18226 0.0
C2649 C 0.72196 0.19736 0.22114 0.0
C2650 C 0.71695 0.20564 0.15388 0.0
C2651 C 0.73111 0.24376 0.12982 0.0
H2652 H 0.70486 0.24287 0.04602 0.0
C2653 C 0.72882 0.2871 0.99531 0.0
C2654 C 0.72719 0.2797 0.95839 0.0
C2655 C 0.72796 0.2785 0.0306 0.0
C2656 C 0.71225 0.24327 0.06928 0.0
H2657 H 0.72747 0.2161 0.26117 0.0
H2658 H 0.72555 0.23669 0.21148 0.0
H2659 H 0.70245 0.22558 0.10291 0.0
H2660 H 0.72386 0.2574 0.92969 0.0
H2661 H 0.72219 0.24261 0.99085 0.0
H2662 H 0.74098 0.26138 0.09561 0.0
C2663 C 0.72332 0.22481 0.203 0.0
C2664 C 0.71088 0.23337 0.10181 0.0
C2665 C 0.72424 0.21302 0.23155 0.0
C2666 C 0.72501 0.26353 0.95757 0.0
C2667 C 0.72403 0.25503 0.9926 0.0
C2668 C 0.73243 0.25379 0.09731 0.0
C2669 C 0.71995 0.22118 0.16364 0.0
C2670 C 0.72045 0.23321 0.13199 0.0
C2671 C 0.72524 0.26245 0.02947 0.0
C2672 C 0.72319 0.25332 0.06625 0.0
H2673 H 0.71622 0.18193 0.17327 0.0
H2674 H 0.71446 0.20242 0.12374 0.0
H2675 H 0.73875 0.24376 0.15232 0.0
H2676 H 0.73021 0.29956 0.99725 0.0
H2677 H 0.72889 0.2845 0.05873 0.0
C2678 C 0.97019 0.36553 0.15681 0.0
C2679 C 0.97347 0.37478 0.12393 0.0
C2680 C 0.97929 0.36347 0.18767 0.0
C2681 C 0.0149 0.36726 0.21257 0.0
H2682 H 0.00226 0.37646 0.31852 0.0
C2683 C 0.04784 0.39276 0.3344 0.0
C2684 C 0.04517 0.38933 0.37435 0.0
C2685 C 0.03997 0.38654 0.30432 0.0
C2686 C 0.00595 0.37349 0.28933 0.0
H2687 H 0.9891 0.38812 0.09587 0.0
H2688 H 0.00486 0.3848 0.14979 0.0
H2689 H 0.98646 0.3738 0.26446 0.0
H2690 H 0.03273 0.3757 0.41379 0.0
H2691 H 0.01905 0.36475 0.36111 0.0
H2692 H 0.03443 0.3675 0.23719 0.0
C2693 C 0.99528 0.3792 0.15206 0.0
C2694 C 0.99687 0.37198 0.25832 0.0
C2695 C 0.98617 0.38134 0.12149 0.0
C2696 C 0.035 0.3787 0.38334 0.0
C2697 C 0.0271 0.37248 0.3532 0.0
C2698 C 0.02398 0.36872 0.24359 0.0
C2699 C 0.9919 0.37039 0.1857 0.0
C2700 C 0.00129 0.36936 0.2194 0.0
C2701 C 0.02925 0.37671 0.31346 0.0
C2702 C 0.01963 0.37235 0.28207 0.0
H2703 H 0.9605 0.36018 0.15902 0.0
H2704 H 0.97646 0.35652 0.2131 0.0
H2705 H 0.01857 0.36494 0.18297 0.0
H2706 H 0.05563 0.40084 0.32636 0.0
H2707 H 0.04184 0.39016 0.27408 0.0
C2708 C 0.78037 0.70665 0.51616 0.0
C2709 C 0.77448 0.7117 0.48077 0.0
C2710 C 0.78001 0.7161 0.54999 0.0
C2711 C 0.76403 0.75201 0.59076 0.0
H2712 H 0.7957 0.75417 0.65571 0.0
C2713 C 0.77611 0.80501 0.68582 0.0
C2714 C 0.77757 0.80227 0.72672 0.0
C2715 C 0.7762 0.79267 0.65898 0.0
C2716 C 0.78677 0.75354 0.63802 0.0
H2717 H 0.76389 0.73041 0.45218 0.0
H2718 H 0.76384 0.74732 0.51022 0.0
H2719 H 0.7942 0.73473 0.60287 0.0
H2720 H 0.78116 0.7844 0.77104 0.0
H2721 H 0.78179 0.7628 0.72338 0.0
H2722 H 0.75691 0.77131 0.6249 0.0
C2723 C 0.76815 0.73583 0.51291 0.0
C2724 C 0.78585 0.74238 0.60786 0.0
C2725 C 0.76822 0.72623 0.47953 0.0
C2726 C 0.7801 0.78696 0.73975 0.0
C2727 C 0.78037 0.77458 0.71261 0.0
C2728 C 0.76505 0.76328 0.62043 0.0
C2729 C 0.77406 0.73093 0.54862 0.0
C2730 C 0.77456 0.74167 0.58331 0.0
C2731 C 0.77795 0.77732 0.67223 0.0
C2732 C 0.77652 0.76433 0.64376 0.0
H2733 H 0.78529 0.69545 0.51754 0.0
H2734 H 0.7845 0.71183 0.57704 0.0
H2735 H 0.75503 0.75154 0.57337 0.0
H2736 H 0.7742 0.81662 0.67459 0.0
H2737 H 0.77452 0.79507 0.62784 0.0
C2738 C 0.53729 0.62035 0.65977 0.0
C2739 C 0.5319 0.62298 0.62212 0.0
C2740 C 0.52951 0.6224 0.69367 0.0
C2741 C 0.49677 0.63831 0.72793 0.0
H2742 H 0.50213 0.60896 0.81381 0.0
C2743 C 0.45755 0.61766 0.84181 0.0
C2744 C 0.4616 0.6165 0.88158 0.0
C2745 C 0.4665 0.62239 0.81258 0.0
C2746 C 0.50065 0.61739 0.79031 0.0
H2747 H 0.5144 0.6299 0.58971 0.0
H2748 H 0.50054 0.63264 0.64838 0.0
H2749 H 0.51724 0.60888 0.75781 0.0
H2750 H 0.47793 0.62037 0.92225 0.0
H2751 H 0.49362 0.62823 0.87088 0.0
H2752 H 0.47954 0.64593 0.75979 0.0
C2753 C 0.51084 0.62956 0.65239 0.0
C2754 C 0.50935 0.61742 0.75817 0.0
C2755 C 0.51872 0.62785 0.61865 0.0
C2756 C 0.4745 0.62116 0.89189 0.0
C2757 C 0.4835 0.62559 0.86255 0.0
C2758 C 0.4879 0.63802 0.75976 0.0
C2759 C 0.5161 0.6268 0.69043 0.0
C2760 C 0.50745 0.62773 0.72621 0.0
C2761 C 0.47968 0.62578 0.82256 0.0
C2762 C 0.48971 0.62746 0.79099 0.0
H2763 H 0.54753 0.61682 0.66296 0.0
H2764 H 0.53404 0.62051 0.72235 0.0
H2765 H 0.49513 0.64668 0.70445 0.0
H2766 H 0.44766 0.6142 0.83301 0.0
H2767 H 0.46335 0.62239 0.78187 0.0
C2768 C 0.28102 0.29205 0.50999 0.0
C2769 C 0.27255 0.28948 0.47774 0.0
C2770 C 0.28047 0.28242 0.54333 0.0
C2771 C 0.26122 0.24997 0.59062 0.0
H2772 H 0.29542 0.24047 0.63737 0.0
C2773 C 0.27132 0.19522 0.68413 0.0
C2774 C 0.27612 0.19782 0.72281 0.0
C2775 C 0.27098 0.20724 0.65639 0.0
C2776 C 0.28581 0.24313 0.62478 0.0
H2777 H 0.25665 0.27514 0.45507 0.0
H2778 H 0.25593 0.25791 0.51246 0.0
H2779 H 0.29387 0.26005 0.58529 0.0
H2780 H 0.28491 0.21508 0.76176 0.0
H2781 H 0.28491 0.23601 0.71204 0.0
H2782 H 0.2534 0.23227 0.62897 0.0
C2783 C 0.26278 0.2676 0.5129 0.0
C2784 C 0.28485 0.25443 0.59506 0.0
C2785 C 0.26316 0.27747 0.47988 0.0
C2786 C 0.28127 0.21261 0.73222 0.0
C2787 C 0.28118 0.22461 0.70395 0.0
C2788 C 0.26225 0.23841 0.61971 0.0
C2789 C 0.27171 0.26967 0.54464 0.0
C2790 C 0.27254 0.25803 0.57749 0.0
C2791 C 0.27568 0.2221 0.66621 0.0
C2792 C 0.27455 0.23489 0.63697 0.0
H2793 H 0.28828 0.30134 0.50906 0.0
H2794 H 0.28717 0.28478 0.56764 0.0
H2795 H 0.25153 0.25258 0.57857 0.0
H2796 H 0.26723 0.18404 0.67562 0.0
H2797 H 0.26687 0.20498 0.62728 0.0
C2798 C 0.47515 0.6109 0.15525 0.0
C2799 C 0.47439 0.6231 0.12769 0.0
C2800 C 0.48428 0.6115 0.18616 0.0
C2801 C 0.51132 0.61056 0.22353 0.0
H2802 H 0.51704 0.64528 0.29516 0.0
C2803 C 0.55261 0.6072 0.33694 0.0
C2804 C 0.54838 0.6097 0.37612 0.0
C2805 C 0.54491 0.6123 0.30516 0.0
C2806 C 0.51557 0.63555 0.27519 0.0
H2807 H 0.48165 0.6461 0.11261 0.0
H2808 H 0.49772 0.64719 0.16719 0.0
H2809 H 0.49984 0.64706 0.24382 0.0
H2810 H 0.53342 0.6208 0.41268 0.0
H2811 H 0.51988 0.62948 0.35704 0.0
H2812 H 0.52669 0.59883 0.25493 0.0
C2813 C 0.49135 0.6371 0.16445 0.0
C2814 C 0.5058 0.63659 0.24582 0.0
C2815 C 0.48221 0.63646 0.13328 0.0
C2816 C 0.53691 0.61861 0.38283 0.0
C2817 C 0.52917 0.62365 0.35094 0.0
C2818 C 0.5211 0.60956 0.25246 0.0
C2819 C 0.49272 0.6244 0.19039 0.0
C2820 C 0.50345 0.62396 0.22024 0.0
C2821 C 0.53281 0.61992 0.31187 0.0
C2822 C 0.52325 0.62195 0.27891 0.0
H2823 H 0.46886 0.60074 0.1524 0.0
H2824 H 0.48491 0.60172 0.20639 0.0
H2825 H 0.50984 0.60073 0.20384 0.0
H2826 H 0.56152 0.60061 0.33074 0.0
H2827 H 0.54811 0.60957 0.27529 0.0
C2828 C 0.21761 0.72886 0.97038 0.0
C2829 C 0.21951 0.71268 0.97202 0.0
C2830 C 0.21714 0.73768 0.00498 0.0
C2831 C 0.22634 0.73912 0.10944 0.0
H2832 H 0.19808 0.76971 0.11414 0.0
C2833 C 0.22057 0.78205 0.2411 0.0
C2834 C 0.21919 0.79772 0.22939 0.0
C2835 C 0.21912 0.77001 0.21344 0.0
C2836 C 0.20603 0.76124 0.11331 0.0
H2837 H 0.22237 0.69297 0.01127 0.0
H2838 H 0.22193 0.70858 0.07232 0.0
H2839 H 0.19922 0.75169 0.05844 0.0
H2840 H 0.21463 0.81297 0.18005 0.0
H2841 H 0.21188 0.79204 0.13209 0.0
H2842 H 0.23338 0.74905 0.16387 0.0
C2843 C 0.22087 0.71438 0.04397 0.0
C2844 C 0.20668 0.75093 0.08142 0.0
C2845 C 0.22125 0.70548 0.00908 0.0
C2846 C 0.21568 0.80103 0.19002 0.0
C2847 C 0.21407 0.78902 0.16256 0.0
C2848 C 0.2257 0.74949 0.14148 0.0
C2849 C 0.21849 0.73052 0.04218 0.0
C2850 C 0.21704 0.74005 0.07859 0.0
C2851 C 0.21607 0.77339 0.17371 0.0
C2852 C 0.21572 0.76094 0.14314 0.0
H2853 H 0.21632 0.73472 0.94218 0.0
H2854 H 0.21558 0.75013 0.00263 0.0
H2855 H 0.23444 0.73089 0.10774 0.0
H2856 H 0.22345 0.77912 0.27113 0.0
H2857 H 0.22066 0.75808 0.22294 0.0
C2858 C 0.02991 0.36502 0.64402 0.0
C2859 C 0.0306 0.37985 0.62619 0.0
C2860 C 0.02255 0.36271 0.67866 0.0
C2861 C 0.99668 0.36293 0.73075 0.0
H2862 H 0.00285 0.3889 0.82308 0.0
C2863 C 0.95734 0.38302 0.84342 0.0
C2864 C 0.9609 0.38366 0.88366 0.0
C2865 C 0.96645 0.378 0.81501 0.0
C2866 C 0.00114 0.38136 0.79781 0.0
H2867 H 0.02333 0.40365 0.63041 0.0
H2868 H 0.01138 0.3998 0.69188 0.0
H2869 H 0.01838 0.38974 0.7675 0.0
H2870 H 0.97648 0.37848 0.926 0.0
H2871 H 0.99249 0.37008 0.87609 0.0
H2872 H 0.97893 0.35536 0.75999 0.0
C2873 C 0.01668 0.39005 0.67906 0.0
C2874 C 0.00997 0.38192 0.76604 0.0
C2875 C 0.02376 0.39229 0.644 0.0
C2876 C 0.97343 0.37812 0.89523 0.0
C2877 C 0.98261 0.37337 0.86672 0.0
C2878 C 0.98768 0.3626 0.76225 0.0
C2879 C 0.01594 0.37524 0.69645 0.0
C2880 C 0.00767 0.37294 0.73201 0.0
C2881 C 0.97934 0.37376 0.82629 0.0
C2882 C 0.98973 0.37204 0.79573 0.0
H2883 H 0.03494 0.35513 0.63095 0.0
H2884 H 0.02203 0.35116 0.69156 0.0
H2885 H 0.99471 0.35599 0.70457 0.0
H2886 H 0.94773 0.38714 0.83365 0.0
H2887 H 0.96371 0.37849 0.78397 0.0
C2888 C 0.25635 0.78913 0.78538 0.0
C2889 C 0.26811 0.79311 0.7656 0.0
C2890 C 0.25592 0.77635 0.81075 0.0
C2891 C 0.27449 0.74129 0.84511 0.0
H2892 H 0.25465 0.74902 0.94158 0.0
C2893 C 0.2827 0.70809 0.99225 0.0
C2894 C 0.27174 0.70528 0.0168 0.0
C2895 C 0.28123 0.71631 0.95676 0.0
C2896 C 0.26003 0.74649 0.91456 0.0
H2897 H 0.28846 0.78644 0.75512 0.0
H2898 H 0.28802 0.7645 0.80185 0.0
H2899 H 0.25433 0.76815 0.88891 0.0
H2900 H 0.25062 0.70883 0.02351 0.0
H2901 H 0.24799 0.72303 0.96132 0.0
H2902 H 0.28055 0.71977 0.87199 0.0
C2903 C 0.27902 0.77108 0.79699 0.0
C2904 C 0.25986 0.7575 0.88418 0.0
C2905 C 0.27935 0.78373 0.77061 0.0
C2906 C 0.25919 0.71048 0.00474 0.0
C2907 C 0.25773 0.71881 0.96939 0.0
C2908 C 0.27474 0.73028 0.87579 0.0
C2909 C 0.26734 0.76743 0.81796 0.0
C2910 C 0.26715 0.75513 0.84914 0.0
C2911 C 0.26878 0.72209 0.94538 0.0
C2912 C 0.2676 0.73285 0.91101 0.0
H2913 H 0.24739 0.79584 0.78092 0.0
H2914 H 0.24662 0.77357 0.8251 0.0
H2915 H 0.28003 0.73893 0.81828 0.0
H2916 H 0.2925 0.70429 0.00105 0.0
H2917 H 0.28997 0.71883 0.9393 0.0
C2918 C 0.01559 0.63484 0.86755 0.0
C2919 C 0.0234 0.62145 0.87267 0.0
C2920 C 0.00625 0.63552 0.83693 0.0
C2921 C 0.99147 0.63539 0.7564 0.0
H2922 H 0.97088 0.5975 0.74492 0.0
C2923 C 0.9611 0.61859 0.61741 0.0
C2924 C 0.94979 0.60925 0.62268 0.0
C2925 C 0.96857 0.62337 0.65011 0.0
C2926 C 0.97636 0.60828 0.74808 0.0
H2927 H 0.02865 0.59903 0.84776 0.0
H2928 H 0.01231 0.60011 0.79462 0.0
H2929 H 0.9876 0.59916 0.79642 0.0
H2930 H 0.93665 0.59907 0.66652 0.0
H2931 H 0.94957 0.60761 0.72344 0.0
H2932 H 0.98024 0.64439 0.70744 0.0
C2933 C 0.01307 0.60987 0.81485 0.0
C2934 C 0.98608 0.60913 0.77724 0.0
C2935 C 0.02239 0.60923 0.84525 0.0
C2936 C 0.94544 0.60602 0.66139 0.0
C2937 C 0.95286 0.61087 0.69402 0.0
C2938 C 0.98174 0.6345 0.72689 0.0
C2939 C 0.00467 0.62283 0.81102 0.0
C2940 C 0.99388 0.62257 0.7813 0.0
C2941 C 0.96483 0.61895 0.68863 0.0
C2942 C 0.97418 0.62085 0.7222 0.0
H2943 H 0.01633 0.64449 0.88814 0.0
H2944 H -8e-05 0.64567 0.83452 0.0
H2945 H 0.99735 0.64589 0.75897 0.0
H2946 H 0.96468 0.62136 0.58798 0.0
H2947 H 0.97776 0.62956 0.64496 0.0
C2948 C 0.21878 0.2633 0.5393 0.0
C2949 C 0.22248 0.27901 0.53644 0.0
C2950 C 0.21878 0.25378 0.50579 0.0
C2951 C 0.23106 0.25015 0.40307 0.0
H2952 H 0.20111 0.22209 0.39277 0.0
C2953 C 0.22358 0.21127 0.26488 0.0
C2954 C 0.22138 0.19543 0.27351 0.0
C2955 C 0.22261 0.22252 0.29474 0.0
C2956 C 0.20955 0.22983 0.39527 0.0
H2957 H 0.229 0.2972 0.49656 0.0
H2958 H 0.22896 0.28051 0.43748 0.0
H2959 H 0.20246 0.23955 0.4496 0.0
H2960 H 0.21576 0.17913 0.31964 0.0
H2961 H 0.21383 0.19879 0.37145 0.0
H2962 H 0.23819 0.2402 0.34883 0.0
C2963 C 0.22635 0.27548 0.46585 0.0
C2964 C 0.21036 0.23979 0.4279 0.0
C2965 C 0.22644 0.285 0.4996 0.0
C2966 C 0.21746 0.19123 0.31201 0.0
C2967 C 0.21634 0.2025 0.34169 0.0
C2968 C 0.23023 0.24017 0.37033 0.0
C2969 C 0.22229 0.25983 0.4685 0.0
C2970 C 0.22122 0.24988 0.43255 0.0
C2971 C 0.21926 0.2182 0.33364 0.0
C2972 C 0.21955 0.22976 0.36638 0.0
H2973 H 0.2157 0.25843 0.56747 0.0
H2974 H 0.21587 0.2417 0.50903 0.0
H2975 H 0.23958 0.25773 0.40587 0.0
H2976 H 0.22677 0.21488 0.23562 0.0
H2977 H 0.22475 0.23456 0.28764 0.0
C2978 C 0.52284 0.38011 0.10516 0.0
C2979 C 0.53572 0.38475 0.1157 0.0
C2980 C 0.51388 0.37534 0.13427 0.0
C2981 C 0.50976 0.36173 0.23616 0.0
H2982 H 0.48044 0.39082 0.24139 0.0
C2983 C 0.48029 0.3713 0.37984 0.0
C2984 C 0.46713 0.37636 0.3777 0.0
C2985 C 0.48777 0.36954 0.34534 0.0
C2986 C 0.48831 0.38228 0.24007 0.0
H2987 H 0.54967 0.38674 0.1643 0.0
H2988 H 0.53408 0.37795 0.21501 0.0
H2989 H 0.49522 0.39129 0.18464 0.0
H2990 H 0.4511 0.38274 0.33847 0.0
H2991 H 0.46392 0.37901 0.27776 0.0
H2992 H 0.50286 0.35256 0.29131 0.0
C2993 C 0.5309 0.37822 0.18433 0.0
C2994 C 0.49682 0.38263 0.20751 0.0
C2995 C 0.53979 0.3833 0.15537 0.0
C2996 C 0.46134 0.37907 0.34062 0.0
C2997 C 0.46873 0.37699 0.30597 0.0
C2998 C 0.50107 0.36113 0.26839 0.0
C2999 C 0.51775 0.37477 0.1742 0.0
C3000 C 0.50778 0.37262 0.20575 0.0
C3001 C 0.48214 0.37247 0.30787 0.0
C3002 C 0.49043 0.37171 0.27135 0.0
H3003 H 0.5194 0.38114 0.07485 0.0
H3004 H 0.50377 0.37269 0.12585 0.0
H3005 H 0.51814 0.35385 0.23525 0.0
H3006 H 0.48491 0.36918 0.40833 0.0
H3007 H 0.4981 0.36637 0.34832 0.0
C3008 C 0.24328 0.12619 0.34965 0.0
C3009 C 0.2547 0.13424 0.33736 0.0
C3010 C 0.24199 0.12115 0.38886 0.0
C3011 C 0.25953 0.11385 0.48287 0.0
H3012 H 0.22874 0.13283 0.53162 0.0
C3013 C 0.25773 0.12924 0.64824 0.0
C3014 C 0.24549 0.13097 0.66761 0.0
C3015 C 0.25826 0.12505 0.60828 0.0
C3016 C 0.23722 0.12703 0.51868 0.0
H3017 H 0.27416 0.14212 0.3557 0.0
H3018 H 0.27197 0.13305 0.42404 0.0
H3019 H 0.23108 0.13322 0.46005 0.0
H3020 H 0.22427 0.1283 0.66114 0.0
H3021 H 0.22519 0.12031 0.59178 0.0
H3022 H 0.26575 0.10771 0.54144 0.0
C3023 C 0.26399 0.13078 0.40337 0.0
C3024 C 0.23857 0.12733 0.4775 0.0
C3025 C 0.26522 0.13603 0.36428 0.0
C3026 C 0.23384 0.12725 0.64692 0.0
C3027 C 0.23439 0.1228 0.60702 0.0
C3028 C 0.25807 0.11329 0.52411 0.0
C3029 C 0.25217 0.12381 0.41637 0.0
C3030 C 0.24991 0.12115 0.45927 0.0
C3031 C 0.24658 0.12222 0.58672 0.0
C3032 C 0.2471 0.12034 0.54272 0.0
H3033 H 0.235 0.12456 0.32965 0.0
H3034 H 0.23282 0.11569 0.39809 0.0
H3035 H 0.26832 0.10888 0.46948 0.0
H3036 H 0.26692 0.13199 0.66324 0.0
H3037 H 0.26784 0.12495 0.5939 0.0
C3038 C 0.08928 0.97396 0.62846 0.0
C3039 C 0.08801 0.95775 0.63267 0.0
C3040 C 0.09389 0.98303 0.65996 0.0
C3041 C 0.09342 0.98199 0.76773 0.0
H3042 H 0.11187 0.02141 0.75761 0.0
C3043 C 0.09208 0.02589 0.89473 0.0
C3044 C 0.08815 0.04086 0.88271 0.0
C3045 C 0.09672 0.01512 0.86692 0.0
C3046 C 0.10674 0.0104 0.76094 0.0
H3047 H 0.09165 0.93817 0.6719 0.0
H3048 H 0.09978 0.95399 0.72673 0.0
H3049 H 0.11174 0.00313 0.70203 0.0
H3050 H 0.08691 0.05668 0.83263 0.0
H3051 H 0.09464 0.03786 0.78415 0.0
H3052 H 0.08779 0.98948 0.82558 0.0
C3053 C 0.09696 0.95973 0.69939 0.0
C3054 C 0.10668 -5e-05 0.72915 0.0
C3055 C 0.09232 0.95067 0.66795 0.0
C3056 C 0.08977 0.04519 0.84283 0.0
C3057 C 0.09434 0.03442 0.81503 0.0
C3058 C 0.09345 0.99242 0.79938 0.0
C3059 C 0.09735 0.97605 0.69622 0.0
C3060 C 0.09964 0.98585 0.73179 0.0
C3061 C 0.09745 0.01911 0.82653 0.0
C3062 C 0.09973 0.00697 0.79591 0.0
H3063 H 0.08611 0.97976 0.60156 0.0
H3064 H 0.09395 0.99558 0.65663 0.0
H3065 H 0.08774 0.97134 0.77061 0.0
H3066 H 0.09112 0.02227 0.92536 0.0
H3067 H 0.09926 0.0035 0.87682 0.0
C3068 C 0.26124 0.86018 0.13097 0.0
C3069 C 0.25071 0.86125 0.15808 0.0
C3070 C 0.25963 0.86524 0.09185 0.0
C3071 C 0.2338 0.86691 0.01836 0.0
H3072 H 0.26008 0.88763 0.95335 0.0
C3073 C 0.22898 0.86601 0.84884 0.0
C3074 C 0.24075 0.86251 0.82851 0.0
C3075 C 0.22935 0.87068 0.88861 0.0
C3076 C 0.25265 0.88176 0.97101 0.0
H3077 H 0.23056 0.86951 0.16612 0.0
H3078 H 0.22775 0.87807 0.09768 0.0
H3079 H 0.26282 0.88697 0.02529 0.0
H3080 H 0.26219 0.86214 0.83331 0.0
H3081 H 0.26282 0.86962 0.90235 0.0
H3082 H 0.22408 0.86068 0.96453 0.0
C3083 C 0.2372 0.87329 0.10673 0.0
C3084 C 0.25421 0.88148 0.01221 0.0
C3085 C 0.23885 0.86842 0.14594 0.0
C3086 C 0.2529 0.86465 0.84807 0.0
C3087 C 0.25327 0.86912 0.88781 0.0
C3088 C 0.23235 0.86697 0.9772 0.0
C3089 C 0.24744 0.87132 0.07904 0.0
C3090 C 0.24494 0.87374 0.03618 0.0
C3091 C 0.2415 0.87178 0.909 0.0
C3092 C 0.24194 0.87403 0.95284 0.0
H3093 H 0.27051 0.85479 0.13943 0.0
H3094 H 0.26767 0.86351 0.07104 0.0
H3095 H 0.22658 0.8607 0.03609 0.0
H3096 H 0.21946 0.86465 0.83449 0.0
H3097 H 0.22009 0.87298 0.90367 0.0
C3098 C 0.4039 0.95574 0.35229 0.0
C3099 C 0.40958 0.96183 0.38704 0.0
C3100 C 0.39987 0.96566 0.3218 0.0
C3101 C 0.39468 0.00724 0.294 0.0
H3102 H 0.4104 0.99404 0.19467 0.0
C3103 C 0.41302 0.0498 0.1748 0.0
C3104 C 0.41296 0.04519 0.13484 0.0
C3105 C 0.4085 0.0397 0.20427 0.0
C3106 C 0.40564 0.99782 0.22178 0.0
H3107 H 0.41449 0.98312 0.41841 0.0
H3108 H 0.40772 0.00042 0.36495 0.0
H3109 H 0.40941 0.97598 0.24974 0.0
H3110 H 0.4072 0.02684 0.09411 0.0
H3111 H 0.39912 0.00928 0.14553 0.0
H3112 H 0.39142 0.02936 0.26618 0.0
C3113 C 0.40625 0.98799 0.36132 0.0
C3114 C 0.40507 0.98743 0.25347 0.0
C3115 C 0.41022 0.97807 0.39191 0.0
C3116 C 0.40755 0.03065 0.12471 0.0
C3117 C 0.40295 0.02058 0.15417 0.0
C3118 C 0.39523 0.01766 0.26216 0.0
C3119 C 0.40149 0.98187 0.32536 0.0
C3120 C 0.39993 0.99214 0.29029 0.0
C3121 C 0.40374 0.0248 0.19439 0.0
C3122 C 0.40107 0.01319 0.22605 0.0
H3123 H 0.40307 0.94327 0.3479 0.0
H3124 H 0.396 0.96061 0.29474 0.0
H3125 H 0.3905 0.01114 0.32185 0.0
H3126 H 0.41708 0.06097 0.18357 0.0
H3127 H 0.4094 0.04328 0.23494 0.0
C3128 C 0.77133 0.86791 0.34406 0.0
C3129 C 0.75956 0.86642 0.32221 0.0
C3130 C 0.77096 0.87226 0.38403 0.0
C3131 C 0.74806 0.88544 0.46566 0.0
H3132 H 0.77206 0.86111 0.53061 0.0
C3133 C 0.73804 0.86584 0.62726 0.0
C3134 C 0.74871 0.86593 0.65401 0.0
C3135 C 0.73991 0.8702 0.58767 0.0
C3136 C 0.76543 0.8682 0.51293 0.0
H3137 H 0.73823 0.86925 0.32453 0.0
H3138 H 0.73751 0.87615 0.39417 0.0
H3139 H 0.77462 0.86097 0.45915 0.0
H3140 H 0.76954 0.87161 0.66071 0.0
H3141 H 0.7728 0.87894 0.59148 0.0
H3142 H 0.73837 0.89173 0.52003 0.0
C3143 C 0.7471 0.87437 0.3806 0.0
C3144 C 0.76692 0.86821 0.47179 0.0
C3145 C 0.7475 0.87032 0.34048 0.0
C3146 C 0.76111 0.87134 0.64088 0.0
C3147 C 0.76301 0.87549 0.6012 0.0
C3148 C 0.74643 0.8852 0.5069 0.0
C3149 C 0.75879 0.8749 0.40333 0.0
C3150 C 0.75813 0.8766 0.4474 0.0
C3151 C 0.75252 0.87455 0.57398 0.0
C3152 C 0.75499 0.87639 0.53086 0.0
H3153 H 0.78079 0.86515 0.33068 0.0
H3154 H 0.78022 0.87301 0.4001 0.0
H3155 H 0.74125 0.89231 0.4481 0.0
H3156 H 0.72836 0.8618 0.63646 0.0
H3157 H 0.73165 0.86928 0.56728 0.0
C3158 C 0.90696 0.0483 0.33554 0.0
C3159 C 0.91122 0.04183 0.37161 0.0
C3160 C 0.90259 0.03869 0.30482 0.0
C3161 C 0.89384 0.99772 0.27861 0.0
H3162 H 0.91202 0.00786 0.18073 0.0
C3163 C 0.91108 0.95213 0.16558 0.0
C3164 C 0.91195 0.95623 0.12534 0.0
C3165 C 0.90664 0.96293 0.19353 0.0
C3166 C 0.90658 0.00498 0.2074 0.0
H3167 H 0.91337 0.02033 0.40481 0.0
H3168 H 0.90609 0.00355 0.35095 0.0
H3169 H 0.91186 0.02654 0.2345 0.0
H3170 H 0.90781 0.97441 0.08238 0.0
H3171 H 0.89995 0.99321 0.13118 0.0
H3172 H 0.88914 0.97577 0.25179 0.0
C3173 C 0.90593 0.01604 0.34646 0.0
C3174 C 0.90648 0.01573 0.23835 0.0
C3175 C 0.91021 0.02566 0.37728 0.0
C3176 C 0.90744 0.97097 0.11325 0.0
C3177 C 0.90296 0.98176 0.1412 0.0
C3178 C 0.89395 0.98692 0.24756 0.0
C3179 C 0.90249 0.02241 0.30945 0.0
C3180 C 0.90046 0.01206 0.27473 0.0
C3181 C 0.90293 0.97802 0.18178 0.0
C3182 C 0.90067 0.99027 0.21206 0.0
H3183 H 0.90742 0.06076 0.33051 0.0
H3184 H 0.89976 0.04398 0.27691 0.0
H3185 H 0.88894 0.99465 0.30607 0.0
H3186 H 0.91441 0.94082 0.17582 0.0
H3187 H 0.90687 0.95971 0.22457 0.0
C3188 C 0.75322 0.12662 0.84406 0.0
C3189 C 0.74111 0.13005 0.82548 0.0
C3190 C 0.75356 0.12163 0.88342 0.0
C3191 C 0.73302 0.12505 0.97347 0.0
H3192 H 0.76307 0.10403 0.02113 0.0
C3193 C 0.74016 0.12482 0.14166 0.0
C3194 C 0.75222 0.13178 0.15281 0.0
C3195 C 0.73827 0.11947 0.10296 0.0
C3196 C 0.75457 0.1098 0.00817 0.0
H3197 H 0.71978 0.12932 0.8323 0.0
H3198 H 0.72031 0.11992 0.90052 0.0
H3199 H 0.75998 0.10305 0.94931 0.0
H3200 H 0.77211 0.13728 0.13307 0.0
H3201 H 0.76882 0.12777 0.06555 0.0
H3202 H 0.72772 0.1319 0.03229 0.0
C3203 C 0.72961 0.12174 0.88525 0.0
C3204 C 0.75281 0.10934 0.96702 0.0
C3205 C 0.72929 0.127 0.84597 0.0
C3206 C 0.76269 0.13208 0.12536 0.0
C3207 C 0.76083 0.12656 0.08674 0.0
C3208 C 0.73465 0.12526 0.01454 0.0
C3209 C 0.74177 0.11967 0.90508 0.0
C3210 C 0.74228 0.11745 0.94896 0.0
C3211 C 0.74844 0.12076 0.0748 0.0
C3212 C 0.74566 0.11808 0.03219 0.0
H3213 H 0.76254 0.12876 0.82913 0.0
H3214 H 0.76313 0.12033 0.89744 0.0
H3215 H 0.72491 0.13167 0.96097 0.0
H3216 H 0.73191 0.12428 0.16213 0.0
H3217 H 0.72866 0.11491 0.09458 0.0
C3218 C 0.59065 0.02174 0.61964 0.0
C3219 C 0.59024 0.03797 0.62473 0.0
C3220 C 0.59492 0.0121 0.65045 0.0
C3221 C 0.59524 0.01254 0.7585 0.0
H3222 H 0.61082 0.97155 0.74573 0.0
C3223 C 0.59293 0.9686 0.88529 0.0
C3224 C 0.58781 0.95405 0.87391 0.0
C3225 C 0.59777 0.97895 0.8568 0.0
C3226 C 0.6065 0.98299 0.74978 0.0
H3227 H 0.59516 0.05694 0.66463 0.0
H3228 H 0.60281 0.04013 0.71818 0.0
H3229 H 0.61142 0.99006 0.69066 0.0
H3230 H 0.58463 0.93848 0.82412 0.0
H3231 H 0.59277 0.95663 0.77444 0.0
H3232 H 0.58974 0.00534 0.81672 0.0
C3233 C 0.59951 0.03482 0.69077 0.0
C3234 C 0.60685 0.99358 0.71828 0.0
C3235 C 0.59516 0.04445 0.66006 0.0
C3236 C 0.58843 0.94965 0.83383 0.0
C3237 C 0.59321 0.96002 0.80534 0.0
C3238 C 0.59489 0.00199 0.78989 0.0
C3239 C 0.59896 0.01852 0.68687 0.0
C3240 C 0.60085 0.0083 0.72192 0.0
C3241 C 0.59754 0.97498 0.81637 0.0
C3242 C 0.60015 0.98692 0.78551 0.0
H3243 H 0.58699 0.01639 0.59269 0.0
H3244 H 0.59426 -0.0004 0.64652 0.0
H3245 H 0.59033 0.02366 0.7622 0.0
H3246 H 0.59277 0.97225 0.91603 0.0
H3247 H 0.60126 0.99029 0.8663 0.0
C3248 C 0.74384 0.62917 0.84904 0.0
C3249 C 0.75545 0.6372 0.83838 0.0
C3250 C 0.74181 0.6244 0.88818 0.0
C3251 C 0.75737 0.61736 0.98495 0.0
H3252 H 0.72634 0.63779 0.0283 0.0
C3253 C 0.75335 0.63356 0.14924 0.0
C3254 C 0.74089 0.636 0.1668 0.0
C3255 C 0.75436 0.62917 0.10954 0.0
C3256 C 0.73485 0.63158 0.01687 0.0
H3257 H 0.7745 0.64533 0.85964 0.0
H3258 H 0.77105 0.63665 0.9279 0.0
H3259 H 0.72991 0.63768 0.95716 0.0
H3260 H 0.71972 0.63441 0.15737 0.0
H3261 H 0.72144 0.62604 0.08842 0.0
H3262 H 0.76237 0.61123 0.04453 0.0
C3263 C 0.76348 0.63422 0.90598 0.0
C3264 C 0.73692 0.63161 0.97595 0.0
C3265 C 0.76543 0.63923 0.86696 0.0
C3266 C 0.72946 0.63282 0.14456 0.0
C3267 C 0.73047 0.62815 0.10488 0.0
C3268 C 0.75518 0.61705 0.02591 0.0
C3269 C 0.75145 0.62728 0.91722 0.0
C3270 C 0.74838 0.62492 0.95973 0.0
C3271 C 0.74294 0.62682 0.0864 0.0
C3272 C 0.74412 0.62464 0.0426 0.0
H3273 H 0.73595 0.62738 0.82775 0.0
H3274 H 0.73248 0.61899 0.89611 0.0
H3275 H 0.76623 0.612 0.97306 0.0
H3276 H 0.76239 0.63587 0.16549 0.0
H3277 H 0.76414 0.62851 0.09659 0.0
C3278 C 0.58185 0.44917 0.17386 0.0
C3279 C 0.58625 0.4511 0.13473 0.0
C3280 C 0.58681 0.45856 0.20412 0.0
C3281 C 0.60295 0.4969 0.21817 0.0
H3282 H 0.59945 0.48447 0.32807 0.0
C3283 C 0.58949 0.54069 0.33779 0.0
C3284 C 0.592 0.53759 0.37794 0.0
C3285 C 0.59334 0.53013 0.30862 0.0
C3286 C 0.60084 0.48819 0.29771 0.0
H3287 H 0.59993 0.46358 0.09684 0.0
H3288 H 0.60913 0.47954 0.15004 0.0
H3289 H 0.59871 0.46488 0.27663 0.0
H3290 H 0.60142 0.52161 0.41889 0.0
H3291 H 0.60872 0.50342 0.36772 0.0
H3292 H 0.6056 0.52013 0.23932 0.0
C3293 C 0.60145 0.47121 0.15724 0.0
C3294 C 0.60015 0.47691 0.26795 0.0
C3295 C 0.59624 0.46202 0.12673 0.0
C3296 C 0.5992 0.52418 0.38816 0.0
C3297 C 0.60331 0.51372 0.3588 0.0
C3298 C 0.60403 0.50812 0.24797 0.0
C3299 C 0.59654 0.4699 0.19621 0.0
C3300 C 0.60043 0.48122 0.2277 0.0
C3301 C 0.60005 0.51631 0.3187 0.0
C3302 C 0.60222 0.50405 0.28803 0.0
H3303 H 0.5741 0.44089 0.1809 0.0
H3304 H 0.5825 0.45734 0.23332 0.0
H3305 H 0.60329 0.50079 0.18767 0.0
H3306 H 0.58392 0.5509 0.32892 0.0
H3307 H 0.59036 0.5325 0.2784 0.0
C3308 C 0.74576 0.37796 0.6605 0.0
C3309 C 0.75769 0.37088 0.67227 0.0
C3310 C 0.7441 0.3832 0.62154 0.0
C3311 C 0.76121 0.39171 0.52683 0.0
H3312 H 0.73138 0.37036 0.47913 0.0
C3313 C 0.76076 0.37318 0.36375 0.0
C3314 C 0.7487 0.37079 0.34381 0.0
C3315 C 0.76093 0.37811 0.40317 0.0
C3316 C 0.73956 0.3768 0.49177 0.0
H3317 H 0.77763 0.3651 0.65354 0.0
H3318 H 0.7748 0.37444 0.5858 0.0
H3319 H 0.7336 0.37091 0.55073 0.0
H3320 H 0.72738 0.37297 0.34873 0.0
H3321 H 0.72767 0.38208 0.41727 0.0
H3322 H 0.76733 0.39739 0.46785 0.0
C3323 C 0.76669 0.37584 0.60655 0.0
C3324 C 0.74085 0.37707 0.533 0.0
C3325 C 0.7683 0.37042 0.64533 0.0
C3326 C 0.73684 0.37452 0.36337 0.0
C3327 C 0.73701 0.37964 0.4028 0.0
C3328 C 0.75984 0.39164 0.48555 0.0
C3329 C 0.75441 0.38168 0.59382 0.0
C3330 C 0.75191 0.38408 0.5509 0.0
C3331 C 0.74904 0.38098 0.42367 0.0
C3332 C 0.74925 0.38368 0.46738 0.0
H3333 H 0.73739 0.37854 0.68054 0.0
H3334 H 0.73457 0.38779 0.61259 0.0
H3335 H 0.76977 0.39734 0.53991 0.0
H3336 H 0.77011 0.37048 0.34959 0.0
H3337 H 0.77039 0.37879 0.41811 0.0
C3338 C 0.90587 0.53944 0.64633 0.0
C3339 C 0.90827 0.53521 0.60673 0.0
C3340 C 0.90231 0.52819 0.67423 0.0
C3341 C 0.90768 0.48672 0.69144 0.0
H3342 H 0.88749 0.49486 0.78702 0.0
C3343 C 0.91084 0.44516 0.82366 0.0
C3344 C 0.91381 0.45262 0.85968 0.0
C3345 C 0.90614 0.45371 0.79137 0.0
C3346 C 0.89312 0.4924 0.76041 0.0
H3347 H 0.90768 0.51613 0.56458 0.0
H3348 H 0.90128 0.4965 0.61327 0.0
H3349 H 0.88597 0.51287 0.73106 0.0
H3350 H 0.91337 0.47473 0.89086 0.0
H3351 H 0.9054 0.48968 0.83437 0.0
H3352 H 0.91526 0.46665 0.72113 0.0
C3353 C 0.90245 0.50846 0.6229 0.0
C3354 C 0.89225 0.5027 0.7284 0.0
C3355 C 0.90607 0.51972 0.59499 0.0
C3356 C 0.91125 0.46865 0.86345 0.0
C3357 C 0.90657 0.4772 0.83113 0.0
C3358 C 0.90851 0.47643 0.72333 0.0
C3359 C 0.901 0.51248 0.6631 0.0
C3360 C 0.89985 0.50023 0.69403 0.0
C3361 C 0.90432 0.4699 0.79442 0.0
C3362 C 0.90157 0.47941 0.75862 0.0
H3363 H 0.90739 0.5513 0.65632 0.0
H3364 H 0.90139 0.53169 0.70495 0.0
H3365 H 0.91383 0.48456 0.66574 0.0
H3366 H 0.91254 0.43278 0.81995 0.0
H3367 H 0.90431 0.44772 0.76365 0.0
C3368 C 0.24519 0.36874 0.84604 0.0
C3369 C 0.25737 0.36515 0.82807 0.0
C3370 C 0.24463 0.37303 0.88594 0.0
C3371 C 0.26439 0.36802 0.97758 0.0
H3372 H 0.23474 0.39007 0.0244 0.0
C3373 C 0.2571 0.37027 0.14621 0.0
C3374 C 0.24494 0.3637 0.15791 0.0
C3375 C 0.25913 0.37487 0.10693 0.0
C3376 C 0.24312 0.38399 0.01166 0.0
H3377 H 0.27862 0.36473 0.83679 0.0
H3378 H 0.27773 0.373 0.9059 0.0
H3379 H 0.23807 0.39095 0.95269 0.0
H3380 H 0.22507 0.358 0.13834 0.0
H3381 H 0.22858 0.36634 0.06986 0.0
H3382 H 0.26938 0.36108 0.03665 0.0
C3383 C 0.26853 0.37182 0.88974 0.0
C3384 C 0.24501 0.38438 0.97055 0.0
C3385 C 0.26907 0.36722 0.84995 0.0
C3386 C 0.23456 0.36295 0.13022 0.0
C3387 C 0.23654 0.36778 0.09106 0.0
C3388 C 0.26264 0.36789 0.01864 0.0
C3389 C 0.25626 0.37414 0.90878 0.0
C3390 C 0.25544 0.37599 0.95278 0.0
C3391 C 0.24899 0.37327 0.07875 0.0
C3392 C 0.25179 0.37551 0.03598 0.0
H3393 H 0.23597 0.36725 0.83008 0.0
H3394 H 0.23497 0.37453 0.89929 0.0
H3395 H 0.27239 0.36115 0.96533 0.0
H3396 H 0.2653 0.37106 0.1668 0.0
H3397 H 0.26879 0.37917 0.09822 0.0
C3398 C 0.4073 0.46068 0.6551 0.0
C3399 C 0.4093 0.46471 0.61517 0.0
C3400 C 0.4033 0.47191 0.68251 0.0
C3401 C 0.4067 0.51375 0.69738 0.0
H3402 H 0.38708 0.50513 0.79376 0.0
C3403 C 0.40925 0.55604 0.8278 0.0
C3404 C 0.41266 0.54883 0.8638 0.0
C3405 C 0.40446 0.5472 0.79613 0.0
C3406 C 0.39254 0.50773 0.76692 0.0
H3407 H 0.40759 0.48335 0.57202 0.0
H3408 H 0.40046 0.50294 0.61989 0.0
H3409 H 0.38624 0.48663 0.73871 0.0
H3410 H 0.41282 0.52689 0.89577 0.0
H3411 H 0.40474 0.51145 0.84036 0.0
H3412 H 0.4135 0.53443 0.72596 0.0
C3413 C 0.40226 0.49116 0.63012 0.0
C3414 C 0.39206 0.49715 0.73543 0.0
C3415 C 0.40631 0.47993 0.60269 0.0
C3416 C 0.41036 0.53278 0.86834 0.0
C3417 C 0.40562 0.52394 0.83662 0.0
C3418 C 0.40716 0.52431 0.72876 0.0
C3419 C 0.40116 0.4874 0.67056 0.0
C3420 C 0.39949 0.49981 0.70082 0.0
C3421 C 0.40302 0.53098 0.79979 0.0
C3422 C 0.40044 0.52118 0.76436 0.0
H3423 H 0.40943 0.44902 0.66564 0.0
H3424 H 0.40268 0.46863 0.71346 0.0
H3425 H 0.4127 0.51608 0.67145 0.0
H3426 H 0.41073 0.56843 0.82356 0.0
H3427 H 0.40233 0.553 0.76833 0.0
C3428 C 0.26807 0.63201 0.64787 0.0
C3429 C 0.2564 0.6332 0.67031 0.0
C3430 C 0.26755 0.62769 0.60789 0.0
C3431 C 0.24425 0.61414 0.52741 0.0
H3432 H 0.26812 0.63793 0.4608 0.0
C3433 C 0.23397 0.63414 0.36608 0.0
C3434 C 0.24442 0.63305 0.3387 0.0
C3435 C 0.23585 0.62981 0.40568 0.0
C3436 C 0.26152 0.63101 0.47899 0.0
H3437 H 0.23511 0.63 0.66893 0.0
H3438 H 0.2341 0.62324 0.59931 0.0
H3439 H 0.27098 0.63842 0.53218 0.0
H3440 H 0.26483 0.62573 0.33093 0.0
H3441 H 0.26816 0.61855 0.40032 0.0
H3442 H 0.23425 0.60776 0.47359 0.0
C3443 C 0.24374 0.62515 0.6124 0.0
C3444 C 0.26319 0.63119 0.52009 0.0
C3445 C 0.2443 0.62913 0.65254 0.0
C3446 C 0.25656 0.6267 0.35125 0.0
C3447 C 0.25851 0.62265 0.39098 0.0
C3448 C 0.24243 0.61424 0.48625 0.0
C3449 C 0.25532 0.62481 0.58912 0.0
C3450 C 0.25445 0.62297 0.54507 0.0
C3451 C 0.24828 0.62456 0.41875 0.0
C3452 C 0.25095 0.62285 0.46175 0.0
H3453 H 0.27756 0.63492 0.66088 0.0
H3454 H 0.27674 0.62709 0.59145 0.0
H3455 H 0.23749 0.60737 0.54536 0.0
H3456 H 0.22449 0.63895 0.3573 0.0
H3457 H 0.22782 0.63147 0.42655 0.0
C3458 C 0.08976 0.55423 0.16996 0.0
C3459 C 0.08599 0.54718 0.13409 0.0
C3460 C 0.09477 0.54524 0.20103 0.0
C3461 C 0.10653 0.50544 0.22834 0.0
H3462 H 0.08745 0.51385 0.32574 0.0
C3463 C 0.09164 0.45835 0.33987 0.0
C3464 C 0.09011 0.46226 0.38005 0.0
C3465 C 0.09573 0.46955 0.31249 0.0
C3466 C 0.09316 0.5115 0.29923 0.0
H3467 H 0.08538 0.52535 0.10167 0.0
H3468 H 0.09381 0.50964 0.15607 0.0
H3469 H 0.08642 0.53243 0.27181 0.0
H3470 H 0.09278 0.48059 0.42363 0.0
H3471 H 0.10004 0.50012 0.37581 0.0
H3472 H 0.1127 0.48405 0.25541 0.0
C3473 C 0.09307 0.52212 0.16015 0.0
C3474 C 0.09256 0.52219 0.26818 0.0
C3475 C 0.08812 0.53113 0.12903 0.0
C3476 C 0.09369 0.47727 0.39277 0.0
C3477 C 0.09782 0.48847 0.36538 0.0
C3478 C 0.10712 0.49471 0.25948 0.0
C3479 C 0.09606 0.52901 0.19692 0.0
C3480 C 0.09887 0.51905 0.23191 0.0
C3481 C 0.09842 0.48489 0.32475 0.0
C3482 C 0.10007 0.49739 0.29477 0.0
H3483 H 0.08842 0.56662 0.17457 0.0
H3484 H 0.0972 0.55092 0.22877 0.0
H3485 H 0.11168 0.50281 0.20097 0.0
H3486 H 0.08906 0.44685 0.32915 0.0
H3487 H 0.09597 0.46641 0.2814 0.0
loop_
_geom_bond_atom_site_label_1
_geom_bond_atom_site_label_2
_geom_bond_distance
_geom_bond_site_symmetry_2
_ccdc_geom_bond_type
Co0 O3 1.970 . S
Co0 N17 1.989 . S
Co0 O25 1.967 . S
Co0 O32 1.920 . S
Co1 O4 1.966 . S
Co1 N10 2.022 . S
Co1 N18 1.993 . S
Co1 O26 1.941 . S
C2 O3 1.258 . S
C2 O4 1.263 . S
O3 Co0 1.970 . S
O3 C2 1.258 . S
O4 Co1 1.966 . S
O4 C2 1.263 . S
C5 O6 1.235 . S
C5 O32 1.289 . S
O6 C5 1.235 . S
C7 C9 1.400 . S
C7 N10 1.351 . S
C7 C12 1.501 . S
C8 C9 1.387 . S
C8 N11 1.341 . S
C9 C7 1.400 . S
C9 C8 1.387 . S
N10 Co1 2.022 . S
N10 C7 1.351 . S
N10 N11 1.365 . S
N11 C8 1.341 . S
N11 N10 1.365 . S
N11 H31 0.862 . S
C12 C7 1.501 . S
C12 H13 0.961 . S
C12 H14 0.961 . S
C12 H15 0.960 . S
H13 C12 0.961 . S
H14 C12 0.961 . S
H15 C12 0.960 . S
C16 N17 1.342 . S
C16 C20 1.401 . S
C16 C21 1.499 . S
N17 Co0 1.989 . S
N17 C16 1.342 . S
N17 N18 1.388 . S
N18 Co1 1.993 . S
N18 N17 1.388 . S
N18 C19 1.346 . S
C19 N18 1.346 . S
C19 C20 1.396 . S
C19 C29 1.510 . S
C20 C16 1.401 . S
C20 C19 1.396 . S
C21 C16 1.499 . S
C21 H22 0.959 . S
C21 H23 0.960 . S
C21 H24 0.961 . S
H22 C21 0.959 . S
H23 C21 0.960 . S
H24 C21 0.961 . S
O25 Co0 1.967 . S
O25 C33 1.258 . S
O26 Co1 1.941 . S
O26 C33 1.266 . S
H27 C29 0.959 . S
H28 C29 0.961 . S
C29 C19 1.510 . S
C29 H27 0.959 . S
C29 H28 0.961 . S
C29 H30 0.960 . S
H30 C29 0.960 . S
H31 N11 0.862 . S
O32 Co0 1.920 . S
O32 C5 1.289 . S
C33 O25 1.258 . S
C33 O26 1.266 . S
Co34 O37 1.970 . S
Co34 N51 1.989 . S
Co34 O59 1.967 . S
Co34 O66 1.920 . S
Co35 O38 1.966 . S
Co35 N44 2.022 . S
Co35 N52 1.993 . S
Co35 O60 1.941 . S
C36 O37 1.258 . S
C36 O38 1.263 . S
O37 Co34 1.970 . S
O37 C36 1.258 . S
O38 Co35 1.966 . S
O38 C36 1.263 . S
C39 O40 1.235 . S
C39 O66 1.289 . S
O40 C39 1.235 . S
C41 C43 1.400 . S
C41 N44 1.351 . S
C41 C46 1.501 . S
C42 C43 1.387 . S
C42 N45 1.341 . S
C43 C41 1.400 . S
C43 C42 1.387 . S
N44 Co35 2.022 . S
N44 C41 1.351 . S
N44 N45 1.365 . S
N45 C42 1.341 . S
N45 N44 1.365 . S
N45 H65 0.862 . S
C46 C41 1.501 . S
C46 H47 0.961 . S
C46 H48 0.961 . S
C46 H49 0.960 . S
H47 C46 0.961 . S
H48 C46 0.961 . S
H49 C46 0.960 . S
C50 N51 1.342 . S
C50 C54 1.401 . S
C50 C55 1.499 . S
N51 Co34 1.989 . S
N51 C50 1.342 . S
N51 N52 1.388 . S
N52 Co35 1.993 . S
N52 N51 1.388 . S
N52 C53 1.346 . S
C53 N52 1.346 . S
C53 C54 1.396 . S
C53 C63 1.510 . S
C54 C50 1.401 . S
C54 C53 1.396 . S
C55 C50 1.499 . S
C55 H56 0.959 . S
C55 H57 0.960 . S
C55 H58 0.961 . S
H56 C55 0.959 . S
H57 C55 0.960 . S
H58 C55 0.961 . S
O59 Co34 1.967 . S
O59 C67 1.258 . S
O60 Co35 1.941 . S
O60 C67 1.266 . S
H61 C63 0.959 . S
H62 C63 0.961 . S
C63 C53 1.510 . S
C63 H61 0.959 . S
C63 H62 0.961 . S
C63 H64 0.960 . S
H64 C63 0.960 . S
H65 N45 0.862 . S
O66 Co34 1.920 . S
O66 C39 1.289 . S
C67 O59 1.258 . S
C67 O60 1.266 . S
Co68 O71 1.970 . S
Co68 N85 1.989 . S
Co68 O93 1.967 . S
Co68 O100 1.920 . S
Co69 O72 1.966 . S
Co69 N78 2.022 . S
Co69 N86 1.993 . S
Co69 O94 1.941 . S
C70 O71 1.258 . S
C70 O72 1.263 . S
O71 Co68 1.970 . S
O71 C70 1.258 . S
O72 Co69 1.966 . S
O72 C70 1.263 . S
C73 O74 1.235 . S
C73 O100 1.289 . S
O74 C73 1.235 . S
C75 C77 1.400 . S
C75 N78 1.351 . S
C75 C80 1.501 . S
C76 C77 1.387 . S
C76 N79 1.341 . S
C77 C75 1.400 . S
C77 C76 1.387 . S
N78 Co69 2.022 . S
N78 C75 1.351 . S
N78 N79 1.365 . S
N79 C76 1.341 . S
N79 N78 1.365 . S
N79 H99 0.862 . S
C80 C75 1.501 . S
C80 H81 0.961 . S
C80 H82 0.961 . S
C80 H83 0.960 . S
H81 C80 0.961 . S
H82 C80 0.961 . S
H83 C80 0.960 . S
C84 N85 1.342 . S
C84 C88 1.401 . S
C84 C89 1.499 . S
N85 Co68 1.989 . S
N85 C84 1.342 . S
N85 N86 1.388 . S
N86 Co69 1.993 . S
N86 N85 1.388 . S
N86 C87 1.346 . S
C87 N86 1.346 . S
C87 C88 1.396 . S
C87 C97 1.510 . S
C88 C84 1.401 . S
C88 C87 1.396 . S
C89 C84 1.499 . S
C89 H90 0.959 . S
C89 H91 0.960 . S
C89 H92 0.961 . S
H90 C89 0.959 . S
H91 C89 0.960 . S
H92 C89 0.961 . S
O93 Co68 1.967 . S
O93 C101 1.258 . S
O94 Co69 1.941 . S
O94 C101 1.266 . S
H95 C97 0.959 . S
H96 C97 0.961 . S
C97 C87 1.510 . S
C97 H95 0.959 . S
C97 H96 0.961 . S
C97 H98 0.960 . S
H98 C97 0.960 . S
H99 N79 0.862 . S
O100 Co68 1.920 . S
O100 C73 1.289 . S
C101 O93 1.258 . S
C101 O94 1.266 . S
Co102 O105 1.970 . S
Co102 N119 1.989 . S
Co102 O127 1.967 . S
Co102 O134 1.920 . S
Co103 O106 1.966 . S
Co103 N112 2.022 . S
Co103 N120 1.993 . S
Co103 O128 1.941 1_556 S
C104 O105 1.258 1_556 S
C104 O106 1.263 . S
O105 Co102 1.970 . S
O105 C104 1.258 1_554 S
O106 Co103 1.966 . S
O106 C104 1.263 . S
C107 O108 1.235 . S
C107 O134 1.289 . S
O108 C107 1.235 . S
C109 C111 1.400 . S
C109 N112 1.351 . S
C109 C114 1.501 . S
C110 C111 1.387 . S
C110 N113 1.341 . S
C111 C109 1.400 . S
C111 C110 1.387 . S
N112 Co103 2.022 . S
N112 C109 1.351 . S
N112 N113 1.365 . S
N113 C110 1.341 . S
N113 N112 1.365 . S
N113 H133 0.862 . S
C114 C109 1.501 . S
C114 H115 0.961 . S
C114 H116 0.961 . S
C114 H117 0.960 . S
H115 C114 0.961 . S
H116 C114 0.961 . S
H117 C114 0.960 . S
C118 N119 1.342 . S
C118 C122 1.401 1_554 S
C118 C123 1.499 . S
N119 Co102 1.989 . S
N119 C118 1.342 . S
N119 N120 1.388 1_554 S
N120 Co103 1.993 . S
N120 N119 1.388 1_556 S
N120 C121 1.346 . S
C121 N120 1.346 . S
C121 C122 1.396 . S
C121 C131 1.510 . S
C122 C118 1.401 1_556 S
C122 C121 1.396 . S
C123 C118 1.499 . S
C123 H124 0.959 . S
C123 H125 0.960 . S
C123 H126 0.961 . S
H124 C123 0.959 . S
H125 C123 0.960 . S
H126 C123 0.961 . S
O127 Co102 1.967 . S
O127 C135 1.258 . S
O128 Co103 1.941 1_554 S
O128 C135 1.266 . S
H129 C131 0.959 . S
H130 C131 0.961 . S
C131 C121 1.510 . S
C131 H129 0.959 . S
C131 H130 0.961 . S
C131 H132 0.960 . S
H132 C131 0.960 . S
H133 N113 0.862 . S
O134 Co102 1.920 . S
O134 C107 1.289 . S
C135 O127 1.258 . S
C135 O128 1.266 . S
Co136 O139 1.970 . S
Co136 N153 1.989 . S
Co136 O161 1.967 . S
Co136 O168 1.920 . S
Co137 O140 1.966 . S
Co137 N146 2.022 . S
Co137 N154 1.993 . S
Co137 O162 1.941 . S
C138 O139 1.258 . S
C138 O140 1.263 . S
O139 Co136 1.970 . S
O139 C138 1.258 . S
O140 Co137 1.966 . S
O140 C138 1.263 . S
C141 O142 1.235 . S
C141 O168 1.289 . S
O142 C141 1.235 . S
C143 C145 1.400 . S
C143 N146 1.351 . S
C143 C148 1.501 . S
C144 C145 1.387 . S
C144 N147 1.341 . S
C145 C143 1.400 . S
C145 C144 1.387 . S
N146 Co137 2.022 . S
N146 C143 1.351 . S
N146 N147 1.365 . S
N147 C144 1.341 . S
N147 N146 1.365 . S
N147 H167 0.862 . S
C148 C143 1.501 . S
C148 H149 0.961 . S
C148 H150 0.961 . S
C148 H151 0.960 . S
H149 C148 0.961 . S
H150 C148 0.961 . S
H151 C148 0.960 . S
C152 N153 1.342 . S
C152 C156 1.401 . S
C152 C157 1.499 . S
N153 Co136 1.989 . S
N153 C152 1.342 . S
N153 N154 1.388 . S
N154 Co137 1.993 . S
N154 N153 1.388 . S
N154 C155 1.346 . S
C155 N154 1.346 . S
C155 C156 1.396 . S
C155 C165 1.510 . S
C156 C152 1.401 . S
C156 C155 1.396 . S
C157 C152 1.499 . S
C157 H158 0.959 . S
C157 H159 0.960 . S
C157 H160 0.961 . S
H158 C157 0.959 . S
H159 C157 0.960 . S
H160 C157 0.961 . S
O161 Co136 1.967 . S
O161 C169 1.258 . S
O162 Co137 1.941 . S
O162 C169 1.266 . S
H163 C165 0.959 . S
H164 C165 0.961 . S
C165 C155 1.510 . S
C165 H163 0.959 . S
C165 H164 0.961 . S
C165 H166 0.960 . S
H166 C165 0.960 . S
H167 N147 0.862 . S
O168 Co136 1.920 . S
O168 C141 1.289 . S
C169 O161 1.258 . S
C169 O162 1.266 . S
Co170 O173 1.970 . S
Co170 N187 1.989 . S
Co170 O195 1.967 . S
Co170 O202 1.920 . S
Co171 O174 1.966 . S
Co171 N180 2.022 . S
Co171 N188 1.993 . S
Co171 O196 1.941 . S
C172 O173 1.258 . S
C172 O174 1.263 . S
O173 Co170 1.970 . S
O173 C172 1.258 . S
O174 Co171 1.966 . S
O174 C172 1.263 . S
C175 O176 1.235 . S
C175 O202 1.289 . S
O176 C175 1.235 . S
C177 C179 1.400 . S
C177 N180 1.351 . S
C177 C182 1.501 . S
C178 C179 1.387 . S
C178 N181 1.341 . S
C179 C177 1.400 . S
C179 C178 1.387 . S
N180 Co171 2.022 . S
N180 C177 1.351 . S
N180 N181 1.365 . S
N181 C178 1.341 . S
N181 N180 1.365 . S
N181 H201 0.862 . S
C182 C177 1.501 . S
C182 H183 0.961 . S
C182 H184 0.961 . S
C182 H185 0.960 . S
H183 C182 0.961 . S
H184 C182 0.961 . S
H185 C182 0.960 . S
C186 N187 1.342 . S
C186 C190 1.401 . S
C186 C191 1.499 . S
N187 Co170 1.989 . S
N187 C186 1.342 . S
N187 N188 1.388 . S
N188 Co171 1.993 . S
N188 N187 1.388 . S
N188 C189 1.346 . S
C189 N188 1.346 . S
C189 C190 1.396 . S
C189 C199 1.510 . S
C190 C186 1.401 . S
C190 C189 1.396 . S
C191 C186 1.499 . S
C191 H192 0.959 . S
C191 H193 0.960 . S
C191 H194 0.961 . S
H192 C191 0.959 . S
H193 C191 0.960 . S
H194 C191 0.961 . S
O195 Co170 1.967 . S
O195 C203 1.258 . S
O196 Co171 1.941 . S
O196 C203 1.266 . S
H197 C199 0.959 . S
H198 C199 0.961 . S
C199 C189 1.510 . S
C199 H197 0.959 . S
C199 H198 0.961 . S
C199 H200 0.960 . S
H200 C199 0.960 . S
H201 N181 0.862 . S
O202 Co170 1.920 . S
O202 C175 1.289 . S
C203 O195 1.258 . S
C203 O196 1.266 . S
Co204 O207 1.970 . S
Co204 N221 1.989 . S
Co204 O229 1.967 . S
Co204 O236 1.920 . S
Co205 O208 1.966 . S
Co205 N214 2.022 . S
Co205 N222 1.993 . S
Co205 O230 1.941 . S
C206 O207 1.258 . S
C206 O208 1.263 . S
O207 Co204 1.970 . S
O207 C206 1.258 . S
O208 Co205 1.966 . S
O208 C206 1.263 . S
C209 O210 1.235 . S
C209 O236 1.289 . S
O210 C209 1.235 . S
C211 C213 1.400 . S
C211 N214 1.351 . S
C211 C216 1.501 . S
C212 C213 1.387 . S
C212 N215 1.341 . S
C213 C211 1.400 . S
C213 C212 1.387 . S
N214 Co205 2.022 . S
N214 C211 1.351 . S
N214 N215 1.365 . S
N215 C212 1.341 . S
N215 N214 1.365 . S
N215 H235 0.862 . S
C216 C211 1.501 . S
C216 H217 0.961 . S
C216 H218 0.961 . S
C216 H219 0.960 . S
H217 C216 0.961 . S
H218 C216 0.961 . S
H219 C216 0.960 . S
C220 N221 1.342 . S
C220 C224 1.401 . S
C220 C225 1.499 . S
N221 Co204 1.989 . S
N221 C220 1.342 . S
N221 N222 1.388 . S
N222 Co205 1.993 . S
N222 N221 1.388 . S
N222 C223 1.346 . S
C223 N222 1.346 . S
C223 C224 1.396 . S
C223 C233 1.510 . S
C224 C220 1.401 . S
C224 C223 1.396 . S
C225 C220 1.499 . S
C225 H226 0.959 . S
C225 H227 0.960 . S
C225 H228 0.961 . S
H226 C225 0.959 . S
H227 C225 0.960 . S
H228 C225 0.961 . S
O229 Co204 1.967 . S
O229 C237 1.258 . S
O230 Co205 1.941 . S
O230 C237 1.266 . S
H231 C233 0.959 . S
H232 C233 0.961 . S
C233 C223 1.510 . S
C233 H231 0.959 . S
C233 H232 0.961 . S
C233 H234 0.960 . S
H234 C233 0.960 . S
H235 N215 0.862 . S
O236 Co204 1.920 . S
O236 C209 1.289 . S
C237 O229 1.258 . S
C237 O230 1.266 . S
Co238 O241 1.970 . S
Co238 N255 1.989 . S
Co238 O263 1.967 . S
Co238 O270 1.920 . S
Co239 O242 1.966 . S
Co239 N248 2.022 . S
Co239 N256 1.993 . S
Co239 O264 1.941 1_554 S
C240 O241 1.258 1_554 S
C240 O242 1.263 . S
O241 Co238 1.970 . S
O241 C240 1.258 1_556 S
O242 Co239 1.966 . S
O242 C240 1.263 . S
C243 O244 1.235 . S
C243 O270 1.289 . S
O244 C243 1.235 . S
C245 C247 1.400 . S
C245 N248 1.351 . S
C245 C250 1.501 . S
C246 C247 1.387 . S
C246 N249 1.341 . S
C247 C245 1.400 . S
C247 C246 1.387 . S
N248 Co239 2.022 . S
N248 C245 1.351 . S
N248 N249 1.365 . S
N249 C246 1.341 . S
N249 N248 1.365 . S
N249 H269 0.862 . S
C250 C245 1.501 . S
C250 H251 0.961 . S
C250 H252 0.961 . S
C250 H253 0.960 . S
H251 C250 0.961 . S
H252 C250 0.961 . S
H253 C250 0.960 . S
C254 N255 1.342 . S
C254 C258 1.401 1_556 S
C254 C259 1.499 . S
N255 Co238 1.989 . S
N255 C254 1.342 . S
N255 N256 1.388 1_556 S
N256 Co239 1.993 . S
N256 N255 1.388 1_554 S
N256 C257 1.346 . S
C257 N256 1.346 . S
C257 C258 1.396 . S
C257 C267 1.510 . S
C258 C254 1.401 1_554 S
C258 C257 1.396 . S
C259 C254 1.499 . S
C259 H260 0.959 . S
C259 H261 0.960 . S
C259 H262 0.961 . S
H260 C259 0.959 . S
H261 C259 0.960 . S
H262 C259 0.961 . S
O263 Co238 1.967 . S
O263 C271 1.258 . S
O264 Co239 1.941 1_556 S
O264 C271 1.266 . S
H265 C267 0.959 . S
H266 C267 0.961 . S
C267 C257 1.510 . S
C267 H265 0.959 . S
C267 H266 0.961 . S
C267 H268 0.960 . S
H268 C267 0.960 . S
H269 N249 0.862 . S
O270 Co238 1.920 . S
O270 C243 1.289 . S
C271 O263 1.258 . S
C271 O264 1.266 . S
Co272 O275 1.970 . S
Co272 N289 1.989 . S
Co272 O297 1.967 . S
Co272 O304 1.920 . S
Co273 O276 1.966 . S
Co273 N282 2.022 . S
Co273 N290 1.993 . S
Co273 O298 1.941 . S
C274 O275 1.258 . S
C274 O276 1.263 . S
O275 Co272 1.970 . S
O275 C274 1.258 . S
O276 Co273 1.966 . S
O276 C274 1.263 . S
C277 O278 1.235 . S
C277 O304 1.289 . S
O278 C277 1.235 . S
C279 C281 1.400 . S
C279 N282 1.351 . S
C279 C284 1.501 . S
C280 C281 1.387 . S
C280 N283 1.341 . S
C281 C279 1.400 . S
C281 C280 1.387 . S
N282 Co273 2.022 . S
N282 C279 1.351 . S
N282 N283 1.365 . S
N283 C280 1.341 . S
N283 N282 1.365 . S
N283 H303 0.862 . S
C284 C279 1.501 . S
C284 H285 0.961 . S
C284 H286 0.961 . S
C284 H287 0.960 . S
H285 C284 0.961 . S
H286 C284 0.961 . S
H287 C284 0.960 . S
C288 N289 1.342 . S
C288 C292 1.401 . S
C288 C293 1.499 . S
N289 Co272 1.989 . S
N289 C288 1.342 . S
N289 N290 1.388 . S
N290 Co273 1.993 . S
N290 N289 1.388 . S
N290 C291 1.346 . S
C291 N290 1.346 . S
C291 C292 1.396 . S
C291 C301 1.510 . S
C292 C288 1.401 . S
C292 C291 1.396 . S
C293 C288 1.499 . S
C293 H294 0.959 . S
C293 H295 0.960 . S
C293 H296 0.961 . S
H294 C293 0.959 . S
H295 C293 0.960 . S
H296 C293 0.961 . S
O297 Co272 1.967 . S
O297 C305 1.258 . S
O298 Co273 1.941 . S
O298 C305 1.266 . S
H299 C301 0.959 . S
H300 C301 0.961 . S
C301 C291 1.510 . S
C301 H299 0.959 . S
C301 H300 0.961 . S
C301 H302 0.960 . S
H302 C301 0.960 . S
H303 N283 0.862 . S
O304 Co272 1.920 . S
O304 C277 1.289 . S
C305 O297 1.258 . S
C305 O298 1.266 . S
Co306 O309 1.970 . S
Co306 N323 1.989 . S
Co306 O331 1.967 . S
Co306 O338 1.920 . S
Co307 O310 1.966 . S
Co307 N316 2.022 . S
Co307 N324 1.993 . S
Co307 O332 1.941 . S
C308 O309 1.258 . S
C308 O310 1.263 . S
O309 Co306 1.970 . S
O309 C308 1.258 . S
O310 Co307 1.966 . S
O310 C308 1.263 . S
C311 O312 1.235 . S
C311 O338 1.289 . S
O312 C311 1.235 . S
C313 C315 1.400 . S
C313 N316 1.351 . S
C313 C318 1.501 . S
C314 C315 1.387 . S
C314 N317 1.341 . S
C315 C313 1.400 . S
C315 C314 1.387 . S
N316 Co307 2.022 . S
N316 C313 1.351 . S
N316 N317 1.365 . S
N317 C314 1.341 . S
N317 N316 1.365 . S
N317 H337 0.862 . S
C318 C313 1.501 . S
C318 H319 0.961 . S
C318 H320 0.961 . S
C318 H321 0.960 . S
H319 C318 0.961 . S
H320 C318 0.961 . S
H321 C318 0.960 . S
C322 N323 1.342 . S
C322 C326 1.401 . S
C322 C327 1.499 . S
N323 Co306 1.989 . S
N323 C322 1.342 . S
N323 N324 1.388 . S
N324 Co307 1.993 . S
N324 N323 1.388 . S
N324 C325 1.346 . S
C325 N324 1.346 . S
C325 C326 1.396 . S
C325 C335 1.510 . S
C326 C322 1.401 . S
C326 C325 1.396 . S
C327 C322 1.499 . S
C327 H328 0.959 . S
C327 H329 0.960 . S
C327 H330 0.961 . S
H328 C327 0.959 . S
H329 C327 0.960 . S
H330 C327 0.961 . S
O331 Co306 1.967 . S
O331 C339 1.258 . S
O332 Co307 1.941 . S
O332 C339 1.266 . S
H333 C335 0.959 . S
H334 C335 0.961 . S
C335 C325 1.510 . S
C335 H333 0.959 . S
C335 H334 0.961 . S
C335 H336 0.960 . S
H336 C335 0.960 . S
H337 N317 0.862 . S
O338 Co306 1.920 . S
O338 C311 1.289 . S
C339 O331 1.258 . S
C339 O332 1.266 . S
Co340 O343 1.970 . S
Co340 N357 1.989 . S
Co340 O365 1.967 . S
Co340 O372 1.920 . S
Co341 O344 1.966 . S
Co341 N350 2.022 . S
Co341 N358 1.993 . S
Co341 O366 1.941 . S
C342 O343 1.258 . S
C342 O344 1.263 . S
O343 Co340 1.970 . S
O343 C342 1.258 . S
O344 Co341 1.966 . S
O344 C342 1.263 . S
C345 O346 1.235 . S
C345 O372 1.289 . S
O346 C345 1.235 . S
C347 C349 1.400 . S
C347 N350 1.351 . S
C347 C352 1.501 . S
C348 C349 1.387 . S
C348 N351 1.341 . S
C349 C347 1.400 . S
C349 C348 1.387 . S
N350 Co341 2.022 . S
N350 C347 1.351 . S
N350 N351 1.365 . S
N351 C348 1.341 . S
N351 N350 1.365 . S
N351 H371 0.862 . S
C352 C347 1.501 . S
C352 H353 0.961 . S
C352 H354 0.961 . S
C352 H355 0.960 . S
H353 C352 0.961 . S
H354 C352 0.961 . S
H355 C352 0.960 . S
C356 N357 1.342 . S
C356 C360 1.401 . S
C356 C361 1.499 . S
N357 Co340 1.989 . S
N357 C356 1.342 . S
N357 N358 1.388 . S
N358 Co341 1.993 . S
N358 N357 1.388 . S
N358 C359 1.346 . S
C359 N358 1.346 . S
C359 C360 1.396 . S
C359 C369 1.510 . S
C360 C356 1.401 . S
C360 C359 1.396 . S
C361 C356 1.499 . S
C361 H362 0.959 . S
C361 H363 0.960 . S
C361 H364 0.961 . S
H362 C361 0.959 . S
H363 C361 0.960 . S
H364 C361 0.961 . S
O365 Co340 1.967 . S
O365 C373 1.258 . S
O366 Co341 1.941 . S
O366 C373 1.266 . S
H367 C369 0.959 . S
H368 C369 0.961 . S
C369 C359 1.510 . S
C369 H367 0.959 . S
C369 H368 0.961 . S
C369 H370 0.960 . S
H370 C369 0.960 . S
H371 N351 0.862 . S
O372 Co340 1.920 . S
O372 C345 1.289 . S
C373 O365 1.258 . S
C373 O366 1.266 . S
Co374 O377 1.970 . S
Co374 N391 1.989 . S
Co374 O399 1.967 . S
Co374 O406 1.920 . S
Co375 O378 1.966 . S
Co375 N384 2.022 . S
Co375 N392 1.993 . S
Co375 O400 1.941 1_554 S
C376 O377 1.258 1_554 S
C376 O378 1.263 . S
O377 Co374 1.970 . S
O377 C376 1.258 1_556 S
O378 Co375 1.966 . S
O378 C376 1.263 . S
C379 O380 1.235 . S
C379 O406 1.289 . S
O380 C379 1.235 . S
C381 C383 1.400 . S
C381 N384 1.351 . S
C381 C386 1.501 . S
C382 C383 1.387 . S
C382 N385 1.341 . S
C383 C381 1.400 . S
C383 C382 1.387 . S
N384 Co375 2.022 . S
N384 C381 1.351 . S
N384 N385 1.365 . S
N385 C382 1.341 . S
N385 N384 1.365 . S
N385 H405 0.862 . S
C386 C381 1.501 . S
C386 H387 0.961 . S
C386 H388 0.961 . S
C386 H389 0.960 . S
H387 C386 0.961 . S
H388 C386 0.961 . S
H389 C386 0.960 . S
C390 N391 1.342 . S
C390 C394 1.401 1_556 S
C390 C395 1.499 . S
N391 Co374 1.989 . S
N391 C390 1.342 . S
N391 N392 1.388 1_556 S
N392 Co375 1.993 . S
N392 N391 1.388 1_554 S
N392 C393 1.346 . S
C393 N392 1.346 . S
C393 C394 1.396 . S
C393 C403 1.510 . S
C394 C390 1.401 1_554 S
C394 C393 1.396 . S
C395 C390 1.499 . S
C395 H396 0.959 . S
C395 H397 0.960 . S
C395 H398 0.961 . S
H396 C395 0.959 . S
H397 C395 0.960 . S
H398 C395 0.961 . S
O399 Co374 1.967 . S
O399 C407 1.258 . S
O400 Co375 1.941 1_556 S
O400 C407 1.266 . S
H401 C403 0.959 . S
H402 C403 0.961 . S
C403 C393 1.510 . S
C403 H401 0.959 . S
C403 H402 0.961 . S
C403 H404 0.960 . S
H404 C403 0.960 . S
H405 N385 0.862 . S
O406 Co374 1.920 . S
O406 C379 1.289 . S
C407 O399 1.258 . S
C407 O400 1.266 . S
Co408 O411 1.970 . S
Co408 N425 1.989 . S
Co408 O433 1.967 . S
Co408 O440 1.920 . S
Co409 O412 1.966 . S
Co409 N418 2.022 . S
Co409 N426 1.993 . S
Co409 O434 1.941 . S
C410 O411 1.258 . S
C410 O412 1.263 . S
O411 Co408 1.970 . S
O411 C410 1.258 . S
O412 Co409 1.966 . S
O412 C410 1.263 . S
C413 O414 1.235 . S
C413 O440 1.289 . S
O414 C413 1.235 . S
C415 C417 1.400 . S
C415 N418 1.351 . S
C415 C420 1.501 . S
C416 C417 1.387 . S
C416 N419 1.341 . S
C417 C415 1.400 . S
C417 C416 1.387 . S
N418 Co409 2.022 . S
N418 C415 1.351 . S
N418 N419 1.365 . S
N419 C416 1.341 . S
N419 N418 1.365 . S
N419 H439 0.862 . S
C420 C415 1.501 . S
C420 H421 0.961 . S
C420 H422 0.961 . S
C420 H423 0.960 . S
H421 C420 0.961 . S
H422 C420 0.961 . S
H423 C420 0.960 . S
C424 N425 1.342 . S
C424 C428 1.401 . S
C424 C429 1.499 . S
N425 Co408 1.989 . S
N425 C424 1.342 . S
N425 N426 1.388 . S
N426 Co409 1.993 . S
N426 N425 1.388 . S
N426 C427 1.346 . S
C427 N426 1.346 . S
C427 C428 1.396 . S
C427 C437 1.510 . S
C428 C424 1.401 . S
C428 C427 1.396 . S
C429 C424 1.499 . S
C429 H430 0.959 . S
C429 H431 0.960 . S
C429 H432 0.961 . S
H430 C429 0.959 . S
H431 C429 0.960 . S
H432 C429 0.961 . S
O433 Co408 1.967 . S
O433 C441 1.258 . S
O434 Co409 1.941 . S
O434 C441 1.266 . S
H435 C437 0.959 . S
H436 C437 0.961 . S
C437 C427 1.510 . S
C437 H435 0.959 . S
C437 H436 0.961 . S
C437 H438 0.960 . S
H438 C437 0.960 . S
H439 N419 0.862 . S
O440 Co408 1.920 . S
O440 C413 1.289 . S
C441 O433 1.258 . S
C441 O434 1.266 . S
Co442 O445 1.970 . S
Co442 N459 1.989 . S
Co442 O467 1.967 . S
Co442 O474 1.920 . S
Co443 O446 1.966 . S
Co443 N452 2.022 . S
Co443 N460 1.993 . S
Co443 O468 1.941 . S
C444 O445 1.258 . S
C444 O446 1.263 . S
O445 Co442 1.970 . S
O445 C444 1.258 . S
O446 Co443 1.966 . S
O446 C444 1.263 . S
C447 O448 1.235 . S
C447 O474 1.289 . S
O448 C447 1.235 . S
C449 C451 1.400 . S
C449 N452 1.351 . S
C449 C454 1.501 . S
C450 C451 1.387 . S
C450 N453 1.341 . S
C451 C449 1.400 . S
C451 C450 1.387 . S
N452 Co443 2.022 . S
N452 C449 1.351 . S
N452 N453 1.365 . S
N453 C450 1.341 . S
N453 N452 1.365 . S
N453 H473 0.862 . S
C454 C449 1.501 . S
C454 H455 0.961 . S
C454 H456 0.961 . S
C454 H457 0.960 . S
H455 C454 0.961 . S
H456 C454 0.961 . S
H457 C454 0.960 . S
C458 N459 1.342 . S
C458 C462 1.401 . S
C458 C463 1.499 . S
N459 Co442 1.989 . S
N459 C458 1.342 . S
N459 N460 1.388 . S
N460 Co443 1.993 . S
N460 N459 1.388 . S
N460 C461 1.346 . S
C461 N460 1.346 . S
C461 C462 1.396 . S
C461 C471 1.510 . S
C462 C458 1.401 . S
C462 C461 1.396 . S
C463 C458 1.499 . S
C463 H464 0.959 . S
C463 H465 0.960 . S
C463 H466 0.961 . S
H464 C463 0.959 . S
H465 C463 0.960 . S
H466 C463 0.961 . S
O467 Co442 1.967 . S
O467 C475 1.258 . S
O468 Co443 1.941 . S
O468 C475 1.266 . S
H469 C471 0.959 . S
H470 C471 0.961 . S
C471 C461 1.510 . S
C471 H469 0.959 . S
C471 H470 0.961 . S
C471 H472 0.960 . S
H472 C471 0.960 . S
H473 N453 0.862 . S
O474 Co442 1.920 . S
O474 C447 1.289 . S
C475 O467 1.258 . S
C475 O468 1.266 . S
Co476 O479 1.970 . S
Co476 N493 1.989 . S
Co476 O501 1.967 . S
Co476 O508 1.920 . S
Co477 O480 1.966 . S
Co477 N486 2.022 . S
Co477 N494 1.993 . S
Co477 O502 1.941 . S
C478 O479 1.258 . S
C478 O480 1.263 . S
O479 Co476 1.970 . S
O479 C478 1.258 . S
O480 Co477 1.966 . S
O480 C478 1.263 . S
C481 O482 1.235 . S
C481 O508 1.289 . S
O482 C481 1.235 . S
C483 C485 1.400 . S
C483 N486 1.351 . S
C483 C488 1.501 . S
C484 C485 1.387 . S
C484 N487 1.341 . S
C485 C483 1.400 . S
C485 C484 1.387 . S
N486 Co477 2.022 . S
N486 C483 1.351 . S
N486 N487 1.365 . S
N487 C484 1.341 . S
N487 N486 1.365 . S
N487 H507 0.862 . S
C488 C483 1.501 . S
C488 H489 0.961 . S
C488 H490 0.961 . S
C488 H491 0.960 . S
H489 C488 0.961 . S
H490 C488 0.961 . S
H491 C488 0.960 . S
C492 N493 1.342 . S
C492 C496 1.401 . S
C492 C497 1.499 . S
N493 Co476 1.989 . S
N493 C492 1.342 . S
N493 N494 1.388 . S
N494 Co477 1.993 . S
N494 N493 1.388 . S
N494 C495 1.346 . S
C495 N494 1.346 . S
C495 C496 1.396 . S
C495 C505 1.510 . S
C496 C492 1.401 . S
C496 C495 1.396 . S
C497 C492 1.499 . S
C497 H498 0.959 . S
C497 H499 0.960 . S
C497 H500 0.961 . S
H498 C497 0.959 . S
H499 C497 0.960 . S
H500 C497 0.961 . S
O501 Co476 1.967 . S
O501 C509 1.258 . S
O502 Co477 1.941 . S
O502 C509 1.266 . S
H503 C505 0.959 . S
H504 C505 0.961 . S
C505 C495 1.510 . S
C505 H503 0.959 . S
C505 H504 0.961 . S
C505 H506 0.960 . S
H506 C505 0.960 . S
H507 N487 0.862 . S
O508 Co476 1.920 . S
O508 C481 1.289 . S
C509 O501 1.258 . S
C509 O502 1.266 . S
Co510 O513 1.970 . S
Co510 N527 1.989 . S
Co510 O535 1.967 . S
Co510 O542 1.920 . S
Co511 O514 1.966 . S
Co511 N520 2.022 . S
Co511 N528 1.993 . S
Co511 O536 1.941 1_556 S
C512 O513 1.258 1_556 S
C512 O514 1.263 . S
O513 Co510 1.970 . S
O513 C512 1.258 1_554 S
O514 Co511 1.966 . S
O514 C512 1.263 . S
C515 O516 1.235 . S
C515 O542 1.289 . S
O516 C515 1.235 . S
C517 C519 1.400 . S
C517 N520 1.351 . S
C517 C522 1.501 . S
C518 C519 1.387 . S
C518 N521 1.341 . S
C519 C517 1.400 . S
C519 C518 1.387 . S
N520 Co511 2.022 . S
N520 C517 1.351 . S
N520 N521 1.365 . S
N521 C518 1.341 . S
N521 N520 1.365 . S
N521 H541 0.862 . S
C522 C517 1.501 . S
C522 H523 0.961 . S
C522 H524 0.961 . S
C522 H525 0.960 . S
H523 C522 0.961 . S
H524 C522 0.961 . S
H525 C522 0.960 . S
C526 N527 1.342 . S
C526 C530 1.401 1_554 S
C526 C531 1.499 . S
N527 Co510 1.989 . S
N527 C526 1.342 . S
N527 N528 1.388 1_554 S
N528 Co511 1.993 . S
N528 N527 1.388 1_556 S
N528 C529 1.346 . S
C529 N528 1.346 . S
C529 C530 1.396 . S
C529 C539 1.510 . S
C530 C526 1.401 1_556 S
C530 C529 1.396 . S
C531 C526 1.499 . S
C531 H532 0.959 . S
C531 H533 0.960 . S
C531 H534 0.961 . S
H532 C531 0.959 . S
H533 C531 0.960 . S
H534 C531 0.961 . S
O535 Co510 1.967 . S
O535 C543 1.258 . S
O536 Co511 1.941 1_554 S
O536 C543 1.266 . S
H537 C539 0.959 . S
H538 C539 0.961 . S
C539 C529 1.510 . S
C539 H537 0.959 . S
C539 H538 0.961 . S
C539 H540 0.960 . S
H540 C539 0.960 . S
H541 N521 0.862 . S
O542 Co510 1.920 . S
O542 C515 1.289 . S
C543 O535 1.258 . S
C543 O536 1.266 . S
Co544 O547 1.970 . S
Co544 N561 1.989 . S
Co544 O569 1.967 . S
Co544 O576 1.920 . S
Co545 O548 1.966 . S
Co545 N554 2.022 . S
Co545 N562 1.993 . S
Co545 O570 1.941 . S
C546 O547 1.258 . S
C546 O548 1.263 . S
O547 Co544 1.970 . S
O547 C546 1.258 . S
O548 Co545 1.966 . S
O548 C546 1.263 . S
C549 O550 1.235 . S
C549 O576 1.289 . S
O550 C549 1.235 . S
C551 C553 1.400 . S
C551 N554 1.351 . S
C551 C556 1.501 . S
C552 C553 1.387 . S
C552 N555 1.341 . S
C553 C551 1.400 . S
C553 C552 1.387 . S
N554 Co545 2.022 . S
N554 C551 1.351 . S
N554 N555 1.365 . S
N555 C552 1.341 . S
N555 N554 1.365 . S
N555 H575 0.862 . S
C556 C551 1.501 . S
C556 H557 0.961 . S
C556 H558 0.961 . S
C556 H559 0.960 . S
H557 C556 0.961 . S
H558 C556 0.961 . S
H559 C556 0.960 . S
C560 N561 1.342 . S
C560 C564 1.401 . S
C560 C565 1.499 . S
N561 Co544 1.989 . S
N561 C560 1.342 . S
N561 N562 1.388 . S
N562 Co545 1.993 . S
N562 N561 1.388 . S
N562 C563 1.346 . S
C563 N562 1.346 . S
C563 C564 1.396 . S
C563 C573 1.510 . S
C564 C560 1.401 . S
C564 C563 1.396 . S
C565 C560 1.499 . S
C565 H566 0.959 . S
C565 H567 0.960 . S
C565 H568 0.961 . S
H566 C565 0.959 . S
H567 C565 0.960 . S
H568 C565 0.961 . S
O569 Co544 1.967 . S
O569 C577 1.258 . S
O570 Co545 1.941 . S
O570 C577 1.266 . S
H571 C573 0.959 . S
H572 C573 0.961 . S
C573 C563 1.510 . S
C573 H571 0.959 . S
C573 H572 0.961 . S
C573 H574 0.960 . S
H574 C573 0.960 . S
H575 N555 0.862 . S
O576 Co544 1.920 . S
O576 C549 1.289 . S
C577 O569 1.258 . S
C577 O570 1.266 . S
Co578 O581 1.970 . S
Co578 N595 1.989 . S
Co578 O603 1.967 . S
Co578 O610 1.920 . S
Co579 O582 1.966 . S
Co579 N588 2.022 . S
Co579 N596 1.993 . S
Co579 O604 1.941 1_556 S
C580 O581 1.258 1_556 S
C580 O582 1.263 . S
O581 Co578 1.970 . S
O581 C580 1.258 1_554 S
O582 Co579 1.966 . S
O582 C580 1.263 . S
C583 O584 1.235 . S
C583 O610 1.289 . S
O584 C583 1.235 . S
C585 C587 1.400 . S
C585 N588 1.351 . S
C585 C590 1.501 . S
C586 C587 1.387 . S
C586 N589 1.341 . S
C587 C585 1.400 . S
C587 C586 1.387 . S
N588 Co579 2.022 . S
N588 C585 1.351 . S
N588 N589 1.365 . S
N589 C586 1.341 . S
N589 N588 1.365 . S
N589 H609 0.862 . S
C590 C585 1.501 . S
C590 H591 0.961 . S
C590 H592 0.961 . S
C590 H593 0.960 . S
H591 C590 0.961 . S
H592 C590 0.961 . S
H593 C590 0.960 . S
C594 N595 1.342 . S
C594 C598 1.401 1_554 S
C594 C599 1.499 . S
N595 Co578 1.989 . S
N595 C594 1.342 . S
N595 N596 1.388 1_554 S
N596 Co579 1.993 . S
N596 N595 1.388 1_556 S
N596 C597 1.346 . S
C597 N596 1.346 . S
C597 C598 1.396 . S
C597 C607 1.510 . S
C598 C594 1.401 1_556 S
C598 C597 1.396 . S
C599 C594 1.499 . S
C599 H600 0.959 . S
C599 H601 0.960 . S
C599 H602 0.961 . S
H600 C599 0.959 . S
H601 C599 0.960 . S
H602 C599 0.961 . S
O603 Co578 1.967 . S
O603 C611 1.258 . S
O604 Co579 1.941 1_554 S
O604 C611 1.266 . S
H605 C607 0.959 . S
H606 C607 0.961 . S
C607 C597 1.510 . S
C607 H605 0.959 . S
C607 H606 0.961 . S
C607 H608 0.960 . S
H608 C607 0.960 . S
H609 N589 0.862 . S
O610 Co578 1.920 . S
O610 C583 1.289 . S
C611 O603 1.258 . S
C611 O604 1.266 . S
Co612 O615 1.970 . S
Co612 N629 1.989 . S
Co612 O637 1.967 . S
Co612 O644 1.920 . S
Co613 O616 1.966 . S
Co613 N622 2.022 . S
Co613 N630 1.993 . S
Co613 O638 1.941 . S
C614 O615 1.258 . S
C614 O616 1.263 . S
O615 Co612 1.970 . S
O615 C614 1.258 . S
O616 Co613 1.966 . S
O616 C614 1.263 . S
C617 O618 1.235 . S
C617 O644 1.289 . S
O618 C617 1.235 . S
C619 C621 1.400 . S
C619 N622 1.351 . S
C619 C624 1.501 . S
C620 C621 1.387 . S
C620 N623 1.341 . S
C621 C619 1.400 . S
C621 C620 1.387 . S
N622 Co613 2.022 . S
N622 C619 1.351 . S
N622 N623 1.365 . S
N623 C620 1.341 . S
N623 N622 1.365 . S
N623 H643 0.862 . S
C624 C619 1.501 . S
C624 H625 0.961 . S
C624 H626 0.961 . S
C624 H627 0.960 . S
H625 C624 0.961 . S
H626 C624 0.961 . S
H627 C624 0.960 . S
C628 N629 1.342 . S
C628 C632 1.401 . S
C628 C633 1.499 . S
N629 Co612 1.989 . S
N629 C628 1.342 . S
N629 N630 1.388 . S
N630 Co613 1.993 . S
N630 N629 1.388 . S
N630 C631 1.346 . S
C631 N630 1.346 . S
C631 C632 1.396 . S
C631 C641 1.510 . S
C632 C628 1.401 . S
C632 C631 1.396 . S
C633 C628 1.499 . S
C633 H634 0.959 . S
C633 H635 0.960 . S
C633 H636 0.961 . S
H634 C633 0.959 . S
H635 C633 0.960 . S
H636 C633 0.961 . S
O637 Co612 1.967 . S
O637 C645 1.258 . S
O638 Co613 1.941 . S
O638 C645 1.266 . S
H639 C641 0.959 . S
H640 C641 0.961 . S
C641 C631 1.510 . S
C641 H639 0.959 . S
C641 H640 0.961 . S
C641 H642 0.960 . S
H642 C641 0.960 . S
H643 N623 0.862 . S
O644 Co612 1.920 . S
O644 C617 1.289 . S
C645 O637 1.258 . S
C645 O638 1.266 . S
Co646 O649 1.970 . S
Co646 N663 1.989 . S
Co646 O671 1.967 . S
Co646 O678 1.920 . S
Co647 O650 1.966 . S
Co647 N656 2.022 . S
Co647 N664 1.993 . S
Co647 O672 1.941 . S
C648 O649 1.258 . S
C648 O650 1.263 . S
O649 Co646 1.970 . S
O649 C648 1.258 . S
O650 Co647 1.966 . S
O650 C648 1.263 . S
C651 O652 1.235 . S
C651 O678 1.289 . S
O652 C651 1.235 . S
C653 C655 1.400 . S
C653 N656 1.351 . S
C653 C658 1.501 . S
C654 C655 1.387 . S
C654 N657 1.341 . S
C655 C653 1.400 . S
C655 C654 1.387 . S
N656 Co647 2.022 . S
N656 C653 1.351 . S
N656 N657 1.365 . S
N657 C654 1.341 . S
N657 N656 1.365 . S
N657 H677 0.862 . S
C658 C653 1.501 . S
C658 H659 0.961 . S
C658 H660 0.961 . S
C658 H661 0.960 . S
H659 C658 0.961 . S
H660 C658 0.961 . S
H661 C658 0.960 . S
C662 N663 1.342 . S
C662 C666 1.401 . S
C662 C667 1.499 . S
N663 Co646 1.989 . S
N663 C662 1.342 . S
N663 N664 1.388 . S
N664 Co647 1.993 . S
N664 N663 1.388 . S
N664 C665 1.346 . S
C665 N664 1.346 . S
C665 C666 1.396 . S
C665 C675 1.510 . S
C666 C662 1.401 . S
C666 C665 1.396 . S
C667 C662 1.499 . S
C667 H668 0.959 . S
C667 H669 0.960 . S
C667 H670 0.961 . S
H668 C667 0.959 . S
H669 C667 0.960 . S
H670 C667 0.961 . S
O671 Co646 1.967 . S
O671 C679 1.258 . S
O672 Co647 1.941 . S
O672 C679 1.266 . S
H673 C675 0.959 . S
H674 C675 0.961 . S
C675 C665 1.510 . S
C675 H673 0.959 . S
C675 H674 0.961 . S
C675 H676 0.960 . S
H676 C675 0.960 . S
H677 N657 0.862 . S
O678 Co646 1.920 . S
O678 C651 1.289 . S
C679 O671 1.258 . S
C679 O672 1.266 . S
Co680 O683 1.970 . S
Co680 N697 1.989 . S
Co680 O705 1.967 . S
Co680 O712 1.920 . S
Co681 O684 1.966 . S
Co681 N690 2.022 . S
Co681 N698 1.993 . S
Co681 O706 1.941 . S
C682 O683 1.258 . S
C682 O684 1.263 . S
O683 Co680 1.970 . S
O683 C682 1.258 . S
O684 Co681 1.966 . S
O684 C682 1.263 . S
C685 O686 1.235 . S
C685 O712 1.289 . S
O686 C685 1.235 . S
C687 C689 1.400 . S
C687 N690 1.351 . S
C687 C692 1.501 . S
C688 C689 1.387 . S
C688 N691 1.341 . S
C689 C687 1.400 . S
C689 C688 1.387 . S
N690 Co681 2.022 . S
N690 C687 1.351 . S
N690 N691 1.365 . S
N691 C688 1.341 . S
N691 N690 1.365 . S
N691 H711 0.862 . S
C692 C687 1.501 . S
C692 H693 0.961 . S
C692 H694 0.961 . S
C692 H695 0.960 . S
H693 C692 0.961 . S
H694 C692 0.961 . S
H695 C692 0.960 . S
C696 N697 1.342 . S
C696 C700 1.401 . S
C696 C701 1.499 . S
N697 Co680 1.989 . S
N697 C696 1.342 . S
N697 N698 1.388 . S
N698 Co681 1.993 . S
N698 N697 1.388 . S
N698 C699 1.346 . S
C699 N698 1.346 . S
C699 C700 1.396 . S
C699 C709 1.510 . S
C700 C696 1.401 . S
C700 C699 1.396 . S
C701 C696 1.499 . S
C701 H702 0.959 . S
C701 H703 0.960 . S
C701 H704 0.961 . S
H702 C701 0.959 . S
H703 C701 0.960 . S
H704 C701 0.961 . S
O705 Co680 1.967 . S
O705 C713 1.258 . S
O706 Co681 1.941 . S
O706 C713 1.266 . S
H707 C709 0.959 . S
H708 C709 0.961 . S
C709 C699 1.510 . S
C709 H707 0.959 . S
C709 H708 0.961 . S
C709 H710 0.960 . S
H710 C709 0.960 . S
H711 N691 0.862 . S
O712 Co680 1.920 . S
O712 C685 1.289 . S
C713 O705 1.258 . S
C713 O706 1.266 . S
Co714 O717 1.970 . S
Co714 N731 1.989 . S
Co714 O739 1.967 . S
Co714 O746 1.920 . S
Co715 O718 1.966 . S
Co715 N724 2.022 . S
Co715 N732 1.993 . S
Co715 O740 1.941 1_554 S
C716 O717 1.258 1_554 S
C716 O718 1.263 . S
O717 Co714 1.970 . S
O717 C716 1.258 1_556 S
O718 Co715 1.966 . S
O718 C716 1.263 . S
C719 O720 1.235 . S
C719 O746 1.289 . S
O720 C719 1.235 . S
C721 C723 1.400 . S
C721 N724 1.351 . S
C721 C726 1.501 . S
C722 C723 1.387 . S
C722 N725 1.341 . S
C723 C721 1.400 . S
C723 C722 1.387 . S
N724 Co715 2.022 . S
N724 C721 1.351 . S
N724 N725 1.365 . S
N725 C722 1.341 . S
N725 N724 1.365 . S
N725 H745 0.862 . S
C726 C721 1.501 . S
C726 H727 0.961 . S
C726 H728 0.961 . S
C726 H729 0.960 . S
H727 C726 0.961 . S
H728 C726 0.961 . S
H729 C726 0.960 . S
C730 N731 1.342 . S
C730 C734 1.401 1_556 S
C730 C735 1.499 . S
N731 Co714 1.989 . S
N731 C730 1.342 . S
N731 N732 1.388 1_556 S
N732 Co715 1.993 . S
N732 N731 1.388 1_554 S
N732 C733 1.346 . S
C733 N732 1.346 . S
C733 C734 1.396 . S
C733 C743 1.510 . S
C734 C730 1.401 1_554 S
C734 C733 1.396 . S
C735 C730 1.499 . S
C735 H736 0.959 . S
C735 H737 0.960 . S
C735 H738 0.961 . S
H736 C735 0.959 . S
H737 C735 0.960 . S
H738 C735 0.961 . S
O739 Co714 1.967 . S
O739 C747 1.258 . S
O740 Co715 1.941 1_556 S
O740 C747 1.266 . S
H741 C743 0.959 . S
H742 C743 0.961 . S
C743 C733 1.510 . S
C743 H741 0.959 . S
C743 H742 0.961 . S
C743 H744 0.960 . S
H744 C743 0.960 . S
H745 N725 0.862 . S
O746 Co714 1.920 . S
O746 C719 1.289 . S
C747 O739 1.258 . S
C747 O740 1.266 . S
Co748 O751 1.970 . S
Co748 N765 1.989 . S
Co748 O773 1.967 . S
Co748 O780 1.920 . S
Co749 O752 1.966 . S
Co749 N758 2.022 . S
Co749 N766 1.993 . S
Co749 O774 1.941 . S
C750 O751 1.258 . S
C750 O752 1.263 . S
O751 Co748 1.970 . S
O751 C750 1.258 . S
O752 Co749 1.966 . S
O752 C750 1.263 . S
C753 O754 1.235 . S
C753 O780 1.289 . S
O754 C753 1.235 . S
C755 C757 1.400 . S
C755 N758 1.351 . S
C755 C760 1.501 . S
C756 C757 1.387 . S
C756 N759 1.341 . S
C757 C755 1.400 . S
C757 C756 1.387 . S
N758 Co749 2.022 . S
N758 C755 1.351 . S
N758 N759 1.365 . S
N759 C756 1.341 . S
N759 N758 1.365 . S
N759 H779 0.862 . S
C760 C755 1.501 . S
C760 H761 0.961 . S
C760 H762 0.961 . S
C760 H763 0.960 . S
H761 C760 0.961 . S
H762 C760 0.961 . S
H763 C760 0.960 . S
C764 N765 1.342 . S
C764 C768 1.401 . S
C764 C769 1.499 . S
N765 Co748 1.989 . S
N765 C764 1.342 . S
N765 N766 1.388 . S
N766 Co749 1.993 . S
N766 N765 1.388 . S
N766 C767 1.346 . S
C767 N766 1.346 . S
C767 C768 1.396 . S
C767 C777 1.510 . S
C768 C764 1.401 . S
C768 C767 1.396 . S
C769 C764 1.499 . S
C769 H770 0.959 . S
C769 H771 0.960 . S
C769 H772 0.961 . S
H770 C769 0.959 . S
H771 C769 0.960 . S
H772 C769 0.961 . S
O773 Co748 1.967 . S
O773 C781 1.258 . S
O774 Co749 1.941 . S
O774 C781 1.266 . S
H775 C777 0.959 . S
H776 C777 0.961 . S
C777 C767 1.510 . S
C777 H775 0.959 . S
C777 H776 0.961 . S
C777 H778 0.960 . S
H778 C777 0.960 . S
H779 N759 0.862 . S
O780 Co748 1.920 . S
O780 C753 1.289 . S
C781 O773 1.258 . S
C781 O774 1.266 . S
Co782 O785 1.970 . S
Co782 N799 1.989 . S
Co782 O807 1.967 . S
Co782 O814 1.920 . S
Co783 O786 1.966 . S
Co783 N792 2.022 . S
Co783 N800 1.993 . S
Co783 O808 1.941 . S
C784 O785 1.258 . S
C784 O786 1.263 . S
O785 Co782 1.970 . S
O785 C784 1.258 . S
O786 Co783 1.966 . S
O786 C784 1.263 . S
C787 O788 1.235 . S
C787 O814 1.289 . S
O788 C787 1.235 . S
C789 C791 1.400 . S
C789 N792 1.351 . S
C789 C794 1.501 . S
C790 C791 1.387 . S
C790 N793 1.341 . S
C791 C789 1.400 . S
C791 C790 1.387 . S
N792 Co783 2.022 . S
N792 C789 1.351 . S
N792 N793 1.365 . S
N793 C790 1.341 . S
N793 N792 1.365 . S
N793 H813 0.862 . S
C794 C789 1.501 . S
C794 H795 0.961 . S
C794 H796 0.961 . S
C794 H797 0.960 . S
H795 C794 0.961 . S
H796 C794 0.961 . S
H797 C794 0.960 . S
C798 N799 1.342 . S
C798 C802 1.401 . S
C798 C803 1.499 . S
N799 Co782 1.989 . S
N799 C798 1.342 . S
N799 N800 1.388 . S
N800 Co783 1.993 . S
N800 N799 1.388 . S
N800 C801 1.346 . S
C801 N800 1.346 . S
C801 C802 1.396 . S
C801 C811 1.510 . S
C802 C798 1.401 . S
C802 C801 1.396 . S
C803 C798 1.499 . S
C803 H804 0.959 . S
C803 H805 0.960 . S
C803 H806 0.961 . S
H804 C803 0.959 . S
H805 C803 0.960 . S
H806 C803 0.961 . S
O807 Co782 1.967 . S
O807 C815 1.258 . S
O808 Co783 1.941 . S
O808 C815 1.266 . S
H809 C811 0.959 . S
H810 C811 0.961 . S
C811 C801 1.510 . S
C811 H809 0.959 . S
C811 H810 0.961 . S
C811 H812 0.960 . S
H812 C811 0.960 . S
H813 N793 0.862 . S
O814 Co782 1.920 . S
O814 C787 1.289 . S
C815 O807 1.258 . S
C815 O808 1.266 . S
Co816 O819 1.970 . S
Co816 N833 1.989 . S
Co816 O841 1.967 . S
Co816 O848 1.920 . S
Co817 O820 1.966 . S
Co817 N826 2.022 . S
Co817 N834 1.993 . S
Co817 O842 1.941 . S
C818 O819 1.258 . S
C818 O820 1.263 . S
O819 Co816 1.970 . S
O819 C818 1.258 . S
O820 Co817 1.966 . S
O820 C818 1.263 . S
C821 O822 1.235 . S
C821 O848 1.289 . S
O822 C821 1.235 . S
C823 C825 1.400 . S
C823 N826 1.351 . S
C823 C828 1.501 . S
C824 C825 1.387 . S
C824 N827 1.341 . S
C825 C823 1.400 . S
C825 C824 1.387 . S
N826 Co817 2.022 . S
N826 C823 1.351 . S
N826 N827 1.365 . S
N827 C824 1.341 . S
N827 N826 1.365 . S
N827 H847 0.862 . S
C828 C823 1.501 . S
C828 H829 0.961 . S
C828 H830 0.961 . S
C828 H831 0.960 . S
H829 C828 0.961 . S
H830 C828 0.961 . S
H831 C828 0.960 . S
C832 N833 1.342 . S
C832 C836 1.401 . S
C832 C837 1.499 . S
N833 Co816 1.989 . S
N833 C832 1.342 . S
N833 N834 1.388 . S
N834 Co817 1.993 . S
N834 N833 1.388 . S
N834 C835 1.346 . S
C835 N834 1.346 . S
C835 C836 1.396 . S
C835 C845 1.510 . S
C836 C832 1.401 . S
C836 C835 1.396 . S
C837 C832 1.499 . S
C837 H838 0.959 . S
C837 H839 0.960 . S
C837 H840 0.961 . S
H838 C837 0.959 . S
H839 C837 0.960 . S
H840 C837 0.961 . S
O841 Co816 1.967 . S
O841 C849 1.258 . S
O842 Co817 1.941 . S
O842 C849 1.266 . S
H843 C845 0.959 . S
H844 C845 0.961 . S
C845 C835 1.510 . S
C845 H843 0.959 . S
C845 H844 0.961 . S
C845 H846 0.960 . S
H846 C845 0.960 . S
H847 N827 0.862 . S
O848 Co816 1.920 . S
O848 C821 1.289 . S
C849 O841 1.258 . S
C849 O842 1.266 . S
Co850 O853 1.970 . S
Co850 N867 1.989 . S
Co850 O875 1.967 . S
Co850 O882 1.920 . S
Co851 O854 1.966 . S
Co851 N860 2.022 . S
Co851 N868 1.993 . S
Co851 O876 1.941 1_554 S
C852 O853 1.258 1_554 S
C852 O854 1.263 . S
O853 Co850 1.970 . S
O853 C852 1.258 1_556 S
O854 Co851 1.966 . S
O854 C852 1.263 . S
C855 O856 1.235 . S
C855 O882 1.289 . S
O856 C855 1.235 . S
C857 C859 1.400 . S
C857 N860 1.351 . S
C857 C862 1.501 . S
C858 C859 1.387 . S
C858 N861 1.341 . S
C859 C857 1.400 . S
C859 C858 1.387 . S
N860 Co851 2.022 . S
N860 C857 1.351 . S
N860 N861 1.365 . S
N861 C858 1.341 . S
N861 N860 1.365 . S
N861 H881 0.862 . S
C862 C857 1.501 . S
C862 H863 0.961 . S
C862 H864 0.961 . S
C862 H865 0.960 . S
H863 C862 0.961 . S
H864 C862 0.961 . S
H865 C862 0.960 . S
C866 N867 1.342 . S
C866 C870 1.401 1_556 S
C866 C871 1.499 . S
N867 Co850 1.989 . S
N867 C866 1.342 . S
N867 N868 1.388 1_556 S
N868 Co851 1.993 . S
N868 N867 1.388 1_554 S
N868 C869 1.346 . S
C869 N868 1.346 . S
C869 C870 1.396 . S
C869 C879 1.510 . S
C870 C866 1.401 1_554 S
C870 C869 1.396 . S
C871 C866 1.499 . S
C871 H872 0.959 . S
C871 H873 0.960 . S
C871 H874 0.961 . S
H872 C871 0.959 . S
H873 C871 0.960 . S
H874 C871 0.961 . S
O875 Co850 1.967 . S
O875 C883 1.258 . S
O876 Co851 1.941 1_556 S
O876 C883 1.266 . S
H877 C879 0.959 . S
H878 C879 0.961 . S
C879 C869 1.510 . S
C879 H877 0.959 . S
C879 H878 0.961 . S
C879 H880 0.960 . S
H880 C879 0.960 . S
H881 N861 0.862 . S
O882 Co850 1.920 . S
O882 C855 1.289 . S
C883 O875 1.258 . S
C883 O876 1.266 . S
Co884 O887 1.970 . S
Co884 N901 1.989 . S
Co884 O909 1.967 . S
Co884 O916 1.920 . S
Co885 O888 1.966 . S
Co885 N894 2.022 . S
Co885 N902 1.993 . S
Co885 O910 1.941 . S
C886 O887 1.258 . S
C886 O888 1.263 . S
O887 Co884 1.970 . S
O887 C886 1.258 . S
O888 Co885 1.966 . S
O888 C886 1.263 . S
C889 O890 1.235 . S
C889 O916 1.289 . S
O890 C889 1.235 . S
C891 C893 1.400 . S
C891 N894 1.351 . S
C891 C896 1.501 . S
C892 C893 1.387 . S
C892 N895 1.341 . S
C893 C891 1.400 . S
C893 C892 1.387 . S
N894 Co885 2.022 . S
N894 C891 1.351 . S
N894 N895 1.365 . S
N895 C892 1.341 . S
N895 N894 1.365 . S
N895 H915 0.862 . S
C896 C891 1.501 . S
C896 H897 0.961 . S
C896 H898 0.961 . S
C896 H899 0.960 . S
H897 C896 0.961 . S
H898 C896 0.961 . S
H899 C896 0.960 . S
C900 N901 1.342 . S
C900 C904 1.401 . S
C900 C905 1.499 . S
N901 Co884 1.989 . S
N901 C900 1.342 . S
N901 N902 1.388 . S
N902 Co885 1.993 . S
N902 N901 1.388 . S
N902 C903 1.346 . S
C903 N902 1.346 . S
C903 C904 1.396 . S
C903 C913 1.510 . S
C904 C900 1.401 . S
C904 C903 1.396 . S
C905 C900 1.499 . S
C905 H906 0.959 . S
C905 H907 0.960 . S
C905 H908 0.961 . S
H906 C905 0.959 . S
H907 C905 0.960 . S
H908 C905 0.961 . S
O909 Co884 1.967 . S
O909 C917 1.258 . S
O910 Co885 1.941 . S
O910 C917 1.266 . S
H911 C913 0.959 . S
H912 C913 0.961 . S
C913 C903 1.510 . S
C913 H911 0.959 . S
C913 H912 0.961 . S
C913 H914 0.960 . S
H914 C913 0.960 . S
H915 N895 0.862 . S
O916 Co884 1.920 . S
O916 C889 1.289 . S
C917 O909 1.258 . S
C917 O910 1.266 . S
Co918 O921 1.970 . S
Co918 N935 1.989 . S
Co918 O943 1.967 . S
Co918 O950 1.920 . S
Co919 O922 1.966 . S
Co919 N928 2.022 . S
Co919 N936 1.993 . S
Co919 O944 1.941 . S
C920 O921 1.258 . S
C920 O922 1.263 . S
O921 Co918 1.970 . S
O921 C920 1.258 . S
O922 Co919 1.966 . S
O922 C920 1.263 . S
C923 O924 1.235 . S
C923 O950 1.289 . S
O924 C923 1.235 . S
C925 C927 1.400 . S
C925 N928 1.351 . S
C925 C930 1.501 . S
C926 C927 1.387 . S
C926 N929 1.341 . S
C927 C925 1.400 . S
C927 C926 1.387 . S
N928 Co919 2.022 . S
N928 C925 1.351 . S
N928 N929 1.365 . S
N929 C926 1.341 . S
N929 N928 1.365 . S
N929 H949 0.862 . S
C930 C925 1.501 . S
C930 H931 0.961 . S
C930 H932 0.961 . S
C930 H933 0.960 . S
H931 C930 0.961 . S
H932 C930 0.961 . S
H933 C930 0.960 . S
C934 N935 1.342 . S
C934 C938 1.401 . S
C934 C939 1.499 . S
N935 Co918 1.989 . S
N935 C934 1.342 . S
N935 N936 1.388 . S
N936 Co919 1.993 . S
N936 N935 1.388 . S
N936 C937 1.346 . S
C937 N936 1.346 . S
C937 C938 1.396 . S
C937 C947 1.510 . S
C938 C934 1.401 . S
C938 C937 1.396 . S
C939 C934 1.499 . S
C939 H940 0.959 . S
C939 H941 0.960 . S
C939 H942 0.961 . S
H940 C939 0.959 . S
H941 C939 0.960 . S
H942 C939 0.961 . S
O943 Co918 1.967 . S
O943 C951 1.258 . S
O944 Co919 1.941 . S
O944 C951 1.266 . S
H945 C947 0.959 . S
H946 C947 0.961 . S
C947 C937 1.510 . S
C947 H945 0.959 . S
C947 H946 0.961 . S
C947 H948 0.960 . S
H948 C947 0.960 . S
H949 N929 0.862 . S
O950 Co918 1.920 . S
O950 C923 1.289 . S
C951 O943 1.258 . S
C951 O944 1.266 . S
Co952 O955 1.970 . S
Co952 N969 1.989 . S
Co952 O977 1.967 . S
Co952 O984 1.920 . S
Co953 O956 1.966 . S
Co953 N962 2.022 . S
Co953 N970 1.993 . S
Co953 O978 1.941 . S
C954 O955 1.258 . S
C954 O956 1.263 . S
O955 Co952 1.970 . S
O955 C954 1.258 . S
O956 Co953 1.966 . S
O956 C954 1.263 . S
C957 O958 1.235 . S
C957 O984 1.289 . S
O958 C957 1.235 . S
C959 C961 1.400 . S
C959 N962 1.351 . S
C959 C964 1.501 . S
C960 C961 1.387 . S
C960 N963 1.341 . S
C961 C959 1.400 . S
C961 C960 1.387 . S
N962 Co953 2.022 . S
N962 C959 1.351 . S
N962 N963 1.365 . S
N963 C960 1.341 . S
N963 N962 1.365 . S
N963 H983 0.862 . S
C964 C959 1.501 . S
C964 H965 0.961 . S
C964 H966 0.961 . S
C964 H967 0.960 . S
H965 C964 0.961 . S
H966 C964 0.961 . S
H967 C964 0.960 . S
C968 N969 1.342 . S
C968 C972 1.401 . S
C968 C973 1.499 . S
N969 Co952 1.989 . S
N969 C968 1.342 . S
N969 N970 1.388 . S
N970 Co953 1.993 . S
N970 N969 1.388 . S
N970 C971 1.346 . S
C971 N970 1.346 . S
C971 C972 1.396 . S
C971 C981 1.510 . S
C972 C968 1.401 . S
C972 C971 1.396 . S
C973 C968 1.499 . S
C973 H974 0.959 . S
C973 H975 0.960 . S
C973 H976 0.961 . S
H974 C973 0.959 . S
H975 C973 0.960 . S
H976 C973 0.961 . S
O977 Co952 1.967 . S
O977 C985 1.258 . S
O978 Co953 1.941 . S
O978 C985 1.266 . S
H979 C981 0.959 . S
H980 C981 0.961 . S
C981 C971 1.510 . S
C981 H979 0.959 . S
C981 H980 0.961 . S
C981 H982 0.960 . S
H982 C981 0.960 . S
H983 N963 0.862 . S
O984 Co952 1.920 . S
O984 C957 1.289 . S
C985 O977 1.258 . S
C985 O978 1.266 . S
Co986 O989 1.970 . S
Co986 N1003 1.989 . S
Co986 O1011 1.967 . S
Co986 O1018 1.920 . S
Co987 O990 1.966 . S
Co987 N996 2.022 . S
Co987 N1004 1.993 . S
Co987 O1012 1.941 1_556 S
C988 O989 1.258 1_556 S
C988 O990 1.263 . S
O989 Co986 1.970 . S
O989 C988 1.258 1_554 S
O990 Co987 1.966 . S
O990 C988 1.263 . S
C991 O992 1.235 . S
C991 O1018 1.289 . S
O992 C991 1.235 . S
C993 C995 1.400 . S
C993 N996 1.351 . S
C993 C998 1.501 . S
C994 C995 1.387 . S
C994 N997 1.341 . S
C995 C993 1.400 . S
C995 C994 1.387 . S
N996 Co987 2.022 . S
N996 C993 1.351 . S
N996 N997 1.365 . S
N997 C994 1.341 . S
N997 N996 1.365 . S
N997 H1017 0.862 . S
C998 C993 1.501 . S
C998 H999 0.961 . S
C998 H1000 0.961 . S
C998 H1001 0.960 . S
H999 C998 0.961 . S
H1000 C998 0.961 . S
H1001 C998 0.960 . S
C1002 N1003 1.342 . S
C1002 C1006 1.401 1_554 S
C1002 C1007 1.499 . S
N1003 Co986 1.989 . S
N1003 C1002 1.342 . S
N1003 N1004 1.388 1_554 S
N1004 Co987 1.993 . S
N1004 N1003 1.388 1_556 S
N1004 C1005 1.346 . S
C1005 N1004 1.346 . S
C1005 C1006 1.396 . S
C1005 C1015 1.510 . S
C1006 C1002 1.401 1_556 S
C1006 C1005 1.396 . S
C1007 C1002 1.499 . S
C1007 H1008 0.959 . S
C1007 H1009 0.960 . S
C1007 H1010 0.961 . S
H1008 C1007 0.959 . S
H1009 C1007 0.960 . S
H1010 C1007 0.961 . S
O1011 Co986 1.967 . S
O1011 C1019 1.258 . S
O1012 Co987 1.941 1_554 S
O1012 C1019 1.266 . S
H1013 C1015 0.959 . S
H1014 C1015 0.961 . S
C1015 C1005 1.510 . S
C1015 H1013 0.959 . S
C1015 H1014 0.961 . S
C1015 H1016 0.960 . S
H1016 C1015 0.960 . S
H1017 N997 0.862 . S
O1018 Co986 1.920 . S
O1018 C991 1.289 . S
C1019 O1011 1.258 . S
C1019 O1012 1.266 . S
Co1020 O1023 1.970 . S
Co1020 N1037 1.989 . S
Co1020 O1045 1.967 . S
Co1020 O1052 1.920 . S
Co1021 O1024 1.966 . S
Co1021 N1030 2.022 . S
Co1021 N1038 1.993 . S
Co1021 O1046 1.941 . S
C1022 O1023 1.258 . S
C1022 O1024 1.263 . S
O1023 Co1020 1.970 . S
O1023 C1022 1.258 . S
O1024 Co1021 1.966 . S
O1024 C1022 1.263 . S
C1025 O1026 1.235 . S
C1025 O1052 1.289 . S
O1026 C1025 1.235 . S
C1027 C1029 1.400 . S
C1027 N1030 1.351 . S
C1027 C1032 1.501 . S
C1028 C1029 1.387 . S
C1028 N1031 1.341 . S
C1029 C1027 1.400 . S
C1029 C1028 1.387 . S
N1030 Co1021 2.022 . S
N1030 C1027 1.351 . S
N1030 N1031 1.365 . S
N1031 C1028 1.341 . S
N1031 N1030 1.365 . S
N1031 H1051 0.862 . S
C1032 C1027 1.501 . S
C1032 H1033 0.961 . S
C1032 H1034 0.961 . S
C1032 H1035 0.960 . S
H1033 C1032 0.961 . S
H1034 C1032 0.961 . S
H1035 C1032 0.960 . S
C1036 N1037 1.342 . S
C1036 C1040 1.401 . S
C1036 C1041 1.499 . S
N1037 Co1020 1.989 . S
N1037 C1036 1.342 . S
N1037 N1038 1.388 . S
N1038 Co1021 1.993 . S
N1038 N1037 1.388 . S
N1038 C1039 1.346 . S
C1039 N1038 1.346 . S
C1039 C1040 1.396 . S
C1039 C1049 1.510 . S
C1040 C1036 1.401 . S
C1040 C1039 1.396 . S
C1041 C1036 1.499 . S
C1041 H1042 0.959 . S
C1041 H1043 0.960 . S
C1041 H1044 0.961 . S
H1042 C1041 0.959 . S
H1043 C1041 0.960 . S
H1044 C1041 0.961 . S
O1045 Co1020 1.967 . S
O1045 C1053 1.258 . S
O1046 Co1021 1.941 . S
O1046 C1053 1.266 . S
H1047 C1049 0.959 . S
H1048 C1049 0.961 . S
C1049 C1039 1.510 . S
C1049 H1047 0.959 . S
C1049 H1048 0.961 . S
C1049 H1050 0.960 . S
H1050 C1049 0.960 . S
H1051 N1031 0.862 . S
O1052 Co1020 1.920 . S
O1052 C1025 1.289 . S
C1053 O1045 1.258 . S
C1053 O1046 1.266 . S
Co1054 O1057 1.970 . S
Co1054 N1071 1.989 . S
Co1054 O1079 1.967 . S
Co1054 O1086 1.920 . S
Co1055 O1058 1.966 . S
Co1055 N1064 2.022 . S
Co1055 N1072 1.993 . S
Co1055 O1080 1.941 . S
C1056 O1057 1.258 . S
C1056 O1058 1.263 . S
O1057 Co1054 1.970 . S
O1057 C1056 1.258 . S
O1058 Co1055 1.966 . S
O1058 C1056 1.263 . S
C1059 O1060 1.235 . S
C1059 O1086 1.289 . S
O1060 C1059 1.235 . S
C1061 C1063 1.400 . S
C1061 N1064 1.351 . S
C1061 C1066 1.501 . S
C1062 C1063 1.387 . S
C1062 N1065 1.341 . S
C1063 C1061 1.400 . S
C1063 C1062 1.387 . S
N1064 Co1055 2.022 . S
N1064 C1061 1.351 . S
N1064 N1065 1.365 . S
N1065 C1062 1.341 . S
N1065 N1064 1.365 . S
N1065 H1085 0.862 . S
C1066 C1061 1.501 . S
C1066 H1067 0.961 . S
C1066 H1068 0.961 . S
C1066 H1069 0.960 . S
H1067 C1066 0.961 . S
H1068 C1066 0.961 . S
H1069 C1066 0.960 . S
C1070 N1071 1.342 . S
C1070 C1074 1.401 . S
C1070 C1075 1.499 . S
N1071 Co1054 1.989 . S
N1071 C1070 1.342 . S
N1071 N1072 1.388 . S
N1072 Co1055 1.993 . S
N1072 N1071 1.388 . S
N1072 C1073 1.346 . S
C1073 N1072 1.346 . S
C1073 C1074 1.396 . S
C1073 C1083 1.510 . S
C1074 C1070 1.401 . S
C1074 C1073 1.396 . S
C1075 C1070 1.499 . S
C1075 H1076 0.959 . S
C1075 H1077 0.960 . S
C1075 H1078 0.961 . S
H1076 C1075 0.959 . S
H1077 C1075 0.960 . S
H1078 C1075 0.961 . S
O1079 Co1054 1.967 . S
O1079 C1087 1.258 . S
O1080 Co1055 1.941 . S
O1080 C1087 1.266 . S
H1081 C1083 0.959 . S
H1082 C1083 0.961 . S
C1083 C1073 1.510 . S
C1083 H1081 0.959 . S
C1083 H1082 0.961 . S
C1083 H1084 0.960 . S
H1084 C1083 0.960 . S
H1085 N1065 0.862 . S
O1086 Co1054 1.920 . S
O1086 C1059 1.289 . S
C1087 O1079 1.258 . S
C1087 O1080 1.266 . S
C1088 C1089 1.349 . S
C1088 C1090 1.327 . S
C1088 H1113 0.950 . S
C1089 C1088 1.349 . S
C1089 C1105 1.349 . S
C1090 C1088 1.327 . S
C1090 C1109 1.429 . S
C1090 H1114 0.950 . S
C1091 C1108 1.574 . S
C1091 C1110 1.368 . S
C1091 H1115 0.949 . S
H1092 C1096 0.949 . S
C1093 C1094 1.349 . S
C1093 C1095 1.327 . S
C1093 H1116 0.950 . S
C1094 C1093 1.349 . S
C1094 C1106 1.349 . S
C1095 C1093 1.327 . S
C1095 C1111 1.429 . S
C1095 H1117 0.950 . S
C1096 H1092 0.949 . S
C1096 C1104 1.574 . S
C1096 C1112 1.368 . S
H1097 C1105 0.950 . S
H1098 C1103 0.950 . S
H1099 C1104 0.949 . S
H1100 C1106 0.950 . S
H1101 C1107 0.950 . S
H1102 C1108 0.949 . S
C1103 H1098 0.950 . S
C1103 C1105 1.327 . S
C1103 C1109 1.429 . S
C1104 C1096 1.574 . S
C1104 H1099 0.949 . S
C1104 C1110 1.368 . S
C1105 C1089 1.349 . S
C1105 H1097 0.950 . S
C1105 C1103 1.327 . S
C1106 C1094 1.349 . S
C1106 H1100 0.950 . S
C1106 C1107 1.327 . S
C1107 H1101 0.950 . S
C1107 C1106 1.327 . S
C1107 C1111 1.429 . S
C1108 C1091 1.574 . S
C1108 H1102 0.949 . S
C1108 C1112 1.368 . S
C1109 C1090 1.429 . S
C1109 C1103 1.429 . S
C1109 C1110 1.523 . S
C1110 C1091 1.368 . S
C1110 C1104 1.368 . S
C1110 C1109 1.523 . S
C1111 C1095 1.429 . S
C1111 C1107 1.429 . S
C1111 C1112 1.523 . S
C1112 C1096 1.368 . S
C1112 C1108 1.368 . S
C1112 C1111 1.523 . S
H1113 C1088 0.950 . S
H1114 C1090 0.950 . S
H1115 C1091 0.949 . S
H1116 C1093 0.950 . S
H1117 C1095 0.950 . S
C1118 C1119 1.349 . S
C1118 C1120 1.327 . S
C1118 H1143 0.950 . S
C1119 C1118 1.349 . S
C1119 C1135 1.349 . S
C1120 C1118 1.327 . S
C1120 C1139 1.429 . S
C1120 H1144 0.950 . S
C1121 C1138 1.535 1_465 S
C1121 C1140 1.404 . S
C1121 H1145 0.954 . S
H1122 C1126 0.954 . S
C1123 C1124 1.349 . S
C1123 C1125 1.327 . S
C1123 H1146 0.950 . S
C1124 C1123 1.349 . S
C1124 C1136 1.349 . S
C1125 C1123 1.327 . S
C1125 C1141 1.429 . S
C1125 H1147 0.950 . S
C1126 H1122 0.954 . S
C1126 C1134 1.535 1_645 S
C1126 C1142 1.404 . S
H1127 C1135 0.950 . S
H1128 C1133 0.950 . S
H1129 C1134 0.949 . S
H1130 C1136 0.950 . S
H1131 C1137 0.950 . S
H1132 C1138 0.949 . S
C1133 H1128 0.950 . S
C1133 C1135 1.327 . S
C1133 C1139 1.429 . S
C1134 C1126 1.535 1_465 S
C1134 H1129 0.949 . S
C1134 C1140 1.368 . S
C1135 C1119 1.349 . S
C1135 H1127 0.950 . S
C1135 C1133 1.327 . S
C1136 C1124 1.349 . S
C1136 H1130 0.950 . S
C1136 C1137 1.327 . S
C1137 H1131 0.950 . S
C1137 C1136 1.327 . S
C1137 C1141 1.429 . S
C1138 C1121 1.535 1_645 S
C1138 H1132 0.949 . S
C1138 C1142 1.368 . S
C1139 C1120 1.429 . S
C1139 C1133 1.429 . S
C1139 C1140 1.523 . S
C1140 C1121 1.404 . S
C1140 C1134 1.368 . S
C1140 C1139 1.523 . S
C1141 C1125 1.429 . S
C1141 C1137 1.429 . S
C1141 C1142 1.523 . S
C1142 C1126 1.404 . S
C1142 C1138 1.368 . S
C1142 C1141 1.523 . S
H1143 C1118 0.950 . S
H1144 C1120 0.950 . S
H1145 C1121 0.954 . S
H1146 C1123 0.950 . S
H1147 C1125 0.950 . S
C1148 C1149 1.349 . S
C1148 C1150 1.327 . S
C1148 H1173 0.950 . S
C1149 C1148 1.349 . S
C1149 C1165 1.349 . S
C1150 C1148 1.327 . S
C1150 C1169 1.429 . S
C1150 H1174 0.950 . S
C1151 C1168 1.574 . S
C1151 C1170 1.368 . S
C1151 H1175 0.949 . S
H1152 C1156 0.949 . S
C1153 C1154 1.349 . S
C1153 C1155 1.327 . S
C1153 H1176 0.950 . S
C1154 C1153 1.349 . S
C1154 C1166 1.349 . S
C1155 C1153 1.327 . S
C1155 C1171 1.429 . S
C1155 H1177 0.950 . S
C1156 H1152 0.949 . S
C1156 C1164 1.574 . S
C1156 C1172 1.368 . S
H1157 C1165 0.950 . S
H1158 C1163 0.950 . S
H1159 C1164 0.949 . S
H1160 C1166 0.950 . S
H1161 C1167 0.950 . S
H1162 C1168 0.949 . S
C1163 H1158 0.950 . S
C1163 C1165 1.327 . S
C1163 C1169 1.429 . S
C1164 C1156 1.574 . S
C1164 H1159 0.949 . S
C1164 C1170 1.368 . S
C1165 C1149 1.349 . S
C1165 H1157 0.950 . S
C1165 C1163 1.327 . S
C1166 C1154 1.349 . S
C1166 H1160 0.950 . S
C1166 C1167 1.327 . S
C1167 H1161 0.950 . S
C1167 C1166 1.327 . S
C1167 C1171 1.429 . S
C1168 C1151 1.574 . S
C1168 H1162 0.949 . S
C1168 C1172 1.368 . S
C1169 C1150 1.429 . S
C1169 C1163 1.429 . S
C1169 C1170 1.523 . S
C1170 C1151 1.368 . S
C1170 C1164 1.368 . S
C1170 C1169 1.523 . S
C1171 C1155 1.429 . S
C1171 C1167 1.429 . S
C1171 C1172 1.523 . S
C1172 C1156 1.368 . S
C1172 C1168 1.368 . S
C1172 C1171 1.523 . S
H1173 C1148 0.950 . S
H1174 C1150 0.950 . S
H1175 C1151 0.949 . S
H1176 C1153 0.950 . S
H1177 C1155 0.950 . S
C1178 C1179 1.349 1_554 S
C1178 C1180 1.327 . S
C1178 H1203 0.950 . S
C1179 C1178 1.349 1_556 S
C1179 C1195 1.349 . S
C1180 C1178 1.327 . S
C1180 C1199 1.429 1_554 S
C1180 H1204 0.950 . S
C1181 C1198 1.574 1_545 S
C1181 C1200 1.368 . S
C1181 H1205 0.949 . S
H1182 C1186 0.949 . S
C1183 C1184 1.349 1_556 S
C1183 C1185 1.327 . S
C1183 H1206 0.950 . S
C1184 C1183 1.349 1_554 S
C1184 C1196 1.349 . S
C1185 C1183 1.327 . S
C1185 C1201 1.429 1_556 S
C1185 H1207 0.950 . S
C1186 H1182 0.949 . S
C1186 C1194 1.574 1_565 S
C1186 C1202 1.368 . S
H1187 C1195 0.950 . S
H1188 C1193 0.950 . S
H1189 C1194 0.949 . S
H1190 C1196 0.950 . S
H1191 C1197 0.950 . S
H1192 C1198 0.949 . S
C1193 H1188 0.950 . S
C1193 C1195 1.327 . S
C1193 C1199 1.429 . S
C1194 C1186 1.574 1_545 S
C1194 H1189 0.949 . S
C1194 C1200 1.368 1_554 S
C1195 C1179 1.349 . S
C1195 H1187 0.950 . S
C1195 C1193 1.327 . S
C1196 C1184 1.349 . S
C1196 H1190 0.950 . S
C1196 C1197 1.327 . S
C1197 H1191 0.950 . S
C1197 C1196 1.327 . S
C1197 C1201 1.429 . S
C1198 C1181 1.574 1_565 S
C1198 H1192 0.949 . S
C1198 C1202 1.368 1_556 S
C1199 C1180 1.429 1_556 S
C1199 C1193 1.429 . S
C1199 C1200 1.523 . S
C1200 C1181 1.368 . S
C1200 C1194 1.368 1_556 S
C1200 C1199 1.523 . S
C1201 C1185 1.429 1_554 S
C1201 C1197 1.429 . S
C1201 C1202 1.523 . S
C1202 C1186 1.368 . S
C1202 C1198 1.368 1_554 S
C1202 C1201 1.523 . S
H1203 C1178 0.950 . S
H1204 C1180 0.950 . S
H1205 C1181 0.949 . S
H1206 C1183 0.950 . S
H1207 C1185 0.950 . S
C1208 C1209 1.349 . S
C1208 C1210 1.327 . S
C1208 H1233 0.950 . S
C1209 C1208 1.349 . S
C1209 C1225 1.349 . S
C1210 C1208 1.327 . S
C1210 C1229 1.429 . S
C1210 H1234 0.950 . S
C1211 C1228 1.574 . S
C1211 C1230 1.368 . S
C1211 H1235 0.949 . S
H1212 C1216 0.949 . S
C1213 C1214 1.349 . S
C1213 C1215 1.327 . S
C1213 H1236 0.950 . S
C1214 C1213 1.349 . S
C1214 C1226 1.349 . S
C1215 C1213 1.327 . S
C1215 C1231 1.429 . S
C1215 H1237 0.950 . S
C1216 H1212 0.949 . S
C1216 C1224 1.574 . S
C1216 C1232 1.368 . S
H1217 C1225 0.950 . S
H1218 C1223 0.950 . S
H1219 C1224 0.949 . S
H1220 C1226 0.950 . S
H1221 C1227 0.950 . S
H1222 C1228 0.949 . S
C1223 H1218 0.950 . S
C1223 C1225 1.327 . S
C1223 C1229 1.429 . S
C1224 C1216 1.574 . S
C1224 H1219 0.949 . S
C1224 C1230 1.368 . S
C1225 C1209 1.349 . S
C1225 H1217 0.950 . S
C1225 C1223 1.327 . S
C1226 C1214 1.349 . S
C1226 H1220 0.950 . S
C1226 C1227 1.327 . S
C1227 H1221 0.950 . S
C1227 C1226 1.327 . S
C1227 C1231 1.429 . S
C1228 C1211 1.574 . S
C1228 H1222 0.949 . S
C1228 C1232 1.368 . S
C1229 C1210 1.429 . S
C1229 C1223 1.429 . S
C1229 C1230 1.523 . S
C1230 C1211 1.368 . S
C1230 C1224 1.368 . S
C1230 C1229 1.523 . S
C1231 C1215 1.429 . S
C1231 C1227 1.429 . S
C1231 C1232 1.523 . S
C1232 C1216 1.368 . S
C1232 C1228 1.368 . S
C1232 C1231 1.523 . S
H1233 C1208 0.950 . S
H1234 C1210 0.950 . S
H1235 C1211 0.949 . S
H1236 C1213 0.950 . S
H1237 C1215 0.950 . S
C1238 C1239 1.349 . S
C1238 C1240 1.327 . S
C1238 H1263 0.950 . S
C1239 C1238 1.349 . S
C1239 C1255 1.349 . S
C1240 C1238 1.327 . S
C1240 C1259 1.429 . S
C1240 H1264 0.950 . S
C1241 C1258 1.625 . S
C1241 C1260 1.317 1_545 S
C1241 H1265 0.954 . S
H1242 C1246 0.954 . S
C1243 C1244 1.349 . S
C1243 C1245 1.327 . S
C1243 H1266 0.950 . S
C1244 C1243 1.349 . S
C1244 C1256 1.349 . S
C1245 C1243 1.327 . S
C1245 C1261 1.429 . S
C1245 H1267 0.950 . S
C1246 H1242 0.954 . S
C1246 C1254 1.625 . S
C1246 C1262 1.317 1_565 S
H1247 C1255 0.950 . S
H1248 C1253 0.950 . S
H1249 C1254 0.949 . S
H1250 C1256 0.950 . S
H1251 C1257 0.950 . S
H1252 C1258 0.949 . S
C1253 H1248 0.950 . S
C1253 C1255 1.327 . S
C1253 C1259 1.429 . S
C1254 C1246 1.625 . S
C1254 H1249 0.949 . S
C1254 C1260 1.368 . S
C1255 C1239 1.349 . S
C1255 H1247 0.950 . S
C1255 C1253 1.327 . S
C1256 C1244 1.349 . S
C1256 H1250 0.950 . S
C1256 C1257 1.327 . S
C1257 H1251 0.950 . S
C1257 C1256 1.327 . S
C1257 C1261 1.429 . S
C1258 C1241 1.625 . S
C1258 H1252 0.949 . S
C1258 C1262 1.368 . S
C1259 C1240 1.429 . S
C1259 C1253 1.429 . S
C1259 C1260 1.523 . S
C1260 C1241 1.317 1_565 S
C1260 C1254 1.368 . S
C1260 C1259 1.523 . S
C1261 C1245 1.429 . S
C1261 C1257 1.429 . S
C1261 C1262 1.523 . S
C1262 C1246 1.317 1_545 S
C1262 C1258 1.368 . S
C1262 C1261 1.523 . S
H1263 C1238 0.950 . S
H1264 C1240 0.950 . S
H1265 C1241 0.954 . S
H1266 C1243 0.950 . S
H1267 C1245 0.950 . S
C1268 C1269 1.349 . S
C1268 C1270 1.327 . S
C1268 H1293 0.950 . S
C1269 C1268 1.349 . S
C1269 C1285 1.349 . S
C1270 C1268 1.327 . S
C1270 C1289 1.429 . S
C1270 H1294 0.950 . S
C1271 C1288 1.574 . S
C1271 C1290 1.368 . S
C1271 H1295 0.949 . S
H1272 C1276 0.949 . S
C1273 C1274 1.349 . S
C1273 C1275 1.327 . S
C1273 H1296 0.950 . S
C1274 C1273 1.349 . S
C1274 C1286 1.349 . S
C1275 C1273 1.327 . S
C1275 C1291 1.429 . S
C1275 H1297 0.950 . S
C1276 H1272 0.949 . S
C1276 C1284 1.574 . S
C1276 C1292 1.368 . S
H1277 C1285 0.950 . S
H1278 C1283 0.950 . S
H1279 C1284 0.949 . S
H1280 C1286 0.950 . S
H1281 C1287 0.950 . S
H1282 C1288 0.949 . S
C1283 H1278 0.950 . S
C1283 C1285 1.327 . S
C1283 C1289 1.429 . S
C1284 C1276 1.574 . S
C1284 H1279 0.949 . S
C1284 C1290 1.368 . S
C1285 C1269 1.349 . S
C1285 H1277 0.950 . S
C1285 C1283 1.327 . S
C1286 C1274 1.349 . S
C1286 H1280 0.950 . S
C1286 C1287 1.327 . S
C1287 H1281 0.950 . S
C1287 C1286 1.327 . S
C1287 C1291 1.429 . S
C1288 C1271 1.574 . S
C1288 H1282 0.949 . S
C1288 C1292 1.368 . S
C1289 C1270 1.429 . S
C1289 C1283 1.429 . S
C1289 C1290 1.523 . S
C1290 C1271 1.368 . S
C1290 C1284 1.368 . S
C1290 C1289 1.523 . S
C1291 C1275 1.429 . S
C1291 C1287 1.429 . S
C1291 C1292 1.523 . S
C1292 C1276 1.368 . S
C1292 C1288 1.368 . S
C1292 C1291 1.523 . S
H1293 C1268 0.950 . S
H1294 C1270 0.950 . S
H1295 C1271 0.949 . S
H1296 C1273 0.950 . S
H1297 C1275 0.950 . S
C1298 C1299 1.349 1_556 S
C1298 C1300 1.327 . S
C1298 H1323 0.950 . S
C1299 C1298 1.349 1_554 S
C1299 C1315 1.349 . S
C1300 C1298 1.327 . S
C1300 C1319 1.429 1_556 S
C1300 H1324 0.950 . S
C1301 C1318 1.593 1_545 S
C1301 C1320 1.349 1_655 S
C1301 H1325 0.949 . S
H1302 C1306 0.949 . S
C1303 C1304 1.349 1_554 S
C1303 C1305 1.327 . S
C1303 H1326 0.950 . S
C1304 C1303 1.349 1_556 S
C1304 C1316 1.349 . S
C1305 C1303 1.327 . S
C1305 C1321 1.429 1_554 S
C1305 H1327 0.950 . S
C1306 H1302 0.949 . S
C1306 C1314 1.593 1_565 S
C1306 C1322 1.349 1_455 S
H1307 C1315 0.950 . S
H1308 C1313 0.950 . S
H1309 C1314 0.949 . S
H1310 C1316 0.950 . S
H1311 C1317 0.950 . S
H1312 C1318 0.949 . S
C1313 H1308 0.950 . S
C1313 C1315 1.327 . S
C1313 C1319 1.429 . S
C1314 C1306 1.593 1_545 S
C1314 H1309 0.949 . S
C1314 C1320 1.368 1_556 S
C1315 C1299 1.349 . S
C1315 H1307 0.950 . S
C1315 C1313 1.327 . S
C1316 C1304 1.349 . S
C1316 H1310 0.950 . S
C1316 C1317 1.327 . S
C1317 H1311 0.950 . S
C1317 C1316 1.327 . S
C1317 C1321 1.429 . S
C1318 C1301 1.593 1_565 S
C1318 H1312 0.949 . S
C1318 C1322 1.368 1_554 S
C1319 C1300 1.429 1_554 S
C1319 C1313 1.429 . S
C1319 C1320 1.523 . S
C1320 C1301 1.349 1_455 S
C1320 C1314 1.368 1_554 S
C1320 C1319 1.523 . S
C1321 C1305 1.429 1_556 S
C1321 C1317 1.429 . S
C1321 C1322 1.523 . S
C1322 C1306 1.349 1_655 S
C1322 C1318 1.368 1_556 S
C1322 C1321 1.523 . S
H1323 C1298 0.950 . S
H1324 C1300 0.950 . S
H1325 C1301 0.949 . S
H1326 C1303 0.950 . S
H1327 C1305 0.950 . S
C1328 C1329 1.349 . S
C1328 C1330 1.327 . S
C1328 H1353 0.950 . S
C1329 C1328 1.349 . S
C1329 C1345 1.349 . S
C1330 C1328 1.327 . S
C1330 C1349 1.429 . S
C1330 H1354 0.950 . S
C1331 C1348 1.574 . S
C1331 C1350 1.368 . S
C1331 H1355 0.949 . S
H1332 C1336 0.949 . S
C1333 C1334 1.349 . S
C1333 C1335 1.327 . S
C1333 H1356 0.950 . S
C1334 C1333 1.349 . S
C1334 C1346 1.349 . S
C1335 C1333 1.327 . S
C1335 C1351 1.429 . S
C1335 H1357 0.950 . S
C1336 H1332 0.949 . S
C1336 C1344 1.574 . S
C1336 C1352 1.368 . S
H1337 C1345 0.950 . S
H1338 C1343 0.950 . S
H1339 C1344 0.949 . S
H1340 C1346 0.950 . S
H1341 C1347 0.950 . S
H1342 C1348 0.949 . S
C1343 H1338 0.950 . S
C1343 C1345 1.327 . S
C1343 C1349 1.429 . S
C1344 C1336 1.574 . S
C1344 H1339 0.949 . S
C1344 C1350 1.368 . S
C1345 C1329 1.349 . S
C1345 H1337 0.950 . S
C1345 C1343 1.327 . S
C1346 C1334 1.349 . S
C1346 H1340 0.950 . S
C1346 C1347 1.327 . S
C1347 H1341 0.950 . S
C1347 C1346 1.327 . S
C1347 C1351 1.429 . S
C1348 C1331 1.574 . S
C1348 H1342 0.949 . S
C1348 C1352 1.368 . S
C1349 C1330 1.429 . S
C1349 C1343 1.429 . S
C1349 C1350 1.523 . S
C1350 C1331 1.368 . S
C1350 C1344 1.368 . S
C1350 C1349 1.523 . S
C1351 C1335 1.429 . S
C1351 C1347 1.429 . S
C1351 C1352 1.523 . S
C1352 C1336 1.368 . S
C1352 C1348 1.368 . S
C1352 C1351 1.523 . S
H1353 C1328 0.950 . S
H1354 C1330 0.950 . S
H1355 C1331 0.949 . S
H1356 C1333 0.950 . S
H1357 C1335 0.950 . S
C1358 C1359 1.349 . S
C1358 C1360 1.327 . S
C1358 H1383 0.950 . S
C1359 C1358 1.349 . S
C1359 C1375 1.349 . S
C1360 C1358 1.327 . S
C1360 C1379 1.429 . S
C1360 H1384 0.950 . S
C1361 C1378 1.574 . S
C1361 C1380 1.368 . S
C1361 H1385 0.949 . S
H1362 C1366 0.949 . S
C1363 C1364 1.349 . S
C1363 C1365 1.327 . S
C1363 H1386 0.950 . S
C1364 C1363 1.349 . S
C1364 C1376 1.349 . S
C1365 C1363 1.327 . S
C1365 C1381 1.429 . S
C1365 H1387 0.950 . S
C1366 H1362 0.949 . S
C1366 C1374 1.574 . S
C1366 C1382 1.368 . S
H1367 C1375 0.950 . S
H1368 C1373 0.950 . S
H1369 C1374 0.949 . S
H1370 C1376 0.950 . S
H1371 C1377 0.950 . S
H1372 C1378 0.949 . S
C1373 H1368 0.950 . S
C1373 C1375 1.327 . S
C1373 C1379 1.429 . S
C1374 C1366 1.574 . S
C1374 H1369 0.949 . S
C1374 C1380 1.368 . S
C1375 C1359 1.349 . S
C1375 H1367 0.950 . S
C1375 C1373 1.327 . S
C1376 C1364 1.349 . S
C1376 H1370 0.950 . S
C1376 C1377 1.327 . S
C1377 H1371 0.950 . S
C1377 C1376 1.327 . S
C1377 C1381 1.429 . S
C1378 C1361 1.574 . S
C1378 H1372 0.949 . S
C1378 C1382 1.368 . S
C1379 C1360 1.429 . S
C1379 C1373 1.429 . S
C1379 C1380 1.523 . S
C1380 C1361 1.368 . S
C1380 C1374 1.368 . S
C1380 C1379 1.523 . S
C1381 C1365 1.429 . S
C1381 C1377 1.429 . S
C1381 C1382 1.523 . S
C1382 C1366 1.368 . S
C1382 C1378 1.368 . S
C1382 C1381 1.523 . S
H1383 C1358 0.950 . S
H1384 C1360 0.950 . S
H1385 C1361 0.949 . S
H1386 C1363 0.950 . S
H1387 C1365 0.950 . S
C1388 C1389 1.349 . S
C1388 C1390 1.327 . S
C1388 H1413 0.950 . S
C1389 C1388 1.349 . S
C1389 C1405 1.349 . S
C1390 C1388 1.327 . S
C1390 C1409 1.429 . S
C1390 H1414 0.950 . S
C1391 C1408 1.574 . S
C1391 C1410 1.368 . S
C1391 H1415 0.949 . S
H1392 C1396 0.949 . S
C1393 C1394 1.349 . S
C1393 C1395 1.327 . S
C1393 H1416 0.950 . S
C1394 C1393 1.349 . S
C1394 C1406 1.349 . S
C1395 C1393 1.327 . S
C1395 C1411 1.429 . S
C1395 H1417 0.950 . S
C1396 H1392 0.949 . S
C1396 C1404 1.574 . S
C1396 C1412 1.368 . S
H1397 C1405 0.950 . S
H1398 C1403 0.950 . S
H1399 C1404 0.949 . S
H1400 C1406 0.950 . S
H1401 C1407 0.950 . S
H1402 C1408 0.949 . S
C1403 H1398 0.950 . S
C1403 C1405 1.327 . S
C1403 C1409 1.429 . S
C1404 C1396 1.574 . S
C1404 H1399 0.949 . S
C1404 C1410 1.368 . S
C1405 C1389 1.349 . S
C1405 H1397 0.950 . S
C1405 C1403 1.327 . S
C1406 C1394 1.349 . S
C1406 H1400 0.950 . S
C1406 C1407 1.327 . S
C1407 H1401 0.950 . S
C1407 C1406 1.327 . S
C1407 C1411 1.429 . S
C1408 C1391 1.574 . S
C1408 H1402 0.949 . S
C1408 C1412 1.368 . S
C1409 C1390 1.429 . S
C1409 C1403 1.429 . S
C1409 C1410 1.523 . S
C1410 C1391 1.368 . S
C1410 C1404 1.368 . S
C1410 C1409 1.523 . S
C1411 C1395 1.429 . S
C1411 C1407 1.429 . S
C1411 C1412 1.523 . S
C1412 C1396 1.368 . S
C1412 C1408 1.368 . S
C1412 C1411 1.523 . S
H1413 C1388 0.950 . S
H1414 C1390 0.950 . S
H1415 C1391 0.949 . S
H1416 C1393 0.950 . S
H1417 C1395 0.950 . S
C1418 C1419 1.349 . S
C1418 C1420 1.327 . S
C1418 H1443 0.950 . S
C1419 C1418 1.349 . S
C1419 C1435 1.349 . S
C1420 C1418 1.327 . S
C1420 C1439 1.429 . S
C1420 H1444 0.950 . S
C1421 C1438 1.574 . S
C1421 C1440 1.368 . S
C1421 H1445 0.949 . S
H1422 C1426 0.949 . S
C1423 C1424 1.349 . S
C1423 C1425 1.327 . S
C1423 H1446 0.950 . S
C1424 C1423 1.349 . S
C1424 C1436 1.349 . S
C1425 C1423 1.327 . S
C1425 C1441 1.429 . S
C1425 H1447 0.950 . S
C1426 H1422 0.949 . S
C1426 C1434 1.574 . S
C1426 C1442 1.368 . S
H1427 C1435 0.950 . S
H1428 C1433 0.950 . S
H1429 C1434 0.949 . S
H1430 C1436 0.950 . S
H1431 C1437 0.950 . S
H1432 C1438 0.949 . S
C1433 H1428 0.950 . S
C1433 C1435 1.327 . S
C1433 C1439 1.429 . S
C1434 C1426 1.574 . S
C1434 H1429 0.949 . S
C1434 C1440 1.368 . S
C1435 C1419 1.349 . S
C1435 H1427 0.950 . S
C1435 C1433 1.327 . S
C1436 C1424 1.349 . S
C1436 H1430 0.950 . S
C1436 C1437 1.327 . S
C1437 H1431 0.950 . S
C1437 C1436 1.327 . S
C1437 C1441 1.429 . S
C1438 C1421 1.574 . S
C1438 H1432 0.949 . S
C1438 C1442 1.368 . S
C1439 C1420 1.429 . S
C1439 C1433 1.429 . S
C1439 C1440 1.523 . S
C1440 C1421 1.368 . S
C1440 C1434 1.368 . S
C1440 C1439 1.523 . S
C1441 C1425 1.429 . S
C1441 C1437 1.429 . S
C1441 C1442 1.523 . S
C1442 C1426 1.368 . S
C1442 C1438 1.368 . S
C1442 C1441 1.523 . S
H1443 C1418 0.950 . S
H1444 C1420 0.950 . S
H1445 C1421 0.949 . S
H1446 C1423 0.950 . S
H1447 C1425 0.950 . S
C1448 C1449 1.349 1_554 S
C1448 C1450 1.327 . S
C1448 H1473 0.950 . S
C1449 C1448 1.349 1_556 S
C1449 C1465 1.349 . S
C1450 C1448 1.327 . S
C1450 C1469 1.429 1_554 S
C1450 H1474 0.950 . S
C1451 C1468 1.574 . S
C1451 C1470 1.368 . S
C1451 H1475 0.949 . S
H1452 C1456 0.949 . S
C1453 C1454 1.349 1_556 S
C1453 C1455 1.327 . S
C1453 H1476 0.950 . S
C1454 C1453 1.349 1_554 S
C1454 C1466 1.349 . S
C1455 C1453 1.327 . S
C1455 C1471 1.429 1_556 S
C1455 H1477 0.950 . S
C1456 H1452 0.949 . S
C1456 C1464 1.574 . S
C1456 C1472 1.368 . S
H1457 C1465 0.950 . S
H1458 C1463 0.950 . S
H1459 C1464 0.949 . S
H1460 C1466 0.950 . S
H1461 C1467 0.950 . S
H1462 C1468 0.949 . S
C1463 H1458 0.950 . S
C1463 C1465 1.327 . S
C1463 C1469 1.429 . S
C1464 C1456 1.574 . S
C1464 H1459 0.949 . S
C1464 C1470 1.368 1_554 S
C1465 C1449 1.349 . S
C1465 H1457 0.950 . S
C1465 C1463 1.327 . S
C1466 C1454 1.349 . S
C1466 H1460 0.950 . S
C1466 C1467 1.327 . S
C1467 H1461 0.950 . S
C1467 C1466 1.327 . S
C1467 C1471 1.429 . S
C1468 C1451 1.574 . S
C1468 H1462 0.949 . S
C1468 C1472 1.368 1_556 S
C1469 C1450 1.429 1_556 S
C1469 C1463 1.429 . S
C1469 C1470 1.523 . S
C1470 C1451 1.368 . S
C1470 C1464 1.368 1_556 S
C1470 C1469 1.523 . S
C1471 C1455 1.429 1_554 S
C1471 C1467 1.429 . S
C1471 C1472 1.523 . S
C1472 C1456 1.368 . S
C1472 C1468 1.368 1_554 S
C1472 C1471 1.523 . S
H1473 C1448 0.950 . S
H1474 C1450 0.950 . S
H1475 C1451 0.949 . S
H1476 C1453 0.950 . S
H1477 C1455 0.950 . S
C1478 C1479 1.349 . S
C1478 C1480 1.327 . S
C1478 H1503 0.950 . S
C1479 C1478 1.349 . S
C1479 C1495 1.349 . S
C1480 C1478 1.327 . S
C1480 C1499 1.429 . S
C1480 H1504 0.950 . S
C1481 C1498 1.546 1_655 S
C1481 C1500 1.368 . S
C1481 H1505 0.949 . S
H1482 C1486 0.949 . S
C1483 C1484 1.349 . S
C1483 C1485 1.327 . S
C1483 H1506 0.950 . S
C1484 C1483 1.349 . S
C1484 C1496 1.349 . S
C1485 C1483 1.327 . S
C1485 C1501 1.429 . S
C1485 H1507 0.950 . S
C1486 H1482 0.949 . S
C1486 C1494 1.546 1_455 S
C1486 C1502 1.368 . S
H1487 C1495 0.950 . S
H1488 C1493 0.950 . S
H1489 C1494 0.952 . S
H1490 C1496 0.950 . S
H1491 C1497 0.950 . S
H1492 C1498 0.952 . S
C1493 H1488 0.950 . S
C1493 C1495 1.327 . S
C1493 C1499 1.429 . S
C1494 C1486 1.546 1_655 S
C1494 H1489 0.952 . S
C1494 C1500 1.394 . S
C1495 C1479 1.349 . S
C1495 H1487 0.950 . S
C1495 C1493 1.327 . S
C1496 C1484 1.349 . S
C1496 H1490 0.950 . S
C1496 C1497 1.327 . S
C1497 H1491 0.950 . S
C1497 C1496 1.327 . S
C1497 C1501 1.429 . S
C1498 C1481 1.546 1_455 S
C1498 H1492 0.952 . S
C1498 C1502 1.394 . S
C1499 C1480 1.429 . S
C1499 C1493 1.429 . S
C1499 C1500 1.523 . S
C1500 C1481 1.368 . S
C1500 C1494 1.394 . S
C1500 C1499 1.523 . S
C1501 C1485 1.429 . S
C1501 C1497 1.429 . S
C1501 C1502 1.523 . S
C1502 C1486 1.368 . S
C1502 C1498 1.394 . S
C1502 C1501 1.523 . S
H1503 C1478 0.950 . S
H1504 C1480 0.950 . S
H1505 C1481 0.949 . S
H1506 C1483 0.950 . S
H1507 C1485 0.950 . S
C1508 C1509 1.349 1_556 S
C1508 C1510 1.327 . S
C1508 H1533 0.950 . S
C1509 C1508 1.349 1_554 S
C1509 C1525 1.349 . S
C1510 C1508 1.327 . S
C1510 C1529 1.429 1_556 S
C1510 H1534 0.950 . S
C1511 C1528 1.579 1_655 S
C1511 C1530 1.363 . S
C1511 H1535 0.949 . S
H1512 C1516 0.949 . S
C1513 C1514 1.349 1_554 S
C1513 C1515 1.327 . S
C1513 H1536 0.950 . S
C1514 C1513 1.349 1_556 S
C1514 C1526 1.349 . S
C1515 C1513 1.327 . S
C1515 C1531 1.429 1_554 S
C1515 H1537 0.950 . S
C1516 H1512 0.949 . S
C1516 C1524 1.579 1_455 S
C1516 C1532 1.363 . S
H1517 C1525 0.950 . S
H1518 C1523 0.950 . S
H1519 C1524 0.949 . S
H1520 C1526 0.950 . S
H1521 C1527 0.950 . S
H1522 C1528 0.949 . S
C1523 H1518 0.950 . S
C1523 C1525 1.327 . S
C1523 C1529 1.429 . S
C1524 C1516 1.579 1_655 S
C1524 H1519 0.949 . S
C1524 C1530 1.368 1_556 S
C1525 C1509 1.349 . S
C1525 H1517 0.950 . S
C1525 C1523 1.327 . S
C1526 C1514 1.349 . S
C1526 H1520 0.950 . S
C1526 C1527 1.327 . S
C1527 H1521 0.950 . S
C1527 C1526 1.327 . S
C1527 C1531 1.429 . S
C1528 C1511 1.579 1_455 S
C1528 H1522 0.949 . S
C1528 C1532 1.368 1_554 S
C1529 C1510 1.429 1_554 S
C1529 C1523 1.429 . S
C1529 C1530 1.523 . S
C1530 C1511 1.363 . S
C1530 C1524 1.368 1_554 S
C1530 C1529 1.523 . S
C1531 C1515 1.429 1_556 S
C1531 C1527 1.429 . S
C1531 C1532 1.523 . S
C1532 C1516 1.363 . S
C1532 C1528 1.368 1_556 S
C1532 C1531 1.523 . S
H1533 C1508 0.950 . S
H1534 C1510 0.950 . S
H1535 C1511 0.949 . S
H1536 C1513 0.950 . S
H1537 C1515 0.950 . S
C1538 C1539 1.349 . S
C1538 C1540 1.327 . S
C1538 H1563 0.950 . S
C1539 C1538 1.349 . S
C1539 C1555 1.349 . S
C1540 C1538 1.327 . S
C1540 C1559 1.429 . S
C1540 H1564 0.950 . S
C1541 C1558 1.574 . S
C1541 C1560 1.368 . S
C1541 H1565 0.949 . S
H1542 C1546 0.949 . S
C1543 C1544 1.349 . S
C1543 C1545 1.327 . S
C1543 H1566 0.950 . S
C1544 C1543 1.349 . S
C1544 C1556 1.349 . S
C1545 C1543 1.327 . S
C1545 C1561 1.429 . S
C1545 H1567 0.950 . S
C1546 H1542 0.949 . S
C1546 C1554 1.574 . S
C1546 C1562 1.368 . S
H1547 C1555 0.950 . S
H1548 C1553 0.950 . S
H1549 C1554 0.949 . S
H1550 C1556 0.950 . S
H1551 C1557 0.950 . S
H1552 C1558 0.949 . S
C1553 H1548 0.950 . S
C1553 C1555 1.327 . S
C1553 C1559 1.429 . S
C1554 C1546 1.574 . S
C1554 H1549 0.949 . S
C1554 C1560 1.368 . S
C1555 C1539 1.349 . S
C1555 H1547 0.950 . S
C1555 C1553 1.327 . S
C1556 C1544 1.349 . S
C1556 H1550 0.950 . S
C1556 C1557 1.327 . S
C1557 H1551 0.950 . S
C1557 C1556 1.327 . S
C1557 C1561 1.429 . S
C1558 C1541 1.574 . S
C1558 H1552 0.949 . S
C1558 C1562 1.368 . S
C1559 C1540 1.429 . S
C1559 C1553 1.429 . S
C1559 C1560 1.523 . S
C1560 C1541 1.368 . S
C1560 C1554 1.368 . S
C1560 C1559 1.523 . S
C1561 C1545 1.429 . S
C1561 C1557 1.429 . S
C1561 C1562 1.523 . S
C1562 C1546 1.368 . S
C1562 C1558 1.368 . S
C1562 C1561 1.523 . S
H1563 C1538 0.950 . S
H1564 C1540 0.950 . S
H1565 C1541 0.949 . S
H1566 C1543 0.950 . S
H1567 C1545 0.950 . S
C1568 C1569 1.349 . S
C1568 C1570 1.327 . S
C1568 H1593 0.950 . S
C1569 C1568 1.349 . S
C1569 C1585 1.349 . S
C1570 C1568 1.327 . S
C1570 C1589 1.429 . S
C1570 H1594 0.950 . S
C1571 C1588 1.574 . S
C1571 C1590 1.368 . S
C1571 H1595 0.949 . S
H1572 C1576 0.949 . S
C1573 C1574 1.349 . S
C1573 C1575 1.327 . S
C1573 H1596 0.950 . S
C1574 C1573 1.349 . S
C1574 C1586 1.349 . S
C1575 C1573 1.327 . S
C1575 C1591 1.429 . S
C1575 H1597 0.950 . S
C1576 H1572 0.949 . S
C1576 C1584 1.574 . S
C1576 C1592 1.368 . S
H1577 C1585 0.950 . S
H1578 C1583 0.950 . S
H1579 C1584 0.949 . S
H1580 C1586 0.950 1_556 S
H1581 C1587 0.950 . S
H1582 C1588 0.949 . S
C1583 H1578 0.950 . S
C1583 C1585 1.327 . S
C1583 C1589 1.429 . S
C1584 C1576 1.574 . S
C1584 H1579 0.949 . S
C1584 C1590 1.368 . S
C1585 C1569 1.349 . S
C1585 H1577 0.950 . S
C1585 C1583 1.327 . S
C1586 C1574 1.349 . S
C1586 H1580 0.950 1_554 S
C1586 C1587 1.327 . S
C1587 H1581 0.950 . S
C1587 C1586 1.327 . S
C1587 C1591 1.429 . S
C1588 C1571 1.574 . S
C1588 H1582 0.949 . S
C1588 C1592 1.368 . S
C1589 C1570 1.429 . S
C1589 C1583 1.429 . S
C1589 C1590 1.523 . S
C1590 C1571 1.368 . S
C1590 C1584 1.368 . S
C1590 C1589 1.523 . S
C1591 C1575 1.429 . S
C1591 C1587 1.429 . S
C1591 C1592 1.523 . S
C1592 C1576 1.368 . S
C1592 C1588 1.368 . S
C1592 C1591 1.523 . S
H1593 C1568 0.950 . S
H1594 C1570 0.950 . S
H1595 C1571 0.949 . S
H1596 C1573 0.950 . S
H1597 C1575 0.950 . S
C1598 C1599 1.349 . S
C1598 C1600 1.327 . S
C1598 H1623 0.950 . S
C1599 C1598 1.349 . S
C1599 C1615 1.349 . S
C1600 C1598 1.327 . S
C1600 C1619 1.429 . S
C1600 H1624 0.950 . S
C1601 C1618 1.574 . S
C1601 C1620 1.368 . S
C1601 H1625 0.949 . S
H1602 C1606 0.949 . S
C1603 C1604 1.349 . S
C1603 C1605 1.327 . S
C1603 H1626 0.950 . S
C1604 C1603 1.349 . S
C1604 C1616 1.349 . S
C1605 C1603 1.327 . S
C1605 C1621 1.429 . S
C1605 H1627 0.950 . S
C1606 H1602 0.949 . S
C1606 C1614 1.574 . S
C1606 C1622 1.368 . S
H1607 C1615 0.950 . S
H1608 C1613 0.950 . S
H1609 C1614 0.949 . S
H1610 C1616 0.950 . S
H1611 C1617 0.950 . S
H1612 C1618 0.949 . S
C1613 H1608 0.950 . S
C1613 C1615 1.327 . S
C1613 C1619 1.429 . S
C1614 C1606 1.574 . S
C1614 H1609 0.949 . S
C1614 C1620 1.368 . S
C1615 C1599 1.349 . S
C1615 H1607 0.950 . S
C1615 C1613 1.327 . S
C1616 C1604 1.349 . S
C1616 H1610 0.950 . S
C1616 C1617 1.327 . S
C1617 H1611 0.950 . S
C1617 C1616 1.327 . S
C1617 C1621 1.429 . S
C1618 C1601 1.574 . S
C1618 H1612 0.949 . S
C1618 C1622 1.368 . S
C1619 C1600 1.429 . S
C1619 C1613 1.429 . S
C1619 C1620 1.523 . S
C1620 C1601 1.368 . S
C1620 C1614 1.368 . S
C1620 C1619 1.523 . S
C1621 C1605 1.429 . S
C1621 C1617 1.429 . S
C1621 C1622 1.523 . S
C1622 C1606 1.368 . S
C1622 C1618 1.368 . S
C1622 C1621 1.523 . S
H1623 C1598 0.950 . S
H1624 C1600 0.950 . S
H1625 C1601 0.949 . S
H1626 C1603 0.950 . S
H1627 C1605 0.950 . S
C1628 C1629 1.349 . S
C1628 C1630 1.327 . S
C1628 H1653 0.950 . S
C1629 C1628 1.349 . S
C1629 C1645 1.349 . S
C1630 C1628 1.327 . S
C1630 C1649 1.429 . S
C1630 H1654 0.950 . S
C1631 C1648 1.574 . S
C1631 C1650 1.368 . S
C1631 H1655 0.949 . S
H1632 C1636 0.949 . S
C1633 C1634 1.349 . S
C1633 C1635 1.327 . S
C1633 H1656 0.950 . S
C1634 C1633 1.349 . S
C1634 C1646 1.349 . S
C1635 C1633 1.327 . S
C1635 C1651 1.429 . S
C1635 H1657 0.950 . S
C1636 H1632 0.949 . S
C1636 C1644 1.574 . S
C1636 C1652 1.368 . S
H1637 C1645 0.950 . S
H1638 C1643 0.950 . S
H1639 C1644 0.949 . S
H1640 C1646 0.950 . S
H1641 C1647 0.950 . S
H1642 C1648 0.949 . S
C1643 H1638 0.950 . S
C1643 C1645 1.327 . S
C1643 C1649 1.429 . S
C1644 C1636 1.574 . S
C1644 H1639 0.949 . S
C1644 C1650 1.368 . S
C1645 C1629 1.349 . S
C1645 H1637 0.950 . S
C1645 C1643 1.327 . S
C1646 C1634 1.349 . S
C1646 H1640 0.950 . S
C1646 C1647 1.327 . S
C1647 H1641 0.950 . S
C1647 C1646 1.327 . S
C1647 C1651 1.429 . S
C1648 C1631 1.574 . S
C1648 H1642 0.949 . S
C1648 C1652 1.368 . S
C1649 C1630 1.429 . S
C1649 C1643 1.429 . S
C1649 C1650 1.523 . S
C1650 C1631 1.368 . S
C1650 C1644 1.368 . S
C1650 C1649 1.523 . S
C1651 C1635 1.429 . S
C1651 C1647 1.429 . S
C1651 C1652 1.523 . S
C1652 C1636 1.368 . S
C1652 C1648 1.368 . S
C1652 C1651 1.523 . S
H1653 C1628 0.950 . S
H1654 C1630 0.950 . S
H1655 C1631 0.949 . S
H1656 C1633 0.950 . S
H1657 C1635 0.950 . S
C1658 C1659 1.349 . S
C1658 C1660 1.327 . S
C1658 H1683 0.950 . S
C1659 C1658 1.349 . S
C1659 C1675 1.349 . S
C1660 C1658 1.327 . S
C1660 C1679 1.429 . S
C1660 H1684 0.950 . S
C1661 C1678 1.574 . S
C1661 C1680 1.368 . S
C1661 H1685 0.949 . S
H1662 C1666 0.949 . S
C1663 C1664 1.349 . S
C1663 C1665 1.327 . S
C1663 H1686 0.950 1_556 S
C1664 C1663 1.349 . S
C1664 C1676 1.349 . S
C1665 C1663 1.327 . S
C1665 C1681 1.429 . S
C1665 H1687 0.960 . S
C1666 H1662 0.949 . S
C1666 C1674 1.574 . S
C1666 C1682 1.368 . S
H1667 C1675 0.950 . S
H1668 C1673 0.950 . S
H1669 C1674 0.949 . S
H1670 C1676 0.950 . S
H1671 C1677 0.950 . S
H1672 C1678 0.949 . S
C1673 H1668 0.950 . S
C1673 C1675 1.327 . S
C1673 C1679 1.429 . S
C1674 C1666 1.574 . S
C1674 H1669 0.949 . S
C1674 C1680 1.368 . S
C1675 C1659 1.349 . S
C1675 H1667 0.950 . S
C1675 C1673 1.327 . S
C1676 C1664 1.349 . S
C1676 H1670 0.950 . S
C1676 C1677 1.327 . S
C1677 H1671 0.950 . S
C1677 C1676 1.327 . S
C1677 C1681 1.429 . S
C1678 C1661 1.574 . S
C1678 H1672 0.949 . S
C1678 C1682 1.368 . S
C1679 C1660 1.429 . S
C1679 C1673 1.429 . S
C1679 C1680 1.523 . S
C1680 C1661 1.368 . S
C1680 C1674 1.368 . S
C1680 C1679 1.523 . S
C1681 C1665 1.429 . S
C1681 C1677 1.429 . S
C1681 C1682 1.523 . S
C1682 C1666 1.368 . S
C1682 C1678 1.368 . S
C1682 C1681 1.523 . S
H1683 C1658 0.950 . S
H1684 C1660 0.950 . S
H1685 C1661 0.949 . S
H1686 C1663 0.950 1_554 S
H1687 C1665 0.960 . S
C1688 C1689 1.349 . S
C1688 C1690 1.327 . S
C1688 H1713 0.950 . S
C1689 C1688 1.349 . S
C1689 C1705 1.349 . S
C1690 C1688 1.327 . S
C1690 C1709 1.429 . S
C1690 H1714 0.950 . S
C1691 C1708 1.574 . S
C1691 C1710 1.368 . S
C1691 H1715 0.949 . S
H1692 C1696 0.949 . S
C1693 C1694 1.349 . S
C1693 C1695 1.327 . S
C1693 H1716 0.950 . S
C1694 C1693 1.349 . S
C1694 C1706 1.349 . S
C1695 C1693 1.327 . S
C1695 C1711 1.429 . S
C1695 H1717 0.950 . S
C1696 H1692 0.949 . S
C1696 C1704 1.574 . S
C1696 C1712 1.368 . S
H1697 C1705 0.950 . S
H1698 C1703 0.950 . S
H1699 C1704 0.949 . S
H1700 C1706 0.950 . S
H1701 C1707 0.950 . S
H1702 C1708 0.949 . S
C1703 H1698 0.950 . S
C1703 C1705 1.327 . S
C1703 C1709 1.429 . S
C1704 C1696 1.574 . S
C1704 H1699 0.949 . S
C1704 C1710 1.368 . S
C1705 C1689 1.349 . S
C1705 H1697 0.950 . S
C1705 C1703 1.327 . S
C1706 C1694 1.349 . S
C1706 H1700 0.950 . S
C1706 C1707 1.327 . S
C1707 H1701 0.950 . S
C1707 C1706 1.327 . S
C1707 C1711 1.429 . S
C1708 C1691 1.574 . S
C1708 H1702 0.949 . S
C1708 C1712 1.368 . S
C1709 C1690 1.429 . S
C1709 C1703 1.429 . S
C1709 C1710 1.523 . S
C1710 C1691 1.368 . S
C1710 C1704 1.368 . S
C1710 C1709 1.523 . S
C1711 C1695 1.429 . S
C1711 C1707 1.429 . S
C1711 C1712 1.523 . S
C1712 C1696 1.368 . S
C1712 C1708 1.368 . S
C1712 C1711 1.523 . S
H1713 C1688 0.950 . S
H1714 C1690 0.950 . S
H1715 C1691 0.949 . S
H1716 C1693 0.950 . S
H1717 C1695 0.950 . S
C1718 C1719 1.349 . S
C1718 C1720 1.327 . S
C1718 H1743 0.950 . S
C1719 C1718 1.349 . S
C1719 C1735 1.349 . S
C1720 C1718 1.327 . S
C1720 C1739 1.429 . S
C1720 H1744 0.950 . S
C1721 C1738 1.574 . S
C1721 C1740 1.368 . S
C1721 H1745 0.949 . S
H1722 C1726 0.949 . S
C1723 C1724 1.349 . S
C1723 C1725 1.327 . S
C1723 H1746 0.950 . S
C1724 C1723 1.349 . S
C1724 C1736 1.349 . S
C1725 C1723 1.327 . S
C1725 C1741 1.429 . S
C1725 H1747 0.950 . S
C1726 H1722 0.949 . S
C1726 C1734 1.574 . S
C1726 C1742 1.368 . S
H1727 C1735 0.950 . S
H1728 C1733 0.950 . S
H1729 C1734 0.949 . S
H1730 C1736 0.950 . S
H1731 C1737 0.950 . S
H1732 C1738 0.949 . S
C1733 H1728 0.950 . S
C1733 C1735 1.327 . S
C1733 C1739 1.429 . S
C1734 C1726 1.574 . S
C1734 H1729 0.949 . S
C1734 C1740 1.368 . S
C1735 C1719 1.349 . S
C1735 H1727 0.950 . S
C1735 C1733 1.327 . S
C1736 C1724 1.349 . S
C1736 H1730 0.950 . S
C1736 C1737 1.327 . S
C1737 H1731 0.950 . S
C1737 C1736 1.327 . S
C1737 C1741 1.429 . S
C1738 C1721 1.574 . S
C1738 H1732 0.949 . S
C1738 C1742 1.368 . S
C1739 C1720 1.429 . S
C1739 C1733 1.429 . S
C1739 C1740 1.523 . S
C1740 C1721 1.368 . S
C1740 C1734 1.368 . S
C1740 C1739 1.523 . S
C1741 C1725 1.429 . S
C1741 C1737 1.429 . S
C1741 C1742 1.523 . S
C1742 C1726 1.368 . S
C1742 C1738 1.368 . S
C1742 C1741 1.523 . S
H1743 C1718 0.950 . S
H1744 C1720 0.950 . S
H1745 C1721 0.949 . S
H1746 C1723 0.950 . S
H1747 C1725 0.950 . S
C1748 C1749 1.349 . S
C1748 C1750 1.327 . S
C1748 H1773 0.950 . S
C1749 C1748 1.349 . S
C1749 C1765 1.349 . S
C1750 C1748 1.327 . S
C1750 C1769 1.429 . S
C1750 H1774 0.950 . S
C1751 C1768 1.574 . S
C1751 C1770 1.368 . S
C1751 H1775 0.949 . S
H1752 C1756 0.949 . S
C1753 C1754 1.349 . S
C1753 C1755 1.327 . S
C1753 H1776 0.950 . S
C1754 C1753 1.349 . S
C1754 C1766 1.349 . S
C1755 C1753 1.327 . S
C1755 C1771 1.429 . S
C1755 H1777 0.950 . S
C1756 H1752 0.949 . S
C1756 C1764 1.574 . S
C1756 C1772 1.368 . S
H1757 C1765 0.950 . S
H1758 C1763 0.950 . S
H1759 C1764 0.949 . S
H1760 C1766 0.950 . S
H1761 C1767 0.950 . S
H1762 C1768 0.949 . S
C1763 H1758 0.950 . S
C1763 C1765 1.327 . S
C1763 C1769 1.429 . S
C1764 C1756 1.574 . S
C1764 H1759 0.949 . S
C1764 C1770 1.368 . S
C1765 C1749 1.349 . S
C1765 H1757 0.950 . S
C1765 C1763 1.327 . S
C1766 C1754 1.349 . S
C1766 H1760 0.950 . S
C1766 C1767 1.327 . S
C1767 H1761 0.950 . S
C1767 C1766 1.327 . S
C1767 C1771 1.429 . S
C1768 C1751 1.574 . S
C1768 H1762 0.949 . S
C1768 C1772 1.368 . S
C1769 C1750 1.429 . S
C1769 C1763 1.429 . S
C1769 C1770 1.523 . S
C1770 C1751 1.368 . S
C1770 C1764 1.368 . S
C1770 C1769 1.523 . S
C1771 C1755 1.429 . S
C1771 C1767 1.429 . S
C1771 C1772 1.523 . S
C1772 C1756 1.368 . S
C1772 C1768 1.368 . S
C1772 C1771 1.523 . S
H1773 C1748 0.950 . S
H1774 C1750 0.950 . S
H1775 C1751 0.949 . S
H1776 C1753 0.950 . S
H1777 C1755 0.950 . S
C1778 C1779 1.349 . S
C1778 C1780 1.327 . S
C1778 H1803 0.950 . S
C1779 C1778 1.349 . S
C1779 C1795 1.349 . S
C1780 C1778 1.327 . S
C1780 C1799 1.429 . S
C1780 H1804 0.950 . S
C1781 C1798 1.574 . S
C1781 C1800 1.368 . S
C1781 H1805 0.949 . S
H1782 C1786 0.949 . S
C1783 C1784 1.349 . S
C1783 C1785 1.327 . S
C1783 H1806 0.950 1_554 S
C1784 C1783 1.349 . S
C1784 C1796 1.349 . S
C1785 C1783 1.327 . S
C1785 C1801 1.429 . S
C1785 H1807 0.950 . S
C1786 H1782 0.949 . S
C1786 C1794 1.574 . S
C1786 C1802 1.368 . S
H1787 C1795 0.950 . S
H1788 C1793 0.950 . S
H1789 C1794 0.949 . S
H1790 C1796 0.950 . S
H1791 C1797 0.950 . S
H1792 C1798 0.949 . S
C1793 H1788 0.950 . S
C1793 C1795 1.327 . S
C1793 C1799 1.429 . S
C1794 C1786 1.574 . S
C1794 H1789 0.949 . S
C1794 C1800 1.368 . S
C1795 C1779 1.349 . S
C1795 H1787 0.950 . S
C1795 C1793 1.327 . S
C1796 C1784 1.349 . S
C1796 H1790 0.950 . S
C1796 C1797 1.327 . S
C1797 H1791 0.950 . S
C1797 C1796 1.327 . S
C1797 C1801 1.429 . S
C1798 C1781 1.574 . S
C1798 H1792 0.949 . S
C1798 C1802 1.368 . S
C1799 C1780 1.429 . S
C1799 C1793 1.429 . S
C1799 C1800 1.523 . S
C1800 C1781 1.368 . S
C1800 C1794 1.368 . S
C1800 C1799 1.523 . S
C1801 C1785 1.429 . S
C1801 C1797 1.429 . S
C1801 C1802 1.523 . S
C1802 C1786 1.368 . S
C1802 C1798 1.368 . S
C1802 C1801 1.523 . S
H1803 C1778 0.950 . S
H1804 C1780 0.950 . S
H1805 C1781 0.949 . S
H1806 C1783 0.950 1_556 S
H1807 C1785 0.950 . S
C1808 C1809 1.349 . S
C1808 C1810 1.327 . S
C1808 H1833 0.950 . S
C1809 C1808 1.349 . S
C1809 C1825 1.349 . S
C1810 C1808 1.327 . S
C1810 C1829 1.429 . S
C1810 H1834 0.950 . S
C1811 C1828 1.574 . S
C1811 C1830 1.368 . S
C1811 H1835 0.949 . S
H1812 C1816 0.949 . S
C1813 C1814 1.349 . S
C1813 C1815 1.327 . S
C1813 H1836 0.950 . S
C1814 C1813 1.349 . S
C1814 C1826 1.349 . S
C1815 C1813 1.327 . S
C1815 C1831 1.429 . S
C1815 H1837 0.950 . S
C1816 H1812 0.949 . S
C1816 C1824 1.574 . S
C1816 C1832 1.368 . S
H1817 C1825 0.950 . S
H1818 C1823 0.950 . S
H1819 C1824 0.949 . S
H1820 C1826 0.950 . S
H1821 C1827 0.950 . S
H1822 C1828 0.949 . S
C1823 H1818 0.950 . S
C1823 C1825 1.327 . S
C1823 C1829 1.429 . S
C1824 C1816 1.574 . S
C1824 H1819 0.949 . S
C1824 C1830 1.368 . S
C1825 C1809 1.349 . S
C1825 H1817 0.950 . S
C1825 C1823 1.327 . S
C1826 C1814 1.349 . S
C1826 H1820 0.950 . S
C1826 C1827 1.327 . S
C1827 H1821 0.950 . S
C1827 C1826 1.327 . S
C1827 C1831 1.429 . S
C1828 C1811 1.574 . S
C1828 H1822 0.949 . S
C1828 C1832 1.368 . S
C1829 C1810 1.429 . S
C1829 C1823 1.429 . S
C1829 C1830 1.523 . S
C1830 C1811 1.368 . S
C1830 C1824 1.368 . S
C1830 C1829 1.523 . S
C1831 C1815 1.429 . S
C1831 C1827 1.429 . S
C1831 C1832 1.523 . S
C1832 C1816 1.368 . S
C1832 C1828 1.368 . S
C1832 C1831 1.523 . S
H1833 C1808 0.950 . S
H1834 C1810 0.950 . S
H1835 C1811 0.949 . S
H1836 C1813 0.950 . S
H1837 C1815 0.950 . S
C1838 C1839 1.349 . S
C1838 C1840 1.327 . S
C1838 H1863 0.950 . S
C1839 C1838 1.349 . S
C1839 C1855 1.349 . S
C1840 C1838 1.327 . S
C1840 C1859 1.429 . S
C1840 H1864 0.950 . S
C1841 C1858 1.574 . S
C1841 C1860 1.368 . S
C1841 H1865 0.949 . S
H1842 C1846 0.949 . S
C1843 C1844 1.349 . S
C1843 C1845 1.327 . S
C1843 H1866 0.950 . S
C1844 C1843 1.349 . S
C1844 C1856 1.349 . S
C1845 C1843 1.327 . S
C1845 C1861 1.429 . S
C1845 H1867 0.950 . S
C1846 H1842 0.949 . S
C1846 C1854 1.574 . S
C1846 C1862 1.368 . S
H1847 C1855 0.950 . S
H1848 C1853 0.950 . S
H1849 C1854 0.949 . S
H1850 C1856 0.950 1_554 S
H1851 C1857 0.950 . S
H1852 C1858 0.949 . S
C1853 H1848 0.950 . S
C1853 C1855 1.327 . S
C1853 C1859 1.429 . S
C1854 C1846 1.574 . S
C1854 H1849 0.949 . S
C1854 C1860 1.368 . S
C1855 C1839 1.349 . S
C1855 H1847 0.950 . S
C1855 C1853 1.327 . S
C1856 C1844 1.349 . S
C1856 H1850 0.950 1_556 S
C1856 C1857 1.327 . S
C1857 H1851 0.950 . S
C1857 C1856 1.327 . S
C1857 C1861 1.429 . S
C1858 C1841 1.574 . S
C1858 H1852 0.949 . S
C1858 C1862 1.368 . S
C1859 C1840 1.429 . S
C1859 C1853 1.429 . S
C1859 C1860 1.523 . S
C1860 C1841 1.368 . S
C1860 C1854 1.368 . S
C1860 C1859 1.523 . S
C1861 C1845 1.429 . S
C1861 C1857 1.429 . S
C1861 C1862 1.523 . S
C1862 C1846 1.368 . S
C1862 C1858 1.368 . S
C1862 C1861 1.523 . S
H1863 C1838 0.950 . S
H1864 C1840 0.950 . S
H1865 C1841 0.949 . S
H1866 C1843 0.950 . S
H1867 C1845 0.950 . S
C1868 C1869 1.349 . S
C1868 C1870 1.327 . S
C1868 H1893 0.950 . S
C1869 C1868 1.349 . S
C1869 C1885 1.349 . S
C1870 C1868 1.327 . S
C1870 C1889 1.429 . S
C1870 H1894 0.950 . S
C1871 C1888 1.574 . S
C1871 C1890 1.368 . S
C1871 H1895 0.949 . S
H1872 C1876 0.949 . S
C1873 C1874 1.349 . S
C1873 C1875 1.327 . S
C1873 H1896 0.950 . S
C1874 C1873 1.349 . S
C1874 C1886 1.349 . S
C1875 C1873 1.327 . S
C1875 C1891 1.429 . S
C1875 H1897 0.950 . S
C1876 H1872 0.949 . S
C1876 C1884 1.574 . S
C1876 C1892 1.368 . S
H1877 C1885 0.950 . S
H1878 C1883 0.950 . S
H1879 C1884 0.949 . S
H1880 C1886 0.950 . S
H1881 C1887 0.950 . S
H1882 C1888 0.949 . S
C1883 H1878 0.950 . S
C1883 C1885 1.327 . S
C1883 C1889 1.429 . S
C1884 C1876 1.574 . S
C1884 H1879 0.949 . S
C1884 C1890 1.368 . S
C1885 C1869 1.349 . S
C1885 H1877 0.950 . S
C1885 C1883 1.327 . S
C1886 C1874 1.349 . S
C1886 H1880 0.950 . S
C1886 C1887 1.327 . S
C1887 H1881 0.950 . S
C1887 C1886 1.327 . S
C1887 C1891 1.429 . S
C1888 C1871 1.574 . S
C1888 H1882 0.949 . S
C1888 C1892 1.368 . S
C1889 C1870 1.429 . S
C1889 C1883 1.429 . S
C1889 C1890 1.523 . S
C1890 C1871 1.368 . S
C1890 C1884 1.368 . S
C1890 C1889 1.523 . S
C1891 C1875 1.429 . S
C1891 C1887 1.429 . S
C1891 C1892 1.523 . S
C1892 C1876 1.368 . S
C1892 C1888 1.368 . S
C1892 C1891 1.523 . S
H1893 C1868 0.950 . S
H1894 C1870 0.950 . S
H1895 C1871 0.949 . S
H1896 C1873 0.950 . S
H1897 C1875 0.950 . S
C1898 C1899 1.349 . S
C1898 C1900 1.327 . S
C1898 H1923 0.950 . S
C1899 C1898 1.349 . S
C1899 C1915 1.349 . S
C1900 C1898 1.327 . S
C1900 C1919 1.429 . S
C1900 H1924 0.950 . S
C1901 C1918 1.574 . S
C1901 C1920 1.368 . S
C1901 H1925 0.949 . S
H1902 C1906 0.949 . S
C1903 C1904 1.349 . S
C1903 C1905 1.327 . S
C1903 H1926 0.950 . S
C1904 C1903 1.349 . S
C1904 C1916 1.349 . S
C1905 C1903 1.327 . S
C1905 C1921 1.429 . S
C1905 H1927 0.950 . S
C1906 H1902 0.949 . S
C1906 C1914 1.574 . S
C1906 C1922 1.368 . S
H1907 C1915 0.950 . S
H1908 C1913 0.950 . S
H1909 C1914 0.949 . S
H1910 C1916 0.950 . S
H1911 C1917 0.950 . S
H1912 C1918 0.949 . S
C1913 H1908 0.950 . S
C1913 C1915 1.327 . S
C1913 C1919 1.429 . S
C1914 C1906 1.574 . S
C1914 H1909 0.949 . S
C1914 C1920 1.368 . S
C1915 C1899 1.349 . S
C1915 H1907 0.950 . S
C1915 C1913 1.327 . S
C1916 C1904 1.349 . S
C1916 H1910 0.950 . S
C1916 C1917 1.327 . S
C1917 H1911 0.950 . S
C1917 C1916 1.327 . S
C1917 C1921 1.429 . S
C1918 C1901 1.574 . S
C1918 H1912 0.949 . S
C1918 C1922 1.368 . S
C1919 C1900 1.429 . S
C1919 C1913 1.429 . S
C1919 C1920 1.523 . S
C1920 C1901 1.368 . S
C1920 C1914 1.368 . S
C1920 C1919 1.523 . S
C1921 C1905 1.429 . S
C1921 C1917 1.429 . S
C1921 C1922 1.523 . S
C1922 C1906 1.368 . S
C1922 C1918 1.368 . S
C1922 C1921 1.523 . S
H1923 C1898 0.950 . S
H1924 C1900 0.950 . S
H1925 C1901 0.949 . S
H1926 C1903 0.950 . S
H1927 C1905 0.950 . S
C1928 C1929 1.349 . S
C1928 C1930 1.327 . S
C1928 H1953 0.950 . S
C1929 C1928 1.349 . S
C1929 C1945 1.349 . S
C1930 C1928 1.327 . S
C1930 C1949 1.429 . S
C1930 H1954 0.950 . S
C1931 C1948 1.574 . S
C1931 C1950 1.368 . S
C1931 H1955 0.949 . S
H1932 C1936 0.949 . S
C1933 C1934 1.349 . S
C1933 C1935 1.327 . S
C1933 H1956 0.950 . S
C1934 C1933 1.349 . S
C1934 C1946 1.349 . S
C1935 C1933 1.327 . S
C1935 C1951 1.429 . S
C1935 H1957 0.950 . S
C1936 H1932 0.949 . S
C1936 C1944 1.574 . S
C1936 C1952 1.368 . S
H1937 C1945 0.950 . S
H1938 C1943 0.950 . S
H1939 C1944 0.949 . S
H1940 C1946 0.950 . S
H1941 C1947 0.950 . S
H1942 C1948 0.949 . S
C1943 H1938 0.950 . S
C1943 C1945 1.327 . S
C1943 C1949 1.429 . S
C1944 C1936 1.574 . S
C1944 H1939 0.949 . S
C1944 C1950 1.368 . S
C1945 C1929 1.349 . S
C1945 H1937 0.950 . S
C1945 C1943 1.327 . S
C1946 C1934 1.349 . S
C1946 H1940 0.950 . S
C1946 C1947 1.327 . S
C1947 H1941 0.950 . S
C1947 C1946 1.327 . S
C1947 C1951 1.429 . S
C1948 C1931 1.574 . S
C1948 H1942 0.949 . S
C1948 C1952 1.368 . S
C1949 C1930 1.429 . S
C1949 C1943 1.429 . S
C1949 C1950 1.523 . S
C1950 C1931 1.368 . S
C1950 C1944 1.368 . S
C1950 C1949 1.523 . S
C1951 C1935 1.429 . S
C1951 C1947 1.429 . S
C1951 C1952 1.523 . S
C1952 C1936 1.368 . S
C1952 C1948 1.368 . S
C1952 C1951 1.523 . S
H1953 C1928 0.950 . S
H1954 C1930 0.950 . S
H1955 C1931 0.949 . S
H1956 C1933 0.950 . S
H1957 C1935 0.950 . S
C1958 C1959 1.349 . S
C1958 C1960 1.327 . S
C1958 H1983 0.949 1_554 S
C1959 C1958 1.349 . S
C1959 C1975 1.349 . S
C1960 C1958 1.327 . S
C1960 C1979 1.429 . S
C1960 H1984 0.950 . S
C1961 C1978 1.574 . S
C1961 C1980 1.368 . S
C1961 H1985 0.949 . S
H1962 C1966 0.949 . S
C1963 C1964 1.349 . S
C1963 C1965 1.327 . S
C1963 H1986 0.950 . S
C1964 C1963 1.349 . S
C1964 C1976 1.349 . S
C1965 C1963 1.327 . S
C1965 C1981 1.429 . S
C1965 H1987 0.950 . S
C1966 H1962 0.949 . S
C1966 C1974 1.574 . S
C1966 C1982 1.368 . S
H1967 C1975 0.950 . S
H1968 C1973 0.950 . S
H1969 C1974 0.949 . S
H1970 C1976 0.950 . S
H1971 C1977 0.950 . S
H1972 C1978 0.949 . S
C1973 H1968 0.950 . S
C1973 C1975 1.327 . S
C1973 C1979 1.429 . S
C1974 C1966 1.574 . S
C1974 H1969 0.949 . S
C1974 C1980 1.368 . S
C1975 C1959 1.349 . S
C1975 H1967 0.950 . S
C1975 C1973 1.327 . S
C1976 C1964 1.349 . S
C1976 H1970 0.950 . S
C1976 C1977 1.327 . S
C1977 H1971 0.950 . S
C1977 C1976 1.327 . S
C1977 C1981 1.429 . S
C1978 C1961 1.574 . S
C1978 H1972 0.949 . S
C1978 C1982 1.368 . S
C1979 C1960 1.429 . S
C1979 C1973 1.429 . S
C1979 C1980 1.523 . S
C1980 C1961 1.368 . S
C1980 C1974 1.368 . S
C1980 C1979 1.523 . S
C1981 C1965 1.429 . S
C1981 C1977 1.429 . S
C1981 C1982 1.523 . S
C1982 C1966 1.368 . S
C1982 C1978 1.368 . S
C1982 C1981 1.523 . S
H1983 C1958 0.949 1_556 S
H1984 C1960 0.950 . S
H1985 C1961 0.949 . S
H1986 C1963 0.950 . S
H1987 C1965 0.950 . S
C1988 C1989 1.349 . S
C1988 C1990 1.327 . S
C1988 H2013 0.950 1_556 S
C1989 C1988 1.349 . S
C1989 C2005 1.349 . S
C1990 C1988 1.327 . S
C1990 C2009 1.429 . S
C1990 H2014 0.950 . S
C1991 C2008 1.574 . S
C1991 C2010 1.368 . S
C1991 H2015 0.949 . S
H1992 C1996 0.949 . S
C1993 C1994 1.349 . S
C1993 C1995 1.327 . S
C1993 H2016 0.950 . S
C1994 C1993 1.349 . S
C1994 C2006 1.349 . S
C1995 C1993 1.327 . S
C1995 C2011 1.429 . S
C1995 H2017 0.950 . S
C1996 H1992 0.949 . S
C1996 C2004 1.574 . S
C1996 C2012 1.368 . S
H1997 C2005 0.950 . S
H1998 C2003 0.950 . S
H1999 C2004 0.949 . S
H2000 C2006 0.950 . S
H2001 C2007 0.950 . S
H2002 C2008 0.949 . S
C2003 H1998 0.950 . S
C2003 C2005 1.327 . S
C2003 C2009 1.429 . S
C2004 C1996 1.574 . S
C2004 H1999 0.949 . S
C2004 C2010 1.368 . S
C2005 C1989 1.349 . S
C2005 H1997 0.950 . S
C2005 C2003 1.327 . S
C2006 C1994 1.349 . S
C2006 H2000 0.950 . S
C2006 C2007 1.327 . S
C2007 H2001 0.950 . S
C2007 C2006 1.327 . S
C2007 C2011 1.429 . S
C2008 C1991 1.574 . S
C2008 H2002 0.949 . S
C2008 C2012 1.368 . S
C2009 C1990 1.429 . S
C2009 C2003 1.429 . S
C2009 C2010 1.523 . S
C2010 C1991 1.368 . S
C2010 C2004 1.368 . S
C2010 C2009 1.523 . S
C2011 C1995 1.429 . S
C2011 C2007 1.429 . S
C2011 C2012 1.523 . S
C2012 C1996 1.368 . S
C2012 C2008 1.368 . S
C2012 C2011 1.523 . S
H2013 C1988 0.950 1_554 S
H2014 C1990 0.950 . S
H2015 C1991 0.949 . S
H2016 C1993 0.950 . S
H2017 C1995 0.950 . S
C2018 C2019 1.349 . S
C2018 C2020 1.327 . S
C2018 H2043 0.950 . S
C2019 C2018 1.349 . S
C2019 C2035 1.349 . S
C2020 C2018 1.327 . S
C2020 C2039 1.429 . S
C2020 H2044 0.950 . S
C2021 C2038 1.574 . S
C2021 C2040 1.368 . S
C2021 H2045 0.949 . S
H2022 C2026 0.949 . S
C2023 C2024 1.349 . S
C2023 C2025 1.327 . S
C2023 H2046 0.950 . S
C2024 C2023 1.349 . S
C2024 C2036 1.349 . S
C2025 C2023 1.327 . S
C2025 C2041 1.429 . S
C2025 H2047 0.950 . S
C2026 H2022 0.949 . S
C2026 C2034 1.574 . S
C2026 C2042 1.368 . S
H2027 C2035 0.950 . S
H2028 C2033 0.950 . S
H2029 C2034 0.949 . S
H2030 C2036 0.950 . S
H2031 C2037 0.950 . S
H2032 C2038 0.949 . S
C2033 H2028 0.950 . S
C2033 C2035 1.327 . S
C2033 C2039 1.429 . S
C2034 C2026 1.574 . S
C2034 H2029 0.949 . S
C2034 C2040 1.368 . S
C2035 C2019 1.349 . S
C2035 H2027 0.950 . S
C2035 C2033 1.327 . S
C2036 C2024 1.349 . S
C2036 H2030 0.950 . S
C2036 C2037 1.327 . S
C2037 H2031 0.950 . S
C2037 C2036 1.327 . S
C2037 C2041 1.429 . S
C2038 C2021 1.574 . S
C2038 H2032 0.949 . S
C2038 C2042 1.368 . S
C2039 C2020 1.429 . S
C2039 C2033 1.429 . S
C2039 C2040 1.523 . S
C2040 C2021 1.368 . S
C2040 C2034 1.368 . S
C2040 C2039 1.523 . S
C2041 C2025 1.429 . S
C2041 C2037 1.429 . S
C2041 C2042 1.523 . S
C2042 C2026 1.368 . S
C2042 C2038 1.368 . S
C2042 C2041 1.523 . S
H2043 C2018 0.950 . S
H2044 C2020 0.950 . S
H2045 C2021 0.949 . S
H2046 C2023 0.950 . S
H2047 C2025 0.950 . S
C2048 C2049 1.349 1_556 S
C2048 C2050 1.327 . S
C2048 H2073 0.950 . S
C2049 C2048 1.349 1_554 S
C2049 C2065 1.349 . S
C2050 C2048 1.327 . S
C2050 C2069 1.429 . S
C2050 H2074 0.950 . S
C2051 C2068 1.574 . S
C2051 C2070 1.368 . S
C2051 H2075 0.949 . S
H2052 C2056 0.949 . S
C2053 C2054 1.349 . S
C2053 C2055 1.327 . S
C2053 H2076 0.950 . S
C2054 C2053 1.349 . S
C2054 C2066 1.349 . S
C2055 C2053 1.327 . S
C2055 C2071 1.429 . S
C2055 H2077 0.950 . S
C2056 H2052 0.949 . S
C2056 C2064 1.574 . S
C2056 C2072 1.368 . S
H2057 C2065 0.950 . S
H2058 C2063 0.950 . S
H2059 C2064 0.949 . S
H2060 C2066 0.950 . S
H2061 C2067 0.950 . S
H2062 C2068 0.949 . S
C2063 H2058 0.950 . S
C2063 C2065 1.327 1_556 S
C2063 C2069 1.429 . S
C2064 C2056 1.574 . S
C2064 H2059 0.949 . S
C2064 C2070 1.368 . S
C2065 C2049 1.349 . S
C2065 H2057 0.950 . S
C2065 C2063 1.327 1_554 S
C2066 C2054 1.349 . S
C2066 H2060 0.950 . S
C2066 C2067 1.327 . S
C2067 H2061 0.950 . S
C2067 C2066 1.327 . S
C2067 C2071 1.429 . S
C2068 C2051 1.574 . S
C2068 H2062 0.949 . S
C2068 C2072 1.368 . S
C2069 C2050 1.429 . S
C2069 C2063 1.429 . S
C2069 C2070 1.523 . S
C2070 C2051 1.368 . S
C2070 C2064 1.368 . S
C2070 C2069 1.523 . S
C2071 C2055 1.429 . S
C2071 C2067 1.429 . S
C2071 C2072 1.523 . S
C2072 C2056 1.368 . S
C2072 C2068 1.368 . S
C2072 C2071 1.523 . S
H2073 C2048 0.950 . S
H2074 C2050 0.950 . S
H2075 C2051 0.949 . S
H2076 C2053 0.950 . S
H2077 C2055 0.950 . S
C2078 C2079 1.349 . S
C2078 C2080 1.327 . S
C2078 H2103 0.950 . S
C2079 C2078 1.349 . S
C2079 C2095 1.349 . S
C2080 C2078 1.327 . S
C2080 C2099 1.429 . S
C2080 H2104 0.950 . S
C2081 C2098 1.604 . S
C2081 C2100 1.368 . S
C2081 H2105 0.949 . S
H2082 C2086 0.949 . S
C2083 C2084 1.349 . S
C2083 C2085 1.327 . S
C2083 H2106 0.950 . S
C2084 C2083 1.349 . S
C2084 C2096 1.349 . S
C2085 C2083 1.327 . S
C2085 C2101 1.429 . S
C2085 H2107 0.950 . S
C2086 H2082 0.949 . S
C2086 C2094 1.574 . S
C2086 C2102 1.368 . S
H2087 C2095 0.950 . S
H2088 C2093 0.950 . S
H2089 C2094 0.949 . S
H2090 C2096 0.950 . S
H2091 C2097 0.950 . S
H2092 C2098 0.955 . S
C2093 H2088 0.950 . S
C2093 C2095 1.327 . S
C2093 C2099 1.429 . S
C2094 C2086 1.574 . S
C2094 H2089 0.949 . S
C2094 C2100 1.368 1_455 S
C2095 C2079 1.349 . S
C2095 H2087 0.950 . S
C2095 C2093 1.327 . S
C2096 C2084 1.349 . S
C2096 H2090 0.950 . S
C2096 C2097 1.327 . S
C2097 H2091 0.950 . S
C2097 C2096 1.327 . S
C2097 C2101 1.429 . S
C2098 C2081 1.604 . S
C2098 H2092 0.955 . S
C2098 C2102 1.334 1_655 S
C2099 C2080 1.429 . S
C2099 C2093 1.429 . S
C2099 C2100 1.523 . S
C2100 C2081 1.368 . S
C2100 C2094 1.368 1_655 S
C2100 C2099 1.523 . S
C2101 C2085 1.429 . S
C2101 C2097 1.429 . S
C2101 C2102 1.523 . S
C2102 C2086 1.368 . S
C2102 C2098 1.334 1_455 S
C2102 C2101 1.523 . S
H2103 C2078 0.950 . S
H2104 C2080 0.950 . S
H2105 C2081 0.949 . S
H2106 C2083 0.950 . S
H2107 C2085 0.950 . S
C2108 C2109 1.349 . S
C2108 C2110 1.327 . S
C2108 H2133 0.950 . S
C2109 C2108 1.349 . S
C2109 C2125 1.349 . S
C2110 C2108 1.327 . S
C2110 C2129 1.429 . S
C2110 H2134 0.950 . S
C2111 C2128 1.574 . S
C2111 C2130 1.368 . S
C2111 H2135 0.949 . S
H2112 C2116 0.949 . S
C2113 C2114 1.349 . S
C2113 C2115 1.327 . S
C2113 H2136 0.950 . S
C2114 C2113 1.349 . S
C2114 C2126 1.349 . S
C2115 C2113 1.327 . S
C2115 C2131 1.429 . S
C2115 H2137 0.950 . S
C2116 H2112 0.949 . S
C2116 C2124 1.574 . S
C2116 C2132 1.368 . S
H2117 C2125 0.950 . S
H2118 C2123 0.950 . S
H2119 C2124 0.949 . S
H2120 C2126 0.950 . S
H2121 C2127 0.950 . S
H2122 C2128 0.949 . S
C2123 H2118 0.950 . S
C2123 C2125 1.327 . S
C2123 C2129 1.429 . S
C2124 C2116 1.574 . S
C2124 H2119 0.949 . S
C2124 C2130 1.368 . S
C2125 C2109 1.349 . S
C2125 H2117 0.950 . S
C2125 C2123 1.327 . S
C2126 C2114 1.349 . S
C2126 H2120 0.950 . S
C2126 C2127 1.327 . S
C2127 H2121 0.950 . S
C2127 C2126 1.327 . S
C2127 C2131 1.429 . S
C2128 C2111 1.574 . S
C2128 H2122 0.949 . S
C2128 C2132 1.368 . S
C2129 C2110 1.429 . S
C2129 C2123 1.429 . S
C2129 C2130 1.523 . S
C2130 C2111 1.368 . S
C2130 C2124 1.368 . S
C2130 C2129 1.523 . S
C2131 C2115 1.429 . S
C2131 C2127 1.429 . S
C2131 C2132 1.523 . S
C2132 C2116 1.368 . S
C2132 C2128 1.368 . S
C2132 C2131 1.523 . S
H2133 C2108 0.950 . S
H2134 C2110 0.950 . S
H2135 C2111 0.949 . S
H2136 C2113 0.950 . S
H2137 C2115 0.950 . S
C2138 C2139 1.349 . S
C2138 C2140 1.327 . S
C2138 H2163 0.950 . S
C2139 C2138 1.349 . S
C2139 C2155 1.349 . S
C2140 C2138 1.327 . S
C2140 C2159 1.429 . S
C2140 H2164 0.950 . S
C2141 C2158 1.574 . S
C2141 C2160 1.368 . S
C2141 H2165 0.949 . S
H2142 C2146 0.949 . S
C2143 C2144 1.349 . S
C2143 C2145 1.327 . S
C2143 H2166 0.950 . S
C2144 C2143 1.349 . S
C2144 C2156 1.349 . S
C2145 C2143 1.327 . S
C2145 C2161 1.429 . S
C2145 H2167 0.950 . S
C2146 H2142 0.949 . S
C2146 C2154 1.574 . S
C2146 C2162 1.368 . S
H2147 C2155 0.950 . S
H2148 C2153 0.950 . S
H2149 C2154 0.949 . S
H2150 C2156 0.950 . S
H2151 C2157 0.950 . S
H2152 C2158 0.949 . S
C2153 H2148 0.950 . S
C2153 C2155 1.327 . S
C2153 C2159 1.429 . S
C2154 C2146 1.574 . S
C2154 H2149 0.949 . S
C2154 C2160 1.368 . S
C2155 C2139 1.349 . S
C2155 H2147 0.950 . S
C2155 C2153 1.327 . S
C2156 C2144 1.349 . S
C2156 H2150 0.950 . S
C2156 C2157 1.327 . S
C2157 H2151 0.950 . S
C2157 C2156 1.327 . S
C2157 C2161 1.429 . S
C2158 C2141 1.574 . S
C2158 H2152 0.949 . S
C2158 C2162 1.368 . S
C2159 C2140 1.429 . S
C2159 C2153 1.429 . S
C2159 C2160 1.523 . S
C2160 C2141 1.368 . S
C2160 C2154 1.368 . S
C2160 C2159 1.523 . S
C2161 C2145 1.429 . S
C2161 C2157 1.429 . S
C2161 C2162 1.523 . S
C2162 C2146 1.368 . S
C2162 C2158 1.368 . S
C2162 C2161 1.523 . S
H2163 C2138 0.950 . S
H2164 C2140 0.950 . S
H2165 C2141 0.949 . S
H2166 C2143 0.950 . S
H2167 C2145 0.950 . S
C2168 C2169 1.349 . S
C2168 C2170 1.327 . S
C2168 H2193 0.950 . S
C2169 C2168 1.349 . S
C2169 C2185 1.349 . S
C2170 C2168 1.327 . S
C2170 C2189 1.429 . S
C2170 H2194 0.950 . S
C2171 C2188 1.574 . S
C2171 C2190 1.368 . S
C2171 H2195 0.949 . S
H2172 C2176 0.949 . S
C2173 C2174 1.349 . S
C2173 C2175 1.327 . S
C2173 H2196 0.950 . S
C2174 C2173 1.349 . S
C2174 C2186 1.349 . S
C2175 C2173 1.327 . S
C2175 C2191 1.429 . S
C2175 H2197 0.950 . S
C2176 H2172 0.949 . S
C2176 C2184 1.574 . S
C2176 C2192 1.368 . S
H2177 C2185 0.950 . S
H2178 C2183 0.950 . S
H2179 C2184 0.949 . S
H2180 C2186 0.950 . S
H2181 C2187 0.950 . S
H2182 C2188 0.949 . S
C2183 H2178 0.950 . S
C2183 C2185 1.327 . S
C2183 C2189 1.429 . S
C2184 C2176 1.574 . S
C2184 H2179 0.949 . S
C2184 C2190 1.368 . S
C2185 C2169 1.349 . S
C2185 H2177 0.950 . S
C2185 C2183 1.327 . S
C2186 C2174 1.349 . S
C2186 H2180 0.950 . S
C2186 C2187 1.327 . S
C2187 H2181 0.950 . S
C2187 C2186 1.327 . S
C2187 C2191 1.429 . S
C2188 C2171 1.574 . S
C2188 H2182 0.949 . S
C2188 C2192 1.368 . S
C2189 C2170 1.429 . S
C2189 C2183 1.429 . S
C2189 C2190 1.523 . S
C2190 C2171 1.368 . S
C2190 C2184 1.368 . S
C2190 C2189 1.523 . S
C2191 C2175 1.429 . S
C2191 C2187 1.429 . S
C2191 C2192 1.523 . S
C2192 C2176 1.368 . S
C2192 C2188 1.368 . S
C2192 C2191 1.523 . S
H2193 C2168 0.950 . S
H2194 C2170 0.950 . S
H2195 C2171 0.949 . S
H2196 C2173 0.950 . S
H2197 C2175 0.950 . S
C2198 C2199 1.349 . S
C2198 C2200 1.327 . S
C2198 H2223 0.950 . S
C2199 C2198 1.349 . S
C2199 C2215 1.349 . S
C2200 C2198 1.327 . S
C2200 C2219 1.429 . S
C2200 H2224 0.950 . S
C2201 C2218 1.574 . S
C2201 C2220 1.368 . S
C2201 H2225 0.949 . S
H2202 C2206 0.949 . S
C2203 C2204 1.349 . S
C2203 C2205 1.327 . S
C2203 H2226 0.950 . S
C2204 C2203 1.349 . S
C2204 C2216 1.349 . S
C2205 C2203 1.327 . S
C2205 C2221 1.429 . S
C2205 H2227 0.950 . S
C2206 H2202 0.949 . S
C2206 C2214 1.574 . S
C2206 C2222 1.368 . S
H2207 C2215 0.950 . S
H2208 C2213 0.950 . S
H2209 C2214 0.949 . S
H2210 C2216 0.950 . S
H2211 C2217 0.950 . S
H2212 C2218 0.949 . S
C2213 H2208 0.950 . S
C2213 C2215 1.327 . S
C2213 C2219 1.429 . S
C2214 C2206 1.574 . S
C2214 H2209 0.949 . S
C2214 C2220 1.368 . S
C2215 C2199 1.349 . S
C2215 H2207 0.950 . S
C2215 C2213 1.327 . S
C2216 C2204 1.349 . S
C2216 H2210 0.950 . S
C2216 C2217 1.327 . S
C2217 H2211 0.950 . S
C2217 C2216 1.327 . S
C2217 C2221 1.429 . S
C2218 C2201 1.574 . S
C2218 H2212 0.949 . S
C2218 C2222 1.368 . S
C2219 C2200 1.429 . S
C2219 C2213 1.429 . S
C2219 C2220 1.523 . S
C2220 C2201 1.368 . S
C2220 C2214 1.368 . S
C2220 C2219 1.523 . S
C2221 C2205 1.429 . S
C2221 C2217 1.429 . S
C2221 C2222 1.523 . S
C2222 C2206 1.368 . S
C2222 C2218 1.368 . S
C2222 C2221 1.523 . S
H2223 C2198 0.950 . S
H2224 C2200 0.950 . S
H2225 C2201 0.949 . S
H2226 C2203 0.950 . S
H2227 C2205 0.950 . S
C2228 C2229 1.349 . S
C2228 C2230 1.327 1_556 S
C2228 H2253 0.950 . S
C2229 C2228 1.349 . S
C2229 C2245 1.349 1_556 S
C2230 C2228 1.327 1_554 S
C2230 C2249 1.429 . S
C2230 H2254 0.950 1_554 S
C2231 C2248 1.574 . S
C2231 C2250 1.368 . S
C2231 H2255 0.949 . S
H2232 C2236 0.949 . S
C2233 C2234 1.349 . S
C2233 C2235 1.327 . S
C2233 H2256 0.950 . S
C2234 C2233 1.349 . S
C2234 C2246 1.349 . S
C2235 C2233 1.327 . S
C2235 C2251 1.429 . S
C2235 H2257 0.950 . S
C2236 H2232 0.949 . S
C2236 C2244 1.574 . S
C2236 C2252 1.368 . S
H2237 C2245 0.950 . S
H2238 C2243 0.950 . S
H2239 C2244 0.949 . S
H2240 C2246 0.950 . S
H2241 C2247 0.950 . S
H2242 C2248 0.949 . S
C2243 H2238 0.950 . S
C2243 C2245 1.327 . S
C2243 C2249 1.429 . S
C2244 C2236 1.574 . S
C2244 H2239 0.949 . S
C2244 C2250 1.368 . S
C2245 C2229 1.349 1_554 S
C2245 H2237 0.950 . S
C2245 C2243 1.327 . S
C2246 C2234 1.349 . S
C2246 H2240 0.950 . S
C2246 C2247 1.327 . S
C2247 H2241 0.950 . S
C2247 C2246 1.327 . S
C2247 C2251 1.429 . S
C2248 C2231 1.574 . S
C2248 H2242 0.949 . S
C2248 C2252 1.368 . S
C2249 C2230 1.429 . S
C2249 C2243 1.429 . S
C2249 C2250 1.523 . S
C2250 C2231 1.368 . S
C2250 C2244 1.368 . S
C2250 C2249 1.523 . S
C2251 C2235 1.429 . S
C2251 C2247 1.429 . S
C2251 C2252 1.523 . S
C2252 C2236 1.368 . S
C2252 C2248 1.368 . S
C2252 C2251 1.523 . S
H2253 C2228 0.950 . S
H2254 C2230 0.950 1_556 S
H2255 C2231 0.949 . S
H2256 C2233 0.950 . S
H2257 C2235 0.950 . S
C2258 C2259 1.349 . S
C2258 C2260 1.327 . S
C2258 H2283 0.950 . S
C2259 C2258 1.349 . S
C2259 C2275 1.349 . S
C2260 C2258 1.327 . S
C2260 C2279 1.429 . S
C2260 H2284 0.950 . S
C2261 C2278 1.574 . S
C2261 C2280 1.368 1_655 S
C2261 H2285 0.949 . S
H2262 C2266 0.949 . S
C2263 C2264 1.349 . S
C2263 C2265 1.327 . S
C2263 H2286 0.950 . S
C2264 C2263 1.349 . S
C2264 C2276 1.349 . S
C2265 C2263 1.327 . S
C2265 C2281 1.429 . S
C2265 H2287 0.950 . S
C2266 H2262 0.949 . S
C2266 C2274 1.574 . S
C2266 C2282 1.368 1_455 S
H2267 C2275 0.950 . S
H2268 C2273 0.950 . S
H2269 C2274 0.949 . S
H2270 C2276 0.950 . S
H2271 C2277 0.950 . S
H2272 C2278 0.949 . S
C2273 H2268 0.950 . S
C2273 C2275 1.327 . S
C2273 C2279 1.429 . S
C2274 C2266 1.574 . S
C2274 H2269 0.949 . S
C2274 C2280 1.368 . S
C2275 C2259 1.349 . S
C2275 H2267 0.950 . S
C2275 C2273 1.327 . S
C2276 C2264 1.349 . S
C2276 H2270 0.950 . S
C2276 C2277 1.327 . S
C2277 H2271 0.950 . S
C2277 C2276 1.327 . S
C2277 C2281 1.429 . S
C2278 C2261 1.574 . S
C2278 H2272 0.949 . S
C2278 C2282 1.368 . S
C2279 C2260 1.429 . S
C2279 C2273 1.429 . S
C2279 C2280 1.523 . S
C2280 C2261 1.368 1_455 S
C2280 C2274 1.368 . S
C2280 C2279 1.523 . S
C2281 C2265 1.429 . S
C2281 C2277 1.429 . S
C2281 C2282 1.523 . S
C2282 C2266 1.368 1_655 S
C2282 C2278 1.368 . S
C2282 C2281 1.523 . S
H2283 C2258 0.950 . S
H2284 C2260 0.950 . S
H2285 C2261 0.949 . S
H2286 C2263 0.950 . S
H2287 C2265 0.950 . S
C2288 C2289 1.349 . S
C2288 C2290 1.327 . S
C2288 H2313 0.950 . S
C2289 C2288 1.349 . S
C2289 C2305 1.349 . S
C2290 C2288 1.327 . S
C2290 C2309 1.429 . S
C2290 H2314 0.950 . S
C2291 C2308 1.574 . S
C2291 C2310 1.368 . S
C2291 H2315 0.949 . S
H2292 C2296 0.949 . S
C2293 C2294 1.349 1_554 S
C2293 C2295 1.327 . S
C2293 H2316 0.950 . S
C2294 C2293 1.349 1_556 S
C2294 C2306 1.349 . S
C2295 C2293 1.327 . S
C2295 C2311 1.429 . S
C2295 H2317 0.950 . S
C2296 H2292 0.949 . S
C2296 C2304 1.574 . S
C2296 C2312 1.368 . S
H2297 C2305 0.950 . S
H2298 C2303 0.950 . S
H2299 C2304 0.949 . S
H2300 C2306 0.950 . S
H2301 C2307 0.947 1_556 S
H2302 C2308 0.949 . S
C2303 H2298 0.950 . S
C2303 C2305 1.327 . S
C2303 C2309 1.429 . S
C2304 C2296 1.574 . S
C2304 H2299 0.949 . S
C2304 C2310 1.368 . S
C2305 C2289 1.349 . S
C2305 H2297 0.950 . S
C2305 C2303 1.327 . S
C2306 C2294 1.349 . S
C2306 H2300 0.950 . S
C2306 C2307 1.318 1_556 S
C2307 H2301 0.947 1_554 S
C2307 C2306 1.318 1_554 S
C2307 C2311 1.440 . S
C2308 C2291 1.574 . S
C2308 H2302 0.949 . S
C2308 C2312 1.368 . S
C2309 C2290 1.429 . S
C2309 C2303 1.429 . S
C2309 C2310 1.523 . S
C2310 C2291 1.368 . S
C2310 C2304 1.368 . S
C2310 C2309 1.523 . S
C2311 C2295 1.429 . S
C2311 C2307 1.440 . S
C2311 C2312 1.523 . S
C2312 C2296 1.368 . S
C2312 C2308 1.368 . S
C2312 C2311 1.523 . S
H2313 C2288 0.950 . S
H2314 C2290 0.950 . S
H2315 C2291 0.949 . S
H2316 C2293 0.950 . S
H2317 C2295 0.950 . S
C2318 C2319 1.349 . S
C2318 C2320 1.327 . S
C2318 H2343 0.950 . S
C2319 C2318 1.349 . S
C2319 C2335 1.349 . S
C2320 C2318 1.327 . S
C2320 C2339 1.429 . S
C2320 H2344 0.950 . S
C2321 C2338 1.557 1_455 S
C2321 C2340 1.368 . S
C2321 H2345 0.949 . S
H2322 C2326 0.949 . S
C2323 C2324 1.349 . S
C2323 C2325 1.327 . S
C2323 H2346 0.950 . S
C2324 C2323 1.349 . S
C2324 C2336 1.349 . S
C2325 C2323 1.327 . S
C2325 C2341 1.429 . S
C2325 H2347 0.950 . S
C2326 H2322 0.949 . S
C2326 C2334 1.574 . S
C2326 C2342 1.368 . S
H2327 C2335 0.950 . S
H2328 C2333 0.950 . S
H2329 C2334 0.949 . S
H2330 C2336 0.950 . S
H2331 C2337 0.950 . S
H2332 C2338 0.949 . S
C2333 H2328 0.950 . S
C2333 C2335 1.327 . S
C2333 C2339 1.429 . S
C2334 C2326 1.574 . S
C2334 H2329 0.949 . S
C2334 C2340 1.368 1_655 S
C2335 C2319 1.349 . S
C2335 H2327 0.950 . S
C2335 C2333 1.327 . S
C2336 C2324 1.349 . S
C2336 H2330 0.950 . S
C2336 C2337 1.327 . S
C2337 H2331 0.950 . S
C2337 C2336 1.327 . S
C2337 C2341 1.429 . S
C2338 C2321 1.557 1_655 S
C2338 H2332 0.949 . S
C2338 C2342 1.386 . S
C2339 C2320 1.429 . S
C2339 C2333 1.429 . S
C2339 C2340 1.523 . S
C2340 C2321 1.368 . S
C2340 C2334 1.368 1_455 S
C2340 C2339 1.523 . S
C2341 C2325 1.429 . S
C2341 C2337 1.429 . S
C2341 C2342 1.523 . S
C2342 C2326 1.368 . S
C2342 C2338 1.386 . S
C2342 C2341 1.523 . S
H2343 C2318 0.950 . S
H2344 C2320 0.950 . S
H2345 C2321 0.949 . S
H2346 C2323 0.950 . S
H2347 C2325 0.950 . S
C2348 C2349 1.349 . S
C2348 C2350 1.327 . S
C2348 H2373 0.950 . S
C2349 C2348 1.349 . S
C2349 C2365 1.349 . S
C2350 C2348 1.327 . S
C2350 C2369 1.429 . S
C2350 H2374 0.950 . S
C2351 C2368 1.574 . S
C2351 C2370 1.368 . S
C2351 H2375 0.949 . S
H2352 C2356 0.949 . S
C2353 C2354 1.349 . S
C2353 C2355 1.327 . S
C2353 H2376 0.950 . S
C2354 C2353 1.349 . S
C2354 C2366 1.349 . S
C2355 C2353 1.327 . S
C2355 C2371 1.429 . S
C2355 H2377 0.950 . S
C2356 H2352 0.949 . S
C2356 C2364 1.574 . S
C2356 C2372 1.368 . S
H2357 C2365 0.950 . S
H2358 C2363 0.950 . S
H2359 C2364 0.949 . S
H2360 C2366 0.950 . S
H2361 C2367 0.950 . S
H2362 C2368 0.949 . S
C2363 H2358 0.950 . S
C2363 C2365 1.327 . S
C2363 C2369 1.429 . S
C2364 C2356 1.574 . S
C2364 H2359 0.949 . S
C2364 C2370 1.368 . S
C2365 C2349 1.349 . S
C2365 H2357 0.950 . S
C2365 C2363 1.327 . S
C2366 C2354 1.349 . S
C2366 H2360 0.950 . S
C2366 C2367 1.327 . S
C2367 H2361 0.950 . S
C2367 C2366 1.327 . S
C2367 C2371 1.429 . S
C2368 C2351 1.574 . S
C2368 H2362 0.949 . S
C2368 C2372 1.368 . S
C2369 C2350 1.429 . S
C2369 C2363 1.429 . S
C2369 C2370 1.523 . S
C2370 C2351 1.368 . S
C2370 C2364 1.368 . S
C2370 C2369 1.523 . S
C2371 C2355 1.429 . S
C2371 C2367 1.429 . S
C2371 C2372 1.523 . S
C2372 C2356 1.368 . S
C2372 C2368 1.368 . S
C2372 C2371 1.523 . S
H2373 C2348 0.950 . S
H2374 C2350 0.950 . S
H2375 C2351 0.949 . S
H2376 C2353 0.950 . S
H2377 C2355 0.950 . S
C2378 C2379 1.349 . S
C2378 C2380 1.327 . S
C2378 H2403 0.950 . S
C2379 C2378 1.349 . S
C2379 C2395 1.349 . S
C2380 C2378 1.327 . S
C2380 C2399 1.429 . S
C2380 H2404 0.950 . S
C2381 C2398 1.574 . S
C2381 C2400 1.368 . S
C2381 H2405 0.949 . S
H2382 C2386 0.949 . S
C2383 C2384 1.349 . S
C2383 C2385 1.327 . S
C2383 H2406 0.950 . S
C2384 C2383 1.349 . S
C2384 C2396 1.349 . S
C2385 C2383 1.327 . S
C2385 C2401 1.429 . S
C2385 H2407 0.950 . S
C2386 H2382 0.949 . S
C2386 C2394 1.574 . S
C2386 C2402 1.368 . S
H2387 C2395 0.950 . S
H2388 C2393 0.950 . S
H2389 C2394 0.949 . S
H2390 C2396 0.950 . S
H2391 C2397 0.950 . S
H2392 C2398 0.949 . S
C2393 H2388 0.950 . S
C2393 C2395 1.327 . S
C2393 C2399 1.429 . S
C2394 C2386 1.574 . S
C2394 H2389 0.949 . S
C2394 C2400 1.368 . S
C2395 C2379 1.349 . S
C2395 H2387 0.950 . S
C2395 C2393 1.327 . S
C2396 C2384 1.349 . S
C2396 H2390 0.950 . S
C2396 C2397 1.327 . S
C2397 H2391 0.950 . S
C2397 C2396 1.327 . S
C2397 C2401 1.429 . S
C2398 C2381 1.574 . S
C2398 H2392 0.949 . S
C2398 C2402 1.368 . S
C2399 C2380 1.429 . S
C2399 C2393 1.429 . S
C2399 C2400 1.523 . S
C2400 C2381 1.368 . S
C2400 C2394 1.368 . S
C2400 C2399 1.523 . S
C2401 C2385 1.429 . S
C2401 C2397 1.429 . S
C2401 C2402 1.523 . S
C2402 C2386 1.368 . S
C2402 C2398 1.368 . S
C2402 C2401 1.523 . S
H2403 C2378 0.950 . S
H2404 C2380 0.950 . S
H2405 C2381 0.949 . S
H2406 C2383 0.950 . S
H2407 C2385 0.950 . S
C2408 C2409 1.349 . S
C2408 C2410 1.327 . S
C2408 H2433 0.950 . S
C2409 C2408 1.349 . S
C2409 C2425 1.349 . S
C2410 C2408 1.327 . S
C2410 C2429 1.429 . S
C2410 H2434 0.950 . S
C2411 C2428 1.574 . S
C2411 C2430 1.368 . S
C2411 H2435 0.949 . S
H2412 C2416 0.949 . S
C2413 C2414 1.349 . S
C2413 C2415 1.327 . S
C2413 H2436 0.950 . S
C2414 C2413 1.349 . S
C2414 C2426 1.349 . S
C2415 C2413 1.327 . S
C2415 C2431 1.429 . S
C2415 H2437 0.950 . S
C2416 H2412 0.949 . S
C2416 C2424 1.574 . S
C2416 C2432 1.368 . S
H2417 C2425 0.950 . S
H2418 C2423 0.950 . S
H2419 C2424 0.949 . S
H2420 C2426 0.950 . S
H2421 C2427 0.950 . S
H2422 C2428 0.949 . S
C2423 H2418 0.950 . S
C2423 C2425 1.327 . S
C2423 C2429 1.429 . S
C2424 C2416 1.574 . S
C2424 H2419 0.949 . S
C2424 C2430 1.368 . S
C2425 C2409 1.349 . S
C2425 H2417 0.950 . S
C2425 C2423 1.327 . S
C2426 C2414 1.349 . S
C2426 H2420 0.950 . S
C2426 C2427 1.327 . S
C2427 H2421 0.950 . S
C2427 C2426 1.327 . S
C2427 C2431 1.429 . S
C2428 C2411 1.574 . S
C2428 H2422 0.949 . S
C2428 C2432 1.368 . S
C2429 C2410 1.429 . S
C2429 C2423 1.429 . S
C2429 C2430 1.523 . S
C2430 C2411 1.368 . S
C2430 C2424 1.368 . S
C2430 C2429 1.523 . S
C2431 C2415 1.429 . S
C2431 C2427 1.429 . S
C2431 C2432 1.523 . S
C2432 C2416 1.368 . S
C2432 C2428 1.368 . S
C2432 C2431 1.523 . S
H2433 C2408 0.950 . S
H2434 C2410 0.950 . S
H2435 C2411 0.949 . S
H2436 C2413 0.950 . S
H2437 C2415 0.950 . S
C2438 C2439 1.349 . S
C2438 C2440 1.327 . S
C2438 H2463 0.950 . S
C2439 C2438 1.349 . S
C2439 C2455 1.349 . S
C2440 C2438 1.327 . S
C2440 C2459 1.429 . S
C2440 H2464 0.950 . S
C2441 C2458 1.574 . S
C2441 C2460 1.368 . S
C2441 H2465 0.949 . S
H2442 C2446 0.949 . S
C2443 C2444 1.349 . S
C2443 C2445 1.327 . S
C2443 H2466 0.950 . S
C2444 C2443 1.349 . S
C2444 C2456 1.349 . S
C2445 C2443 1.327 . S
C2445 C2461 1.429 . S
C2445 H2467 0.950 . S
C2446 H2442 0.949 . S
C2446 C2454 1.574 . S
C2446 C2462 1.368 . S
H2447 C2455 0.950 . S
H2448 C2453 0.950 . S
H2449 C2454 0.949 . S
H2450 C2456 0.950 . S
H2451 C2457 0.950 . S
H2452 C2458 0.949 . S
C2453 H2448 0.950 . S
C2453 C2455 1.327 . S
C2453 C2459 1.429 . S
C2454 C2446 1.574 . S
C2454 H2449 0.949 . S
C2454 C2460 1.368 . S
C2455 C2439 1.349 . S
C2455 H2447 0.950 . S
C2455 C2453 1.327 . S
C2456 C2444 1.349 . S
C2456 H2450 0.950 . S
C2456 C2457 1.327 . S
C2457 H2451 0.950 . S
C2457 C2456 1.327 . S
C2457 C2461 1.429 . S
C2458 C2441 1.574 . S
C2458 H2452 0.949 . S
C2458 C2462 1.368 . S
C2459 C2440 1.429 . S
C2459 C2453 1.429 . S
C2459 C2460 1.523 . S
C2460 C2441 1.368 . S
C2460 C2454 1.368 . S
C2460 C2459 1.523 . S
C2461 C2445 1.429 . S
C2461 C2457 1.429 . S
C2461 C2462 1.523 . S
C2462 C2446 1.368 . S
C2462 C2458 1.368 . S
C2462 C2461 1.523 . S
H2463 C2438 0.950 . S
H2464 C2440 0.950 . S
H2465 C2441 0.949 . S
H2466 C2443 0.950 . S
H2467 C2445 0.950 . S
C2468 C2469 1.349 . S
C2468 C2470 1.327 . S
C2468 H2493 0.950 . S
C2469 C2468 1.349 . S
C2469 C2485 1.349 . S
C2470 C2468 1.327 . S
C2470 C2489 1.429 . S
C2470 H2494 0.950 . S
C2471 C2488 1.574 . S
C2471 C2490 1.368 . S
C2471 H2495 0.949 . S
H2472 C2476 0.949 . S
C2473 C2474 1.349 . S
C2473 C2475 1.327 1_554 S
C2473 H2496 0.950 . S
C2474 C2473 1.349 . S
C2474 C2486 1.349 1_554 S
C2475 C2473 1.327 1_556 S
C2475 C2491 1.429 . S
C2475 H2497 0.950 1_556 S
C2476 H2472 0.949 . S
C2476 C2484 1.574 . S
C2476 C2492 1.368 . S
H2477 C2485 0.950 . S
H2478 C2483 0.950 . S
H2479 C2484 0.949 . S
H2480 C2486 0.950 . S
H2481 C2487 0.950 . S
H2482 C2488 0.949 . S
C2483 H2478 0.950 . S
C2483 C2485 1.327 . S
C2483 C2489 1.429 . S
C2484 C2476 1.574 . S
C2484 H2479 0.949 . S
C2484 C2490 1.368 . S
C2485 C2469 1.349 . S
C2485 H2477 0.950 . S
C2485 C2483 1.327 . S
C2486 C2474 1.349 1_556 S
C2486 H2480 0.950 . S
C2486 C2487 1.327 . S
C2487 H2481 0.950 . S
C2487 C2486 1.327 . S
C2487 C2491 1.429 . S
C2488 C2471 1.574 . S
C2488 H2482 0.949 . S
C2488 C2492 1.368 . S
C2489 C2470 1.429 . S
C2489 C2483 1.429 . S
C2489 C2490 1.523 . S
C2490 C2471 1.368 . S
C2490 C2484 1.368 . S
C2490 C2489 1.523 . S
C2491 C2475 1.429 . S
C2491 C2487 1.429 . S
C2491 C2492 1.523 . S
C2492 C2476 1.368 . S
C2492 C2488 1.368 . S
C2492 C2491 1.523 . S
H2493 C2468 0.950 . S
H2494 C2470 0.950 . S
H2495 C2471 0.949 . S
H2496 C2473 0.950 . S
H2497 C2475 0.950 1_554 S
C2498 C2499 1.349 . S
C2498 C2500 1.327 . S
C2498 H2523 0.950 . S
C2499 C2498 1.349 . S
C2499 C2515 1.349 . S
C2500 C2498 1.327 . S
C2500 C2519 1.429 . S
C2500 H2524 0.950 . S
C2501 C2518 1.618 . S
C2501 C2520 1.368 . S
C2501 H2525 0.949 . S
H2502 C2506 0.949 . S
C2503 C2504 1.349 . S
C2503 C2505 1.327 . S
C2503 H2526 0.950 . S
C2504 C2503 1.349 . S
C2504 C2516 1.349 . S
C2505 C2503 1.327 . S
C2505 C2521 1.429 . S
C2505 H2527 0.950 . S
C2506 H2502 0.949 . S
C2506 C2514 1.579 . S
C2506 C2522 1.368 . S
H2507 C2515 0.950 . S
H2508 C2513 0.950 . S
H2509 C2514 0.949 . S
H2510 C2516 0.950 . S
H2511 C2517 0.950 . S
H2512 C2518 0.953 . S
C2513 H2508 0.950 . S
C2513 C2515 1.327 . S
C2513 C2519 1.429 . S
C2514 C2506 1.579 . S
C2514 H2509 0.949 . S
C2514 C2520 1.363 1_655 S
C2515 C2499 1.349 . S
C2515 H2507 0.950 . S
C2515 C2513 1.327 . S
C2516 C2504 1.349 . S
C2516 H2510 0.950 . S
C2516 C2517 1.327 . S
C2517 H2511 0.950 . S
C2517 C2516 1.327 . S
C2517 C2521 1.429 . S
C2518 C2501 1.618 . S
C2518 H2512 0.953 . S
C2518 C2522 1.325 1_455 S
C2519 C2500 1.429 . S
C2519 C2513 1.429 . S
C2519 C2520 1.523 . S
C2520 C2501 1.368 . S
C2520 C2514 1.363 1_455 S
C2520 C2519 1.523 . S
C2521 C2505 1.429 . S
C2521 C2517 1.429 . S
C2521 C2522 1.523 . S
C2522 C2506 1.368 . S
C2522 C2518 1.325 1_655 S
C2522 C2521 1.523 . S
H2523 C2498 0.950 . S
H2524 C2500 0.950 . S
H2525 C2501 0.949 . S
H2526 C2503 0.950 . S
H2527 C2505 0.950 . S
C2528 C2529 1.349 . S
C2528 C2530 1.327 . S
C2528 H2553 0.950 . S
C2529 C2528 1.349 . S
C2529 C2545 1.349 . S
C2530 C2528 1.327 . S
C2530 C2549 1.429 . S
C2530 H2554 0.950 . S
C2531 C2548 1.574 . S
C2531 C2550 1.368 . S
C2531 H2555 0.949 . S
H2532 C2536 0.949 . S
C2533 C2534 1.349 . S
C2533 C2535 1.327 . S
C2533 H2556 0.950 . S
C2534 C2533 1.349 . S
C2534 C2546 1.349 . S
C2535 C2533 1.327 . S
C2535 C2551 1.429 . S
C2535 H2557 0.950 . S
C2536 H2532 0.949 . S
C2536 C2544 1.574 . S
C2536 C2552 1.368 . S
H2537 C2545 0.950 . S
H2538 C2543 0.950 . S
H2539 C2544 0.949 . S
H2540 C2546 0.950 . S
H2541 C2547 0.950 . S
H2542 C2548 0.949 . S
C2543 H2538 0.950 . S
C2543 C2545 1.327 . S
C2543 C2549 1.429 . S
C2544 C2536 1.574 . S
C2544 H2539 0.949 . S
C2544 C2550 1.368 . S
C2545 C2529 1.349 . S
C2545 H2537 0.950 . S
C2545 C2543 1.327 . S
C2546 C2534 1.349 . S
C2546 H2540 0.950 . S
C2546 C2547 1.327 . S
C2547 H2541 0.950 . S
C2547 C2546 1.327 . S
C2547 C2551 1.429 . S
C2548 C2531 1.574 . S
C2548 H2542 0.949 . S
C2548 C2552 1.368 . S
C2549 C2530 1.429 . S
C2549 C2543 1.429 . S
C2549 C2550 1.523 . S
C2550 C2531 1.368 . S
C2550 C2544 1.368 . S
C2550 C2549 1.523 . S
C2551 C2535 1.429 . S
C2551 C2547 1.429 . S
C2551 C2552 1.523 . S
C2552 C2536 1.368 . S
C2552 C2548 1.368 . S
C2552 C2551 1.523 . S
H2553 C2528 0.950 . S
H2554 C2530 0.950 . S
H2555 C2531 0.949 . S
H2556 C2533 0.950 . S
H2557 C2535 0.950 . S
C2558 C2559 1.349 . S
C2558 C2560 1.327 . S
C2558 H2583 0.950 . S
C2559 C2558 1.349 . S
C2559 C2575 1.349 . S
C2560 C2558 1.327 . S
C2560 C2579 1.429 . S
C2560 H2584 0.950 . S
C2561 C2578 1.574 . S
C2561 C2580 1.368 . S
C2561 H2585 0.949 . S
H2562 C2566 0.949 . S
C2563 C2564 1.349 . S
C2563 C2565 1.327 . S
C2563 H2586 0.950 . S
C2564 C2563 1.349 . S
C2564 C2576 1.349 . S
C2565 C2563 1.327 . S
C2565 C2581 1.429 . S
C2565 H2587 0.950 . S
C2566 H2562 0.949 . S
C2566 C2574 1.574 . S
C2566 C2582 1.368 . S
H2567 C2575 0.950 . S
H2568 C2573 0.950 . S
H2569 C2574 0.949 . S
H2570 C2576 0.950 . S
H2571 C2577 0.950 . S
H2572 C2578 0.949 . S
C2573 H2568 0.950 . S
C2573 C2575 1.327 . S
C2573 C2579 1.429 . S
C2574 C2566 1.574 . S
C2574 H2569 0.949 . S
C2574 C2580 1.368 . S
C2575 C2559 1.349 . S
C2575 H2567 0.950 . S
C2575 C2573 1.327 . S
C2576 C2564 1.349 . S
C2576 H2570 0.950 . S
C2576 C2577 1.327 . S
C2577 H2571 0.950 . S
C2577 C2576 1.327 . S
C2577 C2581 1.429 . S
C2578 C2561 1.574 . S
C2578 H2572 0.949 . S
C2578 C2582 1.368 . S
C2579 C2560 1.429 . S
C2579 C2573 1.429 . S
C2579 C2580 1.523 . S
C2580 C2561 1.368 . S
C2580 C2574 1.368 . S
C2580 C2579 1.523 . S
C2581 C2565 1.429 . S
C2581 C2577 1.429 . S
C2581 C2582 1.523 . S
C2582 C2566 1.368 . S
C2582 C2578 1.368 . S
C2582 C2581 1.523 . S
H2583 C2558 0.950 . S
H2584 C2560 0.950 . S
H2585 C2561 0.949 . S
H2586 C2563 0.950 . S
H2587 C2565 0.950 . S
C2588 C2589 1.349 . S
C2588 C2590 1.327 1_554 S
C2588 H2613 0.950 . S
C2589 C2588 1.349 . S
C2589 C2605 1.349 1_554 S
C2590 C2588 1.327 1_556 S
C2590 C2609 1.429 . S
C2590 H2614 0.950 . S
C2591 C2608 1.574 . S
C2591 C2610 1.368 . S
C2591 H2615 0.949 . S
H2592 C2596 0.949 . S
C2593 C2594 1.349 . S
C2593 C2595 1.327 . S
C2593 H2616 0.950 . S
C2594 C2593 1.349 . S
C2594 C2606 1.349 . S
C2595 C2593 1.327 . S
C2595 C2611 1.429 . S
C2595 H2617 0.950 . S
C2596 H2592 0.949 . S
C2596 C2604 1.574 . S
C2596 C2612 1.368 . S
H2597 C2605 0.950 . S
H2598 C2603 0.950 . S
H2599 C2604 0.949 . S
H2600 C2606 0.950 . S
H2601 C2607 0.950 . S
H2602 C2608 0.949 . S
C2603 H2598 0.950 . S
C2603 C2605 1.327 . S
C2603 C2609 1.429 . S
C2604 C2596 1.574 . S
C2604 H2599 0.949 . S
C2604 C2610 1.368 . S
C2605 C2589 1.349 1_556 S
C2605 H2597 0.950 . S
C2605 C2603 1.327 . S
C2606 C2594 1.349 . S
C2606 H2600 0.950 . S
C2606 C2607 1.327 . S
C2607 H2601 0.950 . S
C2607 C2606 1.327 . S
C2607 C2611 1.429 . S
C2608 C2591 1.574 . S
C2608 H2602 0.949 . S
C2608 C2612 1.368 . S
C2609 C2590 1.429 . S
C2609 C2603 1.429 . S
C2609 C2610 1.523 . S
C2610 C2591 1.368 . S
C2610 C2604 1.368 . S
C2610 C2609 1.523 . S
C2611 C2595 1.429 . S
C2611 C2607 1.429 . S
C2611 C2612 1.523 . S
C2612 C2596 1.368 . S
C2612 C2608 1.368 . S
C2612 C2611 1.523 . S
H2613 C2588 0.950 . S
H2614 C2590 0.950 . S
H2615 C2591 0.949 . S
H2616 C2593 0.950 . S
H2617 C2595 0.950 . S
C2618 C2619 1.349 . S
C2618 C2620 1.327 . S
C2618 H2643 0.950 . S
C2619 C2618 1.349 . S
C2619 C2635 1.349 . S
C2620 C2618 1.327 . S
C2620 C2639 1.429 . S
C2620 H2644 0.950 . S
C2621 C2638 1.575 . S
C2621 C2640 1.366 1_455 S
C2621 H2645 0.947 . S
H2622 C2626 0.949 . S
C2623 C2624 1.349 . S
C2623 C2625 1.327 . S
C2623 H2646 0.950 . S
C2624 C2623 1.349 . S
C2624 C2636 1.349 . S
C2625 C2623 1.327 . S
C2625 C2641 1.429 . S
C2625 H2647 0.950 . S
C2626 H2622 0.949 . S
C2626 C2634 1.574 . S
C2626 C2642 1.368 1_655 S
H2627 C2635 0.950 . S
H2628 C2633 0.950 . S
H2629 C2634 0.949 . S
H2630 C2636 0.950 . S
H2631 C2637 0.950 . S
H2632 C2638 0.949 . S
C2633 H2628 0.950 . S
C2633 C2635 1.327 . S
C2633 C2639 1.429 . S
C2634 C2626 1.574 . S
C2634 H2629 0.949 . S
C2634 C2640 1.368 . S
C2635 C2619 1.349 . S
C2635 H2627 0.950 . S
C2635 C2633 1.327 . S
C2636 C2624 1.349 . S
C2636 H2630 0.950 . S
C2636 C2637 1.327 . S
C2637 H2631 0.950 . S
C2637 C2636 1.327 . S
C2637 C2641 1.429 . S
C2638 C2621 1.575 . S
C2638 H2632 0.949 . S
C2638 C2642 1.368 . S
C2639 C2620 1.429 . S
C2639 C2633 1.429 . S
C2639 C2640 1.523 . S
C2640 C2621 1.366 1_655 S
C2640 C2634 1.368 . S
C2640 C2639 1.523 . S
C2641 C2625 1.429 . S
C2641 C2637 1.429 . S
C2641 C2642 1.523 . S
C2642 C2626 1.368 1_455 S
C2642 C2638 1.368 . S
C2642 C2641 1.523 . S
H2643 C2618 0.950 . S
H2644 C2620 0.950 . S
H2645 C2621 0.947 . S
H2646 C2623 0.950 . S
H2647 C2625 0.950 . S
C2648 C2649 1.349 . S
C2648 C2650 1.327 . S
C2648 H2673 0.950 . S
C2649 C2648 1.349 . S
C2649 C2665 1.349 . S
C2650 C2648 1.327 . S
C2650 C2669 1.429 . S
C2650 H2674 0.950 . S
C2651 C2668 1.574 . S
C2651 C2670 1.368 . S
C2651 H2675 0.949 . S
H2652 C2656 0.949 . S
C2653 C2654 1.349 1_554 S
C2653 C2655 1.327 . S
C2653 H2676 0.950 . S
C2654 C2653 1.349 1_556 S
C2654 C2666 1.349 . S
C2655 C2653 1.327 . S
C2655 C2671 1.429 . S
C2655 H2677 0.950 . S
C2656 H2652 0.949 . S
C2656 C2664 1.574 . S
C2656 C2672 1.368 . S
H2657 C2665 0.950 . S
H2658 C2663 0.950 . S
H2659 C2664 0.949 . S
H2660 C2666 0.950 . S
H2661 C2667 0.950 . S
H2662 C2668 0.949 . S
C2663 H2658 0.950 . S
C2663 C2665 1.327 . S
C2663 C2669 1.429 . S
C2664 C2656 1.574 . S
C2664 H2659 0.949 . S
C2664 C2670 1.368 . S
C2665 C2649 1.349 . S
C2665 H2657 0.950 . S
C2665 C2663 1.327 . S
C2666 C2654 1.349 . S
C2666 H2660 0.950 . S
C2666 C2667 1.327 1_556 S
C2667 H2661 0.950 . S
C2667 C2666 1.327 1_554 S
C2667 C2671 1.429 . S
C2668 C2651 1.574 . S
C2668 H2662 0.949 . S
C2668 C2672 1.368 . S
C2669 C2650 1.429 . S
C2669 C2663 1.429 . S
C2669 C2670 1.523 . S
C2670 C2651 1.368 . S
C2670 C2664 1.368 . S
C2670 C2669 1.523 . S
C2671 C2655 1.429 . S
C2671 C2667 1.429 . S
C2671 C2672 1.523 . S
C2672 C2656 1.368 . S
C2672 C2668 1.368 . S
C2672 C2671 1.523 . S
H2673 C2648 0.950 . S
H2674 C2650 0.950 . S
H2675 C2651 0.949 . S
H2676 C2653 0.950 . S
H2677 C2655 0.950 . S
C2678 C2679 1.349 . S
C2678 C2680 1.327 . S
C2678 H2703 0.950 . S
C2679 C2678 1.349 . S
C2679 C2695 1.349 . S
C2680 C2678 1.327 . S
C2680 C2699 1.429 . S
C2680 H2704 0.950 . S
C2681 C2698 1.574 . S
C2681 C2700 1.368 1_455 S
C2681 H2705 0.949 . S
H2682 C2686 0.949 . S
C2683 C2684 1.349 . S
C2683 C2685 1.327 . S
C2683 H2706 0.950 . S
C2684 C2683 1.349 . S
C2684 C2696 1.349 . S
C2685 C2683 1.327 . S
C2685 C2701 1.429 . S
C2685 H2707 0.950 . S
C2686 H2682 0.949 . S
C2686 C2694 1.574 . S
C2686 C2702 1.368 1_655 S
H2687 C2695 0.950 . S
H2688 C2693 0.950 . S
H2689 C2694 0.949 . S
H2690 C2696 0.950 . S
H2691 C2697 0.950 . S
H2692 C2698 0.949 . S
C2693 H2688 0.950 . S
C2693 C2695 1.327 . S
C2693 C2699 1.429 . S
C2694 C2686 1.574 . S
C2694 H2689 0.949 . S
C2694 C2700 1.368 . S
C2695 C2679 1.349 . S
C2695 H2687 0.950 . S
C2695 C2693 1.327 . S
C2696 C2684 1.349 . S
C2696 H2690 0.950 . S
C2696 C2697 1.327 . S
C2697 H2691 0.950 . S
C2697 C2696 1.327 . S
C2697 C2701 1.429 . S
C2698 C2681 1.574 . S
C2698 H2692 0.949 . S
C2698 C2702 1.368 . S
C2699 C2680 1.429 . S
C2699 C2693 1.429 . S
C2699 C2700 1.523 . S
C2700 C2681 1.368 1_655 S
C2700 C2694 1.368 . S
C2700 C2699 1.523 . S
C2701 C2685 1.429 . S
C2701 C2697 1.429 . S
C2701 C2702 1.523 . S
C2702 C2686 1.368 1_455 S
C2702 C2698 1.368 . S
C2702 C2701 1.523 . S
H2703 C2678 0.950 . S
H2704 C2680 0.950 . S
H2705 C2681 0.949 . S
H2706 C2683 0.950 . S
H2707 C2685 0.950 . S
C2708 C2709 1.349 . S
C2708 C2710 1.327 . S
C2708 H2733 0.950 . S
C2709 C2708 1.349 . S
C2709 C2725 1.349 . S
C2710 C2708 1.327 . S
C2710 C2729 1.429 . S
C2710 H2734 0.950 . S
C2711 C2728 1.574 . S
C2711 C2730 1.368 . S
C2711 H2735 0.949 . S
H2712 C2716 0.949 . S
C2713 C2714 1.349 . S
C2713 C2715 1.327 . S
C2713 H2736 0.950 . S
C2714 C2713 1.349 . S
C2714 C2726 1.349 . S
C2715 C2713 1.327 . S
C2715 C2731 1.429 . S
C2715 H2737 0.950 . S
C2716 H2712 0.949 . S
C2716 C2724 1.574 . S
C2716 C2732 1.368 . S
H2717 C2725 0.950 . S
H2718 C2723 0.950 . S
H2719 C2724 0.949 . S
H2720 C2726 0.950 . S
H2721 C2727 0.950 . S
H2722 C2728 0.949 . S
C2723 H2718 0.950 . S
C2723 C2725 1.327 . S
C2723 C2729 1.429 . S
C2724 C2716 1.574 . S
C2724 H2719 0.949 . S
C2724 C2730 1.368 . S
C2725 C2709 1.349 . S
C2725 H2717 0.950 . S
C2725 C2723 1.327 . S
C2726 C2714 1.349 . S
C2726 H2720 0.950 . S
C2726 C2727 1.327 . S
C2727 H2721 0.950 . S
C2727 C2726 1.327 . S
C2727 C2731 1.429 . S
C2728 C2711 1.574 . S
C2728 H2722 0.949 . S
C2728 C2732 1.368 . S
C2729 C2710 1.429 . S
C2729 C2723 1.429 . S
C2729 C2730 1.523 . S
C2730 C2711 1.368 . S
C2730 C2724 1.368 . S
C2730 C2729 1.523 . S
C2731 C2715 1.429 . S
C2731 C2727 1.429 . S
C2731 C2732 1.523 . S
C2732 C2716 1.368 . S
C2732 C2728 1.368 . S
C2732 C2731 1.523 . S
H2733 C2708 0.950 . S
H2734 C2710 0.950 . S
H2735 C2711 0.949 . S
H2736 C2713 0.950 . S
H2737 C2715 0.950 . S
C2738 C2739 1.349 . S
C2738 C2740 1.327 . S
C2738 H2763 0.950 . S
C2739 C2738 1.349 . S
C2739 C2755 1.349 . S
C2740 C2738 1.327 . S
C2740 C2759 1.429 . S
C2740 H2764 0.950 . S
C2741 C2758 1.574 . S
C2741 C2760 1.368 . S
C2741 H2765 0.949 . S
H2742 C2746 0.949 . S
C2743 C2744 1.349 . S
C2743 C2745 1.327 . S
C2743 H2766 0.950 . S
C2744 C2743 1.349 . S
C2744 C2756 1.349 . S
C2745 C2743 1.327 . S
C2745 C2761 1.429 . S
C2745 H2767 0.950 . S
C2746 H2742 0.949 . S
C2746 C2754 1.574 . S
C2746 C2762 1.368 . S
H2747 C2755 0.950 . S
H2748 C2753 0.950 . S
H2749 C2754 0.949 . S
H2750 C2756 0.950 . S
H2751 C2757 0.950 . S
H2752 C2758 0.949 . S
C2753 H2748 0.950 . S
C2753 C2755 1.327 . S
C2753 C2759 1.429 . S
C2754 C2746 1.574 . S
C2754 H2749 0.949 . S
C2754 C2760 1.368 . S
C2755 C2739 1.349 . S
C2755 H2747 0.950 . S
C2755 C2753 1.327 . S
C2756 C2744 1.349 . S
C2756 H2750 0.950 . S
C2756 C2757 1.327 . S
C2757 H2751 0.950 . S
C2757 C2756 1.327 . S
C2757 C2761 1.429 . S
C2758 C2741 1.574 . S
C2758 H2752 0.949 . S
C2758 C2762 1.368 . S
C2759 C2740 1.429 . S
C2759 C2753 1.429 . S
C2759 C2760 1.523 . S
C2760 C2741 1.368 . S
C2760 C2754 1.368 . S
C2760 C2759 1.523 . S
C2761 C2745 1.429 . S
C2761 C2757 1.429 . S
C2761 C2762 1.523 . S
C2762 C2746 1.368 . S
C2762 C2758 1.368 . S
C2762 C2761 1.523 . S
H2763 C2738 0.950 . S
H2764 C2740 0.950 . S
H2765 C2741 0.949 . S
H2766 C2743 0.950 . S
H2767 C2745 0.950 . S
C2768 C2769 1.349 . S
C2768 C2770 1.327 . S
C2768 H2793 0.950 . S
C2769 C2768 1.349 . S
C2769 C2785 1.349 . S
C2770 C2768 1.327 . S
C2770 C2789 1.429 . S
C2770 H2794 0.950 . S
C2771 C2788 1.574 . S
C2771 C2790 1.368 . S
C2771 H2795 0.949 . S
H2772 C2776 0.949 . S
C2773 C2774 1.349 . S
C2773 C2775 1.327 . S
C2773 H2796 0.950 . S
C2774 C2773 1.349 . S
C2774 C2786 1.349 . S
C2775 C2773 1.327 . S
C2775 C2791 1.429 . S
C2775 H2797 0.950 . S
C2776 H2772 0.949 . S
C2776 C2784 1.574 . S
C2776 C2792 1.368 . S
H2777 C2785 0.950 . S
H2778 C2783 0.950 . S
H2779 C2784 0.949 . S
H2780 C2786 0.950 . S
H2781 C2787 0.950 . S
H2782 C2788 0.949 . S
C2783 H2778 0.950 . S
C2783 C2785 1.327 . S
C2783 C2789 1.429 . S
C2784 C2776 1.574 . S
C2784 H2779 0.949 . S
C2784 C2790 1.368 . S
C2785 C2769 1.349 . S
C2785 H2777 0.950 . S
C2785 C2783 1.327 . S
C2786 C2774 1.349 . S
C2786 H2780 0.950 . S
C2786 C2787 1.327 . S
C2787 H2781 0.950 . S
C2787 C2786 1.327 . S
C2787 C2791 1.429 . S
C2788 C2771 1.574 . S
C2788 H2782 0.949 . S
C2788 C2792 1.368 . S
C2789 C2770 1.429 . S
C2789 C2783 1.429 . S
C2789 C2790 1.523 . S
C2790 C2771 1.368 . S
C2790 C2784 1.368 . S
C2790 C2789 1.523 . S
C2791 C2775 1.429 . S
C2791 C2787 1.429 . S
C2791 C2792 1.523 . S
C2792 C2776 1.368 . S
C2792 C2788 1.368 . S
C2792 C2791 1.523 . S
H2793 C2768 0.950 . S
H2794 C2770 0.950 . S
H2795 C2771 0.949 . S
H2796 C2773 0.950 . S
H2797 C2775 0.950 . S
C2798 C2799 1.349 . S
C2798 C2800 1.327 . S
C2798 H2823 0.950 . S
C2799 C2798 1.349 . S
C2799 C2815 1.349 . S
C2800 C2798 1.327 . S
C2800 C2819 1.429 . S
C2800 H2824 0.950 . S
C2801 C2818 1.574 . S
C2801 C2820 1.368 . S
C2801 H2825 0.949 . S
H2802 C2806 0.949 . S
C2803 C2804 1.349 . S
C2803 C2805 1.327 . S
C2803 H2826 0.950 . S
C2804 C2803 1.349 . S
C2804 C2816 1.349 . S
C2805 C2803 1.327 . S
C2805 C2821 1.429 . S
C2805 H2827 0.950 . S
C2806 H2802 0.949 . S
C2806 C2814 1.574 . S
C2806 C2822 1.368 . S
H2807 C2815 0.950 . S
H2808 C2813 0.950 . S
H2809 C2814 0.949 . S
H2810 C2816 0.950 . S
H2811 C2817 0.950 . S
H2812 C2818 0.949 . S
C2813 H2808 0.950 . S
C2813 C2815 1.327 . S
C2813 C2819 1.429 . S
C2814 C2806 1.574 . S
C2814 H2809 0.949 . S
C2814 C2820 1.368 . S
C2815 C2799 1.349 . S
C2815 H2807 0.950 . S
C2815 C2813 1.327 . S
C2816 C2804 1.349 . S
C2816 H2810 0.950 . S
C2816 C2817 1.327 . S
C2817 H2811 0.950 . S
C2817 C2816 1.327 . S
C2817 C2821 1.429 . S
C2818 C2801 1.574 . S
C2818 H2812 0.949 . S
C2818 C2822 1.368 . S
C2819 C2800 1.429 . S
C2819 C2813 1.429 . S
C2819 C2820 1.523 . S
C2820 C2801 1.368 . S
C2820 C2814 1.368 . S
C2820 C2819 1.523 . S
C2821 C2805 1.429 . S
C2821 C2817 1.429 . S
C2821 C2822 1.523 . S
C2822 C2806 1.368 . S
C2822 C2818 1.368 . S
C2822 C2821 1.523 . S
H2823 C2798 0.950 . S
H2824 C2800 0.950 . S
H2825 C2801 0.949 . S
H2826 C2803 0.950 . S
H2827 C2805 0.950 . S
C2828 C2829 1.349 . S
C2828 C2830 1.317 1_556 S
C2828 H2853 0.950 . S
C2829 C2828 1.349 . S
C2829 C2845 1.349 1_556 S
C2830 C2828 1.317 1_554 S
C2830 C2849 1.441 . S
C2830 H2854 0.947 1_554 S
C2831 C2848 1.574 . S
C2831 C2850 1.368 . S
C2831 H2855 0.949 . S
H2832 C2836 0.949 . S
C2833 C2834 1.349 . S
C2833 C2835 1.327 . S
C2833 H2856 0.950 . S
C2834 C2833 1.349 . S
C2834 C2846 1.349 . S
C2835 C2833 1.327 . S
C2835 C2851 1.429 . S
C2835 H2857 0.950 . S
C2836 H2832 0.949 . S
C2836 C2844 1.574 . S
C2836 C2852 1.368 . S
H2837 C2845 0.950 . S
H2838 C2843 0.950 . S
H2839 C2844 0.949 . S
H2840 C2846 0.950 . S
H2841 C2847 0.950 . S
H2842 C2848 0.949 . S
C2843 H2838 0.950 . S
C2843 C2845 1.327 . S
C2843 C2849 1.429 . S
C2844 C2836 1.574 . S
C2844 H2839 0.949 . S
C2844 C2850 1.368 . S
C2845 C2829 1.349 1_554 S
C2845 H2837 0.950 . S
C2845 C2843 1.327 . S
C2846 C2834 1.349 . S
C2846 H2840 0.950 . S
C2846 C2847 1.327 . S
C2847 H2841 0.950 . S
C2847 C2846 1.327 . S
C2847 C2851 1.429 . S
C2848 C2831 1.574 . S
C2848 H2842 0.949 . S
C2848 C2852 1.368 . S
C2849 C2830 1.441 . S
C2849 C2843 1.429 . S
C2849 C2850 1.523 . S
C2850 C2831 1.368 . S
C2850 C2844 1.368 . S
C2850 C2849 1.523 . S
C2851 C2835 1.429 . S
C2851 C2847 1.429 . S
C2851 C2852 1.523 . S
C2852 C2836 1.368 . S
C2852 C2848 1.368 . S
C2852 C2851 1.523 . S
H2853 C2828 0.950 . S
H2854 C2830 0.947 1_556 S
H2855 C2831 0.949 . S
H2856 C2833 0.950 . S
H2857 C2835 0.950 . S
C2858 C2859 1.349 . S
C2858 C2860 1.327 . S
C2858 H2883 0.950 . S
C2859 C2858 1.349 . S
C2859 C2875 1.349 . S
C2860 C2858 1.327 . S
C2860 C2879 1.429 . S
C2860 H2884 0.950 . S
C2861 C2878 1.571 1_455 S
C2861 C2880 1.371 . S
C2861 H2885 0.948 1_455 S
H2862 C2866 0.949 . S
C2863 C2864 1.349 . S
C2863 C2865 1.327 . S
C2863 H2886 0.950 . S
C2864 C2863 1.349 . S
C2864 C2876 1.349 . S
C2865 C2863 1.327 . S
C2865 C2881 1.429 . S
C2865 H2887 0.950 . S
C2866 H2862 0.949 . S
C2866 C2874 1.574 . S
C2866 C2882 1.368 1_455 S
H2867 C2875 0.950 . S
H2868 C2873 0.950 . S
H2869 C2874 0.949 . S
H2870 C2876 0.950 . S
H2871 C2877 0.950 . S
H2872 C2878 0.949 . S
C2873 H2868 0.950 . S
C2873 C2875 1.327 . S
C2873 C2879 1.429 . S
C2874 C2866 1.574 . S
C2874 H2869 0.949 . S
C2874 C2880 1.368 . S
C2875 C2859 1.349 . S
C2875 H2867 0.950 . S
C2875 C2873 1.327 . S
C2876 C2864 1.349 . S
C2876 H2870 0.950 . S
C2876 C2877 1.327 . S
C2877 H2871 0.950 . S
C2877 C2876 1.327 . S
C2877 C2881 1.429 . S
C2878 C2861 1.571 1_655 S
C2878 H2872 0.949 . S
C2878 C2882 1.368 . S
C2879 C2860 1.429 . S
C2879 C2873 1.429 . S
C2879 C2880 1.523 . S
C2880 C2861 1.371 . S
C2880 C2874 1.368 . S
C2880 C2879 1.523 . S
C2881 C2865 1.429 . S
C2881 C2877 1.429 . S
C2881 C2882 1.523 . S
C2882 C2866 1.368 1_655 S
C2882 C2878 1.368 . S
C2882 C2881 1.523 . S
H2883 C2858 0.950 . S
H2884 C2860 0.950 . S
H2885 C2861 0.948 1_655 S
H2886 C2863 0.950 . S
H2887 C2865 0.950 . S
C2888 C2889 1.349 . S
C2888 C2890 1.327 . S
C2888 H2913 0.950 . S
C2889 C2888 1.349 . S
C2889 C2905 1.349 . S
C2890 C2888 1.327 . S
C2890 C2909 1.429 . S
C2890 H2914 0.950 . S
C2891 C2908 1.574 . S
C2891 C2910 1.368 . S
C2891 H2915 0.949 . S
H2892 C2896 0.949 . S
C2893 C2894 1.349 1_556 S
C2893 C2895 1.327 . S
C2893 H2916 0.950 . S
C2894 C2893 1.349 1_554 S
C2894 C2906 1.349 . S
C2895 C2893 1.327 . S
C2895 C2911 1.429 . S
C2895 H2917 0.950 . S
C2896 H2892 0.949 . S
C2896 C2904 1.574 . S
C2896 C2912 1.368 . S
H2897 C2905 0.950 . S
H2898 C2903 0.950 . S
H2899 C2904 0.949 . S
H2900 C2906 0.950 . S
H2901 C2907 0.950 . S
H2902 C2908 0.949 . S
C2903 H2898 0.950 . S
C2903 C2905 1.327 . S
C2903 C2909 1.429 . S
C2904 C2896 1.574 . S
C2904 H2899 0.949 . S
C2904 C2910 1.368 . S
C2905 C2889 1.349 . S
C2905 H2897 0.950 . S
C2905 C2903 1.327 . S
C2906 C2894 1.349 . S
C2906 H2900 0.950 . S
C2906 C2907 1.327 1_554 S
C2907 H2901 0.950 . S
C2907 C2906 1.327 1_556 S
C2907 C2911 1.429 . S
C2908 C2891 1.574 . S
C2908 H2902 0.949 . S
C2908 C2912 1.368 . S
C2909 C2890 1.429 . S
C2909 C2903 1.429 . S
C2909 C2910 1.523 . S
C2910 C2891 1.368 . S
C2910 C2904 1.368 . S
C2910 C2909 1.523 . S
C2911 C2895 1.429 . S
C2911 C2907 1.429 . S
C2911 C2912 1.523 . S
C2912 C2896 1.368 . S
C2912 C2908 1.368 . S
C2912 C2911 1.523 . S
H2913 C2888 0.950 . S
H2914 C2890 0.950 . S
H2915 C2891 0.949 . S
H2916 C2893 0.950 . S
H2917 C2895 0.950 . S
C2918 C2919 1.349 . S
C2918 C2920 1.327 . S
C2918 H2943 0.950 . S
C2919 C2918 1.349 . S
C2919 C2935 1.349 . S
C2920 C2918 1.327 . S
C2920 C2939 1.429 . S
C2920 H2944 0.950 . S
C2921 C2938 1.574 . S
C2921 C2940 1.368 . S
C2921 H2945 0.949 . S
H2922 C2926 0.949 . S
C2923 C2924 1.349 . S
C2923 C2925 1.327 . S
C2923 H2946 0.950 . S
C2924 C2923 1.349 . S
C2924 C2936 1.349 . S
C2925 C2923 1.327 . S
C2925 C2941 1.429 . S
C2925 H2947 0.950 . S
C2926 H2922 0.949 . S
C2926 C2934 1.574 . S
C2926 C2942 1.368 . S
H2927 C2935 0.950 . S
H2928 C2933 0.950 . S
H2929 C2934 0.949 . S
H2930 C2936 0.950 . S
H2931 C2937 0.950 . S
H2932 C2938 0.949 . S
C2933 H2928 0.950 . S
C2933 C2935 1.327 . S
C2933 C2939 1.429 . S
C2934 C2926 1.574 . S
C2934 H2929 0.949 . S
C2934 C2940 1.368 1_655 S
C2935 C2919 1.349 . S
C2935 H2927 0.950 . S
C2935 C2933 1.327 . S
C2936 C2924 1.349 . S
C2936 H2930 0.950 . S
C2936 C2937 1.327 . S
C2937 H2931 0.950 . S
C2937 C2936 1.327 . S
C2937 C2941 1.429 . S
C2938 C2921 1.574 . S
C2938 H2932 0.949 . S
C2938 C2942 1.368 1_455 S
C2939 C2920 1.429 . S
C2939 C2933 1.429 . S
C2939 C2940 1.523 . S
C2940 C2921 1.368 . S
C2940 C2934 1.368 1_455 S
C2940 C2939 1.523 . S
C2941 C2925 1.429 . S
C2941 C2937 1.429 . S
C2941 C2942 1.523 . S
C2942 C2926 1.368 . S
C2942 C2938 1.368 1_655 S
C2942 C2941 1.523 . S
H2943 C2918 0.950 . S
H2944 C2920 0.950 . S
H2945 C2921 0.949 . S
H2946 C2923 0.950 . S
H2947 C2925 0.950 . S
C2948 C2949 1.349 . S
C2948 C2950 1.327 . S
C2948 H2973 0.950 . S
C2949 C2948 1.349 . S
C2949 C2965 1.349 . S
C2950 C2948 1.327 . S
C2950 C2969 1.429 . S
C2950 H2974 0.950 . S
C2951 C2968 1.574 . S
C2951 C2970 1.368 . S
C2951 H2975 0.949 . S
H2952 C2956 0.949 . S
C2953 C2954 1.349 . S
C2953 C2955 1.327 . S
C2953 H2976 0.950 . S
C2954 C2953 1.349 . S
C2954 C2966 1.349 . S
C2955 C2953 1.327 . S
C2955 C2971 1.429 . S
C2955 H2977 0.950 . S
C2956 H2952 0.949 . S
C2956 C2964 1.574 . S
C2956 C2972 1.368 . S
H2957 C2965 0.950 . S
H2958 C2963 0.950 . S
H2959 C2964 0.949 . S
H2960 C2966 0.950 . S
H2961 C2967 0.950 . S
H2962 C2968 0.949 . S
C2963 H2958 0.950 . S
C2963 C2965 1.327 . S
C2963 C2969 1.429 . S
C2964 C2956 1.574 . S
C2964 H2959 0.949 . S
C2964 C2970 1.368 . S
C2965 C2949 1.349 . S
C2965 H2957 0.950 . S
C2965 C2963 1.327 . S
C2966 C2954 1.349 . S
C2966 H2960 0.950 . S
C2966 C2967 1.327 . S
C2967 H2961 0.950 . S
C2967 C2966 1.327 . S
C2967 C2971 1.429 . S
C2968 C2951 1.574 . S
C2968 H2962 0.949 . S
C2968 C2972 1.368 . S
C2969 C2950 1.429 . S
C2969 C2963 1.429 . S
C2969 C2970 1.523 . S
C2970 C2951 1.368 . S
C2970 C2964 1.368 . S
C2970 C2969 1.523 . S
C2971 C2955 1.429 . S
C2971 C2967 1.429 . S
C2971 C2972 1.523 . S
C2972 C2956 1.368 . S
C2972 C2968 1.368 . S
C2972 C2971 1.523 . S
H2973 C2948 0.950 . S
H2974 C2950 0.950 . S
H2975 C2951 0.949 . S
H2976 C2953 0.950 . S
H2977 C2955 0.950 . S
C2978 C2979 1.349 . S
C2978 C2980 1.327 . S
C2978 H3003 0.950 . S
C2979 C2978 1.349 . S
C2979 C2995 1.349 . S
C2980 C2978 1.327 . S
C2980 C2999 1.429 . S
C2980 H3004 0.950 . S
C2981 C2998 1.574 . S
C2981 C3000 1.368 . S
C2981 H3005 0.949 . S
H2982 C2986 0.949 . S
C2983 C2984 1.349 . S
C2983 C2985 1.327 . S
C2983 H3006 0.950 . S
C2984 C2983 1.349 . S
C2984 C2996 1.349 . S
C2985 C2983 1.327 . S
C2985 C3001 1.429 . S
C2985 H3007 0.950 . S
C2986 H2982 0.949 . S
C2986 C2994 1.574 . S
C2986 C3002 1.368 . S
H2987 C2995 0.950 . S
H2988 C2993 0.950 . S
H2989 C2994 0.949 . S
H2990 C2996 0.950 . S
H2991 C2997 0.950 . S
H2992 C2998 0.949 . S
C2993 H2988 0.950 . S
C2993 C2995 1.327 . S
C2993 C2999 1.429 . S
C2994 C2986 1.574 . S
C2994 H2989 0.949 . S
C2994 C3000 1.368 . S
C2995 C2979 1.349 . S
C2995 H2987 0.950 . S
C2995 C2993 1.327 . S
C2996 C2984 1.349 . S
C2996 H2990 0.950 . S
C2996 C2997 1.327 . S
C2997 H2991 0.950 . S
C2997 C2996 1.327 . S
C2997 C3001 1.429 . S
C2998 C2981 1.574 . S
C2998 H2992 0.949 . S
C2998 C3002 1.368 . S
C2999 C2980 1.429 . S
C2999 C2993 1.429 . S
C2999 C3000 1.523 . S
C3000 C2981 1.368 . S
C3000 C2994 1.368 . S
C3000 C2999 1.523 . S
C3001 C2985 1.429 . S
C3001 C2997 1.429 . S
C3001 C3002 1.523 . S
C3002 C2986 1.368 . S
C3002 C2998 1.368 . S
C3002 C3001 1.523 . S
H3003 C2978 0.950 . S
H3004 C2980 0.950 . S
H3005 C2981 0.949 . S
H3006 C2983 0.950 . S
H3007 C2985 0.950 . S
C3008 C3009 1.349 . S
C3008 C3010 1.327 . S
C3008 H3033 0.950 . S
C3009 C3008 1.349 . S
C3009 C3025 1.349 . S
C3010 C3008 1.327 . S
C3010 C3029 1.429 . S
C3010 H3034 0.950 . S
C3011 C3028 1.574 . S
C3011 C3030 1.368 . S
C3011 H3035 0.949 . S
H3012 C3016 0.949 . S
C3013 C3014 1.349 . S
C3013 C3015 1.327 . S
C3013 H3036 0.950 . S
C3014 C3013 1.349 . S
C3014 C3026 1.349 . S
C3015 C3013 1.327 . S
C3015 C3031 1.429 . S
C3015 H3037 0.950 . S
C3016 H3012 0.949 . S
C3016 C3024 1.574 . S
C3016 C3032 1.368 . S
H3017 C3025 0.950 . S
H3018 C3023 0.950 . S
H3019 C3024 0.949 . S
H3020 C3026 0.950 . S
H3021 C3027 0.950 . S
H3022 C3028 0.949 . S
C3023 H3018 0.950 . S
C3023 C3025 1.327 . S
C3023 C3029 1.429 . S
C3024 C3016 1.574 . S
C3024 H3019 0.949 . S
C3024 C3030 1.368 . S
C3025 C3009 1.349 . S
C3025 H3017 0.950 . S
C3025 C3023 1.327 . S
C3026 C3014 1.349 . S
C3026 H3020 0.950 . S
C3026 C3027 1.327 . S
C3027 H3021 0.950 . S
C3027 C3026 1.327 . S
C3027 C3031 1.429 . S
C3028 C3011 1.574 . S
C3028 H3022 0.949 . S
C3028 C3032 1.368 . S
C3029 C3010 1.429 . S
C3029 C3023 1.429 . S
C3029 C3030 1.523 . S
C3030 C3011 1.368 . S
C3030 C3024 1.368 . S
C3030 C3029 1.523 . S
C3031 C3015 1.429 . S
C3031 C3027 1.429 . S
C3031 C3032 1.523 . S
C3032 C3016 1.368 . S
C3032 C3028 1.368 . S
C3032 C3031 1.523 . S
H3033 C3008 0.950 . S
H3034 C3010 0.950 . S
H3035 C3011 0.949 . S
H3036 C3013 0.950 . S
H3037 C3015 0.950 . S
C3038 C3039 1.349 . S
C3038 C3040 1.327 . S
C3038 H3063 0.950 . S
C3039 C3038 1.349 . S
C3039 C3055 1.349 . S
C3040 C3038 1.327 . S
C3040 C3059 1.429 . S
C3040 H3064 0.950 . S
C3041 C3058 1.574 1_565 S
C3041 C3060 1.368 . S
C3041 H3065 0.949 . S
H3042 C3046 0.949 . S
C3043 C3044 1.349 . S
C3043 C3045 1.327 . S
C3043 H3066 0.950 . S
C3044 C3043 1.349 . S
C3044 C3056 1.349 . S
C3045 C3043 1.327 . S
C3045 C3061 1.429 . S
C3045 H3067 0.950 . S
C3046 H3042 0.949 . S
C3046 C3054 1.610 . S
C3046 C3062 1.368 . S
H3047 C3055 0.950 . S
H3048 C3053 0.950 . S
H3049 C3054 0.942 1_565 S
H3050 C3056 0.950 . S
H3051 C3057 0.950 . S
H3052 C3058 0.949 . S
C3053 H3048 0.950 . S
C3053 C3055 1.327 . S
C3053 C3059 1.429 . S
C3054 C3046 1.610 . S
C3054 H3049 0.942 1_545 S
C3054 C3060 1.342 1_545 S
C3055 C3039 1.349 . S
C3055 H3047 0.950 . S
C3055 C3053 1.327 . S
C3056 C3044 1.349 . S
C3056 H3050 0.950 . S
C3056 C3057 1.327 . S
C3057 H3051 0.950 . S
C3057 C3056 1.327 . S
C3057 C3061 1.429 . S
C3058 C3041 1.574 1_545 S
C3058 H3052 0.949 . S
C3058 C3062 1.368 . S
C3059 C3040 1.429 . S
C3059 C3053 1.429 . S
C3059 C3060 1.523 . S
C3060 C3041 1.368 . S
C3060 C3054 1.342 1_565 S
C3060 C3059 1.523 . S
C3061 C3045 1.429 . S
C3061 C3057 1.429 . S
C3061 C3062 1.523 . S
C3062 C3046 1.368 . S
C3062 C3058 1.368 . S
C3062 C3061 1.523 . S
H3063 C3038 0.950 . S
H3064 C3040 0.950 . S
H3065 C3041 0.949 . S
H3066 C3043 0.950 . S
H3067 C3045 0.950 . S
C3068 C3069 1.349 . S
C3068 C3070 1.327 . S
C3068 H3093 0.950 . S
C3069 C3068 1.349 . S
C3069 C3085 1.349 . S
C3070 C3068 1.327 . S
C3070 C3089 1.429 . S
C3070 H3094 0.950 . S
C3071 C3088 1.574 1_554 S
C3071 C3090 1.368 . S
C3071 H3095 0.949 . S
H3072 C3076 0.949 . S
C3073 C3074 1.349 . S
C3073 C3075 1.327 . S
C3073 H3096 0.950 . S
C3074 C3073 1.349 . S
C3074 C3086 1.349 . S
C3075 C3073 1.327 . S
C3075 C3091 1.429 . S
C3075 H3097 0.950 . S
C3076 H3072 0.949 . S
C3076 C3084 1.574 1_556 S
C3076 C3092 1.368 . S
H3077 C3085 0.950 . S
H3078 C3083 0.950 . S
H3079 C3084 0.949 . S
H3080 C3086 0.950 . S
H3081 C3087 0.950 . S
H3082 C3088 0.949 . S
C3083 H3078 0.950 . S
C3083 C3085 1.327 . S
C3083 C3089 1.429 . S
C3084 C3076 1.574 1_554 S
C3084 H3079 0.949 . S
C3084 C3090 1.368 . S
C3085 C3069 1.349 . S
C3085 H3077 0.950 . S
C3085 C3083 1.327 . S
C3086 C3074 1.349 . S
C3086 H3080 0.950 . S
C3086 C3087 1.327 . S
C3087 H3081 0.950 . S
C3087 C3086 1.327 . S
C3087 C3091 1.429 . S
C3088 C3071 1.574 1_556 S
C3088 H3082 0.949 . S
C3088 C3092 1.368 . S
C3089 C3070 1.429 . S
C3089 C3083 1.429 . S
C3089 C3090 1.523 . S
C3090 C3071 1.368 . S
C3090 C3084 1.368 . S
C3090 C3089 1.523 . S
C3091 C3075 1.429 . S
C3091 C3087 1.429 . S
C3091 C3092 1.523 . S
C3092 C3076 1.368 . S
C3092 C3088 1.368 . S
C3092 C3091 1.523 . S
H3093 C3068 0.950 . S
H3094 C3070 0.950 . S
H3095 C3071 0.949 . S
H3096 C3073 0.950 . S
H3097 C3075 0.950 . S
C3098 C3099 1.349 . S
C3098 C3100 1.327 . S
C3098 H3123 0.950 . S
C3099 C3098 1.349 . S
C3099 C3115 1.349 . S
C3100 C3098 1.327 . S
C3100 C3119 1.429 . S
C3100 H3124 0.950 . S
C3101 C3118 1.574 . S
C3101 C3120 1.368 1_545 S
C3101 H3125 0.949 . S
H3102 C3106 0.949 . S
C3103 C3104 1.349 . S
C3103 C3105 1.327 . S
C3103 H3126 0.950 . S
C3104 C3103 1.349 . S
C3104 C3116 1.349 . S
C3105 C3103 1.327 . S
C3105 C3121 1.429 . S
C3105 H3127 0.950 . S
C3106 H3102 0.949 . S
C3106 C3114 1.574 . S
C3106 C3122 1.368 1_565 S
H3107 C3115 0.950 . S
H3108 C3113 0.939 1_545 S
H3109 C3114 0.949 . S
H3110 C3116 0.950 . S
H3111 C3117 0.950 . S
H3112 C3118 0.949 . S
C3113 H3108 0.939 1_565 S
C3113 C3115 1.327 . S
C3113 C3119 1.429 . S
C3114 C3106 1.574 . S
C3114 H3109 0.949 . S
C3114 C3120 1.368 . S
C3115 C3099 1.349 . S
C3115 H3107 0.950 . S
C3115 C3113 1.327 . S
C3116 C3104 1.349 . S
C3116 H3110 0.950 . S
C3116 C3117 1.327 . S
C3117 H3111 0.950 . S
C3117 C3116 1.327 . S
C3117 C3121 1.429 . S
C3118 C3101 1.574 . S
C3118 H3112 0.949 . S
C3118 C3122 1.368 . S
C3119 C3100 1.429 . S
C3119 C3113 1.429 . S
C3119 C3120 1.523 . S
C3120 C3101 1.368 1_565 S
C3120 C3114 1.368 . S
C3120 C3119 1.523 . S
C3121 C3105 1.429 . S
C3121 C3117 1.429 . S
C3121 C3122 1.523 . S
C3122 C3106 1.368 1_545 S
C3122 C3118 1.368 . S
C3122 C3121 1.523 . S
H3123 C3098 0.950 . S
H3124 C3100 0.950 . S
H3125 C3101 0.949 . S
H3126 C3103 0.950 . S
H3127 C3105 0.950 . S
C3128 C3129 1.349 . S
C3128 C3130 1.327 . S
C3128 H3153 0.950 . S
C3129 C3128 1.349 . S
C3129 C3145 1.349 . S
C3130 C3128 1.327 . S
C3130 C3149 1.429 . S
C3130 H3154 0.950 . S
C3131 C3148 1.574 . S
C3131 C3150 1.368 . S
C3131 H3155 0.949 . S
H3132 C3136 0.949 . S
C3133 C3134 1.349 . S
C3133 C3135 1.327 . S
C3133 H3156 0.950 . S
C3134 C3133 1.349 . S
C3134 C3146 1.349 . S
C3135 C3133 1.327 . S
C3135 C3151 1.429 . S
C3135 H3157 0.950 . S
C3136 H3132 0.949 . S
C3136 C3144 1.574 . S
C3136 C3152 1.368 . S
H3137 C3145 0.950 . S
H3138 C3143 0.950 . S
H3139 C3144 0.949 . S
H3140 C3146 0.950 . S
H3141 C3147 0.950 . S
H3142 C3148 0.949 . S
C3143 H3138 0.950 . S
C3143 C3145 1.327 . S
C3143 C3149 1.429 . S
C3144 C3136 1.574 . S
C3144 H3139 0.949 . S
C3144 C3150 1.368 . S
C3145 C3129 1.349 . S
C3145 H3137 0.950 . S
C3145 C3143 1.327 . S
C3146 C3134 1.349 . S
C3146 H3140 0.950 . S
C3146 C3147 1.327 . S
C3147 H3141 0.950 . S
C3147 C3146 1.327 . S
C3147 C3151 1.429 . S
C3148 C3131 1.574 . S
C3148 H3142 0.949 . S
C3148 C3152 1.368 . S
C3149 C3130 1.429 . S
C3149 C3143 1.429 . S
C3149 C3150 1.523 . S
C3150 C3131 1.368 . S
C3150 C3144 1.368 . S
C3150 C3149 1.523 . S
C3151 C3135 1.429 . S
C3151 C3147 1.429 . S
C3151 C3152 1.523 . S
C3152 C3136 1.368 . S
C3152 C3148 1.368 . S
C3152 C3151 1.523 . S
H3153 C3128 0.950 . S
H3154 C3130 0.950 . S
H3155 C3131 0.949 . S
H3156 C3133 0.950 . S
H3157 C3135 0.950 . S
C3158 C3159 1.349 . S
C3158 C3160 1.327 . S
C3158 H3183 0.950 . S
C3159 C3158 1.349 . S
C3159 C3175 1.349 . S
C3160 C3158 1.327 . S
C3160 C3179 1.429 . S
C3160 H3184 0.950 . S
C3161 C3178 1.574 . S
C3161 C3180 1.368 1_565 S
C3161 H3185 0.949 . S
H3162 C3166 0.949 . S
C3163 C3164 1.349 . S
C3163 C3165 1.327 . S
C3163 H3186 0.950 . S
C3164 C3163 1.349 . S
C3164 C3176 1.349 . S
C3165 C3163 1.327 . S
C3165 C3181 1.429 . S
C3165 H3187 0.950 . S
C3166 H3162 0.949 . S
C3166 C3174 1.574 . S
C3166 C3182 1.368 1_545 S
H3167 C3175 0.950 . S
H3168 C3173 0.950 . S
H3169 C3174 0.949 . S
H3170 C3176 0.950 . S
H3171 C3177 0.950 . S
H3172 C3178 0.949 . S
C3173 H3168 0.950 . S
C3173 C3175 1.327 . S
C3173 C3179 1.429 . S
C3174 C3166 1.574 . S
C3174 H3169 0.949 . S
C3174 C3180 1.368 . S
C3175 C3159 1.349 . S
C3175 H3167 0.950 . S
C3175 C3173 1.327 . S
C3176 C3164 1.349 . S
C3176 H3170 0.950 . S
C3176 C3177 1.327 . S
C3177 H3171 0.950 . S
C3177 C3176 1.327 . S
C3177 C3181 1.429 . S
C3178 C3161 1.574 . S
C3178 H3172 0.949 . S
C3178 C3182 1.368 . S
C3179 C3160 1.429 . S
C3179 C3173 1.429 . S
C3179 C3180 1.523 . S
C3180 C3161 1.368 1_545 S
C3180 C3174 1.368 . S
C3180 C3179 1.523 . S
C3181 C3165 1.429 . S
C3181 C3177 1.429 . S
C3181 C3182 1.523 . S
C3182 C3166 1.368 1_565 S
C3182 C3178 1.368 . S
C3182 C3181 1.523 . S
H3183 C3158 0.950 . S
H3184 C3160 0.950 . S
H3185 C3161 0.949 . S
H3186 C3163 0.950 . S
H3187 C3165 0.950 . S
C3188 C3189 1.349 . S
C3188 C3190 1.327 . S
C3188 H3213 0.950 . S
C3189 C3188 1.349 . S
C3189 C3205 1.349 . S
C3190 C3188 1.327 . S
C3190 C3209 1.429 . S
C3190 H3214 0.950 . S
C3191 C3208 1.574 1_556 S
C3191 C3210 1.368 . S
C3191 H3215 0.949 . S
H3192 C3196 0.949 . S
C3193 C3194 1.349 . S
C3193 C3195 1.327 . S
C3193 H3216 0.950 . S
C3194 C3193 1.349 . S
C3194 C3206 1.349 . S
C3195 C3193 1.327 . S
C3195 C3211 1.429 . S
C3195 H3217 0.950 . S
C3196 H3192 0.949 . S
C3196 C3204 1.574 1_554 S
C3196 C3212 1.368 . S
H3197 C3205 0.950 . S
H3198 C3203 0.950 . S
H3199 C3204 0.949 . S
H3200 C3206 0.950 . S
H3201 C3207 0.950 . S
H3202 C3208 0.949 . S
C3203 H3198 0.950 . S
C3203 C3205 1.327 . S
C3203 C3209 1.429 . S
C3204 C3196 1.574 1_556 S
C3204 H3199 0.949 . S
C3204 C3210 1.368 . S
C3205 C3189 1.349 . S
C3205 H3197 0.950 . S
C3205 C3203 1.327 . S
C3206 C3194 1.349 . S
C3206 H3200 0.950 . S
C3206 C3207 1.327 . S
C3207 H3201 0.950 . S
C3207 C3206 1.327 . S
C3207 C3211 1.429 . S
C3208 C3191 1.574 1_554 S
C3208 H3202 0.949 . S
C3208 C3212 1.368 . S
C3209 C3190 1.429 . S
C3209 C3203 1.429 . S
C3209 C3210 1.523 . S
C3210 C3191 1.368 . S
C3210 C3204 1.368 . S
C3210 C3209 1.523 . S
C3211 C3195 1.429 . S
C3211 C3207 1.429 . S
C3211 C3212 1.523 . S
C3212 C3196 1.368 . S
C3212 C3208 1.368 . S
C3212 C3211 1.523 . S
H3213 C3188 0.950 . S
H3214 C3190 0.950 . S
H3215 C3191 0.949 . S
H3216 C3193 0.950 . S
H3217 C3195 0.950 . S
C3218 C3219 1.349 . S
C3218 C3220 1.327 . S
C3218 H3243 0.950 . S
C3219 C3218 1.349 . S
C3219 C3235 1.349 . S
C3220 C3218 1.327 . S
C3220 C3239 1.429 . S
C3220 H3244 0.950 . S
C3221 C3238 1.574 1_545 S
C3221 C3240 1.368 . S
C3221 H3245 0.949 . S
H3222 C3226 0.949 . S
C3223 C3224 1.349 . S
C3223 C3225 1.327 . S
C3223 H3246 0.950 . S
C3224 C3223 1.349 . S
C3224 C3236 1.349 . S
C3225 C3223 1.327 . S
C3225 C3241 1.429 . S
C3225 H3247 0.950 . S
C3226 H3222 0.949 . S
C3226 C3234 1.574 . S
C3226 C3242 1.368 . S
H3227 C3235 0.950 . S
H3228 C3233 0.950 . S
H3229 C3234 0.949 . S
H3230 C3236 0.950 . S
H3231 C3237 0.950 . S
H3232 C3238 0.954 . S
C3233 H3228 0.950 . S
C3233 C3235 1.327 . S
C3233 C3239 1.429 . S
C3234 C3226 1.574 . S
C3234 H3229 0.949 . S
C3234 C3240 1.368 1_565 S
C3235 C3219 1.349 . S
C3235 H3227 0.950 . S
C3235 C3233 1.327 . S
C3236 C3224 1.349 . S
C3236 H3230 0.950 . S
C3236 C3237 1.327 . S
C3237 H3231 0.950 . S
C3237 C3236 1.327 . S
C3237 C3241 1.429 . S
C3238 C3221 1.574 1_565 S
C3238 H3232 0.954 . S
C3238 C3242 1.368 . S
C3239 C3220 1.429 . S
C3239 C3233 1.429 . S
C3239 C3240 1.523 . S
C3240 C3221 1.368 . S
C3240 C3234 1.368 1_545 S
C3240 C3239 1.523 . S
C3241 C3225 1.429 . S
C3241 C3237 1.429 . S
C3241 C3242 1.523 . S
C3242 C3226 1.368 . S
C3242 C3238 1.368 . S
C3242 C3241 1.523 . S
H3243 C3218 0.950 . S
H3244 C3220 0.950 . S
H3245 C3221 0.949 . S
H3246 C3223 0.950 . S
H3247 C3225 0.950 . S
C3248 C3249 1.349 . S
C3248 C3250 1.327 . S
C3248 H3273 0.950 . S
C3249 C3248 1.349 . S
C3249 C3265 1.349 . S
C3250 C3248 1.327 . S
C3250 C3269 1.429 . S
C3250 H3274 0.950 . S
C3251 C3268 1.574 1_556 S
C3251 C3270 1.368 . S
C3251 H3275 0.949 . S
H3252 C3256 0.949 . S
C3253 C3254 1.349 . S
C3253 C3255 1.327 . S
C3253 H3276 0.950 . S
C3254 C3253 1.349 . S
C3254 C3266 1.349 . S
C3255 C3253 1.327 . S
C3255 C3271 1.429 . S
C3255 H3277 0.950 . S
C3256 H3252 0.949 . S
C3256 C3264 1.574 1_554 S
C3256 C3272 1.368 . S
H3257 C3265 0.950 . S
H3258 C3263 0.950 . S
H3259 C3264 0.949 . S
H3260 C3266 0.950 . S
H3261 C3267 0.950 . S
H3262 C3268 0.949 . S
C3263 H3258 0.950 . S
C3263 C3265 1.327 . S
C3263 C3269 1.429 . S
C3264 C3256 1.574 1_556 S
C3264 H3259 0.949 . S
C3264 C3270 1.368 . S
C3265 C3249 1.349 . S
C3265 H3257 0.950 . S
C3265 C3263 1.327 . S
C3266 C3254 1.349 . S
C3266 H3260 0.950 . S
C3266 C3267 1.327 . S
C3267 H3261 0.950 . S
C3267 C3266 1.327 . S
C3267 C3271 1.429 . S
C3268 C3251 1.574 1_554 S
C3268 H3262 0.949 . S
C3268 C3272 1.368 . S
C3269 C3250 1.429 . S
C3269 C3263 1.429 . S
C3269 C3270 1.523 . S
C3270 C3251 1.368 . S
C3270 C3264 1.368 . S
C3270 C3269 1.523 . S
C3271 C3255 1.429 . S
C3271 C3267 1.429 . S
C3271 C3272 1.523 . S
C3272 C3256 1.368 . S
C3272 C3268 1.368 . S
C3272 C3271 1.523 . S
H3273 C3248 0.950 . S
H3274 C3250 0.950 . S
H3275 C3251 0.949 . S
H3276 C3253 0.950 . S
H3277 C3255 0.950 . S
C3278 C3279 1.349 . S
C3278 C3280 1.327 . S
C3278 H3303 0.950 . S
C3279 C3278 1.349 . S
C3279 C3295 1.349 . S
C3280 C3278 1.327 . S
C3280 C3299 1.429 . S
C3280 H3304 0.950 . S
C3281 C3298 1.574 . S
C3281 C3300 1.368 . S
C3281 H3305 0.949 . S
H3282 C3286 0.949 . S
C3283 C3284 1.349 . S
C3283 C3285 1.327 . S
C3283 H3306 0.950 . S
C3284 C3283 1.349 . S
C3284 C3296 1.349 . S
C3285 C3283 1.327 . S
C3285 C3301 1.429 . S
C3285 H3307 0.950 . S
C3286 H3282 0.949 . S
C3286 C3294 1.574 . S
C3286 C3302 1.368 . S
H3287 C3295 0.950 . S
H3288 C3293 0.950 . S
H3289 C3294 0.949 . S
H3290 C3296 0.950 . S
H3291 C3297 0.950 . S
H3292 C3298 0.949 . S
C3293 H3288 0.950 . S
C3293 C3295 1.327 . S
C3293 C3299 1.429 . S
C3294 C3286 1.574 . S
C3294 H3289 0.949 . S
C3294 C3300 1.368 . S
C3295 C3279 1.349 . S
C3295 H3287 0.950 . S
C3295 C3293 1.327 . S
C3296 C3284 1.349 . S
C3296 H3290 0.950 . S
C3296 C3297 1.327 . S
C3297 H3291 0.950 . S
C3297 C3296 1.327 . S
C3297 C3301 1.429 . S
C3298 C3281 1.574 . S
C3298 H3292 0.949 . S
C3298 C3302 1.368 . S
C3299 C3280 1.429 . S
C3299 C3293 1.429 . S
C3299 C3300 1.523 . S
C3300 C3281 1.368 . S
C3300 C3294 1.368 . S
C3300 C3299 1.523 . S
C3301 C3285 1.429 . S
C3301 C3297 1.429 . S
C3301 C3302 1.523 . S
C3302 C3286 1.368 . S
C3302 C3298 1.368 . S
C3302 C3301 1.523 . S
H3303 C3278 0.950 . S
H3304 C3280 0.950 . S
H3305 C3281 0.949 . S
H3306 C3283 0.950 . S
H3307 C3285 0.950 . S
C3308 C3309 1.349 . S
C3308 C3310 1.327 . S
C3308 H3333 0.950 . S
C3309 C3308 1.349 . S
C3309 C3325 1.349 . S
C3310 C3308 1.327 . S
C3310 C3329 1.429 . S
C3310 H3334 0.950 . S
C3311 C3328 1.574 . S
C3311 C3330 1.368 . S
C3311 H3335 0.949 . S
H3312 C3316 0.949 . S
C3313 C3314 1.349 . S
C3313 C3315 1.327 . S
C3313 H3336 0.950 . S
C3314 C3313 1.349 . S
C3314 C3326 1.349 . S
C3315 C3313 1.327 . S
C3315 C3331 1.429 . S
C3315 H3337 0.950 . S
C3316 H3312 0.949 . S
C3316 C3324 1.574 . S
C3316 C3332 1.368 . S
H3317 C3325 0.950 . S
H3318 C3323 0.950 . S
H3319 C3324 0.949 . S
H3320 C3326 0.950 . S
H3321 C3327 0.950 . S
H3322 C3328 0.949 . S
C3323 H3318 0.950 . S
C3323 C3325 1.327 . S
C3323 C3329 1.429 . S
C3324 C3316 1.574 . S
C3324 H3319 0.949 . S
C3324 C3330 1.368 . S
C3325 C3309 1.349 . S
C3325 H3317 0.950 . S
C3325 C3323 1.327 . S
C3326 C3314 1.349 . S
C3326 H3320 0.950 . S
C3326 C3327 1.327 . S
C3327 H3321 0.950 . S
C3327 C3326 1.327 . S
C3327 C3331 1.429 . S
C3328 C3311 1.574 . S
C3328 H3322 0.949 . S
C3328 C3332 1.368 . S
C3329 C3310 1.429 . S
C3329 C3323 1.429 . S
C3329 C3330 1.523 . S
C3330 C3311 1.368 . S
C3330 C3324 1.368 . S
C3330 C3329 1.523 . S
C3331 C3315 1.429 . S
C3331 C3327 1.429 . S
C3331 C3332 1.523 . S
C3332 C3316 1.368 . S
C3332 C3328 1.368 . S
C3332 C3331 1.523 . S
H3333 C3308 0.950 . S
H3334 C3310 0.950 . S
H3335 C3311 0.949 . S
H3336 C3313 0.950 . S
H3337 C3315 0.950 . S
C3338 C3339 1.349 . S
C3338 C3340 1.327 . S
C3338 H3363 0.950 . S
C3339 C3338 1.349 . S
C3339 C3355 1.349 . S
C3340 C3338 1.327 . S
C3340 C3359 1.429 . S
C3340 H3364 0.950 . S
C3341 C3358 1.574 . S
C3341 C3360 1.368 . S
C3341 H3365 0.949 . S
H3342 C3346 0.949 . S
C3343 C3344 1.349 . S
C3343 C3345 1.327 . S
C3343 H3366 0.950 . S
C3344 C3343 1.349 . S
C3344 C3356 1.349 . S
C3345 C3343 1.327 . S
C3345 C3361 1.429 . S
C3345 H3367 0.950 . S
C3346 H3342 0.949 . S
C3346 C3354 1.574 . S
C3346 C3362 1.368 . S
H3347 C3355 0.950 . S
H3348 C3353 0.950 . S
H3349 C3354 0.949 . S
H3350 C3356 0.950 . S
H3351 C3357 0.950 . S
H3352 C3358 0.949 . S
C3353 H3348 0.950 . S
C3353 C3355 1.327 . S
C3353 C3359 1.429 . S
C3354 C3346 1.574 . S
C3354 H3349 0.949 . S
C3354 C3360 1.368 . S
C3355 C3339 1.349 . S
C3355 H3347 0.950 . S
C3355 C3353 1.327 . S
C3356 C3344 1.349 . S
C3356 H3350 0.950 . S
C3356 C3357 1.327 . S
C3357 H3351 0.950 . S
C3357 C3356 1.327 . S
C3357 C3361 1.429 . S
C3358 C3341 1.574 . S
C3358 H3352 0.949 . S
C3358 C3362 1.368 . S
C3359 C3340 1.429 . S
C3359 C3353 1.429 . S
C3359 C3360 1.523 . S
C3360 C3341 1.368 . S
C3360 C3354 1.368 . S
C3360 C3359 1.523 . S
C3361 C3345 1.429 . S
C3361 C3357 1.429 . S
C3361 C3362 1.523 . S
C3362 C3346 1.368 . S
C3362 C3358 1.368 . S
C3362 C3361 1.523 . S
H3363 C3338 0.950 . S
H3364 C3340 0.950 . S
H3365 C3341 0.949 . S
H3366 C3343 0.950 . S
H3367 C3345 0.950 . S
C3368 C3369 1.349 . S
C3368 C3370 1.327 . S
C3368 H3393 0.950 . S
C3369 C3368 1.349 . S
C3369 C3385 1.349 . S
C3370 C3368 1.327 . S
C3370 C3389 1.429 . S
C3370 H3394 0.950 . S
C3371 C3388 1.574 1_556 S
C3371 C3390 1.368 . S
C3371 H3395 0.949 . S
H3372 C3376 0.949 . S
C3373 C3374 1.349 . S
C3373 C3375 1.327 . S
C3373 H3396 0.950 . S
C3374 C3373 1.349 . S
C3374 C3386 1.349 . S
C3375 C3373 1.327 . S
C3375 C3391 1.429 . S
C3375 H3397 0.950 . S
C3376 H3372 0.949 . S
C3376 C3384 1.574 1_554 S
C3376 C3392 1.368 . S
H3377 C3385 0.950 . S
H3378 C3383 0.950 . S
H3379 C3384 0.949 . S
H3380 C3386 0.950 . S
H3381 C3387 0.950 . S
H3382 C3388 0.949 . S
C3383 H3378 0.950 . S
C3383 C3385 1.327 . S
C3383 C3389 1.429 . S
C3384 C3376 1.574 1_556 S
C3384 H3379 0.949 . S
C3384 C3390 1.368 . S
C3385 C3369 1.349 . S
C3385 H3377 0.950 . S
C3385 C3383 1.327 . S
C3386 C3374 1.349 . S
C3386 H3380 0.950 . S
C3386 C3387 1.327 . S
C3387 H3381 0.950 . S
C3387 C3386 1.327 . S
C3387 C3391 1.429 . S
C3388 C3371 1.574 1_554 S
C3388 H3382 0.949 . S
C3388 C3392 1.368 . S
C3389 C3370 1.429 . S
C3389 C3383 1.429 . S
C3389 C3390 1.523 . S
C3390 C3371 1.368 . S
C3390 C3384 1.368 . S
C3390 C3389 1.523 . S
C3391 C3375 1.429 . S
C3391 C3387 1.429 . S
C3391 C3392 1.523 . S
C3392 C3376 1.368 . S
C3392 C3388 1.368 . S
C3392 C3391 1.523 . S
H3393 C3368 0.950 . S
H3394 C3370 0.950 . S
H3395 C3371 0.949 . S
H3396 C3373 0.950 . S
H3397 C3375 0.950 . S
C3398 C3399 1.349 . S
C3398 C3400 1.327 . S
C3398 H3423 0.950 . S
C3399 C3398 1.349 . S
C3399 C3415 1.349 . S
C3400 C3398 1.327 . S
C3400 C3419 1.429 . S
C3400 H3424 0.950 . S
C3401 C3418 1.574 . S
C3401 C3420 1.368 . S
C3401 H3425 0.949 . S
H3402 C3406 0.949 . S
C3403 C3404 1.349 . S
C3403 C3405 1.327 . S
C3403 H3426 0.950 . S
C3404 C3403 1.349 . S
C3404 C3416 1.349 . S
C3405 C3403 1.327 . S
C3405 C3421 1.429 . S
C3405 H3427 0.950 . S
C3406 H3402 0.949 . S
C3406 C3414 1.574 . S
C3406 C3422 1.368 . S
H3407 C3415 0.950 . S
H3408 C3413 0.950 . S
H3409 C3414 0.949 . S
H3410 C3416 0.950 . S
H3411 C3417 0.950 . S
H3412 C3418 0.949 . S
C3413 H3408 0.950 . S
C3413 C3415 1.327 . S
C3413 C3419 1.429 . S
C3414 C3406 1.574 . S
C3414 H3409 0.949 . S
C3414 C3420 1.368 . S
C3415 C3399 1.349 . S
C3415 H3407 0.950 . S
C3415 C3413 1.327 . S
C3416 C3404 1.349 . S
C3416 H3410 0.950 . S
C3416 C3417 1.327 . S
C3417 H3411 0.950 . S
C3417 C3416 1.327 . S
C3417 C3421 1.429 . S
C3418 C3401 1.574 . S
C3418 H3412 0.949 . S
C3418 C3422 1.368 . S
C3419 C3400 1.429 . S
C3419 C3413 1.429 . S
C3419 C3420 1.523 . S
C3420 C3401 1.368 . S
C3420 C3414 1.368 . S
C3420 C3419 1.523 . S
C3421 C3405 1.429 . S
C3421 C3417 1.429 . S
C3421 C3422 1.523 . S
C3422 C3406 1.368 . S
C3422 C3418 1.368 . S
C3422 C3421 1.523 . S
H3423 C3398 0.950 . S
H3424 C3400 0.950 . S
H3425 C3401 0.949 . S
H3426 C3403 0.950 . S
H3427 C3405 0.950 . S
C3428 C3429 1.349 . S
C3428 C3430 1.327 . S
C3428 H3453 0.950 . S
C3429 C3428 1.349 . S
C3429 C3445 1.349 . S
C3430 C3428 1.327 . S
C3430 C3449 1.429 . S
C3430 H3454 0.950 . S
C3431 C3448 1.574 . S
C3431 C3450 1.368 . S
C3431 H3455 0.949 . S
H3432 C3436 0.949 . S
C3433 C3434 1.349 . S
C3433 C3435 1.327 . S
C3433 H3456 0.950 . S
C3434 C3433 1.349 . S
C3434 C3446 1.349 . S
C3435 C3433 1.327 . S
C3435 C3451 1.429 . S
C3435 H3457 0.950 . S
C3436 H3432 0.949 . S
C3436 C3444 1.574 . S
C3436 C3452 1.368 . S
H3437 C3445 0.950 . S
H3438 C3443 0.950 . S
H3439 C3444 0.949 . S
H3440 C3446 0.950 . S
H3441 C3447 0.950 . S
H3442 C3448 0.949 . S
C3443 H3438 0.950 . S
C3443 C3445 1.327 . S
C3443 C3449 1.429 . S
C3444 C3436 1.574 . S
C3444 H3439 0.949 . S
C3444 C3450 1.368 . S
C3445 C3429 1.349 . S
C3445 H3437 0.950 . S
C3445 C3443 1.327 . S
C3446 C3434 1.349 . S
C3446 H3440 0.950 . S
C3446 C3447 1.327 . S
C3447 H3441 0.950 . S
C3447 C3446 1.327 . S
C3447 C3451 1.429 . S
C3448 C3431 1.574 . S
C3448 H3442 0.949 . S
C3448 C3452 1.368 . S
C3449 C3430 1.429 . S
C3449 C3443 1.429 . S
C3449 C3450 1.523 . S
C3450 C3431 1.368 . S
C3450 C3444 1.368 . S
C3450 C3449 1.523 . S
C3451 C3435 1.429 . S
C3451 C3447 1.429 . S
C3451 C3452 1.523 . S
C3452 C3436 1.368 . S
C3452 C3448 1.368 . S
C3452 C3451 1.523 . S
H3453 C3428 0.950 . S
H3454 C3430 0.950 . S
H3455 C3431 0.949 . S
H3456 C3433 0.950 . S
H3457 C3435 0.950 . S
C3458 C3459 1.349 . S
C3458 C3460 1.327 . S
C3458 H3483 0.950 . S
C3459 C3458 1.349 . S
C3459 C3475 1.349 . S
C3460 C3458 1.327 . S
C3460 C3479 1.429 . S
C3460 H3484 0.950 . S
C3461 C3478 1.574 . S
C3461 C3480 1.368 . S
C3461 H3485 0.949 . S
H3462 C3466 0.949 . S
C3463 C3464 1.349 . S
C3463 C3465 1.327 . S
C3463 H3486 0.950 . S
C3464 C3463 1.349 . S
C3464 C3476 1.349 . S
C3465 C3463 1.327 . S
C3465 C3481 1.429 . S
C3465 H3487 0.950 . S
C3466 H3462 0.949 . S
C3466 C3474 1.574 . S
C3466 C3482 1.368 . S
H3467 C3475 0.950 . S
H3468 C3473 0.950 . S
H3469 C3474 0.949 . S
H3470 C3476 0.950 . S
H3471 C3477 0.950 . S
H3472 C3478 0.949 . S
C3473 H3468 0.950 . S
C3473 C3475 1.327 . S
C3473 C3479 1.429 . S
C3474 C3466 1.574 . S
C3474 H3469 0.949 . S
C3474 C3480 1.368 . S
C3475 C3459 1.349 . S
C3475 H3467 0.950 . S
C3475 C3473 1.327 . S
C3476 C3464 1.349 . S
C3476 H3470 0.950 . S
C3476 C3477 1.327 . S
C3477 H3471 0.950 . S
C3477 C3476 1.327 . S
C3477 C3481 1.429 . S
C3478 C3461 1.574 . S
C3478 H3472 0.949 . S
C3478 C3482 1.368 . S
C3479 C3460 1.429 . S
C3479 C3473 1.429 . S
C3479 C3480 1.523 . S
C3480 C3461 1.368 . S
C3480 C3474 1.368 . S
C3480 C3479 1.523 . S
C3481 C3465 1.429 . S
C3481 C3477 1.429 . S
C3481 C3482 1.523 . S
C3482 C3466 1.368 . S
C3482 C3478 1.368 . S
C3482 C3481 1.523 . S
H3483 C3458 0.950 . S
H3484 C3460 0.950 . S
H3485 C3461 0.949 . S
H3486 C3463 0.950 . S
H3487 C3465 0.950 . S
C1089 C818 0.734 . S
C1094 C2 0.735 . S
C1119 C36 0.262 . S
C1124 C308 0.262 . S
C1149 C70 0.734 . S
C1154 C886 0.735 . S
C1179 C104 0.246 . S
C1184 C376 0.251 . S
C1209 C138 0.734 . S
C1214 C954 0.735 . S
C1239 C172 0.262 . S
C1244 C444 0.262 . S
C1269 C1022 0.734 . S
C1274 C206 0.735 . S
C1299 C240 0.246 . S
C1304 C512 0.251 . S
C1329 C546 0.734 . S
C1334 C274 0.735 . S
C1359 C614 0.735 . S
C1364 C342 0.734 . S
C1389 C682 0.735 . S
C1394 C410 0.734 . S
C1419 C750 0.734 . S
C1424 C478 0.735 . S
C1449 C580 0.246 . S
C1454 C852 0.251 . S
C1479 C648 0.263 . S
C1484 C920 0.263 . S
C1509 C716 0.246 . S
C1514 C988 0.251 . S
C1539 C784 0.263 . S
C1544 C1056 0.263 . S
C1569 C20 1.481 . S
C1574 C258 1.517 . S
C1599 C54 1.458 . S
C1604 C156 1.423 . S
C1629 C190 1.458 . S
C1634 C88 1.423 . S
C1659 C224 1.481 . S
C1664 C122 1.517 . S
C1689 C292 1.481 . S
C1694 C530 1.517 . S
C1719 C428 1.423 . S
C1724 C326 1.458 . S
C1749 C462 1.458 . S
C1754 C360 1.423 . S
C1779 C496 1.481 . S
C1784 C394 1.517 . S
C1809 C564 1.423 . S
C1814 C802 1.458 . S
C1839 C700 1.481 . S
C1844 C598 1.517 . S
C1869 C734 1.516 . S
C1874 C632 1.482 . S
C1899 C666 1.458 . S
C1904 C768 1.423 . S
C1929 C836 1.423 . S
C1934 C1074 1.458 . S
C1959 C870 1.516 . S
C1964 C972 1.482 . S
C1989 C1006 1.516 . S
C1994 C904 1.482 . S
C2019 C938 1.458 . S
C2024 C1040 1.423 . S
C2049 C9 0.987 . S
C2054 C1053 1.009 . S
C2079 C543 0.550 . S
C2084 C43 0.556 . S
C2109 C77 1.002 . S
C2114 C985 1.025 . S
C2139 C111 0.864 . S
C2144 C475 0.871 . S
C2169 C917 1.025 . S
C2174 C145 1.002 . S
C2199 C179 0.559 . S
C2204 C407 0.548 . S
C2229 C213 0.987 . S
C2234 C849 1.009 . S
C2259 C247 0.864 . S
C2264 C339 0.871 . S
C2289 C781 1.009 . S
C2294 C281 0.987 . S
C2319 C271 0.550 . S
C2324 C315 0.556 . S
C2349 C349 1.002 . S
C2354 C713 1.025 . S
C2379 C203 0.868 . S
C2384 C383 0.867 . S
C2409 C417 1.002 . S
C2414 C645 1.025 . S
C2439 C451 0.559 . S
C2444 C135 0.548 . S
C2469 C577 1.009 . S
C2474 C485 0.987 . S
C2499 C67 0.868 . S
C2504 C519 0.867 . S
C2529 C509 1.025 . S
C2534 C553 1.002 . S
C2559 C587 0.864 . S
C2564 C1087 0.871 . S
C2589 C621 0.987 . S
C2594 C441 1.009 . S
C2619 C655 0.559 . S
C2624 C1019 0.548 . S
C2649 C373 1.009 . S
C2654 C689 0.987 . S
C2679 C723 0.864 . S
C2684 C951 0.871 . S
C2709 C757 1.002 . S
C2714 C305 1.025 . S
C2739 C791 0.559 . S
C2744 C883 0.548 . S
C2769 C825 1.002 . S
C2774 C237 1.025 . S
C2799 C859 0.864 . S
C2804 C815 0.871 . S
C2829 C893 0.987 . S
C2834 C169 1.009 . S
C2859 C927 0.559 . S
C2864 C747 0.548 . S
C2889 C101 1.009 . S
C2894 C961 0.987 . S
C2919 C995 0.864 . S
C2924 C679 0.871 . S
C2949 C1029 1.002 . S
C2954 C33 1.025 . S
C2979 C611 0.550 . S
C2984 C1063 0.556 . S
C3009 C5 1.713 . S
C3014 C209 1.713 . S
C3039 C39 1.124 . S
C3044 C243 1.122 . S
C3069 C141 1.686 . S
C3074 C73 1.686 . S
C3099 C175 1.124 . S
C3104 C107 1.122 . S
C3129 C481 1.713 . S
C3134 C277 1.713 . S
C3159 C311 1.124 . S
C3164 C515 1.122 . S
C3189 C413 1.686 . S
C3194 C345 1.686 . S
C3219 C447 1.124 . S
C3224 C379 1.122 . S
C3249 C549 1.686 . S
C3254 C753 1.686 . S
C3279 C583 1.125 . S
C3284 C787 1.121 . S
C3309 C685 1.712 . S
C3314 C617 1.712 . S
C3339 C651 1.124 . S
C3344 C719 1.122 . S
C3369 C1025 1.686 . S
C3374 C821 1.686 . S
C3399 C1059 1.124 . S
C3404 C855 1.122 . S
C3429 C889 1.712 . S
C3434 C957 1.712 . S
C3459 C991 1.125 . S
C3464 C923 1.121 . S
