# Generated by pormake.
# Topology umo, (4)-cn, num edge types: 1
# Building blocks:
#     Node 0, Type 0, BuildingBlock: ESEHIV_clean_sbu_0, # of connection points: 4
#     Node 1, Type 0, BuildingBlock: ESEHIV_clean_sbu_0, # of connection points: 4
#     Node 2, Type 0, BuildingBlock: ESEHIV_clean_sbu_0, # of connection points: 4
#     Node 3, Type 0, BuildingBlock: ESEHIV_clean_sbu_0, # of connection points: 4
#     Node 4, Type 0, BuildingBlock: ESEHIV_clean_sbu_0, # of connection points: 4
#     Node 5, Type 0, BuildingBlock: ESEHIV_clean_sbu_0, # of connection points: 4
#     Node 6, Type 0, BuildingBlock: ESEHIV_clean_sbu_0, # of connection points: 4
#     Node 7, Type 0, BuildingBlock: ESEHIV_clean_sbu_0, # of connection points: 4
#     Node 8, Type 0, BuildingBlock: ESEHIV_clean_sbu_0, # of connection points: 4
#     Node 9, Type 0, BuildingBlock: ESEHIV_clean_sbu_0, # of connection points: 4
#     Node 10, Type 0, BuildingBlock: ESEHIV_clean_sbu_0, # of connection points: 4
#     Node 11, Type 0, BuildingBlock: ESEHIV_clean_sbu_0, # of connection points: 4
#     Edge 12, Type (0, 0), BuildingBlock: TEMPAE_clean_linker_10, # of connection points: 2
#     Edge 13, Type (0, 0), BuildingBlock: TEMPAE_clean_linker_10, # of connection points: 2
#     Edge 14, Type (0, 0), BuildingBlock: TEMPAE_clean_linker_10, # of connection points: 2
#     Edge 15, Type (0, 0), BuildingBlock: TEMPAE_clean_linker_10, # of connection points: 2
#     Edge 16, Type (0, 0), BuildingBlock: TEMPAE_clean_linker_10, # of connection points: 2
#     Edge 17, Type (0, 0), BuildingBlock: TEMPAE_clean_linker_10, # of connection points: 2
#     Edge 18, Type (0, 0), BuildingBlock: TEMPAE_clean_linker_10, # of connection points: 2
#     Edge 19, Type (0, 0), BuildingBlock: TEMPAE_clean_linker_10, # of connection points: 2
#     Edge 20, Type (0, 0), BuildingBlock: TEMPAE_clean_linker_10, # of connection points: 2
#     Edge 21, Type (0, 0), BuildingBlock: TEMPAE_clean_linker_10, # of connection points: 2
#     Edge 22, Type (0, 0), BuildingBlock: TEMPAE_clean_linker_10, # of connection points: 2
#     Edge 23, Type (0, 0), BuildingBlock: TEMPAE_clean_linker_10, # of connection points: 2
#     Edge 24, Type (0, 0), BuildingBlock: TEMPAE_clean_linker_10, # of connection points: 2
#     Edge 25, Type (0, 0), BuildingBlock: TEMPAE_clean_linker_10, # of connection points: 2
#     Edge 26, Type (0, 0), BuildingBlock: TEMPAE_clean_linker_10, # of connection points: 2
#     Edge 27, Type (0, 0), BuildingBlock: TEMPAE_clean_linker_10, # of connection points: 2
#     Edge 28, Type (0, 0), BuildingBlock: TEMPAE_clean_linker_10, # of connection points: 2
#     Edge 29, Type (0, 0), BuildingBlock: TEMPAE_clean_linker_10, # of connection points: 2
#     Edge 30, Type (0, 0), BuildingBlock: TEMPAE_clean_linker_10, # of connection points: 2
#     Edge 31, Type (0, 0), BuildingBlock: TEMPAE_clean_linker_10, # of connection points: 2
#     Edge 32, Type (0, 0), BuildingBlock: TEMPAE_clean_linker_10, # of connection points: 2
#     Edge 33, Type (0, 0), BuildingBlock: TEMPAE_clean_linker_10, # of connection points: 2
#     Edge 34, Type (0, 0), BuildingBlock: TEMPAE_clean_linker_10, # of connection points: 2
#     Edge 35, Type (0, 0), BuildingBlock: TEMPAE_clean_linker_10, # of connection points: 2
# Relax obj value: 0.179
# Max RMSD: 0.176
# Mean RMSD: 0.176
data_MOF--net-umo--node1-ESEHIV_clean_sbu_0--edge1-TEMPAE_clean_linker_10
_symmetry_space_group_name_H-M    P1
_symmetry_Int_Tables_number       1
_symmetry_cell_setting            triclinic
loop_
_symmetry_equiv_pos_as_xyz
'x, y, z'
_cell_length_a     57.818931
_cell_length_b     57.756455
_cell_length_c     35.536239
_cell_angle_alpha  90.058181
_cell_angle_beta   89.936513
_cell_angle_gamma 119.83272
loop_
_atom_site_label
_atom_site_type_symbol
_atom_site_fract_x
_atom_site_fract_y
_atom_site_fract_z
_atom_type_partial_charge
Cu0 Cu 0.19097 0.55364 0.38875 0.0
N1 N 0.21983 0.55153 0.40891 0.0
N2 N 0.26304 0.57324 0.42592 0.0
C3 C 0.24477 0.57096 0.40037 0.0
C4 C 0.24896 0.554 0.45159 0.0
C5 C 0.22231 0.54071 0.44111 0.0
O6 O 0.20518 0.56752 0.33836 0.0
C7 C 0.17504 0.56425 0.45606 0.0
O8 O 0.16487 0.53826 0.4575 0.0
H9 H 0.24886 0.5855 0.37846 0.0
H10 H 0.20579 0.52626 0.45784 0.0
N11 N 0.15759 0.52162 0.38461 0.0
N12 N 0.11332 0.49464 0.37659 0.0
C13 C 0.13401 0.5201 0.37637 0.0
C14 C 0.15172 0.49625 0.39027 0.0
C15 C 0.12461 0.47965 0.38528 0.0
C16 C 0.20351 0.55003 0.31473 0.0
O17 O 0.18689 0.52481 0.32214 0.0
H18 H 0.13209 0.53752 0.37126 0.0
H19 H 0.16612 0.49026 0.39767 0.0
O20 O 0.18685 0.57652 0.42587 0.0
H21 H 0.25692 0.55101 0.47751 0.0
H22 H 0.11415 0.45814 0.38774 0.0
Cu23 Cu 0.61787 0.18118 0.53467 0.0
N24 N 0.60725 0.20703 0.52708 0.0
N25 N 0.60963 0.24716 0.52343 0.0
C26 C 0.62339 0.23383 0.52491 0.0
C27 C 0.58372 0.22778 0.52422 0.0
C28 C 0.58235 0.20324 0.52656 0.0
O29 O 0.6517 0.19476 0.50695 0.0
C30 C 0.62687 0.19552 0.61307 0.0
O31 O 0.63759 0.22016 0.60083 0.0
H32 H 0.64484 0.24347 0.52625 0.0
H33 H 0.56441 0.184 0.52883 0.0
N34 N 0.59296 0.1475 0.51373 0.0
N35 N 0.57006 0.10343 0.49987 0.0
C36 C 0.58896 0.12281 0.5221 0.0
C37 C 0.57597 0.14351 0.48541 0.0
C38 C 0.56192 0.11665 0.47694 0.0
C39 C 0.67349 0.21549 0.51615 0.0
O40 O 0.67548 0.22609 0.5495 0.0
H41 H 0.60013 0.11924 0.54349 0.0
H42 H 0.57409 0.15916 0.47155 0.0
O43 O 0.61878 0.17639 0.58943 0.0
H44 H 0.5668 0.23096 0.52373 0.0
H45 H 0.54669 0.10761 0.45552 0.0
Cu46 Cu 0.45974 0.6411 0.7119 0.0
N47 N 0.46294 0.67288 0.73101 0.0
N48 N 0.44147 0.69564 0.74288 0.0
C49 C 0.44115 0.67215 0.74606 0.0
C50 C 0.46492 0.71215 0.72594 0.0
C51 C 0.47793 0.69802 0.71824 0.0
O52 O 0.43705 0.63732 0.66878 0.0
C53 C 0.4554 0.62101 0.7829 0.0
O54 O 0.4791 0.64253 0.7835 0.0
H55 H 0.42401 0.65373 0.7552 0.0
H56 H 0.49516 0.70475 0.70029 0.0
N57 N 0.49224 0.64206 0.69846 0.0
N58 N 0.52221 0.62894 0.68501 0.0
C59 C 0.49725 0.62141 0.69764 0.0
C60 C 0.51506 0.6633 0.68654 0.0
C61 C 0.53332 0.6553 0.67805 0.0
C62 C 0.44812 0.65241 0.64043 0.0
O63 O 0.47363 0.66137 0.63482 0.0
H64 H 0.48269 0.60116 0.70535 0.0
H65 H 0.5182 0.68325 0.68354 0.0
O66 O 0.44232 0.61494 0.75213 0.0
H67 H 0.47091 0.73207 0.71602 0.0
H68 H 0.55337 0.66801 0.66767 0.0
Cu69 Cu 0.85133 0.46977 0.89046 0.0
N70 N 0.84716 0.43667 0.877 0.0
N71 N 0.82625 0.3921 0.87837 0.0
C72 C 0.82357 0.41396 0.87958 0.0
C73 C 0.85264 0.40135 0.8746 0.0
C74 C 0.86552 0.42893 0.87358 0.0
O75 O 0.82232 0.47233 0.86468 0.0
C76 C 0.86515 0.46447 0.96426 0.0
O77 O 0.88516 0.46509 0.94586 0.0
H78 H 0.80506 0.41351 0.88596 0.0
H79 H 0.88684 0.44227 0.87348 0.0
N80 N 0.88415 0.49881 0.87355 0.0
N81 N 0.92668 0.5273 0.85666 0.0
C82 C 0.90971 0.5037 0.87358 0.0
C83 C 0.8853 0.5201 0.8564 0.0
C84 C 0.91119 0.53752 0.84605 0.0
C85 C 0.79801 0.46182 0.87513 0.0
O86 O 0.79091 0.44934 0.9076 0.0
H87 H 0.91572 0.49017 0.88505 0.0
H88 H 0.86827 0.52272 0.85158 0.0
O89 O 0.84832 0.46819 0.94577 0.0
H90 H 0.86202 0.38914 0.87471 0.0
H91 H 0.9181 0.55649 0.83208 0.0
Cu92 Cu 0.40283 0.83344 0.0561 0.0
N93 N 0.43143 0.82704 0.05547 0.0
N94 N 0.45097 0.80229 0.06355 0.0
C95 C 0.42828 0.80232 0.05475 0.0
C96 C 0.46922 0.82811 0.06991 0.0
C97 C 0.45709 0.84335 0.06497 0.0
O98 O 0.37506 0.80514 0.02511 0.0
C99 C 0.39328 0.84803 0.13016 0.0
O100 O 0.39941 0.87123 0.11541 0.0
H101 H 0.4091 0.78447 0.05109 0.0
H102 H 0.46587 0.86445 0.07059 0.0
N103 N 0.41156 0.86714 0.03607 0.0
N104 N 0.43061 0.91085 0.02232 0.0
C105 C 0.43339 0.89163 0.04026 0.0
C106 C 0.39471 0.87115 0.01464 0.0
C107 C 0.40629 0.89788 1.00619 0.0
C108 C 0.35039 0.79192 0.03356 0.0
O109 O 0.34211 0.79786 0.06461 0.0
H110 H 0.45051 0.89545 0.05707 0.0
H111 H 0.37509 0.85562 1.00614 0.0
O112 O 0.3922 0.82969 0.10901 0.0
H113 H 0.48949 0.83533 0.07919 0.0
H114 H 0.39743 0.90706 0.98938 0.0
Cu115 Cu 0.5505 0.36737 0.23847 0.0
N116 N 0.54955 0.33833 0.26353 0.0
N117 N 0.58058 0.33187 0.29244 0.0
C118 C 0.57211 0.33704 0.25973 0.0
C119 C 0.56124 0.32747 0.31746 0.0
C120 C 0.54221 0.33145 0.29965 0.0
O121 O 0.56847 0.36783 0.19091 0.0
C122 C 0.55296 0.39312 0.30445 0.0
O123 O 0.52719 0.378 0.29927 0.0
H124 H 0.58443 0.34431 0.23488 0.0
H125 H 0.52685 0.33362 0.31383 0.0
N126 N 0.51786 0.36603 0.22668 0.0
N127 N 0.48993 0.38105 0.21098 0.0
C128 C 0.51561 0.38733 0.21616 0.0
C129 C 0.4927 0.34549 0.22832 0.0
C130 C 0.4755 0.35464 0.21852 0.0
C131 C 0.55354 0.34933 0.16783 0.0
O132 O 0.52798 0.33512 0.17539 0.0
H133 H 0.5326 0.40713 0.21264 0.0
H134 H 0.48724 0.32539 0.23662 0.0
O135 O 0.56858 0.39494 0.27756 0.0
H136 H 0.56255 0.3253 0.34751 0.0
H137 H 0.45396 0.34285 0.21807 0.0
Cu138 Cu 0.44232 0.82577 0.47077 0.0
N139 N 0.44757 0.79821 0.45275 0.0
N140 N 0.42734 0.75369 0.44402 0.0
C141 C 0.42619 0.7763 0.43872 0.0
C142 C 0.45113 0.76201 0.46092 0.0
C143 C 0.46332 0.78929 0.46678 0.0
O144 O 0.42201 0.80736 0.51582 0.0
C145 C 0.43754 0.84072 0.40032 0.0
O146 O 0.46252 0.84639 0.40216 0.0
H147 H 0.40869 0.77672 0.429 0.0
H148 H 0.48045 0.80085 0.48455 0.0
N149 N 0.47345 0.85913 0.48137 0.0
N150 N 0.50058 0.90358 0.48912 0.0
C151 C 0.47517 0.88342 0.48362 0.0
C152 C 0.49864 0.86414 0.48559 0.0
C153 C 0.51525 0.89126 0.49048 0.0
C154 C 0.43546 0.80582 0.54322 0.0
O155 O 0.4606 0.82441 0.54619 0.0
H156 H 0.45816 0.88626 0.48014 0.0
H157 H 0.50465 0.84918 0.48474 0.0
O158 O 0.42315 0.83147 0.42978 0.0
H159 H 0.458 0.74908 0.47199 0.0
H160 H 0.53657 0.90104 0.49477 0.0
Cu161 Cu 0.64352 0.47376 0.62872 0.0
N162 N 0.66865 0.47228 0.59696 0.0
N163 N 0.67487 0.44255 0.56368 0.0
C164 C 0.66927 0.44921 0.5976 0.0
C165 C 0.67882 0.46287 0.54079 0.0
C166 C 0.67489 0.48108 0.56128 0.0
O167 O 0.65063 0.46163 0.67726 0.0
C168 C 0.60927 0.46195 0.5695 0.0
O169 O 0.62296 0.4881 0.56797 0.0
H170 H 0.6612 0.43535 0.62089 0.0
H171 H 0.67295 0.49731 0.5496 0.0
N172 N 0.64434 0.50701 0.63531 0.0
N173 N 0.62978 0.53613 0.64642 0.0
C174 C 0.62325 0.51011 0.64459 0.0
C175 C 0.66486 0.53201 0.63091 0.0
C176 C 0.65603 0.5499 0.638 0.0
C177 C 0.67148 0.47902 0.69473 0.0
O178 O 0.68412 0.50348 0.68157 0.0
H179 H 0.60342 0.49353 0.64968 0.0
H180 H 0.68481 0.5369 0.62276 0.0
O181 O 0.61203 0.45033 0.59844 0.0
H182 H 0.68181 0.46339 0.51067 0.0
H183 H 0.66791 0.57142 0.63613 0.0
Cu184 Cu 0.2004 0.6507 0.79217 0.0
N185 N 0.23103 0.68334 0.78119 0.0
N186 N 0.27513 0.70727 0.7707 0.0
C187 C 0.25528 0.68674 0.7895 0.0
C188 C 0.26289 0.71748 0.74964 0.0
C189 C 0.23566 0.7027 0.75622 0.0
O190 O 0.21237 0.64043 0.83743 0.0
C191 C 0.18576 0.63676 0.71851 0.0
O192 O 0.17965 0.65559 0.72394 0.0
H193 H 0.25806 0.67256 0.80596 0.0
H194 H 0.22034 0.70457 0.74142 0.0
N195 N 0.16877 0.65161 0.80264 0.0
N196 N 0.12555 0.63678 0.81614 0.0
C197 C 0.1443 0.63002 0.80767 0.0
C198 C 0.16543 0.67282 0.80787 0.0
C199 C 0.13892 0.66379 0.81618 0.0
C200 C 0.20908 0.64867 0.86924 0.0
O201 O 0.18777 0.65091 0.87398 0.0
H202 H 0.14054 0.60973 0.80594 0.0
H203 H 0.18121 0.6934 0.80602 0.0
O204 O 0.19456 0.62949 0.74643 0.0
H205 H 0.27269 0.73337 0.72924 0.0
H206 H 0.13019 0.67627 0.82149 0.0
Cu207 Cu 0.58911 0.18649 0.96862 0.0
N208 N 0.62517 0.19654 0.97177 0.0
N209 N 0.6692 0.22179 0.96346 0.0
C210 C 0.64612 0.22156 0.97039 0.0
C211 C 0.66259 0.1959 0.96104 0.0
C212 C 0.63543 0.18039 0.96625 0.0
O213 O 0.58327 0.21363 0.99455 0.0
C214 C 0.59516 0.19763 0.88991 0.0
O215 O 0.61575 0.22021 0.90059 0.0
H216 H 0.6442 0.23924 0.97086 0.0
H217 H 0.62371 0.15893 0.96337 0.0
N218 N 0.56891 0.15416 0.99501 0.0
N219 N 0.54583 0.11108 0.0129 0.0
C220 C 0.55988 0.12844 0.98482 0.0
C221 C 0.56022 0.15295 0.03042 0.0
C222 C 0.54606 0.12669 0.04143 0.0
C223 C 0.59171 0.23794 0.98538 0.0
O224 O 0.6045 0.24697 0.95347 0.0
H225 H 0.5637 0.12266 0.95756 0.0
H226 H 0.56378 0.17012 0.04704 0.0
O227 O 0.58018 0.18084 0.91469 0.0
H228 H 0.67616 0.18875 0.95395 0.0
H229 H 0.53618 0.1197 0.06829 0.0
Cu230 Cu 0.38829 0.55017 0.11744 0.0
N231 N 0.41783 0.58374 0.12617 0.0
N232 N 0.44067 0.62837 0.12432 0.0
C233 C 0.41639 0.60629 0.12627 0.0
C234 C 0.45816 0.61932 0.12308 0.0
C235 C 0.44398 0.59172 0.12419 0.0
O236 O 0.35762 0.55134 0.13921 0.0
C237 C 0.3995 0.54254 0.04164 0.0
O238 O 0.41636 0.53647 0.05727 0.0
H239 H 0.39775 0.60639 0.12454 0.0
H240 H 0.45207 0.5785 0.12112 0.0
N241 N 0.39127 0.52183 0.13939 0.0
N242 N 0.40475 0.49356 0.15993 0.0
C243 C 0.41145 0.51621 0.14026 0.0
C244 C 0.37133 0.50197 0.15888 0.0
C245 C 0.3795 0.4847 0.17156 0.0
C246 C 0.35644 0.55461 0.17453 0.0
O247 O 0.37548 0.55599 0.19622 0.0
H248 H 0.43068 0.52853 0.1272 0.0
H249 H 0.35199 0.50012 0.16348 0.0
O250 O 0.38444 0.54724 0.0627 0.0
H251 H 0.47953 0.63166 0.11989 0.0
H252 H 0.36752 0.46667 0.1876 0.0
Cu253 Cu 0.83928 0.39132 0.31122 0.0
N254 N 0.8153 0.40152 0.33083 0.0
N255 N 0.77461 0.39644 0.34063 0.0
C256 C 0.791 0.39375 0.31608 0.0
C257 C 0.78957 0.40746 0.37163 0.0
C258 C 0.81455 0.41047 0.36558 0.0
O259 O 0.82137 0.35298 0.32317 0.0
C260 C 0.83862 0.38784 0.22852 0.0
O261 O 0.82831 0.36192 0.23206 0.0
H262 H 0.785 0.385 0.28842 0.0
H263 H 0.83025 0.41692 0.38621 0.0
N264 N 0.87213 0.40769 0.33779 0.0
N265 N 0.91552 0.42682 0.35409 0.0
C266 C 0.89773 0.41958 0.3253 0.0
C267 C 0.87398 0.40699 0.37545 0.0
C268 C 0.90041 0.41885 0.38552 0.0
C269 C 0.79727 0.33668 0.31402 0.0
O270 O 0.78634 0.34312 0.28662 0.0
H271 H 0.90316 0.42251 0.29582 0.0
H272 H 0.85714 0.39749 0.39436 0.0
O273 O 0.84495 0.40235 0.25799 0.0
H274 H 0.78241 0.41119 0.39782 0.0
H275 H 0.90787 0.42044 0.41389 0.0
C276 C 0.30388 0.60959 0.39652 0.0
C277 C 0.28992 0.59578 0.42897 0.0
C278 C 0.32806 0.63393 0.39889 0.0
C279 C 0.33882 0.64493 0.43461 0.0
C280 C 0.32571 0.63028 0.46745 0.0
C281 C 0.30147 0.60598 0.46425 0.0
C282 C 0.34128 0.64861 0.36308 0.0
C283 C 0.3364 0.64099 0.50614 0.0
C284 C 0.40998 0.70468 0.43941 0.0
C285 C 0.40536 0.72638 0.44091 0.0
C286 C 0.38866 0.67809 0.43779 0.0
C287 C 0.36197 0.6729 0.43751 0.0
C288 C 0.3572 0.69467 0.43914 0.0
C289 C 0.37877 0.72093 0.44092 0.0
C290 C 0.3947 0.65553 0.43641 0.0
C291 C 0.32915 0.69024 0.43924 0.0
H292 H 0.29542 0.60171 0.36911 0.0
H293 H 0.29092 0.59571 0.48955 0.0
H294 H 0.33891 0.66645 0.36044 0.0
H295 H 0.36297 0.65567 0.36373 0.0
H296 H 0.33255 0.63594 0.33775 0.0
H297 H 0.32654 0.62555 0.52829 0.0
H298 H 0.35819 0.6487 0.50736 0.0
H299 H 0.33293 0.65781 0.51255 0.0
H300 H 0.43029 0.70846 0.43939 0.0
H301 H 0.37455 0.73712 0.44321 0.0
H302 H 0.38641 0.64377 0.41026 0.0
H303 H 0.38497 0.64179 0.46044 0.0
H304 H 0.41645 0.66276 0.43741 0.0
H305 H 0.31846 0.67924 0.41351 0.0
H306 H 0.32873 0.70925 0.44048 0.0
H307 H 0.318 0.67782 0.46378 0.0
C308 C 0.60469 0.28674 0.53727 0.0
C309 C 0.62036 0.27594 0.52449 0.0
C310 C 0.61512 0.31451 0.54032 0.0
C311 C 0.64207 0.3323 0.53059 0.0
C312 C 0.65789 0.32166 0.51679 0.0
C313 C 0.64689 0.29374 0.51387 0.0
C314 C 0.59738 0.32482 0.55491 0.0
C315 C 0.68661 0.33976 0.50572 0.0
C316 C 0.6603 0.40531 0.51743 0.0
C317 C 0.67003 0.41614 0.55328 0.0
C318 C 0.65233 0.37845 0.50897 0.0
C319 C 0.65383 0.3618 0.53705 0.0
C320 C 0.66475 0.37296 0.57265 0.0
C321 C 0.67274 0.39985 0.58022 0.0
C322 C 0.64124 0.36762 0.47043 0.0
C323 C 0.66703 0.35619 0.6034 0.0
H324 H 0.58432 0.27351 0.54595 0.0
H325 H 0.65919 0.2859 0.5033 0.0
H326 H 0.60544 0.33559 0.58185 0.0
H327 H 0.59706 0.33927 0.53466 0.0
H328 H 0.57658 0.30856 0.5597 0.0
H329 H 0.69604 0.3285 0.49437 0.0
H330 H 0.68798 0.35426 0.48415 0.0
H331 H 0.6982 0.35144 0.53052 0.0
H332 H 0.65779 0.41742 0.49638 0.0
H333 H 0.6806 0.40804 0.60775 0.0
H334 H 0.61953 0.35342 0.47264 0.0
H335 H 0.6506 0.35643 0.45873 0.0
H336 H 0.64443 0.38368 0.45037 0.0
H337 H 0.64682 0.34043 0.61211 0.0
H338 H 0.67764 0.36822 0.62857 0.0
H339 H 0.67777 0.34604 0.59288 0.0
C340 C 0.31456 0.70839 0.79942 0.0
C341 C 0.30223 0.71229 0.76796 0.0
C342 C 0.33898 0.70872 0.79618 0.0
C343 C 0.35147 0.71293 0.76052 0.0
C344 C 0.33986 0.7184 0.72905 0.0
C345 C 0.31543 0.71805 0.73317 0.0
C346 C 0.3508 0.70332 0.83064 0.0
C347 C 0.35205 0.7227 0.69034 0.0
C348 C 0.42314 0.72585 0.75489 0.0
C349 C 0.41908 0.70013 0.74801 0.0
C350 C 0.40145 0.73043 0.75895 0.0
C351 C 0.37499 0.70885 0.75566 0.0
C352 C 0.37081 0.68294 0.74828 0.0
C353 C 0.39277 0.6789 0.74475 0.0
C354 C 0.40683 0.75836 0.76669 0.0
C355 C 0.34304 0.65943 0.74355 0.0
H356 H 0.3046 0.70426 0.82647 0.0
H357 H 0.30594 0.72078 0.70864 0.0
H358 H 0.35146 0.6846 0.82673 0.0
H359 H 0.37161 0.71969 0.83475 0.0
H360 H 0.33917 0.70137 0.8565 0.0
H361 H 0.34493 0.73322 0.67157 0.0
H362 H 0.37413 0.73431 0.69153 0.0
H363 H 0.34617 0.70299 0.67763 0.0
H364 H 0.44332 0.74238 0.75743 0.0
H365 H 0.38919 0.65908 0.73829 0.0
H366 H 0.39705 0.75873 0.7934 0.0
H367 H 0.39812 0.76478 0.74395 0.0
H368 H 0.42848 0.77298 0.76871 0.0
H369 H 0.33124 0.65656 0.76951 0.0
H370 H 0.34313 0.64061 0.7374 0.0
H371 H 0.33273 0.66335 0.72021 0.0
C372 C 0.7797 0.35594 0.87368 0.0
C373 C 0.80559 0.3654 0.88732 0.0
C374 C 0.7585 0.33133 0.88556 0.0
C375 C 0.76322 0.31599 0.91234 0.0
C376 C 0.78949 0.32512 0.92548 0.0
C377 C 0.81043 0.34966 0.91256 0.0
C378 C 0.7309 0.32212 0.8703 0.0
C379 C 0.79528 0.30957 0.95441 0.0
C380 C 0.70264 0.26937 0.9708 0.0
C381 C 0.69417 0.24478 0.95305 0.0
C382 C 0.72569 0.29251 0.95878 0.0
C383 C 0.74037 0.2911 0.92776 0.0
C384 C 0.73223 0.26619 0.91024 0.0
C385 C 0.70933 0.24329 0.92327 0.0
C386 C 0.73393 0.3186 0.97864 0.0
C387 C 0.74706 0.26391 0.87674 0.0
H388 H 0.77604 0.36812 0.85407 0.0
H389 H 0.83037 0.35715 0.92357 0.0
H390 H 0.72218 0.30157 0.85893 0.0
H391 H 0.71767 0.32158 0.89334 0.0
H392 H 0.73093 0.33542 0.8477 0.0
H393 H 0.81697 0.31851 0.95998 0.0
H394 H 0.78512 0.30892 0.98121 0.0
H395 H 0.78732 0.28865 0.94496 0.0
H396 H 0.69102 0.27049 0.99395 0.0
H397 H 0.70262 0.22441 0.90908 0.0
H398 H 0.73207 0.33257 0.95914 0.0
H399 H 0.75515 0.32809 0.9873 0.0
H400 H 0.72156 0.31596 1.00396 0.0
H401 H 0.74544 0.27531 0.85275 0.0
H402 H 0.73915 0.24287 0.86775 0.0
H403 H 0.76856 0.27273 0.88335 0.0
C404 C 0.46951 0.77882 0.10013 0.0
C405 C 0.45339 0.77898 0.07074 0.0
C406 C 0.46986 0.75538 0.10976 0.0
C407 C 0.45391 0.73158 0.08929 0.0
C408 C 0.43838 0.73191 0.05871 0.0
C409 C 0.43821 0.75554 0.04997 0.0
C410 C 0.4865 0.75583 0.14275 0.0
C411 C 0.42134 0.7071 0.03582 0.0
C412 C 0.46649 0.67283 0.09452 0.0
C413 C 0.44585 0.65528 0.11843 0.0
C414 C 0.46981 0.69802 0.08546 0.0
C415 C 0.45223 0.70595 0.10095 0.0
C416 C 0.43202 0.68871 0.12625 0.0
C417 C 0.42903 0.66359 0.13452 0.0
C418 C 0.49148 0.71571 0.05818 0.0
C419 C 0.41305 0.69648 0.14379 0.0
H420 H 0.48103 0.79676 0.11661 0.0
H421 H 0.42596 0.75566 0.027 0.0
H422 H 0.47326 0.74283 0.1655 0.0
H423 H 0.4996 0.74775 0.13434 0.0
H424 H 0.4991 0.77626 0.15423 0.0
H425 H 0.41175 0.71108 0.01152 0.0
H426 H 0.43359 0.69861 0.02513 0.0
H427 H 0.4055 0.69172 0.05389 0.0
H428 H 0.47936 0.66643 0.08164 0.0
H429 H 0.41326 0.65022 0.15334 0.0
H430 H 0.50394 0.7359 0.07039 0.0
H431 H 0.48234 0.7181 0.03209 0.0
H432 H 0.50458 0.70745 0.05055 0.0
H433 H 0.42436 0.71614 0.15796 0.0
H434 H 0.39952 0.68155 0.16466 0.0
H435 H 0.40074 0.69852 0.12154 0.0
C436 C 0.73308 0.39715 0.35591 0.0
C437 C 0.7461 0.38554 0.33695 0.0
C438 C 0.70541 0.38688 0.35203 0.0
C439 C 0.69027 0.36429 0.3288 0.0
C440 C 0.70314 0.35185 0.31086 0.0
C441 C 0.7308 0.36267 0.31498 0.0
C442 C 0.69252 0.40072 0.3718 0.0
C443 C 0.68781 0.32752 0.28636 0.0
C444 C 0.61389 0.32793 0.3323 0.0
C445 C 0.6079 0.339 0.30117 0.0
C446 C 0.64054 0.33596 0.34194 0.0
C447 C 0.66175 0.35549 0.31989 0.0
C448 C 0.65582 0.36674 0.28859 0.0
C449 C 0.62918 0.35851 0.27979 0.0
C450 C 0.646 0.32345 0.37556 0.0
C451 C 0.6777 0.38778 0.26443 0.0
H452 H 0.74468 0.41473 0.37305 0.0
H453 H 0.74046 0.35308 0.30102 0.0
H454 H 0.68548 0.40995 0.35065 0.0
H455 H 0.67481 0.38608 0.38795 0.0
H456 H 0.70646 0.41655 0.39134 0.0
H457 H 0.70019 0.31872 0.2773 0.0
H458 H 0.6701 0.31206 0.30164 0.0
H459 H 0.6805 0.33299 0.26091 0.0
H460 H 0.59772 0.31296 0.34908 0.0
H461 H 0.62527 0.36809 0.25651 0.0
H462 H 0.66052 0.33913 0.3947 0.0
H463 H 0.65506 0.31144 0.36605 0.0
H464 H 0.62758 0.3103 0.39169 0.0
H465 H 0.69106 0.40534 0.28191 0.0
H466 H 0.66979 0.39458 0.24104 0.0
H467 H 0.69002 0.37982 0.25223 0.0
C468 C 0.19531 0.61043 0.6702 0.0
C469 C 0.18399 0.62623 0.6797 0.0
C470 C 0.1947 0.60192 0.63279 0.0
C471 C 0.18237 0.60925 0.60428 0.0
C472 C 0.17091 0.62513 0.61382 0.0
C473 C 0.17188 0.6334 0.65123 0.0
C474 C 0.20716 0.58499 0.62377 0.0
C475 C 0.15731 0.63317 0.58455 0.0
C476 C 0.19706 0.60319 0.50075 0.0
C477 C 0.17545 0.57816 0.49139 0.0
C478 C 0.19959 0.61373 0.53735 0.0
C479 C 0.17992 0.59897 0.56496 0.0
C480 C 0.15754 0.57423 0.55498 0.0
C481 C 0.15566 0.56414 0.51851 0.0
C482 C 0.22373 0.64019 0.54686 0.0
C483 C 0.13587 0.55799 0.58317 0.0
H484 H 0.20489 0.60497 0.69186 0.0
H485 H 0.16303 0.64559 0.65812 0.0
H486 H 0.19168 0.56521 0.61316 0.0
H487 H 0.22222 0.59452 0.60113 0.0
H488 H 0.21691 0.5819 0.64867 0.0
H489 H 0.15013 0.64632 0.59627 0.0
H490 H 0.17123 0.64378 0.56103 0.0
H491 H 0.14002 0.61512 0.57256 0.0
H492 H 0.21262 0.6139 0.48013 0.0
H493 H 0.13889 0.54477 0.51144 0.0
H494 H 0.23559 0.63729 0.56897 0.0
H495 H 0.21747 0.65408 0.5584 0.0
H496 H 0.23673 0.64964 0.522 0.0
H497 H 0.14435 0.55227 0.60702 0.0
H498 H 0.11936 0.53954 0.5706 0.0
H499 H 0.12749 0.57008 0.59489 0.0
C500 C 0.59681 0.16964 0.66672 0.0
C501 C 0.6214 0.19038 0.65394 0.0
C502 C 0.58978 0.16739 0.70512 0.0
C503 C 0.60812 0.18583 0.73148 0.0
C504 C 0.63355 0.20588 0.71881 0.0
C505 C 0.63965 0.20821 0.68019 0.0
C506 C 0.56224 0.1462 0.71713 0.0
C507 C 0.6541 0.22544 0.74592 0.0
C508 C 0.58771 0.20513 0.82307 0.0
C509 C 0.59293 0.19046 0.84964 0.0
C510 C 0.5908 0.20239 0.78431 0.0
C511 C 0.60044 0.18537 0.77191 0.0
C512 C 0.60498 0.1699 0.79875 0.0
C513 C 0.6009 0.17244 0.83729 0.0
C514 C 0.58499 0.21871 0.75676 0.0
C515 C 0.61596 0.15211 0.78709 0.0
H516 H 0.58248 0.15607 0.64642 0.0
H517 H 0.65867 0.22427 0.6704 0.0
H518 H 0.56343 0.13451 0.74103 0.0
H519 H 0.55086 0.15586 0.72702 0.0
H520 H 0.55099 0.13228 0.69383 0.0
H521 H 0.67376 0.23798 0.73224 0.0
H522 H 0.6472 0.23877 0.75764 0.0
H523 H 0.65672 0.21465 0.76988 0.0
H524 H 0.58196 0.21937 0.83271 0.0
H525 H 0.60559 0.16161 0.85798 0.0
H526 H 0.5727 0.20603 0.73309 0.0
H527 H 0.60395 0.2347 0.74471 0.0
H528 H 0.57439 0.22816 0.77026 0.0
H529 H 0.60428 0.13901 0.76339 0.0
H530 H 0.61587 0.13944 0.81066 0.0
H531 H 0.63678 0.16464 0.77712 0.0
C532 C 0.41459 0.53915 0.9767 0.0
C533 C 0.40121 0.54803 1.00052 0.0
C534 C 0.42004 0.54752 0.93897 0.0
C535 C 0.41235 0.5656 0.92476 0.0
C536 C 0.39752 0.57345 0.94806 0.0
C537 C 0.39196 0.56442 0.98554 0.0
C538 C 0.43549 0.53827 0.91504 0.0
C539 C 0.38914 0.59289 0.93429 0.0
C540 C 0.45841 0.61561 0.85213 0.0
C541 C 0.44407 0.60586 0.81845 0.0
C542 C 0.44821 0.60271 0.8866 0.0
C543 C 0.42302 0.57914 0.88776 0.0
C544 C 0.40847 0.56889 0.85388 0.0
C545 C 0.4191 0.58245 0.81961 0.0
C546 C 0.46442 0.61452 0.92193 0.0
C547 C 0.38168 0.54368 0.85389 0.0
H548 H 0.42161 0.52629 0.98789 0.0
H549 H 0.38166 0.57145 1.00368 0.0
H550 H 0.42625 0.53199 0.88681 0.0
H551 H 0.45611 0.55502 0.91093 0.0
H552 H 0.43658 0.52139 0.92818 0.0
H553 H 0.37505 0.59447 0.95398 0.0
H554 H 0.40703 0.61296 0.93124 0.0
H555 H 0.37963 0.58687 0.90621 0.0
H556 H 0.47768 0.63369 0.85177 0.0
H557 H 0.40786 0.57474 0.7938 0.0
H558 H 0.46901 0.59991 0.93527 0.0
H559 H 0.45276 0.61902 0.94255 0.0
H560 H 0.4835 0.63317 0.91631 0.0
H561 H 0.38356 0.52701 0.86607 0.0
H562 H 0.37313 0.53794 0.82516 0.0
H563 H 0.36751 0.54638 0.87188 0.0
C564 C 0.83428 0.38419 0.15783 0.0
C565 C 0.84196 0.40012 0.19039 0.0
C566 C 0.83707 0.39543 0.12175 0.0
C567 C 0.84784 0.42337 0.11782 0.0
C568 C 0.85537 0.43953 0.15057 0.0
C569 C 0.85237 0.42776 0.18632 0.0
C570 C 0.82882 0.37739 0.08772 0.0
C571 C 0.86696 0.46936 0.14783 0.0
C572 C 0.88105 0.45385 0.02391 0.0
C573 C 0.86116 0.45639 1.00476 0.0
C574 C 0.87713 0.44368 0.06074 0.0
C575 C 0.85265 0.43575 0.07937 0.0
C576 C 0.8327 0.43894 0.0607 0.0
C577 C 0.83718 0.44921 0.02367 0.0
C578 C 0.89902 0.44077 0.07936 0.0
C579 C 0.80635 0.43085 0.0795 0.0
H580 H 0.8261 0.36283 0.16045 0.0
H581 H 0.85828 0.44033 0.21115 0.0
H582 H 0.81419 0.37999 0.07073 0.0
H583 H 0.84642 0.38289 0.06954 0.0
H584 H 0.81983 0.356 0.09549 0.0
H585 H 0.87071 0.47902 0.17592 0.0
H586 H 0.88605 0.4783 0.13206 0.0
H587 H 0.85323 0.47397 0.13196 0.0
H588 H 0.89972 0.45936 1.0098 0.0
H589 H 0.82162 0.45094 1.00919 0.0
H590 H 0.89189 0.41939 0.08514 0.0
H591 H 0.90439 0.45136 0.10678 0.0
H592 H 0.91726 0.44877 0.06169 0.0
H593 H 0.79553 0.409 0.0846 0.0
H594 H 0.79351 0.43596 0.06224 0.0
H595 H 0.80968 0.44077 0.10729 0.0
C596 C 0.39391 0.86499 0.19559 0.0
C597 C 0.39186 0.84461 0.17181 0.0
C598 C 0.39686 0.86387 0.23475 0.0
C599 C 0.39807 0.84198 0.25056 0.0
C600 C 0.39421 0.82053 0.22701 0.0
C601 C 0.39105 0.82205 0.18802 0.0
C602 C 0.4005 0.88699 0.25882 0.0
C603 C 0.39542 0.79684 0.24253 0.0
C604 C 0.44446 0.85505 0.33323 0.0
C605 C 0.42674 0.84303 0.36339 0.0
C606 C 0.43531 0.85531 0.29683 0.0
C607 C 0.4076 0.84342 0.29007 0.0
C608 C 0.38952 0.83214 0.32058 0.0
C609 C 0.39929 0.83199 0.35695 0.0
C610 C 0.4554 0.86759 0.26532 0.0
C611 C 0.35986 0.81957 0.3146 0.0
H612 H 0.39428 0.88239 0.18349 0.0
H613 H 0.38932 0.80609 0.17005 0.0
H614 H 0.38856 0.8797 0.28502 0.0
H615 H 0.42174 0.89911 0.26712 0.0
H616 H 0.39467 0.90013 0.24369 0.0
H617 H 0.38875 0.78041 0.22165 0.0
H618 H 0.41624 0.80314 0.25078 0.0
H619 H 0.38287 0.78905 0.26811 0.0
H620 H 0.46572 0.86385 0.3378 0.0
H621 H 0.38544 0.82265 0.38002 0.0
H622 H 0.45296 0.88329 0.25096 0.0
H623 H 0.45196 0.85213 0.24403 0.0
H624 H 0.47629 0.87661 0.27545 0.0
H625 H 0.35525 0.83337 0.29886 0.0
H626 H 0.34867 0.81418 0.3416 0.0
H627 H 0.35265 0.80123 0.29738 0.0
C628 C 0.58943 0.41809 0.35294 0.0
C629 C 0.56236 0.40278 0.34349 0.0
C630 C 0.59738 0.42588 0.39063 0.0
C631 C 0.57783 0.41782 0.41951 0.0
C632 C 0.55063 0.40178 0.41012 0.0
C633 C 0.54329 0.39475 0.37249 0.0
C634 C 0.62661 0.44317 0.39951 0.0
C635 C 0.52907 0.39242 0.43979 0.0
C636 C 0.5969 0.42405 0.52385 0.0
C637 C 0.59724 0.44775 0.53372 0.0
C638 C 0.59082 0.41405 0.48671 0.0
C639 C 0.58521 0.4282 0.45886 0.0
C640 C 0.58496 0.45175 0.4691 0.0
C641 C 0.59074 0.46104 0.50626 0.0
C642 C 0.59072 0.38855 0.47714 0.0
C643 C 0.57907 0.46752 0.44059 0.0
H644 H 0.60434 0.42412 0.33096 0.0
H645 H 0.52228 0.38263 0.36597 0.0
H646 H 0.6304 0.46281 0.41024 0.0
H647 H 0.63254 0.43386 0.42202 0.0
H648 H 0.63943 0.44653 0.37448 0.0
H649 H 0.50907 0.37805 0.42845 0.0
H650 H 0.53363 0.38275 0.46337 0.0
H651 H 0.52825 0.40979 0.45158 0.0
H652 H 0.60246 0.41397 0.54463 0.0
H653 H 0.5911 0.47945 0.51358 0.0
H654 H 0.57049 0.37319 0.46791 0.0
H655 H 0.59668 0.38059 0.50143 0.0
H656 H 0.60448 0.39198 0.45335 0.0
H657 H 0.59311 0.47315 0.41655 0.0
H658 H 0.58067 0.48598 0.45276 0.0
H659 H 0.55863 0.45509 0.42923 0.0
C660 C 0.95736 0.43378 0.32343 0.0
C661 C 0.9444 0.43896 0.35296 0.0
C662 C 0.98516 0.4434 0.32448 0.0
C663 C 1.00053 0.45877 0.35565 0.0
C664 C 0.98763 0.46484 0.38478 0.0
C665 C 0.95993 0.4549 0.38309 0.0
C666 C 0.99794 0.43636 0.2928 0.0
C667 C 1.003 0.48133 0.41838 0.0
C668 C 0.06531 0.46031 0.38338 0.0
C669 C 0.08513 0.48539 0.37014 0.0
C670 C 0.03794 0.45123 0.37799 0.0
C671 C 0.02976 0.46752 0.35898 0.0
C672 C 0.04957 0.4927 0.34512 0.0
C673 C 0.07686 0.50128 0.3508 0.0
C674 C 1.01769 0.42429 0.39343 0.0
C675 C 0.04192 0.51081 0.32472 0.0
H676 H 0.94564 0.42139 0.30016 0.0
H677 H 0.95029 0.45947 0.40575 0.0
H678 H 1.01528 0.45467 0.28147 0.0
H679 H 1.00553 0.42337 0.3036 0.0
H680 H 0.98378 0.4258 0.26947 0.0
H681 H 0.99036 0.48541 0.43776 0.0
H682 H 1.01143 0.47071 0.43428 0.0
H683 H 0.01998 0.50065 0.40897 0.0
H684 H 0.07108 0.44784 0.39876 0.0
H685 H 0.09172 0.52048 0.33987 0.0
H686 H 1.00384 0.41185 0.37081 0.0
H687 H 1.00556 0.42684 0.41551 0.0
H688 H 0.02715 0.41337 0.40578 0.0
H689 H 0.02882 0.50014 0.30049 0.0
H690 H 0.05958 0.52927 0.31426 0.0
H691 H 0.03043 0.51655 0.34386 0.0
C692 C 0.53726 0.95086 0.48368 0.0
C693 C 0.51043 0.93225 0.49178 0.0
C694 C 0.54728 0.97865 0.48622 0.0
C695 C 0.53023 0.98857 0.49714 0.0
C696 C 0.50317 0.96998 0.5055 0.0
C697 C 0.49363 0.94221 0.50268 0.0
C698 C 0.57617 0.99747 0.47668 0.0
C699 C 0.48418 0.97945 0.51731 0.0
C700 C 0.56205 0.0614 0.53159 0.0
C701 C 0.56059 0.0748 0.49944 0.0
C702 C 0.55214 0.03348 0.53142 0.0
C703 C 0.54051 0.01833 0.49827 0.0
C704 C 0.53919 0.03179 0.46571 0.0
C705 C 0.54917 0.0596 0.46668 0.0
C706 C 0.55403 0.02015 0.56684 0.0
C707 C 0.5273 0.01679 0.42957 0.0
H708 H 0.55052 0.94377 0.47464 0.0
H709 H 0.47301 0.9283 0.50943 0.0
H710 H 0.57751 1.01002 0.45224 0.0
H711 H 0.58629 1.01112 0.50066 0.0
H712 H 0.5871 0.98673 0.46978 0.0
H713 H 0.46396 0.96263 0.52387 0.0
H714 H 0.49204 0.99244 0.5425 0.0
H715 H 0.48244 0.99162 0.49453 0.0
H716 H 0.57056 0.07265 0.55717 0.0
H717 H 0.54826 0.0695 0.44136 0.0
H718 H 0.56591 1.01021 0.5614 0.0
H719 H 0.53383 1.00443 0.57568 0.0
H720 H 0.56338 0.03451 0.59039 0.0
H721 H 0.53861 1.00703 0.41984 0.0
H722 H 0.52742 0.03 0.40678 0.0
H723 H 0.50643 1.00077 0.43445 0.0
C724 C 0.53153 0.59299 0.70497 0.0
C725 C 0.53483 0.61282 0.67917 0.0
C726 C 0.54571 0.57897 0.70098 0.0
C727 C 0.56321 0.58436 0.66994 0.0
C728 C 0.56578 0.6037 0.64315 0.0
C729 C 0.55189 0.6178 0.64831 0.0
C730 C 0.54263 0.55899 0.73068 0.0
C731 C 0.58356 0.60983 0.60913 0.0
C732 C 0.62217 0.57138 0.67384 0.0
C733 C 0.61248 0.54719 0.65418 0.0
C734 C 0.6061 0.58308 0.6803 0.0
C735 C 0.57968 0.57074 0.66603 0.0
C736 C 0.5697 0.54616 0.64641 0.0
C737 C 0.58605 0.53458 0.64112 0.0
C738 C 0.61758 0.60891 0.70205 0.0
C739 C 0.542 0.53249 0.62989 0.0
H740 H 0.51861 0.58916 0.72904 0.0
H741 H 0.55435 0.63283 0.62799 0.0
H742 H 0.53654 0.53935 0.71757 0.0
H743 H 0.56209 0.56568 0.7447 0.0
H744 H 0.52768 0.55636 0.75241 0.0
H745 H 0.58205 0.62402 0.58959 0.0
H746 H 0.60462 0.6186 0.61822 0.0
H747 H 0.57828 0.59117 0.59359 0.0
H748 H 0.64241 0.58115 0.68442 0.0
H749 H 0.57844 0.51607 0.62558 0.0
H750 H 0.60411 0.60694 0.72562 0.0
H751 H 0.61922 0.62507 0.68345 0.0
H752 H 0.63764 0.61498 0.71365 0.0
H753 H 0.52709 0.529 0.65205 0.0
H754 H 0.53677 0.51307 0.61659 0.0
H755 H 0.54049 0.54557 0.60835 0.0
C756 C 0.08379 0.59291 0.80945 0.0
C757 C 0.09733 0.61909 0.82378 0.0
C758 C 0.05621 0.57594 0.81564 0.0
C759 C 0.04156 0.58518 0.83675 0.0
C760 C 0.05521 0.61134 0.85198 0.0
C761 C 0.08275 0.62787 0.84534 0.0
C762 C 0.0426 0.54832 0.79868 0.0
C763 C 0.04059 0.62212 0.87476 0.0
C764 C 0.96703 0.55641 0.81918 0.0
C765 C 0.95526 0.53972 0.85047 0.0
C766 C 0.99485 0.57065 0.81401 0.0
C767 C 1.01174 0.56836 0.84079 0.0
C768 C 1.00001 0.55089 0.87189 0.0
C769 C 0.97196 0.53672 0.87629 0.0
C770 C 1.0062 0.58871 0.78021 0.0
C771 C 1.01715 0.54777 0.90113 0.0
H772 H 0.09459 0.58584 0.79252 0.0
H773 H 0.09287 0.64776 0.85721 0.0
H774 H 0.03132 0.53319 0.82062 0.0
H775 H 0.02801 0.54678 0.77715 0.0
H776 H 0.05697 0.5434 0.78522 0.0
H777 H 0.05422 0.64228 0.88637 0.0
H778 H 0.0255 0.6233 0.85687 0.0
H779 H 0.02978 0.60843 0.89842 0.0
H780 H 0.95439 0.55851 0.79862 0.0
H781 H 0.96317 0.52402 0.90062 0.0
H782 H 0.01942 0.5835 0.76408 0.0
H783 H 1.01852 0.60972 0.78962 0.0
H784 H 0.99041 0.5874 0.76108 0.0
H785 H 0.0311 0.54238 0.88748 0.0
H786 H 1.0051 0.53227 0.92234 0.0
H787 H 0.02941 0.56704 0.91588 0.0
C788 C 0.52436 0.06725 0.97951 0.0
C789 C 0.53247 0.08206 0.01309 0.0
C790 C 0.50951 0.03907 0.97995 0.0
C791 C 0.50237 0.0252 0.01477 0.0
C792 C 0.51125 0.03998 0.04864 0.0
C793 C 0.52626 0.06802 0.04736 0.0
C794 C 0.50074 0.02414 0.94313 0.0
C795 C 0.50411 0.02623 0.08645 0.0
C796 C 0.43894 0.95719 0.01981 0.0
C797 C 0.44886 0.93941 0.02124 0.0
C798 C 0.45608 0.98496 0.0175 0.0
C799 C 0.48404 0.99549 0.01614 0.0
C800 C 0.49426 0.97766 0.01751 0.0
C801 C 0.47658 0.94989 0.02037 0.0
C802 C 0.44419 1.00306 0.01692 0.0
C803 C 0.52386 0.98794 0.01572 0.0
H804 H 0.52888 0.07766 0.95284 0.0
H805 H 0.5329 0.07896 0.07354 0.0
H806 H 0.50603 1.00813 0.94224 0.0
H807 H 0.47874 0.01442 0.94058 0.0
H808 H 0.50992 0.03749 0.91851 0.0
H809 H 0.51358 0.04042 0.11015 0.0
H810 H 0.48217 0.01577 0.09035 0.0
H811 H 0.51033 1.01091 0.08779 0.0
H812 H 0.4176 0.94936 0.02103 0.0
H813 H 0.4844 0.93631 0.02109 0.0
H814 H 0.45052 0.01547 0.99108 0.0
H815 H 0.45162 0.01687 0.04133 0.0
H816 H 0.42206 0.99176 0.01791 0.0
H817 H 0.53227 0.99983 0.9897 0.0
H818 H 0.52865 0.97154 0.01612 0.0
H819 H 0.53394 1.0014 0.03988 0.0
C820 C 0.41655 0.46623 0.20058 0.0
C821 C 0.42031 0.48059 0.16708 0.0
C822 C 0.4295 0.45143 0.20701 0.0
C823 C 0.44666 0.45064 0.17917 0.0
C824 C 0.45115 0.46568 0.14565 0.0
C825 C 0.43806 0.48058 0.1401 0.0
C826 C 0.42432 0.43613 0.2434 0.0
C827 C 0.46915 0.46537 0.11513 0.0
C828 C 0.49411 0.42608 0.21086 0.0
C829 C 0.47988 0.39887 0.20121 0.0
C830 C 0.48394 0.44328 0.20304 0.0
C831 C 0.45894 0.43323 0.18485 0.0
C832 C 0.44481 0.40595 0.17419 0.0
C833 C 0.45535 0.38917 0.18259 0.0
C834 C 0.49963 0.47209 0.21528 0.0
C835 C 0.41821 0.39431 0.1545 0.0
H836 H 0.40324 0.46644 0.22187 0.0
H837 H 0.44096 0.49143 0.11406 0.0
H838 H 0.41438 0.41442 0.23741 0.0
H839 H 0.44344 0.44172 0.25771 0.0
H840 H 0.41152 0.43985 0.26298 0.0
H841 H 0.47173 0.47915 0.09166 0.0
H842 H 0.48904 0.47105 0.12688 0.0
H843 H 0.46068 0.44487 0.10365 0.0
H844 H 0.51291 0.43383 0.22558 0.0
H845 H 0.44434 0.36836 0.17445 0.0
H846 H 0.48828 0.47607 0.23706 0.0
H847 H 0.5026 0.48548 0.19117 0.0
H848 H 0.51944 0.47728 0.22701 0.0
H849 H 0.40342 0.39529 0.17337 0.0
H850 H 0.41045 0.3732 0.14604 0.0
H851 H 0.41997 0.40618 0.12902 0.0
C852 C 0.22138 0.53578 0.26104 0.0
C853 C 0.22446 0.55618 0.28568 0.0
C854 C 0.24283 0.53787 0.23979 0.0
C855 C 0.26809 0.56124 0.24238 0.0
C856 C 0.27084 0.58287 0.26473 0.0
C857 C 0.24904 0.58005 0.28632 0.0
C858 C 0.23887 0.5141 0.21692 0.0
C859 C 0.2972 0.60845 0.26737 0.0
C860 C 0.32773 0.55076 0.22965 0.0
C861 C 0.33412 0.55694 0.19152 0.0
C862 C 0.3067 0.55261 0.24657 0.0
C863 C 0.29196 0.56154 0.22518 0.0
C864 C 0.29884 0.56862 0.18692 0.0
C865 C 0.31956 0.56587 0.1704 0.0
C866 C 0.2998 0.54424 0.28717 0.0
C867 C 0.28417 0.57891 0.16336 0.0
H868 H 0.20246 0.51731 0.25999 0.0
H869 H 0.25172 0.59596 0.30517 0.0
H870 H 0.2464 0.52025 0.18785 0.0
H871 H 0.25044 0.50551 0.22973 0.0
H872 H 0.21759 0.49823 0.21548 0.0
H873 H 0.29559 0.62417 0.28325 0.0
H874 H 0.31202 0.60461 0.28162 0.0
H875 H 0.30499 0.61604 0.23876 0.0
H876 H 0.33884 0.54384 0.24621 0.0
H877 H 0.32462 0.57106 0.14106 0.0
H878 H 0.27908 0.52728 0.28907 0.0
H879 H 0.30072 0.56087 0.30398 0.0
H880 H 0.31341 0.5381 0.30007 0.0
H881 H 0.26324 0.56286 0.15917 0.0
H882 H 0.29355 0.58602 0.13532 0.0
H883 H 0.28358 0.59555 0.17812 0.0
C884 C 0.7522 0.30493 0.34035 0.0
C885 C 0.7798 0.31452 0.34002 0.0
C886 C 0.73562 0.28727 0.36836 0.0
C887 C 0.74666 0.27817 0.39634 0.0
C888 C 0.77427 0.28662 0.395 0.0
C889 C 0.79057 0.30497 0.36723 0.0
C890 C 0.70651 0.27949 0.36909 0.0
C891 C 0.78677 0.27698 0.42371 0.0
C892 C 0.71036 0.2585 0.49065 0.0
C893 C 0.69411 0.23073 0.48701 0.0
C894 C 0.72776 0.27402 0.46168 0.0
C895 C 0.72962 0.26149 0.4284 0.0
C896 C 0.71406 0.23332 0.42515 0.0
C897 C 0.69621 0.21833 0.45422 0.0
C898 C 0.74332 0.304 0.46608 0.0
C899 C 0.71581 0.21909 0.39058 0.0
H900 H 0.7436 0.31228 0.31975 0.0
H901 H 0.81184 0.31223 0.36727 0.0
H902 H 0.69379 0.25746 0.36912 0.0
H903 H 0.7021 0.28701 0.39533 0.0
H904 H 0.70084 0.28764 0.3447 0.0
H905 H 0.80769 0.28292 0.41642 0.0
H906 H 0.78663 0.2854 0.45172 0.0
H907 H 0.77505 0.25492 0.42618 0.0
H908 H 0.70865 0.26838 0.51558 0.0
H909 H 0.68373 0.19691 0.45114 0.0
H910 H 0.73733 0.31346 0.44387 0.0
H911 H 0.76495 0.31142 0.46253 0.0
H912 H 0.74007 0.31064 0.49396 0.0
H913 H 0.70788 0.22463 0.3659 0.0
H914 H 0.7044 0.19704 0.39381 0.0
H915 H 0.73694 0.22532 0.38441 0.0
C916 C 0.44791 0.68223 0.58972 0.0
C917 C 0.43597 0.66711 0.62217 0.0
C918 C 0.44189 0.70167 0.577 0.0
C919 C 0.42324 0.70617 0.59696 0.0
C920 C 0.40928 0.68927 0.62769 0.0
C921 C 0.41592 0.67008 0.64014 0.0
C922 C 0.45669 0.71849 0.54336 0.0
C923 C 0.38852 0.6925 0.64897 0.0
C924 C 0.44159 0.77916 0.59363 0.0
C925 C 0.42696 0.77982 0.56253 0.0
C926 C 0.4391 0.75506 0.60676 0.0
C927 C 0.42142 0.73073 0.58854 0.0
C928 C 0.40479 0.73094 0.55937 0.0
C929 C 0.40784 0.75546 0.54653 0.0
C930 C 0.45687 0.7559 0.63849 0.0
C931 C 0.38475 0.70543 0.54038 0.0
H932 H 0.46318 0.6799 0.57533 0.0
H933 H 0.40654 0.65861 0.66529 0.0
H934 H 0.44221 0.71637 0.52135 0.0
H935 H 0.46807 0.73987 0.55146 0.0
H936 H 0.47076 0.71269 0.53108 0.0
H937 H 0.37442 0.67383 0.66389 0.0
H938 H 0.3985 0.70857 0.67018 0.0
H939 H 0.37701 0.69821 0.6299 0.0
H940 H 0.45623 0.79779 0.60647 0.0
H941 H 0.39639 0.75559 0.52247 0.0
H942 H 0.471 0.74965 0.62791 0.0
H943 H 0.44476 0.74173 0.661 0.0
H944 H 0.46853 0.77614 0.65102 0.0
H945 H 0.39521 0.69867 0.52098 0.0
H946 H 0.36992 0.70812 0.52395 0.0
H947 H 0.37404 0.68938 0.56143 0.0
C948 C 0.78396 0.4726 0.81321 0.0
C949 C 0.7775 0.4625 0.85002 0.0
C950 C 0.76469 0.47287 0.78912 0.0
C951 C 0.73817 0.46301 0.802 0.0
C952 C 0.73147 0.45264 0.83903 0.0
C953 C 0.75109 0.45242 0.86243 0.0
C954 C 0.77284 0.48402 0.74989 0.0
C955 C 0.70364 0.44217 0.85422 0.0
C956 C 0.69996 0.49227 0.75228 0.0
C957 C 0.68423 0.4723 0.72618 0.0
C958 C 0.7166 0.48899 0.77799 0.0
C959 C 0.71807 0.46523 0.77751 0.0
C960 C 0.7014 0.44446 0.75226 0.0
C961 C 0.68456 0.44817 0.72705 0.0
C962 C 0.73352 0.51155 0.80461 0.0
C963 C 0.70235 0.41886 0.75053 0.0
H964 H 0.80416 0.48027 0.80306 0.0
H965 H 0.74571 0.44448 0.8907 0.0
H966 H 0.75951 0.46916 0.72886 0.0
H967 H 0.77075 0.502 0.74673 0.0
H968 H 0.79377 0.48959 0.74334 0.0
H969 H 0.70124 0.43375 0.88298 0.0
H970 H 0.69882 0.45852 0.85507 0.0
H971 H 0.6889 0.42646 0.83533 0.0
H972 H 0.69989 0.51101 0.75181 0.0
H973 H 0.67285 0.43281 0.70661 0.0
H974 H 0.75488 0.52007 0.79725 0.0
H975 H 0.73092 0.50404 0.83391 0.0
H976 H 0.72854 0.52779 0.80362 0.0
H977 H 0.72215 0.42311 0.73998 0.0
H978 H 0.68673 0.40384 0.73175 0.0
H979 H 0.69983 0.41014 0.77907 0.0
C980 C 0.30366 0.75719 0.01599 0.0
C981 C 0.33116 0.76976 1.00884 0.0
C982 C 0.28517 0.73644 0.99284 0.0
C983 C 0.29427 0.72775 0.96174 0.0
C984 C 0.32203 0.74004 0.95467 0.0
C985 C 0.3401 0.76091 0.97817 0.0
C986 C 0.25578 0.72417 1.00125 0.0
C987 C 0.33261 0.73134 0.922 0.0
C988 C 0.24369 0.66015 0.91964 0.0
C989 C 0.23308 0.66805 0.89022 0.0
C990 C 0.26438 0.67935 0.94241 0.0
C991 C 0.27453 0.70698 0.9355 0.0
C992 C 0.26443 0.71483 0.90477 0.0
C993 C 0.24375 0.69531 0.88278 0.0
C994 C 0.27466 0.6701 0.97471 0.0
C995 C 0.27464 0.74391 0.89601 0.0
H996 H 0.29646 0.76378 0.03954 0.0
H997 H 0.36129 0.7703 0.97246 0.0
H998 H 0.24562 0.72774 0.97734 0.0
H999 H 0.24662 0.70224 1.00456 0.0
H1000 H 0.25194 0.73247 0.02721 0.0
H1001 H 0.35474 0.74208 0.92112 0.0
H1002 H 0.32524 0.70959 0.92379 0.0
H1003 H 0.32515 0.73492 0.89512 0.0
H1004 H 0.23525 0.63906 0.92559 0.0
H1005 H 0.23531 0.70139 0.8602 0.0
H1006 H 0.26914 0.6757 1.00175 0.0
H1007 H 0.29674 0.68012 0.97375 0.0
H1008 H 0.26643 0.64815 0.97442 0.0
H1009 H 0.26943 0.75324 0.91939 0.0
H1010 H 0.26612 0.74667 0.86951 0.0
H1011 H 0.29668 0.75474 0.89351 0.0
C1012 C 0.54709 0.32573 0.10671 0.0
C1013 C 0.56409 0.33983 0.13675 0.0
C1014 C 0.55339 0.31115 0.08106 0.0
C1015 C 0.57731 0.31033 0.08544 0.0
C1016 C 0.5953 0.32568 0.11455 0.0
C1017 C 0.58853 0.34033 0.13981 0.0
C1018 C 0.53369 0.29548 0.05036 0.0
C1019 C 0.62106 0.3255 0.12025 0.0
C1020 C 0.57551 0.24765 0.0463 0.0
C1021 C 0.58831 0.25648 0.01136 0.0
C1022 C 0.5725 0.26511 0.07101 0.0
C1023 C 0.58249 0.2922 0.06076 0.0
C1024 C 0.59573 0.30132 0.02577 0.0
C1025 C 0.59847 0.28344 1.0016 0.0
C1026 C 0.55819 0.25442 0.10794 0.0
C1027 C 0.60665 0.32991 0.01354 0.0
H1028 H 0.52815 0.32521 0.10411 0.0
H1029 H 0.60162 0.35083 0.16319 0.0
H1030 H 0.5438 0.30012 0.0226 0.0
H1031 H 0.52529 0.27379 0.05539 0.0
H1032 H 0.51697 0.29974 0.04901 0.0
H1033 H 0.63403 0.34035 0.14162 0.0
H1034 H 0.61662 0.30538 0.12963 0.0
H1035 H 0.6322 0.32975 0.09335 0.0
H1036 H 0.56771 0.22699 0.05436 0.0
H1037 H 0.60854 0.29066 0.97486 0.0
H1038 H 0.5397 0.25576 0.1085 0.0
H1039 H 0.5709 0.26669 0.1316 0.0
H1040 H 0.55277 0.23331 0.1127 0.0
H1041 H 0.59006 0.33417 1.01014 0.0
H1042 H 0.61774 0.33432 0.98653 0.0
H1043 H 0.62017 0.34369 0.03544 0.0
loop_
_geom_bond_atom_site_label_1
_geom_bond_atom_site_label_2
_geom_bond_distance
_geom_bond_site_symmetry_2
_ccdc_geom_bond_type
Cu0 N1 1.999 . S
Cu0 O6 1.974 . S
Cu0 N11 1.985 . S
Cu0 O20 1.959 . S
N1 Cu0 1.999 . S
N1 C3 1.263 . S
N1 C5 1.389 . S
N2 C3 1.358 . S
N2 C4 1.400 . S
C3 N1 1.263 . S
C3 N2 1.358 . S
C3 H9 0.930 . S
C4 N2 1.400 . S
C4 C5 1.351 . S
C4 H21 0.930 . S
C5 N1 1.389 . S
C5 C4 1.351 . S
C5 H10 0.930 . S
O6 Cu0 1.974 . S
O6 C16 1.282 . S
C7 O8 1.261 . S
C7 O20 1.251 . S
O8 C7 1.261 . S
H9 C3 0.930 . S
H10 C5 0.930 . S
N11 Cu0 1.985 . S
N11 C13 1.335 . S
N11 C14 1.390 . S
N12 C13 1.345 . S
N12 C15 1.336 . S
C13 N11 1.335 . S
C13 N12 1.345 . S
C13 H18 0.930 . S
C14 N11 1.390 . S
C14 C15 1.346 . S
C14 H19 0.930 . S
C15 N12 1.336 . S
C15 C14 1.346 . S
C15 H22 0.929 . S
C16 O6 1.282 . S
C16 O17 1.216 . S
O17 C16 1.216 . S
H18 C13 0.930 . S
H19 C14 0.930 . S
O20 Cu0 1.959 . S
O20 C7 1.251 . S
H21 C4 0.930 . S
H22 C15 0.929 . S
Cu23 N24 1.999 . S
Cu23 O29 1.974 . S
Cu23 N34 1.985 . S
Cu23 O43 1.959 . S
N24 Cu23 1.999 . S
N24 C26 1.263 . S
N24 C28 1.389 . S
N25 C26 1.358 . S
N25 C27 1.400 . S
C26 N24 1.263 . S
C26 N25 1.358 . S
C26 H32 0.930 . S
C27 N25 1.400 . S
C27 C28 1.351 . S
C27 H44 0.930 . S
C28 N24 1.389 . S
C28 C27 1.351 . S
C28 H33 0.930 . S
O29 Cu23 1.974 . S
O29 C39 1.282 . S
C30 O31 1.261 . S
C30 O43 1.251 . S
O31 C30 1.261 . S
H32 C26 0.930 . S
H33 C28 0.930 . S
N34 Cu23 1.985 . S
N34 C36 1.335 . S
N34 C37 1.390 . S
N35 C36 1.345 . S
N35 C38 1.336 . S
C36 N34 1.335 . S
C36 N35 1.345 . S
C36 H41 0.930 . S
C37 N34 1.390 . S
C37 C38 1.346 . S
C37 H42 0.930 . S
C38 N35 1.336 . S
C38 C37 1.346 . S
C38 H45 0.929 . S
C39 O29 1.282 . S
C39 O40 1.216 . S
O40 C39 1.216 . S
H41 C36 0.930 . S
H42 C37 0.930 . S
O43 Cu23 1.959 . S
O43 C30 1.251 . S
H44 C27 0.930 . S
H45 C38 0.929 . S
Cu46 N47 1.999 . S
Cu46 O52 1.974 . S
Cu46 N57 1.985 . S
Cu46 O66 1.959 . S
N47 Cu46 1.999 . S
N47 C49 1.263 . S
N47 C51 1.389 . S
N48 C49 1.358 . S
N48 C50 1.400 . S
C49 N47 1.263 . S
C49 N48 1.358 . S
C49 H55 0.930 . S
C50 N48 1.400 . S
C50 C51 1.351 . S
C50 H67 0.930 . S
C51 N47 1.389 . S
C51 C50 1.351 . S
C51 H56 0.930 . S
O52 Cu46 1.974 . S
O52 C62 1.282 . S
C53 O54 1.261 . S
C53 O66 1.251 . S
O54 C53 1.261 . S
H55 C49 0.930 . S
H56 C51 0.930 . S
N57 Cu46 1.985 . S
N57 C59 1.335 . S
N57 C60 1.390 . S
N58 C59 1.345 . S
N58 C61 1.336 . S
C59 N57 1.335 . S
C59 N58 1.345 . S
C59 H64 0.930 . S
C60 N57 1.390 . S
C60 C61 1.346 . S
C60 H65 0.930 . S
C61 N58 1.336 . S
C61 C60 1.346 . S
C61 H68 0.929 . S
C62 O52 1.282 . S
C62 O63 1.216 . S
O63 C62 1.216 . S
H64 C59 0.930 . S
H65 C60 0.930 . S
O66 Cu46 1.959 . S
O66 C53 1.251 . S
H67 C50 0.930 . S
H68 C61 0.929 . S
Cu69 N70 1.999 . S
Cu69 O75 1.974 . S
Cu69 N80 1.985 . S
Cu69 O89 1.959 . S
N70 Cu69 1.999 . S
N70 C72 1.263 . S
N70 C74 1.389 . S
N71 C72 1.358 . S
N71 C73 1.400 . S
C72 N70 1.263 . S
C72 N71 1.358 . S
C72 H78 0.930 . S
C73 N71 1.400 . S
C73 C74 1.351 . S
C73 H90 0.930 . S
C74 N70 1.389 . S
C74 C73 1.351 . S
C74 H79 0.930 . S
O75 Cu69 1.974 . S
O75 C85 1.282 . S
C76 O77 1.261 . S
C76 O89 1.251 . S
O77 C76 1.261 . S
H78 C72 0.930 . S
H79 C74 0.930 . S
N80 Cu69 1.985 . S
N80 C82 1.335 . S
N80 C83 1.390 . S
N81 C82 1.345 . S
N81 C84 1.336 . S
C82 N80 1.335 . S
C82 N81 1.345 . S
C82 H87 0.930 . S
C83 N80 1.390 . S
C83 C84 1.346 . S
C83 H88 0.930 . S
C84 N81 1.336 . S
C84 C83 1.346 . S
C84 H91 0.929 . S
C85 O75 1.282 . S
C85 O86 1.216 . S
O86 C85 1.216 . S
H87 C82 0.930 . S
H88 C83 0.930 . S
O89 Cu69 1.959 . S
O89 C76 1.251 . S
H90 C73 0.930 . S
H91 C84 0.929 . S
Cu92 N93 1.999 . S
Cu92 O98 1.974 . S
Cu92 N103 1.985 . S
Cu92 O112 1.959 . S
N93 Cu92 1.999 . S
N93 C95 1.263 . S
N93 C97 1.389 . S
N94 C95 1.358 . S
N94 C96 1.400 . S
C95 N93 1.263 . S
C95 N94 1.358 . S
C95 H101 0.930 . S
C96 N94 1.400 . S
C96 C97 1.351 . S
C96 H113 0.930 . S
C97 N93 1.389 . S
C97 C96 1.351 . S
C97 H102 0.930 . S
O98 Cu92 1.974 . S
O98 C108 1.282 . S
C99 O100 1.261 . S
C99 O112 1.251 . S
O100 C99 1.261 . S
H101 C95 0.930 . S
H102 C97 0.930 . S
N103 Cu92 1.985 . S
N103 C105 1.335 . S
N103 C106 1.390 . S
N104 C105 1.345 . S
N104 C107 1.336 . S
C105 N103 1.335 . S
C105 N104 1.345 . S
C105 H110 0.930 . S
C106 N103 1.390 . S
C106 C107 1.346 . S
C106 H111 0.930 . S
C107 N104 1.336 . S
C107 C106 1.346 . S
C107 H114 0.929 . S
C108 O98 1.282 . S
C108 O109 1.216 . S
O109 C108 1.216 . S
H110 C105 0.930 . S
H111 C106 0.930 . S
O112 Cu92 1.959 . S
O112 C99 1.251 . S
H113 C96 0.930 . S
H114 C107 0.929 . S
Cu115 N116 1.999 . S
Cu115 O121 1.974 . S
Cu115 N126 1.985 . S
Cu115 O135 1.959 . S
N116 Cu115 1.999 . S
N116 C118 1.263 . S
N116 C120 1.389 . S
N117 C118 1.358 . S
N117 C119 1.400 . S
C118 N116 1.263 . S
C118 N117 1.358 . S
C118 H124 0.930 . S
C119 N117 1.400 . S
C119 C120 1.351 . S
C119 H136 0.930 . S
C120 N116 1.389 . S
C120 C119 1.351 . S
C120 H125 0.930 . S
O121 Cu115 1.974 . S
O121 C131 1.282 . S
C122 O123 1.261 . S
C122 O135 1.251 . S
O123 C122 1.261 . S
H124 C118 0.930 . S
H125 C120 0.930 . S
N126 Cu115 1.985 . S
N126 C128 1.335 . S
N126 C129 1.390 . S
N127 C128 1.345 . S
N127 C130 1.336 . S
C128 N126 1.335 . S
C128 N127 1.345 . S
C128 H133 0.930 . S
C129 N126 1.390 . S
C129 C130 1.346 . S
C129 H134 0.930 . S
C130 N127 1.336 . S
C130 C129 1.346 . S
C130 H137 0.929 . S
C131 O121 1.282 . S
C131 O132 1.216 . S
O132 C131 1.216 . S
H133 C128 0.930 . S
H134 C129 0.930 . S
O135 Cu115 1.959 . S
O135 C122 1.251 . S
H136 C119 0.930 . S
H137 C130 0.929 . S
Cu138 N139 1.999 . S
Cu138 O144 1.974 . S
Cu138 N149 1.985 . S
Cu138 O158 1.959 . S
N139 Cu138 1.999 . S
N139 C141 1.263 . S
N139 C143 1.389 . S
N140 C141 1.358 . S
N140 C142 1.400 . S
C141 N139 1.263 . S
C141 N140 1.358 . S
C141 H147 0.930 . S
C142 N140 1.400 . S
C142 C143 1.351 . S
C142 H159 0.930 . S
C143 N139 1.389 . S
C143 C142 1.351 . S
C143 H148 0.930 . S
O144 Cu138 1.974 . S
O144 C154 1.282 . S
C145 O146 1.261 . S
C145 O158 1.251 . S
O146 C145 1.261 . S
H147 C141 0.930 . S
H148 C143 0.930 . S
N149 Cu138 1.985 . S
N149 C151 1.335 . S
N149 C152 1.390 . S
N150 C151 1.345 . S
N150 C153 1.336 . S
C151 N149 1.335 . S
C151 N150 1.345 . S
C151 H156 0.930 . S
C152 N149 1.390 . S
C152 C153 1.346 . S
C152 H157 0.930 . S
C153 N150 1.336 . S
C153 C152 1.346 . S
C153 H160 0.929 . S
C154 O144 1.282 . S
C154 O155 1.216 . S
O155 C154 1.216 . S
H156 C151 0.930 . S
H157 C152 0.930 . S
O158 Cu138 1.959 . S
O158 C145 1.251 . S
H159 C142 0.930 . S
H160 C153 0.929 . S
Cu161 N162 1.999 . S
Cu161 O167 1.974 . S
Cu161 N172 1.985 . S
Cu161 O181 1.959 . S
N162 Cu161 1.999 . S
N162 C164 1.263 . S
N162 C166 1.389 . S
N163 C164 1.358 . S
N163 C165 1.400 . S
C164 N162 1.263 . S
C164 N163 1.358 . S
C164 H170 0.930 . S
C165 N163 1.400 . S
C165 C166 1.351 . S
C165 H182 0.930 . S
C166 N162 1.389 . S
C166 C165 1.351 . S
C166 H171 0.930 . S
O167 Cu161 1.974 . S
O167 C177 1.282 . S
C168 O169 1.261 . S
C168 O181 1.251 . S
O169 C168 1.261 . S
H170 C164 0.930 . S
H171 C166 0.930 . S
N172 Cu161 1.985 . S
N172 C174 1.335 . S
N172 C175 1.390 . S
N173 C174 1.345 . S
N173 C176 1.336 . S
C174 N172 1.335 . S
C174 N173 1.345 . S
C174 H179 0.930 . S
C175 N172 1.390 . S
C175 C176 1.346 . S
C175 H180 0.930 . S
C176 N173 1.336 . S
C176 C175 1.346 . S
C176 H183 0.929 . S
C177 O167 1.282 . S
C177 O178 1.216 . S
O178 C177 1.216 . S
H179 C174 0.930 . S
H180 C175 0.930 . S
O181 Cu161 1.959 . S
O181 C168 1.251 . S
H182 C165 0.930 . S
H183 C176 0.929 . S
Cu184 N185 1.999 . S
Cu184 O190 1.974 . S
Cu184 N195 1.985 . S
Cu184 O204 1.959 . S
N185 Cu184 1.999 . S
N185 C187 1.263 . S
N185 C189 1.389 . S
N186 C187 1.358 . S
N186 C188 1.400 . S
C187 N185 1.263 . S
C187 N186 1.358 . S
C187 H193 0.930 . S
C188 N186 1.400 . S
C188 C189 1.351 . S
C188 H205 0.930 . S
C189 N185 1.389 . S
C189 C188 1.351 . S
C189 H194 0.930 . S
O190 Cu184 1.974 . S
O190 C200 1.282 . S
C191 O192 1.261 . S
C191 O204 1.251 . S
O192 C191 1.261 . S
H193 C187 0.930 . S
H194 C189 0.930 . S
N195 Cu184 1.985 . S
N195 C197 1.335 . S
N195 C198 1.390 . S
N196 C197 1.345 . S
N196 C199 1.336 . S
C197 N195 1.335 . S
C197 N196 1.345 . S
C197 H202 0.930 . S
C198 N195 1.390 . S
C198 C199 1.346 . S
C198 H203 0.930 . S
C199 N196 1.336 . S
C199 C198 1.346 . S
C199 H206 0.929 . S
C200 O190 1.282 . S
C200 O201 1.216 . S
O201 C200 1.216 . S
H202 C197 0.930 . S
H203 C198 0.930 . S
O204 Cu184 1.959 . S
O204 C191 1.251 . S
H205 C188 0.930 . S
H206 C199 0.929 . S
Cu207 N208 1.999 . S
Cu207 O213 1.974 . S
Cu207 N218 1.985 . S
Cu207 O227 1.959 . S
N208 Cu207 1.999 . S
N208 C210 1.263 . S
N208 C212 1.389 . S
N209 C210 1.358 . S
N209 C211 1.400 . S
C210 N208 1.263 . S
C210 N209 1.358 . S
C210 H216 0.930 . S
C211 N209 1.400 . S
C211 C212 1.351 . S
C211 H228 0.930 . S
C212 N208 1.389 . S
C212 C211 1.351 . S
C212 H217 0.930 . S
O213 Cu207 1.974 . S
O213 C223 1.282 . S
C214 O215 1.261 . S
C214 O227 1.251 . S
O215 C214 1.261 . S
H216 C210 0.930 . S
H217 C212 0.930 . S
N218 Cu207 1.985 . S
N218 C220 1.335 . S
N218 C221 1.390 . S
N219 C220 1.345 . S
N219 C222 1.336 . S
C220 N218 1.335 . S
C220 N219 1.345 . S
C220 H225 0.930 . S
C221 N218 1.390 . S
C221 C222 1.346 . S
C221 H226 0.930 . S
C222 N219 1.336 . S
C222 C221 1.346 . S
C222 H229 0.929 . S
C223 O213 1.282 . S
C223 O224 1.216 . S
O224 C223 1.216 . S
H225 C220 0.930 . S
H226 C221 0.930 . S
O227 Cu207 1.959 . S
O227 C214 1.251 . S
H228 C211 0.930 . S
H229 C222 0.929 . S
Cu230 N231 1.999 . S
Cu230 O236 1.974 . S
Cu230 N241 1.985 . S
Cu230 O250 1.959 . S
N231 Cu230 1.999 . S
N231 C233 1.263 . S
N231 C235 1.389 . S
N232 C233 1.358 . S
N232 C234 1.400 . S
C233 N231 1.263 . S
C233 N232 1.358 . S
C233 H239 0.930 . S
C234 N232 1.400 . S
C234 C235 1.351 . S
C234 H251 0.930 . S
C235 N231 1.389 . S
C235 C234 1.351 . S
C235 H240 0.930 . S
O236 Cu230 1.974 . S
O236 C246 1.282 . S
C237 O238 1.261 . S
C237 O250 1.251 . S
O238 C237 1.261 . S
H239 C233 0.930 . S
H240 C235 0.930 . S
N241 Cu230 1.985 . S
N241 C243 1.335 . S
N241 C244 1.390 . S
N242 C243 1.345 . S
N242 C245 1.336 . S
C243 N241 1.335 . S
C243 N242 1.345 . S
C243 H248 0.930 . S
C244 N241 1.390 . S
C244 C245 1.346 . S
C244 H249 0.930 . S
C245 N242 1.336 . S
C245 C244 1.346 . S
C245 H252 0.929 . S
C246 O236 1.282 . S
C246 O247 1.216 . S
O247 C246 1.216 . S
H248 C243 0.930 . S
H249 C244 0.930 . S
O250 Cu230 1.959 . S
O250 C237 1.251 . S
H251 C234 0.930 . S
H252 C245 0.929 . S
Cu253 N254 1.999 . S
Cu253 O259 1.974 . S
Cu253 N264 1.985 . S
Cu253 O273 1.959 . S
N254 Cu253 1.999 . S
N254 C256 1.263 . S
N254 C258 1.389 . S
N255 C256 1.358 . S
N255 C257 1.400 . S
C256 N254 1.263 . S
C256 N255 1.358 . S
C256 H262 0.930 . S
C257 N255 1.400 . S
C257 C258 1.351 . S
C257 H274 0.930 . S
C258 N254 1.389 . S
C258 C257 1.351 . S
C258 H263 0.930 . S
O259 Cu253 1.974 . S
O259 C269 1.282 . S
C260 O261 1.261 . S
C260 O273 1.251 . S
O261 C260 1.261 . S
H262 C256 0.930 . S
H263 C258 0.930 . S
N264 Cu253 1.985 . S
N264 C266 1.335 . S
N264 C267 1.390 . S
N265 C266 1.345 . S
N265 C268 1.336 . S
C266 N264 1.335 . S
C266 N265 1.345 . S
C266 H271 0.930 . S
C267 N264 1.390 . S
C267 C268 1.346 . S
C267 H272 0.930 . S
C268 N265 1.336 . S
C268 C267 1.346 . S
C268 H275 0.929 . S
C269 O259 1.282 . S
C269 O270 1.216 . S
O270 C269 1.216 . S
H271 C266 0.930 . S
H272 C267 0.930 . S
O273 Cu253 1.959 . S
O273 C260 1.251 . S
H274 C257 0.930 . S
H275 C268 0.929 . S
C276 C277 1.391 . S
C276 C278 1.394 . S
C276 H292 0.931 . S
C277 C276 1.391 . S
C277 C281 1.376 . S
C278 C276 1.394 . S
C278 C279 1.369 . S
C278 C282 1.531 . S
C279 C278 1.369 . S
C279 C280 1.410 . S
C279 C287 1.503 . S
C280 C279 1.410 . S
C280 C281 1.392 . S
C280 C283 1.511 . S
C281 C277 1.376 . S
C281 C280 1.392 . S
C281 H293 0.929 . S
C282 C278 1.531 . S
C282 H294 0.960 . S
C282 H295 0.962 . S
C282 H296 0.960 . S
C283 C280 1.511 . S
C283 H297 0.961 . S
C283 H298 0.961 . S
C283 H299 0.961 . S
C284 C285 1.370 . S
C284 C286 1.363 . S
C284 H300 0.931 . S
C285 C284 1.370 . S
C285 C289 1.408 . S
C286 C284 1.363 . S
C286 C287 1.370 . S
C286 C290 1.524 . S
C287 C279 1.503 . S
C287 C286 1.370 . S
C287 C288 1.403 . S
C288 C287 1.403 . S
C288 C289 1.404 . S
C288 C291 1.539 . S
C289 C285 1.408 . S
C289 C288 1.404 . S
C289 H301 0.930 . S
C290 C286 1.524 . S
C290 H302 0.956 . S
C290 H303 0.961 . S
C290 H304 0.961 . S
C291 C288 1.539 . S
C291 H305 0.958 . S
C291 H306 0.961 . S
C291 H307 0.960 . S
H292 C276 0.931 . S
H293 C281 0.929 . S
H294 C282 0.960 . S
H295 C282 0.962 . S
H296 C282 0.960 . S
H297 C283 0.961 . S
H298 C283 0.961 . S
H299 C283 0.961 . S
H300 C284 0.931 . S
H301 C289 0.930 . S
H302 C290 0.956 . S
H303 C290 0.961 . S
H304 C290 0.961 . S
H305 C291 0.958 . S
H306 C291 0.961 . S
H307 C291 0.960 . S
C308 C309 1.391 . S
C308 C310 1.394 . S
C308 H324 0.931 . S
C309 C308 1.391 . S
C309 C313 1.376 . S
C310 C308 1.394 . S
C310 C311 1.369 . S
C310 C314 1.531 . S
C311 C310 1.369 . S
C311 C312 1.410 . S
C311 C319 1.503 . S
C312 C311 1.410 . S
C312 C313 1.392 . S
C312 C315 1.511 . S
C313 C309 1.376 . S
C313 C312 1.392 . S
C313 H325 0.929 . S
C314 C310 1.531 . S
C314 H326 0.960 . S
C314 H327 0.962 . S
C314 H328 0.960 . S
C315 C312 1.511 . S
C315 H329 0.961 . S
C315 H330 0.961 . S
C315 H331 0.961 . S
C316 C317 1.370 . S
C316 C318 1.363 . S
C316 H332 0.931 . S
C317 C316 1.370 . S
C317 C321 1.408 . S
C318 C316 1.363 . S
C318 C319 1.370 . S
C318 C322 1.524 . S
C319 C311 1.503 . S
C319 C318 1.370 . S
C319 C320 1.403 . S
C320 C319 1.403 . S
C320 C321 1.404 . S
C320 C323 1.539 . S
C321 C317 1.408 . S
C321 C320 1.404 . S
C321 H333 0.930 . S
C322 C318 1.524 . S
C322 H334 0.956 . S
C322 H335 0.961 . S
C322 H336 0.961 . S
C323 C320 1.539 . S
C323 H337 0.958 . S
C323 H338 0.961 . S
C323 H339 0.960 . S
H324 C308 0.931 . S
H325 C313 0.929 . S
H326 C314 0.960 . S
H327 C314 0.962 . S
H328 C314 0.960 . S
H329 C315 0.961 . S
H330 C315 0.961 . S
H331 C315 0.961 . S
H332 C316 0.931 . S
H333 C321 0.930 . S
H334 C322 0.956 . S
H335 C322 0.961 . S
H336 C322 0.961 . S
H337 C323 0.958 . S
H338 C323 0.961 . S
H339 C323 0.960 . S
C340 C341 1.391 . S
C340 C342 1.394 . S
C340 H356 0.931 . S
C341 C340 1.391 . S
C341 C345 1.376 . S
C342 C340 1.394 . S
C342 C343 1.369 . S
C342 C346 1.531 . S
C343 C342 1.369 . S
C343 C344 1.410 . S
C343 C351 1.503 . S
C344 C343 1.410 . S
C344 C345 1.392 . S
C344 C347 1.511 . S
C345 C341 1.376 . S
C345 C344 1.392 . S
C345 H357 0.929 . S
C346 C342 1.531 . S
C346 H358 0.960 . S
C346 H359 0.962 . S
C346 H360 0.960 . S
C347 C344 1.511 . S
C347 H361 0.961 . S
C347 H362 0.961 . S
C347 H363 0.961 . S
C348 C349 1.370 . S
C348 C350 1.363 . S
C348 H364 0.931 . S
C349 C348 1.370 . S
C349 C353 1.408 . S
C350 C348 1.363 . S
C350 C351 1.370 . S
C350 C354 1.524 . S
C351 C343 1.503 . S
C351 C350 1.370 . S
C351 C352 1.403 . S
C352 C351 1.403 . S
C352 C353 1.404 . S
C352 C355 1.539 . S
C353 C349 1.408 . S
C353 C352 1.404 . S
C353 H365 0.930 . S
C354 C350 1.524 . S
C354 H366 0.956 . S
C354 H367 0.961 . S
C354 H368 0.961 . S
C355 C352 1.539 . S
C355 H369 0.958 . S
C355 H370 0.961 . S
C355 H371 0.960 . S
H356 C340 0.931 . S
H357 C345 0.929 . S
H358 C346 0.960 . S
H359 C346 0.962 . S
H360 C346 0.960 . S
H361 C347 0.961 . S
H362 C347 0.961 . S
H363 C347 0.961 . S
H364 C348 0.931 . S
H365 C353 0.930 . S
H366 C354 0.956 . S
H367 C354 0.961 . S
H368 C354 0.961 . S
H369 C355 0.958 . S
H370 C355 0.961 . S
H371 C355 0.960 . S
C372 C373 1.391 . S
C372 C374 1.394 . S
C372 H388 0.931 . S
C373 C372 1.391 . S
C373 C377 1.376 . S
C374 C372 1.394 . S
C374 C375 1.369 . S
C374 C378 1.531 . S
C375 C374 1.369 . S
C375 C376 1.410 . S
C375 C383 1.503 . S
C376 C375 1.410 . S
C376 C377 1.392 . S
C376 C379 1.511 . S
C377 C373 1.376 . S
C377 C376 1.392 . S
C377 H389 0.929 . S
C378 C374 1.531 . S
C378 H390 0.960 . S
C378 H391 0.962 . S
C378 H392 0.960 . S
C379 C376 1.511 . S
C379 H393 0.961 . S
C379 H394 0.961 . S
C379 H395 0.961 . S
C380 C381 1.370 . S
C380 C382 1.363 . S
C380 H396 0.931 . S
C381 C380 1.370 . S
C381 C385 1.408 . S
C382 C380 1.363 . S
C382 C383 1.370 . S
C382 C386 1.524 . S
C383 C375 1.503 . S
C383 C382 1.370 . S
C383 C384 1.403 . S
C384 C383 1.403 . S
C384 C385 1.404 . S
C384 C387 1.539 . S
C385 C381 1.408 . S
C385 C384 1.404 . S
C385 H397 0.930 . S
C386 C382 1.524 . S
C386 H398 0.956 . S
C386 H399 0.961 . S
C386 H400 0.961 . S
C387 C384 1.539 . S
C387 H401 0.958 . S
C387 H402 0.961 . S
C387 H403 0.960 . S
H388 C372 0.931 . S
H389 C377 0.929 . S
H390 C378 0.960 . S
H391 C378 0.962 . S
H392 C378 0.960 . S
H393 C379 0.961 . S
H394 C379 0.961 . S
H395 C379 0.961 . S
H396 C380 0.931 . S
H397 C385 0.930 . S
H398 C386 0.956 . S
H399 C386 0.961 . S
H400 C386 0.961 . S
H401 C387 0.958 . S
H402 C387 0.961 . S
H403 C387 0.960 . S
C404 C405 1.391 . S
C404 C406 1.394 . S
C404 H420 0.931 . S
C405 C404 1.391 . S
C405 C409 1.376 . S
C406 C404 1.394 . S
C406 C407 1.369 . S
C406 C410 1.531 . S
C407 C406 1.369 . S
C407 C408 1.410 . S
C407 C415 1.503 . S
C408 C407 1.410 . S
C408 C409 1.392 . S
C408 C411 1.511 . S
C409 C405 1.376 . S
C409 C408 1.392 . S
C409 H421 0.929 . S
C410 C406 1.531 . S
C410 H422 0.960 . S
C410 H423 0.962 . S
C410 H424 0.960 . S
C411 C408 1.511 . S
C411 H425 0.961 . S
C411 H426 0.961 . S
C411 H427 0.961 . S
C412 C413 1.370 . S
C412 C414 1.363 . S
C412 H428 0.931 . S
C413 C412 1.370 . S
C413 C417 1.408 . S
C414 C412 1.363 . S
C414 C415 1.370 . S
C414 C418 1.524 . S
C415 C407 1.503 . S
C415 C414 1.370 . S
C415 C416 1.403 . S
C416 C415 1.403 . S
C416 C417 1.404 . S
C416 C419 1.539 . S
C417 C413 1.408 . S
C417 C416 1.404 . S
C417 H429 0.930 . S
C418 C414 1.524 . S
C418 H430 0.956 . S
C418 H431 0.961 . S
C418 H432 0.961 . S
C419 C416 1.539 . S
C419 H433 0.958 . S
C419 H434 0.961 . S
C419 H435 0.960 . S
H420 C404 0.931 . S
H421 C409 0.929 . S
H422 C410 0.960 . S
H423 C410 0.962 . S
H424 C410 0.960 . S
H425 C411 0.961 . S
H426 C411 0.961 . S
H427 C411 0.961 . S
H428 C412 0.931 . S
H429 C417 0.930 . S
H430 C418 0.956 . S
H431 C418 0.961 . S
H432 C418 0.961 . S
H433 C419 0.958 . S
H434 C419 0.961 . S
H435 C419 0.960 . S
C436 C437 1.391 . S
C436 C438 1.394 . S
C436 H452 0.931 . S
C437 C436 1.391 . S
C437 C441 1.376 . S
C438 C436 1.394 . S
C438 C439 1.369 . S
C438 C442 1.531 . S
C439 C438 1.369 . S
C439 C440 1.410 . S
C439 C447 1.503 . S
C440 C439 1.410 . S
C440 C441 1.392 . S
C440 C443 1.511 . S
C441 C437 1.376 . S
C441 C440 1.392 . S
C441 H453 0.929 . S
C442 C438 1.531 . S
C442 H454 0.960 . S
C442 H455 0.962 . S
C442 H456 0.960 . S
C443 C440 1.511 . S
C443 H457 0.961 . S
C443 H458 0.961 . S
C443 H459 0.961 . S
C444 C445 1.370 . S
C444 C446 1.363 . S
C444 H460 0.931 . S
C445 C444 1.370 . S
C445 C449 1.408 . S
C446 C444 1.363 . S
C446 C447 1.370 . S
C446 C450 1.524 . S
C447 C439 1.503 . S
C447 C446 1.370 . S
C447 C448 1.403 . S
C448 C447 1.403 . S
C448 C449 1.404 . S
C448 C451 1.539 . S
C449 C445 1.408 . S
C449 C448 1.404 . S
C449 H461 0.930 . S
C450 C446 1.524 . S
C450 H462 0.956 . S
C450 H463 0.961 . S
C450 H464 0.961 . S
C451 C448 1.539 . S
C451 H465 0.958 . S
C451 H466 0.961 . S
C451 H467 0.960 . S
H452 C436 0.931 . S
H453 C441 0.929 . S
H454 C442 0.960 . S
H455 C442 0.962 . S
H456 C442 0.960 . S
H457 C443 0.961 . S
H458 C443 0.961 . S
H459 C443 0.961 . S
H460 C444 0.931 . S
H461 C449 0.930 . S
H462 C450 0.956 . S
H463 C450 0.961 . S
H464 C450 0.961 . S
H465 C451 0.958 . S
H466 C451 0.961 . S
H467 C451 0.960 . S
C468 C469 1.391 . S
C468 C470 1.394 . S
C468 H484 0.931 . S
C469 C468 1.391 . S
C469 C473 1.376 . S
C470 C468 1.394 . S
C470 C471 1.369 . S
C470 C474 1.531 . S
C471 C470 1.369 . S
C471 C472 1.410 . S
C471 C479 1.503 . S
C472 C471 1.410 . S
C472 C473 1.392 . S
C472 C475 1.511 . S
C473 C469 1.376 . S
C473 C472 1.392 . S
C473 H485 0.929 . S
C474 C470 1.531 . S
C474 H486 0.960 . S
C474 H487 0.962 . S
C474 H488 0.960 . S
C475 C472 1.511 . S
C475 H489 0.961 . S
C475 H490 0.961 . S
C475 H491 0.961 . S
C476 C477 1.370 . S
C476 C478 1.363 . S
C476 H492 0.931 . S
C477 C476 1.370 . S
C477 C481 1.408 . S
C478 C476 1.363 . S
C478 C479 1.370 . S
C478 C482 1.524 . S
C479 C471 1.503 . S
C479 C478 1.370 . S
C479 C480 1.403 . S
C480 C479 1.403 . S
C480 C481 1.404 . S
C480 C483 1.539 . S
C481 C477 1.408 . S
C481 C480 1.404 . S
C481 H493 0.930 . S
C482 C478 1.524 . S
C482 H494 0.956 . S
C482 H495 0.961 . S
C482 H496 0.961 . S
C483 C480 1.539 . S
C483 H497 0.958 . S
C483 H498 0.961 . S
C483 H499 0.960 . S
H484 C468 0.931 . S
H485 C473 0.929 . S
H486 C474 0.960 . S
H487 C474 0.962 . S
H488 C474 0.960 . S
H489 C475 0.961 . S
H490 C475 0.961 . S
H491 C475 0.961 . S
H492 C476 0.931 . S
H493 C481 0.930 . S
H494 C482 0.956 . S
H495 C482 0.961 . S
H496 C482 0.961 . S
H497 C483 0.958 . S
H498 C483 0.961 . S
H499 C483 0.960 . S
C500 C501 1.391 . S
C500 C502 1.394 . S
C500 H516 0.931 . S
C501 C500 1.391 . S
C501 C505 1.376 . S
C502 C500 1.394 . S
C502 C503 1.369 . S
C502 C506 1.531 . S
C503 C502 1.369 . S
C503 C504 1.410 . S
C503 C511 1.503 . S
C504 C503 1.410 . S
C504 C505 1.392 . S
C504 C507 1.511 . S
C505 C501 1.376 . S
C505 C504 1.392 . S
C505 H517 0.929 . S
C506 C502 1.531 . S
C506 H518 0.960 . S
C506 H519 0.962 . S
C506 H520 0.960 . S
C507 C504 1.511 . S
C507 H521 0.961 . S
C507 H522 0.961 . S
C507 H523 0.961 . S
C508 C509 1.370 . S
C508 C510 1.363 . S
C508 H524 0.931 . S
C509 C508 1.370 . S
C509 C513 1.408 . S
C510 C508 1.363 . S
C510 C511 1.370 . S
C510 C514 1.524 . S
C511 C503 1.503 . S
C511 C510 1.370 . S
C511 C512 1.403 . S
C512 C511 1.403 . S
C512 C513 1.404 . S
C512 C515 1.539 . S
C513 C509 1.408 . S
C513 C512 1.404 . S
C513 H525 0.930 . S
C514 C510 1.524 . S
C514 H526 0.956 . S
C514 H527 0.961 . S
C514 H528 0.961 . S
C515 C512 1.539 . S
C515 H529 0.958 . S
C515 H530 0.961 . S
C515 H531 0.960 . S
H516 C500 0.931 . S
H517 C505 0.929 . S
H518 C506 0.960 . S
H519 C506 0.962 . S
H520 C506 0.960 . S
H521 C507 0.961 . S
H522 C507 0.961 . S
H523 C507 0.961 . S
H524 C508 0.931 . S
H525 C513 0.930 . S
H526 C514 0.956 . S
H527 C514 0.961 . S
H528 C514 0.961 . S
H529 C515 0.958 . S
H530 C515 0.961 . S
H531 C515 0.960 . S
C532 C533 1.391 . S
C532 C534 1.394 . S
C532 H548 0.931 . S
C533 C532 1.391 . S
C533 C537 1.376 . S
C534 C532 1.394 . S
C534 C535 1.369 . S
C534 C538 1.531 . S
C535 C534 1.369 . S
C535 C536 1.410 . S
C535 C543 1.503 . S
C536 C535 1.410 . S
C536 C537 1.392 . S
C536 C539 1.511 . S
C537 C533 1.376 . S
C537 C536 1.392 . S
C537 H549 0.929 1_556 S
C538 C534 1.531 . S
C538 H550 0.960 . S
C538 H551 0.962 . S
C538 H552 0.960 . S
C539 C536 1.511 . S
C539 H553 0.961 . S
C539 H554 0.961 . S
C539 H555 0.961 . S
C540 C541 1.370 . S
C540 C542 1.363 . S
C540 H556 0.931 . S
C541 C540 1.370 . S
C541 C545 1.408 . S
C542 C540 1.363 . S
C542 C543 1.370 . S
C542 C546 1.524 . S
C543 C535 1.503 . S
C543 C542 1.370 . S
C543 C544 1.403 . S
C544 C543 1.403 . S
C544 C545 1.404 . S
C544 C547 1.539 . S
C545 C541 1.408 . S
C545 C544 1.404 . S
C545 H557 0.930 . S
C546 C542 1.524 . S
C546 H558 0.956 . S
C546 H559 0.961 . S
C546 H560 0.961 . S
C547 C544 1.539 . S
C547 H561 0.958 . S
C547 H562 0.961 . S
C547 H563 0.960 . S
H548 C532 0.931 . S
H549 C537 0.929 1_554 S
H550 C538 0.960 . S
H551 C538 0.962 . S
H552 C538 0.960 . S
H553 C539 0.961 . S
H554 C539 0.961 . S
H555 C539 0.961 . S
H556 C540 0.931 . S
H557 C545 0.930 . S
H558 C546 0.956 . S
H559 C546 0.961 . S
H560 C546 0.961 . S
H561 C547 0.958 . S
H562 C547 0.961 . S
H563 C547 0.960 . S
C564 C565 1.391 . S
C564 C566 1.394 . S
C564 H580 0.931 . S
C565 C564 1.391 . S
C565 C569 1.376 . S
C566 C564 1.394 . S
C566 C567 1.369 . S
C566 C570 1.531 . S
C567 C566 1.369 . S
C567 C568 1.410 . S
C567 C575 1.503 . S
C568 C567 1.410 . S
C568 C569 1.392 . S
C568 C571 1.511 . S
C569 C565 1.376 . S
C569 C568 1.392 . S
C569 H581 0.929 . S
C570 C566 1.531 . S
C570 H582 0.960 . S
C570 H583 0.962 . S
C570 H584 0.960 . S
C571 C568 1.511 . S
C571 H585 0.961 . S
C571 H586 0.961 . S
C571 H587 0.961 . S
C572 C573 1.370 . S
C572 C574 1.363 . S
C572 H588 0.931 . S
C573 C572 1.370 . S
C573 C577 1.408 1_554 S
C574 C572 1.363 . S
C574 C575 1.370 . S
C574 C578 1.524 . S
C575 C567 1.503 . S
C575 C574 1.370 . S
C575 C576 1.403 . S
C576 C575 1.403 . S
C576 C577 1.404 1_554 S
C576 C579 1.539 . S
C577 C573 1.408 1_556 S
C577 C576 1.404 1_556 S
C577 H589 0.930 . S
C578 C574 1.524 . S
C578 H590 0.956 . S
C578 H591 0.961 . S
C578 H592 0.961 . S
C579 C576 1.539 . S
C579 H593 0.958 . S
C579 H594 0.961 . S
C579 H595 0.960 . S
H580 C564 0.931 . S
H581 C569 0.929 . S
H582 C570 0.960 . S
H583 C570 0.962 . S
H584 C570 0.960 . S
H585 C571 0.961 . S
H586 C571 0.961 . S
H587 C571 0.961 . S
H588 C572 0.931 . S
H589 C577 0.930 . S
H590 C578 0.956 . S
H591 C578 0.961 . S
H592 C578 0.961 . S
H593 C579 0.958 . S
H594 C579 0.961 . S
H595 C579 0.960 . S
C596 C597 1.391 . S
C596 C598 1.394 . S
C596 H612 0.931 . S
C597 C596 1.391 . S
C597 C601 1.376 . S
C598 C596 1.394 . S
C598 C599 1.369 . S
C598 C602 1.531 . S
C599 C598 1.369 . S
C599 C600 1.410 . S
C599 C607 1.503 . S
C600 C599 1.410 . S
C600 C601 1.392 . S
C600 C603 1.511 . S
C601 C597 1.376 . S
C601 C600 1.392 . S
C601 H613 0.929 . S
C602 C598 1.531 . S
C602 H614 0.960 . S
C602 H615 0.962 . S
C602 H616 0.960 . S
C603 C600 1.511 . S
C603 H617 0.961 . S
C603 H618 0.961 . S
C603 H619 0.961 . S
C604 C605 1.370 . S
C604 C606 1.363 . S
C604 H620 0.931 . S
C605 C604 1.370 . S
C605 C609 1.408 . S
C606 C604 1.363 . S
C606 C607 1.370 . S
C606 C610 1.524 . S
C607 C599 1.503 . S
C607 C606 1.370 . S
C607 C608 1.403 . S
C608 C607 1.403 . S
C608 C609 1.404 . S
C608 C611 1.539 . S
C609 C605 1.408 . S
C609 C608 1.404 . S
C609 H621 0.930 . S
C610 C606 1.524 . S
C610 H622 0.956 . S
C610 H623 0.961 . S
C610 H624 0.961 . S
C611 C608 1.539 . S
C611 H625 0.958 . S
C611 H626 0.961 . S
C611 H627 0.960 . S
H612 C596 0.931 . S
H613 C601 0.929 . S
H614 C602 0.960 . S
H615 C602 0.962 . S
H616 C602 0.960 . S
H617 C603 0.961 . S
H618 C603 0.961 . S
H619 C603 0.961 . S
H620 C604 0.931 . S
H621 C609 0.930 . S
H622 C610 0.956 . S
H623 C610 0.961 . S
H624 C610 0.961 . S
H625 C611 0.958 . S
H626 C611 0.961 . S
H627 C611 0.960 . S
C628 C629 1.391 . S
C628 C630 1.394 . S
C628 H644 0.931 . S
C629 C628 1.391 . S
C629 C633 1.376 . S
C630 C628 1.394 . S
C630 C631 1.369 . S
C630 C634 1.531 . S
C631 C630 1.369 . S
C631 C632 1.410 . S
C631 C639 1.503 . S
C632 C631 1.410 . S
C632 C633 1.392 . S
C632 C635 1.511 . S
C633 C629 1.376 . S
C633 C632 1.392 . S
C633 H645 0.929 . S
C634 C630 1.531 . S
C634 H646 0.960 . S
C634 H647 0.962 . S
C634 H648 0.960 . S
C635 C632 1.511 . S
C635 H649 0.961 . S
C635 H650 0.961 . S
C635 H651 0.961 . S
C636 C637 1.370 . S
C636 C638 1.363 . S
C636 H652 0.931 . S
C637 C636 1.370 . S
C637 C641 1.408 . S
C638 C636 1.363 . S
C638 C639 1.370 . S
C638 C642 1.524 . S
C639 C631 1.503 . S
C639 C638 1.370 . S
C639 C640 1.403 . S
C640 C639 1.403 . S
C640 C641 1.404 . S
C640 C643 1.539 . S
C641 C637 1.408 . S
C641 C640 1.404 . S
C641 H653 0.930 . S
C642 C638 1.524 . S
C642 H654 0.956 . S
C642 H655 0.961 . S
C642 H656 0.961 . S
C643 C640 1.539 . S
C643 H657 0.958 . S
C643 H658 0.961 . S
C643 H659 0.960 . S
H644 C628 0.931 . S
H645 C633 0.929 . S
H646 C634 0.960 . S
H647 C634 0.962 . S
H648 C634 0.960 . S
H649 C635 0.961 . S
H650 C635 0.961 . S
H651 C635 0.961 . S
H652 C636 0.931 . S
H653 C641 0.930 . S
H654 C642 0.956 . S
H655 C642 0.961 . S
H656 C642 0.961 . S
H657 C643 0.958 . S
H658 C643 0.961 . S
H659 C643 0.960 . S
C660 C661 1.391 . S
C660 C662 1.394 . S
C660 H676 0.931 . S
C661 C660 1.391 . S
C661 C665 1.376 . S
C662 C660 1.394 . S
C662 C663 1.369 . S
C662 C666 1.531 1_655 S
C663 C662 1.369 . S
C663 C664 1.410 . S
C663 C671 1.503 1_655 S
C664 C663 1.410 . S
C664 C665 1.392 . S
C664 C667 1.511 . S
C665 C661 1.376 . S
C665 C664 1.392 . S
C665 H677 0.929 . S
C666 C662 1.531 1_455 S
C666 H678 0.960 . S
C666 H679 0.962 . S
C666 H680 0.960 . S
C667 C664 1.511 . S
C667 H681 0.961 . S
C667 H682 0.961 . S
C667 H683 0.961 . S
C668 C669 1.370 . S
C668 C670 1.363 . S
C668 H684 0.931 . S
C669 C668 1.370 . S
C669 C673 1.408 . S
C670 C668 1.363 . S
C670 C671 1.370 . S
C670 C674 1.524 . S
C671 C663 1.503 1_455 S
C671 C670 1.370 . S
C671 C672 1.403 . S
C672 C671 1.403 . S
C672 C673 1.404 . S
C672 C675 1.539 . S
C673 C669 1.408 . S
C673 C672 1.404 . S
C673 H685 0.930 . S
C674 C670 1.524 . S
C674 H686 0.956 . S
C674 H687 0.961 1_455 S
C674 H688 0.961 . S
C675 C672 1.539 . S
C675 H689 0.958 . S
C675 H690 0.961 . S
C675 H691 0.960 1_455 S
H676 C660 0.931 . S
H677 C665 0.929 . S
H678 C666 0.960 . S
H679 C666 0.962 . S
H680 C666 0.960 . S
H681 C667 0.961 . S
H682 C667 0.961 . S
H683 C667 0.961 . S
H684 C668 0.931 . S
H685 C673 0.930 . S
H686 C674 0.956 . S
H687 C674 0.961 1_655 S
H688 C674 0.961 . S
H689 C675 0.958 . S
H690 C675 0.961 . S
H691 C675 0.960 1_655 S
C692 C693 1.391 . S
C692 C694 1.394 . S
C692 H708 0.931 . S
C693 C692 1.391 . S
C693 C697 1.376 . S
C694 C692 1.394 . S
C694 C695 1.369 . S
C694 C698 1.531 1_565 S
C695 C694 1.369 . S
C695 C696 1.410 . S
C695 C703 1.503 1_565 S
C696 C695 1.410 . S
C696 C697 1.392 . S
C696 C699 1.511 . S
C697 C693 1.376 . S
C697 C696 1.392 . S
C697 H709 0.929 . S
C698 C694 1.531 1_545 S
C698 H710 0.960 . S
C698 H711 0.962 . S
C698 H712 0.960 . S
C699 C696 1.511 . S
C699 H713 0.961 . S
C699 H714 0.961 . S
C699 H715 0.961 . S
C700 C701 1.370 . S
C700 C702 1.363 . S
C700 H716 0.931 . S
C701 C700 1.370 . S
C701 C705 1.408 . S
C702 C700 1.363 . S
C702 C703 1.370 . S
C702 C706 1.524 . S
C703 C695 1.503 1_545 S
C703 C702 1.370 . S
C703 C704 1.403 . S
C704 C703 1.403 . S
C704 C705 1.404 . S
C704 C707 1.539 . S
C705 C701 1.408 . S
C705 C704 1.404 . S
C705 H717 0.930 . S
C706 C702 1.524 . S
C706 H718 0.956 . S
C706 H719 0.961 1_545 S
C706 H720 0.961 . S
C707 C704 1.539 . S
C707 H721 0.958 . S
C707 H722 0.961 . S
C707 H723 0.960 1_545 S
H708 C692 0.931 . S
H709 C697 0.929 . S
H710 C698 0.960 . S
H711 C698 0.962 . S
H712 C698 0.960 . S
H713 C699 0.961 . S
H714 C699 0.961 . S
H715 C699 0.961 . S
H716 C700 0.931 . S
H717 C705 0.930 . S
H718 C706 0.956 . S
H719 C706 0.961 1_565 S
H720 C706 0.961 . S
H721 C707 0.958 . S
H722 C707 0.961 . S
H723 C707 0.960 1_565 S
C724 C725 1.391 . S
C724 C726 1.394 . S
C724 H740 0.931 . S
C725 C724 1.391 . S
C725 C729 1.376 . S
C726 C724 1.394 . S
C726 C727 1.369 . S
C726 C730 1.531 . S
C727 C726 1.369 . S
C727 C728 1.410 . S
C727 C735 1.503 . S
C728 C727 1.410 . S
C728 C729 1.392 . S
C728 C731 1.511 . S
C729 C725 1.376 . S
C729 C728 1.392 . S
C729 H741 0.929 . S
C730 C726 1.531 . S
C730 H742 0.960 . S
C730 H743 0.962 . S
C730 H744 0.960 . S
C731 C728 1.511 . S
C731 H745 0.961 . S
C731 H746 0.961 . S
C731 H747 0.961 . S
C732 C733 1.370 . S
C732 C734 1.363 . S
C732 H748 0.931 . S
C733 C732 1.370 . S
C733 C737 1.408 . S
C734 C732 1.363 . S
C734 C735 1.370 . S
C734 C738 1.524 . S
C735 C727 1.503 . S
C735 C734 1.370 . S
C735 C736 1.403 . S
C736 C735 1.403 . S
C736 C737 1.404 . S
C736 C739 1.539 . S
C737 C733 1.408 . S
C737 C736 1.404 . S
C737 H749 0.930 . S
C738 C734 1.524 . S
C738 H750 0.956 . S
C738 H751 0.961 . S
C738 H752 0.961 . S
C739 C736 1.539 . S
C739 H753 0.958 . S
C739 H754 0.961 . S
C739 H755 0.960 . S
H740 C724 0.931 . S
H741 C729 0.929 . S
H742 C730 0.960 . S
H743 C730 0.962 . S
H744 C730 0.960 . S
H745 C731 0.961 . S
H746 C731 0.961 . S
H747 C731 0.961 . S
H748 C732 0.931 . S
H749 C737 0.930 . S
H750 C738 0.956 . S
H751 C738 0.961 . S
H752 C738 0.961 . S
H753 C739 0.958 . S
H754 C739 0.961 . S
H755 C739 0.960 . S
C756 C757 1.391 . S
C756 C758 1.394 . S
C756 H772 0.931 . S
C757 C756 1.391 . S
C757 C761 1.376 . S
C758 C756 1.394 . S
C758 C759 1.369 . S
C758 C762 1.531 1_455 S
C759 C758 1.369 . S
C759 C760 1.410 . S
C759 C767 1.503 1_455 S
C760 C759 1.410 . S
C760 C761 1.392 . S
C760 C763 1.511 . S
C761 C757 1.376 . S
C761 C760 1.392 . S
C761 H773 0.929 . S
C762 C758 1.531 1_655 S
C762 H774 0.960 . S
C762 H775 0.962 . S
C762 H776 0.960 . S
C763 C760 1.511 . S
C763 H777 0.961 . S
C763 H778 0.961 . S
C763 H779 0.961 . S
C764 C765 1.370 . S
C764 C766 1.363 . S
C764 H780 0.931 . S
C765 C764 1.370 . S
C765 C769 1.408 . S
C766 C764 1.363 . S
C766 C767 1.370 . S
C766 C770 1.524 . S
C767 C759 1.503 1_655 S
C767 C766 1.370 . S
C767 C768 1.403 . S
C768 C767 1.403 . S
C768 C769 1.404 . S
C768 C771 1.539 . S
C769 C765 1.408 . S
C769 C768 1.404 . S
C769 H781 0.930 . S
C770 C766 1.524 . S
C770 H782 0.956 . S
C770 H783 0.961 . S
C770 H784 0.961 . S
C771 C768 1.539 . S
C771 H785 0.958 . S
C771 H786 0.961 . S
C771 H787 0.960 1_655 S
H772 C756 0.931 . S
H773 C761 0.929 . S
H774 C762 0.960 . S
H775 C762 0.962 . S
H776 C762 0.960 . S
H777 C763 0.961 . S
H778 C763 0.961 . S
H779 C763 0.961 . S
H780 C764 0.931 . S
H781 C769 0.930 . S
H782 C770 0.956 . S
H783 C770 0.961 . S
H784 C770 0.961 . S
H785 C771 0.958 . S
H786 C771 0.961 . S
H787 C771 0.960 1_455 S
C788 C789 1.391 . S
C788 C790 1.394 . S
C788 H804 0.931 . S
C789 C788 1.391 . S
C789 C793 1.376 . S
C790 C788 1.394 . S
C790 C791 1.369 . S
C790 C794 1.531 1_545 S
C791 C790 1.369 . S
C791 C792 1.410 1_556 S
C791 C799 1.503 1_546 S
C792 C791 1.410 1_554 S
C792 C793 1.392 1_554 S
C792 C795 1.511 . S
C793 C789 1.376 . S
C793 C792 1.392 1_556 S
C793 H805 0.929 . S
C794 C790 1.531 1_565 S
C794 H806 0.960 . S
C794 H807 0.962 . S
C794 H808 0.960 . S
C795 C792 1.511 . S
C795 H809 0.961 . S
C795 H810 0.961 . S
C795 H811 0.961 . S
C796 C797 1.370 . S
C796 C798 1.363 . S
C796 H812 0.931 . S
C797 C796 1.370 . S
C797 C801 1.408 . S
C798 C796 1.363 . S
C798 C799 1.370 . S
C798 C802 1.524 1_565 S
C799 C791 1.503 1_564 S
C799 C798 1.370 . S
C799 C800 1.403 . S
C800 C799 1.403 . S
C800 C801 1.404 . S
C800 C803 1.539 1_554 S
C801 C797 1.408 . S
C801 C800 1.404 . S
C801 H813 0.930 . S
C802 C798 1.524 1_545 S
C802 H814 0.956 . S
C802 H815 0.961 . S
C802 H816 0.961 1_545 S
C803 C800 1.539 1_556 S
C803 H817 0.958 . S
C803 H818 0.961 . S
C803 H819 0.960 . S
H804 C788 0.931 . S
H805 C793 0.929 . S
H806 C794 0.960 . S
H807 C794 0.962 . S
H808 C794 0.960 . S
H809 C795 0.961 . S
H810 C795 0.961 . S
H811 C795 0.961 . S
H812 C796 0.931 . S
H813 C801 0.930 . S
H814 C802 0.956 . S
H815 C802 0.961 . S
H816 C802 0.961 1_565 S
H817 C803 0.958 . S
H818 C803 0.961 . S
H819 C803 0.960 . S
C820 C821 1.391 . S
C820 C822 1.394 . S
C820 H836 0.931 . S
C821 C820 1.391 . S
C821 C825 1.376 . S
C822 C820 1.394 . S
C822 C823 1.369 . S
C822 C826 1.531 . S
C823 C822 1.369 . S
C823 C824 1.410 . S
C823 C831 1.503 . S
C824 C823 1.410 . S
C824 C825 1.392 . S
C824 C827 1.511 . S
C825 C821 1.376 . S
C825 C824 1.392 . S
C825 H837 0.929 . S
C826 C822 1.531 . S
C826 H838 0.960 . S
C826 H839 0.962 . S
C826 H840 0.960 . S
C827 C824 1.511 . S
C827 H841 0.961 . S
C827 H842 0.961 . S
C827 H843 0.961 . S
C828 C829 1.370 . S
C828 C830 1.363 . S
C828 H844 0.931 . S
C829 C828 1.370 . S
C829 C833 1.408 . S
C830 C828 1.363 . S
C830 C831 1.370 . S
C830 C834 1.524 . S
C831 C823 1.503 . S
C831 C830 1.370 . S
C831 C832 1.403 . S
C832 C831 1.403 . S
C832 C833 1.404 . S
C832 C835 1.539 . S
C833 C829 1.408 . S
C833 C832 1.404 . S
C833 H845 0.930 . S
C834 C830 1.524 . S
C834 H846 0.956 . S
C834 H847 0.961 . S
C834 H848 0.961 . S
C835 C832 1.539 . S
C835 H849 0.958 . S
C835 H850 0.961 . S
C835 H851 0.960 . S
H836 C820 0.931 . S
H837 C825 0.929 . S
H838 C826 0.960 . S
H839 C826 0.962 . S
H840 C826 0.960 . S
H841 C827 0.961 . S
H842 C827 0.961 . S
H843 C827 0.961 . S
H844 C828 0.931 . S
H845 C833 0.930 . S
H846 C834 0.956 . S
H847 C834 0.961 . S
H848 C834 0.961 . S
H849 C835 0.958 . S
H850 C835 0.961 . S
H851 C835 0.960 . S
C852 C853 1.391 . S
C852 C854 1.394 . S
C852 H868 0.931 . S
C853 C852 1.391 . S
C853 C857 1.376 . S
C854 C852 1.394 . S
C854 C855 1.369 . S
C854 C858 1.531 . S
C855 C854 1.369 . S
C855 C856 1.410 . S
C855 C863 1.503 . S
C856 C855 1.410 . S
C856 C857 1.392 . S
C856 C859 1.511 . S
C857 C853 1.376 . S
C857 C856 1.392 . S
C857 H869 0.929 . S
C858 C854 1.531 . S
C858 H870 0.960 . S
C858 H871 0.962 . S
C858 H872 0.960 . S
C859 C856 1.511 . S
C859 H873 0.961 . S
C859 H874 0.961 . S
C859 H875 0.961 . S
C860 C861 1.370 . S
C860 C862 1.363 . S
C860 H876 0.931 . S
C861 C860 1.370 . S
C861 C865 1.408 . S
C862 C860 1.363 . S
C862 C863 1.370 . S
C862 C866 1.524 . S
C863 C855 1.503 . S
C863 C862 1.370 . S
C863 C864 1.403 . S
C864 C863 1.403 . S
C864 C865 1.404 . S
C864 C867 1.539 . S
C865 C861 1.408 . S
C865 C864 1.404 . S
C865 H877 0.930 . S
C866 C862 1.524 . S
C866 H878 0.956 . S
C866 H879 0.961 . S
C866 H880 0.961 . S
C867 C864 1.539 . S
C867 H881 0.958 . S
C867 H882 0.961 . S
C867 H883 0.960 . S
H868 C852 0.931 . S
H869 C857 0.929 . S
H870 C858 0.960 . S
H871 C858 0.962 . S
H872 C858 0.960 . S
H873 C859 0.961 . S
H874 C859 0.961 . S
H875 C859 0.961 . S
H876 C860 0.931 . S
H877 C865 0.930 . S
H878 C866 0.956 . S
H879 C866 0.961 . S
H880 C866 0.961 . S
H881 C867 0.958 . S
H882 C867 0.961 . S
H883 C867 0.960 . S
C884 C885 1.391 . S
C884 C886 1.394 . S
C884 H900 0.931 . S
C885 C884 1.391 . S
C885 C889 1.376 . S
C886 C884 1.394 . S
C886 C887 1.369 . S
C886 C890 1.531 . S
C887 C886 1.369 . S
C887 C888 1.410 . S
C887 C895 1.503 . S
C888 C887 1.410 . S
C888 C889 1.392 . S
C888 C891 1.511 . S
C889 C885 1.376 . S
C889 C888 1.392 . S
C889 H901 0.929 . S
C890 C886 1.531 . S
C890 H902 0.960 . S
C890 H903 0.962 . S
C890 H904 0.960 . S
C891 C888 1.511 . S
C891 H905 0.961 . S
C891 H906 0.961 . S
C891 H907 0.961 . S
C892 C893 1.370 . S
C892 C894 1.363 . S
C892 H908 0.931 . S
C893 C892 1.370 . S
C893 C897 1.408 . S
C894 C892 1.363 . S
C894 C895 1.370 . S
C894 C898 1.524 . S
C895 C887 1.503 . S
C895 C894 1.370 . S
C895 C896 1.403 . S
C896 C895 1.403 . S
C896 C897 1.404 . S
C896 C899 1.539 . S
C897 C893 1.408 . S
C897 C896 1.404 . S
C897 H909 0.930 . S
C898 C894 1.524 . S
C898 H910 0.956 . S
C898 H911 0.961 . S
C898 H912 0.961 . S
C899 C896 1.539 . S
C899 H913 0.958 . S
C899 H914 0.961 . S
C899 H915 0.960 . S
H900 C884 0.931 . S
H901 C889 0.929 . S
H902 C890 0.960 . S
H903 C890 0.962 . S
H904 C890 0.960 . S
H905 C891 0.961 . S
H906 C891 0.961 . S
H907 C891 0.961 . S
H908 C892 0.931 . S
H909 C897 0.930 . S
H910 C898 0.956 . S
H911 C898 0.961 . S
H912 C898 0.961 . S
H913 C899 0.958 . S
H914 C899 0.961 . S
H915 C899 0.960 . S
C916 C917 1.391 . S
C916 C918 1.394 . S
C916 H932 0.931 . S
C917 C916 1.391 . S
C917 C921 1.376 . S
C918 C916 1.394 . S
C918 C919 1.369 . S
C918 C922 1.531 . S
C919 C918 1.369 . S
C919 C920 1.410 . S
C919 C927 1.503 . S
C920 C919 1.410 . S
C920 C921 1.392 . S
C920 C923 1.511 . S
C921 C917 1.376 . S
C921 C920 1.392 . S
C921 H933 0.929 . S
C922 C918 1.531 . S
C922 H934 0.960 . S
C922 H935 0.962 . S
C922 H936 0.960 . S
C923 C920 1.511 . S
C923 H937 0.961 . S
C923 H938 0.961 . S
C923 H939 0.961 . S
C924 C925 1.370 . S
C924 C926 1.363 . S
C924 H940 0.931 . S
C925 C924 1.370 . S
C925 C929 1.408 . S
C926 C924 1.363 . S
C926 C927 1.370 . S
C926 C930 1.524 . S
C927 C919 1.503 . S
C927 C926 1.370 . S
C927 C928 1.403 . S
C928 C927 1.403 . S
C928 C929 1.404 . S
C928 C931 1.539 . S
C929 C925 1.408 . S
C929 C928 1.404 . S
C929 H941 0.930 . S
C930 C926 1.524 . S
C930 H942 0.956 . S
C930 H943 0.961 . S
C930 H944 0.961 . S
C931 C928 1.539 . S
C931 H945 0.958 . S
C931 H946 0.961 . S
C931 H947 0.960 . S
H932 C916 0.931 . S
H933 C921 0.929 . S
H934 C922 0.960 . S
H935 C922 0.962 . S
H936 C922 0.960 . S
H937 C923 0.961 . S
H938 C923 0.961 . S
H939 C923 0.961 . S
H940 C924 0.931 . S
H941 C929 0.930 . S
H942 C930 0.956 . S
H943 C930 0.961 . S
H944 C930 0.961 . S
H945 C931 0.958 . S
H946 C931 0.961 . S
H947 C931 0.960 . S
C948 C949 1.391 . S
C948 C950 1.394 . S
C948 H964 0.931 . S
C949 C948 1.391 . S
C949 C953 1.376 . S
C950 C948 1.394 . S
C950 C951 1.369 . S
C950 C954 1.531 . S
C951 C950 1.369 . S
C951 C952 1.410 . S
C951 C959 1.503 . S
C952 C951 1.410 . S
C952 C953 1.392 . S
C952 C955 1.511 . S
C953 C949 1.376 . S
C953 C952 1.392 . S
C953 H965 0.929 . S
C954 C950 1.531 . S
C954 H966 0.960 . S
C954 H967 0.962 . S
C954 H968 0.960 . S
C955 C952 1.511 . S
C955 H969 0.961 . S
C955 H970 0.961 . S
C955 H971 0.961 . S
C956 C957 1.370 . S
C956 C958 1.363 . S
C956 H972 0.931 . S
C957 C956 1.370 . S
C957 C961 1.408 . S
C958 C956 1.363 . S
C958 C959 1.370 . S
C958 C962 1.524 . S
C959 C951 1.503 . S
C959 C958 1.370 . S
C959 C960 1.403 . S
C960 C959 1.403 . S
C960 C961 1.404 . S
C960 C963 1.539 . S
C961 C957 1.408 . S
C961 C960 1.404 . S
C961 H973 0.930 . S
C962 C958 1.524 . S
C962 H974 0.956 . S
C962 H975 0.961 . S
C962 H976 0.961 . S
C963 C960 1.539 . S
C963 H977 0.958 . S
C963 H978 0.961 . S
C963 H979 0.960 . S
H964 C948 0.931 . S
H965 C953 0.929 . S
H966 C954 0.960 . S
H967 C954 0.962 . S
H968 C954 0.960 . S
H969 C955 0.961 . S
H970 C955 0.961 . S
H971 C955 0.961 . S
H972 C956 0.931 . S
H973 C961 0.930 . S
H974 C962 0.956 . S
H975 C962 0.961 . S
H976 C962 0.961 . S
H977 C963 0.958 . S
H978 C963 0.961 . S
H979 C963 0.960 . S
C980 C981 1.391 . S
C980 C982 1.394 . S
C980 H996 0.931 . S
C981 C980 1.391 . S
C981 C985 1.376 . S
C982 C980 1.394 . S
C982 C983 1.369 . S
C982 C986 1.531 . S
C983 C982 1.369 . S
C983 C984 1.410 . S
C983 C991 1.503 . S
C984 C983 1.410 . S
C984 C985 1.392 . S
C984 C987 1.511 . S
C985 C981 1.376 . S
C985 C984 1.392 . S
C985 H997 0.929 . S
C986 C982 1.531 . S
C986 H998 0.960 . S
C986 H999 0.962 . S
C986 H1000 0.960 . S
C987 C984 1.511 . S
C987 H1001 0.961 . S
C987 H1002 0.961 . S
C987 H1003 0.961 . S
C988 C989 1.370 . S
C988 C990 1.363 . S
C988 H1004 0.931 . S
C989 C988 1.370 . S
C989 C993 1.408 . S
C990 C988 1.363 . S
C990 C991 1.370 . S
C990 C994 1.524 . S
C991 C983 1.503 . S
C991 C990 1.370 . S
C991 C992 1.403 . S
C992 C991 1.403 . S
C992 C993 1.404 . S
C992 C995 1.539 . S
C993 C989 1.408 . S
C993 C992 1.404 . S
C993 H1005 0.930 . S
C994 C990 1.524 . S
C994 H1006 0.956 . S
C994 H1007 0.961 . S
C994 H1008 0.961 . S
C995 C992 1.539 . S
C995 H1009 0.958 . S
C995 H1010 0.961 . S
C995 H1011 0.960 . S
H996 C980 0.931 . S
H997 C985 0.929 . S
H998 C986 0.960 . S
H999 C986 0.962 . S
H1000 C986 0.960 . S
H1001 C987 0.961 . S
H1002 C987 0.961 . S
H1003 C987 0.961 . S
H1004 C988 0.931 . S
H1005 C993 0.930 . S
H1006 C994 0.956 . S
H1007 C994 0.961 . S
H1008 C994 0.961 . S
H1009 C995 0.958 . S
H1010 C995 0.961 . S
H1011 C995 0.960 . S
C1012 C1013 1.391 . S
C1012 C1014 1.394 . S
C1012 H1028 0.931 . S
C1013 C1012 1.391 . S
C1013 C1017 1.376 . S
C1014 C1012 1.394 . S
C1014 C1015 1.369 . S
C1014 C1018 1.531 . S
C1015 C1014 1.369 . S
C1015 C1016 1.410 . S
C1015 C1023 1.503 . S
C1016 C1015 1.410 . S
C1016 C1017 1.392 . S
C1016 C1019 1.511 . S
C1017 C1013 1.376 . S
C1017 C1016 1.392 . S
C1017 H1029 0.929 . S
C1018 C1014 1.531 . S
C1018 H1030 0.960 . S
C1018 H1031 0.962 . S
C1018 H1032 0.960 . S
C1019 C1016 1.511 . S
C1019 H1033 0.961 . S
C1019 H1034 0.961 . S
C1019 H1035 0.961 . S
C1020 C1021 1.370 . S
C1020 C1022 1.363 . S
C1020 H1036 0.931 . S
C1021 C1020 1.370 . S
C1021 C1025 1.408 . S
C1022 C1020 1.363 . S
C1022 C1023 1.370 . S
C1022 C1026 1.524 . S
C1023 C1015 1.503 . S
C1023 C1022 1.370 . S
C1023 C1024 1.403 . S
C1024 C1023 1.403 . S
C1024 C1025 1.404 . S
C1024 C1027 1.539 . S
C1025 C1021 1.408 . S
C1025 C1024 1.404 . S
C1025 H1037 0.930 1_554 S
C1026 C1022 1.524 . S
C1026 H1038 0.956 . S
C1026 H1039 0.961 . S
C1026 H1040 0.961 . S
C1027 C1024 1.539 . S
C1027 H1041 0.958 . S
C1027 H1042 0.961 . S
C1027 H1043 0.960 . S
H1028 C1012 0.931 . S
H1029 C1017 0.929 . S
H1030 C1018 0.960 . S
H1031 C1018 0.962 . S
H1032 C1018 0.960 . S
H1033 C1019 0.961 . S
H1034 C1019 0.961 . S
H1035 C1019 0.961 . S
H1036 C1020 0.931 . S
H1037 C1025 0.930 1_556 S
H1038 C1026 0.956 . S
H1039 C1026 0.961 . S
H1040 C1026 0.961 . S
H1041 C1027 0.958 . S
H1042 C1027 0.961 . S
H1043 C1027 0.960 . S
C277 N2 1.288 . S
C285 N140 1.314 . S
C309 N25 1.327 . S
C317 N163 1.330 . S
C341 N186 1.278 . S
C349 N48 1.309 . S
C373 N71 1.293 . S
C381 N209 1.304 . S
C405 N94 1.351 . S
C413 N232 1.337 . S
C437 N255 1.278 . S
C445 N117 1.308 . S
C469 C191 1.448 . S
C477 C7 1.441 . S
C501 C30 1.452 . S
C509 C214 1.431 . S
C533 C237 1.410 1_556 S
C541 C53 1.415 . S
C565 C260 1.421 . S
C573 C76 1.417 1_554 S
C597 C99 1.400 . S
C605 C145 1.415 . S
C629 C122 1.456 . S
C637 C168 1.436 . S
C661 N265 1.823 . S
C669 N12 1.824 . S
C693 N150 1.817 . S
C701 N35 1.827 . S
C725 N58 1.795 . S
C733 N173 1.833 . S
C757 N196 1.806 . S
C765 N81 1.830 . S
C789 N219 1.836 . S
C797 N104 1.818 . S
C821 N242 1.785 . S
C829 N127 1.834 . S
C853 C16 1.723 . S
C861 C246 1.715 . S
C885 C269 1.699 . S
C893 C39 1.718 . S
C917 C62 1.710 . S
C925 C154 1.721 . S
C949 C85 1.711 . S
C957 C177 1.720 . S
C981 C108 1.723 1_556 S
C989 C200 1.710 . S
C1013 C131 1.724 . S
C1021 C223 1.714 1_554 S
