# Generated by pormake.
# Topology ulj, (4)-cn, num edge types: 1
# Building blocks:
#     Node 0, Type 0, BuildingBlock: NAWXER_clean_sbu_0, # of connection points: 4
#     Node 1, Type 0, BuildingBlock: NAWXER_clean_sbu_0, # of connection points: 4
#     Node 2, Type 0, BuildingBlock: NAWXER_clean_sbu_0, # of connection points: 4
#     Node 3, Type 0, BuildingBlock: NAWXER_clean_sbu_0, # of connection points: 4
#     Node 4, Type 0, BuildingBlock: NAWXER_clean_sbu_0, # of connection points: 4
#     Node 5, Type 0, BuildingBlock: NAWXER_clean_sbu_0, # of connection points: 4
#     Node 6, Type 0, BuildingBlock: NAWXER_clean_sbu_0, # of connection points: 4
#     Node 7, Type 0, BuildingBlock: NAWXER_clean_sbu_0, # of connection points: 4
#     Node 8, Type 0, BuildingBlock: NAWXER_clean_sbu_0, # of connection points: 4
#     Node 9, Type 0, BuildingBlock: NAWXER_clean_sbu_0, # of connection points: 4
#     Node 10, Type 0, BuildingBlock: NAWXER_clean_sbu_0, # of connection points: 4
#     Node 11, Type 0, BuildingBlock: NAWXER_clean_sbu_0, # of connection points: 4
#     Node 12, Type 0, BuildingBlock: NAWXER_clean_sbu_0, # of connection points: 4
#     Node 13, Type 0, BuildingBlock: NAWXER_clean_sbu_0, # of connection points: 4
#     Node 14, Type 0, BuildingBlock: NAWXER_clean_sbu_0, # of connection points: 4
#     Node 15, Type 0, BuildingBlock: NAWXER_clean_sbu_0, # of connection points: 4
#     Node 16, Type 0, BuildingBlock: NAWXER_clean_sbu_0, # of connection points: 4
#     Node 17, Type 0, BuildingBlock: NAWXER_clean_sbu_0, # of connection points: 4
#     Node 18, Type 0, BuildingBlock: NAWXER_clean_sbu_0, # of connection points: 4
#     Node 19, Type 0, BuildingBlock: NAWXER_clean_sbu_0, # of connection points: 4
#     Node 20, Type 0, BuildingBlock: NAWXER_clean_sbu_0, # of connection points: 4
#     Node 21, Type 0, BuildingBlock: NAWXER_clean_sbu_0, # of connection points: 4
#     Node 22, Type 0, BuildingBlock: NAWXER_clean_sbu_0, # of connection points: 4
#     Node 23, Type 0, BuildingBlock: NAWXER_clean_sbu_0, # of connection points: 4
#     Node 24, Type 0, BuildingBlock: NAWXER_clean_sbu_0, # of connection points: 4
#     Node 25, Type 0, BuildingBlock: NAWXER_clean_sbu_0, # of connection points: 4
#     Node 26, Type 0, BuildingBlock: NAWXER_clean_sbu_0, # of connection points: 4
#     Node 27, Type 0, BuildingBlock: NAWXER_clean_sbu_0, # of connection points: 4
#     Node 28, Type 0, BuildingBlock: NAWXER_clean_sbu_0, # of connection points: 4
#     Node 29, Type 0, BuildingBlock: NAWXER_clean_sbu_0, # of connection points: 4
#     Node 30, Type 0, BuildingBlock: NAWXER_clean_sbu_0, # of connection points: 4
#     Node 31, Type 0, BuildingBlock: NAWXER_clean_sbu_0, # of connection points: 4
#     Node 32, Type 0, BuildingBlock: NAWXER_clean_sbu_0, # of connection points: 4
#     Node 33, Type 0, BuildingBlock: NAWXER_clean_sbu_0, # of connection points: 4
#     Node 34, Type 0, BuildingBlock: NAWXER_clean_sbu_0, # of connection points: 4
#     Node 35, Type 0, BuildingBlock: NAWXER_clean_sbu_0, # of connection points: 4
#     Node 36, Type 0, BuildingBlock: NAWXER_clean_sbu_0, # of connection points: 4
#     Node 37, Type 0, BuildingBlock: NAWXER_clean_sbu_0, # of connection points: 4
#     Node 38, Type 0, BuildingBlock: NAWXER_clean_sbu_0, # of connection points: 4
#     Node 39, Type 0, BuildingBlock: NAWXER_clean_sbu_0, # of connection points: 4
#     Node 40, Type 0, BuildingBlock: NAWXER_clean_sbu_0, # of connection points: 4
#     Node 41, Type 0, BuildingBlock: NAWXER_clean_sbu_0, # of connection points: 4
#     Node 42, Type 0, BuildingBlock: NAWXER_clean_sbu_0, # of connection points: 4
#     Node 43, Type 0, BuildingBlock: NAWXER_clean_sbu_0, # of connection points: 4
#     Node 44, Type 0, BuildingBlock: NAWXER_clean_sbu_0, # of connection points: 4
#     Node 45, Type 0, BuildingBlock: NAWXER_clean_sbu_0, # of connection points: 4
#     Node 46, Type 0, BuildingBlock: NAWXER_clean_sbu_0, # of connection points: 4
#     Node 47, Type 0, BuildingBlock: NAWXER_clean_sbu_0, # of connection points: 4
#     Edge 48, Type (0, 0), BuildingBlock: ZUJKAS_clean_linker_0, # of connection points: 2
#     Edge 49, Type (0, 0), BuildingBlock: ZUJKAS_clean_linker_0, # of connection points: 2
#     Edge 50, Type (0, 0), BuildingBlock: ZUJKAS_clean_linker_0, # of connection points: 2
#     Edge 51, Type (0, 0), BuildingBlock: ZUJKAS_clean_linker_0, # of connection points: 2
#     Edge 52, Type (0, 0), BuildingBlock: ZUJKAS_clean_linker_0, # of connection points: 2
#     Edge 53, Type (0, 0), BuildingBlock: ZUJKAS_clean_linker_0, # of connection points: 2
#     Edge 54, Type (0, 0), BuildingBlock: ZUJKAS_clean_linker_0, # of connection points: 2
#     Edge 55, Type (0, 0), BuildingBlock: ZUJKAS_clean_linker_0, # of connection points: 2
#     Edge 56, Type (0, 0), BuildingBlock: ZUJKAS_clean_linker_0, # of connection points: 2
#     Edge 57, Type (0, 0), BuildingBlock: ZUJKAS_clean_linker_0, # of connection points: 2
#     Edge 58, Type (0, 0), BuildingBlock: ZUJKAS_clean_linker_0, # of connection points: 2
#     Edge 59, Type (0, 0), BuildingBlock: ZUJKAS_clean_linker_0, # of connection points: 2
#     Edge 60, Type (0, 0), BuildingBlock: ZUJKAS_clean_linker_0, # of connection points: 2
#     Edge 61, Type (0, 0), BuildingBlock: ZUJKAS_clean_linker_0, # of connection points: 2
#     Edge 62, Type (0, 0), BuildingBlock: ZUJKAS_clean_linker_0, # of connection points: 2
#     Edge 63, Type (0, 0), BuildingBlock: ZUJKAS_clean_linker_0, # of connection points: 2
#     Edge 64, Type (0, 0), BuildingBlock: ZUJKAS_clean_linker_0, # of connection points: 2
#     Edge 65, Type (0, 0), BuildingBlock: ZUJKAS_clean_linker_0, # of connection points: 2
#     Edge 66, Type (0, 0), BuildingBlock: ZUJKAS_clean_linker_0, # of connection points: 2
#     Edge 67, Type (0, 0), BuildingBlock: ZUJKAS_clean_linker_0, # of connection points: 2
#     Edge 68, Type (0, 0), BuildingBlock: ZUJKAS_clean_linker_0, # of connection points: 2
#     Edge 69, Type (0, 0), BuildingBlock: ZUJKAS_clean_linker_0, # of connection points: 2
#     Edge 70, Type (0, 0), BuildingBlock: ZUJKAS_clean_linker_0, # of connection points: 2
#     Edge 71, Type (0, 0), BuildingBlock: ZUJKAS_clean_linker_0, # of connection points: 2
#     Edge 72, Type (0, 0), BuildingBlock: ZUJKAS_clean_linker_0, # of connection points: 2
#     Edge 73, Type (0, 0), BuildingBlock: ZUJKAS_clean_linker_0, # of connection points: 2
#     Edge 74, Type (0, 0), BuildingBlock: ZUJKAS_clean_linker_0, # of connection points: 2
#     Edge 75, Type (0, 0), BuildingBlock: ZUJKAS_clean_linker_0, # of connection points: 2
#     Edge 76, Type (0, 0), BuildingBlock: ZUJKAS_clean_linker_0, # of connection points: 2
#     Edge 77, Type (0, 0), BuildingBlock: ZUJKAS_clean_linker_0, # of connection points: 2
#     Edge 78, Type (0, 0), BuildingBlock: ZUJKAS_clean_linker_0, # of connection points: 2
#     Edge 79, Type (0, 0), BuildingBlock: ZUJKAS_clean_linker_0, # of connection points: 2
#     Edge 80, Type (0, 0), BuildingBlock: ZUJKAS_clean_linker_0, # of connection points: 2
#     Edge 81, Type (0, 0), BuildingBlock: ZUJKAS_clean_linker_0, # of connection points: 2
#     Edge 82, Type (0, 0), BuildingBlock: ZUJKAS_clean_linker_0, # of connection points: 2
#     Edge 83, Type (0, 0), BuildingBlock: ZUJKAS_clean_linker_0, # of connection points: 2
#     Edge 84, Type (0, 0), BuildingBlock: ZUJKAS_clean_linker_0, # of connection points: 2
#     Edge 85, Type (0, 0), BuildingBlock: ZUJKAS_clean_linker_0, # of connection points: 2
#     Edge 86, Type (0, 0), BuildingBlock: ZUJKAS_clean_linker_0, # of connection points: 2
#     Edge 87, Type (0, 0), BuildingBlock: ZUJKAS_clean_linker_0, # of connection points: 2
#     Edge 88, Type (0, 0), BuildingBlock: ZUJKAS_clean_linker_0, # of connection points: 2
#     Edge 89, Type (0, 0), BuildingBlock: ZUJKAS_clean_linker_0, # of connection points: 2
#     Edge 90, Type (0, 0), BuildingBlock: ZUJKAS_clean_linker_0, # of connection points: 2
#     Edge 91, Type (0, 0), BuildingBlock: ZUJKAS_clean_linker_0, # of connection points: 2
#     Edge 92, Type (0, 0), BuildingBlock: ZUJKAS_clean_linker_0, # of connection points: 2
#     Edge 93, Type (0, 0), BuildingBlock: ZUJKAS_clean_linker_0, # of connection points: 2
#     Edge 94, Type (0, 0), BuildingBlock: ZUJKAS_clean_linker_0, # of connection points: 2
#     Edge 95, Type (0, 0), BuildingBlock: ZUJKAS_clean_linker_0, # of connection points: 2
#     Edge 96, Type (0, 0), BuildingBlock: ZUJKAS_clean_linker_0, # of connection points: 2
#     Edge 97, Type (0, 0), BuildingBlock: ZUJKAS_clean_linker_0, # of connection points: 2
#     Edge 98, Type (0, 0), BuildingBlock: ZUJKAS_clean_linker_0, # of connection points: 2
#     Edge 99, Type (0, 0), BuildingBlock: ZUJKAS_clean_linker_0, # of connection points: 2
#     Edge 100, Type (0, 0), BuildingBlock: ZUJKAS_clean_linker_0, # of connection points: 2
#     Edge 101, Type (0, 0), BuildingBlock: ZUJKAS_clean_linker_0, # of connection points: 2
#     Edge 102, Type (0, 0), BuildingBlock: ZUJKAS_clean_linker_0, # of connection points: 2
#     Edge 103, Type (0, 0), BuildingBlock: ZUJKAS_clean_linker_0, # of connection points: 2
#     Edge 104, Type (0, 0), BuildingBlock: ZUJKAS_clean_linker_0, # of connection points: 2
#     Edge 105, Type (0, 0), BuildingBlock: ZUJKAS_clean_linker_0, # of connection points: 2
#     Edge 106, Type (0, 0), BuildingBlock: ZUJKAS_clean_linker_0, # of connection points: 2
#     Edge 107, Type (0, 0), BuildingBlock: ZUJKAS_clean_linker_0, # of connection points: 2
#     Edge 108, Type (0, 0), BuildingBlock: ZUJKAS_clean_linker_0, # of connection points: 2
#     Edge 109, Type (0, 0), BuildingBlock: ZUJKAS_clean_linker_0, # of connection points: 2
#     Edge 110, Type (0, 0), BuildingBlock: ZUJKAS_clean_linker_0, # of connection points: 2
#     Edge 111, Type (0, 0), BuildingBlock: ZUJKAS_clean_linker_0, # of connection points: 2
#     Edge 112, Type (0, 0), BuildingBlock: ZUJKAS_clean_linker_0, # of connection points: 2
#     Edge 113, Type (0, 0), BuildingBlock: ZUJKAS_clean_linker_0, # of connection points: 2
#     Edge 114, Type (0, 0), BuildingBlock: ZUJKAS_clean_linker_0, # of connection points: 2
#     Edge 115, Type (0, 0), BuildingBlock: ZUJKAS_clean_linker_0, # of connection points: 2
#     Edge 116, Type (0, 0), BuildingBlock: ZUJKAS_clean_linker_0, # of connection points: 2
#     Edge 117, Type (0, 0), BuildingBlock: ZUJKAS_clean_linker_0, # of connection points: 2
#     Edge 118, Type (0, 0), BuildingBlock: ZUJKAS_clean_linker_0, # of connection points: 2
#     Edge 119, Type (0, 0), BuildingBlock: ZUJKAS_clean_linker_0, # of connection points: 2
#     Edge 120, Type (0, 0), BuildingBlock: ZUJKAS_clean_linker_0, # of connection points: 2
#     Edge 121, Type (0, 0), BuildingBlock: ZUJKAS_clean_linker_0, # of connection points: 2
#     Edge 122, Type (0, 0), BuildingBlock: ZUJKAS_clean_linker_0, # of connection points: 2
#     Edge 123, Type (0, 0), BuildingBlock: ZUJKAS_clean_linker_0, # of connection points: 2
#     Edge 124, Type (0, 0), BuildingBlock: ZUJKAS_clean_linker_0, # of connection points: 2
#     Edge 125, Type (0, 0), BuildingBlock: ZUJKAS_clean_linker_0, # of connection points: 2
#     Edge 126, Type (0, 0), BuildingBlock: ZUJKAS_clean_linker_0, # of connection points: 2
#     Edge 127, Type (0, 0), BuildingBlock: ZUJKAS_clean_linker_0, # of connection points: 2
#     Edge 128, Type (0, 0), BuildingBlock: ZUJKAS_clean_linker_0, # of connection points: 2
#     Edge 129, Type (0, 0), BuildingBlock: ZUJKAS_clean_linker_0, # of connection points: 2
#     Edge 130, Type (0, 0), BuildingBlock: ZUJKAS_clean_linker_0, # of connection points: 2
#     Edge 131, Type (0, 0), BuildingBlock: ZUJKAS_clean_linker_0, # of connection points: 2
#     Edge 132, Type (0, 0), BuildingBlock: ZUJKAS_clean_linker_0, # of connection points: 2
#     Edge 133, Type (0, 0), BuildingBlock: ZUJKAS_clean_linker_0, # of connection points: 2
#     Edge 134, Type (0, 0), BuildingBlock: ZUJKAS_clean_linker_0, # of connection points: 2
#     Edge 135, Type (0, 0), BuildingBlock: ZUJKAS_clean_linker_0, # of connection points: 2
#     Edge 136, Type (0, 0), BuildingBlock: ZUJKAS_clean_linker_0, # of connection points: 2
#     Edge 137, Type (0, 0), BuildingBlock: ZUJKAS_clean_linker_0, # of connection points: 2
#     Edge 138, Type (0, 0), BuildingBlock: ZUJKAS_clean_linker_0, # of connection points: 2
#     Edge 139, Type (0, 0), BuildingBlock: ZUJKAS_clean_linker_0, # of connection points: 2
#     Edge 140, Type (0, 0), BuildingBlock: ZUJKAS_clean_linker_0, # of connection points: 2
#     Edge 141, Type (0, 0), BuildingBlock: ZUJKAS_clean_linker_0, # of connection points: 2
#     Edge 142, Type (0, 0), BuildingBlock: ZUJKAS_clean_linker_0, # of connection points: 2
#     Edge 143, Type (0, 0), BuildingBlock: ZUJKAS_clean_linker_0, # of connection points: 2
# Relax obj value: 0.095
# Max RMSD: 0.223
# Mean RMSD: 0.216
data_MOF--net-ulj--node1-NAWXER_clean_sbu_0--edge1-ZUJKAS_clean_linker_0
_symmetry_space_group_name_H-M    P1
_symmetry_Int_Tables_number       1
_symmetry_cell_setting            triclinic
loop_
_symmetry_equiv_pos_as_xyz
'x, y, z'
_cell_length_a     84.382494
_cell_length_b     84.39759
_cell_length_c     84.395543
_cell_angle_alpha  89.99817
_cell_angle_beta   90.011201
_cell_angle_gamma 90.016638
loop_
_atom_site_label
_atom_site_type_symbol
_atom_site_fract_x
_atom_site_fract_y
_atom_site_fract_z
_atom_type_partial_charge
C0 C 0.15794 0.26526 0.31123 0.0
C1 C 0.13134 0.23383 0.35169 0.0
O2 O 0.1638 0.26763 0.32507 0.0
Zn3 Zn 0.15992 0.25903 0.34887 0.0
O4 O 0.1466 0.2555 0.30956 0.0
Zn5 Zn 0.14494 0.24927 0.3314 0.0
O6 O 0.13628 0.27042 0.34271 0.0
O7 O 0.15425 0.27805 0.36012 0.0
O8 O 0.12896 0.23402 0.33683 0.0
O9 O 0.14246 0.24239 0.35758 0.0
O10 O 0.17996 0.24922 0.35383 0.0
O11 O 0.16675 0.2367 0.33509 0.0
C12 C 0.14092 0.28015 0.35344 0.0
C13 C 0.17909 0.23798 0.34387 0.0
C14 C 0.52491 0.61567 0.89699 0.0
C15 C 0.48575 0.57605 0.91198 0.0
O16 O 0.52228 0.60221 0.89084 0.0
Zn17 Zn 0.50526 0.59578 0.90472 0.0
O18 O 0.51676 0.62005 0.90903 0.0
Zn19 Zn 0.49808 0.61053 0.92337 0.0
O20 O 0.50764 0.60916 0.94394 0.0
O21 O 0.5167 0.5912 0.92725 0.0
O22 O 0.48538 0.58819 0.92119 0.0
O23 O 0.49559 0.57566 0.9006 0.0
O24 O 0.48623 0.61214 0.89907 0.0
O25 O 0.48171 0.62599 0.92078 0.0
C26 C 0.51647 0.59732 0.94117 0.0
C27 C 0.4785 0.62303 0.90639 0.0
C28 C 0.87294 0.22003 0.33087 0.0
C29 C 0.83158 0.2592 0.32118 0.0
O30 O 0.87545 0.22812 0.31825 0.0
Zn31 Zn 0.86437 0.24728 0.30572 0.0
O32 O 0.86099 0.22321 0.33945 0.0
Zn33 Zn 0.85255 0.24013 0.32658 0.0
O34 O 0.84568 0.22787 0.30507 0.0
O35 O 0.8601 0.23779 0.28561 0.0
O36 O 0.83295 0.25008 0.33309 0.0
O37 O 0.84232 0.25921 0.31042 0.0
O38 O 0.87988 0.26397 0.30638 0.0
O39 O 0.86942 0.25896 0.32977 0.0
C40 C 0.84952 0.22818 0.29034 0.0
C41 C 0.879 0.26696 0.32109 0.0
C42 C 0.50965 0.91921 0.9234 0.0
C43 C 0.47062 0.87737 0.91924 0.0
O44 O 0.49754 0.91829 0.91452 0.0
Zn45 Zn 0.4904 0.89824 0.92195 0.0
O46 O 0.51283 0.90779 0.93298 0.0
Zn47 Zn 0.50224 0.88492 0.93893 0.0
O48 O 0.51875 0.87051 0.93374 0.0
O49 O 0.5086 0.88241 0.91281 0.0
O50 O 0.4814 0.87355 0.92927 0.0
O51 O 0.47121 0.89082 0.9126 0.0
O52 O 0.48425 0.90371 0.94632 0.0
O53 O 0.49774 0.88686 0.96103 0.0
C54 C 0.51854 0.8726 0.91886 0.0
C55 C 0.48808 0.89831 0.96003 0.0
C56 C 0.13483 0.71255 0.14631 0.0
C57 C 0.17523 0.75016 0.1628 0.0
O58 O 0.13118 0.7195 0.1593 0.0
Zn59 Zn 0.14143 0.73672 0.17474 0.0
O60 O 0.14793 0.71573 0.13966 0.0
Zn61 Zn 0.15528 0.73127 0.15473 0.0
O62 O 0.16086 0.71781 0.17581 0.0
O63 O 0.14409 0.72556 0.19429 0.0
O64 O 0.1752 0.74143 0.15053 0.0
O65 O 0.16356 0.74951 0.17255 0.0
O66 O 0.12599 0.75333 0.17443 0.0
O67 O 0.13907 0.75092 0.15189 0.0
C68 C 0.15566 0.71692 0.19008 0.0
C69 C 0.12862 0.75801 0.16038 0.0
C70 C 0.01094 0.616 0.08241 0.0
C71 C 0.96806 0.58826 0.05617 0.0
O72 O 0.00601 0.61737 0.06827 0.0
Zn73 Zn 0.98902 0.6025 0.06975 0.0
O74 O 0.00382 0.60652 0.09195 0.0
Zn75 Zn 0.98384 0.59042 0.09084 0.0
O76 O 0.99347 0.57043 0.09603 0.0
O77 O 0.00139 0.5803 0.07313 0.0
O78 O 0.96922 0.58403 0.07074 0.0
O79 O 0.9772 0.59893 0.05082 0.0
O80 O 0.97233 0.61431 0.08488 0.0
O81 O 0.96914 0.5992 0.10593 0.0
C82 C 0.00195 0.56931 0.08364 0.0
C83 C 0.96581 0.61176 0.09837 0.0
C84 C 0.82392 0.74598 0.16891 0.0
C85 C 0.86755 0.78124 0.1562 0.0
O86 O 0.83515 0.74502 0.17913 0.0
Zn87 Zn 0.85817 0.75555 0.18272 0.0
O88 O 0.82533 0.75532 0.1572 0.0
Zn89 Zn 0.84584 0.76352 0.16271 0.0
O90 O 0.86125 0.74334 0.15877 0.0
O91 O 0.87204 0.73767 0.18188 0.0
O92 O 0.85451 0.77935 0.14896 0.0
O93 O 0.87038 0.77317 0.16878 0.0
O94 O 0.85598 0.76557 0.20288 0.0
O95 O 0.84113 0.77655 0.18439 0.0
C96 C 0.87048 0.73469 0.16723 0.0
C97 C 0.8459 0.77596 0.19883 0.0
C98 C 0.98767 0.87943 0.08679 0.0
C99 C 0.02687 0.90557 0.05392 0.0
O100 O 0.99031 0.8778 0.07208 0.0
Zn101 Zn 0.00746 0.89241 0.07069 0.0
O102 O 0.99615 0.88913 0.09493 0.0
Zn103 Zn 0.01575 0.90524 0.09033 0.0
O104 O 0.00698 0.9255 0.09594 0.0
O105 O 0.99587 0.9148 0.07482 0.0
O106 O 0.02772 0.91035 0.06833 0.0
O107 O 0.01681 0.89503 0.05021 0.0
O108 O 0.02554 0.88073 0.08433 0.0
O109 O 0.03246 0.8971 0.10351 0.0
C110 C 0.99684 0.92621 0.08483 0.0
C111 C 0.03405 0.88388 0.09652 0.0
C112 C 0.31191 0.15286 0.28343 0.0
C113 C 0.3478 0.12802 0.24587 0.0
O114 O 0.32573 0.15924 0.28383 0.0
Zn115 Zn 0.34834 0.15568 0.27213 0.0
O116 O 0.30939 0.14122 0.27423 0.0
Zn117 Zn 0.33002 0.14025 0.26493 0.0
O118 O 0.34451 0.13156 0.28379 0.0
O119 O 0.36247 0.14975 0.28916 0.0
O120 O 0.33343 0.12464 0.24875 0.0
O121 O 0.35459 0.13922 0.25359 0.0
O122 O 0.35186 0.17569 0.2617 0.0
O123 O 0.33137 0.16236 0.25226 0.0
C124 C 0.35649 0.13621 0.29189 0.0
C125 C 0.34026 0.1747 0.25215 0.0
C126 C 0.37955 0.4007 0.96975 0.0
C127 C 0.42224 0.41804 0.00459 0.0
O128 O 0.3933 0.39486 0.97143 0.0
Zn129 Zn 0.40106 0.40968 0.98706 0.0
O130 O 0.37573 0.41317 0.97754 0.0
Zn131 Zn 0.38693 0.42878 0.99424 0.0
O132 O 0.38782 0.44877 0.98358 0.0
O133 O 0.40464 0.43137 0.97381 0.0
O134 O 0.41015 0.42728 0.00521 0.0
O135 O 0.42193 0.40603 0.9955 0.0
O136 O 0.38637 0.40547 0.00785 0.0
O137 O 0.37295 0.42756 0.01194 0.0
C138 C 0.39877 0.44541 0.97386 0.0
C139 C 0.37623 0.41345 0.01595 0.0
C140 C 0.66637 0.38074 0.23755 0.0
C141 C 0.6989 0.35285 0.27604 0.0
O142 O 0.65822 0.37058 0.24544 0.0
Zn143 Zn 0.66261 0.35371 0.2644 0.0
O144 O 0.68098 0.38255 0.24069 0.0
Zn145 Zn 0.68222 0.36724 0.25739 0.0
O146 O 0.6787 0.34518 0.24464 0.0
O147 O 0.65722 0.33396 0.25455 0.0
O148 O 0.70252 0.36455 0.26733 0.0
O149 O 0.68463 0.34761 0.27604 0.0
O150 O 0.64902 0.3609 0.28125 0.0
O151 O 0.66809 0.37783 0.27573 0.0
C152 C 0.66869 0.33369 0.24481 0.0
C153 C 0.65575 0.3741 0.28378 0.0
C154 C 0.56051 0.08927 0.99787 0.0
C155 C 0.60723 0.10137 0.96624 0.0
O156 O 0.56267 0.10074 0.98838 0.0
Zn157 Zn 0.58406 0.09539 0.9824 0.0
O158 O 0.57184 0.07944 0.00041 0.0
Zn159 Zn 0.59593 0.07615 0.99242 0.0
O160 O 0.60809 0.07805 0.01125 0.0
O161 O 0.59767 0.10075 0.00365 0.0
O162 O 0.60946 0.08931 0.97522 0.0
O163 O 0.59397 0.10846 0.96656 0.0
O164 O 0.58093 0.07279 0.97025 0.0
O165 O 0.59534 0.05552 0.98357 0.0
C166 C 0.60626 0.09279 0.01339 0.0
C167 C 0.58604 0.05857 0.97217 0.0
C168 C 0.3296 0.87713 0.26034 0.0
C169 C 0.29883 0.84867 0.22098 0.0
O170 O 0.33842 0.86833 0.25162 0.0
Zn171 Zn 0.33524 0.8523 0.23196 0.0
O172 O 0.31479 0.87765 0.25776 0.0
Zn173 Zn 0.31435 0.86321 0.24026 0.0
O174 O 0.32015 0.84086 0.25116 0.0
O175 O 0.34253 0.83239 0.24062 0.0
O176 O 0.29413 0.85885 0.23101 0.0
O177 O 0.31363 0.84524 0.22012 0.0
O178 O 0.34745 0.86197 0.21525 0.0
O179 O 0.32629 0.87584 0.2217 0.0
C180 C 0.33112 0.83037 0.25025 0.0
C181 C 0.33874 0.87407 0.21318 0.0
C182 C 0.11325 0.3956 0.03531 0.0
C183 C 0.06997 0.40522 0.99865 0.0
O184 O 0.10019 0.38829 0.03394 0.0
Zn185 Zn 0.09147 0.40084 0.01716 0.0
O186 O 0.11604 0.40766 0.02647 0.0
Zn187 Zn 0.10377 0.42034 0.00799 0.0
O188 O 0.10089 0.44115 0.01646 0.0
O189 O 0.0861 0.42326 0.02842 0.0
O190 O 0.08118 0.41539 0.99704 0.0
O191 O 0.0711 0.39452 0.00917 0.0
O192 O 0.10715 0.39579 0.99732 0.0
O193 O 0.11792 0.41861 0.99047 0.0
C194 C 0.09057 0.43771 0.02683 0.0
C195 C 0.11644 0.4038 0.9883 0.0
C196 C 0.66135 0.63549 0.26518 0.0
C197 C 0.69089 0.66022 0.22255 0.0
O198 O 0.65326 0.64646 0.25839 0.0
Zn199 Zn 0.65657 0.6629 0.23896 0.0
O200 O 0.6752 0.63233 0.26023 0.0
Zn201 Zn 0.67579 0.64759 0.24355 0.0
O202 O 0.67609 0.66965 0.25638 0.0
O203 O 0.65488 0.68325 0.2494 0.0
O204 O 0.69482 0.64862 0.23127 0.0
O205 O 0.67713 0.66648 0.22416 0.0
O206 O 0.64016 0.65668 0.22414 0.0
O207 O 0.65863 0.63849 0.22721 0.0
C208 C 0.66752 0.68215 0.25753 0.0
C209 C 0.64562 0.64305 0.22083 0.0
C210 C 0.92538 0.08258 0.99795 0.0
C211 C 0.88266 0.09693 0.034 0.0
O212 O 0.92462 0.09453 0.00707 0.0
Zn213 Zn 0.90421 0.08966 0.01616 0.0
O214 O 0.91389 0.07262 0.99766 0.0
Zn215 Zn 0.89127 0.06954 0.00907 0.0
O216 O 0.8768 0.07015 0.99166 0.0
O217 O 0.88842 0.09313 0.99624 0.0
O218 O 0.87969 0.08414 0.02635 0.0
O219 O 0.89579 0.10397 0.03185 0.0
O220 O 0.90915 0.06829 0.02943 0.0
O221 O 0.89367 0.04966 0.01961 0.0
C222 C 0.87869 0.08466 0.98816 0.0
C223 C 0.90427 0.05388 0.02941 0.0
C224 C 0.24457 0.32443 0.17771 0.0
C225 C 0.28256 0.34266 0.13817 0.0
O226 O 0.2453 0.31525 0.1656 0.0
Zn227 Zn 0.25822 0.31402 0.14354 0.0
O228 O 0.25331 0.33669 0.17829 0.0
Zn229 Zn 0.26372 0.33353 0.15821 0.0
O230 O 0.24458 0.33726 0.14149 0.0
O231 O 0.24159 0.31492 0.12819 0.0
O232 O 0.27976 0.34862 0.1517 0.0
O233 O 0.2753 0.33004 0.13388 0.0
O234 O 0.26987 0.2945 0.14524 0.0
O235 O 0.27709 0.31234 0.16294 0.0
C236 C 0.23738 0.32913 0.13081 0.0
C237 C 0.27831 0.29839 0.15706 0.0
C238 C 0.28233 0.69913 0.34118 0.0
C239 C 0.23929 0.67054 0.36648 0.0
O240 O 0.28196 0.68463 0.3366 0.0
Zn241 Zn 0.26831 0.66372 0.34236 0.0
O242 O 0.27278 0.70373 0.35182 0.0
Zn243 Zn 0.26141 0.68425 0.35449 0.0
O244 O 0.27735 0.66923 0.36746 0.0
O245 O 0.28355 0.64945 0.35157 0.0
O246 O 0.24339 0.68492 0.36813 0.0
O247 O 0.24747 0.66139 0.35745 0.0
O248 O 0.25975 0.65806 0.32204 0.0
O249 O 0.25043 0.68057 0.33158 0.0
C250 C 0.28495 0.65634 0.36485 0.0
C251 C 0.25082 0.67009 0.32055 0.0
C252 C 0.90136 0.461 0.88452 0.0
C253 C 0.91428 0.49564 0.92861 0.0
O254 O 0.8936 0.46348 0.89716 0.0
Zn255 Zn 0.90799 0.47839 0.90656 0.0
O256 O 0.91461 0.46812 0.88235 0.0
Zn257 Zn 0.92908 0.48476 0.89514 0.0
O258 O 0.94832 0.47348 0.89845 0.0
O259 O 0.92849 0.4641 0.91265 0.0
O260 O 0.92506 0.49579 0.91788 0.0
O261 O 0.90202 0.48712 0.9267 0.0
O262 O 0.90641 0.49884 0.89107 0.0
O263 O 0.9303 0.50241 0.88109 0.0
C264 C 0.94316 0.46366 0.90859 0.0
C265 C 0.91593 0.50668 0.88214 0.0
C266 C 0.76481 0.84075 0.32982 0.0
C267 C 0.72475 0.84926 0.37036 0.0
O268 O 0.76598 0.83076 0.34123 0.0
Zn269 Zn 0.75404 0.82589 0.36325 0.0
O270 O 0.75425 0.85146 0.33041 0.0
Zn271 Zn 0.745 0.84518 0.3503 0.0
O272 O 0.76303 0.85121 0.36755 0.0
O273 O 0.77038 0.82883 0.37885 0.0
O274 O 0.72695 0.85692 0.35759 0.0
O275 O 0.73393 0.83762 0.37378 0.0
O276 O 0.74637 0.80468 0.35985 0.0
O277 O 0.7348 0.82238 0.3445 0.0
C278 C 0.77167 0.84377 0.37764 0.0
C279 C 0.73646 0.80794 0.34899 0.0
C280 C 0.59491 0.5391 0.38836 0.0
C281 C 0.5849 0.50113 0.43026 0.0
O282 O 0.60243 0.53691 0.40119 0.0
Zn283 Zn 0.58942 0.52028 0.40946 0.0
O284 O 0.58249 0.53083 0.38546 0.0
Zn285 Zn 0.5694 0.51231 0.39718 0.0
O286 O 0.54896 0.5214 0.4008 0.0
O287 O 0.56751 0.53208 0.41576 0.0
O288 O 0.57442 0.50029 0.41926 0.0
O289 O 0.59592 0.51133 0.42928 0.0
O290 O 0.59347 0.50082 0.39304 0.0
O291 O 0.57032 0.49539 0.38218 0.0
C292 C 0.55293 0.5312 0.41148 0.0
C293 C 0.58503 0.49253 0.38345 0.0
C294 C 0.26052 0.70037 0.65331 0.0
C295 C 0.21891 0.68233 0.61752 0.0
O296 O 0.25523 0.7078 0.64132 0.0
Zn297 Zn 0.23956 0.69204 0.6352 0.0
O298 O 0.25441 0.68709 0.65737 0.0
Zn299 Zn 0.23605 0.67148 0.64985 0.0
O300 O 0.24802 0.65224 0.64566 0.0
O301 O 0.25367 0.67188 0.62932 0.0
O302 O 0.22101 0.67314 0.62944 0.0
O303 O 0.22739 0.6947 0.61594 0.0
O304 O 0.22211 0.69453 0.65327 0.0
O305 O 0.22109 0.67253 0.66739 0.0
C306 C 0.2559 0.6576 0.63397 0.0
C307 C 0.21618 0.68653 0.66473 0.0
C308 C 0.9212 0.48462 0.618 0.0
C309 C 0.94957 0.52709 0.5914 0.0
O310 O 0.93562 0.4887 0.61933 0.0
Zn311 Zn 0.93501 0.50623 0.60496 0.0
O312 O 0.91203 0.49247 0.60872 0.0
Zn313 Zn 0.91422 0.51268 0.59299 0.0
O314 O 0.90861 0.50377 0.57282 0.0
O315 O 0.9313 0.49489 0.5823 0.0
O316 O 0.93496 0.5267 0.58715 0.0
O317 O 0.9545 0.51737 0.60176 0.0
O318 O 0.92039 0.52315 0.61725 0.0
O319 O 0.8998 0.52784 0.60187 0.0
C320 C 0.92077 0.49504 0.57132 0.0
C321 C 0.90725 0.53036 0.61469 0.0
C322 C 0.10057 0.00309 0.60443 0.0
C323 C 0.08049 0.95609 0.57678 0.0
O324 O 0.08588 0.00017 0.60692 0.0
Zn325 Zn 0.06838 0.98317 0.60076 0.0
O326 O 0.10864 0.99379 0.59573 0.0
Zn327 Zn 0.09166 0.97897 0.59053 0.0
O328 O 0.07595 0.99265 0.57651 0.0
O329 O 0.05305 0.99592 0.58876 0.0
O330 O 0.09467 0.96122 0.57591 0.0
O331 O 0.07036 0.96318 0.58557 0.0
O332 O 0.06322 0.97303 0.62096 0.0
O333 O 0.08731 0.9674 0.61245 0.0
C334 C 0.0618 0.9981 0.57664 0.0
C335 C 0.07637 0.96587 0.62286 0.0
C336 C 0.67528 0.73991 0.8276 0.0
C337 C 0.63381 0.77796 0.83947 0.0
O338 O 0.66449 0.74009 0.81688 0.0
Zn339 Zn 0.64232 0.75222 0.81277 0.0
O340 O 0.67399 0.74882 0.83965 0.0
Zn341 Zn 0.65445 0.75873 0.83346 0.0
O342 O 0.63767 0.7396 0.8363 0.0
O343 O 0.62704 0.73537 0.81282 0.0
O344 O 0.64629 0.77482 0.84725 0.0
O345 O 0.63098 0.77049 0.82653 0.0
O346 O 0.64613 0.76239 0.79293 0.0
O347 O 0.66111 0.77172 0.81223 0.0
C348 C 0.62805 0.73186 0.82741 0.0
C349 C 0.65692 0.77177 0.79758 0.0
C350 C 0.97419 0.10476 0.4488 0.0
C351 C 0.01983 0.13692 0.43283 0.0
O352 O 0.98175 0.09958 0.43673 0.0
Zn353 Zn 0.00183 0.1049 0.42268 0.0
O354 O 0.9788 0.11734 0.45576 0.0
Zn355 Zn 0.9967 0.12155 0.4416 0.0
O356 O 0.98539 0.12623 0.41957 0.0
O357 O 0.99206 0.10805 0.40198 0.0
O358 O 0.01031 0.13997 0.44413 0.0
O359 O 0.01777 0.12442 0.42445 0.0
O360 O 0.01501 0.08646 0.42743 0.0
O361 O 0.01171 0.10244 0.44789 0.0
C362 C 0.98438 0.12053 0.40554 0.0
C363 C 0.01761 0.08983 0.44191 0.0
C364 C 0.36472 0.72524 0.83245 0.0
C365 C 0.32393 0.76498 0.82371 0.0
O366 O 0.36958 0.73615 0.82304 0.0
Zn367 Zn 0.35961 0.75712 0.81229 0.0
O368 O 0.35062 0.72568 0.83761 0.0
Zn369 Zn 0.34443 0.74528 0.82781 0.0
O370 O 0.34163 0.73923 0.80301 0.0
O371 O 0.35998 0.75257 0.79004 0.0
O372 O 0.32371 0.75305 0.83288 0.0
O373 O 0.33644 0.76788 0.81552 0.0
O374 O 0.37369 0.7733 0.81923 0.0
O375 O 0.35988 0.76277 0.83876 0.0
C376 C 0.3484 0.74298 0.78991 0.0
C377 C 0.37045 0.77259 0.83389 0.0
C378 C 0.00932 0.42916 0.41326 0.0
C379 C 0.9743 0.38693 0.39547 0.0
O380 O 0.00102 0.42855 0.40071 0.0
Zn381 Zn 0.99169 0.40816 0.40466 0.0
O382 O 0.0089 0.41756 0.4231 0.0
Zn383 Zn 0.997 0.39488 0.42491 0.0
O384 O 0.01431 0.38046 0.42575 0.0
O385 O 0.012 0.39242 0.40261 0.0
O386 O 0.98091 0.38354 0.40873 0.0
O387 O 0.97711 0.40022 0.38902 0.0
O388 O 0.97697 0.41314 0.4251 0.0
O389 O 0.98496 0.39689 0.44391 0.0
C390 C 0.01926 0.3826 0.41172 0.0
C391 C 0.9758 0.40789 0.43933 0.0
C392 C 0.66034 0.22068 0.69261 0.0
C393 C 0.63397 0.26109 0.66171 0.0
O394 O 0.6645 0.21984 0.67799 0.0
Zn395 Zn 0.65883 0.23253 0.65638 0.0
O396 O 0.65043 0.23112 0.69688 0.0
Zn397 Zn 0.64719 0.24064 0.67672 0.0
O398 O 0.63469 0.2227 0.66361 0.0
O399 O 0.64968 0.21647 0.64315 0.0
O400 O 0.63286 0.258 0.67637 0.0
O401 O 0.64311 0.25266 0.65292 0.0
O402 O 0.67908 0.2408 0.65003 0.0
O403 O 0.66967 0.25178 0.6718 0.0
C404 C 0.63701 0.21451 0.65101 0.0
C405 C 0.68057 0.2507 0.66126 0.0
C406 C 0.51251 0.11529 0.59143 0.0
C407 C 0.47093 0.08851 0.56239 0.0
O408 O 0.50835 0.11696 0.57707 0.0
Zn409 Zn 0.49135 0.1021 0.5773 0.0
O410 O 0.50502 0.10546 0.60033 0.0
Zn411 Zn 0.48524 0.0892 0.59769 0.0
O412 O 0.49476 0.06913 0.6026 0.0
O413 O 0.50351 0.07974 0.58033 0.0
O414 O 0.47169 0.08342 0.5767 0.0
O415 O 0.48 0.09961 0.5579 0.0
O416 O 0.47436 0.11343 0.5923 0.0
O417 O 0.46969 0.09738 0.61234 0.0
C418 C 0.50367 0.06841 0.59049 0.0
C419 C 0.46709 0.11039 0.60527 0.0
C420 C 0.3263 0.24546 0.66656 0.0
C421 C 0.36725 0.28294 0.65171 0.0
O422 O 0.33728 0.24632 0.67707 0.0
Zn423 Zn 0.3593 0.25916 0.68021 0.0
O424 O 0.32722 0.2539 0.65413 0.0
Zn425 Zn 0.34676 0.26415 0.65938 0.0
O426 O 0.36341 0.24471 0.65778 0.0
O427 O 0.37465 0.24255 0.68127 0.0
O428 O 0.35468 0.27925 0.64436 0.0
O429 O 0.37031 0.27639 0.66508 0.0
O430 O 0.35578 0.27062 0.69932 0.0
O431 O 0.34011 0.27826 0.67984 0.0
C432 C 0.37321 0.23774 0.66709 0.0
C433 C 0.34463 0.27939 0.69433 0.0
C434 C 0.53123 0.40647 0.55562 0.0
C435 C 0.48985 0.37944 0.58478 0.0
O436 O 0.52154 0.39601 0.55085 0.0
Zn437 Zn 0.51077 0.39285 0.57045 0.0
O438 O 0.53095 0.4109 0.57017 0.0
Zn439 Zn 0.51733 0.40518 0.59113 0.0
O440 O 0.53301 0.3967 0.60533 0.0
O441 O 0.52821 0.38122 0.58482 0.0
O442 O 0.49771 0.38888 0.59377 0.0
O443 O 0.49354 0.3782 0.57026 0.0
O444 O 0.49903 0.41515 0.57404 0.0
O445 O 0.50783 0.42527 0.59648 0.0
C446 C 0.53568 0.38396 0.59777 0.0
C447 C 0.49894 0.42629 0.58438 0.0
C448 C 0.80868 0.65047 0.78002 0.0
C449 C 0.83925 0.62444 0.739 0.0
O450 O 0.82279 0.65611 0.77929 0.0
Zn451 Zn 0.84421 0.65088 0.76611 0.0
O452 O 0.80474 0.63897 0.77119 0.0
Zn453 Zn 0.82435 0.63712 0.76004 0.0
O454 O 0.83956 0.62664 0.77736 0.0
O455 O 0.85895 0.64349 0.78197 0.0
O456 O 0.82495 0.62217 0.74306 0.0
O457 O 0.84766 0.63464 0.74654 0.0
O458 O 0.84855 0.67092 0.7563 0.0
O459 O 0.82647 0.65962 0.7479 0.0
C460 C 0.85232 0.63028 0.78474 0.0
C461 C 0.83627 0.67127 0.74758 0.0
C462 C 0.89139 0.91471 0.47509 0.0
C463 C 0.94142 0.92065 0.50271 0.0
O464 O 0.90517 0.9098 0.47173 0.0
Zn465 Zn 0.916 0.91832 0.48955 0.0
O466 O 0.88941 0.92326 0.48755 0.0
Zn467 Zn 0.90517 0.93241 0.50606 0.0
O468 O 0.90325 0.95457 0.50427 0.0
O469 O 0.91692 0.94399 0.48474 0.0
O470 O 0.93055 0.9287 0.50971 0.0
O471 O 0.93786 0.91254 0.4906 0.0
O472 O 0.90523 0.90562 0.50969 0.0
O473 O 0.89635 0.9248 0.52502 0.0
C474 C 0.91126 0.95631 0.49173 0.0
C475 C 0.89833 0.91017 0.5225 0.0
C476 C 0.1491 0.81181 0.74691 0.0
C477 C 0.13982 0.8575 0.78079 0.0
O478 O 0.15802 0.82357 0.74326 0.0
Zn479 Zn 0.1614 0.84765 0.75093 0.0
O480 O 0.13874 0.81348 0.75769 0.0
Zn481 Zn 0.14401 0.83502 0.76337 0.0
O482 O 0.13506 0.84923 0.7439 0.0
O483 O 0.15604 0.8601 0.73277 0.0
O484 O 0.13313 0.84402 0.7812 0.0
O485 O 0.1504 0.86031 0.77024 0.0
O486 O 0.18324 0.8475 0.75698 0.0
O487 O 0.16812 0.8326 0.77224 0.0
C488 C 0.14113 0.85823 0.73323 0.0
C489 C 0.18187 0.83802 0.76858 0.0
C490 C 0.11992 0.60141 0.50606 0.0
C491 C 0.09411 0.56378 0.47099 0.0
O492 O 0.12263 0.58671 0.50437 0.0
Zn493 Zn 0.10699 0.58274 0.48847 0.0
O494 O 0.109 0.60807 0.49782 0.0
Zn495 Zn 0.09238 0.60092 0.47958 0.0
O496 O 0.07208 0.60548 0.48905 0.0
O497 O 0.08493 0.58603 0.50089 0.0
O498 O 0.0884 0.57778 0.46936 0.0
O499 O 0.10528 0.56144 0.48079 0.0
O500 O 0.11656 0.59549 0.4687 0.0
O501 O 0.09905 0.61356 0.46167 0.0
C502 C 0.0727 0.595 0.49985 0.0
C503 C 0.11245 0.60699 0.45966 0.0
C504 C 0.8375 0.36632 0.75849 0.0
C505 C 0.80886 0.34133 0.71542 0.0
O506 O 0.84626 0.35633 0.75107 0.0
Zn507 Zn 0.84369 0.34048 0.73105 0.0
O508 O 0.82332 0.36853 0.75398 0.0
Zn509 Zn 0.82353 0.35399 0.73664 0.0
O510 O 0.82506 0.33126 0.74826 0.0
O511 O 0.84736 0.32002 0.74056 0.0
O512 O 0.80435 0.35216 0.72482 0.0
O513 O 0.82308 0.33601 0.7164 0.0
O514 O 0.85922 0.34832 0.71623 0.0
O515 O 0.83956 0.36502 0.72023 0.0
C516 C 0.83472 0.31953 0.74871 0.0
C517 C 0.85272 0.36159 0.71344 0.0
C518 C 0.61644 0.90828 0.48686 0.0
C519 C 0.59083 0.93944 0.52766 0.0
O520 O 0.61717 0.92305 0.48954 0.0
Zn521 Zn 0.60371 0.92335 0.50754 0.0
O522 O 0.60784 0.89943 0.49582 0.0
Zn523 Zn 0.59255 0.90309 0.5164 0.0
O524 O 0.57212 0.8963 0.50886 0.0
O525 O 0.58088 0.91805 0.4973 0.0
O526 O 0.58683 0.9248 0.52877 0.0
O527 O 0.60063 0.94362 0.51707 0.0
O528 O 0.61734 0.91025 0.5247 0.0
O529 O 0.60229 0.89037 0.53256 0.0
C530 C 0.57013 0.9074 0.49891 0.0
C531 C 0.61528 0.89791 0.53333 0.0
C532 C 0.19874 0.14775 0.71586 0.0
C533 C 0.16611 0.12085 0.75473 0.0
O534 O 0.18426 0.15236 0.71525 0.0
Zn535 Zn 0.16225 0.14674 0.72701 0.0
O536 O 0.20265 0.13683 0.72544 0.0
Zn537 Zn 0.18216 0.13367 0.73462 0.0
O538 O 0.16921 0.12285 0.71573 0.0
O539 O 0.14897 0.13835 0.71022 0.0
O540 O 0.18054 0.11837 0.7513 0.0
O541 O 0.15807 0.13099 0.74675 0.0
O542 O 0.15695 0.16706 0.73614 0.0
O543 O 0.17815 0.15594 0.74673 0.0
C544 C 0.1568 0.12579 0.7075 0.0
C545 C 0.16824 0.16748 0.74612 0.0
C546 C 0.3787 0.59313 0.53859 0.0
C547 C 0.42148 0.58548 0.50045 0.0
O548 O 0.39077 0.60183 0.53631 0.0
Zn549 Zn 0.4001 0.58963 0.51928 0.0
O550 O 0.37664 0.58083 0.52994 0.0
Zn551 Zn 0.38847 0.56914 0.51085 0.0
O552 O 0.3928 0.54864 0.51958 0.0
O553 O 0.40685 0.56772 0.53064 0.0
O554 O 0.41061 0.5749 0.49932 0.0
O555 O 0.42017 0.59645 0.5107 0.0
O556 O 0.38423 0.59344 0.49955 0.0
O557 O 0.37327 0.57034 0.494 0.0
C558 C 0.40318 0.553 0.52957 0.0
C559 C 0.37471 0.58504 0.49117 0.0
C560 C 0.7434 0.83242 0.62461 0.0
C561 C 0.78082 0.79963 0.65341 0.0
O562 O 0.75118 0.84055 0.63485 0.0
Zn563 Zn 0.7702 0.83622 0.65149 0.0
O564 O 0.74654 0.81784 0.62271 0.0
Zn565 Zn 0.76267 0.81628 0.63856 0.0
O566 O 0.74997 0.8209 0.66039 0.0
O567 O 0.76066 0.84215 0.67132 0.0
O568 O 0.77148 0.79569 0.64229 0.0
O569 O 0.78148 0.81416 0.65784 0.0
O570 O 0.78746 0.84902 0.6437 0.0
O571 O 0.78205 0.82885 0.62806 0.0
C572 C 0.75048 0.83105 0.67172 0.0
C573 C 0.7904 0.84113 0.63124 0.0
C574 C 0.78108 0.15088 0.86595 0.0
C575 C 0.74327 0.16063 0.82379 0.0
O576 O 0.77309 0.16356 0.8685 0.0
Zn577 Zn 0.75482 0.1767 0.85651 0.0
O578 O 0.77859 0.14299 0.8534 0.0
Zn579 Zn 0.76215 0.15609 0.84482 0.0
O580 O 0.77436 0.17751 0.83771 0.0
O581 O 0.76455 0.19678 0.85234 0.0
O582 O 0.75303 0.14927 0.82519 0.0
O583 O 0.74271 0.17144 0.83448 0.0
O584 O 0.7379 0.17663 0.87156 0.0
O585 O 0.74266 0.15304 0.86137 0.0
C586 C 0.77401 0.19222 0.84159 0.0
C587 C 0.73464 0.16197 0.87073 0.0
C588 C 0.40015 0.96554 0.38746 0.0
C589 C 0.41642 0.99841 0.43177 0.0
O590 O 0.39279 0.96851 0.40022 0.0
Zn591 Zn 0.40851 0.98198 0.40971 0.0
O592 O 0.41394 0.97153 0.38521 0.0
Zn593 Zn 0.42983 0.98679 0.39794 0.0
O594 O 0.44817 0.97403 0.4007 0.0
O595 O 0.42805 0.96613 0.4154 0.0
O596 O 0.4271 0.99772 0.42096 0.0
O597 O 0.40343 0.99103 0.42995 0.0
O598 O 0.40834 0.00281 0.39474 0.0
O599 O 0.43217 0.00466 0.3842 0.0
C600 C 0.44255 0.96461 0.41098 0.0
C601 C 0.41824 0.0101 0.38578 0.0
C602 C 0.25195 0.32713 0.8245 0.0
C603 C 0.21387 0.33662 0.86655 0.0
O604 O 0.25271 0.31647 0.83535 0.0
Zn605 Zn 0.24084 0.31139 0.8576 0.0
O606 O 0.24213 0.33844 0.82587 0.0
Zn607 Zn 0.23311 0.33166 0.84555 0.0
O608 O 0.25259 0.33547 0.86183 0.0
O609 O 0.25764 0.31236 0.87295 0.0
O610 O 0.21644 0.34457 0.85406 0.0
O611 O 0.222 0.32405 0.8692 0.0
O612 O 0.23182 0.29095 0.85356 0.0
O613 O 0.22144 0.30974 0.83869 0.0
C614 C 0.26068 0.32702 0.87156 0.0
C615 C 0.22228 0.29508 0.8427 0.0
C616 C 0.09622 0.03132 0.88124 0.0
C617 C 0.0835 0.99485 0.92391 0.0
O618 O 0.10337 0.02935 0.89432 0.0
Zn619 Zn 0.08948 0.0134 0.90285 0.0
O620 O 0.08345 0.02359 0.87841 0.0
Zn621 Zn 0.06896 0.00659 0.89058 0.0
O622 O 0.04927 0.01737 0.89389 0.0
O623 O 0.0684 0.02643 0.90916 0.0
O624 O 0.07304 0.99464 0.91286 0.0
O625 O 0.09528 0.00417 0.92284 0.0
O626 O 0.09218 0.99345 0.88669 0.0
O627 O 0.06863 0.98934 0.87604 0.0
C628 C 0.05384 0.02668 0.90475 0.0
C629 C 0.08313 0.98556 0.87731 0.0
C630 C 0.75649 0.16957 0.12193 0.0
C631 C 0.71985 0.20373 0.15013 0.0
O632 O 0.74839 0.16176 0.13219 0.0
Zn633 Zn 0.7296 0.16688 0.14898 0.0
O634 O 0.75376 0.18422 0.11992 0.0
Zn635 Zn 0.7375 0.18627 0.13554 0.0
O636 O 0.75029 0.18184 0.15727 0.0
O637 O 0.73929 0.16106 0.16876 0.0
O638 O 0.72921 0.2071 0.13885 0.0
O639 O 0.71878 0.18934 0.15492 0.0
O640 O 0.71216 0.15414 0.14181 0.0
O641 O 0.71802 0.17348 0.12527 0.0
C642 C 0.74974 0.1719 0.16877 0.0
C643 C 0.70949 0.16144 0.12894 0.0
C644 C 0.40173 0.99573 0.11388 0.0
C645 C 0.4281 0.03535 0.08089 0.0
O646 O 0.41611 0.99854 0.11787 0.0
Zn647 Zn 0.4355 0.01323 0.11089 0.0
O648 O 0.39563 0.0032 0.10228 0.0
Zn649 Zn 0.4143 0.01565 0.097 0.0
O650 O 0.43022 0.99762 0.08937 0.0
O651 O 0.45158 0.99798 0.10454 0.0
O652 O 0.41422 0.02988 0.07884 0.0
O653 O 0.43674 0.03022 0.09226 0.0
O654 O 0.43851 0.02593 0.12968 0.0
O655 O 0.41625 0.03135 0.11691 0.0
C656 C 0.44387 0.99211 0.09301 0.0
C657 C 0.42583 0.03398 0.12842 0.0
C658 C 0.54861 0.47916 0.0972 0.0
C659 C 0.57463 0.52272 0.12456 0.0
O660 O 0.54341 0.48771 0.10843 0.0
Zn661 Zn 0.56201 0.50033 0.11132 0.0
O662 O 0.56296 0.48099 0.09242 0.0
Zn663 Zn 0.5829 0.49622 0.09842 0.0
O664 O 0.59879 0.48188 0.10643 0.0
O665 O 0.5782 0.48404 0.12233 0.0
O666 O 0.58398 0.5159 0.1147 0.0
O667 O 0.56065 0.51745 0.1263 0.0
O668 O 0.56366 0.51233 0.0887 0.0
O669 O 0.58707 0.50657 0.07849 0.0
C670 C 0.59182 0.47807 0.1192 0.0
C671 C 0.57384 0.51368 0.07747 0.0
H672 H 0.24414 0.33714 0.20763 0.0
H673 H 0.22809 0.32841 0.23021 0.0
H674 H 0.20491 0.2939 0.20048 0.0
H675 H 0.22111 0.30224 0.17803 0.0
H676 H 0.19575 0.32692 0.23542 0.0
H677 H 0.22199 0.26669 0.23619 0.0
H678 H 0.23031 0.28268 0.22469 0.0
H679 H 0.21344 0.27183 0.21742 0.0
C680 C 0.23557 0.32774 0.20589 0.0
C681 C 0.23404 0.32024 0.19109 0.0
C682 C 0.22641 0.32277 0.2188 0.0
C683 C 0.21557 0.31027 0.2171 0.0
C684 C 0.21352 0.30328 0.20216 0.0
H685 H 0.15189 0.25963 0.27985 0.0
H686 H 0.16502 0.27164 0.25693 0.0
C687 C 0.22274 0.30812 0.18932 0.0
C688 C 0.20661 0.30427 0.23097 0.0
H689 H 0.19958 0.27085 0.25269 0.0
C690 C 0.19663 0.31469 0.23925 0.0
C691 C 0.20786 0.2883 0.236 0.0
C692 C 0.21909 0.27676 0.22822 0.0
C693 C 0.1876 0.30947 0.25223 0.0
C694 C 0.18867 0.29347 0.25704 0.0
C695 C 0.19869 0.28308 0.24883 0.0
C696 C 0.17982 0.28726 0.27084 0.0
C697 C 0.17679 0.32099 0.26058 0.0
C698 C 0.18381 0.29212 0.28622 0.0
C699 C 0.17643 0.28522 0.29933 0.0
C700 C 0.1649 0.27334 0.2973 0.0
C701 C 0.16068 0.26877 0.28184 0.0
C702 C 0.16816 0.2756 0.26873 0.0
H703 H 0.17493 0.33197 0.25355 0.0
H704 H 0.1651 0.31545 0.263 0.0
H705 H 0.18213 0.32434 0.27212 0.0
H706 H 0.19295 0.30094 0.28808 0.0
H707 H 0.17996 0.28902 0.31108 0.0
H708 H 0.54451 0.51858 0.06532 0.0
H709 H 0.5374 0.53333 0.04151 0.0
H710 H 0.58661 0.54524 0.03412 0.0
H711 H 0.59387 0.52959 0.0575 0.0
H712 H 0.53928 0.56264 0.03479 0.0
H713 H 0.57612 0.5307 0.99086 0.0
H714 H 0.57368 0.52372 0.01089 0.0
H715 H 0.58769 0.53922 0.00649 0.0
C716 C 0.55383 0.52428 0.05856 0.0
C717 C 0.56975 0.52291 0.0632 0.0
C718 C 0.54976 0.53271 0.04494 0.0
C719 C 0.56147 0.54023 0.0358 0.0
C720 C 0.57739 0.53915 0.04063 0.0
H721 H 0.52857 0.61159 0.96756 0.0
H722 H 0.54147 0.59876 0.99016 0.0
C723 C 0.58152 0.53033 0.05407 0.0
C724 C 0.55675 0.54954 0.02158 0.0
H725 H 0.56326 0.55402 0.98188 0.0
C726 C 0.54451 0.5607 0.02321 0.0
C727 C 0.56345 0.54695 0.00641 0.0
C728 C 0.57584 0.53439 0.00349 0.0
C729 C 0.53853 0.56904 0.01015 0.0
C730 C 0.54555 0.56683 0.99506 0.0
C731 C 0.55799 0.55587 0.99345 0.0
C732 C 0.5395 0.57499 0.98064 0.0
C733 C 0.52425 0.57955 0.01262 0.0
C734 C 0.5351 0.56609 0.96727 0.0
C735 C 0.52826 0.57348 0.95413 0.0
C736 C 0.52545 0.58989 0.95421 0.0
C737 C 0.5304 0.59889 0.96731 0.0
C738 C 0.53764 0.59154 0.98028 0.0
H739 H 0.51757 0.57619 0.02346 0.0
H740 H 0.52823 0.59199 0.01413 0.0
H741 H 0.51603 0.57898 0.00237 0.0
H742 H 0.53648 0.55333 0.96719 0.0
H743 H 0.52453 0.56626 0.94419 0.0
H744 H 0.82765 0.20514 0.29672 0.0
H745 H 0.81217 0.18976 0.27766 0.0
H746 H 0.8364 0.21306 0.23915 0.0
H747 H 0.85214 0.22821 0.25807 0.0
H748 H 0.79184 0.20206 0.2565 0.0
H749 H 0.83735 0.16759 0.22448 0.0
H750 H 0.84132 0.17724 0.24317 0.0
H751 H 0.84216 0.18828 0.22491 0.0
C752 C 0.82987 0.2068 0.28419 0.0
C753 C 0.84111 0.21792 0.2789 0.0
C754 C 0.82103 0.19798 0.27333 0.0
C755 C 0.8233 0.20008 0.25699 0.0
C756 C 0.83474 0.21093 0.2517 0.0
H757 H 0.77544 0.19134 0.17044 0.0
H758 H 0.79324 0.19527 0.19288 0.0
C759 C 0.84364 0.21969 0.26254 0.0
C760 C 0.81265 0.19222 0.24547 0.0
H761 H 0.81251 0.17162 0.21067 0.0
C762 C 0.7963 0.1951 0.24667 0.0
C763 C 0.81851 0.1831 0.23269 0.0
C764 C 0.83578 0.17873 0.23132 0.0
C765 C 0.78578 0.18995 0.23489 0.0
C766 C 0.79178 0.18162 0.22167 0.0
C767 C 0.808 0.17807 0.22083 0.0
C768 C 0.78166 0.17801 0.20787 0.0
C769 C 0.76846 0.1942 0.23618 0.0
C770 C 0.76944 0.16679 0.20885 0.0
C771 C 0.7592 0.16449 0.196 0.0
C772 C 0.76105 0.17344 0.18206 0.0
C773 C 0.77361 0.18433 0.18104 0.0
C774 C 0.78385 0.18655 0.19381 0.0
H775 H 0.76606 0.20232 0.24626 0.0
H776 H 0.76432 0.19992 0.22507 0.0
H777 H 0.76139 0.18325 0.23792 0.0
H778 H 0.76767 0.16003 0.21961 0.0
H779 H 0.74967 0.15597 0.19713 0.0
H780 H 0.48745 0.88624 0.99004 0.0
H781 H 0.47962 0.89989 0.01439 0.0
H782 H 0.46907 0.942 0.98736 0.0
H783 H 0.47621 0.92821 0.96295 0.0
H784 H 0.492 0.92481 0.02832 0.0
H785 H 0.42981 0.93875 0.01321 0.0
H786 H 0.44162 0.92535 0.0015 0.0
H787 H 0.44317 0.94646 0.99863 0.0
C788 C 0.48321 0.89833 0.98928 0.0
C789 C 0.48228 0.90611 0.97458 0.0
C790 C 0.47881 0.90614 0.0032 0.0
C791 C 0.47352 0.9219 0.00271 0.0
C792 C 0.47265 0.9297 0.98802 0.0
H793 H 0.47317 0.99025 0.07948 0.0
H794 H 0.48128 0.97168 0.05864 0.0
C795 C 0.47679 0.92181 0.97407 0.0
C796 C 0.4695 0.93039 0.01758 0.0
H797 H 0.44104 0.95325 0.03482 0.0
C798 C 0.48078 0.93088 0.02984 0.0
C799 C 0.45477 0.9381 0.01968 0.0
C800 C 0.4416 0.937 0.00762 0.0
C801 C 0.47787 0.93918 0.04397 0.0
C802 C 0.4635 0.94765 0.04567 0.0
C803 C 0.45212 0.94687 0.03353 0.0
C804 C 0.45985 0.95753 0.05979 0.0
C805 C 0.49012 0.93854 0.05697 0.0
C806 C 0.44516 0.9558 0.06742 0.0
C807 C 0.44039 0.96664 0.07892 0.0
C808 C 0.45035 0.97921 0.0833 0.0
C809 C 0.46544 0.98044 0.07646 0.0
C810 C 0.47008 0.9698 0.0646 0.0
H811 H 0.49742 0.92761 0.05614 0.0
H812 H 0.49823 0.94883 0.05578 0.0
H813 H 0.48454 0.93896 0.06888 0.0
H814 H 0.43707 0.94644 0.06398 0.0
H815 H 0.42866 0.96553 0.08403 0.0
H816 H 0.23229 0.69545 0.31307 0.0
H817 H 0.2162 0.69927 0.28936 0.0
H818 H 0.23084 0.65361 0.27176 0.0
H819 H 0.24705 0.6496 0.29556 0.0
H820 H 0.22816 0.69842 0.257 0.0
H821 H 0.18093 0.6539 0.26911 0.0
H822 H 0.19347 0.66176 0.28458 0.0
H823 H 0.20123 0.64755 0.27083 0.0
C824 C 0.23208 0.68616 0.30422 0.0
C825 C 0.24096 0.67221 0.30621 0.0
C826 C 0.22288 0.68838 0.29068 0.0
C827 C 0.22226 0.67667 0.27892 0.0
C828 C 0.23104 0.66269 0.28082 0.0
H829 H 0.1825 0.69924 0.18575 0.0
H830 H 0.19878 0.68683 0.20627 0.0
C831 C 0.24034 0.66047 0.29438 0.0
C832 C 0.21278 0.67952 0.26448 0.0
H833 H 0.17848 0.66902 0.24575 0.0
C834 C 0.2174 0.69189 0.2544 0.0
C835 C 0.19871 0.67101 0.26128 0.0
C836 C 0.19315 0.65785 0.27202 0.0
C837 C 0.2081 0.69625 0.24135 0.0
C838 C 0.19392 0.68787 0.23823 0.0
C839 C 0.18944 0.67529 0.24814 0.0
C840 C 0.18302 0.69299 0.22551 0.0
C841 C 0.21318 0.71022 0.23139 0.0
C842 C 0.16845 0.69991 0.2295 0.0
C843 C 0.1591 0.70699 0.21782 0.0
C844 C 0.16417 0.70722 0.20195 0.0
C845 C 0.1783 0.69937 0.19787 0.0
C846 C 0.18765 0.6923 0.20957 0.0
H847 H 0.2229 0.71708 0.23705 0.0
H848 H 0.21746 0.70592 0.21973 0.0
H849 H 0.20303 0.71831 0.22924 0.0
H850 H 0.16468 0.7005 0.24176 0.0
H851 H 0.14825 0.71284 0.22136 0.0
H852 H 0.96193 0.59505 0.02514 0.0
H853 H 0.94692 0.57907 0.00634 0.0
H854 H 0.93453 0.54643 0.04366 0.0
H855 H 0.9497 0.5623 0.06261 0.0
H856 H 0.94867 0.53207 0.01814 0.0
H857 H 0.90009 0.57096 0.99757 0.0
H858 H 0.919 0.58067 0.99688 0.0
H859 H 0.91092 0.57464 0.01568 0.0
C860 C 0.95576 0.58465 0.02945 0.0
C861 C 0.9571 0.57989 0.04536 0.0
C862 C 0.94706 0.5756 0.0187 0.0
C863 C 0.93945 0.56167 0.02365 0.0
C864 C 0.94022 0.55722 0.03965 0.0
H865 H 0.89293 0.5005 0.95267 0.0
H866 H 0.89713 0.51569 0.97713 0.0
C867 C 0.9489 0.5663 0.05045 0.0
C868 C 0.93258 0.55083 0.01171 0.0
H869 H 0.90766 0.5497 0.97986 0.0
C870 C 0.93946 0.53579 0.00998 0.0
C871 C 0.92049 0.55565 0.00116 0.0
C872 C 0.91208 0.57131 0.003 0.0
C873 C 0.93528 0.52586 0.99736 0.0
C874 C 0.92405 0.53118 0.98615 0.0
C875 C 0.91641 0.54576 0.98841 0.0
C876 C 0.92118 0.52234 0.97134 0.0
C877 C 0.94329 0.50996 0.99578 0.0
C878 C 0.93325 0.52135 0.95999 0.0
C879 C 0.9309 0.51281 0.94605 0.0
C880 C 0.91642 0.50508 0.94321 0.0
C881 C 0.90424 0.50628 0.95454 0.0
C882 C 0.90659 0.51494 0.96848 0.0
H883 H 0.94849 0.50598 0.0072 0.0
H884 H 0.93479 0.50083 0.99156 0.0
H885 H 0.953 0.51087 0.98696 0.0
H886 H 0.94454 0.52716 0.96195 0.0
H887 H 0.94052 0.51216 0.93758 0.0
H888 H 0.82405 0.7996 0.19445 0.0
H889 H 0.81178 0.81625 0.2148 0.0
H890 H 0.8399 0.79318 0.2507 0.0
H891 H 0.8524 0.77676 0.23051 0.0
H892 H 0.79398 0.80584 0.23933 0.0
H893 H 0.84522 0.83912 0.26289 0.0
H894 H 0.84596 0.82859 0.24427 0.0
H895 H 0.84894 0.81821 0.26269 0.0
C896 C 0.8278 0.79825 0.20665 0.0
C897 C 0.83922 0.78685 0.21086 0.0
C898 C 0.82078 0.80778 0.21825 0.0
C899 C 0.82512 0.80616 0.23423 0.0
C900 C 0.83667 0.79495 0.2384 0.0
H901 H 0.79028 0.82122 0.32627 0.0
H902 H 0.80505 0.81573 0.30202 0.0
C903 C 0.84371 0.78547 0.22684 0.0
C904 C 0.8166 0.81503 0.24677 0.0
H905 H 0.82248 0.83701 0.28024 0.0
C906 C 0.80014 0.81295 0.24808 0.0
C907 C 0.82467 0.82433 0.25816 0.0
C908 C 0.84215 0.82783 0.25684 0.0
C909 C 0.7917 0.81911 0.26101 0.0
C910 C 0.79993 0.82768 0.27282 0.0
C911 C 0.81624 0.83038 0.27116 0.0
C912 C 0.79204 0.83253 0.28769 0.0
C913 C 0.7742 0.81567 0.26241 0.0
C914 C 0.78013 0.84411 0.28772 0.0
C915 C 0.77165 0.84732 0.30161 0.0
C916 C 0.77495 0.83893 0.31564 0.0
C917 C 0.78737 0.82782 0.31566 0.0
C918 C 0.79587 0.8247 0.30183 0.0
H919 H 0.77007 0.80706 0.25335 0.0
H920 H 0.77141 0.81089 0.27435 0.0
H921 H 0.76743 0.82684 0.26087 0.0
H922 H 0.77713 0.85037 0.27693 0.0
H923 H 0.76217 0.85596 0.30121 0.0
H924 H 0.06212 0.97096 0.92777 0.0
H925 H 0.05761 0.9549 0.95141 0.0
H926 H 0.09557 0.97922 0.97545 0.0
H927 H 0.10026 0.99541 0.95176 0.0
H928 H 0.08154 0.93518 0.96992 0.0
H929 H 0.05342 0.9851 0.00285 0.0
H930 H 0.05487 0.98506 0.9815 0.0
H931 H 0.07221 0.98845 0.99329 0.0
C932 C 0.0696 0.97287 0.93803 0.0
C933 C 0.08149 0.98454 0.93793 0.0
C934 C 0.06703 0.96363 0.95149 0.0
C935 C 0.0762 0.96597 0.96513 0.0
C936 C 0.08834 0.97733 0.96501 0.0
H937 H 0.05048 0.92747 0.05789 0.0
H938 H 0.06545 0.94118 0.03718 0.0
C939 C 0.091 0.98653 0.95148 0.0
C940 C 0.07244 0.95694 0.97961 0.0
H941 H 0.05298 0.96007 0.01486 0.0
C942 C 0.07548 0.94061 0.97987 0.0
C943 C 0.06464 0.96414 0.99254 0.0
C944 C 0.06098 0.98164 0.99264 0.0
C945 C 0.07053 0.93116 0.99263 0.0
C946 C 0.06196 0.93822 0.00519 0.0
C947 C 0.05953 0.95468 0.00521 0.0
C948 C 0.05427 0.92869 0.01778 0.0
C949 C 0.07443 0.91372 0.99245 0.0
C950 C 0.04307 0.91707 0.01373 0.0
C951 C 0.03456 0.90917 0.02551 0.0
C952 C 0.03692 0.9129 0.04157 0.0
C953 C 0.04837 0.92433 0.04562 0.0
C954 C 0.05694 0.93217 0.03382 0.0
H955 H 0.08531 0.91135 0.98543 0.0
H956 H 0.07614 0.90905 0.00463 0.0
H957 H 0.06453 0.90714 0.9868 0.0
H958 H 0.04049 0.9145 0.00143 0.0
H959 H 0.02578 0.90051 0.02198 0.0
H960 H 0.31321 0.17723 0.30483 0.0
H961 H 0.29093 0.19005 0.31827 0.0
H962 H 0.25862 0.15695 0.29659 0.0
H963 H 0.28074 0.14404 0.2831 0.0
H964 H 0.25194 0.19044 0.29191 0.0
H965 H 0.26136 0.17481 0.35527 0.0
H966 H 0.27832 0.18203 0.34453 0.0
H967 H 0.2697 0.16334 0.33923 0.0
C968 C 0.3014 0.17252 0.3031 0.0
C969 C 0.29875 0.15964 0.29284 0.0
C970 C 0.2887 0.17981 0.31087 0.0
C971 C 0.27318 0.17435 0.30851 0.0
C972 C 0.27055 0.16126 0.29862 0.0
H973 H 0.17917 0.21021 0.3274 0.0
H974 H 0.20209 0.19415 0.3201 0.0
C975 C 0.28321 0.15391 0.29092 0.0
C976 C 0.25955 0.18314 0.31512 0.0
H977 H 0.24083 0.19309 0.34959 0.0
C978 C 0.24945 0.19097 0.30451 0.0
C979 C 0.25652 0.18395 0.33157 0.0
C980 C 0.26695 0.17552 0.34337 0.0
C981 C 0.2364 0.1997 0.3099 0.0
C982 C 0.23312 0.20024 0.32634 0.0
C983 C 0.24333 0.19255 0.33699 0.0
C984 C 0.21909 0.20878 0.33254 0.0
C985 C 0.22645 0.20854 0.29793 0.0
C986 C 0.22095 0.22181 0.34269 0.0
C987 C 0.20782 0.23094 0.34708 0.0
C988 C 0.19264 0.22716 0.34131 0.0
C989 C 0.19073 0.21356 0.33187 0.0
C990 C 0.20382 0.2044 0.32763 0.0
H991 H 0.23299 0.21052 0.28668 0.0
H992 H 0.21571 0.20147 0.29516 0.0
H993 H 0.22261 0.2202 0.30265 0.0
H994 H 0.23264 0.22531 0.3467 0.0
H995 H 0.20966 0.24132 0.35439 0.0
H996 H 0.48707 0.54651 0.89866 0.0
H997 H 0.47084 0.52338 0.90533 0.0
H998 H 0.44461 0.55139 0.93904 0.0
H999 H 0.46079 0.57454 0.93255 0.0
H1000 H 0.46826 0.51093 0.93785 0.0
H1001 H 0.41023 0.52776 0.91169 0.0
H1002 H 0.42878 0.53625 0.90515 0.0
H1003 H 0.41986 0.54282 0.92331 0.0
C1004 C 0.47772 0.54781 0.90735 0.0
C1005 C 0.47523 0.56236 0.91509 0.0
C1006 C 0.46848 0.53458 0.91114 0.0
C1007 C 0.45645 0.53576 0.92254 0.0
C1008 C 0.4537 0.55033 0.93003 0.0
H1009 H 0.39268 0.47718 0.97476 0.0
H1010 H 0.40657 0.49817 0.96052 0.0
C1011 C 0.46302 0.56351 0.92637 0.0
C1012 C 0.44752 0.52152 0.92751 0.0
H1013 H 0.41029 0.50583 0.92939 0.0
C1014 C 0.45562 0.50966 0.93585 0.0
C1015 C 0.43105 0.52004 0.92492 0.0
C1016 C 0.42193 0.53232 0.91567 0.0
C1017 C 0.44756 0.49662 0.94228 0.0
C1018 C 0.431 0.4952 0.93988 0.0
C1019 C 0.42298 0.5069 0.93117 0.0
C1020 C 0.42167 0.48225 0.94724 0.0
C1021 C 0.45674 0.48492 0.95222 0.0
C1022 C 0.42517 0.46629 0.94413 0.0
C1023 C 0.41736 0.45423 0.95239 0.0
C1024 C 0.40572 0.45793 0.96373 0.0
C1025 C 0.40161 0.4739 0.96614 0.0
C1026 C 0.40954 0.48594 0.958 0.0
H1027 H 0.46834 0.4898 0.9561 0.0
H1028 H 0.44991 0.48141 0.9629 0.0
H1029 H 0.4591 0.47411 0.94511 0.0
H1030 H 0.43421 0.46317 0.93557 0.0
H1031 H 0.42068 0.44205 0.95014 0.0
H1032 H 0.81883 0.26964 0.29363 0.0
H1033 H 0.79596 0.28686 0.29003 0.0
H1034 H 0.79003 0.28984 0.34073 0.0
H1035 H 0.81255 0.27176 0.34437 0.0
H1036 H 0.76239 0.28748 0.32758 0.0
H1037 H 0.79496 0.33341 0.29463 0.0
H1038 H 0.79702 0.31483 0.28463 0.0
H1039 H 0.80498 0.31724 0.30434 0.0
C1040 C 0.81269 0.274 0.30403 0.0
C1041 C 0.81757 0.26952 0.31929 0.0
C1042 C 0.79968 0.28396 0.30196 0.0
C1043 C 0.79156 0.29012 0.31511 0.0
C1044 C 0.7962 0.28539 0.3304 0.0
H1045 H 0.72521 0.36564 0.28979 0.0
H1046 H 0.74693 0.35147 0.30279 0.0
C1047 C 0.80906 0.27508 0.33247 0.0
C1048 C 0.77802 0.30115 0.3127 0.0
H1049 H 0.76658 0.33317 0.29089 0.0
C1050 C 0.76336 0.29764 0.31976 0.0
C1051 C 0.77931 0.31473 0.30292 0.0
C1052 C 0.79498 0.32036 0.29638 0.0
C1053 C 0.74981 0.3068 0.31661 0.0
C1054 C 0.75078 0.31939 0.30554 0.0
C1055 C 0.76564 0.32338 0.29916 0.0
C1056 C 0.73658 0.32816 0.29973 0.0
C1057 C 0.73469 0.30287 0.32532 0.0
C1058 C 0.72333 0.3199 0.2939 0.0
C1059 C 0.71069 0.32805 0.28695 0.0
C1060 C 0.71132 0.34457 0.28513 0.0
C1061 C 0.72446 0.35288 0.29104 0.0
C1062 C 0.73688 0.34478 0.29844 0.0
H1063 H 0.73728 0.29791 0.33723 0.0
H1064 H 0.72702 0.31346 0.32678 0.0
H1065 H 0.72807 0.29371 0.3186 0.0
H1066 H 0.72297 0.30708 0.29414 0.0
H1067 H 0.70081 0.32133 0.28225 0.0
H1068 H 0.50446 0.94654 0.9068 0.0
H1069 H 0.51915 0.97143 0.90882 0.0
H1070 H 0.5514 0.94981 0.94203 0.0
H1071 H 0.53685 0.92485 0.94008 0.0
H1072 H 0.5225 0.98767 0.93777 0.0
H1073 H 0.58102 0.97387 0.9114 0.0
H1074 H 0.56352 0.96213 0.90754 0.0
H1075 H 0.57445 0.95947 0.92564 0.0
C1076 C 0.51483 0.94698 0.91434 0.0
C1077 C 0.51945 0.93373 0.92335 0.0
C1078 C 0.52322 0.96121 0.91545 0.0
C1079 C 0.53645 0.96237 0.92541 0.0
C1080 C 0.5414 0.94904 0.93402 0.0
H1081 H 0.59347 0.02724 0.9744 0.0
H1082 H 0.5816 0.00526 0.95997 0.0
C1083 C 0.53299 0.93483 0.93298 0.0
C1084 C 0.54404 0.9779 0.92824 0.0
H1085 H 0.57982 0.99669 0.92835 0.0
C1086 C 0.53496 0.98981 0.93544 0.0
C1087 C 0.56027 0.98057 0.92518 0.0
C1088 C 0.57037 0.96839 0.91687 0.0
C1089 C 0.54192 0.00399 0.94059 0.0
C1090 C 0.55833 0.00642 0.9381 0.0
C1091 C 0.56724 0.9948 0.93021 0.0
C1092 C 0.56673 0.02006 0.94522 0.0
C1093 C 0.53184 0.01577 0.94952 0.0
C1094 C 0.56267 0.03572 0.94136 0.0
C1095 C 0.56935 0.04838 0.94974 0.0
C1096 C 0.5803 0.04553 0.96197 0.0
C1097 C 0.585 0.02986 0.96513 0.0
C1098 C 0.57826 0.01727 0.95685 0.0
H1099 H 0.52024 0.01067 0.95309 0.0
H1100 H 0.53806 0.01998 0.96033 0.0
H1101 H 0.52951 0.02619 0.94185 0.0
H1102 H 0.55402 0.03813 0.9322 0.0
H1103 H 0.5656 0.06033 0.94692 0.0
H1104 H 0.18001 0.76787 0.18934 0.0
H1105 H 0.20249 0.78499 0.19541 0.0
H1106 H 0.22349 0.77389 0.1502 0.0
H1107 H 0.20096 0.75658 0.14394 0.0
H1108 H 0.23642 0.77367 0.19462 0.0
H1109 H 0.22233 0.82463 0.15499 0.0
H1110 H 0.20721 0.81113 0.16188 0.0
H1111 H 0.2211 0.8048 0.14713 0.0
C1112 C 0.18933 0.7691 0.18061 0.0
C1113 C 0.1887 0.76085 0.16615 0.0
C1114 C 0.20217 0.77888 0.18412 0.0
C1115 C 0.21453 0.78072 0.17321 0.0
C1116 C 0.21394 0.77267 0.15869 0.0
H1117 H 0.30461 0.82421 0.20053 0.0
H1118 H 0.28506 0.80786 0.18671 0.0
C1119 C 0.20111 0.76277 0.15518 0.0
C1120 C 0.22825 0.79067 0.17747 0.0
H1121 H 0.24468 0.82715 0.17157 0.0
C1122 C 0.23839 0.78528 0.18946 0.0
C1123 C 0.23059 0.80581 0.17074 0.0
C1124 C 0.21975 0.81208 0.158 0.0
C1125 C 0.2507 0.79484 0.1952 0.0
C1126 C 0.25292 0.81009 0.18865 0.0
C1127 C 0.24295 0.81538 0.17644 0.0
C1128 C 0.26484 0.82107 0.19523 0.0
C1129 C 0.26086 0.78881 0.20864 0.0
C1130 C 0.25989 0.83419 0.20413 0.0
C1131 C 0.27099 0.84354 0.21207 0.0
C1132 C 0.28724 0.83995 0.21115 0.0
C1133 C 0.29218 0.82725 0.20155 0.0
C1134 C 0.28106 0.81788 0.19366 0.0
H1135 H 0.25599 0.77781 0.21399 0.0
H1136 H 0.27293 0.78619 0.20413 0.0
H1137 H 0.26196 0.79795 0.21804 0.0
H1138 H 0.24739 0.83681 0.20544 0.0
H1139 H 0.26679 0.85329 0.21929 0.0
H1140 H 0.06992 0.43456 0.05169 0.0
H1141 H 0.05586 0.45571 0.0657 0.0
H1142 H 0.07965 0.49064 0.03694 0.0
H1143 H 0.09405 0.46967 0.02323 0.0
H1144 H 0.07778 0.49973 0.06789 0.0
H1145 H 0.0189 0.47937 0.04634 0.0
H1146 H 0.02982 0.46489 0.05746 0.0
H1147 H 0.03723 0.47156 0.03863 0.0
C1148 C 0.07225 0.44675 0.04844 0.0
C1149 C 0.083 0.45042 0.03624 0.0
C1150 C 0.06413 0.45882 0.05639 0.0
C1151 C 0.06645 0.47473 0.05212 0.0
C1152 C 0.07762 0.47844 0.04038 0.0
H1153 H 0.02524 0.5659 0.06154 0.0
H1154 H 0.0414 0.54247 0.05631 0.0
C1155 C 0.08583 0.46642 0.03253 0.0
C1156 C 0.05697 0.48759 0.05943 0.0
H1157 H 0.01925 0.5019 0.06276 0.0
C1158 C 0.06498 0.50014 0.06688 0.0
C1159 C 0.04024 0.48811 0.05808 0.0
C1160 C 0.03102 0.47535 0.04958 0.0
C1161 C 0.05673 0.51335 0.07271 0.0
C1162 C 0.0401 0.51401 0.071 0.0
C1163 C 0.03202 0.50125 0.06409 0.0
C1164 C 0.031 0.52841 0.07505 0.0
C1165 C 0.06586 0.52662 0.08046 0.0
C1166 C 0.01974 0.52819 0.08727 0.0
C1167 C 0.01051 0.54161 0.09035 0.0
C1168 C 0.01222 0.55535 0.08107 0.0
C1169 C 0.0236 0.5555 0.0689 0.0
C1170 C 0.03292 0.54217 0.06594 0.0
H1171 H 0.07788 0.52275 0.08421 0.0
H1172 H 0.06723 0.5365 0.07188 0.0
H1173 H 0.05939 0.53123 0.09095 0.0
H1174 H 0.01804 0.5176 0.09432 0.0
H1175 H 0.0018 0.5411 0.09977 0.0
H1176 H 0.79863 0.74321 0.14865 0.0
H1177 H 0.77398 0.72843 0.15315 0.0
H1178 H 0.7915 0.71291 0.19854 0.0
H1179 H 0.81611 0.72749 0.19421 0.0
H1180 H 0.77088 0.69277 0.1629 0.0
H1181 H 0.74713 0.73741 0.20514 0.0
H1182 H 0.7619 0.74219 0.19039 0.0
H1183 H 0.76747 0.73169 0.20803 0.0
C1184 C 0.79726 0.73659 0.15955 0.0
C1185 C 0.80929 0.73659 0.17111 0.0
C1186 C 0.78321 0.72814 0.16206 0.0
C1187 C 0.78098 0.71972 0.1762 0.0
C1188 C 0.79304 0.71944 0.1876 0.0
H1189 H 0.72125 0.65047 0.21678 0.0
H1190 H 0.74172 0.66474 0.20217 0.0
C1191 C 0.80709 0.72777 0.18508 0.0
C1192 C 0.76589 0.71153 0.17945 0.0
H1193 H 0.73412 0.7125 0.20433 0.0
C1194 C 0.76268 0.69714 0.17178 0.0
C1195 C 0.75521 0.71741 0.19089 0.0
C1196 C 0.75796 0.73309 0.19904 0.0
C1197 C 0.74934 0.68806 0.17587 0.0
C1198 C 0.73915 0.69352 0.188 0.0
C1199 C 0.74198 0.70831 0.19506 0.0
C1200 C 0.7262 0.68367 0.19452 0.0
C1201 C 0.7464 0.67263 0.16736 0.0
C1202 C 0.71065 0.68953 0.19499 0.0
C1203 C 0.69893 0.68145 0.20344 0.0
C1204 C 0.7026 0.66744 0.21168 0.0
C1205 C 0.71802 0.66122 0.21057 0.0
C1206 C 0.72972 0.6693 0.20211 0.0
H1207 H 0.75208 0.67253 0.15549 0.0
H1208 H 0.75156 0.66278 0.17439 0.0
H1209 H 0.73351 0.67036 0.16593 0.0
H1210 H 0.70773 0.70066 0.1893 0.0
H1211 H 0.68717 0.68655 0.20403 0.0
H1212 H 0.89908 0.02195 0.02998 0.0
H1213 H 0.91374 0.00204 0.04487 0.0
H1214 H 0.94115 0.03881 0.06746 0.0
H1215 H 0.92675 0.05887 0.05227 0.0
H1216 H 0.9597 0.01643 0.05476 0.0
H1217 H 0.91305 0.98713 0.09011 0.0
H1218 H 0.90778 0.98787 0.06955 0.0
H1219 H 0.90999 0.00603 0.08056 0.0
C1220 C 0.90802 0.02585 0.03832 0.0
C1221 C 0.91178 0.04201 0.0399 0.0
C1222 C 0.91632 0.01444 0.04694 0.0
C1223 C 0.92837 0.01894 0.05748 0.0
C1224 C 0.93181 0.03509 0.05947 0.0
H1225 H 0.99835 0.95446 0.10085 0.0
H1226 H 0.98173 0.97795 0.09669 0.0
C1227 C 0.92358 0.04653 0.05078 0.0
C1228 C 0.93844 0.00668 0.06501 0.0
H1229 H 0.93682 0.97173 0.08533 0.0
C1230 C 0.95476 0.00684 0.06176 0.0
C1231 C 0.93198 0.99419 0.07415 0.0
C1232 C 0.91476 0.99388 0.07893 0.0
C1233 C 0.96462 0.99437 0.06658 0.0
C1234 C 0.95798 0.98149 0.07495 0.0
C1235 C 0.94182 0.98163 0.07883 0.0
C1236 C 0.96735 0.96714 0.07843 0.0
C1237 C 0.98191 0.99461 0.062 0.0
C1238 C 0.96452 0.9533 0.06972 0.0
C1239 C 0.97398 0.93995 0.07199 0.0
C1240 C 0.98639 0.94016 0.08311 0.0
C1241 C 0.9889 0.95393 0.09217 0.0
C1242 C 0.97946 0.96735 0.08981 0.0
H1243 H 0.98483 0.00468 0.05404 0.0
H1244 H 0.98929 0.99561 0.07284 0.0
H1245 H 0.98516 0.98337 0.05598 0.0
H1246 H 0.95521 0.95296 0.06088 0.0
H1247 H 0.97167 0.92951 0.06488 0.0
H1248 H 0.28574 0.29664 0.18824 0.0
H1249 H 0.30066 0.27593 0.20167 0.0
H1250 H 0.30978 0.25323 0.15672 0.0
H1251 H 0.2938 0.27347 0.14335 0.0
H1252 H 0.30166 0.23221 0.17573 0.0
H1253 H 0.34574 0.2675 0.20812 0.0
H1254 H 0.32648 0.27462 0.21334 0.0
H1255 H 0.33328 0.27619 0.1931 0.0
C1256 C 0.29113 0.28735 0.1812 0.0
C1257 C 0.28868 0.28665 0.16477 0.0
C1258 C 0.29983 0.27558 0.18888 0.0
C1259 C 0.30677 0.26318 0.18022 0.0
C1260 C 0.30464 0.26271 0.16369 0.0
H1261 H 0.36103 0.19548 0.2384 0.0
H1262 H 0.35484 0.2162 0.21895 0.0
C1263 C 0.29553 0.27426 0.15605 0.0
C1264 C 0.31481 0.24994 0.18864 0.0
H1265 H 0.33909 0.24191 0.21998 0.0
C1266 C 0.31011 0.23436 0.18518 0.0
C1267 C 0.32621 0.25252 0.2007 0.0
C1268 C 0.33333 0.26862 0.20386 0.0
C1269 C 0.31568 0.22147 0.19405 0.0
C1270 C 0.32559 0.22429 0.2073 0.0
C1271 C 0.33114 0.23973 0.21011 0.0
C1272 C 0.32957 0.2116 0.21883 0.0
C1273 C 0.31083 0.20499 0.18904 0.0
C1274 C 0.31744 0.20234 0.2255 0.0
C1275 C 0.32101 0.19032 0.23624 0.0
C1276 C 0.33671 0.18767 0.24102 0.0
C1277 C 0.34882 0.1973 0.23488 0.0
C1278 C 0.34529 0.20911 0.22377 0.0
H1279 H 0.30904 0.20437 0.17601 0.0
H1280 H 0.31982 0.19602 0.19245 0.0
H1281 H 0.29937 0.20192 0.19472 0.0
H1282 H 0.30516 0.20445 0.22246 0.0
H1283 H 0.31141 0.18324 0.24101 0.0
H1284 H 0.35251 0.80587 0.25267 0.0
H1285 H 0.34943 0.78125 0.26794 0.0
H1286 H 0.30396 0.79729 0.28475 0.0
H1287 H 0.30689 0.82181 0.26976 0.0
H1288 H 0.33984 0.77892 0.30479 0.0
H1289 H 0.2993 0.75171 0.26049 0.0
H1290 H 0.31377 0.76663 0.25527 0.0
H1291 H 0.29584 0.77222 0.26523 0.0
C1292 C 0.34191 0.80419 0.2597 0.0
C1293 C 0.32992 0.81579 0.25995 0.0
C1294 C 0.34019 0.79015 0.26841 0.0
C1295 C 0.32644 0.7875 0.27735 0.0
C1296 C 0.31463 0.79915 0.27785 0.0
H1297 H 0.28684 0.7303 0.3487 0.0
H1298 H 0.30098 0.75024 0.33326 0.0
C1299 C 0.31635 0.81316 0.26927 0.0
C1300 C 0.32394 0.77246 0.28592 0.0
H1301 H 0.3002 0.73977 0.28594 0.0
C1302 C 0.3314 0.77018 0.30059 0.0
C1303 C 0.31304 0.76108 0.2803 0.0
C1304 C 0.30506 0.76289 0.2644 0.0
C1305 C 0.32757 0.75714 0.31021 0.0
C1306 C 0.31588 0.74628 0.30502 0.0
C1307 C 0.30912 0.74813 0.28993 0.0
C1308 C 0.30939 0.73377 0.31549 0.0
C1309 C 0.33582 0.75525 0.32594 0.0
C1310 C 0.30943 0.71786 0.31066 0.0
C1311 C 0.30128 0.70641 0.31945 0.0
C1312 C 0.29278 0.71072 0.33313 0.0
C1313 C 0.29327 0.72657 0.33824 0.0
C1314 C 0.30146 0.73798 0.32949 0.0
H1315 H 0.34756 0.76121 0.32594 0.0
H1316 H 0.32849 0.76081 0.33534 0.0
H1317 H 0.33748 0.74256 0.32896 0.0
H1318 H 0.31537 0.71439 0.29983 0.0
H1319 H 0.30112 0.69431 0.31516 0.0
H1320 H 0.93632 0.4406 0.93046 0.0
H1321 H 0.95524 0.42431 0.94528 0.0
H1322 H 0.99389 0.44584 0.91968 0.0
H1323 H 0.97516 0.4618 0.90459 0.0
H1324 H 0.99805 0.41371 0.92391 0.0
H1325 H 0.98189 0.44338 0.98063 0.0
H1326 H 0.96603 0.43356 0.97038 0.0
H1327 H 0.97525 0.45066 0.96167 0.0
C1328 C 0.94884 0.44172 0.92787 0.0
C1329 C 0.95425 0.45262 0.91647 0.0
C1330 C 0.95963 0.43247 0.9364 0.0
C1331 C 0.97597 0.4341 0.93378 0.0
C1332 C 0.98132 0.44443 0.92192 0.0
H1333 H 0.06655 0.42241 0.97159 0.0
H1334 H 0.04261 0.42585 0.95574 0.0
C1335 C 0.97058 0.45359 0.91333 0.0
C1336 C 0.98773 0.42585 0.94386 0.0
H1337 H 0.00313 0.42554 0.98127 0.0
C1338 C 0.99903 0.4161 0.93651 0.0
C1339 C 0.98896 0.42898 0.9603 0.0
C1340 C 0.97749 0.4398 0.96875 0.0
C1341 C 0.0119 0.40995 0.94502 0.0
C1342 C 0.01352 0.41372 0.96124 0.0
C1343 C 0.00177 0.42268 0.96882 0.0
C1344 C 0.02822 0.4102 0.97007 0.0
C1345 C 0.02395 0.39986 0.93652 0.0
C1346 C 0.02799 0.40032 0.98342 0.0
C1347 C 0.04171 0.39827 0.99251 0.0
C1348 C 0.05574 0.40634 0.98852 0.0
C1349 C 0.05592 0.41607 0.975 0.0
C1350 C 0.04229 0.41795 0.96586 0.0
H1351 H 0.0189 0.39446 0.92561 0.0
H1352 H 0.03415 0.40737 0.933 0.0
H1353 H 0.02843 0.39028 0.94435 0.0
H1354 H 0.01715 0.39438 0.98692 0.0
H1355 H 0.04119 0.39075 0.0029 0.0
H1356 H 0.71232 0.81114 0.32759 0.0
H1357 H 0.69871 0.79012 0.31297 0.0
H1358 H 0.7266 0.75495 0.33734 0.0
H1359 H 0.74027 0.77587 0.35209 0.0
H1360 H 0.72614 0.75379 0.30223 0.0
H1361 H 0.66606 0.75596 0.32937 0.0
H1362 H 0.6748 0.77453 0.32355 0.0
H1363 H 0.68347 0.76336 0.33941 0.0
C1364 C 0.71546 0.79893 0.32999 0.0
C1365 C 0.72741 0.79519 0.34101 0.0
C1366 C 0.70761 0.78694 0.32166 0.0
C1367 C 0.71158 0.77101 0.32418 0.0
C1368 C 0.72332 0.7672 0.33531 0.0
H1369 H 0.69106 0.68139 0.2796 0.0
H1370 H 0.70102 0.70318 0.29573 0.0
C1371 C 0.7311 0.77916 0.34373 0.0
C1372 C 0.70425 0.75838 0.31446 0.0
H1373 H 0.66957 0.73866 0.30763 0.0
C1374 C 0.71379 0.75044 0.30342 0.0
C1375 C 0.68809 0.75424 0.31592 0.0
C1376 C 0.67745 0.76236 0.32775 0.0
C1377 C 0.70758 0.73843 0.29374 0.0
C1378 C 0.6915 0.73395 0.29548 0.0
C1379 C 0.68189 0.74207 0.30637 0.0
C1380 C 0.68465 0.72056 0.28637 0.0
C1381 C 0.71827 0.73088 0.28154 0.0
C1382 C 0.67163 0.72289 0.27625 0.0
C1383 C 0.66574 0.71035 0.2671 0.0
C1384 C 0.6728 0.69527 0.26794 0.0
C1385 C 0.68548 0.69289 0.27849 0.0
C1386 C 0.69125 0.70537 0.28768 0.0
H1387 H 0.72839 0.73872 0.27845 0.0
H1388 H 0.7232 0.71972 0.28644 0.0
H1389 H 0.71166 0.72801 0.27053 0.0
H1390 H 0.66627 0.73451 0.27516 0.0
H1391 H 0.65594 0.71255 0.25912 0.0
H1392 H 0.45007 0.60062 0.50399 0.0
H1393 H 0.47415 0.59666 0.48813 0.0
H1394 H 0.44904 0.56372 0.45821 0.0
H1395 H 0.42508 0.56751 0.47392 0.0
H1396 H 0.48882 0.56576 0.48364 0.0
H1397 H 0.47206 0.59396 0.42673 0.0
H1398 H 0.46238 0.59861 0.44526 0.0
H1399 H 0.45725 0.58087 0.43465 0.0
C1400 C 0.44963 0.59272 0.49388 0.0
C1401 C 0.43568 0.58435 0.49022 0.0
C1402 C 0.46338 0.59047 0.48487 0.0
C1403 C 0.46329 0.58005 0.47191 0.0
C1404 C 0.44928 0.57201 0.46801 0.0
H1405 H 0.52086 0.52985 0.40735 0.0
H1406 H 0.50052 0.54398 0.42223 0.0
C1407 C 0.43562 0.57412 0.47707 0.0
C1408 C 0.47804 0.57642 0.46315 0.0
H1409 H 0.49373 0.57565 0.4259 0.0
C1410 C 0.49009 0.56818 0.47108 0.0
C1411 C 0.47956 0.57956 0.44678 0.0
C1412 C 0.4672 0.58886 0.43785 0.0
C1413 C 0.50323 0.56212 0.46286 0.0
C1414 C 0.50448 0.56474 0.44633 0.0
C1415 C 0.49275 0.57363 0.43856 0.0
C1416 C 0.51708 0.5572 0.43668 0.0
C1417 C 0.51514 0.55219 0.47178 0.0
C1418 C 0.53318 0.56022 0.43959 0.0
C1419 C 0.54489 0.55204 0.43117 0.0
C1420 C 0.54068 0.54083 0.41956 0.0
C1421 C 0.52454 0.53835 0.41623 0.0
C1422 C 0.51287 0.54644 0.42472 0.0
H1423 H 0.51063 0.54848 0.48358 0.0
H1424 H 0.5183 0.5414 0.46493 0.0
H1425 H 0.5261 0.5592 0.47365 0.0
H1426 H 0.53669 0.56873 0.44853 0.0
H1427 H 0.55722 0.55432 0.43392 0.0
H1428 H 0.20815 0.67936 0.69551 0.0
H1429 H 0.19105 0.69509 0.71312 0.0
H1430 H 0.18055 0.72683 0.67446 0.0
H1431 H 0.19735 0.71131 0.65698 0.0
H1432 H 0.19741 0.72628 0.71998 0.0
H1433 H 0.13726 0.72197 0.69476 0.0
H1434 H 0.15264 0.70776 0.69026 0.0
H1435 H 0.1515 0.72621 0.67957 0.0
C1436 C 0.20184 0.68946 0.69072 0.0
C1437 C 0.20416 0.69418 0.67492 0.0
C1438 C 0.1921 0.69842 0.70077 0.0
C1439 C 0.18434 0.712 0.69504 0.0
C1440 C 0.18609 0.71621 0.67907 0.0
H1441 H 0.17143 0.80434 0.72485 0.0
H1442 H 0.17815 0.77819 0.71463 0.0
C1443 C 0.19587 0.7074 0.66912 0.0
C1444 C 0.17631 0.72321 0.70592 0.0
H1445 H 0.1435 0.74677 0.70847 0.0
C1446 C 0.18545 0.73045 0.71777 0.0
C1447 C 0.16065 0.72857 0.70318 0.0
C1448 C 0.1499 0.72058 0.69135 0.0
C1449 C 0.17987 0.74379 0.72595 0.0
C1450 C 0.16485 0.75009 0.72205 0.0
C1451 C 0.15513 0.74205 0.71123 0.0
C1452 C 0.15991 0.7659 0.72779 0.0
C1453 C 0.19039 0.7515 0.73818 0.0
C1454 C 0.14705 0.76769 0.73816 0.0
C1455 C 0.14313 0.78271 0.74406 0.0
C1456 C 0.15195 0.79614 0.73954 0.0
C1457 C 0.16442 0.79428 0.72864 0.0
C1458 C 0.16834 0.77932 0.72284 0.0
H1459 H 0.19925 0.74301 0.74296 0.0
H1460 H 0.19691 0.76146 0.73261 0.0
H1461 H 0.18329 0.75631 0.74816 0.0
H1462 H 0.14032 0.75744 0.74198 0.0
H1463 H 0.13344 0.78374 0.75242 0.0
H1464 H 0.0425 0.60681 0.49741 0.0
H1465 H 0.01967 0.6003 0.51421 0.0
H1466 H 0.04948 0.57078 0.54336 0.0
H1467 H 0.07226 0.57716 0.52674 0.0
H1468 H 0.00869 0.56851 0.51896 0.0
H1469 H 0.02422 0.59753 0.57579 0.0
H1470 H 0.03302 0.60322 0.55711 0.0
H1471 H 0.04002 0.58596 0.56744 0.0
C1472 C 0.04424 0.59915 0.50756 0.0
C1473 C 0.05918 0.59247 0.51073 0.0
C1474 C 0.03119 0.59544 0.51712 0.0
C1475 C 0.03295 0.58523 0.53012 0.0
C1476 C 0.04793 0.57892 0.53355 0.0
H1477 H 0.98169 0.52858 0.5952 0.0
H1478 H 0.00049 0.54478 0.58035 0.0
C1479 C 0.06092 0.58249 0.52396 0.0
C1480 C 0.01899 0.5799 0.53931 0.0
H1481 H 0.00453 0.57709 0.57697 0.0
C1482 C 0.00757 0.57061 0.53159 0.0
C1483 C 0.01767 0.58262 0.55578 0.0
C1484 C 0.0293 0.593 0.56452 0.0
C1485 C 0.99532 0.56321 0.54007 0.0
C1486 C 0.99428 0.5655 0.55666 0.0
C1487 C 0.00536 0.57533 0.56426 0.0
C1488 C 0.98259 0.5568 0.56647 0.0
C1489 C 0.98416 0.5523 0.53131 0.0
C1490 C 0.96624 0.55849 0.56391 0.0
C1491 C 0.95543 0.54914 0.57231 0.0
C1492 C 0.9608 0.53806 0.58355 0.0
C1493 C 0.97714 0.53695 0.5866 0.0
C1494 C 0.98792 0.54622 0.57813 0.0
H1495 H 0.98872 0.54912 0.51938 0.0
H1496 H 0.98214 0.54122 0.53811 0.0
H1497 H 0.97257 0.5583 0.52974 0.0
H1498 H 0.96185 0.56685 0.55521 0.0
H1499 H 0.94291 0.55039 0.56978 0.0
H1500 H 0.95367 0.93781 0.52741 0.0
H1501 H 0.98136 0.93939 0.53583 0.0
H1502 H 0.99461 0.90648 0.49907 0.0
H1503 H 0.96693 0.90468 0.49066 0.0
H1504 H 0.00885 0.89982 0.52823 0.0
H1505 H 0.01653 0.96289 0.51189 0.0
H1506 H -0.0002 0.9597 0.52462 0.0
H1507 H -3e-05 0.95117 0.50507 0.0
C1508 C 0.96245 0.93088 0.52113 0.0
C1509 C 0.95807 0.9212 0.5083 0.0
C1510 C 0.97829 0.93187 0.52589 0.0
C1511 C 0.99008 0.92327 0.51788 0.0
C1512 C 0.98572 0.9133 0.50533 0.0
H1513 H 0.08473 0.95385 0.54488 0.0
H1514 H 0.06554 0.94166 0.52676 0.0
C1515 C 0.96988 0.9123 0.50055 0.0
C1516 C 0.00692 0.92467 0.52272 0.0
H1517 H 0.03588 0.95198 0.52956 0.0
C1518 C 0.01488 0.91117 0.52831 0.0
C1519 C 0.01494 0.93938 0.5224 0.0
C1520 C 0.00744 0.95408 0.51551 0.0
C1521 C 0.03027 0.91223 0.53462 0.0
C1522 C 0.03776 0.9272 0.53553 0.0
C1523 C 0.03018 0.94048 0.52893 0.0
C1524 C 0.05215 0.93 0.54528 0.0
C1525 C 0.03818 0.89736 0.54055 0.0
C1526 C 0.05159 0.9267 0.56157 0.0
C1527 C 0.06256 0.93356 0.57185 0.0
C1528 C 0.07427 0.94386 0.56604 0.0
C1529 C 0.076 0.94571 0.54961 0.0
C1530 C 0.06492 0.93889 0.53928 0.0
H1531 H 0.03426 0.88686 0.53364 0.0
H1532 H 0.0513 0.89824 0.53988 0.0
H1533 H 0.03475 0.89535 0.55309 0.0
H1534 H 0.04173 0.9202 0.56659 0.0
H1535 H 0.06088 0.93213 0.5845 0.0
H1536 H 0.72406 0.8126 0.67358 0.0
H1537 H 0.70733 0.80793 0.6967 0.0
H1538 H 0.73568 0.84049 0.72403 0.0
H1539 H 0.75253 0.84534 0.70083 0.0
H1540 H 0.73098 0.80886 0.7374 0.0
H1541 H 0.67457 0.83736 0.71939 0.0
H1542 H 0.68333 0.82494 0.70448 0.0
H1543 H 0.69347 0.84258 0.71076 0.0
C1544 C 0.72665 0.81893 0.68444 0.0
C1545 C 0.73965 0.82932 0.68538 0.0
C1546 C 0.717 0.81633 0.69761 0.0
C1547 C 0.72018 0.82401 0.71199 0.0
C1548 C 0.73298 0.83457 0.71297 0.0
H1549 H 0.67912 0.79476 0.80351 0.0
H1550 H 0.69429 0.81005 0.78404 0.0
C1551 C 0.74257 0.83733 0.69971 0.0
C1552 C 0.71087 0.81983 0.72624 0.0
H1553 H 0.67308 0.81854 0.74053 0.0
C1554 C 0.71838 0.81121 0.73829 0.0
C1555 C 0.69445 0.8229 0.72726 0.0
C1556 C 0.68597 0.83258 0.71486 0.0
C1557 C 0.7097 0.80472 0.75091 0.0
C1558 C 0.69313 0.8073 0.75165 0.0
C1559 C 0.68577 0.81656 0.73994 0.0
C1560 C 0.68304 0.79933 0.76363 0.0
C1561 C 0.7182 0.79439 0.76279 0.0
C1562 C 0.67121 0.78877 0.75863 0.0
C1563 C 0.66239 0.7802 0.76969 0.0
C1564 C 0.66527 0.78198 0.78601 0.0
C1565 C 0.67673 0.793 0.79102 0.0
C1566 C 0.68547 0.80168 0.77992 0.0
H1567 H 0.73014 0.79079 0.75855 0.0
H1568 H 0.71974 0.80105 0.77401 0.0
H1569 H 0.71124 0.78353 0.76538 0.0
H1570 H 0.6691 0.78681 0.74612 0.0
H1571 H 0.65364 0.77185 0.76541 0.0
H1572 H 0.03339 0.09738 0.46873 0.0
H1573 H 0.04158 0.0795 0.48982 0.0
H1574 H 0.02769 0.03935 0.46142 0.0
H1575 H 0.01923 0.05737 0.44011 0.0
H1576 H 0.01459 0.03946 0.49223 0.0
H1577 H 0.07934 0.04984 0.49439 0.0
H1578 H 0.06817 0.06792 0.49469 0.0
H1579 H 0.06738 0.05531 0.47751 0.0
C1580 C 0.03244 0.08472 0.46678 0.0
C1581 C 0.02573 0.07875 0.45275 0.0
C1582 C 0.03715 0.07451 0.47885 0.0
C1583 C 0.03533 0.0581 0.47716 0.0
C1584 C 0.02924 0.052 0.46291 0.0
H1585 H 0.07309 0.99386 0.54703 0.0
H1586 H 0.06524 0.0072 0.52279 0.0
C1587 C 0.02458 0.06227 0.4507 0.0
C1588 C 0.03875 0.04762 0.49083 0.0
H1589 H 0.06763 0.0384 0.51753 0.0
C1590 C 0.02623 0.03902 0.49767 0.0
C1591 C 0.05393 0.04707 0.49788 0.0
C1592 C 0.06801 0.05541 0.49065 0.0
C1593 C 0.02844 0.0302 0.51164 0.0
C1594 C 0.04347 0.03024 0.51906 0.0
C1595 C 0.05604 0.03854 0.51197 0.0
C1596 C 0.04681 0.02121 0.53378 0.0
C1597 C 0.01473 0.02082 0.51823 0.0
C1598 C 0.03887 0.02445 0.54809 0.0
C1599 C 0.04329 0.01667 0.56213 0.0
C1600 C 0.0559 0.0058 0.56204 0.0
C1601 C 0.0635 0.00238 0.5476 0.0
C1602 C 0.059 0.00995 0.53367 0.0
H1603 H 0.00537 0.01885 0.50918 0.0
H1604 H 0.01876 0.00914 0.52276 0.0
H1605 H 0.00937 0.02745 0.52823 0.0
H1606 H 0.0296 0.0333 0.54849 0.0
H1607 H 0.03724 0.01953 0.57308 0.0
H1608 H 0.31926 0.73016 0.78455 0.0
H1609 H 0.30752 0.72306 0.75912 0.0
H1610 H 0.351 0.73565 0.73535 0.0
H1611 H 0.36264 0.74341 0.76077 0.0
H1612 H 0.32653 0.74749 0.71996 0.0
H1613 H 0.31397 0.68455 0.73268 0.0
H1614 H 0.30493 0.6971 0.74722 0.0
H1615 H 0.32622 0.69651 0.74547 0.0
C1616 C 0.32642 0.7312 0.77394 0.0
C1617 C 0.34192 0.73724 0.77468 0.0
C1618 C 0.3197 0.72707 0.7594 0.0
C1619 C 0.32847 0.72851 0.74533 0.0
C1620 C 0.34403 0.73437 0.74605 0.0
H1621 H 0.28723 0.68509 0.6617 0.0
H1622 H 0.30638 0.6931 0.6819 0.0
C1623 C 0.35069 0.73874 0.76059 0.0
C1624 C 0.3211 0.72457 0.72985 0.0
H1625 H 0.2996 0.69606 0.711 0.0
C1626 C 0.32083 0.73615 0.71789 0.0
C1627 C 0.31392 0.70969 0.72701 0.0
C1628 C 0.31493 0.69621 0.73872 0.0
C1629 C 0.31308 0.73346 0.70339 0.0
C1630 C 0.30494 0.71899 0.70101 0.0
C1631 C 0.30568 0.70724 0.7128 0.0
C1632 C 0.29522 0.71572 0.68668 0.0
C1633 C 0.31387 0.74611 0.69078 0.0
C1634 C 0.2829 0.72601 0.68213 0.0
C1635 C 0.27225 0.72162 0.67018 0.0
C1636 C 0.27351 0.70671 0.66299 0.0
C1637 C 0.28613 0.6967 0.66708 0.0
C1638 C 0.297 0.70124 0.67866 0.0
H1639 H 0.32478 0.75339 0.69202 0.0
H1640 H 0.31363 0.74091 0.6787 0.0
H1641 H 0.30356 0.75416 0.6921 0.0
H1642 H 0.28096 0.73703 0.68839 0.0
H1643 H 0.26239 0.72936 0.6674 0.0
H1644 H 0.95736 0.43421 0.43478 0.0
H1645 H 0.94291 0.44913 0.45504 0.0
H1646 H 0.95568 0.41417 0.49003 0.0
H1647 H 0.96999 0.39911 0.46992 0.0
H1648 H 0.92371 0.42641 0.49277 0.0
H1649 H 0.97009 0.47324 0.48836 0.0
H1650 H 0.95995 0.4681 0.47034 0.0
H1651 H 0.97261 0.45383 0.47976 0.0
C1652 C 0.95684 0.42954 0.44672 0.0
C1653 C 0.96501 0.41559 0.45079 0.0
C1654 C 0.94862 0.4381 0.45827 0.0
C1655 C 0.94846 0.43284 0.47404 0.0
C1656 C 0.95572 0.41842 0.47792 0.0
H1657 H 0.94627 0.47667 0.56394 0.0
H1658 H 0.95096 0.46186 0.53957 0.0
C1659 C 0.96394 0.40986 0.46641 0.0
C1660 C 0.94218 0.44299 0.48686 0.0
H1661 H 0.95064 0.47644 0.50794 0.0
C1662 C 0.92941 0.43748 0.49598 0.0
C1663 C 0.94983 0.4573 0.49107 0.0
C1664 C 0.96395 0.46349 0.48198 0.0
C1665 C 0.9243 0.44578 0.50947 0.0
C1666 C 0.93216 0.4599 0.51382 0.0
C1667 C 0.94464 0.46562 0.50446 0.0
C1668 C 0.92861 0.46826 0.52878 0.0
C1669 C 0.91101 0.4391 0.51938 0.0
C1670 C 0.91444 0.47671 0.53074 0.0
C1671 C 0.91172 0.48526 0.54468 0.0
C1672 C 0.92315 0.48547 0.55683 0.0
C1673 C 0.93722 0.47677 0.55485 0.0
C1674 C 0.93993 0.4683 0.54093 0.0
H1675 H 0.90738 0.42709 0.5154 0.0
H1676 H 0.91465 0.43847 0.53202 0.0
H1677 H 0.90058 0.44707 0.51863 0.0
H1678 H 0.90565 0.47692 0.52139 0.0
H1679 H 0.90077 0.49186 0.54584 0.0
H1680 H 0.65642 0.22172 0.72463 0.0
H1681 H 0.66972 0.20567 0.74458 0.0
H1682 H 0.69344 0.17926 0.70781 0.0
H1683 H 0.68042 0.19561 0.68765 0.0
H1684 H 0.67021 0.17358 0.75057 0.0
H1685 H 0.73022 0.19573 0.73422 0.0
H1686 H 0.71233 0.20468 0.72671 0.0
H1687 H 0.71924 0.18623 0.71866 0.0
C1688 C 0.6644 0.21246 0.72073 0.0
C1689 C 0.66751 0.21007 0.70455 0.0
C1690 C 0.67196 0.20326 0.73217 0.0
C1691 C 0.68274 0.19145 0.72768 0.0
C1692 C 0.6854 0.18855 0.71152 0.0
H1693 H 0.74584 0.14425 0.7959 0.0
H1694 H 0.73037 0.14831 0.77164 0.0
C1695 C 0.67791 0.19785 0.70003 0.0
C1696 C 0.6916 0.18281 0.74011 0.0
H1697 H 0.72846 0.17901 0.75631 0.0
C1698 C 0.68297 0.17457 0.75171 0.0
C1699 C 0.70826 0.1841 0.74154 0.0
C1700 C 0.7181 0.19325 0.72972 0.0
C1701 C 0.6905 0.16816 0.76506 0.0
C1702 C 0.70702 0.17012 0.76684 0.0
C1703 C 0.71578 0.17754 0.75483 0.0
C1704 C 0.71519 0.16627 0.78182 0.0
C1705 C 0.68069 0.15972 0.77739 0.0
C1706 C 0.71172 0.17503 0.7955 0.0
C1707 C 0.72059 0.17288 0.80927 0.0
C1708 C 0.73309 0.16188 0.80961 0.0
C1709 C 0.73624 0.15276 0.79602 0.0
C1710 C 0.72744 0.15505 0.78217 0.0
H1711 H 0.66933 0.15535 0.77237 0.0
H1712 H 0.68729 0.14955 0.7825 0.0
H1713 H 0.67789 0.16809 0.78714 0.0
H1714 H 0.70248 0.18394 0.79535 0.0
H1715 H 0.71785 0.18006 0.81955 0.0
H1716 H 0.39448 0.01216 0.45128 0.0
H1717 H 0.39964 0.02954 0.474 0.0
H1718 H 0.44994 0.02272 0.46771 0.0
H1719 H 0.44488 0.00607 0.44465 0.0
H1720 H 0.41323 0.02581 0.50166 0.0
H1721 H 0.44807 0.06977 0.46818 0.0
H1722 H 0.43705 0.05425 0.45847 0.0
H1723 H 0.45672 0.05052 0.46598 0.0
C1724 C 0.40663 0.01442 0.45477 0.0
C1725 C 0.4193 0.00797 0.4461 0.0
C1726 C 0.40956 0.02434 0.46773 0.0
C1727 C 0.42519 0.02781 0.47228 0.0
C1728 C 0.4378 0.02073 0.46406 0.0
H1729 H 0.46276 0.05741 0.56127 0.0
H1730 H 0.44886 0.04377 0.53989 0.0
C1731 C 0.4349 0.01111 0.45095 0.0
C1732 C 0.42847 0.03867 0.4857 0.0
H1733 H 0.45202 0.06964 0.49646 0.0
C1734 C 0.42152 0.03556 0.50049 0.0
C1735 C 0.43888 0.05173 0.4841 0.0
C1736 C 0.44543 0.05686 0.46827 0.0
C1737 C 0.4254 0.04461 0.51392 0.0
C1738 C 0.43702 0.05666 0.51261 0.0
C1739 C 0.44329 0.06027 0.49762 0.0
C1740 C 0.44361 0.06512 0.52658 0.0
C1741 C 0.41693 0.04114 0.52927 0.0
C1742 C 0.4456 0.08165 0.52619 0.0
C1743 C 0.45409 0.08937 0.53812 0.0
C1744 C 0.46043 0.08073 0.55083 0.0
C1745 C 0.45778 0.06434 0.55168 0.0
C1746 C 0.44969 0.05656 0.53952 0.0
H1747 H 0.40474 0.0367 0.52701 0.0
H1748 H 0.4234 0.03172 0.53576 0.0
H1749 H 0.41616 0.05181 0.53692 0.0
H1750 H 0.44105 0.08854 0.51636 0.0
H1751 H 0.45596 0.10204 0.53725 0.0
H1752 H 0.31721 0.29596 0.68916 0.0
H1753 H 0.30126 0.30999 0.70891 0.0
H1754 H 0.33646 0.29993 0.74457 0.0
H1755 H 0.35251 0.28605 0.72497 0.0
H1756 H 0.28929 0.29469 0.73518 0.0
H1757 H 0.32544 0.34614 0.75378 0.0
H1758 H 0.32892 0.33562 0.73546 0.0
H1759 H 0.33651 0.32799 0.75386 0.0
C1760 C 0.32173 0.29705 0.70112 0.0
C1761 C 0.33608 0.28981 0.70552 0.0
C1762 C 0.3126 0.30507 0.71237 0.0
C1763 C 0.31777 0.30614 0.72815 0.0
C1764 C 0.33241 0.29954 0.73239 0.0
H1765 H 0.27155 0.30273 0.81649 0.0
H1766 H 0.28675 0.29956 0.79208 0.0
C1767 C 0.34151 0.29148 0.72119 0.0
C1768 C 0.30706 0.31221 0.74062 0.0
H1769 H 0.30555 0.33723 0.77239 0.0
C1770 C 0.29269 0.30421 0.74312 0.0
C1771 C 0.31148 0.32468 0.75091 0.0
C1772 C 0.32636 0.33422 0.74829 0.0
C1773 C 0.28308 0.30773 0.75618 0.0
C1774 C 0.28805 0.31944 0.76705 0.0
C1775 C 0.30191 0.32811 0.76409 0.0
C1776 C 0.27948 0.322 0.78207 0.0
C1777 C 0.26791 0.29857 0.75856 0.0
C1778 C 0.27068 0.33584 0.78458 0.0
C1779 C 0.2619 0.33769 0.79852 0.0
C1780 C 0.26195 0.32576 0.81018 0.0
C1781 C 0.27121 0.31213 0.80776 0.0
C1782 C 0.27988 0.31027 0.79381 0.0
H1783 H 0.26399 0.29263 0.74748 0.0
H1784 H 0.26983 0.28932 0.76771 0.0
H1785 H 0.25829 0.3065 0.76276 0.0
H1786 H 0.27032 0.34503 0.77563 0.0
H1787 H 0.25493 0.34835 0.80007 0.0
H1788 H 0.56527 0.47577 0.43405 0.0
H1789 H 0.56245 0.45897 0.45744 0.0
H1790 H 0.59917 0.4854 0.48117 0.0
H1791 H 0.60217 0.50235 0.45774 0.0
H1792 H 0.58846 0.44073 0.47532 0.0
H1793 H 0.55688 0.48793 0.50917 0.0
H1794 H 0.55787 0.48824 0.4878 0.0
H1795 H 0.57518 0.49272 0.49927 0.0
C1796 C 0.57283 0.47799 0.44419 0.0
C1797 C 0.58387 0.49047 0.4441 0.0
C1798 C 0.57124 0.46833 0.4575 0.0
C1799 C 0.58056 0.47104 0.47096 0.0
C1800 C 0.59186 0.48321 0.47084 0.0
H1801 H 0.55393 0.42882 0.56181 0.0
H1802 H 0.56976 0.44359 0.54252 0.0
C1803 C 0.59354 0.49285 0.45747 0.0
C1804 C 0.57768 0.46156 0.48534 0.0
H1805 H 0.55755 0.46254 0.52031 0.0
C1806 C 0.58193 0.4455 0.48532 0.0
C1807 C 0.56931 0.46793 0.49834 0.0
C1808 C 0.56444 0.48513 0.49877 0.0
C1809 C 0.57746 0.43545 0.49777 0.0
C1810 C 0.56814 0.44159 0.51028 0.0
C1811 C 0.56467 0.45785 0.51069 0.0
C1812 C 0.56041 0.4312 0.52211 0.0
C1813 C 0.58253 0.41832 0.49725 0.0
C1814 C 0.55001 0.41926 0.51704 0.0
C1815 C 0.54101 0.41077 0.528 0.0
C1816 C 0.54206 0.41423 0.54425 0.0
C1817 C 0.55283 0.42589 0.54937 0.0
C1818 C 0.5619 0.43432 0.53837 0.0
H1819 H 0.59388 0.41694 0.49072 0.0
H1820 H 0.58397 0.41335 0.50935 0.0
H1821 H 0.57341 0.4113 0.4909 0.0
H1822 H 0.54831 0.41694 0.50453 0.0
H1823 H 0.53279 0.40192 0.52365 0.0
H1824 H 0.68761 0.72891 0.80004 0.0
H1825 H 0.71073 0.71198 0.7965 0.0
H1826 H 0.71732 0.71012 0.84719 0.0
H1827 H 0.69457 0.72786 0.85073 0.0
H1828 H 0.74465 0.71328 0.83365 0.0
H1829 H 0.71326 0.66553 0.80215 0.0
H1830 H 0.71042 0.68381 0.79178 0.0
H1831 H 0.70282 0.68156 0.81165 0.0
C1832 C 0.69393 0.72483 0.81044 0.0
C1833 C 0.68922 0.72956 0.82567 0.0
C1834 C 0.70708 0.71504 0.80842 0.0
C1835 C 0.71549 0.70934 0.8216 0.0
C1836 C 0.71093 0.71423 0.83685 0.0
H1837 H 0.78408 0.63644 0.79547 0.0
H1838 H 0.76242 0.6496 0.80956 0.0
C1839 C 0.69794 0.72435 0.83886 0.0
C1840 C 0.72932 0.69873 0.81928 0.0
H1841 H 0.74158 0.66678 0.7979 0.0
C1842 C 0.74394 0.70293 0.82606 0.0
C1843 C 0.72837 0.68492 0.80982 0.0
C1844 C 0.71281 0.67861 0.80362 0.0
C1845 C 0.75777 0.69426 0.82284 0.0
C1846 C 0.75708 0.68145 0.812 0.0
C1847 C 0.74228 0.67673 0.80599 0.0
C1848 C 0.77149 0.67335 0.80589 0.0
C1849 C 0.77289 0.69894 0.83116 0.0
C1850 C 0.78405 0.68222 0.79946 0.0
C1851 C 0.79666 0.67466 0.79187 0.0
C1852 C 0.79665 0.65814 0.79006 0.0
C1853 C 0.78431 0.64921 0.79671 0.0
C1854 C 0.77194 0.65674 0.80473 0.0
H1855 H 0.77034 0.70389 0.84309 0.0
H1856 H 0.78107 0.68874 0.83253 0.0
H1857 H 0.77892 0.70835 0.82423 0.0
H1858 H 0.78378 0.69504 0.79962 0.0
H1859 H 0.80594 0.68181 0.78661 0.0
H1860 H 0.89864 0.98382 0.5028 0.0
H1861 H 0.90613 0.01078 0.49595 0.0
H1862 H 0.9392 0.99299 0.46131 0.0
H1863 H 0.93193 0.9657 0.46833 0.0
H1864 H 0.95229 0.01515 0.48173 0.0
H1865 H 0.89553 0.03749 0.45731 0.0
H1866 H 0.89361 0.02867 0.47657 0.0
H1867 H 0.8995 0.01664 0.45999 0.0
C1868 C 0.90737 0.98557 0.49356 0.0
C1869 C 0.91471 0.97257 0.48611 0.0
C1870 C 0.91156 0.00104 0.4896 0.0
C1871 C 0.92306 0.00391 0.478 0.0
C1872 C 0.93021 0.99101 0.47025 0.0
H1873 H 0.95291 0.08808 0.43185 0.0
H1874 H 0.93842 0.06479 0.4409 0.0
C1875 C 0.92602 0.97544 0.47422 0.0
C1876 C 0.92832 0.02036 0.47477 0.0
H1877 H 0.91532 0.0568 0.46289 0.0
C1878 C 0.94423 0.02426 0.47759 0.0
C1879 C 0.91775 0.0322 0.46937 0.0
C1880 C 0.90068 0.02854 0.46548 0.0
C1881 C 0.9499 0.03969 0.4751 0.0
C1882 C 0.93927 0.05162 0.46997 0.0
C1883 C 0.92335 0.04771 0.46716 0.0
C1884 C 0.94497 0.06762 0.46552 0.0
C1885 C 0.96735 0.04294 0.47744 0.0
C1886 C 0.95258 0.07755 0.47655 0.0
C1887 C 0.96083 0.09101 0.47137 0.0
C1888 C 0.96152 0.09459 0.45514 0.0
C1889 C 0.95256 0.08553 0.44443 0.0
C1890 C 0.94432 0.07219 0.44958 0.0
H1891 H 0.97436 0.03184 0.47844 0.0
H1892 H 0.97216 0.05003 0.46745 0.0
H1893 H 0.96905 0.04982 0.48851 0.0
H1894 H 0.95296 0.07435 0.48897 0.0
H1895 H 0.96776 0.09774 0.47983 0.0
H1896 H 0.21285 0.84549 0.76257 0.0
H1897 H 0.23644 0.83442 0.7752 0.0
H1898 H 0.20692 0.80713 0.80674 0.0
H1899 H 0.18322 0.81794 0.79402 0.0
H1900 H 0.24713 0.83439 0.80681 0.0
H1901 H 0.23445 0.77347 0.78516 0.0
H1902 H 0.22423 0.79067 0.77763 0.0
H1903 H 0.2188 0.78239 0.79649 0.0
C1904 C 0.21134 0.83722 0.77227 0.0
C1905 C 0.19613 0.83248 0.77718 0.0
C1906 C 0.22485 0.83092 0.77948 0.0
C1907 C 0.22342 0.81976 0.79171 0.0
C1908 C 0.20827 0.8155 0.7971 0.0
H1909 H 0.29488 0.76094 0.83757 0.0
H1910 H 0.27041 0.77532 0.83169 0.0
C1911 C 0.19475 0.82175 0.78986 0.0
C1912 C 0.23779 0.81219 0.79838 0.0
H1913 H 0.25679 0.77664 0.80161 0.0
C1914 C 0.24924 0.82176 0.80573 0.0
C1915 C 0.2405 0.79571 0.79691 0.0
C1916 C 0.22894 0.78494 0.78851 0.0
C1917 C 0.26336 0.81526 0.8117 0.0
C1918 C 0.26614 0.79882 0.81005 0.0
C1919 C 0.25457 0.78923 0.80293 0.0
C1920 C 0.28127 0.79135 0.81489 0.0
C1921 C 0.27513 0.82601 0.81979 0.0
C1922 C 0.29551 0.79569 0.80748 0.0
C1923 C 0.30951 0.78749 0.81079 0.0
C1924 C 0.30951 0.77474 0.82152 0.0
C1925 C 0.29531 0.77072 0.82927 0.0
C1926 C 0.2813 0.77891 0.82592 0.0
H1927 H 0.26944 0.8371 0.82404 0.0
H1928 H 0.28081 0.81997 0.83 0.0
H1929 H 0.28455 0.82932 0.81122 0.0
H1930 H 0.29568 0.80504 0.7987 0.0
H1931 H 0.32022 0.79086 0.80458 0.0
H1932 H 0.10014 0.53219 0.47491 0.0
H1933 H 0.08688 0.50999 0.46196 0.0
H1934 H 0.0591 0.54261 0.43409 0.0
H1935 H 0.07202 0.56493 0.4473 0.0
H1936 H 0.0409 0.52046 0.44782 0.0
H1937 H 0.0916 0.49102 0.41846 0.0
H1938 H 0.09496 0.49389 0.43924 0.0
H1939 H 0.09291 0.51083 0.42642 0.0
C1940 C 0.09137 0.53466 0.46587 0.0
C1941 C 0.08713 0.55034 0.46214 0.0
C1942 C 0.08387 0.52194 0.45839 0.0
C1943 C 0.07218 0.52462 0.44686 0.0
C1944 C 0.06815 0.54026 0.44289 0.0
H1945 H 0.00974 0.45764 0.39766 0.0
H1946 H 0.02517 0.48129 0.40452 0.0
C1947 C 0.07556 0.553 0.45045 0.0
C1948 C 0.06331 0.51114 0.43989 0.0
H1949 H 0.0679 0.47546 0.42133 0.0
C1950 C 0.04678 0.51074 0.44181 0.0
C1951 C 0.071 0.49847 0.43205 0.0
C1952 C 0.08857 0.49863 0.42877 0.0
C1953 C 0.03781 0.49773 0.43663 0.0
C1954 C 0.04558 0.48487 0.42929 0.0
C1955 C 0.06203 0.48537 0.42703 0.0
C1956 C 0.03684 0.47045 0.42459 0.0
C1957 C 0.02017 0.49755 0.4395 0.0
C1958 C 0.03853 0.45655 0.4335 0.0
C1959 C 0.0297 0.44308 0.42969 0.0
C1960 C 0.01913 0.44325 0.4168 0.0
C1961 C 0.01777 0.45713 0.40766 0.0
C1962 C 0.02653 0.47064 0.41156 0.0
H1963 H 0.01624 0.50759 0.44706 0.0
H1964 H 0.01387 0.49832 0.42798 0.0
H1965 H 0.0166 0.48626 0.44525 0.0
H1966 H 0.04646 0.45622 0.44359 0.0
H1967 H 0.03109 0.43258 0.43694 0.0
H1968 H 0.81449 0.31825 0.69331 0.0
H1969 H 0.79484 0.30398 0.67745 0.0
H1970 H 0.75775 0.33305 0.69724 0.0
H1971 H 0.77725 0.34757 0.71275 0.0
H1972 H 0.77168 0.28641 0.68962 0.0
H1973 H 0.74454 0.33216 0.65162 0.0
H1974 H 0.76309 0.33533 0.66181 0.0
H1975 H 0.74452 0.33834 0.67193 0.0
C1976 C 0.80219 0.32183 0.69401 0.0
C1977 C 0.79742 0.33402 0.70433 0.0
C1978 C 0.79098 0.31367 0.68493 0.0
C1979 C 0.77485 0.31758 0.68597 0.0
C1980 C 0.77016 0.33009 0.69588 0.0
H1981 H 0.6853 0.27573 0.68109 0.0
H1982 H 0.70927 0.29166 0.68409 0.0
C1983 C 0.78134 0.3383 0.70487 0.0
C1984 C 0.76268 0.30748 0.67834 0.0
H1985 H 0.72807 0.30917 0.65744 0.0
C1986 C 0.76237 0.2913 0.68223 0.0
C1987 C 0.75055 0.31385 0.66867 0.0
C1988 C 0.75079 0.33085 0.66314 0.0
C1989 C 0.7497 0.28159 0.67762 0.0
C1990 C 0.73709 0.28824 0.66888 0.0
C1991 C 0.73777 0.30418 0.66424 0.0
C1992 C 0.72241 0.27923 0.66595 0.0
C1993 C 0.74938 0.2645 0.68287 0.0
C1994 C 0.72189 0.26712 0.6546 0.0
C1995 C 0.70816 0.25799 0.6528 0.0
C1996 C 0.69484 0.2608 0.66243 0.0
C1997 C 0.69538 0.27318 0.67356 0.0
C1998 C 0.70902 0.28235 0.67525 0.0
H1999 H 0.7597 0.2614 0.69044 0.0
H2000 H 0.73832 0.26207 0.68959 0.0
H2001 H 0.74942 0.25666 0.67232 0.0
H2002 H 0.73215 0.2646 0.64732 0.0
H2003 H 0.70811 0.24854 0.64411 0.0
H2004 H 0.57078 0.93468 0.55278 0.0
H2005 H 0.55699 0.95491 0.56835 0.0
H2006 H 0.57992 0.99158 0.54112 0.0
H2007 H 0.59403 0.97155 0.52582 0.0
H2008 H 0.57887 0.99862 0.57281 0.0
H2009 H 0.51955 0.97965 0.55105 0.0
H2010 H 0.53082 0.96461 0.56102 0.0
H2011 H 0.53773 0.97242 0.54245 0.0
C2012 C 0.57298 0.94706 0.5502 0.0
C2013 C 0.58339 0.9515 0.53797 0.0
C2014 C 0.56502 0.95859 0.55905 0.0
C2015 C 0.5672 0.97473 0.55568 0.0
C2016 C 0.57802 0.97918 0.54388 0.0
H2017 H 0.52758 0.06554 0.56899 0.0
H2018 H 0.54353 0.04209 0.5633 0.0
C2019 C 0.58606 0.9677 0.53512 0.0
C2020 C 0.55788 0.98711 0.56392 0.0
H2021 H 0.52033 0.00159 0.56816 0.0
C2022 C 0.56606 0.99919 0.57193 0.0
C2023 C 0.54115 0.98781 0.56276 0.0
C2024 C 0.53176 0.97552 0.55376 0.0
C2025 C 0.55799 0.01218 0.57843 0.0
C2026 C 0.54136 0.01312 0.57679 0.0
C2027 C 0.5331 0.00074 0.56941 0.0
C2028 C 0.53248 0.02752 0.58126 0.0
C2029 C 0.56731 0.02498 0.58673 0.0
C2030 C 0.52092 0.02701 0.59319 0.0
C2031 C 0.51179 0.04044 0.59652 0.0
C2032 C 0.51392 0.05447 0.58777 0.0
C2033 C 0.52562 0.05492 0.57593 0.0
C2034 C 0.53482 0.04157 0.57273 0.0
H2035 H 0.57915 0.02068 0.59054 0.0
H2036 H 0.56909 0.03506 0.57848 0.0
H2037 H 0.56079 0.02944 0.59726 0.0
H2038 H 0.51887 0.01619 0.59979 0.0
H2039 H 0.50282 0.03971 0.60567 0.0
H2040 H 0.30259 0.2381 0.64561 0.0
H2041 H 0.27961 0.22094 0.65031 0.0
H2042 H 0.29606 0.21179 0.69779 0.0
H2043 H 0.31905 0.22879 0.69326 0.0
H2044 H 0.2802 0.1866 0.66234 0.0
H2045 H 0.24892 0.23012 0.70067 0.0
H2046 H 0.26397 0.23588 0.68657 0.0
H2047 H 0.26955 0.22697 0.70506 0.0
C2048 C 0.30133 0.23241 0.65704 0.0
C2049 C 0.3126 0.23486 0.66909 0.0
C2050 C 0.28824 0.2226 0.65967 0.0
C2051 C 0.28617 0.21526 0.67441 0.0
C2052 C 0.29746 0.21749 0.68638 0.0
H2053 H 0.23052 0.14147 0.71455 0.0
H2054 H 0.25099 0.15737 0.70163 0.0
C2055 C 0.31059 0.22718 0.68374 0.0
C2056 C 0.27209 0.20541 0.67755 0.0
H2057 H 0.23884 0.20388 0.7004 0.0
C2058 C 0.27103 0.19039 0.67052 0.0
C2059 C 0.26014 0.21054 0.68806 0.0
C2060 C 0.26055 0.22681 0.69547 0.0
C2061 C 0.25856 0.18005 0.67429 0.0
C2062 C 0.24702 0.1849 0.68542 0.0
C2063 C 0.24776 0.20018 0.69191 0.0
C2064 C 0.23454 0.17409 0.69126 0.0
C2065 C 0.25788 0.164 0.66646 0.0
C2066 C 0.21853 0.17821 0.68964 0.0
C2067 C 0.20681 0.1692 0.69706 0.0
C2068 C 0.21093 0.156 0.70637 0.0
C2069 C 0.22695 0.15156 0.70746 0.0
C2070 C 0.23866 0.16056 0.7 0.0
H2071 H 0.26477 0.16379 0.65524 0.0
H2072 H 0.26306 0.15503 0.67457 0.0
H2073 H 0.24545 0.16051 0.6639 0.0
H2074 H 0.21515 0.18867 0.68302 0.0
H2075 H 0.19458 0.17294 0.69596 0.0
H2076 H 0.49424 0.45171 0.60422 0.0
H2077 H 0.4776 0.47508 0.59921 0.0
H2078 H 0.46407 0.45582 0.55389 0.0
H2079 H 0.48046 0.43254 0.5587 0.0
H2080 H 0.47796 0.49041 0.55693 0.0
H2081 H 0.42546 0.4746 0.59383 0.0
H2082 H 0.44526 0.47138 0.60128 0.0
H2083 H 0.43796 0.45945 0.58533 0.0
C2084 C 0.48766 0.45243 0.59323 0.0
C2085 C 0.48869 0.44027 0.58185 0.0
C2086 C 0.47817 0.46575 0.59042 0.0
C2087 C 0.46964 0.46705 0.57622 0.0
C2088 C 0.47057 0.45494 0.56493 0.0
H2089 H 0.39887 0.52087 0.53004 0.0
H2090 H 0.41505 0.50118 0.54383 0.0
C2091 C 0.47995 0.44165 0.56773 0.0
C2092 C 0.46011 0.48123 0.57263 0.0
H2093 H 0.42324 0.4971 0.57742 0.0
C2094 C 0.46609 0.49209 0.56159 0.0
C2095 C 0.44464 0.48316 0.57868 0.0
C2096 C 0.43781 0.47157 0.59044 0.0
C2097 C 0.45677 0.50465 0.55602 0.0
C2098 C 0.44112 0.50638 0.56177 0.0
C2099 C 0.43528 0.49574 0.57314 0.0
C2100 C 0.43032 0.51842 0.55509 0.0
C2101 C 0.46344 0.51551 0.54347 0.0
C2102 C 0.43332 0.53461 0.55724 0.0
C2103 C 0.42413 0.5459 0.54936 0.0
C2104 C 0.41177 0.54115 0.53921 0.0
C2105 C 0.40835 0.52491 0.53769 0.0
C2106 C 0.41754 0.51365 0.5456 0.0
H2107 H 0.47471 0.51095 0.53843 0.0
H2108 H 0.45479 0.51712 0.53368 0.0
H2109 H 0.4658 0.52732 0.54875 0.0
H2110 H 0.44304 0.5385 0.56467 0.0
H2111 H 0.42702 0.55831 0.55088 0.0
H2112 H 0.8556 0.69668 0.74146 0.0
H2113 H 0.84942 0.71999 0.7252 0.0
H2114 H 0.80338 0.70053 0.71464 0.0
H2115 H 0.80938 0.67724 0.73071 0.0
H2116 H 0.83769 0.71991 0.69059 0.0
H2117 H 0.79693 0.7466 0.73496 0.0
H2118 H 0.81211 0.73245 0.74026 0.0
H2119 H 0.79415 0.72583 0.73099 0.0
C2120 C 0.84418 0.69735 0.73563 0.0
C2121 C 0.83295 0.68514 0.73742 0.0
C2122 C 0.8407 0.71063 0.72635 0.0
C2123 C 0.82593 0.71195 0.71888 0.0
C2124 C 0.81481 0.69972 0.72044 0.0
H2125 H 0.78297 0.76799 0.64669 0.0
H2126 H 0.79635 0.74759 0.66231 0.0
C2127 C 0.81829 0.68642 0.7296 0.0
C2128 C 0.82186 0.72617 0.70958 0.0
H2129 H 0.79671 0.75777 0.70917 0.0
C2130 C 0.82887 0.72832 0.69467 0.0
C2131 C 0.81048 0.73713 0.71508 0.0
C2132 C 0.80302 0.73553 0.73125 0.0
C2133 C 0.82427 0.74089 0.68479 0.0
C2134 C 0.81233 0.75142 0.69 0.0
C2135 C 0.80582 0.74961 0.70519 0.0
C2136 C 0.80578 0.76394 0.67966 0.0
C2137 C 0.83211 0.74276 0.66885 0.0
C2138 C 0.80664 0.77987 0.68428 0.0
C2139 C 0.79898 0.79156 0.67542 0.0
C2140 C 0.79017 0.78747 0.66187 0.0
C2141 C 0.78967 0.77153 0.65705 0.0
C2142 C 0.79739 0.75986 0.6659 0.0
H2143 H 0.8437 0.73653 0.66838 0.0
H2144 H 0.82434 0.73758 0.65959 0.0
H2145 H 0.83398 0.75546 0.66597 0.0
H2146 H 0.81298 0.78321 0.69494 0.0
H2147 H 0.7996 0.80372 0.67947 0.0
H2148 H 0.8534 0.29363 0.75505 0.0
H2149 H 0.84626 0.27012 0.77064 0.0
H2150 H 0.80012 0.29004 0.7797 0.0
H2151 H 0.80708 0.3135 0.7643 0.0
H2152 H 0.83413 0.26947 0.8043 0.0
H2153 H 0.79266 0.24469 0.75954 0.0
H2154 H 0.80797 0.25882 0.75456 0.0
H2155 H 0.79003 0.26537 0.76394 0.0
C2156 C 0.84175 0.29301 0.76038 0.0
C2157 C 0.83079 0.30542 0.75839 0.0
C2158 C 0.83771 0.27959 0.76928 0.0
C2159 C 0.82262 0.27833 0.77614 0.0
C2160 C 0.81176 0.29075 0.77434 0.0
H2161 H 0.77766 0.22375 0.84812 0.0
H2162 H 0.79179 0.2435 0.83236 0.0
C2163 C 0.8158 0.30418 0.76557 0.0
C2164 C 0.81805 0.26408 0.78524 0.0
H2165 H 0.79161 0.23349 0.78538 0.0
C2166 C 0.82498 0.26146 0.80012 0.0
C2167 C 0.80623 0.25361 0.77964 0.0
C2168 C 0.79884 0.25562 0.76349 0.0
C2169 C 0.81986 0.24898 0.80988 0.0
C2170 C 0.80747 0.239 0.80461 0.0
C2171 C 0.80105 0.24122 0.78943 0.0
C2172 C 0.80031 0.22675 0.81493 0.0
C2173 C 0.82763 0.24666 0.82581 0.0
C2174 C 0.80038 0.21078 0.81032 0.0
C2175 C 0.7923 0.19944 0.8193 0.0
C2176 C 0.78383 0.20392 0.83294 0.0
C2177 C 0.78408 0.21989 0.83769 0.0
C2178 C 0.79223 0.23119 0.82876 0.0
H2179 H 0.83954 0.25228 0.82625 0.0
H2180 H 0.82017 0.25222 0.8351 0.0
H2181 H 0.82885 0.23387 0.82864 0.0
H2182 H 0.80646 0.20715 0.79961 0.0
H2183 H 0.79231 0.18725 0.81528 0.0
H2184 H 0.56432 0.92679 0.47378 0.0
H2185 H 0.53958 0.92976 0.45906 0.0
H2186 H 0.51779 0.89364 0.48784 0.0
H2187 H 0.54263 0.89044 0.50268 0.0
H2188 H 0.5191 0.90175 0.44351 0.0
H2189 H 0.49151 0.93853 0.49102 0.0
H2190 H 0.51278 0.93769 0.48883 0.0
H2191 H 0.50224 0.9207 0.49595 0.0
C2192 C 0.55433 0.91937 0.47695 0.0
C2193 C 0.55541 0.90843 0.48946 0.0
C2194 C 0.54024 0.92106 0.46848 0.0
C2195 C 0.52695 0.91194 0.47243 0.0
C2196 C 0.52799 0.90076 0.48467 0.0
H2197 H 0.43544 0.94407 0.43518 0.0
H2198 H 0.45395 0.92713 0.44979 0.0
C2199 C 0.54216 0.89896 0.4931 0.0
C2200 C 0.51186 0.9149 0.46412 0.0
H2201 H 0.47878 0.93793 0.46631 0.0
C2202 C 0.51009 0.90939 0.44856 0.0
C2203 C 0.50012 0.92472 0.47085 0.0
C2204 C 0.50162 0.93083 0.48758 0.0
C2205 C 0.49716 0.91413 0.43923 0.0
C2206 C 0.48604 0.92498 0.44554 0.0
C2207 C 0.48732 0.92965 0.46146 0.0
C2208 C 0.47429 0.93323 0.43541 0.0
C2209 C 0.49577 0.90774 0.42259 0.0
C2210 C 0.47955 0.94216 0.42241 0.0
C2211 C 0.46904 0.95178 0.41405 0.0
C2212 C 0.45306 0.95285 0.41863 0.0
C2213 C 0.44767 0.9435 0.43134 0.0
C2214 C 0.45823 0.93381 0.4397 0.0
H2215 H 0.50098 0.89568 0.42172 0.0
H2216 H 0.48323 0.90723 0.41863 0.0
H2217 H 0.50245 0.91555 0.41439 0.0
H2218 H 0.49196 0.94227 0.41914 0.0
H2219 H 0.47362 0.95884 0.40435 0.0
H2220 H 0.22406 0.26289 0.84574 0.0
H2221 H 0.21095 0.24285 0.82952 0.0
H2222 H 0.18635 0.27951 0.80379 0.0
H2223 H 0.19975 0.29972 0.81973 0.0
H2224 H 0.17985 0.23531 0.82437 0.0
H2225 H 0.20808 0.25549 0.76835 0.0
H2226 H 0.21435 0.26258 0.78752 0.0
H2227 H 0.19669 0.27033 0.77847 0.0
C2228 C 0.21579 0.26673 0.8367 0.0
C2229 C 0.21308 0.28293 0.83394 0.0
C2230 C 0.20829 0.25523 0.82744 0.0
C2231 C 0.19791 0.25967 0.81523 0.0
C2232 C 0.19462 0.27582 0.81288 0.0
H2233 H 0.15406 0.19673 0.74435 0.0
H2234 H 0.15904 0.2198 0.76139 0.0
C2235 C 0.20221 0.28735 0.82208 0.0
C2236 C 0.19095 0.24733 0.80478 0.0
H2237 H 0.1906 0.23382 0.76659 0.0
C2238 C 0.18211 0.23505 0.81172 0.0
C2239 C 0.19389 0.247 0.78825 0.0
C2240 C 0.20388 0.25946 0.78018 0.0
C2241 C 0.1764 0.22232 0.80265 0.0
C2242 C 0.1797 0.2218 0.78625 0.0
C2243 C 0.18804 0.23432 0.77918 0.0
C2244 C 0.17586 0.20773 0.77649 0.0
C2245 C 0.16705 0.20939 0.81071 0.0
C2246 C 0.18372 0.19338 0.77933 0.0
C2247 C 0.18103 0.18028 0.76959 0.0
C2248 C 0.17036 0.18124 0.75682 0.0
C2249 C 0.16229 0.19558 0.75413 0.0
C2250 C 0.16512 0.20877 0.76382 0.0
H2251 H 0.1621 0.21342 0.82222 0.0
H2252 H 0.15718 0.20527 0.80303 0.0
H2253 H 0.17496 0.19915 0.81302 0.0
H2254 H 0.19223 0.19241 0.7889 0.0
H2255 H 0.18744 0.16943 0.77201 0.0
H2256 H 0.05881 0.04496 0.93107 0.0
H2257 H 0.03879 0.05871 0.94693 0.0
H2258 H 0.00265 0.04477 0.91362 0.0
H2259 H 0.02253 0.03103 0.89765 0.0
H2260 H 0.00076 0.07773 0.92605 0.0
H2261 H 0.00605 0.03072 0.97212 0.0
H2262 H 0.02405 0.04037 0.96599 0.0
H2263 H 0.01346 0.0281 0.95223 0.0
C2264 C 0.04665 0.04503 0.92697 0.0
C2265 C 0.04223 0.03675 0.91318 0.0
C2266 C 0.03524 0.05287 0.93607 0.0
C2267 C 0.01927 0.05258 0.9315 0.0
C2268 C 0.01495 0.04509 0.91732 0.0
H2269 H 0.93105 0.0572 0.97886 0.0
H2270 H 0.9546 0.05181 0.96303 0.0
C2271 C 0.02632 0.0372 0.90825 0.0
C2272 C 0.00683 0.05887 0.94209 0.0
H2273 H 0.98704 0.05058 0.97637 0.0
C2274 C 0.99785 0.07196 0.93715 0.0
C2275 C 0.00303 0.05115 0.95647 0.0
C2276 C 0.01204 0.03674 0.96206 0.0
C2277 C 0.98495 0.0774 0.94616 0.0
C2278 C 0.98103 0.06951 0.96039 0.0
C2279 C 0.9902 0.05663 0.96547 0.0
C2280 C 0.96663 0.07348 0.96952 0.0
C2281 C 0.97521 0.09112 0.94016 0.0
C2282 C 0.96564 0.0875 0.97839 0.0
C2283 C 0.95216 0.09063 0.98755 0.0
C2284 C 0.9395 0.07976 0.98793 0.0
C2285 C 0.94055 0.06583 0.97885 0.0
C2286 C 0.954 0.06271 0.96979 0.0
H2287 H 0.97881 0.09488 0.92807 0.0
H2288 H 0.96245 0.08789 0.93999 0.0
H2289 H 0.97661 0.10136 0.9483 0.0
H2290 H 0.97537 0.09587 0.97842 0.0
H2291 H 0.95172 0.10145 0.99443 0.0
H2292 H 0.72311 0.2357 0.14631 0.0
H2293 H 0.71071 0.25666 0.16191 0.0
H2294 H 0.68412 0.22168 0.18803 0.0
H2295 H 0.69682 0.20056 0.17276 0.0
H2296 H 0.67997 0.26572 0.16662 0.0
H2297 H 0.70687 0.24516 0.22315 0.0
H2298 H 0.71288 0.23746 0.20415 0.0
H2299 H 0.69486 0.23065 0.21327 0.0
C2300 C 0.71455 0.23244 0.1553 0.0
C2301 C 0.71109 0.21645 0.15842 0.0
C2302 C 0.70746 0.24445 0.1642 0.0
C2303 C 0.69674 0.24071 0.17635 0.0
C2304 C 0.69267 0.2248 0.17898 0.0
H2305 H 0.65355 0.30499 0.24562 0.0
H2306 H 0.65838 0.28202 0.22851 0.0
C2307 C 0.69987 0.21276 0.17017 0.0
C2308 C 0.69032 0.2535 0.18651 0.0
H2309 H 0.69004 0.26739 0.22453 0.0
C2310 C 0.6821 0.26604 0.1793 0.0
C2311 C 0.69313 0.2539 0.20305 0.0
C2312 C 0.70253 0.24116 0.21138 0.0
C2313 C 0.6768 0.27908 0.18815 0.0
C2314 C 0.67989 0.27959 0.20459 0.0
C2315 C 0.68767 0.26687 0.2119 0.0
C2316 C 0.67616 0.29371 0.21424 0.0
C2317 C 0.66809 0.29231 0.17988 0.0
C2318 C 0.68463 0.3078 0.21186 0.0
C2319 C 0.68203 0.32086 0.22166 0.0
C2320 C 0.67085 0.32008 0.234 0.0
C2321 C 0.66219 0.306 0.23618 0.0
C2322 C 0.66492 0.29287 0.22644 0.0
H2323 H 0.66349 0.28854 0.16813 0.0
H2324 H 0.65803 0.29657 0.18722 0.0
H2325 H 0.67631 0.3024 0.17803 0.0
H2326 H 0.69352 0.30857 0.20263 0.0
H2327 H 0.68889 0.33153 0.21966 0.0
H2328 H 0.53485 0.1093 0.99818 0.0
H2329 H 0.50928 0.10504 0.01137 0.0
H2330 H 0.52534 0.05936 0.0277 0.0
H2331 H 0.55089 0.06364 0.01498 0.0
H2332 H 0.4865 0.08197 0.0077 0.0
H2333 H 0.5109 0.08002 0.06842 0.0
H2334 H 0.52231 0.087 0.05174 0.0
H2335 H 0.52067 0.06609 0.05572 0.0
C2336 C 0.53294 0.09839 0.00466 0.0
C2337 C 0.54498 0.0869 0.0057 0.0
C2338 C 0.51832 0.09597 0.01215 0.0
C2339 C 0.51552 0.08202 0.02077 0.0
C2340 C 0.52739 0.0704 0.02147 0.0
H2341 H 0.43369 0.03103 0.04957 0.0
H2342 H 0.45292 0.0458 0.03368 0.0
C2343 C 0.54199 0.07285 0.01413 0.0
C2344 C 0.50025 0.07942 0.02907 0.0
H2345 H 0.48518 0.06845 0.06485 0.0
C2346 C 0.48612 0.07926 0.02026 0.0
C2347 C 0.49969 0.07627 0.04551 0.0
C2348 C 0.51419 0.07752 0.05592 0.0
C2349 C 0.47158 0.07516 0.02732 0.0
C2350 C 0.47128 0.07073 0.0435 0.0
C2351 C 0.48531 0.07171 0.05242 0.0
C2352 C 0.457 0.06399 0.05137 0.0
C2353 C 0.45677 0.07559 0.01733 0.0
C2354 C 0.4526 0.06936 0.06651 0.0
C2355 C 0.44197 0.06065 0.07572 0.0
C2356 C 0.43522 0.04668 0.06979 0.0
C2357 C 0.43848 0.04201 0.05419 0.0
C2358 C 0.44946 0.0505 0.0451 0.0
H2359 H 0.45774 0.08466 0.00783 0.0
H2360 H 0.45514 0.06392 0.0115 0.0
H2361 H 0.4461 0.0782 0.02457 0.0
H2362 H 0.45822 0.0797 0.07164 0.0
H2363 H 0.43974 0.06431 0.08782 0.0
H2364 H 0.51815 0.47138 0.10507 0.0
H2365 H 0.49914 0.45651 0.08913 0.0
H2366 H 0.5352 0.44767 0.05404 0.0
H2367 H 0.55435 0.46264 0.06988 0.0
H2368 H 0.50782 0.46135 0.04185 0.0
H2369 H 0.4929 0.40935 0.07905 0.0
H2370 H 0.49179 0.4278 0.08959 0.0
H2371 H 0.51057 0.42107 0.08211 0.0
C2372 C 0.52215 0.46602 0.09411 0.0
C2373 C 0.53777 0.46826 0.08872 0.0
C2374 C 0.51128 0.45742 0.08506 0.0
C2375 C 0.5158 0.45085 0.07048 0.0
C2376 C 0.53151 0.45257 0.06532 0.0
H2377 H 0.44889 0.39982 0.00866 0.0
H2378 H 0.47268 0.40651 0.02403 0.0
C2379 C 0.54244 0.46111 0.0744 0.0
C2380 C 0.50368 0.44379 0.05991 0.0
H2381 H 0.47436 0.41591 0.05841 0.0
C2382 C 0.50067 0.45126 0.04536 0.0
C2383 C 0.49444 0.43055 0.06445 0.0
C2384 C 0.49767 0.42162 0.07959 0.0
C2385 C 0.48816 0.44633 0.03559 0.0
C2386 C 0.47836 0.4337 0.04057 0.0
C2387 C 0.48182 0.4257 0.05473 0.0
C2388 C 0.46392 0.42934 0.03165 0.0
C2389 C 0.48529 0.45487 0.02015 0.0
C2390 C 0.4511 0.43988 0.0311 0.0
C2391 C 0.43751 0.43609 0.02246 0.0
C2392 C 0.4365 0.42169 0.01414 0.0
C2393 C 0.44932 0.41103 0.01489 0.0
C2394 C 0.46289 0.4148 0.02366 0.0
H2395 H 0.49587 0.46169 0.0163 0.0
H2396 H 0.48202 0.44637 0.01065 0.0
H2397 H 0.47531 0.4633 0.02166 0.0
H2398 H 0.45163 0.45108 0.03735 0.0
H2399 H 0.42788 0.44456 0.02217 0.0
H2400 H 0.14516 0.30125 0.37783 0.0
H2401 H 0.1259 0.32059 0.3878 0.0
H2402 H 0.09338 0.30752 0.35063 0.0
H2403 H 0.11238 0.28818 0.34063 0.0
H2404 H 0.10916 0.34689 0.37202 0.0
H2405 H 0.06957 0.29868 0.39312 0.0
H2406 H 0.09009 0.29537 0.38808 0.0
H2407 H 0.07546 0.29715 0.37272 0.0
C2408 C 0.13398 0.30262 0.37168 0.0
C2409 C 0.13023 0.29305 0.35855 0.0
C2410 C 0.12303 0.31367 0.37738 0.0
C2411 C 0.10818 0.31526 0.37007 0.0
C2412 C 0.10471 0.30627 0.35655 0.0
H2413 H 0.03255 0.38346 0.38211 0.0
H2414 H 0.05509 0.36796 0.37247 0.0
C2415 C 0.11561 0.29525 0.35085 0.0
C2416 C 0.09593 0.32565 0.37699 0.0
H2417 H 0.05928 0.32478 0.39397 0.0
C2418 C 0.09827 0.34211 0.3769 0.0
C2419 C 0.08187 0.31929 0.38351 0.0
C2420 C 0.07909 0.30165 0.38453 0.0
C2421 C 0.08666 0.35244 0.38285 0.0
C2422 C 0.07236 0.34608 0.38885 0.0
C2423 C 0.07021 0.32961 0.38925 0.0
C2424 C 0.05939 0.35622 0.39486 0.0
C2425 C 0.08984 0.37003 0.38281 0.0
C2426 C 0.05422 0.35456 0.41056 0.0
C2427 C 0.04129 0.36327 0.41606 0.0
C2428 C 0.03323 0.37376 0.40593 0.0
C2429 C 0.03853 0.37551 0.39023 0.0
C2430 C 0.05148 0.36676 0.38472 0.0
H2431 H 0.10269 0.37266 0.38164 0.0
H2432 H 0.08362 0.37552 0.37261 0.0
H2433 H 0.08535 0.37564 0.39383 0.0
H2434 H 0.06012 0.34641 0.41852 0.0
H2435 H 0.03754 0.36164 0.42823 0.0
H2436 H 0.60554 0.714 0.81231 0.0
H2437 H 0.58881 0.69327 0.82376 0.0
H2438 H 0.6113 0.69998 0.86914 0.0
H2439 H 0.62817 0.72066 0.85782 0.0
H2440 H 0.60763 0.66747 0.85958 0.0
H2441 H 0.55177 0.70209 0.85487 0.0
H2442 H 0.56299 0.70035 0.83686 0.0
H2443 H 0.57109 0.71114 0.85331 0.0
C2444 C 0.60696 0.71107 0.82473 0.0
C2445 C 0.61813 0.71906 0.83418 0.0
C2446 C 0.59735 0.69926 0.83125 0.0
C2447 C 0.59871 0.69525 0.84732 0.0
C2448 C 0.61005 0.70296 0.85671 0.0
H2449 H 0.5325 0.64547 0.907 0.0
H2450 H 0.55109 0.66404 0.89492 0.0
C2451 C 0.61964 0.7148 0.85022 0.0
C2452 C 0.58819 0.68316 0.85443 0.0
H2453 H 0.54953 0.67556 0.86356 0.0
C2454 C 0.59492 0.66919 0.86044 0.0
C2455 C 0.57165 0.68557 0.85567 0.0
C2456 C 0.5639 0.70064 0.84997 0.0
C2457 C 0.5855 0.65748 0.86759 0.0
C2458 C 0.56893 0.65979 0.8686 0.0
C2459 C 0.56223 0.6738 0.86266 0.0
C2460 C 0.55833 0.64807 0.87623 0.0
C2461 C 0.59335 0.64289 0.87431 0.0
C2462 C 0.55626 0.63291 0.86971 0.0
C2463 C 0.5456 0.62222 0.87659 0.0
C2464 C 0.53681 0.62656 0.89007 0.0
C2465 C 0.53908 0.64172 0.89664 0.0
C2466 C 0.54969 0.65237 0.88975 0.0
H2467 H 0.60635 0.64449 0.87565 0.0
H2468 H 0.58822 0.63983 0.88604 0.0
H2469 H 0.59127 0.63275 0.86621 0.0
H2470 H 0.56264 0.62947 0.85913 0.0
H2471 H 0.54409 0.61067 0.87121 0.0
H2472 H 0.89785 0.20872 0.3136 0.0
H2473 H 0.91675 0.18815 0.3211 0.0
H2474 H 0.89231 0.18178 0.36553 0.0
H2475 H 0.87313 0.20215 0.35799 0.0
H2476 H 0.93673 0.18928 0.34565 0.0
H2477 H 0.89871 0.13628 0.35173 0.0
H2478 H 0.89215 0.15403 0.34172 0.0
H2479 H 0.8912 0.15266 0.36299 0.0
C2480 C 0.89637 0.20284 0.32491 0.0
C2481 C 0.88399 0.20711 0.33523 0.0
C2482 C 0.90717 0.19104 0.32915 0.0
C2483 C 0.9058 0.18323 0.34375 0.0
C2484 C 0.89335 0.18734 0.35401 0.0
H2485 H 0.97029 0.14914 0.40919 0.0
H2486 H 0.95236 0.16262 0.39121 0.0
C2487 C 0.88249 0.1991 0.34976 0.0
C2488 C 0.91824 0.17195 0.34894 0.0
H2489 H 0.92383 0.13552 0.36567 0.0
C2490 C 0.93394 0.17741 0.34971 0.0
C2491 C 0.91469 0.15635 0.35398 0.0
C2492 C 0.8983 0.14942 0.3524 0.0
C2493 C 0.94595 0.16811 0.35642 0.0
C2494 C 0.94212 0.15307 0.36269 0.0
C2495 C 0.92669 0.14713 0.36094 0.0
C2496 C 0.95333 0.14454 0.37309 0.0
C2497 C 0.96254 0.17471 0.35734 0.0
C2498 C 0.95967 0.12974 0.36891 0.0
C2499 C 0.97008 0.12189 0.37926 0.0
C2500 C 0.97403 0.1287 0.39396 0.0
C2501 C 0.96755 0.14351 0.39799 0.0
C2502 C 0.95732 0.15131 0.38769 0.0
H2503 H 0.96457 0.18395 0.34818 0.0
H2504 H 0.96434 0.18024 0.36914 0.0
H2505 H 0.9715 0.16519 0.35586 0.0
H2506 H 0.9566 0.12431 0.3577 0.0
H2507 H 0.97481 0.11045 0.37587 0.0
H2508 H 0.46681 0.84672 0.92942 0.0
H2509 H 0.44787 0.82712 0.91938 0.0
H2510 H 0.42771 0.86237 0.88836 0.0
H2511 H 0.44632 0.88203 0.89844 0.0
H2512 H 0.40493 0.84265 0.9028 0.0
H2513 H 0.45388 0.80838 0.8748 0.0
H2514 H 0.45541 0.8115 0.89581 0.0
H2515 H 0.45672 0.82809 0.88255 0.0
C2516 C 0.45821 0.85035 0.92061 0.0
C2517 C 0.4582 0.86589 0.91459 0.0
C2518 C 0.44745 0.83912 0.91485 0.0
C2519 C 0.43658 0.84325 0.90296 0.0
C2520 C 0.43604 0.85893 0.89752 0.0
H2521 H 0.39292 0.79479 0.82712 0.0
H2522 H 0.40807 0.81092 0.84569 0.0
C2523 C 0.44674 0.87015 0.90326 0.0
C2524 C 0.42643 0.83117 0.8953 0.0
H2525 H 0.42794 0.79952 0.87017 0.0
C2526 C 0.40991 0.83307 0.89583 0.0
C2527 C 0.43303 0.81881 0.8861 0.0
C2528 C 0.45072 0.81656 0.88462 0.0
C2529 C 0.39981 0.8232 0.88702 0.0
C2530 C 0.40645 0.81105 0.8776 0.0
C2531 C 0.42293 0.80884 0.87748 0.0
C2532 C 0.39673 0.80143 0.86663 0.0
C2533 C 0.3822 0.8263 0.88723 0.0
C2534 C 0.3853 0.79076 0.87228 0.0
C2535 C 0.37655 0.7815 0.86166 0.0
C2536 C 0.37917 0.78274 0.84523 0.0
C2537 C 0.39059 0.79352 0.83967 0.0
C2538 C 0.39929 0.80274 0.85027 0.0
H2539 H 0.37926 0.83775 0.89302 0.0
H2540 H 0.37738 0.82639 0.87499 0.0
H2541 H 0.37618 0.81668 0.89386 0.0
H2542 H 0.38332 0.78944 0.88489 0.0
H2543 H 0.36789 0.77325 0.86632 0.0
H2544 H 0.13844 0.69532 0.11896 0.0
H2545 H 0.1187 0.67816 0.10625 0.0
H2546 H 0.08589 0.68762 0.14423 0.0
H2547 H 0.10538 0.70472 0.15699 0.0
H2548 H 0.10188 0.65057 0.11957 0.0
H2549 H 0.06217 0.7002 0.10251 0.0
H2550 H 0.08274 0.70311 0.10771 0.0
H2551 H 0.06817 0.7002 0.12295 0.0
C2552 C 0.12705 0.69369 0.12463 0.0
C2553 C 0.12344 0.70146 0.13893 0.0
C2554 C 0.11581 0.68389 0.11737 0.0
C2555 C 0.10082 0.68185 0.12423 0.0
C2556 C 0.09734 0.68926 0.13867 0.0
H2557 H 0.02527 0.61505 0.11146 0.0
H2558 H 0.04806 0.63052 0.12042 0.0
C2559 C 0.10853 0.69898 0.14595 0.0
C2560 C 0.08862 0.67211 0.11632 0.0
H2561 H 0.05158 0.67417 0.10028 0.0
C2562 C 0.09093 0.6557 0.11521 0.0
C2563 C 0.07447 0.67893 0.1105 0.0
C2564 C 0.07173 0.6966 0.11082 0.0
C2565 C 0.07913 0.64581 0.1089 0.0
C2566 C 0.06468 0.65256 0.10377 0.0
C2567 C 0.06263 0.66904 0.10436 0.0
C2568 C 0.05132 0.64274 0.09811 0.0
C2569 C 0.08221 0.62824 0.10781 0.0
C2570 C 0.04544 0.64473 0.0827 0.0
C2571 C 0.03236 0.63598 0.07756 0.0
C2572 C 0.02486 0.62518 0.08781 0.0
C2573 C 0.03079 0.62324 0.10326 0.0
C2574 C 0.04389 0.63198 0.10837 0.0
H2575 H 0.09509 0.62553 0.10821 0.0
H2576 H 0.07647 0.6222 0.11799 0.0
H2577 H 0.07716 0.62325 0.09673 0.0
H2578 H 0.05096 0.65308 0.07467 0.0
H2579 H 0.02808 0.63777 0.06559 0.0
H2580 H 0.87382 0.72794 0.1357 0.0
H2581 H 0.88906 0.70629 0.12378 0.0
H2582 H 0.90228 0.6898 0.17028 0.0
H2583 H 0.88722 0.71145 0.18234 0.0
H2584 H 0.9244 0.70012 0.13178 0.0
H2585 H 0.88273 0.65043 0.14409 0.0
H2586 H 0.87614 0.67073 0.14238 0.0
H2587 H 0.88657 0.6644 0.15977 0.0
C2588 C 0.8799 0.71967 0.1434 0.0
C2589 C 0.87932 0.72142 0.15997 0.0
C2590 C 0.88859 0.70734 0.13657 0.0
C2591 C 0.89664 0.69645 0.14619 0.0
C2592 C 0.896 0.69805 0.1627 0.0
H2593 H 0.9541 0.61314 0.12861 0.0
H2594 H 0.93724 0.63379 0.14005 0.0
C2595 C 0.88745 0.71045 0.16955 0.0
C2596 C 0.90625 0.68375 0.13897 0.0
H2597 H 0.90743 0.64382 0.13275 0.0
C2598 C 0.92071 0.68781 0.1319 0.0
C2599 C 0.90138 0.66775 0.13935 0.0
C2600 C 0.88582 0.66295 0.14672 0.0
C2601 C 0.93062 0.67619 0.12535 0.0
C2602 C 0.92567 0.66015 0.12549 0.0
C2603 C 0.91117 0.65612 0.13261 0.0
C2604 C 0.93542 0.64739 0.11838 0.0
C2605 C 0.94649 0.68117 0.11875 0.0
C2606 C 0.93969 0.648 0.10233 0.0
C2607 C 0.94943 0.63633 0.09581 0.0
C2608 C 0.95488 0.62366 0.10516 0.0
C2609 C 0.95013 0.62276 0.1211 0.0
C2610 C 0.94049 0.63454 0.12765 0.0
H2611 H 0.95037 0.69276 0.12367 0.0
H2612 H 0.95575 0.6722 0.12135 0.0
H2613 H 0.94553 0.68248 0.1057 0.0
H2614 H 0.93555 0.65756 0.09484 0.0
H2615 H 0.95271 0.63727 0.08343 0.0
H2616 H 0.89714 0.78696 0.16806 0.0
H2617 H 0.9173 0.80483 0.15742 0.0
H2618 H 0.88555 0.81847 0.11978 0.0
H2619 H 0.86524 0.80071 0.13037 0.0
H2620 H 0.93064 0.80335 0.12678 0.0
H2621 H 0.90124 0.86115 0.13798 0.0
H2622 H 0.89525 0.84307 0.14773 0.0
H2623 H 0.88924 0.8469 0.12767 0.0
C2624 C 0.89438 0.79385 0.15759 0.0
C2625 C 0.87957 0.79243 0.15007 0.0
C2626 C 0.90592 0.80404 0.15154 0.0
C2627 C 0.90282 0.81308 0.13795 0.0
C2628 C 0.88805 0.81178 0.13045 0.0
H2629 H 0.96889 0.85672 0.07339 0.0
H2630 H 0.94845 0.84079 0.0863 0.0
C2631 C 0.8765 0.80156 0.13647 0.0
C2632 C 0.91535 0.82329 0.13118 0.0
H2633 H 0.9243 0.86159 0.12175 0.0
C2634 C 0.92931 0.81609 0.12575 0.0
C2635 C 0.91358 0.83991 0.13001 0.0
C2636 C 0.89909 0.84828 0.13627 0.0
C2637 C 0.94145 0.82506 0.11882 0.0
C2638 C 0.93947 0.84161 0.11717 0.0
C2639 C 0.92568 0.84887 0.12294 0.0
C2640 C 0.95158 0.85153 0.10935 0.0
C2641 C 0.95635 0.81679 0.11341 0.0
C2642 C 0.95984 0.86307 0.11801 0.0
C2643 C 0.97154 0.87221 0.11068 0.0
C2644 C 0.97506 0.87004 0.09453 0.0
C2645 C 0.96653 0.85865 0.08585 0.0
C2646 C 0.95488 0.84949 0.09321 0.0
H2647 H 0.95757 0.80485 0.11883 0.0
H2648 H 0.95598 0.81532 0.10035 0.0
H2649 H 0.96701 0.82391 0.11641 0.0
H2650 H 0.95737 0.86484 0.13048 0.0
H2651 H 0.97786 0.88092 0.11768 0.0
H2652 H 0.06004 0.8886 0.11532 0.0
H2653 H 0.07835 0.86845 0.12543 0.0
H2654 H 0.0508 0.83198 0.10246 0.0
H2655 H 0.03303 0.85206 0.09172 0.0
H2656 H 0.0741 0.84511 0.14486 0.0
H2657 H 0.09367 0.81952 0.08797 0.0
H2658 H 0.0824 0.83763 0.08898 0.0
H2659 H 0.07253 0.81868 0.08955 0.0
C2660 C 0.05803 0.87628 0.11231 0.0
C2661 C 0.04523 0.87189 0.10261 0.0
C2662 C 0.06847 0.86479 0.11809 0.0
C2663 C 0.06618 0.84871 0.11441 0.0
C2664 C 0.05318 0.84433 0.10499 0.0
H2665 H 0.09964 0.76913 0.16938 0.0
H2666 H 0.08524 0.7917 0.15834 0.0
C2667 C 0.04295 0.85582 0.09896 0.0
C2668 C 0.07688 0.83642 0.12101 0.0
H2669 H 0.09787 0.80334 0.11106 0.0
C2670 C 0.07947 0.83609 0.13744 0.0
C2671 C 0.08419 0.82483 0.11132 0.0
C2672 C 0.0832 0.82529 0.09347 0.0
C2673 C 0.0887 0.82421 0.14451 0.0
C2674 C 0.09498 0.81193 0.13495 0.0
C2675 C 0.09284 0.81257 0.11846 0.0
C2676 C 0.1037 0.79825 0.14173 0.0
C2677 C 0.09177 0.82513 0.1621 0.0
C2678 C 0.11858 0.79395 0.13563 0.0
C2679 C 0.12659 0.78076 0.14159 0.0
C2680 C 0.11998 0.77174 0.15391 0.0
C2681 C 0.1051 0.77601 0.16001 0.0
C2682 C 0.09693 0.789 0.15381 0.0
H2683 H 0.09111 0.83755 0.16642 0.0
H2684 H 0.08258 0.81822 0.16847 0.0
H2685 H 0.1036 0.82026 0.1652 0.0
H2686 H 0.12403 0.80084 0.12626 0.0
H2687 H 0.13808 0.77776 0.1367 0.0
H2688 H 0.38307 0.1409 0.31016 0.0
H2689 H 0.39596 0.12152 0.32765 0.0
H2690 H 0.35912 0.08766 0.31737 0.0
H2691 H 0.3462 0.10675 0.3 0.0
H2692 H 0.38228 0.10309 0.35504 0.0
H2693 H 0.40247 0.06632 0.30434 0.0
H2694 H 0.39676 0.08684 0.30219 0.0
H2695 H 0.38186 0.07172 0.30383 0.0
C2696 C 0.37765 0.12938 0.31175 0.0
C2697 C 0.36369 0.12532 0.30358 0.0
C2698 C 0.38502 0.11835 0.32173 0.0
C2699 C 0.37857 0.10315 0.32356 0.0
C2700 C 0.36436 0.09929 0.3159 0.0
H2701 H 0.38954 0.02507 0.38685 0.0
H2702 H 0.38154 0.04896 0.37259 0.0
C2703 C 0.35699 0.11025 0.30601 0.0
C2704 C 0.38678 0.09097 0.33306 0.0
H2705 H 0.40386 0.0545 0.3299 0.0
C2706 C 0.38719 0.09254 0.34959 0.0
C2707 C 0.39332 0.07736 0.32583 0.0
C2708 C 0.39374 0.07545 0.30806 0.0
C2709 C 0.39339 0.08043 0.35917 0.0
C2710 C 0.39912 0.06641 0.35197 0.0
C2711 C 0.39934 0.0652 0.3354 0.0
C2712 C 0.40431 0.05254 0.36134 0.0
C2713 C 0.39367 0.08269 0.3769 0.0
C2714 C 0.41967 0.04647 0.35949 0.0
C2715 C 0.42424 0.03273 0.36752 0.0
C2716 C 0.41349 0.02477 0.37746 0.0
C2717 C 0.39812 0.03093 0.37932 0.0
C2718 C 0.39357 0.04467 0.37129 0.0
H2719 H 0.39328 0.09544 0.38015 0.0
H2720 H 0.38311 0.07686 0.38215 0.0
H2721 H 0.40442 0.07728 0.3822 0.0
H2722 H 0.42808 0.05231 0.35175 0.0
H2723 H 0.43618 0.0283 0.36583 0.0
H2724 H 0.34743 0.40205 0.97203 0.0
H2725 H 0.32786 0.38887 0.95527 0.0
H2726 H 0.36549 0.36967 0.92644 0.0
H2727 H 0.38514 0.38209 0.9438 0.0
H2728 H 0.32023 0.39209 0.92622 0.0
H2729 H 0.34108 0.33038 0.93349 0.0
H2730 H 0.3488 0.34644 0.94526 0.0
H2731 H 0.35629 0.34289 0.92557 0.0
C2732 C 0.35152 0.39493 0.96217 0.0
C2733 C 0.3678 0.393 0.95928 0.0
C2734 C 0.34033 0.38741 0.95257 0.0
C2735 C 0.34514 0.37798 0.93972 0.0
C2736 C 0.36143 0.37639 0.93657 0.0
H2737 H 0.27803 0.35338 0.86456 0.0
H2738 H 0.29892 0.36558 0.88052 0.0
C2739 C 0.37266 0.38362 0.94642 0.0
C2740 C 0.33303 0.37024 0.92946 0.0
H2741 H 0.32204 0.33485 0.91316 0.0
C2742 C 0.3206 0.37954 0.92346 0.0
C2743 C 0.3333 0.35381 0.92601 0.0
C2744 C 0.34549 0.34278 0.93306 0.0
C2745 C 0.30847 0.37294 0.91416 0.0
C2746 C 0.30916 0.35668 0.91008 0.0
C2747 C 0.32158 0.34736 0.91609 0.0
C2748 C 0.2969 0.34896 0.89998 0.0
C2749 C 0.29481 0.38344 0.90933 0.0
C2750 C 0.28932 0.33506 0.90517 0.0
C2751 C 0.27774 0.32778 0.89581 0.0
C2752 C 0.27333 0.33439 0.88119 0.0
C2753 C 0.28102 0.34817 0.8759 0.0
C2754 C 0.29288 0.35523 0.88508 0.0
H2755 H 0.29344 0.39364 0.91753 0.0
H2756 H 0.29711 0.38829 0.89733 0.0
H2757 H 0.28347 0.37677 0.90907 0.0
H2758 H 0.29223 0.32992 0.91657 0.0
H2759 H 0.27199 0.31717 0.90019 0.0
H2760 H 0.63002 0.37004 0.30319 0.0
H2761 H 0.61811 0.38962 0.32101 0.0
H2762 H 0.65436 0.42333 0.3084 0.0
H2763 H 0.66633 0.40394 0.29054 0.0
H2764 H 0.63216 0.40699 0.34732 0.0
H2765 H 0.61159 0.44587 0.29829 0.0
H2766 H 0.61744 0.42552 0.29519 0.0
H2767 H 0.63223 0.44063 0.29767 0.0
C2768 C 0.63551 0.38159 0.30426 0.0
C2769 C 0.64906 0.38546 0.29535 0.0
C2770 C 0.6287 0.39274 0.31446 0.0
C2771 C 0.63525 0.40795 0.31582 0.0
C2772 C 0.64901 0.41171 0.30731 0.0
H2773 H 0.61585 0.48237 0.38413 0.0
H2774 H 0.62788 0.46134 0.36819 0.0
C2775 C 0.65586 0.40058 0.29716 0.0
C2776 C 0.62753 0.42004 0.3259 0.0
H2777 H 0.60875 0.45581 0.32438 0.0
C2778 C 0.627 0.41766 0.34234 0.0
C2779 C 0.62067 0.43382 0.31929 0.0
C2780 C 0.62034 0.43662 0.30164 0.0
C2781 C 0.62001 0.4289 0.35242 0.0
C2782 C 0.61355 0.4429 0.34585 0.0
C2783 C 0.61384 0.44512 0.32938 0.0
C2784 C 0.60624 0.45534 0.35581 0.0
C2785 C 0.61941 0.42565 0.36999 0.0
C2786 C 0.59016 0.4591 0.35392 0.0
C2787 C 0.58326 0.47113 0.36295 0.0
C2788 C 0.59236 0.47972 0.37397 0.0
C2789 C 0.6085 0.47596 0.37579 0.0
C2790 C 0.61538 0.46388 0.36676 0.0
H2791 H 0.62149 0.41293 0.37268 0.0
H2792 H 0.62876 0.43267 0.37601 0.0
H2793 H 0.60778 0.42919 0.37501 0.0
H2794 H 0.58294 0.45269 0.34545 0.0
H2795 H 0.57081 0.47373 0.36122 0.0
H2796 H 0.60659 0.12625 0.94536 0.0
H2797 H 0.62826 0.13581 0.92862 0.0
H2798 H 0.65868 0.09897 0.94671 0.0
H2799 H 0.63719 0.08939 0.96358 0.0
H2800 H 0.67248 0.12927 0.94695 0.0
H2801 H 0.64629 0.11491 0.8883 0.0
H2802 H 0.63373 0.12641 0.90107 0.0
H2803 H 0.63896 0.10651 0.90657 0.0
C2804 C 0.61786 0.12012 0.94572 0.0
C2805 C 0.62014 0.10703 0.95579 0.0
C2806 C 0.6302 0.12555 0.93608 0.0
C2807 C 0.64499 0.11796 0.93629 0.0
C2808 C 0.64732 0.10494 0.94633 0.0
H2809 H 0.72359 0.13146 0.87093 0.0
H2810 H 0.70207 0.12053 0.88704 0.0
C2811 C 0.635 0.09948 0.95595 0.0
C2812 C 0.65824 0.12392 0.92646 0.0
H2813 H 0.66979 0.13043 0.88823 0.0
C2814 C 0.67192 0.12949 0.93411 0.0
C2815 C 0.65753 0.124 0.90971 0.0
C2816 C 0.64341 0.11751 0.90088 0.0
C2817 C 0.68483 0.13542 0.92546 0.0
C2818 C 0.68392 0.13595 0.90874 0.0
C2819 C 0.67037 0.13011 0.90106 0.0
C2820 C 0.69692 0.1426 0.89901 0.0
C2821 C 0.69939 0.14089 0.93427 0.0
C2822 C 0.701 0.15865 0.90031 0.0
C2823 C 0.71326 0.16494 0.89113 0.0
C2824 C 0.72164 0.15528 0.88044 0.0
C2825 C 0.71742 0.13921 0.87909 0.0
C2826 C 0.70511 0.13295 0.88825 0.0
H2827 H 0.69976 0.13613 0.94654 0.0
H2828 H 0.71035 0.13722 0.92798 0.0
H2829 H 0.69933 0.15402 0.93501 0.0
H2830 H 0.69463 0.16636 0.90836 0.0
H2831 H 0.71615 0.17738 0.89242 0.0
H2832 H 0.36533 0.87552 0.19457 0.0
H2833 H 0.37273 0.89656 0.176 0.0
H2834 H 0.32897 0.92096 0.18602 0.0
H2835 H 0.32157 0.90016 0.20474 0.0
H2836 H 0.35715 0.90883 0.14869 0.0
H2837 H 0.36334 0.95387 0.19642 0.0
H2838 H 0.36199 0.93294 0.20051 0.0
H2839 H 0.34449 0.94401 0.19557 0.0
C2840 C 0.35725 0.88533 0.19278 0.0
C2841 C 0.34295 0.88625 0.20127 0.0
C2842 C 0.36147 0.89731 0.18214 0.0
C2843 C 0.35148 0.9104 0.17982 0.0
C2844 C 0.33696 0.91108 0.18785 0.0
H2845 H 0.37158 0.98437 0.10819 0.0
H2846 H 0.35737 0.96393 0.12337 0.0
C2847 C 0.33276 0.89916 0.19853 0.0
C2848 C 0.35658 0.92362 0.16947 0.0
H2849 H 0.36769 0.96249 0.17026 0.0
C2850 C 0.35934 0.92061 0.15334 0.0
C2851 C 0.3595 0.93893 0.17564 0.0
C2852 C 0.35732 0.94267 0.193 0.0
C2853 C 0.36524 0.93248 0.14326 0.0
C2854 C 0.36828 0.94773 0.14949 0.0
C2855 C 0.36518 0.95081 0.16552 0.0
C2856 C 0.37642 0.96013 0.14012 0.0
C2857 C 0.36881 0.92848 0.12621 0.0
C2858 C 0.39165 0.96487 0.14469 0.0
C2859 C 0.3997 0.97647 0.13616 0.0
C2860 C 0.39268 0.98367 0.12286 0.0
C2861 C 0.37731 0.97903 0.11835 0.0
C2862 C 0.36922 0.96732 0.12694 0.0
H2863 H 0.36792 0.91556 0.12385 0.0
H2864 H 0.36027 0.93471 0.1184 0.0
H2865 H 0.38091 0.93255 0.12299 0.0
H2866 H 0.39739 0.95948 0.15483 0.0
H2867 H 0.41149 0.97974 0.14003 0.0
H2868 H 0.2256 0.35923 0.13323 0.0
H2869 H 0.20411 0.37109 0.11782 0.0
H2870 H 0.19803 0.32725 0.09229 0.0
H2871 H 0.21961 0.31531 0.10749 0.0
H2872 H 0.19934 0.35403 0.07282 0.0
H2873 H 0.15642 0.36206 0.12207 0.0
H2874 H 0.17567 0.37047 0.12557 0.0
H2875 H 0.17357 0.34937 0.12368 0.0
C2876 C 0.21966 0.35208 0.12438 0.0
C2877 C 0.22429 0.3363 0.12162 0.0
C2878 C 0.20733 0.35885 0.11565 0.0
C2879 C 0.19936 0.34996 0.10409 0.0
C2880 C 0.204 0.33427 0.10123 0.0
H2881 H 0.1116 0.36999 0.05512 0.0
H2882 H 0.1326 0.35943 0.07207 0.0
C2883 C 0.21633 0.32748 0.10994 0.0
C2884 C 0.18647 0.35714 0.09462 0.0
H2885 H 0.1496 0.37358 0.09733 0.0
C2886 C 0.18846 0.3583 0.07816 0.0
C2887 C 0.17224 0.36254 0.10164 0.0
C2888 C 0.16922 0.36095 0.11919 0.0
C2889 C 0.17662 0.36485 0.06851 0.0
C2890 C 0.16255 0.37059 0.07556 0.0
C2891 C 0.16049 0.3693 0.09201 0.0
C2892 C 0.14965 0.37757 0.06597 0.0
C2893 C 0.17915 0.36528 0.0508 0.0
C2894 C 0.1522 0.39147 0.05723 0.0
C2895 C 0.14025 0.39754 0.04752 0.0
C2896 C 0.1255 0.38983 0.04644 0.0
C2897 C 0.12284 0.37618 0.05563 0.0
C2898 C 0.13481 0.37013 0.06533 0.0
H2899 H 0.18876 0.35713 0.04702 0.0
H2900 H 0.16811 0.36204 0.04441 0.0
H2901 H 0.18251 0.37747 0.04721 0.0
H2902 H 0.1635 0.39754 0.0578 0.0
H2903 H 0.14267 0.40812 0.04068 0.0
H2904 H 0.6178 0.64842 0.20468 0.0
H2905 H 0.60316 0.62955 0.18804 0.0
H2906 H 0.63914 0.59425 0.19631 0.0
H2907 H 0.65377 0.61284 0.21288 0.0
H2908 H 0.61392 0.6125 0.16015 0.0
H2909 H 0.59702 0.57242 0.20943 0.0
H2910 H 0.60367 0.59252 0.21264 0.0
H2911 H 0.61779 0.57705 0.20877 0.0
C2912 C 0.6226 0.63665 0.20293 0.0
C2913 C 0.63692 0.63212 0.21019 0.0
C2914 C 0.61423 0.6259 0.19343 0.0
C2915 C 0.61996 0.61045 0.19118 0.0
C2916 C 0.63438 0.60604 0.19814 0.0
H2917 H 0.60347 0.53738 0.12293 0.0
H2918 H 0.61291 0.55974 0.13868 0.0
C2919 C 0.64276 0.61673 0.20755 0.0
C2920 C 0.61106 0.59884 0.1815 0.0
H2921 H 0.59398 0.56222 0.18322 0.0
C2922 C 0.60938 0.60159 0.16519 0.0
C2923 C 0.60499 0.58472 0.18816 0.0
C2924 C 0.6058 0.58152 0.20574 0.0
C2925 C 0.60238 0.59022 0.15524 0.0
C2926 C 0.59711 0.57571 0.16179 0.0
C2927 C 0.59817 0.57329 0.1782 0.0
C2928 C 0.59105 0.56261 0.15178 0.0
C2929 C 0.60077 0.5938 0.1378 0.0
C2930 C 0.57573 0.55658 0.15414 0.0
C2931 C 0.57031 0.54371 0.14521 0.0
C2932 C 0.58018 0.53655 0.13384 0.0
C2933 C 0.59553 0.54263 0.13153 0.0
C2934 C 0.60092 0.5555 0.14044 0.0
H2935 H 0.60106 0.60675 0.13548 0.0
H2936 H 0.6108 0.5883 0.13132 0.0
H2937 H 0.58956 0.58888 0.13297 0.0
H2938 H 0.56799 0.56182 0.16294 0.0
H2939 H 0.55844 0.53931 0.14731 0.0
H2940 H 0.77486 0.18219 0.0984 0.0
H2941 H 0.79654 0.16937 0.0841 0.0
H2942 H 0.78894 0.12644 0.11073 0.0
H2943 H 0.76725 0.13916 0.12519 0.0
H2944 H 0.82149 0.13697 0.10878 0.0
H2945 H 0.79175 0.13407 0.05007 0.0
H2946 H 0.79172 0.15324 0.05935 0.0
H2947 H 0.78099 0.13719 0.0683 0.0
C2948 C 0.77773 0.16999 0.10118 0.0
C2949 C 0.76928 0.16167 0.1129 0.0
C2950 C 0.79009 0.16268 0.09296 0.0
C2951 C 0.79421 0.14694 0.09628 0.0
C2952 C 0.78588 0.1386 0.10799 0.0
H2953 H 0.85332 0.08496 0.04036 0.0
H2954 H 0.83242 0.09688 0.05638 0.0
C2955 C 0.77346 0.14587 0.11619 0.0
C2956 C 0.80736 0.13923 0.08765 0.0
H2957 H 0.81891 0.12703 0.05089 0.0
C2958 C 0.82095 0.13475 0.09613 0.0
C2959 C 0.8065 0.13626 0.0712 0.0
C2960 C 0.79192 0.1403 0.06167 0.0
C2961 C 0.83385 0.12753 0.08849 0.0
C2962 C 0.83312 0.12489 0.07197 0.0
C2963 C 0.81945 0.12919 0.06355 0.0
C2964 C 0.84627 0.11735 0.06317 0.0
C2965 C 0.84805 0.12258 0.09817 0.0
C2966 C 0.86102 0.1249 0.06175 0.0
C2967 C 0.87304 0.11812 0.05257 0.0
C2968 C 0.87046 0.1037 0.04462 0.0
C2969 C 0.85573 0.09607 0.04632 0.0
C2970 C 0.84374 0.10286 0.05545 0.0
H2971 H 0.84534 0.12225 0.11104 0.0
H2972 H 0.85233 0.11072 0.09443 0.0
H2973 H 0.8578 0.1312 0.09626 0.0
H2974 H 0.8631 0.13622 0.06743 0.0
H2975 H 0.88422 0.12433 0.05146 0.0
H2976 H 0.34768 0.42139 0.02865 0.0
H2977 H 0.33452 0.40943 0.05144 0.0
H2978 H 0.37429 0.37795 0.058 0.0
H2979 H 0.38713 0.38934 0.03459 0.0
H2980 H 0.34889 0.36208 0.0613 0.0
H2981 H 0.34129 0.41606 0.09721 0.0
H2982 H 0.33218 0.41878 0.07825 0.0
H2983 H 0.35332 0.41582 0.07956 0.0
C2984 C 0.35365 0.41198 0.03501 0.0
C2985 C 0.36844 0.40632 0.02989 0.0
C2986 C 0.34619 0.40525 0.04815 0.0
C2987 C 0.35358 0.39308 0.05677 0.0
C2988 C 0.36839 0.38741 0.05164 0.0
H2989 H 0.30741 0.36243 0.14521 0.0
H2990 H 0.32652 0.37397 0.12654 0.0
C2991 C 0.3757 0.3939 0.03826 0.0
C2992 C 0.3454 0.38566 0.0705 0.0
H2993 H 0.32385 0.3942 0.10366 0.0
C2994 C 0.34364 0.36911 0.07069 0.0
C2995 C 0.33888 0.3947 0.08305 0.0
C2996 C 0.34169 0.41229 0.0846 0.0
C2997 C 0.33489 0.36148 0.08258 0.0
C2998 C 0.32708 0.37068 0.09423 0.0
C2999 C 0.32953 0.38713 0.09454 0.0
C3000 C 0.31575 0.36357 0.10568 0.0
C3001 C 0.33423 0.3436 0.0825 0.0
C3002 C 0.30317 0.35418 0.10017 0.0
C3003 C 0.2925 0.34738 0.11079 0.0
C3004 C 0.29387 0.35019 0.12714 0.0
C3005 C 0.3061 0.36004 0.13266 0.0
C3006 C 0.31702 0.36662 0.12202 0.0
H3007 H 0.34511 0.33849 0.07712 0.0
H3008 H 0.33289 0.33874 0.09464 0.0
H3009 H 0.32401 0.33967 0.07521 0.0
H3010 H 0.30151 0.35217 0.08761 0.0
H3011 H 0.28302 0.34006 0.10615 0.0
H3012 H 0.31079 0.63709 0.36169 0.0
H3013 H 0.32663 0.62525 0.38292 0.0
H3014 H 0.29619 0.64705 0.41777 0.0
H3015 H 0.28099 0.65965 0.39663 0.0
H3016 H 0.32479 0.64965 0.42708 0.0
H3017 H 0.3165 0.58736 0.40842 0.0
H3018 H 0.3258 0.59888 0.39321 0.0
H3019 H 0.30585 0.60346 0.39931 0.0
C3020 C 0.30753 0.63934 0.3739 0.0
C3021 C 0.29466 0.64924 0.37754 0.0
C3022 C 0.31648 0.63245 0.38603 0.0
C3023 C 0.31239 0.6349 0.40199 0.0
C3024 C 0.29958 0.64491 0.40558 0.0
H3025 H 0.34613 0.57576 0.47928 0.0
H3026 H 0.33091 0.58836 0.45806 0.0
C3027 C 0.2909 0.65212 0.39349 0.0
C3028 C 0.32157 0.62737 0.41501 0.0
H3029 H 0.33593 0.59199 0.42837 0.0
C3030 C 0.32712 0.63701 0.4274 0.0
C3031 C 0.32441 0.61084 0.41563 0.0
C3032 C 0.31767 0.59952 0.40352 0.0
C3033 C 0.33543 0.63065 0.44031 0.0
C3034 C 0.339 0.61425 0.44051 0.0
C3035 C 0.33339 0.60459 0.42816 0.0
C3036 C 0.34823 0.60677 0.45352 0.0
C3037 C 0.33981 0.64155 0.45381 0.0
C3038 C 0.36311 0.61279 0.45797 0.0
C3039 C 0.3716 0.60586 0.47038 0.0
C3040 C 0.36563 0.59243 0.4782 0.0
C3041 C 0.351 0.5861 0.47344 0.0
C3042 C 0.34231 0.59329 0.46131 0.0
H3043 H 0.3318 0.65198 0.45435 0.0
H3044 H 0.33932 0.63533 0.46539 0.0
H3045 H 0.35203 0.64604 0.45196 0.0
H3046 H 0.36822 0.6228 0.4518 0.0
H3047 H 0.38299 0.61081 0.47364 0.0
H3048 H 0.87403 0.44349 0.88534 0.0
H3049 H 0.86336 0.42646 0.86443 0.0
H3050 H 0.90368 0.43721 0.83494 0.0
H3051 H 0.9144 0.45432 0.85568 0.0
H3052 H 0.87389 0.44075 0.81984 0.0
H3053 H 0.87975 0.38249 0.84999 0.0
H3054 H 0.86974 0.39757 0.86121 0.0
H3055 H 0.89034 0.39994 0.85644 0.0
C3056 C 0.88068 0.44215 0.87445 0.0
C3057 C 0.89508 0.45025 0.87218 0.0
C3058 C 0.8746 0.43236 0.86256 0.0
C3059 C 0.88283 0.43046 0.84825 0.0
C3060 C 0.8972 0.43848 0.84596 0.0
H3061 H 0.86693 0.36378 0.77184 0.0
H3062 H 0.87778 0.37935 0.79377 0.0
C3063 C 0.90331 0.44824 0.85783 0.0
C3064 C 0.87618 0.42064 0.83537 0.0
H3065 H 0.86578 0.38279 0.82559 0.0
C3066 C 0.87212 0.42807 0.82107 0.0
C3067 C 0.87406 0.40411 0.83701 0.0
C3068 C 0.87881 0.39548 0.85193 0.0
C3069 C 0.86581 0.41942 0.80837 0.0
C3070 C 0.86334 0.40294 0.81014 0.0
C3071 C 0.86758 0.39546 0.82437 0.0
C3072 C 0.85655 0.39327 0.79723 0.0
C3073 C 0.86203 0.4279 0.79309 0.0
C3074 C 0.84094 0.39582 0.79213 0.0
C3075 C 0.83469 0.38696 0.77963 0.0
C3076 C 0.84395 0.37537 0.77204 0.0
C3077 C 0.85951 0.37266 0.77739 0.0
C3078 C 0.86572 0.38151 0.78992 0.0
H3079 H 0.86787 0.43969 0.79245 0.0
H3080 H 0.86581 0.42075 0.78271 0.0
H3081 H 0.84904 0.42973 0.79225 0.0
H3082 H 0.83361 0.4047 0.79781 0.0
H3083 H 0.82265 0.38929 0.77586 0.0
H3084 H 0.63558 0.9239 0.46604 0.0
H3085 H 0.65222 0.91253 0.44533 0.0
H3086 H 0.63561 0.86574 0.45739 0.0
H3087 H 0.61875 0.87703 0.47818 0.0
H3088 H 0.67644 0.8899 0.45073 0.0
H3089 H 0.6308 0.86816 0.40839 0.0
H3090 H 0.6265 0.8827 0.42351 0.0
H3091 H 0.62835 0.86216 0.4287 0.0
C3092 C 0.63532 0.91119 0.46424 0.0
C3093 C 0.62584 0.90136 0.47379 0.0
C3094 C 0.64485 0.90473 0.45239 0.0
C3095 C 0.64503 0.88834 0.44977 0.0
C3096 C 0.63544 0.87846 0.45909 0.0
H3097 H 0.71862 0.83689 0.39963 0.0
H3098 H 0.69868 0.84568 0.4187 0.0
C3099 C 0.62588 0.88492 0.471 0.0
C3100 C 0.656 0.88163 0.43788 0.0
H3101 H 0.65755 0.8619 0.40259 0.0
C3102 C 0.67233 0.88375 0.44022 0.0
C3103 C 0.65054 0.87374 0.42415 0.0
C3104 C 0.63309 0.87162 0.42089 0.0
C3105 C 0.68338 0.87813 0.42918 0.0
C3106 C 0.67795 0.87007 0.41555 0.0
C3107 C 0.66163 0.868 0.41314 0.0
C3108 C 0.68915 0.86401 0.40356 0.0
C3109 C 0.70079 0.88109 0.43202 0.0
C3110 C 0.69009 0.87122 0.38862 0.0
C3111 C 0.70151 0.86628 0.37768 0.0
C3112 C 0.71207 0.85396 0.3815 0.0
C3113 C 0.71072 0.84645 0.39633 0.0
C3114 C 0.69935 0.85145 0.40726 0.0
H3115 H 0.70282 0.89 0.44149 0.0
H3116 H 0.70656 0.86985 0.43566 0.0
H3117 H 0.70665 0.88524 0.42099 0.0
H3118 H 0.68227 0.88093 0.38559 0.0
H3119 H 0.70219 0.87225 0.36635 0.0
H3120 H 0.58204 0.54612 0.35948 0.0
H3121 H 0.59292 0.56361 0.33911 0.0
H3122 H 0.63213 0.5752 0.36978 0.0
H3123 H 0.62128 0.55788 0.39032 0.0
H3124 H 0.6186 0.60164 0.35384 0.0
H3125 H 0.6326 0.55198 0.31293 0.0
H3126 H 0.61238 0.55267 0.31955 0.0
H3127 H 0.62795 0.54893 0.33359 0.0
C3128 C 0.59293 0.55246 0.36195 0.0
C3129 C 0.60086 0.55051 0.37648 0.0
C3130 C 0.59915 0.56238 0.35027 0.0
C3131 C 0.61344 0.57046 0.35288 0.0
C3132 C 0.62112 0.56898 0.36754 0.0
H3133 H 0.67521 0.61171 0.28225 0.0
H3134 H 0.66364 0.59657 0.30407 0.0
C3135 C 0.61491 0.55906 0.37924 0.0
C3136 C 0.62058 0.58018 0.34019 0.0
H3137 H 0.6363 0.57797 0.30302 0.0
C3138 C 0.62249 0.5965 0.34272 0.0
C3139 C 0.62583 0.57335 0.32582 0.0
C3140 C 0.62474 0.55575 0.3228 0.0
C3141 C 0.62933 0.60625 0.33112 0.0
C3142 C 0.63418 0.59947 0.31658 0.0
C3143 C 0.63245 0.58312 0.31415 0.0
C3144 C 0.64126 0.60908 0.30376 0.0
C3145 C 0.63157 0.62364 0.3346 0.0
C3146 C 0.63245 0.62104 0.29633 0.0
C3147 C 0.63902 0.62973 0.28387 0.0
C3148 C 0.65449 0.62652 0.27857 0.0
C3149 C 0.66327 0.6145 0.28606 0.0
C3150 C 0.65669 0.60583 0.29851 0.0
H3151 H 0.6309 0.62616 0.34751 0.0
H3152 H 0.64316 0.6279 0.33005 0.0
H3153 H 0.62207 0.63049 0.32863 0.0
H3154 H 0.6204 0.62351 0.30001 0.0
H3155 H 0.63191 0.63886 0.27831 0.0
H3156 H 0.11216 0.6294 0.52034 0.0
H3157 H 0.12846 0.64504 0.53854 0.0
H3158 H 0.16632 0.61096 0.5339 0.0
H3159 H 0.14976 0.59491 0.51643 0.0
H3160 H 0.16303 0.61811 0.5631 0.0
H3161 H 0.16401 0.67449 0.5297 0.0
H3162 H 0.14417 0.66844 0.53429 0.0
H3163 H 0.1562 0.65643 0.52137 0.0
C3164 C 0.12398 0.62529 0.52321 0.0
C3165 C 0.1297 0.61094 0.51701 0.0
C3166 C 0.13335 0.63432 0.53347 0.0
C3167 C 0.14878 0.6294 0.53733 0.0
C3168 C 0.15449 0.61506 0.53108 0.0
H3169 H 0.22097 0.68577 0.58538 0.0
H3170 H 0.20347 0.67366 0.56552 0.0
C3171 C 0.145 0.60587 0.52112 0.0
C3172 C 0.15873 0.63864 0.54855 0.0
H3173 H 0.17332 0.67559 0.55647 0.0
C3174 C 0.16535 0.63066 0.56155 0.0
C3175 C 0.16201 0.65498 0.54644 0.0
C3176 C 0.15637 0.66404 0.5321 0.0
C3177 C 0.175 0.6385 0.57255 0.0
C3178 C 0.17753 0.65502 0.57096 0.0
C3179 C 0.17114 0.663 0.55784 0.0
C3180 C 0.18701 0.66404 0.58272 0.0
C3181 C 0.18272 0.62883 0.58549 0.0
C3182 C 0.18317 0.6633 0.59888 0.0
C3183 C 0.1933 0.66986 0.61017 0.0
C3184 C 0.20714 0.67779 0.60547 0.0
C3185 C 0.21033 0.67973 0.58926 0.0
C3186 C 0.20037 0.67279 0.57794 0.0
H3187 H 0.18378 0.61616 0.58206 0.0
H3188 H 0.19473 0.63336 0.58836 0.0
H3189 H 0.17531 0.6294 0.59633 0.0
H3190 H 0.17263 0.65713 0.60281 0.0
H3191 H 0.19049 0.66841 0.62261 0.0
H3192 H 0.86909 0.6271 0.72658 0.0
H3193 H 0.88053 0.61191 0.70471 0.0
H3194 H 0.83665 0.58626 0.69938 0.0
H3195 H 0.82511 0.60128 0.7213 0.0
H3196 H 0.86399 0.56696 0.70049 0.0
H3197 H 0.87016 0.61599 0.65699 0.0
H3198 H 0.87869 0.61982 0.67613 0.0
H3199 H 0.85762 0.6174 0.67427 0.0
C3200 C 0.86184 0.61827 0.72073 0.0
C3201 C 0.84617 0.61541 0.72567 0.0
C3202 C 0.86837 0.60968 0.70818 0.0
C3203 C 0.85935 0.59814 0.70033 0.0
C3204 C 0.84376 0.5952 0.70526 0.0
H3205 H 0.88005 0.54797 0.613 0.0
H3206 H 0.86851 0.56463 0.63375 0.0
C3207 C 0.8372 0.60379 0.71778 0.0
C3208 C 0.86634 0.58869 0.68734 0.0
H3209 H 0.88206 0.59142 0.65016 0.0
C3210 C 0.86792 0.57228 0.68947 0.0
C3211 C 0.87128 0.59569 0.67294 0.0
C3212 C 0.86925 0.61317 0.66982 0.0
C3213 C 0.87454 0.56268 0.67765 0.0
C3214 C 0.87988 0.56974 0.66342 0.0
C3215 C 0.87807 0.58611 0.66117 0.0
C3216 C 0.88724 0.56023 0.65069 0.0
C3217 C 0.8756 0.54504 0.68037 0.0
C3218 C 0.90172 0.55253 0.65329 0.0
C3219 C 0.90835 0.54302 0.64149 0.0
C3220 C 0.90062 0.54109 0.62685 0.0
C3221 C 0.88628 0.54916 0.62416 0.0
C3222 C 0.87968 0.5587 0.63598 0.0
H3223 H 0.86778 0.54112 0.69021 0.0
H3224 H 0.87234 0.53842 0.66948 0.0
H3225 H 0.88798 0.54189 0.6835 0.0
H3226 H 0.90784 0.55378 0.66451 0.0
H3227 H 0.91945 0.53704 0.64393 0.0
H3228 H 0.10888 0.86237 0.73455 0.0
H3229 H 0.09244 0.8787 0.71694 0.0
H3230 H 0.13378 0.89062 0.6894 0.0
H3231 H 0.15024 0.87447 0.70683 0.0
H3232 H 0.0972 0.91247 0.71042 0.0
H3233 H 0.10051 0.87549 0.6563 0.0
H3234 H 0.10458 0.86775 0.67585 0.0
H3235 H 0.11946 0.87887 0.66538 0.0
C3236 C 0.11443 0.86832 0.72462 0.0
C3237 C 0.13087 0.86708 0.72206 0.0
C3238 C 0.10502 0.87768 0.71463 0.0
C3239 C 0.11188 0.88572 0.70179 0.0
C3240 C 0.12822 0.88432 0.69911 0.0
H3241 H 0.10467 0.95395 0.63223 0.0
H3242 H 0.10984 0.93424 0.65255 0.0
C3243 C 0.13762 0.87512 0.70913 0.0
C3244 C 0.1023 0.89618 0.69146 0.0
H3245 H 0.09388 0.90294 0.65252 0.0
C3246 C 0.09609 0.91026 0.69781 0.0
C3247 C 0.10081 0.89319 0.67505 0.0
C3248 C 0.10655 0.87793 0.66774 0.0
C3249 C 0.0895 0.92197 0.68794 0.0
C3250 C 0.08905 0.9194 0.6714 0.0
C3251 C 0.0943 0.90488 0.66522 0.0
C3252 C 0.08544 0.93231 0.66009 0.0
C3253 C 0.08406 0.93742 0.69504 0.0
C3254 C 0.06996 0.93801 0.65779 0.0
C3255 C 0.0669 0.94943 0.64606 0.0
C3256 C 0.07929 0.95517 0.63648 0.0
C3257 C 0.0948 0.94972 0.63927 0.0
C3258 C 0.09781 0.93843 0.6509 0.0
H3259 H 0.08592 0.93786 0.70807 0.0
H3260 H 0.09054 0.94744 0.68949 0.0
H3261 H 0.07125 0.93912 0.69257 0.0
H3262 H 0.06024 0.93333 0.66473 0.0
H3263 H 0.05483 0.95335 0.64416 0.0
H3264 H 0.60734 0.78928 0.82459 0.0
H3265 H 0.58774 0.80785 0.83512 0.0
H3266 H 0.61438 0.81138 0.87861 0.0
H3267 H 0.63419 0.79314 0.86807 0.0
H3268 H 0.56916 0.8039 0.86083 0.0
H3269 H 0.60612 0.85745 0.86894 0.0
H3270 H 0.61258 0.84074 0.85726 0.0
H3271 H 0.61456 0.84046 0.87851 0.0
C3272 C 0.60913 0.79416 0.83633 0.0
C3273 C 0.62235 0.78977 0.84549 0.0
C3274 C 0.59792 0.80477 0.84232 0.0
C3275 C 0.59974 0.8112 0.85754 0.0
C3276 C 0.61296 0.8069 0.86667 0.0
H3277 H 0.54297 0.85373 0.9284 0.0
H3278 H 0.56204 0.83969 0.91178 0.0
C3279 C 0.62422 0.79637 0.86066 0.0
C3280 C 0.5873 0.82155 0.86434 0.0
H3281 H 0.58151 0.85677 0.8834 0.0
C3282 C 0.5718 0.81558 0.86551 0.0
C3283 C 0.59074 0.83682 0.87037 0.0
C3284 C 0.60687 0.84431 0.86856 0.0
C3285 C 0.55985 0.82416 0.87323 0.0
C3286 C 0.56353 0.83903 0.87991 0.0
C3287 C 0.57883 0.84528 0.87828 0.0
C3288 C 0.55193 0.84771 0.88966 0.0
C3289 C 0.54351 0.81709 0.8748 0.0
C3290 C 0.53999 0.85686 0.88262 0.0
C3291 C 0.52906 0.86498 0.89208 0.0
C3292 C 0.52992 0.86397 0.90871 0.0
C3293 C 0.54193 0.85473 0.91564 0.0
C3294 C 0.55287 0.84673 0.90619 0.0
H3295 H 0.54265 0.80519 0.86925 0.0
H3296 H 0.54029 0.8161 0.88752 0.0
H3297 H 0.5347 0.82504 0.8691 0.0
H3298 H 0.53916 0.85772 0.86984 0.0
H3299 H 0.51995 0.872 0.88638 0.0
H3300 H 0.04456 0.13091 0.41314 0.0
H3301 H 0.06467 0.1493 0.40377 0.0
H3302 H 0.04499 0.18617 0.43316 0.0
H3303 H 0.02452 0.16771 0.44261 0.0
H3304 H 0.04941 0.19515 0.40157 0.0
H3305 H 0.10399 0.16762 0.42518 0.0
H3306 H 0.09171 0.1536 0.41495 0.0
H3307 H 0.08451 0.16291 0.43273 0.0
C3308 C 0.04458 0.14287 0.41782 0.0
C3309 C 0.0329 0.14785 0.42862 0.0
C3310 C 0.05619 0.15334 0.41252 0.0
C3311 C 0.05648 0.16903 0.41794 0.0
C3312 C 0.04505 0.17404 0.42895 0.0
H3313 H 0.13264 0.23144 0.38404 0.0
H3314 H 0.11443 0.21711 0.40148 0.0
C3315 C 0.0334 0.16349 0.43436 0.0
C3316 C 0.06796 0.18035 0.41094 0.0
H3317 H 0.10731 0.18496 0.40269 0.0
C3318 C 0.06209 0.1931 0.40204 0.0
C3319 C 0.08451 0.17777 0.41169 0.0
C3320 C 0.09157 0.16482 0.42179 0.0
C3321 C 0.07227 0.20281 0.39316 0.0
C3322 C 0.08871 0.1995 0.393 0.0
C3323 C 0.09467 0.18732 0.40262 0.0
C3324 C 0.0998 0.20812 0.38245 0.0
C3325 C 0.06531 0.2164 0.38387 0.0
C3326 C 0.09782 0.20752 0.36595 0.0
C3327 C 0.10821 0.21565 0.35594 0.0
C3328 C 0.12086 0.22448 0.36224 0.0
C3329 C 0.12302 0.22478 0.37878 0.0
C3330 C 0.11261 0.21662 0.38878 0.0
H3331 H 0.05372 0.2202 0.38883 0.0
H3332 H 0.07345 0.22674 0.38375 0.0
H3333 H 0.06332 0.21258 0.37145 0.0
H3334 H 0.08823 0.20072 0.36079 0.0
H3335 H 0.10623 0.21511 0.34327 0.0
H3336 H 0.46594 0.65154 0.91496 0.0
H3337 H 0.44569 0.66684 0.90109 0.0
H3338 H 0.44228 0.63032 0.86548 0.0
H3339 H 0.46307 0.61523 0.87897 0.0
H3340 H 0.44244 0.65813 0.85192 0.0
H3341 H 0.39903 0.66018 0.90083 0.0
H3342 H 0.41769 0.66823 0.90696 0.0
H3343 H 0.4163 0.64763 0.90148 0.0
C3344 C 0.46082 0.64672 0.90422 0.0
C3345 C 0.46603 0.63214 0.89811 0.0
C3346 C 0.44914 0.65543 0.89636 0.0
C3347 C 0.44214 0.64956 0.88245 0.0
C3348 C 0.44742 0.63504 0.87626 0.0
H3349 H 0.35735 0.69672 0.84596 0.0
H3350 H 0.37571 0.67689 0.85646 0.0
C3351 C 0.45929 0.62643 0.88398 0.0
C3352 C 0.42976 0.65888 0.87408 0.0
H3353 H 0.39523 0.6791 0.87991 0.0
C3354 C 0.43202 0.66256 0.858 0.0
C3355 C 0.41596 0.66439 0.88186 0.0
C3356 C 0.41201 0.65975 0.89868 0.0
C3357 C 0.42118 0.67205 0.84967 0.0
C3358 C 0.40799 0.67852 0.85779 0.0
C3359 C 0.40544 0.67436 0.87371 0.0
C3360 C 0.39691 0.68994 0.85023 0.0
C3361 C 0.42392 0.67485 0.83223 0.0
C3362 C 0.40267 0.70388 0.84317 0.0
C3363 C 0.39221 0.71507 0.8369 0.0
C3364 C 0.37575 0.71277 0.83793 0.0
C3365 C 0.36997 0.69883 0.84499 0.0
C3366 C 0.38046 0.6875 0.85101 0.0
H3367 H 0.43069 0.66494 0.82682 0.0
H3368 H 0.41257 0.67622 0.82571 0.0
H3369 H 0.43102 0.68581 0.83067 0.0
H3370 H 0.41526 0.70633 0.84287 0.0
H3371 H 0.39702 0.7258 0.83174 0.0
H3372 H 0.95741 0.39048 0.36794 0.0
H3373 H 0.94085 0.37066 0.3547 0.0
H3374 H 0.9511 0.33711 0.39184 0.0
H3375 H 0.96771 0.35676 0.40513 0.0
H3376 H 0.95516 0.32536 0.36018 0.0
H3377 H 0.89667 0.35431 0.36939 0.0
H3378 H 0.9119 0.36657 0.36091 0.0
H3379 H 0.914 0.35946 0.38085 0.0
C3380 C 0.95607 0.37892 0.37334 0.0
C3381 C 0.96385 0.37522 0.38762 0.0
C3382 C 0.94656 0.36764 0.36579 0.0
C3383 C 0.94466 0.3525 0.37238 0.0
C3384 C 0.9524 0.34876 0.3866 0.0
H3385 H 0.87833 0.27762 0.35164 0.0
H3386 H 0.89451 0.29852 0.36349 0.0
C3387 C 0.96185 0.36003 0.39419 0.0
C3388 C 0.93494 0.34035 0.3643 0.0
H3389 H 0.89701 0.33115 0.35361 0.0
C3390 C 0.94245 0.32662 0.3587 0.0
C3391 C 0.91836 0.34202 0.36253 0.0
C3392 C 0.90967 0.35631 0.36883 0.0
C3393 C 0.93381 0.31448 0.35131 0.0
C3394 C 0.91726 0.31623 0.34937 0.0
C3395 C 0.90973 0.32994 0.35502 0.0
C3396 C 0.90747 0.30369 0.342 0.0
C3397 C 0.94237 0.29973 0.34594 0.0
C3398 C 0.90934 0.2998 0.32595 0.0
C3399 C 0.90009 0.28786 0.31911 0.0
C3400 C 0.88882 0.27963 0.32823 0.0
C3401 C 0.88694 0.28367 0.34429 0.0
C3402 C 0.89614 0.29564 0.35108 0.0
H3403 H 0.95443 0.29887 0.35114 0.0
H3404 H 0.93556 0.28896 0.34922 0.0
H3405 H 0.94355 0.29994 0.33285 0.0
H3406 H 0.91789 0.30605 0.3187 0.0
H3407 H 0.9018 0.28508 0.3067 0.0
H3408 H 0.60838 0.2083 0.66473 0.0
H3409 H 0.58781 0.19023 0.65535 0.0
H3410 H 0.61718 0.17718 0.61563 0.0
H3411 H 0.63794 0.19515 0.62498 0.0
H3412 H 0.57246 0.19178 0.62578 0.0
H3413 H 0.60317 0.13421 0.63449 0.0
H3414 H 0.60966 0.15229 0.64392 0.0
H3415 H 0.61421 0.14869 0.62344 0.0
C3416 C 0.61055 0.20151 0.65406 0.0
C3417 C 0.62482 0.20316 0.6456 0.0
C3418 C 0.59877 0.1912 0.64873 0.0
C3419 C 0.60107 0.18227 0.63492 0.0
C3420 C 0.61531 0.18378 0.62648 0.0
H3421 H 0.52983 0.138 0.57619 0.0
H3422 H 0.55136 0.15405 0.58703 0.0
C3423 C 0.62711 0.19411 0.63179 0.0
C3424 C 0.58822 0.17197 0.62895 0.0
H3425 H 0.57884 0.13359 0.62029 0.0
C3426 C 0.57382 0.17905 0.62462 0.0
C3427 C 0.59003 0.15537 0.62762 0.0
C3428 C 0.60504 0.14712 0.63274 0.0
C3429 C 0.56122 0.16998 0.61872 0.0
C3430 C 0.56318 0.15345 0.61696 0.0
C3431 C 0.57747 0.14631 0.62156 0.0
C3432 C 0.55048 0.14339 0.61033 0.0
C3433 C 0.54585 0.17813 0.61457 0.0
C3434 C 0.54315 0.13186 0.61977 0.0
C3435 C 0.53084 0.12264 0.61362 0.0
C3436 C 0.52577 0.12475 0.59788 0.0
C3437 C 0.53339 0.13613 0.58838 0.0
C3438 C 0.54565 0.14535 0.59456 0.0
H3439 H 0.54502 0.19008 0.62002 0.0
H3440 H 0.54509 0.17954 0.60152 0.0
H3441 H 0.53554 0.17096 0.6185 0.0
H3442 H 0.5468 0.13016 0.63196 0.0
H3443 H 0.52526 0.11394 0.62122 0.0
H3444 H 0.39566 0.22093 0.68336 0.0
H3445 H 0.41103 0.19826 0.67391 0.0
H3446 H 0.38735 0.20086 0.62871 0.0
H3447 H 0.37183 0.22349 0.63804 0.0
H3448 H 0.38953 0.16949 0.64241 0.0
H3449 H 0.44726 0.2013 0.64064 0.0
H3450 H 0.43659 0.20246 0.65904 0.0
H3451 H 0.42851 0.21155 0.64158 0.0
C3452 C 0.39372 0.21671 0.6714 0.0
C3453 C 0.38258 0.22408 0.66142 0.0
C3454 C 0.40254 0.20378 0.66603 0.0
C3455 C 0.40039 0.19802 0.65059 0.0
C3456 C 0.38916 0.20519 0.64067 0.0
H3457 H 0.45959 0.13926 0.59294 0.0
H3458 H 0.44277 0.15966 0.60456 0.0
C3459 C 0.38036 0.21814 0.646 0.0
C3460 C 0.40996 0.1846 0.6447 0.0
H3461 H 0.44765 0.17397 0.63473 0.0
C3462 C 0.40224 0.1704 0.64077 0.0
C3463 C 0.4265 0.18597 0.64249 0.0
C3464 C 0.43525 0.20116 0.64602 0.0
C3465 C 0.4107 0.15747 0.63462 0.0
C3466 C 0.42725 0.15881 0.6325 0.0
C3467 C 0.43495 0.17299 0.63649 0.0
C3468 C 0.43676 0.14596 0.62536 0.0
C3469 C 0.40184 0.14263 0.63004 0.0
C3470 C 0.43889 0.13147 0.63324 0.0
C3471 C 0.44854 0.11972 0.62662 0.0
C3472 C 0.45622 0.12234 0.61206 0.0
C3473 C 0.45386 0.13683 0.60417 0.0
C3474 C 0.44427 0.14853 0.61079 0.0
H3475 H 0.38882 0.14457 0.62964 0.0
H3476 H 0.40584 0.1383 0.61828 0.0
H3477 H 0.40432 0.13321 0.63887 0.0
H3478 H 0.43334 0.12938 0.64462 0.0
H3479 H 0.45016 0.10871 0.63302 0.0
H3480 H 0.48192 0.37545 0.61591 0.0
H3481 H 0.46023 0.35957 0.6267 0.0
H3482 H 0.44576 0.34695 0.57932 0.0
H3483 H 0.46767 0.36243 0.56844 0.0
H3484 H 0.42836 0.36212 0.62268 0.0
H3485 H 0.44934 0.30401 0.60015 0.0
H3486 H 0.46163 0.3215 0.59995 0.0
H3487 H 0.44682 0.31859 0.58488 0.0
C3488 C 0.47416 0.36925 0.60778 0.0
C3489 C 0.47659 0.37008 0.59132 0.0
C3490 C 0.46176 0.3602 0.61397 0.0
C3491 C 0.45156 0.35186 0.60382 0.0
C3492 C 0.45374 0.35296 0.58737 0.0
H3493 H 0.36761 0.29469 0.62151 0.0
H3494 H 0.38744 0.31234 0.60971 0.0
C3495 C 0.46622 0.36188 0.58118 0.0
C3496 C 0.43857 0.34215 0.61047 0.0
H3497 H 0.42369 0.30454 0.61171 0.0
C3498 C 0.42736 0.34953 0.62031 0.0
C3499 C 0.43734 0.32571 0.60739 0.0
C3500 C 0.4495 0.31694 0.59764 0.0
C3501 C 0.41487 0.34089 0.62707 0.0
C3502 C 0.41361 0.32453 0.62387 0.0
C3503 C 0.42471 0.31715 0.61398 0.0
C3504 C 0.40119 0.3147 0.6312 0.0
C3505 C 0.40305 0.34923 0.63756 0.0
C3506 C 0.40247 0.31028 0.64714 0.0
C3507 C 0.39129 0.30013 0.65388 0.0
C3508 C 0.3786 0.2943 0.64477 0.0
C3509 C 0.37721 0.29902 0.62884 0.0
C3510 C 0.38851 0.30907 0.62208 0.0
H3511 H 0.40439 0.36232 0.63711 0.0
H3512 H 0.39078 0.34607 0.63399 0.0
H3513 H 0.40473 0.34529 0.64999 0.0
H3514 H 0.41229 0.31446 0.65429 0.0
H3515 H 0.39267 0.29674 0.66618 0.0
H3516 H 0.55417 0.38584 0.62444 0.0
H3517 H 0.57216 0.36556 0.63484 0.0
H3518 H 0.56079 0.33512 0.59541 0.0
H3519 H 0.54278 0.35518 0.58497 0.0
H3520 H 0.55819 0.32075 0.62584 0.0
H3521 H 0.61595 0.35127 0.61706 0.0
H3522 H 0.60094 0.36256 0.62713 0.0
H3523 H 0.59811 0.35713 0.60676 0.0
C3524 C 0.55559 0.37487 0.61793 0.0
C3525 C 0.54704 0.37212 0.60389 0.0
C3526 C 0.56592 0.36335 0.62384 0.0
C3527 C 0.56788 0.34895 0.61578 0.0
C3528 C 0.55946 0.34621 0.60174 0.0
H3529 H 0.63481 0.27236 0.63128 0.0
H3530 H 0.61891 0.29389 0.62002 0.0
C3531 C 0.54918 0.3577 0.5958 0.0
C3532 C 0.57808 0.33634 0.62234 0.0
H3533 H 0.61642 0.32702 0.63127 0.0
C3534 C 0.57092 0.32209 0.62702 0.0
C3535 C 0.59468 0.33814 0.62369 0.0
C3536 C 0.60296 0.35304 0.61829 0.0
C3537 C 0.57993 0.30961 0.63324 0.0
C3538 C 0.59648 0.31153 0.63491 0.0
C3539 C 0.60369 0.32569 0.63003 0.0
C3540 C 0.60643 0.29893 0.64182 0.0
C3541 C 0.57172 0.29439 0.63782 0.0
C3542 C 0.60476 0.29487 0.65783 0.0
C3543 C 0.6138 0.28264 0.6643 0.0
C3544 C 0.62468 0.27426 0.65485 0.0
C3545 C 0.62648 0.27854 0.63885 0.0
C3546 C 0.61746 0.29084 0.6324 0.0
H3547 H 0.55961 0.2936 0.6327 0.0
H3548 H 0.57869 0.28397 0.63385 0.0
H3549 H 0.57068 0.29381 0.65092 0.0
H3550 H 0.59641 0.30113 0.6653 0.0
H3551 H 0.61216 0.27969 0.67668 0.0
H3552 H 0.88623 0.51969 0.88238 0.0
H3553 H 0.87666 0.54208 0.86663 0.0
H3554 H 0.92298 0.54743 0.84577 0.0
H3555 H 0.93269 0.52503 0.86136 0.0
H3556 H 0.88881 0.57445 0.86496 0.0
H3557 H 0.89194 0.54189 0.8077 0.0
H3558 H 0.8923 0.53192 0.82662 0.0
H3559 H 0.90971 0.54183 0.81945 0.0
C3560 C 0.8944 0.52563 0.87446 0.0
C3561 C 0.91019 0.5205 0.87303 0.0
C3562 C 0.88892 0.53845 0.86553 0.0
C3563 C 0.89909 0.54626 0.85496 0.0
C3564 C 0.91492 0.5414 0.85373 0.0
H3565 H 0.87933 0.63365 0.8026 0.0
H3566 H 0.89126 0.61395 0.82033 0.0
C3567 C 0.92044 0.52862 0.86268 0.0
C3568 C 0.893 0.55923 0.84492 0.0
H3569 H 0.88448 0.5688 0.80659 0.0
C3570 C 0.8879 0.57329 0.85219 0.0
C3571 C 0.89176 0.55754 0.82831 0.0
C3572 C 0.89659 0.54246 0.82 0.0
C3573 C 0.88153 0.58576 0.84321 0.0
C3574 C 0.88036 0.58408 0.82659 0.0
C3575 C 0.88552 0.57004 0.81934 0.0
C3576 C 0.873 0.59635 0.81652 0.0
C3577 C 0.87572 0.60046 0.85155 0.0
C3578 C 0.85888 0.59289 0.80849 0.0
C3579 C 0.85209 0.60404 0.79838 0.0
C3580 C 0.85933 0.61886 0.79602 0.0
C3581 C 0.87344 0.62236 0.8042 0.0
C3582 C 0.88023 0.61116 0.81437 0.0
H3583 H 0.87491 0.59875 0.86458 0.0
H3584 H 0.88405 0.61036 0.84919 0.0
H3585 H 0.86389 0.60397 0.84698 0.0
H3586 H 0.85316 0.58149 0.80999 0.0
H3587 H 0.84122 0.60093 0.79228 0.0
H3588 H 0.89231 0.89678 0.44825 0.0
H3589 H 0.87019 0.88768 0.43215 0.0
H3590 H 0.83753 0.91261 0.46251 0.0
H3591 H 0.85975 0.92164 0.47901 0.0
H3592 H 0.82803 0.88208 0.45634 0.0
H3593 H 0.84384 0.91194 0.40022 0.0
H3594 H 0.86 0.9005 0.40792 0.0
H3595 H 0.85272 0.91726 0.41894 0.0
C3596 C 0.88045 0.90049 0.45149 0.0
C3597 C 0.87783 0.91002 0.46492 0.0
C3598 C 0.86781 0.89535 0.44217 0.0
C3599 C 0.85222 0.8997 0.44593 0.0
C3600 C 0.84949 0.90922 0.45931 0.0
H3601 H 0.7756 0.87591 0.37987 0.0
H3602 H 0.79381 0.89041 0.39716 0.0
C3603 C 0.86219 0.91439 0.46871 0.0
C3604 C 0.83885 0.89353 0.43627 0.0
H3605 H 0.82579 0.88999 0.39814 0.0
C3606 C 0.8274 0.88398 0.44365 0.0
C3607 C 0.83789 0.8962 0.41974 0.0
C3608 C 0.84918 0.90717 0.41127 0.0
C3609 C 0.81545 0.87644 0.43483 0.0
C3610 C 0.81515 0.87825 0.41815 0.0
C3611 C 0.82615 0.88839 0.41088 0.0
C3612 C 0.80381 0.86942 0.40796 0.0
C3613 C 0.80328 0.8666 0.44348 0.0
C3614 C 0.80352 0.85279 0.40811 0.0
C3615 C 0.79309 0.84446 0.39829 0.0
C3616 C 0.78285 0.8526 0.38795 0.0
C3617 C 0.78331 0.86926 0.38768 0.0
C3618 C 0.79371 0.87758 0.39757 0.0
H3619 H 0.80209 0.87039 0.45603 0.0
H3620 H 0.79149 0.86741 0.43769 0.0
H3621 H 0.80707 0.85401 0.44343 0.0
H3622 H 0.8115 0.84621 0.41571 0.0
H3623 H 0.79313 0.83163 0.39873 0.0
H3624 H 0.11682 0.85631 0.80368 0.0
H3625 H 0.10797 0.87793 0.82088 0.0
H3626 H 0.14329 0.90875 0.80055 0.0
H3627 H 0.15212 0.88734 0.7832 0.0
H3628 H 0.12486 0.89652 0.84338 0.0
H3629 H 0.10125 0.93266 0.79367 0.0
H3630 H 0.10626 0.91198 0.79151 0.0
H3631 H 0.12159 0.92677 0.7915 0.0
C3632 C 0.12275 0.86767 0.80291 0.0
C3633 C 0.13508 0.87015 0.79196 0.0
C3634 C 0.11769 0.87998 0.81276 0.0
C3635 C 0.12482 0.89497 0.81178 0.0
C3636 C 0.13745 0.89734 0.80126 0.0
H3637 H 0.11361 0.97438 0.87679 0.0
H3638 H 0.12399 0.95217 0.86129 0.0
C3639 C 0.14251 0.88506 0.7914 0.0
C3640 C 0.11883 0.90823 0.82154 0.0
H3641 H 0.10152 0.94467 0.81902 0.0
C3642 C 0.11975 0.90706 0.8381 0.0
C3643 C 0.112 0.92184 0.81455 0.0
C3644 C 0.11006 0.9234 0.79684 0.0
C3645 C 0.11415 0.91928 0.84789 0.0
C3646 C 0.10767 0.93306 0.84089 0.0
C3647 C 0.10662 0.93414 0.82434 0.0
C3648 C 0.10146 0.94634 0.85049 0.0
C3649 C 0.11492 0.91722 0.86564 0.0
C3650 C 0.08545 0.95061 0.84929 0.0
C3651 C 0.07951 0.96333 0.85802 0.0
C3652 C 0.0895 0.97209 0.86808 0.0
C3653 C 0.10558 0.96783 0.8692 0.0
C3654 C 0.11152 0.95509 0.86044 0.0
H3655 H 0.11667 0.90462 0.86903 0.0
H3656 H 0.12505 0.92415 0.87036 0.0
H3657 H 0.10393 0.92166 0.87135 0.0
H3658 H 0.07752 0.94404 0.84161 0.0
H3659 H 0.06707 0.96629 0.85686 0.0
H3660 H 0.14171 0.59522 0.45273 0.0
H3661 H 0.16171 0.60668 0.43532 0.0
H3662 H 0.12938 0.64405 0.42239 0.0
H3663 H 0.10912 0.63263 0.43985 0.0
H3664 H 0.14812 0.62937 0.39625 0.0
H3665 H 0.18413 0.64941 0.44762 0.0
H3666 H 0.17829 0.62893 0.44809 0.0
H3667 H 0.16346 0.64413 0.44937 0.0
C3668 C 0.13873 0.6058 0.4461 0.0
C3669 C 0.12384 0.6131 0.44781 0.0
C3670 C 0.15022 0.61234 0.43619 0.0
C3671 C 0.14707 0.6263 0.42779 0.0
C3672 C 0.13202 0.63328 0.42886 0.0
H3673 H 0.21985 0.68655 0.38684 0.0
H3674 H 0.19661 0.67639 0.40082 0.0
C3675 C 0.12048 0.62675 0.43884 0.0
C3676 C 0.1598 0.63389 0.41846 0.0
H3677 H 0.1961 0.65129 0.42228 0.0
C3678 C 0.15858 0.63426 0.40189 0.0
C3679 C 0.17331 0.6404 0.42593 0.0
C3680 C 0.1749 0.64086 0.44374 0.0
C3681 C 0.1708 0.64062 0.39254 0.0
C3682 C 0.18458 0.64658 0.4 0.0
C3683 C 0.18557 0.64659 0.41659 0.0
C3684 C 0.19821 0.65282 0.39088 0.0
C3685 C 0.16884 0.64099 0.37478 0.0
C3686 C 0.20688 0.64287 0.38077 0.0
C3687 C 0.22021 0.64862 0.37278 0.0
C3688 C 0.22513 0.66442 0.37484 0.0
C3689 C 0.21639 0.67434 0.38498 0.0
C3690 C 0.20309 0.66857 0.39297 0.0
H3691 H 0.15621 0.63977 0.37124 0.0
H3692 H 0.1736 0.65218 0.36975 0.0
H3693 H 0.17552 0.63098 0.36949 0.0
H3694 H 0.20349 0.63059 0.37926 0.0
H3695 H 0.22669 0.64066 0.36509 0.0
H3696 H 0.87996 0.35814 0.69601 0.0
H3697 H 0.89288 0.37812 0.67931 0.0
H3698 H 0.85571 0.4114 0.69024 0.0
H3699 H 0.84275 0.39164 0.70691 0.0
H3700 H 0.87976 0.39544 0.65242 0.0
H3701 H 0.89769 0.43455 0.70223 0.0
H3702 H 0.89208 0.41409 0.70505 0.0
H3703 H 0.87713 0.42897 0.70219 0.0
C3704 C 0.87453 0.3697 0.69484 0.0
C3705 C 0.86037 0.37332 0.70286 0.0
C3706 C 0.88191 0.38108 0.68529 0.0
C3707 C 0.87534 0.39627 0.68375 0.0
C3708 C 0.86108 0.39981 0.69149 0.0
H3709 H 0.89139 0.47188 0.61691 0.0
H3710 H 0.88106 0.44968 0.63241 0.0
C3711 C 0.85367 0.38846 0.70096 0.0
C3712 C 0.88331 0.4085 0.67404 0.0
H3713 H 0.90041 0.44508 0.67625 0.0
C3714 C 0.88438 0.40625 0.65761 0.0
C3715 C 0.88946 0.42249 0.6809 0.0
C3716 C 0.88919 0.42518 0.69858 0.0
C3717 C 0.89106 0.4179 0.64777 0.0
C3718 C 0.89665 0.43216 0.65458 0.0
C3719 C 0.89599 0.43418 0.67106 0.0
C3720 C 0.90306 0.44524 0.64481 0.0
C3721 C 0.89214 0.41484 0.63019 0.0
C3722 C 0.91878 0.45026 0.64685 0.0
C3723 C 0.92472 0.46297 0.63805 0.0
C3724 C 0.91498 0.47099 0.62714 0.0
C3725 C 0.89922 0.46594 0.62516 0.0
C3726 C 0.89331 0.45319 0.63394 0.0
H3727 H 0.89108 0.40201 0.6274 0.0
H3728 H 0.88234 0.42115 0.6241 0.0
H3729 H 0.90352 0.41931 0.62533 0.0
H3730 H 0.92645 0.44433 0.65526 0.0
H3731 H 0.9369 0.46657 0.63989 0.0
H3732 H 0.64688 0.90295 0.52952 0.0
H3733 H 0.66855 0.89204 0.54531 0.0
H3734 H 0.63465 0.86971 0.57643 0.0
H3735 H 0.61294 0.87988 0.56011 0.0
H3736 H 0.6777 0.89564 0.57422 0.0
H3737 H 0.66151 0.83256 0.56638 0.0
H3738 H 0.65192 0.84821 0.55548 0.0
H3739 H 0.64585 0.84365 0.57544 0.0
C3740 C 0.64406 0.8957 0.53973 0.0
C3741 C 0.62825 0.89213 0.54352 0.0
C3742 C 0.65645 0.88947 0.54875 0.0
C3743 C 0.65327 0.87974 0.56187 0.0
C3744 C 0.63744 0.87671 0.56605 0.0
H3745 H 0.72544 0.85797 0.6328 0.0
H3746 H 0.70356 0.86967 0.61784 0.0
C3747 C 0.62503 0.88264 0.55681 0.0
C3748 C 0.66657 0.87286 0.57113 0.0
H3749 H 0.68136 0.83812 0.58559 0.0
C3750 C 0.67855 0.88304 0.57663 0.0
C3751 C 0.66785 0.85639 0.57404 0.0
C3752 C 0.65619 0.84456 0.56738 0.0
C3753 C 0.6917 0.87724 0.58499 0.0
C3754 C 0.69258 0.86087 0.58856 0.0
C3755 C 0.68063 0.85069 0.58301 0.0
C3756 C 0.70592 0.85391 0.59771 0.0
C3757 C 0.70471 0.8887 0.58943 0.0
C3758 C 0.71417 0.84075 0.5917 0.0
C3759 C 0.72634 0.83375 0.60045 0.0
C3760 C 0.73067 0.83993 0.61528 0.0
C3761 C 0.7225 0.85313 0.62128 0.0
C3762 C 0.71006 0.85989 0.61268 0.0
H3763 H 0.70479 0.8992 0.58149 0.0
H3764 H 0.70269 0.893 0.60168 0.0
H3765 H 0.71655 0.88299 0.58888 0.0
H3766 H 0.71118 0.83588 0.5802 0.0
H3767 H 0.73246 0.8236 0.59555 0.0
H3768 H 0.08523 0.02909 0.61538 0.0
H3769 H 0.09612 0.05111 0.6305 0.0
H3770 H 0.14285 0.0307 0.62684 0.0
H3771 H 0.13199 0.00868 0.61118 0.0
H3772 H 0.10984 0.04866 0.65886 0.0
H3773 H 0.15201 0.07666 0.61688 0.0
H3774 H 0.13731 0.06244 0.61061 0.0
H3775 H 0.15534 0.05586 0.61987 0.0
C3776 C 0.09788 0.02937 0.61758 0.0
C3777 C 0.10776 0.01711 0.61214 0.0
C3778 C 0.10409 0.04199 0.62623 0.0
C3779 C 0.12031 0.04265 0.62975 0.0
C3780 C 0.13033 0.03063 0.624 0.0
H3781 H 0.17314 0.10021 0.69636 0.0
H3782 H 0.1644 0.08063 0.67689 0.0
C3783 C 0.12412 0.01802 0.61512 0.0
C3784 C 0.12629 0.05526 0.64048 0.0
H3785 H 0.1528 0.08575 0.64359 0.0
C3786 C 0.11917 0.05682 0.65545 0.0
C3787 C 0.1385 0.06589 0.63607 0.0
C3788 C 0.14615 0.06527 0.61993 0.0
C3789 C 0.12395 0.06861 0.66614 0.0
C3790 C 0.13614 0.0792 0.66174 0.0
C3791 C 0.1434 0.07762 0.64686 0.0
C3792 C 0.1417 0.09172 0.67269 0.0
C3793 C 0.11612 0.06952 0.68219 0.0
C3794 C 0.13189 0.10458 0.67657 0.0
C3795 C 0.13686 0.11586 0.68768 0.0
C3796 C 0.15169 0.1144 0.69514 0.0
C3797 C 0.1616 0.10165 0.69093 0.0
C3798 C 0.15667 0.09047 0.67976 0.0
H3799 H 0.1089 0.05882 0.6848 0.0
H3800 H 0.12515 0.07095 0.69166 0.0
H3801 H 0.10821 0.08001 0.68257 0.0
H3802 H 0.12033 0.10578 0.67113 0.0
H3803 H 0.12897 0.12555 0.69062 0.0
H3804 H 0.37673 0.62015 0.55657 0.0
H3805 H 0.35592 0.62719 0.57551 0.0
H3806 H 0.33316 0.58214 0.56744 0.0
H3807 H 0.35367 0.57514 0.54831 0.0
H3808 H 0.31271 0.60632 0.5647 0.0
H3809 H 0.34664 0.61288 0.62046 0.0
H3810 H 0.35479 0.62446 0.6046 0.0
H3811 H 0.3547 0.60318 0.60316 0.0
C3812 C 0.3674 0.61167 0.55897 0.0
C3813 C 0.36683 0.59712 0.55088 0.0
C3814 C 0.35558 0.61565 0.5699 0.0
C3815 C 0.34311 0.60508 0.57307 0.0
C3816 C 0.34271 0.59043 0.56524 0.0
H3817 H 0.26842 0.62872 0.6428 0.0
H3818 H 0.28901 0.61352 0.6288 0.0
C3819 C 0.35445 0.58648 0.55428 0.0
C3820 C 0.32974 0.60985 0.58342 0.0
H3821 H 0.32073 0.62488 0.61991 0.0
C3822 C 0.31445 0.61013 0.57685 0.0
C3823 C 0.33194 0.6146 0.59935 0.0
C3824 C 0.34788 0.61362 0.60737 0.0
C3825 C 0.30147 0.61582 0.5855 0.0
C3826 C 0.30388 0.62159 0.60103 0.0
C3827 C 0.31897 0.62054 0.60794 0.0
C3828 C 0.29126 0.63029 0.60953 0.0
C3829 C 0.28533 0.61597 0.57781 0.0
C3830 C 0.28588 0.64472 0.60337 0.0
C3831 C 0.27428 0.65337 0.61128 0.0
C3832 C 0.26778 0.6478 0.62558 0.0
C3833 C 0.27313 0.63327 0.63176 0.0
C3834 C 0.2849 0.62462 0.62383 0.0
H3835 H 0.28453 0.60714 0.56808 0.0
H3836 H 0.27586 0.61346 0.5866 0.0
H3837 H 0.28311 0.62787 0.57266 0.0
H3838 H 0.29082 0.6494 0.59248 0.0
H3839 H 0.27047 0.6645 0.60616 0.0
H3840 H 0.89452 0.91487 0.5539 0.0
H3841 H 0.87844 0.89926 0.5721 0.0
H3842 H 0.87014 0.86468 0.53541 0.0
H3843 H 0.88652 0.88031 0.517 0.0
H3844 H 0.84577 0.89396 0.5631 0.0
H3845 H 0.87815 0.83816 0.57716 0.0
H3846 H 0.8883 0.8559 0.57074 0.0
H3847 H 0.87717 0.8444 0.55676 0.0
C3848 C 0.88962 0.90373 0.5498 0.0
C3849 C 0.89164 0.89885 0.53401 0.0
C3850 C 0.88046 0.89483 0.56022 0.0
C3851 C 0.8731 0.88087 0.55509 0.0
C3852 C 0.8759 0.87535 0.53963 0.0
H3853 H 0.79937 0.82683 0.60359 0.0
H3854 H 0.81959 0.83569 0.58482 0.0
C3855 C 0.88523 0.88426 0.52914 0.0
C3856 C 0.86091 0.87354 0.56532 0.0
H3857 H 0.85286 0.84152 0.58869 0.0
C3858 C 0.84729 0.88246 0.56866 0.0
C3859 C 0.8629 0.85851 0.57239 0.0
C3860 C 0.87743 0.84863 0.56921 0.0
C3861 C 0.83568 0.87689 0.57912 0.0
C3862 C 0.83791 0.86211 0.58668 0.0
C3863 C 0.85129 0.85293 0.58298 0.0
C3864 C 0.82646 0.85619 0.59856 0.0
C3865 C 0.82109 0.88685 0.58194 0.0
C3866 C 0.82385 0.86464 0.61265 0.0
C3867 C 0.81227 0.85967 0.62339 0.0
C3868 C 0.80314 0.8461 0.62025 0.0
C3869 C 0.80613 0.83739 0.60633 0.0
C3870 C 0.81771 0.84239 0.59561 0.0
H3871 H 0.81924 0.89562 0.5723 0.0
H3872 H 0.81034 0.87932 0.58291 0.0
H3873 H 0.82249 0.89347 0.59322 0.0
H3874 H 0.83067 0.87521 0.61525 0.0
H3875 H 0.81036 0.86657 0.63404 0.0
H3876 H 0.88099 0.11485 0.97663 0.0
H3877 H 0.86524 0.12694 0.95549 0.0
H3878 H 0.84014 0.08294 0.94885 0.0
H3879 H 0.85575 0.07073 0.96999 0.0
H3880 H 0.86165 0.11672 0.92291 0.0
H3881 H 0.80505 0.11679 0.95658 0.0
H3882 H 0.8241 0.11434 0.96603 0.0
H3883 H 0.81508 0.09802 0.95577 0.0
C3884 C 0.87213 0.10773 0.97067 0.0
C3885 C 0.86955 0.09185 0.97506 0.0
C3886 C 0.86318 0.11465 0.95859 0.0
C3887 C 0.85144 0.10586 0.95079 0.0
C3888 C 0.84901 0.08995 0.95492 0.0
H3889 H 0.80025 0.1248 0.86417 0.0
H3890 H 0.81819 0.11469 0.88456 0.0
C3891 C 0.85798 0.083 0.96696 0.0
C3892 C 0.84164 0.11335 0.93837 0.0
H3893 H 0.80365 0.12385 0.92943 0.0
C3894 C 0.84898 0.11835 0.92432 0.0
C3895 C 0.82517 0.1156 0.94039 0.0
C3896 C 0.81685 0.11105 0.95555 0.0
C3897 C 0.84016 0.12525 0.91202 0.0
C3898 C 0.8236 0.12704 0.91386 0.0
C3899 C 0.81634 0.12235 0.92805 0.0
C3900 C 0.81351 0.13365 0.90117 0.0
C3901 C 0.84861 0.13071 0.89725 0.0
C3902 C 0.80486 0.14758 0.90384 0.0
C3903 C 0.79456 0.15337 0.89225 0.0
C3904 C 0.79265 0.14524 0.87783 0.0
C3905 C 0.80149 0.13137 0.87513 0.0
C3906 C 0.81181 0.12561 0.88673 0.0
H3907 H 0.86156 0.13207 0.89925 0.0
H3908 H 0.84688 0.12179 0.88774 0.0
H3909 H 0.84375 0.14218 0.89302 0.0
H3910 H 0.80597 0.15389 0.91496 0.0
H3911 H 0.78792 0.16406 0.89472 0.0
H3912 H 0.31415 0.89338 0.28376 0.0
H3913 H 0.32599 0.9083 0.30567 0.0
H3914 H 0.37269 0.89678 0.28849 0.0
H3915 H 0.36103 0.88176 0.2666 0.0
H3916 H 0.35056 0.89486 0.32887 0.0
H3917 H 0.36996 0.94718 0.29366 0.0
H3918 H 0.35409 0.93429 0.28728 0.0
H3919 H 0.37428 0.92786 0.28568 0.0
C3920 C 0.32694 0.89406 0.2846 0.0
C3921 C 0.33666 0.88641 0.27342 0.0
C3922 C 0.33366 0.90255 0.29713 0.0
C3923 C 0.35016 0.90367 0.29857 0.0
C3924 C 0.35991 0.89611 0.28745 0.0
H3925 H 0.41415 0.95371 0.36082 0.0
H3926 H 0.40184 0.93802 0.33985 0.0
C3927 C 0.35322 0.88752 0.27499 0.0
C3928 C 0.35726 0.91259 0.31183 0.0
H3929 H 0.37774 0.94632 0.32049 0.0
C3930 C 0.35646 0.90614 0.32711 0.0
C3931 C 0.36499 0.92722 0.30937 0.0
C3932 C 0.36586 0.93468 0.29315 0.0
C3933 C 0.36351 0.91385 0.34006 0.0
C3934 C 0.37117 0.92858 0.33764 0.0
C3935 C 0.37187 0.93503 0.32231 0.0
C3936 C 0.37865 0.9375 0.35078 0.0
C3937 C 0.36307 0.90593 0.35608 0.0
C3938 C 0.36968 0.94245 0.36389 0.0
C3939 C 0.37672 0.95131 0.37598 0.0
C3940 C 0.39281 0.95558 0.37505 0.0
C3941 C 0.40174 0.95063 0.36189 0.0
C3942 C 0.39472 0.94167 0.34989 0.0
H3943 H 0.36093 0.89298 0.35504 0.0
H3944 H 0.37433 0.90781 0.36263 0.0
H3945 H 0.35327 0.91106 0.36318 0.0
H3946 H 0.35717 0.93971 0.36464 0.0
H3947 H 0.36949 0.95507 0.38589 0.0
H3948 H 0.19871 0.36522 0.86752 0.0
H3949 H 0.18099 0.37509 0.88819 0.0
H3950 H 0.18447 0.33036 0.91268 0.0
H3951 H 0.20257 0.32055 0.8923 0.0
H3952 H 0.15235 0.36506 0.899 0.0
H3953 H 0.1972 0.36121 0.94701 0.0
H3954 H 0.20228 0.35899 0.92637 0.0
H3955 H 0.19365 0.34273 0.93712 0.0
C3956 C 0.19567 0.35746 0.87728 0.0
C3957 C 0.20218 0.34216 0.87836 0.0
C3958 C 0.18554 0.36312 0.88908 0.0
C3959 C 0.18168 0.35358 0.90214 0.0
C3960 C 0.18764 0.33807 0.90293 0.0
H3961 H 0.11995 0.37196 0.98317 0.0
H3962 H 0.1351 0.35905 0.962 0.0
C3963 C 0.1979 0.33246 0.89121 0.0
C3964 C 0.17159 0.35998 0.91501 0.0
H3965 H 0.17111 0.36824 0.95465 0.0
C3966 C 0.15645 0.36574 0.91116 0.0
C3967 C 0.17701 0.36094 0.93087 0.0
C3968 C 0.19347 0.35579 0.9356 0.0
C3969 C 0.14659 0.3724 0.92278 0.0
C3970 C 0.15201 0.37327 0.93857 0.0
C3971 C 0.16702 0.36739 0.94249 0.0
C3972 C 0.14254 0.38099 0.95107 0.0
C3973 C 0.13044 0.37852 0.91817 0.0
C3974 C 0.14187 0.39755 0.95188 0.0
C3975 C 0.13337 0.40495 0.96399 0.0
C3976 C 0.12534 0.3959 0.97544 0.0
C3977 C 0.12597 0.37926 0.97451 0.0
C3978 C 0.1346 0.37187 0.96245 0.0
H3979 H 0.12717 0.37514 0.90587 0.0
H3980 H 0.1213 0.37392 0.92644 0.0
H3981 H 0.13036 0.39165 0.91905 0.0
H3982 H 0.14803 0.40474 0.94321 0.0
H3983 H 0.1331 0.41778 0.96434 0.0
H3984 H 0.11581 0.05677 0.8855 0.0
H3985 H 0.12676 0.07418 0.86499 0.0
H3986 H 0.10336 0.04637 0.82899 0.0
H3987 H 0.09172 0.02959 0.84943 0.0
H3988 H 0.14632 0.06889 0.84235 0.0
H3989 H 0.09064 0.08905 0.81467 0.0
H3990 H 0.09087 0.07827 0.83311 0.0
H3991 H 0.09164 0.06786 0.81445 0.0
C3992 C 0.11288 0.05453 0.8732 0.0
C3993 C 0.10279 0.04196 0.86904 0.0
C3994 C 0.11914 0.06445 0.8615 0.0
C3995 C 0.1156 0.06183 0.84544 0.0
C3996 C 0.10579 0.04904 0.8413 0.0
H3997 H 0.17401 0.09193 0.76677 0.0
H3998 H 0.16174 0.07821 0.78914 0.0
C3999 C 0.09925 0.03936 0.85299 0.0
C4000 C 0.12277 0.07193 0.83294 0.0
H4001 H 0.11422 0.09202 0.79891 0.0
C4002 C 0.13927 0.07412 0.83297 0.0
C4003 C 0.11358 0.07908 0.82085 0.0
C4004 C 0.09569 0.07859 0.82088 0.0
C4005 C 0.14687 0.08281 0.821 0.0
C4006 C 0.1378 0.08888 0.80825 0.0
C4007 C 0.12125 0.08713 0.8085 0.0
C4008 C 0.14516 0.09707 0.79452 0.0
C4009 C 0.16449 0.08558 0.82237 0.0
C4010 C 0.13945 0.1119 0.78957 0.0
C4011 C 0.14609 0.11949 0.77645 0.0
C4012 C 0.15873 0.11251 0.76819 0.0
C4013 C 0.1644 0.09765 0.77307 0.0
C4014 C 0.1575 0.08989 0.78595 0.0
H4015 H 0.16841 0.08525 0.83494 0.0
H4016 H 0.17088 0.07604 0.81599 0.0
H4017 H 0.16798 0.09717 0.81723 0.0
H4018 H 0.12989 0.11766 0.79591 0.0
H4019 H 0.14153 0.13098 0.77297 0.0
H4020 H 0.62555 0.07914 0.03539 0.0
H4021 H 0.64095 0.09226 0.05602 0.0
H4022 H 0.62164 0.13742 0.04201 0.0
H4023 H 0.60604 0.12438 0.02123 0.0
H4024 H 0.66373 0.1168 0.04934 0.0
H4025 H 0.61671 0.13581 0.09152 0.0
H4026 H 0.61367 0.12021 0.07717 0.0
H4027 H 0.61366 0.14052 0.07094 0.0
C4028 C 0.62441 0.09184 0.03676 0.0
C4029 C 0.6146 0.10072 0.02662 0.0
C4030 C 0.63323 0.09931 0.04857 0.0
C4031 C 0.63233 0.11576 0.05057 0.0
C4032 C 0.6223 0.12467 0.04075 0.0
H4033 H 0.70224 0.17321 0.09967 0.0
H4034 H 0.68279 0.16295 0.08082 0.0
C4035 C 0.61347 0.1172 0.02886 0.0
C4036 C 0.64279 0.12357 0.06224 0.0
H4037 H 0.64298 0.14379 0.09728 0.0
C4038 C 0.65921 0.12275 0.0598 0.0
C4039 C 0.6368 0.13119 0.07589 0.0
C4040 C 0.61925 0.13195 0.07919 0.0
C4041 C 0.66986 0.12937 0.07068 0.0
C4042 C 0.66388 0.13712 0.08427 0.0
C4043 C 0.64746 0.13792 0.08676 0.0
C4044 C 0.67465 0.14411 0.09616 0.0
C4045 C 0.68743 0.12777 0.06776 0.0
C4046 C 0.6762 0.1371 0.11114 0.0
C4047 C 0.68734 0.14289 0.12195 0.0
C4048 C 0.69703 0.15586 0.11795 0.0
C4049 C 0.69503 0.16316 0.1031 0.0
C4050 C 0.68394 0.15732 0.0923 0.0
H4051 H 0.69008 0.11894 0.05836 0.0
H4052 H 0.69227 0.13939 0.06396 0.0
H4053 H 0.69366 0.12421 0.07879 0.0
H4054 H 0.66909 0.12688 0.11429 0.0
H4055 H 0.68853 0.13705 0.13331 0.0
H4056 H 0.41027 0.0616 0.12357 0.0
H4057 H 0.39971 0.07962 0.1436 0.0
H4058 H 0.41955 0.05019 0.18046 0.0
H4059 H 0.43094 0.03267 0.16032 0.0
H4060 H 0.37808 0.07314 0.16356 0.0
H4061 H 0.43036 0.09226 0.19809 0.0
H4062 H 0.43219 0.08203 0.17942 0.0
H4063 H 0.42888 0.07109 0.19746 0.0
C4064 C 0.4127 0.05923 0.13595 0.0
C4065 C 0.42144 0.04582 0.14045 0.0
C4066 C 0.40663 0.06949 0.14739 0.0
C4067 C 0.4089 0.06637 0.16359 0.0
C4068 C 0.41799 0.05314 0.16808 0.0
H4069 H 0.34161 0.09836 0.23457 0.0
H4070 H 0.35676 0.08348 0.21489 0.0
C4071 C 0.42443 0.04308 0.15657 0.0
C4072 C 0.40043 0.07607 0.1756 0.0
H4073 H 0.40501 0.09629 0.21034 0.0
C4074 C 0.38404 0.07834 0.17369 0.0
C4075 C 0.40817 0.08303 0.18876 0.0
C4076 C 0.42589 0.08212 0.19096 0.0
C4077 C 0.37517 0.08719 0.18457 0.0
C4078 C 0.38273 0.09339 0.1982 0.0
C4079 C 0.39916 0.09135 0.20002 0.0
C4080 C 0.37384 0.10217 0.21058 0.0
C4081 C 0.35785 0.09009 0.18109 0.0
C4082 C 0.37877 0.11735 0.21525 0.0
C4083 C 0.37036 0.12571 0.2268 0.0
C4084 C 0.35675 0.11911 0.23377 0.0
C4085 C 0.35191 0.10385 0.22921 0.0
C4086 C 0.36051 0.09537 0.21789 0.0
H4087 H 0.35533 0.08923 0.16819 0.0
H4088 H 0.35062 0.08094 0.18715 0.0
H4089 H 0.35402 0.10195 0.18529 0.0
H4090 H 0.38905 0.12282 0.20984 0.0
H4091 H 0.37438 0.13745 0.2301 0.0
H4092 H 0.63479 0.38291 0.2305 0.0
H4093 H 0.62234 0.39891 0.20971 0.0
H4094 H 0.66822 0.41596 0.19514 0.0
H4095 H 0.68082 0.40013 0.21596 0.0
H4096 H 0.63003 0.43615 0.20556 0.0
H4097 H 0.64185 0.39597 0.15451 0.0
H4098 H 0.63955 0.38851 0.17445 0.0
H4099 H 0.65716 0.39908 0.1691 0.0
C4100 C 0.64225 0.39002 0.22286 0.0
C4101 C 0.6588 0.39026 0.22489 0.0
C4102 C 0.63511 0.39915 0.21101 0.0
C4103 C 0.64441 0.4085 0.20091 0.0
C4104 C 0.6609 0.40872 0.20281 0.0
H4105 H 0.62239 0.46707 0.11908 0.0
H4106 H 0.63519 0.45026 0.13898 0.0
C4107 C 0.66805 0.39971 0.21473 0.0
C4108 C 0.63682 0.41839 0.18862 0.0
H4109 H 0.62907 0.42017 0.14898 0.0
C4110 C 0.62976 0.43269 0.19319 0.0
C4111 C 0.6367 0.41384 0.17253 0.0
C4112 C 0.64415 0.39849 0.16722 0.0
C4113 C 0.62261 0.4427 0.18199 0.0
C4114 C 0.62216 0.43802 0.16587 0.0
C4115 C 0.62936 0.42371 0.16133 0.0
C4116 C 0.61425 0.4478 0.15358 0.0
C4117 C 0.61597 0.45837 0.1875 0.0
C4118 C 0.59815 0.4517 0.15499 0.0
C4119 C 0.59085 0.4614 0.14374 0.0
C4120 C 0.59944 0.4672 0.13069 0.0
C4121 C 0.61544 0.46283 0.12901 0.0
C4122 C 0.62277 0.45323 0.14036 0.0
H4123 H 0.62136 0.46217 0.1989 0.0
H4124 H 0.61797 0.4678 0.17856 0.0
H4125 H 0.60302 0.45714 0.1894 0.0
H4126 H 0.59121 0.44729 0.16485 0.0
H4127 H 0.57846 0.46438 0.1453 0.0
loop_
_geom_bond_atom_site_label_1
_geom_bond_atom_site_label_2
_geom_bond_distance
_geom_bond_site_symmetry_2
_ccdc_geom_bond_type
C0 O2 1.247 . S
C0 O4 1.258 . S
C1 O8 1.247 . S
C1 O9 1.258 . S
O2 C0 1.247 . S
O2 Zn3 2.028 . S
Zn3 O2 2.028 . S
Zn3 O7 2.035 . S
Zn3 O9 2.035 . S
Zn3 O10 2.028 . S
O4 C0 1.258 . S
O4 Zn5 2.035 . S
Zn5 O4 2.035 . S
Zn5 O6 2.028 . S
Zn5 O8 2.028 . S
Zn5 O11 2.035 . S
O6 Zn5 2.028 . S
O6 C12 1.247 . S
O7 Zn3 2.035 . S
O7 C12 1.258 . S
O8 C1 1.247 . S
O8 Zn5 2.028 . S
O9 C1 1.258 . S
O9 Zn3 2.035 . S
O10 Zn3 2.028 . S
O10 C13 1.247 . S
O11 Zn5 2.035 . S
O11 C13 1.258 . S
C12 O6 1.247 . S
C12 O7 1.258 . S
C13 O10 1.247 . S
C13 O11 1.258 . S
C14 O16 1.247 . S
C14 O18 1.258 . S
C15 O22 1.247 . S
C15 O23 1.258 . S
O16 C14 1.247 . S
O16 Zn17 2.028 . S
Zn17 O16 2.028 . S
Zn17 O21 2.035 . S
Zn17 O23 2.035 . S
Zn17 O24 2.028 . S
O18 C14 1.258 . S
O18 Zn19 2.035 . S
Zn19 O18 2.035 . S
Zn19 O20 2.028 . S
Zn19 O22 2.028 . S
Zn19 O25 2.035 . S
O20 Zn19 2.028 . S
O20 C26 1.247 . S
O21 Zn17 2.035 . S
O21 C26 1.258 . S
O22 C15 1.247 . S
O22 Zn19 2.028 . S
O23 C15 1.258 . S
O23 Zn17 2.035 . S
O24 Zn17 2.028 . S
O24 C27 1.247 . S
O25 Zn19 2.035 . S
O25 C27 1.258 . S
C26 O20 1.247 . S
C26 O21 1.258 . S
C27 O24 1.247 . S
C27 O25 1.258 . S
C28 O30 1.247 . S
C28 O32 1.258 . S
C29 O36 1.247 . S
C29 O37 1.258 . S
O30 C28 1.247 . S
O30 Zn31 2.028 . S
Zn31 O30 2.028 . S
Zn31 O35 2.035 . S
Zn31 O37 2.035 . S
Zn31 O38 2.028 . S
O32 C28 1.258 . S
O32 Zn33 2.035 . S
Zn33 O32 2.035 . S
Zn33 O34 2.028 . S
Zn33 O36 2.028 . S
Zn33 O39 2.035 . S
O34 Zn33 2.028 . S
O34 C40 1.247 . S
O35 Zn31 2.035 . S
O35 C40 1.258 . S
O36 C29 1.247 . S
O36 Zn33 2.028 . S
O37 C29 1.258 . S
O37 Zn31 2.035 . S
O38 Zn31 2.028 . S
O38 C41 1.247 . S
O39 Zn33 2.035 . S
O39 C41 1.258 . S
C40 O34 1.247 . S
C40 O35 1.258 . S
C41 O38 1.247 . S
C41 O39 1.258 . S
C42 O44 1.247 . S
C42 O46 1.258 . S
C43 O50 1.247 . S
C43 O51 1.258 . S
O44 C42 1.247 . S
O44 Zn45 2.028 . S
Zn45 O44 2.028 . S
Zn45 O49 2.035 . S
Zn45 O51 2.035 . S
Zn45 O52 2.028 . S
O46 C42 1.258 . S
O46 Zn47 2.035 . S
Zn47 O46 2.035 . S
Zn47 O48 2.028 . S
Zn47 O50 2.028 . S
Zn47 O53 2.035 . S
O48 Zn47 2.028 . S
O48 C54 1.247 . S
O49 Zn45 2.035 . S
O49 C54 1.258 . S
O50 C43 1.247 . S
O50 Zn47 2.028 . S
O51 C43 1.258 . S
O51 Zn45 2.035 . S
O52 Zn45 2.028 . S
O52 C55 1.247 . S
O53 Zn47 2.035 . S
O53 C55 1.258 . S
C54 O48 1.247 . S
C54 O49 1.258 . S
C55 O52 1.247 . S
C55 O53 1.258 . S
C56 O58 1.247 . S
C56 O60 1.258 . S
C57 O64 1.247 . S
C57 O65 1.258 . S
O58 C56 1.247 . S
O58 Zn59 2.028 . S
Zn59 O58 2.028 . S
Zn59 O63 2.035 . S
Zn59 O65 2.035 . S
Zn59 O66 2.028 . S
O60 C56 1.258 . S
O60 Zn61 2.035 . S
Zn61 O60 2.035 . S
Zn61 O62 2.028 . S
Zn61 O64 2.028 . S
Zn61 O67 2.035 . S
O62 Zn61 2.028 . S
O62 C68 1.247 . S
O63 Zn59 2.035 . S
O63 C68 1.258 . S
O64 C57 1.247 . S
O64 Zn61 2.028 . S
O65 C57 1.258 . S
O65 Zn59 2.035 . S
O66 Zn59 2.028 . S
O66 C69 1.247 . S
O67 Zn61 2.035 . S
O67 C69 1.258 . S
C68 O62 1.247 . S
C68 O63 1.258 . S
C69 O66 1.247 . S
C69 O67 1.258 . S
C70 O72 1.247 . S
C70 O74 1.258 . S
C71 O78 1.247 . S
C71 O79 1.258 . S
O72 C70 1.247 . S
O72 Zn73 2.028 . S
Zn73 O72 2.028 . S
Zn73 O77 2.035 . S
Zn73 O79 2.035 1_455 S
Zn73 O80 2.028 1_455 S
O74 C70 1.258 . S
O74 Zn75 2.035 1_455 S
Zn75 O74 2.035 1_655 S
Zn75 O76 2.028 1_655 S
Zn75 O78 2.028 . S
Zn75 O81 2.035 . S
O76 Zn75 2.028 1_455 S
O76 C82 1.247 . S
O77 Zn73 2.035 . S
O77 C82 1.258 . S
O78 C71 1.247 . S
O78 Zn75 2.028 . S
O79 C71 1.258 . S
O79 Zn73 2.035 1_655 S
O80 Zn73 2.028 1_655 S
O80 C83 1.247 . S
O81 Zn75 2.035 . S
O81 C83 1.258 . S
C82 O76 1.247 . S
C82 O77 1.258 . S
C83 O80 1.247 . S
C83 O81 1.258 . S
C84 O86 1.247 . S
C84 O88 1.258 . S
C85 O92 1.247 . S
C85 O93 1.258 . S
O86 C84 1.247 . S
O86 Zn87 2.028 . S
Zn87 O86 2.028 . S
Zn87 O91 2.035 . S
Zn87 O93 2.035 . S
Zn87 O94 2.028 . S
O88 C84 1.258 . S
O88 Zn89 2.035 . S
Zn89 O88 2.035 . S
Zn89 O90 2.028 . S
Zn89 O92 2.028 . S
Zn89 O95 2.035 . S
O90 Zn89 2.028 . S
O90 C96 1.247 . S
O91 Zn87 2.035 . S
O91 C96 1.258 . S
O92 C85 1.247 . S
O92 Zn89 2.028 . S
O93 C85 1.258 . S
O93 Zn87 2.035 . S
O94 Zn87 2.028 . S
O94 C97 1.247 . S
O95 Zn89 2.035 . S
O95 C97 1.258 . S
C96 O90 1.247 . S
C96 O91 1.258 . S
C97 O94 1.247 . S
C97 O95 1.258 . S
C98 O100 1.247 . S
C98 O102 1.258 . S
C99 O106 1.247 . S
C99 O107 1.258 . S
O100 C98 1.247 . S
O100 Zn101 2.028 . S
Zn101 O100 2.028 . S
Zn101 O105 2.035 . S
Zn101 O107 2.035 1_655 S
Zn101 O108 2.028 1_655 S
O102 C98 1.258 . S
O102 Zn103 2.035 1_655 S
Zn103 O102 2.035 1_455 S
Zn103 O104 2.028 1_455 S
Zn103 O106 2.028 . S
Zn103 O109 2.035 . S
O104 Zn103 2.028 1_655 S
O104 C110 1.247 . S
O105 Zn101 2.035 . S
O105 C110 1.258 . S
O106 C99 1.247 . S
O106 Zn103 2.028 . S
O107 C99 1.258 . S
O107 Zn101 2.035 1_455 S
O108 Zn101 2.028 1_455 S
O108 C111 1.247 . S
O109 Zn103 2.035 . S
O109 C111 1.258 . S
C110 O104 1.247 . S
C110 O105 1.258 . S
C111 O108 1.247 . S
C111 O109 1.258 . S
C112 O114 1.247 . S
C112 O116 1.258 . S
C113 O120 1.247 . S
C113 O121 1.258 . S
O114 C112 1.247 . S
O114 Zn115 2.028 . S
Zn115 O114 2.028 . S
Zn115 O119 2.035 . S
Zn115 O121 2.035 . S
Zn115 O122 2.028 . S
O116 C112 1.258 . S
O116 Zn117 2.035 . S
Zn117 O116 2.035 . S
Zn117 O118 2.028 . S
Zn117 O120 2.028 . S
Zn117 O123 2.035 . S
O118 Zn117 2.028 . S
O118 C124 1.247 . S
O119 Zn115 2.035 . S
O119 C124 1.258 . S
O120 C113 1.247 . S
O120 Zn117 2.028 . S
O121 C113 1.258 . S
O121 Zn115 2.035 . S
O122 Zn115 2.028 . S
O122 C125 1.247 . S
O123 Zn117 2.035 . S
O123 C125 1.258 . S
C124 O118 1.247 . S
C124 O119 1.258 . S
C125 O122 1.247 . S
C125 O123 1.258 . S
C126 O128 1.247 . S
C126 O130 1.258 . S
C127 O134 1.247 . S
C127 O135 1.258 . S
O128 C126 1.247 . S
O128 Zn129 2.028 . S
Zn129 O128 2.028 . S
Zn129 O133 2.035 . S
Zn129 O135 2.035 1_556 S
Zn129 O136 2.028 1_556 S
O130 C126 1.258 . S
O130 Zn131 2.035 1_556 S
Zn131 O130 2.035 1_554 S
Zn131 O132 2.028 1_554 S
Zn131 O134 2.028 . S
Zn131 O137 2.035 . S
O132 Zn131 2.028 1_556 S
O132 C138 1.247 . S
O133 Zn129 2.035 . S
O133 C138 1.258 . S
O134 C127 1.247 . S
O134 Zn131 2.028 . S
O135 C127 1.258 . S
O135 Zn129 2.035 1_554 S
O136 Zn129 2.028 1_554 S
O136 C139 1.247 . S
O137 Zn131 2.035 . S
O137 C139 1.258 . S
C138 O132 1.247 . S
C138 O133 1.258 . S
C139 O136 1.247 . S
C139 O137 1.258 . S
C140 O142 1.247 . S
C140 O144 1.258 . S
C141 O148 1.247 . S
C141 O149 1.258 . S
O142 C140 1.247 . S
O142 Zn143 2.028 . S
Zn143 O142 2.028 . S
Zn143 O147 2.035 . S
Zn143 O149 2.035 . S
Zn143 O150 2.028 . S
O144 C140 1.258 . S
O144 Zn145 2.035 . S
Zn145 O144 2.035 . S
Zn145 O146 2.028 . S
Zn145 O148 2.028 . S
Zn145 O151 2.035 . S
O146 Zn145 2.028 . S
O146 C152 1.247 . S
O147 Zn143 2.035 . S
O147 C152 1.258 . S
O148 C141 1.247 . S
O148 Zn145 2.028 . S
O149 C141 1.258 . S
O149 Zn143 2.035 . S
O150 Zn143 2.028 . S
O150 C153 1.247 . S
O151 Zn145 2.035 . S
O151 C153 1.258 . S
C152 O146 1.247 . S
C152 O147 1.258 . S
C153 O150 1.247 . S
C153 O151 1.258 . S
C154 O156 1.247 . S
C154 O158 1.258 . S
C155 O162 1.247 . S
C155 O163 1.258 . S
O156 C154 1.247 . S
O156 Zn157 2.028 1_554 S
Zn157 O156 2.028 1_556 S
Zn157 O161 2.035 1_556 S
Zn157 O163 2.035 . S
Zn157 O164 2.028 . S
O158 C154 1.258 . S
O158 Zn159 2.035 . S
Zn159 O158 2.035 . S
Zn159 O160 2.028 . S
Zn159 O162 2.028 1_554 S
Zn159 O165 2.035 1_554 S
O160 Zn159 2.028 . S
O160 C166 1.247 . S
O161 Zn157 2.035 1_554 S
O161 C166 1.258 . S
O162 C155 1.247 . S
O162 Zn159 2.028 1_556 S
O163 C155 1.258 . S
O163 Zn157 2.035 . S
O164 Zn157 2.028 . S
O164 C167 1.247 . S
O165 Zn159 2.035 1_556 S
O165 C167 1.258 . S
C166 O160 1.247 . S
C166 O161 1.258 . S
C167 O164 1.247 . S
C167 O165 1.258 . S
C168 O170 1.247 . S
C168 O172 1.258 . S
C169 O176 1.247 . S
C169 O177 1.258 . S
O170 C168 1.247 . S
O170 Zn171 2.028 . S
Zn171 O170 2.028 . S
Zn171 O175 2.035 . S
Zn171 O177 2.035 . S
Zn171 O178 2.028 . S
O172 C168 1.258 . S
O172 Zn173 2.035 . S
Zn173 O172 2.035 . S
Zn173 O174 2.028 . S
Zn173 O176 2.028 . S
Zn173 O179 2.035 . S
O174 Zn173 2.028 . S
O174 C180 1.247 . S
O175 Zn171 2.035 . S
O175 C180 1.258 . S
O176 C169 1.247 . S
O176 Zn173 2.028 . S
O177 C169 1.258 . S
O177 Zn171 2.035 . S
O178 Zn171 2.028 . S
O178 C181 1.247 . S
O179 Zn173 2.035 . S
O179 C181 1.258 . S
C180 O174 1.247 . S
C180 O175 1.258 . S
C181 O178 1.247 . S
C181 O179 1.258 . S
C182 O184 1.247 . S
C182 O186 1.258 . S
C183 O190 1.247 . S
C183 O191 1.258 . S
O184 C182 1.247 . S
O184 Zn185 2.028 . S
Zn185 O184 2.028 . S
Zn185 O189 2.035 . S
Zn185 O191 2.035 1_554 S
Zn185 O192 2.028 1_554 S
O186 C182 1.258 . S
O186 Zn187 2.035 1_554 S
Zn187 O186 2.035 1_556 S
Zn187 O188 2.028 1_556 S
Zn187 O190 2.028 . S
Zn187 O193 2.035 . S
O188 Zn187 2.028 1_554 S
O188 C194 1.247 . S
O189 Zn185 2.035 . S
O189 C194 1.258 . S
O190 C183 1.247 . S
O190 Zn187 2.028 . S
O191 C183 1.258 . S
O191 Zn185 2.035 1_556 S
O192 Zn185 2.028 1_556 S
O192 C195 1.247 . S
O193 Zn187 2.035 . S
O193 C195 1.258 . S
C194 O188 1.247 . S
C194 O189 1.258 . S
C195 O192 1.247 . S
C195 O193 1.258 . S
C196 O198 1.247 . S
C196 O200 1.258 . S
C197 O204 1.247 . S
C197 O205 1.258 . S
O198 C196 1.247 . S
O198 Zn199 2.028 . S
Zn199 O198 2.028 . S
Zn199 O203 2.035 . S
Zn199 O205 2.035 . S
Zn199 O206 2.028 . S
O200 C196 1.258 . S
O200 Zn201 2.035 . S
Zn201 O200 2.035 . S
Zn201 O202 2.028 . S
Zn201 O204 2.028 . S
Zn201 O207 2.035 . S
O202 Zn201 2.028 . S
O202 C208 1.247 . S
O203 Zn199 2.035 . S
O203 C208 1.258 . S
O204 C197 1.247 . S
O204 Zn201 2.028 . S
O205 C197 1.258 . S
O205 Zn199 2.035 . S
O206 Zn199 2.028 . S
O206 C209 1.247 . S
O207 Zn201 2.035 . S
O207 C209 1.258 . S
C208 O202 1.247 . S
C208 O203 1.258 . S
C209 O206 1.247 . S
C209 O207 1.258 . S
C210 O212 1.247 . S
C210 O214 1.258 . S
C211 O218 1.247 . S
C211 O219 1.258 . S
O212 C210 1.247 . S
O212 Zn213 2.028 1_556 S
Zn213 O212 2.028 1_554 S
Zn213 O217 2.035 1_554 S
Zn213 O219 2.035 . S
Zn213 O220 2.028 . S
O214 C210 1.258 . S
O214 Zn215 2.035 . S
Zn215 O214 2.035 . S
Zn215 O216 2.028 . S
Zn215 O218 2.028 1_556 S
Zn215 O221 2.035 1_556 S
O216 Zn215 2.028 . S
O216 C222 1.247 . S
O217 Zn213 2.035 1_556 S
O217 C222 1.258 . S
O218 C211 1.247 . S
O218 Zn215 2.028 1_554 S
O219 C211 1.258 . S
O219 Zn213 2.035 . S
O220 Zn213 2.028 . S
O220 C223 1.247 . S
O221 Zn215 2.035 1_554 S
O221 C223 1.258 . S
C222 O216 1.247 . S
C222 O217 1.258 . S
C223 O220 1.247 . S
C223 O221 1.258 . S
C224 O226 1.247 . S
C224 O228 1.258 . S
C225 O232 1.247 . S
C225 O233 1.258 . S
O226 C224 1.247 . S
O226 Zn227 2.028 . S
Zn227 O226 2.028 . S
Zn227 O231 2.035 . S
Zn227 O233 2.035 . S
Zn227 O234 2.028 . S
O228 C224 1.258 . S
O228 Zn229 2.035 . S
Zn229 O228 2.035 . S
Zn229 O230 2.028 . S
Zn229 O232 2.028 . S
Zn229 O235 2.035 . S
O230 Zn229 2.028 . S
O230 C236 1.247 . S
O231 Zn227 2.035 . S
O231 C236 1.258 . S
O232 C225 1.247 . S
O232 Zn229 2.028 . S
O233 C225 1.258 . S
O233 Zn227 2.035 . S
O234 Zn227 2.028 . S
O234 C237 1.247 . S
O235 Zn229 2.035 . S
O235 C237 1.258 . S
C236 O230 1.247 . S
C236 O231 1.258 . S
C237 O234 1.247 . S
C237 O235 1.258 . S
C238 O240 1.247 . S
C238 O242 1.258 . S
C239 O246 1.247 . S
C239 O247 1.258 . S
O240 C238 1.247 . S
O240 Zn241 2.028 . S
Zn241 O240 2.028 . S
Zn241 O245 2.035 . S
Zn241 O247 2.035 . S
Zn241 O248 2.028 . S
O242 C238 1.258 . S
O242 Zn243 2.035 . S
Zn243 O242 2.035 . S
Zn243 O244 2.028 . S
Zn243 O246 2.028 . S
Zn243 O249 2.035 . S
O244 Zn243 2.028 . S
O244 C250 1.247 . S
O245 Zn241 2.035 . S
O245 C250 1.258 . S
O246 C239 1.247 . S
O246 Zn243 2.028 . S
O247 C239 1.258 . S
O247 Zn241 2.035 . S
O248 Zn241 2.028 . S
O248 C251 1.247 . S
O249 Zn243 2.035 . S
O249 C251 1.258 . S
C250 O244 1.247 . S
C250 O245 1.258 . S
C251 O248 1.247 . S
C251 O249 1.258 . S
C252 O254 1.247 . S
C252 O256 1.258 . S
C253 O260 1.247 . S
C253 O261 1.258 . S
O254 C252 1.247 . S
O254 Zn255 2.028 . S
Zn255 O254 2.028 . S
Zn255 O259 2.035 . S
Zn255 O261 2.035 . S
Zn255 O262 2.028 . S
O256 C252 1.258 . S
O256 Zn257 2.035 . S
Zn257 O256 2.035 . S
Zn257 O258 2.028 . S
Zn257 O260 2.028 . S
Zn257 O263 2.035 . S
O258 Zn257 2.028 . S
O258 C264 1.247 . S
O259 Zn255 2.035 . S
O259 C264 1.258 . S
O260 C253 1.247 . S
O260 Zn257 2.028 . S
O261 C253 1.258 . S
O261 Zn255 2.035 . S
O262 Zn255 2.028 . S
O262 C265 1.247 . S
O263 Zn257 2.035 . S
O263 C265 1.258 . S
C264 O258 1.247 . S
C264 O259 1.258 . S
C265 O262 1.247 . S
C265 O263 1.258 . S
C266 O268 1.247 . S
C266 O270 1.258 . S
C267 O274 1.247 . S
C267 O275 1.258 . S
O268 C266 1.247 . S
O268 Zn269 2.028 . S
Zn269 O268 2.028 . S
Zn269 O273 2.035 . S
Zn269 O275 2.035 . S
Zn269 O276 2.028 . S
O270 C266 1.258 . S
O270 Zn271 2.035 . S
Zn271 O270 2.035 . S
Zn271 O272 2.028 . S
Zn271 O274 2.028 . S
Zn271 O277 2.035 . S
O272 Zn271 2.028 . S
O272 C278 1.247 . S
O273 Zn269 2.035 . S
O273 C278 1.258 . S
O274 C267 1.247 . S
O274 Zn271 2.028 . S
O275 C267 1.258 . S
O275 Zn269 2.035 . S
O276 Zn269 2.028 . S
O276 C279 1.247 . S
O277 Zn271 2.035 . S
O277 C279 1.258 . S
C278 O272 1.247 . S
C278 O273 1.258 . S
C279 O276 1.247 . S
C279 O277 1.258 . S
C280 O282 1.247 . S
C280 O284 1.258 . S
C281 O288 1.247 . S
C281 O289 1.258 . S
O282 C280 1.247 . S
O282 Zn283 2.028 . S
Zn283 O282 2.028 . S
Zn283 O287 2.035 . S
Zn283 O289 2.035 . S
Zn283 O290 2.028 . S
O284 C280 1.258 . S
O284 Zn285 2.035 . S
Zn285 O284 2.035 . S
Zn285 O286 2.028 . S
Zn285 O288 2.028 . S
Zn285 O291 2.035 . S
O286 Zn285 2.028 . S
O286 C292 1.247 . S
O287 Zn283 2.035 . S
O287 C292 1.258 . S
O288 C281 1.247 . S
O288 Zn285 2.028 . S
O289 C281 1.258 . S
O289 Zn283 2.035 . S
O290 Zn283 2.028 . S
O290 C293 1.247 . S
O291 Zn285 2.035 . S
O291 C293 1.258 . S
C292 O286 1.247 . S
C292 O287 1.258 . S
C293 O290 1.247 . S
C293 O291 1.258 . S
C294 O296 1.247 . S
C294 O298 1.258 . S
C295 O302 1.247 . S
C295 O303 1.258 . S
O296 C294 1.247 . S
O296 Zn297 2.028 . S
Zn297 O296 2.028 . S
Zn297 O301 2.035 . S
Zn297 O303 2.035 . S
Zn297 O304 2.028 . S
O298 C294 1.258 . S
O298 Zn299 2.035 . S
Zn299 O298 2.035 . S
Zn299 O300 2.028 . S
Zn299 O302 2.028 . S
Zn299 O305 2.035 . S
O300 Zn299 2.028 . S
O300 C306 1.247 . S
O301 Zn297 2.035 . S
O301 C306 1.258 . S
O302 C295 1.247 . S
O302 Zn299 2.028 . S
O303 C295 1.258 . S
O303 Zn297 2.035 . S
O304 Zn297 2.028 . S
O304 C307 1.247 . S
O305 Zn299 2.035 . S
O305 C307 1.258 . S
C306 O300 1.247 . S
C306 O301 1.258 . S
C307 O304 1.247 . S
C307 O305 1.258 . S
C308 O310 1.247 . S
C308 O312 1.258 . S
C309 O316 1.247 . S
C309 O317 1.258 . S
O310 C308 1.247 . S
O310 Zn311 2.028 . S
Zn311 O310 2.028 . S
Zn311 O315 2.035 . S
Zn311 O317 2.035 . S
Zn311 O318 2.028 . S
O312 C308 1.258 . S
O312 Zn313 2.035 . S
Zn313 O312 2.035 . S
Zn313 O314 2.028 . S
Zn313 O316 2.028 . S
Zn313 O319 2.035 . S
O314 Zn313 2.028 . S
O314 C320 1.247 . S
O315 Zn311 2.035 . S
O315 C320 1.258 . S
O316 C309 1.247 . S
O316 Zn313 2.028 . S
O317 C309 1.258 . S
O317 Zn311 2.035 . S
O318 Zn311 2.028 . S
O318 C321 1.247 . S
O319 Zn313 2.035 . S
O319 C321 1.258 . S
C320 O314 1.247 . S
C320 O315 1.258 . S
C321 O318 1.247 . S
C321 O319 1.258 . S
C322 O324 1.247 . S
C322 O326 1.258 . S
C323 O330 1.247 . S
C323 O331 1.258 . S
O324 C322 1.247 . S
O324 Zn325 2.028 . S
Zn325 O324 2.028 . S
Zn325 O329 2.035 . S
Zn325 O331 2.035 1_545 S
Zn325 O332 2.028 1_545 S
O326 C322 1.258 . S
O326 Zn327 2.035 1_545 S
Zn327 O326 2.035 1_565 S
Zn327 O328 2.028 1_565 S
Zn327 O330 2.028 . S
Zn327 O333 2.035 . S
O328 Zn327 2.028 1_545 S
O328 C334 1.247 . S
O329 Zn325 2.035 . S
O329 C334 1.258 . S
O330 C323 1.247 . S
O330 Zn327 2.028 . S
O331 C323 1.258 . S
O331 Zn325 2.035 1_565 S
O332 Zn325 2.028 1_565 S
O332 C335 1.247 . S
O333 Zn327 2.035 . S
O333 C335 1.258 . S
C334 O328 1.247 . S
C334 O329 1.258 . S
C335 O332 1.247 . S
C335 O333 1.258 . S
C336 O338 1.247 . S
C336 O340 1.258 . S
C337 O344 1.247 . S
C337 O345 1.258 . S
O338 C336 1.247 . S
O338 Zn339 2.028 . S
Zn339 O338 2.028 . S
Zn339 O343 2.035 . S
Zn339 O345 2.035 . S
Zn339 O346 2.028 . S
O340 C336 1.258 . S
O340 Zn341 2.035 . S
Zn341 O340 2.035 . S
Zn341 O342 2.028 . S
Zn341 O344 2.028 . S
Zn341 O347 2.035 . S
O342 Zn341 2.028 . S
O342 C348 1.247 . S
O343 Zn339 2.035 . S
O343 C348 1.258 . S
O344 C337 1.247 . S
O344 Zn341 2.028 . S
O345 C337 1.258 . S
O345 Zn339 2.035 . S
O346 Zn339 2.028 . S
O346 C349 1.247 . S
O347 Zn341 2.035 . S
O347 C349 1.258 . S
C348 O342 1.247 . S
C348 O343 1.258 . S
C349 O346 1.247 . S
C349 O347 1.258 . S
C350 O352 1.247 . S
C350 O354 1.258 . S
C351 O358 1.247 . S
C351 O359 1.258 . S
O352 C350 1.247 . S
O352 Zn353 2.028 1_655 S
Zn353 O352 2.028 1_455 S
Zn353 O357 2.035 1_455 S
Zn353 O359 2.035 . S
Zn353 O360 2.028 . S
O354 C350 1.258 . S
O354 Zn355 2.035 . S
Zn355 O354 2.035 . S
Zn355 O356 2.028 . S
Zn355 O358 2.028 1_655 S
Zn355 O361 2.035 1_655 S
O356 Zn355 2.028 . S
O356 C362 1.247 . S
O357 Zn353 2.035 1_655 S
O357 C362 1.258 . S
O358 C351 1.247 . S
O358 Zn355 2.028 1_455 S
O359 C351 1.258 . S
O359 Zn353 2.035 . S
O360 Zn353 2.028 . S
O360 C363 1.247 . S
O361 Zn355 2.035 1_455 S
O361 C363 1.258 . S
C362 O356 1.247 . S
C362 O357 1.258 . S
C363 O360 1.247 . S
C363 O361 1.258 . S
C364 O366 1.247 . S
C364 O368 1.258 . S
C365 O372 1.247 . S
C365 O373 1.258 . S
O366 C364 1.247 . S
O366 Zn367 2.028 . S
Zn367 O366 2.028 . S
Zn367 O371 2.035 . S
Zn367 O373 2.035 . S
Zn367 O374 2.028 . S
O368 C364 1.258 . S
O368 Zn369 2.035 . S
Zn369 O368 2.035 . S
Zn369 O370 2.028 . S
Zn369 O372 2.028 . S
Zn369 O375 2.035 . S
O370 Zn369 2.028 . S
O370 C376 1.247 . S
O371 Zn367 2.035 . S
O371 C376 1.258 . S
O372 C365 1.247 . S
O372 Zn369 2.028 . S
O373 C365 1.258 . S
O373 Zn367 2.035 . S
O374 Zn367 2.028 . S
O374 C377 1.247 . S
O375 Zn369 2.035 . S
O375 C377 1.258 . S
C376 O370 1.247 . S
C376 O371 1.258 . S
C377 O374 1.247 . S
C377 O375 1.258 . S
C378 O380 1.247 . S
C378 O382 1.258 . S
C379 O386 1.247 . S
C379 O387 1.258 . S
O380 C378 1.247 . S
O380 Zn381 2.028 1_455 S
Zn381 O380 2.028 1_655 S
Zn381 O385 2.035 1_655 S
Zn381 O387 2.035 . S
Zn381 O388 2.028 . S
O382 C378 1.258 . S
O382 Zn383 2.035 . S
Zn383 O382 2.035 . S
Zn383 O384 2.028 . S
Zn383 O386 2.028 1_455 S
Zn383 O389 2.035 1_455 S
O384 Zn383 2.028 . S
O384 C390 1.247 . S
O385 Zn381 2.035 1_455 S
O385 C390 1.258 . S
O386 C379 1.247 . S
O386 Zn383 2.028 1_655 S
O387 C379 1.258 . S
O387 Zn381 2.035 . S
O388 Zn381 2.028 . S
O388 C391 1.247 . S
O389 Zn383 2.035 1_655 S
O389 C391 1.258 . S
C390 O384 1.247 . S
C390 O385 1.258 . S
C391 O388 1.247 . S
C391 O389 1.258 . S
C392 O394 1.247 . S
C392 O396 1.258 . S
C393 O400 1.247 . S
C393 O401 1.258 . S
O394 C392 1.247 . S
O394 Zn395 2.028 . S
Zn395 O394 2.028 . S
Zn395 O399 2.035 . S
Zn395 O401 2.035 . S
Zn395 O402 2.028 . S
O396 C392 1.258 . S
O396 Zn397 2.035 . S
Zn397 O396 2.035 . S
Zn397 O398 2.028 . S
Zn397 O400 2.028 . S
Zn397 O403 2.035 . S
O398 Zn397 2.028 . S
O398 C404 1.247 . S
O399 Zn395 2.035 . S
O399 C404 1.258 . S
O400 C393 1.247 . S
O400 Zn397 2.028 . S
O401 C393 1.258 . S
O401 Zn395 2.035 . S
O402 Zn395 2.028 . S
O402 C405 1.247 . S
O403 Zn397 2.035 . S
O403 C405 1.258 . S
C404 O398 1.247 . S
C404 O399 1.258 . S
C405 O402 1.247 . S
C405 O403 1.258 . S
C406 O408 1.247 . S
C406 O410 1.258 . S
C407 O414 1.247 . S
C407 O415 1.258 . S
O408 C406 1.247 . S
O408 Zn409 2.028 . S
Zn409 O408 2.028 . S
Zn409 O413 2.035 . S
Zn409 O415 2.035 . S
Zn409 O416 2.028 . S
O410 C406 1.258 . S
O410 Zn411 2.035 . S
Zn411 O410 2.035 . S
Zn411 O412 2.028 . S
Zn411 O414 2.028 . S
Zn411 O417 2.035 . S
O412 Zn411 2.028 . S
O412 C418 1.247 . S
O413 Zn409 2.035 . S
O413 C418 1.258 . S
O414 C407 1.247 . S
O414 Zn411 2.028 . S
O415 C407 1.258 . S
O415 Zn409 2.035 . S
O416 Zn409 2.028 . S
O416 C419 1.247 . S
O417 Zn411 2.035 . S
O417 C419 1.258 . S
C418 O412 1.247 . S
C418 O413 1.258 . S
C419 O416 1.247 . S
C419 O417 1.258 . S
C420 O422 1.247 . S
C420 O424 1.258 . S
C421 O428 1.247 . S
C421 O429 1.258 . S
O422 C420 1.247 . S
O422 Zn423 2.028 . S
Zn423 O422 2.028 . S
Zn423 O427 2.035 . S
Zn423 O429 2.035 . S
Zn423 O430 2.028 . S
O424 C420 1.258 . S
O424 Zn425 2.035 . S
Zn425 O424 2.035 . S
Zn425 O426 2.028 . S
Zn425 O428 2.028 . S
Zn425 O431 2.035 . S
O426 Zn425 2.028 . S
O426 C432 1.247 . S
O427 Zn423 2.035 . S
O427 C432 1.258 . S
O428 C421 1.247 . S
O428 Zn425 2.028 . S
O429 C421 1.258 . S
O429 Zn423 2.035 . S
O430 Zn423 2.028 . S
O430 C433 1.247 . S
O431 Zn425 2.035 . S
O431 C433 1.258 . S
C432 O426 1.247 . S
C432 O427 1.258 . S
C433 O430 1.247 . S
C433 O431 1.258 . S
C434 O436 1.247 . S
C434 O438 1.258 . S
C435 O442 1.247 . S
C435 O443 1.258 . S
O436 C434 1.247 . S
O436 Zn437 2.028 . S
Zn437 O436 2.028 . S
Zn437 O441 2.035 . S
Zn437 O443 2.035 . S
Zn437 O444 2.028 . S
O438 C434 1.258 . S
O438 Zn439 2.035 . S
Zn439 O438 2.035 . S
Zn439 O440 2.028 . S
Zn439 O442 2.028 . S
Zn439 O445 2.035 . S
O440 Zn439 2.028 . S
O440 C446 1.247 . S
O441 Zn437 2.035 . S
O441 C446 1.258 . S
O442 C435 1.247 . S
O442 Zn439 2.028 . S
O443 C435 1.258 . S
O443 Zn437 2.035 . S
O444 Zn437 2.028 . S
O444 C447 1.247 . S
O445 Zn439 2.035 . S
O445 C447 1.258 . S
C446 O440 1.247 . S
C446 O441 1.258 . S
C447 O444 1.247 . S
C447 O445 1.258 . S
C448 O450 1.247 . S
C448 O452 1.258 . S
C449 O456 1.247 . S
C449 O457 1.258 . S
O450 C448 1.247 . S
O450 Zn451 2.028 . S
Zn451 O450 2.028 . S
Zn451 O455 2.035 . S
Zn451 O457 2.035 . S
Zn451 O458 2.028 . S
O452 C448 1.258 . S
O452 Zn453 2.035 . S
Zn453 O452 2.035 . S
Zn453 O454 2.028 . S
Zn453 O456 2.028 . S
Zn453 O459 2.035 . S
O454 Zn453 2.028 . S
O454 C460 1.247 . S
O455 Zn451 2.035 . S
O455 C460 1.258 . S
O456 C449 1.247 . S
O456 Zn453 2.028 . S
O457 C449 1.258 . S
O457 Zn451 2.035 . S
O458 Zn451 2.028 . S
O458 C461 1.247 . S
O459 Zn453 2.035 . S
O459 C461 1.258 . S
C460 O454 1.247 . S
C460 O455 1.258 . S
C461 O458 1.247 . S
C461 O459 1.258 . S
C462 O464 1.247 . S
C462 O466 1.258 . S
C463 O470 1.247 . S
C463 O471 1.258 . S
O464 C462 1.247 . S
O464 Zn465 2.028 . S
Zn465 O464 2.028 . S
Zn465 O469 2.035 . S
Zn465 O471 2.035 . S
Zn465 O472 2.028 . S
O466 C462 1.258 . S
O466 Zn467 2.035 . S
Zn467 O466 2.035 . S
Zn467 O468 2.028 . S
Zn467 O470 2.028 . S
Zn467 O473 2.035 . S
O468 Zn467 2.028 . S
O468 C474 1.247 . S
O469 Zn465 2.035 . S
O469 C474 1.258 . S
O470 C463 1.247 . S
O470 Zn467 2.028 . S
O471 C463 1.258 . S
O471 Zn465 2.035 . S
O472 Zn465 2.028 . S
O472 C475 1.247 . S
O473 Zn467 2.035 . S
O473 C475 1.258 . S
C474 O468 1.247 . S
C474 O469 1.258 . S
C475 O472 1.247 . S
C475 O473 1.258 . S
C476 O478 1.247 . S
C476 O480 1.258 . S
C477 O484 1.247 . S
C477 O485 1.258 . S
O478 C476 1.247 . S
O478 Zn479 2.028 . S
Zn479 O478 2.028 . S
Zn479 O483 2.035 . S
Zn479 O485 2.035 . S
Zn479 O486 2.028 . S
O480 C476 1.258 . S
O480 Zn481 2.035 . S
Zn481 O480 2.035 . S
Zn481 O482 2.028 . S
Zn481 O484 2.028 . S
Zn481 O487 2.035 . S
O482 Zn481 2.028 . S
O482 C488 1.247 . S
O483 Zn479 2.035 . S
O483 C488 1.258 . S
O484 C477 1.247 . S
O484 Zn481 2.028 . S
O485 C477 1.258 . S
O485 Zn479 2.035 . S
O486 Zn479 2.028 . S
O486 C489 1.247 . S
O487 Zn481 2.035 . S
O487 C489 1.258 . S
C488 O482 1.247 . S
C488 O483 1.258 . S
C489 O486 1.247 . S
C489 O487 1.258 . S
C490 O492 1.247 . S
C490 O494 1.258 . S
C491 O498 1.247 . S
C491 O499 1.258 . S
O492 C490 1.247 . S
O492 Zn493 2.028 . S
Zn493 O492 2.028 . S
Zn493 O497 2.035 . S
Zn493 O499 2.035 . S
Zn493 O500 2.028 . S
O494 C490 1.258 . S
O494 Zn495 2.035 . S
Zn495 O494 2.035 . S
Zn495 O496 2.028 . S
Zn495 O498 2.028 . S
Zn495 O501 2.035 . S
O496 Zn495 2.028 . S
O496 C502 1.247 . S
O497 Zn493 2.035 . S
O497 C502 1.258 . S
O498 C491 1.247 . S
O498 Zn495 2.028 . S
O499 C491 1.258 . S
O499 Zn493 2.035 . S
O500 Zn493 2.028 . S
O500 C503 1.247 . S
O501 Zn495 2.035 . S
O501 C503 1.258 . S
C502 O496 1.247 . S
C502 O497 1.258 . S
C503 O500 1.247 . S
C503 O501 1.258 . S
C504 O506 1.247 . S
C504 O508 1.258 . S
C505 O512 1.247 . S
C505 O513 1.258 . S
O506 C504 1.247 . S
O506 Zn507 2.028 . S
Zn507 O506 2.028 . S
Zn507 O511 2.035 . S
Zn507 O513 2.035 . S
Zn507 O514 2.028 . S
O508 C504 1.258 . S
O508 Zn509 2.035 . S
Zn509 O508 2.035 . S
Zn509 O510 2.028 . S
Zn509 O512 2.028 . S
Zn509 O515 2.035 . S
O510 Zn509 2.028 . S
O510 C516 1.247 . S
O511 Zn507 2.035 . S
O511 C516 1.258 . S
O512 C505 1.247 . S
O512 Zn509 2.028 . S
O513 C505 1.258 . S
O513 Zn507 2.035 . S
O514 Zn507 2.028 . S
O514 C517 1.247 . S
O515 Zn509 2.035 . S
O515 C517 1.258 . S
C516 O510 1.247 . S
C516 O511 1.258 . S
C517 O514 1.247 . S
C517 O515 1.258 . S
C518 O520 1.247 . S
C518 O522 1.258 . S
C519 O526 1.247 . S
C519 O527 1.258 . S
O520 C518 1.247 . S
O520 Zn521 2.028 . S
Zn521 O520 2.028 . S
Zn521 O525 2.035 . S
Zn521 O527 2.035 . S
Zn521 O528 2.028 . S
O522 C518 1.258 . S
O522 Zn523 2.035 . S
Zn523 O522 2.035 . S
Zn523 O524 2.028 . S
Zn523 O526 2.028 . S
Zn523 O529 2.035 . S
O524 Zn523 2.028 . S
O524 C530 1.247 . S
O525 Zn521 2.035 . S
O525 C530 1.258 . S
O526 C519 1.247 . S
O526 Zn523 2.028 . S
O527 C519 1.258 . S
O527 Zn521 2.035 . S
O528 Zn521 2.028 . S
O528 C531 1.247 . S
O529 Zn523 2.035 . S
O529 C531 1.258 . S
C530 O524 1.247 . S
C530 O525 1.258 . S
C531 O528 1.247 . S
C531 O529 1.258 . S
C532 O534 1.247 . S
C532 O536 1.258 . S
C533 O540 1.247 . S
C533 O541 1.258 . S
O534 C532 1.247 . S
O534 Zn535 2.028 . S
Zn535 O534 2.028 . S
Zn535 O539 2.035 . S
Zn535 O541 2.035 . S
Zn535 O542 2.028 . S
O536 C532 1.258 . S
O536 Zn537 2.035 . S
Zn537 O536 2.035 . S
Zn537 O538 2.028 . S
Zn537 O540 2.028 . S
Zn537 O543 2.035 . S
O538 Zn537 2.028 . S
O538 C544 1.247 . S
O539 Zn535 2.035 . S
O539 C544 1.258 . S
O540 C533 1.247 . S
O540 Zn537 2.028 . S
O541 C533 1.258 . S
O541 Zn535 2.035 . S
O542 Zn535 2.028 . S
O542 C545 1.247 . S
O543 Zn537 2.035 . S
O543 C545 1.258 . S
C544 O538 1.247 . S
C544 O539 1.258 . S
C545 O542 1.247 . S
C545 O543 1.258 . S
C546 O548 1.247 . S
C546 O550 1.258 . S
C547 O554 1.247 . S
C547 O555 1.258 . S
O548 C546 1.247 . S
O548 Zn549 2.028 . S
Zn549 O548 2.028 . S
Zn549 O553 2.035 . S
Zn549 O555 2.035 . S
Zn549 O556 2.028 . S
O550 C546 1.258 . S
O550 Zn551 2.035 . S
Zn551 O550 2.035 . S
Zn551 O552 2.028 . S
Zn551 O554 2.028 . S
Zn551 O557 2.035 . S
O552 Zn551 2.028 . S
O552 C558 1.247 . S
O553 Zn549 2.035 . S
O553 C558 1.258 . S
O554 C547 1.247 . S
O554 Zn551 2.028 . S
O555 C547 1.258 . S
O555 Zn549 2.035 . S
O556 Zn549 2.028 . S
O556 C559 1.247 . S
O557 Zn551 2.035 . S
O557 C559 1.258 . S
C558 O552 1.247 . S
C558 O553 1.258 . S
C559 O556 1.247 . S
C559 O557 1.258 . S
C560 O562 1.247 . S
C560 O564 1.258 . S
C561 O568 1.247 . S
C561 O569 1.258 . S
O562 C560 1.247 . S
O562 Zn563 2.028 . S
Zn563 O562 2.028 . S
Zn563 O567 2.035 . S
Zn563 O569 2.035 . S
Zn563 O570 2.028 . S
O564 C560 1.258 . S
O564 Zn565 2.035 . S
Zn565 O564 2.035 . S
Zn565 O566 2.028 . S
Zn565 O568 2.028 . S
Zn565 O571 2.035 . S
O566 Zn565 2.028 . S
O566 C572 1.247 . S
O567 Zn563 2.035 . S
O567 C572 1.258 . S
O568 C561 1.247 . S
O568 Zn565 2.028 . S
O569 C561 1.258 . S
O569 Zn563 2.035 . S
O570 Zn563 2.028 . S
O570 C573 1.247 . S
O571 Zn565 2.035 . S
O571 C573 1.258 . S
C572 O566 1.247 . S
C572 O567 1.258 . S
C573 O570 1.247 . S
C573 O571 1.258 . S
C574 O576 1.247 . S
C574 O578 1.258 . S
C575 O582 1.247 . S
C575 O583 1.258 . S
O576 C574 1.247 . S
O576 Zn577 2.028 . S
Zn577 O576 2.028 . S
Zn577 O581 2.035 . S
Zn577 O583 2.035 . S
Zn577 O584 2.028 . S
O578 C574 1.258 . S
O578 Zn579 2.035 . S
Zn579 O578 2.035 . S
Zn579 O580 2.028 . S
Zn579 O582 2.028 . S
Zn579 O585 2.035 . S
O580 Zn579 2.028 . S
O580 C586 1.247 . S
O581 Zn577 2.035 . S
O581 C586 1.258 . S
O582 C575 1.247 . S
O582 Zn579 2.028 . S
O583 C575 1.258 . S
O583 Zn577 2.035 . S
O584 Zn577 2.028 . S
O584 C587 1.247 . S
O585 Zn579 2.035 . S
O585 C587 1.258 . S
C586 O580 1.247 . S
C586 O581 1.258 . S
C587 O584 1.247 . S
C587 O585 1.258 . S
C588 O590 1.247 . S
C588 O592 1.258 . S
C589 O596 1.247 . S
C589 O597 1.258 . S
O590 C588 1.247 . S
O590 Zn591 2.028 . S
Zn591 O590 2.028 . S
Zn591 O595 2.035 . S
Zn591 O597 2.035 1_565 S
Zn591 O598 2.028 1_565 S
O592 C588 1.258 . S
O592 Zn593 2.035 1_565 S
Zn593 O592 2.035 1_545 S
Zn593 O594 2.028 1_545 S
Zn593 O596 2.028 . S
Zn593 O599 2.035 . S
O594 Zn593 2.028 1_565 S
O594 C600 1.247 . S
O595 Zn591 2.035 . S
O595 C600 1.258 . S
O596 C589 1.247 . S
O596 Zn593 2.028 . S
O597 C589 1.258 . S
O597 Zn591 2.035 1_545 S
O598 Zn591 2.028 1_545 S
O598 C601 1.247 . S
O599 Zn593 2.035 . S
O599 C601 1.258 . S
C600 O594 1.247 . S
C600 O595 1.258 . S
C601 O598 1.247 . S
C601 O599 1.258 . S
C602 O604 1.247 . S
C602 O606 1.258 . S
C603 O610 1.247 . S
C603 O611 1.258 . S
O604 C602 1.247 . S
O604 Zn605 2.028 . S
Zn605 O604 2.028 . S
Zn605 O609 2.035 . S
Zn605 O611 2.035 . S
Zn605 O612 2.028 . S
O606 C602 1.258 . S
O606 Zn607 2.035 . S
Zn607 O606 2.035 . S
Zn607 O608 2.028 . S
Zn607 O610 2.028 . S
Zn607 O613 2.035 . S
O608 Zn607 2.028 . S
O608 C614 1.247 . S
O609 Zn605 2.035 . S
O609 C614 1.258 . S
O610 C603 1.247 . S
O610 Zn607 2.028 . S
O611 C603 1.258 . S
O611 Zn605 2.035 . S
O612 Zn605 2.028 . S
O612 C615 1.247 . S
O613 Zn607 2.035 . S
O613 C615 1.258 . S
C614 O608 1.247 . S
C614 O609 1.258 . S
C615 O612 1.247 . S
C615 O613 1.258 . S
C616 O618 1.247 . S
C616 O620 1.258 . S
C617 O624 1.247 . S
C617 O625 1.258 . S
O618 C616 1.247 . S
O618 Zn619 2.028 . S
Zn619 O618 2.028 . S
Zn619 O623 2.035 . S
Zn619 O625 2.035 1_545 S
Zn619 O626 2.028 1_545 S
O620 C616 1.258 . S
O620 Zn621 2.035 1_545 S
Zn621 O620 2.035 1_565 S
Zn621 O622 2.028 1_565 S
Zn621 O624 2.028 . S
Zn621 O627 2.035 . S
O622 Zn621 2.028 1_545 S
O622 C628 1.247 . S
O623 Zn619 2.035 . S
O623 C628 1.258 . S
O624 C617 1.247 . S
O624 Zn621 2.028 . S
O625 C617 1.258 . S
O625 Zn619 2.035 1_565 S
O626 Zn619 2.028 1_565 S
O626 C629 1.247 . S
O627 Zn621 2.035 . S
O627 C629 1.258 . S
C628 O622 1.247 . S
C628 O623 1.258 . S
C629 O626 1.247 . S
C629 O627 1.258 . S
C630 O632 1.247 . S
C630 O634 1.258 . S
C631 O638 1.247 . S
C631 O639 1.258 . S
O632 C630 1.247 . S
O632 Zn633 2.028 . S
Zn633 O632 2.028 . S
Zn633 O637 2.035 . S
Zn633 O639 2.035 . S
Zn633 O640 2.028 . S
O634 C630 1.258 . S
O634 Zn635 2.035 . S
Zn635 O634 2.035 . S
Zn635 O636 2.028 . S
Zn635 O638 2.028 . S
Zn635 O641 2.035 . S
O636 Zn635 2.028 . S
O636 C642 1.247 . S
O637 Zn633 2.035 . S
O637 C642 1.258 . S
O638 C631 1.247 . S
O638 Zn635 2.028 . S
O639 C631 1.258 . S
O639 Zn633 2.035 . S
O640 Zn633 2.028 . S
O640 C643 1.247 . S
O641 Zn635 2.035 . S
O641 C643 1.258 . S
C642 O636 1.247 . S
C642 O637 1.258 . S
C643 O640 1.247 . S
C643 O641 1.258 . S
C644 O646 1.247 . S
C644 O648 1.258 . S
C645 O652 1.247 . S
C645 O653 1.258 . S
O646 C644 1.247 . S
O646 Zn647 2.028 . S
Zn647 O646 2.028 . S
Zn647 O651 2.035 . S
Zn647 O653 2.035 1_565 S
Zn647 O654 2.028 1_565 S
O648 C644 1.258 . S
O648 Zn649 2.035 1_565 S
Zn649 O648 2.035 1_545 S
Zn649 O650 2.028 1_545 S
Zn649 O652 2.028 . S
Zn649 O655 2.035 . S
O650 Zn649 2.028 1_565 S
O650 C656 1.247 . S
O651 Zn647 2.035 . S
O651 C656 1.258 . S
O652 C645 1.247 . S
O652 Zn649 2.028 . S
O653 C645 1.258 . S
O653 Zn647 2.035 1_545 S
O654 Zn647 2.028 1_545 S
O654 C657 1.247 . S
O655 Zn649 2.035 . S
O655 C657 1.258 . S
C656 O650 1.247 . S
C656 O651 1.258 . S
C657 O654 1.247 . S
C657 O655 1.258 . S
C658 O660 1.247 . S
C658 O662 1.258 . S
C659 O666 1.247 . S
C659 O667 1.258 . S
O660 C658 1.247 . S
O660 Zn661 2.028 . S
Zn661 O660 2.028 . S
Zn661 O665 2.035 . S
Zn661 O667 2.035 . S
Zn661 O668 2.028 . S
O662 C658 1.258 . S
O662 Zn663 2.035 . S
Zn663 O662 2.035 . S
Zn663 O664 2.028 . S
Zn663 O666 2.028 . S
Zn663 O669 2.035 . S
O664 Zn663 2.028 . S
O664 C670 1.247 . S
O665 Zn661 2.035 . S
O665 C670 1.258 . S
O666 C659 1.247 . S
O666 Zn663 2.028 . S
O667 C659 1.258 . S
O667 Zn661 2.035 . S
O668 Zn661 2.028 . S
O668 C671 1.247 . S
O669 Zn663 2.035 . S
O669 C671 1.258 . S
C670 O664 1.247 . S
C670 O665 1.258 . S
C671 O668 1.247 . S
C671 O669 1.258 . S
H672 C680 0.929 . S
H673 C682 0.930 . S
H674 C684 0.930 . S
H675 C687 0.929 . S
H676 C690 0.930 . S
H677 C692 0.960 . S
H678 C692 0.960 . S
H679 C692 0.960 . S
C680 H672 0.929 . S
C680 C681 1.377 . S
C680 C682 1.384 . S
C681 C680 1.377 . S
C681 C687 1.390 . S
C682 H673 0.930 . S
C682 C680 1.384 . S
C682 C683 1.372 . S
C683 C682 1.372 . S
C683 C684 1.400 . S
C683 C688 1.490 . S
C684 H674 0.930 . S
C684 C683 1.400 . S
C684 C687 1.386 . S
H685 C701 0.930 . S
H686 C702 0.931 . S
C687 H675 0.929 . S
C687 C681 1.390 . S
C687 C684 1.386 . S
C688 C683 1.490 . S
C688 C690 1.395 . S
C688 C691 1.403 . S
H689 C695 0.930 . S
C690 H676 0.930 . S
C690 C688 1.395 . S
C690 C693 1.403 . S
C691 C688 1.403 . S
C691 C692 1.524 . S
C691 C695 1.400 . S
C692 H677 0.960 . S
C692 H678 0.960 . S
C692 H679 0.960 . S
C692 C691 1.524 . S
C693 C690 1.403 . S
C693 C694 1.392 . S
C693 C697 1.495 . S
C694 C693 1.392 . S
C694 C695 1.385 . S
C694 C696 1.478 . S
C695 H689 0.930 . S
C695 C691 1.400 . S
C695 C694 1.385 . S
C696 C694 1.478 . S
C696 C698 1.381 . S
C696 C702 1.383 . S
C697 C693 1.495 . S
C697 H703 0.959 . S
C697 H704 0.961 . S
C697 H705 0.960 . S
C698 C696 1.381 . S
C698 C699 1.394 . S
C698 H706 0.930 . S
C699 C698 1.394 . S
C699 C700 1.383 . S
C699 H707 0.929 . S
C700 C699 1.383 . S
C700 C701 1.377 . S
C701 H685 0.930 . S
C701 C700 1.377 . S
C701 C702 1.379 . S
C702 H686 0.931 . S
C702 C696 1.383 . S
C702 C701 1.379 . S
H703 C697 0.959 . S
H704 C697 0.961 . S
H705 C697 0.960 . S
H706 C698 0.930 . S
H707 C699 0.929 . S
H708 C716 0.929 . S
H709 C718 0.930 . S
H710 C720 0.930 . S
H711 C723 0.929 . S
H712 C726 0.930 . S
H713 C728 0.960 . S
H714 C728 0.955 1_554 S
H715 C728 0.960 1_554 S
C716 H708 0.929 . S
C716 C717 1.377 . S
C716 C718 1.384 . S
C717 C716 1.377 . S
C717 C723 1.390 . S
C718 H709 0.930 . S
C718 C716 1.384 . S
C718 C719 1.372 . S
C719 C718 1.372 . S
C719 C720 1.400 . S
C719 C724 1.490 . S
C720 H710 0.930 . S
C720 C719 1.400 . S
C720 C723 1.386 . S
H721 C737 0.930 . S
H722 C738 0.931 . S
C723 H711 0.929 . S
C723 C717 1.390 . S
C723 C720 1.386 . S
C724 C719 1.490 . S
C724 C726 1.395 . S
C724 C727 1.403 1_554 S
H725 C731 0.930 . S
C726 H712 0.930 . S
C726 C724 1.395 . S
C726 C729 1.403 1_554 S
C727 C724 1.403 1_556 S
C727 C728 1.524 . S
C727 C731 1.400 . S
C728 H713 0.960 . S
C728 H714 0.955 1_556 S
C728 H715 0.960 1_556 S
C728 C727 1.524 . S
C729 C726 1.403 1_556 S
C729 C730 1.392 . S
C729 C733 1.498 . S
C730 C729 1.392 . S
C730 C731 1.385 . S
C730 C732 1.478 . S
C731 H725 0.930 . S
C731 C727 1.400 . S
C731 C730 1.385 . S
C732 C730 1.478 . S
C732 C734 1.381 . S
C732 C738 1.383 . S
C733 C729 1.498 . S
C733 H739 0.913 1_556 S
C733 H740 0.977 . S
C733 H741 0.990 . S
C734 C732 1.381 . S
C734 C735 1.394 . S
C734 H742 0.930 . S
C735 C734 1.394 . S
C735 C736 1.383 . S
C735 H743 0.929 . S
C736 C735 1.383 . S
C736 C737 1.377 . S
C737 H721 0.930 . S
C737 C736 1.377 . S
C737 C738 1.379 . S
C738 H722 0.931 . S
C738 C732 1.383 . S
C738 C737 1.379 . S
H739 C733 0.913 1_554 S
H740 C733 0.977 . S
H741 C733 0.990 . S
H742 C734 0.930 . S
H743 C735 0.929 . S
H744 C752 0.929 . S
H745 C754 0.930 . S
H746 C756 0.930 . S
H747 C759 0.929 . S
H748 C762 0.930 . S
H749 C764 0.960 . S
H750 C764 0.960 . S
H751 C764 0.960 . S
C752 H744 0.929 . S
C752 C753 1.377 . S
C752 C754 1.384 . S
C753 C752 1.377 . S
C753 C759 1.390 . S
C754 H745 0.930 . S
C754 C752 1.384 . S
C754 C755 1.372 . S
C755 C754 1.372 . S
C755 C756 1.400 . S
C755 C760 1.490 . S
C756 H746 0.930 . S
C756 C755 1.400 . S
C756 C759 1.386 . S
H757 C773 0.930 . S
H758 C774 0.931 . S
C759 H747 0.929 . S
C759 C753 1.390 . S
C759 C756 1.386 . S
C760 C755 1.490 . S
C760 C762 1.395 . S
C760 C763 1.403 . S
H761 C767 0.930 . S
C762 H748 0.930 . S
C762 C760 1.395 . S
C762 C765 1.403 . S
C763 C760 1.403 . S
C763 C764 1.524 . S
C763 C767 1.400 . S
C764 H749 0.960 . S
C764 H750 0.960 . S
C764 H751 0.960 . S
C764 C763 1.524 . S
C765 C762 1.403 . S
C765 C766 1.392 . S
C765 C769 1.495 . S
C766 C765 1.392 . S
C766 C767 1.385 . S
C766 C768 1.478 . S
C767 H761 0.930 . S
C767 C763 1.400 . S
C767 C766 1.385 . S
C768 C766 1.478 . S
C768 C770 1.381 . S
C768 C774 1.383 . S
C769 C765 1.495 . S
C769 H775 0.959 . S
C769 H776 0.961 . S
C769 H777 0.960 . S
C770 C768 1.381 . S
C770 C771 1.394 . S
C770 H778 0.930 . S
C771 C770 1.394 . S
C771 C772 1.383 . S
C771 H779 0.929 . S
C772 C771 1.383 . S
C772 C773 1.377 . S
C773 H757 0.930 . S
C773 C772 1.377 . S
C773 C774 1.379 . S
C774 H758 0.931 . S
C774 C768 1.383 . S
C774 C773 1.379 . S
H775 C769 0.959 . S
H776 C769 0.961 . S
H777 C769 0.960 . S
H778 C770 0.930 . S
H779 C771 0.929 . S
H780 C788 0.929 . S
H781 C790 0.930 . S
H782 C792 0.930 . S
H783 C795 0.929 . S
H784 C798 0.930 . S
H785 C800 0.960 . S
H786 C800 0.960 . S
H787 C800 0.960 . S
C788 H780 0.929 . S
C788 C789 1.377 . S
C788 C790 1.384 . S
C789 C788 1.377 . S
C789 C795 1.390 . S
C790 H781 0.930 . S
C790 C788 1.384 . S
C790 C791 1.372 . S
C791 C790 1.372 . S
C791 C792 1.400 . S
C791 C796 1.490 . S
C792 H782 0.930 . S
C792 C791 1.400 . S
C792 C795 1.386 . S
H793 C809 0.930 . S
H794 C810 0.931 . S
C795 H783 0.929 . S
C795 C789 1.390 . S
C795 C792 1.386 . S
C796 C791 1.490 . S
C796 C798 1.395 . S
C796 C799 1.403 . S
H797 C803 0.930 . S
C798 H784 0.930 . S
C798 C796 1.395 . S
C798 C801 1.403 1_556 S
C799 C796 1.403 . S
C799 C800 1.524 . S
C799 C803 1.400 1_556 S
C800 H785 0.960 . S
C800 H786 0.960 . S
C800 H787 0.960 . S
C800 C799 1.524 . S
C801 C798 1.403 1_554 S
C801 C802 1.392 . S
C801 C805 1.495 . S
C802 C801 1.392 . S
C802 C803 1.385 . S
C802 C804 1.478 . S
C803 H797 0.930 . S
C803 C799 1.400 1_554 S
C803 C802 1.385 . S
C804 C802 1.478 . S
C804 C806 1.381 . S
C804 C810 1.383 . S
C805 C801 1.495 . S
C805 H811 0.959 . S
C805 H812 0.961 . S
C805 H813 0.960 . S
C806 C804 1.381 . S
C806 C807 1.394 . S
C806 H814 0.930 . S
C807 C806 1.394 . S
C807 C808 1.383 . S
C807 H815 0.929 . S
C808 C807 1.383 . S
C808 C809 1.377 . S
C809 H793 0.930 . S
C809 C808 1.377 . S
C809 C810 1.379 . S
C810 H794 0.931 . S
C810 C804 1.383 . S
C810 C809 1.379 . S
H811 C805 0.959 . S
H812 C805 0.961 . S
H813 C805 0.960 . S
H814 C806 0.930 . S
H815 C807 0.929 . S
H816 C824 0.929 . S
H817 C826 0.930 . S
H818 C828 0.930 . S
H819 C831 0.929 . S
H820 C834 0.930 . S
H821 C836 0.960 . S
H822 C836 0.960 . S
H823 C836 0.960 . S
C824 H816 0.929 . S
C824 C825 1.377 . S
C824 C826 1.384 . S
C825 C824 1.377 . S
C825 C831 1.390 . S
C826 H817 0.930 . S
C826 C824 1.384 . S
C826 C827 1.372 . S
C827 C826 1.372 . S
C827 C828 1.400 . S
C827 C832 1.490 . S
C828 H818 0.930 . S
C828 C827 1.400 . S
C828 C831 1.386 . S
H829 C845 0.930 . S
H830 C846 0.931 . S
C831 H819 0.929 . S
C831 C825 1.390 . S
C831 C828 1.386 . S
C832 C827 1.490 . S
C832 C834 1.395 . S
C832 C835 1.403 . S
H833 C839 0.930 . S
C834 H820 0.930 . S
C834 C832 1.395 . S
C834 C837 1.403 . S
C835 C832 1.403 . S
C835 C836 1.524 . S
C835 C839 1.400 . S
C836 H821 0.960 . S
C836 H822 0.960 . S
C836 H823 0.960 . S
C836 C835 1.524 . S
C837 C834 1.403 . S
C837 C838 1.392 . S
C837 C841 1.495 . S
C838 C837 1.392 . S
C838 C839 1.385 . S
C838 C840 1.478 . S
C839 H833 0.930 . S
C839 C835 1.400 . S
C839 C838 1.385 . S
C840 C838 1.478 . S
C840 C842 1.381 . S
C840 C846 1.383 . S
C841 C837 1.495 . S
C841 H847 0.959 . S
C841 H848 0.961 . S
C841 H849 0.960 . S
C842 C840 1.381 . S
C842 C843 1.394 . S
C842 H850 0.930 . S
C843 C842 1.394 . S
C843 C844 1.383 . S
C843 H851 0.929 . S
C844 C843 1.383 . S
C844 C845 1.377 . S
C845 H829 0.930 . S
C845 C844 1.377 . S
C845 C846 1.379 . S
C846 H830 0.931 . S
C846 C840 1.383 . S
C846 C845 1.379 . S
H847 C841 0.959 . S
H848 C841 0.961 . S
H849 C841 0.960 . S
H850 C842 0.930 . S
H851 C843 0.929 . S
H852 C860 0.929 . S
H853 C862 0.930 . S
H854 C864 0.930 . S
H855 C867 0.929 . S
H856 C870 0.930 . S
H857 C872 0.960 . S
H858 C872 0.960 . S
H859 C872 0.960 . S
C860 H852 0.929 . S
C860 C861 1.377 . S
C860 C862 1.384 . S
C861 C860 1.377 . S
C861 C867 1.390 . S
C862 H853 0.930 . S
C862 C860 1.384 . S
C862 C863 1.372 . S
C863 C862 1.372 . S
C863 C864 1.400 . S
C863 C868 1.490 . S
C864 H854 0.930 . S
C864 C863 1.400 . S
C864 C867 1.386 . S
H865 C881 0.930 . S
H866 C882 0.931 . S
C867 H855 0.929 . S
C867 C861 1.390 . S
C867 C864 1.386 . S
C868 C863 1.490 . S
C868 C870 1.395 . S
C868 C871 1.403 . S
H869 C875 0.930 . S
C870 H856 0.930 . S
C870 C868 1.395 . S
C870 C873 1.403 1_554 S
C871 C868 1.403 . S
C871 C872 1.524 . S
C871 C875 1.400 1_554 S
C872 H857 0.960 . S
C872 H858 0.960 . S
C872 H859 0.960 . S
C872 C871 1.524 . S
C873 C870 1.403 1_556 S
C873 C874 1.392 . S
C873 C877 1.495 . S
C874 C873 1.392 . S
C874 C875 1.385 . S
C874 C876 1.478 . S
C875 H869 0.930 . S
C875 C871 1.400 1_556 S
C875 C874 1.385 . S
C876 C874 1.478 . S
C876 C878 1.381 . S
C876 C882 1.383 . S
C877 C873 1.495 . S
C877 H883 0.959 . S
C877 H884 0.961 . S
C877 H885 0.960 . S
C878 C876 1.381 . S
C878 C879 1.394 . S
C878 H886 0.930 . S
C879 C878 1.394 . S
C879 C880 1.383 . S
C879 H887 0.929 . S
C880 C879 1.383 . S
C880 C881 1.377 . S
C881 H865 0.930 . S
C881 C880 1.377 . S
C881 C882 1.379 . S
C882 H866 0.931 . S
C882 C876 1.383 . S
C882 C881 1.379 . S
H883 C877 0.959 . S
H884 C877 0.961 . S
H885 C877 0.960 . S
H886 C878 0.930 . S
H887 C879 0.929 . S
H888 C896 0.929 . S
H889 C898 0.930 . S
H890 C900 0.930 . S
H891 C903 0.929 . S
H892 C906 0.930 . S
H893 C908 0.960 . S
H894 C908 0.960 . S
H895 C908 0.960 . S
C896 H888 0.929 . S
C896 C897 1.377 . S
C896 C898 1.384 . S
C897 C896 1.377 . S
C897 C903 1.390 . S
C898 H889 0.930 . S
C898 C896 1.384 . S
C898 C899 1.372 . S
C899 C898 1.372 . S
C899 C900 1.400 . S
C899 C904 1.490 . S
C900 H890 0.930 . S
C900 C899 1.400 . S
C900 C903 1.386 . S
H901 C917 0.930 . S
H902 C918 0.931 . S
C903 H891 0.929 . S
C903 C897 1.390 . S
C903 C900 1.386 . S
C904 C899 1.490 . S
C904 C906 1.395 . S
C904 C907 1.403 . S
H905 C911 0.930 . S
C906 H892 0.930 . S
C906 C904 1.395 . S
C906 C909 1.403 . S
C907 C904 1.403 . S
C907 C908 1.524 . S
C907 C911 1.400 . S
C908 H893 0.960 . S
C908 H894 0.960 . S
C908 H895 0.960 . S
C908 C907 1.524 . S
C909 C906 1.403 . S
C909 C910 1.392 . S
C909 C913 1.495 . S
C910 C909 1.392 . S
C910 C911 1.385 . S
C910 C912 1.478 . S
C911 H905 0.930 . S
C911 C907 1.400 . S
C911 C910 1.385 . S
C912 C910 1.478 . S
C912 C914 1.381 . S
C912 C918 1.383 . S
C913 C909 1.495 . S
C913 H919 0.959 . S
C913 H920 0.961 . S
C913 H921 0.960 . S
C914 C912 1.381 . S
C914 C915 1.394 . S
C914 H922 0.930 . S
C915 C914 1.394 . S
C915 C916 1.383 . S
C915 H923 0.929 . S
C916 C915 1.383 . S
C916 C917 1.377 . S
C917 H901 0.930 . S
C917 C916 1.377 . S
C917 C918 1.379 . S
C918 H902 0.931 . S
C918 C912 1.383 . S
C918 C917 1.379 . S
H919 C913 0.959 . S
H920 C913 0.961 . S
H921 C913 0.960 . S
H922 C914 0.930 . S
H923 C915 0.929 . S
H924 C932 0.929 . S
H925 C934 0.930 . S
H926 C936 0.930 . S
H927 C939 0.929 . S
H928 C942 0.930 . S
H929 C944 0.960 1_554 S
H930 C944 0.960 . S
H931 C944 0.960 . S
C932 H924 0.929 . S
C932 C933 1.377 . S
C932 C934 1.384 . S
C933 C932 1.377 . S
C933 C939 1.390 . S
C934 H925 0.930 . S
C934 C932 1.384 . S
C934 C935 1.372 . S
C935 C934 1.372 . S
C935 C936 1.400 . S
C935 C940 1.490 . S
C936 H926 0.930 . S
C936 C935 1.400 . S
C936 C939 1.386 . S
H937 C953 0.930 . S
H938 C954 0.931 . S
C939 H927 0.929 . S
C939 C933 1.390 . S
C939 C936 1.386 . S
C940 C935 1.490 . S
C940 C942 1.395 . S
C940 C943 1.403 . S
H941 C947 0.930 . S
C942 H928 0.930 . S
C942 C940 1.395 . S
C942 C945 1.403 1_556 S
C943 C940 1.403 . S
C943 C944 1.524 . S
C943 C947 1.400 1_556 S
C944 H929 0.960 1_556 S
C944 H930 0.960 . S
C944 H931 0.960 . S
C944 C943 1.524 . S
C945 C942 1.403 1_554 S
C945 C946 1.392 . S
C945 C949 1.495 . S
C946 C945 1.392 . S
C946 C947 1.385 . S
C946 C948 1.478 . S
C947 H941 0.930 . S
C947 C943 1.400 1_554 S
C947 C946 1.385 . S
C948 C946 1.478 . S
C948 C950 1.381 . S
C948 C954 1.383 . S
C949 C945 1.495 . S
C949 H955 0.959 1_554 S
C949 H956 0.961 . S
C949 H957 0.960 . S
C950 C948 1.381 . S
C950 C951 1.394 . S
C950 H958 0.930 . S
C951 C950 1.394 . S
C951 C952 1.383 . S
C951 H959 0.929 . S
C952 C951 1.383 . S
C952 C953 1.377 . S
C953 H937 0.930 . S
C953 C952 1.377 . S
C953 C954 1.379 . S
C954 H938 0.931 . S
C954 C948 1.383 . S
C954 C953 1.379 . S
H955 C949 0.959 1_556 S
H956 C949 0.961 . S
H957 C949 0.960 . S
H958 C950 0.930 . S
H959 C951 0.929 . S
H960 C968 0.929 . S
H961 C970 0.930 . S
H962 C972 0.930 . S
H963 C975 0.929 . S
H964 C978 0.930 . S
H965 C980 0.960 . S
H966 C980 0.960 . S
H967 C980 0.960 . S
C968 H960 0.929 . S
C968 C969 1.377 . S
C968 C970 1.384 . S
C969 C968 1.377 . S
C969 C975 1.390 . S
C970 H961 0.930 . S
C970 C968 1.384 . S
C970 C971 1.372 . S
C971 C970 1.372 . S
C971 C972 1.400 . S
C971 C976 1.490 . S
C972 H962 0.930 . S
C972 C971 1.400 . S
C972 C975 1.386 . S
H973 C989 0.930 . S
H974 C990 0.931 . S
C975 H963 0.929 . S
C975 C969 1.390 . S
C975 C972 1.386 . S
C976 C971 1.490 . S
C976 C978 1.395 . S
C976 C979 1.403 . S
H977 C983 0.930 . S
C978 H964 0.930 . S
C978 C976 1.395 . S
C978 C981 1.403 . S
C979 C976 1.403 . S
C979 C980 1.524 . S
C979 C983 1.400 . S
C980 H965 0.960 . S
C980 H966 0.960 . S
C980 H967 0.960 . S
C980 C979 1.524 . S
C981 C978 1.403 . S
C981 C982 1.392 . S
C981 C985 1.495 . S
C982 C981 1.392 . S
C982 C983 1.385 . S
C982 C984 1.478 . S
C983 H977 0.930 . S
C983 C979 1.400 . S
C983 C982 1.385 . S
C984 C982 1.478 . S
C984 C986 1.381 . S
C984 C990 1.383 . S
C985 C981 1.495 . S
C985 H991 0.959 . S
C985 H992 0.961 . S
C985 H993 0.960 . S
C986 C984 1.381 . S
C986 C987 1.394 . S
C986 H994 0.930 . S
C987 C986 1.394 . S
C987 C988 1.383 . S
C987 H995 0.929 . S
C988 C987 1.383 . S
C988 C989 1.377 . S
C989 H973 0.930 . S
C989 C988 1.377 . S
C989 C990 1.379 . S
C990 H974 0.931 . S
C990 C984 1.383 . S
C990 C989 1.379 . S
H991 C985 0.959 . S
H992 C985 0.961 . S
H993 C985 0.960 . S
H994 C986 0.930 . S
H995 C987 0.929 . S
H996 C1004 0.929 . S
H997 C1006 0.930 . S
H998 C1008 0.930 . S
H999 C1011 0.929 . S
H1000 C1014 0.930 . S
H1001 C1016 0.960 . S
H1002 C1016 0.960 . S
H1003 C1016 0.960 . S
C1004 H996 0.929 . S
C1004 C1005 1.377 . S
C1004 C1006 1.384 . S
C1005 C1004 1.377 . S
C1005 C1011 1.390 . S
C1006 H997 0.930 . S
C1006 C1004 1.384 . S
C1006 C1007 1.372 . S
C1007 C1006 1.372 . S
C1007 C1008 1.400 . S
C1007 C1012 1.490 . S
C1008 H998 0.930 . S
C1008 C1007 1.400 . S
C1008 C1011 1.386 . S
H1009 C1025 0.930 . S
H1010 C1026 0.931 . S
C1011 H999 0.929 . S
C1011 C1005 1.390 . S
C1011 C1008 1.386 . S
C1012 C1007 1.490 . S
C1012 C1014 1.395 . S
C1012 C1015 1.403 . S
H1013 C1019 0.930 . S
C1014 H1000 0.930 . S
C1014 C1012 1.395 . S
C1014 C1017 1.403 . S
C1015 C1012 1.403 . S
C1015 C1016 1.524 . S
C1015 C1019 1.400 . S
C1016 H1001 0.960 . S
C1016 H1002 0.960 . S
C1016 H1003 0.960 . S
C1016 C1015 1.524 . S
C1017 C1014 1.403 . S
C1017 C1018 1.392 . S
C1017 C1021 1.495 . S
C1018 C1017 1.392 . S
C1018 C1019 1.385 . S
C1018 C1020 1.478 . S
C1019 H1013 0.930 . S
C1019 C1015 1.400 . S
C1019 C1018 1.385 . S
C1020 C1018 1.478 . S
C1020 C1022 1.381 . S
C1020 C1026 1.383 . S
C1021 C1017 1.495 . S
C1021 H1027 0.959 . S
C1021 H1028 0.961 . S
C1021 H1029 0.960 . S
C1022 C1020 1.381 . S
C1022 C1023 1.394 . S
C1022 H1030 0.930 . S
C1023 C1022 1.394 . S
C1023 C1024 1.383 . S
C1023 H1031 0.929 . S
C1024 C1023 1.383 . S
C1024 C1025 1.377 . S
C1025 H1009 0.930 . S
C1025 C1024 1.377 . S
C1025 C1026 1.379 . S
C1026 H1010 0.931 . S
C1026 C1020 1.383 . S
C1026 C1025 1.379 . S
H1027 C1021 0.959 . S
H1028 C1021 0.961 . S
H1029 C1021 0.960 . S
H1030 C1022 0.930 . S
H1031 C1023 0.929 . S
H1032 C1040 0.929 . S
H1033 C1042 0.930 . S
H1034 C1044 0.930 . S
H1035 C1047 0.929 . S
H1036 C1050 0.930 . S
H1037 C1052 0.960 . S
H1038 C1052 0.960 . S
H1039 C1052 0.960 . S
C1040 H1032 0.929 . S
C1040 C1041 1.377 . S
C1040 C1042 1.384 . S
C1041 C1040 1.377 . S
C1041 C1047 1.390 . S
C1042 H1033 0.930 . S
C1042 C1040 1.384 . S
C1042 C1043 1.372 . S
C1043 C1042 1.372 . S
C1043 C1044 1.400 . S
C1043 C1048 1.490 . S
C1044 H1034 0.930 . S
C1044 C1043 1.400 . S
C1044 C1047 1.386 . S
H1045 C1061 0.930 . S
H1046 C1062 0.931 . S
C1047 H1035 0.929 . S
C1047 C1041 1.390 . S
C1047 C1044 1.386 . S
C1048 C1043 1.490 . S
C1048 C1050 1.395 . S
C1048 C1051 1.403 . S
H1049 C1055 0.930 . S
C1050 H1036 0.930 . S
C1050 C1048 1.395 . S
C1050 C1053 1.403 . S
C1051 C1048 1.403 . S
C1051 C1052 1.524 . S
C1051 C1055 1.400 . S
C1052 H1037 0.960 . S
C1052 H1038 0.960 . S
C1052 H1039 0.960 . S
C1052 C1051 1.524 . S
C1053 C1050 1.403 . S
C1053 C1054 1.392 . S
C1053 C1057 1.495 . S
C1054 C1053 1.392 . S
C1054 C1055 1.385 . S
C1054 C1056 1.478 . S
C1055 H1049 0.930 . S
C1055 C1051 1.400 . S
C1055 C1054 1.385 . S
C1056 C1054 1.478 . S
C1056 C1058 1.381 . S
C1056 C1062 1.383 . S
C1057 C1053 1.495 . S
C1057 H1063 0.959 . S
C1057 H1064 0.961 . S
C1057 H1065 0.960 . S
C1058 C1056 1.381 . S
C1058 C1059 1.394 . S
C1058 H1066 0.930 . S
C1059 C1058 1.394 . S
C1059 C1060 1.383 . S
C1059 H1067 0.929 . S
C1060 C1059 1.383 . S
C1060 C1061 1.377 . S
C1061 H1045 0.930 . S
C1061 C1060 1.377 . S
C1061 C1062 1.379 . S
C1062 H1046 0.931 . S
C1062 C1056 1.383 . S
C1062 C1061 1.379 . S
H1063 C1057 0.959 . S
H1064 C1057 0.961 . S
H1065 C1057 0.960 . S
H1066 C1058 0.930 . S
H1067 C1059 0.929 . S
H1068 C1076 0.929 . S
H1069 C1078 0.930 . S
H1070 C1080 0.930 . S
H1071 C1083 0.929 . S
H1072 C1086 0.934 . S
H1073 C1088 0.960 . S
H1074 C1088 0.960 . S
H1075 C1088 0.960 . S
C1076 H1068 0.929 . S
C1076 C1077 1.377 . S
C1076 C1078 1.384 . S
C1077 C1076 1.377 . S
C1077 C1083 1.390 . S
C1078 H1069 0.930 . S
C1078 C1076 1.384 . S
C1078 C1079 1.372 . S
C1079 C1078 1.372 . S
C1079 C1080 1.400 . S
C1079 C1084 1.490 . S
C1080 H1070 0.930 . S
C1080 C1079 1.400 . S
C1080 C1083 1.386 . S
H1081 C1097 0.930 . S
H1082 C1098 0.931 . S
C1083 H1071 0.929 . S
C1083 C1077 1.390 . S
C1083 C1080 1.386 . S
C1084 C1079 1.490 . S
C1084 C1086 1.395 1_565 S
C1084 C1087 1.403 . S
H1085 C1091 0.930 . S
C1086 H1072 0.934 . S
C1086 C1084 1.395 1_545 S
C1086 C1089 1.403 . S
C1087 C1084 1.403 . S
C1087 C1088 1.524 . S
C1087 C1091 1.400 1_565 S
C1088 H1073 0.960 . S
C1088 H1074 0.960 . S
C1088 H1075 0.960 . S
C1088 C1087 1.524 . S
C1089 C1086 1.403 . S
C1089 C1090 1.392 . S
C1089 C1093 1.495 . S
C1090 C1089 1.392 . S
C1090 C1091 1.385 . S
C1090 C1092 1.478 . S
C1091 H1085 0.930 . S
C1091 C1087 1.400 1_545 S
C1091 C1090 1.385 . S
C1092 C1090 1.478 . S
C1092 C1094 1.381 . S
C1092 C1098 1.383 . S
C1093 C1089 1.495 . S
C1093 H1099 0.959 . S
C1093 H1100 0.961 . S
C1093 H1101 0.960 . S
C1094 C1092 1.381 . S
C1094 C1095 1.394 . S
C1094 H1102 0.930 . S
C1095 C1094 1.394 . S
C1095 C1096 1.383 . S
C1095 H1103 0.929 . S
C1096 C1095 1.383 . S
C1096 C1097 1.377 . S
C1097 H1081 0.930 . S
C1097 C1096 1.377 . S
C1097 C1098 1.379 . S
C1098 H1082 0.931 . S
C1098 C1092 1.383 . S
C1098 C1097 1.379 . S
H1099 C1093 0.959 . S
H1100 C1093 0.961 . S
H1101 C1093 0.960 . S
H1102 C1094 0.930 . S
H1103 C1095 0.929 . S
H1104 C1112 0.929 . S
H1105 C1114 0.930 . S
H1106 C1116 0.930 . S
H1107 C1119 0.929 . S
H1108 C1122 0.930 . S
H1109 C1124 0.960 . S
H1110 C1124 0.960 . S
H1111 C1124 0.960 . S
C1112 H1104 0.929 . S
C1112 C1113 1.377 . S
C1112 C1114 1.384 . S
C1113 C1112 1.377 . S
C1113 C1119 1.390 . S
C1114 H1105 0.930 . S
C1114 C1112 1.384 . S
C1114 C1115 1.372 . S
C1115 C1114 1.372 . S
C1115 C1116 1.400 . S
C1115 C1120 1.490 . S
C1116 H1106 0.930 . S
C1116 C1115 1.400 . S
C1116 C1119 1.386 . S
H1117 C1133 0.930 . S
H1118 C1134 0.931 . S
C1119 H1107 0.929 . S
C1119 C1113 1.390 . S
C1119 C1116 1.386 . S
C1120 C1115 1.490 . S
C1120 C1122 1.395 . S
C1120 C1123 1.403 . S
H1121 C1127 0.930 . S
C1122 H1108 0.930 . S
C1122 C1120 1.395 . S
C1122 C1125 1.403 . S
C1123 C1120 1.403 . S
C1123 C1124 1.524 . S
C1123 C1127 1.400 . S
C1124 H1109 0.960 . S
C1124 H1110 0.960 . S
C1124 H1111 0.960 . S
C1124 C1123 1.524 . S
C1125 C1122 1.403 . S
C1125 C1126 1.392 . S
C1125 C1129 1.495 . S
C1126 C1125 1.392 . S
C1126 C1127 1.385 . S
C1126 C1128 1.478 . S
C1127 H1121 0.930 . S
C1127 C1123 1.400 . S
C1127 C1126 1.385 . S
C1128 C1126 1.478 . S
C1128 C1130 1.381 . S
C1128 C1134 1.383 . S
C1129 C1125 1.495 . S
C1129 H1135 0.959 . S
C1129 H1136 0.961 . S
C1129 H1137 0.960 . S
C1130 C1128 1.381 . S
C1130 C1131 1.394 . S
C1130 H1138 0.930 . S
C1131 C1130 1.394 . S
C1131 C1132 1.383 . S
C1131 H1139 0.929 . S
C1132 C1131 1.383 . S
C1132 C1133 1.377 . S
C1133 H1117 0.930 . S
C1133 C1132 1.377 . S
C1133 C1134 1.379 . S
C1134 H1118 0.931 . S
C1134 C1128 1.383 . S
C1134 C1133 1.379 . S
H1135 C1129 0.959 . S
H1136 C1129 0.961 . S
H1137 C1129 0.960 . S
H1138 C1130 0.930 . S
H1139 C1131 0.929 . S
H1140 C1148 0.929 . S
H1141 C1150 0.930 . S
H1142 C1152 0.930 . S
H1143 C1155 0.929 . S
H1144 C1158 0.930 . S
H1145 C1160 0.960 . S
H1146 C1160 0.960 . S
H1147 C1160 0.960 . S
C1148 H1140 0.929 . S
C1148 C1149 1.377 . S
C1148 C1150 1.384 . S
C1149 C1148 1.377 . S
C1149 C1155 1.390 . S
C1150 H1141 0.930 . S
C1150 C1148 1.384 . S
C1150 C1151 1.372 . S
C1151 C1150 1.372 . S
C1151 C1152 1.400 . S
C1151 C1156 1.490 . S
C1152 H1142 0.930 . S
C1152 C1151 1.400 . S
C1152 C1155 1.386 . S
H1153 C1169 0.930 . S
H1154 C1170 0.931 . S
C1155 H1143 0.929 . S
C1155 C1149 1.390 . S
C1155 C1152 1.386 . S
C1156 C1151 1.490 . S
C1156 C1158 1.395 . S
C1156 C1159 1.403 . S
H1157 C1163 0.930 . S
C1158 H1144 0.930 . S
C1158 C1156 1.395 . S
C1158 C1161 1.403 . S
C1159 C1156 1.403 . S
C1159 C1160 1.524 . S
C1159 C1163 1.400 . S
C1160 H1145 0.960 . S
C1160 H1146 0.960 . S
C1160 H1147 0.960 . S
C1160 C1159 1.524 . S
C1161 C1158 1.403 . S
C1161 C1162 1.392 . S
C1161 C1165 1.495 . S
C1162 C1161 1.392 . S
C1162 C1163 1.385 . S
C1162 C1164 1.478 . S
C1163 H1157 0.930 . S
C1163 C1159 1.400 . S
C1163 C1162 1.385 . S
C1164 C1162 1.478 . S
C1164 C1166 1.381 . S
C1164 C1170 1.383 . S
C1165 C1161 1.495 . S
C1165 H1171 0.959 . S
C1165 H1172 0.961 . S
C1165 H1173 0.960 . S
C1166 C1164 1.381 . S
C1166 C1167 1.394 . S
C1166 H1174 0.930 . S
C1167 C1166 1.394 . S
C1167 C1168 1.383 . S
C1167 H1175 0.929 . S
C1168 C1167 1.383 . S
C1168 C1169 1.377 . S
C1169 H1153 0.930 . S
C1169 C1168 1.377 . S
C1169 C1170 1.379 . S
C1170 H1154 0.931 . S
C1170 C1164 1.383 . S
C1170 C1169 1.379 . S
H1171 C1165 0.959 . S
H1172 C1165 0.961 . S
H1173 C1165 0.960 . S
H1174 C1166 0.930 . S
H1175 C1167 0.929 . S
H1176 C1184 0.929 . S
H1177 C1186 0.930 . S
H1178 C1188 0.930 . S
H1179 C1191 0.929 . S
H1180 C1194 0.930 . S
H1181 C1196 0.960 . S
H1182 C1196 0.960 . S
H1183 C1196 0.960 . S
C1184 H1176 0.929 . S
C1184 C1185 1.377 . S
C1184 C1186 1.384 . S
C1185 C1184 1.377 . S
C1185 C1191 1.390 . S
C1186 H1177 0.930 . S
C1186 C1184 1.384 . S
C1186 C1187 1.372 . S
C1187 C1186 1.372 . S
C1187 C1188 1.400 . S
C1187 C1192 1.490 . S
C1188 H1178 0.930 . S
C1188 C1187 1.400 . S
C1188 C1191 1.386 . S
H1189 C1205 0.930 . S
H1190 C1206 0.931 . S
C1191 H1179 0.929 . S
C1191 C1185 1.390 . S
C1191 C1188 1.386 . S
C1192 C1187 1.490 . S
C1192 C1194 1.395 . S
C1192 C1195 1.403 . S
H1193 C1199 0.930 . S
C1194 H1180 0.930 . S
C1194 C1192 1.395 . S
C1194 C1197 1.403 . S
C1195 C1192 1.403 . S
C1195 C1196 1.524 . S
C1195 C1199 1.400 . S
C1196 H1181 0.960 . S
C1196 H1182 0.960 . S
C1196 H1183 0.960 . S
C1196 C1195 1.524 . S
C1197 C1194 1.403 . S
C1197 C1198 1.392 . S
C1197 C1201 1.495 . S
C1198 C1197 1.392 . S
C1198 C1199 1.385 . S
C1198 C1200 1.478 . S
C1199 H1193 0.930 . S
C1199 C1195 1.400 . S
C1199 C1198 1.385 . S
C1200 C1198 1.478 . S
C1200 C1202 1.381 . S
C1200 C1206 1.383 . S
C1201 C1197 1.495 . S
C1201 H1207 0.959 . S
C1201 H1208 0.961 . S
C1201 H1209 0.960 . S
C1202 C1200 1.381 . S
C1202 C1203 1.394 . S
C1202 H1210 0.930 . S
C1203 C1202 1.394 . S
C1203 C1204 1.383 . S
C1203 H1211 0.929 . S
C1204 C1203 1.383 . S
C1204 C1205 1.377 . S
C1205 H1189 0.930 . S
C1205 C1204 1.377 . S
C1205 C1206 1.379 . S
C1206 H1190 0.931 . S
C1206 C1200 1.383 . S
C1206 C1205 1.379 . S
H1207 C1201 0.959 . S
H1208 C1201 0.961 . S
H1209 C1201 0.960 . S
H1210 C1202 0.930 . S
H1211 C1203 0.929 . S
H1212 C1220 0.929 . S
H1213 C1222 0.930 . S
H1214 C1224 0.930 . S
H1215 C1227 0.929 . S
H1216 C1230 0.930 . S
H1217 C1232 0.960 1_565 S
H1218 C1232 0.960 . S
H1219 C1232 0.960 . S
C1220 H1212 0.929 . S
C1220 C1221 1.377 . S
C1220 C1222 1.384 . S
C1221 C1220 1.377 . S
C1221 C1227 1.390 . S
C1222 H1213 0.930 . S
C1222 C1220 1.384 . S
C1222 C1223 1.372 . S
C1223 C1222 1.372 . S
C1223 C1224 1.400 . S
C1223 C1228 1.490 . S
C1224 H1214 0.930 . S
C1224 C1223 1.400 . S
C1224 C1227 1.386 . S
H1225 C1241 0.930 . S
H1226 C1242 0.931 . S
C1227 H1215 0.929 . S
C1227 C1221 1.390 . S
C1227 C1224 1.386 . S
C1228 C1223 1.490 . S
C1228 C1230 1.395 . S
C1228 C1231 1.403 . S
H1229 C1235 0.930 . S
C1230 H1216 0.930 . S
C1230 C1228 1.395 . S
C1230 C1233 1.403 1_545 S
C1231 C1228 1.403 . S
C1231 C1232 1.524 . S
C1231 C1235 1.400 1_545 S
C1232 H1217 0.960 1_545 S
C1232 H1218 0.960 . S
C1232 H1219 0.960 . S
C1232 C1231 1.524 . S
C1233 C1230 1.403 1_565 S
C1233 C1234 1.392 . S
C1233 C1237 1.495 . S
C1234 C1233 1.392 . S
C1234 C1235 1.385 . S
C1234 C1236 1.478 . S
C1235 H1229 0.930 . S
C1235 C1231 1.400 1_565 S
C1235 C1234 1.385 . S
C1236 C1234 1.478 . S
C1236 C1238 1.381 . S
C1236 C1242 1.383 . S
C1237 C1233 1.495 . S
C1237 H1243 0.959 1_565 S
C1237 H1244 0.961 . S
C1237 H1245 0.960 . S
C1238 C1236 1.381 . S
C1238 C1239 1.394 . S
C1238 H1246 0.930 . S
C1239 C1238 1.394 . S
C1239 C1240 1.383 . S
C1239 H1247 0.929 . S
C1240 C1239 1.383 . S
C1240 C1241 1.377 . S
C1241 H1225 0.930 . S
C1241 C1240 1.377 . S
C1241 C1242 1.379 . S
C1242 H1226 0.931 . S
C1242 C1236 1.383 . S
C1242 C1241 1.379 . S
H1243 C1237 0.959 1_545 S
H1244 C1237 0.961 . S
H1245 C1237 0.960 . S
H1246 C1238 0.930 . S
H1247 C1239 0.929 . S
H1248 C1256 0.929 . S
H1249 C1258 0.930 . S
H1250 C1260 0.930 . S
H1251 C1263 0.929 . S
H1252 C1266 0.930 . S
H1253 C1268 0.960 . S
H1254 C1268 0.960 . S
H1255 C1268 0.960 . S
C1256 H1248 0.929 . S
C1256 C1257 1.377 . S
C1256 C1258 1.384 . S
C1257 C1256 1.377 . S
C1257 C1263 1.390 . S
C1258 H1249 0.930 . S
C1258 C1256 1.384 . S
C1258 C1259 1.372 . S
C1259 C1258 1.372 . S
C1259 C1260 1.400 . S
C1259 C1264 1.490 . S
C1260 H1250 0.930 . S
C1260 C1259 1.400 . S
C1260 C1263 1.386 . S
H1261 C1277 0.930 . S
H1262 C1278 0.931 . S
C1263 H1251 0.929 . S
C1263 C1257 1.390 . S
C1263 C1260 1.386 . S
C1264 C1259 1.490 . S
C1264 C1266 1.395 . S
C1264 C1267 1.403 . S
H1265 C1271 0.930 . S
C1266 H1252 0.930 . S
C1266 C1264 1.395 . S
C1266 C1269 1.403 . S
C1267 C1264 1.403 . S
C1267 C1268 1.524 . S
C1267 C1271 1.400 . S
C1268 H1253 0.960 . S
C1268 H1254 0.960 . S
C1268 H1255 0.960 . S
C1268 C1267 1.524 . S
C1269 C1266 1.403 . S
C1269 C1270 1.392 . S
C1269 C1273 1.495 . S
C1270 C1269 1.392 . S
C1270 C1271 1.385 . S
C1270 C1272 1.478 . S
C1271 H1265 0.930 . S
C1271 C1267 1.400 . S
C1271 C1270 1.385 . S
C1272 C1270 1.478 . S
C1272 C1274 1.381 . S
C1272 C1278 1.383 . S
C1273 C1269 1.495 . S
C1273 H1279 0.959 . S
C1273 H1280 0.961 . S
C1273 H1281 0.960 . S
C1274 C1272 1.381 . S
C1274 C1275 1.394 . S
C1274 H1282 0.930 . S
C1275 C1274 1.394 . S
C1275 C1276 1.383 . S
C1275 H1283 0.929 . S
C1276 C1275 1.383 . S
C1276 C1277 1.377 . S
C1277 H1261 0.930 . S
C1277 C1276 1.377 . S
C1277 C1278 1.379 . S
C1278 H1262 0.931 . S
C1278 C1272 1.383 . S
C1278 C1277 1.379 . S
H1279 C1273 0.959 . S
H1280 C1273 0.961 . S
H1281 C1273 0.960 . S
H1282 C1274 0.930 . S
H1283 C1275 0.929 . S
H1284 C1292 0.929 . S
H1285 C1294 0.930 . S
H1286 C1296 0.930 . S
H1287 C1299 0.929 . S
H1288 C1302 0.930 . S
H1289 C1304 0.960 . S
H1290 C1304 0.960 . S
H1291 C1304 0.960 . S
C1292 H1284 0.929 . S
C1292 C1293 1.377 . S
C1292 C1294 1.384 . S
C1293 C1292 1.377 . S
C1293 C1299 1.390 . S
C1294 H1285 0.930 . S
C1294 C1292 1.384 . S
C1294 C1295 1.372 . S
C1295 C1294 1.372 . S
C1295 C1296 1.400 . S
C1295 C1300 1.490 . S
C1296 H1286 0.930 . S
C1296 C1295 1.400 . S
C1296 C1299 1.386 . S
H1297 C1313 0.930 . S
H1298 C1314 0.931 . S
C1299 H1287 0.929 . S
C1299 C1293 1.390 . S
C1299 C1296 1.386 . S
C1300 C1295 1.490 . S
C1300 C1302 1.395 . S
C1300 C1303 1.403 . S
H1301 C1307 0.930 . S
C1302 H1288 0.930 . S
C1302 C1300 1.395 . S
C1302 C1305 1.403 . S
C1303 C1300 1.403 . S
C1303 C1304 1.524 . S
C1303 C1307 1.400 . S
C1304 H1289 0.960 . S
C1304 H1290 0.960 . S
C1304 H1291 0.960 . S
C1304 C1303 1.524 . S
C1305 C1302 1.403 . S
C1305 C1306 1.392 . S
C1305 C1309 1.495 . S
C1306 C1305 1.392 . S
C1306 C1307 1.385 . S
C1306 C1308 1.478 . S
C1307 H1301 0.930 . S
C1307 C1303 1.400 . S
C1307 C1306 1.385 . S
C1308 C1306 1.478 . S
C1308 C1310 1.381 . S
C1308 C1314 1.383 . S
C1309 C1305 1.495 . S
C1309 H1315 0.959 . S
C1309 H1316 0.961 . S
C1309 H1317 0.960 . S
C1310 C1308 1.381 . S
C1310 C1311 1.394 . S
C1310 H1318 0.930 . S
C1311 C1310 1.394 . S
C1311 C1312 1.383 . S
C1311 H1319 0.929 . S
C1312 C1311 1.383 . S
C1312 C1313 1.377 . S
C1313 H1297 0.930 . S
C1313 C1312 1.377 . S
C1313 C1314 1.379 . S
C1314 H1298 0.931 . S
C1314 C1308 1.383 . S
C1314 C1313 1.379 . S
H1315 C1309 0.959 . S
H1316 C1309 0.961 . S
H1317 C1309 0.960 . S
H1318 C1310 0.930 . S
H1319 C1311 0.929 . S
H1320 C1328 0.929 . S
H1321 C1330 0.930 . S
H1322 C1332 0.930 . S
H1323 C1335 0.929 . S
H1324 C1338 0.930 . S
H1325 C1340 0.960 . S
H1326 C1340 0.960 . S
H1327 C1340 0.960 . S
C1328 H1320 0.929 . S
C1328 C1329 1.377 . S
C1328 C1330 1.384 . S
C1329 C1328 1.377 . S
C1329 C1335 1.390 . S
C1330 H1321 0.930 . S
C1330 C1328 1.384 . S
C1330 C1331 1.372 . S
C1331 C1330 1.372 . S
C1331 C1332 1.400 . S
C1331 C1336 1.490 . S
C1332 H1322 0.930 . S
C1332 C1331 1.400 . S
C1332 C1335 1.386 . S
H1333 C1349 0.930 . S
H1334 C1350 0.931 . S
C1335 H1323 0.929 . S
C1335 C1329 1.390 . S
C1335 C1332 1.386 . S
C1336 C1331 1.490 . S
C1336 C1338 1.395 . S
C1336 C1339 1.403 . S
H1337 C1343 0.930 . S
C1338 H1324 0.930 . S
C1338 C1336 1.395 . S
C1338 C1341 1.403 1_655 S
C1339 C1336 1.403 . S
C1339 C1340 1.524 . S
C1339 C1343 1.400 1_655 S
C1340 H1325 0.960 . S
C1340 H1326 0.960 . S
C1340 H1327 0.960 . S
C1340 C1339 1.524 . S
C1341 C1338 1.403 1_455 S
C1341 C1342 1.392 . S
C1341 C1345 1.495 . S
C1342 C1341 1.392 . S
C1342 C1343 1.385 . S
C1342 C1344 1.478 . S
C1343 H1337 0.930 . S
C1343 C1339 1.400 1_455 S
C1343 C1342 1.385 . S
C1344 C1342 1.478 . S
C1344 C1346 1.381 . S
C1344 C1350 1.383 . S
C1345 C1341 1.495 . S
C1345 H1351 0.959 . S
C1345 H1352 0.961 . S
C1345 H1353 0.960 . S
C1346 C1344 1.381 . S
C1346 C1347 1.394 . S
C1346 H1354 0.930 . S
C1347 C1346 1.394 . S
C1347 C1348 1.383 . S
C1347 H1355 0.929 . S
C1348 C1347 1.383 . S
C1348 C1349 1.377 . S
C1349 H1333 0.930 . S
C1349 C1348 1.377 . S
C1349 C1350 1.379 . S
C1350 H1334 0.931 . S
C1350 C1344 1.383 . S
C1350 C1349 1.379 . S
H1351 C1345 0.959 . S
H1352 C1345 0.961 . S
H1353 C1345 0.960 . S
H1354 C1346 0.930 . S
H1355 C1347 0.929 . S
H1356 C1364 0.929 . S
H1357 C1366 0.930 . S
H1358 C1368 0.930 . S
H1359 C1371 0.929 . S
H1360 C1374 0.930 . S
H1361 C1376 0.960 . S
H1362 C1376 0.960 . S
H1363 C1376 0.960 . S
C1364 H1356 0.929 . S
C1364 C1365 1.377 . S
C1364 C1366 1.384 . S
C1365 C1364 1.377 . S
C1365 C1371 1.390 . S
C1366 H1357 0.930 . S
C1366 C1364 1.384 . S
C1366 C1367 1.372 . S
C1367 C1366 1.372 . S
C1367 C1368 1.400 . S
C1367 C1372 1.490 . S
C1368 H1358 0.930 . S
C1368 C1367 1.400 . S
C1368 C1371 1.386 . S
H1369 C1385 0.930 . S
H1370 C1386 0.931 . S
C1371 H1359 0.929 . S
C1371 C1365 1.390 . S
C1371 C1368 1.386 . S
C1372 C1367 1.490 . S
C1372 C1374 1.395 . S
C1372 C1375 1.403 . S
H1373 C1379 0.930 . S
C1374 H1360 0.930 . S
C1374 C1372 1.395 . S
C1374 C1377 1.403 . S
C1375 C1372 1.403 . S
C1375 C1376 1.524 . S
C1375 C1379 1.400 . S
C1376 H1361 0.960 . S
C1376 H1362 0.960 . S
C1376 H1363 0.960 . S
C1376 C1375 1.524 . S
C1377 C1374 1.403 . S
C1377 C1378 1.392 . S
C1377 C1381 1.495 . S
C1378 C1377 1.392 . S
C1378 C1379 1.385 . S
C1378 C1380 1.478 . S
C1379 H1373 0.930 . S
C1379 C1375 1.400 . S
C1379 C1378 1.385 . S
C1380 C1378 1.478 . S
C1380 C1382 1.381 . S
C1380 C1386 1.383 . S
C1381 C1377 1.495 . S
C1381 H1387 0.959 . S
C1381 H1388 0.961 . S
C1381 H1389 0.960 . S
C1382 C1380 1.381 . S
C1382 C1383 1.394 . S
C1382 H1390 0.930 . S
C1383 C1382 1.394 . S
C1383 C1384 1.383 . S
C1383 H1391 0.929 . S
C1384 C1383 1.383 . S
C1384 C1385 1.377 . S
C1385 H1369 0.930 . S
C1385 C1384 1.377 . S
C1385 C1386 1.379 . S
C1386 H1370 0.931 . S
C1386 C1380 1.383 . S
C1386 C1385 1.379 . S
H1387 C1381 0.959 . S
H1388 C1381 0.961 . S
H1389 C1381 0.960 . S
H1390 C1382 0.930 . S
H1391 C1383 0.929 . S
H1392 C1400 0.929 . S
H1393 C1402 0.930 . S
H1394 C1404 0.930 . S
H1395 C1407 0.929 . S
H1396 C1410 0.930 . S
H1397 C1412 0.960 . S
H1398 C1412 0.960 . S
H1399 C1412 0.960 . S
C1400 H1392 0.929 . S
C1400 C1401 1.377 . S
C1400 C1402 1.384 . S
C1401 C1400 1.377 . S
C1401 C1407 1.390 . S
C1402 H1393 0.930 . S
C1402 C1400 1.384 . S
C1402 C1403 1.372 . S
C1403 C1402 1.372 . S
C1403 C1404 1.400 . S
C1403 C1408 1.490 . S
C1404 H1394 0.930 . S
C1404 C1403 1.400 . S
C1404 C1407 1.386 . S
H1405 C1421 0.930 . S
H1406 C1422 0.931 . S
C1407 H1395 0.929 . S
C1407 C1401 1.390 . S
C1407 C1404 1.386 . S
C1408 C1403 1.490 . S
C1408 C1410 1.395 . S
C1408 C1411 1.403 . S
H1409 C1415 0.930 . S
C1410 H1396 0.930 . S
C1410 C1408 1.395 . S
C1410 C1413 1.403 . S
C1411 C1408 1.403 . S
C1411 C1412 1.524 . S
C1411 C1415 1.400 . S
C1412 H1397 0.960 . S
C1412 H1398 0.960 . S
C1412 H1399 0.960 . S
C1412 C1411 1.524 . S
C1413 C1410 1.403 . S
C1413 C1414 1.392 . S
C1413 C1417 1.495 . S
C1414 C1413 1.392 . S
C1414 C1415 1.385 . S
C1414 C1416 1.478 . S
C1415 H1409 0.930 . S
C1415 C1411 1.400 . S
C1415 C1414 1.385 . S
C1416 C1414 1.478 . S
C1416 C1418 1.381 . S
C1416 C1422 1.383 . S
C1417 C1413 1.495 . S
C1417 H1423 0.959 . S
C1417 H1424 0.961 . S
C1417 H1425 0.960 . S
C1418 C1416 1.381 . S
C1418 C1419 1.394 . S
C1418 H1426 0.930 . S
C1419 C1418 1.394 . S
C1419 C1420 1.383 . S
C1419 H1427 0.929 . S
C1420 C1419 1.383 . S
C1420 C1421 1.377 . S
C1421 H1405 0.930 . S
C1421 C1420 1.377 . S
C1421 C1422 1.379 . S
C1422 H1406 0.931 . S
C1422 C1416 1.383 . S
C1422 C1421 1.379 . S
H1423 C1417 0.959 . S
H1424 C1417 0.961 . S
H1425 C1417 0.960 . S
H1426 C1418 0.930 . S
H1427 C1419 0.929 . S
H1428 C1436 0.929 . S
H1429 C1438 0.930 . S
H1430 C1440 0.930 . S
H1431 C1443 0.929 . S
H1432 C1446 0.930 . S
H1433 C1448 0.960 . S
H1434 C1448 0.960 . S
H1435 C1448 0.960 . S
C1436 H1428 0.929 . S
C1436 C1437 1.377 . S
C1436 C1438 1.384 . S
C1437 C1436 1.377 . S
C1437 C1443 1.390 . S
C1438 H1429 0.930 . S
C1438 C1436 1.384 . S
C1438 C1439 1.372 . S
C1439 C1438 1.372 . S
C1439 C1440 1.400 . S
C1439 C1444 1.490 . S
C1440 H1430 0.930 . S
C1440 C1439 1.400 . S
C1440 C1443 1.386 . S
H1441 C1457 0.930 . S
H1442 C1458 0.931 . S
C1443 H1431 0.929 . S
C1443 C1437 1.390 . S
C1443 C1440 1.386 . S
C1444 C1439 1.490 . S
C1444 C1446 1.395 . S
C1444 C1447 1.403 . S
H1445 C1451 0.930 . S
C1446 H1432 0.930 . S
C1446 C1444 1.395 . S
C1446 C1449 1.403 . S
C1447 C1444 1.403 . S
C1447 C1448 1.524 . S
C1447 C1451 1.400 . S
C1448 H1433 0.960 . S
C1448 H1434 0.960 . S
C1448 H1435 0.960 . S
C1448 C1447 1.524 . S
C1449 C1446 1.403 . S
C1449 C1450 1.392 . S
C1449 C1453 1.495 . S
C1450 C1449 1.392 . S
C1450 C1451 1.385 . S
C1450 C1452 1.478 . S
C1451 H1445 0.930 . S
C1451 C1447 1.400 . S
C1451 C1450 1.385 . S
C1452 C1450 1.478 . S
C1452 C1454 1.381 . S
C1452 C1458 1.383 . S
C1453 C1449 1.495 . S
C1453 H1459 0.959 . S
C1453 H1460 0.961 . S
C1453 H1461 0.960 . S
C1454 C1452 1.381 . S
C1454 C1455 1.394 . S
C1454 H1462 0.930 . S
C1455 C1454 1.394 . S
C1455 C1456 1.383 . S
C1455 H1463 0.929 . S
C1456 C1455 1.383 . S
C1456 C1457 1.377 . S
C1457 H1441 0.930 . S
C1457 C1456 1.377 . S
C1457 C1458 1.379 . S
C1458 H1442 0.931 . S
C1458 C1452 1.383 . S
C1458 C1457 1.379 . S
H1459 C1453 0.959 . S
H1460 C1453 0.961 . S
H1461 C1453 0.960 . S
H1462 C1454 0.930 . S
H1463 C1455 0.929 . S
H1464 C1472 0.929 . S
H1465 C1474 0.930 . S
H1466 C1476 0.930 . S
H1467 C1479 0.929 . S
H1468 C1482 0.930 . S
H1469 C1484 0.960 1_655 S
H1470 C1484 0.960 . S
H1471 C1484 0.960 . S
C1472 H1464 0.929 . S
C1472 C1473 1.377 . S
C1472 C1474 1.384 . S
C1473 C1472 1.377 . S
C1473 C1479 1.390 . S
C1474 H1465 0.930 . S
C1474 C1472 1.384 . S
C1474 C1475 1.372 . S
C1475 C1474 1.372 . S
C1475 C1476 1.400 . S
C1475 C1480 1.490 . S
C1476 H1466 0.930 . S
C1476 C1475 1.400 . S
C1476 C1479 1.386 . S
H1477 C1493 0.930 . S
H1478 C1494 0.931 . S
C1479 H1467 0.929 . S
C1479 C1473 1.390 . S
C1479 C1476 1.386 . S
C1480 C1475 1.490 . S
C1480 C1482 1.395 . S
C1480 C1483 1.403 . S
H1481 C1487 0.930 . S
C1482 H1468 0.930 . S
C1482 C1480 1.395 . S
C1482 C1485 1.403 1_455 S
C1483 C1480 1.403 . S
C1483 C1484 1.524 . S
C1483 C1487 1.400 1_455 S
C1484 H1469 0.960 1_455 S
C1484 H1470 0.960 . S
C1484 H1471 0.960 . S
C1484 C1483 1.524 . S
C1485 C1482 1.403 1_655 S
C1485 C1486 1.392 . S
C1485 C1489 1.495 . S
C1486 C1485 1.392 . S
C1486 C1487 1.385 . S
C1486 C1488 1.478 . S
C1487 H1481 0.930 . S
C1487 C1483 1.400 1_655 S
C1487 C1486 1.385 . S
C1488 C1486 1.478 . S
C1488 C1490 1.381 . S
C1488 C1494 1.383 . S
C1489 C1485 1.495 . S
C1489 H1495 0.959 . S
C1489 H1496 0.961 . S
C1489 H1497 0.960 . S
C1490 C1488 1.381 . S
C1490 C1491 1.394 . S
C1490 H1498 0.930 . S
C1491 C1490 1.394 . S
C1491 C1492 1.383 . S
C1491 H1499 0.929 . S
C1492 C1491 1.383 . S
C1492 C1493 1.377 . S
C1493 H1477 0.930 . S
C1493 C1492 1.377 . S
C1493 C1494 1.379 . S
C1494 H1478 0.931 . S
C1494 C1488 1.383 . S
C1494 C1493 1.379 . S
H1495 C1489 0.959 . S
H1496 C1489 0.961 . S
H1497 C1489 0.960 . S
H1498 C1490 0.930 . S
H1499 C1491 0.929 . S
H1500 C1508 0.929 . S
H1501 C1510 0.930 . S
H1502 C1512 0.930 . S
H1503 C1515 0.929 . S
H1504 C1518 0.930 . S
H1505 C1520 0.960 . S
H1506 C1520 0.960 . S
H1507 C1520 0.960 . S
C1508 H1500 0.929 . S
C1508 C1509 1.377 . S
C1508 C1510 1.384 . S
C1509 C1508 1.377 . S
C1509 C1515 1.390 . S
C1510 H1501 0.930 . S
C1510 C1508 1.384 . S
C1510 C1511 1.372 . S
C1511 C1510 1.372 . S
C1511 C1512 1.400 . S
C1511 C1516 1.490 . S
C1512 H1502 0.930 . S
C1512 C1511 1.400 . S
C1512 C1515 1.386 . S
H1513 C1529 0.930 . S
H1514 C1530 0.931 . S
C1515 H1503 0.929 . S
C1515 C1509 1.390 . S
C1515 C1512 1.386 . S
C1516 C1511 1.490 . S
C1516 C1518 1.395 . S
C1516 C1519 1.403 . S
H1517 C1523 0.930 . S
C1518 H1504 0.930 . S
C1518 C1516 1.395 . S
C1518 C1521 1.403 1_655 S
C1519 C1516 1.403 . S
C1519 C1520 1.524 . S
C1519 C1523 1.400 1_655 S
C1520 H1505 0.960 . S
C1520 H1506 0.960 . S
C1520 H1507 0.960 . S
C1520 C1519 1.524 . S
C1521 C1518 1.403 1_455 S
C1521 C1522 1.392 . S
C1521 C1525 1.495 . S
C1522 C1521 1.392 . S
C1522 C1523 1.385 . S
C1522 C1524 1.478 . S
C1523 H1517 0.930 . S
C1523 C1519 1.400 1_455 S
C1523 C1522 1.385 . S
C1524 C1522 1.478 . S
C1524 C1526 1.381 . S
C1524 C1530 1.383 . S
C1525 C1521 1.495 . S
C1525 H1531 0.959 . S
C1525 H1532 0.961 . S
C1525 H1533 0.960 . S
C1526 C1524 1.381 . S
C1526 C1527 1.394 . S
C1526 H1534 0.930 . S
C1527 C1526 1.394 . S
C1527 C1528 1.383 . S
C1527 H1535 0.929 . S
C1528 C1527 1.383 . S
C1528 C1529 1.377 . S
C1529 H1513 0.930 . S
C1529 C1528 1.377 . S
C1529 C1530 1.379 . S
C1530 H1514 0.931 . S
C1530 C1524 1.383 . S
C1530 C1529 1.379 . S
H1531 C1525 0.959 . S
H1532 C1525 0.961 . S
H1533 C1525 0.960 . S
H1534 C1526 0.930 . S
H1535 C1527 0.929 . S
H1536 C1544 0.929 . S
H1537 C1546 0.930 . S
H1538 C1548 0.930 . S
H1539 C1551 0.929 . S
H1540 C1554 0.930 . S
H1541 C1556 0.960 . S
H1542 C1556 0.960 . S
H1543 C1556 0.960 . S
C1544 H1536 0.929 . S
C1544 C1545 1.377 . S
C1544 C1546 1.384 . S
C1545 C1544 1.377 . S
C1545 C1551 1.390 . S
C1546 H1537 0.930 . S
C1546 C1544 1.384 . S
C1546 C1547 1.372 . S
C1547 C1546 1.372 . S
C1547 C1548 1.400 . S
C1547 C1552 1.490 . S
C1548 H1538 0.930 . S
C1548 C1547 1.400 . S
C1548 C1551 1.386 . S
H1549 C1565 0.930 . S
H1550 C1566 0.931 . S
C1551 H1539 0.929 . S
C1551 C1545 1.390 . S
C1551 C1548 1.386 . S
C1552 C1547 1.490 . S
C1552 C1554 1.395 . S
C1552 C1555 1.403 . S
H1553 C1559 0.930 . S
C1554 H1540 0.930 . S
C1554 C1552 1.395 . S
C1554 C1557 1.403 . S
C1555 C1552 1.403 . S
C1555 C1556 1.524 . S
C1555 C1559 1.400 . S
C1556 H1541 0.960 . S
C1556 H1542 0.960 . S
C1556 H1543 0.960 . S
C1556 C1555 1.524 . S
C1557 C1554 1.403 . S
C1557 C1558 1.392 . S
C1557 C1561 1.495 . S
C1558 C1557 1.392 . S
C1558 C1559 1.385 . S
C1558 C1560 1.478 . S
C1559 H1553 0.930 . S
C1559 C1555 1.400 . S
C1559 C1558 1.385 . S
C1560 C1558 1.478 . S
C1560 C1562 1.381 . S
C1560 C1566 1.383 . S
C1561 C1557 1.495 . S
C1561 H1567 0.959 . S
C1561 H1568 0.961 . S
C1561 H1569 0.960 . S
C1562 C1560 1.381 . S
C1562 C1563 1.394 . S
C1562 H1570 0.930 . S
C1563 C1562 1.394 . S
C1563 C1564 1.383 . S
C1563 H1571 0.929 . S
C1564 C1563 1.383 . S
C1564 C1565 1.377 . S
C1565 H1549 0.930 . S
C1565 C1564 1.377 . S
C1565 C1566 1.379 . S
C1566 H1550 0.931 . S
C1566 C1560 1.383 . S
C1566 C1565 1.379 . S
H1567 C1561 0.959 . S
H1568 C1561 0.961 . S
H1569 C1561 0.960 . S
H1570 C1562 0.930 . S
H1571 C1563 0.929 . S
H1572 C1580 0.929 . S
H1573 C1582 0.930 . S
H1574 C1584 0.930 . S
H1575 C1587 0.929 . S
H1576 C1590 0.930 . S
H1577 C1592 0.960 . S
H1578 C1592 0.960 . S
H1579 C1592 0.960 . S
C1580 H1572 0.929 . S
C1580 C1581 1.377 . S
C1580 C1582 1.384 . S
C1581 C1580 1.377 . S
C1581 C1587 1.390 . S
C1582 H1573 0.930 . S
C1582 C1580 1.384 . S
C1582 C1583 1.372 . S
C1583 C1582 1.372 . S
C1583 C1584 1.400 . S
C1583 C1588 1.490 . S
C1584 H1574 0.930 . S
C1584 C1583 1.400 . S
C1584 C1587 1.386 . S
H1585 C1601 0.930 . S
H1586 C1602 0.931 . S
C1587 H1575 0.929 . S
C1587 C1581 1.390 . S
C1587 C1584 1.386 . S
C1588 C1583 1.490 . S
C1588 C1590 1.395 . S
C1588 C1591 1.403 . S
H1589 C1595 0.930 . S
C1590 H1576 0.930 . S
C1590 C1588 1.395 . S
C1590 C1593 1.403 . S
C1591 C1588 1.403 . S
C1591 C1592 1.524 . S
C1591 C1595 1.400 . S
C1592 H1577 0.960 . S
C1592 H1578 0.960 . S
C1592 H1579 0.960 . S
C1592 C1591 1.524 . S
C1593 C1590 1.403 . S
C1593 C1594 1.392 . S
C1593 C1597 1.495 . S
C1594 C1593 1.392 . S
C1594 C1595 1.385 . S
C1594 C1596 1.478 . S
C1595 H1589 0.930 . S
C1595 C1591 1.400 . S
C1595 C1594 1.385 . S
C1596 C1594 1.478 . S
C1596 C1598 1.381 . S
C1596 C1602 1.383 . S
C1597 C1593 1.495 . S
C1597 H1603 0.959 . S
C1597 H1604 0.961 . S
C1597 H1605 0.960 . S
C1598 C1596 1.381 . S
C1598 C1599 1.394 . S
C1598 H1606 0.930 . S
C1599 C1598 1.394 . S
C1599 C1600 1.383 . S
C1599 H1607 0.929 . S
C1600 C1599 1.383 . S
C1600 C1601 1.377 . S
C1601 H1585 0.930 . S
C1601 C1600 1.377 . S
C1601 C1602 1.379 . S
C1602 H1586 0.931 . S
C1602 C1596 1.383 . S
C1602 C1601 1.379 . S
H1603 C1597 0.959 . S
H1604 C1597 0.961 . S
H1605 C1597 0.960 . S
H1606 C1598 0.930 . S
H1607 C1599 0.929 . S
H1608 C1616 0.929 . S
H1609 C1618 0.930 . S
H1610 C1620 0.930 . S
H1611 C1623 0.929 . S
H1612 C1626 0.930 . S
H1613 C1628 0.960 . S
H1614 C1628 0.960 . S
H1615 C1628 0.960 . S
C1616 H1608 0.929 . S
C1616 C1617 1.377 . S
C1616 C1618 1.384 . S
C1617 C1616 1.377 . S
C1617 C1623 1.390 . S
C1618 H1609 0.930 . S
C1618 C1616 1.384 . S
C1618 C1619 1.372 . S
C1619 C1618 1.372 . S
C1619 C1620 1.400 . S
C1619 C1624 1.490 . S
C1620 H1610 0.930 . S
C1620 C1619 1.400 . S
C1620 C1623 1.386 . S
H1621 C1637 0.930 . S
H1622 C1638 0.931 . S
C1623 H1611 0.929 . S
C1623 C1617 1.390 . S
C1623 C1620 1.386 . S
C1624 C1619 1.490 . S
C1624 C1626 1.395 . S
C1624 C1627 1.403 . S
H1625 C1631 0.930 . S
C1626 H1612 0.930 . S
C1626 C1624 1.395 . S
C1626 C1629 1.403 . S
C1627 C1624 1.403 . S
C1627 C1628 1.524 . S
C1627 C1631 1.400 . S
C1628 H1613 0.960 . S
C1628 H1614 0.960 . S
C1628 H1615 0.960 . S
C1628 C1627 1.524 . S
C1629 C1626 1.403 . S
C1629 C1630 1.392 . S
C1629 C1633 1.495 . S
C1630 C1629 1.392 . S
C1630 C1631 1.385 . S
C1630 C1632 1.478 . S
C1631 H1625 0.930 . S
C1631 C1627 1.400 . S
C1631 C1630 1.385 . S
C1632 C1630 1.478 . S
C1632 C1634 1.381 . S
C1632 C1638 1.383 . S
C1633 C1629 1.495 . S
C1633 H1639 0.959 . S
C1633 H1640 0.961 . S
C1633 H1641 0.960 . S
C1634 C1632 1.381 . S
C1634 C1635 1.394 . S
C1634 H1642 0.930 . S
C1635 C1634 1.394 . S
C1635 C1636 1.383 . S
C1635 H1643 0.929 . S
C1636 C1635 1.383 . S
C1636 C1637 1.377 . S
C1637 H1621 0.930 . S
C1637 C1636 1.377 . S
C1637 C1638 1.379 . S
C1638 H1622 0.931 . S
C1638 C1632 1.383 . S
C1638 C1637 1.379 . S
H1639 C1633 0.959 . S
H1640 C1633 0.961 . S
H1641 C1633 0.960 . S
H1642 C1634 0.930 . S
H1643 C1635 0.929 . S
H1644 C1652 0.929 . S
H1645 C1654 0.930 . S
H1646 C1656 0.930 . S
H1647 C1659 0.929 . S
H1648 C1662 0.930 . S
H1649 C1664 0.960 . S
H1650 C1664 0.960 . S
H1651 C1664 0.960 . S
C1652 H1644 0.929 . S
C1652 C1653 1.377 . S
C1652 C1654 1.384 . S
C1653 C1652 1.377 . S
C1653 C1659 1.390 . S
C1654 H1645 0.930 . S
C1654 C1652 1.384 . S
C1654 C1655 1.372 . S
C1655 C1654 1.372 . S
C1655 C1656 1.400 . S
C1655 C1660 1.490 . S
C1656 H1646 0.930 . S
C1656 C1655 1.400 . S
C1656 C1659 1.386 . S
H1657 C1673 0.930 . S
H1658 C1674 0.931 . S
C1659 H1647 0.929 . S
C1659 C1653 1.390 . S
C1659 C1656 1.386 . S
C1660 C1655 1.490 . S
C1660 C1662 1.395 . S
C1660 C1663 1.403 . S
H1661 C1667 0.930 . S
C1662 H1648 0.930 . S
C1662 C1660 1.395 . S
C1662 C1665 1.403 . S
C1663 C1660 1.403 . S
C1663 C1664 1.524 . S
C1663 C1667 1.400 . S
C1664 H1649 0.960 . S
C1664 H1650 0.960 . S
C1664 H1651 0.960 . S
C1664 C1663 1.524 . S
C1665 C1662 1.403 . S
C1665 C1666 1.392 . S
C1665 C1669 1.495 . S
C1666 C1665 1.392 . S
C1666 C1667 1.385 . S
C1666 C1668 1.478 . S
C1667 H1661 0.930 . S
C1667 C1663 1.400 . S
C1667 C1666 1.385 . S
C1668 C1666 1.478 . S
C1668 C1670 1.381 . S
C1668 C1674 1.383 . S
C1669 C1665 1.495 . S
C1669 H1675 0.959 . S
C1669 H1676 0.961 . S
C1669 H1677 0.960 . S
C1670 C1668 1.381 . S
C1670 C1671 1.394 . S
C1670 H1678 0.930 . S
C1671 C1670 1.394 . S
C1671 C1672 1.383 . S
C1671 H1679 0.929 . S
C1672 C1671 1.383 . S
C1672 C1673 1.377 . S
C1673 H1657 0.930 . S
C1673 C1672 1.377 . S
C1673 C1674 1.379 . S
C1674 H1658 0.931 . S
C1674 C1668 1.383 . S
C1674 C1673 1.379 . S
H1675 C1669 0.959 . S
H1676 C1669 0.961 . S
H1677 C1669 0.960 . S
H1678 C1670 0.930 . S
H1679 C1671 0.929 . S
H1680 C1688 0.929 . S
H1681 C1690 0.930 . S
H1682 C1692 0.930 . S
H1683 C1695 0.929 . S
H1684 C1698 0.930 . S
H1685 C1700 0.960 . S
H1686 C1700 0.960 . S
H1687 C1700 0.960 . S
C1688 H1680 0.929 . S
C1688 C1689 1.377 . S
C1688 C1690 1.384 . S
C1689 C1688 1.377 . S
C1689 C1695 1.390 . S
C1690 H1681 0.930 . S
C1690 C1688 1.384 . S
C1690 C1691 1.372 . S
C1691 C1690 1.372 . S
C1691 C1692 1.400 . S
C1691 C1696 1.490 . S
C1692 H1682 0.930 . S
C1692 C1691 1.400 . S
C1692 C1695 1.386 . S
H1693 C1709 0.930 . S
H1694 C1710 0.931 . S
C1695 H1683 0.929 . S
C1695 C1689 1.390 . S
C1695 C1692 1.386 . S
C1696 C1691 1.490 . S
C1696 C1698 1.395 . S
C1696 C1699 1.403 . S
H1697 C1703 0.930 . S
C1698 H1684 0.930 . S
C1698 C1696 1.395 . S
C1698 C1701 1.403 . S
C1699 C1696 1.403 . S
C1699 C1700 1.524 . S
C1699 C1703 1.400 . S
C1700 H1685 0.960 . S
C1700 H1686 0.960 . S
C1700 H1687 0.960 . S
C1700 C1699 1.524 . S
C1701 C1698 1.403 . S
C1701 C1702 1.392 . S
C1701 C1705 1.495 . S
C1702 C1701 1.392 . S
C1702 C1703 1.385 . S
C1702 C1704 1.478 . S
C1703 H1697 0.930 . S
C1703 C1699 1.400 . S
C1703 C1702 1.385 . S
C1704 C1702 1.478 . S
C1704 C1706 1.381 . S
C1704 C1710 1.383 . S
C1705 C1701 1.495 . S
C1705 H1711 0.959 . S
C1705 H1712 0.961 . S
C1705 H1713 0.960 . S
C1706 C1704 1.381 . S
C1706 C1707 1.394 . S
C1706 H1714 0.930 . S
C1707 C1706 1.394 . S
C1707 C1708 1.383 . S
C1707 H1715 0.929 . S
C1708 C1707 1.383 . S
C1708 C1709 1.377 . S
C1709 H1693 0.930 . S
C1709 C1708 1.377 . S
C1709 C1710 1.379 . S
C1710 H1694 0.931 . S
C1710 C1704 1.383 . S
C1710 C1709 1.379 . S
H1711 C1705 0.959 . S
H1712 C1705 0.961 . S
H1713 C1705 0.960 . S
H1714 C1706 0.930 . S
H1715 C1707 0.929 . S
H1716 C1724 0.929 . S
H1717 C1726 0.930 . S
H1718 C1728 0.930 . S
H1719 C1731 0.929 . S
H1720 C1734 0.930 . S
H1721 C1736 0.960 . S
H1722 C1736 0.960 . S
H1723 C1736 0.960 . S
C1724 H1716 0.929 . S
C1724 C1725 1.377 . S
C1724 C1726 1.384 . S
C1725 C1724 1.377 . S
C1725 C1731 1.390 . S
C1726 H1717 0.930 . S
C1726 C1724 1.384 . S
C1726 C1727 1.372 . S
C1727 C1726 1.372 . S
C1727 C1728 1.400 . S
C1727 C1732 1.490 . S
C1728 H1718 0.930 . S
C1728 C1727 1.400 . S
C1728 C1731 1.386 . S
H1729 C1745 0.930 . S
H1730 C1746 0.931 . S
C1731 H1719 0.929 . S
C1731 C1725 1.390 . S
C1731 C1728 1.386 . S
C1732 C1727 1.490 . S
C1732 C1734 1.395 . S
C1732 C1735 1.403 . S
H1733 C1739 0.930 . S
C1734 H1720 0.930 . S
C1734 C1732 1.395 . S
C1734 C1737 1.403 . S
C1735 C1732 1.403 . S
C1735 C1736 1.524 . S
C1735 C1739 1.400 . S
C1736 H1721 0.960 . S
C1736 H1722 0.960 . S
C1736 H1723 0.960 . S
C1736 C1735 1.524 . S
C1737 C1734 1.403 . S
C1737 C1738 1.392 . S
C1737 C1741 1.495 . S
C1738 C1737 1.392 . S
C1738 C1739 1.385 . S
C1738 C1740 1.478 . S
C1739 H1733 0.930 . S
C1739 C1735 1.400 . S
C1739 C1738 1.385 . S
C1740 C1738 1.478 . S
C1740 C1742 1.381 . S
C1740 C1746 1.383 . S
C1741 C1737 1.495 . S
C1741 H1747 0.959 . S
C1741 H1748 0.961 . S
C1741 H1749 0.960 . S
C1742 C1740 1.381 . S
C1742 C1743 1.394 . S
C1742 H1750 0.930 . S
C1743 C1742 1.394 . S
C1743 C1744 1.383 . S
C1743 H1751 0.929 . S
C1744 C1743 1.383 . S
C1744 C1745 1.377 . S
C1745 H1729 0.930 . S
C1745 C1744 1.377 . S
C1745 C1746 1.379 . S
C1746 H1730 0.931 . S
C1746 C1740 1.383 . S
C1746 C1745 1.379 . S
H1747 C1741 0.959 . S
H1748 C1741 0.961 . S
H1749 C1741 0.960 . S
H1750 C1742 0.930 . S
H1751 C1743 0.929 . S
H1752 C1760 0.929 . S
H1753 C1762 0.930 . S
H1754 C1764 0.930 . S
H1755 C1767 0.929 . S
H1756 C1770 0.930 . S
H1757 C1772 0.960 . S
H1758 C1772 0.960 . S
H1759 C1772 0.960 . S
C1760 H1752 0.929 . S
C1760 C1761 1.377 . S
C1760 C1762 1.384 . S
C1761 C1760 1.377 . S
C1761 C1767 1.390 . S
C1762 H1753 0.930 . S
C1762 C1760 1.384 . S
C1762 C1763 1.372 . S
C1763 C1762 1.372 . S
C1763 C1764 1.400 . S
C1763 C1768 1.490 . S
C1764 H1754 0.930 . S
C1764 C1763 1.400 . S
C1764 C1767 1.386 . S
H1765 C1781 0.930 . S
H1766 C1782 0.931 . S
C1767 H1755 0.929 . S
C1767 C1761 1.390 . S
C1767 C1764 1.386 . S
C1768 C1763 1.490 . S
C1768 C1770 1.395 . S
C1768 C1771 1.403 . S
H1769 C1775 0.930 . S
C1770 H1756 0.930 . S
C1770 C1768 1.395 . S
C1770 C1773 1.403 . S
C1771 C1768 1.403 . S
C1771 C1772 1.524 . S
C1771 C1775 1.400 . S
C1772 H1757 0.960 . S
C1772 H1758 0.960 . S
C1772 H1759 0.960 . S
C1772 C1771 1.524 . S
C1773 C1770 1.403 . S
C1773 C1774 1.392 . S
C1773 C1777 1.495 . S
C1774 C1773 1.392 . S
C1774 C1775 1.385 . S
C1774 C1776 1.478 . S
C1775 H1769 0.930 . S
C1775 C1771 1.400 . S
C1775 C1774 1.385 . S
C1776 C1774 1.478 . S
C1776 C1778 1.381 . S
C1776 C1782 1.383 . S
C1777 C1773 1.495 . S
C1777 H1783 0.959 . S
C1777 H1784 0.961 . S
C1777 H1785 0.960 . S
C1778 C1776 1.381 . S
C1778 C1779 1.394 . S
C1778 H1786 0.930 . S
C1779 C1778 1.394 . S
C1779 C1780 1.383 . S
C1779 H1787 0.929 . S
C1780 C1779 1.383 . S
C1780 C1781 1.377 . S
C1781 H1765 0.930 . S
C1781 C1780 1.377 . S
C1781 C1782 1.379 . S
C1782 H1766 0.931 . S
C1782 C1776 1.383 . S
C1782 C1781 1.379 . S
H1783 C1777 0.959 . S
H1784 C1777 0.961 . S
H1785 C1777 0.960 . S
H1786 C1778 0.930 . S
H1787 C1779 0.929 . S
H1788 C1796 0.929 . S
H1789 C1798 0.930 . S
H1790 C1800 0.930 . S
H1791 C1803 0.929 . S
H1792 C1806 0.930 . S
H1793 C1808 0.960 . S
H1794 C1808 0.960 . S
H1795 C1808 0.960 . S
C1796 H1788 0.929 . S
C1796 C1797 1.377 . S
C1796 C1798 1.384 . S
C1797 C1796 1.377 . S
C1797 C1803 1.390 . S
C1798 H1789 0.930 . S
C1798 C1796 1.384 . S
C1798 C1799 1.372 . S
C1799 C1798 1.372 . S
C1799 C1800 1.400 . S
C1799 C1804 1.490 . S
C1800 H1790 0.930 . S
C1800 C1799 1.400 . S
C1800 C1803 1.386 . S
H1801 C1817 0.930 . S
H1802 C1818 0.931 . S
C1803 H1791 0.929 . S
C1803 C1797 1.390 . S
C1803 C1800 1.386 . S
C1804 C1799 1.490 . S
C1804 C1806 1.395 . S
C1804 C1807 1.403 . S
H1805 C1811 0.930 . S
C1806 H1792 0.930 . S
C1806 C1804 1.395 . S
C1806 C1809 1.403 . S
C1807 C1804 1.403 . S
C1807 C1808 1.524 . S
C1807 C1811 1.400 . S
C1808 H1793 0.960 . S
C1808 H1794 0.960 . S
C1808 H1795 0.960 . S
C1808 C1807 1.524 . S
C1809 C1806 1.403 . S
C1809 C1810 1.392 . S
C1809 C1813 1.495 . S
C1810 C1809 1.392 . S
C1810 C1811 1.385 . S
C1810 C1812 1.478 . S
C1811 H1805 0.930 . S
C1811 C1807 1.400 . S
C1811 C1810 1.385 . S
C1812 C1810 1.478 . S
C1812 C1814 1.381 . S
C1812 C1818 1.383 . S
C1813 C1809 1.495 . S
C1813 H1819 0.959 . S
C1813 H1820 0.961 . S
C1813 H1821 0.960 . S
C1814 C1812 1.381 . S
C1814 C1815 1.394 . S
C1814 H1822 0.930 . S
C1815 C1814 1.394 . S
C1815 C1816 1.383 . S
C1815 H1823 0.929 . S
C1816 C1815 1.383 . S
C1816 C1817 1.377 . S
C1817 H1801 0.930 . S
C1817 C1816 1.377 . S
C1817 C1818 1.379 . S
C1818 H1802 0.931 . S
C1818 C1812 1.383 . S
C1818 C1817 1.379 . S
H1819 C1813 0.959 . S
H1820 C1813 0.961 . S
H1821 C1813 0.960 . S
H1822 C1814 0.930 . S
H1823 C1815 0.929 . S
H1824 C1832 0.929 . S
H1825 C1834 0.930 . S
H1826 C1836 0.930 . S
H1827 C1839 0.929 . S
H1828 C1842 0.930 . S
H1829 C1844 0.960 . S
H1830 C1844 0.960 . S
H1831 C1844 0.960 . S
C1832 H1824 0.929 . S
C1832 C1833 1.377 . S
C1832 C1834 1.384 . S
C1833 C1832 1.377 . S
C1833 C1839 1.390 . S
C1834 H1825 0.930 . S
C1834 C1832 1.384 . S
C1834 C1835 1.372 . S
C1835 C1834 1.372 . S
C1835 C1836 1.400 . S
C1835 C1840 1.490 . S
C1836 H1826 0.930 . S
C1836 C1835 1.400 . S
C1836 C1839 1.386 . S
H1837 C1853 0.930 . S
H1838 C1854 0.931 . S
C1839 H1827 0.929 . S
C1839 C1833 1.390 . S
C1839 C1836 1.386 . S
C1840 C1835 1.490 . S
C1840 C1842 1.395 . S
C1840 C1843 1.403 . S
H1841 C1847 0.930 . S
C1842 H1828 0.930 . S
C1842 C1840 1.395 . S
C1842 C1845 1.403 . S
C1843 C1840 1.403 . S
C1843 C1844 1.524 . S
C1843 C1847 1.400 . S
C1844 H1829 0.960 . S
C1844 H1830 0.960 . S
C1844 H1831 0.960 . S
C1844 C1843 1.524 . S
C1845 C1842 1.403 . S
C1845 C1846 1.392 . S
C1845 C1849 1.495 . S
C1846 C1845 1.392 . S
C1846 C1847 1.385 . S
C1846 C1848 1.478 . S
C1847 H1841 0.930 . S
C1847 C1843 1.400 . S
C1847 C1846 1.385 . S
C1848 C1846 1.478 . S
C1848 C1850 1.381 . S
C1848 C1854 1.383 . S
C1849 C1845 1.495 . S
C1849 H1855 0.959 . S
C1849 H1856 0.961 . S
C1849 H1857 0.960 . S
C1850 C1848 1.381 . S
C1850 C1851 1.394 . S
C1850 H1858 0.930 . S
C1851 C1850 1.394 . S
C1851 C1852 1.383 . S
C1851 H1859 0.929 . S
C1852 C1851 1.383 . S
C1852 C1853 1.377 . S
C1853 H1837 0.930 . S
C1853 C1852 1.377 . S
C1853 C1854 1.379 . S
C1854 H1838 0.931 . S
C1854 C1848 1.383 . S
C1854 C1853 1.379 . S
H1855 C1849 0.959 . S
H1856 C1849 0.961 . S
H1857 C1849 0.960 . S
H1858 C1850 0.930 . S
H1859 C1851 0.929 . S
H1860 C1868 0.929 . S
H1861 C1870 0.930 . S
H1862 C1872 0.930 . S
H1863 C1875 0.929 . S
H1864 C1878 0.930 . S
H1865 C1880 0.960 1_545 S
H1866 C1880 0.960 . S
H1867 C1880 0.960 . S
C1868 H1860 0.929 . S
C1868 C1869 1.377 . S
C1868 C1870 1.384 . S
C1869 C1868 1.377 . S
C1869 C1875 1.390 . S
C1870 H1861 0.930 . S
C1870 C1868 1.384 . S
C1870 C1871 1.372 . S
C1871 C1870 1.372 . S
C1871 C1872 1.400 . S
C1871 C1876 1.490 . S
C1872 H1862 0.930 . S
C1872 C1871 1.400 . S
C1872 C1875 1.386 . S
H1873 C1889 0.930 . S
H1874 C1890 0.931 . S
C1875 H1863 0.929 . S
C1875 C1869 1.390 . S
C1875 C1872 1.386 . S
C1876 C1871 1.490 . S
C1876 C1878 1.395 . S
C1876 C1879 1.403 . S
H1877 C1883 0.930 . S
C1878 H1864 0.930 . S
C1878 C1876 1.395 . S
C1878 C1881 1.403 1_565 S
C1879 C1876 1.403 . S
C1879 C1880 1.524 . S
C1879 C1883 1.400 1_565 S
C1880 H1865 0.960 1_565 S
C1880 H1866 0.960 . S
C1880 H1867 0.960 . S
C1880 C1879 1.524 . S
C1881 C1878 1.403 1_545 S
C1881 C1882 1.392 . S
C1881 C1885 1.495 . S
C1882 C1881 1.392 . S
C1882 C1883 1.385 . S
C1882 C1884 1.478 . S
C1883 H1877 0.930 . S
C1883 C1879 1.400 1_545 S
C1883 C1882 1.385 . S
C1884 C1882 1.478 . S
C1884 C1886 1.381 . S
C1884 C1890 1.383 . S
C1885 C1881 1.495 . S
C1885 H1891 0.959 1_545 S
C1885 H1892 0.961 . S
C1885 H1893 0.960 . S
C1886 C1884 1.381 . S
C1886 C1887 1.394 . S
C1886 H1894 0.930 . S
C1887 C1886 1.394 . S
C1887 C1888 1.383 . S
C1887 H1895 0.929 . S
C1888 C1887 1.383 . S
C1888 C1889 1.377 . S
C1889 H1873 0.930 . S
C1889 C1888 1.377 . S
C1889 C1890 1.379 . S
C1890 H1874 0.931 . S
C1890 C1884 1.383 . S
C1890 C1889 1.379 . S
H1891 C1885 0.959 1_565 S
H1892 C1885 0.961 . S
H1893 C1885 0.960 . S
H1894 C1886 0.930 . S
H1895 C1887 0.929 . S
H1896 C1904 0.929 . S
H1897 C1906 0.930 . S
H1898 C1908 0.930 . S
H1899 C1911 0.929 . S
H1900 C1914 0.930 . S
H1901 C1916 0.960 . S
H1902 C1916 0.960 . S
H1903 C1916 0.960 . S
C1904 H1896 0.929 . S
C1904 C1905 1.377 . S
C1904 C1906 1.384 . S
C1905 C1904 1.377 . S
C1905 C1911 1.390 . S
C1906 H1897 0.930 . S
C1906 C1904 1.384 . S
C1906 C1907 1.372 . S
C1907 C1906 1.372 . S
C1907 C1908 1.400 . S
C1907 C1912 1.490 . S
C1908 H1898 0.930 . S
C1908 C1907 1.400 . S
C1908 C1911 1.386 . S
H1909 C1925 0.930 . S
H1910 C1926 0.931 . S
C1911 H1899 0.929 . S
C1911 C1905 1.390 . S
C1911 C1908 1.386 . S
C1912 C1907 1.490 . S
C1912 C1914 1.395 . S
C1912 C1915 1.403 . S
H1913 C1919 0.930 . S
C1914 H1900 0.930 . S
C1914 C1912 1.395 . S
C1914 C1917 1.403 . S
C1915 C1912 1.403 . S
C1915 C1916 1.524 . S
C1915 C1919 1.400 . S
C1916 H1901 0.960 . S
C1916 H1902 0.960 . S
C1916 H1903 0.960 . S
C1916 C1915 1.524 . S
C1917 C1914 1.403 . S
C1917 C1918 1.392 . S
C1917 C1921 1.495 . S
C1918 C1917 1.392 . S
C1918 C1919 1.385 . S
C1918 C1920 1.478 . S
C1919 H1913 0.930 . S
C1919 C1915 1.400 . S
C1919 C1918 1.385 . S
C1920 C1918 1.478 . S
C1920 C1922 1.381 . S
C1920 C1926 1.383 . S
C1921 C1917 1.495 . S
C1921 H1927 0.959 . S
C1921 H1928 0.961 . S
C1921 H1929 0.960 . S
C1922 C1920 1.381 . S
C1922 C1923 1.394 . S
C1922 H1930 0.930 . S
C1923 C1922 1.394 . S
C1923 C1924 1.383 . S
C1923 H1931 0.929 . S
C1924 C1923 1.383 . S
C1924 C1925 1.377 . S
C1925 H1909 0.930 . S
C1925 C1924 1.377 . S
C1925 C1926 1.379 . S
C1926 H1910 0.931 . S
C1926 C1920 1.383 . S
C1926 C1925 1.379 . S
H1927 C1921 0.959 . S
H1928 C1921 0.961 . S
H1929 C1921 0.960 . S
H1930 C1922 0.930 . S
H1931 C1923 0.929 . S
H1932 C1940 0.929 . S
H1933 C1942 0.930 . S
H1934 C1944 0.930 . S
H1935 C1947 0.929 . S
H1936 C1950 0.930 . S
H1937 C1952 0.960 . S
H1938 C1952 0.960 . S
H1939 C1952 0.960 . S
C1940 H1932 0.929 . S
C1940 C1941 1.377 . S
C1940 C1942 1.384 . S
C1941 C1940 1.377 . S
C1941 C1947 1.390 . S
C1942 H1933 0.930 . S
C1942 C1940 1.384 . S
C1942 C1943 1.372 . S
C1943 C1942 1.372 . S
C1943 C1944 1.400 . S
C1943 C1948 1.490 . S
C1944 H1934 0.930 . S
C1944 C1943 1.400 . S
C1944 C1947 1.386 . S
H1945 C1961 0.930 . S
H1946 C1962 0.931 . S
C1947 H1935 0.929 . S
C1947 C1941 1.390 . S
C1947 C1944 1.386 . S
C1948 C1943 1.490 . S
C1948 C1950 1.395 . S
C1948 C1951 1.403 . S
H1949 C1955 0.930 . S
C1950 H1936 0.930 . S
C1950 C1948 1.395 . S
C1950 C1953 1.403 . S
C1951 C1948 1.403 . S
C1951 C1952 1.524 . S
C1951 C1955 1.400 . S
C1952 H1937 0.960 . S
C1952 H1938 0.960 . S
C1952 H1939 0.960 . S
C1952 C1951 1.524 . S
C1953 C1950 1.403 . S
C1953 C1954 1.392 . S
C1953 C1957 1.495 . S
C1954 C1953 1.392 . S
C1954 C1955 1.385 . S
C1954 C1956 1.478 . S
C1955 H1949 0.930 . S
C1955 C1951 1.400 . S
C1955 C1954 1.385 . S
C1956 C1954 1.478 . S
C1956 C1958 1.381 . S
C1956 C1962 1.383 . S
C1957 C1953 1.495 . S
C1957 H1963 0.959 . S
C1957 H1964 0.961 . S
C1957 H1965 0.960 . S
C1958 C1956 1.381 . S
C1958 C1959 1.394 . S
C1958 H1966 0.930 . S
C1959 C1958 1.394 . S
C1959 C1960 1.383 . S
C1959 H1967 0.929 . S
C1960 C1959 1.383 . S
C1960 C1961 1.377 . S
C1961 H1945 0.930 . S
C1961 C1960 1.377 . S
C1961 C1962 1.379 . S
C1962 H1946 0.931 . S
C1962 C1956 1.383 . S
C1962 C1961 1.379 . S
H1963 C1957 0.959 . S
H1964 C1957 0.961 . S
H1965 C1957 0.960 . S
H1966 C1958 0.930 . S
H1967 C1959 0.929 . S
H1968 C1976 0.929 . S
H1969 C1978 0.930 . S
H1970 C1980 0.930 . S
H1971 C1983 0.929 . S
H1972 C1986 0.930 . S
H1973 C1988 0.960 . S
H1974 C1988 0.960 . S
H1975 C1988 0.960 . S
C1976 H1968 0.929 . S
C1976 C1977 1.377 . S
C1976 C1978 1.384 . S
C1977 C1976 1.377 . S
C1977 C1983 1.390 . S
C1978 H1969 0.930 . S
C1978 C1976 1.384 . S
C1978 C1979 1.372 . S
C1979 C1978 1.372 . S
C1979 C1980 1.400 . S
C1979 C1984 1.490 . S
C1980 H1970 0.930 . S
C1980 C1979 1.400 . S
C1980 C1983 1.386 . S
H1981 C1997 0.930 . S
H1982 C1998 0.931 . S
C1983 H1971 0.929 . S
C1983 C1977 1.390 . S
C1983 C1980 1.386 . S
C1984 C1979 1.490 . S
C1984 C1986 1.395 . S
C1984 C1987 1.403 . S
H1985 C1991 0.930 . S
C1986 H1972 0.930 . S
C1986 C1984 1.395 . S
C1986 C1989 1.403 . S
C1987 C1984 1.403 . S
C1987 C1988 1.524 . S
C1987 C1991 1.400 . S
C1988 H1973 0.960 . S
C1988 H1974 0.960 . S
C1988 H1975 0.960 . S
C1988 C1987 1.524 . S
C1989 C1986 1.403 . S
C1989 C1990 1.392 . S
C1989 C1993 1.495 . S
C1990 C1989 1.392 . S
C1990 C1991 1.385 . S
C1990 C1992 1.478 . S
C1991 H1985 0.930 . S
C1991 C1987 1.400 . S
C1991 C1990 1.385 . S
C1992 C1990 1.478 . S
C1992 C1994 1.381 . S
C1992 C1998 1.383 . S
C1993 C1989 1.495 . S
C1993 H1999 0.959 . S
C1993 H2000 0.961 . S
C1993 H2001 0.960 . S
C1994 C1992 1.381 . S
C1994 C1995 1.394 . S
C1994 H2002 0.930 . S
C1995 C1994 1.394 . S
C1995 C1996 1.383 . S
C1995 H2003 0.929 . S
C1996 C1995 1.383 . S
C1996 C1997 1.377 . S
C1997 H1981 0.930 . S
C1997 C1996 1.377 . S
C1997 C1998 1.379 . S
C1998 H1982 0.931 . S
C1998 C1992 1.383 . S
C1998 C1997 1.379 . S
H1999 C1993 0.959 . S
H2000 C1993 0.961 . S
H2001 C1993 0.960 . S
H2002 C1994 0.930 . S
H2003 C1995 0.929 . S
H2004 C2012 0.929 . S
H2005 C2014 0.930 . S
H2006 C2016 0.930 . S
H2007 C2019 0.929 . S
H2008 C2022 0.930 . S
H2009 C2024 0.960 . S
H2010 C2024 0.960 . S
H2011 C2024 0.960 . S
C2012 H2004 0.929 . S
C2012 C2013 1.377 . S
C2012 C2014 1.384 . S
C2013 C2012 1.377 . S
C2013 C2019 1.390 . S
C2014 H2005 0.930 . S
C2014 C2012 1.384 . S
C2014 C2015 1.372 . S
C2015 C2014 1.372 . S
C2015 C2016 1.400 . S
C2015 C2020 1.490 . S
C2016 H2006 0.930 . S
C2016 C2015 1.400 . S
C2016 C2019 1.386 . S
H2017 C2033 0.930 . S
H2018 C2034 0.931 . S
C2019 H2007 0.929 . S
C2019 C2013 1.390 . S
C2019 C2016 1.386 . S
C2020 C2015 1.490 . S
C2020 C2022 1.395 . S
C2020 C2023 1.403 . S
H2021 C2027 0.930 . S
C2022 H2008 0.930 . S
C2022 C2020 1.395 . S
C2022 C2025 1.403 1_565 S
C2023 C2020 1.403 . S
C2023 C2024 1.524 . S
C2023 C2027 1.400 1_565 S
C2024 H2009 0.960 . S
C2024 H2010 0.960 . S
C2024 H2011 0.960 . S
C2024 C2023 1.524 . S
C2025 C2022 1.403 1_545 S
C2025 C2026 1.392 . S
C2025 C2029 1.495 . S
C2026 C2025 1.392 . S
C2026 C2027 1.385 . S
C2026 C2028 1.478 . S
C2027 H2021 0.930 . S
C2027 C2023 1.400 1_545 S
C2027 C2026 1.385 . S
C2028 C2026 1.478 . S
C2028 C2030 1.381 . S
C2028 C2034 1.383 . S
C2029 C2025 1.495 . S
C2029 H2035 0.959 . S
C2029 H2036 0.961 . S
C2029 H2037 0.960 . S
C2030 C2028 1.381 . S
C2030 C2031 1.394 . S
C2030 H2038 0.930 . S
C2031 C2030 1.394 . S
C2031 C2032 1.383 . S
C2031 H2039 0.929 . S
C2032 C2031 1.383 . S
C2032 C2033 1.377 . S
C2033 H2017 0.930 . S
C2033 C2032 1.377 . S
C2033 C2034 1.379 . S
C2034 H2018 0.931 . S
C2034 C2028 1.383 . S
C2034 C2033 1.379 . S
H2035 C2029 0.959 . S
H2036 C2029 0.961 . S
H2037 C2029 0.960 . S
H2038 C2030 0.930 . S
H2039 C2031 0.929 . S
H2040 C2048 0.929 . S
H2041 C2050 0.930 . S
H2042 C2052 0.930 . S
H2043 C2055 0.929 . S
H2044 C2058 0.930 . S
H2045 C2060 0.960 . S
H2046 C2060 0.960 . S
H2047 C2060 0.960 . S
C2048 H2040 0.929 . S
C2048 C2049 1.377 . S
C2048 C2050 1.384 . S
C2049 C2048 1.377 . S
C2049 C2055 1.390 . S
C2050 H2041 0.930 . S
C2050 C2048 1.384 . S
C2050 C2051 1.372 . S
C2051 C2050 1.372 . S
C2051 C2052 1.400 . S
C2051 C2056 1.490 . S
C2052 H2042 0.930 . S
C2052 C2051 1.400 . S
C2052 C2055 1.386 . S
H2053 C2069 0.930 . S
H2054 C2070 0.931 . S
C2055 H2043 0.929 . S
C2055 C2049 1.390 . S
C2055 C2052 1.386 . S
C2056 C2051 1.490 . S
C2056 C2058 1.395 . S
C2056 C2059 1.403 . S
H2057 C2063 0.930 . S
C2058 H2044 0.930 . S
C2058 C2056 1.395 . S
C2058 C2061 1.403 . S
C2059 C2056 1.403 . S
C2059 C2060 1.524 . S
C2059 C2063 1.400 . S
C2060 H2045 0.960 . S
C2060 H2046 0.960 . S
C2060 H2047 0.960 . S
C2060 C2059 1.524 . S
C2061 C2058 1.403 . S
C2061 C2062 1.392 . S
C2061 C2065 1.495 . S
C2062 C2061 1.392 . S
C2062 C2063 1.385 . S
C2062 C2064 1.478 . S
C2063 H2057 0.930 . S
C2063 C2059 1.400 . S
C2063 C2062 1.385 . S
C2064 C2062 1.478 . S
C2064 C2066 1.381 . S
C2064 C2070 1.383 . S
C2065 C2061 1.495 . S
C2065 H2071 0.959 . S
C2065 H2072 0.961 . S
C2065 H2073 0.960 . S
C2066 C2064 1.381 . S
C2066 C2067 1.394 . S
C2066 H2074 0.930 . S
C2067 C2066 1.394 . S
C2067 C2068 1.383 . S
C2067 H2075 0.929 . S
C2068 C2067 1.383 . S
C2068 C2069 1.377 . S
C2069 H2053 0.930 . S
C2069 C2068 1.377 . S
C2069 C2070 1.379 . S
C2070 H2054 0.931 . S
C2070 C2064 1.383 . S
C2070 C2069 1.379 . S
H2071 C2065 0.959 . S
H2072 C2065 0.961 . S
H2073 C2065 0.960 . S
H2074 C2066 0.930 . S
H2075 C2067 0.929 . S
H2076 C2084 0.929 . S
H2077 C2086 0.930 . S
H2078 C2088 0.930 . S
H2079 C2091 0.929 . S
H2080 C2094 0.930 . S
H2081 C2096 0.960 . S
H2082 C2096 0.960 . S
H2083 C2096 0.960 . S
C2084 H2076 0.929 . S
C2084 C2085 1.377 . S
C2084 C2086 1.384 . S
C2085 C2084 1.377 . S
C2085 C2091 1.390 . S
C2086 H2077 0.930 . S
C2086 C2084 1.384 . S
C2086 C2087 1.372 . S
C2087 C2086 1.372 . S
C2087 C2088 1.400 . S
C2087 C2092 1.490 . S
C2088 H2078 0.930 . S
C2088 C2087 1.400 . S
C2088 C2091 1.386 . S
H2089 C2105 0.930 . S
H2090 C2106 0.931 . S
C2091 H2079 0.929 . S
C2091 C2085 1.390 . S
C2091 C2088 1.386 . S
C2092 C2087 1.490 . S
C2092 C2094 1.395 . S
C2092 C2095 1.403 . S
H2093 C2099 0.930 . S
C2094 H2080 0.930 . S
C2094 C2092 1.395 . S
C2094 C2097 1.403 . S
C2095 C2092 1.403 . S
C2095 C2096 1.524 . S
C2095 C2099 1.400 . S
C2096 H2081 0.960 . S
C2096 H2082 0.960 . S
C2096 H2083 0.960 . S
C2096 C2095 1.524 . S
C2097 C2094 1.403 . S
C2097 C2098 1.392 . S
C2097 C2101 1.495 . S
C2098 C2097 1.392 . S
C2098 C2099 1.385 . S
C2098 C2100 1.478 . S
C2099 H2093 0.930 . S
C2099 C2095 1.400 . S
C2099 C2098 1.385 . S
C2100 C2098 1.478 . S
C2100 C2102 1.381 . S
C2100 C2106 1.383 . S
C2101 C2097 1.495 . S
C2101 H2107 0.959 . S
C2101 H2108 0.961 . S
C2101 H2109 0.960 . S
C2102 C2100 1.381 . S
C2102 C2103 1.394 . S
C2102 H2110 0.930 . S
C2103 C2102 1.394 . S
C2103 C2104 1.383 . S
C2103 H2111 0.929 . S
C2104 C2103 1.383 . S
C2104 C2105 1.377 . S
C2105 H2089 0.930 . S
C2105 C2104 1.377 . S
C2105 C2106 1.379 . S
C2106 H2090 0.931 . S
C2106 C2100 1.383 . S
C2106 C2105 1.379 . S
H2107 C2101 0.959 . S
H2108 C2101 0.961 . S
H2109 C2101 0.960 . S
H2110 C2102 0.930 . S
H2111 C2103 0.929 . S
H2112 C2120 0.929 . S
H2113 C2122 0.930 . S
H2114 C2124 0.930 . S
H2115 C2127 0.929 . S
H2116 C2130 0.930 . S
H2117 C2132 0.960 . S
H2118 C2132 0.960 . S
H2119 C2132 0.960 . S
C2120 H2112 0.929 . S
C2120 C2121 1.377 . S
C2120 C2122 1.384 . S
C2121 C2120 1.377 . S
C2121 C2127 1.390 . S
C2122 H2113 0.930 . S
C2122 C2120 1.384 . S
C2122 C2123 1.372 . S
C2123 C2122 1.372 . S
C2123 C2124 1.400 . S
C2123 C2128 1.490 . S
C2124 H2114 0.930 . S
C2124 C2123 1.400 . S
C2124 C2127 1.386 . S
H2125 C2141 0.930 . S
H2126 C2142 0.931 . S
C2127 H2115 0.929 . S
C2127 C2121 1.390 . S
C2127 C2124 1.386 . S
C2128 C2123 1.490 . S
C2128 C2130 1.395 . S
C2128 C2131 1.403 . S
H2129 C2135 0.930 . S
C2130 H2116 0.930 . S
C2130 C2128 1.395 . S
C2130 C2133 1.403 . S
C2131 C2128 1.403 . S
C2131 C2132 1.524 . S
C2131 C2135 1.400 . S
C2132 H2117 0.960 . S
C2132 H2118 0.960 . S
C2132 H2119 0.960 . S
C2132 C2131 1.524 . S
C2133 C2130 1.403 . S
C2133 C2134 1.392 . S
C2133 C2137 1.495 . S
C2134 C2133 1.392 . S
C2134 C2135 1.385 . S
C2134 C2136 1.478 . S
C2135 H2129 0.930 . S
C2135 C2131 1.400 . S
C2135 C2134 1.385 . S
C2136 C2134 1.478 . S
C2136 C2138 1.381 . S
C2136 C2142 1.383 . S
C2137 C2133 1.495 . S
C2137 H2143 0.959 . S
C2137 H2144 0.961 . S
C2137 H2145 0.960 . S
C2138 C2136 1.381 . S
C2138 C2139 1.394 . S
C2138 H2146 0.930 . S
C2139 C2138 1.394 . S
C2139 C2140 1.383 . S
C2139 H2147 0.929 . S
C2140 C2139 1.383 . S
C2140 C2141 1.377 . S
C2141 H2125 0.930 . S
C2141 C2140 1.377 . S
C2141 C2142 1.379 . S
C2142 H2126 0.931 . S
C2142 C2136 1.383 . S
C2142 C2141 1.379 . S
H2143 C2137 0.959 . S
H2144 C2137 0.961 . S
H2145 C2137 0.960 . S
H2146 C2138 0.930 . S
H2147 C2139 0.929 . S
H2148 C2156 0.929 . S
H2149 C2158 0.930 . S
H2150 C2160 0.930 . S
H2151 C2163 0.929 . S
H2152 C2166 0.930 . S
H2153 C2168 0.960 . S
H2154 C2168 0.960 . S
H2155 C2168 0.960 . S
C2156 H2148 0.929 . S
C2156 C2157 1.377 . S
C2156 C2158 1.384 . S
C2157 C2156 1.377 . S
C2157 C2163 1.390 . S
C2158 H2149 0.930 . S
C2158 C2156 1.384 . S
C2158 C2159 1.372 . S
C2159 C2158 1.372 . S
C2159 C2160 1.400 . S
C2159 C2164 1.490 . S
C2160 H2150 0.930 . S
C2160 C2159 1.400 . S
C2160 C2163 1.386 . S
H2161 C2177 0.930 . S
H2162 C2178 0.931 . S
C2163 H2151 0.929 . S
C2163 C2157 1.390 . S
C2163 C2160 1.386 . S
C2164 C2159 1.490 . S
C2164 C2166 1.395 . S
C2164 C2167 1.403 . S
H2165 C2171 0.930 . S
C2166 H2152 0.930 . S
C2166 C2164 1.395 . S
C2166 C2169 1.403 . S
C2167 C2164 1.403 . S
C2167 C2168 1.524 . S
C2167 C2171 1.400 . S
C2168 H2153 0.960 . S
C2168 H2154 0.960 . S
C2168 H2155 0.960 . S
C2168 C2167 1.524 . S
C2169 C2166 1.403 . S
C2169 C2170 1.392 . S
C2169 C2173 1.495 . S
C2170 C2169 1.392 . S
C2170 C2171 1.385 . S
C2170 C2172 1.478 . S
C2171 H2165 0.930 . S
C2171 C2167 1.400 . S
C2171 C2170 1.385 . S
C2172 C2170 1.478 . S
C2172 C2174 1.381 . S
C2172 C2178 1.383 . S
C2173 C2169 1.495 . S
C2173 H2179 0.959 . S
C2173 H2180 0.961 . S
C2173 H2181 0.960 . S
C2174 C2172 1.381 . S
C2174 C2175 1.394 . S
C2174 H2182 0.930 . S
C2175 C2174 1.394 . S
C2175 C2176 1.383 . S
C2175 H2183 0.929 . S
C2176 C2175 1.383 . S
C2176 C2177 1.377 . S
C2177 H2161 0.930 . S
C2177 C2176 1.377 . S
C2177 C2178 1.379 . S
C2178 H2162 0.931 . S
C2178 C2172 1.383 . S
C2178 C2177 1.379 . S
H2179 C2173 0.959 . S
H2180 C2173 0.961 . S
H2181 C2173 0.960 . S
H2182 C2174 0.930 . S
H2183 C2175 0.929 . S
H2184 C2192 0.929 . S
H2185 C2194 0.930 . S
H2186 C2196 0.930 . S
H2187 C2199 0.929 . S
H2188 C2202 0.930 . S
H2189 C2204 0.960 . S
H2190 C2204 0.960 . S
H2191 C2204 0.960 . S
C2192 H2184 0.929 . S
C2192 C2193 1.377 . S
C2192 C2194 1.384 . S
C2193 C2192 1.377 . S
C2193 C2199 1.390 . S
C2194 H2185 0.930 . S
C2194 C2192 1.384 . S
C2194 C2195 1.372 . S
C2195 C2194 1.372 . S
C2195 C2196 1.400 . S
C2195 C2200 1.490 . S
C2196 H2186 0.930 . S
C2196 C2195 1.400 . S
C2196 C2199 1.386 . S
H2197 C2213 0.930 . S
H2198 C2214 0.931 . S
C2199 H2187 0.929 . S
C2199 C2193 1.390 . S
C2199 C2196 1.386 . S
C2200 C2195 1.490 . S
C2200 C2202 1.395 . S
C2200 C2203 1.403 . S
H2201 C2207 0.930 . S
C2202 H2188 0.930 . S
C2202 C2200 1.395 . S
C2202 C2205 1.403 . S
C2203 C2200 1.403 . S
C2203 C2204 1.524 . S
C2203 C2207 1.400 . S
C2204 H2189 0.960 . S
C2204 H2190 0.960 . S
C2204 H2191 0.960 . S
C2204 C2203 1.524 . S
C2205 C2202 1.403 . S
C2205 C2206 1.392 . S
C2205 C2209 1.495 . S
C2206 C2205 1.392 . S
C2206 C2207 1.385 . S
C2206 C2208 1.478 . S
C2207 H2201 0.930 . S
C2207 C2203 1.400 . S
C2207 C2206 1.385 . S
C2208 C2206 1.478 . S
C2208 C2210 1.381 . S
C2208 C2214 1.383 . S
C2209 C2205 1.495 . S
C2209 H2215 0.959 . S
C2209 H2216 0.961 . S
C2209 H2217 0.960 . S
C2210 C2208 1.381 . S
C2210 C2211 1.394 . S
C2210 H2218 0.930 . S
C2211 C2210 1.394 . S
C2211 C2212 1.383 . S
C2211 H2219 0.929 . S
C2212 C2211 1.383 . S
C2212 C2213 1.377 . S
C2213 H2197 0.930 . S
C2213 C2212 1.377 . S
C2213 C2214 1.379 . S
C2214 H2198 0.931 . S
C2214 C2208 1.383 . S
C2214 C2213 1.379 . S
H2215 C2209 0.959 . S
H2216 C2209 0.961 . S
H2217 C2209 0.960 . S
H2218 C2210 0.930 . S
H2219 C2211 0.929 . S
H2220 C2228 0.929 . S
H2221 C2230 0.930 . S
H2222 C2232 0.930 . S
H2223 C2235 0.929 . S
H2224 C2238 0.930 . S
H2225 C2240 0.960 . S
H2226 C2240 0.960 . S
H2227 C2240 0.960 . S
C2228 H2220 0.929 . S
C2228 C2229 1.377 . S
C2228 C2230 1.384 . S
C2229 C2228 1.377 . S
C2229 C2235 1.390 . S
C2230 H2221 0.930 . S
C2230 C2228 1.384 . S
C2230 C2231 1.372 . S
C2231 C2230 1.372 . S
C2231 C2232 1.400 . S
C2231 C2236 1.490 . S
C2232 H2222 0.930 . S
C2232 C2231 1.400 . S
C2232 C2235 1.386 . S
H2233 C2249 0.930 . S
H2234 C2250 0.931 . S
C2235 H2223 0.929 . S
C2235 C2229 1.390 . S
C2235 C2232 1.386 . S
C2236 C2231 1.490 . S
C2236 C2238 1.395 . S
C2236 C2239 1.403 . S
H2237 C2243 0.930 . S
C2238 H2224 0.930 . S
C2238 C2236 1.395 . S
C2238 C2241 1.403 . S
C2239 C2236 1.403 . S
C2239 C2240 1.524 . S
C2239 C2243 1.400 . S
C2240 H2225 0.960 . S
C2240 H2226 0.960 . S
C2240 H2227 0.960 . S
C2240 C2239 1.524 . S
C2241 C2238 1.403 . S
C2241 C2242 1.392 . S
C2241 C2245 1.495 . S
C2242 C2241 1.392 . S
C2242 C2243 1.385 . S
C2242 C2244 1.478 . S
C2243 H2237 0.930 . S
C2243 C2239 1.400 . S
C2243 C2242 1.385 . S
C2244 C2242 1.478 . S
C2244 C2246 1.381 . S
C2244 C2250 1.383 . S
C2245 C2241 1.495 . S
C2245 H2251 0.959 . S
C2245 H2252 0.961 . S
C2245 H2253 0.960 . S
C2246 C2244 1.381 . S
C2246 C2247 1.394 . S
C2246 H2254 0.930 . S
C2247 C2246 1.394 . S
C2247 C2248 1.383 . S
C2247 H2255 0.929 . S
C2248 C2247 1.383 . S
C2248 C2249 1.377 . S
C2249 H2233 0.930 . S
C2249 C2248 1.377 . S
C2249 C2250 1.379 . S
C2250 H2234 0.931 . S
C2250 C2244 1.383 . S
C2250 C2249 1.379 . S
H2251 C2245 0.959 . S
H2252 C2245 0.961 . S
H2253 C2245 0.960 . S
H2254 C2246 0.930 . S
H2255 C2247 0.929 . S
H2256 C2264 0.929 . S
H2257 C2266 0.930 . S
H2258 C2268 0.930 . S
H2259 C2271 0.929 . S
H2260 C2274 0.930 . S
H2261 C2276 1.032 . S
H2262 C2276 0.939 1_455 S
H2263 C2276 0.920 1_455 S
C2264 H2256 0.929 . S
C2264 C2265 1.377 . S
C2264 C2266 1.384 . S
C2265 C2264 1.377 . S
C2265 C2271 1.390 . S
C2266 H2257 0.930 . S
C2266 C2264 1.384 . S
C2266 C2267 1.372 . S
C2267 C2266 1.372 . S
C2267 C2268 1.400 . S
C2267 C2272 1.490 . S
C2268 H2258 0.930 . S
C2268 C2267 1.400 . S
C2268 C2271 1.386 . S
H2269 C2285 0.930 . S
H2270 C2286 0.931 . S
C2271 H2259 0.929 . S
C2271 C2265 1.390 . S
C2271 C2268 1.386 . S
C2272 C2267 1.490 . S
C2272 C2274 1.395 . S
C2272 C2275 1.430 . S
H2273 C2279 0.930 . S
C2274 H2260 0.930 . S
C2274 C2272 1.395 . S
C2274 C2277 1.403 . S
C2275 C2272 1.430 . S
C2275 C2276 1.519 1_455 S
C2275 C2279 1.375 1_455 S
C2276 H2261 1.032 . S
C2276 H2262 0.939 1_655 S
C2276 H2263 0.920 1_655 S
C2276 C2275 1.519 1_655 S
C2277 C2274 1.403 . S
C2277 C2278 1.392 1_455 S
C2277 C2281 1.495 . S
C2278 C2277 1.392 1_655 S
C2278 C2279 1.385 . S
C2278 C2280 1.478 . S
C2279 H2273 0.930 . S
C2279 C2275 1.375 1_655 S
C2279 C2278 1.385 . S
C2280 C2278 1.478 . S
C2280 C2282 1.381 . S
C2280 C2286 1.383 . S
C2281 C2277 1.495 . S
C2281 H2287 0.959 . S
C2281 H2288 0.961 1_455 S
C2281 H2289 0.960 1_455 S
C2282 C2280 1.381 . S
C2282 C2283 1.394 . S
C2282 H2290 0.930 . S
C2283 C2282 1.394 . S
C2283 C2284 1.383 . S
C2283 H2291 0.929 . S
C2284 C2283 1.383 . S
C2284 C2285 1.377 . S
C2285 H2269 0.930 . S
C2285 C2284 1.377 . S
C2285 C2286 1.379 . S
C2286 H2270 0.931 . S
C2286 C2280 1.383 . S
C2286 C2285 1.379 . S
H2287 C2281 0.959 . S
H2288 C2281 0.961 1_655 S
H2289 C2281 0.960 1_655 S
H2290 C2282 0.930 . S
H2291 C2283 0.929 . S
H2292 C2300 0.929 . S
H2293 C2302 0.930 . S
H2294 C2304 0.930 . S
H2295 C2307 0.929 . S
H2296 C2310 0.930 . S
H2297 C2312 0.960 . S
H2298 C2312 0.960 . S
H2299 C2312 0.960 . S
C2300 H2292 0.929 . S
C2300 C2301 1.377 . S
C2300 C2302 1.384 . S
C2301 C2300 1.377 . S
C2301 C2307 1.390 . S
C2302 H2293 0.930 . S
C2302 C2300 1.384 . S
C2302 C2303 1.372 . S
C2303 C2302 1.372 . S
C2303 C2304 1.400 . S
C2303 C2308 1.490 . S
C2304 H2294 0.930 . S
C2304 C2303 1.400 . S
C2304 C2307 1.386 . S
H2305 C2321 0.930 . S
H2306 C2322 0.931 . S
C2307 H2295 0.929 . S
C2307 C2301 1.390 . S
C2307 C2304 1.386 . S
C2308 C2303 1.490 . S
C2308 C2310 1.395 . S
C2308 C2311 1.403 . S
H2309 C2315 0.930 . S
C2310 H2296 0.930 . S
C2310 C2308 1.395 . S
C2310 C2313 1.403 . S
C2311 C2308 1.403 . S
C2311 C2312 1.524 . S
C2311 C2315 1.400 . S
C2312 H2297 0.960 . S
C2312 H2298 0.960 . S
C2312 H2299 0.960 . S
C2312 C2311 1.524 . S
C2313 C2310 1.403 . S
C2313 C2314 1.392 . S
C2313 C2317 1.495 . S
C2314 C2313 1.392 . S
C2314 C2315 1.385 . S
C2314 C2316 1.478 . S
C2315 H2309 0.930 . S
C2315 C2311 1.400 . S
C2315 C2314 1.385 . S
C2316 C2314 1.478 . S
C2316 C2318 1.381 . S
C2316 C2322 1.383 . S
C2317 C2313 1.495 . S
C2317 H2323 0.959 . S
C2317 H2324 0.961 . S
C2317 H2325 0.960 . S
C2318 C2316 1.381 . S
C2318 C2319 1.394 . S
C2318 H2326 0.930 . S
C2319 C2318 1.394 . S
C2319 C2320 1.383 . S
C2319 H2327 0.929 . S
C2320 C2319 1.383 . S
C2320 C2321 1.377 . S
C2321 H2305 0.930 . S
C2321 C2320 1.377 . S
C2321 C2322 1.379 . S
C2322 H2306 0.931 . S
C2322 C2316 1.383 . S
C2322 C2321 1.379 . S
H2323 C2317 0.959 . S
H2324 C2317 0.961 . S
H2325 C2317 0.960 . S
H2326 C2318 0.930 . S
H2327 C2319 0.929 . S
H2328 C2336 0.929 . S
H2329 C2338 0.930 . S
H2330 C2340 0.930 . S
H2331 C2343 0.929 . S
H2332 C2346 0.930 . S
H2333 C2348 0.960 . S
H2334 C2348 0.960 . S
H2335 C2348 0.960 . S
C2336 H2328 0.929 . S
C2336 C2337 1.377 . S
C2336 C2338 1.384 . S
C2337 C2336 1.377 . S
C2337 C2343 1.390 . S
C2338 H2329 0.930 . S
C2338 C2336 1.384 . S
C2338 C2339 1.372 . S
C2339 C2338 1.372 . S
C2339 C2340 1.400 . S
C2339 C2344 1.490 . S
C2340 H2330 0.930 . S
C2340 C2339 1.400 . S
C2340 C2343 1.386 . S
H2341 C2357 0.930 . S
H2342 C2358 0.931 . S
C2343 H2331 0.929 . S
C2343 C2337 1.390 . S
C2343 C2340 1.386 . S
C2344 C2339 1.490 . S
C2344 C2346 1.395 . S
C2344 C2347 1.403 . S
H2345 C2351 0.930 . S
C2346 H2332 0.930 . S
C2346 C2344 1.395 . S
C2346 C2349 1.403 . S
C2347 C2344 1.403 . S
C2347 C2348 1.524 . S
C2347 C2351 1.400 . S
C2348 H2333 0.960 . S
C2348 H2334 0.960 . S
C2348 H2335 0.960 . S
C2348 C2347 1.524 . S
C2349 C2346 1.403 . S
C2349 C2350 1.392 . S
C2349 C2353 1.495 . S
C2350 C2349 1.392 . S
C2350 C2351 1.385 . S
C2350 C2352 1.478 . S
C2351 H2345 0.930 . S
C2351 C2347 1.400 . S
C2351 C2350 1.385 . S
C2352 C2350 1.478 . S
C2352 C2354 1.381 . S
C2352 C2358 1.383 . S
C2353 C2349 1.495 . S
C2353 H2359 0.959 . S
C2353 H2360 0.961 . S
C2353 H2361 0.960 . S
C2354 C2352 1.381 . S
C2354 C2355 1.394 . S
C2354 H2362 0.930 . S
C2355 C2354 1.394 . S
C2355 C2356 1.383 . S
C2355 H2363 0.929 . S
C2356 C2355 1.383 . S
C2356 C2357 1.377 . S
C2357 H2341 0.930 . S
C2357 C2356 1.377 . S
C2357 C2358 1.379 . S
C2358 H2342 0.931 . S
C2358 C2352 1.383 . S
C2358 C2357 1.379 . S
H2359 C2353 0.959 . S
H2360 C2353 0.961 . S
H2361 C2353 0.960 . S
H2362 C2354 0.930 . S
H2363 C2355 0.929 . S
H2364 C2372 0.929 . S
H2365 C2374 0.930 . S
H2366 C2376 0.930 . S
H2367 C2379 0.929 . S
H2368 C2382 0.930 . S
H2369 C2384 0.960 . S
H2370 C2384 0.960 . S
H2371 C2384 0.960 . S
C2372 H2364 0.929 . S
C2372 C2373 1.377 . S
C2372 C2374 1.384 . S
C2373 C2372 1.377 . S
C2373 C2379 1.390 . S
C2374 H2365 0.930 . S
C2374 C2372 1.384 . S
C2374 C2375 1.372 . S
C2375 C2374 1.372 . S
C2375 C2376 1.400 . S
C2375 C2380 1.490 . S
C2376 H2366 0.930 . S
C2376 C2375 1.400 . S
C2376 C2379 1.386 . S
H2377 C2393 0.930 . S
H2378 C2394 0.931 . S
C2379 H2367 0.929 . S
C2379 C2373 1.390 . S
C2379 C2376 1.386 . S
C2380 C2375 1.490 . S
C2380 C2382 1.395 . S
C2380 C2383 1.403 . S
H2381 C2387 0.930 . S
C2382 H2368 0.930 . S
C2382 C2380 1.395 . S
C2382 C2385 1.403 . S
C2383 C2380 1.403 . S
C2383 C2384 1.524 . S
C2383 C2387 1.400 . S
C2384 H2369 0.960 . S
C2384 H2370 0.960 . S
C2384 H2371 0.960 . S
C2384 C2383 1.524 . S
C2385 C2382 1.403 . S
C2385 C2386 1.392 . S
C2385 C2389 1.495 . S
C2386 C2385 1.392 . S
C2386 C2387 1.385 . S
C2386 C2388 1.478 . S
C2387 H2381 0.930 . S
C2387 C2383 1.400 . S
C2387 C2386 1.385 . S
C2388 C2386 1.478 . S
C2388 C2390 1.381 . S
C2388 C2394 1.383 . S
C2389 C2385 1.495 . S
C2389 H2395 0.959 . S
C2389 H2396 0.961 . S
C2389 H2397 0.960 . S
C2390 C2388 1.381 . S
C2390 C2391 1.394 . S
C2390 H2398 0.930 . S
C2391 C2390 1.394 . S
C2391 C2392 1.383 . S
C2391 H2399 0.929 . S
C2392 C2391 1.383 . S
C2392 C2393 1.377 . S
C2393 H2377 0.930 . S
C2393 C2392 1.377 . S
C2393 C2394 1.379 . S
C2394 H2378 0.931 . S
C2394 C2388 1.383 . S
C2394 C2393 1.379 . S
H2395 C2389 0.959 . S
H2396 C2389 0.961 . S
H2397 C2389 0.960 . S
H2398 C2390 0.930 . S
H2399 C2391 0.929 . S
H2400 C2408 0.929 . S
H2401 C2410 0.930 . S
H2402 C2412 0.930 . S
H2403 C2415 0.929 . S
H2404 C2418 0.930 . S
H2405 C2420 0.960 . S
H2406 C2420 0.960 . S
H2407 C2420 0.960 . S
C2408 H2400 0.929 . S
C2408 C2409 1.377 . S
C2408 C2410 1.384 . S
C2409 C2408 1.377 . S
C2409 C2415 1.390 . S
C2410 H2401 0.930 . S
C2410 C2408 1.384 . S
C2410 C2411 1.372 . S
C2411 C2410 1.372 . S
C2411 C2412 1.400 . S
C2411 C2416 1.490 . S
C2412 H2402 0.930 . S
C2412 C2411 1.400 . S
C2412 C2415 1.386 . S
H2413 C2429 0.930 . S
H2414 C2430 0.931 . S
C2415 H2403 0.929 . S
C2415 C2409 1.390 . S
C2415 C2412 1.386 . S
C2416 C2411 1.490 . S
C2416 C2418 1.395 . S
C2416 C2419 1.403 . S
H2417 C2423 0.930 . S
C2418 H2404 0.930 . S
C2418 C2416 1.395 . S
C2418 C2421 1.403 . S
C2419 C2416 1.403 . S
C2419 C2420 1.524 . S
C2419 C2423 1.400 . S
C2420 H2405 0.960 . S
C2420 H2406 0.960 . S
C2420 H2407 0.960 . S
C2420 C2419 1.524 . S
C2421 C2418 1.403 . S
C2421 C2422 1.392 . S
C2421 C2425 1.495 . S
C2422 C2421 1.392 . S
C2422 C2423 1.385 . S
C2422 C2424 1.478 . S
C2423 H2417 0.930 . S
C2423 C2419 1.400 . S
C2423 C2422 1.385 . S
C2424 C2422 1.478 . S
C2424 C2426 1.381 . S
C2424 C2430 1.383 . S
C2425 C2421 1.495 . S
C2425 H2431 0.959 . S
C2425 H2432 0.961 . S
C2425 H2433 0.960 . S
C2426 C2424 1.381 . S
C2426 C2427 1.394 . S
C2426 H2434 0.930 . S
C2427 C2426 1.394 . S
C2427 C2428 1.383 . S
C2427 H2435 0.929 . S
C2428 C2427 1.383 . S
C2428 C2429 1.377 . S
C2429 H2413 0.930 . S
C2429 C2428 1.377 . S
C2429 C2430 1.379 . S
C2430 H2414 0.931 . S
C2430 C2424 1.383 . S
C2430 C2429 1.379 . S
H2431 C2425 0.959 . S
H2432 C2425 0.961 . S
H2433 C2425 0.960 . S
H2434 C2426 0.930 . S
H2435 C2427 0.929 . S
H2436 C2444 0.929 . S
H2437 C2446 0.930 . S
H2438 C2448 0.930 . S
H2439 C2451 0.929 . S
H2440 C2454 0.930 . S
H2441 C2456 0.960 . S
H2442 C2456 0.960 . S
H2443 C2456 0.960 . S
C2444 H2436 0.929 . S
C2444 C2445 1.377 . S
C2444 C2446 1.384 . S
C2445 C2444 1.377 . S
C2445 C2451 1.390 . S
C2446 H2437 0.930 . S
C2446 C2444 1.384 . S
C2446 C2447 1.372 . S
C2447 C2446 1.372 . S
C2447 C2448 1.400 . S
C2447 C2452 1.490 . S
C2448 H2438 0.930 . S
C2448 C2447 1.400 . S
C2448 C2451 1.386 . S
H2449 C2465 0.930 . S
H2450 C2466 0.931 . S
C2451 H2439 0.929 . S
C2451 C2445 1.390 . S
C2451 C2448 1.386 . S
C2452 C2447 1.490 . S
C2452 C2454 1.395 . S
C2452 C2455 1.403 . S
H2453 C2459 0.930 . S
C2454 H2440 0.930 . S
C2454 C2452 1.395 . S
C2454 C2457 1.403 . S
C2455 C2452 1.403 . S
C2455 C2456 1.524 . S
C2455 C2459 1.400 . S
C2456 H2441 0.960 . S
C2456 H2442 0.960 . S
C2456 H2443 0.960 . S
C2456 C2455 1.524 . S
C2457 C2454 1.403 . S
C2457 C2458 1.392 . S
C2457 C2461 1.495 . S
C2458 C2457 1.392 . S
C2458 C2459 1.385 . S
C2458 C2460 1.478 . S
C2459 H2453 0.930 . S
C2459 C2455 1.400 . S
C2459 C2458 1.385 . S
C2460 C2458 1.478 . S
C2460 C2462 1.381 . S
C2460 C2466 1.383 . S
C2461 C2457 1.495 . S
C2461 H2467 0.959 . S
C2461 H2468 0.961 . S
C2461 H2469 0.960 . S
C2462 C2460 1.381 . S
C2462 C2463 1.394 . S
C2462 H2470 0.930 . S
C2463 C2462 1.394 . S
C2463 C2464 1.383 . S
C2463 H2471 0.929 . S
C2464 C2463 1.383 . S
C2464 C2465 1.377 . S
C2465 H2449 0.930 . S
C2465 C2464 1.377 . S
C2465 C2466 1.379 . S
C2466 H2450 0.931 . S
C2466 C2460 1.383 . S
C2466 C2465 1.379 . S
H2467 C2461 0.959 . S
H2468 C2461 0.961 . S
H2469 C2461 0.960 . S
H2470 C2462 0.930 . S
H2471 C2463 0.929 . S
H2472 C2480 0.929 . S
H2473 C2482 0.930 . S
H2474 C2484 0.930 . S
H2475 C2487 0.929 . S
H2476 C2490 0.930 . S
H2477 C2492 0.960 . S
H2478 C2492 0.960 . S
H2479 C2492 0.960 . S
C2480 H2472 0.929 . S
C2480 C2481 1.377 . S
C2480 C2482 1.384 . S
C2481 C2480 1.377 . S
C2481 C2487 1.390 . S
C2482 H2473 0.930 . S
C2482 C2480 1.384 . S
C2482 C2483 1.372 . S
C2483 C2482 1.372 . S
C2483 C2484 1.400 . S
C2483 C2488 1.490 . S
C2484 H2474 0.930 . S
C2484 C2483 1.400 . S
C2484 C2487 1.386 . S
H2485 C2501 0.930 . S
H2486 C2502 0.931 . S
C2487 H2475 0.929 . S
C2487 C2481 1.390 . S
C2487 C2484 1.386 . S
C2488 C2483 1.490 . S
C2488 C2490 1.395 . S
C2488 C2491 1.403 . S
H2489 C2495 0.930 . S
C2490 H2476 0.930 . S
C2490 C2488 1.395 . S
C2490 C2493 1.403 . S
C2491 C2488 1.403 . S
C2491 C2492 1.524 . S
C2491 C2495 1.400 . S
C2492 H2477 0.960 . S
C2492 H2478 0.960 . S
C2492 H2479 0.960 . S
C2492 C2491 1.524 . S
C2493 C2490 1.403 . S
C2493 C2494 1.392 . S
C2493 C2497 1.495 . S
C2494 C2493 1.392 . S
C2494 C2495 1.385 . S
C2494 C2496 1.478 . S
C2495 H2489 0.930 . S
C2495 C2491 1.400 . S
C2495 C2494 1.385 . S
C2496 C2494 1.478 . S
C2496 C2498 1.381 . S
C2496 C2502 1.383 . S
C2497 C2493 1.495 . S
C2497 H2503 0.959 . S
C2497 H2504 0.961 . S
C2497 H2505 0.960 . S
C2498 C2496 1.381 . S
C2498 C2499 1.394 . S
C2498 H2506 0.930 . S
C2499 C2498 1.394 . S
C2499 C2500 1.383 . S
C2499 H2507 0.929 . S
C2500 C2499 1.383 . S
C2500 C2501 1.377 . S
C2501 H2485 0.930 . S
C2501 C2500 1.377 . S
C2501 C2502 1.379 . S
C2502 H2486 0.931 . S
C2502 C2496 1.383 . S
C2502 C2501 1.379 . S
H2503 C2497 0.959 . S
H2504 C2497 0.961 . S
H2505 C2497 0.960 . S
H2506 C2498 0.930 . S
H2507 C2499 0.929 . S
H2508 C2516 0.929 . S
H2509 C2518 0.930 . S
H2510 C2520 0.930 . S
H2511 C2523 0.929 . S
H2512 C2526 0.930 . S
H2513 C2528 0.960 . S
H2514 C2528 0.960 . S
H2515 C2528 0.960 . S
C2516 H2508 0.929 . S
C2516 C2517 1.377 . S
C2516 C2518 1.384 . S
C2517 C2516 1.377 . S
C2517 C2523 1.390 . S
C2518 H2509 0.930 . S
C2518 C2516 1.384 . S
C2518 C2519 1.372 . S
C2519 C2518 1.372 . S
C2519 C2520 1.400 . S
C2519 C2524 1.490 . S
C2520 H2510 0.930 . S
C2520 C2519 1.400 . S
C2520 C2523 1.386 . S
H2521 C2537 0.930 . S
H2522 C2538 0.931 . S
C2523 H2511 0.929 . S
C2523 C2517 1.390 . S
C2523 C2520 1.386 . S
C2524 C2519 1.490 . S
C2524 C2526 1.395 . S
C2524 C2527 1.403 . S
H2525 C2531 0.930 . S
C2526 H2512 0.930 . S
C2526 C2524 1.395 . S
C2526 C2529 1.403 . S
C2527 C2524 1.403 . S
C2527 C2528 1.524 . S
C2527 C2531 1.400 . S
C2528 H2513 0.960 . S
C2528 H2514 0.960 . S
C2528 H2515 0.960 . S
C2528 C2527 1.524 . S
C2529 C2526 1.403 . S
C2529 C2530 1.392 . S
C2529 C2533 1.495 . S
C2530 C2529 1.392 . S
C2530 C2531 1.385 . S
C2530 C2532 1.478 . S
C2531 H2525 0.930 . S
C2531 C2527 1.400 . S
C2531 C2530 1.385 . S
C2532 C2530 1.478 . S
C2532 C2534 1.381 . S
C2532 C2538 1.383 . S
C2533 C2529 1.495 . S
C2533 H2539 0.959 . S
C2533 H2540 0.961 . S
C2533 H2541 0.960 . S
C2534 C2532 1.381 . S
C2534 C2535 1.394 . S
C2534 H2542 0.930 . S
C2535 C2534 1.394 . S
C2535 C2536 1.383 . S
C2535 H2543 0.929 . S
C2536 C2535 1.383 . S
C2536 C2537 1.377 . S
C2537 H2521 0.930 . S
C2537 C2536 1.377 . S
C2537 C2538 1.379 . S
C2538 H2522 0.931 . S
C2538 C2532 1.383 . S
C2538 C2537 1.379 . S
H2539 C2533 0.959 . S
H2540 C2533 0.961 . S
H2541 C2533 0.960 . S
H2542 C2534 0.930 . S
H2543 C2535 0.929 . S
H2544 C2552 0.929 . S
H2545 C2554 0.930 . S
H2546 C2556 0.930 . S
H2547 C2559 0.929 . S
H2548 C2562 0.930 . S
H2549 C2564 0.960 . S
H2550 C2564 0.960 . S
H2551 C2564 0.960 . S
C2552 H2544 0.929 . S
C2552 C2553 1.377 . S
C2552 C2554 1.384 . S
C2553 C2552 1.377 . S
C2553 C2559 1.390 . S
C2554 H2545 0.930 . S
C2554 C2552 1.384 . S
C2554 C2555 1.372 . S
C2555 C2554 1.372 . S
C2555 C2556 1.400 . S
C2555 C2560 1.490 . S
C2556 H2546 0.930 . S
C2556 C2555 1.400 . S
C2556 C2559 1.386 . S
H2557 C2573 0.930 . S
H2558 C2574 0.931 . S
C2559 H2547 0.929 . S
C2559 C2553 1.390 . S
C2559 C2556 1.386 . S
C2560 C2555 1.490 . S
C2560 C2562 1.395 . S
C2560 C2563 1.403 . S
H2561 C2567 0.930 . S
C2562 H2548 0.930 . S
C2562 C2560 1.395 . S
C2562 C2565 1.403 . S
C2563 C2560 1.403 . S
C2563 C2564 1.524 . S
C2563 C2567 1.400 . S
C2564 H2549 0.960 . S
C2564 H2550 0.960 . S
C2564 H2551 0.960 . S
C2564 C2563 1.524 . S
C2565 C2562 1.403 . S
C2565 C2566 1.392 . S
C2565 C2569 1.495 . S
C2566 C2565 1.392 . S
C2566 C2567 1.385 . S
C2566 C2568 1.478 . S
C2567 H2561 0.930 . S
C2567 C2563 1.400 . S
C2567 C2566 1.385 . S
C2568 C2566 1.478 . S
C2568 C2570 1.381 . S
C2568 C2574 1.383 . S
C2569 C2565 1.495 . S
C2569 H2575 0.959 . S
C2569 H2576 0.961 . S
C2569 H2577 0.960 . S
C2570 C2568 1.381 . S
C2570 C2571 1.394 . S
C2570 H2578 0.930 . S
C2571 C2570 1.394 . S
C2571 C2572 1.383 . S
C2571 H2579 0.929 . S
C2572 C2571 1.383 . S
C2572 C2573 1.377 . S
C2573 H2557 0.930 . S
C2573 C2572 1.377 . S
C2573 C2574 1.379 . S
C2574 H2558 0.931 . S
C2574 C2568 1.383 . S
C2574 C2573 1.379 . S
H2575 C2569 0.959 . S
H2576 C2569 0.961 . S
H2577 C2569 0.960 . S
H2578 C2570 0.930 . S
H2579 C2571 0.929 . S
H2580 C2588 0.929 . S
H2581 C2590 0.930 . S
H2582 C2592 0.930 . S
H2583 C2595 0.929 . S
H2584 C2598 0.930 . S
H2585 C2600 0.960 . S
H2586 C2600 0.960 . S
H2587 C2600 0.960 . S
C2588 H2580 0.929 . S
C2588 C2589 1.377 . S
C2588 C2590 1.384 . S
C2589 C2588 1.377 . S
C2589 C2595 1.390 . S
C2590 H2581 0.930 . S
C2590 C2588 1.384 . S
C2590 C2591 1.372 . S
C2591 C2590 1.372 . S
C2591 C2592 1.400 . S
C2591 C2596 1.490 . S
C2592 H2582 0.930 . S
C2592 C2591 1.400 . S
C2592 C2595 1.386 . S
H2593 C2609 0.930 . S
H2594 C2610 0.931 . S
C2595 H2583 0.929 . S
C2595 C2589 1.390 . S
C2595 C2592 1.386 . S
C2596 C2591 1.490 . S
C2596 C2598 1.395 . S
C2596 C2599 1.403 . S
H2597 C2603 0.930 . S
C2598 H2584 0.930 . S
C2598 C2596 1.395 . S
C2598 C2601 1.403 . S
C2599 C2596 1.403 . S
C2599 C2600 1.524 . S
C2599 C2603 1.400 . S
C2600 H2585 0.960 . S
C2600 H2586 0.960 . S
C2600 H2587 0.960 . S
C2600 C2599 1.524 . S
C2601 C2598 1.403 . S
C2601 C2602 1.392 . S
C2601 C2605 1.495 . S
C2602 C2601 1.392 . S
C2602 C2603 1.385 . S
C2602 C2604 1.478 . S
C2603 H2597 0.930 . S
C2603 C2599 1.400 . S
C2603 C2602 1.385 . S
C2604 C2602 1.478 . S
C2604 C2606 1.381 . S
C2604 C2610 1.383 . S
C2605 C2601 1.495 . S
C2605 H2611 0.959 . S
C2605 H2612 0.961 . S
C2605 H2613 0.960 . S
C2606 C2604 1.381 . S
C2606 C2607 1.394 . S
C2606 H2614 0.930 . S
C2607 C2606 1.394 . S
C2607 C2608 1.383 . S
C2607 H2615 0.929 . S
C2608 C2607 1.383 . S
C2608 C2609 1.377 . S
C2609 H2593 0.930 . S
C2609 C2608 1.377 . S
C2609 C2610 1.379 . S
C2610 H2594 0.931 . S
C2610 C2604 1.383 . S
C2610 C2609 1.379 . S
H2611 C2605 0.959 . S
H2612 C2605 0.961 . S
H2613 C2605 0.960 . S
H2614 C2606 0.930 . S
H2615 C2607 0.929 . S
H2616 C2624 0.929 . S
H2617 C2626 0.930 . S
H2618 C2628 0.930 . S
H2619 C2631 0.929 . S
H2620 C2634 0.930 . S
H2621 C2636 0.960 . S
H2622 C2636 0.960 . S
H2623 C2636 0.960 . S
C2624 H2616 0.929 . S
C2624 C2625 1.377 . S
C2624 C2626 1.384 . S
C2625 C2624 1.377 . S
C2625 C2631 1.390 . S
C2626 H2617 0.930 . S
C2626 C2624 1.384 . S
C2626 C2627 1.372 . S
C2627 C2626 1.372 . S
C2627 C2628 1.400 . S
C2627 C2632 1.490 . S
C2628 H2618 0.930 . S
C2628 C2627 1.400 . S
C2628 C2631 1.386 . S
H2629 C2645 0.930 . S
H2630 C2646 0.931 . S
C2631 H2619 0.929 . S
C2631 C2625 1.390 . S
C2631 C2628 1.386 . S
C2632 C2627 1.490 . S
C2632 C2634 1.395 . S
C2632 C2635 1.403 . S
H2633 C2639 0.930 . S
C2634 H2620 0.930 . S
C2634 C2632 1.395 . S
C2634 C2637 1.403 . S
C2635 C2632 1.403 . S
C2635 C2636 1.524 . S
C2635 C2639 1.400 . S
C2636 H2621 0.960 . S
C2636 H2622 0.960 . S
C2636 H2623 0.960 . S
C2636 C2635 1.524 . S
C2637 C2634 1.403 . S
C2637 C2638 1.392 . S
C2637 C2641 1.495 . S
C2638 C2637 1.392 . S
C2638 C2639 1.385 . S
C2638 C2640 1.478 . S
C2639 H2633 0.930 . S
C2639 C2635 1.400 . S
C2639 C2638 1.385 . S
C2640 C2638 1.478 . S
C2640 C2642 1.381 . S
C2640 C2646 1.383 . S
C2641 C2637 1.495 . S
C2641 H2647 0.959 . S
C2641 H2648 0.961 . S
C2641 H2649 0.960 . S
C2642 C2640 1.381 . S
C2642 C2643 1.394 . S
C2642 H2650 0.930 . S
C2643 C2642 1.394 . S
C2643 C2644 1.383 . S
C2643 H2651 0.929 . S
C2644 C2643 1.383 . S
C2644 C2645 1.377 . S
C2645 H2629 0.930 . S
C2645 C2644 1.377 . S
C2645 C2646 1.379 . S
C2646 H2630 0.931 . S
C2646 C2640 1.383 . S
C2646 C2645 1.379 . S
H2647 C2641 0.959 . S
H2648 C2641 0.961 . S
H2649 C2641 0.960 . S
H2650 C2642 0.930 . S
H2651 C2643 0.929 . S
H2652 C2660 0.929 . S
H2653 C2662 0.930 . S
H2654 C2664 0.930 . S
H2655 C2667 0.929 . S
H2656 C2670 0.930 . S
H2657 C2672 0.960 . S
H2658 C2672 0.960 . S
H2659 C2672 0.960 . S
C2660 H2652 0.929 . S
C2660 C2661 1.377 . S
C2660 C2662 1.384 . S
C2661 C2660 1.377 . S
C2661 C2667 1.390 . S
C2662 H2653 0.930 . S
C2662 C2660 1.384 . S
C2662 C2663 1.372 . S
C2663 C2662 1.372 . S
C2663 C2664 1.400 . S
C2663 C2668 1.490 . S
C2664 H2654 0.930 . S
C2664 C2663 1.400 . S
C2664 C2667 1.386 . S
H2665 C2681 0.930 . S
H2666 C2682 0.931 . S
C2667 H2655 0.929 . S
C2667 C2661 1.390 . S
C2667 C2664 1.386 . S
C2668 C2663 1.490 . S
C2668 C2670 1.395 . S
C2668 C2671 1.403 . S
H2669 C2675 0.930 . S
C2670 H2656 0.930 . S
C2670 C2668 1.395 . S
C2670 C2673 1.403 . S
C2671 C2668 1.403 . S
C2671 C2672 1.524 . S
C2671 C2675 1.400 . S
C2672 H2657 0.960 . S
C2672 H2658 0.960 . S
C2672 H2659 0.960 . S
C2672 C2671 1.524 . S
C2673 C2670 1.403 . S
C2673 C2674 1.392 . S
C2673 C2677 1.495 . S
C2674 C2673 1.392 . S
C2674 C2675 1.385 . S
C2674 C2676 1.478 . S
C2675 H2669 0.930 . S
C2675 C2671 1.400 . S
C2675 C2674 1.385 . S
C2676 C2674 1.478 . S
C2676 C2678 1.381 . S
C2676 C2682 1.383 . S
C2677 C2673 1.495 . S
C2677 H2683 0.959 . S
C2677 H2684 0.961 . S
C2677 H2685 0.960 . S
C2678 C2676 1.381 . S
C2678 C2679 1.394 . S
C2678 H2686 0.930 . S
C2679 C2678 1.394 . S
C2679 C2680 1.383 . S
C2679 H2687 0.929 . S
C2680 C2679 1.383 . S
C2680 C2681 1.377 . S
C2681 H2665 0.930 . S
C2681 C2680 1.377 . S
C2681 C2682 1.379 . S
C2682 H2666 0.931 . S
C2682 C2676 1.383 . S
C2682 C2681 1.379 . S
H2683 C2677 0.959 . S
H2684 C2677 0.961 . S
H2685 C2677 0.960 . S
H2686 C2678 0.930 . S
H2687 C2679 0.929 . S
H2688 C2696 0.929 . S
H2689 C2698 0.930 . S
H2690 C2700 0.930 . S
H2691 C2703 0.929 . S
H2692 C2706 0.930 . S
H2693 C2708 0.960 . S
H2694 C2708 0.960 . S
H2695 C2708 0.960 . S
C2696 H2688 0.929 . S
C2696 C2697 1.377 . S
C2696 C2698 1.384 . S
C2697 C2696 1.377 . S
C2697 C2703 1.390 . S
C2698 H2689 0.930 . S
C2698 C2696 1.384 . S
C2698 C2699 1.372 . S
C2699 C2698 1.372 . S
C2699 C2700 1.400 . S
C2699 C2704 1.490 . S
C2700 H2690 0.930 . S
C2700 C2699 1.400 . S
C2700 C2703 1.386 . S
H2701 C2717 0.930 . S
H2702 C2718 0.931 . S
C2703 H2691 0.929 . S
C2703 C2697 1.390 . S
C2703 C2700 1.386 . S
C2704 C2699 1.490 . S
C2704 C2706 1.395 . S
C2704 C2707 1.403 . S
H2705 C2711 0.930 . S
C2706 H2692 0.930 . S
C2706 C2704 1.395 . S
C2706 C2709 1.403 . S
C2707 C2704 1.403 . S
C2707 C2708 1.524 . S
C2707 C2711 1.400 . S
C2708 H2693 0.960 . S
C2708 H2694 0.960 . S
C2708 H2695 0.960 . S
C2708 C2707 1.524 . S
C2709 C2706 1.403 . S
C2709 C2710 1.392 . S
C2709 C2713 1.495 . S
C2710 C2709 1.392 . S
C2710 C2711 1.385 . S
C2710 C2712 1.478 . S
C2711 H2705 0.930 . S
C2711 C2707 1.400 . S
C2711 C2710 1.385 . S
C2712 C2710 1.478 . S
C2712 C2714 1.381 . S
C2712 C2718 1.383 . S
C2713 C2709 1.495 . S
C2713 H2719 0.959 . S
C2713 H2720 0.961 . S
C2713 H2721 0.960 . S
C2714 C2712 1.381 . S
C2714 C2715 1.394 . S
C2714 H2722 0.930 . S
C2715 C2714 1.394 . S
C2715 C2716 1.383 . S
C2715 H2723 0.929 . S
C2716 C2715 1.383 . S
C2716 C2717 1.377 . S
C2717 H2701 0.930 . S
C2717 C2716 1.377 . S
C2717 C2718 1.379 . S
C2718 H2702 0.931 . S
C2718 C2712 1.383 . S
C2718 C2717 1.379 . S
H2719 C2713 0.959 . S
H2720 C2713 0.961 . S
H2721 C2713 0.960 . S
H2722 C2714 0.930 . S
H2723 C2715 0.929 . S
H2724 C2732 0.929 . S
H2725 C2734 0.930 . S
H2726 C2736 0.930 . S
H2727 C2739 0.929 . S
H2728 C2742 0.930 . S
H2729 C2744 0.960 . S
H2730 C2744 0.960 . S
H2731 C2744 0.960 . S
C2732 H2724 0.929 . S
C2732 C2733 1.377 . S
C2732 C2734 1.384 . S
C2733 C2732 1.377 . S
C2733 C2739 1.390 . S
C2734 H2725 0.930 . S
C2734 C2732 1.384 . S
C2734 C2735 1.372 . S
C2735 C2734 1.372 . S
C2735 C2736 1.400 . S
C2735 C2740 1.490 . S
C2736 H2726 0.930 . S
C2736 C2735 1.400 . S
C2736 C2739 1.386 . S
H2737 C2753 0.930 . S
H2738 C2754 0.931 . S
C2739 H2727 0.929 . S
C2739 C2733 1.390 . S
C2739 C2736 1.386 . S
C2740 C2735 1.490 . S
C2740 C2742 1.395 . S
C2740 C2743 1.403 . S
H2741 C2747 0.930 . S
C2742 H2728 0.930 . S
C2742 C2740 1.395 . S
C2742 C2745 1.403 . S
C2743 C2740 1.403 . S
C2743 C2744 1.524 . S
C2743 C2747 1.400 . S
C2744 H2729 0.960 . S
C2744 H2730 0.960 . S
C2744 H2731 0.960 . S
C2744 C2743 1.524 . S
C2745 C2742 1.403 . S
C2745 C2746 1.392 . S
C2745 C2749 1.495 . S
C2746 C2745 1.392 . S
C2746 C2747 1.385 . S
C2746 C2748 1.478 . S
C2747 H2741 0.930 . S
C2747 C2743 1.400 . S
C2747 C2746 1.385 . S
C2748 C2746 1.478 . S
C2748 C2750 1.381 . S
C2748 C2754 1.383 . S
C2749 C2745 1.495 . S
C2749 H2755 0.959 . S
C2749 H2756 0.961 . S
C2749 H2757 0.960 . S
C2750 C2748 1.381 . S
C2750 C2751 1.394 . S
C2750 H2758 0.930 . S
C2751 C2750 1.394 . S
C2751 C2752 1.383 . S
C2751 H2759 0.929 . S
C2752 C2751 1.383 . S
C2752 C2753 1.377 . S
C2753 H2737 0.930 . S
C2753 C2752 1.377 . S
C2753 C2754 1.379 . S
C2754 H2738 0.931 . S
C2754 C2748 1.383 . S
C2754 C2753 1.379 . S
H2755 C2749 0.959 . S
H2756 C2749 0.961 . S
H2757 C2749 0.960 . S
H2758 C2750 0.930 . S
H2759 C2751 0.929 . S
H2760 C2768 0.929 . S
H2761 C2770 0.930 . S
H2762 C2772 0.930 . S
H2763 C2775 0.929 . S
H2764 C2778 0.930 . S
H2765 C2780 0.960 . S
H2766 C2780 0.960 . S
H2767 C2780 0.960 . S
C2768 H2760 0.929 . S
C2768 C2769 1.377 . S
C2768 C2770 1.384 . S
C2769 C2768 1.377 . S
C2769 C2775 1.390 . S
C2770 H2761 0.930 . S
C2770 C2768 1.384 . S
C2770 C2771 1.372 . S
C2771 C2770 1.372 . S
C2771 C2772 1.400 . S
C2771 C2776 1.490 . S
C2772 H2762 0.930 . S
C2772 C2771 1.400 . S
C2772 C2775 1.386 . S
H2773 C2789 0.930 . S
H2774 C2790 0.931 . S
C2775 H2763 0.929 . S
C2775 C2769 1.390 . S
C2775 C2772 1.386 . S
C2776 C2771 1.490 . S
C2776 C2778 1.395 . S
C2776 C2779 1.403 . S
H2777 C2783 0.930 . S
C2778 H2764 0.930 . S
C2778 C2776 1.395 . S
C2778 C2781 1.403 . S
C2779 C2776 1.403 . S
C2779 C2780 1.524 . S
C2779 C2783 1.400 . S
C2780 H2765 0.960 . S
C2780 H2766 0.960 . S
C2780 H2767 0.960 . S
C2780 C2779 1.524 . S
C2781 C2778 1.403 . S
C2781 C2782 1.392 . S
C2781 C2785 1.495 . S
C2782 C2781 1.392 . S
C2782 C2783 1.385 . S
C2782 C2784 1.478 . S
C2783 H2777 0.930 . S
C2783 C2779 1.400 . S
C2783 C2782 1.385 . S
C2784 C2782 1.478 . S
C2784 C2786 1.381 . S
C2784 C2790 1.383 . S
C2785 C2781 1.495 . S
C2785 H2791 0.959 . S
C2785 H2792 0.961 . S
C2785 H2793 0.960 . S
C2786 C2784 1.381 . S
C2786 C2787 1.394 . S
C2786 H2794 0.930 . S
C2787 C2786 1.394 . S
C2787 C2788 1.383 . S
C2787 H2795 0.929 . S
C2788 C2787 1.383 . S
C2788 C2789 1.377 . S
C2789 H2773 0.930 . S
C2789 C2788 1.377 . S
C2789 C2790 1.379 . S
C2790 H2774 0.931 . S
C2790 C2784 1.383 . S
C2790 C2789 1.379 . S
H2791 C2785 0.959 . S
H2792 C2785 0.961 . S
H2793 C2785 0.960 . S
H2794 C2786 0.930 . S
H2795 C2787 0.929 . S
H2796 C2804 0.929 . S
H2797 C2806 0.930 . S
H2798 C2808 0.930 . S
H2799 C2811 0.929 . S
H2800 C2814 0.930 . S
H2801 C2816 0.960 . S
H2802 C2816 0.960 . S
H2803 C2816 0.960 . S
C2804 H2796 0.929 . S
C2804 C2805 1.377 . S
C2804 C2806 1.384 . S
C2805 C2804 1.377 . S
C2805 C2811 1.390 . S
C2806 H2797 0.930 . S
C2806 C2804 1.384 . S
C2806 C2807 1.372 . S
C2807 C2806 1.372 . S
C2807 C2808 1.400 . S
C2807 C2812 1.490 . S
C2808 H2798 0.930 . S
C2808 C2807 1.400 . S
C2808 C2811 1.386 . S
H2809 C2825 0.930 . S
H2810 C2826 0.931 . S
C2811 H2799 0.929 . S
C2811 C2805 1.390 . S
C2811 C2808 1.386 . S
C2812 C2807 1.490 . S
C2812 C2814 1.395 . S
C2812 C2815 1.403 . S
H2813 C2819 0.930 . S
C2814 H2800 0.930 . S
C2814 C2812 1.395 . S
C2814 C2817 1.403 . S
C2815 C2812 1.403 . S
C2815 C2816 1.524 . S
C2815 C2819 1.400 . S
C2816 H2801 0.960 . S
C2816 H2802 0.960 . S
C2816 H2803 0.960 . S
C2816 C2815 1.524 . S
C2817 C2814 1.403 . S
C2817 C2818 1.392 . S
C2817 C2821 1.495 . S
C2818 C2817 1.392 . S
C2818 C2819 1.385 . S
C2818 C2820 1.478 . S
C2819 H2813 0.930 . S
C2819 C2815 1.400 . S
C2819 C2818 1.385 . S
C2820 C2818 1.478 . S
C2820 C2822 1.381 . S
C2820 C2826 1.383 . S
C2821 C2817 1.495 . S
C2821 H2827 0.959 . S
C2821 H2828 0.961 . S
C2821 H2829 0.960 . S
C2822 C2820 1.381 . S
C2822 C2823 1.394 . S
C2822 H2830 0.930 . S
C2823 C2822 1.394 . S
C2823 C2824 1.383 . S
C2823 H2831 0.929 . S
C2824 C2823 1.383 . S
C2824 C2825 1.377 . S
C2825 H2809 0.930 . S
C2825 C2824 1.377 . S
C2825 C2826 1.379 . S
C2826 H2810 0.931 . S
C2826 C2820 1.383 . S
C2826 C2825 1.379 . S
H2827 C2821 0.959 . S
H2828 C2821 0.961 . S
H2829 C2821 0.960 . S
H2830 C2822 0.930 . S
H2831 C2823 0.929 . S
H2832 C2840 0.929 . S
H2833 C2842 0.930 . S
H2834 C2844 0.930 . S
H2835 C2847 0.929 . S
H2836 C2850 0.930 . S
H2837 C2852 0.960 . S
H2838 C2852 0.960 . S
H2839 C2852 0.960 . S
C2840 H2832 0.929 . S
C2840 C2841 1.377 . S
C2840 C2842 1.384 . S
C2841 C2840 1.377 . S
C2841 C2847 1.390 . S
C2842 H2833 0.930 . S
C2842 C2840 1.384 . S
C2842 C2843 1.372 . S
C2843 C2842 1.372 . S
C2843 C2844 1.400 . S
C2843 C2848 1.490 . S
C2844 H2834 0.930 . S
C2844 C2843 1.400 . S
C2844 C2847 1.386 . S
H2845 C2861 0.930 . S
H2846 C2862 0.931 . S
C2847 H2835 0.929 . S
C2847 C2841 1.390 . S
C2847 C2844 1.386 . S
C2848 C2843 1.490 . S
C2848 C2850 1.395 . S
C2848 C2851 1.403 . S
H2849 C2855 0.930 . S
C2850 H2836 0.930 . S
C2850 C2848 1.395 . S
C2850 C2853 1.403 . S
C2851 C2848 1.403 . S
C2851 C2852 1.524 . S
C2851 C2855 1.400 . S
C2852 H2837 0.960 . S
C2852 H2838 0.960 . S
C2852 H2839 0.960 . S
C2852 C2851 1.524 . S
C2853 C2850 1.403 . S
C2853 C2854 1.392 . S
C2853 C2857 1.495 . S
C2854 C2853 1.392 . S
C2854 C2855 1.385 . S
C2854 C2856 1.478 . S
C2855 H2849 0.930 . S
C2855 C2851 1.400 . S
C2855 C2854 1.385 . S
C2856 C2854 1.478 . S
C2856 C2858 1.381 . S
C2856 C2862 1.383 . S
C2857 C2853 1.495 . S
C2857 H2863 0.959 . S
C2857 H2864 0.961 . S
C2857 H2865 0.960 . S
C2858 C2856 1.381 . S
C2858 C2859 1.394 . S
C2858 H2866 0.930 . S
C2859 C2858 1.394 . S
C2859 C2860 1.383 . S
C2859 H2867 0.929 . S
C2860 C2859 1.383 . S
C2860 C2861 1.377 . S
C2861 H2845 0.930 . S
C2861 C2860 1.377 . S
C2861 C2862 1.379 . S
C2862 H2846 0.931 . S
C2862 C2856 1.383 . S
C2862 C2861 1.379 . S
H2863 C2857 0.959 . S
H2864 C2857 0.961 . S
H2865 C2857 0.960 . S
H2866 C2858 0.930 . S
H2867 C2859 0.929 . S
H2868 C2876 0.929 . S
H2869 C2878 0.930 . S
H2870 C2880 0.930 . S
H2871 C2883 0.929 . S
H2872 C2886 0.930 . S
H2873 C2888 0.960 . S
H2874 C2888 0.960 . S
H2875 C2888 0.960 . S
C2876 H2868 0.929 . S
C2876 C2877 1.377 . S
C2876 C2878 1.384 . S
C2877 C2876 1.377 . S
C2877 C2883 1.390 . S
C2878 H2869 0.930 . S
C2878 C2876 1.384 . S
C2878 C2879 1.372 . S
C2879 C2878 1.372 . S
C2879 C2880 1.400 . S
C2879 C2884 1.490 . S
C2880 H2870 0.930 . S
C2880 C2879 1.400 . S
C2880 C2883 1.386 . S
H2881 C2897 0.930 . S
H2882 C2898 0.931 . S
C2883 H2871 0.929 . S
C2883 C2877 1.390 . S
C2883 C2880 1.386 . S
C2884 C2879 1.490 . S
C2884 C2886 1.395 . S
C2884 C2887 1.403 . S
H2885 C2891 0.930 . S
C2886 H2872 0.930 . S
C2886 C2884 1.395 . S
C2886 C2889 1.403 . S
C2887 C2884 1.403 . S
C2887 C2888 1.524 . S
C2887 C2891 1.400 . S
C2888 H2873 0.960 . S
C2888 H2874 0.960 . S
C2888 H2875 0.960 . S
C2888 C2887 1.524 . S
C2889 C2886 1.403 . S
C2889 C2890 1.392 . S
C2889 C2893 1.495 . S
C2890 C2889 1.392 . S
C2890 C2891 1.385 . S
C2890 C2892 1.478 . S
C2891 H2885 0.930 . S
C2891 C2887 1.400 . S
C2891 C2890 1.385 . S
C2892 C2890 1.478 . S
C2892 C2894 1.381 . S
C2892 C2898 1.383 . S
C2893 C2889 1.495 . S
C2893 H2899 0.959 . S
C2893 H2900 0.961 . S
C2893 H2901 0.960 . S
C2894 C2892 1.381 . S
C2894 C2895 1.394 . S
C2894 H2902 0.930 . S
C2895 C2894 1.394 . S
C2895 C2896 1.383 . S
C2895 H2903 0.929 . S
C2896 C2895 1.383 . S
C2896 C2897 1.377 . S
C2897 H2881 0.930 . S
C2897 C2896 1.377 . S
C2897 C2898 1.379 . S
C2898 H2882 0.931 . S
C2898 C2892 1.383 . S
C2898 C2897 1.379 . S
H2899 C2893 0.959 . S
H2900 C2893 0.961 . S
H2901 C2893 0.960 . S
H2902 C2894 0.930 . S
H2903 C2895 0.929 . S
H2904 C2912 0.929 . S
H2905 C2914 0.930 . S
H2906 C2916 0.930 . S
H2907 C2919 0.929 . S
H2908 C2922 0.930 . S
H2909 C2924 0.960 . S
H2910 C2924 0.960 . S
H2911 C2924 0.960 . S
C2912 H2904 0.929 . S
C2912 C2913 1.377 . S
C2912 C2914 1.384 . S
C2913 C2912 1.377 . S
C2913 C2919 1.390 . S
C2914 H2905 0.930 . S
C2914 C2912 1.384 . S
C2914 C2915 1.372 . S
C2915 C2914 1.372 . S
C2915 C2916 1.400 . S
C2915 C2920 1.490 . S
C2916 H2906 0.930 . S
C2916 C2915 1.400 . S
C2916 C2919 1.386 . S
H2917 C2933 0.930 . S
H2918 C2934 0.931 . S
C2919 H2907 0.929 . S
C2919 C2913 1.390 . S
C2919 C2916 1.386 . S
C2920 C2915 1.490 . S
C2920 C2922 1.395 . S
C2920 C2923 1.403 . S
H2921 C2927 0.930 . S
C2922 H2908 0.930 . S
C2922 C2920 1.395 . S
C2922 C2925 1.403 . S
C2923 C2920 1.403 . S
C2923 C2924 1.524 . S
C2923 C2927 1.400 . S
C2924 H2909 0.960 . S
C2924 H2910 0.960 . S
C2924 H2911 0.960 . S
C2924 C2923 1.524 . S
C2925 C2922 1.403 . S
C2925 C2926 1.392 . S
C2925 C2929 1.495 . S
C2926 C2925 1.392 . S
C2926 C2927 1.385 . S
C2926 C2928 1.478 . S
C2927 H2921 0.930 . S
C2927 C2923 1.400 . S
C2927 C2926 1.385 . S
C2928 C2926 1.478 . S
C2928 C2930 1.381 . S
C2928 C2934 1.383 . S
C2929 C2925 1.495 . S
C2929 H2935 0.959 . S
C2929 H2936 0.961 . S
C2929 H2937 0.960 . S
C2930 C2928 1.381 . S
C2930 C2931 1.394 . S
C2930 H2938 0.930 . S
C2931 C2930 1.394 . S
C2931 C2932 1.383 . S
C2931 H2939 0.929 . S
C2932 C2931 1.383 . S
C2932 C2933 1.377 . S
C2933 H2917 0.930 . S
C2933 C2932 1.377 . S
C2933 C2934 1.379 . S
C2934 H2918 0.931 . S
C2934 C2928 1.383 . S
C2934 C2933 1.379 . S
H2935 C2929 0.959 . S
H2936 C2929 0.961 . S
H2937 C2929 0.960 . S
H2938 C2930 0.930 . S
H2939 C2931 0.929 . S
H2940 C2948 0.929 . S
H2941 C2950 0.930 . S
H2942 C2952 0.930 . S
H2943 C2955 0.929 . S
H2944 C2958 0.930 . S
H2945 C2960 0.960 . S
H2946 C2960 0.960 . S
H2947 C2960 0.960 . S
C2948 H2940 0.929 . S
C2948 C2949 1.377 . S
C2948 C2950 1.384 . S
C2949 C2948 1.377 . S
C2949 C2955 1.390 . S
C2950 H2941 0.930 . S
C2950 C2948 1.384 . S
C2950 C2951 1.372 . S
C2951 C2950 1.372 . S
C2951 C2952 1.400 . S
C2951 C2956 1.490 . S
C2952 H2942 0.930 . S
C2952 C2951 1.400 . S
C2952 C2955 1.386 . S
H2953 C2969 0.930 . S
H2954 C2970 0.931 . S
C2955 H2943 0.929 . S
C2955 C2949 1.390 . S
C2955 C2952 1.386 . S
C2956 C2951 1.490 . S
C2956 C2958 1.395 . S
C2956 C2959 1.403 . S
H2957 C2963 0.930 . S
C2958 H2944 0.930 . S
C2958 C2956 1.395 . S
C2958 C2961 1.403 . S
C2959 C2956 1.403 . S
C2959 C2960 1.524 . S
C2959 C2963 1.400 . S
C2960 H2945 0.960 . S
C2960 H2946 0.960 . S
C2960 H2947 0.960 . S
C2960 C2959 1.524 . S
C2961 C2958 1.403 . S
C2961 C2962 1.392 . S
C2961 C2965 1.495 . S
C2962 C2961 1.392 . S
C2962 C2963 1.385 . S
C2962 C2964 1.478 . S
C2963 H2957 0.930 . S
C2963 C2959 1.400 . S
C2963 C2962 1.385 . S
C2964 C2962 1.478 . S
C2964 C2966 1.381 . S
C2964 C2970 1.383 . S
C2965 C2961 1.495 . S
C2965 H2971 0.959 . S
C2965 H2972 0.961 . S
C2965 H2973 0.960 . S
C2966 C2964 1.381 . S
C2966 C2967 1.394 . S
C2966 H2974 0.930 . S
C2967 C2966 1.394 . S
C2967 C2968 1.383 . S
C2967 H2975 0.929 . S
C2968 C2967 1.383 . S
C2968 C2969 1.377 . S
C2969 H2953 0.930 . S
C2969 C2968 1.377 . S
C2969 C2970 1.379 . S
C2970 H2954 0.931 . S
C2970 C2964 1.383 . S
C2970 C2969 1.379 . S
H2971 C2965 0.959 . S
H2972 C2965 0.961 . S
H2973 C2965 0.960 . S
H2974 C2966 0.930 . S
H2975 C2967 0.929 . S
H2976 C2984 0.929 . S
H2977 C2986 0.930 . S
H2978 C2988 0.930 . S
H2979 C2991 0.929 . S
H2980 C2994 0.930 . S
H2981 C2996 0.960 . S
H2982 C2996 0.960 . S
H2983 C2996 0.960 . S
C2984 H2976 0.929 . S
C2984 C2985 1.377 . S
C2984 C2986 1.384 . S
C2985 C2984 1.377 . S
C2985 C2991 1.390 . S
C2986 H2977 0.930 . S
C2986 C2984 1.384 . S
C2986 C2987 1.372 . S
C2987 C2986 1.372 . S
C2987 C2988 1.400 . S
C2987 C2992 1.490 . S
C2988 H2978 0.930 . S
C2988 C2987 1.400 . S
C2988 C2991 1.386 . S
H2989 C3005 0.930 . S
H2990 C3006 0.931 . S
C2991 H2979 0.929 . S
C2991 C2985 1.390 . S
C2991 C2988 1.386 . S
C2992 C2987 1.490 . S
C2992 C2994 1.395 . S
C2992 C2995 1.403 . S
H2993 C2999 0.930 . S
C2994 H2980 0.930 . S
C2994 C2992 1.395 . S
C2994 C2997 1.403 . S
C2995 C2992 1.403 . S
C2995 C2996 1.524 . S
C2995 C2999 1.400 . S
C2996 H2981 0.960 . S
C2996 H2982 0.960 . S
C2996 H2983 0.960 . S
C2996 C2995 1.524 . S
C2997 C2994 1.403 . S
C2997 C2998 1.392 . S
C2997 C3001 1.495 . S
C2998 C2997 1.392 . S
C2998 C2999 1.385 . S
C2998 C3000 1.478 . S
C2999 H2993 0.930 . S
C2999 C2995 1.400 . S
C2999 C2998 1.385 . S
C3000 C2998 1.478 . S
C3000 C3002 1.381 . S
C3000 C3006 1.383 . S
C3001 C2997 1.495 . S
C3001 H3007 0.959 . S
C3001 H3008 0.961 . S
C3001 H3009 0.960 . S
C3002 C3000 1.381 . S
C3002 C3003 1.394 . S
C3002 H3010 0.930 . S
C3003 C3002 1.394 . S
C3003 C3004 1.383 . S
C3003 H3011 0.929 . S
C3004 C3003 1.383 . S
C3004 C3005 1.377 . S
C3005 H2989 0.930 . S
C3005 C3004 1.377 . S
C3005 C3006 1.379 . S
C3006 H2990 0.931 . S
C3006 C3000 1.383 . S
C3006 C3005 1.379 . S
H3007 C3001 0.959 . S
H3008 C3001 0.961 . S
H3009 C3001 0.960 . S
H3010 C3002 0.930 . S
H3011 C3003 0.929 . S
H3012 C3020 0.929 . S
H3013 C3022 0.930 . S
H3014 C3024 0.930 . S
H3015 C3027 0.929 . S
H3016 C3030 0.930 . S
H3017 C3032 0.960 . S
H3018 C3032 0.960 . S
H3019 C3032 0.960 . S
C3020 H3012 0.929 . S
C3020 C3021 1.377 . S
C3020 C3022 1.384 . S
C3021 C3020 1.377 . S
C3021 C3027 1.390 . S
C3022 H3013 0.930 . S
C3022 C3020 1.384 . S
C3022 C3023 1.372 . S
C3023 C3022 1.372 . S
C3023 C3024 1.400 . S
C3023 C3028 1.490 . S
C3024 H3014 0.930 . S
C3024 C3023 1.400 . S
C3024 C3027 1.386 . S
H3025 C3041 0.930 . S
H3026 C3042 0.931 . S
C3027 H3015 0.929 . S
C3027 C3021 1.390 . S
C3027 C3024 1.386 . S
C3028 C3023 1.490 . S
C3028 C3030 1.395 . S
C3028 C3031 1.403 . S
H3029 C3035 0.930 . S
C3030 H3016 0.930 . S
C3030 C3028 1.395 . S
C3030 C3033 1.403 . S
C3031 C3028 1.403 . S
C3031 C3032 1.524 . S
C3031 C3035 1.400 . S
C3032 H3017 0.960 . S
C3032 H3018 0.960 . S
C3032 H3019 0.960 . S
C3032 C3031 1.524 . S
C3033 C3030 1.403 . S
C3033 C3034 1.392 . S
C3033 C3037 1.495 . S
C3034 C3033 1.392 . S
C3034 C3035 1.385 . S
C3034 C3036 1.478 . S
C3035 H3029 0.930 . S
C3035 C3031 1.400 . S
C3035 C3034 1.385 . S
C3036 C3034 1.478 . S
C3036 C3038 1.381 . S
C3036 C3042 1.383 . S
C3037 C3033 1.495 . S
C3037 H3043 0.959 . S
C3037 H3044 0.961 . S
C3037 H3045 0.960 . S
C3038 C3036 1.381 . S
C3038 C3039 1.394 . S
C3038 H3046 0.930 . S
C3039 C3038 1.394 . S
C3039 C3040 1.383 . S
C3039 H3047 0.929 . S
C3040 C3039 1.383 . S
C3040 C3041 1.377 . S
C3041 H3025 0.930 . S
C3041 C3040 1.377 . S
C3041 C3042 1.379 . S
C3042 H3026 0.931 . S
C3042 C3036 1.383 . S
C3042 C3041 1.379 . S
H3043 C3037 0.959 . S
H3044 C3037 0.961 . S
H3045 C3037 0.960 . S
H3046 C3038 0.930 . S
H3047 C3039 0.929 . S
H3048 C3056 0.929 . S
H3049 C3058 0.930 . S
H3050 C3060 0.930 . S
H3051 C3063 0.929 . S
H3052 C3066 0.930 . S
H3053 C3068 0.960 . S
H3054 C3068 0.960 . S
H3055 C3068 0.960 . S
C3056 H3048 0.929 . S
C3056 C3057 1.377 . S
C3056 C3058 1.384 . S
C3057 C3056 1.377 . S
C3057 C3063 1.390 . S
C3058 H3049 0.930 . S
C3058 C3056 1.384 . S
C3058 C3059 1.372 . S
C3059 C3058 1.372 . S
C3059 C3060 1.400 . S
C3059 C3064 1.490 . S
C3060 H3050 0.930 . S
C3060 C3059 1.400 . S
C3060 C3063 1.386 . S
H3061 C3077 0.930 . S
H3062 C3078 0.931 . S
C3063 H3051 0.929 . S
C3063 C3057 1.390 . S
C3063 C3060 1.386 . S
C3064 C3059 1.490 . S
C3064 C3066 1.395 . S
C3064 C3067 1.403 . S
H3065 C3071 0.930 . S
C3066 H3052 0.930 . S
C3066 C3064 1.395 . S
C3066 C3069 1.403 . S
C3067 C3064 1.403 . S
C3067 C3068 1.524 . S
C3067 C3071 1.400 . S
C3068 H3053 0.960 . S
C3068 H3054 0.960 . S
C3068 H3055 0.960 . S
C3068 C3067 1.524 . S
C3069 C3066 1.403 . S
C3069 C3070 1.392 . S
C3069 C3073 1.495 . S
C3070 C3069 1.392 . S
C3070 C3071 1.385 . S
C3070 C3072 1.478 . S
C3071 H3065 0.930 . S
C3071 C3067 1.400 . S
C3071 C3070 1.385 . S
C3072 C3070 1.478 . S
C3072 C3074 1.381 . S
C3072 C3078 1.383 . S
C3073 C3069 1.495 . S
C3073 H3079 0.959 . S
C3073 H3080 0.961 . S
C3073 H3081 0.960 . S
C3074 C3072 1.381 . S
C3074 C3075 1.394 . S
C3074 H3082 0.930 . S
C3075 C3074 1.394 . S
C3075 C3076 1.383 . S
C3075 H3083 0.929 . S
C3076 C3075 1.383 . S
C3076 C3077 1.377 . S
C3077 H3061 0.930 . S
C3077 C3076 1.377 . S
C3077 C3078 1.379 . S
C3078 H3062 0.931 . S
C3078 C3072 1.383 . S
C3078 C3077 1.379 . S
H3079 C3073 0.959 . S
H3080 C3073 0.961 . S
H3081 C3073 0.960 . S
H3082 C3074 0.930 . S
H3083 C3075 0.929 . S
H3084 C3092 0.929 . S
H3085 C3094 0.930 . S
H3086 C3096 0.930 . S
H3087 C3099 0.929 . S
H3088 C3102 0.930 . S
H3089 C3104 0.960 . S
H3090 C3104 0.960 . S
H3091 C3104 0.960 . S
C3092 H3084 0.929 . S
C3092 C3093 1.377 . S
C3092 C3094 1.384 . S
C3093 C3092 1.377 . S
C3093 C3099 1.390 . S
C3094 H3085 0.930 . S
C3094 C3092 1.384 . S
C3094 C3095 1.372 . S
C3095 C3094 1.372 . S
C3095 C3096 1.400 . S
C3095 C3100 1.490 . S
C3096 H3086 0.930 . S
C3096 C3095 1.400 . S
C3096 C3099 1.386 . S
H3097 C3113 0.930 . S
H3098 C3114 0.931 . S
C3099 H3087 0.929 . S
C3099 C3093 1.390 . S
C3099 C3096 1.386 . S
C3100 C3095 1.490 . S
C3100 C3102 1.395 . S
C3100 C3103 1.403 . S
H3101 C3107 0.930 . S
C3102 H3088 0.930 . S
C3102 C3100 1.395 . S
C3102 C3105 1.403 . S
C3103 C3100 1.403 . S
C3103 C3104 1.524 . S
C3103 C3107 1.400 . S
C3104 H3089 0.960 . S
C3104 H3090 0.960 . S
C3104 H3091 0.960 . S
C3104 C3103 1.524 . S
C3105 C3102 1.403 . S
C3105 C3106 1.392 . S
C3105 C3109 1.495 . S
C3106 C3105 1.392 . S
C3106 C3107 1.385 . S
C3106 C3108 1.478 . S
C3107 H3101 0.930 . S
C3107 C3103 1.400 . S
C3107 C3106 1.385 . S
C3108 C3106 1.478 . S
C3108 C3110 1.381 . S
C3108 C3114 1.383 . S
C3109 C3105 1.495 . S
C3109 H3115 0.959 . S
C3109 H3116 0.961 . S
C3109 H3117 0.960 . S
C3110 C3108 1.381 . S
C3110 C3111 1.394 . S
C3110 H3118 0.930 . S
C3111 C3110 1.394 . S
C3111 C3112 1.383 . S
C3111 H3119 0.929 . S
C3112 C3111 1.383 . S
C3112 C3113 1.377 . S
C3113 H3097 0.930 . S
C3113 C3112 1.377 . S
C3113 C3114 1.379 . S
C3114 H3098 0.931 . S
C3114 C3108 1.383 . S
C3114 C3113 1.379 . S
H3115 C3109 0.959 . S
H3116 C3109 0.961 . S
H3117 C3109 0.960 . S
H3118 C3110 0.930 . S
H3119 C3111 0.929 . S
H3120 C3128 0.929 . S
H3121 C3130 0.930 . S
H3122 C3132 0.930 . S
H3123 C3135 0.929 . S
H3124 C3138 0.930 . S
H3125 C3140 0.960 . S
H3126 C3140 0.960 . S
H3127 C3140 0.960 . S
C3128 H3120 0.929 . S
C3128 C3129 1.377 . S
C3128 C3130 1.384 . S
C3129 C3128 1.377 . S
C3129 C3135 1.390 . S
C3130 H3121 0.930 . S
C3130 C3128 1.384 . S
C3130 C3131 1.372 . S
C3131 C3130 1.372 . S
C3131 C3132 1.400 . S
C3131 C3136 1.490 . S
C3132 H3122 0.930 . S
C3132 C3131 1.400 . S
C3132 C3135 1.386 . S
H3133 C3149 0.930 . S
H3134 C3150 0.931 . S
C3135 H3123 0.929 . S
C3135 C3129 1.390 . S
C3135 C3132 1.386 . S
C3136 C3131 1.490 . S
C3136 C3138 1.395 . S
C3136 C3139 1.403 . S
H3137 C3143 0.930 . S
C3138 H3124 0.930 . S
C3138 C3136 1.395 . S
C3138 C3141 1.403 . S
C3139 C3136 1.403 . S
C3139 C3140 1.524 . S
C3139 C3143 1.400 . S
C3140 H3125 0.960 . S
C3140 H3126 0.960 . S
C3140 H3127 0.960 . S
C3140 C3139 1.524 . S
C3141 C3138 1.403 . S
C3141 C3142 1.392 . S
C3141 C3145 1.495 . S
C3142 C3141 1.392 . S
C3142 C3143 1.385 . S
C3142 C3144 1.478 . S
C3143 H3137 0.930 . S
C3143 C3139 1.400 . S
C3143 C3142 1.385 . S
C3144 C3142 1.478 . S
C3144 C3146 1.381 . S
C3144 C3150 1.383 . S
C3145 C3141 1.495 . S
C3145 H3151 0.959 . S
C3145 H3152 0.961 . S
C3145 H3153 0.960 . S
C3146 C3144 1.381 . S
C3146 C3147 1.394 . S
C3146 H3154 0.930 . S
C3147 C3146 1.394 . S
C3147 C3148 1.383 . S
C3147 H3155 0.929 . S
C3148 C3147 1.383 . S
C3148 C3149 1.377 . S
C3149 H3133 0.930 . S
C3149 C3148 1.377 . S
C3149 C3150 1.379 . S
C3150 H3134 0.931 . S
C3150 C3144 1.383 . S
C3150 C3149 1.379 . S
H3151 C3145 0.959 . S
H3152 C3145 0.961 . S
H3153 C3145 0.960 . S
H3154 C3146 0.930 . S
H3155 C3147 0.929 . S
H3156 C3164 0.929 . S
H3157 C3166 0.930 . S
H3158 C3168 0.930 . S
H3159 C3171 0.929 . S
H3160 C3174 0.930 . S
H3161 C3176 0.960 . S
H3162 C3176 0.960 . S
H3163 C3176 0.960 . S
C3164 H3156 0.929 . S
C3164 C3165 1.377 . S
C3164 C3166 1.384 . S
C3165 C3164 1.377 . S
C3165 C3171 1.390 . S
C3166 H3157 0.930 . S
C3166 C3164 1.384 . S
C3166 C3167 1.372 . S
C3167 C3166 1.372 . S
C3167 C3168 1.400 . S
C3167 C3172 1.490 . S
C3168 H3158 0.930 . S
C3168 C3167 1.400 . S
C3168 C3171 1.386 . S
H3169 C3185 0.930 . S
H3170 C3186 0.931 . S
C3171 H3159 0.929 . S
C3171 C3165 1.390 . S
C3171 C3168 1.386 . S
C3172 C3167 1.490 . S
C3172 C3174 1.395 . S
C3172 C3175 1.403 . S
H3173 C3179 0.930 . S
C3174 H3160 0.930 . S
C3174 C3172 1.395 . S
C3174 C3177 1.403 . S
C3175 C3172 1.403 . S
C3175 C3176 1.524 . S
C3175 C3179 1.400 . S
C3176 H3161 0.960 . S
C3176 H3162 0.960 . S
C3176 H3163 0.960 . S
C3176 C3175 1.524 . S
C3177 C3174 1.403 . S
C3177 C3178 1.392 . S
C3177 C3181 1.495 . S
C3178 C3177 1.392 . S
C3178 C3179 1.385 . S
C3178 C3180 1.478 . S
C3179 H3173 0.930 . S
C3179 C3175 1.400 . S
C3179 C3178 1.385 . S
C3180 C3178 1.478 . S
C3180 C3182 1.381 . S
C3180 C3186 1.383 . S
C3181 C3177 1.495 . S
C3181 H3187 0.959 . S
C3181 H3188 0.961 . S
C3181 H3189 0.960 . S
C3182 C3180 1.381 . S
C3182 C3183 1.394 . S
C3182 H3190 0.930 . S
C3183 C3182 1.394 . S
C3183 C3184 1.383 . S
C3183 H3191 0.929 . S
C3184 C3183 1.383 . S
C3184 C3185 1.377 . S
C3185 H3169 0.930 . S
C3185 C3184 1.377 . S
C3185 C3186 1.379 . S
C3186 H3170 0.931 . S
C3186 C3180 1.383 . S
C3186 C3185 1.379 . S
H3187 C3181 0.959 . S
H3188 C3181 0.961 . S
H3189 C3181 0.960 . S
H3190 C3182 0.930 . S
H3191 C3183 0.929 . S
H3192 C3200 0.929 . S
H3193 C3202 0.930 . S
H3194 C3204 0.930 . S
H3195 C3207 0.929 . S
H3196 C3210 0.930 . S
H3197 C3212 0.960 . S
H3198 C3212 0.960 . S
H3199 C3212 0.960 . S
C3200 H3192 0.929 . S
C3200 C3201 1.377 . S
C3200 C3202 1.384 . S
C3201 C3200 1.377 . S
C3201 C3207 1.390 . S
C3202 H3193 0.930 . S
C3202 C3200 1.384 . S
C3202 C3203 1.372 . S
C3203 C3202 1.372 . S
C3203 C3204 1.400 . S
C3203 C3208 1.490 . S
C3204 H3194 0.930 . S
C3204 C3203 1.400 . S
C3204 C3207 1.386 . S
H3205 C3221 0.930 . S
H3206 C3222 0.931 . S
C3207 H3195 0.929 . S
C3207 C3201 1.390 . S
C3207 C3204 1.386 . S
C3208 C3203 1.490 . S
C3208 C3210 1.395 . S
C3208 C3211 1.403 . S
H3209 C3215 0.930 . S
C3210 H3196 0.930 . S
C3210 C3208 1.395 . S
C3210 C3213 1.403 . S
C3211 C3208 1.403 . S
C3211 C3212 1.524 . S
C3211 C3215 1.400 . S
C3212 H3197 0.960 . S
C3212 H3198 0.960 . S
C3212 H3199 0.960 . S
C3212 C3211 1.524 . S
C3213 C3210 1.403 . S
C3213 C3214 1.392 . S
C3213 C3217 1.495 . S
C3214 C3213 1.392 . S
C3214 C3215 1.385 . S
C3214 C3216 1.478 . S
C3215 H3209 0.930 . S
C3215 C3211 1.400 . S
C3215 C3214 1.385 . S
C3216 C3214 1.478 . S
C3216 C3218 1.381 . S
C3216 C3222 1.383 . S
C3217 C3213 1.495 . S
C3217 H3223 0.959 . S
C3217 H3224 0.961 . S
C3217 H3225 0.960 . S
C3218 C3216 1.381 . S
C3218 C3219 1.394 . S
C3218 H3226 0.930 . S
C3219 C3218 1.394 . S
C3219 C3220 1.383 . S
C3219 H3227 0.929 . S
C3220 C3219 1.383 . S
C3220 C3221 1.377 . S
C3221 H3205 0.930 . S
C3221 C3220 1.377 . S
C3221 C3222 1.379 . S
C3222 H3206 0.931 . S
C3222 C3216 1.383 . S
C3222 C3221 1.379 . S
H3223 C3217 0.959 . S
H3224 C3217 0.961 . S
H3225 C3217 0.960 . S
H3226 C3218 0.930 . S
H3227 C3219 0.929 . S
H3228 C3236 0.929 . S
H3229 C3238 0.930 . S
H3230 C3240 0.930 . S
H3231 C3243 0.929 . S
H3232 C3246 0.930 . S
H3233 C3248 0.960 . S
H3234 C3248 0.960 . S
H3235 C3248 0.960 . S
C3236 H3228 0.929 . S
C3236 C3237 1.377 . S
C3236 C3238 1.384 . S
C3237 C3236 1.377 . S
C3237 C3243 1.390 . S
C3238 H3229 0.930 . S
C3238 C3236 1.384 . S
C3238 C3239 1.372 . S
C3239 C3238 1.372 . S
C3239 C3240 1.400 . S
C3239 C3244 1.490 . S
C3240 H3230 0.930 . S
C3240 C3239 1.400 . S
C3240 C3243 1.386 . S
H3241 C3257 0.930 . S
H3242 C3258 0.931 . S
C3243 H3231 0.929 . S
C3243 C3237 1.390 . S
C3243 C3240 1.386 . S
C3244 C3239 1.490 . S
C3244 C3246 1.395 . S
C3244 C3247 1.403 . S
H3245 C3251 0.930 . S
C3246 H3232 0.930 . S
C3246 C3244 1.395 . S
C3246 C3249 1.403 . S
C3247 C3244 1.403 . S
C3247 C3248 1.524 . S
C3247 C3251 1.400 . S
C3248 H3233 0.960 . S
C3248 H3234 0.960 . S
C3248 H3235 0.960 . S
C3248 C3247 1.524 . S
C3249 C3246 1.403 . S
C3249 C3250 1.392 . S
C3249 C3253 1.495 . S
C3250 C3249 1.392 . S
C3250 C3251 1.385 . S
C3250 C3252 1.478 . S
C3251 H3245 0.930 . S
C3251 C3247 1.400 . S
C3251 C3250 1.385 . S
C3252 C3250 1.478 . S
C3252 C3254 1.381 . S
C3252 C3258 1.383 . S
C3253 C3249 1.495 . S
C3253 H3259 0.959 . S
C3253 H3260 0.961 . S
C3253 H3261 0.960 . S
C3254 C3252 1.381 . S
C3254 C3255 1.394 . S
C3254 H3262 0.930 . S
C3255 C3254 1.394 . S
C3255 C3256 1.383 . S
C3255 H3263 0.929 . S
C3256 C3255 1.383 . S
C3256 C3257 1.377 . S
C3257 H3241 0.930 . S
C3257 C3256 1.377 . S
C3257 C3258 1.379 . S
C3258 H3242 0.931 . S
C3258 C3252 1.383 . S
C3258 C3257 1.379 . S
H3259 C3253 0.959 . S
H3260 C3253 0.961 . S
H3261 C3253 0.960 . S
H3262 C3254 0.930 . S
H3263 C3255 0.929 . S
H3264 C3272 0.929 . S
H3265 C3274 0.930 . S
H3266 C3276 0.930 . S
H3267 C3279 0.929 . S
H3268 C3282 0.930 . S
H3269 C3284 0.960 . S
H3270 C3284 0.960 . S
H3271 C3284 0.960 . S
C3272 H3264 0.929 . S
C3272 C3273 1.377 . S
C3272 C3274 1.384 . S
C3273 C3272 1.377 . S
C3273 C3279 1.390 . S
C3274 H3265 0.930 . S
C3274 C3272 1.384 . S
C3274 C3275 1.372 . S
C3275 C3274 1.372 . S
C3275 C3276 1.400 . S
C3275 C3280 1.490 . S
C3276 H3266 0.930 . S
C3276 C3275 1.400 . S
C3276 C3279 1.386 . S
H3277 C3293 0.930 . S
H3278 C3294 0.931 . S
C3279 H3267 0.929 . S
C3279 C3273 1.390 . S
C3279 C3276 1.386 . S
C3280 C3275 1.490 . S
C3280 C3282 1.395 . S
C3280 C3283 1.403 . S
H3281 C3287 0.930 . S
C3282 H3268 0.930 . S
C3282 C3280 1.395 . S
C3282 C3285 1.403 . S
C3283 C3280 1.403 . S
C3283 C3284 1.524 . S
C3283 C3287 1.400 . S
C3284 H3269 0.960 . S
C3284 H3270 0.960 . S
C3284 H3271 0.960 . S
C3284 C3283 1.524 . S
C3285 C3282 1.403 . S
C3285 C3286 1.392 . S
C3285 C3289 1.495 . S
C3286 C3285 1.392 . S
C3286 C3287 1.385 . S
C3286 C3288 1.478 . S
C3287 H3281 0.930 . S
C3287 C3283 1.400 . S
C3287 C3286 1.385 . S
C3288 C3286 1.478 . S
C3288 C3290 1.381 . S
C3288 C3294 1.383 . S
C3289 C3285 1.495 . S
C3289 H3295 0.959 . S
C3289 H3296 0.961 . S
C3289 H3297 0.960 . S
C3290 C3288 1.381 . S
C3290 C3291 1.394 . S
C3290 H3298 0.930 . S
C3291 C3290 1.394 . S
C3291 C3292 1.383 . S
C3291 H3299 0.929 . S
C3292 C3291 1.383 . S
C3292 C3293 1.377 . S
C3293 H3277 0.930 . S
C3293 C3292 1.377 . S
C3293 C3294 1.379 . S
C3294 H3278 0.931 . S
C3294 C3288 1.383 . S
C3294 C3293 1.379 . S
H3295 C3289 0.959 . S
H3296 C3289 0.961 . S
H3297 C3289 0.960 . S
H3298 C3290 0.930 . S
H3299 C3291 0.929 . S
H3300 C3308 0.929 . S
H3301 C3310 0.930 . S
H3302 C3312 0.930 . S
H3303 C3315 0.929 . S
H3304 C3318 0.930 . S
H3305 C3320 0.960 . S
H3306 C3320 0.960 . S
H3307 C3320 0.960 . S
C3308 H3300 0.929 . S
C3308 C3309 1.377 . S
C3308 C3310 1.384 . S
C3309 C3308 1.377 . S
C3309 C3315 1.390 . S
C3310 H3301 0.930 . S
C3310 C3308 1.384 . S
C3310 C3311 1.372 . S
C3311 C3310 1.372 . S
C3311 C3312 1.400 . S
C3311 C3316 1.490 . S
C3312 H3302 0.930 . S
C3312 C3311 1.400 . S
C3312 C3315 1.386 . S
H3313 C3329 0.930 . S
H3314 C3330 0.931 . S
C3315 H3303 0.929 . S
C3315 C3309 1.390 . S
C3315 C3312 1.386 . S
C3316 C3311 1.490 . S
C3316 C3318 1.395 . S
C3316 C3319 1.403 . S
H3317 C3323 0.930 . S
C3318 H3304 0.930 . S
C3318 C3316 1.395 . S
C3318 C3321 1.403 . S
C3319 C3316 1.403 . S
C3319 C3320 1.524 . S
C3319 C3323 1.400 . S
C3320 H3305 0.960 . S
C3320 H3306 0.960 . S
C3320 H3307 0.960 . S
C3320 C3319 1.524 . S
C3321 C3318 1.403 . S
C3321 C3322 1.392 . S
C3321 C3325 1.495 . S
C3322 C3321 1.392 . S
C3322 C3323 1.385 . S
C3322 C3324 1.478 . S
C3323 H3317 0.930 . S
C3323 C3319 1.400 . S
C3323 C3322 1.385 . S
C3324 C3322 1.478 . S
C3324 C3326 1.381 . S
C3324 C3330 1.383 . S
C3325 C3321 1.495 . S
C3325 H3331 0.959 . S
C3325 H3332 0.961 . S
C3325 H3333 0.960 . S
C3326 C3324 1.381 . S
C3326 C3327 1.394 . S
C3326 H3334 0.930 . S
C3327 C3326 1.394 . S
C3327 C3328 1.383 . S
C3327 H3335 0.929 . S
C3328 C3327 1.383 . S
C3328 C3329 1.377 . S
C3329 H3313 0.930 . S
C3329 C3328 1.377 . S
C3329 C3330 1.379 . S
C3330 H3314 0.931 . S
C3330 C3324 1.383 . S
C3330 C3329 1.379 . S
H3331 C3325 0.959 . S
H3332 C3325 0.961 . S
H3333 C3325 0.960 . S
H3334 C3326 0.930 . S
H3335 C3327 0.929 . S
H3336 C3344 0.929 . S
H3337 C3346 0.930 . S
H3338 C3348 0.930 . S
H3339 C3351 0.929 . S
H3340 C3354 0.930 . S
H3341 C3356 0.960 . S
H3342 C3356 0.960 . S
H3343 C3356 0.960 . S
C3344 H3336 0.929 . S
C3344 C3345 1.377 . S
C3344 C3346 1.384 . S
C3345 C3344 1.377 . S
C3345 C3351 1.390 . S
C3346 H3337 0.930 . S
C3346 C3344 1.384 . S
C3346 C3347 1.372 . S
C3347 C3346 1.372 . S
C3347 C3348 1.400 . S
C3347 C3352 1.490 . S
C3348 H3338 0.930 . S
C3348 C3347 1.400 . S
C3348 C3351 1.386 . S
H3349 C3365 0.930 . S
H3350 C3366 0.931 . S
C3351 H3339 0.929 . S
C3351 C3345 1.390 . S
C3351 C3348 1.386 . S
C3352 C3347 1.490 . S
C3352 C3354 1.395 . S
C3352 C3355 1.403 . S
H3353 C3359 0.930 . S
C3354 H3340 0.930 . S
C3354 C3352 1.395 . S
C3354 C3357 1.403 . S
C3355 C3352 1.403 . S
C3355 C3356 1.524 . S
C3355 C3359 1.400 . S
C3356 H3341 0.960 . S
C3356 H3342 0.960 . S
C3356 H3343 0.960 . S
C3356 C3355 1.524 . S
C3357 C3354 1.403 . S
C3357 C3358 1.392 . S
C3357 C3361 1.495 . S
C3358 C3357 1.392 . S
C3358 C3359 1.385 . S
C3358 C3360 1.478 . S
C3359 H3353 0.930 . S
C3359 C3355 1.400 . S
C3359 C3358 1.385 . S
C3360 C3358 1.478 . S
C3360 C3362 1.381 . S
C3360 C3366 1.383 . S
C3361 C3357 1.495 . S
C3361 H3367 0.959 . S
C3361 H3368 0.961 . S
C3361 H3369 0.960 . S
C3362 C3360 1.381 . S
C3362 C3363 1.394 . S
C3362 H3370 0.930 . S
C3363 C3362 1.394 . S
C3363 C3364 1.383 . S
C3363 H3371 0.929 . S
C3364 C3363 1.383 . S
C3364 C3365 1.377 . S
C3365 H3349 0.930 . S
C3365 C3364 1.377 . S
C3365 C3366 1.379 . S
C3366 H3350 0.931 . S
C3366 C3360 1.383 . S
C3366 C3365 1.379 . S
H3367 C3361 0.959 . S
H3368 C3361 0.961 . S
H3369 C3361 0.960 . S
H3370 C3362 0.930 . S
H3371 C3363 0.929 . S
H3372 C3380 0.929 . S
H3373 C3382 0.930 . S
H3374 C3384 0.930 . S
H3375 C3387 0.929 . S
H3376 C3390 0.930 . S
H3377 C3392 0.960 . S
H3378 C3392 0.960 . S
H3379 C3392 0.960 . S
C3380 H3372 0.929 . S
C3380 C3381 1.377 . S
C3380 C3382 1.384 . S
C3381 C3380 1.377 . S
C3381 C3387 1.390 . S
C3382 H3373 0.930 . S
C3382 C3380 1.384 . S
C3382 C3383 1.372 . S
C3383 C3382 1.372 . S
C3383 C3384 1.400 . S
C3383 C3388 1.490 . S
C3384 H3374 0.930 . S
C3384 C3383 1.400 . S
C3384 C3387 1.386 . S
H3385 C3401 0.930 . S
H3386 C3402 0.931 . S
C3387 H3375 0.929 . S
C3387 C3381 1.390 . S
C3387 C3384 1.386 . S
C3388 C3383 1.490 . S
C3388 C3390 1.395 . S
C3388 C3391 1.403 . S
H3389 C3395 0.930 . S
C3390 H3376 0.930 . S
C3390 C3388 1.395 . S
C3390 C3393 1.403 . S
C3391 C3388 1.403 . S
C3391 C3392 1.524 . S
C3391 C3395 1.400 . S
C3392 H3377 0.960 . S
C3392 H3378 0.960 . S
C3392 H3379 0.960 . S
C3392 C3391 1.524 . S
C3393 C3390 1.403 . S
C3393 C3394 1.392 . S
C3393 C3397 1.495 . S
C3394 C3393 1.392 . S
C3394 C3395 1.385 . S
C3394 C3396 1.478 . S
C3395 H3389 0.930 . S
C3395 C3391 1.400 . S
C3395 C3394 1.385 . S
C3396 C3394 1.478 . S
C3396 C3398 1.381 . S
C3396 C3402 1.383 . S
C3397 C3393 1.495 . S
C3397 H3403 0.959 . S
C3397 H3404 0.961 . S
C3397 H3405 0.960 . S
C3398 C3396 1.381 . S
C3398 C3399 1.394 . S
C3398 H3406 0.930 . S
C3399 C3398 1.394 . S
C3399 C3400 1.383 . S
C3399 H3407 0.929 . S
C3400 C3399 1.383 . S
C3400 C3401 1.377 . S
C3401 H3385 0.930 . S
C3401 C3400 1.377 . S
C3401 C3402 1.379 . S
C3402 H3386 0.931 . S
C3402 C3396 1.383 . S
C3402 C3401 1.379 . S
H3403 C3397 0.959 . S
H3404 C3397 0.961 . S
H3405 C3397 0.960 . S
H3406 C3398 0.930 . S
H3407 C3399 0.929 . S
H3408 C3416 0.929 . S
H3409 C3418 0.930 . S
H3410 C3420 0.930 . S
H3411 C3423 0.929 . S
H3412 C3426 0.930 . S
H3413 C3428 0.960 . S
H3414 C3428 0.960 . S
H3415 C3428 0.960 . S
C3416 H3408 0.929 . S
C3416 C3417 1.377 . S
C3416 C3418 1.384 . S
C3417 C3416 1.377 . S
C3417 C3423 1.390 . S
C3418 H3409 0.930 . S
C3418 C3416 1.384 . S
C3418 C3419 1.372 . S
C3419 C3418 1.372 . S
C3419 C3420 1.400 . S
C3419 C3424 1.490 . S
C3420 H3410 0.930 . S
C3420 C3419 1.400 . S
C3420 C3423 1.386 . S
H3421 C3437 0.930 . S
H3422 C3438 0.931 . S
C3423 H3411 0.929 . S
C3423 C3417 1.390 . S
C3423 C3420 1.386 . S
C3424 C3419 1.490 . S
C3424 C3426 1.395 . S
C3424 C3427 1.403 . S
H3425 C3431 0.930 . S
C3426 H3412 0.930 . S
C3426 C3424 1.395 . S
C3426 C3429 1.403 . S
C3427 C3424 1.403 . S
C3427 C3428 1.524 . S
C3427 C3431 1.400 . S
C3428 H3413 0.960 . S
C3428 H3414 0.960 . S
C3428 H3415 0.960 . S
C3428 C3427 1.524 . S
C3429 C3426 1.403 . S
C3429 C3430 1.392 . S
C3429 C3433 1.495 . S
C3430 C3429 1.392 . S
C3430 C3431 1.385 . S
C3430 C3432 1.478 . S
C3431 H3425 0.930 . S
C3431 C3427 1.400 . S
C3431 C3430 1.385 . S
C3432 C3430 1.478 . S
C3432 C3434 1.381 . S
C3432 C3438 1.383 . S
C3433 C3429 1.495 . S
C3433 H3439 0.959 . S
C3433 H3440 0.961 . S
C3433 H3441 0.960 . S
C3434 C3432 1.381 . S
C3434 C3435 1.394 . S
C3434 H3442 0.930 . S
C3435 C3434 1.394 . S
C3435 C3436 1.383 . S
C3435 H3443 0.929 . S
C3436 C3435 1.383 . S
C3436 C3437 1.377 . S
C3437 H3421 0.930 . S
C3437 C3436 1.377 . S
C3437 C3438 1.379 . S
C3438 H3422 0.931 . S
C3438 C3432 1.383 . S
C3438 C3437 1.379 . S
H3439 C3433 0.959 . S
H3440 C3433 0.961 . S
H3441 C3433 0.960 . S
H3442 C3434 0.930 . S
H3443 C3435 0.929 . S
H3444 C3452 0.929 . S
H3445 C3454 0.930 . S
H3446 C3456 0.930 . S
H3447 C3459 0.929 . S
H3448 C3462 0.930 . S
H3449 C3464 0.960 . S
H3450 C3464 0.960 . S
H3451 C3464 0.960 . S
C3452 H3444 0.929 . S
C3452 C3453 1.377 . S
C3452 C3454 1.384 . S
C3453 C3452 1.377 . S
C3453 C3459 1.390 . S
C3454 H3445 0.930 . S
C3454 C3452 1.384 . S
C3454 C3455 1.372 . S
C3455 C3454 1.372 . S
C3455 C3456 1.400 . S
C3455 C3460 1.490 . S
C3456 H3446 0.930 . S
C3456 C3455 1.400 . S
C3456 C3459 1.386 . S
H3457 C3473 0.930 . S
H3458 C3474 0.931 . S
C3459 H3447 0.929 . S
C3459 C3453 1.390 . S
C3459 C3456 1.386 . S
C3460 C3455 1.490 . S
C3460 C3462 1.395 . S
C3460 C3463 1.403 . S
H3461 C3467 0.930 . S
C3462 H3448 0.930 . S
C3462 C3460 1.395 . S
C3462 C3465 1.403 . S
C3463 C3460 1.403 . S
C3463 C3464 1.524 . S
C3463 C3467 1.400 . S
C3464 H3449 0.960 . S
C3464 H3450 0.960 . S
C3464 H3451 0.960 . S
C3464 C3463 1.524 . S
C3465 C3462 1.403 . S
C3465 C3466 1.392 . S
C3465 C3469 1.495 . S
C3466 C3465 1.392 . S
C3466 C3467 1.385 . S
C3466 C3468 1.478 . S
C3467 H3461 0.930 . S
C3467 C3463 1.400 . S
C3467 C3466 1.385 . S
C3468 C3466 1.478 . S
C3468 C3470 1.381 . S
C3468 C3474 1.383 . S
C3469 C3465 1.495 . S
C3469 H3475 0.959 . S
C3469 H3476 0.961 . S
C3469 H3477 0.960 . S
C3470 C3468 1.381 . S
C3470 C3471 1.394 . S
C3470 H3478 0.930 . S
C3471 C3470 1.394 . S
C3471 C3472 1.383 . S
C3471 H3479 0.929 . S
C3472 C3471 1.383 . S
C3472 C3473 1.377 . S
C3473 H3457 0.930 . S
C3473 C3472 1.377 . S
C3473 C3474 1.379 . S
C3474 H3458 0.931 . S
C3474 C3468 1.383 . S
C3474 C3473 1.379 . S
H3475 C3469 0.959 . S
H3476 C3469 0.961 . S
H3477 C3469 0.960 . S
H3478 C3470 0.930 . S
H3479 C3471 0.929 . S
H3480 C3488 0.929 . S
H3481 C3490 0.930 . S
H3482 C3492 0.930 . S
H3483 C3495 0.929 . S
H3484 C3498 0.930 . S
H3485 C3500 0.960 . S
H3486 C3500 0.960 . S
H3487 C3500 0.960 . S
C3488 H3480 0.929 . S
C3488 C3489 1.377 . S
C3488 C3490 1.384 . S
C3489 C3488 1.377 . S
C3489 C3495 1.390 . S
C3490 H3481 0.930 . S
C3490 C3488 1.384 . S
C3490 C3491 1.372 . S
C3491 C3490 1.372 . S
C3491 C3492 1.400 . S
C3491 C3496 1.490 . S
C3492 H3482 0.930 . S
C3492 C3491 1.400 . S
C3492 C3495 1.386 . S
H3493 C3509 0.930 . S
H3494 C3510 0.931 . S
C3495 H3483 0.929 . S
C3495 C3489 1.390 . S
C3495 C3492 1.386 . S
C3496 C3491 1.490 . S
C3496 C3498 1.395 . S
C3496 C3499 1.403 . S
H3497 C3503 0.930 . S
C3498 H3484 0.930 . S
C3498 C3496 1.395 . S
C3498 C3501 1.403 . S
C3499 C3496 1.403 . S
C3499 C3500 1.524 . S
C3499 C3503 1.400 . S
C3500 H3485 0.960 . S
C3500 H3486 0.960 . S
C3500 H3487 0.960 . S
C3500 C3499 1.524 . S
C3501 C3498 1.403 . S
C3501 C3502 1.392 . S
C3501 C3505 1.495 . S
C3502 C3501 1.392 . S
C3502 C3503 1.385 . S
C3502 C3504 1.478 . S
C3503 H3497 0.930 . S
C3503 C3499 1.400 . S
C3503 C3502 1.385 . S
C3504 C3502 1.478 . S
C3504 C3506 1.381 . S
C3504 C3510 1.383 . S
C3505 C3501 1.495 . S
C3505 H3511 0.959 . S
C3505 H3512 0.961 . S
C3505 H3513 0.960 . S
C3506 C3504 1.381 . S
C3506 C3507 1.394 . S
C3506 H3514 0.930 . S
C3507 C3506 1.394 . S
C3507 C3508 1.383 . S
C3507 H3515 0.929 . S
C3508 C3507 1.383 . S
C3508 C3509 1.377 . S
C3509 H3493 0.930 . S
C3509 C3508 1.377 . S
C3509 C3510 1.379 . S
C3510 H3494 0.931 . S
C3510 C3504 1.383 . S
C3510 C3509 1.379 . S
H3511 C3505 0.959 . S
H3512 C3505 0.961 . S
H3513 C3505 0.960 . S
H3514 C3506 0.930 . S
H3515 C3507 0.929 . S
H3516 C3524 0.929 . S
H3517 C3526 0.930 . S
H3518 C3528 0.930 . S
H3519 C3531 0.929 . S
H3520 C3534 0.930 . S
H3521 C3536 0.960 . S
H3522 C3536 0.960 . S
H3523 C3536 0.960 . S
C3524 H3516 0.929 . S
C3524 C3525 1.377 . S
C3524 C3526 1.384 . S
C3525 C3524 1.377 . S
C3525 C3531 1.390 . S
C3526 H3517 0.930 . S
C3526 C3524 1.384 . S
C3526 C3527 1.372 . S
C3527 C3526 1.372 . S
C3527 C3528 1.400 . S
C3527 C3532 1.490 . S
C3528 H3518 0.930 . S
C3528 C3527 1.400 . S
C3528 C3531 1.386 . S
H3529 C3545 0.930 . S
H3530 C3546 0.931 . S
C3531 H3519 0.929 . S
C3531 C3525 1.390 . S
C3531 C3528 1.386 . S
C3532 C3527 1.490 . S
C3532 C3534 1.395 . S
C3532 C3535 1.403 . S
H3533 C3539 0.930 . S
C3534 H3520 0.930 . S
C3534 C3532 1.395 . S
C3534 C3537 1.403 . S
C3535 C3532 1.403 . S
C3535 C3536 1.524 . S
C3535 C3539 1.400 . S
C3536 H3521 0.960 . S
C3536 H3522 0.960 . S
C3536 H3523 0.960 . S
C3536 C3535 1.524 . S
C3537 C3534 1.403 . S
C3537 C3538 1.392 . S
C3537 C3541 1.495 . S
C3538 C3537 1.392 . S
C3538 C3539 1.385 . S
C3538 C3540 1.478 . S
C3539 H3533 0.930 . S
C3539 C3535 1.400 . S
C3539 C3538 1.385 . S
C3540 C3538 1.478 . S
C3540 C3542 1.381 . S
C3540 C3546 1.383 . S
C3541 C3537 1.495 . S
C3541 H3547 0.959 . S
C3541 H3548 0.961 . S
C3541 H3549 0.960 . S
C3542 C3540 1.381 . S
C3542 C3543 1.394 . S
C3542 H3550 0.930 . S
C3543 C3542 1.394 . S
C3543 C3544 1.383 . S
C3543 H3551 0.929 . S
C3544 C3543 1.383 . S
C3544 C3545 1.377 . S
C3545 H3529 0.930 . S
C3545 C3544 1.377 . S
C3545 C3546 1.379 . S
C3546 H3530 0.931 . S
C3546 C3540 1.383 . S
C3546 C3545 1.379 . S
H3547 C3541 0.959 . S
H3548 C3541 0.961 . S
H3549 C3541 0.960 . S
H3550 C3542 0.930 . S
H3551 C3543 0.929 . S
H3552 C3560 0.929 . S
H3553 C3562 0.930 . S
H3554 C3564 0.930 . S
H3555 C3567 0.929 . S
H3556 C3570 0.930 . S
H3557 C3572 0.960 . S
H3558 C3572 0.960 . S
H3559 C3572 0.960 . S
C3560 H3552 0.929 . S
C3560 C3561 1.377 . S
C3560 C3562 1.384 . S
C3561 C3560 1.377 . S
C3561 C3567 1.390 . S
C3562 H3553 0.930 . S
C3562 C3560 1.384 . S
C3562 C3563 1.372 . S
C3563 C3562 1.372 . S
C3563 C3564 1.400 . S
C3563 C3568 1.490 . S
C3564 H3554 0.930 . S
C3564 C3563 1.400 . S
C3564 C3567 1.386 . S
H3565 C3581 0.930 . S
H3566 C3582 0.931 . S
C3567 H3555 0.929 . S
C3567 C3561 1.390 . S
C3567 C3564 1.386 . S
C3568 C3563 1.490 . S
C3568 C3570 1.395 . S
C3568 C3571 1.403 . S
H3569 C3575 0.930 . S
C3570 H3556 0.930 . S
C3570 C3568 1.395 . S
C3570 C3573 1.403 . S
C3571 C3568 1.403 . S
C3571 C3572 1.524 . S
C3571 C3575 1.400 . S
C3572 H3557 0.960 . S
C3572 H3558 0.960 . S
C3572 H3559 0.960 . S
C3572 C3571 1.524 . S
C3573 C3570 1.403 . S
C3573 C3574 1.392 . S
C3573 C3577 1.495 . S
C3574 C3573 1.392 . S
C3574 C3575 1.385 . S
C3574 C3576 1.478 . S
C3575 H3569 0.930 . S
C3575 C3571 1.400 . S
C3575 C3574 1.385 . S
C3576 C3574 1.478 . S
C3576 C3578 1.381 . S
C3576 C3582 1.383 . S
C3577 C3573 1.495 . S
C3577 H3583 0.959 . S
C3577 H3584 0.961 . S
C3577 H3585 0.960 . S
C3578 C3576 1.381 . S
C3578 C3579 1.394 . S
C3578 H3586 0.930 . S
C3579 C3578 1.394 . S
C3579 C3580 1.383 . S
C3579 H3587 0.929 . S
C3580 C3579 1.383 . S
C3580 C3581 1.377 . S
C3581 H3565 0.930 . S
C3581 C3580 1.377 . S
C3581 C3582 1.379 . S
C3582 H3566 0.931 . S
C3582 C3576 1.383 . S
C3582 C3581 1.379 . S
H3583 C3577 0.959 . S
H3584 C3577 0.961 . S
H3585 C3577 0.960 . S
H3586 C3578 0.930 . S
H3587 C3579 0.929 . S
H3588 C3596 0.929 . S
H3589 C3598 0.930 . S
H3590 C3600 0.930 . S
H3591 C3603 0.929 . S
H3592 C3606 0.930 . S
H3593 C3608 0.960 . S
H3594 C3608 0.960 . S
H3595 C3608 0.960 . S
C3596 H3588 0.929 . S
C3596 C3597 1.377 . S
C3596 C3598 1.384 . S
C3597 C3596 1.377 . S
C3597 C3603 1.390 . S
C3598 H3589 0.930 . S
C3598 C3596 1.384 . S
C3598 C3599 1.372 . S
C3599 C3598 1.372 . S
C3599 C3600 1.400 . S
C3599 C3604 1.490 . S
C3600 H3590 0.930 . S
C3600 C3599 1.400 . S
C3600 C3603 1.386 . S
H3601 C3617 0.930 . S
H3602 C3618 0.931 . S
C3603 H3591 0.929 . S
C3603 C3597 1.390 . S
C3603 C3600 1.386 . S
C3604 C3599 1.490 . S
C3604 C3606 1.395 . S
C3604 C3607 1.403 . S
H3605 C3611 0.930 . S
C3606 H3592 0.930 . S
C3606 C3604 1.395 . S
C3606 C3609 1.403 . S
C3607 C3604 1.403 . S
C3607 C3608 1.524 . S
C3607 C3611 1.400 . S
C3608 H3593 0.960 . S
C3608 H3594 0.960 . S
C3608 H3595 0.960 . S
C3608 C3607 1.524 . S
C3609 C3606 1.403 . S
C3609 C3610 1.392 . S
C3609 C3613 1.495 . S
C3610 C3609 1.392 . S
C3610 C3611 1.385 . S
C3610 C3612 1.478 . S
C3611 H3605 0.930 . S
C3611 C3607 1.400 . S
C3611 C3610 1.385 . S
C3612 C3610 1.478 . S
C3612 C3614 1.381 . S
C3612 C3618 1.383 . S
C3613 C3609 1.495 . S
C3613 H3619 0.959 . S
C3613 H3620 0.961 . S
C3613 H3621 0.960 . S
C3614 C3612 1.381 . S
C3614 C3615 1.394 . S
C3614 H3622 0.930 . S
C3615 C3614 1.394 . S
C3615 C3616 1.383 . S
C3615 H3623 0.929 . S
C3616 C3615 1.383 . S
C3616 C3617 1.377 . S
C3617 H3601 0.930 . S
C3617 C3616 1.377 . S
C3617 C3618 1.379 . S
C3618 H3602 0.931 . S
C3618 C3612 1.383 . S
C3618 C3617 1.379 . S
H3619 C3613 0.959 . S
H3620 C3613 0.961 . S
H3621 C3613 0.960 . S
H3622 C3614 0.930 . S
H3623 C3615 0.929 . S
H3624 C3632 0.929 . S
H3625 C3634 0.930 . S
H3626 C3636 0.930 . S
H3627 C3639 0.929 . S
H3628 C3642 0.930 . S
H3629 C3644 0.960 . S
H3630 C3644 0.960 . S
H3631 C3644 0.960 . S
C3632 H3624 0.929 . S
C3632 C3633 1.377 . S
C3632 C3634 1.384 . S
C3633 C3632 1.377 . S
C3633 C3639 1.390 . S
C3634 H3625 0.930 . S
C3634 C3632 1.384 . S
C3634 C3635 1.372 . S
C3635 C3634 1.372 . S
C3635 C3636 1.400 . S
C3635 C3640 1.490 . S
C3636 H3626 0.930 . S
C3636 C3635 1.400 . S
C3636 C3639 1.386 . S
H3637 C3653 0.930 . S
H3638 C3654 0.931 . S
C3639 H3627 0.929 . S
C3639 C3633 1.390 . S
C3639 C3636 1.386 . S
C3640 C3635 1.490 . S
C3640 C3642 1.395 . S
C3640 C3643 1.403 . S
H3641 C3647 0.930 . S
C3642 H3628 0.930 . S
C3642 C3640 1.395 . S
C3642 C3645 1.403 . S
C3643 C3640 1.403 . S
C3643 C3644 1.524 . S
C3643 C3647 1.400 . S
C3644 H3629 0.960 . S
C3644 H3630 0.960 . S
C3644 H3631 0.960 . S
C3644 C3643 1.524 . S
C3645 C3642 1.403 . S
C3645 C3646 1.392 . S
C3645 C3649 1.495 . S
C3646 C3645 1.392 . S
C3646 C3647 1.385 . S
C3646 C3648 1.478 . S
C3647 H3641 0.930 . S
C3647 C3643 1.400 . S
C3647 C3646 1.385 . S
C3648 C3646 1.478 . S
C3648 C3650 1.381 . S
C3648 C3654 1.383 . S
C3649 C3645 1.495 . S
C3649 H3655 0.959 . S
C3649 H3656 0.961 . S
C3649 H3657 0.960 . S
C3650 C3648 1.381 . S
C3650 C3651 1.394 . S
C3650 H3658 0.930 . S
C3651 C3650 1.394 . S
C3651 C3652 1.383 . S
C3651 H3659 0.929 . S
C3652 C3651 1.383 . S
C3652 C3653 1.377 . S
C3653 H3637 0.930 . S
C3653 C3652 1.377 . S
C3653 C3654 1.379 . S
C3654 H3638 0.931 . S
C3654 C3648 1.383 . S
C3654 C3653 1.379 . S
H3655 C3649 0.959 . S
H3656 C3649 0.961 . S
H3657 C3649 0.960 . S
H3658 C3650 0.930 . S
H3659 C3651 0.929 . S
H3660 C3668 0.929 . S
H3661 C3670 0.930 . S
H3662 C3672 0.930 . S
H3663 C3675 0.929 . S
H3664 C3678 0.930 . S
H3665 C3680 0.960 . S
H3666 C3680 0.960 . S
H3667 C3680 0.960 . S
C3668 H3660 0.929 . S
C3668 C3669 1.377 . S
C3668 C3670 1.384 . S
C3669 C3668 1.377 . S
C3669 C3675 1.390 . S
C3670 H3661 0.930 . S
C3670 C3668 1.384 . S
C3670 C3671 1.372 . S
C3671 C3670 1.372 . S
C3671 C3672 1.400 . S
C3671 C3676 1.490 . S
C3672 H3662 0.930 . S
C3672 C3671 1.400 . S
C3672 C3675 1.386 . S
H3673 C3689 0.930 . S
H3674 C3690 0.931 . S
C3675 H3663 0.929 . S
C3675 C3669 1.390 . S
C3675 C3672 1.386 . S
C3676 C3671 1.490 . S
C3676 C3678 1.395 . S
C3676 C3679 1.403 . S
H3677 C3683 0.930 . S
C3678 H3664 0.930 . S
C3678 C3676 1.395 . S
C3678 C3681 1.403 . S
C3679 C3676 1.403 . S
C3679 C3680 1.524 . S
C3679 C3683 1.400 . S
C3680 H3665 0.960 . S
C3680 H3666 0.960 . S
C3680 H3667 0.960 . S
C3680 C3679 1.524 . S
C3681 C3678 1.403 . S
C3681 C3682 1.392 . S
C3681 C3685 1.495 . S
C3682 C3681 1.392 . S
C3682 C3683 1.385 . S
C3682 C3684 1.478 . S
C3683 H3677 0.930 . S
C3683 C3679 1.400 . S
C3683 C3682 1.385 . S
C3684 C3682 1.478 . S
C3684 C3686 1.381 . S
C3684 C3690 1.383 . S
C3685 C3681 1.495 . S
C3685 H3691 0.959 . S
C3685 H3692 0.961 . S
C3685 H3693 0.960 . S
C3686 C3684 1.381 . S
C3686 C3687 1.394 . S
C3686 H3694 0.930 . S
C3687 C3686 1.394 . S
C3687 C3688 1.383 . S
C3687 H3695 0.929 . S
C3688 C3687 1.383 . S
C3688 C3689 1.377 . S
C3689 H3673 0.930 . S
C3689 C3688 1.377 . S
C3689 C3690 1.379 . S
C3690 H3674 0.931 . S
C3690 C3684 1.383 . S
C3690 C3689 1.379 . S
H3691 C3685 0.959 . S
H3692 C3685 0.961 . S
H3693 C3685 0.960 . S
H3694 C3686 0.930 . S
H3695 C3687 0.929 . S
H3696 C3704 0.929 . S
H3697 C3706 0.930 . S
H3698 C3708 0.930 . S
H3699 C3711 0.929 . S
H3700 C3714 0.930 . S
H3701 C3716 0.960 . S
H3702 C3716 0.960 . S
H3703 C3716 0.960 . S
C3704 H3696 0.929 . S
C3704 C3705 1.377 . S
C3704 C3706 1.384 . S
C3705 C3704 1.377 . S
C3705 C3711 1.390 . S
C3706 H3697 0.930 . S
C3706 C3704 1.384 . S
C3706 C3707 1.372 . S
C3707 C3706 1.372 . S
C3707 C3708 1.400 . S
C3707 C3712 1.490 . S
C3708 H3698 0.930 . S
C3708 C3707 1.400 . S
C3708 C3711 1.386 . S
H3709 C3725 0.930 . S
H3710 C3726 0.931 . S
C3711 H3699 0.929 . S
C3711 C3705 1.390 . S
C3711 C3708 1.386 . S
C3712 C3707 1.490 . S
C3712 C3714 1.395 . S
C3712 C3715 1.403 . S
H3713 C3719 0.930 . S
C3714 H3700 0.930 . S
C3714 C3712 1.395 . S
C3714 C3717 1.403 . S
C3715 C3712 1.403 . S
C3715 C3716 1.524 . S
C3715 C3719 1.400 . S
C3716 H3701 0.960 . S
C3716 H3702 0.960 . S
C3716 H3703 0.960 . S
C3716 C3715 1.524 . S
C3717 C3714 1.403 . S
C3717 C3718 1.392 . S
C3717 C3721 1.495 . S
C3718 C3717 1.392 . S
C3718 C3719 1.385 . S
C3718 C3720 1.478 . S
C3719 H3713 0.930 . S
C3719 C3715 1.400 . S
C3719 C3718 1.385 . S
C3720 C3718 1.478 . S
C3720 C3722 1.381 . S
C3720 C3726 1.383 . S
C3721 C3717 1.495 . S
C3721 H3727 0.959 . S
C3721 H3728 0.961 . S
C3721 H3729 0.960 . S
C3722 C3720 1.381 . S
C3722 C3723 1.394 . S
C3722 H3730 0.930 . S
C3723 C3722 1.394 . S
C3723 C3724 1.383 . S
C3723 H3731 0.929 . S
C3724 C3723 1.383 . S
C3724 C3725 1.377 . S
C3725 H3709 0.930 . S
C3725 C3724 1.377 . S
C3725 C3726 1.379 . S
C3726 H3710 0.931 . S
C3726 C3720 1.383 . S
C3726 C3725 1.379 . S
H3727 C3721 0.959 . S
H3728 C3721 0.961 . S
H3729 C3721 0.960 . S
H3730 C3722 0.930 . S
H3731 C3723 0.929 . S
H3732 C3740 0.929 . S
H3733 C3742 0.930 . S
H3734 C3744 0.930 . S
H3735 C3747 0.929 . S
H3736 C3750 0.930 . S
H3737 C3752 0.960 . S
H3738 C3752 0.960 . S
H3739 C3752 0.960 . S
C3740 H3732 0.929 . S
C3740 C3741 1.377 . S
C3740 C3742 1.384 . S
C3741 C3740 1.377 . S
C3741 C3747 1.390 . S
C3742 H3733 0.930 . S
C3742 C3740 1.384 . S
C3742 C3743 1.372 . S
C3743 C3742 1.372 . S
C3743 C3744 1.400 . S
C3743 C3748 1.490 . S
C3744 H3734 0.930 . S
C3744 C3743 1.400 . S
C3744 C3747 1.386 . S
H3745 C3761 0.930 . S
H3746 C3762 0.931 . S
C3747 H3735 0.929 . S
C3747 C3741 1.390 . S
C3747 C3744 1.386 . S
C3748 C3743 1.490 . S
C3748 C3750 1.395 . S
C3748 C3751 1.403 . S
H3749 C3755 0.930 . S
C3750 H3736 0.930 . S
C3750 C3748 1.395 . S
C3750 C3753 1.403 . S
C3751 C3748 1.403 . S
C3751 C3752 1.524 . S
C3751 C3755 1.400 . S
C3752 H3737 0.960 . S
C3752 H3738 0.960 . S
C3752 H3739 0.960 . S
C3752 C3751 1.524 . S
C3753 C3750 1.403 . S
C3753 C3754 1.392 . S
C3753 C3757 1.495 . S
C3754 C3753 1.392 . S
C3754 C3755 1.385 . S
C3754 C3756 1.478 . S
C3755 H3749 0.930 . S
C3755 C3751 1.400 . S
C3755 C3754 1.385 . S
C3756 C3754 1.478 . S
C3756 C3758 1.381 . S
C3756 C3762 1.383 . S
C3757 C3753 1.495 . S
C3757 H3763 0.959 . S
C3757 H3764 0.961 . S
C3757 H3765 0.960 . S
C3758 C3756 1.381 . S
C3758 C3759 1.394 . S
C3758 H3766 0.930 . S
C3759 C3758 1.394 . S
C3759 C3760 1.383 . S
C3759 H3767 0.929 . S
C3760 C3759 1.383 . S
C3760 C3761 1.377 . S
C3761 H3745 0.930 . S
C3761 C3760 1.377 . S
C3761 C3762 1.379 . S
C3762 H3746 0.931 . S
C3762 C3756 1.383 . S
C3762 C3761 1.379 . S
H3763 C3757 0.959 . S
H3764 C3757 0.961 . S
H3765 C3757 0.960 . S
H3766 C3758 0.930 . S
H3767 C3759 0.929 . S
H3768 C3776 0.929 . S
H3769 C3778 0.930 . S
H3770 C3780 0.930 . S
H3771 C3783 0.929 . S
H3772 C3786 0.930 . S
H3773 C3788 0.960 . S
H3774 C3788 0.960 . S
H3775 C3788 0.960 . S
C3776 H3768 0.929 . S
C3776 C3777 1.377 . S
C3776 C3778 1.384 . S
C3777 C3776 1.377 . S
C3777 C3783 1.390 . S
C3778 H3769 0.930 . S
C3778 C3776 1.384 . S
C3778 C3779 1.372 . S
C3779 C3778 1.372 . S
C3779 C3780 1.400 . S
C3779 C3784 1.490 . S
C3780 H3770 0.930 . S
C3780 C3779 1.400 . S
C3780 C3783 1.386 . S
H3781 C3797 0.930 . S
H3782 C3798 0.931 . S
C3783 H3771 0.929 . S
C3783 C3777 1.390 . S
C3783 C3780 1.386 . S
C3784 C3779 1.490 . S
C3784 C3786 1.395 . S
C3784 C3787 1.403 . S
H3785 C3791 0.930 . S
C3786 H3772 0.930 . S
C3786 C3784 1.395 . S
C3786 C3789 1.403 . S
C3787 C3784 1.403 . S
C3787 C3788 1.524 . S
C3787 C3791 1.400 . S
C3788 H3773 0.960 . S
C3788 H3774 0.960 . S
C3788 H3775 0.960 . S
C3788 C3787 1.524 . S
C3789 C3786 1.403 . S
C3789 C3790 1.392 . S
C3789 C3793 1.495 . S
C3790 C3789 1.392 . S
C3790 C3791 1.385 . S
C3790 C3792 1.478 . S
C3791 H3785 0.930 . S
C3791 C3787 1.400 . S
C3791 C3790 1.385 . S
C3792 C3790 1.478 . S
C3792 C3794 1.381 . S
C3792 C3798 1.383 . S
C3793 C3789 1.495 . S
C3793 H3799 0.959 . S
C3793 H3800 0.961 . S
C3793 H3801 0.960 . S
C3794 C3792 1.381 . S
C3794 C3795 1.394 . S
C3794 H3802 0.930 . S
C3795 C3794 1.394 . S
C3795 C3796 1.383 . S
C3795 H3803 0.929 . S
C3796 C3795 1.383 . S
C3796 C3797 1.377 . S
C3797 H3781 0.930 . S
C3797 C3796 1.377 . S
C3797 C3798 1.379 . S
C3798 H3782 0.931 . S
C3798 C3792 1.383 . S
C3798 C3797 1.379 . S
H3799 C3793 0.959 . S
H3800 C3793 0.961 . S
H3801 C3793 0.960 . S
H3802 C3794 0.930 . S
H3803 C3795 0.929 . S
H3804 C3812 0.929 . S
H3805 C3814 0.930 . S
H3806 C3816 0.930 . S
H3807 C3819 0.929 . S
H3808 C3822 0.930 . S
H3809 C3824 0.960 . S
H3810 C3824 0.960 . S
H3811 C3824 0.960 . S
C3812 H3804 0.929 . S
C3812 C3813 1.377 . S
C3812 C3814 1.384 . S
C3813 C3812 1.377 . S
C3813 C3819 1.390 . S
C3814 H3805 0.930 . S
C3814 C3812 1.384 . S
C3814 C3815 1.372 . S
C3815 C3814 1.372 . S
C3815 C3816 1.400 . S
C3815 C3820 1.490 . S
C3816 H3806 0.930 . S
C3816 C3815 1.400 . S
C3816 C3819 1.386 . S
H3817 C3833 0.930 . S
H3818 C3834 0.931 . S
C3819 H3807 0.929 . S
C3819 C3813 1.390 . S
C3819 C3816 1.386 . S
C3820 C3815 1.490 . S
C3820 C3822 1.395 . S
C3820 C3823 1.403 . S
H3821 C3827 0.930 . S
C3822 H3808 0.930 . S
C3822 C3820 1.395 . S
C3822 C3825 1.403 . S
C3823 C3820 1.403 . S
C3823 C3824 1.524 . S
C3823 C3827 1.400 . S
C3824 H3809 0.960 . S
C3824 H3810 0.960 . S
C3824 H3811 0.960 . S
C3824 C3823 1.524 . S
C3825 C3822 1.403 . S
C3825 C3826 1.392 . S
C3825 C3829 1.495 . S
C3826 C3825 1.392 . S
C3826 C3827 1.385 . S
C3826 C3828 1.478 . S
C3827 H3821 0.930 . S
C3827 C3823 1.400 . S
C3827 C3826 1.385 . S
C3828 C3826 1.478 . S
C3828 C3830 1.381 . S
C3828 C3834 1.383 . S
C3829 C3825 1.495 . S
C3829 H3835 0.959 . S
C3829 H3836 0.961 . S
C3829 H3837 0.960 . S
C3830 C3828 1.381 . S
C3830 C3831 1.394 . S
C3830 H3838 0.930 . S
C3831 C3830 1.394 . S
C3831 C3832 1.383 . S
C3831 H3839 0.929 . S
C3832 C3831 1.383 . S
C3832 C3833 1.377 . S
C3833 H3817 0.930 . S
C3833 C3832 1.377 . S
C3833 C3834 1.379 . S
C3834 H3818 0.931 . S
C3834 C3828 1.383 . S
C3834 C3833 1.379 . S
H3835 C3829 0.959 . S
H3836 C3829 0.961 . S
H3837 C3829 0.960 . S
H3838 C3830 0.930 . S
H3839 C3831 0.929 . S
H3840 C3848 0.929 . S
H3841 C3850 0.930 . S
H3842 C3852 0.930 . S
H3843 C3855 0.929 . S
H3844 C3858 0.930 . S
H3845 C3860 0.960 . S
H3846 C3860 0.960 . S
H3847 C3860 0.960 . S
C3848 H3840 0.929 . S
C3848 C3849 1.377 . S
C3848 C3850 1.384 . S
C3849 C3848 1.377 . S
C3849 C3855 1.390 . S
C3850 H3841 0.930 . S
C3850 C3848 1.384 . S
C3850 C3851 1.372 . S
C3851 C3850 1.372 . S
C3851 C3852 1.400 . S
C3851 C3856 1.490 . S
C3852 H3842 0.930 . S
C3852 C3851 1.400 . S
C3852 C3855 1.386 . S
H3853 C3869 0.930 . S
H3854 C3870 0.931 . S
C3855 H3843 0.929 . S
C3855 C3849 1.390 . S
C3855 C3852 1.386 . S
C3856 C3851 1.490 . S
C3856 C3858 1.395 . S
C3856 C3859 1.403 . S
H3857 C3863 0.930 . S
C3858 H3844 0.930 . S
C3858 C3856 1.395 . S
C3858 C3861 1.403 . S
C3859 C3856 1.403 . S
C3859 C3860 1.524 . S
C3859 C3863 1.400 . S
C3860 H3845 0.960 . S
C3860 H3846 0.960 . S
C3860 H3847 0.960 . S
C3860 C3859 1.524 . S
C3861 C3858 1.403 . S
C3861 C3862 1.392 . S
C3861 C3865 1.495 . S
C3862 C3861 1.392 . S
C3862 C3863 1.385 . S
C3862 C3864 1.478 . S
C3863 H3857 0.930 . S
C3863 C3859 1.400 . S
C3863 C3862 1.385 . S
C3864 C3862 1.478 . S
C3864 C3866 1.381 . S
C3864 C3870 1.383 . S
C3865 C3861 1.495 . S
C3865 H3871 0.959 . S
C3865 H3872 0.961 . S
C3865 H3873 0.960 . S
C3866 C3864 1.381 . S
C3866 C3867 1.394 . S
C3866 H3874 0.930 . S
C3867 C3866 1.394 . S
C3867 C3868 1.383 . S
C3867 H3875 0.929 . S
C3868 C3867 1.383 . S
C3868 C3869 1.377 . S
C3869 H3853 0.930 . S
C3869 C3868 1.377 . S
C3869 C3870 1.379 . S
C3870 H3854 0.931 . S
C3870 C3864 1.383 . S
C3870 C3869 1.379 . S
H3871 C3865 0.959 . S
H3872 C3865 0.961 . S
H3873 C3865 0.960 . S
H3874 C3866 0.930 . S
H3875 C3867 0.929 . S
H3876 C3884 0.929 . S
H3877 C3886 0.930 . S
H3878 C3888 0.930 . S
H3879 C3891 0.929 . S
H3880 C3894 0.930 . S
H3881 C3896 0.960 . S
H3882 C3896 0.960 . S
H3883 C3896 0.960 . S
C3884 H3876 0.929 . S
C3884 C3885 1.377 . S
C3884 C3886 1.384 . S
C3885 C3884 1.377 . S
C3885 C3891 1.390 . S
C3886 H3877 0.930 . S
C3886 C3884 1.384 . S
C3886 C3887 1.372 . S
C3887 C3886 1.372 . S
C3887 C3888 1.400 . S
C3887 C3892 1.490 . S
C3888 H3878 0.930 . S
C3888 C3887 1.400 . S
C3888 C3891 1.386 . S
H3889 C3905 0.930 . S
H3890 C3906 0.931 . S
C3891 H3879 0.929 . S
C3891 C3885 1.390 . S
C3891 C3888 1.386 . S
C3892 C3887 1.490 . S
C3892 C3894 1.395 . S
C3892 C3895 1.403 . S
H3893 C3899 0.930 . S
C3894 H3880 0.930 . S
C3894 C3892 1.395 . S
C3894 C3897 1.403 . S
C3895 C3892 1.403 . S
C3895 C3896 1.524 . S
C3895 C3899 1.400 . S
C3896 H3881 0.960 . S
C3896 H3882 0.960 . S
C3896 H3883 0.960 . S
C3896 C3895 1.524 . S
C3897 C3894 1.403 . S
C3897 C3898 1.392 . S
C3897 C3901 1.495 . S
C3898 C3897 1.392 . S
C3898 C3899 1.385 . S
C3898 C3900 1.478 . S
C3899 H3893 0.930 . S
C3899 C3895 1.400 . S
C3899 C3898 1.385 . S
C3900 C3898 1.478 . S
C3900 C3902 1.381 . S
C3900 C3906 1.383 . S
C3901 C3897 1.495 . S
C3901 H3907 0.959 . S
C3901 H3908 0.961 . S
C3901 H3909 0.960 . S
C3902 C3900 1.381 . S
C3902 C3903 1.394 . S
C3902 H3910 0.930 . S
C3903 C3902 1.394 . S
C3903 C3904 1.383 . S
C3903 H3911 0.929 . S
C3904 C3903 1.383 . S
C3904 C3905 1.377 . S
C3905 H3889 0.930 . S
C3905 C3904 1.377 . S
C3905 C3906 1.379 . S
C3906 H3890 0.931 . S
C3906 C3900 1.383 . S
C3906 C3905 1.379 . S
H3907 C3901 0.959 . S
H3908 C3901 0.961 . S
H3909 C3901 0.960 . S
H3910 C3902 0.930 . S
H3911 C3903 0.929 . S
H3912 C3920 0.929 . S
H3913 C3922 0.930 . S
H3914 C3924 0.930 . S
H3915 C3927 0.929 . S
H3916 C3930 0.930 . S
H3917 C3932 0.960 . S
H3918 C3932 0.960 . S
H3919 C3932 0.960 . S
C3920 H3912 0.929 . S
C3920 C3921 1.377 . S
C3920 C3922 1.384 . S
C3921 C3920 1.377 . S
C3921 C3927 1.390 . S
C3922 H3913 0.930 . S
C3922 C3920 1.384 . S
C3922 C3923 1.372 . S
C3923 C3922 1.372 . S
C3923 C3924 1.400 . S
C3923 C3928 1.490 . S
C3924 H3914 0.930 . S
C3924 C3923 1.400 . S
C3924 C3927 1.386 . S
H3925 C3941 0.930 . S
H3926 C3942 0.931 . S
C3927 H3915 0.929 . S
C3927 C3921 1.390 . S
C3927 C3924 1.386 . S
C3928 C3923 1.490 . S
C3928 C3930 1.395 . S
C3928 C3931 1.403 . S
H3929 C3935 0.930 . S
C3930 H3916 0.930 . S
C3930 C3928 1.395 . S
C3930 C3933 1.403 . S
C3931 C3928 1.403 . S
C3931 C3932 1.524 . S
C3931 C3935 1.400 . S
C3932 H3917 0.960 . S
C3932 H3918 0.960 . S
C3932 H3919 0.960 . S
C3932 C3931 1.524 . S
C3933 C3930 1.403 . S
C3933 C3934 1.392 . S
C3933 C3937 1.495 . S
C3934 C3933 1.392 . S
C3934 C3935 1.385 . S
C3934 C3936 1.478 . S
C3935 H3929 0.930 . S
C3935 C3931 1.400 . S
C3935 C3934 1.385 . S
C3936 C3934 1.478 . S
C3936 C3938 1.381 . S
C3936 C3942 1.383 . S
C3937 C3933 1.495 . S
C3937 H3943 0.959 . S
C3937 H3944 0.961 . S
C3937 H3945 0.960 . S
C3938 C3936 1.381 . S
C3938 C3939 1.394 . S
C3938 H3946 0.930 . S
C3939 C3938 1.394 . S
C3939 C3940 1.383 . S
C3939 H3947 0.929 . S
C3940 C3939 1.383 . S
C3940 C3941 1.377 . S
C3941 H3925 0.930 . S
C3941 C3940 1.377 . S
C3941 C3942 1.379 . S
C3942 H3926 0.931 . S
C3942 C3936 1.383 . S
C3942 C3941 1.379 . S
H3943 C3937 0.959 . S
H3944 C3937 0.961 . S
H3945 C3937 0.960 . S
H3946 C3938 0.930 . S
H3947 C3939 0.929 . S
H3948 C3956 0.929 . S
H3949 C3958 0.930 . S
H3950 C3960 0.930 . S
H3951 C3963 0.929 . S
H3952 C3966 0.930 . S
H3953 C3968 0.960 . S
H3954 C3968 0.960 . S
H3955 C3968 0.960 . S
C3956 H3948 0.929 . S
C3956 C3957 1.377 . S
C3956 C3958 1.384 . S
C3957 C3956 1.377 . S
C3957 C3963 1.390 . S
C3958 H3949 0.930 . S
C3958 C3956 1.384 . S
C3958 C3959 1.372 . S
C3959 C3958 1.372 . S
C3959 C3960 1.400 . S
C3959 C3964 1.490 . S
C3960 H3950 0.930 . S
C3960 C3959 1.400 . S
C3960 C3963 1.386 . S
H3961 C3977 0.930 . S
H3962 C3978 0.931 . S
C3963 H3951 0.929 . S
C3963 C3957 1.390 . S
C3963 C3960 1.386 . S
C3964 C3959 1.490 . S
C3964 C3966 1.395 . S
C3964 C3967 1.403 . S
H3965 C3971 0.930 . S
C3966 H3952 0.930 . S
C3966 C3964 1.395 . S
C3966 C3969 1.403 . S
C3967 C3964 1.403 . S
C3967 C3968 1.524 . S
C3967 C3971 1.400 . S
C3968 H3953 0.960 . S
C3968 H3954 0.960 . S
C3968 H3955 0.960 . S
C3968 C3967 1.524 . S
C3969 C3966 1.403 . S
C3969 C3970 1.392 . S
C3969 C3973 1.495 . S
C3970 C3969 1.392 . S
C3970 C3971 1.385 . S
C3970 C3972 1.478 . S
C3971 H3965 0.930 . S
C3971 C3967 1.400 . S
C3971 C3970 1.385 . S
C3972 C3970 1.478 . S
C3972 C3974 1.381 . S
C3972 C3978 1.383 . S
C3973 C3969 1.495 . S
C3973 H3979 0.959 . S
C3973 H3980 0.961 . S
C3973 H3981 0.960 . S
C3974 C3972 1.381 . S
C3974 C3975 1.394 . S
C3974 H3982 0.930 . S
C3975 C3974 1.394 . S
C3975 C3976 1.383 . S
C3975 H3983 0.929 . S
C3976 C3975 1.383 . S
C3976 C3977 1.377 . S
C3977 H3961 0.930 . S
C3977 C3976 1.377 . S
C3977 C3978 1.379 . S
C3978 H3962 0.931 . S
C3978 C3972 1.383 . S
C3978 C3977 1.379 . S
H3979 C3973 0.959 . S
H3980 C3973 0.961 . S
H3981 C3973 0.960 . S
H3982 C3974 0.930 . S
H3983 C3975 0.929 . S
H3984 C3992 0.929 . S
H3985 C3994 0.930 . S
H3986 C3996 0.930 . S
H3987 C3999 0.929 . S
H3988 C4002 0.930 . S
H3989 C4004 0.960 . S
H3990 C4004 0.960 . S
H3991 C4004 0.960 . S
C3992 H3984 0.929 . S
C3992 C3993 1.377 . S
C3992 C3994 1.384 . S
C3993 C3992 1.377 . S
C3993 C3999 1.390 . S
C3994 H3985 0.930 . S
C3994 C3992 1.384 . S
C3994 C3995 1.372 . S
C3995 C3994 1.372 . S
C3995 C3996 1.400 . S
C3995 C4000 1.490 . S
C3996 H3986 0.930 . S
C3996 C3995 1.400 . S
C3996 C3999 1.386 . S
H3997 C4013 0.930 . S
H3998 C4014 0.931 . S
C3999 H3987 0.929 . S
C3999 C3993 1.390 . S
C3999 C3996 1.386 . S
C4000 C3995 1.490 . S
C4000 C4002 1.395 . S
C4000 C4003 1.403 . S
H4001 C4007 0.930 . S
C4002 H3988 0.930 . S
C4002 C4000 1.395 . S
C4002 C4005 1.403 . S
C4003 C4000 1.403 . S
C4003 C4004 1.524 . S
C4003 C4007 1.400 . S
C4004 H3989 0.960 . S
C4004 H3990 0.960 . S
C4004 H3991 0.960 . S
C4004 C4003 1.524 . S
C4005 C4002 1.403 . S
C4005 C4006 1.392 . S
C4005 C4009 1.495 . S
C4006 C4005 1.392 . S
C4006 C4007 1.385 . S
C4006 C4008 1.478 . S
C4007 H4001 0.930 . S
C4007 C4003 1.400 . S
C4007 C4006 1.385 . S
C4008 C4006 1.478 . S
C4008 C4010 1.381 . S
C4008 C4014 1.383 . S
C4009 C4005 1.495 . S
C4009 H4015 0.959 . S
C4009 H4016 0.961 . S
C4009 H4017 0.960 . S
C4010 C4008 1.381 . S
C4010 C4011 1.394 . S
C4010 H4018 0.930 . S
C4011 C4010 1.394 . S
C4011 C4012 1.383 . S
C4011 H4019 0.929 . S
C4012 C4011 1.383 . S
C4012 C4013 1.377 . S
C4013 H3997 0.930 . S
C4013 C4012 1.377 . S
C4013 C4014 1.379 . S
C4014 H3998 0.931 . S
C4014 C4008 1.383 . S
C4014 C4013 1.379 . S
H4015 C4009 0.959 . S
H4016 C4009 0.961 . S
H4017 C4009 0.960 . S
H4018 C4010 0.930 . S
H4019 C4011 0.929 . S
H4020 C4028 0.929 . S
H4021 C4030 0.930 . S
H4022 C4032 0.930 . S
H4023 C4035 0.929 . S
H4024 C4038 0.930 . S
H4025 C4040 0.960 . S
H4026 C4040 0.960 . S
H4027 C4040 0.960 . S
C4028 H4020 0.929 . S
C4028 C4029 1.377 . S
C4028 C4030 1.384 . S
C4029 C4028 1.377 . S
C4029 C4035 1.390 . S
C4030 H4021 0.930 . S
C4030 C4028 1.384 . S
C4030 C4031 1.372 . S
C4031 C4030 1.372 . S
C4031 C4032 1.400 . S
C4031 C4036 1.490 . S
C4032 H4022 0.930 . S
C4032 C4031 1.400 . S
C4032 C4035 1.386 . S
H4033 C4049 0.930 . S
H4034 C4050 0.931 . S
C4035 H4023 0.929 . S
C4035 C4029 1.390 . S
C4035 C4032 1.386 . S
C4036 C4031 1.490 . S
C4036 C4038 1.395 . S
C4036 C4039 1.403 . S
H4037 C4043 0.930 . S
C4038 H4024 0.930 . S
C4038 C4036 1.395 . S
C4038 C4041 1.403 . S
C4039 C4036 1.403 . S
C4039 C4040 1.524 . S
C4039 C4043 1.400 . S
C4040 H4025 0.960 . S
C4040 H4026 0.960 . S
C4040 H4027 0.960 . S
C4040 C4039 1.524 . S
C4041 C4038 1.403 . S
C4041 C4042 1.392 . S
C4041 C4045 1.495 . S
C4042 C4041 1.392 . S
C4042 C4043 1.385 . S
C4042 C4044 1.478 . S
C4043 H4037 0.930 . S
C4043 C4039 1.400 . S
C4043 C4042 1.385 . S
C4044 C4042 1.478 . S
C4044 C4046 1.381 . S
C4044 C4050 1.383 . S
C4045 C4041 1.495 . S
C4045 H4051 0.959 . S
C4045 H4052 0.961 . S
C4045 H4053 0.960 . S
C4046 C4044 1.381 . S
C4046 C4047 1.394 . S
C4046 H4054 0.930 . S
C4047 C4046 1.394 . S
C4047 C4048 1.383 . S
C4047 H4055 0.929 . S
C4048 C4047 1.383 . S
C4048 C4049 1.377 . S
C4049 H4033 0.930 . S
C4049 C4048 1.377 . S
C4049 C4050 1.379 . S
C4050 H4034 0.931 . S
C4050 C4044 1.383 . S
C4050 C4049 1.379 . S
H4051 C4045 0.959 . S
H4052 C4045 0.961 . S
H4053 C4045 0.960 . S
H4054 C4046 0.930 . S
H4055 C4047 0.929 . S
H4056 C4064 0.929 . S
H4057 C4066 0.930 . S
H4058 C4068 0.930 . S
H4059 C4071 0.929 . S
H4060 C4074 0.930 . S
H4061 C4076 0.960 . S
H4062 C4076 0.960 . S
H4063 C4076 0.960 . S
C4064 H4056 0.929 . S
C4064 C4065 1.377 . S
C4064 C4066 1.384 . S
C4065 C4064 1.377 . S
C4065 C4071 1.390 . S
C4066 H4057 0.930 . S
C4066 C4064 1.384 . S
C4066 C4067 1.372 . S
C4067 C4066 1.372 . S
C4067 C4068 1.400 . S
C4067 C4072 1.490 . S
C4068 H4058 0.930 . S
C4068 C4067 1.400 . S
C4068 C4071 1.386 . S
H4069 C4085 0.930 . S
H4070 C4086 0.931 . S
C4071 H4059 0.929 . S
C4071 C4065 1.390 . S
C4071 C4068 1.386 . S
C4072 C4067 1.490 . S
C4072 C4074 1.395 . S
C4072 C4075 1.403 . S
H4073 C4079 0.930 . S
C4074 H4060 0.930 . S
C4074 C4072 1.395 . S
C4074 C4077 1.403 . S
C4075 C4072 1.403 . S
C4075 C4076 1.524 . S
C4075 C4079 1.400 . S
C4076 H4061 0.960 . S
C4076 H4062 0.960 . S
C4076 H4063 0.960 . S
C4076 C4075 1.524 . S
C4077 C4074 1.403 . S
C4077 C4078 1.392 . S
C4077 C4081 1.495 . S
C4078 C4077 1.392 . S
C4078 C4079 1.385 . S
C4078 C4080 1.478 . S
C4079 H4073 0.930 . S
C4079 C4075 1.400 . S
C4079 C4078 1.385 . S
C4080 C4078 1.478 . S
C4080 C4082 1.381 . S
C4080 C4086 1.383 . S
C4081 C4077 1.495 . S
C4081 H4087 0.959 . S
C4081 H4088 0.961 . S
C4081 H4089 0.960 . S
C4082 C4080 1.381 . S
C4082 C4083 1.394 . S
C4082 H4090 0.930 . S
C4083 C4082 1.394 . S
C4083 C4084 1.383 . S
C4083 H4091 0.929 . S
C4084 C4083 1.383 . S
C4084 C4085 1.377 . S
C4085 H4069 0.930 . S
C4085 C4084 1.377 . S
C4085 C4086 1.379 . S
C4086 H4070 0.931 . S
C4086 C4080 1.383 . S
C4086 C4085 1.379 . S
H4087 C4081 0.959 . S
H4088 C4081 0.961 . S
H4089 C4081 0.960 . S
H4090 C4082 0.930 . S
H4091 C4083 0.929 . S
H4092 C4100 0.929 . S
H4093 C4102 0.930 . S
H4094 C4104 0.930 . S
H4095 C4107 0.929 . S
H4096 C4110 0.930 . S
H4097 C4112 0.960 . S
H4098 C4112 0.960 . S
H4099 C4112 0.960 . S
C4100 H4092 0.929 . S
C4100 C4101 1.377 . S
C4100 C4102 1.384 . S
C4101 C4100 1.377 . S
C4101 C4107 1.390 . S
C4102 H4093 0.930 . S
C4102 C4100 1.384 . S
C4102 C4103 1.372 . S
C4103 C4102 1.372 . S
C4103 C4104 1.400 . S
C4103 C4108 1.490 . S
C4104 H4094 0.930 . S
C4104 C4103 1.400 . S
C4104 C4107 1.386 . S
H4105 C4121 0.930 . S
H4106 C4122 0.931 . S
C4107 H4095 0.929 . S
C4107 C4101 1.390 . S
C4107 C4104 1.386 . S
C4108 C4103 1.490 . S
C4108 C4110 1.395 . S
C4108 C4111 1.403 . S
H4109 C4115 0.930 . S
C4110 H4096 0.930 . S
C4110 C4108 1.395 . S
C4110 C4113 1.403 . S
C4111 C4108 1.403 . S
C4111 C4112 1.524 . S
C4111 C4115 1.400 . S
C4112 H4097 0.960 . S
C4112 H4098 0.960 . S
C4112 H4099 0.960 . S
C4112 C4111 1.524 . S
C4113 C4110 1.403 . S
C4113 C4114 1.392 . S
C4113 C4117 1.495 . S
C4114 C4113 1.392 . S
C4114 C4115 1.385 . S
C4114 C4116 1.478 . S
C4115 H4109 0.930 . S
C4115 C4111 1.400 . S
C4115 C4114 1.385 . S
C4116 C4114 1.478 . S
C4116 C4118 1.381 . S
C4116 C4122 1.383 . S
C4117 C4113 1.495 . S
C4117 H4123 0.959 . S
C4117 H4124 0.961 . S
C4117 H4125 0.960 . S
C4118 C4116 1.381 . S
C4118 C4119 1.394 . S
C4118 H4126 0.930 . S
C4119 C4118 1.394 . S
C4119 C4120 1.383 . S
C4119 H4127 0.929 . S
C4120 C4119 1.383 . S
C4120 C4121 1.377 . S
C4121 H4105 0.930 . S
C4121 C4120 1.377 . S
C4121 C4122 1.379 . S
C4122 H4106 0.931 . S
C4122 C4116 1.383 . S
C4122 C4121 1.379 . S
H4123 C4117 0.959 . S
H4124 C4117 0.961 . S
H4125 C4117 0.960 . S
H4126 C4118 0.930 . S
H4127 C4119 0.929 . S
C681 C224 1.396 . S
C700 C0 1.393 . S
C717 C671 1.442 . S
C736 C26 1.388 . S
C753 C40 1.395 . S
C772 C642 1.402 . S
C789 C55 1.350 . S
C808 C656 1.377 . S
C825 C251 1.460 . S
C844 C68 1.414 . S
C861 C71 1.449 . S
C880 C253 1.469 . S
C897 C97 1.453 . S
C916 C266 1.465 . S
C933 C617 1.403 . S
C952 C99 1.373 . S
C969 C112 1.377 . S
C988 C13 1.390 . S
C1005 C15 1.455 . S
C1024 C138 1.445 . S
C1041 C29 1.368 . S
C1060 C141 1.359 . S
C1077 C42 1.477 . S
C1096 C167 1.471 . S
C1113 C57 1.419 . S
C1132 C169 1.384 . S
C1149 C194 1.364 . S
C1168 C82 1.389 . S
C1185 C84 1.388 . S
C1204 C197 1.383 . S
C1221 C223 1.378 . S
C1240 C110 1.386 . S
C1257 C237 1.374 . S
C1276 C125 1.398 . S
C1293 C180 1.368 . S
C1312 C238 1.363 . S
C1329 C264 1.349 . S
C1348 C183 1.377 . S
C1365 C279 1.400 . S
C1384 C208 1.423 . S
C1401 C547 1.426 . S
C1420 C292 1.410 . S
C1437 C307 1.366 . S
C1456 C476 1.379 . S
C1473 C502 1.442 . S
C1492 C309 1.402 . S
C1509 C463 1.476 . S
C1528 C323 1.455 . S
C1545 C572 1.447 . S
C1564 C349 1.417 . S
C1581 C363 1.360 . S
C1600 C334 1.379 . S
C1617 C376 1.402 . S
C1636 C294 1.424 . S
C1653 C391 1.436 . S
C1672 C320 1.462 . S
C1689 C392 1.359 . S
C1708 C575 1.393 . S
C1725 C589 1.351 . S
C1744 C407 1.341 . S
C1761 C433 1.344 . S
C1780 C602 1.368 . S
C1797 C281 1.423 . S
C1816 C434 1.370 . S
C1833 C336 1.446 . S
C1852 C448 1.437 . S
C1869 C474 1.338 . S
C1888 C350 1.350 . S
C1905 C489 1.446 . S
C1924 C365 1.482 . S
C1941 C491 1.319 . S
C1960 C378 1.328 . S
C1977 C505 1.397 . S
C1996 C405 1.410 . S
C2013 C519 1.421 . S
C2032 C418 1.452 . S
C2049 C420 1.456 . S
C2068 C532 1.425 . S
C2085 C447 1.423 . S
C2104 C558 1.376 . S
C2121 C461 1.443 . S
C2140 C561 1.426 . S
C2157 C516 1.475 . S
C2176 C586 1.462 . S
C2193 C530 1.452 . S
C2212 C600 1.413 . S
C2229 C615 1.387 . S
C2248 C545 1.418 . S
C2265 C628 1.378 . S
C2284 C210 1.387 . S
C2301 C631 1.429 . S
C2320 C152 1.465 . S
C2337 C154 1.383 . S
C2356 C645 1.381 . S
C2373 C658 1.317 . S
C2392 C127 1.329 . S
C2409 C12 1.544 . S
C2428 C390 1.505 . S
C2445 C348 1.770 . S
C2464 C14 1.793 . S
C2481 C28 1.482 . S
C2500 C362 1.445 . S
C2517 C43 1.788 . S
C2536 C377 1.768 . S
C2553 C56 1.612 . S
C2572 C70 1.580 . S
C2589 C96 1.914 . S
C2608 C83 1.943 . S
C2625 C85 1.550 . S
C2644 C98 1.507 . S
C2661 C111 1.922 . S
C2680 C69 1.887 . S
C2697 C124 1.544 . S
C2716 C601 1.515 . S
C2733 C126 1.871 . S
C2752 C614 1.858 . S
C2769 C153 1.773 . S
C2788 C293 1.743 . S
C2805 C155 1.939 . S
C2824 C587 1.918 . S
C2841 C181 1.485 . S
C2860 C644 1.433 . S
C2877 C236 1.831 . S
C2896 C182 1.863 . S
C2913 C209 1.714 . S
C2932 C659 1.687 . S
C2949 C630 1.895 . S
C2968 C211 1.917 . S
C2985 C139 1.515 . S
C3004 C225 1.533 . S
C3021 C250 1.771 . S
C3040 C559 1.755 . S
C3057 C252 1.785 . S
C3076 C504 1.735 . S
C3093 C518 1.795 . S
C3112 C267 1.826 . S
C3129 C280 1.732 . S
C3148 C196 1.710 . S
C3165 C490 1.684 . S
C3184 C295 1.708 . S
C3201 C449 1.773 . S
C3220 C321 1.801 . S
C3237 C488 1.912 . S
C3256 C335 1.938 . S
C3273 C337 1.768 . S
C3292 C54 1.749 . S
C3309 C351 1.854 . S
C3328 C1 1.826 . S
C3345 C27 1.791 . S
C3364 C364 1.823 . S
C3381 C379 1.870 . S
C3400 C41 1.845 . S
C3417 C404 1.711 . S
C3436 C406 1.684 . S
C3453 C432 1.680 . S
C3472 C419 1.706 . S
C3489 C435 1.742 . S
C3508 C421 1.760 . S
C3525 C446 1.730 . S
C3544 C393 1.685 . S
C3561 C265 1.741 . S
C3580 C460 1.760 . S
C3597 C462 1.786 . S
C3616 C278 1.747 . S
C3633 C477 1.552 . S
C3652 C629 1.527 . S
C3669 C503 1.713 . S
C3688 C239 1.683 . S
C3705 C517 1.828 . S
C3724 C308 1.784 . S
C3741 C531 1.805 . S
C3760 C560 1.784 . S
C3777 C322 1.586 . S
C3796 C544 1.607 . S
C3813 C546 1.731 . S
C3832 C306 1.698 . S
C3849 C475 1.741 . S
C3868 C573 1.767 . S
C3885 C222 1.529 . S
C3904 C574 1.537 . S
C3921 C168 1.841 . S
C3940 C588 1.869 . S
C3957 C603 1.485 . S
C3976 C195 1.434 . S
C3993 C616 1.922 . S
C4012 C533 1.889 . S
C4029 C166 1.580 . S
C4048 C643 1.606 . S
C4065 C657 1.853 . S
C4084 C113 1.817 . S
C4101 C140 1.682 . S
C4120 C670 1.708 . S
