# Generated by pormake.
# Topology mok, (4)-cn, num edge types: 1
# Building blocks:
#     Node 0, Type 0, BuildingBlock: QUQFOY_clean_sbu_1, # of connection points: 4
#     Node 1, Type 0, BuildingBlock: QUQFOY_clean_sbu_1, # of connection points: 4
#     Node 2, Type 0, BuildingBlock: QUQFOY_clean_sbu_1, # of connection points: 4
#     Node 3, Type 0, BuildingBlock: QUQFOY_clean_sbu_1, # of connection points: 4
#     Node 4, Type 0, BuildingBlock: QUQFOY_clean_sbu_1, # of connection points: 4
#     Node 5, Type 0, BuildingBlock: QUQFOY_clean_sbu_1, # of connection points: 4
#     Node 6, Type 0, BuildingBlock: QUQFOY_clean_sbu_1, # of connection points: 4
#     Node 7, Type 0, BuildingBlock: QUQFOY_clean_sbu_1, # of connection points: 4
#     Edge 8, Type (0, 0), BuildingBlock: ZUJKAS_clean_linker_0, # of connection points: 2
#     Edge 9, Type (0, 0), BuildingBlock: ZUJKAS_clean_linker_0, # of connection points: 2
#     Edge 10, Type (0, 0), BuildingBlock: ZUJKAS_clean_linker_0, # of connection points: 2
#     Edge 11, Type (0, 0), BuildingBlock: ZUJKAS_clean_linker_0, # of connection points: 2
#     Edge 12, Type (0, 0), BuildingBlock: ZUJKAS_clean_linker_0, # of connection points: 2
#     Edge 13, Type (0, 0), BuildingBlock: ZUJKAS_clean_linker_0, # of connection points: 2
#     Edge 14, Type (0, 0), BuildingBlock: ZUJKAS_clean_linker_0, # of connection points: 2
#     Edge 15, Type (0, 0), BuildingBlock: ZUJKAS_clean_linker_0, # of connection points: 2
#     Edge 16, Type (0, 0), BuildingBlock: ZUJKAS_clean_linker_0, # of connection points: 2
#     Edge 17, Type (0, 0), BuildingBlock: ZUJKAS_clean_linker_0, # of connection points: 2
#     Edge 18, Type (0, 0), BuildingBlock: ZUJKAS_clean_linker_0, # of connection points: 2
#     Edge 19, Type (0, 0), BuildingBlock: ZUJKAS_clean_linker_0, # of connection points: 2
#     Edge 20, Type (0, 0), BuildingBlock: ZUJKAS_clean_linker_0, # of connection points: 2
#     Edge 21, Type (0, 0), BuildingBlock: ZUJKAS_clean_linker_0, # of connection points: 2
#     Edge 22, Type (0, 0), BuildingBlock: ZUJKAS_clean_linker_0, # of connection points: 2
#     Edge 23, Type (0, 0), BuildingBlock: ZUJKAS_clean_linker_0, # of connection points: 2
# Relax obj value: 0.033
# Max RMSD: 0.079
# Mean RMSD: 0.079
data_MOF--net-mok--node1-QUQFOY_clean_sbu_1--edge1-ZUJKAS_clean_linker_0
_symmetry_space_group_name_H-M    P1
_symmetry_Int_Tables_number       1
_symmetry_cell_setting            triclinic
loop_
_symmetry_equiv_pos_as_xyz
'x, y, z'
_cell_length_a     71.119754
_cell_length_b     20.118479
_cell_length_c     36.878135
_cell_angle_alpha  90.065189
_cell_angle_beta   89.992912
_cell_angle_gamma 90.027519
loop_
_atom_site_label
_atom_site_type_symbol
_atom_site_fract_x
_atom_site_fract_y
_atom_site_fract_z
_atom_type_partial_charge
O0 O 0.61671 0.30722 1.00327 0.0
Cd1 Cd 0.62156 0.25352 0.05009 0.0
Cd2 Cd 0.62628 0.37599 0.07708 0.0
O3 O 0.61627 0.40766 0.02727 0.0
O4 O 0.60883 0.16604 0.04238 0.0
O5 O 0.59988 0.23843 0.08414 0.0
C6 C 0.59714 0.18264 0.06758 0.0
C7 C 0.6145 0.41541 0.13221 0.0
C8 C 0.61437 0.36959 0.99992 0.0
C9 C 0.66036 0.28602 0.07412 0.0
O10 O 0.65384 0.34425 0.07872 0.0
O11 O 0.64944 0.2388 0.06483 0.0
O12 O 0.62543 0.45135 0.11234 0.0
O13 O 0.60947 0.35798 0.11987 0.0
O14 O 0.40474 0.69234 1.00238 0.0
Cd15 Cd 0.39946 0.74922 0.04764 0.0
Cd16 Cd 0.39351 0.62862 0.07743 0.0
O17 O 0.40234 0.59302 0.02722 0.0
O18 O 0.41276 0.83515 0.03897 0.0
O19 O 0.42055 0.76564 0.08292 0.0
C20 C 0.42388 0.81992 0.06533 0.0
C21 C 0.40501 0.58682 0.13225 0.0
C22 C 0.40557 0.62943 0.99968 0.0
C23 C 0.36039 0.72338 0.07251 0.0
O24 O 0.36652 0.66607 0.08083 0.0
O25 O 0.37142 0.76702 0.05941 0.0
O26 O 0.39329 0.55347 0.1127 0.0
O27 O 0.41108 0.64276 0.11966 0.0
O28 O 0.61668 0.69198 0.63403 0.0
Cd29 Cd 0.62155 0.74453 0.58682 0.0
Cd30 Cd 0.6264 0.62119 0.56116 0.0
O31 O 0.61648 0.59059 0.61125 0.0
O32 O 0.6089 0.83221 0.59429 0.0
O33 O 0.59984 0.75948 0.55281 0.0
C34 C 0.59715 0.81543 0.56923 0.0
C35 C 0.61452 0.58136 0.50622 0.0
C36 C 0.61448 0.6297 0.63813 0.0
C37 C 0.66041 0.71158 0.56337 0.0
O38 O 0.65394 0.65315 0.5593 0.0
O39 O 0.64946 0.75901 0.57212 0.0
O40 O 0.62545 0.5455 0.52612 0.0
O41 O 0.60953 0.63891 0.51845 0.0
O42 O 0.40371 0.29913 0.6352 0.0
Cd43 Cd 0.39904 0.24663 0.58786 0.0
Cd44 Cd 0.39462 0.36963 0.56189 0.0
O45 O 0.40474 0.39999 0.61194 0.0
O46 O 0.41178 0.15909 0.59496 0.0
O47 O 0.42083 0.23258 0.55393 0.0
C48 C 0.42356 0.17644 0.57007 0.0
C49 C 0.40609 0.41042 0.50682 0.0
C50 C 0.4063 0.36129 0.63906 0.0
C51 C 0.36037 0.28021 0.56407 0.0
O52 O 0.367 0.33846 0.56022 0.0
O53 O 0.37119 0.23241 0.57272 0.0
O54 O 0.39535 0.44594 0.52731 0.0
O55 O 0.4112 0.35272 0.51856 0.0
O56 O 0.11344 0.80942 1.00359 0.0
Cd57 Cd 0.11959 0.75481 0.04917 0.0
Cd58 Cd 0.12453 0.8766 0.07809 0.0
O59 O 0.11479 0.90936 0.02807 0.0
O60 O 0.10698 0.667 0.04202 0.0
O61 O 0.09891 0.73796 0.08517 0.0
C62 C 0.0959 0.68251 0.06844 0.0
C63 C 0.11242 0.91613 0.13296 0.0
C64 C 0.11181 0.87209 1.00074 0.0
C65 C 0.15861 0.78697 0.07292 0.0
O66 O 0.15202 0.8439 0.08083 0.0
O67 O 0.14788 0.74151 0.06069 0.0
O68 O 0.12319 0.95244 0.11297 0.0
O69 O 0.10775 0.85816 0.12085 0.0
O70 O 0.90611 0.19554 1.00334 0.0
Cd71 Cd 0.9004 0.24543 0.05109 0.0
Cd72 Cd 0.89639 0.12099 0.07522 0.0
O73 O 0.9075 0.09396 0.02553 0.0
O74 O 0.91232 0.33496 0.04555 0.0
O75 O 0.92175 0.26073 0.08581 0.0
C76 C 0.92406 0.3179 0.07054 0.0
C77 C 0.90842 0.08294 0.13031 0.0
C78 C 0.90922 0.1338 0.99897 0.0
C79 C 0.8616 0.20634 0.07292 0.0
O80 O 0.86844 0.14825 0.076 0.0
O81 O 0.87229 0.25534 0.06562 0.0
O82 O 0.89867 0.04457 0.10947 0.0
O83 O 0.91206 0.1423 0.11899 0.0
O84 O 0.11504 0.19612 0.63625 0.0
Cd85 Cd 0.12037 0.24667 0.58861 0.0
Cd86 Cd 0.12388 0.12283 0.56352 0.0
O87 O 0.11272 0.09536 0.61313 0.0
O88 O 0.10847 0.33599 0.59506 0.0
O89 O 0.09872 0.26236 0.55462 0.0
C90 C 0.09651 0.31921 0.57036 0.0
C91 C 0.11194 0.08575 0.50805 0.0
C92 C 0.11154 0.13455 0.64015 0.0
C93 C 0.15891 0.20723 0.56593 0.0
O94 O 0.1519 0.14934 0.56288 0.0
O95 O 0.14836 0.25654 0.57338 0.0
O96 O 0.12154 0.04689 0.52882 0.0
O97 O 0.10833 0.14495 0.5197 0.0
O98 O 0.90532 0.81268 0.63477 0.0
Cd99 Cd 0.90008 0.75937 0.58792 0.0
Cd100 Cd 0.89621 0.88171 0.56094 0.0
O101 O 0.9071 0.91232 0.6102 0.0
O102 O 0.9123 0.67093 0.59542 0.0
O103 O 0.92168 0.74298 0.55391 0.0
C104 C 0.92412 0.68698 0.57034 0.0
C105 C 0.90816 0.91767 0.50535 0.0
C106 C 0.90852 0.87464 0.63775 0.0
C107 C 0.86145 0.79587 0.56431 0.0
O108 O 0.8683 0.85377 0.56019 0.0
O109 O 0.87211 0.74756 0.57291 0.0
O110 O 0.89823 0.95649 0.52559 0.0
O111 O 0.91207 0.85915 0.51757 0.0
H112 H 0.83471 0.11012 0.07961 0.0
H113 H 0.80068 0.12403 0.08165 0.0
H114 H 0.80744 0.33688 0.07702 0.0
H115 H 0.84164 0.32338 0.07391 0.0
H116 H 0.77776 0.18516 0.1292 0.0
H117 H 0.77131 0.30546 0.99451 0.0
H118 H 0.79277 0.26648 0.00953 0.0
H119 H 0.78681 0.34883 0.02476 0.0
C120 C 0.82902 0.16003 0.07904 0.0
C121 C 0.84095 0.21567 0.07629 0.0
C122 C 0.80951 0.16784 0.08024 0.0
C123 C 0.80145 0.23139 0.07879 0.0
C124 C 0.81331 0.28723 0.07721 0.0
H125 H 0.68747 0.37901 0.08735 0.0
H126 H 0.72144 0.36308 0.08991 0.0
C127 C 0.83287 0.27946 0.0757 0.0
C128 C 0.78064 0.23873 0.07894 0.0
H129 H 0.74376 0.30251 0.03085 0.0
C130 C 0.77033 0.21058 0.10761 0.0
C131 C 0.77091 0.27148 0.05061 0.0
C132 C 0.78098 0.29922 0.01793 0.0
C133 C 0.75062 0.21538 0.10903 0.0
C134 C 0.74099 0.24894 0.08101 0.0
C135 C 0.75124 0.27695 0.05234 0.0
C136 C 0.72027 0.25691 0.08124 0.0
C137 C 0.74022 0.18567 0.14076 0.0
C138 C 0.70833 0.20227 0.07558 0.0
C139 C 0.6888 0.21115 0.07389 0.0
C140 C 0.68091 0.27488 0.07793 0.0
C141 C 0.69299 0.32918 0.08419 0.0
C142 C 0.71245 0.32029 0.08562 0.0
H143 H 0.74988 0.17098 0.16302 0.0
H144 H 0.72975 0.22153 0.15155 0.0
H145 H 0.73248 0.14078 0.13159 0.0
H146 H 0.71414 0.153 0.07175 0.0
H147 H 0.67993 0.16832 0.06895 0.0
H148 H 0.18291 0.84493 0.12051 0.0
H149 H 0.2171 0.83369 0.12256 0.0
H150 H 0.21494 0.69618 0.03273 0.0
H151 H 0.18059 0.70429 0.03211 0.0
H152 H 0.23983 0.65575 0.07749 0.0
H153 H 0.25289 0.92392 0.05733 0.0
H154 H 0.23948 0.9097 0.09769 0.0
H155 H 0.2297 0.88839 0.05408 0.0
C156 C 0.18974 0.8119 0.10139 0.0
C157 C 0.1791 0.77575 0.07602 0.0
C158 C 0.20932 0.8061 0.10229 0.0
C159 C 0.21875 0.76587 0.07699 0.0
C160 C 0.20807 0.72806 0.05236 0.0
H161 H 0.33866 0.80462 0.03047 0.0
H162 H 0.30432 0.81446 0.03137 0.0
C163 C 0.18842 0.73257 0.05205 0.0
C164 C 0.2397 0.76278 0.07633 0.0
H165 H 0.27936 0.85883 0.07525 0.0
C166 C 0.24845 0.70023 0.07675 0.0
C167 C 0.25106 0.82065 0.07453 0.0
C168 C 0.24279 0.88933 0.07046 0.0
C169 C 0.26812 0.69386 0.07595 0.0
C170 C 0.27948 0.75181 0.07649 0.0
C171 C 0.27074 0.81435 0.0755 0.0
C172 C 0.30043 0.74865 0.07725 0.0
C173 C 0.27639 0.62491 0.07337 0.0
C174 C 0.30981 0.7103 0.10342 0.0
C175 C 0.32936 0.70348 0.10239 0.0
C176 C 0.34002 0.73681 0.07598 0.0
C177 C 0.33079 0.77855 0.05121 0.0
C178 C 0.31116 0.78401 0.05167 0.0
H179 H 0.26628 0.58932 0.06104 0.0
H180 H 0.28948 0.62455 0.05695 0.0
H181 H 0.27971 0.60667 0.10102 0.0
H182 H 0.302 0.6847 0.12438 0.0
H183 H 0.33614 0.67163 0.12212 0.0
H184 H 0.84142 0.67898 0.56707 0.0
H185 H 0.80725 0.66504 0.56287 0.0
H186 H 0.80071 0.87683 0.55018 0.0
H187 H 0.83468 0.89106 0.55339 0.0
H188 H 0.78028 0.71429 0.60715 0.0
H189 H 0.76857 0.80974 0.46814 0.0
H190 H 0.79167 0.7896 0.48508 0.0
H191 H 0.78088 0.86784 0.49641 0.0
C192 C 0.83272 0.72249 0.56296 0.0
C193 C 0.84084 0.78608 0.56037 0.0
C194 C 0.81319 0.71447 0.56061 0.0
C195 C 0.8014 0.76977 0.55556 0.0
C196 C 0.80949 0.8332 0.55306 0.0
H197 H 0.68 0.82947 0.56795 0.0
H198 H 0.71425 0.84472 0.56537 0.0
C199 C 0.82897 0.84124 0.55517 0.0
C200 C 0.78062 0.76174 0.55483 0.0
H201 H 0.74123 0.79626 0.50506 0.0
C202 C 0.77178 0.73177 0.58469 0.0
C203 C 0.76948 0.78475 0.52554 0.0
C204 C 0.77814 0.81418 0.49183 0.0
C205 C 0.75214 0.72512 0.58631 0.0
C206 C 0.74105 0.7488 0.55728 0.0
C207 C 0.74981 0.77871 0.5274 0.0
C208 C 0.72036 0.74052 0.55707 0.0
C209 C 0.7433 0.69351 0.61925 0.0
C210 C 0.71253 0.67717 0.55253 0.0
C211 C 0.69307 0.66832 0.55374 0.0
C212 C 0.68098 0.72271 0.55967 0.0
C213 C 0.68887 0.78653 0.56342 0.0
C214 C 0.70842 0.79536 0.56196 0.0
H215 H 0.75344 0.68868 0.64202 0.0
H216 H 0.73104 0.72309 0.62858 0.0
H217 H 0.73817 0.6431 0.61204 0.0
H218 H 0.72152 0.63437 0.54839 0.0
H219 H 0.68754 0.61846 0.55066 0.0
H220 H 0.1855 0.11018 0.55876 0.0
H221 H 0.21957 0.12297 0.55649 0.0
H222 H 0.21343 0.33602 0.56169 0.0
H223 H 0.17921 0.32363 0.56502 0.0
H224 H 0.2426 0.18357 0.50896 0.0
H225 H 0.24958 0.30296 0.64395 0.0
H226 H 0.22799 0.26476 0.62894 0.0
H227 H 0.23417 0.34698 0.61388 0.0
C228 C 0.19134 0.1599 0.5594 0.0
C229 C 0.17957 0.21591 0.56238 0.0
C230 C 0.21086 0.16706 0.55807 0.0
C231 C 0.21912 0.23033 0.55962 0.0
C232 C 0.20742 0.28656 0.56143 0.0
H233 H 0.3335 0.37423 0.55149 0.0
H234 H 0.29949 0.35941 0.54892 0.0
C235 C 0.18784 0.27944 0.56306 0.0
C236 C 0.23995 0.23697 0.55939 0.0
H237 H 0.27708 0.29916 0.6075 0.0
C238 C 0.25013 0.20861 0.53059 0.0
C239 C 0.24981 0.26921 0.58776 0.0
C240 C 0.23987 0.29714 0.62057 0.0
C241 C 0.26985 0.21272 0.52909 0.0
C242 C 0.27962 0.24578 0.55716 0.0
C243 C 0.2695 0.27399 0.58596 0.0
C244 C 0.30037 0.25305 0.55686 0.0
C245 C 0.28012 0.18285 0.49721 0.0
C246 C 0.31216 0.19793 0.56211 0.0
C247 C 0.33172 0.20617 0.56379 0.0
C248 C 0.33979 0.26972 0.56019 0.0
C249 C 0.32785 0.32451 0.55432 0.0
C250 C 0.30837 0.31626 0.55289 0.0
H251 H 0.27038 0.16886 0.47491 0.0
H252 H 0.29073 0.2183 0.48655 0.0
H253 H 0.28767 0.13748 0.50617 0.0
H254 H 0.30622 0.14878 0.56563 0.0
H255 H 0.34048 0.16297 0.56842 0.0
H256 H 0.58603 0.36829 0.17531 0.0
H257 H 0.5792 0.39946 0.23825 0.0
H258 H 0.62541 0.53857 0.2362 0.0
H259 H 0.63153 0.51046 0.17311 0.0
H260 H 0.59847 0.38297 0.29546 0.0
H261 H 0.58815 0.65302 0.28401 0.0
H262 H 0.58913 0.60005 0.24458 0.0
H263 H 0.61045 0.63187 0.26475 0.0
C264 C 0.59444 0.40657 0.18813 0.0
C265 C 0.60919 0.43739 0.16915 0.0
C266 C 0.59057 0.42426 0.22414 0.0
C267 C 0.60152 0.4725 0.24199 0.0
C268 C 0.61625 0.50317 0.22288 0.0
H269 H 0.63147 0.48605 0.46541 0.0
H270 H 0.62535 0.45785 0.40233 0.0
C271 C 0.61985 0.48658 0.18676 0.0
C272 C 0.5987 0.48694 0.28129 0.0
H273 H 0.59851 0.61354 0.34302 0.0
C274 C 0.59811 0.43347 0.30576 0.0
C275 C 0.59771 0.55263 0.29506 0.0
C276 C 0.59616 0.61246 0.2706 0.0
C277 C 0.59767 0.44387 0.34342 0.0
C278 C 0.59869 0.50957 0.3572 0.0
C279 C 0.59814 0.56303 0.33273 0.0
C280 C 0.6015 0.524 0.3965 0.0
C281 C 0.59609 0.38405 0.36788 0.0
C282 C 0.59057 0.5723 0.41433 0.0
C283 C 0.59444 0.59004 0.45032 0.0
C284 C 0.60918 0.55921 0.46933 0.0
C285 C 0.61981 0.50993 0.45175 0.0
C286 C 0.6162 0.4933 0.41563 0.0
H287 H 0.58806 0.34351 0.35446 0.0
H288 H 0.61036 0.3646 0.37374 0.0
H289 H 0.58905 0.39648 0.39389 0.0
H290 H 0.57922 0.59713 0.4002 0.0
H291 H 0.58605 0.62839 0.46312 0.0
H292 H 0.38635 0.49603 0.17322 0.0
H293 H 0.39178 0.46765 0.23652 0.0
H294 H 0.44057 0.59528 0.23829 0.0
H295 H 0.43448 0.62698 0.17517 0.0
H296 H 0.41791 0.40967 0.27256 0.0
H297 H 0.41341 0.66918 0.32288 0.0
H298 H 0.40809 0.64734 0.27664 0.0
H299 H 0.43214 0.65641 0.29112 0.0
C300 C 0.39831 0.51788 0.18697 0.0
C301 C 0.4099 0.56421 0.16927 0.0
C302 C 0.40142 0.50156 0.22327 0.0
C303 C 0.41635 0.53038 0.24266 0.0
C304 C 0.42858 0.57402 0.22443 0.0
H305 H 0.43428 0.36511 0.46234 0.0
H306 H 0.44005 0.39636 0.39906 0.0
C307 C 0.42521 0.59159 0.18822 0.0
C308 C 0.41859 0.51527 0.28201 0.0
H309 H 0.42008 0.58655 0.36613 0.0
C310 C 0.41844 0.44841 0.29302 0.0
C311 C 0.4191 0.56574 0.30885 0.0
C312 C 0.41801 0.63864 0.29938 0.0
C313 C 0.41809 0.43057 0.32985 0.0
C314 C 0.41882 0.48102 0.35669 0.0
C315 C 0.41966 0.54781 0.34566 0.0
C316 C 0.41692 0.46625 0.39615 0.0
C317 C 0.41585 0.35801 0.33938 0.0
C318 C 0.4028 0.49799 0.41641 0.0
C319 C 0.39991 0.48186 0.45281 0.0
C320 C 0.4109 0.43284 0.46972 0.0
C321 C 0.42546 0.40261 0.44991 0.0
C322 C 0.42864 0.41995 0.41361 0.0
H323 H 0.41037 0.32861 0.31615 0.0
H324 H 0.42976 0.33717 0.34683 0.0
H325 H 0.40614 0.3514 0.36267 0.0
H326 H 0.39358 0.53402 0.40377 0.0
H327 H 0.38853 0.50595 0.46726 0.0
H328 H 0.41417 0.69386 0.93672 0.0
H329 H 0.41709 0.64667 0.87606 0.0
H330 H 0.40791 0.45033 0.91922 0.0
H331 H 0.40501 0.49712 0.98048 0.0
H332 H 0.43804 0.46267 0.86479 0.0
H333 H 0.37033 0.57427 0.82078 0.0
H334 H 0.38672 0.63136 0.84096 0.0
H335 H 0.37674 0.56594 0.86793 0.0
C336 C 0.41289 0.64053 0.93353 0.0
C337 C 0.40916 0.59935 0.96354 0.0
C338 C 0.41452 0.61372 0.89874 0.0
C339 C 0.4124 0.54523 0.8931 0.0
C340 C 0.40948 0.50344 0.92305 0.0
H341 H 0.40943 0.29245 0.70267 0.0
H342 H 0.41245 0.33728 0.76383 0.0
C343 C 0.40783 0.53027 0.95801 0.0
C344 C 0.41259 0.518 0.85573 0.0
H345 H 0.38871 0.5225 0.77546 0.0
C346 C 0.42724 0.47545 0.84524 0.0
C347 C 0.3985 0.53504 0.83031 0.0
C348 C 0.38207 0.5787 0.8405 0.0
C349 C 0.42836 0.45037 0.80968 0.0
C350 C 0.41424 0.46735 0.78425 0.0
C351 C 0.39959 0.50986 0.79487 0.0
C352 C 0.41393 0.44003 0.74681 0.0
C353 C 0.44485 0.40709 0.79949 0.0
C354 C 0.41354 0.48288 0.71677 0.0
C355 C 0.41164 0.45741 0.6816 0.0
C356 C 0.40998 0.38852 0.67584 0.0
C357 C 0.41076 0.34574 0.706 0.0
C358 C 0.41262 0.37125 0.74108 0.0
H359 H 0.45696 0.41494 0.81805 0.0
H360 H 0.44063 0.35411 0.8014 0.0
H361 H 0.44951 0.41698 0.77126 0.0
H362 H 0.41441 0.5362 0.72059 0.0
H363 H 0.41105 0.49181 0.65906 0.0
H364 H 0.61067 0.50086 0.98081 0.0
H365 H 0.60696 0.54652 0.91969 0.0
H366 H 0.60636 0.34812 0.87537 0.0
H367 H 0.60977 0.30206 0.93614 0.0
H368 H 0.63192 0.52967 0.86331 0.0
H369 H 0.56184 0.43277 0.82403 0.0
H370 H 0.56994 0.43368 0.87044 0.0
H371 H 0.57761 0.36949 0.83984 0.0
C372 C 0.60945 0.46688 0.95814 0.0
C373 C 0.61051 0.39775 0.96347 0.0
C374 C 0.60735 0.49308 0.92321 0.0
C375 C 0.60613 0.45073 0.89299 0.0
C376 C 0.60684 0.38175 0.8983 0.0
H377 H 0.61231 0.49902 0.65948 0.0
H378 H 0.60927 0.45655 0.7215 0.0
C379 C 0.60893 0.35552 0.93314 0.0
C380 C 0.60562 0.47854 0.85572 0.0
H381 H 0.58081 0.47701 0.77631 0.0
C382 C 0.62064 0.51874 0.84442 0.0
C383 C 0.59096 0.46376 0.83099 0.0
C384 C 0.57408 0.42307 0.84198 0.0
C385 C 0.62164 0.54337 0.80888 0.0
C386 C 0.60706 0.5283 0.7841 0.0
C387 C 0.59197 0.48837 0.79537 0.0
C388 C 0.60735 0.55374 0.74637 0.0
C389 C 0.63858 0.58388 0.79786 0.0
C390 C 0.60671 0.62231 0.73975 0.0
C391 C 0.60845 0.64672 0.70447 0.0
C392 C 0.61078 0.603 0.67497 0.0
C393 C 0.6106 0.5341 0.68154 0.0
C394 C 0.60887 0.50972 0.71695 0.0
H395 H 0.65047 0.57748 0.81707 0.0
H396 H 0.64339 0.56992 0.77024 0.0
H397 H 0.63472 0.63732 0.79753 0.0
H398 H 0.6052 0.65708 0.76201 0.0
H399 H 0.60836 0.70005 0.70046 0.0
H400 H 0.09259 0.84709 0.18443 0.0
H401 H 0.08792 0.87802 0.24807 0.0
H402 H 0.11579 0.06509 0.2289 0.0
H403 H 0.12064 0.03454 0.16549 0.0
H404 H 0.13112 0.9913 0.2857 0.0
H405 H 0.05364 0.01386 0.30011 0.0
H406 H 0.06166 0.93851 0.27892 0.0
H407 H 0.06535 0.01678 0.25666 0.0
C408 C 0.09738 0.89539 0.19358 0.0
C409 C 0.10706 0.93823 0.1699 0.0
C410 C 0.09462 0.9131 0.22994 0.0
C411 C 0.1014 0.97405 0.24316 0.0
C412 C 0.1104 0.01791 0.21922 0.0
H413 H 0.09408 0.15899 0.45573 0.0
H414 H 0.0899 0.12951 0.39172 0.0
C415 C 0.11314 1.00033 0.18295 0.0
C416 C 0.1009 0.98941 0.28252 0.0
H417 H 0.07159 0.01596 0.35458 0.0
C418 C 0.1181 0.99686 0.30072 0.0
C419 C 0.0839 0.99696 0.302 0.0
C420 C 0.06505 0.99171 0.28347 0.0
C421 C 0.11879 0.01103 0.33793 0.0
C422 C 0.10181 0.01708 0.35763 0.0
C423 C 0.08457 0.01058 0.33942 0.0
C424 C 0.10193 0.03131 0.39707 0.0
C425 C 0.1377 0.02025 0.35582 0.0
C426 C 0.10947 0.98496 0.42144 0.0
C427 C 0.11189 0.00158 0.45795 0.0
C428 C 0.10676 0.06489 0.4708 0.0
C429 C 0.09822 0.10989 0.4467 0.0
C430 C 0.0958 0.09314 0.41013 0.0
H431 H 0.14908 0.02823 0.33563 0.0
H432 H 0.13745 0.06321 0.37475 0.0
H433 H 0.14118 0.97509 0.3717 0.0
H434 H 0.11408 0.93666 0.41194 0.0
H435 H 0.1184 0.96559 0.47579 0.0
H436 H 0.90043 0.03516 0.4715 0.0
H437 H 0.90498 0.06209 0.40749 0.0
H438 H 0.93191 0.87279 0.39032 0.0
H439 H 0.92745 0.84518 0.45451 0.0
H440 H 0.94898 0.99259 0.35304 0.0
H441 H 0.87229 0.95641 0.33077 0.0
H442 H 0.87863 0.01129 0.36732 0.0
H443 H 0.88434 0.92453 0.37019 0.0
C444 C 0.9076 0.99958 0.45432 0.0
C445 C 0.91342 0.93771 0.46805 0.0
C446 C 0.91015 0.01508 0.41773 0.0
C447 C 0.91857 0.9691 0.3942 0.0
C448 C 0.92535 0.90884 0.40812 0.0
H449 H 0.90237 0.96177 0.16149 0.0
H450 H 0.9073 0.93083 0.22481 0.0
C451 C 0.92276 0.89316 0.44477 0.0
C452 C 0.91888 0.98185 0.35467 0.0
H453 H 0.88993 0.99747 0.28142 0.0
C454 C 0.93612 0.99353 0.33726 0.0
C455 C 0.90208 0.98213 0.33421 0.0
C456 C 0.88326 0.96743 0.35138 0.0
C457 C 0.93691 0.00696 0.29985 0.0
C458 C 0.92002 0.00902 0.2796 0.0
C459 C 0.90286 0.99607 0.29701 0.0
C460 C 0.91959 0.02504 0.24035 0.0
C461 C 0.95578 0.01813 0.28222 0.0
C462 C 0.92516 0.08796 0.22789 0.0
C463 C 0.92237 0.10585 0.19161 0.0
C464 C 0.91384 0.06123 0.16724 0.0
C465 C 0.90896 0.99735 0.17952 0.0
C466 C 0.91176 0.97956 0.21573 0.0
H467 H 0.96745 0.99853 0.29912 0.0
H468 H 0.95636 0.99417 0.2551 0.0
H469 H 0.95804 0.07228 0.27854 0.0
H470 H 0.93091 0.12427 0.24655 0.0
H471 H 0.92621 0.15552 0.18306 0.0
H472 H 0.91174 0.80851 0.70221 0.0
H473 H 0.91548 0.85626 0.76268 0.0
H474 H 0.91871 0.05254 0.71628 0.0
H475 H 0.91469 0.00538 0.65555 0.0
H476 H 0.94357 0.93675 0.79416 0.0
H477 H 0.87459 0.06608 0.78768 0.0
H478 H 0.88134 0.00274 0.75555 0.0
H479 H 0.89051 0.08563 0.75141 0.0
C480 C 0.91337 0.86184 0.70473 0.0
C481 C 0.9127 0.90318 0.67398 0.0
C482 C 0.91555 0.889 0.73937 0.0
C483 C 0.91705 0.95798 0.744 0.0
C484 C 0.91721 0.99923 0.71332 0.0
H485 H 0.91479 0.20565 0.93702 0.0
H486 H 0.91889 0.16355 0.87541 0.0
C487 C 0.91501 0.97214 0.67862 0.0
C488 C 0.91766 0.98658 0.78107 0.0
H489 H 0.893 0.08451 0.83988 0.0
C490 C 0.93255 0.9692 0.80418 0.0
C491 C 0.90321 0.02862 0.79409 0.0
C492 C 0.88641 0.04654 0.77108 0.0
C493 C 0.93347 0.9933 0.83994 0.0
C494 C 0.91895 0.035 0.85298 0.0
C495 C 0.90416 0.05275 0.82975 0.0
C496 C 0.91848 0.05989 0.89086 0.0
C497 C 0.95005 0.97461 0.86327 0.0
C498 C 0.91706 0.01552 0.9201 0.0
C499 C 0.91473 0.03942 0.95548 0.0
C500 C 0.91362 0.10817 0.9622 0.0
C501 C 0.91555 0.15241 0.93289 0.0
C502 C 0.91789 0.12847 0.8976 0.0
H503 H 0.96221 0.95801 0.84665 0.0
H504 H 0.95455 0.01707 0.88048 0.0
H505 H 0.94598 0.933 0.88137 0.0
H506 H 0.9171 0.96237 0.91544 0.0
H507 H 0.91321 0.00396 0.97736 0.0
H508 H 0.10266 0.80602 0.93848 0.0
H509 H 0.09921 0.8519 0.87765 0.0
H510 H 0.10839 0.04931 0.91962 0.0
H511 H 0.11175 0.00389 0.98099 0.0
H512 H 0.07854 0.03737 0.86579 0.0
H513 H 0.14567 0.9217 0.8215 0.0
H514 H 0.12909 0.86531 0.84161 0.0
H515 H 0.13931 0.93028 0.86866 0.0
C516 C 0.1038 0.85931 0.93498 0.0
C517 C 0.10769 0.90121 0.96464 0.0
C518 C 0.10187 0.88538 0.90011 0.0
C519 C 0.10388 0.95378 0.89408 0.0
C520 C 0.10689 0.99627 0.92374 0.0
H521 H 0.10871 0.20438 0.70359 0.0
H522 H 0.10504 0.1603 0.76476 0.0
C523 C 0.10881 0.97021 0.95877 0.0
C524 C 0.10367 0.98024 0.85659 0.0
H525 H 0.1274 0.9737 0.7762 0.0
C526 C 0.08922 0.02367 0.84616 0.0
C527 C 0.11763 0.96216 0.83111 0.0
C528 C 0.13391 0.91777 0.84123 0.0
C529 C 0.08819 0.04867 0.81062 0.0
C530 C 0.10218 0.03056 0.78514 0.0
C531 C 0.11661 0.98713 0.79567 0.0
C532 C 0.10262 0.0577 0.74774 0.0
C533 C 0.07197 0.09321 0.80049 0.0
C534 C 0.10265 0.01465 0.71773 0.0
C535 C 0.1049 0.03965 0.6826 0.0
C536 C 0.10731 0.10824 0.67684 0.0
C537 C 0.10683 0.15132 0.70694 0.0
C538 C 0.10459 0.12626 0.74201 0.0
H539 H 0.05987 0.08669 0.81922 0.0
H540 H 0.07657 0.14583 0.80217 0.0
H541 H 0.06717 0.08331 0.77235 0.0
H542 H 0.10126 0.96149 0.72157 0.0
H543 H 0.10523 0.00504 0.66009 0.0
H544 H 0.43759 0.92326 0.02552 0.0
H545 H 0.467 0.98345 0.03434 0.0
H546 H 0.47761 0.87176 0.132 0.0
H547 H 0.44841 0.80933 0.12256 0.0
H548 H 0.48027 0.06255 0.08579 0.0
H549 H 0.52538 0.838 0.0771 0.0
H550 H 0.50064 0.83613 0.06656 0.0
H551 H 0.50838 0.83514 0.11301 0.0
C552 C 0.4461 0.91163 0.04903 0.0
C553 C 0.44072 0.86104 0.07318 0.0
C554 C 0.46295 0.94618 0.05405 0.0
C555 C 0.47477 0.9313 0.08342 0.0
C556 C 0.46902 0.8829 0.10856 0.0
H557 H 0.57169 0.19594 0.12308 0.0
H558 H 0.54246 0.13339 0.1318 0.0
C559 C 0.45223 0.84764 0.10331 0.0
C560 C 0.49321 0.96588 0.08691 0.0
H561 H 0.54068 0.93976 0.08887 0.0
C562 C 0.49349 0.0357 0.08665 0.0
C563 C 0.51048 0.93085 0.08758 0.0
C564 C 0.5113 0.85594 0.08573 0.0
C565 C 0.51048 0.07142 0.08627 0.0
C566 C 0.52775 0.03641 0.08737 0.0
C567 C 0.52747 0.96661 0.08838 0.0
C568 C 0.54623 0.07087 0.08452 0.0
C569 C 0.50969 0.14616 0.08294 0.0
C570 C 0.55859 0.05434 0.05621 0.0
C571 C 0.57546 0.089 0.05163 0.0
C572 C 0.58032 0.14132 0.07515 0.0
C573 C 0.56828 0.15629 0.10431 0.0
C574 C 0.55148 0.12094 0.10914 0.0
H575 H 0.49578 0.16344 0.07301 0.0
H576 H 0.5121 0.16882 0.10998 0.0
H577 H 0.5207 0.1647 0.06414 0.0
H578 H 0.55494 0.01574 0.03694 0.0
H579 H 0.58439 0.07614 0.02889 0.0
H580 H 0.58414 0.92069 0.60853 0.0
H581 H 0.55466 0.9808 0.60055 0.0
H582 H 0.5427 0.86555 0.50457 0.0
H583 H 0.57193 0.80314 0.51327 0.0
H584 H 0.54059 0.05804 0.54961 0.0
H585 H 0.49569 0.8335 0.56163 0.0
H586 H 0.52057 0.83193 0.57088 0.0
H587 H 0.51217 0.82959 0.52486 0.0
C588 C 0.57532 0.9083 0.58556 0.0
C589 C 0.58032 0.85667 0.56171 0.0
C590 C 0.55843 0.94279 0.58103 0.0
C591 C 0.54619 0.92684 0.55242 0.0
C592 C 0.55159 0.8775 0.52748 0.0
H593 H 0.44885 0.1899 0.51431 0.0
H594 H 0.47813 0.12785 0.50534 0.0
C595 C 0.5684 0.84225 0.53229 0.0
C596 C 0.5277 0.96122 0.54951 0.0
H597 H 0.48023 0.93464 0.5492 0.0
C598 C 0.52739 0.03105 0.54937 0.0
C599 C 0.51043 0.92605 0.54967 0.0
C600 C 0.50965 0.85119 0.55212 0.0
C601 C 0.51039 0.06663 0.5501 0.0
C602 C 0.49312 0.03146 0.54971 0.0
C603 C 0.49343 0.96164 0.54914 0.0
C604 C 0.47462 0.06578 0.55281 0.0
C605 C 0.51117 0.14144 0.55301 0.0
C606 C 0.46237 0.04931 0.58129 0.0
C607 C 0.44546 0.08359 0.58598 0.0
C608 C 0.44045 0.13554 0.56241 0.0
C609 C 0.45239 0.15053 0.53312 0.0
C610 C 0.46922 0.11549 0.52816 0.0
H611 H 0.52512 0.15899 0.56263 0.0
H612 H 0.50866 0.16348 0.52587 0.0
H613 H 0.50024 0.16039 0.57187 0.0
H614 H 0.46614 0.011 0.6006 0.0
H615 H 0.43662 0.07076 0.60884 0.0
H616 H 0.07146 0.69512 0.12561 0.0
H617 H 0.04271 0.63103 0.13666 0.0
H618 H 0.05375 0.51375 0.04101 0.0
H619 H 0.08269 0.57572 0.03058 0.0
H620 H 0.01227 0.62331 0.09655 0.0
H621 H 0.04062 0.36942 0.1104 0.0
H622 H 0.05555 0.44193 0.11129 0.0
H623 H 0.04829 0.40607 0.0687 0.0
C624 C 0.06793 0.6548 0.10735 0.0
C625 C 0.07944 0.64027 0.07734 0.0
C626 C 0.05147 0.61831 0.11364 0.0
C627 C 0.04616 0.56668 0.09003 0.0
C628 C 0.05776 0.55185 0.06027 0.0
H629 H 0.9362 0.42802 0.03431 0.0
H630 H 0.96518 0.49022 0.04406 0.0
C631 C 0.07429 0.58774 0.0542 0.0
C632 C 0.02789 0.53156 0.09476 0.0
H633 H 1.00779 0.37737 0.09429 0.0
C634 C 0.01133 0.56949 0.09662 0.0
C635 C 0.02656 0.46134 0.09561 0.0
C636 C 0.04374 0.41744 0.09681 0.0
C637 C 0.99352 0.53926 0.09752 0.0
C638 C 0.99216 0.46912 0.09539 0.0
C639 C 1.00874 0.43115 0.09536 0.0
C640 C 0.97381 0.43417 0.09132 0.0
C641 C 0.97637 0.58301 0.10078 0.0
C642 C 0.96905 0.38084 0.11415 0.0
C643 C 0.95257 0.34424 0.1082 0.0
C644 C 0.94049 0.36039 0.07933 0.0
C645 C 0.94506 0.41472 0.05706 0.0
C646 C 0.96161 0.45073 0.06276 0.0
H647 H 0.97975 0.63015 0.1151 0.0
H648 H 0.97131 0.59614 0.07324 0.0
H649 H 0.96483 0.5576 0.11556 0.0
H650 H 0.97826 0.36679 0.13625 0.0
H651 H 0.94949 0.30254 0.12578 0.0
H652 H 0.08416 0.42652 0.60883 0.0
H653 H 0.05485 0.48771 0.60081 0.0
H654 H 0.04207 0.37032 0.50599 0.0
H655 H 0.07111 0.30689 0.51475 0.0
H656 H 0.04066 0.564 0.54953 0.0
H657 H 0.99533 0.34112 0.56432 0.0
H658 H 0.02025 0.33911 0.57309 0.0
H659 H 0.0116 0.33563 0.52726 0.0
C660 C 0.0752 0.41394 0.58609 0.0
C661 C 0.0799 0.36138 0.56262 0.0
C662 C 0.05841 0.44902 0.58154 0.0
C663 C 0.04598 0.43273 0.55329 0.0
C664 C 0.05111 0.38254 0.52865 0.0
H665 H 0.94921 0.69742 0.5141 0.0
H666 H 0.97827 0.63401 0.5054 0.0
C667 C 0.06782 0.34672 0.53349 0.0
C668 C 0.02756 0.46756 0.55047 0.0
H669 H 0.98003 0.44227 0.55114 0.0
C670 C 0.0274 0.53737 0.54973 0.0
C671 C 0.01022 0.43286 0.55124 0.0
C672 C 1.00928 0.35812 0.55438 0.0
C673 C 0.01048 0.57343 0.55041 0.0
C674 C 0.99313 0.53872 0.55057 0.0
C675 C 0.99329 0.4689 0.55064 0.0
C676 C 0.97473 0.57365 0.55351 0.0
C677 C 0.01144 0.64829 0.55263 0.0
C678 C 0.96251 0.5585 0.58227 0.0
C679 C 0.94571 0.59355 0.5868 0.0
C680 C 0.94079 0.64494 0.56281 0.0
C681 C 0.95268 0.65851 0.53324 0.0
C682 C 0.96939 0.6227 0.52842 0.0
H683 H 0.02545 0.66572 0.56197 0.0
H684 H 1.00891 0.66958 0.52533 0.0
H685 H 1.0006 0.66812 0.57143 0.0
H686 H 0.96623 0.52069 0.6019 0.0
H687 H 0.9369 0.58182 0.60989 0.0
loop_
_geom_bond_atom_site_label_1
_geom_bond_atom_site_label_2
_geom_bond_distance
_geom_bond_site_symmetry_2
_ccdc_geom_bond_type
O0 Cd1 2.223 1_556 S
O0 C8 1.315 . S
Cd1 O0 2.223 1_554 S
Cd1 O4 2.297 . S
Cd1 O5 2.439 . S
Cd1 O11 2.240 . S
Cd2 O3 2.240 . S
Cd2 O10 2.223 . S
Cd2 O12 2.297 . S
Cd2 O13 2.439 . S
O3 Cd2 2.240 . S
O3 C8 1.279 1_554 S
O4 Cd1 2.297 . S
O4 C6 1.247 . S
O5 Cd1 2.439 . S
O5 C6 1.208 . S
C6 O4 1.247 . S
C6 O5 1.208 . S
C7 O12 1.247 . S
C7 O13 1.208 . S
C8 O0 1.315 . S
C8 O3 1.279 1_556 S
C9 O10 1.315 . S
C9 O11 1.279 . S
O10 Cd2 2.223 . S
O10 C9 1.315 . S
O11 Cd1 2.240 . S
O11 C9 1.279 . S
O12 Cd2 2.297 . S
O12 C7 1.247 . S
O13 Cd2 2.439 . S
O13 C7 1.208 . S
O14 Cd15 2.223 1_556 S
O14 C22 1.315 . S
Cd15 O14 2.223 1_554 S
Cd15 O18 2.297 . S
Cd15 O19 2.439 . S
Cd15 O25 2.240 . S
Cd16 O17 2.240 . S
Cd16 O24 2.223 . S
Cd16 O26 2.297 . S
Cd16 O27 2.439 . S
O17 Cd16 2.240 . S
O17 C22 1.279 1_554 S
O18 Cd15 2.297 . S
O18 C20 1.247 . S
O19 Cd15 2.439 . S
O19 C20 1.208 . S
C20 O18 1.247 . S
C20 O19 1.208 . S
C21 O26 1.247 . S
C21 O27 1.208 . S
C22 O14 1.315 . S
C22 O17 1.279 1_556 S
C23 O24 1.315 . S
C23 O25 1.279 . S
O24 Cd16 2.223 . S
O24 C23 1.315 . S
O25 Cd15 2.240 . S
O25 C23 1.279 . S
O26 Cd16 2.297 . S
O26 C21 1.247 . S
O27 Cd16 2.439 . S
O27 C21 1.208 . S
O28 Cd29 2.223 . S
O28 C36 1.315 . S
Cd29 O28 2.223 . S
Cd29 O32 2.297 . S
Cd29 O33 2.439 . S
Cd29 O39 2.240 . S
Cd30 O31 2.240 . S
Cd30 O38 2.223 . S
Cd30 O40 2.297 . S
Cd30 O41 2.439 . S
O31 Cd30 2.240 . S
O31 C36 1.279 . S
O32 Cd29 2.297 . S
O32 C34 1.247 . S
O33 Cd29 2.439 . S
O33 C34 1.208 . S
C34 O32 1.247 . S
C34 O33 1.208 . S
C35 O40 1.247 . S
C35 O41 1.208 . S
C36 O28 1.315 . S
C36 O31 1.279 . S
C37 O38 1.315 . S
C37 O39 1.279 . S
O38 Cd30 2.223 . S
O38 C37 1.315 . S
O39 Cd29 2.240 . S
O39 C37 1.279 . S
O40 Cd30 2.297 . S
O40 C35 1.247 . S
O41 Cd30 2.439 . S
O41 C35 1.208 . S
O42 Cd43 2.223 . S
O42 C50 1.315 . S
Cd43 O42 2.223 . S
Cd43 O46 2.297 . S
Cd43 O47 2.439 . S
Cd43 O53 2.240 . S
Cd44 O45 2.240 . S
Cd44 O52 2.223 . S
Cd44 O54 2.297 . S
Cd44 O55 2.439 . S
O45 Cd44 2.240 . S
O45 C50 1.279 . S
O46 Cd43 2.297 . S
O46 C48 1.247 . S
O47 Cd43 2.439 . S
O47 C48 1.208 . S
C48 O46 1.247 . S
C48 O47 1.208 . S
C49 O54 1.247 . S
C49 O55 1.208 . S
C50 O42 1.315 . S
C50 O45 1.279 . S
C51 O52 1.315 . S
C51 O53 1.279 . S
O52 Cd44 2.223 . S
O52 C51 1.315 . S
O53 Cd43 2.240 . S
O53 C51 1.279 . S
O54 Cd44 2.297 . S
O54 C49 1.247 . S
O55 Cd44 2.439 . S
O55 C49 1.208 . S
O56 Cd57 2.223 1_556 S
O56 C64 1.315 . S
Cd57 O56 2.223 1_554 S
Cd57 O60 2.297 . S
Cd57 O61 2.439 . S
Cd57 O67 2.240 . S
Cd58 O59 2.240 . S
Cd58 O66 2.223 . S
Cd58 O68 2.297 . S
Cd58 O69 2.439 . S
O59 Cd58 2.240 . S
O59 C64 1.279 1_554 S
O60 Cd57 2.297 . S
O60 C62 1.247 . S
O61 Cd57 2.439 . S
O61 C62 1.208 . S
C62 O60 1.247 . S
C62 O61 1.208 . S
C63 O68 1.247 . S
C63 O69 1.208 . S
C64 O56 1.315 . S
C64 O59 1.279 1_556 S
C65 O66 1.315 . S
C65 O67 1.279 . S
O66 Cd58 2.223 . S
O66 C65 1.315 . S
O67 Cd57 2.240 . S
O67 C65 1.279 . S
O68 Cd58 2.297 . S
O68 C63 1.247 . S
O69 Cd58 2.439 . S
O69 C63 1.208 . S
O70 Cd71 2.223 1_556 S
O70 C78 1.315 . S
Cd71 O70 2.223 1_554 S
Cd71 O74 2.297 . S
Cd71 O75 2.439 . S
Cd71 O81 2.240 . S
Cd72 O73 2.240 . S
Cd72 O80 2.223 . S
Cd72 O82 2.297 . S
Cd72 O83 2.439 . S
O73 Cd72 2.240 . S
O73 C78 1.279 1_554 S
O74 Cd71 2.297 . S
O74 C76 1.247 . S
O75 Cd71 2.439 . S
O75 C76 1.208 . S
C76 O74 1.247 . S
C76 O75 1.208 . S
C77 O82 1.247 . S
C77 O83 1.208 . S
C78 O70 1.315 . S
C78 O73 1.279 1_556 S
C79 O80 1.315 . S
C79 O81 1.279 . S
O80 Cd72 2.223 . S
O80 C79 1.315 . S
O81 Cd71 2.240 . S
O81 C79 1.279 . S
O82 Cd72 2.297 . S
O82 C77 1.247 . S
O83 Cd72 2.439 . S
O83 C77 1.208 . S
O84 Cd85 2.223 . S
O84 C92 1.315 . S
Cd85 O84 2.223 . S
Cd85 O88 2.297 . S
Cd85 O89 2.439 . S
Cd85 O95 2.240 . S
Cd86 O87 2.240 . S
Cd86 O94 2.223 . S
Cd86 O96 2.297 . S
Cd86 O97 2.439 . S
O87 Cd86 2.240 . S
O87 C92 1.279 . S
O88 Cd85 2.297 . S
O88 C90 1.247 . S
O89 Cd85 2.439 . S
O89 C90 1.208 . S
C90 O88 1.247 . S
C90 O89 1.208 . S
C91 O96 1.247 . S
C91 O97 1.208 . S
C92 O84 1.315 . S
C92 O87 1.279 . S
C93 O94 1.315 . S
C93 O95 1.279 . S
O94 Cd86 2.223 . S
O94 C93 1.315 . S
O95 Cd85 2.240 . S
O95 C93 1.279 . S
O96 Cd86 2.297 . S
O96 C91 1.247 . S
O97 Cd86 2.439 . S
O97 C91 1.208 . S
O98 Cd99 2.223 . S
O98 C106 1.315 . S
Cd99 O98 2.223 . S
Cd99 O102 2.297 . S
Cd99 O103 2.439 . S
Cd99 O109 2.240 . S
Cd100 O101 2.240 . S
Cd100 O108 2.223 . S
Cd100 O110 2.297 . S
Cd100 O111 2.439 . S
O101 Cd100 2.240 . S
O101 C106 1.279 . S
O102 Cd99 2.297 . S
O102 C104 1.247 . S
O103 Cd99 2.439 . S
O103 C104 1.208 . S
C104 O102 1.247 . S
C104 O103 1.208 . S
C105 O110 1.247 . S
C105 O111 1.208 . S
C106 O98 1.315 . S
C106 O101 1.279 . S
C107 O108 1.315 . S
C107 O109 1.279 . S
O108 Cd100 2.223 . S
O108 C107 1.315 . S
O109 Cd99 2.240 . S
O109 C107 1.279 . S
O110 Cd100 2.297 . S
O110 C105 1.247 . S
O111 Cd100 2.439 . S
O111 C105 1.208 . S
H112 C120 0.929 . S
H113 C122 0.930 . S
H114 C124 0.930 . S
H115 C127 0.929 . S
H116 C130 0.930 . S
H117 C132 0.960 . S
H118 C132 0.960 1_556 S
H119 C132 0.960 . S
C120 H112 0.929 . S
C120 C121 1.377 . S
C120 C122 1.384 . S
C121 C120 1.377 . S
C121 C127 1.390 . S
C122 H113 0.930 . S
C122 C120 1.384 . S
C122 C123 1.372 . S
C123 C122 1.372 . S
C123 C124 1.400 . S
C123 C128 1.490 . S
C124 H114 0.930 . S
C124 C123 1.400 . S
C124 C127 1.386 . S
H125 C141 0.930 . S
H126 C142 0.931 . S
C127 H115 0.929 . S
C127 C121 1.390 . S
C127 C124 1.386 . S
C128 C123 1.490 . S
C128 C130 1.395 . S
C128 C131 1.403 . S
H129 C135 0.930 . S
C130 H116 0.930 . S
C130 C128 1.395 . S
C130 C133 1.403 . S
C131 C128 1.403 . S
C131 C132 1.524 . S
C131 C135 1.400 . S
C132 H117 0.960 . S
C132 H118 0.960 1_554 S
C132 H119 0.960 . S
C132 C131 1.524 . S
C133 C130 1.403 . S
C133 C134 1.392 . S
C133 C137 1.495 . S
C134 C133 1.392 . S
C134 C135 1.385 . S
C134 C136 1.478 . S
C135 H129 0.930 . S
C135 C131 1.400 . S
C135 C134 1.385 . S
C136 C134 1.478 . S
C136 C138 1.381 . S
C136 C142 1.383 . S
C137 C133 1.495 . S
C137 H143 0.959 . S
C137 H144 0.961 . S
C137 H145 0.960 . S
C138 C136 1.381 . S
C138 C139 1.394 . S
C138 H146 0.930 . S
C139 C138 1.394 . S
C139 C140 1.383 . S
C139 H147 0.929 . S
C140 C139 1.383 . S
C140 C141 1.377 . S
C141 H125 0.930 . S
C141 C140 1.377 . S
C141 C142 1.379 . S
C142 H126 0.931 . S
C142 C136 1.383 . S
C142 C141 1.379 . S
H143 C137 0.959 . S
H144 C137 0.961 . S
H145 C137 0.960 . S
H146 C138 0.930 . S
H147 C139 0.929 . S
H148 C156 0.929 . S
H149 C158 0.930 . S
H150 C160 0.930 1_556 S
H151 C163 0.929 1_556 S
H152 C166 0.930 . S
H153 C168 0.960 . S
H154 C168 0.960 1_554 S
H155 C168 0.960 . S
C156 H148 0.929 . S
C156 C157 1.377 . S
C156 C158 1.384 . S
C157 C156 1.377 . S
C157 C163 1.390 . S
C158 H149 0.930 . S
C158 C156 1.384 . S
C158 C159 1.372 . S
C159 C158 1.372 . S
C159 C160 1.400 . S
C159 C164 1.490 . S
C160 H150 0.930 1_554 S
C160 C159 1.400 . S
C160 C163 1.386 . S
H161 C177 0.930 1_556 S
H162 C178 0.931 1_556 S
C163 H151 0.929 1_554 S
C163 C157 1.390 . S
C163 C160 1.386 . S
C164 C159 1.490 . S
C164 C166 1.395 . S
C164 C167 1.403 . S
H165 C171 0.930 . S
C166 H152 0.930 . S
C166 C164 1.395 . S
C166 C169 1.403 . S
C167 C164 1.403 . S
C167 C168 1.524 1_554 S
C167 C171 1.400 . S
C168 H153 0.960 . S
C168 H154 0.960 1_556 S
C168 H155 0.960 . S
C168 C167 1.524 1_556 S
C169 C166 1.403 . S
C169 C170 1.392 . S
C169 C173 1.495 . S
C170 C169 1.392 . S
C170 C171 1.385 . S
C170 C172 1.478 . S
C171 H165 0.930 . S
C171 C167 1.400 . S
C171 C170 1.385 . S
C172 C170 1.478 . S
C172 C174 1.381 . S
C172 C178 1.383 . S
C173 C169 1.495 . S
C173 H179 0.959 . S
C173 H180 0.961 . S
C173 H181 0.960 . S
C174 C172 1.381 . S
C174 C175 1.394 . S
C174 H182 0.930 . S
C175 C174 1.394 . S
C175 C176 1.383 . S
C175 H183 0.929 . S
C176 C175 1.383 . S
C176 C177 1.377 . S
C177 H161 0.930 1_554 S
C177 C176 1.377 . S
C177 C178 1.379 . S
C178 H162 0.931 1_554 S
C178 C172 1.383 . S
C178 C177 1.379 . S
H179 C173 0.959 . S
H180 C173 0.961 . S
H181 C173 0.960 . S
H182 C174 0.930 . S
H183 C175 0.929 . S
H184 C192 0.929 . S
H185 C194 0.930 . S
H186 C196 0.930 . S
H187 C199 0.929 . S
H188 C202 0.930 . S
H189 C204 0.960 . S
H190 C204 0.960 . S
H191 C204 0.960 . S
C192 H184 0.929 . S
C192 C193 1.377 . S
C192 C194 1.384 . S
C193 C192 1.377 . S
C193 C199 1.390 . S
C194 H185 0.930 . S
C194 C192 1.384 . S
C194 C195 1.372 . S
C195 C194 1.372 . S
C195 C196 1.400 . S
C195 C200 1.490 . S
C196 H186 0.930 . S
C196 C195 1.400 . S
C196 C199 1.386 . S
H197 C213 0.930 . S
H198 C214 0.931 . S
C199 H187 0.929 . S
C199 C193 1.390 . S
C199 C196 1.386 . S
C200 C195 1.490 . S
C200 C202 1.395 . S
C200 C203 1.403 . S
H201 C207 0.930 . S
C202 H188 0.930 . S
C202 C200 1.395 . S
C202 C205 1.403 . S
C203 C200 1.403 . S
C203 C204 1.524 . S
C203 C207 1.400 . S
C204 H189 0.960 . S
C204 H190 0.960 . S
C204 H191 0.960 . S
C204 C203 1.524 . S
C205 C202 1.403 . S
C205 C206 1.392 . S
C205 C209 1.495 . S
C206 C205 1.392 . S
C206 C207 1.385 . S
C206 C208 1.478 . S
C207 H201 0.930 . S
C207 C203 1.400 . S
C207 C206 1.385 . S
C208 C206 1.478 . S
C208 C210 1.381 . S
C208 C214 1.383 . S
C209 C205 1.495 . S
C209 H215 0.959 . S
C209 H216 0.961 . S
C209 H217 0.960 . S
C210 C208 1.381 . S
C210 C211 1.394 . S
C210 H218 0.930 . S
C211 C210 1.394 . S
C211 C212 1.383 . S
C211 H219 0.929 . S
C212 C211 1.383 . S
C212 C213 1.377 . S
C213 H197 0.930 . S
C213 C212 1.377 . S
C213 C214 1.379 . S
C214 H198 0.931 . S
C214 C208 1.383 . S
C214 C213 1.379 . S
H215 C209 0.959 . S
H216 C209 0.961 . S
H217 C209 0.960 . S
H218 C210 0.930 . S
H219 C211 0.929 . S
H220 C228 0.929 . S
H221 C230 0.930 . S
H222 C232 0.930 . S
H223 C235 0.929 . S
H224 C238 0.930 . S
H225 C240 0.960 . S
H226 C240 0.960 . S
H227 C240 0.960 . S
C228 H220 0.929 . S
C228 C229 1.377 . S
C228 C230 1.384 . S
C229 C228 1.377 . S
C229 C235 1.390 . S
C230 H221 0.930 . S
C230 C228 1.384 . S
C230 C231 1.372 . S
C231 C230 1.372 . S
C231 C232 1.400 . S
C231 C236 1.490 . S
C232 H222 0.930 . S
C232 C231 1.400 . S
C232 C235 1.386 . S
H233 C249 0.930 . S
H234 C250 0.931 . S
C235 H223 0.929 . S
C235 C229 1.390 . S
C235 C232 1.386 . S
C236 C231 1.490 . S
C236 C238 1.395 . S
C236 C239 1.403 . S
H237 C243 0.930 . S
C238 H224 0.930 . S
C238 C236 1.395 . S
C238 C241 1.403 . S
C239 C236 1.403 . S
C239 C240 1.524 . S
C239 C243 1.400 . S
C240 H225 0.960 . S
C240 H226 0.960 . S
C240 H227 0.960 . S
C240 C239 1.524 . S
C241 C238 1.403 . S
C241 C242 1.392 . S
C241 C245 1.495 . S
C242 C241 1.392 . S
C242 C243 1.385 . S
C242 C244 1.478 . S
C243 H237 0.930 . S
C243 C239 1.400 . S
C243 C242 1.385 . S
C244 C242 1.478 . S
C244 C246 1.381 . S
C244 C250 1.383 . S
C245 C241 1.495 . S
C245 H251 0.959 . S
C245 H252 0.961 . S
C245 H253 0.960 . S
C246 C244 1.381 . S
C246 C247 1.394 . S
C246 H254 0.930 . S
C247 C246 1.394 . S
C247 C248 1.383 . S
C247 H255 0.929 . S
C248 C247 1.383 . S
C248 C249 1.377 . S
C249 H233 0.930 . S
C249 C248 1.377 . S
C249 C250 1.379 . S
C250 H234 0.931 . S
C250 C244 1.383 . S
C250 C249 1.379 . S
H251 C245 0.959 . S
H252 C245 0.961 . S
H253 C245 0.960 . S
H254 C246 0.930 . S
H255 C247 0.929 . S
H256 C264 0.929 . S
H257 C266 0.930 . S
H258 C268 0.930 . S
H259 C271 0.929 . S
H260 C274 0.930 . S
H261 C276 0.960 . S
H262 C276 0.960 . S
H263 C276 0.960 . S
C264 H256 0.929 . S
C264 C265 1.377 . S
C264 C266 1.384 . S
C265 C264 1.377 . S
C265 C271 1.390 . S
C266 H257 0.930 . S
C266 C264 1.384 . S
C266 C267 1.372 . S
C267 C266 1.372 . S
C267 C268 1.400 . S
C267 C272 1.490 . S
C268 H258 0.930 . S
C268 C267 1.400 . S
C268 C271 1.386 . S
H269 C285 0.930 . S
H270 C286 0.931 . S
C271 H259 0.929 . S
C271 C265 1.390 . S
C271 C268 1.386 . S
C272 C267 1.490 . S
C272 C274 1.395 . S
C272 C275 1.403 . S
H273 C279 0.930 . S
C274 H260 0.930 . S
C274 C272 1.395 . S
C274 C277 1.403 . S
C275 C272 1.403 . S
C275 C276 1.524 . S
C275 C279 1.400 . S
C276 H261 0.960 . S
C276 H262 0.960 . S
C276 H263 0.960 . S
C276 C275 1.524 . S
C277 C274 1.403 . S
C277 C278 1.392 . S
C277 C281 1.495 . S
C278 C277 1.392 . S
C278 C279 1.385 . S
C278 C280 1.478 . S
C279 H273 0.930 . S
C279 C275 1.400 . S
C279 C278 1.385 . S
C280 C278 1.478 . S
C280 C282 1.381 . S
C280 C286 1.383 . S
C281 C277 1.495 . S
C281 H287 0.959 . S
C281 H288 0.961 . S
C281 H289 0.960 . S
C282 C280 1.381 . S
C282 C283 1.394 . S
C282 H290 0.930 . S
C283 C282 1.394 . S
C283 C284 1.383 . S
C283 H291 0.929 . S
C284 C283 1.383 . S
C284 C285 1.377 . S
C285 H269 0.930 . S
C285 C284 1.377 . S
C285 C286 1.379 . S
C286 H270 0.931 . S
C286 C280 1.383 . S
C286 C285 1.379 . S
H287 C281 0.959 . S
H288 C281 0.961 . S
H289 C281 0.960 . S
H290 C282 0.930 . S
H291 C283 0.929 . S
H292 C300 0.929 . S
H293 C302 0.930 . S
H294 C304 0.930 . S
H295 C307 0.929 . S
H296 C310 0.930 . S
H297 C312 0.960 . S
H298 C312 0.960 . S
H299 C312 0.960 . S
C300 H292 0.929 . S
C300 C301 1.377 . S
C300 C302 1.384 . S
C301 C300 1.377 . S
C301 C307 1.390 . S
C302 H293 0.930 . S
C302 C300 1.384 . S
C302 C303 1.372 . S
C303 C302 1.372 . S
C303 C304 1.400 . S
C303 C308 1.490 . S
C304 H294 0.930 . S
C304 C303 1.400 . S
C304 C307 1.386 . S
H305 C321 0.930 . S
H306 C322 0.931 . S
C307 H295 0.929 . S
C307 C301 1.390 . S
C307 C304 1.386 . S
C308 C303 1.490 . S
C308 C310 1.395 . S
C308 C311 1.403 . S
H309 C315 0.930 . S
C310 H296 0.930 . S
C310 C308 1.395 . S
C310 C313 1.403 . S
C311 C308 1.403 . S
C311 C312 1.524 . S
C311 C315 1.400 . S
C312 H297 0.960 . S
C312 H298 0.960 . S
C312 H299 0.960 . S
C312 C311 1.524 . S
C313 C310 1.403 . S
C313 C314 1.392 . S
C313 C317 1.495 . S
C314 C313 1.392 . S
C314 C315 1.385 . S
C314 C316 1.478 . S
C315 H309 0.930 . S
C315 C311 1.400 . S
C315 C314 1.385 . S
C316 C314 1.478 . S
C316 C318 1.381 . S
C316 C322 1.383 . S
C317 C313 1.495 . S
C317 H323 0.959 . S
C317 H324 0.961 . S
C317 H325 0.960 . S
C318 C316 1.381 . S
C318 C319 1.394 . S
C318 H326 0.930 . S
C319 C318 1.394 . S
C319 C320 1.383 . S
C319 H327 0.929 . S
C320 C319 1.383 . S
C320 C321 1.377 . S
C321 H305 0.930 . S
C321 C320 1.377 . S
C321 C322 1.379 . S
C322 H306 0.931 . S
C322 C316 1.383 . S
C322 C321 1.379 . S
H323 C317 0.959 . S
H324 C317 0.961 . S
H325 C317 0.960 . S
H326 C318 0.930 . S
H327 C319 0.929 . S
H328 C336 0.929 . S
H329 C338 0.930 . S
H330 C340 0.930 . S
H331 C343 0.929 . S
H332 C346 0.930 . S
H333 C348 0.960 . S
H334 C348 0.960 . S
H335 C348 0.960 . S
C336 H328 0.929 . S
C336 C337 1.377 . S
C336 C338 1.384 . S
C337 C336 1.377 . S
C337 C343 1.390 . S
C338 H329 0.930 . S
C338 C336 1.384 . S
C338 C339 1.372 . S
C339 C338 1.372 . S
C339 C340 1.400 . S
C339 C344 1.490 . S
C340 H330 0.930 . S
C340 C339 1.400 . S
C340 C343 1.386 . S
H341 C357 0.930 . S
H342 C358 0.931 . S
C343 H331 0.929 . S
C343 C337 1.390 . S
C343 C340 1.386 . S
C344 C339 1.490 . S
C344 C346 1.395 . S
C344 C347 1.403 . S
H345 C351 0.930 . S
C346 H332 0.930 . S
C346 C344 1.395 . S
C346 C349 1.403 . S
C347 C344 1.403 . S
C347 C348 1.524 . S
C347 C351 1.400 . S
C348 H333 0.960 . S
C348 H334 0.960 . S
C348 H335 0.960 . S
C348 C347 1.524 . S
C349 C346 1.403 . S
C349 C350 1.392 . S
C349 C353 1.495 . S
C350 C349 1.392 . S
C350 C351 1.385 . S
C350 C352 1.478 . S
C351 H345 0.930 . S
C351 C347 1.400 . S
C351 C350 1.385 . S
C352 C350 1.478 . S
C352 C354 1.381 . S
C352 C358 1.383 . S
C353 C349 1.495 . S
C353 H359 0.959 . S
C353 H360 0.961 . S
C353 H361 0.960 . S
C354 C352 1.381 . S
C354 C355 1.394 . S
C354 H362 0.930 . S
C355 C354 1.394 . S
C355 C356 1.383 . S
C355 H363 0.929 . S
C356 C355 1.383 . S
C356 C357 1.377 . S
C357 H341 0.930 . S
C357 C356 1.377 . S
C357 C358 1.379 . S
C358 H342 0.931 . S
C358 C352 1.383 . S
C358 C357 1.379 . S
H359 C353 0.959 . S
H360 C353 0.961 . S
H361 C353 0.960 . S
H362 C354 0.930 . S
H363 C355 0.929 . S
H364 C372 0.929 . S
H365 C374 0.930 . S
H366 C376 0.930 . S
H367 C379 0.929 . S
H368 C382 0.930 . S
H369 C384 0.960 . S
H370 C384 0.960 . S
H371 C384 0.960 . S
C372 H364 0.929 . S
C372 C373 1.377 . S
C372 C374 1.384 . S
C373 C372 1.377 . S
C373 C379 1.390 . S
C374 H365 0.930 . S
C374 C372 1.384 . S
C374 C375 1.372 . S
C375 C374 1.372 . S
C375 C376 1.400 . S
C375 C380 1.490 . S
C376 H366 0.930 . S
C376 C375 1.400 . S
C376 C379 1.386 . S
H377 C393 0.930 . S
H378 C394 0.931 . S
C379 H367 0.929 . S
C379 C373 1.390 . S
C379 C376 1.386 . S
C380 C375 1.490 . S
C380 C382 1.395 . S
C380 C383 1.403 . S
H381 C387 0.930 . S
C382 H368 0.930 . S
C382 C380 1.395 . S
C382 C385 1.403 . S
C383 C380 1.403 . S
C383 C384 1.524 . S
C383 C387 1.400 . S
C384 H369 0.960 . S
C384 H370 0.960 . S
C384 H371 0.960 . S
C384 C383 1.524 . S
C385 C382 1.403 . S
C385 C386 1.392 . S
C385 C389 1.495 . S
C386 C385 1.392 . S
C386 C387 1.385 . S
C386 C388 1.478 . S
C387 H381 0.930 . S
C387 C383 1.400 . S
C387 C386 1.385 . S
C388 C386 1.478 . S
C388 C390 1.381 . S
C388 C394 1.383 . S
C389 C385 1.495 . S
C389 H395 0.959 . S
C389 H396 0.961 . S
C389 H397 0.960 . S
C390 C388 1.381 . S
C390 C391 1.394 . S
C390 H398 0.930 . S
C391 C390 1.394 . S
C391 C392 1.383 . S
C391 H399 0.929 . S
C392 C391 1.383 . S
C392 C393 1.377 . S
C393 H377 0.930 . S
C393 C392 1.377 . S
C393 C394 1.379 . S
C394 H378 0.931 . S
C394 C388 1.383 . S
C394 C393 1.379 . S
H395 C389 0.959 . S
H396 C389 0.961 . S
H397 C389 0.960 . S
H398 C390 0.930 . S
H399 C391 0.929 . S
H400 C408 0.929 . S
H401 C410 0.930 . S
H402 C412 0.930 1_545 S
H403 C415 0.929 . S
H404 C418 0.930 . S
H405 C420 0.960 . S
H406 C420 0.960 . S
H407 C420 0.960 . S
C408 H400 0.929 . S
C408 C409 1.377 . S
C408 C410 1.384 . S
C409 C408 1.377 . S
C409 C415 1.390 . S
C410 H401 0.930 . S
C410 C408 1.384 . S
C410 C411 1.372 . S
C411 C410 1.372 . S
C411 C412 1.400 . S
C411 C416 1.490 . S
C412 H402 0.930 1_565 S
C412 C411 1.400 . S
C412 C415 1.386 . S
H413 C429 0.930 . S
H414 C430 0.931 . S
C415 H403 0.929 . S
C415 C409 1.390 . S
C415 C412 1.386 . S
C416 C411 1.490 . S
C416 C418 1.395 . S
C416 C419 1.403 1_565 S
H417 C423 0.930 . S
C418 H404 0.930 . S
C418 C416 1.395 . S
C418 C421 1.403 . S
C419 C416 1.403 1_545 S
C419 C420 1.524 . S
C419 C423 1.400 . S
C420 H405 0.960 . S
C420 H406 0.960 . S
C420 H407 0.960 . S
C420 C419 1.524 . S
C421 C418 1.403 . S
C421 C422 1.392 1_565 S
C421 C425 1.495 . S
C422 C421 1.392 1_545 S
C422 C423 1.385 . S
C422 C424 1.478 . S
C423 H417 0.930 . S
C423 C419 1.400 . S
C423 C422 1.385 . S
C424 C422 1.478 . S
C424 C426 1.381 . S
C424 C430 1.383 . S
C425 C421 1.495 . S
C425 H431 0.959 . S
C425 H432 0.961 . S
C425 H433 0.960 . S
C426 C424 1.381 . S
C426 C427 1.394 . S
C426 H434 0.930 1_545 S
C427 C426 1.394 . S
C427 C428 1.383 . S
C427 H435 0.929 . S
C428 C427 1.383 . S
C428 C429 1.377 . S
C429 H413 0.930 . S
C429 C428 1.377 . S
C429 C430 1.379 . S
C430 H414 0.931 . S
C430 C424 1.383 . S
C430 C429 1.379 . S
H431 C425 0.959 . S
H432 C425 0.961 . S
H433 C425 0.960 . S
H434 C426 0.930 1_565 S
H435 C427 0.929 . S
H436 C444 0.929 . S
H437 C446 0.930 1_545 S
H438 C448 0.930 . S
H439 C451 0.929 . S
H440 C454 0.930 . S
H441 C456 0.960 . S
H442 C456 0.960 . S
H443 C456 0.960 . S
C444 H436 0.929 . S
C444 C445 1.377 . S
C444 C446 1.384 . S
C445 C444 1.377 . S
C445 C451 1.390 . S
C446 H437 0.930 1_565 S
C446 C444 1.384 . S
C446 C447 1.372 . S
C447 C446 1.372 . S
C447 C448 1.400 . S
C447 C452 1.490 . S
C448 H438 0.930 . S
C448 C447 1.400 . S
C448 C451 1.386 . S
H449 C465 0.930 . S
H450 C466 0.931 . S
C451 H439 0.929 . S
C451 C445 1.390 . S
C451 C448 1.386 . S
C452 C447 1.490 . S
C452 C454 1.395 1_565 S
C452 C455 1.403 . S
H453 C459 0.930 . S
C454 H440 0.930 . S
C454 C452 1.395 1_545 S
C454 C457 1.403 . S
C455 C452 1.403 . S
C455 C456 1.524 . S
C455 C459 1.400 . S
C456 H441 0.960 . S
C456 H442 0.960 . S
C456 H443 0.960 . S
C456 C455 1.524 . S
C457 C454 1.403 . S
C457 C458 1.392 . S
C457 C461 1.495 . S
C458 C457 1.392 . S
C458 C459 1.385 1_545 S
C458 C460 1.478 . S
C459 H453 0.930 . S
C459 C455 1.400 . S
C459 C458 1.385 1_565 S
C460 C458 1.478 . S
C460 C462 1.381 . S
C460 C466 1.383 . S
C461 C457 1.495 . S
C461 H467 0.959 . S
C461 H468 0.961 . S
C461 H469 0.960 . S
C462 C460 1.381 . S
C462 C463 1.394 . S
C462 H470 0.930 . S
C463 C462 1.394 . S
C463 C464 1.383 . S
C463 H471 0.929 . S
C464 C463 1.383 . S
C464 C465 1.377 . S
C465 H449 0.930 . S
C465 C464 1.377 . S
C465 C466 1.379 . S
C466 H450 0.931 . S
C466 C460 1.383 . S
C466 C465 1.379 . S
H467 C461 0.959 . S
H468 C461 0.961 . S
H469 C461 0.960 . S
H470 C462 0.930 . S
H471 C463 0.929 . S
H472 C480 0.929 . S
H473 C482 0.930 . S
H474 C484 0.930 1_545 S
H475 C487 0.929 . S
H476 C490 0.930 . S
H477 C492 0.960 . S
H478 C492 0.960 1_565 S
H479 C492 0.960 . S
C480 H472 0.929 . S
C480 C481 1.377 . S
C480 C482 1.384 . S
C481 C480 1.377 . S
C481 C487 1.390 . S
C482 H473 0.930 . S
C482 C480 1.384 . S
C482 C483 1.372 . S
C483 C482 1.372 . S
C483 C484 1.400 . S
C483 C488 1.490 . S
C484 H474 0.930 1_565 S
C484 C483 1.400 . S
C484 C487 1.386 . S
H485 C501 0.930 . S
H486 C502 0.931 . S
C487 H475 0.929 . S
C487 C481 1.390 . S
C487 C484 1.386 . S
C488 C483 1.490 . S
C488 C490 1.395 . S
C488 C491 1.403 . S
H489 C495 0.930 . S
C490 H476 0.930 . S
C490 C488 1.395 . S
C490 C493 1.403 . S
C491 C488 1.403 . S
C491 C492 1.524 1_565 S
C491 C495 1.400 1_565 S
C492 H477 0.960 . S
C492 H478 0.960 1_545 S
C492 H479 0.960 . S
C492 C491 1.524 1_545 S
C493 C490 1.403 . S
C493 C494 1.392 1_565 S
C493 C497 1.495 . S
C494 C493 1.392 1_545 S
C494 C495 1.385 . S
C494 C496 1.478 . S
C495 H489 0.930 . S
C495 C491 1.400 1_545 S
C495 C494 1.385 . S
C496 C494 1.478 . S
C496 C498 1.381 . S
C496 C502 1.383 . S
C497 C493 1.495 . S
C497 H503 0.959 . S
C497 H504 0.961 1_565 S
C497 H505 0.960 . S
C498 C496 1.381 . S
C498 C499 1.394 . S
C498 H506 0.930 1_545 S
C499 C498 1.394 . S
C499 C500 1.383 . S
C499 H507 0.929 . S
C500 C499 1.383 . S
C500 C501 1.377 . S
C501 H485 0.930 . S
C501 C500 1.377 . S
C501 C502 1.379 . S
C502 H486 0.931 . S
C502 C496 1.383 . S
C502 C501 1.379 . S
H503 C497 0.959 . S
H504 C497 0.961 1_545 S
H505 C497 0.960 . S
H506 C498 0.930 1_565 S
H507 C499 0.929 . S
H508 C516 0.929 . S
H509 C518 0.930 . S
H510 C520 0.930 . S
H511 C523 0.929 . S
H512 C526 0.930 . S
H513 C528 0.960 . S
H514 C528 0.960 . S
H515 C528 0.960 . S
C516 H508 0.929 . S
C516 C517 1.377 . S
C516 C518 1.384 . S
C517 C516 1.377 . S
C517 C523 1.390 . S
C518 H509 0.930 . S
C518 C516 1.384 . S
C518 C519 1.372 . S
C519 C518 1.372 . S
C519 C520 1.400 . S
C519 C524 1.490 . S
C520 H510 0.930 . S
C520 C519 1.400 . S
C520 C523 1.386 . S
H521 C537 0.930 . S
H522 C538 0.931 . S
C523 H511 0.929 . S
C523 C517 1.390 . S
C523 C520 1.386 . S
C524 C519 1.490 . S
C524 C526 1.395 1_565 S
C524 C527 1.403 . S
H525 C531 0.930 . S
C526 H512 0.930 . S
C526 C524 1.395 1_545 S
C526 C529 1.403 . S
C527 C524 1.403 . S
C527 C528 1.524 . S
C527 C531 1.400 . S
C528 H513 0.960 . S
C528 H514 0.960 . S
C528 H515 0.960 . S
C528 C527 1.524 . S
C529 C526 1.403 . S
C529 C530 1.392 . S
C529 C533 1.495 . S
C530 C529 1.392 . S
C530 C531 1.385 1_545 S
C530 C532 1.478 . S
C531 H525 0.930 . S
C531 C527 1.400 . S
C531 C530 1.385 1_565 S
C532 C530 1.478 . S
C532 C534 1.381 . S
C532 C538 1.383 . S
C533 C529 1.495 . S
C533 H539 0.959 . S
C533 H540 0.961 . S
C533 H541 0.960 . S
C534 C532 1.381 . S
C534 C535 1.394 . S
C534 H542 0.930 . S
C535 C534 1.394 . S
C535 C536 1.383 . S
C535 H543 0.929 . S
C536 C535 1.383 . S
C536 C537 1.377 . S
C537 H521 0.930 . S
C537 C536 1.377 . S
C537 C538 1.379 . S
C538 H522 0.931 . S
C538 C532 1.383 . S
C538 C537 1.379 . S
H539 C533 0.959 . S
H540 C533 0.961 . S
H541 C533 0.960 . S
H542 C534 0.930 . S
H543 C535 0.929 . S
H544 C552 0.929 . S
H545 C554 0.930 . S
H546 C556 0.930 . S
H547 C559 0.929 . S
H548 C562 0.930 1_556 S
H549 C564 0.960 . S
H550 C564 0.960 . S
H551 C564 0.960 . S
C552 H544 0.929 . S
C552 C553 1.377 1_556 S
C552 C554 1.384 . S
C553 C552 1.377 1_554 S
C553 C559 1.390 . S
C554 H545 0.930 . S
C554 C552 1.384 . S
C554 C555 1.372 1_556 S
C555 C554 1.372 1_554 S
C555 C556 1.400 . S
C555 C560 1.490 . S
C556 H546 0.930 . S
C556 C555 1.400 . S
C556 C559 1.386 . S
H557 C573 0.930 . S
H558 C574 0.931 . S
C559 H547 0.929 . S
C559 C553 1.390 . S
C559 C556 1.386 . S
C560 C555 1.490 . S
C560 C562 1.395 1_565 S
C560 C563 1.403 . S
H561 C567 0.930 . S
C562 H548 0.930 1_554 S
C562 C560 1.395 1_545 S
C562 C565 1.403 . S
C563 C560 1.403 . S
C563 C564 1.524 . S
C563 C567 1.400 . S
C564 H549 0.960 . S
C564 H550 0.960 . S
C564 H551 0.960 . S
C564 C563 1.524 . S
C565 C562 1.403 . S
C565 C566 1.392 . S
C565 C569 1.495 1_554 S
C566 C565 1.392 . S
C566 C567 1.385 1_545 S
C566 C568 1.478 . S
C567 H561 0.930 . S
C567 C563 1.400 . S
C567 C566 1.385 1_565 S
C568 C566 1.478 . S
C568 C570 1.381 1_554 S
C568 C574 1.383 . S
C569 C565 1.495 1_556 S
C569 H575 0.959 . S
C569 H576 0.961 1_556 S
C569 H577 0.960 . S
C570 C568 1.381 1_556 S
C570 C571 1.394 . S
C570 H578 0.930 . S
C571 C570 1.394 . S
C571 C572 1.383 1_556 S
C571 H579 0.929 . S
C572 C571 1.383 1_554 S
C572 C573 1.377 . S
C573 H557 0.930 . S
C573 C572 1.377 . S
C573 C574 1.379 . S
C574 H558 0.931 . S
C574 C568 1.383 . S
C574 C573 1.379 . S
H575 C569 0.959 . S
H576 C569 0.961 1_554 S
H577 C569 0.960 . S
H578 C570 0.930 . S
H579 C571 0.929 . S
H580 C588 0.929 . S
H581 C590 0.930 . S
H582 C592 0.930 . S
H583 C595 0.929 . S
H584 C598 0.930 . S
H585 C600 0.960 . S
H586 C600 0.960 . S
H587 C600 0.960 . S
C588 H580 0.929 . S
C588 C589 1.377 . S
C588 C590 1.384 . S
C589 C588 1.377 . S
C589 C595 1.390 . S
C590 H581 0.930 . S
C590 C588 1.384 . S
C590 C591 1.372 . S
C591 C590 1.372 . S
C591 C592 1.400 . S
C591 C596 1.490 . S
C592 H582 0.930 . S
C592 C591 1.400 . S
C592 C595 1.386 . S
H593 C609 0.930 . S
H594 C610 0.931 . S
C595 H583 0.929 . S
C595 C589 1.390 . S
C595 C592 1.386 . S
C596 C591 1.490 . S
C596 C598 1.395 1_565 S
C596 C599 1.403 . S
H597 C603 0.930 . S
C598 H584 0.930 . S
C598 C596 1.395 1_545 S
C598 C601 1.403 . S
C599 C596 1.403 . S
C599 C600 1.524 . S
C599 C603 1.400 . S
C600 H585 0.960 . S
C600 H586 0.960 . S
C600 H587 0.960 . S
C600 C599 1.524 . S
C601 C598 1.403 . S
C601 C602 1.392 . S
C601 C605 1.495 . S
C602 C601 1.392 . S
C602 C603 1.385 1_545 S
C602 C604 1.478 . S
C603 H597 0.930 . S
C603 C599 1.400 . S
C603 C602 1.385 1_565 S
C604 C602 1.478 . S
C604 C606 1.381 . S
C604 C610 1.383 . S
C605 C601 1.495 . S
C605 H611 0.959 . S
C605 H612 0.961 . S
C605 H613 0.960 . S
C606 C604 1.381 . S
C606 C607 1.394 . S
C606 H614 0.930 . S
C607 C606 1.394 . S
C607 C608 1.383 . S
C607 H615 0.929 . S
C608 C607 1.383 . S
C608 C609 1.377 . S
C609 H593 0.930 . S
C609 C608 1.377 . S
C609 C610 1.379 . S
C610 H594 0.931 . S
C610 C604 1.383 . S
C610 C609 1.379 . S
H611 C605 0.959 . S
H612 C605 0.961 . S
H613 C605 0.960 . S
H614 C606 0.930 . S
H615 C607 0.929 . S
H616 C624 0.929 . S
H617 C626 0.930 . S
H618 C628 0.912 1_556 S
H619 C631 0.934 . S
H620 C634 0.930 . S
H621 C636 0.960 . S
H622 C636 0.960 . S
H623 C636 0.960 1_556 S
C624 H616 0.929 . S
C624 C625 1.377 . S
C624 C626 1.384 . S
C625 C624 1.377 . S
C625 C631 1.386 1_554 S
C626 H617 0.930 . S
C626 C624 1.384 . S
C626 C627 1.372 . S
C627 C626 1.372 . S
C627 C628 1.418 . S
C627 C632 1.490 . S
C628 H618 0.912 1_554 S
C628 C627 1.418 . S
C628 C631 1.385 1_554 S
H629 C645 0.931 . S
H630 C646 0.913 1_556 S
C631 H619 0.934 . S
C631 C625 1.386 1_556 S
C631 C628 1.385 1_556 S
C632 C627 1.490 . S
C632 C634 1.395 1_455 S
C632 C635 1.403 . S
H633 C639 0.930 . S
C634 H620 0.930 . S
C634 C632 1.395 1_655 S
C634 C637 1.403 . S
C635 C632 1.403 . S
C635 C636 1.524 . S
C635 C639 1.400 1_455 S
C636 H621 0.960 . S
C636 H622 0.960 . S
C636 H623 0.960 1_554 S
C636 C635 1.524 . S
C637 C634 1.403 . S
C637 C638 1.392 . S
C637 C641 1.495 . S
C638 C637 1.392 . S
C638 C639 1.385 . S
C638 C640 1.478 . S
C639 H633 0.930 . S
C639 C635 1.400 1_655 S
C639 C638 1.385 . S
C640 C638 1.478 . S
C640 C642 1.381 . S
C640 C646 1.401 . S
C641 C637 1.495 . S
C641 H647 0.959 . S
C641 H648 0.961 . S
C641 H649 0.960 . S
C642 C640 1.381 . S
C642 C643 1.394 . S
C642 H650 0.930 . S
C643 C642 1.394 . S
C643 C644 1.383 . S
C643 H651 0.929 . S
C644 C643 1.383 . S
C644 C645 1.376 1_554 S
C645 H629 0.931 . S
C645 C644 1.376 1_556 S
C645 C646 1.379 1_556 S
C646 H630 0.913 1_554 S
C646 C640 1.401 . S
C646 C645 1.379 1_554 S
H647 C641 0.959 . S
H648 C641 0.961 . S
H649 C641 0.960 . S
H650 C642 0.930 . S
H651 C643 0.929 . S
H652 C660 0.929 . S
H653 C662 0.930 . S
H654 C664 0.930 . S
H655 C667 0.929 . S
H656 C670 0.930 . S
H657 C672 0.960 . S
H658 C672 0.939 1_455 S
H659 C672 0.960 . S
C660 H652 0.929 . S
C660 C661 1.377 . S
C660 C662 1.384 . S
C661 C660 1.377 . S
C661 C667 1.390 . S
C662 H653 0.930 . S
C662 C660 1.384 . S
C662 C663 1.372 . S
C663 C662 1.372 . S
C663 C664 1.400 . S
C663 C668 1.490 . S
C664 H654 0.930 . S
C664 C663 1.400 . S
C664 C667 1.386 . S
H665 C681 0.930 . S
H666 C682 0.931 . S
C667 H655 0.929 . S
C667 C661 1.390 . S
C667 C664 1.386 . S
C668 C663 1.490 . S
C668 C670 1.395 . S
C668 C671 1.403 1_455 S
H669 C675 0.930 . S
C670 H656 0.930 . S
C670 C668 1.395 . S
C670 C673 1.403 . S
C671 C668 1.403 1_655 S
C671 C672 1.524 . S
C671 C675 1.400 . S
C672 H657 0.960 . S
C672 H658 0.939 1_655 S
C672 H659 0.960 . S
C672 C671 1.524 . S
C673 C670 1.403 . S
C673 C674 1.392 1_455 S
C673 C677 1.495 . S
C674 C673 1.392 1_655 S
C674 C675 1.385 . S
C674 C676 1.478 . S
C675 H669 0.930 . S
C675 C671 1.400 . S
C675 C674 1.385 . S
C676 C674 1.478 . S
C676 C678 1.381 . S
C676 C682 1.383 . S
C677 C673 1.495 . S
C677 H683 0.959 . S
C677 H684 0.961 . S
C677 H685 0.960 . S
C678 C676 1.381 . S
C678 C679 1.394 . S
C678 H686 0.930 . S
C679 C678 1.394 . S
C679 C680 1.383 . S
C679 H687 0.929 . S
C680 C679 1.383 . S
C680 C681 1.377 . S
C681 H665 0.930 . S
C681 C680 1.377 . S
C681 C682 1.379 . S
C682 H666 0.931 . S
C682 C676 1.383 . S
C682 C681 1.379 . S
H683 C677 0.959 . S
H684 C677 0.961 . S
H685 C677 0.960 . S
H686 C678 0.930 . S
H687 C679 0.929 . S
C121 C79 1.488 . S
C140 C9 1.490 . S
C157 C65 1.481 . S
C176 C23 1.463 . S
C193 C107 1.483 . S
C212 C37 1.474 . S
C229 C93 1.487 . S
C248 C51 1.488 . S
C265 C7 1.517 . S
C284 C35 1.510 . S
C301 C21 1.520 . S
C320 C49 1.531 . S
C337 C22 1.536 . S
C356 C50 1.524 . S
C373 C8 1.538 . S
C392 C36 1.524 . S
C409 C63 1.520 . S
C428 C91 1.501 . S
C445 C105 1.519 . S
C464 C77 1.532 . S
C481 C106 1.538 . S
C500 C78 1.536 . S
C517 C64 1.537 . S
C536 C92 1.523 . S
C553 C20 1.516 . S
C572 C6 1.522 . S
C589 C34 1.516 . S
C608 C48 1.523 . S
C625 C62 1.512 . S
C644 C76 1.496 . S
C661 C90 1.514 . S
C680 C104 1.527 . S
