# Generated by pormake.
# Topology ukn, (4)-cn, num edge types: 1
# Building blocks:
#     Node 0, Type 0, BuildingBlock: NAHDIM_clean_sbu_0, # of connection points: 4
#     Node 1, Type 0, BuildingBlock: NAHDIM_clean_sbu_0, # of connection points: 4
#     Node 2, Type 0, BuildingBlock: NAHDIM_clean_sbu_0, # of connection points: 4
#     Node 3, Type 0, BuildingBlock: NAHDIM_clean_sbu_0, # of connection points: 4
#     Node 4, Type 0, BuildingBlock: NAHDIM_clean_sbu_0, # of connection points: 4
#     Node 5, Type 0, BuildingBlock: NAHDIM_clean_sbu_0, # of connection points: 4
#     Node 6, Type 0, BuildingBlock: NAHDIM_clean_sbu_0, # of connection points: 4
#     Node 7, Type 0, BuildingBlock: NAHDIM_clean_sbu_0, # of connection points: 4
#     Node 8, Type 0, BuildingBlock: NAHDIM_clean_sbu_0, # of connection points: 4
#     Node 9, Type 0, BuildingBlock: NAHDIM_clean_sbu_0, # of connection points: 4
#     Node 10, Type 0, BuildingBlock: NAHDIM_clean_sbu_0, # of connection points: 4
#     Node 11, Type 0, BuildingBlock: NAHDIM_clean_sbu_0, # of connection points: 4
#     Node 12, Type 0, BuildingBlock: NAHDIM_clean_sbu_0, # of connection points: 4
#     Node 13, Type 0, BuildingBlock: NAHDIM_clean_sbu_0, # of connection points: 4
#     Node 14, Type 0, BuildingBlock: NAHDIM_clean_sbu_0, # of connection points: 4
#     Node 15, Type 0, BuildingBlock: NAHDIM_clean_sbu_0, # of connection points: 4
#     Node 16, Type 0, BuildingBlock: NAHDIM_clean_sbu_0, # of connection points: 4
#     Node 17, Type 0, BuildingBlock: NAHDIM_clean_sbu_0, # of connection points: 4
#     Node 18, Type 0, BuildingBlock: NAHDIM_clean_sbu_0, # of connection points: 4
#     Node 19, Type 0, BuildingBlock: NAHDIM_clean_sbu_0, # of connection points: 4
#     Node 20, Type 0, BuildingBlock: NAHDIM_clean_sbu_0, # of connection points: 4
#     Node 21, Type 0, BuildingBlock: NAHDIM_clean_sbu_0, # of connection points: 4
#     Node 22, Type 0, BuildingBlock: NAHDIM_clean_sbu_0, # of connection points: 4
#     Node 23, Type 0, BuildingBlock: NAHDIM_clean_sbu_0, # of connection points: 4
#     Node 24, Type 0, BuildingBlock: NAHDIM_clean_sbu_0, # of connection points: 4
#     Node 25, Type 0, BuildingBlock: NAHDIM_clean_sbu_0, # of connection points: 4
#     Node 26, Type 0, BuildingBlock: NAHDIM_clean_sbu_0, # of connection points: 4
#     Node 27, Type 0, BuildingBlock: NAHDIM_clean_sbu_0, # of connection points: 4
#     Node 28, Type 0, BuildingBlock: NAHDIM_clean_sbu_0, # of connection points: 4
#     Node 29, Type 0, BuildingBlock: NAHDIM_clean_sbu_0, # of connection points: 4
#     Node 30, Type 0, BuildingBlock: NAHDIM_clean_sbu_0, # of connection points: 4
#     Node 31, Type 0, BuildingBlock: NAHDIM_clean_sbu_0, # of connection points: 4
#     Node 32, Type 0, BuildingBlock: NAHDIM_clean_sbu_0, # of connection points: 4
#     Node 33, Type 0, BuildingBlock: NAHDIM_clean_sbu_0, # of connection points: 4
#     Node 34, Type 0, BuildingBlock: NAHDIM_clean_sbu_0, # of connection points: 4
#     Node 35, Type 0, BuildingBlock: NAHDIM_clean_sbu_0, # of connection points: 4
#     Edge 36, Type (0, 0), BuildingBlock: EZIPEK_clean_linker_0, # of connection points: 2
#     Edge 37, Type (0, 0), BuildingBlock: EZIPEK_clean_linker_0, # of connection points: 2
#     Edge 38, Type (0, 0), BuildingBlock: EZIPEK_clean_linker_0, # of connection points: 2
#     Edge 39, Type (0, 0), BuildingBlock: EZIPEK_clean_linker_0, # of connection points: 2
#     Edge 40, Type (0, 0), BuildingBlock: EZIPEK_clean_linker_0, # of connection points: 2
#     Edge 41, Type (0, 0), BuildingBlock: EZIPEK_clean_linker_0, # of connection points: 2
#     Edge 42, Type (0, 0), BuildingBlock: EZIPEK_clean_linker_0, # of connection points: 2
#     Edge 43, Type (0, 0), BuildingBlock: EZIPEK_clean_linker_0, # of connection points: 2
#     Edge 44, Type (0, 0), BuildingBlock: EZIPEK_clean_linker_0, # of connection points: 2
#     Edge 45, Type (0, 0), BuildingBlock: EZIPEK_clean_linker_0, # of connection points: 2
#     Edge 46, Type (0, 0), BuildingBlock: EZIPEK_clean_linker_0, # of connection points: 2
#     Edge 47, Type (0, 0), BuildingBlock: EZIPEK_clean_linker_0, # of connection points: 2
#     Edge 48, Type (0, 0), BuildingBlock: EZIPEK_clean_linker_0, # of connection points: 2
#     Edge 49, Type (0, 0), BuildingBlock: EZIPEK_clean_linker_0, # of connection points: 2
#     Edge 50, Type (0, 0), BuildingBlock: EZIPEK_clean_linker_0, # of connection points: 2
#     Edge 51, Type (0, 0), BuildingBlock: EZIPEK_clean_linker_0, # of connection points: 2
#     Edge 52, Type (0, 0), BuildingBlock: EZIPEK_clean_linker_0, # of connection points: 2
#     Edge 53, Type (0, 0), BuildingBlock: EZIPEK_clean_linker_0, # of connection points: 2
#     Edge 54, Type (0, 0), BuildingBlock: EZIPEK_clean_linker_0, # of connection points: 2
#     Edge 55, Type (0, 0), BuildingBlock: EZIPEK_clean_linker_0, # of connection points: 2
#     Edge 56, Type (0, 0), BuildingBlock: EZIPEK_clean_linker_0, # of connection points: 2
#     Edge 57, Type (0, 0), BuildingBlock: EZIPEK_clean_linker_0, # of connection points: 2
#     Edge 58, Type (0, 0), BuildingBlock: EZIPEK_clean_linker_0, # of connection points: 2
#     Edge 59, Type (0, 0), BuildingBlock: EZIPEK_clean_linker_0, # of connection points: 2
#     Edge 60, Type (0, 0), BuildingBlock: EZIPEK_clean_linker_0, # of connection points: 2
#     Edge 61, Type (0, 0), BuildingBlock: EZIPEK_clean_linker_0, # of connection points: 2
#     Edge 62, Type (0, 0), BuildingBlock: EZIPEK_clean_linker_0, # of connection points: 2
#     Edge 63, Type (0, 0), BuildingBlock: EZIPEK_clean_linker_0, # of connection points: 2
#     Edge 64, Type (0, 0), BuildingBlock: EZIPEK_clean_linker_0, # of connection points: 2
#     Edge 65, Type (0, 0), BuildingBlock: EZIPEK_clean_linker_0, # of connection points: 2
#     Edge 66, Type (0, 0), BuildingBlock: EZIPEK_clean_linker_0, # of connection points: 2
#     Edge 67, Type (0, 0), BuildingBlock: EZIPEK_clean_linker_0, # of connection points: 2
#     Edge 68, Type (0, 0), BuildingBlock: EZIPEK_clean_linker_0, # of connection points: 2
#     Edge 69, Type (0, 0), BuildingBlock: EZIPEK_clean_linker_0, # of connection points: 2
#     Edge 70, Type (0, 0), BuildingBlock: EZIPEK_clean_linker_0, # of connection points: 2
#     Edge 71, Type (0, 0), BuildingBlock: EZIPEK_clean_linker_0, # of connection points: 2
#     Edge 72, Type (0, 0), BuildingBlock: EZIPEK_clean_linker_0, # of connection points: 2
#     Edge 73, Type (0, 0), BuildingBlock: EZIPEK_clean_linker_0, # of connection points: 2
#     Edge 74, Type (0, 0), BuildingBlock: EZIPEK_clean_linker_0, # of connection points: 2
#     Edge 75, Type (0, 0), BuildingBlock: EZIPEK_clean_linker_0, # of connection points: 2
#     Edge 76, Type (0, 0), BuildingBlock: EZIPEK_clean_linker_0, # of connection points: 2
#     Edge 77, Type (0, 0), BuildingBlock: EZIPEK_clean_linker_0, # of connection points: 2
#     Edge 78, Type (0, 0), BuildingBlock: EZIPEK_clean_linker_0, # of connection points: 2
#     Edge 79, Type (0, 0), BuildingBlock: EZIPEK_clean_linker_0, # of connection points: 2
#     Edge 80, Type (0, 0), BuildingBlock: EZIPEK_clean_linker_0, # of connection points: 2
#     Edge 81, Type (0, 0), BuildingBlock: EZIPEK_clean_linker_0, # of connection points: 2
#     Edge 82, Type (0, 0), BuildingBlock: EZIPEK_clean_linker_0, # of connection points: 2
#     Edge 83, Type (0, 0), BuildingBlock: EZIPEK_clean_linker_0, # of connection points: 2
#     Edge 84, Type (0, 0), BuildingBlock: EZIPEK_clean_linker_0, # of connection points: 2
#     Edge 85, Type (0, 0), BuildingBlock: EZIPEK_clean_linker_0, # of connection points: 2
#     Edge 86, Type (0, 0), BuildingBlock: EZIPEK_clean_linker_0, # of connection points: 2
#     Edge 87, Type (0, 0), BuildingBlock: EZIPEK_clean_linker_0, # of connection points: 2
#     Edge 88, Type (0, 0), BuildingBlock: EZIPEK_clean_linker_0, # of connection points: 2
#     Edge 89, Type (0, 0), BuildingBlock: EZIPEK_clean_linker_0, # of connection points: 2
#     Edge 90, Type (0, 0), BuildingBlock: EZIPEK_clean_linker_0, # of connection points: 2
#     Edge 91, Type (0, 0), BuildingBlock: EZIPEK_clean_linker_0, # of connection points: 2
#     Edge 92, Type (0, 0), BuildingBlock: EZIPEK_clean_linker_0, # of connection points: 2
#     Edge 93, Type (0, 0), BuildingBlock: EZIPEK_clean_linker_0, # of connection points: 2
#     Edge 94, Type (0, 0), BuildingBlock: EZIPEK_clean_linker_0, # of connection points: 2
#     Edge 95, Type (0, 0), BuildingBlock: EZIPEK_clean_linker_0, # of connection points: 2
#     Edge 96, Type (0, 0), BuildingBlock: EZIPEK_clean_linker_0, # of connection points: 2
#     Edge 97, Type (0, 0), BuildingBlock: EZIPEK_clean_linker_0, # of connection points: 2
#     Edge 98, Type (0, 0), BuildingBlock: EZIPEK_clean_linker_0, # of connection points: 2
#     Edge 99, Type (0, 0), BuildingBlock: EZIPEK_clean_linker_0, # of connection points: 2
#     Edge 100, Type (0, 0), BuildingBlock: EZIPEK_clean_linker_0, # of connection points: 2
#     Edge 101, Type (0, 0), BuildingBlock: EZIPEK_clean_linker_0, # of connection points: 2
#     Edge 102, Type (0, 0), BuildingBlock: EZIPEK_clean_linker_0, # of connection points: 2
#     Edge 103, Type (0, 0), BuildingBlock: EZIPEK_clean_linker_0, # of connection points: 2
#     Edge 104, Type (0, 0), BuildingBlock: EZIPEK_clean_linker_0, # of connection points: 2
#     Edge 105, Type (0, 0), BuildingBlock: EZIPEK_clean_linker_0, # of connection points: 2
#     Edge 106, Type (0, 0), BuildingBlock: EZIPEK_clean_linker_0, # of connection points: 2
#     Edge 107, Type (0, 0), BuildingBlock: EZIPEK_clean_linker_0, # of connection points: 2
# Relax obj value: 0.143
# Max RMSD: 0.135
# Mean RMSD: 0.135
data_MOF--net-ukn--node1-NAHDIM_clean_sbu_0--edge1-EZIPEK_clean_linker_0
_symmetry_space_group_name_H-M    P1
_symmetry_Int_Tables_number       1
_symmetry_cell_setting            triclinic
loop_
_symmetry_equiv_pos_as_xyz
'x, y, z'
_cell_length_a     81.022386
_cell_length_b     80.988658
_cell_length_c     17.514354
_cell_angle_alpha  90.004188
_cell_angle_beta   89.984203
_cell_angle_gamma 120.03154
loop_
_atom_site_label
_atom_site_type_symbol
_atom_site_fract_x
_atom_site_fract_y
_atom_site_fract_z
_atom_type_partial_charge
C0 C 0.03346 0.25567 0.05783 0.0
O1 O 0.03688 0.26053 0.13005 0.0
O2 O 0.07731 0.28982 0.14098 0.0
Zn3 Zn 0.07436 0.27501 0.04469 0.0
O4 O 0.0883 0.2934 0.96011 0.0
C5 C 0.10284 0.26798 0.08861 0.0
O6 O 0.10989 0.28604 0.10617 0.0
O7 O 0.04715 0.25976 0.01236 0.0
C8 C 0.08822 0.28701 0.89387 0.0
O9 O 0.07968 0.26851 0.8825 0.0
C10 C 0.08013 0.30672 0.13939 0.0
O11 O 0.07991 0.31452 0.07396 0.0
O12 O 0.08619 0.25871 0.0607 0.0
C13 C 0.71916 0.75743 0.04373 0.0
O14 O 0.70098 0.74916 0.02683 0.0
O15 O 0.69654 0.78095 0.17571 0.0
Zn16 Zn 0.71374 0.78866 0.08308 0.0
O17 O 0.69902 0.78623 0.98705 0.0
C18 C 0.72373 0.82565 0.10852 0.0
O19 O 0.70502 0.81651 0.11037 0.0
O20 O 0.72769 0.77421 0.07085 0.0
C21 C 0.68162 0.77368 0.97839 0.0
O22 O 0.67249 0.76118 0.03244 0.0
C23 C 0.68672 0.76464 0.20619 0.0
O24 O 0.687 0.7498 0.17762 0.0
O25 O 0.73234 0.81644 0.09652 0.0
C26 C 0.2261 0.95611 0.06545 0.0
O27 O 0.23521 0.94812 0.03511 0.0
O28 O 0.21237 0.91388 0.221 0.0
Zn29 Zn 0.20196 0.91839 0.12353 0.0
O30 O 0.20876 0.90689 0.03539 0.0
C31 C 0.16573 0.88727 0.15114 0.0
O32 O 0.17647 0.88006 0.17083 0.0
O33 O 0.2115 0.94626 0.10657 0.0
C34 C 0.20308 0.90707 0.96796 0.0
O35 O 0.193 0.91535 0.95421 0.0
C36 C 0.22587 0.91016 0.22031 0.0
O37 O 0.23418 0.91044 0.15555 0.0
O38 O 0.1735 0.90453 0.12999 0.0
C39 C 0.26033 0.0357 0.99525 0.0
O40 O 0.27883 0.04433 0.00602 0.0
O41 O 0.28501 0.07316 0.843 0.0
Zn42 Zn 0.27091 0.07215 0.93808 0.0
O43 O 0.29154 0.08464 0.01805 0.0
C44 C 0.26202 0.10222 0.95371 0.0
O45 O 0.27378 0.10669 0.01135 0.0
O46 O 0.2529 0.0448 0.96598 0.0
C47 C 0.28813 0.08426 0.08889 0.0
O48 O 0.27039 0.07535 0.11296 0.0
C49 C 0.29692 0.08985 0.82009 0.0
O50 O 0.29877 0.10465 0.85826 0.0
O51 O 0.25714 0.08691 0.91733 0.0
C52 C 0.95853 0.22706 0.92972 0.0
O53 O 0.95517 0.22427 0.85613 0.0
O54 O 0.91807 0.2249 0.83655 0.0
Zn55 Zn 0.91838 0.21425 0.9412 0.0
O56 O 0.90633 0.2232 0.01962 0.0
C57 C 0.89049 0.17606 0.8983 0.0
O58 O 0.88499 0.18506 0.85183 0.0
O59 O 0.94512 0.22383 0.97545 0.0
C60 C 0.88867 0.21455 0.03601 0.0
O61 O 0.87684 0.19879 -7e-05 0.0
C62 C 0.90408 0.22689 0.81664 0.0
O63 O 0.89001 0.2224 0.86447 0.0
O64 O 0.90499 0.18554 0.9403 0.0
C65 C 0.76037 0.71958 0.95566 0.0
O66 O 0.75091 0.70125 0.94033 0.0
O67 O 0.78006 0.69709 0.8382 0.0
Zn68 Zn 0.79076 0.71295 0.93307 0.0
O69 O 0.78575 0.69583 0.02272 0.0
C70 C 0.82606 0.7179 0.90662 0.0
O71 O 0.81459 0.69943 0.90018 0.0
O72 O 0.77846 0.72856 0.95393 0.0
C73 C 0.79191 0.70289 0.0883 0.0
O74 O 0.80159 0.72148 0.0972 0.0
C75 C 0.76853 0.67923 0.84096 0.0
O76 O 0.76218 0.67077 0.90713 0.0
O77 O 0.81915 0.72859 0.92101 0.0
C78 C 0.95819 0.73016 0.98596 0.0
O79 O 0.94564 0.72327 0.04154 0.0
O80 O 0.92028 0.69845 0.79416 0.0
Zn81 Zn 0.92455 0.71072 0.89748 0.0
O82 O 0.91452 0.68999 0.97708 0.0
C83 C 0.8947 0.71845 0.87091 0.0
O84 O 0.8898 0.70418 0.82346 0.0
O85 O 0.95251 0.7275 0.91707 0.0
C86 C 0.8971 0.6773 0.98467 0.0
O87 O 0.88425 0.67685 0.93778 0.0
C88 C 0.92692 0.68766 0.77713 0.0
O89 O 0.93738 0.68481 0.82678 0.0
O90 O 0.91037 0.72516 0.90683 0.0
C91 C 0.27207 0.24153 0.95266 0.0
O92 O 0.29042 0.25117 0.93783 0.0
O93 O 0.28987 0.22131 0.81201 0.0
Zn94 Zn 0.27892 0.21191 0.91729 0.0
O95 O 0.30001 0.22156 0.99628 0.0
C96 C 0.26936 0.17331 0.88968 0.0
O97 O 0.28491 0.18198 0.84819 0.0
O98 O 0.26304 0.22349 0.9459 0.0
C99 C 0.30886 0.21312 0.01788 0.0
O100 O 0.30473 0.19666 0.98767 0.0
C101 C 0.30625 0.22408 0.79393 0.0
O102 O 0.3162 0.22051 0.84343 0.0
O103 O 0.26307 0.18315 0.92139 0.0
C104 C 0.76309 0.03709 0.96859 0.0
O105 O 0.75358 0.04594 0.98289 0.0
O106 O 0.78018 0.08024 0.83184 0.0
Zn107 Zn 0.79035 0.0743 0.92695 0.0
O108 O 0.78352 0.08363 0.02198 0.0
C109 C 0.82659 0.10437 0.89029 0.0
O110 O 0.81577 0.10986 0.85584 0.0
O111 O 0.77976 0.04627 0.94064 0.0
C112 C 0.78624 0.10033 0.03244 0.0
O113 O 0.79362 0.11304 0.9776 0.0
C114 C 0.7646 0.08037 0.82789 0.0
O115 O 0.75312 0.07509 0.88701 0.0
O116 O 0.81894 0.08815 0.92235 0.0
C117 C 0.72878 0.95997 0.07879 0.0
O118 O 0.71007 0.95008 0.08167 0.0
O119 O 0.70855 0.92014 0.21941 0.0
Zn120 Zn 0.72311 0.92438 0.12058 0.0
O121 O 0.7048 0.91214 0.0332 0.0
C122 C 0.7303 0.89486 0.1435 0.0
O123 O 0.71188 0.88688 0.15535 0.0
O124 O 0.73841 0.95207 0.09609 0.0
C125 C 0.70961 0.90687 0.97298 0.0
O126 O 0.72668 0.90889 0.96762 0.0
C127 C 0.69099 0.90752 0.22361 0.0
O128 O 0.68202 0.89788 0.16228 0.0
O129 O 0.73975 0.91252 0.1282 0.0
C130 C 0.0374 0.76137 0.06653 0.0
O131 O 0.04311 0.74914 0.08202 0.0
O132 O 0.07885 0.77186 0.17346 0.0
Zn133 Zn 0.07654 0.78577 0.08184 0.0
O134 O 0.08516 0.77837 0.98704 0.0
C135 C 0.09087 0.82506 0.13619 0.0
O136 O 0.07451 0.819 0.17131 0.0
O137 O 0.04951 0.77906 0.06521 0.0
C138 C 0.09982 0.77653 0.98552 0.0
O139 O 0.1097 0.77907 0.04818 0.0
C140 C 0.09423 0.77978 0.21176 0.0
O141 O 0.10794 0.79687 0.19269 0.0
O142 O 0.09369 0.81376 0.09543 0.0
C143 C 0.23584 0.28311 0.05815 0.0
O144 O 0.24628 0.30133 0.07455 0.0
O145 O 0.2159 0.30682 0.1756 0.0
Zn146 Zn 0.2066 0.29186 0.07845 0.0
O147 O 0.21327 0.30991 0.99093 0.0
C148 C 0.16749 0.26175 0.11791 0.0
O149 O 0.17466 0.25293 0.15667 0.0
O150 O 0.2178 0.27522 0.05884 0.0
C151 C 0.20558 0.30334 0.92657 0.0
O152 O 0.194 0.28493 0.91806 0.0
C153 C 0.21309 0.32084 0.18206 0.0
O154 O 0.20502 0.32496 0.12591 0.0
O155 O 0.1783 0.27706 0.0823 0.0
C156 C 0.70847 0.60559 0.39379 0.0
O157 O 0.71514 0.62303 0.41958 0.0
O158 O 0.74597 0.62542 0.53124 0.0
Zn159 Zn 0.74613 0.61589 0.42456 0.0
O160 O 0.75653 0.63766 0.34859 0.0
C161 C 0.77711 0.60947 0.45407 0.0
O162 O 0.78213 0.62417 0.49918 0.0
O163 O 0.71929 0.59846 0.39166 0.0
C164 C 0.77392 0.64795 0.32955 0.0
O165 O 0.78699 0.64516 0.36138 0.0
C166 C 0.75842 0.64219 0.55126 0.0
O167 O 0.77164 0.65341 0.50282 0.0
O168 O 0.76129 0.60233 0.41911 0.0
C169 C 0.40023 0.10912 0.47073 0.0
O170 O 0.3993 0.11357 0.54211 0.0
O171 O 0.35912 0.11135 0.5387 0.0
Zn172 Zn 0.37303 0.12169 0.43811 0.0
O173 O 0.35428 0.11113 0.35128 0.0
C174 C 0.38016 0.15949 0.46812 0.0
O175 O 0.36495 0.15001 0.51076 0.0
O176 O 0.39092 0.11199 0.41946 0.0
C177 C 0.34535 0.11897 0.32412 0.0
O178 O 0.34822 0.13521 0.35243 0.0
C179 C 0.34237 0.10867 0.54736 0.0
O180 O 0.33417 0.11244 0.49077 0.0
O181 O 0.38719 0.15055 0.43434 0.0
C182 C 0.89251 0.29448 0.41343 0.0
O183 O 0.90247 0.2871 0.44083 0.0
O184 O 0.87319 0.25175 0.52833 0.0
Zn185 Zn 0.86287 0.25624 0.43059 0.0
O186 O 0.86947 0.24473 0.34329 0.0
C187 C 0.8265 0.22485 0.4436 0.0
O188 O 0.83728 0.21723 0.45517 0.0
O189 O 0.87455 0.28412 0.40683 0.0
C190 C 0.86492 0.24686 0.27619 0.0
O191 O 0.85591 0.25639 0.26556 0.0
C192 C 0.88666 0.24799 0.52727 0.0
O193 O 0.89445 0.24762 0.462 0.0
O194 O 0.83428 0.24277 0.43448 0.0
C195 C 0.93383 0.37092 0.29285 0.0
O196 O 0.95249 0.37904 0.29031 0.0
O197 O 0.95694 0.40764 0.14376 0.0
Zn198 Zn 0.94341 0.40726 0.24132 0.0
O199 O 0.96184 0.41887 0.32924 0.0
C200 C 0.93609 0.43656 0.19226 0.0
O201 O 0.95337 0.44353 0.16473 0.0
O202 O 0.92583 0.38019 0.27151 0.0
C203 C 0.96816 0.43541 0.35753 0.0
O204 O 0.96345 0.4473 0.32736 0.0
C205 C 0.97399 0.42051 0.12954 0.0
O206 O 0.9836 0.43386 0.18034 0.0
O207 O 0.92828 0.42061 0.22649 0.0
C208 C 0.63135 0.56867 0.28119 0.0
O209 O 0.62354 0.5795 0.28028 0.0
O210 O 0.59289 0.55371 0.13161 0.0
Zn211 Zn 0.59445 0.54232 0.23226 0.0
O212 O 0.5827 0.54985 0.31705 0.0
C213 C 0.56157 0.50791 0.21512 0.0
O214 O 0.55578 0.52034 0.20809 0.0
O215 O 0.62166 0.55139 0.26013 0.0
C216 C 0.58265 0.54386 0.3841 0.0
O217 O 0.59019 0.53306 0.39674 0.0
C218 C 0.58751 0.56598 0.12763 0.0
O219 O 0.58356 0.57215 0.19049 0.0
O220 O 0.57918 0.5138 0.22467 0.0
C221 C 0.43382 0.06619 0.35435 0.0
O222 O 0.422 0.04841 0.33496 0.0
O223 O 0.44552 0.03894 0.22591 0.0
Zn224 Zn 0.45969 0.05406 0.31819 0.0
O225 O 0.45174 0.03498 0.40306 0.0
C226 C 0.49869 0.06217 0.32648 0.0
O227 O 0.49195 0.04961 0.38176 0.0
O228 O 0.45165 0.07273 0.34875 0.0
C229 C 0.45728 0.03942 0.47156 0.0
O230 O 0.46947 0.05726 0.48883 0.0
C231 C 0.44961 0.02637 0.2052 0.0
O232 O 0.46228 0.02429 0.24441 0.0
O233 O 0.4879 0.06718 0.29385 0.0
C234 C 0.6218 0.06857 0.29076 0.0
O235 O 0.60954 0.06142 0.34721 0.0
O236 O 0.58383 0.03288 0.10235 0.0
Zn237 Zn 0.58835 0.04559 0.20442 0.0
O238 O 0.57833 0.02512 0.28583 0.0
C239 C 0.56601 0.06036 0.26839 0.0
O240 O 0.57063 0.05523 0.33236 0.0
O241 O 0.61608 0.06398 0.22241 0.0
C242 C 0.56066 0.01299 0.29174 0.0
O243 O 0.5485 0.01331 0.24311 0.0
C244 C 0.59061 0.02239 0.08254 0.0
O245 O 0.60186 0.01988 0.12914 0.0
O246 O 0.57342 0.05924 0.20627 0.0
C247 C 0.95165 0.56995 0.26028 0.0
O248 O 0.97034 0.57915 0.2647 0.0
O249 O 0.97173 0.54696 0.12451 0.0
Zn250 Zn 0.95778 0.53932 0.22526 0.0
O251 O 0.97555 0.54566 0.31438 0.0
C252 C 0.93156 0.50143 0.16819 0.0
O253 O 0.93462 0.5104 0.10274 0.0
O254 O 0.9428 0.55246 0.24166 0.0
C255 C 0.98411 0.53644 0.32782 0.0
O256 O 0.98221 0.52299 0.28066 0.0
C257 C 0.98874 0.5606 0.11701 0.0
O258 O -0.00186 0.57069 0.17689 0.0
O259 O 0.94013 0.51113 0.22696 0.0
C260 C 0.42537 0.37414 0.26647 0.0
O261 O 0.41511 0.38247 0.25857 0.0
O262 O 0.44023 0.41166 0.12552 0.0
Zn263 Zn 0.45299 0.41066 0.22348 0.0
O264 O 0.44507 0.42162 0.31047 0.0
C265 C 0.49066 0.44246 0.22746 0.0
O266 O 0.48107 0.45088 0.24707 0.0
O267 O 0.44308 0.38339 0.25155 0.0
C268 C 0.4412 0.43493 0.30342 0.0
O269 O 0.44264 0.44279 0.2364 0.0
C270 C 0.44818 0.42595 0.08112 0.0
O271 O 0.46529 0.44004 0.09685 0.0
O272 O 0.48182 0.42468 0.2137 0.0
C273 C 0.38658 0.29762 0.38667 0.0
O274 O 0.3689 0.29052 0.41002 0.0
O275 O 0.36233 0.25571 0.50697 0.0
Zn276 Zn 0.37719 0.25951 0.41001 0.0
O277 O 0.35899 0.24743 0.32312 0.0
C278 C 0.38079 0.22826 0.43778 0.0
O279 O 0.36254 0.22191 0.44811 0.0
O280 O 0.394 0.28706 0.38445 0.0
C281 C 0.36522 0.24728 0.2568 0.0
O282 O 0.38364 0.25498 0.24536 0.0
C283 C 0.34469 0.25045 0.50566 0.0
O284 O 0.33613 0.24888 0.44019 0.0
O285 O 0.39175 0.24565 0.4207 0.0
C286 C 0.70111 0.11631 0.36905 0.0
O287 O 0.7116 0.1341 0.34699 0.0
O288 O 0.74038 0.1061 0.51167 0.0
Zn289 Zn 0.73672 0.11984 0.42336 0.0
O290 O 0.74813 0.11604 0.32798 0.0
C291 C 0.75551 0.16041 0.39584 0.0
O292 O 0.75361 0.15463 0.32461 0.0
O293 O 0.70871 0.10803 0.4038 0.0
C294 C 0.76459 0.11784 0.32334 0.0
O295 O 0.77554 0.1226 0.38404 0.0
C296 C 0.75429 0.11494 0.55725 0.0
O297 O 0.76659 0.13307 0.54576 0.0
O298 O 0.74915 0.1478 0.44783 0.0
C299 C 0.90976 0.60757 0.34265 0.0
O300 O 0.91857 0.62622 0.33622 0.0
O301 O 0.8924 0.62944 0.48793 0.0
Zn302 Zn 0.88114 0.61479 0.39074 0.0
O303 O 0.88621 0.63253 0.30213 0.0
C304 C 0.84587 0.61038 0.41153 0.0
O305 O 0.8572 0.62892 0.40789 0.0
O306 O 0.89272 0.59861 0.36705 0.0
C307 C 0.88001 0.62538 0.23666 0.0
O308 O 0.87055 0.60679 0.22801 0.0
C309 C 0.90349 0.64739 0.48964 0.0
O310 O 0.90866 0.65715 0.42567 0.0
O311 O 0.85282 0.59947 0.40506 0.0
C312 C 0.36698 0.94233 0.78672 0.0
O313 O 0.37423 0.96072 0.79767 0.0
O314 O 0.40908 0.96467 0.92081 0.0
Zn315 Zn 0.40525 0.9527 0.81557 0.0
O316 O 0.4139 0.9735 0.73537 0.0
C317 C 0.43622 0.94452 0.82823 0.0
O318 O 0.44281 0.95858 0.87765 0.0
O319 O 0.3775 0.93495 0.79438 0.0
C320 C 0.43035 0.98132 0.70504 0.0
O321 O 0.44261 0.97607 0.72559 0.0
C322 C 0.42363 0.98104 0.93172 0.0
O323 O 0.43581 0.98939 0.87588 0.0
O324 O 0.41975 0.93849 0.80004 0.0
C325 C 0.04266 0.41334 0.68687 0.0
O326 O 0.02398 0.40496 0.68757 0.0
O327 O 0.02704 0.43997 0.82797 0.0
Zn328 Zn 0.03949 0.44579 0.72426 0.0
O329 O 0.02019 0.43997 0.64143 0.0
C330 C 0.06701 0.48428 0.77288 0.0
O331 O 0.06435 0.47624 0.84032 0.0
O332 O 0.05261 0.43092 0.70334 0.0
C333 C 0.01341 0.45092 0.63043 0.0
O334 O 0.01813 0.46544 0.67632 0.0
C335 C 0.01022 0.42623 0.83856 0.0
O336 O 0.00067 0.41499 0.7815 0.0
O337 O 0.05804 0.47374 0.71651 0.0
C338 C 0.56966 0.62862 0.67804 0.0
O339 O 0.57915 0.62075 0.65036 0.0
O340 O 0.55486 0.58623 0.82983 0.0
Zn341 Zn 0.54513 0.59078 0.73093 0.0
O342 O 0.55483 0.58148 0.64445 0.0
C343 C 0.50748 0.56221 0.77571 0.0
O344 O 0.51706 0.55832 0.82602 0.0
O345 O 0.55447 0.61864 0.71589 0.0
C346 C 0.54891 0.56396 0.63171 0.0
O347 O 0.53569 0.55087 0.67556 0.0
C348 C 0.57236 0.59243 0.84404 0.0
O349 O 0.5854 0.60309 0.79373 0.0
O350 O 0.51638 0.57611 0.73012 0.0
C351 C 0.60291 0.70807 0.60487 0.0
O352 O 0.62154 0.71666 0.59797 0.0
O353 O 0.62662 0.74848 0.48475 0.0
Zn354 Zn 0.61264 0.74555 0.58374 0.0
O355 O 0.63058 0.75302 0.67363 0.0
C356 C 0.6071 0.77719 0.55603 0.0
O357 O 0.62408 0.78412 0.5255 0.0
O358 O 0.59454 0.71773 0.59924 0.0
C359 C 0.63976 0.76925 0.70539 0.0
O360 O 0.63859 0.78377 0.67859 0.0
C361 C 0.64418 0.76065 0.47682 0.0
O362 O 0.65357 0.77246 0.53258 0.0
O363 O 0.59875 0.7604 0.58319 0.0
C364 C 0.29022 0.90066 0.66917 0.0
O365 O 0.28207 0.91069 0.65196 0.0
O366 O 0.25225 0.88095 0.52613 0.0
Zn367 Zn 0.25346 0.87102 0.6314 0.0
O368 O 0.2414 0.87988 0.71041 0.0
C369 C 0.22608 0.83195 0.59474 0.0
O370 O 0.21934 0.84006 0.54932 0.0
O371 O 0.28085 0.88262 0.6627 0.0
C372 C 0.22391 0.87156 0.72927 0.0
O373 O 0.21157 0.85572 0.69491 0.0
C374 C 0.2383 0.88306 0.5065 0.0
O375 O 0.22421 0.87853 0.5543 0.0
O376 O 0.24099 0.84227 0.63371 0.0
C377 C 0.08254 0.3751 0.5853 0.0
O378 O 0.07359 0.35734 0.56147 0.0
O379 O 0.10564 0.36014 0.44979 0.0
Zn380 Zn 0.11458 0.37106 0.55545 0.0
O381 O 0.10788 0.35026 0.63347 0.0
C382 C 0.15428 0.38647 0.52092 0.0
O383 O 0.1477 0.37108 0.47859 0.0
O384 O 0.10062 0.38442 0.58701 0.0
C385 C 0.11785 0.3427 0.65107 0.0
O386 O 0.13404 0.34799 0.61574 0.0
C387 C 0.10492 0.34479 0.42869 0.0
O388 O 0.1102 0.33568 0.47561 0.0
O389 O 0.14273 0.38986 0.55712 0.0
C390 C 0.28649 0.39942 0.60887 0.0
O391 O 0.27903 0.38103 0.59685 0.0
O392 O 0.24505 0.37506 0.48515 0.0
Zn393 Zn 0.24853 0.38834 0.58595 0.0
O394 O 0.23989 0.36849 0.66792 0.0
C395 C 0.23102 0.4101 0.53582 0.0
O396 O 0.24066 0.41193 0.4731 0.0
O397 O 0.27596 0.40685 0.6055 0.0
C398 C 0.22255 0.35853 0.68778 0.0
O399 O 0.20953 0.36124 0.655 0.0
C400 C 0.22843 0.36551 0.45684 0.0
O401 O 0.21391 0.36512 0.4919 0.0
O402 O 0.23268 0.40086 0.59099 0.0
C403 C 0.60163 0.89495 0.60172 0.0
O404 O 0.60349 0.89063 0.53116 0.0
O405 O 0.6404 0.88998 0.53783 0.0
Zn406 Zn 0.62573 0.87937 0.63563 0.0
O407 O 0.64466 0.88663 0.72077 0.0
C408 C 0.60003 0.84178 0.5731 0.0
O409 O 0.60037 0.85166 0.51312 0.0
O410 O 0.60952 0.89108 0.65594 0.0
C411 C 0.65358 0.87768 0.7322 0.0
O412 O 0.65028 0.86316 0.68855 0.0
C413 C 0.64713 0.88105 0.50177 0.0
O414 O 0.64426 0.86461 0.52779 0.0
O415 O 0.60982 0.85084 0.63105 0.0
C416 C 0.10447 0.69729 0.60881 0.0
O417 O 0.09244 0.70366 0.61317 0.0
O418 O 0.11361 0.73886 0.49742 0.0
Zn419 Zn 0.12767 0.73592 0.58664 0.0
O420 O 0.11868 0.74204 0.68348 0.0
C421 C 0.16956 0.75405 0.60381 0.0
O422 O 0.16702 0.73819 0.63495 0.0
O423 O 0.12196 0.70892 0.59548 0.0
C424 C 0.12316 0.75909 0.69904 0.0
O425 O 0.13342 0.7728 0.65045 0.0
C426 C 0.12057 0.75506 0.46539 0.0
O427 O 0.13661 0.76941 0.49051 0.0
O428 O 0.15546 0.75508 0.5783 0.0
C429 C 0.06672 0.61718 0.67217 0.0
O430 O 0.04889 0.60868 0.64952 0.0
O431 O 0.03996 0.5748 0.8141 0.0
Zn432 Zn 0.05516 0.57946 0.71707 0.0
O433 O 0.03826 0.57027 0.62404 0.0
C434 C 0.06234 0.54989 0.76086 0.0
O435 O 0.04654 0.54449 0.79933 0.0
O436 O 0.07323 0.60754 0.70408 0.0
C437 C 0.0259 0.55298 0.61119 0.0
O438 O 0.02306 0.53975 0.66127 0.0
C439 C 0.02573 0.57723 0.82165 0.0
O440 O 0.01989 0.58322 0.7636 0.0
O441 O 0.06961 0.56525 0.72246 0.0
C442 C 0.36529 0.4366 0.69596 0.0
O443 O 0.37167 0.42462 0.70293 0.0
O444 O 0.40649 0.44709 0.80582 0.0
Zn445 Zn 0.40386 0.461 0.71554 0.0
O446 O 0.41107 0.45145 0.62297 0.0
C447 C 0.43219 0.49765 0.77983 0.0
O448 O 0.42852 0.48838 0.84475 0.0
O449 O 0.37678 0.45438 0.70219 0.0
C450 C 0.41751 0.46178 0.56374 0.0
O451 O 0.41918 0.47876 0.56226 0.0
C452 C 0.42285 0.44924 0.81927 0.0
O453 O 0.43712 0.46022 0.77403 0.0
O454 O 0.42205 0.48941 0.72153 0.0
C455 C 0.56559 0.93863 0.68071 0.0
O456 O 0.57656 0.95633 0.70324 0.0
O457 O 0.55125 0.9648 0.79491 0.0
Zn458 Zn 0.53816 0.94981 0.7002 0.0
O459 O 0.54363 0.96713 0.60958 0.0
C460 C 0.50346 0.94715 0.73075 0.0
O461 O 0.51471 0.96556 0.72095 0.0
O462 O 0.5477 0.93189 0.67591 0.0
C463 C 0.53867 0.95994 0.54328 0.0
O464 O 0.52966 0.94133 0.5348 0.0
C465 C 0.56265 0.98269 0.79589 0.0
O466 O 0.56699 0.99248 0.73202 0.0
O467 O 0.5101 0.936 0.72252 0.0
C468 C 0.12144 0.25896 0.1742 0.0
C469 C 0.11477 0.25915 0.09967 0.0
C470 C 0.13754 0.25081 0.04661 0.0
C471 C 0.14692 0.25511 0.11802 0.0
N472 N 0.14759 0.26211 0.25212 0.0
N473 N 0.11574 0.2546 0.96378 0.0
C474 C 0.13852 0.25831 0.18317 0.0
C475 C 0.12222 0.25433 0.03556 0.0
N476 N 0.11147 0.25961 0.23592 0.0
N477 N 0.14374 0.24382 0.98927 0.0
H478 H 0.10439 0.25689 0.95331 0.0
H479 H 0.12223 0.25356 0.91417 0.0
H480 H 0.15501 0.24121 0.9971 0.0
H481 H 0.13669 0.23894 0.93734 0.0
H482 H 0.11465 0.25799 0.29204 0.0
H483 H 0.09883 0.25998 0.23016 0.0
H484 H 0.14357 0.26705 0.29944 0.0
H485 H 0.15973 0.26103 0.26121 0.0
C486 C 0.73388 0.85265 0.19821 0.0
C487 C 0.73417 0.84629 0.12326 0.0
C488 C 0.74419 0.87804 0.07285 0.0
C489 C 0.73894 0.88255 0.14343 0.0
N490 N 0.73396 0.87732 0.27803 0.0
N491 N 0.74187 0.85291 0.98998 0.0
C492 C 0.73582 0.87094 0.20819 0.0
C493 C 0.74057 0.85916 0.06096 0.0
N494 N 0.73119 0.84088 0.25863 0.0
N495 N 0.75226 0.89167 0.01757 0.0
H496 H 0.7399 0.83931 0.98059 0.0
H497 H 0.74425 0.86084 0.9403 0.0
H498 H 0.75568 0.90573 0.02705 0.0
H499 H 0.75741 0.88966 0.96603 0.0
H500 H 0.73127 0.8446 0.3155 0.0
H501 H 0.72999 0.82752 0.25147 0.0
H502 H 0.73003 0.86921 0.32774 0.0
H503 H 0.7367 0.89126 0.28562 0.0
C504 C 0.11673 0.85019 0.21738 0.0
C505 C 0.10697 0.84464 0.14651 0.0
C506 C 0.13472 0.86988 0.08036 0.0
C507 C 0.14481 0.87489 0.15059 0.0
N508 N 0.14418 0.87396 0.28793 0.0
N509 N 0.10403 0.85254 0.01699 0.0
C510 C 0.13534 0.8664 0.21991 0.0
C511 C 0.11512 0.85576 0.0802 0.0
N512 N 0.10878 0.83932 0.28106 0.0
N513 N 0.1441 0.87753 0.0133 0.0
H514 H 0.08956 0.84226 0.0163 0.0
H515 H 0.1086 0.86119 0.96867 0.0
H516 H 0.15847 0.88788 0.01063 0.0
H517 H 0.13798 0.87268 0.95977 0.0
H518 H 0.11624 0.84107 0.33163 0.0
H519 H 0.09485 0.82793 0.28248 0.0
H520 H 0.13744 0.86954 0.34067 0.0
H521 H 0.1578 0.88593 0.29117 0.0
C522 C 0.25207 0.12551 0.98875 0.0
C523 C 0.25621 0.11617 0.92988 0.0
C524 C 0.25919 0.14077 0.84064 0.0
C525 C 0.26062 0.15249 0.90332 0.0
N526 N 0.25911 0.15587 0.04075 0.0
N527 N 0.26352 0.115 0.79618 0.0
C528 C 0.25675 0.14474 0.97843 0.0
C529 C 0.25922 0.1235 0.85418 0.0
N530 N 0.24412 0.11606 0.05528 0.0
N531 N 0.2579 0.14627 0.76817 0.0
H532 H 0.26317 0.10205 0.80129 0.0
H533 H 0.26845 0.12142 0.74311 0.0
H534 H 0.25743 0.1587 0.75709 0.0
H535 H 0.2552 0.13756 0.7206 0.0
H536 H 0.23935 0.1216 0.09809 0.0
H537 H 0.24043 0.10184 0.06335 0.0
H538 H 0.2587 0.15121 0.09654 0.0
H539 H 0.26302 0.17018 0.03798 0.0
C540 C 0.85416 0.12695 0.97 0.0
C541 C 0.84711 0.11825 0.8981 0.0
C542 C 0.87472 0.14443 0.83497 0.0
C543 C 0.87891 0.15507 0.90349 0.0
N544 N 0.87337 0.15643 0.03855 0.0
N545 N 0.85153 0.11687 0.76313 0.0
C546 C 0.86926 0.14617 0.97235 0.0
C547 C 0.85792 0.1263 0.83096 0.0
N548 N 0.84613 0.11707 0.03571 0.0
N549 N 0.8868 0.15187 0.77408 0.0
H550 H 0.83986 0.10305 0.76007 0.0
H551 H 0.85736 0.1228 0.71028 0.0
H552 H 0.89935 0.16507 0.77679 0.0
H553 H 0.88537 0.14441 0.72383 0.0
H554 H 0.85176 0.12207 0.08978 0.0
H555 H 0.83498 0.10301 0.03611 0.0
H556 H 0.8649 0.15158 0.08729 0.0
H557 H 0.88474 0.17026 0.04424 0.0
C558 C 0.85505 0.72802 0.82716 0.0
C559 C 0.84674 0.72551 0.90029 0.0
C560 C 0.87347 0.72432 0.95901 0.0
C561 C 0.88113 0.72534 0.88481 0.0
N562 N 0.88304 0.7346 0.75317 0.0
N563 N 0.85038 0.7276 0.03655 0.0
C564 C 0.87317 0.72943 0.82044 0.0
C565 C 0.8569 0.72599 0.96657 0.0
N566 N 0.84518 0.72815 0.76414 0.0
N567 N 0.88094 0.72023 0.02131 0.0
H568 H 0.83815 0.72868 0.04292 0.0
H569 H 0.85795 0.72971 0.08707 0.0
H570 H 0.89316 0.7191 0.01962 0.0
H571 H 0.87438 0.71682 0.07463 0.0
H572 H 0.84934 0.7276 0.70839 0.0
H573 H 0.83228 0.72807 0.7681 0.0
H574 H 0.87877 0.73917 0.70545 0.0
H575 H 0.89655 0.73608 0.74777 0.0
C576 C 0.81807 0.60181 0.49646 0.0
C577 C 0.82531 0.60284 0.4221 0.0
C578 C 0.79759 0.60249 0.36568 0.0
C579 C 0.79086 0.60276 0.44061 0.0
N580 N 0.79097 0.59612 0.57452 0.0
N581 N 0.81966 0.59774 0.28744 0.0
C582 C 0.79988 0.60015 0.50517 0.0
C583 C 0.81414 0.60084 0.35719 0.0
N584 N 0.829 0.60339 0.55844 0.0
N585 N 0.78931 0.60537 0.30299 0.0
H586 H 0.83185 0.59661 0.2804 0.0
H587 H 0.81129 0.59444 0.2385 0.0
H588 H 0.777 0.60634 0.30496 0.0
H589 H 0.7953 0.60795 0.24863 0.0
H590 H 0.8256 0.60515 0.61406 0.0
H591 H 0.84202 0.60374 0.5535 0.0
H592 H 0.79608 0.59263 0.62281 0.0
H593 H 0.77741 0.59443 0.58162 0.0
C594 C 0.38779 0.18756 0.38295 0.0
C595 C 0.38777 0.18018 0.45673 0.0
C596 C 0.38961 0.20831 0.51691 0.0
C597 C 0.38789 0.21476 0.44389 0.0
N598 N 0.39128 0.21434 0.30769 0.0
N599 N 0.39509 0.18607 0.59037 0.0
C600 C 0.38917 0.20571 0.37692 0.0
C601 C 0.39093 0.19153 0.52262 0.0
N602 N 0.38503 0.17673 0.31922 0.0
N603 N 0.3891 0.21779 0.58063 0.0
H604 H 0.39643 0.17393 0.59499 0.0
H605 H 0.39894 0.19433 0.63971 0.0
H606 H 0.38911 0.23067 0.57765 0.0
H607 H 0.38796 0.21262 0.63594 0.0
H608 H 0.38207 0.18013 0.26554 0.0
H609 H 0.38492 0.16385 0.31981 0.0
H610 H 0.39403 0.2094 0.2571 0.0
H611 H 0.39202 0.22751 0.302 0.0
C612 C 0.79513 0.20136 0.50099 0.0
C613 C 0.80565 0.21226 0.43683 0.0
C614 C 0.77761 0.19431 0.35564 0.0
C615 C 0.76901 0.18087 0.41516 0.0
N616 N 0.76427 0.17768 0.55115 0.0
N617 N 0.80681 0.21995 0.30281 0.0
C618 C 0.7761 0.18624 0.49045 0.0
C619 C 0.7967 0.20936 0.3644 0.0
N620 N 0.80361 0.20507 0.57121 0.0
N621 N 0.76717 0.19306 0.29251 0.0
H622 H 0.82072 0.23128 0.30681 0.0
H623 H 0.80179 0.21678 0.24693 0.0
H624 H 0.75265 0.18305 0.28877 0.0
H625 H 0.77209 0.20325 0.24927 0.0
H626 H 0.79764 0.1962 0.61835 0.0
H627 H 0.8171 0.21679 0.58151 0.0
H628 H 0.76818 0.18164 0.60772 0.0
H629 H 0.74969 0.16835 0.54405 0.0
C630 C 0.91985 0.47145 0.24416 0.0
C631 C 0.92262 0.48023 0.17189 0.0
C632 C 0.92404 0.45377 0.11231 0.0
C633 C 0.92655 0.44801 0.18594 0.0
N634 N 0.92437 0.44956 0.32335 0.0
N635 N 0.91562 0.47387 0.03827 0.0
C636 C 0.92307 0.45586 0.25247 0.0
C637 C 0.921 0.46953 0.10569 0.0
N638 N 0.91382 0.47795 0.30379 0.0
N639 N 0.92526 0.44453 0.04916 0.0
H640 H 0.91107 0.48384 0.0353 0.0
H641 H 0.91325 0.46607 0.98823 0.0
H642 H 0.92596 0.43204 0.05308 0.0
H643 H 0.92598 0.44938 0.99356 0.0
H644 H 0.91014 0.4714 0.3571 0.0
H645 H 0.91045 0.48873 0.29645 0.0
H646 H 0.92458 0.4565 0.37369 0.0
H647 H 0.92598 0.43774 0.33224 0.0
C648 C 0.54056 0.47809 0.28683 0.0
C649 C 0.54724 0.48742 0.21571 0.0
C650 C 0.5201 0.46112 0.15048 0.0
C651 C 0.51158 0.45412 0.22261 0.0
N652 N 0.51371 0.45397 0.35942 0.0
N653 N 0.54502 0.48758 0.07884 0.0
C654 C 0.52203 0.46179 0.29086 0.0
C655 C 0.53767 0.47863 0.14691 0.0
N656 N 0.55177 0.48514 0.35027 0.0
N657 N 0.51114 0.4512 0.08596 0.0
H658 H 0.55837 0.4999 0.07476 0.0
H659 H 0.53782 0.48323 0.02703 0.0
H660 H 0.49833 0.43826 0.08788 0.0
H661 H 0.51704 0.45479 0.03155 0.0
H662 H 0.54838 0.47838 0.40316 0.0
H663 H 0.56537 0.49711 0.34845 0.0
H664 H 0.51941 0.46007 0.41216 0.0
H665 H 0.50058 0.44138 0.36321 0.0
C666 C 0.55102 0.07792 0.32569 0.0
C667 C 0.55065 0.06526 0.26885 0.0
C668 C 0.5191 0.05904 0.22848 0.0
C669 C 0.51779 0.06782 0.2962 0.0
N670 N 0.53252 0.0866 0.40833 0.0
N671 N 0.53303 0.04206 0.16936 0.0
C672 C 0.53388 0.0778 0.34408 0.0
C673 C 0.53455 0.05567 0.21969 0.0
N674 N 0.56777 0.09014 0.3613 0.0
N675 N 0.50534 0.05341 0.17359 0.0
H676 H 0.54343 0.0383 0.16127 0.0
H677 H 0.5205 0.03306 0.14002 0.0
H678 H 0.49381 0.05569 0.17798 0.0
H679 H 0.50653 0.0485 0.12003 0.0
H680 H 0.56928 0.10076 0.39896 0.0
H681 H 0.58065 0.0909 0.34713 0.0
H682 H 0.54295 0.09213 0.45065 0.0
H683 H 0.52047 0.08766 0.42048 0.0
C684 C 0.46078 0.93547 0.85481 0.0
C685 C 0.44926 0.93786 0.80001 0.0
C686 C 0.47008 0.93781 0.698 0.0
C687 C 0.48353 0.93995 0.75406 0.0
N688 N 0.49188 0.93979 0.88582 0.0
N689 N 0.44196 0.93952 0.66655 0.0
C690 C 0.47879 0.93809 0.83256 0.0
C691 C 0.45329 0.93798 0.72053 0.0
N692 N 0.45433 0.93065 0.92806 0.0
N693 N 0.47348 0.93566 0.62321 0.0
H694 H 0.4287 0.938 0.67785 0.0
H695 H 0.44594 0.94282 0.60962 0.0
H696 H 0.48578 0.93561 0.60572 0.0
H697 H 0.4635 0.93214 0.5798 0.0
H698 H 0.46129 0.92723 0.96972 0.0
H699 H 0.44091 0.92819 0.94477 0.0
H700 H 0.49027 0.94099 0.94418 0.0
H701 H 0.50488 0.9409 0.87109 0.0
C702 C 0.07635 0.53267 0.82913 0.0
C703 C 0.07069 0.53733 0.75934 0.0
C704 C 0.07487 0.51306 0.69354 0.0
C705 C 0.07539 0.50539 0.76537 0.0
N706 N 0.08761 0.51346 0.89299 0.0
N707 N 0.06522 0.53246 0.62314 0.0
C708 C 0.07961 0.51697 0.83105 0.0
C709 C 0.07073 0.5281 0.69036 0.0
N710 N 0.07787 0.54284 0.89364 0.0
N711 N 0.07879 0.50619 0.62905 0.0
H712 H 0.06198 0.54332 0.61781 0.0
H713 H 0.06264 0.52444 0.57351 0.0
H714 H 0.08318 0.49609 0.63171 0.0
H715 H 0.08002 0.51211 0.57509 0.0
H716 H 0.07972 0.5389 0.94812 0.0
H717 H 0.07675 0.55512 0.89266 0.0
H718 H 0.09203 0.52189 0.94184 0.0
H719 H 0.09196 0.50331 0.89124 0.0
C720 C 0.45522 0.53069 0.82637 0.0
C721 C 0.45022 0.51607 0.77132 0.0
C722 C 0.48028 0.53622 0.70437 0.0
C723 C 0.48679 0.54887 0.76727 0.0
N724 N 0.4807 0.55849 0.88923 0.0
N725 N 0.46028 0.50358 0.66616 0.0
C726 C 0.47427 0.54626 0.82855 0.0
C727 C 0.4632 0.51853 0.71167 0.0
N728 N 0.4417 0.52988 0.8753 0.0
N729 N 0.49055 0.54079 0.63823 0.0
H730 H 0.44896 0.48978 0.67298 0.0
H731 H 0.4704 0.50433 0.62746 0.0
H732 H 0.5031 0.55368 0.63022 0.0
H733 H 0.48541 0.53272 0.58849 0.0
H734 H 0.44407 0.54092 0.91229 0.0
H735 H 0.42751 0.51892 0.87359 0.0
H736 H 0.47304 0.55607 0.93978 0.0
H737 H 0.49416 0.57072 0.89007 0.0
C738 C 0.59078 0.81175 0.49727 0.0
C739 C 0.59271 0.8208 0.5685 0.0
C740 C 0.59573 0.79571 0.63335 0.0
C741 C 0.59837 0.78941 0.56098 0.0
N742 N 0.59625 0.78955 0.42368 0.0
N743 N 0.58625 0.81564 0.70262 0.0
C744 C 0.59493 0.79668 0.49271 0.0
C745 C 0.59166 0.81083 0.63628 0.0
N746 N 0.58386 0.81673 0.43582 0.0
N747 N 0.59861 0.78839 0.69904 0.0
H748 H 0.58215 0.82599 0.7039 0.0
H749 H 0.58371 0.80808 0.75344 0.0
H750 H 0.60117 0.77702 0.69983 0.0
H751 H 0.59942 0.79421 0.75287 0.0
H752 H 0.58109 0.80995 0.38305 0.0
H753 H 0.57827 0.82581 0.44095 0.0
H754 H 0.59638 0.7958 0.37161 0.0
H755 H 0.59795 0.77763 0.41872 0.0
C756 C 0.19434 0.78216 0.67528 0.0
C757 C 0.18823 0.77182 0.6059 0.0
C758 C 0.21216 0.79972 0.53551 0.0
C759 C 0.21562 0.81092 0.60217 0.0
N760 N 0.20986 0.81314 0.73622 0.0
N761 N 0.19146 0.76993 0.47015 0.0
C762 C 0.20706 0.80218 0.67282 0.0
C763 C 0.19741 0.78031 0.53612 0.0
N764 N 0.18762 0.77293 0.74334 0.0
N765 N 0.22316 0.80769 0.47208 0.0
H766 H 0.18149 0.75536 0.46976 0.0
H767 H 0.19578 0.7758 0.41594 0.0
H768 H 0.23427 0.82183 0.47075 0.0
H769 H 0.2225 0.79999 0.42349 0.0
H770 H 0.19295 0.77926 0.79617 0.0
H771 H 0.17785 0.75839 0.74722 0.0
H772 H 0.20193 0.808 0.78617 0.0
H773 H 0.21934 0.82776 0.73792 0.0
C774 C 0.2041 0.41027 0.60469 0.0
C775 C 0.2145 0.41347 0.53624 0.0
C776 C 0.18637 0.40701 0.46215 0.0
C777 C 0.17511 0.39908 0.52884 0.0
N778 N 0.17326 0.39393 0.66572 0.0
N779 N 0.21822 0.42555 0.40841 0.0
C780 C 0.18397 0.40148 0.60128 0.0
C781 C 0.20649 0.4152 0.46706 0.0
N782 N 0.21368 0.41598 0.67239 0.0
N783 N 0.1777 0.40613 0.39412 0.0
H784 H 0.23298 0.43354 0.4152 0.0
H785 H 0.21347 0.42826 0.35731 0.0
H786 H 0.16317 0.4015 0.38998 0.0
H787 H 0.18469 0.40946 0.34172 0.0
H788 H 0.20716 0.41546 0.72427 0.0
H789 H 0.22857 0.42337 0.67445 0.0
H790 H 0.179 0.39311 0.71782 0.0
H791 H 0.15846 0.38732 0.66665 0.0
C792 C 0.00404 0.22923 0.99849 0.0
C793 C 0.01415 0.24819 0.02641 0.0
C794 C 0.98772 0.25322 0.99153 0.0
C795 C 0.978 0.23458 0.95992 0.0
N796 N 0.97726 0.20539 0.9252 0.0
N797 N 0.01749 0.2794 0.03872 0.0
C798 C 0.98632 0.22277 0.96065 0.0
C799 C 0.00648 0.2605 0.0204 0.0
N800 N 0.01108 0.21723 0.0109 0.0
N801 N 0.97901 0.26396 0.99405 0.0
H802 H 0.03132 0.28533 0.06009 0.0
H803 H 0.0136 0.2896 0.02732 0.0
H804 H 0.96593 0.25984 0.96806 0.0
H805 H 0.98421 0.27653 0.02528 0.0
H806 H 0.00356 0.20268 0.99938 0.0
H807 H 0.02404 0.22155 0.03833 0.0
H808 H 0.98349 0.19702 0.91595 0.0
H809 H 0.96378 0.1997 0.90056 0.0
C810 C 0.74002 0.72472 0.04921 0.0
C811 C 0.75 0.72945 0.97856 0.0
C812 C 0.73923 0.75217 0.95002 0.0
C813 C 0.73014 0.74816 0.02231 0.0
N814 N 0.72366 0.7329 0.14528 0.0
N815 N 0.76082 0.74866 0.86435 0.0
C816 C 0.731 0.73504 0.07321 0.0
C817 C 0.75017 0.74354 0.92983 0.0
N818 N 0.73907 0.71028 0.09304 0.0
N819 N 0.73687 0.76377 0.89979 0.0
H820 H 0.76797 0.74177 0.84483 0.0
H821 H 0.76345 0.76038 0.8311 0.0
H822 H 0.72949 0.77086 0.91352 0.0
H823 H 0.74114 0.76554 0.84294 0.0
H824 H 0.73024 0.70462 0.14044 0.0
H825 H 0.74635 0.70308 0.07982 0.0
H826 H 0.72559 0.72517 0.18832 0.0
H827 H 0.71671 0.74005 0.16417 0.0
C828 C 0.23205 0.9819 0.97255 0.0
C829 C 0.23242 0.97629 0.04892 0.0
C830 C 0.24576 0.00936 0.09064 0.0
C831 C 0.24861 0.01523 0.01328 0.0
N832 N 0.24569 0.00735 0.87922 0.0
N833 N 0.24092 0.98473 0.18113 0.0
C834 C 0.24196 0.00157 0.95367 0.0
C835 C 0.23946 0.99 0.10842 0.0
N836 N 0.22161 0.96845 0.91883 0.0
N837 N 0.24853 0.0222 0.14675 0.0
H838 H 0.23646 0.97067 0.19653 0.0
H839 H 0.2479 0.9945 0.22487 0.0
H840 H 0.25216 0.03622 0.13453 0.0
H841 H 0.24519 0.01847 0.20391 0.0
H842 H 0.21946 0.97178 0.86362 0.0
H843 H 0.2133 0.95402 0.93223 0.0
H844 H 0.24313 0.99801 0.83402 0.0
H845 H 0.25258 0.02166 0.86294 0.0
C846 C 0.98956 0.73137 0.97094 0.0
C847 C 0.97874 0.73898 0.00361 0.0
C848 C 0.00623 0.7608 0.08148 0.0
C849 C 0.01745 0.75438 0.04332 0.0
N850 N 0.02097 0.7373 0.93726 0.0
N851 N 0.9778 0.76354 0.0783 0.0
C852 C 0.00947 0.74079 0.98364 0.0
C853 C 0.98738 0.75449 0.05553 0.0
N854 N 0.98075 0.71458 0.93137 0.0
N855 N 0.01322 0.77221 0.14447 0.0
H856 H 0.9641 0.75954 0.0593 0.0
H857 H 0.98411 0.77611 0.10998 0.0
H858 H 0.02683 0.77688 0.16624 0.0
H859 H 0.00492 0.77563 0.1792 0.0
H860 H 0.98785 0.70752 0.91319 0.0
H861 H 0.96604 0.70657 0.92401 0.0
H862 H 0.016 0.72888 0.88835 0.0
H863 H 0.03577 0.74445 0.94259 0.0
C864 C 0.2545 0.24842 0.05386 0.0
C865 C 0.26223 0.25167 0.97899 0.0
C866 C 0.25382 0.27647 0.95833 0.0
C867 C 0.24496 0.27233 0.03126 0.0
N868 N 0.23449 0.25288 0.14482 0.0
N869 N 0.26654 0.2662 0.85504 0.0
C870 C 0.24449 0.25777 0.07778 0.0
C871 C 0.26121 0.26505 0.92989 0.0
N872 N 0.2576 0.23719 0.10342 0.0
N873 N 0.25518 0.29133 0.91626 0.0
H874 H 0.27182 0.25789 0.83194 0.0
H875 H 0.26422 0.27412 0.81405 0.0
H876 H 0.24896 0.29936 0.93273 0.0
H877 H 0.26345 0.29653 0.86715 0.0
H878 H 0.25422 0.23597 0.16126 0.0
H879 H 0.26503 0.23024 0.08843 0.0
H880 H 0.23167 0.24089 0.17666 0.0
H881 H 0.22787 0.26011 0.16645 0.0
C882 C 0.74671 0.00209 0.94315 0.0
C883 C 0.75551 0.01739 0.99565 0.0
C884 C 0.74869 0.99504 0.10136 0.0
C885 C 0.73842 0.97972 0.04996 0.0
N886 N 0.72636 0.96805 0.92353 0.0
N887 N 0.76418 0.02912 0.12448 0.0
C888 C 0.73708 0.98307 0.97117 0.0
C889 C 0.75637 0.01407 0.07473 0.0
N890 N 0.74779 0.00582 0.86654 0.0
N891 N 0.75117 0.99137 0.17544 0.0
H892 H 0.77088 0.04332 0.10679 0.0
H893 H 0.76321 0.02767 0.18359 0.0
H894 H 0.74495 0.97763 0.19802 0.0
H895 H 0.7603 0.00178 0.21371 0.0
H896 H 0.74346 0.99541 0.82443 0.0
H897 H 0.75429 0.01963 0.84439 0.0
H898 H 0.72298 0.96953 0.8676 0.0
H899 H 0.71986 0.95386 0.94109 0.0
C900 C 0.666 0.59193 0.26379 0.0
C901 C 0.65135 0.57677 0.30622 0.0
C902 C 0.67479 0.5786 0.39956 0.0
C903 C 0.68904 0.59507 0.36168 0.0
N904 N 0.69864 0.61807 0.25943 0.0
N905 N 0.64108 0.5565 0.41759 0.0
C906 C 0.68476 0.60193 0.29423 0.0
C907 C 0.65556 0.57014 0.37448 0.0
N908 N 0.66206 0.5962 0.19291 0.0
N909 N 0.67961 0.57111 0.4598 0.0
H910 H 0.62687 0.54971 0.40067 0.0
H911 H 0.64288 0.55278 0.47256 0.0
H912 H 0.69328 0.57753 0.48303 0.0
H913 H 0.6704 0.55786 0.48388 0.0
H914 H 0.67241 0.60575 0.15543 0.0
H915 H 0.64852 0.58895 0.1684 0.0
H916 H 0.69594 0.62525 0.21636 0.0
H917 H 0.71292 0.62492 0.27595 0.0
C918 C 0.41408 0.07088 0.45255 0.0
C919 C 0.42644 0.07793 0.38843 0.0
C920 C 0.42511 0.10746 0.39286 0.0
C921 C 0.41068 0.09923 0.44932 0.0
N922 N 0.38929 0.07191 0.52555 0.0
N923 N 0.44179 0.10187 0.29045 0.0
C924 C 0.40467 0.08067 0.4778 0.0
C925 C 0.4316 0.09603 0.35695 0.0
N926 N 0.4117 0.05511 0.49079 0.0
N927 N 0.43281 0.1263 0.37448 0.0
H928 H 0.44639 0.09372 0.26104 0.0
H929 H 0.44416 0.11399 0.2606 0.0
H930 H 0.42849 0.13511 0.40049 0.0
H931 H 0.44467 0.13361 0.33927 0.0
H932 H 0.40456 0.05064 0.5428 0.0
H933 H 0.41842 0.04754 0.47472 0.0
H934 H 0.38292 0.05756 0.5405 0.0
H935 H 0.3818 0.07843 0.54526 0.0
C936 C 0.90065 0.32867 0.41722 0.0
C937 C 0.90244 0.31394 0.3813 0.0
C938 C 0.92266 0.33618 0.28182 0.0
C939 C 0.92237 0.35125 0.32177 0.0
N940 N 0.91351 0.3627 0.43281 0.0
N941 N 0.91653 0.30371 0.28389 0.0
C942 C 0.91189 0.34773 0.39065 0.0
C943 C 0.9139 0.31772 0.31499 0.0
N944 N 0.8883 0.32445 0.47696 0.0
N945 N 0.93062 0.33937 0.21056 0.0
H946 H 0.90939 0.28962 0.30282 0.0
H947 H 0.92661 0.30623 0.24185 0.0
H948 H 0.93699 0.35269 0.18402 0.0
H949 H 0.92943 0.32857 0.17477 0.0
H950 H 0.88467 0.33409 0.49971 0.0
H951 H 0.88064 0.31087 0.5009 0.0
H952 H 0.908 0.36127 0.48765 0.0
H953 H 0.92173 0.37688 0.4157 0.0
C954 C 0.6755 0.08938 0.29488 0.0
C955 C 0.68099 0.10502 0.34509 0.0
C956 C 0.64804 0.09845 0.34936 0.0
C957 C 0.64224 0.08143 0.30722 0.0
N958 N 0.65002 0.05894 0.25069 0.0
N959 N 0.67245 0.12335 0.4279 0.0
C960 C 0.65585 0.07644 0.28248 0.0
C961 C 0.66727 0.10934 0.37427 0.0
N962 N 0.68909 0.0872 0.25725 0.0
N963 N 0.63535 0.10455 0.36326 0.0
H964 H 0.68644 0.13171 0.4471 0.0
H965 H 0.66268 0.12568 0.45773 0.0
H966 H 0.62123 0.09715 0.34461 0.0
H967 H 0.63922 0.1178 0.38691 0.0
H968 H 0.68591 0.07724 0.2139 0.0
H969 H 0.70368 0.09657 0.26384 0.0
H970 H 0.65925 0.05378 0.2394 0.0
H971 H 0.63573 0.04876 0.24222 0.0
C972 C 0.93393 0.59805 0.37347 0.0
C973 C 0.91988 0.59727 0.32305 0.0
C974 C 0.92789 0.58009 0.22875 0.0
C975 C 0.94085 0.5795 0.28159 0.0
N976 N 0.95332 0.58433 0.41001 0.0
N977 N 0.90102 0.58489 0.20869 0.0
C978 C 0.94317 0.58757 0.35554 0.0
C979 C 0.91605 0.5874 0.25258 0.0
N980 N 0.93849 0.60883 0.43843 0.0
N981 N 0.92755 0.57452 0.15476 0.0
H982 H 0.89222 0.59034 0.22364 0.0
H983 H 0.89628 0.57609 0.16083 0.0
H984 H 0.93635 0.5695 0.13456 0.0
H985 H 0.91989 0.57654 0.11164 0.0
H986 H 0.95019 0.61182 0.4725 0.0
H987 H 0.93132 0.61589 0.4558 0.0
H988 H 0.9538 0.58813 0.46711 0.0
H989 H 0.95982 0.5762 0.40012 0.0
C990 C 0.40162 0.33954 0.25211 0.0
C991 C 0.41633 0.3544 0.29535 0.0
C992 C 0.41292 0.33159 0.39476 0.0
C993 C 0.39699 0.31711 0.35503 0.0
N994 N 0.37483 0.30727 0.24958 0.0
N995 N 0.43437 0.36548 0.41232 0.0
C996 C 0.39091 0.32109 0.28482 0.0
C997 C 0.42169 0.35067 0.36767 0.0
N998 N 0.39844 0.34291 0.17853 0.0
N999 N 0.41961 0.32711 0.45857 0.0
H1000 H 0.441 0.3797 0.39498 0.0
H1001 H 0.43721 0.36392 0.46899 0.0
H1002 H 0.41291 0.31352 0.48279 0.0
H1003 H 0.43248 0.33652 0.48476 0.0
H1004 H 0.38936 0.33224 0.14102 0.0
H1005 H 0.40619 0.35622 0.15238 0.0
H1006 H 0.36835 0.30992 0.20358 0.0
H1007 H 0.36717 0.29323 0.2689 0.0
C1008 C 0.32508 0.92274 0.64907 0.0
C1009 C 0.31 0.91037 0.69814 0.0
C1010 C 0.33271 0.91711 0.80255 0.0
C1011 C 0.34748 0.93086 0.75571 0.0
N1012 N 0.35806 0.94779 0.63605 0.0
N1013 N 0.29867 0.89731 0.82364 0.0
C1014 C 0.34375 0.93399 0.67941 0.0
C1015 C 0.3136 0.90782 0.77533 0.0
N1016 N 0.32165 0.92312 0.57277 0.0
N1017 N 0.33695 0.91296 0.87302 0.0
H1018 H 0.28447 0.89031 0.80601 0.0
H1019 H 0.30015 0.89666 0.88241 0.0
H1020 H 0.35062 0.92012 0.89634 0.0
H1021 H 0.32725 0.90157 0.90635 0.0
H1022 H 0.3323 0.93024 0.53224 0.0
H1023 H 0.30815 0.91497 0.54854 0.0
H1024 H 0.35581 0.95249 0.58387 0.0
H1025 H 0.37224 0.95536 0.65385 0.0
C1026 C 0.06277 0.39862 0.71488 0.0
C1027 C 0.05214 0.40276 0.6616 0.0
C1028 C 0.06174 0.38901 0.5578 0.0
C1029 C 0.07164 0.38412 0.61168 0.0
N1030 N 0.07926 0.38121 0.74219 0.0
N1031 N 0.03957 0.40032 0.53446 0.0
C1032 C 0.07156 0.38812 0.69048 0.0
C1033 C 0.05094 0.39736 0.58372 0.0
N1034 N 0.06452 0.40484 0.78866 0.0
N1035 N 0.06345 0.38652 0.4815 0.0
H1036 H 0.03253 0.40765 0.5495 0.0
H1037 H 0.03618 0.3946 0.47969 0.0
H1038 H 0.07114 0.38032 0.46041 0.0
H1039 H 0.05847 0.39177 0.43852 0.0
H1040 H 0.07393 0.40439 0.82793 0.0
H1041 H 0.05728 0.41148 0.80998 0.0
H1042 H 0.07793 0.38182 0.80106 0.0
H1043 H 0.08579 0.37341 0.72634 0.0
C1044 C 0.57396 0.65427 0.58732 0.0
C1045 C 0.57627 0.64885 0.66188 0.0
C1046 C 0.5945 0.68233 0.70106 0.0
C1047 C 0.59226 0.68775 0.62638 0.0
N1048 N 0.57756 0.67956 0.50216 0.0
N1049 N 0.58587 0.65685 0.79317 0.0
C1050 C 0.58118 0.6739 0.5707 0.0
C1051 C 0.5856 0.66264 0.71999 0.0
N1052 N 0.56525 0.64064 0.5321 0.0
N1053 N 0.6055 0.69607 0.75319 0.0
H1054 H 0.58015 0.64256 0.80842 0.0
H1055 H 0.59067 0.66597 0.83998 0.0
H1056 H 0.6112 0.71062 0.74305 0.0
H1057 H 0.60972 0.69325 0.80537 0.0
H1058 H 0.56504 0.64364 0.47448 0.0
H1059 H 0.55884 0.62606 0.54325 0.0
H1060 H 0.56804 0.67024 0.4618 0.0
H1061 H 0.58315 0.69385 0.48728 0.0
C1062 C 0.33094 0.41761 0.73089 0.0
C1063 C 0.34507 0.42925 0.6771 0.0
C1064 C 0.3204 0.42426 0.5841 0.0
C1065 C 0.30645 0.41078 0.63436 0.0
N1066 N 0.29786 0.39406 0.75483 0.0
N1067 N 0.35387 0.44269 0.55061 0.0
C1068 C 0.31155 0.40733 0.70773 0.0
C1069 C 0.33999 0.43256 0.60347 0.0
N1070 N 0.33608 0.4169 0.80469 0.0
N1071 N 0.31491 0.42902 0.51769 0.0
H1072 H 0.36839 0.44914 0.56274 0.0
H1073 H 0.35113 0.44365 0.49323 0.0
H1074 H 0.30074 0.42259 0.49992 0.0
H1075 H 0.32417 0.44027 0.48275 0.0
H1076 H 0.32638 0.41022 0.84884 0.0
H1077 H 0.35019 0.42445 0.8235 0.0
H1078 H 0.30087 0.38909 0.8047 0.0
H1079 H 0.28333 0.38725 0.74238 0.0
C1080 C 0.59868 0.92411 0.58712 0.0
C1081 C 0.59164 0.90559 0.61802 0.0
C1082 C 0.5682 0.90914 0.69379 0.0
C1083 C 0.57418 0.92699 0.65805 0.0
N1084 N 0.59242 0.9497 0.55918 0.0
N1085 N 0.56746 0.87888 0.68889 0.0
C1086 C 0.58864 0.93397 0.60131 0.0
C1087 C 0.57571 0.89762 0.66788 0.0
N1088 N 0.61547 0.93271 0.54741 0.0
N1089 N 0.5561 0.90361 0.75496 0.0
H1090 H 0.57248 0.86995 0.67039 0.0
H1091 H 0.55463 0.87174 0.71864 0.0
H1092 H 0.55061 0.91184 0.77706 0.0
H1093 H 0.5529 0.89173 0.78833 0.0
H1094 H 0.62236 0.947 0.53125 0.0
H1095 H 0.6235 0.92615 0.53658 0.0
H1096 H 0.60123 0.95408 0.51128 0.0
H1097 H 0.58541 0.95739 0.56746 0.0
C1098 C 0.08362 0.6508 0.71929 0.0
C1099 C 0.07911 0.63778 0.65807 0.0
C1100 C 0.09533 0.66424 0.56743 0.0
C1101 C 0.0978 0.67712 0.62702 0.0
N1102 N 0.09495 0.68347 0.7594 0.0
N1103 N 0.08032 0.63133 0.52448 0.0
C1104 C 0.09229 0.67063 0.70313 0.0
C1105 C 0.08504 0.6443 0.58232 0.0
N1106 N 0.07953 0.64414 0.79267 0.0
N1107 N 0.10281 0.67113 0.49676 0.0
H1108 H 0.07379 0.61667 0.53397 0.0
H1109 H 0.08211 0.63487 0.46681 0.0
H1110 H 0.1099 0.68563 0.48342 0.0
H1111 H 0.10318 0.66276 0.45251 0.0
H1112 H 0.08401 0.65283 0.84078 0.0
H1113 H 0.07254 0.62967 0.80625 0.0
H1114 H 0.08927 0.6797 0.81408 0.0
H1115 H 0.10243 0.69819 0.75069 0.0
C1116 C 0.12254 0.32955 0.77437 0.0
C1117 C 0.11088 0.32768 0.71055 0.0
C1118 C 0.08415 0.29938 0.76841 0.0
C1119 C 0.09623 0.30038 0.82898 0.0
N1120 N 0.12786 0.3139 0.88175 0.0
N1121 N 0.08212 0.30817 0.63837 0.0
C1122 C 0.11574 0.31471 0.82955 0.0
C1123 C 0.09213 0.31179 0.70502 0.0
N1124 N 0.13962 0.34591 0.78477 0.0
N1125 N 0.06489 0.28726 0.77293 0.0
H1126 H 0.0876 0.31661 0.5898 0.0
H1127 H 0.0692 0.2957 0.62873 0.0
H1128 H 0.05831 0.27817 0.81909 0.0
H1129 H 0.05525 0.28754 0.73436 0.0
H1130 H 0.14771 0.34883 0.83434 0.0
H1131 H 0.14492 0.35743 0.74726 0.0
H1132 H 0.1426 0.32281 0.87983 0.0
H1133 H 0.12339 0.30313 0.92264 0.0
C1134 C 0.67521 0.76647 0.83927 0.0
C1135 C 0.67154 0.77334 0.90786 0.0
C1136 C 0.64663 0.77701 0.84461 0.0
C1137 C 0.65119 0.7714 0.77448 0.0
N1138 N 0.67195 0.76392 0.70184 0.0
N1139 N 0.65649 0.78844 0.97382 0.0
C1140 C 0.66608 0.76699 0.7709 0.0
C1141 C 0.65806 0.77961 0.90994 0.0
N1142 N 0.68695 0.75886 0.83999 0.0
N1143 N 0.63078 0.77883 0.84998 0.0
H1144 H 0.66455 0.79046 0.02303 0.0
H1145 H 0.64846 0.79523 0.97584 0.0
H1146 H 0.62173 0.77663 0.80406 0.0
H1147 H 0.62557 0.78082 0.90147 0.0
H1148 H 0.68841 0.75154 0.79406 0.0
H1149 H 0.69418 0.75857 0.8887 0.0
H1150 H 0.68409 0.76277 0.69462 0.0
H1151 H 0.66565 0.76417 0.65043 0.0
C1152 C 0.20075 0.87786 0.9082 0.0
C1153 C 0.20769 0.89777 0.9054 0.0
C1154 C 0.22228 0.89957 0.78105 0.0
C1155 C 0.21751 0.88022 0.78846 0.0
N1156 N 0.20481 0.85169 0.86565 0.0
N1157 N 0.22788 0.92827 0.84578 0.0
C1158 C 0.20734 0.86949 0.85363 0.0
C1159 C 0.21918 0.90883 0.84351 0.0
N1160 N 0.18745 0.86684 0.96164 0.0
N1161 N 0.22915 0.90897 0.7134 0.0
H1162 H 0.22632 0.93561 0.89136 0.0
H1163 H 0.23809 0.93714 0.80622 0.0
H1164 H 0.23118 0.90258 0.6655 0.0
H1165 H 0.23095 0.92241 0.70233 0.0
H1166 H 0.18035 0.85199 0.96117 0.0
H1167 H 0.18216 0.87244 0.00224 0.0
H1168 H 0.19928 0.84407 0.9161 0.0
H1169 H 0.20987 0.8452 0.82841 0.0
C1170 C 0.31859 0.11233 0.1384 0.0
C1171 C 0.30403 0.09288 0.14454 0.0
C1172 C 0.31651 0.09056 0.26872 0.0
C1173 C 0.33157 0.1097 0.2612 0.0
N1174 N 0.3498 0.137 0.18005 0.0
N1175 N 0.29319 0.0622 0.20308 0.0
C1176 C 0.33345 0.12009 0.19344 0.0
C1177 C 0.30417 0.08161 0.2061 0.0
N1178 N 0.318 0.12364 0.08185 0.0
N1179 N 0.31343 0.08109 0.33644 0.0
H1180 H 0.28497 0.05509 0.15557 0.0
H1181 H 0.29406 0.05315 0.2431 0.0
H1182 H 0.32203 0.08701 0.38418 0.0
H1183 H 0.30131 0.06795 0.34728 0.0
H1184 H 0.32678 0.13841 0.08106 0.0
H1185 H 0.30796 0.11858 0.03827 0.0
H1186 H 0.35281 0.14423 0.12816 0.0
H1187 H 0.36129 0.14283 0.21777 0.0
C1188 C 0.86303 0.21856 0.21096 0.0
C1189 C 0.86955 0.23839 0.21083 0.0
C1190 C 0.88562 0.24172 0.08871 0.0
C1191 C 0.88148 0.22252 0.0948 0.0
N1192 N 0.86875 0.19346 0.16868 0.0
N1193 N 0.88891 0.2695 0.15412 0.0
C1194 C 0.87075 0.21108 0.15756 0.0
C1195 C 0.88127 0.25016 0.15072 0.0
N1196 N 0.84903 0.20677 0.26059 0.0
N1197 N 0.89308 0.2517 0.02264 0.0
H1198 H 0.88588 0.27633 0.19767 0.0
H1199 H 0.89947 0.27893 0.11692 0.0
H1200 H 0.8962 0.24598 0.97529 0.0
H1201 H 0.89442 0.26497 0.01198 0.0
H1202 H 0.84237 0.19195 0.25802 0.0
H1203 H 0.84264 0.21169 0.29908 0.0
H1204 H 0.86274 0.18538 0.21777 0.0
H1205 H 0.87476 0.18766 0.13265 0.0
C1206 C 0.77437 0.67715 0.27828 0.0
C1207 C 0.77933 0.66271 0.26982 0.0
C1208 C 0.79569 0.67721 0.1498 0.0
C1209 C 0.78865 0.69006 0.15348 0.0
N1210 N 0.76943 0.70107 0.21647 0.0
N1211 N 0.79173 0.64695 0.19063 0.0
C1212 C 0.77756 0.6898 0.21663 0.0
C1213 C 0.78929 0.66223 0.20391 0.0
N1214 N 0.76724 0.67921 0.34607 0.0
N1215 N 0.80891 0.67963 0.09579 0.0
H1216 H 0.7866 0.63527 0.22719 0.0
H1217 H 0.7971 0.64494 0.13962 0.0
H1218 H 0.81419 0.69067 0.05593 0.0
H1219 H 0.81605 0.67192 0.09543 0.0
H1220 H 0.76536 0.69075 0.35839 0.0
H1221 H 0.76477 0.67034 0.39282 0.0
H1222 H 0.75926 0.69973 0.25617 0.0
H1223 H 0.77174 0.71085 0.17331 0.0
C1224 C 0.87861 0.6617 0.10403 0.0
C1225 C 0.8915 0.66297 0.04621 0.0
C1226 C 0.8973 0.64002 0.11493 0.0
C1227 C 0.88362 0.63794 0.17027 0.0
N1228 N 0.85854 0.64376 0.21065 0.0
N1229 N 0.90976 0.65033 0.9873 0.0
C1230 C 0.87345 0.64788 0.16277 0.0
C1231 C 0.89989 0.65125 0.04896 0.0
N1232 N 0.87201 0.67428 0.10497 0.0
N1233 N 0.9083 0.63182 0.12672 0.0
H1234 H 0.91152 0.65798 0.93712 0.0
H1235 H 0.91458 0.64062 0.98286 0.0
H1236 H 0.90681 0.62349 0.17444 0.0
H1237 H 0.91994 0.63456 0.09266 0.0
H1238 H 0.86438 0.67549 0.15038 0.0
H1239 H 0.8754 0.6846 0.06306 0.0
H1240 H 0.84921 0.64895 0.2028 0.0
H1241 H 0.85445 0.6338 0.25464 0.0
C1242 C 0.33929 0.2406 0.06831 0.0
C1243 C 0.3237 0.22177 0.07779 0.0
C1244 C 0.33738 0.21885 0.19829 0.0
C1245 C 0.35164 0.23834 0.19313 0.0
N1246 N 0.36479 0.26869 0.12868 0.0
N1247 N 0.306 0.19422 0.15875 0.0
C1248 C 0.35229 0.24948 0.12949 0.0
C1249 C 0.32224 0.21118 0.14456 0.0
N1250 N 0.34214 0.24978 -7e-05 0.0
N1251 N 0.33863 0.20751 0.25312 0.0
H1252 H 0.29426 0.18835 0.12228 0.0
H1253 H 0.3034 0.18692 0.21032 0.0
H1254 H 0.34977 0.21254 0.2925 0.0
H1255 H 0.32974 0.19276 0.25469 0.0
H1256 H 0.35443 0.26259 0.98696 0.0
H1257 H 0.33308 0.24383 0.95339 0.0
H1258 H 0.36426 0.2779 0.08851 0.0
H1259 H 0.37479 0.27576 0.17163 0.0
C1260 C 0.7942 0.1216 0.14791 0.0
C1261 C 0.78085 0.10522 0.10648 0.0
C1262 C 0.75849 0.09579 0.21343 0.0
C1263 C 0.77071 0.11336 0.2503 0.0
N1264 N 0.79875 0.1447 0.24542 0.0
N1265 N 0.7485 0.07914 0.09318 0.0
C1266 C 0.78821 0.12677 0.21567 0.0
C1267 C 0.76248 0.09297 0.13736 0.0
N1268 N 0.81279 0.13177 0.12474 0.0
N1269 N 0.74344 0.08147 0.25188 0.0
H1270 H 0.75048 0.07717 0.03588 0.0
H1271 H 0.73436 0.07109 0.11092 0.0
H1272 H 0.74046 0.0826 0.30896 0.0
H1273 H 0.73524 0.06775 0.22979 0.0
H1274 H 0.82347 0.14264 0.15727 0.0
H1275 H 0.81798 0.12815 0.07695 0.0
H1276 H 0.81058 0.15562 0.2178 0.0
H1277 H 0.79466 0.14924 0.29389 0.0
C1278 C 0.66552 0.87328 0.85809 0.0
C1279 C 0.66853 0.88442 0.7915 0.0
C1280 C 0.69972 0.90902 0.83958 0.0
C1281 C 0.69598 0.89864 0.90892 0.0
N1282 N 0.67573 0.87125 0.98646 0.0
N1283 N 0.68785 0.91278 0.71725 0.0
C1284 C 0.67901 0.88082 0.91869 0.0
C1285 C 0.6855 0.90224 0.78168 0.0
N1286 N 0.6498 0.85545 0.86298 0.0
N1287 N 0.71691 0.9253 0.82904 0.0
H1288 H 0.67848 0.9077 0.67106 0.0
H1289 H 0.69861 0.92686 0.71011 0.0
H1290 H 0.72731 0.93132 0.87134 0.0
H1291 H 0.72149 0.93245 0.77724 0.0
H1292 H 0.64767 0.84566 0.90571 0.0
H1293 H 0.63912 0.84985 0.82161 0.0
H1294 H 0.66279 0.85943 0.00155 0.0
H1295 H 0.68588 0.87556 0.0298 0.0
C1296 C 0.13104 0.7778 0.82087 0.0
C1297 C 0.11722 0.76353 0.77244 0.0
C1298 C 0.0926 0.75608 0.86889 0.0
C1299 C 0.1059 0.77191 0.91282 0.0
N1300 N 0.13684 0.80046 0.92163 0.0
N1301 N 0.08406 0.74181 0.74337 0.0
C1302 C 0.12489 0.78352 0.88644 0.0
C1303 C 0.09775 0.75339 0.79444 0.0
N1304 N 0.15005 0.78537 0.80625 0.0
N1305 N 0.07531 0.74317 0.89916 0.0
H1306 H 0.08712 0.73995 0.68726 0.0
H1307 H 0.06951 0.73564 0.75424 0.0
H1308 H 0.07121 0.74419 0.9546 0.0
H1309 H 0.06588 0.73039 0.87221 0.0
H1310 H 0.16067 0.79443 0.8441 0.0
H1311 H 0.15524 0.7811 0.76039 0.0
H1312 H 0.15016 0.81031 0.89972 0.0
H1313 H 0.13273 0.80563 0.96804 0.0
C1314 C 0.21872 0.31625 0.79694 0.0
C1315 C 0.20877 0.31655 0.863 0.0
C1316 C 0.20809 0.34459 0.81494 0.0
C1317 C 0.21713 0.34369 0.74692 0.0
N1318 N 0.22759 0.32653 0.66606 0.0
N1319 N 0.19019 0.32802 0.92788 0.0
C1320 C 0.22147 0.3289 0.73584 0.0
C1321 C 0.20231 0.32984 0.86995 0.0
N1322 N 0.22616 0.30438 0.79373 0.0
N1323 N 0.20587 0.35998 0.82883 0.0
H1324 H 0.18548 0.31725 0.9689 0.0
H1325 H 0.18336 0.33599 0.93113 0.0
H1326 H 0.21018 0.37129 0.79065 0.0
H1327 H 0.2013 0.36241 0.88105 0.0
H1328 H 0.23555 0.30518 0.75133 0.0
H1329 H 0.22409 0.2946 0.8366 0.0
H1330 H 0.22896 0.31478 0.65206 0.0
H1331 H 0.22968 0.33542 0.61961 0.0
C1332 C 0.00902 0.46042 0.49923 0.0
C1333 C 0.0013 0.448 0.56293 0.0
C1334 C 0.97093 0.42942 0.4956 0.0
C1335 C 0.97936 0.44045 0.42899 0.0
N1336 N 0.00681 0.46521 0.36366 0.0
N1337 N 0.97553 0.42001 0.62156 0.0
C1338 C -0.00155 0.45578 0.42994 0.0
C1339 C 0.98242 0.43229 0.561 0.0
N1340 N 0.02649 0.47658 0.50481 0.0
N1341 N 0.95174 0.41679 0.49734 0.0
H1342 H 0.98302 0.42238 0.67251 0.0
H1343 H 0.96287 0.40697 0.61997 0.0
H1344 H 0.94275 0.41465 0.45118 0.0
H1345 H 0.94436 0.4097 0.54645 0.0
H1346 H 0.0319 0.48733 0.46383 0.0
H1347 H 0.03516 0.47997 0.55296 0.0
H1348 H 0.02129 0.47503 0.35844 0.0
H1349 H -0.00044 0.4622 0.31177 0.0
C1350 C 0.58582 0.56157 0.50527 0.0
C1351 C 0.574 0.54883 0.4477 0.0
C1352 C 0.54585 0.54695 0.50796 0.0
C1353 C 0.55744 0.55842 0.56901 0.0
N1354 N 0.58783 0.57355 0.63368 0.0
N1355 N 0.54255 0.52645 0.40138 0.0
C1356 C 0.57728 0.5649 0.56989 0.0
C1357 C 0.55393 0.54066 0.45105 0.0
N1358 N 0.6052 0.57093 0.49705 0.0
N1359 N 0.52734 0.54277 0.50235 0.0
H1360 H 0.54798 0.5214 0.35913 0.0
H1361 H 0.52777 0.51848 0.40641 0.0
H1362 H 0.52104 0.5475 0.54195 0.0
H1363 H 0.51879 0.5362 0.45491 0.0
H1364 H 0.6145 0.58192 0.53296 0.0
H1365 H 0.61196 0.56887 0.45037 0.0
H1366 H 0.6019 0.57679 0.64064 0.0
H1367 H 0.582 0.57585 0.68288 0.0
C1368 C 0.44078 0.992 0.57157 0.0
C1369 C 0.43557 0.99568 0.64399 0.0
C1370 C 0.44211 0.02708 0.59972 0.0
C1371 C 0.44992 0.02443 0.53121 0.0
N1372 N 0.45958 0.00532 0.45778 0.0
N1373 N 0.4331 0.01747 0.73085 0.0
C1374 C 0.44999 0.00712 0.5185 0.0
C1375 C 0.43664 0.01339 0.65913 0.0
N1376 N 0.43629 0.97386 0.55239 0.0
N1377 N 0.4391 0.04217 0.60707 0.0
H1378 H 0.4285 0.00764 0.77525 0.0
H1379 H 0.43603 0.03101 0.7477 0.0
H1380 H 0.44263 0.05249 0.56498 0.0
H1381 H 0.43141 0.04352 0.65195 0.0
H1382 H 0.43803 0.96997 0.49759 0.0
H1383 H 0.42881 0.96228 0.58891 0.0
H1384 H 0.46182 0.99381 0.45108 0.0
H1385 H 0.46696 0.01607 0.41797 0.0
C1386 C 0.53494 0.98429 0.46899 0.0
C1387 C 0.54321 0.97253 0.4759 0.0
C1388 C 0.5603 0.98511 0.35509 0.0
C1389 C 0.55388 0.9985 0.35321 0.0
N1390 N 0.53643 0.01219 0.41134 0.0
N1391 N 0.56503 0.96266 0.42989 0.0
C1392 C 0.54145 0.99839 0.41068 0.0
C1393 C 0.55615 0.97309 0.41986 0.0
N1394 N 0.52037 0.9815 0.51653 0.0
N1395 N 0.56976 0.98341 0.29359 0.0
H1396 H 0.562 0.95326 0.4753 0.0
H1397 H 0.57636 0.96428 0.3963 0.0
H1398 H 0.57283 0.9918 0.24467 0.0
H1399 H 0.57302 0.97256 0.28787 0.0
H1400 H 0.51233 0.98817 0.50933 0.0
H1401 H 0.51508 0.97114 0.55929 0.0
H1402 H 0.52938 0.01429 0.45674 0.0
H1403 H 0.54045 0.0225 0.36884 0.0
C1404 C 0.9847 0.53474 0.4703 0.0
C1405 C 0.99477 0.53976 0.4 0.0
C1406 C 0.0249 0.55092 0.46832 0.0
C1407 C 0.01506 0.54782 0.53872 0.0
N1408 N 0.98606 0.53928 0.60743 0.0
N1409 N 0.02449 0.55458 0.33096 0.0
C1410 C 0.99505 0.54031 0.54001 0.0
C1411 C 0.01489 0.54831 0.3986 0.0
N1412 N 0.96522 0.52413 0.4704 0.0
N1413 N 0.04368 0.55577 0.4681 0.0
H1414 H 0.01762 0.55272 0.27865 0.0
H1415 H 0.03926 0.5629 0.32715 0.0
H1416 H 0.05149 0.5578 0.51796 0.0
H1417 H 0.05108 0.55619 0.41888 0.0
H1418 H 0.95716 0.51827 0.51961 0.0
H1419 H 0.95713 0.51969 0.42045 0.0
H1420 H 0.97191 0.53599 0.61087 0.0
H1421 H 0.99315 0.54327 0.65975 0.0
C1422 C 0.41754 0.44153 0.36824 0.0
C1423 C 0.43507 0.44157 0.37068 0.0
C1424 C 0.44005 0.45304 0.50284 0.0
C1425 C 0.42356 0.45487 0.49737 0.0
N1426 N 0.39785 0.45328 0.4221 0.0
N1427 N 0.46468 0.45037 0.4355 0.0
C1428 C 0.41274 0.44996 0.42902 0.0
C1429 C 0.44676 0.44804 0.43683 0.0
N1430 N 0.40495 0.43245 0.30999 0.0
N1431 N 0.44934 0.45606 0.57107 0.0
H1432 H 0.47031 0.4471 0.38829 0.0
H1433 H 0.47467 0.45717 0.47867 0.0
H1434 H 0.44558 0.46074 0.61992 0.0
H1435 H 0.45994 0.45262 0.58083 0.0
H1436 H 0.39113 0.43022 0.30917 0.0
H1437 H 0.40755 0.42537 0.26608 0.0
H1438 H 0.39089 0.45209 0.37065 0.0
H1439 H 0.39327 0.45859 0.46648 0.0
C1440 C 0.10442 0.33385 0.21839 0.0
C1441 C 0.08565 0.3181 0.21041 0.0
C1442 C 0.07907 0.32069 0.34506 0.0
C1443 C 0.09763 0.33675 0.35231 0.0
N1444 N 0.12641 0.36129 0.29341 0.0
N1445 N 0.05379 0.29922 0.25974 0.0
C1446 C 0.10977 0.34425 0.28797 0.0
C1447 C 0.07256 0.3123 0.27198 0.0
N1448 N 0.1175 0.33815 0.16139 0.0
N1449 N 0.06779 0.3133 0.40825 0.0
H1450 H 0.04854 0.29324 0.20623 0.0
H1451 H 0.04314 0.29565 0.30031 0.0
H1452 H 0.07163 0.31974 0.4619 0.0
H1453 H 0.0551 0.30029 0.40854 0.0
H1454 H 0.13196 0.348 0.16752 0.0
H1455 H 0.11431 0.33078 0.10975 0.0
H1456 H 0.13489 0.36847 0.24652 0.0
H1457 H 0.13091 0.36915 0.34384 0.0
C1458 C 0.6512 0.76805 0.33795 0.0
C1459 C 0.65434 0.76083 0.40667 0.0
C1460 C 0.67909 0.75657 0.34479 0.0
C1461 C 0.67511 0.76263 0.27461 0.0
N1462 N 0.65535 0.77124 0.20088 0.0
N1463 N 0.66856 0.74502 0.47343 0.0
C1464 C 0.6606 0.76759 0.2702 0.0
C1465 C 0.6675 0.75414 0.40949 0.0
N1466 N 0.63972 0.77597 0.33802 0.0
N1467 N 0.69454 0.75407 0.35074 0.0
H1468 H 0.66036 0.74306 0.52213 0.0
H1469 H 0.67632 0.73795 0.47601 0.0
H1470 H 0.70355 0.75592 0.30504 0.0
H1471 H 0.69943 0.75178 0.40241 0.0
H1472 H 0.63869 0.7836 0.29225 0.0
H1473 H 0.63222 0.77614 0.38608 0.0
H1474 H 0.64346 0.77278 0.19274 0.0
H1475 H 0.66193 0.77117 0.14999 0.0
C1476 C 0.22795 0.88509 0.29696 0.0
C1477 C 0.23101 0.90393 0.29144 0.0
C1478 C 0.24045 0.90963 0.42617 0.0
C1479 C 0.2379 0.891 0.43092 0.0
N1480 N 0.23329 0.8625 0.36813 0.0
N1481 N 0.24364 0.93538 0.34494 0.0
C1482 C 0.23307 0.87926 0.36523 0.0
C1483 C 0.23826 0.91658 0.35447 0.0
N1484 N 0.21903 0.87238 0.2389 0.0
N1485 N 0.24475 0.92059 0.49052 0.0
H1486 H 0.2424 0.94096 0.29296 0.0
H1487 H 0.25079 0.94579 0.38632 0.0
H1488 H 0.2479 0.91658 0.54265 0.0
H1489 H 0.24438 0.93324 0.49332 0.0
H1490 H 0.21441 0.85788 0.24317 0.0
H1491 H 0.21467 0.87588 0.18845 0.0
H1492 H 0.23187 0.85431 0.32012 0.0
H1493 H 0.23659 0.85758 0.41753 0.0
C1494 C 0.34007 0.11161 0.69004 0.0
C1495 C 0.33198 0.10183 0.62058 0.0
C1496 C 0.30077 0.08383 0.68209 0.0
C1497 C 0.30905 0.09279 0.75252 0.0
N1498 N 0.33756 0.11084 0.8278 0.0
N1499 N 0.30631 0.07459 0.55768 0.0
C1500 C 0.32903 0.10533 0.75788 0.0
C1501 C 0.31284 0.08662 0.61896 0.0
N1502 N 0.35778 0.1275 0.69109 0.0
N1503 N 0.28141 0.07357 0.67371 0.0
H1504 H 0.31512 0.0757 0.51221 0.0
H1505 H 0.29294 0.06229 0.55637 0.0
H1506 H 0.2719 0.07177 0.71736 0.0
H1507 H 0.27478 0.06847 0.62111 0.0
H1508 H 0.36327 0.13632 0.73872 0.0
H1509 H 0.36641 0.1329 0.643 0.0
H1510 H 0.35231 0.11852 0.83496 0.0
H1511 H 0.33005 0.10597 0.87896 0.0
C1512 C 0.89883 0.22149 0.67596 0.0
C1513 C 0.90306 0.23378 0.73965 0.0
C1514 C 0.90007 0.25696 0.65949 0.0
C1515 C 0.89312 0.24345 0.59916 0.0
N1516 N 0.88328 0.21174 0.55297 0.0
N1517 N 0.90738 0.26299 0.79436 0.0
C1518 C 0.89201 0.22549 0.60773 0.0
C1519 C 0.90363 0.25149 0.73199 0.0
N1520 N 0.90118 0.20594 0.68068 0.0
N1521 N 0.90391 0.2752 0.64666 0.0
H1522 H 0.91156 0.26019 0.84685 0.0
H1523 H 0.90553 0.27482 0.79518 0.0
H1524 H 0.90173 0.2798 0.59398 0.0
H1525 H 0.91081 0.28624 0.68589 0.0
H1526 H 0.90018 0.1976 0.63373 0.0
H1527 H 0.90592 0.20238 0.72986 0.0
H1528 H 0.88009 0.19768 0.56007 0.0
H1529 H 0.87753 0.21379 0.50305 0.0
C1530 C 0.75445 0.67196 0.70986 0.0
C1531 C 0.76362 0.66791 0.76991 0.0
C1532 C 0.76472 0.64343 0.69137 0.0
C1533 C 0.75807 0.6494 0.62824 0.0
N1534 N 0.74703 0.66957 0.57473 0.0
N1535 N 0.77982 0.6516 0.81556 0.0
C1536 C 0.75299 0.6637 0.63679 0.0
C1537 C 0.76917 0.65394 0.76058 0.0
N1538 N 0.74666 0.68326 0.72349 0.0
N1539 N 0.76694 0.62782 0.68505 0.0
H1540 H 0.7838 0.65925 0.86656 0.0
H1541 H 0.78619 0.64329 0.80801 0.0
H1542 H 0.76426 0.62002 0.63472 0.0
H1543 H 0.7698 0.62158 0.73136 0.0
H1544 H 0.73816 0.6853 0.68439 0.0
H1545 H 0.74726 0.68932 0.77673 0.0
H1546 H 0.74542 0.68155 0.57483 0.0
H1547 H 0.74454 0.66296 0.52149 0.0
C1548 C 0.89571 0.65577 0.61737 0.0
C1549 C 0.90963 0.65738 0.56392 0.0
C1550 C 0.9351 0.67967 0.64914 0.0
C1551 C 0.92119 0.67683 0.70474 0.0
N1552 N 0.88867 0.65883 0.74911 0.0
N1553 N 0.94252 0.66785 0.53457 0.0
C1554 C 0.9016 0.66391 0.69099 0.0
C1555 C 0.92934 0.66851 0.58132 0.0
N1556 N 0.87693 0.64722 0.59688 0.0
N1557 N 0.95369 0.69348 0.65985 0.0
H1558 H 0.93883 0.65961 0.48503 0.0
H1559 H 0.95691 0.67405 0.5484 0.0
H1560 H 0.95845 0.7019 0.70886 0.0
H1561 H 0.96409 0.69764 0.61766 0.0
H1562 H 0.8665 0.6475 0.63075 0.0
H1563 H 0.87199 0.64143 0.54297 0.0
H1564 H 0.87454 0.64795 0.74444 0.0
H1565 H 0.89249 0.66412 0.80449 0.0
C1566 C 0.32958 0.25061 0.7107 0.0
C1567 C 0.31439 0.23154 0.71786 0.0
C1568 C 0.31881 0.22494 0.58543 0.0
C1569 C 0.33353 0.24423 0.57715 0.0
N1570 N 0.3505 0.27636 0.62586 0.0
N1571 N 0.29185 0.20168 0.6593 0.0
C1572 C 0.33823 0.25736 0.63814 0.0
C1573 C 0.30806 0.21911 0.65412 0.0
N1574 N 0.33587 0.26217 0.77354 0.0
N1575 N 0.31591 0.21189 0.52982 0.0
H1576 H 0.28386 0.1967 0.70929 0.0
H1577 H 0.28539 0.19284 0.61246 0.0
H1578 H 0.32371 0.21537 0.47921 0.0
H1579 H 0.30694 0.19726 0.53653 0.0
H1580 H 0.34836 0.27537 0.77443 0.0
H1581 H 0.32908 0.25815 0.82646 0.0
H1582 H 0.35309 0.28693 0.66563 0.0
H1583 H 0.35692 0.28179 0.57311 0.0
C1584 C 0.75895 0.10498 0.76534 0.0
C1585 C 0.7605 0.08832 0.75911 0.0
C1586 C 0.75867 0.08946 0.61958 0.0
C1587 C 0.75581 0.10531 0.62638 0.0
N1588 N 0.74894 0.1255 0.70571 0.0
N1589 N 0.7582 0.06254 0.68236 0.0
C1590 C 0.75469 0.1123 0.69929 0.0
C1591 C 0.7593 0.07992 0.68672 0.0
N1592 N 0.7625 0.11443 0.83343 0.0
N1593 N 0.76157 0.08402 0.54926 0.0
H1594 H 0.75839 0.05504 0.73047 0.0
H1595 H 0.75535 0.05476 0.63194 0.0
H1596 H 0.76126 0.09068 0.49875 0.0
H1597 H 0.76584 0.07396 0.54134 0.0
H1598 H 0.76382 0.12785 0.83895 0.0
H1599 H 0.76583 0.10975 0.8834 0.0
H1600 H 0.74586 0.12956 0.75781 0.0
H1601 H 0.74542 0.13104 0.65874 0.0
C1602 C 0.68778 0.897 0.36079 0.0
C1603 C 0.68079 0.90273 0.29774 0.0
C1604 C 0.65141 0.89403 0.36829 0.0
C1605 C 0.65897 0.88949 0.43284 0.0
N1606 N 0.68621 0.89138 0.49699 0.0
N1607 N 0.65813 0.91105 0.24819 0.0
C1608 C 0.67774 0.89242 0.43107 0.0
C1609 C 0.66325 0.90257 0.30355 0.0
N1610 N 0.70338 0.89484 0.35275 0.0
N1611 N 0.6327 0.88936 0.36712 0.0
H1612 H 0.66668 0.91786 0.20087 0.0
H1613 H 0.64643 0.91304 0.2531 0.0
H1614 H 0.62342 0.88279 0.41275 0.0
H1615 H 0.62592 0.89043 0.3184 0.0
H1616 H 0.70768 0.88857 0.39426 0.0
H1617 H 0.71102 0.89765 0.30208 0.0
H1618 H 0.70057 0.89533 0.50028 0.0
H1619 H 0.67948 0.88848 0.55005 0.0
C1620 C 0.1031 0.77086 0.41601 0.0
C1621 C 0.11026 0.75832 0.40308 0.0
C1622 C 0.10103 0.75543 0.26835 0.0
C1623 C 0.09682 0.77029 0.27897 0.0
N1624 N 0.09294 0.79187 0.3616 0.0
N1625 N 0.11672 0.73882 0.318 0.0
C1626 C 0.09745 0.77782 0.35268 0.0
C1627 C 0.1091 0.75034 0.32979 0.0
N1628 N 0.10131 0.77569 0.48915 0.0
N1629 N 0.09747 0.74634 0.19946 0.0
H1630 H 0.1225 0.73458 0.3618 0.0
H1631 H 0.11843 0.73439 0.26429 0.0
H1632 H 0.09188 0.74994 0.15298 0.0
H1633 H 0.0985 0.73419 0.19003 0.0
H1634 H 0.09464 0.78341 0.50337 0.0
H1635 H 0.10504 0.77051 0.53676 0.0
H1636 H 0.09547 0.7998 0.4114 0.0
H1637 H 0.08719 0.79609 0.31758 0.0
C1638 C 0.20771 0.32322 0.32136 0.0
C1639 C 0.2179 0.33197 0.25349 0.0
C1640 C 0.23437 0.36298 0.31779 0.0
C1641 C 0.22521 0.35398 0.38713 0.0
N1642 N 0.20615 0.32504 0.45887 0.0
N1643 N 0.24329 0.35921 0.18956 0.0
C1644 C 0.21272 0.33394 0.39009 0.0
C1645 C 0.23194 0.35159 0.25242 0.0
N1646 N 0.19269 0.30494 0.31954 0.0
N1647 N 0.24465 0.38244 0.31336 0.0
H1648 H 0.24193 0.35125 0.1407 0.0
H1649 H 0.25511 0.3729 0.18828 0.0
H1650 H 0.24663 0.39132 0.35972 0.0
H1651 H 0.24985 0.38985 0.26231 0.0
H1652 H 0.18334 0.29859 0.36511 0.0
H1653 H 0.18852 0.29657 0.27032 0.0
H1654 H 0.19875 0.31027 0.46528 0.0
H1655 H 0.20956 0.33233 0.51072 0.0
C1656 C 0.98542 0.42799 0.91729 0.0
C1657 C 0.00071 0.42424 0.91278 0.0
C1658 C -0.00115 0.4185 0.05091 0.0
C1659 C 0.98274 0.42105 0.05455 0.0
N1660 N 0.95887 0.42549 0.98993 0.0
N1661 N 0.02048 0.41339 0.97139 0.0
C1662 C 0.9754 0.42484 0.98724 0.0
C1663 C 0.00708 0.41886 0.97862 0.0
N1664 N 0.98116 0.43561 0.85576 0.0
N1665 N 0.00628 0.41573 0.11659 0.0
H1666 H 0.0268 0.41351 0.91934 0.0
H1667 H 0.02432 0.40736 0.0154 0.0
H1668 H -0.00016 0.41392 0.16988 0.0
H1669 H 0.01932 0.41617 0.11918 0.0
H1670 H 0.97171 0.44077 0.85797 0.0
H1671 H 0.98836 0.43843 0.80376 0.0
H1672 H 0.95159 0.42581 0.9415 0.0
H1673 H 0.95155 0.42432 0.04029 0.0
C1674 C 0.57209 0.55945 0.9981 0.0
C1675 C 0.58486 0.57274 0.0524 0.0
C1676 C 0.58956 0.59924 0.96981 0.0
C1677 C 0.5777 0.5859 0.91385 0.0
N1678 N 0.56167 0.5536 0.86639 0.0
N1679 N 0.60899 0.605 0.08278 0.0
C1680 C 0.57017 0.56608 0.92549 0.0
C1681 C 0.59456 0.59258 0.03615 0.0
N1682 N 0.56103 0.54063 0.01698 0.0
N1683 N 0.59538 0.61815 0.96125 0.0
H1684 H 0.61333 0.60059 0.13097 0.0
H1685 H 0.61787 0.61936 0.06975 0.0
H1686 H 0.59201 0.62359 0.91351 0.0
H1687 H 0.60222 0.62823 0.00413 0.0
H1688 H 0.54997 0.53076 0.98269 0.0
H1689 H 0.56162 0.53512 0.06994 0.0
H1690 H 0.55769 0.53923 0.86936 0.0
H1691 H 0.56036 0.55794 0.81175 0.0
C1692 C 0.43318 0.99418 0.14259 0.0
C1693 C 0.44047 0.01417 0.13748 0.0
C1694 C 0.43056 0.01031 0.00384 0.0
C1695 C 0.42689 0.99127 0.0052 0.0
N1696 N 0.42681 0.96551 0.07519 0.0
N1697 N 0.44902 0.04178 0.05792 0.0
C1698 C 0.42857 0.98319 0.07454 0.0
C1699 C 0.43982 0.02242 0.06684 0.0
N1700 N 0.43014 0.98559 0.21239 0.0
N1701 N 0.42483 0.0167 0.9429 0.0
H1702 H 0.45696 0.05136 0.10097 0.0
H1703 H 0.45047 0.0483 0.00512 0.0
H1704 H 0.41698 0.00777 0.89794 0.0
H1705 H 0.42578 0.03002 0.94172 0.0
H1706 H 0.42325 0.97084 0.21933 0.0
H1707 H 0.43256 0.99303 0.26362 0.0
H1708 H 0.43006 0.95995 0.12277 0.0
H1709 H 0.42366 0.95701 0.02665 0.0
C1710 C 0.59003 0.00348 0.88259 0.0
C1711 C 0.57007 0.99256 0.86974 0.0
C1712 C 0.56413 0.9985 0.00114 0.0
C1713 C 0.5839 0.01135 0.01078 0.0
N1714 N 0.61566 0.02801 0.95815 0.0
N1715 N 0.53803 0.98262 0.91212 0.0
C1716 C 0.5969 0.01433 0.95093 0.0
C1717 C 0.55706 0.99081 0.92782 0.0
N1718 N 0.6024 0.00294 0.8309 0.0
N1719 N 0.55214 0.99313 0.06268 0.0
H1720 H 0.53227 0.97736 0.85841 0.0
H1721 H 0.52821 0.98277 0.95012 0.0
H1722 H 0.55689 0.99802 0.11789 0.0
H1723 H 0.53792 0.98234 0.06042 0.0
H1724 H 0.61696 0.00897 0.84095 0.0
H1725 H 0.5979 0.99496 0.78068 0.0
H1726 H 0.62538 0.03232 0.91324 0.0
H1727 H 0.62124 0.03616 0.00748 0.0
C1728 C 0.00702 0.55411 0.92558 0.0
C1729 C 0.01562 0.57291 0.89583 0.0
C1730 C 0.00471 0.58311 0.00749 0.0
C1731 C -0.002 0.56487 0.04094 0.0
N1732 N 0.99574 0.534 0.03781 0.0
N1733 N 0.02538 0.60612 0.9133 0.0
C1734 C -8e-05 0.5506 0.00156 0.0
C1735 C 0.01518 0.58765 0.93798 0.0
N1736 N 0.00502 0.53947 0.88027 0.0
N1737 N 0.00047 0.59583 0.04051 0.0
H1738 H 0.03332 0.61007 0.86293 0.0
H1739 H 0.02733 0.61771 0.94595 0.0
H1740 H 0.9926 0.59294 0.09082 0.0
H1741 H 0.0032 0.60852 0.01446 0.0
H1742 H 0.99712 0.52518 0.89615 0.0
H1743 H 0.00968 0.54141 0.82372 0.0
H1744 H -0.00119 0.52398 0.01478 0.0
H1745 H 0.99086 0.53099 0.09401 0.0
C1746 C 0.44514 0.4267 0.9393 0.0
C1747 C 0.43823 0.42731 0.01286 0.0
C1748 C 0.4195 0.44062 0.95965 0.0
C1749 C 0.42619 0.4398 0.88536 0.0
N1750 N 0.44021 0.42625 0.80281 0.0
N1751 N 0.41423 0.42872 0.08934 0.0
C1752 C 0.43744 0.43103 0.87462 0.0
C1753 C 0.42377 0.43211 0.02168 0.0
N1754 N 0.45924 0.42224 0.93133 0.0
N1755 N 0.41034 0.45067 0.97275 0.0
H1756 H 0.41676 0.42215 0.13535 0.0
H1757 H 0.40237 0.43037 0.09669 0.0
H1758 H 0.40736 0.4578 0.93047 0.0
H1759 H 0.40728 0.45349 0.02736 0.0
H1760 H 0.46648 0.42386 0.88023 0.0
H1761 H 0.46436 0.41783 0.97704 0.0
H1762 H 0.44692 0.41837 0.79214 0.0
H1763 H 0.43393 0.42828 0.75443 0.0
loop_
_geom_bond_atom_site_label_1
_geom_bond_atom_site_label_2
_geom_bond_distance
_geom_bond_site_symmetry_2
_ccdc_geom_bond_type
C0 O1 1.160 . S
C0 O7 1.185 . S
O1 C0 1.160 . S
O2 Zn3 1.899 . S
O2 C10 1.284 . S
Zn3 O2 1.899 . S
Zn3 O4 2.032 1_554 S
Zn3 O7 2.086 . S
Zn3 O12 1.977 . S
O4 Zn3 2.032 1_556 S
O4 C8 1.278 . S
C5 O6 1.203 . S
C5 O12 1.267 . S
O6 C5 1.203 . S
O7 C0 1.185 . S
O7 Zn3 2.086 . S
C8 O4 1.278 . S
C8 O9 1.211 . S
O9 C8 1.211 . S
C10 O2 1.284 . S
C10 O11 1.273 . S
O11 C10 1.273 . S
O12 Zn3 1.977 . S
O12 C5 1.267 . S
C13 O14 1.160 . S
C13 O20 1.185 . S
O14 C13 1.160 . S
O15 Zn16 1.899 . S
O15 C23 1.284 . S
Zn16 O15 1.899 . S
Zn16 O17 2.032 1_554 S
Zn16 O20 2.086 . S
Zn16 O25 1.977 . S
O17 Zn16 2.032 1_556 S
O17 C21 1.278 . S
C18 O19 1.203 . S
C18 O25 1.267 . S
O19 C18 1.203 . S
O20 C13 1.185 . S
O20 Zn16 2.086 . S
C21 O17 1.278 . S
C21 O22 1.211 . S
O22 C21 1.211 . S
C23 O15 1.284 . S
C23 O24 1.273 . S
O24 C23 1.273 . S
O25 Zn16 1.977 . S
O25 C18 1.267 . S
C26 O27 1.160 . S
C26 O33 1.185 . S
O27 C26 1.160 . S
O28 Zn29 1.899 . S
O28 C36 1.284 . S
Zn29 O28 1.899 . S
Zn29 O30 2.032 1_554 S
Zn29 O33 2.086 . S
Zn29 O38 1.977 . S
O30 Zn29 2.032 1_556 S
O30 C34 1.278 . S
C31 O32 1.203 . S
C31 O38 1.267 . S
O32 C31 1.203 . S
O33 C26 1.185 . S
O33 Zn29 2.086 . S
C34 O30 1.278 . S
C34 O35 1.211 . S
O35 C34 1.211 . S
C36 O28 1.284 . S
C36 O37 1.273 . S
O37 C36 1.273 . S
O38 Zn29 1.977 . S
O38 C31 1.267 . S
C39 O40 1.160 . S
C39 O46 1.185 . S
O40 C39 1.160 . S
O41 Zn42 1.899 . S
O41 C49 1.284 . S
Zn42 O41 1.899 . S
Zn42 O43 2.032 1_556 S
Zn42 O46 2.086 . S
Zn42 O51 1.977 . S
O43 Zn42 2.032 1_554 S
O43 C47 1.278 . S
C44 O45 1.203 . S
C44 O51 1.267 . S
O45 C44 1.203 . S
O46 C39 1.185 . S
O46 Zn42 2.086 . S
C47 O43 1.278 . S
C47 O48 1.211 . S
O48 C47 1.211 . S
C49 O41 1.284 . S
C49 O50 1.273 . S
O50 C49 1.273 . S
O51 Zn42 1.977 . S
O51 C44 1.267 . S
C52 O53 1.160 . S
C52 O59 1.185 . S
O53 C52 1.160 . S
O54 Zn55 1.899 . S
O54 C62 1.284 . S
Zn55 O54 1.899 . S
Zn55 O56 2.032 1_556 S
Zn55 O59 2.086 . S
Zn55 O64 1.977 . S
O56 Zn55 2.032 1_554 S
O56 C60 1.278 . S
C57 O58 1.203 . S
C57 O64 1.267 . S
O58 C57 1.203 . S
O59 C52 1.185 . S
O59 Zn55 2.086 . S
C60 O56 1.278 . S
C60 O61 1.211 . S
O61 C60 1.211 . S
C62 O54 1.284 . S
C62 O63 1.273 . S
O63 C62 1.273 . S
O64 Zn55 1.977 . S
O64 C57 1.267 . S
C65 O66 1.160 . S
C65 O72 1.185 . S
O66 C65 1.160 . S
O67 Zn68 1.899 . S
O67 C75 1.284 . S
Zn68 O67 1.899 . S
Zn68 O69 2.032 1_556 S
Zn68 O72 2.086 . S
Zn68 O77 1.977 . S
O69 Zn68 2.032 1_554 S
O69 C73 1.278 . S
C70 O71 1.203 . S
C70 O77 1.267 . S
O71 C70 1.203 . S
O72 C65 1.185 . S
O72 Zn68 2.086 . S
C73 O69 1.278 . S
C73 O74 1.211 . S
O74 C73 1.211 . S
C75 O67 1.284 . S
C75 O76 1.273 . S
O76 C75 1.273 . S
O77 Zn68 1.977 . S
O77 C70 1.267 . S
C78 O79 1.160 . S
C78 O85 1.185 . S
O79 C78 1.160 . S
O80 Zn81 1.899 . S
O80 C88 1.284 . S
Zn81 O80 1.899 . S
Zn81 O82 2.032 1_556 S
Zn81 O85 2.086 . S
Zn81 O90 1.977 . S
O82 Zn81 2.032 1_554 S
O82 C86 1.278 . S
C83 O84 1.203 . S
C83 O90 1.267 . S
O84 C83 1.203 . S
O85 C78 1.185 . S
O85 Zn81 2.086 . S
C86 O82 1.278 . S
C86 O87 1.211 . S
O87 C86 1.211 . S
C88 O80 1.284 . S
C88 O89 1.273 . S
O89 C88 1.273 . S
O90 Zn81 1.977 . S
O90 C83 1.267 . S
C91 O92 1.160 . S
C91 O98 1.185 . S
O92 C91 1.160 . S
O93 Zn94 1.899 . S
O93 C101 1.284 . S
Zn94 O93 1.899 . S
Zn94 O95 2.032 1_556 S
Zn94 O98 2.086 . S
Zn94 O103 1.977 . S
O95 Zn94 2.032 1_554 S
O95 C99 1.278 . S
C96 O97 1.203 . S
C96 O103 1.267 . S
O97 C96 1.203 . S
O98 C91 1.185 . S
O98 Zn94 2.086 . S
C99 O95 1.278 . S
C99 O100 1.211 . S
O100 C99 1.211 . S
C101 O93 1.284 . S
C101 O102 1.273 . S
O102 C101 1.273 . S
O103 Zn94 1.977 . S
O103 C96 1.267 . S
C104 O105 1.160 . S
C104 O111 1.185 . S
O105 C104 1.160 . S
O106 Zn107 1.899 . S
O106 C114 1.284 . S
Zn107 O106 1.899 . S
Zn107 O108 2.032 1_556 S
Zn107 O111 2.086 . S
Zn107 O116 1.977 . S
O108 Zn107 2.032 1_554 S
O108 C112 1.278 . S
C109 O110 1.203 . S
C109 O116 1.267 . S
O110 C109 1.203 . S
O111 C104 1.185 . S
O111 Zn107 2.086 . S
C112 O108 1.278 . S
C112 O113 1.211 . S
O113 C112 1.211 . S
C114 O106 1.284 . S
C114 O115 1.273 . S
O115 C114 1.273 . S
O116 Zn107 1.977 . S
O116 C109 1.267 . S
C117 O118 1.160 . S
C117 O124 1.185 . S
O118 C117 1.160 . S
O119 Zn120 1.899 . S
O119 C127 1.284 . S
Zn120 O119 1.899 . S
Zn120 O121 2.032 1_554 S
Zn120 O124 2.086 . S
Zn120 O129 1.977 . S
O121 Zn120 2.032 1_556 S
O121 C125 1.278 . S
C122 O123 1.203 . S
C122 O129 1.267 . S
O123 C122 1.203 . S
O124 C117 1.185 . S
O124 Zn120 2.086 . S
C125 O121 1.278 . S
C125 O126 1.211 . S
O126 C125 1.211 . S
C127 O119 1.284 . S
C127 O128 1.273 . S
O128 C127 1.273 . S
O129 Zn120 1.977 . S
O129 C122 1.267 . S
C130 O131 1.160 . S
C130 O137 1.185 . S
O131 C130 1.160 . S
O132 Zn133 1.899 . S
O132 C140 1.284 . S
Zn133 O132 1.899 . S
Zn133 O134 2.032 1_554 S
Zn133 O137 2.086 . S
Zn133 O142 1.977 . S
O134 Zn133 2.032 1_556 S
O134 C138 1.278 . S
C135 O136 1.203 . S
C135 O142 1.267 . S
O136 C135 1.203 . S
O137 C130 1.185 . S
O137 Zn133 2.086 . S
C138 O134 1.278 . S
C138 O139 1.211 . S
O139 C138 1.211 . S
C140 O132 1.284 . S
C140 O141 1.273 . S
O141 C140 1.273 . S
O142 Zn133 1.977 . S
O142 C135 1.267 . S
C143 O144 1.160 . S
C143 O150 1.185 . S
O144 C143 1.160 . S
O145 Zn146 1.899 . S
O145 C153 1.284 . S
Zn146 O145 1.899 . S
Zn146 O147 2.032 1_554 S
Zn146 O150 2.086 . S
Zn146 O155 1.977 . S
O147 Zn146 2.032 1_556 S
O147 C151 1.278 . S
C148 O149 1.203 . S
C148 O155 1.267 . S
O149 C148 1.203 . S
O150 C143 1.185 . S
O150 Zn146 2.086 . S
C151 O147 1.278 . S
C151 O152 1.211 . S
O152 C151 1.211 . S
C153 O145 1.284 . S
C153 O154 1.273 . S
O154 C153 1.273 . S
O155 Zn146 1.977 . S
O155 C148 1.267 . S
C156 O157 1.160 . S
C156 O163 1.185 . S
O157 C156 1.160 . S
O158 Zn159 1.899 . S
O158 C166 1.284 . S
Zn159 O158 1.899 . S
Zn159 O160 2.032 . S
Zn159 O163 2.086 . S
Zn159 O168 1.977 . S
O160 Zn159 2.032 . S
O160 C164 1.278 . S
C161 O162 1.203 . S
C161 O168 1.267 . S
O162 C161 1.203 . S
O163 C156 1.185 . S
O163 Zn159 2.086 . S
C164 O160 1.278 . S
C164 O165 1.211 . S
O165 C164 1.211 . S
C166 O158 1.284 . S
C166 O167 1.273 . S
O167 C166 1.273 . S
O168 Zn159 1.977 . S
O168 C161 1.267 . S
C169 O170 1.160 . S
C169 O176 1.185 . S
O170 C169 1.160 . S
O171 Zn172 1.899 . S
O171 C179 1.284 . S
Zn172 O171 1.899 . S
Zn172 O173 2.032 . S
Zn172 O176 2.086 . S
Zn172 O181 1.977 . S
O173 Zn172 2.032 . S
O173 C177 1.278 . S
C174 O175 1.203 . S
C174 O181 1.267 . S
O175 C174 1.203 . S
O176 C169 1.185 . S
O176 Zn172 2.086 . S
C177 O173 1.278 . S
C177 O178 1.211 . S
O178 C177 1.211 . S
C179 O171 1.284 . S
C179 O180 1.273 . S
O180 C179 1.273 . S
O181 Zn172 1.977 . S
O181 C174 1.267 . S
C182 O183 1.160 . S
C182 O189 1.185 . S
O183 C182 1.160 . S
O184 Zn185 1.899 . S
O184 C192 1.284 . S
Zn185 O184 1.899 . S
Zn185 O186 2.032 . S
Zn185 O189 2.086 . S
Zn185 O194 1.977 . S
O186 Zn185 2.032 . S
O186 C190 1.278 . S
C187 O188 1.203 . S
C187 O194 1.267 . S
O188 C187 1.203 . S
O189 C182 1.185 . S
O189 Zn185 2.086 . S
C190 O186 1.278 . S
C190 O191 1.211 . S
O191 C190 1.211 . S
C192 O184 1.284 . S
C192 O193 1.273 . S
O193 C192 1.273 . S
O194 Zn185 1.977 . S
O194 C187 1.267 . S
C195 O196 1.160 . S
C195 O202 1.185 . S
O196 C195 1.160 . S
O197 Zn198 1.899 . S
O197 C205 1.284 . S
Zn198 O197 1.899 . S
Zn198 O199 2.032 . S
Zn198 O202 2.086 . S
Zn198 O207 1.977 . S
O199 Zn198 2.032 . S
O199 C203 1.278 . S
C200 O201 1.203 . S
C200 O207 1.267 . S
O201 C200 1.203 . S
O202 C195 1.185 . S
O202 Zn198 2.086 . S
C203 O199 1.278 . S
C203 O204 1.211 . S
O204 C203 1.211 . S
C205 O197 1.284 . S
C205 O206 1.273 . S
O206 C205 1.273 . S
O207 Zn198 1.977 . S
O207 C200 1.267 . S
C208 O209 1.160 . S
C208 O215 1.185 . S
O209 C208 1.160 . S
O210 Zn211 1.899 . S
O210 C218 1.284 . S
Zn211 O210 1.899 . S
Zn211 O212 2.032 . S
Zn211 O215 2.086 . S
Zn211 O220 1.977 . S
O212 Zn211 2.032 . S
O212 C216 1.278 . S
C213 O214 1.203 . S
C213 O220 1.267 . S
O214 C213 1.203 . S
O215 C208 1.185 . S
O215 Zn211 2.086 . S
C216 O212 1.278 . S
C216 O217 1.211 . S
O217 C216 1.211 . S
C218 O210 1.284 . S
C218 O219 1.273 . S
O219 C218 1.273 . S
O220 Zn211 1.977 . S
O220 C213 1.267 . S
C221 O222 1.160 . S
C221 O228 1.185 . S
O222 C221 1.160 . S
O223 Zn224 1.899 . S
O223 C231 1.284 . S
Zn224 O223 1.899 . S
Zn224 O225 2.032 . S
Zn224 O228 2.086 . S
Zn224 O233 1.977 . S
O225 Zn224 2.032 . S
O225 C229 1.278 . S
C226 O227 1.203 . S
C226 O233 1.267 . S
O227 C226 1.203 . S
O228 C221 1.185 . S
O228 Zn224 2.086 . S
C229 O225 1.278 . S
C229 O230 1.211 . S
O230 C229 1.211 . S
C231 O223 1.284 . S
C231 O232 1.273 . S
O232 C231 1.273 . S
O233 Zn224 1.977 . S
O233 C226 1.267 . S
C234 O235 1.160 . S
C234 O241 1.185 . S
O235 C234 1.160 . S
O236 Zn237 1.899 . S
O236 C244 1.284 . S
Zn237 O236 1.899 . S
Zn237 O238 2.032 . S
Zn237 O241 2.086 . S
Zn237 O246 1.977 . S
O238 Zn237 2.032 . S
O238 C242 1.278 . S
C239 O240 1.203 . S
C239 O246 1.267 . S
O240 C239 1.203 . S
O241 C234 1.185 . S
O241 Zn237 2.086 . S
C242 O238 1.278 . S
C242 O243 1.211 . S
O243 C242 1.211 . S
C244 O236 1.284 . S
C244 O245 1.273 . S
O245 C244 1.273 . S
O246 Zn237 1.977 . S
O246 C239 1.267 . S
C247 O248 1.160 . S
C247 O254 1.185 . S
O248 C247 1.160 . S
O249 Zn250 1.899 . S
O249 C257 1.284 . S
Zn250 O249 1.899 . S
Zn250 O251 2.032 . S
Zn250 O254 2.086 . S
Zn250 O259 1.977 . S
O251 Zn250 2.032 . S
O251 C255 1.278 . S
C252 O253 1.203 . S
C252 O259 1.267 . S
O253 C252 1.203 . S
O254 C247 1.185 . S
O254 Zn250 2.086 . S
C255 O251 1.278 . S
C255 O256 1.211 . S
O256 C255 1.211 . S
C257 O249 1.284 . S
C257 O258 1.273 . S
O258 C257 1.273 . S
O259 Zn250 1.977 . S
O259 C252 1.267 . S
C260 O261 1.160 . S
C260 O267 1.185 . S
O261 C260 1.160 . S
O262 Zn263 1.899 . S
O262 C270 1.284 . S
Zn263 O262 1.899 . S
Zn263 O264 2.032 . S
Zn263 O267 2.086 . S
Zn263 O272 1.977 . S
O264 Zn263 2.032 . S
O264 C268 1.278 . S
C265 O266 1.203 . S
C265 O272 1.267 . S
O266 C265 1.203 . S
O267 C260 1.185 . S
O267 Zn263 2.086 . S
C268 O264 1.278 . S
C268 O269 1.211 . S
O269 C268 1.211 . S
C270 O262 1.284 . S
C270 O271 1.273 . S
O271 C270 1.273 . S
O272 Zn263 1.977 . S
O272 C265 1.267 . S
C273 O274 1.160 . S
C273 O280 1.185 . S
O274 C273 1.160 . S
O275 Zn276 1.899 . S
O275 C283 1.284 . S
Zn276 O275 1.899 . S
Zn276 O277 2.032 . S
Zn276 O280 2.086 . S
Zn276 O285 1.977 . S
O277 Zn276 2.032 . S
O277 C281 1.278 . S
C278 O279 1.203 . S
C278 O285 1.267 . S
O279 C278 1.203 . S
O280 C273 1.185 . S
O280 Zn276 2.086 . S
C281 O277 1.278 . S
C281 O282 1.211 . S
O282 C281 1.211 . S
C283 O275 1.284 . S
C283 O284 1.273 . S
O284 C283 1.273 . S
O285 Zn276 1.977 . S
O285 C278 1.267 . S
C286 O287 1.160 . S
C286 O293 1.185 . S
O287 C286 1.160 . S
O288 Zn289 1.899 . S
O288 C296 1.284 . S
Zn289 O288 1.899 . S
Zn289 O290 2.032 . S
Zn289 O293 2.086 . S
Zn289 O298 1.977 . S
O290 Zn289 2.032 . S
O290 C294 1.278 . S
C291 O292 1.203 . S
C291 O298 1.267 . S
O292 C291 1.203 . S
O293 C286 1.185 . S
O293 Zn289 2.086 . S
C294 O290 1.278 . S
C294 O295 1.211 . S
O295 C294 1.211 . S
C296 O288 1.284 . S
C296 O297 1.273 . S
O297 C296 1.273 . S
O298 Zn289 1.977 . S
O298 C291 1.267 . S
C299 O300 1.160 . S
C299 O306 1.185 . S
O300 C299 1.160 . S
O301 Zn302 1.899 . S
O301 C309 1.284 . S
Zn302 O301 1.899 . S
Zn302 O303 2.032 . S
Zn302 O306 2.086 . S
Zn302 O311 1.977 . S
O303 Zn302 2.032 . S
O303 C307 1.278 . S
C304 O305 1.203 . S
C304 O311 1.267 . S
O305 C304 1.203 . S
O306 C299 1.185 . S
O306 Zn302 2.086 . S
C307 O303 1.278 . S
C307 O308 1.211 . S
O308 C307 1.211 . S
C309 O301 1.284 . S
C309 O310 1.273 . S
O310 C309 1.273 . S
O311 Zn302 1.977 . S
O311 C304 1.267 . S
C312 O313 1.160 . S
C312 O319 1.185 . S
O313 C312 1.160 . S
O314 Zn315 1.899 . S
O314 C322 1.284 . S
Zn315 O314 1.899 . S
Zn315 O316 2.032 . S
Zn315 O319 2.086 . S
Zn315 O324 1.977 . S
O316 Zn315 2.032 . S
O316 C320 1.278 . S
C317 O318 1.203 . S
C317 O324 1.267 . S
O318 C317 1.203 . S
O319 C312 1.185 . S
O319 Zn315 2.086 . S
C320 O316 1.278 . S
C320 O321 1.211 . S
O321 C320 1.211 . S
C322 O314 1.284 . S
C322 O323 1.273 . S
O323 C322 1.273 . S
O324 Zn315 1.977 . S
O324 C317 1.267 . S
C325 O326 1.160 . S
C325 O332 1.185 . S
O326 C325 1.160 . S
O327 Zn328 1.899 . S
O327 C335 1.284 . S
Zn328 O327 1.899 . S
Zn328 O329 2.032 . S
Zn328 O332 2.086 . S
Zn328 O337 1.977 . S
O329 Zn328 2.032 . S
O329 C333 1.278 . S
C330 O331 1.203 . S
C330 O337 1.267 . S
O331 C330 1.203 . S
O332 C325 1.185 . S
O332 Zn328 2.086 . S
C333 O329 1.278 . S
C333 O334 1.211 . S
O334 C333 1.211 . S
C335 O327 1.284 . S
C335 O336 1.273 . S
O336 C335 1.273 . S
O337 Zn328 1.977 . S
O337 C330 1.267 . S
C338 O339 1.160 . S
C338 O345 1.185 . S
O339 C338 1.160 . S
O340 Zn341 1.899 . S
O340 C348 1.284 . S
Zn341 O340 1.899 . S
Zn341 O342 2.032 . S
Zn341 O345 2.086 . S
Zn341 O350 1.977 . S
O342 Zn341 2.032 . S
O342 C346 1.278 . S
C343 O344 1.203 . S
C343 O350 1.267 . S
O344 C343 1.203 . S
O345 C338 1.185 . S
O345 Zn341 2.086 . S
C346 O342 1.278 . S
C346 O347 1.211 . S
O347 C346 1.211 . S
C348 O340 1.284 . S
C348 O349 1.273 . S
O349 C348 1.273 . S
O350 Zn341 1.977 . S
O350 C343 1.267 . S
C351 O352 1.160 . S
C351 O358 1.185 . S
O352 C351 1.160 . S
O353 Zn354 1.899 . S
O353 C361 1.284 . S
Zn354 O353 1.899 . S
Zn354 O355 2.032 . S
Zn354 O358 2.086 . S
Zn354 O363 1.977 . S
O355 Zn354 2.032 . S
O355 C359 1.278 . S
C356 O357 1.203 . S
C356 O363 1.267 . S
O357 C356 1.203 . S
O358 C351 1.185 . S
O358 Zn354 2.086 . S
C359 O355 1.278 . S
C359 O360 1.211 . S
O360 C359 1.211 . S
C361 O353 1.284 . S
C361 O362 1.273 . S
O362 C361 1.273 . S
O363 Zn354 1.977 . S
O363 C356 1.267 . S
C364 O365 1.160 . S
C364 O371 1.185 . S
O365 C364 1.160 . S
O366 Zn367 1.899 . S
O366 C374 1.284 . S
Zn367 O366 1.899 . S
Zn367 O368 2.032 . S
Zn367 O371 2.086 . S
Zn367 O376 1.977 . S
O368 Zn367 2.032 . S
O368 C372 1.278 . S
C369 O370 1.203 . S
C369 O376 1.267 . S
O370 C369 1.203 . S
O371 C364 1.185 . S
O371 Zn367 2.086 . S
C372 O368 1.278 . S
C372 O373 1.211 . S
O373 C372 1.211 . S
C374 O366 1.284 . S
C374 O375 1.273 . S
O375 C374 1.273 . S
O376 Zn367 1.977 . S
O376 C369 1.267 . S
C377 O378 1.160 . S
C377 O384 1.185 . S
O378 C377 1.160 . S
O379 Zn380 1.899 . S
O379 C387 1.284 . S
Zn380 O379 1.899 . S
Zn380 O381 2.032 . S
Zn380 O384 2.086 . S
Zn380 O389 1.977 . S
O381 Zn380 2.032 . S
O381 C385 1.278 . S
C382 O383 1.203 . S
C382 O389 1.267 . S
O383 C382 1.203 . S
O384 C377 1.185 . S
O384 Zn380 2.086 . S
C385 O381 1.278 . S
C385 O386 1.211 . S
O386 C385 1.211 . S
C387 O379 1.284 . S
C387 O388 1.273 . S
O388 C387 1.273 . S
O389 Zn380 1.977 . S
O389 C382 1.267 . S
C390 O391 1.160 . S
C390 O397 1.185 . S
O391 C390 1.160 . S
O392 Zn393 1.899 . S
O392 C400 1.284 . S
Zn393 O392 1.899 . S
Zn393 O394 2.032 . S
Zn393 O397 2.086 . S
Zn393 O402 1.977 . S
O394 Zn393 2.032 . S
O394 C398 1.278 . S
C395 O396 1.203 . S
C395 O402 1.267 . S
O396 C395 1.203 . S
O397 C390 1.185 . S
O397 Zn393 2.086 . S
C398 O394 1.278 . S
C398 O399 1.211 . S
O399 C398 1.211 . S
C400 O392 1.284 . S
C400 O401 1.273 . S
O401 C400 1.273 . S
O402 Zn393 1.977 . S
O402 C395 1.267 . S
C403 O404 1.160 . S
C403 O410 1.185 . S
O404 C403 1.160 . S
O405 Zn406 1.899 . S
O405 C413 1.284 . S
Zn406 O405 1.899 . S
Zn406 O407 2.032 . S
Zn406 O410 2.086 . S
Zn406 O415 1.977 . S
O407 Zn406 2.032 . S
O407 C411 1.278 . S
C408 O409 1.203 . S
C408 O415 1.267 . S
O409 C408 1.203 . S
O410 C403 1.185 . S
O410 Zn406 2.086 . S
C411 O407 1.278 . S
C411 O412 1.211 . S
O412 C411 1.211 . S
C413 O405 1.284 . S
C413 O414 1.273 . S
O414 C413 1.273 . S
O415 Zn406 1.977 . S
O415 C408 1.267 . S
C416 O417 1.160 . S
C416 O423 1.185 . S
O417 C416 1.160 . S
O418 Zn419 1.899 . S
O418 C426 1.284 . S
Zn419 O418 1.899 . S
Zn419 O420 2.032 . S
Zn419 O423 2.086 . S
Zn419 O428 1.977 . S
O420 Zn419 2.032 . S
O420 C424 1.278 . S
C421 O422 1.203 . S
C421 O428 1.267 . S
O422 C421 1.203 . S
O423 C416 1.185 . S
O423 Zn419 2.086 . S
C424 O420 1.278 . S
C424 O425 1.211 . S
O425 C424 1.211 . S
C426 O418 1.284 . S
C426 O427 1.273 . S
O427 C426 1.273 . S
O428 Zn419 1.977 . S
O428 C421 1.267 . S
C429 O430 1.160 . S
C429 O436 1.185 . S
O430 C429 1.160 . S
O431 Zn432 1.899 . S
O431 C439 1.284 . S
Zn432 O431 1.899 . S
Zn432 O433 2.032 . S
Zn432 O436 2.086 . S
Zn432 O441 1.977 . S
O433 Zn432 2.032 . S
O433 C437 1.278 . S
C434 O435 1.203 . S
C434 O441 1.267 . S
O435 C434 1.203 . S
O436 C429 1.185 . S
O436 Zn432 2.086 . S
C437 O433 1.278 . S
C437 O438 1.211 . S
O438 C437 1.211 . S
C439 O431 1.284 . S
C439 O440 1.273 . S
O440 C439 1.273 . S
O441 Zn432 1.977 . S
O441 C434 1.267 . S
C442 O443 1.160 . S
C442 O449 1.185 . S
O443 C442 1.160 . S
O444 Zn445 1.899 . S
O444 C452 1.284 . S
Zn445 O444 1.899 . S
Zn445 O446 2.032 . S
Zn445 O449 2.086 . S
Zn445 O454 1.977 . S
O446 Zn445 2.032 . S
O446 C450 1.278 . S
C447 O448 1.203 . S
C447 O454 1.267 . S
O448 C447 1.203 . S
O449 C442 1.185 . S
O449 Zn445 2.086 . S
C450 O446 1.278 . S
C450 O451 1.211 . S
O451 C450 1.211 . S
C452 O444 1.284 . S
C452 O453 1.273 . S
O453 C452 1.273 . S
O454 Zn445 1.977 . S
O454 C447 1.267 . S
C455 O456 1.160 . S
C455 O462 1.185 . S
O456 C455 1.160 . S
O457 Zn458 1.899 . S
O457 C465 1.284 . S
Zn458 O457 1.899 . S
Zn458 O459 2.032 . S
Zn458 O462 2.086 . S
Zn458 O467 1.977 . S
O459 Zn458 2.032 . S
O459 C463 1.278 . S
C460 O461 1.203 . S
C460 O467 1.267 . S
O461 C460 1.203 . S
O462 C455 1.185 . S
O462 Zn458 2.086 . S
C463 O459 1.278 . S
C463 O464 1.211 . S
O464 C463 1.211 . S
C465 O457 1.284 . S
C465 O466 1.273 . S
O466 C465 1.273 . S
O467 Zn458 1.977 . S
O467 C460 1.267 . S
C468 C469 1.363 . S
C468 C474 1.379 . S
C468 N476 1.356 . S
C469 C468 1.363 . S
C469 C475 1.363 . S
C470 C471 1.363 . S
C470 C475 1.379 . S
C470 N477 1.356 1_554 S
C471 C470 1.363 . S
C471 C474 1.363 . S
N472 C474 1.356 . S
N472 H484 0.984 . S
N472 H485 0.985 . S
N473 C475 1.356 1_556 S
N473 H478 0.982 1_556 S
N473 H479 0.985 . S
C474 C468 1.379 . S
C474 C471 1.363 . S
C474 N472 1.356 . S
C475 C469 1.363 . S
C475 C470 1.379 . S
C475 N473 1.356 1_554 S
N476 C468 1.356 . S
N476 H482 0.984 . S
N476 H483 0.984 . S
N477 C470 1.356 1_556 S
N477 H480 0.981 1_556 S
N477 H481 0.985 . S
H478 N473 0.982 1_554 S
H479 N473 0.985 . S
H480 N477 0.981 1_554 S
H481 N477 0.985 . S
H482 N476 0.984 . S
H483 N476 0.984 . S
H484 N472 0.984 . S
H485 N472 0.985 . S
C486 C487 1.363 . S
C486 C492 1.379 . S
C486 N494 1.356 . S
C487 C486 1.363 . S
C487 C493 1.363 . S
C488 C489 1.363 . S
C488 C493 1.379 . S
C488 N495 1.356 1_554 S
C489 C488 1.363 . S
C489 C492 1.363 . S
N490 C492 1.356 . S
N490 H502 0.984 . S
N490 H503 0.985 . S
N491 C493 1.356 1_556 S
N491 H496 0.984 . S
N491 H497 0.985 . S
C492 C486 1.379 . S
C492 C489 1.363 . S
C492 N490 1.356 . S
C493 C487 1.363 . S
C493 C488 1.379 . S
C493 N491 1.356 1_554 S
N494 C486 1.356 . S
N494 H500 0.984 . S
N494 H501 0.984 . S
N495 C488 1.356 1_556 S
N495 H498 0.984 . S
N495 H499 0.985 . S
H496 N491 0.984 . S
H497 N491 0.985 . S
H498 N495 0.984 . S
H499 N495 0.985 . S
H500 N494 0.984 . S
H501 N494 0.984 . S
H502 N490 0.984 . S
H503 N490 0.985 . S
C504 C505 1.363 . S
C504 C510 1.379 . S
C504 N512 1.356 . S
C505 C504 1.363 . S
C505 C511 1.363 . S
C506 C507 1.363 . S
C506 C511 1.379 . S
C506 N513 1.356 1_554 S
C507 C506 1.363 . S
C507 C510 1.363 . S
N508 C510 1.356 . S
N508 H520 0.984 . S
N508 H521 0.985 . S
N509 C511 1.356 1_556 S
N509 H514 0.984 . S
N509 H515 0.985 . S
C510 C504 1.379 . S
C510 C507 1.363 . S
C510 N508 1.356 . S
C511 C505 1.363 . S
C511 C506 1.379 . S
C511 N509 1.356 1_554 S
N512 C504 1.356 . S
N512 H518 0.984 . S
N512 H519 0.984 . S
N513 C506 1.356 1_556 S
N513 H516 0.984 . S
N513 H517 0.985 . S
H514 N509 0.984 . S
H515 N509 0.985 . S
H516 N513 0.984 . S
H517 N513 0.985 . S
H518 N512 0.984 . S
H519 N512 0.984 . S
H520 N508 0.984 . S
H521 N508 0.985 . S
C522 C523 1.363 . S
C522 C528 1.379 . S
C522 N530 1.356 1_556 S
C523 C522 1.363 . S
C523 C529 1.363 . S
C524 C525 1.363 . S
C524 C529 1.379 . S
C524 N531 1.356 . S
C525 C524 1.363 . S
C525 C528 1.363 . S
N526 C528 1.356 1_554 S
N526 H538 0.984 . S
N526 H539 0.985 . S
N527 C529 1.356 . S
N527 H532 0.984 . S
N527 H533 0.985 . S
C528 C522 1.379 . S
C528 C525 1.363 . S
C528 N526 1.356 1_556 S
C529 C523 1.363 . S
C529 C524 1.379 . S
C529 N527 1.356 . S
N530 C522 1.356 1_554 S
N530 H536 0.984 . S
N530 H537 0.984 . S
N531 C524 1.356 . S
N531 H534 0.984 . S
N531 H535 0.985 . S
H532 N527 0.984 . S
H533 N527 0.985 . S
H534 N531 0.984 . S
H535 N531 0.985 . S
H536 N530 0.984 . S
H537 N530 0.984 . S
H538 N526 0.984 . S
H539 N526 0.985 . S
C540 C541 1.363 . S
C540 C546 1.379 . S
C540 N548 1.356 1_556 S
C541 C540 1.363 . S
C541 C547 1.363 . S
C542 C543 1.363 . S
C542 C547 1.379 . S
C542 N549 1.356 . S
C543 C542 1.363 . S
C543 C546 1.363 . S
N544 C546 1.356 1_554 S
N544 H556 0.984 . S
N544 H557 0.985 . S
N545 C547 1.356 . S
N545 H550 0.984 . S
N545 H551 0.985 . S
C546 C540 1.379 . S
C546 C543 1.363 . S
C546 N544 1.356 1_556 S
C547 C541 1.363 . S
C547 C542 1.379 . S
C547 N545 1.356 . S
N548 C540 1.356 1_554 S
N548 H554 0.984 . S
N548 H555 0.984 . S
N549 C542 1.356 . S
N549 H552 0.984 . S
N549 H553 0.985 . S
H550 N545 0.984 . S
H551 N545 0.985 . S
H552 N549 0.984 . S
H553 N549 0.985 . S
H554 N548 0.984 . S
H555 N548 0.984 . S
H556 N544 0.984 . S
H557 N544 0.985 . S
C558 C559 1.363 . S
C558 C564 1.379 . S
C558 N566 1.356 . S
C559 C558 1.363 . S
C559 C565 1.363 . S
C560 C561 1.363 . S
C560 C565 1.379 . S
C560 N567 1.356 1_556 S
C561 C560 1.363 . S
C561 C564 1.363 . S
N562 C564 1.356 . S
N562 H574 0.984 . S
N562 H575 0.985 . S
N563 C565 1.356 1_554 S
N563 H568 0.983 1_554 S
N563 H569 0.985 . S
C564 C558 1.379 . S
C564 C561 1.363 . S
C564 N562 1.356 . S
C565 C559 1.363 . S
C565 C560 1.379 . S
C565 N563 1.356 1_556 S
N566 C558 1.356 . S
N566 H572 0.984 . S
N566 H573 0.984 . S
N567 C560 1.356 1_554 S
N567 H570 0.983 1_554 S
N567 H571 0.985 . S
H568 N563 0.983 1_556 S
H569 N563 0.985 . S
H570 N567 0.983 1_556 S
H571 N567 0.985 . S
H572 N566 0.984 . S
H573 N566 0.984 . S
H574 N562 0.984 . S
H575 N562 0.985 . S
C576 C577 1.363 . S
C576 C582 1.379 . S
C576 N584 1.356 . S
C577 C576 1.363 . S
C577 C583 1.363 . S
C578 C579 1.363 . S
C578 C583 1.379 . S
C578 N585 1.356 . S
C579 C578 1.363 . S
C579 C582 1.363 . S
N580 C582 1.356 . S
N580 H592 0.984 . S
N580 H593 0.985 . S
N581 C583 1.356 . S
N581 H586 0.984 . S
N581 H587 0.985 . S
C582 C576 1.379 . S
C582 C579 1.363 . S
C582 N580 1.356 . S
C583 C577 1.363 . S
C583 C578 1.379 . S
C583 N581 1.356 . S
N584 C576 1.356 . S
N584 H590 0.984 . S
N584 H591 0.984 . S
N585 C578 1.356 . S
N585 H588 0.984 . S
N585 H589 0.985 . S
H586 N581 0.984 . S
H587 N581 0.985 . S
H588 N585 0.984 . S
H589 N585 0.985 . S
H590 N584 0.984 . S
H591 N584 0.984 . S
H592 N580 0.984 . S
H593 N580 0.985 . S
C594 C595 1.363 . S
C594 C600 1.379 . S
C594 N602 1.356 . S
C595 C594 1.363 . S
C595 C601 1.363 . S
C596 C597 1.363 . S
C596 C601 1.379 . S
C596 N603 1.356 . S
C597 C596 1.363 . S
C597 C600 1.363 . S
N598 C600 1.356 . S
N598 H610 0.984 . S
N598 H611 0.985 . S
N599 C601 1.356 . S
N599 H604 0.984 . S
N599 H605 0.985 . S
C600 C594 1.379 . S
C600 C597 1.363 . S
C600 N598 1.356 . S
C601 C595 1.363 . S
C601 C596 1.379 . S
C601 N599 1.356 . S
N602 C594 1.356 . S
N602 H608 0.984 . S
N602 H609 0.984 . S
N603 C596 1.356 . S
N603 H606 0.984 . S
N603 H607 0.985 . S
H604 N599 0.984 . S
H605 N599 0.985 . S
H606 N603 0.984 . S
H607 N603 0.985 . S
H608 N602 0.984 . S
H609 N602 0.984 . S
H610 N598 0.984 . S
H611 N598 0.985 . S
C612 C613 1.363 . S
C612 C618 1.379 . S
C612 N620 1.356 . S
C613 C612 1.363 . S
C613 C619 1.363 . S
C614 C615 1.363 . S
C614 C619 1.379 . S
C614 N621 1.356 . S
C615 C614 1.363 . S
C615 C618 1.363 . S
N616 C618 1.356 . S
N616 H628 0.984 . S
N616 H629 0.985 . S
N617 C619 1.356 . S
N617 H622 0.984 . S
N617 H623 0.985 . S
C618 C612 1.379 . S
C618 C615 1.363 . S
C618 N616 1.356 . S
C619 C613 1.363 . S
C619 C614 1.379 . S
C619 N617 1.356 . S
N620 C612 1.356 . S
N620 H626 0.984 . S
N620 H627 0.984 . S
N621 C614 1.356 . S
N621 H624 0.984 . S
N621 H625 0.985 . S
H622 N617 0.984 . S
H623 N617 0.985 . S
H624 N621 0.984 . S
H625 N621 0.985 . S
H626 N620 0.984 . S
H627 N620 0.984 . S
H628 N616 0.984 . S
H629 N616 0.985 . S
C630 C631 1.363 . S
C630 C636 1.379 . S
C630 N638 1.356 . S
C631 C630 1.363 . S
C631 C637 1.363 . S
C632 C633 1.363 . S
C632 C637 1.379 . S
C632 N639 1.356 . S
C633 C632 1.363 . S
C633 C636 1.363 . S
N634 C636 1.356 . S
N634 H646 0.984 . S
N634 H647 0.985 . S
N635 C637 1.356 . S
N635 H640 0.984 . S
N635 H641 0.985 . S
C636 C630 1.379 . S
C636 C633 1.363 . S
C636 N634 1.356 . S
C637 C631 1.363 . S
C637 C632 1.379 . S
C637 N635 1.356 . S
N638 C630 1.356 . S
N638 H644 0.984 . S
N638 H645 0.984 . S
N639 C632 1.356 . S
N639 H642 0.984 . S
N639 H643 0.985 . S
H640 N635 0.984 . S
H641 N635 0.985 . S
H642 N639 0.984 . S
H643 N639 0.985 . S
H644 N638 0.984 . S
H645 N638 0.984 . S
H646 N634 0.984 . S
H647 N634 0.985 . S
C648 C649 1.363 . S
C648 C654 1.379 . S
C648 N656 1.356 . S
C649 C648 1.363 . S
C649 C655 1.363 . S
C650 C651 1.363 . S
C650 C655 1.379 . S
C650 N657 1.356 . S
C651 C650 1.363 . S
C651 C654 1.363 . S
N652 C654 1.356 . S
N652 H664 0.984 . S
N652 H665 0.985 . S
N653 C655 1.356 . S
N653 H658 0.984 . S
N653 H659 0.985 . S
C654 C648 1.379 . S
C654 C651 1.363 . S
C654 N652 1.356 . S
C655 C649 1.363 . S
C655 C650 1.379 . S
C655 N653 1.356 . S
N656 C648 1.356 . S
N656 H662 0.984 . S
N656 H663 0.984 . S
N657 C650 1.356 . S
N657 H660 0.984 . S
N657 H661 0.985 . S
H658 N653 0.984 . S
H659 N653 0.985 . S
H660 N657 0.984 . S
H661 N657 0.985 . S
H662 N656 0.984 . S
H663 N656 0.984 . S
H664 N652 0.984 . S
H665 N652 0.985 . S
C666 C667 1.363 . S
C666 C672 1.379 . S
C666 N674 1.356 . S
C667 C666 1.363 . S
C667 C673 1.363 . S
C668 C669 1.363 . S
C668 C673 1.379 . S
C668 N675 1.356 . S
C669 C668 1.363 . S
C669 C672 1.363 . S
N670 C672 1.356 . S
N670 H682 0.984 . S
N670 H683 0.985 . S
N671 C673 1.356 . S
N671 H676 0.984 . S
N671 H677 0.985 . S
C672 C666 1.379 . S
C672 C669 1.363 . S
C672 N670 1.356 . S
C673 C667 1.363 . S
C673 C668 1.379 . S
C673 N671 1.356 . S
N674 C666 1.356 . S
N674 H680 0.984 . S
N674 H681 0.984 . S
N675 C668 1.356 . S
N675 H678 0.984 . S
N675 H679 0.985 . S
H676 N671 0.984 . S
H677 N671 0.985 . S
H678 N675 0.984 . S
H679 N675 0.985 . S
H680 N674 0.984 . S
H681 N674 0.984 . S
H682 N670 0.984 . S
H683 N670 0.985 . S
C684 C685 1.363 . S
C684 C690 1.379 . S
C684 N692 1.356 . S
C685 C684 1.363 . S
C685 C691 1.363 . S
C686 C687 1.363 . S
C686 C691 1.379 . S
C686 N693 1.356 . S
C687 C686 1.363 . S
C687 C690 1.363 . S
N688 C690 1.356 . S
N688 H700 0.984 . S
N688 H701 0.985 . S
N689 C691 1.356 . S
N689 H694 0.984 . S
N689 H695 0.985 . S
C690 C684 1.379 . S
C690 C687 1.363 . S
C690 N688 1.356 . S
C691 C685 1.363 . S
C691 C686 1.379 . S
C691 N689 1.356 . S
N692 C684 1.356 . S
N692 H698 0.984 . S
N692 H699 0.984 . S
N693 C686 1.356 . S
N693 H696 0.984 . S
N693 H697 0.985 . S
H694 N689 0.984 . S
H695 N689 0.985 . S
H696 N693 0.984 . S
H697 N693 0.985 . S
H698 N692 0.984 . S
H699 N692 0.984 . S
H700 N688 0.984 . S
H701 N688 0.985 . S
C702 C703 1.363 . S
C702 C708 1.379 . S
C702 N710 1.356 . S
C703 C702 1.363 . S
C703 C709 1.363 . S
C704 C705 1.363 . S
C704 C709 1.379 . S
C704 N711 1.356 . S
C705 C704 1.363 . S
C705 C708 1.363 . S
N706 C708 1.356 . S
N706 H718 0.984 . S
N706 H719 0.985 . S
N707 C709 1.356 . S
N707 H712 0.984 . S
N707 H713 0.985 . S
C708 C702 1.379 . S
C708 C705 1.363 . S
C708 N706 1.356 . S
C709 C703 1.363 . S
C709 C704 1.379 . S
C709 N707 1.356 . S
N710 C702 1.356 . S
N710 H716 0.984 . S
N710 H717 0.984 . S
N711 C704 1.356 . S
N711 H714 0.984 . S
N711 H715 0.985 . S
H712 N707 0.984 . S
H713 N707 0.985 . S
H714 N711 0.984 . S
H715 N711 0.985 . S
H716 N710 0.984 . S
H717 N710 0.984 . S
H718 N706 0.984 . S
H719 N706 0.985 . S
C720 C721 1.363 . S
C720 C726 1.379 . S
C720 N728 1.356 . S
C721 C720 1.363 . S
C721 C727 1.363 . S
C722 C723 1.363 . S
C722 C727 1.379 . S
C722 N729 1.356 . S
C723 C722 1.363 . S
C723 C726 1.363 . S
N724 C726 1.356 . S
N724 H736 0.984 . S
N724 H737 0.985 . S
N725 C727 1.356 . S
N725 H730 0.984 . S
N725 H731 0.985 . S
C726 C720 1.379 . S
C726 C723 1.363 . S
C726 N724 1.356 . S
C727 C721 1.363 . S
C727 C722 1.379 . S
C727 N725 1.356 . S
N728 C720 1.356 . S
N728 H734 0.984 . S
N728 H735 0.984 . S
N729 C722 1.356 . S
N729 H732 0.984 . S
N729 H733 0.985 . S
H730 N725 0.984 . S
H731 N725 0.985 . S
H732 N729 0.984 . S
H733 N729 0.985 . S
H734 N728 0.984 . S
H735 N728 0.984 . S
H736 N724 0.984 . S
H737 N724 0.985 . S
C738 C739 1.363 . S
C738 C744 1.379 . S
C738 N746 1.356 . S
C739 C738 1.363 . S
C739 C745 1.363 . S
C740 C741 1.363 . S
C740 C745 1.379 . S
C740 N747 1.356 . S
C741 C740 1.363 . S
C741 C744 1.363 . S
N742 C744 1.356 . S
N742 H754 0.984 . S
N742 H755 0.985 . S
N743 C745 1.356 . S
N743 H748 0.984 . S
N743 H749 0.985 . S
C744 C738 1.379 . S
C744 C741 1.363 . S
C744 N742 1.356 . S
C745 C739 1.363 . S
C745 C740 1.379 . S
C745 N743 1.356 . S
N746 C738 1.356 . S
N746 H752 0.984 . S
N746 H753 0.984 . S
N747 C740 1.356 . S
N747 H750 0.984 . S
N747 H751 0.985 . S
H748 N743 0.984 . S
H749 N743 0.985 . S
H750 N747 0.984 . S
H751 N747 0.985 . S
H752 N746 0.984 . S
H753 N746 0.984 . S
H754 N742 0.984 . S
H755 N742 0.985 . S
C756 C757 1.363 . S
C756 C762 1.379 . S
C756 N764 1.356 . S
C757 C756 1.363 . S
C757 C763 1.363 . S
C758 C759 1.363 . S
C758 C763 1.379 . S
C758 N765 1.356 . S
C759 C758 1.363 . S
C759 C762 1.363 . S
N760 C762 1.356 . S
N760 H772 0.984 . S
N760 H773 0.985 . S
N761 C763 1.356 . S
N761 H766 0.984 . S
N761 H767 0.985 . S
C762 C756 1.379 . S
C762 C759 1.363 . S
C762 N760 1.356 . S
C763 C757 1.363 . S
C763 C758 1.379 . S
C763 N761 1.356 . S
N764 C756 1.356 . S
N764 H770 0.984 . S
N764 H771 0.984 . S
N765 C758 1.356 . S
N765 H768 0.984 . S
N765 H769 0.985 . S
H766 N761 0.984 . S
H767 N761 0.985 . S
H768 N765 0.984 . S
H769 N765 0.985 . S
H770 N764 0.984 . S
H771 N764 0.984 . S
H772 N760 0.984 . S
H773 N760 0.985 . S
C774 C775 1.363 . S
C774 C780 1.379 . S
C774 N782 1.356 . S
C775 C774 1.363 . S
C775 C781 1.363 . S
C776 C777 1.363 . S
C776 C781 1.379 . S
C776 N783 1.356 . S
C777 C776 1.363 . S
C777 C780 1.363 . S
N778 C780 1.356 . S
N778 H790 0.984 . S
N778 H791 0.985 . S
N779 C781 1.356 . S
N779 H784 0.984 . S
N779 H785 0.985 . S
C780 C774 1.379 . S
C780 C777 1.363 . S
C780 N778 1.356 . S
C781 C775 1.363 . S
C781 C776 1.379 . S
C781 N779 1.356 . S
N782 C774 1.356 . S
N782 H788 0.984 . S
N782 H789 0.984 . S
N783 C776 1.356 . S
N783 H786 0.984 . S
N783 H787 0.985 . S
H784 N779 0.984 . S
H785 N779 0.985 . S
H786 N783 0.984 . S
H787 N783 0.985 . S
H788 N782 0.984 . S
H789 N782 0.984 . S
H790 N778 0.984 . S
H791 N778 0.985 . S
C792 C793 1.363 . S
C792 C798 1.379 1_454 S
C792 N800 1.356 . S
C793 C792 1.363 . S
C793 C799 1.363 . S
C794 C795 1.363 . S
C794 C799 1.379 1_656 S
C794 N801 1.356 . S
C795 C794 1.363 . S
C795 C798 1.363 . S
N796 C798 1.356 . S
N796 H808 0.984 . S
N796 H809 0.985 . S
N797 C799 1.356 . S
N797 H802 0.984 . S
N797 H803 0.985 . S
C798 C792 1.379 1_656 S
C798 C795 1.363 . S
C798 N796 1.356 . S
C799 C793 1.363 . S
C799 C794 1.379 1_454 S
C799 N797 1.356 . S
N800 C792 1.356 . S
N800 H806 0.984 . S
N800 H807 0.984 . S
N801 C794 1.356 . S
N801 H804 0.984 . S
N801 H805 0.985 . S
H802 N797 0.984 . S
H803 N797 0.985 . S
H804 N801 0.984 . S
H805 N801 0.985 . S
H806 N800 0.984 . S
H807 N800 0.984 . S
H808 N796 0.984 . S
H809 N796 0.985 . S
C810 C811 1.363 1_554 S
C810 C816 1.379 . S
C810 N818 1.356 . S
C811 C810 1.363 1_556 S
C811 C817 1.363 . S
C812 C813 1.363 1_556 S
C812 C817 1.379 . S
C812 N819 1.356 . S
C813 C812 1.363 1_554 S
C813 C816 1.363 . S
N814 C816 1.356 . S
N814 H826 0.984 . S
N814 H827 0.985 . S
N815 C817 1.356 . S
N815 H820 0.984 . S
N815 H821 0.985 . S
C816 C810 1.379 . S
C816 C813 1.363 . S
C816 N814 1.356 . S
C817 C811 1.363 . S
C817 C812 1.379 . S
C817 N815 1.356 . S
N818 C810 1.356 . S
N818 H824 0.984 . S
N818 H825 0.984 1_554 S
N819 C812 1.356 . S
N819 H822 0.984 1_556 S
N819 H823 0.985 . S
H820 N815 0.984 . S
H821 N815 0.985 . S
H822 N819 0.984 1_554 S
H823 N819 0.985 . S
H824 N818 0.984 . S
H825 N818 0.984 1_556 S
H826 N814 0.984 . S
H827 N814 0.985 . S
C828 C829 1.363 1_556 S
C828 C834 1.379 1_565 S
C828 N836 1.356 . S
C829 C828 1.363 1_554 S
C829 C835 1.363 . S
C830 C831 1.363 1_554 S
C830 C835 1.379 1_545 S
C830 N837 1.356 . S
C831 C830 1.363 1_556 S
C831 C834 1.363 . S
N832 C834 1.356 . S
N832 H844 0.984 . S
N832 H845 0.985 . S
N833 C835 1.356 . S
N833 H838 0.984 . S
N833 H839 0.985 . S
C834 C828 1.379 1_545 S
C834 C831 1.363 . S
C834 N832 1.356 . S
C835 C829 1.363 . S
C835 C830 1.379 1_565 S
C835 N833 1.356 . S
N836 C828 1.356 . S
N836 H842 0.984 . S
N836 H843 0.984 . S
N837 C830 1.356 . S
N837 H840 0.984 . S
N837 H841 0.985 . S
H838 N833 0.984 . S
H839 N833 0.985 . S
H840 N837 0.984 . S
H841 N837 0.985 . S
H842 N836 0.984 . S
H843 N836 0.984 . S
H844 N832 0.984 . S
H845 N832 0.985 . S
C846 C847 1.363 . S
C846 C852 1.379 1_655 S
C846 N854 1.356 . S
C847 C846 1.363 . S
C847 C853 1.363 1_556 S
C848 C849 1.363 . S
C848 C853 1.379 1_455 S
C848 N855 1.356 . S
C849 C848 1.363 . S
C849 C852 1.363 1_554 S
N850 C852 1.356 . S
N850 H862 0.984 . S
N850 H863 0.985 . S
N851 C853 1.356 . S
N851 H856 0.984 . S
N851 H857 0.985 . S
C852 C846 1.379 1_455 S
C852 C849 1.363 1_556 S
C852 N850 1.356 . S
C853 C847 1.363 1_554 S
C853 C848 1.379 1_655 S
C853 N851 1.356 . S
N854 C846 1.356 . S
N854 H860 0.984 . S
N854 H861 0.984 . S
N855 C848 1.356 . S
N855 H858 0.984 . S
N855 H859 0.985 . S
H856 N851 0.984 . S
H857 N851 0.985 . S
H858 N855 0.984 . S
H859 N855 0.985 . S
H860 N854 0.984 . S
H861 N854 0.984 . S
H862 N850 0.984 . S
H863 N850 0.985 . S
C864 C865 1.363 1_554 S
C864 C870 1.379 . S
C864 N872 1.356 . S
C865 C864 1.363 1_556 S
C865 C871 1.363 . S
C866 C867 1.363 1_556 S
C866 C871 1.379 . S
C866 N873 1.356 . S
C867 C866 1.363 1_554 S
C867 C870 1.363 . S
N868 C870 1.356 . S
N868 H880 0.984 . S
N868 H881 0.985 . S
N869 C871 1.356 . S
N869 H874 0.984 . S
N869 H875 0.985 . S
C870 C864 1.379 . S
C870 C867 1.363 . S
C870 N868 1.356 . S
C871 C865 1.363 . S
C871 C866 1.379 . S
C871 N869 1.356 . S
N872 C864 1.356 . S
N872 H878 0.984 . S
N872 H879 0.984 1_554 S
N873 C866 1.356 . S
N873 H876 0.984 1_556 S
N873 H877 0.985 . S
H874 N869 0.984 . S
H875 N869 0.985 . S
H876 N873 0.984 1_554 S
H877 N873 0.985 . S
H878 N872 0.984 . S
H879 N872 0.984 1_556 S
H880 N868 0.984 . S
H881 N868 0.985 . S
C882 C883 1.363 . S
C882 C888 1.379 1_545 S
C882 N890 1.356 . S
C883 C882 1.363 . S
C883 C889 1.363 1_556 S
C884 C885 1.363 . S
C884 C889 1.379 1_565 S
C884 N891 1.356 . S
C885 C884 1.363 . S
C885 C888 1.363 1_554 S
N886 C888 1.356 . S
N886 H898 0.984 . S
N886 H899 0.985 1_556 S
N887 C889 1.356 . S
N887 H892 0.984 1_554 S
N887 H893 0.985 . S
C888 C882 1.379 1_565 S
C888 C885 1.363 1_556 S
C888 N886 1.356 . S
C889 C883 1.363 1_554 S
C889 C884 1.379 1_545 S
C889 N887 1.356 . S
N890 C882 1.356 . S
N890 H896 0.984 . S
N890 H897 0.984 . S
N891 C884 1.356 . S
N891 H894 0.984 . S
N891 H895 0.985 . S
H892 N887 0.984 1_556 S
H893 N887 0.985 . S
H894 N891 0.984 . S
H895 N891 0.985 . S
H896 N890 0.984 . S
H897 N890 0.984 . S
H898 N886 0.984 . S
H899 N886 0.985 1_554 S
C900 C901 1.363 . S
C900 C906 1.379 . S
C900 N908 1.356 . S
C901 C900 1.363 . S
C901 C907 1.363 . S
C902 C903 1.363 . S
C902 C907 1.379 . S
C902 N909 1.356 . S
C903 C902 1.363 . S
C903 C906 1.363 . S
N904 C906 1.356 . S
N904 H916 0.984 . S
N904 H917 0.985 . S
N905 C907 1.356 . S
N905 H910 0.984 . S
N905 H911 0.985 . S
C906 C900 1.379 . S
C906 C903 1.363 . S
C906 N904 1.356 . S
C907 C901 1.363 . S
C907 C902 1.379 . S
C907 N905 1.356 . S
N908 C900 1.356 . S
N908 H914 0.984 . S
N908 H915 0.984 . S
N909 C902 1.356 . S
N909 H912 0.984 . S
N909 H913 0.985 . S
H910 N905 0.984 . S
H911 N905 0.985 . S
H912 N909 0.984 . S
H913 N909 0.985 . S
H914 N908 0.984 . S
H915 N908 0.984 . S
H916 N904 0.984 . S
H917 N904 0.985 . S
C918 C919 1.363 . S
C918 C924 1.379 . S
C918 N926 1.356 . S
C919 C918 1.363 . S
C919 C925 1.363 . S
C920 C921 1.363 . S
C920 C925 1.379 . S
C920 N927 1.356 . S
C921 C920 1.363 . S
C921 C924 1.363 . S
N922 C924 1.356 . S
N922 H934 0.984 . S
N922 H935 0.985 . S
N923 C925 1.356 . S
N923 H928 0.984 . S
N923 H929 0.985 . S
C924 C918 1.379 . S
C924 C921 1.363 . S
C924 N922 1.356 . S
C925 C919 1.363 . S
C925 C920 1.379 . S
C925 N923 1.356 . S
N926 C918 1.356 . S
N926 H932 0.984 . S
N926 H933 0.984 . S
N927 C920 1.356 . S
N927 H930 0.984 . S
N927 H931 0.985 . S
H928 N923 0.984 . S
H929 N923 0.985 . S
H930 N927 0.984 . S
H931 N927 0.985 . S
H932 N926 0.984 . S
H933 N926 0.984 . S
H934 N922 0.984 . S
H935 N922 0.985 . S
C936 C937 1.363 . S
C936 C942 1.379 . S
C936 N944 1.356 . S
C937 C936 1.363 . S
C937 C943 1.363 . S
C938 C939 1.363 . S
C938 C943 1.379 . S
C938 N945 1.356 . S
C939 C938 1.363 . S
C939 C942 1.363 . S
N940 C942 1.356 . S
N940 H952 0.984 . S
N940 H953 0.985 . S
N941 C943 1.356 . S
N941 H946 0.984 . S
N941 H947 0.985 . S
C942 C936 1.379 . S
C942 C939 1.363 . S
C942 N940 1.356 . S
C943 C937 1.363 . S
C943 C938 1.379 . S
C943 N941 1.356 . S
N944 C936 1.356 . S
N944 H950 0.984 . S
N944 H951 0.984 . S
N945 C938 1.356 . S
N945 H948 0.984 . S
N945 H949 0.985 . S
H946 N941 0.984 . S
H947 N941 0.985 . S
H948 N945 0.984 . S
H949 N945 0.985 . S
H950 N944 0.984 . S
H951 N944 0.984 . S
H952 N940 0.984 . S
H953 N940 0.985 . S
C954 C955 1.363 . S
C954 C960 1.379 . S
C954 N962 1.356 . S
C955 C954 1.363 . S
C955 C961 1.363 . S
C956 C957 1.363 . S
C956 C961 1.379 . S
C956 N963 1.356 . S
C957 C956 1.363 . S
C957 C960 1.363 . S
N958 C960 1.356 . S
N958 H970 0.984 . S
N958 H971 0.985 . S
N959 C961 1.356 . S
N959 H964 0.984 . S
N959 H965 0.985 . S
C960 C954 1.379 . S
C960 C957 1.363 . S
C960 N958 1.356 . S
C961 C955 1.363 . S
C961 C956 1.379 . S
C961 N959 1.356 . S
N962 C954 1.356 . S
N962 H968 0.984 . S
N962 H969 0.984 . S
N963 C956 1.356 . S
N963 H966 0.984 . S
N963 H967 0.985 . S
H964 N959 0.984 . S
H965 N959 0.985 . S
H966 N963 0.984 . S
H967 N963 0.985 . S
H968 N962 0.984 . S
H969 N962 0.984 . S
H970 N958 0.984 . S
H971 N958 0.985 . S
C972 C973 1.363 . S
C972 C978 1.379 . S
C972 N980 1.356 . S
C973 C972 1.363 . S
C973 C979 1.363 . S
C974 C975 1.363 . S
C974 C979 1.379 . S
C974 N981 1.356 . S
C975 C974 1.363 . S
C975 C978 1.363 . S
N976 C978 1.356 . S
N976 H988 0.984 . S
N976 H989 0.985 . S
N977 C979 1.356 . S
N977 H982 0.984 . S
N977 H983 0.985 . S
C978 C972 1.379 . S
C978 C975 1.363 . S
C978 N976 1.356 . S
C979 C973 1.363 . S
C979 C974 1.379 . S
C979 N977 1.356 . S
N980 C972 1.356 . S
N980 H986 0.984 . S
N980 H987 0.984 . S
N981 C974 1.356 . S
N981 H984 0.984 . S
N981 H985 0.985 . S
H982 N977 0.984 . S
H983 N977 0.985 . S
H984 N981 0.984 . S
H985 N981 0.985 . S
H986 N980 0.984 . S
H987 N980 0.984 . S
H988 N976 0.984 . S
H989 N976 0.985 . S
C990 C991 1.363 . S
C990 C996 1.379 . S
C990 N998 1.356 . S
C991 C990 1.363 . S
C991 C997 1.363 . S
C992 C993 1.363 . S
C992 C997 1.379 . S
C992 N999 1.356 . S
C993 C992 1.363 . S
C993 C996 1.363 . S
N994 C996 1.356 . S
N994 H1006 0.984 . S
N994 H1007 0.985 . S
N995 C997 1.356 . S
N995 H1000 0.984 . S
N995 H1001 0.985 . S
C996 C990 1.379 . S
C996 C993 1.363 . S
C996 N994 1.356 . S
C997 C991 1.363 . S
C997 C992 1.379 . S
C997 N995 1.356 . S
N998 C990 1.356 . S
N998 H1004 0.984 . S
N998 H1005 0.984 . S
N999 C992 1.356 . S
N999 H1002 0.984 . S
N999 H1003 0.985 . S
H1000 N995 0.984 . S
H1001 N995 0.985 . S
H1002 N999 0.984 . S
H1003 N999 0.985 . S
H1004 N998 0.984 . S
H1005 N998 0.984 . S
H1006 N994 0.984 . S
H1007 N994 0.985 . S
C1008 C1009 1.363 . S
C1008 C1014 1.379 . S
C1008 N1016 1.356 . S
C1009 C1008 1.363 . S
C1009 C1015 1.363 . S
C1010 C1011 1.363 . S
C1010 C1015 1.379 . S
C1010 N1017 1.356 . S
C1011 C1010 1.363 . S
C1011 C1014 1.363 . S
N1012 C1014 1.356 . S
N1012 H1024 0.984 . S
N1012 H1025 0.985 . S
N1013 C1015 1.356 . S
N1013 H1018 0.984 . S
N1013 H1019 0.985 . S
C1014 C1008 1.379 . S
C1014 C1011 1.363 . S
C1014 N1012 1.356 . S
C1015 C1009 1.363 . S
C1015 C1010 1.379 . S
C1015 N1013 1.356 . S
N1016 C1008 1.356 . S
N1016 H1022 0.984 . S
N1016 H1023 0.984 . S
N1017 C1010 1.356 . S
N1017 H1020 0.984 . S
N1017 H1021 0.985 . S
H1018 N1013 0.984 . S
H1019 N1013 0.985 . S
H1020 N1017 0.984 . S
H1021 N1017 0.985 . S
H1022 N1016 0.984 . S
H1023 N1016 0.984 . S
H1024 N1012 0.984 . S
H1025 N1012 0.985 . S
C1026 C1027 1.363 . S
C1026 C1032 1.379 . S
C1026 N1034 1.356 . S
C1027 C1026 1.363 . S
C1027 C1033 1.363 . S
C1028 C1029 1.363 . S
C1028 C1033 1.379 . S
C1028 N1035 1.356 . S
C1029 C1028 1.363 . S
C1029 C1032 1.363 . S
N1030 C1032 1.356 . S
N1030 H1042 0.984 . S
N1030 H1043 0.985 . S
N1031 C1033 1.356 . S
N1031 H1036 0.984 . S
N1031 H1037 0.985 . S
C1032 C1026 1.379 . S
C1032 C1029 1.363 . S
C1032 N1030 1.356 . S
C1033 C1027 1.363 . S
C1033 C1028 1.379 . S
C1033 N1031 1.356 . S
N1034 C1026 1.356 . S
N1034 H1040 0.984 . S
N1034 H1041 0.984 . S
N1035 C1028 1.356 . S
N1035 H1038 0.984 . S
N1035 H1039 0.985 . S
H1036 N1031 0.984 . S
H1037 N1031 0.985 . S
H1038 N1035 0.984 . S
H1039 N1035 0.985 . S
H1040 N1034 0.984 . S
H1041 N1034 0.984 . S
H1042 N1030 0.984 . S
H1043 N1030 0.985 . S
C1044 C1045 1.363 . S
C1044 C1050 1.379 . S
C1044 N1052 1.356 . S
C1045 C1044 1.363 . S
C1045 C1051 1.363 . S
C1046 C1047 1.363 . S
C1046 C1051 1.379 . S
C1046 N1053 1.356 . S
C1047 C1046 1.363 . S
C1047 C1050 1.363 . S
N1048 C1050 1.356 . S
N1048 H1060 0.984 . S
N1048 H1061 0.985 . S
N1049 C1051 1.356 . S
N1049 H1054 0.984 . S
N1049 H1055 0.985 . S
C1050 C1044 1.379 . S
C1050 C1047 1.363 . S
C1050 N1048 1.356 . S
C1051 C1045 1.363 . S
C1051 C1046 1.379 . S
C1051 N1049 1.356 . S
N1052 C1044 1.356 . S
N1052 H1058 0.984 . S
N1052 H1059 0.984 . S
N1053 C1046 1.356 . S
N1053 H1056 0.984 . S
N1053 H1057 0.985 . S
H1054 N1049 0.984 . S
H1055 N1049 0.985 . S
H1056 N1053 0.984 . S
H1057 N1053 0.985 . S
H1058 N1052 0.984 . S
H1059 N1052 0.984 . S
H1060 N1048 0.984 . S
H1061 N1048 0.985 . S
C1062 C1063 1.363 . S
C1062 C1068 1.379 . S
C1062 N1070 1.356 . S
C1063 C1062 1.363 . S
C1063 C1069 1.363 . S
C1064 C1065 1.363 . S
C1064 C1069 1.379 . S
C1064 N1071 1.356 . S
C1065 C1064 1.363 . S
C1065 C1068 1.363 . S
N1066 C1068 1.356 . S
N1066 H1078 0.984 . S
N1066 H1079 0.985 . S
N1067 C1069 1.356 . S
N1067 H1072 0.984 . S
N1067 H1073 0.985 . S
C1068 C1062 1.379 . S
C1068 C1065 1.363 . S
C1068 N1066 1.356 . S
C1069 C1063 1.363 . S
C1069 C1064 1.379 . S
C1069 N1067 1.356 . S
N1070 C1062 1.356 . S
N1070 H1076 0.984 . S
N1070 H1077 0.984 . S
N1071 C1064 1.356 . S
N1071 H1074 0.984 . S
N1071 H1075 0.985 . S
H1072 N1067 0.984 . S
H1073 N1067 0.985 . S
H1074 N1071 0.984 . S
H1075 N1071 0.985 . S
H1076 N1070 0.984 . S
H1077 N1070 0.984 . S
H1078 N1066 0.984 . S
H1079 N1066 0.985 . S
C1080 C1081 1.363 . S
C1080 C1086 1.379 . S
C1080 N1088 1.356 . S
C1081 C1080 1.363 . S
C1081 C1087 1.363 . S
C1082 C1083 1.363 . S
C1082 C1087 1.379 . S
C1082 N1089 1.356 . S
C1083 C1082 1.363 . S
C1083 C1086 1.363 . S
N1084 C1086 1.356 . S
N1084 H1096 0.984 . S
N1084 H1097 0.985 . S
N1085 C1087 1.356 . S
N1085 H1090 0.984 . S
N1085 H1091 0.985 . S
C1086 C1080 1.379 . S
C1086 C1083 1.363 . S
C1086 N1084 1.356 . S
C1087 C1081 1.363 . S
C1087 C1082 1.379 . S
C1087 N1085 1.356 . S
N1088 C1080 1.356 . S
N1088 H1094 0.984 . S
N1088 H1095 0.984 . S
N1089 C1082 1.356 . S
N1089 H1092 0.984 . S
N1089 H1093 0.985 . S
H1090 N1085 0.984 . S
H1091 N1085 0.985 . S
H1092 N1089 0.984 . S
H1093 N1089 0.985 . S
H1094 N1088 0.984 . S
H1095 N1088 0.984 . S
H1096 N1084 0.984 . S
H1097 N1084 0.985 . S
C1098 C1099 1.363 . S
C1098 C1104 1.379 . S
C1098 N1106 1.356 . S
C1099 C1098 1.363 . S
C1099 C1105 1.363 . S
C1100 C1101 1.363 . S
C1100 C1105 1.379 . S
C1100 N1107 1.356 . S
C1101 C1100 1.363 . S
C1101 C1104 1.363 . S
N1102 C1104 1.356 . S
N1102 H1114 0.984 . S
N1102 H1115 0.985 . S
N1103 C1105 1.356 . S
N1103 H1108 0.984 . S
N1103 H1109 0.985 . S
C1104 C1098 1.379 . S
C1104 C1101 1.363 . S
C1104 N1102 1.356 . S
C1105 C1099 1.363 . S
C1105 C1100 1.379 . S
C1105 N1103 1.356 . S
N1106 C1098 1.356 . S
N1106 H1112 0.984 . S
N1106 H1113 0.984 . S
N1107 C1100 1.356 . S
N1107 H1110 0.984 . S
N1107 H1111 0.985 . S
H1108 N1103 0.984 . S
H1109 N1103 0.985 . S
H1110 N1107 0.984 . S
H1111 N1107 0.985 . S
H1112 N1106 0.984 . S
H1113 N1106 0.984 . S
H1114 N1102 0.984 . S
H1115 N1102 0.985 . S
C1116 C1117 1.363 . S
C1116 C1122 1.379 . S
C1116 N1124 1.356 . S
C1117 C1116 1.363 . S
C1117 C1123 1.363 . S
C1118 C1119 1.363 . S
C1118 C1123 1.379 . S
C1118 N1125 1.356 . S
C1119 C1118 1.363 . S
C1119 C1122 1.363 . S
N1120 C1122 1.356 . S
N1120 H1132 0.984 . S
N1120 H1133 0.985 . S
N1121 C1123 1.356 . S
N1121 H1126 0.984 . S
N1121 H1127 0.985 . S
C1122 C1116 1.379 . S
C1122 C1119 1.363 . S
C1122 N1120 1.356 . S
C1123 C1117 1.363 . S
C1123 C1118 1.379 . S
C1123 N1121 1.356 . S
N1124 C1116 1.356 . S
N1124 H1130 0.984 . S
N1124 H1131 0.984 . S
N1125 C1118 1.356 . S
N1125 H1128 0.984 . S
N1125 H1129 0.985 . S
H1126 N1121 0.984 . S
H1127 N1121 0.985 . S
H1128 N1125 0.984 . S
H1129 N1125 0.985 . S
H1130 N1124 0.984 . S
H1131 N1124 0.984 . S
H1132 N1120 0.984 . S
H1133 N1120 0.985 . S
C1134 C1135 1.363 . S
C1134 C1140 1.379 . S
C1134 N1142 1.356 . S
C1135 C1134 1.363 . S
C1135 C1141 1.363 . S
C1136 C1137 1.363 . S
C1136 C1141 1.379 . S
C1136 N1143 1.356 . S
C1137 C1136 1.363 . S
C1137 C1140 1.363 . S
N1138 C1140 1.356 . S
N1138 H1150 0.984 . S
N1138 H1151 0.985 . S
N1139 C1141 1.356 . S
N1139 H1144 0.984 . S
N1139 H1145 0.985 . S
C1140 C1134 1.379 . S
C1140 C1137 1.363 . S
C1140 N1138 1.356 . S
C1141 C1135 1.363 . S
C1141 C1136 1.379 . S
C1141 N1139 1.356 . S
N1142 C1134 1.356 . S
N1142 H1148 0.984 . S
N1142 H1149 0.984 . S
N1143 C1136 1.356 . S
N1143 H1146 0.984 . S
N1143 H1147 0.985 . S
H1144 N1139 0.984 . S
H1145 N1139 0.985 . S
H1146 N1143 0.984 . S
H1147 N1143 0.985 . S
H1148 N1142 0.984 . S
H1149 N1142 0.984 . S
H1150 N1138 0.984 . S
H1151 N1138 0.985 . S
C1152 C1153 1.363 . S
C1152 C1158 1.379 . S
C1152 N1160 1.356 . S
C1153 C1152 1.363 . S
C1153 C1159 1.363 . S
C1154 C1155 1.363 . S
C1154 C1159 1.379 . S
C1154 N1161 1.356 . S
C1155 C1154 1.363 . S
C1155 C1158 1.363 . S
N1156 C1158 1.356 . S
N1156 H1168 0.984 . S
N1156 H1169 0.985 . S
N1157 C1159 1.356 . S
N1157 H1162 0.984 . S
N1157 H1163 0.985 . S
C1158 C1152 1.379 . S
C1158 C1155 1.363 . S
C1158 N1156 1.356 . S
C1159 C1153 1.363 . S
C1159 C1154 1.379 . S
C1159 N1157 1.356 . S
N1160 C1152 1.356 . S
N1160 H1166 0.984 . S
N1160 H1167 0.984 . S
N1161 C1154 1.356 . S
N1161 H1164 0.984 . S
N1161 H1165 0.985 . S
H1162 N1157 0.984 . S
H1163 N1157 0.985 . S
H1164 N1161 0.984 . S
H1165 N1161 0.985 . S
H1166 N1160 0.984 . S
H1167 N1160 0.984 . S
H1168 N1156 0.984 . S
H1169 N1156 0.985 . S
C1170 C1171 1.363 . S
C1170 C1176 1.379 . S
C1170 N1178 1.356 . S
C1171 C1170 1.363 . S
C1171 C1177 1.363 . S
C1172 C1173 1.363 . S
C1172 C1177 1.379 . S
C1172 N1179 1.356 . S
C1173 C1172 1.363 . S
C1173 C1176 1.363 . S
N1174 C1176 1.356 . S
N1174 H1186 0.984 . S
N1174 H1187 0.985 . S
N1175 C1177 1.356 . S
N1175 H1180 0.984 . S
N1175 H1181 0.985 . S
C1176 C1170 1.379 . S
C1176 C1173 1.363 . S
C1176 N1174 1.356 . S
C1177 C1171 1.363 . S
C1177 C1172 1.379 . S
C1177 N1175 1.356 . S
N1178 C1170 1.356 . S
N1178 H1184 0.984 . S
N1178 H1185 0.984 1_554 S
N1179 C1172 1.356 . S
N1179 H1182 0.984 . S
N1179 H1183 0.985 . S
H1180 N1175 0.984 . S
H1181 N1175 0.985 . S
H1182 N1179 0.984 . S
H1183 N1179 0.985 . S
H1184 N1178 0.984 . S
H1185 N1178 0.984 1_556 S
H1186 N1174 0.984 . S
H1187 N1174 0.985 . S
C1188 C1189 1.363 . S
C1188 C1194 1.379 . S
C1188 N1196 1.356 . S
C1189 C1188 1.363 . S
C1189 C1195 1.363 . S
C1190 C1191 1.363 . S
C1190 C1195 1.379 . S
C1190 N1197 1.356 . S
C1191 C1190 1.363 . S
C1191 C1194 1.363 . S
N1192 C1194 1.356 . S
N1192 H1204 0.984 . S
N1192 H1205 0.985 . S
N1193 C1195 1.356 . S
N1193 H1198 0.984 . S
N1193 H1199 0.985 . S
C1194 C1188 1.379 . S
C1194 C1191 1.363 . S
C1194 N1192 1.356 . S
C1195 C1189 1.363 . S
C1195 C1190 1.379 . S
C1195 N1193 1.356 . S
N1196 C1188 1.356 . S
N1196 H1202 0.984 . S
N1196 H1203 0.984 . S
N1197 C1190 1.356 . S
N1197 H1200 0.984 1_554 S
N1197 H1201 0.985 . S
H1198 N1193 0.984 . S
H1199 N1193 0.985 . S
H1200 N1197 0.984 1_556 S
H1201 N1197 0.985 . S
H1202 N1196 0.984 . S
H1203 N1196 0.984 . S
H1204 N1192 0.984 . S
H1205 N1192 0.985 . S
C1206 C1207 1.363 . S
C1206 C1212 1.379 . S
C1206 N1214 1.356 . S
C1207 C1206 1.363 . S
C1207 C1213 1.363 . S
C1208 C1209 1.363 . S
C1208 C1213 1.379 . S
C1208 N1215 1.356 . S
C1209 C1208 1.363 . S
C1209 C1212 1.363 . S
N1210 C1212 1.356 . S
N1210 H1222 0.984 . S
N1210 H1223 0.985 . S
N1211 C1213 1.356 . S
N1211 H1216 0.984 . S
N1211 H1217 0.985 . S
C1212 C1206 1.379 . S
C1212 C1209 1.363 . S
C1212 N1210 1.356 . S
C1213 C1207 1.363 . S
C1213 C1208 1.379 . S
C1213 N1211 1.356 . S
N1214 C1206 1.356 . S
N1214 H1220 0.984 . S
N1214 H1221 0.984 . S
N1215 C1208 1.356 . S
N1215 H1218 0.984 1_554 S
N1215 H1219 0.985 . S
H1216 N1211 0.984 . S
H1217 N1211 0.985 . S
H1218 N1215 0.984 1_556 S
H1219 N1215 0.985 . S
H1220 N1214 0.984 . S
H1221 N1214 0.984 . S
H1222 N1210 0.984 . S
H1223 N1210 0.985 . S
C1224 C1225 1.363 . S
C1224 C1230 1.379 . S
C1224 N1232 1.356 . S
C1225 C1224 1.363 . S
C1225 C1231 1.363 . S
C1226 C1227 1.363 . S
C1226 C1231 1.379 . S
C1226 N1233 1.356 . S
C1227 C1226 1.363 . S
C1227 C1230 1.363 . S
N1228 C1230 1.356 . S
N1228 H1240 0.984 . S
N1228 H1241 0.985 . S
N1229 C1231 1.356 . S
N1229 H1234 0.984 . S
N1229 H1235 0.985 . S
C1230 C1224 1.379 . S
C1230 C1227 1.363 . S
C1230 N1228 1.356 . S
C1231 C1225 1.363 . S
C1231 C1226 1.379 . S
C1231 N1229 1.356 . S
N1232 C1224 1.356 . S
N1232 H1238 0.984 . S
N1232 H1239 0.984 . S
N1233 C1226 1.356 . S
N1233 H1236 0.984 . S
N1233 H1237 0.985 . S
H1234 N1229 0.984 . S
H1235 N1229 0.985 . S
H1236 N1233 0.984 . S
H1237 N1233 0.985 . S
H1238 N1232 0.984 . S
H1239 N1232 0.984 . S
H1240 N1228 0.984 . S
H1241 N1228 0.985 . S
C1242 C1243 1.363 . S
C1242 C1248 1.379 . S
C1242 N1250 1.356 . S
C1243 C1242 1.363 . S
C1243 C1249 1.363 . S
C1244 C1245 1.363 . S
C1244 C1249 1.379 . S
C1244 N1251 1.356 . S
C1245 C1244 1.363 . S
C1245 C1248 1.363 . S
N1246 C1248 1.356 . S
N1246 H1258 0.984 . S
N1246 H1259 0.985 . S
N1247 C1249 1.356 . S
N1247 H1252 0.984 . S
N1247 H1253 0.985 . S
C1248 C1242 1.379 . S
C1248 C1245 1.363 . S
C1248 N1246 1.356 . S
C1249 C1243 1.363 . S
C1249 C1244 1.379 . S
C1249 N1247 1.356 . S
N1250 C1242 1.356 . S
N1250 H1256 0.988 . S
N1250 H1257 0.984 1_554 S
N1251 C1244 1.356 . S
N1251 H1254 0.984 . S
N1251 H1255 0.985 . S
H1252 N1247 0.984 . S
H1253 N1247 0.985 . S
H1254 N1251 0.984 . S
H1255 N1251 0.985 . S
H1256 N1250 0.988 . S
H1257 N1250 0.984 1_556 S
H1258 N1246 0.984 . S
H1259 N1246 0.985 . S
C1260 C1261 1.363 . S
C1260 C1266 1.379 . S
C1260 N1268 1.356 . S
C1261 C1260 1.363 . S
C1261 C1267 1.363 . S
C1262 C1263 1.363 . S
C1262 C1267 1.379 . S
C1262 N1269 1.356 . S
C1263 C1262 1.363 . S
C1263 C1266 1.363 . S
N1264 C1266 1.356 . S
N1264 H1276 0.984 . S
N1264 H1277 0.985 . S
N1265 C1267 1.356 . S
N1265 H1270 0.984 . S
N1265 H1271 0.985 . S
C1266 C1260 1.379 . S
C1266 C1263 1.363 . S
C1266 N1264 1.356 . S
C1267 C1261 1.363 . S
C1267 C1262 1.379 . S
C1267 N1265 1.356 . S
N1268 C1260 1.356 . S
N1268 H1274 0.984 . S
N1268 H1275 0.984 . S
N1269 C1262 1.356 . S
N1269 H1272 0.984 . S
N1269 H1273 0.985 . S
H1270 N1265 0.984 . S
H1271 N1265 0.985 . S
H1272 N1269 0.984 . S
H1273 N1269 0.985 . S
H1274 N1268 0.984 . S
H1275 N1268 0.984 . S
H1276 N1264 0.984 . S
H1277 N1264 0.985 . S
C1278 C1279 1.363 . S
C1278 C1284 1.379 . S
C1278 N1286 1.356 . S
C1279 C1278 1.363 . S
C1279 C1285 1.363 . S
C1280 C1281 1.363 . S
C1280 C1285 1.379 . S
C1280 N1287 1.356 . S
C1281 C1280 1.363 . S
C1281 C1284 1.363 . S
N1282 C1284 1.356 . S
N1282 H1294 0.984 . S
N1282 H1295 0.985 1_556 S
N1283 C1285 1.356 . S
N1283 H1288 0.984 . S
N1283 H1289 0.985 . S
C1284 C1278 1.379 . S
C1284 C1281 1.363 . S
C1284 N1282 1.356 . S
C1285 C1279 1.363 . S
C1285 C1280 1.379 . S
C1285 N1283 1.356 . S
N1286 C1278 1.356 . S
N1286 H1292 0.984 . S
N1286 H1293 0.984 . S
N1287 C1280 1.356 . S
N1287 H1290 0.984 . S
N1287 H1291 0.985 . S
H1288 N1283 0.984 . S
H1289 N1283 0.985 . S
H1290 N1287 0.984 . S
H1291 N1287 0.985 . S
H1292 N1286 0.984 . S
H1293 N1286 0.984 . S
H1294 N1282 0.984 . S
H1295 N1282 0.985 1_554 S
C1296 C1297 1.363 . S
C1296 C1302 1.379 . S
C1296 N1304 1.356 . S
C1297 C1296 1.363 . S
C1297 C1303 1.363 . S
C1298 C1299 1.363 . S
C1298 C1303 1.379 . S
C1298 N1305 1.356 . S
C1299 C1298 1.363 . S
C1299 C1302 1.363 . S
N1300 C1302 1.356 . S
N1300 H1312 0.984 . S
N1300 H1313 0.985 . S
N1301 C1303 1.356 . S
N1301 H1306 0.984 . S
N1301 H1307 0.985 . S
C1302 C1296 1.379 . S
C1302 C1299 1.363 . S
C1302 N1300 1.356 . S
C1303 C1297 1.363 . S
C1303 C1298 1.379 . S
C1303 N1301 1.356 . S
N1304 C1296 1.356 . S
N1304 H1310 0.984 . S
N1304 H1311 0.984 . S
N1305 C1298 1.356 . S
N1305 H1308 0.984 . S
N1305 H1309 0.985 . S
H1306 N1301 0.984 . S
H1307 N1301 0.985 . S
H1308 N1305 0.984 . S
H1309 N1305 0.985 . S
H1310 N1304 0.984 . S
H1311 N1304 0.984 . S
H1312 N1300 0.984 . S
H1313 N1300 0.985 . S
C1314 C1315 1.363 . S
C1314 C1320 1.379 . S
C1314 N1322 1.356 . S
C1315 C1314 1.363 . S
C1315 C1321 1.363 . S
C1316 C1317 1.363 . S
C1316 C1321 1.379 . S
C1316 N1323 1.356 . S
C1317 C1316 1.363 . S
C1317 C1320 1.363 . S
N1318 C1320 1.356 . S
N1318 H1330 0.984 . S
N1318 H1331 0.985 . S
N1319 C1321 1.356 . S
N1319 H1324 0.984 . S
N1319 H1325 0.985 . S
C1320 C1314 1.379 . S
C1320 C1317 1.363 . S
C1320 N1318 1.356 . S
C1321 C1315 1.363 . S
C1321 C1316 1.379 . S
C1321 N1319 1.356 . S
N1322 C1314 1.356 . S
N1322 H1328 0.984 . S
N1322 H1329 0.984 . S
N1323 C1316 1.356 . S
N1323 H1326 0.984 . S
N1323 H1327 0.985 . S
H1324 N1319 0.984 . S
H1325 N1319 0.985 . S
H1326 N1323 0.984 . S
H1327 N1323 0.985 . S
H1328 N1322 0.984 . S
H1329 N1322 0.984 . S
H1330 N1318 0.984 . S
H1331 N1318 0.985 . S
C1332 C1333 1.363 . S
C1332 C1338 1.379 . S
C1332 N1340 1.356 . S
C1333 C1332 1.363 . S
C1333 C1339 1.363 1_455 S
C1334 C1335 1.363 . S
C1334 C1339 1.379 . S
C1334 N1341 1.356 . S
C1335 C1334 1.363 . S
C1335 C1338 1.363 1_655 S
N1336 C1338 1.356 . S
N1336 H1348 0.984 . S
N1336 H1349 0.985 1_455 S
N1337 C1339 1.356 . S
N1337 H1342 0.984 1_655 S
N1337 H1343 0.985 . S
C1338 C1332 1.379 . S
C1338 C1335 1.363 1_455 S
C1338 N1336 1.356 . S
C1339 C1333 1.363 1_655 S
C1339 C1334 1.379 . S
C1339 N1337 1.356 . S
N1340 C1332 1.356 . S
N1340 H1346 0.984 . S
N1340 H1347 0.984 . S
N1341 C1334 1.356 . S
N1341 H1344 0.984 . S
N1341 H1345 0.985 . S
H1342 N1337 0.984 1_455 S
H1343 N1337 0.985 . S
H1344 N1341 0.984 . S
H1345 N1341 0.985 . S
H1346 N1340 0.984 . S
H1347 N1340 0.984 . S
H1348 N1336 0.984 . S
H1349 N1336 0.985 1_655 S
C1350 C1351 1.363 . S
C1350 C1356 1.379 . S
C1350 N1358 1.356 . S
C1351 C1350 1.363 . S
C1351 C1357 1.363 . S
C1352 C1353 1.363 . S
C1352 C1357 1.379 . S
C1352 N1359 1.356 . S
C1353 C1352 1.363 . S
C1353 C1356 1.363 . S
N1354 C1356 1.356 . S
N1354 H1366 0.984 . S
N1354 H1367 0.985 . S
N1355 C1357 1.356 . S
N1355 H1360 0.984 . S
N1355 H1361 0.985 . S
C1356 C1350 1.379 . S
C1356 C1353 1.363 . S
C1356 N1354 1.356 . S
C1357 C1351 1.363 . S
C1357 C1352 1.379 . S
C1357 N1355 1.356 . S
N1358 C1350 1.356 . S
N1358 H1364 0.984 . S
N1358 H1365 0.984 . S
N1359 C1352 1.356 . S
N1359 H1362 0.984 . S
N1359 H1363 0.985 . S
H1360 N1355 0.984 . S
H1361 N1355 0.985 . S
H1362 N1359 0.984 . S
H1363 N1359 0.985 . S
H1364 N1358 0.984 . S
H1365 N1358 0.984 . S
H1366 N1354 0.984 . S
H1367 N1354 0.985 . S
C1368 C1369 1.363 . S
C1368 C1374 1.379 . S
C1368 N1376 1.356 . S
C1369 C1368 1.363 . S
C1369 C1375 1.363 1_565 S
C1370 C1371 1.363 . S
C1370 C1375 1.379 . S
C1370 N1377 1.356 . S
C1371 C1370 1.363 . S
C1371 C1374 1.363 1_545 S
N1372 C1374 1.356 . S
N1372 H1384 0.984 . S
N1372 H1385 0.985 1_565 S
N1373 C1375 1.356 . S
N1373 H1378 0.984 1_545 S
N1373 H1379 0.985 . S
C1374 C1368 1.379 . S
C1374 C1371 1.363 1_565 S
C1374 N1372 1.356 . S
C1375 C1369 1.363 1_545 S
C1375 C1370 1.379 . S
C1375 N1373 1.356 . S
N1376 C1368 1.356 . S
N1376 H1382 0.984 . S
N1376 H1383 0.984 . S
N1377 C1370 1.356 . S
N1377 H1380 0.984 . S
N1377 H1381 0.985 . S
H1378 N1373 0.984 1_565 S
H1379 N1373 0.985 . S
H1380 N1377 0.984 . S
H1381 N1377 0.985 . S
H1382 N1376 0.984 . S
H1383 N1376 0.984 . S
H1384 N1372 0.984 . S
H1385 N1372 0.985 1_545 S
C1386 C1387 1.363 1_545 S
C1386 C1392 1.379 . S
C1386 N1394 1.356 . S
C1387 C1386 1.363 1_565 S
C1387 C1393 1.363 . S
C1388 C1389 1.363 1_565 S
C1388 C1393 1.379 . S
C1388 N1395 1.356 . S
C1389 C1388 1.363 1_545 S
C1389 C1392 1.363 . S
N1390 C1392 1.356 . S
N1390 H1402 0.984 . S
N1390 H1403 0.985 . S
N1391 C1393 1.356 . S
N1391 H1396 0.984 . S
N1391 H1397 0.985 . S
C1392 C1386 1.379 . S
C1392 C1389 1.363 . S
C1392 N1390 1.356 . S
C1393 C1387 1.363 . S
C1393 C1388 1.379 . S
C1393 N1391 1.356 . S
N1394 C1386 1.356 . S
N1394 H1400 0.984 . S
N1394 H1401 0.984 1_545 S
N1395 C1388 1.356 . S
N1395 H1398 0.984 1_565 S
N1395 H1399 0.985 . S
H1396 N1391 0.984 . S
H1397 N1391 0.985 . S
H1398 N1395 0.984 1_545 S
H1399 N1395 0.985 . S
H1400 N1394 0.984 . S
H1401 N1394 0.984 1_565 S
H1402 N1390 0.984 . S
H1403 N1390 0.985 . S
C1404 C1405 1.363 . S
C1404 C1410 1.379 . S
C1404 N1412 1.356 . S
C1405 C1404 1.363 . S
C1405 C1411 1.363 1_655 S
C1406 C1407 1.363 . S
C1406 C1411 1.379 . S
C1406 N1413 1.356 . S
C1407 C1406 1.363 . S
C1407 C1410 1.363 1_455 S
N1408 C1410 1.356 . S
N1408 H1420 0.984 . S
N1408 H1421 0.985 1_655 S
N1409 C1411 1.356 . S
N1409 H1414 0.984 1_455 S
N1409 H1415 0.985 . S
C1410 C1404 1.379 . S
C1410 C1407 1.363 1_655 S
C1410 N1408 1.356 . S
C1411 C1405 1.363 1_455 S
C1411 C1406 1.379 . S
C1411 N1409 1.356 . S
N1412 C1404 1.356 . S
N1412 H1418 0.984 . S
N1412 H1419 0.984 . S
N1413 C1406 1.356 . S
N1413 H1416 0.984 . S
N1413 H1417 0.985 . S
H1414 N1409 0.984 1_655 S
H1415 N1409 0.985 . S
H1416 N1413 0.984 . S
H1417 N1413 0.985 . S
H1418 N1412 0.984 . S
H1419 N1412 0.984 . S
H1420 N1408 0.984 . S
H1421 N1408 0.985 1_455 S
C1422 C1423 1.363 . S
C1422 C1428 1.379 . S
C1422 N1430 1.356 . S
C1423 C1422 1.363 . S
C1423 C1429 1.363 . S
C1424 C1425 1.363 . S
C1424 C1429 1.379 . S
C1424 N1431 1.356 . S
C1425 C1424 1.363 . S
C1425 C1428 1.363 . S
N1426 C1428 1.356 . S
N1426 H1438 0.984 . S
N1426 H1439 0.985 . S
N1427 C1429 1.356 . S
N1427 H1432 0.984 . S
N1427 H1433 0.985 . S
C1428 C1422 1.379 . S
C1428 C1425 1.363 . S
C1428 N1426 1.356 . S
C1429 C1423 1.363 . S
C1429 C1424 1.379 . S
C1429 N1427 1.356 . S
N1430 C1422 1.356 . S
N1430 H1436 0.984 . S
N1430 H1437 0.984 . S
N1431 C1424 1.356 . S
N1431 H1434 0.984 . S
N1431 H1435 0.985 . S
H1432 N1427 0.984 . S
H1433 N1427 0.985 . S
H1434 N1431 0.984 . S
H1435 N1431 0.985 . S
H1436 N1430 0.984 . S
H1437 N1430 0.984 . S
H1438 N1426 0.984 . S
H1439 N1426 0.985 . S
C1440 C1441 1.363 . S
C1440 C1446 1.379 . S
C1440 N1448 1.356 . S
C1441 C1440 1.363 . S
C1441 C1447 1.363 . S
C1442 C1443 1.363 . S
C1442 C1447 1.379 . S
C1442 N1449 1.356 . S
C1443 C1442 1.363 . S
C1443 C1446 1.363 . S
N1444 C1446 1.356 . S
N1444 H1456 0.984 . S
N1444 H1457 0.985 . S
N1445 C1447 1.356 . S
N1445 H1450 0.984 . S
N1445 H1451 0.985 . S
C1446 C1440 1.379 . S
C1446 C1443 1.363 . S
C1446 N1444 1.356 . S
C1447 C1441 1.363 . S
C1447 C1442 1.379 . S
C1447 N1445 1.356 . S
N1448 C1440 1.356 . S
N1448 H1454 0.984 . S
N1448 H1455 0.984 . S
N1449 C1442 1.356 . S
N1449 H1452 0.984 . S
N1449 H1453 0.985 . S
H1450 N1445 0.984 . S
H1451 N1445 0.985 . S
H1452 N1449 0.984 . S
H1453 N1449 0.985 . S
H1454 N1448 0.984 . S
H1455 N1448 0.984 . S
H1456 N1444 0.984 . S
H1457 N1444 0.985 . S
C1458 C1459 1.363 . S
C1458 C1464 1.379 . S
C1458 N1466 1.356 . S
C1459 C1458 1.363 . S
C1459 C1465 1.363 . S
C1460 C1461 1.363 . S
C1460 C1465 1.379 . S
C1460 N1467 1.356 . S
C1461 C1460 1.363 . S
C1461 C1464 1.363 . S
N1462 C1464 1.356 . S
N1462 H1474 0.984 . S
N1462 H1475 0.985 . S
N1463 C1465 1.356 . S
N1463 H1468 0.984 . S
N1463 H1469 0.985 . S
C1464 C1458 1.379 . S
C1464 C1461 1.363 . S
C1464 N1462 1.356 . S
C1465 C1459 1.363 . S
C1465 C1460 1.379 . S
C1465 N1463 1.356 . S
N1466 C1458 1.356 . S
N1466 H1472 0.984 . S
N1466 H1473 0.984 . S
N1467 C1460 1.356 . S
N1467 H1470 0.984 . S
N1467 H1471 0.985 . S
H1468 N1463 0.984 . S
H1469 N1463 0.985 . S
H1470 N1467 0.984 . S
H1471 N1467 0.985 . S
H1472 N1466 0.984 . S
H1473 N1466 0.984 . S
H1474 N1462 0.984 . S
H1475 N1462 0.985 . S
C1476 C1477 1.363 . S
C1476 C1482 1.379 . S
C1476 N1484 1.356 . S
C1477 C1476 1.363 . S
C1477 C1483 1.363 . S
C1478 C1479 1.363 . S
C1478 C1483 1.379 . S
C1478 N1485 1.356 . S
C1479 C1478 1.363 . S
C1479 C1482 1.363 . S
N1480 C1482 1.356 . S
N1480 H1492 0.984 . S
N1480 H1493 0.985 . S
N1481 C1483 1.356 . S
N1481 H1486 0.984 . S
N1481 H1487 0.985 . S
C1482 C1476 1.379 . S
C1482 C1479 1.363 . S
C1482 N1480 1.356 . S
C1483 C1477 1.363 . S
C1483 C1478 1.379 . S
C1483 N1481 1.356 . S
N1484 C1476 1.356 . S
N1484 H1490 0.984 . S
N1484 H1491 0.984 . S
N1485 C1478 1.356 . S
N1485 H1488 0.984 . S
N1485 H1489 0.985 . S
H1486 N1481 0.984 . S
H1487 N1481 0.985 . S
H1488 N1485 0.984 . S
H1489 N1485 0.985 . S
H1490 N1484 0.984 . S
H1491 N1484 0.984 . S
H1492 N1480 0.984 . S
H1493 N1480 0.985 . S
C1494 C1495 1.363 . S
C1494 C1500 1.379 . S
C1494 N1502 1.356 . S
C1495 C1494 1.363 . S
C1495 C1501 1.363 . S
C1496 C1497 1.363 . S
C1496 C1501 1.379 . S
C1496 N1503 1.356 . S
C1497 C1496 1.363 . S
C1497 C1500 1.363 . S
N1498 C1500 1.356 . S
N1498 H1510 0.984 . S
N1498 H1511 0.985 . S
N1499 C1501 1.356 . S
N1499 H1504 0.984 . S
N1499 H1505 0.985 . S
C1500 C1494 1.379 . S
C1500 C1497 1.363 . S
C1500 N1498 1.356 . S
C1501 C1495 1.363 . S
C1501 C1496 1.379 . S
C1501 N1499 1.356 . S
N1502 C1494 1.356 . S
N1502 H1508 0.984 . S
N1502 H1509 0.984 . S
N1503 C1496 1.356 . S
N1503 H1506 0.984 . S
N1503 H1507 0.985 . S
H1504 N1499 0.984 . S
H1505 N1499 0.985 . S
H1506 N1503 0.984 . S
H1507 N1503 0.985 . S
H1508 N1502 0.984 . S
H1509 N1502 0.984 . S
H1510 N1498 0.984 . S
H1511 N1498 0.985 . S
C1512 C1513 1.363 . S
C1512 C1518 1.379 . S
C1512 N1520 1.356 . S
C1513 C1512 1.363 . S
C1513 C1519 1.363 . S
C1514 C1515 1.363 . S
C1514 C1519 1.379 . S
C1514 N1521 1.356 . S
C1515 C1514 1.363 . S
C1515 C1518 1.363 . S
N1516 C1518 1.356 . S
N1516 H1528 0.984 . S
N1516 H1529 0.985 . S
N1517 C1519 1.356 . S
N1517 H1522 0.984 . S
N1517 H1523 0.985 . S
C1518 C1512 1.379 . S
C1518 C1515 1.363 . S
C1518 N1516 1.356 . S
C1519 C1513 1.363 . S
C1519 C1514 1.379 . S
C1519 N1517 1.356 . S
N1520 C1512 1.356 . S
N1520 H1526 0.984 . S
N1520 H1527 0.984 . S
N1521 C1514 1.356 . S
N1521 H1524 0.984 . S
N1521 H1525 0.985 . S
H1522 N1517 0.984 . S
H1523 N1517 0.985 . S
H1524 N1521 0.984 . S
H1525 N1521 0.985 . S
H1526 N1520 0.984 . S
H1527 N1520 0.984 . S
H1528 N1516 0.984 . S
H1529 N1516 0.985 . S
C1530 C1531 1.363 . S
C1530 C1536 1.379 . S
C1530 N1538 1.356 . S
C1531 C1530 1.363 . S
C1531 C1537 1.363 . S
C1532 C1533 1.363 . S
C1532 C1537 1.379 . S
C1532 N1539 1.356 . S
C1533 C1532 1.363 . S
C1533 C1536 1.363 . S
N1534 C1536 1.356 . S
N1534 H1546 0.984 . S
N1534 H1547 0.985 . S
N1535 C1537 1.356 . S
N1535 H1540 0.984 . S
N1535 H1541 0.985 . S
C1536 C1530 1.379 . S
C1536 C1533 1.363 . S
C1536 N1534 1.356 . S
C1537 C1531 1.363 . S
C1537 C1532 1.379 . S
C1537 N1535 1.356 . S
N1538 C1530 1.356 . S
N1538 H1544 0.984 . S
N1538 H1545 0.984 . S
N1539 C1532 1.356 . S
N1539 H1542 0.984 . S
N1539 H1543 0.985 . S
H1540 N1535 0.984 . S
H1541 N1535 0.985 . S
H1542 N1539 0.984 . S
H1543 N1539 0.985 . S
H1544 N1538 0.984 . S
H1545 N1538 0.984 . S
H1546 N1534 0.984 . S
H1547 N1534 0.985 . S
C1548 C1549 1.363 . S
C1548 C1554 1.379 . S
C1548 N1556 1.356 . S
C1549 C1548 1.363 . S
C1549 C1555 1.363 . S
C1550 C1551 1.363 . S
C1550 C1555 1.379 . S
C1550 N1557 1.356 . S
C1551 C1550 1.363 . S
C1551 C1554 1.363 . S
N1552 C1554 1.356 . S
N1552 H1564 0.984 . S
N1552 H1565 0.985 . S
N1553 C1555 1.356 . S
N1553 H1558 0.984 . S
N1553 H1559 0.985 . S
C1554 C1548 1.379 . S
C1554 C1551 1.363 . S
C1554 N1552 1.356 . S
C1555 C1549 1.363 . S
C1555 C1550 1.379 . S
C1555 N1553 1.356 . S
N1556 C1548 1.356 . S
N1556 H1562 0.984 . S
N1556 H1563 0.984 . S
N1557 C1550 1.356 . S
N1557 H1560 0.984 . S
N1557 H1561 0.985 . S
H1558 N1553 0.984 . S
H1559 N1553 0.985 . S
H1560 N1557 0.984 . S
H1561 N1557 0.985 . S
H1562 N1556 0.984 . S
H1563 N1556 0.984 . S
H1564 N1552 0.984 . S
H1565 N1552 0.985 . S
C1566 C1567 1.363 . S
C1566 C1572 1.379 . S
C1566 N1574 1.356 . S
C1567 C1566 1.363 . S
C1567 C1573 1.363 . S
C1568 C1569 1.363 . S
C1568 C1573 1.379 . S
C1568 N1575 1.356 . S
C1569 C1568 1.363 . S
C1569 C1572 1.363 . S
N1570 C1572 1.356 . S
N1570 H1582 0.984 . S
N1570 H1583 0.985 . S
N1571 C1573 1.356 . S
N1571 H1576 0.984 . S
N1571 H1577 0.985 . S
C1572 C1566 1.379 . S
C1572 C1569 1.363 . S
C1572 N1570 1.356 . S
C1573 C1567 1.363 . S
C1573 C1568 1.379 . S
C1573 N1571 1.356 . S
N1574 C1566 1.356 . S
N1574 H1580 0.984 . S
N1574 H1581 0.984 . S
N1575 C1568 1.356 . S
N1575 H1578 0.984 . S
N1575 H1579 0.985 . S
H1576 N1571 0.984 . S
H1577 N1571 0.985 . S
H1578 N1575 0.984 . S
H1579 N1575 0.985 . S
H1580 N1574 0.984 . S
H1581 N1574 0.984 . S
H1582 N1570 0.984 . S
H1583 N1570 0.985 . S
C1584 C1585 1.363 . S
C1584 C1590 1.379 . S
C1584 N1592 1.356 . S
C1585 C1584 1.363 . S
C1585 C1591 1.363 . S
C1586 C1587 1.363 . S
C1586 C1591 1.379 . S
C1586 N1593 1.356 . S
C1587 C1586 1.363 . S
C1587 C1590 1.363 . S
N1588 C1590 1.356 . S
N1588 H1600 0.984 . S
N1588 H1601 0.985 . S
N1589 C1591 1.356 . S
N1589 H1594 0.984 . S
N1589 H1595 0.985 . S
C1590 C1584 1.379 . S
C1590 C1587 1.363 . S
C1590 N1588 1.356 . S
C1591 C1585 1.363 . S
C1591 C1586 1.379 . S
C1591 N1589 1.356 . S
N1592 C1584 1.356 . S
N1592 H1598 0.984 . S
N1592 H1599 0.984 . S
N1593 C1586 1.356 . S
N1593 H1596 0.984 . S
N1593 H1597 0.985 . S
H1594 N1589 0.984 . S
H1595 N1589 0.985 . S
H1596 N1593 0.984 . S
H1597 N1593 0.985 . S
H1598 N1592 0.984 . S
H1599 N1592 0.984 . S
H1600 N1588 0.984 . S
H1601 N1588 0.985 . S
C1602 C1603 1.363 . S
C1602 C1608 1.379 . S
C1602 N1610 1.356 . S
C1603 C1602 1.363 . S
C1603 C1609 1.363 . S
C1604 C1605 1.363 . S
C1604 C1609 1.379 . S
C1604 N1611 1.356 . S
C1605 C1604 1.363 . S
C1605 C1608 1.363 . S
N1606 C1608 1.356 . S
N1606 H1618 0.984 . S
N1606 H1619 0.985 . S
N1607 C1609 1.356 . S
N1607 H1612 0.984 . S
N1607 H1613 0.985 . S
C1608 C1602 1.379 . S
C1608 C1605 1.363 . S
C1608 N1606 1.356 . S
C1609 C1603 1.363 . S
C1609 C1604 1.379 . S
C1609 N1607 1.356 . S
N1610 C1602 1.356 . S
N1610 H1616 0.984 . S
N1610 H1617 0.984 . S
N1611 C1604 1.356 . S
N1611 H1614 0.984 . S
N1611 H1615 0.985 . S
H1612 N1607 0.984 . S
H1613 N1607 0.985 . S
H1614 N1611 0.984 . S
H1615 N1611 0.985 . S
H1616 N1610 0.984 . S
H1617 N1610 0.984 . S
H1618 N1606 0.984 . S
H1619 N1606 0.985 . S
C1620 C1621 1.363 . S
C1620 C1626 1.379 . S
C1620 N1628 1.356 . S
C1621 C1620 1.363 . S
C1621 C1627 1.363 . S
C1622 C1623 1.363 . S
C1622 C1627 1.379 . S
C1622 N1629 1.356 . S
C1623 C1622 1.363 . S
C1623 C1626 1.363 . S
N1624 C1626 1.356 . S
N1624 H1636 0.984 . S
N1624 H1637 0.985 . S
N1625 C1627 1.356 . S
N1625 H1630 0.984 . S
N1625 H1631 0.985 . S
C1626 C1620 1.379 . S
C1626 C1623 1.363 . S
C1626 N1624 1.356 . S
C1627 C1621 1.363 . S
C1627 C1622 1.379 . S
C1627 N1625 1.356 . S
N1628 C1620 1.356 . S
N1628 H1634 0.984 . S
N1628 H1635 0.984 . S
N1629 C1622 1.356 . S
N1629 H1632 0.984 . S
N1629 H1633 0.985 . S
H1630 N1625 0.984 . S
H1631 N1625 0.985 . S
H1632 N1629 0.984 . S
H1633 N1629 0.985 . S
H1634 N1628 0.984 . S
H1635 N1628 0.984 . S
H1636 N1624 0.984 . S
H1637 N1624 0.985 . S
C1638 C1639 1.363 . S
C1638 C1644 1.379 . S
C1638 N1646 1.356 . S
C1639 C1638 1.363 . S
C1639 C1645 1.363 . S
C1640 C1641 1.363 . S
C1640 C1645 1.379 . S
C1640 N1647 1.356 . S
C1641 C1640 1.363 . S
C1641 C1644 1.363 . S
N1642 C1644 1.356 . S
N1642 H1654 0.984 . S
N1642 H1655 0.985 . S
N1643 C1645 1.356 . S
N1643 H1648 0.984 . S
N1643 H1649 0.985 . S
C1644 C1638 1.379 . S
C1644 C1641 1.363 . S
C1644 N1642 1.356 . S
C1645 C1639 1.363 . S
C1645 C1640 1.379 . S
C1645 N1643 1.356 . S
N1646 C1638 1.356 . S
N1646 H1652 0.984 . S
N1646 H1653 0.984 . S
N1647 C1640 1.356 . S
N1647 H1650 0.984 . S
N1647 H1651 0.985 . S
H1648 N1643 0.984 . S
H1649 N1643 0.985 . S
H1650 N1647 0.984 . S
H1651 N1647 0.985 . S
H1652 N1646 0.984 . S
H1653 N1646 0.984 . S
H1654 N1642 0.984 . S
H1655 N1642 0.985 . S
C1656 C1657 1.363 . S
C1656 C1662 1.379 1_456 S
C1656 N1664 1.356 . S
C1657 C1656 1.363 . S
C1657 C1663 1.363 . S
C1658 C1659 1.363 . S
C1658 C1663 1.379 1_654 S
C1658 N1665 1.356 . S
C1659 C1658 1.363 . S
C1659 C1662 1.363 . S
N1660 C1662 1.356 . S
N1660 H1672 0.984 . S
N1660 H1673 0.985 . S
N1661 C1663 1.356 . S
N1661 H1666 0.984 . S
N1661 H1667 0.985 . S
C1662 C1656 1.379 1_654 S
C1662 C1659 1.363 . S
C1662 N1660 1.356 . S
C1663 C1657 1.363 . S
C1663 C1658 1.379 1_456 S
C1663 N1661 1.356 . S
N1664 C1656 1.356 . S
N1664 H1670 0.984 . S
N1664 H1671 0.984 . S
N1665 C1658 1.356 . S
N1665 H1668 0.984 . S
N1665 H1669 0.985 . S
H1666 N1661 0.984 . S
H1667 N1661 0.985 . S
H1668 N1665 0.984 . S
H1669 N1665 0.985 . S
H1670 N1664 0.984 . S
H1671 N1664 0.984 . S
H1672 N1660 0.984 . S
H1673 N1660 0.985 . S
C1674 C1675 1.363 1_556 S
C1674 C1680 1.379 . S
C1674 N1682 1.356 . S
C1675 C1674 1.363 1_554 S
C1675 C1681 1.363 . S
C1676 C1677 1.363 1_554 S
C1676 C1681 1.379 . S
C1676 N1683 1.356 . S
C1677 C1676 1.363 1_556 S
C1677 C1680 1.363 . S
N1678 C1680 1.356 . S
N1678 H1690 0.984 . S
N1678 H1691 0.985 . S
N1679 C1681 1.356 . S
N1679 H1684 0.984 . S
N1679 H1685 0.985 . S
C1680 C1674 1.379 . S
C1680 C1677 1.363 . S
C1680 N1678 1.356 . S
C1681 C1675 1.363 . S
C1681 C1676 1.379 . S
C1681 N1679 1.356 . S
N1682 C1674 1.356 . S
N1682 H1688 0.983 . S
N1682 H1689 0.986 1_556 S
N1683 C1676 1.356 . S
N1683 H1686 0.986 1_554 S
N1683 H1687 0.983 . S
H1684 N1679 0.984 . S
H1685 N1679 0.985 . S
H1686 N1683 0.986 1_556 S
H1687 N1683 0.983 . S
H1688 N1682 0.983 . S
H1689 N1682 0.986 1_554 S
H1690 N1678 0.984 . S
H1691 N1678 0.985 . S
C1692 C1693 1.363 1_565 S
C1692 C1698 1.379 . S
C1692 N1700 1.356 . S
C1693 C1692 1.363 1_545 S
C1693 C1699 1.363 1_554 S
C1694 C1695 1.363 1_545 S
C1694 C1699 1.379 . S
C1694 N1701 1.356 . S
C1695 C1694 1.363 1_565 S
C1695 C1698 1.363 1_556 S
N1696 C1698 1.356 . S
N1696 H1708 0.984 . S
N1696 H1709 0.985 1_554 S
N1697 C1699 1.356 . S
N1697 H1702 0.984 1_556 S
N1697 H1703 0.985 . S
C1698 C1692 1.379 . S
C1698 C1695 1.363 1_554 S
C1698 N1696 1.356 . S
C1699 C1693 1.363 1_556 S
C1699 C1694 1.379 . S
C1699 N1697 1.356 . S
N1700 C1692 1.356 . S
N1700 H1706 0.984 . S
N1700 H1707 0.984 1_565 S
N1701 C1694 1.356 . S
N1701 H1704 0.984 1_545 S
N1701 H1705 0.985 . S
H1702 N1697 0.984 1_554 S
H1703 N1697 0.985 . S
H1704 N1701 0.984 1_565 S
H1705 N1701 0.985 . S
H1706 N1700 0.984 . S
H1707 N1700 0.984 1_545 S
H1708 N1696 0.984 . S
H1709 N1696 0.985 1_556 S
C1710 C1711 1.363 1_545 S
C1710 C1716 1.379 . S
C1710 N1718 1.356 . S
C1711 C1710 1.363 1_565 S
C1711 C1717 1.363 1_556 S
C1712 C1713 1.363 1_565 S
C1712 C1717 1.379 . S
C1712 N1719 1.356 . S
C1713 C1712 1.363 1_545 S
C1713 C1716 1.363 1_554 S
N1714 C1716 1.356 1_554 S
N1714 H1726 0.984 1_554 S
N1714 H1727 0.985 . S
N1715 C1717 1.356 1_556 S
N1715 H1720 0.984 . S
N1715 H1721 0.985 1_556 S
C1716 C1710 1.379 . S
C1716 C1713 1.363 1_556 S
C1716 N1714 1.356 1_556 S
C1717 C1711 1.363 1_554 S
C1717 C1712 1.379 . S
C1717 N1715 1.356 1_554 S
N1718 C1710 1.356 . S
N1718 H1724 0.984 . S
N1718 H1725 0.984 1_545 S
N1719 C1712 1.356 . S
N1719 H1722 0.984 1_565 S
N1719 H1723 0.985 . S
H1720 N1715 0.984 . S
H1721 N1715 0.985 1_554 S
H1722 N1719 0.984 1_545 S
H1723 N1719 0.985 . S
H1724 N1718 0.984 . S
H1725 N1718 0.984 1_565 S
H1726 N1714 0.984 1_556 S
H1727 N1714 0.985 . S
C1728 C1729 1.360 1_655 S
C1728 C1734 1.386 1_556 S
C1728 N1736 1.350 1_655 S
C1729 C1728 1.360 1_455 S
C1729 C1735 1.363 . S
C1730 C1731 1.361 1_455 S
C1730 C1735 1.384 1_554 S
C1730 N1737 1.352 1_455 S
C1731 C1730 1.361 1_655 S
C1731 C1734 1.363 . S
N1732 C1734 1.356 . S
N1732 H1744 0.984 . S
N1732 H1745 0.985 . S
N1733 C1735 1.356 . S
N1733 H1738 0.984 . S
N1733 H1739 0.985 . S
C1734 C1728 1.386 1_554 S
C1734 C1731 1.363 . S
C1734 N1732 1.356 . S
C1735 C1729 1.363 . S
C1735 C1730 1.384 1_556 S
C1735 N1733 1.356 . S
N1736 C1728 1.350 1_455 S
N1736 H1742 0.984 1_455 S
N1736 H1743 0.984 . S
N1737 C1730 1.352 1_655 S
N1737 H1740 0.984 . S
N1737 H1741 0.985 1_655 S
H1738 N1733 0.984 . S
H1739 N1733 0.985 . S
H1740 N1737 0.984 . S
H1741 N1737 0.985 1_455 S
H1742 N1736 0.984 1_655 S
H1743 N1736 0.984 . S
H1744 N1732 0.984 . S
H1745 N1732 0.985 . S
C1746 C1747 1.363 1_556 S
C1746 C1752 1.379 . S
C1746 N1754 1.357 . S
C1747 C1746 1.363 1_554 S
C1747 C1753 1.363 . S
C1748 C1749 1.363 1_554 S
C1748 C1753 1.379 . S
C1748 N1755 1.357 . S
C1749 C1748 1.363 1_556 S
C1749 C1752 1.363 . S
N1750 C1752 1.356 . S
N1750 H1762 0.984 . S
N1750 H1763 0.985 . S
N1751 C1753 1.356 . S
N1751 H1756 0.984 . S
N1751 H1757 0.985 . S
C1752 C1746 1.379 . S
C1752 C1749 1.363 . S
C1752 N1750 1.356 . S
C1753 C1747 1.363 . S
C1753 C1748 1.379 . S
C1753 N1751 1.356 . S
N1754 C1746 1.357 . S
N1754 H1760 0.991 . S
N1754 H1761 0.977 1_556 S
N1755 C1748 1.357 . S
N1755 H1758 0.977 1_554 S
N1755 H1759 0.991 . S
H1756 N1751 0.984 . S
H1757 N1751 0.985 . S
H1758 N1755 0.977 1_556 S
H1759 N1755 0.991 . S
H1760 N1754 0.991 . S
H1761 N1754 0.977 1_554 S
H1762 N1750 0.984 . S
H1763 N1750 0.985 . S
C469 C5 1.259 . S
C471 C148 1.259 . S
C487 C18 1.259 . S
C489 C122 1.259 . S
C505 C135 1.259 . S
C507 C31 1.259 . S
C523 C44 1.259 . S
C525 C96 1.259 . S
C541 C109 1.259 . S
C543 C57 1.259 . S
C559 C70 1.259 . S
C561 C83 1.259 . S
C577 C304 1.259 . S
C579 C161 1.259 . S
C595 C174 1.259 . S
C597 C278 1.259 . S
C613 C187 1.259 . S
C615 C291 1.259 . S
C631 C252 1.259 . S
C633 C200 1.259 . S
C649 C213 1.259 . S
C651 C265 1.259 . S
C667 C239 1.259 . S
C669 C226 1.259 . S
C685 C317 1.259 . S
C687 C460 1.259 . S
C703 C434 1.259 . S
C705 C330 1.259 . S
C721 C447 1.259 . S
C723 C343 1.259 . S
C739 C408 1.259 . S
C741 C356 1.259 . S
C757 C421 1.259 . S
C759 C369 1.259 . S
C775 C395 1.259 . S
C777 C382 1.259 . S
C793 C0 1.321 . S
C795 C52 1.321 . S
C811 C65 1.321 . S
C813 C13 1.321 . S
C829 C26 1.321 . S
C831 C39 1.321 . S
C847 C78 1.321 . S
C849 C130 1.321 . S
C865 C91 1.321 . S
C867 C143 1.321 . S
C883 C104 1.321 . S
C885 C117 1.321 . S
C901 C208 1.321 . S
C903 C156 1.321 . S
C919 C221 1.321 . S
C921 C169 1.322 . S
C937 C182 1.321 . S
C939 C195 1.321 . S
C955 C286 1.321 . S
C957 C234 1.321 . S
C973 C299 1.322 . S
C975 C247 1.322 . S
C991 C260 1.321 . S
C993 C273 1.321 . S
C1009 C364 1.321 . S
C1011 C312 1.321 . S
C1027 C325 1.322 . S
C1029 C377 1.322 . S
C1045 C338 1.321 . S
C1047 C351 1.321 . S
C1063 C442 1.321 . S
C1065 C390 1.321 . S
C1081 C403 1.322 . S
C1083 C455 1.321 . S
C1099 C429 1.321 . S
C1101 C416 1.321 . S
C1117 C385 1.305 . S
C1119 C8 1.305 . S
C1135 C21 1.305 . S
C1137 C359 1.305 . S
C1153 C34 1.305 . S
C1155 C372 1.305 . S
C1171 C47 1.305 . S
C1173 C177 1.305 . S
C1189 C190 1.305 . S
C1191 C60 1.305 . S
C1207 C164 1.305 . S
C1209 C73 1.305 . S
C1225 C86 1.305 . S
C1227 C307 1.305 . S
C1243 C99 1.305 . S
C1245 C281 1.305 . S
C1261 C112 1.305 . S
C1263 C294 1.305 . S
C1279 C411 1.305 . S
C1281 C125 1.305 . S
C1297 C424 1.305 . S
C1299 C138 1.305 . S
C1315 C151 1.305 . S
C1317 C398 1.305 . S
C1333 C333 1.305 . S
C1335 C203 1.305 . S
C1351 C216 1.305 . S
C1353 C346 1.305 . S
C1369 C320 1.305 . S
C1371 C229 1.305 . S
C1387 C463 1.305 . S
C1389 C242 1.305 . S
C1405 C255 1.305 . S
C1407 C437 1.305 . S
C1423 C268 1.305 . S
C1425 C450 1.305 . S
C1441 C10 1.606 . S
C1443 C387 1.606 . S
C1459 C361 1.606 . S
C1461 C23 1.606 . S
C1477 C36 1.606 . S
C1479 C374 1.606 . S
C1495 C179 1.606 . S
C1497 C49 1.606 . S
C1513 C62 1.606 . S
C1515 C192 1.606 . S
C1531 C75 1.606 . S
C1533 C166 1.606 . S
C1549 C309 1.606 . S
C1551 C88 1.606 . S
C1567 C101 1.606 . S
C1569 C283 1.606 . S
C1585 C114 1.606 . S
C1587 C296 1.606 . S
C1603 C127 1.606 . S
C1605 C413 1.606 . S
C1621 C426 1.606 . S
C1623 C140 1.606 . S
C1639 C153 1.606 . S
C1641 C400 1.606 . S
C1657 C335 1.606 . S
C1659 C205 1.606 . S
C1675 C218 1.607 . S
C1677 C348 1.607 . S
C1693 C231 1.606 . S
C1695 C322 1.606 . S
C1711 C465 1.606 . S
C1713 C244 1.606 . S
C1729 C439 1.606 . S
C1731 C257 1.606 . S
C1747 C270 1.607 . S
C1749 C452 1.607 . S
