# Generated by pormake.
# Topology unf, (4)-cn, num edge types: 1
# Building blocks:
#     Node 0, Type 0, BuildingBlock: AZAVOO_clean_sbu_0, # of connection points: 4
#     Node 1, Type 0, BuildingBlock: AZAVOO_clean_sbu_0, # of connection points: 4
#     Node 2, Type 0, BuildingBlock: AZAVOO_clean_sbu_0, # of connection points: 4
#     Node 3, Type 0, BuildingBlock: AZAVOO_clean_sbu_0, # of connection points: 4
#     Node 4, Type 0, BuildingBlock: AZAVOO_clean_sbu_0, # of connection points: 4
#     Node 5, Type 0, BuildingBlock: AZAVOO_clean_sbu_0, # of connection points: 4
#     Node 6, Type 0, BuildingBlock: AZAVOO_clean_sbu_0, # of connection points: 4
#     Node 7, Type 0, BuildingBlock: AZAVOO_clean_sbu_0, # of connection points: 4
#     Node 8, Type 0, BuildingBlock: AZAVOO_clean_sbu_0, # of connection points: 4
#     Node 9, Type 0, BuildingBlock: AZAVOO_clean_sbu_0, # of connection points: 4
#     Node 10, Type 0, BuildingBlock: AZAVOO_clean_sbu_0, # of connection points: 4
#     Node 11, Type 0, BuildingBlock: AZAVOO_clean_sbu_0, # of connection points: 4
#     Edge 12, Type (0, 0), BuildingBlock: UVAHIK_clean_linker_0, # of connection points: 2
#     Edge 13, Type (0, 0), BuildingBlock: UVAHIK_clean_linker_0, # of connection points: 2
#     Edge 14, Type (0, 0), BuildingBlock: UVAHIK_clean_linker_0, # of connection points: 2
#     Edge 15, Type (0, 0), BuildingBlock: UVAHIK_clean_linker_0, # of connection points: 2
#     Edge 16, Type (0, 0), BuildingBlock: UVAHIK_clean_linker_0, # of connection points: 2
#     Edge 17, Type (0, 0), BuildingBlock: UVAHIK_clean_linker_0, # of connection points: 2
#     Edge 18, Type (0, 0), BuildingBlock: UVAHIK_clean_linker_0, # of connection points: 2
#     Edge 19, Type (0, 0), BuildingBlock: UVAHIK_clean_linker_0, # of connection points: 2
#     Edge 20, Type (0, 0), BuildingBlock: UVAHIK_clean_linker_0, # of connection points: 2
#     Edge 21, Type (0, 0), BuildingBlock: UVAHIK_clean_linker_0, # of connection points: 2
#     Edge 22, Type (0, 0), BuildingBlock: UVAHIK_clean_linker_0, # of connection points: 2
#     Edge 23, Type (0, 0), BuildingBlock: UVAHIK_clean_linker_0, # of connection points: 2
#     Edge 24, Type (0, 0), BuildingBlock: UVAHIK_clean_linker_0, # of connection points: 2
#     Edge 25, Type (0, 0), BuildingBlock: UVAHIK_clean_linker_0, # of connection points: 2
#     Edge 26, Type (0, 0), BuildingBlock: UVAHIK_clean_linker_0, # of connection points: 2
#     Edge 27, Type (0, 0), BuildingBlock: UVAHIK_clean_linker_0, # of connection points: 2
#     Edge 28, Type (0, 0), BuildingBlock: UVAHIK_clean_linker_0, # of connection points: 2
#     Edge 29, Type (0, 0), BuildingBlock: UVAHIK_clean_linker_0, # of connection points: 2
#     Edge 30, Type (0, 0), BuildingBlock: UVAHIK_clean_linker_0, # of connection points: 2
#     Edge 31, Type (0, 0), BuildingBlock: UVAHIK_clean_linker_0, # of connection points: 2
#     Edge 32, Type (0, 0), BuildingBlock: UVAHIK_clean_linker_0, # of connection points: 2
#     Edge 33, Type (0, 0), BuildingBlock: UVAHIK_clean_linker_0, # of connection points: 2
#     Edge 34, Type (0, 0), BuildingBlock: UVAHIK_clean_linker_0, # of connection points: 2
#     Edge 35, Type (0, 0), BuildingBlock: UVAHIK_clean_linker_0, # of connection points: 2
# Relax obj value: 0.262
# Max RMSD: 0.202
# Mean RMSD: 0.202
data_MOF--net-unf--node1-AZAVOO_clean_sbu_0--edge1-UVAHIK_clean_linker_0
_symmetry_space_group_name_H-M    P1
_symmetry_Int_Tables_number       1
_symmetry_cell_setting            triclinic
loop_
_symmetry_equiv_pos_as_xyz
'x, y, z'
_cell_length_a     47.79426
_cell_length_b     47.760311
_cell_length_c     47.927701
_cell_angle_alpha  89.913325
_cell_angle_beta   90.239316
_cell_angle_gamma 119.99078
loop_
_atom_site_label
_atom_site_type_symbol
_atom_site_fract_x
_atom_site_fract_y
_atom_site_fract_z
_atom_type_partial_charge
Mg0 Mg 0.13115 0.41272 0.07584 0.0
O1 O 0.08593 0.36438 0.06567 0.0
O2 O 0.0967 0.32414 0.06993 0.0
Mg3 Mg 0.14805 0.3466 0.08698 0.0
C4 C 0.07749 0.33453 0.0639 0.0
C5 C 0.10901 0.45948 0.05575 0.0
O6 O 0.13715 0.4708 0.04347 0.0
O7 O 0.12233 0.40286 0.12257 0.0
O8 O 0.13306 0.36243 0.12661 0.0
O9 O 0.14859 0.41516 0.03218 0.0
O10 O 0.16055 0.39305 0.06738 0.0
C11 C 0.12467 0.38168 0.13715 0.0
C12 C 0.1622 0.39925 0.04113 0.0
O13 O 0.09992 0.4361 0.07274 0.0
Mg14 Mg 0.5737 0.69113 0.12378 0.0
O15 O 0.62123 0.69208 0.11156 0.0
O16 O 0.66442 0.74145 0.11733 0.0
Mg17 Mg 0.64543 0.7617 0.15013 0.0
C18 C 0.65131 0.71248 0.10814 0.0
C19 C 0.52696 0.63135 0.08971 0.0
O20 O 0.52027 0.65326 0.08044 0.0
O21 O 0.57397 0.6787 0.17025 0.0
O22 O 0.62523 0.71064 0.16611 0.0
O23 O 0.57884 0.71806 0.08495 0.0
O24 O 0.5998 0.74289 0.12509 0.0
C25 C 0.60092 0.69721 0.18191 0.0
C26 C 0.59644 0.74469 0.0985 0.0
O27 O 0.54662 0.63855 0.10998 0.0
Mg28 Mg 0.27362 0.89635 0.07716 0.0
O29 O 0.27385 0.94218 0.06106 0.0
O30 O 0.22459 0.93697 0.06267 0.0
Mg31 Mg 0.20055 0.89799 0.09589 0.0
C32 C 0.25416 0.95213 0.055 0.0
C33 C 0.33688 0.90643 0.05105 0.0
O34 O 0.31614 0.87748 0.04161 0.0
O35 O 0.28353 0.91191 0.12317 0.0
O36 O 0.24961 0.92826 0.11569 0.0
O37 O 0.24887 0.87245 0.03773 0.0
O38 O 0.22211 0.87079 0.07591 0.0
C39 C 0.26194 0.91724 0.13277 0.0
C40 C 0.22158 0.86389 0.04983 0.0
O41 O 0.327 0.92051 0.06741 0.0
Mg42 Mg 0.63926 0.93974 0.38881 0.0
O43 O 0.67807 0.97242 0.42067 0.0
O44 O 0.72294 0.96879 0.41714 0.0
Mg45 Mg 0.71733 0.94182 0.37629 0.0
C46 C 0.7062 0.97932 0.42922 0.0
C47 C 0.58057 0.9411 0.4136 0.0
O48 O 0.57037 0.90994 0.41376 0.0
O49 O 0.66311 0.97821 0.35507 0.0
O50 O 0.70924 0.98099 0.35668 0.0
O51 O 0.62582 0.89782 0.41674 0.0
O52 O 0.664 0.9131 0.38488 0.0
C53 C 0.68274 0.97119 0.34372 0.0
C54 C 0.64847 0.8944 0.40543 0.0
O55 O 0.60799 0.96028 0.40311 0.0
Mg56 Mg 0.07945 0.69451 0.37673 0.0
O57 O 0.04863 0.70266 0.40937 0.0
O58 O 0.05459 0.75226 0.40644 0.0
Mg59 Mg 0.07237 0.76651 0.36201 0.0
C60 C 0.04406 0.72512 0.41884 0.0
C61 C 0.0767 0.639 0.41283 0.0
O62 O 0.10606 0.66232 0.41874 0.0
O63 O 0.03958 0.67533 0.34345 0.0
O64 O 0.03272 0.7152 0.35343 0.0
O65 O 0.12272 0.72609 0.402 0.0
O66 O 0.10494 0.74574 0.36894 0.0
C67 C 0.0378 0.6995 0.33484 0.0
C68 C 0.12478 0.75095 0.38926 0.0
O69 O 0.06013 0.64408 0.39485 0.0
Mg70 Mg 0.28688 0.36896 0.3908 0.0
O71 O 0.28091 0.33006 0.4227 0.0
O72 O 0.2309 0.28687 0.42162 0.0
Mg73 Mg 0.20829 0.29241 0.38153 0.0
C74 C 0.2592 0.30272 0.43228 0.0
C75 C 0.35011 0.42496 0.41559 0.0
O76 O 0.32996 0.4356 0.42018 0.0
O77 O 0.29742 0.34319 0.35599 0.0
O78 O 0.25384 0.29783 0.36144 0.0
O79 O 0.26215 0.3855 0.41982 0.0
O80 O 0.23528 0.34612 0.3894 0.0
C81 C 0.26974 0.32287 0.34661 0.0
C82 C 0.23473 0.36326 0.40994 0.0
O83 O 0.34008 0.39848 0.40253 0.0
Mg84 Mg 0.85708 0.58229 0.91463 0.0
O85 O 0.90269 0.63065 0.92377 0.0
O86 O 0.89338 0.67135 0.91608 0.0
Mg87 Mg 0.84159 0.64876 0.90001 0.0
C88 C 0.91203 0.66078 0.92359 0.0
C89 C 0.87861 0.53573 0.93702 0.0
O90 O 0.85071 0.52524 0.94954 0.0
O91 O 0.86584 0.58989 0.86765 0.0
O92 O 0.85552 0.63033 0.86141 0.0
O93 O 0.83992 0.58196 0.95792 0.0
O94 O 0.82844 0.60316 0.92171 0.0
C95 C 0.86355 0.61034 0.852 0.0
C96 C 0.82676 0.59795 0.94816 0.0
O97 O 0.88765 0.55835 0.91923 0.0
Mg98 Mg 0.41779 0.3049 0.87793 0.0
O99 O 0.36944 0.30433 0.88479 0.0
O100 O 0.32714 0.25436 0.87951 0.0
Mg101 Mg 0.34908 0.23287 0.85092 0.0
C102 C 0.33923 0.28385 0.88703 0.0
C103 C 0.46425 0.36622 0.90947 0.0
O104 O 0.47154 0.34482 0.91897 0.0
O105 O 0.42063 0.31378 0.83062 0.0
O106 O 0.36856 0.28243 0.83093 0.0
O107 O 0.40924 0.2802 0.91862 0.0
O108 O 0.39259 0.25368 0.87855 0.0
C109 C 0.39455 0.29662 0.81716 0.0
C110 C 0.39332 0.25298 0.90546 0.0
O111 O 0.44396 0.35813 0.8896 0.0
Mg112 Mg 0.71846 0.08979 0.90839 0.0
O113 O 0.71876 0.04681 0.93044 0.0
O114 O 0.76844 0.05286 0.93203 0.0
Mg115 Mg 0.79261 0.08716 0.8955 0.0
C116 C 0.73872 0.03826 0.93925 0.0
C117 C 0.655 0.08131 0.93309 0.0
O118 O 0.67568 0.11058 0.9419 0.0
O119 O 0.70814 0.06687 0.86478 0.0
O120 O 0.74414 0.0544 0.87572 0.0
O121 O 0.74283 0.11976 0.9456 0.0
O122 O 0.77022 0.11604 0.91002 0.0
C123 C 0.73184 0.06383 0.85714 0.0
C124 C 0.77033 0.1268 0.93473 0.0
O125 O 0.66501 0.06654 0.91769 0.0
Mg126 Mg 0.35786 0.06273 0.60744 0.0
O127 O 0.32125 0.03116 0.57378 0.0
O128 O 0.27461 0.03146 0.57756 0.0
Mg129 Mg 0.27773 0.05698 0.61879 0.0
C130 C 0.29286 0.02306 0.56504 0.0
C131 C 0.41811 0.0638 0.58268 0.0
O132 O 0.42745 0.09475 0.58198 0.0
O133 O 0.33283 0.02187 0.63899 0.0
O134 O 0.28637 0.01836 0.63892 0.0
O135 O 0.37187 0.10645 0.58158 0.0
O136 O 0.33126 0.08754 0.61126 0.0
C137 C 0.31336 0.02854 0.65115 0.0
C138 C 0.34785 0.1081 0.59211 0.0
O139 O 0.39099 0.04425 0.59345 0.0
Mg140 Mg 0.92263 0.30501 0.62526 0.0
O141 O 0.95643 0.30115 0.593 0.0
O142 O 0.95236 0.25229 0.59298 0.0
Mg143 Mg 0.93156 0.23341 0.63594 0.0
C144 C 0.96281 0.28037 0.58243 0.0
C145 C 0.92415 0.36257 0.59375 0.0
O146 O 0.89459 0.33953 0.58804 0.0
O147 O 0.96027 0.32212 0.66039 0.0
O148 O 0.96939 0.28424 0.64834 0.0
O149 O 0.88146 0.27492 0.59736 0.0
O150 O 0.89811 0.25325 0.6296 0.0
C151 C 0.96251 0.29778 0.66765 0.0
C152 C 0.87935 0.24934 0.6087 0.0
O153 O 0.94136 0.35657 0.61025 0.0
Mg154 Mg 0.71225 0.62737 0.59529 0.0
O155 O 0.71921 0.66893 0.56613 0.0
O156 O 0.76585 0.71451 0.57495 0.0
Mg157 Mg 0.78524 0.70541 0.61537 0.0
C158 C 0.74001 0.69838 0.5606 0.0
C159 C 0.65403 0.57271 0.56235 0.0
O160 O 0.67603 0.56469 0.55685 0.0
O161 O 0.69436 0.64642 0.63041 0.0
O162 O 0.73609 0.69373 0.63246 0.0
O163 O 0.74345 0.61758 0.5677 0.0
O164 O 0.76328 0.65329 0.60201 0.0
C165 C 0.71978 0.66606 0.64352 0.0
C166 C 0.76839 0.63972 0.58093 0.0
O167 O 0.66125 0.5966 0.57834 0.0
C168 C 0.1756 0.38936 0.99282 0.0
C169 C 0.17719 0.38646 0.02189 0.0
C170 C 0.1898 0.37687 0.97496 0.0
C171 C 0.21767 0.31758 0.97297 0.0
H172 H 0.27463 0.37098 0.91389 0.0
C173 C 0.28454 0.27286 0.90239 0.0
C174 C 0.31767 0.29477 0.89875 0.0
C175 C 0.26441 0.28307 0.91406 0.0
C176 C 0.25873 0.35579 0.93029 0.0
H177 H 0.1957 0.36903 0.05501 0.0
H178 H 0.21997 0.34711 0.02404 0.0
H179 H 0.24448 0.39042 0.94101 0.0
H180 H 0.35544 0.34481 0.90402 0.0
H181 H 0.32037 0.36243 0.92462 0.0
H182 H 0.23267 0.28347 0.96306 0.0
C183 C 0.20732 0.35848 0.01497 0.0
C184 C 0.24126 0.36677 0.94559 0.0
C185 C 0.19341 0.3711 0.03273 0.0
C186 C 0.33007 0.32724 0.90656 0.0
C187 C 0.30991 0.33744 0.91815 0.0
C188 C 0.23498 0.30656 0.95763 0.0
C189 C 0.2056 0.36111 0.98593 0.0
C190 C 0.22114 0.34806 0.96749 0.0
C191 C 0.27694 0.31541 0.92226 0.0
C192 C 0.2562 0.32582 0.9365 0.0
H193 H 0.16332 0.40115 0.98386 0.0
H194 H 0.18814 0.3792 0.95262 0.0
H195 H 0.20203 0.30251 0.98955 0.0
H196 H 0.27413 0.24771 0.89647 0.0
H197 H 0.23903 0.26561 0.91674 0.0
C198 C 0.63942 0.80316 0.09558 0.0
C199 C 0.61327 0.77579 0.08345 0.0
C200 C 0.65553 0.83223 0.08077 0.0
C201 C 0.66473 0.86532 0.00856 0.0
H202 H 0.69821 0.9473 0.04717 0.0
C203 C 0.69367 0.98568 0.95641 0.0
C204 C 0.72647 0.00965 0.95755 0.0
C205 C 0.68208 0.95782 0.97262 0.0
C206 C 0.68915 0.92451 0.03627 0.0
H207 H 0.58283 0.75763 0.04667 0.0
H208 H 0.60964 0.8084 0.02146 0.0
H209 H 0.67301 0.89697 0.07391 0.0
H210 H 0.77265 0.02369 0.97712 0.0
H211 H 0.75184 0.97504 0.00632 0.0
H212 H 0.67941 0.8931 0.97082 0.0
C213 C 0.6188 0.80734 0.0419 0.0
C214 C 0.67488 0.89567 0.05151 0.0
C215 C 0.60317 0.7782 0.05647 0.0
C216 C 0.7473 0.00553 0.97575 0.0
C217 C 0.73547 0.9779 0.99247 0.0
C218 C 0.67836 0.89406 0.99336 0.0
C219 C 0.64542 0.83471 0.0537 0.0
C220 C 0.66216 0.86563 0.03781 0.0
C221 C 0.70288 0.95373 0.99071 0.0
C222 C 0.69043 0.92377 0.00709 0.0
H223 H 0.6478 0.80209 0.11634 0.0
H224 H 0.67615 0.85259 0.09046 0.0
H225 H 0.65609 0.84285 -0.00273 0.0
H226 H 0.67707 0.98809 0.9425 0.0
H227 H 0.65682 0.9394 0.97107 0.0
C228 C 0.16132 0.83682 0.04793 0.0
C229 C 0.19081 0.84728 0.03417 0.0
C230 C 0.1321 0.81952 0.03354 0.0
C231 C 0.09674 0.76747 0.97203 0.0
H232 H 0.02396 0.77964 0.9876 0.0
C233 C 0.95648 0.71745 0.9333 0.0
C234 C 0.94528 0.68405 0.93305 0.0
C235 C 0.98741 0.73923 0.94325 0.0
C236 C 0.04414 0.77617 0.98275 0.0
H237 H 0.21284 0.84852 0.99437 0.0
H238 H 0.16177 0.81852 0.96917 0.0
H239 H 0.07629 0.81554 0.00899 0.0
H240 H 0.95816 0.64746 0.94272 0.0
H241 H 0.01182 0.68538 0.96033 0.0
H242 H 0.06464 0.72821 0.94569 0.0
C243 C 0.16125 0.82334 0.99118 0.0
C244 C 0.07403 0.79652 0.99526 0.0
C245 C 0.1905 0.84067 0.00558 0.0
C246 C 0.96596 0.67301 0.94255 0.0
C247 C 0.99685 0.69478 0.9525 0.0
C248 C 0.06686 0.74713 0.95953 0.0
C249 C 0.13172 0.81228 0.00507 0.0
C250 C 0.10056 0.79215 0.99031 0.0
C251 C 0.00785 0.72812 0.95316 0.0
C252 C 0.04012 0.751 0.96501 0.0
H253 H 0.16071 0.84139 0.06998 0.0
H254 H 0.10978 0.81098 0.04495 0.0
H255 H 0.11662 0.76327 0.96797 0.0
H256 H 0.94129 0.72684 0.92601 0.0
H257 H 0.99534 0.76481 0.94315 0.0
C258 C 0.75268 0.74863 0.53416 0.0
C259 C 0.7329 0.71512 0.53797 0.0
C260 C 0.74418 0.76512 0.51494 0.0
C261 C 0.72742 0.7941 0.46596 0.0
H262 H 0.63707 0.77026 0.46629 0.0
C263 C 0.67954 0.86501 0.40286 0.0
C264 C 0.65753 0.87133 0.41691 0.0
C265 C 0.68822 0.84333 0.41401 0.0
C266 C 0.66241 0.77729 0.466 0.0
H267 H 0.68959 0.67238 0.52331 0.0
H268 H 0.67511 0.70113 0.4894 0.0
H269 H 0.65431 0.73746 0.49182 0.0
H270 H 0.62721 0.85978 0.45353 0.0
H271 H 0.64278 0.82261 0.47323 0.0
H272 H 0.73571 0.83494 0.44135 0.0
C273 C 0.69682 0.71475 0.50177 0.0
C274 C 0.67225 0.75819 0.48032 0.0
C275 C 0.70522 0.69825 0.52113 0.0
C276 C 0.64417 0.85536 0.44216 0.0
C277 C 0.65291 0.83383 0.45334 0.0
C278 C 0.71759 0.8133 0.45174 0.0
C279 C 0.71581 0.7485 0.49891 0.0
C280 C 0.70498 0.76671 0.48095 0.0
C281 C 0.67508 0.82758 0.43945 0.0
C282 C 0.68507 0.80549 0.4521 0.0
H283 H 0.77418 0.76244 0.54674 0.0
H284 H 0.75919 0.79115 0.51357 0.0
H285 H 0.75275 0.80109 0.46568 0.0
H286 H 0.68997 0.8767 0.38318 0.0
H287 H 0.70507 0.83877 0.40263 0.0
C288 C 0.17063 0.78888 0.41973 0.0
C289 C 0.1467 0.78386 0.40002 0.0
C290 C 0.18977 0.81926 0.43178 0.0
C291 C 0.18536 0.8879 0.45458 0.0
H292 H 0.27867 0.93095 0.46079 0.0
C293 C 0.2542 -0.00025 0.52487 0.0
C294 C 0.27999 0.00158 0.54048 0.0
C295 C 0.24059 0.97763 0.50294 0.0
C296 C 0.25259 0.91912 0.45953 0.0
H297 H 0.1253 0.80736 0.3765 0.0
H298 H 0.15784 0.86014 0.39862 0.0
H299 H 0.25011 0.88324 0.43114 0.0
H300 H 0.31217 0.98212 0.54505 0.0
H301 H 0.28763 0.94266 0.50792 0.0
H302 H 0.18717 0.92195 0.48431 0.0
C303 C 0.16177 0.84045 0.40446 0.0
C304 C 0.23635 0.892 0.44234 0.0
C305 C 0.14309 0.8102 0.39191 0.0
C306 C 0.29242 0.98144 0.53329 0.0
C307 C 0.27843 0.95891 0.51177 0.0
C308 C 0.20148 0.9146 0.47221 0.0
C309 C 0.18499 0.84508 0.4247 0.0
C310 C 0.20258 0.87592 0.44008 0.0
C311 C 0.25203 0.95637 0.4965 0.0
C312 C 0.2353 0.93025 0.47535 0.0
H313 H 0.17422 0.76917 0.42625 0.0
H314 H 0.20744 0.82226 0.44749 0.0
H315 H 0.15923 0.87562 0.45336 0.0
H316 H 0.24436 0.01527 0.52973 0.0
H317 H 0.22082 0.97698 0.49129 0.0
C318 C 0.98845 0.26693 0.54306 0.0
C319 C 0.98528 0.29016 0.55858 0.0
C320 C 0.0125 0.27653 0.52283 0.0
C321 C 0.09345 0.34061 0.51056 0.0
H322 H 0.08302 0.30621 0.43563 0.0
C323 C 0.20365 0.38032 0.44019 0.0
C324 C 0.20421 0.35677 0.4231 0.0
C325 C 0.17531 0.3741 0.4537 0.0
C326 C 0.08642 0.31576 0.45661 0.0
H327 H 0.00387 0.34162 0.5641 0.0
H328 H 0.04628 0.35823 0.52919 0.0
H329 H 0.03536 0.29113 0.46431 0.0
H330 H 0.1752 0.30848 0.40623 0.0
H331 H 0.12629 0.29686 0.43089 0.0
H332 H 0.14423 0.36376 0.50392 0.0
C333 C 0.03002 0.33267 0.53267 0.0
C334 C 0.0591 0.30728 0.47289 0.0
C335 C 0.00569 0.32311 0.55256 0.0
C336 C 0.17565 0.32709 0.41932 0.0
C337 C 0.14743 0.32056 0.4333 0.0
C338 C 0.12072 0.3486 0.49456 0.0
C339 C 0.03405 0.30948 0.51809 0.0
C340 C 0.06246 0.31963 0.5 0.0
C341 C 0.14697 0.34387 0.45094 0.0
C342 C 0.11764 0.33625 0.46738 0.0
H343 H 0.97296 0.24136 0.54708 0.0
H344 H 0.01527 0.25823 0.5119 0.0
H345 H 0.09665 0.34998 0.53162 0.0
H346 H 0.22517 0.40366 0.44315 0.0
H347 H 0.17576 0.39301 0.46644 0.0
C348 C 0.70452 0.72382 0.08845 0.0
C349 C 0.67165 0.70192 0.09345 0.0
C350 C 0.72371 0.71374 0.07478 0.0
C351 C 0.72822 0.64106 0.05675 0.0
H352 H 0.78455 0.69477 -0.00254 0.0
C353 C 0.8126 0.60853 0.99584 0.0
C354 C 0.81183 0.61144 0.9667 0.0
C355 C 0.79792 0.62101 0.01312 0.0
C356 C 0.76894 0.67954 0.01398 0.0
H357 H 0.63327 0.65217 0.08801 0.0
H358 H 0.66675 0.63477 0.06399 0.0
H359 H 0.75366 0.71339 0.02422 0.0
H360 H 0.79466 0.62929 0.93287 0.0
H361 H 0.76941 0.65112 0.9629 0.0
H362 H 0.74286 0.6068 0.04593 0.0
C363 C 0.67772 0.65963 0.07096 0.0
C364 C 0.75149 0.69032 0.02946 0.0
C365 C 0.65848 0.6697 0.08454 0.0
C366 C 0.7962 0.62709 0.95522 0.0
C367 C 0.78174 0.63968 0.97244 0.0
C368 C 0.7458 0.63033 0.04133 0.0
C369 C 0.71051 0.68155 0.0659 0.0
C370 C 0.73059 0.67098 0.05073 0.0
C371 C 0.78238 0.63673 0.00155 0.0
C372 C 0.76594 0.64925 0.01951 0.0
H373 H 0.71549 0.74879 0.09509 0.0
H374 H 0.74899 0.73111 0.07136 0.0
H375 H 0.71258 0.62582 0.07325 0.0
H376 H 0.82445 0.59657 0.00529 0.0
H377 H 0.7989 0.61853 0.03552 0.0
C378 C 0.35896 0.19263 0.90652 0.0
C379 C 0.37561 0.22219 0.92088 0.0
C380 C 0.34353 0.16346 0.92118 0.0
C381 C 0.34676 0.12845 0.98853 0.0
H382 H 0.26368 0.05686 0.96581 0.0
C383 C 0.24586 0.99458 0.03154 0.0
C384 C 0.26638 0.9825 0.03887 0.0
C385 C 0.25786 0.02371 0.01696 0.0
C386 C 0.28678 0.07672 0.97252 0.0
H387 H 0.38837 0.24439 0.96188 0.0
H388 H 0.36131 0.19353 0.98742 0.0
H389 H 0.28622 0.10844 0.94113 0.0
H390 H 0.31556 0.99146 0.03611 0.0
H391 H 0.33625 0.04197 0.01065 0.0
H392 H 0.34731 0.09695 0.02 0.0
C393 C 0.36055 0.19287 0.96483 0.0
C394 C 0.29982 0.10613 0.95824 0.0
C395 C 0.37592 0.22202 0.95019 0.0
C396 C 0.29904 5e-05 0.03098 0.0
C397 C 0.311 0.02914 0.0165 0.0
C398 C 0.33381 0.09908 0.00272 0.0
C399 C 0.34451 0.16326 0.95049 0.0
C400 C 0.33001 0.13227 0.96605 0.0
C401 C 0.29062 0.04142 0.0095 0.0
C402 C 0.30378 0.07283 0.99478 0.0
H403 H 0.35832 0.19194 0.88393 0.0
H404 H 0.33164 0.14102 0.90953 0.0
H405 H 0.37023 0.148 0.99487 0.0
H406 H 0.22058 0.9817 0.03727 0.0
H407 H 0.24162 0.0327 0.01202 0.0
C408 C 0.03845 0.28281 0.04027 0.0
C409 C 0.04465 0.31144 0.05375 0.0
C410 C 0.00783 0.26177 0.02934 0.0
C411 C 0.93133 0.25921 0.0085 0.0
H412 H 0.89962 0.16706 0.00396 0.0
C413 C 0.80159 0.16441 0.97367 0.0
C414 C 0.80072 0.14596 0.9505 0.0
C415 C 0.83056 0.18373 0.98791 0.0
C416 C 0.90828 0.19276 0.00515 0.0
H417 H 0.02345 0.33996 0.06733 0.0
H418 H 0.96963 0.30258 0.04958 0.0
H419 H 0.95119 0.20223 0.02695 0.0
H420 H 0.82949 0.13296 0.92444 0.0
H421 H 0.87983 0.16586 0.95001 0.0
H422 H 0.88766 0.24922 0.98738 0.0
C423 C 0.98861 0.29683 0.04638 0.0
C424 C 0.93792 0.21301 0.01811 0.0
C425 C 0.01943 0.31821 0.05676 0.0
C426 C 0.82927 0.14673 0.94223 0.0
C427 C 0.85807 0.16549 0.95687 0.0
C428 C 0.9014 0.23884 0.99609 0.0
C429 C 0.98246 0.26852 0.03215 0.0
C430 C 0.95008 0.24661 0.01966 0.0
C431 C 0.85899 0.18439 0.97961 0.0
C432 C 0.88984 0.20555 0.99405 0.0
H433 H 0.05753 0.27711 0.03741 0.0
H434 H 0.00437 0.24064 0.01808 0.0
H435 H 0.94002 0.28493 0.00869 0.0
H436 H 0.78002 0.16444 0.98046 0.0
H437 H 0.83079 0.19813 0.00545 0.0
C438 C 0.35892 0.15533 0.5621 0.0
C439 C 0.3387 0.13137 0.58115 0.0
C440 C 0.35 0.17676 0.55093 0.0
C441 C 0.27976 0.18151 0.53128 0.0
H442 H 0.3383 0.27406 0.52754 0.0
C443 C 0.24365 0.26311 0.47156 0.0
C444 C 0.26781 0.28777 0.4553 0.0
C445 C 0.25162 0.24678 0.49143 0.0
C446 C 0.32175 0.24825 0.52814 0.0
H447 H 0.29379 0.11192 0.60415 0.0
H448 H 0.27769 0.14867 0.58375 0.0
H449 H 0.35405 0.24005 0.5535 0.0
H450 H 0.31937 0.31529 0.44767 0.0
H451 H 0.33317 0.28606 0.48133 0.0
H452 H 0.2482 0.189 0.5047 0.0
C453 C 0.30047 0.1508 0.57764 0.0
C454 C 0.33074 0.22886 0.54316 0.0
C455 C 0.30967 0.12972 0.58922 0.0
C456 C 0.3002 0.2965 0.45998 0.0
C457 C 0.30812 0.2798 0.47947 0.0
C458 C 0.27098 0.20076 0.51586 0.0
C459 C 0.32049 0.17436 0.55829 0.0
C460 C 0.30997 0.19531 0.54456 0.0
C461 C 0.28388 0.25431 0.49513 0.0
C462 C 0.29204 0.23436 0.51374 0.0
H463 H 0.38157 0.15741 0.55562 0.0
H464 H 0.36573 0.1946 0.53588 0.0
H465 H 0.26349 0.15561 0.53182 0.0
H466 H 0.21849 0.25611 0.46866 0.0
H467 H 0.23236 0.22787 0.50355 0.0
C468 C 0.86186 0.19055 0.60285 0.0
C469 C 0.8581 0.21718 0.59625 0.0
C470 C 0.84323 0.16094 0.58925 0.0
C471 C 0.76801 0.11156 0.55132 0.0
H472 H 0.81541 0.08044 0.50819 0.0
C473 C 0.70921 0.0227 0.4603 0.0
C474 C 0.72044 0.00152 0.45321 0.0
C475 C 0.72416 0.04547 0.48152 0.0
C476 C 0.80161 0.08817 0.52057 0.0
H477 H 0.83067 0.23315 0.57135 0.0
H478 H 0.7976 0.18122 0.54824 0.0
H479 H 0.84446 0.12626 0.53953 0.0
H480 H 0.75511 0.98647 0.46373 0.0
H481 H 0.78041 0.0253 0.50156 0.0
H482 H 0.72511 0.07349 0.53277 0.0
C483 C 0.81528 0.18345 0.56362 0.0
C484 C 0.81835 0.11456 0.53844 0.0
C485 C 0.83435 0.21318 0.57674 0.0
C486 C 0.74616 0.00275 0.46851 0.0
C487 C 0.76077 0.02517 0.4901 0.0
C488 C 0.75116 0.08478 0.53387 0.0
C489 C 0.81995 0.15726 0.5694 0.0
C490 C 0.80177 0.12691 0.55343 0.0
C491 C 0.75037 0.04726 0.49656 0.0
C492 C 0.76781 0.07324 0.51767 0.0
H493 H 0.87963 0.19266 0.61799 0.0
H494 H 0.84709 0.14097 0.5941 0.0
H495 H 0.75472 0.12056 0.56291 0.0
H496 H 0.68956 0.02251 0.44879 0.0
H497 H 0.71578 0.06238 0.4854 0.0
C498 C 0.00141 0.68647 0.45125 0.0
C499 C 0.02359 0.71848 0.44376 0.0
C500 C 0.97895 0.68001 0.47234 0.0
C501 C 0.93839 0.71884 0.50753 0.0
H502 H 0.89819 0.63845 0.54913 0.0
C503 C 0.82791 0.67939 0.57974 0.0
C504 C 0.80135 0.64989 0.57114 0.0
C505 C 0.85874 0.68937 0.56923 0.0
C506 C 0.90942 0.6611 0.53778 0.0
H507 H 0.04135 0.76883 0.4539 0.0
H508 H 0.00304 0.7576 0.49155 0.0
H509 H 0.94754 0.65405 0.52292 0.0
H510 H 0.78646 0.60706 0.54583 0.0
H511 H 0.84043 0.62422 0.52804 0.0
H512 H 0.90011 0.72572 0.52261 0.0
C513 C 0.00209 0.73743 0.48042 0.0
C514 C 0.93752 0.66997 0.5226 0.0
C515 C 0.0242 0.7439 0.45896 0.0
C516 C 0.8064 0.63005 0.55267 0.0
C517 C 0.83728 0.6397 0.54265 0.0
C518 C 0.91067 0.71024 0.52315 0.0
C519 C 0.97849 0.70541 0.4868 0.0
C520 C 0.95179 0.69845 0.50652 0.0
C521 C 0.86359 0.66962 0.55055 0.0
C522 C 0.89546 0.68087 0.53771 0.0
H523 H 0.00025 0.66633 0.43986 0.0
H524 H 0.96094 0.65505 0.47624 0.0
H525 H 0.94825 0.74068 0.49514 0.0
H526 H 0.8249 0.69511 0.59408 0.0
H527 H 0.87876 0.71255 0.57559 0.0
C528 C 0.21967 0.31393 0.32234 0.0
C529 C 0.25075 0.33561 0.33246 0.0
C530 C 0.20123 0.32521 0.30901 0.0
C531 C 0.21038 0.39479 0.26902 0.0
H532 H 0.11673 0.34579 0.27095 0.0
C533 C 0.14004 0.41174 0.18216 0.0
C534 C 0.12311 0.38225 0.16779 0.0
C535 C 0.14906 0.41214 0.21005 0.0
C536 C 0.14286 0.36007 0.27051 0.0
H537 H 0.28701 0.38642 0.3362 0.0
H538 H 0.2546 0.40615 0.31318 0.0
H539 H 0.14789 0.33517 0.30561 0.0
H540 H 0.09853 0.33018 0.17192 0.0
H541 H 0.11351 0.33076 0.22052 0.0
H542 H 0.20541 0.41865 0.23323 0.0
C543 C 0.24451 0.38032 0.31554 0.0
C544 C 0.16073 0.35382 0.29017 0.0
C545 C 0.2631 0.36899 0.32874 0.0
C546 C 0.11168 0.35321 0.18259 0.0
C547 C 0.12022 0.35359 0.21049 0.0
C548 C 0.19252 0.40122 0.24954 0.0
C549 C 0.21341 0.35854 0.30536 0.0
C550 C 0.19468 0.36999 0.28877 0.0
C551 C 0.14077 0.38305 0.22393 0.0
C552 C 0.1586 0.38286 0.24926 0.0
H553 H 0.20968 0.28807 0.32445 0.0
H554 H 0.17779 0.30765 0.30077 0.0
H555 H 0.23643 0.40761 0.26714 0.0
H556 H 0.14925 0.43446 0.17113 0.0
H557 H 0.16465 0.43518 0.22002 0.0
C558 C 0.63162 0.73393 0.22105 0.0
C559 C 0.60176 0.7141 0.20796 0.0
C560 C 0.63441 0.75528 0.24208 0.0
C561 C 0.59726 0.80274 0.26167 0.0
H562 H 0.66128 0.83199 0.3209 0.0
C563 C 0.68939 0.92799 0.32061 0.0
C564 C 0.66884 0.93906 0.33008 0.0
C565 C 0.6767 0.89684 0.30989 0.0
C566 C 0.64328 0.82403 0.30446 0.0
H567 H 0.55076 0.69911 0.20825 0.0
H568 H 0.55565 0.73653 0.24524 0.0
H569 H 0.64556 0.78104 0.29709 0.0
H570 H 0.61863 0.92677 0.3336 0.0
H571 H 0.59653 0.87239 0.31436 0.0
H572 H 0.59578 0.84629 0.26849 0.0
C573 C 0.57699 0.73579 0.23888 0.0
C574 C 0.63423 0.79487 0.29089 0.0
C575 C 0.57416 0.71421 0.21785 0.0
C576 C 0.6352 0.91886 0.32696 0.0
C577 C 0.6225 0.88771 0.31598 0.0
C578 C 0.60622 0.83186 0.27534 0.0
C579 C 0.60736 0.75733 0.25052 0.0
C580 C 0.61196 0.78446 0.26869 0.0
C581 C 0.64315 0.87624 0.30779 0.0
C582 C 0.63012 0.84329 0.2962 0.0
H583 H 0.65326 0.73419 0.21397 0.0
H584 H 0.65822 0.77168 0.25038 0.0
H585 H 0.58031 0.79563 0.24445 0.0
H586 H 0.71539 0.94325 0.32192 0.0
H587 H 0.69322 0.88897 0.30298 0.0
C588 C 0.21546 0.8998 0.16526 0.0
C589 C 0.24202 0.89721 0.15629 0.0
C590 C 0.19423 0.87851 0.18515 0.0
C591 C 0.18455 0.81863 0.239 0.0
H592 H 0.09334 0.78485 0.22429 0.0
C593 C 0.08423 0.71349 0.30235 0.0
C594 C 0.05954 0.71887 0.31196 0.0
C595 C 0.10644 0.73423 0.28264 0.0
C596 C 0.11872 0.79421 0.22874 0.0
H597 H 0.2681 0.87125 0.16232 0.0
H598 H 0.23075 0.83376 0.19674 0.0
H599 H 0.13331 0.82444 0.19263 0.0
H600 H 0.03792 0.74915 0.30768 0.0
H601 H 0.07652 0.78518 0.27317 0.0
H602 H 0.16974 0.7881 0.27509 0.0
C603 C 0.22642 0.85239 0.18849 0.0
C604 C 0.14164 0.817 0.2107 0.0
C605 C 0.24778 0.87382 0.16866 0.0
C606 C 0.05677 0.74454 0.3007 0.0
C607 C 0.07878 0.76506 0.28088 0.0
C608 C 0.16157 0.79568 0.25699 0.0
C609 C 0.19903 0.85406 0.19649 0.0
C610 C 0.17483 0.82969 0.21573 0.0
C611 C 0.10411 0.7604 0.27195 0.0
C612 C 0.12844 0.78343 0.25213 0.0
H613 H 0.21061 0.91785 0.15641 0.0
H614 H 0.1738 0.88095 0.19138 0.0
H615 H 0.20992 0.82815 0.2436 0.0
H616 H 0.08703 0.69391 0.31062 0.0
H617 H 0.12555 0.7299 0.27587 0.0
C618 C 0.84818 0.57831 0.80797 0.0
C619 C 0.8652 0.60836 0.82146 0.0
C620 C 0.83945 0.5768 0.77985 0.0
C621 C 0.84622 0.6276 0.71787 0.0
H622 H 0.7526 0.57875 0.72005 0.0
C623 C 0.76839 0.67414 0.66992 0.0
C624 C 0.73856 0.65286 0.65737 0.0
C625 C 0.78685 0.66249 0.68256 0.0
C626 C 0.77871 0.59192 0.71859 0.0
H627 H 0.89024 0.66023 0.81566 0.0
H628 H 0.87563 0.65778 0.76683 0.0
H629 H 0.78357 0.56809 0.75443 0.0
H630 H 0.70422 0.60227 0.64918 0.0
H631 H 0.73648 0.58186 0.67171 0.0
H632 H 0.84114 0.65291 0.68308 0.0
C633 C 0.86867 0.63529 0.77761 0.0
C634 C 0.79655 0.58572 0.73828 0.0
C635 C 0.87698 0.63677 0.80568 0.0
C636 C 0.72724 0.61941 0.6584 0.0
C637 C 0.74572 0.60769 0.67123 0.0
C638 C 0.82837 0.6338 0.69817 0.0
C639 C 0.84802 0.60535 0.7649 0.0
C640 C 0.83045 0.6047 0.73907 0.0
C641 C 0.77578 0.62916 0.6834 0.0
C642 C 0.79443 0.6172 0.6993 0.0
H643 H 0.83874 0.55605 0.81976 0.0
H644 H 0.82386 0.55339 0.77048 0.0
H645 H 0.87232 0.64226 0.71769 0.0
H646 H 0.77748 0.69996 0.67011 0.0
H647 H 0.80942 0.67962 0.69249 0.0
C648 C 0.42312 0.28238 0.78086 0.0
C649 C 0.39538 0.28283 0.78982 0.0
C650 C 0.42107 0.26211 0.75892 0.0
C651 C 0.36542 0.20584 0.70418 0.0
H652 H 0.40026 0.15164 0.72787 0.0
C653 C 0.30736 0.07236 0.67404 0.0
C654 C 0.32751 0.06065 0.66489 0.0
C655 C 0.32053 0.10355 0.68483 0.0
C656 C 0.39085 0.16685 0.72067 0.0
H657 H 0.34479 0.26532 0.78101 0.0
H658 H 0.34111 0.23005 0.74314 0.0
H659 H 0.41639 0.20221 0.75224 0.0
H660 H 0.37743 0.07175 0.66225 0.0
H661 H 0.40032 0.12611 0.68164 0.0
H662 H 0.33849 0.1694 0.67359 0.0
C663 C 0.36446 0.24512 0.75282 0.0
C664 C 0.40022 0.19595 0.73451 0.0
C665 C 0.36649 0.26523 0.77471 0.0
C666 C 0.36116 0.08019 0.66852 0.0
C667 C 0.37433 0.11133 0.67961 0.0
C668 C 0.35588 0.17663 0.69049 0.0
C669 C 0.39133 0.24218 0.74551 0.0
C670 C 0.38678 0.21526 0.72703 0.0
C671 C 0.35414 0.12348 0.6874 0.0
C672 C 0.36772 0.15639 0.6992 0.0
H673 H 0.4458 0.29581 0.79201 0.0
H674 H 0.44234 0.26079 0.75342 0.0
H675 H 0.35507 0.22044 0.69758 0.0
H676 H 0.28133 0.0576 0.67243 0.0
H677 H 0.30436 0.11198 0.69145 0.0
C678 C 0.78148 0.08556 0.8278 0.0
C679 C 0.75321 0.08586 0.83518 0.0
C680 C 0.80314 0.10801 0.80876 0.0
C681 C 0.83003 0.18904 0.78179 0.0
H682 H 0.86934 0.16457 0.72321 0.0
C683 C 0.94324 0.25032 0.69912 0.0
C684 C 0.93978 0.27601 0.68897 0.0
C685 C 0.92045 0.22761 0.71728 0.0
C686 C 0.85893 0.17189 0.7397 0.0
H687 H 0.72485 0.1092 0.82743 0.0
H688 H 0.76285 0.14849 0.79432 0.0
H689 H 0.82884 0.12305 0.75334 0.0
H690 H 0.91011 0.29861 0.69051 0.0
H691 H 0.86997 0.25862 0.72187 0.0
H692 H 0.86049 0.23792 0.7686 0.0
C693 C 0.76834 0.13106 0.80354 0.0
C694 C 0.83564 0.14807 0.75685 0.0
C695 C 0.74652 0.10842 0.82239 0.0
C696 C 0.91356 0.27916 0.69806 0.0
C697 C 0.89057 0.25624 0.71608 0.0
C698 C 0.85352 0.21292 0.76478 0.0
C699 C 0.79703 0.13131 0.79682 0.0
C700 C 0.82102 0.15642 0.77808 0.0
C701 C 0.89352 0.22995 0.72559 0.0
C702 C 0.86835 0.20464 0.7436 0.0
H703 H 0.78718 0.06834 0.83715 0.0
H704 H 0.82516 0.10777 0.80403 0.0
H705 H 0.81943 0.19618 0.79826 0.0
H706 H 0.9634 0.24751 0.69264 0.0
H707 H 0.92389 0.20811 0.72471 0.0
C708 C 0.0543 0.45466 0.05613 0.0
C709 C 0.08638 0.47036 0.04661 0.0
C710 C 0.03191 0.46224 0.04478 0.0
C711 C 0.01704 0.49571 0.98087 0.0
H712 H 0.95226 0.50072 0.02553 0.0
C713 C 0.93309 0.54008 0.93696 0.0
C714 C 0.90106 0.52479 0.94657 0.0
C715 C 0.95533 0.53241 0.94851 0.0
C716 C 0.96993 0.49897 0.01271 0.0
H717 H 0.12046 0.50745 0.01867 0.0
H718 H 0.08151 0.52092 -0.00081 0.0
H719 H 0.99241 0.49107 0.04824 0.0
H720 H 0.8669 0.4884 0.97492 0.0
H721 H 0.90554 0.47467 0.9947 0.0
H722 H 0.99455 0.50354 0.94533 0.0
C723 C 0.07352 0.5023 0.01502 0.0
C724 C 0.99298 0.49353 0.02575 0.0
C725 C 0.09589 0.49474 0.02636 0.0
C726 C 0.89144 0.50077 0.96716 0.0
C727 C 0.91365 0.49308 0.97867 0.0
C728 C 0.99397 0.50111 0.96782 0.0
C729 C 0.04113 0.48568 0.02368 0.0
C730 C 0.01684 0.4919 0.00998 0.0
C731 C 0.946 0.50925 0.96987 0.0
C732 C 0.97015 0.50282 0.98359 0.0
H733 H 0.04616 0.43571 0.07167 0.0
H734 H 0.00709 0.44887 0.05179 0.0
H735 H 0.03474 0.49399 0.96806 0.0
H736 H 0.94133 0.55877 0.92118 0.0
H737 H 0.98011 0.54549 0.94139 0.0
C738 C 0.52915 0.58098 0.07967 0.0
C739 C 0.51641 0.60124 0.07364 0.0
C740 C 0.52279 0.55514 0.06206 0.0
C741 C 0.5001 0.52867 0.98915 0.0
H742 H 0.48642 0.44654 0.01701 0.0
C743 C 0.46162 0.41651 0.91888 0.0
C744 C 0.47481 0.39667 0.92501 0.0
C745 C 0.46793 0.44256 0.93623 0.0
C746 C 0.49063 0.4695 0.00889 0.0
H747 H 0.48563 0.60919 0.04521 0.0
H748 H 0.47409 0.56379 0.01481 0.0
H749 H 0.4927 0.48821 0.04987 0.0
H750 H 0.50644 0.38974 0.95326 0.0
H751 H 0.51778 0.43539 0.98321 0.0
H752 H 0.49796 0.50988 0.94816 0.0
C753 C 0.48959 0.56833 0.03279 0.0
C754 C 0.49414 0.49334 0.02773 0.0
C755 C 0.49598 0.59418 0.05036 0.0
C756 C 0.4957 0.4044 0.94804 0.0
C757 C 0.502 0.4304 0.96536 0.0
C758 C 0.49655 0.5048 0.9703 0.0
C759 C 0.50349 0.54894 0.03808 0.0
C760 C 0.49894 0.52322 0.0181 0.0
C761 C 0.48757 0.4493 0.96004 0.0
C762 C 0.49185 0.47497 0.97996 0.0
H763 H 0.54508 0.58581 0.09738 0.0
H764 H 0.53406 0.54082 0.06665 0.0
H765 H 0.50435 0.55164 0.98103 0.0
H766 H 0.44536 0.41117 0.90133 0.0
H767 H 0.45632 0.45656 0.93162 0.0
C768 C 0.39163 0.95589 0.04847 0.0
C769 C 0.37047 0.92361 0.04074 0.0
C770 C 0.42255 0.97294 0.03703 0.0
C771 C 0.46895 0.97338 0.97577 0.0
H772 H 0.54313 0.03181 0.02059 0.0
C773 C 0.59995 0.03227 0.93558 0.0
C774 C 0.6213 0.06456 0.94314 0.0
C775 C 0.56894 0.01559 0.94685 0.0
C776 C 0.52257 0.0159 0.00772 0.0
H777 H 0.36553 0.88361 0.01563 0.0
H778 H 0.41966 0.91327 0.99597 0.0
H779 H 0.49031 0.00093 0.04248 0.0
H780 H 0.62647 0.10497 0.96778 0.0
H781 H 0.57216 0.0759 0.98721 0.0
H782 H 0.50123 0.98829 0.94103 0.0
C783 C 0.41212 0.92555 0.01049 0.0
C784 C 0.49233 0.99816 0.02028 0.0
C785 C 0.38118 0.9085 0.0219 0.0
C786 C 0.61066 0.08007 0.96162 0.0
C787 C 0.57963 0.06337 0.97291 0.0
C788 C 0.49918 0.99109 0.96322 0.0
C789 C 0.43298 0.95807 0.01765 0.0
C790 C 0.4652 0.97667 0.00444 0.0
C791 C 0.5586 0.03082 0.96592 0.0
C792 C 0.52632 0.01253 0.97907 0.0
H793 H 0.38409 0.96827 0.06288 0.0
H794 H 0.43794 0.99805 0.04278 0.0
H795 H 0.44839 0.95745 0.96291 0.0
H796 H 0.60742 0.01959 0.92143 0.0
H797 H 0.5534 0.99045 0.94125 0.0
C798 C 0.57464 0.98742 0.43064 0.0
C799 C 0.56223 0.95391 0.42837 0.0
C800 C 0.55888 -0.00046 0.44689 0.0
C801 C 0.4809 0.97692 0.4805 0.0
H802 H 0.53382 0.04928 0.52931 0.0
C803 C 0.42498 0.01797 0.56592 0.0
C804 C 0.43689 0.05141 0.56801 0.0
C805 C 0.44095 0.00613 0.54962 0.0
C806 C 0.51874 0.02925 0.51563 0.0
H807 H 0.52299 0.90684 0.44068 0.0
H808 H 0.49565 0.928 0.46913 0.0
H809 H 0.55954 0.02879 0.49796 0.0
H810 H 0.47556 0.09868 0.55545 0.0
H811 H 0.50335 0.07798 0.52696 0.0
H812 H 0.4401 0.97733 0.49822 0.0
C813 C 0.51743 0.94491 0.4582 0.0
C814 C 0.53346 0.01757 0.49761 0.0
C815 C 0.53318 0.93278 0.44196 0.0
C816 C 0.46574 0.07278 0.55428 0.0
C817 C 0.48174 0.06093 0.53802 0.0
C818 C 0.46618 0.98858 0.49854 0.0
C819 C 0.53037 0.97842 0.46119 0.0
C820 C 0.5147 0.99126 0.47985 0.0
C821 C 0.46921 0.02747 0.53513 0.0
C822 C 0.48493 0.01484 0.51632 0.0
H823 H 0.59692 0.00435 0.42035 0.0
H824 H 0.56916 0.02548 0.4484 0.0
H825 H 0.4658 0.9569 0.46682 0.0
H826 H 0.40287 0.00084 0.57632 0.0
H827 H 0.431 0.98023 0.54819 0.0
C828 C 0.92036 0.3988 0.558 0.0
C829 C 0.93868 0.39333 0.57801 0.0
C830 C 0.93493 0.42594 0.54072 0.0
C831 C 0.0076 0.50652 0.53262 0.0
H832 H 0.9858 0.4921 0.45391 0.0
C833 C 0.0797 0.60388 0.45016 0.0
C834 C 0.06172 0.60889 0.42948 0.0
C835 C 0.06482 0.57712 0.46785 0.0
C836 C 0.99192 0.49661 0.47585 0.0
H837 H 0.98646 0.41278 0.59629 0.0
H838 H 0.01187 0.46009 0.56607 0.0
H839 H 0.95886 0.44744 0.48672 0.0
H840 H 0.0142 0.58918 0.41063 0.0
H841 H 0.98823 0.54264 0.44162 0.0
H842 H 0.04065 0.55569 0.52176 0.0
C843 C 0.98619 0.44346 0.56384 0.0
C844 C 0.97644 0.47104 0.49467 0.0
C845 C 0.97163 0.41629 0.58112 0.0
C846 C 0.02877 0.58599 0.42629 0.0
C847 C 0.01389 0.55924 0.44402 0.0
C848 C 0.02306 0.5321 0.51381 0.0
C849 C 0.96813 0.44825 0.54308 0.0
C850 C 0.98411 0.4757 0.52327 0.0
C851 C 0.03164 0.55477 0.46528 0.0
C852 C 0.01543 0.52743 0.48519 0.0
H853 H 0.89488 0.38168 0.55514 0.0
H854 H 0.92024 0.42927 0.52526 0.0
H855 H 0.01377 0.51097 0.55456 0.0
H856 H 0.10516 0.62097 0.45309 0.0
H857 H 0.07931 0.57404 0.48368 0.0
C858 C 0.39274 0.46934 0.44471 0.0
C859 C 0.38286 0.44173 0.42808 0.0
C860 C 0.42245 0.48357 0.45859 0.0
C861 C 0.50216 0.48896 0.45977 0.0
H862 H 0.50304 0.51288 0.53721 0.0
C863 C 0.61392 0.52942 0.53065 0.0
C864 C 0.6221 0.55583 0.5484 0.0
C865 C 0.58451 0.51472 0.5162 0.0
C866 C 0.50331 0.50666 0.51553 0.0
H867 H 0.39691 0.40799 0.41229 0.0
H868 H 0.44882 0.43288 0.43657 0.0
H869 H 0.45286 0.48989 0.51056 0.0
H870 H 0.60563 0.58727 0.56515 0.0
H871 H 0.55463 0.56193 0.53975 0.0
H872 H 0.55267 0.50595 0.46469 0.0
C873 C 0.4336 0.44358 0.43877 0.0
C874 C 0.47455 0.49351 0.50025 0.0
C875 C 0.40381 0.42926 0.42493 0.0
C876 C 0.60003 0.56688 0.55174 0.0
C877 C 0.57069 0.55224 0.53725 0.0
C878 C 0.53098 0.50223 0.47504 0.0
C879 C 0.443 0.47058 0.4561 0.0
C880 C 0.47367 0.4846 0.47219 0.0
C881 C 0.56268 0.52614 0.51915 0.0
C882 C 0.5319 0.51132 0.50308 0.0
H883 H 0.37726 0.47965 0.4475 0.0
H884 H 0.42927 0.50468 0.47143 0.0
H885 H 0.50231 0.48263 0.43811 0.0
H886 H 0.63034 0.52024 0.52769 0.0
H887 H 0.57886 0.49434 0.50276 0.0
loop_
_geom_bond_atom_site_label_1
_geom_bond_atom_site_label_2
_geom_bond_distance
_geom_bond_site_symmetry_2
_ccdc_geom_bond_type
Mg0 O1 2.028 . S
Mg0 O7 1.986 . S
Mg0 O9 2.114 . S
Mg0 O10 2.251 . S
Mg0 O13 2.010 . S
O1 Mg0 2.028 . S
O1 C4 1.250 . S
O2 Mg3 2.028 . S
O2 C4 1.248 . S
Mg3 O2 2.028 . S
Mg3 O8 2.032 . S
Mg3 O10 2.079 . S
C4 O1 1.250 . S
C4 O2 1.248 . S
C5 O6 1.264 . S
C5 O13 1.249 . S
O6 C5 1.264 . S
O7 Mg0 1.986 . S
O7 C11 1.246 . S
O8 Mg3 2.032 . S
O8 C11 1.259 . S
O9 Mg0 2.114 . S
O9 C12 1.252 . S
O10 Mg0 2.251 . S
O10 Mg3 2.079 . S
O10 C12 1.273 . S
C11 O7 1.246 . S
C11 O8 1.259 . S
C12 O9 1.252 . S
C12 O10 1.273 . S
O13 Mg0 2.010 . S
O13 C5 1.249 . S
Mg14 O15 2.028 . S
Mg14 O21 1.986 . S
Mg14 O23 2.114 . S
Mg14 O24 2.251 . S
Mg14 O27 2.010 . S
O15 Mg14 2.028 . S
O15 C18 1.250 . S
O16 Mg17 2.028 . S
O16 C18 1.248 . S
Mg17 O16 2.028 . S
Mg17 O22 2.032 . S
Mg17 O24 2.079 . S
C18 O15 1.250 . S
C18 O16 1.248 . S
C19 O20 1.264 . S
C19 O27 1.249 . S
O20 C19 1.264 . S
O21 Mg14 1.986 . S
O21 C25 1.246 . S
O22 Mg17 2.032 . S
O22 C25 1.259 . S
O23 Mg14 2.114 . S
O23 C26 1.252 . S
O24 Mg14 2.251 . S
O24 Mg17 2.079 . S
O24 C26 1.273 . S
C25 O21 1.246 . S
C25 O22 1.259 . S
C26 O23 1.252 . S
C26 O24 1.273 . S
O27 Mg14 2.010 . S
O27 C19 1.249 . S
Mg28 O29 2.028 . S
Mg28 O35 1.986 . S
Mg28 O37 2.114 . S
Mg28 O38 2.251 . S
Mg28 O41 2.010 . S
O29 Mg28 2.028 . S
O29 C32 1.250 . S
O30 Mg31 2.028 . S
O30 C32 1.248 . S
Mg31 O30 2.028 . S
Mg31 O36 2.032 . S
Mg31 O38 2.079 . S
C32 O29 1.250 . S
C32 O30 1.248 . S
C33 O34 1.264 . S
C33 O41 1.249 . S
O34 C33 1.264 . S
O35 Mg28 1.986 . S
O35 C39 1.246 . S
O36 Mg31 2.032 . S
O36 C39 1.259 . S
O37 Mg28 2.114 . S
O37 C40 1.252 . S
O38 Mg28 2.251 . S
O38 Mg31 2.079 . S
O38 C40 1.273 . S
C39 O35 1.246 . S
C39 O36 1.259 . S
C40 O37 1.252 . S
C40 O38 1.273 . S
O41 Mg28 2.010 . S
O41 C33 1.249 . S
Mg42 O43 2.028 . S
Mg42 O49 1.986 . S
Mg42 O51 2.114 . S
Mg42 O52 2.251 . S
Mg42 O55 2.010 . S
O43 Mg42 2.028 . S
O43 C46 1.250 . S
O44 Mg45 2.028 . S
O44 C46 1.248 . S
Mg45 O44 2.028 . S
Mg45 O50 2.032 . S
Mg45 O52 2.079 . S
C46 O43 1.250 . S
C46 O44 1.248 . S
C47 O48 1.264 . S
C47 O55 1.249 . S
O48 C47 1.264 . S
O49 Mg42 1.986 . S
O49 C53 1.246 . S
O50 Mg45 2.032 . S
O50 C53 1.259 . S
O51 Mg42 2.114 . S
O51 C54 1.252 . S
O52 Mg42 2.251 . S
O52 Mg45 2.079 . S
O52 C54 1.273 . S
C53 O49 1.246 . S
C53 O50 1.259 . S
C54 O51 1.252 . S
C54 O52 1.273 . S
O55 Mg42 2.010 . S
O55 C47 1.249 . S
Mg56 O57 2.028 . S
Mg56 O63 1.986 . S
Mg56 O65 2.114 . S
Mg56 O66 2.251 . S
Mg56 O69 2.010 . S
O57 Mg56 2.028 . S
O57 C60 1.250 . S
O58 Mg59 2.028 . S
O58 C60 1.248 . S
Mg59 O58 2.028 . S
Mg59 O64 2.032 . S
Mg59 O66 2.079 . S
C60 O57 1.250 . S
C60 O58 1.248 . S
C61 O62 1.264 . S
C61 O69 1.249 . S
O62 C61 1.264 . S
O63 Mg56 1.986 . S
O63 C67 1.246 . S
O64 Mg59 2.032 . S
O64 C67 1.259 . S
O65 Mg56 2.114 . S
O65 C68 1.252 . S
O66 Mg56 2.251 . S
O66 Mg59 2.079 . S
O66 C68 1.273 . S
C67 O63 1.246 . S
C67 O64 1.259 . S
C68 O65 1.252 . S
C68 O66 1.273 . S
O69 Mg56 2.010 . S
O69 C61 1.249 . S
Mg70 O71 2.028 . S
Mg70 O77 1.986 . S
Mg70 O79 2.114 . S
Mg70 O80 2.251 . S
Mg70 O83 2.010 . S
O71 Mg70 2.028 . S
O71 C74 1.250 . S
O72 Mg73 2.028 . S
O72 C74 1.248 . S
Mg73 O72 2.028 . S
Mg73 O78 2.032 . S
Mg73 O80 2.079 . S
C74 O71 1.250 . S
C74 O72 1.248 . S
C75 O76 1.264 . S
C75 O83 1.249 . S
O76 C75 1.264 . S
O77 Mg70 1.986 . S
O77 C81 1.246 . S
O78 Mg73 2.032 . S
O78 C81 1.259 . S
O79 Mg70 2.114 . S
O79 C82 1.252 . S
O80 Mg70 2.251 . S
O80 Mg73 2.079 . S
O80 C82 1.273 . S
C81 O77 1.246 . S
C81 O78 1.259 . S
C82 O79 1.252 . S
C82 O80 1.273 . S
O83 Mg70 2.010 . S
O83 C75 1.249 . S
Mg84 O85 2.028 . S
Mg84 O91 1.986 . S
Mg84 O93 2.114 . S
Mg84 O94 2.251 . S
Mg84 O97 2.010 . S
O85 Mg84 2.028 . S
O85 C88 1.250 . S
O86 Mg87 2.028 . S
O86 C88 1.248 . S
Mg87 O86 2.028 . S
Mg87 O92 2.032 . S
Mg87 O94 2.079 . S
C88 O85 1.250 . S
C88 O86 1.248 . S
C89 O90 1.264 . S
C89 O97 1.249 . S
O90 C89 1.264 . S
O91 Mg84 1.986 . S
O91 C95 1.246 . S
O92 Mg87 2.032 . S
O92 C95 1.259 . S
O93 Mg84 2.114 . S
O93 C96 1.252 . S
O94 Mg84 2.251 . S
O94 Mg87 2.079 . S
O94 C96 1.273 . S
C95 O91 1.246 . S
C95 O92 1.259 . S
C96 O93 1.252 . S
C96 O94 1.273 . S
O97 Mg84 2.010 . S
O97 C89 1.249 . S
Mg98 O99 2.028 . S
Mg98 O105 1.986 . S
Mg98 O107 2.114 . S
Mg98 O108 2.251 . S
Mg98 O111 2.010 . S
O99 Mg98 2.028 . S
O99 C102 1.250 . S
O100 Mg101 2.028 . S
O100 C102 1.248 . S
Mg101 O100 2.028 . S
Mg101 O106 2.032 . S
Mg101 O108 2.079 . S
C102 O99 1.250 . S
C102 O100 1.248 . S
C103 O104 1.264 . S
C103 O111 1.249 . S
O104 C103 1.264 . S
O105 Mg98 1.986 . S
O105 C109 1.246 . S
O106 Mg101 2.032 . S
O106 C109 1.259 . S
O107 Mg98 2.114 . S
O107 C110 1.252 . S
O108 Mg98 2.251 . S
O108 Mg101 2.079 . S
O108 C110 1.273 . S
C109 O105 1.246 . S
C109 O106 1.259 . S
C110 O107 1.252 . S
C110 O108 1.273 . S
O111 Mg98 2.010 . S
O111 C103 1.249 . S
Mg112 O113 2.028 . S
Mg112 O119 1.986 . S
Mg112 O121 2.114 . S
Mg112 O122 2.251 . S
Mg112 O125 2.010 . S
O113 Mg112 2.028 . S
O113 C116 1.250 . S
O114 Mg115 2.028 . S
O114 C116 1.248 . S
Mg115 O114 2.028 . S
Mg115 O120 2.032 . S
Mg115 O122 2.079 . S
C116 O113 1.250 . S
C116 O114 1.248 . S
C117 O118 1.264 . S
C117 O125 1.249 . S
O118 C117 1.264 . S
O119 Mg112 1.986 . S
O119 C123 1.246 . S
O120 Mg115 2.032 . S
O120 C123 1.259 . S
O121 Mg112 2.114 . S
O121 C124 1.252 . S
O122 Mg112 2.251 . S
O122 Mg115 2.079 . S
O122 C124 1.273 . S
C123 O119 1.246 . S
C123 O120 1.259 . S
C124 O121 1.252 . S
C124 O122 1.273 . S
O125 Mg112 2.010 . S
O125 C117 1.249 . S
Mg126 O127 2.028 . S
Mg126 O133 1.986 . S
Mg126 O135 2.114 . S
Mg126 O136 2.251 . S
Mg126 O139 2.010 . S
O127 Mg126 2.028 . S
O127 C130 1.250 . S
O128 Mg129 2.028 . S
O128 C130 1.248 . S
Mg129 O128 2.028 . S
Mg129 O134 2.032 . S
Mg129 O136 2.079 . S
C130 O127 1.250 . S
C130 O128 1.248 . S
C131 O132 1.264 . S
C131 O139 1.249 . S
O132 C131 1.264 . S
O133 Mg126 1.986 . S
O133 C137 1.246 . S
O134 Mg129 2.032 . S
O134 C137 1.259 . S
O135 Mg126 2.114 . S
O135 C138 1.252 . S
O136 Mg126 2.251 . S
O136 Mg129 2.079 . S
O136 C138 1.273 . S
C137 O133 1.246 . S
C137 O134 1.259 . S
C138 O135 1.252 . S
C138 O136 1.273 . S
O139 Mg126 2.010 . S
O139 C131 1.249 . S
Mg140 O141 2.028 . S
Mg140 O147 1.986 . S
Mg140 O149 2.114 . S
Mg140 O150 2.251 . S
Mg140 O153 2.010 . S
O141 Mg140 2.028 . S
O141 C144 1.250 . S
O142 Mg143 2.028 . S
O142 C144 1.248 . S
Mg143 O142 2.028 . S
Mg143 O148 2.032 . S
Mg143 O150 2.079 . S
C144 O141 1.250 . S
C144 O142 1.248 . S
C145 O146 1.264 . S
C145 O153 1.249 . S
O146 C145 1.264 . S
O147 Mg140 1.986 . S
O147 C151 1.246 . S
O148 Mg143 2.032 . S
O148 C151 1.259 . S
O149 Mg140 2.114 . S
O149 C152 1.252 . S
O150 Mg140 2.251 . S
O150 Mg143 2.079 . S
O150 C152 1.273 . S
C151 O147 1.246 . S
C151 O148 1.259 . S
C152 O149 1.252 . S
C152 O150 1.273 . S
O153 Mg140 2.010 . S
O153 C145 1.249 . S
Mg154 O155 2.028 . S
Mg154 O161 1.986 . S
Mg154 O163 2.114 . S
Mg154 O164 2.251 . S
Mg154 O167 2.010 . S
O155 Mg154 2.028 . S
O155 C158 1.250 . S
O156 Mg157 2.028 . S
O156 C158 1.248 . S
Mg157 O156 2.028 . S
Mg157 O162 2.032 . S
Mg157 O164 2.079 . S
C158 O155 1.250 . S
C158 O156 1.248 . S
C159 O160 1.264 . S
C159 O167 1.249 . S
O160 C159 1.264 . S
O161 Mg154 1.986 . S
O161 C165 1.246 . S
O162 Mg157 2.032 . S
O162 C165 1.259 . S
O163 Mg154 2.114 . S
O163 C166 1.252 . S
O164 Mg154 2.251 . S
O164 Mg157 2.079 . S
O164 C166 1.273 . S
C165 O161 1.246 . S
C165 O162 1.259 . S
C166 O163 1.252 . S
C166 O164 1.273 . S
O167 Mg154 2.010 . S
O167 C159 1.249 . S
C168 C169 1.349 . S
C168 C170 1.327 . S
C168 H193 0.950 . S
C169 C168 1.349 . S
C169 C185 1.349 . S
C170 C168 1.327 . S
C170 C189 1.429 . S
C170 H194 0.950 . S
C171 C188 1.574 . S
C171 C190 1.382 . S
C171 H195 0.949 . S
H172 C176 0.949 . S
C173 C174 1.349 . S
C173 C175 1.327 . S
C173 H196 0.950 . S
C174 C173 1.349 . S
C174 C186 1.349 . S
C175 C173 1.327 . S
C175 C191 1.429 . S
C175 H197 0.950 . S
C176 H172 0.949 . S
C176 C184 1.574 1_556 S
C176 C192 1.368 . S
H177 C185 0.950 . S
H178 C183 0.950 . S
H179 C184 0.949 . S
H180 C186 0.950 . S
H181 C187 0.950 . S
H182 C188 0.949 . S
C183 H178 0.950 . S
C183 C185 1.327 . S
C183 C189 1.429 . S
C184 C176 1.574 1_554 S
C184 H179 0.949 . S
C184 C190 1.364 1_554 S
C185 C169 1.349 . S
C185 H177 0.950 . S
C185 C183 1.327 . S
C186 C174 1.349 . S
C186 H180 0.950 . S
C186 C187 1.327 . S
C187 H181 0.950 . S
C187 C186 1.327 . S
C187 C191 1.429 . S
C188 C171 1.574 . S
C188 H182 0.949 . S
C188 C192 1.368 . S
C189 C170 1.429 . S
C189 C183 1.429 . S
C189 C190 1.511 1_554 S
C190 C171 1.382 . S
C190 C184 1.364 1_556 S
C190 C189 1.511 1_556 S
C191 C175 1.429 . S
C191 C187 1.429 . S
C191 C192 1.523 . S
C192 C176 1.368 . S
C192 C188 1.368 . S
C192 C191 1.523 . S
H193 C168 0.950 . S
H194 C170 0.950 . S
H195 C171 0.949 . S
H196 C173 0.950 . S
H197 C175 0.950 . S
C198 C199 1.349 . S
C198 C200 1.327 . S
C198 H223 0.950 . S
C199 C198 1.349 . S
C199 C215 1.349 . S
C200 C198 1.327 . S
C200 C219 1.429 . S
C200 H224 0.950 . S
C201 C218 1.574 . S
C201 C220 1.381 . S
C201 H225 0.949 . S
H202 C206 0.949 . S
C203 C204 1.349 1_565 S
C203 C205 1.327 . S
C203 H226 0.950 . S
C204 C203 1.349 1_545 S
C204 C216 1.349 . S
C205 C203 1.327 . S
C205 C221 1.429 . S
C205 H227 0.950 . S
C206 H202 0.949 . S
C206 C214 1.574 1_556 S
C206 C222 1.368 . S
H207 C215 0.950 . S
H208 C213 0.950 . S
H209 C214 0.949 . S
H210 C216 0.950 . S
H211 C217 0.950 . S
H212 C218 0.949 . S
C213 H208 0.950 . S
C213 C215 1.327 . S
C213 C219 1.429 . S
C214 C206 1.574 1_554 S
C214 H209 0.949 . S
C214 C220 1.365 1_554 S
C215 C199 1.349 . S
C215 H207 0.950 . S
C215 C213 1.327 . S
C216 C204 1.349 . S
C216 H210 0.950 . S
C216 C217 1.327 1_545 S
C217 H211 0.950 . S
C217 C216 1.327 1_565 S
C217 C221 1.429 . S
C218 C201 1.574 . S
C218 H212 0.949 . S
C218 C222 1.368 . S
C219 C200 1.429 . S
C219 C213 1.429 . S
C219 C220 1.511 1_554 S
C220 C201 1.381 . S
C220 C214 1.365 1_556 S
C220 C219 1.511 1_556 S
C221 C205 1.429 . S
C221 C217 1.429 . S
C221 C222 1.523 . S
C222 C206 1.368 . S
C222 C218 1.368 . S
C222 C221 1.523 . S
H223 C198 0.950 . S
H224 C200 0.950 . S
H225 C201 0.949 . S
H226 C203 0.950 . S
H227 C205 0.950 . S
C228 C229 1.349 . S
C228 C230 1.327 . S
C228 H253 0.950 . S
C229 C228 1.349 . S
C229 C245 1.349 . S
C230 C228 1.327 . S
C230 C249 1.429 . S
C230 H254 0.950 . S
C231 C248 1.574 . S
C231 C250 1.393 . S
C231 H255 0.949 . S
H232 C236 0.949 . S
C233 C234 1.349 1_455 S
C233 C235 1.327 . S
C233 H256 0.950 . S
C234 C233 1.349 1_655 S
C234 C246 1.349 . S
C235 C233 1.327 . S
C235 C251 1.429 . S
C235 H257 0.950 . S
C236 H232 0.949 . S
C236 C244 1.574 . S
C236 C252 1.368 1_554 S
H237 C245 0.950 . S
H238 C243 0.932 1_556 S
H239 C244 0.949 . S
H240 C246 0.950 . S
H241 C247 0.950 . S
H242 C248 0.949 . S
C243 H238 0.932 1_554 S
C243 C245 1.336 . S
C243 C249 1.437 . S
C244 C236 1.574 . S
C244 H239 0.949 . S
C244 C250 1.353 1_554 S
C245 C229 1.349 . S
C245 H237 0.950 . S
C245 C243 1.336 . S
C246 C234 1.349 . S
C246 H240 0.950 . S
C246 C247 1.327 1_655 S
C247 H241 0.950 . S
C247 C246 1.327 1_455 S
C247 C251 1.429 . S
C248 C231 1.574 . S
C248 H242 0.949 . S
C248 C252 1.368 . S
C249 C230 1.429 . S
C249 C243 1.437 . S
C249 C250 1.511 1_554 S
C250 C231 1.393 . S
C250 C244 1.353 1_556 S
C250 C249 1.511 1_556 S
C251 C235 1.429 . S
C251 C247 1.429 . S
C251 C252 1.523 . S
C252 C236 1.368 1_556 S
C252 C248 1.368 . S
C252 C251 1.523 . S
H253 C228 0.950 . S
H254 C230 0.950 . S
H255 C231 0.949 . S
H256 C233 0.950 . S
H257 C235 0.950 . S
C258 C259 1.349 . S
C258 C260 1.327 . S
C258 H283 0.950 . S
C259 C258 1.349 . S
C259 C275 1.349 . S
C260 C258 1.327 . S
C260 C279 1.429 . S
C260 H284 0.950 . S
C261 C278 1.574 . S
C261 C280 1.368 . S
C261 H285 0.949 . S
H262 C266 0.949 . S
C263 C264 1.349 . S
C263 C265 1.327 . S
C263 H286 0.950 . S
C264 C263 1.349 . S
C264 C276 1.349 . S
C265 C263 1.327 . S
C265 C281 1.429 . S
C265 H287 0.950 . S
C266 H262 0.949 . S
C266 C274 1.574 . S
C266 C282 1.368 . S
H267 C275 0.950 . S
H268 C273 0.950 . S
H269 C274 0.949 . S
H270 C276 0.950 . S
H271 C277 0.950 . S
H272 C278 0.949 . S
C273 H268 0.950 . S
C273 C275 1.327 . S
C273 C279 1.429 . S
C274 C266 1.574 . S
C274 H269 0.949 . S
C274 C280 1.368 . S
C275 C259 1.349 . S
C275 H267 0.950 . S
C275 C273 1.327 . S
C276 C264 1.349 . S
C276 H270 0.950 . S
C276 C277 1.327 . S
C277 H271 0.950 . S
C277 C276 1.327 . S
C277 C281 1.429 . S
C278 C261 1.574 . S
C278 H272 0.949 . S
C278 C282 1.368 . S
C279 C260 1.429 . S
C279 C273 1.429 . S
C279 C280 1.523 . S
C280 C261 1.368 . S
C280 C274 1.368 . S
C280 C279 1.523 . S
C281 C265 1.429 . S
C281 C277 1.429 . S
C281 C282 1.523 . S
C282 C266 1.368 . S
C282 C278 1.368 . S
C282 C281 1.523 . S
H283 C258 0.950 . S
H284 C260 0.950 . S
H285 C261 0.949 . S
H286 C263 0.950 . S
H287 C265 0.950 . S
C288 C289 1.349 . S
C288 C290 1.327 . S
C288 H313 0.950 . S
C289 C288 1.349 . S
C289 C305 1.349 . S
C290 C288 1.327 . S
C290 C309 1.429 . S
C290 H314 0.950 . S
C291 C308 1.574 . S
C291 C310 1.368 . S
C291 H315 0.949 . S
H292 C296 0.949 . S
C293 C294 1.349 . S
C293 C295 1.327 1_545 S
C293 H316 0.950 . S
C294 C293 1.349 . S
C294 C306 1.349 1_545 S
C295 C293 1.327 1_565 S
C295 C311 1.429 . S
C295 H317 0.950 . S
C296 H292 0.949 . S
C296 C304 1.574 . S
C296 C312 1.368 . S
H297 C305 0.950 . S
H298 C303 0.950 . S
H299 C304 0.949 . S
H300 C306 0.950 . S
H301 C307 0.950 . S
H302 C308 0.949 . S
C303 H298 0.950 . S
C303 C305 1.327 . S
C303 C309 1.429 . S
C304 C296 1.574 . S
C304 H299 0.949 . S
C304 C310 1.368 . S
C305 C289 1.349 . S
C305 H297 0.950 . S
C305 C303 1.327 . S
C306 C294 1.349 1_565 S
C306 H300 0.950 . S
C306 C307 1.327 . S
C307 H301 0.950 . S
C307 C306 1.327 . S
C307 C311 1.429 . S
C308 C291 1.574 . S
C308 H302 0.949 . S
C308 C312 1.368 . S
C309 C290 1.429 . S
C309 C303 1.429 . S
C309 C310 1.523 . S
C310 C291 1.368 . S
C310 C304 1.368 . S
C310 C309 1.523 . S
C311 C295 1.429 . S
C311 C307 1.429 . S
C311 C312 1.523 . S
C312 C296 1.368 . S
C312 C308 1.368 . S
C312 C311 1.523 . S
H313 C288 0.950 . S
H314 C290 0.950 . S
H315 C291 0.949 . S
H316 C293 0.950 . S
H317 C295 0.950 . S
C318 C319 1.349 1_455 S
C318 C320 1.325 . S
C318 H343 0.951 1_455 S
C319 C318 1.349 1_655 S
C319 C335 1.349 1_655 S
C320 C318 1.325 . S
C320 C339 1.429 . S
C320 H344 0.950 . S
C321 C338 1.574 . S
C321 C340 1.368 . S
C321 H345 0.949 . S
H322 C326 0.949 . S
C323 C324 1.349 . S
C323 C325 1.327 . S
C323 H346 0.950 . S
C324 C323 1.349 . S
C324 C336 1.349 . S
C325 C323 1.327 . S
C325 C341 1.429 . S
C325 H347 0.950 . S
C326 H322 0.949 . S
C326 C334 1.574 . S
C326 C342 1.368 . S
H327 C335 0.950 . S
H328 C333 0.950 . S
H329 C334 0.949 . S
H330 C336 0.950 . S
H331 C337 0.950 . S
H332 C338 0.949 . S
C333 H328 0.950 . S
C333 C335 1.327 . S
C333 C339 1.429 . S
C334 C326 1.574 . S
C334 H329 0.949 . S
C334 C340 1.368 . S
C335 C319 1.349 1_455 S
C335 H327 0.950 . S
C335 C333 1.327 . S
C336 C324 1.349 . S
C336 H330 0.950 . S
C336 C337 1.327 . S
C337 H331 0.950 . S
C337 C336 1.327 . S
C337 C341 1.429 . S
C338 C321 1.574 . S
C338 H332 0.949 . S
C338 C342 1.368 . S
C339 C320 1.429 . S
C339 C333 1.429 . S
C339 C340 1.523 . S
C340 C321 1.368 . S
C340 C334 1.368 . S
C340 C339 1.523 . S
C341 C325 1.429 . S
C341 C337 1.429 . S
C341 C342 1.523 . S
C342 C326 1.368 . S
C342 C338 1.368 . S
C342 C341 1.523 . S
H343 C318 0.951 1_655 S
H344 C320 0.950 . S
H345 C321 0.949 . S
H346 C323 0.950 . S
H347 C325 0.950 . S
C348 C349 1.349 . S
C348 C350 1.327 . S
C348 H373 0.950 . S
C349 C348 1.349 . S
C349 C365 1.349 . S
C350 C348 1.327 . S
C350 C369 1.429 . S
C350 H374 0.950 . S
C351 C368 1.574 1_554 S
C351 C370 1.368 . S
C351 H375 0.949 . S
H352 C356 0.949 . S
C353 C354 1.349 . S
C353 C355 1.327 . S
C353 H376 0.950 . S
C354 C353 1.349 . S
C354 C366 1.349 . S
C355 C353 1.327 . S
C355 C371 1.429 . S
C355 H377 0.950 . S
C356 H352 0.949 . S
C356 C364 1.574 . S
C356 C372 1.380 . S
H357 C365 0.950 . S
H358 C363 0.950 . S
H359 C364 0.949 . S
H360 C366 0.950 . S
H361 C367 0.950 . S
H362 C368 0.949 . S
C363 H358 0.950 . S
C363 C365 1.327 . S
C363 C369 1.429 . S
C364 C356 1.574 . S
C364 H359 0.949 . S
C364 C370 1.368 . S
C365 C349 1.349 . S
C365 H357 0.950 . S
C365 C363 1.327 . S
C366 C354 1.349 . S
C366 H360 0.950 . S
C366 C367 1.327 . S
C367 H361 0.950 . S
C367 C366 1.327 . S
C367 C371 1.429 . S
C368 C351 1.574 1_556 S
C368 H362 0.949 . S
C368 C372 1.366 1_556 S
C369 C350 1.429 . S
C369 C363 1.429 . S
C369 C370 1.523 . S
C370 C351 1.368 . S
C370 C364 1.368 . S
C370 C369 1.523 . S
C371 C355 1.429 . S
C371 C367 1.429 . S
C371 C372 1.511 1_556 S
C372 C356 1.380 . S
C372 C368 1.366 1_554 S
C372 C371 1.511 1_554 S
H373 C348 0.950 . S
H374 C350 0.950 . S
H375 C351 0.949 . S
H376 C353 0.950 . S
H377 C355 0.950 . S
C378 C379 1.349 . S
C378 C380 1.327 . S
C378 H403 0.950 . S
C379 C378 1.349 . S
C379 C395 1.349 . S
C380 C378 1.327 . S
C380 C399 1.429 . S
C380 H404 0.950 . S
C381 C398 1.574 . S
C381 C400 1.391 . S
C381 H405 0.949 . S
H382 C386 0.949 1_556 S
C383 C384 1.349 1_545 S
C383 C385 1.327 . S
C383 H406 0.950 . S
C384 C383 1.349 1_565 S
C384 C396 1.349 1_565 S
C385 C383 1.327 . S
C385 C401 1.429 . S
C385 H407 0.950 . S
C386 H382 0.949 1_554 S
C386 C394 1.574 1_554 S
C386 C402 1.368 . S
H387 C395 0.950 . S
H388 C393 0.950 1_554 S
H389 C394 0.949 . S
H390 C396 0.950 1_565 S
H391 C397 0.950 . S
H392 C398 0.949 . S
C393 H388 0.950 1_556 S
C393 C395 1.327 . S
C393 C399 1.429 . S
C394 C386 1.574 1_556 S
C394 H389 0.949 . S
C394 C400 1.355 1_556 S
C395 C379 1.349 . S
C395 H387 0.950 . S
C395 C393 1.327 . S
C396 C384 1.349 1_545 S
C396 H390 0.950 1_545 S
C396 C397 1.327 . S
C397 H391 0.950 . S
C397 C396 1.327 . S
C397 C401 1.429 . S
C398 C381 1.574 . S
C398 H392 0.949 . S
C398 C402 1.368 . S
C399 C380 1.429 . S
C399 C393 1.429 . S
C399 C400 1.511 1_556 S
C400 C381 1.391 . S
C400 C394 1.355 1_554 S
C400 C399 1.511 1_554 S
C401 C385 1.429 . S
C401 C397 1.429 . S
C401 C402 1.523 . S
C402 C386 1.368 . S
C402 C398 1.368 . S
C402 C401 1.523 . S
H403 C378 0.950 . S
H404 C380 0.950 . S
H405 C381 0.949 . S
H406 C383 0.950 . S
H407 C385 0.950 . S
C408 C409 1.349 . S
C408 C410 1.327 1_455 S
C408 H433 0.950 . S
C409 C408 1.349 . S
C409 C425 1.349 1_455 S
C410 C408 1.327 1_655 S
C410 C429 1.429 . S
C410 H434 0.950 . S
C411 C428 1.574 . S
C411 C430 1.368 . S
C411 H435 0.949 . S
H412 C416 0.949 . S
C413 C414 1.349 . S
C413 C415 1.327 . S
C413 H436 0.950 . S
C414 C413 1.349 . S
C414 C426 1.349 . S
C415 C413 1.327 . S
C415 C431 1.429 . S
C415 H437 0.950 1_556 S
C416 H412 0.949 . S
C416 C424 1.574 1_556 S
C416 C432 1.355 1_556 S
H417 C425 0.950 . S
H418 C423 0.950 . S
H419 C424 0.949 1_556 S
H420 C426 0.950 . S
H421 C427 0.950 . S
H422 C428 0.949 . S
C423 H418 0.950 . S
C423 C425 1.327 . S
C423 C429 1.429 . S
C424 C416 1.574 1_554 S
C424 H419 0.949 1_554 S
C424 C430 1.368 . S
C425 C409 1.349 1_655 S
C425 H417 0.950 . S
C425 C423 1.327 . S
C426 C414 1.349 . S
C426 H420 0.950 . S
C426 C427 1.327 . S
C427 H421 0.950 . S
C427 C426 1.327 . S
C427 C431 1.429 . S
C428 C411 1.574 . S
C428 H422 0.949 . S
C428 C432 1.391 . S
C429 C410 1.429 . S
C429 C423 1.429 . S
C429 C430 1.523 . S
C430 C411 1.368 . S
C430 C424 1.368 . S
C430 C429 1.523 . S
C431 C415 1.429 . S
C431 C427 1.429 . S
C431 C432 1.511 1_556 S
C432 C416 1.355 1_554 S
C432 C428 1.391 . S
C432 C431 1.511 1_554 S
H433 C408 0.950 . S
H434 C410 0.950 . S
H435 C411 0.949 . S
H436 C413 0.950 . S
H437 C415 0.950 1_554 S
C438 C439 1.349 . S
C438 C440 1.327 . S
C438 H463 0.950 . S
C439 C438 1.349 . S
C439 C455 1.349 . S
C440 C438 1.327 . S
C440 C459 1.429 . S
C440 H464 0.950 . S
C441 C458 1.574 . S
C441 C460 1.368 . S
C441 H465 0.949 . S
H442 C446 0.949 . S
C443 C444 1.349 . S
C443 C445 1.327 . S
C443 H466 0.950 . S
C444 C443 1.349 . S
C444 C456 1.349 . S
C445 C443 1.327 . S
C445 C461 1.429 . S
C445 H467 0.950 . S
C446 H442 0.949 . S
C446 C454 1.574 . S
C446 C462 1.368 . S
H447 C455 0.950 . S
H448 C453 0.950 . S
H449 C454 0.949 . S
H450 C456 0.950 . S
H451 C457 0.950 . S
H452 C458 0.949 . S
C453 H448 0.950 . S
C453 C455 1.327 . S
C453 C459 1.429 . S
C454 C446 1.574 . S
C454 H449 0.949 . S
C454 C460 1.368 . S
C455 C439 1.349 . S
C455 H447 0.950 . S
C455 C453 1.327 . S
C456 C444 1.349 . S
C456 H450 0.950 . S
C456 C457 1.327 . S
C457 H451 0.950 . S
C457 C456 1.327 . S
C457 C461 1.429 . S
C458 C441 1.574 . S
C458 H452 0.949 . S
C458 C462 1.368 . S
C459 C440 1.429 . S
C459 C453 1.429 . S
C459 C460 1.523 . S
C460 C441 1.368 . S
C460 C454 1.368 . S
C460 C459 1.523 . S
C461 C445 1.429 . S
C461 C457 1.429 . S
C461 C462 1.523 . S
C462 C446 1.368 . S
C462 C458 1.368 . S
C462 C461 1.523 . S
H463 C438 0.950 . S
H464 C440 0.950 . S
H465 C441 0.949 . S
H466 C443 0.950 . S
H467 C445 0.950 . S
C468 C469 1.349 . S
C468 C470 1.327 . S
C468 H493 0.950 . S
C469 C468 1.349 . S
C469 C485 1.349 . S
C470 C468 1.327 . S
C470 C489 1.429 . S
C470 H494 0.950 . S
C471 C488 1.574 . S
C471 C490 1.368 . S
C471 H495 0.949 . S
H472 C476 0.949 . S
C473 C474 1.349 1_545 S
C473 C475 1.327 . S
C473 H496 0.950 . S
C474 C473 1.349 1_565 S
C474 C486 1.349 1_565 S
C475 C473 1.327 . S
C475 C491 1.429 . S
C475 H497 0.950 . S
C476 H472 0.949 . S
C476 C484 1.574 . S
C476 C492 1.368 . S
H477 C485 0.950 . S
H478 C483 0.950 . S
H479 C484 0.949 . S
H480 C486 0.950 1_565 S
H481 C487 0.950 . S
H482 C488 0.949 . S
C483 H478 0.950 . S
C483 C485 1.327 . S
C483 C489 1.429 . S
C484 C476 1.574 . S
C484 H479 0.949 . S
C484 C490 1.368 . S
C485 C469 1.349 . S
C485 H477 0.950 . S
C485 C483 1.327 . S
C486 C474 1.349 1_545 S
C486 H480 0.950 1_545 S
C486 C487 1.327 . S
C487 H481 0.950 . S
C487 C486 1.327 . S
C487 C491 1.429 . S
C488 C471 1.574 . S
C488 H482 0.949 . S
C488 C492 1.368 . S
C489 C470 1.429 . S
C489 C483 1.429 . S
C489 C490 1.523 . S
C490 C471 1.368 . S
C490 C484 1.368 . S
C490 C489 1.523 . S
C491 C475 1.429 . S
C491 C487 1.429 . S
C491 C492 1.523 . S
C492 C476 1.368 . S
C492 C488 1.368 . S
C492 C491 1.523 . S
H493 C468 0.950 . S
H494 C470 0.950 . S
H495 C471 0.949 . S
H496 C473 0.950 . S
H497 C475 0.950 . S
C498 C499 1.349 1_655 S
C498 C500 1.327 . S
C498 H523 0.950 . S
C499 C498 1.349 1_455 S
C499 C515 1.349 1_455 S
C500 C498 1.327 . S
C500 C519 1.429 . S
C500 H524 0.950 . S
C501 C518 1.574 . S
C501 C520 1.368 . S
C501 H525 0.949 . S
H502 C506 0.949 . S
C503 C504 1.349 . S
C503 C505 1.327 . S
C503 H526 0.950 . S
C504 C503 1.349 . S
C504 C516 1.349 . S
C505 C503 1.327 . S
C505 C521 1.429 . S
C505 H527 0.950 . S
C506 H502 0.949 . S
C506 C514 1.574 . S
C506 C522 1.368 . S
H507 C515 0.950 . S
H508 C513 0.950 . S
H509 C514 0.949 . S
H510 C516 0.950 . S
H511 C517 0.950 . S
H512 C518 0.949 . S
C513 H508 0.950 . S
C513 C515 1.327 . S
C513 C519 1.429 . S
C514 C506 1.574 . S
C514 H509 0.949 . S
C514 C520 1.368 . S
C515 C499 1.349 1_655 S
C515 H507 0.950 . S
C515 C513 1.327 . S
C516 C504 1.349 . S
C516 H510 0.950 . S
C516 C517 1.327 . S
C517 H511 0.950 . S
C517 C516 1.327 . S
C517 C521 1.429 . S
C518 C501 1.574 . S
C518 H512 0.949 . S
C518 C522 1.368 . S
C519 C500 1.429 . S
C519 C513 1.429 . S
C519 C520 1.523 . S
C520 C501 1.368 . S
C520 C514 1.368 . S
C520 C519 1.523 . S
C521 C505 1.429 . S
C521 C517 1.429 . S
C521 C522 1.523 . S
C522 C506 1.368 . S
C522 C518 1.368 . S
C522 C521 1.523 . S
H523 C498 0.950 . S
H524 C500 0.950 . S
H525 C501 0.949 . S
H526 C503 0.950 . S
H527 C505 0.950 . S
C528 C529 1.349 . S
C528 C530 1.327 . S
C528 H553 0.950 . S
C529 C528 1.349 . S
C529 C545 1.349 . S
C530 C528 1.327 . S
C530 C549 1.429 . S
C530 H554 0.950 . S
C531 C548 1.574 . S
C531 C550 1.368 . S
C531 H555 0.949 . S
H532 C536 0.949 . S
C533 C534 1.349 . S
C533 C535 1.327 . S
C533 H556 0.950 . S
C534 C533 1.349 . S
C534 C546 1.349 . S
C535 C533 1.327 . S
C535 C551 1.429 . S
C535 H557 0.950 . S
C536 H532 0.949 . S
C536 C544 1.574 . S
C536 C552 1.368 . S
H537 C545 0.950 . S
H538 C543 0.950 . S
H539 C544 0.949 . S
H540 C546 0.950 . S
H541 C547 0.950 . S
H542 C548 0.949 . S
C543 H538 0.950 . S
C543 C545 1.327 . S
C543 C549 1.429 . S
C544 C536 1.574 . S
C544 H539 0.949 . S
C544 C550 1.368 . S
C545 C529 1.349 . S
C545 H537 0.950 . S
C545 C543 1.327 . S
C546 C534 1.349 . S
C546 H540 0.950 . S
C546 C547 1.327 . S
C547 H541 0.950 . S
C547 C546 1.327 . S
C547 C551 1.429 . S
C548 C531 1.574 . S
C548 H542 0.949 . S
C548 C552 1.368 . S
C549 C530 1.429 . S
C549 C543 1.429 . S
C549 C550 1.523 . S
C550 C531 1.368 . S
C550 C544 1.368 . S
C550 C549 1.523 . S
C551 C535 1.429 . S
C551 C547 1.429 . S
C551 C552 1.523 . S
C552 C536 1.368 . S
C552 C548 1.368 . S
C552 C551 1.523 . S
H553 C528 0.950 . S
H554 C530 0.950 . S
H555 C531 0.949 . S
H556 C533 0.950 . S
H557 C535 0.950 . S
C558 C559 1.349 . S
C558 C560 1.327 . S
C558 H583 0.950 . S
C559 C558 1.349 . S
C559 C575 1.349 . S
C560 C558 1.327 . S
C560 C579 1.429 . S
C560 H584 0.950 . S
C561 C578 1.574 . S
C561 C580 1.368 . S
C561 H585 0.949 . S
H562 C566 0.949 . S
C563 C564 1.349 . S
C563 C565 1.327 . S
C563 H586 0.950 . S
C564 C563 1.349 . S
C564 C576 1.349 . S
C565 C563 1.327 . S
C565 C581 1.429 . S
C565 H587 0.950 . S
C566 H562 0.949 . S
C566 C574 1.574 . S
C566 C582 1.368 . S
H567 C575 0.950 . S
H568 C573 0.950 . S
H569 C574 0.949 . S
H570 C576 0.950 . S
H571 C577 0.950 . S
H572 C578 0.949 . S
C573 H568 0.950 . S
C573 C575 1.327 . S
C573 C579 1.429 . S
C574 C566 1.574 . S
C574 H569 0.949 . S
C574 C580 1.368 . S
C575 C559 1.349 . S
C575 H567 0.950 . S
C575 C573 1.327 . S
C576 C564 1.349 . S
C576 H570 0.950 . S
C576 C577 1.327 . S
C577 H571 0.950 . S
C577 C576 1.327 . S
C577 C581 1.429 . S
C578 C561 1.574 . S
C578 H572 0.949 . S
C578 C582 1.368 . S
C579 C560 1.429 . S
C579 C573 1.429 . S
C579 C580 1.523 . S
C580 C561 1.368 . S
C580 C574 1.368 . S
C580 C579 1.523 . S
C581 C565 1.429 . S
C581 C577 1.429 . S
C581 C582 1.523 . S
C582 C566 1.368 . S
C582 C578 1.368 . S
C582 C581 1.523 . S
H583 C558 0.950 . S
H584 C560 0.950 . S
H585 C561 0.949 . S
H586 C563 0.950 . S
H587 C565 0.950 . S
C588 C589 1.349 . S
C588 C590 1.327 . S
C588 H613 0.950 . S
C589 C588 1.349 . S
C589 C605 1.349 . S
C590 C588 1.327 . S
C590 C609 1.429 . S
C590 H614 0.950 . S
C591 C608 1.574 . S
C591 C610 1.368 . S
C591 H615 0.949 . S
H592 C596 0.949 . S
C593 C594 1.349 . S
C593 C595 1.327 . S
C593 H616 0.950 . S
C594 C593 1.349 . S
C594 C606 1.349 . S
C595 C593 1.327 . S
C595 C611 1.429 . S
C595 H617 0.950 . S
C596 H592 0.949 . S
C596 C604 1.574 . S
C596 C612 1.368 . S
H597 C605 0.950 . S
H598 C603 0.950 . S
H599 C604 0.949 . S
H600 C606 0.950 . S
H601 C607 0.950 . S
H602 C608 0.949 . S
C603 H598 0.950 . S
C603 C605 1.327 . S
C603 C609 1.429 . S
C604 C596 1.574 . S
C604 H599 0.949 . S
C604 C610 1.368 . S
C605 C589 1.349 . S
C605 H597 0.950 . S
C605 C603 1.327 . S
C606 C594 1.349 . S
C606 H600 0.950 . S
C606 C607 1.327 . S
C607 H601 0.950 . S
C607 C606 1.327 . S
C607 C611 1.429 . S
C608 C591 1.574 . S
C608 H602 0.949 . S
C608 C612 1.368 . S
C609 C590 1.429 . S
C609 C603 1.429 . S
C609 C610 1.523 . S
C610 C591 1.368 . S
C610 C604 1.368 . S
C610 C609 1.523 . S
C611 C595 1.429 . S
C611 C607 1.429 . S
C611 C612 1.523 . S
C612 C596 1.368 . S
C612 C608 1.368 . S
C612 C611 1.523 . S
H613 C588 0.950 . S
H614 C590 0.950 . S
H615 C591 0.949 . S
H616 C593 0.950 . S
H617 C595 0.950 . S
C618 C619 1.349 . S
C618 C620 1.327 . S
C618 H643 0.950 . S
C619 C618 1.349 . S
C619 C635 1.349 . S
C620 C618 1.327 . S
C620 C639 1.429 . S
C620 H644 0.950 . S
C621 C638 1.574 . S
C621 C640 1.368 . S
C621 H645 0.949 . S
H622 C626 0.949 . S
C623 C624 1.349 . S
C623 C625 1.327 . S
C623 H646 0.950 . S
C624 C623 1.349 . S
C624 C636 1.349 . S
C625 C623 1.327 . S
C625 C641 1.429 . S
C625 H647 0.950 . S
C626 H622 0.949 . S
C626 C634 1.574 . S
C626 C642 1.368 . S
H627 C635 0.950 . S
H628 C633 0.950 . S
H629 C634 0.949 . S
H630 C636 0.950 . S
H631 C637 0.950 . S
H632 C638 0.949 . S
C633 H628 0.950 . S
C633 C635 1.327 . S
C633 C639 1.429 . S
C634 C626 1.574 . S
C634 H629 0.949 . S
C634 C640 1.368 . S
C635 C619 1.349 . S
C635 H627 0.950 . S
C635 C633 1.327 . S
C636 C624 1.349 . S
C636 H630 0.950 . S
C636 C637 1.327 . S
C637 H631 0.950 . S
C637 C636 1.327 . S
C637 C641 1.429 . S
C638 C621 1.574 . S
C638 H632 0.949 . S
C638 C642 1.368 . S
C639 C620 1.429 . S
C639 C633 1.429 . S
C639 C640 1.523 . S
C640 C621 1.368 . S
C640 C634 1.368 . S
C640 C639 1.523 . S
C641 C625 1.429 . S
C641 C637 1.429 . S
C641 C642 1.523 . S
C642 C626 1.368 . S
C642 C638 1.368 . S
C642 C641 1.523 . S
H643 C618 0.950 . S
H644 C620 0.950 . S
H645 C621 0.949 . S
H646 C623 0.950 . S
H647 C625 0.950 . S
C648 C649 1.349 . S
C648 C650 1.327 . S
C648 H673 0.950 . S
C649 C648 1.349 . S
C649 C665 1.349 . S
C650 C648 1.327 . S
C650 C669 1.429 . S
C650 H674 0.950 . S
C651 C668 1.574 . S
C651 C670 1.368 . S
C651 H675 0.949 . S
H652 C656 0.949 . S
C653 C654 1.349 . S
C653 C655 1.327 . S
C653 H676 0.950 . S
C654 C653 1.349 . S
C654 C666 1.349 . S
C655 C653 1.327 . S
C655 C671 1.429 . S
C655 H677 0.950 . S
C656 H652 0.949 . S
C656 C664 1.574 . S
C656 C672 1.368 . S
H657 C665 0.950 . S
H658 C663 0.950 . S
H659 C664 0.949 . S
H660 C666 0.950 . S
H661 C667 0.950 . S
H662 C668 0.949 . S
C663 H658 0.950 . S
C663 C665 1.327 . S
C663 C669 1.429 . S
C664 C656 1.574 . S
C664 H659 0.949 . S
C664 C670 1.368 . S
C665 C649 1.349 . S
C665 H657 0.950 . S
C665 C663 1.327 . S
C666 C654 1.349 . S
C666 H660 0.950 . S
C666 C667 1.327 . S
C667 H661 0.950 . S
C667 C666 1.327 . S
C667 C671 1.429 . S
C668 C651 1.574 . S
C668 H662 0.949 . S
C668 C672 1.368 . S
C669 C650 1.429 . S
C669 C663 1.429 . S
C669 C670 1.523 . S
C670 C651 1.368 . S
C670 C664 1.368 . S
C670 C669 1.523 . S
C671 C655 1.429 . S
C671 C667 1.429 . S
C671 C672 1.523 . S
C672 C656 1.368 . S
C672 C668 1.368 . S
C672 C671 1.523 . S
H673 C648 0.950 . S
H674 C650 0.950 . S
H675 C651 0.949 . S
H676 C653 0.950 . S
H677 C655 0.950 . S
C678 C679 1.349 . S
C678 C680 1.327 . S
C678 H703 0.950 . S
C679 C678 1.349 . S
C679 C695 1.349 . S
C680 C678 1.327 . S
C680 C699 1.429 . S
C680 H704 0.950 . S
C681 C698 1.574 . S
C681 C700 1.368 . S
C681 H705 0.949 . S
H682 C686 0.949 . S
C683 C684 1.349 . S
C683 C685 1.327 . S
C683 H706 0.950 . S
C684 C683 1.349 . S
C684 C696 1.349 . S
C685 C683 1.327 . S
C685 C701 1.429 . S
C685 H707 0.950 . S
C686 H682 0.949 . S
C686 C694 1.574 . S
C686 C702 1.368 . S
H687 C695 0.950 . S
H688 C693 0.950 . S
H689 C694 0.949 . S
H690 C696 0.950 . S
H691 C697 0.950 . S
H692 C698 0.949 . S
C693 H688 0.950 . S
C693 C695 1.327 . S
C693 C699 1.429 . S
C694 C686 1.574 . S
C694 H689 0.949 . S
C694 C700 1.368 . S
C695 C679 1.349 . S
C695 H687 0.950 . S
C695 C693 1.327 . S
C696 C684 1.349 . S
C696 H690 0.950 . S
C696 C697 1.327 . S
C697 H691 0.950 . S
C697 C696 1.327 . S
C697 C701 1.429 . S
C698 C681 1.574 . S
C698 H692 0.949 . S
C698 C702 1.368 . S
C699 C680 1.429 . S
C699 C693 1.429 . S
C699 C700 1.523 . S
C700 C681 1.368 . S
C700 C694 1.368 . S
C700 C699 1.523 . S
C701 C685 1.429 . S
C701 C697 1.429 . S
C701 C702 1.523 . S
C702 C686 1.368 . S
C702 C698 1.368 . S
C702 C701 1.523 . S
H703 C678 0.950 . S
H704 C680 0.950 . S
H705 C681 0.949 . S
H706 C683 0.950 . S
H707 C685 0.950 . S
C708 C709 1.349 . S
C708 C710 1.327 . S
C708 H733 0.950 . S
C709 C708 1.349 . S
C709 C725 1.349 . S
C710 C708 1.327 . S
C710 C729 1.429 . S
C710 H734 0.950 1_554 S
C711 C728 1.574 . S
C711 C730 1.368 . S
C711 H735 0.949 . S
H712 C716 0.949 . S
C713 C714 1.349 . S
C713 C715 1.327 . S
C713 H736 0.950 . S
C714 C713 1.349 . S
C714 C726 1.349 . S
C715 C713 1.327 . S
C715 C731 1.429 . S
C715 H737 0.950 1_556 S
C716 H712 0.949 . S
C716 C724 1.574 . S
C716 C732 1.368 . S
H717 C725 0.950 . S
H718 C723 0.950 . S
H719 C724 0.949 . S
H720 C726 0.950 . S
H721 C727 0.950 . S
H722 C728 0.949 . S
C723 H718 0.950 . S
C723 C725 1.327 . S
C723 C729 1.429 . S
C724 C716 1.574 . S
C724 H719 0.949 . S
C724 C730 1.368 1_656 S
C725 C709 1.349 . S
C725 H717 0.950 . S
C725 C723 1.327 . S
C726 C714 1.349 . S
C726 H720 0.950 . S
C726 C727 1.327 . S
C727 H721 0.950 . S
C727 C726 1.327 . S
C727 C731 1.429 . S
C728 C711 1.574 . S
C728 H722 0.949 . S
C728 C732 1.368 1_454 S
C729 C710 1.429 . S
C729 C723 1.429 . S
C729 C730 1.523 . S
C730 C711 1.368 . S
C730 C724 1.368 1_454 S
C730 C729 1.523 . S
C731 C715 1.429 . S
C731 C727 1.429 . S
C731 C732 1.523 . S
C732 C716 1.368 . S
C732 C728 1.368 1_656 S
C732 C731 1.523 . S
H733 C708 0.950 . S
H734 C710 0.950 1_556 S
H735 C711 0.949 . S
H736 C713 0.950 . S
H737 C715 0.950 1_554 S
C738 C739 1.349 . S
C738 C740 1.327 . S
C738 H763 0.950 . S
C739 C738 1.349 . S
C739 C755 1.349 . S
C740 C738 1.327 . S
C740 C759 1.429 . S
C740 H764 0.950 . S
C741 C758 1.574 . S
C741 C760 1.368 1_556 S
C741 H765 0.949 . S
H742 C746 0.949 . S
C743 C744 1.349 . S
C743 C745 1.327 . S
C743 H766 0.950 . S
C744 C743 1.349 . S
C744 C756 1.349 . S
C745 C743 1.327 . S
C745 C761 1.429 . S
C745 H767 0.950 . S
C746 H742 0.949 . S
C746 C754 1.574 . S
C746 C762 1.368 1_554 S
H747 C755 0.950 . S
H748 C753 0.950 1_556 S
H749 C754 0.949 . S
H750 C756 0.950 . S
H751 C757 0.950 1_554 S
H752 C758 0.949 . S
C753 H748 0.950 1_554 S
C753 C755 1.327 . S
C753 C759 1.429 . S
C754 C746 1.574 . S
C754 H749 0.949 . S
C754 C760 1.368 . S
C755 C739 1.349 . S
C755 H747 0.950 . S
C755 C753 1.327 . S
C756 C744 1.349 . S
C756 H750 0.950 . S
C756 C757 1.327 . S
C757 H751 0.950 1_556 S
C757 C756 1.327 . S
C757 C761 1.429 . S
C758 C741 1.574 . S
C758 H752 0.949 . S
C758 C762 1.368 . S
C759 C740 1.429 . S
C759 C753 1.429 . S
C759 C760 1.523 . S
C760 C741 1.368 1_554 S
C760 C754 1.368 . S
C760 C759 1.523 . S
C761 C745 1.429 . S
C761 C757 1.429 . S
C761 C762 1.523 . S
C762 C746 1.368 1_556 S
C762 C758 1.368 . S
C762 C761 1.523 . S
H763 C738 0.950 . S
H764 C740 0.950 . S
H765 C741 0.949 . S
H766 C743 0.950 . S
H767 C745 0.950 . S
C768 C769 1.349 . S
C768 C770 1.327 . S
C768 H793 0.950 . S
C769 C768 1.349 . S
C769 C785 1.349 . S
C770 C768 1.327 . S
C770 C789 1.429 . S
C770 H794 0.950 1_565 S
C771 C788 1.574 . S
C771 C790 1.368 . S
C771 H795 0.949 . S
H772 C776 0.949 . S
C773 C774 1.349 . S
C773 C775 1.327 . S
C773 H796 0.950 . S
C774 C773 1.349 . S
C774 C786 1.349 . S
C775 C773 1.327 . S
C775 C791 1.429 . S
C775 H797 0.950 1_545 S
C776 H772 0.949 . S
C776 C784 1.574 . S
C776 C792 1.368 . S
H777 C785 0.950 . S
H778 C783 0.950 . S
H779 C784 0.949 . S
H780 C786 0.950 . S
H781 C787 0.950 . S
H782 C788 0.949 . S
C783 H778 0.950 . S
C783 C785 1.327 . S
C783 C789 1.429 . S
C784 C776 1.574 . S
C784 H779 0.949 . S
C784 C790 1.368 1_546 S
C785 C769 1.349 . S
C785 H777 0.950 . S
C785 C783 1.327 . S
C786 C774 1.349 . S
C786 H780 0.950 . S
C786 C787 1.327 . S
C787 H781 0.950 . S
C787 C786 1.327 . S
C787 C791 1.429 . S
C788 C771 1.574 . S
C788 H782 0.949 . S
C788 C792 1.368 1_564 S
C789 C770 1.429 . S
C789 C783 1.429 . S
C789 C790 1.523 . S
C790 C771 1.368 . S
C790 C784 1.368 1_564 S
C790 C789 1.523 . S
C791 C775 1.429 . S
C791 C787 1.429 . S
C791 C792 1.523 . S
C792 C776 1.368 . S
C792 C788 1.368 1_546 S
C792 C791 1.523 . S
H793 C768 0.950 . S
H794 C770 0.950 1_545 S
H795 C771 0.949 . S
H796 C773 0.950 . S
H797 C775 0.950 1_565 S
C798 C799 1.349 . S
C798 C800 1.327 1_565 S
C798 H823 0.950 1_565 S
C799 C798 1.349 . S
C799 C815 1.349 . S
C800 C798 1.327 1_545 S
C800 C819 1.429 1_545 S
C800 H824 0.950 . S
C801 C818 1.574 . S
C801 C820 1.368 . S
C801 H825 0.949 . S
H802 C806 0.949 . S
C803 C804 1.349 . S
C803 C805 1.327 1_545 S
C803 H826 0.950 1_545 S
C804 C803 1.349 . S
C804 C816 1.349 . S
C805 C803 1.327 1_565 S
C805 C821 1.429 1_565 S
C805 H827 0.950 . S
C806 H802 0.949 . S
C806 C814 1.574 . S
C806 C822 1.368 . S
H807 C815 0.950 . S
H808 C813 0.950 . S
H809 C814 0.949 . S
H810 C816 0.950 . S
H811 C817 0.950 . S
H812 C818 0.949 . S
C813 H808 0.950 . S
C813 C815 1.327 . S
C813 C819 1.429 . S
C814 C806 1.574 . S
C814 H809 0.949 . S
C814 C820 1.368 1_545 S
C815 C799 1.349 . S
C815 H807 0.950 . S
C815 C813 1.327 . S
C816 C804 1.349 . S
C816 H810 0.950 . S
C816 C817 1.327 . S
C817 H811 0.950 . S
C817 C816 1.327 . S
C817 C821 1.429 . S
C818 C801 1.574 . S
C818 H812 0.949 . S
C818 C822 1.368 1_565 S
C819 C800 1.429 1_565 S
C819 C813 1.429 . S
C819 C820 1.523 . S
C820 C801 1.368 . S
C820 C814 1.368 1_565 S
C820 C819 1.523 . S
C821 C805 1.429 1_545 S
C821 C817 1.429 . S
C821 C822 1.523 . S
C822 C806 1.368 . S
C822 C818 1.368 1_545 S
C822 C821 1.523 . S
H823 C798 0.950 1_545 S
H824 C800 0.950 . S
H825 C801 0.949 . S
H826 C803 0.950 1_565 S
H827 C805 0.950 . S
C828 C829 1.349 . S
C828 C830 1.327 . S
C828 H853 0.950 . S
C829 C828 1.349 . S
C829 C845 1.349 . S
C830 C828 1.327 . S
C830 C849 1.429 . S
C830 H854 0.950 . S
C831 C848 1.574 . S
C831 C850 1.368 1_455 S
C831 H855 0.949 . S
H832 C836 0.949 . S
C833 C834 1.349 . S
C833 C835 1.327 . S
C833 H856 0.950 . S
C834 C833 1.349 . S
C834 C846 1.349 . S
C835 C833 1.327 . S
C835 C851 1.429 . S
C835 H857 0.950 . S
C836 H832 0.949 . S
C836 C844 1.574 . S
C836 C852 1.368 1_655 S
H837 C845 0.950 . S
H838 C843 0.950 1_455 S
H839 C844 0.949 . S
H840 C846 0.950 . S
H841 C847 0.950 1_655 S
H842 C848 0.949 . S
C843 H838 0.950 1_655 S
C843 C845 1.327 . S
C843 C849 1.429 . S
C844 C836 1.574 . S
C844 H839 0.949 . S
C844 C850 1.368 . S
C845 C829 1.349 . S
C845 H837 0.950 . S
C845 C843 1.327 . S
C846 C834 1.349 . S
C846 H840 0.950 . S
C846 C847 1.327 . S
C847 H841 0.950 1_455 S
C847 C846 1.327 . S
C847 C851 1.429 . S
C848 C831 1.574 . S
C848 H842 0.949 . S
C848 C852 1.368 . S
C849 C830 1.429 . S
C849 C843 1.429 . S
C849 C850 1.523 . S
C850 C831 1.368 1_655 S
C850 C844 1.368 . S
C850 C849 1.523 . S
C851 C835 1.429 . S
C851 C847 1.429 . S
C851 C852 1.523 . S
C852 C836 1.368 1_455 S
C852 C848 1.368 . S
C852 C851 1.523 . S
H853 C828 0.950 . S
H854 C830 0.950 . S
H855 C831 0.949 . S
H856 C833 0.950 . S
H857 C835 0.950 . S
C858 C859 1.349 . S
C858 C860 1.327 . S
C858 H883 0.950 . S
C859 C858 1.349 . S
C859 C875 1.349 . S
C860 C858 1.327 . S
C860 C879 1.429 . S
C860 H884 0.950 . S
C861 C878 1.574 . S
C861 C880 1.368 . S
C861 H885 0.949 . S
H862 C866 0.949 . S
C863 C864 1.349 . S
C863 C865 1.327 . S
C863 H886 0.950 . S
C864 C863 1.349 . S
C864 C876 1.349 . S
C865 C863 1.327 . S
C865 C881 1.429 . S
C865 H887 0.950 . S
C866 H862 0.949 . S
C866 C874 1.574 . S
C866 C882 1.368 . S
H867 C875 0.950 . S
H868 C873 0.950 . S
H869 C874 0.949 . S
H870 C876 0.950 . S
H871 C877 0.950 . S
H872 C878 0.949 . S
C873 H868 0.950 . S
C873 C875 1.327 . S
C873 C879 1.429 . S
C874 C866 1.574 . S
C874 H869 0.949 . S
C874 C880 1.368 . S
C875 C859 1.349 . S
C875 H867 0.950 . S
C875 C873 1.327 . S
C876 C864 1.349 . S
C876 H870 0.950 . S
C876 C877 1.327 . S
C877 H871 0.950 . S
C877 C876 1.327 . S
C877 C881 1.429 . S
C878 C861 1.574 . S
C878 H872 0.949 . S
C878 C882 1.368 . S
C879 C860 1.429 . S
C879 C873 1.429 . S
C879 C880 1.523 . S
C880 C861 1.368 . S
C880 C874 1.368 . S
C880 C879 1.523 . S
C881 C865 1.429 . S
C881 C877 1.429 . S
C881 C882 1.523 . S
C882 C866 1.368 . S
C882 C878 1.368 . S
C882 C881 1.523 . S
H883 C858 0.950 . S
H884 C860 0.950 . S
H885 C861 0.949 . S
H886 C863 0.950 . S
H887 C865 0.950 . S
C169 C12 0.258 . S
C174 C102 0.326 . S
C199 C26 0.258 . S
C204 C116 0.326 . S
C229 C40 0.258 . S
C234 C88 0.326 . S
C259 C158 0.326 . S
C264 C54 0.258 . S
C289 C68 0.258 . S
C294 C130 0.326 . S
C319 C144 0.326 . S
C324 C82 0.258 . S
C349 C18 0.326 . S
C354 C96 0.258 . S
C379 C110 0.258 . S
C384 C32 0.326 . S
C409 C4 0.326 . S
C414 C124 0.258 . S
C439 C138 0.258 . S
C444 C74 0.326 . S
C469 C152 0.258 . S
C474 C46 0.326 . S
C499 C60 0.326 . S
C504 C166 0.258 . S
C529 C81 1.578 . S
C534 C11 1.578 . S
C559 C25 1.578 . S
C564 C53 1.578 . S
C589 C39 1.578 . S
C594 C67 1.578 . S
C619 C95 1.578 . S
C624 C165 1.578 . S
C649 C109 1.578 . S
C654 C137 1.578 . S
C679 C123 1.578 . S
C684 C151 1.578 . S
C709 C5 1.436 . S
C714 C89 1.436 . S
C739 C19 1.437 . S
C744 C103 1.437 . S
C769 C33 1.436 . S
C774 C117 1.436 . S
C799 C47 1.436 . S
C804 C131 1.436 . S
C829 C145 1.436 . S
C834 C61 1.436 . S
C859 C75 1.437 . S
C864 C159 1.437 . S
