# Generated by pormake.
# Topology qtz-e, (6)-cn, num edge types: 1
# Building blocks:
#     Node 0, Type 0, BuildingBlock: PAMTOO_clean_sbu_0, # of connection points: 6
#     Node 1, Type 0, BuildingBlock: PAMTOO_clean_sbu_0, # of connection points: 6
#     Node 2, Type 0, BuildingBlock: PAMTOO_clean_sbu_0, # of connection points: 6
#     Node 3, Type 0, BuildingBlock: PAMTOO_clean_sbu_0, # of connection points: 6
#     Node 4, Type 0, BuildingBlock: PAMTOO_clean_sbu_0, # of connection points: 6
#     Node 5, Type 0, BuildingBlock: PAMTOO_clean_sbu_0, # of connection points: 6
#     Edge 6, Type (0, 0), BuildingBlock: XIVTED_clean_linker_0, # of connection points: 2
#     Edge 7, Type (0, 0), BuildingBlock: XIVTED_clean_linker_0, # of connection points: 2
#     Edge 8, Type (0, 0), BuildingBlock: XIVTED_clean_linker_0, # of connection points: 2
#     Edge 9, Type (0, 0), BuildingBlock: XIVTED_clean_linker_0, # of connection points: 2
#     Edge 10, Type (0, 0), BuildingBlock: XIVTED_clean_linker_0, # of connection points: 2
#     Edge 11, Type (0, 0), BuildingBlock: XIVTED_clean_linker_0, # of connection points: 2
#     Edge 12, Type (0, 0), BuildingBlock: XIVTED_clean_linker_0, # of connection points: 2
#     Edge 13, Type (0, 0), BuildingBlock: XIVTED_clean_linker_0, # of connection points: 2
#     Edge 14, Type (0, 0), BuildingBlock: XIVTED_clean_linker_0, # of connection points: 2
#     Edge 15, Type (0, 0), BuildingBlock: XIVTED_clean_linker_0, # of connection points: 2
#     Edge 16, Type (0, 0), BuildingBlock: XIVTED_clean_linker_0, # of connection points: 2
#     Edge 17, Type (0, 0), BuildingBlock: XIVTED_clean_linker_0, # of connection points: 2
#     Edge 18, Type (0, 0), BuildingBlock: XIVTED_clean_linker_0, # of connection points: 2
#     Edge 19, Type (0, 0), BuildingBlock: XIVTED_clean_linker_0, # of connection points: 2
#     Edge 20, Type (0, 0), BuildingBlock: XIVTED_clean_linker_0, # of connection points: 2
#     Edge 21, Type (0, 0), BuildingBlock: XIVTED_clean_linker_0, # of connection points: 2
#     Edge 22, Type (0, 0), BuildingBlock: XIVTED_clean_linker_0, # of connection points: 2
#     Edge 23, Type (0, 0), BuildingBlock: XIVTED_clean_linker_0, # of connection points: 2
# Relax obj value: 0.195
# Max RMSD: 0.212
# Mean RMSD: 0.211
data_MOF--net-qtz-e--node1-PAMTOO_clean_sbu_0--edge1-XIVTED_clean_linker_0
_symmetry_space_group_name_H-M    P1
_symmetry_Int_Tables_number       1
_symmetry_cell_setting            triclinic
loop_
_symmetry_equiv_pos_as_xyz
'x, y, z'
_cell_length_a     27.064562
_cell_length_b     27.062188
_cell_length_c     51.362453
_cell_angle_alpha  89.981466
_cell_angle_beta   90.000082
_cell_angle_gamma 120.02928
loop_
_atom_site_label
_atom_site_type_symbol
_atom_site_fract_x
_atom_site_fract_y
_atom_site_fract_z
_atom_type_partial_charge
Dy0 Dy 0.13405 0.35411 0.14411 0.0
Dy1 Dy 0.22361 0.47389 0.17563 0.0
C2 C 0.25976 0.38756 0.15812 0.0
O3 O 0.1173 0.33589 0.18716 0.0
O4 O 0.14765 0.42723 0.20096 0.0
O5 O 0.10545 0.26489 0.13763 0.0
O6 O 0.0681 0.30645 0.11564 0.0
O7 O 0.16029 0.49183 0.15678 0.0
O8 O 0.08572 0.4008 0.14837 0.0
O9 O 0.25948 0.48883 0.13547 0.0
O10 O 0.17927 0.42121 0.11368 0.0
O11 O 0.26509 0.56424 0.18428 0.0
O12 O 0.28715 0.50939 0.20587 0.0
C13 C 0.11842 0.37193 0.20474 0.0
O14 O 0.22214 0.36884 0.1394 0.0
O15 O 0.24914 0.40781 0.1791 0.0
C16 C 0.08499 0.24057 0.09287 0.0
C17 C 0.10726 0.20669 0.04414 0.0
C18 C 0.14837 0.22628 0.06409 0.0
C19 C 0.13753 0.24338 0.08812 0.0
C20 C 0.04361 0.22033 0.07311 0.0
C21 C 0.05466 0.20375 0.04897 0.0
C22 C 0.07419 0.26173 0.1176 0.0
C23 C 0.10727 0.45652 0.1498 0.0
C24 C 0.23044 0.46708 0.11387 0.0
C25 C 0.28621 0.5837 0.22881 0.0
C26 C 0.27617 0.62856 0.27668 0.0
C27 C 0.23504 0.57296 0.26915 0.0
C28 C 0.23995 0.55079 0.24538 0.0
C29 C 0.32707 0.63927 0.23607 0.0
C30 C 0.32208 0.66163 0.25982 0.0
C31 C 0.29243 0.55985 0.20421 0.0
H32 H 0.18957 0.2298 0.06089 0.0
H33 H 0.17069 0.25963 0.10281 0.0
H34 H 0.00295 0.21809 0.07625 0.0
H35 H 0.02193 0.18843 0.03409 0.0
H36 H 0.19879 0.54675 0.28153 0.0
H37 H 0.20785 0.5078 0.24001 0.0
H38 H 0.36306 0.66517 0.22349 0.0
H39 H 0.3547 0.70441 0.26519 0.0
Dy40 Dy 0.88002 0.22781 0.43338 0.0
Dy41 Dy 0.78971 0.25503 0.40081 0.0
C42 C 0.75407 0.13446 0.42066 0.0
O43 O 0.89789 0.22637 0.39043 0.0
O44 O 0.86712 0.28677 0.37634 0.0
O45 O 0.90676 0.16613 0.44114 0.0
O46 O 0.94694 0.24717 0.46135 0.0
O47 O 0.85394 0.3391 0.41721 0.0
O48 O 0.92725 0.32293 0.42935 0.0
O49 O 0.75481 0.23718 0.4412 0.0
O50 O 0.83558 0.25203 0.46319 0.0
O51 O 0.73986 0.29562 0.39291 0.0
O52 O 0.73273 0.22786 0.36789 0.0
C53 C 0.8974 0.26176 0.37291 0.0
O54 O 0.79199 0.15495 0.43921 0.0
O55 O 0.76491 0.16344 0.39907 0.0
C56 C 0.92724 0.16562 0.48564 0.0
C57 C 0.90196 0.10703 0.53377 0.0
C58 C 0.86409 0.12265 0.52275 0.0
C59 C 0.87659 0.15158 0.49896 0.0
C60 C 0.96538 0.15056 0.4965 0.0
C61 C 0.95293 0.12157 0.52038 0.0
C62 C 0.93961 0.19574 0.46047 0.0
C63 C 0.90608 0.35703 0.42574 0.0
C64 C 0.78435 0.2465 0.4628 0.0
C65 C 0.7254 0.30135 0.34786 0.0
C66 C 0.73915 0.35886 0.30042 0.0
C67 C 0.78328 0.38068 0.31897 0.0
C68 C 0.77661 0.35188 0.34246 0.0
C69 C 0.68094 0.28015 0.32965 0.0
C70 C 0.68776 0.30859 0.30609 0.0
C71 C 0.71956 0.26761 0.37119 0.0
H72 H 0.82496 0.11308 0.53265 0.0
H73 H 0.84666 0.16305 0.49095 0.0
H74 H 0.00463 0.16097 0.48647 0.0
H75 H 0.98278 0.10975 0.52814 0.0
H76 H 0.82351 0.41903 0.31498 0.0
H77 H 0.8118 0.36835 0.35614 0.0
H78 H 0.64136 0.24091 0.33344 0.0
H79 H 0.65288 0.29119 0.29224 0.0
Dy80 Dy 0.66305 0.78055 0.80805 0.0
Dy81 Dy 0.54151 0.74585 0.83997 0.0
C82 C 0.62733 0.8702 0.82617 0.0
O83 O 0.68356 0.77912 0.85037 0.0
O84 O 0.59333 0.72964 0.86864 0.0
O85 O 0.75089 0.84453 0.80051 0.0
O86 O 0.71176 0.7647 0.77932 0.0
O87 O 0.52693 0.66987 0.81734 0.0
O88 O 0.61829 0.68561 0.81242 0.0
O89 O 0.52829 0.76961 0.79996 0.0
O90 O 0.59643 0.75899 0.77761 0.0
O91 O 0.45806 0.68282 0.8535 0.0
O92 O 0.48956 0.77217 0.86129 0.0
C93 C 0.649 0.7522 0.87 0.0
O94 O 0.64626 0.85326 0.80667 0.0
O95 O 0.60579 0.8369 0.84638 0.0
C96 C 0.77293 0.84785 0.75592 0.0
C97 C 0.8048 0.90516 0.70744 0.0
C98 C 0.75299 0.89257 0.71944 0.0
C99 C 0.73724 0.86421 0.7434 0.0
C100 C 0.82478 0.86058 0.74424 0.0
C101 C 0.84066 0.88906 0.72024 0.0
C102 C 0.75516 0.81648 0.78077 0.0
C103 C 0.56254 0.65172 0.81198 0.0
C104 C 0.55072 0.76435 0.77812 0.0
C105 C 0.43118 0.70513 0.89293 0.0
C106 C 0.39161 0.66309 0.9433 0.0
C107 C 0.35455 0.66485 0.92458 0.0
C108 C 0.37422 0.68562 0.89956 0.0
C109 C 0.46891 0.70549 0.91174 0.0
C110 C 0.44932 0.68475 0.93679 0.0
C111 C 0.44947 0.71986 0.86582 0.0
H112 H 0.72469 0.90502 0.71043 0.0
H113 H 0.69701 0.85482 0.75213 0.0
H114 H 0.85275 0.84806 0.75357 0.0
H115 H 0.88052 0.89745 0.71147 0.0
H116 H 0.31008 0.64928 0.92913 0.0
H117 H 0.34458 0.68495 0.88519 0.0
H118 H 0.51297 0.72003 0.90679 0.0
H119 H 0.4788 0.6835 0.95067 0.0
Dy120 Dy 0.78869 0.66613 0.10019 0.0
Dy121 Dy 0.76069 0.54734 0.06777 0.0
C122 C 0.88217 0.63334 0.08671 0.0
O123 O 0.78973 0.68582 0.05749 0.0
O124 O 0.73538 0.59497 0.04093 0.0
O125 O 0.84995 0.75485 0.10758 0.0
O126 O 0.76943 0.71355 0.12826 0.0
O127 O 0.67715 0.52915 0.08409 0.0
O128 O 0.69379 0.61885 0.09593 0.0
O129 O 0.77987 0.53202 0.1083 0.0
O130 O 0.76644 0.5988 0.13039 0.0
O131 O 0.71609 0.45651 0.06051 0.0
O132 O 0.78817 0.51339 0.03655 0.0
C133 C 0.75949 0.65054 0.03862 0.0
O134 O 0.86229 0.65162 0.1052 0.0
O135 O 0.85242 0.61341 0.06543 0.0
C136 C 0.85114 0.77656 0.15201 0.0
C137 C 0.90906 0.81063 0.20021 0.0
C138 C 0.89756 0.75895 0.18847 0.0
C139 C 0.86893 0.74213 0.16464 0.0
C140 C 0.86222 0.82801 0.16356 0.0
C141 C 0.8909 0.84493 0.18748 0.0
C142 C 0.82056 0.75805 0.12702 0.0
C143 C 0.65951 0.56361 0.09248 0.0
C144 C 0.77222 0.55329 0.12997 0.0
C145 C 0.71294 0.43505 0.01583 0.0
C146 C 0.65676 0.39153 0.96812 0.0
C147 C 0.63805 0.41931 0.98523 0.0
C148 C 0.66619 0.44126 0.00885 0.0
C149 C 0.73119 0.40668 0.999 0.0
C150 C 0.7034 0.38514 0.97529 0.0
C151 C 0.74555 0.46173 0.03956 0.0
H152 H 0.90999 0.73099 0.19787 0.0
H153 H 0.86045 0.70203 0.15608 0.0
H154 H 0.84876 0.85509 0.15409 0.0
H155 H 0.89951 0.88521 0.19582 0.0
H156 H 0.60262 0.42534 0.98006 0.0
H157 H 0.65209 0.46392 0.02145 0.0
H158 H 0.76752 0.40199 1.00403 0.0
H159 H 0.71832 0.36343 0.96257 0.0
Dy160 Dy 0.2242 0.88623 0.47634 0.0
Dy161 Dy 0.25213 0.79624 0.50931 0.0
C162 C 0.13142 0.75895 0.48901 0.0
O163 O 0.22107 0.90511 0.51884 0.0
O164 O 0.27267 0.86692 0.53694 0.0
O165 O 0.16134 0.91093 0.46766 0.0
O166 O 0.24352 0.95317 0.4484 0.0
O167 O 0.3361 0.86378 0.49423 0.0
O168 O 0.3186 0.93612 0.48219 0.0
O169 O 0.23571 0.76321 0.46848 0.0
O170 O 0.25286 0.84513 0.44694 0.0
O171 O 0.30034 0.75395 0.51748 0.0
O172 O 0.22316 0.73128 0.53897 0.0
C173 C 0.24917 0.89905 0.53841 0.0
O174 O 0.15237 0.79723 0.47056 0.0
O175 O 0.15992 0.7688 0.51068 0.0
C176 C 0.1631 0.9328 0.4232 0.0
C177 C 0.10949 0.90966 0.37394 0.0
C178 C 0.12485 0.87176 0.38515 0.0
C179 C 0.15135 0.88322 0.40951 0.0
C180 C 0.14772 0.97065 0.41228 0.0
C181 C 0.12107 0.95918 0.38787 0.0
C182 C 0.19166 0.94473 0.44871 0.0
C183 C 0.35345 0.91611 0.48621 0.0
C184 C 0.24668 0.7937 0.44706 0.0
C185 C 0.2983 0.7317 0.56179 0.0
C186 C 0.35482 0.74207 0.60918 0.0
C187 C 0.34053 0.69552 0.59253 0.0
C188 C 0.31234 0.69035 0.56902 0.0
C189 C 0.31302 0.77852 0.57818 0.0
C190 C 0.34085 0.78356 0.60173 0.0
C191 C 0.26831 0.72598 0.53723 0.0
H192 H 0.11584 0.83282 0.37523 0.0
H193 H 0.16272 0.85333 0.41769 0.0
H194 H 0.15658 0.00917 0.42257 0.0
H195 H 0.11038 0.98956 0.37972 0.0
H196 H 0.35035 0.66266 0.59788 0.0
H197 H 0.30128 0.654 0.55654 0.0
H198 H 0.30288 0.81111 0.57278 0.0
H199 H 0.352 0.82027 0.61397 0.0
Dy200 Dy 0.34909 0.12392 0.76965 0.0
Dy201 Dy 0.47021 0.20953 0.73684 0.0
C202 C 0.38499 0.24913 0.7508 0.0
O203 O 0.32736 0.10132 0.72747 0.0
O204 O 0.417 0.14055 0.70876 0.0
O205 O 0.26078 0.09802 0.77702 0.0
O206 O 0.30205 0.0607 0.79925 0.0
O207 O 0.48554 0.15028 0.76077 0.0
O208 O 0.39445 0.07427 0.76555 0.0
O209 O 0.48581 0.24795 0.77658 0.0
O210 O 0.41502 0.17257 0.79992 0.0
O211 O 0.55145 0.22685 0.72171 0.0
O212 O 0.5235 0.28826 0.71596 0.0
C213 C 0.36123 0.10793 0.7077 0.0
O214 O 0.36543 0.21325 0.77031 0.0
O215 O 0.40663 0.23731 0.73064 0.0
C216 C 0.23829 0.0805 0.82188 0.0
C217 C 0.20587 0.10534 0.87034 0.0
C218 C 0.24002 0.14946 0.85286 0.0
C219 C 0.25637 0.1372 0.82895 0.0
C220 C 0.20392 0.03635 0.83914 0.0
C221 C 0.18795 0.04861 0.86317 0.0
C222 C 0.2577 0.06741 0.7973 0.0
C223 C 0.45021 0.0965 0.76623 0.0
C224 C 0.46208 0.22262 0.79872 0.0
C225 C 0.57909 0.27901 0.683 0.0
C226 C 0.61908 0.2803 0.6323 0.0
C227 C 0.56308 0.23926 0.63942 0.0
C228 C 0.54328 0.23859 0.66461 0.0
C229 C 0.63397 0.32143 0.67571 0.0
C230 C 0.65382 0.32219 0.65054 0.0
C231 C 0.56169 0.27403 0.71032 0.0
H232 H 0.25522 0.19362 0.85792 0.0
H233 H 0.28373 0.17212 0.81614 0.0
H234 H 0.18989 0.99238 0.83415 0.0
H235 H 0.16129 0.01363 0.87609 0.0
H236 H 0.53545 0.20612 0.62592 0.0
H237 H 0.50084 0.20531 0.67005 0.0
H238 H 0.66209 0.35291 0.68972 0.0
H239 H 0.69682 0.35489 0.64551 0.0
H240 H 0.26903 0.84394 0.39902 0.0
H241 H 0.24702 0.57455 0.32402 0.0
H242 H 0.23324 0.68763 0.43767 0.0
H243 H 0.29418 0.73556 0.28716 0.0
H244 H 0.23888 0.6138 0.36563 0.0
H245 H 0.27574 0.80356 0.35775 0.0
C246 C 0.26265 0.8011 0.39888 0.0
C247 C 0.25076 0.76923 0.42194 0.0
C248 C 0.25103 0.64054 0.34844 0.0
C249 C 0.25832 0.72261 0.37453 0.0
C250 C 0.25537 0.61808 0.32466 0.0
C251 C 0.27128 0.65185 0.30207 0.0
C252 C 0.26246 0.69714 0.34965 0.0
C253 C 0.28243 0.70822 0.30412 0.0
C254 C 0.26651 0.77806 0.37524 0.0
C255 C 0.24268 0.71386 0.42043 0.0
N256 N 0.2777 0.72903 0.32747 0.0
N257 N 0.24662 0.6923 0.3971 0.0
H258 H 0.56685 0.25721 0.58434 0.0
H259 H 0.83223 0.26566 0.51126 0.0
H260 H 0.72447 0.29471 0.62198 0.0
H261 H 0.67944 0.23656 0.47133 0.0
H262 H 0.7918 0.27448 0.55208 0.0
H263 H 0.6059 0.24791 0.54278 0.0
C264 C 0.60965 0.26354 0.58386 0.0
C265 C 0.64254 0.27703 0.60666 0.0
C266 C 0.76705 0.26621 0.53441 0.0
C267 C 0.68742 0.26652 0.55927 0.0
C268 C 0.79012 0.26109 0.51103 0.0
C269 C 0.75932 0.25059 0.48774 0.0
C270 C 0.71264 0.26072 0.53464 0.0
C271 C 0.70483 0.24486 0.48878 0.0
C272 C 0.63196 0.25841 0.56014 0.0
C273 C 0.6979 0.28523 0.60486 0.0
N274 N 0.68322 0.25006 0.51186 0.0
N275 N 0.71848 0.27971 0.58163 0.0
H276 H 0.18571 0.4322 0.06517 0.0
H277 H 0.44103 0.69835 0.99156 0.0
H278 H 0.33263 0.56537 0.1051 0.0
H279 H 0.29183 0.56461 0.95335 0.0
H280 H 0.40372 0.65011 0.03331 0.0
H281 H 0.22578 0.4798 0.02399 0.0
C282 C 0.22648 0.47147 0.06532 0.0
C283 C 0.25568 0.49493 0.08872 0.0
C284 C 0.37915 0.63145 0.01578 0.0
C285 C 0.3019 0.54992 0.04139 0.0
C286 C 0.40048 0.65885 0.99195 0.0
C287 C 0.36932 0.63567 0.96895 0.0
C288 C 0.32641 0.5804 0.01657 0.0
C289 C 0.31684 0.58462 0.97062 0.0
C290 C 0.24937 0.49869 0.04173 0.0
C291 C 0.30853 0.54579 0.08756 0.0
N292 N 0.29712 0.55875 0.99398 0.0
N293 N 0.32989 0.5717 0.06428 0.0
H294 H 0.71309 0.31022 0.25209 0.0
H295 H 0.78425 0.59804 0.1788 0.0
H296 H 0.78319 0.47288 0.29097 0.0
H297 H 0.75824 0.44694 0.13838 0.0
H298 H 0.77947 0.55166 0.2202 0.0
H299 H 0.72434 0.35816 0.2103 0.0
C300 C 0.73071 0.35604 0.2518 0.0
C301 C 0.74697 0.38766 0.27499 0.0
C302 C 0.77504 0.52873 0.20228 0.0
C303 C 0.76008 0.44273 0.22733 0.0
C304 C 0.7775 0.55507 0.17861 0.0
C305 C 0.77126 0.52615 0.15507 0.0
C306 C 0.76559 0.4728 0.20247 0.0
C307 C 0.76322 0.47078 0.15605 0.0
C308 C 0.73748 0.3834 0.22796 0.0
C309 C 0.77038 0.447 0.27352 0.0
N310 N 0.76017 0.44571 0.17939 0.0
N311 N 0.77587 0.4726 0.25009 0.0
H312 H 0.58293 0.75163 0.72924 0.0
H313 H 0.33215 0.77199 0.65675 0.0
H314 H 0.45714 0.7766 0.76971 0.0
H315 H 0.44431 0.72438 0.61862 0.0
H316 H 0.38123 0.78045 0.69791 0.0
H317 H 0.53651 0.74829 0.68816 0.0
C318 C 0.54554 0.75645 0.72954 0.0
C319 C 0.52367 0.76399 0.75306 0.0
C320 C 0.39509 0.76815 0.68054 0.0
C321 C 0.47029 0.76024 0.7059 0.0
C322 C 0.36731 0.7636 0.65703 0.0
C323 C 0.38416 0.74737 0.63425 0.0
C324 C 0.44025 0.75668 0.68125 0.0
C325 C 0.42949 0.73633 0.63578 0.0
C326 C 0.51901 0.75447 0.70602 0.0
C327 C 0.47531 0.77036 0.7521 0.0
N328 N 0.45601 0.74128 0.65887 0.0
N329 N 0.45018 0.76826 0.72889 0.0
H330 H 0.70661 0.40383 0.92045 0.0
H331 H 0.41433 0.2001 0.84724 0.0
H332 H 0.54218 0.33032 0.95798 0.0
H333 H 0.57165 0.3097 0.80655 0.0
H334 H 0.4611 0.24411 0.88827 0.0
H335 H 0.65878 0.36601 0.87875 0.0
C336 C 0.66042 0.37958 0.91989 0.0
C337 C 0.62825 0.36989 0.94269 0.0
C338 C 0.48531 0.25873 0.87036 0.0
C339 C 0.57332 0.32672 0.89512 0.0
C340 C 0.45874 0.23348 0.84692 0.0
C341 C 0.48929 0.25101 0.82344 0.0
C342 C 0.54308 0.30135 0.87039 0.0
C343 C 0.54651 0.29487 0.8242 0.0
C344 C 0.63316 0.35839 0.89609 0.0
C345 C 0.56853 0.33897 0.94083 0.0
N346 N 0.57173 0.31822 0.84735 0.0
N347 N 0.54297 0.31811 0.91748 0.0
H348 H 0.35702 0.46387 0.18384 0.0
H349 H 0.56975 0.46126 0.07705 0.0
H350 H 0.29846 0.35211 0.11701 0.0
H351 H 0.61251 0.6052 0.12718 0.0
H352 H 0.47284 0.41323 0.09473 0.0
H353 H 0.45469 0.50639 0.16757 0.0
C354 C 0.36475 0.44737 0.16604 0.0
C355 C 0.31939 0.40453 0.15167 0.0
C356 C 0.50337 0.45546 0.10173 0.0
C357 C 0.43101 0.45361 0.13284 0.0
C358 C 0.55861 0.483 0.09161 0.0
C359 C 0.59921 0.53745 0.10059 0.0
C360 C 0.48887 0.48213 0.12128 0.0
C361 C 0.58243 0.56351 0.11951 0.0
C362 C 0.42047 0.47219 0.15662 0.0
C363 C 0.33212 0.38519 0.12865 0.0
N364 N 0.52863 0.53539 0.12939 0.0
N365 N 0.38675 0.41007 0.11987 0.0
H366 H 0.10461 0.66153 0.51607 0.0
H367 H 0.89563 0.44685 0.40836 0.0
H368 H 0.0635 0.72058 0.44564 0.0
H369 H 0.99302 0.40462 0.4612 0.0
H370 H 0.94554 0.54487 0.42489 0.0
H371 H 0.04934 0.56365 0.50017 0.0
C372 C 0.08306 0.65393 0.49749 0.0
C373 C 0.08895 0.69947 0.48209 0.0
C374 C 0.95615 0.51418 0.43272 0.0
C375 C 0.02613 0.58744 0.46374 0.0
C376 C 0.92784 0.45833 0.42329 0.0
C377 C 0.94039 0.41761 0.43337 0.0
C378 C 0.99646 0.52909 0.45272 0.0
C379 C 0.98242 0.43477 0.45271 0.0
C380 C 0.05206 0.59804 0.48832 0.0
C381 C 0.06022 0.68681 0.45811 0.0
N382 N 0.0086 0.48912 0.46193 0.0
N383 N 0.03016 0.63193 0.44961 0.0
H384 H 0.403 0.00196 0.79794 0.0
H385 H 0.6668 0.95049 0.78762 0.0
H386 H 0.55575 0.11397 0.75485 0.0
H387 H 0.54865 0.88746 0.8521 0.0
H388 H 0.62408 0.00691 0.77336 0.0
H389 H 0.451 0.95207 0.8151 0.0
C390 C 0.44631 0.01559 0.79189 0.0
C391 C 0.47547 0.06206 0.77497 0.0
C392 C 0.60801 0.98125 0.79082 0.0
C393 C 0.53046 0.00584 0.79454 0.0
C394 C 0.6326 0.94933 0.79906 0.0
C395 C 0.61105 0.91387 0.82098 0.0
C396 C 0.56092 0.97695 0.80434 0.0
C397 C 0.56653 0.91397 0.83503 0.0
C398 C 0.47385 0.98763 0.80189 0.0
C399 C 0.53178 0.07846 0.76795 0.0
N400 N 0.54228 0.94428 0.82622 0.0
N401 N 0.55734 0.05026 0.77767 0.0
H402 H 0.60991 0.60487 0.78012 0.0
H403 H 0.34415 0.28974 0.78878 0.0
H404 H 0.45727 0.56318 0.82347 0.0
H405 H 0.46518 0.34529 0.72544 0.0
H406 H 0.38713 0.38863 0.80342 0.0
H407 H 0.56186 0.50733 0.76256 0.0
C408 C 0.56664 0.57504 0.78617 0.0
C409 C 0.53751 0.592 0.80326 0.0
C410 C 0.40379 0.37923 0.78612 0.0
C411 C 0.48238 0.48117 0.78318 0.0
C412 C 0.37903 0.32286 0.77764 0.0
C413 C 0.40131 0.30912 0.75595 0.0
C414 C 0.45175 0.42206 0.77306 0.0
C415 C 0.44669 0.35381 0.74231 0.0
C416 C 0.53905 0.51972 0.77593 0.0
C417 C 0.48123 0.55191 0.81025 0.0
N418 N 0.47106 0.40823 0.75134 0.0
N419 N 0.45559 0.49836 0.80026 0.0
H420 H 0.01456 0.41052 0.1173 0.0
H421 H 0.95648 0.67024 0.1278 0.0
H422 H 0.12187 0.56077 0.16289 0.0
H423 H 0.90244 0.55571 0.06198 0.0
H424 H 0.01222 0.62763 0.14353 0.0
H425 H 0.96438 0.45803 0.10031 0.0
C426 C 0.02706 0.45316 0.12399 0.0
C427 C 0.07239 0.48174 0.14153 0.0
C428 C 0.98871 0.61243 0.12547 0.0
C429 C 0.01565 0.53634 0.12206 0.0
C430 C 0.95719 0.63691 0.11641 0.0
C431 C 0.92478 0.61656 0.09354 0.0
C432 C 0.9869 0.5666 0.11182 0.0
C433 C 0.92696 0.57298 0.07964 0.0
C434 C -0.00112 0.48046 0.11407 0.0
C435 C 0.08725 0.53725 0.14932 0.0
N436 N 0.9568 0.5489 0.0892 0.0
N437 N 0.05884 0.56269 0.13959 0.0
H438 H 0.4435 0.90637 0.50367 0.0
H439 H 0.65689 0.11377 0.39494 0.0
H440 H 0.40093 0.00388 0.45107 0.0
H441 H 0.71498 0.06458 0.46326 0.0
H442 H 0.55942 0.06149 0.41172 0.0
H443 H 0.54091 0.9552 0.48658 0.0
C444 C 0.45484 0.93855 0.48873 0.0
C445 C 0.41411 0.95124 0.47882 0.0
C446 C 0.59348 0.06178 0.42291 0.0
C447 C 0.52501 0.00614 0.45877 0.0
C448 C 0.64907 0.09099 0.4132 0.0
C449 C 0.69425 0.09365 0.42776 0.0
C450 C 0.58287 0.0345 0.44719 0.0
C451 C 0.68145 0.0637 0.45142 0.0
C452 C 0.51036 0.96622 0.47894 0.0
C453 C 0.43111 0.99319 0.45943 0.0
N454 N 0.62694 0.03549 0.46044 0.0
N455 N 0.48518 0.01876 0.44985 0.0
H456 H 0.20636 0.05997 0.91807 0.0
H457 H 0.08506 0.23375 0.99567 0.0
H458 H 0.16909 0.18103 0.88135 0.0
H459 H 0.15818 0.14298 0.0336 0.0
H460 H 0.10755 0.20815 0.95336 0.0
H461 H 0.18098 0.08317 0.96026 0.0
C462 C 0.19248 0.09117 0.91885 0.0
C463 C 0.18985 0.11856 0.89609 0.0
C464 C 0.11867 0.1938 0.97093 0.0
C465 C 0.16087 0.14551 0.94442 0.0
C466 C 0.10549 0.20808 0.9951 0.0
C467 C 0.11973 0.19048 0.01826 0.0
C468 C 0.14583 0.16116 0.96981 0.0
C469 C 0.14689 0.15793 0.01628 0.0
C470 C 0.17834 0.10467 0.94298 0.0
C471 C 0.17228 0.15923 0.89839 0.0
N472 N 0.15887 0.14419 0.99253 0.0
N473 N 0.1583 0.17131 0.92207 0.0
H474 H 0.93058 0.35446 0.34215 0.0
H475 H 0.06629 0.26348 0.22674 0.0
H476 H 0.94304 0.20197 0.34831 0.0
H477 H 0.0962 0.43402 0.23951 0.0
H478 H 0.0139 0.23405 0.26845 0.0
H479 H 0.98358 0.37802 0.30172 0.0
C480 C 0.94451 0.32574 0.33501 0.0
C481 C 0.93217 0.27603 0.34876 0.0
C482 C 0.03226 0.27787 0.26201 0.0
C483 C 0.99344 0.30305 0.30184 0.0
C484 C 0.06185 0.29463 0.23819 0.0
C485 C 0.08576 0.35134 0.2295 0.0
C486 C 0.02601 0.31799 0.27693 0.0
C487 C 0.07886 0.3899 0.24525 0.0
C488 C 0.97509 0.33943 0.31184 0.0
C489 C 0.95186 0.24087 0.33841 0.0
N490 N 0.04959 0.37247 0.26797 0.0
N491 N 0.98129 0.25485 0.31541 0.0
H492 H 0.91079 0.98842 0.69043 0.0
H493 H 0.79793 0.02084 0.55061 0.0
H494 H 0.73552 0.88874 0.66536 0.0
H495 H 0.97384 0.12104 0.57466 0.0
H496 H 0.77494 0.97156 0.59245 0.0
H497 H 0.93545 0.03619 0.64805 0.0
C498 C 0.87751 0.97627 0.676 0.0
C499 C 0.82088 0.93446 0.68162 0.0
C500 C 0.81862 0.00427 0.58861 0.0
C501 C 0.84885 0.98957 0.633 0.0
C502 C 0.83177 0.03274 0.56472 0.0
C503 C 0.88793 0.07553 0.55904 0.0
C504 C 0.86185 0.0185 0.60716 0.0
C505 C 0.93007 0.08807 0.57801 0.0
C506 C 0.8916 0.00384 0.65182 0.0
C507 C 0.77955 0.92124 0.66217 0.0
N508 N 0.91614 0.05987 0.60121 0.0
N509 N 0.79434 0.94864 0.63883 0.0
H510 H 0.61666 0.76215 0.91902 0.0
H511 H 0.75762 0.60927 0.9902 0.0
H512 H 0.73503 0.72812 0.87763 0.0
H513 H 0.7436 0.74194 0.03005 0.0
H514 H 0.73844 0.64165 0.94881 0.0
H515 H 0.65126 0.74499 0.96032 0.0
C516 C 0.65014 0.75131 0.91867 0.0
C517 C 0.67302 0.7464 0.89493 0.0
C518 C 0.74018 0.66401 0.96658 0.0
C519 C 0.71181 0.72573 0.94195 0.0
C520 C 0.75085 0.64549 0.99018 0.0
C521 C 0.75227 0.67311 0.01354 0.0
C522 C 0.72902 0.70932 0.9664 0.0
C523 C 0.74322 0.7198 0.01244 0.0
C524 C 0.67002 0.7419 0.9422 0.0
C525 C 0.71653 0.73259 0.89554 0.0
N526 N 0.73093 0.73587 0.98927 0.0
N527 N 0.73385 0.72169 0.91868 0.0
H528 H 0.134 0.86584 0.33083 0.0
H529 H 0.88807 0.86126 0.24197 0.0
H530 H 0.0217 0.92562 0.35732 0.0
H531 H 0.00018 0.80043 0.21651 0.0
H532 H 0.93797 0.88788 0.28382 0.0
H533 H 0.08641 0.84346 0.28859 0.0
C534 C 0.09915 0.87406 0.32783 0.0
C535 C 0.08173 0.89743 0.34781 0.0
C536 C 0.9517 0.86878 0.26906 0.0
C537 C 0.02721 0.87235 0.29915 0.0
C538 C 0.92342 0.85386 0.24507 0.0
C539 C 0.93974 0.82835 0.22563 0.0
C540 C -0.0032 0.85827 0.2737 0.0
C541 C 0.98542 0.81913 0.23099 0.0
C542 C 0.07216 0.86154 0.3036 0.0
C543 C 0.037 0.90816 0.34249 0.0
N544 N 0.01222 0.83401 0.25446 0.0
N545 N 0.01121 0.89539 0.31873 0.0
H546 H 0.27098 -0.00049 0.70089 0.0
H547 H 0.27126 0.00876 0.54561 0.0
H548 H 0.39501 0.14717 0.6583 0.0
H549 H 0.24305 0.85875 0.58752 0.0
H550 H 0.29269 0.06092 0.58723 0.0
H551 H 0.23616 0.9478 0.65939 0.0
C552 C 0.29028 0.02123 0.68281 0.0
C553 C 0.33619 0.07746 0.68298 0.0
C554 C 0.2811 0.01637 0.58722 0.0
C555 C 0.29598 0.0193 0.63571 0.0
C556 C 0.26858 0.98661 0.56359 0.0
C557 C 0.25566 0.92955 0.5632 0.0
C558 C 0.279 0.98827 0.61057 0.0
C559 C 0.25326 0.90287 0.58701 0.0
C560 C 0.27062 0.99172 0.65924 0.0
C561 C 0.35994 0.10362 0.65901 0.0
N562 N 0.26458 0.93234 0.60975 0.0
N563 N 0.33941 0.07444 0.63632 0.0
loop_
_geom_bond_atom_site_label_1
_geom_bond_atom_site_label_2
_geom_bond_distance
_geom_bond_site_symmetry_2
_ccdc_geom_bond_type
Dy0 O3 2.307 . S
Dy0 O5 2.395 . S
Dy0 O6 2.379 . S
Dy0 O8 2.339 . S
Dy0 O10 2.298 . S
Dy0 O14 2.275 . S
Dy0 C22 2.738 . S
Dy1 O4 2.298 . S
Dy1 O7 2.275 . S
Dy1 O9 2.307 . S
Dy1 O11 2.395 . S
Dy1 O12 2.379 . S
Dy1 O15 2.339 . S
Dy1 C31 2.738 . S
C2 O14 1.254 . S
C2 O15 1.257 . S
O3 Dy0 2.307 . S
O3 C13 1.266 . S
O4 Dy1 2.298 . S
O4 C13 1.236 . S
O5 Dy0 2.395 . S
O5 C22 1.255 . S
O6 Dy0 2.379 . S
O6 C22 1.249 . S
O7 Dy1 2.275 . S
O7 C23 1.254 . S
O8 Dy0 2.339 . S
O8 C23 1.257 . S
O9 Dy1 2.307 . S
O9 C24 1.266 . S
O10 Dy0 2.298 . S
O10 C24 1.236 . S
O11 Dy1 2.395 . S
O11 C31 1.255 . S
O12 Dy1 2.379 . S
O12 C31 1.249 . S
C13 O3 1.266 . S
C13 O4 1.236 . S
O14 Dy0 2.275 . S
O14 C2 1.254 . S
O15 Dy1 2.339 . S
O15 C2 1.257 . S
C16 C19 1.344 . S
C16 C20 1.328 . S
C16 C22 1.516 . S
C17 C18 1.304 . S
C17 C21 1.323 . S
C18 C17 1.304 . S
C18 C19 1.371 . S
C18 H32 0.930 . S
C19 C16 1.344 . S
C19 C18 1.371 . S
C19 H33 0.931 . S
C20 C16 1.328 . S
C20 C21 1.433 . S
C20 H34 0.931 . S
C21 C17 1.323 . S
C21 C20 1.433 . S
C21 H35 0.933 . S
C22 Dy0 2.738 . S
C22 O5 1.255 . S
C22 O6 1.249 . S
C22 C16 1.516 . S
C23 O7 1.254 . S
C23 O8 1.257 . S
C24 O9 1.266 . S
C24 O10 1.236 . S
C25 C28 1.344 . S
C25 C29 1.328 . S
C25 C31 1.516 . S
C26 C27 1.304 . S
C26 C30 1.323 . S
C27 C26 1.304 . S
C27 C28 1.371 . S
C27 H36 0.930 . S
C28 C25 1.344 . S
C28 C27 1.371 . S
C28 H37 0.931 . S
C29 C25 1.328 . S
C29 C30 1.433 . S
C29 H38 0.931 . S
C30 C26 1.323 . S
C30 C29 1.433 . S
C30 H39 0.933 . S
C31 Dy1 2.738 . S
C31 O11 1.255 . S
C31 O12 1.249 . S
C31 C25 1.516 . S
H32 C18 0.930 . S
H33 C19 0.931 . S
H34 C20 0.931 . S
H35 C21 0.933 . S
H36 C27 0.930 . S
H37 C28 0.931 . S
H38 C29 0.931 . S
H39 C30 0.933 . S
Dy40 O43 2.307 . S
Dy40 O45 2.395 . S
Dy40 O46 2.379 . S
Dy40 O48 2.339 . S
Dy40 O50 2.298 . S
Dy40 O54 2.275 . S
Dy40 C62 2.738 . S
Dy41 O44 2.298 . S
Dy41 O47 2.275 . S
Dy41 O49 2.307 . S
Dy41 O51 2.395 . S
Dy41 O52 2.379 . S
Dy41 O55 2.339 . S
Dy41 C71 2.738 . S
C42 O54 1.254 . S
C42 O55 1.257 . S
O43 Dy40 2.307 . S
O43 C53 1.266 . S
O44 Dy41 2.298 . S
O44 C53 1.236 . S
O45 Dy40 2.395 . S
O45 C62 1.255 . S
O46 Dy40 2.379 . S
O46 C62 1.249 . S
O47 Dy41 2.275 . S
O47 C63 1.254 . S
O48 Dy40 2.339 . S
O48 C63 1.257 . S
O49 Dy41 2.307 . S
O49 C64 1.266 . S
O50 Dy40 2.298 . S
O50 C64 1.236 . S
O51 Dy41 2.395 . S
O51 C71 1.255 . S
O52 Dy41 2.379 . S
O52 C71 1.249 . S
C53 O43 1.266 . S
C53 O44 1.236 . S
O54 Dy40 2.275 . S
O54 C42 1.254 . S
O55 Dy41 2.339 . S
O55 C42 1.257 . S
C56 C59 1.344 . S
C56 C60 1.328 . S
C56 C62 1.516 . S
C57 C58 1.304 . S
C57 C61 1.323 . S
C58 C57 1.304 . S
C58 C59 1.371 . S
C58 H72 0.930 . S
C59 C56 1.344 . S
C59 C58 1.371 . S
C59 H73 0.931 . S
C60 C56 1.328 . S
C60 C61 1.433 . S
C60 H74 0.931 . S
C61 C57 1.323 . S
C61 C60 1.433 . S
C61 H75 0.933 . S
C62 Dy40 2.738 . S
C62 O45 1.255 . S
C62 O46 1.249 . S
C62 C56 1.516 . S
C63 O47 1.254 . S
C63 O48 1.257 . S
C64 O49 1.266 . S
C64 O50 1.236 . S
C65 C68 1.344 . S
C65 C69 1.328 . S
C65 C71 1.516 . S
C66 C67 1.304 . S
C66 C70 1.323 . S
C67 C66 1.304 . S
C67 C68 1.371 . S
C67 H76 0.930 . S
C68 C65 1.344 . S
C68 C67 1.371 . S
C68 H77 0.931 . S
C69 C65 1.328 . S
C69 C70 1.433 . S
C69 H78 0.931 . S
C70 C66 1.323 . S
C70 C69 1.433 . S
C70 H79 0.933 . S
C71 Dy41 2.738 . S
C71 O51 1.255 . S
C71 O52 1.249 . S
C71 C65 1.516 . S
H72 C58 0.930 . S
H73 C59 0.931 . S
H74 C60 0.931 . S
H75 C61 0.933 . S
H76 C67 0.930 . S
H77 C68 0.931 . S
H78 C69 0.931 . S
H79 C70 0.933 . S
Dy80 O83 2.307 . S
Dy80 O85 2.395 . S
Dy80 O86 2.379 . S
Dy80 O88 2.339 . S
Dy80 O90 2.298 . S
Dy80 O94 2.275 . S
Dy80 C102 2.738 . S
Dy81 O84 2.298 . S
Dy81 O87 2.275 . S
Dy81 O89 2.307 . S
Dy81 O91 2.395 . S
Dy81 O92 2.379 . S
Dy81 O95 2.339 . S
Dy81 C111 2.738 . S
C82 O94 1.254 . S
C82 O95 1.257 . S
O83 Dy80 2.307 . S
O83 C93 1.266 . S
O84 Dy81 2.298 . S
O84 C93 1.236 . S
O85 Dy80 2.395 . S
O85 C102 1.255 . S
O86 Dy80 2.379 . S
O86 C102 1.249 . S
O87 Dy81 2.275 . S
O87 C103 1.254 . S
O88 Dy80 2.339 . S
O88 C103 1.257 . S
O89 Dy81 2.307 . S
O89 C104 1.266 . S
O90 Dy80 2.298 . S
O90 C104 1.236 . S
O91 Dy81 2.395 . S
O91 C111 1.255 . S
O92 Dy81 2.379 . S
O92 C111 1.249 . S
C93 O83 1.266 . S
C93 O84 1.236 . S
O94 Dy80 2.275 . S
O94 C82 1.254 . S
O95 Dy81 2.339 . S
O95 C82 1.257 . S
C96 C99 1.344 . S
C96 C100 1.328 . S
C96 C102 1.516 . S
C97 C98 1.304 . S
C97 C101 1.323 . S
C98 C97 1.304 . S
C98 C99 1.371 . S
C98 H112 0.930 . S
C99 C96 1.344 . S
C99 C98 1.371 . S
C99 H113 0.931 . S
C100 C96 1.328 . S
C100 C101 1.433 . S
C100 H114 0.931 . S
C101 C97 1.323 . S
C101 C100 1.433 . S
C101 H115 0.933 . S
C102 Dy80 2.738 . S
C102 O85 1.255 . S
C102 O86 1.249 . S
C102 C96 1.516 . S
C103 O87 1.254 . S
C103 O88 1.257 . S
C104 O89 1.266 . S
C104 O90 1.236 . S
C105 C108 1.344 . S
C105 C109 1.328 . S
C105 C111 1.516 . S
C106 C107 1.304 . S
C106 C110 1.323 . S
C107 C106 1.304 . S
C107 C108 1.371 . S
C107 H116 0.930 . S
C108 C105 1.344 . S
C108 C107 1.371 . S
C108 H117 0.931 . S
C109 C105 1.328 . S
C109 C110 1.433 . S
C109 H118 0.931 . S
C110 C106 1.323 . S
C110 C109 1.433 . S
C110 H119 0.933 . S
C111 Dy81 2.738 . S
C111 O91 1.255 . S
C111 O92 1.249 . S
C111 C105 1.516 . S
H112 C98 0.930 . S
H113 C99 0.931 . S
H114 C100 0.931 . S
H115 C101 0.933 . S
H116 C107 0.930 . S
H117 C108 0.931 . S
H118 C109 0.931 . S
H119 C110 0.933 . S
Dy120 O123 2.307 . S
Dy120 O125 2.395 . S
Dy120 O126 2.379 . S
Dy120 O128 2.339 . S
Dy120 O130 2.298 . S
Dy120 O134 2.275 . S
Dy120 C142 2.738 . S
Dy121 O124 2.298 . S
Dy121 O127 2.275 . S
Dy121 O129 2.307 . S
Dy121 O131 2.395 . S
Dy121 O132 2.379 . S
Dy121 O135 2.339 . S
Dy121 C151 2.738 . S
C122 O134 1.254 . S
C122 O135 1.257 . S
O123 Dy120 2.307 . S
O123 C133 1.266 . S
O124 Dy121 2.298 . S
O124 C133 1.236 . S
O125 Dy120 2.395 . S
O125 C142 1.255 . S
O126 Dy120 2.379 . S
O126 C142 1.249 . S
O127 Dy121 2.275 . S
O127 C143 1.254 . S
O128 Dy120 2.339 . S
O128 C143 1.257 . S
O129 Dy121 2.307 . S
O129 C144 1.266 . S
O130 Dy120 2.298 . S
O130 C144 1.236 . S
O131 Dy121 2.395 . S
O131 C151 1.255 . S
O132 Dy121 2.379 . S
O132 C151 1.249 . S
C133 O123 1.266 . S
C133 O124 1.236 . S
O134 Dy120 2.275 . S
O134 C122 1.254 . S
O135 Dy121 2.339 . S
O135 C122 1.257 . S
C136 C139 1.344 . S
C136 C140 1.328 . S
C136 C142 1.516 . S
C137 C138 1.304 . S
C137 C141 1.323 . S
C138 C137 1.304 . S
C138 C139 1.371 . S
C138 H152 0.930 . S
C139 C136 1.344 . S
C139 C138 1.371 . S
C139 H153 0.931 . S
C140 C136 1.328 . S
C140 C141 1.433 . S
C140 H154 0.931 . S
C141 C137 1.323 . S
C141 C140 1.433 . S
C141 H155 0.933 . S
C142 Dy120 2.738 . S
C142 O125 1.255 . S
C142 O126 1.249 . S
C142 C136 1.516 . S
C143 O127 1.254 . S
C143 O128 1.257 . S
C144 O129 1.266 . S
C144 O130 1.236 . S
C145 C148 1.344 . S
C145 C149 1.328 . S
C145 C151 1.516 1_556 S
C146 C147 1.304 . S
C146 C150 1.323 . S
C147 C146 1.304 . S
C147 C148 1.371 . S
C147 H156 0.930 . S
C148 C145 1.344 . S
C148 C147 1.371 . S
C148 H157 0.931 . S
C149 C145 1.328 . S
C149 C150 1.433 . S
C149 H158 0.931 . S
C150 C146 1.323 . S
C150 C149 1.433 . S
C150 H159 0.933 . S
C151 Dy121 2.738 . S
C151 O131 1.255 . S
C151 O132 1.249 . S
C151 C145 1.516 1_554 S
H152 C138 0.930 . S
H153 C139 0.931 . S
H154 C140 0.931 . S
H155 C141 0.933 . S
H156 C147 0.930 . S
H157 C148 0.931 . S
H158 C149 0.931 . S
H159 C150 0.933 . S
Dy160 O163 2.307 . S
Dy160 O165 2.395 . S
Dy160 O166 2.379 . S
Dy160 O168 2.339 . S
Dy160 O170 2.298 . S
Dy160 O174 2.275 . S
Dy160 C182 2.738 . S
Dy161 O164 2.298 . S
Dy161 O167 2.275 . S
Dy161 O169 2.307 . S
Dy161 O171 2.395 . S
Dy161 O172 2.379 . S
Dy161 O175 2.339 . S
Dy161 C191 2.738 . S
C162 O174 1.254 . S
C162 O175 1.257 . S
O163 Dy160 2.307 . S
O163 C173 1.266 . S
O164 Dy161 2.298 . S
O164 C173 1.236 . S
O165 Dy160 2.395 . S
O165 C182 1.255 . S
O166 Dy160 2.379 . S
O166 C182 1.249 . S
O167 Dy161 2.275 . S
O167 C183 1.254 . S
O168 Dy160 2.339 . S
O168 C183 1.257 . S
O169 Dy161 2.307 . S
O169 C184 1.266 . S
O170 Dy160 2.298 . S
O170 C184 1.236 . S
O171 Dy161 2.395 . S
O171 C191 1.255 . S
O172 Dy161 2.379 . S
O172 C191 1.249 . S
C173 O163 1.266 . S
C173 O164 1.236 . S
O174 Dy160 2.275 . S
O174 C162 1.254 . S
O175 Dy161 2.339 . S
O175 C162 1.257 . S
C176 C179 1.344 . S
C176 C180 1.328 . S
C176 C182 1.516 . S
C177 C178 1.304 . S
C177 C181 1.323 . S
C178 C177 1.304 . S
C178 C179 1.371 . S
C178 H192 0.930 . S
C179 C176 1.344 . S
C179 C178 1.371 . S
C179 H193 0.931 . S
C180 C176 1.328 . S
C180 C181 1.433 . S
C180 H194 0.931 . S
C181 C177 1.323 . S
C181 C180 1.433 . S
C181 H195 0.933 . S
C182 Dy160 2.738 . S
C182 O165 1.255 . S
C182 O166 1.249 . S
C182 C176 1.516 . S
C183 O167 1.254 . S
C183 O168 1.257 . S
C184 O169 1.266 . S
C184 O170 1.236 . S
C185 C188 1.344 . S
C185 C189 1.328 . S
C185 C191 1.516 . S
C186 C187 1.304 . S
C186 C190 1.323 . S
C187 C186 1.304 . S
C187 C188 1.371 . S
C187 H196 0.930 . S
C188 C185 1.344 . S
C188 C187 1.371 . S
C188 H197 0.931 . S
C189 C185 1.328 . S
C189 C190 1.433 . S
C189 H198 0.931 . S
C190 C186 1.323 . S
C190 C189 1.433 . S
C190 H199 0.933 . S
C191 Dy161 2.738 . S
C191 O171 1.255 . S
C191 O172 1.249 . S
C191 C185 1.516 . S
H192 C178 0.930 . S
H193 C179 0.931 . S
H194 C180 0.931 . S
H195 C181 0.933 . S
H196 C187 0.930 . S
H197 C188 0.931 . S
H198 C189 0.931 . S
H199 C190 0.933 . S
Dy200 O203 2.307 . S
Dy200 O205 2.395 . S
Dy200 O206 2.379 . S
Dy200 O208 2.339 . S
Dy200 O210 2.298 . S
Dy200 O214 2.275 . S
Dy200 C222 2.738 . S
Dy201 O204 2.298 . S
Dy201 O207 2.275 . S
Dy201 O209 2.307 . S
Dy201 O211 2.395 . S
Dy201 O212 2.379 . S
Dy201 O215 2.339 . S
Dy201 C231 2.738 . S
C202 O214 1.254 . S
C202 O215 1.257 . S
O203 Dy200 2.307 . S
O203 C213 1.266 . S
O204 Dy201 2.298 . S
O204 C213 1.236 . S
O205 Dy200 2.395 . S
O205 C222 1.255 . S
O206 Dy200 2.379 . S
O206 C222 1.249 . S
O207 Dy201 2.275 . S
O207 C223 1.254 . S
O208 Dy200 2.339 . S
O208 C223 1.257 . S
O209 Dy201 2.307 . S
O209 C224 1.266 . S
O210 Dy200 2.298 . S
O210 C224 1.236 . S
O211 Dy201 2.395 . S
O211 C231 1.255 . S
O212 Dy201 2.379 . S
O212 C231 1.249 . S
C213 O203 1.266 . S
C213 O204 1.236 . S
O214 Dy200 2.275 . S
O214 C202 1.254 . S
O215 Dy201 2.339 . S
O215 C202 1.257 . S
C216 C219 1.344 . S
C216 C220 1.328 . S
C216 C222 1.516 . S
C217 C218 1.304 . S
C217 C221 1.323 . S
C218 C217 1.304 . S
C218 C219 1.371 . S
C218 H232 0.930 . S
C219 C216 1.344 . S
C219 C218 1.371 . S
C219 H233 0.931 . S
C220 C216 1.328 . S
C220 C221 1.433 . S
C220 H234 0.931 . S
C221 C217 1.323 . S
C221 C220 1.433 . S
C221 H235 0.933 . S
C222 Dy200 2.738 . S
C222 O205 1.255 . S
C222 O206 1.249 . S
C222 C216 1.516 . S
C223 O207 1.254 . S
C223 O208 1.257 . S
C224 O209 1.266 . S
C224 O210 1.236 . S
C225 C228 1.344 . S
C225 C229 1.328 . S
C225 C231 1.516 . S
C226 C227 1.304 . S
C226 C230 1.323 . S
C227 C226 1.304 . S
C227 C228 1.371 . S
C227 H236 0.930 . S
C228 C225 1.344 . S
C228 C227 1.371 . S
C228 H237 0.931 . S
C229 C225 1.328 . S
C229 C230 1.433 . S
C229 H238 0.931 . S
C230 C226 1.323 . S
C230 C229 1.433 . S
C230 H239 0.933 . S
C231 Dy201 2.738 . S
C231 O211 1.255 . S
C231 O212 1.249 . S
C231 C225 1.516 . S
H232 C218 0.930 . S
H233 C219 0.931 . S
H234 C220 0.931 . S
H235 C221 0.933 . S
H236 C227 0.930 . S
H237 C228 0.931 . S
H238 C229 0.931 . S
H239 C230 0.933 . S
H240 C246 0.930 . S
H241 C250 0.930 . S
H242 C255 0.929 . S
H243 C253 0.929 . S
H244 C248 0.929 . S
H245 C254 0.929 . S
C246 H240 0.930 . S
C246 C247 1.367 . S
C246 C254 1.378 . S
C247 C246 1.367 . S
C247 C255 1.433 . S
C248 H244 0.929 . S
C248 C250 1.378 . S
C248 C252 1.350 . S
C249 C252 1.463 . S
C249 C254 1.350 . S
C249 N257 1.427 . S
C250 H241 0.930 . S
C250 C248 1.378 . S
C250 C251 1.367 . S
C251 C250 1.367 . S
C251 C253 1.433 . S
C252 C248 1.350 . S
C252 C249 1.463 . S
C252 N256 1.427 . S
C253 H243 0.929 . S
C253 C251 1.433 . S
C253 N256 1.384 . S
C254 H245 0.929 . S
C254 C246 1.378 . S
C254 C249 1.350 . S
C255 H242 0.929 . S
C255 C247 1.433 . S
C255 N257 1.384 . S
N256 C252 1.427 . S
N256 C253 1.384 . S
N257 C249 1.427 . S
N257 C255 1.384 . S
H258 C264 0.930 . S
H259 C268 0.930 . S
H260 C273 0.929 . S
H261 C271 0.929 . S
H262 C266 0.929 . S
H263 C272 0.929 . S
C264 H258 0.930 . S
C264 C265 1.367 . S
C264 C272 1.378 . S
C265 C264 1.367 . S
C265 C273 1.433 . S
C266 H262 0.929 . S
C266 C268 1.378 . S
C266 C270 1.350 . S
C267 C270 1.463 . S
C267 C272 1.350 . S
C267 N275 1.427 . S
C268 H259 0.930 . S
C268 C266 1.378 . S
C268 C269 1.367 . S
C269 C268 1.367 . S
C269 C271 1.433 . S
C270 C266 1.350 . S
C270 C267 1.463 . S
C270 N274 1.427 . S
C271 H261 0.929 . S
C271 C269 1.433 . S
C271 N274 1.384 . S
C272 H263 0.929 . S
C272 C264 1.378 . S
C272 C267 1.350 . S
C273 H260 0.929 . S
C273 C265 1.433 . S
C273 N275 1.384 . S
N274 C270 1.427 . S
N274 C271 1.384 . S
N275 C267 1.427 . S
N275 C273 1.384 . S
H276 C282 0.930 . S
H277 C286 0.930 . S
H278 C291 0.929 . S
H279 C289 0.929 . S
H280 C284 0.929 1_554 S
H281 C290 0.929 . S
C282 H276 0.930 . S
C282 C283 1.367 . S
C282 C290 1.378 . S
C283 C282 1.367 . S
C283 C291 1.433 . S
C284 H280 0.929 1_556 S
C284 C286 1.378 . S
C284 C288 1.350 1_556 S
C285 C288 1.463 . S
C285 C290 1.350 . S
C285 N293 1.427 . S
C286 H277 0.930 . S
C286 C284 1.378 . S
C286 C287 1.367 . S
C287 C286 1.367 . S
C287 C289 1.433 . S
C288 C284 1.350 1_554 S
C288 C285 1.463 . S
C288 N292 1.427 . S
C289 H279 0.929 . S
C289 C287 1.433 . S
C289 N292 1.384 1_556 S
C290 H281 0.929 . S
C290 C282 1.378 . S
C290 C285 1.350 . S
C291 H278 0.929 . S
C291 C283 1.433 . S
C291 N293 1.384 . S
N292 C288 1.427 . S
N292 C289 1.384 1_554 S
N293 C285 1.427 . S
N293 C291 1.384 . S
H294 C300 0.930 . S
H295 C304 0.930 . S
H296 C309 0.929 . S
H297 C307 0.929 . S
H298 C302 0.929 . S
H299 C308 0.929 . S
C300 H294 0.930 . S
C300 C301 1.367 . S
C300 C308 1.378 . S
C301 C300 1.367 . S
C301 C309 1.433 . S
C302 H298 0.929 . S
C302 C304 1.378 . S
C302 C306 1.350 . S
C303 C306 1.463 . S
C303 C308 1.350 . S
C303 N311 1.427 . S
C304 H295 0.930 . S
C304 C302 1.378 . S
C304 C305 1.367 . S
C305 C304 1.367 . S
C305 C307 1.433 . S
C306 C302 1.350 . S
C306 C303 1.463 . S
C306 N310 1.427 . S
C307 H297 0.929 . S
C307 C305 1.433 . S
C307 N310 1.384 . S
C308 H299 0.929 . S
C308 C300 1.378 . S
C308 C303 1.350 . S
C309 H296 0.929 . S
C309 C301 1.433 . S
C309 N311 1.384 . S
N310 C306 1.427 . S
N310 C307 1.384 . S
N311 C303 1.427 . S
N311 C309 1.384 . S
H312 C318 0.930 . S
H313 C322 0.930 . S
H314 C327 0.929 . S
H315 C325 0.929 . S
H316 C320 0.929 . S
H317 C326 0.929 . S
C318 H312 0.930 . S
C318 C319 1.367 . S
C318 C326 1.378 . S
C319 C318 1.367 . S
C319 C327 1.433 . S
C320 H316 0.929 . S
C320 C322 1.378 . S
C320 C324 1.350 . S
C321 C324 1.463 . S
C321 C326 1.350 . S
C321 N329 1.427 . S
C322 H313 0.930 . S
C322 C320 1.378 . S
C322 C323 1.367 . S
C323 C322 1.367 . S
C323 C325 1.433 . S
C324 C320 1.350 . S
C324 C321 1.463 . S
C324 N328 1.427 . S
C325 H315 0.929 . S
C325 C323 1.433 . S
C325 N328 1.384 . S
C326 H317 0.929 . S
C326 C318 1.378 . S
C326 C321 1.350 . S
C327 H314 0.929 . S
C327 C319 1.433 . S
C327 N329 1.384 . S
N328 C324 1.427 . S
N328 C325 1.384 . S
N329 C321 1.427 . S
N329 C327 1.384 . S
H330 C336 0.930 . S
H331 C340 0.930 . S
H332 C345 0.929 . S
H333 C343 0.929 . S
H334 C338 0.929 . S
H335 C344 0.929 . S
C336 H330 0.930 . S
C336 C337 1.367 . S
C336 C344 1.378 . S
C337 C336 1.367 . S
C337 C345 1.433 . S
C338 H334 0.929 . S
C338 C340 1.378 . S
C338 C342 1.350 . S
C339 C342 1.463 . S
C339 C344 1.350 . S
C339 N347 1.427 . S
C340 H331 0.930 . S
C340 C338 1.378 . S
C340 C341 1.367 . S
C341 C340 1.367 . S
C341 C343 1.433 . S
C342 C338 1.350 . S
C342 C339 1.463 . S
C342 N346 1.427 . S
C343 H333 0.929 . S
C343 C341 1.433 . S
C343 N346 1.384 . S
C344 H335 0.929 . S
C344 C336 1.378 . S
C344 C339 1.350 . S
C345 H332 0.929 . S
C345 C337 1.433 . S
C345 N347 1.384 . S
N346 C342 1.427 . S
N346 C343 1.384 . S
N347 C339 1.427 . S
N347 C345 1.384 . S
H348 C354 0.930 . S
H349 C358 0.930 . S
H350 C363 0.929 . S
H351 C361 0.929 . S
H352 C356 0.929 . S
H353 C362 0.929 . S
C354 H348 0.930 . S
C354 C355 1.367 . S
C354 C362 1.378 . S
C355 C354 1.367 . S
C355 C363 1.433 . S
C356 H352 0.929 . S
C356 C358 1.378 . S
C356 C360 1.350 . S
C357 C360 1.463 . S
C357 C362 1.350 . S
C357 N365 1.427 . S
C358 H349 0.930 . S
C358 C356 1.378 . S
C358 C359 1.367 . S
C359 C358 1.367 . S
C359 C361 1.433 . S
C360 C356 1.350 . S
C360 C357 1.463 . S
C360 N364 1.427 . S
C361 H351 0.929 . S
C361 C359 1.433 . S
C361 N364 1.384 . S
C362 H353 0.929 . S
C362 C354 1.378 . S
C362 C357 1.350 . S
C363 H350 0.929 . S
C363 C355 1.433 . S
C363 N365 1.384 . S
N364 C360 1.427 . S
N364 C361 1.384 . S
N365 C357 1.427 . S
N365 C363 1.384 . S
H366 C372 0.930 . S
H367 C376 0.930 . S
H368 C381 0.929 . S
H369 C379 0.929 1_655 S
H370 C374 0.929 . S
H371 C380 0.929 . S
C372 H366 0.930 . S
C372 C373 1.367 . S
C372 C380 1.378 . S
C373 C372 1.367 . S
C373 C381 1.433 . S
C374 H370 0.929 . S
C374 C376 1.378 . S
C374 C378 1.350 . S
C375 C378 1.463 . S
C375 C380 1.350 . S
C375 N383 1.427 . S
C376 H367 0.930 . S
C376 C374 1.378 . S
C376 C377 1.367 . S
C377 C376 1.367 . S
C377 C379 1.433 . S
C378 C374 1.350 . S
C378 C375 1.463 . S
C378 N382 1.427 . S
C379 H369 0.929 1_455 S
C379 C377 1.433 . S
C379 N382 1.384 . S
C380 H371 0.929 . S
C380 C372 1.378 . S
C380 C375 1.350 . S
C381 H368 0.929 . S
C381 C373 1.433 . S
C381 N383 1.384 . S
N382 C378 1.427 . S
N382 C379 1.384 . S
N383 C375 1.427 . S
N383 C381 1.384 . S
H384 C390 0.930 . S
H385 C394 0.930 . S
H386 C399 0.929 . S
H387 C397 0.929 . S
H388 C392 0.929 . S
H389 C398 0.929 . S
C390 H384 0.930 . S
C390 C391 1.367 . S
C390 C398 1.378 . S
C391 C390 1.367 . S
C391 C399 1.433 1_565 S
C392 H388 0.929 . S
C392 C394 1.378 . S
C392 C396 1.350 . S
C393 C396 1.463 . S
C393 C398 1.350 . S
C393 N401 1.427 . S
C394 H385 0.930 . S
C394 C392 1.378 . S
C394 C395 1.367 . S
C395 C394 1.367 . S
C395 C397 1.433 . S
C396 C392 1.350 . S
C396 C393 1.463 . S
C396 N400 1.427 . S
C397 H387 0.929 . S
C397 C395 1.433 . S
C397 N400 1.384 . S
C398 H389 0.929 . S
C398 C390 1.378 . S
C398 C393 1.350 . S
C399 H386 0.929 . S
C399 C391 1.433 1_545 S
C399 N401 1.384 1_545 S
N400 C396 1.427 . S
N400 C397 1.384 . S
N401 C393 1.427 . S
N401 C399 1.384 1_565 S
H402 C408 0.930 . S
H403 C412 0.930 . S
H404 C417 0.929 . S
H405 C415 0.929 . S
H406 C410 0.929 . S
H407 C416 0.929 . S
C408 H402 0.930 . S
C408 C409 1.367 . S
C408 C416 1.378 . S
C409 C408 1.367 . S
C409 C417 1.433 . S
C410 H406 0.929 . S
C410 C412 1.378 . S
C410 C414 1.350 . S
C411 C414 1.463 . S
C411 C416 1.350 . S
C411 N419 1.427 . S
C412 H403 0.930 . S
C412 C410 1.378 . S
C412 C413 1.367 . S
C413 C412 1.367 . S
C413 C415 1.433 . S
C414 C410 1.350 . S
C414 C411 1.463 . S
C414 N418 1.427 . S
C415 H405 0.929 . S
C415 C413 1.433 . S
C415 N418 1.384 . S
C416 H407 0.929 . S
C416 C408 1.378 . S
C416 C411 1.350 . S
C417 H404 0.929 . S
C417 C409 1.433 . S
C417 N419 1.384 . S
N418 C414 1.427 . S
N418 C415 1.384 . S
N419 C411 1.427 . S
N419 C417 1.384 . S
H420 C426 0.930 . S
H421 C430 0.930 . S
H422 C435 0.929 . S
H423 C433 0.929 . S
H424 C428 0.929 . S
H425 C434 0.929 . S
C426 H420 0.930 . S
C426 C427 1.367 . S
C426 C434 1.378 . S
C427 C426 1.367 . S
C427 C435 1.433 1_655 S
C428 H424 0.929 . S
C428 C430 1.378 . S
C428 C432 1.350 . S
C429 C432 1.463 . S
C429 C434 1.350 . S
C429 N437 1.427 . S
C430 H421 0.930 . S
C430 C428 1.378 . S
C430 C431 1.367 . S
C431 C430 1.367 . S
C431 C433 1.433 . S
C432 C428 1.350 . S
C432 C429 1.463 . S
C432 N436 1.427 . S
C433 H423 0.929 . S
C433 C431 1.433 . S
C433 N436 1.384 . S
C434 H425 0.929 . S
C434 C426 1.378 . S
C434 C429 1.350 . S
C435 H422 0.929 . S
C435 C427 1.433 1_455 S
C435 N437 1.384 1_455 S
N436 C432 1.427 . S
N436 C433 1.384 . S
N437 C429 1.427 . S
N437 C435 1.384 1_655 S
H438 C444 0.930 . S
H439 C448 0.930 . S
H440 C453 0.929 . S
H441 C451 0.929 . S
H442 C446 0.929 . S
H443 C452 0.929 . S
C444 H438 0.930 . S
C444 C445 1.367 1_565 S
C444 C452 1.378 1_565 S
C445 C444 1.367 1_545 S
C445 C453 1.433 . S
C446 H442 0.929 . S
C446 C448 1.378 . S
C446 C450 1.350 . S
C447 C450 1.463 . S
C447 C452 1.350 . S
C447 N455 1.427 . S
C448 H439 0.930 . S
C448 C446 1.378 . S
C448 C449 1.367 . S
C449 C448 1.367 . S
C449 C451 1.433 . S
C450 C446 1.350 . S
C450 C447 1.463 . S
C450 N454 1.427 . S
C451 H441 0.929 . S
C451 C449 1.433 . S
C451 N454 1.384 . S
C452 H443 0.929 . S
C452 C444 1.378 1_545 S
C452 C447 1.350 . S
C453 H440 0.929 . S
C453 C445 1.433 . S
C453 N455 1.384 . S
N454 C450 1.427 . S
N454 C451 1.384 . S
N455 C447 1.427 . S
N455 C453 1.384 . S
H456 C462 0.930 . S
H457 C466 0.930 . S
H458 C471 0.929 . S
H459 C469 0.929 . S
H460 C464 0.929 . S
H461 C470 0.929 . S
C462 H456 0.930 . S
C462 C463 1.367 . S
C462 C470 1.378 . S
C463 C462 1.367 . S
C463 C471 1.433 . S
C464 H460 0.929 . S
C464 C466 1.378 . S
C464 C468 1.350 . S
C465 C468 1.463 . S
C465 C470 1.350 . S
C465 N473 1.427 . S
C466 H457 0.930 . S
C466 C464 1.378 . S
C466 C467 1.367 1_556 S
C467 C466 1.367 1_554 S
C467 C469 1.433 . S
C468 C464 1.350 . S
C468 C465 1.463 . S
C468 N472 1.427 . S
C469 H459 0.929 . S
C469 C467 1.433 . S
C469 N472 1.384 1_554 S
C470 H461 0.929 . S
C470 C462 1.378 . S
C470 C465 1.350 . S
C471 H458 0.929 . S
C471 C463 1.433 . S
C471 N473 1.384 . S
N472 C468 1.427 . S
N472 C469 1.384 1_556 S
N473 C465 1.427 . S
N473 C471 1.384 . S
H474 C480 0.930 . S
H475 C484 0.930 . S
H476 C489 0.929 . S
H477 C487 0.929 . S
H478 C482 0.929 . S
H479 C488 0.929 . S
C480 H474 0.930 . S
C480 C481 1.367 1_455 S
C480 C488 1.378 . S
C481 C480 1.367 1_655 S
C481 C489 1.433 . S
C482 H478 0.929 . S
C482 C484 1.378 1_655 S
C482 C486 1.350 1_655 S
C483 C486 1.466 . S
C483 C488 1.350 . S
C483 N491 1.425 1_455 S
C484 H475 0.930 . S
C484 C482 1.378 1_455 S
C484 C485 1.367 . S
C485 C484 1.367 . S
C485 C487 1.433 . S
C486 C482 1.350 1_455 S
C486 C483 1.466 . S
C486 N490 1.427 . S
C487 H477 0.929 . S
C487 C485 1.433 . S
C487 N490 1.384 . S
C488 H479 0.929 . S
C488 C480 1.378 . S
C488 C483 1.350 . S
C489 H476 0.929 . S
C489 C481 1.433 . S
C489 N491 1.384 . S
N490 C486 1.427 . S
N490 C487 1.384 . S
N491 C483 1.425 1_655 S
N491 C489 1.384 . S
H492 C498 0.930 . S
H493 C502 0.930 . S
H494 C507 0.929 . S
H495 C505 0.929 . S
H496 C500 0.929 1_565 S
H497 C506 0.929 . S
C498 H492 0.930 . S
C498 C499 1.367 . S
C498 C506 1.378 1_565 S
C499 C498 1.367 . S
C499 C507 1.433 . S
C500 H496 0.929 1_545 S
C500 C502 1.378 . S
C500 C504 1.350 . S
C501 C504 1.463 1_565 S
C501 C506 1.350 1_565 S
C501 N509 1.427 . S
C502 H493 0.930 . S
C502 C500 1.378 . S
C502 C503 1.367 . S
C503 C502 1.367 . S
C503 C505 1.433 . S
C504 C500 1.350 . S
C504 C501 1.463 1_545 S
C504 N508 1.427 . S
C505 H495 0.929 . S
C505 C503 1.433 . S
C505 N508 1.384 . S
C506 H497 0.929 . S
C506 C498 1.378 1_545 S
C506 C501 1.350 1_545 S
C507 H494 0.929 . S
C507 C499 1.433 . S
C507 N509 1.384 . S
N508 C504 1.427 . S
N508 C505 1.384 . S
N509 C501 1.427 . S
N509 C507 1.384 . S
H510 C516 0.930 . S
H511 C520 0.930 . S
H512 C525 0.929 . S
H513 C523 0.929 . S
H514 C518 0.929 . S
H515 C524 0.929 . S
C516 H510 0.930 . S
C516 C517 1.367 . S
C516 C524 1.378 . S
C517 C516 1.367 . S
C517 C525 1.433 . S
C518 H514 0.929 . S
C518 C520 1.378 . S
C518 C522 1.350 . S
C519 C522 1.463 . S
C519 C524 1.350 . S
C519 N527 1.427 . S
C520 H511 0.930 . S
C520 C518 1.378 . S
C520 C521 1.367 1_556 S
C521 C520 1.367 1_554 S
C521 C523 1.433 . S
C522 C518 1.350 . S
C522 C519 1.463 . S
C522 N526 1.427 . S
C523 H513 0.929 . S
C523 C521 1.433 . S
C523 N526 1.384 1_554 S
C524 H515 0.929 . S
C524 C516 1.378 . S
C524 C519 1.350 . S
C525 H512 0.929 . S
C525 C517 1.433 . S
C525 N527 1.384 . S
N526 C522 1.427 . S
N526 C523 1.384 1_556 S
N527 C519 1.427 . S
N527 C525 1.384 . S
H528 C534 0.930 . S
H529 C538 0.930 . S
H530 C543 0.929 . S
H531 C541 0.929 . S
H532 C536 0.929 . S
H533 C542 0.929 . S
C534 H528 0.930 . S
C534 C535 1.367 . S
C534 C542 1.378 . S
C535 C534 1.367 . S
C535 C543 1.433 . S
C536 H532 0.929 . S
C536 C538 1.378 . S
C536 C540 1.350 . S
C537 C540 1.463 1_455 S
C537 C542 1.350 . S
C537 N545 1.427 . S
C538 H529 0.930 . S
C538 C536 1.378 . S
C538 C539 1.367 . S
C539 C538 1.367 . S
C539 C541 1.433 . S
C540 C536 1.350 . S
C540 C537 1.463 1_655 S
C540 N544 1.427 1_655 S
C541 H531 0.929 . S
C541 C539 1.433 . S
C541 N544 1.384 1_655 S
C542 H533 0.929 . S
C542 C534 1.378 . S
C542 C537 1.350 . S
C543 H530 0.929 . S
C543 C535 1.433 . S
C543 N545 1.384 . S
N544 C540 1.427 1_455 S
N544 C541 1.384 1_455 S
N545 C537 1.427 . S
N545 C543 1.384 . S
H546 C552 0.930 1_565 S
H547 C556 0.930 . S
H548 C561 0.929 . S
H549 C559 0.929 . S
H550 C554 0.929 . S
H551 C560 0.929 . S
C552 H546 0.930 1_545 S
C552 C553 1.367 . S
C552 C560 1.378 1_545 S
C553 C552 1.367 . S
C553 C561 1.433 . S
C554 H550 0.929 . S
C554 C556 1.378 . S
C554 C558 1.356 . S
C555 C558 1.468 . S
C555 C560 1.350 1_545 S
C555 N563 1.427 . S
C556 H547 0.930 . S
C556 C554 1.378 . S
C556 C557 1.367 1_545 S
C557 C556 1.367 1_565 S
C557 C559 1.433 . S
C558 C554 1.356 . S
C558 C555 1.468 . S
C558 N562 1.416 1_545 S
C559 H549 0.929 . S
C559 C557 1.433 . S
C559 N562 1.384 . S
C560 H551 0.929 . S
C560 C552 1.378 1_565 S
C560 C555 1.350 1_565 S
C561 H548 0.929 . S
C561 C553 1.433 . S
C561 N563 1.384 . S
N562 C558 1.416 1_565 S
N562 C559 1.384 . S
N563 C555 1.427 . S
N563 C561 1.384 . S
C247 C184 1.367 . S
C251 C26 1.369 . S
C265 C226 1.366 . S
C269 C64 1.364 . S
C283 C24 1.358 . S
C287 C106 1.362 . S
C301 C66 1.361 . S
C305 C144 1.358 . S
C319 C104 1.358 . S
C323 C186 1.363 . S
C337 C146 1.361 . S
C341 C224 1.358 . S
C355 C2 1.602 . S
C359 C143 1.692 . S
C373 C162 1.611 . S
C377 C63 1.696 1_455 S
C391 C223 1.684 1_565 S
C395 C82 1.612 . S
C409 C103 1.684 . S
C413 C202 1.611 . S
C427 C23 1.688 1_655 S
C431 C122 1.616 . S
C445 C183 1.689 1_545 S
C449 C42 1.600 . S
C463 C217 0.782 . S
C467 C17 0.770 . S
C481 C53 1.566 . S
C485 C13 1.570 . S
C499 C97 0.783 . S
C503 C57 0.763 . S
C517 C93 1.563 . S
C521 C133 1.562 . S
C535 C177 0.768 . S
C539 C137 0.784 . S
C553 C213 1.569 . S
C557 C173 1.567 . S
