# Generated by pormake.
# Topology skb, (5)-cn, num edge types: 1
# Building blocks:
#     Node 0, Type 0, BuildingBlock: XOMCOT_clean_sbu_1, # of connection points: 5
#     Node 1, Type 0, BuildingBlock: XOMCOT_clean_sbu_1, # of connection points: 5
#     Node 2, Type 0, BuildingBlock: XOMCOT_clean_sbu_1, # of connection points: 5
#     Node 3, Type 0, BuildingBlock: XOMCOT_clean_sbu_1, # of connection points: 5
#     Node 4, Type 0, BuildingBlock: XOMCOT_clean_sbu_1, # of connection points: 5
#     Node 5, Type 0, BuildingBlock: XOMCOT_clean_sbu_1, # of connection points: 5
#     Node 6, Type 0, BuildingBlock: XOMCOT_clean_sbu_1, # of connection points: 5
#     Node 7, Type 0, BuildingBlock: XOMCOT_clean_sbu_1, # of connection points: 5
#     Node 8, Type 0, BuildingBlock: XOMCOT_clean_sbu_1, # of connection points: 5
#     Node 9, Type 0, BuildingBlock: XOMCOT_clean_sbu_1, # of connection points: 5
#     Node 10, Type 0, BuildingBlock: XOMCOT_clean_sbu_1, # of connection points: 5
#     Node 11, Type 0, BuildingBlock: XOMCOT_clean_sbu_1, # of connection points: 5
#     Node 12, Type 0, BuildingBlock: XOMCOT_clean_sbu_1, # of connection points: 5
#     Node 13, Type 0, BuildingBlock: XOMCOT_clean_sbu_1, # of connection points: 5
#     Node 14, Type 0, BuildingBlock: XOMCOT_clean_sbu_1, # of connection points: 5
#     Node 15, Type 0, BuildingBlock: XOMCOT_clean_sbu_1, # of connection points: 5
#     Edge 16, Type (0, 0), BuildingBlock: XUDNAN_clean_linker_2, # of connection points: 2
#     Edge 17, Type (0, 0), BuildingBlock: XUDNAN_clean_linker_2, # of connection points: 2
#     Edge 18, Type (0, 0), BuildingBlock: XUDNAN_clean_linker_2, # of connection points: 2
#     Edge 19, Type (0, 0), BuildingBlock: XUDNAN_clean_linker_2, # of connection points: 2
#     Edge 20, Type (0, 0), BuildingBlock: XUDNAN_clean_linker_2, # of connection points: 2
#     Edge 21, Type (0, 0), BuildingBlock: XUDNAN_clean_linker_2, # of connection points: 2
#     Edge 22, Type (0, 0), BuildingBlock: XUDNAN_clean_linker_2, # of connection points: 2
#     Edge 23, Type (0, 0), BuildingBlock: XUDNAN_clean_linker_2, # of connection points: 2
#     Edge 24, Type (0, 0), BuildingBlock: XUDNAN_clean_linker_2, # of connection points: 2
#     Edge 25, Type (0, 0), BuildingBlock: XUDNAN_clean_linker_2, # of connection points: 2
#     Edge 26, Type (0, 0), BuildingBlock: XUDNAN_clean_linker_2, # of connection points: 2
#     Edge 27, Type (0, 0), BuildingBlock: XUDNAN_clean_linker_2, # of connection points: 2
#     Edge 28, Type (0, 0), BuildingBlock: XUDNAN_clean_linker_2, # of connection points: 2
#     Edge 29, Type (0, 0), BuildingBlock: XUDNAN_clean_linker_2, # of connection points: 2
#     Edge 30, Type (0, 0), BuildingBlock: XUDNAN_clean_linker_2, # of connection points: 2
#     Edge 31, Type (0, 0), BuildingBlock: XUDNAN_clean_linker_2, # of connection points: 2
#     Edge 32, Type (0, 0), BuildingBlock: XUDNAN_clean_linker_2, # of connection points: 2
#     Edge 33, Type (0, 0), BuildingBlock: XUDNAN_clean_linker_2, # of connection points: 2
#     Edge 34, Type (0, 0), BuildingBlock: XUDNAN_clean_linker_2, # of connection points: 2
#     Edge 35, Type (0, 0), BuildingBlock: XUDNAN_clean_linker_2, # of connection points: 2
#     Edge 36, Type (0, 0), BuildingBlock: XUDNAN_clean_linker_2, # of connection points: 2
#     Edge 37, Type (0, 0), BuildingBlock: XUDNAN_clean_linker_2, # of connection points: 2
#     Edge 38, Type (0, 0), BuildingBlock: XUDNAN_clean_linker_2, # of connection points: 2
#     Edge 39, Type (0, 0), BuildingBlock: XUDNAN_clean_linker_2, # of connection points: 2
#     Edge 40, Type (0, 0), BuildingBlock: XUDNAN_clean_linker_2, # of connection points: 2
#     Edge 41, Type (0, 0), BuildingBlock: XUDNAN_clean_linker_2, # of connection points: 2
#     Edge 42, Type (0, 0), BuildingBlock: XUDNAN_clean_linker_2, # of connection points: 2
#     Edge 43, Type (0, 0), BuildingBlock: XUDNAN_clean_linker_2, # of connection points: 2
#     Edge 44, Type (0, 0), BuildingBlock: XUDNAN_clean_linker_2, # of connection points: 2
#     Edge 45, Type (0, 0), BuildingBlock: XUDNAN_clean_linker_2, # of connection points: 2
#     Edge 46, Type (0, 0), BuildingBlock: XUDNAN_clean_linker_2, # of connection points: 2
#     Edge 47, Type (0, 0), BuildingBlock: XUDNAN_clean_linker_2, # of connection points: 2
#     Edge 48, Type (0, 0), BuildingBlock: XUDNAN_clean_linker_2, # of connection points: 2
#     Edge 49, Type (0, 0), BuildingBlock: XUDNAN_clean_linker_2, # of connection points: 2
#     Edge 50, Type (0, 0), BuildingBlock: XUDNAN_clean_linker_2, # of connection points: 2
#     Edge 51, Type (0, 0), BuildingBlock: XUDNAN_clean_linker_2, # of connection points: 2
#     Edge 52, Type (0, 0), BuildingBlock: XUDNAN_clean_linker_2, # of connection points: 2
#     Edge 53, Type (0, 0), BuildingBlock: XUDNAN_clean_linker_2, # of connection points: 2
#     Edge 54, Type (0, 0), BuildingBlock: XUDNAN_clean_linker_2, # of connection points: 2
#     Edge 55, Type (0, 0), BuildingBlock: XUDNAN_clean_linker_2, # of connection points: 2
# Relax obj value: 0.061
# Max RMSD: 0.108
# Mean RMSD: 0.108
data_MOF--net-skb--node1-XOMCOT_clean_sbu_1--edge1-XUDNAN_clean_linker_2
_symmetry_space_group_name_H-M    P1
_symmetry_Int_Tables_number       1
_symmetry_cell_setting            triclinic
loop_
_symmetry_equiv_pos_as_xyz
'x, y, z'
_cell_length_a     48.813995
_cell_length_b     27.575904
_cell_length_c     68.747605
_cell_angle_alpha  90.158745
_cell_angle_beta   90.02336
_cell_angle_gamma 89.957257
loop_
_atom_site_label
_atom_site_type_symbol
_atom_site_fract_x
_atom_site_fract_y
_atom_site_fract_z
_atom_type_partial_charge
C0 C 0.20013 0.09366 0.11606 0.0
C1 C 0.2009 0.09058 0.09609 0.0
N2 N 0.20131 0.04336 0.09092 0.0
N3 N 0.20033 0.04872 0.12365 0.0
C4 C 0.20097 0.01876 0.108 0.0
H5 H 0.19835 0.12661 0.12454 0.0
Co6 Co 0.19563 0.03607 0.15019 0.0
C7 C 0.20627 0.93087 0.15583 0.0
O8 O 0.18633 0.9301 0.16863 0.0
N9 N 0.19059 0.02426 0.17763 0.0
C10 C 0.17135 0.01396 0.20675 0.0
C11 C 0.16654 0.02166 0.18738 0.0
C12 C 0.20982 0.01833 0.19181 0.0
N13 N 0.19855 1.01187 0.20964 0.0
O14 O 0.23075 0.06505 0.15505 0.0
H15 H 0.14639 0.02473 0.18112 0.0
H16 H 0.23166 0.01836 0.1891 0.0
O17 O 0.21182 0.97038 0.14683 0.0
C18 C 0.22735 0.10659 0.16304 0.0
O19 O 0.20292 0.11791 0.16966 0.0
N20 N 0.16006 0.01643 0.14457 0.0
C21 C 0.10491 0.01604 0.13441 0.0
C22 C 0.12107 0.97439 0.13151 0.0
C23 C 0.149 0.9754 0.13662 0.0
C24 C 0.14484 0.05758 0.14632 0.0
C25 C 0.11724 0.05797 0.14172 0.0
H26 H 0.1616 0.9441 0.13362 0.0
H27 H 0.15441 0.09048 0.15156 0.0
H28 H 0.20033 0.97967 0.10915 0.0
H29 H 0.19979 0.12094 0.08619 0.0
H30 H 0.15588 1.01097 0.21796 0.0
H31 H 0.11225 0.94172 0.12539 0.0
H32 H 0.10566 0.09121 0.14361 0.0
C33 C 0.82975 0.96676 0.11096 0.0
C34 C 0.82872 0.9674 0.09097 0.0
N35 N 0.81825 1.01028 0.08522 0.0
N36 N 0.81989 1.0089 0.11804 0.0
C37 C 0.81298 0.03472 0.10199 0.0
H38 H 0.83798 0.93782 0.11979 0.0
Co39 Co 0.81972 0.02432 0.14478 0.0
C40 C 0.80174 0.12596 0.14743 0.0
O41 O 0.82299 0.13273 0.15879 0.0
N42 N 0.81927 0.03914 0.17262 0.0
C43 C 0.8303 0.06237 0.20285 0.0
C44 C 0.83919 0.05859 0.18398 0.0
C45 C 0.79836 0.0315 0.1854 0.0
N46 N 0.80462 0.04517 0.20384 0.0
O47 O 0.78807 0.98302 0.14791 0.0
H48 H 0.85891 0.07121 0.17911 0.0
H49 H 0.77868 0.01668 0.18131 0.0
O50 O 0.79755 0.08397 0.13986 0.0
C51 C 0.7996 0.94436 0.15424 0.0
O52 O 0.826 0.94573 0.15783 0.0
N53 N 0.85345 0.0554 0.14118 0.0
C54 C 0.90827 0.07068 0.13178 0.0
C55 C 0.88776 0.0999 0.12354 0.0
C56 C 0.86016 0.09156 0.12845 0.0
C57 C 0.87333 0.02607 0.14858 0.0
C58 C 0.90073 0.03391 0.14458 0.0
H59 H 0.84432 0.11208 0.1212 0.0
H60 H 0.86787 0.99555 0.15755 0.0
H61 H 0.80475 0.0711 0.10259 0.0
H62 H 0.83624 0.9391 0.08143 0.0
H63 H 0.84206 0.07633 0.21499 0.0
H64 H 0.89294 0.12778 0.11311 0.0
H65 H 0.91591 1.00967 0.15075 0.0
C66 C 0.15422 0.9866 0.92341 0.0
C67 C 0.15266 0.97538 0.94284 0.0
N68 N 0.17563 0.99118 0.95163 0.0
N69 N 0.17795 1.00997 0.91983 0.0
C70 C 0.19082 1.01144 0.93733 0.0
H71 H 0.13914 0.97745 0.91247 0.0
Co72 Co 0.18991 0.02705 0.89468 0.0
C73 C 0.20722 0.12104 0.91725 0.0
O74 O 0.1937 0.11455 0.93354 0.0
N75 N 0.20193 0.04406 0.86921 0.0
C76 C 0.20767 0.09044 0.84305 0.0
C77 C 0.19819 0.08888 0.86178 0.0
C78 C 0.21333 0.01853 0.85431 0.0
N79 N 0.21719 0.04624 0.83826 0.0
O80 O 0.2231 0.99201 0.89951 0.0
H81 H 0.18822 0.11844 0.86934 0.0
H82 H 0.21849 0.98045 0.85507 0.0
O83 O 0.20572 0.08942 0.90359 0.0
C84 C 0.21682 0.94898 0.89412 0.0
O85 O 0.19284 0.94169 0.88594 0.0
N86 N 0.15563 0.05423 0.88925 0.0
C87 C 0.10037 0.06784 0.88044 0.0
C88 C 0.11302 0.09545 0.89517 0.0
C89 C 0.14097 0.08819 0.89935 0.0
C90 C 0.14352 0.02754 0.87496 0.0
C91 C 0.11621 0.03409 0.87018 0.0
H92 H 0.15028 0.10773 0.91124 0.0
H93 H 0.1549 0.99907 0.86774 0.0
H94 H 0.21125 0.02572 0.93945 0.0
H95 H 0.13584 0.95705 0.94997 0.0
H96 H 0.20669 0.12139 0.83341 0.0
H97 H 0.10132 0.12143 0.9036 0.0
H98 H 0.10724 1.01085 0.85917 0.0
C99 C 0.84065 0.07946 0.91498 0.0
C100 C 0.84286 0.09047 0.93443 0.0
N101 N 0.82615 0.06082 0.94448 0.0
N102 N 0.82263 0.04291 0.91261 0.0
C103 C 0.81411 0.03218 0.9309 0.0
H104 H 0.85106 0.09766 0.90319 0.0
Co105 Co 0.81053 0.02106 0.88802 0.0
C106 C 0.8054 0.91617 0.90165 0.0
O107 O 0.8294 0.90416 0.89462 0.0
N108 N 0.79716 0.99992 0.86294 0.0
C109 C 0.78408 0.95367 0.83784 0.0
C110 C 0.79484 0.95384 0.85632 0.0
C111 C 0.78801 0.0271 0.84773 0.0
N112 N 0.77987 0.99978 0.83237 0.0
O113 O 0.77681 0.05404 0.8929 0.0
H114 H 0.8011 0.92182 0.86401 0.0
H115 H 0.7874 0.06626 0.84774 0.0
O116 O 0.79622 0.95956 0.89968 0.0
C117 C 0.7821 0.09691 0.88694 0.0
O118 O 0.80558 0.10482 0.87817 0.0
N119 N 0.84625 0.99692 0.88261 0.0
C120 C 0.90309 1.00004 0.87611 0.0
C121 C 0.89242 0.98096 0.89346 0.0
C122 C 0.86404 0.98069 0.89659 0.0
C123 C 0.85642 0.014 0.86546 0.0
C124 C 0.88446 0.01555 0.86189 0.0
H125 H 0.85655 0.97042 0.9108 0.0
H126 H 0.84316 0.03145 0.85507 0.0
H127 H 0.79854 1.00549 0.93414 0.0
H128 H 0.8556 0.11858 0.9407 0.0
H129 H 0.78049 0.92202 0.82883 0.0
H130 H 0.90582 0.96846 0.90495 0.0
H131 H 0.89133 0.03254 0.84858 0.0
C132 C 0.16916 0.58484 0.61616 0.0
C133 C 0.16876 0.5896 0.5963 0.0
N134 N 0.18679 0.55788 0.58865 0.0
N135 N 0.18712 0.54986 0.62114 0.0
C136 C 0.19789 0.53439 0.60404 0.0
H137 H 0.15664 0.60479 0.6264 0.0
Co138 Co 0.19145 0.5307 0.64707 0.0
C139 C 0.20505 0.42481 0.64245 0.0
O140 O 0.182 0.41424 0.65122 0.0
N141 N 0.19596 0.51223 0.67411 0.0
C142 C 0.18928 0.47832 0.70324 0.0
C143 C 0.18091 0.47964 0.68425 0.0
C144 C 0.21356 0.53012 0.68775 0.0
N145 N 0.2098 0.51019 0.70555 0.0
O146 O 0.2246 0.56783 0.64765 0.0
H147 H 0.16388 0.45896 0.67866 0.0
H148 H 0.22889 0.55737 0.68487 0.0
O149 O 0.21112 0.46951 0.63919 0.0
C150 C 0.21659 0.60961 0.65355 0.0
O151 O 0.19161 0.61391 0.66045 0.0
N152 N 0.15631 0.50336 0.64593 0.0
C153 C 0.09994 0.49909 0.63954 0.0
C154 C 0.11805 0.47367 0.62735 0.0
C155 C 0.14633 0.47647 0.63074 0.0
C156 C 0.13881 0.52809 0.6578 0.0
C157 C 0.11065 0.52545 0.6552 0.0
H158 H 0.16021 0.46035 0.62031 0.0
H159 H 0.14683 0.55276 0.66864 0.0
H160 H 0.21279 0.50545 0.60282 0.0
H161 H 0.15606 0.61435 0.58806 0.0
H162 H 0.18012 0.45682 0.71466 0.0
H163 H 0.11052 0.45372 0.61486 0.0
H164 H 0.09749 0.54699 0.66453 0.0
C165 C 0.80172 0.43768 0.62468 0.0
C166 C 0.80034 0.44058 0.60473 0.0
N167 N 0.80548 0.48666 0.5995 0.0
N168 N 0.80728 0.48187 0.63218 0.0
C169 C 0.80954 0.511 0.61641 0.0
H170 H 0.80014 0.40473 0.63304 0.0
Co171 Co 0.81439 0.49502 0.65862 0.0
C172 C 0.79459 0.596 0.66671 0.0
O173 O 0.81186 0.59931 0.68128 0.0
N174 N 0.82184 0.50681 0.68567 0.0
C175 C 0.84362 0.51544 0.71395 0.0
C176 C 0.84663 0.51268 0.69414 0.0
C177 C 0.80407 0.50618 0.70093 0.0
N178 N 0.81686 0.51098 0.71832 0.0
O179 O 0.78242 0.45785 0.66558 0.0
H180 H 0.86601 0.51406 0.68662 0.0
H181 H 0.78224 0.50066 0.69935 0.0
O182 O 0.79362 0.55705 0.65643 0.0
C183 C 0.79175 0.41783 0.67232 0.0
O184 O 0.81838 0.41304 0.67438 0.0
N185 N 0.84745 0.52323 0.65136 0.0
C186 C 0.90162 0.54016 0.64126 0.0
C187 C 0.88293 0.57882 0.64213 0.0
C188 C 0.85555 0.56952 0.64724 0.0
C189 C 0.86523 0.48545 0.64952 0.0
C190 C 0.89241 0.4931 0.64471 0.0
H191 H 0.84123 0.59924 0.64772 0.0
H192 H 0.85821 0.44896 0.6523 0.0
H193 H 0.8149 0.54901 0.61728 0.0
H194 H 0.79742 0.41049 0.5948 0.0
H195 H 0.86007 0.5199 0.72437 0.0
H196 H 0.88953 0.6156 0.63927 0.0
H197 H 0.90626 0.46242 0.6439 0.0
C198 C 0.15601 0.5006 0.42113 0.0
C199 C 0.15632 0.49969 0.44109 0.0
N200 N 0.17761 0.52651 0.44734 0.0
N201 N 0.17673 0.52858 0.41467 0.0
C202 C 0.18986 0.54339 0.43102 0.0
H203 H 0.14167 0.48158 0.41188 0.0
Co204 Co 0.18383 0.53865 0.3882 0.0
C205 C 0.19833 0.64273 0.38502 0.0
O206 O 0.18115 0.64537 0.3704 0.0
N207 N 0.1912 0.54744 0.3606 0.0
C208 C 0.18634 0.5623 0.32881 0.0
C209 C 0.17412 0.56478 0.34668 0.0
C210 C 0.214 0.5349 0.35034 0.0
N211 N 0.21151 0.54335 0.33097 0.0
O212 O 0.2176 0.50436 0.3914 0.0
H213 H 0.15391 0.5795 0.34902 0.0
H214 H 0.23219 0.51972 0.35691 0.0
O215 O 0.20117 0.60248 0.39413 0.0
C216 C 0.21106 0.46078 0.38705 0.0
O217 O 0.18636 0.45215 0.38034 0.0
N218 N 0.14856 0.56418 0.38564 0.0
C219 C 0.09196 0.57615 0.38348 0.0
C220 C 0.10818 0.61 0.39361 0.0
C221 C 0.13669 0.60301 0.39473 0.0
C222 C 0.13277 0.53009 0.37669 0.0
C223 C 0.10471 0.53574 0.37512 0.0
H224 H 0.14892 0.62743 0.40345 0.0
H225 H 0.14218 0.49777 0.37079 0.0
H226 H 0.20792 0.56614 0.43099 0.0
H227 H 0.14231 0.47987 0.45033 0.0
H228 H 0.17695 0.57275 0.3152 0.0
H229 H 0.09891 0.64089 0.40081 0.0
H230 H 0.09296 0.50755 0.36795 0.0
C231 C 0.7955 0.62082 0.43767 0.0
C232 C 0.7979 0.61777 0.45744 0.0
N233 N 0.80303 0.5714 0.46214 0.0
N234 N 0.79883 0.57654 0.42963 0.0
C235 C 0.80357 0.5468 0.44501 0.0
H236 H 0.79334 0.65413 0.42962 0.0
Co237 Co 0.80163 0.57044 0.40246 0.0
C238 C 0.78985 0.46734 0.39137 0.0
O239 O 0.80515 0.47444 0.37595 0.0
N240 N 0.80471 0.56765 0.37467 0.0
C241 C 0.82113 0.57547 0.34465 0.0
C242 C 0.82744 0.57659 0.3641 0.0
C243 C 0.78465 0.56216 0.36109 0.0
N244 N 0.79417 0.56615 0.34261 0.0
O245 O 0.76599 0.6003 0.39992 0.0
H246 H 0.84741 0.58474 0.36995 0.0
H247 H 0.76351 0.55501 0.3648 0.0
O248 O 0.78622 0.50237 0.40354 0.0
C249 C 0.77059 0.64357 0.39401 0.0
O250 O 0.7959 0.6559 0.38978 0.0
N251 N 0.83796 0.54953 0.40553 0.0
C252 C 0.89471 0.54317 0.40422 0.0
C253 C 0.87864 0.50111 0.40328 0.0
C254 C 0.85009 0.50491 0.40452 0.0
C255 C 0.85354 0.59 0.4083 0.0
C256 C 0.88199 0.58768 0.40775 0.0
H257 H 0.83827 0.47213 0.40406 0.0
H258 H 0.84366 0.62498 0.40959 0.0
H259 H 0.8092 0.50898 0.44361 0.0
H260 H 0.79745 0.64786 0.4676 0.0
H261 H 0.83542 0.5825 0.33298 0.0
H262 H 0.88803 0.46597 0.40093 0.0
H263 H 0.8938 0.62089 0.40854 0.0
C264 C 0.72514 0.99166 0.6078 0.0
C265 C 0.72324 0.99208 0.58783 0.0
N266 N 0.69919 1.01254 0.5828 0.0
N267 N 0.70235 1.01143 0.61562 0.0
C268 C 0.68704 0.0242 0.59995 0.0
H269 H 0.74223 0.97778 0.61611 0.0
Co270 Co 0.69615 0.01909 0.64281 0.0
C271 C 0.71581 0.92396 0.66038 0.0
O272 O 0.70357 0.9319 0.67708 0.0
N273 N 0.69071 0.02709 0.67028 0.0
C274 C 0.67312 0.02997 0.70028 0.0
C275 C 0.66721 0.02607 0.68073 0.0
C276 C 0.71053 0.03307 0.68402 0.0
N277 N 0.70038 0.03443 0.70232 0.0
O278 O 0.72969 0.05454 0.64523 0.0
H279 H 0.64689 0.02161 0.6748 0.0
H280 H 0.73221 0.03339 0.68082 0.0
O281 O 0.71407 0.9553 0.64671 0.0
C282 C 0.72413 0.0978 0.63983 0.0
O283 O 0.70063 0.1056 0.63106 0.0
N284 N 0.66142 0.99153 0.64006 0.0
C285 C 0.60523 0.97484 0.64015 0.0
C286 C 0.62365 0.93688 0.64406 0.0
C287 C 0.65196 0.94581 0.64363 0.0
C288 C 0.6437 0.028 0.63557 0.0
C289 C 0.61562 0.02033 0.63523 0.0
H290 H 0.66581 0.91663 0.64701 0.0
H291 H 0.65147 0.0642 0.63324 0.0
H292 H 0.66757 0.04256 0.60102 0.0
H293 H 0.73831 0.9776 0.57785 0.0
H294 H 0.6585 0.02933 0.71212 0.0
H295 H 0.61621 0.90125 0.648 0.0
H296 H 0.6021 0.05076 0.63252 0.0
C297 C 0.31723 0.94906 0.6152 0.0
C298 C 0.31911 0.94994 0.5952 0.0
N299 N 0.31894 0.99651 0.58941 0.0
N300 N 0.31547 0.99482 0.62207 0.0
C301 C 0.31677 0.02299 0.60597 0.0
H302 H 0.31741 0.91696 0.62419 0.0
Co303 Co 0.31226 1.01123 0.64854 0.0
C304 C 0.30789 0.12002 0.64683 0.0
O305 O 0.32912 0.12357 0.65841 0.0
N306 N 0.30883 0.02785 0.67604 0.0
C307 C 0.31873 0.05425 0.70606 0.0
C308 C 0.32782 0.05042 0.68728 0.0
C309 C 0.28818 0.0184 0.68885 0.0
N310 N 0.29385 0.03384 0.70715 0.0
O311 O 0.27572 0.98469 0.648 0.0
H312 H 0.34758 0.06317 0.68247 0.0
H313 H 0.26925 1.0005 0.68502 0.0
O314 O 0.29914 0.07802 0.64159 0.0
C315 C 0.27845 0.94187 0.65496 0.0
O316 O 0.30176 0.93044 0.66332 0.0
N317 N 0.34962 0.02661 0.64869 0.0
C318 C 0.40669 0.02172 0.65093 0.0
C319 C 0.39384 0.05762 0.63957 0.0
C320 C 0.36503 0.05891 0.63834 0.0
C321 C 0.36202 0.99006 0.65864 0.0
C322 C 0.39023 0.98725 0.66015 0.0
H323 H 0.35531 0.08505 0.6289 0.0
H324 H 0.34976 0.96259 0.6656 0.0
H325 H 0.31623 0.06221 0.60632 0.0
H326 H 0.32133 0.91881 0.5857 0.0
H327 H 0.33003 0.06946 0.71818 0.0
H328 H 0.40585 0.08408 0.6317 0.0
H329 H 0.39905 0.9574 0.66823 0.0
C330 C 0.64472 0.01917 0.41273 0.0
C331 C 0.63856 1.01198 0.43201 0.0
N332 N 0.65977 0.02765 0.4429 0.0
N333 N 0.66956 0.04013 0.41126 0.0
C334 C 0.67858 0.04357 0.4299 0.0
H335 H 0.63179 1.00978 0.40052 0.0
Co336 Co 0.68641 0.05636 0.38744 0.0
C337 C 0.7024 0.14911 0.41141 0.0
O338 O 0.68388 0.14881 0.42525 0.0
N339 N 0.70357 0.07272 0.36335 0.0
C340 C 0.71856 0.11893 0.33905 0.0
C341 C 0.70713 0.11883 0.35727 0.0
C342 C 0.71275 0.04531 0.34821 0.0
N343 N 0.72211 0.07272 0.33323 0.0
O344 O 0.71691 0.01698 0.39476 0.0
H345 H 0.7009 0.1508 0.36526 0.0
H346 H 0.71226 1.00612 0.348 0.0
O347 O 0.70289 0.11551 0.3985 0.0
C348 C 0.70968 0.97513 0.38856 0.0
O349 O 0.6869 0.97136 0.37848 0.0
N350 N 0.65448 0.08806 0.37934 0.0
C351 C 0.59859 0.09576 0.37146 0.0
C352 C 0.61094 0.1253 0.3857 0.0
C353 C 0.63908 0.12084 0.38947 0.0
C354 C 0.64326 0.06262 0.36432 0.0
C355 C 0.61552 0.06603 0.36008 0.0
H356 H 0.64755 0.14007 0.40165 0.0
H357 H 0.65522 0.03529 0.35688 0.0
H358 H 0.69838 0.05816 0.43387 0.0
H359 H 0.61988 0.99603 0.43754 0.0
H360 H 0.72288 0.15079 0.33042 0.0
H361 H 0.59873 0.14924 0.39471 0.0
H362 H 0.60717 0.04174 0.3492 0.0
C363 C 0.31228 0.12013 0.42433 0.0
C364 C 0.3155 0.12286 0.44404 0.0
N365 N 0.31846 0.07767 0.45107 0.0
N366 N 0.31278 0.07339 0.41858 0.0
C367 C 0.31658 0.04796 0.43531 0.0
H368 H 0.3109 0.1508 0.41465 0.0
Co369 Co 0.31207 0.05926 0.39175 0.0
C370 C 0.29324 0.95637 0.38651 0.0
O371 O 0.30698 0.95381 0.37013 0.0
N372 N 0.31154 0.04794 0.36428 0.0
C373 C 0.32391 0.04551 0.33306 0.0
C374 C 0.33288 0.05202 0.35187 0.0
C375 C 0.28968 0.0398 0.35247 0.0
N376 N 0.29672 0.03763 0.33342 0.0
O377 O 0.27732 0.09234 0.39007 0.0
H378 H 0.35372 0.06004 0.35604 0.0
H379 H 0.26894 0.03583 0.3578 0.0
O380 O 0.29419 0.99511 0.39695 0.0
C381 C 0.281 0.13328 0.38173 0.0
O382 O 0.30489 0.14194 0.37365 0.0
N383 N 0.34772 0.03498 0.39357 0.0
C384 C 0.40421 0.02524 0.39058 0.0
C385 C 0.38735 0.98403 0.39042 0.0
C386 C 0.35888 0.9896 0.39243 0.0
C387 C 0.36415 0.0748 0.39473 0.0
C388 C 0.39241 0.07075 0.39348 0.0
H389 H 0.34625 0.9577 0.39242 0.0
H390 H 0.35503 0.1105 0.39551 0.0
H391 H 0.31934 1.00903 0.43579 0.0
H392 H 0.31638 0.15593 0.45254 0.0
H393 H 0.33654 0.04607 0.32012 0.0
H394 H 0.39603 0.94825 0.38828 0.0
H395 H 0.40482 0.10334 0.39347 0.0
C396 C 0.6515 0.57193 0.12601 0.0
C397 C 0.64626 0.57654 0.10648 0.0
N398 N 0.66771 0.55841 0.09654 0.0
N399 N 0.67619 0.55076 0.12854 0.0
C400 C 0.68552 0.54263 0.11024 0.0
H401 H 0.63868 0.58563 0.1376 0.0
Co402 Co 0.69506 0.54554 0.15249 0.0
C403 C 0.71049 0.44285 0.15569 0.0
O404 O 0.70134 0.44572 0.17363 0.0
N405 N 0.71529 0.54101 0.1764 0.0
C406 C 0.75262 0.52821 0.19438 0.0
C407 C 0.74203 0.52846 0.17595 0.0
C408 C 0.71036 0.549 0.19566 0.0
N409 N 0.73281 0.54137 0.20697 0.0
O410 O 0.72564 0.57945 0.14154 0.0
H411 H 0.75328 0.5194 0.16289 0.0
H412 H 0.69092 0.56067 0.20141 0.0
O413 O 0.70907 0.48027 0.14464 0.0
C414 C 0.71893 0.62424 0.14052 0.0
O415 O 0.69357 0.63659 0.14456 0.0
N416 N 0.66332 0.52013 0.16369 0.0
C417 C 0.60769 0.51511 0.17261 0.0
C418 C 0.62018 0.47873 0.16129 0.0
C419 C 0.64817 0.48204 0.15686 0.0
C420 C 0.6515 0.55484 0.17503 0.0
C421 C 0.62402 0.55241 0.18008 0.0
H422 H 0.65679 0.45697 0.14642 0.0
H423 H 0.66265 0.5877 0.17831 0.0
H424 H 0.70572 0.52845 0.10705 0.0
H425 H 0.62839 0.59344 0.10007 0.0
H426 H 0.77343 0.5184 0.19804 0.0
H427 H 0.60809 0.44988 0.15489 0.0
H428 H 0.6151 0.5824 0.1881 0.0
C429 C 0.32594 0.4664 0.11499 0.0
C430 C 0.3246 0.47172 0.09521 0.0
N431 N 0.31794 0.51798 0.09131 0.0
N432 N 0.32044 0.50916 0.12374 0.0
C433 C 0.31538 0.54012 0.10884 0.0
H434 H 0.33139 0.4335 0.12258 0.0
Co435 Co 0.32277 0.51522 0.15095 0.0
C436 C 0.29524 0.61086 0.16162 0.0
O437 O 0.30366 0.60837 0.1797 0.0
N438 N 0.3257 0.51799 0.17867 0.0
C439 C 0.34427 0.50954 0.20812 0.0
C440 C 0.34952 0.51402 0.18862 0.0
C441 C 0.30614 0.51447 0.1927 0.0
N442 N 0.31701 0.5099 0.21073 0.0
O443 O 0.29036 0.47604 0.15305 0.0
H444 H 0.36965 0.51222 0.18218 0.0
H445 H 0.28437 0.51392 0.18969 0.0
O446 O 0.30153 0.57717 0.14948 0.0
C447 C 0.29791 0.43351 0.15816 0.0
O448 O 0.32378 0.42622 0.16254 0.0
N449 N 0.35641 0.54716 0.14835 0.0
C450 C 0.41193 0.56877 0.15169 0.0
C451 C 0.39201 0.60336 0.15685 0.0
C452 C 0.36411 0.59198 0.15486 0.0
C453 C 0.3756 0.51455 0.14231 0.0
C454 C 0.40334 0.52481 0.14358 0.0
H455 H 0.34914 0.61764 0.16 0.0
H456 H 0.36952 0.47836 0.13818 0.0
H457 H 0.31082 0.57822 0.11072 0.0
H458 H 0.32837 0.44377 0.08444 0.0
H459 H 0.35941 0.50557 0.21953 0.0
H460 H 0.39792 0.63772 0.16325 0.0
H461 H 0.41789 0.49655 0.13988 0.0
C462 C 0.68484 0.45155 0.93223 0.0
C463 C 0.68392 0.45555 0.95213 0.0
N464 N 0.6861 0.50277 0.95695 0.0
N465 N 0.68775 0.49593 0.92435 0.0
C466 C 0.68824 0.52661 0.93978 0.0
H467 H 0.68322 0.41825 0.92399 0.0
Co468 Co 0.69022 0.50559 0.89744 0.0
C469 C 0.71 0.60762 0.89146 0.0
O470 O 0.69734 0.60898 0.87461 0.0
N471 N 0.69287 0.51342 0.8699 0.0
C472 C 0.68365 0.51394 0.83814 0.0
C473 C 0.67255 0.51251 0.85655 0.0
C474 C 0.71611 0.51518 0.85912 0.0
N475 N 0.71115 0.51535 0.83972 0.0
O476 O 0.72417 0.47014 0.89765 0.0
H477 H 0.65099 0.50929 0.85979 0.0
H478 H 0.73637 0.51569 0.86549 0.0
O479 O 0.70875 0.5691 0.90189 0.0
C480 C 0.71854 0.42817 0.89074 0.0
O481 O 0.69399 0.42064 0.8835 0.0
N482 N 0.65498 0.53198 0.89764 0.0
C483 C 0.59864 0.54472 0.89485 0.0
C484 C 0.61614 0.58508 0.89519 0.0
C485 C 0.64453 0.57796 0.89709 0.0
C486 C 0.63792 0.49292 0.89808 0.0
C487 C 0.60974 0.49843 0.89685 0.0
H488 H 0.65763 0.60924 0.89778 0.0
H489 H 0.64647 0.45679 0.89871 0.0
H490 H 0.69026 0.56554 0.93845 0.0
H491 H 0.68114 0.42593 0.96223 0.0
H492 H 0.67228 0.51185 0.82465 0.0
H493 H 0.60799 0.62143 0.89377 0.0
H494 H 0.59679 0.46652 0.8965 0.0
C495 C 0.34699 0.57485 0.92394 0.0
C496 C 0.34858 0.58258 0.94365 0.0
N497 N 0.32409 0.57209 0.95153 0.0
N498 N 0.32183 0.55797 0.91932 0.0
C499 C 0.30801 0.55841 0.93644 0.0
H500 H 0.36342 0.5806 0.91367 0.0
Co501 Co 0.3103 0.54032 0.894 0.0
C502 C 0.29197 0.44749 0.91678 0.0
O503 O 0.30343 0.45636 0.93369 0.0
N504 N 0.29885 0.52253 0.86846 0.0
C505 C 0.29484 0.47516 0.84233 0.0
C506 C 0.30437 0.47823 0.86099 0.0
C507 C 0.28613 0.54621 0.85365 0.0
N508 N 0.28329 0.51782 0.83761 0.0
O509 O 0.27695 0.57526 0.89847 0.0
H510 H 0.31556 0.45006 0.86848 0.0
H511 H 0.27917 0.58339 0.8545 0.0
O512 O 0.29453 0.47777 0.90278 0.0
C513 C 0.28315 0.61805 0.89285 0.0
O514 O 0.30706 0.62496 0.88454 0.0
N515 N 0.34465 0.51313 0.88898 0.0
C516 C 0.40057 0.50127 0.88226 0.0
C517 C 0.38685 0.47186 0.89587 0.0
C518 C 0.35861 0.47832 0.89902 0.0
C519 C 0.35752 0.54057 0.87535 0.0
C520 C 0.38525 0.5351 0.87168 0.0
H521 H 0.34852 0.45782 0.91028 0.0
H522 H 0.34644 0.56915 0.86803 0.0
H523 H 0.28687 0.54717 0.93794 0.0
H524 H 0.36645 0.59465 0.95163 0.0
H525 H 0.2971 0.44425 0.83272 0.0
H526 H 0.39796 0.44543 0.90442 0.0
H527 H 0.39484 0.55964 0.86148 0.0
H528 H 0.24633 0.05275 0.2227 0.0
H529 H 0.18021 0.95631 0.23912 0.0
H530 H 0.19861 0.95173 0.27244 0.0
H531 H 0.29951 0.99441 0.25304 0.0
H532 H 0.31554 0.0512 0.25932 0.0
H533 H 0.29814 0.04464 0.23633 0.0
H534 H 0.26795 0.11916 0.24457 0.0
H535 H 0.28505 0.12567 0.26764 0.0
H536 H 0.24831 0.11959 0.26678 0.0
H537 H 0.22206 0.96173 0.30461 0.0
H538 H 0.25116 0.98138 0.33297 0.0
H539 H 0.30276 0.07051 0.29622 0.0
C540 C 0.23614 0.02989 0.23322 0.0
C541 C 0.21171 1.00502 0.22829 0.0
C542 C 0.19872 0.97611 0.2426 0.0
C543 C 0.20907 0.97315 0.26157 0.0
C544 C 0.23263 0.99915 0.26615 0.0
C545 C 0.24624 0.02657 0.25238 0.0
C546 C 0.27078 0.05195 0.26142 0.0
C547 C 0.29758 0.03449 0.25196 0.0
C548 C 0.26783 0.10738 0.26002 0.0
C549 C 0.2686 0.03487 0.28238 0.0
C550 C 0.24639 1.00451 0.28477 0.0
C551 C 0.23963 0.98525 0.30289 0.0
C552 C 0.25613 0.99692 0.31897 0.0
C553 C 0.27927 0.02743 0.31689 0.0
C554 C 0.28544 0.0466 0.29827 0.0
H555 H 0.80499 0.10666 0.23472 0.0
H556 H 0.76729 0.97521 0.21284 0.0
H557 H 0.74231 0.96594 0.24408 0.0
H558 H 0.81502 0.06759 0.28353 0.0
H559 H 0.80726 0.1259 0.29408 0.0
H560 H 0.82137 0.12225 0.26993 0.0
H561 H 0.78033 0.1715 0.25646 0.0
H562 H 0.7662 0.17566 0.2806 0.0
H563 H 0.74591 0.15084 0.26106 0.0
H564 H 0.72294 0.97015 0.27916 0.0
H565 H 0.70821 0.99139 0.31268 0.0
H566 H 0.759 0.12012 0.31069 0.0
C567 C 0.79149 0.07587 0.23647 0.0
C568 C 0.78821 0.0415 0.22133 0.0
C569 C 0.76996 1.00219 0.22414 0.0
C570 C 0.75586 0.99649 0.24191 0.0
C571 C 0.76002 0.03066 0.25668 0.0
C572 C 0.77718 0.06991 0.25397 0.0
C573 C 0.77803 0.1021 0.27184 0.0
C574 C 0.80715 0.10458 0.28034 0.0
C575 C 0.76695 0.15303 0.26721 0.0
C576 C 0.75884 0.07481 0.2852 0.0
C577 C 0.74869 0.03352 0.27634 0.0
C578 C 0.73074 1.00255 0.28614 0.0
C579 C 0.72262 0.01467 0.30525 0.0
C580 C 0.73227 0.05758 0.31435 0.0
C581 C 0.75089 0.08743 0.30412 0.0
H582 H 0.28989 0.09699 0.73716 0.0
H583 H 0.26312 0.95554 0.71737 0.0
H584 H 0.24111 0.9412 0.74944 0.0
H585 H 0.30621 0.06443 0.78561 0.0
H586 H 0.29391 0.12029 0.79613 0.0
H587 H 0.30653 0.11949 0.77153 0.0
H588 H 0.26066 0.15555 0.75921 0.0
H589 H 0.24803 0.15706 0.78381 0.0
H590 H 0.22894 0.12567 0.7652 0.0
H591 H 0.22444 0.94148 0.78524 0.0
H592 H 0.21028 0.96026 0.81917 0.0
H593 H 0.24769 0.10207 0.81436 0.0
C594 C 0.27924 0.06311 0.73954 0.0
C595 C 0.27826 0.02731 0.72481 0.0
C596 C 0.26388 0.98362 0.7284 0.0
C597 C 0.25155 0.97507 0.74662 0.0
C598 C 0.25352 1.01081 0.76102 0.0
C599 C 0.26667 0.0543 0.75747 0.0
C600 C 0.26578 0.08731 0.77508 0.0
C601 C 0.29484 0.09852 0.78252 0.0
C602 C 0.2499 0.13416 0.77055 0.0
C603 C 0.25029 0.05564 0.78924 0.0
C604 C 0.24352 1.01144 0.78103 0.0
C605 C 0.22952 0.97616 0.7917 0.0
C606 C 0.22175 0.98689 0.81101 0.0
C607 C 0.22774 0.03269 0.81937 0.0
C608 C 0.24253 0.06697 0.80831 0.0
H609 H 0.69246 0.97988 0.7346 0.0
H610 H 0.74249 0.09487 0.71084 0.0
H611 H 0.76724 0.1017 0.74232 0.0
H612 H 0.68684 0.02509 0.78364 0.0
H613 H 0.68975 0.96609 0.79468 0.0
H614 H 0.67544 0.97194 0.77064 0.0
H615 H 0.71133 0.91114 0.75726 0.0
H616 H 0.72563 0.90489 0.78128 0.0
H617 H 0.74726 0.92252 0.76127 0.0
H618 H 0.78524 0.09742 0.77743 0.0
H619 H 0.79887 0.07544 0.81108 0.0
H620 H 0.73938 0.95906 0.81076 0.0
C621 C 0.70854 1.00663 0.73612 0.0
C622 C 0.71543 0.03726 0.72039 0.0
C623 C 0.73696 0.07115 0.72273 0.0
C624 C 0.75098 0.07539 0.74058 0.0
C625 C 0.74356 0.04482 0.75588 0.0
C626 C 0.72313 1.0105 0.75367 0.0
C627 C 0.72006 0.98013 0.77191 0.0
C628 C 0.69131 0.9862 0.78073 0.0
C629 C 0.72646 0.9265 0.76767 0.0
C630 C 0.74178 1.00281 0.78483 0.0
C631 C 0.75485 0.04059 0.77548 0.0
C632 C 0.77523 0.06766 0.78478 0.0
C633 C 0.78273 0.0552 0.80394 0.0
C634 C 0.77028 0.01549 0.81349 0.0
C635 C 0.74941 0.98934 0.80375 0.0
H636 H 0.21793 0.44946 0.7359 0.0
H637 H 0.23188 0.59699 0.71674 0.0
H638 H 0.25125 0.61721 0.74916 0.0
H639 H 0.19674 0.47815 0.78419 0.0
H640 H 0.21323 0.42604 0.7948 0.0
H641 H 0.20134 0.42365 0.77002 0.0
H642 H 0.25004 0.39978 0.75836 0.0
H643 H 0.26202 0.40164 0.78312 0.0
H644 H 0.27877 0.43763 0.7648 0.0
H645 H 0.26796 0.62077 0.78506 0.0
H646 H 0.2835 0.60518 0.81893 0.0
H647 H 0.25705 0.45582 0.8135 0.0
C648 C 0.22496 0.48612 0.73847 0.0
C649 C 0.22321 0.52168 0.72376 0.0
C650 C 0.23319 0.56899 0.7277 0.0
C651 C 0.24402 0.58088 0.74614 0.0
C652 C 0.24483 0.545 0.76046 0.0
C653 C 0.23575 0.49845 0.75666 0.0
C654 C 0.23889 0.46601 0.77421 0.0
C655 C 0.21088 0.44739 0.78121 0.0
C656 C 0.25861 0.42379 0.76986 0.0
C657 C 0.25117 0.50138 0.78859 0.0
C658 C 0.25439 0.54691 0.78057 0.0
C659 C 0.26552 0.58515 0.7914 0.0
C660 C 0.2741 0.57615 0.81067 0.0
C661 C 0.27166 0.52922 0.81883 0.0
C662 C 0.25955 0.49192 0.80763 0.0
H663 H 0.76501 0.53634 0.72993 0.0
H664 H 0.84221 0.47806 0.7508 0.0
H665 H 0.82365 0.47452 0.78399 0.0
H666 H 0.75067 0.61062 0.77207 0.0
H667 H 0.71434 0.59901 0.77185 0.0
H668 H 0.73351 0.59712 0.74947 0.0
H669 H 0.71618 0.50984 0.74292 0.0
H670 H 0.69691 0.51151 0.76525 0.0
H671 H 0.7214 0.46367 0.76107 0.0
H672 H 0.7971 0.47665 0.81501 0.0
H673 H 0.76387 0.48321 0.84178 0.0
H674 H 0.70349 0.54098 0.80157 0.0
C675 C 0.77792 0.52256 0.74147 0.0
C676 C 0.80524 0.50793 0.73766 0.0
C677 C 0.82146 0.49042 0.75327 0.0
C678 C 0.81104 0.48795 0.77223 0.0
C679 C 0.78424 0.50309 0.77553 0.0
C680 C 0.76782 0.51999 0.76062 0.0
C681 C 0.73971 0.53406 0.76829 0.0
C682 C 0.73424 0.58843 0.76524 0.0
C683 C 0.71722 0.5029 0.75882 0.0
C684 C 0.74296 0.52219 0.78976 0.0
C685 C 0.76885 0.50445 0.79357 0.0
C686 C 0.77677 0.49073 0.81223 0.0
C687 C 0.75773 0.49497 0.82743 0.0
C688 C 0.73092 0.51289 0.824 0.0
C689 C 0.72364 0.52679 0.8048 0.0
H690 H 0.27176 0.55875 0.22313 0.0
H691 H 0.3315 0.4507 0.2402 0.0
H692 H 0.31094 0.44703 0.27301 0.0
H693 H 0.27187 0.62303 0.26814 0.0
H694 H 0.23574 0.6365 0.26789 0.0
H695 H 0.25391 0.62829 0.24532 0.0
H696 H 0.21975 0.56108 0.23505 0.0
H697 H 0.20133 0.56937 0.25752 0.0
H698 H 0.21407 0.51018 0.25095 0.0
H699 H 0.2845 0.45681 0.30441 0.0
H700 H 0.25372 0.4782 0.33162 0.0
H701 H 0.21271 0.58294 0.29455 0.0
C702 C 0.2801 0.53373 0.2337 0.0
C703 C 0.30313 0.50483 0.22913 0.0
C704 C 0.31392 0.47324 0.24346 0.0
C705 C 0.30235 0.47087 0.26211 0.0
C706 C 0.28004 0.50058 0.26633 0.0
C707 C 0.26898 0.53137 0.25253 0.0
C708 C 0.24565 0.56085 0.26108 0.0
C709 C 0.2522 0.61539 0.26058 0.0
C710 C 0.2186 0.54968 0.25052 0.0
C711 C 0.24536 0.5418 0.28177 0.0
C712 C 0.26528 0.50696 0.28451 0.0
C713 C 0.26884 0.48414 0.30244 0.0
C714 C 0.25136 0.49686 0.3179 0.0
C715 C 0.23058 0.53228 0.31542 0.0
C716 C 0.22796 0.55521 0.29705 0.0
H717 H 0.78044 0.54272 0.2281 0.0
H718 H 0.69197 0.55135 0.23427 0.0
H719 H 0.69757 0.5588 0.26986 0.0
H720 H 0.79202 0.46882 0.27009 0.0
H721 H 0.82397 0.49815 0.27595 0.0
H722 H 0.81267 0.49484 0.25106 0.0
H723 H 0.81638 0.58833 0.24824 0.0
H724 H 0.82763 0.59197 0.27314 0.0
H725 H 0.79818 0.62622 0.26531 0.0
H726 H 0.71378 0.56578 0.30566 0.0
H727 H 0.73853 0.57093 0.33699 0.0
H728 H 0.81557 0.55224 0.30628 0.0
C729 C 0.762 0.54565 0.23668 0.0
C730 C 0.73567 0.54626 0.22796 0.0
C731 C 0.71244 0.55115 0.24027 0.0
C732 C 0.7154 0.55519 0.26063 0.0
C733 C 0.74172 0.55404 0.2686 0.0
C734 C 0.76455 0.54919 0.2569 0.0
C735 C 0.79064 0.54829 0.2688 0.0
C736 C 0.8057 0.49963 0.26633 0.0
C737 C 0.80929 0.59126 0.26356 0.0
C738 C 0.77905 0.55367 0.2891 0.0
C739 C 0.75083 0.55707 0.2888 0.0
C740 C 0.73589 0.56291 0.30598 0.0
C741 C 0.75019 0.56556 0.32379 0.0
C742 C 0.77921 0.56223 0.32439 0.0
C743 C 0.79353 0.55578 0.30664 0.0
H744 H 0.24262 0.17514 0.18924 0.0
H745 H 0.25201 0.13204 0.12897 0.0
H746 H 0.267 0.21518 0.12071 0.0
H747 H 0.2168 0.28924 0.18237 0.0
H748 H 0.23561 0.31934 0.20146 0.0
H749 H 0.22819 0.25557 0.20332 0.0
H750 H 0.27974 0.23531 0.20714 0.0
H751 H 0.28722 0.29921 0.20626 0.0
H752 H 0.30387 0.25818 0.18957 0.0
H753 H 0.2732 0.30643 0.11841 0.0
H754 H 0.28486 0.39282 0.12352 0.0
H755 H 0.27643 0.37424 0.18574 0.0
C756 C 0.24907 0.18271 0.17448 0.0
C757 C 0.24626 0.14731 0.15973 0.0
C758 C 0.25433 0.15853 0.1405 0.0
C759 C 0.26246 0.20586 0.13565 0.0
C760 C 0.26317 0.24089 0.15033 0.0
C761 C 0.25798 0.22929 0.16952 0.0
C762 C 0.26083 0.27332 0.18262 0.0
C763 C 0.23374 0.28502 0.19305 0.0
C764 C 0.28432 0.26608 0.19725 0.0
C765 C 0.26774 0.31183 0.16775 0.0
C766 C 0.26835 0.29263 0.14915 0.0
C767 C 0.27322 0.32164 0.13294 0.0
C768 C 0.27936 0.37085 0.13594 0.0
C769 C 0.28105 0.39017 0.15498 0.0
C770 C 0.27456 0.36053 0.17102 0.0
H771 H 0.71572 0.70924 0.12076 0.0
H772 H 0.76571 0.62935 0.16179 0.0
H773 H 0.78969 0.70514 0.17074 0.0
H774 H 0.77183 0.79603 0.10565 0.0
H775 H 0.74773 0.84512 0.10295 0.0
H776 H 0.73707 0.78362 0.09831 0.0
H777 H 0.6977 0.79496 0.12314 0.0
H778 H 0.70889 0.85577 0.12848 0.0
H779 H 0.70568 0.81214 0.14783 0.0
H780 H 0.80189 0.78986 0.17927 0.0
H781 H 0.81253 0.87679 0.18065 0.0
H782 H 0.75764 0.90335 0.13214 0.0
C783 C 0.73262 0.70751 0.13096 0.0
C784 C 0.73926 0.66351 0.14041 0.0
C785 C 0.76089 0.66245 0.15405 0.0
C786 C 0.77425 0.70547 0.15944 0.0
C787 C 0.76606 0.74876 0.1507 0.0
C788 C 0.74659 0.74995 0.13616 0.0
C789 C 0.74165 0.80154 0.12919 0.0
C790 C 0.75008 0.8069 0.10775 0.0
C791 C 0.7117 0.81698 0.13235 0.0
C792 C 0.7608 0.82938 0.14253 0.0
C793 C 0.77424 0.798 0.155 0.0
C794 C 0.79204 0.81461 0.16928 0.0
C795 C 0.7977 0.86419 0.17004 0.0
C796 C 0.78606 0.8968 0.15642 0.0
C797 C 0.7666 0.87942 0.14286 0.0
H798 H 0.23656 0.88492 0.86806 0.0
H799 H 0.23059 0.91339 0.92983 0.0
H800 H 0.24368 0.82801 0.93667 0.0
H801 H 0.20781 0.77067 0.86816 0.0
H802 H 0.23005 0.74461 0.85 0.0
H803 H 0.22331 0.8088 0.84998 0.0
H804 H 0.27524 0.82774 0.85203 0.0
H805 H 0.2822 0.76365 0.85117 0.0
H806 H 0.29558 0.79993 0.87084 0.0
H807 H 0.25273 0.73572 0.93611 0.0
H808 H 0.26616 0.65081 0.92847 0.0
H809 H 0.26657 0.68528 0.86709 0.0
C810 C 0.23924 0.87365 0.88303 0.0
C811 C 0.23342 0.90582 0.89845 0.0
C812 C 0.236 0.88958 0.91787 0.0
C813 C 0.24291 0.84096 0.92183 0.0
C814 C 0.24729 0.8094 0.90619 0.0
C815 C 0.24633 0.82564 0.88718 0.0
C816 C 0.25153 0.7849 0.87287 0.0
C817 C 0.22669 0.7768 0.85947 0.0
C818 C 0.2777 0.79462 0.86104 0.0
C819 C 0.25527 0.74287 0.8867 0.0
C820 C 0.25242 0.75731 0.90588 0.0
C821 C 0.25505 0.72421 0.92114 0.0
C822 C 0.26216 0.67586 0.91669 0.0
C823 C 0.26667 0.66146 0.89718 0.0
C824 C 0.26253 0.69519 0.88208 0.0
H825 H 0.73199 0.36168 0.86368 0.0
H826 H 0.74045 0.3955 0.9249 0.0
H827 H 0.75405 0.31025 0.93139 0.0
H828 H 0.7023 0.24926 0.86868 0.0
H829 H 0.71984 0.22051 0.84866 0.0
H830 H 0.71404 0.28498 0.8484 0.0
H831 H 0.766 0.30152 0.84435 0.0
H832 H 0.77181 0.23706 0.84363 0.0
H833 H 0.78992 0.27411 0.86102 0.0
H834 H 0.76172 0.21788 0.93118 0.0
H835 H 0.77273 0.13207 0.92338 0.0
H836 H 0.75941 0.16097 0.86228 0.0
C837 C 0.7379 0.35155 0.87832 0.0
C838 C 0.7358 0.38512 0.89375 0.0
C839 C 0.74279 0.37052 0.91283 0.0
C840 C 0.75001 0.322 0.91666 0.0
C841 C 0.75035 0.28899 0.90119 0.0
C842 C 0.74532 0.30367 0.8823 0.0
C843 C 0.7467 0.26156 0.8682 0.0
C844 C 0.71907 0.25365 0.85789 0.0
C845 C 0.77 0.26899 0.85343 0.0
C846 C 0.75294 0.22055 0.88205 0.0
C847 C 0.75464 0.23674 0.90107 0.0
C848 C 0.76041 0.20495 0.91633 0.0
C849 C 0.76607 0.15609 0.91186 0.0
C850 C 0.76599 0.13985 0.89232 0.0
C851 C 0.75867 0.17225 0.87738 0.0
H852 H 0.76038 0.88192 0.88271 0.0
H853 H 0.81261 0.85629 0.93247 0.0
H854 H 0.79058 0.77638 0.93753 0.0
H855 H 0.69831 0.81383 0.90007 0.0
H856 H 0.69171 0.79034 0.87603 0.0
H857 H 0.70752 0.84896 0.87898 0.0
H858 H 0.74793 0.82093 0.85728 0.0
H859 H 0.73256 0.76207 0.85452 0.0
H860 H 0.76693 0.76735 0.86387 0.0
H861 H 0.76647 0.69467 0.9346 0.0
H862 H 0.74267 0.61968 0.92399 0.0
H863 H 0.70856 0.69776 0.87488 0.0
C864 C 0.76615 0.86044 0.89522 0.0
C865 C 0.78741 0.87589 0.90769 0.0
C866 C 0.79568 0.84563 0.92321 0.0
C867 C 0.7834 0.80009 0.92609 0.0
C868 C 0.76312 0.78496 0.91311 0.0
C869 C 0.75446 0.81444 0.89802 0.0
C870 C 0.73484 0.78763 0.88471 0.0
C871 C 0.7064 0.81161 0.88497 0.0
C872 C 0.74626 0.7843 0.86388 0.0
C873 C 0.73423 0.73828 0.89439 0.0
C874 C 0.75033 0.73748 0.9109 0.0
C875 C 0.75359 0.69511 0.92179 0.0
C876 C 0.74007 0.65259 0.91563 0.0
C877 C 0.72378 0.65253 0.89857 0.0
C878 C 0.72083 0.69627 0.88799 0.0
H879 H 0.27186 0.38219 0.94386 0.0
H880 H 0.28095 0.40398 0.88173 0.0
H881 H 0.26269 0.32247 0.87557 0.0
H882 H 0.28779 0.25506 0.94534 0.0
H883 H 0.2617 0.24006 0.96286 0.0
H884 H 0.27657 0.29984 0.96276 0.0
H885 H 0.22834 0.33797 0.95924 0.0
H886 H 0.21332 0.27832 0.9595 0.0
H887 H 0.20642 0.31882 0.93955 0.0
H888 H 0.24709 0.23605 0.87611 0.0
H889 H 0.22716 0.15608 0.88272 0.0
H890 H 0.22156 0.19203 0.94409 0.0
C891 C 0.26999 0.36982 0.92895 0.0
C892 C 0.27858 0.39955 0.91327 0.0
C893 C 0.27516 0.3821 0.89402 0.0
C894 C 0.26475 0.33558 0.89036 0.0
C895 C 0.25703 0.30697 0.90608 0.0
C896 C 0.25881 0.32374 0.92499 0.0
C897 C 0.24744 0.28637 0.9391 0.0
C898 C 0.26971 0.26933 0.95336 0.0
C899 C 0.22239 0.30658 0.94999 0.0
C900 C 0.23932 0.24593 0.92514 0.0
C901 C 0.24558 0.25841 0.90622 0.0
C902 C 0.24147 0.22633 0.89082 0.0
C903 C 0.22999 0.18079 0.89474 0.0
C904 C 0.22186 0.16783 0.91382 0.0
C905 C 0.227 0.20093 0.92926 0.0
H906 H 0.73697 0.37801 0.17839 0.0
H907 H 0.7124 0.40247 0.11866 0.0
H908 H 0.7306 0.321 0.10965 0.0
H909 H 0.80035 0.31794 0.16716 0.0
H910 H 0.79785 0.27774 0.18771 0.0
H911 H 0.7824 0.33696 0.18879 0.0
H912 H 0.73569 0.29752 0.19722 0.0
H913 H 0.75093 0.23812 0.19588 0.0
H914 H 0.72146 0.25232 0.18114 0.0
H915 H 0.75078 0.23252 0.10816 0.0
H916 H 0.77544 0.15446 0.11351 0.0
H917 H 0.78757 0.19355 0.17396 0.0
C918 C 0.73536 0.36635 0.16337 0.0
C919 C 0.72305 0.39639 0.14924 0.0
C920 C 0.72181 0.38004 0.12971 0.0
C921 C 0.73193 0.33369 0.12453 0.0
C922 C 0.74355 0.30455 0.13901 0.0
C923 C 0.74565 0.32097 0.15798 0.0
C924 C 0.75991 0.28449 0.17086 0.0
C925 C 0.78671 0.30554 0.17911 0.0
C926 C 0.74085 0.26709 0.18724 0.0
C927 C 0.76544 0.24448 0.15633 0.0
C928 C 0.75567 0.25599 0.13803 0.0
C929 C 0.75855 0.22352 0.12245 0.0
C930 C 0.77234 0.17908 0.12562 0.0
C931 C 0.78336 0.16803 0.14414 0.0
C932 C 0.7794 0.20104 0.15962 0.0
H933 H 0.21325 0.85572 0.18083 0.0
H934 H 0.23398 0.9026 0.12254 0.0
H935 H 0.25709 0.82353 0.11657 0.0
H936 H 0.27678 0.79459 0.19026 0.0
H937 H 0.26085 0.74753 0.20445 0.0
H938 H 0.24561 0.80693 0.20345 0.0
H939 H 0.20002 0.76877 0.1916 0.0
H940 H 0.21524 0.70929 0.19236 0.0
H941 H 0.19994 0.73099 0.17016 0.0
H942 H 0.277 0.73603 0.1172 0.0
H943 H 0.29597 0.65514 0.12557 0.0
H944 H 0.26336 0.66972 0.18392 0.0
C945 C 0.22257 0.84943 0.16675 0.0
C946 C 0.22162 0.8852 0.15208 0.0
C947 C 0.2345 0.87574 0.134 0.0
C948 C 0.24751 0.83081 0.13047 0.0
C949 C 0.24775 0.79603 0.14525 0.0
C950 C 0.23592 0.80539 0.16314 0.0
C951 C 0.23983 0.76344 0.17701 0.0
C952 C 0.25678 0.77906 0.19484 0.0
C953 C 0.21211 0.74186 0.18314 0.0
C954 C 0.25565 0.72862 0.1642 0.0
C955 C 0.25981 0.74752 0.14584 0.0
C956 C 0.27386 0.72115 0.13157 0.0
C957 C 0.28438 0.67501 0.13639 0.0
C958 C 0.28112 0.65602 0.15537 0.0
C959 C 0.26626 0.68321 0.16928 0.0
H960 H 0.2311 0.67715 0.68021 0.0
H961 H 0.23233 0.64592 0.61849 0.0
H962 H 0.24264 0.7324 0.61168 0.0
H963 H 0.19907 0.79002 0.67803 0.0
H964 H 0.21913 0.81826 0.69694 0.0
H965 H 0.21382 0.75364 0.69712 0.0
H966 H 0.26621 0.73813 0.69745 0.0
H967 H 0.27161 0.80266 0.69824 0.0
H968 H 0.28749 0.76677 0.6794 0.0
H969 H 0.24855 0.82512 0.61191 0.0
H970 H 0.26113 0.91028 0.61932 0.0
H971 H 0.25757 0.8788 0.68091 0.0
C972 C 0.23466 0.68825 0.66532 0.0
C973 C 0.2317 0.65485 0.64988 0.0
C974 C 0.23551 0.67076 0.63052 0.0
C975 C 0.2408 0.71996 0.62653 0.0
C976 C 0.24238 0.75254 0.6421 0.0
C977 C 0.24032 0.73689 0.66114 0.0
C978 C 0.24339 0.7786 0.67534 0.0
C979 C 0.21729 0.78551 0.68757 0.0
C980 C 0.26868 0.77111 0.68837 0.0
C981 C 0.24736 0.82038 0.66138 0.0
C982 C 0.24617 0.80497 0.64224 0.0
C983 C 0.2496 0.83741 0.62686 0.0
C984 C 0.25623 0.886 0.63117 0.0
C985 C 0.2598 0.90124 0.65068 0.0
C986 C 0.25422 0.86838 0.66588 0.0
H987 H 0.75406 0.38091 0.64669 0.0
H988 H 0.79539 0.35264 0.70126 0.0
H989 H 0.783 0.26611 0.69887 0.0
H990 H 0.69824 0.28701 0.6526 0.0
H991 H 0.69935 0.27241 0.62704 0.0
H992 H 0.70707 0.33308 0.63513 0.0
H993 H 0.75356 0.32803 0.61707 0.0
H994 H 0.74652 0.26671 0.60956 0.0
H995 H 0.77726 0.28018 0.62306 0.0
H996 H 0.77304 0.18074 0.68782 0.0
H997 H 0.75773 0.10472 0.67199 0.0
H998 H 0.72337 0.18847 0.62453 0.0
C999 C 0.75917 0.35694 0.6586 0.0
C1000 C 0.77529 0.37342 0.67431 0.0
C1001 C 0.7826 0.34067 0.68928 0.0
C1002 C 0.77595 0.29137 0.68794 0.0
C1003 C 0.76187 0.27542 0.67153 0.0
C1004 C 0.75286 0.30736 0.65738 0.0
C1005 C 0.73971 0.28034 0.6406 0.0
C1006 C 0.70928 0.294 0.63874 0.0
C1007 C 0.7552 0.28937 0.62145 0.0
C1008 C 0.74324 0.22842 0.64737 0.0
C1009 C 0.75619 0.22625 0.66518 0.0
C1010 C 0.76246 0.18201 0.674 0.0
C1011 C 0.75401 0.13894 0.6648 0.0
C1012 C 0.73925 0.14063 0.64709 0.0
C1013 C 0.73457 0.18599 0.63809 0.0
H1014 H 0.23851 0.40517 0.36118 0.0
H1015 H 0.21781 0.41841 0.42215 0.0
H1016 H 0.2302 0.33215 0.42723 0.0
H1017 H 0.21163 0.29165 0.35356 0.0
H1018 H 0.23808 0.26956 0.33753 0.0
H1019 H 0.2311 0.33358 0.339 0.0
H1020 H 0.2816 0.35162 0.34808 0.0
H1021 H 0.28906 0.28791 0.34572 0.0
H1022 H 0.29727 0.31941 0.36798 0.0
H1023 H 0.23916 0.24103 0.42434 0.0
H1024 H 0.25453 0.15808 0.41554 0.0
H1025 H 0.27028 0.20617 0.35666 0.0
C1026 C 0.23802 0.39045 0.37578 0.0
C1027 C 0.22818 0.41854 0.39144 0.0
C1028 C 0.22639 0.39774 0.41018 0.0
C1029 C 0.23287 0.34859 0.41308 0.0
C1030 C 0.24121 0.32105 0.39709 0.0
C1031 C 0.24467 0.34171 0.37893 0.0
C1032 C 0.25349 0.30433 0.36404 0.0
C1033 C 0.2323 0.29953 0.34757 0.0
C1034 C 0.28206 0.31653 0.35599 0.0
C1035 C 0.25408 0.25925 0.37654 0.0
C1036 C 0.24656 0.2693 0.3955 0.0
C1037 C 0.24534 0.2329 0.40957 0.0
C1038 C 0.25363 0.18568 0.40438 0.0
C1039 C 0.26333 0.17575 0.38539 0.0
C1040 C 0.26261 0.21269 0.37122 0.0
H1041 H 0.758 0.7077 0.36605 0.0
H1042 H 0.74226 0.67258 0.42632 0.0
H1043 H 0.72723 0.75723 0.43232 0.0
H1044 H 0.78658 0.8181 0.37324 0.0
H1045 H 0.77164 0.84831 0.35257 0.0
H1046 H 0.77675 0.78369 0.35202 0.0
H1047 H 0.72527 0.76901 0.34496 0.0
H1048 H 0.72022 0.83369 0.34445 0.0
H1049 H 0.69984 0.79666 0.36044 0.0
H1050 H 0.72109 0.84987 0.43246 0.0
H1051 H 0.71342 0.93692 0.42496 0.0
H1052 H 0.73236 0.90921 0.36445 0.0
C1053 C 0.74993 0.71722 0.38024 0.0
C1054 C 0.7508 0.6836 0.39565 0.0
C1055 C 0.74106 0.69755 0.41422 0.0
C1056 C 0.73297 0.7458 0.41781 0.0
C1057 C 0.73432 0.7791 0.40255 0.0
C1058 C 0.74157 0.76484 0.38395 0.0
C1059 C 0.74224 0.80747 0.37014 0.0
C1060 C 0.77101 0.81478 0.36149 0.0
C1061 C 0.7206 0.80136 0.35405 0.0
C1062 C 0.73488 0.84828 0.38391 0.0
C1063 C 0.73067 0.83152 0.40261 0.0
C1064 C 0.72417 0.86319 0.41783 0.0
C1065 C 0.72041 0.91269 0.41356 0.0
C1066 C 0.72313 0.9297 0.39426 0.0
C1067 C 0.73097 0.89721 0.37942 0.0
H1068 H 0.74689 0.43081 0.4144 0.0
H1069 H 0.81473 0.38725 0.37731 0.0
H1070 H 0.80134 0.30237 0.38048 0.0
H1071 H 0.75014 0.32235 0.44671 0.0
H1072 H 0.71345 0.3178 0.44896 0.0
H1073 H 0.72925 0.37616 0.44531 0.0
H1074 H 0.69877 0.39013 0.415 0.0
H1075 H 0.68294 0.33186 0.41854 0.0
H1076 H 0.69893 0.34595 0.39561 0.0
H1077 H 0.77947 0.22322 0.38473 0.0
H1078 H 0.75015 0.15238 0.39103 0.0
H1079 H 0.69618 0.24224 0.42612 0.0
C1080 C 0.75911 0.40326 0.40726 0.0
C1081 C 0.78181 0.41621 0.39549 0.0
C1082 C 0.79708 0.37886 0.38623 0.0
C1083 C 0.78976 0.33016 0.388 0.0
C1084 C 0.76708 0.31858 0.39921 0.0
C1085 C 0.75198 0.35369 0.40883 0.0
C1086 C 0.72779 0.33041 0.41924 0.0
C1087 C 0.73031 0.33708 0.44137 0.0
C1088 C 0.7005 0.35081 0.41164 0.0
C1089 C 0.73147 0.27736 0.41346 0.0
C1090 C 0.75444 0.27165 0.40199 0.0
C1091 C 0.76161 0.22697 0.39394 0.0
C1092 C 0.74477 0.18689 0.39756 0.0
C1093 C 0.721 0.19144 0.4092 0.0
C1094 C 0.71449 0.23733 0.41744 0.0
H1095 H 0.21057 0.71772 0.36123 0.0
H1096 H 0.22122 0.66869 0.4206 0.0
H1097 H 0.24435 0.74667 0.42872 0.0
H1098 H 0.27561 0.77579 0.35697 0.0
H1099 H 0.26248 0.82366 0.34178 0.0
H1100 H 0.24642 0.76495 0.34149 0.0
H1101 H 0.19984 0.80508 0.34993 0.0
H1102 H 0.21587 0.86386 0.35051 0.0
H1103 H 0.19707 0.84256 0.37137 0.0
H1104 H 0.26569 0.83418 0.42984 0.0
H1105 H 0.28733 0.9141 0.42283 0.0
H1106 H 0.26333 0.9003 0.36243 0.0
C1107 C 0.21767 0.72323 0.37601 0.0
C1108 C 0.21388 0.68723 0.39033 0.0
C1109 C 0.22394 0.69574 0.40938 0.0
C1110 C 0.23692 0.74008 0.41412 0.0
C1111 C 0.23991 0.77519 0.39959 0.0
C1112 C 0.23083 0.76658 0.38084 0.0
C1113 C 0.23732 0.80841 0.36746 0.0
C1114 C 0.25661 0.79223 0.35096 0.0
C1115 C 0.21095 0.83132 0.35935 0.0
C1116 C 0.25156 0.8423 0.38148 0.0
C1117 C 0.25264 0.82326 0.40006 0.0
C1118 C 0.26493 0.84909 0.41531 0.0
C1119 C 0.27697 0.89461 0.41128 0.0
C1120 C 0.27695 0.91326 0.39211 0.0
C1121 C 0.26368 0.88689 0.37723 0.0
H1122 H 0.77747 0.66753 0.69105 0.0
H1123 H 0.77776 0.62553 0.63025 0.0
H1124 H 0.758 0.7057 0.62154 0.0
H1125 H 0.71306 0.73499 0.68969 0.0
H1126 H 0.72509 0.77966 0.70687 0.0
H1127 H 0.73799 0.71851 0.70787 0.0
H1128 H 0.78757 0.75133 0.70518 0.0
H1129 H 0.77482 0.8125 0.70385 0.0
H1130 H 0.79673 0.78928 0.68489 0.0
H1131 H 0.74158 0.79472 0.61971 0.0
H1132 H 0.7249 0.87863 0.62518 0.0
H1133 H 0.73409 0.85907 0.68741 0.0
C1134 C 0.77303 0.67489 0.6759 0.0
C1135 C 0.77911 0.64032 0.66131 0.0
C1136 C 0.77297 0.6513 0.64168 0.0
C1137 C 0.76197 0.69689 0.63661 0.0
C1138 C 0.75689 0.7307 0.65139 0.0
C1139 C 0.76178 0.71967 0.67068 0.0
C1140 C 0.75459 0.76175 0.68393 0.0
C1141 C 0.73129 0.7479 0.69791 0.0
C1142 C 0.77994 0.77976 0.69511 0.0
C1143 C 0.74517 0.79869 0.66913 0.0
C1144 C 0.74682 0.78048 0.6504 0.0
C1145 C 0.73998 0.80899 0.63435 0.0
C1146 C 0.73071 0.85676 0.63758 0.0
C1147 C 0.72809 0.87543 0.65673 0.0
C1148 C 0.73566 0.84585 0.6726 0.0
H1149 H 0.19469 0.32761 0.64584 0.0
H1150 H 0.25861 0.42849 0.62908 0.0
H1151 H 0.29062 0.35933 0.62477 0.0
H1152 H 0.23575 0.25148 0.67391 0.0
H1153 H 0.21857 0.19621 0.66701 0.0
H1154 H 0.20025 0.25283 0.66667 0.0
H1155 H 0.18763 0.23876 0.6305 0.0
H1156 H 0.20596 0.182 0.63071 0.0
H1157 H 0.21442 0.22768 0.613 0.0
H1158 H 0.31683 0.27954 0.62594 0.0
H1159 H 0.33487 0.19724 0.63211 0.0
H1160 H 0.25346 0.14788 0.64727 0.0
C1161 C 0.21529 0.33541 0.64093 0.0
C1162 C 0.22405 0.38386 0.63775 0.0
C1163 C 0.25129 0.39194 0.6315 0.0
C1164 C 0.2696 0.35276 0.62902 0.0
C1165 C 0.26033 0.30562 0.63266 0.0
C1166 C 0.2337 0.29687 0.63836 0.0
C1167 C 0.22911 0.24335 0.6425 0.0
C1168 C 0.22042 0.23553 0.66378 0.0
C1169 C 0.20803 0.22167 0.62833 0.0
C1170 C 0.25753 0.22313 0.63869 0.0
C1171 C 0.2752 0.25966 0.63293 0.0
C1172 C 0.30301 0.25067 0.63007 0.0
C1173 C 0.31308 0.20374 0.63358 0.0
C1174 C 0.29548 0.1659 0.63972 0.0
C1175 C 0.26721 0.17562 0.64193 0.0
H1176 H 0.9507 0.08785 0.15609 0.0
H1177 H 0.93119 0.05599 0.09598 0.0
H1178 H 0.98016 0.03749 0.08955 0.0
H1179 H 0.01972 0.14099 0.14749 0.0
H1180 H 0.03295 0.11428 0.16948 0.0
H1181 H 0.9974 0.13144 0.16801 0.0
H1182 H 0.98376 0.04384 0.17755 0.0
H1183 H 0.01918 0.0259 0.17838 0.0
H1184 H 0.99555 0.99366 0.16291 0.0
H1185 H 0.03082 1.01244 0.09124 0.0
H1186 H 0.07942 0.99535 0.09968 0.0
H1187 H 0.0641 0.04287 0.1588 0.0
C1188 C 0.95701 0.07893 0.14139 0.0
C1189 C 0.93747 0.07415 0.12641 0.0
C1190 C 0.94611 0.06099 0.10748 0.0
C1191 C 0.97377 0.04984 0.1038 0.0
C1192 C 0.99235 0.0524 0.11922 0.0
C1193 C 0.98435 0.06774 0.13754 0.0
C1194 C 0.00768 0.06519 0.15194 0.0
C1195 C 0.01487 0.116 0.15968 0.0
C1196 C 1.00113 0.03006 0.16867 0.0
C1197 C 0.03004 0.04533 0.13902 0.0
C1198 C 0.02096 0.03791 0.1202 0.0
C1199 C 0.03817 0.01861 0.10589 0.0
C1200 C 0.06557 1.00842 0.11083 0.0
C1201 C 0.07531 0.01774 0.12986 0.0
C1202 C 0.05711 0.03548 0.14413 0.0
H1203 H 0.05747 0.0675 0.90659 0.0
H1204 H 0.07593 0.07075 0.84486 0.0
H1205 H 0.0276 0.05337 0.83733 0.0
H1206 H 0.01153 0.97221 0.9058 0.0
H1207 H 0.98745 0.99668 0.92311 0.0
H1208 H 0.02289 0.01451 0.92414 0.0
H1209 H 0.00927 0.10501 0.92135 0.0
H1210 H 0.97369 0.08758 0.92086 0.0
H1211 H 0.98759 0.12427 0.90159 0.0
H1212 H 0.97995 0.02239 0.83651 0.0
H1213 H 0.9324 0.99691 0.84193 0.0
H1214 H 0.94243 0.02227 0.90401 0.0
C1215 C 0.0511 0.06635 0.89151 0.0
C1216 C 0.07052 0.07004 0.8763 0.0
C1217 C 0.06146 0.06749 0.85673 0.0
C1218 C 0.03407 0.05753 0.8523 0.0
C1219 C 0.01578 0.05127 0.86758 0.0
C1220 C 0.02359 0.05708 0.88678 0.0
C1221 C 0.99964 0.04769 0.90034 0.0
C1222 C 0.00576 1.00525 0.91416 0.0
C1223 C 0.9921 0.09389 0.91171 0.0
C1224 C 0.9775 0.03435 0.88576 0.0
C1225 C 0.98743 0.03621 0.86699 0.0
C1226 C 0.97161 0.02234 0.85109 0.0
C1227 C 0.9445 1.008 0.85436 0.0
C1228 C 0.93309 1.00859 0.87335 0.0
C1229 C 0.9502 0.02121 0.88928 0.0
H1230 H 0.94253 0.52468 0.66678 0.0
H1231 H 0.92647 0.56702 0.60727 0.0
H1232 H 0.97613 0.55974 0.59975 0.0
H1233 H 0.00951 0.58556 0.6717 0.0
H1234 H 0.02301 0.5373 0.68652 0.0
H1235 H 0.98695 0.55106 0.68712 0.0
H1236 H 0.97626 0.46151 0.67842 0.0
H1237 H 0.01227 0.44774 0.67724 0.0
H1238 H 0.99058 0.43544 0.65659 0.0
H1239 H 0.02726 0.53995 0.59847 0.0
H1240 H 0.07606 0.52003 0.60445 0.0
H1241 H 0.0573 0.48984 0.66486 0.0
C1242 C 0.94969 0.5339 0.65234 0.0
C1243 C 0.93106 0.54716 0.63763 0.0
C1244 C 0.94074 0.55784 0.61876 0.0
C1245 C 0.96877 0.55328 0.61436 0.0
C1246 C 0.98657 0.53823 0.62907 0.0
C1247 C 0.97741 0.52963 0.64778 0.0
C1248 C 1.00027 0.51243 0.66088 0.0
C1249 C 0.00523 0.54877 0.67753 0.0
C1250 C 0.99448 0.46125 0.66874 0.0
C1251 C 0.02379 0.51206 0.64663 0.0
C1252 C 0.01558 0.5268 0.62832 0.0
C1253 C 0.0339 0.52865 0.61278 0.0
C1254 C 0.06148 0.5167 0.61624 0.0
C1255 C 0.07035 0.50328 0.6351 0.0
C1256 C 0.05107 0.5001 0.65031 0.0
H1257 H 0.93946 0.5711 0.42582 0.0
H1258 H 0.91481 0.51613 0.36933 0.0
H1259 H 0.96207 0.52672 0.3572 0.0
H1260 H 0.9875 0.66007 0.40951 0.0
H1261 H 0.01234 0.64883 0.42838 0.0
H1262 H 0.97651 0.63775 0.43286 0.0
H1263 H 0.98713 0.54885 0.44241 0.0
H1264 H 0.02302 0.56003 0.4384 0.0
H1265 H 0.0062 0.51091 0.42585 0.0
H1266 H 0.01047 0.54769 0.35062 0.0
H1267 H 0.06028 0.56144 0.35148 0.0
H1268 H 0.05533 0.59679 0.41295 0.0
C1269 C 0.94427 0.56071 0.411 0.0
C1270 C 0.92376 0.54254 0.39845 0.0
C1271 C 0.93047 0.52945 0.37914 0.0
C1272 C 0.9571 0.5359 0.3721 0.0
C1273 C 0.97677 0.55492 0.38465 0.0
C1274 C 0.97097 0.56592 0.40384 0.0
C1275 C 0.99643 0.58314 0.41447 0.0
C1276 C 0.99297 0.63557 0.42173 0.0
C1277 C 0.00362 0.54867 0.43127 0.0
C1278 C 0.01739 0.58016 0.39823 0.0
C1279 C 0.00535 0.56477 0.38108 0.0
C1280 C 0.02024 0.55919 0.36399 0.0
C1281 C 0.04848 0.56719 0.36463 0.0
C1282 C 0.06169 0.57963 0.38232 0.0
C1283 C 0.04577 0.58776 0.39919 0.0
H1284 H 0.44676 0.03351 0.62276 0.0
H1285 H 0.43518 1.00033 0.68393 0.0
H1286 H 0.4838 0.97822 0.68673 0.0
H1287 H 0.49438 0.94068 0.61169 0.0
H1288 H 0.51589 0.97714 0.59624 0.0
H1289 H 0.48001 0.99133 0.59865 0.0
H1290 H 0.49182 0.07887 0.60958 0.0
H1291 H 0.52769 0.06529 0.60673 0.0
H1292 H 0.51506 0.08804 0.62964 0.0
H1293 H 0.53242 0.95347 0.6826 0.0
H1294 H 0.58108 0.94406 0.67342 0.0
H1295 H 0.56279 0.99877 0.61577 0.0
C1296 C 0.45458 0.02258 0.63682 0.0
C1297 C 0.43694 0.0176 0.65301 0.0
C1298 C 0.44808 1.00316 0.67117 0.0
C1299 C 0.4757 0.99049 0.67294 0.0
C1300 C 0.49219 0.99342 0.65653 0.0
C1301 C 0.48237 1.01047 0.63896 0.0
C1302 C 0.50499 1.01184 0.62385 0.0
C1303 C 0.49841 0.97824 0.60659 0.0
C1304 C 0.5102 0.06412 0.61706 0.0
C1305 C 0.52885 0.9925 0.63568 0.0
C1306 C 0.52083 0.98132 0.65439 0.0
C1307 C 0.53905 0.96235 0.66802 0.0
C1308 C 0.56653 0.95653 0.66262 0.0
C1309 C 0.57552 0.97028 0.64388 0.0
C1310 C 0.55631 0.98761 0.63014 0.0
H1311 H 0.44833 0.04729 0.41339 0.0
H1312 H 0.42493 1.00301 0.35521 0.0
H1313 H 0.47195 0.02 0.34357 0.0
H1314 H 0.49052 0.14374 0.40079 0.0
H1315 H 0.51651 0.13308 0.41892 0.0
H1316 H 0.4818 0.11389 0.42325 0.0
H1317 H 0.49803 0.02561 0.42907 0.0
H1318 H 0.5329 0.04484 0.42538 0.0
H1319 H 0.51898 0.99595 0.41101 0.0
H1320 H 0.51932 0.05204 0.33762 0.0
H1321 H 0.56727 0.07973 0.33875 0.0
H1322 H 0.56114 0.09652 0.40147 0.0
C1323 C 0.4535 0.03964 0.39837 0.0
C1324 C 0.43337 0.02317 0.38518 0.0
C1325 C 0.44041 0.01459 0.36553 0.0
C1326 C 0.46689 0.02473 0.35878 0.0
C1327 C 0.48606 0.04273 0.37198 0.0
C1328 C 0.47999 0.04866 0.39148 0.0
C1329 C 0.50442 0.06822 0.40261 0.0
C1330 C 0.49791 0.11767 0.41194 0.0
C1331 C 0.51416 0.03146 0.41792 0.0
C1332 C 0.52498 0.07331 0.38625 0.0
C1333 C 0.51383 0.05907 0.36867 0.0
C1334 C 0.5285 0.06219 0.35137 0.0
C1335 C 0.55575 0.07803 0.35218 0.0
C1336 C 0.5683 0.08966 0.37022 0.0
C1337 C 0.5523 0.08842 0.38739 0.0
H1338 H 0.57012 0.50421 0.14336 0.0
H1339 H 0.5773 0.53957 0.20469 0.0
H1340 H 0.52851 0.5636 0.20533 0.0
H1341 H 0.52677 0.60094 0.13044 0.0
H1342 H 0.50631 0.56654 0.11348 0.0
H1343 H 0.5414 0.54957 0.11791 0.0
H1344 H 0.52634 0.46271 0.12748 0.0
H1345 H 0.49131 0.47901 0.12254 0.0
H1346 H 0.50056 0.45483 0.14597 0.0
H1347 H 0.47953 0.58766 0.19881 0.0
H1348 H 0.43214 0.5981 0.18685 0.0
H1349 H 0.45727 0.54743 0.12979 0.0
C1350 C 0.56125 0.51561 0.15707 0.0
C1351 C 0.57747 0.51983 0.17401 0.0
C1352 C 0.56521 0.53613 0.19154 0.0
C1353 C 0.53759 0.5501 0.19202 0.0
C1354 C 0.52249 0.54741 0.17486 0.0
C1355 C 0.53373 0.52969 0.15781 0.0
C1356 C 0.51307 0.53035 0.14139 0.0
C1357 C 0.52246 0.56385 0.12483 0.0
C1358 C 0.50748 0.47866 0.13391 0.0
C1359 C 0.48844 0.55115 0.15187 0.0
C1360 C 0.49435 0.56123 0.17112 0.0
C1361 C 0.47465 0.57992 0.18377 0.0
C1362 C 0.44788 0.58638 0.17678 0.0
C1363 C 0.44109 0.57388 0.15737 0.0
C1364 C 0.46192 0.55749 0.14467 0.0
H1365 H 0.43966 0.49343 0.91111 0.0
H1366 H 0.43026 0.51071 0.84868 0.0
H1367 H 0.47934 0.52982 0.84583 0.0
H1368 H 0.48709 0.58628 0.91918 0.0
H1369 H 0.50787 0.55386 0.93649 0.0
H1370 H 0.47207 0.53938 0.93395 0.0
H1371 H 0.4839 0.44943 0.92686 0.0
H1372 H 0.51969 0.46333 0.92997 0.0
H1373 H 0.50798 0.43498 0.90783 0.0
H1374 H 0.52812 0.55517 0.85004 0.0
H1375 H 0.57636 0.56735 0.86006 0.0
H1376 H 0.55542 0.52706 0.91908 0.0
C1377 C 0.44804 0.49982 0.89676 0.0
C1378 C 0.43091 0.50142 0.88017 0.0
C1379 C 0.44279 0.51037 0.86169 0.0
C1380 C 0.47066 0.52132 0.8599 0.0
C1381 C 0.48661 0.5221 0.87665 0.0
C1382 C 0.47602 0.51002 0.89464 0.0
C1383 C 0.49796 0.51232 0.91023 0.0
C1384 C 0.4908 0.55022 0.92589 0.0
C1385 C 0.50267 0.46202 0.91925 0.0
C1386 C 0.52236 0.52827 0.89822 0.0
C1387 C 0.51521 0.53449 0.87893 0.0
C1388 C 0.53405 0.55006 0.86506 0.0
C1389 C 0.56125 0.55752 0.87089 0.0
C1390 C 0.56926 0.54884 0.89032 0.0
C1391 C 0.54953 0.53471 0.9042 0.0
H1392 H 0.20053 0.05829 0.97486 0.0
H1393 H 0.16391 0.91524 0.9749 0.0
H1394 H 0.16973 0.91061 1.01054 0.0
H1395 H 0.25039 0.03651 1.0147 0.0
H1396 H 0.24602 0.09648 0.02473 0.0
H1397 H 0.24167 0.08644 0.99899 0.0
H1398 H 0.19311 0.12401 1.00082 0.0
H1399 H 0.19722 0.13389 0.02655 0.0
H1400 H 0.16847 0.09938 1.01764 0.0
H1401 H 0.17631 0.92382 0.04643 0.0
H1402 H 0.18256 0.95419 0.07986 0.0
H1403 H 0.21512 0.08899 0.05697 0.0
C1404 C 0.1944 0.02559 0.98237 0.0
C1405 C 0.1819 0.98696 0.9721 0.0
C1406 C 0.17345 0.94524 0.98248 0.0
C1407 C 0.17678 0.94223 1.00272 0.0
C1408 C 0.18857 0.98131 1.0125 0.0
C1409 C 0.19734 0.0222 1.00269 0.0
C1410 C 0.20764 0.06037 1.01688 0.0
C1411 C 0.23825 0.07053 1.01363 0.0
C1412 C 0.19058 0.10717 1.01538 0.0
C1413 C 0.20282 0.03489 0.03615 0.0
C1414 C 0.19207 0.98914 0.03327 0.0
C1415 C 0.18502 0.9594 0.04886 0.0
C1416 C 0.18879 0.97697 0.06788 0.0
C1417 C 0.19941 0.0241 0.0713 0.0
C1418 C 0.20678 0.05298 0.05505 0.0
H1419 H 0.81857 0.9845 0.9692 0.0
H1420 H 0.82343 0.14126 0.96688 0.0
H1421 H 0.81897 0.14551 1.00262 0.0
H1422 H 0.76963 0.97719 1.01009 0.0
H1423 H 0.78625 0.92515 1.02066 0.0
H1424 H 0.78747 0.9345 0.99473 0.0
H1425 H 0.84045 0.93072 0.99577 0.0
H1426 H 0.8394 0.92155 0.02168 0.0
H1427 H 0.85889 0.97113 1.01174 0.0
H1428 H 0.81647 0.13286 0.03882 0.0
H1429 H 0.81733 0.10409 0.07275 0.0
H1430 H 0.81422 0.95526 0.05208 0.0
C1431 C 0.81815 0.01965 0.97624 0.0
C1432 C 0.82131 0.0626 0.96523 0.0
C1433 C 0.82124 0.10793 0.97501 0.0
C1434 C 0.81857 0.11071 0.99531 0.0
C1435 C 0.81604 0.06779 1.0058 0.0
C1436 C 0.8158 0.02306 0.99663 0.0
C1437 C 0.81441 0.98243 1.01149 0.0
C1438 C 0.78785 0.95309 1.00909 0.0
C1439 C 0.8398 0.94953 1.01008 0.0
C1440 C 0.8143 1.0113 0.03036 0.0
C1441 C 0.81497 0.06049 0.02674 0.0
C1442 C 0.8157 0.09439 0.04184 0.0
C1443 C 0.81604 0.07765 0.06114 0.0
C1444 C 0.81582 0.02732 0.06532 0.0
C1445 C 0.81463 0.99395 0.04956 0.0
H1446 H 0.14856 0.55652 0.56026 0.0
H1447 H 0.23559 0.54153 0.57073 0.0
H1448 H 0.24359 0.5344 0.5351 0.0
H1449 H 0.14509 0.46965 0.52089 0.0
H1450 H 0.11939 0.50346 0.50785 0.0
H1451 H 0.12122 0.50752 0.53397 0.0
H1452 H 0.12539 0.60101 0.53153 0.0
H1453 H 0.12385 0.59721 0.5054 0.0
H1454 H 0.15236 0.62705 0.51701 0.0
H1455 H 0.2415 0.53336 0.49752 0.0
H1456 H 0.22911 0.52844 0.46248 0.0
H1457 H 0.1433 0.54048 0.47765 0.0
C1458 C 0.1693 0.55174 0.55503 0.0
C1459 C 0.19153 0.54996 0.56817 0.0
C1460 C 0.21833 0.5428 0.56086 0.0
C1461 C 0.22302 0.53906 0.54067 0.0
C1462 C 0.2006 0.54184 0.52806 0.0
C1463 C 0.17422 0.54721 0.53507 0.0
C1464 C 0.15344 0.54763 0.51873 0.0
C1465 C 0.13362 0.5045 0.52047 0.0
C1466 C 0.13785 0.59611 0.51814 0.0
C1467 C 0.17215 0.54208 0.50133 0.0
C1468 C 0.19933 0.53933 0.50688 0.0
C1469 C 0.22025 0.53515 0.49309 0.0
C1470 C 0.21309 0.53275 0.47324 0.0
C1471 C 0.18527 0.53385 0.46741 0.0
C1472 C 0.16471 0.53905 0.48171 0.0
H1473 H 0.77926 0.50207 0.48473 0.0
H1474 H 0.84406 0.60897 0.4831 0.0
H1475 H 0.85273 0.59685 0.51816 0.0
H1476 H 0.75226 0.53646 0.52972 0.0
H1477 H 0.74449 0.47632 0.5383 0.0
H1478 H 0.74535 0.48836 0.51259 0.0
H1479 H 0.78125 0.4203 0.50763 0.0
H1480 H 0.78016 0.40743 0.53331 0.0
H1481 H 0.81238 0.42101 0.52175 0.0
H1482 H 0.85075 0.58086 0.55385 0.0
H1483 H 0.84177 0.55482 0.58761 0.0
H1484 H 0.77868 0.45693 0.56678 0.0
C1485 C 0.79589 0.52141 0.4917 0.0
C1486 C 0.81131 0.55599 0.48125 0.0
C1487 C 0.83232 0.582 0.49091 0.0
C1488 C 0.83727 0.5755 0.51079 0.0
C1489 C 0.82108 0.5426 0.52092 0.0
C1490 C 0.80111 0.51529 0.51171 0.0
C1491 C 0.78582 0.48419 0.52633 0.0
C1492 C 0.75516 0.49713 0.52675 0.0
C1493 C 0.79017 0.43001 0.522 0.0
C1494 C 0.79994 0.49911 0.54513 0.0
C1495 C 0.82017 0.53294 0.54165 0.0
C1496 C 0.83519 0.55391 0.55675 0.0
C1497 C 0.82975 0.53931 0.57591 0.0
C1498 C 0.80957 0.50384 0.57987 0.0
C1499 C 0.79446 0.4837 0.56419 0.0
H1500 H 0.72812 0.01456 0.54856 0.0
H1501 H 0.64577 0.0242 0.5722 0.0
H1502 H 0.62735 0.03216 0.53901 0.0
H1503 H 0.71838 0.09952 0.5089 0.0
H1504 H 0.73905 0.06525 0.49203 0.0
H1505 H 0.74612 0.06241 0.51773 0.0
H1506 H 0.74156 0.96888 0.51668 0.0
H1507 H 0.73449 0.97142 0.49099 0.0
H1508 H 0.71068 0.942 0.50714 0.0
H1509 H 0.61745 0.0361 0.50327 0.0
H1510 H 0.61667 0.03645 0.46749 0.0
H1511 H 0.70522 0.02256 0.46636 0.0
C1512 C 0.7062 0.01825 0.54686 0.0
C1513 C 0.68849 0.01886 0.56326 0.0
C1514 C 0.65994 0.02433 0.56011 0.0
C1515 C 0.64921 0.02861 0.54123 0.0
C1516 C 0.66721 0.02748 0.52549 0.0
C1517 C 0.69511 0.02254 0.52807 0.0
C1518 C 0.70988 0.02145 0.50858 0.0
C1519 C 0.72952 0.06474 0.5067 0.0
C1520 C 0.72504 0.97306 0.50568 0.0
C1521 C 0.68587 0.02606 0.49463 0.0
C1522 C 0.66148 0.02959 0.50476 0.0
C1523 C 0.63643 0.03332 0.49521 0.0
C1524 C 0.6362 0.03313 0.47481 0.0
C1525 C 0.66084 0.02915 0.46397 0.0
C1526 C 0.68605 0.02603 0.47414 0.0
H1527 H 0.29937 1.00265 0.47354 0.0
H1528 H 0.35233 0.12879 0.47416 0.0
H1529 H 0.35866 0.1203 0.50946 0.0
H1530 H 0.26577 0.02656 0.518 0.0
H1531 H 0.26439 0.96462 0.52625 0.0
H1532 H 0.26536 0.97754 0.50059 0.0
H1533 H 0.30834 0.92334 0.49669 0.0
H1534 H 0.30732 0.90977 0.52231 0.0
H1535 H 0.33798 0.93463 0.51168 0.0
H1536 H 0.35565 0.10441 0.54491 0.0
H1537 H 0.3477 0.0755 0.57842 0.0
H1538 H 0.2986 0.957 0.55592 0.0
C1539 C 0.3128 0.02759 0.4811 0.0
C1540 C 0.32517 0.0667 0.47108 0.0
C1541 C 0.34234 0.09903 0.48153 0.0
C1542 C 0.34613 0.09446 0.50162 0.0
C1543 C 0.33289 0.0569 0.51121 0.0
C1544 C 0.31696 0.02338 0.50135 0.0
C1545 C 0.30466 0.98715 0.51554 0.0
C1546 C 0.27318 0.98911 0.51506 0.0
C1547 C 0.31521 0.93566 0.5113 0.0
C1548 C 0.31578 1.00625 0.53479 0.0
C1549 C 0.3319 0.04668 0.53188 0.0
C1550 C 0.34336 0.07237 0.54738 0.0
C1551 C 0.33856 0.05598 0.56638 0.0
C1552 C 0.32265 0.014 0.5698 0.0
C1553 C 0.31115 0.98885 0.55372 0.0
H1554 H 0.6909 0.49047 0.07282 0.0
H1555 H 0.65298 0.63258 0.07316 0.0
H1556 H 0.65664 0.63631 0.03738 0.0
H1557 H 0.7382 0.51237 0.03188 0.0
H1558 H 0.73393 0.45214 0.02209 0.0
H1559 H 0.73061 0.46246 0.04788 0.0
H1560 H 0.68228 0.42375 0.04721 0.0
H1561 H 0.68542 0.41344 0.02144 0.0
H1562 H 0.65674 0.44742 0.03082 0.0
H1563 H 0.66233 0.62309 1.00134 0.0
H1564 H 0.66779 0.59209 0.96778 0.0
H1565 H 0.70146 0.45813 0.99058 0.0
C1566 C 0.68386 0.52263 0.06533 0.0
C1567 C 0.67168 0.56126 0.07576 0.0
C1568 C 0.66217 0.60243 0.06544 0.0
C1569 C 0.66433 0.60501 0.04513 0.0
C1570 C 0.67598 0.56603 0.03521 0.0
C1571 C 0.68556 0.52554 0.04494 0.0
C1572 C 0.69558 0.4874 0.03067 0.0
C1573 C 0.72641 0.47805 0.03329 0.0
C1574 C 0.67901 0.44023 0.03266 0.0
C1575 C 0.68971 0.51245 1.01147 0.0
C1576 C 0.67875 0.55803 1.01441 0.0
C1577 C 0.67109 0.58754 0.99886 0.0
C1578 C 0.67438 0.56974 0.97982 0.0
C1579 C 0.68497 0.52263 0.97644 0.0
C1580 C 0.69304 0.4941 0.99259 0.0
H1581 H 0.35655 0.53652 0.97982 0.0
H1582 H 0.27772 0.60355 0.9695 0.0
H1583 H 0.26842 0.60313 1.0051 0.0
H1584 H 0.33338 0.45617 1.01699 0.0
H1585 H 0.36484 0.45955 0.03066 0.0
H1586 H 0.36529 0.46822 1.00473 0.0
H1587 H 0.389 0.55148 1.00957 0.0
H1588 H 0.38837 0.54327 0.03555 0.0
H1589 H 0.37314 0.59655 0.02492 0.0
H1590 H 0.26887 0.59601 0.04268 0.0
H1591 H 0.27622 0.57294 0.07729 0.0
H1592 H 0.35349 0.50649 0.06176 0.0
C1593 C 0.33744 0.55151 0.98511 0.0
C1594 C 0.31796 0.57067 0.97203 0.0
C1595 C 0.29286 0.58881 0.97936 0.0
C1596 C 0.28755 0.58897 0.99953 0.0
C1597 C 0.30742 0.57017 1.01209 0.0
C1598 C 0.33167 0.55106 1.00503 0.0
C1599 C 0.34902 0.53007 0.02119 0.0
C1600 C 0.35337 0.47526 1.01821 0.0
C1601 C 0.37651 0.55696 0.0229 0.0
C1602 C 0.33086 0.54026 0.03855 0.0
C1603 C 0.30712 0.56412 0.03317 0.0
C1604 C 0.28738 0.57723 0.04696 0.0
C1605 C 0.29175 0.56441 0.06658 0.0
C1606 C 0.31538 0.53807 0.07207 0.0
C1607 C 0.33525 0.52664 0.05787 0.0
loop_
_geom_bond_atom_site_label_1
_geom_bond_atom_site_label_2
_geom_bond_distance
_geom_bond_site_symmetry_2
_ccdc_geom_bond_type
C0 C1 1.351 . S
C0 N3 1.368 . S
C0 H5 0.931 . S
C1 C0 1.351 . S
C1 N2 1.373 . S
C1 H29 0.930 . S
N2 C1 1.373 . S
N2 C4 1.340 . S
N3 C0 1.368 . S
N3 C4 1.321 . S
N3 Co6 2.135 . S
C4 N2 1.340 . S
C4 N3 1.321 . S
C4 H28 0.930 1_545 S
H5 C0 0.931 . S
Co6 N3 2.135 . S
Co6 N9 2.121 . S
Co6 O14 2.055 . S
Co6 O17 2.039 1_545 S
Co6 N20 2.140 . S
C7 O8 1.227 . S
C7 O17 1.265 . S
O8 C7 1.227 . S
N9 Co6 2.121 . S
N9 C11 1.375 1_545 S
N9 C12 1.313 . S
C10 C11 1.338 . S
C10 N13 1.377 1_565 S
C10 H30 0.930 . S
C11 N9 1.375 1_565 S
C11 C10 1.338 . S
C11 H15 0.931 . S
C12 N9 1.313 . S
C12 N13 1.344 . S
C12 H16 0.930 . S
N13 C10 1.377 1_545 S
N13 C12 1.344 . S
O14 Co6 2.055 . S
O14 C18 1.253 . S
H15 C11 0.931 . S
H16 C12 0.930 . S
O17 Co6 2.039 1_565 S
O17 C7 1.265 . S
C18 O14 1.253 . S
C18 O19 1.227 . S
O19 C18 1.227 . S
N20 Co6 2.140 . S
N20 C23 1.346 . S
N20 C24 1.345 . S
C21 C22 1.387 . S
C21 C25 1.391 . S
C22 C21 1.387 . S
C22 C23 1.369 . S
C22 H31 0.929 1_545 S
C23 N20 1.346 . S
C23 C22 1.369 . S
C23 H26 0.928 1_545 S
C24 N20 1.345 . S
C24 C25 1.371 . S
C24 H27 0.931 . S
C25 C21 1.391 . S
C25 C24 1.371 . S
C25 H32 0.930 . S
H26 C23 0.928 1_565 S
H27 C24 0.931 . S
H28 C4 0.930 1_565 S
H29 C1 0.930 . S
H30 C10 0.930 . S
H31 C22 0.929 1_565 S
H32 C25 0.930 . S
C33 C34 1.351 . S
C33 N36 1.368 . S
C33 H38 0.931 . S
C34 C33 1.351 . S
C34 N35 1.373 1_565 S
C34 H62 0.930 . S
N35 C34 1.373 1_545 S
N35 C37 1.340 . S
N36 C33 1.368 . S
N36 C37 1.321 1_565 S
N36 Co39 2.135 1_565 S
C37 N35 1.340 . S
C37 N36 1.321 1_545 S
C37 H61 0.930 . S
H38 C33 0.931 . S
Co39 N36 2.135 1_545 S
Co39 N42 2.121 . S
Co39 O47 2.055 1_545 S
Co39 O50 2.039 . S
Co39 N53 2.140 . S
C40 O41 1.227 . S
C40 O50 1.265 . S
O41 C40 1.227 . S
N42 Co39 2.121 . S
N42 C44 1.375 . S
N42 C45 1.313 1_545 S
C43 C44 1.338 . S
C43 N46 1.377 . S
C43 H63 0.930 . S
C44 N42 1.375 . S
C44 C43 1.338 . S
C44 H48 0.931 . S
C45 N42 1.313 1_565 S
C45 N46 1.344 1_565 S
C45 H49 0.930 . S
N46 C43 1.377 . S
N46 C45 1.344 1_545 S
O47 Co39 2.055 1_565 S
O47 C51 1.253 . S
H48 C44 0.931 . S
H49 C45 0.930 . S
O50 Co39 2.039 . S
O50 C40 1.265 . S
C51 O47 1.253 . S
C51 O52 1.227 . S
O52 C51 1.227 . S
N53 Co39 2.140 . S
N53 C56 1.346 . S
N53 C57 1.345 1_545 S
C54 C55 1.387 . S
C54 C58 1.391 1_545 S
C55 C54 1.387 . S
C55 C56 1.369 . S
C55 H64 0.929 . S
C56 N53 1.346 . S
C56 C55 1.369 . S
C56 H59 0.928 . S
C57 N53 1.345 1_565 S
C57 C58 1.371 . S
C57 H60 0.931 . S
C58 C54 1.391 1_565 S
C58 C57 1.371 . S
C58 H65 0.930 . S
H59 C56 0.928 . S
H60 C57 0.931 . S
H61 C37 0.930 . S
H62 C34 0.930 . S
H63 C43 0.930 . S
H64 C55 0.929 . S
H65 C58 0.930 . S
C66 C67 1.351 . S
C66 N69 1.368 . S
C66 H71 0.931 . S
C67 C66 1.351 . S
C67 N68 1.373 1_565 S
C67 H95 0.930 . S
N68 C67 1.373 1_545 S
N68 C70 1.340 . S
N69 C66 1.368 . S
N69 C70 1.321 1_565 S
N69 Co72 2.135 1_565 S
C70 N68 1.340 . S
C70 N69 1.321 1_545 S
C70 H94 0.930 . S
H71 C66 0.931 . S
Co72 N69 2.135 1_545 S
Co72 N75 2.121 . S
Co72 O80 2.055 1_545 S
Co72 O83 2.039 . S
Co72 N86 2.140 . S
C73 O74 1.227 . S
C73 O83 1.265 . S
O74 C73 1.227 . S
N75 Co72 2.121 . S
N75 C77 1.375 . S
N75 C78 1.313 1_545 S
C76 C77 1.338 . S
C76 N79 1.377 . S
C76 H96 0.930 . S
C77 N75 1.375 . S
C77 C76 1.338 . S
C77 H81 0.931 . S
C78 N75 1.313 1_565 S
C78 N79 1.344 1_565 S
C78 H82 0.930 . S
N79 C76 1.377 . S
N79 C78 1.344 1_545 S
O80 Co72 2.055 1_565 S
O80 C84 1.253 . S
H81 C77 0.931 . S
H82 C78 0.930 . S
O83 Co72 2.039 . S
O83 C73 1.265 . S
C84 O80 1.253 . S
C84 O85 1.227 . S
O85 C84 1.227 . S
N86 Co72 2.140 . S
N86 C89 1.346 . S
N86 C90 1.345 1_545 S
C87 C88 1.387 . S
C87 C91 1.391 1_545 S
C88 C87 1.387 . S
C88 C89 1.369 . S
C88 H97 0.929 . S
C89 N86 1.346 . S
C89 C88 1.369 . S
C89 H92 0.928 . S
C90 N86 1.345 1_565 S
C90 C91 1.371 . S
C90 H93 0.931 . S
C91 C87 1.391 1_565 S
C91 C90 1.371 . S
C91 H98 0.930 . S
H92 C89 0.928 . S
H93 C90 0.931 . S
H94 C70 0.930 . S
H95 C67 0.930 . S
H96 C76 0.930 . S
H97 C88 0.929 . S
H98 C91 0.930 . S
C99 C100 1.351 . S
C99 N102 1.368 . S
C99 H104 0.931 . S
C100 C99 1.351 . S
C100 N101 1.373 . S
C100 H128 0.930 . S
N101 C100 1.373 . S
N101 C103 1.340 . S
N102 C99 1.368 . S
N102 C103 1.321 . S
N102 Co105 2.135 . S
C103 N101 1.340 . S
C103 N102 1.321 . S
C103 H127 0.930 1_545 S
H104 C99 0.931 . S
Co105 N102 2.135 . S
Co105 N108 2.121 . S
Co105 O113 2.055 . S
Co105 O116 2.039 1_545 S
Co105 N119 2.140 . S
C106 O107 1.227 . S
C106 O116 1.265 . S
O107 C106 1.227 . S
N108 Co105 2.121 . S
N108 C110 1.375 1_545 S
N108 C111 1.313 . S
C109 C110 1.338 . S
C109 N112 1.377 1_565 S
C109 H129 0.930 . S
C110 N108 1.375 1_565 S
C110 C109 1.338 . S
C110 H114 0.931 . S
C111 N108 1.313 . S
C111 N112 1.344 . S
C111 H115 0.930 . S
N112 C109 1.377 1_545 S
N112 C111 1.344 . S
O113 Co105 2.055 . S
O113 C117 1.253 . S
H114 C110 0.931 . S
H115 C111 0.930 . S
O116 Co105 2.039 1_565 S
O116 C106 1.265 . S
C117 O113 1.253 . S
C117 O118 1.227 . S
O118 C117 1.227 . S
N119 Co105 2.140 . S
N119 C122 1.346 . S
N119 C123 1.345 . S
C120 C121 1.387 . S
C120 C124 1.391 . S
C121 C120 1.387 . S
C121 C122 1.369 . S
C121 H130 0.929 1_545 S
C122 N119 1.346 . S
C122 C121 1.369 . S
C122 H125 0.928 1_545 S
C123 N119 1.345 . S
C123 C124 1.371 . S
C123 H126 0.931 . S
C124 C120 1.391 . S
C124 C123 1.371 . S
C124 H131 0.930 . S
H125 C122 0.928 1_565 S
H126 C123 0.931 . S
H127 C103 0.930 1_565 S
H128 C100 0.930 . S
H129 C109 0.930 . S
H130 C121 0.929 1_565 S
H131 C124 0.930 . S
C132 C133 1.351 . S
C132 N135 1.368 . S
C132 H137 0.931 . S
C133 C132 1.351 . S
C133 N134 1.373 . S
C133 H161 0.930 . S
N134 C133 1.373 . S
N134 C136 1.340 . S
N135 C132 1.368 . S
N135 C136 1.321 . S
N135 Co138 2.135 . S
C136 N134 1.340 . S
C136 N135 1.321 . S
C136 H160 0.930 . S
H137 C132 0.931 . S
Co138 N135 2.135 . S
Co138 N141 2.121 . S
Co138 O146 2.055 . S
Co138 O149 2.039 . S
Co138 N152 2.140 . S
C139 O140 1.227 . S
C139 O149 1.265 . S
O140 C139 1.227 . S
N141 Co138 2.121 . S
N141 C143 1.375 . S
N141 C144 1.313 . S
C142 C143 1.338 . S
C142 N145 1.377 . S
C142 H162 0.930 . S
C143 N141 1.375 . S
C143 C142 1.338 . S
C143 H147 0.931 . S
C144 N141 1.313 . S
C144 N145 1.344 . S
C144 H148 0.930 . S
N145 C142 1.377 . S
N145 C144 1.344 . S
O146 Co138 2.055 . S
O146 C150 1.253 . S
H147 C143 0.931 . S
H148 C144 0.930 . S
O149 Co138 2.039 . S
O149 C139 1.265 . S
C150 O146 1.253 . S
C150 O151 1.227 . S
O151 C150 1.227 . S
N152 Co138 2.140 . S
N152 C155 1.346 . S
N152 C156 1.345 . S
C153 C154 1.387 . S
C153 C157 1.391 . S
C154 C153 1.387 . S
C154 C155 1.369 . S
C154 H163 0.929 . S
C155 N152 1.346 . S
C155 C154 1.369 . S
C155 H158 0.928 . S
C156 N152 1.345 . S
C156 C157 1.371 . S
C156 H159 0.931 . S
C157 C153 1.391 . S
C157 C156 1.371 . S
C157 H164 0.930 . S
H158 C155 0.928 . S
H159 C156 0.931 . S
H160 C136 0.930 . S
H161 C133 0.930 . S
H162 C142 0.930 . S
H163 C154 0.929 . S
H164 C157 0.930 . S
C165 C166 1.351 . S
C165 N168 1.368 . S
C165 H170 0.931 . S
C166 C165 1.351 . S
C166 N167 1.373 . S
C166 H194 0.930 . S
N167 C166 1.373 . S
N167 C169 1.340 . S
N168 C165 1.368 . S
N168 C169 1.321 . S
N168 Co171 2.135 . S
C169 N167 1.340 . S
C169 N168 1.321 . S
C169 H193 0.930 . S
H170 C165 0.931 . S
Co171 N168 2.135 . S
Co171 N174 2.121 . S
Co171 O179 2.055 . S
Co171 O182 2.039 . S
Co171 N185 2.140 . S
C172 O173 1.227 . S
C172 O182 1.265 . S
O173 C172 1.227 . S
N174 Co171 2.121 . S
N174 C176 1.375 . S
N174 C177 1.313 . S
C175 C176 1.338 . S
C175 N178 1.377 . S
C175 H195 0.930 . S
C176 N174 1.375 . S
C176 C175 1.338 . S
C176 H180 0.931 . S
C177 N174 1.313 . S
C177 N178 1.344 . S
C177 H181 0.930 . S
N178 C175 1.377 . S
N178 C177 1.344 . S
O179 Co171 2.055 . S
O179 C183 1.253 . S
H180 C176 0.931 . S
H181 C177 0.930 . S
O182 Co171 2.039 . S
O182 C172 1.265 . S
C183 O179 1.253 . S
C183 O184 1.227 . S
O184 C183 1.227 . S
N185 Co171 2.140 . S
N185 C188 1.346 . S
N185 C189 1.345 . S
C186 C187 1.387 . S
C186 C190 1.391 . S
C187 C186 1.387 . S
C187 C188 1.369 . S
C187 H196 0.929 . S
C188 N185 1.346 . S
C188 C187 1.369 . S
C188 H191 0.928 . S
C189 N185 1.345 . S
C189 C190 1.371 . S
C189 H192 0.931 . S
C190 C186 1.391 . S
C190 C189 1.371 . S
C190 H197 0.930 . S
H191 C188 0.928 . S
H192 C189 0.931 . S
H193 C169 0.930 . S
H194 C166 0.930 . S
H195 C175 0.930 . S
H196 C187 0.929 . S
H197 C190 0.930 . S
C198 C199 1.351 . S
C198 N201 1.368 . S
C198 H203 0.931 . S
C199 C198 1.351 . S
C199 N200 1.373 . S
C199 H227 0.930 . S
N200 C199 1.373 . S
N200 C202 1.340 . S
N201 C198 1.368 . S
N201 C202 1.321 . S
N201 Co204 2.135 . S
C202 N200 1.340 . S
C202 N201 1.321 . S
C202 H226 0.930 . S
H203 C198 0.931 . S
Co204 N201 2.135 . S
Co204 N207 2.121 . S
Co204 O212 2.055 . S
Co204 O215 2.039 . S
Co204 N218 2.140 . S
C205 O206 1.227 . S
C205 O215 1.265 . S
O206 C205 1.227 . S
N207 Co204 2.121 . S
N207 C209 1.375 . S
N207 C210 1.313 . S
C208 C209 1.338 . S
C208 N211 1.377 . S
C208 H228 0.930 . S
C209 N207 1.375 . S
C209 C208 1.338 . S
C209 H213 0.931 . S
C210 N207 1.313 . S
C210 N211 1.344 . S
C210 H214 0.930 . S
N211 C208 1.377 . S
N211 C210 1.344 . S
O212 Co204 2.055 . S
O212 C216 1.253 . S
H213 C209 0.931 . S
H214 C210 0.930 . S
O215 Co204 2.039 . S
O215 C205 1.265 . S
C216 O212 1.253 . S
C216 O217 1.227 . S
O217 C216 1.227 . S
N218 Co204 2.140 . S
N218 C221 1.346 . S
N218 C222 1.345 . S
C219 C220 1.387 . S
C219 C223 1.391 . S
C220 C219 1.387 . S
C220 C221 1.369 . S
C220 H229 0.929 . S
C221 N218 1.346 . S
C221 C220 1.369 . S
C221 H224 0.928 . S
C222 N218 1.345 . S
C222 C223 1.371 . S
C222 H225 0.931 . S
C223 C219 1.391 . S
C223 C222 1.371 . S
C223 H230 0.930 . S
H224 C221 0.928 . S
H225 C222 0.931 . S
H226 C202 0.930 . S
H227 C199 0.930 . S
H228 C208 0.930 . S
H229 C220 0.929 . S
H230 C223 0.930 . S
C231 C232 1.351 . S
C231 N234 1.368 . S
C231 H236 0.931 . S
C232 C231 1.351 . S
C232 N233 1.373 . S
C232 H260 0.930 . S
N233 C232 1.373 . S
N233 C235 1.340 . S
N234 C231 1.368 . S
N234 C235 1.321 . S
N234 Co237 2.135 . S
C235 N233 1.340 . S
C235 N234 1.321 . S
C235 H259 0.930 . S
H236 C231 0.931 . S
Co237 N234 2.135 . S
Co237 N240 2.121 . S
Co237 O245 2.055 . S
Co237 O248 2.039 . S
Co237 N251 2.140 . S
C238 O239 1.227 . S
C238 O248 1.265 . S
O239 C238 1.227 . S
N240 Co237 2.121 . S
N240 C242 1.375 . S
N240 C243 1.313 . S
C241 C242 1.338 . S
C241 N244 1.377 . S
C241 H261 0.930 . S
C242 N240 1.375 . S
C242 C241 1.338 . S
C242 H246 0.931 . S
C243 N240 1.313 . S
C243 N244 1.344 . S
C243 H247 0.930 . S
N244 C241 1.377 . S
N244 C243 1.344 . S
O245 Co237 2.055 . S
O245 C249 1.253 . S
H246 C242 0.931 . S
H247 C243 0.930 . S
O248 Co237 2.039 . S
O248 C238 1.265 . S
C249 O245 1.253 . S
C249 O250 1.227 . S
O250 C249 1.227 . S
N251 Co237 2.140 . S
N251 C254 1.346 . S
N251 C255 1.345 . S
C252 C253 1.387 . S
C252 C256 1.391 . S
C253 C252 1.387 . S
C253 C254 1.369 . S
C253 H262 0.929 . S
C254 N251 1.346 . S
C254 C253 1.369 . S
C254 H257 0.928 . S
C255 N251 1.345 . S
C255 C256 1.371 . S
C255 H258 0.931 . S
C256 C252 1.391 . S
C256 C255 1.371 . S
C256 H263 0.930 . S
H257 C254 0.928 . S
H258 C255 0.931 . S
H259 C235 0.930 . S
H260 C232 0.930 . S
H261 C241 0.930 . S
H262 C253 0.929 . S
H263 C256 0.930 . S
C264 C265 1.351 . S
C264 N267 1.368 . S
C264 H269 0.931 . S
C265 C264 1.351 . S
C265 N266 1.373 . S
C265 H293 0.930 . S
N266 C265 1.373 . S
N266 C268 1.340 . S
N267 C264 1.368 . S
N267 C268 1.321 . S
N267 Co270 2.135 . S
C268 N266 1.340 . S
C268 N267 1.321 . S
C268 H292 0.930 1_545 S
H269 C264 0.931 . S
Co270 N267 2.135 . S
Co270 N273 2.121 . S
Co270 O278 2.055 . S
Co270 O281 2.039 1_545 S
Co270 N284 2.140 . S
C271 O272 1.227 . S
C271 O281 1.265 . S
O272 C271 1.227 . S
N273 Co270 2.121 . S
N273 C275 1.375 1_545 S
N273 C276 1.313 . S
C274 C275 1.338 . S
C274 N277 1.377 1_565 S
C274 H294 0.930 . S
C275 N273 1.375 1_565 S
C275 C274 1.338 . S
C275 H279 0.931 . S
C276 N273 1.313 . S
C276 N277 1.344 . S
C276 H280 0.930 . S
N277 C274 1.377 1_545 S
N277 C276 1.344 . S
O278 Co270 2.055 . S
O278 C282 1.253 . S
H279 C275 0.931 . S
H280 C276 0.930 . S
O281 Co270 2.039 1_565 S
O281 C271 1.265 . S
C282 O278 1.253 . S
C282 O283 1.227 . S
O283 C282 1.227 . S
N284 Co270 2.140 . S
N284 C287 1.346 . S
N284 C288 1.345 . S
C285 C286 1.387 . S
C285 C289 1.391 . S
C286 C285 1.387 . S
C286 C287 1.369 . S
C286 H295 0.929 1_545 S
C287 N284 1.346 . S
C287 C286 1.369 . S
C287 H290 0.928 1_545 S
C288 N284 1.345 . S
C288 C289 1.371 . S
C288 H291 0.931 . S
C289 C285 1.391 . S
C289 C288 1.371 . S
C289 H296 0.930 . S
H290 C287 0.928 1_565 S
H291 C288 0.931 . S
H292 C268 0.930 1_565 S
H293 C265 0.930 . S
H294 C274 0.930 . S
H295 C286 0.929 1_565 S
H296 C289 0.930 . S
C297 C298 1.351 . S
C297 N300 1.368 . S
C297 H302 0.931 . S
C298 C297 1.351 . S
C298 N299 1.373 1_565 S
C298 H326 0.930 . S
N299 C298 1.373 1_545 S
N299 C301 1.340 . S
N300 C297 1.368 . S
N300 C301 1.321 1_565 S
N300 Co303 2.135 1_565 S
C301 N299 1.340 . S
C301 N300 1.321 1_545 S
C301 H325 0.930 . S
H302 C297 0.931 . S
Co303 N300 2.135 1_545 S
Co303 N306 2.121 . S
Co303 O311 2.055 1_545 S
Co303 O314 2.039 . S
Co303 N317 2.140 . S
C304 O305 1.227 . S
C304 O314 1.265 . S
O305 C304 1.227 . S
N306 Co303 2.121 . S
N306 C308 1.375 . S
N306 C309 1.313 1_545 S
C307 C308 1.338 . S
C307 N310 1.377 . S
C307 H327 0.930 . S
C308 N306 1.375 . S
C308 C307 1.338 . S
C308 H312 0.931 . S
C309 N306 1.313 1_565 S
C309 N310 1.344 1_565 S
C309 H313 0.930 . S
N310 C307 1.377 . S
N310 C309 1.344 1_545 S
O311 Co303 2.055 1_565 S
O311 C315 1.253 . S
H312 C308 0.931 . S
H313 C309 0.930 . S
O314 Co303 2.039 . S
O314 C304 1.265 . S
C315 O311 1.253 . S
C315 O316 1.227 . S
O316 C315 1.227 . S
N317 Co303 2.140 . S
N317 C320 1.346 . S
N317 C321 1.345 1_545 S
C318 C319 1.387 . S
C318 C322 1.391 1_545 S
C319 C318 1.387 . S
C319 C320 1.369 . S
C319 H328 0.929 . S
C320 N317 1.346 . S
C320 C319 1.369 . S
C320 H323 0.928 . S
C321 N317 1.345 1_565 S
C321 C322 1.371 . S
C321 H324 0.931 . S
C322 C318 1.391 1_565 S
C322 C321 1.371 . S
C322 H329 0.930 . S
H323 C320 0.928 . S
H324 C321 0.931 . S
H325 C301 0.930 . S
H326 C298 0.930 . S
H327 C307 0.930 . S
H328 C319 0.929 . S
H329 C322 0.930 . S
C330 C331 1.351 . S
C330 N333 1.368 . S
C330 H335 0.931 . S
C331 C330 1.351 . S
C331 N332 1.373 1_565 S
C331 H359 0.930 . S
N332 C331 1.373 1_545 S
N332 C334 1.340 . S
N333 C330 1.368 . S
N333 C334 1.321 1_565 S
N333 Co336 2.135 1_565 S
C334 N332 1.340 . S
C334 N333 1.321 1_545 S
C334 H358 0.930 . S
H335 C330 0.931 . S
Co336 N333 2.135 1_545 S
Co336 N339 2.121 . S
Co336 O344 2.055 1_545 S
Co336 O347 2.039 . S
Co336 N350 2.140 . S
C337 O338 1.227 . S
C337 O347 1.265 . S
O338 C337 1.227 . S
N339 Co336 2.121 . S
N339 C341 1.375 . S
N339 C342 1.313 1_545 S
C340 C341 1.338 . S
C340 N343 1.377 . S
C340 H360 0.930 . S
C341 N339 1.375 . S
C341 C340 1.338 . S
C341 H345 0.931 . S
C342 N339 1.313 1_565 S
C342 N343 1.344 1_565 S
C342 H346 0.930 . S
N343 C340 1.377 . S
N343 C342 1.344 1_545 S
O344 Co336 2.055 1_565 S
O344 C348 1.253 . S
H345 C341 0.931 . S
H346 C342 0.930 . S
O347 Co336 2.039 . S
O347 C337 1.265 . S
C348 O344 1.253 . S
C348 O349 1.227 . S
O349 C348 1.227 . S
N350 Co336 2.140 . S
N350 C353 1.346 . S
N350 C354 1.345 1_545 S
C351 C352 1.387 . S
C351 C355 1.391 1_545 S
C352 C351 1.387 . S
C352 C353 1.369 . S
C352 H361 0.929 . S
C353 N350 1.346 . S
C353 C352 1.369 . S
C353 H356 0.928 . S
C354 N350 1.345 1_565 S
C354 C355 1.371 . S
C354 H357 0.931 . S
C355 C351 1.391 1_565 S
C355 C354 1.371 . S
C355 H362 0.930 . S
H356 C353 0.928 . S
H357 C354 0.931 . S
H358 C334 0.930 . S
H359 C331 0.930 . S
H360 C340 0.930 . S
H361 C352 0.929 . S
H362 C355 0.930 . S
C363 C364 1.351 . S
C363 N366 1.368 . S
C363 H368 0.931 . S
C364 C363 1.351 . S
C364 N365 1.373 . S
C364 H392 0.930 . S
N365 C364 1.373 . S
N365 C367 1.340 . S
N366 C363 1.368 . S
N366 C367 1.321 . S
N366 Co369 2.135 . S
C367 N365 1.340 . S
C367 N366 1.321 . S
C367 H391 0.930 1_545 S
H368 C363 0.931 . S
Co369 N366 2.135 . S
Co369 N372 2.121 . S
Co369 O377 2.055 . S
Co369 O380 2.039 1_545 S
Co369 N383 2.140 . S
C370 O371 1.227 . S
C370 O380 1.265 . S
O371 C370 1.227 . S
N372 Co369 2.121 . S
N372 C374 1.375 1_545 S
N372 C375 1.313 . S
C373 C374 1.338 . S
C373 N376 1.377 1_565 S
C373 H393 0.930 . S
C374 N372 1.375 1_565 S
C374 C373 1.338 . S
C374 H378 0.931 . S
C375 N372 1.313 . S
C375 N376 1.344 . S
C375 H379 0.930 . S
N376 C373 1.377 1_545 S
N376 C375 1.344 . S
O377 Co369 2.055 . S
O377 C381 1.253 . S
H378 C374 0.931 . S
H379 C375 0.930 . S
O380 Co369 2.039 1_565 S
O380 C370 1.265 . S
C381 O377 1.253 . S
C381 O382 1.227 . S
O382 C381 1.227 . S
N383 Co369 2.140 . S
N383 C386 1.346 . S
N383 C387 1.345 . S
C384 C385 1.387 . S
C384 C388 1.391 . S
C385 C384 1.387 . S
C385 C386 1.369 . S
C385 H394 0.929 1_545 S
C386 N383 1.346 . S
C386 C385 1.369 . S
C386 H389 0.928 1_545 S
C387 N383 1.345 . S
C387 C388 1.371 . S
C387 H390 0.931 . S
C388 C384 1.391 . S
C388 C387 1.371 . S
C388 H395 0.930 . S
H389 C386 0.928 1_565 S
H390 C387 0.931 . S
H391 C367 0.930 1_565 S
H392 C364 0.930 . S
H393 C373 0.930 . S
H394 C385 0.929 1_565 S
H395 C388 0.930 . S
C396 C397 1.351 . S
C396 N399 1.368 . S
C396 H401 0.931 . S
C397 C396 1.351 . S
C397 N398 1.373 . S
C397 H425 0.930 . S
N398 C397 1.373 . S
N398 C400 1.340 . S
N399 C396 1.368 . S
N399 C400 1.321 . S
N399 Co402 2.135 . S
C400 N398 1.340 . S
C400 N399 1.321 . S
C400 H424 0.930 . S
H401 C396 0.931 . S
Co402 N399 2.135 . S
Co402 N405 2.121 . S
Co402 O410 2.055 . S
Co402 O413 2.039 . S
Co402 N416 2.140 . S
C403 O404 1.227 . S
C403 O413 1.265 . S
O404 C403 1.227 . S
N405 Co402 2.121 . S
N405 C407 1.375 . S
N405 C408 1.313 . S
C406 C407 1.338 . S
C406 N409 1.377 . S
C406 H426 0.930 . S
C407 N405 1.375 . S
C407 C406 1.338 . S
C407 H411 0.931 . S
C408 N405 1.313 . S
C408 N409 1.344 . S
C408 H412 0.930 . S
N409 C406 1.377 . S
N409 C408 1.344 . S
O410 Co402 2.055 . S
O410 C414 1.253 . S
H411 C407 0.931 . S
H412 C408 0.930 . S
O413 Co402 2.039 . S
O413 C403 1.265 . S
C414 O410 1.253 . S
C414 O415 1.227 . S
O415 C414 1.227 . S
N416 Co402 2.140 . S
N416 C419 1.346 . S
N416 C420 1.345 . S
C417 C418 1.387 . S
C417 C421 1.391 . S
C418 C417 1.387 . S
C418 C419 1.369 . S
C418 H427 0.929 . S
C419 N416 1.346 . S
C419 C418 1.369 . S
C419 H422 0.928 . S
C420 N416 1.345 . S
C420 C421 1.371 . S
C420 H423 0.931 . S
C421 C417 1.391 . S
C421 C420 1.371 . S
C421 H428 0.930 . S
H422 C419 0.928 . S
H423 C420 0.931 . S
H424 C400 0.930 . S
H425 C397 0.930 . S
H426 C406 0.930 . S
H427 C418 0.929 . S
H428 C421 0.930 . S
C429 C430 1.351 . S
C429 N432 1.368 . S
C429 H434 0.931 . S
C430 C429 1.351 . S
C430 N431 1.373 . S
C430 H458 0.930 . S
N431 C430 1.373 . S
N431 C433 1.340 . S
N432 C429 1.368 . S
N432 C433 1.321 . S
N432 Co435 2.135 . S
C433 N431 1.340 . S
C433 N432 1.321 . S
C433 H457 0.930 . S
H434 C429 0.931 . S
Co435 N432 2.135 . S
Co435 N438 2.121 . S
Co435 O443 2.055 . S
Co435 O446 2.039 . S
Co435 N449 2.140 . S
C436 O437 1.227 . S
C436 O446 1.265 . S
O437 C436 1.227 . S
N438 Co435 2.121 . S
N438 C440 1.375 . S
N438 C441 1.313 . S
C439 C440 1.338 . S
C439 N442 1.377 . S
C439 H459 0.930 . S
C440 N438 1.375 . S
C440 C439 1.338 . S
C440 H444 0.931 . S
C441 N438 1.313 . S
C441 N442 1.344 . S
C441 H445 0.930 . S
N442 C439 1.377 . S
N442 C441 1.344 . S
O443 Co435 2.055 . S
O443 C447 1.253 . S
H444 C440 0.931 . S
H445 C441 0.930 . S
O446 Co435 2.039 . S
O446 C436 1.265 . S
C447 O443 1.253 . S
C447 O448 1.227 . S
O448 C447 1.227 . S
N449 Co435 2.140 . S
N449 C452 1.346 . S
N449 C453 1.345 . S
C450 C451 1.387 . S
C450 C454 1.391 . S
C451 C450 1.387 . S
C451 C452 1.369 . S
C451 H460 0.929 . S
C452 N449 1.346 . S
C452 C451 1.369 . S
C452 H455 0.928 . S
C453 N449 1.345 . S
C453 C454 1.371 . S
C453 H456 0.931 . S
C454 C450 1.391 . S
C454 C453 1.371 . S
C454 H461 0.930 . S
H455 C452 0.928 . S
H456 C453 0.931 . S
H457 C433 0.930 . S
H458 C430 0.930 . S
H459 C439 0.930 . S
H460 C451 0.929 . S
H461 C454 0.930 . S
C462 C463 1.351 . S
C462 N465 1.368 . S
C462 H467 0.931 . S
C463 C462 1.351 . S
C463 N464 1.373 . S
C463 H491 0.930 . S
N464 C463 1.373 . S
N464 C466 1.340 . S
N465 C462 1.368 . S
N465 C466 1.321 . S
N465 Co468 2.135 . S
C466 N464 1.340 . S
C466 N465 1.321 . S
C466 H490 0.930 . S
H467 C462 0.931 . S
Co468 N465 2.135 . S
Co468 N471 2.121 . S
Co468 O476 2.055 . S
Co468 O479 2.039 . S
Co468 N482 2.140 . S
C469 O470 1.227 . S
C469 O479 1.265 . S
O470 C469 1.227 . S
N471 Co468 2.121 . S
N471 C473 1.375 . S
N471 C474 1.313 . S
C472 C473 1.338 . S
C472 N475 1.377 . S
C472 H492 0.930 . S
C473 N471 1.375 . S
C473 C472 1.338 . S
C473 H477 0.931 . S
C474 N471 1.313 . S
C474 N475 1.344 . S
C474 H478 0.930 . S
N475 C472 1.377 . S
N475 C474 1.344 . S
O476 Co468 2.055 . S
O476 C480 1.253 . S
H477 C473 0.931 . S
H478 C474 0.930 . S
O479 Co468 2.039 . S
O479 C469 1.265 . S
C480 O476 1.253 . S
C480 O481 1.227 . S
O481 C480 1.227 . S
N482 Co468 2.140 . S
N482 C485 1.346 . S
N482 C486 1.345 . S
C483 C484 1.387 . S
C483 C487 1.391 . S
C484 C483 1.387 . S
C484 C485 1.369 . S
C484 H493 0.929 . S
C485 N482 1.346 . S
C485 C484 1.369 . S
C485 H488 0.928 . S
C486 N482 1.345 . S
C486 C487 1.371 . S
C486 H489 0.931 . S
C487 C483 1.391 . S
C487 C486 1.371 . S
C487 H494 0.930 . S
H488 C485 0.928 . S
H489 C486 0.931 . S
H490 C466 0.930 . S
H491 C463 0.930 . S
H492 C472 0.930 . S
H493 C484 0.929 . S
H494 C487 0.930 . S
C495 C496 1.351 . S
C495 N498 1.368 . S
C495 H500 0.931 . S
C496 C495 1.351 . S
C496 N497 1.373 . S
C496 H524 0.930 . S
N497 C496 1.373 . S
N497 C499 1.340 . S
N498 C495 1.368 . S
N498 C499 1.321 . S
N498 Co501 2.135 . S
C499 N497 1.340 . S
C499 N498 1.321 . S
C499 H523 0.930 . S
H500 C495 0.931 . S
Co501 N498 2.135 . S
Co501 N504 2.121 . S
Co501 O509 2.055 . S
Co501 O512 2.039 . S
Co501 N515 2.140 . S
C502 O503 1.227 . S
C502 O512 1.265 . S
O503 C502 1.227 . S
N504 Co501 2.121 . S
N504 C506 1.375 . S
N504 C507 1.313 . S
C505 C506 1.338 . S
C505 N508 1.377 . S
C505 H525 0.930 . S
C506 N504 1.375 . S
C506 C505 1.338 . S
C506 H510 0.931 . S
C507 N504 1.313 . S
C507 N508 1.344 . S
C507 H511 0.930 . S
N508 C505 1.377 . S
N508 C507 1.344 . S
O509 Co501 2.055 . S
O509 C513 1.253 . S
H510 C506 0.931 . S
H511 C507 0.930 . S
O512 Co501 2.039 . S
O512 C502 1.265 . S
C513 O509 1.253 . S
C513 O514 1.227 . S
O514 C513 1.227 . S
N515 Co501 2.140 . S
N515 C518 1.346 . S
N515 C519 1.345 . S
C516 C517 1.387 . S
C516 C520 1.391 . S
C517 C516 1.387 . S
C517 C518 1.369 . S
C517 H526 0.929 . S
C518 N515 1.346 . S
C518 C517 1.369 . S
C518 H521 0.928 . S
C519 N515 1.345 . S
C519 C520 1.371 . S
C519 H522 0.931 . S
C520 C516 1.391 . S
C520 C519 1.371 . S
C520 H527 0.930 . S
H521 C518 0.928 . S
H522 C519 0.931 . S
H523 C499 0.930 . S
H524 C496 0.930 . S
H525 C505 0.930 . S
H526 C517 0.929 . S
H527 C520 0.930 . S
H528 C540 0.930 . S
H529 C542 0.947 . S
H530 C543 0.930 . S
H531 C547 0.959 . S
H532 C547 0.959 . S
H533 C547 0.961 . S
H534 C548 0.960 . S
H535 C548 0.961 . S
H536 C548 0.959 . S
H537 C551 0.929 . S
H538 C552 0.931 . S
H539 C554 0.930 . S
C540 H528 0.930 . S
C540 C541 1.399 . S
C540 C545 1.399 . S
C541 C540 1.399 . S
C541 C542 1.356 1_545 S
C542 H529 0.947 . S
C542 C541 1.356 1_565 S
C542 C543 1.393 . S
C543 H530 0.930 . S
C543 C542 1.393 . S
C543 C544 1.390 1_565 S
C544 C543 1.390 1_545 S
C544 C545 1.394 . S
C544 C550 1.465 . S
C545 C540 1.399 . S
C545 C544 1.394 . S
C545 C546 1.516 . S
C546 C545 1.516 . S
C546 C547 1.502 . S
C546 C548 1.561 . S
C546 C549 1.526 . S
C547 H531 0.959 . S
C547 H532 0.959 . S
C547 H533 0.961 . S
C547 C546 1.502 . S
C548 H534 0.960 . S
C548 H535 0.961 . S
C548 H536 0.959 . S
C548 C546 1.561 . S
C549 C546 1.526 . S
C549 C550 1.396 . S
C549 C554 1.390 . S
C550 C544 1.465 . S
C550 C549 1.396 . S
C550 C551 1.399 1_545 S
C551 H537 0.929 . S
C551 C550 1.399 1_565 S
C551 C552 1.385 . S
C552 H538 0.931 . S
C552 C551 1.385 . S
C552 C553 1.389 1_565 S
C553 C552 1.389 1_545 S
C553 C554 1.387 . S
C554 H539 0.930 . S
C554 C549 1.390 . S
C554 C553 1.387 . S
H555 C567 0.930 . S
H556 C569 0.930 . S
H557 C570 0.930 . S
H558 C574 0.959 . S
H559 C574 0.959 . S
H560 C574 0.961 . S
H561 C575 0.960 . S
H562 C575 0.961 . S
H563 C575 0.959 . S
H564 C578 0.929 . S
H565 C579 0.931 . S
H566 C581 0.930 . S
C567 H555 0.930 . S
C567 C568 1.399 . S
C567 C572 1.399 . S
C568 C567 1.399 . S
C568 C569 1.376 1_565 S
C569 H556 0.930 . S
C569 C568 1.376 1_545 S
C569 C570 1.388 . S
C570 H557 0.930 . S
C570 C569 1.388 . S
C570 C571 1.390 . S
C571 C570 1.390 . S
C571 C572 1.394 1_545 S
C571 C577 1.465 . S
C572 C567 1.399 . S
C572 C571 1.394 1_565 S
C572 C573 1.516 . S
C573 C572 1.516 . S
C573 C574 1.502 . S
C573 C575 1.561 . S
C573 C576 1.526 . S
C574 H558 0.959 . S
C574 H559 0.959 . S
C574 H560 0.961 . S
C574 C573 1.502 . S
C575 H561 0.960 . S
C575 H562 0.961 . S
C575 H563 0.959 . S
C575 C573 1.561 . S
C576 C573 1.526 . S
C576 C577 1.396 1_565 S
C576 C581 1.390 . S
C577 C571 1.465 . S
C577 C576 1.396 1_545 S
C577 C578 1.399 . S
C578 H564 0.929 . S
C578 C577 1.399 . S
C578 C579 1.385 . S
C579 H565 0.931 . S
C579 C578 1.385 . S
C579 C580 1.389 1_545 S
C580 C579 1.389 1_565 S
C580 C581 1.387 . S
C581 H566 0.930 . S
C581 C576 1.390 . S
C581 C580 1.387 . S
H582 C594 0.930 . S
H583 C596 0.930 . S
H584 C597 0.930 . S
H585 C601 0.959 . S
H586 C601 0.959 . S
H587 C601 0.961 . S
H588 C602 0.960 . S
H589 C602 0.961 . S
H590 C602 0.959 . S
H591 C605 0.929 . S
H592 C606 0.931 . S
H593 C608 0.930 . S
C594 H582 0.930 . S
C594 C595 1.399 . S
C594 C599 1.399 . S
C595 C594 1.399 . S
C595 C596 1.376 1_565 S
C596 H583 0.930 . S
C596 C595 1.376 1_545 S
C596 C597 1.388 . S
C597 H584 0.930 . S
C597 C596 1.388 . S
C597 C598 1.390 . S
C598 C597 1.390 . S
C598 C599 1.394 1_545 S
C598 C604 1.465 . S
C599 C594 1.399 . S
C599 C598 1.394 1_565 S
C599 C600 1.516 . S
C600 C599 1.516 . S
C600 C601 1.502 . S
C600 C602 1.561 . S
C600 C603 1.526 . S
C601 H585 0.959 . S
C601 H586 0.959 . S
C601 H587 0.961 . S
C601 C600 1.502 . S
C602 H588 0.960 . S
C602 H589 0.961 . S
C602 H590 0.959 . S
C602 C600 1.561 . S
C603 C600 1.526 . S
C603 C604 1.396 1_565 S
C603 C608 1.390 . S
C604 C598 1.465 . S
C604 C603 1.396 1_545 S
C604 C605 1.399 . S
C605 H591 0.929 . S
C605 C604 1.399 . S
C605 C606 1.385 . S
C606 H592 0.931 . S
C606 C605 1.385 . S
C606 C607 1.389 1_545 S
C607 C606 1.389 1_565 S
C607 C608 1.387 . S
C608 H593 0.930 . S
C608 C603 1.390 . S
C608 C607 1.387 . S
H609 C621 0.930 1_565 S
H610 C623 0.930 . S
H611 C624 0.930 . S
H612 C628 0.959 1_545 S
H613 C628 0.959 . S
H614 C628 0.961 . S
H615 C629 0.960 . S
H616 C629 0.961 . S
H617 C629 0.959 . S
H618 C632 0.929 . S
H619 C633 0.931 . S
H620 C635 0.930 1_565 S
C621 H609 0.930 1_545 S
C621 C622 1.399 . S
C621 C626 1.399 . S
C622 C621 1.399 . S
C622 C623 1.376 . S
C623 H610 0.930 . S
C623 C622 1.376 . S
C623 C624 1.388 . S
C624 H611 0.930 . S
C624 C623 1.388 . S
C624 C625 1.390 . S
C625 C624 1.390 . S
C625 C626 1.394 . S
C625 C631 1.465 . S
C626 C621 1.399 . S
C626 C625 1.394 . S
C626 C627 1.523 . S
C627 C626 1.523 . S
C627 C628 1.500 1_545 S
C627 C629 1.550 1_545 S
C627 C630 1.532 . S
C628 H612 0.959 1_565 S
C628 H613 0.959 . S
C628 H614 0.961 . S
C628 C627 1.500 1_565 S
C629 H615 0.960 . S
C629 H616 0.961 . S
C629 H617 0.959 . S
C629 C627 1.550 1_565 S
C630 C627 1.532 . S
C630 C631 1.396 . S
C630 C635 1.390 . S
C631 C625 1.465 . S
C631 C630 1.396 . S
C631 C632 1.399 . S
C632 H618 0.929 . S
C632 C631 1.399 . S
C632 C633 1.385 . S
C633 H619 0.931 . S
C633 C632 1.385 . S
C633 C634 1.389 . S
C634 C633 1.389 . S
C634 C635 1.387 . S
C635 H620 0.930 1_545 S
C635 C630 1.390 . S
C635 C634 1.387 . S
H636 C648 0.930 . S
H637 C650 0.930 . S
H638 C651 0.930 . S
H639 C655 0.959 . S
H640 C655 0.959 . S
H641 C655 0.961 . S
H642 C656 0.960 . S
H643 C656 0.961 . S
H644 C656 0.959 . S
H645 C659 0.929 . S
H646 C660 0.931 . S
H647 C662 0.930 . S
C648 H636 0.930 . S
C648 C649 1.399 . S
C648 C653 1.399 . S
C649 C648 1.399 . S
C649 C650 1.376 . S
C650 H637 0.930 . S
C650 C649 1.376 . S
C650 C651 1.388 . S
C651 H638 0.930 . S
C651 C650 1.388 . S
C651 C652 1.390 . S
C652 C651 1.390 . S
C652 C653 1.394 . S
C652 C658 1.465 . S
C653 C648 1.399 . S
C653 C652 1.394 . S
C653 C654 1.516 . S
C654 C653 1.516 . S
C654 C655 1.502 . S
C654 C656 1.561 . S
C654 C657 1.526 . S
C655 H639 0.959 . S
C655 H640 0.959 . S
C655 H641 0.961 . S
C655 C654 1.502 . S
C656 H642 0.960 . S
C656 H643 0.961 . S
C656 H644 0.959 . S
C656 C654 1.561 . S
C657 C654 1.526 . S
C657 C658 1.396 . S
C657 C662 1.390 . S
C658 C652 1.465 . S
C658 C657 1.396 . S
C658 C659 1.399 . S
C659 H645 0.929 . S
C659 C658 1.399 . S
C659 C660 1.385 . S
C660 H646 0.931 . S
C660 C659 1.385 . S
C660 C661 1.389 . S
C661 C660 1.389 . S
C661 C662 1.387 . S
C662 H647 0.930 . S
C662 C657 1.390 . S
C662 C661 1.387 . S
H663 C675 0.930 . S
H664 C677 0.930 . S
H665 C678 0.930 . S
H666 C682 0.959 . S
H667 C682 0.959 . S
H668 C682 0.961 . S
H669 C683 0.960 . S
H670 C683 0.961 . S
H671 C683 0.959 . S
H672 C686 0.929 . S
H673 C687 0.931 . S
H674 C689 0.930 . S
C675 H663 0.930 . S
C675 C676 1.399 . S
C675 C680 1.399 . S
C676 C675 1.399 . S
C676 C677 1.376 . S
C677 H664 0.930 . S
C677 C676 1.376 . S
C677 C678 1.388 . S
C678 H665 0.930 . S
C678 C677 1.388 . S
C678 C679 1.390 . S
C679 C678 1.390 . S
C679 C680 1.394 . S
C679 C685 1.465 . S
C680 C675 1.399 . S
C680 C679 1.394 . S
C680 C681 1.516 . S
C681 C680 1.516 . S
C681 C682 1.502 . S
C681 C683 1.561 . S
C681 C684 1.526 . S
C682 H666 0.959 . S
C682 H667 0.959 . S
C682 H668 0.961 . S
C682 C681 1.502 . S
C683 H669 0.960 . S
C683 H670 0.961 . S
C683 H671 0.959 . S
C683 C681 1.561 . S
C684 C681 1.526 . S
C684 C685 1.396 . S
C684 C689 1.390 . S
C685 C679 1.465 . S
C685 C684 1.396 . S
C685 C686 1.399 . S
C686 H672 0.929 . S
C686 C685 1.399 . S
C686 C687 1.385 . S
C687 H673 0.931 . S
C687 C686 1.385 . S
C687 C688 1.389 . S
C688 C687 1.389 . S
C688 C689 1.387 . S
C689 H674 0.930 . S
C689 C684 1.390 . S
C689 C688 1.387 . S
H690 C702 0.930 . S
H691 C704 0.930 . S
H692 C705 0.930 . S
H693 C709 0.959 . S
H694 C709 0.959 . S
H695 C709 0.961 . S
H696 C710 0.960 . S
H697 C710 0.961 . S
H698 C710 0.959 . S
H699 C713 0.929 . S
H700 C714 0.931 . S
H701 C716 0.930 . S
C702 H690 0.930 . S
C702 C703 1.399 . S
C702 C707 1.399 . S
C703 C702 1.399 . S
C703 C704 1.376 . S
C704 H691 0.930 . S
C704 C703 1.376 . S
C704 C705 1.388 . S
C705 H692 0.930 . S
C705 C704 1.388 . S
C705 C706 1.390 . S
C706 C705 1.390 . S
C706 C707 1.394 . S
C706 C712 1.465 . S
C707 C702 1.399 . S
C707 C706 1.394 . S
C707 C708 1.516 . S
C708 C707 1.516 . S
C708 C709 1.502 . S
C708 C710 1.561 . S
C708 C711 1.526 . S
C709 H693 0.959 . S
C709 H694 0.959 . S
C709 H695 0.961 . S
C709 C708 1.502 . S
C710 H696 0.960 . S
C710 H697 0.961 . S
C710 H698 0.959 . S
C710 C708 1.561 . S
C711 C708 1.526 . S
C711 C712 1.396 . S
C711 C716 1.390 . S
C712 C706 1.465 . S
C712 C711 1.396 . S
C712 C713 1.399 . S
C713 H699 0.929 . S
C713 C712 1.399 . S
C713 C714 1.385 . S
C714 H700 0.931 . S
C714 C713 1.385 . S
C714 C715 1.389 . S
C715 C714 1.389 . S
C715 C716 1.387 . S
C716 H701 0.930 . S
C716 C711 1.390 . S
C716 C715 1.387 . S
H717 C729 0.930 . S
H718 C731 0.930 . S
H719 C732 0.930 . S
H720 C736 0.959 . S
H721 C736 0.959 . S
H722 C736 0.961 . S
H723 C737 0.960 . S
H724 C737 0.961 . S
H725 C737 0.959 . S
H726 C740 0.929 . S
H727 C741 0.931 . S
H728 C743 0.930 . S
C729 H717 0.930 . S
C729 C730 1.399 . S
C729 C734 1.399 . S
C730 C729 1.399 . S
C730 C731 1.376 . S
C731 H718 0.930 . S
C731 C730 1.376 . S
C731 C732 1.388 . S
C732 H719 0.930 . S
C732 C731 1.388 . S
C732 C733 1.390 . S
C733 C732 1.390 . S
C733 C734 1.394 . S
C733 C739 1.465 . S
C734 C729 1.399 . S
C734 C733 1.394 . S
C734 C735 1.516 . S
C735 C734 1.516 . S
C735 C736 1.502 . S
C735 C737 1.561 . S
C735 C738 1.526 . S
C736 H720 0.959 . S
C736 H721 0.959 . S
C736 H722 0.961 . S
C736 C735 1.502 . S
C737 H723 0.960 . S
C737 H724 0.961 . S
C737 H725 0.959 . S
C737 C735 1.561 . S
C738 C735 1.526 . S
C738 C739 1.396 . S
C738 C743 1.390 . S
C739 C733 1.465 . S
C739 C738 1.396 . S
C739 C740 1.399 . S
C740 H726 0.929 . S
C740 C739 1.399 . S
C740 C741 1.385 . S
C741 H727 0.931 . S
C741 C740 1.385 . S
C741 C742 1.389 . S
C742 C741 1.389 . S
C742 C743 1.387 . S
C743 H728 0.930 . S
C743 C738 1.390 . S
C743 C742 1.387 . S
H744 C756 0.930 . S
H745 C758 0.930 . S
H746 C759 0.930 . S
H747 C763 0.959 . S
H748 C763 0.959 . S
H749 C763 0.961 . S
H750 C764 0.960 . S
H751 C764 0.961 . S
H752 C764 0.959 . S
H753 C767 0.929 . S
H754 C768 0.931 . S
H755 C770 0.930 . S
C756 H744 0.930 . S
C756 C757 1.399 . S
C756 C761 1.399 . S
C757 C756 1.399 . S
C757 C758 1.376 . S
C758 H745 0.930 . S
C758 C757 1.376 . S
C758 C759 1.388 . S
C759 H746 0.930 . S
C759 C758 1.388 . S
C759 C760 1.390 . S
C760 C759 1.390 . S
C760 C761 1.394 . S
C760 C766 1.465 . S
C761 C756 1.399 . S
C761 C760 1.394 . S
C761 C762 1.516 . S
C762 C761 1.516 . S
C762 C763 1.502 . S
C762 C764 1.561 . S
C762 C765 1.526 . S
C763 H747 0.959 . S
C763 H748 0.959 . S
C763 H749 0.961 . S
C763 C762 1.502 . S
C764 H750 0.960 . S
C764 H751 0.961 . S
C764 H752 0.959 . S
C764 C762 1.561 . S
C765 C762 1.526 . S
C765 C766 1.396 . S
C765 C770 1.390 . S
C766 C760 1.465 . S
C766 C765 1.396 . S
C766 C767 1.399 . S
C767 H753 0.929 . S
C767 C766 1.399 . S
C767 C768 1.385 . S
C768 H754 0.931 . S
C768 C767 1.385 . S
C768 C769 1.389 . S
C769 C768 1.389 . S
C769 C770 1.387 . S
C770 H755 0.930 . S
C770 C765 1.390 . S
C770 C769 1.387 . S
H771 C783 0.930 . S
H772 C785 0.930 . S
H773 C786 0.930 . S
H774 C790 0.959 . S
H775 C790 0.959 . S
H776 C790 0.961 . S
H777 C791 0.960 . S
H778 C791 0.961 . S
H779 C791 0.959 . S
H780 C794 0.929 . S
H781 C795 0.931 . S
H782 C797 0.930 . S
C783 H771 0.930 . S
C783 C784 1.399 . S
C783 C788 1.399 . S
C784 C783 1.399 . S
C784 C785 1.376 . S
C785 H772 0.930 . S
C785 C784 1.376 . S
C785 C786 1.388 . S
C786 H773 0.930 . S
C786 C785 1.388 . S
C786 C787 1.390 . S
C787 C786 1.390 . S
C787 C788 1.394 . S
C787 C793 1.465 . S
C788 C783 1.399 . S
C788 C787 1.394 . S
C788 C789 1.516 . S
C789 C788 1.516 . S
C789 C790 1.502 . S
C789 C791 1.561 . S
C789 C792 1.526 . S
C790 H774 0.959 . S
C790 H775 0.959 . S
C790 H776 0.961 . S
C790 C789 1.502 . S
C791 H777 0.960 . S
C791 H778 0.961 . S
C791 H779 0.959 . S
C791 C789 1.561 . S
C792 C789 1.526 . S
C792 C793 1.396 . S
C792 C797 1.390 . S
C793 C787 1.465 . S
C793 C792 1.396 . S
C793 C794 1.399 . S
C794 H780 0.929 . S
C794 C793 1.399 . S
C794 C795 1.385 . S
C795 H781 0.931 . S
C795 C794 1.385 . S
C795 C796 1.389 . S
C796 C795 1.389 . S
C796 C797 1.387 . S
C797 H782 0.930 . S
C797 C792 1.390 . S
C797 C796 1.387 . S
H798 C810 0.930 . S
H799 C812 0.930 . S
H800 C813 0.930 . S
H801 C817 0.959 . S
H802 C817 0.959 . S
H803 C817 0.961 . S
H804 C818 0.960 . S
H805 C818 0.961 . S
H806 C818 0.959 . S
H807 C821 0.929 . S
H808 C822 0.931 . S
H809 C824 0.930 . S
C810 H798 0.930 . S
C810 C811 1.399 . S
C810 C815 1.399 . S
C811 C810 1.399 . S
C811 C812 1.376 . S
C812 H799 0.930 . S
C812 C811 1.376 . S
C812 C813 1.388 . S
C813 H800 0.930 . S
C813 C812 1.388 . S
C813 C814 1.390 . S
C814 C813 1.390 . S
C814 C815 1.394 . S
C814 C820 1.465 . S
C815 C810 1.399 . S
C815 C814 1.394 . S
C815 C816 1.516 . S
C816 C815 1.516 . S
C816 C817 1.502 . S
C816 C818 1.561 . S
C816 C819 1.526 . S
C817 H801 0.959 . S
C817 H802 0.959 . S
C817 H803 0.961 . S
C817 C816 1.502 . S
C818 H804 0.960 . S
C818 H805 0.961 . S
C818 H806 0.959 . S
C818 C816 1.561 . S
C819 C816 1.526 . S
C819 C820 1.396 . S
C819 C824 1.390 . S
C820 C814 1.465 . S
C820 C819 1.396 . S
C820 C821 1.399 . S
C821 H807 0.929 . S
C821 C820 1.399 . S
C821 C822 1.385 . S
C822 H808 0.931 . S
C822 C821 1.385 . S
C822 C823 1.389 . S
C823 C822 1.389 . S
C823 C824 1.387 . S
C824 H809 0.930 . S
C824 C819 1.390 . S
C824 C823 1.387 . S
H825 C837 0.930 . S
H826 C839 0.930 . S
H827 C840 0.930 . S
H828 C844 0.959 . S
H829 C844 0.959 . S
H830 C844 0.961 . S
H831 C845 0.960 . S
H832 C845 0.961 . S
H833 C845 0.959 . S
H834 C848 0.929 . S
H835 C849 0.931 . S
H836 C851 0.930 . S
C837 H825 0.930 . S
C837 C838 1.399 . S
C837 C842 1.399 . S
C838 C837 1.399 . S
C838 C839 1.376 . S
C839 H826 0.930 . S
C839 C838 1.376 . S
C839 C840 1.388 . S
C840 H827 0.930 . S
C840 C839 1.388 . S
C840 C841 1.390 . S
C841 C840 1.390 . S
C841 C842 1.394 . S
C841 C847 1.465 . S
C842 C837 1.399 . S
C842 C841 1.394 . S
C842 C843 1.516 . S
C843 C842 1.516 . S
C843 C844 1.502 . S
C843 C845 1.561 . S
C843 C846 1.526 . S
C844 H828 0.959 . S
C844 H829 0.959 . S
C844 H830 0.961 . S
C844 C843 1.502 . S
C845 H831 0.960 . S
C845 H832 0.961 . S
C845 H833 0.959 . S
C845 C843 1.561 . S
C846 C843 1.526 . S
C846 C847 1.396 . S
C846 C851 1.390 . S
C847 C841 1.465 . S
C847 C846 1.396 . S
C847 C848 1.399 . S
C848 H834 0.929 . S
C848 C847 1.399 . S
C848 C849 1.385 . S
C849 H835 0.931 . S
C849 C848 1.385 . S
C849 C850 1.389 . S
C850 C849 1.389 . S
C850 C851 1.387 . S
C851 H836 0.930 . S
C851 C846 1.390 . S
C851 C850 1.387 . S
H852 C864 0.930 . S
H853 C866 0.930 . S
H854 C867 0.930 . S
H855 C871 0.959 . S
H856 C871 0.959 . S
H857 C871 0.961 . S
H858 C872 0.960 . S
H859 C872 0.961 . S
H860 C872 0.959 . S
H861 C875 0.929 . S
H862 C876 0.931 . S
H863 C878 0.930 . S
C864 H852 0.930 . S
C864 C865 1.399 . S
C864 C869 1.399 . S
C865 C864 1.399 . S
C865 C866 1.376 . S
C866 H853 0.930 . S
C866 C865 1.376 . S
C866 C867 1.388 . S
C867 H854 0.930 . S
C867 C866 1.388 . S
C867 C868 1.390 . S
C868 C867 1.390 . S
C868 C869 1.394 . S
C868 C874 1.465 . S
C869 C864 1.399 . S
C869 C868 1.394 . S
C869 C870 1.516 . S
C870 C869 1.516 . S
C870 C871 1.502 . S
C870 C872 1.561 . S
C870 C873 1.526 . S
C871 H855 0.959 . S
C871 H856 0.959 . S
C871 H857 0.961 . S
C871 C870 1.502 . S
C872 H858 0.960 . S
C872 H859 0.961 . S
C872 H860 0.959 . S
C872 C870 1.561 . S
C873 C870 1.526 . S
C873 C874 1.396 . S
C873 C878 1.390 . S
C874 C868 1.465 . S
C874 C873 1.396 . S
C874 C875 1.399 . S
C875 H861 0.929 . S
C875 C874 1.399 . S
C875 C876 1.385 . S
C876 H862 0.931 . S
C876 C875 1.385 . S
C876 C877 1.389 . S
C877 C876 1.389 . S
C877 C878 1.387 . S
C878 H863 0.930 . S
C878 C873 1.390 . S
C878 C877 1.387 . S
H879 C891 0.930 . S
H880 C893 0.930 . S
H881 C894 0.930 . S
H882 C898 0.959 . S
H883 C898 0.959 . S
H884 C898 0.961 . S
H885 C899 0.960 . S
H886 C899 0.961 . S
H887 C899 0.959 . S
H888 C902 0.929 . S
H889 C903 0.931 . S
H890 C905 0.930 . S
C891 H879 0.930 . S
C891 C892 1.399 . S
C891 C896 1.399 . S
C892 C891 1.399 . S
C892 C893 1.376 . S
C893 H880 0.930 . S
C893 C892 1.376 . S
C893 C894 1.388 . S
C894 H881 0.930 . S
C894 C893 1.388 . S
C894 C895 1.390 . S
C895 C894 1.390 . S
C895 C896 1.394 . S
C895 C901 1.465 . S
C896 C891 1.399 . S
C896 C895 1.394 . S
C896 C897 1.516 . S
C897 C896 1.516 . S
C897 C898 1.502 . S
C897 C899 1.561 . S
C897 C900 1.526 . S
C898 H882 0.959 . S
C898 H883 0.959 . S
C898 H884 0.961 . S
C898 C897 1.502 . S
C899 H885 0.960 . S
C899 H886 0.961 . S
C899 H887 0.959 . S
C899 C897 1.561 . S
C900 C897 1.526 . S
C900 C901 1.396 . S
C900 C905 1.390 . S
C901 C895 1.465 . S
C901 C900 1.396 . S
C901 C902 1.399 . S
C902 H888 0.929 . S
C902 C901 1.399 . S
C902 C903 1.385 . S
C903 H889 0.931 . S
C903 C902 1.385 . S
C903 C904 1.389 . S
C904 C903 1.389 . S
C904 C905 1.387 . S
C905 H890 0.930 . S
C905 C900 1.390 . S
C905 C904 1.387 . S
H906 C918 0.930 . S
H907 C920 0.930 . S
H908 C921 0.930 . S
H909 C925 0.959 . S
H910 C925 0.959 . S
H911 C925 0.961 . S
H912 C926 0.960 . S
H913 C926 0.961 . S
H914 C926 0.959 . S
H915 C929 0.929 . S
H916 C930 0.931 . S
H917 C932 0.930 . S
C918 H906 0.930 . S
C918 C919 1.399 . S
C918 C923 1.399 . S
C919 C918 1.399 . S
C919 C920 1.376 . S
C920 H907 0.930 . S
C920 C919 1.376 . S
C920 C921 1.388 . S
C921 H908 0.930 . S
C921 C920 1.388 . S
C921 C922 1.390 . S
C922 C921 1.390 . S
C922 C923 1.394 . S
C922 C928 1.465 . S
C923 C918 1.399 . S
C923 C922 1.394 . S
C923 C924 1.516 . S
C924 C923 1.516 . S
C924 C925 1.502 . S
C924 C926 1.561 . S
C924 C927 1.526 . S
C925 H909 0.959 . S
C925 H910 0.959 . S
C925 H911 0.961 . S
C925 C924 1.502 . S
C926 H912 0.960 . S
C926 H913 0.961 . S
C926 H914 0.959 . S
C926 C924 1.561 . S
C927 C924 1.526 . S
C927 C928 1.396 . S
C927 C932 1.390 . S
C928 C922 1.465 . S
C928 C927 1.396 . S
C928 C929 1.399 . S
C929 H915 0.929 . S
C929 C928 1.399 . S
C929 C930 1.385 . S
C930 H916 0.931 . S
C930 C929 1.385 . S
C930 C931 1.389 . S
C931 C930 1.389 . S
C931 C932 1.387 . S
C932 H917 0.930 . S
C932 C927 1.390 . S
C932 C931 1.387 . S
H933 C945 0.930 . S
H934 C947 0.930 . S
H935 C948 0.930 . S
H936 C952 0.959 . S
H937 C952 0.959 . S
H938 C952 0.961 . S
H939 C953 0.960 . S
H940 C953 0.961 . S
H941 C953 0.959 . S
H942 C956 0.929 . S
H943 C957 0.931 . S
H944 C959 0.930 . S
C945 H933 0.930 . S
C945 C946 1.399 . S
C945 C950 1.399 . S
C946 C945 1.399 . S
C946 C947 1.376 . S
C947 H934 0.930 . S
C947 C946 1.376 . S
C947 C948 1.388 . S
C948 H935 0.930 . S
C948 C947 1.388 . S
C948 C949 1.390 . S
C949 C948 1.390 . S
C949 C950 1.394 . S
C949 C955 1.465 . S
C950 C945 1.399 . S
C950 C949 1.394 . S
C950 C951 1.516 . S
C951 C950 1.516 . S
C951 C952 1.502 . S
C951 C953 1.561 . S
C951 C954 1.526 . S
C952 H936 0.959 . S
C952 H937 0.959 . S
C952 H938 0.961 . S
C952 C951 1.502 . S
C953 H939 0.960 . S
C953 H940 0.961 . S
C953 H941 0.959 . S
C953 C951 1.561 . S
C954 C951 1.526 . S
C954 C955 1.396 . S
C954 C959 1.390 . S
C955 C949 1.465 . S
C955 C954 1.396 . S
C955 C956 1.399 . S
C956 H942 0.929 . S
C956 C955 1.399 . S
C956 C957 1.385 . S
C957 H943 0.931 . S
C957 C956 1.385 . S
C957 C958 1.389 . S
C958 C957 1.389 . S
C958 C959 1.387 . S
C959 H944 0.930 . S
C959 C954 1.390 . S
C959 C958 1.387 . S
H960 C972 0.930 . S
H961 C974 0.930 . S
H962 C975 0.930 . S
H963 C979 0.959 . S
H964 C979 0.959 . S
H965 C979 0.961 . S
H966 C980 0.960 . S
H967 C980 0.961 . S
H968 C980 0.959 . S
H969 C983 0.929 . S
H970 C984 0.931 . S
H971 C986 0.930 . S
C972 H960 0.930 . S
C972 C973 1.399 . S
C972 C977 1.399 . S
C973 C972 1.399 . S
C973 C974 1.376 . S
C974 H961 0.930 . S
C974 C973 1.376 . S
C974 C975 1.388 . S
C975 H962 0.930 . S
C975 C974 1.388 . S
C975 C976 1.390 . S
C976 C975 1.390 . S
C976 C977 1.394 . S
C976 C982 1.465 . S
C977 C972 1.399 . S
C977 C976 1.394 . S
C977 C978 1.516 . S
C978 C977 1.516 . S
C978 C979 1.502 . S
C978 C980 1.561 . S
C978 C981 1.526 . S
C979 H963 0.959 . S
C979 H964 0.959 . S
C979 H965 0.961 . S
C979 C978 1.502 . S
C980 H966 0.960 . S
C980 H967 0.961 . S
C980 H968 0.959 . S
C980 C978 1.561 . S
C981 C978 1.526 . S
C981 C982 1.396 . S
C981 C986 1.390 . S
C982 C976 1.465 . S
C982 C981 1.396 . S
C982 C983 1.399 . S
C983 H969 0.929 . S
C983 C982 1.399 . S
C983 C984 1.385 . S
C984 H970 0.931 . S
C984 C983 1.385 . S
C984 C985 1.389 . S
C985 C984 1.389 . S
C985 C986 1.387 . S
C986 H971 0.930 . S
C986 C981 1.390 . S
C986 C985 1.387 . S
H987 C999 0.930 . S
H988 C1001 0.930 . S
H989 C1002 0.930 . S
H990 C1006 0.959 . S
H991 C1006 0.959 . S
H992 C1006 0.961 . S
H993 C1007 0.960 . S
H994 C1007 0.961 . S
H995 C1007 0.959 . S
H996 C1010 0.929 . S
H997 C1011 0.931 . S
H998 C1013 0.930 . S
C999 H987 0.930 . S
C999 C1000 1.399 . S
C999 C1004 1.399 . S
C1000 C999 1.399 . S
C1000 C1001 1.376 . S
C1001 H988 0.930 . S
C1001 C1000 1.376 . S
C1001 C1002 1.388 . S
C1002 H989 0.930 . S
C1002 C1001 1.388 . S
C1002 C1003 1.390 . S
C1003 C1002 1.390 . S
C1003 C1004 1.394 . S
C1003 C1009 1.465 . S
C1004 C999 1.399 . S
C1004 C1003 1.394 . S
C1004 C1005 1.516 . S
C1005 C1004 1.516 . S
C1005 C1006 1.502 . S
C1005 C1007 1.561 . S
C1005 C1008 1.526 . S
C1006 H990 0.959 . S
C1006 H991 0.959 . S
C1006 H992 0.961 . S
C1006 C1005 1.502 . S
C1007 H993 0.960 . S
C1007 H994 0.961 . S
C1007 H995 0.959 . S
C1007 C1005 1.561 . S
C1008 C1005 1.526 . S
C1008 C1009 1.396 . S
C1008 C1013 1.390 . S
C1009 C1003 1.465 . S
C1009 C1008 1.396 . S
C1009 C1010 1.399 . S
C1010 H996 0.929 . S
C1010 C1009 1.399 . S
C1010 C1011 1.385 . S
C1011 H997 0.931 . S
C1011 C1010 1.385 . S
C1011 C1012 1.389 . S
C1012 C1011 1.389 . S
C1012 C1013 1.387 . S
C1013 H998 0.930 . S
C1013 C1008 1.390 . S
C1013 C1012 1.387 . S
H1014 C1026 0.930 . S
H1015 C1028 0.930 . S
H1016 C1029 0.930 . S
H1017 C1033 0.959 . S
H1018 C1033 0.959 . S
H1019 C1033 0.961 . S
H1020 C1034 0.960 . S
H1021 C1034 0.961 . S
H1022 C1034 0.959 . S
H1023 C1037 0.929 . S
H1024 C1038 0.931 . S
H1025 C1040 0.930 . S
C1026 H1014 0.930 . S
C1026 C1027 1.399 . S
C1026 C1031 1.399 . S
C1027 C1026 1.399 . S
C1027 C1028 1.376 . S
C1028 H1015 0.930 . S
C1028 C1027 1.376 . S
C1028 C1029 1.388 . S
C1029 H1016 0.930 . S
C1029 C1028 1.388 . S
C1029 C1030 1.390 . S
C1030 C1029 1.390 . S
C1030 C1031 1.394 . S
C1030 C1036 1.465 . S
C1031 C1026 1.399 . S
C1031 C1030 1.394 . S
C1031 C1032 1.516 . S
C1032 C1031 1.516 . S
C1032 C1033 1.502 . S
C1032 C1034 1.561 . S
C1032 C1035 1.526 . S
C1033 H1017 0.959 . S
C1033 H1018 0.959 . S
C1033 H1019 0.961 . S
C1033 C1032 1.502 . S
C1034 H1020 0.960 . S
C1034 H1021 0.961 . S
C1034 H1022 0.959 . S
C1034 C1032 1.561 . S
C1035 C1032 1.526 . S
C1035 C1036 1.396 . S
C1035 C1040 1.390 . S
C1036 C1030 1.465 . S
C1036 C1035 1.396 . S
C1036 C1037 1.399 . S
C1037 H1023 0.929 . S
C1037 C1036 1.399 . S
C1037 C1038 1.385 . S
C1038 H1024 0.931 . S
C1038 C1037 1.385 . S
C1038 C1039 1.389 . S
C1039 C1038 1.389 . S
C1039 C1040 1.387 . S
C1040 H1025 0.930 . S
C1040 C1035 1.390 . S
C1040 C1039 1.387 . S
H1041 C1053 0.930 . S
H1042 C1055 0.930 . S
H1043 C1056 0.930 . S
H1044 C1060 0.959 . S
H1045 C1060 0.959 . S
H1046 C1060 0.961 . S
H1047 C1061 0.960 . S
H1048 C1061 0.961 . S
H1049 C1061 0.959 . S
H1050 C1064 0.929 . S
H1051 C1065 0.931 . S
H1052 C1067 0.930 . S
C1053 H1041 0.930 . S
C1053 C1054 1.399 . S
C1053 C1058 1.399 . S
C1054 C1053 1.399 . S
C1054 C1055 1.376 . S
C1055 H1042 0.930 . S
C1055 C1054 1.376 . S
C1055 C1056 1.388 . S
C1056 H1043 0.930 . S
C1056 C1055 1.388 . S
C1056 C1057 1.390 . S
C1057 C1056 1.390 . S
C1057 C1058 1.394 . S
C1057 C1063 1.465 . S
C1058 C1053 1.399 . S
C1058 C1057 1.394 . S
C1058 C1059 1.516 . S
C1059 C1058 1.516 . S
C1059 C1060 1.502 . S
C1059 C1061 1.561 . S
C1059 C1062 1.526 . S
C1060 H1044 0.959 . S
C1060 H1045 0.959 . S
C1060 H1046 0.961 . S
C1060 C1059 1.502 . S
C1061 H1047 0.960 . S
C1061 H1048 0.961 . S
C1061 H1049 0.959 . S
C1061 C1059 1.561 . S
C1062 C1059 1.526 . S
C1062 C1063 1.396 . S
C1062 C1067 1.390 . S
C1063 C1057 1.465 . S
C1063 C1062 1.396 . S
C1063 C1064 1.399 . S
C1064 H1050 0.929 . S
C1064 C1063 1.399 . S
C1064 C1065 1.385 . S
C1065 H1051 0.931 . S
C1065 C1064 1.385 . S
C1065 C1066 1.389 . S
C1066 C1065 1.389 . S
C1066 C1067 1.387 . S
C1067 H1052 0.930 . S
C1067 C1062 1.390 . S
C1067 C1066 1.387 . S
H1068 C1080 0.930 . S
H1069 C1082 0.930 . S
H1070 C1083 0.930 . S
H1071 C1087 0.959 . S
H1072 C1087 0.959 . S
H1073 C1087 0.961 . S
H1074 C1088 0.960 . S
H1075 C1088 0.961 . S
H1076 C1088 0.959 . S
H1077 C1091 0.929 . S
H1078 C1092 0.931 . S
H1079 C1094 0.930 . S
C1080 H1068 0.930 . S
C1080 C1081 1.399 . S
C1080 C1085 1.399 . S
C1081 C1080 1.399 . S
C1081 C1082 1.376 . S
C1082 H1069 0.930 . S
C1082 C1081 1.376 . S
C1082 C1083 1.388 . S
C1083 H1070 0.930 . S
C1083 C1082 1.388 . S
C1083 C1084 1.390 . S
C1084 C1083 1.390 . S
C1084 C1085 1.394 . S
C1084 C1090 1.465 . S
C1085 C1080 1.399 . S
C1085 C1084 1.394 . S
C1085 C1086 1.516 . S
C1086 C1085 1.516 . S
C1086 C1087 1.502 . S
C1086 C1088 1.561 . S
C1086 C1089 1.526 . S
C1087 H1071 0.959 . S
C1087 H1072 0.959 . S
C1087 H1073 0.961 . S
C1087 C1086 1.502 . S
C1088 H1074 0.960 . S
C1088 H1075 0.961 . S
C1088 H1076 0.959 . S
C1088 C1086 1.561 . S
C1089 C1086 1.526 . S
C1089 C1090 1.396 . S
C1089 C1094 1.390 . S
C1090 C1084 1.465 . S
C1090 C1089 1.396 . S
C1090 C1091 1.399 . S
C1091 H1077 0.929 . S
C1091 C1090 1.399 . S
C1091 C1092 1.385 . S
C1092 H1078 0.931 . S
C1092 C1091 1.385 . S
C1092 C1093 1.389 . S
C1093 C1092 1.389 . S
C1093 C1094 1.387 . S
C1094 H1079 0.930 . S
C1094 C1089 1.390 . S
C1094 C1093 1.387 . S
H1095 C1107 0.930 . S
H1096 C1109 0.930 . S
H1097 C1110 0.930 . S
H1098 C1114 0.959 . S
H1099 C1114 0.959 . S
H1100 C1114 0.961 . S
H1101 C1115 0.960 . S
H1102 C1115 0.961 . S
H1103 C1115 0.959 . S
H1104 C1118 0.929 . S
H1105 C1119 0.931 . S
H1106 C1121 0.930 . S
C1107 H1095 0.930 . S
C1107 C1108 1.399 . S
C1107 C1112 1.399 . S
C1108 C1107 1.399 . S
C1108 C1109 1.376 . S
C1109 H1096 0.930 . S
C1109 C1108 1.376 . S
C1109 C1110 1.388 . S
C1110 H1097 0.930 . S
C1110 C1109 1.388 . S
C1110 C1111 1.390 . S
C1111 C1110 1.390 . S
C1111 C1112 1.394 . S
C1111 C1117 1.465 . S
C1112 C1107 1.399 . S
C1112 C1111 1.394 . S
C1112 C1113 1.516 . S
C1113 C1112 1.516 . S
C1113 C1114 1.502 . S
C1113 C1115 1.561 . S
C1113 C1116 1.526 . S
C1114 H1098 0.959 . S
C1114 H1099 0.959 . S
C1114 H1100 0.961 . S
C1114 C1113 1.502 . S
C1115 H1101 0.960 . S
C1115 H1102 0.961 . S
C1115 H1103 0.959 . S
C1115 C1113 1.561 . S
C1116 C1113 1.526 . S
C1116 C1117 1.396 . S
C1116 C1121 1.390 . S
C1117 C1111 1.465 . S
C1117 C1116 1.396 . S
C1117 C1118 1.399 . S
C1118 H1104 0.929 . S
C1118 C1117 1.399 . S
C1118 C1119 1.385 . S
C1119 H1105 0.931 . S
C1119 C1118 1.385 . S
C1119 C1120 1.389 . S
C1120 C1119 1.389 . S
C1120 C1121 1.387 . S
C1121 H1106 0.930 . S
C1121 C1116 1.390 . S
C1121 C1120 1.387 . S
H1122 C1134 0.930 . S
H1123 C1136 0.930 . S
H1124 C1137 0.930 . S
H1125 C1141 0.959 . S
H1126 C1141 0.959 . S
H1127 C1141 0.961 . S
H1128 C1142 0.960 . S
H1129 C1142 0.961 . S
H1130 C1142 0.959 . S
H1131 C1145 0.929 . S
H1132 C1146 0.931 . S
H1133 C1148 0.930 . S
C1134 H1122 0.930 . S
C1134 C1135 1.399 . S
C1134 C1139 1.399 . S
C1135 C1134 1.399 . S
C1135 C1136 1.376 . S
C1136 H1123 0.930 . S
C1136 C1135 1.376 . S
C1136 C1137 1.388 . S
C1137 H1124 0.930 . S
C1137 C1136 1.388 . S
C1137 C1138 1.390 . S
C1138 C1137 1.390 . S
C1138 C1139 1.394 . S
C1138 C1144 1.465 . S
C1139 C1134 1.399 . S
C1139 C1138 1.394 . S
C1139 C1140 1.516 . S
C1140 C1139 1.516 . S
C1140 C1141 1.502 . S
C1140 C1142 1.561 . S
C1140 C1143 1.526 . S
C1141 H1125 0.959 . S
C1141 H1126 0.959 . S
C1141 H1127 0.961 . S
C1141 C1140 1.502 . S
C1142 H1128 0.960 . S
C1142 H1129 0.961 . S
C1142 H1130 0.959 . S
C1142 C1140 1.561 . S
C1143 C1140 1.526 . S
C1143 C1144 1.396 . S
C1143 C1148 1.390 . S
C1144 C1138 1.465 . S
C1144 C1143 1.396 . S
C1144 C1145 1.399 . S
C1145 H1131 0.929 . S
C1145 C1144 1.399 . S
C1145 C1146 1.385 . S
C1146 H1132 0.931 . S
C1146 C1145 1.385 . S
C1146 C1147 1.389 . S
C1147 C1146 1.389 . S
C1147 C1148 1.387 . S
C1148 H1133 0.930 . S
C1148 C1143 1.390 . S
C1148 C1147 1.387 . S
H1149 C1161 0.930 . S
H1150 C1163 0.930 . S
H1151 C1164 0.930 . S
H1152 C1168 0.959 . S
H1153 C1168 0.959 . S
H1154 C1168 0.961 . S
H1155 C1169 0.960 . S
H1156 C1169 0.961 . S
H1157 C1169 0.959 . S
H1158 C1172 0.929 . S
H1159 C1173 0.931 . S
H1160 C1175 0.930 . S
C1161 H1149 0.930 . S
C1161 C1162 1.399 . S
C1161 C1166 1.399 . S
C1162 C1161 1.399 . S
C1162 C1163 1.376 . S
C1163 H1150 0.930 . S
C1163 C1162 1.376 . S
C1163 C1164 1.388 . S
C1164 H1151 0.930 . S
C1164 C1163 1.388 . S
C1164 C1165 1.390 . S
C1165 C1164 1.390 . S
C1165 C1166 1.394 . S
C1165 C1171 1.465 . S
C1166 C1161 1.399 . S
C1166 C1165 1.394 . S
C1166 C1167 1.516 . S
C1167 C1166 1.516 . S
C1167 C1168 1.502 . S
C1167 C1169 1.561 . S
C1167 C1170 1.526 . S
C1168 H1152 0.959 . S
C1168 H1153 0.959 . S
C1168 H1154 0.961 . S
C1168 C1167 1.502 . S
C1169 H1155 0.960 . S
C1169 H1156 0.961 . S
C1169 H1157 0.959 . S
C1169 C1167 1.561 . S
C1170 C1167 1.526 . S
C1170 C1171 1.396 . S
C1170 C1175 1.390 . S
C1171 C1165 1.465 . S
C1171 C1170 1.396 . S
C1171 C1172 1.399 . S
C1172 H1158 0.929 . S
C1172 C1171 1.399 . S
C1172 C1173 1.385 . S
C1173 H1159 0.931 . S
C1173 C1172 1.385 . S
C1173 C1174 1.389 . S
C1174 C1173 1.389 . S
C1174 C1175 1.387 . S
C1175 H1160 0.930 . S
C1175 C1170 1.390 . S
C1175 C1174 1.387 . S
H1176 C1188 0.930 . S
H1177 C1190 0.930 . S
H1178 C1191 0.930 . S
H1179 C1195 0.960 . S
H1180 C1195 0.961 . S
H1181 C1195 0.959 1_655 S
H1182 C1196 0.960 1_655 S
H1183 C1196 0.961 . S
H1184 C1196 0.959 . S
H1185 C1199 0.929 . S
H1186 C1200 0.931 . S
H1187 C1202 0.930 . S
C1188 H1176 0.930 . S
C1188 C1189 1.399 . S
C1188 C1193 1.399 . S
C1189 C1188 1.399 . S
C1189 C1190 1.376 . S
C1190 H1177 0.930 . S
C1190 C1189 1.376 . S
C1190 C1191 1.388 . S
C1191 H1178 0.930 . S
C1191 C1190 1.388 . S
C1191 C1192 1.390 . S
C1192 C1191 1.390 . S
C1192 C1193 1.394 . S
C1192 C1198 1.465 1_655 S
C1193 C1188 1.399 . S
C1193 C1192 1.394 . S
C1193 C1194 1.510 1_655 S
C1194 C1193 1.510 1_455 S
C1194 C1195 1.502 . S
C1194 C1196 1.562 1_545 S
C1194 C1197 1.532 . S
C1195 H1179 0.960 . S
C1195 H1180 0.961 . S
C1195 H1181 0.959 1_455 S
C1195 C1194 1.502 . S
C1196 H1182 0.960 1_455 S
C1196 H1183 0.961 . S
C1196 H1184 0.959 . S
C1196 C1194 1.562 1_565 S
C1197 C1194 1.532 . S
C1197 C1198 1.396 . S
C1197 C1202 1.390 . S
C1198 C1192 1.465 1_455 S
C1198 C1197 1.396 . S
C1198 C1199 1.399 . S
C1199 H1185 0.929 . S
C1199 C1198 1.399 . S
C1199 C1200 1.385 . S
C1200 H1186 0.931 . S
C1200 C1199 1.385 . S
C1200 C1201 1.389 . S
C1201 C1200 1.389 . S
C1201 C1202 1.387 . S
C1202 H1187 0.930 . S
C1202 C1197 1.390 . S
C1202 C1201 1.387 . S
H1203 C1215 0.930 1_565 S
H1204 C1217 0.930 . S
H1205 C1218 0.930 . S
H1206 C1222 0.959 . S
H1207 C1222 0.959 . S
H1208 C1222 0.961 1_455 S
H1209 C1223 0.960 . S
H1210 C1223 0.961 1_655 S
H1211 C1223 0.957 1_655 S
H1212 C1226 0.929 . S
H1213 C1227 0.931 . S
H1214 C1229 0.920 1_565 S
C1215 H1203 0.930 1_545 S
C1215 C1216 1.399 . S
C1215 C1220 1.399 . S
C1216 C1215 1.399 . S
C1216 C1217 1.376 . S
C1217 H1204 0.930 . S
C1217 C1216 1.376 . S
C1217 C1218 1.388 . S
C1218 H1205 0.930 . S
C1218 C1217 1.388 . S
C1218 C1219 1.390 . S
C1219 C1218 1.390 . S
C1219 C1220 1.394 . S
C1219 C1225 1.465 1_455 S
C1220 C1215 1.399 . S
C1220 C1219 1.394 . S
C1220 C1221 1.504 1_455 S
C1221 C1220 1.504 1_655 S
C1221 C1222 1.503 1_545 S
C1221 C1223 1.561 1_655 S
C1221 C1224 1.538 . S
C1222 H1206 0.959 . S
C1222 H1207 0.959 . S
C1222 H1208 0.961 1_655 S
C1222 C1221 1.503 1_565 S
C1223 H1209 0.960 . S
C1223 H1210 0.961 1_455 S
C1223 H1211 0.957 1_455 S
C1223 C1221 1.561 1_455 S
C1224 C1221 1.538 . S
C1224 C1225 1.396 . S
C1224 C1229 1.390 . S
C1225 C1219 1.465 1_655 S
C1225 C1224 1.396 . S
C1225 C1226 1.399 . S
C1226 H1212 0.929 . S
C1226 C1225 1.399 . S
C1226 C1227 1.385 . S
C1227 H1213 0.931 . S
C1227 C1226 1.385 . S
C1227 C1228 1.389 . S
C1228 C1227 1.389 . S
C1228 C1229 1.387 . S
C1229 H1214 0.920 1_545 S
C1229 C1224 1.390 . S
C1229 C1228 1.387 . S
H1230 C1242 0.930 . S
H1231 C1244 0.930 . S
H1232 C1245 0.930 . S
H1233 C1249 0.961 . S
H1234 C1249 0.980 . S
H1235 C1249 0.939 1_655 S
H1236 C1250 0.960 1_655 S
H1237 C1250 0.961 . S
H1238 C1250 0.959 . S
H1239 C1253 0.929 . S
H1240 C1254 0.931 . S
H1241 C1256 0.930 . S
C1242 H1230 0.930 . S
C1242 C1243 1.399 . S
C1242 C1247 1.399 . S
C1243 C1242 1.399 . S
C1243 C1244 1.376 . S
C1244 H1231 0.930 . S
C1244 C1243 1.376 . S
C1244 C1245 1.388 . S
C1245 H1232 0.930 . S
C1245 C1244 1.388 . S
C1245 C1246 1.390 . S
C1246 C1245 1.390 . S
C1246 C1247 1.394 . S
C1246 C1252 1.465 1_655 S
C1247 C1242 1.399 . S
C1247 C1246 1.394 . S
C1247 C1248 1.500 1_655 S
C1248 C1247 1.500 1_455 S
C1248 C1249 1.502 . S
C1248 C1250 1.562 . S
C1248 C1251 1.542 . S
C1249 H1233 0.961 . S
C1249 H1234 0.980 . S
C1249 H1235 0.939 1_455 S
C1249 C1248 1.502 . S
C1250 H1236 0.960 1_455 S
C1250 H1237 0.961 . S
C1250 H1238 0.959 . S
C1250 C1248 1.562 . S
C1251 C1248 1.542 . S
C1251 C1252 1.396 . S
C1251 C1256 1.390 . S
C1252 C1246 1.465 1_455 S
C1252 C1251 1.396 . S
C1252 C1253 1.399 . S
C1253 H1239 0.929 . S
C1253 C1252 1.399 . S
C1253 C1254 1.385 . S
C1254 H1240 0.931 . S
C1254 C1253 1.385 . S
C1254 C1255 1.389 . S
C1255 C1254 1.389 . S
C1255 C1256 1.387 . S
C1256 H1241 0.930 . S
C1256 C1251 1.390 . S
C1256 C1255 1.387 . S
H1257 C1269 0.930 . S
H1258 C1271 0.930 . S
H1259 C1272 0.930 . S
H1260 C1276 0.959 . S
H1261 C1276 0.959 . S
H1262 C1276 0.961 1_655 S
H1263 C1277 0.959 1_655 S
H1264 C1277 0.962 . S
H1265 C1277 0.959 . S
H1266 C1280 0.929 . S
H1267 C1281 0.931 . S
H1268 C1283 0.930 . S
C1269 H1257 0.930 . S
C1269 C1270 1.399 . S
C1269 C1274 1.399 . S
C1270 C1269 1.399 . S
C1270 C1271 1.376 . S
C1271 H1258 0.930 . S
C1271 C1270 1.376 . S
C1271 C1272 1.388 . S
C1272 H1259 0.930 . S
C1272 C1271 1.388 . S
C1272 C1273 1.390 . S
C1273 C1272 1.390 . S
C1273 C1274 1.394 . S
C1273 C1279 1.465 1_655 S
C1274 C1269 1.399 . S
C1274 C1273 1.394 . S
C1274 C1275 1.499 1_655 S
C1275 C1274 1.499 1_455 S
C1275 C1276 1.503 . S
C1275 C1277 1.561 . S
C1275 C1278 1.543 . S
C1276 H1260 0.959 . S
C1276 H1261 0.959 . S
C1276 H1262 0.961 1_455 S
C1276 C1275 1.503 . S
C1277 H1263 0.959 1_455 S
C1277 H1264 0.962 . S
C1277 H1265 0.959 . S
C1277 C1275 1.561 . S
C1278 C1275 1.543 . S
C1278 C1279 1.396 . S
C1278 C1283 1.390 . S
C1279 C1273 1.465 1_455 S
C1279 C1278 1.396 . S
C1279 C1280 1.399 . S
C1280 H1266 0.929 . S
C1280 C1279 1.399 . S
C1280 C1281 1.385 . S
C1281 H1267 0.931 . S
C1281 C1280 1.385 . S
C1281 C1282 1.389 . S
C1282 C1281 1.389 . S
C1282 C1283 1.387 . S
C1283 H1268 0.930 . S
C1283 C1278 1.390 . S
C1283 C1282 1.387 . S
H1284 C1296 0.930 1_565 S
H1285 C1298 0.930 . S
H1286 C1299 0.930 . S
H1287 C1303 0.959 . S
H1288 C1303 0.959 . S
H1289 C1303 0.961 . S
H1290 C1304 0.960 . S
H1291 C1304 0.961 . S
H1292 C1304 0.959 . S
H1293 C1307 0.929 . S
H1294 C1308 0.931 . S
H1295 C1310 0.930 . S
C1296 H1284 0.930 1_545 S
C1296 C1297 1.399 . S
C1296 C1301 1.399 . S
C1297 C1296 1.399 . S
C1297 C1298 1.376 . S
C1298 H1285 0.930 . S
C1298 C1297 1.376 . S
C1298 C1299 1.388 . S
C1299 H1286 0.930 . S
C1299 C1298 1.388 . S
C1299 C1300 1.390 . S
C1300 C1299 1.390 . S
C1300 C1301 1.394 . S
C1300 C1306 1.465 . S
C1301 C1296 1.399 . S
C1301 C1300 1.394 . S
C1301 C1302 1.516 . S
C1302 C1301 1.516 . S
C1302 C1303 1.502 1_545 S
C1302 C1304 1.561 . S
C1302 C1305 1.526 . S
C1303 H1287 0.959 . S
C1303 H1288 0.959 . S
C1303 H1289 0.961 . S
C1303 C1302 1.502 1_565 S
C1304 H1290 0.960 . S
C1304 H1291 0.961 . S
C1304 H1292 0.959 . S
C1304 C1302 1.561 . S
C1305 C1302 1.526 . S
C1305 C1306 1.396 . S
C1305 C1310 1.390 . S
C1306 C1300 1.465 . S
C1306 C1305 1.396 . S
C1306 C1307 1.399 . S
C1307 H1293 0.929 . S
C1307 C1306 1.399 . S
C1307 C1308 1.385 . S
C1308 H1294 0.931 . S
C1308 C1307 1.385 . S
C1308 C1309 1.389 . S
C1309 C1308 1.389 . S
C1309 C1310 1.387 . S
C1310 H1295 0.930 . S
C1310 C1305 1.390 . S
C1310 C1309 1.387 . S
H1311 C1323 0.930 . S
H1312 C1325 0.930 . S
H1313 C1326 0.930 . S
H1314 C1330 0.959 . S
H1315 C1330 0.959 . S
H1316 C1330 0.961 . S
H1317 C1331 0.960 . S
H1318 C1331 0.961 . S
H1319 C1331 0.959 1_565 S
H1320 C1334 0.929 . S
H1321 C1335 0.931 . S
H1322 C1337 0.930 . S
C1323 H1311 0.930 . S
C1323 C1324 1.399 . S
C1323 C1328 1.399 . S
C1324 C1323 1.399 . S
C1324 C1325 1.376 1_545 S
C1325 H1312 0.930 . S
C1325 C1324 1.376 1_565 S
C1325 C1326 1.388 . S
C1326 H1313 0.930 . S
C1326 C1325 1.388 . S
C1326 C1327 1.390 1_565 S
C1327 C1326 1.390 1_545 S
C1327 C1328 1.394 . S
C1327 C1333 1.465 . S
C1328 C1323 1.399 . S
C1328 C1327 1.394 . S
C1328 C1329 1.516 . S
C1329 C1328 1.516 . S
C1329 C1330 1.502 . S
C1329 C1331 1.561 . S
C1329 C1332 1.526 . S
C1330 H1314 0.959 . S
C1330 H1315 0.959 . S
C1330 H1316 0.961 . S
C1330 C1329 1.502 . S
C1331 H1317 0.960 . S
C1331 H1318 0.961 . S
C1331 H1319 0.959 1_545 S
C1331 C1329 1.561 . S
C1332 C1329 1.526 . S
C1332 C1333 1.396 . S
C1332 C1337 1.390 . S
C1333 C1327 1.465 . S
C1333 C1332 1.396 . S
C1333 C1334 1.399 1_545 S
C1334 H1320 0.929 . S
C1334 C1333 1.399 1_565 S
C1334 C1335 1.385 . S
C1335 H1321 0.931 . S
C1335 C1334 1.385 . S
C1335 C1336 1.389 1_565 S
C1336 C1335 1.389 1_545 S
C1336 C1337 1.387 . S
C1337 H1322 0.930 . S
C1337 C1332 1.390 . S
C1337 C1336 1.387 . S
H1338 C1350 0.930 . S
H1339 C1352 0.930 . S
H1340 C1353 0.930 . S
H1341 C1357 0.959 . S
H1342 C1357 0.959 . S
H1343 C1357 0.961 . S
H1344 C1358 0.960 . S
H1345 C1358 0.961 . S
H1346 C1358 0.959 . S
H1347 C1361 0.929 . S
H1348 C1362 0.931 . S
H1349 C1364 0.930 . S
C1350 H1338 0.930 . S
C1350 C1351 1.399 . S
C1350 C1355 1.399 . S
C1351 C1350 1.399 . S
C1351 C1352 1.376 . S
C1352 H1339 0.930 . S
C1352 C1351 1.376 . S
C1352 C1353 1.388 . S
C1353 H1340 0.930 . S
C1353 C1352 1.388 . S
C1353 C1354 1.390 . S
C1354 C1353 1.390 . S
C1354 C1355 1.394 . S
C1354 C1360 1.465 . S
C1355 C1350 1.399 . S
C1355 C1354 1.394 . S
C1355 C1356 1.516 . S
C1356 C1355 1.516 . S
C1356 C1357 1.502 . S
C1356 C1358 1.561 . S
C1356 C1359 1.526 . S
C1357 H1341 0.959 . S
C1357 H1342 0.959 . S
C1357 H1343 0.961 . S
C1357 C1356 1.502 . S
C1358 H1344 0.960 . S
C1358 H1345 0.961 . S
C1358 H1346 0.959 . S
C1358 C1356 1.561 . S
C1359 C1356 1.526 . S
C1359 C1360 1.396 . S
C1359 C1364 1.390 . S
C1360 C1354 1.465 . S
C1360 C1359 1.396 . S
C1360 C1361 1.399 . S
C1361 H1347 0.929 . S
C1361 C1360 1.399 . S
C1361 C1362 1.385 . S
C1362 H1348 0.931 . S
C1362 C1361 1.385 . S
C1362 C1363 1.389 . S
C1363 C1362 1.389 . S
C1363 C1364 1.387 . S
C1364 H1349 0.930 . S
C1364 C1359 1.390 . S
C1364 C1363 1.387 . S
H1365 C1377 0.930 . S
H1366 C1379 0.930 . S
H1367 C1380 0.930 . S
H1368 C1384 0.959 . S
H1369 C1384 0.959 . S
H1370 C1384 0.961 . S
H1371 C1385 0.960 . S
H1372 C1385 0.961 . S
H1373 C1385 0.959 . S
H1374 C1388 0.929 . S
H1375 C1389 0.931 . S
H1376 C1391 0.930 . S
C1377 H1365 0.930 . S
C1377 C1378 1.399 . S
C1377 C1382 1.399 . S
C1378 C1377 1.399 . S
C1378 C1379 1.376 . S
C1379 H1366 0.930 . S
C1379 C1378 1.376 . S
C1379 C1380 1.388 . S
C1380 H1367 0.930 . S
C1380 C1379 1.388 . S
C1380 C1381 1.390 . S
C1381 C1380 1.390 . S
C1381 C1382 1.394 . S
C1381 C1387 1.465 . S
C1382 C1377 1.399 . S
C1382 C1381 1.394 . S
C1382 C1383 1.516 . S
C1383 C1382 1.516 . S
C1383 C1384 1.502 . S
C1383 C1385 1.561 . S
C1383 C1386 1.526 . S
C1384 H1368 0.959 . S
C1384 H1369 0.959 . S
C1384 H1370 0.961 . S
C1384 C1383 1.502 . S
C1385 H1371 0.960 . S
C1385 H1372 0.961 . S
C1385 H1373 0.959 . S
C1385 C1383 1.561 . S
C1386 C1383 1.526 . S
C1386 C1387 1.396 . S
C1386 C1391 1.390 . S
C1387 C1381 1.465 . S
C1387 C1386 1.396 . S
C1387 C1388 1.399 . S
C1388 H1374 0.929 . S
C1388 C1387 1.399 . S
C1388 C1389 1.385 . S
C1389 H1375 0.931 . S
C1389 C1388 1.385 . S
C1389 C1390 1.389 . S
C1390 C1389 1.389 . S
C1390 C1391 1.387 . S
C1391 H1376 0.930 . S
C1391 C1386 1.390 . S
C1391 C1390 1.387 . S
H1392 C1404 0.930 . S
H1393 C1406 0.930 . S
H1394 C1407 0.930 . S
H1395 C1411 0.959 . S
H1396 C1411 0.959 . S
H1397 C1411 0.961 1_556 S
H1398 C1412 0.923 1_556 S
H1399 C1412 0.996 . S
H1400 C1412 0.963 . S
H1401 C1415 0.929 . S
H1402 C1416 0.931 . S
H1403 C1418 0.930 . S
C1404 H1392 0.930 . S
C1404 C1405 1.399 . S
C1404 C1409 1.399 . S
C1405 C1404 1.399 . S
C1405 C1406 1.376 1_545 S
C1406 H1393 0.930 . S
C1406 C1405 1.376 1_565 S
C1406 C1407 1.388 . S
C1407 H1394 0.930 . S
C1407 C1406 1.388 . S
C1407 C1408 1.390 . S
C1408 C1407 1.390 . S
C1408 C1409 1.394 1_565 S
C1408 C1414 1.465 1_556 S
C1409 C1404 1.399 . S
C1409 C1408 1.394 1_545 S
C1409 C1410 1.497 1_556 S
C1410 C1409 1.497 1_554 S
C1410 C1411 1.503 . S
C1410 C1412 1.561 . S
C1410 C1413 1.545 . S
C1411 H1395 0.959 . S
C1411 H1396 0.959 . S
C1411 H1397 0.961 1_554 S
C1411 C1410 1.503 . S
C1412 H1398 0.923 1_554 S
C1412 H1399 0.996 . S
C1412 H1400 0.963 . S
C1412 C1410 1.561 . S
C1413 C1410 1.545 . S
C1413 C1414 1.396 1_545 S
C1413 C1418 1.390 . S
C1414 C1408 1.465 1_554 S
C1414 C1413 1.396 1_565 S
C1414 C1415 1.399 . S
C1415 H1401 0.929 . S
C1415 C1414 1.399 . S
C1415 C1416 1.385 . S
C1416 H1402 0.931 . S
C1416 C1415 1.385 . S
C1416 C1417 1.389 1_565 S
C1417 C1416 1.389 1_545 S
C1417 C1418 1.387 . S
C1418 H1403 0.930 . S
C1418 C1413 1.390 . S
C1418 C1417 1.387 . S
H1419 C1431 0.930 . S
H1420 C1433 0.930 . S
H1421 C1434 0.930 . S
H1422 C1438 0.965 . S
H1423 C1438 1.006 . S
H1424 C1438 0.912 1_556 S
H1425 C1439 0.920 1_556 S
H1426 C1439 0.999 . S
H1427 C1439 0.964 . S
H1428 C1442 0.929 . S
H1429 C1443 0.931 . S
H1430 C1445 0.930 . S
C1431 H1419 0.930 . S
C1431 C1432 1.399 1_565 S
C1431 C1436 1.399 . S
C1432 C1431 1.399 1_545 S
C1432 C1433 1.376 . S
C1433 H1420 0.930 . S
C1433 C1432 1.376 . S
C1433 C1434 1.388 . S
C1434 H1421 0.930 . S
C1434 C1433 1.388 . S
C1434 C1435 1.390 . S
C1435 C1434 1.390 . S
C1435 C1436 1.394 1_545 S
C1435 C1441 1.465 1_556 S
C1436 C1431 1.399 . S
C1436 C1435 1.394 1_565 S
C1436 C1437 1.498 1_556 S
C1437 C1436 1.498 1_554 S
C1437 C1438 1.501 . S
C1437 C1439 1.561 . S
C1437 C1440 1.544 1_565 S
C1438 H1422 0.965 . S
C1438 H1423 1.006 . S
C1438 H1424 0.912 1_554 S
C1438 C1437 1.501 . S
C1439 H1425 0.920 1_554 S
C1439 H1426 0.999 . S
C1439 H1427 0.964 . S
C1439 C1437 1.561 . S
C1440 C1437 1.544 1_545 S
C1440 C1441 1.395 . S
C1440 C1445 1.390 1_545 S
C1441 C1435 1.465 1_554 S
C1441 C1440 1.395 . S
C1441 C1442 1.399 . S
C1442 H1428 0.929 . S
C1442 C1441 1.399 . S
C1442 C1443 1.385 . S
C1443 H1429 0.931 . S
C1443 C1442 1.385 . S
C1443 C1444 1.389 . S
C1444 C1443 1.389 . S
C1444 C1445 1.387 1_545 S
C1445 H1430 0.930 . S
C1445 C1440 1.390 1_565 S
C1445 C1444 1.387 1_565 S
H1446 C1458 0.930 . S
H1447 C1460 0.930 . S
H1448 C1461 0.930 . S
H1449 C1465 0.959 . S
H1450 C1465 0.959 . S
H1451 C1465 0.961 . S
H1452 C1466 0.960 . S
H1453 C1466 0.961 . S
H1454 C1466 0.959 . S
H1455 C1469 0.929 . S
H1456 C1470 0.931 . S
H1457 C1472 0.930 . S
C1458 H1446 0.930 . S
C1458 C1459 1.399 . S
C1458 C1463 1.399 . S
C1459 C1458 1.399 . S
C1459 C1460 1.376 . S
C1460 H1447 0.930 . S
C1460 C1459 1.376 . S
C1460 C1461 1.388 . S
C1461 H1448 0.930 . S
C1461 C1460 1.388 . S
C1461 C1462 1.390 . S
C1462 C1461 1.390 . S
C1462 C1463 1.394 . S
C1462 C1468 1.465 . S
C1463 C1458 1.399 . S
C1463 C1462 1.394 . S
C1463 C1464 1.516 . S
C1464 C1463 1.516 . S
C1464 C1465 1.502 . S
C1464 C1466 1.561 . S
C1464 C1467 1.526 . S
C1465 H1449 0.959 . S
C1465 H1450 0.959 . S
C1465 H1451 0.961 . S
C1465 C1464 1.502 . S
C1466 H1452 0.960 . S
C1466 H1453 0.961 . S
C1466 H1454 0.959 . S
C1466 C1464 1.561 . S
C1467 C1464 1.526 . S
C1467 C1468 1.396 . S
C1467 C1472 1.390 . S
C1468 C1462 1.465 . S
C1468 C1467 1.396 . S
C1468 C1469 1.399 . S
C1469 H1455 0.929 . S
C1469 C1468 1.399 . S
C1469 C1470 1.385 . S
C1470 H1456 0.931 . S
C1470 C1469 1.385 . S
C1470 C1471 1.389 . S
C1471 C1470 1.389 . S
C1471 C1472 1.387 . S
C1472 H1457 0.930 . S
C1472 C1467 1.390 . S
C1472 C1471 1.387 . S
H1473 C1485 0.930 . S
H1474 C1487 0.930 . S
H1475 C1488 0.930 . S
H1476 C1492 0.959 . S
H1477 C1492 0.959 . S
H1478 C1492 0.961 . S
H1479 C1493 0.960 . S
H1480 C1493 0.961 . S
H1481 C1493 0.959 . S
H1482 C1496 0.929 . S
H1483 C1497 0.931 . S
H1484 C1499 0.930 . S
C1485 H1473 0.930 . S
C1485 C1486 1.399 . S
C1485 C1490 1.399 . S
C1486 C1485 1.399 . S
C1486 C1487 1.376 . S
C1487 H1474 0.930 . S
C1487 C1486 1.376 . S
C1487 C1488 1.388 . S
C1488 H1475 0.930 . S
C1488 C1487 1.388 . S
C1488 C1489 1.390 . S
C1489 C1488 1.390 . S
C1489 C1490 1.394 . S
C1489 C1495 1.465 . S
C1490 C1485 1.399 . S
C1490 C1489 1.394 . S
C1490 C1491 1.516 . S
C1491 C1490 1.516 . S
C1491 C1492 1.502 . S
C1491 C1493 1.561 . S
C1491 C1494 1.526 . S
C1492 H1476 0.959 . S
C1492 H1477 0.959 . S
C1492 H1478 0.961 . S
C1492 C1491 1.502 . S
C1493 H1479 0.960 . S
C1493 H1480 0.961 . S
C1493 H1481 0.959 . S
C1493 C1491 1.561 . S
C1494 C1491 1.526 . S
C1494 C1495 1.396 . S
C1494 C1499 1.390 . S
C1495 C1489 1.465 . S
C1495 C1494 1.396 . S
C1495 C1496 1.399 . S
C1496 H1482 0.929 . S
C1496 C1495 1.399 . S
C1496 C1497 1.385 . S
C1497 H1483 0.931 . S
C1497 C1496 1.385 . S
C1497 C1498 1.389 . S
C1498 C1497 1.389 . S
C1498 C1499 1.387 . S
C1499 H1484 0.930 . S
C1499 C1494 1.390 . S
C1499 C1498 1.387 . S
H1500 C1512 0.930 . S
H1501 C1514 0.930 . S
H1502 C1515 0.930 . S
H1503 C1519 0.979 . S
H1504 C1519 0.959 . S
H1505 C1519 0.961 . S
H1506 C1520 0.960 . S
H1507 C1520 0.961 . S
H1508 C1520 0.959 . S
H1509 C1523 0.929 . S
H1510 C1524 0.931 . S
H1511 C1526 0.930 . S
C1512 H1500 0.930 . S
C1512 C1513 1.399 1_565 S
C1512 C1517 1.398 1_565 S
C1513 C1512 1.399 1_545 S
C1513 C1514 1.376 . S
C1514 H1501 0.930 . S
C1514 C1513 1.376 . S
C1514 C1515 1.388 . S
C1515 H1502 0.930 . S
C1515 C1514 1.388 . S
C1515 C1516 1.390 . S
C1516 C1515 1.390 . S
C1516 C1517 1.399 . S
C1516 C1522 1.465 . S
C1517 C1512 1.398 1_545 S
C1517 C1516 1.399 . S
C1517 C1518 1.513 1_545 S
C1518 C1517 1.513 1_565 S
C1518 C1519 1.502 . S
C1518 C1520 1.561 . S
C1518 C1521 1.526 1_565 S
C1519 H1503 0.979 . S
C1519 H1504 0.959 . S
C1519 H1505 0.961 . S
C1519 C1518 1.502 . S
C1520 H1506 0.960 . S
C1520 H1507 0.961 . S
C1520 H1508 0.959 . S
C1520 C1518 1.561 . S
C1521 C1518 1.526 1_545 S
C1521 C1522 1.396 . S
C1521 C1526 1.390 1_545 S
C1522 C1516 1.465 . S
C1522 C1521 1.396 . S
C1522 C1523 1.399 . S
C1523 H1509 0.929 . S
C1523 C1522 1.399 . S
C1523 C1524 1.385 . S
C1524 H1510 0.931 . S
C1524 C1523 1.385 . S
C1524 C1525 1.389 . S
C1525 C1524 1.389 . S
C1525 C1526 1.387 1_545 S
C1526 H1511 0.930 . S
C1526 C1521 1.390 1_565 S
C1526 C1525 1.387 1_565 S
H1527 C1539 0.930 . S
H1528 C1541 0.930 . S
H1529 C1542 0.930 . S
H1530 C1546 0.959 . S
H1531 C1546 0.959 . S
H1532 C1546 0.961 . S
H1533 C1547 0.960 . S
H1534 C1547 0.961 . S
H1535 C1547 0.959 . S
H1536 C1550 0.929 . S
H1537 C1551 0.931 . S
H1538 C1553 0.930 . S
C1539 H1527 0.930 . S
C1539 C1540 1.399 1_565 S
C1539 C1544 1.399 . S
C1540 C1539 1.399 1_545 S
C1540 C1541 1.376 . S
C1541 H1528 0.930 . S
C1541 C1540 1.376 . S
C1541 C1542 1.388 . S
C1542 H1529 0.930 . S
C1542 C1541 1.388 . S
C1542 C1543 1.390 . S
C1543 C1542 1.390 . S
C1543 C1544 1.394 1_545 S
C1543 C1549 1.465 . S
C1544 C1539 1.399 . S
C1544 C1543 1.394 1_565 S
C1544 C1545 1.516 . S
C1545 C1544 1.516 . S
C1545 C1546 1.502 . S
C1545 C1547 1.561 . S
C1545 C1548 1.528 . S
C1546 H1530 0.959 . S
C1546 H1531 0.959 . S
C1546 H1532 0.961 . S
C1546 C1545 1.502 . S
C1547 H1533 0.960 . S
C1547 H1534 0.961 . S
C1547 H1535 0.959 . S
C1547 C1545 1.561 . S
C1548 C1545 1.528 . S
C1548 C1549 1.392 1_565 S
C1548 C1553 1.390 . S
C1549 C1543 1.465 . S
C1549 C1548 1.392 1_545 S
C1549 C1550 1.399 . S
C1550 H1536 0.929 . S
C1550 C1549 1.399 . S
C1550 C1551 1.385 . S
C1551 H1537 0.931 . S
C1551 C1550 1.385 . S
C1551 C1552 1.389 . S
C1552 C1551 1.389 . S
C1552 C1553 1.387 1_545 S
C1553 H1538 0.930 . S
C1553 C1548 1.390 . S
C1553 C1552 1.387 1_565 S
H1554 C1566 0.930 . S
H1555 C1568 0.930 . S
H1556 C1569 0.930 . S
H1557 C1573 0.959 . S
H1558 C1573 0.959 . S
H1559 C1573 0.961 1_554 S
H1560 C1574 0.934 1_554 S
H1561 C1574 0.986 . S
H1562 C1574 0.962 . S
H1563 C1577 0.929 . S
H1564 C1578 0.931 . S
H1565 C1580 0.930 . S
C1566 H1554 0.930 . S
C1566 C1567 1.399 . S
C1566 C1571 1.399 . S
C1567 C1566 1.399 . S
C1567 C1568 1.376 . S
C1568 H1555 0.930 . S
C1568 C1567 1.376 . S
C1568 C1569 1.388 . S
C1569 H1556 0.930 . S
C1569 C1568 1.388 . S
C1569 C1570 1.390 . S
C1570 C1569 1.390 . S
C1570 C1571 1.394 . S
C1570 C1576 1.465 1_554 S
C1571 C1566 1.399 . S
C1571 C1570 1.394 . S
C1571 C1572 1.499 1_554 S
C1572 C1571 1.499 1_556 S
C1572 C1573 1.503 . S
C1572 C1574 1.561 . S
C1572 C1575 1.543 . S
C1573 H1557 0.959 . S
C1573 H1558 0.959 . S
C1573 H1559 0.961 1_556 S
C1573 C1572 1.503 . S
C1574 H1560 0.934 1_556 S
C1574 H1561 0.986 . S
C1574 H1562 0.962 . S
C1574 C1572 1.561 . S
C1575 C1572 1.543 . S
C1575 C1576 1.396 . S
C1575 C1580 1.390 . S
C1576 C1570 1.465 1_556 S
C1576 C1575 1.396 . S
C1576 C1577 1.399 . S
C1577 H1563 0.929 . S
C1577 C1576 1.399 . S
C1577 C1578 1.385 . S
C1578 H1564 0.931 . S
C1578 C1577 1.385 . S
C1578 C1579 1.389 . S
C1579 C1578 1.389 . S
C1579 C1580 1.387 . S
C1580 H1565 0.930 . S
C1580 C1575 1.390 . S
C1580 C1579 1.387 . S
H1581 C1593 0.930 . S
H1582 C1595 0.930 . S
H1583 C1596 0.930 . S
H1584 C1600 0.964 . S
H1585 C1600 1.001 . S
H1586 C1600 0.917 1_556 S
H1587 C1601 0.919 1_556 S
H1588 C1601 1.000 . S
H1589 C1601 0.964 . S
H1590 C1604 0.929 . S
H1591 C1605 0.931 . S
H1592 C1607 0.930 . S
C1593 H1581 0.930 . S
C1593 C1594 1.399 . S
C1593 C1598 1.399 . S
C1594 C1593 1.399 . S
C1594 C1595 1.376 . S
C1595 H1582 0.930 . S
C1595 C1594 1.376 . S
C1595 C1596 1.388 . S
C1596 H1583 0.930 . S
C1596 C1595 1.388 . S
C1596 C1597 1.390 . S
C1597 C1596 1.390 . S
C1597 C1598 1.394 . S
C1597 C1603 1.465 1_556 S
C1598 C1593 1.399 . S
C1598 C1597 1.394 . S
C1598 C1599 1.499 1_556 S
C1599 C1598 1.499 1_554 S
C1599 C1600 1.501 . S
C1599 C1601 1.561 . S
C1599 C1602 1.542 . S
C1600 H1584 0.964 . S
C1600 H1585 1.001 . S
C1600 H1586 0.917 1_554 S
C1600 C1599 1.501 . S
C1601 H1587 0.919 1_554 S
C1601 H1588 1.000 . S
C1601 H1589 0.964 . S
C1601 C1599 1.561 . S
C1602 C1599 1.542 . S
C1602 C1603 1.396 . S
C1602 C1607 1.390 . S
C1603 C1597 1.465 1_554 S
C1603 C1602 1.396 . S
C1603 C1604 1.399 . S
C1604 H1590 0.929 . S
C1604 C1603 1.399 . S
C1604 C1605 1.385 . S
C1605 H1591 0.931 . S
C1605 C1604 1.385 . S
C1605 C1606 1.389 . S
C1606 C1605 1.389 . S
C1606 C1607 1.387 . S
C1607 H1592 0.930 . S
C1607 C1602 1.390 . S
C1607 C1606 1.387 . S
C541 N13 1.528 . S
C553 N376 1.514 . S
C568 N46 1.540 1_565 S
C580 N343 1.513 1_565 S
C595 N310 1.548 1_565 S
C607 N79 1.514 1_565 S
C622 N277 1.551 . S
C634 N112 1.586 . S
C649 N145 1.557 . S
C661 N508 1.587 . S
C676 N178 1.536 . S
C688 N475 1.513 . S
C703 N442 1.541 . S
C715 N211 1.513 . S
C730 N409 1.540 . S
C742 N244 1.513 . S
C757 C18 1.046 . S
C769 C447 1.019 . S
C784 C414 1.024 . S
C796 C51 1.026 . S
C811 C84 1.047 . S
C823 C513 1.018 . S
C838 C480 1.045 . S
C850 C117 1.021 . S
C865 C106 1.615 . S
C877 C469 1.633 . S
C892 C502 1.639 . S
C904 C73 1.624 . S
C919 C403 1.614 . S
C931 C40 1.634 . S
C946 C7 1.614 . S
C958 C436 1.633 . S
C973 C150 1.028 . S
C985 C315 1.038 . S
C1000 C183 1.012 . S
C1012 C282 1.040 . S
C1027 C216 1.010 . S
C1039 C381 1.050 . S
C1054 C249 1.045 . S
C1066 C348 1.020 . S
C1081 C238 1.629 . S
C1093 C337 1.635 . S
C1108 C205 1.614 . S
C1120 C370 1.634 . S
C1135 C172 1.619 . S
C1147 C271 1.626 . S
C1162 C139 1.617 . S
C1174 C304 1.630 . S
C1189 C54 1.480 . S
C1201 C21 1.480 . S
C1216 C87 1.490 . S
C1228 C120 1.492 . S
C1243 C186 1.480 . S
C1255 C153 1.480 . S
C1270 C252 1.489 . S
C1282 C219 1.491 . S
C1297 C318 1.490 . S
C1309 C285 1.492 . S
C1324 C384 1.490 . S
C1336 C351 1.492 . S
C1351 C417 1.491 . S
C1363 C450 1.492 . S
C1378 C516 1.492 . S
C1390 C483 1.493 . S
C1405 N68 1.455 . S
C1417 N2 1.518 . S
C1432 N101 1.464 . S
C1444 N35 1.517 . S
C1459 N134 1.499 . S
C1471 N200 1.441 . S
C1486 N233 1.486 . S
C1498 N167 1.507 . S
C1513 N266 1.474 . S
C1525 N332 1.514 . S
C1540 N365 1.462 . S
C1552 N299 1.517 . S
C1567 N398 1.443 . S
C1579 N464 1.514 . S
C1594 N497 1.471 . S
C1606 N431 1.515 . S
