# Generated by pormake.
# Topology dia, (4)-cn, num edge types: 1
# Building blocks:
#     Node 0, Type 0, BuildingBlock: CEKHIL_clean_sbu_0, # of connection points: 4
#     Node 1, Type 0, BuildingBlock: CEKHIL_clean_sbu_0, # of connection points: 4
#     Node 2, Type 0, BuildingBlock: CEKHIL_clean_sbu_0, # of connection points: 4
#     Node 3, Type 0, BuildingBlock: CEKHIL_clean_sbu_0, # of connection points: 4
#     Node 4, Type 0, BuildingBlock: CEKHIL_clean_sbu_0, # of connection points: 4
#     Node 5, Type 0, BuildingBlock: CEKHIL_clean_sbu_0, # of connection points: 4
#     Node 6, Type 0, BuildingBlock: CEKHIL_clean_sbu_0, # of connection points: 4
#     Node 7, Type 0, BuildingBlock: CEKHIL_clean_sbu_0, # of connection points: 4
#     Edge 8, Type (0, 0), BuildingBlock: CIFDUS_clean_linker_0, # of connection points: 2
#     Edge 9, Type (0, 0), BuildingBlock: CIFDUS_clean_linker_0, # of connection points: 2
#     Edge 10, Type (0, 0), BuildingBlock: CIFDUS_clean_linker_0, # of connection points: 2
#     Edge 11, Type (0, 0), BuildingBlock: CIFDUS_clean_linker_0, # of connection points: 2
#     Edge 12, Type (0, 0), BuildingBlock: CIFDUS_clean_linker_0, # of connection points: 2
#     Edge 13, Type (0, 0), BuildingBlock: CIFDUS_clean_linker_0, # of connection points: 2
#     Edge 14, Type (0, 0), BuildingBlock: CIFDUS_clean_linker_0, # of connection points: 2
#     Edge 15, Type (0, 0), BuildingBlock: CIFDUS_clean_linker_0, # of connection points: 2
#     Edge 16, Type (0, 0), BuildingBlock: CIFDUS_clean_linker_0, # of connection points: 2
#     Edge 17, Type (0, 0), BuildingBlock: CIFDUS_clean_linker_0, # of connection points: 2
#     Edge 18, Type (0, 0), BuildingBlock: CIFDUS_clean_linker_0, # of connection points: 2
#     Edge 19, Type (0, 0), BuildingBlock: CIFDUS_clean_linker_0, # of connection points: 2
#     Edge 20, Type (0, 0), BuildingBlock: CIFDUS_clean_linker_0, # of connection points: 2
#     Edge 21, Type (0, 0), BuildingBlock: CIFDUS_clean_linker_0, # of connection points: 2
#     Edge 22, Type (0, 0), BuildingBlock: CIFDUS_clean_linker_0, # of connection points: 2
#     Edge 23, Type (0, 0), BuildingBlock: CIFDUS_clean_linker_0, # of connection points: 2
# Relax obj value: 0.001
# Max RMSD: 0.018
# Mean RMSD: 0.018
data_MOF--net-dia--node1-CEKHIL_clean_sbu_0--edge1-CIFDUS_clean_linker_0
_symmetry_space_group_name_H-M    P1
_symmetry_Int_Tables_number       1
_symmetry_cell_setting            triclinic
loop_
_symmetry_equiv_pos_as_xyz
'x, y, z'
_cell_length_a     33.497431
_cell_length_b     33.328481
_cell_length_c     21.952215
_cell_angle_alpha  90.029507
_cell_angle_beta   90.242915
_cell_angle_gamma 91.484044
loop_
_atom_site_label
_atom_site_type_symbol
_atom_site_fract_x
_atom_site_fract_y
_atom_site_fract_z
_atom_type_partial_charge
Co0 Co 0.13917 0.14473 0.63205 0.0
O1 O 0.09829 0.18443 0.63443 0.0
O2 O 0.11667 0.14818 0.7134 0.0
C3 C 0.18332 0.18271 0.5797 0.0
O4 O 0.18153 0.10214 0.64699 0.0
Co5 Co 0.16924 0.11142 0.50771 0.0
O6 O 0.21139 0.08726 0.55837 0.0
C7 C 0.08883 0.08967 0.55345 0.0
C8 C 0.09391 0.17592 0.69165 0.0
C9 C 0.20882 0.08443 0.61615 0.0
O10 O 0.09809 0.10281 0.60699 0.0
O11 O 0.11155 0.09426 0.50708 0.0
O12 O 0.18076 0.18694 0.6385 0.0
O13 O 0.1577 0.1583 0.55514 0.0
Co14 Co 0.87229 0.38677 0.84846 0.0
O15 O 0.83224 0.42763 0.85205 0.0
O16 O 0.87016 0.41592 0.77225 0.0
C17 C 0.83372 0.33691 0.88882 0.0
O18 O 0.9151 0.34658 0.82578 0.0
Co19 Co 0.90558 0.34703 0.9642 0.0
O20 O 0.93222 0.31 0.90723 0.0
C21 C 0.93151 0.42967 0.93365 0.0
C22 C 0.84173 0.43649 0.7963 0.0
C23 C 0.93433 0.31767 0.85045 0.0
O24 O 0.91412 0.42597 0.88144 0.0
O25 O 0.92859 0.40293 0.97538 0.0
O26 O 0.83108 0.34585 0.83137 0.0
O27 O 0.85706 0.36023 0.92082 0.0
Co28 Co 0.64136 0.15834 0.13246 0.0
O29 O 0.60229 0.19945 0.12344 0.0
O30 O 0.61074 0.16532 0.20796 0.0
C31 C 0.69196 0.19505 0.0902 0.0
O32 O 0.68124 0.11418 0.1562 0.0
Co33 Co 0.67598 0.12368 0.01343 0.0
O34 O 0.71487 0.09996 0.07041 0.0
C35 C 0.59537 0.09803 0.05157 0.0
C36 C 0.59171 0.19334 0.17921 0.0
C37 C 0.70975 0.09638 0.12774 0.0
O38 O 0.6011 0.11645 0.10256 0.0
O39 O 0.62024 0.10017 0.00747 0.0
O40 O 0.68324 0.19909 0.1474 0.0
O41 O 0.6676 0.17203 0.05957 0.0
Co42 Co 0.86619 0.8838 0.36938 0.0
O43 O 0.82643 0.92418 0.37877 0.0
O44 O 0.85662 0.91209 0.29217 0.0
C45 C 0.83107 0.83664 0.42096 0.0
O46 O 0.9082 0.84184 0.3448 0.0
Co47 Co 0.90488 0.84899 0.48783 0.0
O48 O 0.92394 0.80802 0.43038 0.0
C49 C 0.92472 0.93131 0.44663 0.0
C50 C 0.83032 0.93271 0.3217 0.0
C51 C 0.92544 0.8125 0.37271 0.0
O52 O 0.90907 0.9241 0.39393 0.0
O53 O 0.92228 0.90678 0.4914 0.0
O54 O 0.82389 0.8421 0.3633 0.0
O55 O 0.85665 0.86122 0.44507 0.0
Co56 Co 0.13519 0.65211 0.13648 0.0
O57 O 0.09644 0.6933 0.12643 0.0
O58 O 0.1018 0.6573 0.20975 0.0
C59 C 0.18695 0.69012 0.101 0.0
O60 O 0.1748 0.60773 0.16044 0.0
Co61 Co 0.1739 0.62138 0.01766 0.0
O62 O 0.21171 0.59766 0.07631 0.0
C63 C 0.09238 0.59407 0.04794 0.0
C64 C 0.08408 0.68623 0.18103 0.0
C65 C 0.20494 0.59206 0.13287 0.0
O66 O 0.09631 0.61085 0.10061 0.0
O67 O 0.11862 0.59779 0.00595 0.0
O68 O 0.17614 0.69261 0.15753 0.0
O69 O 0.16384 0.66793 0.067 0.0
Co70 Co 0.36847 0.38327 0.37055 0.0
O71 O 0.32581 0.42055 0.37921 0.0
O72 O 0.35784 0.41113 0.29331 0.0
C73 C 0.33622 0.33348 0.42069 0.0
O74 O 0.41366 0.34445 0.34715 0.0
Co75 Co 0.40805 0.35221 0.49068 0.0
O76 O 0.43166 0.3133 0.43401 0.0
C77 C 0.42222 0.4353 0.44927 0.0
C78 C 0.32979 0.42965 0.32238 0.0
C79 C 0.43321 0.31713 0.37621 0.0
O80 O 0.4082 0.42641 0.39613 0.0
O81 O 0.42066 0.41114 0.49456 0.0
O82 O 0.32926 0.33881 0.36295 0.0
O83 O 0.35956 0.35981 0.4458 0.0
Co84 Co 0.36904 0.88848 0.8765 0.0
O85 O 0.32875 0.92819 0.88245 0.0
O86 O 0.36519 0.91879 0.80046 0.0
C87 C 0.33126 0.83769 0.91542 0.0
O88 O 0.41252 0.84823 0.85554 0.0
Co89 Co 0.40028 0.85294 0.99733 0.0
O90 O 0.42458 0.81371 0.9416 0.0
C91 C 0.42819 0.93349 0.96068 0.0
C92 C 0.33679 0.93831 0.82693 0.0
C93 C 0.42917 0.81922 0.88452 0.0
O94 O 0.41042 0.92823 0.90908 0.0
O95 O 0.42505 0.90836 0.0046 0.0
O96 O 0.32866 0.84712 0.85823 0.0
O97 O 0.35325 0.86182 0.94826 0.0
Co98 Co 0.62772 0.65657 0.63422 0.0
O99 O 0.58908 0.69782 0.62294 0.0
O100 O 0.60046 0.66735 0.71039 0.0
C101 C 0.67637 0.68892 0.58242 0.0
O102 O 0.66672 0.6137 0.66314 0.0
Co103 Co 0.66343 0.61281 0.5219 0.0
O104 O 0.70118 0.59131 0.58266 0.0
C105 C 0.57964 0.59805 0.55854 0.0
C106 C 0.58075 0.69415 0.68027 0.0
C107 C 0.69492 0.59284 0.63986 0.0
O108 O 0.58637 0.6146 0.61069 0.0
O109 O 0.60518 0.59826 0.51529 0.0
O110 O 0.67063 0.69744 0.63953 0.0
O111 O 0.65141 0.66352 0.55857 0.0
H112 H 0.28319 0.27616 0.38177 0.0
H113 H 0.34343 0.3218 0.54261 0.0
H114 H 0.30288 0.27731 0.60662 0.0
H115 H 0.24613 0.22974 0.61765 0.0
H116 H 0.18632 0.18399 0.45645 0.0
H117 H 0.23089 0.22398 0.39212 0.0
C118 C 0.28776 0.27592 0.43072 0.0
C119 C 0.31575 0.30248 0.45747 0.0
C120 C 0.26415 0.25052 0.46739 0.0
C121 C 0.32172 0.30175 0.52093 0.0
C122 C 0.29849 0.27643 0.55768 0.0
C123 C 0.24314 0.22836 0.56847 0.0
C124 C 0.21277 0.20448 0.54192 0.0
C125 C 0.2689 0.25144 0.53154 0.0
C126 C 0.2094 0.20246 0.47808 0.0
C127 C 0.23483 0.22532 0.44113 0.0
H128 H 0.76148 0.55282 0.60782 0.0
H129 H 0.68596 0.57608 0.76211 0.0
H130 H 0.72557 0.53101 0.82474 0.0
H131 H 0.77999 0.48246 0.83427 0.0
H132 H 0.85455 0.45963 0.67877 0.0
H133 H 0.8169 0.5071 0.61823 0.0
C134 C 0.75357 0.54827 0.65522 0.0
C135 C 0.7204 0.56779 0.67988 0.0
C136 C 0.7763 0.52219 0.6908 0.0
C137 C 0.71118 0.56157 0.74167 0.0
C138 C 0.7338 0.53565 0.77753 0.0
C139 C 0.78816 0.48806 0.78723 0.0
C140 C 0.82005 0.46727 0.7611 0.0
C141 C 0.76616 0.51542 0.75238 0.0
C142 C 0.83019 0.47502 0.70011 0.0
C143 C 0.80861 0.50218 0.66537 0.0
H144 H 0.55983 0.07203 0.94643 0.0
H145 H 0.55118 0.06259 0.14202 0.0
H146 H 0.49739 0.01215 0.1314 0.0
H147 H 0.45589 0.96737 0.06648 0.0
H148 H 0.46309 0.97866 0.8709 0.0
H149 H 0.51402 0.03184 0.88174 0.0
C150 C 0.54598 0.05916 0.98676 0.0
C151 C 0.55986 0.0708 0.04491 0.0
C152 C 0.51486 0.03034 0.98036 0.0
C153 C 0.54115 0.05422 0.09668 0.0
C154 C 0.51047 0.02521 0.09067 0.0
C155 C 0.46839 0.98166 0.02623 0.0
C156 C 0.45592 0.96866 0.96797 0.0
C157 C 0.49757 0.01251 0.03273 0.0
C158 C 0.47207 0.98796 0.91633 0.0
C159 C 0.50137 0.01832 0.92244 0.0
H160 H 0.96134 0.81909 0.25948 0.0
H161 H 0.94585 0.73832 0.41167 0.0
H162 H 0.99264 0.69229 0.36729 0.0
H163 H 0.04142 0.67566 0.28763 0.0
H164 H 0.05602 0.75551 0.1343 0.0
H165 H 1.00696 0.80025 0.17638 0.0
C166 C 0.96773 0.79118 0.28246 0.0
C167 C 0.9501 0.78277 0.33932 0.0
C168 C 0.99521 0.7644 0.25672 0.0
C169 C 0.95911 0.74622 0.36824 0.0
C170 C 0.98607 0.71963 0.34292 0.0
C171 C 0.03377 0.70276 0.2634 0.0
C172 C 0.05279 0.71202 0.20797 0.0
C173 C 1.00496 0.72862 0.28769 0.0
C174 C 0.04208 0.74731 0.17711 0.0
C175 C 0.01387 0.77316 0.20115 0.0
H176 H 0.33829 0.96182 0.70684 0.0
H177 H 0.28093 0.9849 0.87855 0.0
H178 H 0.23744 0.03268 0.82982 0.0
H179 H 0.21327 0.06624 0.7378 0.0
H180 H 0.27019 0.04332 0.56557 0.0
H181 H 0.31581 0.99781 0.615 0.0
C182 C 0.31652 0.97757 0.73359 0.0
C183 C 0.31293 0.9695 0.79624 0.0
C184 C 0.29112 1.00512 0.70513 0.0
C185 C 0.28441 0.99024 0.83017 0.0
C186 C 0.25936 0.01768 0.80235 0.0
C187 C 0.23574 0.0515 0.71104 0.0
C188 C 0.23783 0.05826 0.64785 0.0
C189 C 0.26206 0.02505 0.73972 0.0
C190 C 0.26745 0.03876 0.61423 0.0
C191 C 0.29373 0.01258 0.64246 0.0
H192 H 0.95471 0.46119 0.04312 0.0
H193 H 0.96862 0.47781 0.84933 0.0
H194 H 0.01817 0.53161 0.86754 0.0
H195 H 0.06093 0.57071 0.93843 0.0
H196 H 0.04535 0.55567 0.13223 0.0
H197 H 0.99287 0.50479 0.114 0.0
C198 C 0.96837 0.47676 0.00485 0.0
C199 C 0.95826 0.46512 0.94493 0.0
C200 C 0.99666 0.5079 0.01563 0.0
C201 C 0.97582 0.48608 0.8959 0.0
C202 C 1.00431 0.51677 0.90627 0.0
C203 C 0.04584 0.55653 0.9767 0.0
C204 C 0.05743 0.56673 0.03662 0.0
C205 C 0.01549 0.52743 0.96592 0.0
C206 C 0.03711 0.54845 0.08565 0.0
C207 C 1.00719 0.51918 0.07528 0.0
H208 H 0.46224 0.31989 0.25769 0.0
H209 H 0.46568 0.24963 0.42284 0.0
H210 H 0.51392 0.20565 0.37801 0.0
H211 H 0.55783 0.18738 0.29321 0.0
H212 H 0.55419 0.25631 0.12717 0.0
H213 H 0.50415 0.29952 0.17062 0.0
C214 C 0.47322 0.29477 0.28365 0.0
C215 C 0.46018 0.28879 0.34401 0.0
C216 C 0.50152 0.26899 0.25749 0.0
C217 C 0.47511 0.25575 0.37657 0.0
C218 C 0.50293 0.23026 0.35096 0.0
C219 C 0.54602 0.21176 0.2665 0.0
C220 C 0.56017 0.21843 0.20705 0.0
C221 C 0.51682 0.23675 0.29173 0.0
C222 C 0.54416 0.25025 0.17317 0.0
C223 C 0.51536 0.27518 0.19799 0.0
H224 H 0.77969 0.77724 0.38326 0.0
H225 H 0.83436 0.82984 0.54387 0.0
H226 H 0.79313 0.7867 0.60877 0.0
H227 H 0.73736 0.73819 0.62015 0.0
H228 H 0.68367 0.68446 0.45966 0.0
H229 H 0.72883 0.72347 0.39478 0.0
C230 C 0.7828 0.77886 0.43241 0.0
C231 C 0.80948 0.80696 0.45871 0.0
C232 C 0.75903 0.75394 0.46964 0.0
C233 C 0.81372 0.80856 0.52247 0.0
C234 C 0.79011 0.78399 0.55974 0.0
C235 C 0.73591 0.73478 0.57104 0.0
C236 C 0.70698 0.70905 0.54473 0.0
C237 C 0.762 0.75724 0.53386 0.0
C238 C 0.70561 0.70439 0.48104 0.0
C239 C 0.73134 0.72673 0.44379 0.0
H240 H 0.19588 0.55136 0.24261 0.0
H241 H 0.27877 0.57137 0.09492 0.0
H242 H 0.32365 0.52293 0.13797 0.0
H243 H 0.33973 0.47278 0.21626 0.0
H244 H 0.25853 0.45381 0.36593 0.0
H245 H 0.21346 0.50298 0.32367 0.0
C246 C 0.22391 0.54545 0.22023 0.0
C247 C 0.23332 0.56508 0.16509 0.0
C248 C 0.25019 0.51708 0.24535 0.0
C249 C 0.27005 0.55667 0.13698 0.0
C250 C 0.29603 0.52876 0.16156 0.0
C251 C 0.31212 0.47931 0.23944 0.0
C252 C 0.30265 0.4593 0.29405 0.0
C253 C 0.28631 0.50832 0.21532 0.0
C254 C 0.26681 0.46864 0.32377 0.0
C255 C 0.24085 0.49691 0.29966 0.0
H256 H 0.82747 0.31818 0.00899 0.0
H257 H 0.78382 0.283 0.83114 0.0
H258 H 0.73824 0.23349 0.87749 0.0
H259 H 0.70736 0.20353 0.96902 0.0
H260 H 0.74953 0.24068 0.1468 0.0
H261 H 0.79921 0.28571 0.10008 0.0
C262 C 0.80826 0.29942 0.98033 0.0
C263 C 0.80887 0.30447 0.91673 0.0
C264 C 0.78168 0.27142 0.00733 0.0
C265 C 0.78381 0.27987 0.88025 0.0
C266 C 0.75768 0.25156 0.90673 0.0
C267 C 0.72774 0.22114 0.99749 0.0
C268 C 0.72458 0.21892 0.06129 0.0
C269 C 0.75584 0.24756 0.97028 0.0
C270 C 0.75118 0.24198 0.09756 0.0
C271 C 0.77958 0.2678 0.07089 0.0
H272 H 0.83898 0.97086 0.21091 0.0
H273 H 0.76389 0.96529 0.36989 0.0
H274 H 0.72101 0.0161 0.3269 0.0
H275 H 0.7032 0.06174 0.24244 0.0
H276 H 0.77985 0.06818 0.08488 0.0
H277 H 0.82304 0.01854 0.12894 0.0
C278 C 0.81323 0.98073 0.23606 0.0
C279 C 0.8048 0.96391 0.29348 0.0
C280 C 0.78863 1.0106 0.21133 0.0
C281 C 0.77135 0.97754 0.32555 0.0
C282 C 0.74663 1.00675 0.301 0.0
C283 C 0.72955 0.05264 0.21805 0.0
C284 C 0.73764 0.06884 0.15996 0.0
C285 C 0.75481 0.02357 0.24375 0.0
C286 C 0.77218 0.05627 0.12934 0.0
C287 C 0.79718 0.02765 0.15449 0.0
H288 H 0.94603 0.96489 0.55442 0.0
H289 H 0.95813 0.98064 0.36001 0.0
H290 H 1.00721 0.03508 0.37693 0.0
H291 H 0.05211 0.07189 0.44642 0.0
H292 H 0.04164 0.05431 0.64074 0.0
H293 H 0.98582 1.00689 0.62419 0.0
C294 C 0.95913 0.98043 0.51565 0.0
C295 C 0.94918 0.9682 0.45602 0.0
C296 C 0.9877 1.01104 0.52569 0.0
C297 C 0.96559 0.98928 0.40634 0.0
C298 C 0.99376 0.02024 0.41599 0.0
C299 C 0.03746 0.05794 0.48528 0.0
C300 C 0.05155 0.06588 0.54468 0.0
C301 C 1.00594 0.03036 0.47541 0.0
C302 C 0.0316 0.04839 0.59455 0.0
C303 C 0.99981 0.02119 0.58511 0.0
H304 H 0.98178 0.25609 0.88622 0.0
H305 H 0.94764 0.32407 0.72766 0.0
H306 H 0.99317 0.28584 0.66514 0.0
H307 H 0.04374 0.23422 0.65542 0.0
H308 H 0.07847 0.16636 0.81348 0.0
H309 H 0.03159 0.20343 0.87604 0.0
C310 C 0.9841 0.26255 0.83794 0.0
C311 C 0.96113 0.29319 0.81198 0.0
C312 C 0.01057 0.2405 0.80206 0.0
C313 C 0.96479 0.30086 0.7492 0.0
C314 C 0.99092 0.27898 0.71327 0.0
C315 C 0.04105 0.2274 0.70355 0.0
C316 C 0.06474 0.19752 0.72968 0.0
C317 C 0.01412 0.24892 0.73925 0.0
C318 C 0.0607 0.18917 0.79213 0.0
C319 C 0.03388 0.2104 0.82795 0.0
H320 H 0.55129 0.68966 0.79592 0.0
H321 H 0.54254 0.75716 0.62903 0.0
H322 H 0.49431 0.80119 0.67587 0.0
H323 H 0.45535 0.82183 0.76551 0.0
H324 H 0.46414 0.75303 0.93162 0.0
H325 H 0.51095 0.70869 0.88382 0.0
C326 C 0.53879 0.71395 0.76977 0.0
C327 C 0.55072 0.72006 0.70915 0.0
C328 C 0.51084 0.7392 0.7969 0.0
C329 C 0.53398 0.75165 0.67587 0.0
C330 C 0.50633 0.77697 0.70263 0.0
C331 C 0.46731 0.79703 0.79115 0.0
C332 C 0.45613 0.79128 0.85237 0.0
C333 C 0.4946 0.7712 0.7633 0.0
C334 C 0.47212 0.75873 0.8846 0.0
C335 C 0.49907 0.73312 0.85731 0.0
H336 H 0.20863 0.69855 0.98251 0.0
H337 H 0.23997 0.73762 0.1643 0.0
H338 H 0.29014 0.78458 0.12321 0.0
H339 H 0.32111 0.81863 0.03512 0.0
H340 H 0.28786 0.78094 0.85338 0.0
H341 H 0.24281 0.7293 0.89488 0.0
C342 C 0.22678 0.71699 0.01314 0.0
C343 C 0.22035 0.71487 0.07627 0.0
C344 C 0.2551 0.74444 0.98917 0.0
C345 C 0.24416 0.73888 0.11543 0.0
C346 C 0.27282 0.76582 0.09199 0.0
C347 C 0.30435 0.79879 0.00468 0.0
C348 C 0.30754 0.80386 0.94132 0.0
C349 C 0.27794 0.7695 0.02886 0.0
C350 C 0.2857 0.77788 0.90239 0.0
C351 C 0.25988 0.74833 0.92605 0.0
H352 H 0.43783 0.47275 0.55633 0.0
H353 H 0.45616 0.48387 0.36239 0.0
H354 H 0.50322 0.53998 0.37964 0.0
H355 H 0.54583 0.57868 0.4502 0.0
H356 H 0.52919 0.56594 0.64425 0.0
H357 H 0.4741 0.5178 0.62643 0.0
C358 C 0.45177 0.48775 0.51774 0.0
C359 C 0.44436 0.47361 0.45827 0.0
C360 C 0.47921 0.51936 0.52804 0.0
C361 C 0.46172 0.49397 0.40864 0.0
C362 C 0.48876 0.52588 0.41848 0.0
C363 C 0.52986 0.5657 0.48863 0.0
C364 C 0.54211 0.575 0.54845 0.0
C365 C 0.49883 0.53768 0.47807 0.0
C366 C 0.52053 0.55889 0.59778 0.0
C367 C 0.4892 0.53126 0.58763 0.0
loop_
_geom_bond_atom_site_label_1
_geom_bond_atom_site_label_2
_geom_bond_distance
_geom_bond_site_symmetry_2
_ccdc_geom_bond_type
Co0 O1 2.216 . S
Co0 O2 2.091 . S
Co0 O4 2.004 . S
Co0 O10 2.021 . S
Co0 O12 2.137 . S
Co0 O13 2.244 . S
O1 Co0 2.216 . S
O1 C8 1.247 . S
O2 Co0 2.091 . S
O2 C8 1.261 . S
C3 O12 1.247 . S
C3 O13 1.272 . S
O4 Co0 2.004 . S
O4 C9 1.259 . S
Co5 O6 2.061 . S
Co5 O11 2.052 . S
Co5 O13 2.135 . S
O6 Co5 2.061 . S
O6 C9 1.235 . S
C7 O10 1.238 . S
C7 O11 1.241 . S
C8 O1 1.247 . S
C8 O2 1.261 . S
C9 O4 1.259 . S
C9 O6 1.235 . S
O10 Co0 2.021 . S
O10 C7 1.238 . S
O11 Co5 2.052 . S
O11 C7 1.241 . S
O12 Co0 2.137 . S
O12 C3 1.247 . S
O13 Co0 2.244 . S
O13 C3 1.272 . S
O13 Co5 2.135 . S
Co14 O15 2.216 . S
Co14 O16 2.091 . S
Co14 O18 2.004 . S
Co14 O24 2.021 . S
Co14 O26 2.137 . S
Co14 O27 2.244 . S
O15 Co14 2.216 . S
O15 C22 1.247 . S
O16 Co14 2.091 . S
O16 C22 1.261 . S
C17 O26 1.247 . S
C17 O27 1.272 . S
O18 Co14 2.004 . S
O18 C23 1.259 . S
Co19 O20 2.061 . S
Co19 O25 2.052 . S
Co19 O27 2.135 . S
O20 Co19 2.061 . S
O20 C23 1.235 . S
C21 O24 1.238 . S
C21 O25 1.241 . S
C22 O15 1.247 . S
C22 O16 1.261 . S
C23 O18 1.259 . S
C23 O20 1.235 . S
O24 Co14 2.021 . S
O24 C21 1.238 . S
O25 Co19 2.052 . S
O25 C21 1.241 . S
O26 Co14 2.137 . S
O26 C17 1.247 . S
O27 Co14 2.244 . S
O27 C17 1.272 . S
O27 Co19 2.135 . S
Co28 O29 2.216 . S
Co28 O30 2.091 . S
Co28 O32 2.004 . S
Co28 O38 2.021 . S
Co28 O40 2.137 . S
Co28 O41 2.244 . S
O29 Co28 2.216 . S
O29 C36 1.247 . S
O30 Co28 2.091 . S
O30 C36 1.261 . S
C31 O40 1.247 . S
C31 O41 1.272 . S
O32 Co28 2.004 . S
O32 C37 1.259 . S
Co33 O34 2.061 . S
Co33 O39 2.052 . S
Co33 O41 2.135 . S
O34 Co33 2.061 . S
O34 C37 1.235 . S
C35 O38 1.238 . S
C35 O39 1.241 . S
C36 O29 1.247 . S
C36 O30 1.261 . S
C37 O32 1.259 . S
C37 O34 1.235 . S
O38 Co28 2.021 . S
O38 C35 1.238 . S
O39 Co33 2.052 . S
O39 C35 1.241 . S
O40 Co28 2.137 . S
O40 C31 1.247 . S
O41 Co28 2.244 . S
O41 C31 1.272 . S
O41 Co33 2.135 . S
Co42 O43 2.216 . S
Co42 O44 2.091 . S
Co42 O46 2.004 . S
Co42 O52 2.021 . S
Co42 O54 2.137 . S
Co42 O55 2.244 . S
O43 Co42 2.216 . S
O43 C50 1.247 . S
O44 Co42 2.091 . S
O44 C50 1.261 . S
C45 O54 1.247 . S
C45 O55 1.272 . S
O46 Co42 2.004 . S
O46 C51 1.259 . S
Co47 O48 2.061 . S
Co47 O53 2.052 . S
Co47 O55 2.135 . S
O48 Co47 2.061 . S
O48 C51 1.235 . S
C49 O52 1.238 . S
C49 O53 1.241 . S
C50 O43 1.247 . S
C50 O44 1.261 . S
C51 O46 1.259 . S
C51 O48 1.235 . S
O52 Co42 2.021 . S
O52 C49 1.238 . S
O53 Co47 2.052 . S
O53 C49 1.241 . S
O54 Co42 2.137 . S
O54 C45 1.247 . S
O55 Co42 2.244 . S
O55 C45 1.272 . S
O55 Co47 2.135 . S
Co56 O57 2.216 . S
Co56 O58 2.091 . S
Co56 O60 2.004 . S
Co56 O66 2.021 . S
Co56 O68 2.137 . S
Co56 O69 2.244 . S
O57 Co56 2.216 . S
O57 C64 1.247 . S
O58 Co56 2.091 . S
O58 C64 1.261 . S
C59 O68 1.247 . S
C59 O69 1.272 . S
O60 Co56 2.004 . S
O60 C65 1.259 . S
Co61 O62 2.061 . S
Co61 O67 2.052 . S
Co61 O69 2.135 . S
O62 Co61 2.061 . S
O62 C65 1.235 . S
C63 O66 1.238 . S
C63 O67 1.241 . S
C64 O57 1.247 . S
C64 O58 1.261 . S
C65 O60 1.259 . S
C65 O62 1.235 . S
O66 Co56 2.021 . S
O66 C63 1.238 . S
O67 Co61 2.052 . S
O67 C63 1.241 . S
O68 Co56 2.137 . S
O68 C59 1.247 . S
O69 Co56 2.244 . S
O69 C59 1.272 . S
O69 Co61 2.135 . S
Co70 O71 2.216 . S
Co70 O72 2.091 . S
Co70 O74 2.004 . S
Co70 O80 2.021 . S
Co70 O82 2.137 . S
Co70 O83 2.244 . S
O71 Co70 2.216 . S
O71 C78 1.247 . S
O72 Co70 2.091 . S
O72 C78 1.261 . S
C73 O82 1.247 . S
C73 O83 1.272 . S
O74 Co70 2.004 . S
O74 C79 1.259 . S
Co75 O76 2.061 . S
Co75 O81 2.052 . S
Co75 O83 2.135 . S
O76 Co75 2.061 . S
O76 C79 1.235 . S
C77 O80 1.238 . S
C77 O81 1.241 . S
C78 O71 1.247 . S
C78 O72 1.261 . S
C79 O74 1.259 . S
C79 O76 1.235 . S
O80 Co70 2.021 . S
O80 C77 1.238 . S
O81 Co75 2.052 . S
O81 C77 1.241 . S
O82 Co70 2.137 . S
O82 C73 1.247 . S
O83 Co70 2.244 . S
O83 C73 1.272 . S
O83 Co75 2.135 . S
Co84 O85 2.216 . S
Co84 O86 2.091 . S
Co84 O88 2.004 . S
Co84 O94 2.021 . S
Co84 O96 2.137 . S
Co84 O97 2.244 . S
O85 Co84 2.216 . S
O85 C92 1.247 . S
O86 Co84 2.091 . S
O86 C92 1.261 . S
C87 O96 1.247 . S
C87 O97 1.272 . S
O88 Co84 2.004 . S
O88 C93 1.259 . S
Co89 O90 2.061 . S
Co89 O95 2.052 . S
Co89 O97 2.135 . S
O90 Co89 2.061 . S
O90 C93 1.235 . S
C91 O94 1.238 . S
C91 O95 1.241 . S
C92 O85 1.247 . S
C92 O86 1.261 . S
C93 O88 1.259 . S
C93 O90 1.235 . S
O94 Co84 2.021 . S
O94 C91 1.238 . S
O95 Co89 2.052 . S
O95 C91 1.241 . S
O96 Co84 2.137 . S
O96 C87 1.247 . S
O97 Co84 2.244 . S
O97 C87 1.272 . S
O97 Co89 2.135 . S
Co98 O99 2.216 . S
Co98 O100 2.091 . S
Co98 O102 2.004 . S
Co98 O108 2.021 . S
Co98 O110 2.137 . S
Co98 O111 2.244 . S
O99 Co98 2.216 . S
O99 C106 1.247 . S
O100 Co98 2.091 . S
O100 C106 1.261 . S
C101 O110 1.247 . S
C101 O111 1.272 . S
O102 Co98 2.004 . S
O102 C107 1.259 . S
Co103 O104 2.061 . S
Co103 O109 2.052 . S
Co103 O111 2.135 . S
O104 Co103 2.061 . S
O104 C107 1.235 . S
C105 O108 1.238 . S
C105 O109 1.241 . S
C106 O99 1.247 . S
C106 O100 1.261 . S
C107 O102 1.259 . S
C107 O104 1.235 . S
O108 Co98 2.021 . S
O108 C105 1.238 . S
O109 Co103 2.052 . S
O109 C105 1.241 . S
O110 Co98 2.137 . S
O110 C101 1.247 . S
O111 Co98 2.244 . S
O111 C101 1.272 . S
O111 Co103 2.135 . S
H112 C118 0.930 . S
H113 C121 0.930 . S
H114 C122 0.930 . S
H115 C123 0.930 . S
H116 C126 0.930 . S
H117 C127 0.930 . S
C118 H112 0.930 . S
C118 C119 1.355 . S
C118 C120 1.415 . S
C119 C118 1.355 . S
C119 C121 1.419 . S
C120 C118 1.415 . S
C120 C125 1.425 . S
C120 C127 1.409 . S
C121 H113 0.930 . S
C121 C119 1.419 . S
C121 C122 1.362 . S
C122 H114 0.930 . S
C122 C121 1.362 . S
C122 C125 1.409 . S
C123 H115 0.930 . S
C123 C124 1.355 . S
C123 C125 1.415 . S
C124 C123 1.355 . S
C124 C126 1.419 . S
C125 C120 1.425 . S
C125 C122 1.409 . S
C125 C123 1.415 . S
C126 H116 0.930 . S
C126 C124 1.419 . S
C126 C127 1.362 . S
C127 H117 0.930 . S
C127 C120 1.409 . S
C127 C126 1.362 . S
H128 C134 0.930 . S
H129 C137 0.930 . S
H130 C138 0.930 . S
H131 C139 0.930 . S
H132 C142 0.930 . S
H133 C143 0.930 . S
C134 H128 0.930 . S
C134 C135 1.355 . S
C134 C136 1.415 . S
C135 C134 1.355 . S
C135 C137 1.419 . S
C136 C134 1.415 . S
C136 C141 1.425 . S
C136 C143 1.409 . S
C137 H129 0.930 . S
C137 C135 1.419 . S
C137 C138 1.362 . S
C138 H130 0.930 . S
C138 C137 1.362 . S
C138 C141 1.409 . S
C139 H131 0.930 . S
C139 C140 1.355 . S
C139 C141 1.415 . S
C140 C139 1.355 . S
C140 C142 1.419 . S
C141 C136 1.425 . S
C141 C138 1.409 . S
C141 C139 1.415 . S
C142 H132 0.930 . S
C142 C140 1.419 . S
C142 C143 1.362 . S
C143 H133 0.930 . S
C143 C136 1.409 . S
C143 C142 1.362 . S
H144 C150 0.930 1_556 S
H145 C153 0.930 . S
H146 C154 0.930 . S
H147 C155 0.930 1_554 S
H148 C158 0.930 . S
H149 C159 0.930 . S
C150 H144 0.930 1_554 S
C150 C151 1.355 . S
C150 C152 1.415 1_554 S
C151 C150 1.355 . S
C151 C153 1.419 . S
C152 C150 1.415 1_556 S
C152 C157 1.425 1_546 S
C152 C159 1.409 1_545 S
C153 H145 0.930 . S
C153 C151 1.419 . S
C153 C154 1.362 . S
C154 H146 0.930 . S
C154 C153 1.362 . S
C154 C157 1.409 1_545 S
C155 H147 0.930 1_556 S
C155 C156 1.355 . S
C155 C157 1.415 1_556 S
C156 C155 1.355 . S
C156 C158 1.419 . S
C157 C152 1.425 1_564 S
C157 C154 1.409 1_565 S
C157 C155 1.415 1_554 S
C158 H148 0.930 . S
C158 C156 1.419 . S
C158 C159 1.362 . S
C159 H149 0.930 . S
C159 C152 1.409 1_565 S
C159 C158 1.362 . S
H160 C166 0.930 . S
H161 C169 0.930 . S
H162 C170 0.930 . S
H163 C171 0.930 . S
H164 C174 0.930 . S
H165 C175 0.930 . S
C166 H160 0.930 . S
C166 C167 1.355 . S
C166 C168 1.415 1_655 S
C167 C166 1.355 . S
C167 C169 1.419 . S
C168 C166 1.415 1_455 S
C168 C173 1.425 1_455 S
C168 C175 1.409 . S
C169 H161 0.930 . S
C169 C167 1.419 . S
C169 C170 1.362 . S
C170 H162 0.930 . S
C170 C169 1.362 . S
C170 C173 1.409 . S
C171 H163 0.930 . S
C171 C172 1.355 . S
C171 C173 1.415 1_455 S
C172 C171 1.355 . S
C172 C174 1.419 . S
C173 C168 1.425 1_655 S
C173 C170 1.409 . S
C173 C171 1.415 1_655 S
C174 H164 0.930 . S
C174 C172 1.419 . S
C174 C175 1.362 . S
C175 H165 0.930 . S
C175 C168 1.409 . S
C175 C174 1.362 . S
H176 C182 0.930 . S
H177 C185 0.930 . S
H178 C186 0.930 1_545 S
H179 C187 0.930 . S
H180 C190 0.930 . S
H181 C191 0.930 1_565 S
C182 H176 0.930 . S
C182 C183 1.355 . S
C182 C184 1.415 . S
C183 C182 1.355 . S
C183 C185 1.419 . S
C184 C182 1.415 . S
C184 C189 1.425 1_565 S
C184 C191 1.409 1_565 S
C185 H177 0.930 . S
C185 C183 1.419 . S
C185 C186 1.362 . S
C186 H178 0.930 1_565 S
C186 C185 1.362 . S
C186 C189 1.409 1_565 S
C187 H179 0.930 . S
C187 C188 1.355 . S
C187 C189 1.415 . S
C188 C187 1.355 . S
C188 C190 1.419 . S
C189 C184 1.425 1_545 S
C189 C186 1.409 1_545 S
C189 C187 1.415 . S
C190 H180 0.930 . S
C190 C188 1.419 . S
C190 C191 1.362 . S
C191 H181 0.930 1_545 S
C191 C184 1.409 1_545 S
C191 C190 1.362 . S
H192 C198 0.930 . S
H193 C201 0.930 . S
H194 C202 0.930 . S
H195 C203 0.930 . S
H196 C206 0.930 . S
H197 C207 0.930 . S
C198 H192 0.930 . S
C198 C199 1.355 1_554 S
C198 C200 1.415 . S
C199 C198 1.355 1_556 S
C199 C201 1.419 . S
C200 C198 1.415 . S
C200 C205 1.425 1_654 S
C200 C207 1.409 . S
C201 H193 0.930 . S
C201 C199 1.419 . S
C201 C202 1.362 1_655 S
C202 H194 0.930 . S
C202 C201 1.362 1_455 S
C202 C205 1.409 . S
C203 H195 0.930 . S
C203 C204 1.355 1_556 S
C203 C205 1.415 . S
C204 C203 1.355 1_554 S
C204 C206 1.419 . S
C205 C200 1.425 1_456 S
C205 C202 1.409 . S
C205 C203 1.415 . S
C206 H196 0.930 . S
C206 C204 1.419 . S
C206 C207 1.362 1_455 S
C207 H197 0.930 . S
C207 C200 1.409 . S
C207 C206 1.362 1_655 S
H208 C214 0.930 . S
H209 C217 0.930 . S
H210 C218 0.930 . S
H211 C219 0.930 . S
H212 C222 0.930 . S
H213 C223 0.930 . S
C214 H208 0.930 . S
C214 C215 1.355 . S
C214 C216 1.415 . S
C215 C214 1.355 . S
C215 C217 1.419 . S
C216 C214 1.415 . S
C216 C221 1.425 . S
C216 C223 1.409 . S
C217 H209 0.930 . S
C217 C215 1.419 . S
C217 C218 1.362 . S
C218 H210 0.930 . S
C218 C217 1.362 . S
C218 C221 1.409 . S
C219 H211 0.930 . S
C219 C220 1.355 . S
C219 C221 1.415 . S
C220 C219 1.355 . S
C220 C222 1.419 . S
C221 C216 1.425 . S
C221 C218 1.409 . S
C221 C219 1.415 . S
C222 H212 0.930 . S
C222 C220 1.419 . S
C222 C223 1.362 . S
C223 H213 0.930 . S
C223 C216 1.409 . S
C223 C222 1.362 . S
H224 C230 0.930 . S
H225 C233 0.930 . S
H226 C234 0.930 . S
H227 C235 0.930 . S
H228 C238 0.930 . S
H229 C239 0.930 . S
C230 H224 0.930 . S
C230 C231 1.355 . S
C230 C232 1.415 . S
C231 C230 1.355 . S
C231 C233 1.419 . S
C232 C230 1.415 . S
C232 C237 1.425 . S
C232 C239 1.409 . S
C233 H225 0.930 . S
C233 C231 1.419 . S
C233 C234 1.362 . S
C234 H226 0.930 . S
C234 C233 1.362 . S
C234 C237 1.409 . S
C235 H227 0.930 . S
C235 C236 1.355 . S
C235 C237 1.415 . S
C236 C235 1.355 . S
C236 C238 1.419 . S
C237 C232 1.425 . S
C237 C234 1.409 . S
C237 C235 1.415 . S
C238 H228 0.930 . S
C238 C236 1.419 . S
C238 C239 1.362 . S
C239 H229 0.930 . S
C239 C232 1.409 . S
C239 C238 1.362 . S
H240 C246 0.930 . S
H241 C249 0.930 . S
H242 C250 0.930 . S
H243 C251 0.930 . S
H244 C254 0.930 . S
H245 C255 0.930 . S
C246 H240 0.930 . S
C246 C247 1.355 . S
C246 C248 1.415 . S
C247 C246 1.355 . S
C247 C249 1.419 . S
C248 C246 1.415 . S
C248 C253 1.425 . S
C248 C255 1.409 . S
C249 H241 0.930 . S
C249 C247 1.419 . S
C249 C250 1.362 . S
C250 H242 0.930 . S
C250 C249 1.362 . S
C250 C253 1.409 . S
C251 H243 0.930 . S
C251 C252 1.355 . S
C251 C253 1.415 . S
C252 C251 1.355 . S
C252 C254 1.419 . S
C253 C248 1.425 . S
C253 C250 1.409 . S
C253 C251 1.415 . S
C254 H244 0.930 . S
C254 C252 1.419 . S
C254 C255 1.362 . S
C255 H245 0.930 . S
C255 C248 1.409 . S
C255 C254 1.362 . S
H256 C262 0.930 . S
H257 C265 0.930 . S
H258 C266 0.930 . S
H259 C267 0.930 . S
H260 C270 0.930 . S
H261 C271 0.930 . S
C262 H256 0.930 . S
C262 C263 1.355 . S
C262 C264 1.415 1_556 S
C263 C262 1.355 . S
C263 C265 1.419 . S
C264 C262 1.415 1_554 S
C264 C269 1.425 1_554 S
C264 C271 1.409 . S
C265 H257 0.930 . S
C265 C263 1.419 . S
C265 C266 1.362 . S
C266 H258 0.930 . S
C266 C265 1.362 . S
C266 C269 1.409 . S
C267 H259 0.930 . S
C267 C268 1.355 . S
C267 C269 1.415 1_554 S
C268 C267 1.355 . S
C268 C270 1.419 . S
C269 C264 1.425 1_556 S
C269 C266 1.409 . S
C269 C267 1.415 1_556 S
C270 H260 0.930 . S
C270 C268 1.419 . S
C270 C271 1.362 . S
C271 H261 0.930 . S
C271 C264 1.409 . S
C271 C270 1.362 . S
H272 C278 0.930 . S
H273 C281 0.930 . S
H274 C282 0.930 . S
H275 C283 0.930 . S
H276 C286 0.930 . S
H277 C287 0.930 1_565 S
C278 H272 0.930 . S
C278 C279 1.355 . S
C278 C280 1.415 . S
C279 C278 1.355 . S
C279 C281 1.419 . S
C280 C278 1.415 . S
C280 C285 1.425 1_565 S
C280 C287 1.409 1_565 S
C281 H273 0.930 . S
C281 C279 1.419 . S
C281 C282 1.362 1_565 S
C282 H274 0.930 . S
C282 C281 1.362 1_545 S
C282 C285 1.409 . S
C283 H275 0.930 . S
C283 C284 1.355 . S
C283 C285 1.415 . S
C284 C283 1.355 . S
C284 C286 1.419 . S
C285 C280 1.425 1_545 S
C285 C282 1.409 . S
C285 C283 1.415 . S
C286 H276 0.930 . S
C286 C284 1.419 . S
C286 C287 1.362 . S
C287 H277 0.930 1_545 S
C287 C280 1.409 1_545 S
C287 C286 1.362 . S
H288 C294 0.930 . S
H289 C297 0.930 . S
H290 C298 0.930 . S
H291 C299 0.930 . S
H292 C302 0.930 . S
H293 C303 0.930 . S
C294 H288 0.930 . S
C294 C295 1.355 . S
C294 C296 1.415 1_565 S
C295 C294 1.355 . S
C295 C297 1.419 . S
C296 C294 1.415 1_545 S
C296 C301 1.425 1_645 S
C296 C303 1.409 . S
C297 H289 0.930 . S
C297 C295 1.419 . S
C297 C298 1.362 1_655 S
C298 H290 0.930 . S
C298 C297 1.362 1_455 S
C298 C301 1.409 . S
C299 H291 0.930 . S
C299 C300 1.355 . S
C299 C301 1.415 1_545 S
C300 C299 1.355 . S
C300 C302 1.419 . S
C301 C296 1.425 1_465 S
C301 C298 1.409 . S
C301 C299 1.415 1_565 S
C302 H292 0.930 . S
C302 C300 1.419 . S
C302 C303 1.362 1_455 S
C303 H293 0.930 . S
C303 C296 1.409 . S
C303 C302 1.362 1_655 S
H304 C310 0.930 . S
H305 C313 0.930 . S
H306 C314 0.930 . S
H307 C315 0.930 . S
H308 C318 0.930 . S
H309 C319 0.930 . S
C310 H304 0.930 . S
C310 C311 1.355 . S
C310 C312 1.415 . S
C311 C310 1.355 . S
C311 C313 1.419 . S
C312 C310 1.415 . S
C312 C317 1.425 1_655 S
C312 C319 1.409 . S
C313 H305 0.930 . S
C313 C311 1.419 . S
C313 C314 1.362 1_655 S
C314 H306 0.930 . S
C314 C313 1.362 1_455 S
C314 C317 1.409 . S
C315 H307 0.930 . S
C315 C316 1.355 . S
C315 C317 1.415 . S
C316 C315 1.355 . S
C316 C318 1.419 . S
C317 C312 1.425 1_455 S
C317 C314 1.409 . S
C317 C315 1.415 . S
C318 H308 0.930 . S
C318 C316 1.419 . S
C318 C319 1.362 1_455 S
C319 H309 0.930 . S
C319 C312 1.409 . S
C319 C318 1.362 1_655 S
H320 C326 0.930 . S
H321 C329 0.930 . S
H322 C330 0.930 . S
H323 C331 0.930 . S
H324 C334 0.930 . S
H325 C335 0.930 . S
C326 H320 0.930 . S
C326 C327 1.355 . S
C326 C328 1.415 . S
C327 C326 1.355 . S
C327 C329 1.419 . S
C328 C326 1.415 . S
C328 C333 1.425 . S
C328 C335 1.409 . S
C329 H321 0.930 . S
C329 C327 1.419 . S
C329 C330 1.362 . S
C330 H322 0.930 . S
C330 C329 1.362 . S
C330 C333 1.409 . S
C331 H323 0.930 . S
C331 C332 1.355 . S
C331 C333 1.415 . S
C332 C331 1.355 . S
C332 C334 1.419 . S
C333 C328 1.425 . S
C333 C330 1.409 . S
C333 C331 1.415 . S
C334 H324 0.930 . S
C334 C332 1.419 . S
C334 C335 1.362 . S
C335 H325 0.930 . S
C335 C328 1.409 . S
C335 C334 1.362 . S
H336 C342 0.930 1_556 S
H337 C345 0.930 . S
H338 C346 0.930 . S
H339 C347 0.930 1_554 S
H340 C350 0.930 . S
H341 C351 0.930 . S
C342 H336 0.930 1_554 S
C342 C343 1.355 . S
C342 C344 1.415 1_554 S
C343 C342 1.355 . S
C343 C345 1.419 . S
C344 C342 1.415 1_556 S
C344 C349 1.425 1_556 S
C344 C351 1.409 . S
C345 H337 0.930 . S
C345 C343 1.419 . S
C345 C346 1.362 . S
C346 H338 0.930 . S
C346 C345 1.362 . S
C346 C349 1.409 . S
C347 H339 0.930 1_556 S
C347 C348 1.355 . S
C347 C349 1.415 1_556 S
C348 C347 1.355 . S
C348 C350 1.419 . S
C349 C344 1.425 1_554 S
C349 C346 1.409 . S
C349 C347 1.415 1_554 S
C350 H340 0.930 . S
C350 C348 1.419 . S
C350 C351 1.362 . S
C351 H341 0.930 . S
C351 C344 1.409 . S
C351 C350 1.362 . S
H352 C358 0.930 . S
H353 C361 0.930 . S
H354 C362 0.930 . S
H355 C363 0.930 . S
H356 C366 0.930 . S
H357 C367 0.930 . S
C358 H352 0.930 . S
C358 C359 1.355 . S
C358 C360 1.415 . S
C359 C358 1.355 . S
C359 C361 1.419 . S
C360 C358 1.415 . S
C360 C365 1.425 . S
C360 C367 1.409 . S
C361 H353 0.930 . S
C361 C359 1.419 . S
C361 C362 1.362 . S
C362 H354 0.930 . S
C362 C361 1.362 . S
C362 C365 1.409 . S
C363 H355 0.930 . S
C363 C364 1.355 . S
C363 C365 1.415 . S
C364 C363 1.355 . S
C364 C366 1.419 . S
C365 C360 1.425 . S
C365 C362 1.409 . S
C365 C363 1.415 . S
C366 H356 0.930 . S
C366 C364 1.419 . S
C366 C367 1.362 . S
C367 H357 0.930 . S
C367 C360 1.409 . S
C367 C366 1.362 . S
C119 C73 1.500 . S
C124 C3 1.499 . S
C135 C107 1.497 . S
C140 C22 1.488 . S
C151 C35 1.492 . S
C156 C91 1.459 . S
C167 C51 1.479 . S
C172 C64 1.487 . S
C183 C92 1.497 . S
C188 C9 1.462 . S
C199 C21 1.487 . S
C204 C63 1.478 . S
C215 C79 1.465 . S
C220 C36 1.498 . S
C231 C45 1.500 . S
C236 C101 1.494 . S
C247 C65 1.464 . S
C252 C78 1.491 . S
C263 C17 1.483 . S
C268 C31 1.489 . S
C279 C50 1.497 . S
C284 C37 1.463 . S
C295 C49 1.456 . S
C300 C7 1.492 . S
C311 C23 1.486 . S
C316 C8 1.497 . S
C327 C106 1.498 . S
C332 C93 1.467 . S
C343 C59 1.483 . S
C348 C87 1.488 . S
C359 C77 1.465 . S
C364 C105 1.492 . S
