# Generated by pormake.
# Topology wmi, (6)-cn, num edge types: 1
# Building blocks:
#     Node 0, Type 0, BuildingBlock: BETDIP_clean_sbu_0, # of connection points: 6
#     Node 1, Type 0, BuildingBlock: BETDIP_clean_sbu_0, # of connection points: 6
#     Node 2, Type 0, BuildingBlock: BETDIP_clean_sbu_0, # of connection points: 6
#     Node 3, Type 0, BuildingBlock: BETDIP_clean_sbu_0, # of connection points: 6
#     Node 4, Type 0, BuildingBlock: BETDIP_clean_sbu_0, # of connection points: 6
#     Node 5, Type 0, BuildingBlock: BETDIP_clean_sbu_0, # of connection points: 6
#     Node 6, Type 0, BuildingBlock: BETDIP_clean_sbu_0, # of connection points: 6
#     Node 7, Type 0, BuildingBlock: BETDIP_clean_sbu_0, # of connection points: 6
#     Node 8, Type 0, BuildingBlock: BETDIP_clean_sbu_0, # of connection points: 6
#     Node 9, Type 0, BuildingBlock: BETDIP_clean_sbu_0, # of connection points: 6
#     Node 10, Type 0, BuildingBlock: BETDIP_clean_sbu_0, # of connection points: 6
#     Node 11, Type 0, BuildingBlock: BETDIP_clean_sbu_0, # of connection points: 6
#     Node 12, Type 0, BuildingBlock: BETDIP_clean_sbu_0, # of connection points: 6
#     Node 13, Type 0, BuildingBlock: BETDIP_clean_sbu_0, # of connection points: 6
#     Node 14, Type 0, BuildingBlock: BETDIP_clean_sbu_0, # of connection points: 6
#     Node 15, Type 0, BuildingBlock: BETDIP_clean_sbu_0, # of connection points: 6
#     Node 16, Type 0, BuildingBlock: BETDIP_clean_sbu_0, # of connection points: 6
#     Node 17, Type 0, BuildingBlock: BETDIP_clean_sbu_0, # of connection points: 6
#     Edge 18, Type (0, 0), BuildingBlock: MIFKUJ_clean_linker_0, # of connection points: 2
#     Edge 19, Type (0, 0), BuildingBlock: MIFKUJ_clean_linker_0, # of connection points: 2
#     Edge 20, Type (0, 0), BuildingBlock: MIFKUJ_clean_linker_0, # of connection points: 2
#     Edge 21, Type (0, 0), BuildingBlock: MIFKUJ_clean_linker_0, # of connection points: 2
#     Edge 22, Type (0, 0), BuildingBlock: MIFKUJ_clean_linker_0, # of connection points: 2
#     Edge 23, Type (0, 0), BuildingBlock: MIFKUJ_clean_linker_0, # of connection points: 2
#     Edge 24, Type (0, 0), BuildingBlock: MIFKUJ_clean_linker_0, # of connection points: 2
#     Edge 25, Type (0, 0), BuildingBlock: MIFKUJ_clean_linker_0, # of connection points: 2
#     Edge 26, Type (0, 0), BuildingBlock: MIFKUJ_clean_linker_0, # of connection points: 2
#     Edge 27, Type (0, 0), BuildingBlock: MIFKUJ_clean_linker_0, # of connection points: 2
#     Edge 28, Type (0, 0), BuildingBlock: MIFKUJ_clean_linker_0, # of connection points: 2
#     Edge 29, Type (0, 0), BuildingBlock: MIFKUJ_clean_linker_0, # of connection points: 2
#     Edge 30, Type (0, 0), BuildingBlock: MIFKUJ_clean_linker_0, # of connection points: 2
#     Edge 31, Type (0, 0), BuildingBlock: MIFKUJ_clean_linker_0, # of connection points: 2
#     Edge 32, Type (0, 0), BuildingBlock: MIFKUJ_clean_linker_0, # of connection points: 2
#     Edge 33, Type (0, 0), BuildingBlock: MIFKUJ_clean_linker_0, # of connection points: 2
#     Edge 34, Type (0, 0), BuildingBlock: MIFKUJ_clean_linker_0, # of connection points: 2
#     Edge 35, Type (0, 0), BuildingBlock: MIFKUJ_clean_linker_0, # of connection points: 2
#     Edge 36, Type (0, 0), BuildingBlock: MIFKUJ_clean_linker_0, # of connection points: 2
#     Edge 37, Type (0, 0), BuildingBlock: MIFKUJ_clean_linker_0, # of connection points: 2
#     Edge 38, Type (0, 0), BuildingBlock: MIFKUJ_clean_linker_0, # of connection points: 2
#     Edge 39, Type (0, 0), BuildingBlock: MIFKUJ_clean_linker_0, # of connection points: 2
#     Edge 40, Type (0, 0), BuildingBlock: MIFKUJ_clean_linker_0, # of connection points: 2
#     Edge 41, Type (0, 0), BuildingBlock: MIFKUJ_clean_linker_0, # of connection points: 2
#     Edge 42, Type (0, 0), BuildingBlock: MIFKUJ_clean_linker_0, # of connection points: 2
#     Edge 43, Type (0, 0), BuildingBlock: MIFKUJ_clean_linker_0, # of connection points: 2
#     Edge 44, Type (0, 0), BuildingBlock: MIFKUJ_clean_linker_0, # of connection points: 2
#     Edge 45, Type (0, 0), BuildingBlock: MIFKUJ_clean_linker_0, # of connection points: 2
#     Edge 46, Type (0, 0), BuildingBlock: MIFKUJ_clean_linker_0, # of connection points: 2
#     Edge 47, Type (0, 0), BuildingBlock: MIFKUJ_clean_linker_0, # of connection points: 2
#     Edge 48, Type (0, 0), BuildingBlock: MIFKUJ_clean_linker_0, # of connection points: 2
#     Edge 49, Type (0, 0), BuildingBlock: MIFKUJ_clean_linker_0, # of connection points: 2
#     Edge 50, Type (0, 0), BuildingBlock: MIFKUJ_clean_linker_0, # of connection points: 2
#     Edge 51, Type (0, 0), BuildingBlock: MIFKUJ_clean_linker_0, # of connection points: 2
#     Edge 52, Type (0, 0), BuildingBlock: MIFKUJ_clean_linker_0, # of connection points: 2
#     Edge 53, Type (0, 0), BuildingBlock: MIFKUJ_clean_linker_0, # of connection points: 2
#     Edge 54, Type (0, 0), BuildingBlock: MIFKUJ_clean_linker_0, # of connection points: 2
#     Edge 55, Type (0, 0), BuildingBlock: MIFKUJ_clean_linker_0, # of connection points: 2
#     Edge 56, Type (0, 0), BuildingBlock: MIFKUJ_clean_linker_0, # of connection points: 2
#     Edge 57, Type (0, 0), BuildingBlock: MIFKUJ_clean_linker_0, # of connection points: 2
#     Edge 58, Type (0, 0), BuildingBlock: MIFKUJ_clean_linker_0, # of connection points: 2
#     Edge 59, Type (0, 0), BuildingBlock: MIFKUJ_clean_linker_0, # of connection points: 2
#     Edge 60, Type (0, 0), BuildingBlock: MIFKUJ_clean_linker_0, # of connection points: 2
#     Edge 61, Type (0, 0), BuildingBlock: MIFKUJ_clean_linker_0, # of connection points: 2
#     Edge 62, Type (0, 0), BuildingBlock: MIFKUJ_clean_linker_0, # of connection points: 2
#     Edge 63, Type (0, 0), BuildingBlock: MIFKUJ_clean_linker_0, # of connection points: 2
#     Edge 64, Type (0, 0), BuildingBlock: MIFKUJ_clean_linker_0, # of connection points: 2
#     Edge 65, Type (0, 0), BuildingBlock: MIFKUJ_clean_linker_0, # of connection points: 2
#     Edge 66, Type (0, 0), BuildingBlock: MIFKUJ_clean_linker_0, # of connection points: 2
#     Edge 67, Type (0, 0), BuildingBlock: MIFKUJ_clean_linker_0, # of connection points: 2
#     Edge 68, Type (0, 0), BuildingBlock: MIFKUJ_clean_linker_0, # of connection points: 2
#     Edge 69, Type (0, 0), BuildingBlock: MIFKUJ_clean_linker_0, # of connection points: 2
#     Edge 70, Type (0, 0), BuildingBlock: MIFKUJ_clean_linker_0, # of connection points: 2
#     Edge 71, Type (0, 0), BuildingBlock: MIFKUJ_clean_linker_0, # of connection points: 2
# Relax obj value: 0.097
# Max RMSD: 0.200
# Mean RMSD: 0.200
data_MOF--net-wmi--node1-BETDIP_clean_sbu_0--edge1-MIFKUJ_clean_linker_0
_symmetry_space_group_name_H-M    P1
_symmetry_Int_Tables_number       1
_symmetry_cell_setting            triclinic
loop_
_symmetry_equiv_pos_as_xyz
'x, y, z'
_cell_length_a     49.162929
_cell_length_b     49.282803
_cell_length_c     103.339
_cell_angle_alpha  89.945377
_cell_angle_beta   90.121613
_cell_angle_gamma 120.02864
loop_
_atom_site_label
_atom_site_type_symbol
_atom_site_fract_x
_atom_site_fract_y
_atom_site_fract_z
_atom_type_partial_charge
Tb0 Tb 0.52043 0.04456 0.11257 0.0
Tb1 Tb 0.44893 1.00556 0.106 0.0
C2 C 0.57889 0.0814 0.11439 0.0
C3 C 0.60713 0.11099 0.11018 0.0
C4 C 0.62694 0.11021 0.10056 0.0
C5 C 0.6567 0.13626 0.09832 0.0
C6 C 0.6676 0.16379 0.10569 0.0
C7 C 0.64721 0.16508 0.11491 0.0
C8 C 0.61742 0.13897 0.11717 0.0
C9 C 0.48023 0.02024 0.13222 0.0
C10 C 0.48293 0.07934 0.10459 0.0
C11 C 0.39192 0.96737 0.10993 0.0
C12 C 0.37203 0.93323 0.10757 0.0
C13 C 0.38263 0.9124 0.11098 0.0
C14 C 0.3631 0.88005 0.10953 0.0
C15 C 0.33252 0.86766 0.10457 0.0
C16 C 0.32222 0.88853 0.10082 0.0
C17 C 0.34179 0.921 0.10232 0.0
C18 C 0.48205 0.01576 0.08451 0.0
C19 C 0.4911 0.97265 0.10889 0.0
O20 O 0.56589 0.05809 0.10613 0.0
O21 O 0.55815 0.08297 0.12185 0.0
O22 O 0.47689 0.03196 0.12197 0.0
O23 O 0.5078 0.02287 0.13202 0.0
O24 O 0.51009 0.0797 0.10507 0.0
O25 O 0.4553 0.05305 0.10578 0.0
O26 O 0.41391 0.97529 0.1187 0.0
O27 O 0.4019 0.98574 0.09973 0.0
O28 O 0.49228 0.02488 0.09584 0.0
O29 O 0.45165 1.00007 0.08511 0.0
O30 O 0.46271 0.96968 0.10903 0.0
O31 O 0.51714 1.00013 0.10887 0.0
H32 H 0.62003 0.08898 0.0951 0.0
H33 H 0.67149 0.13454 0.091 0.0
H34 H 0.65483 0.18573 0.12086 0.0
H35 H 0.60308 0.14028 0.12481 0.0
H36 H 0.40583 0.92098 0.11503 0.0
H37 H 0.37193 0.8647 0.11235 0.0
H38 H 0.2987 0.87973 0.09706 0.0
H39 H 0.33305 0.93651 0.09965 0.0
Tb40 Tb 1.01853 0.5024 0.11482 0.0
Tb41 Tb 0.05686 0.46936 0.10763 0.0
C42 C 0.98233 0.52454 0.11706 0.0
C43 C 0.95153 0.52227 0.11443 0.0
C44 C 0.94163 0.52426 0.10185 0.0
C45 C 0.91506 0.5275 0.09995 0.0
C46 C 0.8981 0.52922 0.1106 0.0
C47 C 0.90741 0.52596 0.12311 0.0
C48 C 0.93373 0.52255 0.12499 0.0
C49 C 0.0419 0.48438 0.13413 0.0
C50 C 0.98272 0.43015 0.10643 0.0
C51 C 0.09347 0.44878 0.11203 0.0
C52 C 0.12739 0.45995 0.11031 0.0
C53 C 0.1466 0.46779 0.12136 0.0
C54 C 0.17892 0.47986 0.12022 0.0
C55 C 0.19289 0.48401 0.10799 0.0
C56 C 0.17366 0.47552 0.0969 0.0
C57 C 0.1412 0.46376 0.09804 0.0
C58 C 0.0463 0.49322 0.08657 0.0
C59 C 0.09107 0.5444 0.11108 0.0
O60 O 1.00247 0.5317 0.10755 0.0
O61 O 0.98326 0.50485 0.12534 0.0
O62 O 0.03033 0.47033 0.12365 0.0
O63 O 0.03972 0.50953 0.13433 0.0
O64 O 0.98239 0.45682 0.1076 0.0
O65 O 1.00905 0.42873 0.10728 0.0
O66 O 0.08738 0.46509 0.12034 0.0
O67 O 0.07522 0.44077 0.10175 0.0
O68 O 0.03797 0.4942 0.09803 0.0
O69 O 0.06153 0.478 0.08669 0.0
O70 O 0.09357 0.5188 0.11038 0.0
O71 O 0.06382 0.54352 0.11184 0.0
H72 H 0.955 0.52442 0.0935 0.0
H73 H 0.90863 0.53005 0.09019 0.0
H74 H 0.89465 0.52665 0.13152 0.0
H75 H 0.94093 0.52137 0.13479 0.0
H76 H 0.13658 0.46485 0.13094 0.0
H77 H 0.19299 0.48565 0.12895 0.0
H78 H 0.18381 0.47849 0.08735 0.0
H79 H 0.12706 0.45795 0.08933 0.0
Tb80 Tb 0.5639 0.54186 0.11296 0.0
Tb81 Tb 0.59308 0.6134 0.10741 0.0
C82 C 0.5454 0.48412 0.11462 0.0
C83 C 0.54707 0.45634 0.1101 0.0
C84 C 0.5319 0.44033 0.09868 0.0
C85 C 0.52801 0.41069 0.09595 0.0
C86 C 0.53901 0.39621 0.10462 0.0
C87 C 0.55534 0.4129 0.11575 0.0
C88 C 0.5593 0.44252 0.11844 0.0
C89 C 0.5795 0.58065 0.13319 0.0
C90 C 0.63505 0.58221 0.10434 0.0
C91 C 0.61132 0.66996 0.11187 0.0
C92 C 0.59832 0.69079 0.10929 0.0
C93 C 0.56604 0.67992 0.11076 0.0
C94 C 0.55424 0.70034 0.10935 0.0
C95 C 0.57436 0.73212 0.10631 0.0
C96 C 0.60655 0.74266 0.10442 0.0
C97 C 0.61838 0.72223 0.10595 0.0
C98 C 0.57077 0.58131 0.08561 0.0
C99 C 0.51856 0.56843 0.11001 0.0
O100 O 0.53236 0.49583 0.10706 0.0
O101 O 0.56888 0.50569 0.12138 0.0
O102 O 0.59397 0.58515 0.12272 0.0
O103 O 0.55524 0.5527 0.13286 0.0
O104 O 0.60884 0.55459 0.10395 0.0
O105 O 0.63518 0.60862 0.10721 0.0
O106 O 0.59536 0.64725 0.12014 0.0
O107 O 0.62098 0.66069 0.10184 0.0
O108 O 0.57068 0.5709 0.09677 0.0
O109 O 0.58382 0.61149 0.08653 0.0
O110 O 0.54308 0.59715 0.11126 0.0
O111 O 0.52153 0.54332 0.10907 0.0
H112 H 0.5219 0.45008 0.09207 0.0
H113 H 0.51574 0.3988 0.08719 0.0
H114 H 0.56383 0.40249 0.12275 0.0
H115 H 0.57061 0.45392 0.12743 0.0
H116 H 0.54993 0.65575 0.11331 0.0
H117 H 0.52945 0.69133 0.11104 0.0
H118 H 0.6227 0.76678 0.1018 0.0
H119 H 0.64331 0.73111 0.10471 0.0
Tb120 Tb 0.04894 0.51375 0.92581 0.0
Tb121 Tb 1.01083 0.44164 0.93051 0.0
C122 C 0.08491 0.57235 0.92478 0.0
C123 C 0.11475 0.60077 0.92867 0.0
C124 C 0.11397 0.62172 0.93769 0.0
C125 C 0.1402 0.65155 0.93958 0.0
C126 C 0.16794 0.66138 0.93244 0.0
C127 C 0.1692 0.63987 0.92384 0.0
C128 C 0.14291 0.61001 0.92194 0.0
C129 C 0.02591 0.47616 0.90531 0.0
C130 C 0.08462 0.47663 0.93292 0.0
C131 C 0.97505 0.3852 0.92467 0.0
C132 C 0.94095 0.36262 0.9262 0.0
C133 C 0.92033 0.35763 0.91584 0.0
C134 C 0.88802 0.33749 0.91716 0.0
C135 C 0.87544 0.32142 0.92883 0.0
C136 C 0.89604 0.32573 0.93911 0.0
C137 C 0.92847 0.34619 0.93783 0.0
C138 C 1.01924 0.47118 0.95288 0.0
C139 C 0.97657 0.48265 0.92934 0.0
O140 O 0.0627 0.55832 0.93345 0.0
O141 O 0.08601 0.55261 0.91659 0.0
O142 O 0.03794 0.47211 0.91532 0.0
O143 O 0.0267 0.50272 0.90639 0.0
O144 O 0.08457 0.50354 0.93301 0.0
O145 O 0.05873 0.44917 0.93083 0.0
O146 O 0.98191 0.40867 0.91683 0.0
O147 O 0.99285 0.39401 0.9351 0.0
O148 O 0.02886 0.48316 0.94182 0.0
O149 O 1.0039 0.44096 0.95146 0.0
O150 O 0.97415 0.45467 0.92801 0.0
O151 O 1.00393 0.5088 0.93012 0.0
H152 H 0.09257 0.61559 0.94292 0.0
H153 H 0.13847 0.66721 0.94644 0.0
H154 H 0.18999 0.64661 0.91807 0.0
H155 H 0.14427 0.59475 0.91475 0.0
H156 H 0.92917 0.36951 0.90668 0.0
H157 H 0.87286 0.33421 0.90898 0.0
H158 H 0.88703 0.31368 0.94822 0.0
H159 H 0.94366 0.34928 0.94597 0.0
Tb160 Tb 0.54706 0.55527 0.92464 0.0
Tb161 Tb 0.61844 0.58535 0.93071 0.0
C162 C 0.48888 0.5351 0.92294 0.0
C163 C 0.46064 0.53553 0.92778 0.0
C164 C 0.44041 0.51264 0.93664 0.0
C165 C 0.41054 0.50836 0.93919 0.0
C166 C 0.40002 0.52675 0.93289 0.0
C167 C 0.42085 0.5507 0.92452 0.0
C168 C 0.45073 0.55493 0.92195 0.0
C169 C 0.58686 0.57421 0.90474 0.0
C170 C 0.58548 0.62557 0.93461 0.0
C171 C 0.6753 0.60449 0.92633 0.0
C172 C 0.69572 0.5906 0.92819 0.0
C173 C 0.68886 0.56244 0.92198 0.0
C174 C 0.7086 0.54986 0.92345 0.0
C175 C 0.73565 0.5649 0.93125 0.0
C176 C 0.74226 0.59285 0.9376 0.0
C177 C 0.72258 0.6056 0.93604 0.0
C178 C 0.58592 0.56021 0.95214 0.0
C179 C 0.57523 0.51107 0.92602 0.0
O180 O 0.50124 0.52224 0.93023 0.0
O181 O 0.5101 0.55929 0.91641 0.0
O182 O 0.59048 0.58729 0.91551 0.0
O183 O 0.55924 0.54943 0.90456 0.0
O184 O 0.55817 0.59897 0.93426 0.0
O185 O 0.61262 0.62671 0.93209 0.0
O186 O 0.653 0.59069 0.91766 0.0
O187 O 0.66562 0.61235 0.93678 0.0
O188 O 0.57538 0.56059 0.94101 0.0
O189 O 0.61627 0.57442 0.95134 0.0
O190 O 0.60385 0.53616 0.92601 0.0
O191 O 0.54956 0.51316 0.92684 0.0
H192 H 0.44704 0.49698 0.94119 0.0
H193 H 0.39535 0.49004 0.94585 0.0
H194 H 0.41349 0.56514 0.9194 0.0
H195 H 0.46542 0.57242 0.9149 0.0
H196 H 0.66834 0.55012 0.91584 0.0
H197 H 0.70292 0.52863 0.91822 0.0
H198 H 0.76259 0.60488 0.94385 0.0
H199 H 0.72839 0.62725 0.94096 0.0
Tb200 Tb 0.50781 1.01004 0.9235 0.0
Tb201 Tb 0.47577 0.04959 0.93003 0.0
C202 C 0.52891 0.97287 0.92152 0.0
C203 C 0.52729 0.94304 0.92554 0.0
C204 C 0.54598 0.94268 0.93581 0.0
C205 C 0.5495 0.91648 0.93799 0.0
C206 C 0.53466 0.89001 0.92988 0.0
C207 C 0.51491 0.88989 0.91996 0.0
C208 C 0.51135 0.91605 0.9178 0.0
C209 C 0.49189 0.03447 0.90386 0.0
C210 C 0.43573 0.97584 0.9319 0.0
C211 C 0.45574 0.08676 0.92603 0.0
C212 C 0.46874 0.12089 0.92791 0.0
C213 C 0.49892 0.14268 0.92338 0.0
C214 C 0.51019 0.17487 0.92429 0.0
C215 C 0.49172 0.18626 0.92984 0.0
C216 C 0.46184 0.16439 0.9347 0.0
C217 C 0.45047 0.13208 0.9337 0.0
C218 C 0.49917 0.03922 0.9514 0.0
C219 C 0.55075 0.08204 0.92734 0.0
O220 O 0.53955 0.99607 0.92984 0.0
O221 O 0.50658 0.97159 0.91412 0.0
O222 O 0.47693 0.02283 0.91413 0.0
O223 O 0.51684 0.03186 0.90406 0.0
O224 O 0.46243 0.97528 0.93139 0.0
O225 O 0.43461 1.00212 0.93034 0.0
O226 O 0.4699 0.07904 0.91728 0.0
O227 O 0.44854 0.06916 0.93643 0.0
O228 O 0.49964 0.03011 0.94004 0.0
O229 O 0.48492 0.05533 0.95097 0.0
O230 O 0.52546 0.0852 0.92661 0.0
O231 O 0.54899 0.05442 0.92767 0.0
H232 H 0.5591 0.9632 0.94183 0.0
H233 H 0.56511 0.91764 0.94565 0.0
H234 H 0.50266 0.86977 0.91365 0.0
H235 H 0.4971 0.91558 0.9097 0.0
H236 H 0.51365 0.1349 0.91884 0.0
H237 H 0.53306 0.19078 0.92025 0.0
H238 H 0.44711 0.17219 0.93923 0.0
H239 H 0.42718 0.1158 0.93729 0.0
Tb240 Tb 0.19008 0.37585 0.44638 0.0
Tb241 Tb 0.11898 0.33453 0.43987 0.0
C242 C 0.24812 0.41395 0.44862 0.0
C243 C 0.27643 0.44346 0.44445 0.0
C244 C 0.29543 0.44326 0.43433 0.0
C245 C 0.32537 0.46916 0.43217 0.0
C246 C 0.33718 0.49589 0.44012 0.0
C247 C 0.31757 0.4966 0.44986 0.0
C248 C 0.28767 0.47069 0.45203 0.0
C249 C 0.14977 0.35226 0.46607 0.0
C250 C 0.15122 0.40786 0.43691 0.0
C251 C 0.06185 0.29686 0.44362 0.0
C252 C 0.04157 0.26286 0.44134 0.0
C253 C 0.05193 0.2418 0.4446 0.0
C254 C 0.03179 0.2095 0.4435 0.0
C255 C 1.0008 0.1974 0.43904 0.0
C256 C 0.99088 0.2186 0.4353 0.0
C257 C 1.01109 0.25101 0.43645 0.0
C258 C 0.15238 0.34372 0.41854 0.0
C259 C 0.16264 0.30373 0.44393 0.0
O260 O 0.23618 0.38991 0.4407 0.0
O261 O 0.22656 0.4157 0.45543 0.0
O262 O 0.14618 0.36292 0.45557 0.0
O263 O 0.17753 0.35541 0.46606 0.0
O264 O 0.17884 0.4092 0.43741 0.0
O265 O 0.12427 0.38145 0.43906 0.0
O266 O 0.08362 0.30452 0.45249 0.0
O267 O 0.07223 0.31496 0.43335 0.0
O268 O 0.16239 0.35402 0.42977 0.0
O269 O 0.12203 0.32719 0.41914 0.0
O270 O 0.13388 0.2999 0.44402 0.0
O271 O 0.18817 0.33165 0.44344 0.0
H272 H 0.28779 0.42257 0.42839 0.0
H273 H 0.33958 0.46792 0.42445 0.0
H274 H 0.32591 0.51657 0.45628 0.0
H275 H 0.27398 0.47146 0.46008 0.0
H276 H 0.07532 0.25019 0.44841 0.0
H277 H 0.04022 0.19404 0.44663 0.0
H278 H 0.96736 0.21018 0.43161 0.0
H279 H 1.00264 0.26679 0.43381 0.0
Tb280 Tb 0.68895 0.83207 0.44795 0.0
Tb281 Tb 0.7274 0.79893 0.44176 0.0
C282 C 0.65294 0.8546 0.44961 0.0
C283 C 0.62394 0.85433 0.4452 0.0
C284 C 0.62636 0.8775 0.43655 0.0
C285 C 0.60065 0.88174 0.43421 0.0
C286 C 0.57179 0.86304 0.44051 0.0
C287 C 0.56895 0.83894 0.44873 0.0
C288 C 0.59473 0.83473 0.4511 0.0
C289 C 0.7125 0.81577 0.46781 0.0
C290 C 0.65344 0.76018 0.43975 0.0
C291 C 0.76364 0.77782 0.44582 0.0
C292 C 0.79755 0.79018 0.44346 0.0
C293 C 0.81997 0.82093 0.4471 0.0
C294 C 0.85203 0.83207 0.44538 0.0
C295 C 0.86259 0.81288 0.43989 0.0
C296 C 0.84004 0.78228 0.43603 0.0
C297 C 0.80788 0.77106 0.43783 0.0
C298 C 0.71835 0.82255 0.42016 0.0
C299 C 0.7614 0.87378 0.44481 0.0
O300 O 0.67674 0.86501 0.44159 0.0
O301 O 0.65033 0.83159 0.4569 0.0
O302 O 0.70076 0.80075 0.45755 0.0
O303 O 0.71035 0.8409 0.46749 0.0
O304 O 0.65353 0.78714 0.44005 0.0
O305 O 0.67944 0.7585 0.44141 0.0
O306 O 0.75694 0.79297 0.4545 0.0
O307 O 0.74526 0.7701 0.43561 0.0
O308 O 0.70896 0.82349 0.43143 0.0
O309 O 0.73396 0.80782 0.42088 0.0
O310 O 0.76392 0.84816 0.44524 0.0
O311 O 0.73404 0.87266 0.44431 0.0
H312 H 0.64857 0.89332 0.43197 0.0
H313 H 0.60363 0.90019 0.42766 0.0
H314 H 0.54721 0.82424 0.45384 0.0
H315 H 0.59209 0.817 0.45798 0.0
H316 H 0.81284 0.83634 0.45148 0.0
H317 H 0.86855 0.85554 0.44867 0.0
H318 H 0.84721 0.76696 0.4316 0.0
H319 H 0.79108 0.74733 0.43491 0.0
Tb320 Tb 0.2314 0.87027 0.44699 0.0
Tb321 Tb 0.26265 0.94175 0.44031 0.0
C322 C 0.20959 0.81207 0.44914 0.0
C323 C 0.21055 0.7829 0.44678 0.0
C324 C 0.21467 0.7737 0.43439 0.0
C325 C 0.21061 0.74363 0.43241 0.0
C326 C 0.20187 0.72214 0.44273 0.0
C327 C 0.19887 0.73197 0.45514 0.0
C328 C 0.20322 0.76193 0.45713 0.0
C329 C 0.24826 0.91075 0.46656 0.0
C330 C 0.30353 0.90854 0.43866 0.0
C331 C 0.28239 0.99887 0.44426 0.0
C332 C 0.26998 0.02036 0.44198 0.0
C333 C 0.23846 1.01096 0.4447 0.0
C334 C 0.22755 0.0322 0.44368 0.0
C335 C 0.2478 0.06339 0.43984 0.0
C336 C 0.27913 0.07244 0.43672 0.0
C337 C 0.29009 0.05117 0.43782 0.0
C338 C 0.23839 0.90785 0.41909 0.0
C339 C 0.18778 0.89896 0.44386 0.0
O340 O 0.20264 0.82502 0.43955 0.0
O341 O 0.22955 0.83262 0.45739 0.0
O342 O 0.26264 0.91414 0.45611 0.0
O343 O 0.22345 0.88312 0.46655 0.0
O344 O 0.27721 0.88108 0.4396 0.0
O345 O 0.30412 0.9358 0.43982 0.0
O346 O 0.26704 0.97679 0.45284 0.0
O347 O 0.2905 0.98859 0.43408 0.0
O348 O 0.23846 0.89832 0.43042 0.0
O349 O 0.25264 0.9382 0.41946 0.0
O350 O 0.21297 0.92749 0.44389 0.0
O351 O 0.1897 0.87318 0.44376 0.0
H352 H 0.22009 0.78931 0.4262 0.0
H353 H 0.21304 0.73675 0.42272 0.0
H354 H 0.19265 0.71623 0.46333 0.0
H355 H 0.19969 0.76835 0.46675 0.0
H356 H 0.22234 0.98739 0.44798 0.0
H357 H 0.20344 0.02434 0.44635 0.0
H358 H 0.29532 0.09607 0.4335 0.0
H359 H 0.31446 0.05897 0.43565 0.0
Tb360 Tb 0.7171 0.84656 0.25864 0.0
Tb361 Tb 0.67791 0.77493 0.26496 0.0
C362 C 0.75302 0.90494 0.25672 0.0
C363 C 0.78332 0.93411 0.25911 0.0
C364 C 0.79497 0.94499 0.27163 0.0
C365 C 0.82089 0.97525 0.27345 0.0
C366 C 0.83526 0.9953 0.26281 0.0
C367 C 0.82421 0.98379 0.25031 0.0
C368 C 0.79865 0.95362 0.2485 0.0
C369 C 0.69465 0.80645 0.23891 0.0
C370 C 0.752 0.80928 0.267 0.0
C371 C 0.64097 0.71789 0.26058 0.0
C372 C 0.6067 0.69671 0.26226 0.0
C373 C 0.58504 0.70536 0.2578 0.0
C374 C 0.55273 0.68447 0.25857 0.0
C375 C 0.54111 0.6544 0.26392 0.0
C376 C 0.56286 0.64611 0.2687 0.0
C377 C 0.59529 0.66701 0.26784 0.0
C378 C 0.68645 0.80782 0.28637 0.0
C379 C 0.64454 0.81638 0.26108 0.0
O380 O 0.73337 0.89154 0.26634 0.0
O381 O 0.75225 0.88475 0.24827 0.0
O382 O 0.70575 0.8033 0.2494 0.0
O383 O 0.69639 0.83357 0.23901 0.0
O384 O 0.75262 0.83645 0.26604 0.0
O385 O 0.72562 0.78172 0.26576 0.0
O386 O 0.64893 0.74007 0.25194 0.0
O387 O 0.65832 0.72795 0.2711 0.0
O388 O 0.69617 0.81802 0.27511 0.0
O389 O 0.67085 0.77748 0.28576 0.0
O390 O 0.64189 0.78818 0.26106 0.0
O391 O 0.67193 0.84257 0.26152 0.0
H392 H 0.78347 0.93061 0.28002 0.0
H393 H 0.82881 0.98345 0.28321 0.0
H394 H 0.835 0.99839 0.2419 0.0
H395 H 0.79002 0.94597 0.23875 0.0
H396 H 0.59298 0.72808 0.25342 0.0
H397 H 0.53691 0.69165 0.25459 0.0
H398 H 0.55488 0.6234 0.27308 0.0
H399 H 0.61146 0.6598 0.27138 0.0
Tb400 Tb 0.21582 0.8908 0.25829 0.0
Tb401 Tb 0.28697 0.92063 0.26435 0.0
C402 C 0.15785 0.87144 0.25613 0.0
C403 C 0.12957 0.87235 0.2606 0.0
C404 C 0.11152 0.85369 0.27104 0.0
C405 C 0.08155 0.84935 0.27349 0.0
C406 C 0.0688 0.86342 0.26554 0.0
C407 C 0.08743 0.88313 0.25545 0.0
C408 C 0.11738 0.88751 0.25301 0.0
C409 C 0.25547 0.90748 0.23834 0.0
C410 C 0.25454 0.96131 0.26784 0.0
C411 C 0.34398 0.93994 0.2602 0.0
C412 C 0.36455 0.92646 0.26243 0.0
C413 C 0.35408 0.89486 0.25953 0.0
C414 C 0.37437 0.88282 0.26061 0.0
C415 C 0.40566 0.90204 0.26465 0.0
C416 C 0.41579 0.93342 0.26797 0.0
C417 C 0.39539 0.94547 0.26689 0.0
C418 C 0.2546 0.89685 0.28596 0.0
C419 C 0.24313 0.84608 0.26079 0.0
O420 O 0.1696 0.85836 0.26363 0.0
O421 O 0.17955 0.89543 0.24967 0.0
O422 O 0.25931 0.92179 0.24882 0.0
O423 O 0.22783 0.88276 0.23853 0.0
O424 O 0.22712 0.93486 0.2677 0.0
O425 O 0.28145 0.96217 0.26519 0.0
O426 O 0.3218 0.9254 0.25153 0.0
O427 O 0.33403 0.94806 0.27048 0.0
O428 O 0.24396 0.89682 0.27481 0.0
O429 O 0.28493 0.91082 0.28509 0.0
O430 O 0.27188 0.87097 0.26039 0.0
O431 O 0.21768 0.84859 0.26145 0.0
H432 H 0.11992 0.84132 0.277 0.0
H433 H 0.06804 0.83433 0.28144 0.0
H434 H 0.07823 0.89395 0.249 0.0
H435 H 0.13034 0.90154 0.24475 0.0
H436 H 0.33045 0.87959 0.25604 0.0
H437 H 0.36579 0.8587 0.25781 0.0
H438 H 0.43959 0.94879 0.27129 0.0
H439 H 0.40396 0.96986 0.26922 0.0
Tb440 Tb 0.17026 0.34157 0.25796 0.0
Tb441 Tb 0.14068 0.38368 0.26368 0.0
C442 C 0.19064 0.30384 0.25631 0.0
C443 C 0.18937 0.27368 0.25916 0.0
C444 C 0.19045 0.26378 0.27184 0.0
C445 C 0.19456 0.23783 0.27396 0.0
C446 C 0.19818 0.22166 0.26346 0.0
C447 C 0.19594 0.23104 0.25084 0.0
C448 C 0.19155 0.25662 0.24874 0.0
C449 C 0.15268 0.36354 0.23795 0.0
C450 C 0.09882 0.31019 0.26681 0.0
C451 C 0.12174 0.42144 0.25903 0.0
C452 C 0.13461 0.45553 0.26101 0.0
C453 C 0.16471 0.47758 0.25649 0.0
C454 C 0.17594 0.50973 0.2577 0.0
C455 C 0.15751 0.52077 0.26356 0.0
C456 C 0.12764 0.49863 0.26833 0.0
C457 C 0.11631 0.4664 0.26702 0.0
C458 C 0.16527 0.37579 0.28522 0.0
C459 C 0.21514 0.4139 0.25944 0.0
O460 O 0.19904 0.32503 0.26546 0.0
O461 O 0.1701 0.30398 0.24824 0.0
O462 O 0.13901 0.3538 0.2486 0.0
O463 O 0.17748 0.36068 0.23802 0.0
O464 O 0.12482 0.30832 0.26634 0.0
O465 O 0.09872 0.33682 0.26465 0.0
O466 O 0.13674 0.41382 0.25064 0.0
O467 O 0.11325 0.40354 0.26939 0.0
O468 O 0.16462 0.36477 0.27412 0.0
O469 O 0.15154 0.39234 0.28436 0.0
O470 O 0.19024 0.41775 0.2592 0.0
O471 O 0.2127 0.38603 0.26033 0.0
H472 H 0.18917 0.27664 0.28008 0.0
H473 H 0.19626 0.23127 0.28381 0.0
H474 H 0.19814 0.21887 0.24254 0.0
H475 H 0.1911 0.26388 0.23887 0.0
H476 H 0.1795 0.47007 0.25178 0.0
H477 H 0.1988 0.52589 0.25372 0.0
H478 H 0.11294 0.50615 0.27309 0.0
H479 H 0.09308 0.44994 0.27061 0.0
Tb480 Tb 0.85936 0.71332 0.78192 0.0
Tb481 Tb 0.78738 0.67536 0.77555 0.0
C482 C 0.91798 0.74887 0.78365 0.0
C483 C 0.94659 0.77977 0.78159 0.0
C484 C 0.95651 0.79302 0.76922 0.0
C485 C 0.98633 0.81964 0.7675 0.0
C486 C 1.00692 0.83321 0.77809 0.0
C487 C 0.99634 0.82053 0.79047 0.0
C488 C 0.9666 0.7942 0.79219 0.0
C489 C 0.81924 0.68919 0.80157 0.0
C490 C 0.822 0.74954 0.77556 0.0
C491 C 0.73058 0.63774 0.78035 0.0
C492 C 0.70843 0.60392 0.77831 0.0
C493 C 0.69311 0.58523 0.78912 0.0
C494 C 0.67398 0.55279 0.78788 0.0
C495 C 0.66944 0.53823 0.77576 0.0
C496 C 0.68425 0.55699 0.76485 0.0
C497 C 0.7038 0.58955 0.76613 0.0
C498 C 0.82016 0.68801 0.75389 0.0
C499 C 0.82896 0.64131 0.77733 0.0
O500 O 0.90402 0.73079 0.77363 0.0
O501 O 0.89819 0.74649 0.79266 0.0
O502 O 0.81617 0.70127 0.79138 0.0
O503 O 0.84644 0.69094 0.80126 0.0
O504 O 0.84924 0.74996 0.77609 0.0
O505 O 0.79432 0.72308 0.77633 0.0
O506 O 0.75363 0.64372 0.78833 0.0
O507 O 0.73988 0.65655 0.77026 0.0
O508 O 0.83035 0.69459 0.76536 0.0
O509 O 0.78969 0.67372 0.75442 0.0
O510 O 0.80068 0.63872 0.77735 0.0
O511 O 0.85522 0.66862 0.77785 0.0
H512 H 0.94172 0.78226 0.76083 0.0
H513 H 0.99378 0.82878 0.75783 0.0
H514 H 1.01133 0.83066 0.79886 0.0
H515 H 0.95969 0.78435 0.80181 0.0
H516 H 0.69638 0.59574 0.79862 0.0
H517 H 0.66255 0.53908 0.79643 0.0
H518 H 0.68126 0.54639 0.75539 0.0
H519 H 0.7156 0.60332 0.75764 0.0
Tb520 Tb 0.35631 0.17185 0.78087 0.0
Tb521 Tb 0.39538 0.13907 0.77502 0.0
C522 C 0.31994 0.19378 0.78308 0.0
C523 C 0.28926 0.19199 0.78084 0.0
C524 C 0.27668 0.18991 0.7684 0.0
C525 C 0.25023 0.19348 0.76666 0.0
C526 C 0.23626 0.19966 0.7773 0.0
C527 C 0.24827 0.2005 0.78974 0.0
C528 C 0.27436 0.19668 0.79147 0.0
C529 C 0.38026 0.15605 0.80075 0.0
C530 C 0.32149 0.09932 0.7733 0.0
C531 C 0.43251 0.11948 0.77999 0.0
C532 C 0.46666 0.1321 0.77826 0.0
C533 C 0.48561 0.13836 0.78929 0.0
C534 C 0.51823 0.1526 0.78818 0.0
C535 C 0.53267 0.16058 0.77598 0.0
C536 C 0.51371 0.15375 0.76488 0.0
C537 C 0.48099 0.13984 0.766 0.0
C538 C 0.38501 0.161 0.75325 0.0
C539 C 0.42837 0.21401 0.77684 0.0
O540 O 0.33932 0.20017 0.77335 0.0
O541 O 0.32132 0.17459 0.79149 0.0
O542 O 0.36824 0.14083 0.79057 0.0
O543 O 0.37913 0.18174 0.8002 0.0
O544 O 0.32078 0.12592 0.77363 0.0
O545 O 0.34778 0.09822 0.77507 0.0
O546 O 0.4255 0.13528 0.78819 0.0
O547 O 0.41439 0.11077 0.76966 0.0
O548 O 0.37621 0.16254 0.76455 0.0
O549 O 0.40092 0.14654 0.75397 0.0
O550 O 0.43128 0.18874 0.77811 0.0
O551 O 0.40083 0.21253 0.77624 0.0
H552 H 0.28781 0.18657 0.76 0.0
H553 H 0.24157 0.19275 0.75695 0.0
H554 H 0.23781 0.20471 0.79815 0.0
H555 H 0.28369 0.19863 0.80115 0.0
H556 H 0.47517 0.13264 0.79885 0.0
H557 H 0.53216 0.1571 0.79689 0.0
H558 H 0.52424 0.15969 0.75535 0.0
H559 H 0.46705 0.13556 0.75732 0.0
Tb560 Tb 0.89762 0.21223 0.77979 0.0
Tb561 Tb 0.93207 0.28442 0.77603 0.0
C562 C 0.875 0.15356 0.78061 0.0
C563 C 0.87707 0.12523 0.77724 0.0
C564 C 0.85941 0.10592 0.76686 0.0
C565 C 0.85586 0.07605 0.76521 0.0
C566 C 0.8697 0.06451 0.77394 0.0
C567 C 0.88845 0.08439 0.784 0.0
C568 C 0.89199 0.11424 0.78566 0.0
C569 C 0.91123 0.24855 0.80068 0.0
C570 C 0.97112 0.24998 0.77379 0.0
C571 C 0.95174 0.34067 0.78176 0.0
C572 C 0.93892 0.36193 0.77963 0.0
C573 C 0.90808 0.35315 0.78338 0.0
C574 C 0.89626 0.37344 0.78154 0.0
C575 C 0.91485 0.40305 0.77581 0.0
C576 C 0.94562 0.41168 0.77194 0.0
C577 C 0.95751 0.39136 0.77385 0.0
C578 C 0.91264 0.2567 0.75314 0.0
C579 C 0.85676 0.24348 0.77633 0.0
O580 O 0.86834 0.16789 0.7715 0.0
O581 O 0.89436 0.17306 0.7893 0.0
O582 O 0.928 0.25301 0.79091 0.0
O583 O 0.88499 0.22257 0.79907 0.0
O584 O 0.94413 0.22306 0.77303 0.0
O585 O 0.97248 0.27708 0.7764 0.0
O586 O 0.93577 0.31724 0.78972 0.0
O587 O 0.96141 0.33221 0.7715 0.0
O588 O 0.90908 0.24375 0.76406 0.0
O589 O 0.92788 0.28671 0.75504 0.0
O590 O 0.88227 0.27105 0.77854 0.0
O591 O 0.85784 0.21743 0.77491 0.0
H592 H 0.84717 0.11335 0.7603 0.0
H593 H 0.84166 0.06172 0.75722 0.0
H594 H 0.89921 0.07633 0.79103 0.0
H595 H 0.90526 0.1281 0.79391 0.0
H596 H 0.89303 0.33065 0.78788 0.0
H597 H 0.87268 0.36607 0.78485 0.0
H598 H 0.96052 0.43406 0.76733 0.0
H599 H 0.98129 0.39867 0.77083 0.0
Tb600 Tb 0.38516 0.17755 0.59166 0.0
Tb601 Tb 0.34442 0.10675 0.59791 0.0
C602 C 0.42351 0.23534 0.58939 0.0
C603 C 0.4535 0.26327 0.59338 0.0
C604 C 0.45492 0.28097 0.6043 0.0
C605 C 0.48103 0.31075 0.60641 0.0
C606 C 0.50627 0.32369 0.59762 0.0
C607 C 0.50547 0.30526 0.58707 0.0
C608 C 0.4794 0.27549 0.58497 0.0
C609 C 0.3631 0.13763 0.57185 0.0
C610 C 0.41776 0.13941 0.60132 0.0
C611 C 0.30638 0.05012 0.5935 0.0
C612 C 0.27196 0.03038 0.5952 0.0
C613 C 0.25133 0.03919 0.58966 0.0
C614 C 0.21885 0.0199 0.59077 0.0
C615 C 0.20602 0.9914 0.59757 0.0
C616 C 0.22673 0.983 0.60339 0.0
C617 C 0.25934 1.00223 0.60216 0.0
C618 C 0.3526 0.13913 0.61943 0.0
C619 C 0.31296 0.14984 0.59368 0.0
O620 O 0.39985 0.22359 0.59752 0.0
O621 O 0.4247 0.21376 0.58241 0.0
O622 O 0.37346 0.13419 0.58245 0.0
O623 O 0.36538 0.16496 0.57185 0.0
O624 O 0.41856 0.1667 0.60082 0.0
O625 O 0.39156 0.11229 0.59909 0.0
O626 O 0.31539 0.07226 0.58477 0.0
O627 O 0.32368 0.05971 0.60404 0.0
O628 O 0.36316 0.14982 0.60828 0.0
O629 O 0.33659 0.10885 0.61859 0.0
O630 O 0.30943 0.12128 0.59372 0.0
O631 O 0.34077 0.17546 0.59421 0.0
H632 H 0.4353 0.27245 0.61092 0.0
H633 H 0.48106 0.32398 0.61478 0.0
H634 H 0.52423 0.31443 0.58001 0.0
H635 H 0.47886 0.26274 0.57634 0.0
H636 H 0.26018 0.06079 0.58424 0.0
H637 H 0.20384 0.02703 0.58597 0.0
H638 H 0.21779 0.96151 0.60889 0.0
H639 H 0.2747 0.995 0.60658 0.0
Tb640 Tb 0.88175 0.22068 0.59075 0.0
Tb641 Tb 0.95334 0.25269 0.59705 0.0
C642 C 0.8233 0.19923 0.58897 0.0
C643 C 0.79463 0.19931 0.59352 0.0
C644 C 0.7724 0.17396 0.60094 0.0
C645 C 0.74255 0.16993 0.60324 0.0
C646 C 0.73397 0.19107 0.59815 0.0
C647 C 0.75669 0.21729 0.59123 0.0
C648 C 0.78661 0.22127 0.58888 0.0
C649 C 0.92175 0.23663 0.57094 0.0
C650 C 0.91958 0.2928 0.59837 0.0
C651 C 1.01064 0.2723 0.59334 0.0
C652 C 0.03172 0.25958 0.59609 0.0
C653 C 0.02244 0.22826 0.59316 0.0
C654 C 0.04333 0.21703 0.59471 0.0
C655 C 0.07407 0.23681 0.59927 0.0
C656 C 0.08293 0.26788 0.60264 0.0
C657 C 0.06195 0.27911 0.60107 0.0
C658 C 0.92049 0.23198 0.61877 0.0
C659 C 0.91078 0.17754 0.59432 0.0
O660 O 0.83619 0.18773 0.59671 0.0
O661 O 0.84413 0.22283 0.58205 0.0
O662 O 0.92519 0.25146 0.58124 0.0
O663 O 0.8941 0.21185 0.57116 0.0
O664 O 0.89243 0.26599 0.59872 0.0
O665 O 0.9468 0.29375 0.59625 0.0
O666 O 0.98872 0.25692 0.58467 0.0
O667 O 1.0002 0.2809 0.60331 0.0
O668 O 0.91029 0.22929 0.60735 0.0
O669 O 0.95088 0.24744 0.61816 0.0
O670 O 0.93929 0.20285 0.59399 0.0
O671 O 0.88494 0.17941 0.5946 0.0
H672 H 0.7776 0.15638 0.60452 0.0
H673 H 0.72588 0.14976 0.60878 0.0
H674 H 0.75087 0.23394 0.58709 0.0
H675 H 0.80293 0.24082 0.58296 0.0
H676 H 0.99934 0.21262 0.58925 0.0
H677 H 0.0357 0.19315 0.59184 0.0
H678 H 0.10623 0.28367 0.60636 0.0
H679 H 0.06962 0.3033 0.60344 0.0
Tb680 Tb 0.84222 0.67979 0.59355 0.0
Tb681 Tb 0.80779 0.71371 0.5994 0.0
C682 C 0.86715 0.64556 0.59342 0.0
C683 C 0.86399 0.61389 0.59276 0.0
C684 C 0.85246 0.59289 0.60327 0.0
C685 C 0.85538 0.56593 0.60346 0.0
C686 C 0.87016 0.5594 0.59322 0.0
C687 C 0.88047 0.5798 0.58251 0.0
C688 C 0.87749 0.60664 0.58231 0.0
C689 C 0.82728 0.70333 0.57325 0.0
C690 C 0.76759 0.64077 0.59682 0.0
C691 C 0.7882 0.75226 0.59926 0.0
C692 C 0.80225 0.7867 0.5984 0.0
C693 C 0.8284 0.80519 0.59051 0.0
C694 C 0.84096 0.83776 0.58981 0.0
C695 C 0.82762 0.85252 0.59697 0.0
C696 C 0.80171 0.83383 0.60498 0.0
C697 C 0.7892 0.80136 0.60567 0.0
C698 C 0.81959 0.6898 0.62005 0.0
C699 C 0.88297 0.75111 0.59686 0.0
O700 O 0.85806 0.65364 0.60391 0.0
O701 O 0.86216 0.65747 0.58297 0.0
O702 O 0.81078 0.68998 0.583 0.0
O703 O 0.85334 0.70287 0.5743 0.0
O704 O 0.79462 0.64095 0.59674 0.0
O705 O 0.76649 0.66716 0.59655 0.0
O706 O 0.78978 0.73777 0.58893 0.0
O707 O 0.79418 0.74159 0.60983 0.0
O708 O 0.83825 0.70287 0.61063 0.0
O709 O 0.79417 0.69098 0.61804 0.0
O710 O 0.85655 0.75203 0.59588 0.0
O711 O 0.8825 0.72432 0.59803 0.0
H712 H 0.84232 0.59788 0.61158 0.0
H713 H 0.84732 0.55097 0.61192 0.0
H714 H 0.89145 0.57536 0.57434 0.0
H715 H 0.88698 0.62249 0.57415 0.0
H716 H 0.83898 0.79448 0.58481 0.0
H717 H 0.86072 0.85126 0.58346 0.0
H718 H 0.79114 0.84432 0.61082 0.0
H719 H 0.7692 0.78763 0.61189 0.0
H720 H 0.44652 0.91166 0.10285 0.0
H721 H 0.45466 0.86652 0.101 0.0
H722 H 0.55158 0.92503 0.11232 0.0
H723 H 0.54386 0.96983 0.11398 0.0
H724 H 0.54803 0.89167 0.09187 0.0
H725 H 0.49554 0.87075 0.13341 0.0
H726 H 0.45183 0.86257 0.14764 0.0
H727 H 0.38752 0.78361 0.12474 0.0
H728 H 0.43088 0.79135 0.11031 0.0
H729 H 0.60327 0.7935 0.1142 0.0
H730 H 0.58324 0.82978 0.11304 0.0
H731 H 0.49686 0.7575 0.09625 0.0
H732 H 0.51712 0.72112 0.09691 0.0
H733 H 0.48827 0.79254 0.1165 0.0
H734 H 0.5447 0.81041 0.07682 0.0
H735 H 0.5897 0.8203 0.06309 0.0
H736 H 0.64783 0.90711 0.08295 0.0
H737 H 0.60328 0.89751 0.09694 0.0
C738 C 0.46945 0.91477 0.10505 0.0
C739 C 0.49454 0.94442 0.10852 0.0
C740 C 0.47409 0.88896 0.10399 0.0
C741 C 0.50379 0.89236 0.10651 0.0
C742 C 0.52855 0.92182 0.1102 0.0
C743 C 0.52403 0.94747 0.11118 0.0
C744 C 0.50986 0.86578 0.10514 0.0
C745 C 0.53502 0.87008 0.09732 0.0
C746 C 0.49232 0.83716 0.11191 0.0
C747 C 0.46638 0.83179 0.12074 0.0
C748 C 0.47206 0.85167 0.1314 0.0
C749 C 0.44736 0.84709 0.13949 0.0
C750 C 0.41691 0.82258 0.13706 0.0
C751 C 0.41114 0.80251 0.12658 0.0
C752 C 0.43577 0.80695 0.11846 0.0
C753 C 0.58021 0.7853 0.11005 0.0
C754 C 0.56201 0.75431 0.10554 0.0
C755 C 0.56867 0.80606 0.10951 0.0
C756 C 0.53861 0.79637 0.10451 0.0
C757 C 0.52008 0.7654 0.10019 0.0
C758 C 0.53173 0.74463 0.10062 0.0
C759 C 0.52715 0.81907 0.1036 0.0
C760 C 0.50094 0.81397 0.11093 0.0
C761 C 0.54386 0.84714 0.09644 0.0
C762 C 0.57069 0.85311 0.08799 0.0
C763 C 0.56714 0.83149 0.07833 0.0
C764 C 0.59256 0.83707 0.07049 0.0
C765 C 0.62162 0.86429 0.07216 0.0
C766 C 0.6253 0.88602 0.08167 0.0
C767 C 0.59996 0.88054 0.08954 0.0
H768 H 0.64127 0.86856 0.06608 0.0
H769 H 0.3978 0.81912 0.14331 0.0
H770 H 0.32339 0.82329 0.12266 0.0
H771 H 0.28681 0.7669 0.12177 0.0
H772 H 0.25697 0.77718 0.08367 0.0
H773 H 0.29318 0.83377 0.08465 0.0
H774 H 0.20845 0.74224 0.09634 0.0
H775 H 0.30177 0.74044 0.08927 0.0
H776 H 0.35576 0.75021 0.092 0.0
H777 H 0.33099 0.70359 0.1288 0.0
H778 H 0.27695 0.694 0.12641 0.0
H779 H 0.14742 0.56135 0.09926 0.0
H780 H 0.19188 0.61475 0.09631 0.0
H781 H 0.14395 0.65115 0.11918 0.0
H782 H 0.0993 0.5984 0.12166 0.0
H783 H 0.23327 0.66063 0.1102 0.0
H784 H 0.15474 0.7187 0.10825 0.0
H785 H 0.10146 0.70485 0.10104 0.0
H786 H 0.09964 0.63599 0.07507 0.0
H787 H 0.15307 0.64975 0.08197 0.0
C788 C 0.30934 0.81348 0.11401 0.0
C789 C 0.31119 0.83307 0.10373 0.0
C790 C 0.28847 0.78114 0.11349 0.0
C791 C 0.26922 0.76749 0.10259 0.0
C792 C 0.27143 0.787 0.09221 0.0
C793 C 0.29209 0.81941 0.09279 0.0
C794 C 0.24525 0.73337 0.10244 0.0
C795 C 0.21405 0.72449 0.09933 0.0
C796 C 0.25243 0.70978 0.10591 0.0
C797 C 0.2853 0.71671 0.1077 0.0
C798 C 0.3079 0.73261 0.09803 0.0
C799 C 0.3385 0.73801 0.09949 0.0
C800 C 0.34676 0.72742 0.11055 0.0
C801 C 0.32452 0.71169 0.12022 0.0
C802 C 0.2939 0.70627 0.11882 0.0
C803 C 0.14658 0.58078 0.10374 0.0
C804 C 0.11971 0.57575 0.11055 0.0
C805 C 0.17198 0.61129 0.10204 0.0
C806 C 0.17102 0.63719 0.10723 0.0
C807 C 0.14494 0.6318 0.11471 0.0
C808 C 0.11945 0.60154 0.11619 0.0
C809 C 0.19655 0.66996 0.10462 0.0
C810 C 0.2279 0.67851 0.10717 0.0
C811 C 0.18982 0.69313 0.10008 0.0
C812 C 0.15784 0.68511 0.09572 0.0
C813 C 0.14305 0.70073 0.10095 0.0
C814 C 0.1128 0.69287 0.09693 0.0
C815 C 0.09715 0.66951 0.08763 0.0
C816 C 0.11175 0.65403 0.0823 0.0
C817 C 0.14201 0.66183 0.08627 0.0
H818 H 0.07371 0.66343 0.08455 0.0
H819 H 0.37041 0.73147 0.11163 0.0
H820 H 0.23983 0.53489 0.12047 0.0
H821 H 0.29627 0.55327 0.12021 0.0
H822 H 0.28029 0.4801 0.09319 0.0
H823 H 0.22377 0.46158 0.09341 0.0
H824 H 0.31604 0.48303 0.11493 0.0
H825 H 0.31399 0.55397 0.083 0.0
H826 H 0.30172 0.59399 0.07525 0.0
H827 H 0.35903 0.65663 0.10538 0.0
H828 H 0.37134 0.6168 0.11341 0.0
H829 H 0.46774 0.5203 0.09845 0.0
H830 H 0.4141 0.51045 0.09771 0.0
H831 H 0.44211 0.5954 0.11927 0.0
H832 H 0.49662 0.60608 0.1196 0.0
H833 H 0.40049 0.5888 0.10171 0.0
H834 H 0.40356 0.52191 0.134 0.0
H835 H 0.41541 0.48319 0.14364 0.0
H836 H 0.35556 0.41456 0.11573 0.0
H837 H 0.34369 0.45301 0.1058 0.0
C838 C 0.24839 0.52285 0.11441 0.0
C839 C 0.22736 0.49672 0.10699 0.0
C840 C 0.28065 0.5335 0.11421 0.0
C841 C 0.2925 0.51812 0.10665 0.0
C842 C 0.27163 0.49235 0.09907 0.0
C843 C 0.23939 0.4819 0.09915 0.0
C844 C 0.32636 0.52773 0.10721 0.0
C845 C 0.3345 0.50599 0.11186 0.0
C846 C 0.35048 0.55822 0.1038 0.0
C847 C 0.34334 0.58227 0.09889 0.0
C848 C 0.32379 0.57618 0.08804 0.0
C849 C 0.31687 0.59885 0.08358 0.0
C850 C 0.32952 0.6278 0.08984 0.0
C851 C 0.34922 0.63418 0.10055 0.0
C852 C 0.35621 0.61158 0.10504 0.0
C853 C 0.46258 0.53696 0.10305 0.0
C854 C 0.48637 0.56375 0.10926 0.0
C855 C 0.43179 0.53123 0.10265 0.0
C856 C 0.42373 0.55168 0.10874 0.0
C857 C 0.44764 0.5791 0.11458 0.0
C858 C 0.47876 0.58517 0.11479 0.0
C859 C 0.39021 0.54377 0.10914 0.0
C860 C 0.3821 0.56583 0.10479 0.0
C861 C 0.36601 0.51375 0.11311 0.0
C862 C 0.37295 0.49045 0.11909 0.0
C863 C 0.39309 0.49862 0.12986 0.0
C864 C 0.39979 0.47671 0.13538 0.0
C865 C 0.3863 0.44645 0.13028 0.0
C866 C 0.36602 0.43802 0.11966 0.0
C867 C 0.35927 0.45985 0.11409 0.0
H868 H 0.39152 0.42952 0.13457 0.0
H869 H 0.32412 0.64531 0.08638 0.0
H870 H 0.91415 0.43584 0.92848 0.0
H871 H 0.86777 0.4422 0.9303 0.0
H872 H 0.92825 0.54222 0.93393 0.0
H873 H 0.97409 0.53622 0.9323 0.0
H874 H 0.88281 0.52136 0.9515 0.0
H875 H 0.89059 0.50732 0.90533 0.0
H876 H 0.89174 0.47808 0.88617 0.0
H877 H 0.80028 0.40173 0.89578 0.0
H878 H 0.79878 0.43041 0.91509 0.0
H879 H 0.80007 0.59708 0.93261 0.0
H880 H 0.83529 0.57574 0.93404 0.0
H881 H 0.75587 0.48184 0.93344 0.0
H882 H 0.72021 0.50294 0.93243 0.0
H883 H 0.8035 0.48984 0.91647 0.0
H884 H 0.79288 0.50818 0.96087 0.0
H885 H 0.7921 0.53791 0.9799 0.0
H886 H 0.88916 0.60624 0.97377 0.0
H887 H 0.8904 0.5772 0.95457 0.0
C888 C 0.91749 0.45915 0.92966 0.0
C889 C 0.94793 0.48548 0.93022 0.0
C890 C 0.89098 0.46276 0.93068 0.0
C891 C 0.89453 0.49274 0.93223 0.0
C892 C 0.92486 0.51886 0.93282 0.0
C893 C 0.95115 0.51532 0.93182 0.0
C894 C 0.86712 0.49767 0.93318 0.0
C895 C 0.86553 0.51454 0.94382 0.0
C896 C 0.84394 0.48792 0.92337 0.0
C897 C 0.84473 0.47082 0.91173 0.0
C898 C 0.87083 0.4842 0.9034 0.0
C899 C 0.87153 0.46775 0.89251 0.0
C900 C 0.84614 0.43802 0.88978 0.0
C901 C 0.81995 0.42473 0.89792 0.0
C902 C 0.81916 0.44107 0.90883 0.0
C903 C 0.78993 0.5719 0.93302 0.0
C904 C 0.75717 0.55182 0.93245 0.0
C905 C 0.81017 0.55972 0.93376 0.0
C906 C 0.7982 0.52719 0.93392 0.0
C907 C 0.7656 0.50701 0.9333 0.0
C908 C 0.74527 0.51918 0.93266 0.0
C909 C 0.82001 0.51457 0.93455 0.0
C910 C 0.82046 0.4962 0.92426 0.0
C911 C 0.84226 0.52302 0.94466 0.0
C912 C 0.84165 0.54061 0.95621 0.0
C913 C 0.81399 0.52969 0.96351 0.0
C914 C 0.81348 0.5464 0.97434 0.0
C915 C 0.84054 0.57398 0.97803 0.0
C916 C 0.8682 0.58488 0.9709 0.0
C917 C 0.86883 0.56829 0.96005 0.0
H918 H 0.8401 0.58688 0.98642 0.0
H919 H 0.84673 0.42532 0.88135 0.0
H920 H 0.45743 0.21579 0.92624 0.0
H921 H 0.47642 0.27187 0.92538 0.0
H922 H 0.5711 0.29126 0.93212 0.0
H923 H 0.55202 0.23509 0.93376 0.0
H924 H 0.56183 0.33185 0.94504 0.0
H925 H 0.5447 0.29575 0.90135 0.0
H926 H 0.51508 0.26156 0.88303 0.0
H927 H 0.44553 0.28945 0.88665 0.0
H928 H 0.47448 0.32348 0.90512 0.0
H929 H 0.62049 0.49345 0.92716 0.0
H930 H 0.61189 0.43982 0.92695 0.0
H931 H 0.51207 0.40303 0.92325 0.0
H932 H 0.52031 0.45585 0.92331 0.0
H933 H 0.5311 0.37298 0.90731 0.0
H934 H 0.54651 0.40485 0.95253 0.0
H935 H 0.57686 0.43921 0.9707 0.0
H936 H 0.65149 0.41984 0.96351 0.0
H937 H 0.62172 0.38566 0.94518 0.0
C938 C 0.48222 0.23187 0.92779 0.0
C939 C 0.50314 0.22067 0.92999 0.0
C940 C 0.49315 0.26405 0.92711 0.0
C941 C 0.52535 0.28592 0.92837 0.0
C942 C 0.5462 0.27492 0.93098 0.0
C943 C 0.53524 0.2427 0.93179 0.0
C944 C 0.53713 0.32013 0.92681 0.0
C945 C 0.55553 0.34089 0.93667 0.0
C946 C 0.52894 0.33211 0.91593 0.0
C947 C 0.51168 0.31202 0.90469 0.0
C948 C 0.523 0.29447 0.89829 0.0
C949 C 0.50634 0.27512 0.88787 0.0
C950 C 0.47842 0.27329 0.8837 0.0
C951 C 0.46715 0.29088 0.8899 0.0
C952 C 0.48371 0.31024 0.90034 0.0
C953 C 0.59675 0.47392 0.92623 0.0
C954 C 0.57111 0.47908 0.92533 0.0
C955 C 0.59185 0.44327 0.92615 0.0
C956 C 0.56126 0.41731 0.92519 0.0
C957 C 0.53587 0.42258 0.92399 0.0
C958 C 0.54069 0.45297 0.92409 0.0
C959 C 0.555 0.38446 0.92569 0.0
C960 C 0.5377 0.36396 0.91559 0.0
C961 C 0.56438 0.37281 0.9363 0.0
C962 C 0.58205 0.39299 0.94741 0.0
C963 C 0.56948 0.40808 0.95478 0.0
C964 C 0.58656 0.42749 0.96511 0.0
C965 C 0.61612 0.43177 0.96824 0.0
C966 C 0.62861 0.41654 0.96106 0.0
C967 C 0.61164 0.39714 0.95071 0.0
H968 H 0.62932 0.44682 0.97623 0.0
H969 H 0.46555 0.2583 0.87563 0.0
H970 H 0.60504 0.08399 0.93439 0.0
H971 H 0.65762 0.12925 0.93565 0.0
H972 H 0.62209 0.18944 0.92354 0.0
H973 H 0.56872 0.14379 0.92223 0.0
H974 H 0.67771 0.1998 0.91029 0.0
H975 H 0.64121 0.19231 0.9537 0.0
H976 H 0.61583 0.16439 0.97386 0.0
H977 H 0.68743 0.13973 0.9791 0.0
H978 H 0.71294 0.16699 0.95883 0.0
H979 H 0.82833 0.33231 0.92136 0.0
H980 H 0.77164 0.29622 0.92232 0.0
H981 H 0.7878 0.22612 0.93996 0.0
H982 H 0.84455 0.26238 0.93921 0.0
H983 H 0.73923 0.22553 0.95108 0.0
H984 H 0.77106 0.22488 0.90714 0.0
H985 H 0.79593 0.24849 0.88628 0.0
H986 H 0.73336 0.28495 0.88158 0.0
H987 H 0.70834 0.26179 0.90251 0.0
C988 C 0.60818 0.10677 0.93196 0.0
C989 C 0.58254 0.11019 0.92818 0.0
C990 C 0.63835 0.13269 0.93276 0.0
C991 C 0.64375 0.16274 0.9298 0.0
C992 C 0.61836 0.16642 0.92591 0.0
C993 C 0.5879 0.14036 0.92521 0.0
C994 C 0.67619 0.1899 0.93064 0.0
C995 C 0.69099 0.20599 0.91926 0.0
C996 C 0.6937 0.19729 0.94229 0.0
C997 C 0.67891 0.18158 0.95468 0.0
C998 C 0.65147 0.1808 0.95911 0.0
C999 C 0.63705 0.16508 0.97056 0.0
C1000 C 0.64999 0.15026 0.97774 0.0
C1001 C 0.67744 0.15122 0.97352 0.0
C1002 C 0.69191 0.16684 0.96205 0.0
C1003 C 0.81978 0.3092 0.92545 0.0
C1004 C 0.84094 0.30009 0.93011 0.0
C1005 C 0.78736 0.28858 0.92599 0.0
C1006 C 0.77536 0.2582 0.93101 0.0
C1007 C 0.79642 0.2494 0.93603 0.0
C1008 C 0.82887 0.27015 0.93561 0.0
C1009 C 0.74101 0.23523 0.93066 0.0
C1010 C 0.72586 0.21982 0.94214 0.0
C1011 C 0.72325 0.22817 0.91907 0.0
C1012 C 0.73807 0.24191 0.90645 0.0
C1013 C 0.76275 0.23811 0.90169 0.0
C1014 C 0.77685 0.25139 0.88985 0.0
C1015 C 0.76631 0.26831 0.88263 0.0
C1016 C 0.74155 0.27188 0.8872 0.0
C1017 C 0.72738 0.25867 0.89905 0.0
H1018 H 0.77725 0.27859 0.87346 0.0
H1019 H 0.63876 0.13806 0.98659 0.0
H1020 H 0.18958 0.05385 0.43271 0.0
H1021 H 0.17043 0.09092 0.43389 0.0
H1022 H 0.26149 0.16286 0.44721 0.0
H1023 H 0.28029 0.12553 0.44677 0.0
H1024 H 0.21805 0.16408 0.46118 0.0
H1025 H 0.23349 0.15946 0.4153 0.0
H1026 H 0.22602 0.13345 0.39416 0.0
H1027 H 0.1267 0.09842 0.39629 0.0
H1028 H 0.13353 0.12391 0.41753 0.0
H1029 H 0.21691 0.30322 0.44863 0.0
H1030 H 0.22564 0.25886 0.44831 0.0
H1031 H 0.12777 0.19674 0.43953 0.0
H1032 H 0.11871 0.2415 0.43972 0.0
H1033 H 0.16778 0.18596 0.42405 0.0
H1034 H 0.15373 0.19537 0.46914 0.0
H1035 H 0.16214 0.2228 0.48998 0.0
H1036 H 0.25981 0.24982 0.48914 0.0
H1037 H 0.2521 0.22296 0.46819 0.0
C1038 C 0.20554 0.07749 0.43598 0.0
C1039 C 0.23657 0.08656 0.43964 0.0
C1040 C 0.19461 0.09882 0.4365 0.0
C1041 C 0.21456 0.12989 0.44051 0.0
C1042 C 0.24559 0.13907 0.44406 0.0
C1043 C 0.25646 0.11772 0.44365 0.0
C1044 C 0.20311 0.15276 0.44134 0.0
C1045 C 0.20735 0.16904 0.453 0.0
C1046 C 0.1881 0.15857 0.43084 0.0
C1047 C 0.18398 0.14329 0.41807 0.0
C1048 C 0.21003 0.146 0.41131 0.0
C1049 C 0.20592 0.1314 0.3993 0.0
C1050 C 0.1759 0.11422 0.3939 0.0
C1051 C 0.14993 0.11169 0.40049 0.0
C1052 C 0.15391 0.12622 0.41251 0.0
C1053 C 0.19707 0.28018 0.44666 0.0
C1054 C 0.16703 0.276 0.44423 0.0
C1055 C 0.20214 0.25474 0.44655 0.0
C1056 C 0.17733 0.22439 0.44403 0.0
C1057 C 0.14724 0.21997 0.44155 0.0
C1058 C 0.14207 0.24553 0.44173 0.0
C1059 C 0.18347 0.19771 0.44377 0.0
C1060 C 0.17819 0.18071 0.43225 0.0
C1061 C 0.19765 0.19129 0.45438 0.0
C1062 C 0.20236 0.20731 0.46704 0.0
C1063 C 0.17705 0.20735 0.47335 0.0
C1064 C 0.18169 0.22277 0.48519 0.0
C1065 C 0.2115 0.23808 0.49087 0.0
C1066 C 0.23673 0.23795 0.48473 0.0
C1067 C 0.23223 0.2226 0.47288 0.0
H1068 H 0.21504 0.25001 0.50004 0.0
H1069 H 0.17276 0.10293 0.3846 0.0
H1070 H 1.01296 0.1502 0.43278 0.0
H1071 H 0.97733 0.09368 0.43436 0.0
H1072 H 0.90253 0.10976 0.44629 0.0
H1073 H 0.93836 0.16619 0.44543 0.0
H1074 H 0.90355 0.06728 0.46117 0.0
H1075 H 0.90827 0.0847 0.41489 0.0
H1076 H 0.93492 0.10264 0.39383 0.0
H1077 H 0.97216 0.04062 0.39761 0.0
H1078 H 0.94602 0.02259 0.41878 0.0
H1079 H 0.76407 0.92974 0.44825 0.0
H1080 H 0.80977 0.9819 0.44777 0.0
H1081 H 0.86962 0.94265 0.44101 0.0
H1082 H 0.82338 0.88957 0.44137 0.0
H1083 H 0.88279 0.99386 0.42475 0.0
H1084 H 0.8716 0.97158 0.46988 0.0
H1085 H 0.84325 0.95304 0.49056 0.0
H1086 H 0.8172 0.02412 0.48876 0.0
H1087 H 0.84498 0.0428 0.46796 0.0
C1088 C 0.98896 0.14175 0.4358 0.0
C1089 C 0.97859 0.16289 0.43896 0.0
C1090 C 0.96851 0.10935 0.43657 0.0
C1091 C 0.93711 0.09735 0.44034 0.0
C1092 C 0.92663 0.11839 0.44335 0.0
C1093 C 0.94709 0.15074 0.44269 0.0
C1094 C 0.91517 0.06298 0.44148 0.0
C1095 C 0.89888 0.05132 0.45316 0.0
C1096 C 0.90989 0.04182 0.43122 0.0
C1097 C 0.9255 0.05257 0.41848 0.0
C1098 C 0.92234 0.07507 0.41128 0.0
C1099 C 0.93732 0.08522 0.39931 0.0
C1100 C 0.95531 0.07285 0.39441 0.0
C1101 C 0.95827 0.05023 0.40144 0.0
C1102 C 0.94337 0.04002 0.41341 0.0
C1103 C 0.78686 0.93193 0.44668 0.0
C1104 C 0.78998 0.90531 0.44487 0.0
C1105 C 0.81306 0.96191 0.44647 0.0
C1106 C 0.84315 0.96619 0.44451 0.0
C1107 C 0.84657 0.93981 0.4426 0.0
C1108 C 0.82017 0.90953 0.44287 0.0
C1109 C 0.87054 0.99853 0.44427 0.0
C1110 C 0.88787 1.0098 0.43281 0.0
C1111 C 0.87676 0.01942 0.45472 0.0
C1112 C 0.86028 1.00849 0.46731 0.0
C1113 C 0.85967 0.98314 0.47385 0.0
C1114 C 0.84372 0.97262 0.4856 0.0
C1115 C 0.82841 0.98737 0.49096 0.0
C1116 C 0.82908 1.01272 0.48459 0.0
C1117 C 0.84497 0.02332 0.47283 0.0
H1118 H 0.81606 0.97919 0.50006 0.0
H1119 H 0.96688 0.08074 0.38515 0.0
H1120 H 0.13224 0.84503 0.44752 0.0
H1121 H 0.0794 0.83661 0.44536 0.0
H1122 H 0.11686 0.93476 0.43717 0.0
H1123 H 0.17054 0.94363 0.43936 0.0
H1124 H 0.06481 0.91018 0.45373 0.0
H1125 H 0.09047 0.88579 0.41283 0.0
H1126 H 0.11133 0.86199 0.39773 0.0
H1127 H 0.04036 0.77009 0.40981 0.0
H1128 H 1.01944 0.79333 0.42519 0.0
H1129 H 0.90978 0.87223 0.43351 0.0
H1130 H 0.96634 0.89186 0.4329 0.0
H1131 H 0.95007 0.79976 0.44246 0.0
H1132 H 0.89362 0.78007 0.44348 0.0
H1133 H 0.99379 0.82823 0.4227 0.0
H1134 H 0.97301 0.85434 0.46541 0.0
H1135 H 0.95328 0.87897 0.48065 0.0
H1136 H 1.01589 0.96937 0.46436 0.0
H1137 H 0.03569 0.94519 0.44889 0.0
C1138 C 0.12949 0.86501 0.44529 0.0
C1139 C 0.1558 0.89502 0.4435 0.0
C1140 C 0.09913 0.86007 0.44404 0.0
C1141 C 0.09415 0.88491 0.44087 0.0
C1142 C 0.12021 0.91522 0.43955 0.0
C1143 C 0.15085 0.92024 0.44081 0.0
C1144 C 0.06154 0.87845 0.4387 0.0
C1145 C 0.04944 0.89278 0.44675 0.0
C1146 C 0.04141 0.85553 0.42966 0.0
C1147 C 0.05349 0.84134 0.42023 0.0
C1148 C 0.07942 0.8605 0.41233 0.0
C1149 C 0.09125 0.84711 0.40372 0.0
C1150 C 0.07719 0.81455 0.40282 0.0
C1151 C 0.05122 0.79532 0.41052 0.0
C1152 C 0.03935 0.80859 0.41918 0.0
C1153 C 0.91817 0.85612 0.43557 0.0
C1154 C 0.89696 0.82452 0.43862 0.0
C1155 C 0.95055 0.8674 0.43515 0.0
C1156 C 0.96246 0.84734 0.43773 0.0
C1157 C 0.94139 0.81564 0.4404 0.0
C1158 C 0.90904 0.80438 0.44091 0.0
C1159 C 0.99687 0.85934 0.43796 0.0
C1160 C 1.00929 0.84602 0.42952 0.0
C1161 C 1.0173 0.88338 0.44655 0.0
C1162 C 1.00555 0.89792 0.45589 0.0
C1163 C 0.98237 0.87944 0.465 0.0
C1164 C 0.97122 0.89332 0.47369 0.0
C1165 C 0.98325 0.9257 0.47344 0.0
C1166 C 1.00655 0.94428 0.46452 0.0
C1167 C 1.01775 0.93051 0.4558 0.0
H1168 H 0.97459 0.9364 0.48018 0.0
H1169 H 0.08641 0.80422 0.39615 0.0
H1170 H 0.39422 0.84373 0.27223 0.0
H1171 H 0.42985 0.82268 0.27106 0.0
H1172 H 0.50315 0.91137 0.25648 0.0
H1173 H 0.46732 0.93213 0.25709 0.0
H1174 H 0.50035 0.86453 0.24276 0.0
H1175 H 0.50133 0.88718 0.28841 0.0
H1176 H 0.47731 0.88305 0.30978 0.0
H1177 H 0.44007 0.78348 0.3097 0.0
H1178 H 0.46356 0.78698 0.28824 0.0
H1179 H 0.64161 0.86878 0.25552 0.0
H1180 H 0.59592 0.87549 0.2556 0.0
H1181 H 0.53673 0.77823 0.26578 0.0
H1182 H 0.58288 0.77114 0.26574 0.0
H1183 H 0.52592 0.82001 0.28086 0.0
H1184 H 0.53071 0.79844 0.23642 0.0
H1185 H 0.55595 0.80294 0.21533 0.0
H1186 H 0.5825 0.90013 0.21313 0.0
H1187 H 0.55785 0.89635 0.23432 0.0
C1188 C 0.41788 0.85874 0.26872 0.0
C1189 C 0.42787 0.8897 0.26478 0.0
C1190 C 0.43834 0.84673 0.26816 0.0
C1191 C 0.46932 0.86549 0.26378 0.0
C1192 C 0.47938 0.89642 0.25991 0.0
C1193 C 0.45894 0.90841 0.26042 0.0
C1194 C 0.49128 0.85297 0.26299 0.0
C1195 C 0.50607 0.85501 0.25112 0.0
C1196 C 0.49792 0.83938 0.27376 0.0
C1197 C 0.48388 0.8373 0.28666 0.0
C1198 C 0.48781 0.86438 0.2929 0.0
C1199 C 0.47433 0.86216 0.30504 0.0
C1200 C 0.45709 0.83301 0.31108 0.0
C1201 C 0.45337 0.80603 0.305 0.0
C1202 C 0.46678 0.80812 0.29286 0.0
C1203 C 0.61894 0.84865 0.25775 0.0
C1204 C 0.61598 0.81938 0.26064 0.0
C1205 C 0.59276 0.85255 0.25773 0.0
C1206 C 0.56288 0.82734 0.26059 0.0
C1207 C 0.55962 0.79798 0.26351 0.0
C1208 C 0.58595 0.79395 0.26342 0.0
C1209 C 0.53557 0.83249 0.26075 0.0
C1210 C 0.51977 0.82906 0.27246 0.0
C1211 C 0.52795 0.84478 0.24984 0.0
C1212 C 0.54256 0.84714 0.23701 0.0
C1213 C 0.54211 0.82083 0.23149 0.0
C1214 C 0.55629 0.82324 0.2195 0.0
C1215 C 0.57085 0.85181 0.2129 0.0
C1216 C 0.5712 0.87801 0.21825 0.0
C1217 C 0.55709 0.87573 0.23025 0.0
H1218 H 0.58183 0.85364 0.20362 0.0
H1219 H 0.44667 0.83134 0.32047 0.0
H1220 H 0.18804 0.791 0.2582 0.0
H1221 H 0.17909 0.73798 0.2596 0.0
H1222 H 0.27834 0.77406 0.26501 0.0
H1223 H 0.28771 0.82787 0.26356 0.0
H1224 H 0.25131 0.72271 0.24843 0.0
H1225 H 0.23172 0.74727 0.29057 0.0
H1226 H 0.20954 0.76726 0.30686 0.0
H1227 H 0.11618 0.69694 0.29586 0.0
H1228 H 0.13777 0.67684 0.27934 0.0
H1229 H 0.21785 0.56895 0.26803 0.0
H1230 H 0.23688 0.62527 0.26824 0.0
H1231 H 0.14271 0.60714 0.2614 0.0
H1232 H 0.12356 0.55091 0.26078 0.0
H1233 H 0.17339 0.6514 0.28061 0.0
H1234 H 0.19418 0.63045 0.23712 0.0
H1235 H 0.21703 0.61091 0.22094 0.0
H1236 H 0.30965 0.67489 0.23514 0.0
H1237 H 0.28728 0.69448 0.25155 0.0
C1238 C 0.20814 0.78791 0.25966 0.0
C1239 C 0.23865 0.8139 0.26087 0.0
C1240 C 0.2029 0.75742 0.26049 0.0
C1241 C 0.22793 0.75197 0.26264 0.0
C1242 C 0.25863 0.77772 0.26341 0.0
C1243 C 0.26395 0.80847 0.26257 0.0
C1244 C 0.2214 0.71922 0.2643 0.0
C1245 C 0.23477 0.70727 0.25564 0.0
C1246 C 0.19954 0.69893 0.27361 0.0
C1247 C 0.18639 0.71068 0.28364 0.0
C1248 C 0.20645 0.73619 0.29156 0.0
C1249 C 0.19398 0.74753 0.30084 0.0
C1250 C 0.16147 0.7334 0.30238 0.0
C1251 C 0.14136 0.70786 0.29465 0.0
C1252 C 0.1537 0.69646 0.28533 0.0
C1253 C 0.20115 0.57686 0.26645 0.0
C1254 C 0.16909 0.55517 0.26434 0.0
C1255 C 0.21211 0.60913 0.26664 0.0
C1256 C 0.19127 0.62046 0.26476 0.0
C1257 C 0.15922 0.59894 0.26292 0.0
C1258 C 0.14827 0.56671 0.26264 0.0
C1259 C 0.20272 0.65472 0.26455 0.0
C1260 C 0.19025 0.66694 0.27352 0.0
C1261 C 0.22556 0.67524 0.25559 0.0
C1262 C 0.23903 0.66367 0.24566 0.0
C1263 C 0.2194 0.64017 0.23686 0.0
C1264 C 0.23226 0.62911 0.22764 0.0
C1265 C 0.26477 0.64158 0.22703 0.0
C1266 C 0.28448 0.66521 0.23563 0.0
C1267 C 0.27172 0.6763 0.24489 0.0
H1268 H 0.27468 0.633 0.21988 0.0
H1269 H 0.15186 0.74222 0.30957 0.0
H1270 H 0.51123 0.59078 0.25992 0.0
H1271 H 0.45497 0.55384 0.25901 0.0
H1272 H 0.43601 0.62893 0.26634 0.0
H1273 H 0.49239 0.66589 0.26802 0.0
H1274 H 0.39531 0.57858 0.27914 0.0
H1275 H 0.43083 0.59924 0.23547 0.0
H1276 H 0.46463 0.60464 0.21691 0.0
H1277 H 0.4367 0.50719 0.21975 0.0
H1278 H 0.40309 0.5013 0.23845 0.0
H1279 H 0.23326 0.4767 0.26089 0.0
H1280 H 0.28712 0.52153 0.26089 0.0
H1281 H 0.32342 0.45838 0.25695 0.0
H1282 H 0.27029 0.41392 0.2568 0.0
H1283 H 0.35357 0.5081 0.24106 0.0
H1284 H 0.32175 0.48995 0.28625 0.0
H1285 H 0.28732 0.4853 0.30447 0.0
H1286 H 0.30744 0.57965 0.29798 0.0
H1287 H 0.34165 0.58468 0.2796 0.0
C1288 C 0.49521 0.59948 0.26159 0.0
C1289 C 0.50659 0.63151 0.26398 0.0
C1290 C 0.46293 0.57831 0.26088 0.0
C1291 C 0.44113 0.58864 0.26231 0.0
C1292 C 0.4523 0.62038 0.26508 0.0
C1293 C 0.48463 0.64157 0.26591 0.0
C1294 C 0.40681 0.56629 0.26075 0.0
C1295 C 0.38614 0.56355 0.27071 0.0
C1296 C 0.39466 0.54654 0.24977 0.0
C1297 C 0.4146 0.54989 0.23843 0.0
C1298 C 0.43204 0.579 0.23218 0.0
C1299 C 0.45115 0.58215 0.22163 0.0
C1300 C 0.45285 0.55629 0.21716 0.0
C1301 C 0.43537 0.5272 0.22322 0.0
C1302 C 0.41626 0.52394 0.23379 0.0
C1303 C 0.25272 0.47241 0.25994 0.0
C1304 C 0.24734 0.44162 0.25891 0.0
C1305 C 0.2835 0.49805 0.25999 0.0
C1306 C 0.30937 0.49331 0.25902 0.0
C1307 C 0.30392 0.46267 0.2577 0.0
C1308 C 0.27337 0.43719 0.25768 0.0
C1309 C 0.34234 0.51981 0.2596 0.0
C1310 C 0.36274 0.52341 0.24942 0.0
C1311 C 0.35413 0.54046 0.27031 0.0
C1312 C 0.33398 0.53758 0.28148 0.0
C1313 C 0.31867 0.50963 0.28866 0.0
C1314 C 0.29922 0.50693 0.29902 0.0
C1315 C 0.29514 0.53214 0.30236 0.0
C1316 C 0.31059 0.56013 0.29537 0.0
C1317 C 0.33002 0.56292 0.28499 0.0
H1318 H 0.28005 0.53 0.31037 0.0
H1319 H 0.46767 0.55877 0.209 0.0
H1320 H 0.88246 0.63835 0.78012 0.0
H1321 H 0.88944 0.59328 0.77792 0.0
H1322 H 0.79038 0.53409 0.77046 0.0
H1323 H 0.78291 0.57969 0.77281 0.0
H1324 H 0.81371 0.50535 0.7866 0.0
H1325 H 0.83906 0.55423 0.74573 0.0
H1326 H 0.86296 0.59801 0.7302 0.0
H1327 H 0.95506 0.61917 0.74242 0.0
H1328 H 0.93174 0.57587 0.7582 0.0
H1329 H 0.85484 0.38881 0.76928 0.0
H1330 H 0.83389 0.42445 0.76761 0.0
H1331 H 0.92534 0.50256 0.77673 0.0
H1332 H 0.94632 0.4671 0.77866 0.0
H1333 H 0.89697 0.51571 0.75651 0.0
H1334 H 0.8677 0.46975 0.79983 0.0
H1335 H 0.84172 0.42447 0.81459 0.0
H1336 H 0.75334 0.39487 0.79571 0.0
H1337 H 0.77889 0.43987 0.78076 0.0
C1338 C 0.86197 0.61586 0.77801 0.0
C1339 C 0.8321 0.61285 0.77651 0.0
C1340 C 0.86609 0.59001 0.77673 0.0
C1341 C 0.84059 0.56036 0.77377 0.0
C1342 C 0.81046 0.55682 0.77266 0.0
C1343 C 0.80624 0.58289 0.77398 0.0
C1344 C 0.84628 0.53367 0.77174 0.0
C1345 C 0.83141 0.50729 0.77982 0.0
C1346 C 0.86934 0.53606 0.76287 0.0
C1347 C 0.88361 0.56185 0.75322 0.0
C1348 C 0.86442 0.56832 0.74516 0.0
C1349 C 0.87786 0.59306 0.73631 0.0
C1350 C 0.9105 0.61138 0.73533 0.0
C1351 C 0.92977 0.60494 0.74319 0.0
C1352 C 0.91645 0.58027 0.75208 0.0
C1353 C 0.87049 0.41354 0.77101 0.0
C1354 C 0.90231 0.42495 0.77416 0.0
C1355 C 0.85846 0.43392 0.77 0.0
C1356 C 0.87797 0.4662 0.77213 0.0
C1357 C 0.90985 0.47777 0.77499 0.0
C1358 C 0.92186 0.45741 0.77604 0.0
C1359 C 0.86532 0.48807 0.77171 0.0
C1360 C 0.87889 0.51353 0.76313 0.0
C1361 C 0.84067 0.48449 0.77993 0.0
C1362 C 0.82522 0.45799 0.78913 0.0
C1363 C 0.84274 0.45352 0.79881 0.0
C1364 C 0.8281 0.42792 0.80721 0.0
C1365 C 0.79591 0.40677 0.80607 0.0
C1366 C 0.77827 0.41127 0.79657 0.0
C1367 C 0.7928 0.43684 0.78815 0.0
H1368 H 0.78463 0.38693 0.81257 0.0
H1369 H 0.92087 0.63054 0.72848 0.0
H1370 H 0.62292 0.50538 0.75802 0.0
H1371 H 0.58603 0.44876 0.75752 0.0
H1372 H 0.63265 0.43626 0.79044 0.0
H1373 H 0.66959 0.49288 0.79102 0.0
H1374 H 0.61403 0.3882 0.77084 0.0
H1375 H 0.57098 0.43907 0.79655 0.0
H1376 H 0.55521 0.47843 0.80094 0.0
H1377 H 0.4911 0.44414 0.76882 0.0
H1378 H 0.50687 0.40486 0.76411 0.0
H1379 H 0.48597 0.23586 0.78847 0.0
H1380 H 0.53061 0.28971 0.78795 0.0
H1381 H 0.47935 0.31598 0.76164 0.0
H1382 H 0.43448 0.263 0.76272 0.0
H1383 H 0.50283 0.35739 0.77895 0.0
H1384 H 0.54556 0.30607 0.75298 0.0
H1385 H 0.5607 0.26614 0.74877 0.0
H1386 H 0.62468 0.30018 0.78093 0.0
H1387 H 0.60963 0.3401 0.78543 0.0
C1388 C 0.62563 0.49051 0.76501 0.0
C1389 C 0.64898 0.50362 0.77463 0.0
C1390 C 0.60451 0.45818 0.76474 0.0
C1391 C 0.60649 0.43831 0.77399 0.0
C1392 C 0.63071 0.45113 0.78321 0.0
C1393 C 0.65161 0.4835 0.78359 0.0
C1394 C 0.58174 0.4047 0.77469 0.0
C1395 C 0.58971 0.38134 0.77271 0.0
C1396 C 0.55003 0.3958 0.77704 0.0
C1397 C 0.54035 0.41925 0.7799 0.0
C1398 C 0.55372 0.4401 0.79035 0.0
C1399 C 0.54475 0.46237 0.79291 0.0
C1400 C 0.52223 0.46385 0.78514 0.0
C1401 C 0.50858 0.443 0.77482 0.0
C1402 C 0.51751 0.42072 0.7722 0.0
C1403 C 0.48448 0.25317 0.78251 0.0
C1404 C 0.45671 0.24536 0.77572 0.0
C1405 C 0.51005 0.28392 0.78215 0.0
C1406 C 0.5086 0.30711 0.77468 0.0
C1407 C 0.48113 0.29879 0.76757 0.0
C1408 C 0.45546 0.26842 0.76817 0.0
C1409 C 0.53466 0.34044 0.77468 0.0
C1410 C 0.52702 0.36396 0.77696 0.0
C1411 C 0.56656 0.34932 0.77253 0.0
C1412 C 0.57625 0.32589 0.76961 0.0
C1413 C 0.56277 0.30496 0.75919 0.0
C1414 C 0.57133 0.28233 0.75675 0.0
C1415 C 0.59356 0.28055 0.7646 0.0
C1416 C 0.60743 0.30155 0.77486 0.0
C1417 C 0.59892 0.32421 0.77735 0.0
H1418 H 0.60008 0.26295 0.76273 0.0
H1419 H 0.5153 0.48109 0.78714 0.0
H1420 H 0.56586 0.14392 0.75989 0.0
H1421 H 0.62267 0.16438 0.75978 0.0
H1422 H 0.6347 0.23057 0.78965 0.0
H1423 H 0.57777 0.21016 0.78979 0.0
H1424 H 0.68268 0.25581 0.77014 0.0
H1425 H 0.63329 0.16847 0.79909 0.0
H1426 H 0.59418 0.11467 0.8056 0.0
H1427 H 0.62726 0.07749 0.7759 0.0
H1428 H 0.66625 0.13111 0.76907 0.0
H1429 H 0.83719 0.28181 0.78724 0.0
H1430 H 0.78368 0.27381 0.78716 0.0
H1431 H 0.75293 0.1922 0.76295 0.0
H1432 H 0.80563 0.19945 0.76339 0.0
H1433 H 0.71445 0.17794 0.7818 0.0
H1434 H 0.76265 0.2658 0.75216 0.0
H1435 H 0.80045 0.31976 0.74529 0.0
H1436 H 0.7702 0.35641 0.77626 0.0
H1437 H 0.73238 0.30262 0.78339 0.0
C1438 C 0.58066 0.16319 0.76627 0.0
C1439 C 0.56736 0.17523 0.77494 0.0
C1440 C 0.61308 0.17479 0.76624 0.0
C1441 C 0.63286 0.19878 0.77481 0.0
C1442 C 0.61986 0.21201 0.78299 0.0
C1443 C 0.58736 0.20017 0.78313 0.0
C1444 C 0.66659 0.20816 0.77587 0.0
C1445 C 0.68977 0.23896 0.77283 0.0
C1446 C 0.67574 0.18612 0.77934 0.0
C1447 C 0.65249 0.15382 0.78349 0.0
C1448 C 0.63205 0.14883 0.79388 0.0
C1449 C 0.60994 0.11836 0.79764 0.0
C1450 C 0.60819 0.09268 0.79115 0.0
C1451 C 0.62862 0.09741 0.78091 0.0
C1452 C 0.65074 0.12783 0.77709 0.0
C1453 C 0.81902 0.26241 0.7818 0.0
C1454 C 0.82555 0.2411 0.77542 0.0
C1455 C 0.78845 0.25789 0.78171 0.0
C1456 C 0.76411 0.23237 0.77503 0.0
C1457 C 0.77109 0.21188 0.76829 0.0
C1458 C 0.80132 0.21608 0.76854 0.0
C1459 C 0.7309 0.22542 0.77555 0.0
C1460 C 0.70763 0.19497 0.77908 0.0
C1461 C 0.72183 0.24786 0.77252 0.0
C1462 C 0.7449 0.28018 0.76838 0.0
C1463 C 0.76425 0.28536 0.75757 0.0
C1464 C 0.78562 0.31591 0.75362 0.0
C1465 C 0.7877 0.34148 0.76034 0.0
C1466 C 0.76852 0.33657 0.77106 0.0
C1467 C 0.7471 0.30606 0.77506 0.0
H1468 H 0.80406 0.36509 0.75718 0.0
H1469 H 0.59106 0.06911 0.79408 0.0
H1470 H 0.13664 0.26918 0.59301 0.0
H1471 H 0.17352 0.24976 0.59238 0.0
H1472 H 0.1007 0.15896 0.60528 0.0
H1473 H 0.06387 0.17864 0.60652 0.0
H1474 H 0.15591 0.17404 0.61666 0.0
H1475 H 0.12064 0.17246 0.57333 0.0
H1476 H 0.10937 0.19435 0.55392 0.0
H1477 H 0.20711 0.26356 0.55067 0.0
H1478 H 0.21891 0.24238 0.57017 0.0
H1479 H 0.25081 0.1061 0.59841 0.0
H1480 H 0.20608 0.11537 0.5991 0.0
H1481 H 0.26762 0.21214 0.58876 0.0
H1482 H 0.31193 0.20321 0.58803 0.0
H1483 H 0.2127 0.187 0.57542 0.0
H1484 H 0.24732 0.19068 0.61945 0.0
H1485 H 0.25909 0.16867 0.63865 0.0
H1486 H 0.16254 0.09563 0.64071 0.0
H1487 H 0.1504 0.11657 0.6212 0.0
C1488 C 0.12852 0.24525 0.59598 0.0
C1489 C 0.09713 0.22549 0.59976 0.0
C1490 C 0.1496 0.23404 0.59545 0.0
C1491 C 0.13977 0.20268 0.59853 0.0
C1492 C 0.1088 0.18316 0.60276 0.0
C1493 C 0.08769 0.19441 0.60335 0.0
C1494 C 0.16165 0.19021 0.59693 0.0
C1495 C 0.16792 0.17638 0.60758 0.0
C1496 C 0.17757 0.19343 0.58512 0.0
C1497 C 0.17062 0.20596 0.57327 0.0
C1498 C 0.13971 0.19246 0.56852 0.0
C1499 C 0.13322 0.20474 0.5575 0.0
C1500 C 0.1575 0.23036 0.55108 0.0
C1501 C 0.18833 0.24371 0.55565 0.0
C1502 C 0.19493 0.23156 0.56668 0.0
C1503 C 0.25469 0.12925 0.59618 0.0
C1504 C 0.28503 0.15395 0.59327 0.0
C1505 C 0.22915 0.13455 0.59662 0.0
C1506 C 0.23355 0.16455 0.59408 0.0
C1507 C 0.26361 0.18882 0.59076 0.0
C1508 C 0.28901 0.18366 0.59041 0.0
C1509 C 0.20746 0.17148 0.59521 0.0
C1510 C 0.20036 0.18426 0.58445 0.0
C1511 C 0.19085 0.16728 0.60691 0.0
C1512 C 0.19803 0.15496 0.61876 0.0
C1513 C 0.22865 0.16975 0.62391 0.0
C1514 C 0.23539 0.15749 0.63487 0.0
C1515 C 0.21158 0.13081 0.64092 0.0
C1516 C 0.18098 0.11629 0.636 0.0
C1517 C 0.17417 0.12829 0.62497 0.0
H1518 H 0.21684 0.12142 0.64943 0.0
H1519 H 0.15243 0.23984 0.54255 0.0
H1520 H 0.79421 0.88336 0.59632 0.0
H1521 H 0.8141 0.93955 0.59499 0.0
H1522 H 0.90907 0.95666 0.59345 0.0
H1523 H 0.8893 0.9002 0.59531 0.0
H1524 H 0.90609 0.99857 0.60902 0.0
H1525 H 0.87248 0.96221 0.56614 0.0
H1526 H 0.83652 0.92823 0.54904 0.0
H1527 H 0.76978 0.9565 0.55935 0.0
H1528 H 0.80511 0.99028 0.57665 0.0
H1529 H 0.95643 0.16028 0.59308 0.0
H1530 H 0.94835 0.10693 0.59231 0.0
H1531 H 0.84819 0.06904 0.59472 0.0
H1532 H 0.85589 0.12163 0.59529 0.0
H1533 H 0.86139 0.03946 0.57646 0.0
H1534 H 0.89351 0.07088 0.62108 0.0
H1535 H 0.9302 0.10504 0.63797 0.0
H1536 H 1.00135 0.08675 0.62358 0.0
H1537 H 0.96515 0.05273 0.60651 0.0
C1538 C 0.81937 0.89898 0.59584 0.0
C1539 C 0.84009 0.88706 0.59594 0.0
C1540 C 0.83073 0.93121 0.59493 0.0
C1541 C 0.86312 0.95248 0.59391 0.0
C1542 C 0.88398 0.94078 0.59414 0.0
C1543 C 0.8726 0.90843 0.59509 0.0
C1544 C 0.87484 0.9868 0.59269 0.0
C1545 C 0.89673 1.00758 0.60175 0.0
C1546 C 0.86264 0.99874 0.58325 0.0
C1547 C 0.84139 0.97864 0.57276 0.0
C1548 C 0.85005 0.96103 0.56482 0.0
C1549 C 0.82978 0.94182 0.55509 0.0
C1550 C 0.80087 0.94017 0.55312 0.0
C1551 C 0.79218 0.95779 0.56088 0.0
C1552 C 0.81234 0.97701 0.57065 0.0
C1553 C 0.93272 0.1406 0.59345 0.0
C1554 C 0.90689 0.1455 0.59422 0.0
C1555 C 0.92811 0.11005 0.59305 0.0
C1556 C 0.8976 0.08381 0.59349 0.0
C1557 C 0.87194 0.08876 0.59429 0.0
C1558 C 0.87648 0.11907 0.59467 0.0
C1559 C 0.89176 0.05101 0.59306 0.0
C1560 C 0.87103 0.03051 0.58364 0.0
C1561 C 0.90518 0.03943 0.60211 0.0
C1562 C 0.92676 0.05956 0.61245 0.0
C1563 C 0.91705 0.07431 0.62147 0.0
C1564 C 0.93774 0.09361 0.63108 0.0
C1565 C 0.96812 0.09813 0.63182 0.0
C1566 C 0.97783 0.08326 0.62298 0.0
C1567 C 0.95723 0.06395 0.61335 0.0
H1568 H 0.98411 0.1131 0.63926 0.0
H1569 H 0.78522 0.9253 0.54558 0.0
H1570 H 0.17332 0.92712 0.59674 0.0
H1571 H 0.1167 0.89235 0.59626 0.0
H1572 H 0.10275 0.97199 0.59805 0.0
H1573 H 0.15957 1.00703 0.59942 0.0
H1574 H 0.05948 0.92685 0.61191 0.0
H1575 H 0.09574 0.93373 0.56914 0.0
H1576 H 0.12913 0.93355 0.55141 0.0
H1577 H 0.09902 0.83695 0.55912 0.0
H1578 H 0.06581 0.83666 0.57703 0.0
H1579 H 0.89665 0.81267 0.59451 0.0
H1580 H 0.94919 0.85979 0.59368 0.0
H1581 H 0.99158 0.80198 0.59808 0.0
H1582 H 0.94009 0.75549 0.59883 0.0
H1583 H 1.01748 0.84424 0.57814 0.0
H1584 H 0.98398 0.84309 0.62317 0.0
H1585 H 0.94873 0.84643 0.63925 0.0
H1586 H 0.97183 0.93713 0.62483 0.0
H1587 H 1.00663 0.93407 0.60844 0.0
C1588 C 0.15836 0.93736 0.59731 0.0
C1589 C 0.17126 0.97004 0.59803 0.0
C1590 C 0.12585 0.91739 0.59683 0.0
C1591 C 0.10538 0.92954 0.59677 0.0
C1592 C 0.11803 0.96203 0.59794 0.0
C1593 C 0.1506 0.98207 0.59858 0.0
C1594 C 0.07092 0.90813 0.59527 0.0
C1595 C 0.05026 0.90911 0.6044 0.0
C1596 C 0.0586 0.88531 0.58532 0.0
C1597 C 0.07841 0.88524 0.57449 0.0
C1598 C 0.09639 0.9125 0.56711 0.0
C1599 C 0.11527 0.91247 0.55702 0.0
C1600 C 0.11623 0.88527 0.55415 0.0
C1601 C 0.09825 0.85801 0.56135 0.0
C1602 C 0.07936 0.85791 0.57147 0.0
C1603 C 0.91721 0.81011 0.59532 0.0
C1604 C 0.91407 0.78024 0.5967 0.0
C1605 C 0.94717 0.83702 0.59487 0.0
C1606 C 0.97429 0.83435 0.5958 0.0
C1607 C 0.97103 0.80461 0.59726 0.0
C1608 C 0.94141 0.77797 0.59773 0.0
C1609 C 1.00648 0.86195 0.59517 0.0
C1610 C 0.02672 0.86228 0.58554 0.0
C1611 C 1.01813 0.88633 0.60445 0.0
C1612 C 0.99763 0.8882 0.61448 0.0
C1613 C 0.98137 0.86364 0.62336 0.0
C1614 C 0.96151 0.86549 0.63254 0.0
C1615 C 0.95805 0.89193 0.63306 0.0
C1616 C 0.97449 0.91664 0.62441 0.0
C1617 C 0.99426 0.91485 0.61516 0.0
H1618 H 0.94266 0.89329 0.64018 0.0
H1619 H 0.13086 0.8853 0.54634 0.0
H1620 H 0.46718 0.97145 0.06655 0.0
H1621 H 0.48515 0.97818 0.04425 0.0
H1622 H 0.55215 0.07533 0.05192 0.0
H1623 H 0.53391 0.06839 0.07458 0.0
H1624 H 0.51593 0.06881 0.03105 0.0
H1625 H 0.57716 0.02357 0.04376 0.0
H1626 H 0.58869 0.98576 0.05449 0.0
H1627 H 0.51978 0.9116 0.03077 0.0
H1628 H 0.50746 0.94886 0.02002 0.0
H1629 H 0.54778 0.08464 0.96475 0.0
H1630 H 0.55972 0.08283 0.98764 0.0
H1631 H 0.49118 0.98417 0.98864 0.0
H1632 H 0.48005 0.9859 0.96554 0.0
H1633 H 0.53876 0.99731 1.00551 0.0
H1634 H 0.47128 0.04006 0.9961 0.0
H1635 H 0.4577 0.07666 0.98556 0.0
H1636 H 0.5372 0.15454 1.00357 0.0
H1637 H 0.55149 0.11839 1.01408 0.0
C1638 C 0.48649 0.99403 0.06362 0.0
C1639 C 0.49936 0.01931 0.07233 0.0
C1640 C 0.49682 0.99786 0.05082 0.0
C1641 C 0.52022 0.02721 0.04631 0.0
C1642 C 0.53419 0.05237 0.05516 0.0
C1643 C 0.52403 0.04838 0.06814 0.0
C1644 C 0.52702 0.03179 0.03209 0.0
C1645 C 0.52183 0.05376 0.02553 0.0
C1646 C 0.53381 1.01158 0.02475 0.0
C1647 C 0.54127 0.98904 0.03112 0.0
C1648 C 0.5643 0.99917 0.04088 0.0
C1649 C 0.571 0.97783 0.04697 0.0
C1650 C 0.55495 0.94629 0.04333 0.0
C1651 C 0.5322 0.93604 0.03358 0.0
C1652 C 0.52539 0.95728 0.02747 0.0
C1653 C 0.53633 0.06228 0.96973 0.0
C1654 C 0.51337 0.0353 0.96335 0.0
C1655 C 0.54285 0.06133 0.98287 0.0
C1656 C 0.52581 0.03353 0.99003 0.0
C1657 C 0.50464 1.00594 0.98339 0.0
C1658 C 0.49843 1.00683 0.97016 0.0
C1659 C 0.52727 0.03404 1.00453 0.0
C1660 C 0.53368 1.01287 1.0111 0.0
C1661 C 0.52143 0.05486 1.01192 0.0
C1662 C 0.51264 0.07657 1.00575 0.0
C1663 C 0.48596 0.06501 0.99775 0.0
C1664 C 0.47813 0.08566 0.99178 0.0
C1665 C 0.49662 0.11791 0.99386 0.0
C1666 C 0.52293 0.12956 1.00195 0.0
C1667 C 0.53091 0.109 1.00791 0.0
H1668 H 0.49053 0.13387 0.98924 0.0
H1669 H 0.56016 0.9298 0.04806 0.0
H1670 H 0.9761 0.45009 0.97172 0.0
H1671 H 0.9822 0.46773 0.99408 0.0
H1672 H 0.07543 0.54347 0.98557 0.0
H1673 H 0.06908 0.52577 0.96281 0.0
H1674 H 0.07364 0.50786 1.00681 0.0
H1675 H 1.01921 0.56019 0.99367 0.0
H1676 H 0.97775 0.56611 0.98284 0.0
H1677 H 0.90798 0.4945 1.00714 0.0
H1678 H 0.94894 0.48776 1.01799 0.0
H1679 H 0.08897 0.54297 0.07287 0.0
H1680 H 0.08536 0.55276 0.04987 0.0
H1681 H 0.9885 0.47867 0.0495 0.0
H1682 H 0.99199 0.46961 0.07267 0.0
H1683 H 0.99706 0.52358 0.03222 0.0
H1684 H 0.04847 0.46464 0.04224 0.0
H1685 H 0.08818 0.45555 0.05286 0.0
H1686 H 0.16188 0.53669 0.03397 0.0
H1687 H 0.12257 0.54653 0.02339 0.0
C1688 C 0.99765 0.47102 0.9745 0.0
C1689 C 0.02205 0.48666 0.9655 0.0
C1690 C 1.00108 0.48115 0.98732 0.0
C1691 C 0.02919 0.50707 0.99158 0.0
C1692 C 0.05342 0.52349 0.98251 0.0
C1693 C 0.04974 0.51357 0.9695 0.0
C1694 C 0.0337 0.51459 1.00573 0.0
C1695 C 0.05743 0.51221 1.01231 0.0
C1696 C 1.01195 0.51925 1.01303 0.0
C1697 C 0.98719 0.52336 1.00661 0.0
C1698 C 0.99501 0.54554 0.99665 0.0
C1699 C 0.97159 0.54906 0.99051 0.0
C1700 C 0.94025 0.53066 0.99428 0.0
C1701 C 0.93227 0.50874 1.00423 0.0
C1702 C 0.9556 0.50509 1.01039 0.0
C1703 C 0.06651 0.52983 0.06801 0.0
C1704 C 0.04058 0.50598 0.07459 0.0
C1705 C 0.06456 0.53511 0.0548 0.0
C1706 C 0.03687 0.51597 0.04779 0.0
C1707 C 1.01016 0.49376 0.05462 0.0
C1708 C 1.01204 0.48874 0.06791 0.0
C1709 C 0.03682 0.51655 0.03328 0.0
C1710 C 1.01375 0.52007 0.02667 0.0
C1711 C 0.05897 0.51261 0.02592 0.0
C1712 C 0.08261 0.50653 0.03215 0.0
C1713 C 0.07315 0.48066 0.04042 0.0
C1714 C 0.09558 0.47536 0.04643 0.0
C1715 C 0.12754 0.49559 0.04412 0.0
C1716 C 0.13712 0.52109 0.03577 0.0
C1717 C 0.11478 0.52654 0.02977 0.0
H1718 H 0.14488 0.49146 0.04878 0.0
H1719 H 0.92216 0.53342 0.98951 0.0
H1720 H 0.5343 0.56176 0.96178 0.0
H1721 H 0.51742 0.55349 0.98461 0.0
H1722 H 0.58446 0.52376 0.99316 0.0
H1723 H 0.60112 0.53196 0.97061 0.0
H1724 H 0.53246 0.49162 1.00801 0.0
H1725 H 0.60446 0.60013 0.99616 0.0
H1726 H 0.62004 0.64803 0.98339 0.0
H1727 H 0.53868 0.65041 0.99685 0.0
H1728 H 0.52241 0.60223 1.00956 0.0
H1729 H 0.58551 0.54144 0.073 0.0
H1730 H 0.57556 0.527 0.05001 0.0
H1731 H 0.51763 0.56981 0.04752 0.0
H1732 H 0.52892 0.58543 0.07021 0.0
H1733 H 0.55656 0.59142 0.02923 0.0
H1734 H 0.48885 0.4869 0.04405 0.0
H1735 H 0.47404 0.43925 0.05685 0.0
H1736 H 0.54605 0.42862 0.03814 0.0
H1737 H 0.56162 0.47648 0.02536 0.0
C1738 C 0.54447 0.55235 0.96847 0.0
C1739 C 0.569 0.54751 0.96447 0.0
C1740 C 0.53508 0.54789 0.98153 0.0
C1741 C 0.55002 0.53843 0.99071 0.0
C1742 C 0.57255 0.53106 0.98636 0.0
C1743 C 0.58209 0.5358 0.97344 0.0
C1744 C 0.54557 0.53987 1.00496 0.0
C1745 C 0.53762 0.5134 1.01268 0.0
C1746 C 0.55194 0.56813 1.0111 0.0
C1747 C 0.56204 0.59742 1.00368 0.0
C1748 C 0.58982 0.61079 0.99633 0.0
C1749 C 0.59877 0.63798 0.98911 0.0
C1750 C 0.5803 0.6522 0.98927 0.0
C1751 C 0.55292 0.63933 0.99671 0.0
C1752 C 0.54382 0.61209 1.00392 0.0
C1753 C 0.56971 0.54663 0.06762 0.0
C1754 C 0.55758 0.56411 0.07339 0.0
C1755 C 0.56407 0.5385 0.05444 0.0
C1756 C 0.54572 0.54722 0.04688 0.0
C1757 C 0.532 0.5629 0.05299 0.0
C1758 C 0.53814 0.57152 0.06603 0.0
C1759 C 0.54339 0.54309 0.03245 0.0
C1760 C 0.5505 0.56929 0.02466 0.0
C1761 C 0.53616 0.51453 0.0263 0.0
C1762 C 0.52655 0.48544 0.03381 0.0
C1763 C 0.50165 0.47451 0.04272 0.0
C1764 C 0.49311 0.44745 0.04997 0.0
C1765 C 0.50914 0.43096 0.04833 0.0
C1766 C 0.53367 0.44143 0.0394 0.0
C1767 C 0.54234 0.46851 0.03214 0.0
H1768 H 0.50253 0.41004 0.05397 0.0
H1769 H 0.58724 0.67322 0.98366 0.0
H1770 H 0.20144 0.39779 0.40833 0.0
H1771 H 0.21805 0.40548 0.38549 0.0
H1772 H 0.15751 0.30668 0.37841 0.0
H1773 H 0.14088 0.29914 0.401 0.0
H1774 H 0.21171 0.3317 0.36303 0.0
H1775 H 0.12781 0.35299 0.37392 0.0
H1776 H 0.10615 0.3797 0.38694 0.0
H1777 H 0.18163 0.46915 0.37467 0.0
H1778 H 0.20373 0.44292 0.36162 0.0
H1779 H 0.15629 0.32225 0.29746 0.0
H1780 H 0.16699 0.31838 0.32047 0.0
H1781 H 0.21537 0.41922 0.32357 0.0
H1782 H 0.2037 0.42284 0.30089 0.0
H1783 H 0.17382 0.39645 0.34134 0.0
H1784 H 0.25304 0.37431 0.3272 0.0
H1785 H 0.27521 0.34728 0.31476 0.0
H1786 H 0.21093 0.26021 0.33312 0.0
H1787 H 0.18805 0.28664 0.34554 0.0
C1788 C 0.19278 0.37763 0.402 0.0
C1789 C 0.16996 0.34788 0.4064 0.0
C1790 C 0.20205 0.38201 0.38893 0.0
C1791 C 0.18875 0.35666 0.38015 0.0
C1792 C 0.16819 0.32657 0.38492 0.0
C1793 C 0.15867 0.32231 0.39785 0.0
C1794 C 0.19208 0.36171 0.36583 0.0
C1795 C 0.20351 0.34589 0.35825 0.0
C1796 C 0.18156 0.38031 0.35955 0.0
C1797 C 0.16752 0.39605 0.36689 0.0
C1798 C 0.13973 0.37837 0.374 0.0
C1799 C 0.12738 0.39341 0.38138 0.0
C1800 C 0.1425 0.42611 0.38164 0.0
C1801 C 0.16987 0.44383 0.37444 0.0
C1802 C 0.18231 0.4289 0.36703 0.0
C1803 C 0.17025 0.34352 0.30297 0.0
C1804 C 0.17945 0.37285 0.2974 0.0
C1805 C 0.17626 0.34136 0.31616 0.0
C1806 C 0.19194 0.36855 0.3239 0.0
C1807 C 0.20303 0.39786 0.31796 0.0
C1808 C 0.19664 0.39994 0.30493 0.0
C1809 C 0.19385 0.3667 0.33834 0.0
C1810 C 0.18283 0.3828 0.346 0.0
C1811 C 0.20486 0.3484 0.34461 0.0
C1812 C 0.21864 0.33242 0.33722 0.0
C1813 C 0.24346 0.34935 0.32851 0.0
C1814 C 0.25618 0.33414 0.32147 0.0
C1815 C 0.24443 0.30203 0.32312 0.0
C1816 C 0.21998 0.28508 0.33184 0.0
C1817 C 0.20715 0.30017 0.3389 0.0
H1818 H 0.2543 0.2903 0.31766 0.0
H1819 H 0.133 0.43769 0.38743 0.0
H1820 H 0.6643 0.81638 0.40936 0.0
H1821 H 0.65739 0.82525 0.38639 0.0
H1822 H 0.75701 0.86578 0.38027 0.0
H1823 H 0.76372 0.85649 0.40297 0.0
H1824 H 0.73243 0.8948 0.36486 0.0
H1825 H 0.71227 0.79142 0.3753 0.0
H1826 H 0.68677 0.7408 0.38679 0.0
H1827 H 0.59681 0.72134 0.37233 0.0
H1828 H 0.62174 0.77222 0.36098 0.0
H1829 H 0.74075 0.85154 0.2985 0.0
H1830 H 0.74543 0.86534 0.32161 0.0
H1831 H 0.6444 0.8145 0.32497 0.0
H1832 H 0.63995 0.80006 0.30216 0.0
H1833 H 0.6678 0.79377 0.34208 0.0
H1834 H 0.69114 0.89679 0.32916 0.0
H1835 H 0.71942 0.94662 0.31718 0.0
H1836 H 0.80588 0.96625 0.3355 0.0
H1837 H 0.77819 0.91631 0.34745 0.0
C1838 C 0.68478 0.82832 0.4032 0.0
C1839 C 0.71456 0.83596 0.40793 0.0
C1840 C 0.68084 0.83316 0.39006 0.0
C1841 C 0.70669 0.84596 0.38152 0.0
C1842 C 0.73673 0.85601 0.38659 0.0
C1843 C 0.74054 0.8507 0.39959 0.0
C1844 C 0.70229 0.845 0.36715 0.0
C1845 C 0.71826 0.87274 0.35985 0.0
C1846 C 0.68391 0.81628 0.36056 0.0
C1847 C 0.6688 0.78581 0.36745 0.0
C1848 C 0.687 0.77651 0.3747 0.0
C1849 C 0.67267 0.74777 0.38118 0.0
C1850 C 0.64018 0.72792 0.38035 0.0
C1851 C 0.62196 0.73679 0.37303 0.0
C1852 C 0.63617 0.7656 0.36658 0.0
C1853 C 0.71963 0.84453 0.30408 0.0
C1854 C 0.68997 0.82509 0.29853 0.0
C1855 C 0.72226 0.85223 0.31733 0.0
C1856 C 0.69523 0.84087 0.32517 0.0
C1857 C 0.66564 0.82343 0.31926 0.0
C1858 C 0.66308 0.81546 0.30616 0.0
C1859 C 0.69741 0.84368 0.33964 0.0
C1860 C 0.68137 0.81606 0.347 0.0
C1861 C 0.71595 0.87249 0.34621 0.0
C1862 C 0.73261 0.90266 0.33912 0.0
C1863 C 0.71622 0.91162 0.33057 0.0
C1864 C 0.73214 0.93991 0.32379 0.0
C1865 C 0.76444 0.95956 0.32556 0.0
C1866 C 0.78086 0.951 0.33413 0.0
C1867 C 0.76506 0.92272 0.34092 0.0
H1868 H 0.77673 0.98144 0.3203 0.0
H1869 H 0.62921 0.70563 0.38532 0.0
H1870 H 0.20123 0.89526 0.29558 0.0
H1871 H 0.1831 0.88442 0.31825 0.0
H1872 H 0.25346 0.85903 0.32673 0.0
H1873 H 0.27129 0.86972 0.30438 0.0
H1874 H 0.20132 0.82316 0.34076 0.0
H1875 H 0.26825 0.93421 0.33094 0.0
H1876 H 0.281 0.98256 0.31903 0.0
H1877 H 0.19549 0.9765 0.33241 0.0
H1878 H 0.18205 0.92785 0.34426 0.0
H1879 H 0.2553 0.87101 0.40553 0.0
H1880 H 0.24405 0.85723 0.38256 0.0
H1881 H 0.17966 0.89275 0.38239 0.0
H1882 H 0.19193 0.9075 0.40515 0.0
H1883 H 0.21812 0.91856 0.36379 0.0
H1884 H 0.15595 0.8124 0.37707 0.0
H1885 H 0.1434 0.76408 0.38892 0.0
H1886 H 0.21811 0.75983 0.36933 0.0
H1887 H 0.23143 0.80839 0.35749 0.0
C1888 C 0.21199 0.88636 0.30222 0.0
C1889 C 0.23771 0.88341 0.29826 0.0
C1890 C 0.20186 0.88041 0.3152 0.0
C1891 C 0.21723 0.87131 0.32432 0.0
C1892 C 0.24117 0.866 0.31999 0.0
C1893 C 0.25141 0.87221 0.30717 0.0
C1894 C 0.2115 0.87079 0.33857 0.0
C1895 C 0.20489 0.84398 0.34581 0.0
C1896 C 0.2156 0.89769 0.34523 0.0
C1897 C 0.22399 0.92725 0.33835 0.0
C1898 C 0.25211 0.94313 0.33129 0.0
C1899 C 0.25946 0.97057 0.32455 0.0
C1900 C 0.23902 0.98254 0.32493 0.0
C1901 C 0.21126 0.96716 0.3321 0.0
C1902 C 0.20377 0.93966 0.33883 0.0
C1903 C 0.23772 0.87453 0.40071 0.0
C1904 C 0.22401 0.88974 0.40716 0.0
C1905 C 0.23138 0.86684 0.38752 0.0
C1906 C 0.21091 0.8739 0.38059 0.0
C1907 C 0.19562 0.88713 0.38738 0.0
C1908 C 0.20232 0.8952 0.40046 0.0
C1909 C 0.20824 0.87096 0.36612 0.0
C1910 C 0.21363 0.89733 0.35882 0.0
C1911 C 0.20292 0.84359 0.35945 0.0
C1912 C 0.19483 0.81419 0.36645 0.0
C1913 C 0.16984 0.80128 0.37534 0.0
C1914 C 0.16257 0.77383 0.38205 0.0
C1915 C 0.17998 0.75893 0.3799 0.0
C1916 C 0.20465 0.7714 0.37099 0.0
C1917 C 0.21204 0.79888 0.36426 0.0
H1918 H 0.17433 0.73769 0.38511 0.0
H1919 H 0.24472 1.00376 0.31969 0.0
H1920 H 0.80713 0.71376 0.73378 0.0
H1921 H 0.82284 0.71512 0.71132 0.0
H1922 H 0.88573 0.68239 0.72294 0.0
H1923 H 0.86985 0.68103 0.74573 0.0
H1924 H 0.89793 0.73818 0.69803 0.0
H1925 H 0.84313 0.62837 0.71311 0.0
H1926 H 0.8031 0.58702 0.72705 0.0
H1927 H 0.73161 0.60136 0.70991 0.0
H1928 H 0.77136 0.64313 0.69602 0.0
H1929 H 0.87728 0.70074 0.62955 0.0
H1930 H 0.8911 0.69925 0.6524 0.0
H1931 H 0.79603 0.6713 0.66352 0.0
H1932 H 0.78206 0.67107 0.64104 0.0
H1933 H 0.81296 0.64143 0.67778 0.0
H1934 H 0.86628 0.75266 0.66433 0.0
H1935 H 0.90502 0.7972 0.65124 0.0
H1936 H 0.97884 0.78254 0.66545 0.0
H1937 H 0.94046 0.73773 0.6785 0.0
C1938 C 0.82525 0.70802 0.73164 0.0
C1939 C 0.83748 0.69756 0.7415 0.0
C1940 C 0.83419 0.70879 0.71878 0.0
C1941 C 0.85538 0.69882 0.71542 0.0
C1942 C 0.86952 0.69047 0.72534 0.0
C1943 C 0.86062 0.68987 0.73835 0.0
C1944 C 0.85797 0.69256 0.70149 0.0
C1945 C 0.87999 0.71668 0.69357 0.0
C1946 C 0.83429 0.6648 0.69565 0.0
C1947 C 0.81019 0.6389 0.70359 0.0
C1948 C 0.81888 0.62275 0.71236 0.0
C1949 C 0.79626 0.59925 0.72025 0.0
C1950 C 0.76483 0.59159 0.71938 0.0
C1951 C 0.75595 0.60731 0.71057 0.0
C1952 C 0.77851 0.63085 0.70268 0.0
C1953 C 0.85934 0.6938 0.6369 0.0
C1954 C 0.82863 0.68626 0.63345 0.0
C1955 C 0.86729 0.69324 0.65 0.0
C1956 C 0.8448 0.6857 0.65988 0.0
C1957 C 0.81398 0.67716 0.65625 0.0
C1958 C 0.806 0.67721 0.64329 0.0
C1959 C 0.85254 0.68744 0.67405 0.0
C1960 C 0.83191 0.66252 0.6821 0.0
C1961 C 0.87758 0.7145 0.67994 0.0
C1962 C 0.90051 0.74171 0.67226 0.0
C1963 C 0.89077 0.75891 0.66461 0.0
C1964 C 0.91265 0.78418 0.6572 0.0
C1965 C 0.94436 0.79262 0.65748 0.0
C1966 C 0.95427 0.77593 0.66522 0.0
C1967 C 0.93248 0.75062 0.67262 0.0
H1968 H 0.96131 0.81211 0.65173 0.0
H1969 H 0.74736 0.57345 0.72551 0.0
H1970 H 0.3088 0.12266 0.63779 0.0
H1971 H 0.31606 0.13994 0.6602 0.0
H1972 H 0.41242 0.20912 0.6521 0.0
H1973 H 0.405 0.19146 0.62934 0.0
H1974 H 0.40821 0.17334 0.6726 0.0
H1975 H 0.35771 0.23101 0.66113 0.0
H1976 H 0.31726 0.24004 0.65121 0.0
H1977 H 0.24667 0.16862 0.67531 0.0
H1978 H 0.28661 0.15888 0.68528 0.0
H1979 H 0.4292 0.20757 0.7387 0.0
H1980 H 0.425 0.21724 0.71574 0.0
H1981 H 0.32617 0.14854 0.71654 0.0
H1982 H 0.33028 0.13989 0.73974 0.0
H1983 H 0.33617 0.19308 0.69933 0.0
H1984 H 0.38313 0.12949 0.70799 0.0
H1985 H 0.42168 0.11752 0.71783 0.0
H1986 H 0.49675 0.19676 0.69853 0.0
H1987 H 0.45865 0.20946 0.68871 0.0
C1988 C 0.33131 0.14225 0.64066 0.0
C1989 C 0.35627 0.15586 0.63179 0.0
C1990 C 0.33543 0.1522 0.65353 0.0
C1991 C 0.36473 0.17605 0.65795 0.0
C1992 C 0.3895 0.19078 0.64894 0.0
C1993 C 0.38523 0.18095 0.63591 0.0
C1994 C 0.36985 0.18263 0.67218 0.0
C1995 C 0.39299 0.17855 0.67838 0.0
C1996 C 0.34933 0.18832 0.67988 0.0
C1997 C 0.3252 0.19416 0.67393 0.0
C1998 C 0.33354 0.2171 0.66427 0.0
C1999 C 0.31071 0.2224 0.65866 0.0
C2000 C 0.27944 0.20499 0.66266 0.0
C2001 C 0.27093 0.18218 0.67226 0.0
C2002 C 0.29367 0.17681 0.67792 0.0
C2003 C 0.40633 0.19555 0.73408 0.0
C2004 C 0.37997 0.17338 0.74101 0.0
C2005 C 0.40399 0.20075 0.7209 0.0
C2006 C 0.37543 0.18303 0.71422 0.0
C2007 C 0.34852 0.16248 0.72139 0.0
C2008 C 0.35078 0.15768 0.73468 0.0
C2009 C 0.37437 0.18358 0.69971 0.0
C2010 C 0.35184 0.18864 0.6935 0.0
C2011 C 0.39519 0.17842 0.69197 0.0
C2012 C 0.41809 0.17063 0.69774 0.0
C2013 C 0.40788 0.14447 0.70591 0.0
C2014 C 0.42964 0.13755 0.71148 0.0
C2015 C 0.46165 0.15643 0.70884 0.0
C2016 C 0.47195 0.1822 0.70059 0.0
C2017 C 0.45029 0.18927 0.69502 0.0
H2018 H 0.47847 0.15104 0.71317 0.0
H2019 H 0.2618 0.2091 0.6583 0.0
H2020 H 0.88105 0.17538 0.63032 0.0
H2021 H 0.86949 0.16757 0.6537 0.0
H2022 H 0.91401 0.26765 0.65883 0.0
H2023 H 0.92542 0.27529 0.6357 0.0
H2024 H 0.94064 0.24077 0.67388 0.0
H2025 H 0.83673 0.22232 0.66309 0.0
H2026 H 0.78525 0.19461 0.65216 0.0
H2027 H 0.76534 0.10876 0.67085 0.0
H2028 H 0.81696 0.1359 0.68176 0.0
H2029 H 0.90996 0.28651 0.73195 0.0
H2030 H 0.90104 0.26877 0.70965 0.0
H2031 H 0.88374 0.17779 0.72176 0.0
H2032 H 0.89298 0.19579 0.74458 0.0
H2033 H 0.84119 0.18689 0.69876 0.0
H2034 H 0.94435 0.20691 0.71097 0.0
H2035 H 0.99531 0.23627 0.72222 0.0
H2036 H 1.01636 0.319 0.70065 0.0
H2037 H 0.96527 0.29028 0.68944 0.0
C2038 C 0.88694 0.19551 0.63638 0.0
C2039 C 0.90354 0.22593 0.63119 0.0
C2040 C 0.88068 0.19108 0.64976 0.0
C2041 C 0.89116 0.21706 0.65809 0.0
C2042 C 0.90582 0.24723 0.65267 0.0
C2043 C 0.91199 0.25159 0.63941 0.0
C2044 C 0.89018 0.21372 0.6725 0.0
C2045 C 0.91883 0.22878 0.67927 0.0
C2046 C 0.86188 0.19728 0.67963 0.0
C2047 C 0.83087 0.18104 0.6731 0.0
C2048 C 0.82152 0.19747 0.66477 0.0
C2049 C 0.79228 0.18188 0.6586 0.0
C2050 C 0.77208 0.14992 0.66077 0.0
C2051 C 0.78104 0.1335 0.66915 0.0
C2052 C 0.81028 0.14898 0.67534 0.0
C2053 C 0.90381 0.26251 0.72999 0.0
C2054 C 0.90246 0.24264 0.74006 0.0
C2055 C 0.89857 0.25238 0.71718 0.0
C2056 C 0.89179 0.22204 0.71398 0.0
C2057 C 0.88876 0.2013 0.72403 0.0
C2058 C 0.89409 0.21157 0.73704 0.0
C2059 C 0.89161 0.21439 0.70001 0.0
C2060 C 0.86294 0.19779 0.69331 0.0
C2061 C 0.91991 0.2292 0.69286 0.0
C2062 C 0.95088 0.24648 0.69943 0.0
C2063 C 0.95974 0.23143 0.7087 0.0
C2064 C 0.98867 0.24794 0.71506 0.0
C2065 C 1.00903 0.27949 0.71216 0.0
C2066 C 1.00055 0.29456 0.70288 0.0
C2067 C 0.97163 0.27816 0.69651 0.0
H2068 H 0.03139 0.29227 0.7171 0.0
H2069 H 0.74945 0.1379 0.65599 0.0
H2070 H 0.25523 0.87354 0.21726 0.0
H2071 H 0.29365 0.89045 0.19962 0.0
H2072 H 0.34592 0.98206 0.21704 0.0
H2073 H 0.30801 0.96487 0.23481 0.0
H2074 H 0.31033 0.92991 0.18137 0.0
H2075 H 0.42134 0.01856 0.20978 0.0
H2076 H 0.44631 0.02497 0.23117 0.0
H2077 H 0.39509 0.92527 0.23674 0.0
H2078 H 0.36949 0.91832 0.2155 0.0
H2079 H 0.42839 0.02621 0.13608 0.0
H2080 H 0.39036 1.00515 0.1538 0.0
H2081 H 0.44128 0.96352 0.17059 0.0
H2082 H 0.47972 0.98513 0.15295 0.0
H2083 H 0.42533 0.98708 0.18909 0.0
H2084 H 0.36627 0.917 0.15495 0.0
H2085 H 0.34168 0.89957 0.13348 0.0
H2086 H 0.29074 0.94841 0.13898 0.0
H2087 H 0.31469 0.96575 0.16061 0.0
C2088 C 0.27501 0.89724 0.21734 0.0
C2089 C 0.27865 0.91774 0.22751 0.0
C2090 C 0.29703 0.90698 0.20722 0.0
C2091 C 0.32326 0.93753 0.20695 0.0
C2092 C 0.32656 0.95814 0.21705 0.0
C2093 C 0.30467 0.94835 0.22721 0.0
C2094 C 0.34654 0.94806 0.19597 0.0
C2095 C 0.33546 0.94245 0.18313 0.0
C2096 C 0.37953 0.96387 0.19802 0.0
C2097 C 0.39333 0.96798 0.21112 0.0
C2098 C 0.41524 0.99804 0.21563 0.0
C2099 C 0.42944 1.00177 0.22773 0.0
C2100 C 0.42217 0.97556 0.23534 0.0
C2101 C 0.40044 0.94558 0.23092 0.0
C2102 C 0.38595 0.94174 0.21887 0.0
C2103 C 0.43139 1.01242 0.14352 0.0
C2104 C 0.457 1.00716 0.14303 0.0
C2105 C 0.40946 1.00018 0.15365 0.0
C2106 C 0.41238 0.98217 0.16356 0.0
C2107 C 0.43823 0.97721 0.16313 0.0
C2108 C 0.46024 0.98956 0.15301 0.0
C2109 C 0.38911 0.96935 0.17452 0.0
C2110 C 0.40019 0.97464 0.18735 0.0
C2111 C 0.35615 0.95234 0.17246 0.0
C2112 C 0.34249 0.94291 0.15932 0.0
C2113 C 0.35005 0.92426 0.15153 0.0
C2114 C 0.33615 0.91432 0.13935 0.0
C2115 C 0.31485 0.92308 0.13482 0.0
C2116 C 0.3073 0.9417 0.14249 0.0
C2117 C 0.3209 0.95146 0.15473 0.0
H2118 H 0.30401 0.91526 0.12542 0.0
H2119 H 0.43358 0.97851 0.24461 0.0
H2120 H 0.03974 0.42786 0.13584 0.0
H2121 H 0.05988 0.40884 0.1531 0.0
H2122 H 0.08755 0.49352 0.17481 0.0
H2123 H 0.06952 0.5136 0.157 0.0
H2124 H 0.12964 0.48002 0.17879 0.0
H2125 H 1.01836 0.41761 0.18159 0.0
H2126 H 0.96418 0.38279 0.17393 0.0
H2127 H 0.98765 0.31238 0.16404 0.0
H2128 H 0.04209 0.34694 0.17149 0.0
H2129 H 0.09586 0.36034 0.23563 0.0
H2130 H 0.07779 0.38198 0.21856 0.0
H2131 H 0.16567 0.41517 0.19846 0.0
H2132 H 0.18419 0.39433 0.21584 0.0
H2133 H 0.06487 0.37101 0.19469 0.0
H2134 H 0.18405 0.48076 0.18096 0.0
H2135 H 0.23391 0.51855 0.19152 0.0
H2136 H 0.18737 0.49925 0.22829 0.0
H2137 H 0.1372 0.46164 0.21795 0.0
C2138 C 0.05048 0.44263 0.14422 0.0
C2139 C 0.05337 0.47248 0.14493 0.0
C2140 C 0.06167 0.43152 0.15423 0.0
C2141 C 0.0749 0.44931 0.16554 0.0
C2142 C 0.07761 0.47914 0.16627 0.0
C2143 C 0.06706 0.49058 0.1561 0.0
C2144 C 0.08573 0.43682 0.17653 0.0
C2145 C 0.11539 0.45615 0.18221 0.0
C2146 C 0.06711 0.4059 0.18143 0.0
C2147 C 0.03437 0.38498 0.17698 0.0
C2148 C 1.01201 0.39477 0.1777 0.0
C2149 C 0.98125 0.37508 0.17341 0.0
C2150 C 0.9725 0.34543 0.16847 0.0
C2151 C 0.99447 0.33537 0.16785 0.0
C2152 C 0.02528 0.35499 0.17212 0.0
C2153 C 0.11144 0.37241 0.22761 0.0
C2154 C 0.14166 0.37596 0.2272 0.0
C2155 C 0.10099 0.38469 0.21778 0.0
C2156 C 0.12036 0.40071 0.20718 0.0
C2157 C 0.15035 0.40357 0.2066 0.0
C2158 C 0.1609 0.39143 0.21651 0.0
C2159 C 0.10894 0.41402 0.19677 0.0
C2160 C 0.07916 0.39484 0.19121 0.0
C2161 C 0.12688 0.44544 0.19238 0.0
C2162 C 0.15695 0.46812 0.19868 0.0
C2163 C 0.18445 0.48464 0.19129 0.0
C2164 C 0.21277 0.50602 0.19725 0.0
C2165 C 0.21382 0.5112 0.21058 0.0
C2166 C 0.18654 0.4951 0.21799 0.0
C2167 C 0.15818 0.47372 0.21208 0.0
H2168 H 0.23576 0.52776 0.21517 0.0
H2169 H 0.94868 0.33022 0.16515 0.0
H2170 H 0.66213 0.80603 0.21718 0.0
H2171 H 0.64196 0.7672 0.19966 0.0
H2172 H 0.67923 0.71502 0.21891 0.0
H2173 H 0.70043 0.75443 0.23609 0.0
H2174 H 0.68935 0.71395 0.19499 0.0
H2175 H 0.59789 0.6916 0.21878 0.0
H2176 H 0.56003 0.7031 0.2295 0.0
H2177 H 0.53919 0.73077 0.1931 0.0
H2178 H 0.5772 0.71975 0.18216 0.0
H2179 H 0.54962 0.57501 0.15638 0.0
H2180 H 0.56824 0.61171 0.17471 0.0
H2181 H 0.65153 0.67423 0.15316 0.0
H2182 H 0.63396 0.63684 0.13531 0.0
H2183 H 0.57939 0.66692 0.17948 0.0
H2184 H 0.71345 0.71763 0.1717 0.0
H2185 H 0.74933 0.70018 0.16355 0.0
H2186 H 0.68115 0.60475 0.1725 0.0
H2187 H 0.64504 0.62167 0.18086 0.0
C2188 C 0.66607 0.7863 0.21764 0.0
C2189 C 0.68254 0.78314 0.22813 0.0
C2190 C 0.65429 0.76389 0.20765 0.0
C2191 C 0.65843 0.73758 0.20796 0.0
C2192 C 0.67548 0.73485 0.21835 0.0
C2193 C 0.68748 0.75737 0.22824 0.0
C2194 C 0.64546 0.71312 0.19744 0.0
C2195 C 0.6653 0.70378 0.19162 0.0
C2196 C 0.61379 0.69884 0.19317 0.0
C2197 C 0.5906 0.70512 0.19967 0.0
C2198 C 0.58536 0.7003 0.21307 0.0
C2199 C 0.56386 0.70671 0.21919 0.0
C2200 C 0.54729 0.71775 0.212 0.0
C2201 C 0.55207 0.72226 0.19866 0.0
C2202 C 0.57356 0.71589 0.19249 0.0
C2203 C 0.57199 0.59651 0.15561 0.0
C2204 C 0.59019 0.60299 0.14433 0.0
C2205 C 0.5826 0.61765 0.16609 0.0
C2206 C 0.61166 0.64586 0.16554 0.0
C2207 C 0.62946 0.65249 0.15412 0.0
C2208 C 0.61917 0.63115 0.14379 0.0
C2209 C 0.62351 0.66823 0.17684 0.0
C2210 C 0.60346 0.67714 0.18283 0.0
C2211 C 0.65469 0.68127 0.18163 0.0
C2212 C 0.67644 0.67091 0.17678 0.0
C2213 C 0.70618 0.69295 0.17198 0.0
C2214 C 0.72654 0.68314 0.16731 0.0
C2215 C 0.71749 0.65136 0.16747 0.0
C2216 C 0.6881 0.62934 0.17234 0.0
C2217 C 0.66766 0.63902 0.17703 0.0
H2218 H 0.73327 0.64382 0.16383 0.0
H2219 H 0.53069 0.72275 0.21676 0.0
H2220 H 0.04066 0.43187 0.89813 0.0
H2221 H 1.01868 0.39414 0.88025 0.0
H2222 H 0.95787 0.43038 0.8701 0.0
H2223 H 0.98062 0.46902 0.88777 0.0
H2224 H 0.93196 0.35468 0.87334 0.0
H2225 H 1.00347 0.45149 0.85055 0.0
H2226 H 0.05509 0.49903 0.84744 0.0
H2227 H 0.09858 0.44248 0.84392 0.0
H2228 H 0.04723 0.39463 0.84721 0.0
H2229 H 0.87393 0.26398 0.81512 0.0
H2230 H 0.8905 0.30335 0.83236 0.0
H2231 H 0.98552 0.3208 0.82906 0.0
H2232 H 0.96932 0.28372 0.81111 0.0
H2233 H 0.99222 0.37184 0.8328 0.0
H2234 H 0.92552 0.2759 0.8559 0.0
H2235 H 0.87683 0.22654 0.8609 0.0
H2236 H 0.82736 0.27707 0.86578 0.0
H2237 H 0.8757 0.32667 0.86076 0.0
C2238 C 0.0227 0.43191 0.89206 0.0
C2239 C 1.01248 0.45354 0.89434 0.0
C2240 C 1.0101 0.41026 0.88185 0.0
C2241 C 0.98655 0.40931 0.87382 0.0
C2242 C 0.97597 0.43062 0.87617 0.0
C2243 C 0.9891 0.45279 0.88622 0.0
C2244 C 0.97362 0.38639 0.86286 0.0
C2245 C 0.94483 0.35851 0.86437 0.0
C2246 C 0.99083 0.39086 0.85135 0.0
C2247 C 1.0216 0.41955 0.84927 0.0
C2248 C 0.02409 0.44923 0.84925 0.0
C2249 C 0.05328 0.47622 0.84742 0.0
C2250 C 0.08012 0.47379 0.84552 0.0
C2251 C 0.07779 0.44434 0.84541 0.0
C2252 C 0.04865 0.41728 0.84724 0.0
C2253 C 0.89829 0.27616 0.81818 0.0
C2254 C 0.92027 0.27057 0.81184 0.0
C2255 C 0.90783 0.29861 0.82815 0.0
C2256 C 0.93938 0.31506 0.83243 0.0
C2257 C 0.96111 0.30893 0.82609 0.0
C2258 C 0.9518 0.28743 0.81584 0.0
C2259 C 0.95027 0.33921 0.84316 0.0
C2260 C 0.97893 0.36757 0.84167 0.0
C2261 C 0.93319 0.33474 0.85484 0.0
C2262 C 0.90412 0.30492 0.85782 0.0
C2263 C 0.9042 0.27643 0.85797 0.0
C2264 C 0.87668 0.24842 0.86084 0.0
C2265 C 0.849 0.24865 0.86365 0.0
C2266 C 0.8488 0.2769 0.86363 0.0
C2267 C 0.87626 0.30497 0.86079 0.0
H2268 H 0.82772 0.22695 0.86586 0.0
H2269 H 0.1027 0.4947 0.84411 0.0
H2270 H 0.58618 0.54424 0.8822 0.0
H2271 H 0.62589 0.56357 0.865 0.0
H2272 H 0.68099 0.64957 0.88624 0.0
H2273 H 0.64071 0.6309 0.90304 0.0
H2274 H 0.68458 0.66458 0.86289 0.0
H2275 H 0.69954 0.58789 0.88452 0.0
H2276 H 0.68485 0.53618 0.89373 0.0
H2277 H 0.65748 0.49436 0.85606 0.0
H2278 H 0.67173 0.54579 0.84662 0.0
H2279 H 0.82104 0.65977 0.82396 0.0
H2280 H 0.7831 0.64098 0.84185 0.0
H2281 H 0.72669 0.67152 0.82127 0.0
H2282 H 0.76553 0.69221 0.80398 0.0
H2283 H 0.7266 0.5992 0.84545 0.0
H2284 H 0.68456 0.6901 0.84033 0.0
H2285 H 0.70601 0.7453 0.83385 0.0
H2286 H 0.79913 0.7649 0.84348 0.0
H2287 H 0.7782 0.70994 0.85016 0.0
C2288 C 0.60672 0.56731 0.88315 0.0
C2289 C 0.61046 0.58583 0.89408 0.0
C2290 C 0.62964 0.5783 0.87335 0.0
C2291 C 0.65704 0.60794 0.87432 0.0
C2292 C 0.66032 0.62664 0.88516 0.0
C2293 C 0.63728 0.61583 0.89483 0.0
C2294 C 0.68211 0.61977 0.86406 0.0
C2295 C 0.69365 0.65016 0.8591 0.0
C2296 C 0.69496 0.60161 0.85925 0.0
C2297 C 0.68642 0.57065 0.86488 0.0
C2298 C 0.69019 0.56764 0.87821 0.0
C2299 C 0.68197 0.53838 0.88347 0.0
C2300 C 0.67014 0.51199 0.8755 0.0
C2301 C 0.66661 0.51482 0.86223 0.0
C2302 C 0.67479 0.54402 0.85691 0.0
C2303 C 0.80066 0.66269 0.82334 0.0
C2304 C 0.79628 0.67734 0.81249 0.0
C2305 C 0.77879 0.65174 0.83355 0.0
C2306 C 0.75192 0.65505 0.83314 0.0
C2307 C 0.74741 0.66925 0.82214 0.0
C2308 C 0.76956 0.6808 0.81212 0.0
C2309 C 0.72869 0.64385 0.84413 0.0
C2310 C 0.71749 0.61359 0.84923 0.0
C2311 C 0.71706 0.66262 0.84947 0.0
C2312 C 0.72982 0.69583 0.84562 0.0
C2313 C 0.70959 0.70623 0.84111 0.0
C2314 C 0.72167 0.73747 0.83739 0.0
C2315 C 0.75392 0.75857 0.83821 0.0
C2316 C 0.77417 0.74851 0.8428 0.0
C2317 C 0.76221 0.71731 0.84654 0.0
H2318 H 0.76323 0.78273 0.83532 0.0
H2319 H 0.66378 0.48936 0.8796 0.0
H2320 H 0.37072 0.09732 0.80498 0.0
H2321 H 0.39124 0.07916 0.82246 0.0
H2322 H 0.43954 0.17252 0.83848 0.0
H2323 H 0.41829 0.19058 0.82106 0.0
H2324 H 0.44655 0.09115 0.82933 0.0
H2325 H 0.44937 0.16908 0.87135 0.0
H2326 H 0.4224 0.19726 0.87854 0.0
H2327 H 0.33944 0.13213 0.85772 0.0
H2328 H 0.36577 0.10332 0.85055 0.0
H2329 H 0.52683 0.07084 0.88341 0.0
H2330 H 0.51019 0.09362 0.8661 0.0
H2331 H 0.41744 0.05104 0.88273 0.0
H2332 H 0.43411 0.02856 0.90004 0.0
H2333 H 0.43439 0.10872 0.87567 0.0
H2334 H 0.43529 0.02142 0.85513 0.0
H2335 H 0.45868 0.98983 0.84802 0.0
H2336 H 0.52765 0.06766 0.82588 0.0
H2337 H 0.50491 0.09985 0.83301 0.0
C2338 C 0.38564 0.114 0.81225 0.0
C2339 C 0.39285 0.14543 0.8116 0.0
C2340 C 0.39752 0.10359 0.82226 0.0
C2341 C 0.4169 0.12424 0.83198 0.0
C2342 C 0.42427 0.1558 0.83131 0.0
C2343 C 0.41218 0.1662 0.8213 0.0
C2344 C 0.42919 0.11246 0.84268 0.0
C2345 C 0.44395 0.09518 0.83945 0.0
C2346 C 0.42588 0.11735 0.85599 0.0
C2347 C 0.40968 0.13429 0.8603 0.0
C2348 C 0.42535 0.16075 0.86834 0.0
C2349 C 0.41018 0.17683 0.8724 0.0
C2350 C 0.37927 0.16658 0.86854 0.0
C2351 C 0.36342 0.14013 0.86065 0.0
C2352 C 0.37847 0.12393 0.85658 0.0
C2353 C 0.50288 0.0663 0.88334 0.0
C2354 C 0.48187 0.04801 0.89316 0.0
C2355 C 0.49331 0.0793 0.87341 0.0
C2356 C 0.46237 0.07403 0.87296 0.0
C2357 C 0.44144 0.05571 0.8828 0.0
C2358 C 0.45099 0.04275 0.8927 0.0
C2359 C 0.4516 0.08734 0.8623 0.0
C2360 C 0.43721 0.10494 0.86554 0.0
C2361 C 0.45492 0.08246 0.849 0.0
C2362 C 0.46862 0.06314 0.84472 0.0
C2363 C 0.4556 0.03187 0.84884 0.0
C2364 C 0.46871 1.01385 0.84479 0.0
C2365 C 0.49469 0.02676 0.83654 0.0
C2366 C 0.50757 0.0577 0.83229 0.0
C2367 C 0.49457 0.07584 0.83633 0.0
H2368 H 0.5048 1.01276 0.83341 0.0
H2369 H 0.36758 0.17907 0.87169 0.0
H2370 H 0.92226 0.20265 0.54997 0.0
H2371 H 0.96123 0.2198 0.53251 0.0
H2372 H 1.0126 0.3114 0.55 0.0
H2373 H 0.9741 0.29408 0.56752 0.0
H2374 H 0.97814 0.25996 0.51431 0.0
H2375 H 0.08848 0.34768 0.54336 0.0
H2376 H 0.11294 0.35329 0.56481 0.0
H2377 H 0.06136 0.25342 0.5698 0.0
H2378 H 0.03627 0.24726 0.54849 0.0
H2379 H 0.09708 0.357 0.46945 0.0
H2380 H 0.05846 0.33534 0.48694 0.0
H2381 H 0.11001 0.29492 0.50423 0.0
H2382 H 0.14913 0.31735 0.48688 0.0
H2383 H 0.09293 0.31701 0.52253 0.0
H2384 H 0.03427 0.2475 0.48804 0.0
H2385 H 1.00933 0.22987 0.46664 0.0
H2386 H 0.95896 0.27929 0.47215 0.0
H2387 H 0.98318 0.29672 0.49372 0.0
C2388 C 0.94195 0.2264 0.5501 0.0
C2389 C 0.94517 0.24688 0.56021 0.0
C2390 C 0.96428 0.23626 0.54009 0.0
C2391 C 0.99042 0.26689 0.53991 0.0
C2392 C 0.99331 0.28745 0.54996 0.0
C2393 C 0.97108 0.27756 0.55997 0.0
C2394 C 1.01398 0.27765 0.52905 0.0
C2395 C 1.00323 0.27246 0.51616 0.0
C2396 C 0.0469 0.29342 0.53124 0.0
C2397 C 0.06033 0.29706 0.5444 0.0
C2398 C 0.08219 0.32695 0.5491 0.0
C2399 C 0.0961 0.33023 0.56124 0.0
C2400 C 0.08859 0.30374 0.56869 0.0
C2401 C 0.06689 0.27394 0.56409 0.0
C2402 C 0.05269 0.27055 0.55201 0.0
C2403 C 0.10011 0.34338 0.47696 0.0
C2404 C 0.12613 0.33876 0.47671 0.0
C2405 C 0.0778 0.33074 0.48695 0.0
C2406 C 0.08071 0.31286 0.49693 0.0
C2407 C 0.10694 0.30849 0.49672 0.0
C2408 C 0.12936 0.32131 0.48676 0.0
C2409 C 0.05711 0.29971 0.50778 0.0
C2410 C 0.06785 0.30459 0.52067 0.0
C2411 C 0.02419 0.28275 0.50559 0.0
C2412 C 1.01076 0.27365 0.49241 0.0
C2413 C 1.01813 0.25487 0.48462 0.0
C2414 C 1.00403 0.24482 0.47248 0.0
C2415 C 0.98276 0.25365 0.46798 0.0
C2416 C 0.97549 0.27252 0.47563 0.0
C2417 C 0.98926 0.28235 0.48784 0.0
H2418 H 0.9717 0.24571 0.45862 0.0
H2419 H 0.0998 0.30633 0.57799 0.0
H2420 H 0.70439 0.75747 0.47228 0.0
H2421 H 0.72554 0.74055 0.49002 0.0
H2422 H 0.77269 0.83461 0.50535 0.0
H2423 H 0.75065 0.85128 0.48778 0.0
H2424 H 0.78051 0.75295 0.49736 0.0
H2425 H 0.78314 0.83407 0.53801 0.0
H2426 H 0.75579 0.86235 0.54453 0.0
H2427 H 0.67277 0.79484 0.52439 0.0
H2428 H 0.69951 0.76594 0.5179 0.0
H2429 H 0.86244 0.73889 0.55257 0.0
H2430 H 0.84538 0.75987 0.53467 0.0
H2431 H 0.75236 0.71701 0.55104 0.0
H2432 H 0.76929 0.69613 0.56882 0.0
H2433 H 0.76897 0.77441 0.54328 0.0
H2434 H 0.77027 0.68584 0.52435 0.0
H2435 H 0.79395 0.65398 0.51803 0.0
H2436 H 0.86237 0.73008 0.49498 0.0
H2437 H 0.83933 0.76254 0.50131 0.0
C2438 C 0.71921 0.77453 0.47946 0.0
C2439 C 0.72575 0.80573 0.47862 0.0
C2440 C 0.73145 0.76485 0.48961 0.0
C2441 C 0.7506 0.78606 0.49925 0.0
C2442 C 0.75751 0.81743 0.49829 0.0
C2443 C 0.74499 0.82705 0.48818 0.0
C2444 C 0.76306 0.77513 0.51022 0.0
C2445 C 0.77803 0.75783 0.50739 0.0
C2446 C 0.75991 0.7811 0.52342 0.0
C2447 C 0.74345 0.79807 0.52735 0.0
C2448 C 0.75902 0.82523 0.535 0.0
C2449 C 0.74363 0.84137 0.53869 0.0
C2450 C 0.7126 0.83047 0.53483 0.0
C2451 C 0.69685 0.80333 0.52733 0.0
C2452 C 0.71212 0.78707 0.52363 0.0
C2453 C 0.83835 0.73392 0.55232 0.0
C2454 C 0.81731 0.71597 0.56219 0.0
C2455 C 0.82855 0.74589 0.54205 0.0
C2456 C 0.79742 0.74004 0.54137 0.0
C2457 C 0.77651 0.72214 0.55128 0.0
C2458 C 0.78625 0.71016 0.56149 0.0
C2459 C 0.78634 0.75225 0.5304 0.0
C2460 C 0.77167 0.76981 0.53324 0.0
C2461 C 0.78943 0.7462 0.51723 0.0
C2462 C 0.8033 0.72673 0.51342 0.0
C2463 C 0.79052 0.69586 0.51802 0.0
C2464 C 0.8038 0.67768 0.51442 0.0
C2465 C 0.82971 0.69003 0.50614 0.0
C2466 C 0.84234 0.72056 0.50141 0.0
C2467 C 0.82918 0.73886 0.505 0.0
H2468 H 0.83995 0.67591 0.50336 0.0
H2469 H 0.70074 0.84302 0.53769 0.0
H2470 H 0.30395 0.96607 0.46858 0.0
H2471 H 0.32205 1.00418 0.4862 0.0
H2472 H 0.23751 0.94416 0.50758 0.0
H2473 H 0.21839 0.90698 0.48947 0.0
H2474 H 0.24957 0.99928 0.51186 0.0
H2475 H 0.31405 0.95268 0.51427 0.0
H2476 H 0.35001 0.93505 0.50642 0.0
H2477 H 0.41927 0.03005 0.49737 0.0
H2478 H 0.38356 0.04821 0.50502 0.0
H2479 H 0.36771 0.08488 0.5694 0.0
H2480 H 0.34705 0.04571 0.55211 0.0
H2481 H 0.31256 0.09942 0.53213 0.0
H2482 H 0.33233 0.13813 0.5497 0.0
H2483 H 0.35871 0.04498 0.5282 0.0
H2484 H 0.24782 0.05228 0.51429 0.0
H2485 H 0.2091 0.06294 0.5248 0.0
H2486 H 0.22799 0.03467 0.56147 0.0
H2487 H 0.26656 0.02355 0.55118 0.0
C2488 C 0.28901 0.96114 0.47697 0.0
C2489 C 0.25951 0.9336 0.47752 0.0
C2490 C 0.2996 0.98285 0.48717 0.0
C2491 C 0.28156 0.97712 0.49848 0.0
C2492 C 0.25205 0.94945 0.49904 0.0
C2493 C 0.24116 0.92802 0.48869 0.0
C2494 C 0.29345 0.99985 0.50966 0.0
C2495 C 0.27348 1.00923 0.51538 0.0
C2496 C 0.3244 1.01255 0.51466 0.0
C2497 C 0.34601 1.00176 0.51011 0.0
C2498 C 0.33687 0.96979 0.51053 0.0
C2499 C 0.35722 0.9597 0.50612 0.0
C2500 C 0.38687 0.98141 0.50137 0.0
C2501 C 0.39628 1.01326 0.50104 0.0
C2502 C 0.37601 0.02347 0.50542 0.0
C2503 C 0.35552 0.08824 0.56136 0.0
C2504 C 0.35128 0.11443 0.56103 0.0
C2505 C 0.34383 0.06586 0.55141 0.0
C2506 C 0.32773 0.0691 0.54078 0.0
C2507 C 0.3242 0.09577 0.54029 0.0
C2508 C 0.33573 0.11809 0.55031 0.0
C2509 C 0.31503 0.04478 0.53023 0.0
C2510 C 0.33485 0.0351 0.52463 0.0
C2511 C 0.2836 0.03091 0.5257 0.0
C2512 C 0.26033 0.03741 0.53197 0.0
C2513 C 0.24365 0.04827 0.52459 0.0
C2514 C 0.22175 0.05442 0.53052 0.0
C2515 C 0.21619 0.04961 0.54381 0.0
C2516 C 0.23244 0.03854 0.55119 0.0
C2517 C 0.25436 0.03236 0.54532 0.0
H2518 H 0.19923 0.05438 0.54837 0.0
H2519 H 0.40259 0.97356 0.49796 0.0
H2520 H 0.48455 0.34601 0.09535 0.0
H2521 H 0.47184 0.29149 0.09328 0.0
H2522 H 0.5639 0.31651 0.10763 0.0
H2523 H 0.57721 0.37128 0.10928 0.0
H2524 H 0.54826 0.27635 0.08807 0.0
H2525 H 0.49693 0.28142 0.12708 0.0
H2526 H 0.46126 0.29265 0.13978 0.0
H2527 H 0.38329 0.22813 0.11635 0.0
H2528 H 0.41859 0.21681 0.10341 0.0
H2529 H 0.53355 0.13624 0.10982 0.0
H2530 H 0.53878 0.18761 0.10802 0.0
H2531 H 0.44284 0.14577 0.09483 0.0
H2532 H 0.43697 0.09326 0.09706 0.0
H2533 H 0.45587 0.19264 0.11118 0.0
H2534 H 0.5067 0.18374 0.07344 0.0
H2535 H 0.54249 0.1719 0.06117 0.0
H2536 H 0.6214 0.24341 0.08209 0.0
H2537 H 0.58605 0.25542 0.0946 0.0
C2538 C 0.50234 0.34009 0.09787 0.0
C2539 C 0.53193 0.36322 0.10254 0.0
C2540 C 0.49486 0.30872 0.09682 0.0
C2541 C 0.51668 0.29962 0.1005 0.0
C2542 C 0.54654 0.32279 0.1048 0.0
C2543 C 0.55405 0.35414 0.10583 0.0
C2544 C 0.50847 0.26601 0.10005 0.0
C2545 C 0.52818 0.25812 0.0932 0.0
C2546 C 0.48168 0.24186 0.10639 0.0
C2547 C 0.46045 0.24854 0.1142 0.0
C2548 C 0.47221 0.26981 0.12458 0.0
C2549 C 0.45206 0.27616 0.13183 0.0
C2550 C 0.42005 0.26118 0.12885 0.0
C2551 C 0.4081 0.23975 0.11864 0.0
C2552 C 0.42817 0.23335 0.11135 0.0
C2553 C 0.51343 0.13768 0.10644 0.0
C2554 C 0.48489 0.11042 0.10339 0.0
C2555 C 0.51657 0.16732 0.10537 0.0
C2556 C 0.49156 0.17088 0.10092 0.0
C2557 C 0.46266 0.14374 0.09814 0.0
C2558 C 0.45931 0.11373 0.0994 0.0
C2559 C 0.49606 0.20309 0.09942 0.0
C2560 C 0.47569 0.21076 0.10588 0.0
C2561 C 0.52224 0.22709 0.0927 0.0
C2562 C 0.54367 0.22038 0.085 0.0
C2563 C 0.53167 0.19686 0.07546 0.0
C2564 C 0.55188 0.19013 0.06846 0.0
C2565 C 0.58419 0.20687 0.07086 0.0
C2566 C 0.59637 0.23047 0.08023 0.0
C2567 C 0.57626 0.2373 0.08726 0.0
H2568 H 0.59979 0.20159 0.06545 0.0
H2569 H 0.40448 0.26613 0.13447 0.0
H2570 H 0.7212 0.16038 0.10239 0.0
H2571 H 0.77544 0.20339 0.10094 0.0
H2572 H 0.74374 0.27022 0.10493 0.0
H2573 H 0.68923 0.22725 0.10604 0.0
H2574 H 0.78853 0.28844 0.08644 0.0
H2575 H 0.776 0.25158 0.13047 0.0
H2576 H 0.76299 0.21206 0.14759 0.0
H2577 H 0.83406 0.19343 0.13339 0.0
H2578 H 0.84721 0.23256 0.11607 0.0
H2579 H 0.92493 0.4252 0.1054 0.0
H2580 H 0.8738 0.37834 0.10381 0.0
H2581 H 0.91762 0.32144 0.1019 0.0
H2582 H 0.96961 0.36878 0.10387 0.0
H2583 H 0.86838 0.29537 0.11778 0.0
H2584 H 0.88389 0.3349 0.07473 0.0
H2585 H 0.89741 0.37465 0.05768 0.0
H2586 H 0.82129 0.38794 0.06963 0.0
H2587 H 0.80756 0.34858 0.08687 0.0
C2588 C 0.72564 0.18421 0.10277 0.0
C2589 C 0.70068 0.19025 0.10433 0.0
C2590 C 0.75679 0.20883 0.10208 0.0
C2591 C 0.76385 0.24014 0.10298 0.0
C2592 C 0.73898 0.24629 0.10426 0.0
C2593 C 0.70779 0.22166 0.10498 0.0
C2594 C 0.7971 0.26646 0.10271 0.0
C2595 C 0.8059 0.2901 0.09337 0.0
C2596 C 0.82018 0.2682 0.11147 0.0
C2597 C 0.81234 0.24474 0.12189 0.0
C2598 C 0.78868 0.23887 0.13094 0.0
C2599 C 0.78131 0.21657 0.14068 0.0
C2600 C 0.79762 0.20018 0.14155 0.0
C2601 C 0.8214 0.20611 0.13269 0.0
C2602 C 0.82884 0.22835 0.12291 0.0
C2603 C 0.92401 0.40286 0.10456 0.0
C2604 C 0.9517 0.40099 0.10471 0.0
C2605 C 0.89451 0.37593 0.10357 0.0
C2606 C 0.89164 0.34622 0.10249 0.0
C2607 C 0.91915 0.34408 0.10265 0.0
C2608 C 0.9489 0.3712 0.10372 0.0
C2609 C 0.85974 0.31767 0.10162 0.0
C2610 C 0.85115 0.29359 0.11074 0.0
C2611 C 0.83687 0.31544 0.09261 0.0
C2612 C 0.84483 0.33891 0.08216 0.0
C2613 C 0.87014 0.34642 0.07377 0.0
C2614 C 0.87783 0.36888 0.06406 0.0
C2615 C 0.86025 0.38385 0.06259 0.0
C2616 C 0.83489 0.37633 0.07079 0.0
C2617 C 0.82711 0.35391 0.08052 0.0
H2618 H 0.86626 0.40124 0.05507 0.0
H2619 H 0.79189 0.18293 0.14911 0.0
H2620 H 0.64542 0.54407 0.08865 0.0
H2621 H 0.69162 0.53782 0.08801 0.0
H2622 H 0.73778 0.61215 0.11602 0.0
H2623 H 0.69193 0.61949 0.11617 0.0
H2624 H 0.77977 0.61521 0.10011 0.0
H2625 H 0.69734 0.53055 0.12401 0.0
H2626 H 0.64411 0.48572 0.12767 0.0
H2627 H 0.65629 0.43604 0.09618 0.0
H2628 H 0.70938 0.48079 0.09218 0.0
H2629 H 0.88666 0.56975 0.12445 0.0
H2630 H 0.84357 0.58056 0.12188 0.0
H2631 H 0.807 0.51533 0.09007 0.0
H2632 H 0.85006 0.50408 0.09269 0.0
H2633 H 0.76062 0.50749 0.10733 0.0
H2634 H 0.84453 0.59271 0.08423 0.0
H2635 H 0.89807 0.63754 0.08137 0.0
H2636 H 0.88334 0.68597 0.11267 0.0
H2637 H 0.82984 0.64121 0.11584 0.0
C2638 C 0.66565 0.55947 0.0945 0.0
C2639 C 0.66499 0.5822 0.1025 0.0
C2640 C 0.692 0.55567 0.09423 0.0
C2641 C 0.71798 0.57377 0.10228 0.0
C2642 C 0.71802 0.59766 0.10978 0.0
C2643 C 0.69184 0.60194 0.10984 0.0
C2644 C 0.74442 0.56698 0.10322 0.0
C2645 C 0.7755 0.59169 0.10184 0.0
C2646 C 0.73912 0.53619 0.10527 0.0
C2647 C 0.70725 0.50915 0.10773 0.0
C2648 C 0.68859 0.51015 0.11781 0.0
C2649 C 0.65844 0.48475 0.11995 0.0
C2650 C 0.64683 0.45808 0.11215 0.0
C2651 C 0.66532 0.45674 0.1022 0.0
C2652 C 0.69544 0.4821 0.1 0.0
C2653 C 0.86937 0.55751 0.11695 0.0
C2654 C 0.87181 0.53591 0.10881 0.0
C2655 C 0.84486 0.56396 0.11542 0.0
C2656 C 0.8221 0.54898 0.10571 0.0
C2657 C 0.8243 0.52726 0.09761 0.0
C2658 C 0.84904 0.52098 0.09907 0.0
C2659 C 0.79579 0.55569 0.10422 0.0
C2660 C 0.76477 0.53096 0.10554 0.0
C2661 C 0.80116 0.58646 0.10227 0.0
C2662 C 0.83327 0.61348 0.10034 0.0
C2663 C 0.85279 0.61281 0.09057 0.0
C2664 C 0.88312 0.63823 0.08888 0.0
C2665 C 0.89413 0.66456 0.09685 0.0
C2666 C 0.87479 0.66555 0.10651 0.0
C2667 C 0.84445 0.64017 0.10825 0.0
H2668 H 0.91762 0.68422 0.09553 0.0
H2669 H 0.62356 0.4384 0.11384 0.0
H2670 H 0.37817 0.56817 0.93517 0.0
H2671 H 0.32353 0.55612 0.93652 0.0
H2672 H 0.29205 0.45728 0.93536 0.0
H2673 H 0.34652 0.46913 0.93368 0.0
H2674 H 0.25764 0.4714 0.91926 0.0
H2675 H 0.29061 0.49227 0.96356 0.0
H2676 H 0.32488 0.52266 0.98175 0.0
H2677 H 0.30772 0.5982 0.97349 0.0
H2678 H 0.27367 0.56843 0.95514 0.0
H2679 H 0.09812 0.42845 0.9328 0.0
H2680 H 0.15008 0.43301 0.93439 0.0
H2681 H 0.19302 0.53336 0.93804 0.0
H2682 H 0.14171 0.52903 0.9368 0.0
H2683 H 0.22029 0.51385 0.9541 0.0
H2684 H 0.1916 0.49593 0.90891 0.0
H2685 H 0.1581 0.46691 0.89032 0.0
H2686 H 0.16795 0.38739 0.8998 0.0
H2687 H 0.2012 0.41583 0.91856 0.0
C2688 C 0.35964 0.54386 0.93519 0.0
C2689 C 0.36686 0.51965 0.93439 0.0
C2690 C 0.32838 0.53698 0.93606 0.0
C2691 C 0.30359 0.50574 0.93617 0.0
C2692 C 0.31071 0.48154 0.93534 0.0
C2693 C 0.34194 0.48839 0.93451 0.0
C2694 C 0.27026 0.49836 0.93687 0.0
C2695 C 0.24934 0.48026 0.92699 0.0
C2696 C 0.25945 0.51031 0.94683 0.0
C2697 C 0.27979 0.52821 0.95791 0.0
C2698 C 0.29432 0.51545 0.96556 0.0
C2699 C 0.31368 0.53255 0.97591 0.0
C2700 C 0.31853 0.56237 0.97876 0.0
C2701 C 0.30396 0.57512 0.97127 0.0
C2702 C 0.2846 0.55812 0.9609 0.0
C2703 C 0.11861 0.45144 0.93405 0.0
C2704 C 0.11555 0.47833 0.93462 0.0
C2705 C 0.14837 0.45405 0.93488 0.0
C2706 C 0.17567 0.48362 0.93617 0.0
C2707 C 0.17247 0.51028 0.93706 0.0
C2708 C 0.14291 0.50771 0.9363 0.0
C2709 C 0.20774 0.48733 0.93636 0.0
C2710 C 0.22847 0.50474 0.94641 0.0
C2711 C 0.21843 0.47493 0.92651 0.0
C2712 C 0.19857 0.45787 0.91522 0.0
C2713 C 0.18642 0.47217 0.90708 0.0
C2714 C 0.16752 0.45585 0.89651 0.0
C2715 C 0.16082 0.42529 0.8939 0.0
C2716 C 0.1731 0.41104 0.90184 0.0
C2717 C 0.19199 0.42725 0.91244 0.0
H2718 H 0.14618 0.41269 0.88571 0.0
H2719 H 0.33353 0.57557 0.98677 0.0
H2720 H 0.54372 0.85697 0.91066 0.0
H2721 H 0.55465 0.81402 0.91282 0.0
H2722 H 0.552 0.82004 0.95438 0.0
H2723 H 0.54101 0.86317 0.95229 0.0
H2724 H 0.59951 0.81114 0.94742 0.0
H2725 H 0.48971 0.76227 0.9375 0.0
H2726 H 0.44301 0.75332 0.9251 0.0
H2727 H 0.47787 0.72949 0.89147 0.0
H2728 H 0.52501 0.73872 0.90363 0.0
H2729 H 0.53625 0.63033 0.944 0.0
H2730 H 0.53029 0.6764 0.94472 0.0
H2731 H 0.62503 0.73356 0.9308 0.0
H2732 H 0.63129 0.68711 0.93003 0.0
H2733 H 0.53099 0.71068 0.92484 0.0
H2734 H 0.65243 0.80994 0.94225 0.0
H2735 H 0.69586 0.81664 0.95641 0.0
H2736 H 0.63184 0.73543 0.97829 0.0
H2737 H 0.58799 0.72852 0.9644 0.0
C2738 C 0.54507 0.84899 0.92028 0.0
C2739 C 0.54107 0.86344 0.9313 0.0
C2740 C 0.55151 0.82444 0.9215 0.0
C2741 C 0.55385 0.81341 0.93377 0.0
C2742 C 0.5504 0.82809 0.9448 0.0
C2743 C 0.54406 0.85278 0.94359 0.0
C2744 C 0.55913 0.78612 0.93503 0.0
C2745 C 0.58456 0.78921 0.94246 0.0
C2746 C 0.53941 0.75719 0.92876 0.0
C2747 C 0.51102 0.75147 0.92144 0.0
C2748 C 0.48752 0.75533 0.92744 0.0
C2749 C 0.46096 0.75018 0.92046 0.0
C2750 C 0.45751 0.74092 0.9075 0.0
C2751 C 0.48059 0.73671 0.90151 0.0
C2752 C 0.50722 0.74187 0.90844 0.0
C2753 C 0.55608 0.65269 0.94121 0.0
C2754 C 0.58424 0.65484 0.93686 0.0
C2755 C 0.55254 0.67909 0.9416 0.0
C2756 C 0.57705 0.70852 0.93773 0.0
C2757 C 0.60576 0.71116 0.9339 0.0
C2758 C 0.60936 0.68457 0.93349 0.0
C2759 C 0.57161 0.73577 0.93709 0.0
C2760 C 0.5461 0.73266 0.92976 0.0
C2761 C 0.59087 0.76436 0.94366 0.0
C2762 C 0.61701 0.76854 0.95218 0.0
C2763 C 0.64761 0.79358 0.95011 0.0
C2764 C 0.6723 0.79741 0.95809 0.0
C2765 C 0.66663 0.77641 0.96821 0.0
C2766 C 0.63623 0.75161 0.97041 0.0
C2767 C 0.61146 0.74771 0.96248 0.0
H2768 H 0.68578 0.77941 0.97437 0.0
H2769 H 0.43693 0.73694 0.90211 0.0
H2770 H 0.43062 0.91868 0.9358 0.0
H2771 H 0.38342 0.8675 0.93646 0.0
H2772 H 0.3262 0.91059 0.93239 0.0
H2773 H 0.37388 0.96265 0.93166 0.0
H2774 H 0.30258 0.86016 0.95085 0.0
H2775 H 0.3366 0.87892 0.90668 0.0
H2776 H 0.37514 0.89428 0.889 0.0
H2777 H 0.39174 0.81922 0.89903 0.0
H2778 H 0.35362 0.80368 0.91691 0.0
H2779 H 0.16515 0.71552 0.93428 0.0
H2780 H 0.20857 0.76954 0.935 0.0
H2781 H 0.27489 0.7366 0.93324 0.0
H2782 H 0.23148 0.6824 0.93251 0.0
H2783 H 0.29213 0.7838 0.91715 0.0
H2784 H 0.26054 0.76592 0.96163 0.0
H2785 H 0.22372 0.75083 0.97995 0.0
H2786 H 0.20378 0.82373 0.97002 0.0
H2787 H 0.24019 0.839 0.95152 0.0
C2788 C 0.40812 0.9176 0.93512 0.0
C2789 C 0.40626 0.94506 0.93356 0.0
C2790 C 0.38104 0.88812 0.93548 0.0
C2791 C 0.35123 0.88507 0.93429 0.0
C2792 C 0.34899 0.91236 0.93328 0.0
C2793 C 0.37627 0.94211 0.93285 0.0
C2794 C 0.32283 0.85316 0.93364 0.0
C2795 C 0.29994 0.84361 0.94336 0.0
C2796 C 0.31977 0.83127 0.92405 0.0
C2797 C 0.34242 0.84029 0.9132 0.0
C2798 C 0.34862 0.86581 0.90517 0.0
C2799 C 0.37037 0.87453 0.89511 0.0
C2800 C 0.38593 0.85777 0.89291 0.0
C2801 C 0.37969 0.83219 0.90075 0.0
C2802 C 0.35798 0.82339 0.91084 0.0
C2803 C 0.18895 0.71966 0.93425 0.0
C2804 C 0.19468 0.6944 0.93341 0.0
C2805 C 0.21385 0.75069 0.93464 0.0
C2806 C 0.24518 0.75735 0.93432 0.0
C2807 C 0.25099 0.73221 0.93349 0.0
C2808 C 0.22609 0.70115 0.93305 0.0
C2809 C 0.27185 0.79046 0.93447 0.0
C2810 C 0.29451 0.8003 0.92463 0.0
C2811 C 0.27473 0.8125 0.94399 0.0
C2812 C 0.25283 0.80338 0.95511 0.0
C2813 C 0.2481 0.77857 0.96329 0.0
C2814 C 0.22735 0.77001 0.97372 0.0
C2815 C 0.21135 0.78625 0.97613 0.0
C2816 C 0.21615 0.81114 0.96813 0.0
C2817 C 0.23686 0.81977 0.95768 0.0
H2818 H 0.1953 0.7796 0.98421 0.0
H2819 H 0.40277 0.86457 0.88511 0.0
H2820 H 0.15135 0.66854 0.45173 0.0
H2821 H 0.13979 0.61455 0.44921 0.0
H2822 H 0.22422 0.64673 0.42667 0.0
H2823 H 0.23542 0.70098 0.4289 0.0
H2824 H 0.17941 0.5952 0.41635 0.0
H2825 H 0.21843 0.62443 0.45967 0.0
H2826 H 0.22081 0.64463 0.48171 0.0
H2827 H 0.12624 0.57103 0.48879 0.0
H2828 H 0.12314 0.55064 0.46672 0.0
H2829 H 0.19704 0.46104 0.42542 0.0
H2830 H 0.20149 0.51262 0.4246 0.0
H2831 H 0.11134 0.47518 0.4432 0.0
H2832 H 0.10664 0.42318 0.444 0.0
H2833 H 0.15704 0.52832 0.45526 0.0
H2834 H 0.11889 0.4985 0.41201 0.0
H2835 H 0.11632 0.47951 0.38973 0.0
H2836 H 0.21043 0.55412 0.38271 0.0
H2837 H 0.21359 0.57355 0.40498 0.0
C2838 C 0.16754 0.66416 0.44627 0.0
C2839 C 0.19454 0.68915 0.44065 0.0
C2840 C 0.16094 0.6332 0.44485 0.0
C2841 C 0.18147 0.62638 0.438 0.0
C2842 C 0.20803 0.65124 0.43207 0.0
C2843 C 0.21445 0.68228 0.43334 0.0
C2844 C 0.17524 0.59341 0.43712 0.0
C2845 C 0.17497 0.58078 0.42489 0.0
C2846 C 0.1686 0.57405 0.44819 0.0
C2847 C 0.17046 0.58619 0.46149 0.0
C2848 C 0.19807 0.61269 0.46589 0.0
C2849 C 0.19955 0.62415 0.4784 0.0
C2850 C 0.17367 0.60917 0.48664 0.0
C2851 C 0.14626 0.58264 0.4824 0.0
C2852 C 0.14463 0.5711 0.46989 0.0
C2853 C 0.17787 0.46358 0.42916 0.0
C2854 C 0.15148 0.4379 0.43481 0.0
C2855 C 0.18042 0.49315 0.42863 0.0
C2856 C 0.15675 0.49791 0.43381 0.0
C2857 C 0.12992 0.47213 0.43913 0.0
C2858 C 0.12715 0.44235 0.43951 0.0
C2859 C 0.16126 0.5302 0.43451 0.0
C2860 C 0.16136 0.54274 0.44672 0.0
C2861 C 0.16796 0.5495 0.42344 0.0
C2862 C 0.16656 0.53731 0.4102 0.0
C2863 C 0.13916 0.51066 0.40576 0.0
C2864 C 0.13755 0.4999 0.39312 0.0
C2865 C 0.16321 0.51557 0.38482 0.0
C2866 C 0.19057 0.54201 0.38915 0.0
C2867 C 0.19225 0.55296 0.40177 0.0
H2868 H 0.16183 0.50731 0.37501 0.0
H2869 H 0.17486 0.61809 0.49632 0.0
H2870 H 0.63975 0.6987 0.43671 0.0
H2871 H 0.58735 0.65143 0.4359 0.0
H2872 H 0.54437 0.70885 0.43915 0.0
H2873 H 0.59585 0.75566 0.43983 0.0
H2874 H 0.51995 0.65971 0.4566 0.0
H2875 H 0.54103 0.67656 0.41085 0.0
H2876 H 0.57109 0.68385 0.39086 0.0
H2877 H 0.56557 0.59495 0.39677 0.0
H2878 H 0.53534 0.58714 0.41684 0.0
H2879 H 0.35986 0.55931 0.4421 0.0
H2880 H 0.41458 0.60164 0.44146 0.0
H2881 H 0.44466 0.53436 0.43465 0.0
H2882 H 0.38999 0.49186 0.43532 0.0
H2883 H 0.4776 0.58528 0.41979 0.0
H2884 H 0.45142 0.56626 0.46465 0.0
H2885 H 0.42018 0.55915 0.4843 0.0
H2886 H 0.43593 0.65268 0.48038 0.0
H2887 H 0.4669 0.6602 0.46059 0.0
C2888 C 0.61913 0.70124 0.43713 0.0
C2889 C 0.62223 0.73112 0.43834 0.0
C2890 C 0.58919 0.67421 0.43666 0.0
C2891 C 0.56188 0.67659 0.43751 0.0
C2892 C 0.56501 0.70636 0.43854 0.0
C2893 C 0.59468 0.73322 0.43887 0.0
C2894 C 0.52986 0.64833 0.43773 0.0
C2895 C 0.51062 0.64355 0.44851 0.0
C2896 C 0.51788 0.62676 0.42735 0.0
C2897 C 0.53631 0.63146 0.41541 0.0
C2898 C 0.54648 0.65871 0.40795 0.0
C2899 C 0.56347 0.66289 0.39658 0.0
C2900 C 0.57044 0.63998 0.39257 0.0
C2901 C 0.56025 0.61273 0.3999 0.0
C2902 C 0.54311 0.60837 0.41126 0.0
C2903 C 0.37808 0.55345 0.4405 0.0
C2904 C 0.37038 0.52205 0.43882 0.0
C2905 C 0.40943 0.57772 0.44013 0.0
C2906 C 0.43391 0.57123 0.43821 0.0
C2907 C 0.42627 0.54003 0.43615 0.0
C2908 C 0.39491 0.51573 0.43649 0.0
C2909 C 0.46742 0.59693 0.43858 0.0
C2910 C 0.48697 0.6012 0.42795 0.0
C2911 C 0.47976 0.61807 0.44913 0.0
C2912 C 0.46126 0.61369 0.46107 0.0
C2913 C 0.44803 0.58523 0.46792 0.0
C2914 C 0.4304 0.58114 0.47909 0.0
C2915 C 0.42602 0.60542 0.48357 0.0
C2916 C 0.43932 0.63388 0.47689 0.0
C2917 C 0.45694 0.63808 0.4657 0.0
H2918 H 0.41236 0.60221 0.49222 0.0
H2919 H 0.58363 0.64328 0.38377 0.0
H2920 H 0.5753 0.92039 0.43962 0.0
H2921 H 0.53233 0.93162 0.4378 0.0
H2922 H 0.46542 0.83258 0.43673 0.0
H2923 H 0.50841 0.82113 0.43822 0.0
H2924 H 0.45116 0.8641 0.41892 0.0
H2925 H 0.4776 0.87566 0.4643 0.0
H2926 H 0.51292 0.89714 0.48315 0.0
H2927 H 0.53397 0.9901 0.47287 0.0
H2928 H 0.49908 0.9692 0.45384 0.0
H2929 H 0.30954 0.85693 0.43512 0.0
H2930 H 0.35709 0.85379 0.43402 0.0
H2931 H 0.41318 0.95436 0.43715 0.0
H2932 H 0.36504 0.95776 0.43863 0.0
H2933 H 0.43615 0.92715 0.45256 0.0
H2934 H 0.40669 0.91555 0.40813 0.0
H2935 H 0.37111 0.89427 0.38935 0.0
H2936 H 0.35614 0.80235 0.3975 0.0
H2937 H 0.39129 0.82297 0.41645 0.0
C2938 C 0.55149 0.90093 0.43882 0.0
C2939 C 0.54543 0.86979 0.43905 0.0
C2940 C 0.52687 0.90743 0.43792 0.0
C2941 C 0.49551 0.88298 0.43727 0.0
C2942 C 0.48937 0.85188 0.43726 0.0
C2943 C 0.514 0.84535 0.43821 0.0
C2944 C 0.46909 0.88975 0.43668 0.0
C2945 C 0.44772 0.87763 0.42634 0.0
C2946 C 0.46509 0.90832 0.44612 0.0
C2947 C 0.48601 0.9209 0.45757 0.0
C2948 C 0.48997 0.90071 0.466 0.0
C2949 C 0.50987 0.91277 0.47672 0.0
C2950 C 0.52576 0.94497 0.47918 0.0
C2951 C 0.5217 0.96517 0.47094 0.0
C2952 C 0.50185 0.95322 0.46019 0.0
C2953 C 0.33187 0.87859 0.43549 0.0
C2954 C 0.33325 0.9077 0.43694 0.0
C2955 C 0.35922 0.87669 0.43477 0.0
C2956 C 0.38892 0.90382 0.43529 0.0
C2957 C 0.39057 0.93305 0.43666 0.0
C2958 C 0.36301 0.93499 0.43744 0.0
C2959 C 0.41787 0.90108 0.43489 0.0
C2960 C 0.43974 0.91392 0.44504 0.0
C2961 C 0.42243 0.88327 0.42524 0.0
C2962 C 0.40149 0.8708 0.41377 0.0
C2963 C 0.39566 0.89076 0.40597 0.0
C2964 C 0.37558 0.87882 0.39529 0.0
C2965 C 0.36133 0.84697 0.39225 0.0
C2966 C 0.36719 0.82701 0.39987 0.0
C2967 C 0.38723 0.83883 0.41057 0.0
H2968 H 0.34578 0.83777 0.38398 0.0
H2969 H 0.54115 0.95427 0.4875 0.0
H2970 H 0.80953 0.86181 0.26957 0.0
H2971 H 0.86083 0.86599 0.2701 0.0
H2972 H 0.81742 0.76538 0.26874 0.0
H2973 H 0.76516 0.76075 0.26805 0.0
H2974 H 0.87074 0.79764 0.28695 0.0
H2975 H 0.84565 0.79994 0.24226 0.0
H2976 H 0.82723 0.81741 0.22353 0.0
H2977 H 0.90224 0.91188 0.22924 0.0
H2978 H 0.92083 0.89506 0.24815 0.0
H2979 H 1.01672 0.80645 0.27068 0.0
H2980 H 0.96195 0.79374 0.27194 0.0
H2981 H 0.99056 0.89079 0.26519 0.0
H2982 H 0.04541 0.90361 0.26384 0.0
H2983 H 0.94218 0.85515 0.2505 0.0
H2984 H 0.96594 0.85474 0.29554 0.0
H2985 H 0.9842 0.83913 0.3149 0.0
H2986 H 0.91235 0.74327 0.3092 0.0
H2987 H 0.89391 0.75825 0.28969 0.0
C2988 C 0.81054 0.84036 0.26947 0.0
C2989 C 0.78293 0.81085 0.26865 0.0
C2990 C 0.84009 0.84289 0.26977 0.0
C2991 C 0.84304 0.81607 0.26931 0.0
C2992 C 0.81566 0.78642 0.26907 0.0
C2993 C 0.78582 0.78382 0.26866 0.0
C2994 C 0.87495 0.81969 0.26852 0.0
C2995 C 0.88622 0.80964 0.27888 0.0
C2996 C 0.8954 0.8361 0.25814 0.0
C2997 C 0.88449 0.84627 0.24669 0.0
C2998 C 0.85808 0.82449 0.23959 0.0
C2999 C 0.84763 0.83426 0.22893 0.0
C3000 C 0.86352 0.86575 0.22522 0.0
C3001 C 0.88994 0.88751 0.23214 0.0
C3002 C 0.90047 0.87785 0.24282 0.0
C3003 C 1.01145 0.82522 0.26968 0.0
C3004 C 0.03559 0.85611 0.26719 0.0
C3005 C 0.98003 0.81788 0.27039 0.0
C3006 C 0.97195 0.8413 0.26877 0.0
C3007 C 0.99605 0.87222 0.26643 0.0
C3008 C 0.02746 0.87955 0.26565 0.0
C3009 C 0.93839 0.83352 0.26905 0.0
C3010 C 0.92675 0.84285 0.25856 0.0
C3011 C 0.91774 0.81664 0.27935 0.0
C3012 C 0.92877 0.80757 0.29107 0.0
C3013 C 0.9542 0.83029 0.29835 0.0
C3014 C 0.96455 0.82157 0.30936 0.0
C3015 C 0.9495 0.79022 0.31325 0.0
C3016 C 0.92401 0.76754 0.30616 0.0
C3017 C 0.91359 0.77613 0.29513 0.0
H3018 H 0.95754 0.78351 0.32178 0.0
H3019 H 0.85538 0.87327 0.21696 0.0
H3020 H 0.21273 0.96866 0.28249 0.0
H3021 H 0.20587 0.01432 0.28371 0.0
H3022 H 0.28632 0.06575 0.25895 0.0
H3023 H 0.29402 0.02023 0.25814 0.0
H3024 H 0.28513 0.10444 0.2759 0.0
H3025 H 0.20796 0.02779 0.24747 0.0
H3026 H 0.16474 0.97582 0.24091 0.0
H3027 H 0.10597 0.97983 0.27063 0.0
H3028 H 0.14902 0.03162 0.27752 0.0
H3029 H 0.24272 0.21351 0.25113 0.0
H3030 H 0.2543 0.171 0.25381 0.0
H3031 H 0.18249 0.12919 0.28303 0.0
H3032 H 0.17073 0.17186 0.28038 0.0
H3033 H 0.17911 0.08607 0.26453 0.0
H3034 H 0.25729 0.16508 0.29201 0.0
H3035 H 0.30073 0.21785 0.29743 0.0
H3036 H 0.3579 0.21014 0.26794 0.0
H3037 H 0.31462 0.15747 0.26221 0.0
C3038 C 0.22929 0.98986 0.27746 0.0
C3039 C 0.25381 0.99073 0.27013 0.0
C3040 C 0.22518 0.01594 0.27808 0.0
C3041 C 0.24494 0.04335 0.2711 0.0
C3042 C 0.27054 0.04488 0.26435 0.0
C3043 C 0.27501 0.01886 0.26391 0.0
C3044 C 0.23804 0.06971 0.27043 0.0
C3045 C 0.26202 0.10038 0.27327 0.0
C3046 C 0.20774 0.06464 0.2672 0.0
C3047 C 0.18182 0.03347 0.26309 0.0
C3048 C 0.18591 0.01748 0.25268 0.0
C3049 C 0.16144 0.98808 0.24889 0.0
C3050 C 0.13266 0.97455 0.25536 0.0
C3051 C 0.1283 0.99035 0.26564 0.0
C3052 C 0.15271 0.01973 0.26949 0.0
C3053 C 0.22932 0.19525 0.25813 0.0
C3054 C 0.20567 0.19605 0.2655 0.0
C3055 C 0.23614 0.17105 0.25971 0.0
C3056 C 0.21942 0.14691 0.26868 0.0
C3057 C 0.19577 0.14757 0.27607 0.0
C3058 C 0.18918 0.17205 0.2746 0.0
C3059 C 0.22615 0.12063 0.27002 0.0
C3060 C 0.20214 0.09001 0.26724 0.0
C3061 C 0.25648 0.12582 0.27314 0.0
C3062 C 0.28259 0.15743 0.2766 0.0
C3063 C 0.27903 0.17473 0.2866 0.0
C3064 C 0.30365 0.20461 0.28975 0.0
C3065 C 0.33203 0.21737 0.28302 0.0
C3066 C 0.33589 0.20024 0.27314 0.0
C3067 C 0.31133 0.17036 0.26995 0.0
H3068 H 0.35106 0.24051 0.28547 0.0
H3069 H 0.1137 0.9519 0.25236 0.0
H3070 H 0.83985 0.04745 0.25145 0.0
H3071 H 0.88191 0.10181 0.25357 0.0
H3072 H 0.93055 0.07317 0.28018 0.0
H3073 H 0.88781 0.01858 0.27834 0.0
H3074 H 0.93639 0.12597 0.28826 0.0
H3075 H 0.95213 0.09085 0.24734 0.0
H3076 H 0.93781 0.06735 0.22557 0.0
H3077 H 0.91806 0.13915 0.21353 0.0
H3078 H 0.93186 0.16285 0.23529 0.0
H3079 H 0.09036 0.25783 0.27932 0.0
H3080 H 0.04289 0.20634 0.28017 0.0
H3081 H 0.99193 0.24259 0.25927 0.0
H3082 H 0.03955 0.29458 0.25849 0.0
H3083 H 0.98622 0.1873 0.24852 0.0
H3084 H 0.9747 0.22392 0.28995 0.0
H3085 H 0.99183 0.24707 0.31166 0.0
H3086 H 1.00728 0.17176 0.32259 0.0
H3087 H 0.99067 0.14838 0.30087 0.0
C3088 C 0.85955 0.05268 0.25773 0.0
C3089 C 0.86065 0.02857 0.2646 0.0
C3090 C 0.88368 0.08385 0.25892 0.0
C3091 C 0.90995 0.09175 0.26681 0.0
C3092 C 0.91069 0.06782 0.27398 0.0
C3093 C 0.88626 0.03657 0.27292 0.0
C3094 C 0.93666 0.12485 0.26742 0.0
C3095 C 0.94748 0.13919 0.27956 0.0
C3096 C 0.95097 0.14258 0.25609 0.0
C3097 C 0.94271 0.12843 0.24299 0.0
C3098 C 0.94451 0.10149 0.24008 0.0
C3099 C 0.93652 0.08816 0.22773 0.0
C3100 C 0.92695 0.1017 0.21818 0.0
C3101 C 0.92543 0.12866 0.22094 0.0
C3102 C 0.93335 0.14206 0.23328 0.0
C3103 C 0.06894 0.25505 0.27508 0.0
C3104 C 0.06877 0.28038 0.26884 0.0
C3105 C 0.04176 0.22554 0.2756 0.0
C3106 C 1.01377 0.22052 0.2698 0.0
C3107 C 1.01325 0.24592 0.26383 0.0
C3108 C 0.04041 0.27567 0.26347 0.0
C3109 C 0.98582 0.18829 0.26932 0.0
C3110 C 0.97491 0.17409 0.2572 0.0
C3111 C 0.9718 0.1706 0.28065 0.0
C3112 C 0.9817 0.18454 0.29374 0.0
C3113 C 0.982 0.21243 0.29695 0.0
C3114 C 0.99157 0.22556 0.30926 0.0
C3115 C 1.00071 0.21093 0.31849 0.0
C3116 C 1.00022 0.18308 0.31543 0.0
C3117 C 0.9907 0.16986 0.30312 0.0
H3118 H 1.0081 0.22114 0.32802 0.0
H3119 H 0.92078 0.09135 0.20863 0.0
H3120 H 0.77424 0.76272 0.77074 0.0
H3121 H 0.77858 0.81471 0.76991 0.0
H3122 H 0.87775 0.85838 0.77795 0.0
H3123 H 0.87381 0.80729 0.77872 0.0
H3124 H 0.84929 0.88234 0.79313 0.0
H3125 H 0.85279 0.85941 0.74797 0.0
H3126 H 0.83263 0.82827 0.72798 0.0
H3127 H 0.75049 0.83772 0.7296 0.0
H3128 H 0.76998 0.86857 0.74972 0.0
H3129 H 0.91033 0.04224 0.77841 0.0
H3130 H 0.89872 0.98789 0.77828 0.0
H3131 H 0.80295 0.957 0.7673 0.0
H3132 H 0.81428 1.01131 0.7675 0.0
H3133 H 0.82438 0.92459 0.75412 0.0
H3134 H 0.82149 0.94962 0.79848 0.0
H3135 H 0.84077 0.98031 0.81862 0.0
H3136 H 0.92001 0.96595 0.81892 0.0
H3137 H 0.90144 0.93554 0.79867 0.0
C3138 C 0.79695 0.78341 0.77229 0.0
C3139 C 0.82363 0.7806 0.77475 0.0
C3140 C 0.79943 0.81314 0.77178 0.0
C3141 C 0.82855 0.84057 0.77385 0.0
C3142 C 0.85503 0.83769 0.77636 0.0
C3143 C 0.85267 0.80825 0.77673 0.0
C3144 C 0.83195 0.87246 0.77356 0.0
C3145 C 0.84405 0.89163 0.78456 0.0
C3146 C 0.82437 0.88444 0.76252 0.0
C3147 C 0.81265 0.86595 0.75043 0.0
C3148 C 0.83029 0.8546 0.74413 0.0
C3149 C 0.81901 0.83705 0.73276 0.0
C3150 C 0.79024 0.83093 0.72755 0.0
C3151 C 0.77273 0.84242 0.73367 0.0
C3152 C 0.78389 0.85994 0.74505 0.0
C3153 C 0.88673 0.02395 0.77601 0.0
C3154 C 0.86326 0.0314 0.77303 0.0
C3155 C 0.88011 0.99277 0.77593 0.0
C3156 C 0.84978 0.9681 0.77297 0.0
C3157 C 0.82653 0.97549 0.76962 0.0
C3158 C 0.83313 1.00669 0.76969 0.0
C3159 C 0.8423 0.9347 0.77363 0.0
C3160 C 0.82939 0.91524 0.76273 0.0
C3161 C 0.84898 0.92232 0.7848 0.0
C3162 C 0.86022 0.94054 0.79699 0.0
C3163 C 0.84316 0.95321 0.80279 0.0
C3164 C 0.85394 0.97053 0.81423 0.0
C3165 C 0.88164 0.97514 0.82003 0.0
C3166 C 0.89858 0.96239 0.81441 0.0
C3167 C 0.88792 0.94509 0.80295 0.0
H3168 H 0.88994 0.98854 0.82889 0.0
H3169 H 0.78156 0.81735 0.71874 0.0
H3170 H 0.3046 0.03974 0.78143 0.0
H3171 H 0.25199 0.99324 0.78093 0.0
H3172 H 0.21679 0.046 0.76064 0.0
H3173 H 0.26882 0.09256 0.76157 0.0
H3174 H 0.17853 0.01609 0.77875 0.0
H3175 H 0.22727 0.98573 0.74615 0.0
H3176 H 0.26723 0.97515 0.7369 0.0
H3177 H 0.24611 0.9046 0.76575 0.0
H3178 H 0.20628 0.91505 0.77529 0.0
H3179 H 0.02758 0.88634 0.76325 0.0
H3180 H 0.08159 0.93011 0.76099 0.0
H3181 H 0.11448 0.88339 0.78654 0.0
H3182 H 0.06077 0.83959 0.78875 0.0
H3183 H 0.15342 0.90942 0.76536 0.0
H3184 H 0.10505 0.94139 0.7979 0.0
H3185 H 0.0646 0.952 0.80658 0.0
H3186 H 0.08495 0.02006 0.77668 0.0
H3187 H 0.12523 1.00952 0.7677 0.0
C3188 C 0.28573 0.04124 0.77669 0.0
C3189 C 0.29093 0.06989 0.77157 0.0
C3190 C 0.25559 0.01458 0.77638 0.0
C3191 C 0.23017 0.01585 0.77068 0.0
C3192 C 0.23575 0.04427 0.76518 0.0
C3193 C 0.26564 0.07092 0.76567 0.0
C3194 C 0.19745 0.98834 0.77102 0.0
C3195 C 0.17311 0.99292 0.77559 0.0
C3196 C 0.19011 0.95776 0.76722 0.0
C3197 C 0.21401 0.9514 0.76151 0.0
C3198 C 0.23131 0.96813 0.75058 0.0
C3199 C 0.25391 0.96212 0.74528 0.0
C3200 C 0.25927 0.93928 0.75075 0.0
C3201 C 0.24197 0.92232 0.76153 0.0
C3202 C 0.21936 0.92826 0.76688 0.0
C3203 C 0.04635 0.8853 0.7683 0.0
C3204 C 0.03977 0.85958 0.77628 0.0
C3205 C 0.07721 0.9104 0.76705 0.0
C3206 C 0.10214 0.9102 0.77368 0.0
C3207 C 0.09571 0.88415 0.78135 0.0
C3208 C 0.0649 0.85924 0.78269 0.0
C3209 C 0.13478 0.93744 0.77295 0.0
C3210 C 0.15901 0.93272 0.76839 0.0
C3211 C 0.14204 0.96799 0.77664 0.0
C3212 C 0.11791 0.97442 0.78205 0.0
C3213 C 0.10071 0.95842 0.79311 0.0
C3214 C 0.07785 0.96446 0.7981 0.0
C3215 C 0.07215 0.98662 0.79216 0.0
C3216 C 0.08936 1.00286 0.78125 0.0
C3217 C 0.11222 0.99688 0.77622 0.0
H3218 H 0.05444 0.99127 0.79604 0.0
H3219 H 0.27677 0.93466 0.74663 0.0
H3220 H 0.23112 0.24731 0.78819 0.0
H3221 H 0.18805 0.25823 0.78625 0.0
H3222 H 0.13917 0.17908 0.76064 0.0
H3223 H 0.18287 0.1685 0.76232 0.0
H3224 H 0.13157 0.22531 0.75228 0.0
H3225 H 0.11925 0.17608 0.79341 0.0
H3226 H 0.13533 0.16803 0.81503 0.0
H3227 H 0.15399 0.25934 0.82677 0.0
H3228 H 0.13843 0.26812 0.80515 0.0
H3229 H 0.97831 0.20452 0.76191 0.0
H3230 H 0.02515 0.19935 0.76118 0.0
H3231 H 0.07746 0.2866 0.78183 0.0
H3232 H 0.0305 0.29211 0.78253 0.0
H3233 H 0.08352 0.23731 0.79247 0.0
H3234 H 0.09354 0.2848 0.7509 0.0
H3235 H 0.0749 0.29033 0.72944 0.0
H3236 H 0.05712 0.19866 0.7188 0.0
H3237 H 0.07545 0.19248 0.74027 0.0
C3238 C 0.21116 0.23213 0.78217 0.0
C3239 C 0.21026 0.20674 0.77555 0.0
C3240 C 0.18646 0.23839 0.78107 0.0
C3241 C 0.15985 0.21909 0.77353 0.0
C3242 C 0.15929 0.19427 0.76658 0.0
C3243 C 0.18428 0.1882 0.76755 0.0
C3244 C 0.13256 0.22464 0.77313 0.0
C3245 C 0.12087 0.22754 0.76108 0.0
C3246 C 0.11871 0.22811 0.78458 0.0
C3247 C 0.12797 0.22288 0.79761 0.0
C3248 C 0.127 0.19454 0.80057 0.0
C3249 C 0.13599 0.18983 0.81283 0.0
C3250 C 0.14575 0.21319 0.82226 0.0
C3251 C 0.14646 0.24128 0.81945 0.0
C3252 C 0.13754 0.24613 0.8072 0.0
C3253 C 0.99984 0.22284 0.76619 0.0
C3254 C 1.0006 0.24876 0.77229 0.0
C3255 C 0.02667 0.21987 0.76572 0.0
C3256 C 0.05491 0.2426 0.77142 0.0
C3257 C 0.05595 0.26877 0.77736 0.0
C3258 C 0.02914 0.27199 0.77768 0.0
C3259 C 0.08277 0.23813 0.77167 0.0
C3260 C 0.09442 0.23526 0.78369 0.0
C3261 C 0.09627 0.23431 0.76021 0.0
C3262 C 0.08563 0.23808 0.74723 0.0
C3263 C 0.08546 0.26574 0.74402 0.0
C3264 C 0.07498 0.269 0.73185 0.0
C3265 C 0.06471 0.24482 0.72278 0.0
C3266 C 0.06505 0.21737 0.72584 0.0
C3267 C 0.07555 0.21399 0.738 0.0
H3268 H 0.05654 0.24737 0.71336 0.0
H3269 H 0.1527 0.2095 0.83175 0.0
H3270 H 0.47198 0.18839 0.61069 0.0
H3271 H 0.52411 0.19421 0.6112 0.0
H3272 H 0.4861 0.09975 0.59711 0.0
H3273 H 0.43324 0.09356 0.5966 0.0
H3274 H 0.5334 0.11644 0.61624 0.0
H3275 H 0.51985 0.15837 0.57613 0.0
H3276 H 0.50531 0.19122 0.56315 0.0
H3277 H 0.57676 0.27376 0.58218 0.0
H3278 H 0.59147 0.24134 0.5954 0.0
H3279 H 0.67939 0.13494 0.59539 0.0
H3280 H 0.6254 0.12427 0.59697 0.0
H3281 H 0.65932 0.22184 0.60524 0.0
H3282 H 0.71358 0.23274 0.60348 0.0
H3283 H 0.61303 0.20216 0.58888 0.0
H3284 H 0.62695 0.1627 0.62907 0.0
H3285 H 0.6407 0.13148 0.6435 0.0
H3286 H 0.56906 0.04665 0.62592 0.0
H3287 H 0.55516 0.0774 0.61125 0.0
C3288 C 0.47444 0.1686 0.60782 0.0
C3289 C 0.4483 0.14056 0.60346 0.0
C3290 C 0.50442 0.17205 0.6081 0.0
C3291 C 0.50921 0.14768 0.60394 0.0
C3292 C 0.483 0.11896 0.60029 0.0
C3293 C 0.45277 0.11543 0.60003 0.0
C3294 C 0.54184 0.15314 0.60278 0.0
C3295 C 0.55071 0.13483 0.6101 0.0
C3296 C 0.56472 0.17776 0.59506 0.0
C3297 C 0.55661 0.19739 0.58682 0.0
C3298 C 0.53239 0.18351 0.57758 0.0
C3299 C 0.52412 0.20206 0.57018 0.0
C3300 C 0.54006 0.23455 0.57186 0.0
C3301 C 0.56443 0.24858 0.58089 0.0
C3302 C 0.57278 0.23014 0.58833 0.0
C3303 C 0.67543 0.15411 0.59771 0.0
C3304 C 0.70096 0.18469 0.59942 0.0
C3305 C 0.64443 0.14795 0.59861 0.0
C3306 C 0.63803 0.1721 0.60144 0.0
C3307 C 0.66348 0.20272 0.60307 0.0
C3308 C 0.69456 0.20896 0.60205 0.0
C3309 C 0.60488 0.16552 0.60239 0.0
C3310 C 0.59583 0.18366 0.595 0.0
C3311 C 0.58197 0.14096 0.61017 0.0
C3312 C 0.59024 0.12238 0.61897 0.0
C3313 C 0.6143 0.1374 0.62821 0.0
C3314 C 0.62209 0.11979 0.63644 0.0
C3315 C 0.60582 0.08711 0.6356 0.0
C3316 C 0.58167 0.07197 0.62654 0.0
C3317 C 0.57381 0.08948 0.61827 0.0
H3318 H 0.61188 0.07351 0.64199 0.0
H3319 H 0.53355 0.24886 0.56615 0.0
H3320 H 0.96458 0.35337 0.59179 0.0
H3321 H 0.95851 0.39989 0.59134 0.0
H3322 H 0.86505 0.34531 0.60695 0.0
H3323 H 0.87072 0.29902 0.60722 0.0
H3324 H 0.86318 0.37761 0.58744 0.0
H3325 H 0.92938 0.40215 0.62496 0.0
H3326 H 0.97631 0.41131 0.63723 0.0
H3327 H 0.03509 0.4869 0.61168 0.0
H3328 H 0.98852 0.4779 0.59915 0.0
H3329 H 0.83141 0.4998 0.6027 0.0
H3330 H 0.8419 0.45628 0.60409 0.0
H3331 H 0.93277 0.51388 0.58668 0.0
H3332 H 0.92282 0.55771 0.58558 0.0
H3333 H 0.93744 0.48117 0.60647 0.0
H3334 H 0.87091 0.45699 0.56923 0.0
H3335 H 0.82385 0.44783 0.55706 0.0
H3336 H 0.7655 0.37125 0.58227 0.0
H3337 H 0.81219 0.38023 0.59471 0.0
C3338 C 0.94294 0.35142 0.59532 0.0
C3339 C 0.91816 0.3223 0.59951 0.0
C3340 C 0.93946 0.37809 0.59505 0.0
C3341 C 0.91125 0.37633 0.59912 0.0
C3342 C 0.88695 0.34745 0.60366 0.0
C3343 C 0.89033 0.3209 0.60385 0.0
C3344 C 0.90621 0.4039 0.59821 0.0
C3345 C 0.87928 0.40011 0.59177 0.0
C3346 C 0.92749 0.43368 0.60352 0.0
C3347 C 0.9555 0.43912 0.61103 0.0
C3348 C 0.95234 0.42055 0.62189 0.0
C3349 C 0.97887 0.42575 0.62891 0.0
C3350 C 1.00867 0.44961 0.62522 0.0
C3351 C 1.012 0.46838 0.61452 0.0
C3352 C 0.98554 0.46326 0.60746 0.0
C3353 C 0.85371 0.50332 0.59923 0.0
C3354 C 0.87612 0.53237 0.59393 0.0
C3355 C 0.85961 0.47827 0.59994 0.0
C3356 C 0.88805 0.48152 0.59536 0.0
C3357 C 0.91061 0.5106 0.59024 0.0
C3358 C 0.90471 0.53562 0.58949 0.0
C3359 C 0.89423 0.45467 0.59586 0.0
C3360 C 0.92138 0.45864 0.60216 0.0
C3361 C 0.87313 0.42498 0.59045 0.0
C3362 C 0.84502 0.41949 0.58298 0.0
C3363 C 0.84802 0.43835 0.57224 0.0
C3364 C 0.82141 0.43316 0.56528 0.0
C3365 C 0.79169 0.40902 0.56891 0.0
C3366 C 0.78853 0.38997 0.57949 0.0
C3367 C 0.81505 0.39508 0.58648 0.0
H3368 H 0.77113 0.40504 0.56351 0.0
H3369 H 0.02918 0.4536 0.63066 0.0
H3370 H 0.56925 0.34796 0.59271 0.0
H3371 H 0.61097 0.40275 0.59348 0.0
H3372 H 0.5445 0.42962 0.60651 0.0
H3373 H 0.50233 0.37502 0.60522 0.0
H3374 H 0.58144 0.46919 0.58842 0.0
H3375 H 0.59846 0.42738 0.62747 0.0
H3376 H 0.60621 0.3902 0.64077 0.0
H3377 H 0.68996 0.41294 0.61954 0.0
H3378 H 0.68249 0.44996 0.60599 0.0
H3379 H 0.70695 0.62641 0.60272 0.0
H3380 H 0.66013 0.57392 0.60403 0.0
H3381 H 0.71563 0.53275 0.59221 0.0
H3382 H 0.76207 0.58439 0.59121 0.0
H3383 H 0.68129 0.50169 0.61178 0.0
H3384 H 0.6621 0.54009 0.57164 0.0
H3385 H 0.6543 0.57681 0.55805 0.0
H3386 H 0.57498 0.56045 0.58114 0.0
H3387 H 0.58257 0.52391 0.59498 0.0
C3388 C 0.5634 0.36548 0.5957 0.0
C3389 C 0.53232 0.35688 0.59895 0.0
C3390 C 0.5874 0.39685 0.59626 0.0
C3391 C 0.58104 0.42041 0.60021 0.0
C3392 C 0.55008 0.41193 0.60348 0.0
C3393 C 0.52603 0.38056 0.60288 0.0
C3394 C 0.60662 0.45387 0.60071 0.0
C3395 C 0.60309 0.47639 0.5937 0.0
C3396 C 0.63509 0.46334 0.60745 0.0
C3397 C 0.63978 0.44128 0.61565 0.0
C3398 C 0.61842 0.42431 0.62558 0.0
C3399 C 0.62278 0.40328 0.63317 0.0
C3400 C 0.64853 0.39917 0.63098 0.0
C3401 C 0.67002 0.41614 0.62122 0.0
C3402 C 0.66576 0.43718 0.61359 0.0
C3403 C 0.70904 0.60613 0.60032 0.0
C3404 C 0.73834 0.60968 0.59692 0.0
C3405 C 0.68225 0.57612 0.60105 0.0
C3406 C 0.68424 0.54921 0.5982 0.0
C3407 C 0.7134 0.55296 0.59457 0.0
C3408 C 0.74003 0.58268 0.59398 0.0
C3409 C 0.65651 0.51692 0.59921 0.0
C3410 C 0.65957 0.49459 0.60657 0.0
C3411 C 0.62772 0.50767 0.59276 0.0
C3412 C 0.62312 0.52956 0.58443 0.0
C3413 C 0.64315 0.54452 0.57388 0.0
C3414 C 0.63874 0.56526 0.56612 0.0
C3415 C 0.61422 0.57104 0.56875 0.0
C3416 C 0.594 0.556 0.57913 0.0
C3417 C 0.59833 0.53527 0.58693 0.0
H3418 H 0.61085 0.5871 0.56273 0.0
H3419 H 0.65185 0.38287 0.63686 0.0
loop_
_geom_bond_atom_site_label_1
_geom_bond_atom_site_label_2
_geom_bond_distance
_geom_bond_site_symmetry_2
_ccdc_geom_bond_type
Tb0 C2 2.809 . S
Tb0 O20 2.484 . S
Tb0 O21 2.440 . S
Tb0 O22 2.658 1_545 S
Tb0 O23 2.409 . S
Tb0 O24 2.378 . S
Tb0 O28 2.325 . S
Tb0 O31 2.341 1_545 S
Tb1 C11 2.809 . S
Tb1 O22 2.325 . S
Tb1 O25 2.341 1_565 S
Tb1 O26 2.484 . S
Tb1 O27 2.440 . S
Tb1 O28 2.658 1_565 S
Tb1 O29 2.409 . S
Tb1 O30 2.378 . S
C2 Tb0 2.809 . S
C2 C3 1.514 . S
C2 O20 1.248 . S
C2 O21 1.266 . S
C3 C2 1.514 . S
C3 C4 1.359 . S
C3 C8 1.348 . S
C4 C3 1.359 . S
C4 C5 1.380 . S
C4 H32 0.929 . S
C5 C4 1.380 . S
C5 C6 1.347 . S
C5 H33 0.931 . S
C6 C5 1.347 . S
C6 C7 1.369 . S
C7 C6 1.369 . S
C7 C8 1.408 . S
C7 H34 0.930 . S
C8 C3 1.348 . S
C8 C7 1.408 . S
C8 H35 0.930 . S
C9 O22 1.281 1_545 S
C9 O23 1.254 . S
C10 O24 1.236 . S
C10 O25 1.266 . S
C11 Tb1 2.809 . S
C11 C12 1.514 . S
C11 O26 1.248 . S
C11 O27 1.266 . S
C12 C11 1.514 . S
C12 C13 1.359 . S
C12 C17 1.348 . S
C13 C12 1.359 . S
C13 C14 1.380 . S
C13 H36 0.929 . S
C14 C13 1.380 . S
C14 C15 1.347 . S
C14 H37 0.931 . S
C15 C14 1.347 . S
C15 C16 1.369 . S
C16 C15 1.369 . S
C16 C17 1.408 . S
C16 H38 0.930 . S
C17 C12 1.348 . S
C17 C16 1.408 . S
C17 H39 0.930 . S
C18 O28 1.281 . S
C18 O29 1.254 1_545 S
C19 O30 1.236 . S
C19 O31 1.266 . S
O20 Tb0 2.484 . S
O20 C2 1.248 . S
O21 Tb0 2.440 . S
O21 C2 1.266 . S
O22 Tb0 2.658 1_565 S
O22 Tb1 2.325 . S
O22 C9 1.281 1_565 S
O23 Tb0 2.409 . S
O23 C9 1.254 . S
O24 Tb0 2.378 . S
O24 C10 1.236 . S
O25 Tb1 2.341 1_545 S
O25 C10 1.266 . S
O26 Tb1 2.484 . S
O26 C11 1.248 . S
O27 Tb1 2.440 . S
O27 C11 1.266 . S
O28 Tb0 2.325 . S
O28 Tb1 2.658 1_545 S
O28 C18 1.281 . S
O29 Tb1 2.409 . S
O29 C18 1.254 1_565 S
O30 Tb1 2.378 . S
O30 C19 1.236 . S
O31 Tb0 2.341 1_565 S
O31 C19 1.266 . S
H32 C4 0.929 . S
H33 C5 0.931 . S
H34 C7 0.930 . S
H35 C8 0.930 . S
H36 C13 0.929 . S
H37 C14 0.931 . S
H38 C16 0.930 . S
H39 C17 0.930 . S
Tb40 C42 2.780 1_455 S
Tb40 O60 2.459 1_455 S
Tb40 O61 2.414 1_455 S
Tb40 O62 2.684 . S
Tb40 O63 2.418 . S
Tb40 O64 2.375 1_455 S
Tb40 O68 2.337 . S
Tb40 O71 2.365 . S
Tb41 C51 2.809 . S
Tb41 O62 2.325 . S
Tb41 O65 2.341 1_455 S
Tb41 O66 2.484 . S
Tb41 O67 2.440 . S
Tb41 O68 2.658 . S
Tb41 O69 2.409 . S
Tb41 O70 2.378 . S
C42 Tb40 2.780 1_655 S
C42 C43 1.514 . S
C42 O60 1.248 . S
C42 O61 1.266 . S
C43 C42 1.514 . S
C43 C44 1.359 . S
C43 C48 1.348 . S
C44 C43 1.359 . S
C44 C45 1.380 . S
C44 H72 0.929 . S
C45 C44 1.380 . S
C45 C46 1.347 . S
C45 H73 0.931 . S
C46 C45 1.347 . S
C46 C47 1.369 . S
C47 C46 1.369 . S
C47 C48 1.408 . S
C47 H74 0.930 . S
C48 C43 1.348 . S
C48 C47 1.408 . S
C48 H75 0.930 . S
C49 O62 1.281 . S
C49 O63 1.254 . S
C50 O64 1.236 . S
C50 O65 1.266 . S
C51 Tb41 2.809 . S
C51 C52 1.514 . S
C51 O66 1.248 . S
C51 O67 1.266 . S
C52 C51 1.514 . S
C52 C53 1.359 . S
C52 C57 1.348 . S
C53 C52 1.359 . S
C53 C54 1.380 . S
C53 H76 0.929 . S
C54 C53 1.380 . S
C54 C55 1.347 . S
C54 H77 0.931 . S
C55 C54 1.347 . S
C55 C56 1.369 . S
C56 C55 1.369 . S
C56 C57 1.408 . S
C56 H78 0.930 . S
C57 C52 1.348 . S
C57 C56 1.408 . S
C57 H79 0.930 . S
C58 O68 1.281 . S
C58 O69 1.254 . S
C59 O70 1.236 . S
C59 O71 1.266 . S
O60 Tb40 2.459 1_655 S
O60 C42 1.248 . S
O61 Tb40 2.414 1_655 S
O61 C42 1.266 . S
O62 Tb40 2.684 . S
O62 Tb41 2.325 . S
O62 C49 1.281 . S
O63 Tb40 2.418 . S
O63 C49 1.254 . S
O64 Tb40 2.375 1_655 S
O64 C50 1.236 . S
O65 Tb41 2.341 1_655 S
O65 C50 1.266 . S
O66 Tb41 2.484 . S
O66 C51 1.248 . S
O67 Tb41 2.440 . S
O67 C51 1.266 . S
O68 Tb40 2.337 . S
O68 Tb41 2.658 . S
O68 C58 1.281 . S
O69 Tb41 2.409 . S
O69 C58 1.254 . S
O70 Tb41 2.378 . S
O70 C59 1.236 . S
O71 Tb40 2.365 . S
O71 C59 1.266 . S
H72 C44 0.929 . S
H73 C45 0.931 . S
H74 C47 0.930 . S
H75 C48 0.930 . S
H76 C53 0.929 . S
H77 C54 0.931 . S
H78 C56 0.930 . S
H79 C57 0.930 . S
Tb80 C82 2.809 . S
Tb80 O100 2.484 . S
Tb80 O101 2.440 . S
Tb80 O102 2.658 . S
Tb80 O103 2.409 . S
Tb80 O104 2.378 . S
Tb80 O108 2.325 . S
Tb80 O111 2.341 . S
Tb81 C91 2.809 . S
Tb81 O102 2.325 . S
Tb81 O105 2.341 . S
Tb81 O106 2.484 . S
Tb81 O107 2.440 . S
Tb81 O108 2.658 . S
Tb81 O109 2.409 . S
Tb81 O110 2.378 . S
C82 Tb80 2.809 . S
C82 C83 1.514 . S
C82 O100 1.248 . S
C82 O101 1.266 . S
C83 C82 1.514 . S
C83 C84 1.359 . S
C83 C88 1.348 . S
C84 C83 1.359 . S
C84 C85 1.380 . S
C84 H112 0.929 . S
C85 C84 1.380 . S
C85 C86 1.347 . S
C85 H113 0.931 . S
C86 C85 1.347 . S
C86 C87 1.369 . S
C87 C86 1.369 . S
C87 C88 1.408 . S
C87 H114 0.930 . S
C88 C83 1.348 . S
C88 C87 1.408 . S
C88 H115 0.930 . S
C89 O102 1.281 . S
C89 O103 1.254 . S
C90 O104 1.236 . S
C90 O105 1.266 . S
C91 Tb81 2.809 . S
C91 C92 1.514 . S
C91 O106 1.248 . S
C91 O107 1.266 . S
C92 C91 1.514 . S
C92 C93 1.359 . S
C92 C97 1.348 . S
C93 C92 1.359 . S
C93 C94 1.380 . S
C93 H116 0.929 . S
C94 C93 1.380 . S
C94 C95 1.347 . S
C94 H117 0.931 . S
C95 C94 1.347 . S
C95 C96 1.369 . S
C96 C95 1.369 . S
C96 C97 1.408 . S
C96 H118 0.930 . S
C97 C92 1.348 . S
C97 C96 1.408 . S
C97 H119 0.930 . S
C98 O108 1.281 . S
C98 O109 1.254 . S
C99 O110 1.236 . S
C99 O111 1.266 . S
O100 Tb80 2.484 . S
O100 C82 1.248 . S
O101 Tb80 2.440 . S
O101 C82 1.266 . S
O102 Tb80 2.658 . S
O102 Tb81 2.325 . S
O102 C89 1.281 . S
O103 Tb80 2.409 . S
O103 C89 1.254 . S
O104 Tb80 2.378 . S
O104 C90 1.236 . S
O105 Tb81 2.341 . S
O105 C90 1.266 . S
O106 Tb81 2.484 . S
O106 C91 1.248 . S
O107 Tb81 2.440 . S
O107 C91 1.266 . S
O108 Tb80 2.325 . S
O108 Tb81 2.658 . S
O108 C98 1.281 . S
O109 Tb81 2.409 . S
O109 C98 1.254 . S
O110 Tb81 2.378 . S
O110 C99 1.236 . S
O111 Tb80 2.341 . S
O111 C99 1.266 . S
H112 C84 0.929 . S
H113 C85 0.931 . S
H114 C87 0.930 . S
H115 C88 0.930 . S
H116 C93 0.929 . S
H117 C94 0.931 . S
H118 C96 0.930 . S
H119 C97 0.930 . S
Tb120 C122 2.809 . S
Tb120 O140 2.484 . S
Tb120 O141 2.440 . S
Tb120 O142 2.658 1_455 S
Tb120 O143 2.409 . S
Tb120 O144 2.378 . S
Tb120 O148 2.325 . S
Tb120 O151 2.341 1_455 S
Tb121 C131 2.809 . S
Tb121 O142 2.325 . S
Tb121 O145 2.341 1_655 S
Tb121 O146 2.484 . S
Tb121 O147 2.440 . S
Tb121 O148 2.658 1_655 S
Tb121 O149 2.409 . S
Tb121 O150 2.378 . S
C122 Tb120 2.809 . S
C122 C123 1.514 . S
C122 O140 1.248 . S
C122 O141 1.266 . S
C123 C122 1.514 . S
C123 C124 1.359 . S
C123 C128 1.348 . S
C124 C123 1.359 . S
C124 C125 1.380 . S
C124 H152 0.929 . S
C125 C124 1.380 . S
C125 C126 1.347 . S
C125 H153 0.931 . S
C126 C125 1.347 . S
C126 C127 1.369 . S
C127 C126 1.369 . S
C127 C128 1.408 . S
C127 H154 0.930 . S
C128 C123 1.348 . S
C128 C127 1.408 . S
C128 H155 0.930 . S
C129 O142 1.281 1_455 S
C129 O143 1.254 . S
C130 O144 1.236 . S
C130 O145 1.266 . S
C131 Tb121 2.809 . S
C131 C132 1.514 . S
C131 O146 1.248 . S
C131 O147 1.266 . S
C132 C131 1.514 . S
C132 C133 1.359 . S
C132 C137 1.348 . S
C133 C132 1.359 . S
C133 C134 1.380 . S
C133 H156 0.929 . S
C134 C133 1.380 . S
C134 C135 1.347 . S
C134 H157 0.931 . S
C135 C134 1.347 . S
C135 C136 1.369 . S
C136 C135 1.369 . S
C136 C137 1.408 . S
C136 H158 0.930 . S
C137 C132 1.348 . S
C137 C136 1.408 . S
C137 H159 0.930 . S
C138 O148 1.281 . S
C138 O149 1.254 1_455 S
C139 O150 1.236 . S
C139 O151 1.266 . S
O140 Tb120 2.484 . S
O140 C122 1.248 . S
O141 Tb120 2.440 . S
O141 C122 1.266 . S
O142 Tb120 2.658 1_655 S
O142 Tb121 2.325 . S
O142 C129 1.281 1_655 S
O143 Tb120 2.409 . S
O143 C129 1.254 . S
O144 Tb120 2.378 . S
O144 C130 1.236 . S
O145 Tb121 2.341 1_455 S
O145 C130 1.266 . S
O146 Tb121 2.484 . S
O146 C131 1.248 . S
O147 Tb121 2.440 . S
O147 C131 1.266 . S
O148 Tb120 2.325 . S
O148 Tb121 2.658 1_455 S
O148 C138 1.281 . S
O149 Tb121 2.409 . S
O149 C138 1.254 1_655 S
O150 Tb121 2.378 . S
O150 C139 1.236 . S
O151 Tb120 2.341 1_655 S
O151 C139 1.266 . S
H152 C124 0.929 . S
H153 C125 0.931 . S
H154 C127 0.930 . S
H155 C128 0.930 . S
H156 C133 0.929 . S
H157 C134 0.931 . S
H158 C136 0.930 . S
H159 C137 0.930 . S
Tb160 C162 2.809 . S
Tb160 O180 2.484 . S
Tb160 O181 2.440 . S
Tb160 O182 2.658 . S
Tb160 O183 2.409 . S
Tb160 O184 2.378 . S
Tb160 O188 2.325 . S
Tb160 O191 2.341 . S
Tb161 C171 2.809 . S
Tb161 O182 2.325 . S
Tb161 O185 2.341 . S
Tb161 O186 2.484 . S
Tb161 O187 2.440 . S
Tb161 O188 2.658 . S
Tb161 O189 2.409 . S
Tb161 O190 2.378 . S
C162 Tb160 2.809 . S
C162 C163 1.514 . S
C162 O180 1.248 . S
C162 O181 1.266 . S
C163 C162 1.514 . S
C163 C164 1.359 . S
C163 C168 1.348 . S
C164 C163 1.359 . S
C164 C165 1.380 . S
C164 H192 0.929 . S
C165 C164 1.380 . S
C165 C166 1.347 . S
C165 H193 0.931 . S
C166 C165 1.347 . S
C166 C167 1.369 . S
C167 C166 1.369 . S
C167 C168 1.408 . S
C167 H194 0.930 . S
C168 C163 1.348 . S
C168 C167 1.408 . S
C168 H195 0.930 . S
C169 O182 1.281 . S
C169 O183 1.254 . S
C170 O184 1.236 . S
C170 O185 1.266 . S
C171 Tb161 2.809 . S
C171 C172 1.514 . S
C171 O186 1.248 . S
C171 O187 1.266 . S
C172 C171 1.514 . S
C172 C173 1.359 . S
C172 C177 1.348 . S
C173 C172 1.359 . S
C173 C174 1.380 . S
C173 H196 0.929 . S
C174 C173 1.380 . S
C174 C175 1.347 . S
C174 H197 0.931 . S
C175 C174 1.347 . S
C175 C176 1.369 . S
C176 C175 1.369 . S
C176 C177 1.408 . S
C176 H198 0.930 . S
C177 C172 1.348 . S
C177 C176 1.408 . S
C177 H199 0.930 . S
C178 O188 1.281 . S
C178 O189 1.254 . S
C179 O190 1.236 . S
C179 O191 1.266 . S
O180 Tb160 2.484 . S
O180 C162 1.248 . S
O181 Tb160 2.440 . S
O181 C162 1.266 . S
O182 Tb160 2.658 . S
O182 Tb161 2.325 . S
O182 C169 1.281 . S
O183 Tb160 2.409 . S
O183 C169 1.254 . S
O184 Tb160 2.378 . S
O184 C170 1.236 . S
O185 Tb161 2.341 . S
O185 C170 1.266 . S
O186 Tb161 2.484 . S
O186 C171 1.248 . S
O187 Tb161 2.440 . S
O187 C171 1.266 . S
O188 Tb160 2.325 . S
O188 Tb161 2.658 . S
O188 C178 1.281 . S
O189 Tb161 2.409 . S
O189 C178 1.254 . S
O190 Tb161 2.378 . S
O190 C179 1.236 . S
O191 Tb160 2.341 . S
O191 C179 1.266 . S
H192 C164 0.929 . S
H193 C165 0.931 . S
H194 C167 0.930 . S
H195 C168 0.930 . S
H196 C173 0.929 . S
H197 C174 0.931 . S
H198 C176 0.930 . S
H199 C177 0.930 . S
Tb200 C202 2.780 1_545 S
Tb200 O220 2.459 1_545 S
Tb200 O221 2.414 1_545 S
Tb200 O222 2.684 . S
Tb200 O223 2.418 . S
Tb200 O224 2.375 1_545 S
Tb200 O228 2.337 . S
Tb200 O231 2.365 . S
Tb201 C211 2.809 . S
Tb201 O222 2.325 . S
Tb201 O225 2.341 1_545 S
Tb201 O226 2.484 . S
Tb201 O227 2.440 . S
Tb201 O228 2.658 . S
Tb201 O229 2.409 . S
Tb201 O230 2.378 . S
C202 Tb200 2.780 1_565 S
C202 C203 1.514 . S
C202 O220 1.248 . S
C202 O221 1.266 . S
C203 C202 1.514 . S
C203 C204 1.359 . S
C203 C208 1.348 . S
C204 C203 1.359 . S
C204 C205 1.380 . S
C204 H232 0.929 . S
C205 C204 1.380 . S
C205 C206 1.347 . S
C205 H233 0.931 . S
C206 C205 1.347 . S
C206 C207 1.369 . S
C207 C206 1.369 . S
C207 C208 1.408 . S
C207 H234 0.930 . S
C208 C203 1.348 . S
C208 C207 1.408 . S
C208 H235 0.930 . S
C209 O222 1.281 . S
C209 O223 1.254 . S
C210 O224 1.236 . S
C210 O225 1.266 . S
C211 Tb201 2.809 . S
C211 C212 1.514 . S
C211 O226 1.248 . S
C211 O227 1.266 . S
C212 C211 1.514 . S
C212 C213 1.359 . S
C212 C217 1.348 . S
C213 C212 1.359 . S
C213 C214 1.380 . S
C213 H236 0.929 . S
C214 C213 1.380 . S
C214 C215 1.347 . S
C214 H237 0.931 . S
C215 C214 1.347 . S
C215 C216 1.369 . S
C216 C215 1.369 . S
C216 C217 1.408 . S
C216 H238 0.930 . S
C217 C212 1.348 . S
C217 C216 1.408 . S
C217 H239 0.930 . S
C218 O228 1.281 . S
C218 O229 1.254 . S
C219 O230 1.236 . S
C219 O231 1.266 . S
O220 Tb200 2.459 1_565 S
O220 C202 1.248 . S
O221 Tb200 2.414 1_565 S
O221 C202 1.266 . S
O222 Tb200 2.684 . S
O222 Tb201 2.325 . S
O222 C209 1.281 . S
O223 Tb200 2.418 . S
O223 C209 1.254 . S
O224 Tb200 2.375 1_565 S
O224 C210 1.236 . S
O225 Tb201 2.341 1_565 S
O225 C210 1.266 . S
O226 Tb201 2.484 . S
O226 C211 1.248 . S
O227 Tb201 2.440 . S
O227 C211 1.266 . S
O228 Tb200 2.337 . S
O228 Tb201 2.658 . S
O228 C218 1.281 . S
O229 Tb201 2.409 . S
O229 C218 1.254 . S
O230 Tb201 2.378 . S
O230 C219 1.236 . S
O231 Tb200 2.365 . S
O231 C219 1.266 . S
H232 C204 0.929 . S
H233 C205 0.931 . S
H234 C207 0.930 . S
H235 C208 0.930 . S
H236 C213 0.929 . S
H237 C214 0.931 . S
H238 C216 0.930 . S
H239 C217 0.930 . S
Tb240 C242 2.809 . S
Tb240 O260 2.484 . S
Tb240 O261 2.440 . S
Tb240 O262 2.658 . S
Tb240 O263 2.409 . S
Tb240 O264 2.378 . S
Tb240 O268 2.325 . S
Tb240 O271 2.341 . S
Tb241 C251 2.809 . S
Tb241 O262 2.325 . S
Tb241 O265 2.341 . S
Tb241 O266 2.484 . S
Tb241 O267 2.440 . S
Tb241 O268 2.658 . S
Tb241 O269 2.409 . S
Tb241 O270 2.378 . S
C242 Tb240 2.809 . S
C242 C243 1.514 . S
C242 O260 1.248 . S
C242 O261 1.266 . S
C243 C242 1.514 . S
C243 C244 1.359 . S
C243 C248 1.348 . S
C244 C243 1.359 . S
C244 C245 1.380 . S
C244 H272 0.929 . S
C245 C244 1.380 . S
C245 C246 1.347 . S
C245 H273 0.931 . S
C246 C245 1.347 . S
C246 C247 1.369 . S
C247 C246 1.369 . S
C247 C248 1.408 . S
C247 H274 0.930 . S
C248 C243 1.348 . S
C248 C247 1.408 . S
C248 H275 0.930 . S
C249 O262 1.281 . S
C249 O263 1.254 . S
C250 O264 1.236 . S
C250 O265 1.266 . S
C251 Tb241 2.809 . S
C251 C252 1.514 . S
C251 O266 1.248 . S
C251 O267 1.266 . S
C252 C251 1.514 . S
C252 C253 1.359 . S
C252 C257 1.348 . S
C253 C252 1.359 . S
C253 C254 1.392 . S
C253 H276 0.929 . S
C254 C253 1.392 . S
C254 C255 1.337 1_455 S
C254 H277 0.930 1_455 S
C255 C254 1.337 1_655 S
C255 C256 1.369 . S
C256 C255 1.369 . S
C256 C257 1.408 1_655 S
C256 H278 0.930 . S
C257 C252 1.348 . S
C257 C256 1.408 1_455 S
C257 H279 0.930 . S
C258 O268 1.281 . S
C258 O269 1.254 . S
C259 O270 1.236 . S
C259 O271 1.266 . S
O260 Tb240 2.484 . S
O260 C242 1.248 . S
O261 Tb240 2.440 . S
O261 C242 1.266 . S
O262 Tb240 2.658 . S
O262 Tb241 2.325 . S
O262 C249 1.281 . S
O263 Tb240 2.409 . S
O263 C249 1.254 . S
O264 Tb240 2.378 . S
O264 C250 1.236 . S
O265 Tb241 2.341 . S
O265 C250 1.266 . S
O266 Tb241 2.484 . S
O266 C251 1.248 . S
O267 Tb241 2.440 . S
O267 C251 1.266 . S
O268 Tb240 2.325 . S
O268 Tb241 2.658 . S
O268 C258 1.281 . S
O269 Tb241 2.409 . S
O269 C258 1.254 . S
O270 Tb241 2.378 . S
O270 C259 1.236 . S
O271 Tb240 2.341 . S
O271 C259 1.266 . S
H272 C244 0.929 . S
H273 C245 0.931 . S
H274 C247 0.930 . S
H275 C248 0.930 . S
H276 C253 0.929 . S
H277 C254 0.930 1_655 S
H278 C256 0.930 . S
H279 C257 0.930 . S
Tb280 C282 2.809 . S
Tb280 O300 2.484 . S
Tb280 O301 2.440 . S
Tb280 O302 2.658 . S
Tb280 O303 2.409 . S
Tb280 O304 2.378 . S
Tb280 O308 2.325 . S
Tb280 O311 2.341 . S
Tb281 C291 2.809 . S
Tb281 O302 2.325 . S
Tb281 O305 2.341 . S
Tb281 O306 2.484 . S
Tb281 O307 2.440 . S
Tb281 O308 2.658 . S
Tb281 O309 2.409 . S
Tb281 O310 2.378 . S
C282 Tb280 2.809 . S
C282 C283 1.514 . S
C282 O300 1.248 . S
C282 O301 1.266 . S
C283 C282 1.514 . S
C283 C284 1.359 . S
C283 C288 1.348 . S
C284 C283 1.359 . S
C284 C285 1.380 . S
C284 H312 0.929 . S
C285 C284 1.380 . S
C285 C286 1.347 . S
C285 H313 0.931 . S
C286 C285 1.347 . S
C286 C287 1.369 . S
C287 C286 1.369 . S
C287 C288 1.408 . S
C287 H314 0.930 . S
C288 C283 1.348 . S
C288 C287 1.408 . S
C288 H315 0.930 . S
C289 O302 1.281 . S
C289 O303 1.254 . S
C290 O304 1.236 . S
C290 O305 1.266 . S
C291 Tb281 2.809 . S
C291 C292 1.514 . S
C291 O306 1.248 . S
C291 O307 1.266 . S
C292 C291 1.514 . S
C292 C293 1.359 . S
C292 C297 1.348 . S
C293 C292 1.359 . S
C293 C294 1.380 . S
C293 H316 0.929 . S
C294 C293 1.380 . S
C294 C295 1.347 . S
C294 H317 0.931 . S
C295 C294 1.347 . S
C295 C296 1.369 . S
C296 C295 1.369 . S
C296 C297 1.408 . S
C296 H318 0.930 . S
C297 C292 1.348 . S
C297 C296 1.408 . S
C297 H319 0.930 . S
C298 O308 1.281 . S
C298 O309 1.254 . S
C299 O310 1.236 . S
C299 O311 1.266 . S
O300 Tb280 2.484 . S
O300 C282 1.248 . S
O301 Tb280 2.440 . S
O301 C282 1.266 . S
O302 Tb280 2.658 . S
O302 Tb281 2.325 . S
O302 C289 1.281 . S
O303 Tb280 2.409 . S
O303 C289 1.254 . S
O304 Tb280 2.378 . S
O304 C290 1.236 . S
O305 Tb281 2.341 . S
O305 C290 1.266 . S
O306 Tb281 2.484 . S
O306 C291 1.248 . S
O307 Tb281 2.440 . S
O307 C291 1.266 . S
O308 Tb280 2.325 . S
O308 Tb281 2.658 . S
O308 C298 1.281 . S
O309 Tb281 2.409 . S
O309 C298 1.254 . S
O310 Tb281 2.378 . S
O310 C299 1.236 . S
O311 Tb280 2.341 . S
O311 C299 1.266 . S
H312 C284 0.929 . S
H313 C285 0.931 . S
H314 C287 0.930 . S
H315 C288 0.930 . S
H316 C293 0.929 . S
H317 C294 0.931 . S
H318 C296 0.930 . S
H319 C297 0.930 . S
Tb320 C322 2.809 . S
Tb320 O340 2.484 . S
Tb320 O341 2.440 . S
Tb320 O342 2.658 . S
Tb320 O343 2.409 . S
Tb320 O344 2.378 . S
Tb320 O348 2.325 . S
Tb320 O351 2.341 . S
Tb321 C331 2.809 . S
Tb321 O342 2.325 . S
Tb321 O345 2.341 . S
Tb321 O346 2.484 . S
Tb321 O347 2.440 . S
Tb321 O348 2.658 . S
Tb321 O349 2.409 . S
Tb321 O350 2.378 . S
C322 Tb320 2.809 . S
C322 C323 1.514 . S
C322 O340 1.248 . S
C322 O341 1.266 . S
C323 C322 1.514 . S
C323 C324 1.359 . S
C323 C328 1.348 . S
C324 C323 1.359 . S
C324 C325 1.380 . S
C324 H352 0.929 . S
C325 C324 1.380 . S
C325 C326 1.347 . S
C325 H353 0.931 . S
C326 C325 1.347 . S
C326 C327 1.369 . S
C327 C326 1.369 . S
C327 C328 1.408 . S
C327 H354 0.930 . S
C328 C323 1.348 . S
C328 C327 1.408 . S
C328 H355 0.930 . S
C329 O342 1.281 . S
C329 O343 1.254 . S
C330 O344 1.236 . S
C330 O345 1.266 . S
C331 Tb321 2.809 . S
C331 C332 1.514 . S
C331 O346 1.248 . S
C331 O347 1.266 . S
C332 C331 1.514 . S
C332 C333 1.359 1_565 S
C332 C337 1.348 1_565 S
C333 C332 1.359 1_545 S
C333 C334 1.380 . S
C333 H356 0.929 1_545 S
C334 C333 1.380 . S
C334 C335 1.347 . S
C334 H357 0.931 . S
C335 C334 1.347 . S
C335 C336 1.369 . S
C336 C335 1.369 . S
C336 C337 1.408 . S
C336 H358 0.930 . S
C337 C332 1.348 1_545 S
C337 C336 1.408 . S
C337 H359 0.930 1_545 S
C338 O348 1.281 . S
C338 O349 1.254 . S
C339 O350 1.236 . S
C339 O351 1.266 . S
O340 Tb320 2.484 . S
O340 C322 1.248 . S
O341 Tb320 2.440 . S
O341 C322 1.266 . S
O342 Tb320 2.658 . S
O342 Tb321 2.325 . S
O342 C329 1.281 . S
O343 Tb320 2.409 . S
O343 C329 1.254 . S
O344 Tb320 2.378 . S
O344 C330 1.236 . S
O345 Tb321 2.341 . S
O345 C330 1.266 . S
O346 Tb321 2.484 . S
O346 C331 1.248 . S
O347 Tb321 2.440 . S
O347 C331 1.266 . S
O348 Tb320 2.325 . S
O348 Tb321 2.658 . S
O348 C338 1.281 . S
O349 Tb321 2.409 . S
O349 C338 1.254 . S
O350 Tb321 2.378 . S
O350 C339 1.236 . S
O351 Tb320 2.341 . S
O351 C339 1.266 . S
H352 C324 0.929 . S
H353 C325 0.931 . S
H354 C327 0.930 . S
H355 C328 0.930 . S
H356 C333 0.929 1_565 S
H357 C334 0.931 . S
H358 C336 0.930 . S
H359 C337 0.930 1_565 S
Tb360 C362 2.809 . S
Tb360 O380 2.484 . S
Tb360 O381 2.440 . S
Tb360 O382 2.658 . S
Tb360 O383 2.409 . S
Tb360 O384 2.378 . S
Tb360 O388 2.325 . S
Tb360 O391 2.341 . S
Tb361 C371 2.809 . S
Tb361 O382 2.325 . S
Tb361 O385 2.341 . S
Tb361 O386 2.484 . S
Tb361 O387 2.440 . S
Tb361 O388 2.658 . S
Tb361 O389 2.409 . S
Tb361 O390 2.378 . S
C362 Tb360 2.809 . S
C362 C363 1.514 . S
C362 O380 1.248 . S
C362 O381 1.266 . S
C363 C362 1.514 . S
C363 C364 1.359 . S
C363 C368 1.348 . S
C364 C363 1.359 . S
C364 C365 1.380 . S
C364 H392 0.929 . S
C365 C364 1.380 . S
C365 C366 1.347 . S
C365 H393 0.931 . S
C366 C365 1.347 . S
C366 C367 1.369 . S
C367 C366 1.369 . S
C367 C368 1.408 . S
C367 H394 0.930 . S
C368 C363 1.348 . S
C368 C367 1.408 . S
C368 H395 0.930 . S
C369 O382 1.281 . S
C369 O383 1.254 . S
C370 O384 1.236 . S
C370 O385 1.266 . S
C371 Tb361 2.809 . S
C371 C372 1.514 . S
C371 O386 1.248 . S
C371 O387 1.266 . S
C372 C371 1.514 . S
C372 C373 1.359 . S
C372 C377 1.348 . S
C373 C372 1.359 . S
C373 C374 1.380 . S
C373 H396 0.929 . S
C374 C373 1.380 . S
C374 C375 1.347 . S
C374 H397 0.931 . S
C375 C374 1.347 . S
C375 C376 1.369 . S
C376 C375 1.369 . S
C376 C377 1.408 . S
C376 H398 0.930 . S
C377 C372 1.348 . S
C377 C376 1.408 . S
C377 H399 0.930 . S
C378 O388 1.281 . S
C378 O389 1.254 . S
C379 O390 1.236 . S
C379 O391 1.266 . S
O380 Tb360 2.484 . S
O380 C362 1.248 . S
O381 Tb360 2.440 . S
O381 C362 1.266 . S
O382 Tb360 2.658 . S
O382 Tb361 2.325 . S
O382 C369 1.281 . S
O383 Tb360 2.409 . S
O383 C369 1.254 . S
O384 Tb360 2.378 . S
O384 C370 1.236 . S
O385 Tb361 2.341 . S
O385 C370 1.266 . S
O386 Tb361 2.484 . S
O386 C371 1.248 . S
O387 Tb361 2.440 . S
O387 C371 1.266 . S
O388 Tb360 2.325 . S
O388 Tb361 2.658 . S
O388 C378 1.281 . S
O389 Tb361 2.409 . S
O389 C378 1.254 . S
O390 Tb361 2.378 . S
O390 C379 1.236 . S
O391 Tb360 2.341 . S
O391 C379 1.266 . S
H392 C364 0.929 . S
H393 C365 0.931 . S
H394 C367 0.930 . S
H395 C368 0.930 . S
H396 C373 0.929 . S
H397 C374 0.931 . S
H398 C376 0.930 . S
H399 C377 0.930 . S
Tb400 C402 2.809 . S
Tb400 O420 2.484 . S
Tb400 O421 2.440 . S
Tb400 O422 2.658 . S
Tb400 O423 2.409 . S
Tb400 O424 2.378 . S
Tb400 O428 2.325 . S
Tb400 O431 2.341 . S
Tb401 C411 2.809 . S
Tb401 O422 2.325 . S
Tb401 O425 2.341 . S
Tb401 O426 2.484 . S
Tb401 O427 2.440 . S
Tb401 O428 2.658 . S
Tb401 O429 2.409 . S
Tb401 O430 2.378 . S
C402 Tb400 2.809 . S
C402 C403 1.514 . S
C402 O420 1.248 . S
C402 O421 1.266 . S
C403 C402 1.514 . S
C403 C404 1.359 . S
C403 C408 1.348 . S
C404 C403 1.359 . S
C404 C405 1.380 . S
C404 H432 0.929 . S
C405 C404 1.380 . S
C405 C406 1.347 . S
C405 H433 0.931 . S
C406 C405 1.347 . S
C406 C407 1.369 . S
C407 C406 1.369 . S
C407 C408 1.408 . S
C407 H434 0.930 . S
C408 C403 1.348 . S
C408 C407 1.408 . S
C408 H435 0.930 . S
C409 O422 1.281 . S
C409 O423 1.254 . S
C410 O424 1.236 . S
C410 O425 1.266 . S
C411 Tb401 2.809 . S
C411 C412 1.514 . S
C411 O426 1.248 . S
C411 O427 1.266 . S
C412 C411 1.514 . S
C412 C413 1.359 . S
C412 C417 1.348 . S
C413 C412 1.359 . S
C413 C414 1.380 . S
C413 H436 0.929 . S
C414 C413 1.380 . S
C414 C415 1.347 . S
C414 H437 0.931 . S
C415 C414 1.347 . S
C415 C416 1.369 . S
C416 C415 1.369 . S
C416 C417 1.408 . S
C416 H438 0.930 . S
C417 C412 1.348 . S
C417 C416 1.408 . S
C417 H439 0.930 . S
C418 O428 1.281 . S
C418 O429 1.254 . S
C419 O430 1.236 . S
C419 O431 1.266 . S
O420 Tb400 2.484 . S
O420 C402 1.248 . S
O421 Tb400 2.440 . S
O421 C402 1.266 . S
O422 Tb400 2.658 . S
O422 Tb401 2.325 . S
O422 C409 1.281 . S
O423 Tb400 2.409 . S
O423 C409 1.254 . S
O424 Tb400 2.378 . S
O424 C410 1.236 . S
O425 Tb401 2.341 . S
O425 C410 1.266 . S
O426 Tb401 2.484 . S
O426 C411 1.248 . S
O427 Tb401 2.440 . S
O427 C411 1.266 . S
O428 Tb400 2.325 . S
O428 Tb401 2.658 . S
O428 C418 1.281 . S
O429 Tb401 2.409 . S
O429 C418 1.254 . S
O430 Tb401 2.378 . S
O430 C419 1.236 . S
O431 Tb400 2.341 . S
O431 C419 1.266 . S
H432 C404 0.929 . S
H433 C405 0.931 . S
H434 C407 0.930 . S
H435 C408 0.930 . S
H436 C413 0.929 . S
H437 C414 0.931 . S
H438 C416 0.930 . S
H439 C417 0.930 . S
Tb440 C442 2.809 . S
Tb440 O460 2.484 . S
Tb440 O461 2.440 . S
Tb440 O462 2.658 . S
Tb440 O463 2.409 . S
Tb440 O464 2.378 . S
Tb440 O468 2.325 . S
Tb440 O471 2.341 . S
Tb441 C451 2.809 . S
Tb441 O462 2.325 . S
Tb441 O465 2.341 . S
Tb441 O466 2.484 . S
Tb441 O467 2.440 . S
Tb441 O468 2.658 . S
Tb441 O469 2.409 . S
Tb441 O470 2.378 . S
C442 Tb440 2.809 . S
C442 C443 1.514 . S
C442 O460 1.248 . S
C442 O461 1.266 . S
C443 C442 1.514 . S
C443 C444 1.359 . S
C443 C448 1.348 . S
C444 C443 1.359 . S
C444 C445 1.380 . S
C444 H472 0.929 . S
C445 C444 1.380 . S
C445 C446 1.347 . S
C445 H473 0.931 . S
C446 C445 1.347 . S
C446 C447 1.369 . S
C447 C446 1.369 . S
C447 C448 1.408 . S
C447 H474 0.930 . S
C448 C443 1.348 . S
C448 C447 1.408 . S
C448 H475 0.930 . S
C449 O462 1.281 . S
C449 O463 1.254 . S
C450 O464 1.236 . S
C450 O465 1.266 . S
C451 Tb441 2.809 . S
C451 C452 1.514 . S
C451 O466 1.248 . S
C451 O467 1.266 . S
C452 C451 1.514 . S
C452 C453 1.359 . S
C452 C457 1.348 . S
C453 C452 1.359 . S
C453 C454 1.380 . S
C453 H476 0.929 . S
C454 C453 1.380 . S
C454 C455 1.347 . S
C454 H477 0.931 . S
C455 C454 1.347 . S
C455 C456 1.369 . S
C456 C455 1.369 . S
C456 C457 1.408 . S
C456 H478 0.930 . S
C457 C452 1.348 . S
C457 C456 1.408 . S
C457 H479 0.930 . S
C458 O468 1.281 . S
C458 O469 1.254 . S
C459 O470 1.236 . S
C459 O471 1.266 . S
O460 Tb440 2.484 . S
O460 C442 1.248 . S
O461 Tb440 2.440 . S
O461 C442 1.266 . S
O462 Tb440 2.658 . S
O462 Tb441 2.325 . S
O462 C449 1.281 . S
O463 Tb440 2.409 . S
O463 C449 1.254 . S
O464 Tb440 2.378 . S
O464 C450 1.236 . S
O465 Tb441 2.341 . S
O465 C450 1.266 . S
O466 Tb441 2.484 . S
O466 C451 1.248 . S
O467 Tb441 2.440 . S
O467 C451 1.266 . S
O468 Tb440 2.325 . S
O468 Tb441 2.658 . S
O468 C458 1.281 . S
O469 Tb441 2.409 . S
O469 C458 1.254 . S
O470 Tb441 2.378 . S
O470 C459 1.236 . S
O471 Tb440 2.341 . S
O471 C459 1.266 . S
H472 C444 0.929 . S
H473 C445 0.931 . S
H474 C447 0.930 . S
H475 C448 0.930 . S
H476 C453 0.929 . S
H477 C454 0.931 . S
H478 C456 0.930 . S
H479 C457 0.930 . S
Tb480 C482 2.809 . S
Tb480 O500 2.484 . S
Tb480 O501 2.440 . S
Tb480 O502 2.658 . S
Tb480 O503 2.409 . S
Tb480 O504 2.378 . S
Tb480 O508 2.325 . S
Tb480 O511 2.341 . S
Tb481 C491 2.809 . S
Tb481 O502 2.325 . S
Tb481 O505 2.341 . S
Tb481 O506 2.484 . S
Tb481 O507 2.440 . S
Tb481 O508 2.658 . S
Tb481 O509 2.409 . S
Tb481 O510 2.378 . S
C482 Tb480 2.809 . S
C482 C483 1.514 . S
C482 O500 1.248 . S
C482 O501 1.266 . S
C483 C482 1.514 . S
C483 C484 1.359 . S
C483 C488 1.348 . S
C484 C483 1.359 . S
C484 C485 1.380 . S
C484 H512 0.929 . S
C485 C484 1.380 . S
C485 C486 1.347 . S
C485 H513 0.931 . S
C486 C485 1.347 . S
C486 C487 1.369 . S
C487 C486 1.369 . S
C487 C488 1.408 . S
C487 H514 0.930 . S
C488 C483 1.348 . S
C488 C487 1.408 . S
C488 H515 0.930 . S
C489 O502 1.281 . S
C489 O503 1.254 . S
C490 O504 1.236 . S
C490 O505 1.266 . S
C491 Tb481 2.809 . S
C491 C492 1.514 . S
C491 O506 1.248 . S
C491 O507 1.266 . S
C492 C491 1.514 . S
C492 C493 1.359 . S
C492 C497 1.348 . S
C493 C492 1.359 . S
C493 C494 1.380 . S
C493 H516 0.929 . S
C494 C493 1.380 . S
C494 C495 1.347 . S
C494 H517 0.931 . S
C495 C494 1.347 . S
C495 C496 1.369 . S
C496 C495 1.369 . S
C496 C497 1.408 . S
C496 H518 0.930 . S
C497 C492 1.348 . S
C497 C496 1.408 . S
C497 H519 0.930 . S
C498 O508 1.281 . S
C498 O509 1.254 . S
C499 O510 1.236 . S
C499 O511 1.266 . S
O500 Tb480 2.484 . S
O500 C482 1.248 . S
O501 Tb480 2.440 . S
O501 C482 1.266 . S
O502 Tb480 2.658 . S
O502 Tb481 2.325 . S
O502 C489 1.281 . S
O503 Tb480 2.409 . S
O503 C489 1.254 . S
O504 Tb480 2.378 . S
O504 C490 1.236 . S
O505 Tb481 2.341 . S
O505 C490 1.266 . S
O506 Tb481 2.484 . S
O506 C491 1.248 . S
O507 Tb481 2.440 . S
O507 C491 1.266 . S
O508 Tb480 2.325 . S
O508 Tb481 2.658 . S
O508 C498 1.281 . S
O509 Tb481 2.409 . S
O509 C498 1.254 . S
O510 Tb481 2.378 . S
O510 C499 1.236 . S
O511 Tb480 2.341 . S
O511 C499 1.266 . S
H512 C484 0.929 . S
H513 C485 0.931 . S
H514 C487 0.930 . S
H515 C488 0.930 . S
H516 C493 0.929 . S
H517 C494 0.931 . S
H518 C496 0.930 . S
H519 C497 0.930 . S
Tb520 C522 2.809 . S
Tb520 O540 2.484 . S
Tb520 O541 2.440 . S
Tb520 O542 2.658 . S
Tb520 O543 2.409 . S
Tb520 O544 2.378 . S
Tb520 O548 2.325 . S
Tb520 O551 2.341 . S
Tb521 C531 2.809 . S
Tb521 O542 2.325 . S
Tb521 O545 2.341 . S
Tb521 O546 2.484 . S
Tb521 O547 2.440 . S
Tb521 O548 2.658 . S
Tb521 O549 2.409 . S
Tb521 O550 2.378 . S
C522 Tb520 2.809 . S
C522 C523 1.514 . S
C522 O540 1.248 . S
C522 O541 1.266 . S
C523 C522 1.514 . S
C523 C524 1.359 . S
C523 C528 1.348 . S
C524 C523 1.359 . S
C524 C525 1.380 . S
C524 H552 0.929 . S
C525 C524 1.380 . S
C525 C526 1.347 . S
C525 H553 0.931 . S
C526 C525 1.347 . S
C526 C527 1.369 . S
C527 C526 1.369 . S
C527 C528 1.408 . S
C527 H554 0.930 . S
C528 C523 1.348 . S
C528 C527 1.408 . S
C528 H555 0.930 . S
C529 O542 1.281 . S
C529 O543 1.254 . S
C530 O544 1.236 . S
C530 O545 1.266 . S
C531 Tb521 2.809 . S
C531 C532 1.514 . S
C531 O546 1.248 . S
C531 O547 1.266 . S
C532 C531 1.514 . S
C532 C533 1.359 . S
C532 C537 1.348 . S
C533 C532 1.359 . S
C533 C534 1.380 . S
C533 H556 0.929 . S
C534 C533 1.380 . S
C534 C535 1.347 . S
C534 H557 0.931 . S
C535 C534 1.347 . S
C535 C536 1.369 . S
C536 C535 1.369 . S
C536 C537 1.408 . S
C536 H558 0.930 . S
C537 C532 1.348 . S
C537 C536 1.408 . S
C537 H559 0.930 . S
C538 O548 1.281 . S
C538 O549 1.254 . S
C539 O550 1.236 . S
C539 O551 1.266 . S
O540 Tb520 2.484 . S
O540 C522 1.248 . S
O541 Tb520 2.440 . S
O541 C522 1.266 . S
O542 Tb520 2.658 . S
O542 Tb521 2.325 . S
O542 C529 1.281 . S
O543 Tb520 2.409 . S
O543 C529 1.254 . S
O544 Tb520 2.378 . S
O544 C530 1.236 . S
O545 Tb521 2.341 . S
O545 C530 1.266 . S
O546 Tb521 2.484 . S
O546 C531 1.248 . S
O547 Tb521 2.440 . S
O547 C531 1.266 . S
O548 Tb520 2.325 . S
O548 Tb521 2.658 . S
O548 C538 1.281 . S
O549 Tb521 2.409 . S
O549 C538 1.254 . S
O550 Tb521 2.378 . S
O550 C539 1.236 . S
O551 Tb520 2.341 . S
O551 C539 1.266 . S
H552 C524 0.929 . S
H553 C525 0.931 . S
H554 C527 0.930 . S
H555 C528 0.930 . S
H556 C533 0.929 . S
H557 C534 0.931 . S
H558 C536 0.930 . S
H559 C537 0.930 . S
Tb560 C562 2.809 . S
Tb560 O580 2.484 . S
Tb560 O581 2.440 . S
Tb560 O582 2.658 . S
Tb560 O583 2.409 . S
Tb560 O584 2.378 . S
Tb560 O588 2.325 . S
Tb560 O591 2.341 . S
Tb561 C571 2.809 . S
Tb561 O582 2.325 . S
Tb561 O585 2.341 . S
Tb561 O586 2.484 . S
Tb561 O587 2.440 . S
Tb561 O588 2.658 . S
Tb561 O589 2.409 . S
Tb561 O590 2.378 . S
C562 Tb560 2.809 . S
C562 C563 1.514 . S
C562 O580 1.248 . S
C562 O581 1.266 . S
C563 C562 1.514 . S
C563 C564 1.359 . S
C563 C568 1.348 . S
C564 C563 1.359 . S
C564 C565 1.380 . S
C564 H592 0.929 . S
C565 C564 1.380 . S
C565 C566 1.347 . S
C565 H593 0.931 . S
C566 C565 1.347 . S
C566 C567 1.369 . S
C567 C566 1.369 . S
C567 C568 1.408 . S
C567 H594 0.930 . S
C568 C563 1.348 . S
C568 C567 1.408 . S
C568 H595 0.930 . S
C569 O582 1.281 . S
C569 O583 1.254 . S
C570 O584 1.236 . S
C570 O585 1.266 . S
C571 Tb561 2.809 . S
C571 C572 1.514 . S
C571 O586 1.248 . S
C571 O587 1.266 . S
C572 C571 1.514 . S
C572 C573 1.359 . S
C572 C577 1.348 . S
C573 C572 1.359 . S
C573 C574 1.380 . S
C573 H596 0.929 . S
C574 C573 1.380 . S
C574 C575 1.347 . S
C574 H597 0.931 . S
C575 C574 1.347 . S
C575 C576 1.369 . S
C576 C575 1.369 . S
C576 C577 1.408 . S
C576 H598 0.930 . S
C577 C572 1.348 . S
C577 C576 1.408 . S
C577 H599 0.930 . S
C578 O588 1.281 . S
C578 O589 1.254 . S
C579 O590 1.236 . S
C579 O591 1.266 . S
O580 Tb560 2.484 . S
O580 C562 1.248 . S
O581 Tb560 2.440 . S
O581 C562 1.266 . S
O582 Tb560 2.658 . S
O582 Tb561 2.325 . S
O582 C569 1.281 . S
O583 Tb560 2.409 . S
O583 C569 1.254 . S
O584 Tb560 2.378 . S
O584 C570 1.236 . S
O585 Tb561 2.341 . S
O585 C570 1.266 . S
O586 Tb561 2.484 . S
O586 C571 1.248 . S
O587 Tb561 2.440 . S
O587 C571 1.266 . S
O588 Tb560 2.325 . S
O588 Tb561 2.658 . S
O588 C578 1.281 . S
O589 Tb561 2.409 . S
O589 C578 1.254 . S
O590 Tb561 2.378 . S
O590 C579 1.236 . S
O591 Tb560 2.341 . S
O591 C579 1.266 . S
H592 C564 0.929 . S
H593 C565 0.931 . S
H594 C567 0.930 . S
H595 C568 0.930 . S
H596 C573 0.929 . S
H597 C574 0.931 . S
H598 C576 0.930 . S
H599 C577 0.930 . S
Tb600 C602 2.809 . S
Tb600 O620 2.484 . S
Tb600 O621 2.440 . S
Tb600 O622 2.658 . S
Tb600 O623 2.409 . S
Tb600 O624 2.378 . S
Tb600 O628 2.325 . S
Tb600 O631 2.341 . S
Tb601 C611 2.809 . S
Tb601 O622 2.325 . S
Tb601 O625 2.341 . S
Tb601 O626 2.484 . S
Tb601 O627 2.440 . S
Tb601 O628 2.658 . S
Tb601 O629 2.409 . S
Tb601 O630 2.378 . S
C602 Tb600 2.809 . S
C602 C603 1.514 . S
C602 O620 1.248 . S
C602 O621 1.266 . S
C603 C602 1.514 . S
C603 C604 1.359 . S
C603 C608 1.348 . S
C604 C603 1.359 . S
C604 C605 1.380 . S
C604 H632 0.929 . S
C605 C604 1.380 . S
C605 C606 1.347 . S
C605 H633 0.931 . S
C606 C605 1.347 . S
C606 C607 1.369 . S
C607 C606 1.369 . S
C607 C608 1.408 . S
C607 H634 0.930 . S
C608 C603 1.348 . S
C608 C607 1.408 . S
C608 H635 0.930 . S
C609 O622 1.281 . S
C609 O623 1.254 . S
C610 O624 1.236 . S
C610 O625 1.266 . S
C611 Tb601 2.809 . S
C611 C612 1.514 . S
C611 O626 1.248 . S
C611 O627 1.266 . S
C612 C611 1.514 . S
C612 C613 1.359 . S
C612 C617 1.348 . S
C613 C612 1.359 . S
C613 C614 1.392 . S
C613 H636 0.929 . S
C614 C613 1.392 . S
C614 C615 1.337 1_545 S
C614 H637 0.930 1_545 S
C615 C614 1.337 1_565 S
C615 C616 1.369 . S
C616 C615 1.369 . S
C616 C617 1.408 1_565 S
C616 H638 0.930 . S
C617 C612 1.348 . S
C617 C616 1.408 1_545 S
C617 H639 0.930 . S
C618 O628 1.281 . S
C618 O629 1.254 . S
C619 O630 1.236 . S
C619 O631 1.266 . S
O620 Tb600 2.484 . S
O620 C602 1.248 . S
O621 Tb600 2.440 . S
O621 C602 1.266 . S
O622 Tb600 2.658 . S
O622 Tb601 2.325 . S
O622 C609 1.281 . S
O623 Tb600 2.409 . S
O623 C609 1.254 . S
O624 Tb600 2.378 . S
O624 C610 1.236 . S
O625 Tb601 2.341 . S
O625 C610 1.266 . S
O626 Tb601 2.484 . S
O626 C611 1.248 . S
O627 Tb601 2.440 . S
O627 C611 1.266 . S
O628 Tb600 2.325 . S
O628 Tb601 2.658 . S
O628 C618 1.281 . S
O629 Tb601 2.409 . S
O629 C618 1.254 . S
O630 Tb601 2.378 . S
O630 C619 1.236 . S
O631 Tb600 2.341 . S
O631 C619 1.266 . S
H632 C604 0.929 . S
H633 C605 0.931 . S
H634 C607 0.930 . S
H635 C608 0.930 . S
H636 C613 0.929 . S
H637 C614 0.930 1_565 S
H638 C616 0.930 . S
H639 C617 0.930 . S
Tb640 C642 2.809 . S
Tb640 O660 2.484 . S
Tb640 O661 2.440 . S
Tb640 O662 2.658 . S
Tb640 O663 2.409 . S
Tb640 O664 2.378 . S
Tb640 O668 2.325 . S
Tb640 O671 2.341 . S
Tb641 C651 2.809 . S
Tb641 O662 2.325 . S
Tb641 O665 2.341 . S
Tb641 O666 2.484 . S
Tb641 O667 2.440 . S
Tb641 O668 2.658 . S
Tb641 O669 2.409 . S
Tb641 O670 2.378 . S
C642 Tb640 2.809 . S
C642 C643 1.514 . S
C642 O660 1.248 . S
C642 O661 1.266 . S
C643 C642 1.514 . S
C643 C644 1.359 . S
C643 C648 1.348 . S
C644 C643 1.359 . S
C644 C645 1.380 . S
C644 H672 0.929 . S
C645 C644 1.380 . S
C645 C646 1.347 . S
C645 H673 0.931 . S
C646 C645 1.347 . S
C646 C647 1.369 . S
C647 C646 1.369 . S
C647 C648 1.408 . S
C647 H674 0.930 . S
C648 C643 1.348 . S
C648 C647 1.408 . S
C648 H675 0.930 . S
C649 O662 1.281 . S
C649 O663 1.254 . S
C650 O664 1.236 . S
C650 O665 1.266 . S
C651 Tb641 2.809 . S
C651 C652 1.514 . S
C651 O666 1.248 . S
C651 O667 1.266 . S
C652 C651 1.514 . S
C652 C653 1.359 1_655 S
C652 C657 1.348 1_655 S
C653 C652 1.359 1_455 S
C653 C654 1.380 . S
C653 H676 0.929 1_455 S
C654 C653 1.380 . S
C654 C655 1.347 . S
C654 H677 0.931 . S
C655 C654 1.347 . S
C655 C656 1.369 . S
C656 C655 1.369 . S
C656 C657 1.408 . S
C656 H678 0.930 . S
C657 C652 1.348 1_455 S
C657 C656 1.408 . S
C657 H679 0.930 1_455 S
C658 O668 1.281 . S
C658 O669 1.254 . S
C659 O670 1.236 . S
C659 O671 1.266 . S
O660 Tb640 2.484 . S
O660 C642 1.248 . S
O661 Tb640 2.440 . S
O661 C642 1.266 . S
O662 Tb640 2.658 . S
O662 Tb641 2.325 . S
O662 C649 1.281 . S
O663 Tb640 2.409 . S
O663 C649 1.254 . S
O664 Tb640 2.378 . S
O664 C650 1.236 . S
O665 Tb641 2.341 . S
O665 C650 1.266 . S
O666 Tb641 2.484 . S
O666 C651 1.248 . S
O667 Tb641 2.440 . S
O667 C651 1.266 . S
O668 Tb640 2.325 . S
O668 Tb641 2.658 . S
O668 C658 1.281 . S
O669 Tb641 2.409 . S
O669 C658 1.254 . S
O670 Tb641 2.378 . S
O670 C659 1.236 . S
O671 Tb640 2.341 . S
O671 C659 1.266 . S
H672 C644 0.929 . S
H673 C645 0.931 . S
H674 C647 0.930 . S
H675 C648 0.930 . S
H676 C653 0.929 1_655 S
H677 C654 0.931 . S
H678 C656 0.930 . S
H679 C657 0.930 1_655 S
Tb680 C682 2.809 . S
Tb680 O700 2.484 . S
Tb680 O701 2.440 . S
Tb680 O702 2.658 . S
Tb680 O703 2.409 . S
Tb680 O704 2.378 . S
Tb680 O708 2.325 . S
Tb680 O711 2.341 . S
Tb681 C691 2.809 . S
Tb681 O702 2.325 . S
Tb681 O705 2.341 . S
Tb681 O706 2.484 . S
Tb681 O707 2.440 . S
Tb681 O708 2.658 . S
Tb681 O709 2.409 . S
Tb681 O710 2.378 . S
C682 Tb680 2.809 . S
C682 C683 1.514 . S
C682 O700 1.248 . S
C682 O701 1.266 . S
C683 C682 1.514 . S
C683 C684 1.359 . S
C683 C688 1.348 . S
C684 C683 1.359 . S
C684 C685 1.380 . S
C684 H712 0.929 . S
C685 C684 1.380 . S
C685 C686 1.347 . S
C685 H713 0.931 . S
C686 C685 1.347 . S
C686 C687 1.369 . S
C687 C686 1.369 . S
C687 C688 1.408 . S
C687 H714 0.930 . S
C688 C683 1.348 . S
C688 C687 1.408 . S
C688 H715 0.930 . S
C689 O702 1.281 . S
C689 O703 1.254 . S
C690 O704 1.236 . S
C690 O705 1.266 . S
C691 Tb681 2.809 . S
C691 C692 1.514 . S
C691 O706 1.248 . S
C691 O707 1.266 . S
C692 C691 1.514 . S
C692 C693 1.359 . S
C692 C697 1.348 . S
C693 C692 1.359 . S
C693 C694 1.380 . S
C693 H716 0.929 . S
C694 C693 1.380 . S
C694 C695 1.347 . S
C694 H717 0.931 . S
C695 C694 1.347 . S
C695 C696 1.369 . S
C696 C695 1.369 . S
C696 C697 1.408 . S
C696 H718 0.930 . S
C697 C692 1.348 . S
C697 C696 1.408 . S
C697 H719 0.930 . S
C698 O708 1.281 . S
C698 O709 1.254 . S
C699 O710 1.236 . S
C699 O711 1.266 . S
O700 Tb680 2.484 . S
O700 C682 1.248 . S
O701 Tb680 2.440 . S
O701 C682 1.266 . S
O702 Tb680 2.658 . S
O702 Tb681 2.325 . S
O702 C689 1.281 . S
O703 Tb680 2.409 . S
O703 C689 1.254 . S
O704 Tb680 2.378 . S
O704 C690 1.236 . S
O705 Tb681 2.341 . S
O705 C690 1.266 . S
O706 Tb681 2.484 . S
O706 C691 1.248 . S
O707 Tb681 2.440 . S
O707 C691 1.266 . S
O708 Tb680 2.325 . S
O708 Tb681 2.658 . S
O708 C698 1.281 . S
O709 Tb681 2.409 . S
O709 C698 1.254 . S
O710 Tb681 2.378 . S
O710 C699 1.236 . S
O711 Tb680 2.341 . S
O711 C699 1.266 . S
H712 C684 0.929 . S
H713 C685 0.931 . S
H714 C687 0.930 . S
H715 C688 0.930 . S
H716 C693 0.929 . S
H717 C694 0.931 . S
H718 C696 0.930 . S
H719 C697 0.930 . S
H720 C738 0.951 . S
H721 C740 0.951 . S
H722 C742 0.950 . S
H723 C743 0.950 . S
H724 C745 0.950 . S
H725 C748 0.950 . S
H726 C749 0.950 . S
H727 C751 0.950 . S
H728 C752 0.950 . S
H729 C753 0.951 . S
H730 C755 0.951 . S
H731 C757 0.950 . S
H732 C758 0.950 . S
H733 C760 0.950 . S
H734 C763 0.950 . S
H735 C764 0.950 . S
H736 C766 0.950 . S
H737 C767 0.950 . S
C738 H720 0.951 . S
C738 C739 1.366 . S
C738 C740 1.388 . S
C739 C738 1.366 . S
C739 C743 1.385 . S
C740 H721 0.951 . S
C740 C738 1.388 . S
C740 C741 1.366 . S
C741 C740 1.366 . S
C741 C742 1.414 . S
C741 C744 1.499 . S
C742 H722 0.950 . S
C742 C741 1.414 . S
C742 C743 1.374 . S
C743 H723 0.950 . S
C743 C739 1.385 . S
C743 C742 1.374 . S
C744 C741 1.499 . S
C744 C745 1.373 . S
C744 C746 1.389 . S
C745 H724 0.950 . S
C745 C744 1.373 . S
C745 C761 1.377 . S
C746 C744 1.389 . S
C746 C747 1.524 . S
C746 C760 1.377 . S
C747 C746 1.524 . S
C747 C748 1.397 . S
C747 C752 1.363 . S
C748 H725 0.950 . S
C748 C747 1.397 . S
C748 C749 1.334 . S
C749 H726 0.950 . S
C749 C748 1.334 . S
C749 C750 1.287 . S
C750 C749 1.287 . S
C750 C751 1.524 . S
C750 H769 0.913 . S
C751 H727 0.950 . S
C751 C750 1.524 . S
C751 C752 1.415 . S
C752 H728 0.950 . S
C752 C747 1.363 . S
C752 C751 1.415 . S
C753 H729 0.951 . S
C753 C754 1.366 . S
C753 C755 1.388 . S
C754 C753 1.366 . S
C754 C758 1.385 . S
C755 H730 0.951 . S
C755 C753 1.388 . S
C755 C756 1.366 . S
C756 C755 1.366 . S
C756 C757 1.414 . S
C756 C759 1.499 . S
C757 H731 0.950 . S
C757 C756 1.414 . S
C757 C758 1.374 . S
C758 H732 0.950 . S
C758 C754 1.385 . S
C758 C757 1.374 . S
C759 C756 1.499 . S
C759 C760 1.373 . S
C759 C761 1.389 . S
C760 H733 0.950 . S
C760 C746 1.377 . S
C760 C759 1.373 . S
C761 C745 1.377 . S
C761 C759 1.389 . S
C761 C762 1.524 . S
C762 C761 1.524 . S
C762 C763 1.397 . S
C762 C767 1.363 . S
C763 H734 0.950 . S
C763 C762 1.397 . S
C763 C764 1.334 . S
C764 H735 0.950 . S
C764 C763 1.334 . S
C764 C765 1.287 . S
C765 C764 1.287 . S
C765 C766 1.524 . S
C765 H768 0.999 . S
C766 H736 0.950 . S
C766 C765 1.524 . S
C766 C767 1.415 . S
C767 H737 0.950 . S
C767 C762 1.363 . S
C767 C766 1.415 . S
H768 C765 0.999 . S
H769 C750 0.913 . S
H770 C788 0.951 . S
H771 C790 0.951 . S
H772 C792 0.950 . S
H773 C793 0.950 . S
H774 C795 0.950 . S
H775 C798 0.950 . S
H776 C799 0.950 . S
H777 C801 0.950 . S
H778 C802 0.950 . S
H779 C803 0.951 . S
H780 C805 0.951 . S
H781 C807 0.950 . S
H782 C808 0.950 . S
H783 C810 0.950 . S
H784 C813 0.950 . S
H785 C814 0.950 . S
H786 C816 0.950 . S
H787 C817 0.950 . S
C788 H770 0.951 . S
C788 C789 1.366 . S
C788 C790 1.388 . S
C789 C788 1.366 . S
C789 C793 1.385 . S
C790 H771 0.951 . S
C790 C788 1.388 . S
C790 C791 1.366 . S
C791 C790 1.366 . S
C791 C792 1.414 . S
C791 C794 1.499 . S
C792 H772 0.950 . S
C792 C791 1.414 . S
C792 C793 1.374 . S
C793 H773 0.950 . S
C793 C789 1.385 . S
C793 C792 1.374 . S
C794 C791 1.499 . S
C794 C795 1.373 . S
C794 C796 1.389 . S
C795 H774 0.950 . S
C795 C794 1.373 . S
C795 C811 1.377 . S
C796 C794 1.389 . S
C796 C797 1.524 . S
C796 C810 1.377 . S
C797 C796 1.524 . S
C797 C798 1.397 . S
C797 C802 1.363 . S
C798 H775 0.950 . S
C798 C797 1.397 . S
C798 C799 1.334 . S
C799 H776 0.950 . S
C799 C798 1.334 . S
C799 C800 1.287 . S
C800 C799 1.287 . S
C800 C801 1.524 . S
C800 H819 0.913 . S
C801 H777 0.950 . S
C801 C800 1.524 . S
C801 C802 1.415 . S
C802 H778 0.950 . S
C802 C797 1.363 . S
C802 C801 1.415 . S
C803 H779 0.951 . S
C803 C804 1.366 . S
C803 C805 1.388 . S
C804 C803 1.366 . S
C804 C808 1.385 . S
C805 H780 0.951 . S
C805 C803 1.388 . S
C805 C806 1.366 . S
C806 C805 1.366 . S
C806 C807 1.414 . S
C806 C809 1.499 . S
C807 H781 0.950 . S
C807 C806 1.414 . S
C807 C808 1.374 . S
C808 H782 0.950 . S
C808 C804 1.385 . S
C808 C807 1.374 . S
C809 C806 1.499 . S
C809 C810 1.373 . S
C809 C811 1.389 . S
C810 H783 0.950 . S
C810 C796 1.377 . S
C810 C809 1.373 . S
C811 C795 1.377 . S
C811 C809 1.389 . S
C811 C812 1.524 . S
C812 C811 1.524 . S
C812 C813 1.397 . S
C812 C817 1.363 . S
C813 H784 0.950 . S
C813 C812 1.397 . S
C813 C814 1.334 . S
C814 H785 0.950 . S
C814 C813 1.334 . S
C814 C815 1.287 . S
C815 C814 1.287 . S
C815 C816 1.524 . S
C815 H818 0.999 . S
C816 H786 0.950 . S
C816 C815 1.524 . S
C816 C817 1.415 . S
C817 H787 0.950 . S
C817 C812 1.363 . S
C817 C816 1.415 . S
H818 C815 0.999 . S
H819 C800 0.913 . S
H820 C838 0.951 . S
H821 C840 0.951 . S
H822 C842 0.950 . S
H823 C843 0.950 . S
H824 C845 0.950 . S
H825 C848 0.950 . S
H826 C849 0.950 . S
H827 C851 0.950 . S
H828 C852 0.950 . S
H829 C853 0.951 . S
H830 C855 0.951 . S
H831 C857 0.950 . S
H832 C858 0.950 . S
H833 C860 0.950 . S
H834 C863 0.950 . S
H835 C864 0.950 . S
H836 C866 0.950 . S
H837 C867 0.950 . S
C838 H820 0.951 . S
C838 C839 1.366 . S
C838 C840 1.388 . S
C839 C838 1.366 . S
C839 C843 1.385 . S
C840 H821 0.951 . S
C840 C838 1.388 . S
C840 C841 1.366 . S
C841 C840 1.366 . S
C841 C842 1.414 . S
C841 C844 1.499 . S
C842 H822 0.950 . S
C842 C841 1.414 . S
C842 C843 1.374 . S
C843 H823 0.950 . S
C843 C839 1.385 . S
C843 C842 1.374 . S
C844 C841 1.499 . S
C844 C845 1.373 . S
C844 C846 1.389 . S
C845 H824 0.950 . S
C845 C844 1.373 . S
C845 C861 1.377 . S
C846 C844 1.389 . S
C846 C847 1.524 . S
C846 C860 1.377 . S
C847 C846 1.524 . S
C847 C848 1.397 . S
C847 C852 1.363 . S
C848 H825 0.950 . S
C848 C847 1.397 . S
C848 C849 1.334 . S
C849 H826 0.950 . S
C849 C848 1.334 . S
C849 C850 1.287 . S
C850 C849 1.287 . S
C850 C851 1.524 . S
C850 H869 0.913 . S
C851 H827 0.950 . S
C851 C850 1.524 . S
C851 C852 1.415 . S
C852 H828 0.950 . S
C852 C847 1.363 . S
C852 C851 1.415 . S
C853 H829 0.951 . S
C853 C854 1.366 . S
C853 C855 1.388 . S
C854 C853 1.366 . S
C854 C858 1.385 . S
C855 H830 0.951 . S
C855 C853 1.388 . S
C855 C856 1.366 . S
C856 C855 1.366 . S
C856 C857 1.414 . S
C856 C859 1.499 . S
C857 H831 0.950 . S
C857 C856 1.414 . S
C857 C858 1.374 . S
C858 H832 0.950 . S
C858 C854 1.385 . S
C858 C857 1.374 . S
C859 C856 1.499 . S
C859 C860 1.373 . S
C859 C861 1.389 . S
C860 H833 0.950 . S
C860 C846 1.377 . S
C860 C859 1.373 . S
C861 C845 1.377 . S
C861 C859 1.389 . S
C861 C862 1.524 . S
C862 C861 1.524 . S
C862 C863 1.397 . S
C862 C867 1.363 . S
C863 H834 0.950 . S
C863 C862 1.397 . S
C863 C864 1.334 . S
C864 H835 0.950 . S
C864 C863 1.334 . S
C864 C865 1.287 . S
C865 C864 1.287 . S
C865 C866 1.524 . S
C865 H868 0.999 . S
C866 H836 0.950 . S
C866 C865 1.524 . S
C866 C867 1.415 . S
C867 H837 0.950 . S
C867 C862 1.363 . S
C867 C866 1.415 . S
H868 C865 0.999 . S
H869 C850 0.913 . S
H870 C888 0.951 . S
H871 C890 0.951 . S
H872 C892 0.950 . S
H873 C893 0.950 . S
H874 C895 0.950 . S
H875 C898 0.950 . S
H876 C899 0.950 . S
H877 C901 0.950 . S
H878 C902 0.950 . S
H879 C903 0.951 . S
H880 C905 0.951 . S
H881 C907 0.950 . S
H882 C908 0.950 . S
H883 C910 0.950 . S
H884 C913 0.950 . S
H885 C914 0.950 . S
H886 C916 0.950 . S
H887 C917 0.950 . S
C888 H870 0.951 . S
C888 C889 1.366 . S
C888 C890 1.388 . S
C889 C888 1.366 . S
C889 C893 1.385 . S
C890 H871 0.951 . S
C890 C888 1.388 . S
C890 C891 1.366 . S
C891 C890 1.366 . S
C891 C892 1.414 . S
C891 C894 1.499 . S
C892 H872 0.950 . S
C892 C891 1.414 . S
C892 C893 1.374 . S
C893 H873 0.950 . S
C893 C889 1.385 . S
C893 C892 1.374 . S
C894 C891 1.499 . S
C894 C895 1.373 . S
C894 C896 1.389 . S
C895 H874 0.950 . S
C895 C894 1.373 . S
C895 C911 1.377 . S
C896 C894 1.389 . S
C896 C897 1.524 . S
C896 C910 1.377 . S
C897 C896 1.524 . S
C897 C898 1.397 . S
C897 C902 1.363 . S
C898 H875 0.950 . S
C898 C897 1.397 . S
C898 C899 1.334 . S
C899 H876 0.950 . S
C899 C898 1.334 . S
C899 C900 1.287 . S
C900 C899 1.287 . S
C900 C901 1.524 . S
C900 H919 0.913 . S
C901 H877 0.950 . S
C901 C900 1.524 . S
C901 C902 1.415 . S
C902 H878 0.950 . S
C902 C897 1.363 . S
C902 C901 1.415 . S
C903 H879 0.951 . S
C903 C904 1.366 . S
C903 C905 1.388 . S
C904 C903 1.366 . S
C904 C908 1.385 . S
C905 H880 0.951 . S
C905 C903 1.388 . S
C905 C906 1.366 . S
C906 C905 1.366 . S
C906 C907 1.414 . S
C906 C909 1.499 . S
C907 H881 0.950 . S
C907 C906 1.414 . S
C907 C908 1.374 . S
C908 H882 0.950 . S
C908 C904 1.385 . S
C908 C907 1.374 . S
C909 C906 1.499 . S
C909 C910 1.373 . S
C909 C911 1.389 . S
C910 H883 0.950 . S
C910 C896 1.377 . S
C910 C909 1.373 . S
C911 C895 1.377 . S
C911 C909 1.389 . S
C911 C912 1.524 . S
C912 C911 1.524 . S
C912 C913 1.397 . S
C912 C917 1.363 . S
C913 H884 0.950 . S
C913 C912 1.397 . S
C913 C914 1.334 . S
C914 H885 0.950 . S
C914 C913 1.334 . S
C914 C915 1.287 . S
C915 C914 1.287 . S
C915 C916 1.524 . S
C915 H918 0.999 . S
C916 H886 0.950 . S
C916 C915 1.524 . S
C916 C917 1.415 . S
C917 H887 0.950 . S
C917 C912 1.363 . S
C917 C916 1.415 . S
H918 C915 0.999 . S
H919 C900 0.913 . S
H920 C938 0.951 . S
H921 C940 0.951 . S
H922 C942 0.950 . S
H923 C943 0.950 . S
H924 C945 0.950 . S
H925 C948 0.950 . S
H926 C949 0.950 . S
H927 C951 0.950 . S
H928 C952 0.950 . S
H929 C953 0.951 . S
H930 C955 0.951 . S
H931 C957 0.950 . S
H932 C958 0.950 . S
H933 C960 0.950 . S
H934 C963 0.950 . S
H935 C964 0.950 . S
H936 C966 0.950 . S
H937 C967 0.950 . S
C938 H920 0.951 . S
C938 C939 1.366 . S
C938 C940 1.388 . S
C939 C938 1.366 . S
C939 C943 1.385 . S
C940 H921 0.951 . S
C940 C938 1.388 . S
C940 C941 1.366 . S
C941 C940 1.366 . S
C941 C942 1.414 . S
C941 C944 1.499 . S
C942 H922 0.950 . S
C942 C941 1.414 . S
C942 C943 1.374 . S
C943 H923 0.950 . S
C943 C939 1.385 . S
C943 C942 1.374 . S
C944 C941 1.499 . S
C944 C945 1.373 . S
C944 C946 1.389 . S
C945 H924 0.950 . S
C945 C944 1.373 . S
C945 C961 1.377 . S
C946 C944 1.389 . S
C946 C947 1.524 . S
C946 C960 1.377 . S
C947 C946 1.524 . S
C947 C948 1.397 . S
C947 C952 1.363 . S
C948 H925 0.950 . S
C948 C947 1.397 . S
C948 C949 1.334 . S
C949 H926 0.950 . S
C949 C948 1.334 . S
C949 C950 1.287 . S
C950 C949 1.287 . S
C950 C951 1.524 . S
C950 H969 0.913 . S
C951 H927 0.950 . S
C951 C950 1.524 . S
C951 C952 1.415 . S
C952 H928 0.950 . S
C952 C947 1.363 . S
C952 C951 1.415 . S
C953 H929 0.951 . S
C953 C954 1.366 . S
C953 C955 1.388 . S
C954 C953 1.366 . S
C954 C958 1.385 . S
C955 H930 0.951 . S
C955 C953 1.388 . S
C955 C956 1.366 . S
C956 C955 1.366 . S
C956 C957 1.414 . S
C956 C959 1.499 . S
C957 H931 0.950 . S
C957 C956 1.414 . S
C957 C958 1.374 . S
C958 H932 0.950 . S
C958 C954 1.385 . S
C958 C957 1.374 . S
C959 C956 1.499 . S
C959 C960 1.373 . S
C959 C961 1.389 . S
C960 H933 0.950 . S
C960 C946 1.377 . S
C960 C959 1.373 . S
C961 C945 1.377 . S
C961 C959 1.389 . S
C961 C962 1.524 . S
C962 C961 1.524 . S
C962 C963 1.397 . S
C962 C967 1.363 . S
C963 H934 0.950 . S
C963 C962 1.397 . S
C963 C964 1.334 . S
C964 H935 0.950 . S
C964 C963 1.334 . S
C964 C965 1.287 . S
C965 C964 1.287 . S
C965 C966 1.524 . S
C965 H968 0.999 . S
C966 H936 0.950 . S
C966 C965 1.524 . S
C966 C967 1.415 . S
C967 H937 0.950 . S
C967 C962 1.363 . S
C967 C966 1.415 . S
H968 C965 0.999 . S
H969 C950 0.913 . S
H970 C988 0.951 . S
H971 C990 0.951 . S
H972 C992 0.950 . S
H973 C993 0.950 . S
H974 C995 0.950 . S
H975 C998 0.950 . S
H976 C999 0.950 . S
H977 C1001 0.950 . S
H978 C1002 0.950 . S
H979 C1003 0.951 . S
H980 C1005 0.951 . S
H981 C1007 0.950 . S
H982 C1008 0.950 . S
H983 C1010 0.950 . S
H984 C1013 0.950 . S
H985 C1014 0.950 . S
H986 C1016 0.950 . S
H987 C1017 0.950 . S
C988 H970 0.951 . S
C988 C989 1.366 . S
C988 C990 1.388 . S
C989 C988 1.366 . S
C989 C993 1.385 . S
C990 H971 0.951 . S
C990 C988 1.388 . S
C990 C991 1.366 . S
C991 C990 1.366 . S
C991 C992 1.414 . S
C991 C994 1.499 . S
C992 H972 0.950 . S
C992 C991 1.414 . S
C992 C993 1.374 . S
C993 H973 0.950 . S
C993 C989 1.385 . S
C993 C992 1.374 . S
C994 C991 1.499 . S
C994 C995 1.373 . S
C994 C996 1.389 . S
C995 H974 0.950 . S
C995 C994 1.373 . S
C995 C1011 1.377 . S
C996 C994 1.389 . S
C996 C997 1.524 . S
C996 C1010 1.377 . S
C997 C996 1.524 . S
C997 C998 1.397 . S
C997 C1002 1.363 . S
C998 H975 0.950 . S
C998 C997 1.397 . S
C998 C999 1.334 . S
C999 H976 0.950 . S
C999 C998 1.334 . S
C999 C1000 1.287 . S
C1000 C999 1.287 . S
C1000 C1001 1.524 . S
C1000 H1019 0.913 . S
C1001 H977 0.950 . S
C1001 C1000 1.524 . S
C1001 C1002 1.415 . S
C1002 H978 0.950 . S
C1002 C997 1.363 . S
C1002 C1001 1.415 . S
C1003 H979 0.951 . S
C1003 C1004 1.366 . S
C1003 C1005 1.388 . S
C1004 C1003 1.366 . S
C1004 C1008 1.385 . S
C1005 H980 0.951 . S
C1005 C1003 1.388 . S
C1005 C1006 1.366 . S
C1006 C1005 1.366 . S
C1006 C1007 1.414 . S
C1006 C1009 1.499 . S
C1007 H981 0.950 . S
C1007 C1006 1.414 . S
C1007 C1008 1.374 . S
C1008 H982 0.950 . S
C1008 C1004 1.385 . S
C1008 C1007 1.374 . S
C1009 C1006 1.499 . S
C1009 C1010 1.373 . S
C1009 C1011 1.389 . S
C1010 H983 0.950 . S
C1010 C996 1.377 . S
C1010 C1009 1.373 . S
C1011 C995 1.377 . S
C1011 C1009 1.389 . S
C1011 C1012 1.524 . S
C1012 C1011 1.524 . S
C1012 C1013 1.397 . S
C1012 C1017 1.363 . S
C1013 H984 0.950 . S
C1013 C1012 1.397 . S
C1013 C1014 1.334 . S
C1014 H985 0.950 . S
C1014 C1013 1.334 . S
C1014 C1015 1.287 . S
C1015 C1014 1.287 . S
C1015 C1016 1.524 . S
C1015 H1018 0.999 . S
C1016 H986 0.950 . S
C1016 C1015 1.524 . S
C1016 C1017 1.415 . S
C1017 H987 0.950 . S
C1017 C1012 1.363 . S
C1017 C1016 1.415 . S
H1018 C1015 0.999 . S
H1019 C1000 0.913 . S
H1020 C1038 0.951 . S
H1021 C1040 0.951 . S
H1022 C1042 0.950 . S
H1023 C1043 0.950 . S
H1024 C1045 0.950 . S
H1025 C1048 0.950 . S
H1026 C1049 0.950 . S
H1027 C1051 0.950 . S
H1028 C1052 0.950 . S
H1029 C1053 0.951 . S
H1030 C1055 0.951 . S
H1031 C1057 0.950 . S
H1032 C1058 0.950 . S
H1033 C1060 0.950 . S
H1034 C1063 0.950 . S
H1035 C1064 0.950 . S
H1036 C1066 0.950 . S
H1037 C1067 0.950 . S
C1038 H1020 0.951 . S
C1038 C1039 1.366 . S
C1038 C1040 1.388 . S
C1039 C1038 1.366 . S
C1039 C1043 1.385 . S
C1040 H1021 0.951 . S
C1040 C1038 1.388 . S
C1040 C1041 1.366 . S
C1041 C1040 1.366 . S
C1041 C1042 1.414 . S
C1041 C1044 1.499 . S
C1042 H1022 0.950 . S
C1042 C1041 1.414 . S
C1042 C1043 1.374 . S
C1043 H1023 0.950 . S
C1043 C1039 1.385 . S
C1043 C1042 1.374 . S
C1044 C1041 1.499 . S
C1044 C1045 1.373 . S
C1044 C1046 1.389 . S
C1045 H1024 0.950 . S
C1045 C1044 1.373 . S
C1045 C1061 1.377 . S
C1046 C1044 1.389 . S
C1046 C1047 1.524 . S
C1046 C1060 1.377 . S
C1047 C1046 1.524 . S
C1047 C1048 1.397 . S
C1047 C1052 1.363 . S
C1048 H1025 0.950 . S
C1048 C1047 1.397 . S
C1048 C1049 1.334 . S
C1049 H1026 0.950 . S
C1049 C1048 1.334 . S
C1049 C1050 1.287 . S
C1050 C1049 1.287 . S
C1050 C1051 1.524 . S
C1050 H1069 0.913 . S
C1051 H1027 0.950 . S
C1051 C1050 1.524 . S
C1051 C1052 1.415 . S
C1052 H1028 0.950 . S
C1052 C1047 1.363 . S
C1052 C1051 1.415 . S
C1053 H1029 0.951 . S
C1053 C1054 1.366 . S
C1053 C1055 1.388 . S
C1054 C1053 1.366 . S
C1054 C1058 1.385 . S
C1055 H1030 0.951 . S
C1055 C1053 1.388 . S
C1055 C1056 1.366 . S
C1056 C1055 1.366 . S
C1056 C1057 1.414 . S
C1056 C1059 1.499 . S
C1057 H1031 0.950 . S
C1057 C1056 1.414 . S
C1057 C1058 1.374 . S
C1058 H1032 0.950 . S
C1058 C1054 1.385 . S
C1058 C1057 1.374 . S
C1059 C1056 1.499 . S
C1059 C1060 1.373 . S
C1059 C1061 1.389 . S
C1060 H1033 0.950 . S
C1060 C1046 1.377 . S
C1060 C1059 1.373 . S
C1061 C1045 1.377 . S
C1061 C1059 1.389 . S
C1061 C1062 1.524 . S
C1062 C1061 1.524 . S
C1062 C1063 1.397 . S
C1062 C1067 1.363 . S
C1063 H1034 0.950 . S
C1063 C1062 1.397 . S
C1063 C1064 1.334 . S
C1064 H1035 0.950 . S
C1064 C1063 1.334 . S
C1064 C1065 1.287 . S
C1065 C1064 1.287 . S
C1065 C1066 1.524 . S
C1065 H1068 0.999 . S
C1066 H1036 0.950 . S
C1066 C1065 1.524 . S
C1066 C1067 1.415 . S
C1067 H1037 0.950 . S
C1067 C1062 1.363 . S
C1067 C1066 1.415 . S
H1068 C1065 0.999 . S
H1069 C1050 0.913 . S
H1070 C1088 0.951 . S
H1071 C1090 0.951 . S
H1072 C1092 0.950 . S
H1073 C1093 0.950 . S
H1074 C1095 0.950 . S
H1075 C1098 0.950 . S
H1076 C1099 0.950 . S
H1077 C1101 0.950 . S
H1078 C1102 0.950 . S
H1079 C1103 0.951 . S
H1080 C1105 0.951 . S
H1081 C1107 0.950 . S
H1082 C1108 0.950 . S
H1083 C1110 0.950 . S
H1084 C1113 0.940 1_565 S
H1085 C1114 0.950 . S
H1086 C1116 0.950 . S
H1087 C1117 0.950 . S
C1088 H1070 0.951 . S
C1088 C1089 1.366 . S
C1088 C1090 1.388 . S
C1089 C1088 1.366 . S
C1089 C1093 1.385 . S
C1090 H1071 0.951 . S
C1090 C1088 1.388 . S
C1090 C1091 1.366 . S
C1091 C1090 1.366 . S
C1091 C1092 1.414 . S
C1091 C1094 1.499 . S
C1092 H1072 0.950 . S
C1092 C1091 1.414 . S
C1092 C1093 1.374 . S
C1093 H1073 0.950 . S
C1093 C1089 1.385 . S
C1093 C1092 1.374 . S
C1094 C1091 1.499 . S
C1094 C1095 1.373 . S
C1094 C1096 1.389 . S
C1095 H1074 0.950 . S
C1095 C1094 1.373 . S
C1095 C1111 1.377 . S
C1096 C1094 1.389 . S
C1096 C1097 1.524 . S
C1096 C1110 1.377 1_545 S
C1097 C1096 1.524 . S
C1097 C1098 1.397 . S
C1097 C1102 1.363 . S
C1098 H1075 0.950 . S
C1098 C1097 1.397 . S
C1098 C1099 1.334 . S
C1099 H1076 0.950 . S
C1099 C1098 1.334 . S
C1099 C1100 1.287 . S
C1100 C1099 1.287 . S
C1100 C1101 1.524 . S
C1100 H1119 0.913 . S
C1101 H1077 0.950 . S
C1101 C1100 1.524 . S
C1101 C1102 1.415 . S
C1102 H1078 0.950 . S
C1102 C1097 1.363 . S
C1102 C1101 1.415 . S
C1103 H1079 0.951 . S
C1103 C1104 1.366 . S
C1103 C1105 1.388 . S
C1104 C1103 1.366 . S
C1104 C1108 1.385 . S
C1105 H1080 0.951 . S
C1105 C1103 1.388 . S
C1105 C1106 1.366 . S
C1106 C1105 1.366 . S
C1106 C1107 1.414 . S
C1106 C1109 1.499 . S
C1107 H1081 0.950 . S
C1107 C1106 1.414 . S
C1107 C1108 1.374 . S
C1108 H1082 0.950 . S
C1108 C1104 1.385 . S
C1108 C1107 1.374 . S
C1109 C1106 1.499 . S
C1109 C1110 1.373 . S
C1109 C1111 1.389 1_565 S
C1110 H1083 0.950 . S
C1110 C1096 1.377 1_565 S
C1110 C1109 1.373 . S
C1111 C1095 1.377 . S
C1111 C1109 1.389 1_545 S
C1111 C1112 1.524 . S
C1112 C1111 1.524 . S
C1112 C1113 1.397 . S
C1112 C1117 1.363 . S
C1113 H1084 0.940 1_545 S
C1113 C1112 1.397 . S
C1113 C1114 1.343 1_545 S
C1114 H1085 0.950 . S
C1114 C1113 1.343 1_565 S
C1114 C1115 1.287 1_565 S
C1115 C1114 1.287 1_545 S
C1115 C1116 1.524 . S
C1115 H1118 0.999 . S
C1116 H1086 0.950 . S
C1116 C1115 1.524 . S
C1116 C1117 1.415 . S
C1117 H1087 0.950 . S
C1117 C1112 1.363 . S
C1117 C1116 1.415 . S
H1118 C1115 0.999 . S
H1119 C1100 0.913 . S
H1120 C1138 0.951 . S
H1121 C1140 0.951 . S
H1122 C1142 0.950 . S
H1123 C1143 0.950 . S
H1124 C1145 0.950 . S
H1125 C1148 0.950 . S
H1126 C1149 0.950 . S
H1127 C1151 0.950 . S
H1128 C1152 0.950 1_655 S
H1129 C1153 0.951 . S
H1130 C1155 0.951 . S
H1131 C1157 0.950 . S
H1132 C1158 0.950 . S
H1133 C1160 0.950 . S
H1134 C1163 0.950 . S
H1135 C1164 0.950 . S
H1136 C1166 0.950 1_455 S
H1137 C1167 0.950 . S
C1138 H1120 0.951 . S
C1138 C1139 1.366 . S
C1138 C1140 1.388 . S
C1139 C1138 1.366 . S
C1139 C1143 1.385 . S
C1140 H1121 0.951 . S
C1140 C1138 1.388 . S
C1140 C1141 1.366 . S
C1141 C1140 1.366 . S
C1141 C1142 1.414 . S
C1141 C1144 1.499 . S
C1142 H1122 0.950 . S
C1142 C1141 1.414 . S
C1142 C1143 1.374 . S
C1143 H1123 0.950 . S
C1143 C1139 1.385 . S
C1143 C1142 1.374 . S
C1144 C1141 1.499 . S
C1144 C1145 1.373 . S
C1144 C1146 1.389 . S
C1145 H1124 0.950 . S
C1145 C1144 1.373 . S
C1145 C1161 1.377 1_455 S
C1146 C1144 1.389 . S
C1146 C1147 1.524 . S
C1146 C1160 1.377 1_455 S
C1147 C1146 1.524 . S
C1147 C1148 1.397 . S
C1147 C1152 1.363 . S
C1148 H1125 0.950 . S
C1148 C1147 1.397 . S
C1148 C1149 1.334 . S
C1149 H1126 0.950 . S
C1149 C1148 1.334 . S
C1149 C1150 1.287 . S
C1150 C1149 1.287 . S
C1150 C1151 1.524 . S
C1150 H1169 0.913 . S
C1151 H1127 0.950 . S
C1151 C1150 1.524 . S
C1151 C1152 1.415 . S
C1152 H1128 0.950 1_455 S
C1152 C1147 1.363 . S
C1152 C1151 1.415 . S
C1153 H1129 0.951 . S
C1153 C1154 1.366 . S
C1153 C1155 1.388 . S
C1154 C1153 1.366 . S
C1154 C1158 1.385 . S
C1155 H1130 0.951 . S
C1155 C1153 1.388 . S
C1155 C1156 1.366 . S
C1156 C1155 1.366 . S
C1156 C1157 1.414 . S
C1156 C1159 1.499 . S
C1157 H1131 0.950 . S
C1157 C1156 1.414 . S
C1157 C1158 1.374 . S
C1158 H1132 0.950 . S
C1158 C1154 1.385 . S
C1158 C1157 1.374 . S
C1159 C1156 1.499 . S
C1159 C1160 1.373 . S
C1159 C1161 1.389 . S
C1160 H1133 0.950 . S
C1160 C1146 1.377 1_655 S
C1160 C1159 1.373 . S
C1161 C1145 1.377 1_655 S
C1161 C1159 1.389 . S
C1161 C1162 1.524 . S
C1162 C1161 1.524 . S
C1162 C1163 1.397 . S
C1162 C1167 1.363 1_655 S
C1163 H1134 0.950 . S
C1163 C1162 1.397 . S
C1163 C1164 1.334 . S
C1164 H1135 0.950 . S
C1164 C1163 1.334 . S
C1164 C1165 1.287 . S
C1165 C1164 1.287 . S
C1165 C1166 1.524 . S
C1165 H1168 0.999 . S
C1166 H1136 0.950 1_655 S
C1166 C1165 1.524 . S
C1166 C1167 1.415 1_655 S
C1167 H1137 0.950 . S
C1167 C1162 1.363 1_455 S
C1167 C1166 1.415 1_455 S
H1168 C1165 0.999 . S
H1169 C1150 0.913 . S
H1170 C1188 0.951 . S
H1171 C1190 0.951 . S
H1172 C1192 0.950 . S
H1173 C1193 0.950 . S
H1174 C1195 0.950 . S
H1175 C1198 0.950 . S
H1176 C1199 0.950 . S
H1177 C1201 0.950 . S
H1178 C1202 0.950 . S
H1179 C1203 0.951 . S
H1180 C1205 0.951 . S
H1181 C1207 0.950 . S
H1182 C1208 0.950 . S
H1183 C1210 0.950 . S
H1184 C1213 0.950 . S
H1185 C1214 0.950 . S
H1186 C1216 0.950 . S
H1187 C1217 0.950 . S
C1188 H1170 0.951 . S
C1188 C1189 1.366 . S
C1188 C1190 1.388 . S
C1189 C1188 1.366 . S
C1189 C1193 1.385 . S
C1190 H1171 0.951 . S
C1190 C1188 1.388 . S
C1190 C1191 1.366 . S
C1191 C1190 1.366 . S
C1191 C1192 1.414 . S
C1191 C1194 1.499 . S
C1192 H1172 0.950 . S
C1192 C1191 1.414 . S
C1192 C1193 1.374 . S
C1193 H1173 0.950 . S
C1193 C1189 1.385 . S
C1193 C1192 1.374 . S
C1194 C1191 1.499 . S
C1194 C1195 1.373 . S
C1194 C1196 1.389 . S
C1195 H1174 0.950 . S
C1195 C1194 1.373 . S
C1195 C1211 1.377 . S
C1196 C1194 1.389 . S
C1196 C1197 1.524 . S
C1196 C1210 1.377 . S
C1197 C1196 1.524 . S
C1197 C1198 1.397 . S
C1197 C1202 1.363 . S
C1198 H1175 0.950 . S
C1198 C1197 1.397 . S
C1198 C1199 1.334 . S
C1199 H1176 0.950 . S
C1199 C1198 1.334 . S
C1199 C1200 1.287 . S
C1200 C1199 1.287 . S
C1200 C1201 1.524 . S
C1200 H1219 0.913 . S
C1201 H1177 0.950 . S
C1201 C1200 1.524 . S
C1201 C1202 1.415 . S
C1202 H1178 0.950 . S
C1202 C1197 1.363 . S
C1202 C1201 1.415 . S
C1203 H1179 0.951 . S
C1203 C1204 1.366 . S
C1203 C1205 1.388 . S
C1204 C1203 1.366 . S
C1204 C1208 1.385 . S
C1205 H1180 0.951 . S
C1205 C1203 1.388 . S
C1205 C1206 1.366 . S
C1206 C1205 1.366 . S
C1206 C1207 1.414 . S
C1206 C1209 1.499 . S
C1207 H1181 0.950 . S
C1207 C1206 1.414 . S
C1207 C1208 1.374 . S
C1208 H1182 0.950 . S
C1208 C1204 1.385 . S
C1208 C1207 1.374 . S
C1209 C1206 1.499 . S
C1209 C1210 1.373 . S
C1209 C1211 1.389 . S
C1210 H1183 0.950 . S
C1210 C1196 1.377 . S
C1210 C1209 1.373 . S
C1211 C1195 1.377 . S
C1211 C1209 1.389 . S
C1211 C1212 1.524 . S
C1212 C1211 1.524 . S
C1212 C1213 1.397 . S
C1212 C1217 1.363 . S
C1213 H1184 0.950 . S
C1213 C1212 1.397 . S
C1213 C1214 1.334 . S
C1214 H1185 0.950 . S
C1214 C1213 1.334 . S
C1214 C1215 1.287 . S
C1215 C1214 1.287 . S
C1215 C1216 1.524 . S
C1215 H1218 0.999 . S
C1216 H1186 0.950 . S
C1216 C1215 1.524 . S
C1216 C1217 1.415 . S
C1217 H1187 0.950 . S
C1217 C1212 1.363 . S
C1217 C1216 1.415 . S
H1218 C1215 0.999 . S
H1219 C1200 0.913 . S
H1220 C1238 0.951 . S
H1221 C1240 0.951 . S
H1222 C1242 0.950 . S
H1223 C1243 0.950 . S
H1224 C1245 0.950 . S
H1225 C1248 0.950 . S
H1226 C1249 0.950 . S
H1227 C1251 0.950 . S
H1228 C1252 0.950 . S
H1229 C1253 0.951 . S
H1230 C1255 0.951 . S
H1231 C1257 0.950 . S
H1232 C1258 0.950 . S
H1233 C1260 0.950 . S
H1234 C1263 0.950 . S
H1235 C1264 0.950 . S
H1236 C1266 0.950 . S
H1237 C1267 0.950 . S
C1238 H1220 0.951 . S
C1238 C1239 1.366 . S
C1238 C1240 1.388 . S
C1239 C1238 1.366 . S
C1239 C1243 1.385 . S
C1240 H1221 0.951 . S
C1240 C1238 1.388 . S
C1240 C1241 1.366 . S
C1241 C1240 1.366 . S
C1241 C1242 1.414 . S
C1241 C1244 1.499 . S
C1242 H1222 0.950 . S
C1242 C1241 1.414 . S
C1242 C1243 1.374 . S
C1243 H1223 0.950 . S
C1243 C1239 1.385 . S
C1243 C1242 1.374 . S
C1244 C1241 1.499 . S
C1244 C1245 1.373 . S
C1244 C1246 1.389 . S
C1245 H1224 0.950 . S
C1245 C1244 1.373 . S
C1245 C1261 1.377 . S
C1246 C1244 1.389 . S
C1246 C1247 1.524 . S
C1246 C1260 1.377 . S
C1247 C1246 1.524 . S
C1247 C1248 1.397 . S
C1247 C1252 1.363 . S
C1248 H1225 0.950 . S
C1248 C1247 1.397 . S
C1248 C1249 1.334 . S
C1249 H1226 0.950 . S
C1249 C1248 1.334 . S
C1249 C1250 1.287 . S
C1250 C1249 1.287 . S
C1250 C1251 1.524 . S
C1250 H1269 0.913 . S
C1251 H1227 0.950 . S
C1251 C1250 1.524 . S
C1251 C1252 1.415 . S
C1252 H1228 0.950 . S
C1252 C1247 1.363 . S
C1252 C1251 1.415 . S
C1253 H1229 0.951 . S
C1253 C1254 1.366 . S
C1253 C1255 1.388 . S
C1254 C1253 1.366 . S
C1254 C1258 1.385 . S
C1255 H1230 0.951 . S
C1255 C1253 1.388 . S
C1255 C1256 1.366 . S
C1256 C1255 1.366 . S
C1256 C1257 1.414 . S
C1256 C1259 1.499 . S
C1257 H1231 0.950 . S
C1257 C1256 1.414 . S
C1257 C1258 1.374 . S
C1258 H1232 0.950 . S
C1258 C1254 1.385 . S
C1258 C1257 1.374 . S
C1259 C1256 1.499 . S
C1259 C1260 1.373 . S
C1259 C1261 1.389 . S
C1260 H1233 0.950 . S
C1260 C1246 1.377 . S
C1260 C1259 1.373 . S
C1261 C1245 1.377 . S
C1261 C1259 1.389 . S
C1261 C1262 1.524 . S
C1262 C1261 1.524 . S
C1262 C1263 1.397 . S
C1262 C1267 1.363 . S
C1263 H1234 0.950 . S
C1263 C1262 1.397 . S
C1263 C1264 1.334 . S
C1264 H1235 0.950 . S
C1264 C1263 1.334 . S
C1264 C1265 1.287 . S
C1265 C1264 1.287 . S
C1265 C1266 1.524 . S
C1265 H1268 0.999 . S
C1266 H1236 0.950 . S
C1266 C1265 1.524 . S
C1266 C1267 1.415 . S
C1267 H1237 0.950 . S
C1267 C1262 1.363 . S
C1267 C1266 1.415 . S
H1268 C1265 0.999 . S
H1269 C1250 0.913 . S
H1270 C1288 0.951 . S
H1271 C1290 0.951 . S
H1272 C1292 0.950 . S
H1273 C1293 0.950 . S
H1274 C1295 0.950 . S
H1275 C1298 0.950 . S
H1276 C1299 0.950 . S
H1277 C1301 0.950 . S
H1278 C1302 0.950 . S
H1279 C1303 0.951 . S
H1280 C1305 0.951 . S
H1281 C1307 0.950 . S
H1282 C1308 0.950 . S
H1283 C1310 0.950 . S
H1284 C1313 0.950 . S
H1285 C1314 0.950 . S
H1286 C1316 0.950 . S
H1287 C1317 0.950 . S
C1288 H1270 0.951 . S
C1288 C1289 1.366 . S
C1288 C1290 1.388 . S
C1289 C1288 1.366 . S
C1289 C1293 1.385 . S
C1290 H1271 0.951 . S
C1290 C1288 1.388 . S
C1290 C1291 1.366 . S
C1291 C1290 1.366 . S
C1291 C1292 1.414 . S
C1291 C1294 1.499 . S
C1292 H1272 0.950 . S
C1292 C1291 1.414 . S
C1292 C1293 1.374 . S
C1293 H1273 0.950 . S
C1293 C1289 1.385 . S
C1293 C1292 1.374 . S
C1294 C1291 1.499 . S
C1294 C1295 1.373 . S
C1294 C1296 1.389 . S
C1295 H1274 0.950 . S
C1295 C1294 1.373 . S
C1295 C1311 1.377 . S
C1296 C1294 1.389 . S
C1296 C1297 1.524 . S
C1296 C1310 1.377 . S
C1297 C1296 1.524 . S
C1297 C1298 1.397 . S
C1297 C1302 1.363 . S
C1298 H1275 0.950 . S
C1298 C1297 1.397 . S
C1298 C1299 1.334 . S
C1299 H1276 0.950 . S
C1299 C1298 1.334 . S
C1299 C1300 1.287 . S
C1300 C1299 1.287 . S
C1300 C1301 1.524 . S
C1300 H1319 0.913 . S
C1301 H1277 0.950 . S
C1301 C1300 1.524 . S
C1301 C1302 1.415 . S
C1302 H1278 0.950 . S
C1302 C1297 1.363 . S
C1302 C1301 1.415 . S
C1303 H1279 0.951 . S
C1303 C1304 1.366 . S
C1303 C1305 1.388 . S
C1304 C1303 1.366 . S
C1304 C1308 1.385 . S
C1305 H1280 0.951 . S
C1305 C1303 1.388 . S
C1305 C1306 1.366 . S
C1306 C1305 1.366 . S
C1306 C1307 1.414 . S
C1306 C1309 1.499 . S
C1307 H1281 0.950 . S
C1307 C1306 1.414 . S
C1307 C1308 1.374 . S
C1308 H1282 0.950 . S
C1308 C1304 1.385 . S
C1308 C1307 1.374 . S
C1309 C1306 1.499 . S
C1309 C1310 1.373 . S
C1309 C1311 1.389 . S
C1310 H1283 0.950 . S
C1310 C1296 1.377 . S
C1310 C1309 1.373 . S
C1311 C1295 1.377 . S
C1311 C1309 1.389 . S
C1311 C1312 1.524 . S
C1312 C1311 1.524 . S
C1312 C1313 1.397 . S
C1312 C1317 1.363 . S
C1313 H1284 0.950 . S
C1313 C1312 1.397 . S
C1313 C1314 1.334 . S
C1314 H1285 0.950 . S
C1314 C1313 1.334 . S
C1314 C1315 1.287 . S
C1315 C1314 1.287 . S
C1315 C1316 1.524 . S
C1315 H1318 0.999 . S
C1316 H1286 0.950 . S
C1316 C1315 1.524 . S
C1316 C1317 1.415 . S
C1317 H1287 0.950 . S
C1317 C1312 1.363 . S
C1317 C1316 1.415 . S
H1318 C1315 0.999 . S
H1319 C1300 0.913 . S
H1320 C1338 0.951 . S
H1321 C1340 0.951 . S
H1322 C1342 0.950 . S
H1323 C1343 0.950 . S
H1324 C1345 0.950 . S
H1325 C1348 0.950 . S
H1326 C1349 0.950 . S
H1327 C1351 0.950 . S
H1328 C1352 0.950 . S
H1329 C1353 0.951 . S
H1330 C1355 0.951 . S
H1331 C1357 0.950 . S
H1332 C1358 0.950 . S
H1333 C1360 0.950 . S
H1334 C1363 0.950 . S
H1335 C1364 0.950 . S
H1336 C1366 0.950 . S
H1337 C1367 0.950 . S
C1338 H1320 0.951 . S
C1338 C1339 1.366 . S
C1338 C1340 1.388 . S
C1339 C1338 1.366 . S
C1339 C1343 1.385 . S
C1340 H1321 0.951 . S
C1340 C1338 1.388 . S
C1340 C1341 1.366 . S
C1341 C1340 1.366 . S
C1341 C1342 1.414 . S
C1341 C1344 1.499 . S
C1342 H1322 0.950 . S
C1342 C1341 1.414 . S
C1342 C1343 1.374 . S
C1343 H1323 0.950 . S
C1343 C1339 1.385 . S
C1343 C1342 1.374 . S
C1344 C1341 1.499 . S
C1344 C1345 1.373 . S
C1344 C1346 1.389 . S
C1345 H1324 0.950 . S
C1345 C1344 1.373 . S
C1345 C1361 1.377 . S
C1346 C1344 1.389 . S
C1346 C1347 1.524 . S
C1346 C1360 1.377 . S
C1347 C1346 1.524 . S
C1347 C1348 1.397 . S
C1347 C1352 1.363 . S
C1348 H1325 0.950 . S
C1348 C1347 1.397 . S
C1348 C1349 1.334 . S
C1349 H1326 0.950 . S
C1349 C1348 1.334 . S
C1349 C1350 1.287 . S
C1350 C1349 1.287 . S
C1350 C1351 1.524 . S
C1350 H1369 0.913 . S
C1351 H1327 0.950 . S
C1351 C1350 1.524 . S
C1351 C1352 1.415 . S
C1352 H1328 0.950 . S
C1352 C1347 1.363 . S
C1352 C1351 1.415 . S
C1353 H1329 0.951 . S
C1353 C1354 1.366 . S
C1353 C1355 1.388 . S
C1354 C1353 1.366 . S
C1354 C1358 1.385 . S
C1355 H1330 0.951 . S
C1355 C1353 1.388 . S
C1355 C1356 1.366 . S
C1356 C1355 1.366 . S
C1356 C1357 1.414 . S
C1356 C1359 1.499 . S
C1357 H1331 0.950 . S
C1357 C1356 1.414 . S
C1357 C1358 1.374 . S
C1358 H1332 0.950 . S
C1358 C1354 1.385 . S
C1358 C1357 1.374 . S
C1359 C1356 1.499 . S
C1359 C1360 1.373 . S
C1359 C1361 1.389 . S
C1360 H1333 0.950 . S
C1360 C1346 1.377 . S
C1360 C1359 1.373 . S
C1361 C1345 1.377 . S
C1361 C1359 1.389 . S
C1361 C1362 1.524 . S
C1362 C1361 1.524 . S
C1362 C1363 1.397 . S
C1362 C1367 1.363 . S
C1363 H1334 0.950 . S
C1363 C1362 1.397 . S
C1363 C1364 1.334 . S
C1364 H1335 0.950 . S
C1364 C1363 1.334 . S
C1364 C1365 1.287 . S
C1365 C1364 1.287 . S
C1365 C1366 1.524 . S
C1365 H1368 0.999 . S
C1366 H1336 0.950 . S
C1366 C1365 1.524 . S
C1366 C1367 1.415 . S
C1367 H1337 0.950 . S
C1367 C1362 1.363 . S
C1367 C1366 1.415 . S
H1368 C1365 0.999 . S
H1369 C1350 0.913 . S
H1370 C1388 0.951 . S
H1371 C1390 0.951 . S
H1372 C1392 0.950 . S
H1373 C1393 0.950 . S
H1374 C1395 0.950 . S
H1375 C1398 0.950 . S
H1376 C1399 0.950 . S
H1377 C1401 0.950 . S
H1378 C1402 0.950 . S
H1379 C1403 0.951 . S
H1380 C1405 0.951 . S
H1381 C1407 0.950 . S
H1382 C1408 0.950 . S
H1383 C1410 0.950 . S
H1384 C1413 0.950 . S
H1385 C1414 0.950 . S
H1386 C1416 0.950 . S
H1387 C1417 0.950 . S
C1388 H1370 0.951 . S
C1388 C1389 1.366 . S
C1388 C1390 1.388 . S
C1389 C1388 1.366 . S
C1389 C1393 1.385 . S
C1390 H1371 0.951 . S
C1390 C1388 1.388 . S
C1390 C1391 1.366 . S
C1391 C1390 1.366 . S
C1391 C1392 1.414 . S
C1391 C1394 1.499 . S
C1392 H1372 0.950 . S
C1392 C1391 1.414 . S
C1392 C1393 1.374 . S
C1393 H1373 0.950 . S
C1393 C1389 1.385 . S
C1393 C1392 1.374 . S
C1394 C1391 1.499 . S
C1394 C1395 1.373 . S
C1394 C1396 1.389 . S
C1395 H1374 0.950 . S
C1395 C1394 1.373 . S
C1395 C1411 1.377 . S
C1396 C1394 1.389 . S
C1396 C1397 1.524 . S
C1396 C1410 1.377 . S
C1397 C1396 1.524 . S
C1397 C1398 1.397 . S
C1397 C1402 1.363 . S
C1398 H1375 0.950 . S
C1398 C1397 1.397 . S
C1398 C1399 1.334 . S
C1399 H1376 0.950 . S
C1399 C1398 1.334 . S
C1399 C1400 1.287 . S
C1400 C1399 1.287 . S
C1400 C1401 1.524 . S
C1400 H1419 0.913 . S
C1401 H1377 0.950 . S
C1401 C1400 1.524 . S
C1401 C1402 1.415 . S
C1402 H1378 0.950 . S
C1402 C1397 1.363 . S
C1402 C1401 1.415 . S
C1403 H1379 0.951 . S
C1403 C1404 1.366 . S
C1403 C1405 1.388 . S
C1404 C1403 1.366 . S
C1404 C1408 1.385 . S
C1405 H1380 0.951 . S
C1405 C1403 1.388 . S
C1405 C1406 1.366 . S
C1406 C1405 1.366 . S
C1406 C1407 1.414 . S
C1406 C1409 1.499 . S
C1407 H1381 0.950 . S
C1407 C1406 1.414 . S
C1407 C1408 1.374 . S
C1408 H1382 0.950 . S
C1408 C1404 1.385 . S
C1408 C1407 1.374 . S
C1409 C1406 1.499 . S
C1409 C1410 1.373 . S
C1409 C1411 1.389 . S
C1410 H1383 0.950 . S
C1410 C1396 1.377 . S
C1410 C1409 1.373 . S
C1411 C1395 1.377 . S
C1411 C1409 1.389 . S
C1411 C1412 1.524 . S
C1412 C1411 1.524 . S
C1412 C1413 1.397 . S
C1412 C1417 1.363 . S
C1413 H1384 0.950 . S
C1413 C1412 1.397 . S
C1413 C1414 1.334 . S
C1414 H1385 0.950 . S
C1414 C1413 1.334 . S
C1414 C1415 1.287 . S
C1415 C1414 1.287 . S
C1415 C1416 1.524 . S
C1415 H1418 0.999 . S
C1416 H1386 0.950 . S
C1416 C1415 1.524 . S
C1416 C1417 1.415 . S
C1417 H1387 0.950 . S
C1417 C1412 1.363 . S
C1417 C1416 1.415 . S
H1418 C1415 0.999 . S
H1419 C1400 0.913 . S
H1420 C1438 0.951 . S
H1421 C1440 0.951 . S
H1422 C1442 0.950 . S
H1423 C1443 0.950 . S
H1424 C1445 0.950 . S
H1425 C1448 0.950 . S
H1426 C1449 0.950 . S
H1427 C1451 0.950 . S
H1428 C1452 0.950 . S
H1429 C1453 0.951 . S
H1430 C1455 0.951 . S
H1431 C1457 0.950 . S
H1432 C1458 0.950 . S
H1433 C1460 0.950 . S
H1434 C1463 0.950 . S
H1435 C1464 0.950 . S
H1436 C1466 0.950 . S
H1437 C1467 0.950 . S
C1438 H1420 0.951 . S
C1438 C1439 1.366 . S
C1438 C1440 1.388 . S
C1439 C1438 1.366 . S
C1439 C1443 1.385 . S
C1440 H1421 0.951 . S
C1440 C1438 1.388 . S
C1440 C1441 1.366 . S
C1441 C1440 1.366 . S
C1441 C1442 1.414 . S
C1441 C1444 1.499 . S
C1442 H1422 0.950 . S
C1442 C1441 1.414 . S
C1442 C1443 1.374 . S
C1443 H1423 0.950 . S
C1443 C1439 1.385 . S
C1443 C1442 1.374 . S
C1444 C1441 1.499 . S
C1444 C1445 1.373 . S
C1444 C1446 1.389 . S
C1445 H1424 0.950 . S
C1445 C1444 1.373 . S
C1445 C1461 1.377 . S
C1446 C1444 1.389 . S
C1446 C1447 1.524 . S
C1446 C1460 1.377 . S
C1447 C1446 1.524 . S
C1447 C1448 1.397 . S
C1447 C1452 1.363 . S
C1448 H1425 0.950 . S
C1448 C1447 1.397 . S
C1448 C1449 1.334 . S
C1449 H1426 0.950 . S
C1449 C1448 1.334 . S
C1449 C1450 1.287 . S
C1450 C1449 1.287 . S
C1450 C1451 1.524 . S
C1450 H1469 0.913 . S
C1451 H1427 0.950 . S
C1451 C1450 1.524 . S
C1451 C1452 1.415 . S
C1452 H1428 0.950 . S
C1452 C1447 1.363 . S
C1452 C1451 1.415 . S
C1453 H1429 0.951 . S
C1453 C1454 1.366 . S
C1453 C1455 1.388 . S
C1454 C1453 1.366 . S
C1454 C1458 1.385 . S
C1455 H1430 0.951 . S
C1455 C1453 1.388 . S
C1455 C1456 1.366 . S
C1456 C1455 1.366 . S
C1456 C1457 1.414 . S
C1456 C1459 1.499 . S
C1457 H1431 0.950 . S
C1457 C1456 1.414 . S
C1457 C1458 1.374 . S
C1458 H1432 0.950 . S
C1458 C1454 1.385 . S
C1458 C1457 1.374 . S
C1459 C1456 1.499 . S
C1459 C1460 1.373 . S
C1459 C1461 1.389 . S
C1460 H1433 0.950 . S
C1460 C1446 1.377 . S
C1460 C1459 1.373 . S
C1461 C1445 1.377 . S
C1461 C1459 1.389 . S
C1461 C1462 1.524 . S
C1462 C1461 1.524 . S
C1462 C1463 1.397 . S
C1462 C1467 1.363 . S
C1463 H1434 0.950 . S
C1463 C1462 1.397 . S
C1463 C1464 1.334 . S
C1464 H1435 0.950 . S
C1464 C1463 1.334 . S
C1464 C1465 1.287 . S
C1465 C1464 1.287 . S
C1465 C1466 1.524 . S
C1465 H1468 0.999 . S
C1466 H1436 0.950 . S
C1466 C1465 1.524 . S
C1466 C1467 1.415 . S
C1467 H1437 0.950 . S
C1467 C1462 1.363 . S
C1467 C1466 1.415 . S
H1468 C1465 0.999 . S
H1469 C1450 0.913 . S
H1470 C1488 0.951 . S
H1471 C1490 0.951 . S
H1472 C1492 0.950 . S
H1473 C1493 0.950 . S
H1474 C1495 0.950 . S
H1475 C1498 0.950 . S
H1476 C1499 0.950 . S
H1477 C1501 0.950 . S
H1478 C1502 0.950 . S
H1479 C1503 0.951 . S
H1480 C1505 0.951 . S
H1481 C1507 0.950 . S
H1482 C1508 0.950 . S
H1483 C1510 0.950 . S
H1484 C1513 0.950 . S
H1485 C1514 0.950 . S
H1486 C1516 0.950 . S
H1487 C1517 0.950 . S
C1488 H1470 0.951 . S
C1488 C1489 1.366 . S
C1488 C1490 1.388 . S
C1489 C1488 1.366 . S
C1489 C1493 1.385 . S
C1490 H1471 0.951 . S
C1490 C1488 1.388 . S
C1490 C1491 1.366 . S
C1491 C1490 1.366 . S
C1491 C1492 1.414 . S
C1491 C1494 1.499 . S
C1492 H1472 0.950 . S
C1492 C1491 1.414 . S
C1492 C1493 1.374 . S
C1493 H1473 0.950 . S
C1493 C1489 1.385 . S
C1493 C1492 1.374 . S
C1494 C1491 1.499 . S
C1494 C1495 1.373 . S
C1494 C1496 1.389 . S
C1495 H1474 0.950 . S
C1495 C1494 1.373 . S
C1495 C1511 1.377 . S
C1496 C1494 1.389 . S
C1496 C1497 1.524 . S
C1496 C1510 1.377 . S
C1497 C1496 1.524 . S
C1497 C1498 1.397 . S
C1497 C1502 1.363 . S
C1498 H1475 0.950 . S
C1498 C1497 1.397 . S
C1498 C1499 1.334 . S
C1499 H1476 0.950 . S
C1499 C1498 1.334 . S
C1499 C1500 1.287 . S
C1500 C1499 1.287 . S
C1500 C1501 1.524 . S
C1500 H1519 0.913 . S
C1501 H1477 0.950 . S
C1501 C1500 1.524 . S
C1501 C1502 1.415 . S
C1502 H1478 0.950 . S
C1502 C1497 1.363 . S
C1502 C1501 1.415 . S
C1503 H1479 0.951 . S
C1503 C1504 1.366 . S
C1503 C1505 1.388 . S
C1504 C1503 1.366 . S
C1504 C1508 1.385 . S
C1505 H1480 0.951 . S
C1505 C1503 1.388 . S
C1505 C1506 1.366 . S
C1506 C1505 1.366 . S
C1506 C1507 1.414 . S
C1506 C1509 1.499 . S
C1507 H1481 0.950 . S
C1507 C1506 1.414 . S
C1507 C1508 1.374 . S
C1508 H1482 0.950 . S
C1508 C1504 1.385 . S
C1508 C1507 1.374 . S
C1509 C1506 1.499 . S
C1509 C1510 1.373 . S
C1509 C1511 1.389 . S
C1510 H1483 0.950 . S
C1510 C1496 1.377 . S
C1510 C1509 1.373 . S
C1511 C1495 1.377 . S
C1511 C1509 1.389 . S
C1511 C1512 1.524 . S
C1512 C1511 1.524 . S
C1512 C1513 1.397 . S
C1512 C1517 1.363 . S
C1513 H1484 0.950 . S
C1513 C1512 1.397 . S
C1513 C1514 1.334 . S
C1514 H1485 0.950 . S
C1514 C1513 1.334 . S
C1514 C1515 1.287 . S
C1515 C1514 1.287 . S
C1515 C1516 1.524 . S
C1515 H1518 0.999 . S
C1516 H1486 0.950 . S
C1516 C1515 1.524 . S
C1516 C1517 1.415 . S
C1517 H1487 0.950 . S
C1517 C1512 1.363 . S
C1517 C1516 1.415 . S
H1518 C1515 0.999 . S
H1519 C1500 0.913 . S
H1520 C1538 0.951 . S
H1521 C1540 0.951 . S
H1522 C1542 0.950 . S
H1523 C1543 0.950 . S
H1524 C1545 0.938 1_565 S
H1525 C1548 0.950 . S
H1526 C1549 0.950 . S
H1527 C1551 0.950 . S
H1528 C1552 0.950 . S
H1529 C1553 0.951 . S
H1530 C1555 0.951 . S
H1531 C1557 0.950 . S
H1532 C1558 0.950 . S
H1533 C1560 0.950 . S
H1534 C1563 0.950 . S
H1535 C1564 0.950 . S
H1536 C1566 0.950 . S
H1537 C1567 0.950 . S
C1538 H1520 0.951 . S
C1538 C1539 1.366 . S
C1538 C1540 1.388 . S
C1539 C1538 1.366 . S
C1539 C1543 1.385 . S
C1540 H1521 0.951 . S
C1540 C1538 1.388 . S
C1540 C1541 1.366 . S
C1541 C1540 1.366 . S
C1541 C1542 1.414 . S
C1541 C1544 1.499 . S
C1542 H1522 0.950 . S
C1542 C1541 1.414 . S
C1542 C1543 1.374 . S
C1543 H1523 0.950 . S
C1543 C1539 1.385 . S
C1543 C1542 1.374 . S
C1544 C1541 1.499 . S
C1544 C1545 1.364 1_565 S
C1544 C1546 1.389 . S
C1545 H1524 0.938 1_545 S
C1545 C1544 1.364 1_545 S
C1545 C1561 1.399 . S
C1546 C1544 1.389 . S
C1546 C1547 1.524 . S
C1546 C1560 1.377 1_565 S
C1547 C1546 1.524 . S
C1547 C1548 1.397 . S
C1547 C1552 1.363 . S
C1548 H1525 0.950 . S
C1548 C1547 1.397 . S
C1548 C1549 1.334 . S
C1549 H1526 0.950 . S
C1549 C1548 1.334 . S
C1549 C1550 1.287 . S
C1550 C1549 1.287 . S
C1550 C1551 1.524 . S
C1550 H1569 0.913 . S
C1551 H1527 0.950 . S
C1551 C1550 1.524 . S
C1551 C1552 1.415 . S
C1552 H1528 0.950 . S
C1552 C1547 1.363 . S
C1552 C1551 1.415 . S
C1553 H1529 0.951 . S
C1553 C1554 1.366 . S
C1553 C1555 1.388 . S
C1554 C1553 1.366 . S
C1554 C1558 1.385 . S
C1555 H1530 0.951 . S
C1555 C1553 1.388 . S
C1555 C1556 1.366 . S
C1556 C1555 1.366 . S
C1556 C1557 1.414 . S
C1556 C1559 1.499 . S
C1557 H1531 0.950 . S
C1557 C1556 1.414 . S
C1557 C1558 1.374 . S
C1558 H1532 0.950 . S
C1558 C1554 1.385 . S
C1558 C1557 1.374 . S
C1559 C1556 1.499 . S
C1559 C1560 1.373 . S
C1559 C1561 1.389 . S
C1560 H1533 0.950 . S
C1560 C1546 1.377 1_545 S
C1560 C1559 1.373 . S
C1561 C1545 1.399 . S
C1561 C1559 1.389 . S
C1561 C1562 1.524 . S
C1562 C1561 1.524 . S
C1562 C1563 1.397 . S
C1562 C1567 1.363 . S
C1563 H1534 0.950 . S
C1563 C1562 1.397 . S
C1563 C1564 1.334 . S
C1564 H1535 0.950 . S
C1564 C1563 1.334 . S
C1564 C1565 1.287 . S
C1565 C1564 1.287 . S
C1565 C1566 1.524 . S
C1565 H1568 0.999 . S
C1566 H1536 0.950 . S
C1566 C1565 1.524 . S
C1566 C1567 1.415 . S
C1567 H1537 0.950 . S
C1567 C1562 1.363 . S
C1567 C1566 1.415 . S
H1568 C1565 0.999 . S
H1569 C1550 0.913 . S
H1570 C1588 0.951 . S
H1571 C1590 0.951 . S
H1572 C1592 0.950 . S
H1573 C1593 0.950 . S
H1574 C1595 0.950 . S
H1575 C1598 0.950 . S
H1576 C1599 0.950 . S
H1577 C1601 0.950 . S
H1578 C1602 0.950 . S
H1579 C1603 0.951 . S
H1580 C1605 0.951 . S
H1581 C1607 0.950 . S
H1582 C1608 0.950 . S
H1583 C1610 0.950 . S
H1584 C1613 0.950 . S
H1585 C1614 0.950 . S
H1586 C1616 0.950 . S
H1587 C1617 0.950 . S
C1588 H1570 0.951 . S
C1588 C1589 1.366 . S
C1588 C1590 1.388 . S
C1589 C1588 1.366 . S
C1589 C1593 1.385 . S
C1590 H1571 0.951 . S
C1590 C1588 1.388 . S
C1590 C1591 1.366 . S
C1591 C1590 1.366 . S
C1591 C1592 1.414 . S
C1591 C1594 1.499 . S
C1592 H1572 0.950 . S
C1592 C1591 1.414 . S
C1592 C1593 1.374 . S
C1593 H1573 0.950 . S
C1593 C1589 1.385 . S
C1593 C1592 1.374 . S
C1594 C1591 1.499 . S
C1594 C1595 1.373 . S
C1594 C1596 1.389 . S
C1595 H1574 0.950 . S
C1595 C1594 1.373 . S
C1595 C1611 1.377 1_455 S
C1596 C1594 1.389 . S
C1596 C1597 1.524 . S
C1596 C1610 1.377 . S
C1597 C1596 1.524 . S
C1597 C1598 1.397 . S
C1597 C1602 1.363 . S
C1598 H1575 0.950 . S
C1598 C1597 1.397 . S
C1598 C1599 1.334 . S
C1599 H1576 0.950 . S
C1599 C1598 1.334 . S
C1599 C1600 1.287 . S
C1600 C1599 1.287 . S
C1600 C1601 1.524 . S
C1600 H1619 0.913 . S
C1601 H1577 0.950 . S
C1601 C1600 1.524 . S
C1601 C1602 1.415 . S
C1602 H1578 0.950 . S
C1602 C1597 1.363 . S
C1602 C1601 1.415 . S
C1603 H1579 0.951 . S
C1603 C1604 1.366 . S
C1603 C1605 1.388 . S
C1604 C1603 1.366 . S
C1604 C1608 1.385 . S
C1605 H1580 0.951 . S
C1605 C1603 1.388 . S
C1605 C1606 1.366 . S
C1606 C1605 1.366 . S
C1606 C1607 1.414 . S
C1606 C1609 1.499 . S
C1607 H1581 0.950 . S
C1607 C1606 1.414 . S
C1607 C1608 1.374 . S
C1608 H1582 0.950 . S
C1608 C1604 1.385 . S
C1608 C1607 1.374 . S
C1609 C1606 1.499 . S
C1609 C1610 1.373 1_655 S
C1609 C1611 1.389 . S
C1610 H1583 0.950 . S
C1610 C1596 1.377 . S
C1610 C1609 1.373 1_455 S
C1611 C1595 1.377 1_655 S
C1611 C1609 1.389 . S
C1611 C1612 1.524 . S
C1612 C1611 1.524 . S
C1612 C1613 1.397 . S
C1612 C1617 1.363 . S
C1613 H1584 0.950 . S
C1613 C1612 1.397 . S
C1613 C1614 1.334 . S
C1614 H1585 0.950 . S
C1614 C1613 1.334 . S
C1614 C1615 1.287 . S
C1615 C1614 1.287 . S
C1615 C1616 1.524 . S
C1615 H1618 0.999 . S
C1616 H1586 0.950 . S
C1616 C1615 1.524 . S
C1616 C1617 1.415 . S
C1617 H1587 0.950 . S
C1617 C1612 1.363 . S
C1617 C1616 1.415 . S
H1618 C1615 0.999 . S
H1619 C1600 0.913 . S
H1620 C1638 0.951 . S
H1621 C1640 0.951 . S
H1622 C1642 0.950 . S
H1623 C1643 0.950 . S
H1624 C1645 0.950 . S
H1625 C1648 0.992 . S
H1626 C1649 0.950 1_545 S
H1627 C1651 0.950 . S
H1628 C1652 0.950 . S
H1629 C1653 0.951 . S
H1630 C1655 0.951 . S
H1631 C1657 0.950 . S
H1632 C1658 0.950 . S
H1633 C1660 0.950 . S
H1634 C1663 0.950 . S
H1635 C1664 0.950 . S
H1636 C1666 0.950 . S
H1637 C1667 0.950 . S
C1638 H1620 0.951 . S
C1638 C1639 1.366 1_565 S
C1638 C1640 1.388 . S
C1639 C1638 1.366 1_545 S
C1639 C1643 1.385 . S
C1640 H1621 0.951 . S
C1640 C1638 1.388 . S
C1640 C1641 1.366 1_565 S
C1641 C1640 1.366 1_545 S
C1641 C1642 1.414 . S
C1641 C1644 1.499 . S
C1642 H1622 0.950 . S
C1642 C1641 1.414 . S
C1642 C1643 1.374 . S
C1643 H1623 0.950 . S
C1643 C1639 1.385 . S
C1643 C1642 1.374 . S
C1644 C1641 1.499 . S
C1644 C1645 1.373 . S
C1644 C1646 1.389 1_545 S
C1645 H1624 0.950 . S
C1645 C1644 1.373 . S
C1645 C1661 1.377 1_554 S
C1646 C1644 1.389 1_565 S
C1646 C1647 1.524 . S
C1646 C1660 1.377 1_554 S
C1647 C1646 1.524 . S
C1647 C1648 1.388 1_565 S
C1647 C1652 1.363 . S
C1648 H1625 0.992 . S
C1648 C1647 1.388 1_545 S
C1648 C1649 1.302 1_545 S
C1649 H1626 0.950 1_565 S
C1649 C1648 1.302 1_565 S
C1649 C1650 1.287 . S
C1650 C1649 1.287 . S
C1650 C1651 1.524 . S
C1650 H1669 0.913 . S
C1651 H1627 0.950 . S
C1651 C1650 1.524 . S
C1651 C1652 1.415 . S
C1652 H1628 0.950 . S
C1652 C1647 1.363 . S
C1652 C1651 1.415 . S
C1653 H1629 0.951 . S
C1653 C1654 1.366 . S
C1653 C1655 1.388 . S
C1654 C1653 1.366 . S
C1654 C1658 1.385 1_545 S
C1655 H1630 0.951 . S
C1655 C1653 1.388 . S
C1655 C1656 1.366 . S
C1656 C1655 1.366 . S
C1656 C1657 1.414 1_545 S
C1656 C1659 1.499 . S
C1657 H1631 0.950 . S
C1657 C1656 1.414 1_565 S
C1657 C1658 1.374 . S
C1658 H1632 0.950 . S
C1658 C1654 1.385 1_565 S
C1658 C1657 1.374 . S
C1659 C1656 1.499 . S
C1659 C1660 1.373 1_545 S
C1659 C1661 1.389 . S
C1660 H1633 0.950 . S
C1660 C1646 1.377 1_556 S
C1660 C1659 1.373 1_565 S
C1661 C1645 1.377 1_556 S
C1661 C1659 1.389 . S
C1661 C1662 1.524 . S
C1662 C1661 1.524 . S
C1662 C1663 1.397 . S
C1662 C1667 1.363 . S
C1663 H1634 0.950 . S
C1663 C1662 1.397 . S
C1663 C1664 1.334 . S
C1664 H1635 0.950 . S
C1664 C1663 1.334 . S
C1664 C1665 1.287 . S
C1665 C1664 1.287 . S
C1665 C1666 1.524 . S
C1665 H1668 0.999 . S
C1666 H1636 0.950 . S
C1666 C1665 1.524 . S
C1666 C1667 1.415 . S
C1667 H1637 0.950 . S
C1667 C1662 1.363 . S
C1667 C1666 1.415 . S
H1668 C1665 0.999 . S
H1669 C1650 0.913 . S
H1670 C1688 0.951 . S
H1671 C1690 0.951 . S
H1672 C1692 0.950 . S
H1673 C1693 0.950 . S
H1674 C1695 0.950 . S
H1675 C1698 0.950 1_455 S
H1676 C1699 0.950 . S
H1677 C1701 0.950 . S
H1678 C1702 0.950 . S
H1679 C1703 0.951 . S
H1680 C1705 0.951 . S
H1681 C1707 0.950 . S
H1682 C1708 0.950 . S
H1683 C1710 0.950 . S
H1684 C1713 0.950 . S
H1685 C1714 0.950 . S
H1686 C1716 0.950 . S
H1687 C1717 0.950 . S
C1688 H1670 0.951 . S
C1688 C1689 1.366 1_655 S
C1688 C1690 1.388 . S
C1689 C1688 1.366 1_455 S
C1689 C1693 1.385 . S
C1690 H1671 0.951 . S
C1690 C1688 1.388 . S
C1690 C1691 1.366 1_655 S
C1691 C1690 1.366 1_455 S
C1691 C1692 1.414 . S
C1691 C1694 1.499 . S
C1692 H1672 0.950 . S
C1692 C1691 1.414 . S
C1692 C1693 1.374 . S
C1693 H1673 0.950 . S
C1693 C1689 1.385 . S
C1693 C1692 1.374 . S
C1694 C1691 1.499 . S
C1694 C1695 1.373 . S
C1694 C1696 1.389 1_455 S
C1695 H1674 0.950 . S
C1695 C1694 1.373 . S
C1695 C1711 1.377 1_556 S
C1696 C1694 1.389 1_655 S
C1696 C1697 1.524 . S
C1696 C1710 1.377 1_556 S
C1697 C1696 1.524 . S
C1697 C1698 1.397 . S
C1697 C1702 1.363 . S
C1698 H1675 0.950 1_655 S
C1698 C1697 1.397 . S
C1698 C1699 1.334 . S
C1699 H1676 0.950 . S
C1699 C1698 1.334 . S
C1699 C1700 1.287 . S
C1700 C1699 1.287 . S
C1700 C1701 1.524 . S
C1700 H1719 0.913 . S
C1701 H1677 0.950 . S
C1701 C1700 1.524 . S
C1701 C1702 1.415 . S
C1702 H1678 0.950 . S
C1702 C1697 1.363 . S
C1702 C1701 1.415 . S
C1703 H1679 0.951 . S
C1703 C1704 1.366 . S
C1703 C1705 1.388 . S
C1704 C1703 1.366 . S
C1704 C1708 1.385 1_455 S
C1705 H1680 0.951 . S
C1705 C1703 1.388 . S
C1705 C1706 1.366 . S
C1706 C1705 1.366 . S
C1706 C1707 1.414 1_455 S
C1706 C1709 1.499 . S
C1707 H1681 0.950 . S
C1707 C1706 1.414 1_655 S
C1707 C1708 1.374 . S
C1708 H1682 0.950 . S
C1708 C1704 1.385 1_655 S
C1708 C1707 1.374 . S
C1709 C1706 1.499 . S
C1709 C1710 1.373 1_455 S
C1709 C1711 1.389 . S
C1710 H1683 0.950 . S
C1710 C1696 1.377 1_554 S
C1710 C1709 1.373 1_655 S
C1711 C1695 1.377 1_554 S
C1711 C1709 1.389 . S
C1711 C1712 1.524 . S
C1712 C1711 1.524 . S
C1712 C1713 1.397 . S
C1712 C1717 1.363 . S
C1713 H1684 0.950 . S
C1713 C1712 1.397 . S
C1713 C1714 1.334 . S
C1714 H1685 0.950 . S
C1714 C1713 1.334 . S
C1714 C1715 1.287 . S
C1715 C1714 1.287 . S
C1715 C1716 1.524 . S
C1715 H1718 0.999 . S
C1716 H1686 0.950 . S
C1716 C1715 1.524 . S
C1716 C1717 1.415 . S
C1717 H1687 0.950 . S
C1717 C1712 1.363 . S
C1717 C1716 1.415 . S
H1718 C1715 0.999 . S
H1719 C1700 0.913 . S
H1720 C1738 0.951 . S
H1721 C1740 0.951 . S
H1722 C1742 0.950 . S
H1723 C1743 0.950 . S
H1724 C1745 0.950 . S
H1725 C1748 0.950 . S
H1726 C1749 0.950 . S
H1727 C1751 0.950 . S
H1728 C1752 0.950 . S
H1729 C1753 0.951 . S
H1730 C1755 0.951 . S
H1731 C1757 0.950 . S
H1732 C1758 0.950 . S
H1733 C1760 0.950 . S
H1734 C1763 0.950 . S
H1735 C1764 0.950 . S
H1736 C1766 0.950 . S
H1737 C1767 0.950 . S
C1738 H1720 0.951 . S
C1738 C1739 1.366 . S
C1738 C1740 1.388 . S
C1739 C1738 1.366 . S
C1739 C1743 1.385 . S
C1740 H1721 0.951 . S
C1740 C1738 1.388 . S
C1740 C1741 1.366 . S
C1741 C1740 1.366 . S
C1741 C1742 1.414 . S
C1741 C1744 1.499 . S
C1742 H1722 0.950 . S
C1742 C1741 1.414 . S
C1742 C1743 1.374 . S
C1743 H1723 0.950 . S
C1743 C1739 1.385 . S
C1743 C1742 1.374 . S
C1744 C1741 1.499 . S
C1744 C1745 1.373 . S
C1744 C1746 1.389 . S
C1745 H1724 0.950 . S
C1745 C1744 1.373 . S
C1745 C1761 1.377 1_556 S
C1746 C1744 1.389 . S
C1746 C1747 1.524 . S
C1746 C1760 1.377 1_556 S
C1747 C1746 1.524 . S
C1747 C1748 1.397 . S
C1747 C1752 1.363 . S
C1748 H1725 0.950 . S
C1748 C1747 1.397 . S
C1748 C1749 1.334 . S
C1749 H1726 0.950 . S
C1749 C1748 1.334 . S
C1749 C1750 1.287 . S
C1750 C1749 1.287 . S
C1750 C1751 1.524 . S
C1750 H1769 0.913 . S
C1751 H1727 0.950 . S
C1751 C1750 1.524 . S
C1751 C1752 1.415 . S
C1752 H1728 0.950 . S
C1752 C1747 1.363 . S
C1752 C1751 1.415 . S
C1753 H1729 0.951 . S
C1753 C1754 1.366 . S
C1753 C1755 1.388 . S
C1754 C1753 1.366 . S
C1754 C1758 1.385 . S
C1755 H1730 0.951 . S
C1755 C1753 1.388 . S
C1755 C1756 1.366 . S
C1756 C1755 1.366 . S
C1756 C1757 1.414 . S
C1756 C1759 1.499 . S
C1757 H1731 0.950 . S
C1757 C1756 1.414 . S
C1757 C1758 1.374 . S
C1758 H1732 0.950 . S
C1758 C1754 1.385 . S
C1758 C1757 1.374 . S
C1759 C1756 1.499 . S
C1759 C1760 1.373 . S
C1759 C1761 1.389 . S
C1760 H1733 0.950 . S
C1760 C1746 1.377 1_554 S
C1760 C1759 1.373 . S
C1761 C1745 1.377 1_554 S
C1761 C1759 1.389 . S
C1761 C1762 1.524 . S
C1762 C1761 1.524 . S
C1762 C1763 1.397 . S
C1762 C1767 1.363 . S
C1763 H1734 0.950 . S
C1763 C1762 1.397 . S
C1763 C1764 1.334 . S
C1764 H1735 0.950 . S
C1764 C1763 1.334 . S
C1764 C1765 1.287 . S
C1765 C1764 1.287 . S
C1765 C1766 1.524 . S
C1765 H1768 0.999 . S
C1766 H1736 0.950 . S
C1766 C1765 1.524 . S
C1766 C1767 1.415 . S
C1767 H1737 0.950 . S
C1767 C1762 1.363 . S
C1767 C1766 1.415 . S
H1768 C1765 0.999 . S
H1769 C1750 0.913 . S
H1770 C1788 0.951 . S
H1771 C1790 0.951 . S
H1772 C1792 0.950 . S
H1773 C1793 0.950 . S
H1774 C1795 0.950 . S
H1775 C1798 0.950 . S
H1776 C1799 0.950 . S
H1777 C1801 0.950 . S
H1778 C1802 0.950 . S
H1779 C1803 0.951 . S
H1780 C1805 0.951 . S
H1781 C1807 0.950 . S
H1782 C1808 0.950 . S
H1783 C1810 0.950 . S
H1784 C1813 0.950 . S
H1785 C1814 0.950 . S
H1786 C1816 0.950 . S
H1787 C1817 0.950 . S
C1788 H1770 0.951 . S
C1788 C1789 1.366 . S
C1788 C1790 1.388 . S
C1789 C1788 1.366 . S
C1789 C1793 1.385 . S
C1790 H1771 0.951 . S
C1790 C1788 1.388 . S
C1790 C1791 1.366 . S
C1791 C1790 1.366 . S
C1791 C1792 1.414 . S
C1791 C1794 1.499 . S
C1792 H1772 0.950 . S
C1792 C1791 1.414 . S
C1792 C1793 1.374 . S
C1793 H1773 0.950 . S
C1793 C1789 1.385 . S
C1793 C1792 1.374 . S
C1794 C1791 1.499 . S
C1794 C1795 1.373 . S
C1794 C1796 1.389 . S
C1795 H1774 0.950 . S
C1795 C1794 1.373 . S
C1795 C1811 1.377 . S
C1796 C1794 1.389 . S
C1796 C1797 1.524 . S
C1796 C1810 1.377 . S
C1797 C1796 1.524 . S
C1797 C1798 1.397 . S
C1797 C1802 1.363 . S
C1798 H1775 0.950 . S
C1798 C1797 1.397 . S
C1798 C1799 1.334 . S
C1799 H1776 0.950 . S
C1799 C1798 1.334 . S
C1799 C1800 1.287 . S
C1800 C1799 1.287 . S
C1800 C1801 1.524 . S
C1800 H1819 0.913 . S
C1801 H1777 0.950 . S
C1801 C1800 1.524 . S
C1801 C1802 1.415 . S
C1802 H1778 0.950 . S
C1802 C1797 1.363 . S
C1802 C1801 1.415 . S
C1803 H1779 0.951 . S
C1803 C1804 1.366 . S
C1803 C1805 1.388 . S
C1804 C1803 1.366 . S
C1804 C1808 1.385 . S
C1805 H1780 0.951 . S
C1805 C1803 1.388 . S
C1805 C1806 1.366 . S
C1806 C1805 1.366 . S
C1806 C1807 1.414 . S
C1806 C1809 1.499 . S
C1807 H1781 0.950 . S
C1807 C1806 1.414 . S
C1807 C1808 1.374 . S
C1808 H1782 0.950 . S
C1808 C1804 1.385 . S
C1808 C1807 1.374 . S
C1809 C1806 1.499 . S
C1809 C1810 1.373 . S
C1809 C1811 1.389 . S
C1810 H1783 0.950 . S
C1810 C1796 1.377 . S
C1810 C1809 1.373 . S
C1811 C1795 1.377 . S
C1811 C1809 1.389 . S
C1811 C1812 1.524 . S
C1812 C1811 1.524 . S
C1812 C1813 1.397 . S
C1812 C1817 1.363 . S
C1813 H1784 0.950 . S
C1813 C1812 1.397 . S
C1813 C1814 1.334 . S
C1814 H1785 0.950 . S
C1814 C1813 1.334 . S
C1814 C1815 1.287 . S
C1815 C1814 1.287 . S
C1815 C1816 1.524 . S
C1815 H1818 0.999 . S
C1816 H1786 0.950 . S
C1816 C1815 1.524 . S
C1816 C1817 1.415 . S
C1817 H1787 0.950 . S
C1817 C1812 1.363 . S
C1817 C1816 1.415 . S
H1818 C1815 0.999 . S
H1819 C1800 0.913 . S
H1820 C1838 0.951 . S
H1821 C1840 0.951 . S
H1822 C1842 0.950 . S
H1823 C1843 0.950 . S
H1824 C1845 0.950 . S
H1825 C1848 0.950 . S
H1826 C1849 0.950 . S
H1827 C1851 0.950 . S
H1828 C1852 0.950 . S
H1829 C1853 0.951 . S
H1830 C1855 0.951 . S
H1831 C1857 0.950 . S
H1832 C1858 0.950 . S
H1833 C1860 0.950 . S
H1834 C1863 0.950 . S
H1835 C1864 0.950 . S
H1836 C1866 0.950 . S
H1837 C1867 0.950 . S
C1838 H1820 0.951 . S
C1838 C1839 1.366 . S
C1838 C1840 1.388 . S
C1839 C1838 1.366 . S
C1839 C1843 1.385 . S
C1840 H1821 0.951 . S
C1840 C1838 1.388 . S
C1840 C1841 1.366 . S
C1841 C1840 1.366 . S
C1841 C1842 1.414 . S
C1841 C1844 1.499 . S
C1842 H1822 0.950 . S
C1842 C1841 1.414 . S
C1842 C1843 1.374 . S
C1843 H1823 0.950 . S
C1843 C1839 1.385 . S
C1843 C1842 1.374 . S
C1844 C1841 1.499 . S
C1844 C1845 1.373 . S
C1844 C1846 1.389 . S
C1845 H1824 0.950 . S
C1845 C1844 1.373 . S
C1845 C1861 1.377 . S
C1846 C1844 1.389 . S
C1846 C1847 1.524 . S
C1846 C1860 1.377 . S
C1847 C1846 1.524 . S
C1847 C1848 1.397 . S
C1847 C1852 1.363 . S
C1848 H1825 0.950 . S
C1848 C1847 1.397 . S
C1848 C1849 1.334 . S
C1849 H1826 0.950 . S
C1849 C1848 1.334 . S
C1849 C1850 1.287 . S
C1850 C1849 1.287 . S
C1850 C1851 1.524 . S
C1850 H1869 0.913 . S
C1851 H1827 0.950 . S
C1851 C1850 1.524 . S
C1851 C1852 1.415 . S
C1852 H1828 0.950 . S
C1852 C1847 1.363 . S
C1852 C1851 1.415 . S
C1853 H1829 0.951 . S
C1853 C1854 1.366 . S
C1853 C1855 1.388 . S
C1854 C1853 1.366 . S
C1854 C1858 1.385 . S
C1855 H1830 0.951 . S
C1855 C1853 1.388 . S
C1855 C1856 1.366 . S
C1856 C1855 1.366 . S
C1856 C1857 1.414 . S
C1856 C1859 1.499 . S
C1857 H1831 0.950 . S
C1857 C1856 1.414 . S
C1857 C1858 1.374 . S
C1858 H1832 0.950 . S
C1858 C1854 1.385 . S
C1858 C1857 1.374 . S
C1859 C1856 1.499 . S
C1859 C1860 1.373 . S
C1859 C1861 1.389 . S
C1860 H1833 0.950 . S
C1860 C1846 1.377 . S
C1860 C1859 1.373 . S
C1861 C1845 1.377 . S
C1861 C1859 1.389 . S
C1861 C1862 1.524 . S
C1862 C1861 1.524 . S
C1862 C1863 1.397 . S
C1862 C1867 1.363 . S
C1863 H1834 0.950 . S
C1863 C1862 1.397 . S
C1863 C1864 1.334 . S
C1864 H1835 0.950 . S
C1864 C1863 1.334 . S
C1864 C1865 1.287 . S
C1865 C1864 1.287 . S
C1865 C1866 1.524 . S
C1865 H1868 0.999 . S
C1866 H1836 0.950 . S
C1866 C1865 1.524 . S
C1866 C1867 1.415 . S
C1867 H1837 0.950 . S
C1867 C1862 1.363 . S
C1867 C1866 1.415 . S
H1868 C1865 0.999 . S
H1869 C1850 0.913 . S
H1870 C1888 0.951 . S
H1871 C1890 0.951 . S
H1872 C1892 0.950 . S
H1873 C1893 0.950 . S
H1874 C1895 0.950 . S
H1875 C1898 0.950 . S
H1876 C1899 0.950 . S
H1877 C1901 0.950 . S
H1878 C1902 0.950 . S
H1879 C1903 0.951 . S
H1880 C1905 0.951 . S
H1881 C1907 0.950 . S
H1882 C1908 0.950 . S
H1883 C1910 0.950 . S
H1884 C1913 0.950 . S
H1885 C1914 0.950 . S
H1886 C1916 0.950 . S
H1887 C1917 0.950 . S
C1888 H1870 0.951 . S
C1888 C1889 1.366 . S
C1888 C1890 1.388 . S
C1889 C1888 1.366 . S
C1889 C1893 1.385 . S
C1890 H1871 0.951 . S
C1890 C1888 1.388 . S
C1890 C1891 1.366 . S
C1891 C1890 1.366 . S
C1891 C1892 1.414 . S
C1891 C1894 1.499 . S
C1892 H1872 0.950 . S
C1892 C1891 1.414 . S
C1892 C1893 1.374 . S
C1893 H1873 0.950 . S
C1893 C1889 1.385 . S
C1893 C1892 1.374 . S
C1894 C1891 1.499 . S
C1894 C1895 1.373 . S
C1894 C1896 1.389 . S
C1895 H1874 0.950 . S
C1895 C1894 1.373 . S
C1895 C1911 1.377 . S
C1896 C1894 1.389 . S
C1896 C1897 1.524 . S
C1896 C1910 1.377 . S
C1897 C1896 1.524 . S
C1897 C1898 1.397 . S
C1897 C1902 1.363 . S
C1898 H1875 0.950 . S
C1898 C1897 1.397 . S
C1898 C1899 1.334 . S
C1899 H1876 0.950 . S
C1899 C1898 1.334 . S
C1899 C1900 1.287 . S
C1900 C1899 1.287 . S
C1900 C1901 1.524 . S
C1900 H1919 0.913 . S
C1901 H1877 0.950 . S
C1901 C1900 1.524 . S
C1901 C1902 1.415 . S
C1902 H1878 0.950 . S
C1902 C1897 1.363 . S
C1902 C1901 1.415 . S
C1903 H1879 0.951 . S
C1903 C1904 1.366 . S
C1903 C1905 1.388 . S
C1904 C1903 1.366 . S
C1904 C1908 1.385 . S
C1905 H1880 0.951 . S
C1905 C1903 1.388 . S
C1905 C1906 1.366 . S
C1906 C1905 1.366 . S
C1906 C1907 1.414 . S
C1906 C1909 1.499 . S
C1907 H1881 0.950 . S
C1907 C1906 1.414 . S
C1907 C1908 1.374 . S
C1908 H1882 0.950 . S
C1908 C1904 1.385 . S
C1908 C1907 1.374 . S
C1909 C1906 1.499 . S
C1909 C1910 1.373 . S
C1909 C1911 1.389 . S
C1910 H1883 0.950 . S
C1910 C1896 1.377 . S
C1910 C1909 1.373 . S
C1911 C1895 1.377 . S
C1911 C1909 1.389 . S
C1911 C1912 1.524 . S
C1912 C1911 1.524 . S
C1912 C1913 1.397 . S
C1912 C1917 1.363 . S
C1913 H1884 0.950 . S
C1913 C1912 1.397 . S
C1913 C1914 1.334 . S
C1914 H1885 0.950 . S
C1914 C1913 1.334 . S
C1914 C1915 1.287 . S
C1915 C1914 1.287 . S
C1915 C1916 1.524 . S
C1915 H1918 0.999 . S
C1916 H1886 0.950 . S
C1916 C1915 1.524 . S
C1916 C1917 1.415 . S
C1917 H1887 0.950 . S
C1917 C1912 1.363 . S
C1917 C1916 1.415 . S
H1918 C1915 0.999 . S
H1919 C1900 0.913 . S
H1920 C1938 0.951 . S
H1921 C1940 0.951 . S
H1922 C1942 0.950 . S
H1923 C1943 0.950 . S
H1924 C1945 0.950 . S
H1925 C1948 0.950 . S
H1926 C1949 0.950 . S
H1927 C1951 0.950 . S
H1928 C1952 0.950 . S
H1929 C1953 0.951 . S
H1930 C1955 0.951 . S
H1931 C1957 0.950 . S
H1932 C1958 0.950 . S
H1933 C1960 0.950 . S
H1934 C1963 0.950 . S
H1935 C1964 0.950 . S
H1936 C1966 0.950 . S
H1937 C1967 0.950 . S
C1938 H1920 0.951 . S
C1938 C1939 1.366 . S
C1938 C1940 1.388 . S
C1939 C1938 1.366 . S
C1939 C1943 1.385 . S
C1940 H1921 0.951 . S
C1940 C1938 1.388 . S
C1940 C1941 1.366 . S
C1941 C1940 1.366 . S
C1941 C1942 1.414 . S
C1941 C1944 1.499 . S
C1942 H1922 0.950 . S
C1942 C1941 1.414 . S
C1942 C1943 1.374 . S
C1943 H1923 0.950 . S
C1943 C1939 1.385 . S
C1943 C1942 1.374 . S
C1944 C1941 1.499 . S
C1944 C1945 1.373 . S
C1944 C1946 1.389 . S
C1945 H1924 0.950 . S
C1945 C1944 1.373 . S
C1945 C1961 1.377 . S
C1946 C1944 1.389 . S
C1946 C1947 1.524 . S
C1946 C1960 1.377 . S
C1947 C1946 1.524 . S
C1947 C1948 1.397 . S
C1947 C1952 1.363 . S
C1948 H1925 0.950 . S
C1948 C1947 1.397 . S
C1948 C1949 1.334 . S
C1949 H1926 0.950 . S
C1949 C1948 1.334 . S
C1949 C1950 1.287 . S
C1950 C1949 1.287 . S
C1950 C1951 1.524 . S
C1950 H1969 0.913 . S
C1951 H1927 0.950 . S
C1951 C1950 1.524 . S
C1951 C1952 1.415 . S
C1952 H1928 0.950 . S
C1952 C1947 1.363 . S
C1952 C1951 1.415 . S
C1953 H1929 0.951 . S
C1953 C1954 1.366 . S
C1953 C1955 1.388 . S
C1954 C1953 1.366 . S
C1954 C1958 1.385 . S
C1955 H1930 0.951 . S
C1955 C1953 1.388 . S
C1955 C1956 1.366 . S
C1956 C1955 1.366 . S
C1956 C1957 1.414 . S
C1956 C1959 1.499 . S
C1957 H1931 0.950 . S
C1957 C1956 1.414 . S
C1957 C1958 1.374 . S
C1958 H1932 0.950 . S
C1958 C1954 1.385 . S
C1958 C1957 1.374 . S
C1959 C1956 1.499 . S
C1959 C1960 1.373 . S
C1959 C1961 1.389 . S
C1960 H1933 0.950 . S
C1960 C1946 1.377 . S
C1960 C1959 1.373 . S
C1961 C1945 1.377 . S
C1961 C1959 1.389 . S
C1961 C1962 1.524 . S
C1962 C1961 1.524 . S
C1962 C1963 1.397 . S
C1962 C1967 1.363 . S
C1963 H1934 0.950 . S
C1963 C1962 1.397 . S
C1963 C1964 1.334 . S
C1964 H1935 0.950 . S
C1964 C1963 1.334 . S
C1964 C1965 1.287 . S
C1965 C1964 1.287 . S
C1965 C1966 1.524 . S
C1965 H1968 0.999 . S
C1966 H1936 0.950 . S
C1966 C1965 1.524 . S
C1966 C1967 1.415 . S
C1967 H1937 0.950 . S
C1967 C1962 1.363 . S
C1967 C1966 1.415 . S
H1968 C1965 0.999 . S
H1969 C1950 0.913 . S
H1970 C1988 0.951 . S
H1971 C1990 0.951 . S
H1972 C1992 0.950 . S
H1973 C1993 0.950 . S
H1974 C1995 0.950 . S
H1975 C1998 0.950 . S
H1976 C1999 0.950 . S
H1977 C2001 0.950 . S
H1978 C2002 0.950 . S
H1979 C2003 0.951 . S
H1980 C2005 0.951 . S
H1981 C2007 0.950 . S
H1982 C2008 0.950 . S
H1983 C2010 0.950 . S
H1984 C2013 0.950 . S
H1985 C2014 0.950 . S
H1986 C2016 0.950 . S
H1987 C2017 0.950 . S
C1988 H1970 0.951 . S
C1988 C1989 1.366 . S
C1988 C1990 1.388 . S
C1989 C1988 1.366 . S
C1989 C1993 1.385 . S
C1990 H1971 0.951 . S
C1990 C1988 1.388 . S
C1990 C1991 1.366 . S
C1991 C1990 1.366 . S
C1991 C1992 1.414 . S
C1991 C1994 1.499 . S
C1992 H1972 0.950 . S
C1992 C1991 1.414 . S
C1992 C1993 1.374 . S
C1993 H1973 0.950 . S
C1993 C1989 1.385 . S
C1993 C1992 1.374 . S
C1994 C1991 1.499 . S
C1994 C1995 1.373 . S
C1994 C1996 1.389 . S
C1995 H1974 0.950 . S
C1995 C1994 1.373 . S
C1995 C2011 1.377 . S
C1996 C1994 1.389 . S
C1996 C1997 1.524 . S
C1996 C2010 1.377 . S
C1997 C1996 1.524 . S
C1997 C1998 1.397 . S
C1997 C2002 1.363 . S
C1998 H1975 0.950 . S
C1998 C1997 1.397 . S
C1998 C1999 1.334 . S
C1999 H1976 0.950 . S
C1999 C1998 1.334 . S
C1999 C2000 1.287 . S
C2000 C1999 1.287 . S
C2000 C2001 1.524 . S
C2000 H2019 0.913 . S
C2001 H1977 0.950 . S
C2001 C2000 1.524 . S
C2001 C2002 1.415 . S
C2002 H1978 0.950 . S
C2002 C1997 1.363 . S
C2002 C2001 1.415 . S
C2003 H1979 0.951 . S
C2003 C2004 1.366 . S
C2003 C2005 1.388 . S
C2004 C2003 1.366 . S
C2004 C2008 1.385 . S
C2005 H1980 0.951 . S
C2005 C2003 1.388 . S
C2005 C2006 1.366 . S
C2006 C2005 1.366 . S
C2006 C2007 1.414 . S
C2006 C2009 1.499 . S
C2007 H1981 0.950 . S
C2007 C2006 1.414 . S
C2007 C2008 1.374 . S
C2008 H1982 0.950 . S
C2008 C2004 1.385 . S
C2008 C2007 1.374 . S
C2009 C2006 1.499 . S
C2009 C2010 1.373 . S
C2009 C2011 1.389 . S
C2010 H1983 0.950 . S
C2010 C1996 1.377 . S
C2010 C2009 1.373 . S
C2011 C1995 1.377 . S
C2011 C2009 1.389 . S
C2011 C2012 1.524 . S
C2012 C2011 1.524 . S
C2012 C2013 1.397 . S
C2012 C2017 1.363 . S
C2013 H1984 0.950 . S
C2013 C2012 1.397 . S
C2013 C2014 1.334 . S
C2014 H1985 0.950 . S
C2014 C2013 1.334 . S
C2014 C2015 1.287 . S
C2015 C2014 1.287 . S
C2015 C2016 1.524 . S
C2015 H2018 0.999 . S
C2016 H1986 0.950 . S
C2016 C2015 1.524 . S
C2016 C2017 1.415 . S
C2017 H1987 0.950 . S
C2017 C2012 1.363 . S
C2017 C2016 1.415 . S
H2018 C2015 0.999 . S
H2019 C2000 0.913 . S
H2020 C2038 0.951 . S
H2021 C2040 0.951 . S
H2022 C2042 0.950 . S
H2023 C2043 0.950 . S
H2024 C2045 0.950 . S
H2025 C2048 0.950 . S
H2026 C2049 0.950 . S
H2027 C2051 0.950 . S
H2028 C2052 0.950 . S
H2029 C2053 0.951 . S
H2030 C2055 0.951 . S
H2031 C2057 0.950 . S
H2032 C2058 0.950 . S
H2033 C2060 0.950 . S
H2034 C2063 0.950 . S
H2035 C2064 0.950 . S
H2036 C2066 0.950 . S
H2037 C2067 0.950 . S
C2038 H2020 0.951 . S
C2038 C2039 1.366 . S
C2038 C2040 1.388 . S
C2039 C2038 1.366 . S
C2039 C2043 1.385 . S
C2040 H2021 0.951 . S
C2040 C2038 1.388 . S
C2040 C2041 1.366 . S
C2041 C2040 1.366 . S
C2041 C2042 1.414 . S
C2041 C2044 1.499 . S
C2042 H2022 0.950 . S
C2042 C2041 1.414 . S
C2042 C2043 1.374 . S
C2043 H2023 0.950 . S
C2043 C2039 1.385 . S
C2043 C2042 1.374 . S
C2044 C2041 1.499 . S
C2044 C2045 1.373 . S
C2044 C2046 1.389 . S
C2045 H2024 0.950 . S
C2045 C2044 1.373 . S
C2045 C2061 1.377 . S
C2046 C2044 1.389 . S
C2046 C2047 1.524 . S
C2046 C2060 1.377 . S
C2047 C2046 1.524 . S
C2047 C2048 1.397 . S
C2047 C2052 1.363 . S
C2048 H2025 0.950 . S
C2048 C2047 1.397 . S
C2048 C2049 1.334 . S
C2049 H2026 0.950 . S
C2049 C2048 1.334 . S
C2049 C2050 1.287 . S
C2050 C2049 1.287 . S
C2050 C2051 1.524 . S
C2050 H2069 0.913 . S
C2051 H2027 0.950 . S
C2051 C2050 1.524 . S
C2051 C2052 1.415 . S
C2052 H2028 0.950 . S
C2052 C2047 1.363 . S
C2052 C2051 1.415 . S
C2053 H2029 0.951 . S
C2053 C2054 1.366 . S
C2053 C2055 1.388 . S
C2054 C2053 1.366 . S
C2054 C2058 1.385 . S
C2055 H2030 0.951 . S
C2055 C2053 1.388 . S
C2055 C2056 1.366 . S
C2056 C2055 1.366 . S
C2056 C2057 1.414 . S
C2056 C2059 1.499 . S
C2057 H2031 0.950 . S
C2057 C2056 1.414 . S
C2057 C2058 1.374 . S
C2058 H2032 0.950 . S
C2058 C2054 1.385 . S
C2058 C2057 1.374 . S
C2059 C2056 1.499 . S
C2059 C2060 1.373 . S
C2059 C2061 1.389 . S
C2060 H2033 0.950 . S
C2060 C2046 1.377 . S
C2060 C2059 1.373 . S
C2061 C2045 1.377 . S
C2061 C2059 1.389 . S
C2061 C2062 1.524 . S
C2062 C2061 1.524 . S
C2062 C2063 1.397 . S
C2062 C2067 1.363 . S
C2063 H2034 0.950 . S
C2063 C2062 1.397 . S
C2063 C2064 1.334 . S
C2064 H2035 0.950 . S
C2064 C2063 1.334 . S
C2064 C2065 1.287 . S
C2065 C2064 1.287 . S
C2065 C2066 1.524 . S
C2065 H2068 0.999 . S
C2066 H2036 0.950 . S
C2066 C2065 1.524 . S
C2066 C2067 1.415 . S
C2067 H2037 0.950 . S
C2067 C2062 1.363 . S
C2067 C2066 1.415 . S
H2068 C2065 0.999 . S
H2069 C2050 0.913 . S
H2070 C2088 0.951 . S
H2071 C2090 0.951 . S
H2072 C2092 0.950 . S
H2073 C2093 0.950 . S
H2074 C2095 0.950 . S
H2075 C2098 0.950 . S
H2076 C2099 0.950 . S
H2077 C2101 0.950 . S
H2078 C2102 0.950 . S
H2079 C2103 0.951 . S
H2080 C2105 0.951 1_545 S
H2081 C2107 0.950 . S
H2082 C2108 0.950 . S
H2083 C2110 0.950 . S
H2084 C2113 0.950 . S
H2085 C2114 0.950 . S
H2086 C2116 0.950 . S
H2087 C2117 0.950 . S
C2088 H2070 0.951 . S
C2088 C2089 1.366 . S
C2088 C2090 1.388 . S
C2089 C2088 1.366 . S
C2089 C2093 1.385 . S
C2090 H2071 0.951 . S
C2090 C2088 1.388 . S
C2090 C2091 1.366 . S
C2091 C2090 1.366 . S
C2091 C2092 1.414 . S
C2091 C2094 1.499 . S
C2092 H2072 0.950 . S
C2092 C2091 1.414 . S
C2092 C2093 1.374 . S
C2093 H2073 0.950 . S
C2093 C2089 1.385 . S
C2093 C2092 1.374 . S
C2094 C2091 1.499 . S
C2094 C2095 1.373 . S
C2094 C2096 1.389 . S
C2095 H2074 0.950 . S
C2095 C2094 1.373 . S
C2095 C2111 1.377 . S
C2096 C2094 1.389 . S
C2096 C2097 1.524 . S
C2096 C2110 1.377 . S
C2097 C2096 1.524 . S
C2097 C2098 1.397 . S
C2097 C2102 1.363 . S
C2098 H2075 0.950 . S
C2098 C2097 1.397 . S
C2098 C2099 1.334 . S
C2099 H2076 0.950 . S
C2099 C2098 1.334 . S
C2099 C2100 1.287 . S
C2100 C2099 1.287 . S
C2100 C2101 1.524 . S
C2100 H2119 0.913 . S
C2101 H2077 0.950 . S
C2101 C2100 1.524 . S
C2101 C2102 1.415 . S
C2102 H2078 0.950 . S
C2102 C2097 1.363 . S
C2102 C2101 1.415 . S
C2103 H2079 0.951 . S
C2103 C2104 1.366 1_545 S
C2103 C2105 1.388 1_545 S
C2104 C2103 1.366 1_565 S
C2104 C2108 1.385 . S
C2105 H2080 0.951 1_565 S
C2105 C2103 1.388 1_565 S
C2105 C2106 1.366 . S
C2106 C2105 1.366 . S
C2106 C2107 1.414 . S
C2106 C2109 1.499 . S
C2107 H2081 0.950 . S
C2107 C2106 1.414 . S
C2107 C2108 1.374 . S
C2108 H2082 0.950 . S
C2108 C2104 1.385 . S
C2108 C2107 1.374 . S
C2109 C2106 1.499 . S
C2109 C2110 1.373 . S
C2109 C2111 1.389 . S
C2110 H2083 0.950 . S
C2110 C2096 1.377 . S
C2110 C2109 1.373 . S
C2111 C2095 1.377 . S
C2111 C2109 1.389 . S
C2111 C2112 1.524 . S
C2112 C2111 1.524 . S
C2112 C2113 1.397 . S
C2112 C2117 1.363 . S
C2113 H2084 0.950 . S
C2113 C2112 1.397 . S
C2113 C2114 1.334 . S
C2114 H2085 0.950 . S
C2114 C2113 1.334 . S
C2114 C2115 1.287 . S
C2115 C2114 1.287 . S
C2115 C2116 1.524 1_565 S
C2115 H2118 0.999 . S
C2116 H2086 0.950 . S
C2116 C2115 1.524 1_545 S
C2116 C2117 1.415 1_545 S
C2117 H2087 0.950 . S
C2117 C2112 1.363 . S
C2117 C2116 1.415 1_565 S
H2118 C2115 0.999 . S
H2119 C2100 0.913 . S
H2120 C2138 0.951 . S
H2121 C2140 0.951 . S
H2122 C2142 0.950 . S
H2123 C2143 0.950 . S
H2124 C2145 0.950 . S
H2125 C2148 0.950 . S
H2126 C2149 0.950 . S
H2127 C2151 0.950 . S
H2128 C2152 0.950 . S
H2129 C2153 0.951 . S
H2130 C2155 0.951 . S
H2131 C2157 0.950 . S
H2132 C2158 0.950 . S
H2133 C2160 0.950 . S
H2134 C2163 0.950 . S
H2135 C2164 0.950 . S
H2136 C2166 0.950 . S
H2137 C2167 0.950 . S
C2138 H2120 0.951 . S
C2138 C2139 1.366 . S
C2138 C2140 1.388 . S
C2139 C2138 1.366 . S
C2139 C2143 1.385 . S
C2140 H2121 0.951 . S
C2140 C2138 1.388 . S
C2140 C2141 1.366 . S
C2141 C2140 1.366 . S
C2141 C2142 1.414 . S
C2141 C2144 1.499 . S
C2142 H2122 0.950 . S
C2142 C2141 1.414 . S
C2142 C2143 1.374 . S
C2143 H2123 0.950 . S
C2143 C2139 1.385 . S
C2143 C2142 1.374 . S
C2144 C2141 1.499 . S
C2144 C2145 1.373 . S
C2144 C2146 1.389 . S
C2145 H2124 0.950 . S
C2145 C2144 1.373 . S
C2145 C2161 1.377 . S
C2146 C2144 1.389 . S
C2146 C2147 1.524 . S
C2146 C2160 1.377 . S
C2147 C2146 1.524 . S
C2147 C2148 1.397 . S
C2147 C2152 1.363 . S
C2148 H2125 0.950 . S
C2148 C2147 1.397 . S
C2148 C2149 1.334 1_455 S
C2149 H2126 0.950 . S
C2149 C2148 1.334 1_655 S
C2149 C2150 1.287 1_655 S
C2150 C2149 1.287 1_455 S
C2150 C2151 1.524 . S
C2150 H2169 0.913 1_455 S
C2151 H2127 0.950 . S
C2151 C2150 1.524 . S
C2151 C2152 1.415 . S
C2152 H2128 0.950 . S
C2152 C2147 1.363 . S
C2152 C2151 1.415 . S
C2153 H2129 0.951 . S
C2153 C2154 1.366 . S
C2153 C2155 1.388 . S
C2154 C2153 1.366 . S
C2154 C2158 1.385 . S
C2155 H2130 0.951 . S
C2155 C2153 1.388 . S
C2155 C2156 1.366 . S
C2156 C2155 1.366 . S
C2156 C2157 1.414 . S
C2156 C2159 1.499 . S
C2157 H2131 0.950 . S
C2157 C2156 1.414 . S
C2157 C2158 1.374 . S
C2158 H2132 0.950 . S
C2158 C2154 1.385 . S
C2158 C2157 1.374 . S
C2159 C2156 1.499 . S
C2159 C2160 1.373 . S
C2159 C2161 1.389 . S
C2160 H2133 0.950 . S
C2160 C2146 1.377 . S
C2160 C2159 1.373 . S
C2161 C2145 1.377 . S
C2161 C2159 1.389 . S
C2161 C2162 1.524 . S
C2162 C2161 1.524 . S
C2162 C2163 1.397 . S
C2162 C2167 1.363 . S
C2163 H2134 0.950 . S
C2163 C2162 1.397 . S
C2163 C2164 1.334 . S
C2164 H2135 0.950 . S
C2164 C2163 1.334 . S
C2164 C2165 1.287 . S
C2165 C2164 1.287 . S
C2165 C2166 1.524 . S
C2165 H2168 0.999 . S
C2166 H2136 0.950 . S
C2166 C2165 1.524 . S
C2166 C2167 1.415 . S
C2167 H2137 0.950 . S
C2167 C2162 1.363 . S
C2167 C2166 1.415 . S
H2168 C2165 0.999 . S
H2169 C2150 0.913 1_655 S
H2170 C2188 0.951 . S
H2171 C2190 0.951 . S
H2172 C2192 0.950 . S
H2173 C2193 0.950 . S
H2174 C2195 0.950 . S
H2175 C2198 0.950 . S
H2176 C2199 0.950 . S
H2177 C2201 0.950 . S
H2178 C2202 0.950 . S
H2179 C2203 0.951 . S
H2180 C2205 0.951 . S
H2181 C2207 0.950 . S
H2182 C2208 0.950 . S
H2183 C2210 0.950 . S
H2184 C2213 0.950 . S
H2185 C2214 0.950 . S
H2186 C2216 0.950 . S
H2187 C2217 0.950 . S
C2188 H2170 0.951 . S
C2188 C2189 1.366 . S
C2188 C2190 1.388 . S
C2189 C2188 1.366 . S
C2189 C2193 1.385 . S
C2190 H2171 0.951 . S
C2190 C2188 1.388 . S
C2190 C2191 1.366 . S
C2191 C2190 1.366 . S
C2191 C2192 1.414 . S
C2191 C2194 1.499 . S
C2192 H2172 0.950 . S
C2192 C2191 1.414 . S
C2192 C2193 1.374 . S
C2193 H2173 0.950 . S
C2193 C2189 1.385 . S
C2193 C2192 1.374 . S
C2194 C2191 1.499 . S
C2194 C2195 1.373 . S
C2194 C2196 1.389 . S
C2195 H2174 0.950 . S
C2195 C2194 1.373 . S
C2195 C2211 1.377 . S
C2196 C2194 1.389 . S
C2196 C2197 1.524 . S
C2196 C2210 1.377 . S
C2197 C2196 1.524 . S
C2197 C2198 1.397 . S
C2197 C2202 1.363 . S
C2198 H2175 0.950 . S
C2198 C2197 1.397 . S
C2198 C2199 1.334 . S
C2199 H2176 0.950 . S
C2199 C2198 1.334 . S
C2199 C2200 1.287 . S
C2200 C2199 1.287 . S
C2200 C2201 1.524 . S
C2200 H2219 0.913 . S
C2201 H2177 0.950 . S
C2201 C2200 1.524 . S
C2201 C2202 1.415 . S
C2202 H2178 0.950 . S
C2202 C2197 1.363 . S
C2202 C2201 1.415 . S
C2203 H2179 0.951 . S
C2203 C2204 1.366 . S
C2203 C2205 1.388 . S
C2204 C2203 1.366 . S
C2204 C2208 1.385 . S
C2205 H2180 0.951 . S
C2205 C2203 1.388 . S
C2205 C2206 1.366 . S
C2206 C2205 1.366 . S
C2206 C2207 1.414 . S
C2206 C2209 1.499 . S
C2207 H2181 0.950 . S
C2207 C2206 1.414 . S
C2207 C2208 1.374 . S
C2208 H2182 0.950 . S
C2208 C2204 1.385 . S
C2208 C2207 1.374 . S
C2209 C2206 1.499 . S
C2209 C2210 1.373 . S
C2209 C2211 1.389 . S
C2210 H2183 0.950 . S
C2210 C2196 1.377 . S
C2210 C2209 1.373 . S
C2211 C2195 1.377 . S
C2211 C2209 1.389 . S
C2211 C2212 1.524 . S
C2212 C2211 1.524 . S
C2212 C2213 1.397 . S
C2212 C2217 1.363 . S
C2213 H2184 0.950 . S
C2213 C2212 1.397 . S
C2213 C2214 1.334 . S
C2214 H2185 0.950 . S
C2214 C2213 1.334 . S
C2214 C2215 1.287 . S
C2215 C2214 1.287 . S
C2215 C2216 1.524 . S
C2215 H2218 0.999 . S
C2216 H2186 0.950 . S
C2216 C2215 1.524 . S
C2216 C2217 1.415 . S
C2217 H2187 0.950 . S
C2217 C2212 1.363 . S
C2217 C2216 1.415 . S
H2218 C2215 0.999 . S
H2219 C2200 0.913 . S
H2220 C2238 0.951 . S
H2221 C2240 0.951 . S
H2222 C2242 0.950 . S
H2223 C2243 0.950 . S
H2224 C2245 0.950 . S
H2225 C2248 0.950 . S
H2226 C2249 0.950 . S
H2227 C2251 0.950 . S
H2228 C2252 0.951 . S
H2229 C2253 0.951 . S
H2230 C2255 0.951 . S
H2231 C2257 0.950 . S
H2232 C2258 0.950 . S
H2233 C2260 0.950 . S
H2234 C2263 0.950 . S
H2235 C2264 0.950 . S
H2236 C2266 0.950 . S
H2237 C2267 0.950 . S
C2238 H2220 0.951 . S
C2238 C2239 1.366 . S
C2238 C2240 1.388 . S
C2239 C2238 1.366 . S
C2239 C2243 1.385 . S
C2240 H2221 0.951 . S
C2240 C2238 1.388 . S
C2240 C2241 1.366 . S
C2241 C2240 1.366 . S
C2241 C2242 1.414 . S
C2241 C2244 1.499 . S
C2242 H2222 0.950 . S
C2242 C2241 1.414 . S
C2242 C2243 1.374 . S
C2243 H2223 0.950 . S
C2243 C2239 1.385 . S
C2243 C2242 1.374 . S
C2244 C2241 1.499 . S
C2244 C2245 1.373 . S
C2244 C2246 1.389 . S
C2245 H2224 0.950 . S
C2245 C2244 1.373 . S
C2245 C2261 1.377 . S
C2246 C2244 1.389 . S
C2246 C2247 1.524 1_655 S
C2246 C2260 1.377 . S
C2247 C2246 1.524 1_455 S
C2247 C2248 1.397 . S
C2247 C2252 1.363 . S
C2248 H2225 0.950 . S
C2248 C2247 1.397 . S
C2248 C2249 1.334 . S
C2249 H2226 0.950 . S
C2249 C2248 1.334 . S
C2249 C2250 1.287 . S
C2250 C2249 1.287 . S
C2250 C2251 1.524 . S
C2250 H2269 0.913 . S
C2251 H2227 0.950 . S
C2251 C2250 1.524 . S
C2251 C2252 1.415 . S
C2252 H2228 0.951 . S
C2252 C2247 1.363 . S
C2252 C2251 1.415 . S
C2253 H2229 0.951 . S
C2253 C2254 1.366 . S
C2253 C2255 1.388 . S
C2254 C2253 1.366 . S
C2254 C2258 1.385 . S
C2255 H2230 0.951 . S
C2255 C2253 1.388 . S
C2255 C2256 1.366 . S
C2256 C2255 1.366 . S
C2256 C2257 1.414 . S
C2256 C2259 1.499 . S
C2257 H2231 0.950 . S
C2257 C2256 1.414 . S
C2257 C2258 1.374 . S
C2258 H2232 0.950 . S
C2258 C2254 1.385 . S
C2258 C2257 1.374 . S
C2259 C2256 1.499 . S
C2259 C2260 1.373 . S
C2259 C2261 1.389 . S
C2260 H2233 0.950 . S
C2260 C2246 1.377 . S
C2260 C2259 1.373 . S
C2261 C2245 1.377 . S
C2261 C2259 1.389 . S
C2261 C2262 1.524 . S
C2262 C2261 1.524 . S
C2262 C2263 1.397 . S
C2262 C2267 1.363 . S
C2263 H2234 0.950 . S
C2263 C2262 1.397 . S
C2263 C2264 1.334 . S
C2264 H2235 0.950 . S
C2264 C2263 1.334 . S
C2264 C2265 1.287 . S
C2265 C2264 1.287 . S
C2265 C2266 1.524 . S
C2265 H2268 0.999 . S
C2266 H2236 0.950 . S
C2266 C2265 1.524 . S
C2266 C2267 1.415 . S
C2267 H2237 0.950 . S
C2267 C2262 1.363 . S
C2267 C2266 1.415 . S
H2268 C2265 0.999 . S
H2269 C2250 0.913 . S
H2270 C2288 0.951 . S
H2271 C2290 0.951 . S
H2272 C2292 0.950 . S
H2273 C2293 0.950 . S
H2274 C2295 0.950 . S
H2275 C2298 0.950 . S
H2276 C2299 0.950 . S
H2277 C2301 0.950 . S
H2278 C2302 0.950 . S
H2279 C2303 0.951 . S
H2280 C2305 0.951 . S
H2281 C2307 0.950 . S
H2282 C2308 0.950 . S
H2283 C2310 0.950 . S
H2284 C2313 0.950 . S
H2285 C2314 0.950 . S
H2286 C2316 0.950 . S
H2287 C2317 0.950 . S
C2288 H2270 0.951 . S
C2288 C2289 1.366 . S
C2288 C2290 1.388 . S
C2289 C2288 1.366 . S
C2289 C2293 1.385 . S
C2290 H2271 0.951 . S
C2290 C2288 1.388 . S
C2290 C2291 1.366 . S
C2291 C2290 1.366 . S
C2291 C2292 1.414 . S
C2291 C2294 1.499 . S
C2292 H2272 0.950 . S
C2292 C2291 1.414 . S
C2292 C2293 1.374 . S
C2293 H2273 0.950 . S
C2293 C2289 1.385 . S
C2293 C2292 1.374 . S
C2294 C2291 1.499 . S
C2294 C2295 1.373 . S
C2294 C2296 1.389 . S
C2295 H2274 0.950 . S
C2295 C2294 1.373 . S
C2295 C2311 1.377 . S
C2296 C2294 1.389 . S
C2296 C2297 1.524 . S
C2296 C2310 1.377 . S
C2297 C2296 1.524 . S
C2297 C2298 1.397 . S
C2297 C2302 1.363 . S
C2298 H2275 0.950 . S
C2298 C2297 1.397 . S
C2298 C2299 1.334 . S
C2299 H2276 0.950 . S
C2299 C2298 1.334 . S
C2299 C2300 1.287 . S
C2300 C2299 1.287 . S
C2300 C2301 1.524 . S
C2300 H2319 0.913 . S
C2301 H2277 0.950 . S
C2301 C2300 1.524 . S
C2301 C2302 1.415 . S
C2302 H2278 0.950 . S
C2302 C2297 1.363 . S
C2302 C2301 1.415 . S
C2303 H2279 0.951 . S
C2303 C2304 1.366 . S
C2303 C2305 1.388 . S
C2304 C2303 1.366 . S
C2304 C2308 1.385 . S
C2305 H2280 0.951 . S
C2305 C2303 1.388 . S
C2305 C2306 1.366 . S
C2306 C2305 1.366 . S
C2306 C2307 1.414 . S
C2306 C2309 1.499 . S
C2307 H2281 0.950 . S
C2307 C2306 1.414 . S
C2307 C2308 1.374 . S
C2308 H2282 0.950 . S
C2308 C2304 1.385 . S
C2308 C2307 1.374 . S
C2309 C2306 1.499 . S
C2309 C2310 1.373 . S
C2309 C2311 1.389 . S
C2310 H2283 0.950 . S
C2310 C2296 1.377 . S
C2310 C2309 1.373 . S
C2311 C2295 1.377 . S
C2311 C2309 1.389 . S
C2311 C2312 1.524 . S
C2312 C2311 1.524 . S
C2312 C2313 1.397 . S
C2312 C2317 1.363 . S
C2313 H2284 0.950 . S
C2313 C2312 1.397 . S
C2313 C2314 1.334 . S
C2314 H2285 0.950 . S
C2314 C2313 1.334 . S
C2314 C2315 1.287 . S
C2315 C2314 1.287 . S
C2315 C2316 1.524 . S
C2315 H2318 0.999 . S
C2316 H2286 0.950 . S
C2316 C2315 1.524 . S
C2316 C2317 1.415 . S
C2317 H2287 0.950 . S
C2317 C2312 1.363 . S
C2317 C2316 1.415 . S
H2318 C2315 0.999 . S
H2319 C2300 0.913 . S
H2320 C2338 0.951 . S
H2321 C2340 0.951 . S
H2322 C2342 0.950 . S
H2323 C2343 0.950 . S
H2324 C2345 0.950 . S
H2325 C2348 0.950 . S
H2326 C2349 0.950 . S
H2327 C2351 0.950 . S
H2328 C2352 0.950 . S
H2329 C2353 0.951 . S
H2330 C2355 0.951 . S
H2331 C2357 0.950 . S
H2332 C2358 0.950 . S
H2333 C2360 0.950 . S
H2334 C2363 0.950 . S
H2335 C2364 0.950 . S
H2336 C2366 0.950 . S
H2337 C2367 0.950 . S
C2338 H2320 0.951 . S
C2338 C2339 1.366 . S
C2338 C2340 1.388 . S
C2339 C2338 1.366 . S
C2339 C2343 1.385 . S
C2340 H2321 0.951 . S
C2340 C2338 1.388 . S
C2340 C2341 1.366 . S
C2341 C2340 1.366 . S
C2341 C2342 1.414 . S
C2341 C2344 1.499 . S
C2342 H2322 0.950 . S
C2342 C2341 1.414 . S
C2342 C2343 1.374 . S
C2343 H2323 0.950 . S
C2343 C2339 1.385 . S
C2343 C2342 1.374 . S
C2344 C2341 1.499 . S
C2344 C2345 1.373 . S
C2344 C2346 1.389 . S
C2345 H2324 0.950 . S
C2345 C2344 1.373 . S
C2345 C2361 1.377 . S
C2346 C2344 1.389 . S
C2346 C2347 1.524 . S
C2346 C2360 1.377 . S
C2347 C2346 1.524 . S
C2347 C2348 1.397 . S
C2347 C2352 1.363 . S
C2348 H2325 0.950 . S
C2348 C2347 1.397 . S
C2348 C2349 1.334 . S
C2349 H2326 0.950 . S
C2349 C2348 1.334 . S
C2349 C2350 1.287 . S
C2350 C2349 1.287 . S
C2350 C2351 1.524 . S
C2350 H2369 0.913 . S
C2351 H2327 0.950 . S
C2351 C2350 1.524 . S
C2351 C2352 1.415 . S
C2352 H2328 0.950 . S
C2352 C2347 1.363 . S
C2352 C2351 1.415 . S
C2353 H2329 0.951 . S
C2353 C2354 1.366 . S
C2353 C2355 1.388 . S
C2354 C2353 1.366 . S
C2354 C2358 1.385 . S
C2355 H2330 0.951 . S
C2355 C2353 1.388 . S
C2355 C2356 1.366 . S
C2356 C2355 1.366 . S
C2356 C2357 1.414 . S
C2356 C2359 1.499 . S
C2357 H2331 0.950 . S
C2357 C2356 1.414 . S
C2357 C2358 1.374 . S
C2358 H2332 0.950 . S
C2358 C2354 1.385 . S
C2358 C2357 1.374 . S
C2359 C2356 1.499 . S
C2359 C2360 1.373 . S
C2359 C2361 1.389 . S
C2360 H2333 0.950 . S
C2360 C2346 1.377 . S
C2360 C2359 1.373 . S
C2361 C2345 1.377 . S
C2361 C2359 1.389 . S
C2361 C2362 1.524 . S
C2362 C2361 1.524 . S
C2362 C2363 1.397 . S
C2362 C2367 1.363 . S
C2363 H2334 0.950 . S
C2363 C2362 1.397 . S
C2363 C2364 1.334 1_545 S
C2364 H2335 0.950 . S
C2364 C2363 1.334 1_565 S
C2364 C2365 1.287 . S
C2365 C2364 1.287 . S
C2365 C2366 1.524 1_565 S
C2365 H2368 0.999 . S
C2366 H2336 0.950 . S
C2366 C2365 1.524 1_545 S
C2366 C2367 1.415 . S
C2367 H2337 0.950 . S
C2367 C2362 1.363 . S
C2367 C2366 1.415 . S
H2368 C2365 0.999 . S
H2369 C2350 0.913 . S
H2370 C2388 0.951 . S
H2371 C2390 0.951 . S
H2372 C2392 0.950 . S
H2373 C2393 0.950 . S
H2374 C2395 0.950 . S
H2375 C2398 0.950 . S
H2376 C2399 0.950 . S
H2377 C2401 0.950 . S
H2378 C2402 0.950 . S
H2379 C2403 0.951 . S
H2380 C2405 0.951 . S
H2381 C2407 0.950 . S
H2382 C2408 0.950 . S
H2383 C2410 0.950 . S
H2384 C2413 0.950 . S
H2385 C2414 0.939 1_455 S
H2386 C2416 0.950 . S
H2387 C2417 0.950 . S
C2388 H2370 0.951 . S
C2388 C2389 1.366 . S
C2388 C2390 1.388 . S
C2389 C2388 1.366 . S
C2389 C2393 1.385 . S
C2390 H2371 0.951 . S
C2390 C2388 1.388 . S
C2390 C2391 1.366 . S
C2391 C2390 1.366 . S
C2391 C2392 1.414 . S
C2391 C2394 1.499 . S
C2392 H2372 0.950 . S
C2392 C2391 1.414 . S
C2392 C2393 1.374 . S
C2393 H2373 0.950 . S
C2393 C2389 1.385 . S
C2393 C2392 1.374 . S
C2394 C2391 1.499 . S
C2394 C2395 1.373 . S
C2394 C2396 1.389 1_655 S
C2395 H2374 0.950 . S
C2395 C2394 1.373 . S
C2395 C2411 1.377 1_655 S
C2396 C2394 1.389 1_455 S
C2396 C2397 1.524 . S
C2396 C2410 1.377 . S
C2397 C2396 1.524 . S
C2397 C2398 1.397 . S
C2397 C2402 1.363 . S
C2398 H2375 0.950 . S
C2398 C2397 1.397 . S
C2398 C2399 1.334 . S
C2399 H2376 0.950 . S
C2399 C2398 1.334 . S
C2399 C2400 1.287 . S
C2400 C2399 1.287 . S
C2400 C2401 1.524 . S
C2400 H2419 0.913 . S
C2401 H2377 0.950 . S
C2401 C2400 1.524 . S
C2401 C2402 1.415 . S
C2402 H2378 0.950 . S
C2402 C2397 1.363 . S
C2402 C2401 1.415 . S
C2403 H2379 0.951 . S
C2403 C2404 1.366 . S
C2403 C2405 1.388 . S
C2404 C2403 1.366 . S
C2404 C2408 1.385 . S
C2405 H2380 0.951 . S
C2405 C2403 1.388 . S
C2405 C2406 1.366 . S
C2406 C2405 1.366 . S
C2406 C2407 1.414 . S
C2406 C2409 1.499 . S
C2407 H2381 0.950 . S
C2407 C2406 1.414 . S
C2407 C2408 1.374 . S
C2408 H2382 0.950 . S
C2408 C2404 1.385 . S
C2408 C2407 1.374 . S
C2409 C2406 1.499 . S
C2409 C2410 1.373 . S
C2409 C2411 1.389 . S
C2410 H2383 0.950 . S
C2410 C2396 1.377 . S
C2410 C2409 1.373 . S
C2411 C2395 1.377 1_455 S
C2411 C2409 1.389 . S
C2411 C2412 1.524 1_455 S
C2412 C2411 1.524 1_655 S
C2412 C2413 1.397 1_655 S
C2412 C2417 1.363 . S
C2413 H2384 0.950 . S
C2413 C2412 1.397 1_455 S
C2413 C2414 1.334 1_455 S
C2414 H2385 0.939 1_655 S
C2414 C2413 1.334 1_655 S
C2414 C2415 1.287 . S
C2415 C2414 1.287 . S
C2415 C2416 1.524 . S
C2415 H2418 0.999 . S
C2416 H2386 0.950 . S
C2416 C2415 1.524 . S
C2416 C2417 1.415 . S
C2417 H2387 0.950 . S
C2417 C2412 1.363 . S
C2417 C2416 1.415 . S
H2418 C2415 0.999 . S
H2419 C2400 0.913 . S
H2420 C2438 0.951 . S
H2421 C2440 0.951 . S
H2422 C2442 0.950 . S
H2423 C2443 0.950 . S
H2424 C2445 0.950 . S
H2425 C2448 0.950 . S
H2426 C2449 0.950 . S
H2427 C2451 0.950 . S
H2428 C2452 0.950 . S
H2429 C2453 0.951 . S
H2430 C2455 0.951 . S
H2431 C2457 0.950 . S
H2432 C2458 0.950 . S
H2433 C2460 0.950 . S
H2434 C2463 0.950 . S
H2435 C2464 0.950 . S
H2436 C2466 0.950 . S
H2437 C2467 0.950 . S
C2438 H2420 0.951 . S
C2438 C2439 1.366 . S
C2438 C2440 1.388 . S
C2439 C2438 1.366 . S
C2439 C2443 1.385 . S
C2440 H2421 0.951 . S
C2440 C2438 1.388 . S
C2440 C2441 1.366 . S
C2441 C2440 1.366 . S
C2441 C2442 1.414 . S
C2441 C2444 1.499 . S
C2442 H2422 0.950 . S
C2442 C2441 1.414 . S
C2442 C2443 1.374 . S
C2443 H2423 0.950 . S
C2443 C2439 1.385 . S
C2443 C2442 1.374 . S
C2444 C2441 1.499 . S
C2444 C2445 1.373 . S
C2444 C2446 1.389 . S
C2445 H2424 0.950 . S
C2445 C2444 1.373 . S
C2445 C2461 1.377 . S
C2446 C2444 1.389 . S
C2446 C2447 1.524 . S
C2446 C2460 1.377 . S
C2447 C2446 1.524 . S
C2447 C2448 1.397 . S
C2447 C2452 1.363 . S
C2448 H2425 0.950 . S
C2448 C2447 1.397 . S
C2448 C2449 1.334 . S
C2449 H2426 0.950 . S
C2449 C2448 1.334 . S
C2449 C2450 1.287 . S
C2450 C2449 1.287 . S
C2450 C2451 1.524 . S
C2450 H2469 0.913 . S
C2451 H2427 0.950 . S
C2451 C2450 1.524 . S
C2451 C2452 1.415 . S
C2452 H2428 0.950 . S
C2452 C2447 1.363 . S
C2452 C2451 1.415 . S
C2453 H2429 0.951 . S
C2453 C2454 1.366 . S
C2453 C2455 1.388 . S
C2454 C2453 1.366 . S
C2454 C2458 1.385 . S
C2455 H2430 0.951 . S
C2455 C2453 1.388 . S
C2455 C2456 1.366 . S
C2456 C2455 1.366 . S
C2456 C2457 1.414 . S
C2456 C2459 1.499 . S
C2457 H2431 0.950 . S
C2457 C2456 1.414 . S
C2457 C2458 1.374 . S
C2458 H2432 0.950 . S
C2458 C2454 1.385 . S
C2458 C2457 1.374 . S
C2459 C2456 1.499 . S
C2459 C2460 1.373 . S
C2459 C2461 1.389 . S
C2460 H2433 0.950 . S
C2460 C2446 1.377 . S
C2460 C2459 1.373 . S
C2461 C2445 1.377 . S
C2461 C2459 1.389 . S
C2461 C2462 1.524 . S
C2462 C2461 1.524 . S
C2462 C2463 1.397 . S
C2462 C2467 1.363 . S
C2463 H2434 0.950 . S
C2463 C2462 1.397 . S
C2463 C2464 1.334 . S
C2464 H2435 0.950 . S
C2464 C2463 1.334 . S
C2464 C2465 1.287 . S
C2465 C2464 1.287 . S
C2465 C2466 1.524 . S
C2465 H2468 0.999 . S
C2466 H2436 0.950 . S
C2466 C2465 1.524 . S
C2466 C2467 1.415 . S
C2467 H2437 0.950 . S
C2467 C2462 1.363 . S
C2467 C2466 1.415 . S
H2468 C2465 0.999 . S
H2469 C2450 0.913 . S
H2470 C2488 0.951 . S
H2471 C2490 0.951 . S
H2472 C2492 0.950 . S
H2473 C2493 0.950 . S
H2474 C2495 0.950 . S
H2475 C2498 0.950 . S
H2476 C2499 0.950 . S
H2477 C2501 0.950 . S
H2478 C2502 0.950 . S
H2479 C2503 0.951 . S
H2480 C2505 0.951 . S
H2481 C2507 0.950 . S
H2482 C2508 0.950 . S
H2483 C2510 0.950 . S
H2484 C2513 0.950 . S
H2485 C2514 0.950 . S
H2486 C2516 0.950 . S
H2487 C2517 0.950 . S
C2488 H2470 0.951 . S
C2488 C2489 1.366 . S
C2488 C2490 1.388 . S
C2489 C2488 1.366 . S
C2489 C2493 1.385 . S
C2490 H2471 0.951 . S
C2490 C2488 1.388 . S
C2490 C2491 1.366 . S
C2491 C2490 1.366 . S
C2491 C2492 1.414 . S
C2491 C2494 1.499 . S
C2492 H2472 0.950 . S
C2492 C2491 1.414 . S
C2492 C2493 1.374 . S
C2493 H2473 0.950 . S
C2493 C2489 1.385 . S
C2493 C2492 1.374 . S
C2494 C2491 1.499 . S
C2494 C2495 1.373 . S
C2494 C2496 1.389 1_565 S
C2495 H2474 0.950 . S
C2495 C2494 1.373 . S
C2495 C2511 1.377 1_565 S
C2496 C2494 1.389 1_545 S
C2496 C2497 1.524 . S
C2496 C2510 1.377 . S
C2497 C2496 1.524 . S
C2497 C2498 1.397 1_545 S
C2497 C2502 1.363 . S
C2498 H2475 0.950 . S
C2498 C2497 1.397 1_565 S
C2498 C2499 1.334 . S
C2499 H2476 0.950 . S
C2499 C2498 1.334 . S
C2499 C2500 1.277 1_565 S
C2500 C2499 1.277 1_545 S
C2500 C2501 1.545 . S
C2500 H2519 0.902 1_545 S
C2501 H2477 0.950 . S
C2501 C2500 1.545 . S
C2501 C2502 1.415 . S
C2502 H2478 0.950 . S
C2502 C2497 1.363 . S
C2502 C2501 1.415 . S
C2503 H2479 0.951 . S
C2503 C2504 1.366 . S
C2503 C2505 1.388 . S
C2504 C2503 1.366 . S
C2504 C2508 1.385 . S
C2505 H2480 0.951 . S
C2505 C2503 1.388 . S
C2505 C2506 1.366 . S
C2506 C2505 1.366 . S
C2506 C2507 1.414 . S
C2506 C2509 1.499 . S
C2507 H2481 0.950 . S
C2507 C2506 1.414 . S
C2507 C2508 1.374 . S
C2508 H2482 0.950 . S
C2508 C2504 1.385 . S
C2508 C2507 1.374 . S
C2509 C2506 1.499 . S
C2509 C2510 1.373 . S
C2509 C2511 1.389 . S
C2510 H2483 0.950 . S
C2510 C2496 1.377 . S
C2510 C2509 1.373 . S
C2511 C2495 1.377 1_545 S
C2511 C2509 1.389 . S
C2511 C2512 1.524 . S
C2512 C2511 1.524 . S
C2512 C2513 1.397 . S
C2512 C2517 1.363 1_545 S
C2513 H2484 0.950 . S
C2513 C2512 1.397 . S
C2513 C2514 1.334 . S
C2514 H2485 0.950 . S
C2514 C2513 1.334 . S
C2514 C2515 1.287 . S
C2515 C2514 1.287 . S
C2515 C2516 1.524 1_545 S
C2515 H2518 0.999 . S
C2516 H2486 0.950 . S
C2516 C2515 1.524 1_565 S
C2516 C2517 1.415 . S
C2517 H2487 0.950 . S
C2517 C2512 1.363 1_565 S
C2517 C2516 1.415 . S
H2518 C2515 0.999 . S
H2519 C2500 0.902 1_565 S
H2520 C2538 0.951 . S
H2521 C2540 0.951 . S
H2522 C2542 0.950 . S
H2523 C2543 0.950 . S
H2524 C2545 0.950 . S
H2525 C2548 0.950 . S
H2526 C2549 0.950 . S
H2527 C2551 0.950 . S
H2528 C2552 0.950 . S
H2529 C2553 0.951 . S
H2530 C2555 0.951 . S
H2531 C2557 0.950 . S
H2532 C2558 0.950 . S
H2533 C2560 0.950 . S
H2534 C2563 0.950 . S
H2535 C2564 0.950 . S
H2536 C2566 0.950 . S
H2537 C2567 0.950 . S
C2538 H2520 0.951 . S
C2538 C2539 1.366 . S
C2538 C2540 1.388 . S
C2539 C2538 1.366 . S
C2539 C2543 1.385 . S
C2540 H2521 0.951 . S
C2540 C2538 1.388 . S
C2540 C2541 1.366 . S
C2541 C2540 1.366 . S
C2541 C2542 1.414 . S
C2541 C2544 1.499 . S
C2542 H2522 0.950 . S
C2542 C2541 1.414 . S
C2542 C2543 1.374 . S
C2543 H2523 0.950 . S
C2543 C2539 1.385 . S
C2543 C2542 1.374 . S
C2544 C2541 1.499 . S
C2544 C2545 1.373 . S
C2544 C2546 1.389 . S
C2545 H2524 0.950 . S
C2545 C2544 1.373 . S
C2545 C2561 1.377 . S
C2546 C2544 1.389 . S
C2546 C2547 1.524 . S
C2546 C2560 1.377 . S
C2547 C2546 1.524 . S
C2547 C2548 1.397 . S
C2547 C2552 1.363 . S
C2548 H2525 0.950 . S
C2548 C2547 1.397 . S
C2548 C2549 1.334 . S
C2549 H2526 0.950 . S
C2549 C2548 1.334 . S
C2549 C2550 1.287 . S
C2550 C2549 1.287 . S
C2550 C2551 1.524 . S
C2550 H2569 0.913 . S
C2551 H2527 0.950 . S
C2551 C2550 1.524 . S
C2551 C2552 1.415 . S
C2552 H2528 0.950 . S
C2552 C2547 1.363 . S
C2552 C2551 1.415 . S
C2553 H2529 0.951 . S
C2553 C2554 1.366 . S
C2553 C2555 1.388 . S
C2554 C2553 1.366 . S
C2554 C2558 1.385 . S
C2555 H2530 0.951 . S
C2555 C2553 1.388 . S
C2555 C2556 1.366 . S
C2556 C2555 1.366 . S
C2556 C2557 1.414 . S
C2556 C2559 1.499 . S
C2557 H2531 0.950 . S
C2557 C2556 1.414 . S
C2557 C2558 1.374 . S
C2558 H2532 0.950 . S
C2558 C2554 1.385 . S
C2558 C2557 1.374 . S
C2559 C2556 1.499 . S
C2559 C2560 1.373 . S
C2559 C2561 1.389 . S
C2560 H2533 0.950 . S
C2560 C2546 1.377 . S
C2560 C2559 1.373 . S
C2561 C2545 1.377 . S
C2561 C2559 1.389 . S
C2561 C2562 1.524 . S
C2562 C2561 1.524 . S
C2562 C2563 1.397 . S
C2562 C2567 1.363 . S
C2563 H2534 0.950 . S
C2563 C2562 1.397 . S
C2563 C2564 1.334 . S
C2564 H2535 0.950 . S
C2564 C2563 1.334 . S
C2564 C2565 1.287 . S
C2565 C2564 1.287 . S
C2565 C2566 1.524 . S
C2565 H2568 0.999 . S
C2566 H2536 0.950 . S
C2566 C2565 1.524 . S
C2566 C2567 1.415 . S
C2567 H2537 0.950 . S
C2567 C2562 1.363 . S
C2567 C2566 1.415 . S
H2568 C2565 0.999 . S
H2569 C2550 0.913 . S
H2570 C2588 0.951 . S
H2571 C2590 0.951 . S
H2572 C2592 0.950 . S
H2573 C2593 0.950 . S
H2574 C2595 0.950 . S
H2575 C2598 0.950 . S
H2576 C2599 0.950 . S
H2577 C2601 0.950 . S
H2578 C2602 0.950 . S
H2579 C2603 0.951 . S
H2580 C2605 0.951 . S
H2581 C2607 0.950 . S
H2582 C2608 0.950 . S
H2583 C2610 0.950 . S
H2584 C2613 0.950 . S
H2585 C2614 0.950 . S
H2586 C2616 0.950 . S
H2587 C2617 0.950 . S
C2588 H2570 0.951 . S
C2588 C2589 1.366 . S
C2588 C2590 1.388 . S
C2589 C2588 1.366 . S
C2589 C2593 1.385 . S
C2590 H2571 0.951 . S
C2590 C2588 1.388 . S
C2590 C2591 1.366 . S
C2591 C2590 1.366 . S
C2591 C2592 1.414 . S
C2591 C2594 1.499 . S
C2592 H2572 0.950 . S
C2592 C2591 1.414 . S
C2592 C2593 1.374 . S
C2593 H2573 0.950 . S
C2593 C2589 1.385 . S
C2593 C2592 1.374 . S
C2594 C2591 1.499 . S
C2594 C2595 1.373 . S
C2594 C2596 1.389 . S
C2595 H2574 0.950 . S
C2595 C2594 1.373 . S
C2595 C2611 1.377 . S
C2596 C2594 1.389 . S
C2596 C2597 1.524 . S
C2596 C2610 1.377 . S
C2597 C2596 1.524 . S
C2597 C2598 1.397 . S
C2597 C2602 1.363 . S
C2598 H2575 0.950 . S
C2598 C2597 1.397 . S
C2598 C2599 1.334 . S
C2599 H2576 0.950 . S
C2599 C2598 1.334 . S
C2599 C2600 1.287 . S
C2600 C2599 1.287 . S
C2600 C2601 1.524 . S
C2600 H2619 0.913 . S
C2601 H2577 0.950 . S
C2601 C2600 1.524 . S
C2601 C2602 1.415 . S
C2602 H2578 0.950 . S
C2602 C2597 1.363 . S
C2602 C2601 1.415 . S
C2603 H2579 0.951 . S
C2603 C2604 1.366 . S
C2603 C2605 1.388 . S
C2604 C2603 1.366 . S
C2604 C2608 1.385 . S
C2605 H2580 0.951 . S
C2605 C2603 1.388 . S
C2605 C2606 1.366 . S
C2606 C2605 1.366 . S
C2606 C2607 1.414 . S
C2606 C2609 1.499 . S
C2607 H2581 0.950 . S
C2607 C2606 1.414 . S
C2607 C2608 1.374 . S
C2608 H2582 0.950 . S
C2608 C2604 1.385 . S
C2608 C2607 1.374 . S
C2609 C2606 1.499 . S
C2609 C2610 1.373 . S
C2609 C2611 1.389 . S
C2610 H2583 0.950 . S
C2610 C2596 1.377 . S
C2610 C2609 1.373 . S
C2611 C2595 1.377 . S
C2611 C2609 1.389 . S
C2611 C2612 1.524 . S
C2612 C2611 1.524 . S
C2612 C2613 1.397 . S
C2612 C2617 1.363 . S
C2613 H2584 0.950 . S
C2613 C2612 1.397 . S
C2613 C2614 1.334 . S
C2614 H2585 0.950 . S
C2614 C2613 1.334 . S
C2614 C2615 1.287 . S
C2615 C2614 1.287 . S
C2615 C2616 1.524 . S
C2615 H2618 0.999 . S
C2616 H2586 0.950 . S
C2616 C2615 1.524 . S
C2616 C2617 1.415 . S
C2617 H2587 0.950 . S
C2617 C2612 1.363 . S
C2617 C2616 1.415 . S
H2618 C2615 0.999 . S
H2619 C2600 0.913 . S
H2620 C2638 0.951 . S
H2621 C2640 0.951 . S
H2622 C2642 0.950 . S
H2623 C2643 0.950 . S
H2624 C2645 0.950 . S
H2625 C2648 0.950 . S
H2626 C2649 0.950 . S
H2627 C2651 0.950 . S
H2628 C2652 0.950 . S
H2629 C2653 0.951 . S
H2630 C2655 0.951 . S
H2631 C2657 0.950 . S
H2632 C2658 0.950 . S
H2633 C2660 0.950 . S
H2634 C2663 0.950 . S
H2635 C2664 0.950 . S
H2636 C2666 0.950 . S
H2637 C2667 0.950 . S
C2638 H2620 0.951 . S
C2638 C2639 1.366 . S
C2638 C2640 1.388 . S
C2639 C2638 1.366 . S
C2639 C2643 1.385 . S
C2640 H2621 0.951 . S
C2640 C2638 1.388 . S
C2640 C2641 1.366 . S
C2641 C2640 1.366 . S
C2641 C2642 1.414 . S
C2641 C2644 1.499 . S
C2642 H2622 0.950 . S
C2642 C2641 1.414 . S
C2642 C2643 1.374 . S
C2643 H2623 0.950 . S
C2643 C2639 1.385 . S
C2643 C2642 1.374 . S
C2644 C2641 1.499 . S
C2644 C2645 1.373 . S
C2644 C2646 1.389 . S
C2645 H2624 0.950 . S
C2645 C2644 1.373 . S
C2645 C2661 1.377 . S
C2646 C2644 1.389 . S
C2646 C2647 1.524 . S
C2646 C2660 1.377 . S
C2647 C2646 1.524 . S
C2647 C2648 1.397 . S
C2647 C2652 1.363 . S
C2648 H2625 0.950 . S
C2648 C2647 1.397 . S
C2648 C2649 1.334 . S
C2649 H2626 0.950 . S
C2649 C2648 1.334 . S
C2649 C2650 1.287 . S
C2650 C2649 1.287 . S
C2650 C2651 1.524 . S
C2650 H2669 0.913 . S
C2651 H2627 0.950 . S
C2651 C2650 1.524 . S
C2651 C2652 1.415 . S
C2652 H2628 0.950 . S
C2652 C2647 1.363 . S
C2652 C2651 1.415 . S
C2653 H2629 0.951 . S
C2653 C2654 1.366 . S
C2653 C2655 1.388 . S
C2654 C2653 1.366 . S
C2654 C2658 1.385 . S
C2655 H2630 0.951 . S
C2655 C2653 1.388 . S
C2655 C2656 1.366 . S
C2656 C2655 1.366 . S
C2656 C2657 1.414 . S
C2656 C2659 1.499 . S
C2657 H2631 0.950 . S
C2657 C2656 1.414 . S
C2657 C2658 1.374 . S
C2658 H2632 0.950 . S
C2658 C2654 1.385 . S
C2658 C2657 1.374 . S
C2659 C2656 1.499 . S
C2659 C2660 1.373 . S
C2659 C2661 1.389 . S
C2660 H2633 0.950 . S
C2660 C2646 1.377 . S
C2660 C2659 1.373 . S
C2661 C2645 1.377 . S
C2661 C2659 1.389 . S
C2661 C2662 1.524 . S
C2662 C2661 1.524 . S
C2662 C2663 1.397 . S
C2662 C2667 1.363 . S
C2663 H2634 0.950 . S
C2663 C2662 1.397 . S
C2663 C2664 1.334 . S
C2664 H2635 0.950 . S
C2664 C2663 1.334 . S
C2664 C2665 1.287 . S
C2665 C2664 1.287 . S
C2665 C2666 1.524 . S
C2665 H2668 0.999 . S
C2666 H2636 0.950 . S
C2666 C2665 1.524 . S
C2666 C2667 1.415 . S
C2667 H2637 0.950 . S
C2667 C2662 1.363 . S
C2667 C2666 1.415 . S
H2668 C2665 0.999 . S
H2669 C2650 0.913 . S
H2670 C2688 0.951 . S
H2671 C2690 0.951 . S
H2672 C2692 0.950 . S
H2673 C2693 0.950 . S
H2674 C2695 0.950 . S
H2675 C2698 0.950 . S
H2676 C2699 0.950 . S
H2677 C2701 0.950 . S
H2678 C2702 0.950 . S
H2679 C2703 0.951 . S
H2680 C2705 0.951 . S
H2681 C2707 0.950 . S
H2682 C2708 0.950 . S
H2683 C2710 0.950 . S
H2684 C2713 0.950 . S
H2685 C2714 0.950 . S
H2686 C2716 0.950 . S
H2687 C2717 0.950 . S
C2688 H2670 0.951 . S
C2688 C2689 1.366 . S
C2688 C2690 1.388 . S
C2689 C2688 1.366 . S
C2689 C2693 1.385 . S
C2690 H2671 0.951 . S
C2690 C2688 1.388 . S
C2690 C2691 1.366 . S
C2691 C2690 1.366 . S
C2691 C2692 1.414 . S
C2691 C2694 1.499 . S
C2692 H2672 0.950 . S
C2692 C2691 1.414 . S
C2692 C2693 1.374 . S
C2693 H2673 0.950 . S
C2693 C2689 1.385 . S
C2693 C2692 1.374 . S
C2694 C2691 1.499 . S
C2694 C2695 1.373 . S
C2694 C2696 1.389 . S
C2695 H2674 0.950 . S
C2695 C2694 1.373 . S
C2695 C2711 1.377 . S
C2696 C2694 1.389 . S
C2696 C2697 1.524 . S
C2696 C2710 1.377 . S
C2697 C2696 1.524 . S
C2697 C2698 1.397 . S
C2697 C2702 1.363 . S
C2698 H2675 0.950 . S
C2698 C2697 1.397 . S
C2698 C2699 1.334 . S
C2699 H2676 0.950 . S
C2699 C2698 1.334 . S
C2699 C2700 1.287 . S
C2700 C2699 1.287 . S
C2700 C2701 1.524 . S
C2700 H2719 0.913 . S
C2701 H2677 0.950 . S
C2701 C2700 1.524 . S
C2701 C2702 1.415 . S
C2702 H2678 0.950 . S
C2702 C2697 1.363 . S
C2702 C2701 1.415 . S
C2703 H2679 0.951 . S
C2703 C2704 1.366 . S
C2703 C2705 1.388 . S
C2704 C2703 1.366 . S
C2704 C2708 1.385 . S
C2705 H2680 0.951 . S
C2705 C2703 1.388 . S
C2705 C2706 1.366 . S
C2706 C2705 1.366 . S
C2706 C2707 1.414 . S
C2706 C2709 1.499 . S
C2707 H2681 0.950 . S
C2707 C2706 1.414 . S
C2707 C2708 1.374 . S
C2708 H2682 0.950 . S
C2708 C2704 1.385 . S
C2708 C2707 1.374 . S
C2709 C2706 1.499 . S
C2709 C2710 1.373 . S
C2709 C2711 1.389 . S
C2710 H2683 0.950 . S
C2710 C2696 1.377 . S
C2710 C2709 1.373 . S
C2711 C2695 1.377 . S
C2711 C2709 1.389 . S
C2711 C2712 1.524 . S
C2712 C2711 1.524 . S
C2712 C2713 1.397 . S
C2712 C2717 1.363 . S
C2713 H2684 0.950 . S
C2713 C2712 1.397 . S
C2713 C2714 1.334 . S
C2714 H2685 0.950 . S
C2714 C2713 1.334 . S
C2714 C2715 1.287 . S
C2715 C2714 1.287 . S
C2715 C2716 1.524 . S
C2715 H2718 0.999 . S
C2716 H2686 0.950 . S
C2716 C2715 1.524 . S
C2716 C2717 1.415 . S
C2717 H2687 0.950 . S
C2717 C2712 1.363 . S
C2717 C2716 1.415 . S
H2718 C2715 0.999 . S
H2719 C2700 0.913 . S
H2720 C2738 0.951 . S
H2721 C2740 0.951 . S
H2722 C2742 0.950 . S
H2723 C2743 0.950 . S
H2724 C2745 0.950 . S
H2725 C2748 0.950 . S
H2726 C2749 0.950 . S
H2727 C2751 0.950 . S
H2728 C2752 0.950 . S
H2729 C2753 0.951 . S
H2730 C2755 0.951 . S
H2731 C2757 0.950 . S
H2732 C2758 0.950 . S
H2733 C2760 0.950 . S
H2734 C2763 0.950 . S
H2735 C2764 0.950 . S
H2736 C2766 0.950 . S
H2737 C2767 0.950 . S
C2738 H2720 0.951 . S
C2738 C2739 1.366 . S
C2738 C2740 1.388 . S
C2739 C2738 1.366 . S
C2739 C2743 1.385 . S
C2740 H2721 0.951 . S
C2740 C2738 1.388 . S
C2740 C2741 1.366 . S
C2741 C2740 1.366 . S
C2741 C2742 1.414 . S
C2741 C2744 1.499 . S
C2742 H2722 0.950 . S
C2742 C2741 1.414 . S
C2742 C2743 1.374 . S
C2743 H2723 0.950 . S
C2743 C2739 1.385 . S
C2743 C2742 1.374 . S
C2744 C2741 1.499 . S
C2744 C2745 1.373 . S
C2744 C2746 1.389 . S
C2745 H2724 0.950 . S
C2745 C2744 1.373 . S
C2745 C2761 1.377 . S
C2746 C2744 1.389 . S
C2746 C2747 1.524 . S
C2746 C2760 1.377 . S
C2747 C2746 1.524 . S
C2747 C2748 1.397 . S
C2747 C2752 1.363 . S
C2748 H2725 0.950 . S
C2748 C2747 1.397 . S
C2748 C2749 1.334 . S
C2749 H2726 0.950 . S
C2749 C2748 1.334 . S
C2749 C2750 1.287 . S
C2750 C2749 1.287 . S
C2750 C2751 1.524 . S
C2750 H2769 0.913 . S
C2751 H2727 0.950 . S
C2751 C2750 1.524 . S
C2751 C2752 1.415 . S
C2752 H2728 0.950 . S
C2752 C2747 1.363 . S
C2752 C2751 1.415 . S
C2753 H2729 0.951 . S
C2753 C2754 1.366 . S
C2753 C2755 1.388 . S
C2754 C2753 1.366 . S
C2754 C2758 1.385 . S
C2755 H2730 0.951 . S
C2755 C2753 1.388 . S
C2755 C2756 1.366 . S
C2756 C2755 1.366 . S
C2756 C2757 1.414 . S
C2756 C2759 1.499 . S
C2757 H2731 0.950 . S
C2757 C2756 1.414 . S
C2757 C2758 1.374 . S
C2758 H2732 0.950 . S
C2758 C2754 1.385 . S
C2758 C2757 1.374 . S
C2759 C2756 1.499 . S
C2759 C2760 1.373 . S
C2759 C2761 1.389 . S
C2760 H2733 0.950 . S
C2760 C2746 1.377 . S
C2760 C2759 1.373 . S
C2761 C2745 1.377 . S
C2761 C2759 1.389 . S
C2761 C2762 1.524 . S
C2762 C2761 1.524 . S
C2762 C2763 1.397 . S
C2762 C2767 1.363 . S
C2763 H2734 0.950 . S
C2763 C2762 1.397 . S
C2763 C2764 1.334 . S
C2764 H2735 0.950 . S
C2764 C2763 1.334 . S
C2764 C2765 1.287 . S
C2765 C2764 1.287 . S
C2765 C2766 1.524 . S
C2765 H2768 0.999 . S
C2766 H2736 0.950 . S
C2766 C2765 1.524 . S
C2766 C2767 1.415 . S
C2767 H2737 0.950 . S
C2767 C2762 1.363 . S
C2767 C2766 1.415 . S
H2768 C2765 0.999 . S
H2769 C2750 0.913 . S
H2770 C2788 0.951 . S
H2771 C2790 0.951 . S
H2772 C2792 0.950 . S
H2773 C2793 0.950 . S
H2774 C2795 0.950 . S
H2775 C2798 0.950 . S
H2776 C2799 0.950 . S
H2777 C2801 0.950 . S
H2778 C2802 0.950 . S
H2779 C2803 0.951 . S
H2780 C2805 0.951 . S
H2781 C2807 0.950 . S
H2782 C2808 0.950 . S
H2783 C2810 0.950 . S
H2784 C2813 0.950 . S
H2785 C2814 0.950 . S
H2786 C2816 0.950 . S
H2787 C2817 0.950 . S
C2788 H2770 0.951 . S
C2788 C2789 1.366 . S
C2788 C2790 1.388 . S
C2789 C2788 1.366 . S
C2789 C2793 1.385 . S
C2790 H2771 0.951 . S
C2790 C2788 1.388 . S
C2790 C2791 1.366 . S
C2791 C2790 1.366 . S
C2791 C2792 1.414 . S
C2791 C2794 1.499 . S
C2792 H2772 0.950 . S
C2792 C2791 1.414 . S
C2792 C2793 1.374 . S
C2793 H2773 0.950 . S
C2793 C2789 1.385 . S
C2793 C2792 1.374 . S
C2794 C2791 1.499 . S
C2794 C2795 1.373 . S
C2794 C2796 1.389 . S
C2795 H2774 0.950 . S
C2795 C2794 1.373 . S
C2795 C2811 1.377 . S
C2796 C2794 1.389 . S
C2796 C2797 1.524 . S
C2796 C2810 1.377 . S
C2797 C2796 1.524 . S
C2797 C2798 1.397 . S
C2797 C2802 1.363 . S
C2798 H2775 0.950 . S
C2798 C2797 1.397 . S
C2798 C2799 1.334 . S
C2799 H2776 0.950 . S
C2799 C2798 1.334 . S
C2799 C2800 1.287 . S
C2800 C2799 1.287 . S
C2800 C2801 1.524 . S
C2800 H2819 0.913 . S
C2801 H2777 0.950 . S
C2801 C2800 1.524 . S
C2801 C2802 1.415 . S
C2802 H2778 0.950 . S
C2802 C2797 1.363 . S
C2802 C2801 1.415 . S
C2803 H2779 0.951 . S
C2803 C2804 1.366 . S
C2803 C2805 1.388 . S
C2804 C2803 1.366 . S
C2804 C2808 1.385 . S
C2805 H2780 0.951 . S
C2805 C2803 1.388 . S
C2805 C2806 1.366 . S
C2806 C2805 1.366 . S
C2806 C2807 1.414 . S
C2806 C2809 1.499 . S
C2807 H2781 0.950 . S
C2807 C2806 1.414 . S
C2807 C2808 1.374 . S
C2808 H2782 0.950 . S
C2808 C2804 1.385 . S
C2808 C2807 1.374 . S
C2809 C2806 1.499 . S
C2809 C2810 1.373 . S
C2809 C2811 1.389 . S
C2810 H2783 0.950 . S
C2810 C2796 1.377 . S
C2810 C2809 1.373 . S
C2811 C2795 1.377 . S
C2811 C2809 1.389 . S
C2811 C2812 1.524 . S
C2812 C2811 1.524 . S
C2812 C2813 1.397 . S
C2812 C2817 1.363 . S
C2813 H2784 0.950 . S
C2813 C2812 1.397 . S
C2813 C2814 1.334 . S
C2814 H2785 0.950 . S
C2814 C2813 1.334 . S
C2814 C2815 1.287 . S
C2815 C2814 1.287 . S
C2815 C2816 1.524 . S
C2815 H2818 0.999 . S
C2816 H2786 0.950 . S
C2816 C2815 1.524 . S
C2816 C2817 1.415 . S
C2817 H2787 0.950 . S
C2817 C2812 1.363 . S
C2817 C2816 1.415 . S
H2818 C2815 0.999 . S
H2819 C2800 0.913 . S
H2820 C2838 0.951 . S
H2821 C2840 0.951 . S
H2822 C2842 0.950 . S
H2823 C2843 0.950 . S
H2824 C2845 0.950 . S
H2825 C2848 0.950 . S
H2826 C2849 0.950 . S
H2827 C2851 0.950 . S
H2828 C2852 0.950 . S
H2829 C2853 0.951 . S
H2830 C2855 0.951 . S
H2831 C2857 0.950 . S
H2832 C2858 0.950 . S
H2833 C2860 0.950 . S
H2834 C2863 0.950 . S
H2835 C2864 0.950 . S
H2836 C2866 0.950 . S
H2837 C2867 0.950 . S
C2838 H2820 0.951 . S
C2838 C2839 1.366 . S
C2838 C2840 1.388 . S
C2839 C2838 1.366 . S
C2839 C2843 1.385 . S
C2840 H2821 0.951 . S
C2840 C2838 1.388 . S
C2840 C2841 1.366 . S
C2841 C2840 1.366 . S
C2841 C2842 1.414 . S
C2841 C2844 1.499 . S
C2842 H2822 0.950 . S
C2842 C2841 1.414 . S
C2842 C2843 1.374 . S
C2843 H2823 0.950 . S
C2843 C2839 1.385 . S
C2843 C2842 1.374 . S
C2844 C2841 1.499 . S
C2844 C2845 1.373 . S
C2844 C2846 1.389 . S
C2845 H2824 0.950 . S
C2845 C2844 1.373 . S
C2845 C2861 1.377 . S
C2846 C2844 1.389 . S
C2846 C2847 1.524 . S
C2846 C2860 1.377 . S
C2847 C2846 1.524 . S
C2847 C2848 1.397 . S
C2847 C2852 1.363 . S
C2848 H2825 0.950 . S
C2848 C2847 1.397 . S
C2848 C2849 1.334 . S
C2849 H2826 0.950 . S
C2849 C2848 1.334 . S
C2849 C2850 1.287 . S
C2850 C2849 1.287 . S
C2850 C2851 1.524 . S
C2850 H2869 0.913 . S
C2851 H2827 0.950 . S
C2851 C2850 1.524 . S
C2851 C2852 1.415 . S
C2852 H2828 0.950 . S
C2852 C2847 1.363 . S
C2852 C2851 1.415 . S
C2853 H2829 0.951 . S
C2853 C2854 1.366 . S
C2853 C2855 1.388 . S
C2854 C2853 1.366 . S
C2854 C2858 1.385 . S
C2855 H2830 0.951 . S
C2855 C2853 1.388 . S
C2855 C2856 1.366 . S
C2856 C2855 1.366 . S
C2856 C2857 1.414 . S
C2856 C2859 1.499 . S
C2857 H2831 0.950 . S
C2857 C2856 1.414 . S
C2857 C2858 1.374 . S
C2858 H2832 0.950 . S
C2858 C2854 1.385 . S
C2858 C2857 1.374 . S
C2859 C2856 1.499 . S
C2859 C2860 1.373 . S
C2859 C2861 1.389 . S
C2860 H2833 0.950 . S
C2860 C2846 1.377 . S
C2860 C2859 1.373 . S
C2861 C2845 1.377 . S
C2861 C2859 1.389 . S
C2861 C2862 1.524 . S
C2862 C2861 1.524 . S
C2862 C2863 1.397 . S
C2862 C2867 1.363 . S
C2863 H2834 0.950 . S
C2863 C2862 1.397 . S
C2863 C2864 1.334 . S
C2864 H2835 0.950 . S
C2864 C2863 1.334 . S
C2864 C2865 1.287 . S
C2865 C2864 1.287 . S
C2865 C2866 1.524 . S
C2865 H2868 0.999 . S
C2866 H2836 0.950 . S
C2866 C2865 1.524 . S
C2866 C2867 1.415 . S
C2867 H2837 0.950 . S
C2867 C2862 1.363 . S
C2867 C2866 1.415 . S
H2868 C2865 0.999 . S
H2869 C2850 0.913 . S
H2870 C2888 0.951 . S
H2871 C2890 0.951 . S
H2872 C2892 0.950 . S
H2873 C2893 0.950 . S
H2874 C2895 0.950 . S
H2875 C2898 0.950 . S
H2876 C2899 0.950 . S
H2877 C2901 0.950 . S
H2878 C2902 0.950 . S
H2879 C2903 0.951 . S
H2880 C2905 0.951 . S
H2881 C2907 0.950 . S
H2882 C2908 0.950 . S
H2883 C2910 0.950 . S
H2884 C2913 0.950 . S
H2885 C2914 0.950 . S
H2886 C2916 0.950 . S
H2887 C2917 0.950 . S
C2888 H2870 0.951 . S
C2888 C2889 1.366 . S
C2888 C2890 1.388 . S
C2889 C2888 1.366 . S
C2889 C2893 1.385 . S
C2890 H2871 0.951 . S
C2890 C2888 1.388 . S
C2890 C2891 1.366 . S
C2891 C2890 1.366 . S
C2891 C2892 1.414 . S
C2891 C2894 1.499 . S
C2892 H2872 0.950 . S
C2892 C2891 1.414 . S
C2892 C2893 1.374 . S
C2893 H2873 0.950 . S
C2893 C2889 1.385 . S
C2893 C2892 1.374 . S
C2894 C2891 1.499 . S
C2894 C2895 1.373 . S
C2894 C2896 1.389 . S
C2895 H2874 0.950 . S
C2895 C2894 1.373 . S
C2895 C2911 1.377 . S
C2896 C2894 1.389 . S
C2896 C2897 1.524 . S
C2896 C2910 1.377 . S
C2897 C2896 1.524 . S
C2897 C2898 1.397 . S
C2897 C2902 1.363 . S
C2898 H2875 0.950 . S
C2898 C2897 1.397 . S
C2898 C2899 1.334 . S
C2899 H2876 0.950 . S
C2899 C2898 1.334 . S
C2899 C2900 1.287 . S
C2900 C2899 1.287 . S
C2900 C2901 1.524 . S
C2900 H2919 0.913 . S
C2901 H2877 0.950 . S
C2901 C2900 1.524 . S
C2901 C2902 1.415 . S
C2902 H2878 0.950 . S
C2902 C2897 1.363 . S
C2902 C2901 1.415 . S
C2903 H2879 0.951 . S
C2903 C2904 1.366 . S
C2903 C2905 1.388 . S
C2904 C2903 1.366 . S
C2904 C2908 1.385 . S
C2905 H2880 0.951 . S
C2905 C2903 1.388 . S
C2905 C2906 1.366 . S
C2906 C2905 1.366 . S
C2906 C2907 1.414 . S
C2906 C2909 1.499 . S
C2907 H2881 0.950 . S
C2907 C2906 1.414 . S
C2907 C2908 1.374 . S
C2908 H2882 0.950 . S
C2908 C2904 1.385 . S
C2908 C2907 1.374 . S
C2909 C2906 1.499 . S
C2909 C2910 1.373 . S
C2909 C2911 1.389 . S
C2910 H2883 0.950 . S
C2910 C2896 1.377 . S
C2910 C2909 1.373 . S
C2911 C2895 1.377 . S
C2911 C2909 1.389 . S
C2911 C2912 1.524 . S
C2912 C2911 1.524 . S
C2912 C2913 1.397 . S
C2912 C2917 1.363 . S
C2913 H2884 0.950 . S
C2913 C2912 1.397 . S
C2913 C2914 1.334 . S
C2914 H2885 0.950 . S
C2914 C2913 1.334 . S
C2914 C2915 1.287 . S
C2915 C2914 1.287 . S
C2915 C2916 1.524 . S
C2915 H2918 0.999 . S
C2916 H2886 0.950 . S
C2916 C2915 1.524 . S
C2916 C2917 1.415 . S
C2917 H2887 0.950 . S
C2917 C2912 1.363 . S
C2917 C2916 1.415 . S
H2918 C2915 0.999 . S
H2919 C2900 0.913 . S
H2920 C2938 0.951 . S
H2921 C2940 0.951 . S
H2922 C2942 0.950 . S
H2923 C2943 0.950 . S
H2924 C2945 0.950 . S
H2925 C2948 0.950 . S
H2926 C2949 0.950 . S
H2927 C2951 0.950 . S
H2928 C2952 0.950 . S
H2929 C2953 0.951 . S
H2930 C2955 0.951 . S
H2931 C2957 0.950 . S
H2932 C2958 0.950 . S
H2933 C2960 0.950 . S
H2934 C2963 0.950 . S
H2935 C2964 0.950 . S
H2936 C2966 0.950 . S
H2937 C2967 0.950 . S
C2938 H2920 0.951 . S
C2938 C2939 1.366 . S
C2938 C2940 1.388 . S
C2939 C2938 1.366 . S
C2939 C2943 1.385 . S
C2940 H2921 0.951 . S
C2940 C2938 1.388 . S
C2940 C2941 1.366 . S
C2941 C2940 1.366 . S
C2941 C2942 1.414 . S
C2941 C2944 1.499 . S
C2942 H2922 0.950 . S
C2942 C2941 1.414 . S
C2942 C2943 1.374 . S
C2943 H2923 0.950 . S
C2943 C2939 1.385 . S
C2943 C2942 1.374 . S
C2944 C2941 1.499 . S
C2944 C2945 1.373 . S
C2944 C2946 1.389 . S
C2945 H2924 0.950 . S
C2945 C2944 1.373 . S
C2945 C2961 1.377 . S
C2946 C2944 1.389 . S
C2946 C2947 1.524 . S
C2946 C2960 1.377 . S
C2947 C2946 1.524 . S
C2947 C2948 1.397 . S
C2947 C2952 1.363 . S
C2948 H2925 0.950 . S
C2948 C2947 1.397 . S
C2948 C2949 1.334 . S
C2949 H2926 0.950 . S
C2949 C2948 1.334 . S
C2949 C2950 1.287 . S
C2950 C2949 1.287 . S
C2950 C2951 1.524 . S
C2950 H2969 0.913 . S
C2951 H2927 0.950 . S
C2951 C2950 1.524 . S
C2951 C2952 1.415 . S
C2952 H2928 0.950 . S
C2952 C2947 1.363 . S
C2952 C2951 1.415 . S
C2953 H2929 0.951 . S
C2953 C2954 1.366 . S
C2953 C2955 1.388 . S
C2954 C2953 1.366 . S
C2954 C2958 1.385 . S
C2955 H2930 0.951 . S
C2955 C2953 1.388 . S
C2955 C2956 1.366 . S
C2956 C2955 1.366 . S
C2956 C2957 1.414 . S
C2956 C2959 1.499 . S
C2957 H2931 0.950 . S
C2957 C2956 1.414 . S
C2957 C2958 1.374 . S
C2958 H2932 0.950 . S
C2958 C2954 1.385 . S
C2958 C2957 1.374 . S
C2959 C2956 1.499 . S
C2959 C2960 1.373 . S
C2959 C2961 1.389 . S
C2960 H2933 0.950 . S
C2960 C2946 1.377 . S
C2960 C2959 1.373 . S
C2961 C2945 1.377 . S
C2961 C2959 1.389 . S
C2961 C2962 1.524 . S
C2962 C2961 1.524 . S
C2962 C2963 1.397 . S
C2962 C2967 1.363 . S
C2963 H2934 0.950 . S
C2963 C2962 1.397 . S
C2963 C2964 1.334 . S
C2964 H2935 0.950 . S
C2964 C2963 1.334 . S
C2964 C2965 1.287 . S
C2965 C2964 1.287 . S
C2965 C2966 1.524 . S
C2965 H2968 0.999 . S
C2966 H2936 0.950 . S
C2966 C2965 1.524 . S
C2966 C2967 1.415 . S
C2967 H2937 0.950 . S
C2967 C2962 1.363 . S
C2967 C2966 1.415 . S
H2968 C2965 0.999 . S
H2969 C2950 0.913 . S
H2970 C2988 0.951 . S
H2971 C2990 0.951 . S
H2972 C2992 0.950 . S
H2973 C2993 0.950 . S
H2974 C2995 0.950 . S
H2975 C2998 0.950 . S
H2976 C2999 0.950 . S
H2977 C3001 0.950 . S
H2978 C3002 0.950 . S
H2979 C3003 0.951 1_455 S
H2980 C3005 0.951 . S
H2981 C3007 0.950 . S
H2982 C3008 0.949 1_455 S
H2983 C3010 0.950 . S
H2984 C3013 0.950 . S
H2985 C3014 0.950 . S
H2986 C3016 0.950 . S
H2987 C3017 0.950 . S
C2988 H2970 0.951 . S
C2988 C2989 1.366 . S
C2988 C2990 1.388 . S
C2989 C2988 1.366 . S
C2989 C2993 1.385 . S
C2990 H2971 0.951 . S
C2990 C2988 1.388 . S
C2990 C2991 1.366 . S
C2991 C2990 1.366 . S
C2991 C2992 1.414 . S
C2991 C2994 1.499 . S
C2992 H2972 0.950 . S
C2992 C2991 1.414 . S
C2992 C2993 1.374 . S
C2993 H2973 0.950 . S
C2993 C2989 1.385 . S
C2993 C2992 1.374 . S
C2994 C2991 1.499 . S
C2994 C2995 1.373 . S
C2994 C2996 1.389 . S
C2995 H2974 0.950 . S
C2995 C2994 1.373 . S
C2995 C3011 1.377 . S
C2996 C2994 1.389 . S
C2996 C2997 1.524 . S
C2996 C3010 1.377 . S
C2997 C2996 1.524 . S
C2997 C2998 1.397 . S
C2997 C3002 1.363 . S
C2998 H2975 0.950 . S
C2998 C2997 1.397 . S
C2998 C2999 1.334 . S
C2999 H2976 0.950 . S
C2999 C2998 1.334 . S
C2999 C3000 1.287 . S
C3000 C2999 1.287 . S
C3000 C3001 1.524 . S
C3000 H3019 0.913 . S
C3001 H2977 0.950 . S
C3001 C3000 1.524 . S
C3001 C3002 1.415 . S
C3002 H2978 0.950 . S
C3002 C2997 1.363 . S
C3002 C3001 1.415 . S
C3003 H2979 0.951 1_655 S
C3003 C3004 1.366 1_655 S
C3003 C3005 1.388 . S
C3004 C3003 1.366 1_455 S
C3004 C3008 1.382 1_455 S
C3005 H2980 0.951 . S
C3005 C3003 1.388 . S
C3005 C3006 1.366 . S
C3006 C3005 1.366 . S
C3006 C3007 1.414 . S
C3006 C3009 1.499 . S
C3007 H2981 0.950 . S
C3007 C3006 1.414 . S
C3007 C3008 1.378 . S
C3008 H2982 0.949 1_655 S
C3008 C3004 1.382 1_655 S
C3008 C3007 1.378 . S
C3009 C3006 1.499 . S
C3009 C3010 1.373 . S
C3009 C3011 1.389 . S
C3010 H2983 0.950 . S
C3010 C2996 1.377 . S
C3010 C3009 1.373 . S
C3011 C2995 1.377 . S
C3011 C3009 1.389 . S
C3011 C3012 1.524 . S
C3012 C3011 1.524 . S
C3012 C3013 1.397 . S
C3012 C3017 1.363 . S
C3013 H2984 0.950 . S
C3013 C3012 1.397 . S
C3013 C3014 1.334 . S
C3014 H2985 0.950 . S
C3014 C3013 1.334 . S
C3014 C3015 1.287 . S
C3015 C3014 1.287 . S
C3015 C3016 1.524 . S
C3015 H3018 0.999 . S
C3016 H2986 0.950 . S
C3016 C3015 1.524 . S
C3016 C3017 1.415 . S
C3017 H2987 0.950 . S
C3017 C3012 1.363 . S
C3017 C3016 1.415 . S
H3018 C3015 0.999 . S
H3019 C3000 0.913 . S
H3020 C3038 0.951 . S
H3021 C3040 0.951 . S
H3022 C3042 0.950 . S
H3023 C3043 0.950 . S
H3024 C3045 0.950 . S
H3025 C3048 0.950 1_545 S
H3026 C3049 0.950 . S
H3027 C3051 0.950 . S
H3028 C3052 0.950 . S
H3029 C3053 0.951 . S
H3030 C3055 0.951 . S
H3031 C3057 0.950 . S
H3032 C3058 0.950 . S
H3033 C3060 0.950 . S
H3034 C3063 0.950 . S
H3035 C3064 0.950 . S
H3036 C3066 0.950 . S
H3037 C3067 0.950 . S
C3038 H3020 0.951 . S
C3038 C3039 1.366 . S
C3038 C3040 1.388 . S
C3039 C3038 1.366 . S
C3039 C3043 1.385 . S
C3040 H3021 0.951 . S
C3040 C3038 1.388 . S
C3040 C3041 1.366 1_565 S
C3041 C3040 1.366 1_545 S
C3041 C3042 1.414 . S
C3041 C3044 1.499 . S
C3042 H3022 0.950 . S
C3042 C3041 1.414 . S
C3042 C3043 1.374 1_545 S
C3043 H3023 0.950 . S
C3043 C3039 1.385 . S
C3043 C3042 1.374 1_565 S
C3044 C3041 1.499 . S
C3044 C3045 1.373 . S
C3044 C3046 1.389 . S
C3045 H3024 0.950 . S
C3045 C3044 1.373 . S
C3045 C3061 1.377 . S
C3046 C3044 1.389 . S
C3046 C3047 1.524 . S
C3046 C3060 1.377 . S
C3047 C3046 1.524 . S
C3047 C3048 1.397 1_545 S
C3047 C3052 1.363 1_545 S
C3048 H3025 0.950 1_565 S
C3048 C3047 1.397 1_565 S
C3048 C3049 1.334 . S
C3049 H3026 0.950 . S
C3049 C3048 1.334 . S
C3049 C3050 1.287 . S
C3050 C3049 1.287 . S
C3050 C3051 1.524 . S
C3050 H3069 0.913 . S
C3051 H3027 0.950 . S
C3051 C3050 1.524 . S
C3051 C3052 1.415 . S
C3052 H3028 0.950 . S
C3052 C3047 1.363 1_565 S
C3052 C3051 1.415 . S
C3053 H3029 0.951 . S
C3053 C3054 1.366 . S
C3053 C3055 1.388 . S
C3054 C3053 1.366 . S
C3054 C3058 1.385 . S
C3055 H3030 0.951 . S
C3055 C3053 1.388 . S
C3055 C3056 1.366 . S
C3056 C3055 1.366 . S
C3056 C3057 1.414 . S
C3056 C3059 1.499 . S
C3057 H3031 0.950 . S
C3057 C3056 1.414 . S
C3057 C3058 1.374 . S
C3058 H3032 0.950 . S
C3058 C3054 1.385 . S
C3058 C3057 1.374 . S
C3059 C3056 1.499 . S
C3059 C3060 1.373 . S
C3059 C3061 1.389 . S
C3060 H3033 0.950 . S
C3060 C3046 1.377 . S
C3060 C3059 1.373 . S
C3061 C3045 1.377 . S
C3061 C3059 1.389 . S
C3061 C3062 1.524 . S
C3062 C3061 1.524 . S
C3062 C3063 1.397 . S
C3062 C3067 1.363 . S
C3063 H3034 0.950 . S
C3063 C3062 1.397 . S
C3063 C3064 1.334 . S
C3064 H3035 0.950 . S
C3064 C3063 1.334 . S
C3064 C3065 1.287 . S
C3065 C3064 1.287 . S
C3065 C3066 1.524 . S
C3065 H3068 0.999 . S
C3066 H3036 0.950 . S
C3066 C3065 1.524 . S
C3066 C3067 1.415 . S
C3067 H3037 0.950 . S
C3067 C3062 1.363 . S
C3067 C3066 1.415 . S
H3068 C3065 0.999 . S
H3069 C3050 0.913 . S
H3070 C3088 0.951 . S
H3071 C3090 0.951 . S
H3072 C3092 0.950 . S
H3073 C3093 0.950 . S
H3074 C3095 0.950 . S
H3075 C3098 0.950 . S
H3076 C3099 0.950 . S
H3077 C3101 0.950 . S
H3078 C3102 0.950 . S
H3079 C3103 0.951 . S
H3080 C3105 0.951 . S
H3081 C3107 0.950 . S
H3082 C3108 0.950 . S
H3083 C3110 0.950 1_455 S
H3084 C3113 0.950 . S
H3085 C3114 0.950 . S
H3086 C3116 0.950 1_455 S
H3087 C3117 0.950 . S
C3088 H3070 0.951 . S
C3088 C3089 1.366 . S
C3088 C3090 1.388 . S
C3089 C3088 1.366 . S
C3089 C3093 1.385 . S
C3090 H3071 0.951 . S
C3090 C3088 1.388 . S
C3090 C3091 1.366 . S
C3091 C3090 1.366 . S
C3091 C3092 1.414 . S
C3091 C3094 1.499 . S
C3092 H3072 0.950 . S
C3092 C3091 1.414 . S
C3092 C3093 1.374 . S
C3093 H3073 0.950 . S
C3093 C3089 1.385 . S
C3093 C3092 1.374 . S
C3094 C3091 1.499 . S
C3094 C3095 1.373 . S
C3094 C3096 1.389 . S
C3095 H3074 0.950 . S
C3095 C3094 1.373 . S
C3095 C3111 1.377 . S
C3096 C3094 1.389 . S
C3096 C3097 1.524 . S
C3096 C3110 1.377 . S
C3097 C3096 1.524 . S
C3097 C3098 1.397 . S
C3097 C3102 1.363 . S
C3098 H3075 0.950 . S
C3098 C3097 1.397 . S
C3098 C3099 1.334 . S
C3099 H3076 0.950 . S
C3099 C3098 1.334 . S
C3099 C3100 1.287 . S
C3100 C3099 1.287 . S
C3100 C3101 1.524 . S
C3100 H3119 0.913 . S
C3101 H3077 0.950 . S
C3101 C3100 1.524 . S
C3101 C3102 1.415 . S
C3102 H3078 0.950 . S
C3102 C3097 1.363 . S
C3102 C3101 1.415 . S
C3103 H3079 0.951 . S
C3103 C3104 1.366 . S
C3103 C3105 1.388 . S
C3104 C3103 1.366 . S
C3104 C3108 1.385 . S
C3105 H3080 0.951 . S
C3105 C3103 1.388 . S
C3105 C3106 1.366 . S
C3106 C3105 1.366 . S
C3106 C3107 1.414 . S
C3106 C3109 1.487 1_455 S
C3107 H3081 0.950 . S
C3107 C3106 1.414 . S
C3107 C3108 1.374 . S
C3108 H3082 0.950 . S
C3108 C3104 1.385 . S
C3108 C3107 1.374 . S
C3109 C3106 1.487 1_655 S
C3109 C3110 1.375 . S
C3109 C3111 1.399 . S
C3110 H3083 0.950 1_655 S
C3110 C3096 1.377 . S
C3110 C3109 1.375 . S
C3111 C3095 1.377 . S
C3111 C3109 1.399 . S
C3111 C3112 1.524 . S
C3112 C3111 1.524 . S
C3112 C3113 1.397 . S
C3112 C3117 1.363 . S
C3113 H3084 0.950 . S
C3113 C3112 1.397 . S
C3113 C3114 1.334 . S
C3114 H3085 0.950 . S
C3114 C3113 1.334 . S
C3114 C3115 1.287 . S
C3115 C3114 1.287 . S
C3115 C3116 1.524 . S
C3115 H3118 0.999 . S
C3116 H3086 0.950 1_655 S
C3116 C3115 1.524 . S
C3116 C3117 1.415 . S
C3117 H3087 0.950 . S
C3117 C3112 1.363 . S
C3117 C3116 1.415 . S
H3118 C3115 0.999 . S
H3119 C3100 0.913 . S
H3120 C3138 0.951 . S
H3121 C3140 0.951 . S
H3122 C3142 0.950 . S
H3123 C3143 0.950 . S
H3124 C3145 0.950 . S
H3125 C3148 0.950 . S
H3126 C3149 0.950 . S
H3127 C3151 0.950 . S
H3128 C3152 0.950 . S
H3129 C3153 0.951 1_545 S
H3130 C3155 0.951 . S
H3131 C3157 0.950 . S
H3132 C3158 0.950 1_545 S
H3133 C3160 0.950 . S
H3134 C3163 0.950 . S
H3135 C3164 0.950 . S
H3136 C3166 0.950 . S
H3137 C3167 0.950 . S
C3138 H3120 0.951 . S
C3138 C3139 1.366 . S
C3138 C3140 1.388 . S
C3139 C3138 1.366 . S
C3139 C3143 1.385 . S
C3140 H3121 0.951 . S
C3140 C3138 1.388 . S
C3140 C3141 1.366 . S
C3141 C3140 1.366 . S
C3141 C3142 1.414 . S
C3141 C3144 1.499 . S
C3142 H3122 0.950 . S
C3142 C3141 1.414 . S
C3142 C3143 1.374 . S
C3143 H3123 0.950 . S
C3143 C3139 1.385 . S
C3143 C3142 1.374 . S
C3144 C3141 1.499 . S
C3144 C3145 1.373 . S
C3144 C3146 1.389 . S
C3145 H3124 0.950 . S
C3145 C3144 1.373 . S
C3145 C3161 1.377 . S
C3146 C3144 1.389 . S
C3146 C3147 1.524 . S
C3146 C3160 1.377 . S
C3147 C3146 1.524 . S
C3147 C3148 1.397 . S
C3147 C3152 1.363 . S
C3148 H3125 0.950 . S
C3148 C3147 1.397 . S
C3148 C3149 1.334 . S
C3149 H3126 0.950 . S
C3149 C3148 1.334 . S
C3149 C3150 1.287 . S
C3150 C3149 1.287 . S
C3150 C3151 1.524 . S
C3150 H3169 0.913 . S
C3151 H3127 0.950 . S
C3151 C3150 1.524 . S
C3151 C3152 1.415 . S
C3152 H3128 0.950 . S
C3152 C3147 1.363 . S
C3152 C3151 1.415 . S
C3153 H3129 0.951 1_565 S
C3153 C3154 1.366 1_565 S
C3153 C3155 1.388 . S
C3154 C3153 1.366 1_545 S
C3154 C3158 1.385 1_545 S
C3155 H3130 0.951 . S
C3155 C3153 1.388 . S
C3155 C3156 1.366 . S
C3156 C3155 1.366 . S
C3156 C3157 1.414 . S
C3156 C3159 1.499 . S
C3157 H3131 0.950 . S
C3157 C3156 1.414 . S
C3157 C3158 1.374 . S
C3158 H3132 0.950 1_565 S
C3158 C3154 1.385 1_565 S
C3158 C3157 1.374 . S
C3159 C3156 1.499 . S
C3159 C3160 1.373 . S
C3159 C3161 1.389 . S
C3160 H3133 0.950 . S
C3160 C3146 1.377 . S
C3160 C3159 1.373 . S
C3161 C3145 1.377 . S
C3161 C3159 1.389 . S
C3161 C3162 1.524 . S
C3162 C3161 1.524 . S
C3162 C3163 1.397 . S
C3162 C3167 1.363 . S
C3163 H3134 0.950 . S
C3163 C3162 1.397 . S
C3163 C3164 1.334 . S
C3164 H3135 0.950 . S
C3164 C3163 1.334 . S
C3164 C3165 1.287 . S
C3165 C3164 1.287 . S
C3165 C3166 1.524 . S
C3165 H3168 0.999 . S
C3166 H3136 0.950 . S
C3166 C3165 1.524 . S
C3166 C3167 1.415 . S
C3167 H3137 0.950 . S
C3167 C3162 1.363 . S
C3167 C3166 1.415 . S
H3168 C3165 0.999 . S
H3169 C3150 0.913 . S
H3170 C3188 0.951 . S
H3171 C3190 0.951 . S
H3172 C3192 0.950 . S
H3173 C3193 0.950 . S
H3174 C3195 0.950 . S
H3175 C3198 0.950 . S
H3176 C3199 0.950 . S
H3177 C3201 0.950 . S
H3178 C3202 0.950 . S
H3179 C3203 0.951 . S
H3180 C3205 0.951 . S
H3181 C3207 0.950 . S
H3182 C3208 0.950 . S
H3183 C3210 0.950 . S
H3184 C3213 0.950 . S
H3185 C3214 0.950 . S
H3186 C3216 0.950 . S
H3187 C3217 0.950 . S
C3188 H3170 0.951 . S
C3188 C3189 1.366 . S
C3188 C3190 1.388 . S
C3189 C3188 1.366 . S
C3189 C3193 1.385 . S
C3190 H3171 0.951 . S
C3190 C3188 1.388 . S
C3190 C3191 1.366 . S
C3191 C3190 1.366 . S
C3191 C3192 1.414 . S
C3191 C3194 1.501 . S
C3192 H3172 0.950 . S
C3192 C3191 1.414 . S
C3192 C3193 1.374 . S
C3193 H3173 0.950 . S
C3193 C3189 1.385 . S
C3193 C3192 1.374 . S
C3194 C3191 1.501 . S
C3194 C3195 1.379 . S
C3194 C3196 1.381 1_545 S
C3195 H3174 0.950 . S
C3195 C3194 1.379 . S
C3195 C3211 1.377 1_545 S
C3196 C3194 1.381 1_565 S
C3196 C3197 1.524 . S
C3196 C3210 1.377 . S
C3197 C3196 1.524 . S
C3197 C3198 1.397 . S
C3197 C3202 1.363 . S
C3198 H3175 0.950 . S
C3198 C3197 1.397 . S
C3198 C3199 1.334 . S
C3199 H3176 0.950 . S
C3199 C3198 1.334 . S
C3199 C3200 1.287 . S
C3200 C3199 1.287 . S
C3200 C3201 1.524 . S
C3200 H3219 0.913 . S
C3201 H3177 0.950 . S
C3201 C3200 1.524 . S
C3201 C3202 1.415 . S
C3202 H3178 0.950 . S
C3202 C3197 1.363 . S
C3202 C3201 1.415 . S
C3203 H3179 0.951 . S
C3203 C3204 1.366 . S
C3203 C3205 1.388 . S
C3204 C3203 1.366 . S
C3204 C3208 1.385 . S
C3205 H3180 0.951 . S
C3205 C3203 1.388 . S
C3205 C3206 1.366 . S
C3206 C3205 1.366 . S
C3206 C3207 1.414 . S
C3206 C3209 1.499 . S
C3207 H3181 0.950 . S
C3207 C3206 1.414 . S
C3207 C3208 1.374 . S
C3208 H3182 0.950 . S
C3208 C3204 1.385 . S
C3208 C3207 1.374 . S
C3209 C3206 1.499 . S
C3209 C3210 1.373 . S
C3209 C3211 1.389 . S
C3210 H3183 0.950 . S
C3210 C3196 1.377 . S
C3210 C3209 1.373 . S
C3211 C3195 1.377 1_565 S
C3211 C3209 1.389 . S
C3211 C3212 1.524 . S
C3212 C3211 1.524 . S
C3212 C3213 1.397 . S
C3212 C3217 1.363 1_565 S
C3213 H3184 0.950 . S
C3213 C3212 1.397 . S
C3213 C3214 1.334 . S
C3214 H3185 0.950 . S
C3214 C3213 1.334 . S
C3214 C3215 1.287 1_565 S
C3215 C3214 1.287 1_545 S
C3215 C3216 1.524 . S
C3215 H3218 0.999 . S
C3216 H3186 0.950 . S
C3216 C3215 1.524 . S
C3216 C3217 1.415 . S
C3217 H3187 0.950 . S
C3217 C3212 1.363 1_545 S
C3217 C3216 1.415 . S
H3218 C3215 0.999 . S
H3219 C3200 0.913 . S
H3220 C3238 0.951 . S
H3221 C3240 0.951 . S
H3222 C3242 0.950 . S
H3223 C3243 0.950 . S
H3224 C3245 0.950 . S
H3225 C3248 0.950 . S
H3226 C3249 0.950 . S
H3227 C3251 0.950 . S
H3228 C3252 0.950 . S
H3229 C3253 0.951 . S
H3230 C3255 0.951 . S
H3231 C3257 0.950 . S
H3232 C3258 0.950 . S
H3233 C3260 0.950 . S
H3234 C3263 0.950 . S
H3235 C3264 0.950 . S
H3236 C3266 0.950 . S
H3237 C3267 0.950 . S
C3238 H3220 0.951 . S
C3238 C3239 1.366 . S
C3238 C3240 1.388 . S
C3239 C3238 1.366 . S
C3239 C3243 1.385 . S
C3240 H3221 0.951 . S
C3240 C3238 1.388 . S
C3240 C3241 1.366 . S
C3241 C3240 1.366 . S
C3241 C3242 1.414 . S
C3241 C3244 1.499 . S
C3242 H3222 0.950 . S
C3242 C3241 1.414 . S
C3242 C3243 1.374 . S
C3243 H3223 0.950 . S
C3243 C3239 1.385 . S
C3243 C3242 1.374 . S
C3244 C3241 1.499 . S
C3244 C3245 1.373 . S
C3244 C3246 1.389 . S
C3245 H3224 0.950 . S
C3245 C3244 1.373 . S
C3245 C3261 1.377 . S
C3246 C3244 1.389 . S
C3246 C3247 1.524 . S
C3246 C3260 1.377 . S
C3247 C3246 1.524 . S
C3247 C3248 1.397 . S
C3247 C3252 1.363 . S
C3248 H3225 0.950 . S
C3248 C3247 1.397 . S
C3248 C3249 1.334 . S
C3249 H3226 0.950 . S
C3249 C3248 1.334 . S
C3249 C3250 1.287 . S
C3250 C3249 1.287 . S
C3250 C3251 1.524 . S
C3250 H3269 0.913 . S
C3251 H3227 0.950 . S
C3251 C3250 1.524 . S
C3251 C3252 1.415 . S
C3252 H3228 0.950 . S
C3252 C3247 1.363 . S
C3252 C3251 1.415 . S
C3253 H3229 0.951 . S
C3253 C3254 1.366 . S
C3253 C3255 1.388 . S
C3254 C3253 1.366 . S
C3254 C3258 1.385 . S
C3255 H3230 0.951 . S
C3255 C3253 1.388 . S
C3255 C3256 1.366 1_655 S
C3256 C3255 1.366 1_455 S
C3256 C3257 1.414 . S
C3256 C3259 1.499 . S
C3257 H3231 0.950 . S
C3257 C3256 1.414 . S
C3257 C3258 1.374 1_455 S
C3258 H3232 0.950 . S
C3258 C3254 1.385 . S
C3258 C3257 1.374 1_655 S
C3259 C3256 1.499 . S
C3259 C3260 1.373 . S
C3259 C3261 1.389 . S
C3260 H3233 0.950 . S
C3260 C3246 1.377 . S
C3260 C3259 1.373 . S
C3261 C3245 1.377 . S
C3261 C3259 1.389 . S
C3261 C3262 1.524 . S
C3262 C3261 1.524 . S
C3262 C3263 1.397 . S
C3262 C3267 1.363 . S
C3263 H3234 0.950 . S
C3263 C3262 1.397 . S
C3263 C3264 1.334 . S
C3264 H3235 0.950 . S
C3264 C3263 1.334 . S
C3264 C3265 1.287 . S
C3265 C3264 1.287 . S
C3265 C3266 1.524 . S
C3265 H3268 0.999 . S
C3266 H3236 0.950 . S
C3266 C3265 1.524 . S
C3266 C3267 1.415 . S
C3267 H3237 0.950 . S
C3267 C3262 1.363 . S
C3267 C3266 1.415 . S
H3268 C3265 0.999 . S
H3269 C3250 0.913 . S
H3270 C3288 0.951 . S
H3271 C3290 0.951 . S
H3272 C3292 0.950 . S
H3273 C3293 0.950 . S
H3274 C3295 0.950 . S
H3275 C3298 0.950 . S
H3276 C3299 0.950 . S
H3277 C3301 0.950 . S
H3278 C3302 0.950 . S
H3279 C3303 0.951 . S
H3280 C3305 0.951 . S
H3281 C3307 0.950 . S
H3282 C3308 0.950 . S
H3283 C3310 0.950 . S
H3284 C3313 0.950 . S
H3285 C3314 0.950 . S
H3286 C3316 0.950 . S
H3287 C3317 0.950 . S
C3288 H3270 0.951 . S
C3288 C3289 1.366 . S
C3288 C3290 1.388 . S
C3289 C3288 1.366 . S
C3289 C3293 1.385 . S
C3290 H3271 0.951 . S
C3290 C3288 1.388 . S
C3290 C3291 1.366 . S
C3291 C3290 1.366 . S
C3291 C3292 1.414 . S
C3291 C3294 1.499 . S
C3292 H3272 0.950 . S
C3292 C3291 1.414 . S
C3292 C3293 1.374 . S
C3293 H3273 0.950 . S
C3293 C3289 1.385 . S
C3293 C3292 1.374 . S
C3294 C3291 1.499 . S
C3294 C3295 1.373 . S
C3294 C3296 1.389 . S
C3295 H3274 0.950 . S
C3295 C3294 1.373 . S
C3295 C3311 1.377 . S
C3296 C3294 1.389 . S
C3296 C3297 1.524 . S
C3296 C3310 1.377 . S
C3297 C3296 1.524 . S
C3297 C3298 1.397 . S
C3297 C3302 1.363 . S
C3298 H3275 0.950 . S
C3298 C3297 1.397 . S
C3298 C3299 1.334 . S
C3299 H3276 0.950 . S
C3299 C3298 1.334 . S
C3299 C3300 1.287 . S
C3300 C3299 1.287 . S
C3300 C3301 1.524 . S
C3300 H3319 0.913 . S
C3301 H3277 0.950 . S
C3301 C3300 1.524 . S
C3301 C3302 1.415 . S
C3302 H3278 0.950 . S
C3302 C3297 1.363 . S
C3302 C3301 1.415 . S
C3303 H3279 0.951 . S
C3303 C3304 1.366 . S
C3303 C3305 1.388 . S
C3304 C3303 1.366 . S
C3304 C3308 1.385 . S
C3305 H3280 0.951 . S
C3305 C3303 1.388 . S
C3305 C3306 1.366 . S
C3306 C3305 1.366 . S
C3306 C3307 1.414 . S
C3306 C3309 1.499 . S
C3307 H3281 0.950 . S
C3307 C3306 1.414 . S
C3307 C3308 1.374 . S
C3308 H3282 0.950 . S
C3308 C3304 1.385 . S
C3308 C3307 1.374 . S
C3309 C3306 1.499 . S
C3309 C3310 1.373 . S
C3309 C3311 1.389 . S
C3310 H3283 0.950 . S
C3310 C3296 1.377 . S
C3310 C3309 1.373 . S
C3311 C3295 1.377 . S
C3311 C3309 1.389 . S
C3311 C3312 1.524 . S
C3312 C3311 1.524 . S
C3312 C3313 1.397 . S
C3312 C3317 1.363 . S
C3313 H3284 0.950 . S
C3313 C3312 1.397 . S
C3313 C3314 1.334 . S
C3314 H3285 0.950 . S
C3314 C3313 1.334 . S
C3314 C3315 1.287 . S
C3315 C3314 1.287 . S
C3315 C3316 1.524 . S
C3315 H3318 0.999 . S
C3316 H3286 0.950 . S
C3316 C3315 1.524 . S
C3316 C3317 1.415 . S
C3317 H3287 0.950 . S
C3317 C3312 1.363 . S
C3317 C3316 1.415 . S
H3318 C3315 0.999 . S
H3319 C3300 0.913 . S
H3320 C3338 0.951 . S
H3321 C3340 0.951 . S
H3322 C3342 0.950 . S
H3323 C3343 0.950 . S
H3324 C3345 0.950 . S
H3325 C3348 0.950 . S
H3326 C3349 0.950 . S
H3327 C3351 0.950 . S
H3328 C3352 0.950 . S
H3329 C3353 0.951 . S
H3330 C3355 0.951 . S
H3331 C3357 0.950 . S
H3332 C3358 0.950 . S
H3333 C3360 0.950 . S
H3334 C3363 0.950 . S
H3335 C3364 0.950 . S
H3336 C3366 0.950 . S
H3337 C3367 0.950 . S
C3338 H3320 0.951 . S
C3338 C3339 1.366 . S
C3338 C3340 1.388 . S
C3339 C3338 1.366 . S
C3339 C3343 1.385 . S
C3340 H3321 0.951 . S
C3340 C3338 1.388 . S
C3340 C3341 1.366 . S
C3341 C3340 1.366 . S
C3341 C3342 1.414 . S
C3341 C3344 1.499 . S
C3342 H3322 0.950 . S
C3342 C3341 1.414 . S
C3342 C3343 1.374 . S
C3343 H3323 0.950 . S
C3343 C3339 1.385 . S
C3343 C3342 1.374 . S
C3344 C3341 1.499 . S
C3344 C3345 1.373 . S
C3344 C3346 1.389 . S
C3345 H3324 0.950 . S
C3345 C3344 1.373 . S
C3345 C3361 1.377 . S
C3346 C3344 1.389 . S
C3346 C3347 1.524 . S
C3346 C3360 1.377 . S
C3347 C3346 1.524 . S
C3347 C3348 1.397 . S
C3347 C3352 1.363 . S
C3348 H3325 0.950 . S
C3348 C3347 1.397 . S
C3348 C3349 1.334 . S
C3349 H3326 0.950 . S
C3349 C3348 1.334 . S
C3349 C3350 1.287 . S
C3350 C3349 1.287 . S
C3350 C3351 1.524 . S
C3350 H3369 0.913 . S
C3351 H3327 0.950 . S
C3351 C3350 1.524 . S
C3351 C3352 1.415 . S
C3352 H3328 0.950 . S
C3352 C3347 1.363 . S
C3352 C3351 1.415 . S
C3353 H3329 0.951 . S
C3353 C3354 1.366 . S
C3353 C3355 1.388 . S
C3354 C3353 1.366 . S
C3354 C3358 1.385 . S
C3355 H3330 0.951 . S
C3355 C3353 1.388 . S
C3355 C3356 1.366 . S
C3356 C3355 1.366 . S
C3356 C3357 1.414 . S
C3356 C3359 1.499 . S
C3357 H3331 0.950 . S
C3357 C3356 1.414 . S
C3357 C3358 1.374 . S
C3358 H3332 0.950 . S
C3358 C3354 1.385 . S
C3358 C3357 1.374 . S
C3359 C3356 1.499 . S
C3359 C3360 1.373 . S
C3359 C3361 1.389 . S
C3360 H3333 0.950 . S
C3360 C3346 1.377 . S
C3360 C3359 1.373 . S
C3361 C3345 1.377 . S
C3361 C3359 1.389 . S
C3361 C3362 1.524 . S
C3362 C3361 1.524 . S
C3362 C3363 1.397 . S
C3362 C3367 1.363 . S
C3363 H3334 0.950 . S
C3363 C3362 1.397 . S
C3363 C3364 1.334 . S
C3364 H3335 0.950 . S
C3364 C3363 1.334 . S
C3364 C3365 1.287 . S
C3365 C3364 1.287 . S
C3365 C3366 1.524 . S
C3365 H3368 0.999 . S
C3366 H3336 0.950 . S
C3366 C3365 1.524 . S
C3366 C3367 1.415 . S
C3367 H3337 0.950 . S
C3367 C3362 1.363 . S
C3367 C3366 1.415 . S
H3368 C3365 0.999 . S
H3369 C3350 0.913 . S
H3370 C3388 0.951 . S
H3371 C3390 0.951 . S
H3372 C3392 0.950 . S
H3373 C3393 0.950 . S
H3374 C3395 0.950 . S
H3375 C3398 0.950 . S
H3376 C3399 0.950 . S
H3377 C3401 0.950 . S
H3378 C3402 0.950 . S
H3379 C3403 0.951 . S
H3380 C3405 0.951 . S
H3381 C3407 0.950 . S
H3382 C3408 0.950 . S
H3383 C3410 0.950 . S
H3384 C3413 0.950 . S
H3385 C3414 0.950 . S
H3386 C3416 0.950 . S
H3387 C3417 0.950 . S
C3388 H3370 0.951 . S
C3388 C3389 1.366 . S
C3388 C3390 1.388 . S
C3389 C3388 1.366 . S
C3389 C3393 1.385 . S
C3390 H3371 0.951 . S
C3390 C3388 1.388 . S
C3390 C3391 1.366 . S
C3391 C3390 1.366 . S
C3391 C3392 1.414 . S
C3391 C3394 1.499 . S
C3392 H3372 0.950 . S
C3392 C3391 1.414 . S
C3392 C3393 1.374 . S
C3393 H3373 0.950 . S
C3393 C3389 1.385 . S
C3393 C3392 1.374 . S
C3394 C3391 1.499 . S
C3394 C3395 1.373 . S
C3394 C3396 1.389 . S
C3395 H3374 0.950 . S
C3395 C3394 1.373 . S
C3395 C3411 1.377 . S
C3396 C3394 1.389 . S
C3396 C3397 1.524 . S
C3396 C3410 1.377 . S
C3397 C3396 1.524 . S
C3397 C3398 1.397 . S
C3397 C3402 1.363 . S
C3398 H3375 0.950 . S
C3398 C3397 1.397 . S
C3398 C3399 1.334 . S
C3399 H3376 0.950 . S
C3399 C3398 1.334 . S
C3399 C3400 1.287 . S
C3400 C3399 1.287 . S
C3400 C3401 1.524 . S
C3400 H3419 0.913 . S
C3401 H3377 0.950 . S
C3401 C3400 1.524 . S
C3401 C3402 1.415 . S
C3402 H3378 0.950 . S
C3402 C3397 1.363 . S
C3402 C3401 1.415 . S
C3403 H3379 0.951 . S
C3403 C3404 1.366 . S
C3403 C3405 1.388 . S
C3404 C3403 1.366 . S
C3404 C3408 1.385 . S
C3405 H3380 0.951 . S
C3405 C3403 1.388 . S
C3405 C3406 1.366 . S
C3406 C3405 1.366 . S
C3406 C3407 1.414 . S
C3406 C3409 1.499 . S
C3407 H3381 0.950 . S
C3407 C3406 1.414 . S
C3407 C3408 1.374 . S
C3408 H3382 0.950 . S
C3408 C3404 1.385 . S
C3408 C3407 1.374 . S
C3409 C3406 1.499 . S
C3409 C3410 1.373 . S
C3409 C3411 1.389 . S
C3410 H3383 0.950 . S
C3410 C3396 1.377 . S
C3410 C3409 1.373 . S
C3411 C3395 1.377 . S
C3411 C3409 1.389 . S
C3411 C3412 1.524 . S
C3412 C3411 1.524 . S
C3412 C3413 1.397 . S
C3412 C3417 1.363 . S
C3413 H3384 0.950 . S
C3413 C3412 1.397 . S
C3413 C3414 1.334 . S
C3414 H3385 0.950 . S
C3414 C3413 1.334 . S
C3414 C3415 1.287 . S
C3415 C3414 1.287 . S
C3415 C3416 1.524 . S
C3415 H3418 0.999 . S
C3416 H3386 0.950 . S
C3416 C3415 1.524 . S
C3416 C3417 1.415 . S
C3417 H3387 0.950 . S
C3417 C3412 1.363 . S
C3417 C3416 1.415 . S
H3418 C3415 0.999 . S
H3419 C3400 0.913 . S
C739 C19 1.149 . S
C754 C95 1.171 . S
C789 C15 1.172 . S
C804 C59 1.151 . S
C839 C55 1.171 . S
C854 C99 1.150 . S
C889 C139 1.150 . S
C904 C175 1.171 . S
C939 C215 1.172 . S
C954 C179 1.150 . S
C989 C219 1.150 . S
C1004 C135 1.172 . S
C1039 C335 1.171 . S
C1054 C259 1.150 . S
C1089 C255 1.172 . S
C1104 C299 1.150 . S
C1139 C339 1.150 . S
C1154 C295 1.172 . S
C1189 C415 1.171 . S
C1204 C379 1.150 . S
C1239 C419 1.150 . S
C1254 C455 1.172 . S
C1289 C375 1.172 . S
C1304 C459 1.150 . S
C1339 C499 1.150 . S
C1354 C575 1.172 . S
C1389 C495 1.172 . S
C1404 C539 1.150 . S
C1439 C535 1.172 . S
C1454 C579 1.150 . S
C1489 C655 1.172 . S
C1504 C619 1.149 . S
C1539 C695 1.172 . S
C1554 C659 1.150 . S
C1589 C615 1.172 . S
C1604 C699 1.150 . S
C1639 C18 1.721 . S
C1654 C218 1.722 . S
C1689 C138 1.721 . S
C1704 C58 1.722 . S
C1739 C178 1.722 . S
C1754 C98 1.721 . S
C1789 C258 1.722 . S
C1804 C458 1.721 . S
C1839 C298 1.722 . S
C1854 C378 1.721 . S
C1889 C418 1.722 . S
C1904 C338 1.721 . S
C1939 C498 1.722 . S
C1954 C698 1.721 . S
C1989 C618 1.721 . S
C2004 C538 1.722 . S
C2039 C658 1.721 . S
C2054 C578 1.721 . S
C2089 C409 2.228 . S
C2104 C9 2.228 1_565 S
C2139 C49 2.227 . S
C2154 C449 2.227 . S
C2189 C369 2.228 . S
C2204 C89 2.228 . S
C2239 C129 2.228 1_655 S
C2254 C569 2.228 . S
C2289 C169 2.228 . S
C2304 C489 2.228 . S
C2339 C529 2.227 . S
C2354 C209 2.227 . S
C2389 C649 2.228 . S
C2404 C249 2.228 . S
C2439 C289 2.227 . S
C2454 C689 2.227 . S
C2489 C329 2.227 . S
C2504 C609 2.228 . S
C2539 C86 1.811 . S
C2554 C10 1.822 . S
C2589 C6 1.811 . S
C2604 C50 1.822 . S
C2639 C90 1.823 . S
C2654 C46 1.811 . S
C2689 C166 1.810 . S
C2704 C130 1.822 . S
C2739 C206 1.810 . S
C2754 C170 1.822 . S
C2789 C210 1.823 . S
C2804 C126 1.810 . S
C2839 C326 1.810 . S
C2854 C250 1.822 . S
C2889 C290 1.822 . S
C2904 C246 1.811 . S
C2939 C286 1.810 . S
C2954 C330 1.822 . S
C2989 C370 1.823 . S
C3004 C406 1.810 . S
C3039 C410 1.823 . S
C3054 C446 1.811 . S
C3089 C366 1.810 1_545 S
C3104 C450 1.822 . S
C3139 C490 1.822 . S
C3154 C566 1.811 . S
C3189 C530 1.822 . S
C3204 C486 1.810 1_455 S
C3239 C526 1.810 . S
C3254 C570 1.822 . S
C3289 C610 1.823 . S
C3304 C646 1.810 . S
C3339 C650 1.822 . S
C3354 C686 1.810 . S
C3389 C606 1.810 . S
C3404 C690 1.822 . S
