# Generated by pormake.
# Topology fci, (5)-cn, num edge types: 1
# Building blocks:
#     Node 0, Type 0, BuildingBlock: BEQFEK_clean_sbu_0, # of connection points: 5
#     Node 1, Type 0, BuildingBlock: BEQFEK_clean_sbu_0, # of connection points: 5
#     Node 2, Type 0, BuildingBlock: BEQFEK_clean_sbu_0, # of connection points: 5
#     Node 3, Type 0, BuildingBlock: BEQFEK_clean_sbu_0, # of connection points: 5
#     Node 4, Type 0, BuildingBlock: BEQFEK_clean_sbu_0, # of connection points: 5
#     Node 5, Type 0, BuildingBlock: BEQFEK_clean_sbu_0, # of connection points: 5
#     Node 6, Type 0, BuildingBlock: BEQFEK_clean_sbu_0, # of connection points: 5
#     Node 7, Type 0, BuildingBlock: BEQFEK_clean_sbu_0, # of connection points: 5
#     Node 8, Type 0, BuildingBlock: BEQFEK_clean_sbu_0, # of connection points: 5
#     Node 9, Type 0, BuildingBlock: BEQFEK_clean_sbu_0, # of connection points: 5
#     Node 10, Type 0, BuildingBlock: BEQFEK_clean_sbu_0, # of connection points: 5
#     Node 11, Type 0, BuildingBlock: BEQFEK_clean_sbu_0, # of connection points: 5
#     Node 12, Type 0, BuildingBlock: BEQFEK_clean_sbu_0, # of connection points: 5
#     Node 13, Type 0, BuildingBlock: BEQFEK_clean_sbu_0, # of connection points: 5
#     Node 14, Type 0, BuildingBlock: BEQFEK_clean_sbu_0, # of connection points: 5
#     Node 15, Type 0, BuildingBlock: BEQFEK_clean_sbu_0, # of connection points: 5
#     Node 16, Type 0, BuildingBlock: BEQFEK_clean_sbu_0, # of connection points: 5
#     Node 17, Type 0, BuildingBlock: BEQFEK_clean_sbu_0, # of connection points: 5
#     Node 18, Type 0, BuildingBlock: BEQFEK_clean_sbu_0, # of connection points: 5
#     Node 19, Type 0, BuildingBlock: BEQFEK_clean_sbu_0, # of connection points: 5
#     Node 20, Type 0, BuildingBlock: BEQFEK_clean_sbu_0, # of connection points: 5
#     Node 21, Type 0, BuildingBlock: BEQFEK_clean_sbu_0, # of connection points: 5
#     Node 22, Type 0, BuildingBlock: BEQFEK_clean_sbu_0, # of connection points: 5
#     Node 23, Type 0, BuildingBlock: BEQFEK_clean_sbu_0, # of connection points: 5
#     Edge 24, Type (0, 0), None
#     Edge 25, Type (0, 0), None
#     Edge 26, Type (0, 0), None
#     Edge 27, Type (0, 0), None
#     Edge 28, Type (0, 0), None
#     Edge 29, Type (0, 0), None
#     Edge 30, Type (0, 0), None
#     Edge 31, Type (0, 0), None
#     Edge 32, Type (0, 0), None
#     Edge 33, Type (0, 0), None
#     Edge 34, Type (0, 0), None
#     Edge 35, Type (0, 0), None
#     Edge 36, Type (0, 0), None
#     Edge 37, Type (0, 0), None
#     Edge 38, Type (0, 0), None
#     Edge 39, Type (0, 0), None
#     Edge 40, Type (0, 0), None
#     Edge 41, Type (0, 0), None
#     Edge 42, Type (0, 0), None
#     Edge 43, Type (0, 0), None
#     Edge 44, Type (0, 0), None
#     Edge 45, Type (0, 0), None
#     Edge 46, Type (0, 0), None
#     Edge 47, Type (0, 0), None
#     Edge 48, Type (0, 0), None
#     Edge 49, Type (0, 0), None
#     Edge 50, Type (0, 0), None
#     Edge 51, Type (0, 0), None
#     Edge 52, Type (0, 0), None
#     Edge 53, Type (0, 0), None
#     Edge 54, Type (0, 0), None
#     Edge 55, Type (0, 0), None
#     Edge 56, Type (0, 0), None
#     Edge 57, Type (0, 0), None
#     Edge 58, Type (0, 0), None
#     Edge 59, Type (0, 0), None
#     Edge 60, Type (0, 0), None
#     Edge 61, Type (0, 0), None
#     Edge 62, Type (0, 0), None
#     Edge 63, Type (0, 0), None
#     Edge 64, Type (0, 0), None
#     Edge 65, Type (0, 0), None
#     Edge 66, Type (0, 0), None
#     Edge 67, Type (0, 0), None
#     Edge 68, Type (0, 0), None
#     Edge 69, Type (0, 0), None
#     Edge 70, Type (0, 0), None
#     Edge 71, Type (0, 0), None
#     Edge 72, Type (0, 0), None
#     Edge 73, Type (0, 0), None
#     Edge 74, Type (0, 0), None
#     Edge 75, Type (0, 0), None
#     Edge 76, Type (0, 0), None
#     Edge 77, Type (0, 0), None
#     Edge 78, Type (0, 0), None
#     Edge 79, Type (0, 0), None
#     Edge 80, Type (0, 0), None
#     Edge 81, Type (0, 0), None
#     Edge 82, Type (0, 0), None
#     Edge 83, Type (0, 0), None
# Relax obj value: 0.951
# Max RMSD: 0.348
# Mean RMSD: 0.319
data_MOF--net-fci--node1-BEQFEK_clean_sbu_0--edge1-none
_symmetry_space_group_name_H-M    P1
_symmetry_Int_Tables_number       1
_symmetry_cell_setting            triclinic
loop_
_symmetry_equiv_pos_as_xyz
'x, y, z'
_cell_length_a     29.862828
_cell_length_b     29.860489
_cell_length_c     29.863618
_cell_angle_alpha  89.513631
_cell_angle_beta   89.513387
_cell_angle_gamma 89.516638
loop_
_atom_site_label
_atom_site_type_symbol
_atom_site_fract_x
_atom_site_fract_y
_atom_site_fract_z
_atom_type_partial_charge
Co0 Co 0.0631 0.24909 0.55833 0.0
Co1 Co 0.13518 0.18896 0.5273 0.0
C2 C 0.09539 0.18063 0.61362 0.0
O3 O 0.09666 0.22228 0.608 0.0
O4 O 0.10685 0.15654 0.58079 0.0
C5 C 0.04814 0.31466 0.61856 0.0
O6 O 0.09196 0.31269 0.61558 0.0
C7 C 0.22978 0.16527 0.54185 0.0
C8 C 0.25386 0.15071 0.47485 0.0
C9 C 0.26961 0.1631 0.51696 0.0
N10 N 0.19383 0.16185 0.51505 0.0
N11 N 0.20874 0.15038 0.47513 0.0
C12 C 0.2266 0.17045 0.59159 0.0
H13 H 0.19345 0.18424 0.60151 0.0
H14 H 0.25423 0.19134 0.60432 0.0
H15 H 0.23009 0.13683 0.60736 0.0
C16 C 0.11289 0.32047 0.51915 0.0
N17 N 0.10539 0.27636 0.52234 0.0
N18 N 0.14268 0.25436 0.53055 0.0
C19 C 0.17445 0.28502 0.53861 0.0
C20 C 0.15709 0.32772 0.52955 0.0
C21 C 0.07651 0.35516 0.51692 0.0
H22 H 0.04358 0.33937 0.51089 0.0
H23 H 0.07512 0.37436 0.54845 0.0
H24 H 0.0842 0.37928 0.48949 0.0
O25 O 0.03229 0.20464 0.52234 0.0
O26 O 0.08874 0.18722 0.47656 0.0
H27 H 0.23148 0.30648 0.57693 0.0
H28 H 0.19903 0.26267 0.60184 0.0
C29 C 0.21233 0.27617 0.56973 0.0
H30 H 0.23523 0.25183 0.5551 0.0
H31 H 0.1885 0.1467 0.44711 0.0
O32 O 0.02479 0.29172 0.59186 0.0
C33 C 0.04666 0.19391 0.48358 0.0
Co34 Co 0.47722 0.29871 0.2959 0.0
Co35 Co 0.53616 0.37993 0.26066 0.0
C36 C 0.56521 0.32223 0.33764 0.0
O37 O 0.53047 0.299 0.33288 0.0
O38 O 0.57301 0.35539 0.31208 0.0
C39 C 0.43334 0.27266 0.36902 0.0
O40 O 0.45714 0.30754 0.38021 0.0
C41 C 0.53692 0.46894 0.29564 0.0
C42 C 0.55875 0.51322 0.24141 0.0
C43 C 0.53916 0.514 0.28401 0.0
N44 N 0.55238 0.44315 0.26174 0.0
N45 N 0.56726 0.47021 0.22984 0.0
C46 C 0.51297 0.45111 0.33631 0.0
H47 H 0.52099 0.41533 0.34222 0.0
H48 H 0.47627 0.45492 0.33205 0.0
H49 H 0.52232 0.47086 0.36609 0.0
C50 C 0.40663 0.36029 0.27822 0.0
N51 N 0.44996 0.35315 0.28771 0.0
N52 N 0.47373 0.38526 0.26985 0.0
C53 C 0.44575 0.41407 0.24912 0.0
C54 C 0.40182 0.40076 0.2557 0.0
C55 C 0.37518 0.32235 0.27223 0.0
H56 H 0.39281 0.29408 0.25557 0.0
H57 H 0.36422 0.31065 0.30548 0.0
H58 H 0.34575 0.33234 0.25185 0.0
O59 O 0.49351 0.28305 0.23548 0.0
O60 O 0.53855 0.33616 0.20577 0.0
H61 H 0.43333 0.44693 0.18581 0.0
H62 H 0.46769 0.47753 0.22369 0.0
C63 C 0.46017 0.44381 0.21118 0.0
H64 H 0.49078 0.43003 0.1949 0.0
H65 H 0.57887 0.45953 0.19868 0.0
O66 O 0.43467 0.25925 0.32872 0.0
C67 C 0.5167 0.29888 0.20291 0.0
Co68 Co 0.42363 0.74061 0.05876 0.0
Co69 Co 0.35146 0.79953 0.02688 0.0
C70 C 0.3894 0.80774 0.11359 0.0
O71 O 0.38839 0.76614 0.10817 0.0
O72 O 0.37839 0.83202 0.08048 0.0
C73 C 0.4387 0.67457 0.11884 0.0
O74 O 0.3949 0.67564 0.11583 0.0
C75 C 0.25593 0.82117 0.03958 0.0
C76 C 0.23417 0.83583 0.9719 0.0
C77 C 0.21708 0.82285 0.01377 0.0
N78 N 0.2928 0.82576 0.01358 0.0
N79 N 0.27922 0.83726 0.97323 0.0
C80 C 0.25736 0.81504 0.08936 0.0
H81 H 0.29048 0.80188 0.09992 0.0
H82 H 0.22981 0.79318 0.10142 0.0
H83 H 0.2524 0.84823 0.10515 0.0
C84 C 0.37619 0.66853 0.01923 0.0
N85 N 0.38282 0.71271 0.02281 0.0
N86 N 0.34489 0.73393 0.0302 0.0
C87 C 0.31326 0.70258 0.03702 0.0
C88 C 0.33165 0.6603 0.02827 0.0
C89 C 0.41321 0.63449 0.01775 0.0
H90 H 0.44606 0.65091 0.01229 0.0
H91 H 0.4138 0.61489 0.04936 0.0
H92 H 0.40689 0.61062 0.99028 0.0
O93 O 0.45442 0.78599 0.0227 0.0
O94 O 0.39876 0.802 0.97625 0.0
H95 H 0.25476 0.67951 0.07317 0.0
H96 H 0.28521 0.72322 0.09945 0.0
C97 C 0.27377 0.71024 0.06685 0.0
H98 H 0.25133 0.73453 0.05147 0.0
H99 H 0.30046 0.84156 0.94565 0.0
O100 O 0.46203 0.69853 0.09233 0.0
C101 C 0.44077 0.79593 0.98355 0.0
Co102 Co 0.01034 0.68783 0.79551 0.0
Co103 Co 0.95099 0.60726 0.76179 0.0
C104 C 0.92203 0.66451 0.83861 0.0
O105 O 0.95689 0.68759 0.83303 0.0
O106 O 0.91412 0.6315 0.81358 0.0
C107 C 0.05359 0.71382 0.86813 0.0
O108 O 0.0293 0.67929 0.88031 0.0
C109 C 0.94939 0.5177 0.79686 0.0
C110 C 0.92762 0.47451 0.74282 0.0
C111 C 0.947 0.47286 0.78518 0.0
N112 N 0.93427 0.54416 0.76316 0.0
N113 N 0.91941 0.51778 0.73141 0.0
C114 C 0.97319 0.53469 0.83728 0.0
H115 H 0.0099 0.53086 0.83258 0.0
H116 H 0.96362 0.51442 0.86713 0.0
H117 H 0.96524 0.57039 0.84333 0.0
C118 C 0.08054 0.62608 0.77748 0.0
N119 N 0.03723 0.63327 0.78764 0.0
N120 N 0.01335 0.60145 0.77034 0.0
C121 C 0.04122 0.57277 0.74932 0.0
C122 C 0.0852 0.58581 0.7552 0.0
C123 C 0.11197 0.66405 0.77035 0.0
H124 H 0.09435 0.69229 0.75345 0.0
H125 H 0.12287 0.6758 0.80322 0.0
H126 H 0.14145 0.65407 0.74969 0.0
O127 O 0.99458 0.70395 0.73507 0.0
O128 O 0.94919 0.65141 0.70655 0.0
H129 H -0.00366 0.55811 0.6956 0.0
H130 H 0.05373 0.54097 0.6858 0.0
C131 C 0.02678 0.54383 0.7115 0.0
H132 H 0.01898 0.50993 0.72402 0.0
H133 H 0.90803 0.52909 0.70036 0.0
O134 O 0.0529 0.72689 0.82749 0.0
C135 C 0.97143 0.68846 0.70296 0.0
Co136 Co 0.56386 0.23993 0.42809 0.0
Co137 Co 0.63486 0.29934 0.45853 0.0
C138 C 0.59689 0.30672 0.37188 0.0
O139 O 0.59857 0.26516 0.37809 0.0
O140 O 0.60719 0.33122 0.4045 0.0
C141 C 0.5494 0.17396 0.3687 0.0
O142 O 0.59323 0.17488 0.37122 0.0
C143 C 0.72957 0.32165 0.44376 0.0
C144 C 0.75248 0.33614 0.51072 0.0
C145 C 0.76895 0.32331 0.46868 0.0
N146 N 0.69315 0.32584 0.47052 0.0
N147 N 0.70736 0.33725 0.51039 0.0
C148 C 0.72725 0.31607 0.39406 0.0
H149 H 0.69434 0.30258 0.38428 0.0
H150 H 0.7552 0.29474 0.38152 0.0
H151 H 0.73082 0.34951 0.37801 0.0
C152 C 0.61291 0.16836 0.46832 0.0
N153 N 0.60534 0.21252 0.46465 0.0
N154 N 0.6427 0.2339 0.45617 0.0
C155 C 0.6747 0.20274 0.44843 0.0
C156 C 0.6573 0.1604 0.458 0.0
C157 C 0.57656 0.13423 0.47092 0.0
H158 H 0.54359 0.15052 0.47739 0.0
H159 H 0.57531 0.11518 0.43933 0.0
H160 H 0.58416 0.10989 0.49815 0.0
O161 O 0.53237 0.28558 0.46312 0.0
O162 O 0.58771 0.30161 0.50933 0.0
H163 H 0.73223 0.1801 0.41008 0.0
H164 H 0.69993 0.22404 0.38481 0.0
C165 C 0.7129 0.21074 0.41701 0.0
H166 H 0.73555 0.23494 0.43123 0.0
H167 H 0.68664 0.34135 0.53839 0.0
O168 O 0.52604 0.19772 0.39533 0.0
C169 C 0.54583 0.29534 0.50216 0.0
Co170 Co 0.50903 0.79856 0.19012 0.0
Co171 Co 0.44973 0.88014 0.22431 0.0
C172 C 0.42101 0.82335 0.14755 0.0
O173 O 0.45574 0.79961 0.15309 0.0
O174 O 0.41309 0.85678 0.17239 0.0
C175 C 0.55295 0.7722 0.11735 0.0
O176 O 0.52892 0.80735 0.10566 0.0
C177 C 0.44905 0.97046 0.1909 0.0
C178 C 0.42657 0.01291 0.24587 0.0
C179 C 0.44663 0.0151 0.20353 0.0
N180 N 0.43328 0.94359 0.22404 0.0
N181 N 0.41802 0.9696 0.25637 0.0
C182 C 0.47331 0.95378 0.15007 0.0
H183 H 0.46541 0.91829 0.1435 0.0
H184 H 0.50997 0.95699 0.15461 0.0
H185 H 0.46403 0.97469 0.12061 0.0
C186 C 0.57947 0.85884 0.20756 0.0
N187 N 0.53617 0.85261 0.1978 0.0
N188 N 0.51232 0.88484 0.21552 0.0
C189 C 0.54019 0.91274 0.23656 0.0
C190 C 0.58416 0.89879 0.23016 0.0
C191 C 0.61077 0.82021 0.21398 0.0
H192 H 0.59301 0.79218 0.23089 0.0
H193 H 0.62176 0.80853 0.18087 0.0
H194 H 0.6402 0.82944 0.23433 0.0
O195 O 0.49283 0.78255 0.25068 0.0
O196 O 0.44718 0.83586 0.27946 0.0
H197 H 0.49541 0.92704 0.29143 0.0
H198 H 0.55276 0.94358 0.30029 0.0
C199 C 0.52571 0.94126 0.27514 0.0
H200 H 0.51758 0.97541 0.26342 0.0
H201 H 0.40613 0.95787 0.28718 0.0
O202 O 0.55172 0.75871 0.15784 0.0
C203 C 0.46933 0.79841 0.28292 0.0
Co204 Co 0.92322 0.74664 0.92824 0.0
Co205 Co 0.85215 0.68723 0.96016 0.0
C206 C 0.89044 0.67999 0.8732 0.0
O207 O 0.88888 0.72154 0.87888 0.0
O208 O 0.88009 0.65543 0.90633 0.0
C209 C 0.93793 0.81271 0.86777 0.0
O210 O 0.89409 0.8117 0.87084 0.0
C211 C 0.75773 0.66476 0.94614 0.0
C212 C 0.73396 0.64986 0.01335 0.0
C213 C 0.71802 0.66284 0.9712 0.0
N214 N 0.79378 0.66062 0.97283 0.0
N215 N 0.77909 0.64895 0.01291 0.0
C216 C 0.76069 0.67067 0.89638 0.0
H217 H 0.79365 0.68441 0.88633 0.0
H218 H 0.7328 0.69194 0.8837 0.0
H219 H 0.75751 0.63731 0.88069 0.0
C220 C 0.87401 0.81824 0.96786 0.0
N221 N 0.88155 0.77405 0.96487 0.0
N222 N 0.84425 0.75272 0.95695 0.0
C223 C 0.8124 0.78395 0.94887 0.0
C224 C 0.82974 0.82628 0.95766 0.0
C225 C 0.91037 0.85232 0.96963 0.0
H226 H 0.94333 0.83596 0.97567 0.0
H227 H 0.91163 0.87174 0.93792 0.0
H228 H 0.90278 0.87636 -0.00314 0.0
O229 O 0.95458 0.70093 0.96357 0.0
O230 O 0.89895 0.68465 0.01055 0.0
H231 H 0.75524 0.80667 0.91061 0.0
H232 H 0.7878 0.76283 0.88574 0.0
C233 C 0.7745 0.77601 0.91785 0.0
H234 H 0.75174 0.75173 0.93258 0.0
H235 H 0.79944 0.64478 0.04086 0.0
O236 O 0.96121 0.78894 0.89447 0.0
C237 C 0.94089 0.69089 0.00285 0.0
Co238 Co 0.97454 0.18821 0.69009 0.0
Co239 Co 0.03445 0.10673 0.72461 0.0
C240 C 0.06343 0.1647 0.64772 0.0
O241 O 0.02829 0.18796 0.65291 0.0
O242 O 0.07142 0.13128 0.67293 0.0
C243 C 0.93117 0.21368 0.61682 0.0
O244 O 0.95574 0.17872 0.60585 0.0
C245 C 0.03668 0.0176 0.68979 0.0
C246 C 0.05859 0.97338 0.74396 0.0
C247 C 0.03936 0.97255 0.70154 0.0
N248 N 0.05154 0.04342 0.72348 0.0
N249 N 0.06647 0.0164 0.75532 0.0
C250 C 0.01289 0.03544 0.64926 0.0
H251 H 0.02051 0.0712 0.64324 0.0
H252 H 0.9762 0.03177 0.65378 0.0
H253 H 0.02281 0.01561 0.61945 0.0
C254 C 0.90473 0.12656 0.70783 0.0
N255 N 0.94809 0.13377 0.69832 0.0
N256 N 0.97214 0.1016 0.716 0.0
C257 C 0.94436 0.07276 0.73677 0.0
C258 C 0.90029 0.08609 0.73031 0.0
C259 C 0.87233 0.16437 0.71342 0.0
H260 H 0.88904 0.19295 0.72972 0.0
H261 H 0.86161 0.17558 0.68005 0.0
H262 H 0.84281 0.15442 0.73397 0.0
O263 O 0.99008 0.20379 0.75063 0.0
O264 O 0.03596 0.15051 0.77942 0.0
H265 H 0.98899 0.05677 0.79078 0.0
H266 H 0.93164 0.04014 0.80025 0.0
C267 C 0.95873 0.04307 0.77472 0.0
H268 H 0.96681 0.00928 0.7623 0.0
H269 H 0.07769 0.02712 0.78638 0.0
O270 O 0.93174 0.22745 0.65702 0.0
C271 C 0.0135 0.18778 0.78279 0.0
Co272 Co 0.55837 0.06312 0.24907 0.0
Co273 Co 0.52742 0.1352 0.18886 0.0
C274 C 0.6137 0.09532 0.18054 0.0
O275 O 0.60809 0.09657 0.22219 0.0
O276 O 0.58088 0.10683 0.15645 0.0
C277 C 0.6186 0.0482 0.31466 0.0
O278 O 0.61569 0.09203 0.3126 0.0
C279 C 0.54199 0.22978 0.16516 0.0
C280 C 0.47494 0.25388 0.15062 0.0
C281 C 0.51706 0.26957 0.163 0.0
N282 N 0.51518 0.19384 0.16173 0.0
N283 N 0.47525 0.20875 0.15029 0.0
C284 C 0.59175 0.22661 0.17025 0.0
H285 H 0.6017 0.19345 0.18399 0.0
H286 H 0.6045 0.25424 0.19114 0.0
H287 H 0.60745 0.23014 0.13661 0.0
C288 C 0.51927 0.11301 0.32038 0.0
N289 N 0.52241 0.10548 0.27627 0.0
N290 N 0.53072 0.14275 0.25424 0.0
C291 C 0.53892 0.17452 0.28488 0.0
C292 C 0.5299 0.15715 0.32757 0.0
C293 C 0.51693 0.07665 0.35508 0.0
H294 H 0.51082 0.04373 0.33932 0.0
H295 H 0.54846 0.07519 0.37429 0.0
H296 H 0.48952 0.08443 0.37919 0.0
O297 O 0.52235 0.03225 0.20471 0.0
O298 O 0.47666 0.08876 0.18714 0.0
H299 H 0.57743 0.23144 0.3063 0.0
H300 H 0.60214 0.199 0.26238 0.0
C301 C 0.5701 0.21235 0.27598 0.0
H302 H 0.55544 0.23533 0.25173 0.0
H303 H 0.44723 0.18851 0.14662 0.0
O304 O 0.59186 0.02485 0.29177 0.0
C305 C 0.48364 0.04667 0.19389 0.0
Co306 Co 0.68786 0.7956 0.01026 0.0
Co307 Co 0.6073 0.76191 0.95087 0.0
C308 C 0.66458 0.83872 0.92195 0.0
O309 O 0.68762 0.83314 0.95683 0.0
O310 O 0.63158 0.81369 0.91401 0.0
C311 C 0.7138 0.86821 0.05355 0.0
O312 O 0.67927 0.88038 0.02927 0.0
C313 C 0.51778 0.79702 0.94932 0.0
C314 C 0.47454 0.74297 0.92755 0.0
C315 C 0.47297 0.78529 0.947 0.0
N316 N 0.54421 0.76331 0.93414 0.0
N317 N 0.5178 0.73158 0.91928 0.0
C318 C 0.53479 0.83744 0.97311 0.0
H319 H 0.53095 0.83276 0.00982 0.0
H320 H 0.51455 0.86731 0.96353 0.0
H321 H 0.5705 0.84347 0.96517 0.0
C322 C 0.62605 0.77765 0.08044 0.0
N323 N 0.63329 0.78775 0.03712 0.0
N324 N 0.60148 0.77045 0.01322 0.0
C325 C 0.57274 0.74947 0.04108 0.0
C326 C 0.58577 0.75541 0.08503 0.0
C327 C 0.66398 0.77048 0.11191 0.0
H328 H 0.69223 0.75356 0.09431 0.0
H329 H 0.67575 0.80333 0.12284 0.0
H330 H 0.65396 0.74981 0.14137 0.0
O331 O 0.70395 0.73514 0.99449 0.0
O332 O 0.65144 0.70666 0.94905 0.0
H333 H 0.55801 0.69577 -0.00381 0.0
H334 H 0.54095 0.68594 0.05359 0.0
C335 C 0.54377 0.71166 0.02665 0.0
H336 H 0.50986 0.72419 0.01891 0.0
H337 H 0.5291 0.70053 0.90786 0.0
O338 O 0.7269 0.82758 0.05285 0.0
C339 C 0.68847 0.70305 0.97131 0.0
Co340 Co 0.92846 0.92314 0.74662 0.0
Co341 Co 0.96032 0.85209 0.68716 0.0
C342 C 0.87338 0.89045 0.67991 0.0
O343 O 0.87908 0.88888 0.72146 0.0
O344 O 0.90651 0.88007 0.65537 0.0
C345 C 0.86798 0.9378 0.8127 0.0
O346 O 0.87099 0.89397 0.81162 0.0
C347 C 0.94627 0.75768 0.66468 0.0
C348 C 0.01352 0.73389 0.64978 0.0
C349 C 0.97136 0.71802 0.66276 0.0
N350 N 0.97297 0.79373 0.66052 0.0
N351 N 0.01306 0.77903 0.64887 0.0
C352 C 0.89649 0.76063 0.67051 0.0
H353 H 0.88642 0.7936 0.6842 0.0
H354 H 0.88379 0.73276 0.69178 0.0
H355 H 0.88085 0.75742 0.63713 0.0
C356 C 0.96801 0.87386 0.81817 0.0
N357 N 0.96508 0.88142 0.77398 0.0
N358 N 0.95707 0.84414 0.75264 0.0
C359 C 0.94884 0.81229 0.78384 0.0
C360 C 0.95758 0.82964 0.82616 0.0
C361 C 0.96987 0.9102 0.85226 0.0
H362 H 0.97598 0.94316 0.83591 0.0
H363 H 0.93816 0.91152 0.87168 0.0
H364 H -0.00291 0.90254 0.87629 0.0
O365 O 0.96382 0.95456 0.701 0.0
O366 O 0.01072 0.89888 0.6846 0.0
H367 H 0.91041 0.75522 0.80653 0.0
H368 H 0.88573 0.78778 0.76258 0.0
C369 C 0.91778 0.77443 0.77586 0.0
H370 H 0.93253 0.75161 0.75166 0.0
H371 H 0.04102 0.79938 0.64471 0.0
O372 O 0.89471 0.9611 0.78897 0.0
C373 C 0.00306 0.94083 0.69087 0.0
Co374 Co 0.7986 0.19027 0.50897 0.0
Co375 Co 0.88016 0.22441 0.4496 0.0
C376 C 0.82334 0.14765 0.42095 0.0
O377 O 0.79965 0.15322 0.45571 0.0
O378 O 0.85678 0.17248 0.41299 0.0
C379 C 0.77226 0.1175 0.55292 0.0
O380 O 0.80742 0.10581 0.52889 0.0
C381 C 0.97044 0.19096 0.44898 0.0
C382 C 0.01295 0.24595 0.4265 0.0
C383 C 0.01505 0.20365 0.44663 0.0
N384 N 0.94361 0.2241 0.43315 0.0
N385 N 0.96964 0.25643 0.41789 0.0
C386 C 0.95374 0.15013 0.47324 0.0
H387 H 0.91826 0.14359 0.46535 0.0
H388 H 0.95696 0.15467 0.5099 0.0
H389 H 0.97464 0.12067 0.46395 0.0
C390 C 0.85893 0.20763 0.57939 0.0
N391 N 0.85266 0.19794 0.53608 0.0
N392 N 0.88488 0.21565 0.5122 0.0
C393 C 0.91285 0.23665 0.54005 0.0
C394 C 0.89891 0.23019 0.584 0.0
C395 C 0.82034 0.2141 0.61073 0.0
H396 H 0.79231 0.23102 0.59299 0.0
H397 H 0.80865 0.181 0.62175 0.0
H398 H 0.82962 0.23446 0.64013 0.0
O399 O 0.78261 0.25084 0.49275 0.0
O400 O 0.83589 0.27957 0.44703 0.0
H401 H 0.92721 0.29149 0.49524 0.0
H402 H 0.94365 0.3004 0.55261 0.0
C403 C 0.94139 0.27522 0.52557 0.0
H404 H 0.97555 0.26349 0.51753 0.0
H405 H 0.95793 0.28723 0.40596 0.0
O406 O 0.75877 0.15799 0.55168 0.0
C407 C 0.79846 0.28306 0.4692 0.0
Co408 Co 0.05881 0.42354 0.74038 0.0
Co409 Co 0.02702 0.35138 0.79939 0.0
C410 C 0.11368 0.38941 0.80759 0.0
O411 O 0.10827 0.38842 0.766 0.0
O412 O 0.08059 0.37836 0.83187 0.0
C413 C 0.1189 0.43856 0.67432 0.0
O414 O 0.11595 0.39475 0.67548 0.0
C415 C 0.03973 0.25588 0.82106 0.0
C416 C 0.97199 0.2341 0.83569 0.0
C417 C 0.01387 0.21707 0.82272 0.0
N418 N 0.01371 0.29275 0.82566 0.0
N419 N 0.97335 0.27916 0.83713 0.0
C420 C 0.08952 0.25729 0.81504 0.0
H421 H 0.10012 0.29042 0.80194 0.0
H422 H 0.10162 0.22974 0.7932 0.0
H423 H 0.10524 0.2523 0.84826 0.0
C424 C 0.01936 0.37597 0.66839 0.0
N425 N 0.02288 0.38264 0.71256 0.0
N426 N 0.03039 0.34473 0.73382 0.0
C427 C 0.03738 0.31311 0.7025 0.0
C428 C 0.02866 0.33148 0.66022 0.0
C429 C 0.01777 0.41297 0.63433 0.0
H430 H 0.01221 0.44581 0.65072 0.0
H431 H 0.04937 0.41364 0.61472 0.0
H432 H 0.99031 0.40655 0.61047 0.0
O433 O 0.02272 0.4544 0.78566 0.0
O434 O 0.97637 0.39869 0.80183 0.0
H435 H 0.07381 0.25474 0.67947 0.0
H436 H 0.09981 0.28521 0.72333 0.0
C437 C 0.0673 0.27369 0.7102 0.0
H438 H 0.0519 0.25114 0.73439 0.0
H439 H 0.94577 0.3004 0.84142 0.0
O440 O 0.09234 0.4619 0.69823 0.0
C441 C 0.98362 0.4407 0.79571 0.0
Co442 Co 0.29874 0.296 0.47702 0.0
Co443 Co 0.37993 0.2608 0.53601 0.0
C444 C 0.32222 0.33777 0.56501 0.0
O445 O 0.29902 0.33301 0.53025 0.0
O446 O 0.35537 0.31222 0.57284 0.0
C447 C 0.27271 0.36911 0.43311 0.0
O448 O 0.30759 0.38031 0.4569 0.0
C449 C 0.46892 0.29582 0.5367 0.0
C450 C 0.51324 0.24158 0.55853 0.0
C451 C 0.51395 0.28413 0.53886 0.0
N452 N 0.44316 0.26192 0.55222 0.0
N453 N 0.47023 0.23003 0.5671 0.0
C454 C 0.45107 0.33649 0.51276 0.0
H455 H 0.41529 0.34238 0.52078 0.0
H456 H 0.45488 0.33224 0.47606 0.0
H457 H 0.4708 0.36628 0.52212 0.0
C458 C 0.36036 0.2784 0.40644 0.0
N459 N 0.35318 0.28783 0.44979 0.0
N460 N 0.38528 0.26997 0.47357 0.0
C461 C 0.41415 0.24929 0.44562 0.0
C462 C 0.40084 0.25592 0.40172 0.0
C463 C 0.32246 0.27236 0.37497 0.0
H464 H 0.29418 0.25569 0.39258 0.0
H465 H 0.31075 0.3056 0.36398 0.0
H466 H 0.33249 0.25197 0.34556 0.0
O467 O 0.2831 0.23557 0.49333 0.0
O468 O 0.33618 0.2059 0.53842 0.0
H469 H 0.44697 0.18596 0.43319 0.0
H470 H 0.47763 0.22386 0.46748 0.0
C471 C 0.4439 0.21135 0.46003 0.0
H472 H 0.43016 0.19508 0.49066 0.0
H473 H 0.45956 0.19888 0.57876 0.0
O474 O 0.25929 0.32881 0.43446 0.0
C475 C 0.29892 0.20302 0.51655 0.0
Co476 Co 0.42834 0.56392 0.23972 0.0
Co477 Co 0.45871 0.63488 0.2992 0.0
C478 C 0.37208 0.59684 0.30658 0.0
O479 O 0.37831 0.59853 0.26502 0.0
O480 O 0.4047 0.60717 0.33106 0.0
C481 C 0.36894 0.54951 0.17374 0.0
O482 O 0.3714 0.59334 0.17474 0.0
C483 C 0.44391 0.72956 0.32154 0.0
C484 C 0.51092 0.7525 0.33599 0.0
C485 C 0.46886 0.76891 0.32318 0.0
N486 N 0.47068 0.69316 0.32574 0.0
N487 N 0.51058 0.70737 0.33711 0.0
C488 C 0.3942 0.72725 0.31607 0.0
H489 H 0.38438 0.69433 0.30262 0.0
H490 H 0.38161 0.75519 0.29477 0.0
H491 H 0.37822 0.73084 0.34954 0.0
C492 C 0.46849 0.61308 0.16822 0.0
N493 N 0.46489 0.60548 0.21238 0.0
N494 N 0.45628 0.64281 0.23379 0.0
C495 C 0.44839 0.6748 0.20266 0.0
C496 C 0.45792 0.65742 0.16032 0.0
C497 C 0.47119 0.57676 0.13407 0.0
H498 H 0.47777 0.5438 0.15033 0.0
H499 H 0.4396 0.57542 0.11503 0.0
H500 H 0.4984 0.58447 0.10972 0.0
O501 O 0.4634 0.53235 0.28527 0.0
O502 O 0.50953 0.58774 0.30143 0.0
H503 H 0.40977 0.73219 0.18006 0.0
H504 H 0.38476 0.69987 0.22413 0.0
C505 C 0.41688 0.71293 0.21071 0.0
H506 H 0.43111 0.73567 0.23481 0.0
H507 H 0.53858 0.68665 0.34119 0.0
O508 O 0.39561 0.52614 0.19744 0.0
C509 C 0.50239 0.54585 0.29512 0.0
Co510 Co 0.18821 0.69023 0.97432 0.0
Co511 Co 0.10676 0.7247 0.0343 0.0
C512 C 0.16476 0.64782 0.06322 0.0
O513 O 0.18797 0.65302 0.02805 0.0
O514 O 0.13135 0.67302 0.07126 0.0
C515 C 0.21365 0.61696 0.93092 0.0
O516 O 0.17869 0.60599 0.95547 0.0
C517 C 0.01766 0.68984 0.03647 0.0
C518 C 0.9734 0.74403 0.05839 0.0
C519 C 0.97265 0.70165 0.03909 0.0
N520 N 0.04346 0.72353 0.0514 0.0
N521 N 0.01641 0.75537 0.06634 0.0
C522 C 0.03552 0.64932 0.01269 0.0
H523 H 0.07127 0.64332 0.0203 0.0
H524 H 0.03184 0.65382 0.976 0.0
H525 H 0.0157 0.61949 0.02262 0.0
C526 C 0.12652 0.70789 0.90454 0.0
N527 N 0.13378 0.69844 0.94791 0.0
N528 N 0.10162 0.71612 0.97199 0.0
C529 C 0.07271 0.73684 0.94423 0.0
C530 C 0.08604 0.73033 0.90018 0.0
C531 C 0.16429 0.71352 0.8721 0.0
H532 H 0.19288 0.72983 0.88879 0.0
H533 H 0.1755 0.68015 0.86136 0.0
H534 H 0.15429 0.73408 0.84261 0.0
O535 O 0.20377 0.75078 0.98988 0.0
O536 O 0.15053 0.77952 0.03583 0.0
H537 H 0.05668 0.79083 0.98888 0.0
H538 H 0.04013 0.80034 0.93151 0.0
C539 C 0.04302 0.77479 0.9586 0.0
H540 H 0.00921 0.76237 0.96662 0.0
H541 H 0.02713 0.78641 0.0776 0.0
O542 O 0.22744 0.65716 0.9315 0.0
C543 C 0.18778 0.78291 0.01335 0.0
Co544 Co 0.24925 0.55844 0.06293 0.0
Co545 Co 0.1891 0.52743 0.13501 0.0
C546 C 0.18075 0.61373 0.09515 0.0
O547 O 0.2224 0.60816 0.09638 0.0
O548 O 0.15667 0.58089 0.10666 0.0
C549 C 0.31486 0.61866 0.04787 0.0
O550 O 0.3129 0.6158 0.0917 0.0
C551 C 0.16536 0.54199 0.22959 0.0
C552 C 0.1508 0.47498 0.25368 0.0
C553 C 0.16318 0.5171 0.26943 0.0
N554 N 0.16196 0.51518 0.19365 0.0
N555 N 0.15051 0.47525 0.20855 0.0
C556 C 0.17047 0.59175 0.2264 0.0
H557 H 0.18425 0.60167 0.19325 0.0
H558 H 0.19134 0.6045 0.25403 0.0
H559 H 0.13684 0.60747 0.22989 0.0
C560 C 0.32062 0.51938 0.11278 0.0
N561 N 0.2765 0.52249 0.10527 0.0
N562 N 0.25448 0.53076 0.14254 0.0
C563 C 0.28513 0.53895 0.17431 0.0
C564 C 0.32782 0.52998 0.15692 0.0
C565 C 0.35531 0.51706 0.07641 0.0
H566 H 0.33954 0.511 0.0435 0.0
H567 H 0.37456 0.54857 0.075 0.0
H568 H 0.37939 0.48961 0.08415 0.0
O569 O 0.20483 0.52243 0.03212 0.0
O570 O 0.18739 0.47667 0.08859 0.0
H571 H 0.30651 0.57731 0.23133 0.0
H572 H 0.26266 0.60214 0.19889 0.0
C573 C 0.27621 0.57005 0.21219 0.0
H574 H 0.25191 0.55537 0.2351 0.0
H575 H 0.14685 0.44723 0.18832 0.0
O576 O 0.29191 0.59191 0.02459 0.0
C577 C 0.19409 0.48368 0.0465 0.0
Co578 Co 0.74677 0.92835 0.9231 0.0
Co579 Co 0.68737 0.96026 0.85203 0.0
C580 C 0.6801 0.87331 0.89037 0.0
O581 O 0.72165 0.87896 0.88882 0.0
O582 O 0.65556 0.90644 0.88 0.0
C583 C 0.81286 0.86787 0.9379 0.0
O584 O 0.81188 0.87084 0.89406 0.0
C585 C 0.66485 0.94623 0.75763 0.0
C586 C 0.64996 0.01345 0.73386 0.0
C587 C 0.66293 0.97128 0.71793 0.0
N588 N 0.66073 0.97293 0.79369 0.0
N589 N 0.64908 0.01301 0.77899 0.0
C590 C 0.67071 0.89646 0.7606 0.0
H591 H 0.68443 0.8864 0.79356 0.0
H592 H 0.69196 0.88376 0.73271 0.0
H593 H 0.63734 0.8808 0.75742 0.0
C594 C 0.81838 0.96787 0.87385 0.0
N595 N 0.77419 0.96496 0.8814 0.0
N596 N 0.75285 0.95699 0.84411 0.0
C597 C 0.78406 0.94878 0.81227 0.0
C598 C 0.82638 0.95748 0.82964 0.0
C599 C 0.85246 0.9697 0.91021 0.0
H600 H 0.83611 0.97576 0.94316 0.0
H601 H 0.87191 0.938 0.91148 0.0
H602 H 0.87647 -0.00305 0.90258 0.0
O603 O 0.70108 0.96369 0.95445 0.0
O604 O 0.68481 0.01067 0.89882 0.0
H605 H 0.80672 0.91049 0.75511 0.0
H606 H 0.76283 0.88569 0.78765 0.0
C607 C 0.77607 0.91779 0.77436 0.0
H608 H 0.75182 0.93257 0.7516 0.0
H609 H 0.64492 0.04097 0.79933 0.0
O610 O 0.78906 0.89461 0.96112 0.0
C611 C 0.69104 0.00297 0.94076 0.0
Co612 Co 0.79568 0.01033 0.68776 0.0
Co613 Co 0.76196 0.95098 0.60719 0.0
C614 C 0.83879 0.92205 0.66443 0.0
O615 O 0.83323 0.95691 0.6875 0.0
O616 O 0.81375 0.91411 0.63144 0.0
C617 C 0.86825 0.05366 0.71373 0.0
O618 O 0.88044 0.02943 0.67916 0.0
C619 C 0.79699 0.94938 0.51763 0.0
C620 C 0.74293 0.92762 0.47447 0.0
C621 C 0.78528 0.947 0.4728 0.0
N622 N 0.7633 0.93426 0.54411 0.0
N623 N 0.73154 0.9194 0.51774 0.0
C624 C 0.83742 0.97318 0.5346 0.0
H625 H 0.83274 0.00989 0.53076 0.0
H626 H 0.86727 0.96359 0.51432 0.0
H627 H 0.84349 0.96523 0.5703 0.0
C628 C 0.77773 0.08056 0.626 0.0
N629 N 0.78783 0.03723 0.6332 0.0
N630 N 0.77052 0.01334 0.60139 0.0
C631 C 0.74953 0.04121 0.57268 0.0
C632 C 0.75547 0.08516 0.58573 0.0
C633 C 0.77058 0.11202 0.66394 0.0
H634 H 0.75367 0.09441 0.69219 0.0
H635 H 0.80345 0.12293 0.6757 0.0
H636 H 0.74993 0.14149 0.65394 0.0
O637 O 0.73523 0.99455 0.70387 0.0
O638 O 0.70672 0.94915 0.65133 0.0
H639 H 0.69576 -0.00364 0.55807 0.0
H640 H 0.68597 0.05376 0.54097 0.0
C641 C 0.71166 0.0268 0.54378 0.0
H642 H 0.72414 0.01899 0.50986 0.0
H643 H 0.70049 0.90802 0.52907 0.0
O644 O 0.82763 0.05289 0.72683 0.0
C645 C 0.70313 0.97139 0.68838 0.0
Co646 Co 0.74047 0.05885 0.42353 0.0
Co647 Co 0.79944 0.02703 0.35134 0.0
C648 C 0.80767 0.11369 0.38937 0.0
O649 O 0.76607 0.10831 0.38842 0.0
O650 O 0.83194 0.0806 0.3783 0.0
C651 C 0.6744 0.11894 0.43867 0.0
O652 O 0.67548 0.11604 0.39485 0.0
C653 C 0.82114 0.03974 0.25583 0.0
C654 C 0.83578 0.97205 0.23407 0.0
C655 C 0.82282 0.01393 0.21698 0.0
N656 N 0.8257 0.01372 0.29271 0.0
N657 N 0.83719 0.97337 0.27912 0.0
C658 C 0.81508 0.08953 0.25726 0.0
H659 H 0.80195 0.10011 0.29038 0.0
H660 H 0.79325 0.10163 0.22971 0.0
H661 H 0.8483 0.10527 0.2523 0.0
C662 C 0.66843 0.01944 0.37598 0.0
N663 N 0.71261 0.02294 0.38263 0.0
N664 N 0.73386 0.03042 0.34472 0.0
C665 C 0.70254 0.03738 0.3131 0.0
C666 C 0.66025 0.0287 0.33149 0.0
C667 C 0.63437 0.01787 0.41298 0.0
H668 H 0.65077 0.01236 0.44583 0.0
H669 H 0.61474 0.04947 0.41361 0.0
H670 H 0.61052 0.99039 0.4066 0.0
O671 O 0.78576 0.02273 0.45434 0.0
O672 O 0.8019 0.97637 0.39863 0.0
H673 H 0.67954 0.07362 0.25463 0.0
H674 H 0.72332 0.09978 0.28508 0.0
C675 C 0.71025 0.06721 0.27362 0.0
H676 H 0.73449 0.05178 0.25116 0.0
H677 H 0.84147 0.94578 0.30035 0.0
O678 O 0.69836 0.09236 0.46194 0.0
C679 C 0.7958 0.98362 0.44064 0.0
Co680 Co 0.69021 0.97449 0.18812 0.0
Co681 Co 0.72472 0.03442 0.10665 0.0
C682 C 0.6478 0.06336 0.1646 0.0
O683 O 0.65299 0.02822 0.18785 0.0
O684 O 0.67302 0.07138 0.1312 0.0
C685 C 0.61697 0.93105 0.21357 0.0
O686 O 0.60599 0.95556 0.17857 0.0
C687 C 0.68993 0.03659 0.01753 0.0
C688 C 0.74415 0.05851 0.97331 0.0
C689 C 0.70177 0.03921 0.97252 0.0
N690 N 0.7236 0.05151 0.04335 0.0
N691 N 0.75546 0.06645 0.01633 0.0
C692 C 0.64939 0.01281 0.03535 0.0
H693 H 0.64337 0.02042 0.0711 0.0
H694 H 0.65391 0.97611 0.03168 0.0
H695 H 0.61959 0.02273 0.01551 0.0
C696 C 0.70787 0.90467 0.12647 0.0
N697 N 0.69844 0.94805 0.1337 0.0
N698 N 0.71613 0.9721 0.10153 0.0
C699 C 0.73684 0.94432 0.07265 0.0
C700 C 0.73032 0.90028 0.08599 0.0
C701 C 0.71347 0.87223 0.16425 0.0
H702 H 0.72977 0.88892 0.19283 0.0
H703 H 0.68009 0.8615 0.17545 0.0
H704 H 0.73401 0.84272 0.15427 0.0
O705 O 0.75074 0.99008 0.20369 0.0
O706 O 0.77952 0.03597 0.15042 0.0
H707 H 0.79087 0.98895 0.05664 0.0
H708 H 0.80034 0.93157 0.04009 0.0
C709 C 0.77481 0.95867 0.04297 0.0
H710 H 0.76241 0.9667 0.00916 0.0
H711 H 0.78649 0.07771 0.02707 0.0
O712 O 0.65715 0.93169 0.22737 0.0
C713 C 0.78289 0.01352 0.18769 0.0
Co714 Co 0.23984 0.42823 0.56372 0.0
Co715 Co 0.29926 0.45865 0.63469 0.0
C716 C 0.30667 0.37201 0.59668 0.0
O717 O 0.2651 0.37819 0.59835 0.0
O718 O 0.33114 0.40464 0.607 0.0
C719 C 0.17385 0.36883 0.54917 0.0
O720 O 0.17474 0.37124 0.593 0.0
C721 C 0.32164 0.44387 0.72937 0.0
C722 C 0.33609 0.51084 0.75229 0.0
C723 C 0.32329 0.46878 0.76876 0.0
N724 N 0.32579 0.47064 0.69297 0.0
N725 N 0.33718 0.51053 0.70718 0.0
C726 C 0.31613 0.39416 0.72705 0.0
H727 H 0.30264 0.38436 0.69414 0.0
H728 H 0.29483 0.38158 0.755 0.0
H729 H 0.34959 0.37816 0.73061 0.0
C730 C 0.16828 0.46834 0.61282 0.0
N731 N 0.21245 0.46477 0.60524 0.0
N732 N 0.23385 0.45621 0.64259 0.0
C733 C 0.20271 0.44833 0.67457 0.0
C734 C 0.16037 0.45781 0.65717 0.0
C735 C 0.13414 0.47101 0.5765 0.0
H736 H 0.15041 0.47751 0.54353 0.0
H737 H 0.11506 0.43944 0.57521 0.0
H738 H 0.10982 0.49826 0.58414 0.0
O739 O 0.28547 0.46327 0.53222 0.0
O740 O 0.3015 0.50948 0.58756 0.0
H741 H 0.18013 0.4099 0.73208 0.0
H742 H 0.22413 0.38475 0.69978 0.0
C743 C 0.21076 0.41691 0.71276 0.0
H744 H 0.23492 0.43118 0.73543 0.0
H745 H 0.34126 0.53853 0.68646 0.0
O746 O 0.19763 0.3955 0.52587 0.0
C747 C 0.29523 0.50231 0.54568 0.0
Co748 Co 0.29606 0.47718 0.29856 0.0
Co749 Co 0.26083 0.53614 0.37976 0.0
C750 C 0.33784 0.56516 0.32209 0.0
O751 O 0.33308 0.53041 0.29887 0.0
O752 O 0.31226 0.57297 0.35523 0.0
C753 C 0.36915 0.43324 0.27252 0.0
O754 O 0.38036 0.45699 0.30742 0.0
C755 C 0.29578 0.53683 0.46877 0.0
C756 C 0.2415 0.55867 0.51305 0.0
C757 C 0.28406 0.53902 0.51379 0.0
N758 N 0.2619 0.55235 0.44299 0.0
N759 N 0.22999 0.56723 0.47003 0.0
C760 C 0.33645 0.51289 0.45096 0.0
H761 H 0.34238 0.52091 0.41518 0.0
H762 H 0.3322 0.47619 0.45477 0.0
H763 H 0.36622 0.52225 0.47072 0.0
C764 C 0.27845 0.40657 0.36015 0.0
N765 N 0.28787 0.44992 0.35298 0.0
N766 N 0.27 0.47369 0.38509 0.0
C767 C 0.24932 0.44572 0.41394 0.0
C768 C 0.25597 0.40182 0.40061 0.0
C769 C 0.27245 0.37509 0.32223 0.0
H770 H 0.25578 0.39271 0.29396 0.0
H771 H 0.3057 0.36413 0.31053 0.0
H772 H 0.25207 0.34567 0.33225 0.0
O773 O 0.23564 0.49351 0.2829 0.0
O774 O 0.20594 0.53856 0.336 0.0
H775 H 0.18599 0.43325 0.44674 0.0
H776 H 0.22385 0.46758 0.47741 0.0
C777 C 0.21136 0.46011 0.44367 0.0
H778 H 0.19509 0.49074 0.42992 0.0
H779 H 0.19884 0.57889 0.45933 0.0
O780 O 0.32886 0.43464 0.25909 0.0
C781 C 0.20308 0.51671 0.29873 0.0
Co782 Co 0.19024 0.50902 0.79841 0.0
Co783 Co 0.22442 0.44971 0.87999 0.0
C784 C 0.14764 0.42102 0.82321 0.0
O785 O 0.15319 0.45576 0.79949 0.0
O786 O 0.1725 0.41308 0.85664 0.0
C787 C 0.11751 0.553 0.77206 0.0
O788 O 0.10579 0.52901 0.80723 0.0
C789 C 0.19106 0.44908 0.9703 0.0
C790 C 0.24609 0.42659 0.01274 0.0
C791 C 0.20379 0.44672 0.01489 0.0
N792 N 0.22417 0.43326 0.94343 0.0
N793 N 0.25653 0.418 0.96943 0.0
C794 C 0.15022 0.47334 0.95364 0.0
H795 H 0.14364 0.46544 0.91816 0.0
H796 H 0.15475 0.51 0.95685 0.0
H797 H 0.12077 0.46405 0.97457 0.0
C798 C 0.2076 0.57949 0.8587 0.0
N799 N 0.19792 0.53617 0.85245 0.0
N800 N 0.21565 0.51231 0.88468 0.0
C801 C 0.23665 0.54018 0.91262 0.0
C802 C 0.23018 0.58413 0.89866 0.0
C803 C 0.21403 0.61082 0.8201 0.0
H804 H 0.23096 0.59308 0.79206 0.0
H805 H 0.18093 0.62182 0.80841 0.0
H806 H 0.23438 0.64025 0.82936 0.0
O807 O 0.2508 0.4928 0.78241 0.0
O808 O 0.27957 0.44713 0.83571 0.0
H809 H 0.29153 0.49541 0.92693 0.0
H810 H 0.30041 0.55279 0.94338 0.0
C811 C 0.27525 0.52573 0.94112 0.0
H812 H 0.26356 0.51766 0.97529 0.0
H813 H 0.28731 0.40607 0.95768 0.0
O814 O 0.15799 0.55171 0.75855 0.0
C815 C 0.28304 0.46928 0.79827 0.0
loop_
_geom_bond_atom_site_label_1
_geom_bond_atom_site_label_2
_geom_bond_distance
_geom_bond_site_symmetry_2
_ccdc_geom_bond_type
Co0 O3 1.970 . S
Co0 N17 1.989 . S
Co0 O25 1.967 . S
Co0 O32 1.920 . S
Co1 O4 1.966 . S
Co1 N10 2.022 . S
Co1 N18 1.993 . S
Co1 O26 1.941 . S
C2 O3 1.258 . S
C2 O4 1.263 . S
O3 Co0 1.970 . S
O3 C2 1.258 . S
O4 Co1 1.966 . S
O4 C2 1.263 . S
C5 O6 1.235 . S
C5 O32 1.289 . S
O6 C5 1.235 . S
C7 C9 1.400 . S
C7 N10 1.351 . S
C7 C12 1.501 . S
C8 C9 1.387 . S
C8 N11 1.341 . S
C9 C7 1.400 . S
C9 C8 1.387 . S
N10 Co1 2.022 . S
N10 C7 1.351 . S
N10 N11 1.365 . S
N11 C8 1.341 . S
N11 N10 1.365 . S
N11 H31 0.862 . S
C12 C7 1.501 . S
C12 H13 0.961 . S
C12 H14 0.961 . S
C12 H15 0.960 . S
H13 C12 0.961 . S
H14 C12 0.961 . S
H15 C12 0.960 . S
C16 N17 1.342 . S
C16 C20 1.401 . S
C16 C21 1.499 . S
N17 Co0 1.989 . S
N17 C16 1.342 . S
N17 N18 1.388 . S
N18 Co1 1.993 . S
N18 N17 1.388 . S
N18 C19 1.346 . S
C19 N18 1.346 . S
C19 C20 1.396 . S
C19 C29 1.510 . S
C20 C16 1.401 . S
C20 C19 1.396 . S
C21 C16 1.499 . S
C21 H22 0.959 . S
C21 H23 0.960 . S
C21 H24 0.961 . S
H22 C21 0.959 . S
H23 C21 0.960 . S
H24 C21 0.961 . S
O25 Co0 1.967 . S
O25 C33 1.258 . S
O26 Co1 1.941 . S
O26 C33 1.266 . S
H27 C29 0.959 . S
H28 C29 0.961 . S
C29 C19 1.510 . S
C29 H27 0.959 . S
C29 H28 0.961 . S
C29 H30 0.960 . S
H30 C29 0.960 . S
H31 N11 0.862 . S
O32 Co0 1.920 . S
O32 C5 1.289 . S
C33 O25 1.258 . S
C33 O26 1.266 . S
Co34 O37 1.970 . S
Co34 N51 1.989 . S
Co34 O59 1.967 . S
Co34 O66 1.920 . S
Co35 O38 1.966 . S
Co35 N44 2.022 . S
Co35 N52 1.993 . S
Co35 O60 1.941 . S
C36 O37 1.258 . S
C36 O38 1.263 . S
O37 Co34 1.970 . S
O37 C36 1.258 . S
O38 Co35 1.966 . S
O38 C36 1.263 . S
C39 O40 1.235 . S
C39 O66 1.289 . S
O40 C39 1.235 . S
C41 C43 1.400 . S
C41 N44 1.351 . S
C41 C46 1.501 . S
C42 C43 1.387 . S
C42 N45 1.341 . S
C43 C41 1.400 . S
C43 C42 1.387 . S
N44 Co35 2.022 . S
N44 C41 1.351 . S
N44 N45 1.365 . S
N45 C42 1.341 . S
N45 N44 1.365 . S
N45 H65 0.862 . S
C46 C41 1.501 . S
C46 H47 0.961 . S
C46 H48 0.961 . S
C46 H49 0.960 . S
H47 C46 0.961 . S
H48 C46 0.961 . S
H49 C46 0.960 . S
C50 N51 1.342 . S
C50 C54 1.401 . S
C50 C55 1.499 . S
N51 Co34 1.989 . S
N51 C50 1.342 . S
N51 N52 1.388 . S
N52 Co35 1.993 . S
N52 N51 1.388 . S
N52 C53 1.346 . S
C53 N52 1.346 . S
C53 C54 1.396 . S
C53 C63 1.510 . S
C54 C50 1.401 . S
C54 C53 1.396 . S
C55 C50 1.499 . S
C55 H56 0.959 . S
C55 H57 0.960 . S
C55 H58 0.961 . S
H56 C55 0.959 . S
H57 C55 0.960 . S
H58 C55 0.961 . S
O59 Co34 1.967 . S
O59 C67 1.258 . S
O60 Co35 1.941 . S
O60 C67 1.266 . S
H61 C63 0.959 . S
H62 C63 0.961 . S
C63 C53 1.510 . S
C63 H61 0.959 . S
C63 H62 0.961 . S
C63 H64 0.960 . S
H64 C63 0.960 . S
H65 N45 0.862 . S
O66 Co34 1.920 . S
O66 C39 1.289 . S
C67 O59 1.258 . S
C67 O60 1.266 . S
Co68 O71 1.970 . S
Co68 N85 1.989 . S
Co68 O93 1.967 . S
Co68 O100 1.920 . S
Co69 O72 1.966 . S
Co69 N78 2.022 1_554 S
Co69 N86 1.993 . S
Co69 O94 1.941 . S
C70 O71 1.258 . S
C70 O72 1.263 . S
O71 Co68 1.970 . S
O71 C70 1.258 . S
O72 Co69 1.966 . S
O72 C70 1.263 . S
C73 O74 1.235 . S
C73 O100 1.289 . S
O74 C73 1.235 . S
C75 C77 1.400 . S
C75 N78 1.351 . S
C75 C80 1.501 1_556 S
C76 C77 1.387 . S
C76 N79 1.341 . S
C77 C75 1.400 . S
C77 C76 1.387 . S
N78 Co69 2.022 1_556 S
N78 C75 1.351 . S
N78 N79 1.365 . S
N79 C76 1.341 . S
N79 N78 1.365 . S
N79 H99 0.862 . S
C80 C75 1.501 1_554 S
C80 H81 0.961 . S
C80 H82 0.961 . S
C80 H83 0.960 . S
H81 C80 0.961 . S
H82 C80 0.961 . S
H83 C80 0.960 . S
C84 N85 1.342 . S
C84 C88 1.401 . S
C84 C89 1.499 . S
N85 Co68 1.989 . S
N85 C84 1.342 . S
N85 N86 1.388 . S
N86 Co69 1.993 . S
N86 N85 1.388 . S
N86 C87 1.346 . S
C87 N86 1.346 . S
C87 C88 1.396 . S
C87 C97 1.510 . S
C88 C84 1.401 . S
C88 C87 1.396 . S
C89 C84 1.499 . S
C89 H90 0.959 . S
C89 H91 0.960 . S
C89 H92 0.961 . S
H90 C89 0.959 . S
H91 C89 0.960 . S
H92 C89 0.961 . S
O93 Co68 1.967 . S
O93 C101 1.258 . S
O94 Co69 1.941 . S
O94 C101 1.266 . S
H95 C97 0.959 . S
H96 C97 0.961 . S
C97 C87 1.510 . S
C97 H95 0.959 . S
C97 H96 0.961 . S
C97 H98 0.960 . S
H98 C97 0.960 . S
H99 N79 0.862 . S
O100 Co68 1.920 . S
O100 C73 1.289 . S
C101 O93 1.258 . S
C101 O94 1.266 . S
Co102 O105 1.970 1_455 S
Co102 N119 1.989 . S
Co102 O127 1.967 1_455 S
Co102 O134 1.920 . S
Co103 O106 1.966 . S
Co103 N112 2.022 . S
Co103 N120 1.993 1_655 S
Co103 O128 1.941 . S
C104 O105 1.258 . S
C104 O106 1.263 . S
O105 Co102 1.970 1_655 S
O105 C104 1.258 . S
O106 Co103 1.966 . S
O106 C104 1.263 . S
C107 O108 1.235 . S
C107 O134 1.289 . S
O108 C107 1.235 . S
C109 C111 1.400 . S
C109 N112 1.351 . S
C109 C114 1.501 . S
C110 C111 1.387 1_455 S
C110 N113 1.341 . S
C111 C109 1.400 . S
C111 C110 1.387 1_655 S
N112 Co103 2.022 . S
N112 C109 1.351 . S
N112 N113 1.365 1_655 S
N113 C110 1.341 . S
N113 N112 1.365 1_455 S
N113 H133 0.862 . S
C114 C109 1.501 . S
C114 H115 0.961 . S
C114 H116 0.961 . S
C114 H117 0.960 . S
H115 C114 0.961 . S
H116 C114 0.961 . S
H117 C114 0.960 . S
C118 N119 1.342 . S
C118 C122 1.401 . S
C118 C123 1.499 . S
N119 Co102 1.989 . S
N119 C118 1.342 . S
N119 N120 1.388 . S
N120 Co103 1.993 1_455 S
N120 N119 1.388 . S
N120 C121 1.346 . S
C121 N120 1.346 . S
C121 C122 1.396 . S
C121 C131 1.510 . S
C122 C118 1.401 . S
C122 C121 1.396 . S
C123 C118 1.499 . S
C123 H124 0.959 . S
C123 H125 0.960 . S
C123 H126 0.961 . S
H124 C123 0.959 . S
H125 C123 0.960 . S
H126 C123 0.961 . S
O127 Co102 1.967 1_655 S
O127 C135 1.258 . S
O128 Co103 1.941 . S
O128 C135 1.266 . S
H129 C131 0.959 . S
H130 C131 0.961 . S
C131 C121 1.510 . S
C131 H129 0.959 . S
C131 H130 0.961 . S
C131 H132 0.960 . S
H132 C131 0.960 . S
H133 N113 0.862 . S
O134 Co102 1.920 . S
O134 C107 1.289 . S
C135 O127 1.258 . S
C135 O128 1.266 . S
Co136 O139 1.970 . S
Co136 N153 1.989 . S
Co136 O161 1.967 . S
Co136 O168 1.920 . S
Co137 O140 1.966 . S
Co137 N146 2.022 . S
Co137 N154 1.993 . S
Co137 O162 1.941 . S
C138 O139 1.258 . S
C138 O140 1.263 . S
O139 Co136 1.970 . S
O139 C138 1.258 . S
O140 Co137 1.966 . S
O140 C138 1.263 . S
C141 O142 1.235 . S
C141 O168 1.289 . S
O142 C141 1.235 . S
C143 C145 1.400 . S
C143 N146 1.351 . S
C143 C148 1.501 . S
C144 C145 1.387 . S
C144 N147 1.341 . S
C145 C143 1.400 . S
C145 C144 1.387 . S
N146 Co137 2.022 . S
N146 C143 1.351 . S
N146 N147 1.365 . S
N147 C144 1.341 . S
N147 N146 1.365 . S
N147 H167 0.862 . S
C148 C143 1.501 . S
C148 H149 0.961 . S
C148 H150 0.961 . S
C148 H151 0.960 . S
H149 C148 0.961 . S
H150 C148 0.961 . S
H151 C148 0.960 . S
C152 N153 1.342 . S
C152 C156 1.401 . S
C152 C157 1.499 . S
N153 Co136 1.989 . S
N153 C152 1.342 . S
N153 N154 1.388 . S
N154 Co137 1.993 . S
N154 N153 1.388 . S
N154 C155 1.346 . S
C155 N154 1.346 . S
C155 C156 1.396 . S
C155 C165 1.510 . S
C156 C152 1.401 . S
C156 C155 1.396 . S
C157 C152 1.499 . S
C157 H158 0.959 . S
C157 H159 0.960 . S
C157 H160 0.961 . S
H158 C157 0.959 . S
H159 C157 0.960 . S
H160 C157 0.961 . S
O161 Co136 1.967 . S
O161 C169 1.258 . S
O162 Co137 1.941 . S
O162 C169 1.266 . S
H163 C165 0.959 . S
H164 C165 0.961 . S
C165 C155 1.510 . S
C165 H163 0.959 . S
C165 H164 0.961 . S
C165 H166 0.960 . S
H166 C165 0.960 . S
H167 N147 0.862 . S
O168 Co136 1.920 . S
O168 C141 1.289 . S
C169 O161 1.258 . S
C169 O162 1.266 . S
Co170 O173 1.970 . S
Co170 N187 1.989 . S
Co170 O195 1.967 . S
Co170 O202 1.920 . S
Co171 O174 1.966 . S
Co171 N180 2.022 1_565 S
Co171 N188 1.993 . S
Co171 O196 1.941 . S
C172 O173 1.258 . S
C172 O174 1.263 . S
O173 Co170 1.970 . S
O173 C172 1.258 . S
O174 Co171 1.966 . S
O174 C172 1.263 . S
C175 O176 1.235 . S
C175 O202 1.289 . S
O176 C175 1.235 . S
C177 C179 1.400 . S
C177 N180 1.351 . S
C177 C182 1.501 . S
C178 C179 1.387 . S
C178 N181 1.341 . S
C179 C177 1.400 . S
C179 C178 1.387 . S
N180 Co171 2.022 1_545 S
N180 C177 1.351 . S
N180 N181 1.365 . S
N181 C178 1.341 . S
N181 N180 1.365 . S
N181 H201 0.862 . S
C182 C177 1.501 . S
C182 H183 0.961 . S
C182 H184 0.961 . S
C182 H185 0.960 . S
H183 C182 0.961 . S
H184 C182 0.961 . S
H185 C182 0.960 . S
C186 N187 1.342 . S
C186 C190 1.401 . S
C186 C191 1.499 . S
N187 Co170 1.989 . S
N187 C186 1.342 . S
N187 N188 1.388 . S
N188 Co171 1.993 . S
N188 N187 1.388 . S
N188 C189 1.346 . S
C189 N188 1.346 . S
C189 C190 1.396 . S
C189 C199 1.510 1_565 S
C190 C186 1.401 . S
C190 C189 1.396 . S
C191 C186 1.499 . S
C191 H192 0.959 . S
C191 H193 0.960 . S
C191 H194 0.961 . S
H192 C191 0.959 . S
H193 C191 0.960 . S
H194 C191 0.961 . S
O195 Co170 1.967 . S
O195 C203 1.258 . S
O196 Co171 1.941 . S
O196 C203 1.266 . S
H197 C199 0.959 . S
H198 C199 0.961 . S
C199 C189 1.510 1_545 S
C199 H197 0.959 . S
C199 H198 0.961 . S
C199 H200 0.960 . S
H200 C199 0.960 . S
H201 N181 0.862 . S
O202 Co170 1.920 . S
O202 C175 1.289 . S
C203 O195 1.258 . S
C203 O196 1.266 . S
Co204 O207 1.970 . S
Co204 N221 1.989 . S
Co204 O229 1.967 . S
Co204 O236 1.920 . S
Co205 O208 1.966 . S
Co205 N214 2.035 . S
Co205 N222 1.993 . S
Co205 O230 1.941 . S
C206 O207 1.258 . S
C206 O208 1.263 . S
O207 Co204 1.970 . S
O207 C206 1.258 . S
O208 Co205 1.966 . S
O208 C206 1.263 . S
C209 O210 1.235 . S
C209 O236 1.289 . S
O210 C209 1.235 . S
C211 C213 1.400 1_556 S
C211 N214 1.352 . S
C211 C216 1.501 . S
C212 C213 1.387 . S
C212 N215 1.341 . S
C213 C211 1.400 1_554 S
C213 C212 1.387 . S
N214 Co205 2.035 . S
N214 C211 1.352 . S
N214 N215 1.352 1_556 S
N215 C212 1.341 . S
N215 N214 1.352 1_554 S
N215 H235 0.862 . S
C216 C211 1.501 . S
C216 H217 0.961 . S
C216 H218 0.961 . S
C216 H219 0.960 . S
H217 C216 0.961 . S
H218 C216 0.961 . S
H219 C216 0.960 . S
C220 N221 1.342 . S
C220 C224 1.401 . S
C220 C225 1.499 . S
N221 Co204 1.989 . S
N221 C220 1.342 . S
N221 N222 1.388 . S
N222 Co205 1.993 . S
N222 N221 1.388 . S
N222 C223 1.346 . S
C223 N222 1.346 . S
C223 C224 1.396 . S
C223 C233 1.510 . S
C224 C220 1.401 . S
C224 C223 1.396 . S
C225 C220 1.499 . S
C225 H226 0.959 . S
C225 H227 0.960 . S
C225 H228 0.961 . S
H226 C225 0.959 . S
H227 C225 0.960 . S
H228 C225 0.961 . S
O229 Co204 1.967 . S
O229 C237 1.258 . S
O230 Co205 1.941 . S
O230 C237 1.266 . S
H231 C233 0.959 . S
H232 C233 0.961 . S
C233 C223 1.510 . S
C233 H231 0.959 . S
C233 H232 0.961 . S
C233 H234 0.960 . S
H234 C233 0.960 . S
H235 N215 0.862 . S
O236 Co204 1.920 . S
O236 C209 1.289 . S
C237 O229 1.258 . S
C237 O230 1.266 . S
Co238 O241 1.956 1_655 S
Co238 N255 2.001 . S
Co238 O263 1.964 1_655 S
Co238 O270 1.924 . S
Co239 O242 1.966 . S
Co239 N248 2.022 1_545 S
Co239 N256 1.993 1_455 S
Co239 O264 1.941 . S
C240 O241 1.258 . S
C240 O242 1.263 . S
O241 Co238 1.956 1_455 S
O241 C240 1.258 . S
O242 Co239 1.966 . S
O242 C240 1.263 . S
C243 O244 1.235 . S
C243 O270 1.289 . S
O244 C243 1.235 . S
C245 C247 1.400 . S
C245 N248 1.351 . S
C245 C250 1.501 . S
C246 C247 1.387 1_655 S
C246 N249 1.341 . S
C247 C245 1.400 . S
C247 C246 1.387 1_455 S
N248 Co239 2.022 1_565 S
N248 C245 1.351 . S
N248 N249 1.365 1_455 S
N249 C246 1.341 . S
N249 N248 1.365 1_655 S
N249 H269 0.862 . S
C250 C245 1.501 . S
C250 H251 0.961 . S
C250 H252 0.961 . S
C250 H253 0.960 . S
H251 C250 0.961 . S
H252 C250 0.961 . S
H253 C250 0.960 . S
C254 N255 1.342 . S
C254 C258 1.401 . S
C254 C259 1.499 . S
N255 Co238 2.001 . S
N255 C254 1.342 . S
N255 N256 1.388 . S
N256 Co239 1.993 1_655 S
N256 N255 1.388 . S
N256 C257 1.346 . S
C257 N256 1.346 . S
C257 C258 1.396 . S
C257 C267 1.510 1_545 S
C258 C254 1.401 . S
C258 C257 1.396 . S
C259 C254 1.499 . S
C259 H260 0.959 . S
C259 H261 0.960 . S
C259 H262 0.961 . S
H260 C259 0.959 . S
H261 C259 0.960 . S
H262 C259 0.961 . S
O263 Co238 1.964 1_455 S
O263 C271 1.258 . S
O264 Co239 1.941 . S
O264 C271 1.266 . S
H265 C267 0.959 . S
H266 C267 0.961 . S
C267 C257 1.510 1_565 S
C267 H265 0.959 . S
C267 H266 0.961 . S
C267 H268 0.960 . S
H268 C267 0.960 . S
H269 N249 0.862 . S
O270 Co238 1.924 . S
O270 C243 1.289 . S
C271 O263 1.258 . S
C271 O264 1.266 . S
Co272 O275 1.970 . S
Co272 N289 1.989 . S
Co272 O297 1.967 . S
Co272 O304 1.920 . S
Co273 O276 1.966 . S
Co273 N282 2.022 . S
Co273 N290 1.993 . S
Co273 O298 1.941 . S
C274 O275 1.258 . S
C274 O276 1.263 . S
O275 Co272 1.970 . S
O275 C274 1.258 . S
O276 Co273 1.966 . S
O276 C274 1.263 . S
C277 O278 1.235 . S
C277 O304 1.289 . S
O278 C277 1.235 . S
C279 C281 1.400 . S
C279 N282 1.351 . S
C279 C284 1.501 . S
C280 C281 1.387 . S
C280 N283 1.341 . S
C281 C279 1.400 . S
C281 C280 1.387 . S
N282 Co273 2.022 . S
N282 C279 1.351 . S
N282 N283 1.365 . S
N283 C280 1.341 . S
N283 N282 1.365 . S
N283 H303 0.862 . S
C284 C279 1.501 . S
C284 H285 0.961 . S
C284 H286 0.961 . S
C284 H287 0.960 . S
H285 C284 0.961 . S
H286 C284 0.961 . S
H287 C284 0.960 . S
C288 N289 1.342 . S
C288 C292 1.401 . S
C288 C293 1.499 . S
N289 Co272 1.989 . S
N289 C288 1.342 . S
N289 N290 1.388 . S
N290 Co273 1.993 . S
N290 N289 1.388 . S
N290 C291 1.346 . S
C291 N290 1.346 . S
C291 C292 1.396 . S
C291 C301 1.510 . S
C292 C288 1.401 . S
C292 C291 1.396 . S
C293 C288 1.499 . S
C293 H294 0.959 . S
C293 H295 0.960 . S
C293 H296 0.961 . S
H294 C293 0.959 . S
H295 C293 0.960 . S
H296 C293 0.961 . S
O297 Co272 1.967 . S
O297 C305 1.258 . S
O298 Co273 1.941 . S
O298 C305 1.266 . S
H299 C301 0.959 . S
H300 C301 0.961 . S
C301 C291 1.510 . S
C301 H299 0.959 . S
C301 H300 0.961 . S
C301 H302 0.960 . S
H302 C301 0.960 . S
H303 N283 0.862 . S
O304 Co272 1.920 . S
O304 C277 1.289 . S
C305 O297 1.258 . S
C305 O298 1.266 . S
Co306 O309 1.970 1_554 S
Co306 N323 1.989 . S
Co306 O331 1.967 1_554 S
Co306 O338 1.920 . S
Co307 O310 1.966 . S
Co307 N316 2.022 . S
Co307 N324 1.993 1_556 S
Co307 O332 1.941 . S
C308 O309 1.258 . S
C308 O310 1.263 . S
O309 Co306 1.970 1_556 S
O309 C308 1.258 . S
O310 Co307 1.966 . S
O310 C308 1.263 . S
C311 O312 1.235 . S
C311 O338 1.289 . S
O312 C311 1.235 . S
C313 C315 1.400 . S
C313 N316 1.351 . S
C313 C318 1.501 . S
C314 C315 1.387 1_554 S
C314 N317 1.341 . S
C315 C313 1.400 . S
C315 C314 1.387 1_556 S
N316 Co307 2.022 . S
N316 C313 1.351 . S
N316 N317 1.365 1_556 S
N317 C314 1.341 . S
N317 N316 1.365 1_554 S
N317 H337 0.862 . S
C318 C313 1.501 . S
C318 H319 0.961 . S
C318 H320 0.961 . S
C318 H321 0.960 . S
H319 C318 0.961 . S
H320 C318 0.961 . S
H321 C318 0.960 . S
C322 N323 1.342 . S
C322 C326 1.401 . S
C322 C327 1.499 . S
N323 Co306 1.989 . S
N323 C322 1.342 . S
N323 N324 1.388 . S
N324 Co307 1.993 1_554 S
N324 N323 1.388 . S
N324 C325 1.346 . S
C325 N324 1.346 . S
C325 C326 1.396 . S
C325 C335 1.510 . S
C326 C322 1.401 . S
C326 C325 1.396 . S
C327 C322 1.499 . S
C327 H328 0.959 . S
C327 H329 0.960 . S
C327 H330 0.961 . S
H328 C327 0.959 . S
H329 C327 0.960 . S
H330 C327 0.961 . S
O331 Co306 1.967 1_556 S
O331 C339 1.258 . S
O332 Co307 1.941 . S
O332 C339 1.266 . S
H333 C335 0.959 . S
H334 C335 0.961 . S
C335 C325 1.510 . S
C335 H333 0.959 . S
C335 H334 0.961 . S
C335 H336 0.960 . S
H336 C335 0.960 . S
H337 N317 0.862 . S
O338 Co306 1.920 . S
O338 C311 1.289 . S
C339 O331 1.258 . S
C339 O332 1.266 . S
Co340 O343 1.970 . S
Co340 N357 1.989 . S
Co340 O365 1.967 . S
Co340 O372 1.920 . S
Co341 O344 1.966 . S
Co341 N350 2.035 . S
Co341 N358 1.993 . S
Co341 O366 1.941 . S
C342 O343 1.258 . S
C342 O344 1.263 . S
O343 Co340 1.970 . S
O343 C342 1.258 . S
O344 Co341 1.966 . S
O344 C342 1.263 . S
C345 O346 1.235 . S
C345 O372 1.289 . S
O346 C345 1.235 . S
C347 C349 1.400 1_655 S
C347 N350 1.352 . S
C347 C352 1.501 . S
C348 C349 1.387 . S
C348 N351 1.341 . S
C349 C347 1.400 1_455 S
C349 C348 1.387 . S
N350 Co341 2.035 . S
N350 C347 1.352 . S
N350 N351 1.352 1_655 S
N351 C348 1.341 . S
N351 N350 1.352 1_455 S
N351 H371 0.862 . S
C352 C347 1.501 . S
C352 H353 0.961 . S
C352 H354 0.961 . S
C352 H355 0.960 . S
H353 C352 0.961 . S
H354 C352 0.961 . S
H355 C352 0.960 . S
C356 N357 1.342 . S
C356 C360 1.401 . S
C356 C361 1.499 . S
N357 Co340 1.989 . S
N357 C356 1.342 . S
N357 N358 1.388 . S
N358 Co341 1.993 . S
N358 N357 1.388 . S
N358 C359 1.346 . S
C359 N358 1.346 . S
C359 C360 1.396 . S
C359 C369 1.510 . S
C360 C356 1.401 . S
C360 C359 1.396 . S
C361 C356 1.499 . S
C361 H362 0.959 . S
C361 H363 0.960 . S
C361 H364 0.961 . S
H362 C361 0.959 . S
H363 C361 0.960 . S
H364 C361 0.961 . S
O365 Co340 1.967 . S
O365 C373 1.258 . S
O366 Co341 1.941 . S
O366 C373 1.266 . S
H367 C369 0.959 . S
H368 C369 0.961 . S
C369 C359 1.510 . S
C369 H367 0.959 . S
C369 H368 0.961 . S
C369 H370 0.960 . S
H370 C369 0.960 . S
H371 N351 0.862 . S
O372 Co340 1.920 . S
O372 C345 1.289 . S
C373 O365 1.258 . S
C373 O366 1.266 . S
Co374 O377 1.970 . S
Co374 N391 1.989 . S
Co374 O399 1.967 . S
Co374 O406 1.920 . S
Co375 O378 1.966 . S
Co375 N384 2.022 1_655 S
Co375 N392 1.993 . S
Co375 O400 1.941 . S
C376 O377 1.258 . S
C376 O378 1.263 . S
O377 Co374 1.970 . S
O377 C376 1.258 . S
O378 Co375 1.966 . S
O378 C376 1.263 . S
C379 O380 1.235 . S
C379 O406 1.289 . S
O380 C379 1.235 . S
C381 C383 1.400 . S
C381 N384 1.351 . S
C381 C386 1.501 . S
C382 C383 1.387 . S
C382 N385 1.341 . S
C383 C381 1.400 . S
C383 C382 1.387 . S
N384 Co375 2.022 1_455 S
N384 C381 1.351 . S
N384 N385 1.365 . S
N385 C382 1.341 . S
N385 N384 1.365 . S
N385 H405 0.862 . S
C386 C381 1.501 . S
C386 H387 0.961 . S
C386 H388 0.961 . S
C386 H389 0.960 . S
H387 C386 0.961 . S
H388 C386 0.961 . S
H389 C386 0.960 . S
C390 N391 1.342 . S
C390 C394 1.401 . S
C390 C395 1.499 . S
N391 Co374 1.989 . S
N391 C390 1.342 . S
N391 N392 1.388 . S
N392 Co375 1.993 . S
N392 N391 1.388 . S
N392 C393 1.346 . S
C393 N392 1.346 . S
C393 C394 1.396 . S
C393 C403 1.510 1_655 S
C394 C390 1.401 . S
C394 C393 1.396 . S
C395 C390 1.499 . S
C395 H396 0.959 . S
C395 H397 0.960 . S
C395 H398 0.961 . S
H396 C395 0.959 . S
H397 C395 0.960 . S
H398 C395 0.961 . S
O399 Co374 1.967 . S
O399 C407 1.258 . S
O400 Co375 1.941 . S
O400 C407 1.266 . S
H401 C403 0.959 . S
H402 C403 0.961 . S
C403 C393 1.510 1_455 S
C403 H401 0.959 . S
C403 H402 0.961 . S
C403 H404 0.960 . S
H404 C403 0.960 . S
H405 N385 0.862 . S
O406 Co374 1.920 . S
O406 C379 1.289 . S
C407 O399 1.258 . S
C407 O400 1.266 . S
Co408 O411 1.970 . S
Co408 N425 1.989 . S
Co408 O433 1.967 . S
Co408 O440 1.920 . S
Co409 O412 1.966 . S
Co409 N418 2.022 1_455 S
Co409 N426 1.993 . S
Co409 O434 1.941 . S
C410 O411 1.258 . S
C410 O412 1.263 . S
O411 Co408 1.970 . S
O411 C410 1.258 . S
O412 Co409 1.966 . S
O412 C410 1.263 . S
C413 O414 1.235 . S
C413 O440 1.289 . S
O414 C413 1.235 . S
C415 C417 1.400 . S
C415 N418 1.351 . S
C415 C420 1.501 1_655 S
C416 C417 1.387 . S
C416 N419 1.341 . S
C417 C415 1.400 . S
C417 C416 1.387 . S
N418 Co409 2.022 1_655 S
N418 C415 1.351 . S
N418 N419 1.365 . S
N419 C416 1.341 . S
N419 N418 1.365 . S
N419 H439 0.862 . S
C420 C415 1.501 1_455 S
C420 H421 0.961 . S
C420 H422 0.961 . S
C420 H423 0.960 . S
H421 C420 0.961 . S
H422 C420 0.961 . S
H423 C420 0.960 . S
C424 N425 1.342 . S
C424 C428 1.401 . S
C424 C429 1.499 . S
N425 Co408 1.989 . S
N425 C424 1.342 . S
N425 N426 1.388 . S
N426 Co409 1.993 . S
N426 N425 1.388 . S
N426 C427 1.346 . S
C427 N426 1.346 . S
C427 C428 1.396 . S
C427 C437 1.510 . S
C428 C424 1.401 . S
C428 C427 1.396 . S
C429 C424 1.499 . S
C429 H430 0.959 . S
C429 H431 0.960 . S
C429 H432 0.961 . S
H430 C429 0.959 . S
H431 C429 0.960 . S
H432 C429 0.961 . S
O433 Co408 1.967 . S
O433 C441 1.258 . S
O434 Co409 1.941 . S
O434 C441 1.266 . S
H435 C437 0.959 . S
H436 C437 0.961 . S
C437 C427 1.510 . S
C437 H435 0.959 . S
C437 H436 0.961 . S
C437 H438 0.960 . S
H438 C437 0.960 . S
H439 N419 0.862 . S
O440 Co408 1.920 . S
O440 C413 1.289 . S
C441 O433 1.258 . S
C441 O434 1.266 . S
Co442 O445 1.970 . S
Co442 N459 1.989 . S
Co442 O467 1.967 . S
Co442 O474 1.920 . S
Co443 O446 1.966 . S
Co443 N452 2.022 . S
Co443 N460 1.993 . S
Co443 O468 1.941 . S
C444 O445 1.258 . S
C444 O446 1.263 . S
O445 Co442 1.970 . S
O445 C444 1.258 . S
O446 Co443 1.966 . S
O446 C444 1.263 . S
C447 O448 1.235 . S
C447 O474 1.289 . S
O448 C447 1.235 . S
C449 C451 1.400 . S
C449 N452 1.351 . S
C449 C454 1.501 . S
C450 C451 1.387 . S
C450 N453 1.341 . S
C451 C449 1.400 . S
C451 C450 1.387 . S
N452 Co443 2.022 . S
N452 C449 1.351 . S
N452 N453 1.365 . S
N453 C450 1.341 . S
N453 N452 1.365 . S
N453 H473 0.862 . S
C454 C449 1.501 . S
C454 H455 0.961 . S
C454 H456 0.961 . S
C454 H457 0.960 . S
H455 C454 0.961 . S
H456 C454 0.961 . S
H457 C454 0.960 . S
C458 N459 1.342 . S
C458 C462 1.401 . S
C458 C463 1.499 . S
N459 Co442 1.989 . S
N459 C458 1.342 . S
N459 N460 1.388 . S
N460 Co443 1.993 . S
N460 N459 1.388 . S
N460 C461 1.346 . S
C461 N460 1.346 . S
C461 C462 1.396 . S
C461 C471 1.510 . S
C462 C458 1.401 . S
C462 C461 1.396 . S
C463 C458 1.499 . S
C463 H464 0.959 . S
C463 H465 0.960 . S
C463 H466 0.961 . S
H464 C463 0.959 . S
H465 C463 0.960 . S
H466 C463 0.961 . S
O467 Co442 1.967 . S
O467 C475 1.258 . S
O468 Co443 1.941 . S
O468 C475 1.266 . S
H469 C471 0.959 . S
H470 C471 0.961 . S
C471 C461 1.510 . S
C471 H469 0.959 . S
C471 H470 0.961 . S
C471 H472 0.960 . S
H472 C471 0.960 . S
H473 N453 0.862 . S
O474 Co442 1.920 . S
O474 C447 1.289 . S
C475 O467 1.258 . S
C475 O468 1.266 . S
Co476 O479 1.970 . S
Co476 N493 1.989 . S
Co476 O501 1.967 . S
Co476 O508 1.920 . S
Co477 O480 1.966 . S
Co477 N486 2.022 . S
Co477 N494 1.993 . S
Co477 O502 1.941 . S
C478 O479 1.258 . S
C478 O480 1.263 . S
O479 Co476 1.970 . S
O479 C478 1.258 . S
O480 Co477 1.966 . S
O480 C478 1.263 . S
C481 O482 1.235 . S
C481 O508 1.289 . S
O482 C481 1.235 . S
C483 C485 1.400 . S
C483 N486 1.351 . S
C483 C488 1.501 . S
C484 C485 1.387 . S
C484 N487 1.341 . S
C485 C483 1.400 . S
C485 C484 1.387 . S
N486 Co477 2.022 . S
N486 C483 1.351 . S
N486 N487 1.365 . S
N487 C484 1.341 . S
N487 N486 1.365 . S
N487 H507 0.862 . S
C488 C483 1.501 . S
C488 H489 0.961 . S
C488 H490 0.961 . S
C488 H491 0.960 . S
H489 C488 0.961 . S
H490 C488 0.961 . S
H491 C488 0.960 . S
C492 N493 1.342 . S
C492 C496 1.401 . S
C492 C497 1.499 . S
N493 Co476 1.989 . S
N493 C492 1.342 . S
N493 N494 1.388 . S
N494 Co477 1.993 . S
N494 N493 1.388 . S
N494 C495 1.346 . S
C495 N494 1.346 . S
C495 C496 1.396 . S
C495 C505 1.510 . S
C496 C492 1.401 . S
C496 C495 1.396 . S
C497 C492 1.499 . S
C497 H498 0.959 . S
C497 H499 0.960 . S
C497 H500 0.961 . S
H498 C497 0.959 . S
H499 C497 0.960 . S
H500 C497 0.961 . S
O501 Co476 1.967 . S
O501 C509 1.258 . S
O502 Co477 1.941 . S
O502 C509 1.266 . S
H503 C505 0.959 . S
H504 C505 0.961 . S
C505 C495 1.510 . S
C505 H503 0.959 . S
C505 H504 0.961 . S
C505 H506 0.960 . S
H506 C505 0.960 . S
H507 N487 0.862 . S
O508 Co476 1.920 . S
O508 C481 1.289 . S
C509 O501 1.258 . S
C509 O502 1.266 . S
Co510 O513 1.956 1_556 S
Co510 N527 2.001 . S
Co510 O535 1.964 1_556 S
Co510 O542 1.924 . S
Co511 O514 1.966 . S
Co511 N520 2.022 1_455 S
Co511 N528 1.993 1_554 S
Co511 O536 1.941 . S
C512 O513 1.258 . S
C512 O514 1.263 . S
O513 Co510 1.956 1_554 S
O513 C512 1.258 . S
O514 Co511 1.966 . S
O514 C512 1.263 . S
C515 O516 1.235 . S
C515 O542 1.289 . S
O516 C515 1.235 . S
C517 C519 1.400 . S
C517 N520 1.351 . S
C517 C522 1.501 . S
C518 C519 1.387 1_556 S
C518 N521 1.341 . S
C519 C517 1.400 . S
C519 C518 1.387 1_554 S
N520 Co511 2.022 1_655 S
N520 C517 1.351 . S
N520 N521 1.365 1_554 S
N521 C518 1.341 . S
N521 N520 1.365 1_556 S
N521 H541 0.862 . S
C522 C517 1.501 . S
C522 H523 0.961 . S
C522 H524 0.961 . S
C522 H525 0.960 . S
H523 C522 0.961 . S
H524 C522 0.961 . S
H525 C522 0.960 . S
C526 N527 1.342 . S
C526 C530 1.401 . S
C526 C531 1.499 . S
N527 Co510 2.001 . S
N527 C526 1.342 . S
N527 N528 1.388 . S
N528 Co511 1.993 1_556 S
N528 N527 1.388 . S
N528 C529 1.346 . S
C529 N528 1.346 . S
C529 C530 1.396 . S
C529 C539 1.510 1_455 S
C530 C526 1.401 . S
C530 C529 1.396 . S
C531 C526 1.499 . S
C531 H532 0.959 . S
C531 H533 0.960 . S
C531 H534 0.961 . S
H532 C531 0.959 . S
H533 C531 0.960 . S
H534 C531 0.961 . S
O535 Co510 1.964 1_554 S
O535 C543 1.258 . S
O536 Co511 1.941 . S
O536 C543 1.266 . S
H537 C539 0.959 . S
H538 C539 0.961 . S
C539 C529 1.510 1_655 S
C539 H537 0.959 . S
C539 H538 0.961 . S
C539 H540 0.960 . S
H540 C539 0.960 . S
H541 N521 0.862 . S
O542 Co510 1.924 . S
O542 C515 1.289 . S
C543 O535 1.258 . S
C543 O536 1.266 . S
Co544 O547 1.970 . S
Co544 N561 1.989 . S
Co544 O569 1.967 . S
Co544 O576 1.920 . S
Co545 O548 1.966 . S
Co545 N554 2.022 . S
Co545 N562 1.993 . S
Co545 O570 1.941 . S
C546 O547 1.258 . S
C546 O548 1.263 . S
O547 Co544 1.970 . S
O547 C546 1.258 . S
O548 Co545 1.966 . S
O548 C546 1.263 . S
C549 O550 1.235 . S
C549 O576 1.289 . S
O550 C549 1.235 . S
C551 C553 1.400 . S
C551 N554 1.351 . S
C551 C556 1.501 . S
C552 C553 1.387 . S
C552 N555 1.341 . S
C553 C551 1.400 . S
C553 C552 1.387 . S
N554 Co545 2.022 . S
N554 C551 1.351 . S
N554 N555 1.365 . S
N555 C552 1.341 . S
N555 N554 1.365 . S
N555 H575 0.862 . S
C556 C551 1.501 . S
C556 H557 0.961 . S
C556 H558 0.961 . S
C556 H559 0.960 . S
H557 C556 0.961 . S
H558 C556 0.961 . S
H559 C556 0.960 . S
C560 N561 1.342 . S
C560 C564 1.401 . S
C560 C565 1.499 . S
N561 Co544 1.989 . S
N561 C560 1.342 . S
N561 N562 1.388 . S
N562 Co545 1.993 . S
N562 N561 1.388 . S
N562 C563 1.346 . S
C563 N562 1.346 . S
C563 C564 1.396 . S
C563 C573 1.510 . S
C564 C560 1.401 . S
C564 C563 1.396 . S
C565 C560 1.499 . S
C565 H566 0.959 . S
C565 H567 0.960 . S
C565 H568 0.961 . S
H566 C565 0.959 . S
H567 C565 0.960 . S
H568 C565 0.961 . S
O569 Co544 1.967 . S
O569 C577 1.258 . S
O570 Co545 1.941 . S
O570 C577 1.266 . S
H571 C573 0.959 . S
H572 C573 0.961 . S
C573 C563 1.510 . S
C573 H571 0.959 . S
C573 H572 0.961 . S
C573 H574 0.960 . S
H574 C573 0.960 . S
H575 N555 0.862 . S
O576 Co544 1.920 . S
O576 C549 1.289 . S
C577 O569 1.258 . S
C577 O570 1.266 . S
Co578 O581 1.970 . S
Co578 N595 1.989 . S
Co578 O603 1.967 . S
Co578 O610 1.920 . S
Co579 O582 1.966 . S
Co579 N588 2.035 . S
Co579 N596 1.993 . S
Co579 O604 1.941 . S
C580 O581 1.258 . S
C580 O582 1.263 . S
O581 Co578 1.970 . S
O581 C580 1.258 . S
O582 Co579 1.966 . S
O582 C580 1.263 . S
C583 O584 1.235 . S
C583 O610 1.289 . S
O584 C583 1.235 . S
C585 C587 1.400 1_565 S
C585 N588 1.352 . S
C585 C590 1.501 . S
C586 C587 1.387 . S
C586 N589 1.341 . S
C587 C585 1.400 1_545 S
C587 C586 1.387 . S
N588 Co579 2.035 . S
N588 C585 1.352 . S
N588 N589 1.352 1_565 S
N589 C586 1.341 . S
N589 N588 1.352 1_545 S
N589 H609 0.862 . S
C590 C585 1.501 . S
C590 H591 0.961 . S
C590 H592 0.961 . S
C590 H593 0.960 . S
H591 C590 0.961 . S
H592 C590 0.961 . S
H593 C590 0.960 . S
C594 N595 1.342 . S
C594 C598 1.401 . S
C594 C599 1.499 . S
N595 Co578 1.989 . S
N595 C594 1.342 . S
N595 N596 1.388 . S
N596 Co579 1.993 . S
N596 N595 1.388 . S
N596 C597 1.346 . S
C597 N596 1.346 . S
C597 C598 1.396 . S
C597 C607 1.510 . S
C598 C594 1.401 . S
C598 C597 1.396 . S
C599 C594 1.499 . S
C599 H600 0.959 . S
C599 H601 0.960 . S
C599 H602 0.961 . S
H600 C599 0.959 . S
H601 C599 0.960 . S
H602 C599 0.961 . S
O603 Co578 1.967 . S
O603 C611 1.258 . S
O604 Co579 1.941 . S
O604 C611 1.266 . S
H605 C607 0.959 . S
H606 C607 0.961 . S
C607 C597 1.510 . S
C607 H605 0.959 . S
C607 H606 0.961 . S
C607 H608 0.960 . S
H608 C607 0.960 . S
H609 N589 0.862 . S
O610 Co578 1.920 . S
O610 C583 1.289 . S
C611 O603 1.258 . S
C611 O604 1.266 . S
Co612 O615 1.970 1_545 S
Co612 N629 1.989 . S
Co612 O637 1.967 1_545 S
Co612 O644 1.920 . S
Co613 O616 1.966 . S
Co613 N622 2.022 . S
Co613 N630 1.993 1_565 S
Co613 O638 1.941 . S
C614 O615 1.258 . S
C614 O616 1.263 . S
O615 Co612 1.970 1_565 S
O615 C614 1.258 . S
O616 Co613 1.966 . S
O616 C614 1.263 . S
C617 O618 1.235 . S
C617 O644 1.289 . S
O618 C617 1.235 . S
C619 C621 1.400 . S
C619 N622 1.351 . S
C619 C624 1.501 . S
C620 C621 1.387 1_545 S
C620 N623 1.341 . S
C621 C619 1.400 . S
C621 C620 1.387 1_565 S
N622 Co613 2.022 . S
N622 C619 1.351 . S
N622 N623 1.365 1_565 S
N623 C620 1.341 . S
N623 N622 1.365 1_545 S
N623 H643 0.862 . S
C624 C619 1.501 . S
C624 H625 0.961 . S
C624 H626 0.961 . S
C624 H627 0.960 . S
H625 C624 0.961 . S
H626 C624 0.961 . S
H627 C624 0.960 . S
C628 N629 1.342 . S
C628 C632 1.401 . S
C628 C633 1.499 . S
N629 Co612 1.989 . S
N629 C628 1.342 . S
N629 N630 1.388 . S
N630 Co613 1.993 1_545 S
N630 N629 1.388 . S
N630 C631 1.346 . S
C631 N630 1.346 . S
C631 C632 1.396 . S
C631 C641 1.510 . S
C632 C628 1.401 . S
C632 C631 1.396 . S
C633 C628 1.499 . S
C633 H634 0.959 . S
C633 H635 0.960 . S
C633 H636 0.961 . S
H634 C633 0.959 . S
H635 C633 0.960 . S
H636 C633 0.961 . S
O637 Co612 1.967 1_565 S
O637 C645 1.258 . S
O638 Co613 1.941 . S
O638 C645 1.266 . S
H639 C641 0.959 . S
H640 C641 0.961 . S
C641 C631 1.510 . S
C641 H639 0.959 . S
C641 H640 0.961 . S
C641 H642 0.960 . S
H642 C641 0.960 . S
H643 N623 0.862 . S
O644 Co612 1.920 . S
O644 C617 1.289 . S
C645 O637 1.258 . S
C645 O638 1.266 . S
Co646 O649 1.970 . S
Co646 N663 1.989 . S
Co646 O671 1.967 . S
Co646 O678 1.920 . S
Co647 O650 1.966 . S
Co647 N656 2.022 1_545 S
Co647 N664 1.993 . S
Co647 O672 1.941 . S
C648 O649 1.258 . S
C648 O650 1.263 . S
O649 Co646 1.970 . S
O649 C648 1.258 . S
O650 Co647 1.966 . S
O650 C648 1.263 . S
C651 O652 1.235 . S
C651 O678 1.289 . S
O652 C651 1.235 . S
C653 C655 1.400 . S
C653 N656 1.351 . S
C653 C658 1.501 1_565 S
C654 C655 1.387 . S
C654 N657 1.341 . S
C655 C653 1.400 . S
C655 C654 1.387 . S
N656 Co647 2.022 1_565 S
N656 C653 1.351 . S
N656 N657 1.365 . S
N657 C654 1.341 . S
N657 N656 1.365 . S
N657 H677 0.862 . S
C658 C653 1.501 1_545 S
C658 H659 0.961 . S
C658 H660 0.961 . S
C658 H661 0.960 . S
H659 C658 0.961 . S
H660 C658 0.961 . S
H661 C658 0.960 . S
C662 N663 1.342 . S
C662 C666 1.401 . S
C662 C667 1.499 . S
N663 Co646 1.989 . S
N663 C662 1.342 . S
N663 N664 1.388 . S
N664 Co647 1.993 . S
N664 N663 1.388 . S
N664 C665 1.346 . S
C665 N664 1.346 . S
C665 C666 1.396 . S
C665 C675 1.510 . S
C666 C662 1.401 . S
C666 C665 1.396 . S
C667 C662 1.499 . S
C667 H668 0.959 . S
C667 H669 0.960 . S
C667 H670 0.961 . S
H668 C667 0.959 . S
H669 C667 0.960 . S
H670 C667 0.961 . S
O671 Co646 1.967 . S
O671 C679 1.258 . S
O672 Co647 1.941 . S
O672 C679 1.266 . S
H673 C675 0.959 . S
H674 C675 0.961 . S
C675 C665 1.510 . S
C675 H673 0.959 . S
C675 H674 0.961 . S
C675 H676 0.960 . S
H676 C675 0.960 . S
H677 N657 0.862 . S
O678 Co646 1.920 . S
O678 C651 1.289 . S
C679 O671 1.258 . S
C679 O672 1.266 . S
Co680 O683 1.956 1_565 S
Co680 N697 2.001 . S
Co680 O705 1.964 1_565 S
Co680 O712 1.924 . S
Co681 O684 1.966 . S
Co681 N690 2.022 1_554 S
Co681 N698 1.993 1_545 S
Co681 O706 1.941 . S
C682 O683 1.258 . S
C682 O684 1.263 . S
O683 Co680 1.956 1_545 S
O683 C682 1.258 . S
O684 Co681 1.966 . S
O684 C682 1.263 . S
C685 O686 1.235 . S
C685 O712 1.289 . S
O686 C685 1.235 . S
C687 C689 1.400 . S
C687 N690 1.351 . S
C687 C692 1.501 . S
C688 C689 1.387 1_565 S
C688 N691 1.341 . S
C689 C687 1.400 . S
C689 C688 1.387 1_545 S
N690 Co681 2.022 1_556 S
N690 C687 1.351 . S
N690 N691 1.365 1_545 S
N691 C688 1.341 . S
N691 N690 1.365 1_565 S
N691 H711 0.862 . S
C692 C687 1.501 . S
C692 H693 0.961 . S
C692 H694 0.961 . S
C692 H695 0.960 . S
H693 C692 0.961 . S
H694 C692 0.961 . S
H695 C692 0.960 . S
C696 N697 1.342 . S
C696 C700 1.401 . S
C696 C701 1.499 . S
N697 Co680 2.001 . S
N697 C696 1.342 . S
N697 N698 1.388 . S
N698 Co681 1.993 1_565 S
N698 N697 1.388 . S
N698 C699 1.346 . S
C699 N698 1.346 . S
C699 C700 1.396 . S
C699 C709 1.510 1_554 S
C700 C696 1.401 . S
C700 C699 1.396 . S
C701 C696 1.499 . S
C701 H702 0.959 . S
C701 H703 0.960 . S
C701 H704 0.961 . S
H702 C701 0.959 . S
H703 C701 0.960 . S
H704 C701 0.961 . S
O705 Co680 1.964 1_545 S
O705 C713 1.258 . S
O706 Co681 1.941 . S
O706 C713 1.266 . S
H707 C709 0.959 . S
H708 C709 0.961 . S
C709 C699 1.510 1_556 S
C709 H707 0.959 . S
C709 H708 0.961 . S
C709 H710 0.960 . S
H710 C709 0.960 . S
H711 N691 0.862 . S
O712 Co680 1.924 . S
O712 C685 1.289 . S
C713 O705 1.258 . S
C713 O706 1.266 . S
Co714 O717 1.970 . S
Co714 N731 1.989 . S
Co714 O739 1.967 . S
Co714 O746 1.920 . S
Co715 O718 1.966 . S
Co715 N724 2.022 . S
Co715 N732 1.993 . S
Co715 O740 1.941 . S
C716 O717 1.258 . S
C716 O718 1.263 . S
O717 Co714 1.970 . S
O717 C716 1.258 . S
O718 Co715 1.966 . S
O718 C716 1.263 . S
C719 O720 1.235 . S
C719 O746 1.289 . S
O720 C719 1.235 . S
C721 C723 1.400 . S
C721 N724 1.351 . S
C721 C726 1.501 . S
C722 C723 1.387 . S
C722 N725 1.341 . S
C723 C721 1.400 . S
C723 C722 1.387 . S
N724 Co715 2.022 . S
N724 C721 1.351 . S
N724 N725 1.365 . S
N725 C722 1.341 . S
N725 N724 1.365 . S
N725 H745 0.862 . S
C726 C721 1.501 . S
C726 H727 0.961 . S
C726 H728 0.961 . S
C726 H729 0.960 . S
H727 C726 0.961 . S
H728 C726 0.961 . S
H729 C726 0.960 . S
C730 N731 1.342 . S
C730 C734 1.401 . S
C730 C735 1.499 . S
N731 Co714 1.989 . S
N731 C730 1.342 . S
N731 N732 1.388 . S
N732 Co715 1.993 . S
N732 N731 1.388 . S
N732 C733 1.346 . S
C733 N732 1.346 . S
C733 C734 1.396 . S
C733 C743 1.510 . S
C734 C730 1.401 . S
C734 C733 1.396 . S
C735 C730 1.499 . S
C735 H736 0.959 . S
C735 H737 0.960 . S
C735 H738 0.961 . S
H736 C735 0.959 . S
H737 C735 0.960 . S
H738 C735 0.961 . S
O739 Co714 1.967 . S
O739 C747 1.258 . S
O740 Co715 1.941 . S
O740 C747 1.266 . S
H741 C743 0.959 . S
H742 C743 0.961 . S
C743 C733 1.510 . S
C743 H741 0.959 . S
C743 H742 0.961 . S
C743 H744 0.960 . S
H744 C743 0.960 . S
H745 N725 0.862 . S
O746 Co714 1.920 . S
O746 C719 1.289 . S
C747 O739 1.258 . S
C747 O740 1.266 . S
Co748 O751 1.970 . S
Co748 N765 1.989 . S
Co748 O773 1.967 . S
Co748 O780 1.920 . S
Co749 O752 1.966 . S
Co749 N758 2.022 . S
Co749 N766 1.993 . S
Co749 O774 1.941 . S
C750 O751 1.258 . S
C750 O752 1.263 . S
O751 Co748 1.970 . S
O751 C750 1.258 . S
O752 Co749 1.966 . S
O752 C750 1.263 . S
C753 O754 1.235 . S
C753 O780 1.289 . S
O754 C753 1.235 . S
C755 C757 1.400 . S
C755 N758 1.351 . S
C755 C760 1.501 . S
C756 C757 1.387 . S
C756 N759 1.341 . S
C757 C755 1.400 . S
C757 C756 1.387 . S
N758 Co749 2.022 . S
N758 C755 1.351 . S
N758 N759 1.365 . S
N759 C756 1.341 . S
N759 N758 1.365 . S
N759 H779 0.862 . S
C760 C755 1.501 . S
C760 H761 0.961 . S
C760 H762 0.961 . S
C760 H763 0.960 . S
H761 C760 0.961 . S
H762 C760 0.961 . S
H763 C760 0.960 . S
C764 N765 1.342 . S
C764 C768 1.401 . S
C764 C769 1.499 . S
N765 Co748 1.989 . S
N765 C764 1.342 . S
N765 N766 1.388 . S
N766 Co749 1.993 . S
N766 N765 1.388 . S
N766 C767 1.346 . S
C767 N766 1.346 . S
C767 C768 1.396 . S
C767 C777 1.510 . S
C768 C764 1.401 . S
C768 C767 1.396 . S
C769 C764 1.499 . S
C769 H770 0.959 . S
C769 H771 0.960 . S
C769 H772 0.961 . S
H770 C769 0.959 . S
H771 C769 0.960 . S
H772 C769 0.961 . S
O773 Co748 1.967 . S
O773 C781 1.258 . S
O774 Co749 1.941 . S
O774 C781 1.266 . S
H775 C777 0.959 . S
H776 C777 0.961 . S
C777 C767 1.510 . S
C777 H775 0.959 . S
C777 H776 0.961 . S
C777 H778 0.960 . S
H778 C777 0.960 . S
H779 N759 0.862 . S
O780 Co748 1.920 . S
O780 C753 1.289 . S
C781 O773 1.258 . S
C781 O774 1.266 . S
Co782 O785 1.970 . S
Co782 N799 1.989 . S
Co782 O807 1.967 . S
Co782 O814 1.920 . S
Co783 O786 1.966 . S
Co783 N792 2.022 1_556 S
Co783 N800 1.993 . S
Co783 O808 1.941 . S
C784 O785 1.258 . S
C784 O786 1.263 . S
O785 Co782 1.970 . S
O785 C784 1.258 . S
O786 Co783 1.966 . S
O786 C784 1.263 . S
C787 O788 1.235 . S
C787 O814 1.289 . S
O788 C787 1.235 . S
C789 C791 1.400 . S
C789 N792 1.351 . S
C789 C794 1.501 . S
C790 C791 1.387 . S
C790 N793 1.341 . S
C791 C789 1.400 . S
C791 C790 1.387 . S
N792 Co783 2.022 1_554 S
N792 C789 1.351 . S
N792 N793 1.365 . S
N793 C790 1.341 . S
N793 N792 1.365 . S
N793 H813 0.862 . S
C794 C789 1.501 . S
C794 H795 0.961 . S
C794 H796 0.961 . S
C794 H797 0.960 . S
H795 C794 0.961 . S
H796 C794 0.961 . S
H797 C794 0.960 . S
C798 N799 1.342 . S
C798 C802 1.401 . S
C798 C803 1.499 . S
N799 Co782 1.989 . S
N799 C798 1.342 . S
N799 N800 1.388 . S
N800 Co783 1.993 . S
N800 N799 1.388 . S
N800 C801 1.346 . S
C801 N800 1.346 . S
C801 C802 1.396 . S
C801 C811 1.510 1_556 S
C802 C798 1.401 . S
C802 C801 1.396 . S
C803 C798 1.499 . S
C803 H804 0.959 . S
C803 H805 0.960 . S
C803 H806 0.961 . S
H804 C803 0.959 . S
H805 C803 0.960 . S
H806 C803 0.961 . S
O807 Co782 1.967 . S
O807 C815 1.258 . S
O808 Co783 1.941 . S
O808 C815 1.266 . S
H809 C811 0.959 . S
H810 C811 0.961 . S
C811 C801 1.510 1_554 S
C811 H809 0.959 . S
C811 H810 0.961 . S
C811 H812 0.960 . S
H812 C811 0.960 . S
H813 N793 0.862 . S
O814 Co782 1.920 . S
O814 C787 1.289 . S
C815 O807 1.258 . S
C815 O808 1.266 . S
C719 C20 0.979 . S
C753 C54 0.961 . S
C88 C549 0.996 . S
C787 C122 0.995 . S
C156 C651 0.916 . S
C685 C190 0.872 . S
C583 C224 0.907 . S
C617 C258 0.762 . S
C292 C141 0.979 . S
C326 C175 0.995 . S
C360 C209 0.907 . S
C394 C243 0.872 . S
C5 C428 0.996 . S
C462 C39 0.961 . S
C496 C73 0.916 . S
C107 C530 0.762 . S
C481 C564 0.979 . S
C598 C345 0.907 . S
C632 C379 0.995 . S
C666 C277 0.996 . S
C311 C700 0.762 . S
C413 C734 0.916 . S
C768 C447 0.961 . S
C802 C515 0.872 . S
C240 C2 3.347 . S
C36 C138 3.074 . S
C172 C70 3.287 . S
C206 C104 3.351 . S
C682 C274 3.347 . S
C308 C580 3.351 . S
C342 C614 3.351 . S
C376 C648 3.287 . S
C410 C784 3.287 . S
C716 C444 3.074 . S
C478 C750 3.074 . S
C512 C546 3.347 . S
C9 C475 3.582 . S
C43 C509 4.097 . S
C543 C77 3.309 1_554 S
C441 C111 3.874 1_455 S
C145 C407 3.293 . S
C179 C305 4.000 . S
C339 C213 3.253 1_556 S
C247 C373 3.957 1_455 S
C281 C67 3.582 . S
C315 C101 3.874 1_556 S
C135 C349 3.253 1_655 S
C383 C33 4.000 . S
C417 C271 3.309 1_655 S
C451 C169 4.097 . S
C485 C203 3.293 . S
C519 C237 3.957 1_554 S
C553 C781 3.581 . S
C645 C587 3.253 1_565 S
C679 C621 3.874 1_545 S
C713 C655 3.309 1_545 S
C689 C611 3.957 1_545 S
C815 C723 3.293 . S
C747 C757 4.097 . S
C791 C577 4.000 . S
