# Generated by pormake.
# Topology smb, (6)-cn, num edge types: 1
# Building blocks:
#     Node 0, Type 0, BuildingBlock: OJICUG_clean_sbu_0, # of connection points: 6
#     Node 1, Type 0, BuildingBlock: OJICUG_clean_sbu_0, # of connection points: 6
#     Node 2, Type 0, BuildingBlock: OJICUG_clean_sbu_0, # of connection points: 6
#     Node 3, Type 0, BuildingBlock: OJICUG_clean_sbu_0, # of connection points: 6
#     Node 4, Type 0, BuildingBlock: OJICUG_clean_sbu_0, # of connection points: 6
#     Node 5, Type 0, BuildingBlock: OJICUG_clean_sbu_0, # of connection points: 6
#     Node 6, Type 0, BuildingBlock: OJICUG_clean_sbu_0, # of connection points: 6
#     Node 7, Type 0, BuildingBlock: OJICUG_clean_sbu_0, # of connection points: 6
#     Node 8, Type 0, BuildingBlock: OJICUG_clean_sbu_0, # of connection points: 6
#     Edge 9, Type (0, 0), BuildingBlock: UVAHIK_clean_linker_0, # of connection points: 2
#     Edge 10, Type (0, 0), BuildingBlock: UVAHIK_clean_linker_0, # of connection points: 2
#     Edge 11, Type (0, 0), BuildingBlock: UVAHIK_clean_linker_0, # of connection points: 2
#     Edge 12, Type (0, 0), BuildingBlock: UVAHIK_clean_linker_0, # of connection points: 2
#     Edge 13, Type (0, 0), BuildingBlock: UVAHIK_clean_linker_0, # of connection points: 2
#     Edge 14, Type (0, 0), BuildingBlock: UVAHIK_clean_linker_0, # of connection points: 2
#     Edge 15, Type (0, 0), BuildingBlock: UVAHIK_clean_linker_0, # of connection points: 2
#     Edge 16, Type (0, 0), BuildingBlock: UVAHIK_clean_linker_0, # of connection points: 2
#     Edge 17, Type (0, 0), BuildingBlock: UVAHIK_clean_linker_0, # of connection points: 2
#     Edge 18, Type (0, 0), BuildingBlock: UVAHIK_clean_linker_0, # of connection points: 2
#     Edge 19, Type (0, 0), BuildingBlock: UVAHIK_clean_linker_0, # of connection points: 2
#     Edge 20, Type (0, 0), BuildingBlock: UVAHIK_clean_linker_0, # of connection points: 2
#     Edge 21, Type (0, 0), BuildingBlock: UVAHIK_clean_linker_0, # of connection points: 2
#     Edge 22, Type (0, 0), BuildingBlock: UVAHIK_clean_linker_0, # of connection points: 2
#     Edge 23, Type (0, 0), BuildingBlock: UVAHIK_clean_linker_0, # of connection points: 2
#     Edge 24, Type (0, 0), BuildingBlock: UVAHIK_clean_linker_0, # of connection points: 2
#     Edge 25, Type (0, 0), BuildingBlock: UVAHIK_clean_linker_0, # of connection points: 2
#     Edge 26, Type (0, 0), BuildingBlock: UVAHIK_clean_linker_0, # of connection points: 2
#     Edge 27, Type (0, 0), BuildingBlock: UVAHIK_clean_linker_0, # of connection points: 2
#     Edge 28, Type (0, 0), BuildingBlock: UVAHIK_clean_linker_0, # of connection points: 2
#     Edge 29, Type (0, 0), BuildingBlock: UVAHIK_clean_linker_0, # of connection points: 2
#     Edge 30, Type (0, 0), BuildingBlock: UVAHIK_clean_linker_0, # of connection points: 2
#     Edge 31, Type (0, 0), BuildingBlock: UVAHIK_clean_linker_0, # of connection points: 2
#     Edge 32, Type (0, 0), BuildingBlock: UVAHIK_clean_linker_0, # of connection points: 2
#     Edge 33, Type (0, 0), BuildingBlock: UVAHIK_clean_linker_0, # of connection points: 2
#     Edge 34, Type (0, 0), BuildingBlock: UVAHIK_clean_linker_0, # of connection points: 2
#     Edge 35, Type (0, 0), BuildingBlock: UVAHIK_clean_linker_0, # of connection points: 2
# Relax obj value: 0.341
# Max RMSD: 0.254
# Mean RMSD: 0.254
data_MOF--net-smb--node1-OJICUG_clean_sbu_0--edge1-UVAHIK_clean_linker_0
_symmetry_space_group_name_H-M    P1
_symmetry_Int_Tables_number       1
_symmetry_cell_setting            triclinic
loop_
_symmetry_equiv_pos_as_xyz
'x, y, z'
_cell_length_a     50.69679
_cell_length_b     50.72501
_cell_length_c     35.811676
_cell_angle_alpha  89.966485
_cell_angle_beta   89.941697
_cell_angle_gamma 120.0237
loop_
_atom_site_label
_atom_site_type_symbol
_atom_site_fract_x
_atom_site_fract_y
_atom_site_fract_z
_atom_type_partial_charge
Sc0 Sc 0.34798 0.16741 0.00569 0.0
Sc1 Sc 0.41897 0.20005 0.9596 0.0
Sc2 Sc 0.41589 0.20321 0.05785 0.0
O3 O 0.3943 0.19024 0.00774 0.0
C4 C 0.3604 0.21521 0.07 0.0
C5 C 0.366 0.21322 0.93675 0.0
C6 C 0.45652 0.26119 0.00689 0.0
C7 C 0.36532 0.13271 0.94469 0.0
C8 C 0.36085 0.13674 0.07554 0.0
C9 C 0.45763 0.18277 0.01424 0.0
O10 O 0.34375 0.1977 0.04416 0.0
O11 O 0.39209 0.21603 0.93184 0.0
O12 O 0.44662 0.24874 0.03855 0.0
O13 O 0.34717 0.13459 0.96753 0.0
O14 O 0.38718 0.15922 0.08193 0.0
O15 O 0.44897 0.18563 0.98199 0.0
O16 O 0.34379 0.13608 0.04918 0.0
O17 O 0.3919 0.15462 0.93786 0.0
O18 O 0.44799 0.18864 0.04408 0.0
O19 O 0.34763 0.19633 0.96197 0.0
O20 O 0.38649 0.21907 0.07797 0.0
O21 O 0.44879 0.24642 0.97638 0.0
Sc22 Sc 0.83022 0.16703 0.01153 0.0
Sc23 Sc 0.79339 0.20015 0.96264 0.0
Sc24 Sc 0.79922 0.20516 0.06065 0.0
O25 O 0.80754 0.19074 0.01157 0.0
C26 C 0.78815 0.13929 0.08282 0.0
C27 C 0.77882 0.13213 0.95006 0.0
C28 C 0.73685 0.1825 0.01716 0.0
C29 C 0.85941 0.21176 0.94162 0.0
C30 C 0.86713 0.21864 0.07144 0.0
C31 C 0.81488 0.26171 0.0076 0.0
O32 O 0.80281 0.13691 0.05555 0.0
O33 O 0.775 0.15438 0.94214 0.0
O34 O 0.75197 0.188 0.04732 0.0
O35 O 0.8599 0.19473 0.96736 0.0
O36 O 0.8457 0.2242 0.07742 0.0
O37 O 0.80957 0.247 0.97722 0.0
O38 O 0.86469 0.19766 0.04991 0.0
O39 O 0.83671 0.21541 0.93586 0.0
O40 O 0.81158 0.24935 0.03936 0.0
O41 O 0.79815 0.13375 0.9738 0.0
O42 O 0.78588 0.16279 0.08847 0.0
O43 O 0.74888 0.18624 0.98496 0.0
Sc44 Sc 0.82937 0.64813 -0.00195 0.0
Sc45 Sc 0.78926 0.57773 0.95085 0.0
Sc46 Sc 0.78959 0.57998 0.04904 0.0
O47 O 0.80276 0.60195 -0.00068 0.0
C48 C 0.85847 0.63158 0.06544 0.0
C49 C 0.85762 0.62735 0.93216 0.0
C50 C 0.80543 0.53632 0.00237 0.0
C51 C 0.78094 0.63465 0.93376 0.0
C52 C 0.78362 0.63825 0.06459 0.0
C53 C 0.72939 0.54209 0.00029 0.0
O54 O 0.86146 0.64853 0.03778 0.0
O55 O 0.83417 0.60143 0.92734 0.0
O56 O 0.80307 0.54753 0.0331 0.0
O57 O 0.79928 0.65154 0.95889 0.0
O58 O 0.77532 0.61041 0.06962 0.0
O59 O 0.74285 0.55085 0.96901 0.0
O60 O 0.80361 0.65525 0.04094 0.0
O61 O 0.77638 0.60825 0.92605 0.0
O62 O 0.74343 0.5501 0.03125 0.0
O63 O 0.85848 0.64669 0.95538 0.0
O64 O 0.83384 0.60726 0.07304 0.0
O65 O 0.80029 0.5444 0.97085 0.0
Sc66 Sc 0.01312 0.48911 0.34155 0.0
Sc67 Sc 0.08426 0.529 0.29626 0.0
Sc68 Sc 0.08059 0.52815 0.39448 0.0
O69 O 0.05931 0.5155 0.34416 0.0
C70 C 0.02222 0.53553 0.40642 0.0
C71 C 0.02723 0.53549 0.27395 0.0
C72 C 0.11939 0.58862 0.3462 0.0
C73 C 0.0353 0.45982 0.27901 0.0
C74 C 0.02804 0.46012 0.41142 0.0
C75 C 0.12483 0.51252 0.34877 0.0
O76 O 0.00621 0.51758 0.38046 0.0
O77 O 0.05489 0.54263 0.26993 0.0
O78 O 0.1103 0.57467 0.3772 0.0
O79 O 0.01586 0.4582 0.30272 0.0
O80 O 0.0537 0.48351 0.41796 0.0
O81 O 0.11644 0.51698 0.31713 0.0
O82 O 0.01082 0.45868 0.38489 0.0
O83 O 0.06029 0.48415 0.27276 0.0
O84 O 0.11411 0.51574 0.37943 0.0
O85 O 0.0097 0.51616 0.29789 0.0
O86 O 0.04897 0.54125 0.41453 0.0
O87 O 0.11149 0.57514 0.3149 0.0
Sc88 Sc 0.49544 0.49445 0.33714 0.0
Sc89 Sc 0.46361 0.53451 0.29338 0.0
Sc90 Sc 0.46451 0.53022 0.39159 0.0
O91 O 0.47453 0.51974 0.34072 0.0
C92 C 0.44866 0.46143 0.40354 0.0
C93 C 0.44735 0.46747 0.27046 0.0
C94 C 0.40511 0.51464 0.34452 0.0
C95 C 0.52971 0.54566 0.27492 0.0
C96 C 0.52984 0.53764 0.40585 0.0
C97 C 0.48557 0.59206 0.34699 0.0
O98 O 0.46495 0.46098 0.37683 0.0
O99 O 0.44527 0.49119 0.2661 0.0
O100 O 0.41897 0.51791 0.37523 0.0
O101 O 0.52798 0.52561 0.29765 0.0
O102 O 0.50864 0.54324 0.41326 0.0
O103 O 0.48003 0.57957 0.31503 0.0
O104 O 0.52871 0.52056 0.3793 0.0
O105 O 0.5081 0.55104 0.26941 0.0
O106 O 0.48134 0.57723 0.37715 0.0
O107 O 0.46468 0.46561 0.29461 0.0
O108 O 0.44675 0.48473 0.41199 0.0
O109 O 0.41822 0.5197 0.31291 0.0
Sc110 Sc 0.49403 0.97596 0.34339 0.0
Sc111 Sc 0.46094 0.90613 0.29443 0.0
Sc112 Sc 0.45957 0.90696 0.39268 0.0
O113 O 0.47162 0.92965 0.34343 0.0
C114 C 0.52552 0.96359 0.41155 0.0
C115 C 0.52773 0.96084 0.2783 0.0
C116 C 0.48208 0.86855 0.34672 0.0
C117 C 0.44653 0.95931 0.27711 0.0
C118 C 0.44396 0.95931 0.4065 0.0
C119 C 0.40144 0.86486 0.34213 0.0
O120 O 0.52676 0.9797 0.38382 0.0
O121 O 0.50624 0.93382 0.27261 0.0
O122 O 0.47882 0.87926 0.37737 0.0
O123 O 0.46328 0.97639 0.30318 0.0
O124 O 0.43869 0.93228 0.41087 0.0
O125 O 0.41462 0.87572 0.31112 0.0
O126 O 0.46479 0.97869 0.38535 0.0
O127 O 0.44462 0.93403 0.2688 0.0
O128 O 0.41525 0.87303 0.37322 0.0
O129 O 0.52577 0.97864 0.30165 0.0
O130 O 0.5023 0.93794 0.41902 0.0
O131 O 0.47547 0.87529 0.31512 0.0
Sc132 Sc 0.67678 0.83281 0.66961 0.0
Sc133 Sc 0.74891 0.86581 0.62591 0.0
Sc134 Sc 0.74289 0.8593 0.72395 0.0
O135 O 0.7229 0.8527 0.67316 0.0
C136 C 0.68975 0.87444 0.74025 0.0
C137 C 0.69912 0.88432 0.60678 0.0
C138 C 0.78752 0.9212 0.68188 0.0
C139 C 0.69319 0.80097 0.60405 0.0
C140 C 0.68458 0.79401 0.73384 0.0
C141 C 0.7841 0.84094 0.67522 0.0
O142 O 0.67424 0.86204 0.71114 0.0
O143 O 0.72525 0.88717 0.60222 0.0
O144 O 0.77541 0.90606 0.71151 0.0
O145 O 0.67531 0.80169 0.62836 0.0
O146 O 0.71219 0.81341 0.74074 0.0
O147 O 0.77625 0.84671 0.64398 0.0
O148 O 0.66837 0.79806 0.71015 0.0
O149 O 0.72 0.82298 0.59828 0.0
O150 O 0.77434 0.84494 0.70617 0.0
O151 O 0.67942 0.86507 0.62907 0.0
O152 O 0.71396 0.87419 0.74862 0.0
O153 O 0.78063 0.90954 0.64937 0.0
Sc154 Sc 0.15956 0.82693 0.6755 0.0
Sc155 Sc 0.12281 0.86057 0.62819 0.0
Sc156 Sc 0.12342 0.85933 0.72659 0.0
O157 O 0.13524 0.84894 0.6768 0.0
C158 C 0.11294 0.79308 0.74217 0.0
C159 C 0.11081 0.79401 0.61072 0.0
C160 C 0.06361 0.84024 0.67805 0.0
C161 C 0.19034 0.87562 0.60983 0.0
C162 C 0.19074 0.872 0.74311 0.0
C163 C 0.14272 0.91933 0.67906 0.0
O164 O 0.13155 0.79436 0.71746 0.0
O165 O 0.10683 0.81633 0.60363 0.0
O166 O 0.07753 0.84522 0.70904 0.0
O167 O 0.19034 0.85704 0.63363 0.0
O168 O 0.16748 0.87432 0.75043 0.0
O169 O 0.13719 0.90584 0.64771 0.0
O170 O 0.19216 0.85668 0.71601 0.0
O171 O 0.16746 0.87896 0.6044 0.0
O172 O 0.13901 0.90565 0.71006 0.0
O173 O 0.12919 0.79488 0.6354 0.0
O174 O 0.1072 0.81441 0.74803 0.0
O175 O 0.07691 0.84423 0.64676 0.0
Sc176 Sc 0.16131 0.30798 0.67225 0.0
Sc177 Sc 0.12536 0.23578 0.62917 0.0
Sc178 Sc 0.13081 0.24151 0.72728 0.0
O179 O 0.13918 0.26175 0.67625 0.0
C180 C 0.19763 0.29829 0.73808 0.0
C181 C 0.19079 0.28991 0.6053 0.0
C182 C 0.14964 0.20046 0.67943 0.0
C183 C 0.10938 0.28742 0.61024 0.0
C184 C 0.11755 0.29581 0.74184 0.0
C185 C 0.06922 0.19754 0.68415 0.0
O186 O 0.19608 0.3142 0.7117 0.0
O187 O 0.1682 0.26326 0.60115 0.0
O188 O 0.14608 0.2106 0.71036 0.0
O189 O 0.12901 0.30673 0.63254 0.0
O190 O 0.11483 0.27014 0.74964 0.0
O191 O 0.08105 0.205 0.65181 0.0
O192 O 0.13339 0.31223 0.71465 0.0
O193 O 0.10567 0.26096 0.60553 0.0
O194 O 0.08434 0.20881 0.7139 0.0
O195 O 0.19134 0.30846 0.62955 0.0
O196 O 0.17599 0.27198 0.74663 0.0
O197 O 0.14323 0.20765 0.64812 0.0
C198 C 0.36486 0.10042 0.89138 0.0
C199 C 0.35535 0.10291 0.92739 0.0
C200 C 0.35317 0.07178 0.87466 0.0
C201 C 0.28426 -0.00283 0.8805 0.0
H202 H 0.32554 0.97152 0.8107 0.0
C203 C 0.21444 0.88673 0.80541 0.0
C204 C 0.21759 0.88936 0.76655 0.0
C205 C 0.23731 0.90811 0.82829 0.0
C206 C 0.31382 0.97839 0.83027 0.0
H207 H 0.3287 0.07764 0.97557 0.0
H208 H 0.3091 0.02793 0.94699 0.0
H209 H 0.35481 0.01952 0.84497 0.0
H210 H 0.24758 0.91442 0.72071 0.0
H211 H 0.28721 0.95297 0.7607 0.0
H212 H 0.24328 0.95723 0.86526 0.0
C213 C 0.32453 0.04793 0.93099 0.0
C214 C 0.3305 0.00584 0.84973 0.0
C215 C 0.3357 0.07639 0.94733 0.0
C216 C 0.24491 0.91206 0.75077 0.0
C217 C 0.26758 0.934 0.77368 0.0
C218 C 0.26773 0.96998 0.86125 0.0
C219 C 0.33222 0.04534 0.89402 0.0
C220 C 0.31576 0.01554 0.87485 0.0
C221 C 0.26319 0.93308 0.81256 0.0
C222 C 0.28218 0.96031 0.83571 0.0
H223 H 0.38025 0.1206 0.87565 0.0
H224 H 0.3594 0.07049 0.84606 0.0
H225 H 0.272 0.00433 0.8988 0.0
H226 H 0.19355 0.8691 0.818 0.0
H227 H 0.23369 0.90634 0.85822 0.0
C228 C 0.88773 0.24711 0.88836 0.0
C229 C 0.8874 0.22974 0.91922 0.0
C230 C 0.91479 0.26531 0.86872 0.0
C231 C -0.00161 0.30172 0.87785 0.0
H232 H -0.00175 0.28893 0.77114 0.0
C233 C 0.09285 0.2964 0.8014 0.0
C234 C 0.09929 0.30536 0.76391 0.0
C235 C 0.07077 0.29963 0.82063 0.0
C236 C -0.00131 0.29358 0.80072 0.0
H237 H 0.91535 0.21802 0.9536 0.0
H238 H 0.96212 0.2494 0.91932 0.0
H239 H 0.95 0.26921 0.80435 0.0
H240 H 0.08934 0.32659 0.71768 0.0
H241 H 0.04998 0.33174 0.75134 0.0
H242 H 0.04703 0.32444 0.8746 0.0
C243 C 0.94161 0.24928 0.91058 0.0
C244 C 0.97103 0.28217 0.81975 0.0
C245 C 0.91465 0.23096 0.92993 0.0
C246 C 0.08481 0.31961 0.74668 0.0
C247 C 0.06225 0.32241 0.76581 0.0
C248 C 0.026 0.31314 0.85885 0.0
C249 C 0.94202 0.26674 0.87991 0.0
C250 C 0.97067 0.28482 0.85875 0.0
C251 C 0.05437 0.31151 0.80258 0.0
C252 C 0.02637 0.30781 0.82043 0.0
H253 H 0.86715 0.24676 0.87943 0.0
H254 H 0.9145 0.27846 0.84504 0.0
H255 H -0.0013 0.30464 0.90785 0.0
H256 H 0.10384 0.28548 0.81533 0.0
H257 H 0.065 0.29069 0.84878 0.0
C258 C 0.67362 0.74102 0.73872 0.0
C259 C 0.67151 0.76527 0.75408 0.0
C260 C 0.67112 0.7177 0.76181 0.0
C261 C 0.6964 0.71764 0.85472 0.0
H262 H 0.67567 0.63474 0.83223 0.0
C263 C 0.75181 0.66188 0.93654 0.0
C264 C 0.76146 0.64476 0.91586 0.0
C265 C 0.73198 0.67029 0.92091 0.0
C266 C 0.68169 0.65792 0.8388 0.0
H267 H 0.66195 0.78317 0.80381 0.0
H268 H 0.6568 0.74198 0.84425 0.0
H269 H 0.65175 0.65854 0.79691 0.0
H270 H 0.75759 0.62235 0.86304 0.0
H271 H 0.72445 0.63883 0.83454 0.0
H272 H 0.7279 0.71833 0.89432 0.0
C273 C 0.66071 0.741 0.81466 0.0
C274 C 0.66777 0.67137 0.81884 0.0
C275 C 0.66352 0.76444 0.79164 0.0
C276 C 0.75065 0.63583 0.87936 0.0
C277 C 0.73133 0.6449 0.86331 0.0
C278 C 0.7105 0.70442 0.87423 0.0
C279 C 0.66665 0.71865 0.80044 0.0
C280 C 0.67557 0.70163 0.82608 0.0
C281 C 0.72197 0.66245 0.88386 0.0
C282 C 0.70391 0.67467 0.86596 0.0
H283 H 0.68006 0.7416 0.70973 0.0
H284 H 0.67596 0.70089 0.75007 0.0
H285 H 0.70355 0.74126 0.86037 0.0
H286 H 0.7591 0.66828 0.96518 0.0
H287 H 0.72464 0.68308 0.93791 0.0
C288 C 0.08375 0.73637 0.74709 0.0
C289 C 0.09576 0.76505 0.76409 0.0
C290 C 0.06227 0.71022 0.76604 0.0
C291 C -0.00183 0.67333 0.79893 0.0
H292 H -0.00368 0.66387 0.90651 0.0
C293 C 0.91376 0.65958 0.92291 0.0
C294 C 0.88587 0.6345 0.91196 0.0
C295 C 0.94077 0.66559 0.90549 0.0
C296 C -0.00346 0.66589 0.87637 0.0
H297 H 0.09735 0.78888 0.81493 0.0
H298 H 0.06043 0.7435 0.84813 0.0
H299 H 0.04523 0.69184 0.87431 0.0
H300 H 0.86453 0.59598 0.87409 0.0
H301 H 0.912 0.60707 0.84299 0.0
H302 H 0.94948 0.64949 0.80131 0.0
C303 C 0.06728 0.74093 0.82032 0.0
C304 C 0.02447 0.68173 0.85798 0.0
C305 C 0.08819 0.76699 0.80122 0.0
C306 C 0.88563 0.61557 0.88307 0.0
C307 C 0.91275 0.62179 0.86536 0.0
C308 C 0.97021 0.65748 0.81735 0.0
C309 C 0.05314 0.71248 0.8024 0.0
C310 C 0.02545 0.6872 0.81943 0.0
C311 C 0.94057 0.64679 0.87658 0.0
C312 C 0.96921 0.65528 0.85646 0.0
H313 H 0.08928 0.73442 0.71837 0.0
H314 H 0.05165 0.68853 0.75166 0.0
H315 H -0.00176 0.67732 0.7692 0.0
H316 H 0.91486 0.67452 0.94519 0.0
H317 H 0.96179 0.68546 0.91413 0.0
C318 C 0.25433 0.32296 0.73982 0.0
C319 C 0.22628 0.30956 0.75872 0.0
C320 C 0.28044 0.32693 0.75815 0.0
C321 C 0.31043 0.32138 0.85089 0.0
H322 H 0.33716 0.27202 0.7983 0.0
C323 C 0.33301 0.23592 0.92484 0.0
C324 C 0.35761 0.23224 0.914 0.0
C325 C 0.32614 0.25536 0.90505 0.0
C326 C 0.33064 0.28651 0.81312 0.0
H327 H 0.2038 0.29266 0.81197 0.0
H328 H 0.24913 0.29996 0.84403 0.0
H329 H 0.3099 0.29275 0.76453 0.0
H330 H 0.39422 0.24604 0.87363 0.0
H331 H 0.38161 0.27961 0.83846 0.0
H332 H 0.32923 0.3132 0.90005 0.0
C333 C 0.25126 0.30734 0.81524 0.0
C334 C 0.31514 0.29852 0.79374 0.0
C335 C 0.2252 0.30288 0.79685 0.0
C336 C 0.37505 0.2483 0.88265 0.0
C337 C 0.36794 0.26758 0.86257 0.0
C338 C 0.32584 0.30932 0.87025 0.0
C339 C 0.27882 0.3181 0.79569 0.0
C340 C 0.30341 0.3146 0.81293 0.0
C341 C 0.34356 0.27144 0.87381 0.0
C342 C 0.33458 0.29041 0.85191 0.0
H343 H 0.25558 0.32816 0.7103 0.0
H344 H 0.30144 0.33532 0.74251 0.0
H345 H 0.30202 0.3341 0.8662 0.0
H346 H 0.31921 0.22409 0.94896 0.0
H347 H 0.30678 0.25738 0.91385 0.0
C348 C 0.68128 0.88802 0.80359 0.0
C349 C 0.68073 0.89159 0.76487 0.0
C350 C 0.68016 0.909 0.82758 0.0
C351 C 0.67471 0.97953 0.83333 0.0
H352 H 0.7428 0.00363 0.90075 0.0
C353 C 0.74676 0.10033 0.89667 0.0
C354 C 0.75907 0.10243 0.93238 0.0
C355 C 0.72964 0.07192 0.87952 0.0
C356 C 0.72329 -0.00304 0.88279 0.0
H357 H 0.67597 0.9179 0.72051 0.0
H358 H 0.67551 0.9557 0.76248 0.0
H359 H 0.72379 0.95713 0.86567 0.0
H360 H 0.76097 0.07658 0.97956 0.0
H361 H 0.73062 0.02722 0.95019 0.0
H362 H 0.67535 0.02052 0.8499 0.0
C363 C 0.67597 0.93633 0.77446 0.0
C364 C 0.71227 0.97013 0.86265 0.0
C365 C 0.67636 0.91482 0.75041 0.0
C366 C 0.75247 0.07568 0.95156 0.0
C367 C 0.73503 0.04741 0.93477 0.0
C368 C 0.68581 0.0066 0.85369 0.0
C369 C 0.67953 0.93447 0.81317 0.0
C370 C 0.68807 0.96118 0.83743 0.0
C371 C 0.72427 0.04525 0.89812 0.0
C372 C 0.71043 0.01567 0.87837 0.0
H373 H 0.68426 0.86995 0.8152 0.0
H374 H 0.68206 0.90651 0.85735 0.0
H375 H 0.65603 0.97319 0.81408 0.0
H376 H 0.75134 0.12066 0.88146 0.0
H377 H 0.72181 0.071 0.85117 0.0
C378 C 0.90724 0.27092 0.08635 0.0
C379 C 0.89693 0.23965 0.08764 0.0
C380 C 0.93441 0.29148 0.10347 0.0
C381 C -0.00249 0.33198 0.13258 0.0
H382 H 0.98786 0.31834 0.23946 0.0
C383 C 0.05099 0.43227 0.23406 0.0
C384 C 0.02923 0.43191 0.25882 0.0
C385 C 0.04515 0.40594 0.21485 0.0
C386 C 0.99124 0.32236 0.20967 0.0
H387 H 0.90709 0.20509 0.10628 0.0
H388 H 0.95459 0.24147 0.13838 0.0
H389 H 0.95944 0.2758 0.19688 0.0
H390 H 0.98477 0.40324 0.28387 0.0
H391 H 0.97427 0.35774 0.24968 0.0
H392 H 0.02685 0.37897 0.14508 0.0
C393 C 0.94179 0.24988 0.12328 0.0
C394 C 0.9753 0.29793 0.18533 0.0
C395 C 0.91475 0.2292 0.10516 0.0
C396 C 0.00195 0.40443 0.26481 0.0
C397 C -0.00388 0.37817 0.24562 0.0
C398 C 0.01342 0.35638 0.15686 0.0
C399 C 0.95159 0.28117 0.12283 0.0
C400 C 0.97674 0.30304 0.14668 0.0
C401 C 0.01746 0.37873 0.22004 0.0
C402 C 0.0088 0.3521 0.19559 0.0
H403 H 0.89397 0.27946 0.07259 0.0
H404 H 0.9411 0.31539 0.10327 0.0
H405 H -0.00086 0.33633 0.10279 0.0
H406 H 0.07247 0.45295 0.22916 0.0
H407 H 0.06205 0.40702 0.19542 0.0
C408 C 0.56081 0.57743 0.2209 0.0
C409 C 0.55918 0.56525 0.25658 0.0
C410 C 0.5891 0.59561 0.2038 0.0
C411 C 0.65281 0.64214 0.17726 0.0
H412 H 0.70968 0.61313 0.19238 0.0
C413 C 0.77483 0.65535 0.12529 0.0
C414 C 0.76834 0.65059 0.08711 0.0
C415 C 0.7543 0.65727 0.14948 0.0
C416 C 0.69452 0.62218 0.1885 0.0
H417 H 0.58556 0.56429 0.30363 0.0
H418 H 0.63473 0.59683 0.27465 0.0
H419 H 0.66297 0.59078 0.22774 0.0
H420 H 0.73728 0.64664 0.04327 0.0
H421 H 0.70081 0.64924 0.08563 0.0
H422 H 0.68408 0.67223 0.13585 0.0
C423 C 0.61436 0.59137 0.25898 0.0
C424 C 0.66756 0.60927 0.20884 0.0
C425 C 0.58619 0.57269 0.27562 0.0
C426 C 0.7427 0.65067 0.07273 0.0
C427 C 0.72193 0.65224 0.09698 0.0
C428 C 0.67984 0.65492 0.15648 0.0
C429 C 0.6162 0.60241 0.22249 0.0
C430 C 0.6461 0.61868 0.20312 0.0
C431 C 0.7267 0.65366 0.13579 0.0
C432 C 0.70072 0.64467 0.16155 0.0
H433 H 0.54023 0.57217 0.20583 0.0
H434 H 0.58962 0.60343 0.17553 0.0
H435 H 0.63695 0.65022 0.17255 0.0
H436 H 0.79451 0.65515 0.13675 0.0
H437 H 0.75874 0.65886 0.17922 0.0
C438 C 0.34707 0.08261 0.08076 0.0
C439 C 0.35143 0.10933 0.09796 0.0
C440 C 0.34746 0.05974 0.10218 0.0
C441 C 0.38491 0.05803 0.18818 0.0
H442 H 0.3482 0.97147 0.16899 0.0
C443 C 0.41807 0.98723 0.27673 0.0
C444 C 0.42726 0.96904 0.25753 0.0
C445 C 0.40187 -0.0012 0.25853 0.0
C446 C 0.3586 0.99564 0.17447 0.0
H447 H 0.35607 0.13206 0.15061 0.0
H448 H 0.35488 0.09145 0.18835 0.0
H449 H 0.32932 0.00123 0.13594 0.0
H450 H 0.42498 0.94696 0.20488 0.0
H451 H 0.39718 0.9683 0.17227 0.0
H452 H 0.41454 0.05297 0.22582 0.0
C453 C 0.35243 0.0885 0.15836 0.0
C454 C 0.34779 0.01262 0.15571 0.0
C455 C 0.35283 0.1116 0.13692 0.0
C456 C 0.4184 0.9612 0.22015 0.0
C457 C 0.40236 0.9732 0.20164 0.0
C458 C 0.39553 0.04119 0.20683 0.0
C459 C 0.35183 0.0633 0.14104 0.0
C460 C 0.36087 0.04404 0.16248 0.0
C461 C 0.3948 0.99286 0.2205 0.0
C462 C 0.38252 0.00985 0.20032 0.0
H463 H 0.34623 0.08066 0.05059 0.0
H464 H 0.34698 0.04067 0.08795 0.0
H465 H 0.39635 0.08234 0.19313 0.0
H466 H 0.4238 0.99294 0.30588 0.0
H467 H 0.39568 0.01326 0.27399 0.0
C468 C 0.76246 0.11699 0.14332 0.0
C469 C 0.77045 0.11274 0.10722 0.0
C470 C 0.7411 0.09222 0.16406 0.0
C471 C 0.69868 0.03514 0.20654 0.0
H472 H 0.62411 0.99329 0.14892 0.0
C473 C 0.56019 0.95405 0.23043 0.0
C474 C 0.55707 0.97161 0.25866 0.0
C475 C 0.58837 0.96403 0.21309 0.0
C476 C 0.64481 0.00412 0.16533 0.0
H477 H 0.76403 0.07909 0.06543 0.0
H478 H 0.7261 0.03562 0.10169 0.0
H479 H 0.67262 0.02341 0.11686 0.0
H480 H 0.58129 0.01326 0.291 0.0
H481 H 0.62998 0.03064 0.26058 0.0
H482 H 0.67061 0.01728 0.25512 0.0
C483 C 0.73652 0.05817 0.11386 0.0
C484 C 0.67264 0.02132 0.14696 0.0
C485 C 0.75829 0.083 0.09324 0.0
C486 C 0.58274 -0.00081 0.26927 0.0
C487 C 0.61082 0.00899 0.25218 0.0
C488 C 0.67089 0.01795 0.22488 0.0
C489 C 0.72703 0.06272 0.14896 0.0
C490 C 0.69962 0.03817 0.16752 0.0
C491 C 0.61397 0.99156 0.22395 0.0
C492 C 0.64357 0.00353 0.20451 0.0
H493 H 0.77166 0.13965 0.15487 0.0
H494 H 0.73404 0.09653 0.19084 0.0
H495 H 0.71923 0.04754 0.22299 0.0
H496 H 0.5409 0.93262 0.2217 0.0
H497 H 0.59019 0.9502 0.19133 0.0
C498 C 0.03227 0.571 0.22181 0.0
C499 C 0.01486 0.55082 0.25061 0.0
C500 C 0.02016 0.58533 0.20009 0.0
C501 C 0.94614 0.57515 0.1718 0.0
H502 H 0.98974 0.66146 0.14814 0.0
C503 C 0.8807 0.63037 0.12628 0.0
C504 C 0.88508 0.63817 0.08831 0.0
C505 C 0.90269 0.6275 0.14606 0.0
C506 C 0.97757 0.63733 0.15443 0.0
H507 H 0.97148 0.53069 0.27983 0.0
H508 H 0.95071 0.55572 0.24242 0.0
H509 H 0.01591 0.63882 0.182 0.0
H510 H 0.91696 0.65234 0.04211 0.0
H511 H 0.95565 0.64683 0.07702 0.0
H512 H 0.90769 0.57363 0.14542 0.0
C513 C 0.97343 0.56002 0.23606 0.0
C514 C 0.99244 0.62438 0.17355 0.0
C515 C 0.9854 0.54571 0.25759 0.0
C516 C 0.91321 0.64639 0.07146 0.0
C517 C 0.93528 0.64327 0.09133 0.0
C518 C 0.93137 0.58804 0.15314 0.0
C519 C 0.99047 0.57965 0.2068 0.0
C520 C 0.97652 0.59328 0.18318 0.0
C521 C 0.92928 0.63218 0.12809 0.0
C522 C 0.9467 0.61928 0.14512 0.0
H523 H 0.05512 0.57555 0.21585 0.0
H524 H 0.03372 0.60032 0.17762 0.0
H525 H 0.93355 0.551 0.17794 0.0
H526 H 0.85927 0.62423 0.1399 0.0
H527 H 0.89782 0.61912 0.17453 0.0
C528 C 0.33609 0.24756 0.07263 0.0
C529 C 0.35005 0.23325 0.09096 0.0
C530 C 0.33212 0.26958 0.09126 0.0
C531 C 0.36011 0.33265 0.12732 0.0
H532 H 0.34535 0.33086 0.2338 0.0
C533 C 0.42318 0.41166 0.25864 0.0
C534 C 0.42727 0.44016 0.24817 0.0
C535 C 0.40323 0.38554 0.23893 0.0
C536 C 0.34922 0.33168 0.20396 0.0
H537 H 0.36816 0.2283 0.14356 0.0
H538 H 0.36084 0.26612 0.17618 0.0
H539 H 0.32505 0.28311 0.19931 0.0
H540 H 0.41351 0.46354 0.20873 0.0
H541 H 0.37901 0.41765 0.17365 0.0
H542 H 0.38618 0.38114 0.13246 0.0
C543 C 0.35304 0.26068 0.14758 0.0
C544 C 0.3375 0.30442 0.18424 0.0
C545 C 0.35753 0.23923 0.12884 0.0
C546 C 0.41093 0.44192 0.21743 0.0
C547 C 0.39114 0.41571 0.19741 0.0
C548 C 0.37183 0.35995 0.14706 0.0
C549 C 0.34146 0.27696 0.1286 0.0
C550 C 0.34438 0.30465 0.14621 0.0
C551 C 0.38703 0.38727 0.20814 0.0
C552 C 0.36794 0.35957 0.18592 0.0
H553 H 0.33024 0.2433 0.04331 0.0
H554 H 0.32316 0.28185 0.07606 0.0
H555 H 0.36592 0.33351 0.09805 0.0
H556 H 0.43519 0.4094 0.28231 0.0
H557 H 0.40103 0.364 0.24733 0.0
C558 C 0.66326 0.74467 0.60349 0.0
C559 C 0.68314 0.77184 0.58482 0.0
C560 C 0.65333 0.71671 0.58638 0.0
C561 C 0.66521 0.67728 0.50656 0.0
H562 H 0.57873 0.6223 0.52111 0.0
C563 C 0.58382 0.57805 0.41048 0.0
C564 C 0.55784 0.5543 0.42748 0.0
C565 C 0.60631 0.60114 0.43241 0.0
C566 C 0.60306 0.63697 0.5174 0.0
H567 H 0.70932 0.79114 0.53424 0.0
H568 H 0.69054 0.7418 0.50316 0.0
H569 H 0.60324 0.67067 0.55278 0.0
H570 H 0.53635 0.53344 0.47991 0.0
H571 H 0.57626 0.5729 0.51837 0.0
H572 H 0.66417 0.6435 0.46939 0.0
C573 C 0.6832 0.74228 0.53144 0.0
C574 C 0.61714 0.66486 0.53552 0.0
C575 C 0.69369 0.77047 0.54899 0.0
C576 C 0.55631 0.55167 0.46642 0.0
C577 C 0.57901 0.57433 0.48829 0.0
C578 C 0.65092 0.64918 0.48803 0.0
C579 C 0.66246 0.71515 0.5498 0.0
C580 C 0.64835 0.68536 0.53045 0.0
C581 C 0.60295 0.6004 0.47143 0.0
C582 C 0.61967 0.62876 0.49339 0.0
H583 H 0.6555 0.74496 0.63162 0.0
H584 H 0.6381 0.69624 0.60174 0.0
H585 H 0.68934 0.6926 0.50223 0.0
H586 H 0.58513 0.5805 0.38036 0.0
H587 H 0.62448 0.62095 0.41865 0.0
C588 C 0.43095 0.99138 0.44718 0.0
C589 C 0.42199 0.96667 0.42289 0.0
C590 C 0.40879 0.99514 0.46601 0.0
C591 C 0.32575 0.96783 0.46867 0.0
H592 H 0.33306 0.9606 0.57542 0.0
C593 C 0.22094 0.91864 0.56543 0.0
C594 C 0.21881 0.89551 0.58915 0.0
C595 C 0.2482 0.93806 0.54699 0.0
C596 C 0.33078 0.96292 0.5457 0.0
H597 H 0.38374 0.92801 0.39671 0.0
H598 H 0.3453 0.9347 0.42878 0.0
H599 H 0.37783 0.97808 0.53564 0.0
H600 H 0.24389 0.87499 0.61237 0.0
H601 H 0.29098 0.90824 0.57957 0.0
H602 H 0.27822 0.95011 0.4782 0.0
C603 C 0.36908 0.95118 0.43366 0.0
C604 C 0.3565 0.97336 0.52301 0.0
C605 C 0.39102 0.94709 0.41563 0.0
C606 C 0.24464 0.89247 0.59426 0.0
C607 C 0.27181 0.91185 0.57584 0.0
C608 C 0.30003 0.95734 0.49133 0.0
C609 C 0.37764 0.97466 0.45984 0.0
C610 C 0.35379 0.97418 0.48408 0.0
C611 C 0.27389 0.9348 0.55192 0.0
C612 C 0.302 0.95315 0.52979 0.0
H613 H 0.45484 0.0067 0.45299 0.0
H614 H 0.41591 0.01334 0.48621 0.0
H615 H 0.32319 0.96861 0.43872 0.0
H616 H 0.20159 0.92186 0.56115 0.0
H617 H 0.24915 0.95558 0.5288 0.0
C618 C 0.06927 0.27707 0.56213 0.0
C619 C 0.08895 0.29569 0.59052 0.0
C620 C 0.04975 0.28501 0.54413 0.0
C621 C 0.03218 0.32302 0.49448 0.0
H622 H -0.00255 0.36455 0.54893 0.0
C623 C 0.02992 0.43627 0.47125 0.0
C624 C 0.01884 0.43293 0.43467 0.0
C625 C 0.02509 0.41089 0.49169 0.0
C626 C 0.00652 0.35255 0.53334 0.0
H627 H 0.10289 0.3368 0.62289 0.0
H628 H 0.06937 0.35071 0.59134 0.0
H629 H 0.01488 0.33437 0.58293 0.0
H630 H 0.99251 0.40042 0.39142 0.0
H631 H 0.98475 0.35582 0.4271 0.0
H632 H 0.02567 0.34283 0.44514 0.0
C633 C 0.06868 0.32979 0.58324 0.0
C634 C 0.01659 0.33541 0.55275 0.0
C635 C 0.08827 0.32204 0.60096 0.0
C636 C 0.00129 0.40357 0.41963 0.0
C637 C -0.00312 0.37811 0.43993 0.0
C638 C 0.02202 0.34011 0.47504 0.0
C639 C 0.04933 0.31149 0.55454 0.0
C640 C 0.03111 0.32198 0.53367 0.0
C641 C 0.00943 0.38169 0.47578 0.0
C642 C 0.01072 0.35642 0.49456 0.0
H643 H 0.06912 0.25652 0.55357 0.0
H644 H 0.03511 0.27056 0.52202 0.0
H645 H 0.0433 0.31294 0.47904 0.0
H646 H 0.0433 0.45863 0.4836 0.0
H647 H 0.0354 0.4144 0.51906 0.0
C648 C 0.24619 0.32471 0.59307 0.0
C649 C 0.21847 0.29916 0.58261 0.0
C650 C 0.27276 0.33281 0.5731 0.0
C651 C 0.30033 0.32948 0.48118 0.0
H652 H 0.37698 0.36077 0.53408 0.0
C653 C 0.41402 0.40501 0.40675 0.0
C654 C 0.42944 0.43337 0.42477 0.0
C655 C 0.39105 0.37965 0.42553 0.0
C656 C 0.35575 0.35172 0.51885 0.0
H657 H 0.19695 0.2621 0.54275 0.0
H658 H 0.24362 0.27685 0.5072 0.0
H659 H 0.32903 0.33271 0.56823 0.0
H660 H 0.43511 0.45708 0.47704 0.0
H661 H 0.39562 0.41305 0.50985 0.0
H662 H 0.32704 0.35023 0.43227 0.0
C663 C 0.24459 0.29032 0.53117 0.0
C664 C 0.32836 0.33579 0.53837 0.0
C665 C 0.21794 0.28196 0.55148 0.0
C666 C 0.42339 0.43546 0.46252 0.0
C667 C 0.40094 0.41015 0.48138 0.0
C668 C 0.32778 0.3455 0.46163 0.0
C669 C 0.27227 0.3157 0.54201 0.0
C670 C 0.30047 0.32587 0.52005 0.0
C671 C 0.38374 0.38228 0.46272 0.0
C672 C 0.35571 0.35809 0.48068 0.0
H673 H 0.24752 0.33837 0.61701 0.0
H674 H 0.29366 0.35287 0.58163 0.0
H675 H 0.27914 0.32208 0.46639 0.0
H676 H 0.41825 0.40292 0.37754 0.0
H677 H 0.37815 0.35839 0.41057 0.0
C678 C 0.58216 0.9916 0.41863 0.0
C679 C 0.55306 0.97373 0.43444 0.0
C680 C 0.60811 -0.00329 0.43826 0.0
C681 C 0.63601 0.98884 0.5307 0.0
H682 H 0.67427 0.95095 0.4758 0.0
C683 C 0.66589 0.90702 0.59811 0.0
C684 C 0.69162 0.90536 0.58711 0.0
C685 C 0.65865 0.92701 0.5805 0.0
C686 C 0.66463 0.96245 0.49135 0.0
H687 H 0.52836 0.94948 0.4841 0.0
H688 H 0.57354 0.95868 0.51849 0.0
H689 H 0.6436 0.968 0.44257 0.0
H690 H 0.73032 0.92391 0.54932 0.0
H691 H 0.71712 0.95865 0.51779 0.0
H692 H 0.65543 0.98147 0.57981 0.0
C693 C 0.5764 0.96866 0.49097 0.0
C694 C 0.64707 0.97224 0.4723 0.0
C695 C 0.55049 0.96312 0.47118 0.0
C696 C 0.71023 0.92453 0.55828 0.0
C697 C 0.70278 0.94446 0.54034 0.0
C698 C 0.65369 0.97922 0.5497 0.0
C699 C 0.60533 0.98456 0.47422 0.0
C700 C 0.63117 0.98384 0.49216 0.0
C701 C 0.67687 0.94582 0.55132 0.0
C702 C 0.66657 0.96422 0.53047 0.0
H703 H 0.58476 3e-05 0.39028 0.0
H704 H 0.63018 0.009 0.42478 0.0
H705 H 0.62432 -0.00186 0.54651 0.0
H706 H 0.65115 0.89283 0.6204 0.0
H707 H 0.63813 0.92698 0.58904 0.0
C708 C 0.00681 0.54777 0.46621 0.0
C709 C 0.01046 0.55206 0.42754 0.0
C710 C 0.00535 0.56948 0.48853 0.0
C711 C 0.00709 0.64379 0.48944 0.0
H712 H 0.07047 0.6631 0.56269 0.0
C713 C 0.08135 0.76355 0.55501 0.0
C714 C 0.09168 0.7648 0.59168 0.0
C715 C 0.06422 0.73543 0.53715 0.0
C716 C 0.05224 0.65784 0.54309 0.0
H717 H 0.01291 0.58047 0.3811 0.0
H718 H 0.01141 0.61921 0.42025 0.0
H719 H 0.0496 0.61596 0.5286 0.0
H720 H 0.09017 0.73787 0.63956 0.0
H721 H 0.05962 0.68911 0.6091 0.0
H722 H 0.01068 0.68656 0.50363 0.0
C723 C 0.00884 0.59882 0.43339 0.0
C724 C 0.04016 0.63064 0.5235 0.0
C725 C 0.00975 0.57673 0.41097 0.0
C726 C 0.08324 0.73759 0.61087 0.0
C727 C 0.06571 0.70964 0.59341 0.0
C728 C 0.01913 0.67115 0.50938 0.0
C729 C 0.0085 0.59623 0.47252 0.0
C730 C 0.01769 0.62337 0.49621 0.0
C731 C 0.05676 0.7082 0.55599 0.0
C732 C 0.04208 0.67856 0.53618 0.0
H733 H 0.00738 0.52882 0.47937 0.0
H734 H 0.00442 0.5666 0.51857 0.0
H735 H 0.98986 0.63878 0.46844 0.0
H736 H 0.08737 0.78427 0.53978 0.0
H737 H 0.05785 0.73512 0.50823 0.0
C738 C 0.49686 0.17709 0.05042 0.0
C739 C 0.48103 0.17357 0.01687 0.0
C740 C 0.5211 0.17137 0.05165 0.0
C741 C 0.5782 0.17148 0.98892 0.0
H742 H 0.59833 0.13743 0.07386 0.0
C743 C 0.68572 0.16202 0.98734 0.0
C744 C 0.70413 0.17291 0.01933 0.0
C745 C 0.65577 0.15615 0.98808 0.0
C746 C 0.593 0.14706 0.05001 0.0
H747 H 0.47689 0.15925 0.95901 0.0
H748 H 0.51879 0.1489 0.96137 0.0
H749 H 0.5502 0.13773 0.07332 0.0
H750 H 0.70493 0.18461 0.07778 0.0
H751 H 0.65276 0.17494 0.0788 0.0
H752 H 0.62107 0.18156 0.96594 0.0
C753 C 0.51298 0.15681 0.98646 0.0
C754 C 0.5655 0.14723 0.0497 0.0
C755 C 0.48891 0.16267 0.98516 0.0
C756 C 0.69139 0.17631 0.05262 0.0
C757 C 0.66142 0.1706 0.05328 0.0
C758 C 0.60557 0.1713 0.98923 0.0
C759 C 0.52986 0.16187 0.01942 0.0
C760 C 0.55793 0.15965 0.01922 0.0
C761 C 0.64358 0.16124 0.02073 0.0
C762 C 0.61341 0.1593 0.01985 0.0
H763 H 0.49134 0.18539 0.07538 0.0
H764 H 0.5338 0.1757 0.07739 0.0
H765 H 0.5734 0.18184 0.9654 0.0
H766 H 0.69465 0.15867 0.96139 0.0
H767 H 0.64236 0.14832 0.96276 0.0
C768 C 0.82235 0.50442 0.03706 0.0
C769 C 0.81403 0.51242 0.00329 0.0
C770 C 0.82905 0.48088 0.03814 0.0
C771 C 0.84708 0.43206 0.97857 0.0
H772 H 0.80874 0.37382 0.05899 0.0
C773 C 0.82155 0.3077 0.97302 0.0
C774 C 0.82367 0.29425 0.00637 0.0
C775 C 0.82648 0.33737 0.97305 0.0
C776 C 0.8201 0.39012 0.03671 0.0
H777 H 0.80713 0.50248 0.94395 0.0
H778 H 0.8182 0.46109 0.94606 0.0
H779 H 0.80606 0.4203 0.05864 0.0
H780 H 0.8348 0.30224 0.06537 0.0
H781 H 0.84356 0.35395 0.06523 0.0
H782 H 0.86026 0.40119 0.95612 0.0
C783 C 0.82 0.47331 0.9716 0.0
C784 C 0.81857 0.4168 0.03653 0.0
C785 C 0.8134 0.49691 0.97047 0.0
C786 C 0.83248 0.3117 0.03927 0.0
C787 C 0.83745 0.34132 0.03926 0.0
C788 C 0.84855 0.40528 0.97872 0.0
C789 C 0.82748 0.46476 0.00552 0.0
C790 C 0.83166 0.43787 0.0072 0.0
C791 C 0.83369 0.35417 0.00639 0.0
C792 C 0.83472 0.38386 0.00756 0.0
H793 H 0.82341 0.5161 0.0628 0.0
H794 H 0.8352 0.47511 0.06462 0.0
H795 H 0.85775 0.44808 0.95587 0.0
H796 H 0.81491 0.29493 0.94716 0.0
H797 H 0.82321 0.3466 0.94731 0.0
C798 C 0.68133 0.50559 0.0338 0.0
C799 C 0.69628 0.52007 0.00048 0.0
C800 C 0.65106 0.48202 0.03318 0.0
C801 C 0.59891 0.42286 0.96955 0.0
H802 H 0.53991 0.40452 0.04868 0.0
C803 C 0.48634 0.30973 0.97104 0.0
C804 C 0.47862 0.29422 0.00541 0.0
C805 C 0.50879 0.34037 0.96918 0.0
C806 C 0.55619 0.40935 0.02642 0.0
H807 H 0.69035 0.52275 0.9408 0.0
H808 H 0.63751 0.48182 0.93988 0.0
H809 H 0.58694 0.45388 0.04768 0.0
H810 H 0.48753 0.29916 0.06502 0.0
H811 H 0.52722 0.35242 0.06161 0.0
H812 H 0.56901 0.37814 0.94899 0.0
C813 C 0.64943 0.48828 0.96633 0.0
C814 C 0.58305 0.43758 0.02583 0.0
C815 C 0.6797 0.51177 0.96691 0.0
C816 C 0.49298 0.31039 0.03807 0.0
C817 C 0.51559 0.34101 0.03617 0.0
C818 C 0.57218 0.3947 0.97017 0.0
C819 C 0.63509 0.47253 -0.00074 0.0
C820 C 0.60493 0.44439 -0.00227 0.0
C821 C 0.52417 0.35616 0.00159 0.0
C822 C 0.55077 0.38739 -0.00103 0.0
H823 H 0.69335 0.5115 0.06019 0.0
H824 H 0.64073 0.47019 0.05899 0.0
H825 H 0.61554 0.42714 0.94791 0.0
H826 H 0.47538 0.2981 0.9454 0.0
H827 H 0.5145 0.35157 0.94222 0.0
C828 C 0.35526 0.4973 0.31255 0.0
C829 C 0.3725 0.50552 0.34558 0.0
C830 C 0.32517 0.49105 0.31299 0.0
C831 C 0.26027 0.47574 0.37494 0.0
H832 H 0.24203 0.51661 0.29614 0.0
C833 C 0.16413 0.50548 0.38276 0.0
C834 C 0.14867 0.50389 0.34953 0.0
C835 C 0.18843 0.49983 0.38241 0.0
C836 C 0.24649 0.50457 0.31798 0.0
H837 H 0.37121 0.51224 0.40529 0.0
H838 H 0.31891 0.50203 0.40583 0.0
H839 H 0.28998 0.51688 0.29503 0.0
H840 H 0.14518 0.49303 0.29042 0.0
H841 H 0.18726 0.48297 0.29 0.0
H842 H 0.21689 0.46428 0.39838 0.0
C843 C 0.32853 0.5 0.3797 0.0
C844 C 0.27399 0.5047 0.31732 0.0
C845 C 0.35859 0.50607 0.37932 0.0
C846 C 0.15697 0.49502 0.3164 0.0
C847 C 0.18109 0.48926 0.31611 0.0
C848 C 0.23267 0.47567 0.37563 0.0
C849 C 0.31174 0.49309 0.3464 0.0
C850 C 0.28135 0.49055 0.34595 0.0
C851 C 0.19757 0.49238 0.34887 0.0
C852 C 0.22566 0.49034 0.3473 0.0
H853 H 0.36512 0.49618 0.28617 0.0
H854 H 0.3126 0.4852 0.287 0.0
H855 H 0.26521 0.46439 0.39719 0.0
H856 H 0.1582 0.51213 0.40878 0.0
H857 H 0.20086 0.5026 0.40806 0.0
C858 C 0.49416 0.83148 0.31559 0.0
C859 C 0.49247 0.84596 0.34824 0.0
C860 C 0.50105 0.80807 0.31761 0.0
C861 C 0.49402 0.74927 0.38246 0.0
H862 H 0.54121 0.73536 0.30787 0.0
C863 C 0.50098 0.63971 0.38383 0.0
C864 C 0.4956 0.62493 0.34913 0.0
C865 C 0.5073 0.66983 0.38589 0.0
C866 C 0.52792 0.73892 0.32887 0.0
H867 H 0.49846 0.84825 0.40847 0.0
H868 H 0.51055 0.80755 0.41181 0.0
H869 H 0.54013 0.78298 0.30722 0.0
H870 H 0.49426 0.63089 0.28921 0.0
H871 H 0.50471 0.68302 0.29292 0.0
H872 H 0.48086 0.70492 0.40334 0.0
C873 C 0.50607 0.81401 0.38474 0.0
C874 C 0.52732 0.76616 0.32849 0.0
C875 C 0.49922 0.83742 0.38275 0.0
C876 C 0.49813 0.64145 0.31646 0.0
C877 C 0.50438 0.6715 0.31854 0.0
C878 C 0.49455 0.72204 0.38278 0.0
C879 C 0.50641 0.79865 0.3523 0.0
C880 C 0.5099 0.77137 0.35488 0.0
C881 C 0.50837 0.68582 0.35331 0.0
C882 C 0.51102 0.71629 0.35556 0.0
H883 H 0.48922 0.83752 0.28853 0.0
H884 H 0.50088 0.79649 0.29214 0.0
H885 H 0.48001 0.75238 0.40283 0.0
H886 H 0.49951 0.6278 0.40955 0.0
H887 H 0.51075 0.6804 0.41308 0.0
C888 C 0.35212 0.83232 0.30859 0.0
C889 C 0.36879 0.84113 0.34209 0.0
C890 C 0.32185 0.80873 0.30833 0.0
C891 C 0.25545 0.76089 0.36939 0.0
H892 H 0.23538 0.70099 0.29122 0.0
C893 C 0.15731 0.63624 0.37931 0.0
C894 C 0.14199 0.62159 0.34631 0.0
C895 C 0.18163 0.66617 0.37825 0.0
C896 C 0.24032 0.71774 0.31285 0.0
H897 H 0.36624 0.83266 0.40181 0.0
H898 H 0.31372 0.7912 0.40114 0.0
H899 H 0.28436 0.74768 0.29008 0.0
H900 H 0.13866 0.62777 0.28683 0.0
H901 H 0.18076 0.67998 0.28517 0.0
H902 H 0.21157 0.73029 0.39271 0.0
C903 C 0.32391 0.80279 0.37516 0.0
C904 C 0.26845 0.74455 0.3122 0.0
C905 C 0.35415 0.82644 0.37547 0.0
C906 C 0.15026 0.63818 0.31269 0.0
C907 C 0.17446 0.66808 0.31168 0.0
C908 C 0.22724 0.73398 0.37008 0.0
C909 C 0.30757 0.79335 0.34151 0.0
C910 C 0.27653 0.76625 0.34071 0.0
C911 C 0.19102 0.68208 0.34422 0.0
C912 C 0.21956 0.71195 0.34205 0.0
H913 H 0.36254 0.84335 0.28242 0.0
H914 H 0.30971 0.80229 0.28203 0.0
H915 H 0.26086 0.77738 0.39151 0.0
H916 H 0.1515 0.62417 0.4057 0.0
H917 H 0.19405 0.67625 0.40378 0.0
C918 C 0.01621 0.83134 0.71139 0.0
C919 C 0.03087 0.83103 0.67816 0.0
C920 C 0.98625 0.82573 0.71068 0.0
C921 C 0.93349 0.83217 0.64658 0.0
H922 H 0.87385 0.78965 0.72453 0.0
C923 C 0.81677 0.82416 0.64207 0.0
C924 C 0.80714 0.83111 0.67561 0.0
C925 C 0.84086 0.81825 0.6419 0.0
C926 C 0.89032 0.80168 0.70263 0.0
H927 H 0.02478 0.82268 0.61845 0.0
H928 H 0.97258 0.81262 0.61739 0.0
H929 H 0.92222 0.78993 0.72529 0.0
H930 H 0.81436 0.83574 0.73556 0.0
H931 H 0.85672 0.82599 0.7351 0.0
H932 H 0.90223 0.84471 0.62443 0.0
C933 C 0.98447 0.81784 0.64386 0.0
C934 C 0.91799 0.80183 0.70307 0.0
C935 C 0.01438 0.82352 0.64452 0.0
C936 C 0.82121 0.83054 0.70919 0.0
C937 C 0.84542 0.82476 0.70898 0.0
C938 C 0.90594 0.83206 0.64617 0.0
C939 C 0.97032 0.81961 0.67676 0.0
C940 C 0.93999 0.81735 0.67522 0.0
C941 C 0.856 0.81928 0.67521 0.0
C942 C 0.88413 0.81709 0.67437 0.0
H943 H 0.02818 0.83698 0.73781 0.0
H944 H 0.97607 0.82748 0.73648 0.0
H945 H 0.95017 0.84485 0.62512 0.0
H946 H 0.8062 0.82401 0.61573 0.0
H947 H 0.84806 0.81348 0.6155 0.0
C948 C 0.16193 0.96903 0.64584 0.0
C949 C 0.15313 0.95226 0.6793 0.0
C950 C 0.16952 -0.00048 0.64541 0.0
C951 C 0.1879 0.06618 0.70539 0.0
H952 H 0.14793 0.08523 0.62629 0.0
C953 C 0.15988 0.16317 0.7131 0.0
C954 C 0.16008 0.17797 0.67981 0.0
C955 C 0.1661 0.13928 0.71253 0.0
C956 C 0.15982 0.08061 0.64814 0.0
H957 H 0.14681 0.95483 0.73889 0.0
H958 H 0.15942 0.00789 0.73793 0.0
H959 H 0.14596 0.0365 0.6262 0.0
H960 H 0.16941 0.18094 0.62029 0.0
H961 H 0.18066 0.13961 0.61946 0.0
H962 H 0.20091 0.11018 0.72788 0.0
C963 C 0.16083 -0.00245 0.71212 0.0
C964 C 0.15867 0.05261 0.6481 0.0
C965 C 0.15338 0.96705 0.71261 0.0
C966 C 0.16851 0.16966 0.64635 0.0
C967 C 0.17491 0.14594 0.64583 0.0
C968 C 0.18906 0.09431 0.70544 0.0
C969 C 0.16833 0.01389 0.67837 0.0
C970 C 0.1723 0.04488 0.67698 0.0
C971 C 0.17283 0.12987 0.6787 0.0
C972 C 0.17464 0.10161 0.67706 0.0
H973 H 0.16249 0.9585 0.61977 0.0
H974 H 0.17578 0.01169 0.61909 0.0
H975 H 0.19892 0.06098 0.72779 0.0
H976 H 0.15357 0.16907 0.73939 0.0
H977 H 0.16409 0.12721 0.73829 0.0
C978 C 0.82567 0.97109 0.65341 0.0
C979 C 0.81158 0.95354 0.68541 0.0
C980 C 0.84997 0.00081 0.65672 0.0
C981 C 0.91147 0.04831 0.72099 0.0
H982 H 0.92512 0.11282 0.65183 0.0
C983 C 0.02293 0.16369 0.72248 0.0
C984 C 0.03665 0.17395 0.68727 0.0
C985 C 0.99281 0.13997 0.72532 0.0
C986 C 0.92162 0.095 0.67131 0.0
H987 H 0.81117 0.9541 0.74607 0.0
H988 H 0.85356 0.00605 0.75171 0.0
H989 H 0.8764 0.0652 0.65141 0.0
H990 H 0.02895 0.16805 0.62744 0.0
H991 H 0.97669 0.12652 0.63249 0.0
H992 H 0.95693 0.0776 0.7401 0.0
C993 C 0.84598 -0.00342 0.72409 0.0
C994 C 0.89375 0.06778 0.67107 0.0
C995 C 0.82163 0.96685 0.72081 0.0
C996 C 0.0192 0.16067 0.65502 0.0
C997 C 0.98911 0.137 0.65789 0.0
C998 C 0.9393 0.0755 0.72122 0.0
C999 C 0.86074 0.01368 0.69209 0.0
C1000 C 0.88865 0.04391 0.69536 0.0
C1001 C 0.97575 0.12607 0.69305 0.0
C1002 C 0.94492 0.09887 0.69582 0.0
H1003 H 0.81848 0.96167 0.6257 0.0
H1004 H 0.86108 0.01327 0.63152 0.0
H1005 H 0.90839 0.0302 0.73971 0.0
H1006 H 0.0356 0.17354 0.74792 0.0
H1007 H 0.98299 0.13226 0.75281 0.0
loop_
_geom_bond_atom_site_label_1
_geom_bond_atom_site_label_2
_geom_bond_distance
_geom_bond_site_symmetry_2
_ccdc_geom_bond_type
Sc0 O3 2.025 . S
Sc0 O10 2.105 . S
Sc0 O13 2.105 1_554 S
Sc0 O16 2.105 . S
Sc0 O19 2.105 1_554 S
Sc1 O3 2.025 1_556 S
Sc1 O11 2.105 . S
Sc1 O15 2.105 . S
Sc1 O17 2.105 . S
Sc1 O21 2.105 . S
Sc2 O3 2.025 . S
Sc2 O12 2.105 . S
Sc2 O14 2.105 . S
Sc2 O18 2.105 . S
Sc2 O20 2.105 . S
O3 Sc0 2.025 . S
O3 Sc1 2.025 1_554 S
O3 Sc2 2.025 . S
C4 O10 1.268 . S
C4 O20 1.268 . S
C5 O11 1.268 . S
C5 O19 1.268 . S
C6 O12 1.268 1_556 S
C6 O21 1.268 . S
C7 O13 1.268 . S
C7 O17 1.268 . S
C8 O14 1.268 . S
C8 O16 1.268 . S
C9 O15 1.268 . S
C9 O18 1.268 1_556 S
O10 Sc0 2.105 . S
O10 C4 1.268 . S
O11 Sc1 2.105 . S
O11 C5 1.268 . S
O12 Sc2 2.105 . S
O12 C6 1.268 1_554 S
O13 Sc0 2.105 1_556 S
O13 C7 1.268 . S
O14 Sc2 2.105 . S
O14 C8 1.268 . S
O15 Sc1 2.105 . S
O15 C9 1.268 . S
O16 Sc0 2.105 . S
O16 C8 1.268 . S
O17 Sc1 2.105 . S
O17 C7 1.268 . S
O18 Sc2 2.105 . S
O18 C9 1.268 1_554 S
O19 Sc0 2.105 1_556 S
O19 C5 1.268 . S
O20 Sc2 2.105 . S
O20 C4 1.268 . S
O21 Sc1 2.105 . S
O21 C6 1.268 . S
Sc22 O25 2.025 . S
Sc22 O32 2.105 . S
Sc22 O35 2.105 1_554 S
Sc22 O38 2.105 . S
Sc22 O41 2.105 1_554 S
Sc23 O25 2.025 1_556 S
Sc23 O33 2.105 . S
Sc23 O37 2.105 . S
Sc23 O39 2.105 . S
Sc23 O43 2.105 . S
Sc24 O25 2.025 . S
Sc24 O34 2.105 . S
Sc24 O36 2.105 . S
Sc24 O40 2.105 . S
Sc24 O42 2.105 . S
O25 Sc22 2.025 . S
O25 Sc23 2.025 1_554 S
O25 Sc24 2.025 . S
C26 O32 1.268 . S
C26 O42 1.268 . S
C27 O33 1.268 . S
C27 O41 1.268 . S
C28 O34 1.268 1_556 S
C28 O43 1.268 . S
C29 O35 1.268 . S
C29 O39 1.268 . S
C30 O36 1.268 . S
C30 O38 1.268 . S
C31 O37 1.268 . S
C31 O40 1.268 1_556 S
O32 Sc22 2.105 . S
O32 C26 1.268 . S
O33 Sc23 2.105 . S
O33 C27 1.268 . S
O34 Sc24 2.105 . S
O34 C28 1.268 1_554 S
O35 Sc22 2.105 1_556 S
O35 C29 1.268 . S
O36 Sc24 2.105 . S
O36 C30 1.268 . S
O37 Sc23 2.105 . S
O37 C31 1.268 . S
O38 Sc22 2.105 . S
O38 C30 1.268 . S
O39 Sc23 2.105 . S
O39 C29 1.268 . S
O40 Sc24 2.105 . S
O40 C31 1.268 1_554 S
O41 Sc22 2.105 1_556 S
O41 C27 1.268 . S
O42 Sc24 2.105 . S
O42 C26 1.268 . S
O43 Sc23 2.105 . S
O43 C28 1.268 . S
Sc44 O47 2.025 . S
Sc44 O54 2.105 . S
Sc44 O57 2.105 1_554 S
Sc44 O60 2.105 . S
Sc44 O63 2.105 1_554 S
Sc45 O47 2.025 1_556 S
Sc45 O55 2.105 . S
Sc45 O59 2.105 . S
Sc45 O61 2.105 . S
Sc45 O65 2.105 . S
Sc46 O47 2.025 . S
Sc46 O56 2.105 . S
Sc46 O58 2.105 . S
Sc46 O62 2.105 . S
Sc46 O64 2.105 . S
O47 Sc44 2.025 . S
O47 Sc45 2.025 1_554 S
O47 Sc46 2.025 . S
C48 O54 1.268 . S
C48 O64 1.268 . S
C49 O55 1.268 . S
C49 O63 1.268 . S
C50 O56 1.268 1_556 S
C50 O65 1.268 . S
C51 O57 1.268 . S
C51 O61 1.268 . S
C52 O58 1.268 . S
C52 O60 1.268 . S
C53 O59 1.268 . S
C53 O62 1.268 1_556 S
O54 Sc44 2.105 . S
O54 C48 1.268 . S
O55 Sc45 2.105 . S
O55 C49 1.268 . S
O56 Sc46 2.105 . S
O56 C50 1.268 1_554 S
O57 Sc44 2.105 1_556 S
O57 C51 1.268 . S
O58 Sc46 2.105 . S
O58 C52 1.268 . S
O59 Sc45 2.105 . S
O59 C53 1.268 . S
O60 Sc44 2.105 . S
O60 C52 1.268 . S
O61 Sc45 2.105 . S
O61 C51 1.268 . S
O62 Sc46 2.105 . S
O62 C53 1.268 1_554 S
O63 Sc44 2.105 1_556 S
O63 C49 1.268 . S
O64 Sc46 2.105 . S
O64 C48 1.268 . S
O65 Sc45 2.105 . S
O65 C50 1.268 . S
Sc66 O69 2.025 . S
Sc66 O76 2.105 . S
Sc66 O79 2.105 . S
Sc66 O82 2.105 . S
Sc66 O85 2.105 . S
Sc67 O69 2.025 . S
Sc67 O77 2.105 . S
Sc67 O81 2.105 . S
Sc67 O83 2.105 . S
Sc67 O87 2.105 . S
Sc68 O69 2.025 . S
Sc68 O78 2.105 . S
Sc68 O80 2.105 . S
Sc68 O84 2.105 . S
Sc68 O86 2.105 . S
O69 Sc66 2.025 . S
O69 Sc67 2.025 . S
O69 Sc68 2.025 . S
C70 O76 1.268 . S
C70 O86 1.268 . S
C71 O77 1.268 . S
C71 O85 1.268 . S
C72 O78 1.268 . S
C72 O87 1.268 . S
C73 O79 1.268 . S
C73 O83 1.268 . S
C74 O80 1.268 . S
C74 O82 1.268 . S
C75 O81 1.268 . S
C75 O84 1.268 . S
O76 Sc66 2.105 . S
O76 C70 1.268 . S
O77 Sc67 2.105 . S
O77 C71 1.268 . S
O78 Sc68 2.105 . S
O78 C72 1.268 . S
O79 Sc66 2.105 . S
O79 C73 1.268 . S
O80 Sc68 2.105 . S
O80 C74 1.268 . S
O81 Sc67 2.105 . S
O81 C75 1.268 . S
O82 Sc66 2.105 . S
O82 C74 1.268 . S
O83 Sc67 2.105 . S
O83 C73 1.268 . S
O84 Sc68 2.105 . S
O84 C75 1.268 . S
O85 Sc66 2.105 . S
O85 C71 1.268 . S
O86 Sc68 2.105 . S
O86 C70 1.268 . S
O87 Sc67 2.105 . S
O87 C72 1.268 . S
Sc88 O91 2.025 . S
Sc88 O98 2.105 . S
Sc88 O101 2.105 . S
Sc88 O104 2.105 . S
Sc88 O107 2.105 . S
Sc89 O91 2.025 . S
Sc89 O99 2.105 . S
Sc89 O103 2.105 . S
Sc89 O105 2.105 . S
Sc89 O109 2.105 . S
Sc90 O91 2.025 . S
Sc90 O100 2.105 . S
Sc90 O102 2.105 . S
Sc90 O106 2.105 . S
Sc90 O108 2.105 . S
O91 Sc88 2.025 . S
O91 Sc89 2.025 . S
O91 Sc90 2.025 . S
C92 O98 1.268 . S
C92 O108 1.268 . S
C93 O99 1.268 . S
C93 O107 1.268 . S
C94 O100 1.268 . S
C94 O109 1.268 . S
C95 O101 1.268 . S
C95 O105 1.268 . S
C96 O102 1.268 . S
C96 O104 1.268 . S
C97 O103 1.268 . S
C97 O106 1.268 . S
O98 Sc88 2.105 . S
O98 C92 1.268 . S
O99 Sc89 2.105 . S
O99 C93 1.268 . S
O100 Sc90 2.105 . S
O100 C94 1.268 . S
O101 Sc88 2.105 . S
O101 C95 1.268 . S
O102 Sc90 2.105 . S
O102 C96 1.268 . S
O103 Sc89 2.105 . S
O103 C97 1.268 . S
O104 Sc88 2.105 . S
O104 C96 1.268 . S
O105 Sc89 2.105 . S
O105 C95 1.268 . S
O106 Sc90 2.105 . S
O106 C97 1.268 . S
O107 Sc88 2.105 . S
O107 C93 1.268 . S
O108 Sc90 2.105 . S
O108 C92 1.268 . S
O109 Sc89 2.105 . S
O109 C94 1.268 . S
Sc110 O113 2.025 . S
Sc110 O120 2.105 . S
Sc110 O123 2.105 . S
Sc110 O126 2.105 . S
Sc110 O129 2.105 . S
Sc111 O113 2.025 . S
Sc111 O121 2.105 . S
Sc111 O125 2.105 . S
Sc111 O127 2.105 . S
Sc111 O131 2.105 . S
Sc112 O113 2.025 . S
Sc112 O122 2.105 . S
Sc112 O124 2.105 . S
Sc112 O128 2.105 . S
Sc112 O130 2.105 . S
O113 Sc110 2.025 . S
O113 Sc111 2.025 . S
O113 Sc112 2.025 . S
C114 O120 1.268 . S
C114 O130 1.268 . S
C115 O121 1.268 . S
C115 O129 1.268 . S
C116 O122 1.268 . S
C116 O131 1.268 . S
C117 O123 1.268 . S
C117 O127 1.268 . S
C118 O124 1.268 . S
C118 O126 1.268 . S
C119 O125 1.268 . S
C119 O128 1.268 . S
O120 Sc110 2.105 . S
O120 C114 1.268 . S
O121 Sc111 2.105 . S
O121 C115 1.268 . S
O122 Sc112 2.105 . S
O122 C116 1.268 . S
O123 Sc110 2.105 . S
O123 C117 1.268 . S
O124 Sc112 2.105 . S
O124 C118 1.268 . S
O125 Sc111 2.105 . S
O125 C119 1.268 . S
O126 Sc110 2.105 . S
O126 C118 1.268 . S
O127 Sc111 2.105 . S
O127 C117 1.268 . S
O128 Sc112 2.105 . S
O128 C119 1.268 . S
O129 Sc110 2.105 . S
O129 C115 1.268 . S
O130 Sc112 2.105 . S
O130 C114 1.268 . S
O131 Sc111 2.105 . S
O131 C116 1.268 . S
Sc132 O135 2.025 . S
Sc132 O142 2.105 . S
Sc132 O145 2.105 . S
Sc132 O148 2.105 . S
Sc132 O151 2.105 . S
Sc133 O135 2.025 . S
Sc133 O143 2.105 . S
Sc133 O147 2.105 . S
Sc133 O149 2.105 . S
Sc133 O153 2.105 . S
Sc134 O135 2.025 . S
Sc134 O144 2.105 . S
Sc134 O146 2.105 . S
Sc134 O150 2.105 . S
Sc134 O152 2.105 . S
O135 Sc132 2.025 . S
O135 Sc133 2.025 . S
O135 Sc134 2.025 . S
C136 O142 1.268 . S
C136 O152 1.268 . S
C137 O143 1.268 . S
C137 O151 1.268 . S
C138 O144 1.268 . S
C138 O153 1.268 . S
C139 O145 1.268 . S
C139 O149 1.268 . S
C140 O146 1.268 . S
C140 O148 1.268 . S
C141 O147 1.268 . S
C141 O150 1.268 . S
O142 Sc132 2.105 . S
O142 C136 1.268 . S
O143 Sc133 2.105 . S
O143 C137 1.268 . S
O144 Sc134 2.105 . S
O144 C138 1.268 . S
O145 Sc132 2.105 . S
O145 C139 1.268 . S
O146 Sc134 2.105 . S
O146 C140 1.268 . S
O147 Sc133 2.105 . S
O147 C141 1.268 . S
O148 Sc132 2.105 . S
O148 C140 1.268 . S
O149 Sc133 2.105 . S
O149 C139 1.268 . S
O150 Sc134 2.105 . S
O150 C141 1.268 . S
O151 Sc132 2.105 . S
O151 C137 1.268 . S
O152 Sc134 2.105 . S
O152 C136 1.268 . S
O153 Sc133 2.105 . S
O153 C138 1.268 . S
Sc154 O157 2.025 . S
Sc154 O164 2.105 . S
Sc154 O167 2.105 . S
Sc154 O170 2.105 . S
Sc154 O173 2.105 . S
Sc155 O157 2.025 . S
Sc155 O165 2.105 . S
Sc155 O169 2.105 . S
Sc155 O171 2.105 . S
Sc155 O175 2.105 . S
Sc156 O157 2.025 . S
Sc156 O166 2.105 . S
Sc156 O168 2.105 . S
Sc156 O172 2.105 . S
Sc156 O174 2.105 . S
O157 Sc154 2.025 . S
O157 Sc155 2.025 . S
O157 Sc156 2.025 . S
C158 O164 1.268 . S
C158 O174 1.268 . S
C159 O165 1.268 . S
C159 O173 1.268 . S
C160 O166 1.268 . S
C160 O175 1.268 . S
C161 O167 1.268 . S
C161 O171 1.268 . S
C162 O168 1.268 . S
C162 O170 1.268 . S
C163 O169 1.268 . S
C163 O172 1.268 . S
O164 Sc154 2.105 . S
O164 C158 1.268 . S
O165 Sc155 2.105 . S
O165 C159 1.268 . S
O166 Sc156 2.105 . S
O166 C160 1.268 . S
O167 Sc154 2.105 . S
O167 C161 1.268 . S
O168 Sc156 2.105 . S
O168 C162 1.268 . S
O169 Sc155 2.105 . S
O169 C163 1.268 . S
O170 Sc154 2.105 . S
O170 C162 1.268 . S
O171 Sc155 2.105 . S
O171 C161 1.268 . S
O172 Sc156 2.105 . S
O172 C163 1.268 . S
O173 Sc154 2.105 . S
O173 C159 1.268 . S
O174 Sc156 2.105 . S
O174 C158 1.268 . S
O175 Sc155 2.105 . S
O175 C160 1.268 . S
Sc176 O179 2.025 . S
Sc176 O186 2.105 . S
Sc176 O189 2.105 . S
Sc176 O192 2.105 . S
Sc176 O195 2.105 . S
Sc177 O179 2.025 . S
Sc177 O187 2.105 . S
Sc177 O191 2.105 . S
Sc177 O193 2.105 . S
Sc177 O197 2.105 . S
Sc178 O179 2.025 . S
Sc178 O188 2.105 . S
Sc178 O190 2.105 . S
Sc178 O194 2.105 . S
Sc178 O196 2.105 . S
O179 Sc176 2.025 . S
O179 Sc177 2.025 . S
O179 Sc178 2.025 . S
C180 O186 1.268 . S
C180 O196 1.268 . S
C181 O187 1.268 . S
C181 O195 1.268 . S
C182 O188 1.268 . S
C182 O197 1.268 . S
C183 O189 1.268 . S
C183 O193 1.268 . S
C184 O190 1.268 . S
C184 O192 1.268 . S
C185 O191 1.268 . S
C185 O194 1.268 . S
O186 Sc176 2.105 . S
O186 C180 1.268 . S
O187 Sc177 2.105 . S
O187 C181 1.268 . S
O188 Sc178 2.105 . S
O188 C182 1.268 . S
O189 Sc176 2.105 . S
O189 C183 1.268 . S
O190 Sc178 2.105 . S
O190 C184 1.268 . S
O191 Sc177 2.105 . S
O191 C185 1.268 . S
O192 Sc176 2.105 . S
O192 C184 1.268 . S
O193 Sc177 2.105 . S
O193 C183 1.268 . S
O194 Sc178 2.105 . S
O194 C185 1.268 . S
O195 Sc176 2.105 . S
O195 C181 1.268 . S
O196 Sc178 2.105 . S
O196 C180 1.268 . S
O197 Sc177 2.105 . S
O197 C182 1.268 . S
C198 C199 1.349 . S
C198 C200 1.327 . S
C198 H223 0.950 . S
C199 C198 1.349 . S
C199 C215 1.349 . S
C200 C198 1.327 . S
C200 C219 1.429 . S
C200 H224 0.950 . S
C201 C218 1.574 1_545 S
C201 C220 1.368 . S
C201 H225 0.949 . S
H202 C206 0.949 . S
C203 C204 1.349 . S
C203 C205 1.327 . S
C203 H226 0.950 . S
C204 C203 1.349 . S
C204 C216 1.349 . S
C205 C203 1.327 . S
C205 C221 1.429 . S
C205 H227 0.950 . S
C206 H202 0.949 . S
C206 C214 1.574 . S
C206 C222 1.368 1_545 S
H207 C215 0.950 . S
H208 C213 0.950 . S
H209 C214 0.949 . S
H210 C216 0.950 . S
H211 C217 0.950 . S
H212 C218 0.949 . S
C213 H208 0.950 . S
C213 C215 1.327 . S
C213 C219 1.429 . S
C214 C206 1.574 . S
C214 H209 0.949 . S
C214 C220 1.368 . S
C215 C199 1.349 . S
C215 H207 0.950 . S
C215 C213 1.327 . S
C216 C204 1.349 . S
C216 H210 0.950 . S
C216 C217 1.327 . S
C217 H211 0.950 . S
C217 C216 1.327 . S
C217 C221 1.429 . S
C218 C201 1.574 1_565 S
C218 H212 0.949 . S
C218 C222 1.368 . S
C219 C200 1.429 . S
C219 C213 1.429 . S
C219 C220 1.523 . S
C220 C201 1.368 . S
C220 C214 1.368 . S
C220 C219 1.523 . S
C221 C205 1.429 . S
C221 C217 1.429 . S
C221 C222 1.523 . S
C222 C206 1.368 1_565 S
C222 C218 1.368 . S
C222 C221 1.523 . S
H223 C198 0.950 . S
H224 C200 0.950 . S
H225 C201 0.949 . S
H226 C203 0.950 . S
H227 C205 0.950 . S
C228 C229 1.349 . S
C228 C230 1.327 . S
C228 H253 0.950 . S
C229 C228 1.349 . S
C229 C245 1.349 . S
C230 C228 1.327 . S
C230 C249 1.429 . S
C230 H254 0.950 . S
C231 C248 1.574 1_655 S
C231 C250 1.368 . S
C231 H255 0.949 . S
H232 C236 0.949 . S
C233 C234 1.349 . S
C233 C235 1.327 . S
C233 H256 0.950 . S
C234 C233 1.349 . S
C234 C246 1.349 . S
C235 C233 1.327 . S
C235 C251 1.429 . S
C235 H257 0.950 . S
C236 H232 0.949 . S
C236 C244 1.574 . S
C236 C252 1.368 1_655 S
H237 C245 0.950 . S
H238 C243 0.950 . S
H239 C244 0.949 . S
H240 C246 0.950 . S
H241 C247 0.950 . S
H242 C248 0.949 . S
C243 H238 0.950 . S
C243 C245 1.327 . S
C243 C249 1.429 . S
C244 C236 1.574 . S
C244 H239 0.949 . S
C244 C250 1.368 . S
C245 C229 1.349 . S
C245 H237 0.950 . S
C245 C243 1.327 . S
C246 C234 1.349 . S
C246 H240 0.950 . S
C246 C247 1.327 . S
C247 H241 0.950 . S
C247 C246 1.327 . S
C247 C251 1.429 . S
C248 C231 1.574 1_455 S
C248 H242 0.949 . S
C248 C252 1.368 . S
C249 C230 1.429 . S
C249 C243 1.429 . S
C249 C250 1.523 . S
C250 C231 1.368 . S
C250 C244 1.368 . S
C250 C249 1.523 . S
C251 C235 1.429 . S
C251 C247 1.429 . S
C251 C252 1.523 . S
C252 C236 1.368 1_455 S
C252 C248 1.368 . S
C252 C251 1.523 . S
H253 C228 0.950 . S
H254 C230 0.950 . S
H255 C231 0.949 . S
H256 C233 0.950 . S
H257 C235 0.950 . S
C258 C259 1.349 . S
C258 C260 1.327 . S
C258 H283 0.950 . S
C259 C258 1.349 . S
C259 C275 1.349 . S
C260 C258 1.327 . S
C260 C279 1.429 . S
C260 H284 0.950 . S
C261 C278 1.574 . S
C261 C280 1.368 . S
C261 H285 0.949 . S
H262 C266 0.949 . S
C263 C264 1.349 . S
C263 C265 1.327 . S
C263 H286 0.950 . S
C264 C263 1.349 . S
C264 C276 1.349 . S
C265 C263 1.327 . S
C265 C281 1.429 . S
C265 H287 0.950 . S
C266 H262 0.949 . S
C266 C274 1.574 . S
C266 C282 1.368 . S
H267 C275 0.950 . S
H268 C273 0.950 . S
H269 C274 0.949 . S
H270 C276 0.950 . S
H271 C277 0.950 . S
H272 C278 0.949 . S
C273 H268 0.950 . S
C273 C275 1.327 . S
C273 C279 1.429 . S
C274 C266 1.574 . S
C274 H269 0.949 . S
C274 C280 1.368 . S
C275 C259 1.349 . S
C275 H267 0.950 . S
C275 C273 1.327 . S
C276 C264 1.349 . S
C276 H270 0.950 . S
C276 C277 1.327 . S
C277 H271 0.950 . S
C277 C276 1.327 . S
C277 C281 1.429 . S
C278 C261 1.574 . S
C278 H272 0.949 . S
C278 C282 1.368 . S
C279 C260 1.429 . S
C279 C273 1.429 . S
C279 C280 1.523 . S
C280 C261 1.368 . S
C280 C274 1.368 . S
C280 C279 1.523 . S
C281 C265 1.429 . S
C281 C277 1.429 . S
C281 C282 1.523 . S
C282 C266 1.368 . S
C282 C278 1.368 . S
C282 C281 1.523 . S
H283 C258 0.950 . S
H284 C260 0.950 . S
H285 C261 0.949 . S
H286 C263 0.950 . S
H287 C265 0.950 . S
C288 C289 1.349 . S
C288 C290 1.327 . S
C288 H313 0.950 . S
C289 C288 1.349 . S
C289 C305 1.349 . S
C290 C288 1.327 . S
C290 C309 1.429 . S
C290 H314 0.950 . S
C291 C308 1.574 . S
C291 C310 1.368 1_655 S
C291 H315 0.949 1_655 S
H292 C296 0.949 . S
C293 C294 1.349 . S
C293 C295 1.327 . S
C293 H316 0.950 . S
C294 C293 1.349 . S
C294 C306 1.349 . S
C295 C293 1.327 . S
C295 C311 1.429 . S
C295 H317 0.950 . S
C296 H292 0.949 . S
C296 C304 1.579 . S
C296 C312 1.368 . S
H297 C305 0.950 . S
H298 C303 0.950 . S
H299 C304 0.942 1_455 S
H300 C306 0.950 . S
H301 C307 0.950 . S
H302 C308 0.949 . S
C303 H298 0.950 . S
C303 C305 1.327 . S
C303 C309 1.429 . S
C304 C296 1.579 . S
C304 H299 0.942 1_655 S
C304 C310 1.371 1_655 S
C305 C289 1.349 . S
C305 H297 0.950 . S
C305 C303 1.327 . S
C306 C294 1.349 . S
C306 H300 0.950 . S
C306 C307 1.327 . S
C307 H301 0.950 . S
C307 C306 1.327 . S
C307 C311 1.429 . S
C308 C291 1.574 . S
C308 H302 0.949 . S
C308 C312 1.368 . S
C309 C290 1.429 . S
C309 C303 1.429 . S
C309 C310 1.523 . S
C310 C291 1.368 1_455 S
C310 C304 1.371 1_455 S
C310 C309 1.523 . S
C311 C295 1.429 . S
C311 C307 1.429 . S
C311 C312 1.523 . S
C312 C296 1.368 . S
C312 C308 1.368 . S
C312 C311 1.523 . S
H313 C288 0.950 . S
H314 C290 0.950 . S
H315 C291 0.949 1_455 S
H316 C293 0.950 . S
H317 C295 0.950 . S
C318 C319 1.349 . S
C318 C320 1.327 . S
C318 H343 0.950 . S
C319 C318 1.349 . S
C319 C335 1.349 . S
C320 C318 1.327 . S
C320 C339 1.429 . S
C320 H344 0.950 . S
C321 C338 1.574 . S
C321 C340 1.368 . S
C321 H345 0.949 . S
H322 C326 0.949 . S
C323 C324 1.349 . S
C323 C325 1.327 . S
C323 H346 0.950 . S
C324 C323 1.349 . S
C324 C336 1.349 . S
C325 C323 1.327 . S
C325 C341 1.429 . S
C325 H347 0.950 . S
C326 H322 0.949 . S
C326 C334 1.574 . S
C326 C342 1.368 . S
H327 C335 0.950 . S
H328 C333 0.950 . S
H329 C334 0.949 . S
H330 C336 0.950 . S
H331 C337 0.950 . S
H332 C338 0.949 . S
C333 H328 0.950 . S
C333 C335 1.327 . S
C333 C339 1.429 . S
C334 C326 1.574 . S
C334 H329 0.949 . S
C334 C340 1.368 . S
C335 C319 1.349 . S
C335 H327 0.950 . S
C335 C333 1.327 . S
C336 C324 1.349 . S
C336 H330 0.950 . S
C336 C337 1.327 . S
C337 H331 0.950 . S
C337 C336 1.327 . S
C337 C341 1.429 . S
C338 C321 1.574 . S
C338 H332 0.949 . S
C338 C342 1.368 . S
C339 C320 1.429 . S
C339 C333 1.429 . S
C339 C340 1.523 . S
C340 C321 1.368 . S
C340 C334 1.368 . S
C340 C339 1.523 . S
C341 C325 1.429 . S
C341 C337 1.429 . S
C341 C342 1.523 . S
C342 C326 1.368 . S
C342 C338 1.368 . S
C342 C341 1.523 . S
H343 C318 0.950 . S
H344 C320 0.950 . S
H345 C321 0.949 . S
H346 C323 0.950 . S
H347 C325 0.950 . S
C348 C349 1.349 . S
C348 C350 1.327 . S
C348 H373 0.950 . S
C349 C348 1.349 . S
C349 C365 1.349 . S
C350 C348 1.327 . S
C350 C369 1.429 . S
C350 H374 0.950 . S
C351 C368 1.574 . S
C351 C370 1.368 1_545 S
C351 H375 0.949 . S
H352 C356 0.949 . S
C353 C354 1.349 . S
C353 C355 1.327 . S
C353 H376 0.950 . S
C354 C353 1.349 . S
C354 C366 1.349 . S
C355 C353 1.327 . S
C355 C371 1.429 . S
C355 H377 0.950 . S
C356 H352 0.949 . S
C356 C364 1.574 1_545 S
C356 C372 1.368 . S
H357 C365 0.950 . S
H358 C363 0.950 . S
H359 C364 0.949 . S
H360 C366 0.950 . S
H361 C367 0.950 . S
H362 C368 0.949 . S
C363 H358 0.950 . S
C363 C365 1.327 . S
C363 C369 1.429 . S
C364 C356 1.574 1_565 S
C364 H359 0.949 . S
C364 C370 1.368 . S
C365 C349 1.349 . S
C365 H357 0.950 . S
C365 C363 1.327 . S
C366 C354 1.349 . S
C366 H360 0.950 . S
C366 C367 1.327 . S
C367 H361 0.950 . S
C367 C366 1.327 . S
C367 C371 1.429 . S
C368 C351 1.574 . S
C368 H362 0.949 . S
C368 C372 1.368 . S
C369 C350 1.429 . S
C369 C363 1.429 . S
C369 C370 1.523 . S
C370 C351 1.368 1_565 S
C370 C364 1.368 . S
C370 C369 1.523 . S
C371 C355 1.429 . S
C371 C367 1.429 . S
C371 C372 1.523 . S
C372 C356 1.368 . S
C372 C368 1.368 . S
C372 C371 1.523 . S
H373 C348 0.950 . S
H374 C350 0.950 . S
H375 C351 0.949 . S
H376 C353 0.950 . S
H377 C355 0.950 . S
C378 C379 1.349 . S
C378 C380 1.327 . S
C378 H403 0.950 . S
C379 C378 1.349 . S
C379 C395 1.349 . S
C380 C378 1.327 . S
C380 C399 1.429 . S
C380 H404 0.950 . S
C381 C398 1.574 . S
C381 C400 1.368 . S
C381 H405 0.949 . S
H382 C386 0.949 . S
C383 C384 1.349 . S
C383 C385 1.327 . S
C383 H406 0.950 . S
C384 C383 1.349 . S
C384 C396 1.349 . S
C385 C383 1.327 . S
C385 C401 1.429 1_455 S
C385 H407 0.950 . S
C386 H382 0.949 . S
C386 C394 1.574 . S
C386 C402 1.368 . S
H387 C395 0.950 . S
H388 C393 0.950 . S
H389 C394 0.949 . S
H390 C396 0.951 1_655 S
H391 C397 0.950 . S
H392 C398 0.949 . S
C393 H388 0.950 . S
C393 C395 1.327 . S
C393 C399 1.429 . S
C394 C386 1.574 . S
C394 H389 0.949 . S
C394 C400 1.368 . S
C395 C379 1.349 . S
C395 H387 0.950 . S
C395 C393 1.327 . S
C396 C384 1.349 . S
C396 H390 0.951 1_455 S
C396 C397 1.327 1_455 S
C397 H391 0.950 . S
C397 C396 1.327 1_655 S
C397 C401 1.429 . S
C398 C381 1.574 . S
C398 H392 0.949 . S
C398 C402 1.368 . S
C399 C380 1.429 . S
C399 C393 1.429 . S
C399 C400 1.523 . S
C400 C381 1.368 . S
C400 C394 1.368 . S
C400 C399 1.523 . S
C401 C385 1.429 1_655 S
C401 C397 1.429 . S
C401 C402 1.523 . S
C402 C386 1.368 . S
C402 C398 1.368 . S
C402 C401 1.523 . S
H403 C378 0.950 . S
H404 C380 0.950 . S
H405 C381 0.949 . S
H406 C383 0.950 . S
H407 C385 0.950 . S
C408 C409 1.349 . S
C408 C410 1.327 . S
C408 H433 0.950 . S
C409 C408 1.349 . S
C409 C425 1.349 . S
C410 C408 1.327 . S
C410 C429 1.429 . S
C410 H434 0.950 . S
C411 C428 1.574 . S
C411 C430 1.368 . S
C411 H435 0.949 . S
H412 C416 0.949 . S
C413 C414 1.349 . S
C413 C415 1.327 . S
C413 H436 0.950 . S
C414 C413 1.349 . S
C414 C426 1.349 . S
C415 C413 1.327 . S
C415 C431 1.429 . S
C415 H437 0.950 . S
C416 H412 0.949 . S
C416 C424 1.574 . S
C416 C432 1.368 . S
H417 C425 0.950 . S
H418 C423 0.950 . S
H419 C424 0.949 . S
H420 C426 0.950 . S
H421 C427 0.950 . S
H422 C428 0.949 . S
C423 H418 0.950 . S
C423 C425 1.327 . S
C423 C429 1.429 . S
C424 C416 1.574 . S
C424 H419 0.949 . S
C424 C430 1.368 . S
C425 C409 1.349 . S
C425 H417 0.950 . S
C425 C423 1.327 . S
C426 C414 1.349 . S
C426 H420 0.950 . S
C426 C427 1.327 . S
C427 H421 0.950 . S
C427 C426 1.327 . S
C427 C431 1.429 . S
C428 C411 1.574 . S
C428 H422 0.949 . S
C428 C432 1.368 . S
C429 C410 1.429 . S
C429 C423 1.429 . S
C429 C430 1.523 . S
C430 C411 1.368 . S
C430 C424 1.368 . S
C430 C429 1.523 . S
C431 C415 1.429 . S
C431 C427 1.429 . S
C431 C432 1.523 . S
C432 C416 1.368 . S
C432 C428 1.368 . S
C432 C431 1.523 . S
H433 C408 0.950 . S
H434 C410 0.950 . S
H435 C411 0.949 . S
H436 C413 0.950 . S
H437 C415 0.950 . S
C438 C439 1.349 . S
C438 C440 1.327 . S
C438 H463 0.950 . S
C439 C438 1.349 . S
C439 C455 1.349 . S
C440 C438 1.327 . S
C440 C459 1.429 . S
C440 H464 0.950 . S
C441 C458 1.574 . S
C441 C460 1.368 . S
C441 H465 0.949 . S
H442 C446 0.949 . S
C443 C444 1.349 . S
C443 C445 1.327 1_565 S
C443 H466 0.954 . S
C444 C443 1.349 . S
C444 C456 1.349 . S
C445 C443 1.327 1_545 S
C445 C461 1.429 . S
C445 H467 0.950 . S
C446 H442 0.949 . S
C446 C454 1.574 . S
C446 C462 1.368 . S
H447 C455 0.950 . S
H448 C453 0.950 . S
H449 C454 0.949 . S
H450 C456 0.950 . S
H451 C457 0.950 . S
H452 C458 0.949 . S
C453 H448 0.950 . S
C453 C455 1.327 . S
C453 C459 1.429 . S
C454 C446 1.574 . S
C454 H449 0.949 . S
C454 C460 1.368 . S
C455 C439 1.349 . S
C455 H447 0.950 . S
C455 C453 1.327 . S
C456 C444 1.349 . S
C456 H450 0.950 . S
C456 C457 1.327 . S
C457 H451 0.950 . S
C457 C456 1.327 . S
C457 C461 1.429 1_565 S
C458 C441 1.574 . S
C458 H452 0.949 . S
C458 C462 1.368 . S
C459 C440 1.429 . S
C459 C453 1.429 . S
C459 C460 1.523 . S
C460 C441 1.368 . S
C460 C454 1.368 . S
C460 C459 1.523 . S
C461 C445 1.429 . S
C461 C457 1.429 1_545 S
C461 C462 1.523 . S
C462 C446 1.368 . S
C462 C458 1.368 . S
C462 C461 1.523 . S
H463 C438 0.950 . S
H464 C440 0.950 . S
H465 C441 0.949 . S
H466 C443 0.954 . S
H467 C445 0.950 . S
C468 C469 1.349 . S
C468 C470 1.327 . S
C468 H493 0.950 . S
C469 C468 1.349 . S
C469 C485 1.349 . S
C470 C468 1.327 . S
C470 C489 1.429 . S
C470 H494 0.950 . S
C471 C488 1.574 . S
C471 C490 1.368 . S
C471 H495 0.949 . S
H472 C476 0.949 . S
C473 C474 1.349 . S
C473 C475 1.327 . S
C473 H496 0.950 . S
C474 C473 1.349 . S
C474 C486 1.349 1_565 S
C475 C473 1.327 . S
C475 C491 1.429 1_565 S
C475 H497 0.950 . S
C476 H472 0.949 . S
C476 C484 1.574 . S
C476 C492 1.368 . S
H477 C485 0.950 . S
H478 C483 0.950 . S
H479 C484 0.949 . S
H480 C486 0.950 . S
H481 C487 0.950 . S
H482 C488 0.949 1_565 S
C483 H478 0.950 . S
C483 C485 1.327 . S
C483 C489 1.429 . S
C484 C476 1.574 . S
C484 H479 0.949 . S
C484 C490 1.368 . S
C485 C469 1.349 . S
C485 H477 0.950 . S
C485 C483 1.327 . S
C486 C474 1.349 1_545 S
C486 H480 0.950 . S
C486 C487 1.327 . S
C487 H481 0.950 . S
C487 C486 1.327 . S
C487 C491 1.429 . S
C488 C471 1.574 . S
C488 H482 0.949 1_545 S
C488 C492 1.368 . S
C489 C470 1.429 . S
C489 C483 1.429 . S
C489 C490 1.523 . S
C490 C471 1.368 . S
C490 C484 1.368 . S
C490 C489 1.523 . S
C491 C475 1.429 1_545 S
C491 C487 1.429 . S
C491 C492 1.523 . S
C492 C476 1.368 . S
C492 C488 1.368 . S
C492 C491 1.523 . S
H493 C468 0.950 . S
H494 C470 0.950 . S
H495 C471 0.949 . S
H496 C473 0.950 . S
H497 C475 0.950 . S
C498 C499 1.349 . S
C498 C500 1.327 . S
C498 H523 0.950 . S
C499 C498 1.349 . S
C499 C515 1.349 1_455 S
C500 C498 1.327 . S
C500 C519 1.429 1_455 S
C500 H524 0.950 . S
C501 C518 1.574 . S
C501 C520 1.368 . S
C501 H525 0.949 . S
H502 C506 0.949 . S
C503 C504 1.349 . S
C503 C505 1.327 . S
C503 H526 0.950 . S
C504 C503 1.349 . S
C504 C516 1.349 . S
C505 C503 1.327 . S
C505 C521 1.429 . S
C505 H527 0.950 . S
C506 H502 0.949 . S
C506 C514 1.574 . S
C506 C522 1.368 . S
H507 C515 0.950 . S
H508 C513 0.950 . S
H509 C514 0.949 1_455 S
H510 C516 0.950 . S
H511 C517 0.950 . S
H512 C518 0.949 . S
C513 H508 0.950 . S
C513 C515 1.327 . S
C513 C519 1.429 . S
C514 C506 1.574 . S
C514 H509 0.949 1_655 S
C514 C520 1.368 . S
C515 C499 1.349 1_655 S
C515 H507 0.950 . S
C515 C513 1.327 . S
C516 C504 1.349 . S
C516 H510 0.950 . S
C516 C517 1.327 . S
C517 H511 0.950 . S
C517 C516 1.327 . S
C517 C521 1.429 . S
C518 C501 1.574 . S
C518 H512 0.949 . S
C518 C522 1.368 . S
C519 C500 1.429 1_655 S
C519 C513 1.429 . S
C519 C520 1.523 . S
C520 C501 1.368 . S
C520 C514 1.368 . S
C520 C519 1.523 . S
C521 C505 1.429 . S
C521 C517 1.429 . S
C521 C522 1.523 . S
C522 C506 1.368 . S
C522 C518 1.368 . S
C522 C521 1.523 . S
H523 C498 0.950 . S
H524 C500 0.950 . S
H525 C501 0.949 . S
H526 C503 0.950 . S
H527 C505 0.950 . S
C528 C529 1.349 . S
C528 C530 1.327 . S
C528 H553 0.950 . S
C529 C528 1.349 . S
C529 C545 1.349 . S
C530 C528 1.327 . S
C530 C549 1.429 . S
C530 H554 0.950 . S
C531 C548 1.574 . S
C531 C550 1.368 . S
C531 H555 0.949 . S
H532 C536 0.949 . S
C533 C534 1.349 . S
C533 C535 1.327 . S
C533 H556 0.950 . S
C534 C533 1.349 . S
C534 C546 1.349 . S
C535 C533 1.327 . S
C535 C551 1.429 . S
C535 H557 0.950 . S
C536 H532 0.949 . S
C536 C544 1.574 . S
C536 C552 1.368 . S
H537 C545 0.950 . S
H538 C543 0.950 . S
H539 C544 0.949 . S
H540 C546 0.950 . S
H541 C547 0.950 . S
H542 C548 0.949 . S
C543 H538 0.950 . S
C543 C545 1.327 . S
C543 C549 1.429 . S
C544 C536 1.574 . S
C544 H539 0.949 . S
C544 C550 1.368 . S
C545 C529 1.349 . S
C545 H537 0.950 . S
C545 C543 1.327 . S
C546 C534 1.349 . S
C546 H540 0.950 . S
C546 C547 1.327 . S
C547 H541 0.950 . S
C547 C546 1.327 . S
C547 C551 1.429 . S
C548 C531 1.574 . S
C548 H542 0.949 . S
C548 C552 1.368 . S
C549 C530 1.429 . S
C549 C543 1.429 . S
C549 C550 1.523 . S
C550 C531 1.368 . S
C550 C544 1.368 . S
C550 C549 1.523 . S
C551 C535 1.429 . S
C551 C547 1.429 . S
C551 C552 1.523 . S
C552 C536 1.368 . S
C552 C548 1.368 . S
C552 C551 1.523 . S
H553 C528 0.950 . S
H554 C530 0.950 . S
H555 C531 0.949 . S
H556 C533 0.950 . S
H557 C535 0.950 . S
C558 C559 1.349 . S
C558 C560 1.327 . S
C558 H583 0.950 . S
C559 C558 1.349 . S
C559 C575 1.349 . S
C560 C558 1.327 . S
C560 C579 1.429 . S
C560 H584 0.950 . S
C561 C578 1.574 . S
C561 C580 1.368 . S
C561 H585 0.949 . S
H562 C566 0.949 . S
C563 C564 1.349 . S
C563 C565 1.327 . S
C563 H586 0.950 . S
C564 C563 1.349 . S
C564 C576 1.349 . S
C565 C563 1.327 . S
C565 C581 1.429 . S
C565 H587 0.950 . S
C566 H562 0.949 . S
C566 C574 1.574 . S
C566 C582 1.368 . S
H567 C575 0.950 . S
H568 C573 0.950 . S
H569 C574 0.949 . S
H570 C576 0.950 . S
H571 C577 0.950 . S
H572 C578 0.949 . S
C573 H568 0.950 . S
C573 C575 1.327 . S
C573 C579 1.429 . S
C574 C566 1.574 . S
C574 H569 0.949 . S
C574 C580 1.368 . S
C575 C559 1.349 . S
C575 H567 0.950 . S
C575 C573 1.327 . S
C576 C564 1.349 . S
C576 H570 0.950 . S
C576 C577 1.327 . S
C577 H571 0.950 . S
C577 C576 1.327 . S
C577 C581 1.429 . S
C578 C561 1.574 . S
C578 H572 0.949 . S
C578 C582 1.368 . S
C579 C560 1.429 . S
C579 C573 1.429 . S
C579 C580 1.523 . S
C580 C561 1.368 . S
C580 C574 1.368 . S
C580 C579 1.523 . S
C581 C565 1.429 . S
C581 C577 1.429 . S
C581 C582 1.523 . S
C582 C566 1.368 . S
C582 C578 1.368 . S
C582 C581 1.523 . S
H583 C558 0.950 . S
H584 C560 0.950 . S
H585 C561 0.949 . S
H586 C563 0.950 . S
H587 C565 0.950 . S
C588 C589 1.349 . S
C588 C590 1.327 . S
C588 H613 0.950 . S
C589 C588 1.349 . S
C589 C605 1.349 . S
C590 C588 1.327 . S
C590 C609 1.429 . S
C590 H614 0.950 . S
C591 C608 1.574 . S
C591 C610 1.368 . S
C591 H615 0.949 . S
H592 C596 0.949 . S
C593 C594 1.349 . S
C593 C595 1.327 . S
C593 H616 0.950 . S
C594 C593 1.349 . S
C594 C606 1.349 . S
C595 C593 1.327 . S
C595 C611 1.429 . S
C595 H617 0.950 . S
C596 H592 0.949 . S
C596 C604 1.574 . S
C596 C612 1.368 . S
H597 C605 0.950 . S
H598 C603 0.950 . S
H599 C604 0.949 . S
H600 C606 0.950 . S
H601 C607 0.950 . S
H602 C608 0.949 . S
C603 H598 0.950 . S
C603 C605 1.327 . S
C603 C609 1.429 . S
C604 C596 1.574 . S
C604 H599 0.949 . S
C604 C610 1.368 . S
C605 C589 1.349 . S
C605 H597 0.950 . S
C605 C603 1.327 . S
C606 C594 1.349 . S
C606 H600 0.950 . S
C606 C607 1.327 . S
C607 H601 0.950 . S
C607 C606 1.327 . S
C607 C611 1.429 . S
C608 C591 1.574 . S
C608 H602 0.949 . S
C608 C612 1.368 . S
C609 C590 1.429 . S
C609 C603 1.429 . S
C609 C610 1.523 . S
C610 C591 1.368 . S
C610 C604 1.368 . S
C610 C609 1.523 . S
C611 C595 1.429 . S
C611 C607 1.429 . S
C611 C612 1.523 . S
C612 C596 1.368 . S
C612 C608 1.368 . S
C612 C611 1.523 . S
H613 C588 0.950 . S
H614 C590 0.950 . S
H615 C591 0.949 . S
H616 C593 0.950 . S
H617 C595 0.950 . S
C618 C619 1.349 . S
C618 C620 1.327 . S
C618 H643 0.950 . S
C619 C618 1.349 . S
C619 C635 1.349 . S
C620 C618 1.327 . S
C620 C639 1.429 . S
C620 H644 0.950 . S
C621 C638 1.574 . S
C621 C640 1.368 . S
C621 H645 0.949 . S
H622 C626 0.949 . S
C623 C624 1.349 . S
C623 C625 1.327 . S
C623 H646 0.950 . S
C624 C623 1.349 . S
C624 C636 1.349 . S
C625 C623 1.327 . S
C625 C641 1.429 . S
C625 H647 0.950 . S
C626 H622 0.949 . S
C626 C634 1.574 . S
C626 C642 1.368 . S
H627 C635 0.950 . S
H628 C633 0.950 . S
H629 C634 0.949 . S
H630 C636 0.950 . S
H631 C637 0.950 . S
H632 C638 0.949 . S
C633 H628 0.950 . S
C633 C635 1.327 . S
C633 C639 1.429 . S
C634 C626 1.574 . S
C634 H629 0.949 . S
C634 C640 1.368 . S
C635 C619 1.349 . S
C635 H627 0.950 . S
C635 C633 1.327 . S
C636 C624 1.349 . S
C636 H630 0.950 . S
C636 C637 1.327 . S
C637 H631 0.950 . S
C637 C636 1.327 . S
C637 C641 1.429 . S
C638 C621 1.574 . S
C638 H632 0.949 . S
C638 C642 1.368 . S
C639 C620 1.429 . S
C639 C633 1.429 . S
C639 C640 1.523 . S
C640 C621 1.368 . S
C640 C634 1.368 . S
C640 C639 1.523 . S
C641 C625 1.429 . S
C641 C637 1.429 . S
C641 C642 1.523 . S
C642 C626 1.368 . S
C642 C638 1.368 . S
C642 C641 1.523 . S
H643 C618 0.950 . S
H644 C620 0.950 . S
H645 C621 0.949 . S
H646 C623 0.950 . S
H647 C625 0.950 . S
C648 C649 1.349 . S
C648 C650 1.327 . S
C648 H673 0.950 . S
C649 C648 1.349 . S
C649 C665 1.349 . S
C650 C648 1.327 . S
C650 C669 1.429 . S
C650 H674 0.950 . S
C651 C668 1.574 . S
C651 C670 1.368 . S
C651 H675 0.949 . S
H652 C656 0.949 . S
C653 C654 1.349 . S
C653 C655 1.327 . S
C653 H676 0.950 . S
C654 C653 1.349 . S
C654 C666 1.349 . S
C655 C653 1.327 . S
C655 C671 1.429 . S
C655 H677 0.950 . S
C656 H652 0.949 . S
C656 C664 1.574 . S
C656 C672 1.368 . S
H657 C665 0.950 . S
H658 C663 0.950 . S
H659 C664 0.949 . S
H660 C666 0.950 . S
H661 C667 0.950 . S
H662 C668 0.949 . S
C663 H658 0.950 . S
C663 C665 1.327 . S
C663 C669 1.429 . S
C664 C656 1.574 . S
C664 H659 0.949 . S
C664 C670 1.368 . S
C665 C649 1.349 . S
C665 H657 0.950 . S
C665 C663 1.327 . S
C666 C654 1.349 . S
C666 H660 0.950 . S
C666 C667 1.327 . S
C667 H661 0.950 . S
C667 C666 1.327 . S
C667 C671 1.429 . S
C668 C651 1.574 . S
C668 H662 0.949 . S
C668 C672 1.368 . S
C669 C650 1.429 . S
C669 C663 1.429 . S
C669 C670 1.523 . S
C670 C651 1.368 . S
C670 C664 1.368 . S
C670 C669 1.523 . S
C671 C655 1.429 . S
C671 C667 1.429 . S
C671 C672 1.523 . S
C672 C656 1.368 . S
C672 C668 1.368 . S
C672 C671 1.523 . S
H673 C648 0.950 . S
H674 C650 0.950 . S
H675 C651 0.949 . S
H676 C653 0.950 . S
H677 C655 0.950 . S
C678 C679 1.349 . S
C678 C680 1.327 . S
C678 H703 0.950 . S
C679 C678 1.349 . S
C679 C695 1.349 . S
C680 C678 1.327 . S
C680 C699 1.429 . S
C680 H704 0.950 . S
C681 C698 1.574 . S
C681 C700 1.368 . S
C681 H705 0.949 . S
H682 C686 0.949 . S
C683 C684 1.349 . S
C683 C685 1.327 . S
C683 H706 0.950 . S
C684 C683 1.349 . S
C684 C696 1.349 . S
C685 C683 1.327 . S
C685 C701 1.429 . S
C685 H707 0.950 . S
C686 H682 0.949 . S
C686 C694 1.574 . S
C686 C702 1.368 . S
H687 C695 0.950 . S
H688 C693 0.950 . S
H689 C694 0.949 . S
H690 C696 0.950 . S
H691 C697 0.950 . S
H692 C698 0.949 . S
C693 H688 0.950 . S
C693 C695 1.327 . S
C693 C699 1.429 . S
C694 C686 1.574 . S
C694 H689 0.949 . S
C694 C700 1.368 . S
C695 C679 1.349 . S
C695 H687 0.950 . S
C695 C693 1.327 . S
C696 C684 1.349 . S
C696 H690 0.950 . S
C696 C697 1.327 . S
C697 H691 0.950 . S
C697 C696 1.327 . S
C697 C701 1.429 . S
C698 C681 1.574 . S
C698 H692 0.949 . S
C698 C702 1.368 . S
C699 C680 1.429 . S
C699 C693 1.429 . S
C699 C700 1.523 . S
C700 C681 1.368 . S
C700 C694 1.368 . S
C700 C699 1.523 . S
C701 C685 1.429 . S
C701 C697 1.429 . S
C701 C702 1.523 . S
C702 C686 1.368 . S
C702 C698 1.368 . S
C702 C701 1.523 . S
H703 C678 0.950 . S
H704 C680 0.950 . S
H705 C681 0.949 . S
H706 C683 0.950 . S
H707 C685 0.950 . S
C708 C709 1.349 . S
C708 C710 1.327 . S
C708 H733 0.950 . S
C709 C708 1.349 . S
C709 C725 1.349 . S
C710 C708 1.327 . S
C710 C729 1.429 . S
C710 H734 0.950 . S
C711 C728 1.574 . S
C711 C730 1.368 . S
C711 H735 0.949 . S
H712 C716 0.949 . S
C713 C714 1.349 . S
C713 C715 1.327 . S
C713 H736 0.950 . S
C714 C713 1.349 . S
C714 C726 1.349 . S
C715 C713 1.327 . S
C715 C731 1.429 . S
C715 H737 0.950 . S
C716 H712 0.949 . S
C716 C724 1.574 . S
C716 C732 1.368 . S
H717 C725 0.950 . S
H718 C723 0.950 . S
H719 C724 0.949 . S
H720 C726 0.950 . S
H721 C727 0.950 . S
H722 C728 0.949 . S
C723 H718 0.950 . S
C723 C725 1.327 . S
C723 C729 1.429 . S
C724 C716 1.574 . S
C724 H719 0.949 . S
C724 C730 1.368 . S
C725 C709 1.349 . S
C725 H717 0.950 . S
C725 C723 1.327 . S
C726 C714 1.349 . S
C726 H720 0.950 . S
C726 C727 1.327 . S
C727 H721 0.950 . S
C727 C726 1.327 . S
C727 C731 1.429 . S
C728 C711 1.574 . S
C728 H722 0.949 . S
C728 C732 1.368 . S
C729 C710 1.429 . S
C729 C723 1.429 . S
C729 C730 1.523 . S
C730 C711 1.368 . S
C730 C724 1.368 . S
C730 C729 1.523 . S
C731 C715 1.429 . S
C731 C727 1.429 . S
C731 C732 1.523 . S
C732 C716 1.368 . S
C732 C728 1.368 . S
C732 C731 1.523 . S
H733 C708 0.950 . S
H734 C710 0.950 . S
H735 C711 0.949 . S
H736 C713 0.950 . S
H737 C715 0.950 . S
C738 C739 1.349 1_554 S
C738 C740 1.327 . S
C738 H763 0.950 . S
C739 C738 1.349 1_556 S
C739 C755 1.349 . S
C740 C738 1.327 . S
C740 C759 1.429 1_554 S
C740 H764 0.950 . S
C741 C758 1.574 . S
C741 C760 1.368 . S
C741 H765 0.949 . S
H742 C746 0.949 . S
C743 C744 1.349 . S
C743 C745 1.327 . S
C743 H766 0.950 . S
C744 C743 1.349 . S
C744 C756 1.349 1_556 S
C745 C743 1.327 . S
C745 C761 1.429 . S
C745 H767 0.950 . S
C746 H742 0.949 . S
C746 C754 1.574 . S
C746 C762 1.368 1_554 S
H747 C755 0.950 . S
H748 C753 0.950 . S
H749 C754 0.949 . S
H750 C756 0.950 . S
H751 C757 0.950 . S
H752 C758 0.949 . S
C753 H748 0.950 . S
C753 C755 1.327 . S
C753 C759 1.429 . S
C754 C746 1.574 . S
C754 H749 0.949 . S
C754 C760 1.368 1_554 S
C755 C739 1.349 . S
C755 H747 0.950 . S
C755 C753 1.327 . S
C756 C744 1.349 1_554 S
C756 H750 0.950 . S
C756 C757 1.327 . S
C757 H751 0.950 . S
C757 C756 1.327 . S
C757 C761 1.429 1_554 S
C758 C741 1.574 . S
C758 H752 0.949 . S
C758 C762 1.368 . S
C759 C740 1.429 1_556 S
C759 C753 1.429 . S
C759 C760 1.523 . S
C760 C741 1.368 . S
C760 C754 1.368 1_556 S
C760 C759 1.523 . S
C761 C745 1.429 . S
C761 C757 1.429 1_556 S
C761 C762 1.523 . S
C762 C746 1.368 1_556 S
C762 C758 1.368 . S
C762 C761 1.523 . S
H763 C738 0.950 . S
H764 C740 0.950 . S
H765 C741 0.949 . S
H766 C743 0.950 . S
H767 C745 0.950 . S
C768 C769 1.349 1_554 S
C768 C770 1.327 . S
C768 H793 0.950 . S
C769 C768 1.349 1_556 S
C769 C785 1.349 . S
C770 C768 1.327 . S
C770 C789 1.429 1_554 S
C770 H794 0.950 . S
C771 C788 1.574 . S
C771 C790 1.368 . S
C771 H795 0.949 . S
H772 C776 0.949 . S
C773 C774 1.349 . S
C773 C775 1.327 . S
C773 H796 0.950 . S
C774 C773 1.349 . S
C774 C786 1.349 1_556 S
C775 C773 1.327 . S
C775 C791 1.429 . S
C775 H797 0.950 . S
C776 H772 0.949 . S
C776 C784 1.574 . S
C776 C792 1.368 1_554 S
H777 C785 0.950 . S
H778 C783 0.950 . S
H779 C784 0.949 . S
H780 C786 0.950 . S
H781 C787 0.950 . S
H782 C788 0.949 . S
C783 H778 0.950 . S
C783 C785 1.327 . S
C783 C789 1.429 . S
C784 C776 1.574 . S
C784 H779 0.949 . S
C784 C790 1.368 1_554 S
C785 C769 1.349 . S
C785 H777 0.950 . S
C785 C783 1.327 . S
C786 C774 1.349 1_554 S
C786 H780 0.950 . S
C786 C787 1.327 . S
C787 H781 0.950 . S
C787 C786 1.327 . S
C787 C791 1.429 1_554 S
C788 C771 1.574 . S
C788 H782 0.949 . S
C788 C792 1.368 . S
C789 C770 1.429 1_556 S
C789 C783 1.429 . S
C789 C790 1.523 . S
C790 C771 1.368 . S
C790 C784 1.368 1_556 S
C790 C789 1.523 . S
C791 C775 1.429 . S
C791 C787 1.429 1_556 S
C791 C792 1.523 . S
C792 C776 1.368 1_556 S
C792 C788 1.368 . S
C792 C791 1.523 . S
H793 C768 0.950 . S
H794 C770 0.950 . S
H795 C771 0.949 . S
H796 C773 0.950 . S
H797 C775 0.950 . S
C798 C799 1.349 1_554 S
C798 C800 1.327 . S
C798 H823 0.950 . S
C799 C798 1.349 1_556 S
C799 C815 1.349 . S
C800 C798 1.327 . S
C800 C819 1.429 1_554 S
C800 H824 0.950 . S
C801 C818 1.574 . S
C801 C820 1.368 . S
C801 H825 0.949 . S
H802 C806 0.949 . S
C803 C804 1.349 . S
C803 C805 1.327 . S
C803 H826 0.950 . S
C804 C803 1.349 . S
C804 C816 1.349 1_556 S
C805 C803 1.327 . S
C805 C821 1.429 . S
C805 H827 0.950 . S
C806 H802 0.949 . S
C806 C814 1.574 . S
C806 C822 1.368 1_554 S
H807 C815 0.950 . S
H808 C813 0.950 . S
H809 C814 0.949 . S
H810 C816 0.950 . S
H811 C817 0.950 . S
H812 C818 0.949 . S
C813 H808 0.950 . S
C813 C815 1.327 . S
C813 C819 1.429 . S
C814 C806 1.574 . S
C814 H809 0.949 . S
C814 C820 1.368 1_554 S
C815 C799 1.349 . S
C815 H807 0.950 . S
C815 C813 1.327 . S
C816 C804 1.349 1_554 S
C816 H810 0.950 . S
C816 C817 1.327 . S
C817 H811 0.950 . S
C817 C816 1.327 . S
C817 C821 1.429 1_554 S
C818 C801 1.574 . S
C818 H812 0.949 . S
C818 C822 1.368 . S
C819 C800 1.429 1_556 S
C819 C813 1.429 . S
C819 C820 1.523 . S
C820 C801 1.368 . S
C820 C814 1.368 1_556 S
C820 C819 1.523 . S
C821 C805 1.429 . S
C821 C817 1.429 1_556 S
C821 C822 1.523 . S
C822 C806 1.368 1_556 S
C822 C818 1.368 . S
C822 C821 1.523 . S
H823 C798 0.950 . S
H824 C800 0.950 . S
H825 C801 0.949 . S
H826 C803 0.950 . S
H827 C805 0.950 . S
C828 C829 1.349 . S
C828 C830 1.327 . S
C828 H853 0.950 . S
C829 C828 1.349 . S
C829 C845 1.349 . S
C830 C828 1.327 . S
C830 C849 1.429 . S
C830 H854 0.950 . S
C831 C848 1.574 . S
C831 C850 1.368 . S
C831 H855 0.949 . S
H832 C836 0.949 . S
C833 C834 1.349 . S
C833 C835 1.327 . S
C833 H856 0.950 . S
C834 C833 1.349 . S
C834 C846 1.349 . S
C835 C833 1.327 . S
C835 C851 1.429 . S
C835 H857 0.950 . S
C836 H832 0.949 . S
C836 C844 1.574 . S
C836 C852 1.368 . S
H837 C845 0.950 . S
H838 C843 0.950 . S
H839 C844 0.949 . S
H840 C846 0.950 . S
H841 C847 0.950 . S
H842 C848 0.949 . S
C843 H838 0.950 . S
C843 C845 1.327 . S
C843 C849 1.429 . S
C844 C836 1.574 . S
C844 H839 0.949 . S
C844 C850 1.368 . S
C845 C829 1.349 . S
C845 H837 0.950 . S
C845 C843 1.327 . S
C846 C834 1.349 . S
C846 H840 0.950 . S
C846 C847 1.327 . S
C847 H841 0.950 . S
C847 C846 1.327 . S
C847 C851 1.429 . S
C848 C831 1.574 . S
C848 H842 0.949 . S
C848 C852 1.368 . S
C849 C830 1.429 . S
C849 C843 1.429 . S
C849 C850 1.523 . S
C850 C831 1.368 . S
C850 C844 1.368 . S
C850 C849 1.523 . S
C851 C835 1.429 . S
C851 C847 1.429 . S
C851 C852 1.523 . S
C852 C836 1.368 . S
C852 C848 1.368 . S
C852 C851 1.523 . S
H853 C828 0.950 . S
H854 C830 0.950 . S
H855 C831 0.949 . S
H856 C833 0.950 . S
H857 C835 0.950 . S
C858 C859 1.349 . S
C858 C860 1.327 . S
C858 H883 0.950 . S
C859 C858 1.349 . S
C859 C875 1.349 . S
C860 C858 1.327 . S
C860 C879 1.429 . S
C860 H884 0.950 . S
C861 C878 1.574 . S
C861 C880 1.368 . S
C861 H885 0.949 . S
H862 C866 0.949 . S
C863 C864 1.349 . S
C863 C865 1.327 . S
C863 H886 0.950 . S
C864 C863 1.349 . S
C864 C876 1.349 . S
C865 C863 1.327 . S
C865 C881 1.429 . S
C865 H887 0.950 . S
C866 H862 0.949 . S
C866 C874 1.574 . S
C866 C882 1.368 . S
H867 C875 0.950 . S
H868 C873 0.950 . S
H869 C874 0.949 . S
H870 C876 0.950 . S
H871 C877 0.950 . S
H872 C878 0.949 . S
C873 H868 0.950 . S
C873 C875 1.327 . S
C873 C879 1.429 . S
C874 C866 1.574 . S
C874 H869 0.949 . S
C874 C880 1.368 . S
C875 C859 1.349 . S
C875 H867 0.950 . S
C875 C873 1.327 . S
C876 C864 1.349 . S
C876 H870 0.950 . S
C876 C877 1.327 . S
C877 H871 0.950 . S
C877 C876 1.327 . S
C877 C881 1.429 . S
C878 C861 1.574 . S
C878 H872 0.949 . S
C878 C882 1.368 . S
C879 C860 1.429 . S
C879 C873 1.429 . S
C879 C880 1.523 . S
C880 C861 1.368 . S
C880 C874 1.368 . S
C880 C879 1.523 . S
C881 C865 1.429 . S
C881 C877 1.429 . S
C881 C882 1.523 . S
C882 C866 1.368 . S
C882 C878 1.368 . S
C882 C881 1.523 . S
H883 C858 0.950 . S
H884 C860 0.950 . S
H885 C861 0.949 . S
H886 C863 0.950 . S
H887 C865 0.950 . S
C888 C889 1.349 . S
C888 C890 1.327 . S
C888 H913 0.950 . S
C889 C888 1.349 . S
C889 C905 1.349 . S
C890 C888 1.327 . S
C890 C909 1.429 . S
C890 H914 0.950 . S
C891 C908 1.574 . S
C891 C910 1.368 . S
C891 H915 0.949 . S
H892 C896 0.949 . S
C893 C894 1.349 . S
C893 C895 1.327 . S
C893 H916 0.950 . S
C894 C893 1.349 . S
C894 C906 1.349 . S
C895 C893 1.327 . S
C895 C911 1.429 . S
C895 H917 0.950 . S
C896 H892 0.949 . S
C896 C904 1.574 . S
C896 C912 1.368 . S
H897 C905 0.950 . S
H898 C903 0.950 . S
H899 C904 0.949 . S
H900 C906 0.950 . S
H901 C907 0.950 . S
H902 C908 0.949 . S
C903 H898 0.950 . S
C903 C905 1.327 . S
C903 C909 1.429 . S
C904 C896 1.574 . S
C904 H899 0.949 . S
C904 C910 1.368 . S
C905 C889 1.349 . S
C905 H897 0.950 . S
C905 C903 1.327 . S
C906 C894 1.349 . S
C906 H900 0.950 . S
C906 C907 1.327 . S
C907 H901 0.950 . S
C907 C906 1.327 . S
C907 C911 1.429 . S
C908 C891 1.574 . S
C908 H902 0.949 . S
C908 C912 1.368 . S
C909 C890 1.429 . S
C909 C903 1.429 . S
C909 C910 1.523 . S
C910 C891 1.368 . S
C910 C904 1.368 . S
C910 C909 1.523 . S
C911 C895 1.429 . S
C911 C907 1.429 . S
C911 C912 1.523 . S
C912 C896 1.368 . S
C912 C908 1.368 . S
C912 C911 1.523 . S
H913 C888 0.950 . S
H914 C890 0.950 . S
H915 C891 0.949 . S
H916 C893 0.950 . S
H917 C895 0.950 . S
C918 C919 1.349 . S
C918 C920 1.327 1_455 S
C918 H943 0.950 . S
C919 C918 1.349 . S
C919 C935 1.349 . S
C920 C918 1.327 1_655 S
C920 C939 1.429 . S
C920 H944 0.950 . S
C921 C938 1.574 . S
C921 C940 1.368 . S
C921 H945 0.949 . S
H922 C926 0.949 . S
C923 C924 1.349 . S
C923 C925 1.327 . S
C923 H946 0.950 . S
C924 C923 1.349 . S
C924 C936 1.349 . S
C925 C923 1.327 . S
C925 C941 1.429 . S
C925 H947 0.950 . S
C926 H922 0.949 . S
C926 C934 1.574 . S
C926 C942 1.368 . S
H927 C935 0.950 . S
H928 C933 0.950 . S
H929 C934 0.949 . S
H930 C936 0.950 . S
H931 C937 0.950 . S
H932 C938 0.949 . S
C933 H928 0.950 . S
C933 C935 1.327 . S
C933 C939 1.429 1_455 S
C934 C926 1.574 . S
C934 H929 0.949 . S
C934 C940 1.368 . S
C935 C919 1.349 . S
C935 H927 0.950 . S
C935 C933 1.327 . S
C936 C924 1.349 . S
C936 H930 0.950 . S
C936 C937 1.327 . S
C937 H931 0.950 . S
C937 C936 1.327 . S
C937 C941 1.429 . S
C938 C921 1.574 . S
C938 H932 0.949 . S
C938 C942 1.368 . S
C939 C920 1.429 . S
C939 C933 1.429 1_655 S
C939 C940 1.523 . S
C940 C921 1.368 . S
C940 C934 1.368 . S
C940 C939 1.523 . S
C941 C925 1.429 . S
C941 C937 1.429 . S
C941 C942 1.523 . S
C942 C926 1.368 . S
C942 C938 1.368 . S
C942 C941 1.523 . S
H943 C918 0.950 . S
H944 C920 0.950 . S
H945 C921 0.949 . S
H946 C923 0.950 . S
H947 C925 0.950 . S
C948 C949 1.349 . S
C948 C950 1.327 . S
C948 H973 0.950 . S
C949 C948 1.349 . S
C949 C965 1.349 . S
C950 C948 1.327 . S
C950 C969 1.429 1_565 S
C950 H974 0.950 . S
C951 C968 1.574 . S
C951 C970 1.368 . S
C951 H975 0.949 . S
H952 C956 0.949 . S
C953 C954 1.349 . S
C953 C955 1.327 . S
C953 H976 0.950 . S
C954 C953 1.349 . S
C954 C966 1.349 . S
C955 C953 1.327 . S
C955 C971 1.429 . S
C955 H977 0.950 . S
C956 H952 0.949 . S
C956 C964 1.574 . S
C956 C972 1.368 . S
H957 C965 0.950 . S
H958 C963 0.950 . S
H959 C964 0.949 . S
H960 C966 0.950 . S
H961 C967 0.950 . S
H962 C968 0.949 . S
C963 H958 0.950 . S
C963 C965 1.327 1_545 S
C963 C969 1.429 . S
C964 C956 1.574 . S
C964 H959 0.949 . S
C964 C970 1.368 . S
C965 C949 1.349 . S
C965 H957 0.950 . S
C965 C963 1.327 1_565 S
C966 C954 1.349 . S
C966 H960 0.950 . S
C966 C967 1.327 . S
C967 H961 0.950 . S
C967 C966 1.327 . S
C967 C971 1.429 . S
C968 C951 1.574 . S
C968 H962 0.949 . S
C968 C972 1.368 . S
C969 C950 1.429 1_545 S
C969 C963 1.429 . S
C969 C970 1.523 . S
C970 C951 1.368 . S
C970 C964 1.368 . S
C970 C969 1.523 . S
C971 C955 1.429 . S
C971 C967 1.429 . S
C971 C972 1.523 . S
C972 C956 1.368 . S
C972 C968 1.368 . S
C972 C971 1.523 . S
H973 C948 0.950 . S
H974 C950 0.950 . S
H975 C951 0.949 . S
H976 C953 0.950 . S
H977 C955 0.950 . S
C978 C979 1.349 . S
C978 C980 1.327 1_565 S
C978 H1003 0.950 . S
C979 C978 1.349 . S
C979 C995 1.349 . S
C980 C978 1.327 1_545 S
C980 C999 1.429 . S
C980 H1004 0.950 . S
C981 C998 1.574 . S
C981 C1000 1.368 . S
C981 H1005 0.949 . S
H982 C986 0.949 . S
C983 C984 1.349 . S
C983 C985 1.327 . S
C983 H1006 0.950 . S
C984 C983 1.349 . S
C984 C996 1.349 . S
C985 C983 1.327 . S
C985 C1001 1.429 1_455 S
C985 H1007 0.950 . S
C986 H982 0.949 . S
C986 C994 1.574 . S
C986 C1002 1.368 . S
H987 C995 0.950 . S
H988 C993 0.950 . S
H989 C994 0.949 . S
H990 C996 0.950 . S
H991 C997 0.950 . S
H992 C998 0.949 . S
C993 H988 0.950 . S
C993 C995 1.327 . S
C993 C999 1.429 1_565 S
C994 C986 1.574 . S
C994 H989 0.949 . S
C994 C1000 1.368 . S
C995 C979 1.349 . S
C995 H987 0.950 . S
C995 C993 1.327 . S
C996 C984 1.349 . S
C996 H990 0.950 . S
C996 C997 1.327 1_455 S
C997 H991 0.950 . S
C997 C996 1.327 1_655 S
C997 C1001 1.429 . S
C998 C981 1.574 . S
C998 H992 0.949 . S
C998 C1002 1.368 . S
C999 C980 1.429 . S
C999 C993 1.429 1_545 S
C999 C1000 1.523 . S
C1000 C981 1.368 . S
C1000 C994 1.368 . S
C1000 C999 1.523 . S
C1001 C985 1.429 1_655 S
C1001 C997 1.429 . S
C1001 C1002 1.523 . S
C1002 C986 1.368 . S
C1002 C998 1.368 . S
C1002 C1001 1.523 . S
H1003 C978 0.950 . S
H1004 C980 0.950 . S
H1005 C981 0.949 . S
H1006 C983 0.950 . S
H1007 C985 0.950 . S
C199 C7 1.060 . S
C204 C162 1.077 . S
C229 C29 1.060 . S
C234 C184 1.077 . S
C259 C140 1.077 . S
C264 C51 1.060 . S
C289 C158 1.077 . S
C294 C49 1.060 . S
C319 C180 1.077 . S
C324 C5 1.060 . S
C349 C136 1.077 . S
C354 C27 1.060 . S
C379 C30 1.077 . S
C384 C73 1.060 . S
C409 C95 1.060 . S
C414 C52 1.077 . S
C439 C8 1.077 . S
C444 C117 1.060 . S
C469 C26 1.077 . S
C474 C115 1.060 . S
C499 C71 1.060 . S
C504 C48 1.077 . S
C529 C4 1.077 . S
C534 C93 1.060 . S
C559 C139 1.060 . S
C564 C96 1.077 . S
C589 C118 1.077 . S
C594 C161 1.060 . S
C619 C183 1.060 . S
C624 C74 1.076 . S
C649 C181 1.060 . S
C654 C92 1.077 . S
C679 C114 1.077 . S
C684 C137 1.060 . S
C709 C70 1.077 . S
C714 C159 1.060 . S
C739 C9 1.005 . S
C744 C28 1.005 . S
C769 C50 1.005 . S
C774 C31 1.005 . S
C799 C53 1.005 . S
C804 C6 1.005 . S
C829 C94 1.005 . S
C834 C75 1.005 . S
C859 C116 1.005 . S
C864 C97 1.005 . S
C889 C119 1.005 . S
C894 C72 1.005 . S
C919 C160 1.005 . S
C924 C141 1.005 . S
C949 C163 1.005 . S
C954 C182 1.005 . S
C979 C138 1.005 . S
C984 C185 1.005 . S
