# Generated by pormake.
# Topology sxb, (6)-cn, num edge types: 1
# Building blocks:
#     Node 0, Type 0, BuildingBlock: JUFBIX_clean_sbu_0, # of connection points: 6
#     Node 1, Type 0, BuildingBlock: JUFBIX_clean_sbu_0, # of connection points: 6
#     Node 2, Type 0, BuildingBlock: JUFBIX_clean_sbu_0, # of connection points: 6
#     Node 3, Type 0, BuildingBlock: JUFBIX_clean_sbu_0, # of connection points: 6
#     Edge 4, Type (0, 0), BuildingBlock: UVAHIK_clean_linker_0, # of connection points: 2
#     Edge 5, Type (0, 0), BuildingBlock: UVAHIK_clean_linker_0, # of connection points: 2
#     Edge 6, Type (0, 0), BuildingBlock: UVAHIK_clean_linker_0, # of connection points: 2
#     Edge 7, Type (0, 0), BuildingBlock: UVAHIK_clean_linker_0, # of connection points: 2
#     Edge 8, Type (0, 0), BuildingBlock: UVAHIK_clean_linker_0, # of connection points: 2
#     Edge 9, Type (0, 0), BuildingBlock: UVAHIK_clean_linker_0, # of connection points: 2
#     Edge 10, Type (0, 0), BuildingBlock: UVAHIK_clean_linker_0, # of connection points: 2
#     Edge 11, Type (0, 0), BuildingBlock: UVAHIK_clean_linker_0, # of connection points: 2
#     Edge 12, Type (0, 0), BuildingBlock: UVAHIK_clean_linker_0, # of connection points: 2
#     Edge 13, Type (0, 0), BuildingBlock: UVAHIK_clean_linker_0, # of connection points: 2
#     Edge 14, Type (0, 0), BuildingBlock: UVAHIK_clean_linker_0, # of connection points: 2
#     Edge 15, Type (0, 0), BuildingBlock: UVAHIK_clean_linker_0, # of connection points: 2
# Relax obj value: 0.067
# Max RMSD: 0.087
# Mean RMSD: 0.087
data_MOF--net-sxb--node1-JUFBIX_clean_sbu_0--edge1-UVAHIK_clean_linker_0
_symmetry_space_group_name_H-M    P1
_symmetry_Int_Tables_number       1
_symmetry_cell_setting            triclinic
loop_
_symmetry_equiv_pos_as_xyz
'x, y, z'
_cell_length_a     18.676537
_cell_length_b     44.741777
_cell_length_c     38.423687
_cell_angle_alpha  89.835165
_cell_angle_beta   93.853077
_cell_angle_gamma 90.113307
loop_
_atom_site_label
_atom_site_type_symbol
_atom_site_fract_x
_atom_site_fract_y
_atom_site_fract_z
_atom_type_partial_charge
Co0 Co -0.01781 1.00373 0.00792 0.0
C1 C 0.01257 0.0343 0.07096 0.0
Co2 Co 0.97629 0.05365 1.00447 0.0
C3 C 0.03588 0.94181 1.00394 0.0
C4 C 0.94304 0.94565 0.03324 0.0
N5 N -0.01307 0.96188 0.01402 0.0
N6 N 0.02432 0.91389 0.01635 0.0
C7 C 0.96538 0.91644 0.03453 0.0
H8 H 0.08069 0.94778 0.98887 0.0
H9 H 0.89849 0.9545 0.04651 0.0
C10 C 0.94602 1.02306 0.94141 0.0
N11 N 0.97168 0.09542 0.99848 0.0
C12 C 0.92553 0.11569 0.01064 0.0
C13 C 0.01307 0.11153 0.97787 0.0
N14 N 0.93695 0.14367 0.99851 0.0
C15 C -0.00774 0.14097 0.97798 0.0
C16 C 0.10933 0.02996 0.99492 0.0
O17 O 0.95745 0.99944 0.95951 0.0
O18 O 0.951 0.04849 0.9562 0.0
O19 O 0.07322 0.05386 0.99577 0.0
O20 O 0.07916 1.00493 0.99919 0.0
O21 O 0.00152 0.05793 0.05285 0.0
H22 H 0.05454 0.10239 0.96273 0.0
H23 H 0.88387 0.11001 0.02777 0.0
O24 O 0.00706 1.00886 0.05621 0.0
O25 O 0.88444 1.00365 0.01712 0.0
O26 O 0.88073 0.05268 0.014 0.0
C27 C 0.85068 1.02799 0.02003 0.0
H28 H 0.94009 0.89853 0.0482 0.0
H29 H 0.01443 0.15881 0.96292 0.0
Co30 Co 0.97795 1.00359 0.50436 0.0
C31 C 0.01273 0.03269 0.44325 0.0
Co32 Co -0.01847 0.05331 0.50784 0.0
C33 C 0.92286 0.94226 0.50672 0.0
C34 C 0.02721 0.94502 0.4871 0.0
N35 N 0.97538 0.96194 0.49979 0.0
N36 N 0.94009 0.91373 0.49891 0.0
C37 C 0.00589 0.91558 0.48657 0.0
H38 H 0.87298 0.94881 0.51729 0.0
H39 H 0.077 0.95363 0.47821 0.0
C40 C 0.94677 1.02423 0.56897 0.0
N41 N -0.01591 0.09497 0.51246 0.0
C42 C 0.03725 0.11461 0.50638 0.0
C43 C 0.93192 0.11186 0.52489 0.0
N44 N 0.02036 0.14304 0.5148 0.0
C45 C 0.95382 0.14122 0.52629 0.0
C46 C 0.8493 0.03073 0.48579 0.0
O47 O 0.9533 1.00048 0.55133 0.0
O48 O 0.9566 0.0495 0.55475 0.0
O49 O 0.88385 0.05471 0.49264 0.0
O50 O 0.88086 1.0057 0.48931 0.0
O51 O 0.00624 0.05644 0.46091 0.0
H52 H 0.88138 0.1033 0.53293 0.0
H53 H 0.0881 0.108 0.49687 0.0
O54 O 0.00282 1.00741 0.45744 0.0
O55 O 0.07559 1.00217 0.51949 0.0
O56 O 0.07867 0.05116 0.5229 0.0
C57 C 0.11022 1.02613 0.52632 0.0
H58 H 0.03599 0.89707 0.47691 0.0
H59 H 0.92275 0.15978 0.53509 0.0
Co60 Co 0.48224 0.50403 0.00532 0.0
C61 C 0.45491 0.53435 0.06647 0.0
Co62 Co 0.47749 0.55369 1.00037 0.0
C63 C 0.5375 0.44271 1.00396 0.0
C64 C 0.4362 0.44592 0.02655 0.0
N65 N 0.4859 0.4625 0.01146 0.0
N66 N 0.52177 0.41441 0.01376 0.0
C67 C 0.45787 0.41657 0.02797 0.0
H68 H 0.58572 0.44903 0.99164 0.0
H69 H 0.38776 0.45473 0.03655 0.0
C70 C 0.50452 0.52339 0.93919 0.0
N71 N 0.47379 0.59523 0.99419 0.0
C72 C 0.42138 0.6149 1.00094 0.0
C73 C 0.52373 0.61186 0.97931 0.0
N74 N 0.43654 0.64308 0.99055 0.0
C75 C 0.50119 0.64108 0.97707 0.0
C76 C 0.61129 0.53201 0.0198 0.0
O77 O 0.50118 0.49995 0.95783 0.0
O78 O 0.49688 0.54889 0.95301 0.0
O79 O 0.57579 0.55572 0.01305 0.0
O80 O 0.5802 0.50678 0.01774 0.0
O81 O 0.45812 0.55778 0.0478 0.0
H82 H 0.573 0.60317 0.97007 0.0
H83 H 0.3721 0.60848 0.01227 0.0
O84 O 0.46309 0.50884 0.05273 0.0
O85 O 0.38366 0.50199 0.99259 0.0
O86 O 0.37991 0.55093 0.98761 0.0
C87 C 0.34879 0.52574 0.98514 0.0
H88 H 0.4294 0.3984 0.03957 0.0
H89 H 0.53043 0.65945 0.96631 0.0
Co90 Co 0.47714 0.50354 0.50071 0.0
C91 C 0.50527 0.53337 0.43929 0.0
Co92 Co 0.48175 0.55322 0.50508 0.0
C93 C 0.42095 0.44227 0.50201 0.0
C94 C 0.52494 0.44512 0.48202 0.0
N95 N 0.47378 0.46193 0.49544 0.0
N96 N 0.43707 0.4139 0.49297 0.0
C97 C 0.5028 0.41579 0.48055 0.0
H98 H 0.37087 0.44884 0.51235 0.0
H99 H 0.57496 0.45371 0.47337 0.0
C100 C 0.45331 0.52336 0.56645 0.0
N101 N 0.48511 0.59482 0.51028 0.0
C102 C 0.53718 0.61451 0.50276 0.0
C103 C 0.43437 0.61167 0.524 0.0
N104 N 0.52067 0.64298 0.51115 0.0
C105 C 0.45585 0.6411 0.5245 0.0
C106 C 0.34842 0.5311 0.48482 0.0
O107 O 0.45694 0.49987 0.54808 0.0
O108 O 0.46168 0.54884 0.55247 0.0
O109 O 0.38336 0.55492 0.49192 0.0
O110 O 0.37959 0.50597 0.48756 0.0
O111 O 0.50161 0.55688 0.45763 0.0
H112 H 0.38521 0.60303 0.53355 0.0
H113 H 0.58618 0.60803 0.4913 0.0
O114 O 0.49735 0.50791 0.45336 0.0
O115 O 0.57541 0.50186 0.5139 0.0
O116 O 0.57946 0.55082 0.51804 0.0
C117 C 0.61061 0.52567 0.52067 0.0
H118 H 0.5332 0.39731 0.47108 0.0
H119 H 0.42658 0.65956 0.53482 0.0
C120 C 0.40002 0.69324 0.96821 0.0
C121 C 0.39278 0.66971 0.99214 0.0
C122 C 0.35963 0.71944 0.97012 0.0
C123 C 0.1971 0.75097 0.0076 0.0
H124 H 0.28708 0.82692 0.9884 0.0
C125 C 0.06372 0.86361 0.03733 0.0
C126 C 0.06723 0.88715 0.01303 0.0
C127 C 0.10325 0.83738 0.03398 0.0
C128 C 0.26079 0.8059 0.99344 0.0
H129 H 0.33651 0.6555 0.03683 0.0
H130 H 0.26638 0.70132 0.04045 0.0
H131 H 0.35533 0.78076 0.98471 0.0
H132 H 0.11671 0.9012 0.96622 0.0
H133 H 0.18625 0.85538 0.96049 0.0
H134 H 0.10279 0.77618 0.01666 0.0
C135 C 0.30276 0.69933 0.0198 0.0
C136 C 0.29998 0.77933 0.99131 0.0
C137 C 0.34309 0.67299 0.01779 0.0
C138 C 0.11279 0.88377 0.98557 0.0
C139 C 0.15272 0.85743 0.98228 0.0
C140 C 0.15803 0.77753 0.00984 0.0
C141 C 0.31076 0.72304 0.9961 0.0
C142 C 0.26878 0.75143 0.99841 0.0
C143 C 0.148 0.83377 0.00633 0.0
C144 C 0.18935 0.80541 1.00291 0.0
H145 H 0.43648 0.69135 0.94762 0.0
H146 H 0.36628 0.73678 0.95088 0.0
H147 H 0.17063 0.72999 0.01263 0.0
H148 H 0.03097 0.86545 0.05937 0.0
H149 H 0.0994 0.82002 0.05347 0.0
C150 C 0.6392 0.38894 0.00865 0.0
C151 C 0.56439 0.38751 0.01115 0.0
C152 C 0.68028 0.36271 0.0078 0.0
C153 C 0.67569 0.28196 0.03104 0.0
H154 H 0.83042 0.27536 0.96924 0.0
C155 C 0.82276 0.16956 0.00924 0.0
C156 C 0.89642 0.17067 1.00375 0.0
C157 C 0.78274 0.19598 0.01128 0.0
C158 C 0.7881 0.27688 0.98707 0.0
H159 H 0.47443 0.35691 0.01326 0.0
H160 H 0.54563 0.31161 0.01198 0.0
H161 H 0.76112 0.3214 0.97012 0.0
H162 H -0.01378 0.2006 0.99793 0.0
H163 H 0.91731 0.24638 1.00203 0.0
H164 H 0.70279 0.23753 0.04814 0.0
C165 C 0.57288 0.33297 0.01139 0.0
C166 C 0.74819 0.30338 0.98751 0.0
C167 C 0.5319 0.3591 0.01212 0.0
C168 C 0.92937 0.19886 1.00149 0.0
C169 C 0.88962 0.22519 1.00371 0.0
C170 C 0.71578 0.2555 0.03071 0.0
C171 C 0.64772 0.33435 0.0095 0.0
C172 C 0.69125 0.30628 0.00942 0.0
C173 C 0.81545 0.22422 0.00809 0.0
C174 C 0.77259 0.25252 0.00868 0.0
H175 H 0.66641 0.41029 0.00819 0.0
H176 H 0.73787 0.36468 0.00661 0.0
H177 H 0.63297 0.2835 0.04866 0.0
H178 H 0.79547 0.14828 0.01076 0.0
H179 H 0.72568 0.19421 0.01433 0.0
C180 C 0.0519 0.19447 0.53456 0.0
C181 C 0.06405 0.16979 0.51308 0.0
C182 C 0.09237 0.22071 0.53246 0.0
C183 C 0.26263 0.25086 0.50146 0.0
H184 H 0.16721 0.32725 0.50904 0.0
C185 C 0.40484 0.36249 0.47333 0.0
C186 C 0.39341 0.38717 0.49496 0.0
C187 C 0.36444 0.33627 0.47567 0.0
C188 C 0.19499 0.30614 0.50729 0.0
H189 H 0.12935 0.15364 0.47258 0.0
H190 H 0.19995 0.19945 0.46882 0.0
H191 H 0.09843 0.2811 0.51247 0.0
H192 H 0.32934 0.40327 0.53598 0.0
H193 H 0.25872 0.35749 0.54007 0.0
H194 H 0.35916 0.27592 0.49621 0.0
C195 C 0.15936 0.19835 0.48762 0.0
C196 C 0.15546 0.27958 0.50925 0.0
C197 C 0.11878 0.17201 0.48975 0.0
C198 C 0.33939 0.38493 0.51868 0.0
C199 C 0.29881 0.35861 0.52102 0.0
C200 C 0.30215 0.27742 0.49948 0.0
C201 C 0.1464 0.22316 0.50882 0.0
C202 C 0.18867 0.25152 0.50638 0.0
C203 C 0.31113 0.33381 0.49968 0.0
C204 C 0.26892 0.30547 0.50232 0.0
H205 H 0.01148 0.19351 0.55341 0.0
H206 H 0.08175 0.23899 0.54978 0.0
H207 H 0.29045 0.22976 0.49972 0.0
H208 H 0.44463 0.36344 0.45417 0.0
H209 H 0.37453 0.318 0.45826 0.0
C210 C 0.82191 0.88808 0.50076 0.0
C211 C 0.89732 0.88685 0.50175 0.0
C212 C 0.78092 0.86177 0.5018 0.0
C213 C 0.79186 0.77978 0.48603 0.0
H214 H 0.62149 0.7764 0.53814 0.0
C215 C 0.63861 0.66864 0.5084 0.0
C216 C 0.56326 0.66986 0.50792 0.0
C217 C 0.67949 0.69496 0.50715 0.0
C218 C 0.66843 0.77699 0.52307 0.0
H219 H -0.01167 0.8567 0.50607 0.0
H220 H 0.9174 0.8112 0.50795 0.0
H221 H 0.6912 0.82247 0.53736 0.0
H222 H 0.47214 0.69995 0.50422 0.0
H223 H 0.54286 0.74549 0.50185 0.0
H224 H 0.76907 0.73431 0.47171 0.0
C225 C 0.88963 0.8324 0.50554 0.0
C226 C 0.70851 0.80351 0.52264 0.0
C227 C 0.93048 0.85862 0.5045 0.0
C228 C 0.53 0.69807 0.50539 0.0
C229 C 0.57072 0.7243 0.50409 0.0
C230 C 0.75175 0.75326 0.48644 0.0
C231 C 0.81423 0.83352 0.50389 0.0
C232 C 0.7709 0.8053 0.50415 0.0
C233 C 0.64612 0.72321 0.50531 0.0
C234 C 0.68938 0.75146 0.50495 0.0
H235 H 0.79434 0.90931 0.49828 0.0
H236 H 0.72298 0.86357 0.50013 0.0
H237 H 0.83886 0.78038 0.471 0.0
H238 H 0.66619 0.64741 0.51069 0.0
H239 H 0.73742 0.69317 0.5085 0.0
C240 C 0.2214 0.05933 1.00184 0.0
C241 C 0.18736 0.03169 0.99557 0.0
C242 C 0.29441 0.06042 0.01103 0.0
C243 C 0.43909 1.013 0.04896 0.0
H244 H 0.56151 0.07351 0.01155 0.0
C245 C 0.7363 1.00198 0.02984 0.0
C246 C 0.77824 1.02799 0.03185 0.0
C247 C 0.66468 1.00325 0.03748 0.0
C248 C 0.52766 0.05697 0.02299 0.0
H249 H 0.20313 0.98387 0.99069 0.0
H250 H 0.33194 0.98597 0.00529 0.0
H251 H 0.43398 0.07425 0.99545 0.0
H252 H 0.78236 0.07459 0.04769 0.0
H253 H 0.65693 0.07674 0.06082 0.0
H254 H 0.53439 0.99477 0.07484 0.0
C255 C 0.30147 1.00657 1.00458 0.0
C256 C 0.45481 0.05729 0.01357 0.0
C257 C 0.22819 1.00542 0.99575 0.0
C258 C 0.75015 0.05447 0.04484 0.0
C259 C 0.67893 0.05565 0.05277 0.0
C260 C 0.51235 1.01252 0.05816 0.0
C261 C 0.33445 0.03395 0.01349 0.0
C262 C 0.41034 0.03488 0.02575 0.0
C263 C 0.63498 0.03048 0.0474 0.0
C264 C 0.55713 0.03411 0.04451 0.0
H265 H 0.19109 0.07996 1.00189 0.0
H266 H 0.31873 0.08181 0.01776 0.0
H267 H 0.40525 0.9959 0.05932 0.0
H268 H 0.75749 0.98119 0.02046 0.0
H269 H 0.63137 0.98361 0.03293 0.0
C270 C 0.2267 0.05203 0.5386 0.0
C271 C 0.18827 1.02528 0.53303 0.0
C272 C 0.30058 0.05249 0.53613 0.0
C273 C 0.46111 1.00616 0.52894 0.0
H274 H 0.51154 0.06751 0.46311 0.0
C275 C 0.73315 1.00477 0.47276 0.0
C276 C 0.77134 0.03153 0.47871 0.0
C277 C 0.65915 1.00424 0.47475 0.0
C278 C 0.49807 0.05035 0.48153 0.0
H279 H 0.19723 0.97749 0.52459 0.0
H280 H 0.32633 0.97841 0.51995 0.0
H281 H 0.39089 0.06632 0.48373 0.0
H282 H 0.76195 0.07928 0.48726 0.0
H283 H 0.63261 0.07824 0.49108 0.0
H284 H 0.5683 0.9902 0.52677 0.0
C285 C 0.29945 0.99897 0.5261 0.0
C286 C 0.42955 0.04983 0.4936 0.0
C287 C 0.22554 0.99848 0.52865 0.0
C288 C 0.73381 0.05828 0.48294 0.0
C289 C 0.65977 0.05772 0.485 0.0
C290 C 0.52962 1.00668 0.51687 0.0
C291 C 0.33676 1.02623 0.52808 0.0
C292 C 0.41069 1.02777 0.51745 0.0
C293 C 0.62262 0.03044 0.48268 0.0
C294 C 0.54852 0.02877 0.49307 0.0
H295 H 0.19932 0.07295 0.54261 0.0
H296 H 0.32882 0.07364 0.53855 0.0
H297 H 0.44769 0.98903 0.5474 0.0
H298 H 0.76075 0.98389 0.46884 0.0
H299 H 0.63106 0.98307 0.47209 0.0
C300 C 0.72549 0.56005 0.01843 0.0
C301 C 0.68934 0.53333 0.02505 0.0
C302 C 0.79889 0.55969 0.01463 0.0
C303 C 0.92856 0.50797 0.98401 0.0
H304 H 0.06731 0.56887 0.01346 0.0
C305 C 0.2332 0.49822 0.98222 0.0
C306 C 0.27162 0.52452 0.97639 0.0
C307 C 0.15871 0.49893 0.9811 0.0
C308 C 0.02854 0.55207 1.0045 0.0
H309 H 0.70188 0.48612 0.03736 0.0
H310 H 0.83072 0.48571 0.03126 0.0
H311 H 0.94667 0.5711 0.03369 0.0
H312 H 0.26343 0.57103 0.9602 0.0
H313 H 0.13295 0.57213 0.95825 0.0
H314 H 0.0111 0.48866 0.95532 0.0
C315 C 0.80188 0.50662 0.02793 0.0
C316 C 0.96005 0.5532 0.01635 0.0
C317 C 0.72847 0.50693 0.03159 0.0
C318 C 0.23483 0.55062 0.96564 0.0
C319 C 0.16045 0.55128 0.96442 0.0
C320 C -0.0028 0.50679 0.97223 0.0
C321 C 0.83669 0.53267 0.01768 0.0
C322 C 0.90987 0.53102 0.00642 0.0
C323 C 0.12237 0.52589 0.97402 0.0
C324 C 0.04761 0.52875 0.98257 0.0
H325 H 0.69653 0.58077 0.01359 0.0
H326 H 0.82485 0.58008 0.0068 0.0
H327 H 0.88992 0.49102 0.97534 0.0
H328 H 0.26051 0.47771 0.99012 0.0
H329 H 0.13016 0.47908 0.98862 0.0
C330 C 0.23331 0.55876 0.48212 0.0
C331 C 0.27092 0.5322 0.47699 0.0
C332 C 0.15901 0.55816 0.48256 0.0
C333 C 0.02887 0.50607 0.5104 0.0
H334 H 0.89024 0.56639 0.47916 0.0
C335 C 0.72522 0.4978 0.52173 0.0
C336 C 0.68848 0.52453 0.5271 0.0
C337 C 0.79906 0.49823 0.51928 0.0
C338 C 0.92892 0.5497 0.48846 0.0
H339 H 0.26096 0.48515 0.46366 0.0
H340 H 0.13076 0.48425 0.46432 0.0
H341 H 0.01103 0.56821 0.45867 0.0
H342 H 0.70009 0.57186 0.53871 0.0
H343 H 0.8296 0.57244 0.5348 0.0
H344 H 0.94706 0.48769 0.5404 0.0
C345 C 0.15887 0.50524 0.46882 0.0
C346 C -0.00263 0.55056 0.47644 0.0
C347 C 0.2331 0.5058 0.46846 0.0
C348 C 0.72717 0.55104 0.53384 0.0
C349 C 0.801 0.55143 0.5315 0.0
C350 C 0.96049 0.50523 0.52246 0.0
C351 C 0.12195 0.53104 0.47774 0.0
C352 C 0.0477 0.52877 0.48737 0.0
C353 C 0.83665 0.52535 0.5224 0.0
C354 C 0.91025 0.52711 0.51169 0.0
H355 H 0.26133 0.5795 0.48833 0.0
H356 H 0.13138 0.57834 0.48948 0.0
H357 H 0.06761 0.48944 0.51982 0.0
H358 H 0.69658 0.47699 0.51682 0.0
H359 H 0.82568 0.47782 0.5123 0.0
C360 C 0.02594 0.06173 0.3881 0.0
C361 C 0.02799 0.03428 0.40604 0.0
C362 C 0.0339 0.06268 0.35217 0.0
C363 C 0.00945 1.01435 0.27496 0.0
H364 H 0.11015 0.07729 0.2286 0.0
C365 C 0.04354 1.00965 0.12834 0.0
C366 C 0.0279 0.0359 0.10917 0.0
C367 C 0.05161 1.01036 0.16466 0.0
C368 C 0.08147 0.0597 0.24122 0.0
H369 H 0.04394 0.98652 0.40075 0.0
H370 H 0.05901 0.98826 0.3384 0.0
H371 H 0.11062 0.07675 0.29233 0.0
H372 H 0.01132 0.08372 0.11304 0.0
H373 H 0.02484 0.08488 0.17677 0.0
H374 H -0.02027 0.99738 0.22415 0.0
C375 C 0.04948 1.00897 0.35184 0.0
C376 C 0.08171 0.05938 0.27767 0.0
C377 C 0.0412 1.008 0.38763 0.0
C378 C 0.0233 0.06311 0.12709 0.0
C379 C 0.03132 0.0638 0.16356 0.0
C380 C 0.00936 1.01463 0.23869 0.0
C381 C 0.04431 0.03621 0.33353 0.0
C382 C 0.04578 0.03663 0.29492 0.0
C383 C 0.04406 0.0373 0.18272 0.0
C384 C 0.04546 0.03723 0.22138 0.0
H385 H 0.01592 0.08239 0.40157 0.0
H386 H 0.02918 0.084 0.33881 0.0
H387 H -0.02024 0.99691 0.28732 0.0
H388 H 0.04817 0.98835 0.11536 0.0
H389 H 0.0628 0.98966 0.17866 0.0
C390 C 0.9156 0.04769 0.88394 0.0
C391 C 0.93094 1.02144 0.90317 0.0
C392 C 0.90776 0.04695 0.84761 0.0
C393 C 0.87808 0.99748 0.77109 0.0
H394 H -0.02025 0.06023 0.72491 0.0
C395 C 0.93372 0.99525 0.6242 0.0
C396 C 0.93158 1.02267 0.60621 0.0
C397 C 0.92582 0.99435 0.66014 0.0
C398 C 0.95007 0.04281 0.73729 0.0
H399 H 0.94729 0.9736 0.89937 0.0
H400 H 0.93419 0.9724 0.83564 0.0
H401 H -0.02038 0.05987 0.78809 0.0
H402 H 0.91558 0.07044 0.61142 0.0
H403 H 0.9006 0.06879 0.67378 0.0
H404 H 0.84911 0.98034 0.72 0.0
C405 C 0.92774 0.9935 0.8488 0.0
C406 C 0.95007 0.04258 0.77356 0.0
C407 C 0.93553 0.99421 0.88528 0.0
C408 C 0.91838 0.04898 0.62457 0.0
C409 C 0.91015 0.04806 0.66037 0.0
C410 C 0.87795 0.99774 0.73464 0.0
C411 C 0.91526 1.01999 0.82958 0.0
C412 C 0.91398 1.01999 0.79091 0.0
C413 C 0.91538 1.02084 0.67874 0.0
C414 C 0.91387 1.02047 0.71735 0.0
H415 H 0.91102 0.06901 0.89688 0.0
H416 H 0.89676 0.06765 0.83357 0.0
H417 H 0.84939 0.9799 0.78373 0.0
H418 H 0.94376 0.97458 0.61076 0.0
H419 H 0.93058 0.97305 0.67354 0.0
C420 C 0.51006 0.50942 0.38098 0.0
C421 C 0.51046 0.53554 0.40121 0.0
C422 C 0.50397 0.51117 0.34469 0.0
C423 C 0.52202 0.56077 0.26945 0.0
H424 H 0.38156 0.50697 0.22445 0.0
C425 C 0.44965 0.56454 0.12105 0.0
C426 C 0.44814 0.53659 0.10441 0.0
C427 C 0.45176 0.56628 0.15741 0.0
C428 C 0.42125 0.52201 0.23659 0.0
H429 H 0.50896 0.58402 0.39926 0.0
H430 H 0.4985 0.58701 0.33563 0.0
H431 H 0.40237 0.50614 0.28769 0.0
H432 H 0.44471 0.4886 0.11274 0.0
H433 H 0.44893 0.49166 0.17591 0.0
H434 H 0.54173 0.57629 0.21821 0.0
C435 C 0.50276 0.56523 0.34797 0.0
C436 C 0.43328 0.52149 0.27277 0.0
C437 C 0.50867 0.5635 0.38438 0.0
C438 C 0.44587 0.5105 0.12474 0.0
C439 C 0.44792 0.51225 0.16099 0.0
C440 C 0.51016 0.56123 0.23315 0.0
C441 C 0.49835 0.53905 0.32785 0.0
C442 C 0.48447 0.54055 0.28953 0.0
C443 C 0.45212 0.54012 0.17776 0.0
C444 C 0.4603 0.54155 0.21634 0.0
H445 H 0.51194 0.48753 0.39312 0.0
H446 H 0.50225 0.49064 0.32977 0.0
H447 H 0.56197 0.57563 0.28172 0.0
H448 H 0.45128 0.58505 0.10607 0.0
H449 H 0.45399 0.58808 0.16963 0.0
C450 C 0.44601 0.49315 0.62107 0.0
C451 C 0.44597 0.52114 0.60437 0.0
C452 C 0.44774 0.49131 0.65742 0.0
C453 C 0.41918 0.53555 0.73653 0.0
H454 H 0.55742 0.48086 0.78167 0.0
C455 C 0.50956 0.54729 0.88073 0.0
C456 C 0.50905 0.52117 0.9011 0.0
C457 C 0.50292 0.54561 0.84446 0.0
C458 C 0.51814 0.49601 0.7694 0.0
H459 H 0.44468 0.56912 0.61256 0.0
H460 H 0.44825 0.5659 0.67575 0.0
H461 H 0.5371 0.48055 0.71818 0.0
H462 H 0.50525 0.47271 0.8994 0.0
H463 H 0.49384 0.46982 0.83577 0.0
H464 H 0.40111 0.55137 0.78762 0.0
C465 C 0.44638 0.54536 0.66087 0.0
C466 C 0.50624 0.49576 0.73311 0.0
C467 C 0.44469 0.5472 0.62461 0.0
C468 C 0.50573 0.49324 0.8844 0.0
C469 C 0.49924 0.49156 0.848 0.0
C470 C 0.43126 0.53587 0.77271 0.0
C471 C 0.44922 0.51742 0.6777 0.0
C472 C 0.45731 0.51582 0.71628 0.0
C473 C 0.49579 0.51779 0.82777 0.0
C474 C 0.48158 0.51642 0.78946 0.0
H475 H 0.44679 0.47265 0.60616 0.0
H476 H 0.44886 0.46947 0.66968 0.0
H477 H 0.38022 0.55089 0.72437 0.0
H478 H 0.51265 0.56917 0.89277 0.0
H479 H 0.50199 0.56615 0.82945 0.0
loop_
_geom_bond_atom_site_label_1
_geom_bond_atom_site_label_2
_geom_bond_distance
_geom_bond_site_symmetry_2
_ccdc_geom_bond_type
Co0 N5 2.057 1_556 S
Co0 O17 2.021 . S
Co0 O20 2.062 . S
Co0 O24 2.117 1_556 S
Co0 O25 2.020 1_455 S
C1 O21 1.259 1_455 S
C1 O24 1.258 1_545 S
Co2 N11 2.057 1_554 S
Co2 O18 2.117 1_554 S
Co2 O19 2.020 1_655 S
Co2 O21 2.021 . S
Co2 O26 2.062 . S
C3 N5 1.316 1_556 S
C3 N6 1.347 1_556 S
C3 H8 0.931 . S
C4 N5 1.375 . S
C4 C7 1.350 . S
C4 H9 0.930 . S
N5 Co0 2.057 1_554 S
N5 C3 1.316 1_554 S
N5 C4 1.375 . S
N6 C3 1.347 1_554 S
N6 C7 1.373 . S
C7 C4 1.350 . S
C7 N6 1.373 . S
C7 H28 0.931 . S
H8 C3 0.931 . S
H9 C4 0.930 . S
C10 O17 1.259 1_655 S
C10 O18 1.258 1_565 S
N11 Co2 2.057 1_556 S
N11 C12 1.316 1_556 S
N11 C13 1.375 . S
C12 N11 1.316 1_554 S
C12 N14 1.347 1_554 S
C12 H23 0.931 . S
C13 N11 1.375 . S
C13 C15 1.350 . S
C13 H22 0.930 . S
N14 C12 1.347 1_556 S
N14 C15 1.373 . S
C15 C13 1.350 . S
C15 N14 1.373 . S
C15 H29 0.931 . S
C16 O19 1.257 . S
C16 O20 1.254 1_544 S
O17 Co0 2.021 . S
O17 C10 1.259 1_455 S
O18 Co2 2.117 1_556 S
O18 C10 1.258 1_545 S
O19 Co2 2.020 1_455 S
O19 C16 1.257 . S
O20 Co0 2.062 . S
O20 C16 1.254 1_566 S
O21 C1 1.259 1_655 S
O21 Co2 2.021 . S
H22 C13 0.930 . S
H23 C12 0.931 . S
O24 Co0 2.117 1_554 S
O24 C1 1.258 1_565 S
O25 Co0 2.020 1_655 S
O25 C27 1.256 . S
O26 Co2 2.062 . S
O26 C27 1.254 1_544 S
C27 O25 1.256 . S
C27 O26 1.254 1_566 S
H28 C7 0.931 . S
H29 C15 0.931 . S
Co30 N35 2.057 . S
Co30 O47 2.021 . S
Co30 O50 2.062 . S
Co30 O54 2.117 . S
Co30 O55 2.020 1_655 S
C31 O51 1.259 1_655 S
C31 O54 1.258 1_545 S
Co32 N41 2.057 . S
Co32 O48 2.117 . S
Co32 O49 2.020 1_455 S
Co32 O51 2.021 . S
Co32 O56 2.062 . S
C33 N35 1.316 . S
C33 N36 1.347 . S
C33 H38 0.931 . S
C34 N35 1.375 . S
C34 C37 1.350 . S
C34 H39 0.930 . S
N35 Co30 2.057 . S
N35 C33 1.316 . S
N35 C34 1.375 . S
N36 C33 1.347 . S
N36 C37 1.373 . S
C37 C34 1.350 . S
C37 N36 1.373 . S
C37 H58 0.931 . S
H38 C33 0.931 . S
H39 C34 0.930 . S
C40 O47 1.259 1_455 S
C40 O48 1.258 1_565 S
N41 Co32 2.057 . S
N41 C42 1.316 . S
N41 C43 1.375 . S
C42 N41 1.316 . S
C42 N44 1.347 . S
C42 H53 0.931 . S
C43 N41 1.375 . S
C43 C45 1.350 . S
C43 H52 0.930 . S
N44 C42 1.347 . S
N44 C45 1.373 . S
C45 C43 1.350 . S
C45 N44 1.373 . S
C45 H59 0.931 . S
C46 O49 1.256 . S
C46 O50 1.255 1_545 S
O47 Co30 2.021 . S
O47 C40 1.259 1_655 S
O48 Co32 2.117 . S
O48 C40 1.258 1_545 S
O49 Co32 2.020 1_655 S
O49 C46 1.256 . S
O50 Co30 2.062 . S
O50 C46 1.255 1_565 S
O51 C31 1.259 1_455 S
O51 Co32 2.021 . S
H52 C43 0.930 . S
H53 C42 0.931 . S
O54 Co30 2.117 . S
O54 C31 1.258 1_565 S
O55 Co30 2.020 1_455 S
O55 C57 1.256 . S
O56 Co32 2.062 . S
O56 C57 1.255 1_545 S
C57 O55 1.256 . S
C57 O56 1.255 1_565 S
H58 C37 0.931 . S
H59 C45 0.931 . S
Co60 N65 2.057 1_556 S
Co60 O77 2.021 . S
Co60 O80 2.062 . S
Co60 O84 2.117 1_556 S
Co60 O85 2.020 . S
C61 O81 1.259 . S
C61 O84 1.258 . S
Co62 N71 2.057 1_554 S
Co62 O78 2.117 1_554 S
Co62 O79 2.020 . S
Co62 O81 2.021 . S
Co62 O86 2.062 . S
C63 N65 1.316 1_556 S
C63 N66 1.347 1_556 S
C63 H68 0.931 . S
C64 N65 1.375 . S
C64 C67 1.350 . S
C64 H69 0.930 . S
N65 Co60 2.057 1_554 S
N65 C63 1.316 1_554 S
N65 C64 1.375 . S
N66 C63 1.347 1_554 S
N66 C67 1.373 . S
C67 C64 1.350 . S
C67 N66 1.373 . S
C67 H88 0.931 . S
H68 C63 0.931 . S
H69 C64 0.930 . S
C70 O77 1.259 . S
C70 O78 1.258 . S
N71 Co62 2.057 1_556 S
N71 C72 1.316 1_556 S
N71 C73 1.375 . S
C72 N71 1.316 1_554 S
C72 N74 1.347 1_554 S
C72 H83 0.931 . S
C73 N71 1.375 . S
C73 C75 1.350 . S
C73 H82 0.930 . S
N74 C72 1.347 1_556 S
N74 C75 1.373 . S
C75 C73 1.350 . S
C75 N74 1.373 . S
C75 H89 0.931 . S
C76 O79 1.257 . S
C76 O80 1.254 1_554 S
O77 Co60 2.021 . S
O77 C70 1.259 . S
O78 Co62 2.117 1_556 S
O78 C70 1.258 . S
O79 Co62 2.020 . S
O79 C76 1.257 . S
O80 Co60 2.062 . S
O80 C76 1.254 1_556 S
O81 C61 1.259 . S
O81 Co62 2.021 . S
H82 C73 0.930 . S
H83 C72 0.931 . S
O84 Co60 2.117 1_554 S
O84 C61 1.258 . S
O85 Co60 2.020 . S
O85 C87 1.256 . S
O86 Co62 2.062 . S
O86 C87 1.254 1_554 S
C87 O85 1.256 . S
C87 O86 1.254 1_556 S
H88 C67 0.931 . S
H89 C75 0.931 . S
Co90 N95 2.057 . S
Co90 O107 2.021 . S
Co90 O110 2.062 . S
Co90 O114 2.117 . S
Co90 O115 2.020 . S
C91 O111 1.259 . S
C91 O114 1.258 . S
Co92 N101 2.057 . S
Co92 O108 2.117 . S
Co92 O109 2.020 . S
Co92 O111 2.021 . S
Co92 O116 2.062 . S
C93 N95 1.316 . S
C93 N96 1.347 . S
C93 H98 0.931 . S
C94 N95 1.375 . S
C94 C97 1.350 . S
C94 H99 0.930 . S
N95 Co90 2.057 . S
N95 C93 1.316 . S
N95 C94 1.375 . S
N96 C93 1.347 . S
N96 C97 1.373 . S
C97 C94 1.350 . S
C97 N96 1.373 . S
C97 H118 0.931 . S
H98 C93 0.931 . S
H99 C94 0.930 . S
C100 O107 1.259 . S
C100 O108 1.258 . S
N101 Co92 2.057 . S
N101 C102 1.316 . S
N101 C103 1.375 . S
C102 N101 1.316 . S
C102 N104 1.347 . S
C102 H113 0.931 . S
C103 N101 1.375 . S
C103 C105 1.350 . S
C103 H112 0.930 . S
N104 C102 1.347 . S
N104 C105 1.373 . S
C105 C103 1.350 . S
C105 N104 1.373 . S
C105 H119 0.931 . S
C106 O109 1.256 . S
C106 O110 1.255 . S
O107 Co90 2.021 . S
O107 C100 1.259 . S
O108 Co92 2.117 . S
O108 C100 1.258 . S
O109 Co92 2.020 . S
O109 C106 1.256 . S
O110 Co90 2.062 . S
O110 C106 1.255 . S
O111 C91 1.259 . S
O111 Co92 2.021 . S
H112 C103 0.930 . S
H113 C102 0.931 . S
O114 Co90 2.117 . S
O114 C91 1.258 . S
O115 Co90 2.020 . S
O115 C117 1.256 . S
O116 Co92 2.062 . S
O116 C117 1.255 . S
C117 O115 1.256 . S
C117 O116 1.255 . S
H118 C97 0.931 . S
H119 C105 0.931 . S
C120 C121 1.349 1_556 S
C120 C122 1.327 . S
C120 H145 0.950 . S
C121 C120 1.349 1_554 S
C121 C137 1.349 . S
C122 C120 1.327 . S
C122 C141 1.429 1_556 S
C122 H146 0.950 . S
C123 C140 1.574 . S
C123 C142 1.385 . S
C123 H147 0.949 . S
H124 C128 0.949 . S
C125 C126 1.349 1_554 S
C125 C127 1.327 . S
C125 H148 0.950 . S
C126 C125 1.349 1_556 S
C126 C138 1.349 . S
C127 C125 1.327 . S
C127 C143 1.429 1_554 S
C127 H149 0.950 . S
C128 H124 0.949 . S
C128 C136 1.574 . S
C128 C144 1.379 . S
H129 C137 0.950 . S
H130 C135 0.950 . S
H131 C136 0.949 . S
H132 C138 0.950 . S
H133 C139 0.950 . S
H134 C140 0.949 . S
C135 H130 0.950 . S
C135 C137 1.327 . S
C135 C141 1.429 . S
C136 C128 1.574 . S
C136 H131 0.949 . S
C136 C142 1.352 1_556 S
C137 C121 1.349 . S
C137 H129 0.950 . S
C137 C135 1.327 . S
C138 C126 1.349 . S
C138 H132 0.950 . S
C138 C139 1.327 . S
C139 H133 0.950 . S
C139 C138 1.327 . S
C139 C143 1.429 . S
C140 C123 1.574 . S
C140 H134 0.949 . S
C140 C144 1.358 1_554 S
C141 C122 1.429 1_554 S
C141 C135 1.429 . S
C141 C142 1.523 . S
C142 C123 1.385 . S
C142 C136 1.352 1_554 S
C142 C141 1.523 . S
C143 C127 1.429 1_556 S
C143 C139 1.429 . S
C143 C144 1.523 . S
C144 C128 1.379 . S
C144 C140 1.358 1_556 S
C144 C143 1.523 . S
H145 C120 0.950 . S
H146 C122 0.950 . S
H147 C123 0.949 . S
H148 C125 0.950 . S
H149 C127 0.950 . S
C150 C151 1.349 . S
C150 C152 1.327 . S
C150 H175 0.950 . S
C151 C150 1.349 . S
C151 C167 1.349 1_556 S
C152 C150 1.327 . S
C152 C171 1.429 . S
C152 H176 0.950 . S
C153 C170 1.574 . S
C153 C172 1.358 1_554 S
C153 H177 0.949 . S
H154 C158 0.949 . S
C155 C156 1.349 . S
C155 C157 1.327 . S
C155 H178 0.950 . S
C156 C155 1.349 . S
C156 C168 1.349 1_554 S
C157 C155 1.327 . S
C157 C173 1.429 . S
C157 H179 0.950 . S
C158 H154 0.949 . S
C158 C166 1.574 . S
C158 C174 1.352 1_556 S
H159 C167 0.950 . S
H160 C165 0.950 . S
H161 C166 0.949 . S
H162 C168 0.950 . S
H163 C169 0.950 . S
H164 C170 0.949 . S
C165 H160 0.950 . S
C165 C167 1.327 . S
C165 C171 1.429 1_554 S
C166 C158 1.574 . S
C166 H161 0.949 . S
C166 C172 1.379 . S
C167 C151 1.349 1_554 S
C167 H159 0.950 . S
C167 C165 1.327 . S
C168 C156 1.349 1_556 S
C168 H162 0.950 . S
C168 C169 1.327 . S
C169 H163 0.950 . S
C169 C168 1.327 . S
C169 C173 1.429 1_556 S
C170 C153 1.574 . S
C170 H164 0.949 . S
C170 C174 1.385 . S
C171 C152 1.429 . S
C171 C165 1.429 1_556 S
C171 C172 1.523 . S
C172 C153 1.358 1_556 S
C172 C166 1.379 . S
C172 C171 1.523 . S
C173 C157 1.429 . S
C173 C169 1.429 1_554 S
C173 C174 1.523 . S
C174 C158 1.352 1_554 S
C174 C170 1.385 . S
C174 C173 1.523 . S
H175 C150 0.950 . S
H176 C152 0.950 . S
H177 C153 0.949 . S
H178 C155 0.950 . S
H179 C157 0.950 . S
C180 C181 1.349 . S
C180 C182 1.327 . S
C180 H205 0.950 . S
C181 C180 1.349 . S
C181 C197 1.349 . S
C182 C180 1.327 . S
C182 C201 1.429 . S
C182 H206 0.950 . S
C183 C200 1.574 . S
C183 C202 1.368 . S
C183 H207 0.949 . S
H184 C188 0.949 . S
C185 C186 1.349 . S
C185 C187 1.327 . S
C185 H208 0.950 . S
C186 C185 1.349 . S
C186 C198 1.349 . S
C187 C185 1.327 . S
C187 C203 1.429 . S
C187 H209 0.950 . S
C188 H184 0.949 . S
C188 C196 1.574 . S
C188 C204 1.368 . S
H189 C197 0.950 . S
H190 C195 0.950 . S
H191 C196 0.949 . S
H192 C198 0.950 . S
H193 C199 0.950 . S
H194 C200 0.949 . S
C195 H190 0.950 . S
C195 C197 1.327 . S
C195 C201 1.429 . S
C196 C188 1.574 . S
C196 H191 0.949 . S
C196 C202 1.368 . S
C197 C181 1.349 . S
C197 H189 0.950 . S
C197 C195 1.327 . S
C198 C186 1.349 . S
C198 H192 0.950 . S
C198 C199 1.327 . S
C199 H193 0.950 . S
C199 C198 1.327 . S
C199 C203 1.429 . S
C200 C183 1.574 . S
C200 H194 0.949 . S
C200 C204 1.368 . S
C201 C182 1.429 . S
C201 C195 1.429 . S
C201 C202 1.523 . S
C202 C183 1.368 . S
C202 C196 1.368 . S
C202 C201 1.523 . S
C203 C187 1.429 . S
C203 C199 1.429 . S
C203 C204 1.523 . S
C204 C188 1.368 . S
C204 C200 1.368 . S
C204 C203 1.523 . S
H205 C180 0.950 . S
H206 C182 0.950 . S
H207 C183 0.949 . S
H208 C185 0.950 . S
H209 C187 0.950 . S
C210 C211 1.349 . S
C210 C212 1.327 . S
C210 H235 0.950 . S
C211 C210 1.349 . S
C211 C227 1.349 . S
C212 C210 1.327 . S
C212 C231 1.429 . S
C212 H236 0.950 . S
C213 C230 1.574 . S
C213 C232 1.368 . S
C213 H237 0.949 . S
H214 C218 0.949 . S
C215 C216 1.349 . S
C215 C217 1.327 . S
C215 H238 0.950 . S
C216 C215 1.349 . S
C216 C228 1.349 . S
C217 C215 1.327 . S
C217 C233 1.429 . S
C217 H239 0.950 . S
C218 H214 0.949 . S
C218 C226 1.574 . S
C218 C234 1.368 . S
H219 C227 0.950 . S
H220 C225 0.950 . S
H221 C226 0.949 . S
H222 C228 0.950 . S
H223 C229 0.950 . S
H224 C230 0.949 . S
C225 H220 0.950 . S
C225 C227 1.327 . S
C225 C231 1.429 . S
C226 C218 1.574 . S
C226 H221 0.949 . S
C226 C232 1.368 . S
C227 C211 1.349 . S
C227 H219 0.950 . S
C227 C225 1.327 . S
C228 C216 1.349 . S
C228 H222 0.950 . S
C228 C229 1.327 . S
C229 H223 0.950 . S
C229 C228 1.327 . S
C229 C233 1.429 . S
C230 C213 1.574 . S
C230 H224 0.949 . S
C230 C234 1.368 . S
C231 C212 1.429 . S
C231 C225 1.429 . S
C231 C232 1.523 . S
C232 C213 1.368 . S
C232 C226 1.368 . S
C232 C231 1.523 . S
C233 C217 1.429 . S
C233 C229 1.429 . S
C233 C234 1.523 . S
C234 C218 1.368 . S
C234 C230 1.368 . S
C234 C233 1.523 . S
H235 C210 0.950 . S
H236 C212 0.950 . S
H237 C213 0.949 . S
H238 C215 0.950 . S
H239 C217 0.950 . S
C240 C241 1.349 . S
C240 C242 1.327 . S
C240 H265 0.950 . S
C241 C240 1.349 . S
C241 C257 1.349 1_544 S
C242 C240 1.327 . S
C242 C261 1.441 . S
C242 H266 0.950 . S
C243 C260 1.574 . S
C243 C262 1.362 1_566 S
C243 H267 0.949 . S
H244 C248 0.949 . S
C245 C246 1.368 . S
C245 C247 1.327 . S
C245 H268 0.950 . S
C246 C245 1.368 . S
C246 C258 1.328 1_566 S
C247 C245 1.327 . S
C247 C263 1.437 . S
C247 H269 0.950 . S
C248 H244 0.949 . S
C248 C256 1.574 . S
C248 C264 1.367 1_544 S
H249 C257 0.950 . S
H250 C255 0.950 . S
H251 C256 0.949 . S
H252 C258 0.950 . S
H253 C259 0.950 . S
H254 C260 0.949 . S
C255 H250 0.950 . S
C255 C257 1.327 . S
C255 C261 1.418 1_566 S
C256 C248 1.574 . S
C256 H251 0.949 . S
C256 C262 1.374 . S
C257 C241 1.349 1_566 S
C257 H249 0.950 . S
C257 C255 1.327 . S
C258 C246 1.328 1_544 S
C258 H252 0.950 . S
C258 C259 1.327 . S
C259 H253 0.950 . S
C259 C258 1.327 . S
C259 C263 1.422 1_544 S
C260 C243 1.574 . S
C260 H254 0.949 . S
C260 C264 1.369 . S
C261 C242 1.441 . S
C261 C255 1.418 1_544 S
C261 C262 1.522 . S
C262 C243 1.362 1_544 S
C262 C256 1.374 . S
C262 C261 1.522 . S
C263 C247 1.437 . S
C263 C259 1.422 1_566 S
C263 C264 1.522 . S
C264 C248 1.367 1_566 S
C264 C260 1.369 . S
C264 C263 1.522 . S
H265 C240 0.950 . S
H266 C242 0.950 . S
H267 C243 0.949 . S
H268 C245 0.950 . S
H269 C247 0.950 . S
C270 C271 1.349 1_545 S
C270 C272 1.327 . S
C270 H295 0.950 . S
C271 C270 1.349 1_565 S
C271 C287 1.349 . S
C272 C270 1.327 . S
C272 C291 1.429 1_545 S
C272 H296 0.950 . S
C273 C290 1.574 . S
C273 C292 1.368 . S
C273 H297 0.949 . S
H274 C278 0.949 . S
C275 C276 1.349 1_565 S
C275 C277 1.327 . S
C275 H298 0.950 . S
C276 C275 1.349 1_545 S
C276 C288 1.349 . S
C277 C275 1.327 . S
C277 C293 1.429 1_565 S
C277 H299 0.950 . S
C278 H274 0.949 . S
C278 C286 1.574 . S
C278 C294 1.368 . S
H279 C287 0.950 . S
H280 C285 0.950 . S
H281 C286 0.949 . S
H282 C288 0.950 . S
H283 C289 0.950 . S
H284 C290 0.949 . S
C285 H280 0.950 . S
C285 C287 1.327 . S
C285 C291 1.429 . S
C286 C278 1.574 . S
C286 H281 0.949 . S
C286 C292 1.368 1_545 S
C287 C271 1.349 . S
C287 H279 0.950 . S
C287 C285 1.327 . S
C288 C276 1.349 . S
C288 H282 0.950 . S
C288 C289 1.327 . S
C289 H283 0.950 . S
C289 C288 1.327 . S
C289 C293 1.429 . S
C290 C273 1.574 . S
C290 H284 0.949 . S
C290 C294 1.368 1_565 S
C291 C272 1.429 1_565 S
C291 C285 1.429 . S
C291 C292 1.523 . S
C292 C273 1.368 . S
C292 C286 1.368 1_565 S
C292 C291 1.523 . S
C293 C277 1.429 1_545 S
C293 C289 1.429 . S
C293 C294 1.523 . S
C294 C278 1.368 . S
C294 C290 1.368 1_545 S
C294 C293 1.523 . S
H295 C270 0.950 . S
H296 C272 0.950 . S
H297 C273 0.949 . S
H298 C275 0.950 . S
H299 C277 0.950 . S
C300 C301 1.349 1_556 S
C300 C302 1.327 . S
C300 H325 0.950 . S
C301 C300 1.349 1_554 S
C301 C317 1.349 . S
C302 C300 1.327 . S
C302 C321 1.415 1_556 S
C302 H326 0.950 . S
C303 C320 1.574 1_655 S
C303 C322 1.375 . S
C303 H327 0.949 . S
H304 C308 0.949 . S
C305 C306 1.323 1_554 S
C305 C307 1.327 . S
C305 H328 0.950 . S
C306 C305 1.323 1_556 S
C306 C318 1.372 . S
C307 C305 1.327 . S
C307 C323 1.420 1_554 S
C307 H329 0.950 . S
C308 H304 0.949 . S
C308 C316 1.574 1_455 S
C308 C324 1.370 . S
H309 C317 0.950 . S
H310 C315 0.950 . S
H311 C316 0.949 . S
H312 C318 0.950 . S
H313 C319 0.950 . S
H314 C320 0.949 . S
C315 H310 0.950 . S
C315 C317 1.327 . S
C315 C321 1.444 . S
C316 C308 1.574 1_655 S
C316 H311 0.949 . S
C316 C322 1.361 1_556 S
C317 C301 1.349 . S
C317 H309 0.950 . S
C317 C315 1.327 . S
C318 C306 1.372 . S
C318 H312 0.950 . S
C318 C319 1.327 . S
C319 H313 0.950 . S
C319 C318 1.327 . S
C319 C323 1.438 . S
C320 C303 1.574 1_455 S
C320 H314 0.949 . S
C320 C324 1.367 1_554 S
C321 C302 1.415 1_554 S
C321 C315 1.444 . S
C321 C322 1.522 . S
C322 C303 1.375 . S
C322 C316 1.361 1_554 S
C322 C321 1.522 . S
C323 C307 1.420 1_556 S
C323 C319 1.438 . S
C323 C324 1.522 . S
C324 C308 1.370 . S
C324 C320 1.367 1_556 S
C324 C323 1.522 . S
H325 C300 0.950 . S
H326 C302 0.950 . S
H327 C303 0.949 . S
H328 C305 0.950 . S
H329 C307 0.950 . S
C330 C331 1.349 . S
C330 C332 1.327 . S
C330 H355 0.950 . S
C331 C330 1.349 . S
C331 C347 1.349 . S
C332 C330 1.327 . S
C332 C351 1.429 . S
C332 H356 0.950 . S
C333 C350 1.574 1_455 S
C333 C352 1.368 . S
C333 H357 0.949 . S
H334 C338 0.949 . S
C335 C336 1.349 . S
C335 C337 1.327 . S
C335 H358 0.950 . S
C336 C335 1.349 . S
C336 C348 1.349 . S
C337 C335 1.327 . S
C337 C353 1.429 . S
C337 H359 0.950 . S
C338 H334 0.949 . S
C338 C346 1.574 1_655 S
C338 C354 1.368 . S
H339 C347 0.950 . S
H340 C345 0.950 . S
H341 C346 0.949 . S
H342 C348 0.950 . S
H343 C349 0.950 . S
H344 C350 0.949 . S
C345 H340 0.950 . S
C345 C347 1.327 . S
C345 C351 1.429 . S
C346 C338 1.574 1_455 S
C346 H341 0.949 . S
C346 C352 1.368 . S
C347 C331 1.349 . S
C347 H339 0.950 . S
C347 C345 1.327 . S
C348 C336 1.349 . S
C348 H342 0.950 . S
C348 C349 1.327 . S
C349 H343 0.950 . S
C349 C348 1.327 . S
C349 C353 1.429 . S
C350 C333 1.574 1_655 S
C350 H344 0.949 . S
C350 C354 1.368 . S
C351 C332 1.429 . S
C351 C345 1.429 . S
C351 C352 1.523 . S
C352 C333 1.368 . S
C352 C346 1.368 . S
C352 C351 1.523 . S
C353 C337 1.429 . S
C353 C349 1.429 . S
C353 C354 1.523 . S
C354 C338 1.368 . S
C354 C350 1.368 . S
C354 C353 1.523 . S
H355 C330 0.950 . S
H356 C332 0.950 . S
H357 C333 0.949 . S
H358 C335 0.950 . S
H359 C337 0.950 . S
C360 C361 1.341 1_455 S
C360 C362 1.327 . S
C360 H385 0.950 . S
C361 C360 1.341 1_655 S
C361 C377 1.356 1_545 S
C362 C360 1.327 . S
C362 C381 1.426 1_455 S
C362 H386 0.950 . S
C363 C380 1.574 . S
C363 C382 1.369 1_565 S
C363 H387 0.949 . S
H364 C368 0.949 . S
C365 C366 1.349 1_665 S
C365 C367 1.327 . S
C365 H388 0.950 . S
C366 C365 1.349 1_445 S
C366 C378 1.349 . S
C367 C365 1.327 . S
C367 C383 1.424 1_665 S
C367 H389 0.950 . S
C368 H364 0.949 . S
C368 C376 1.574 . S
C368 C384 1.371 . S
H369 C377 0.950 . S
H370 C375 0.950 . S
H371 C376 0.949 . S
H372 C378 0.950 . S
H373 C379 0.950 . S
H374 C380 0.949 . S
C375 H370 0.950 . S
C375 C377 1.327 . S
C375 C381 1.432 1_565 S
C376 C368 1.574 . S
C376 H371 0.949 . S
C376 C382 1.368 1_455 S
C377 C361 1.356 1_565 S
C377 H369 0.950 . S
C377 C375 1.327 . S
C378 C366 1.349 . S
C378 H372 0.950 . S
C378 C379 1.327 . S
C379 H373 0.950 . S
C379 C378 1.327 . S
C379 C383 1.434 . S
C380 C363 1.574 . S
C380 H374 0.949 . S
C380 C384 1.366 1_665 S
C381 C362 1.426 1_655 S
C381 C375 1.432 1_545 S
C381 C382 1.523 . S
C382 C363 1.369 1_545 S
C382 C376 1.368 1_655 S
C382 C381 1.523 . S
C383 C367 1.424 1_445 S
C383 C379 1.434 . S
C383 C384 1.523 . S
C384 C368 1.371 . S
C384 C380 1.366 1_445 S
C384 C383 1.523 . S
H385 C360 0.950 . S
H386 C362 0.950 . S
H387 C363 0.949 . S
H388 C365 0.950 . S
H389 C367 0.950 . S
C390 C391 1.341 1_445 S
C390 C392 1.327 . S
C390 H415 0.950 . S
C391 C390 1.341 1_665 S
C391 C407 1.356 . S
C392 C390 1.327 . S
C392 C411 1.426 1_445 S
C392 H416 0.950 . S
C393 C410 1.574 . S
C393 C412 1.369 . S
C393 H417 0.949 . S
H394 C398 0.949 . S
C395 C396 1.349 1_655 S
C395 C397 1.327 . S
C395 H418 0.950 . S
C396 C395 1.349 1_455 S
C396 C408 1.349 1_565 S
C397 C395 1.327 . S
C397 C413 1.424 1_655 S
C397 H419 0.950 . S
C398 H394 0.949 . S
C398 C406 1.574 . S
C398 C414 1.371 1_545 S
H399 C407 0.950 . S
H400 C405 0.950 . S
H401 C406 0.949 . S
H402 C408 0.950 . S
H403 C409 0.950 . S
H404 C410 0.949 . S
C405 H400 0.950 . S
C405 C407 1.327 . S
C405 C411 1.432 . S
C406 C398 1.574 . S
C406 H401 0.949 . S
C406 C412 1.368 1_445 S
C407 C391 1.356 . S
C407 H399 0.950 . S
C407 C405 1.327 . S
C408 C396 1.349 1_545 S
C408 H402 0.950 . S
C408 C409 1.327 . S
C409 H403 0.950 . S
C409 C408 1.327 . S
C409 C413 1.434 1_545 S
C410 C393 1.574 . S
C410 H404 0.949 . S
C410 C414 1.366 1_655 S
C411 C392 1.426 1_665 S
C411 C405 1.432 . S
C411 C412 1.523 . S
C412 C393 1.369 . S
C412 C406 1.368 1_665 S
C412 C411 1.523 . S
C413 C397 1.424 1_455 S
C413 C409 1.434 1_565 S
C413 C414 1.523 . S
C414 C398 1.371 1_565 S
C414 C410 1.366 1_455 S
C414 C413 1.523 . S
H415 C390 0.950 . S
H416 C392 0.950 . S
H417 C393 0.949 . S
H418 C395 0.950 . S
H419 C397 0.950 . S
C420 C421 1.349 . S
C420 C422 1.327 . S
C420 H445 0.950 . S
C421 C420 1.349 . S
C421 C437 1.349 . S
C422 C420 1.327 . S
C422 C441 1.429 . S
C422 H446 0.950 . S
C423 C440 1.574 . S
C423 C442 1.368 . S
C423 H447 0.949 . S
H424 C428 0.949 . S
C425 C426 1.349 . S
C425 C427 1.327 . S
C425 H448 0.950 . S
C426 C425 1.349 . S
C426 C438 1.349 . S
C427 C425 1.327 . S
C427 C443 1.429 . S
C427 H449 0.950 . S
C428 H424 0.949 . S
C428 C436 1.574 . S
C428 C444 1.368 . S
H429 C437 0.950 . S
H430 C435 0.950 . S
H431 C436 0.949 . S
H432 C438 0.950 . S
H433 C439 0.950 . S
H434 C440 0.949 . S
C435 H430 0.950 . S
C435 C437 1.327 . S
C435 C441 1.429 . S
C436 C428 1.574 . S
C436 H431 0.949 . S
C436 C442 1.368 . S
C437 C421 1.349 . S
C437 H429 0.950 . S
C437 C435 1.327 . S
C438 C426 1.349 . S
C438 H432 0.950 . S
C438 C439 1.327 . S
C439 H433 0.950 . S
C439 C438 1.327 . S
C439 C443 1.429 . S
C440 C423 1.574 . S
C440 H434 0.949 . S
C440 C444 1.368 . S
C441 C422 1.429 . S
C441 C435 1.429 . S
C441 C442 1.523 . S
C442 C423 1.368 . S
C442 C436 1.368 . S
C442 C441 1.523 . S
C443 C427 1.429 . S
C443 C439 1.429 . S
C443 C444 1.523 . S
C444 C428 1.368 . S
C444 C440 1.368 . S
C444 C443 1.523 . S
H445 C420 0.950 . S
H446 C422 0.950 . S
H447 C423 0.949 . S
H448 C425 0.950 . S
H449 C427 0.950 . S
C450 C451 1.349 . S
C450 C452 1.327 . S
C450 H475 0.950 . S
C451 C450 1.349 . S
C451 C467 1.349 . S
C452 C450 1.327 . S
C452 C471 1.429 . S
C452 H476 0.950 . S
C453 C470 1.574 . S
C453 C472 1.368 . S
C453 H477 0.949 . S
H454 C458 0.949 . S
C455 C456 1.349 . S
C455 C457 1.327 . S
C455 H478 0.950 . S
C456 C455 1.349 . S
C456 C468 1.349 . S
C457 C455 1.327 . S
C457 C473 1.429 . S
C457 H479 0.950 . S
C458 H454 0.949 . S
C458 C466 1.574 . S
C458 C474 1.368 . S
H459 C467 0.950 . S
H460 C465 0.950 . S
H461 C466 0.949 . S
H462 C468 0.950 . S
H463 C469 0.950 . S
H464 C470 0.949 . S
C465 H460 0.950 . S
C465 C467 1.327 . S
C465 C471 1.429 . S
C466 C458 1.574 . S
C466 H461 0.949 . S
C466 C472 1.368 . S
C467 C451 1.349 . S
C467 H459 0.950 . S
C467 C465 1.327 . S
C468 C456 1.349 . S
C468 H462 0.950 . S
C468 C469 1.327 . S
C469 H463 0.950 . S
C469 C468 1.327 . S
C469 C473 1.429 . S
C470 C453 1.574 . S
C470 H464 0.949 . S
C470 C474 1.368 . S
C471 C452 1.429 . S
C471 C465 1.429 . S
C471 C472 1.523 . S
C472 C453 1.368 . S
C472 C466 1.368 . S
C472 C471 1.523 . S
C473 C457 1.429 . S
C473 C469 1.429 . S
C473 C474 1.523 . S
C474 C458 1.368 . S
C474 C470 1.368 . S
C474 C473 1.523 . S
H475 C450 0.950 . S
H476 C452 0.950 . S
H477 C453 0.949 . S
H478 C455 0.950 . S
H479 C457 0.950 . S
C121 N74 1.538 1_554 S
C126 N6 1.541 1_556 S
C151 N66 1.538 1_556 S
C156 N14 1.535 1_554 S
C181 N44 1.538 . S
C186 N96 1.533 . S
C211 N36 1.538 . S
C216 N104 1.543 . S
C241 C16 0.766 . S
C246 C27 0.768 . S
C271 C57 0.767 . S
C276 C46 0.767 . S
C301 C76 0.766 . S
C306 C87 0.768 . S
C331 C106 0.767 . S
C336 C117 0.767 . S
C361 C31 1.499 . S
C366 C1 1.493 . S
C391 C10 1.499 . S
C396 C40 1.501 . S
C421 C91 1.497 . S
C426 C61 1.493 . S
C451 C100 1.497 . S
C456 C70 1.501 . S
