# Generated by pormake.
# Topology fnk, (5)-cn, num edge types: 1
# Building blocks:
#     Node 0, Type 0, BuildingBlock: XOMCOT_clean_sbu_0, # of connection points: 5
#     Node 1, Type 0, BuildingBlock: XOMCOT_clean_sbu_0, # of connection points: 5
#     Node 2, Type 0, BuildingBlock: XOMCOT_clean_sbu_0, # of connection points: 5
#     Node 3, Type 0, BuildingBlock: XOMCOT_clean_sbu_0, # of connection points: 5
#     Node 4, Type 0, BuildingBlock: XOMCOT_clean_sbu_0, # of connection points: 5
#     Node 5, Type 0, BuildingBlock: XOMCOT_clean_sbu_0, # of connection points: 5
#     Node 6, Type 0, BuildingBlock: XOMCOT_clean_sbu_0, # of connection points: 5
#     Node 7, Type 0, BuildingBlock: XOMCOT_clean_sbu_0, # of connection points: 5
#     Node 8, Type 0, BuildingBlock: XOMCOT_clean_sbu_0, # of connection points: 5
#     Node 9, Type 0, BuildingBlock: XOMCOT_clean_sbu_0, # of connection points: 5
#     Node 10, Type 0, BuildingBlock: XOMCOT_clean_sbu_0, # of connection points: 5
#     Node 11, Type 0, BuildingBlock: XOMCOT_clean_sbu_0, # of connection points: 5
#     Node 12, Type 0, BuildingBlock: XOMCOT_clean_sbu_0, # of connection points: 5
#     Node 13, Type 0, BuildingBlock: XOMCOT_clean_sbu_0, # of connection points: 5
#     Node 14, Type 0, BuildingBlock: XOMCOT_clean_sbu_0, # of connection points: 5
#     Node 15, Type 0, BuildingBlock: XOMCOT_clean_sbu_0, # of connection points: 5
#     Edge 16, Type (0, 0), BuildingBlock: EZIPEK_clean_linker_0, # of connection points: 2
#     Edge 17, Type (0, 0), BuildingBlock: EZIPEK_clean_linker_0, # of connection points: 2
#     Edge 18, Type (0, 0), BuildingBlock: EZIPEK_clean_linker_0, # of connection points: 2
#     Edge 19, Type (0, 0), BuildingBlock: EZIPEK_clean_linker_0, # of connection points: 2
#     Edge 20, Type (0, 0), BuildingBlock: EZIPEK_clean_linker_0, # of connection points: 2
#     Edge 21, Type (0, 0), BuildingBlock: EZIPEK_clean_linker_0, # of connection points: 2
#     Edge 22, Type (0, 0), BuildingBlock: EZIPEK_clean_linker_0, # of connection points: 2
#     Edge 23, Type (0, 0), BuildingBlock: EZIPEK_clean_linker_0, # of connection points: 2
#     Edge 24, Type (0, 0), BuildingBlock: EZIPEK_clean_linker_0, # of connection points: 2
#     Edge 25, Type (0, 0), BuildingBlock: EZIPEK_clean_linker_0, # of connection points: 2
#     Edge 26, Type (0, 0), BuildingBlock: EZIPEK_clean_linker_0, # of connection points: 2
#     Edge 27, Type (0, 0), BuildingBlock: EZIPEK_clean_linker_0, # of connection points: 2
#     Edge 28, Type (0, 0), BuildingBlock: EZIPEK_clean_linker_0, # of connection points: 2
#     Edge 29, Type (0, 0), BuildingBlock: EZIPEK_clean_linker_0, # of connection points: 2
#     Edge 30, Type (0, 0), BuildingBlock: EZIPEK_clean_linker_0, # of connection points: 2
#     Edge 31, Type (0, 0), BuildingBlock: EZIPEK_clean_linker_0, # of connection points: 2
#     Edge 32, Type (0, 0), BuildingBlock: EZIPEK_clean_linker_0, # of connection points: 2
#     Edge 33, Type (0, 0), BuildingBlock: EZIPEK_clean_linker_0, # of connection points: 2
#     Edge 34, Type (0, 0), BuildingBlock: EZIPEK_clean_linker_0, # of connection points: 2
#     Edge 35, Type (0, 0), BuildingBlock: EZIPEK_clean_linker_0, # of connection points: 2
#     Edge 36, Type (0, 0), BuildingBlock: EZIPEK_clean_linker_0, # of connection points: 2
#     Edge 37, Type (0, 0), BuildingBlock: EZIPEK_clean_linker_0, # of connection points: 2
#     Edge 38, Type (0, 0), BuildingBlock: EZIPEK_clean_linker_0, # of connection points: 2
#     Edge 39, Type (0, 0), BuildingBlock: EZIPEK_clean_linker_0, # of connection points: 2
#     Edge 40, Type (0, 0), BuildingBlock: EZIPEK_clean_linker_0, # of connection points: 2
#     Edge 41, Type (0, 0), BuildingBlock: EZIPEK_clean_linker_0, # of connection points: 2
#     Edge 42, Type (0, 0), BuildingBlock: EZIPEK_clean_linker_0, # of connection points: 2
#     Edge 43, Type (0, 0), BuildingBlock: EZIPEK_clean_linker_0, # of connection points: 2
#     Edge 44, Type (0, 0), BuildingBlock: EZIPEK_clean_linker_0, # of connection points: 2
#     Edge 45, Type (0, 0), BuildingBlock: EZIPEK_clean_linker_0, # of connection points: 2
#     Edge 46, Type (0, 0), BuildingBlock: EZIPEK_clean_linker_0, # of connection points: 2
#     Edge 47, Type (0, 0), BuildingBlock: EZIPEK_clean_linker_0, # of connection points: 2
#     Edge 48, Type (0, 0), BuildingBlock: EZIPEK_clean_linker_0, # of connection points: 2
#     Edge 49, Type (0, 0), BuildingBlock: EZIPEK_clean_linker_0, # of connection points: 2
#     Edge 50, Type (0, 0), BuildingBlock: EZIPEK_clean_linker_0, # of connection points: 2
#     Edge 51, Type (0, 0), BuildingBlock: EZIPEK_clean_linker_0, # of connection points: 2
#     Edge 52, Type (0, 0), BuildingBlock: EZIPEK_clean_linker_0, # of connection points: 2
#     Edge 53, Type (0, 0), BuildingBlock: EZIPEK_clean_linker_0, # of connection points: 2
#     Edge 54, Type (0, 0), BuildingBlock: EZIPEK_clean_linker_0, # of connection points: 2
#     Edge 55, Type (0, 0), BuildingBlock: EZIPEK_clean_linker_0, # of connection points: 2
# Relax obj value: 0.400
# Max RMSD: 0.223
# Mean RMSD: 0.216
data_MOF--net-fnk--node1-XOMCOT_clean_sbu_0--edge1-EZIPEK_clean_linker_0
_symmetry_space_group_name_H-M    P1
_symmetry_Int_Tables_number       1
_symmetry_cell_setting            triclinic
loop_
_symmetry_equiv_pos_as_xyz
'x, y, z'
_cell_length_a     36.076423
_cell_length_b     35.948259
_cell_length_c     38.122635
_cell_angle_alpha  89.960656
_cell_angle_beta   89.268271
_cell_angle_gamma 89.615589
loop_
_atom_site_label
_atom_site_type_symbol
_atom_site_fract_x
_atom_site_fract_y
_atom_site_fract_z
_atom_type_partial_charge
Co0 Co 0.10942 0.37124 0.21831 0.0
C1 C 0.15936 0.3097 0.24268 0.0
C2 C 0.18784 0.35267 0.21404 0.0
C3 C 0.21318 0.32572 0.2227 0.0
N4 N 0.15415 0.34282 0.22661 0.0
N5 N 0.19522 0.29888 0.24047 0.0
H6 H 0.13773 0.29361 0.25524 0.0
H7 H 0.19354 0.37783 0.19943 0.0
C8 C 0.1526 0.42228 0.26317 0.0
O9 O 0.16689 0.39265 0.278 0.0
N10 N 0.06537 0.40002 0.20834 0.0
C11 C 0.0331 0.38772 0.19509 0.0
C12 C 0.01161 0.41784 0.18605 0.0
C13 C 0.06309 0.43738 0.20677 0.0
N14 N 0.03101 0.44878 0.19286 0.0
C15 C 0.12609 0.34574 0.14925 0.0
C16 C 0.13713 0.41441 0.1182 0.0
C17 C 0.13687 0.38251 0.09703 0.0
C18 C 0.13203 0.34782 0.11302 0.0
C19 C 0.13118 0.41109 0.15452 0.0
N20 N 0.12491 0.37709 0.16945 0.0
H21 H 0.12157 0.31881 0.16111 0.0
H22 H 0.13053 0.43595 0.1703 0.0
H23 H 0.02626 0.35904 0.19015 0.0
H24 H 0.08517 0.45617 0.21329 0.0
O25 O 0.08062 0.32604 0.21423 0.0
O26 O 0.0879 0.35751 0.2631 0.0
O27 O 0.13421 0.41848 0.23485 0.0
C28 C 0.07145 0.33033 0.24714 0.0
H29 H 0.2425 0.32554 0.21628 0.0
H30 H 0.98485 0.41716 0.17353 0.0
H31 H 0.14088 0.44166 0.10662 0.0
H32 H 0.13182 0.32263 0.09745 0.0
Co33 Co 0.63826 0.09589 0.21825 0.0
C34 C 0.69025 0.15289 0.24323 0.0
C35 C 0.64516 0.14511 0.27953 0.0
C36 C 0.66684 0.17371 0.29148 0.0
N37 N 0.65894 0.13332 0.24844 0.0
N38 N 0.69523 0.17845 0.26858 0.0
H39 H 0.7089 0.14922 0.22117 0.0
H40 H 0.62076 0.13402 0.29241 0.0
C41 C 0.57006 0.14383 0.23839 0.0
O42 O 0.58721 0.17499 0.23075 0.0
N43 N 0.61877 0.05857 0.18797 0.0
C44 C 0.63416 0.04577 0.15776 0.0
C45 C 0.60997 0.02134 0.14252 0.0
C46 C 0.58584 0.04192 0.19095 0.0
N47 N 0.57986 0.01947 0.16353 0.0
C48 C 0.67614 0.12898 0.1593 0.0
C49 C 0.61311 0.15101 0.12431 0.0
C50 C 0.64685 0.14978 0.10573 0.0
C51 C 0.67885 0.13982 0.12399 0.0
C52 C 0.61147 0.13928 0.15934 0.0
N53 N 0.64262 0.12778 0.17652 0.0
H54 H 0.70064 0.11779 0.17144 0.0
H55 H 0.58446 0.13602 0.17102 0.0
H56 H 0.66089 0.05392 0.14732 0.0
H57 H 0.56643 0.04626 0.21247 0.0
O58 O 0.68608 0.06975 0.21664 0.0
O59 O 0.64134 0.06028 0.25574 0.0
O60 O 0.5856 0.11249 0.23144 0.0
C61 C 0.67367 0.05079 0.24349 0.0
H62 H 0.66206 0.18993 0.31505 0.0
H63 H 0.61388 0.00637 0.11811 0.0
H64 H 0.58765 0.1579 0.11094 0.0
H65 H 0.70535 0.13789 0.11042 0.0
Co66 Co 0.87951 0.64292 0.21003 0.0
C67 C 0.81378 0.68874 0.23355 0.0
C68 C 0.83461 0.65193 0.27311 0.0
C69 C 0.80572 0.67205 0.2874 0.0
N70 N 0.83965 0.66216 0.23932 0.0
N71 N 0.79279 0.69489 0.26241 0.0
H72 H 0.81032 0.70405 0.20957 0.0
H73 H 0.85122 0.63141 0.28662 0.0
C74 C 0.83001 0.57713 0.22603 0.0
O75 O 0.80003 0.59627 0.21841 0.0
N76 N 0.91958 0.62344 0.18221 0.0
C77 C 0.93757 0.63932 0.15487 0.0
C78 C 0.96725 0.6168 0.14558 0.0
C79 C 0.9378 0.59181 0.18902 0.0
N80 N 0.96673 0.58703 0.16706 0.0
C81 C 0.84642 0.68314 0.1531 0.0
C82 C 0.8398 0.62174 0.11027 0.0
C83 C 0.83481 0.65722 0.09562 0.0
C84 C 0.83602 0.68804 0.11813 0.0
C85 C 0.84733 0.61792 0.14596 0.0
N86 N 0.85158 0.6484 0.16687 0.0
H87 H 0.85302 0.7075 0.16828 0.0
H88 H 0.85381 0.59054 0.15568 0.0
H89 H 0.93024 0.66577 0.14324 0.0
H90 H 0.93082 0.57312 0.21035 0.0
O91 O 0.90494 0.6907 0.2113 0.0
O92 O 0.91176 0.64464 0.24941 0.0
O93 O 0.86207 0.59058 0.21976 0.0
C94 C 0.92189 0.67723 0.23861 0.0
H95 H 0.79545 0.67072 0.31417 0.0
H96 H 0.9877 0.6219 0.12515 0.0
H97 H 0.83969 0.59713 0.09389 0.0
H98 H 0.83238 0.71596 0.10798 0.0
Co99 Co 0.36703 0.8807 0.21354 0.0
C100 C 0.42344 0.92709 0.1803 0.0
C101 C 0.39213 0.95794 0.21902 0.0
C102 C 0.42074 0.97976 0.20713 0.0
N103 N 0.39436 0.92481 0.20253 0.0
N104 N 0.44037 0.96006 0.18322 0.0
H105 H 0.43408 0.90403 0.16485 0.0
H106 H 0.37302 0.96479 0.24016 0.0
C107 C 0.29325 0.92576 0.22438 0.0
O108 O 0.2732 0.91078 0.19966 0.0
N109 N 0.33938 0.83631 0.22525 0.0
C110 C 0.35054 0.8007 0.22043 0.0
C111 C 0.32398 0.77732 0.23387 0.0
C112 C 0.30668 0.83397 0.24269 0.0
N113 N 0.29652 0.79837 0.24763 0.0
C114 C 0.35956 0.84818 0.14554 0.0
C115 C 0.33271 0.91077 0.11193 0.0
C116 C 0.34217 0.87932 0.09195 0.0
C117 C 0.35517 0.84762 0.1092 0.0
C118 C 0.33757 0.91017 0.1484 0.0
N119 N 0.35074 0.87904 0.16488 0.0
H120 H 0.37243 0.82447 0.15768 0.0
H121 H 0.33306 0.93552 0.163 0.0
H122 H 0.37649 0.79198 0.20856 0.0
H123 H 0.2907 0.85736 0.25211 0.0
O124 O 0.41335 0.85234 0.20944 0.0
O125 O 0.39108 0.87737 0.25811 0.0
O126 O 0.326 0.91445 0.2305 0.0
C127 C 0.41829 0.86 0.24249 0.0
H128 H 0.42838 0.00673 0.21722 0.0
H129 H 0.32486 0.7472 0.23404 0.0
H130 H 0.3235 0.93611 0.09926 0.0
H131 H 0.36363 0.82318 0.09444 0.0
Co132 Co 0.10273 0.64116 0.33721 0.0
C133 C 0.15545 0.7014 0.31755 0.0
C134 C 0.14927 0.65952 0.27778 0.0
C135 C 0.17483 0.68477 0.26607 0.0
N136 N 0.13733 0.66976 0.31 0.0
N137 N 0.17879 0.71078 0.29107 0.0
H138 H 0.15229 0.71676 0.34181 0.0
H139 H 0.14018 0.63508 0.2639 0.0
C140 C 0.13745 0.56344 0.3385 0.0
O141 O 0.12788 0.55908 0.37163 0.0
N142 N 0.06736 0.6115 0.36349 0.0
C143 C 0.0492 0.6207 0.3932 0.0
C144 C 0.02826 0.59095 0.40382 0.0
C145 C 0.05541 0.5771 0.35557 0.0
N146 N 0.0342 0.56211 0.3815 0.0
C147 C 0.11493 0.68052 0.40118 0.0
C148 C 0.16291 0.62982 0.43086 0.0
C149 C 0.14341 0.6547 0.45278 0.0
C150 C 0.12128 0.68191 0.43722 0.0
C151 C 0.15621 0.62994 0.39457 0.0
N152 N 0.12915 0.65227 0.38091 0.0
H153 H 0.09547 0.70024 0.39057 0.0
H154 H 0.17162 0.6109 0.37814 0.0
H155 H 0.04996 0.64748 0.4059 0.0
H156 H 0.06234 0.56351 0.33107 0.0
O157 O 0.06781 0.68261 0.33787 0.0
O158 O 0.07022 0.63905 0.2971 0.0
O159 O 0.13381 0.5954 0.32429 0.0
C160 C 0.05403 0.66874 0.30951 0.0
H161 H 0.18981 0.684 0.24128 0.0
H162 H 0.00905 0.5919 0.42571 0.0
H163 H 0.18164 0.60938 0.44186 0.0
H164 H 0.10663 0.7023 0.45318 0.0
Co165 Co 0.35129 0.10221 0.32573 0.0
C166 C 0.29698 0.15692 0.29935 0.0
C167 C 0.34226 0.14818 0.26301 0.0
C168 C 0.3189 0.17474 0.2493 0.0
N169 N 0.32863 0.13737 0.29446 0.0
N170 N 0.29075 0.18015 0.2723 0.0
H171 H 0.27922 0.15493 0.3223 0.0
H172 H 0.36758 0.13772 0.25102 0.0
C173 C 0.43456 0.12587 0.32227 0.0
O174 O 0.44138 0.11858 0.35523 0.0
N175 N 0.37301 0.06662 0.35792 0.0
C176 C 0.35787 0.05602 0.38898 0.0
C177 C 0.38287 0.03447 0.40684 0.0
C178 C 0.40622 0.04939 0.35647 0.0
N179 N 0.4131 0.03055 0.38631 0.0
C180 C 0.31018 0.13067 0.38471 0.0
C181 C 0.36804 0.16779 0.41537 0.0
C182 C 0.33788 0.15684 0.43652 0.0
C183 C 0.30765 0.14035 0.42022 0.0
C184 C 0.36939 0.15747 0.3798 0.0
N185 N 0.34232 0.13575 0.36589 0.0
H186 H 0.28769 0.11506 0.37375 0.0
H187 H 0.39297 0.16563 0.3643 0.0
H188 H 0.3306 0.06352 0.39852 0.0
H189 H 0.42561 0.05142 0.33473 0.0
O190 O 0.30546 0.07329 0.3272 0.0
O191 O 0.35122 0.06524 0.28889 0.0
O192 O 0.40145 0.12416 0.31064 0.0
C193 C 0.31884 0.05512 0.30031 0.0
H194 H 0.32249 0.18942 0.22471 0.0
H195 H 0.37955 0.02318 0.43302 0.0
H196 H 0.39132 0.18209 0.42674 0.0
H197 H 0.2834 0.13235 0.43541 0.0
Co198 Co 0.87578 0.3649 0.31954 0.0
C199 C 0.83011 0.30338 0.29305 0.0
C200 C 0.81878 0.35464 0.26626 0.0
C201 C 0.79256 0.3292 0.25692 0.0
N202 N 0.84186 0.3388 0.28958 0.0
N203 N 0.7996 0.29699 0.27375 0.0
H204 H 0.84219 0.28337 0.31085 0.0
H205 H 0.81945 0.38325 0.25764 0.0
C206 C 0.8514 0.44749 0.31386 0.0
O207 O 0.86105 0.4562 0.34592 0.0
N208 N 0.90951 0.39036 0.34992 0.0
C209 C 0.92064 0.37882 0.38185 0.0
C210 C 0.94622 0.40331 0.39433 0.0
C211 C 0.92939 0.42107 0.34294 0.0
N212 N 0.95109 0.42997 0.37002 0.0
C213 C 0.84772 0.32667 0.37971 0.0
C214 C 0.80975 0.38638 0.40843 0.0
C215 C 0.82236 0.35806 0.43077 0.0
C216 C 0.83904 0.32664 0.41554 0.0
C217 C 0.81975 0.38555 0.37272 0.0
N218 N 0.842 0.35775 0.35975 0.0
H219 H 0.86339 0.30342 0.36939 0.0
H220 H 0.81122 0.4083 0.35643 0.0
H221 H 0.91192 0.35378 0.39499 0.0
H222 H 0.92805 0.43673 0.31878 0.0
O223 O 0.90671 0.32052 0.32437 0.0
O224 O 0.91418 0.36329 0.28346 0.0
O225 O 0.8523 0.41368 0.30333 0.0
C226 C 0.92653 0.33323 0.29836 0.0
H227 H 0.76928 0.33426 0.23987 0.0
H228 H 0.96005 0.40195 0.41934 0.0
H229 H 0.79505 0.41033 0.41897 0.0
H230 H 0.84806 0.30354 0.43165 0.0
Co231 Co 0.6116 0.87661 0.3379 0.0
C232 C 0.56874 0.93709 0.37486 0.0
C233 C 0.56884 0.94272 0.31889 0.0
C234 C 0.5454 0.9691 0.33295 0.0
N235 N 0.58259 0.92168 0.34509 0.0
N236 N 0.54516 0.96516 0.36806 0.0
H237 H 0.57486 0.92833 0.40104 0.0
H238 H 0.57393 0.93807 0.29123 0.0
C239 C 0.68527 0.91335 0.31049 0.0
O240 O 0.70827 0.88531 0.31446 0.0
N241 N 0.6401 0.83182 0.3305 0.0
C242 C 0.63999 0.80263 0.35275 0.0
C243 C 0.66328 0.77557 0.33976 0.0
C244 C 0.66246 0.82168 0.30351 0.0
N245 N 0.67741 0.78772 0.30908 0.0
C246 C 0.60338 0.86713 0.41185 0.0
C247 C 0.67548 0.88142 0.43073 0.0
C248 C 0.64908 0.87397 0.45713 0.0
C249 C 0.61265 0.86677 0.44715 0.0
C250 C 0.66447 0.88347 0.39557 0.0
N251 N 0.62845 0.87739 0.38653 0.0
H252 H 0.57518 0.86081 0.40507 0.0
H253 H 0.68522 0.88891 0.37591 0.0
H254 H 0.6244 0.80127 0.37711 0.0
H255 H 0.66836 0.83887 0.28083 0.0
O256 O 0.56764 0.84632 0.34421 0.0
O257 O 0.5865 0.86939 0.29352 0.0
O258 O 0.65133 0.91147 0.3201 0.0
C259 C 0.56103 0.8518 0.31122 0.0
H260 H 0.52799 0.98819 0.31846 0.0
H261 H 0.67045 0.74953 0.35234 0.0
H262 H 0.70424 0.88588 0.43727 0.0
H263 H 0.59145 0.86036 0.46658 0.0
Co264 Co 0.86372 0.60877 0.8323 0.0
C265 C 0.81295 0.66523 0.8022 0.0
C266 C 0.85697 0.65129 0.76621 0.0
C267 C 0.83488 0.67829 0.75106 0.0
N268 N 0.84366 0.64383 0.79869 0.0
N269 N 0.80736 0.68684 0.77395 0.0
H270 H 0.79501 0.66606 0.82486 0.0
H271 H 0.88142 0.63849 0.75462 0.0
C272 C 0.92727 0.66157 0.81663 0.0
O273 O 0.90581 0.69096 0.82064 0.0
N274 N 0.88199 0.57422 0.86635 0.0
C275 C 0.86351 0.56289 0.89549 0.0
C276 C 0.88696 0.54175 0.91555 0.0
C277 C 0.91607 0.55957 0.86865 0.0
N278 N 0.91959 0.53956 0.89827 0.0
C279 C 0.81584 0.64156 0.88527 0.0
C280 C 0.87345 0.66052 0.92857 0.0
C281 C 0.83745 0.65961 0.94275 0.0
C282 C 0.80813 0.65263 0.91989 0.0
C283 C 0.87968 0.65205 0.89327 0.0
N284 N 0.85137 0.64098 0.87224 0.0
H285 H 0.7936 0.62969 0.87038 0.0
H286 H 0.90805 0.64958 0.88462 0.0
H287 H 0.83497 0.56959 0.90177 0.0
H288 H 0.93773 0.56301 0.84901 0.0
O289 O 0.81914 0.57831 0.82848 0.0
O290 O 0.87004 0.57251 0.79573 0.0
O291 O 0.91531 0.62934 0.8249 0.0
C292 C 0.83734 0.56058 0.80365 0.0
H293 H 0.83894 0.69104 0.72559 0.0
H294 H 0.88039 0.52806 0.94014 0.0
H295 H 0.89706 0.66541 0.94518 0.0
H296 H 0.77983 0.65174 0.9297 0.0
Co297 Co 0.39319 0.86303 0.82307 0.0
C298 C 0.35117 0.8048 0.78368 0.0
C299 C 0.31562 0.84092 0.81373 0.0
C300 C 0.29424 0.81397 0.79896 0.0
N301 N 0.35141 0.83587 0.80387 0.0
N302 N 0.31652 0.79135 0.78016 0.0
H303 H 0.3756 0.79078 0.77373 0.0
H304 H 0.30572 0.86037 0.83318 0.0
C305 C 0.34444 0.93186 0.80287 0.0
O306 O 0.31594 0.92403 0.82312 0.0
N307 N 0.4341 0.88914 0.84379 0.0
C308 C 0.4526 0.87674 0.87212 0.0
C309 C 0.47427 0.90484 0.88465 0.0
C310 C 0.44484 0.92471 0.83934 0.0
N311 N 0.46924 0.93478 0.86407 0.0
C312 C 0.36067 0.8363 0.88715 0.0
C313 C 0.35449 0.90516 0.91927 0.0
C314 C 0.34957 0.87308 0.93956 0.0
C315 C 0.3516 0.83832 0.92298 0.0
C316 C 0.36361 0.90186 0.88366 0.0
N317 N 0.36742 0.86782 0.86815 0.0
H318 H 0.36445 0.80933 0.87504 0.0
H319 H 0.37046 0.92657 0.86921 0.0
H320 H 0.4486 0.84991 0.88438 0.0
H321 H 0.43359 0.94353 0.81997 0.0
O322 O 0.42053 0.81678 0.83075 0.0
O323 O 0.42427 0.85103 0.78294 0.0
O324 O 0.37379 0.91167 0.80251 0.0
C325 C 0.4369 0.82287 0.80059 0.0
H326 H 0.26488 0.80972 0.80355 0.0
H327 H 0.49109 0.90405 0.90796 0.0
H328 H 0.35361 0.93243 0.93134 0.0
H329 H 0.34823 0.81295 0.938 0.0
Co330 Co 0.11389 0.39099 0.82436 0.0
C331 C 0.06687 0.43807 0.86791 0.0
C332 C 0.09281 0.47011 0.82686 0.0
C333 C 0.06725 0.49228 0.84406 0.0
N334 N 0.09114 0.43586 0.84104 0.0
N335 N 0.05064 0.47169 0.86928 0.0
H336 H 0.05902 0.41466 0.88421 0.0
H337 H 0.109 0.47747 0.80391 0.0
C338 C 0.19028 0.42881 0.81367 0.0
O339 O 0.20869 0.40734 0.83533 0.0
N340 N 0.13729 0.34508 0.80781 0.0
C341 C 0.12385 0.31043 0.8126 0.0
C342 C 0.14891 0.28487 0.79964 0.0
C343 C 0.17038 0.3399 0.79129 0.0
N344 N 0.17815 0.30341 0.78651 0.0
C345 C 0.12368 0.35364 0.89051 0.0
C346 C 0.15495 0.41334 0.92472 0.0
C347 C 0.14331 0.38269 0.94445 0.0
C348 C 0.12831 0.35221 0.92693 0.0
C349 C 0.14956 0.41376 0.88843 0.0
N350 N 0.13393 0.38426 0.87154 0.0
H351 H 0.10898 0.33132 0.87826 0.0
H352 H 0.15469 0.43937 0.87458 0.0
H353 H 0.09811 0.3037 0.82575 0.0
H354 H 0.18891 0.36181 0.78352 0.0
O355 O 0.06576 0.36608 0.83001 0.0
O356 O 0.08464 0.39405 0.78168 0.0
O357 O 0.15631 0.42281 0.80691 0.0
C358 C 0.05796 0.37721 0.79836 0.0
H359 H 0.05954 0.52043 0.83705 0.0
H360 H 0.14643 0.25488 0.80061 0.0
H361 H 0.16573 0.43779 0.93756 0.0
H362 H 0.11828 0.32838 0.94154 0.0
Co363 Co 0.59932 0.15254 0.83899 0.0
C364 C 0.66199 0.20221 0.81602 0.0
C365 C 0.63467 0.17488 0.77349 0.0
C366 C 0.66298 0.1956 0.75974 0.0
N367 N 0.63407 0.17859 0.80877 0.0
N368 N 0.68017 0.21253 0.78634 0.0
H369 H 0.6693 0.21124 0.84206 0.0
H370 H 0.61653 0.1572 0.75863 0.0
C371 C 0.65258 0.09313 0.81003 0.0
O372 O 0.6782 0.11737 0.80161 0.0
N373 N 0.56399 0.12606 0.86748 0.0
C374 C 0.55215 0.13187 0.90078 0.0
C375 C 0.53034 0.10218 0.9109 0.0
C376 C 0.54835 0.09415 0.85749 0.0
N377 N 0.52831 0.07877 0.88343 0.0
C378 C 0.62266 0.19244 0.89993 0.0
C379 C 0.65678 0.13252 0.93191 0.0
C380 C 0.64598 0.16297 0.95267 0.0
C381 C 0.63039 0.19399 0.93592 0.0
C382 C 0.64775 0.13169 0.89629 0.0
N383 N 0.62904 0.16063 0.88104 0.0
H384 H 0.60814 0.21555 0.88816 0.0
H385 H 0.65316 0.10621 0.8823 0.0
H386 H 0.55961 0.15519 0.91699 0.0
H387 H 0.55291 0.08135 0.83224 0.0
O388 O 0.5669 0.19646 0.84024 0.0
O389 O 0.56468 0.15117 0.80109 0.0
O390 O 0.6238 0.10293 0.82781 0.0
C391 C 0.55097 0.18212 0.81292 0.0
H392 H 0.67074 0.19789 0.73229 0.0
H393 H 0.51807 0.09745 0.93656 0.0
H394 H 0.66924 0.10817 0.94382 0.0
H395 H 0.62196 0.21822 0.95096 0.0
Co396 Co 0.85861 0.38565 0.70401 0.0
C397 C 0.90972 0.44906 0.69544 0.0
C398 C 0.85901 0.45862 0.66836 0.0
C399 C 0.88281 0.48761 0.66079 0.0
N400 N 0.8758 0.43469 0.69054 0.0
N401 N 0.91446 0.48109 0.67805 0.0
H402 H 0.93184 0.43573 0.70942 0.0
H403 H 0.83227 0.45409 0.65674 0.0
C404 C 0.78848 0.43238 0.72553 0.0
O405 O 0.75218 0.43235 0.72319 0.0
N406 N 0.84126 0.33683 0.7165 0.0
C407 C 0.85116 0.30432 0.70137 0.0
C408 C 0.82852 0.27671 0.71453 0.0
C409 C 0.8133 0.32866 0.73887 0.0
N410 N 0.80478 0.29229 0.73791 0.0
C411 C 0.87764 0.37536 0.63154 0.0
C412 C 0.80625 0.36698 0.6071 0.0
C413 C 0.83577 0.36771 0.58281 0.0
C414 C 0.8719 0.37115 0.59554 0.0
C415 C 0.81328 0.37018 0.64304 0.0
N416 N 0.84853 0.37551 0.65477 0.0
H417 H 0.9055 0.37956 0.64077 0.0
H418 H 0.79016 0.36888 0.66124 0.0
H419 H 0.87212 0.30128 0.68102 0.0
H420 H 0.79758 0.34901 0.75368 0.0
O421 O 0.90951 0.36751 0.70636 0.0
O422 O 0.87823 0.39127 0.7511 0.0
O423 O 0.80631 0.4053 0.71119 0.0
C424 C 0.9091 0.37667 0.73936 0.0
H425 H 0.87797 0.51064 0.6431 0.0
H426 H 0.82827 0.24785 0.70644 0.0
H427 H 0.77798 0.36415 0.59831 0.0
H428 H 0.89544 0.37173 0.57762 0.0
Co429 Co 0.61756 0.87301 0.72674 0.0
C430 C 0.66881 0.8131 0.75368 0.0
C431 C 0.69606 0.86479 0.74311 0.0
C432 C 0.72251 0.83883 0.75098 0.0
N433 N 0.66219 0.84907 0.74466 0.0
N434 N 0.70558 0.80634 0.75733 0.0
H435 H 0.64778 0.79187 0.75557 0.0
H436 H 0.70194 0.89244 0.73416 0.0
C437 C 0.65544 0.94948 0.74146 0.0
O438 O 0.67559 0.95103 0.71259 0.0
N439 N 0.57338 0.89756 0.70813 0.0
C440 C 0.54684 0.88184 0.6887 0.0
C441 C 0.52572 0.90939 0.67379 0.0
C442 C 0.56721 0.93451 0.70493 0.0
N443 N 0.54014 0.94294 0.68186 0.0
C444 C 0.65743 0.84698 0.6662 0.0
C445 C 0.64498 0.90822 0.6242 0.0
C446 C 0.6591 0.87568 0.60874 0.0
C447 C 0.66755 0.84557 0.63067 0.0
C448 C 0.6375 0.90922 0.66022 0.0
N449 N 0.64192 0.87829 0.68068 0.0
H450 H 0.65994 0.82196 0.68157 0.0
H451 H 0.62647 0.93457 0.67086 0.0
H452 H 0.54375 0.85245 0.68406 0.0
H453 H 0.58395 0.9547 0.71758 0.0
O454 O 0.59391 0.82505 0.71972 0.0
O455 O 0.58946 0.85875 0.76787 0.0
O456 O 0.63449 0.92176 0.74759 0.0
C457 C 0.57907 0.8294 0.75086 0.0
H458 H 0.75222 0.84297 0.75058 0.0
H459 H 0.50164 0.90436 0.65799 0.0
H460 H 0.63846 0.93236 0.60836 0.0
H461 H 0.6789 0.82 0.61985 0.0
Co462 Co 0.13944 0.60471 0.72537 0.0
C463 C 0.20692 0.65244 0.73185 0.0
C464 C 0.15632 0.68251 0.74218 0.0
C465 C 0.18537 0.70629 0.74663 0.0
N466 N 0.16956 0.6486 0.73296 0.0
N467 N 0.217 0.68743 0.74032 0.0
H468 H 0.22636 0.63024 0.72583 0.0
H469 H 0.12749 0.68995 0.74576 0.0
C470 C 0.06115 0.63825 0.73483 0.0
O471 O 0.05219 0.63209 0.70215 0.0
N472 N 0.10837 0.56108 0.71819 0.0
C473 C 0.10504 0.5313 0.73966 0.0
C474 C 0.07497 0.51075 0.72981 0.0
C475 C 0.0804 0.55743 0.69514 0.0
N476 N 0.0592 0.52765 0.70229 0.0
C477 C 0.1469 0.59391 0.65229 0.0
C478 C 0.12148 0.66222 0.62928 0.0
C479 C 0.13533 0.63643 0.60459 0.0
C480 C 0.14807 0.60201 0.61657 0.0
C481 C 0.12133 0.65315 0.66526 0.0
N482 N 0.13355 0.61905 0.67628 0.0
H483 H 0.15683 0.56702 0.6608 0.0
H484 H 0.11158 0.67354 0.68405 0.0
H485 H 0.12125 0.52599 0.76271 0.0
H486 H 0.07408 0.57706 0.67462 0.0
O487 O 0.18334 0.57373 0.71935 0.0
O488 O 0.15562 0.58464 0.76994 0.0
O489 O 0.09428 0.63241 0.74511 0.0
C490 C 0.18207 0.56733 0.75288 0.0
H491 H 0.18357 0.73517 0.75458 0.0
H492 H 0.0636 0.4872 0.74364 0.0
H493 H 0.11133 0.68915 0.62085 0.0
H494 H 0.15873 0.58137 0.59829 0.0
Co495 Co 0.37866 0.14232 0.70639 0.0
C496 C 0.32099 0.19903 0.72612 0.0
C497 C 0.3238 0.15314 0.76217 0.0
C498 C 0.29668 0.17732 0.77377 0.0
N499 N 0.33879 0.16646 0.73217 0.0
N500 N 0.29488 0.20593 0.75107 0.0
H501 H 0.32686 0.21736 0.70431 0.0
H502 H 0.33229 0.12768 0.77499 0.0
C503 C 0.36046 0.05885 0.7096 0.0
O504 O 0.37757 0.05096 0.67994 0.0
N505 N 0.41928 0.11847 0.6811 0.0
C506 C 0.43273 0.12772 0.64905 0.0
C507 C 0.46098 0.10356 0.64009 0.0
C508 C 0.44092 0.09005 0.69194 0.0
N509 N 0.4655 0.07972 0.6669 0.0
C510 C 0.3582 0.18282 0.64472 0.0
C511 C 0.32867 0.12378 0.60847 0.0
C512 C 0.33824 0.15609 0.58988 0.0
C513 C 0.3515 0.18645 0.60877 0.0
C514 C 0.33583 0.12129 0.64454 0.0
N515 N 0.35272 0.14975 0.66181 0.0
H516 H 0.37102 0.2058 0.65796 0.0
H517 H 0.32935 0.09571 0.65772 0.0
H518 H 0.42275 0.15018 0.6329 0.0
H519 H 0.43758 0.0759 0.7168 0.0
O520 O 0.408 0.18781 0.70761 0.0
O521 O 0.4086 0.1436 0.74781 0.0
O522 O 0.35402 0.09272 0.71839 0.0
C523 C 0.42178 0.17491 0.73662 0.0
H524 H 0.27964 0.17435 0.79718 0.0
H525 H 0.47611 0.10258 0.61539 0.0
H526 H 0.31762 0.09996 0.59484 0.0
H527 H 0.35885 0.21202 0.59542 0.0
C528 C 0.9917 0.52859 0.14269 0.0
C529 C 0.99207 0.55644 0.16888 0.0
C530 C 0.02297 0.51426 0.20925 0.0
C531 C 0.02164 0.48625 0.1835 0.0
N532 N 0.01837 0.47041 0.12232 0.0
N533 N 0.01704 0.58027 0.22232 0.0
C534 C 0.01036 0.49458 0.14899 0.0
C535 C 0.01114 0.55074 0.20064 0.0
N536 N 0.97154 0.53361 0.11299 0.0
N537 N 0.03351 0.50431 0.24213 0.0
H538 H 0.00849 0.60718 0.21575 0.0
H539 H 0.03323 0.5789 0.2447 0.0
H540 H 0.03307 0.522 0.2638 0.0
H541 H 0.03307 0.522 0.2638 0.0
H542 H 0.96697 0.51244 0.09493 0.0
H543 H 0.95727 0.55819 0.10758 0.0
H544 H 0.01329 0.47643 0.09607 0.0
H545 H 0.03402 0.44628 0.12617 0.0
C546 C 0.54382 0.96546 0.17982 0.0
C547 C 0.54744 -0.00227 0.15921 0.0
C548 C 0.48162 -0.00314 0.14584 0.0
C549 C 0.477 0.9688 0.1714 0.0
N550 N 0.50274 0.92731 0.21469 0.0
N551 N 0.52168 0.04488 0.12203 0.0
C552 C 0.50794 0.95263 0.18842 0.0
C553 C 0.51696 0.01323 0.14134 0.0
N554 N 0.57492 0.94825 0.19211 0.0
N555 N 0.4519 0.00793 0.12655 0.0
H556 H 0.54768 0.05681 0.118 0.0
H557 H 0.49993 0.06009 0.11132 0.0
H558 H 0.42575 -0.00393 0.12996 0.0
H559 H 0.45369 0.02649 0.10564 0.0
H560 H 0.57466 0.92281 0.20519 0.0
H561 H 0.60147 0.95811 0.18637 0.0
H562 H 0.52382 0.91757 0.23075 0.0
H563 H 0.47668 0.91794 0.22223 0.0
C564 C 0.00501 0.46696 0.35149 0.0
C565 C 0.9736 0.4623 0.37352 0.0
C566 C 0.99276 0.51457 0.40934 0.0
C567 C 0.0191 0.52449 0.38323 0.0
N568 N 0.06472 0.49554 0.34552 0.0
N569 N 0.93447 0.48451 0.4209 0.0
C570 C 0.02929 0.49691 0.35804 0.0
C571 C 0.96657 0.48694 0.40174 0.0
N572 N 0.01221 0.44225 0.32501 0.0
N573 N -0.00345 0.52661 0.44298 0.0
H574 H 0.91367 0.46559 0.41497 0.0
H575 H 0.92717 0.50391 0.44016 0.0
H576 H 0.02084 0.53938 0.45118 0.0
H577 H 0.97922 0.51795 0.46346 0.0
H578 H 0.03176 0.44701 0.30518 0.0
H579 H -0.00253 0.41768 0.32187 0.0
H580 H 0.07506 0.4752 0.32855 0.0
H581 H 0.08513 0.51099 0.35748 0.0
C582 C 0.48717 0.95959 0.40183 0.0
C583 C 0.51776 0.98143 0.39108 0.0
C584 C 0.47938 0.03675 0.39806 0.0
C585 C 0.44776 0.01401 0.39568 0.0
N586 N 0.4208 0.95288 0.39729 0.0
N587 N 0.54503 0.04162 0.3847 0.0
C588 C 0.45124 0.97507 0.39902 0.0
C589 C 0.51465 0.02051 0.39192 0.0
N590 N 0.49234 0.92458 0.4146 0.0
N591 N 0.4753 0.07336 0.40642 0.0
H592 H 0.57124 0.02955 0.38115 0.0
H593 H 0.54379 0.07034 0.38114 0.0
H594 H 0.44934 0.08453 0.41305 0.0
H595 H 0.49762 0.09105 0.41035 0.0
H596 H 0.4707 0.90861 0.42474 0.0
H597 H 0.51856 0.91336 0.41872 0.0
H598 H 0.42259 0.92395 0.39615 0.0
H599 H 0.39404 0.96351 0.39459 0.0
C600 C 0.95037 0.47946 0.89516 0.0
C601 C 0.95086 0.51682 0.90611 0.0
C602 C 0.01818 0.5153 0.90801 0.0
C603 C 0.01766 0.48204 0.88831 0.0
N604 N 0.98236 0.43167 0.86262 0.0
N605 N 0.98351 0.57004 0.92671 0.0
C606 C 0.98367 0.46309 0.88267 0.0
C607 C 0.98438 0.53434 0.91461 0.0
N608 N 0.91772 0.4605 0.89492 0.0
N609 N 0.05121 0.52877 0.91931 0.0
H610 H 0.95853 0.58371 0.93251 0.0
H611 H 0.00705 0.58626 0.9298 0.0
H612 H 0.07613 0.51454 0.9147 0.0
H613 H 0.0535 0.55186 0.93559 0.0
H614 H 0.91604 0.43202 0.89027 0.0
H615 H 0.89266 0.4724 0.90301 0.0
H616 H 0.95777 0.41998 0.85402 0.0
H617 H 0.00538 0.41821 0.85214 0.0
C618 C 0.46011 0.00063 0.88055 0.0
C619 C 0.48403 0.97111 0.87017 0.0
C620 C 0.53757 0.01141 0.87707 0.0
C621 C 0.51324 0.04203 0.88248 0.0
N622 N 0.45138 0.06734 0.88431 0.0
N623 N 0.54493 0.94876 0.85443 0.0
C624 C 0.47444 0.0371 0.88295 0.0
C625 C 0.52272 0.97657 0.86737 0.0
N626 N 0.42422 0.99342 0.8897 0.0
N627 N 0.57474 0.01575 0.88187 0.0
H628 H 0.53446 0.9233 0.84614 0.0
H629 H 0.57313 0.95192 0.8492 0.0
H630 H 0.58607 0.04081 0.89023 0.0
H631 H 0.59378 0.99387 0.88094 0.0
H632 H 0.40626 0.01336 0.90033 0.0
H633 H 0.41377 0.96652 0.89021 0.0
H634 H 0.42282 0.0656 0.88097 0.0
H635 H 0.46122 0.0945 0.88592 0.0
C636 C 0.95499 0.52705 0.70434 0.0
C637 C 0.94854 0.50131 0.67723 0.0
C638 C 0.01455 0.50083 0.66126 0.0
C639 C 0.0216 0.52233 0.6914 0.0
N640 N -0.00019 0.5577 0.74114 0.0
N641 N 0.97011 0.46397 0.62897 0.0
C642 C 0.99202 0.53652 0.7125 0.0
C643 C 0.97774 0.48886 0.65491 0.0
N644 N 0.92538 0.54139 0.72264 0.0
N645 N 0.04333 0.49161 0.63928 0.0
H646 H 0.94308 0.45585 0.62346 0.0
H647 H 0.99022 0.4506 0.61369 0.0
H648 H 0.07052 0.49969 0.64418 0.0
H649 H 0.04022 0.47811 0.61538 0.0
H650 H 0.92724 0.56212 0.74153 0.0
H651 H 0.89814 0.53403 0.71709 0.0
H652 H 0.9803 0.56638 0.75976 0.0
H653 H 0.02667 0.56578 0.74693 0.0
C654 C 0.5221 0.04595 0.68363 0.0
C655 C 0.48766 0.04648 0.66646 0.0
C656 C 0.49909 0.98334 0.64526 0.0
C657 C 0.52833 0.97968 0.66946 0.0
N658 N 0.58147 0.01495 0.68721 0.0
N659 N 0.44317 0.0163 0.62958 0.0
C660 C 0.54418 0.01307 0.6823 0.0
C661 C 0.4762 0.01544 0.6466 0.0
N662 N 0.53373 0.07704 0.7007 0.0
N663 N 0.49676 0.95914 0.61787 0.0
H664 H 0.42604 0.03974 0.62923 0.0
H665 H 0.4318 0.99284 0.61791 0.0
H666 H 0.51783 0.93984 0.61252 0.0
H667 H 0.47768 0.96212 0.59775 0.0
H668 H 0.55748 0.07773 0.71587 0.0
H669 H 0.51848 0.10182 0.70088 0.0
H670 H 0.59514 0.039 0.6948 0.0
H671 H 0.59923 0.99417 0.67775 0.0
C672 C 0.23565 0.26859 0.28305 0.0
C673 C 0.21231 0.26568 0.25372 0.0
C674 C 0.23418 0.20205 0.24335 0.0
C675 C 0.26157 0.20725 0.26908 0.0
N676 N 0.2904 0.24562 0.31252 0.0
N677 N 0.18915 0.23097 0.20498 0.0
C678 C 0.26247 0.24034 0.28922 0.0
C679 C 0.21101 0.23246 0.23391 0.0
N680 N 0.23218 0.29882 0.30451 0.0
N681 N 0.23064 0.16791 0.22814 0.0
H682 H 0.17159 0.2528 0.19786 0.0
H683 H 0.18976 0.20911 0.18709 0.0
H684 H 0.24746 0.14537 0.23496 0.0
H685 H 0.20938 0.1611 0.21115 0.0
H686 H 0.24614 0.30158 0.32808 0.0
H687 H 0.21265 0.3198 0.30001 0.0
H688 H 0.29489 0.27063 0.32547 0.0
H689 H 0.31083 0.22566 0.31719 0.0
C690 C 0.76401 0.24661 0.30402 0.0
C691 C 0.7766 0.26425 0.27273 0.0
C692 C 0.73253 0.22771 0.23932 0.0
C693 C 0.72363 0.20659 0.26971 0.0
N694 N 0.74049 0.18934 0.32863 0.0
N695 N 0.78067 0.26225 0.20958 0.0
C696 C 0.74241 0.21391 0.3014 0.0
C697 C 0.76344 0.25167 0.24 0.0
N698 N 0.77016 0.26209 0.33607 0.0
N699 N 0.71026 0.22709 0.21065 0.0
H700 H 0.80486 0.27801 0.20938 0.0
H701 H 0.77342 0.25163 0.18518 0.0
H702 H 0.68493 0.21335 0.2104 0.0
H703 H 0.71463 0.24429 0.18897 0.0
H704 H 0.75888 0.25125 0.3592 0.0
H705 H 0.78227 0.28805 0.33923 0.0
H706 H 0.75602 0.19241 0.35131 0.0
H707 H 0.72704 0.16385 0.32667 0.0
C708 C 0.69957 0.7416 0.26627 0.0
C709 C 0.70746 0.77012 0.29048 0.0
C710 C 0.77347 0.75486 0.28711 0.0
C711 C 0.76482 0.72292 0.26739 0.0
N712 N 0.72084 0.6848 0.23763 0.0
N713 N 0.75074 0.80341 0.32595 0.0
C714 C 0.72822 0.7163 0.25619 0.0
C715 C 0.74425 0.77711 0.30098 0.0
N716 N 0.66444 0.73863 0.25373 0.0
N717 N 0.80975 0.76344 0.29262 0.0
H718 H 0.72969 0.81992 0.33678 0.0
H719 H 0.77636 0.80727 0.3376 0.0
H720 H 0.83151 0.74718 0.28261 0.0
H721 H 0.81831 0.78803 0.30431 0.0
H722 H 0.65693 0.72014 0.23412 0.0
H723 H 0.64323 0.75688 0.26144 0.0
H724 H 0.69427 0.67622 0.23131 0.0
H725 H 0.74161 0.6661 0.22986 0.0
C726 C 0.23839 0.73933 0.30626 0.0
C727 C 0.20419 0.74121 0.28855 0.0
C728 C 0.22894 0.78779 0.24805 0.0
C729 C 0.26367 0.78464 0.26473 0.0
N730 N 0.29892 0.76679 0.31496 0.0
N731 N 0.16317 0.77357 0.25008 0.0
C732 C 0.26737 0.76361 0.29585 0.0
C733 C 0.19823 0.76808 0.26214 0.0
N734 N 0.24396 0.71259 0.33111 0.0
N735 N 0.22607 0.80721 0.2174 0.0
H736 H 0.14059 0.75887 0.26028 0.0
H737 H 0.15603 0.79463 0.23261 0.0
H738 H 0.24824 0.82146 0.20605 0.0
H739 H 0.20245 0.80731 0.202 0.0
H740 H 0.26965 0.70696 0.34213 0.0
H741 H 0.22313 0.69455 0.33942 0.0
H742 H 0.30243 0.75447 0.33943 0.0
H743 H 0.32025 0.78477 0.30757 0.0
C744 C 0.72757 0.74349 0.73892 0.0
C745 C 0.72516 0.77212 0.7645 0.0
C746 C 0.77808 0.74512 0.79519 0.0
C747 C 0.77932 0.71539 0.77079 0.0
N748 N 0.75006 0.68147 0.72454 0.0
N749 N 0.74159 0.79508 0.82118 0.0
C750 C 0.75239 0.71308 0.74417 0.0
C751 C 0.74825 0.77097 0.79416 0.0
N752 N 0.70779 0.74633 0.70877 0.0
N753 N 0.80661 0.74997 0.81791 0.0
H754 H 0.71949 0.81399 0.8209 0.0
H755 H 0.75544 0.79376 0.84497 0.0
H756 H 0.83008 0.7329 0.81789 0.0
H757 H 0.80884 0.77308 0.83418 0.0
H758 H 0.7116 0.72851 0.68748 0.0
H759 H 0.68936 0.76809 0.70407 0.0
H760 H 0.7288 0.67667 0.70691 0.0
H761 H 0.7675 0.65859 0.72835 0.0
C762 C 0.2703 0.69996 0.77801 0.0
C763 C 0.25329 0.70288 0.74486 0.0
C764 C 0.29109 0.75717 0.73031 0.0
C765 C 0.30458 0.75693 0.76494 0.0
N766 N 0.31597 0.72421 0.81843 0.0
N767 N 0.25323 0.72681 0.68636 0.0
C768 C 0.29753 0.72646 0.78746 0.0
C769 C 0.26625 0.72882 0.71975 0.0
N770 N 0.25809 0.67365 0.80119 0.0
N771 N 0.30022 0.78607 0.70871 0.0
H772 H 0.23477 0.70609 0.67888 0.0
H773 H 0.26229 0.74363 0.66581 0.0
H774 H 0.31898 0.80649 0.71621 0.0
H775 H 0.28906 0.7903 0.68399 0.0
H776 H 0.26632 0.67199 0.82719 0.0
H777 H 0.23863 0.65369 0.79437 0.0
H778 H 0.31404 0.70185 0.83568 0.0
H779 H 0.33558 0.74395 0.82556 0.0
C780 C 0.23795 0.23923 0.73308 0.0
C781 C 0.26983 0.23716 0.75431 0.0
C782 C 0.2438 0.28472 0.7937 0.0
C783 C 0.21155 0.28626 0.77288 0.0
N784 N 0.18109 0.27248 0.71901 0.0
N785 N 0.30765 0.26355 0.79895 0.0
C786 C 0.20989 0.26603 0.74112 0.0
C787 C 0.27424 0.26208 0.78262 0.0
N788 N 0.23351 0.21401 0.70673 0.0
N789 N 0.24425 0.30282 0.82517 0.0
H790 H 0.33015 0.24706 0.79095 0.0
H791 H 0.31405 0.28314 0.818 0.0
H792 H 0.22229 0.31937 0.83416 0.0
H793 H 0.26527 0.2996 0.8434 0.0
H794 H 0.20917 0.2113 0.69262 0.0
H795 H 0.25365 0.19415 0.70027 0.0
H796 H 0.17938 0.26099 0.69403 0.0
H797 H 0.16041 0.29209 0.72472 0.0
C798 C 0.77843 0.24584 0.77875 0.0
C799 C 0.77312 0.27487 0.75415 0.0
C800 C 0.706 0.2697 0.76195 0.0
C801 C 0.71123 0.23695 0.78181 0.0
N802 N 0.75216 0.19162 0.80738 0.0
N803 N 0.73183 0.31101 0.71812 0.0
C804 C 0.74742 0.22462 0.79023 0.0
C805 C 0.73685 0.28631 0.74491 0.0
N806 N 0.81308 0.23901 0.79127 0.0
N807 N 0.67116 0.28432 0.75907 0.0
H808 H 0.75373 0.32198 0.70344 0.0
H809 H 0.70592 0.31772 0.70807 0.0
H810 H 0.64827 0.27233 0.7716 0.0
H811 H 0.66566 0.30992 0.74735 0.0
H812 H 0.81841 0.22039 0.81156 0.0
H813 H 0.83608 0.2545 0.78336 0.0
H814 H 0.77793 0.17902 0.81081 0.0
H815 H 0.72997 0.17565 0.81632 0.0
C816 C 0.108 0.39618 0.0385 0.0
C817 C 0.13957 0.38514 0.05796 0.0
C818 C 0.17352 0.37154 1.00297 0.0
C819 C 0.14262 0.38434 0.98359 0.0
N820 N 0.08277 0.41462 0.98234 0.0
N821 N 0.20416 0.368 0.05933 0.0
C822 C 0.11058 0.39848 1.00124 0.0
C823 C 0.17289 0.37445 0.04032 0.0
N824 N 0.07505 0.40291 0.05557 0.0
N825 N 0.2031 0.3558 0.98566 0.0
H826 H 0.20458 0.36983 0.08664 0.0
H827 H 0.2303 0.36377 0.04812 0.0
H828 H 0.2049 0.35425 0.95836 0.0
H829 H 0.22473 0.34212 0.9982 0.0
H830 H 0.05 0.4068 0.04278 0.0
H831 H 0.07201 0.40183 0.08279 0.0
H832 H 0.06078 0.42937 0.99371 0.0
H833 H 0.08299 0.41582 0.955 0.0
C834 C 0.62459 0.133 1.00933 0.0
C835 C 0.64666 0.16024 0.99202 0.0
C836 C 0.66654 0.18326 0.04969 0.0
C837 C 0.64757 0.15349 0.06649 0.0
N838 N 0.61626 0.09461 0.06088 0.0
N839 N 0.69352 0.20751 0.99566 0.0
C840 C 0.62884 0.12679 0.04588 0.0
C841 C 0.66901 0.18438 1.01221 0.0
N842 N 0.59834 0.11395 0.99122 0.0
N843 N 0.68121 0.21107 0.06946 0.0
H844 H 0.69634 0.20876 0.96842 0.0
H845 H 0.71325 0.22297 1.00888 0.0
H846 H 0.67978 0.21121 0.0968 0.0
H847 H 0.69197 0.23544 0.05875 0.0
H848 H 0.57888 0.09676 1.00336 0.0
H849 H 0.59336 0.11824 0.96467 0.0
H850 H 0.60585 0.07256 0.04636 0.0
H851 H 0.61983 0.08818 0.0873 0.0
C852 C 0.81188 0.63465 1.0009 0.0
C853 C 0.83173 0.66237 0.9818 0.0
C854 C 0.85502 0.68633 0.03741 0.0
C855 C 0.83152 0.66169 0.05657 0.0
N856 N 0.77835 0.62125 0.05466 0.0
N857 N 0.86195 0.72207 0.98405 0.0
C858 C 0.80678 0.63886 0.03769 0.0
C859 C 0.84976 0.69081 1.0008 0.0
N860 N 0.80038 0.6028 0.985 0.0
N861 N 0.88425 0.70328 0.05308 0.0
H862 H 0.85713 0.72698 0.95751 0.0
H863 H 0.87294 0.74464 0.9975 0.0
H864 H 0.89208 0.69784 0.07878 0.0
H865 H 0.90354 0.71904 0.03902 0.0
H866 H 0.78854 0.58085 0.99899 0.0
H867 H 0.80678 0.59613 0.95905 0.0
H868 H 0.75813 0.60645 0.04133 0.0
H869 H 0.77271 0.62508 0.08134 0.0
C870 C 0.31229 0.8708 0.99617 0.0
C871 C 0.34684 0.87585 0.97861 0.0
C872 C 0.3764 0.88907 0.03497 0.0
C873 C 0.34275 0.88049 0.0528 0.0
N874 N 0.27942 0.8599 0.05128 0.0
N875 N 0.41304 0.88447 0.98136 0.0
C876 C 0.31082 0.87053 0.03362 0.0
C877 C 0.37924 0.8837 0.99804 0.0
N878 N 0.28077 0.8672 0.97697 0.0
N879 N 0.40555 0.90296 0.05333 0.0
H880 H 0.41646 0.88063 0.9544 0.0
H881 H 0.43811 0.8858 0.9945 0.0
H882 H 0.40482 0.90666 0.08047 0.0
H883 H 0.42931 0.91374 0.04148 0.0
H884 H 0.25419 0.8673 0.98792 0.0
H885 H 0.28099 0.86688 0.9496 0.0
H886 H 0.25655 0.84828 0.03916 0.0
H887 H 0.27707 0.86058 0.07858 0.0
C888 C 0.11182 0.63017 0.50722 0.0
C889 C 0.14203 0.64982 0.49179 0.0
C890 C 0.16513 0.66503 0.5506 0.0
C891 C 0.13581 0.64403 0.56595 0.0
N892 N 0.08214 0.6052 0.55973 0.0
N893 N 0.19883 0.6837 0.49765 0.0
C894 C 0.10931 0.62636 0.54442 0.0
C895 C 0.16904 0.66673 0.51322 0.0
N896 N 0.08517 0.61558 0.4861 0.0
N897 N 0.18906 0.68347 0.57192 0.0
H898 H 0.20197 0.68597 0.47049 0.0
H899 H 0.22151 0.69378 0.51114 0.0
H900 H 0.18774 0.68179 0.59922 0.0
H901 H 0.20903 0.70206 0.56304 0.0
H902 H 0.06007 0.60498 0.49517 0.0
H903 H 0.08741 0.61526 0.45883 0.0
H904 H 0.0647 0.58764 0.54603 0.0
H905 H 0.0777 0.604 0.5868 0.0
C906 C 0.36324 0.1339 0.49419 0.0
C907 C 0.33929 0.15852 0.47582 0.0
C908 C 0.31221 0.17936 0.53224 0.0
C909 C 0.33818 0.15692 0.55052 0.0
N910 N 0.39363 0.11894 0.54875 0.0
N911 N 0.29511 0.209 0.47735 0.0
C912 C 0.3652 0.13596 0.53142 0.0
C913 C 0.31493 0.18252 0.4949 0.0
N914 N 0.38302 0.1073 0.47624 0.0
N915 N 0.2842 0.19671 0.55048 0.0
H916 H 0.29667 0.21213 0.45016 0.0
H917 H 0.27972 0.22983 0.48982 0.0
H918 H 0.2814 0.19496 0.5777 0.0
H919 H 0.26211 0.21026 0.53854 0.0
H920 H 0.39739 0.08581 0.48852 0.0
H921 H 0.38255 0.10456 0.44905 0.0
H922 H 0.41642 0.10692 0.53598 0.0
H923 H 0.39633 0.11976 0.57593 0.0
C924 C 0.80446 0.33582 0.49168 0.0
C925 C 0.82213 0.3626 0.46987 0.0
C926 C 0.8414 0.39632 0.52254 0.0
C927 C 0.8291 0.36648 0.54406 0.0
N928 N 0.80416 0.30437 0.54789 0.0
N929 N 0.86499 0.41407 0.46547 0.0
C930 C 0.81182 0.33531 0.52834 0.0
C931 C 0.84256 0.39183 0.48551 0.0
N932 N 0.78014 0.31126 0.47747 0.0
N933 N 0.85123 0.42938 0.53733 0.0
H934 H 0.86846 0.41089 0.43848 0.0
H935 H 0.88327 0.43312 0.47625 0.0
H936 H 0.8495 0.43431 0.56427 0.0
H937 H 0.85712 0.45306 0.52254 0.0
H938 H 0.76383 0.29342 0.49258 0.0
H939 H 0.77356 0.31143 0.4509 0.0
H940 H 0.79506 0.27954 0.53697 0.0
H941 H 0.81032 0.30222 0.57446 0.0
C942 C 0.67384 0.90316 0.51301 0.0
C943 C 0.65869 0.87214 0.49519 0.0
C944 C 0.64389 0.84318 0.55167 0.0
C945 C 0.6619 0.87254 0.56959 0.0
N946 N 0.7041 0.92429 0.56565 0.0
N947 N 0.64194 0.80731 0.49819 0.0
C948 C 0.68026 0.90052 0.5497 0.0
C949 C 0.64814 0.8403 0.51478 0.0
N950 N 0.67994 0.93593 0.49581 0.0
N951 N 0.62031 0.81972 0.56902 0.0
H952 H 0.6461 0.80392 0.47123 0.0
H953 H 0.63686 0.78265 0.5118 0.0
H954 H 0.61311 0.82272 0.59541 0.0
H955 H 0.60434 0.80009 0.55606 0.0
H956 H 0.68751 0.96022 0.50873 0.0
H957 H 0.67391 0.93999 0.46944 0.0
H958 H 0.7204 0.9432 0.55172 0.0
H959 H 0.71052 0.92218 0.59219 0.0
C960 C 0.163 0.49813 0.33381 0.0
C961 C 0.14783 0.52974 0.31679 0.0
C962 C 0.14917 0.4931 0.26225 0.0
C963 C 0.1543 0.45956 0.2814 0.0
N964 N 0.15453 0.43243 0.34021 0.0
N965 N 0.1173 0.55193 0.26373 0.0
C966 C 0.15844 0.46247 0.31855 0.0
C967 C 0.13854 0.52608 0.28055 0.0
N968 N 0.18133 0.50172 0.36469 0.0
N969 N 0.15494 0.49407 0.22683 0.0
H970 H 0.10449 0.57439 0.27606 0.0
H971 H 0.10816 0.54797 0.23815 0.0
H972 H 0.16634 0.47166 0.213 0.0
H973 H 0.15332 0.5187 0.21243 0.0
H974 H 0.19441 0.47922 0.37678 0.0
H975 H 0.18747 0.52761 0.37545 0.0
H976 H 0.15537 0.43488 0.36746 0.0
H977 H 0.14452 0.40684 0.33209 0.0
C978 C 0.52665 0.1651 0.28829 0.0
C979 C 0.53283 0.14411 0.25692 0.0
C980 C 0.47335 0.11217 0.26742 0.0
C981 C 0.46643 0.13436 0.29779 0.0
N982 N 0.48218 0.1885 0.33138 0.0
N983 N 0.50654 0.10549 0.21204 0.0
C984 C 0.49179 0.16284 0.30639 0.0
C985 C 0.50443 0.12007 0.24512 0.0
N986 N 0.55456 0.18564 0.30229 0.0
N987 N 0.45161 0.0821 0.26066 0.0
H988 H 0.52802 0.11167 0.1945 0.0
H989 H 0.48507 0.09068 0.20067 0.0
H990 H 0.42865 0.07484 0.27592 0.0
H991 H 0.45834 0.06235 0.24161 0.0
H992 H 0.55304 0.19721 0.32732 0.0
H993 H 0.58044 0.18886 0.29049 0.0
H994 H 0.49765 0.21227 0.33625 0.0
H995 H 0.45672 0.18814 0.34467 0.0
C996 C 0.81338 0.5042 0.2982 0.0
C997 C 0.84109 0.47773 0.28873 0.0
C998 C 0.85051 0.5108 0.23279 0.0
C999 C 0.82804 0.5407 0.24507 0.0
N1000 N 0.78989 0.56694 0.29177 0.0
N1001 N 0.88966 0.45862 0.24794 0.0
C1002 C 0.8095 0.53754 0.27819 0.0
C1003 C 0.86035 0.48147 0.25607 0.0
N1004 N 0.79006 0.49709 0.3259 0.0
N1005 N 0.86209 0.51018 0.19854 0.0
H1006 H 0.89855 0.437 0.26397 0.0
H1007 H 0.90742 0.46321 0.22663 0.0
H1008 H 0.85432 0.53062 0.18061 0.0
H1009 H 0.87567 0.4875 0.18707 0.0
H1010 H 0.76685 0.5134 0.33187 0.0
H1011 H 0.79165 0.47275 0.34071 0.0
H1012 H 0.78039 0.56789 0.31768 0.0
H1013 H 0.78502 0.59152 0.2782 0.0
C1014 C 0.51648 0.82552 0.26659 0.0
C1015 C 0.52309 0.8475 0.29674 0.0
C1016 C 0.46443 0.87972 0.28784 0.0
C1017 C 0.4547 0.85466 0.26064 0.0
N1018 N 0.46985 0.79739 0.22998 0.0
N1019 N 0.49536 0.8857 0.34253 0.0
C1020 C 0.48028 0.82565 0.25151 0.0
C1021 C 0.49439 0.87093 0.30969 0.0
N1022 N 0.54445 0.80428 0.25259 0.0
N1023 N 0.44777 0.91383 0.29127 0.0
H1024 H 0.5159 0.87979 0.36053 0.0
H1025 H 0.47263 0.90001 0.35311 0.0
H1026 H 0.42982 0.92492 0.27286 0.0
H1027 H 0.45657 0.93364 0.3093 0.0
H1028 H 0.5424 0.79079 0.22851 0.0
H1029 H 0.57038 0.80199 0.26425 0.0
H1030 H 0.48656 0.77422 0.22487 0.0
H1031 H 0.44306 0.79484 0.22052 0.0
C1032 C 0.80469 0.53238 0.7528 0.0
C1033 C 0.82305 0.5275 0.78509 0.0
C1034 C 0.82069 0.4597 0.7778 0.0
C1035 C 0.80549 0.4644 0.74394 0.0
N1036 N 0.78584 0.50548 0.69753 0.0
N1037 N 0.85487 0.48682 0.82533 0.0
C1038 C 0.79842 0.50092 0.73096 0.0
C1039 C 0.83308 0.49127 0.7966 0.0
N1040 N 0.79251 0.56706 0.74344 0.0
N1041 N 0.82078 0.42547 0.79331 0.0
H1042 H 0.86293 0.50894 0.84094 0.0
H1043 H 0.86697 0.46146 0.83215 0.0
H1044 H 0.81118 0.40179 0.78083 0.0
H1045 H 0.82746 0.42114 0.81952 0.0
H1046 H 0.77565 0.57227 0.72202 0.0
H1047 H 0.79671 0.59056 0.75889 0.0
H1048 H 0.78412 0.53113 0.68496 0.0
H1049 H 0.77975 0.48321 0.68112 0.0
C1050 C 0.53928 0.80582 0.80088 0.0
C1051 C 0.54661 0.8074 0.76425 0.0
C1052 C 0.48057 0.80017 0.75273 0.0
C1053 C 0.4726 0.80453 0.78914 0.0
N1054 N 0.49493 0.79191 0.84745 0.0
N1055 N 0.5268 0.78396 0.70842 0.0
C1056 C 0.50214 0.80077 0.81324 0.0
C1057 C 0.51811 0.79721 0.74103 0.0
N1058 N 0.56785 0.80983 0.82367 0.0
N1059 N 0.4524 0.79992 0.72922 0.0
H1060 H 0.55404 0.77817 0.70069 0.0
H1061 H 0.50706 0.77402 0.69113 0.0
H1062 H 0.42466 0.79916 0.73704 0.0
H1063 H 0.45668 0.80172 0.70218 0.0
H1064 H 0.56413 0.81396 0.85052 0.0
H1065 H 0.59547 0.80977 0.81513 0.0
H1066 H 0.51553 0.7871 0.86581 0.0
H1067 H 0.46867 0.7843 0.85634 0.0
C1068 C 0.20669 0.49599 0.82196 0.0
C1069 C 0.20614 0.46418 0.7999 0.0
C1070 C 0.21435 0.50481 0.74877 0.0
C1071 C 0.20294 0.53565 0.76951 0.0
N1072 N 0.20033 0.5634 0.82675 0.0
N1073 N 0.21399 0.43774 0.74234 0.0
C1074 C 0.20336 0.53212 0.80659 0.0
C1075 C 0.21191 0.46845 0.76329 0.0
N1076 N 0.21014 0.49141 0.85732 0.0
N1077 N 0.22875 0.51031 0.71593 0.0
H1078 H 0.21509 0.41088 0.75261 0.0
H1079 H 0.21339 0.43902 0.71505 0.0
H1080 H 0.23515 0.53678 0.70656 0.0
H1081 H 0.23938 0.48888 0.70033 0.0
H1082 H 0.21196 0.51317 0.87516 0.0
H1083 H 0.21448 0.46538 0.86862 0.0
H1084 H 0.19622 0.56329 0.8538 0.0
H1085 H 0.2024 0.58998 0.81586 0.0
C1086 C 0.48761 0.19877 0.7389 0.0
C1087 C 0.45278 0.19253 0.75572 0.0
C1088 C 0.48238 0.1944 0.81331 0.0
C1089 C 0.51733 0.1977 0.79628 0.0
N1090 N 0.55175 0.21745 0.74557 0.0
N1091 N 0.41537 0.19778 0.80816 0.0
C1092 C 0.51925 0.20503 0.75989 0.0
C1093 C 0.44969 0.1951 0.79279 0.0
N1094 N 0.49133 0.19574 0.70331 0.0
N1095 N 0.48052 0.18795 0.84858 0.0
H1096 H 0.3912 0.19896 0.7934 0.0
H1097 H 0.41113 0.20255 0.83485 0.0
H1098 H 0.50376 0.18886 0.86452 0.0
H1099 H 0.45629 0.18027 0.86175 0.0
H1100 H 0.51694 0.19498 0.69039 0.0
H1101 H 0.46912 0.19193 0.68661 0.0
H1102 H 0.55455 0.22603 0.71957 0.0
H1103 H 0.57467 0.22308 0.7611 0.0
C1104 C 0.62151 0.03739 0.78391 0.0
C1105 C 0.65449 0.05459 0.79534 0.0
C1106 C 0.68935 -0.00085 0.77556 0.0
C1107 C 0.6555 0.98161 0.76652 0.0
N1108 N 0.5889 0.98095 0.78001 0.0
N1109 N 0.71885 0.04659 0.81073 0.0
C1110 C 0.62164 -0.0008 0.7766 0.0
C1111 C 0.68834 0.03403 0.79364 0.0
N1112 N 0.58978 0.05732 0.77869 0.0
N1113 N 0.72237 0.98219 0.76768 0.0
H1114 H 0.71852 0.0706 0.82604 0.0
H1115 H 0.74325 0.03115 0.81291 0.0
H1116 H 0.72413 0.95495 0.75835 0.0
H1117 H 0.7478 0.99557 0.7695 0.0
H1118 H 0.56512 0.04467 0.7712 0.0
H1119 H 0.58924 0.08629 0.7779 0.0
H1120 H 0.58616 0.95213 0.77949 0.0
H1121 H 0.58616 0.95213 0.77949 0.0
C1122 C 0.97074 0.68188 0.76685 0.0
C1123 C 0.9651 0.66408 0.79991 0.0
C1124 C 0.02576 0.63285 0.79322 0.0
C1125 C 0.03144 0.65085 0.76021 0.0
N1126 N 0.01526 0.70228 0.72282 0.0
N1127 N 0.99287 0.63309 0.84914 0.0
C1128 C 0.00581 0.67855 0.74943 0.0
C1129 C 0.99458 0.64309 0.81457 0.0
N1130 N 0.9423 0.7 0.75063 0.0
N1131 N 0.04825 0.60417 0.80344 0.0
H1132 H 0.97096 0.64108 0.86563 0.0
H1133 H 0.01491 0.62072 0.86228 0.0
H1134 H 0.07078 0.59437 0.78882 0.0
H1135 H 0.04234 0.58743 0.82508 0.0
H1136 H 0.94392 0.70891 0.72464 0.0
H1137 H 0.91613 0.70384 0.76175 0.0
H1138 H -0.00085 0.72526 0.71595 0.0
H1139 H 0.04124 0.70151 0.71044 0.0
C1140 C 0.36417 0.02951 0.77019 0.0
C1141 C 0.35178 0.0279 0.73481 0.0
C1142 C 0.33302 0.96288 0.74456 0.0
C1143 C 0.34342 0.96562 0.78026 0.0
N1144 N 0.35935 0.00453 0.82907 0.0
N1145 N 0.3166 0.99556 0.69112 0.0
C1146 C 0.35572 -3e-05 0.79371 0.0
C1147 C 0.33388 0.99525 0.72281 0.0
N1148 N 0.38656 0.05766 0.78094 0.0
N1149 N 0.32295 0.92918 0.73127 0.0
H1150 H 0.31554 0.01913 0.67517 0.0
H1151 H 0.30019 0.97386 0.68229 0.0
H1152 H 0.32056 0.90532 0.74673 0.0
H1153 H 0.31924 0.92437 0.70461 0.0
H1154 H 0.39974 0.05775 0.80511 0.0
H1155 H 0.39548 0.07885 0.76451 0.0
H1156 H 0.36467 0.03016 0.84065 0.0
H1157 H 0.3531 0.9836 0.84706 0.0
C1158 C 0.95972 0.40833 0.77329 0.0
C1159 C 0.9441 0.37504 0.7603 0.0
C1160 C 0.00167 0.34156 0.77638 0.0
C1161 C 0.01905 0.37595 0.78413 0.0
N1162 N 0.01547 0.44314 0.78175 0.0
N1163 N 0.95019 0.30932 0.74937 0.0
C1164 C -0.00168 0.40955 0.78013 0.0
C1165 C 0.96513 0.34143 0.76191 0.0
N1166 N 0.9381 0.43912 0.77937 0.0
N1167 N 0.02016 0.309 0.78245 0.0
H1168 H 0.92261 0.3075 0.7417 0.0
H1169 H 0.9653 0.28487 0.74543 0.0
H1170 H 0.04767 0.3082 0.79026 0.0
H1171 H 0.00786 0.28293 0.78139 0.0
H1172 H 0.9476 0.46248 0.79262 0.0
H1173 H 0.90982 0.44037 0.77472 0.0
H1174 H 0.00259 0.4682 0.77522 0.0
H1175 H 0.0436 0.44563 0.78568 0.0
C1176 C 0.28521 0.9951 0.226 0.0
C1177 C 0.28176 0.9603 0.24323 0.0
C1178 C 0.29205 0.99024 0.30013 0.0
C1179 C 0.29875 0.02444 0.28259 0.0
N1180 N 0.28974 0.06229 0.23134 0.0
N1181 N 0.26848 0.92712 0.29632 0.0
C1182 C 0.29126 0.02777 0.24626 0.0
C1183 C 0.28045 0.95889 0.28033 0.0
N1184 N 0.28499 -0.00346 0.19022 0.0
N1185 N 0.29915 0.98695 0.33511 0.0
H1186 H 0.25893 0.9046 0.28181 0.0
H1187 H 0.26423 0.92464 0.32328 0.0
H1188 H 0.30694 0.00935 0.3506 0.0
H1189 H 0.29923 0.96165 0.34843 0.0
H1190 H 0.2926 0.01992 0.17577 0.0
H1191 H 0.27806 0.9737 0.17488 0.0
H1192 H 0.28152 0.06715 0.20566 0.0
H1193 H 0.29319 0.08653 0.24594 0.0
C1194 C 0.03062 0.31645 0.29971 0.0
C1195 C 0.03754 0.31269 0.2632 0.0
C1196 C 0.97093 0.30789 0.25269 0.0
C1197 C 0.9636 0.31744 0.28822 0.0
N1198 N 0.98584 0.31741 0.34786 0.0
N1199 N 0.01581 0.28331 0.21066 0.0
C1200 C 0.99325 0.31708 0.31264 0.0
C1201 C 0.00817 0.3014 0.24138 0.0
N1202 N 0.06 0.31976 0.32171 0.0
N1203 N 0.94239 0.30562 0.22962 0.0
H1204 H 0.04259 0.27454 0.20398 0.0
H1205 H -0.00459 0.27247 0.19459 0.0
H1206 H 0.91464 0.3075 0.23757 0.0
H1207 H 0.94639 0.30336 0.20259 0.0
H1208 H 0.05784 0.32755 0.34792 0.0
H1209 H 0.08716 0.31454 0.31315 0.0
H1210 H 0.00596 0.31548 0.36707 0.0
H1211 H 0.9592 0.31603 0.35835 0.0
C1212 C 0.69634 0.98202 0.31358 0.0
C1213 C 0.6975 0.94867 0.29371 0.0
C1214 C 0.69804 0.98486 0.239 0.0
C1215 C 0.6929 0.01793 0.25895 0.0
N1216 N 0.69942 0.04965 0.3138 0.0
N1217 N 0.71015 0.91818 0.2386 0.0
C1218 C 0.69637 0.01692 0.29589 0.0
C1219 C 0.70233 0.95012 0.25674 0.0
N1220 N 0.69364 0.98011 0.34931 0.0
N1221 N 0.69617 0.98625 0.20327 0.0
H1222 H 0.71263 0.89234 0.25076 0.0
H1223 H 0.71725 0.91755 0.21207 0.0
H1224 H 0.6962 0.01113 0.18934 0.0
H1225 H 0.69383 0.96291 0.18735 0.0
H1226 H 0.68804 0.00291 0.36537 0.0
H1227 H 0.69602 0.95504 0.36293 0.0
H1228 H 0.70462 0.05135 0.34054 0.0
H1229 H 0.70008 0.07532 0.30096 0.0
C1230 C 0.98868 0.69569 0.23688 0.0
C1231 C 0.95437 0.69453 0.25534 0.0
C1232 C 0.98646 0.68843 0.31117 0.0
C1233 C 0.02071 0.68482 0.29241 0.0
N1234 N 0.05595 0.69762 0.23983 0.0
N1235 N 0.92084 0.70443 0.30898 0.0
C1236 C 0.02228 0.69263 0.25593 0.0
C1237 C 0.9536 0.69627 0.29228 0.0
N1238 N 0.98899 0.69779 0.20116 0.0
N1239 N 0.98463 0.68158 0.34639 0.0
H1240 H 0.89673 0.71007 0.29498 0.0
H1241 H 0.91836 0.70919 0.33585 0.0
H1242 H 0.00778 0.67671 0.36166 0.0
H1243 H 0.95984 0.67891 0.3604 0.0
H1244 H 0.01244 0.69309 0.18557 0.0
H1245 H 0.96524 0.70421 0.18709 0.0
H1246 H 0.05925 0.70604 0.21387 0.0
H1247 H 0.08076 0.69666 0.25359 0.0
loop_
_geom_bond_atom_site_label_1
_geom_bond_atom_site_label_2
_geom_bond_distance
_geom_bond_site_symmetry_2
_ccdc_geom_bond_type
Co0 N4 2.148 . S
Co0 N10 2.128 . S
Co0 N20 2.194 . S
Co0 O25 2.351 . S
Co0 O26 2.155 . S
Co0 O27 2.096 . S
C1 N4 1.301 . S
C1 N5 1.328 . S
C1 H6 0.930 . S
C2 C3 1.333 . S
C2 N4 1.317 . S
C2 H7 0.930 . S
C3 C2 1.333 . S
C3 N5 1.350 . S
C3 H29 0.931 . S
N4 Co0 2.148 . S
N4 C1 1.301 . S
N4 C2 1.317 . S
N5 C1 1.328 . S
N5 C3 1.350 . S
H6 C1 0.930 . S
H7 C2 0.930 . S
C8 O9 1.224 . S
C8 O27 1.247 . S
O9 C8 1.224 . S
N10 Co0 2.128 . S
N10 C11 1.355 . S
N10 C13 1.311 . S
C11 N10 1.355 . S
C11 C12 1.363 . S
C11 H23 0.929 . S
C12 C11 1.363 . S
C12 N14 1.375 . S
C12 H30 0.931 . S
C13 N10 1.311 . S
C13 N14 1.347 . S
C13 H24 0.929 . S
N14 C12 1.375 . S
N14 C13 1.347 . S
C15 C18 1.365 . S
C15 N20 1.328 . S
C15 H21 0.929 . S
C16 C17 1.362 . S
C16 C19 1.378 . S
C16 H31 0.929 . S
C17 C16 1.362 . S
C17 C18 1.366 . S
C18 C15 1.365 . S
C18 C17 1.366 . S
C18 H32 0.930 . S
C19 C16 1.378 . S
C19 N20 1.315 . S
C19 H22 0.930 . S
N20 Co0 2.194 . S
N20 C15 1.328 . S
N20 C19 1.315 . S
H21 C15 0.929 . S
H22 C19 0.930 . S
H23 C11 0.929 . S
H24 C13 0.929 . S
O25 Co0 2.351 . S
O25 C28 1.244 . S
O26 Co0 2.155 . S
O26 C28 1.240 . S
O27 Co0 2.096 . S
O27 C8 1.247 . S
C28 O25 1.244 . S
C28 O26 1.240 . S
H29 C3 0.931 . S
H30 C12 0.931 . S
H31 C16 0.929 . S
H32 C18 0.930 . S
Co33 N37 2.148 . S
Co33 N43 2.128 . S
Co33 N53 2.194 . S
Co33 O58 2.351 . S
Co33 O59 2.155 . S
Co33 O60 2.096 . S
C34 N37 1.301 . S
C34 N38 1.328 . S
C34 H39 0.930 . S
C35 C36 1.333 . S
C35 N37 1.317 . S
C35 H40 0.930 . S
C36 C35 1.333 . S
C36 N38 1.350 . S
C36 H62 0.931 . S
N37 Co33 2.148 . S
N37 C34 1.301 . S
N37 C35 1.317 . S
N38 C34 1.328 . S
N38 C36 1.350 . S
H39 C34 0.930 . S
H40 C35 0.930 . S
C41 O42 1.224 . S
C41 O60 1.247 . S
O42 C41 1.224 . S
N43 Co33 2.128 . S
N43 C44 1.355 . S
N43 C46 1.311 . S
C44 N43 1.355 . S
C44 C45 1.363 . S
C44 H56 0.929 . S
C45 C44 1.363 . S
C45 N47 1.375 . S
C45 H63 0.931 . S
C46 N43 1.311 . S
C46 N47 1.347 . S
C46 H57 0.929 . S
N47 C45 1.375 . S
N47 C46 1.347 . S
C48 C51 1.365 . S
C48 N53 1.328 . S
C48 H54 0.929 . S
C49 C50 1.362 . S
C49 C52 1.378 . S
C49 H64 0.929 . S
C50 C49 1.362 . S
C50 C51 1.366 . S
C51 C48 1.365 . S
C51 C50 1.366 . S
C51 H65 0.930 . S
C52 C49 1.378 . S
C52 N53 1.315 . S
C52 H55 0.930 . S
N53 Co33 2.194 . S
N53 C48 1.328 . S
N53 C52 1.315 . S
H54 C48 0.929 . S
H55 C52 0.930 . S
H56 C44 0.929 . S
H57 C46 0.929 . S
O58 Co33 2.351 . S
O58 C61 1.244 . S
O59 Co33 2.155 . S
O59 C61 1.240 . S
O60 Co33 2.096 . S
O60 C41 1.247 . S
C61 O58 1.244 . S
C61 O59 1.240 . S
H62 C36 0.931 . S
H63 C45 0.931 . S
H64 C49 0.929 . S
H65 C51 0.930 . S
Co66 N70 2.148 . S
Co66 N76 2.128 . S
Co66 N86 2.194 . S
Co66 O91 2.351 . S
Co66 O92 2.155 . S
Co66 O93 2.096 . S
C67 N70 1.301 . S
C67 N71 1.328 . S
C67 H72 0.930 . S
C68 C69 1.333 . S
C68 N70 1.317 . S
C68 H73 0.930 . S
C69 C68 1.333 . S
C69 N71 1.350 . S
C69 H95 0.931 . S
N70 Co66 2.148 . S
N70 C67 1.301 . S
N70 C68 1.317 . S
N71 C67 1.328 . S
N71 C69 1.350 . S
H72 C67 0.930 . S
H73 C68 0.930 . S
C74 O75 1.224 . S
C74 O93 1.247 . S
O75 C74 1.224 . S
N76 Co66 2.128 . S
N76 C77 1.355 . S
N76 C79 1.311 . S
C77 N76 1.355 . S
C77 C78 1.363 . S
C77 H89 0.929 . S
C78 C77 1.363 . S
C78 N80 1.375 . S
C78 H96 0.939 . S
C79 N76 1.311 . S
C79 N80 1.347 . S
C79 H90 0.929 . S
N80 C78 1.375 . S
N80 C79 1.347 . S
C81 C84 1.365 . S
C81 N86 1.328 . S
C81 H87 0.929 . S
C82 C83 1.362 . S
C82 C85 1.378 . S
C82 H97 0.929 . S
C83 C82 1.362 . S
C83 C84 1.366 . S
C84 C81 1.365 . S
C84 C83 1.366 . S
C84 H98 0.930 . S
C85 C82 1.378 . S
C85 N86 1.315 . S
C85 H88 0.930 . S
N86 Co66 2.194 . S
N86 C81 1.328 . S
N86 C85 1.315 . S
H87 C81 0.929 . S
H88 C85 0.930 . S
H89 C77 0.929 . S
H90 C79 0.929 . S
O91 Co66 2.351 . S
O91 C94 1.244 . S
O92 Co66 2.155 . S
O92 C94 1.240 . S
O93 Co66 2.096 . S
O93 C74 1.247 . S
C94 O91 1.244 . S
C94 O92 1.240 . S
H95 C69 0.931 . S
H96 C78 0.939 . S
H97 C82 0.929 . S
H98 C84 0.930 . S
Co99 N103 2.148 . S
Co99 N109 2.128 . S
Co99 N119 2.194 . S
Co99 O124 2.351 . S
Co99 O125 2.155 . S
Co99 O126 2.096 . S
C100 N103 1.301 . S
C100 N104 1.328 . S
C100 H105 0.930 . S
C101 C102 1.333 1_565 S
C101 N103 1.317 . S
C101 H106 0.930 . S
C102 C101 1.333 1_545 S
C102 N104 1.350 1_545 S
C102 H128 0.931 . S
N103 Co99 2.148 . S
N103 C100 1.301 . S
N103 C101 1.317 . S
N104 C100 1.328 . S
N104 C102 1.350 1_565 S
H105 C100 0.930 . S
H106 C101 0.930 . S
C107 O108 1.224 . S
C107 O126 1.247 . S
O108 C107 1.224 . S
N109 Co99 2.128 . S
N109 C110 1.355 . S
N109 C112 1.311 . S
C110 N109 1.355 . S
C110 C111 1.363 . S
C110 H122 0.929 . S
C111 C110 1.363 . S
C111 N113 1.375 . S
C111 H129 0.931 . S
C112 N109 1.311 . S
C112 N113 1.347 . S
C112 H123 0.929 . S
N113 C111 1.375 . S
N113 C112 1.347 . S
C114 C117 1.365 . S
C114 N119 1.328 . S
C114 H120 0.929 . S
C115 C116 1.362 . S
C115 C118 1.378 . S
C115 H130 0.929 . S
C116 C115 1.362 . S
C116 C117 1.366 . S
C117 C114 1.365 . S
C117 C116 1.366 . S
C117 H131 0.930 . S
C118 C115 1.378 . S
C118 N119 1.315 . S
C118 H121 0.930 . S
N119 Co99 2.194 . S
N119 C114 1.328 . S
N119 C118 1.315 . S
H120 C114 0.929 . S
H121 C118 0.930 . S
H122 C110 0.929 . S
H123 C112 0.929 . S
O124 Co99 2.351 . S
O124 C127 1.244 . S
O125 Co99 2.155 . S
O125 C127 1.240 . S
O126 Co99 2.096 . S
O126 C107 1.247 . S
C127 O124 1.244 . S
C127 O125 1.240 . S
H128 C102 0.931 . S
H129 C111 0.931 . S
H130 C115 0.929 . S
H131 C117 0.930 . S
Co132 N136 2.148 . S
Co132 N142 2.128 . S
Co132 N152 2.194 . S
Co132 O157 2.351 . S
Co132 O158 2.155 . S
Co132 O159 2.096 . S
C133 N136 1.301 . S
C133 N137 1.328 . S
C133 H138 0.930 . S
C134 C135 1.333 . S
C134 N136 1.317 . S
C134 H139 0.930 . S
C135 C134 1.333 . S
C135 N137 1.350 . S
C135 H161 0.931 . S
N136 Co132 2.148 . S
N136 C133 1.301 . S
N136 C134 1.317 . S
N137 C133 1.328 . S
N137 C135 1.350 . S
H138 C133 0.930 . S
H139 C134 0.930 . S
C140 O141 1.224 . S
C140 O159 1.247 . S
O141 C140 1.224 . S
N142 Co132 2.128 . S
N142 C143 1.355 . S
N142 C145 1.311 . S
C143 N142 1.355 . S
C143 C144 1.363 . S
C143 H155 0.929 . S
C144 C143 1.363 . S
C144 N146 1.375 . S
C144 H162 0.939 . S
C145 N142 1.311 . S
C145 N146 1.347 . S
C145 H156 0.929 . S
N146 C144 1.375 . S
N146 C145 1.347 . S
C147 C150 1.365 . S
C147 N152 1.328 . S
C147 H153 0.929 . S
C148 C149 1.362 . S
C148 C151 1.378 . S
C148 H163 0.929 . S
C149 C148 1.362 . S
C149 C150 1.366 . S
C150 C147 1.365 . S
C150 C149 1.366 . S
C150 H164 0.930 . S
C151 C148 1.378 . S
C151 N152 1.315 . S
C151 H154 0.930 . S
N152 Co132 2.194 . S
N152 C147 1.328 . S
N152 C151 1.315 . S
H153 C147 0.929 . S
H154 C151 0.930 . S
H155 C143 0.929 . S
H156 C145 0.929 . S
O157 Co132 2.351 . S
O157 C160 1.244 . S
O158 Co132 2.155 . S
O158 C160 1.240 . S
O159 Co132 2.096 . S
O159 C140 1.247 . S
C160 O157 1.244 . S
C160 O158 1.240 . S
H161 C135 0.931 . S
H162 C144 0.939 . S
H163 C148 0.929 . S
H164 C150 0.930 . S
Co165 N169 2.148 . S
Co165 N175 2.128 . S
Co165 N185 2.194 . S
Co165 O190 2.351 . S
Co165 O191 2.155 . S
Co165 O192 2.096 . S
C166 N169 1.301 . S
C166 N170 1.328 . S
C166 H171 0.930 . S
C167 C168 1.333 . S
C167 N169 1.317 . S
C167 H172 0.930 . S
C168 C167 1.333 . S
C168 N170 1.350 . S
C168 H194 0.931 . S
N169 Co165 2.148 . S
N169 C166 1.301 . S
N169 C167 1.317 . S
N170 C166 1.328 . S
N170 C168 1.350 . S
H171 C166 0.930 . S
H172 C167 0.930 . S
C173 O174 1.224 . S
C173 O192 1.247 . S
O174 C173 1.224 . S
N175 Co165 2.128 . S
N175 C176 1.355 . S
N175 C178 1.311 . S
C176 N175 1.355 . S
C176 C177 1.363 . S
C176 H188 0.929 . S
C177 C176 1.363 . S
C177 N179 1.375 . S
C177 H195 0.931 . S
C178 N175 1.311 . S
C178 N179 1.347 . S
C178 H189 0.929 . S
N179 C177 1.375 . S
N179 C178 1.347 . S
C180 C183 1.365 . S
C180 N185 1.328 . S
C180 H186 0.929 . S
C181 C182 1.362 . S
C181 C184 1.378 . S
C181 H196 0.929 . S
C182 C181 1.362 . S
C182 C183 1.366 . S
C183 C180 1.365 . S
C183 C182 1.366 . S
C183 H197 0.930 . S
C184 C181 1.378 . S
C184 N185 1.315 . S
C184 H187 0.930 . S
N185 Co165 2.194 . S
N185 C180 1.328 . S
N185 C184 1.315 . S
H186 C180 0.929 . S
H187 C184 0.930 . S
H188 C176 0.929 . S
H189 C178 0.929 . S
O190 Co165 2.351 . S
O190 C193 1.244 . S
O191 Co165 2.155 . S
O191 C193 1.240 . S
O192 Co165 2.096 . S
O192 C173 1.247 . S
C193 O190 1.244 . S
C193 O191 1.240 . S
H194 C168 0.931 . S
H195 C177 0.931 . S
H196 C181 0.929 . S
H197 C183 0.930 . S
Co198 N202 2.148 . S
Co198 N208 2.128 . S
Co198 N218 2.194 . S
Co198 O223 2.351 . S
Co198 O224 2.155 . S
Co198 O225 2.096 . S
C199 N202 1.301 . S
C199 N203 1.328 . S
C199 H204 0.930 . S
C200 C201 1.333 . S
C200 N202 1.317 . S
C200 H205 0.930 . S
C201 C200 1.333 . S
C201 N203 1.350 . S
C201 H227 0.931 . S
N202 Co198 2.148 . S
N202 C199 1.301 . S
N202 C200 1.317 . S
N203 C199 1.328 . S
N203 C201 1.350 . S
H204 C199 0.930 . S
H205 C200 0.930 . S
C206 O207 1.224 . S
C206 O225 1.247 . S
O207 C206 1.224 . S
N208 Co198 2.128 . S
N208 C209 1.355 . S
N208 C211 1.311 . S
C209 N208 1.355 . S
C209 C210 1.363 . S
C209 H221 0.929 . S
C210 C209 1.363 . S
C210 N212 1.375 . S
C210 H228 0.931 . S
C211 N208 1.311 . S
C211 N212 1.347 . S
C211 H222 0.929 . S
N212 C210 1.375 . S
N212 C211 1.347 . S
C213 C216 1.365 . S
C213 N218 1.328 . S
C213 H219 0.929 . S
C214 C215 1.362 . S
C214 C217 1.378 . S
C214 H229 0.929 . S
C215 C214 1.362 . S
C215 C216 1.366 . S
C216 C213 1.365 . S
C216 C215 1.366 . S
C216 H230 0.930 . S
C217 C214 1.378 . S
C217 N218 1.315 . S
C217 H220 0.930 . S
N218 Co198 2.194 . S
N218 C213 1.328 . S
N218 C217 1.315 . S
H219 C213 0.929 . S
H220 C217 0.930 . S
H221 C209 0.929 . S
H222 C211 0.929 . S
O223 Co198 2.351 . S
O223 C226 1.244 . S
O224 Co198 2.155 . S
O224 C226 1.240 . S
O225 Co198 2.096 . S
O225 C206 1.247 . S
C226 O223 1.244 . S
C226 O224 1.240 . S
H227 C201 0.931 . S
H228 C210 0.931 . S
H229 C214 0.929 . S
H230 C216 0.930 . S
Co231 N235 2.148 . S
Co231 N241 2.128 . S
Co231 N251 2.194 . S
Co231 O256 2.351 . S
Co231 O257 2.155 . S
Co231 O258 2.096 . S
C232 N235 1.301 . S
C232 N236 1.328 . S
C232 H237 0.930 . S
C233 C234 1.333 1_565 S
C233 N235 1.317 . S
C233 H238 0.930 . S
C234 C233 1.333 1_545 S
C234 N236 1.350 1_545 S
C234 H260 0.931 . S
N235 Co231 2.148 . S
N235 C232 1.301 . S
N235 C233 1.317 . S
N236 C232 1.328 . S
N236 C234 1.350 1_565 S
H237 C232 0.930 . S
H238 C233 0.930 . S
C239 O240 1.224 . S
C239 O258 1.247 . S
O240 C239 1.224 . S
N241 Co231 2.128 . S
N241 C242 1.355 . S
N241 C244 1.311 . S
C242 N241 1.355 . S
C242 C243 1.363 . S
C242 H254 0.929 . S
C243 C242 1.363 . S
C243 N245 1.375 . S
C243 H261 0.931 . S
C244 N241 1.311 . S
C244 N245 1.347 . S
C244 H255 0.929 . S
N245 C243 1.375 . S
N245 C244 1.347 . S
C246 C249 1.365 . S
C246 N251 1.328 . S
C246 H252 0.929 . S
C247 C248 1.362 . S
C247 C250 1.378 . S
C247 H262 0.929 . S
C248 C247 1.362 . S
C248 C249 1.366 . S
C249 C246 1.365 . S
C249 C248 1.366 . S
C249 H263 0.930 . S
C250 C247 1.378 . S
C250 N251 1.315 . S
C250 H253 0.930 . S
N251 Co231 2.194 . S
N251 C246 1.328 . S
N251 C250 1.315 . S
H252 C246 0.929 . S
H253 C250 0.930 . S
H254 C242 0.929 . S
H255 C244 0.929 . S
O256 Co231 2.351 . S
O256 C259 1.244 . S
O257 Co231 2.155 . S
O257 C259 1.240 . S
O258 Co231 2.096 . S
O258 C239 1.247 . S
C259 O256 1.244 . S
C259 O257 1.240 . S
H260 C234 0.931 . S
H261 C243 0.931 . S
H262 C247 0.929 . S
H263 C249 0.930 . S
Co264 N268 2.148 . S
Co264 N274 2.128 . S
Co264 N284 2.194 . S
Co264 O289 2.351 . S
Co264 O290 2.155 . S
Co264 O291 2.096 . S
C265 N268 1.301 . S
C265 N269 1.328 . S
C265 H270 0.930 . S
C266 C267 1.333 . S
C266 N268 1.317 . S
C266 H271 0.930 . S
C267 C266 1.333 . S
C267 N269 1.350 . S
C267 H293 0.931 . S
N268 Co264 2.148 . S
N268 C265 1.301 . S
N268 C266 1.317 . S
N269 C265 1.328 . S
N269 C267 1.350 . S
H270 C265 0.930 . S
H271 C266 0.930 . S
C272 O273 1.224 . S
C272 O291 1.247 . S
O273 C272 1.224 . S
N274 Co264 2.128 . S
N274 C275 1.355 . S
N274 C277 1.311 . S
C275 N274 1.355 . S
C275 C276 1.363 . S
C275 H287 0.929 . S
C276 C275 1.363 . S
C276 N278 1.375 . S
C276 H294 0.931 . S
C277 N274 1.311 . S
C277 N278 1.347 . S
C277 H288 0.929 . S
N278 C276 1.375 . S
N278 C277 1.347 . S
C279 C282 1.365 . S
C279 N284 1.328 . S
C279 H285 0.929 . S
C280 C281 1.362 . S
C280 C283 1.378 . S
C280 H295 0.929 . S
C281 C280 1.362 . S
C281 C282 1.366 . S
C282 C279 1.365 . S
C282 C281 1.366 . S
C282 H296 0.930 . S
C283 C280 1.378 . S
C283 N284 1.315 . S
C283 H286 0.930 . S
N284 Co264 2.194 . S
N284 C279 1.328 . S
N284 C283 1.315 . S
H285 C279 0.929 . S
H286 C283 0.930 . S
H287 C275 0.929 . S
H288 C277 0.929 . S
O289 Co264 2.351 . S
O289 C292 1.244 . S
O290 Co264 2.155 . S
O290 C292 1.240 . S
O291 Co264 2.096 . S
O291 C272 1.247 . S
C292 O289 1.244 . S
C292 O290 1.240 . S
H293 C267 0.931 . S
H294 C276 0.931 . S
H295 C280 0.929 . S
H296 C282 0.930 . S
Co297 N301 2.148 . S
Co297 N307 2.128 . S
Co297 N317 2.194 . S
Co297 O322 2.351 . S
Co297 O323 2.155 . S
Co297 O324 2.096 . S
C298 N301 1.301 . S
C298 N302 1.328 . S
C298 H303 0.930 . S
C299 C300 1.333 . S
C299 N301 1.317 . S
C299 H304 0.930 . S
C300 C299 1.333 . S
C300 N302 1.350 . S
C300 H326 0.931 . S
N301 Co297 2.148 . S
N301 C298 1.301 . S
N301 C299 1.317 . S
N302 C298 1.328 . S
N302 C300 1.350 . S
H303 C298 0.930 . S
H304 C299 0.930 . S
C305 O306 1.224 . S
C305 O324 1.247 . S
O306 C305 1.224 . S
N307 Co297 2.128 . S
N307 C308 1.355 . S
N307 C310 1.311 . S
C308 N307 1.355 . S
C308 C309 1.363 . S
C308 H320 0.929 . S
C309 C308 1.363 . S
C309 N311 1.375 . S
C309 H327 0.931 . S
C310 N307 1.311 . S
C310 N311 1.347 . S
C310 H321 0.929 . S
N311 C309 1.375 . S
N311 C310 1.347 . S
C312 C315 1.365 . S
C312 N317 1.328 . S
C312 H318 0.929 . S
C313 C314 1.362 . S
C313 C316 1.378 . S
C313 H328 0.929 . S
C314 C313 1.362 . S
C314 C315 1.366 . S
C315 C312 1.365 . S
C315 C314 1.366 . S
C315 H329 0.930 . S
C316 C313 1.378 . S
C316 N317 1.315 . S
C316 H319 0.930 . S
N317 Co297 2.194 . S
N317 C312 1.328 . S
N317 C316 1.315 . S
H318 C312 0.929 . S
H319 C316 0.930 . S
H320 C308 0.929 . S
H321 C310 0.929 . S
O322 Co297 2.351 . S
O322 C325 1.244 . S
O323 Co297 2.155 . S
O323 C325 1.240 . S
O324 Co297 2.096 . S
O324 C305 1.247 . S
C325 O322 1.244 . S
C325 O323 1.240 . S
H326 C300 0.931 . S
H327 C309 0.931 . S
H328 C313 0.929 . S
H329 C315 0.930 . S
Co330 N334 2.148 . S
Co330 N340 2.128 . S
Co330 N350 2.194 . S
Co330 O355 2.351 . S
Co330 O356 2.155 . S
Co330 O357 2.096 . S
C331 N334 1.301 . S
C331 N335 1.328 . S
C331 H336 0.930 . S
C332 C333 1.333 . S
C332 N334 1.317 . S
C332 H337 0.930 . S
C333 C332 1.333 . S
C333 N335 1.350 . S
C333 H359 0.931 . S
N334 Co330 2.148 . S
N334 C331 1.301 . S
N334 C332 1.317 . S
N335 C331 1.328 . S
N335 C333 1.350 . S
H336 C331 0.930 . S
H337 C332 0.930 . S
C338 O339 1.224 . S
C338 O357 1.247 . S
O339 C338 1.224 . S
N340 Co330 2.128 . S
N340 C341 1.355 . S
N340 C343 1.311 . S
C341 N340 1.355 . S
C341 C342 1.363 . S
C341 H353 0.929 . S
C342 C341 1.363 . S
C342 N344 1.375 . S
C342 H360 0.931 . S
C343 N340 1.311 . S
C343 N344 1.347 . S
C343 H354 0.929 . S
N344 C342 1.375 . S
N344 C343 1.347 . S
C345 C348 1.365 . S
C345 N350 1.328 . S
C345 H351 0.929 . S
C346 C347 1.362 . S
C346 C349 1.378 . S
C346 H361 0.929 . S
C347 C346 1.362 . S
C347 C348 1.366 . S
C348 C345 1.365 . S
C348 C347 1.366 . S
C348 H362 0.930 . S
C349 C346 1.378 . S
C349 N350 1.315 . S
C349 H352 0.930 . S
N350 Co330 2.194 . S
N350 C345 1.328 . S
N350 C349 1.315 . S
H351 C345 0.929 . S
H352 C349 0.930 . S
H353 C341 0.929 . S
H354 C343 0.929 . S
O355 Co330 2.351 . S
O355 C358 1.244 . S
O356 Co330 2.155 . S
O356 C358 1.240 . S
O357 Co330 2.096 . S
O357 C338 1.247 . S
C358 O355 1.244 . S
C358 O356 1.240 . S
H359 C333 0.931 . S
H360 C342 0.931 . S
H361 C346 0.929 . S
H362 C348 0.930 . S
Co363 N367 2.148 . S
Co363 N373 2.128 . S
Co363 N383 2.194 . S
Co363 O388 2.351 . S
Co363 O389 2.155 . S
Co363 O390 2.096 . S
C364 N367 1.301 . S
C364 N368 1.328 . S
C364 H369 0.930 . S
C365 C366 1.333 . S
C365 N367 1.317 . S
C365 H370 0.930 . S
C366 C365 1.333 . S
C366 N368 1.350 . S
C366 H392 0.931 . S
N367 Co363 2.148 . S
N367 C364 1.301 . S
N367 C365 1.317 . S
N368 C364 1.328 . S
N368 C366 1.350 . S
H369 C364 0.930 . S
H370 C365 0.930 . S
C371 O372 1.224 . S
C371 O390 1.247 . S
O372 C371 1.224 . S
N373 Co363 2.128 . S
N373 C374 1.355 . S
N373 C376 1.311 . S
C374 N373 1.355 . S
C374 C375 1.363 . S
C374 H386 0.929 . S
C375 C374 1.363 . S
C375 N377 1.375 . S
C375 H393 0.931 . S
C376 N373 1.311 . S
C376 N377 1.347 . S
C376 H387 0.929 . S
N377 C375 1.375 . S
N377 C376 1.347 . S
C378 C381 1.365 . S
C378 N383 1.328 . S
C378 H384 0.929 . S
C379 C380 1.362 . S
C379 C382 1.378 . S
C379 H394 0.929 . S
C380 C379 1.362 . S
C380 C381 1.366 . S
C381 C378 1.365 . S
C381 C380 1.366 . S
C381 H395 0.930 . S
C382 C379 1.378 . S
C382 N383 1.315 . S
C382 H385 0.930 . S
N383 Co363 2.194 . S
N383 C378 1.328 . S
N383 C382 1.315 . S
H384 C378 0.929 . S
H385 C382 0.930 . S
H386 C374 0.929 . S
H387 C376 0.929 . S
O388 Co363 2.351 . S
O388 C391 1.244 . S
O389 Co363 2.155 . S
O389 C391 1.240 . S
O390 Co363 2.096 . S
O390 C371 1.247 . S
C391 O388 1.244 . S
C391 O389 1.240 . S
H392 C366 0.931 . S
H393 C375 0.931 . S
H394 C379 0.929 . S
H395 C381 0.930 . S
Co396 N400 2.148 . S
Co396 N406 2.128 . S
Co396 N416 2.194 . S
Co396 O421 2.351 . S
Co396 O422 2.155 . S
Co396 O423 2.096 . S
C397 N400 1.301 . S
C397 N401 1.328 . S
C397 H402 0.930 . S
C398 C399 1.333 . S
C398 N400 1.317 . S
C398 H403 0.930 . S
C399 C398 1.333 . S
C399 N401 1.350 . S
C399 H425 0.931 . S
N400 Co396 2.148 . S
N400 C397 1.301 . S
N400 C398 1.317 . S
N401 C397 1.328 . S
N401 C399 1.350 . S
H402 C397 0.930 . S
H403 C398 0.930 . S
C404 O405 1.224 . S
C404 O423 1.247 . S
O405 C404 1.224 . S
N406 Co396 2.128 . S
N406 C407 1.355 . S
N406 C409 1.311 . S
C407 N406 1.355 . S
C407 C408 1.363 . S
C407 H419 0.929 . S
C408 C407 1.363 . S
C408 N410 1.375 . S
C408 H426 0.931 . S
C409 N406 1.311 . S
C409 N410 1.347 . S
C409 H420 0.929 . S
N410 C408 1.375 . S
N410 C409 1.347 . S
C411 C414 1.365 . S
C411 N416 1.328 . S
C411 H417 0.929 . S
C412 C413 1.362 . S
C412 C415 1.378 . S
C412 H427 0.929 . S
C413 C412 1.362 . S
C413 C414 1.366 . S
C414 C411 1.365 . S
C414 C413 1.366 . S
C414 H428 0.930 . S
C415 C412 1.378 . S
C415 N416 1.315 . S
C415 H418 0.930 . S
N416 Co396 2.194 . S
N416 C411 1.328 . S
N416 C415 1.315 . S
H417 C411 0.929 . S
H418 C415 0.930 . S
H419 C407 0.929 . S
H420 C409 0.929 . S
O421 Co396 2.351 . S
O421 C424 1.244 . S
O422 Co396 2.155 . S
O422 C424 1.240 . S
O423 Co396 2.096 . S
O423 C404 1.247 . S
C424 O421 1.244 . S
C424 O422 1.240 . S
H425 C399 0.931 . S
H426 C408 0.931 . S
H427 C412 0.929 . S
H428 C414 0.930 . S
Co429 N433 2.148 . S
Co429 N439 2.128 . S
Co429 N449 2.194 . S
Co429 O454 2.351 . S
Co429 O455 2.155 . S
Co429 O456 2.096 . S
C430 N433 1.301 . S
C430 N434 1.328 . S
C430 H435 0.930 . S
C431 C432 1.333 . S
C431 N433 1.317 . S
C431 H436 0.930 . S
C432 C431 1.333 . S
C432 N434 1.350 . S
C432 H458 0.931 . S
N433 Co429 2.148 . S
N433 C430 1.301 . S
N433 C431 1.317 . S
N434 C430 1.328 . S
N434 C432 1.350 . S
H435 C430 0.930 . S
H436 C431 0.930 . S
C437 O438 1.224 . S
C437 O456 1.247 . S
O438 C437 1.224 . S
N439 Co429 2.128 . S
N439 C440 1.355 . S
N439 C442 1.311 . S
C440 N439 1.355 . S
C440 C441 1.363 . S
C440 H452 0.929 . S
C441 C440 1.363 . S
C441 N443 1.375 . S
C441 H459 0.931 . S
C442 N439 1.311 . S
C442 N443 1.347 . S
C442 H453 0.929 . S
N443 C441 1.375 . S
N443 C442 1.347 . S
C444 C447 1.365 . S
C444 N449 1.328 . S
C444 H450 0.929 . S
C445 C446 1.362 . S
C445 C448 1.378 . S
C445 H460 0.929 . S
C446 C445 1.362 . S
C446 C447 1.366 . S
C447 C444 1.365 . S
C447 C446 1.366 . S
C447 H461 0.930 . S
C448 C445 1.378 . S
C448 N449 1.315 . S
C448 H451 0.930 . S
N449 Co429 2.194 . S
N449 C444 1.328 . S
N449 C448 1.315 . S
H450 C444 0.929 . S
H451 C448 0.930 . S
H452 C440 0.929 . S
H453 C442 0.929 . S
O454 Co429 2.351 . S
O454 C457 1.244 . S
O455 Co429 2.155 . S
O455 C457 1.240 . S
O456 Co429 2.096 . S
O456 C437 1.247 . S
C457 O454 1.244 . S
C457 O455 1.240 . S
H458 C432 0.931 . S
H459 C441 0.931 . S
H460 C445 0.929 . S
H461 C447 0.930 . S
Co462 N466 2.148 . S
Co462 N472 2.128 . S
Co462 N482 2.194 . S
Co462 O487 2.351 . S
Co462 O488 2.155 . S
Co462 O489 2.096 . S
C463 N466 1.301 . S
C463 N467 1.328 . S
C463 H468 0.930 . S
C464 C465 1.333 . S
C464 N466 1.317 . S
C464 H469 0.930 . S
C465 C464 1.333 . S
C465 N467 1.350 . S
C465 H491 0.931 . S
N466 Co462 2.148 . S
N466 C463 1.301 . S
N466 C464 1.317 . S
N467 C463 1.328 . S
N467 C465 1.350 . S
H468 C463 0.930 . S
H469 C464 0.930 . S
C470 O471 1.224 . S
C470 O489 1.247 . S
O471 C470 1.224 . S
N472 Co462 2.128 . S
N472 C473 1.355 . S
N472 C475 1.311 . S
C473 N472 1.355 . S
C473 C474 1.363 . S
C473 H485 0.929 . S
C474 C473 1.363 . S
C474 N476 1.375 . S
C474 H492 0.931 . S
C475 N472 1.311 . S
C475 N476 1.347 . S
C475 H486 0.929 . S
N476 C474 1.375 . S
N476 C475 1.347 . S
C477 C480 1.365 . S
C477 N482 1.328 . S
C477 H483 0.929 . S
C478 C479 1.362 . S
C478 C481 1.378 . S
C478 H493 0.929 . S
C479 C478 1.362 . S
C479 C480 1.366 . S
C480 C477 1.365 . S
C480 C479 1.366 . S
C480 H494 0.930 . S
C481 C478 1.378 . S
C481 N482 1.315 . S
C481 H484 0.930 . S
N482 Co462 2.194 . S
N482 C477 1.328 . S
N482 C481 1.315 . S
H483 C477 0.929 . S
H484 C481 0.930 . S
H485 C473 0.929 . S
H486 C475 0.929 . S
O487 Co462 2.351 . S
O487 C490 1.244 . S
O488 Co462 2.155 . S
O488 C490 1.240 . S
O489 Co462 2.096 . S
O489 C470 1.247 . S
C490 O487 1.244 . S
C490 O488 1.240 . S
H491 C465 0.931 . S
H492 C474 0.931 . S
H493 C478 0.929 . S
H494 C480 0.930 . S
Co495 N499 2.148 . S
Co495 N505 2.128 . S
Co495 N515 2.194 . S
Co495 O520 2.351 . S
Co495 O521 2.155 . S
Co495 O522 2.096 . S
C496 N499 1.301 . S
C496 N500 1.328 . S
C496 H501 0.930 . S
C497 C498 1.333 . S
C497 N499 1.317 . S
C497 H502 0.930 . S
C498 C497 1.333 . S
C498 N500 1.350 . S
C498 H524 0.931 . S
N499 Co495 2.148 . S
N499 C496 1.301 . S
N499 C497 1.317 . S
N500 C496 1.328 . S
N500 C498 1.350 . S
H501 C496 0.930 . S
H502 C497 0.930 . S
C503 O504 1.224 . S
C503 O522 1.247 . S
O504 C503 1.224 . S
N505 Co495 2.128 . S
N505 C506 1.355 . S
N505 C508 1.311 . S
C506 N505 1.355 . S
C506 C507 1.363 . S
C506 H518 0.929 . S
C507 C506 1.363 . S
C507 N509 1.375 . S
C507 H525 0.931 . S
C508 N505 1.311 . S
C508 N509 1.347 . S
C508 H519 0.929 . S
N509 C507 1.375 . S
N509 C508 1.347 . S
C510 C513 1.365 . S
C510 N515 1.328 . S
C510 H516 0.929 . S
C511 C512 1.362 . S
C511 C514 1.378 . S
C511 H526 0.929 . S
C512 C511 1.362 . S
C512 C513 1.366 . S
C513 C510 1.365 . S
C513 C512 1.366 . S
C513 H527 0.930 . S
C514 C511 1.378 . S
C514 N515 1.315 . S
C514 H517 0.930 . S
N515 Co495 2.194 . S
N515 C510 1.328 . S
N515 C514 1.315 . S
H516 C510 0.929 . S
H517 C514 0.930 . S
H518 C506 0.929 . S
H519 C508 0.929 . S
O520 Co495 2.351 . S
O520 C523 1.244 . S
O521 Co495 2.155 . S
O521 C523 1.240 . S
O522 Co495 2.096 . S
O522 C503 1.247 . S
C523 O520 1.244 . S
C523 O521 1.240 . S
H524 C498 0.931 . S
H525 C507 0.931 . S
H526 C511 0.929 . S
H527 C513 0.930 . S
C528 C529 1.363 . S
C528 C534 1.379 . S
C528 N536 1.356 . S
C529 C528 1.363 . S
C529 C535 1.363 1_655 S
C530 C531 1.363 . S
C530 C535 1.379 . S
C530 N537 1.356 . S
C531 C530 1.363 . S
C531 C534 1.363 1_455 S
N532 C534 1.356 . S
N532 H544 0.984 . S
N532 H545 0.985 1_655 S
N533 C535 1.356 . S
N533 H538 0.984 1_455 S
N533 H539 0.985 . S
C534 C528 1.379 . S
C534 C531 1.363 1_655 S
C534 N532 1.356 . S
C535 C529 1.363 1_455 S
C535 C530 1.379 . S
C535 N533 1.356 . S
N536 C528 1.356 . S
N536 H542 0.984 . S
N536 H543 0.984 . S
N537 C530 1.356 . S
N537 H540 0.984 . S
N537 H541 0.985 . S
H538 N533 0.984 1_655 S
H539 N533 0.985 . S
H540 N537 0.984 . S
H541 N537 0.985 . S
H542 N536 0.984 . S
H543 N536 0.984 . S
H544 N532 0.984 . S
H545 N532 0.985 1_455 S
C546 C547 1.363 1_565 S
C546 C552 1.379 . S
C546 N554 1.356 . S
C547 C546 1.363 1_545 S
C547 C553 1.363 . S
C548 C549 1.363 1_545 S
C548 C553 1.379 . S
C548 N555 1.356 . S
C549 C548 1.363 1_565 S
C549 C552 1.363 . S
N550 C552 1.356 . S
N550 H562 0.984 . S
N550 H563 0.985 . S
N551 C553 1.356 . S
N551 H556 0.984 . S
N551 H557 0.985 . S
C552 C546 1.379 . S
C552 C549 1.363 . S
C552 N550 1.356 . S
C553 C547 1.363 . S
C553 C548 1.379 . S
C553 N551 1.356 . S
N554 C546 1.356 . S
N554 H560 0.984 . S
N554 H561 0.984 1_565 S
N555 C548 1.356 . S
N555 H558 0.984 1_545 S
N555 H559 0.985 . S
H556 N551 0.984 . S
H557 N551 0.985 . S
H558 N555 0.984 1_565 S
H559 N555 0.985 . S
H560 N554 0.984 . S
H561 N554 0.984 1_545 S
H562 N550 0.984 . S
H563 N550 0.985 . S
C564 C565 1.363 1_455 S
C564 C570 1.379 . S
C564 N572 1.356 . S
C565 C564 1.363 1_655 S
C565 C571 1.363 . S
C566 C567 1.363 1_655 S
C566 C571 1.379 . S
C566 N573 1.356 . S
C567 C566 1.363 1_455 S
C567 C570 1.363 . S
N568 C570 1.356 . S
N568 H580 0.984 . S
N568 H581 0.985 . S
N569 C571 1.356 . S
N569 H574 0.984 . S
N569 H575 0.985 . S
C570 C564 1.379 . S
C570 C567 1.363 . S
C570 N568 1.356 . S
C571 C565 1.363 . S
C571 C566 1.379 . S
C571 N569 1.356 . S
N572 C564 1.356 . S
N572 H578 0.984 . S
N572 H579 0.984 1_455 S
N573 C566 1.356 . S
N573 H576 0.984 1_655 S
N573 H577 0.985 . S
H574 N569 0.984 . S
H575 N569 0.985 . S
H576 N573 0.984 1_455 S
H577 N573 0.985 . S
H578 N572 0.984 . S
H579 N572 0.984 1_655 S
H580 N568 0.984 . S
H581 N568 0.985 . S
C582 C583 1.363 . S
C582 C588 1.379 . S
C582 N590 1.356 . S
C583 C582 1.363 . S
C583 C589 1.363 1_565 S
C584 C585 1.363 . S
C584 C589 1.379 . S
C584 N591 1.356 . S
C585 C584 1.363 . S
C585 C588 1.363 1_545 S
N586 C588 1.356 . S
N586 H598 0.984 . S
N586 H599 0.985 . S
N587 C589 1.356 . S
N587 H592 0.984 . S
N587 H593 0.985 . S
C588 C582 1.379 . S
C588 C585 1.363 1_565 S
C588 N586 1.356 . S
C589 C583 1.363 1_545 S
C589 C584 1.379 . S
C589 N587 1.356 . S
N590 C582 1.356 . S
N590 H596 0.984 . S
N590 H597 0.984 . S
N591 C584 1.356 . S
N591 H594 0.984 . S
N591 H595 0.985 . S
H592 N587 0.984 . S
H593 N587 0.985 . S
H594 N591 0.984 . S
H595 N591 0.985 . S
H596 N590 0.984 . S
H597 N590 0.984 . S
H598 N586 0.984 . S
H599 N586 0.985 . S
C600 C601 1.363 . S
C600 C606 1.379 1_655 S
C600 N608 1.356 . S
C601 C600 1.363 . S
C601 C607 1.363 . S
C602 C603 1.363 . S
C602 C607 1.379 1_455 S
C602 N609 1.356 . S
C603 C602 1.363 . S
C603 C606 1.363 . S
N604 C606 1.356 . S
N604 H616 0.984 . S
N604 H617 0.985 . S
N605 C607 1.356 . S
N605 H610 0.984 . S
N605 H611 0.985 . S
C606 C600 1.379 1_455 S
C606 C603 1.363 . S
C606 N604 1.356 . S
C607 C601 1.363 . S
C607 C602 1.379 1_655 S
C607 N605 1.356 . S
N608 C600 1.356 . S
N608 H614 0.984 . S
N608 H615 0.984 . S
N609 C602 1.356 . S
N609 H612 0.984 . S
N609 H613 0.985 . S
H610 N605 0.984 . S
H611 N605 0.985 . S
H612 N609 0.984 . S
H613 N609 0.985 . S
H614 N608 0.984 . S
H615 N608 0.984 . S
H616 N604 0.984 . S
H617 N604 0.985 . S
C618 C619 1.363 1_545 S
C618 C624 1.379 . S
C618 N626 1.356 1_545 S
C619 C618 1.363 1_565 S
C619 C625 1.363 . S
C620 C621 1.363 . S
C620 C625 1.379 1_545 S
C620 N627 1.356 . S
C621 C620 1.363 . S
C621 C624 1.363 . S
N622 C624 1.356 . S
N622 H634 0.984 . S
N622 H635 0.985 . S
N623 C625 1.356 . S
N623 H628 0.984 . S
N623 H629 0.985 . S
C624 C618 1.379 . S
C624 C621 1.363 . S
C624 N622 1.356 . S
C625 C619 1.363 . S
C625 C620 1.379 1_565 S
C625 N623 1.356 . S
N626 C618 1.356 1_565 S
N626 H632 0.996 . S
N626 H633 0.984 . S
N627 C620 1.356 . S
N627 H630 0.984 . S
N627 H631 0.985 . S
H628 N623 0.984 . S
H629 N623 0.985 . S
H630 N627 0.984 . S
H631 N627 0.985 . S
H632 N626 0.996 . S
H633 N626 0.984 . S
H634 N622 0.984 . S
H635 N622 0.985 . S
C636 C637 1.363 . S
C636 C642 1.379 1_655 S
C636 N644 1.356 . S
C637 C636 1.363 . S
C637 C643 1.363 . S
C638 C639 1.363 . S
C638 C643 1.379 1_455 S
C638 N645 1.356 . S
C639 C638 1.363 . S
C639 C642 1.363 . S
N640 C642 1.356 . S
N640 H652 0.984 . S
N640 H653 0.985 . S
N641 C643 1.356 . S
N641 H646 0.984 . S
N641 H647 0.985 . S
C642 C636 1.379 1_455 S
C642 C639 1.363 . S
C642 N640 1.356 . S
C643 C637 1.363 . S
C643 C638 1.379 1_655 S
C643 N641 1.356 . S
N644 C636 1.356 . S
N644 H650 0.984 . S
N644 H651 0.984 . S
N645 C638 1.356 . S
N645 H648 0.984 . S
N645 H649 0.985 . S
H646 N641 0.984 . S
H647 N641 0.985 . S
H648 N645 0.984 . S
H649 N645 0.985 . S
H650 N644 0.984 . S
H651 N644 0.984 . S
H652 N640 0.984 . S
H653 N640 0.985 . S
C654 C655 1.363 . S
C654 C660 1.379 . S
C654 N662 1.356 . S
C655 C654 1.363 . S
C655 C661 1.363 . S
C656 C657 1.363 . S
C656 C661 1.379 1_565 S
C656 N663 1.356 . S
C657 C656 1.363 . S
C657 C660 1.363 1_565 S
N658 C660 1.356 1_565 S
N658 H670 0.984 1_565 S
N658 H671 0.985 . S
N659 C661 1.356 . S
N659 H664 0.984 . S
N659 H665 0.985 . S
C660 C654 1.379 . S
C660 C657 1.363 1_545 S
C660 N658 1.356 1_545 S
C661 C655 1.363 . S
C661 C656 1.379 1_545 S
C661 N659 1.356 . S
N662 C654 1.356 . S
N662 H668 0.984 . S
N662 H669 0.984 . S
N663 C656 1.356 . S
N663 H666 0.984 . S
N663 H667 0.985 . S
H664 N659 0.984 . S
H665 N659 0.985 . S
H666 N663 0.984 . S
H667 N663 0.985 . S
H668 N662 0.984 . S
H669 N662 0.984 . S
H670 N658 0.984 1_545 S
H671 N658 0.985 . S
C672 C673 1.363 . S
C672 C678 1.379 . S
C672 N680 1.356 . S
C673 C672 1.363 . S
C673 C679 1.363 . S
C674 C675 1.363 . S
C674 C679 1.379 . S
C674 N681 1.356 . S
C675 C674 1.363 . S
C675 C678 1.363 . S
N676 C678 1.356 . S
N676 H688 0.984 . S
N676 H689 0.985 . S
N677 C679 1.356 . S
N677 H682 0.984 . S
N677 H683 0.985 . S
C678 C672 1.379 . S
C678 C675 1.363 . S
C678 N676 1.356 . S
C679 C673 1.363 . S
C679 C674 1.379 . S
C679 N677 1.356 . S
N680 C672 1.356 . S
N680 H686 0.984 . S
N680 H687 0.984 . S
N681 C674 1.356 . S
N681 H684 0.984 . S
N681 H685 0.985 . S
H682 N677 0.984 . S
H683 N677 0.985 . S
H684 N681 0.984 . S
H685 N681 0.985 . S
H686 N680 0.984 . S
H687 N680 0.984 . S
H688 N676 0.984 . S
H689 N676 0.985 . S
C690 C691 1.363 . S
C690 C696 1.379 . S
C690 N698 1.356 . S
C691 C690 1.363 . S
C691 C697 1.363 . S
C692 C693 1.363 . S
C692 C697 1.379 . S
C692 N699 1.356 . S
C693 C692 1.363 . S
C693 C696 1.363 . S
N694 C696 1.356 . S
N694 H706 0.984 . S
N694 H707 0.985 . S
N695 C697 1.356 . S
N695 H700 0.984 . S
N695 H701 0.985 . S
C696 C690 1.379 . S
C696 C693 1.363 . S
C696 N694 1.356 . S
C697 C691 1.363 . S
C697 C692 1.379 . S
C697 N695 1.356 . S
N698 C690 1.356 . S
N698 H704 0.984 . S
N698 H705 0.984 . S
N699 C692 1.356 . S
N699 H702 0.984 . S
N699 H703 0.985 . S
H700 N695 0.984 . S
H701 N695 0.985 . S
H702 N699 0.984 . S
H703 N699 0.985 . S
H704 N698 0.984 . S
H705 N698 0.984 . S
H706 N694 0.984 . S
H707 N694 0.985 . S
C708 C709 1.363 . S
C708 C714 1.379 . S
C708 N716 1.356 . S
C709 C708 1.363 . S
C709 C715 1.363 . S
C710 C711 1.363 . S
C710 C715 1.379 . S
C710 N717 1.356 . S
C711 C710 1.363 . S
C711 C714 1.363 . S
N712 C714 1.356 . S
N712 H724 0.984 . S
N712 H725 0.985 . S
N713 C715 1.356 . S
N713 H718 0.984 . S
N713 H719 0.985 . S
C714 C708 1.379 . S
C714 C711 1.363 . S
C714 N712 1.356 . S
C715 C709 1.363 . S
C715 C710 1.379 . S
C715 N713 1.356 . S
N716 C708 1.356 . S
N716 H722 0.984 . S
N716 H723 0.984 . S
N717 C710 1.356 . S
N717 H720 0.984 . S
N717 H721 0.985 . S
H718 N713 0.984 . S
H719 N713 0.985 . S
H720 N717 0.984 . S
H721 N717 0.985 . S
H722 N716 0.984 . S
H723 N716 0.984 . S
H724 N712 0.984 . S
H725 N712 0.985 . S
C726 C727 1.363 . S
C726 C732 1.379 . S
C726 N734 1.356 . S
C727 C726 1.363 . S
C727 C733 1.363 . S
C728 C729 1.363 . S
C728 C733 1.379 . S
C728 N735 1.356 . S
C729 C728 1.363 . S
C729 C732 1.363 . S
N730 C732 1.356 . S
N730 H742 0.984 . S
N730 H743 0.985 . S
N731 C733 1.356 . S
N731 H736 0.984 . S
N731 H737 0.985 . S
C732 C726 1.379 . S
C732 C729 1.363 . S
C732 N730 1.356 . S
C733 C727 1.363 . S
C733 C728 1.379 . S
C733 N731 1.356 . S
N734 C726 1.356 . S
N734 H740 0.984 . S
N734 H741 0.984 . S
N735 C728 1.356 . S
N735 H738 0.984 . S
N735 H739 0.985 . S
H736 N731 0.984 . S
H737 N731 0.985 . S
H738 N735 0.984 . S
H739 N735 0.985 . S
H740 N734 0.984 . S
H741 N734 0.984 . S
H742 N730 0.984 . S
H743 N730 0.985 . S
C744 C745 1.363 . S
C744 C750 1.379 . S
C744 N752 1.356 . S
C745 C744 1.363 . S
C745 C751 1.363 . S
C746 C747 1.363 . S
C746 C751 1.379 . S
C746 N753 1.356 . S
C747 C746 1.363 . S
C747 C750 1.363 . S
N748 C750 1.356 . S
N748 H760 0.984 . S
N748 H761 0.985 . S
N749 C751 1.356 . S
N749 H754 0.984 . S
N749 H755 0.985 . S
C750 C744 1.379 . S
C750 C747 1.363 . S
C750 N748 1.356 . S
C751 C745 1.363 . S
C751 C746 1.379 . S
C751 N749 1.356 . S
N752 C744 1.356 . S
N752 H758 0.984 . S
N752 H759 0.984 . S
N753 C746 1.356 . S
N753 H756 0.984 . S
N753 H757 0.985 . S
H754 N749 0.984 . S
H755 N749 0.985 . S
H756 N753 0.984 . S
H757 N753 0.985 . S
H758 N752 0.984 . S
H759 N752 0.984 . S
H760 N748 0.984 . S
H761 N748 0.985 . S
C762 C763 1.363 . S
C762 C768 1.379 . S
C762 N770 1.356 . S
C763 C762 1.363 . S
C763 C769 1.363 . S
C764 C765 1.363 . S
C764 C769 1.379 . S
C764 N771 1.356 . S
C765 C764 1.363 . S
C765 C768 1.363 . S
N766 C768 1.356 . S
N766 H778 0.984 . S
N766 H779 0.985 . S
N767 C769 1.356 . S
N767 H772 0.984 . S
N767 H773 0.985 . S
C768 C762 1.379 . S
C768 C765 1.363 . S
C768 N766 1.356 . S
C769 C763 1.363 . S
C769 C764 1.379 . S
C769 N767 1.356 . S
N770 C762 1.356 . S
N770 H776 0.984 . S
N770 H777 0.984 . S
N771 C764 1.356 . S
N771 H774 0.984 . S
N771 H775 0.985 . S
H772 N767 0.984 . S
H773 N767 0.985 . S
H774 N771 0.984 . S
H775 N771 0.985 . S
H776 N770 0.984 . S
H777 N770 0.984 . S
H778 N766 0.984 . S
H779 N766 0.985 . S
C780 C781 1.363 . S
C780 C786 1.379 . S
C780 N788 1.356 . S
C781 C780 1.363 . S
C781 C787 1.363 . S
C782 C783 1.363 . S
C782 C787 1.379 . S
C782 N789 1.356 . S
C783 C782 1.363 . S
C783 C786 1.363 . S
N784 C786 1.356 . S
N784 H796 0.984 . S
N784 H797 0.985 . S
N785 C787 1.356 . S
N785 H790 0.984 . S
N785 H791 0.985 . S
C786 C780 1.379 . S
C786 C783 1.363 . S
C786 N784 1.356 . S
C787 C781 1.363 . S
C787 C782 1.379 . S
C787 N785 1.356 . S
N788 C780 1.356 . S
N788 H794 0.984 . S
N788 H795 0.984 . S
N789 C782 1.356 . S
N789 H792 0.984 . S
N789 H793 0.985 . S
H790 N785 0.984 . S
H791 N785 0.985 . S
H792 N789 0.984 . S
H793 N789 0.985 . S
H794 N788 0.984 . S
H795 N788 0.984 . S
H796 N784 0.984 . S
H797 N784 0.985 . S
C798 C799 1.363 . S
C798 C804 1.379 . S
C798 N806 1.356 . S
C799 C798 1.363 . S
C799 C805 1.363 . S
C800 C801 1.363 . S
C800 C805 1.379 . S
C800 N807 1.356 . S
C801 C800 1.363 . S
C801 C804 1.363 . S
N802 C804 1.356 . S
N802 H814 0.984 . S
N802 H815 0.985 . S
N803 C805 1.356 . S
N803 H808 0.984 . S
N803 H809 0.985 . S
C804 C798 1.379 . S
C804 C801 1.363 . S
C804 N802 1.356 . S
C805 C799 1.363 . S
C805 C800 1.379 . S
C805 N803 1.356 . S
N806 C798 1.356 . S
N806 H812 0.984 . S
N806 H813 0.984 . S
N807 C800 1.356 . S
N807 H810 0.984 . S
N807 H811 0.985 . S
H808 N803 0.984 . S
H809 N803 0.985 . S
H810 N807 0.984 . S
H811 N807 0.985 . S
H812 N806 0.984 . S
H813 N806 0.984 . S
H814 N802 0.984 . S
H815 N802 0.985 . S
C816 C817 1.363 . S
C816 C822 1.379 1_554 S
C816 N824 1.356 . S
C817 C816 1.363 . S
C817 C823 1.363 . S
C818 C819 1.363 . S
C818 C823 1.379 1_556 S
C818 N825 1.356 . S
C819 C818 1.363 . S
C819 C822 1.363 . S
N820 C822 1.356 . S
N820 H832 0.984 . S
N820 H833 0.985 . S
N821 C823 1.356 . S
N821 H826 0.984 . S
N821 H827 0.985 . S
C822 C816 1.379 1_556 S
C822 C819 1.363 . S
C822 N820 1.356 . S
C823 C817 1.363 . S
C823 C818 1.379 1_554 S
C823 N821 1.356 . S
N824 C816 1.356 . S
N824 H830 0.984 . S
N824 H831 0.984 . S
N825 C818 1.356 . S
N825 H828 0.984 . S
N825 H829 0.985 . S
H826 N821 0.984 . S
H827 N821 0.985 . S
H828 N825 0.984 . S
H829 N825 0.985 . S
H830 N824 0.984 . S
H831 N824 0.984 . S
H832 N820 0.984 . S
H833 N820 0.985 . S
C834 C835 1.363 . S
C834 C840 1.379 1_556 S
C834 N842 1.356 . S
C835 C834 1.363 . S
C835 C841 1.363 . S
C836 C837 1.363 . S
C836 C841 1.379 1_554 S
C836 N843 1.356 . S
C837 C836 1.363 . S
C837 C840 1.363 . S
N838 C840 1.356 . S
N838 H850 0.984 . S
N838 H851 0.985 . S
N839 C841 1.356 . S
N839 H844 0.984 . S
N839 H845 0.985 . S
C840 C834 1.379 1_554 S
C840 C837 1.363 . S
C840 N838 1.356 . S
C841 C835 1.363 . S
C841 C836 1.379 1_556 S
C841 N839 1.356 . S
N842 C834 1.356 . S
N842 H848 0.984 . S
N842 H849 0.984 . S
N843 C836 1.356 . S
N843 H846 0.984 . S
N843 H847 0.985 . S
H844 N839 0.984 . S
H845 N839 0.985 . S
H846 N843 0.984 . S
H847 N843 0.985 . S
H848 N842 0.984 . S
H849 N842 0.984 . S
H850 N838 0.984 . S
H851 N838 0.985 . S
C852 C853 1.363 . S
C852 C858 1.379 1_556 S
C852 N860 1.356 . S
C853 C852 1.363 . S
C853 C859 1.363 . S
C854 C855 1.363 . S
C854 C859 1.379 1_554 S
C854 N861 1.356 . S
C855 C854 1.363 . S
C855 C858 1.363 . S
N856 C858 1.356 . S
N856 H868 0.984 . S
N856 H869 0.985 . S
N857 C859 1.356 . S
N857 H862 0.984 . S
N857 H863 0.985 . S
C858 C852 1.379 1_554 S
C858 C855 1.363 . S
C858 N856 1.356 . S
C859 C853 1.363 . S
C859 C854 1.379 1_556 S
C859 N857 1.356 . S
N860 C852 1.356 . S
N860 H866 0.984 . S
N860 H867 0.984 . S
N861 C854 1.356 . S
N861 H864 0.984 . S
N861 H865 0.985 . S
H862 N857 0.984 . S
H863 N857 0.985 . S
H864 N861 0.984 . S
H865 N861 0.985 . S
H866 N860 0.984 . S
H867 N860 0.984 . S
H868 N856 0.984 . S
H869 N856 0.985 . S
C870 C871 1.363 . S
C870 C876 1.379 1_556 S
C870 N878 1.356 . S
C871 C870 1.363 . S
C871 C877 1.363 . S
C872 C873 1.363 . S
C872 C877 1.379 1_554 S
C872 N879 1.356 . S
C873 C872 1.363 . S
C873 C876 1.363 . S
N874 C876 1.356 . S
N874 H886 0.984 . S
N874 H887 0.985 . S
N875 C877 1.356 . S
N875 H880 0.984 . S
N875 H881 0.985 . S
C876 C870 1.379 1_554 S
C876 C873 1.363 . S
C876 N874 1.356 . S
C877 C871 1.363 . S
C877 C872 1.379 1_556 S
C877 N875 1.356 . S
N878 C870 1.356 . S
N878 H884 0.984 . S
N878 H885 0.984 . S
N879 C872 1.356 . S
N879 H882 0.984 . S
N879 H883 0.985 . S
H880 N875 0.984 . S
H881 N875 0.985 . S
H882 N879 0.984 . S
H883 N879 0.985 . S
H884 N878 0.984 . S
H885 N878 0.984 . S
H886 N874 0.984 . S
H887 N874 0.985 . S
C888 C889 1.363 . S
C888 C894 1.379 . S
C888 N896 1.356 . S
C889 C888 1.363 . S
C889 C895 1.363 . S
C890 C891 1.363 . S
C890 C895 1.379 . S
C890 N897 1.356 . S
C891 C890 1.363 . S
C891 C894 1.363 . S
N892 C894 1.356 . S
N892 H904 0.984 . S
N892 H905 0.985 . S
N893 C895 1.356 . S
N893 H898 0.984 . S
N893 H899 0.985 . S
C894 C888 1.379 . S
C894 C891 1.363 . S
C894 N892 1.356 . S
C895 C889 1.363 . S
C895 C890 1.379 . S
C895 N893 1.356 . S
N896 C888 1.356 . S
N896 H902 0.984 . S
N896 H903 0.984 . S
N897 C890 1.356 . S
N897 H900 0.984 . S
N897 H901 0.985 . S
H898 N893 0.984 . S
H899 N893 0.985 . S
H900 N897 0.984 . S
H901 N897 0.985 . S
H902 N896 0.984 . S
H903 N896 0.984 . S
H904 N892 0.984 . S
H905 N892 0.985 . S
C906 C907 1.363 . S
C906 C912 1.379 . S
C906 N914 1.356 . S
C907 C906 1.363 . S
C907 C913 1.363 . S
C908 C909 1.363 . S
C908 C913 1.379 . S
C908 N915 1.356 . S
C909 C908 1.363 . S
C909 C912 1.363 . S
N910 C912 1.356 . S
N910 H922 0.984 . S
N910 H923 0.985 . S
N911 C913 1.356 . S
N911 H916 0.984 . S
N911 H917 0.985 . S
C912 C906 1.379 . S
C912 C909 1.363 . S
C912 N910 1.356 . S
C913 C907 1.363 . S
C913 C908 1.379 . S
C913 N911 1.356 . S
N914 C906 1.356 . S
N914 H920 0.984 . S
N914 H921 0.984 . S
N915 C908 1.356 . S
N915 H918 0.984 . S
N915 H919 0.985 . S
H916 N911 0.984 . S
H917 N911 0.985 . S
H918 N915 0.984 . S
H919 N915 0.985 . S
H920 N914 0.984 . S
H921 N914 0.984 . S
H922 N910 0.984 . S
H923 N910 0.985 . S
C924 C925 1.363 . S
C924 C930 1.379 . S
C924 N932 1.356 . S
C925 C924 1.363 . S
C925 C931 1.363 . S
C926 C927 1.363 . S
C926 C931 1.379 . S
C926 N933 1.356 . S
C927 C926 1.363 . S
C927 C930 1.363 . S
N928 C930 1.356 . S
N928 H940 0.984 . S
N928 H941 0.985 . S
N929 C931 1.356 . S
N929 H934 0.984 . S
N929 H935 0.985 . S
C930 C924 1.379 . S
C930 C927 1.363 . S
C930 N928 1.356 . S
C931 C925 1.363 . S
C931 C926 1.379 . S
C931 N929 1.356 . S
N932 C924 1.356 . S
N932 H938 0.984 . S
N932 H939 0.984 . S
N933 C926 1.356 . S
N933 H936 0.984 . S
N933 H937 0.985 . S
H934 N929 0.984 . S
H935 N929 0.985 . S
H936 N933 0.984 . S
H937 N933 0.985 . S
H938 N932 0.984 . S
H939 N932 0.984 . S
H940 N928 0.984 . S
H941 N928 0.985 . S
C942 C943 1.363 . S
C942 C948 1.379 . S
C942 N950 1.356 . S
C943 C942 1.363 . S
C943 C949 1.363 . S
C944 C945 1.363 . S
C944 C949 1.379 . S
C944 N951 1.356 . S
C945 C944 1.363 . S
C945 C948 1.363 . S
N946 C948 1.356 . S
N946 H958 0.984 . S
N946 H959 0.985 . S
N947 C949 1.356 . S
N947 H952 0.984 . S
N947 H953 0.985 . S
C948 C942 1.379 . S
C948 C945 1.363 . S
C948 N946 1.356 . S
C949 C943 1.363 . S
C949 C944 1.379 . S
C949 N947 1.356 . S
N950 C942 1.356 . S
N950 H956 0.984 . S
N950 H957 0.984 . S
N951 C944 1.356 . S
N951 H954 0.984 . S
N951 H955 0.985 . S
H952 N947 0.984 . S
H953 N947 0.985 . S
H954 N951 0.984 . S
H955 N951 0.985 . S
H956 N950 0.984 . S
H957 N950 0.984 . S
H958 N946 0.984 . S
H959 N946 0.985 . S
C960 C961 1.363 . S
C960 C966 1.379 . S
C960 N968 1.356 . S
C961 C960 1.363 . S
C961 C967 1.363 . S
C962 C963 1.363 . S
C962 C967 1.379 . S
C962 N969 1.356 . S
C963 C962 1.363 . S
C963 C966 1.363 . S
N964 C966 1.356 . S
N964 H976 0.984 . S
N964 H977 0.985 . S
N965 C967 1.356 . S
N965 H970 0.984 . S
N965 H971 0.985 . S
C966 C960 1.379 . S
C966 C963 1.363 . S
C966 N964 1.356 . S
C967 C961 1.363 . S
C967 C962 1.379 . S
C967 N965 1.356 . S
N968 C960 1.356 . S
N968 H974 0.984 . S
N968 H975 0.984 . S
N969 C962 1.356 . S
N969 H972 0.984 . S
N969 H973 0.985 . S
H970 N965 0.984 . S
H971 N965 0.985 . S
H972 N969 0.984 . S
H973 N969 0.985 . S
H974 N968 0.984 . S
H975 N968 0.984 . S
H976 N964 0.984 . S
H977 N964 0.985 . S
C978 C979 1.363 . S
C978 C984 1.379 . S
C978 N986 1.356 . S
C979 C978 1.363 . S
C979 C985 1.363 . S
C980 C981 1.363 . S
C980 C985 1.379 . S
C980 N987 1.356 . S
C981 C980 1.363 . S
C981 C984 1.363 . S
N982 C984 1.356 . S
N982 H994 0.984 . S
N982 H995 0.985 . S
N983 C985 1.356 . S
N983 H988 0.984 . S
N983 H989 0.985 . S
C984 C978 1.379 . S
C984 C981 1.363 . S
C984 N982 1.356 . S
C985 C979 1.363 . S
C985 C980 1.379 . S
C985 N983 1.356 . S
N986 C978 1.356 . S
N986 H992 0.984 . S
N986 H993 0.984 . S
N987 C980 1.356 . S
N987 H990 0.984 . S
N987 H991 0.985 . S
H988 N983 0.984 . S
H989 N983 0.985 . S
H990 N987 0.984 . S
H991 N987 0.985 . S
H992 N986 0.984 . S
H993 N986 0.984 . S
H994 N982 0.984 . S
H995 N982 0.985 . S
C996 C997 1.363 . S
C996 C1002 1.379 . S
C996 N1004 1.356 . S
C997 C996 1.363 . S
C997 C1003 1.363 . S
C998 C999 1.363 . S
C998 C1003 1.379 . S
C998 N1005 1.356 . S
C999 C998 1.363 . S
C999 C1002 1.363 . S
N1000 C1002 1.356 . S
N1000 H1012 0.984 . S
N1000 H1013 0.985 . S
N1001 C1003 1.356 . S
N1001 H1006 0.984 . S
N1001 H1007 0.985 . S
C1002 C996 1.379 . S
C1002 C999 1.363 . S
C1002 N1000 1.356 . S
C1003 C997 1.363 . S
C1003 C998 1.379 . S
C1003 N1001 1.356 . S
N1004 C996 1.356 . S
N1004 H1010 0.984 . S
N1004 H1011 0.984 . S
N1005 C998 1.356 . S
N1005 H1008 0.984 . S
N1005 H1009 0.985 . S
H1006 N1001 0.984 . S
H1007 N1001 0.985 . S
H1008 N1005 0.984 . S
H1009 N1005 0.985 . S
H1010 N1004 0.984 . S
H1011 N1004 0.984 . S
H1012 N1000 0.984 . S
H1013 N1000 0.985 . S
C1014 C1015 1.363 . S
C1014 C1020 1.379 . S
C1014 N1022 1.356 . S
C1015 C1014 1.363 . S
C1015 C1021 1.363 . S
C1016 C1017 1.363 . S
C1016 C1021 1.379 . S
C1016 N1023 1.356 . S
C1017 C1016 1.363 . S
C1017 C1020 1.363 . S
N1018 C1020 1.356 . S
N1018 H1030 0.984 . S
N1018 H1031 0.985 . S
N1019 C1021 1.356 . S
N1019 H1024 0.984 . S
N1019 H1025 0.985 . S
C1020 C1014 1.379 . S
C1020 C1017 1.363 . S
C1020 N1018 1.356 . S
C1021 C1015 1.363 . S
C1021 C1016 1.379 . S
C1021 N1019 1.356 . S
N1022 C1014 1.356 . S
N1022 H1028 0.984 . S
N1022 H1029 0.984 . S
N1023 C1016 1.356 . S
N1023 H1026 0.984 . S
N1023 H1027 0.985 . S
H1024 N1019 0.984 . S
H1025 N1019 0.985 . S
H1026 N1023 0.984 . S
H1027 N1023 0.985 . S
H1028 N1022 0.984 . S
H1029 N1022 0.984 . S
H1030 N1018 0.984 . S
H1031 N1018 0.985 . S
C1032 C1033 1.363 . S
C1032 C1038 1.379 . S
C1032 N1040 1.356 . S
C1033 C1032 1.363 . S
C1033 C1039 1.363 . S
C1034 C1035 1.363 . S
C1034 C1039 1.379 . S
C1034 N1041 1.356 . S
C1035 C1034 1.363 . S
C1035 C1038 1.363 . S
N1036 C1038 1.356 . S
N1036 H1048 0.984 . S
N1036 H1049 0.985 . S
N1037 C1039 1.356 . S
N1037 H1042 0.984 . S
N1037 H1043 0.985 . S
C1038 C1032 1.379 . S
C1038 C1035 1.363 . S
C1038 N1036 1.356 . S
C1039 C1033 1.363 . S
C1039 C1034 1.379 . S
C1039 N1037 1.356 . S
N1040 C1032 1.356 . S
N1040 H1046 0.984 . S
N1040 H1047 0.984 . S
N1041 C1034 1.356 . S
N1041 H1044 0.984 . S
N1041 H1045 0.985 . S
H1042 N1037 0.984 . S
H1043 N1037 0.985 . S
H1044 N1041 0.984 . S
H1045 N1041 0.985 . S
H1046 N1040 0.984 . S
H1047 N1040 0.984 . S
H1048 N1036 0.984 . S
H1049 N1036 0.985 . S
C1050 C1051 1.363 . S
C1050 C1056 1.379 . S
C1050 N1058 1.356 . S
C1051 C1050 1.363 . S
C1051 C1057 1.363 . S
C1052 C1053 1.363 . S
C1052 C1057 1.379 . S
C1052 N1059 1.356 . S
C1053 C1052 1.363 . S
C1053 C1056 1.363 . S
N1054 C1056 1.356 . S
N1054 H1066 0.984 . S
N1054 H1067 0.985 . S
N1055 C1057 1.356 . S
N1055 H1060 0.984 . S
N1055 H1061 0.985 . S
C1056 C1050 1.379 . S
C1056 C1053 1.363 . S
C1056 N1054 1.356 . S
C1057 C1051 1.363 . S
C1057 C1052 1.379 . S
C1057 N1055 1.356 . S
N1058 C1050 1.356 . S
N1058 H1064 0.984 . S
N1058 H1065 0.984 . S
N1059 C1052 1.356 . S
N1059 H1062 0.984 . S
N1059 H1063 0.985 . S
H1060 N1055 0.984 . S
H1061 N1055 0.985 . S
H1062 N1059 0.984 . S
H1063 N1059 0.985 . S
H1064 N1058 0.984 . S
H1065 N1058 0.984 . S
H1066 N1054 0.984 . S
H1067 N1054 0.985 . S
C1068 C1069 1.363 . S
C1068 C1074 1.379 . S
C1068 N1076 1.356 . S
C1069 C1068 1.363 . S
C1069 C1075 1.363 . S
C1070 C1071 1.363 . S
C1070 C1075 1.379 . S
C1070 N1077 1.356 . S
C1071 C1070 1.363 . S
C1071 C1074 1.363 . S
N1072 C1074 1.356 . S
N1072 H1084 0.984 . S
N1072 H1085 0.985 . S
N1073 C1075 1.356 . S
N1073 H1078 0.984 . S
N1073 H1079 0.985 . S
C1074 C1068 1.379 . S
C1074 C1071 1.363 . S
C1074 N1072 1.356 . S
C1075 C1069 1.363 . S
C1075 C1070 1.379 . S
C1075 N1073 1.356 . S
N1076 C1068 1.356 . S
N1076 H1082 0.984 . S
N1076 H1083 0.984 . S
N1077 C1070 1.356 . S
N1077 H1080 0.984 . S
N1077 H1081 0.985 . S
H1078 N1073 0.984 . S
H1079 N1073 0.985 . S
H1080 N1077 0.984 . S
H1081 N1077 0.985 . S
H1082 N1076 0.984 . S
H1083 N1076 0.984 . S
H1084 N1072 0.984 . S
H1085 N1072 0.985 . S
C1086 C1087 1.363 . S
C1086 C1092 1.379 . S
C1086 N1094 1.356 . S
C1087 C1086 1.363 . S
C1087 C1093 1.363 . S
C1088 C1089 1.363 . S
C1088 C1093 1.379 . S
C1088 N1095 1.356 . S
C1089 C1088 1.363 . S
C1089 C1092 1.363 . S
N1090 C1092 1.356 . S
N1090 H1102 0.984 . S
N1090 H1103 0.985 . S
N1091 C1093 1.356 . S
N1091 H1096 0.984 . S
N1091 H1097 0.985 . S
C1092 C1086 1.379 . S
C1092 C1089 1.363 . S
C1092 N1090 1.356 . S
C1093 C1087 1.363 . S
C1093 C1088 1.379 . S
C1093 N1091 1.356 . S
N1094 C1086 1.356 . S
N1094 H1100 0.984 . S
N1094 H1101 0.984 . S
N1095 C1088 1.356 . S
N1095 H1098 0.984 . S
N1095 H1099 0.985 . S
H1096 N1091 0.984 . S
H1097 N1091 0.985 . S
H1098 N1095 0.984 . S
H1099 N1095 0.985 . S
H1100 N1094 0.984 . S
H1101 N1094 0.984 . S
H1102 N1090 0.984 . S
H1103 N1090 0.985 . S
C1104 C1105 1.363 . S
C1104 C1110 1.379 1_545 S
C1104 N1112 1.356 . S
C1105 C1104 1.363 . S
C1105 C1111 1.363 . S
C1106 C1107 1.363 . S
C1106 C1111 1.379 1_565 S
C1106 N1113 1.356 . S
C1107 C1106 1.363 . S
C1107 C1110 1.363 . S
N1108 C1110 1.356 . S
N1108 H1120 0.984 . S
N1108 H1121 0.985 . S
N1109 C1111 1.356 . S
N1109 H1114 0.984 . S
N1109 H1115 0.985 . S
C1110 C1104 1.379 1_565 S
C1110 C1107 1.363 . S
C1110 N1108 1.356 . S
C1111 C1105 1.363 . S
C1111 C1106 1.379 1_545 S
C1111 N1109 1.356 . S
N1112 C1104 1.356 . S
N1112 H1118 0.984 . S
N1112 H1119 0.984 . S
N1113 C1106 1.356 . S
N1113 H1116 0.984 . S
N1113 H1117 0.985 . S
H1114 N1109 0.984 . S
H1115 N1109 0.985 . S
H1116 N1113 0.984 . S
H1117 N1113 0.985 . S
H1118 N1112 0.984 . S
H1119 N1112 0.984 . S
H1120 N1108 0.984 . S
H1121 N1108 0.985 . S
C1122 C1123 1.363 . S
C1122 C1128 1.379 1_655 S
C1122 N1130 1.356 . S
C1123 C1122 1.363 . S
C1123 C1129 1.363 . S
C1124 C1125 1.363 . S
C1124 C1129 1.379 1_455 S
C1124 N1131 1.356 . S
C1125 C1124 1.363 . S
C1125 C1128 1.363 . S
N1126 C1128 1.356 . S
N1126 H1138 0.984 . S
N1126 H1139 0.985 . S
N1127 C1129 1.356 . S
N1127 H1132 0.984 . S
N1127 H1133 0.985 . S
C1128 C1122 1.379 1_455 S
C1128 C1125 1.363 . S
C1128 N1126 1.356 . S
C1129 C1123 1.363 . S
C1129 C1124 1.379 1_655 S
C1129 N1127 1.356 . S
N1130 C1122 1.356 . S
N1130 H1136 0.984 . S
N1130 H1137 0.984 . S
N1131 C1124 1.356 . S
N1131 H1134 0.984 . S
N1131 H1135 0.985 . S
H1132 N1127 0.984 . S
H1133 N1127 0.985 . S
H1134 N1131 0.984 . S
H1135 N1131 0.985 . S
H1136 N1130 0.984 . S
H1137 N1130 0.984 . S
H1138 N1126 0.984 . S
H1139 N1126 0.985 . S
C1140 C1141 1.363 . S
C1140 C1146 1.379 . S
C1140 N1148 1.356 . S
C1141 C1140 1.363 . S
C1141 C1147 1.363 . S
C1142 C1143 1.363 . S
C1142 C1147 1.379 1_565 S
C1142 N1149 1.356 . S
C1143 C1142 1.363 . S
C1143 C1146 1.363 1_565 S
N1144 C1146 1.356 1_565 S
N1144 H1156 0.984 1_565 S
N1144 H1157 0.985 . S
N1145 C1147 1.356 . S
N1145 H1150 0.984 . S
N1145 H1151 0.985 . S
C1146 C1140 1.379 . S
C1146 C1143 1.363 1_545 S
C1146 N1144 1.356 1_545 S
C1147 C1141 1.363 . S
C1147 C1142 1.379 1_545 S
C1147 N1145 1.356 . S
N1148 C1140 1.356 . S
N1148 H1154 0.984 . S
N1148 H1155 0.984 . S
N1149 C1142 1.356 . S
N1149 H1152 0.984 . S
N1149 H1153 0.985 . S
H1150 N1145 0.984 . S
H1151 N1145 0.985 . S
H1152 N1149 0.984 . S
H1153 N1149 0.985 . S
H1154 N1148 0.984 . S
H1155 N1148 0.984 . S
H1156 N1144 0.984 1_545 S
H1157 N1144 0.985 . S
C1158 C1159 1.363 . S
C1158 C1164 1.379 1_655 S
C1158 N1166 1.356 . S
C1159 C1158 1.363 . S
C1159 C1165 1.363 . S
C1160 C1161 1.363 . S
C1160 C1165 1.379 1_455 S
C1160 N1167 1.356 . S
C1161 C1160 1.363 . S
C1161 C1164 1.363 . S
N1162 C1164 1.356 . S
N1162 H1174 0.984 . S
N1162 H1175 0.985 . S
N1163 C1165 1.356 . S
N1163 H1168 0.984 . S
N1163 H1169 0.985 . S
C1164 C1158 1.379 1_455 S
C1164 C1161 1.363 . S
C1164 N1162 1.356 . S
C1165 C1159 1.363 . S
C1165 C1160 1.379 1_655 S
C1165 N1163 1.356 . S
N1166 C1158 1.356 . S
N1166 H1172 0.984 . S
N1166 H1173 0.984 . S
N1167 C1160 1.356 . S
N1167 H1170 0.984 . S
N1167 H1171 0.985 . S
H1168 N1163 0.984 . S
H1169 N1163 0.985 . S
H1170 N1167 0.984 . S
H1171 N1167 0.985 . S
H1172 N1166 0.984 . S
H1173 N1166 0.984 . S
H1174 N1162 0.984 . S
H1175 N1162 0.985 . S
C1176 C1177 1.363 1_545 S
C1176 C1182 1.379 . S
C1176 N1184 1.356 1_545 S
C1177 C1176 1.363 1_565 S
C1177 C1183 1.363 . S
C1178 C1179 1.363 . S
C1178 C1183 1.379 1_545 S
C1178 N1185 1.356 . S
C1179 C1178 1.363 . S
C1179 C1182 1.363 . S
N1180 C1182 1.356 . S
N1180 H1192 0.984 . S
N1180 H1193 0.985 . S
N1181 C1183 1.356 . S
N1181 H1186 0.984 . S
N1181 H1187 0.985 . S
C1182 C1176 1.379 . S
C1182 C1179 1.363 . S
C1182 N1180 1.356 . S
C1183 C1177 1.363 . S
C1183 C1178 1.379 1_565 S
C1183 N1181 1.356 . S
N1184 C1176 1.356 1_565 S
N1184 H1190 0.984 1_565 S
N1184 H1191 0.984 . S
N1185 C1178 1.356 . S
N1185 H1188 0.984 . S
N1185 H1189 0.985 1_545 S
H1186 N1181 0.984 . S
H1187 N1181 0.985 . S
H1188 N1185 0.984 . S
H1189 N1185 0.985 1_565 S
H1190 N1184 0.984 1_545 S
H1191 N1184 0.984 . S
H1192 N1180 0.984 . S
H1193 N1180 0.985 . S
C1194 C1195 1.363 . S
C1194 C1200 1.379 1_455 S
C1194 N1202 1.356 . S
C1195 C1194 1.363 . S
C1195 C1201 1.363 . S
C1196 C1197 1.363 . S
C1196 C1201 1.379 1_655 S
C1196 N1203 1.356 . S
C1197 C1196 1.363 . S
C1197 C1200 1.363 . S
N1198 C1200 1.356 . S
N1198 H1210 0.984 . S
N1198 H1211 0.985 . S
N1199 C1201 1.356 . S
N1199 H1204 0.984 . S
N1199 H1205 0.985 . S
C1200 C1194 1.379 1_655 S
C1200 C1197 1.363 . S
C1200 N1198 1.356 . S
C1201 C1195 1.363 . S
C1201 C1196 1.379 1_455 S
C1201 N1199 1.356 . S
N1202 C1194 1.356 . S
N1202 H1208 0.984 . S
N1202 H1209 0.984 . S
N1203 C1196 1.356 . S
N1203 H1206 0.984 . S
N1203 H1207 0.985 . S
H1204 N1199 0.984 . S
H1205 N1199 0.985 . S
H1206 N1203 0.984 . S
H1207 N1203 0.985 . S
H1208 N1202 0.984 . S
H1209 N1202 0.984 . S
H1210 N1198 0.984 . S
H1211 N1198 0.985 . S
C1212 C1213 1.363 1_545 S
C1212 C1218 1.379 . S
C1212 N1220 1.356 1_545 S
C1213 C1212 1.363 1_565 S
C1213 C1219 1.363 . S
C1214 C1215 1.363 . S
C1214 C1219 1.379 1_545 S
C1214 N1221 1.356 . S
C1215 C1214 1.363 . S
C1215 C1218 1.363 . S
N1216 C1218 1.356 . S
N1216 H1228 0.984 . S
N1216 H1229 0.985 . S
N1217 C1219 1.356 . S
N1217 H1222 0.984 . S
N1217 H1223 0.985 . S
C1218 C1212 1.379 . S
C1218 C1215 1.363 . S
C1218 N1216 1.356 . S
C1219 C1213 1.363 . S
C1219 C1214 1.379 1_565 S
C1219 N1217 1.356 . S
N1220 C1212 1.356 1_565 S
N1220 H1226 0.984 1_565 S
N1220 H1227 0.984 . S
N1221 C1214 1.356 . S
N1221 H1224 0.984 . S
N1221 H1225 0.985 1_545 S
H1222 N1217 0.984 . S
H1223 N1217 0.985 . S
H1224 N1221 0.984 . S
H1225 N1221 0.985 1_565 S
H1226 N1220 0.984 1_545 S
H1227 N1220 0.984 . S
H1228 N1216 0.984 . S
H1229 N1216 0.985 . S
C1230 C1231 1.363 . S
C1230 C1236 1.379 1_655 S
C1230 N1238 1.356 . S
C1231 C1230 1.363 . S
C1231 C1237 1.363 . S
C1232 C1233 1.363 . S
C1232 C1237 1.379 1_455 S
C1232 N1239 1.356 . S
C1233 C1232 1.363 . S
C1233 C1236 1.363 . S
N1234 C1236 1.356 . S
N1234 H1246 0.984 . S
N1234 H1247 0.985 . S
N1235 C1237 1.356 . S
N1235 H1240 0.984 . S
N1235 H1241 0.985 . S
C1236 C1230 1.379 1_455 S
C1236 C1233 1.363 . S
C1236 N1234 1.356 . S
C1237 C1231 1.363 . S
C1237 C1232 1.379 1_655 S
C1237 N1235 1.356 . S
N1238 C1230 1.356 . S
N1238 H1244 0.984 . S
N1238 H1245 0.984 . S
N1239 C1232 1.356 . S
N1239 H1242 0.984 . S
N1239 H1243 0.985 . S
H1240 N1235 0.984 . S
H1241 N1235 0.985 . S
H1242 N1239 0.984 . S
H1243 N1239 0.985 . S
H1244 N1238 0.984 . S
H1245 N1238 0.984 . S
H1246 N1234 0.984 . S
H1247 N1234 0.985 . S
C529 N80 0.682 . S
C531 N14 0.682 . S
C547 N47 0.684 . S
C549 N104 0.692 . S
C565 N212 0.682 . S
C567 N146 0.682 . S
C583 N236 0.692 . S
C585 N179 0.684 . S
C601 N278 0.684 . S
C603 N335 0.692 . S
C619 N311 0.682 . S
C621 N377 0.682 . S
C637 N401 0.692 . S
C639 N476 0.684 . S
C655 N509 0.682 . S
C657 N443 0.682 . S
C673 N5 1.415 . S
C675 N170 1.404 . S
C691 N203 1.415 . S
C693 N38 1.404 . S
C709 N245 1.438 . S
C711 N71 1.387 . S
C727 N137 1.387 . S
C729 N113 1.438 . S
C745 N434 1.415 . S
C747 N269 1.404 . S
C763 N467 1.404 . S
C765 N302 1.415 . S
C781 N500 1.387 . S
C783 N344 1.438 . S
C799 N410 1.438 . S
C801 N368 1.387 . S
C817 C17 1.524 . S
C819 C347 1.500 . S
C835 C380 1.543 . S
C837 C50 1.547 . S
C853 C281 1.547 . S
C855 C83 1.543 . S
C871 C314 1.524 . S
C873 C116 1.500 . S
C889 C149 1.543 . S
C891 C479 1.547 . S
C907 C182 1.547 . S
C909 C512 1.543 . S
C925 C215 1.524 . S
C927 C413 1.500 . S
C943 C248 1.500 . S
C945 C446 1.524 . S
C961 C140 1.630 . S
C963 C8 1.623 . S
C979 C41 1.714 . S
C981 C173 1.714 . S
C997 C206 1.623 . S
C999 C74 1.630 . S
C1015 C259 1.576 . S
C1017 C127 1.576 . S
C1033 C292 1.144 . S
C1035 C404 1.178 . S
C1051 C457 1.077 . S
C1053 C325 1.077 . S
C1069 C338 1.178 . S
C1071 C490 1.144 . S
C1087 C523 1.114 . S
C1089 C391 1.114 . S
C1105 C371 1.630 . S
C1107 C437 1.623 . S
C1123 C272 1.714 . S
C1125 C470 1.714 . S
C1141 C503 1.630 . S
C1143 C305 1.623 . S
C1159 C424 1.576 . S
C1161 C358 1.576 . S
C1177 C107 1.178 . S
C1179 C193 1.144 . S
C1195 C28 1.077 . S
C1197 C226 1.077 . S
C1213 C239 1.178 . S
C1215 C61 1.144 . S
C1231 C94 1.114 . S
C1233 C160 1.114 . S
