# Generated by pormake.
# Topology wje, (4)-cn, num edge types: 1
# Building blocks:
#     Node 0, Type 0, BuildingBlock: QUQFOY_clean_sbu_3, # of connection points: 4
#     Node 1, Type 0, BuildingBlock: QUQFOY_clean_sbu_3, # of connection points: 4
#     Node 2, Type 0, BuildingBlock: QUQFOY_clean_sbu_3, # of connection points: 4
#     Node 3, Type 0, BuildingBlock: QUQFOY_clean_sbu_3, # of connection points: 4
#     Node 4, Type 0, BuildingBlock: QUQFOY_clean_sbu_3, # of connection points: 4
#     Node 5, Type 0, BuildingBlock: QUQFOY_clean_sbu_3, # of connection points: 4
#     Node 6, Type 0, BuildingBlock: QUQFOY_clean_sbu_3, # of connection points: 4
#     Node 7, Type 0, BuildingBlock: QUQFOY_clean_sbu_3, # of connection points: 4
#     Node 8, Type 0, BuildingBlock: QUQFOY_clean_sbu_3, # of connection points: 4
#     Node 9, Type 0, BuildingBlock: QUQFOY_clean_sbu_3, # of connection points: 4
#     Node 10, Type 0, BuildingBlock: QUQFOY_clean_sbu_3, # of connection points: 4
#     Node 11, Type 0, BuildingBlock: QUQFOY_clean_sbu_3, # of connection points: 4
#     Edge 12, Type (0, 0), BuildingBlock: AJUNOK_clean_linker_0, # of connection points: 2
#     Edge 13, Type (0, 0), BuildingBlock: AJUNOK_clean_linker_0, # of connection points: 2
#     Edge 14, Type (0, 0), BuildingBlock: AJUNOK_clean_linker_0, # of connection points: 2
#     Edge 15, Type (0, 0), BuildingBlock: AJUNOK_clean_linker_0, # of connection points: 2
#     Edge 16, Type (0, 0), BuildingBlock: AJUNOK_clean_linker_0, # of connection points: 2
#     Edge 17, Type (0, 0), BuildingBlock: AJUNOK_clean_linker_0, # of connection points: 2
#     Edge 18, Type (0, 0), BuildingBlock: AJUNOK_clean_linker_0, # of connection points: 2
#     Edge 19, Type (0, 0), BuildingBlock: AJUNOK_clean_linker_0, # of connection points: 2
#     Edge 20, Type (0, 0), BuildingBlock: AJUNOK_clean_linker_0, # of connection points: 2
#     Edge 21, Type (0, 0), BuildingBlock: AJUNOK_clean_linker_0, # of connection points: 2
#     Edge 22, Type (0, 0), BuildingBlock: AJUNOK_clean_linker_0, # of connection points: 2
#     Edge 23, Type (0, 0), BuildingBlock: AJUNOK_clean_linker_0, # of connection points: 2
#     Edge 24, Type (0, 0), BuildingBlock: AJUNOK_clean_linker_0, # of connection points: 2
#     Edge 25, Type (0, 0), BuildingBlock: AJUNOK_clean_linker_0, # of connection points: 2
#     Edge 26, Type (0, 0), BuildingBlock: AJUNOK_clean_linker_0, # of connection points: 2
#     Edge 27, Type (0, 0), BuildingBlock: AJUNOK_clean_linker_0, # of connection points: 2
#     Edge 28, Type (0, 0), BuildingBlock: AJUNOK_clean_linker_0, # of connection points: 2
#     Edge 29, Type (0, 0), BuildingBlock: AJUNOK_clean_linker_0, # of connection points: 2
#     Edge 30, Type (0, 0), BuildingBlock: AJUNOK_clean_linker_0, # of connection points: 2
#     Edge 31, Type (0, 0), BuildingBlock: AJUNOK_clean_linker_0, # of connection points: 2
#     Edge 32, Type (0, 0), BuildingBlock: AJUNOK_clean_linker_0, # of connection points: 2
#     Edge 33, Type (0, 0), BuildingBlock: AJUNOK_clean_linker_0, # of connection points: 2
#     Edge 34, Type (0, 0), BuildingBlock: AJUNOK_clean_linker_0, # of connection points: 2
#     Edge 35, Type (0, 0), BuildingBlock: AJUNOK_clean_linker_0, # of connection points: 2
# Relax obj value: 0.140
# Max RMSD: 0.092
# Mean RMSD: 0.092
data_MOF--net-wje--node1-QUQFOY_clean_sbu_3--edge1-AJUNOK_clean_linker_0
_symmetry_space_group_name_H-M    P1
_symmetry_Int_Tables_number       1
_symmetry_cell_setting            triclinic
loop_
_symmetry_equiv_pos_as_xyz
'x, y, z'
_cell_length_a     31.536654
_cell_length_b     31.679448
_cell_length_c     29.769401
_cell_angle_alpha  90.158371
_cell_angle_beta   89.956098
_cell_angle_gamma 119.8358
loop_
_atom_site_label
_atom_site_type_symbol
_atom_site_fract_x
_atom_site_fract_y
_atom_site_fract_z
_atom_type_partial_charge
C0 C 0.19548 0.89777 0.28681 0.0
O1 O 0.21629 0.87511 0.27196 0.0
Cd2 Cd 0.29916 0.90602 0.29371 0.0
O3 O 0.22043 0.94237 0.29783 0.0
Cd4 Cd 0.30486 0.0084 0.28343 0.0
C5 C 0.30202 0.97177 0.3898 0.0
O6 O 0.34759 0.97242 0.24704 0.0
O7 O 0.39123 0.03444 0.28996 0.0
O8 O 0.28228 0.02608 0.2117 0.0
C9 C 0.38912 0.00202 0.26336 0.0
O10 O 0.301 0.93508 0.37085 0.0
C11 C 0.29518 0.07017 0.22003 0.0
O12 O 0.30357 0.00634 0.3664 0.0
O13 O 0.31112 0.08585 0.25953 0.0
C14 C 0.27677 0.20879 0.63025 0.0
O15 O 0.32315 0.23258 0.6289 0.0
Cd16 Cd 0.37424 0.31807 0.63539 0.0
O17 O 0.25141 0.22985 0.6289 0.0
Cd18 Cd 0.26657 0.31338 0.61642 0.0
C19 C 0.30738 0.32486 0.72525 0.0
O20 O 0.34508 0.35019 0.58126 0.0
O21 O 0.32537 0.40094 0.60883 0.0
O22 O 0.222 0.28868 0.5461 0.0
C23 C 0.35658 0.39406 0.58798 0.0
O24 O 0.34675 0.32965 0.70852 0.0
C25 C 0.19118 0.30197 0.55587 0.0
O26 O 0.27066 0.31632 0.70055 0.0
O27 O 0.19362 0.31881 0.59536 0.0
C28 C 0.02676 0.26612 0.94756 0.0
O29 O 0.04921 0.30465 0.92458 0.0
Cd30 Cd 0.0307 0.36473 0.95042 0.0
O31 O -0.01509 0.25385 0.96381 0.0
Cd32 Cd 0.92265 0.27703 0.94426 0.0
C33 C -0.03536 0.31033 0.04916 0.0
O34 O -0.03407 0.35361 0.90451 0.0
O35 O 0.90328 0.34253 0.94332 0.0
O36 O 0.90273 0.22357 0.87971 0.0
C37 C 0.93877 0.37003 0.918 0.0
O38 O 0.00298 0.34139 0.02845 0.0
C39 C 0.85668 0.20334 0.88427 0.0
O40 O 0.92616 0.28055 0.02741 0.0
O41 O 0.84066 0.21532 0.91853 0.0
C42 C 0.73346 0.04858 0.26184 0.0
O43 O 0.7138 0.07045 0.24294 0.0
Cd44 Cd 0.63141 0.04638 0.26478 0.0
O45 O 0.70721 0.00615 0.27765 0.0
Cd46 Cd 0.62235 0.9409 0.27241 0.0
C47 C 0.63594 0.00074 0.37021 0.0
O48 O 0.57586 0.97073 0.23331 0.0
O49 O 0.53803 0.91739 0.28559 0.0
O50 O 0.63802 0.91149 0.20382 0.0
C51 C 0.53707 0.94565 0.25589 0.0
O52 O 0.63255 0.03185 0.34559 0.0
C53 C 0.6268 0.86949 0.21822 0.0
O54 O 0.6354 0.9633 0.35313 0.0
O55 O 0.61439 0.86044 0.25948 0.0
C56 C 0.64455 0.73553 0.61621 0.0
O57 O 0.59827 0.71294 0.61936 0.0
Cd58 Cd 0.5468 0.63008 0.63685 0.0
O59 O 0.6691 0.71356 0.61723 0.0
Cd60 Cd 0.65133 0.62774 0.61695 0.0
C61 C 0.61786 0.62964 0.72655 0.0
O62 O 0.57195 0.59239 0.58396 0.0
O63 O 0.58952 0.5401 0.61079 0.0
O64 O 0.69399 0.64638 0.54573 0.0
C65 C 0.55866 0.54824 0.59096 0.0
O66 O 0.58 0.62832 0.70994 0.0
C67 C 0.72513 0.634 0.55666 0.0
O68 O 0.65069 0.62953 0.70123 0.0
O69 O 0.72323 0.61951 0.59693 0.0
C70 C 0.89442 0.66802 0.94849 0.0
O71 O 0.87053 0.62568 0.93171 0.0
Cd72 Cd 0.89587 0.56995 0.95521 0.0
O73 O 0.93832 0.68464 0.96141 0.0
Cd74 Cd 0.00303 0.66354 0.94811 0.0
C75 C 0.95985 0.62882 0.05333 0.0
O76 O 0.96267 0.58699 0.90915 0.0
O77 O 0.02709 0.60091 0.94653 0.0
O78 O 0.02532 0.70899 0.87899 0.0
C79 C -0.0082 0.57253 0.92127 0.0
O80 O 0.92242 0.59559 0.03305 0.0
C81 C 0.06954 0.73804 0.88953 0.0
O82 O -0.00257 0.65963 0.0313 0.0
O83 O 0.08312 0.7338 0.92883 0.0
C84 C 0.03591 0.73396 0.35331 0.0
O85 O 0.06023 0.71268 0.361 0.0
Cd86 Cd 0.02886 0.62949 0.34271 0.0
O87 O -0.01008 0.70999 0.3469 0.0
Cd88 Cd 0.9223 0.62524 0.35774 0.0
C89 C 0.95874 0.62641 0.24965 0.0
O90 O -0.03588 0.58856 0.39262 0.0
O91 O 0.89578 0.53787 0.36134 0.0
O92 O 0.90318 0.64891 0.42876 0.0
C93 C 0.93329 0.54484 0.38325 0.0
O94 O -0.00436 0.6269 0.26776 0.0
C95 C 0.85858 0.63447 0.42035 0.0
O96 O 0.92462 0.6254 0.27386 0.0
O97 O 0.84335 0.61765 0.381 0.0
C98 C 0.27854 0.04687 0.69024 0.0
O99 O 0.32384 0.07083 0.69935 0.0
Cd100 Cd 0.37628 0.04011 0.67994 0.0
O101 O 0.25711 0.00133 0.68257 0.0
Cd102 Cd 0.27511 0.93422 0.69265 0.0
C103 C 0.30899 0.97313 0.58574 0.0
O104 O 0.35317 -0.02539 0.72848 0.0
O105 O 0.33643 0.90784 0.69474 0.0
O106 O 0.23251 0.91514 0.76332 0.0
C107 C 0.36649 0.94425 0.71794 0.0
O108 O 0.34524 0.00933 0.60448 0.0
C109 C 0.20245 0.87087 0.75452 0.0
O110 O 0.27654 0.93802 0.60915 0.0
O111 O 0.2041 0.85582 0.71508 0.0
C112 C 0.19401 0.28146 0.02187 0.0
O113 O 0.21534 0.32696 0.02933 0.0
Cd114 Cd 0.30079 0.37979 0.0171 0.0
O115 O 0.21812 0.25947 0.01654 0.0
Cd116 Cd 0.30237 0.27589 0.02556 0.0
C117 C 0.30665 0.32046 0.92022 0.0
O118 O 0.34094 0.3522 0.06434 0.0
O119 O 0.39012 0.33403 0.0301 0.0
O120 O 0.27834 0.23028 0.0944 0.0
C121 C 0.38449 0.36402 0.05423 0.0
O122 O 0.30946 0.35737 0.94036 0.0
C123 C 0.29184 0.19999 0.08353 0.0
O124 O 0.30162 0.28342 0.94202 0.0
O125 O 0.30857 0.20323 0.04385 0.0
C126 C 0.8913 0.20532 0.34188 0.0
O127 O 0.86581 0.22326 0.3564 0.0
Cd128 Cd 0.89359 0.30602 0.33934 0.0
O129 O 0.93672 0.2323 0.33415 0.0
Cd130 Cd 0.00087 0.31637 0.35341 0.0
C131 C -0.03433 0.31558 0.24564 0.0
O132 O 0.95682 0.35002 0.39023 0.0
O133 O 0.02355 0.40267 0.35799 0.0
O134 O 0.01709 0.28895 0.42358 0.0
C135 C -0.01411 0.39411 0.3806 0.0
O136 O 0.92751 0.31216 0.26399 0.0
C137 C 0.06233 0.30497 0.41689 0.0
O138 O 0.00069 0.31848 0.26972 0.0
O139 O 0.07941 0.32466 0.37884 0.0
C140 C 0.65334 0.91116 0.63664 0.0
O141 O 0.60923 0.89641 0.62581 0.0
Cd142 Cd 0.55902 0.93104 0.63735 0.0
O143 O 0.67912 0.95138 0.65721 0.0
Cd144 Cd 0.66306 0.01902 0.6749 0.0
C145 C 0.63184 0.01569 0.56333 0.0
O146 O 0.58444 0.96808 0.70804 0.0
O147 O 0.59935 0.04033 0.69401 0.0
O148 O 0.719 0.03659 0.73826 0.0
C149 C 0.57056 -0.00094 0.71089 0.0
O150 O 0.58783 -0.01307 0.57495 0.0
C151 C 0.73639 0.08235 0.73712 0.0
O152 O 0.66692 0.03042 0.59162 0.0
O153 O 0.72259 0.0991 0.705 0.0
C154 C 0.73334 0.66156 0.02488 0.0
O155 O 0.71513 0.61725 0.0359 0.0
Cd156 Cd 0.63275 0.56293 0.01516 0.0
O157 O 0.70604 0.67964 0.01708 0.0
Cd158 Cd 0.61983 0.65628 0.03064 0.0
C159 C 0.62426 0.6255 0.9223 0.0
O160 O 0.58473 0.57781 0.0661 0.0
O161 O 0.53365 0.59321 0.03178 0.0
O162 O 0.64138 0.70034 0.10093 0.0
C163 C 0.54094 0.56373 0.05485 0.0
O164 O 0.62826 0.59074 0.93931 0.0
C165 C 0.6252 0.72867 0.09097 0.0
O166 O 0.61996 0.65594 0.94751 0.0
O167 O 0.6078 0.72476 0.05153 0.0
C168 C 0.2914 0.14404 0.19636 0.0
C169 C 0.29295 0.10187 0.1846 0.0
C170 C 0.28989 0.17474 0.16332 0.0
C171 C 0.29087 0.16505 0.11717 0.0
H172 H 0.29115 0.15335 0.23136 0.0
H173 H 0.28896 0.20694 0.17416 0.0
S174 S 0.29518 0.05939 0.06854 0.0
N175 N 0.29503 0.05172 0.12339 0.0
N176 N 0.29328 0.11011 0.0615 0.0
C177 C 0.29248 0.12305 0.10491 0.0
C178 C 0.29318 0.09129 0.13855 0.0
C179 C 0.16791 0.30174 0.47543 0.0
C180 C 0.1565 0.30066 0.52139 0.0
C181 C 0.13743 0.30319 0.44183 0.0
C182 C 0.09372 0.30245 0.45278 0.0
H183 H 0.20131 0.30259 0.46525 0.0
H184 H 0.14812 0.30471 0.40701 0.0
S185 S 0.04644 0.29859 0.56801 0.0
N186 N 0.09829 0.29867 0.57598 0.0
N187 N 0.0403 0.30007 0.51305 0.0
C188 C 0.08141 0.3005 0.4986 0.0
C189 C 0.11297 0.29999 0.53282 0.0
C190 C 0.80491 0.10749 0.79219 0.0
C191 C 0.76731 0.11386 0.7741 0.0
C192 C 0.83346 0.13624 0.82831 0.0
C193 C 0.82388 0.17073 0.84878 0.0
H194 H 0.81284 0.0807 0.77784 0.0
H195 H 0.86305 0.13128 0.84048 0.0
S196 S 0.72818 0.19983 0.81514 0.0
N197 N 0.72172 0.15693 0.77953 0.0
N198 N 0.7738 0.20923 0.84866 0.0
C199 C 0.78563 0.17656 0.83168 0.0
C200 C 0.75773 0.14855 0.79399 0.0
C201 C 0.62341 0.80478 0.10963 0.0
C202 C 0.626 0.764 0.12422 0.0
C203 C 0.6242 0.83872 0.14039 0.0
C204 C 0.62668 0.83282 0.18706 0.0
H205 H 0.62122 0.81084 0.07412 0.0
H206 H 0.62226 0.86961 0.12737 0.0
S207 S 0.63306 0.73161 0.2428 0.0
N208 N 0.63088 0.71935 0.18863 0.0
N209 N 0.63137 0.78278 0.24637 0.0
C210 C 0.62879 0.79197 0.2022 0.0
C211 C 0.62877 0.75772 0.1708 0.0
C212 C 0.78201 0.63429 0.44378 0.0
C213 C 0.82574 0.63554 0.45565 0.0
C214 C 0.75025 0.63452 0.47674 0.0
C215 C 0.76039 0.63499 0.52294 0.0
H216 H 0.77232 0.6334 0.40875 0.0
H217 H 0.71702 0.63356 0.46581 0.0
S218 S 0.8698 0.63771 0.57191 0.0
N219 N 0.87761 0.63736 0.51709 0.0
N220 N 0.81736 0.63673 0.57876 0.0
C221 C 0.80384 0.63598 0.5353 0.0
C222 C 0.83664 0.63658 0.50175 0.0
C223 C 0.12532 0.79582 0.77724 0.0
C224 C 0.16857 0.83821 0.7895 0.0
C225 C 0.09322 0.76427 0.80995 0.0
C226 C 0.10365 0.77329 0.85617 0.0
H227 H 0.11599 0.78707 0.74213 0.0
H228 H 0.06034 0.73202 0.7988 0.0
S229 S 0.21254 0.87898 0.906 0.0
N230 N 0.22018 0.88768 0.85125 0.0
N231 N 0.16034 0.8277 0.91246 0.0
C232 C 0.14688 0.81539 0.8689 0.0
C233 C 0.17916 0.84803 0.83564 0.0
C234 C 0.4401 -0.0241 0.22056 0.0
C235 C 0.42893 -0.00931 0.26133 0.0
C236 C 0.47575 0.96176 0.21871 0.0
C237 C 0.49964 0.9602 0.25791 0.0
H238 H 0.42127 -0.02458 0.18997 0.0
H239 H 0.48399 0.9511 0.18672 0.0
S240 S 0.48308 -0.00515 0.3729 0.0
N241 N 0.44487 0.00344 0.34155 0.0
N242 N 0.51048 -0.02485 0.33833 0.0
C243 C 0.48866 -0.02527 0.29883 0.0
C244 C 0.45356 -0.00958 0.30049 0.0
C245 C 0.49487 0.46044 0.58739 0.0
C246 C 0.50719 0.50953 0.58486 0.0
C247 C 0.44603 0.42312 0.58597 0.0
C248 C 0.40766 0.43358 0.58316 0.0
H249 H 0.52311 0.45073 0.59127 0.0
H250 H 0.4384 0.38594 0.58889 0.0
S251 S 0.42019 0.55561 0.57079 0.0
N252 N 0.4769 0.56628 0.57476 0.0
N253 N 0.38507 0.49598 0.57422 0.0
C254 C 0.4194 0.48227 0.57878 0.0
C255 C 0.46919 0.52029 0.57907 0.0
C256 C 0.92996 0.48463 0.91526 0.0
C257 C -0.02073 0.52157 0.91463 0.0
C258 C 0.91709 0.4355 0.9148 0.0
C259 C 0.95301 0.42167 0.91243 0.0
H260 H 0.90114 0.49365 0.91826 0.0
H261 H 0.87878 0.40816 0.91728 0.0
S262 S 0.08714 0.50487 0.90537 0.0
N263 N 0.064 0.54145 0.90892 0.0
N264 N 0.03991 0.44902 0.90613 0.0
C265 C 0.00236 0.45835 0.90913 0.0
C266 C 0.01547 0.50838 0.91081 0.0
C267 C -0.0049 0.51774 0.38544 0.0
C268 C 0.94589 0.50608 0.38786 0.0
C269 C 0.0078 0.48125 0.38434 0.0
C270 C -0.02814 0.43186 0.38683 0.0
H271 H 0.02399 0.55524 0.38252 0.0
H272 H 0.046 0.4918 0.38074 0.0
S273 S 0.83811 0.38274 0.39895 0.0
N274 N 0.86135 0.44225 0.39577 0.0
N275 N 0.8851 0.37345 0.39571 0.0
C276 C 0.92268 0.41988 0.39196 0.0
C277 C 0.90972 0.45706 0.39191 0.0
C278 C 0.50435 0.01917 0.72333 0.0
C279 C 0.5187 -0.01619 0.71955 0.0
C280 C 0.4549 0.00584 0.72523 0.0
C281 C 0.41798 0.9567 0.72259 0.0
H282 H 0.53147 0.05753 0.72348 0.0
H283 H 0.44563 0.03447 0.72667 0.0
S284 S 0.43591 0.84972 0.71804 0.0
N285 N 0.49178 0.89708 0.71801 0.0
N286 N 0.39884 0.87243 0.72024 0.0
C287 C 0.43172 0.92088 0.72117 0.0
C288 C 0.48209 0.93433 0.72006 0.0
C289 C 0.41483 0.45294 0.06044 0.0
C290 C 0.42475 0.41429 0.06041 0.0
C291 C 0.45278 0.50134 0.05998 0.0
C292 C 0.50191 0.51277 0.0607 0.0
H293 H 0.37755 0.44587 0.05876 0.0
H294 H 0.44357 0.53 0.05816 0.0
S295 S 0.54694 0.4246 0.0658 0.0
N296 N 0.48683 0.39036 0.06405 0.0
N297 N 0.55838 0.48143 0.06494 0.0
C298 C 0.51225 0.47444 0.0634 0.0
C299 C 0.47358 0.42514 0.06276 0.0
C300 C 0.068 0.79402 0.29278 0.0
C301 C 0.0638 0.78471 0.33919 0.0
C302 C 0.10901 0.83495 0.27532 0.0
C303 C 0.14576 0.86827 0.30403 0.0
H304 H 0.04272 0.76664 0.26955 0.0
H305 H 0.11417 0.83816 0.23924 0.0
S306 S 0.14681 0.8644 0.42837 0.0
N307 N 0.09614 0.81445 0.41364 0.0
N308 N 0.17205 0.89314 0.38107 0.0
C309 C 0.13863 0.86253 0.3507 0.0
C310 C 0.09775 0.8201 0.36833 0.0
C311 C 0.25532 0.15052 0.69138 0.0
C312 C 0.25452 0.15838 0.64504 0.0
C313 C 0.25638 0.10957 0.7072 0.0
C314 C 0.25537 0.07501 0.67705 0.0
H315 H 0.26117 0.17893 0.71514 0.0
H316 H 0.26306 0.10748 0.74261 0.0
S317 S 0.24359 0.07474 0.55325 0.0
N318 N 0.24619 0.12584 0.56974 0.0
N319 N 0.24582 0.04727 0.59957 0.0
C320 C 0.24786 0.07929 0.63116 0.0
C321 C 0.24811 0.12165 0.615 0.0
C322 C 0.10846 0.2618 0.0342 0.0
C323 C 0.14293 0.25779 0.00745 0.0
C324 C 0.0654 0.25626 0.01523 0.0
C325 C 0.05691 0.2486 0.96875 0.0
H326 H 0.11678 0.27339 0.06893 0.0
H327 H 0.04185 0.26408 0.03594 0.0
S328 S 0.13271 0.22861 0.88596 0.0
N329 N 0.16258 0.23858 0.93392 0.0
N330 N 0.08281 0.23112 0.89778 0.0
C331 C 0.08864 0.2397 0.94273 0.0
C332 C 0.13159 0.24366 0.96229 0.0
C333 C 0.83051 0.11787 0.34633 0.0
C334 C 0.8646 0.15734 0.3208 0.0
C335 C 0.7909 0.07827 0.32554 0.0
C336 C 0.78344 0.07822 0.2789 0.0
H337 H 0.83194 0.11971 0.3827 0.0
H338 H 0.76301 0.05062 0.34676 0.0
S339 S 0.86705 0.16913 0.1969 0.0
N340 N 0.89308 0.19048 0.24621 0.0
N341 N 0.81677 0.11709 0.20733 0.0
C342 C 0.81997 0.11495 0.25269 0.0
C343 C 0.86119 0.15441 0.27371 0.0
C344 C 0.68523 0.8143 0.6557 0.0
C345 C 0.66903 0.78854 0.61498 0.0
C346 C 0.68717 0.85922 0.66124 0.0
C347 C 0.67264 0.87876 0.62616 0.0
H348 H 0.69073 0.79712 0.68482 0.0
H349 H 0.69423 0.8755 0.69441 0.0
S350 S 0.63844 0.83033 0.51046 0.0
N351 N 0.64678 0.78941 0.53721 0.0
N352 N 0.65058 0.87391 0.5474 0.0
C353 C 0.66297 0.85643 0.58373 0.0
C354 C 0.66102 0.81101 0.57818 0.0
C355 C 0.82086 0.68769 0.03384 0.0
C356 C 0.78318 0.68561 0.00723 0.0
C357 C 0.86225 0.69028 0.01386 0.0
C358 C 0.86585 0.6889 0.96683 0.0
H359 H 0.81609 0.68241 0.06983 0.0
H360 H 0.8882 0.68683 0.03521 0.0
S361 S 0.78063 0.69148 0.88306 0.0
N362 N 0.75559 0.6903 0.93214 0.0
N363 N 0.83223 0.69216 0.89454 0.0
C364 C 0.8311 0.69224 0.94018 0.0
C365 C 0.78985 0.69134 0.96052 0.0
C366 C 0.28097 0.9295 0.4644 0.0
C367 C 0.30142 -0.02673 0.43973 0.0
C368 C 0.2821 0.92951 0.51159 0.0
C369 C 0.30476 -0.02666 0.53599 0.0
H370 H 0.26402 0.89477 0.44708 0.0
H371 H 0.26636 0.89498 0.52897 0.0
S372 S 0.36194 0.09789 0.48779 0.0
N373 N 0.34309 0.06152 0.44358 0.0
N374 N 0.34638 0.06181 0.53196 0.0
C375 C 0.32458 0.01736 0.51178 0.0
C376 C 0.32256 0.01728 0.4638 0.0
C377 C 0.27131 0.28214 0.84545 0.0
C378 C 0.30759 0.32116 0.8705 0.0
C379 C 0.26947 0.28465 0.7983 0.0
C380 C 0.30444 0.32584 0.77476 0.0
H381 H 0.2438 0.24987 0.86244 0.0
H382 H 0.24154 0.25359 0.78006 0.0
S383 S 0.40727 0.43697 0.8246 0.0
N384 N 0.37887 0.40214 0.86822 0.0
N385 N 0.37662 0.40586 0.77983 0.0
C386 C 0.34098 0.36474 0.79944 0.0
C387 C 0.3422 0.36268 0.84726 0.0
C388 C 0.9233 0.29759 0.17088 0.0
C389 C -0.03303 0.31365 0.19556 0.0
C390 C 0.92253 0.29527 0.12378 0.0
C391 C -0.03445 0.3098 0.09913 0.0
H392 H 0.88903 0.28638 0.18805 0.0
H393 H 0.8881 0.28308 0.10655 0.0
S394 S 0.08927 0.35245 0.14687 0.0
N395 N 0.05411 0.34236 0.19128 0.0
N396 N 0.05294 0.33895 0.10283 0.0
C397 C 0.00943 0.32531 0.12321 0.0
C398 C 0.01007 0.32697 0.1713 0.0
C399 C 0.61215 0.0274 0.44013 0.0
C400 C 0.63943 0.00856 0.41945 0.0
C401 C 0.61249 0.03301 0.4869 0.0
C402 C 0.64157 0.02179 0.51459 0.0
H403 H 0.5887 0.03595 0.42018 0.0
H404 H 0.58853 0.0446 0.50168 0.0
S405 S 0.72298 -0.02464 0.47681 0.0
N406 N 0.69822 -0.01891 0.42998 0.0
N407 N 0.70017 -0.00678 0.51786 0.0
C408 C 0.67104 0.00541 0.49416 0.0
C409 C 0.6696 -0.00167 0.4466 0.0
C410 C 0.64568 0.60773 0.84589 0.0
C411 C 0.62513 0.63002 0.87249 0.0
C412 C 0.64508 0.60926 0.7987 0.0
C413 C 0.62309 0.63237 0.77625 0.0
H414 H 0.6622 0.58863 0.86163 0.0
H415 H 0.66047 0.59086 0.77975 0.0
S416 S 0.56715 0.69916 0.82978 0.0
N417 N 0.58469 0.67829 0.87242 0.0
N418 N 0.58291 0.68066 0.78409 0.0
C419 C 0.60365 0.65596 0.80238 0.0
C420 C 0.60488 0.65497 0.85034 0.0
C421 C 0.00149 0.6455 0.17515 0.0
C422 C 0.95763 0.62877 0.19964 0.0
C423 C 0.00221 0.64686 0.12801 0.0
C424 C 0.95899 0.63076 0.10323 0.0
H425 H 0.03583 0.65764 0.19251 0.0
H426 H 0.03674 0.65935 0.11088 0.0
S427 S 0.83488 0.58667 0.15048 0.0
N428 N 0.87017 0.59828 0.19507 0.0
N429 N 0.87133 0.60011 0.10655 0.0
C430 C 0.91499 0.615 0.12713 0.0
C431 C 0.91436 0.61425 0.17523 0.0
loop_
_geom_bond_atom_site_label_1
_geom_bond_atom_site_label_2
_geom_bond_distance
_geom_bond_site_symmetry_2
_ccdc_geom_bond_type
C0 O1 1.306 . S
C0 O3 1.160 . S
O1 C0 1.306 . S
O1 Cd2 2.228 . S
Cd2 O1 2.228 . S
Cd2 O6 2.273 . S
Cd2 O10 2.277 . S
O3 C0 1.160 . S
O3 Cd4 2.203 1_565 S
Cd4 O3 2.203 1_545 S
Cd4 O6 2.411 1_545 S
Cd4 O7 2.333 . S
Cd4 O8 2.352 . S
Cd4 O12 2.277 . S
Cd4 O13 2.356 . S
C5 O10 1.209 1_545 S
C5 O12 1.226 . S
O6 Cd2 2.273 . S
O6 Cd4 2.411 1_565 S
O6 C9 1.320 1_565 S
O7 Cd4 2.333 . S
O7 C9 1.214 . S
O8 Cd4 2.352 . S
O8 C11 1.258 . S
C9 O6 1.320 1_545 S
C9 O7 1.214 . S
O10 Cd2 2.277 . S
O10 C5 1.209 1_565 S
C11 O8 1.258 . S
C11 O13 1.282 . S
O12 Cd4 2.277 . S
O12 C5 1.226 . S
O13 Cd4 2.356 . S
O13 C11 1.282 . S
C14 O15 1.306 . S
C14 O17 1.160 . S
O15 C14 1.306 . S
O15 Cd16 2.228 . S
Cd16 O15 2.228 . S
Cd16 O20 2.273 . S
Cd16 O24 2.277 . S
O17 C14 1.160 . S
O17 Cd18 2.203 . S
Cd18 O17 2.203 . S
Cd18 O20 2.411 . S
Cd18 O21 2.333 . S
Cd18 O22 2.352 . S
Cd18 O26 2.277 . S
Cd18 O27 2.356 . S
C19 O24 1.209 . S
C19 O26 1.226 . S
O20 Cd16 2.273 . S
O20 Cd18 2.411 . S
O20 C23 1.320 . S
O21 Cd18 2.333 . S
O21 C23 1.214 . S
O22 Cd18 2.352 . S
O22 C25 1.258 . S
C23 O20 1.320 . S
C23 O21 1.214 . S
O24 Cd16 2.277 . S
O24 C19 1.209 . S
C25 O22 1.258 . S
C25 O27 1.282 . S
O26 Cd18 2.277 . S
O26 C19 1.226 . S
O27 Cd18 2.356 . S
O27 C25 1.282 . S
C28 O29 1.306 . S
C28 O31 1.160 . S
O29 C28 1.306 . S
O29 Cd30 2.228 1_556 S
Cd30 O29 2.228 1_554 S
Cd30 O34 2.273 1_554 S
Cd30 O38 2.277 . S
O31 C28 1.160 . S
O31 Cd32 2.203 1_455 S
Cd32 O31 2.203 1_655 S
Cd32 O34 2.411 1_655 S
Cd32 O35 2.333 . S
Cd32 O36 2.352 . S
Cd32 O40 2.277 1_556 S
Cd32 O41 2.356 . S
C33 O38 1.209 1_655 S
C33 O40 1.226 . S
O34 Cd30 2.273 1_556 S
O34 Cd32 2.411 1_455 S
O34 C37 1.320 1_455 S
O35 Cd32 2.333 . S
O35 C37 1.214 . S
O36 Cd32 2.352 . S
O36 C39 1.258 . S
C37 O34 1.320 1_655 S
C37 O35 1.214 . S
O38 Cd30 2.277 . S
O38 C33 1.209 1_455 S
C39 O36 1.258 . S
C39 O41 1.282 . S
O40 Cd32 2.277 1_554 S
O40 C33 1.226 . S
O41 Cd32 2.356 . S
O41 C39 1.282 . S
C42 O43 1.306 . S
C42 O45 1.160 . S
O43 C42 1.306 . S
O43 Cd44 2.228 . S
Cd44 O43 2.228 . S
Cd44 O48 2.273 . S
Cd44 O52 2.277 . S
O45 C42 1.160 . S
O45 Cd46 2.203 1_545 S
Cd46 O45 2.203 1_565 S
Cd46 O48 2.411 1_565 S
Cd46 O49 2.333 . S
Cd46 O50 2.352 . S
Cd46 O54 2.277 . S
Cd46 O55 2.356 . S
C47 O52 1.209 1_565 S
C47 O54 1.226 . S
O48 Cd44 2.273 . S
O48 Cd46 2.411 1_545 S
O48 C51 1.320 1_545 S
O49 Cd46 2.333 . S
O49 C51 1.214 . S
O50 Cd46 2.352 . S
O50 C53 1.258 . S
C51 O48 1.320 1_565 S
C51 O49 1.214 . S
O52 Cd44 2.277 . S
O52 C47 1.209 1_545 S
C53 O50 1.258 . S
C53 O55 1.282 . S
O54 Cd46 2.277 . S
O54 C47 1.226 . S
O55 Cd46 2.356 . S
O55 C53 1.282 . S
C56 O57 1.306 . S
C56 O59 1.160 . S
O57 C56 1.306 . S
O57 Cd58 2.228 . S
Cd58 O57 2.228 . S
Cd58 O62 2.273 . S
Cd58 O66 2.277 . S
O59 C56 1.160 . S
O59 Cd60 2.203 . S
Cd60 O59 2.203 . S
Cd60 O62 2.411 . S
Cd60 O63 2.333 . S
Cd60 O64 2.352 . S
Cd60 O68 2.277 . S
Cd60 O69 2.356 . S
C61 O66 1.209 . S
C61 O68 1.226 . S
O62 Cd58 2.273 . S
O62 Cd60 2.411 . S
O62 C65 1.320 . S
O63 Cd60 2.333 . S
O63 C65 1.214 . S
O64 Cd60 2.352 . S
O64 C67 1.258 . S
C65 O62 1.320 . S
C65 O63 1.214 . S
O66 Cd58 2.277 . S
O66 C61 1.209 . S
C67 O64 1.258 . S
C67 O69 1.282 . S
O68 Cd60 2.277 . S
O68 C61 1.226 . S
O69 Cd60 2.356 . S
O69 C67 1.282 . S
C70 O71 1.306 . S
C70 O73 1.160 . S
O71 C70 1.306 . S
O71 Cd72 2.228 1_556 S
Cd72 O71 2.228 1_554 S
Cd72 O76 2.273 1_554 S
Cd72 O80 2.277 . S
O73 C70 1.160 . S
O73 Cd74 2.203 1_655 S
Cd74 O73 2.203 1_455 S
Cd74 O76 2.411 1_455 S
Cd74 O77 2.333 . S
Cd74 O78 2.352 . S
Cd74 O82 2.277 1_556 S
Cd74 O83 2.356 . S
C75 O80 1.209 1_455 S
C75 O82 1.226 . S
O76 Cd72 2.273 1_556 S
O76 Cd74 2.411 1_655 S
O76 C79 1.320 1_655 S
O77 Cd74 2.333 . S
O77 C79 1.214 . S
O78 Cd74 2.352 . S
O78 C81 1.258 . S
C79 O76 1.320 1_455 S
C79 O77 1.214 . S
O80 Cd72 2.277 . S
O80 C75 1.209 1_655 S
C81 O78 1.258 . S
C81 O83 1.282 . S
O82 Cd74 2.277 1_554 S
O82 C75 1.226 . S
O83 Cd74 2.356 . S
O83 C81 1.282 . S
C84 O85 1.306 . S
C84 O87 1.160 . S
O85 C84 1.306 . S
O85 Cd86 2.228 . S
Cd86 O85 2.228 . S
Cd86 O90 2.273 . S
Cd86 O94 2.277 . S
O87 C84 1.160 . S
O87 Cd88 2.203 1_455 S
Cd88 O87 2.203 1_655 S
Cd88 O90 2.411 1_655 S
Cd88 O91 2.333 . S
Cd88 O92 2.352 . S
Cd88 O96 2.277 . S
Cd88 O97 2.356 . S
C89 O94 1.209 1_655 S
C89 O96 1.226 . S
O90 Cd86 2.273 . S
O90 Cd88 2.411 1_455 S
O90 C93 1.320 1_455 S
O91 Cd88 2.333 . S
O91 C93 1.214 . S
O92 Cd88 2.352 . S
O92 C95 1.258 . S
C93 O90 1.320 1_655 S
C93 O91 1.214 . S
O94 Cd86 2.277 . S
O94 C89 1.209 1_455 S
C95 O92 1.258 . S
C95 O97 1.282 . S
O96 Cd88 2.277 . S
O96 C89 1.226 . S
O97 Cd88 2.356 . S
O97 C95 1.282 . S
C98 O99 1.306 . S
C98 O101 1.160 . S
O99 C98 1.306 . S
O99 Cd100 2.228 . S
Cd100 O99 2.228 . S
Cd100 O104 2.273 . S
Cd100 O108 2.277 . S
O101 C98 1.160 . S
O101 Cd102 2.203 1_545 S
Cd102 O101 2.203 1_565 S
Cd102 O104 2.411 1_565 S
Cd102 O105 2.333 . S
Cd102 O106 2.352 . S
Cd102 O110 2.277 . S
Cd102 O111 2.356 . S
C103 O108 1.209 1_565 S
C103 O110 1.226 . S
O104 Cd100 2.273 . S
O104 Cd102 2.411 1_545 S
O104 C107 1.320 1_545 S
O105 Cd102 2.333 . S
O105 C107 1.214 . S
O106 Cd102 2.352 . S
O106 C109 1.258 . S
C107 O104 1.320 1_565 S
C107 O105 1.214 . S
O108 Cd100 2.277 . S
O108 C103 1.209 1_545 S
C109 O106 1.258 . S
C109 O111 1.282 . S
O110 Cd102 2.277 . S
O110 C103 1.226 . S
O111 Cd102 2.356 . S
O111 C109 1.282 . S
C112 O113 1.306 . S
C112 O115 1.160 . S
O113 C112 1.306 . S
O113 Cd114 2.228 1_554 S
Cd114 O113 2.228 1_556 S
Cd114 O118 2.273 1_556 S
Cd114 O122 2.277 . S
O115 C112 1.160 . S
O115 Cd116 2.203 . S
Cd116 O115 2.203 . S
Cd116 O118 2.411 . S
Cd116 O119 2.333 . S
Cd116 O120 2.352 . S
Cd116 O124 2.277 1_554 S
Cd116 O125 2.356 . S
C117 O122 1.209 . S
C117 O124 1.226 . S
O118 Cd114 2.273 1_554 S
O118 Cd116 2.411 . S
O118 C121 1.320 . S
O119 Cd116 2.333 . S
O119 C121 1.214 . S
O120 Cd116 2.352 . S
O120 C123 1.258 . S
C121 O118 1.320 . S
C121 O119 1.214 . S
O122 Cd114 2.277 . S
O122 C117 1.209 . S
C123 O120 1.258 . S
C123 O125 1.282 . S
O124 Cd116 2.277 1_556 S
O124 C117 1.226 . S
O125 Cd116 2.356 . S
O125 C123 1.282 . S
C126 O127 1.306 . S
C126 O129 1.160 . S
O127 C126 1.306 . S
O127 Cd128 2.228 . S
Cd128 O127 2.228 . S
Cd128 O132 2.273 . S
Cd128 O136 2.277 . S
O129 C126 1.160 . S
O129 Cd130 2.203 1_655 S
Cd130 O129 2.203 1_455 S
Cd130 O132 2.411 1_455 S
Cd130 O133 2.333 . S
Cd130 O134 2.352 . S
Cd130 O138 2.277 . S
Cd130 O139 2.356 . S
C131 O136 1.209 1_455 S
C131 O138 1.226 . S
O132 Cd128 2.273 . S
O132 Cd130 2.411 1_655 S
O132 C135 1.320 1_655 S
O133 Cd130 2.333 . S
O133 C135 1.214 . S
O134 Cd130 2.352 . S
O134 C137 1.258 . S
C135 O132 1.320 1_455 S
C135 O133 1.214 . S
O136 Cd128 2.277 . S
O136 C131 1.209 1_655 S
C137 O134 1.258 . S
C137 O139 1.282 . S
O138 Cd130 2.277 . S
O138 C131 1.226 . S
O139 Cd130 2.356 . S
O139 C137 1.282 . S
C140 O141 1.306 . S
C140 O143 1.160 . S
O141 C140 1.306 . S
O141 Cd142 2.228 . S
Cd142 O141 2.228 . S
Cd142 O146 2.273 . S
Cd142 O150 2.277 . S
O143 C140 1.160 . S
O143 Cd144 2.203 1_565 S
Cd144 O143 2.203 1_545 S
Cd144 O146 2.411 1_545 S
Cd144 O147 2.333 . S
Cd144 O148 2.352 . S
Cd144 O152 2.277 . S
Cd144 O153 2.356 . S
C145 O150 1.209 1_545 S
C145 O152 1.226 . S
O146 Cd142 2.273 . S
O146 Cd144 2.411 1_565 S
O146 C149 1.320 1_565 S
O147 Cd144 2.333 . S
O147 C149 1.214 . S
O148 Cd144 2.352 . S
O148 C151 1.258 . S
C149 O146 1.320 1_545 S
C149 O147 1.214 . S
O150 Cd142 2.277 . S
O150 C145 1.209 1_565 S
C151 O148 1.258 . S
C151 O153 1.282 . S
O152 Cd144 2.277 . S
O152 C145 1.226 . S
O153 Cd144 2.356 . S
O153 C151 1.282 . S
C154 O155 1.306 . S
C154 O157 1.160 . S
O155 C154 1.306 . S
O155 Cd156 2.228 1_554 S
Cd156 O155 2.228 1_556 S
Cd156 O160 2.273 1_556 S
Cd156 O164 2.277 . S
O157 C154 1.160 . S
O157 Cd158 2.203 . S
Cd158 O157 2.203 . S
Cd158 O160 2.411 . S
Cd158 O161 2.333 . S
Cd158 O162 2.352 . S
Cd158 O166 2.277 1_554 S
Cd158 O167 2.356 . S
C159 O164 1.209 . S
C159 O166 1.226 . S
O160 Cd156 2.273 1_554 S
O160 Cd158 2.411 . S
O160 C163 1.320 . S
O161 Cd158 2.333 . S
O161 C163 1.214 . S
O162 Cd158 2.352 . S
O162 C165 1.258 . S
C163 O160 1.320 . S
C163 O161 1.214 . S
O164 Cd156 2.277 . S
O164 C159 1.209 . S
C165 O162 1.258 . S
C165 O167 1.282 . S
O166 Cd158 2.277 1_556 S
O166 C159 1.226 . S
O167 Cd158 2.356 . S
O167 C165 1.282 . S
C168 C169 1.369 . S
C168 C170 1.419 . S
C168 H172 0.930 . S
C169 C168 1.369 . S
C169 C178 1.429 . S
C170 C168 1.419 . S
C170 C171 1.363 . S
C170 H173 0.929 . S
C171 C170 1.363 . S
C171 C177 1.428 . S
H172 C168 0.930 . S
H173 C170 0.929 . S
S174 N175 1.613 . S
S174 N176 1.610 . S
N175 S174 1.613 . S
N175 C178 1.350 . S
N176 S174 1.610 . S
N176 C177 1.351 . S
C177 C171 1.428 . S
C177 N176 1.351 . S
C177 C178 1.434 . S
C178 C169 1.429 . S
C178 N175 1.350 . S
C178 C177 1.434 . S
C179 C180 1.369 . S
C179 C181 1.419 . S
C179 H183 0.930 . S
C180 C179 1.369 . S
C180 C189 1.429 . S
C181 C179 1.419 . S
C181 C182 1.363 . S
C181 H184 0.929 . S
C182 C181 1.363 . S
C182 C188 1.428 . S
H183 C179 0.930 . S
H184 C181 0.929 . S
S185 N186 1.613 . S
S185 N187 1.610 . S
N186 S185 1.613 . S
N186 C189 1.350 . S
N187 S185 1.610 . S
N187 C188 1.351 . S
C188 C182 1.428 . S
C188 N187 1.351 . S
C188 C189 1.434 . S
C189 C180 1.429 . S
C189 N186 1.350 . S
C189 C188 1.434 . S
C190 C191 1.369 . S
C190 C192 1.419 . S
C190 H194 0.930 . S
C191 C190 1.369 . S
C191 C200 1.429 . S
C192 C190 1.419 . S
C192 C193 1.363 . S
C192 H195 0.929 . S
C193 C192 1.363 . S
C193 C199 1.428 . S
H194 C190 0.930 . S
H195 C192 0.929 . S
S196 N197 1.613 . S
S196 N198 1.610 . S
N197 S196 1.613 . S
N197 C200 1.350 . S
N198 S196 1.610 . S
N198 C199 1.351 . S
C199 C193 1.428 . S
C199 N198 1.351 . S
C199 C200 1.434 . S
C200 C191 1.429 . S
C200 N197 1.350 . S
C200 C199 1.434 . S
C201 C202 1.369 . S
C201 C203 1.419 . S
C201 H205 0.930 . S
C202 C201 1.369 . S
C202 C211 1.429 . S
C203 C201 1.419 . S
C203 C204 1.363 . S
C203 H206 0.929 . S
C204 C203 1.363 . S
C204 C210 1.428 . S
H205 C201 0.930 . S
H206 C203 0.929 . S
S207 N208 1.613 . S
S207 N209 1.610 . S
N208 S207 1.613 . S
N208 C211 1.350 . S
N209 S207 1.610 . S
N209 C210 1.351 . S
C210 C204 1.428 . S
C210 N209 1.351 . S
C210 C211 1.434 . S
C211 C202 1.429 . S
C211 N208 1.350 . S
C211 C210 1.434 . S
C212 C213 1.369 . S
C212 C214 1.419 . S
C212 H216 0.930 . S
C213 C212 1.369 . S
C213 C222 1.429 . S
C214 C212 1.419 . S
C214 C215 1.363 . S
C214 H217 0.929 . S
C215 C214 1.363 . S
C215 C221 1.428 . S
H216 C212 0.930 . S
H217 C214 0.929 . S
S218 N219 1.613 . S
S218 N220 1.610 . S
N219 S218 1.613 . S
N219 C222 1.350 . S
N220 S218 1.610 . S
N220 C221 1.351 . S
C221 C215 1.428 . S
C221 N220 1.351 . S
C221 C222 1.434 . S
C222 C213 1.429 . S
C222 N219 1.350 . S
C222 C221 1.434 . S
C223 C224 1.369 . S
C223 C225 1.419 . S
C223 H227 0.930 . S
C224 C223 1.369 . S
C224 C233 1.429 . S
C225 C223 1.419 . S
C225 C226 1.363 . S
C225 H228 0.929 . S
C226 C225 1.363 . S
C226 C232 1.428 . S
H227 C223 0.930 . S
H228 C225 0.929 . S
S229 N230 1.613 . S
S229 N231 1.610 . S
N230 S229 1.613 . S
N230 C233 1.350 . S
N231 S229 1.610 . S
N231 C232 1.351 . S
C232 C226 1.428 . S
C232 N231 1.351 . S
C232 C233 1.434 . S
C233 C224 1.429 . S
C233 N230 1.350 . S
C233 C232 1.434 . S
C234 C235 1.369 1_565 S
C234 C236 1.419 . S
C234 H238 0.930 . S
C235 C234 1.369 1_545 S
C235 C244 1.429 . S
C236 C234 1.419 . S
C236 C237 1.363 . S
C236 H239 0.929 . S
C237 C236 1.363 . S
C237 C243 1.428 1_565 S
H238 C234 0.930 . S
H239 C236 0.929 . S
S240 N241 1.613 . S
S240 N242 1.610 . S
N241 S240 1.613 . S
N241 C244 1.350 . S
N242 S240 1.610 . S
N242 C243 1.351 . S
C243 C237 1.428 1_545 S
C243 N242 1.351 . S
C243 C244 1.434 . S
C244 C235 1.429 . S
C244 N241 1.350 . S
C244 C243 1.434 . S
C245 C246 1.369 . S
C245 C247 1.419 . S
C245 H249 0.930 . S
C246 C245 1.369 . S
C246 C255 1.429 . S
C247 C245 1.419 . S
C247 C248 1.363 . S
C247 H250 0.929 . S
C248 C247 1.363 . S
C248 C254 1.428 . S
H249 C245 0.930 . S
H250 C247 0.929 . S
S251 N252 1.613 . S
S251 N253 1.610 . S
N252 S251 1.613 . S
N252 C255 1.350 . S
N253 S251 1.610 . S
N253 C254 1.351 . S
C254 C248 1.428 . S
C254 N253 1.351 . S
C254 C255 1.434 . S
C255 C246 1.429 . S
C255 N252 1.350 . S
C255 C254 1.434 . S
C256 C257 1.369 1_655 S
C256 C258 1.419 . S
C256 H260 0.930 1_556 S
C257 C256 1.369 1_455 S
C257 C266 1.429 . S
C258 C256 1.419 . S
C258 C259 1.363 . S
C258 H261 0.929 1_556 S
C259 C258 1.363 . S
C259 C265 1.428 1_655 S
H260 C256 0.930 1_554 S
H261 C258 0.929 1_554 S
S262 N263 1.613 . S
S262 N264 1.610 . S
N263 S262 1.613 . S
N263 C266 1.350 . S
N264 S262 1.610 . S
N264 C265 1.351 . S
C265 C259 1.428 1_455 S
C265 N264 1.351 . S
C265 C266 1.434 . S
C266 C257 1.429 . S
C266 N263 1.350 . S
C266 C265 1.434 . S
C267 C268 1.369 1_455 S
C267 C269 1.419 . S
C267 H271 0.930 . S
C268 C267 1.369 1_655 S
C268 C277 1.429 . S
C269 C267 1.419 . S
C269 C270 1.363 . S
C269 H272 0.929 . S
C270 C269 1.363 . S
C270 C276 1.428 1_455 S
H271 C267 0.930 . S
H272 C269 0.929 . S
S273 N274 1.613 . S
S273 N275 1.610 . S
N274 S273 1.613 . S
N274 C277 1.350 . S
N275 S273 1.610 . S
N275 C276 1.351 . S
C276 C270 1.428 1_655 S
C276 N275 1.351 . S
C276 C277 1.434 . S
C277 C268 1.429 . S
C277 N274 1.350 . S
C277 C276 1.434 . S
C278 C279 1.369 . S
C278 C280 1.419 . S
C278 H282 0.930 . S
C279 C278 1.369 . S
C279 C288 1.429 1_545 S
C280 C278 1.419 . S
C280 C281 1.363 1_545 S
C280 H283 0.929 . S
C281 C280 1.363 1_565 S
C281 C287 1.428 . S
H282 C278 0.930 . S
H283 C280 0.929 . S
S284 N285 1.613 . S
S284 N286 1.610 . S
N285 S284 1.613 . S
N285 C288 1.350 . S
N286 S284 1.610 . S
N286 C287 1.351 . S
C287 C281 1.428 . S
C287 N286 1.351 . S
C287 C288 1.434 . S
C288 C279 1.429 1_565 S
C288 N285 1.350 . S
C288 C287 1.434 . S
C289 C290 1.369 . S
C289 C291 1.419 . S
C289 H293 0.930 . S
C290 C289 1.369 . S
C290 C299 1.429 . S
C291 C289 1.419 . S
C291 C292 1.363 . S
C291 H294 0.929 . S
C292 C291 1.363 . S
C292 C298 1.428 . S
H293 C289 0.930 . S
H294 C291 0.929 . S
S295 N296 1.613 . S
S295 N297 1.610 . S
N296 S295 1.613 . S
N296 C299 1.350 . S
N297 S295 1.610 . S
N297 C298 1.351 . S
C298 C292 1.428 . S
C298 N297 1.351 . S
C298 C299 1.434 . S
C299 C290 1.429 . S
C299 N296 1.350 . S
C299 C298 1.434 . S
C300 C301 1.369 . S
C300 C302 1.419 . S
C300 H304 0.930 . S
C301 C300 1.369 . S
C301 C310 1.429 . S
C302 C300 1.419 . S
C302 C303 1.363 . S
C302 H305 0.929 . S
C303 C302 1.363 . S
C303 C309 1.428 . S
H304 C300 0.930 . S
H305 C302 0.929 . S
S306 N307 1.613 . S
S306 N308 1.610 . S
N307 S306 1.613 . S
N307 C310 1.350 . S
N308 S306 1.610 . S
N308 C309 1.351 . S
C309 C303 1.428 . S
C309 N308 1.351 . S
C309 C310 1.434 . S
C310 C301 1.429 . S
C310 N307 1.350 . S
C310 C309 1.434 . S
C311 C312 1.369 . S
C311 C313 1.419 . S
C311 H315 0.930 . S
C312 C311 1.369 . S
C312 C321 1.429 . S
C313 C311 1.419 . S
C313 C314 1.363 . S
C313 H316 0.929 . S
C314 C313 1.363 . S
C314 C320 1.428 . S
H315 C311 0.930 . S
H316 C313 0.929 . S
S317 N318 1.613 . S
S317 N319 1.610 . S
N318 S317 1.613 . S
N318 C321 1.350 . S
N319 S317 1.610 . S
N319 C320 1.351 . S
C320 C314 1.428 . S
C320 N319 1.351 . S
C320 C321 1.434 . S
C321 C312 1.429 . S
C321 N318 1.350 . S
C321 C320 1.434 . S
C322 C323 1.369 . S
C322 C324 1.419 . S
C322 H326 0.930 . S
C323 C322 1.369 . S
C323 C332 1.429 1_554 S
C324 C322 1.419 . S
C324 C325 1.363 1_554 S
C324 H327 0.929 . S
C325 C324 1.363 1_556 S
C325 C331 1.428 . S
H326 C322 0.930 . S
H327 C324 0.929 . S
S328 N329 1.613 . S
S328 N330 1.610 . S
N329 S328 1.613 . S
N329 C332 1.350 . S
N330 S328 1.610 . S
N330 C331 1.351 . S
C331 C325 1.428 . S
C331 N330 1.351 . S
C331 C332 1.434 . S
C332 C323 1.429 1_556 S
C332 N329 1.350 . S
C332 C331 1.434 . S
C333 C334 1.369 . S
C333 C335 1.419 . S
C333 H337 0.930 . S
C334 C333 1.369 . S
C334 C343 1.429 . S
C335 C333 1.419 . S
C335 C336 1.363 . S
C335 H338 0.929 . S
C336 C335 1.363 . S
C336 C342 1.428 . S
H337 C333 0.930 . S
H338 C335 0.929 . S
S339 N340 1.613 . S
S339 N341 1.610 . S
N340 S339 1.613 . S
N340 C343 1.350 . S
N341 S339 1.610 . S
N341 C342 1.351 . S
C342 C336 1.428 . S
C342 N341 1.351 . S
C342 C343 1.434 . S
C343 C334 1.429 . S
C343 N340 1.350 . S
C343 C342 1.434 . S
C344 C345 1.369 . S
C344 C346 1.419 . S
C344 H348 0.930 . S
C345 C344 1.369 . S
C345 C354 1.429 . S
C346 C344 1.419 . S
C346 C347 1.363 . S
C346 H349 0.929 . S
C347 C346 1.363 . S
C347 C353 1.428 . S
H348 C344 0.930 . S
H349 C346 0.929 . S
S350 N351 1.613 . S
S350 N352 1.610 . S
N351 S350 1.613 . S
N351 C354 1.350 . S
N352 S350 1.610 . S
N352 C353 1.351 . S
C353 C347 1.428 . S
C353 N352 1.351 . S
C353 C354 1.434 . S
C354 C345 1.429 . S
C354 N351 1.350 . S
C354 C353 1.434 . S
C355 C356 1.369 . S
C355 C357 1.419 . S
C355 H359 0.930 . S
C356 C355 1.369 . S
C356 C365 1.429 1_554 S
C357 C355 1.419 . S
C357 C358 1.363 1_554 S
C357 H360 0.929 . S
C358 C357 1.363 1_556 S
C358 C364 1.428 . S
H359 C355 0.930 . S
H360 C357 0.929 . S
S361 N362 1.613 . S
S361 N363 1.610 . S
N362 S361 1.613 . S
N362 C365 1.350 . S
N363 S361 1.610 . S
N363 C364 1.351 . S
C364 C358 1.428 . S
C364 N363 1.351 . S
C364 C365 1.434 . S
C365 C356 1.429 1_556 S
C365 N362 1.350 . S
C365 C364 1.434 . S
C366 C367 1.369 1_565 S
C366 C368 1.419 . S
C366 H370 0.930 . S
C367 C366 1.369 1_545 S
C367 C376 1.429 . S
C368 C366 1.419 . S
C368 C369 1.363 . S
C368 H371 0.929 . S
C369 C368 1.363 . S
C369 C375 1.428 1_565 S
H370 C366 0.930 . S
H371 C368 0.929 . S
S372 N373 1.613 . S
S372 N374 1.610 . S
N373 S372 1.613 . S
N373 C376 1.350 . S
N374 S372 1.610 . S
N374 C375 1.351 . S
C375 C369 1.428 1_545 S
C375 N374 1.351 . S
C375 C376 1.434 . S
C376 C367 1.429 . S
C376 N373 1.350 . S
C376 C375 1.434 . S
C377 C378 1.369 . S
C377 C379 1.419 . S
C377 H381 0.930 . S
C378 C377 1.369 . S
C378 C387 1.429 . S
C379 C377 1.419 . S
C379 C380 1.363 . S
C379 H382 0.929 . S
C380 C379 1.363 . S
C380 C386 1.428 . S
H381 C377 0.930 . S
H382 C379 0.929 . S
S383 N384 1.613 . S
S383 N385 1.610 . S
N384 S383 1.613 . S
N384 C387 1.350 . S
N385 S383 1.610 . S
N385 C386 1.351 . S
C386 C380 1.428 . S
C386 N385 1.351 . S
C386 C387 1.434 . S
C387 C378 1.429 . S
C387 N384 1.350 . S
C387 C386 1.434 . S
C388 C389 1.369 1_655 S
C388 C390 1.419 . S
C388 H392 0.930 . S
C389 C388 1.369 1_455 S
C389 C398 1.429 . S
C390 C388 1.419 . S
C390 C391 1.363 . S
C390 H393 0.929 . S
C391 C390 1.363 . S
C391 C397 1.428 1_655 S
H392 C388 0.930 . S
H393 C390 0.929 . S
S394 N395 1.613 . S
S394 N396 1.610 . S
N395 S394 1.613 . S
N395 C398 1.350 . S
N396 S394 1.610 . S
N396 C397 1.351 . S
C397 C391 1.428 1_455 S
C397 N396 1.351 . S
C397 C398 1.434 . S
C398 C389 1.429 . S
C398 N395 1.350 . S
C398 C397 1.434 . S
C399 C400 1.369 1_545 S
C399 C401 1.419 . S
C399 H403 0.930 . S
C400 C399 1.369 1_565 S
C400 C409 1.429 . S
C401 C399 1.419 . S
C401 C402 1.363 . S
C401 H404 0.929 . S
C402 C401 1.363 . S
C402 C408 1.428 1_545 S
H403 C399 0.930 . S
H404 C401 0.929 . S
S405 N406 1.613 . S
S405 N407 1.610 . S
N406 S405 1.613 . S
N406 C409 1.350 . S
N407 S405 1.610 . S
N407 C408 1.351 . S
C408 C402 1.428 1_565 S
C408 N407 1.351 . S
C408 C409 1.434 . S
C409 C400 1.429 . S
C409 N406 1.350 . S
C409 C408 1.434 . S
C410 C411 1.369 . S
C410 C412 1.419 . S
C410 H414 0.930 . S
C411 C410 1.369 . S
C411 C420 1.429 . S
C412 C410 1.419 . S
C412 C413 1.363 . S
C412 H415 0.929 . S
C413 C412 1.363 . S
C413 C419 1.428 . S
H414 C410 0.930 . S
H415 C412 0.929 . S
S416 N417 1.613 . S
S416 N418 1.610 . S
N417 S416 1.613 . S
N417 C420 1.350 . S
N418 S416 1.610 . S
N418 C419 1.351 . S
C419 C413 1.428 . S
C419 N418 1.351 . S
C419 C420 1.434 . S
C420 C411 1.429 . S
C420 N417 1.350 . S
C420 C419 1.434 . S
C421 C422 1.369 1_455 S
C421 C423 1.419 . S
C421 H425 0.930 . S
C422 C421 1.369 1_655 S
C422 C431 1.429 . S
C423 C421 1.419 . S
C423 C424 1.363 . S
C423 H426 0.929 . S
C424 C423 1.363 . S
C424 C430 1.428 1_455 S
H425 C421 0.930 . S
H426 C423 0.929 . S
S427 N428 1.613 . S
S427 N429 1.610 . S
N428 S427 1.613 . S
N428 C431 1.350 . S
N429 S427 1.610 . S
N429 C430 1.351 . S
C430 C424 1.428 1_655 S
C430 N429 1.351 . S
C430 C431 1.434 . S
C431 C422 1.429 . S
C431 N428 1.350 . S
C431 C430 1.434 . S
C169 C11 1.707 . S
C171 C123 1.705 . S
C180 C25 1.705 . S
C182 C137 1.707 . S
C191 C151 1.705 . S
C193 C39 1.706 . S
C202 C165 1.707 . S
C204 C53 1.705 . S
C213 C95 1.706 . S
C215 C67 1.705 . S
C224 C109 1.707 . S
C226 C81 1.705 . S
C235 C9 1.598 . S
C237 C51 1.596 . S
C246 C65 1.596 . S
C248 C23 1.598 . S
C257 C79 1.599 . S
C259 C37 1.597 . S
C268 C93 1.599 . S
C270 C135 1.597 . S
C279 C149 1.597 . S
C281 C107 1.599 . S
C290 C121 1.599 . S
C292 C163 1.597 . S
C301 C84 1.098 . S
C303 C0 1.089 . S
C312 C14 1.102 . S
C314 C98 1.089 . S
C323 C112 1.087 . S
C325 C28 1.098 . S
C334 C126 1.089 . S
C336 C42 1.100 . S
C345 C56 1.100 . S
C347 C140 1.088 . S
C356 C154 1.089 . S
C358 C70 1.100 . S
C367 C5 1.205 . S
C369 C103 1.200 . S
C378 C117 1.201 . S
C380 C19 1.203 . S
C389 C131 1.205 . S
C391 C33 1.200 . S
C400 C47 1.207 . S
C402 C145 1.199 . S
C411 C159 1.202 . S
C413 C61 1.202 . S
C422 C89 1.204 . S
C424 C75 1.200 . S
