# Generated by pormake.
# Topology umq, (4)-cn, num edge types: 1
# Building blocks:
#     Node 0, Type 0, BuildingBlock: CEKHIL_clean_sbu_0, # of connection points: 4
#     Node 1, Type 0, BuildingBlock: CEKHIL_clean_sbu_0, # of connection points: 4
#     Node 2, Type 0, BuildingBlock: CEKHIL_clean_sbu_0, # of connection points: 4
#     Node 3, Type 0, BuildingBlock: CEKHIL_clean_sbu_0, # of connection points: 4
#     Node 4, Type 0, BuildingBlock: CEKHIL_clean_sbu_0, # of connection points: 4
#     Node 5, Type 0, BuildingBlock: CEKHIL_clean_sbu_0, # of connection points: 4
#     Node 6, Type 0, BuildingBlock: CEKHIL_clean_sbu_0, # of connection points: 4
#     Node 7, Type 0, BuildingBlock: CEKHIL_clean_sbu_0, # of connection points: 4
#     Node 8, Type 0, BuildingBlock: CEKHIL_clean_sbu_0, # of connection points: 4
#     Node 9, Type 0, BuildingBlock: CEKHIL_clean_sbu_0, # of connection points: 4
#     Node 10, Type 0, BuildingBlock: CEKHIL_clean_sbu_0, # of connection points: 4
#     Node 11, Type 0, BuildingBlock: CEKHIL_clean_sbu_0, # of connection points: 4
#     Node 12, Type 0, BuildingBlock: CEKHIL_clean_sbu_0, # of connection points: 4
#     Node 13, Type 0, BuildingBlock: CEKHIL_clean_sbu_0, # of connection points: 4
#     Node 14, Type 0, BuildingBlock: CEKHIL_clean_sbu_0, # of connection points: 4
#     Node 15, Type 0, BuildingBlock: CEKHIL_clean_sbu_0, # of connection points: 4
#     Node 16, Type 0, BuildingBlock: CEKHIL_clean_sbu_0, # of connection points: 4
#     Node 17, Type 0, BuildingBlock: CEKHIL_clean_sbu_0, # of connection points: 4
#     Node 18, Type 0, BuildingBlock: CEKHIL_clean_sbu_0, # of connection points: 4
#     Node 19, Type 0, BuildingBlock: CEKHIL_clean_sbu_0, # of connection points: 4
#     Node 20, Type 0, BuildingBlock: CEKHIL_clean_sbu_0, # of connection points: 4
#     Node 21, Type 0, BuildingBlock: CEKHIL_clean_sbu_0, # of connection points: 4
#     Node 22, Type 0, BuildingBlock: CEKHIL_clean_sbu_0, # of connection points: 4
#     Node 23, Type 0, BuildingBlock: CEKHIL_clean_sbu_0, # of connection points: 4
#     Node 24, Type 0, BuildingBlock: CEKHIL_clean_sbu_0, # of connection points: 4
#     Node 25, Type 0, BuildingBlock: CEKHIL_clean_sbu_0, # of connection points: 4
#     Node 26, Type 0, BuildingBlock: CEKHIL_clean_sbu_0, # of connection points: 4
#     Node 27, Type 0, BuildingBlock: CEKHIL_clean_sbu_0, # of connection points: 4
#     Node 28, Type 0, BuildingBlock: CEKHIL_clean_sbu_0, # of connection points: 4
#     Node 29, Type 0, BuildingBlock: CEKHIL_clean_sbu_0, # of connection points: 4
#     Node 30, Type 0, BuildingBlock: CEKHIL_clean_sbu_0, # of connection points: 4
#     Node 31, Type 0, BuildingBlock: CEKHIL_clean_sbu_0, # of connection points: 4
#     Edge 32, Type (0, 0), BuildingBlock: OJICUG_clean_linker_0, # of connection points: 2
#     Edge 33, Type (0, 0), BuildingBlock: OJICUG_clean_linker_0, # of connection points: 2
#     Edge 34, Type (0, 0), BuildingBlock: OJICUG_clean_linker_0, # of connection points: 2
#     Edge 35, Type (0, 0), BuildingBlock: OJICUG_clean_linker_0, # of connection points: 2
#     Edge 36, Type (0, 0), BuildingBlock: OJICUG_clean_linker_0, # of connection points: 2
#     Edge 37, Type (0, 0), BuildingBlock: OJICUG_clean_linker_0, # of connection points: 2
#     Edge 38, Type (0, 0), BuildingBlock: OJICUG_clean_linker_0, # of connection points: 2
#     Edge 39, Type (0, 0), BuildingBlock: OJICUG_clean_linker_0, # of connection points: 2
#     Edge 40, Type (0, 0), BuildingBlock: OJICUG_clean_linker_0, # of connection points: 2
#     Edge 41, Type (0, 0), BuildingBlock: OJICUG_clean_linker_0, # of connection points: 2
#     Edge 42, Type (0, 0), BuildingBlock: OJICUG_clean_linker_0, # of connection points: 2
#     Edge 43, Type (0, 0), BuildingBlock: OJICUG_clean_linker_0, # of connection points: 2
#     Edge 44, Type (0, 0), BuildingBlock: OJICUG_clean_linker_0, # of connection points: 2
#     Edge 45, Type (0, 0), BuildingBlock: OJICUG_clean_linker_0, # of connection points: 2
#     Edge 46, Type (0, 0), BuildingBlock: OJICUG_clean_linker_0, # of connection points: 2
#     Edge 47, Type (0, 0), BuildingBlock: OJICUG_clean_linker_0, # of connection points: 2
#     Edge 48, Type (0, 0), BuildingBlock: OJICUG_clean_linker_0, # of connection points: 2
#     Edge 49, Type (0, 0), BuildingBlock: OJICUG_clean_linker_0, # of connection points: 2
#     Edge 50, Type (0, 0), BuildingBlock: OJICUG_clean_linker_0, # of connection points: 2
#     Edge 51, Type (0, 0), BuildingBlock: OJICUG_clean_linker_0, # of connection points: 2
#     Edge 52, Type (0, 0), BuildingBlock: OJICUG_clean_linker_0, # of connection points: 2
#     Edge 53, Type (0, 0), BuildingBlock: OJICUG_clean_linker_0, # of connection points: 2
#     Edge 54, Type (0, 0), BuildingBlock: OJICUG_clean_linker_0, # of connection points: 2
#     Edge 55, Type (0, 0), BuildingBlock: OJICUG_clean_linker_0, # of connection points: 2
#     Edge 56, Type (0, 0), BuildingBlock: OJICUG_clean_linker_0, # of connection points: 2
#     Edge 57, Type (0, 0), BuildingBlock: OJICUG_clean_linker_0, # of connection points: 2
#     Edge 58, Type (0, 0), BuildingBlock: OJICUG_clean_linker_0, # of connection points: 2
#     Edge 59, Type (0, 0), BuildingBlock: OJICUG_clean_linker_0, # of connection points: 2
#     Edge 60, Type (0, 0), BuildingBlock: OJICUG_clean_linker_0, # of connection points: 2
#     Edge 61, Type (0, 0), BuildingBlock: OJICUG_clean_linker_0, # of connection points: 2
#     Edge 62, Type (0, 0), BuildingBlock: OJICUG_clean_linker_0, # of connection points: 2
#     Edge 63, Type (0, 0), BuildingBlock: OJICUG_clean_linker_0, # of connection points: 2
#     Edge 64, Type (0, 0), BuildingBlock: OJICUG_clean_linker_0, # of connection points: 2
#     Edge 65, Type (0, 0), BuildingBlock: OJICUG_clean_linker_0, # of connection points: 2
#     Edge 66, Type (0, 0), BuildingBlock: OJICUG_clean_linker_0, # of connection points: 2
#     Edge 67, Type (0, 0), BuildingBlock: OJICUG_clean_linker_0, # of connection points: 2
#     Edge 68, Type (0, 0), BuildingBlock: OJICUG_clean_linker_0, # of connection points: 2
#     Edge 69, Type (0, 0), BuildingBlock: OJICUG_clean_linker_0, # of connection points: 2
#     Edge 70, Type (0, 0), BuildingBlock: OJICUG_clean_linker_0, # of connection points: 2
#     Edge 71, Type (0, 0), BuildingBlock: OJICUG_clean_linker_0, # of connection points: 2
#     Edge 72, Type (0, 0), BuildingBlock: OJICUG_clean_linker_0, # of connection points: 2
#     Edge 73, Type (0, 0), BuildingBlock: OJICUG_clean_linker_0, # of connection points: 2
#     Edge 74, Type (0, 0), BuildingBlock: OJICUG_clean_linker_0, # of connection points: 2
#     Edge 75, Type (0, 0), BuildingBlock: OJICUG_clean_linker_0, # of connection points: 2
#     Edge 76, Type (0, 0), BuildingBlock: OJICUG_clean_linker_0, # of connection points: 2
#     Edge 77, Type (0, 0), BuildingBlock: OJICUG_clean_linker_0, # of connection points: 2
#     Edge 78, Type (0, 0), BuildingBlock: OJICUG_clean_linker_0, # of connection points: 2
#     Edge 79, Type (0, 0), BuildingBlock: OJICUG_clean_linker_0, # of connection points: 2
#     Edge 80, Type (0, 0), BuildingBlock: OJICUG_clean_linker_0, # of connection points: 2
#     Edge 81, Type (0, 0), BuildingBlock: OJICUG_clean_linker_0, # of connection points: 2
#     Edge 82, Type (0, 0), BuildingBlock: OJICUG_clean_linker_0, # of connection points: 2
#     Edge 83, Type (0, 0), BuildingBlock: OJICUG_clean_linker_0, # of connection points: 2
#     Edge 84, Type (0, 0), BuildingBlock: OJICUG_clean_linker_0, # of connection points: 2
#     Edge 85, Type (0, 0), BuildingBlock: OJICUG_clean_linker_0, # of connection points: 2
#     Edge 86, Type (0, 0), BuildingBlock: OJICUG_clean_linker_0, # of connection points: 2
#     Edge 87, Type (0, 0), BuildingBlock: OJICUG_clean_linker_0, # of connection points: 2
#     Edge 88, Type (0, 0), BuildingBlock: OJICUG_clean_linker_0, # of connection points: 2
#     Edge 89, Type (0, 0), BuildingBlock: OJICUG_clean_linker_0, # of connection points: 2
#     Edge 90, Type (0, 0), BuildingBlock: OJICUG_clean_linker_0, # of connection points: 2
#     Edge 91, Type (0, 0), BuildingBlock: OJICUG_clean_linker_0, # of connection points: 2
#     Edge 92, Type (0, 0), BuildingBlock: OJICUG_clean_linker_0, # of connection points: 2
#     Edge 93, Type (0, 0), BuildingBlock: OJICUG_clean_linker_0, # of connection points: 2
#     Edge 94, Type (0, 0), BuildingBlock: OJICUG_clean_linker_0, # of connection points: 2
#     Edge 95, Type (0, 0), BuildingBlock: OJICUG_clean_linker_0, # of connection points: 2
# Relax obj value: 0.076
# Max RMSD: 0.061
# Mean RMSD: 0.061
data_MOF--net-umq--node1-CEKHIL_clean_sbu_0--edge1-OJICUG_clean_linker_0
_symmetry_space_group_name_H-M    P1
_symmetry_Int_Tables_number       1
_symmetry_cell_setting            triclinic
loop_
_symmetry_equiv_pos_as_xyz
'x, y, z'
_cell_length_a     47.445415
_cell_length_b     47.48315
_cell_length_c     32.050503
_cell_angle_alpha  89.999644
_cell_angle_beta   90.000455
_cell_angle_gamma 89.999125
loop_
_atom_site_label
_atom_site_type_symbol
_atom_site_fract_x
_atom_site_fract_y
_atom_site_fract_z
_atom_type_partial_charge
Co0 Co 0.25045 0.10143 0.16141 0.0
O1 O 0.22944 0.06807 0.17743 0.0
O2 O 0.26798 0.08281 0.2091 0.0
C3 C 0.25087 0.09156 0.09218 0.0
O4 O 0.27868 0.13404 0.15284 0.0
Co5 Co 0.22512 0.14588 0.1001 0.0
O6 O 0.26482 0.15862 0.09642 0.0
C7 C 0.20566 0.14427 0.18788 0.0
C8 C 0.24839 0.06374 0.20586 0.0
C9 C 0.28301 0.15292 0.12446 0.0
O10 O 0.22508 0.12618 0.19771 0.0
O11 O 0.20121 0.15249 0.15042 0.0
O12 O 0.26942 0.08 0.11661 0.0
O13 O 0.23216 0.10666 0.11064 0.0
Co14 Co 0.92037 0.25049 0.16154 0.0
O15 O 0.95375 0.22951 0.17761 0.0
O16 O 0.93895 0.26801 0.20927 0.0
C17 C 0.93033 0.25091 0.09235 0.0
O18 O 0.88774 0.2787 0.15295 0.0
Co19 Co 0.87592 0.22526 0.10013 0.0
O20 O 0.86323 0.26495 0.09639 0.0
C21 C 0.87747 0.20572 0.18788 0.0
C22 C 0.95804 0.24844 0.20605 0.0
C23 C 0.86891 0.28308 0.1245 0.0
O24 O 0.89559 0.2251 0.19778 0.0
O25 O 0.86925 0.20134 0.1504 0.0
O26 O 0.94184 0.26946 0.1168 0.0
O27 O 0.91518 0.23222 0.11076 0.0
Co28 Co 0.77179 0.92024 0.16136 0.0
O29 O 0.7927 0.95361 0.17754 0.0
O30 O 0.75412 0.93878 0.20902 0.0
C31 C 0.7715 0.93022 0.09217 0.0
O32 O 0.74366 0.88758 0.15257 0.0
Co33 Co 0.79736 0.87594 0.10002 0.0
O34 O 0.75772 0.86305 0.09621 0.0
C35 C 0.81663 0.87746 0.1879 0.0
C36 C 0.77369 0.95788 0.2059 0.0
C37 C 0.73945 0.86868 0.12418 0.0
O38 O 0.79714 0.89549 0.1977 0.0
O39 O 0.82119 0.86932 0.15043 0.0
O40 O 0.75286 0.94168 0.11654 0.0
O41 O 0.7902 0.91512 0.11066 0.0
Co42 Co 0.1019 0.77104 0.16154 0.0
O43 O 0.06844 0.79192 0.17749 0.0
O44 O 0.08323 0.7534 0.20911 0.0
C45 C 0.09215 0.77069 0.09227 0.0
O46 O 0.13464 0.74297 0.15296 0.0
Co47 Co 0.14639 0.79672 0.10057 0.0
O48 O 0.15937 0.75713 0.09682 0.0
C49 C 0.14441 0.81604 0.18835 0.0
C50 C 0.06412 0.77296 0.20587 0.0
C51 C 0.15365 0.73883 0.12468 0.0
O52 O 0.12652 0.79641 0.19803 0.0
O53 O 0.15261 0.82069 0.15093 0.0
O54 O 0.08059 0.75209 0.1166 0.0
O55 O 0.10716 0.78942 0.11085 0.0
Co56 Co 0.25041 0.92052 0.34271 0.0
O57 O 0.22939 0.95385 0.3266 0.0
O58 O 0.26796 0.93911 0.29501 0.0
C59 C 0.25079 0.93044 0.41192 0.0
O60 O 0.27865 0.88793 0.35137 0.0
Co61 Co 0.22511 0.8761 0.40411 0.0
O62 O 0.26482 0.86344 0.40789 0.0
C63 C 0.20573 0.87753 0.31626 0.0
C64 C 0.24835 0.95816 0.29819 0.0
C65 C 0.283 0.86911 0.37981 0.0
O66 O 0.22507 0.8957 0.30642 0.0
O67 O 0.2013 0.86933 0.35374 0.0
O68 O 0.26934 0.94199 0.38749 0.0
O69 O 0.2321 0.91531 0.39347 0.0
Co70 Co 0.10154 0.25053 0.34252 0.0
O71 O 0.06811 0.22958 0.32664 0.0
O72 O 0.08283 0.2681 0.29495 0.0
C73 C 0.09185 0.25094 0.4118 0.0
O74 O 0.13423 0.27868 0.35099 0.0
Co75 Co 0.14613 0.22504 0.40352 0.0
O76 O 0.15895 0.26469 0.40723 0.0
C77 C 0.14419 0.20564 0.31576 0.0
C78 C 0.06375 0.24852 0.29824 0.0
C79 C 0.1532 0.28293 0.3793 0.0
O80 O 0.1262 0.22518 0.30605 0.0
O81 O 0.15244 0.20108 0.35318 0.0
O82 O 0.08023 0.26949 0.38745 0.0
O83 O 0.10688 0.23222 0.39324 0.0
Co84 Co 0.77172 0.10116 0.34267 0.0
O85 O 0.79262 0.06775 0.32661 0.0
O86 O 0.75401 0.08251 0.29513 0.0
C87 C 0.77147 0.09138 0.41192 0.0
O88 O 0.74362 0.13386 0.35138 0.0
Co89 Co 0.7975 0.14557 0.40366 0.0
O90 O 0.75789 0.15857 0.40746 0.0
C91 C 0.81663 0.14375 0.31576 0.0
C92 C 0.7736 0.06343 0.29829 0.0
C93 C 0.73954 0.15287 0.37965 0.0
O94 O 0.79702 0.12582 0.30612 0.0
O95 O 0.82134 0.15189 0.35319 0.0
O96 O 0.75283 0.07983 0.38764 0.0
O97 O 0.79018 0.10639 0.3933 0.0
Co98 Co 0.9207 0.77116 0.34254 0.0
O99 O 0.95414 0.79204 0.32648 0.0
O100 O 0.93932 0.75351 0.29494 0.0
C101 C 0.93053 0.77083 0.41177 0.0
O102 O 0.88798 0.74307 0.35119 0.0
Co103 Co 0.87625 0.79676 0.40366 0.0
O104 O 0.86337 0.75714 0.40749 0.0
C105 C 0.87802 0.81605 0.31582 0.0
C106 C 0.95843 0.77306 0.29812 0.0
C107 C 0.86905 0.73888 0.37956 0.0
O108 O 0.89601 0.79651 0.30609 0.0
O109 O 0.86983 0.82064 0.35326 0.0
O110 O 0.94206 0.75223 0.38742 0.0
O111 O 0.91548 0.78954 0.39323 0.0
Co112 Co 0.77214 0.92057 0.8426 0.0
O113 O 0.79311 0.95394 0.82652 0.0
O114 O 0.75455 0.93916 0.79493 0.0
C115 C 0.77177 0.93049 0.91181 0.0
O116 O 0.74397 0.88793 0.85128 0.0
Co117 Co 0.79759 0.8762 0.90394 0.0
O118 O 0.75791 0.86344 0.90774 0.0
C119 C 0.81693 0.87773 0.81609 0.0
C120 C 0.77414 0.95823 0.79812 0.0
C121 C 0.73969 0.86908 0.87971 0.0
O122 O 0.7975 0.89582 0.80628 0.0
O123 O 0.82143 0.86954 0.85356 0.0
O124 O 0.75318 0.942 0.8874 0.0
O125 O 0.79048 0.9154 0.89334 0.0
Co126 Co 0.10189 0.77122 0.84264 0.0
O127 O 0.06844 0.7921 0.82662 0.0
O128 O 0.08327 0.75359 0.79502 0.0
C129 C 0.09207 0.77084 0.91189 0.0
O130 O 0.13461 0.74313 0.85127 0.0
Co131 Co 0.14632 0.79684 0.90376 0.0
O132 O 0.15924 0.75723 0.90754 0.0
C133 C 0.14452 0.81615 0.81595 0.0
C134 C 0.06415 0.77314 0.79823 0.0
C135 C 0.15356 0.73896 0.87962 0.0
O136 O 0.12656 0.79659 0.80622 0.0
O137 O 0.1527 0.82075 0.8534 0.0
O138 O 0.08053 0.75225 0.88751 0.0
O139 O 0.1071 0.78957 0.89336 0.0
Co140 Co 0.25074 0.10139 0.84255 0.0
O141 O 0.22975 0.06803 0.82651 0.0
O142 O 0.26834 0.08274 0.79494 0.0
C143 C 0.25105 0.09155 0.91179 0.0
O144 O 0.27894 0.13401 0.85117 0.0
Co145 Co 0.2253 0.14586 0.90374 0.0
O146 O 0.26498 0.15864 0.90749 0.0
C147 C 0.20596 0.1442 0.8159 0.0
C148 C 0.24874 0.06368 0.79813 0.0
C149 C 0.28321 0.15293 0.87951 0.0
O150 O 0.22542 0.12613 0.80613 0.0
O151 O 0.20144 0.1524 0.85335 0.0
O152 O 0.26964 0.07999 0.88743 0.0
O153 O 0.23238 0.10664 0.89325 0.0
Co154 Co 0.92102 0.25052 0.84275 0.0
O155 O 0.95446 0.22965 0.82667 0.0
O156 O 0.93962 0.26819 0.79515 0.0
C157 C 0.93084 0.25083 0.91198 0.0
O158 O 0.88829 0.2786 0.85144 0.0
Co159 Co 0.8766 0.22486 0.90384 0.0
O160 O 0.86366 0.26446 0.90768 0.0
C161 C 0.87839 0.20561 0.81599 0.0
C162 C 0.95874 0.24864 0.79831 0.0
C163 C 0.86934 0.28275 0.87979 0.0
O164 O 0.89634 0.22518 0.80628 0.0
O165 O 0.87021 0.20098 0.85343 0.0
O166 O 0.94238 0.26945 0.88765 0.0
O167 O 0.91582 0.23212 0.89341 0.0
Co168 Co 0.77205 0.10156 0.66152 0.0
O169 O 0.79304 0.06818 0.67752 0.0
O170 O 0.75451 0.08294 0.7092 0.0
C171 C 0.77162 0.09169 0.5923 0.0
O172 O 0.74386 0.1342 0.65296 0.0
Co173 Co 0.79745 0.14599 0.60024 0.0
O174 O 0.75776 0.15877 0.59655 0.0
C175 C 0.81689 0.14436 0.68803 0.0
C176 C 0.77409 0.06387 0.70595 0.0
C177 C 0.73956 0.15309 0.62458 0.0
O178 O 0.79745 0.12628 0.69784 0.0
O179 O 0.82136 0.15257 0.65057 0.0
O180 O 0.75306 0.08016 0.61674 0.0
O181 O 0.79035 0.10678 0.61075 0.0
Co182 Co 0.92079 0.77126 0.66141 0.0
O183 O 0.95425 0.79213 0.67742 0.0
O184 O 0.93941 0.75362 0.70902 0.0
C185 C 0.93058 0.77089 0.59216 0.0
O186 O 0.88804 0.7432 0.65279 0.0
Co187 Co 0.87635 0.79693 0.60034 0.0
O188 O 0.86336 0.75734 0.5966 0.0
C189 C 0.87822 0.81625 0.68814 0.0
C190 C 0.95853 0.77316 0.70581 0.0
C191 C 0.86906 0.73905 0.62448 0.0
O192 O 0.89614 0.79665 0.69786 0.0
O193 O 0.87004 0.82087 0.65071 0.0
O194 O 0.94211 0.75229 0.61652 0.0
O195 O 0.91557 0.78963 0.61071 0.0
Co196 Co 0.25079 0.92034 0.66154 0.0
O197 O 0.22977 0.95369 0.6776 0.0
O198 O 0.26836 0.93899 0.70918 0.0
C199 C 0.2511 0.93022 0.59231 0.0
O200 O 0.27904 0.88775 0.65293 0.0
Co201 Co 0.22547 0.87586 0.60028 0.0
O202 O 0.26518 0.86315 0.59653 0.0
C203 C 0.20606 0.87747 0.68809 0.0
C204 C 0.24875 0.95803 0.70598 0.0
C205 C 0.28337 0.86887 0.62456 0.0
O206 O 0.22547 0.89557 0.69791 0.0
O207 O 0.2016 0.86925 0.65063 0.0
O208 O 0.26968 0.94178 0.61668 0.0
O209 O 0.23245 0.91509 0.61082 0.0
Co210 Co 0.10206 0.25073 0.66144 0.0
O211 O 0.06865 0.22979 0.67743 0.0
O212 O 0.08342 0.2683 0.70908 0.0
C213 C 0.09224 0.25112 0.5922 0.0
O214 O 0.13474 0.27889 0.65289 0.0
Co215 Co 0.14657 0.2253 0.60028 0.0
O216 O 0.1594 0.26494 0.59657 0.0
C217 C 0.14476 0.20584 0.68804 0.0
C218 C 0.06433 0.24873 0.70585 0.0
C219 C 0.15367 0.28316 0.62456 0.0
O220 O 0.12677 0.22536 0.69782 0.0
O221 O 0.15298 0.20133 0.65059 0.0
O222 O 0.08068 0.26968 0.61659 0.0
O223 O 0.10732 0.23242 0.61071 0.0
Co224 Co 0.75094 0.60127 0.66158 0.0
O225 O 0.73006 0.56788 0.67771 0.0
O226 O 0.76867 0.58267 0.70914 0.0
C227 C 0.75116 0.59142 0.59235 0.0
O228 O 0.77903 0.63397 0.6528 0.0
Co229 Co 0.72517 0.64563 0.6005 0.0
O230 O 0.76478 0.65863 0.59666 0.0
C231 C 0.70605 0.6439 0.68842 0.0
C232 C 0.74909 0.56358 0.70603 0.0
C233 C 0.78313 0.65295 0.6245 0.0
O234 O 0.72565 0.62596 0.69809 0.0
O235 O 0.70136 0.65203 0.65098 0.0
O236 O 0.76982 0.57991 0.61664 0.0
O237 O 0.73246 0.60645 0.61095 0.0
Co238 Co 0.42113 0.75068 0.66166 0.0
O239 O 0.45456 0.72974 0.67758 0.0
O240 O 0.43983 0.76828 0.70922 0.0
C241 C 0.43084 0.75104 0.59239 0.0
O242 O 0.38842 0.7788 0.65312 0.0
Co243 Co 0.37658 0.72509 0.60069 0.0
O244 O 0.3637 0.76472 0.59693 0.0
C245 C 0.37851 0.70577 0.68848 0.0
C246 C 0.45892 0.7487 0.70596 0.0
C247 C 0.36945 0.78299 0.62481 0.0
O248 O 0.39647 0.72534 0.69816 0.0
O249 O 0.37029 0.70116 0.65106 0.0
O250 O 0.44244 0.76961 0.61672 0.0
O251 O 0.41582 0.73232 0.61097 0.0
Co252 Co 0.2721 0.42069 0.6615 0.0
O253 O 0.29308 0.45407 0.67748 0.0
O254 O 0.25452 0.43936 0.70912 0.0
C255 C 0.27171 0.43047 0.59224 0.0
O256 O 0.2439 0.38806 0.65293 0.0
Co257 Co 0.29755 0.37621 0.60035 0.0
O258 O 0.25787 0.36342 0.59661 0.0
C259 C 0.31692 0.37792 0.68816 0.0
C260 C 0.27412 0.45842 0.70588 0.0
C261 C 0.23964 0.36914 0.62459 0.0
O262 O 0.29745 0.39598 0.69791 0.0
O263 O 0.32145 0.36971 0.65072 0.0
O264 O 0.25315 0.44206 0.61661 0.0
O265 O 0.29042 0.41542 0.61077 0.0
Co266 Co 0.60197 0.27145 0.66168 0.0
O267 O 0.56856 0.29239 0.67771 0.0
O268 O 0.58335 0.25387 0.70933 0.0
C269 C 0.59213 0.27105 0.59245 0.0
O270 O 0.63465 0.24331 0.65309 0.0
Co271 Co 0.64644 0.29691 0.60048 0.0
O272 O 0.65926 0.25727 0.59673 0.0
C273 C 0.64474 0.31628 0.68828 0.0
C274 C 0.56425 0.27344 0.70611 0.0
C275 C 0.65357 0.23905 0.62472 0.0
O276 O 0.6267 0.29681 0.69806 0.0
O277 O 0.65295 0.32081 0.65083 0.0
O278 O 0.58058 0.25249 0.61685 0.0
O279 O 0.6072 0.28977 0.61094 0.0
Co280 Co 0.75102 0.42036 0.84288 0.0
O281 O 0.73011 0.45375 0.82677 0.0
O282 O 0.76869 0.43895 0.79526 0.0
C283 C 0.7513 0.43026 0.91209 0.0
O284 O 0.77915 0.38769 0.85159 0.0
Co285 Co 0.72543 0.37599 0.90407 0.0
O286 O 0.76507 0.36309 0.90788 0.0
C287 C 0.70615 0.37767 0.81621 0.0
C288 C 0.74911 0.45804 0.79841 0.0
C289 C 0.78335 0.36877 0.87995 0.0
O290 O 0.72568 0.39566 0.80646 0.0
O291 O 0.70156 0.3695 0.85367 0.0
O292 O 0.76994 0.44176 0.88775 0.0
O293 O 0.7326 0.41518 0.89355 0.0
Co294 Co 0.60227 0.75055 0.84273 0.0
O295 O 0.56887 0.72961 0.82663 0.0
O296 O 0.58371 0.76812 0.79502 0.0
C297 C 0.5923 0.75095 0.91191 0.0
O298 O 0.63492 0.77871 0.85137 0.0
Co299 Co 0.64667 0.72522 0.90411 0.0
O300 O 0.65943 0.76487 0.90788 0.0
C301 C 0.64511 0.70575 0.81633 0.0
C302 C 0.5646 0.74856 0.79821 0.0
C303 C 0.65377 0.78304 0.87981 0.0
O304 O 0.62703 0.72517 0.80646 0.0
O305 O 0.65332 0.70131 0.85381 0.0
O306 O 0.58081 0.76952 0.88747 0.0
O307 O 0.60743 0.73224 0.89349 0.0
Co308 Co 0.27219 0.60162 0.84278 0.0
O309 O 0.29317 0.56826 0.82665 0.0
O310 O 0.25462 0.58306 0.79507 0.0
C311 C 0.27182 0.59165 0.91198 0.0
O312 O 0.24399 0.63423 0.85146 0.0
Co313 Co 0.29755 0.64598 0.90419 0.0
O314 O 0.25786 0.65874 0.90794 0.0
C315 C 0.31696 0.6445 0.81637 0.0
C316 C 0.27421 0.56399 0.79823 0.0
C317 C 0.23967 0.65308 0.87988 0.0
O318 O 0.29756 0.6264 0.80651 0.0
O319 O 0.32141 0.65269 0.85385 0.0
O320 O 0.25324 0.58015 0.88754 0.0
O321 O 0.29052 0.60677 0.89354 0.0
Co322 Co 0.42078 0.27137 0.84267 0.0
O323 O 0.45421 0.29231 0.82676 0.0
O324 O 0.43945 0.25383 0.79503 0.0
C325 C 0.43055 0.27091 0.91192 0.0
O326 O 0.38808 0.24322 0.85114 0.0
Co327 Co 0.37625 0.2968 0.9038 0.0
O328 O 0.36343 0.25716 0.90747 0.0
C329 C 0.3781 0.31629 0.81606 0.0
C330 C 0.45854 0.27339 0.79832 0.0
C331 C 0.36915 0.23895 0.87948 0.0
O332 O 0.39611 0.29678 0.80629 0.0
O333 O 0.36986 0.32079 0.85351 0.0
O334 O 0.44212 0.25237 0.88752 0.0
O335 O 0.4155 0.28965 0.89343 0.0
Co336 Co 0.27187 0.42027 0.3426 0.0
O337 O 0.29292 0.45361 0.32659 0.0
O338 O 0.25435 0.43893 0.29494 0.0
C339 C 0.27151 0.43012 0.41183 0.0
O340 O 0.2436 0.38769 0.35114 0.0
Co341 Co 0.29712 0.37575 0.40389 0.0
O342 O 0.2574 0.36309 0.40758 0.0
C343 C 0.3166 0.37736 0.31611 0.0
C344 C 0.27397 0.45797 0.29818 0.0
C345 C 0.23923 0.36882 0.37952 0.0
O346 O 0.29722 0.39549 0.30627 0.0
O347 O 0.32102 0.36913 0.35357 0.0
O348 O 0.25296 0.44171 0.38743 0.0
O349 O 0.29017 0.41499 0.39335 0.0
Co350 Co 0.6019 0.27122 0.34281 0.0
O351 O 0.56844 0.29208 0.32678 0.0
O352 O 0.58328 0.25356 0.29522 0.0
C353 C 0.5921 0.27089 0.41206 0.0
O354 O 0.63464 0.24314 0.35144 0.0
Co355 Co 0.64636 0.29687 0.40386 0.0
O356 O 0.65933 0.25727 0.40761 0.0
C357 C 0.64447 0.31619 0.31606 0.0
C358 C 0.56415 0.2731 0.29841 0.0
C359 C 0.65362 0.23898 0.37973 0.0
O360 O 0.62655 0.29659 0.30634 0.0
O361 O 0.65266 0.3208 0.35349 0.0
O362 O 0.58057 0.25228 0.38773 0.0
O363 O 0.60713 0.28961 0.39349 0.0
Co364 Co 0.75044 0.60153 0.3428 0.0
O365 O 0.72944 0.56818 0.32673 0.0
O366 O 0.76798 0.58296 0.29508 0.0
C367 C 0.75086 0.59158 0.41199 0.0
O368 O 0.77864 0.63415 0.35143 0.0
Co369 Co 0.72511 0.64591 0.40421 0.0
O370 O 0.7648 0.65864 0.40794 0.0
C371 C 0.70569 0.64446 0.31639 0.0
C372 C 0.74839 0.56389 0.29829 0.0
C373 C 0.78298 0.65299 0.37986 0.0
O374 O 0.72506 0.62631 0.30654 0.0
O375 O 0.70127 0.65267 0.35386 0.0
O376 O 0.76942 0.58008 0.38753 0.0
O377 O 0.73214 0.6067 0.39359 0.0
Co378 Co 0.4206 0.75079 0.34277 0.0
O379 O 0.45403 0.72987 0.32677 0.0
O380 O 0.43923 0.76838 0.29514 0.0
C381 C 0.43044 0.75117 0.412 0.0
O382 O 0.38791 0.77891 0.35134 0.0
Co383 Co 0.37612 0.72531 0.40392 0.0
O384 O 0.3633 0.76495 0.40769 0.0
C385 C 0.37793 0.70588 0.31615 0.0
C386 C 0.45833 0.74882 0.29836 0.0
C387 C 0.369 0.78317 0.37971 0.0
O388 O 0.39592 0.7254 0.30638 0.0
O389 O 0.36971 0.70135 0.35359 0.0
O390 O 0.44198 0.76975 0.38762 0.0
O391 O 0.41537 0.73246 0.3935 0.0
Co392 Co 0.27211 0.60132 0.16158 0.0
O393 O 0.29307 0.56795 0.17768 0.0
O394 O 0.25448 0.5827 0.2092 0.0
C395 C 0.27181 0.59143 0.09235 0.0
O396 O 0.24393 0.63395 0.15288 0.0
Co397 Co 0.29762 0.64572 0.10035 0.0
O398 O 0.25795 0.65856 0.09658 0.0
C399 C 0.31688 0.64414 0.18822 0.0
C400 C 0.27408 0.56363 0.20604 0.0
C401 C 0.2397 0.65287 0.12453 0.0
O402 O 0.29742 0.62607 0.19798 0.0
O403 O 0.32143 0.65231 0.15077 0.0
O404 O 0.2532 0.5799 0.11671 0.0
O405 O 0.2905 0.60652 0.11088 0.0
Co406 Co 0.42078 0.27108 0.16158 0.0
O407 O 0.45422 0.29199 0.17758 0.0
O408 O 0.43944 0.25346 0.20917 0.0
C409 C 0.43057 0.27075 0.09232 0.0
O410 O 0.38808 0.24297 0.15298 0.0
Co411 Co 0.37629 0.29666 0.10052 0.0
O412 O 0.36339 0.25705 0.09676 0.0
C413 C 0.37816 0.316 0.18831 0.0
C414 C 0.45854 0.27302 0.20597 0.0
C415 C 0.36911 0.23878 0.12467 0.0
O416 O 0.39611 0.29643 0.19804 0.0
O417 O 0.36997 0.3206 0.15087 0.0
O418 O 0.44213 0.25216 0.11666 0.0
O419 O 0.41553 0.28945 0.11089 0.0
Co420 Co 0.7505 0.42059 0.16166 0.0
O421 O 0.7295 0.45394 0.1777 0.0
O422 O 0.76805 0.4392 0.20935 0.0
C423 C 0.75092 0.43049 0.09245 0.0
O424 O 0.77871 0.38797 0.15305 0.0
Co425 Co 0.72513 0.37618 0.10032 0.0
O426 O 0.76483 0.36347 0.09656 0.0
C427 C 0.70574 0.37771 0.18815 0.0
C428 C 0.74845 0.45826 0.20612 0.0
C429 C 0.78303 0.36913 0.12461 0.0
O430 O 0.72514 0.39583 0.19797 0.0
O431 O 0.70127 0.36951 0.15068 0.0
O432 O 0.76948 0.44203 0.11689 0.0
O433 O 0.7322 0.41539 0.1109 0.0
Co434 Co 0.60165 0.75061 0.1615 0.0
O435 O 0.56819 0.72978 0.17758 0.0
O436 O 0.58305 0.76833 0.20907 0.0
C437 C 0.59184 0.7509 0.09227 0.0
O438 O 0.6344 0.77864 0.15277 0.0
Co439 Co 0.64604 0.7248 0.10051 0.0
O440 O 0.65907 0.76437 0.09664 0.0
C441 C 0.64417 0.70564 0.18838 0.0
C442 C 0.56392 0.74878 0.20592 0.0
C443 C 0.65339 0.78272 0.12445 0.0
O444 O 0.62629 0.72528 0.19802 0.0
O445 O 0.65233 0.70093 0.15095 0.0
O446 O 0.58032 0.76954 0.11657 0.0
O447 O 0.60683 0.73217 0.11086 0.0
C448 C 0.34436 0.19853 0.162 0.0
C449 C 0.3514 0.21283 0.1249 0.0
H450 H 0.31707 0.16803 0.19126 0.0
C451 C 0.33854 0.20418 0.08752 0.0
H452 H 0.35385 0.2047 0.19134 0.0
C453 C 0.31774 0.18343 0.08747 0.0
C454 C 0.30901 0.17056 0.1248 0.0
H455 H 0.34375 0.21432 0.05823 0.0
H456 H 0.30761 0.17828 0.05814 0.0
C457 C 0.3233 0.17753 0.16195 0.0
C458 C 0.84419 0.32325 0.16205 0.0
C459 C 0.85128 0.30908 0.12486 0.0
H460 H 0.8169 0.35369 0.19143 0.0
C461 C 0.83855 0.31793 0.08748 0.0
H462 H 0.85358 0.31693 0.19138 0.0
C463 C 0.8178 0.33874 0.08751 0.0
C464 C 0.80901 0.35147 0.12491 0.0
H465 H 0.84381 0.3079 0.05813 0.0
H466 H 0.80776 0.34404 0.05817 0.0
C467 C 0.82319 0.34431 0.16208 0.0
C468 C 0.68424 0.81704 0.08725 0.0
C469 C 0.67116 0.80863 0.12458 0.0
H470 H 0.71532 0.84278 0.0579 0.0
C471 C 0.67797 0.82317 0.16156 0.0
H472 H 0.67922 0.80672 0.05803 0.0
C473 C 0.69901 0.84419 0.1615 0.0
C474 C 0.71351 0.85094 0.12444 0.0
H475 H 0.6683 0.81719 0.19086 0.0
H476 H 0.70504 0.85389 0.19074 0.0
C477 C 0.70503 0.83781 0.08718 0.0
C478 C 0.20516 0.68359 0.08751 0.0
C479 C 0.21373 0.67057 0.1248 0.0
H480 H 0.17929 0.71461 0.05828 0.0
C481 C 0.19931 0.67743 0.16189 0.0
H482 H 0.21539 0.67853 0.05821 0.0
C483 C 0.17827 0.69845 0.16193 0.0
C484 C 0.17138 0.71289 0.12488 0.0
H485 H 0.20541 0.66782 0.19117 0.0
H486 H 0.16867 0.70453 0.19124 0.0
C487 C 0.18437 0.70436 0.08754 0.0
C488 C 0.31777 0.83866 0.41685 0.0
C489 C 0.309 0.85146 0.37949 0.0
H490 H 0.34378 0.80778 0.44614 0.0
C491 C 0.32323 0.84441 0.34233 0.0
H492 H 0.30768 0.84388 0.44619 0.0
C493 C 0.34426 0.82339 0.3423 0.0
C494 C 0.35133 0.80914 0.37943 0.0
H495 H 0.31697 0.85386 0.313 0.0
H496 H 0.3537 0.81714 0.31296 0.0
C497 C 0.33854 0.81788 0.41682 0.0
C498 C 0.19902 0.34414 0.34195 0.0
C499 C 0.21321 0.3512 0.37914 0.0
H500 H 0.16857 0.31687 0.31253 0.0
C501 C 0.20439 0.33843 0.41649 0.0
H502 H 0.20532 0.35357 0.31263 0.0
C503 C 0.1836 0.31766 0.41644 0.0
C504 C 0.17085 0.30891 0.37903 0.0
H505 H 0.21445 0.34365 0.44585 0.0
H506 H 0.17833 0.30758 0.44575 0.0
C507 C 0.17797 0.32313 0.34189 0.0
C508 C 0.7052 0.18376 0.41677 0.0
C509 C 0.71361 0.17064 0.37947 0.0
H510 H 0.67949 0.21488 0.44605 0.0
C511 C 0.69909 0.17745 0.34246 0.0
H512 H 0.71551 0.17874 0.44601 0.0
C513 C 0.67809 0.19852 0.34248 0.0
C514 C 0.67135 0.21304 0.37951 0.0
H515 H 0.70508 0.16776 0.31318 0.0
H516 H 0.6684 0.20454 0.31322 0.0
C517 C 0.68446 0.20457 0.41679 0.0
C518 C 0.82325 0.67761 0.34235 0.0
C519 C 0.80897 0.67065 0.37951 0.0
H520 H 0.85379 0.70477 0.31293 0.0
C521 C 0.81769 0.68355 0.41683 0.0
H522 H 0.81703 0.66809 0.31306 0.0
C523 C 0.83849 0.7043 0.41675 0.0
C524 C 0.85134 0.71293 0.37936 0.0
H525 H 0.80756 0.67841 0.44617 0.0
H526 H 0.84369 0.71446 0.44604 0.0
C527 C 0.84431 0.69861 0.34228 0.0
C528 C 0.69947 0.84432 0.84231 0.0
C529 C 0.71372 0.85139 0.87944 0.0
H530 H 0.669 0.81702 0.81301 0.0
C531 C 0.70501 0.83858 0.91682 0.0
H532 H 0.70569 0.85377 0.81297 0.0
C533 C 0.68425 0.81778 0.91685 0.0
C534 C 0.67143 0.80902 0.87949 0.0
H535 H 0.71512 0.84381 0.94614 0.0
H536 H 0.67906 0.80768 0.94618 0.0
C537 C 0.67846 0.82327 0.84233 0.0
C538 C 0.18418 0.70441 0.91679 0.0
C539 C 0.17129 0.71302 0.87941 0.0
H540 H 0.21514 0.67855 0.94619 0.0
C541 C 0.1783 0.69868 0.84234 0.0
H542 H 0.179 0.71459 0.94607 0.0
C543 C 0.19936 0.67768 0.8424 0.0
C544 C 0.21368 0.67075 0.87954 0.0
H545 H 0.16878 0.70482 0.813 0.0
H546 H 0.20556 0.66814 0.81311 0.0
C547 C 0.20499 0.68366 0.91686 0.0
C548 C 0.33867 0.20424 0.91655 0.0
C549 C 0.35149 0.21296 0.87918 0.0
H550 H 0.3078 0.17824 0.94589 0.0
C551 C 0.34446 0.19869 0.84205 0.0
H552 H 0.34387 0.21435 0.94587 0.0
C553 C 0.32345 0.17765 0.84206 0.0
C554 C 0.30919 0.1706 0.87921 0.0
H555 H 0.35393 0.20493 0.81272 0.0
H556 H 0.31722 0.16818 0.81274 0.0
C557 C 0.31791 0.18344 0.91656 0.0
C558 C 0.84475 0.32316 0.84258 0.0
C559 C 0.85161 0.30869 0.87961 0.0
H560 H 0.81766 0.35383 0.81334 0.0
C561 C 0.8386 0.3172 0.91694 0.0
H562 H 0.85437 0.3171 0.81327 0.0
C563 C 0.81783 0.33799 0.91698 0.0
C564 C 0.8093 0.35104 0.87969 0.0
H565 H 0.84366 0.30693 0.9462 0.0
H566 H 0.80758 0.34303 0.94627 0.0
C567 C 0.82373 0.34419 0.84262 0.0
C568 C 0.67829 0.19881 0.6621 0.0
C569 C 0.67125 0.21308 0.62498 0.0
H570 H 0.70556 0.16831 0.69139 0.0
C571 C 0.68407 0.20438 0.5876 0.0
H572 H 0.66883 0.20503 0.69144 0.0
C573 C 0.70485 0.1836 0.58757 0.0
C574 C 0.71358 0.17076 0.62492 0.0
H575 H 0.67886 0.2145 0.55829 0.0
H576 H 0.71495 0.17841 0.55824 0.0
C577 C 0.69933 0.17778 0.66207 0.0
C578 C 0.81746 0.68386 0.5874 0.0
C579 C 0.80905 0.67073 0.62469 0.0
H580 H 0.84318 0.71498 0.55815 0.0
C581 C 0.82357 0.67752 0.6617 0.0
H582 H 0.80715 0.67885 0.55815 0.0
C583 C 0.84457 0.69858 0.6617 0.0
C584 C 0.85132 0.71312 0.62468 0.0
H585 H 0.81759 0.66782 0.69097 0.0
H586 H 0.85427 0.70459 0.69097 0.0
C587 C 0.83821 0.70466 0.5874 0.0
C588 C 0.31811 0.83836 0.58758 0.0
C589 C 0.30938 0.85124 0.6249 0.0
H590 H 0.34412 0.80745 0.55836 0.0
C591 C 0.32366 0.84427 0.66206 0.0
H592 H 0.30799 0.8435 0.55824 0.0
C593 C 0.34472 0.82326 0.66212 0.0
C594 C 0.35176 0.80895 0.62503 0.0
H595 H 0.31743 0.85377 0.69136 0.0
H596 H 0.3542 0.81709 0.69147 0.0
C597 C 0.33891 0.8176 0.58764 0.0
C598 C 0.17836 0.3234 0.662 0.0
C599 C 0.17134 0.30913 0.62486 0.0
H600 H 0.2056 0.3539 0.69134 0.0
C601 C 0.18417 0.31786 0.5875 0.0
H602 H 0.16888 0.31717 0.69132 0.0
C603 C 0.20494 0.33865 0.58751 0.0
C604 C 0.21365 0.35148 0.62488 0.0
H605 H 0.17898 0.30774 0.55818 0.0
H606 H 0.21506 0.34385 0.55819 0.0
C607 C 0.19938 0.34444 0.66201 0.0
C608 C 0.22968 0.10274 0.02359 0.0
C609 C 0.25167 0.09008 0.04608 0.0
H610 H 0.21232 0.11288 0.96436 0.0
C611 C 0.27371 0.07698 0.02401 0.0
H612 H 0.21225 0.11288 0.03943 0.0
C613 C 0.27376 0.07698 0.98007 0.0
C614 C 0.25176 0.09008 0.9579 0.0
H615 H 0.29094 0.06706 0.04058 0.0
H616 H 0.29102 0.06705 0.96357 0.0
C617 C 0.22972 0.10274 0.98028 0.0
C618 C 0.91972 0.22947 0.98046 0.0
C619 C 0.93223 0.25158 0.95809 0.0
H620 H 0.90954 0.21201 0.03961 0.0
C621 C 0.94508 0.27371 0.98027 0.0
H622 H 0.90978 0.21197 0.96453 0.0
C623 C 0.94495 0.27373 0.0242 0.0
C624 C 0.93196 0.25162 0.04626 0.0
H625 H 0.95489 0.29103 0.96377 0.0
H626 H 0.95466 0.29107 0.04079 0.0
C627 C 0.91958 0.22949 0.02377 0.0
C628 C 0.79312 0.91955 0.98037 0.0
C629 C 0.77099 0.93197 0.9579 0.0
H630 H 0.81055 0.9095 0.03958 0.0
C631 C 0.74879 0.94479 0.97999 0.0
H632 H 0.81067 0.90963 0.96451 0.0
C633 C 0.74872 0.94472 0.02393 0.0
C634 C 0.77085 0.93182 0.04608 0.0
H635 H 0.73145 0.95454 0.96343 0.0
H636 H 0.73133 0.95441 0.04044 0.0
C637 C 0.79305 0.91947 0.02367 0.0
C638 C 0.07761 0.748 0.98009 0.0
C639 C 0.09066 0.77005 0.95799 0.0
H640 H 0.06772 0.73071 0.04054 0.0
C641 C 0.10332 0.79204 0.98045 0.0
H642 H 0.06768 0.73077 0.96353 0.0
C643 C 0.10335 0.792 0.02376 0.0
C644 C 0.09071 0.76997 0.04617 0.0
H645 H 0.11344 0.80946 0.96459 0.0
H646 H 0.11349 0.80939 0.03967 0.0
C647 C 0.07763 0.74796 0.02402 0.0
C648 C 0.27366 0.94498 0.4801 0.0
C649 C 0.25161 0.93188 0.45803 0.0
H650 H 0.291 0.95484 0.54054 0.0
C651 C 0.22965 0.91918 0.48051 0.0
H652 H 0.29086 0.95494 0.46352 0.0
C653 C 0.22973 0.91912 0.52382 0.0
C654 C 0.25177 0.93176 0.54621 0.0
H655 H 0.21222 0.90904 0.46467 0.0
H656 H 0.21236 0.90893 0.53973 0.0
C657 C 0.27374 0.94492 0.52404 0.0
C658 C 0.0775 0.27378 0.52399 0.0
C659 C 0.09074 0.25185 0.5461 0.0
H660 H 0.06735 0.29091 0.46352 0.0
C661 C 0.10345 0.22989 0.52365 0.0
H662 H 0.06753 0.29099 0.54054 0.0
C663 C 0.10335 0.22984 0.48034 0.0
C664 C 0.09053 0.25175 0.45792 0.0
H665 H 0.11371 0.21254 0.53952 0.0
H666 H 0.11353 0.21246 0.46445 0.0
C667 C 0.0774 0.27374 0.48005 0.0
C668 C 0.74877 0.07707 0.52418 0.0
C669 C 0.77084 0.09017 0.54621 0.0
H670 H 0.73146 0.06706 0.46377 0.0
C671 C 0.79285 0.10275 0.52369 0.0
H672 H 0.73153 0.0672 0.54078 0.0
C673 C 0.79282 0.10266 0.48038 0.0
C674 C 0.77077 0.09 0.45803 0.0
H675 H 0.81029 0.11289 0.5395 0.0
H676 H 0.81024 0.11275 0.46442 0.0
C677 C 0.74874 0.07699 0.48024 0.0
C678 C 0.94507 0.74809 0.52394 0.0
C679 C 0.93199 0.77012 0.54606 0.0
H680 H 0.95498 0.73084 0.46348 0.0
C681 C 0.91933 0.79212 0.52361 0.0
H682 H 0.955 0.73086 0.54049 0.0
C683 C 0.91932 0.7921 0.4803 0.0
C684 C 0.93197 0.77009 0.45788 0.0
H685 H 0.9092 0.80953 0.53949 0.0
H686 H 0.90918 0.80951 0.46441 0.0
C687 C 0.94506 0.74808 0.48001 0.0
C688 C 0.72958 0.60231 0.52393 0.0
C689 C 0.7518 0.58993 0.54625 0.0
H690 H 0.71195 0.6123 0.46481 0.0
C691 C 0.77393 0.57711 0.52403 0.0
H692 H 0.71207 0.61223 0.5399 0.0
C693 C 0.77386 0.57715 0.48009 0.0
C694 C 0.75165 0.59001 0.45808 0.0
H695 H 0.79134 0.56739 0.54048 0.0
H696 H 0.79121 0.56746 0.46347 0.0
C697 C 0.72951 0.60235 0.48062 0.0
C698 C 0.44513 0.77387 0.48019 0.0
C699 C 0.43195 0.7519 0.4581 0.0
H700 H 0.45524 0.79104 0.54064 0.0
C701 C 0.4193 0.72991 0.48056 0.0
H702 H 0.45506 0.7911 0.46363 0.0
C703 C 0.41941 0.72987 0.52387 0.0
C704 C 0.43217 0.75182 0.54628 0.0
H705 H 0.40909 0.71253 0.4647 0.0
H706 H 0.40928 0.71247 0.53977 0.0
C707 C 0.44524 0.77384 0.52413 0.0
C708 C 0.29272 0.41884 0.48038 0.0
C709 C 0.27078 0.43163 0.45794 0.0
H710 H 0.31013 0.40869 0.53956 0.0
C711 C 0.24888 0.44494 0.48006 0.0
H712 H 0.31003 0.40853 0.4645 0.0
C713 C 0.24894 0.44503 0.524 0.0
C714 C 0.27089 0.43182 0.54612 0.0
H715 H 0.23171 0.45498 0.46352 0.0
H716 H 0.2318 0.45514 0.54054 0.0
C717 C 0.29277 0.41894 0.52368 0.0
C718 C 0.60324 0.29229 0.52387 0.0
C719 C 0.59066 0.27027 0.54635 0.0
H720 H 0.61332 0.30968 0.46463 0.0
C721 C 0.57765 0.24819 0.52427 0.0
H722 H 0.61332 0.30975 0.53972 0.0
C723 C 0.57764 0.24815 0.48034 0.0
C724 C 0.59066 0.27018 0.45817 0.0
H725 H 0.56778 0.23093 0.54085 0.0
H726 H 0.56778 0.23086 0.46384 0.0
C727 C 0.60324 0.29225 0.48056 0.0
C728 C 0.72977 0.41938 0.98055 0.0
C729 C 0.75194 0.43182 0.95818 0.0
H730 H 0.71214 0.40947 0.03969 0.0
C731 C 0.77401 0.44479 0.98037 0.0
H732 H 0.71231 0.40936 0.96461 0.0
C733 C 0.77391 0.44485 0.0243 0.0
C734 C 0.75174 0.43195 0.04636 0.0
H735 H 0.79137 0.45455 0.96388 0.0
H736 H 0.7912 0.45465 0.0409 0.0
C737 C 0.72967 0.41945 0.02386 0.0
C738 C 0.6028 0.72944 0.02379 0.0
C739 C 0.59042 0.75162 0.04616 0.0
H740 H 0.61286 0.71191 0.96464 0.0
C741 C 0.57769 0.77382 0.02399 0.0
H742 H 0.61265 0.71189 0.03973 0.0
C743 C 0.5778 0.77383 0.98005 0.0
C744 C 0.59066 0.75165 0.958 0.0
H745 H 0.56798 0.7912 0.04048 0.0
H746 H 0.56818 0.79122 0.96347 0.0
C747 C 0.60292 0.72945 0.98048 0.0
C748 C 0.24895 0.57708 0.02409 0.0
C749 C 0.2711 0.58995 0.04625 0.0
H750 H 0.23161 0.56741 0.96358 0.0
C751 C 0.29324 0.6024 0.02385 0.0
H752 H 0.2316 0.56732 0.0406 0.0
C753 C 0.29324 0.60245 0.98054 0.0
C754 C 0.2711 0.59006 0.95807 0.0
H755 H 0.31075 0.61235 0.03977 0.0
H756 H 0.31076 0.61244 0.96469 0.0
C757 C 0.24896 0.57713 0.98015 0.0
C758 C 0.44512 0.2481 0.9801 0.0
C759 C 0.43197 0.27011 0.95803 0.0
H760 H 0.4551 0.23084 0.04054 0.0
C761 C 0.41925 0.29205 0.98052 0.0
H762 H 0.45509 0.23091 0.96353 0.0
C763 C 0.41926 0.29201 0.02382 0.0
C764 C 0.43198 0.27002 0.04621 0.0
H765 H 0.40906 0.30944 0.96467 0.0
H766 H 0.40907 0.30937 0.03974 0.0
C767 C 0.44512 0.24806 0.02404 0.0
C768 C 0.27401 0.02407 0.24183 0.0
C769 C 0.24852 0.03725 0.23076 0.0
H770 H 0.29396 0.9882 0.27036 0.0
C771 C 0.22306 0.02379 0.24113 0.0
H772 H 0.29397 0.03372 0.2338 0.0
C773 C 0.22305 0.9981 0.26283 0.0
C774 C 0.2485 0.98465 0.27327 0.0
H775 H 0.20308 0.03331 0.23282 0.0
H776 H 0.20306 0.98858 0.2711 0.0
C777 C 0.274 0.99784 0.26227 0.0
C778 C 0.99773 0.27409 0.24198 0.0
C779 C 0.98455 0.24861 0.23096 0.0
H780 H 0.03362 0.29407 0.27043 0.0
C781 C 0.99803 0.22318 0.24136 0.0
H782 H 0.98805 0.29403 0.23393 0.0
C783 C 0.02376 0.2232 0.26303 0.0
C784 C 0.0372 0.24865 0.2734 0.0
H785 H 0.98852 0.20321 0.23307 0.0
H786 H 0.0333 0.20325 0.2713 0.0
C787 C 0.02398 0.27412 0.26239 0.0
C788 C 0.74796 0.02372 0.26236 0.0
C789 C 0.77344 0.03694 0.27338 0.0
H790 H 0.72803 0.98783 0.23385 0.0
C791 C 0.79891 0.02351 0.26296 0.0
H792 H 0.72799 0.03335 0.27043 0.0
C793 C 0.79894 0.99782 0.24126 0.0
C794 C 0.77349 0.98435 0.23086 0.0
H795 H 0.81889 0.03305 0.27124 0.0
H796 H 0.81893 0.98833 0.23296 0.0
C797 C 0.74798 0.9975 0.24191 0.0
C798 C 0.02438 0.74734 0.24178 0.0
C799 C 0.0376 0.77281 0.23076 0.0
H800 H 0.98845 0.72744 0.27026 0.0
C801 C 0.02416 0.79826 0.24115 0.0
H802 H 0.03402 0.72739 0.23373 0.0
C803 C 0.99844 0.79828 0.26282 0.0
C804 C 0.98495 0.77286 0.27322 0.0
H805 H 0.0337 0.81822 0.23287 0.0
H806 H 0.98893 0.81826 0.2711 0.0
C807 C 0.99812 0.74737 0.26221 0.0
C808 C 0.74847 0.99793 0.76225 0.0
C809 C 0.77397 0.98473 0.77322 0.0
H810 H 0.72849 0.03383 0.73384 0.0
C811 C 0.79942 0.99819 0.76281 0.0
H812 H 0.72851 0.98828 0.77032 0.0
C813 C 0.79941 0.0239 0.74116 0.0
C814 C 0.77395 0.03736 0.73082 0.0
H815 H 0.81941 0.98866 0.77106 0.0
H816 H 0.81939 0.03342 0.73286 0.0
C817 C 0.74846 0.02417 0.74186 0.0
C818 C 0.99822 0.7475 0.74178 0.0
C819 C 0.98503 0.77298 0.73074 0.0
H820 H 0.03411 0.72755 0.77031 0.0
C821 C 0.99849 0.79842 0.74117 0.0
H822 H 0.98857 0.72756 0.73371 0.0
C823 C 0.02419 0.79841 0.76289 0.0
C824 C 0.03765 0.77297 0.7733 0.0
H825 H 0.98897 0.81839 0.73288 0.0
H826 H 0.03371 0.81838 0.77119 0.0
C827 C 0.02446 0.7475 0.76225 0.0
C828 C 0.22344 0.998 0.74124 0.0
C829 C 0.2489 0.98454 0.73085 0.0
H830 H 0.20345 0.03323 0.77117 0.0
C831 C 0.27439 0.99774 0.74186 0.0
H832 H 0.20346 0.98847 0.73296 0.0
C833 C 0.27439 0.02398 0.76226 0.0
C834 C 0.24889 0.03717 0.77327 0.0
H835 H 0.29435 0.98809 0.73381 0.0
H836 H 0.29435 0.03363 0.7703 0.0
C837 C 0.22343 0.02371 0.76289 0.0
C838 C 0.99868 0.2234 0.76286 0.0
C839 C 0.98523 0.24883 0.77335 0.0
H840 H 0.03389 0.20346 0.73278 0.0
C841 C 0.99842 0.27432 0.76236 0.0
H842 H 0.98915 0.20343 0.77112 0.0
C843 C 0.02465 0.27434 0.74188 0.0
C844 C 0.03783 0.24887 0.73077 0.0
H845 H 0.98877 0.29425 0.77049 0.0
H846 H 0.0343 0.29429 0.73386 0.0
C847 C 0.02437 0.22342 0.74113 0.0
C848 C 0.77478 0.52391 0.74195 0.0
C849 C 0.74928 0.5371 0.73096 0.0
H850 H 0.79474 0.48803 0.77044 0.0
C851 C 0.72382 0.52367 0.74141 0.0
H852 H 0.79474 0.53355 0.73386 0.0
C853 C 0.72382 0.49798 0.76311 0.0
C854 C 0.74928 0.48452 0.77348 0.0
H855 H 0.70384 0.53319 0.73315 0.0
H856 H 0.70384 0.48847 0.77143 0.0
C857 C 0.77478 0.49769 0.76241 0.0
C858 C 0.52494 0.77425 0.76224 0.0
C859 C 0.53809 0.74875 0.77328 0.0
H860 H 0.48906 0.79424 0.73376 0.0
C861 C 0.52459 0.72333 0.7629 0.0
H862 H 0.53463 0.79418 0.77028 0.0
C863 C 0.49887 0.72337 0.74123 0.0
C864 C 0.48545 0.74883 0.73082 0.0
H865 H 0.53409 0.70335 0.7712 0.0
H866 H 0.48931 0.70342 0.73296 0.0
C867 C 0.49869 0.77428 0.74182 0.0
C868 C 0.29946 0.49836 0.74113 0.0
C869 C 0.27399 0.48492 0.73076 0.0
H870 H 0.31947 0.53356 0.77111 0.0
C871 C 0.24851 0.49812 0.74182 0.0
H872 H 0.31943 0.48884 0.73281 0.0
C873 C 0.24853 0.52434 0.76227 0.0
C874 C 0.27403 0.53751 0.77328 0.0
H875 H 0.22854 0.48848 0.73379 0.0
H876 H 0.22858 0.53399 0.77036 0.0
C877 C 0.29948 0.52405 0.76284 0.0
C878 C 0.49854 0.29869 0.7631 0.0
C879 C 0.48508 0.27325 0.77346 0.0
H880 H 0.5338 0.31867 0.73318 0.0
C881 C 0.49828 0.24778 0.76241 0.0
H882 H 0.48901 0.31865 0.77141 0.0
C883 C 0.52453 0.24779 0.74199 0.0
C884 C 0.53773 0.27327 0.73101 0.0
H885 H 0.48862 0.22783 0.77043 0.0
H886 H 0.53419 0.22785 0.73392 0.0
C887 C 0.52427 0.29871 0.74143 0.0
C888 C 0.29935 0.52366 0.24136 0.0
C889 C 0.2739 0.53712 0.23092 0.0
H890 H 0.31929 0.48842 0.27132 0.0
C891 C 0.24839 0.52393 0.24188 0.0
H892 H 0.31934 0.53318 0.23312 0.0
C893 C 0.24837 0.49769 0.26227 0.0
C894 C 0.27385 0.48449 0.27333 0.0
H895 H 0.22844 0.53359 0.2338 0.0
H896 H 0.2284 0.48804 0.27027 0.0
C897 C 0.29932 0.49795 0.26301 0.0
C898 C 0.52448 0.24743 0.26243 0.0
C899 C 0.53765 0.27291 0.27347 0.0
H900 H 0.48861 0.22746 0.23389 0.0
C901 C 0.52419 0.29834 0.26303 0.0
H902 H 0.53414 0.22749 0.27052 0.0
C903 C 0.49849 0.29832 0.2413 0.0
C904 C 0.48505 0.27287 0.23089 0.0
H905 H 0.5337 0.31832 0.27132 0.0
H906 H 0.48896 0.31828 0.23299 0.0
C907 C 0.49825 0.24741 0.24195 0.0
C908 C 0.77406 0.52421 0.26241 0.0
C909 C 0.74856 0.53739 0.2734 0.0
H910 H 0.79404 0.48833 0.23398 0.0
C911 C 0.7231 0.52393 0.26301 0.0
H912 H 0.79401 0.53387 0.27046 0.0
C913 C 0.72312 0.49822 0.24136 0.0
C914 C 0.74859 0.48477 0.231 0.0
H915 H 0.70312 0.53344 0.27128 0.0
H916 H 0.70314 0.48868 0.23308 0.0
C917 C 0.77407 0.49797 0.24201 0.0
C918 C 0.498 0.77446 0.26233 0.0
C919 C 0.48484 0.74898 0.27345 0.0
H920 H 0.53386 0.79439 0.23371 0.0
C921 C 0.49831 0.72354 0.26311 0.0
H922 H 0.48833 0.7944 0.27033 0.0
C923 C 0.52401 0.72353 0.24139 0.0
C924 C 0.53744 0.74897 0.23088 0.0
H925 H 0.48881 0.70358 0.27147 0.0
H926 H 0.53355 0.70356 0.23315 0.0
C927 C 0.52423 0.77445 0.24185 0.0
C928 C 0.19233 0.15209 0.26322 0.0
C929 C 0.18816 0.15793 0.22082 0.0
H930 H 0.18162 0.16214 0.32613 0.0
C931 C 0.16777 0.17835 0.20978 0.0
H932 H 0.20763 0.13649 0.27297 0.0
C933 C 0.15281 0.19327 0.24027 0.0
C934 C 0.15775 0.18817 0.28271 0.0
H935 H 0.16371 0.18342 0.17739 0.0
H936 H 0.13793 0.20928 0.23054 0.0
C937 C 0.17731 0.16695 0.29372 0.0
C938 C 0.87014 0.19187 0.26312 0.0
C939 C 0.86387 0.18813 0.22075 0.0
H940 H 0.86058 0.18066 0.326 0.0
C941 C 0.84318 0.16802 0.20972 0.0
H942 H 0.88596 0.20694 0.27285 0.0
C943 C 0.82842 0.15291 0.24022 0.0
C944 C 0.83396 0.1574 0.28264 0.0
H945 H 0.83777 0.16431 0.17736 0.0
H946 H 0.81219 0.13826 0.23051 0.0
C947 C 0.85544 0.17669 0.29361 0.0
C948 C 0.84467 0.85454 0.2938 0.0
C949 C 0.86443 0.8335 0.28279 0.0
H950 H 0.81423 0.88487 0.27303 0.0
C951 C 0.86957 0.82859 0.24035 0.0
H952 H 0.84018 0.85919 0.3262 0.0
C953 C 0.85465 0.84354 0.20984 0.0
C954 C 0.83408 0.86379 0.22087 0.0
H955 H 0.88461 0.81274 0.23062 0.0
H956 H 0.85888 0.83864 0.17745 0.0
C957 C 0.82969 0.86943 0.26329 0.0
C958 C 0.19214 0.86992 0.24096 0.0
C959 C 0.18829 0.86378 0.28334 0.0
H960 H 0.18119 0.8601 0.17806 0.0
C961 C 0.16823 0.84303 0.29437 0.0
H962 H 0.20718 0.88578 0.23123 0.0
C963 C 0.1533 0.8281 0.26386 0.0
C964 C 0.15792 0.83352 0.22144 0.0
H965 H 0.16444 0.83771 0.32674 0.0
H966 H 0.1387 0.81184 0.27358 0.0
C967 C 0.17714 0.85505 0.21045 0.0
C968 C 0.86967 0.82866 0.76363 0.0
C969 C 0.86468 0.83373 0.72119 0.0
H970 H 0.85887 0.83857 0.82653 0.0
C971 C 0.8451 0.85494 0.7102 0.0
H972 H 0.88457 0.81266 0.77335 0.0
C973 C 0.83014 0.86983 0.74072 0.0
C974 C 0.83437 0.86403 0.78313 0.0
H975 H 0.84074 0.85971 0.6778 0.0
H976 H 0.81482 0.88541 0.73099 0.0
C977 C 0.85477 0.84361 0.79414 0.0
C978 C 0.16817 0.84339 0.70998 0.0
C979 C 0.18856 0.8638 0.72103 0.0
H980 H 0.13832 0.81249 0.73074 0.0
C981 C 0.19273 0.86965 0.76344 0.0
H982 H 0.16412 0.83831 0.6776 0.0
C983 C 0.17769 0.85481 0.79393 0.0
C984 C 0.15812 0.8336 0.78292 0.0
H985 H 0.20804 0.88524 0.77319 0.0
H986 H 0.18199 0.85961 0.82634 0.0
C987 C 0.1532 0.82848 0.74048 0.0
C988 C 0.15298 0.19301 0.76345 0.0
C989 C 0.15832 0.18832 0.72102 0.0
H990 H 0.16345 0.18273 0.82635 0.0
C991 C 0.1782 0.1674 0.70998 0.0
H992 H 0.13783 0.20875 0.7732 0.0
C993 C 0.19312 0.15244 0.74048 0.0
C994 C 0.18853 0.15788 0.78291 0.0
H995 H 0.18285 0.16292 0.67757 0.0
H996 H 0.20869 0.13711 0.73073 0.0
C997 C 0.16783 0.17799 0.79395 0.0
C998 C 0.84513 0.16705 0.79392 0.0
C999 C 0.86479 0.18818 0.78293 0.0
H1000 H 0.81472 0.1367 0.77313 0.0
C1001 C 0.86982 0.19322 0.7405 0.0
H1002 H 0.84073 0.16231 0.82632 0.0
C1003 C 0.85487 0.17832 0.70998 0.0
C1004 C 0.83438 0.15799 0.72099 0.0
H1005 H 0.88478 0.20915 0.73078 0.0
H1006 H 0.859 0.18333 0.67759 0.0
C1007 C 0.83011 0.15221 0.7634 0.0
C1008 C 0.69404 0.65284 0.76394 0.0
C1009 C 0.6887 0.65756 0.72151 0.0
H1010 H 0.68448 0.66401 0.82683 0.0
C1011 C 0.66739 0.67703 0.71053 0.0
H1012 H 0.71013 0.63805 0.77365 0.0
C1013 C 0.65265 0.69216 0.74104 0.0
C1014 C 0.65872 0.68819 0.78342 0.0
H1015 H 0.66241 0.68117 0.67814 0.0
H1016 H 0.63697 0.70737 0.7313 0.0
C1017 C 0.67924 0.6679 0.79445 0.0
C1018 C 0.35466 0.6788 0.79449 0.0
C1019 C 0.33446 0.65819 0.78346 0.0
H1020 H 0.38437 0.70983 0.77371 0.0
C1021 C 0.33052 0.65212 0.74107 0.0
H1022 H 0.35853 0.68405 0.82687 0.0
C1023 C 0.34558 0.66694 0.71057 0.0
C1024 C 0.36495 0.68834 0.72156 0.0
H1025 H 0.31537 0.63637 0.73133 0.0
H1026 H 0.34145 0.66196 0.67817 0.0
C1027 C 0.36965 0.69368 0.76399 0.0
C1028 C 0.36995 0.32918 0.74065 0.0
C1029 C 0.36455 0.33383 0.78308 0.0
H1030 H 0.35954 0.3395 0.67774 0.0
C1031 C 0.34462 0.3547 0.79411 0.0
H1032 H 0.38514 0.31347 0.7309 0.0
C1033 C 0.32971 0.36966 0.7636 0.0
C1034 C 0.33435 0.36426 0.72117 0.0
H1035 H 0.33993 0.35914 0.82651 0.0
H1036 H 0.3141 0.38495 0.77334 0.0
C1037 C 0.35511 0.3442 0.71014 0.0
C1038 C 0.65294 0.32913 0.76371 0.0
C1039 C 0.65837 0.33374 0.72128 0.0
H1040 H 0.66337 0.33941 0.82662 0.0
C1041 C 0.67841 0.35452 0.71026 0.0
H1042 H 0.63767 0.3135 0.77344 0.0
C1043 C 0.69337 0.36941 0.74078 0.0
C1044 C 0.68868 0.36405 0.7832 0.0
H1045 H 0.68313 0.35893 0.67786 0.0
H1046 H 0.70906 0.38463 0.73104 0.0
C1047 C 0.66784 0.34409 0.79422 0.0
C1048 C 0.3694 0.32828 0.26379 0.0
C1049 C 0.36457 0.33346 0.22135 0.0
H1050 H 0.3584 0.33806 0.32665 0.0
C1051 C 0.34509 0.35475 0.21031 0.0
H1052 H 0.38422 0.31222 0.27354 0.0
C1053 C 0.33005 0.3696 0.24079 0.0
C1054 C 0.33411 0.36368 0.2832 0.0
H1055 H 0.34086 0.35961 0.1779 0.0
H1056 H 0.3148 0.38525 0.23103 0.0
C1057 C 0.35443 0.34319 0.29426 0.0
C1058 C 0.67759 0.35488 0.29402 0.0
C1059 C 0.658 0.33368 0.28301 0.0
H1060 H 0.70787 0.38536 0.27325 0.0
C1061 C 0.65299 0.32863 0.24058 0.0
H1062 H 0.68196 0.35963 0.32642 0.0
C1063 C 0.66789 0.34361 0.21007 0.0
C1064 C 0.68829 0.36401 0.2211 0.0
H1065 H 0.63809 0.31265 0.23085 0.0
H1066 H 0.66377 0.33859 0.17768 0.0
C1067 C 0.69254 0.36979 0.26351 0.0
C1068 C 0.66815 0.6789 0.29445 0.0
C1069 C 0.68821 0.65814 0.28347 0.0
H1070 H 0.63856 0.71003 0.2736 0.0
C1071 C 0.69201 0.65191 0.2411 0.0
H1072 H 0.6644 0.68429 0.32681 0.0
C1073 C 0.67696 0.66671 0.21057 0.0
C1074 C 0.65773 0.68824 0.2215 0.0
H1075 H 0.70704 0.63604 0.2314 0.0
H1076 H 0.68097 0.66159 0.17818 0.0
C1077 C 0.65317 0.69375 0.26392 0.0
C1078 C 0.32967 0.65241 0.26366 0.0
C1079 C 0.33427 0.65786 0.22123 0.0
H1080 H 0.33989 0.66292 0.32658 0.0
C1081 C 0.35494 0.67799 0.21022 0.0
H1082 H 0.31411 0.63706 0.2734 0.0
C1083 C 0.36976 0.69304 0.24073 0.0
C1084 C 0.3644 0.68834 0.28315 0.0
H1085 H 0.35934 0.68274 0.17782 0.0
H1086 H 0.38489 0.7088 0.23099 0.0
C1087 C 0.34455 0.6674 0.29417 0.0
loop_
_geom_bond_atom_site_label_1
_geom_bond_atom_site_label_2
_geom_bond_distance
_geom_bond_site_symmetry_2
_ccdc_geom_bond_type
Co0 O1 2.216 . S
Co0 O2 2.091 . S
Co0 O4 2.004 . S
Co0 O10 2.021 . S
Co0 O12 2.137 . S
Co0 O13 2.244 . S
O1 Co0 2.216 . S
O1 C8 1.247 . S
O2 Co0 2.091 . S
O2 C8 1.261 . S
C3 O12 1.247 . S
C3 O13 1.272 . S
O4 Co0 2.004 . S
O4 C9 1.259 . S
Co5 O6 2.061 . S
Co5 O11 2.052 . S
Co5 O13 2.135 . S
O6 Co5 2.061 . S
O6 C9 1.235 . S
C7 O10 1.238 . S
C7 O11 1.241 . S
C8 O1 1.247 . S
C8 O2 1.261 . S
C9 O4 1.259 . S
C9 O6 1.235 . S
O10 Co0 2.021 . S
O10 C7 1.238 . S
O11 Co5 2.052 . S
O11 C7 1.241 . S
O12 Co0 2.137 . S
O12 C3 1.247 . S
O13 Co0 2.244 . S
O13 C3 1.272 . S
O13 Co5 2.135 . S
Co14 O15 2.216 . S
Co14 O16 2.091 . S
Co14 O18 2.004 . S
Co14 O24 2.021 . S
Co14 O26 2.137 . S
Co14 O27 2.244 . S
O15 Co14 2.216 . S
O15 C22 1.247 . S
O16 Co14 2.091 . S
O16 C22 1.261 . S
C17 O26 1.247 . S
C17 O27 1.272 . S
O18 Co14 2.004 . S
O18 C23 1.259 . S
Co19 O20 2.061 . S
Co19 O25 2.052 . S
Co19 O27 2.135 . S
O20 Co19 2.061 . S
O20 C23 1.235 . S
C21 O24 1.238 . S
C21 O25 1.241 . S
C22 O15 1.247 . S
C22 O16 1.261 . S
C23 O18 1.259 . S
C23 O20 1.235 . S
O24 Co14 2.021 . S
O24 C21 1.238 . S
O25 Co19 2.052 . S
O25 C21 1.241 . S
O26 Co14 2.137 . S
O26 C17 1.247 . S
O27 Co14 2.244 . S
O27 C17 1.272 . S
O27 Co19 2.135 . S
Co28 O29 2.216 . S
Co28 O30 2.091 . S
Co28 O32 2.004 . S
Co28 O38 2.021 . S
Co28 O40 2.137 . S
Co28 O41 2.244 . S
O29 Co28 2.216 . S
O29 C36 1.247 . S
O30 Co28 2.091 . S
O30 C36 1.261 . S
C31 O40 1.247 . S
C31 O41 1.272 . S
O32 Co28 2.004 . S
O32 C37 1.259 . S
Co33 O34 2.061 . S
Co33 O39 2.052 . S
Co33 O41 2.135 . S
O34 Co33 2.061 . S
O34 C37 1.235 . S
C35 O38 1.238 . S
C35 O39 1.241 . S
C36 O29 1.247 . S
C36 O30 1.261 . S
C37 O32 1.259 . S
C37 O34 1.235 . S
O38 Co28 2.021 . S
O38 C35 1.238 . S
O39 Co33 2.052 . S
O39 C35 1.241 . S
O40 Co28 2.137 . S
O40 C31 1.247 . S
O41 Co28 2.244 . S
O41 C31 1.272 . S
O41 Co33 2.135 . S
Co42 O43 2.216 . S
Co42 O44 2.091 . S
Co42 O46 2.004 . S
Co42 O52 2.021 . S
Co42 O54 2.137 . S
Co42 O55 2.244 . S
O43 Co42 2.216 . S
O43 C50 1.247 . S
O44 Co42 2.091 . S
O44 C50 1.261 . S
C45 O54 1.247 . S
C45 O55 1.272 . S
O46 Co42 2.004 . S
O46 C51 1.259 . S
Co47 O48 2.061 . S
Co47 O53 2.052 . S
Co47 O55 2.135 . S
O48 Co47 2.061 . S
O48 C51 1.235 . S
C49 O52 1.238 . S
C49 O53 1.241 . S
C50 O43 1.247 . S
C50 O44 1.261 . S
C51 O46 1.259 . S
C51 O48 1.235 . S
O52 Co42 2.021 . S
O52 C49 1.238 . S
O53 Co47 2.052 . S
O53 C49 1.241 . S
O54 Co42 2.137 . S
O54 C45 1.247 . S
O55 Co42 2.244 . S
O55 C45 1.272 . S
O55 Co47 2.135 . S
Co56 O57 2.216 . S
Co56 O58 2.091 . S
Co56 O60 2.004 . S
Co56 O66 2.021 . S
Co56 O68 2.137 . S
Co56 O69 2.244 . S
O57 Co56 2.216 . S
O57 C64 1.247 . S
O58 Co56 2.091 . S
O58 C64 1.261 . S
C59 O68 1.247 . S
C59 O69 1.272 . S
O60 Co56 2.004 . S
O60 C65 1.259 . S
Co61 O62 2.061 . S
Co61 O67 2.052 . S
Co61 O69 2.135 . S
O62 Co61 2.061 . S
O62 C65 1.235 . S
C63 O66 1.238 . S
C63 O67 1.241 . S
C64 O57 1.247 . S
C64 O58 1.261 . S
C65 O60 1.259 . S
C65 O62 1.235 . S
O66 Co56 2.021 . S
O66 C63 1.238 . S
O67 Co61 2.052 . S
O67 C63 1.241 . S
O68 Co56 2.137 . S
O68 C59 1.247 . S
O69 Co56 2.244 . S
O69 C59 1.272 . S
O69 Co61 2.135 . S
Co70 O71 2.216 . S
Co70 O72 2.091 . S
Co70 O74 2.004 . S
Co70 O80 2.021 . S
Co70 O82 2.137 . S
Co70 O83 2.244 . S
O71 Co70 2.216 . S
O71 C78 1.247 . S
O72 Co70 2.091 . S
O72 C78 1.261 . S
C73 O82 1.247 . S
C73 O83 1.272 . S
O74 Co70 2.004 . S
O74 C79 1.259 . S
Co75 O76 2.061 . S
Co75 O81 2.052 . S
Co75 O83 2.135 . S
O76 Co75 2.061 . S
O76 C79 1.235 . S
C77 O80 1.238 . S
C77 O81 1.241 . S
C78 O71 1.247 . S
C78 O72 1.261 . S
C79 O74 1.259 . S
C79 O76 1.235 . S
O80 Co70 2.021 . S
O80 C77 1.238 . S
O81 Co75 2.052 . S
O81 C77 1.241 . S
O82 Co70 2.137 . S
O82 C73 1.247 . S
O83 Co70 2.244 . S
O83 C73 1.272 . S
O83 Co75 2.135 . S
Co84 O85 2.216 . S
Co84 O86 2.091 . S
Co84 O88 2.004 . S
Co84 O94 2.021 . S
Co84 O96 2.137 . S
Co84 O97 2.244 . S
O85 Co84 2.216 . S
O85 C92 1.247 . S
O86 Co84 2.091 . S
O86 C92 1.261 . S
C87 O96 1.247 . S
C87 O97 1.272 . S
O88 Co84 2.004 . S
O88 C93 1.259 . S
Co89 O90 2.061 . S
Co89 O95 2.052 . S
Co89 O97 2.135 . S
O90 Co89 2.061 . S
O90 C93 1.235 . S
C91 O94 1.238 . S
C91 O95 1.241 . S
C92 O85 1.247 . S
C92 O86 1.261 . S
C93 O88 1.259 . S
C93 O90 1.235 . S
O94 Co84 2.021 . S
O94 C91 1.238 . S
O95 Co89 2.052 . S
O95 C91 1.241 . S
O96 Co84 2.137 . S
O96 C87 1.247 . S
O97 Co84 2.244 . S
O97 C87 1.272 . S
O97 Co89 2.135 . S
Co98 O99 2.216 . S
Co98 O100 2.091 . S
Co98 O102 2.004 . S
Co98 O108 2.021 . S
Co98 O110 2.137 . S
Co98 O111 2.244 . S
O99 Co98 2.216 . S
O99 C106 1.247 . S
O100 Co98 2.091 . S
O100 C106 1.261 . S
C101 O110 1.247 . S
C101 O111 1.272 . S
O102 Co98 2.004 . S
O102 C107 1.259 . S
Co103 O104 2.061 . S
Co103 O109 2.052 . S
Co103 O111 2.135 . S
O104 Co103 2.061 . S
O104 C107 1.235 . S
C105 O108 1.238 . S
C105 O109 1.241 . S
C106 O99 1.247 . S
C106 O100 1.261 . S
C107 O102 1.259 . S
C107 O104 1.235 . S
O108 Co98 2.021 . S
O108 C105 1.238 . S
O109 Co103 2.052 . S
O109 C105 1.241 . S
O110 Co98 2.137 . S
O110 C101 1.247 . S
O111 Co98 2.244 . S
O111 C101 1.272 . S
O111 Co103 2.135 . S
Co112 O113 2.216 . S
Co112 O114 2.091 . S
Co112 O116 2.004 . S
Co112 O122 2.021 . S
Co112 O124 2.137 . S
Co112 O125 2.244 . S
O113 Co112 2.216 . S
O113 C120 1.247 . S
O114 Co112 2.091 . S
O114 C120 1.261 . S
C115 O124 1.247 . S
C115 O125 1.272 . S
O116 Co112 2.004 . S
O116 C121 1.259 . S
Co117 O118 2.061 . S
Co117 O123 2.052 . S
Co117 O125 2.135 . S
O118 Co117 2.061 . S
O118 C121 1.235 . S
C119 O122 1.238 . S
C119 O123 1.241 . S
C120 O113 1.247 . S
C120 O114 1.261 . S
C121 O116 1.259 . S
C121 O118 1.235 . S
O122 Co112 2.021 . S
O122 C119 1.238 . S
O123 Co117 2.052 . S
O123 C119 1.241 . S
O124 Co112 2.137 . S
O124 C115 1.247 . S
O125 Co112 2.244 . S
O125 C115 1.272 . S
O125 Co117 2.135 . S
Co126 O127 2.216 . S
Co126 O128 2.091 . S
Co126 O130 2.004 . S
Co126 O136 2.021 . S
Co126 O138 2.137 . S
Co126 O139 2.244 . S
O127 Co126 2.216 . S
O127 C134 1.247 . S
O128 Co126 2.091 . S
O128 C134 1.261 . S
C129 O138 1.247 . S
C129 O139 1.272 . S
O130 Co126 2.004 . S
O130 C135 1.259 . S
Co131 O132 2.061 . S
Co131 O137 2.052 . S
Co131 O139 2.135 . S
O132 Co131 2.061 . S
O132 C135 1.235 . S
C133 O136 1.238 . S
C133 O137 1.241 . S
C134 O127 1.247 . S
C134 O128 1.261 . S
C135 O130 1.259 . S
C135 O132 1.235 . S
O136 Co126 2.021 . S
O136 C133 1.238 . S
O137 Co131 2.052 . S
O137 C133 1.241 . S
O138 Co126 2.137 . S
O138 C129 1.247 . S
O139 Co126 2.244 . S
O139 C129 1.272 . S
O139 Co131 2.135 . S
Co140 O141 2.216 . S
Co140 O142 2.091 . S
Co140 O144 2.004 . S
Co140 O150 2.021 . S
Co140 O152 2.137 . S
Co140 O153 2.244 . S
O141 Co140 2.216 . S
O141 C148 1.247 . S
O142 Co140 2.091 . S
O142 C148 1.261 . S
C143 O152 1.247 . S
C143 O153 1.272 . S
O144 Co140 2.004 . S
O144 C149 1.259 . S
Co145 O146 2.061 . S
Co145 O151 2.052 . S
Co145 O153 2.135 . S
O146 Co145 2.061 . S
O146 C149 1.235 . S
C147 O150 1.238 . S
C147 O151 1.241 . S
C148 O141 1.247 . S
C148 O142 1.261 . S
C149 O144 1.259 . S
C149 O146 1.235 . S
O150 Co140 2.021 . S
O150 C147 1.238 . S
O151 Co145 2.052 . S
O151 C147 1.241 . S
O152 Co140 2.137 . S
O152 C143 1.247 . S
O153 Co140 2.244 . S
O153 C143 1.272 . S
O153 Co145 2.135 . S
Co154 O155 2.216 . S
Co154 O156 2.091 . S
Co154 O158 2.004 . S
Co154 O164 2.021 . S
Co154 O166 2.137 . S
Co154 O167 2.244 . S
O155 Co154 2.216 . S
O155 C162 1.247 . S
O156 Co154 2.091 . S
O156 C162 1.261 . S
C157 O166 1.247 . S
C157 O167 1.272 . S
O158 Co154 2.004 . S
O158 C163 1.259 . S
Co159 O160 2.061 . S
Co159 O165 2.052 . S
Co159 O167 2.135 . S
O160 Co159 2.061 . S
O160 C163 1.235 . S
C161 O164 1.238 . S
C161 O165 1.241 . S
C162 O155 1.247 . S
C162 O156 1.261 . S
C163 O158 1.259 . S
C163 O160 1.235 . S
O164 Co154 2.021 . S
O164 C161 1.238 . S
O165 Co159 2.052 . S
O165 C161 1.241 . S
O166 Co154 2.137 . S
O166 C157 1.247 . S
O167 Co154 2.244 . S
O167 C157 1.272 . S
O167 Co159 2.135 . S
Co168 O169 2.216 . S
Co168 O170 2.091 . S
Co168 O172 2.004 . S
Co168 O178 2.021 . S
Co168 O180 2.137 . S
Co168 O181 2.244 . S
O169 Co168 2.216 . S
O169 C176 1.247 . S
O170 Co168 2.091 . S
O170 C176 1.261 . S
C171 O180 1.247 . S
C171 O181 1.272 . S
O172 Co168 2.004 . S
O172 C177 1.259 . S
Co173 O174 2.061 . S
Co173 O179 2.052 . S
Co173 O181 2.135 . S
O174 Co173 2.061 . S
O174 C177 1.235 . S
C175 O178 1.238 . S
C175 O179 1.241 . S
C176 O169 1.247 . S
C176 O170 1.261 . S
C177 O172 1.259 . S
C177 O174 1.235 . S
O178 Co168 2.021 . S
O178 C175 1.238 . S
O179 Co173 2.052 . S
O179 C175 1.241 . S
O180 Co168 2.137 . S
O180 C171 1.247 . S
O181 Co168 2.244 . S
O181 C171 1.272 . S
O181 Co173 2.135 . S
Co182 O183 2.216 . S
Co182 O184 2.091 . S
Co182 O186 2.004 . S
Co182 O192 2.021 . S
Co182 O194 2.137 . S
Co182 O195 2.244 . S
O183 Co182 2.216 . S
O183 C190 1.247 . S
O184 Co182 2.091 . S
O184 C190 1.261 . S
C185 O194 1.247 . S
C185 O195 1.272 . S
O186 Co182 2.004 . S
O186 C191 1.259 . S
Co187 O188 2.061 . S
Co187 O193 2.052 . S
Co187 O195 2.135 . S
O188 Co187 2.061 . S
O188 C191 1.235 . S
C189 O192 1.238 . S
C189 O193 1.241 . S
C190 O183 1.247 . S
C190 O184 1.261 . S
C191 O186 1.259 . S
C191 O188 1.235 . S
O192 Co182 2.021 . S
O192 C189 1.238 . S
O193 Co187 2.052 . S
O193 C189 1.241 . S
O194 Co182 2.137 . S
O194 C185 1.247 . S
O195 Co182 2.244 . S
O195 C185 1.272 . S
O195 Co187 2.135 . S
Co196 O197 2.216 . S
Co196 O198 2.091 . S
Co196 O200 2.004 . S
Co196 O206 2.021 . S
Co196 O208 2.137 . S
Co196 O209 2.244 . S
O197 Co196 2.216 . S
O197 C204 1.247 . S
O198 Co196 2.091 . S
O198 C204 1.261 . S
C199 O208 1.247 . S
C199 O209 1.272 . S
O200 Co196 2.004 . S
O200 C205 1.259 . S
Co201 O202 2.061 . S
Co201 O207 2.052 . S
Co201 O209 2.135 . S
O202 Co201 2.061 . S
O202 C205 1.235 . S
C203 O206 1.238 . S
C203 O207 1.241 . S
C204 O197 1.247 . S
C204 O198 1.261 . S
C205 O200 1.259 . S
C205 O202 1.235 . S
O206 Co196 2.021 . S
O206 C203 1.238 . S
O207 Co201 2.052 . S
O207 C203 1.241 . S
O208 Co196 2.137 . S
O208 C199 1.247 . S
O209 Co196 2.244 . S
O209 C199 1.272 . S
O209 Co201 2.135 . S
Co210 O211 2.216 . S
Co210 O212 2.091 . S
Co210 O214 2.004 . S
Co210 O220 2.021 . S
Co210 O222 2.137 . S
Co210 O223 2.244 . S
O211 Co210 2.216 . S
O211 C218 1.247 . S
O212 Co210 2.091 . S
O212 C218 1.261 . S
C213 O222 1.247 . S
C213 O223 1.272 . S
O214 Co210 2.004 . S
O214 C219 1.259 . S
Co215 O216 2.061 . S
Co215 O221 2.052 . S
Co215 O223 2.135 . S
O216 Co215 2.061 . S
O216 C219 1.235 . S
C217 O220 1.238 . S
C217 O221 1.241 . S
C218 O211 1.247 . S
C218 O212 1.261 . S
C219 O214 1.259 . S
C219 O216 1.235 . S
O220 Co210 2.021 . S
O220 C217 1.238 . S
O221 Co215 2.052 . S
O221 C217 1.241 . S
O222 Co210 2.137 . S
O222 C213 1.247 . S
O223 Co210 2.244 . S
O223 C213 1.272 . S
O223 Co215 2.135 . S
Co224 O225 2.216 . S
Co224 O226 2.091 . S
Co224 O228 2.004 . S
Co224 O234 2.021 . S
Co224 O236 2.137 . S
Co224 O237 2.244 . S
O225 Co224 2.216 . S
O225 C232 1.247 . S
O226 Co224 2.091 . S
O226 C232 1.261 . S
C227 O236 1.247 . S
C227 O237 1.272 . S
O228 Co224 2.004 . S
O228 C233 1.259 . S
Co229 O230 2.061 . S
Co229 O235 2.052 . S
Co229 O237 2.135 . S
O230 Co229 2.061 . S
O230 C233 1.235 . S
C231 O234 1.238 . S
C231 O235 1.241 . S
C232 O225 1.247 . S
C232 O226 1.261 . S
C233 O228 1.259 . S
C233 O230 1.235 . S
O234 Co224 2.021 . S
O234 C231 1.238 . S
O235 Co229 2.052 . S
O235 C231 1.241 . S
O236 Co224 2.137 . S
O236 C227 1.247 . S
O237 Co224 2.244 . S
O237 C227 1.272 . S
O237 Co229 2.135 . S
Co238 O239 2.216 . S
Co238 O240 2.091 . S
Co238 O242 2.004 . S
Co238 O248 2.021 . S
Co238 O250 2.137 . S
Co238 O251 2.244 . S
O239 Co238 2.216 . S
O239 C246 1.247 . S
O240 Co238 2.091 . S
O240 C246 1.261 . S
C241 O250 1.247 . S
C241 O251 1.272 . S
O242 Co238 2.004 . S
O242 C247 1.259 . S
Co243 O244 2.061 . S
Co243 O249 2.052 . S
Co243 O251 2.135 . S
O244 Co243 2.061 . S
O244 C247 1.235 . S
C245 O248 1.238 . S
C245 O249 1.241 . S
C246 O239 1.247 . S
C246 O240 1.261 . S
C247 O242 1.259 . S
C247 O244 1.235 . S
O248 Co238 2.021 . S
O248 C245 1.238 . S
O249 Co243 2.052 . S
O249 C245 1.241 . S
O250 Co238 2.137 . S
O250 C241 1.247 . S
O251 Co238 2.244 . S
O251 C241 1.272 . S
O251 Co243 2.135 . S
Co252 O253 2.216 . S
Co252 O254 2.091 . S
Co252 O256 2.004 . S
Co252 O262 2.021 . S
Co252 O264 2.137 . S
Co252 O265 2.244 . S
O253 Co252 2.216 . S
O253 C260 1.247 . S
O254 Co252 2.091 . S
O254 C260 1.261 . S
C255 O264 1.247 . S
C255 O265 1.272 . S
O256 Co252 2.004 . S
O256 C261 1.259 . S
Co257 O258 2.061 . S
Co257 O263 2.052 . S
Co257 O265 2.135 . S
O258 Co257 2.061 . S
O258 C261 1.235 . S
C259 O262 1.238 . S
C259 O263 1.241 . S
C260 O253 1.247 . S
C260 O254 1.261 . S
C261 O256 1.259 . S
C261 O258 1.235 . S
O262 Co252 2.021 . S
O262 C259 1.238 . S
O263 Co257 2.052 . S
O263 C259 1.241 . S
O264 Co252 2.137 . S
O264 C255 1.247 . S
O265 Co252 2.244 . S
O265 C255 1.272 . S
O265 Co257 2.135 . S
Co266 O267 2.216 . S
Co266 O268 2.091 . S
Co266 O270 2.004 . S
Co266 O276 2.021 . S
Co266 O278 2.137 . S
Co266 O279 2.244 . S
O267 Co266 2.216 . S
O267 C274 1.247 . S
O268 Co266 2.091 . S
O268 C274 1.261 . S
C269 O278 1.247 . S
C269 O279 1.272 . S
O270 Co266 2.004 . S
O270 C275 1.259 . S
Co271 O272 2.061 . S
Co271 O277 2.052 . S
Co271 O279 2.135 . S
O272 Co271 2.061 . S
O272 C275 1.235 . S
C273 O276 1.238 . S
C273 O277 1.241 . S
C274 O267 1.247 . S
C274 O268 1.261 . S
C275 O270 1.259 . S
C275 O272 1.235 . S
O276 Co266 2.021 . S
O276 C273 1.238 . S
O277 Co271 2.052 . S
O277 C273 1.241 . S
O278 Co266 2.137 . S
O278 C269 1.247 . S
O279 Co266 2.244 . S
O279 C269 1.272 . S
O279 Co271 2.135 . S
Co280 O281 2.216 . S
Co280 O282 2.091 . S
Co280 O284 2.004 . S
Co280 O290 2.021 . S
Co280 O292 2.137 . S
Co280 O293 2.244 . S
O281 Co280 2.216 . S
O281 C288 1.247 . S
O282 Co280 2.091 . S
O282 C288 1.261 . S
C283 O292 1.247 . S
C283 O293 1.272 . S
O284 Co280 2.004 . S
O284 C289 1.259 . S
Co285 O286 2.061 . S
Co285 O291 2.052 . S
Co285 O293 2.135 . S
O286 Co285 2.061 . S
O286 C289 1.235 . S
C287 O290 1.238 . S
C287 O291 1.241 . S
C288 O281 1.247 . S
C288 O282 1.261 . S
C289 O284 1.259 . S
C289 O286 1.235 . S
O290 Co280 2.021 . S
O290 C287 1.238 . S
O291 Co285 2.052 . S
O291 C287 1.241 . S
O292 Co280 2.137 . S
O292 C283 1.247 . S
O293 Co280 2.244 . S
O293 C283 1.272 . S
O293 Co285 2.135 . S
Co294 O295 2.216 . S
Co294 O296 2.091 . S
Co294 O298 2.004 . S
Co294 O304 2.021 . S
Co294 O306 2.137 . S
Co294 O307 2.244 . S
O295 Co294 2.216 . S
O295 C302 1.247 . S
O296 Co294 2.091 . S
O296 C302 1.261 . S
C297 O306 1.247 . S
C297 O307 1.272 . S
O298 Co294 2.004 . S
O298 C303 1.259 . S
Co299 O300 2.061 . S
Co299 O305 2.052 . S
Co299 O307 2.135 . S
O300 Co299 2.061 . S
O300 C303 1.235 . S
C301 O304 1.238 . S
C301 O305 1.241 . S
C302 O295 1.247 . S
C302 O296 1.261 . S
C303 O298 1.259 . S
C303 O300 1.235 . S
O304 Co294 2.021 . S
O304 C301 1.238 . S
O305 Co299 2.052 . S
O305 C301 1.241 . S
O306 Co294 2.137 . S
O306 C297 1.247 . S
O307 Co294 2.244 . S
O307 C297 1.272 . S
O307 Co299 2.135 . S
Co308 O309 2.216 . S
Co308 O310 2.091 . S
Co308 O312 2.004 . S
Co308 O318 2.021 . S
Co308 O320 2.137 . S
Co308 O321 2.244 . S
O309 Co308 2.216 . S
O309 C316 1.247 . S
O310 Co308 2.091 . S
O310 C316 1.261 . S
C311 O320 1.247 . S
C311 O321 1.272 . S
O312 Co308 2.004 . S
O312 C317 1.259 . S
Co313 O314 2.061 . S
Co313 O319 2.052 . S
Co313 O321 2.135 . S
O314 Co313 2.061 . S
O314 C317 1.235 . S
C315 O318 1.238 . S
C315 O319 1.241 . S
C316 O309 1.247 . S
C316 O310 1.261 . S
C317 O312 1.259 . S
C317 O314 1.235 . S
O318 Co308 2.021 . S
O318 C315 1.238 . S
O319 Co313 2.052 . S
O319 C315 1.241 . S
O320 Co308 2.137 . S
O320 C311 1.247 . S
O321 Co308 2.244 . S
O321 C311 1.272 . S
O321 Co313 2.135 . S
Co322 O323 2.216 . S
Co322 O324 2.091 . S
Co322 O326 2.004 . S
Co322 O332 2.021 . S
Co322 O334 2.137 . S
Co322 O335 2.244 . S
O323 Co322 2.216 . S
O323 C330 1.247 . S
O324 Co322 2.091 . S
O324 C330 1.261 . S
C325 O334 1.247 . S
C325 O335 1.272 . S
O326 Co322 2.004 . S
O326 C331 1.259 . S
Co327 O328 2.061 . S
Co327 O333 2.052 . S
Co327 O335 2.135 . S
O328 Co327 2.061 . S
O328 C331 1.235 . S
C329 O332 1.238 . S
C329 O333 1.241 . S
C330 O323 1.247 . S
C330 O324 1.261 . S
C331 O326 1.259 . S
C331 O328 1.235 . S
O332 Co322 2.021 . S
O332 C329 1.238 . S
O333 Co327 2.052 . S
O333 C329 1.241 . S
O334 Co322 2.137 . S
O334 C325 1.247 . S
O335 Co322 2.244 . S
O335 C325 1.272 . S
O335 Co327 2.135 . S
Co336 O337 2.216 . S
Co336 O338 2.091 . S
Co336 O340 2.004 . S
Co336 O346 2.021 . S
Co336 O348 2.137 . S
Co336 O349 2.244 . S
O337 Co336 2.216 . S
O337 C344 1.247 . S
O338 Co336 2.091 . S
O338 C344 1.261 . S
C339 O348 1.247 . S
C339 O349 1.272 . S
O340 Co336 2.004 . S
O340 C345 1.259 . S
Co341 O342 2.061 . S
Co341 O347 2.052 . S
Co341 O349 2.135 . S
O342 Co341 2.061 . S
O342 C345 1.235 . S
C343 O346 1.238 . S
C343 O347 1.241 . S
C344 O337 1.247 . S
C344 O338 1.261 . S
C345 O340 1.259 . S
C345 O342 1.235 . S
O346 Co336 2.021 . S
O346 C343 1.238 . S
O347 Co341 2.052 . S
O347 C343 1.241 . S
O348 Co336 2.137 . S
O348 C339 1.247 . S
O349 Co336 2.244 . S
O349 C339 1.272 . S
O349 Co341 2.135 . S
Co350 O351 2.216 . S
Co350 O352 2.091 . S
Co350 O354 2.004 . S
Co350 O360 2.021 . S
Co350 O362 2.137 . S
Co350 O363 2.244 . S
O351 Co350 2.216 . S
O351 C358 1.247 . S
O352 Co350 2.091 . S
O352 C358 1.261 . S
C353 O362 1.247 . S
C353 O363 1.272 . S
O354 Co350 2.004 . S
O354 C359 1.259 . S
Co355 O356 2.061 . S
Co355 O361 2.052 . S
Co355 O363 2.135 . S
O356 Co355 2.061 . S
O356 C359 1.235 . S
C357 O360 1.238 . S
C357 O361 1.241 . S
C358 O351 1.247 . S
C358 O352 1.261 . S
C359 O354 1.259 . S
C359 O356 1.235 . S
O360 Co350 2.021 . S
O360 C357 1.238 . S
O361 Co355 2.052 . S
O361 C357 1.241 . S
O362 Co350 2.137 . S
O362 C353 1.247 . S
O363 Co350 2.244 . S
O363 C353 1.272 . S
O363 Co355 2.135 . S
Co364 O365 2.216 . S
Co364 O366 2.091 . S
Co364 O368 2.004 . S
Co364 O374 2.021 . S
Co364 O376 2.137 . S
Co364 O377 2.244 . S
O365 Co364 2.216 . S
O365 C372 1.247 . S
O366 Co364 2.091 . S
O366 C372 1.261 . S
C367 O376 1.247 . S
C367 O377 1.272 . S
O368 Co364 2.004 . S
O368 C373 1.259 . S
Co369 O370 2.061 . S
Co369 O375 2.052 . S
Co369 O377 2.135 . S
O370 Co369 2.061 . S
O370 C373 1.235 . S
C371 O374 1.238 . S
C371 O375 1.241 . S
C372 O365 1.247 . S
C372 O366 1.261 . S
C373 O368 1.259 . S
C373 O370 1.235 . S
O374 Co364 2.021 . S
O374 C371 1.238 . S
O375 Co369 2.052 . S
O375 C371 1.241 . S
O376 Co364 2.137 . S
O376 C367 1.247 . S
O377 Co364 2.244 . S
O377 C367 1.272 . S
O377 Co369 2.135 . S
Co378 O379 2.216 . S
Co378 O380 2.091 . S
Co378 O382 2.004 . S
Co378 O388 2.021 . S
Co378 O390 2.137 . S
Co378 O391 2.244 . S
O379 Co378 2.216 . S
O379 C386 1.247 . S
O380 Co378 2.091 . S
O380 C386 1.261 . S
C381 O390 1.247 . S
C381 O391 1.272 . S
O382 Co378 2.004 . S
O382 C387 1.259 . S
Co383 O384 2.061 . S
Co383 O389 2.052 . S
Co383 O391 2.135 . S
O384 Co383 2.061 . S
O384 C387 1.235 . S
C385 O388 1.238 . S
C385 O389 1.241 . S
C386 O379 1.247 . S
C386 O380 1.261 . S
C387 O382 1.259 . S
C387 O384 1.235 . S
O388 Co378 2.021 . S
O388 C385 1.238 . S
O389 Co383 2.052 . S
O389 C385 1.241 . S
O390 Co378 2.137 . S
O390 C381 1.247 . S
O391 Co378 2.244 . S
O391 C381 1.272 . S
O391 Co383 2.135 . S
Co392 O393 2.216 . S
Co392 O394 2.091 . S
Co392 O396 2.004 . S
Co392 O402 2.021 . S
Co392 O404 2.137 . S
Co392 O405 2.244 . S
O393 Co392 2.216 . S
O393 C400 1.247 . S
O394 Co392 2.091 . S
O394 C400 1.261 . S
C395 O404 1.247 . S
C395 O405 1.272 . S
O396 Co392 2.004 . S
O396 C401 1.259 . S
Co397 O398 2.061 . S
Co397 O403 2.052 . S
Co397 O405 2.135 . S
O398 Co397 2.061 . S
O398 C401 1.235 . S
C399 O402 1.238 . S
C399 O403 1.241 . S
C400 O393 1.247 . S
C400 O394 1.261 . S
C401 O396 1.259 . S
C401 O398 1.235 . S
O402 Co392 2.021 . S
O402 C399 1.238 . S
O403 Co397 2.052 . S
O403 C399 1.241 . S
O404 Co392 2.137 . S
O404 C395 1.247 . S
O405 Co392 2.244 . S
O405 C395 1.272 . S
O405 Co397 2.135 . S
Co406 O407 2.216 . S
Co406 O408 2.091 . S
Co406 O410 2.004 . S
Co406 O416 2.021 . S
Co406 O418 2.137 . S
Co406 O419 2.244 . S
O407 Co406 2.216 . S
O407 C414 1.247 . S
O408 Co406 2.091 . S
O408 C414 1.261 . S
C409 O418 1.247 . S
C409 O419 1.272 . S
O410 Co406 2.004 . S
O410 C415 1.259 . S
Co411 O412 2.061 . S
Co411 O417 2.052 . S
Co411 O419 2.135 . S
O412 Co411 2.061 . S
O412 C415 1.235 . S
C413 O416 1.238 . S
C413 O417 1.241 . S
C414 O407 1.247 . S
C414 O408 1.261 . S
C415 O410 1.259 . S
C415 O412 1.235 . S
O416 Co406 2.021 . S
O416 C413 1.238 . S
O417 Co411 2.052 . S
O417 C413 1.241 . S
O418 Co406 2.137 . S
O418 C409 1.247 . S
O419 Co406 2.244 . S
O419 C409 1.272 . S
O419 Co411 2.135 . S
Co420 O421 2.216 . S
Co420 O422 2.091 . S
Co420 O424 2.004 . S
Co420 O430 2.021 . S
Co420 O432 2.137 . S
Co420 O433 2.244 . S
O421 Co420 2.216 . S
O421 C428 1.247 . S
O422 Co420 2.091 . S
O422 C428 1.261 . S
C423 O432 1.247 . S
C423 O433 1.272 . S
O424 Co420 2.004 . S
O424 C429 1.259 . S
Co425 O426 2.061 . S
Co425 O431 2.052 . S
Co425 O433 2.135 . S
O426 Co425 2.061 . S
O426 C429 1.235 . S
C427 O430 1.238 . S
C427 O431 1.241 . S
C428 O421 1.247 . S
C428 O422 1.261 . S
C429 O424 1.259 . S
C429 O426 1.235 . S
O430 Co420 2.021 . S
O430 C427 1.238 . S
O431 Co425 2.052 . S
O431 C427 1.241 . S
O432 Co420 2.137 . S
O432 C423 1.247 . S
O433 Co420 2.244 . S
O433 C423 1.272 . S
O433 Co425 2.135 . S
Co434 O435 2.216 . S
Co434 O436 2.091 . S
Co434 O438 2.004 . S
Co434 O444 2.021 . S
Co434 O446 2.137 . S
Co434 O447 2.244 . S
O435 Co434 2.216 . S
O435 C442 1.247 . S
O436 Co434 2.091 . S
O436 C442 1.261 . S
C437 O446 1.247 . S
C437 O447 1.272 . S
O438 Co434 2.004 . S
O438 C443 1.259 . S
Co439 O440 2.061 . S
Co439 O445 2.052 . S
Co439 O447 2.135 . S
O440 Co439 2.061 . S
O440 C443 1.235 . S
C441 O444 1.238 . S
C441 O445 1.241 . S
C442 O435 1.247 . S
C442 O436 1.261 . S
C443 O438 1.259 . S
C443 O440 1.235 . S
O444 Co434 2.021 . S
O444 C441 1.238 . S
O445 Co439 2.052 . S
O445 C441 1.241 . S
O446 Co434 2.137 . S
O446 C437 1.247 . S
O447 Co434 2.244 . S
O447 C437 1.272 . S
O447 Co439 2.135 . S
C448 C449 1.387 . S
C448 H452 0.950 . S
C448 C457 1.390 . S
C449 C448 1.387 . S
C449 C451 1.387 . S
H450 C457 0.950 . S
C451 C449 1.387 . S
C451 C453 1.390 . S
C451 H455 0.950 . S
H452 C448 0.950 . S
C453 C451 1.390 . S
C453 C454 1.387 . S
C453 H456 0.950 . S
C454 C453 1.387 . S
C454 C457 1.387 . S
H455 C451 0.950 . S
H456 C453 0.950 . S
C457 C448 1.390 . S
C457 H450 0.950 . S
C457 C454 1.387 . S
C458 C459 1.387 . S
C458 H462 0.950 . S
C458 C467 1.390 . S
C459 C458 1.387 . S
C459 C461 1.387 . S
H460 C467 0.950 . S
C461 C459 1.387 . S
C461 C463 1.390 . S
C461 H465 0.950 . S
H462 C458 0.950 . S
C463 C461 1.390 . S
C463 C464 1.387 . S
C463 H466 0.950 . S
C464 C463 1.387 . S
C464 C467 1.387 . S
H465 C461 0.950 . S
H466 C463 0.950 . S
C467 C458 1.390 . S
C467 H460 0.950 . S
C467 C464 1.387 . S
C468 C469 1.387 . S
C468 H472 0.950 . S
C468 C477 1.390 . S
C469 C468 1.387 . S
C469 C471 1.387 . S
H470 C477 0.950 . S
C471 C469 1.387 . S
C471 C473 1.390 . S
C471 H475 0.950 . S
H472 C468 0.950 . S
C473 C471 1.390 . S
C473 C474 1.387 . S
C473 H476 0.950 . S
C474 C473 1.387 . S
C474 C477 1.387 . S
H475 C471 0.950 . S
H476 C473 0.950 . S
C477 C468 1.390 . S
C477 H470 0.950 . S
C477 C474 1.387 . S
C478 C479 1.387 . S
C478 H482 0.950 . S
C478 C487 1.390 . S
C479 C478 1.387 . S
C479 C481 1.387 . S
H480 C487 0.950 . S
C481 C479 1.387 . S
C481 C483 1.390 . S
C481 H485 0.950 . S
H482 C478 0.950 . S
C483 C481 1.390 . S
C483 C484 1.387 . S
C483 H486 0.950 . S
C484 C483 1.387 . S
C484 C487 1.387 . S
H485 C481 0.950 . S
H486 C483 0.950 . S
C487 C478 1.390 . S
C487 H480 0.950 . S
C487 C484 1.387 . S
C488 C489 1.387 . S
C488 H492 0.950 . S
C488 C497 1.390 . S
C489 C488 1.387 . S
C489 C491 1.387 . S
H490 C497 0.950 . S
C491 C489 1.387 . S
C491 C493 1.390 . S
C491 H495 0.950 . S
H492 C488 0.950 . S
C493 C491 1.390 . S
C493 C494 1.387 . S
C493 H496 0.950 . S
C494 C493 1.387 . S
C494 C497 1.387 . S
H495 C491 0.950 . S
H496 C493 0.950 . S
C497 C488 1.390 . S
C497 H490 0.950 . S
C497 C494 1.387 . S
C498 C499 1.387 . S
C498 H502 0.950 . S
C498 C507 1.390 . S
C499 C498 1.387 . S
C499 C501 1.387 . S
H500 C507 0.950 . S
C501 C499 1.387 . S
C501 C503 1.390 . S
C501 H505 0.950 . S
H502 C498 0.950 . S
C503 C501 1.390 . S
C503 C504 1.387 . S
C503 H506 0.950 . S
C504 C503 1.387 . S
C504 C507 1.387 . S
H505 C501 0.950 . S
H506 C503 0.950 . S
C507 C498 1.390 . S
C507 H500 0.950 . S
C507 C504 1.387 . S
C508 C509 1.387 . S
C508 H512 0.950 . S
C508 C517 1.390 . S
C509 C508 1.387 . S
C509 C511 1.387 . S
H510 C517 0.950 . S
C511 C509 1.387 . S
C511 C513 1.390 . S
C511 H515 0.950 . S
H512 C508 0.950 . S
C513 C511 1.390 . S
C513 C514 1.387 . S
C513 H516 0.950 . S
C514 C513 1.387 . S
C514 C517 1.387 . S
H515 C511 0.950 . S
H516 C513 0.950 . S
C517 C508 1.390 . S
C517 H510 0.950 . S
C517 C514 1.387 . S
C518 C519 1.387 . S
C518 H522 0.950 . S
C518 C527 1.390 . S
C519 C518 1.387 . S
C519 C521 1.387 . S
H520 C527 0.950 . S
C521 C519 1.387 . S
C521 C523 1.390 . S
C521 H525 0.950 . S
H522 C518 0.950 . S
C523 C521 1.390 . S
C523 C524 1.387 . S
C523 H526 0.950 . S
C524 C523 1.387 . S
C524 C527 1.387 . S
H525 C521 0.950 . S
H526 C523 0.950 . S
C527 C518 1.390 . S
C527 H520 0.950 . S
C527 C524 1.387 . S
C528 C529 1.387 . S
C528 H532 0.950 . S
C528 C537 1.390 . S
C529 C528 1.387 . S
C529 C531 1.387 . S
H530 C537 0.950 . S
C531 C529 1.387 . S
C531 C533 1.390 . S
C531 H535 0.950 . S
H532 C528 0.950 . S
C533 C531 1.390 . S
C533 C534 1.387 . S
C533 H536 0.950 . S
C534 C533 1.387 . S
C534 C537 1.387 . S
H535 C531 0.950 . S
H536 C533 0.950 . S
C537 C528 1.390 . S
C537 H530 0.950 . S
C537 C534 1.387 . S
C538 C539 1.387 . S
C538 H542 0.950 . S
C538 C547 1.390 . S
C539 C538 1.387 . S
C539 C541 1.387 . S
H540 C547 0.950 . S
C541 C539 1.387 . S
C541 C543 1.390 . S
C541 H545 0.950 . S
H542 C538 0.950 . S
C543 C541 1.390 . S
C543 C544 1.387 . S
C543 H546 0.950 . S
C544 C543 1.387 . S
C544 C547 1.387 . S
H545 C541 0.950 . S
H546 C543 0.950 . S
C547 C538 1.390 . S
C547 H540 0.950 . S
C547 C544 1.387 . S
C548 C549 1.387 . S
C548 H552 0.950 . S
C548 C557 1.390 . S
C549 C548 1.387 . S
C549 C551 1.387 . S
H550 C557 0.950 . S
C551 C549 1.387 . S
C551 C553 1.390 . S
C551 H555 0.950 . S
H552 C548 0.950 . S
C553 C551 1.390 . S
C553 C554 1.387 . S
C553 H556 0.950 . S
C554 C553 1.387 . S
C554 C557 1.387 . S
H555 C551 0.950 . S
H556 C553 0.950 . S
C557 C548 1.390 . S
C557 H550 0.950 . S
C557 C554 1.387 . S
C558 C559 1.387 . S
C558 H562 0.950 . S
C558 C567 1.390 . S
C559 C558 1.387 . S
C559 C561 1.387 . S
H560 C567 0.950 . S
C561 C559 1.387 . S
C561 C563 1.390 . S
C561 H565 0.950 . S
H562 C558 0.950 . S
C563 C561 1.390 . S
C563 C564 1.387 . S
C563 H566 0.950 . S
C564 C563 1.387 . S
C564 C567 1.387 . S
H565 C561 0.950 . S
H566 C563 0.950 . S
C567 C558 1.390 . S
C567 H560 0.950 . S
C567 C564 1.387 . S
C568 C569 1.387 . S
C568 H572 0.950 . S
C568 C577 1.390 . S
C569 C568 1.387 . S
C569 C571 1.387 . S
H570 C577 0.950 . S
C571 C569 1.387 . S
C571 C573 1.390 . S
C571 H575 0.950 . S
H572 C568 0.950 . S
C573 C571 1.390 . S
C573 C574 1.387 . S
C573 H576 0.950 . S
C574 C573 1.387 . S
C574 C577 1.387 . S
H575 C571 0.950 . S
H576 C573 0.950 . S
C577 C568 1.390 . S
C577 H570 0.950 . S
C577 C574 1.387 . S
C578 C579 1.387 . S
C578 H582 0.950 . S
C578 C587 1.390 . S
C579 C578 1.387 . S
C579 C581 1.387 . S
H580 C587 0.950 . S
C581 C579 1.387 . S
C581 C583 1.390 . S
C581 H585 0.950 . S
H582 C578 0.950 . S
C583 C581 1.390 . S
C583 C584 1.387 . S
C583 H586 0.950 . S
C584 C583 1.387 . S
C584 C587 1.387 . S
H585 C581 0.950 . S
H586 C583 0.950 . S
C587 C578 1.390 . S
C587 H580 0.950 . S
C587 C584 1.387 . S
C588 C589 1.387 . S
C588 H592 0.950 . S
C588 C597 1.390 . S
C589 C588 1.387 . S
C589 C591 1.387 . S
H590 C597 0.950 . S
C591 C589 1.387 . S
C591 C593 1.390 . S
C591 H595 0.950 . S
H592 C588 0.950 . S
C593 C591 1.390 . S
C593 C594 1.387 . S
C593 H596 0.950 . S
C594 C593 1.387 . S
C594 C597 1.387 . S
H595 C591 0.950 . S
H596 C593 0.950 . S
C597 C588 1.390 . S
C597 H590 0.950 . S
C597 C594 1.387 . S
C598 C599 1.387 . S
C598 H602 0.950 . S
C598 C607 1.390 . S
C599 C598 1.387 . S
C599 C601 1.387 . S
H600 C607 0.950 . S
C601 C599 1.387 . S
C601 C603 1.390 . S
C601 H605 0.950 . S
H602 C598 0.950 . S
C603 C601 1.390 . S
C603 C604 1.387 . S
C603 H606 0.950 . S
C604 C603 1.387 . S
C604 C607 1.387 . S
H605 C601 0.950 . S
H606 C603 0.950 . S
C607 C598 1.390 . S
C607 H600 0.950 . S
C607 C604 1.387 . S
C608 C609 1.387 . S
C608 H612 0.950 . S
C608 C617 1.390 1_554 S
C609 C608 1.387 . S
C609 C611 1.387 . S
H610 C617 0.950 . S
C611 C609 1.387 . S
C611 C613 1.390 1_554 S
C611 H615 0.950 . S
H612 C608 0.950 . S
C613 C611 1.390 1_556 S
C613 C614 1.387 . S
C613 H616 0.950 . S
C614 C613 1.387 . S
C614 C617 1.387 . S
H615 C611 0.950 . S
H616 C613 0.950 . S
C617 C608 1.390 1_556 S
C617 H610 0.950 . S
C617 C614 1.387 . S
C618 C619 1.387 . S
C618 H622 0.950 . S
C618 C627 1.390 1_556 S
C619 C618 1.387 . S
C619 C621 1.387 . S
H620 C627 0.950 . S
C621 C619 1.387 . S
C621 C623 1.390 1_556 S
C621 H625 0.950 . S
H622 C618 0.950 . S
C623 C621 1.390 1_554 S
C623 C624 1.387 . S
C623 H626 0.950 . S
C624 C623 1.387 . S
C624 C627 1.387 . S
H625 C621 0.950 . S
H626 C623 0.950 . S
C627 C618 1.390 1_554 S
C627 H620 0.950 . S
C627 C624 1.387 . S
C628 C629 1.387 . S
C628 H632 0.950 . S
C628 C637 1.390 1_556 S
C629 C628 1.387 . S
C629 C631 1.387 . S
H630 C637 0.950 . S
C631 C629 1.387 . S
C631 C633 1.390 1_556 S
C631 H635 0.950 . S
H632 C628 0.950 . S
C633 C631 1.390 1_554 S
C633 C634 1.387 . S
C633 H636 0.950 . S
C634 C633 1.387 . S
C634 C637 1.387 . S
H635 C631 0.950 . S
H636 C633 0.950 . S
C637 C628 1.390 1_554 S
C637 H630 0.950 . S
C637 C634 1.387 . S
C638 C639 1.387 . S
C638 H642 0.950 . S
C638 C647 1.390 1_556 S
C639 C638 1.387 . S
C639 C641 1.387 . S
H640 C647 0.950 . S
C641 C639 1.387 . S
C641 C643 1.390 1_556 S
C641 H645 0.950 . S
H642 C638 0.950 . S
C643 C641 1.390 1_554 S
C643 C644 1.387 . S
C643 H646 0.950 . S
C644 C643 1.387 . S
C644 C647 1.387 . S
H645 C641 0.950 . S
H646 C643 0.950 . S
C647 C638 1.390 1_554 S
C647 H640 0.950 . S
C647 C644 1.387 . S
C648 C649 1.387 . S
C648 H652 0.950 . S
C648 C657 1.390 . S
C649 C648 1.387 . S
C649 C651 1.387 . S
H650 C657 0.950 . S
C651 C649 1.387 . S
C651 C653 1.390 . S
C651 H655 0.950 . S
H652 C648 0.950 . S
C653 C651 1.390 . S
C653 C654 1.387 . S
C653 H656 0.950 . S
C654 C653 1.387 . S
C654 C657 1.387 . S
H655 C651 0.950 . S
H656 C653 0.950 . S
C657 C648 1.390 . S
C657 H650 0.950 . S
C657 C654 1.387 . S
C658 C659 1.387 . S
C658 H662 0.950 . S
C658 C667 1.390 . S
C659 C658 1.387 . S
C659 C661 1.387 . S
H660 C667 0.950 . S
C661 C659 1.387 . S
C661 C663 1.390 . S
C661 H665 0.950 . S
H662 C658 0.950 . S
C663 C661 1.390 . S
C663 C664 1.387 . S
C663 H666 0.950 . S
C664 C663 1.387 . S
C664 C667 1.387 . S
H665 C661 0.950 . S
H666 C663 0.950 . S
C667 C658 1.390 . S
C667 H660 0.950 . S
C667 C664 1.387 . S
C668 C669 1.387 . S
C668 H672 0.950 . S
C668 C677 1.390 . S
C669 C668 1.387 . S
C669 C671 1.387 . S
H670 C677 0.950 . S
C671 C669 1.387 . S
C671 C673 1.390 . S
C671 H675 0.950 . S
H672 C668 0.950 . S
C673 C671 1.390 . S
C673 C674 1.387 . S
C673 H676 0.950 . S
C674 C673 1.387 . S
C674 C677 1.387 . S
H675 C671 0.950 . S
H676 C673 0.950 . S
C677 C668 1.390 . S
C677 H670 0.950 . S
C677 C674 1.387 . S
C678 C679 1.387 . S
C678 H682 0.950 . S
C678 C687 1.390 . S
C679 C678 1.387 . S
C679 C681 1.387 . S
H680 C687 0.950 . S
C681 C679 1.387 . S
C681 C683 1.390 . S
C681 H685 0.950 . S
H682 C678 0.950 . S
C683 C681 1.390 . S
C683 C684 1.387 . S
C683 H686 0.950 . S
C684 C683 1.387 . S
C684 C687 1.387 . S
H685 C681 0.950 . S
H686 C683 0.950 . S
C687 C678 1.390 . S
C687 H680 0.950 . S
C687 C684 1.387 . S
C688 C689 1.387 . S
C688 H692 0.950 . S
C688 C697 1.390 . S
C689 C688 1.387 . S
C689 C691 1.387 . S
H690 C697 0.950 . S
C691 C689 1.387 . S
C691 C693 1.390 . S
C691 H695 0.950 . S
H692 C688 0.950 . S
C693 C691 1.390 . S
C693 C694 1.387 . S
C693 H696 0.950 . S
C694 C693 1.387 . S
C694 C697 1.387 . S
H695 C691 0.950 . S
H696 C693 0.950 . S
C697 C688 1.390 . S
C697 H690 0.950 . S
C697 C694 1.387 . S
C698 C699 1.387 . S
C698 H702 0.950 . S
C698 C707 1.390 . S
C699 C698 1.387 . S
C699 C701 1.387 . S
H700 C707 0.950 . S
C701 C699 1.387 . S
C701 C703 1.390 . S
C701 H705 0.950 . S
H702 C698 0.950 . S
C703 C701 1.390 . S
C703 C704 1.387 . S
C703 H706 0.950 . S
C704 C703 1.387 . S
C704 C707 1.387 . S
H705 C701 0.950 . S
H706 C703 0.950 . S
C707 C698 1.390 . S
C707 H700 0.950 . S
C707 C704 1.387 . S
C708 C709 1.387 . S
C708 H712 0.950 . S
C708 C717 1.390 . S
C709 C708 1.387 . S
C709 C711 1.387 . S
H710 C717 0.950 . S
C711 C709 1.387 . S
C711 C713 1.390 . S
C711 H715 0.950 . S
H712 C708 0.950 . S
C713 C711 1.390 . S
C713 C714 1.387 . S
C713 H716 0.950 . S
C714 C713 1.387 . S
C714 C717 1.387 . S
H715 C711 0.950 . S
H716 C713 0.950 . S
C717 C708 1.390 . S
C717 H710 0.950 . S
C717 C714 1.387 . S
C718 C719 1.387 . S
C718 H722 0.950 . S
C718 C727 1.390 . S
C719 C718 1.387 . S
C719 C721 1.387 . S
H720 C727 0.950 . S
C721 C719 1.387 . S
C721 C723 1.390 . S
C721 H725 0.950 . S
H722 C718 0.950 . S
C723 C721 1.390 . S
C723 C724 1.387 . S
C723 H726 0.950 . S
C724 C723 1.387 . S
C724 C727 1.387 . S
H725 C721 0.950 . S
H726 C723 0.950 . S
C727 C718 1.390 . S
C727 H720 0.950 . S
C727 C724 1.387 . S
C728 C729 1.387 . S
C728 H732 0.950 . S
C728 C737 1.390 1_556 S
C729 C728 1.387 . S
C729 C731 1.387 . S
H730 C737 0.950 . S
C731 C729 1.387 . S
C731 C733 1.390 1_556 S
C731 H735 0.950 . S
H732 C728 0.950 . S
C733 C731 1.390 1_554 S
C733 C734 1.387 . S
C733 H736 0.950 . S
C734 C733 1.387 . S
C734 C737 1.387 . S
H735 C731 0.950 . S
H736 C733 0.950 . S
C737 C728 1.390 1_554 S
C737 H730 0.950 . S
C737 C734 1.387 . S
C738 C739 1.387 . S
C738 H742 0.950 . S
C738 C747 1.390 1_554 S
C739 C738 1.387 . S
C739 C741 1.387 . S
H740 C747 0.950 . S
C741 C739 1.387 . S
C741 C743 1.390 1_554 S
C741 H745 0.950 . S
H742 C738 0.950 . S
C743 C741 1.390 1_556 S
C743 C744 1.387 . S
C743 H746 0.950 . S
C744 C743 1.387 . S
C744 C747 1.387 . S
H745 C741 0.950 . S
H746 C743 0.950 . S
C747 C738 1.390 1_556 S
C747 H740 0.950 . S
C747 C744 1.387 . S
C748 C749 1.387 . S
C748 H752 0.950 . S
C748 C757 1.390 1_554 S
C749 C748 1.387 . S
C749 C751 1.387 . S
H750 C757 0.950 . S
C751 C749 1.387 . S
C751 C753 1.390 1_554 S
C751 H755 0.950 . S
H752 C748 0.950 . S
C753 C751 1.390 1_556 S
C753 C754 1.387 . S
C753 H756 0.950 . S
C754 C753 1.387 . S
C754 C757 1.387 . S
H755 C751 0.950 . S
H756 C753 0.950 . S
C757 C748 1.390 1_556 S
C757 H750 0.950 . S
C757 C754 1.387 . S
C758 C759 1.387 . S
C758 H762 0.950 . S
C758 C767 1.390 1_556 S
C759 C758 1.387 . S
C759 C761 1.387 . S
H760 C767 0.950 . S
C761 C759 1.387 . S
C761 C763 1.390 1_556 S
C761 H765 0.950 . S
H762 C758 0.950 . S
C763 C761 1.390 1_554 S
C763 C764 1.387 . S
C763 H766 0.950 . S
C764 C763 1.387 . S
C764 C767 1.387 . S
H765 C761 0.950 . S
H766 C763 0.950 . S
C767 C758 1.390 1_554 S
C767 H760 0.950 . S
C767 C764 1.387 . S
C768 C769 1.387 . S
C768 H772 0.950 . S
C768 C777 1.390 1_545 S
C769 C768 1.387 . S
C769 C771 1.387 . S
H770 C777 0.950 . S
C771 C769 1.387 . S
C771 C773 1.390 1_545 S
C771 H775 0.950 . S
H772 C768 0.950 . S
C773 C771 1.390 1_565 S
C773 C774 1.387 . S
C773 H776 0.950 . S
C774 C773 1.387 . S
C774 C777 1.387 . S
H775 C771 0.950 . S
H776 C773 0.950 . S
C777 C768 1.390 1_565 S
C777 H770 0.950 . S
C777 C774 1.387 . S
C778 C779 1.387 . S
C778 H782 0.950 . S
C778 C787 1.390 1_655 S
C779 C778 1.387 . S
C779 C781 1.387 . S
H780 C787 0.950 . S
C781 C779 1.387 . S
C781 C783 1.390 1_655 S
C781 H785 0.950 . S
H782 C778 0.950 . S
C783 C781 1.390 1_455 S
C783 C784 1.387 . S
C783 H786 0.950 . S
C784 C783 1.387 . S
C784 C787 1.387 . S
H785 C781 0.950 . S
H786 C783 0.950 . S
C787 C778 1.390 1_455 S
C787 H780 0.950 . S
C787 C784 1.387 . S
C788 C789 1.387 . S
C788 H792 0.950 . S
C788 C797 1.390 1_545 S
C789 C788 1.387 . S
C789 C791 1.387 . S
H790 C797 0.950 . S
C791 C789 1.387 . S
C791 C793 1.390 1_545 S
C791 H795 0.950 . S
H792 C788 0.950 . S
C793 C791 1.390 1_565 S
C793 C794 1.387 . S
C793 H796 0.950 . S
C794 C793 1.387 . S
C794 C797 1.387 . S
H795 C791 0.950 . S
H796 C793 0.950 . S
C797 C788 1.390 1_565 S
C797 H790 0.950 . S
C797 C794 1.387 . S
C798 C799 1.387 . S
C798 H802 0.950 . S
C798 C807 1.390 1_455 S
C799 C798 1.387 . S
C799 C801 1.387 . S
H800 C807 0.950 . S
C801 C799 1.387 . S
C801 C803 1.390 1_455 S
C801 H805 0.950 . S
H802 C798 0.950 . S
C803 C801 1.390 1_655 S
C803 C804 1.387 . S
C803 H806 0.950 . S
C804 C803 1.387 . S
C804 C807 1.387 . S
H805 C801 0.950 . S
H806 C803 0.950 . S
C807 C798 1.390 1_655 S
C807 H800 0.950 . S
C807 C804 1.387 . S
C808 C809 1.387 . S
C808 H812 0.950 . S
C808 C817 1.390 1_565 S
C809 C808 1.387 . S
C809 C811 1.387 . S
H810 C817 0.950 . S
C811 C809 1.387 . S
C811 C813 1.390 1_565 S
C811 H815 0.950 . S
H812 C808 0.950 . S
C813 C811 1.390 1_545 S
C813 C814 1.387 . S
C813 H816 0.950 . S
C814 C813 1.387 . S
C814 C817 1.387 . S
H815 C811 0.950 . S
H816 C813 0.950 . S
C817 C808 1.390 1_545 S
C817 H810 0.950 . S
C817 C814 1.387 . S
C818 C819 1.387 . S
C818 H822 0.950 . S
C818 C827 1.390 1_655 S
C819 C818 1.387 . S
C819 C821 1.387 . S
H820 C827 0.950 . S
C821 C819 1.387 . S
C821 C823 1.390 1_655 S
C821 H825 0.950 . S
H822 C818 0.950 . S
C823 C821 1.390 1_455 S
C823 C824 1.387 . S
C823 H826 0.950 . S
C824 C823 1.387 . S
C824 C827 1.387 . S
H825 C821 0.950 . S
H826 C823 0.950 . S
C827 C818 1.390 1_455 S
C827 H820 0.950 . S
C827 C824 1.387 . S
C828 C829 1.387 . S
C828 H832 0.950 . S
C828 C837 1.390 1_565 S
C829 C828 1.387 . S
C829 C831 1.387 . S
H830 C837 0.950 . S
C831 C829 1.387 . S
C831 C833 1.390 1_565 S
C831 H835 0.950 . S
H832 C828 0.950 . S
C833 C831 1.390 1_545 S
C833 C834 1.387 . S
C833 H836 0.950 . S
C834 C833 1.387 . S
C834 C837 1.387 . S
H835 C831 0.950 . S
H836 C833 0.950 . S
C837 C828 1.390 1_545 S
C837 H830 0.950 . S
C837 C834 1.387 . S
C838 C839 1.387 . S
C838 H842 0.950 . S
C838 C847 1.390 1_655 S
C839 C838 1.387 . S
C839 C841 1.387 . S
H840 C847 0.950 . S
C841 C839 1.387 . S
C841 C843 1.390 1_655 S
C841 H845 0.950 . S
H842 C838 0.950 . S
C843 C841 1.390 1_455 S
C843 C844 1.387 . S
C843 H846 0.950 . S
C844 C843 1.387 . S
C844 C847 1.387 . S
H845 C841 0.950 . S
H846 C843 0.950 . S
C847 C838 1.390 1_455 S
C847 H840 0.950 . S
C847 C844 1.387 . S
C848 C849 1.387 . S
C848 H852 0.950 . S
C848 C857 1.390 . S
C849 C848 1.387 . S
C849 C851 1.387 . S
H850 C857 0.950 . S
C851 C849 1.387 . S
C851 C853 1.390 . S
C851 H855 0.950 . S
H852 C848 0.950 . S
C853 C851 1.390 . S
C853 C854 1.387 . S
C853 H856 0.950 . S
C854 C853 1.387 . S
C854 C857 1.387 . S
H855 C851 0.950 . S
H856 C853 0.950 . S
C857 C848 1.390 . S
C857 H850 0.950 . S
C857 C854 1.387 . S
C858 C859 1.387 . S
C858 H862 0.950 . S
C858 C867 1.390 . S
C859 C858 1.387 . S
C859 C861 1.387 . S
H860 C867 0.950 . S
C861 C859 1.387 . S
C861 C863 1.390 . S
C861 H865 0.950 . S
H862 C858 0.950 . S
C863 C861 1.390 . S
C863 C864 1.387 . S
C863 H866 0.950 . S
C864 C863 1.387 . S
C864 C867 1.387 . S
H865 C861 0.950 . S
H866 C863 0.950 . S
C867 C858 1.390 . S
C867 H860 0.950 . S
C867 C864 1.387 . S
C868 C869 1.387 . S
C868 H872 0.950 . S
C868 C877 1.390 . S
C869 C868 1.387 . S
C869 C871 1.387 . S
H870 C877 0.950 . S
C871 C869 1.387 . S
C871 C873 1.390 . S
C871 H875 0.950 . S
H872 C868 0.950 . S
C873 C871 1.390 . S
C873 C874 1.387 . S
C873 H876 0.950 . S
C874 C873 1.387 . S
C874 C877 1.387 . S
H875 C871 0.950 . S
H876 C873 0.950 . S
C877 C868 1.390 . S
C877 H870 0.950 . S
C877 C874 1.387 . S
C878 C879 1.387 . S
C878 H882 0.950 . S
C878 C887 1.390 . S
C879 C878 1.387 . S
C879 C881 1.387 . S
H880 C887 0.950 . S
C881 C879 1.387 . S
C881 C883 1.390 . S
C881 H885 0.950 . S
H882 C878 0.950 . S
C883 C881 1.390 . S
C883 C884 1.387 . S
C883 H886 0.950 . S
C884 C883 1.387 . S
C884 C887 1.387 . S
H885 C881 0.950 . S
H886 C883 0.950 . S
C887 C878 1.390 . S
C887 H880 0.950 . S
C887 C884 1.387 . S
C888 C889 1.387 . S
C888 H892 0.950 . S
C888 C897 1.390 . S
C889 C888 1.387 . S
C889 C891 1.387 . S
H890 C897 0.950 . S
C891 C889 1.387 . S
C891 C893 1.390 . S
C891 H895 0.950 . S
H892 C888 0.950 . S
C893 C891 1.390 . S
C893 C894 1.387 . S
C893 H896 0.950 . S
C894 C893 1.387 . S
C894 C897 1.387 . S
H895 C891 0.950 . S
H896 C893 0.950 . S
C897 C888 1.390 . S
C897 H890 0.950 . S
C897 C894 1.387 . S
C898 C899 1.387 . S
C898 H902 0.950 . S
C898 C907 1.390 . S
C899 C898 1.387 . S
C899 C901 1.387 . S
H900 C907 0.950 . S
C901 C899 1.387 . S
C901 C903 1.390 . S
C901 H905 0.950 . S
H902 C898 0.950 . S
C903 C901 1.390 . S
C903 C904 1.387 . S
C903 H906 0.950 . S
C904 C903 1.387 . S
C904 C907 1.387 . S
H905 C901 0.950 . S
H906 C903 0.950 . S
C907 C898 1.390 . S
C907 H900 0.950 . S
C907 C904 1.387 . S
C908 C909 1.387 . S
C908 H912 0.950 . S
C908 C917 1.390 . S
C909 C908 1.387 . S
C909 C911 1.387 . S
H910 C917 0.950 . S
C911 C909 1.387 . S
C911 C913 1.390 . S
C911 H915 0.950 . S
H912 C908 0.950 . S
C913 C911 1.390 . S
C913 C914 1.387 . S
C913 H916 0.950 . S
C914 C913 1.387 . S
C914 C917 1.387 . S
H915 C911 0.950 . S
H916 C913 0.950 . S
C917 C908 1.390 . S
C917 H910 0.950 . S
C917 C914 1.387 . S
C918 C919 1.387 . S
C918 H922 0.950 . S
C918 C927 1.390 . S
C919 C918 1.387 . S
C919 C921 1.387 . S
H920 C927 0.950 . S
C921 C919 1.387 . S
C921 C923 1.390 . S
C921 H925 0.950 . S
H922 C918 0.950 . S
C923 C921 1.390 . S
C923 C924 1.387 . S
C923 H926 0.950 . S
C924 C923 1.387 . S
C924 C927 1.387 . S
H925 C921 0.950 . S
H926 C923 0.950 . S
C927 C918 1.390 . S
C927 H920 0.950 . S
C927 C924 1.387 . S
C928 C929 1.387 . S
C928 H932 0.950 . S
C928 C937 1.390 . S
C929 C928 1.387 . S
C929 C931 1.387 . S
H930 C937 0.950 . S
C931 C929 1.387 . S
C931 C933 1.390 . S
C931 H935 0.950 . S
H932 C928 0.950 . S
C933 C931 1.390 . S
C933 C934 1.387 . S
C933 H936 0.950 . S
C934 C933 1.387 . S
C934 C937 1.387 . S
H935 C931 0.950 . S
H936 C933 0.950 . S
C937 C928 1.390 . S
C937 H930 0.950 . S
C937 C934 1.387 . S
C938 C939 1.387 . S
C938 H942 0.950 . S
C938 C947 1.390 . S
C939 C938 1.387 . S
C939 C941 1.387 . S
H940 C947 0.950 . S
C941 C939 1.387 . S
C941 C943 1.390 . S
C941 H945 0.950 . S
H942 C938 0.950 . S
C943 C941 1.390 . S
C943 C944 1.387 . S
C943 H946 0.950 . S
C944 C943 1.387 . S
C944 C947 1.387 . S
H945 C941 0.950 . S
H946 C943 0.950 . S
C947 C938 1.390 . S
C947 H940 0.950 . S
C947 C944 1.387 . S
C948 C949 1.387 . S
C948 H952 0.950 . S
C948 C957 1.390 . S
C949 C948 1.387 . S
C949 C951 1.387 . S
H950 C957 0.950 . S
C951 C949 1.387 . S
C951 C953 1.390 . S
C951 H955 0.950 . S
H952 C948 0.950 . S
C953 C951 1.390 . S
C953 C954 1.387 . S
C953 H956 0.950 . S
C954 C953 1.387 . S
C954 C957 1.387 . S
H955 C951 0.950 . S
H956 C953 0.950 . S
C957 C948 1.390 . S
C957 H950 0.950 . S
C957 C954 1.387 . S
C958 C959 1.387 . S
C958 H962 0.950 . S
C958 C967 1.390 . S
C959 C958 1.387 . S
C959 C961 1.387 . S
H960 C967 0.950 . S
C961 C959 1.387 . S
C961 C963 1.390 . S
C961 H965 0.950 . S
H962 C958 0.950 . S
C963 C961 1.390 . S
C963 C964 1.387 . S
C963 H966 0.950 . S
C964 C963 1.387 . S
C964 C967 1.387 . S
H965 C961 0.950 . S
H966 C963 0.950 . S
C967 C958 1.390 . S
C967 H960 0.950 . S
C967 C964 1.387 . S
C968 C969 1.387 . S
C968 H972 0.950 . S
C968 C977 1.390 . S
C969 C968 1.387 . S
C969 C971 1.387 . S
H970 C977 0.950 . S
C971 C969 1.387 . S
C971 C973 1.390 . S
C971 H975 0.950 . S
H972 C968 0.950 . S
C973 C971 1.390 . S
C973 C974 1.387 . S
C973 H976 0.950 . S
C974 C973 1.387 . S
C974 C977 1.387 . S
H975 C971 0.950 . S
H976 C973 0.950 . S
C977 C968 1.390 . S
C977 H970 0.950 . S
C977 C974 1.387 . S
C978 C979 1.387 . S
C978 H982 0.950 . S
C978 C987 1.390 . S
C979 C978 1.387 . S
C979 C981 1.387 . S
H980 C987 0.950 . S
C981 C979 1.387 . S
C981 C983 1.390 . S
C981 H985 0.950 . S
H982 C978 0.950 . S
C983 C981 1.390 . S
C983 C984 1.387 . S
C983 H986 0.950 . S
C984 C983 1.387 . S
C984 C987 1.387 . S
H985 C981 0.950 . S
H986 C983 0.950 . S
C987 C978 1.390 . S
C987 H980 0.950 . S
C987 C984 1.387 . S
C988 C989 1.387 . S
C988 H992 0.950 . S
C988 C997 1.390 . S
C989 C988 1.387 . S
C989 C991 1.387 . S
H990 C997 0.950 . S
C991 C989 1.387 . S
C991 C993 1.390 . S
C991 H995 0.950 . S
H992 C988 0.950 . S
C993 C991 1.390 . S
C993 C994 1.387 . S
C993 H996 0.950 . S
C994 C993 1.387 . S
C994 C997 1.387 . S
H995 C991 0.950 . S
H996 C993 0.950 . S
C997 C988 1.390 . S
C997 H990 0.950 . S
C997 C994 1.387 . S
C998 C999 1.387 . S
C998 H1002 0.950 . S
C998 C1007 1.390 . S
C999 C998 1.387 . S
C999 C1001 1.387 . S
H1000 C1007 0.950 . S
C1001 C999 1.387 . S
C1001 C1003 1.390 . S
C1001 H1005 0.950 . S
H1002 C998 0.950 . S
C1003 C1001 1.390 . S
C1003 C1004 1.387 . S
C1003 H1006 0.950 . S
C1004 C1003 1.387 . S
C1004 C1007 1.387 . S
H1005 C1001 0.950 . S
H1006 C1003 0.950 . S
C1007 C998 1.390 . S
C1007 H1000 0.950 . S
C1007 C1004 1.387 . S
C1008 C1009 1.387 . S
C1008 H1012 0.950 . S
C1008 C1017 1.390 . S
C1009 C1008 1.387 . S
C1009 C1011 1.387 . S
H1010 C1017 0.950 . S
C1011 C1009 1.387 . S
C1011 C1013 1.390 . S
C1011 H1015 0.950 . S
H1012 C1008 0.950 . S
C1013 C1011 1.390 . S
C1013 C1014 1.387 . S
C1013 H1016 0.950 . S
C1014 C1013 1.387 . S
C1014 C1017 1.387 . S
H1015 C1011 0.950 . S
H1016 C1013 0.950 . S
C1017 C1008 1.390 . S
C1017 H1010 0.950 . S
C1017 C1014 1.387 . S
C1018 C1019 1.387 . S
C1018 H1022 0.950 . S
C1018 C1027 1.390 . S
C1019 C1018 1.387 . S
C1019 C1021 1.387 . S
H1020 C1027 0.950 . S
C1021 C1019 1.387 . S
C1021 C1023 1.390 . S
C1021 H1025 0.950 . S
H1022 C1018 0.950 . S
C1023 C1021 1.390 . S
C1023 C1024 1.387 . S
C1023 H1026 0.950 . S
C1024 C1023 1.387 . S
C1024 C1027 1.387 . S
H1025 C1021 0.950 . S
H1026 C1023 0.950 . S
C1027 C1018 1.390 . S
C1027 H1020 0.950 . S
C1027 C1024 1.387 . S
C1028 C1029 1.387 . S
C1028 H1032 0.950 . S
C1028 C1037 1.390 . S
C1029 C1028 1.387 . S
C1029 C1031 1.387 . S
H1030 C1037 0.950 . S
C1031 C1029 1.387 . S
C1031 C1033 1.390 . S
C1031 H1035 0.950 . S
H1032 C1028 0.950 . S
C1033 C1031 1.390 . S
C1033 C1034 1.387 . S
C1033 H1036 0.950 . S
C1034 C1033 1.387 . S
C1034 C1037 1.387 . S
H1035 C1031 0.950 . S
H1036 C1033 0.950 . S
C1037 C1028 1.390 . S
C1037 H1030 0.950 . S
C1037 C1034 1.387 . S
C1038 C1039 1.387 . S
C1038 H1042 0.950 . S
C1038 C1047 1.390 . S
C1039 C1038 1.387 . S
C1039 C1041 1.387 . S
H1040 C1047 0.950 . S
C1041 C1039 1.387 . S
C1041 C1043 1.390 . S
C1041 H1045 0.950 . S
H1042 C1038 0.950 . S
C1043 C1041 1.390 . S
C1043 C1044 1.387 . S
C1043 H1046 0.950 . S
C1044 C1043 1.387 . S
C1044 C1047 1.387 . S
H1045 C1041 0.950 . S
H1046 C1043 0.950 . S
C1047 C1038 1.390 . S
C1047 H1040 0.950 . S
C1047 C1044 1.387 . S
C1048 C1049 1.387 . S
C1048 H1052 0.950 . S
C1048 C1057 1.390 . S
C1049 C1048 1.387 . S
C1049 C1051 1.387 . S
H1050 C1057 0.950 . S
C1051 C1049 1.387 . S
C1051 C1053 1.390 . S
C1051 H1055 0.950 . S
H1052 C1048 0.950 . S
C1053 C1051 1.390 . S
C1053 C1054 1.387 . S
C1053 H1056 0.950 . S
C1054 C1053 1.387 . S
C1054 C1057 1.387 . S
H1055 C1051 0.950 . S
H1056 C1053 0.950 . S
C1057 C1048 1.390 . S
C1057 H1050 0.950 . S
C1057 C1054 1.387 . S
C1058 C1059 1.387 . S
C1058 H1062 0.950 . S
C1058 C1067 1.390 . S
C1059 C1058 1.387 . S
C1059 C1061 1.387 . S
H1060 C1067 0.950 . S
C1061 C1059 1.387 . S
C1061 C1063 1.390 . S
C1061 H1065 0.950 . S
H1062 C1058 0.950 . S
C1063 C1061 1.390 . S
C1063 C1064 1.387 . S
C1063 H1066 0.950 . S
C1064 C1063 1.387 . S
C1064 C1067 1.387 . S
H1065 C1061 0.950 . S
H1066 C1063 0.950 . S
C1067 C1058 1.390 . S
C1067 H1060 0.950 . S
C1067 C1064 1.387 . S
C1068 C1069 1.387 . S
C1068 H1072 0.950 . S
C1068 C1077 1.390 . S
C1069 C1068 1.387 . S
C1069 C1071 1.387 . S
H1070 C1077 0.950 . S
C1071 C1069 1.387 . S
C1071 C1073 1.390 . S
C1071 H1075 0.950 . S
H1072 C1068 0.950 . S
C1073 C1071 1.390 . S
C1073 C1074 1.387 . S
C1073 H1076 0.950 . S
C1074 C1073 1.387 . S
C1074 C1077 1.387 . S
H1075 C1071 0.950 . S
H1076 C1073 0.950 . S
C1077 C1068 1.390 . S
C1077 H1070 0.950 . S
C1077 C1074 1.387 . S
C1078 C1079 1.387 . S
C1078 H1082 0.950 . S
C1078 C1087 1.390 . S
C1079 C1078 1.387 . S
C1079 C1081 1.387 . S
H1080 C1087 0.950 . S
C1081 C1079 1.387 . S
C1081 C1083 1.390 . S
C1081 H1085 0.950 . S
H1082 C1078 0.950 . S
C1083 C1081 1.390 . S
C1083 C1084 1.387 . S
C1083 H1086 0.950 . S
C1084 C1083 1.387 . S
C1084 C1087 1.387 . S
H1085 C1081 0.950 . S
H1086 C1083 0.950 . S
C1087 C1078 1.390 . S
C1087 H1080 0.950 . S
C1087 C1084 1.387 . S
C449 C415 1.542 . S
C454 C9 1.540 . S
C459 C23 1.540 . S
C464 C429 1.542 . S
C469 C443 1.540 . S
C474 C37 1.542 . S
C479 C401 1.540 . S
C484 C51 1.542 . S
C489 C65 1.542 . S
C494 C387 1.540 . S
C499 C345 1.542 . S
C504 C79 1.540 . S
C509 C93 1.542 . S
C514 C359 1.540 . S
C519 C373 1.542 . S
C524 C107 1.540 . S
C529 C121 1.542 . S
C534 C303 1.540 . S
C539 C135 1.540 . S
C544 C317 1.542 . S
C549 C331 1.542 . S
C554 C149 1.540 . S
C559 C163 1.542 . S
C564 C289 1.540 . S
C569 C275 1.540 . S
C574 C177 1.542 . S
C579 C233 1.542 . S
C584 C191 1.540 . S
C589 C205 1.540 . S
C594 C247 1.542 . S
C599 C219 1.542 . S
C604 C261 1.540 . S
C609 C3 1.440 . S
C614 C143 1.439 . S
C619 C157 1.439 . S
C624 C17 1.440 . S
C629 C115 1.439 . S
C634 C31 1.440 . S
C639 C129 1.440 . S
C644 C45 1.439 . S
C649 C59 1.439 . S
C654 C199 1.440 . S
C659 C213 1.440 . S
C664 C73 1.439 . S
C669 C171 1.440 . S
C674 C87 1.439 . S
C679 C185 1.440 . S
C684 C101 1.439 . S
C689 C227 1.440 . S
C694 C367 1.439 . S
C699 C381 1.440 . S
C704 C241 1.439 . S
C709 C339 1.439 . S
C714 C255 1.440 . S
C719 C269 1.440 . S
C724 C353 1.439 . S
C729 C283 1.440 . S
C734 C423 1.439 . S
C739 C437 1.439 . S
C744 C297 1.440 . S
C749 C395 1.440 . S
C754 C311 1.439 . S
C759 C325 1.439 . S
C764 C409 1.440 . S
C769 C8 1.533 . S
C774 C64 1.533 . S
C779 C22 1.533 . S
C784 C78 1.533 . S
C789 C92 1.533 . S
C794 C36 1.533 . S
C799 C50 1.533 . S
C804 C106 1.533 . S
C809 C120 1.532 . S
C814 C176 1.532 . S
C819 C190 1.532 . S
C824 C134 1.532 . S
C829 C204 1.533 . S
C834 C148 1.533 . S
C839 C162 1.533 . S
C844 C218 1.533 . S
C849 C232 1.533 . S
C854 C288 1.533 . S
C859 C302 1.533 . S
C864 C246 1.533 . S
C869 C260 1.532 . S
C874 C316 1.532 . S
C879 C330 1.532 . S
C884 C274 1.532 . S
C889 C400 1.533 . S
C894 C344 1.533 . S
C899 C358 1.532 . S
C904 C414 1.532 . S
C909 C372 1.532 . S
C914 C428 1.532 . S
C919 C386 1.532 . S
C924 C442 1.532 . S
C929 C7 1.370 . S
C934 C77 1.368 . S
C939 C21 1.370 . S
C944 C91 1.368 . S
C949 C105 1.369 . S
C954 C35 1.371 . S
C959 C63 1.370 . S
C964 C49 1.368 . S
C969 C189 1.368 . S
C974 C119 1.370 . S
C979 C203 1.370 . S
C984 C133 1.368 . S
C989 C217 1.369 . S
C994 C147 1.371 . S
C999 C161 1.371 . S
C1004 C175 1.369 . S
C1009 C231 1.372 . S
C1014 C301 1.370 . S
C1019 C315 1.370 . S
C1024 C245 1.372 . S
C1029 C329 1.371 . S
C1034 C259 1.369 . S
C1039 C273 1.371 . S
C1044 C287 1.369 . S
C1049 C413 1.368 . S
C1054 C343 1.370 . S
C1059 C357 1.371 . S
C1064 C427 1.370 . S
C1069 C371 1.370 . S
C1074 C441 1.368 . S
C1079 C399 1.369 . S
C1084 C385 1.371 . S
