# Generated by pormake.
# Topology wme, (6)-cn, num edge types: 1
# Building blocks:
#     Node 0, Type 0, BuildingBlock: CUKXOW_clean_sbu_0, # of connection points: 6
#     Node 1, Type 0, BuildingBlock: CUKXOW_clean_sbu_0, # of connection points: 6
#     Node 2, Type 0, BuildingBlock: CUKXOW_clean_sbu_0, # of connection points: 6
#     Node 3, Type 0, BuildingBlock: CUKXOW_clean_sbu_0, # of connection points: 6
#     Node 4, Type 0, BuildingBlock: CUKXOW_clean_sbu_0, # of connection points: 6
#     Node 5, Type 0, BuildingBlock: CUKXOW_clean_sbu_0, # of connection points: 6
#     Node 6, Type 0, BuildingBlock: CUKXOW_clean_sbu_0, # of connection points: 6
#     Node 7, Type 0, BuildingBlock: CUKXOW_clean_sbu_0, # of connection points: 6
#     Node 8, Type 0, BuildingBlock: CUKXOW_clean_sbu_0, # of connection points: 6
#     Node 9, Type 0, BuildingBlock: CUKXOW_clean_sbu_0, # of connection points: 6
#     Node 10, Type 0, BuildingBlock: CUKXOW_clean_sbu_0, # of connection points: 6
#     Node 11, Type 0, BuildingBlock: CUKXOW_clean_sbu_0, # of connection points: 6
#     Edge 12, Type (0, 0), BuildingBlock: XIVTED_clean_linker_0, # of connection points: 2
#     Edge 13, Type (0, 0), BuildingBlock: XIVTED_clean_linker_0, # of connection points: 2
#     Edge 14, Type (0, 0), BuildingBlock: XIVTED_clean_linker_0, # of connection points: 2
#     Edge 15, Type (0, 0), BuildingBlock: XIVTED_clean_linker_0, # of connection points: 2
#     Edge 16, Type (0, 0), BuildingBlock: XIVTED_clean_linker_0, # of connection points: 2
#     Edge 17, Type (0, 0), BuildingBlock: XIVTED_clean_linker_0, # of connection points: 2
#     Edge 18, Type (0, 0), BuildingBlock: XIVTED_clean_linker_0, # of connection points: 2
#     Edge 19, Type (0, 0), BuildingBlock: XIVTED_clean_linker_0, # of connection points: 2
#     Edge 20, Type (0, 0), BuildingBlock: XIVTED_clean_linker_0, # of connection points: 2
#     Edge 21, Type (0, 0), BuildingBlock: XIVTED_clean_linker_0, # of connection points: 2
#     Edge 22, Type (0, 0), BuildingBlock: XIVTED_clean_linker_0, # of connection points: 2
#     Edge 23, Type (0, 0), BuildingBlock: XIVTED_clean_linker_0, # of connection points: 2
#     Edge 24, Type (0, 0), BuildingBlock: XIVTED_clean_linker_0, # of connection points: 2
#     Edge 25, Type (0, 0), BuildingBlock: XIVTED_clean_linker_0, # of connection points: 2
#     Edge 26, Type (0, 0), BuildingBlock: XIVTED_clean_linker_0, # of connection points: 2
#     Edge 27, Type (0, 0), BuildingBlock: XIVTED_clean_linker_0, # of connection points: 2
#     Edge 28, Type (0, 0), BuildingBlock: XIVTED_clean_linker_0, # of connection points: 2
#     Edge 29, Type (0, 0), BuildingBlock: XIVTED_clean_linker_0, # of connection points: 2
#     Edge 30, Type (0, 0), BuildingBlock: XIVTED_clean_linker_0, # of connection points: 2
#     Edge 31, Type (0, 0), BuildingBlock: XIVTED_clean_linker_0, # of connection points: 2
#     Edge 32, Type (0, 0), BuildingBlock: XIVTED_clean_linker_0, # of connection points: 2
#     Edge 33, Type (0, 0), BuildingBlock: XIVTED_clean_linker_0, # of connection points: 2
#     Edge 34, Type (0, 0), BuildingBlock: XIVTED_clean_linker_0, # of connection points: 2
#     Edge 35, Type (0, 0), BuildingBlock: XIVTED_clean_linker_0, # of connection points: 2
#     Edge 36, Type (0, 0), BuildingBlock: XIVTED_clean_linker_0, # of connection points: 2
#     Edge 37, Type (0, 0), BuildingBlock: XIVTED_clean_linker_0, # of connection points: 2
#     Edge 38, Type (0, 0), BuildingBlock: XIVTED_clean_linker_0, # of connection points: 2
#     Edge 39, Type (0, 0), BuildingBlock: XIVTED_clean_linker_0, # of connection points: 2
#     Edge 40, Type (0, 0), BuildingBlock: XIVTED_clean_linker_0, # of connection points: 2
#     Edge 41, Type (0, 0), BuildingBlock: XIVTED_clean_linker_0, # of connection points: 2
#     Edge 42, Type (0, 0), BuildingBlock: XIVTED_clean_linker_0, # of connection points: 2
#     Edge 43, Type (0, 0), BuildingBlock: XIVTED_clean_linker_0, # of connection points: 2
#     Edge 44, Type (0, 0), BuildingBlock: XIVTED_clean_linker_0, # of connection points: 2
#     Edge 45, Type (0, 0), BuildingBlock: XIVTED_clean_linker_0, # of connection points: 2
#     Edge 46, Type (0, 0), BuildingBlock: XIVTED_clean_linker_0, # of connection points: 2
#     Edge 47, Type (0, 0), BuildingBlock: XIVTED_clean_linker_0, # of connection points: 2
# Relax obj value: 0.055
# Max RMSD: 0.148
# Mean RMSD: 0.148
data_MOF--net-wme--node1-CUKXOW_clean_sbu_0--edge1-XIVTED_clean_linker_0
_symmetry_space_group_name_H-M    P1
_symmetry_Int_Tables_number       1
_symmetry_cell_setting            triclinic
loop_
_symmetry_equiv_pos_as_xyz
'x, y, z'
_cell_length_a     32.30533
_cell_length_b     32.258502
_cell_length_c     57.079133
_cell_angle_alpha  90.024545
_cell_angle_beta   90.008761
_cell_angle_gamma 120.03047
loop_
_atom_site_label
_atom_site_type_symbol
_atom_site_fract_x
_atom_site_fract_y
_atom_site_fract_z
_atom_type_partial_charge
Tb0 Tb 0.24961 0.38543 0.11992 0.0
C1 C 0.21692 0.32476 0.07407 0.0
Tb2 Tb 0.1468 0.3006 0.11765 0.0
O3 O 0.2795 0.33781 0.11524 0.0
O4 O 0.21301 0.31333 0.13086 0.0
O5 O 0.24648 0.36767 0.08299 0.0
C6 C 0.06333 0.21985 0.11252 0.0
O7 O 0.17813 0.29226 0.08531 0.0
C8 C 0.15528 0.38561 0.11699 0.0
C9 C 0.18634 0.34949 0.16624 0.0
O10 O 0.07772 0.25848 0.10023 0.0
O11 O 0.09626 0.22642 0.12754 0.0
O12 O 0.11885 0.34788 0.12561 0.0
O13 O 0.18298 0.37387 0.10725 0.0
O14 O 0.15549 0.30927 0.15536 0.0
O15 O 0.22214 0.38617 0.15508 0.0
C16 C 0.326 0.47324 0.12212 0.0
O17 O 0.28841 0.46083 0.10932 0.0
O18 O 0.32056 0.4362 0.13372 0.0
C19 C 0.24137 0.30048 0.12328 0.0
Tb20 Tb 0.88062 0.24775 0.61956 0.0
C21 C 0.89853 0.21213 0.57038 0.0
Tb22 Tb 0.85363 0.14282 0.61381 0.0
O23 O 0.94859 0.26585 0.6371 0.0
O24 O 0.91664 0.20953 0.61352 0.0
O25 O 0.89185 0.24446 0.58169 0.0
C26 C 0.84393 0.05551 0.61492 0.0
O27 O 0.8913 0.17207 0.58076 0.0
C28 C 0.78413 0.16145 0.60604 0.0
C29 C 0.84893 0.1829 0.66422 0.0
O30 O 0.82054 0.06889 0.60143 0.0
O31 O 0.87319 0.09143 0.62787 0.0
O32 O 0.78719 0.12689 0.59625 0.0
O33 O 0.81681 0.18055 0.62106 0.0
O34 O 0.85257 0.14961 0.65207 0.0
O35 O 0.85109 0.22104 0.65415 0.0
C36 C 0.87597 0.32803 0.61641 0.0
O37 O 0.90644 0.32262 0.62902 0.0
O38 O 0.84851 0.28841 0.60535 0.0
C39 C 0.94933 0.2289 0.62842 0.0
Tb40 Tb 0.63907 0.87767 0.11956 0.0
C41 C 0.69896 0.90038 0.07359 0.0
Tb42 Tb 0.72255 0.85725 0.11883 0.0
O43 O 0.6881 0.95442 0.11357 0.0
O44 O 0.71085 0.91227 0.13078 0.0
O45 O 0.65655 0.88891 0.08249 0.0
C46 C 0.80299 0.85341 0.11497 0.0
O47 O 0.7311 0.89423 0.08534 0.0
C48 C 0.63701 0.78173 0.11871 0.0
C49 C 0.67311 0.85133 0.16704 0.0
O50 O 0.76407 0.82775 0.10309 0.0
O51 O 0.79688 0.88185 0.12884 0.0
O52 O 0.67441 0.78262 0.12746 0.0
O53 O 0.64936 0.82078 0.10832 0.0
O54 O 0.71229 0.85672 0.15657 0.0
O55 O 0.63832 0.85352 0.1556 0.0
C56 C 0.55241 0.8691 0.12152 0.0
O57 O 0.59063 0.90213 0.13179 0.0
O58 O 0.56295 0.84076 0.11015 0.0
C59 C 0.7246 0.9531 0.12236 0.0
Tb60 Tb 0.76719 0.6318 0.61912 0.0
C61 C 0.80504 0.69231 0.5735 0.0
Tb62 Tb 0.86933 0.71608 0.61905 0.0
O63 O 0.73817 0.67973 0.61338 0.0
O64 O 0.8025 0.70342 0.63107 0.0
O65 O 0.77604 0.64869 0.58183 0.0
C66 C 0.95324 0.79675 0.61469 0.0
O67 O 0.84123 0.72545 0.58591 0.0
C68 C 0.86147 0.63141 0.61825 0.0
C69 C 0.82511 0.6671 0.66735 0.0
O70 O 0.9398 0.75767 0.60293 0.0
O71 O 0.91917 0.79068 0.62884 0.0
O72 O 0.89633 0.66883 0.62802 0.0
O73 O 0.83459 0.64315 0.60751 0.0
O74 O 0.85841 0.70636 0.65667 0.0
O75 O 0.78838 0.63178 0.65588 0.0
C76 C 0.68895 0.54475 0.61921 0.0
O77 O 0.6896 0.58499 0.62173 0.0
O78 O 0.73253 0.55333 0.61705 0.0
C79 C 0.77502 0.71652 0.62257 0.0
Tb80 Tb 0.14731 0.77374 0.12124 0.0
C81 C 0.12077 0.80646 0.07496 0.0
Tb82 Tb 0.16518 0.87648 0.11894 0.0
O83 O 0.06998 0.74387 0.11622 0.0
O84 O 0.11166 0.81022 0.13216 0.0
O85 O 0.13393 0.77704 0.08418 0.0
C86 C 0.1679 0.96025 0.11423 0.0
O87 O 0.12639 0.84515 0.08616 0.0
C88 C 0.24184 0.86823 0.11822 0.0
C89 C 0.17532 0.83713 0.16756 0.0
O90 O 0.19318 0.94662 0.10231 0.0
O91 O 0.14042 0.92632 0.12859 0.0
O92 O 0.24044 0.90459 0.1269 0.0
O93 O 0.20239 0.84042 0.10849 0.0
O94 O 0.16566 0.86787 0.15676 0.0
O95 O 0.17616 0.80142 0.15629 0.0
C96 C 0.15734 0.69653 0.12373 0.0
O97 O 0.12607 0.70261 0.13521 0.0
O98 O 0.18305 0.73399 0.11091 0.0
C99 C 0.07062 0.78184 0.12437 0.0
Tb100 Tb 0.38105 0.13282 0.62362 0.0
C101 C 0.32379 0.1197 0.57719 0.0
Tb102 Tb 0.30148 0.15922 0.62286 0.0
O103 O 0.33008 0.0577 0.61497 0.0
O104 O 0.30814 0.09987 0.63273 0.0
O105 O 0.36654 0.13288 0.58621 0.0
C106 C 0.22531 0.16974 0.62889 0.0
O107 O 0.29025 0.12259 0.58932 0.0
C108 C 0.38759 0.2272 0.60982 0.0
C109 C 0.34703 0.15415 0.6718 0.0
O110 O 0.22502 0.1337 0.61855 0.0
O111 O 0.26844 0.19974 0.63584 0.0
O112 O 0.34808 0.22303 0.60186 0.0
O113 O 0.377 0.19607 0.62539 0.0
O114 O 0.31159 0.15583 0.66066 0.0
O115 O 0.38011 0.14833 0.66079 0.0
C116 C 0.4669 0.14064 0.62311 0.0
O117 O 0.4295 0.1068 0.63365 0.0
O118 O 0.45586 0.16975 0.61291 0.0
C119 C 0.29361 0.05993 0.62307 0.0
Tb120 Tb 0.64028 0.77354 0.38894 0.0
C121 C 0.69945 0.80858 0.43504 0.0
Tb122 Tb 0.7241 0.87711 0.3904 0.0
O123 O 0.68848 0.74493 0.39478 0.0
O124 O 0.71241 0.81055 0.37805 0.0
O125 O 0.65686 0.77867 0.42601 0.0
C126 C 0.80439 0.96155 0.39499 0.0
O127 O 0.73218 0.84703 0.42355 0.0
C128 C 0.63869 0.86748 0.3906 0.0
C129 C 0.67498 0.83481 0.34188 0.0
O130 O 0.76558 0.94731 0.40708 0.0
O131 O 0.7983 0.92784 0.38052 0.0
O132 O 0.67622 0.90403 0.38193 0.0
O133 O 0.65086 0.84047 0.40076 0.0
O134 O 0.71419 0.86828 0.35254 0.0
O135 O 0.63991 0.79774 0.35312 0.0
C136 C 0.553 0.69641 0.38697 0.0
O137 O 0.59085 0.70078 0.3767 0.0
O138 O 0.56428 0.73551 0.39831 0.0
C139 C 0.72551 0.78284 0.38636 0.0
Tb140 Tb 0.87322 0.63105 0.88958 0.0
C141 C 0.90129 0.69267 0.93537 0.0
Tb142 Tb 0.857 0.71678 0.89103 0.0
O143 O 0.95066 0.67813 0.89444 0.0
O144 O 0.90953 0.70265 0.87795 0.0
O145 O 0.88833 0.64973 0.92652 0.0
C146 C 0.85819 0.79976 0.89413 0.0
O147 O 0.89534 0.72513 0.92386 0.0
C148 C 0.77946 0.63272 0.89235 0.0
C149 C 0.845 0.66542 0.8429 0.0
O150 O 0.83196 0.76215 0.90678 0.0
O151 O 0.88422 0.79083 0.87999 0.0
O152 O 0.78149 0.67067 0.88353 0.0
O153 O 0.81879 0.64384 0.90207 0.0
O154 O 0.85538 0.70624 0.85342 0.0
O155 O 0.84406 0.62902 0.8544 0.0
C156 C 0.8631 0.5438 0.88713 0.0
O157 O 0.89386 0.58104 0.87541 0.0
O158 O 0.83783 0.55561 0.90027 0.0
C159 C 0.95052 0.7153 0.88574 0.0
Tb160 Tb 0.25103 0.87595 0.39018 0.0
C161 C 0.21741 0.90329 0.43621 0.0
Tb162 Tb 0.14824 0.85814 0.39204 0.0
O163 O 0.2811 0.95346 0.39515 0.0
O164 O 0.21482 0.91163 0.37922 0.0
O165 O 0.24766 0.89096 0.42715 0.0
C166 C 0.06469 0.85562 0.39641 0.0
O167 O 0.17851 0.89658 0.42491 0.0
C168 C 0.15634 0.78134 0.39224 0.0
C169 C 0.18871 0.85017 0.34338 0.0
O170 O 0.07793 0.83005 0.40837 0.0
O171 O 0.09883 0.88322 0.3822 0.0
O172 O 0.12022 0.78307 0.38356 0.0
O173 O 0.18397 0.8205 0.40232 0.0
O174 O 0.15768 0.85915 0.35431 0.0
O175 O 0.22431 0.84902 0.35462 0.0
C176 C 0.32746 0.86462 0.38802 0.0
O177 O 0.32205 0.89629 0.37649 0.0
O178 O 0.28976 0.83924 0.40075 0.0
C179 C 0.24313 0.95273 0.38698 0.0
Tb180 Tb 0.38428 0.24206 0.8894 0.0
C181 C 0.33338 0.21106 0.93965 0.0
Tb182 Tb 0.30031 0.13457 0.89761 0.0
O183 O 0.33331 0.2591 0.87189 0.0
O184 O 0.31054 0.20416 0.89598 0.0
O185 O 0.36917 0.24424 0.92676 0.0
C186 C 0.21597 0.05444 0.90011 0.0
O187 O 0.30195 0.16758 0.9315 0.0
C188 C 0.38585 0.14228 0.89789 0.0
C189 C 0.34592 0.17082 0.84728 0.0
O190 O 0.25051 0.06789 0.9152 0.0
O191 O 0.22858 0.08672 0.88379 0.0
O192 O 0.34629 0.1022 0.90099 0.0
O193 O 0.37452 0.17384 0.8954 0.0
O194 O 0.30652 0.14217 0.85941 0.0
O195 O 0.38469 0.2069 0.85697 0.0
C196 C 0.46929 0.32219 0.89057 0.0
O197 O 0.43427 0.31412 0.8766 0.0
O198 O 0.45632 0.28526 0.90402 0.0
C199 C 0.29616 0.22282 0.88134 0.0
Tb200 Tb 0.15018 0.38575 0.38817 0.0
C201 C 0.1236 0.3254 0.43399 0.0
Tb202 Tb 0.16778 0.30051 0.3899 0.0
O203 O 0.07271 0.33789 0.3931 0.0
O204 O 0.11448 0.31374 0.37698 0.0
O205 O 0.13715 0.36837 0.42514 0.0
C206 C 0.17029 0.21948 0.39463 0.0
O207 O 0.12894 0.29249 0.42253 0.0
C208 C 0.24451 0.38525 0.39054 0.0
C209 C 0.17747 0.35056 0.34162 0.0
O210 O 0.14326 0.22605 0.38003 0.0
O211 O 0.19527 0.25826 0.40673 0.0
O212 O 0.24288 0.34742 0.38181 0.0
O213 O 0.20527 0.37375 0.40045 0.0
O214 O 0.16774 0.30997 0.35222 0.0
O215 O 0.17856 0.38713 0.35302 0.0
C216 C 0.16082 0.47338 0.38637 0.0
O217 O 0.12912 0.43624 0.37485 0.0
O218 O 0.18663 0.46119 0.39882 0.0
C219 C 0.07339 0.30073 0.38473 0.0
Tb220 Tb 0.77525 0.14088 0.88681 0.0
C221 C 0.81144 0.11481 0.932 0.0
Tb222 Tb 0.8786 0.16106 0.88753 0.0
O223 O 0.74768 0.06356 0.89138 0.0
O224 O 0.81248 0.10714 0.87465 0.0
O225 O 0.78218 0.1292 0.92378 0.0
C226 C 0.96196 0.16277 0.88808 0.0
O227 O 0.84869 0.11953 0.91978 0.0
C228 C 0.86923 0.23694 0.89028 0.0
C229 C 0.83494 0.16853 0.83955 0.0
O230 O 0.94459 0.17533 0.90542 0.0
O231 O 0.93211 0.14851 0.87077 0.0
O232 O 0.90648 0.23717 0.88182 0.0
O233 O 0.84189 0.19664 0.89932 0.0
O234 O 0.86683 0.16027 0.84998 0.0
O235 O 0.79914 0.16824 0.85119 0.0
C236 C 0.69621 0.14722 0.88499 0.0
O237 O 0.73693 0.17981 0.89342 0.0
O238 O 0.70008 0.11129 0.87762 0.0
C239 C 0.78551 0.06563 0.88223 0.0
H240 H 0.11988 0.99458 0.13969 0.0
H241 H 0.28596 0.26513 0.0959 0.0
H242 H 0.23081 0.03631 0.08783 0.0
H243 H 0.17111 0.22221 0.14555 0.0
H244 H 0.26532 0.18125 0.092 0.0
H245 H 0.13609 0.07729 0.14103 0.0
C246 C 0.14736 0.02113 0.12844 0.0
C247 C 0.17415 0.00877 0.11367 0.0
C248 C 0.24454 0.19012 0.10372 0.0
C249 C 0.1933 0.10346 0.11526 0.0
C250 C 0.25649 0.23798 0.10603 0.0
C251 C 0.23014 0.25039 0.12107 0.0
C252 C 0.20614 0.15453 0.11668 0.0
C253 C 0.19201 0.21394 0.13362 0.0
C254 C 0.15671 0.06835 0.12924 0.0
C255 C 0.20938 0.04445 0.09947 0.0
N256 N 0.18122 0.16767 0.13121 0.0
N257 N 0.21814 0.09024 0.10071 0.0
H258 H 0.22171 0.24331 0.65066 0.0
H259 H 0.95549 0.1567 0.60746 0.0
H260 H 0.1348 0.11235 0.61249 0.0
H261 H 0.03187 0.27615 0.65443 0.0
H262 H 0.02095 0.13998 0.6096 0.0
H263 H 0.15321 0.25628 0.65272 0.0
C264 C 0.18809 0.21718 0.64283 0.0
C265 C 0.18381 0.1768 0.6313 0.0
C266 C 0.02344 0.16968 0.6196 0.0
C267 C 0.10556 0.19145 0.63348 0.0
C268 C 0.98594 0.17919 0.61844 0.0
C269 C 0.98822 0.21778 0.63086 0.0
C270 C 0.064 0.1993 0.63311 0.0
C271 C 0.02878 0.24602 0.6446 0.0
C272 C 0.14903 0.22457 0.64403 0.0
C273 C 0.13958 0.14401 0.62148 0.0
N274 N 0.06531 0.23641 0.64525 0.0
N275 N 0.10225 0.1522 0.62268 0.0
H276 H 0.80089 0.96049 0.14617 0.0
H277 H 0.98972 0.20598 0.08412 0.0
H278 H 0.76221 0.03204 0.0942 0.0
H279 H 0.0268 0.13883 0.13917 0.0
H280 H 0.90725 0.13952 0.08544 0.0
H281 H 0.88473 0.02275 0.14206 0.0
C282 C 0.81022 0.98927 0.13379 0.0
C283 C 0.77487 0.99122 0.12043 0.0
C284 C 0.93343 0.13912 0.09715 0.0
C285 C 0.87043 0.06276 0.11575 0.0
C286 C 0.98051 0.17694 0.09633 0.0
C287 C 0.01489 0.17781 0.11162 0.0
C288 C 0.92071 0.10198 0.1134 0.0
C289 C 1.00123 0.13945 0.12712 0.0
C290 C 0.858 0.02488 0.13151 0.0
C291 C 0.78852 0.02953 0.10491 0.0
N292 N 0.95509 0.10314 0.12769 0.0
N293 N 0.83531 0.06385 0.10298 0.0
H294 H 0.73005 0.75191 0.59581 0.0
H295 H 0.88971 0.02141 0.64253 0.0
H296 H 0.84313 0.79407 0.6465 0.0
H297 H 0.78075 0.97846 0.58946 0.0
H298 H 0.87393 0.9387 0.64434 0.0
H299 H 0.74822 0.83507 0.59346 0.0
C300 C 0.75865 0.77877 0.60648 0.0
C301 C 0.78523 0.76635 0.62133 0.0
C302 C 0.85356 0.94742 0.63226 0.0
C303 C 0.8064 0.86151 0.61875 0.0
C304 C 0.86259 0.99455 0.63123 0.0
C305 C 0.8364 1.00656 0.61586 0.0
C306 C 0.81801 0.91221 0.61785 0.0
C307 C 0.8017 0.9706 0.60157 0.0
C308 C 0.76917 0.82625 0.60509 0.0
C309 C 0.82213 0.80243 0.63468 0.0
N310 N 0.79343 0.92506 0.60296 0.0
N311 N 0.83161 0.84843 0.63312 0.0
H312 H 0.99062 0.73659 0.09712 0.0
H313 H 0.88535 0.90219 0.1404 0.0
H314 H 0.06208 0.85175 0.1468 0.0
H315 H 0.81588 0.78958 0.08922 0.0
H316 H 0.95193 0.88626 0.14199 0.0
H317 H 0.92696 0.75644 0.09334 0.0
C318 C 0.99276 0.76599 0.10727 0.0
C319 C 0.03155 0.79269 0.12225 0.0
C320 C 0.92226 0.86518 0.13031 0.0
C321 C 0.95918 0.8158 0.11801 0.0
C322 C 0.88436 0.87437 0.12937 0.0
C323 C 0.84514 0.84706 0.11471 0.0
C324 C 0.92076 0.82827 0.11655 0.0
C325 C 0.8455 0.81142 0.10078 0.0
C326 C 0.9566 0.77748 0.10504 0.0
C327 C 0.03295 0.83065 0.13487 0.0
N328 N 0.8826 0.80288 0.10213 0.0
N329 N 0.99724 0.84103 0.13251 0.0
H330 H 0.9879 0.87975 0.63982 0.0
H331 H 0.25682 0.98029 0.59554 0.0
H332 H 0.02831 0.80932 0.58794 0.0
H333 H 0.21599 0.0557 0.64425 0.0
H334 H 0.17267 0.9185 0.59155 0.0
H335 H 0.07056 0.94645 0.64052 0.0
C336 C 0.01415 0.8786 0.62844 0.0
C337 C 1.00153 0.83906 0.61388 0.0
C338 C 0.18202 0.94862 0.60306 0.0
C339 C 0.09593 0.91468 0.6147 0.0
C340 C 0.23002 0.98372 0.6054 0.0
C341 C 0.24312 0.02282 0.62032 0.0
C342 C 0.14698 0.95259 0.61586 0.0
C343 C 0.20717 0.026 0.63253 0.0
C344 C 0.06128 0.91656 0.62886 0.0
C345 C 0.03671 0.83918 0.59947 0.0
N346 N 0.1607 0.99119 0.63013 0.0
N347 N 0.08239 0.87626 0.60035 0.0
H348 H 0.03105 0.90392 0.37069 0.0
H349 H 0.76067 0.73912 0.41436 0.0
H350 H 0.98845 0.79308 0.42276 0.0
H351 H 0.80381 0.8528 0.3639 0.0
H352 H 0.84431 0.75974 0.41851 0.0
H353 H 0.94862 0.88813 0.36912 0.0
C354 C 1.00436 0.87655 0.38194 0.0
C355 C 0.01638 0.84965 0.39682 0.0
C356 C 0.83557 0.7803 0.40656 0.0
C357 C 0.92207 0.83101 0.395 0.0
C358 C 0.78784 0.76837 0.40412 0.0
C359 C 0.77556 0.79438 0.38878 0.0
C360 C 0.87116 0.81834 0.39344 0.0
C361 C 0.812 0.83219 0.37607 0.0
C362 C 0.95732 0.86744 0.381 0.0
C363 C 0.98056 0.81458 0.41102 0.0
N364 N 0.85817 0.84298 0.37862 0.0
N365 N 0.93496 0.80607 0.40966 0.0
H366 H 0.02564 0.75083 0.9162 0.0
H367 H 0.14211 0.01977 0.86874 0.0
H368 H 0.96238 0.79317 0.86152 0.0
H369 H 0.19248 0.98025 0.93006 0.0
H370 H 0.0755 0.93727 0.86585 0.0
H371 H 0.08777 0.83476 0.92123 0.0
C372 C 0.02506 0.77788 0.90518 0.0
C373 C 0.98903 0.76534 0.88843 0.0
C374 C 0.10089 0.94672 0.88005 0.0
C375 C 0.05961 0.86122 0.89407 0.0
C376 C 0.13878 0.9938 0.88174 0.0
C377 C 0.17277 1.00664 0.89962 0.0
C378 C 0.09733 0.91228 0.89627 0.0
C379 C 0.16698 0.97173 0.91599 0.0
C380 C 0.06026 0.82577 0.90815 0.0
C381 C 0.98944 0.80162 0.87476 0.0
N382 N 0.13022 0.92604 0.91381 0.0
N383 N 0.0243 0.84795 0.87781 0.0
H384 H 0.1229 0.13732 0.36892 0.0
H385 H 0.28725 0.0326 0.41447 0.0
H386 H 0.23222 0.20621 0.42162 0.0
H387 H 0.17401 0.96106 0.3639 0.0
H388 H 0.26674 0.09595 0.41798 0.0
H389 H 0.13906 0.07081 0.36786 0.0
C390 C 0.15001 0.13817 0.3804 0.0
C391 C 0.17639 0.17721 0.39532 0.0
C392 C 0.24627 0.06635 0.40615 0.0
C393 C 0.19548 0.10176 0.39408 0.0
C394 C 0.25816 0.0304 0.40407 0.0
C395 C 0.23216 0.99171 0.38892 0.0
C396 C 0.20831 0.06359 0.39285 0.0
C397 C 0.19455 0.99015 0.37597 0.0
C398 C 0.15934 0.10032 0.37977 0.0
C399 C 0.21114 0.1767 0.40985 0.0
N400 N 0.1838 0.02563 0.37818 0.0
N401 N 0.21989 0.13969 0.40877 0.0
H402 H 0.25342 0.252 0.84867 0.0
H403 H 0.0207 0.17257 0.92453 0.0
H404 H 0.22613 0.17066 0.91249 0.0
H405 H 0.01279 0.16862 0.84906 0.0
H406 H 0.10259 0.18651 0.92195 0.0
H407 H 0.17019 0.23574 0.8496 0.0
C408 C 0.22995 0.23076 0.86278 0.0
C409 C 0.24645 0.21268 0.88052 0.0
C410 C 0.08274 0.18242 0.90599 0.0
C411 C 0.15273 0.19501 0.88195 0.0
C412 C 0.03626 0.17454 0.90747 0.0
C413 C 1.01021 0.16917 0.887 0.0
C414 C 0.10347 0.18615 0.8839 0.0
C415 C 0.03181 0.1722 0.86524 0.0
C416 C 0.18271 0.22144 0.86328 0.0
C417 C 0.21481 0.18527 0.89845 0.0
N418 N 0.07753 0.18099 0.86422 0.0
N419 N 0.16963 0.17771 0.89885 0.0
H420 H 0.06577 0.22335 0.36173 0.0
H421 H 0.81728 0.03659 0.42221 0.0
H422 H 0.99292 0.26424 0.41187 0.0
H423 H 0.88606 0.9976 0.36884 0.0
H424 H 0.88374 0.11919 0.42059 0.0
H425 H 1.00256 0.13976 0.36573 0.0
C426 C 0.03648 0.21458 0.37367 0.0
C427 C 0.03451 0.25054 0.38655 0.0
C428 C 0.88447 0.09258 0.40931 0.0
C429 C 0.9618 0.15509 0.39111 0.0
C430 C 0.84664 0.0454 0.41029 0.0
C431 C 0.84624 0.01036 0.39559 0.0
C432 C 0.92217 0.1048 0.39349 0.0
C433 C 0.88504 0.02362 0.38045 0.0
C434 C 1.00031 0.16691 0.37589 0.0
C435 C 0.99551 0.2375 0.40152 0.0
N436 N 0.92137 0.06984 0.37972 0.0
N437 N 0.96067 0.19078 0.40342 0.0
H438 H 0.90393 0.8758 0.86483 0.0
H439 H 0.85996 0.06544 0.86065 0.0
H440 H 0.80184 0.82106 0.92135 0.0
H441 H 0.74138 0.9813 0.90672 0.0
H442 H 0.88545 1.00686 0.86431 0.0
H443 H 0.89022 0.94272 0.8607 0.0
C444 C 0.87923 0.87856 0.87669 0.0
C445 C 0.85404 0.84307 0.89346 0.0
C446 C 0.85335 1.00016 0.87337 0.0
C447 C 0.83832 0.92041 0.88926 0.0
C448 C 0.8392 0.03428 0.8715 0.0
C449 C 0.79872 0.02821 0.88345 0.0
C450 C 0.82616 0.95892 0.88701 0.0
C451 C 0.77266 0.98702 0.89707 0.0
C452 C 0.87141 0.91711 0.87444 0.0
C453 C 0.82206 0.84788 0.90822 0.0
N454 N 0.78683 0.95386 0.89846 0.0
N455 N 0.81494 0.88575 0.9057 0.0
H456 H 0.10623 0.61723 0.15054 0.0
H457 H 0.21547 0.4669 0.09177 0.0
H458 H 0.21702 0.67675 0.09808 0.0
H459 H 0.10839 0.41385 0.14609 0.0
H460 H 0.22049 0.54544 0.09467 0.0
H461 H 0.10991 0.54353 0.15004 0.0
C462 C 0.1315 0.61477 0.13898 0.0
C463 C 0.16121 0.6529 0.12427 0.0
C464 C 0.19618 0.51664 0.10605 0.0
C465 C 0.16559 0.5685 0.12344 0.0
C466 C 0.19359 0.47202 0.10449 0.0
C467 C 0.16163 0.43406 0.11877 0.0
C468 C 0.16645 0.52294 0.12195 0.0
C469 C 0.13335 0.44214 0.13466 0.0
C470 C 0.13364 0.57267 0.13867 0.0
C471 C 0.19341 0.64796 0.10965 0.0
N472 N 0.13633 0.48553 0.13577 0.0
N473 N 0.19461 0.60635 0.10949 0.0
H474 H 0.7681 0.22868 0.62686 0.0
H475 H 0.4879 0.06912 0.62764 0.0
H476 H 0.69718 0.09486 0.58909 0.0
H477 H 0.55265 0.22095 0.61538 0.0
H478 H 0.56668 0.07592 0.62277 0.0
H479 H 0.69076 0.22537 0.63116 0.0
C480 C 0.73645 0.19901 0.61923 0.0
C481 C 0.73902 0.16229 0.60735 0.0
C482 C 0.56347 0.10767 0.62125 0.0
C483 C 0.65093 0.15733 0.61313 0.0
C484 C 0.51882 0.10389 0.62416 0.0
C485 C 0.51411 0.14452 0.62179 0.0
C486 C 0.60358 0.15258 0.61662 0.0
C487 C 0.55505 0.1888 0.61718 0.0
C488 C 0.69249 0.19706 0.6218 0.0
C489 C 0.69678 0.12407 0.59823 0.0
N490 N 0.59836 0.19181 0.61492 0.0
N491 N 0.65429 0.12223 0.60158 0.0
H492 H 0.60813 0.70863 0.14906 0.0
H493 H 0.34407 0.55238 0.09653 0.0
H494 H 0.55614 0.75921 0.09266 0.0
H495 H 0.4056 0.5029 0.14885 0.0
H496 H 0.41788 0.63073 0.09663 0.0
H497 H 0.53071 0.63591 0.1512 0.0
C498 C 0.58015 0.70445 0.13716 0.0
C499 C 0.58849 0.73988 0.12062 0.0
C500 C 0.4151 0.60277 0.10814 0.0
C501 C 0.49937 0.65616 0.12284 0.0
C502 C 0.37306 0.55815 0.1081 0.0
C503 C 0.369 0.5212 0.12264 0.0
C504 C 0.4531 0.61032 0.12288 0.0
C505 C 0.40737 0.53039 0.13732 0.0
C506 C 0.53586 0.66284 0.13839 0.0
C507 C 0.55091 0.73281 0.10577 0.0
N508 N 0.44778 0.57393 0.13702 0.0
N509 N 0.50789 0.69147 0.10712 0.0
H510 H 0.91113 0.60488 0.64616 0.0
H511 H 0.81278 0.34369 0.59116 0.0
H512 H 0.80601 0.55101 0.59085 0.0
H513 H 0.92887 0.41077 0.64063 0.0
H514 H 0.80547 0.41605 0.59162 0.0
H515 H 0.91282 0.5306 0.64568 0.0
C516 C 0.88816 0.57717 0.6339 0.0
C517 C 0.85853 0.58421 0.61844 0.0
C518 C 0.83254 0.41488 0.60232 0.0
C519 C 0.86047 0.49843 0.61769 0.0
C520 C 0.83679 0.37372 0.60204 0.0
C521 C 0.8716 0.37145 0.61584 0.0
C522 C 0.86321 0.45377 0.6166 0.0
C523 C 0.90164 0.41108 0.62969 0.0
C524 C 0.88921 0.53465 0.63362 0.0
C525 C 0.82927 0.54688 0.6031 0.0
N526 N 0.8967 0.45046 0.62973 0.0
N527 N 0.8311 0.50548 0.60302 0.0
H528 H 0.52678 0.92451 0.14639 0.0
H529 H 0.26193 0.80707 0.09311 0.0
H530 H 0.4707 0.80588 0.09805 0.0
H531 H 0.31939 0.91812 0.14561 0.0
H532 H 0.33621 0.80341 0.09487 0.0
H533 H 0.44949 0.92071 0.14649 0.0
C534 C 0.49803 0.89754 0.13583 0.0
C535 C 0.50508 0.86558 0.12215 0.0
C536 C 0.33231 0.82831 0.1061 0.0
C537 C 0.41625 0.861 0.12203 0.0
C538 C 0.28987 0.83015 0.10519 0.0
C539 C 0.28454 0.86279 0.1193 0.0
C540 C 0.3695 0.85951 0.12115 0.0
C541 C 0.32211 0.89257 0.13434 0.0
C542 C 0.45382 0.89531 0.13588 0.0
C543 C 0.46661 0.83124 0.10882 0.0
N544 N 0.36289 0.8903 0.13481 0.0
N545 N 0.4238 0.82996 0.10899 0.0
H546 H 0.59831 0.52617 0.61107 0.0
H547 H 0.47041 0.24753 0.63227 0.0
H548 H 0.68061 0.45613 0.62228 0.0
H549 H 0.41066 0.3094 0.58581 0.0
H550 H 0.54564 0.32391 0.63289 0.0
H551 H 0.52616 0.44765 0.60651 0.0
C552 C 0.60109 0.49419 0.61268 0.0
C553 C 0.64531 0.49745 0.61712 0.0
C554 C 0.51626 0.32051 0.62231 0.0
C555 C 0.56308 0.40778 0.61209 0.0
C556 C 0.47343 0.27683 0.62178 0.0
C557 C 0.43445 0.27183 0.60863 0.0
C558 C 0.51966 0.35991 0.61019 0.0
C559 C 0.43991 0.31162 0.59604 0.0
C560 C 0.56004 0.4495 0.6099 0.0
C561 C 0.64708 0.455 0.61889 0.0
N562 N 0.48155 0.3542 0.59737 0.0
N563 N 0.60639 0.41178 0.6166 0.0
H564 H 0.34592 0.8037 0.41358 0.0
H565 H 0.60974 0.91228 0.36061 0.0
H566 H 0.40693 0.91477 0.36124 0.0
H567 H 0.55802 0.8092 0.41681 0.0
H568 H 0.53236 0.90764 0.35875 0.0
H569 H 0.41983 0.79947 0.41335 0.0
C570 C 0.3748 0.827 0.40198 0.0
C571 C 0.37054 0.85981 0.38747 0.0
C572 C 0.53756 0.88573 0.37145 0.0
C573 C 0.4548 0.85516 0.38708 0.0
C574 C 0.58183 0.88838 0.37252 0.0
C575 C 0.59024 0.86108 0.38889 0.0
C576 C 0.50114 0.85574 0.38701 0.0
C577 C 0.55275 0.83049 0.40379 0.0
C578 C 0.41691 0.8246 0.40186 0.0
C579 C 0.40882 0.88911 0.37275 0.0
N580 N 0.50975 0.82882 0.4026 0.0
N581 N 0.4493 0.88615 0.37298 0.0
H582 H 0.70334 0.60574 0.86417 0.0
H583 H 0.54655 0.34298 0.9183 0.0
H584 H 0.75711 0.55158 0.91812 0.0
H585 H 0.49923 0.40115 0.86329 0.0
H586 H 0.62456 0.41715 0.91829 0.0
H587 H 0.6294 0.52921 0.86316 0.0
C588 C 0.69957 0.57749 0.87578 0.0
C589 C 0.73631 0.58493 0.89127 0.0
C590 C 0.59712 0.4136 0.9062 0.0
C591 C 0.65122 0.49681 0.89034 0.0
C592 C 0.55265 0.37139 0.90624 0.0
C593 C 0.51649 0.36618 0.89083 0.0
C594 C 0.60524 0.45069 0.89066 0.0
C595 C 0.52612 0.4038 0.87549 0.0
C596 C 0.65726 0.53369 0.87519 0.0
C597 C 0.72967 0.54705 0.90581 0.0
N598 N 0.56947 0.44443 0.87584 0.0
N599 N 0.68768 0.50453 0.90511 0.0
H600 H 0.1098 0.70735 0.36242 0.0
H601 H 0.22204 0.55261 0.41192 0.0
H602 H 0.21546 0.75859 0.41743 0.0
H603 H 0.10912 0.50246 0.36059 0.0
H604 H 0.22543 0.63043 0.41255 0.0
H605 H 0.11449 0.6346 0.35978 0.0
C606 C 0.13426 0.70332 0.3739 0.0
C607 C 0.16234 0.73904 0.39016 0.0
C608 C 0.20008 0.60245 0.4011 0.0
C609 C 0.16778 0.65529 0.38734 0.0
C610 C 0.19816 0.55812 0.40071 0.0
C611 C 0.1651 0.52112 0.38623 0.0
C612 C 0.16876 0.60968 0.38686 0.0
C613 C 0.13503 0.52999 0.37205 0.0
C614 C 0.13694 0.66169 0.37238 0.0
C615 C 0.1936 0.73207 0.4045 0.0
N616 N 0.13751 0.57326 0.37276 0.0
N617 N 0.19533 0.69077 0.40285 0.0
H618 H 0.60719 0.07439 0.87534 0.0
H619 H 0.47224 0.22249 0.88747 0.0
H620 H 0.68408 0.22359 0.89495 0.0
H621 H 0.40673 0.0717 0.90254 0.0
H622 H 0.55004 0.22644 0.88363 0.0
H623 H 0.53228 0.07547 0.87768 0.0
C624 C 0.60824 0.10747 0.88 0.0
C625 C 0.6516 0.14887 0.88512 0.0
C626 C 0.51853 0.19268 0.88792 0.0
C627 C 0.56628 0.15043 0.88772 0.0
C628 C 0.47437 0.19052 0.89028 0.0
C629 C 0.43336 0.14696 0.89574 0.0
C630 C 0.521 0.15068 0.89051 0.0
C631 C 0.4376 0.10609 0.89845 0.0
C632 C 0.56555 0.10802 0.88142 0.0
C633 C 0.65113 0.19087 0.89102 0.0
N634 N 0.48056 0.10888 0.89569 0.0
N635 N 0.60894 0.19067 0.89214 0.0
H636 H 0.31895 0.41263 0.3612 0.0
H637 H 0.47239 0.68005 0.4106 0.0
H638 H 0.26675 0.46697 0.41583 0.0
H639 H 0.52544 0.61447 0.36243 0.0
H640 H 0.39431 0.60592 0.41061 0.0
H641 H 0.39192 0.4899 0.35909 0.0
C642 C 0.32282 0.44108 0.37271 0.0
C643 C 0.28683 0.43348 0.38872 0.0
C644 C 0.42301 0.60788 0.4 0.0
C645 C 0.37077 0.52241 0.38652 0.0
C646 C 0.46746 0.65009 0.39996 0.0
C647 C 0.5053 0.65313 0.38655 0.0
C648 C 0.41653 0.56871 0.38644 0.0
C649 C 0.49722 0.61352 0.37306 0.0
C650 C 0.36458 0.48527 0.3715 0.0
C651 C 0.29355 0.47164 0.40309 0.0
N652 N 0.4538 0.57299 0.37338 0.0
N653 N 0.33499 0.51458 0.40175 0.0
H654 H 0.91291 0.51625 0.85921 0.0
H655 H 0.80762 0.25523 0.91607 0.0
H656 H 0.8051 0.46388 0.91319 0.0
H657 H 0.91564 0.3138 0.86225 0.0
H658 H 0.80138 0.32826 0.91425 0.0
H659 H 0.90997 0.43934 0.85896 0.0
C660 C 0.88844 0.48836 0.87097 0.0
C661 C 0.85939 0.49638 0.88631 0.0
C662 C 0.82617 0.32485 0.90276 0.0
C663 C 0.85586 0.408 0.88629 0.0
C664 C 0.82949 0.28315 0.90371 0.0
C665 C 0.86209 0.27859 0.88925 0.0
C666 C 0.85574 0.36191 0.88726 0.0
C667 C 0.89022 0.31599 0.87381 0.0
C668 C 0.88673 0.44437 0.87086 0.0
C669 C 0.82819 0.459 0.90114 0.0
N670 N 0.88647 0.35597 0.87327 0.0
N671 N 0.82738 0.41636 0.90087 0.0
H672 H 0.2109 0.42986 0.3133 0.0
H673 H 0.13253 0.27553 0.19592 0.0
H674 H 0.15492 0.27707 0.31116 0.0
H675 H 0.23375 0.4274 0.19539 0.0
H676 H 0.13208 0.27731 0.23853 0.0
H677 H 0.21309 0.4314 0.27032 0.0
C678 C 0.19932 0.39673 0.30383 0.0
C679 C 0.18264 0.35325 0.31585 0.0
C680 C 0.15437 0.31028 0.22911 0.0
C681 C 0.18442 0.35476 0.26688 0.0
C682 C 0.15441 0.30941 0.20474 0.0
C683 C 0.18336 0.35139 0.19202 0.0
C684 C 0.18307 0.35352 0.24097 0.0
C685 C 0.21106 0.39415 0.2045 0.0
C686 C 0.20062 0.39768 0.27935 0.0
C687 C 0.16819 0.31145 0.3027 0.0
N688 N 0.21019 0.39416 0.22834 0.0
N689 N 0.16906 0.31321 0.27895 0.0
H690 H 0.86567 0.12523 0.69306 0.0
H691 H 0.78846 0.20111 0.81114 0.0
H692 H 0.81873 0.22922 0.69392 0.0
H693 H 0.88419 0.14411 0.80908 0.0
H694 H 0.78906 0.20309 0.76812 0.0
H695 H 0.86104 0.12166 0.73581 0.0
C696 C 0.85395 0.14697 0.70221 0.0
C697 C 0.84275 0.1777 0.68991 0.0
C698 C 0.81 0.19034 0.77718 0.0
C699 C 0.83746 0.17382 0.73881 0.0
C700 C 0.80967 0.18918 0.80168 0.0
C701 C 0.83643 0.17259 0.81372 0.0
C702 C 0.83659 0.174 0.76473 0.0
C703 C 0.86327 0.15752 0.80058 0.0
C704 C 0.85163 0.14515 0.72662 0.0
C705 C 0.828 0.20525 0.70272 0.0
N706 N 0.8624 0.15829 0.77683 0.0
N707 N 0.82571 0.20262 0.7265 0.0
H708 H 0.64055 0.89378 0.19731 0.0
H709 H 0.64173 0.75976 0.31167 0.0
H710 H 0.69927 0.79966 0.19508 0.0
H711 H 0.70172 0.91293 0.31378 0.0
H712 H 0.64009 0.76264 0.26867 0.0
H713 H 0.64019 0.89017 0.24037 0.0
C714 C 0.65279 0.87192 0.20591 0.0
C715 C 0.66996 0.84692 0.19276 0.0
C716 C 0.65335 0.79547 0.27863 0.0
C717 C 0.66876 0.84208 0.24158 0.0
C718 C 0.65406 0.79389 0.30306 0.0
C719 C 0.67191 0.83623 0.31616 0.0
C720 C 0.66915 0.83944 0.26736 0.0
C721 C 0.68789 0.8796 0.30422 0.0
C722 C 0.65287 0.8702 0.23035 0.0
C723 C 0.68592 0.81951 0.20467 0.0
N724 N 0.68564 0.88008 0.28041 0.0
N725 N 0.68444 0.81734 0.22849 0.0
H726 H 0.87904 0.74056 0.69723 0.0
H727 H 0.8102 0.58583 0.81432 0.0
H728 H 0.77664 0.58905 0.69654 0.0
H729 H 0.86479 0.73838 0.81264 0.0
H730 H 0.80377 0.58406 0.77133 0.0
H731 H 0.88177 0.73815 0.73974 0.0
C732 C 0.85721 0.70663 0.70599 0.0
C733 C 0.82745 0.66492 0.69323 0.0
C734 C 0.81687 0.61775 0.7805 0.0
C735 C 0.83053 0.66202 0.7422 0.0
C736 C 0.82064 0.61884 0.80498 0.0
C737 C 0.83812 0.66233 0.81715 0.0
C738 C 0.83144 0.66055 0.76817 0.0
C739 C 0.85101 0.70397 0.80412 0.0
C740 C 0.85862 0.70538 0.73034 0.0
C741 C 0.7999 0.6221 0.70569 0.0
N742 N 0.84777 0.70206 0.78041 0.0
N743 N 0.80223 0.62167 0.72954 0.0
H744 H 0.2094 0.79199 0.196 0.0
H745 H 0.13572 0.87159 0.31377 0.0
H746 H 0.1537 0.88886 0.19807 0.0
H747 H 0.23548 0.8194 0.31386 0.0
H748 H 0.1344 0.86898 0.27114 0.0
H749 H 0.21324 0.79403 0.23896 0.0
C750 C 0.19821 0.81385 0.20544 0.0
C751 C 0.18117 0.84028 0.19337 0.0
C752 C 0.15659 0.85807 0.28046 0.0
C753 C 0.18486 0.84215 0.24243 0.0
C754 C 0.15715 0.85922 0.30486 0.0
C755 C 0.18585 0.84576 0.31749 0.0
C756 C 0.18449 0.84283 0.26843 0.0
C757 C 0.21297 0.83028 0.30484 0.0
C758 C 0.20047 0.815 0.22994 0.0
C759 C 0.16724 0.86802 0.20655 0.0
N760 N 0.21154 0.8291 0.28098 0.0
N761 N 0.16903 0.8679 0.23032 0.0
H762 H 0.26867 0.12191 0.81837 0.0
H763 H 0.42187 0.17357 0.70114 0.0
H764 H 0.42288 0.20516 0.81766 0.0
H765 H 0.27434 0.13902 0.70155 0.0
H766 H 0.42188 0.1752 0.74406 0.0
H767 H 0.26908 0.11672 0.77562 0.0
C768 C 0.30265 0.13867 0.80926 0.0
C769 C 0.34582 0.16411 0.82162 0.0
C770 C 0.38958 0.16733 0.7347 0.0
C771 C 0.34646 0.15832 0.77271 0.0
C772 C 0.38949 0.1663 0.71023 0.0
C773 C 0.34808 0.15628 0.69772 0.0
C774 C 0.34775 0.15753 0.74675 0.0
C775 C 0.30719 0.14723 0.71044 0.0
C776 C 0.30281 0.13597 0.78485 0.0
C777 C 0.38874 0.1854 0.80884 0.0
N778 N 0.30798 0.14782 0.73425 0.0
N779 N 0.38798 0.18196 0.78508 0.0
H780 H 0.38167 0.29928 0.96093 0.0
H781 H 0.17131 0.23693 0.05276 0.0
H782 H 0.25727 0.15879 0.96883 0.0
H783 H 0.29789 0.37654 0.04751 0.0
H784 H 0.20223 0.20835 0.02163 0.0
H785 H 0.35318 0.32786 0.99332 0.0
C786 C 0.34878 0.27417 0.96967 0.0
C787 C 0.32173 0.22653 0.96195 0.0
C788 C 0.22317 0.24532 0.02718 0.0
C789 C 0.28849 0.25942 0.99883 0.0
C790 C 0.20532 0.26187 0.04486 0.0
C791 C 0.23194 0.30936 0.05281 0.0
C792 C 0.26804 0.27638 0.01727 0.0
C793 C 0.27598 0.33972 0.04194 0.0
C794 C 0.33236 0.29068 0.98808 0.0
C795 C 0.27936 0.19583 0.97404 0.0
N796 N 0.29271 0.32267 0.02479 0.0
N797 N 0.26389 0.2129 0.9917 0.0
H798 H 0.09801 0.3791 0.46127 0.0
H799 H 0.92276 0.15821 0.54267 0.0
H800 H 0.08031 0.23759 0.45542 0.0
H801 H 0.9371 0.29845 0.54749 0.0
H802 H 0.97865 0.18618 0.50991 0.0
H803 H 0.03995 0.35057 0.49319 0.0
C804 C 0.08247 0.34221 0.46687 0.0
C805 C 0.09425 0.31077 0.45559 0.0
C806 C 0.96932 0.21076 0.51801 0.0
C807 C 0.02697 0.27766 0.49192 0.0
C808 C 0.93709 0.19471 0.53666 0.0
C809 C 0.92532 0.22607 0.54801 0.0
C810 C 0.99017 0.2586 0.51065 0.0
C811 C 0.9451 0.27296 0.53935 0.0
C812 C 0.04898 0.32584 0.48499 0.0
C813 C 0.07259 0.26326 0.46359 0.0
N814 N 0.97685 0.2879 0.52133 0.0
N815 N 0.0399 0.24815 0.48117 0.0
H816 H 0.64787 0.92925 0.04642 0.0
H817 H 0.85939 0.07602 0.95462 0.0
H818 H 0.78427 0.9352 0.04998 0.0
H819 H 0.73193 0.08723 0.95931 0.0
H820 H 0.83171 0.02186 0.98831 0.0
H821 H 0.67632 0.98251 0.01259 0.0
C822 C 0.68361 0.94119 0.03996 0.0
C823 C 0.71362 0.92749 0.05117 0.0
C824 C 0.80998 0.03644 0.98204 0.0
C825 C 0.74675 0.98932 0.01241 0.0
C826 C 0.82587 0.06761 0.96285 0.0
C827 C 0.79808 0.08649 0.95405 0.0
C828 C 0.76576 0.02364 0.99246 0.0
C829 C 0.75476 0.07385 0.96543 0.0
C830 C 0.69998 0.972 0.02069 0.0
C831 C 0.75973 0.94458 0.04194 0.0
N832 N 0.73988 0.0431 0.9839 0.0
N833 N 0.77489 0.97465 0.02316 0.0
H834 H 0.85847 0.7757 0.5491 0.0
H835 H 0.64477 0.72987 0.46245 0.0
H836 H 0.7223 0.64446 0.54772 0.0
H837 H 0.78685 0.85266 0.4572 0.0
H838 H 0.67151 0.70034 0.49508 0.0
H839 H 0.83267 0.80532 0.51607 0.0
C840 C 0.82335 0.75276 0.54168 0.0
C841 C 0.79257 0.70737 0.55126 0.0
C842 C 0.6968 0.73387 0.48687 0.0
C843 C 0.76243 0.74167 0.51358 0.0
C844 C 0.68146 0.75105 0.46831 0.0
C845 C 0.71352 0.79401 0.45698 0.0
C846 C 0.7446 0.75976 0.49432 0.0
C847 C 0.76071 0.81954 0.4654 0.0
C848 C 0.80856 0.76989 0.52285 0.0
C849 C 0.74742 0.67951 0.54088 0.0
N850 N 0.77482 0.80197 0.48349 0.0
N851 N 0.73362 0.69724 0.52274 0.0
H852 H 0.93294 0.77662 0.95964 0.0
H853 H 0.09476 0.7261 0.04837 0.0
H854 H 0.93616 0.64442 0.96089 0.0
H855 H 0.08043 0.85209 0.05165 0.0
H856 H 0.03978 0.69744 0.01515 0.0
H857 H 0.98798 0.80545 0.99279 0.0
C858 C 0.9447 0.75332 0.96702 0.0
C859 C 0.92961 0.70784 0.9574 0.0
C860 C 0.04885 0.73148 0.02306 0.0
C861 C 0.99357 0.74121 0.99531 0.0
C862 C 0.08059 0.74811 0.04197 0.0
C863 C 0.09249 0.79173 0.05291 0.0
C864 C 0.02872 0.75858 0.01491 0.0
C865 C 0.07257 0.81837 0.0438 0.0
C866 C 0.97641 0.77 0.98593 0.0
C867 C 0.94648 0.67957 0.96774 0.0
N868 N 0.04163 0.80132 0.02542 0.0
N869 N 0.9777 0.69681 0.98602 0.0
H870 H 0.16514 0.93427 0.46097 0.0
H871 H 0.37895 0.09752 0.549 0.0
H872 H 0.3013 0.93944 0.46118 0.0
H873 H 0.23753 0.07956 0.55415 0.0
H874 H 0.35264 0.04384 0.51522 0.0
H875 H 0.19174 0.98942 0.49417 0.0
C876 C 0.20044 0.94649 0.46813 0.0
C877 C 0.23089 0.93185 0.45821 0.0
C878 C 0.32744 0.05189 0.52364 0.0
C879 C 0.26195 0.99598 0.49615 0.0
C880 C 0.34255 0.08293 0.54287 0.0
C881 C 0.31049 0.09331 0.55454 0.0
C882 C 0.27986 0.03094 0.5159 0.0
C883 C 0.26365 0.07286 0.54574 0.0
C884 C 0.2157 0.97827 0.48706 0.0
C885 C 0.27638 0.94935 0.46826 0.0
N886 N 0.24975 0.04258 0.52705 0.0
N887 N 0.29056 0.98061 0.48656 0.0
loop_
_geom_bond_atom_site_label_1
_geom_bond_atom_site_label_2
_geom_bond_distance
_geom_bond_site_symmetry_2
_ccdc_geom_bond_type
Tb0 O3 2.453 . S
Tb0 O4 2.596 . S
Tb0 O5 2.374 . S
Tb0 O13 2.343 . S
Tb0 O15 2.353 . S
Tb0 O17 2.427 . S
Tb0 O18 2.513 . S
C1 O5 1.251 . S
C1 O7 1.263 . S
Tb2 O4 2.343 . S
Tb2 O7 2.353 . S
Tb2 O10 2.427 . S
Tb2 O11 2.513 . S
Tb2 O12 2.453 . S
Tb2 O13 2.596 . S
Tb2 O14 2.374 . S
O3 Tb0 2.453 . S
O3 C19 1.245 . S
O4 Tb0 2.596 . S
O4 Tb2 2.343 . S
O4 C19 1.259 . S
O5 Tb0 2.374 . S
O5 C1 1.251 . S
C6 O10 1.275 . S
C6 O11 1.246 . S
O7 C1 1.263 . S
O7 Tb2 2.353 . S
C8 O12 1.245 . S
C8 O13 1.259 . S
C9 O14 1.250 . S
C9 O15 1.263 . S
O10 Tb2 2.427 . S
O10 C6 1.275 . S
O11 Tb2 2.513 . S
O11 C6 1.246 . S
O12 Tb2 2.453 . S
O12 C8 1.245 . S
O13 Tb0 2.343 . S
O13 Tb2 2.596 . S
O13 C8 1.259 . S
O14 Tb2 2.374 . S
O14 C9 1.250 . S
O15 Tb0 2.353 . S
O15 C9 1.263 . S
C16 O17 1.275 . S
C16 O18 1.246 . S
O17 Tb0 2.427 . S
O17 C16 1.275 . S
O18 Tb0 2.513 . S
O18 C16 1.246 . S
C19 O3 1.245 . S
C19 O4 1.259 . S
Tb20 O23 2.453 . S
Tb20 O24 2.596 . S
Tb20 O25 2.374 . S
Tb20 O33 2.343 . S
Tb20 O35 2.353 . S
Tb20 O37 2.427 . S
Tb20 O38 2.513 . S
C21 O25 1.251 . S
C21 O27 1.263 . S
Tb22 O24 2.343 . S
Tb22 O27 2.353 . S
Tb22 O30 2.427 . S
Tb22 O31 2.513 . S
Tb22 O32 2.453 . S
Tb22 O33 2.596 . S
Tb22 O34 2.374 . S
O23 Tb20 2.453 . S
O23 C39 1.245 . S
O24 Tb20 2.596 . S
O24 Tb22 2.343 . S
O24 C39 1.259 . S
O25 Tb20 2.374 . S
O25 C21 1.251 . S
C26 O30 1.275 . S
C26 O31 1.246 . S
O27 C21 1.263 . S
O27 Tb22 2.353 . S
C28 O32 1.245 . S
C28 O33 1.259 . S
C29 O34 1.250 . S
C29 O35 1.263 . S
O30 Tb22 2.427 . S
O30 C26 1.275 . S
O31 Tb22 2.513 . S
O31 C26 1.246 . S
O32 Tb22 2.453 . S
O32 C28 1.245 . S
O33 Tb20 2.343 . S
O33 Tb22 2.596 . S
O33 C28 1.259 . S
O34 Tb22 2.374 . S
O34 C29 1.250 . S
O35 Tb20 2.353 . S
O35 C29 1.263 . S
C36 O37 1.275 . S
C36 O38 1.246 . S
O37 Tb20 2.427 . S
O37 C36 1.275 . S
O38 Tb20 2.513 . S
O38 C36 1.246 . S
C39 O23 1.245 . S
C39 O24 1.259 . S
Tb40 O43 2.453 . S
Tb40 O44 2.596 . S
Tb40 O45 2.374 . S
Tb40 O53 2.343 . S
Tb40 O55 2.353 . S
Tb40 O57 2.427 . S
Tb40 O58 2.513 . S
C41 O45 1.251 . S
C41 O47 1.263 . S
Tb42 O44 2.343 . S
Tb42 O47 2.353 . S
Tb42 O50 2.427 . S
Tb42 O51 2.513 . S
Tb42 O52 2.453 . S
Tb42 O53 2.596 . S
Tb42 O54 2.374 . S
O43 Tb40 2.453 . S
O43 C59 1.245 . S
O44 Tb40 2.596 . S
O44 Tb42 2.343 . S
O44 C59 1.259 . S
O45 Tb40 2.374 . S
O45 C41 1.251 . S
C46 O50 1.275 . S
C46 O51 1.246 . S
O47 C41 1.263 . S
O47 Tb42 2.353 . S
C48 O52 1.245 . S
C48 O53 1.259 . S
C49 O54 1.250 . S
C49 O55 1.263 . S
O50 Tb42 2.427 . S
O50 C46 1.275 . S
O51 Tb42 2.513 . S
O51 C46 1.246 . S
O52 Tb42 2.453 . S
O52 C48 1.245 . S
O53 Tb40 2.343 . S
O53 Tb42 2.596 . S
O53 C48 1.259 . S
O54 Tb42 2.374 . S
O54 C49 1.250 . S
O55 Tb40 2.353 . S
O55 C49 1.263 . S
C56 O57 1.275 . S
C56 O58 1.246 . S
O57 Tb40 2.427 . S
O57 C56 1.275 . S
O58 Tb40 2.513 . S
O58 C56 1.246 . S
C59 O43 1.245 . S
C59 O44 1.259 . S
Tb60 O63 2.453 . S
Tb60 O64 2.596 . S
Tb60 O65 2.374 . S
Tb60 O73 2.343 . S
Tb60 O75 2.353 . S
Tb60 O77 2.427 . S
Tb60 O78 2.513 . S
C61 O65 1.251 . S
C61 O67 1.263 . S
Tb62 O64 2.343 . S
Tb62 O67 2.353 . S
Tb62 O70 2.427 . S
Tb62 O71 2.513 . S
Tb62 O72 2.453 . S
Tb62 O73 2.596 . S
Tb62 O74 2.374 . S
O63 Tb60 2.453 . S
O63 C79 1.245 . S
O64 Tb60 2.596 . S
O64 Tb62 2.343 . S
O64 C79 1.259 . S
O65 Tb60 2.374 . S
O65 C61 1.251 . S
C66 O70 1.275 . S
C66 O71 1.246 . S
O67 C61 1.263 . S
O67 Tb62 2.353 . S
C68 O72 1.245 . S
C68 O73 1.259 . S
C69 O74 1.250 . S
C69 O75 1.263 . S
O70 Tb62 2.427 . S
O70 C66 1.275 . S
O71 Tb62 2.513 . S
O71 C66 1.246 . S
O72 Tb62 2.453 . S
O72 C68 1.245 . S
O73 Tb60 2.343 . S
O73 Tb62 2.596 . S
O73 C68 1.259 . S
O74 Tb62 2.374 . S
O74 C69 1.250 . S
O75 Tb60 2.353 . S
O75 C69 1.263 . S
C76 O77 1.275 . S
C76 O78 1.246 . S
O77 Tb60 2.427 . S
O77 C76 1.275 . S
O78 Tb60 2.513 . S
O78 C76 1.246 . S
C79 O63 1.245 . S
C79 O64 1.259 . S
Tb80 O83 2.453 . S
Tb80 O84 2.596 . S
Tb80 O85 2.374 . S
Tb80 O93 2.343 . S
Tb80 O95 2.353 . S
Tb80 O97 2.427 . S
Tb80 O98 2.513 . S
C81 O85 1.251 . S
C81 O87 1.263 . S
Tb82 O84 2.343 . S
Tb82 O87 2.353 . S
Tb82 O90 2.427 . S
Tb82 O91 2.513 . S
Tb82 O92 2.453 . S
Tb82 O93 2.596 . S
Tb82 O94 2.374 . S
O83 Tb80 2.453 . S
O83 C99 1.245 . S
O84 Tb80 2.596 . S
O84 Tb82 2.343 . S
O84 C99 1.259 . S
O85 Tb80 2.374 . S
O85 C81 1.251 . S
C86 O90 1.275 . S
C86 O91 1.246 . S
O87 C81 1.263 . S
O87 Tb82 2.353 . S
C88 O92 1.245 . S
C88 O93 1.259 . S
C89 O94 1.250 . S
C89 O95 1.263 . S
O90 Tb82 2.427 . S
O90 C86 1.275 . S
O91 Tb82 2.513 . S
O91 C86 1.246 . S
O92 Tb82 2.453 . S
O92 C88 1.245 . S
O93 Tb80 2.343 . S
O93 Tb82 2.596 . S
O93 C88 1.259 . S
O94 Tb82 2.374 . S
O94 C89 1.250 . S
O95 Tb80 2.353 . S
O95 C89 1.263 . S
C96 O97 1.275 . S
C96 O98 1.246 . S
O97 Tb80 2.427 . S
O97 C96 1.275 . S
O98 Tb80 2.513 . S
O98 C96 1.246 . S
C99 O83 1.245 . S
C99 O84 1.259 . S
Tb100 O103 2.453 . S
Tb100 O104 2.596 . S
Tb100 O105 2.374 . S
Tb100 O113 2.343 . S
Tb100 O115 2.353 . S
Tb100 O117 2.427 . S
Tb100 O118 2.513 . S
C101 O105 1.251 . S
C101 O107 1.263 . S
Tb102 O104 2.343 . S
Tb102 O107 2.353 . S
Tb102 O110 2.427 . S
Tb102 O111 2.513 . S
Tb102 O112 2.453 . S
Tb102 O113 2.596 . S
Tb102 O114 2.374 . S
O103 Tb100 2.453 . S
O103 C119 1.245 . S
O104 Tb100 2.596 . S
O104 Tb102 2.343 . S
O104 C119 1.259 . S
O105 Tb100 2.374 . S
O105 C101 1.251 . S
C106 O110 1.275 . S
C106 O111 1.246 . S
O107 C101 1.263 . S
O107 Tb102 2.353 . S
C108 O112 1.245 . S
C108 O113 1.259 . S
C109 O114 1.250 . S
C109 O115 1.263 . S
O110 Tb102 2.427 . S
O110 C106 1.275 . S
O111 Tb102 2.513 . S
O111 C106 1.246 . S
O112 Tb102 2.453 . S
O112 C108 1.245 . S
O113 Tb100 2.343 . S
O113 Tb102 2.596 . S
O113 C108 1.259 . S
O114 Tb102 2.374 . S
O114 C109 1.250 . S
O115 Tb100 2.353 . S
O115 C109 1.263 . S
C116 O117 1.275 . S
C116 O118 1.246 . S
O117 Tb100 2.427 . S
O117 C116 1.275 . S
O118 Tb100 2.513 . S
O118 C116 1.246 . S
C119 O103 1.245 . S
C119 O104 1.259 . S
Tb120 O123 2.453 . S
Tb120 O124 2.596 . S
Tb120 O125 2.374 . S
Tb120 O133 2.343 . S
Tb120 O135 2.353 . S
Tb120 O137 2.427 . S
Tb120 O138 2.513 . S
C121 O125 1.251 . S
C121 O127 1.263 . S
Tb122 O124 2.343 . S
Tb122 O127 2.353 . S
Tb122 O130 2.427 . S
Tb122 O131 2.513 . S
Tb122 O132 2.453 . S
Tb122 O133 2.596 . S
Tb122 O134 2.374 . S
O123 Tb120 2.453 . S
O123 C139 1.245 . S
O124 Tb120 2.596 . S
O124 Tb122 2.343 . S
O124 C139 1.259 . S
O125 Tb120 2.374 . S
O125 C121 1.251 . S
C126 O130 1.275 . S
C126 O131 1.246 . S
O127 C121 1.263 . S
O127 Tb122 2.353 . S
C128 O132 1.245 . S
C128 O133 1.259 . S
C129 O134 1.250 . S
C129 O135 1.263 . S
O130 Tb122 2.427 . S
O130 C126 1.275 . S
O131 Tb122 2.513 . S
O131 C126 1.246 . S
O132 Tb122 2.453 . S
O132 C128 1.245 . S
O133 Tb120 2.343 . S
O133 Tb122 2.596 . S
O133 C128 1.259 . S
O134 Tb122 2.374 . S
O134 C129 1.250 . S
O135 Tb120 2.353 . S
O135 C129 1.263 . S
C136 O137 1.275 . S
C136 O138 1.246 . S
O137 Tb120 2.427 . S
O137 C136 1.275 . S
O138 Tb120 2.513 . S
O138 C136 1.246 . S
C139 O123 1.245 . S
C139 O124 1.259 . S
Tb140 O143 2.453 . S
Tb140 O144 2.596 . S
Tb140 O145 2.374 . S
Tb140 O153 2.343 . S
Tb140 O155 2.353 . S
Tb140 O157 2.427 . S
Tb140 O158 2.513 . S
C141 O145 1.251 . S
C141 O147 1.263 . S
Tb142 O144 2.343 . S
Tb142 O147 2.353 . S
Tb142 O150 2.427 . S
Tb142 O151 2.513 . S
Tb142 O152 2.453 . S
Tb142 O153 2.596 . S
Tb142 O154 2.374 . S
O143 Tb140 2.453 . S
O143 C159 1.245 . S
O144 Tb140 2.596 . S
O144 Tb142 2.343 . S
O144 C159 1.259 . S
O145 Tb140 2.374 . S
O145 C141 1.251 . S
C146 O150 1.275 . S
C146 O151 1.246 . S
O147 C141 1.263 . S
O147 Tb142 2.353 . S
C148 O152 1.245 . S
C148 O153 1.259 . S
C149 O154 1.250 . S
C149 O155 1.263 . S
O150 Tb142 2.427 . S
O150 C146 1.275 . S
O151 Tb142 2.513 . S
O151 C146 1.246 . S
O152 Tb142 2.453 . S
O152 C148 1.245 . S
O153 Tb140 2.343 . S
O153 Tb142 2.596 . S
O153 C148 1.259 . S
O154 Tb142 2.374 . S
O154 C149 1.250 . S
O155 Tb140 2.353 . S
O155 C149 1.263 . S
C156 O157 1.275 . S
C156 O158 1.246 . S
O157 Tb140 2.427 . S
O157 C156 1.275 . S
O158 Tb140 2.513 . S
O158 C156 1.246 . S
C159 O143 1.245 . S
C159 O144 1.259 . S
Tb160 O163 2.453 . S
Tb160 O164 2.596 . S
Tb160 O165 2.374 . S
Tb160 O173 2.343 . S
Tb160 O175 2.353 . S
Tb160 O177 2.427 . S
Tb160 O178 2.513 . S
C161 O165 1.251 . S
C161 O167 1.263 . S
Tb162 O164 2.343 . S
Tb162 O167 2.353 . S
Tb162 O170 2.427 . S
Tb162 O171 2.513 . S
Tb162 O172 2.453 . S
Tb162 O173 2.596 . S
Tb162 O174 2.374 . S
O163 Tb160 2.453 . S
O163 C179 1.245 . S
O164 Tb160 2.596 . S
O164 Tb162 2.343 . S
O164 C179 1.259 . S
O165 Tb160 2.374 . S
O165 C161 1.251 . S
C166 O170 1.275 . S
C166 O171 1.246 . S
O167 C161 1.263 . S
O167 Tb162 2.353 . S
C168 O172 1.245 . S
C168 O173 1.259 . S
C169 O174 1.250 . S
C169 O175 1.263 . S
O170 Tb162 2.427 . S
O170 C166 1.275 . S
O171 Tb162 2.513 . S
O171 C166 1.246 . S
O172 Tb162 2.453 . S
O172 C168 1.245 . S
O173 Tb160 2.343 . S
O173 Tb162 2.596 . S
O173 C168 1.259 . S
O174 Tb162 2.374 . S
O174 C169 1.250 . S
O175 Tb160 2.353 . S
O175 C169 1.263 . S
C176 O177 1.275 . S
C176 O178 1.246 . S
O177 Tb160 2.427 . S
O177 C176 1.275 . S
O178 Tb160 2.513 . S
O178 C176 1.246 . S
C179 O163 1.245 . S
C179 O164 1.259 . S
Tb180 O183 2.453 . S
Tb180 O184 2.596 . S
Tb180 O185 2.374 . S
Tb180 O193 2.343 . S
Tb180 O195 2.353 . S
Tb180 O197 2.427 . S
Tb180 O198 2.513 . S
C181 O185 1.251 . S
C181 O187 1.263 . S
Tb182 O184 2.343 . S
Tb182 O187 2.353 . S
Tb182 O190 2.427 . S
Tb182 O191 2.513 . S
Tb182 O192 2.453 . S
Tb182 O193 2.596 . S
Tb182 O194 2.374 . S
O183 Tb180 2.453 . S
O183 C199 1.245 . S
O184 Tb180 2.596 . S
O184 Tb182 2.343 . S
O184 C199 1.259 . S
O185 Tb180 2.374 . S
O185 C181 1.251 . S
C186 O190 1.275 . S
C186 O191 1.246 . S
O187 C181 1.263 . S
O187 Tb182 2.353 . S
C188 O192 1.245 . S
C188 O193 1.259 . S
C189 O194 1.250 . S
C189 O195 1.263 . S
O190 Tb182 2.427 . S
O190 C186 1.275 . S
O191 Tb182 2.513 . S
O191 C186 1.246 . S
O192 Tb182 2.453 . S
O192 C188 1.245 . S
O193 Tb180 2.343 . S
O193 Tb182 2.596 . S
O193 C188 1.259 . S
O194 Tb182 2.374 . S
O194 C189 1.250 . S
O195 Tb180 2.353 . S
O195 C189 1.263 . S
C196 O197 1.275 . S
C196 O198 1.246 . S
O197 Tb180 2.427 . S
O197 C196 1.275 . S
O198 Tb180 2.513 . S
O198 C196 1.246 . S
C199 O183 1.245 . S
C199 O184 1.259 . S
Tb200 O203 2.453 . S
Tb200 O204 2.596 . S
Tb200 O205 2.374 . S
Tb200 O213 2.343 . S
Tb200 O215 2.353 . S
Tb200 O217 2.427 . S
Tb200 O218 2.513 . S
C201 O205 1.251 . S
C201 O207 1.263 . S
Tb202 O204 2.343 . S
Tb202 O207 2.353 . S
Tb202 O210 2.427 . S
Tb202 O211 2.513 . S
Tb202 O212 2.453 . S
Tb202 O213 2.596 . S
Tb202 O214 2.374 . S
O203 Tb200 2.453 . S
O203 C219 1.245 . S
O204 Tb200 2.596 . S
O204 Tb202 2.343 . S
O204 C219 1.259 . S
O205 Tb200 2.374 . S
O205 C201 1.251 . S
C206 O210 1.275 . S
C206 O211 1.246 . S
O207 C201 1.263 . S
O207 Tb202 2.353 . S
C208 O212 1.245 . S
C208 O213 1.259 . S
C209 O214 1.250 . S
C209 O215 1.263 . S
O210 Tb202 2.427 . S
O210 C206 1.275 . S
O211 Tb202 2.513 . S
O211 C206 1.246 . S
O212 Tb202 2.453 . S
O212 C208 1.245 . S
O213 Tb200 2.343 . S
O213 Tb202 2.596 . S
O213 C208 1.259 . S
O214 Tb202 2.374 . S
O214 C209 1.250 . S
O215 Tb200 2.353 . S
O215 C209 1.263 . S
C216 O217 1.275 . S
C216 O218 1.246 . S
O217 Tb200 2.427 . S
O217 C216 1.275 . S
O218 Tb200 2.513 . S
O218 C216 1.246 . S
C219 O203 1.245 . S
C219 O204 1.259 . S
Tb220 O223 2.453 . S
Tb220 O224 2.596 . S
Tb220 O225 2.374 . S
Tb220 O233 2.343 . S
Tb220 O235 2.353 . S
Tb220 O237 2.427 . S
Tb220 O238 2.513 . S
C221 O225 1.251 . S
C221 O227 1.263 . S
Tb222 O224 2.343 . S
Tb222 O227 2.353 . S
Tb222 O230 2.427 . S
Tb222 O231 2.513 . S
Tb222 O232 2.453 . S
Tb222 O233 2.596 . S
Tb222 O234 2.374 . S
O223 Tb220 2.453 . S
O223 C239 1.245 . S
O224 Tb220 2.596 . S
O224 Tb222 2.343 . S
O224 C239 1.259 . S
O225 Tb220 2.374 . S
O225 C221 1.251 . S
C226 O230 1.275 . S
C226 O231 1.246 . S
O227 C221 1.263 . S
O227 Tb222 2.353 . S
C228 O232 1.245 . S
C228 O233 1.259 . S
C229 O234 1.250 . S
C229 O235 1.263 . S
O230 Tb222 2.427 . S
O230 C226 1.275 . S
O231 Tb222 2.513 . S
O231 C226 1.246 . S
O232 Tb222 2.453 . S
O232 C228 1.245 . S
O233 Tb220 2.343 . S
O233 Tb222 2.596 . S
O233 C228 1.259 . S
O234 Tb222 2.374 . S
O234 C229 1.250 . S
O235 Tb220 2.353 . S
O235 C229 1.263 . S
C236 O237 1.275 . S
C236 O238 1.246 . S
O237 Tb220 2.427 . S
O237 C236 1.275 . S
O238 Tb220 2.513 . S
O238 C236 1.246 . S
C239 O223 1.245 . S
C239 O224 1.259 . S
H240 C246 0.930 1_565 S
H241 C250 0.930 . S
H242 C255 0.929 1_565 S
H243 C253 0.929 . S
H244 C248 0.929 . S
H245 C254 0.929 . S
C246 H240 0.930 1_545 S
C246 C247 1.367 1_545 S
C246 C254 1.378 . S
C247 C246 1.367 1_565 S
C247 C255 1.433 1_565 S
C248 H244 0.929 . S
C248 C250 1.378 . S
C248 C252 1.350 . S
C249 C252 1.463 . S
C249 C254 1.350 . S
C249 N257 1.427 . S
C250 H241 0.930 . S
C250 C248 1.378 . S
C250 C251 1.367 . S
C251 C250 1.367 . S
C251 C253 1.433 . S
C252 C248 1.350 . S
C252 C249 1.463 . S
C252 N256 1.427 . S
C253 H243 0.929 . S
C253 C251 1.433 . S
C253 N256 1.384 . S
C254 H245 0.929 . S
C254 C246 1.378 . S
C254 C249 1.350 . S
C255 H242 0.929 1_545 S
C255 C247 1.433 1_545 S
C255 N257 1.384 . S
N256 C252 1.427 . S
N256 C253 1.384 . S
N257 C249 1.427 . S
N257 C255 1.384 . S
H258 C264 0.930 . S
H259 C268 0.930 . S
H260 C273 0.929 . S
H261 C271 0.929 . S
H262 C266 0.938 1_655 S
H263 C272 0.929 . S
C264 H258 0.930 . S
C264 C265 1.367 . S
C264 C272 1.378 . S
C265 C264 1.367 . S
C265 C273 1.433 . S
C266 H262 0.938 1_455 S
C266 C268 1.378 1_455 S
C266 C270 1.350 . S
C267 C270 1.463 . S
C267 C272 1.350 . S
C267 N275 1.427 . S
C268 H259 0.930 . S
C268 C266 1.378 1_655 S
C268 C269 1.367 . S
C269 C268 1.367 . S
C269 C271 1.433 1_655 S
C270 C266 1.350 . S
C270 C267 1.463 . S
C270 N274 1.427 . S
C271 H261 0.929 . S
C271 C269 1.433 1_455 S
C271 N274 1.384 . S
C272 H263 0.929 . S
C272 C264 1.378 . S
C272 C267 1.350 . S
C273 H260 0.929 . S
C273 C265 1.433 . S
C273 N275 1.384 . S
N274 C270 1.427 . S
N274 C271 1.384 . S
N275 C267 1.427 . S
N275 C273 1.384 . S
H276 C282 0.930 . S
H277 C286 0.930 . S
H278 C291 0.929 . S
H279 C289 0.929 . S
H280 C284 0.929 . S
H281 C290 0.929 . S
C282 H276 0.930 . S
C282 C283 1.367 . S
C282 C290 1.378 1_565 S
C283 C282 1.367 . S
C283 C291 1.433 1_565 S
C284 H280 0.929 . S
C284 C286 1.378 . S
C284 C288 1.350 . S
C285 C288 1.463 . S
C285 C290 1.350 . S
C285 N293 1.427 . S
C286 H277 0.930 . S
C286 C284 1.378 . S
C286 C287 1.367 1_655 S
C287 C286 1.367 1_455 S
C287 C289 1.433 . S
C288 C284 1.350 . S
C288 C285 1.463 . S
C288 N292 1.427 . S
C289 H279 0.929 . S
C289 C287 1.433 . S
C289 N292 1.384 1_455 S
C290 H281 0.929 . S
C290 C282 1.378 1_545 S
C290 C285 1.350 . S
C291 H278 0.929 . S
C291 C283 1.433 1_545 S
C291 N293 1.384 . S
N292 C288 1.427 . S
N292 C289 1.384 1_655 S
N293 C285 1.427 . S
N293 C291 1.384 . S
H294 C300 0.930 . S
H295 C304 0.930 1_545 S
H296 C309 0.929 . S
H297 C307 0.929 1_545 S
H298 C302 0.929 . S
H299 C308 0.929 . S
C300 H294 0.930 . S
C300 C301 1.367 . S
C300 C308 1.378 . S
C301 C300 1.367 . S
C301 C309 1.433 . S
C302 H298 0.929 . S
C302 C304 1.378 . S
C302 C306 1.350 . S
C303 C306 1.463 . S
C303 C308 1.350 . S
C303 N311 1.427 . S
C304 H295 0.930 1_565 S
C304 C302 1.378 . S
C304 C305 1.367 1_565 S
C305 C304 1.367 1_545 S
C305 C307 1.433 1_545 S
C306 C302 1.350 . S
C306 C303 1.463 . S
C306 N310 1.427 . S
C307 H297 0.929 1_565 S
C307 C305 1.433 1_565 S
C307 N310 1.384 . S
C308 H299 0.929 . S
C308 C300 1.378 . S
C308 C303 1.350 . S
C309 H296 0.929 . S
C309 C301 1.433 . S
C309 N311 1.384 . S
N310 C306 1.427 . S
N310 C307 1.384 . S
N311 C303 1.427 . S
N311 C309 1.384 . S
H312 C318 0.930 . S
H313 C322 0.930 . S
H314 C327 0.929 . S
H315 C325 0.929 . S
H316 C320 0.929 . S
H317 C326 0.929 . S
C318 H312 0.930 . S
C318 C319 1.367 1_655 S
C318 C326 1.378 . S
C319 C318 1.367 1_455 S
C319 C327 1.433 . S
C320 H316 0.929 . S
C320 C322 1.378 . S
C320 C324 1.350 . S
C321 C324 1.463 . S
C321 C326 1.350 . S
C321 N329 1.419 1_655 S
C322 H313 0.930 . S
C322 C320 1.378 . S
C322 C323 1.367 . S
C323 C322 1.367 . S
C323 C325 1.433 . S
C324 C320 1.350 . S
C324 C321 1.463 . S
C324 N328 1.427 . S
C325 H315 0.929 . S
C325 C323 1.433 . S
C325 N328 1.384 . S
C326 H317 0.929 . S
C326 C318 1.378 . S
C326 C321 1.350 . S
C327 H314 0.929 . S
C327 C319 1.433 . S
C327 N329 1.398 . S
N328 C324 1.427 . S
N328 C325 1.384 . S
N329 C321 1.419 1_455 S
N329 C327 1.398 . S
H330 C336 0.930 . S
H331 C340 0.930 . S
H332 C345 0.929 . S
H333 C343 0.929 . S
H334 C338 0.929 . S
H335 C344 0.929 . S
C336 H330 0.930 . S
C336 C337 1.367 . S
C336 C344 1.378 1_655 S
C337 C336 1.367 . S
C337 C345 1.433 1_655 S
C338 H334 0.929 . S
C338 C340 1.378 . S
C338 C342 1.350 . S
C339 C342 1.463 . S
C339 C344 1.350 . S
C339 N347 1.427 . S
C340 H331 0.930 . S
C340 C338 1.378 . S
C340 C341 1.367 1_565 S
C341 C340 1.367 1_545 S
C341 C343 1.433 . S
C342 C338 1.350 . S
C342 C339 1.463 . S
C342 N346 1.427 1_565 S
C343 H333 0.929 . S
C343 C341 1.433 . S
C343 N346 1.384 . S
C344 H335 0.929 . S
C344 C336 1.378 1_455 S
C344 C339 1.350 . S
C345 H332 0.929 . S
C345 C337 1.433 1_455 S
C345 N347 1.384 . S
N346 C342 1.427 1_545 S
N346 C343 1.384 . S
N347 C339 1.427 . S
N347 C345 1.384 . S
H348 C354 0.930 . S
H349 C358 0.930 . S
H350 C363 0.929 . S
H351 C361 0.929 . S
H352 C356 0.929 . S
H353 C362 0.929 . S
C354 H348 0.930 . S
C354 C355 1.367 . S
C354 C362 1.378 1_455 S
C355 C354 1.367 . S
C355 C363 1.433 1_455 S
C356 H352 0.929 . S
C356 C358 1.378 . S
C356 C360 1.350 . S
C357 C360 1.463 . S
C357 C362 1.350 . S
C357 N365 1.427 . S
C358 H349 0.930 . S
C358 C356 1.378 . S
C358 C359 1.367 . S
C359 C358 1.367 . S
C359 C361 1.433 . S
C360 C356 1.350 . S
C360 C357 1.463 . S
C360 N364 1.427 . S
C361 H351 0.929 . S
C361 C359 1.433 . S
C361 N364 1.384 . S
C362 H353 0.929 . S
C362 C354 1.378 1_655 S
C362 C357 1.350 . S
C363 H350 0.929 . S
C363 C355 1.433 1_655 S
C363 N365 1.384 . S
N364 C360 1.427 . S
N364 C361 1.384 . S
N365 C357 1.427 . S
N365 C363 1.384 . S
H366 C372 0.930 . S
H367 C376 0.930 1_545 S
H368 C381 0.929 . S
H369 C379 0.929 1_545 S
H370 C374 0.929 . S
H371 C380 0.929 . S
C372 H366 0.930 . S
C372 C373 1.367 . S
C372 C380 1.378 1_655 S
C373 C372 1.367 . S
C373 C381 1.433 . S
C374 H370 0.929 . S
C374 C376 1.378 . S
C374 C378 1.350 . S
C375 C378 1.463 . S
C375 C380 1.350 . S
C375 N383 1.427 . S
C376 H367 0.930 1_565 S
C376 C374 1.378 . S
C376 C377 1.367 1_565 S
C377 C376 1.367 1_545 S
C377 C379 1.433 1_545 S
C378 C374 1.350 . S
C378 C375 1.463 . S
C378 N382 1.427 . S
C379 H369 0.929 1_565 S
C379 C377 1.433 1_565 S
C379 N382 1.384 . S
C380 H371 0.929 . S
C380 C372 1.378 1_455 S
C380 C375 1.350 . S
C381 H368 0.929 . S
C381 C373 1.433 . S
C381 N383 1.384 1_655 S
N382 C378 1.427 . S
N382 C379 1.384 . S
N383 C375 1.427 . S
N383 C381 1.384 1_455 S
H384 C390 0.930 . S
H385 C394 0.930 . S
H386 C399 0.929 . S
H387 C397 0.929 . S
H388 C392 0.929 . S
H389 C398 0.929 . S
C390 H384 0.930 . S
C390 C391 1.367 . S
C390 C398 1.378 . S
C391 C390 1.367 . S
C391 C399 1.433 . S
C392 H388 0.929 . S
C392 C394 1.378 . S
C392 C396 1.350 . S
C393 C396 1.463 . S
C393 C398 1.350 . S
C393 N401 1.427 . S
C394 H385 0.930 . S
C394 C392 1.378 . S
C394 C395 1.367 1_545 S
C395 C394 1.367 1_565 S
C395 C397 1.433 . S
C396 C392 1.350 . S
C396 C393 1.463 . S
C396 N400 1.427 . S
C397 H387 0.929 . S
C397 C395 1.433 . S
C397 N400 1.384 1_565 S
C398 H389 0.929 . S
C398 C390 1.378 . S
C398 C393 1.350 . S
C399 H386 0.929 . S
C399 C391 1.433 . S
C399 N401 1.384 . S
N400 C396 1.427 . S
N400 C397 1.384 1_545 S
N401 C393 1.427 . S
N401 C399 1.384 . S
H402 C408 0.930 . S
H403 C412 0.928 1_655 S
H404 C417 0.929 . S
H405 C415 0.929 1_655 S
H406 C410 0.929 . S
H407 C416 0.929 . S
C408 H402 0.930 . S
C408 C409 1.367 . S
C408 C416 1.378 . S
C409 C408 1.367 . S
C409 C417 1.433 . S
C410 H406 0.929 . S
C410 C412 1.383 . S
C410 C414 1.350 . S
C411 C414 1.463 . S
C411 C416 1.350 . S
C411 N419 1.427 . S
C412 H403 0.928 1_455 S
C412 C410 1.383 . S
C412 C413 1.364 1_455 S
C413 C412 1.364 1_655 S
C413 C415 1.433 1_655 S
C414 C410 1.350 . S
C414 C411 1.463 . S
C414 N418 1.427 . S
C415 H405 0.929 1_455 S
C415 C413 1.433 1_455 S
C415 N418 1.384 . S
C416 H407 0.929 . S
C416 C408 1.378 . S
C416 C411 1.350 . S
C417 H404 0.929 . S
C417 C409 1.433 . S
C417 N419 1.384 . S
N418 C414 1.427 . S
N418 C415 1.384 . S
N419 C411 1.427 . S
N419 C417 1.384 . S
H420 C426 0.930 . S
H421 C430 0.930 . S
H422 C435 0.925 . S
H423 C433 0.929 . S
H424 C428 0.929 . S
H425 C434 0.929 . S
C426 H420 0.930 . S
C426 C427 1.367 . S
C426 C434 1.378 1_455 S
C427 C426 1.367 . S
C427 C435 1.445 . S
C428 H424 0.929 . S
C428 C430 1.378 . S
C428 C432 1.350 . S
C429 C432 1.463 . S
C429 C434 1.350 . S
C429 N437 1.427 . S
C430 H421 0.930 . S
C430 C428 1.378 . S
C430 C431 1.367 1_545 S
C431 C430 1.367 1_565 S
C431 C433 1.433 . S
C432 C428 1.350 . S
C432 C429 1.463 . S
C432 N436 1.427 . S
C433 H423 0.929 . S
C433 C431 1.433 . S
C433 N436 1.384 1_565 S
C434 H425 0.929 . S
C434 C426 1.378 1_655 S
C434 C429 1.350 . S
C435 H422 0.925 . S
C435 C427 1.445 . S
C435 N437 1.376 1_455 S
N436 C432 1.427 . S
N436 C433 1.384 1_545 S
N437 C429 1.427 . S
N437 C435 1.376 1_655 S
H438 C444 0.930 . S
H439 C448 0.930 . S
H440 C453 0.929 . S
H441 C451 0.932 . S
H442 C446 0.929 . S
H443 C452 0.929 . S
C444 H438 0.930 . S
C444 C445 1.367 . S
C444 C452 1.378 . S
C445 C444 1.367 . S
C445 C453 1.433 . S
C446 H442 0.929 . S
C446 C448 1.378 1_565 S
C446 C450 1.350 . S
C447 C450 1.463 . S
C447 C452 1.350 . S
C447 N455 1.427 . S
C448 H439 0.930 . S
C448 C446 1.378 1_545 S
C448 C449 1.367 . S
C449 C448 1.367 . S
C449 C451 1.433 1_545 S
C450 C446 1.350 . S
C450 C447 1.463 . S
C450 N454 1.427 . S
C451 H441 0.932 . S
C451 C449 1.433 1_565 S
C451 N454 1.384 . S
C452 H443 0.929 . S
C452 C444 1.378 . S
C452 C447 1.350 . S
C453 H440 0.929 . S
C453 C445 1.433 . S
C453 N455 1.384 . S
N454 C450 1.427 . S
N454 C451 1.384 . S
N455 C447 1.427 . S
N455 C453 1.384 . S
H456 C462 0.930 . S
H457 C466 0.930 . S
H458 C471 0.929 . S
H459 C469 0.929 . S
H460 C464 0.929 . S
H461 C470 0.929 . S
C462 H456 0.930 . S
C462 C463 1.367 . S
C462 C470 1.378 . S
C463 C462 1.367 . S
C463 C471 1.433 . S
C464 H460 0.929 . S
C464 C466 1.378 . S
C464 C468 1.350 . S
C465 C468 1.463 . S
C465 C470 1.350 . S
C465 N473 1.427 . S
C466 H457 0.930 . S
C466 C464 1.378 . S
C466 C467 1.367 . S
C467 C466 1.367 . S
C467 C469 1.433 . S
C468 C464 1.350 . S
C468 C465 1.463 . S
C468 N472 1.427 . S
C469 H459 0.929 . S
C469 C467 1.433 . S
C469 N472 1.384 . S
C470 H461 0.929 . S
C470 C462 1.378 . S
C470 C465 1.350 . S
C471 H458 0.929 . S
C471 C463 1.433 . S
C471 N473 1.384 . S
N472 C468 1.427 . S
N472 C469 1.384 . S
N473 C465 1.427 . S
N473 C471 1.384 . S
H474 C480 0.930 . S
H475 C484 0.930 . S
H476 C489 0.929 . S
H477 C487 0.929 . S
H478 C482 0.929 . S
H479 C488 0.929 . S
C480 H474 0.930 . S
C480 C481 1.367 . S
C480 C488 1.378 . S
C481 C480 1.367 . S
C481 C489 1.433 . S
C482 H478 0.929 . S
C482 C484 1.378 . S
C482 C486 1.350 . S
C483 C486 1.463 . S
C483 C488 1.350 . S
C483 N491 1.427 . S
C484 H475 0.930 . S
C484 C482 1.378 . S
C484 C485 1.367 . S
C485 C484 1.367 . S
C485 C487 1.433 . S
C486 C482 1.350 . S
C486 C483 1.463 . S
C486 N490 1.427 . S
C487 H477 0.929 . S
C487 C485 1.433 . S
C487 N490 1.384 . S
C488 H479 0.929 . S
C488 C480 1.378 . S
C488 C483 1.350 . S
C489 H476 0.929 . S
C489 C481 1.433 . S
C489 N491 1.384 . S
N490 C486 1.427 . S
N490 C487 1.384 . S
N491 C483 1.427 . S
N491 C489 1.384 . S
H492 C498 0.930 . S
H493 C502 0.930 . S
H494 C507 0.929 . S
H495 C505 0.929 . S
H496 C500 0.929 . S
H497 C506 0.929 . S
C498 H492 0.930 . S
C498 C499 1.367 . S
C498 C506 1.378 . S
C499 C498 1.367 . S
C499 C507 1.433 . S
C500 H496 0.929 . S
C500 C502 1.378 . S
C500 C504 1.350 . S
C501 C504 1.463 . S
C501 C506 1.350 . S
C501 N509 1.427 . S
C502 H493 0.930 . S
C502 C500 1.378 . S
C502 C503 1.367 . S
C503 C502 1.367 . S
C503 C505 1.433 . S
C504 C500 1.350 . S
C504 C501 1.463 . S
C504 N508 1.427 . S
C505 H495 0.929 . S
C505 C503 1.433 . S
C505 N508 1.384 . S
C506 H497 0.929 . S
C506 C498 1.378 . S
C506 C501 1.350 . S
C507 H494 0.929 . S
C507 C499 1.433 . S
C507 N509 1.384 . S
N508 C504 1.427 . S
N508 C505 1.384 . S
N509 C501 1.427 . S
N509 C507 1.384 . S
H510 C516 0.930 . S
H511 C520 0.930 . S
H512 C525 0.929 . S
H513 C523 0.929 . S
H514 C518 0.929 . S
H515 C524 0.929 . S
C516 H510 0.930 . S
C516 C517 1.367 . S
C516 C524 1.378 . S
C517 C516 1.367 . S
C517 C525 1.433 . S
C518 H514 0.929 . S
C518 C520 1.378 . S
C518 C522 1.350 . S
C519 C522 1.463 . S
C519 C524 1.350 . S
C519 N527 1.427 . S
C520 H511 0.930 . S
C520 C518 1.378 . S
C520 C521 1.367 . S
C521 C520 1.367 . S
C521 C523 1.433 . S
C522 C518 1.350 . S
C522 C519 1.463 . S
C522 N526 1.427 . S
C523 H513 0.929 . S
C523 C521 1.433 . S
C523 N526 1.384 . S
C524 H515 0.929 . S
C524 C516 1.378 . S
C524 C519 1.350 . S
C525 H512 0.929 . S
C525 C517 1.433 . S
C525 N527 1.384 . S
N526 C522 1.427 . S
N526 C523 1.384 . S
N527 C519 1.427 . S
N527 C525 1.384 . S
H528 C534 0.930 . S
H529 C538 0.930 . S
H530 C543 0.929 . S
H531 C541 0.929 . S
H532 C536 0.929 . S
H533 C542 0.929 . S
C534 H528 0.930 . S
C534 C535 1.367 . S
C534 C542 1.378 . S
C535 C534 1.367 . S
C535 C543 1.433 . S
C536 H532 0.929 . S
C536 C538 1.378 . S
C536 C540 1.350 . S
C537 C540 1.463 . S
C537 C542 1.350 . S
C537 N545 1.427 . S
C538 H529 0.930 . S
C538 C536 1.378 . S
C538 C539 1.367 . S
C539 C538 1.367 . S
C539 C541 1.433 . S
C540 C536 1.350 . S
C540 C537 1.463 . S
C540 N544 1.427 . S
C541 H531 0.929 . S
C541 C539 1.433 . S
C541 N544 1.384 . S
C542 H533 0.929 . S
C542 C534 1.378 . S
C542 C537 1.350 . S
C543 H530 0.929 . S
C543 C535 1.433 . S
C543 N545 1.384 . S
N544 C540 1.427 . S
N544 C541 1.384 . S
N545 C537 1.427 . S
N545 C543 1.384 . S
H546 C552 0.930 . S
H547 C556 0.930 . S
H548 C561 0.929 . S
H549 C559 0.929 . S
H550 C554 0.929 . S
H551 C560 0.929 . S
C552 H546 0.930 . S
C552 C553 1.367 . S
C552 C560 1.378 . S
C553 C552 1.367 . S
C553 C561 1.433 . S
C554 H550 0.929 . S
C554 C556 1.378 . S
C554 C558 1.350 . S
C555 C558 1.463 . S
C555 C560 1.350 . S
C555 N563 1.427 . S
C556 H547 0.930 . S
C556 C554 1.378 . S
C556 C557 1.367 . S
C557 C556 1.367 . S
C557 C559 1.433 . S
C558 C554 1.350 . S
C558 C555 1.463 . S
C558 N562 1.427 . S
C559 H549 0.929 . S
C559 C557 1.433 . S
C559 N562 1.384 . S
C560 H551 0.929 . S
C560 C552 1.378 . S
C560 C555 1.350 . S
C561 H548 0.929 . S
C561 C553 1.433 . S
C561 N563 1.384 . S
N562 C558 1.427 . S
N562 C559 1.384 . S
N563 C555 1.427 . S
N563 C561 1.384 . S
H564 C570 0.930 . S
H565 C574 0.930 . S
H566 C579 0.929 . S
H567 C577 0.929 . S
H568 C572 0.929 . S
H569 C578 0.929 . S
C570 H564 0.930 . S
C570 C571 1.367 . S
C570 C578 1.378 . S
C571 C570 1.367 . S
C571 C579 1.433 . S
C572 H568 0.929 . S
C572 C574 1.378 . S
C572 C576 1.350 . S
C573 C576 1.463 . S
C573 C578 1.350 . S
C573 N581 1.427 . S
C574 H565 0.930 . S
C574 C572 1.378 . S
C574 C575 1.367 . S
C575 C574 1.367 . S
C575 C577 1.433 . S
C576 C572 1.350 . S
C576 C573 1.463 . S
C576 N580 1.427 . S
C577 H567 0.929 . S
C577 C575 1.433 . S
C577 N580 1.384 . S
C578 H569 0.929 . S
C578 C570 1.378 . S
C578 C573 1.350 . S
C579 H566 0.929 . S
C579 C571 1.433 . S
C579 N581 1.384 . S
N580 C576 1.427 . S
N580 C577 1.384 . S
N581 C573 1.427 . S
N581 C579 1.384 . S
H582 C588 0.930 . S
H583 C592 0.930 . S
H584 C597 0.929 . S
H585 C595 0.929 . S
H586 C590 0.929 . S
H587 C596 0.929 . S
C588 H582 0.930 . S
C588 C589 1.367 . S
C588 C596 1.378 . S
C589 C588 1.367 . S
C589 C597 1.433 . S
C590 H586 0.929 . S
C590 C592 1.378 . S
C590 C594 1.350 . S
C591 C594 1.463 . S
C591 C596 1.350 . S
C591 N599 1.427 . S
C592 H583 0.930 . S
C592 C590 1.378 . S
C592 C593 1.367 . S
C593 C592 1.367 . S
C593 C595 1.433 . S
C594 C590 1.350 . S
C594 C591 1.463 . S
C594 N598 1.427 . S
C595 H585 0.929 . S
C595 C593 1.433 . S
C595 N598 1.384 . S
C596 H587 0.929 . S
C596 C588 1.378 . S
C596 C591 1.350 . S
C597 H584 0.929 . S
C597 C589 1.433 . S
C597 N599 1.384 . S
N598 C594 1.427 . S
N598 C595 1.384 . S
N599 C591 1.427 . S
N599 C597 1.384 . S
H600 C606 0.930 . S
H601 C610 0.930 . S
H602 C615 0.929 . S
H603 C613 0.929 . S
H604 C608 0.929 . S
H605 C614 0.929 . S
C606 H600 0.930 . S
C606 C607 1.367 . S
C606 C614 1.378 . S
C607 C606 1.367 . S
C607 C615 1.433 . S
C608 H604 0.929 . S
C608 C610 1.378 . S
C608 C612 1.350 . S
C609 C612 1.463 . S
C609 C614 1.350 . S
C609 N617 1.427 . S
C610 H601 0.930 . S
C610 C608 1.378 . S
C610 C611 1.367 . S
C611 C610 1.367 . S
C611 C613 1.433 . S
C612 C608 1.350 . S
C612 C609 1.463 . S
C612 N616 1.427 . S
C613 H603 0.929 . S
C613 C611 1.433 . S
C613 N616 1.384 . S
C614 H605 0.929 . S
C614 C606 1.378 . S
C614 C609 1.350 . S
C615 H602 0.929 . S
C615 C607 1.433 . S
C615 N617 1.384 . S
N616 C612 1.427 . S
N616 C613 1.384 . S
N617 C609 1.427 . S
N617 C615 1.384 . S
H618 C624 0.930 . S
H619 C628 0.930 . S
H620 C633 0.929 . S
H621 C631 0.929 . S
H622 C626 0.929 . S
H623 C632 0.929 . S
C624 H618 0.930 . S
C624 C625 1.367 . S
C624 C632 1.378 . S
C625 C624 1.367 . S
C625 C633 1.433 . S
C626 H622 0.929 . S
C626 C628 1.378 . S
C626 C630 1.350 . S
C627 C630 1.463 . S
C627 C632 1.350 . S
C627 N635 1.427 . S
C628 H619 0.930 . S
C628 C626 1.378 . S
C628 C629 1.367 . S
C629 C628 1.367 . S
C629 C631 1.433 . S
C630 C626 1.350 . S
C630 C627 1.463 . S
C630 N634 1.427 . S
C631 H621 0.929 . S
C631 C629 1.433 . S
C631 N634 1.384 . S
C632 H623 0.929 . S
C632 C624 1.378 . S
C632 C627 1.350 . S
C633 H620 0.929 . S
C633 C625 1.433 . S
C633 N635 1.384 . S
N634 C630 1.427 . S
N634 C631 1.384 . S
N635 C627 1.427 . S
N635 C633 1.384 . S
H636 C642 0.930 . S
H637 C646 0.930 . S
H638 C651 0.929 . S
H639 C649 0.929 . S
H640 C644 0.929 . S
H641 C650 0.929 . S
C642 H636 0.930 . S
C642 C643 1.367 . S
C642 C650 1.378 . S
C643 C642 1.367 . S
C643 C651 1.433 . S
C644 H640 0.929 . S
C644 C646 1.378 . S
C644 C648 1.350 . S
C645 C648 1.463 . S
C645 C650 1.350 . S
C645 N653 1.427 . S
C646 H637 0.930 . S
C646 C644 1.378 . S
C646 C647 1.367 . S
C647 C646 1.367 . S
C647 C649 1.433 . S
C648 C644 1.350 . S
C648 C645 1.463 . S
C648 N652 1.427 . S
C649 H639 0.929 . S
C649 C647 1.433 . S
C649 N652 1.384 . S
C650 H641 0.929 . S
C650 C642 1.378 . S
C650 C645 1.350 . S
C651 H638 0.929 . S
C651 C643 1.433 . S
C651 N653 1.384 . S
N652 C648 1.427 . S
N652 C649 1.384 . S
N653 C645 1.427 . S
N653 C651 1.384 . S
H654 C660 0.930 . S
H655 C664 0.930 . S
H656 C669 0.929 . S
H657 C667 0.929 . S
H658 C662 0.929 . S
H659 C668 0.929 . S
C660 H654 0.930 . S
C660 C661 1.367 . S
C660 C668 1.378 . S
C661 C660 1.367 . S
C661 C669 1.433 . S
C662 H658 0.929 . S
C662 C664 1.378 . S
C662 C666 1.350 . S
C663 C666 1.463 . S
C663 C668 1.350 . S
C663 N671 1.427 . S
C664 H655 0.930 . S
C664 C662 1.378 . S
C664 C665 1.367 . S
C665 C664 1.367 . S
C665 C667 1.433 . S
C666 C662 1.350 . S
C666 C663 1.463 . S
C666 N670 1.427 . S
C667 H657 0.929 . S
C667 C665 1.433 . S
C667 N670 1.384 . S
C668 H659 0.929 . S
C668 C660 1.378 . S
C668 C663 1.350 . S
C669 H656 0.929 . S
C669 C661 1.433 . S
C669 N671 1.384 . S
N670 C666 1.427 . S
N670 C667 1.384 . S
N671 C663 1.427 . S
N671 C669 1.384 . S
H672 C678 0.930 . S
H673 C682 0.930 . S
H674 C687 0.929 . S
H675 C685 0.929 . S
H676 C680 0.929 . S
H677 C686 0.929 . S
C678 H672 0.930 . S
C678 C679 1.367 . S
C678 C686 1.378 . S
C679 C678 1.367 . S
C679 C687 1.433 . S
C680 H676 0.929 . S
C680 C682 1.378 . S
C680 C684 1.350 . S
C681 C684 1.463 . S
C681 C686 1.350 . S
C681 N689 1.427 . S
C682 H673 0.930 . S
C682 C680 1.378 . S
C682 C683 1.367 . S
C683 C682 1.367 . S
C683 C685 1.433 . S
C684 C680 1.350 . S
C684 C681 1.463 . S
C684 N688 1.427 . S
C685 H675 0.929 . S
C685 C683 1.433 . S
C685 N688 1.384 . S
C686 H677 0.929 . S
C686 C678 1.378 . S
C686 C681 1.350 . S
C687 H674 0.929 . S
C687 C679 1.433 . S
C687 N689 1.384 . S
N688 C684 1.427 . S
N688 C685 1.384 . S
N689 C681 1.427 . S
N689 C687 1.384 . S
H690 C696 0.930 . S
H691 C700 0.930 . S
H692 C705 0.929 . S
H693 C703 0.929 . S
H694 C698 0.929 . S
H695 C704 0.929 . S
C696 H690 0.930 . S
C696 C697 1.367 . S
C696 C704 1.378 . S
C697 C696 1.367 . S
C697 C705 1.433 . S
C698 H694 0.929 . S
C698 C700 1.378 . S
C698 C702 1.350 . S
C699 C702 1.463 . S
C699 C704 1.350 . S
C699 N707 1.427 . S
C700 H691 0.930 . S
C700 C698 1.378 . S
C700 C701 1.367 . S
C701 C700 1.367 . S
C701 C703 1.433 . S
C702 C698 1.350 . S
C702 C699 1.463 . S
C702 N706 1.427 . S
C703 H693 0.929 . S
C703 C701 1.433 . S
C703 N706 1.384 . S
C704 H695 0.929 . S
C704 C696 1.378 . S
C704 C699 1.350 . S
C705 H692 0.929 . S
C705 C697 1.433 . S
C705 N707 1.384 . S
N706 C702 1.427 . S
N706 C703 1.384 . S
N707 C699 1.427 . S
N707 C705 1.384 . S
H708 C714 0.930 . S
H709 C718 0.930 . S
H710 C723 0.929 . S
H711 C721 0.929 . S
H712 C716 0.929 . S
H713 C722 0.929 . S
C714 H708 0.930 . S
C714 C715 1.367 . S
C714 C722 1.378 . S
C715 C714 1.367 . S
C715 C723 1.433 . S
C716 H712 0.929 . S
C716 C718 1.378 . S
C716 C720 1.350 . S
C717 C720 1.463 . S
C717 C722 1.350 . S
C717 N725 1.427 . S
C718 H709 0.930 . S
C718 C716 1.378 . S
C718 C719 1.367 . S
C719 C718 1.367 . S
C719 C721 1.433 . S
C720 C716 1.350 . S
C720 C717 1.463 . S
C720 N724 1.427 . S
C721 H711 0.929 . S
C721 C719 1.433 . S
C721 N724 1.384 . S
C722 H713 0.929 . S
C722 C714 1.378 . S
C722 C717 1.350 . S
C723 H710 0.929 . S
C723 C715 1.433 . S
C723 N725 1.384 . S
N724 C720 1.427 . S
N724 C721 1.384 . S
N725 C717 1.427 . S
N725 C723 1.384 . S
H726 C732 0.930 . S
H727 C736 0.930 . S
H728 C741 0.929 . S
H729 C739 0.929 . S
H730 C734 0.929 . S
H731 C740 0.929 . S
C732 H726 0.930 . S
C732 C733 1.367 . S
C732 C740 1.378 . S
C733 C732 1.367 . S
C733 C741 1.433 . S
C734 H730 0.929 . S
C734 C736 1.378 . S
C734 C738 1.350 . S
C735 C738 1.463 . S
C735 C740 1.350 . S
C735 N743 1.427 . S
C736 H727 0.930 . S
C736 C734 1.378 . S
C736 C737 1.367 . S
C737 C736 1.367 . S
C737 C739 1.433 . S
C738 C734 1.350 . S
C738 C735 1.463 . S
C738 N742 1.427 . S
C739 H729 0.929 . S
C739 C737 1.433 . S
C739 N742 1.384 . S
C740 H731 0.929 . S
C740 C732 1.378 . S
C740 C735 1.350 . S
C741 H728 0.929 . S
C741 C733 1.433 . S
C741 N743 1.384 . S
N742 C738 1.427 . S
N742 C739 1.384 . S
N743 C735 1.427 . S
N743 C741 1.384 . S
H744 C750 0.930 . S
H745 C754 0.930 . S
H746 C759 0.929 . S
H747 C757 0.929 . S
H748 C752 0.929 . S
H749 C758 0.929 . S
C750 H744 0.930 . S
C750 C751 1.367 . S
C750 C758 1.378 . S
C751 C750 1.367 . S
C751 C759 1.433 . S
C752 H748 0.929 . S
C752 C754 1.378 . S
C752 C756 1.350 . S
C753 C756 1.463 . S
C753 C758 1.350 . S
C753 N761 1.427 . S
C754 H745 0.930 . S
C754 C752 1.378 . S
C754 C755 1.367 . S
C755 C754 1.367 . S
C755 C757 1.433 . S
C756 C752 1.350 . S
C756 C753 1.463 . S
C756 N760 1.427 . S
C757 H747 0.929 . S
C757 C755 1.433 . S
C757 N760 1.384 . S
C758 H749 0.929 . S
C758 C750 1.378 . S
C758 C753 1.350 . S
C759 H746 0.929 . S
C759 C751 1.433 . S
C759 N761 1.384 . S
N760 C756 1.427 . S
N760 C757 1.384 . S
N761 C753 1.427 . S
N761 C759 1.384 . S
H762 C768 0.930 . S
H763 C772 0.930 . S
H764 C777 0.929 . S
H765 C775 0.929 . S
H766 C770 0.929 . S
H767 C776 0.929 . S
C768 H762 0.930 . S
C768 C769 1.367 . S
C768 C776 1.378 . S
C769 C768 1.367 . S
C769 C777 1.433 . S
C770 H766 0.929 . S
C770 C772 1.378 . S
C770 C774 1.350 . S
C771 C774 1.463 . S
C771 C776 1.350 . S
C771 N779 1.427 . S
C772 H763 0.930 . S
C772 C770 1.378 . S
C772 C773 1.367 . S
C773 C772 1.367 . S
C773 C775 1.433 . S
C774 C770 1.350 . S
C774 C771 1.463 . S
C774 N778 1.427 . S
C775 H765 0.929 . S
C775 C773 1.433 . S
C775 N778 1.384 . S
C776 H767 0.929 . S
C776 C768 1.378 . S
C776 C771 1.350 . S
C777 H764 0.929 . S
C777 C769 1.433 . S
C777 N779 1.384 . S
N778 C774 1.427 . S
N778 C775 1.384 . S
N779 C771 1.427 . S
N779 C777 1.384 . S
H780 C786 0.930 . S
H781 C790 0.930 . S
H782 C795 0.929 . S
H783 C793 0.929 . S
H784 C788 0.929 . S
H785 C794 0.929 . S
C786 H780 0.930 . S
C786 C787 1.367 . S
C786 C794 1.378 . S
C787 C786 1.367 . S
C787 C795 1.433 . S
C788 H784 0.929 . S
C788 C790 1.378 . S
C788 C792 1.350 . S
C789 C792 1.463 1_556 S
C789 C794 1.350 . S
C789 N797 1.427 . S
C790 H781 0.930 . S
C790 C788 1.378 . S
C790 C791 1.367 . S
C791 C790 1.367 . S
C791 C793 1.433 . S
C792 C788 1.350 . S
C792 C789 1.463 1_554 S
C792 N796 1.427 . S
C793 H783 0.929 . S
C793 C791 1.433 . S
C793 N796 1.384 . S
C794 H785 0.929 . S
C794 C786 1.378 . S
C794 C789 1.350 . S
C795 H782 0.929 . S
C795 C787 1.433 . S
C795 N797 1.384 . S
N796 C792 1.427 . S
N796 C793 1.384 . S
N797 C789 1.427 . S
N797 C795 1.384 . S
H798 C804 0.930 . S
H799 C808 0.930 . S
H800 C813 0.929 . S
H801 C811 0.929 . S
H802 C806 0.929 . S
H803 C812 0.929 . S
C804 H798 0.930 . S
C804 C805 1.367 . S
C804 C812 1.378 . S
C805 C804 1.367 . S
C805 C813 1.433 . S
C806 H802 0.929 . S
C806 C808 1.378 . S
C806 C810 1.350 . S
C807 C810 1.463 1_455 S
C807 C812 1.350 . S
C807 N815 1.427 . S
C808 H799 0.930 . S
C808 C806 1.378 . S
C808 C809 1.367 . S
C809 C808 1.367 . S
C809 C811 1.433 . S
C810 C806 1.350 . S
C810 C807 1.463 1_655 S
C810 N814 1.427 . S
C811 H801 0.929 . S
C811 C809 1.433 . S
C811 N814 1.384 . S
C812 H803 0.929 . S
C812 C804 1.378 . S
C812 C807 1.350 . S
C813 H800 0.929 . S
C813 C805 1.433 . S
C813 N815 1.384 . S
N814 C810 1.427 . S
N814 C811 1.384 . S
N815 C807 1.427 . S
N815 C813 1.384 . S
H816 C822 0.930 . S
H817 C826 0.930 . S
H818 C831 0.929 . S
H819 C829 0.929 . S
H820 C824 0.929 . S
H821 C830 0.929 . S
C822 H816 0.930 . S
C822 C823 1.367 . S
C822 C830 1.378 . S
C823 C822 1.367 . S
C823 C831 1.433 . S
C824 H820 0.929 . S
C824 C826 1.378 . S
C824 C828 1.350 . S
C825 C828 1.463 1_564 S
C825 C830 1.350 . S
C825 N833 1.427 . S
C826 H817 0.930 . S
C826 C824 1.378 . S
C826 C827 1.367 . S
C827 C826 1.367 . S
C827 C829 1.433 . S
C828 C824 1.350 . S
C828 C825 1.463 1_546 S
C828 N832 1.427 . S
C829 H819 0.929 . S
C829 C827 1.433 . S
C829 N832 1.384 . S
C830 H821 0.929 . S
C830 C822 1.378 . S
C830 C825 1.350 . S
C831 H818 0.929 . S
C831 C823 1.433 . S
C831 N833 1.384 . S
N832 C828 1.427 . S
N832 C829 1.384 . S
N833 C825 1.427 . S
N833 C831 1.384 . S
H834 C840 0.930 . S
H835 C844 0.930 . S
H836 C849 0.929 . S
H837 C847 0.929 . S
H838 C842 0.929 . S
H839 C848 0.929 . S
C840 H834 0.930 . S
C840 C841 1.367 . S
C840 C848 1.378 . S
C841 C840 1.367 . S
C841 C849 1.433 . S
C842 H838 0.929 . S
C842 C844 1.378 . S
C842 C846 1.350 . S
C843 C846 1.463 . S
C843 C848 1.350 . S
C843 N851 1.427 . S
C844 H835 0.930 . S
C844 C842 1.378 . S
C844 C845 1.367 . S
C845 C844 1.367 . S
C845 C847 1.433 . S
C846 C842 1.350 . S
C846 C843 1.463 . S
C846 N850 1.427 . S
C847 H837 0.929 . S
C847 C845 1.433 . S
C847 N850 1.384 . S
C848 H839 0.929 . S
C848 C840 1.378 . S
C848 C843 1.350 . S
C849 H836 0.929 . S
C849 C841 1.433 . S
C849 N851 1.384 . S
N850 C846 1.427 . S
N850 C847 1.384 . S
N851 C843 1.427 . S
N851 C849 1.384 . S
H852 C858 0.930 . S
H853 C862 0.930 . S
H854 C867 0.929 . S
H855 C865 0.929 . S
H856 C860 0.929 . S
H857 C866 0.929 . S
C858 H852 0.930 . S
C858 C859 1.367 . S
C858 C866 1.378 . S
C859 C858 1.367 . S
C859 C867 1.433 . S
C860 H856 0.929 . S
C860 C862 1.378 . S
C860 C864 1.350 . S
C861 C864 1.463 1_656 S
C861 C866 1.350 . S
C861 N869 1.427 . S
C862 H853 0.930 . S
C862 C860 1.378 . S
C862 C863 1.367 . S
C863 C862 1.367 . S
C863 C865 1.433 . S
C864 C860 1.350 . S
C864 C861 1.463 1_454 S
C864 N868 1.427 . S
C865 H855 0.929 . S
C865 C863 1.433 . S
C865 N868 1.384 . S
C866 H857 0.929 . S
C866 C858 1.378 . S
C866 C861 1.350 . S
C867 H854 0.929 . S
C867 C859 1.433 . S
C867 N869 1.384 . S
N868 C864 1.427 . S
N868 C865 1.384 . S
N869 C861 1.427 . S
N869 C867 1.384 . S
H870 C876 0.930 . S
H871 C880 0.930 . S
H872 C885 0.929 . S
H873 C883 0.929 . S
H874 C878 0.929 1_565 S
H875 C884 0.929 1_545 S
C876 H870 0.930 . S
C876 C877 1.367 . S
C876 C884 1.378 . S
C877 C876 1.367 . S
C877 C885 1.433 . S
C878 H874 0.929 1_545 S
C878 C880 1.378 . S
C878 C882 1.350 . S
C879 C882 1.463 1_565 S
C879 C884 1.350 . S
C879 N887 1.427 . S
C880 H871 0.930 . S
C880 C878 1.378 . S
C880 C881 1.367 . S
C881 C880 1.367 . S
C881 C883 1.433 . S
C882 C878 1.350 . S
C882 C879 1.463 1_545 S
C882 N886 1.427 . S
C883 H873 0.929 . S
C883 C881 1.433 . S
C883 N886 1.384 . S
C884 H875 0.929 1_565 S
C884 C876 1.378 . S
C884 C879 1.350 . S
C885 H872 0.929 . S
C885 C877 1.433 . S
C885 N887 1.384 . S
N886 C882 1.427 . S
N886 C883 1.384 . S
N887 C879 1.427 . S
N887 C885 1.384 . S
C247 C86 1.384 . S
C251 C19 1.413 . S
C265 C106 1.378 . S
C269 C39 1.415 . S
C283 C59 1.411 . S
C287 C6 1.382 . S
C301 C79 1.413 . S
C305 C26 1.384 . S
C319 C99 1.405 . S
C323 C46 1.393 . S
C337 C66 1.395 . S
C341 C119 1.405 . S
C355 C166 1.394 . S
C359 C139 1.404 . S
C373 C159 1.414 . S
C377 C186 1.385 . S
C391 C206 1.393 . S
C395 C179 1.403 . S
C409 C199 1.405 . S
C413 C226 1.389 . S
C427 C219 1.409 . S
C431 C126 1.384 . S
C445 C146 1.381 . S
C449 C239 1.415 . S
C463 C96 1.576 . S
C467 C8 1.504 . S
C481 C28 1.511 . S
C485 C116 1.574 . S
C499 C48 1.497 . S
C503 C16 1.580 . S
C517 C68 1.507 . S
C521 C36 1.576 . S
C535 C56 1.578 . S
C539 C88 1.500 . S
C553 C76 1.574 . S
C557 C108 1.511 . S
C571 C176 1.575 . S
C575 C128 1.509 . S
C589 C148 1.509 . S
C593 C196 1.575 . S
C607 C168 1.501 . S
C611 C216 1.579 . S
C625 C236 1.573 . S
C629 C188 1.513 . S
C643 C208 1.511 . S
C647 C136 1.575 . S
C661 C156 1.574 . S
C665 C228 1.509 . S
C679 C209 1.705 . S
C683 C9 1.697 . S
C697 C29 1.695 . S
C701 C229 1.704 . S
C715 C49 1.693 . S
C719 C129 1.693 . S
C733 C69 1.693 . S
C737 C149 1.703 . S
C751 C89 1.705 . S
C755 C169 1.698 . S
C769 C189 1.693 . S
C773 C109 1.703 . S
C787 C181 1.829 . S
C791 C1 1.834 . S
C805 C201 1.830 . S
C809 C21 1.835 . S
C823 C41 1.831 . S
C827 C221 1.836 . S
C841 C61 1.835 . S
C845 C121 1.831 . S
C859 C141 1.834 . S
C863 C81 1.829 . S
C877 C161 1.830 . S
C881 C101 1.829 . S
