# Generated by pormake.
# Topology uox, (4)-cn, num edge types: 1
# Building blocks:
#     Node 0, Type 0, BuildingBlock: KUFVIS_clean_sbu_0, # of connection points: 4
#     Node 1, Type 0, BuildingBlock: KUFVIS_clean_sbu_0, # of connection points: 4
#     Node 2, Type 0, BuildingBlock: KUFVIS_clean_sbu_0, # of connection points: 4
#     Node 3, Type 0, BuildingBlock: KUFVIS_clean_sbu_0, # of connection points: 4
#     Node 4, Type 0, BuildingBlock: KUFVIS_clean_sbu_0, # of connection points: 4
#     Node 5, Type 0, BuildingBlock: KUFVIS_clean_sbu_0, # of connection points: 4
#     Node 6, Type 0, BuildingBlock: KUFVIS_clean_sbu_0, # of connection points: 4
#     Node 7, Type 0, BuildingBlock: KUFVIS_clean_sbu_0, # of connection points: 4
#     Node 8, Type 0, BuildingBlock: KUFVIS_clean_sbu_0, # of connection points: 4
#     Node 9, Type 0, BuildingBlock: KUFVIS_clean_sbu_0, # of connection points: 4
#     Node 10, Type 0, BuildingBlock: KUFVIS_clean_sbu_0, # of connection points: 4
#     Node 11, Type 0, BuildingBlock: KUFVIS_clean_sbu_0, # of connection points: 4
#     Node 12, Type 0, BuildingBlock: KUFVIS_clean_sbu_0, # of connection points: 4
#     Node 13, Type 0, BuildingBlock: KUFVIS_clean_sbu_0, # of connection points: 4
#     Node 14, Type 0, BuildingBlock: KUFVIS_clean_sbu_0, # of connection points: 4
#     Node 15, Type 0, BuildingBlock: KUFVIS_clean_sbu_0, # of connection points: 4
#     Node 16, Type 0, BuildingBlock: KUFVIS_clean_sbu_0, # of connection points: 4
#     Node 17, Type 0, BuildingBlock: KUFVIS_clean_sbu_0, # of connection points: 4
#     Node 18, Type 0, BuildingBlock: KUFVIS_clean_sbu_0, # of connection points: 4
#     Node 19, Type 0, BuildingBlock: KUFVIS_clean_sbu_0, # of connection points: 4
#     Node 20, Type 0, BuildingBlock: KUFVIS_clean_sbu_0, # of connection points: 4
#     Node 21, Type 0, BuildingBlock: KUFVIS_clean_sbu_0, # of connection points: 4
#     Node 22, Type 0, BuildingBlock: KUFVIS_clean_sbu_0, # of connection points: 4
#     Node 23, Type 0, BuildingBlock: KUFVIS_clean_sbu_0, # of connection points: 4
#     Node 24, Type 0, BuildingBlock: KUFVIS_clean_sbu_0, # of connection points: 4
#     Node 25, Type 0, BuildingBlock: KUFVIS_clean_sbu_0, # of connection points: 4
#     Node 26, Type 0, BuildingBlock: KUFVIS_clean_sbu_0, # of connection points: 4
#     Node 27, Type 0, BuildingBlock: KUFVIS_clean_sbu_0, # of connection points: 4
#     Node 28, Type 0, BuildingBlock: KUFVIS_clean_sbu_0, # of connection points: 4
#     Node 29, Type 0, BuildingBlock: KUFVIS_clean_sbu_0, # of connection points: 4
#     Node 30, Type 0, BuildingBlock: KUFVIS_clean_sbu_0, # of connection points: 4
#     Node 31, Type 0, BuildingBlock: KUFVIS_clean_sbu_0, # of connection points: 4
#     Edge 32, Type (0, 0), None
#     Edge 33, Type (0, 0), None
#     Edge 34, Type (0, 0), None
#     Edge 35, Type (0, 0), None
#     Edge 36, Type (0, 0), None
#     Edge 37, Type (0, 0), None
#     Edge 38, Type (0, 0), None
#     Edge 39, Type (0, 0), None
#     Edge 40, Type (0, 0), None
#     Edge 41, Type (0, 0), None
#     Edge 42, Type (0, 0), None
#     Edge 43, Type (0, 0), None
#     Edge 44, Type (0, 0), None
#     Edge 45, Type (0, 0), None
#     Edge 46, Type (0, 0), None
#     Edge 47, Type (0, 0), None
#     Edge 48, Type (0, 0), None
#     Edge 49, Type (0, 0), None
#     Edge 50, Type (0, 0), None
#     Edge 51, Type (0, 0), None
#     Edge 52, Type (0, 0), None
#     Edge 53, Type (0, 0), None
#     Edge 54, Type (0, 0), None
#     Edge 55, Type (0, 0), None
#     Edge 56, Type (0, 0), None
#     Edge 57, Type (0, 0), None
#     Edge 58, Type (0, 0), None
#     Edge 59, Type (0, 0), None
#     Edge 60, Type (0, 0), None
#     Edge 61, Type (0, 0), None
#     Edge 62, Type (0, 0), None
#     Edge 63, Type (0, 0), None
#     Edge 64, Type (0, 0), None
#     Edge 65, Type (0, 0), None
#     Edge 66, Type (0, 0), None
#     Edge 67, Type (0, 0), None
#     Edge 68, Type (0, 0), None
#     Edge 69, Type (0, 0), None
#     Edge 70, Type (0, 0), None
#     Edge 71, Type (0, 0), None
#     Edge 72, Type (0, 0), None
#     Edge 73, Type (0, 0), None
#     Edge 74, Type (0, 0), None
#     Edge 75, Type (0, 0), None
#     Edge 76, Type (0, 0), None
#     Edge 77, Type (0, 0), None
#     Edge 78, Type (0, 0), None
#     Edge 79, Type (0, 0), None
#     Edge 80, Type (0, 0), None
#     Edge 81, Type (0, 0), None
#     Edge 82, Type (0, 0), None
#     Edge 83, Type (0, 0), None
#     Edge 84, Type (0, 0), None
#     Edge 85, Type (0, 0), None
#     Edge 86, Type (0, 0), None
#     Edge 87, Type (0, 0), None
#     Edge 88, Type (0, 0), None
#     Edge 89, Type (0, 0), None
#     Edge 90, Type (0, 0), None
#     Edge 91, Type (0, 0), None
#     Edge 92, Type (0, 0), None
#     Edge 93, Type (0, 0), None
#     Edge 94, Type (0, 0), None
#     Edge 95, Type (0, 0), None
# Relax obj value: 0.066
# Max RMSD: 0.099
# Mean RMSD: 0.099
data_MOF--net-uox--node1-KUFVIS_clean_sbu_0--edge1-none
_symmetry_space_group_name_H-M    P1
_symmetry_Int_Tables_number       1
_symmetry_cell_setting            triclinic
loop_
_symmetry_equiv_pos_as_xyz
'x, y, z'
_cell_length_a     21.160251
_cell_length_b     21.160343
_cell_length_c     35.455018
_cell_angle_alpha  90.000011
_cell_angle_beta   90.000012
_cell_angle_gamma 90.000027
loop_
_atom_site_label
_atom_site_type_symbol
_atom_site_fract_x
_atom_site_fract_y
_atom_site_fract_z
_atom_type_partial_charge
Mn0 Mn 0.39326 0.07135 0.164 0.0
Mn1 Mn 0.46484 0.92497 0.16649 0.0
C2 C 0.50536 0.07246 0.15703 0.0
C3 C 0.34712 0.16537 0.12994 0.0
C4 C 0.41186 -0.00967 0.23624 0.0
O5 O 0.31992 0.00166 0.15301 0.0
O6 O 0.38063 0.91917 0.14788 0.0
C7 C 0.45557 0.90138 0.08289 0.0
N8 N 0.4914 0.90373 0.11469 0.0
C9 C 0.59357 0.88711 0.07366 0.0
C10 C 0.54769 0.87951 0.04305 0.0
C11 C 0.48245 0.8874 0.04795 0.0
C12 C 0.55316 0.89525 0.11211 0.0
H13 H 0.4055 0.90992 0.08354 0.0
C14 C 0.32827 0.94487 0.14205 0.0
O15 O 0.33301 0.15116 0.16459 0.0
O16 O 0.38507 0.12436 0.1148 0.0
N17 N 0.54914 0.91094 0.18686 0.0
C18 C 0.57943 0.9147 0.22938 0.0
C19 C 0.66425 0.91328 0.23985 0.0
C20 C 0.72513 0.90618 0.20489 0.0
C21 C 0.70429 0.90035 0.15631 0.0
C22 C 0.58604 0.9011 0.14929 0.0
H23 H 0.54766 0.92072 0.25299 0.0
O24 O 0.47336 0.11806 0.17196 0.0
O25 O 0.47156 0.02037 0.15029 0.0
O26 O 0.39554 0.04186 0.21994 0.0
O27 O 0.43561 0.94337 0.21859 0.0
C28 C 0.74696 0.89705 0.11942 0.0
C29 C 0.71668 0.89015 0.07974 0.0
H30 H 0.55988 0.86865 0.01411 0.0
H31 H 0.45171 0.88364 0.02361 0.0
H32 H 0.67967 0.9138 0.26876 0.0
H33 H 0.77408 0.90563 0.21342 0.0
H34 H 0.79445 0.90467 0.11599 0.0
H35 H 0.75373 0.88518 0.05857 0.0
Mn36 Mn 0.15619 0.14325 0.414 0.0
Mn37 Mn 0.30257 0.21484 0.41649 0.0
C38 C 0.15508 0.25536 0.40703 0.0
C39 C 0.06217 0.09712 0.37994 0.0
C40 C 0.2372 0.16186 0.48624 0.0
O41 O 0.22588 0.06992 0.40301 0.0
O42 O 0.30836 0.13063 0.39788 0.0
C43 C 0.32616 0.20557 0.33289 0.0
N44 N 0.32381 0.24139 0.36469 0.0
C45 C 0.34043 0.34357 0.32366 0.0
C46 C 0.34804 0.29769 0.29305 0.0
C47 C 0.34015 0.23245 0.29795 0.0
C48 C 0.33229 0.30316 0.36211 0.0
H49 H 0.31763 0.15549 0.33354 0.0
C50 C 0.28267 0.07827 0.39205 0.0
O51 O 0.07638 0.08301 0.41459 0.0
O52 O 0.10317 0.13507 0.3648 0.0
N53 N 0.3166 0.29914 0.43686 0.0
C54 C 0.31283 0.32944 0.47938 0.0
C55 C 0.31425 0.41425 0.48985 0.0
C56 C 0.32135 0.47513 0.45489 0.0
C57 C 0.32718 0.45429 0.40631 0.0
C58 C 0.32644 0.33604 0.39929 0.0
H59 H 0.30682 0.29766 0.50299 0.0
O60 O 0.10948 0.22336 0.42196 0.0
O61 O 0.20716 0.22156 0.40029 0.0
O62 O 0.18568 0.14554 0.46994 0.0
O63 O 0.28417 0.18561 0.46859 0.0
C64 C 0.33048 0.49696 0.36942 0.0
C65 C 0.33738 0.46668 0.32974 0.0
H66 H 0.35889 0.30988 0.26411 0.0
H67 H 0.34391 0.2017 0.27361 0.0
H68 H 0.31373 0.42968 0.51875 0.0
H69 H 0.32189 0.52408 0.46342 0.0
H70 H 0.32285 0.54445 0.36598 0.0
H71 H 0.34235 0.50372 0.30856 0.0
Mn72 Mn 0.08429 0.90619 0.664 0.0
Mn73 Mn 0.0127 0.05256 0.66649 0.0
C74 C 0.97218 0.90508 0.65703 0.0
C75 C 0.13042 0.81217 0.62994 0.0
C76 C 0.06568 0.9872 0.73624 0.0
O77 O 0.15762 0.97588 0.65301 0.0
O78 O 0.09691 0.05836 0.64788 0.0
C79 C 0.02197 0.07615 0.58289 0.0
N80 N 0.98614 0.07381 0.61469 0.0
C81 C 0.88397 0.09043 0.57366 0.0
C82 C 0.92985 0.09803 0.54305 0.0
C83 C -0.00491 0.09014 0.54795 0.0
C84 C 0.92438 0.08228 0.61211 0.0
H85 H 0.07204 0.06762 0.58354 0.0
C86 C 0.14927 0.03267 0.64205 0.0
O87 O 0.14453 0.82638 0.66459 0.0
O88 O 0.09247 0.85317 0.6148 0.0
N89 N 0.9284 0.0666 0.68686 0.0
C90 C 0.89811 0.06283 0.72938 0.0
C91 C 0.81329 0.06426 0.73985 0.0
C92 C 0.75241 0.07136 0.70489 0.0
C93 C 0.77325 0.07719 0.65631 0.0
C94 C 0.8915 0.07643 0.64929 0.0
H95 H 0.92988 0.05682 0.75299 0.0
O96 O 0.00418 0.85948 0.67196 0.0
O97 O 0.00598 0.95716 0.65029 0.0
O98 O 0.082 0.93568 0.71994 0.0
O99 O 0.04193 0.03417 0.71859 0.0
C100 C 0.73058 0.08049 0.61942 0.0
C101 C 0.76086 0.08738 0.57974 0.0
H102 H 0.91766 0.10888 0.51411 0.0
H103 H 0.02583 0.0939 0.52361 0.0
H104 H 0.79787 0.06374 0.76876 0.0
H105 H 0.70346 0.0719 0.71342 0.0
H106 H 0.68309 0.07287 0.61599 0.0
H107 H 0.72381 0.09235 0.55857 0.0
Mn108 Mn 0.32135 0.83428 0.914 0.0
Mn109 Mn 0.17497 0.7627 0.91649 0.0
C110 C 0.32247 0.72218 0.90703 0.0
C111 C 0.41537 0.88042 0.87994 0.0
C112 C 0.24034 0.81568 0.98624 0.0
O113 O 0.25166 0.90762 0.90301 0.0
O114 O 0.16918 0.84691 0.89788 0.0
C115 C 0.15138 0.77197 0.83289 0.0
N116 N 0.15373 0.73614 0.86469 0.0
C117 C 0.13711 0.63397 0.82366 0.0
C118 C 0.1295 0.67985 0.79305 0.0
C119 C 0.13739 0.74509 0.79795 0.0
C120 C 0.14525 0.67438 0.86211 0.0
H121 H 0.15991 0.82204 0.83354 0.0
C122 C 0.19487 0.89926 0.89205 0.0
O123 O 0.40116 0.89452 0.91459 0.0
O124 O 0.37437 0.84247 0.8648 0.0
N125 N 0.16094 0.6784 0.93686 0.0
C126 C 0.16471 0.6481 0.97938 0.0
C127 C 0.16329 0.56328 0.98985 0.0
C128 C 0.15619 0.5024 0.95489 0.0
C129 C 0.15036 0.52324 0.90631 0.0
C130 C 0.15111 0.6415 0.89929 0.0
H131 H 0.17072 0.67988 1.00299 0.0
O132 O 0.36806 0.75418 0.92196 0.0
O133 O 0.27038 0.75597 0.90029 0.0
O134 O 0.29186 0.832 0.96994 0.0
O135 O 0.19337 0.79193 0.96859 0.0
C136 C 0.14706 0.48058 0.86942 0.0
C137 C 0.14016 0.51086 0.82974 0.0
H138 H 0.11865 0.66766 0.76411 0.0
H139 H 0.13363 0.77583 0.77361 0.0
H140 H 0.16381 0.54786 0.01875 0.0
H141 H 0.15565 0.45346 0.96342 0.0
H142 H 0.15469 0.43309 0.86598 0.0
H143 H 0.13519 0.47382 0.80856 0.0
Mn144 Mn 0.39325 0.9062 0.35039 0.0
Mn145 Mn 0.46484 0.05257 0.34792 0.0
C146 C 0.50536 0.90508 0.35736 0.0
C147 C 0.34711 0.81217 0.38444 0.0
C148 C 0.41184 0.98724 0.27816 0.0
O149 O 0.31992 0.97589 0.36138 0.0
O150 O 0.38063 0.05837 0.36654 0.0
C151 C 0.45559 0.07614 0.43152 0.0
N152 N 0.49141 0.0738 0.39972 0.0
C153 C 0.59359 0.09042 0.44074 0.0
C154 C 0.54772 0.09801 0.47135 0.0
C155 C 0.48248 0.09012 0.46646 0.0
C156 C 0.55317 0.08228 0.40229 0.0
H157 H 0.40551 0.06761 0.43087 0.0
C158 C 0.32827 0.03267 0.37236 0.0
O159 O 0.33301 0.82639 0.34979 0.0
O160 O 0.38506 0.85317 0.39959 0.0
N161 N 0.54913 0.06661 0.32754 0.0
C162 C 0.57941 0.06286 0.28501 0.0
C163 C 0.66423 0.06429 0.27454 0.0
C164 C 0.72512 0.07138 0.3095 0.0
C165 C 0.70429 0.0772 0.35807 0.0
C166 C 0.58604 0.07644 0.36511 0.0
H167 H 0.54763 0.05685 0.2614 0.0
O168 O 0.47336 0.85949 0.34243 0.0
O169 O 0.47156 0.95717 0.3641 0.0
O170 O 0.39554 0.9357 0.29445 0.0
O171 O 0.43559 0.0342 0.29582 0.0
C172 C 0.74697 0.08049 0.39496 0.0
C173 C 0.7167 0.08737 0.43465 0.0
H174 H 0.55992 0.10886 0.50029 0.0
H175 H 0.45174 0.09388 0.4908 0.0
H176 H 0.67964 0.06378 0.24563 0.0
H177 H 0.77406 0.07193 0.30096 0.0
H178 H 0.79446 0.07287 0.39839 0.0
H179 H 0.75375 0.09234 0.45582 0.0
Mn180 Mn 0.32134 0.14325 0.60039 0.0
Mn181 Mn 0.17496 0.21484 0.59792 0.0
C182 C 0.32246 0.25536 0.60736 0.0
C183 C 0.41537 0.09711 0.63444 0.0
C184 C 0.2403 0.16184 0.52816 0.0
O185 O 0.25165 0.06992 0.61138 0.0
O186 O 0.16917 0.13063 0.61653 0.0
C187 C 0.15139 0.20558 0.68152 0.0
N188 N 0.15373 0.2414 0.64972 0.0
C189 C 0.13712 0.34358 0.69074 0.0
C190 C 0.12952 0.29771 0.72136 0.0
C191 C 0.13741 0.23247 0.71646 0.0
C192 C 0.14526 0.30317 0.65229 0.0
H193 H 0.15992 0.15551 0.68087 0.0
C194 C 0.19487 0.07827 0.62236 0.0
O195 O 0.40115 0.08301 0.59979 0.0
O196 O 0.37437 0.13506 0.64959 0.0
N197 N 0.16093 0.29913 0.57754 0.0
C198 C 0.16468 0.32942 0.53501 0.0
C199 C 0.16326 0.41423 0.52454 0.0
C200 C 0.15617 0.47512 0.5595 0.0
C201 C 0.15035 0.45429 0.60808 0.0
C202 C 0.1511 0.33604 0.61511 0.0
H203 H 0.17069 0.29764 0.51141 0.0
O204 O 0.36805 0.22335 0.59243 0.0
O205 O 0.27037 0.22156 0.6141 0.0
O206 O 0.29184 0.14554 0.54445 0.0
O207 O 0.19334 0.1856 0.54582 0.0
C208 C 0.14705 0.49697 0.64496 0.0
C209 C 0.14017 0.46669 0.68465 0.0
H210 H 0.11867 0.30991 0.75029 0.0
H211 H 0.13365 0.20173 0.7408 0.0
H212 H 0.16377 0.42965 0.49563 0.0
H213 H 0.15562 0.52406 0.55097 0.0
H214 H 0.15469 0.54445 0.6484 0.0
H215 H 0.1352 0.50374 0.70582 0.0
Mn216 Mn 0.08429 0.07134 0.85039 0.0
Mn217 Mn 0.0127 0.92496 0.84792 0.0
C218 C 0.97218 0.07245 0.85736 0.0
C219 C 0.13043 0.16536 0.88444 0.0
C220 C 0.0657 -0.0097 0.77816 0.0
O221 O 0.15762 0.00165 0.86138 0.0
O222 O 0.09691 0.91917 0.86654 0.0
C223 C 0.02195 0.90139 0.93152 0.0
N224 N 0.98613 0.90373 0.89972 0.0
C225 C 0.88395 0.88712 0.94074 0.0
C226 C 0.92982 0.87953 0.97135 0.0
C227 C -0.00493 0.88742 0.96646 0.0
C228 C 0.92437 0.89526 0.90229 0.0
H229 H 0.07203 0.90993 0.93087 0.0
C230 C 0.14927 0.94487 0.87236 0.0
O231 O 0.14453 0.15115 0.84979 0.0
O232 O 0.09248 0.12436 0.89959 0.0
N233 N 0.92841 0.91093 0.82754 0.0
C234 C 0.89813 0.91468 0.78501 0.0
C235 C 0.81331 0.91325 0.77454 0.0
C236 C 0.75242 0.90616 0.8095 0.0
C237 C 0.77325 0.90034 0.85807 0.0
C238 C 0.8915 0.9011 0.86511 0.0
H239 H 0.92991 0.92069 0.7614 0.0
O240 O 0.00419 0.11805 0.84243 0.0
O241 O 0.00598 0.02037 0.8641 0.0
O242 O 0.082 0.04184 0.79445 0.0
O243 O 0.04195 0.94334 0.79582 0.0
C244 C 0.73057 0.89704 0.89496 0.0
C245 C 0.76084 0.89016 0.93465 0.0
H246 H 0.91762 0.86868 1.00029 0.0
H247 H 0.0258 0.88366 0.9908 0.0
H248 H 0.7979 0.91376 0.74563 0.0
H249 H 0.70348 0.90561 0.80096 0.0
H250 H 0.68308 0.90467 0.89839 0.0
H251 H 0.72379 0.88519 0.95582 0.0
Mn252 Mn 0.1562 0.83428 0.10039 0.0
Mn253 Mn 0.30258 0.7627 0.09792 0.0
C254 C 0.15508 0.72218 0.10736 0.0
C255 C 0.06217 0.88042 0.13444 0.0
C256 C 0.23724 0.81569 0.02816 0.0
O257 O 0.22589 0.90762 0.11138 0.0
O258 O 0.30837 0.8469 0.11653 0.0
C259 C 0.32615 0.77195 0.18152 0.0
N260 N 0.32381 0.73613 0.14972 0.0
C261 C 0.34042 0.63395 0.19074 0.0
C262 C 0.34802 0.67983 0.22136 0.0
C263 C 0.34013 0.74507 0.21646 0.0
C264 C 0.33228 0.67437 0.15229 0.0
H265 H 0.31762 0.82203 0.18087 0.0
C266 C 0.28267 0.89926 0.12236 0.0
O267 O 0.07639 0.89453 0.09979 0.0
O268 O 0.10317 0.84247 0.14959 0.0
N269 N 0.31661 0.67841 0.07754 0.0
C270 C 0.31286 0.64812 0.03501 0.0
C271 C 0.31428 0.5633 0.02454 0.0
C272 C 0.32137 0.50242 0.0595 0.0
C273 C 0.32719 0.52324 0.10808 0.0
C274 C 0.32644 0.6415 0.11511 0.0
H275 H 0.30685 0.6799 0.01141 0.0
O276 O 0.10949 0.75418 0.09243 0.0
O277 O 0.20717 0.75598 0.1141 0.0
O278 O 0.1857 0.83199 0.04445 0.0
O279 O 0.2842 0.79194 0.04582 0.0
C280 C 0.33049 0.48057 0.14497 0.0
C281 C 0.33737 0.51084 0.18465 0.0
H282 H 0.35887 0.66763 0.25029 0.0
H283 H 0.34389 0.77581 0.2408 0.0
H284 H 0.31377 0.54789 0.99563 0.0
H285 H 0.32192 0.45347 0.05097 0.0
H286 H 0.32286 0.43308 0.1484 0.0
H287 H 0.34234 0.4738 0.20582 0.0
Mn288 Mn 0.58428 0.90618 0.85039 0.0
Mn289 Mn 0.5127 0.05257 0.84789 0.0
C290 C 0.47222 0.90505 0.85737 0.0
C291 C 0.63042 0.81216 0.88444 0.0
C292 C 0.56567 0.9872 0.77815 0.0
O293 O 0.65761 0.97588 0.86137 0.0
O294 O 0.59691 0.05837 0.86651 0.0
C295 C 0.52197 0.07617 0.93149 0.0
N296 N 0.48615 0.07382 0.8997 0.0
C297 C 0.38397 0.09043 0.94072 0.0
C298 C 0.42985 0.09804 0.97134 0.0
C299 C 0.4951 0.09016 0.96644 0.0
C300 C 0.42438 0.08229 0.90228 0.0
H301 H 0.57205 0.06764 0.93084 0.0
C302 C 0.64926 0.03267 0.87234 0.0
O303 O 0.64452 0.82637 0.84979 0.0
O304 O 0.59247 0.85317 0.89959 0.0
N305 N 0.4284 0.0666 0.82753 0.0
C306 C 0.3981 0.06283 0.785 0.0
C307 C 0.31328 0.06425 0.77454 0.0
C308 C 0.25241 0.07134 0.8095 0.0
C309 C 0.27325 0.07718 0.85808 0.0
C310 C 0.3915 0.07643 0.8651 0.0
H311 H 0.42988 0.05681 0.76139 0.0
O312 O 0.50419 0.85945 0.84241 0.0
O313 O 0.50598 0.95717 0.8641 0.0
O314 O 0.58199 0.93568 0.79444 0.0
O315 O 0.54193 0.03417 0.7958 0.0
C316 C 0.23058 0.08048 0.89497 0.0
C317 C 0.26086 0.08738 0.93465 0.0
H318 H 0.41766 0.1089 1.00027 0.0
H319 H 0.52584 0.09392 0.99077 0.0
H320 H 0.29786 0.06372 0.74563 0.0
H321 H 0.20346 0.07189 0.80097 0.0
H322 H 0.18309 0.07285 0.8984 0.0
H323 H 0.22382 0.09235 0.95582 0.0
Mn324 Mn 0.82135 0.83428 0.60039 0.0
Mn325 Mn 0.67497 0.7627 0.59789 0.0
C326 C 0.82246 0.72217 0.60736 0.0
C327 C 0.91536 0.88042 0.63445 0.0
C328 C 0.74034 0.81567 0.52815 0.0
O329 O 0.75166 0.90761 0.61137 0.0
O330 O 0.66918 0.8469 0.61651 0.0
C331 C 0.65139 0.77196 0.68149 0.0
N332 N 0.65373 0.73614 0.6497 0.0
C333 C 0.63711 0.63396 0.69072 0.0
C334 C 0.62951 0.67984 0.72134 0.0
C335 C 0.6374 0.74508 0.71644 0.0
C336 C 0.64526 0.67438 0.65228 0.0
H337 H 0.65992 0.82204 0.68084 0.0
C338 C 0.69487 0.89926 0.62234 0.0
O339 O 0.90116 0.89452 0.5998 0.0
O340 O 0.87435 0.84246 0.64959 0.0
N341 N 0.66094 0.6784 0.57752 0.0
C342 C 0.6647 0.6481 0.535 0.0
C343 C 0.66328 0.56329 0.52453 0.0
C344 C 0.65618 0.50241 0.55949 0.0
C345 C 0.65035 0.52324 0.60807 0.0
C346 C 0.65111 0.6415 0.61509 0.0
H347 H 0.67072 0.67988 0.51139 0.0
O348 O 0.86806 0.75418 0.59242 0.0
O349 O 0.77037 0.75597 0.61409 0.0
O350 O 0.79186 0.832 0.54444 0.0
O351 O 0.69337 0.79193 0.5458 0.0
C352 C 0.64705 0.48057 0.64496 0.0
C353 C 0.64016 0.51085 0.68464 0.0
H354 H 0.61866 0.66765 0.75027 0.0
H355 H 0.63364 0.77583 0.74078 0.0
H356 H 0.6638 0.54786 0.49563 0.0
H357 H 0.65563 0.45346 0.55096 0.0
H358 H 0.65467 0.43309 0.64839 0.0
H359 H 0.63519 0.47381 0.70581 0.0
Mn360 Mn 0.89326 0.07135 0.35039 0.0
Mn361 Mn 0.96484 0.92497 0.34789 0.0
C362 C 0.00532 0.07249 0.35737 0.0
C363 C 0.84712 0.16537 0.38444 0.0
C364 C 0.91187 -0.00966 0.27815 0.0
O365 O 0.81993 0.00166 0.36137 0.0
O366 O 0.88063 0.91917 0.36651 0.0
C367 C 0.95557 0.90137 0.43149 0.0
N368 N -0.00861 0.90372 0.3997 0.0
C369 C 0.09357 0.8871 0.44072 0.0
C370 C 0.04769 0.8795 0.47134 0.0
C371 C 0.98245 0.88738 0.46644 0.0
C372 C 0.05316 0.89525 0.40228 0.0
H373 H 0.90549 0.9099 0.43084 0.0
C374 C 0.82828 0.94487 0.37234 0.0
O375 O 0.83302 0.15116 0.34979 0.0
O376 O 0.88507 0.12437 0.39959 0.0
N377 N 0.04914 0.91094 0.32753 0.0
C378 C 0.07944 0.91471 0.285 0.0
C379 C 0.16426 0.91329 0.27454 0.0
C380 C 0.22513 0.90619 0.3095 0.0
C381 C 0.20429 0.90036 0.35808 0.0
C382 C 0.08604 0.9011 0.3651 0.0
H383 H 0.04766 0.92072 0.26139 0.0
O384 O 0.97335 0.11809 0.34241 0.0
O385 O 0.97156 0.02037 0.3641 0.0
O386 O 0.89555 0.04186 0.29444 0.0
O387 O 0.93561 0.94337 0.2958 0.0
C388 C 0.24696 0.89705 0.39497 0.0
C389 C 0.21668 0.89016 0.43465 0.0
H390 H 0.05988 0.86864 0.50027 0.0
H391 H 0.9517 0.88362 0.49077 0.0
H392 H 0.17968 0.91382 0.24563 0.0
H393 H 0.27408 0.90565 0.30097 0.0
H394 H 0.29445 0.90468 0.3984 0.0
H395 H 0.25372 0.88519 0.45582 0.0
Mn396 Mn 0.65619 0.14326 0.10039 0.0
Mn397 Mn 0.80257 0.21484 0.09789 0.0
C398 C 0.65508 0.25536 0.10736 0.0
C399 C 0.56218 0.09712 0.13445 0.0
C400 C 0.7372 0.16186 0.02815 0.0
O401 O 0.72588 0.06992 0.11137 0.0
O402 O 0.80836 0.13063 0.11651 0.0
C403 C 0.82615 0.20557 0.18149 0.0
N404 N 0.82381 0.2414 0.1497 0.0
C405 C 0.84043 0.34357 0.19072 0.0
C406 C 0.84803 0.29769 0.22134 0.0
C407 C 0.84014 0.23245 0.21644 0.0
C408 C 0.83228 0.30316 0.15228 0.0
H409 H 0.81762 0.1555 0.18084 0.0
C410 C 0.78267 0.07827 0.12234 0.0
O411 O 0.57638 0.08301 0.0998 0.0
O412 O 0.60319 0.13507 0.14959 0.0
N413 N 0.8166 0.29914 0.07752 0.0
C414 C 0.81284 0.32943 0.035 0.0
C415 C 0.81426 0.41425 0.02453 0.0
C416 C 0.82136 0.47513 0.05949 0.0
C417 C 0.82719 0.45429 0.10807 0.0
C418 C 0.82643 0.33604 0.11509 0.0
H419 H 0.80682 0.29766 0.01139 0.0
O420 O 0.60948 0.22336 0.09242 0.0
O421 O 0.70717 0.22156 0.11409 0.0
O422 O 0.68568 0.14554 0.04444 0.0
O423 O 0.78417 0.18561 0.0458 0.0
C424 C 0.83049 0.49696 0.14496 0.0
C425 C 0.83738 0.46668 0.18464 0.0
H426 H 0.85888 0.30988 0.25027 0.0
H427 H 0.8439 0.20171 0.24078 0.0
H428 H 0.81374 0.42967 0.99563 0.0
H429 H 0.82191 0.52408 0.05096 0.0
H430 H 0.82287 0.54445 0.14839 0.0
H431 H 0.84235 0.50372 0.20581 0.0
Mn432 Mn 0.58428 0.07134 0.66399 0.0
Mn433 Mn 0.5127 0.92496 0.66647 0.0
C434 C 0.47222 0.07248 0.657 0.0
C435 C 0.63042 0.16537 0.62995 0.0
C436 C 0.56569 -0.0097 0.73622 0.0
O437 O 0.65761 0.00165 0.653 0.0
O438 O 0.59691 0.91916 0.64785 0.0
C439 C 0.52196 0.90138 0.58287 0.0
N440 N 0.48614 0.90372 0.61466 0.0
C441 C 0.38395 0.88711 0.57365 0.0
C442 C 0.42983 0.87951 0.54303 0.0
C443 C 0.49507 0.8874 0.54792 0.0
C444 C 0.42437 0.89525 0.61209 0.0
H445 H 0.57203 0.90991 0.58352 0.0
C446 C 0.64926 0.94486 0.64203 0.0
O447 O 0.64453 0.15115 0.66459 0.0
O448 O 0.59247 0.12437 0.61479 0.0
N449 N 0.42841 0.91092 0.68684 0.0
C450 C 0.39812 0.91468 0.72937 0.0
C451 C 0.31331 0.91326 0.73984 0.0
C452 C 0.25242 0.90617 0.70488 0.0
C453 C 0.27325 0.90035 0.65631 0.0
C454 C 0.3915 0.9011 0.64927 0.0
H455 H 0.4299 0.92069 0.75298 0.0
O456 O 0.50419 0.11808 0.67196 0.0
O457 O 0.50598 0.02036 0.65027 0.0
O458 O 0.58199 0.04184 0.71993 0.0
O459 O 0.54194 0.94334 0.71857 0.0
C460 C 0.23057 0.89705 0.61942 0.0
C461 C 0.26084 0.89016 0.57973 0.0
H462 H 0.41763 0.86867 0.51409 0.0
H463 H 0.52581 0.88364 0.52358 0.0
H464 H 0.29789 0.91378 0.76875 0.0
H465 H 0.20347 0.90562 0.71342 0.0
H466 H 0.18309 0.90468 0.61599 0.0
H467 H 0.2238 0.8852 0.55856 0.0
Mn468 Mn 0.6562 0.83428 0.41399 0.0
Mn469 Mn 0.80258 0.7627 0.41647 0.0
C470 C 0.65509 0.72217 0.40702 0.0
C471 C 0.56219 0.88042 0.37994 0.0
C472 C 0.73724 0.81569 0.48622 0.0
O473 O 0.72589 0.90762 0.40301 0.0
O474 O 0.80837 0.8469 0.39785 0.0
C475 C 0.82615 0.77195 0.33287 0.0
N476 N 0.82381 0.73613 0.36466 0.0
C477 C 0.84042 0.63395 0.32365 0.0
C478 C 0.84801 0.67982 0.29303 0.0
C479 C 0.84012 0.74506 0.29792 0.0
C480 C 0.83228 0.67437 0.36209 0.0
H481 H 0.81761 0.82202 0.33351 0.0
C482 C 0.78267 0.89926 0.39203 0.0
O483 O 0.57639 0.89453 0.41459 0.0
O484 O 0.60319 0.84247 0.36479 0.0
N485 N 0.81661 0.67841 0.43684 0.0
C486 C 0.81286 0.64812 0.47937 0.0
C487 C 0.81429 0.56331 0.48985 0.0
C488 C 0.82138 0.50242 0.45489 0.0
C489 C 0.8272 0.52324 0.40631 0.0
C490 C 0.82644 0.6415 0.39928 0.0
H491 H 0.80686 0.6799 0.50298 0.0
O492 O 0.60949 0.75418 0.42196 0.0
O493 O 0.70717 0.75597 0.40028 0.0
O494 O 0.6857 0.83199 0.46993 0.0
O495 O 0.7842 0.79194 0.46857 0.0
C496 C 0.83049 0.48057 0.36943 0.0
C497 C 0.83737 0.51084 0.32974 0.0
H498 H 0.85885 0.66762 0.26409 0.0
H499 H 0.84387 0.7758 0.27358 0.0
H500 H 0.81378 0.54789 0.51875 0.0
H501 H 0.82193 0.45348 0.46342 0.0
H502 H 0.82287 0.43308 0.366 0.0
H503 H 0.84234 0.47379 0.30857 0.0
Mn504 Mn 0.89326 0.90619 0.16399 0.0
Mn505 Mn 0.96484 0.05258 0.16647 0.0
C506 C 0.00532 0.90505 0.157 0.0
C507 C 0.84712 0.81217 0.12995 0.0
C508 C 0.91185 0.98723 0.23622 0.0
O509 O 0.81993 0.97589 0.153 0.0
O510 O 0.88063 0.05837 0.14785 0.0
C511 C 0.95558 0.07616 0.08287 0.0
N512 N -0.0086 0.07382 0.11466 0.0
C513 C 0.09359 0.09042 0.07365 0.0
C514 C 0.04771 0.09802 0.04303 0.0
C515 C 0.98247 0.09014 0.04792 0.0
C516 C 0.05317 0.08228 0.11209 0.0
H517 H 0.90551 0.06763 0.08352 0.0
C518 C 0.82828 0.03267 0.14203 0.0
O519 O 0.83301 0.82639 0.16459 0.0
O520 O 0.88507 0.85317 0.11479 0.0
N521 N 0.04913 0.06661 0.18684 0.0
C522 C 0.07942 0.06285 0.22937 0.0
C523 C 0.16424 0.06428 0.23984 0.0
C524 C 0.22512 0.07137 0.20488 0.0
C525 C 0.20429 0.07719 0.15631 0.0
C526 C 0.08604 0.07644 0.14927 0.0
H527 H 0.04764 0.05684 0.25298 0.0
O528 O 0.97335 0.85946 0.17196 0.0
O529 O 0.97156 0.95717 0.15027 0.0
O530 O 0.89555 0.93569 0.21993 0.0
O531 O 0.9356 0.0342 0.21857 0.0
C532 C 0.24697 0.08049 0.11942 0.0
C533 C 0.2167 0.08737 0.07973 0.0
H534 H 0.05991 0.10887 0.01409 0.0
H535 H 0.95173 0.0939 0.02358 0.0
H536 H 0.17965 0.06376 0.26875 0.0
H537 H 0.27407 0.07191 0.21342 0.0
H538 H 0.29446 0.07286 0.11599 0.0
H539 H 0.25374 0.09234 0.05856 0.0
Mn540 Mn 0.82134 0.14326 0.91399 0.0
Mn541 Mn 0.67496 0.21484 0.91647 0.0
C542 C 0.82245 0.25536 0.90702 0.0
C543 C 0.91535 0.09711 0.87994 0.0
C544 C 0.7403 0.16184 0.98622 0.0
O545 O 0.75165 0.06992 0.90301 0.0
O546 O 0.66917 0.13063 0.89785 0.0
C547 C 0.6514 0.20559 0.83287 0.0
N548 N 0.65373 0.24141 0.86466 0.0
C549 C 0.63712 0.34359 0.82365 0.0
C550 C 0.62953 0.29772 0.79303 0.0
C551 C 0.63742 0.23248 0.79792 0.0
C552 C 0.64526 0.30317 0.86209 0.0
H553 H 0.65993 0.15551 0.83351 0.0
C554 C 0.69487 0.07827 0.89203 0.0
O555 O 0.90115 0.08301 0.91459 0.0
O556 O 0.87435 0.13506 0.86479 0.0
N557 N 0.66093 0.29913 0.93684 0.0
C558 C 0.66468 0.32941 0.97937 0.0
C559 C 0.66325 0.41423 0.98985 0.0
C560 C 0.65616 0.47512 0.95489 0.0
C561 C 0.65034 0.45429 0.90631 0.0
C562 C 0.6511 0.33604 0.89928 0.0
H563 H 0.67069 0.29763 1.00298 0.0
O564 O 0.86805 0.22336 0.92196 0.0
O565 O 0.77037 0.22156 0.90028 0.0
O566 O 0.79184 0.14555 0.96993 0.0
O567 O 0.69334 0.18559 0.96857 0.0
C568 C 0.64705 0.49697 0.86943 0.0
C569 C 0.64017 0.4667 0.82974 0.0
H570 H 0.61869 0.30992 0.76409 0.0
H571 H 0.63367 0.20174 0.77358 0.0
H572 H 0.66376 0.42964 0.01875 0.0
H573 H 0.65561 0.52406 0.96342 0.0
H574 H 0.65467 0.54445 0.866 0.0
H575 H 0.6352 0.50375 0.80857 0.0
Mn576 Mn 0.89326 0.57134 0.664 0.0
Mn577 Mn 0.96485 0.42497 0.66649 0.0
C578 C 0.00537 0.57246 0.65703 0.0
C579 C 0.84712 0.66535 0.62994 0.0
C580 C 0.91187 0.49033 0.73624 0.0
O581 O 0.81993 0.50165 0.65301 0.0
O582 O 0.88064 0.41917 0.64788 0.0
C583 C 0.95557 0.40137 0.58289 0.0
N584 N -0.0086 0.40372 0.61469 0.0
C585 C 0.09357 0.3871 0.57366 0.0
C586 C 0.04769 0.37949 0.54305 0.0
C587 C 0.98245 0.38738 0.54795 0.0
C588 C 0.05316 0.39524 0.61211 0.0
H589 H 0.9055 0.40991 0.58354 0.0
C590 C 0.82828 0.44486 0.64205 0.0
O591 O 0.83302 0.65115 0.66459 0.0
O592 O 0.88508 0.62435 0.61479 0.0
N593 N 0.04915 0.41094 0.68686 0.0
C594 C 0.07944 0.4147 0.72938 0.0
C595 C 0.16426 0.41328 0.73985 0.0
C596 C 0.22514 0.40619 0.70488 0.0
C597 C 0.2043 0.40035 0.65631 0.0
C598 C 0.08605 0.4011 0.64929 0.0
H599 H 0.04767 0.42072 0.75299 0.0
O600 O 0.97336 0.61805 0.67196 0.0
O601 O 0.97157 0.52037 0.65029 0.0
O602 O 0.89554 0.54186 0.71994 0.0
O603 O 0.93562 0.44336 0.71859 0.0
C604 C 0.24697 0.39705 0.61942 0.0
C605 C 0.21668 0.39015 0.57974 0.0
H606 H 0.05988 0.36864 0.51411 0.0
H607 H 0.95171 0.38362 0.52361 0.0
H608 H 0.17969 0.41381 0.76875 0.0
H609 H 0.27409 0.40565 0.71342 0.0
H610 H 0.29445 0.40468 0.61598 0.0
H611 H 0.25372 0.38518 0.55856 0.0
Mn612 Mn 0.65619 0.64326 0.91399 0.0
Mn613 Mn 0.80257 0.71484 0.91649 0.0
C614 C 0.65505 0.75531 0.90701 0.0
C615 C 0.56217 0.59712 0.87994 0.0
C616 C 0.7372 0.66187 0.98624 0.0
O617 O 0.72588 0.56993 0.90301 0.0
O618 O 0.80837 0.63063 0.89788 0.0
C619 C 0.82618 0.70557 0.83289 0.0
N620 N 0.82383 0.74139 0.86469 0.0
C621 C 0.84045 0.84357 0.82366 0.0
C622 C 0.84806 0.79768 0.79305 0.0
C623 C 0.84017 0.73244 0.79795 0.0
C624 C 0.8323 0.80316 0.86211 0.0
H625 H 0.81765 0.65549 0.83354 0.0
C626 C 0.78267 0.57828 0.89205 0.0
O627 O 0.57638 0.58302 0.91459 0.0
O628 O 0.60317 0.63507 0.86479 0.0
N629 N 0.8166 0.79914 0.93686 0.0
C630 C 0.81283 0.82944 0.97938 0.0
C631 C 0.81425 0.91426 0.98984 0.0
C632 C 0.82134 0.97514 0.95488 0.0
C633 C 0.82718 0.9543 0.90631 0.0
C634 C 0.82644 0.83604 0.89929 0.0
H635 H 0.80681 0.79767 1.00299 0.0
O636 O 0.60946 0.72335 0.92197 0.0
O637 O 0.70717 0.72156 0.90028 0.0
O638 O 0.68568 0.64555 0.96994 0.0
O639 O 0.78417 0.68562 0.96859 0.0
C640 C 0.83048 -0.00304 0.86941 0.0
C641 C 0.83738 0.96668 0.82973 0.0
H642 H 0.85891 0.80987 0.76411 0.0
H643 H 0.84394 0.7017 0.77361 0.0
H644 H 0.81371 0.92969 0.01875 0.0
H645 H 0.82188 0.02408 0.96341 0.0
H646 H 0.82284 0.04445 0.86598 0.0
H647 H 0.84235 0.00371 0.80856 0.0
Mn648 Mn 0.58428 0.40619 0.164 0.0
Mn649 Mn 0.5127 0.55257 0.16649 0.0
C650 C 0.47218 0.40508 0.15703 0.0
C651 C 0.63042 0.31218 0.12994 0.0
C652 C 0.56567 0.4872 0.23624 0.0
O653 O 0.65761 0.47588 0.15301 0.0
O654 O 0.5969 0.55837 0.14788 0.0
C655 C 0.52197 0.57616 0.08289 0.0
N656 N 0.48614 0.57382 0.11469 0.0
C657 C 0.38397 0.59044 0.07366 0.0
C658 C 0.42985 0.59804 0.04305 0.0
C659 C 0.49509 0.59015 0.04795 0.0
C660 C 0.42438 0.58229 0.11211 0.0
H661 H 0.57204 0.56763 0.08354 0.0
C662 C 0.64926 0.53267 0.14205 0.0
O663 O 0.64452 0.32639 0.16459 0.0
O664 O 0.59246 0.35319 0.11479 0.0
N665 N 0.42839 0.5666 0.18686 0.0
C666 C 0.3981 0.56283 0.22938 0.0
C667 C 0.31328 0.56425 0.23985 0.0
C668 C 0.2524 0.57135 0.20489 0.0
C669 C 0.27324 0.57718 0.15631 0.0
C670 C 0.39149 0.57644 0.14929 0.0
H671 H 0.42987 0.55682 0.25299 0.0
O672 O 0.50418 0.35949 0.17196 0.0
O673 O 0.50597 0.45717 0.15029 0.0
O674 O 0.582 0.43568 0.21994 0.0
O675 O 0.54192 0.53417 0.21859 0.0
C676 C 0.23057 0.58048 0.11942 0.0
C677 C 0.26086 0.58738 0.07974 0.0
H678 H 0.41766 0.6089 0.01411 0.0
H679 H 0.52583 0.59392 0.02361 0.0
H680 H 0.29785 0.56372 0.26875 0.0
H681 H 0.20345 0.57189 0.21342 0.0
H682 H 0.18309 0.57285 0.11598 0.0
H683 H 0.22382 0.59235 0.05856 0.0
Mn684 Mn 0.82135 0.33427 0.41399 0.0
Mn685 Mn 0.67497 0.26269 0.41649 0.0
C686 C 0.82249 0.22222 0.40701 0.0
C687 C 0.91537 0.38041 0.37994 0.0
C688 C 0.74034 0.31567 0.48624 0.0
O689 O 0.75166 0.4076 0.40301 0.0
O690 O 0.66917 0.3469 0.39788 0.0
C691 C 0.65136 0.27197 0.33289 0.0
N692 N 0.65371 0.23614 0.36469 0.0
C693 C 0.63709 0.13397 0.32366 0.0
C694 C 0.62948 0.17985 0.29305 0.0
C695 C 0.63737 0.24509 0.29795 0.0
C696 C 0.64524 0.17438 0.36211 0.0
H697 H 0.65989 0.32204 0.33354 0.0
C698 C 0.69487 0.39926 0.39205 0.0
O699 O 0.90116 0.39452 0.41459 0.0
O700 O 0.87437 0.34246 0.3648 0.0
N701 N 0.66094 0.17839 0.43686 0.0
C702 C 0.66471 0.14809 0.47938 0.0
C703 C 0.6633 0.06327 0.48984 0.0
C704 C 0.6562 0.0024 0.45488 0.0
C705 C 0.65036 0.02324 0.40631 0.0
C706 C 0.6511 0.14149 0.39929 0.0
H707 H 0.67073 0.17987 0.50299 0.0
O708 O 0.86808 0.25419 0.42197 0.0
O709 O 0.77037 0.25597 0.40028 0.0
O710 O 0.79186 0.33199 0.46994 0.0
O711 O 0.69337 0.29192 0.46859 0.0
C712 C 0.64706 0.98057 0.36941 0.0
C713 C 0.64016 0.01086 0.32973 0.0
H714 H 0.61863 0.16767 0.26411 0.0
H715 H 0.6336 0.27584 0.27361 0.0
H716 H 0.66383 0.04785 0.51875 0.0
H717 H 0.65566 0.95345 0.46341 0.0
H718 H 0.6547 0.93309 0.36598 0.0
H719 H 0.63519 0.97382 0.30856 0.0
Mn720 Mn 0.89326 0.4062 0.8504 0.0
Mn721 Mn 0.96484 0.55258 0.84791 0.0
C722 C 0.00536 0.40509 0.85736 0.0
C723 C 0.84712 0.31219 0.88444 0.0
C724 C 0.91185 0.48724 0.77816 0.0
O725 O 0.81992 0.47589 0.86138 0.0
O726 O 0.88064 0.55837 0.86653 0.0
C727 C 0.95559 0.57615 0.93152 0.0
N728 N -0.00859 0.57381 0.89972 0.0
C729 C 0.09359 0.59043 0.94074 0.0
C730 C 0.04771 0.59802 0.97135 0.0
C731 C 0.98247 0.59014 0.96646 0.0
C732 C 0.05317 0.58229 0.90229 0.0
H733 H 0.90551 0.56762 0.93087 0.0
C734 C 0.82828 0.53268 0.87236 0.0
O735 O 0.83301 0.3264 0.8498 0.0
O736 O 0.88507 0.35319 0.89959 0.0
N737 N 0.04914 0.56662 0.82754 0.0
C738 C 0.07943 0.56286 0.78501 0.0
C739 C 0.16424 0.56428 0.77454 0.0
C740 C 0.22513 0.57137 0.8095 0.0
C741 C 0.2043 0.57719 0.85808 0.0
C742 C 0.08605 0.57644 0.86511 0.0
H743 H 0.04765 0.55685 0.7614 0.0
O744 O 0.97336 0.35949 0.84243 0.0
O745 O 0.97157 0.45717 0.8641 0.0
O746 O 0.89555 0.4357 0.79445 0.0
O747 O 0.9356 0.5342 0.79582 0.0
C748 C 0.24697 0.58049 0.89497 0.0
C749 C 0.2167 0.58737 0.93465 0.0
H750 H 0.05991 0.60887 1.00029 0.0
H751 H 0.95173 0.59389 0.9908 0.0
H752 H 0.17966 0.56376 0.74563 0.0
H753 H 0.27407 0.57191 0.80097 0.0
H754 H 0.29446 0.57286 0.8984 0.0
H755 H 0.25374 0.59234 0.95582 0.0
Mn756 Mn 0.82134 0.64326 0.1004 0.0
Mn757 Mn 0.67496 0.71484 0.09791 0.0
C758 C 0.82248 0.75531 0.10738 0.0
C759 C 0.91537 0.59712 0.13444 0.0
C760 C 0.7403 0.66185 0.02816 0.0
O761 O 0.75165 0.56993 0.11138 0.0
O762 O 0.66916 0.63064 0.11653 0.0
C763 C 0.65137 0.70558 0.18151 0.0
N764 N 0.65371 0.7414 0.14972 0.0
C765 C 0.6371 0.84358 0.19074 0.0
C766 C 0.6295 0.79771 0.22135 0.0
C767 C 0.63739 0.73246 0.21646 0.0
C768 C 0.64524 0.80317 0.15229 0.0
H769 H 0.6599 0.65551 0.18087 0.0
C770 C 0.69486 0.57828 0.12236 0.0
O771 O 0.90115 0.58301 0.09979 0.0
O772 O 0.87437 0.63507 0.14959 0.0
N773 N 0.66092 0.79914 0.07754 0.0
C774 C 0.66468 0.82942 0.03502 0.0
C775 C 0.66327 0.91424 0.02455 0.0
C776 C 0.65618 0.97512 0.0595 0.0
C777 C 0.65035 0.95429 0.10808 0.0
C778 C 0.65109 0.83604 0.11511 0.0
H779 H 0.67069 0.79764 0.01141 0.0
O780 O 0.86808 0.72335 0.09242 0.0
O781 O 0.77036 0.72156 0.11412 0.0
O782 O 0.79184 0.64555 0.04445 0.0
O783 O 0.69334 0.68561 0.04582 0.0
C784 C 0.64706 -0.00303 0.14497 0.0
C785 C 0.64017 0.96669 0.18465 0.0
H786 H 0.61865 0.8099 0.25029 0.0
H787 H 0.63363 0.70173 0.2408 0.0
H788 H 0.66379 0.92966 0.99564 0.0
H789 H 0.65564 0.02407 0.05097 0.0
H790 H 0.65469 0.04445 0.1484 0.0
H791 H 0.6352 0.00373 0.20583 0.0
Mn792 Mn 0.58428 0.57133 0.3504 0.0
Mn793 Mn 0.5127 0.42496 0.34791 0.0
C794 C 0.47218 0.57245 0.35736 0.0
C795 C 0.63042 0.66535 0.38444 0.0
C796 C 0.56569 0.4903 0.27816 0.0
O797 O 0.65762 0.50164 0.36138 0.0
O798 O 0.5969 0.41916 0.36653 0.0
C799 C 0.52195 0.40138 0.43152 0.0
N800 N 0.48613 0.40372 0.39972 0.0
C801 C 0.38395 0.38711 0.44074 0.0
C802 C 0.42983 0.37951 0.47135 0.0
C803 C 0.49507 0.3874 0.46646 0.0
C804 C 0.42437 0.39525 0.40229 0.0
H805 H 0.57203 0.40992 0.43087 0.0
C806 C 0.64926 0.44486 0.37236 0.0
O807 O 0.64453 0.65114 0.3498 0.0
O808 O 0.59247 0.62435 0.39959 0.0
N809 N 0.4284 0.41092 0.32754 0.0
C810 C 0.39811 0.41468 0.28501 0.0
C811 C 0.3133 0.41325 0.27454 0.0
C812 C 0.25241 0.40617 0.3095 0.0
C813 C 0.27324 0.40034 0.35808 0.0
C814 C 0.39149 0.40109 0.36511 0.0
H815 H 0.42989 0.42069 0.2614 0.0
O816 O 0.50418 0.61804 0.34243 0.0
O817 O 0.50597 0.52036 0.3641 0.0
O818 O 0.58199 0.54184 0.29445 0.0
O819 O 0.54194 0.44334 0.29582 0.0
C820 C 0.23057 0.39705 0.39497 0.0
C821 C 0.26084 0.39016 0.43465 0.0
H822 H 0.41763 0.36866 0.50029 0.0
H823 H 0.52581 0.38364 0.4908 0.0
H824 H 0.29788 0.41377 0.24563 0.0
H825 H 0.20347 0.40562 0.30097 0.0
H826 H 0.18308 0.40468 0.3984 0.0
H827 H 0.2238 0.38519 0.45582 0.0
Mn828 Mn 0.6562 0.33427 0.6004 0.0
Mn829 Mn 0.80258 0.2627 0.59791 0.0
C830 C 0.65506 0.22222 0.60738 0.0
C831 C 0.56217 0.38042 0.63444 0.0
C832 C 0.73724 0.31568 0.52816 0.0
O833 O 0.72589 0.4076 0.61138 0.0
O834 O 0.80838 0.3469 0.61653 0.0
C835 C 0.82617 0.27196 0.68151 0.0
N836 N 0.82383 0.23613 0.64972 0.0
C837 C 0.84044 0.13395 0.69074 0.0
C838 C 0.84804 0.17983 0.72135 0.0
C839 C 0.84015 0.24507 0.71646 0.0
C840 C 0.8323 0.17437 0.65229 0.0
H841 H 0.81764 0.32203 0.68087 0.0
C842 C 0.78268 0.39926 0.62236 0.0
O843 O 0.57639 0.39452 0.59979 0.0
O844 O 0.60317 0.34247 0.64959 0.0
N845 N 0.81662 0.1784 0.57754 0.0
C846 C 0.81286 0.14811 0.53502 0.0
C847 C 0.81427 0.0633 0.52455 0.0
C848 C 0.82136 0.00241 0.5595 0.0
C849 C 0.82719 0.02324 0.60808 0.0
C850 C 0.82645 0.14149 0.61511 0.0
H851 H 0.80685 0.17989 0.51141 0.0
O852 O 0.60946 0.25419 0.59242 0.0
O853 O 0.70718 0.25597 0.61412 0.0
O854 O 0.6857 0.33198 0.54445 0.0
O855 O 0.7842 0.29193 0.54582 0.0
C856 C 0.83048 0.98057 0.64497 0.0
C857 C 0.83738 0.01084 0.68466 0.0
H858 H 0.85889 0.16763 0.75029 0.0
H859 H 0.84392 0.27581 0.7408 0.0
H860 H 0.81375 0.04788 0.49564 0.0
H861 H 0.8219 0.95347 0.55097 0.0
H862 H 0.82285 0.93308 0.6484 0.0
H863 H 0.84234 0.9738 0.70583 0.0
Mn864 Mn 0.08427 0.40619 0.35039 0.0
Mn865 Mn 0.01269 0.55257 0.34789 0.0
C866 C 0.97222 0.40505 0.35737 0.0
C867 C 0.13041 0.31218 0.38444 0.0
C868 C 0.06567 0.4872 0.27815 0.0
O869 O 0.1576 0.47588 0.36138 0.0
O870 O 0.0969 0.55837 0.3665 0.0
C871 C 0.02197 0.57618 0.43149 0.0
N872 N 0.98614 0.57383 0.3997 0.0
C873 C 0.88397 0.59044 0.44073 0.0
C874 C 0.92986 0.59806 0.47134 0.0
C875 C -0.0049 0.59017 0.46643 0.0
C876 C 0.92438 0.5823 0.40228 0.0
H877 H 0.07205 0.56765 0.43084 0.0
C878 C 0.14926 0.53268 0.37233 0.0
O879 O 0.14452 0.32638 0.34979 0.0
O880 O 0.09246 0.35318 0.39959 0.0
N881 N 0.92839 0.5666 0.32753 0.0
C882 C 0.89809 0.56283 0.285 0.0
C883 C 0.81327 0.56424 0.27454 0.0
C884 C 0.7524 0.57133 0.3095 0.0
C885 C 0.77324 0.57717 0.35808 0.0
C886 C 0.89149 0.57644 0.3651 0.0
H887 H 0.92986 0.55681 0.26139 0.0
O888 O 0.00419 0.35946 0.34241 0.0
O889 O 0.00597 0.45717 0.3641 0.0
O890 O 0.08199 0.43568 0.29444 0.0
O891 O 0.04192 0.53417 0.2958 0.0
C892 C 0.73057 0.58048 0.39497 0.0
C893 C 0.76086 0.58738 0.43465 0.0
H894 H 0.91767 0.60891 0.50027 0.0
H895 H 0.02584 0.59394 0.49077 0.0
H896 H 0.79785 0.56371 0.24563 0.0
H897 H 0.70345 0.57187 0.30098 0.0
H898 H 0.68309 0.57284 0.39841 0.0
H899 H 0.72382 0.59235 0.45583 0.0
Mn900 Mn 0.32135 0.33427 0.10039 0.0
Mn901 Mn 0.17497 0.26269 0.09789 0.0
C902 C 0.32249 0.22222 0.10737 0.0
C903 C 0.41536 0.38041 0.13444 0.0
C904 C 0.24034 0.31567 0.02815 0.0
O905 O 0.25166 0.4076 0.11137 0.0
O906 O 0.16917 0.3469 0.11651 0.0
C907 C 0.15136 0.27197 0.18149 0.0
N908 N 0.15371 0.23614 0.1497 0.0
C909 C 0.1371 0.13397 0.19072 0.0
C910 C 0.12949 0.17985 0.22134 0.0
C911 C 0.13738 0.24509 0.21644 0.0
C912 C 0.14525 0.17437 0.15228 0.0
H913 H 0.1599 0.32204 0.18084 0.0
C914 C 0.19486 0.39926 0.12234 0.0
O915 O 0.40115 0.39452 0.09979 0.0
O916 O 0.37435 0.34246 0.14959 0.0
N917 N 0.16094 0.17839 0.07753 0.0
C918 C 0.16471 0.1481 0.035 0.0
C919 C 0.16328 0.06328 0.02454 0.0
C920 C 0.15619 0.0024 0.0595 0.0
C921 C 0.15036 0.02324 0.10807 0.0
C922 C 0.1511 0.14149 0.11509 0.0
H923 H 0.17072 0.17987 0.01139 0.0
O924 O 0.36808 0.25419 0.09242 0.0
O925 O 0.27036 0.25597 0.1141 0.0
O926 O 0.29186 0.33199 0.04444 0.0
O927 O 0.19337 0.29192 0.0458 0.0
C928 C 0.14705 0.98057 0.14496 0.0
C929 C 0.14016 0.01085 0.18465 0.0
H930 H 0.11864 0.16766 0.25027 0.0
H931 H 0.13361 0.27583 0.24077 0.0
H932 H 0.16381 0.04786 0.99563 0.0
H933 H 0.15565 0.95346 0.05097 0.0
H934 H 0.15468 0.93309 0.1484 0.0
H935 H 0.13518 0.97381 0.20582 0.0
Mn936 Mn 0.39327 0.57135 0.85039 0.0
Mn937 Mn 0.46485 0.42496 0.84789 0.0
C938 C 0.50532 0.57249 0.85737 0.0
C939 C 0.34713 0.66536 0.88444 0.0
C940 C 0.41187 0.49033 0.77815 0.0
O941 O 0.31994 0.50166 0.86138 0.0
O942 O 0.38064 0.41916 0.8665 0.0
C943 C 0.45557 0.40136 0.93149 0.0
N944 N 0.4914 0.40371 0.8997 0.0
C945 C 0.59357 0.38709 0.94073 0.0
C946 C 0.54768 0.37948 0.97134 0.0
C947 C 0.48244 0.38737 0.96643 0.0
C948 C 0.55316 0.39524 0.90228 0.0
H949 H 0.40549 0.40989 0.93084 0.0
C950 C 0.32828 0.44486 0.87233 0.0
O951 O 0.33302 0.65115 0.84979 0.0
O952 O 0.38508 0.62435 0.89959 0.0
N953 N 0.54915 0.41093 0.82753 0.0
C954 C 0.57945 0.41471 0.785 0.0
C955 C 0.66427 0.41329 0.77454 0.0
C956 C 0.72514 0.4062 0.8095 0.0
C957 C 0.7043 0.40036 0.85808 0.0
C958 C 0.58605 0.4011 0.8651 0.0
H959 H 0.54768 0.42072 0.76139 0.0
O960 O 0.47335 0.61808 0.84241 0.0
O961 O 0.47157 0.52036 0.8641 0.0
O962 O 0.39555 0.54186 0.79444 0.0
O963 O 0.43562 0.44337 0.7958 0.0
C964 C 0.74697 0.39706 0.89497 0.0
C965 C 0.71668 0.39016 0.93465 0.0
H966 H 0.55987 0.36862 1.00027 0.0
H967 H 0.4517 0.3836 0.99077 0.0
H968 H 0.67969 0.41383 0.74563 0.0
H969 H 0.77409 0.40566 0.80098 0.0
H970 H 0.79445 0.4047 0.89841 0.0
H971 H 0.75372 0.38519 0.95583 0.0
Mn972 Mn 0.15619 0.64327 0.60039 0.0
Mn973 Mn 0.30257 0.71484 0.59789 0.0
C974 C 0.15505 0.75532 0.60737 0.0
C975 C 0.06218 0.59712 0.63444 0.0
C976 C 0.2372 0.66187 0.52815 0.0
O977 O 0.22588 0.56993 0.61137 0.0
O978 O 0.30838 0.63064 0.61651 0.0
C979 C 0.32618 0.70557 0.68149 0.0
N980 N 0.32383 0.7414 0.6497 0.0
C981 C 0.34044 0.84357 0.69072 0.0
C982 C 0.34805 0.79769 0.72134 0.0
C983 C 0.34016 0.73245 0.71644 0.0
C984 C 0.33229 0.80316 0.65228 0.0
H985 H 0.31764 0.6555 0.68084 0.0
C986 C 0.28268 0.57828 0.62234 0.0
O987 O 0.07639 0.58302 0.59979 0.0
O988 O 0.10319 0.63508 0.64959 0.0
N989 N 0.3166 0.79914 0.57753 0.0
C990 C 0.31283 0.82944 0.535 0.0
C991 C 0.31426 0.91426 0.52454 0.0
C992 C 0.32135 0.97513 0.5595 0.0
C993 C 0.32719 0.9543 0.60807 0.0
C994 C 0.32644 0.83604 0.61509 0.0
H995 H 0.30682 0.79766 0.51139 0.0
O996 O 0.10946 0.72335 0.59242 0.0
O997 O 0.20718 0.72157 0.6141 0.0
O998 O 0.18568 0.64555 0.54444 0.0
O999 O 0.28417 0.68562 0.5458 0.0
C1000 C 0.33049 -0.00304 0.64496 0.0
C1001 C 0.33738 0.96668 0.68465 0.0
H1002 H 0.3589 0.80988 0.75027 0.0
H1003 H 0.34393 0.70171 0.74077 0.0
H1004 H 0.31373 0.92968 0.49563 0.0
H1005 H 0.32189 0.02408 0.55097 0.0
H1006 H 0.32286 0.04445 0.6484 0.0
H1007 H 0.34236 0.00372 0.70582 0.0
Mn1008 Mn 0.08427 0.57134 0.16399 0.0
Mn1009 Mn 0.0127 0.42495 0.16647 0.0
C1010 C 0.97222 0.57248 0.157 0.0
C1011 C 0.13042 0.66535 0.12994 0.0
C1012 C 0.06569 0.4903 0.23622 0.0
O1013 O 0.15761 0.50165 0.153 0.0
O1014 O 0.0969 0.41916 0.14785 0.0
C1015 C 0.02196 0.40136 0.08287 0.0
N1016 N 0.98613 0.40371 0.11467 0.0
C1017 C 0.88396 0.3871 0.07364 0.0
C1018 C 0.92983 0.3795 0.04303 0.0
C1019 C -0.00493 0.38738 0.04793 0.0
C1020 C 0.92437 0.39524 0.11209 0.0
H1021 H 0.07203 0.4099 0.08352 0.0
C1022 C 0.14926 0.44486 0.14203 0.0
O1023 O 0.14452 0.65114 0.16459 0.0
O1024 O 0.09247 0.62435 0.11479 0.0
N1025 N 0.9284 0.41092 0.18684 0.0
C1026 C 0.89811 0.41468 0.22937 0.0
C1027 C 0.81329 0.41327 0.23984 0.0
C1028 C 0.75241 0.40618 0.20488 0.0
C1029 C 0.77324 0.40035 0.1563 0.0
C1030 C 0.89149 0.40109 0.14927 0.0
H1031 H 0.92989 0.42069 0.25298 0.0
O1032 O 0.00419 0.61807 0.17197 0.0
O1033 O 0.00597 0.52036 0.15027 0.0
O1034 O 0.08198 0.54184 0.21993 0.0
O1035 O 0.04193 0.44334 0.21857 0.0
C1036 C 0.73057 0.39706 0.11941 0.0
C1037 C 0.76085 0.39016 0.07973 0.0
H1038 H 0.91764 0.36865 0.01409 0.0
H1039 H 0.02581 0.38362 0.02359 0.0
H1040 H 0.79787 0.41379 0.26874 0.0
H1041 H 0.70346 0.40564 0.21341 0.0
H1042 H 0.68308 0.40469 0.11598 0.0
H1043 H 0.7238 0.3852 0.05856 0.0
Mn1044 Mn 0.1562 0.33427 0.91399 0.0
Mn1045 Mn 0.30258 0.2627 0.91647 0.0
C1046 C 0.15506 0.22222 0.907 0.0
C1047 C 0.06219 0.38042 0.87994 0.0
C1048 C 0.23724 0.31568 0.98622 0.0
O1049 O 0.22589 0.4076 0.903 0.0
O1050 O 0.30838 0.3469 0.89785 0.0
C1051 C 0.32617 0.27195 0.83287 0.0
N1052 N 0.32382 0.23613 0.86467 0.0
C1053 C 0.34043 0.13395 0.82365 0.0
C1054 C 0.34803 0.17982 0.79303 0.0
C1055 C 0.34014 0.24506 0.79793 0.0
C1056 C 0.33229 0.17437 0.86209 0.0
H1057 H 0.31763 0.32203 0.83352 0.0
C1058 C 0.28268 0.39926 0.89203 0.0
O1059 O 0.0764 0.39452 0.91459 0.0
O1060 O 0.10319 0.34247 0.86479 0.0
N1061 N 0.31662 0.1784 0.93684 0.0
C1062 C 0.31286 0.14812 0.97937 0.0
C1063 C 0.31429 0.0633 0.98984 0.0
C1064 C 0.32137 0.00241 0.95488 0.0
C1065 C 0.3272 0.02324 0.90631 0.0
C1066 C 0.32645 0.14149 0.89928 0.0
H1067 H 0.30685 0.1799 1.00298 0.0
O1068 O 0.10947 0.25419 0.92196 0.0
O1069 O 0.20718 0.25597 0.90027 0.0
O1070 O 0.1857 0.33198 0.96993 0.0
O1071 O 0.2842 0.29193 0.96857 0.0
C1072 C 0.33049 0.98057 0.86942 0.0
C1073 C 0.33738 0.01084 0.82973 0.0
H1074 H 0.35887 0.16763 0.76409 0.0
H1075 H 0.3439 0.2758 0.77358 0.0
H1076 H 0.31377 0.04788 0.01875 0.0
H1077 H 0.32192 0.95347 0.96342 0.0
H1078 H 0.32286 0.93308 0.86599 0.0
H1079 H 0.34234 0.97379 0.80856 0.0
Mn1080 Mn 0.39327 0.4062 0.66399 0.0
Mn1081 Mn 0.46484 0.55258 0.66647 0.0
C1082 C 0.50532 0.40506 0.657 0.0
C1083 C 0.34712 0.31218 0.62994 0.0
C1084 C 0.41186 0.48724 0.73622 0.0
O1085 O 0.31993 0.47589 0.653 0.0
O1086 O 0.38064 0.55838 0.64785 0.0
C1087 C 0.45558 0.57617 0.58287 0.0
N1088 N 0.49141 0.57383 0.61467 0.0
C1089 C 0.59358 0.59043 0.57364 0.0
C1090 C 0.54771 0.59804 0.54303 0.0
C1091 C 0.48247 0.59015 0.54793 0.0
C1092 C 0.55317 0.58229 0.61209 0.0
H1093 H 0.40551 0.56764 0.58352 0.0
C1094 C 0.32828 0.53268 0.64203 0.0
O1095 O 0.33302 0.32639 0.66459 0.0
O1096 O 0.38507 0.35318 0.61479 0.0
N1097 N 0.54914 0.56662 0.68684 0.0
C1098 C 0.57943 0.56285 0.72937 0.0
C1099 C 0.66425 0.56427 0.73984 0.0
C1100 C 0.72513 0.57136 0.70488 0.0
C1101 C 0.7043 0.57719 0.6563 0.0
C1102 C 0.58605 0.57645 0.64927 0.0
H1103 H 0.54765 0.55684 0.75298 0.0
O1104 O 0.47335 0.35947 0.67197 0.0
O1105 O 0.47157 0.45718 0.65027 0.0
O1106 O 0.39556 0.4357 0.71993 0.0
O1107 O 0.43561 0.5342 0.71857 0.0
C1108 C 0.74697 0.58048 0.61941 0.0
C1109 C 0.7167 0.58737 0.57973 0.0
H1110 H 0.5599 0.60889 0.51409 0.0
H1111 H 0.45173 0.59391 0.52359 0.0
H1112 H 0.67967 0.56375 0.76874 0.0
H1113 H 0.77408 0.5719 0.71341 0.0
H1114 H 0.79446 0.57284 0.61598 0.0
H1115 H 0.75374 0.59234 0.55856 0.0
Mn1116 Mn 0.32134 0.64327 0.41399 0.0
Mn1117 Mn 0.17496 0.71484 0.41647 0.0
C1118 C 0.32248 0.75532 0.407 0.0
C1119 C 0.41535 0.59712 0.37994 0.0
C1120 C 0.2403 0.66185 0.48622 0.0
O1121 O 0.25165 0.56993 0.403 0.0
O1122 O 0.16916 0.63064 0.39785 0.0
C1123 C 0.15137 0.70559 0.33287 0.0
N1124 N 0.15372 0.74141 0.36467 0.0
C1125 C 0.13711 0.84359 0.32365 0.0
C1126 C 0.12951 0.79771 0.29303 0.0
C1127 C 0.1374 0.73247 0.29793 0.0
C1128 C 0.14525 0.80317 0.36209 0.0
H1129 H 0.15991 0.65551 0.33352 0.0
C1130 C 0.19486 0.57828 0.39203 0.0
O1131 O 0.40114 0.58301 0.41459 0.0
O1132 O 0.37435 0.63507 0.36479 0.0
N1133 N 0.16092 0.79913 0.43684 0.0
C1134 C 0.16468 0.82942 0.47937 0.0
C1135 C 0.16325 0.91424 0.48984 0.0
C1136 C 0.15617 0.97512 0.45488 0.0
C1137 C 0.15034 0.95429 0.40631 0.0
C1138 C 0.15109 0.83604 0.39928 0.0
H1139 H 0.17069 0.79764 0.50298 0.0
O1140 O 0.36807 0.72335 0.42196 0.0
O1141 O 0.27036 0.72157 0.40027 0.0
O1142 O 0.29184 0.64556 0.46993 0.0
O1143 O 0.19334 0.6856 0.46857 0.0
C1144 C 0.14705 -0.00303 0.36942 0.0
C1145 C 0.14016 0.9667 0.32973 0.0
H1146 H 0.11867 0.80991 0.26409 0.0
H1147 H 0.13364 0.70173 0.27358 0.0
H1148 H 0.16377 0.92965 0.51875 0.0
H1149 H 0.15562 0.02407 0.46342 0.0
H1150 H 0.15468 0.04446 0.36599 0.0
H1151 H 0.1352 0.00374 0.30856 0.0
loop_
_geom_bond_atom_site_label_1
_geom_bond_atom_site_label_2
_geom_bond_distance
_geom_bond_site_symmetry_2
_ccdc_geom_bond_type
Mn0 O5 2.095 . S
Mn0 O15 2.162 . S
Mn0 O16 2.297 . S
Mn0 O24 2.385 . S
Mn0 O25 2.209 . S
Mn0 O26 2.094 . S
Mn1 O6 2.121 . S
Mn1 N8 2.257 . S
Mn1 N17 2.282 . S
Mn1 O25 2.215 1_565 S
Mn1 O27 2.117 . S
C2 O24 1.234 . S
C2 O25 1.283 . S
C3 O15 1.281 . S
C3 O16 1.236 . S
C4 O26 1.240 . S
C4 O27 1.264 1_545 S
O5 Mn0 2.095 . S
O5 C14 1.250 1_545 S
O6 Mn1 2.121 . S
O6 C14 1.258 . S
C7 N8 1.326 . S
C7 C11 1.460 . S
C7 H13 0.929 . S
N8 Mn1 2.257 . S
N8 C7 1.326 . S
N8 C12 1.362 . S
C9 C10 1.258 . S
C9 C12 1.431 . S
C9 C29 1.449 . S
C10 C9 1.258 . S
C10 C11 1.477 . S
C10 H30 0.931 . S
C11 C7 1.460 . S
C11 C10 1.477 . S
C11 H31 0.930 . S
C12 N8 1.362 . S
C12 C9 1.431 . S
C12 C22 1.476 . S
H13 C7 0.929 . S
C14 O5 1.250 1_565 S
C14 O6 1.258 . S
O15 Mn0 2.162 . S
O15 C3 1.281 . S
O16 Mn0 2.297 . S
O16 C3 1.236 . S
N17 Mn1 2.282 . S
N17 C18 1.328 . S
N17 C22 1.318 . S
C18 N17 1.328 . S
C18 C19 1.457 . S
C18 H23 0.929 . S
C19 C18 1.457 . S
C19 C20 1.291 . S
C19 H32 0.931 . S
C20 C19 1.291 . S
C20 C21 1.373 . S
C20 H33 0.929 . S
C21 C20 1.373 . S
C21 C22 1.396 . S
C21 C28 1.403 . S
C22 C12 1.476 . S
C22 N17 1.318 . S
C22 C21 1.396 . S
H23 C18 0.929 . S
O24 Mn0 2.385 . S
O24 C2 1.234 . S
O25 Mn0 2.209 . S
O25 Mn1 2.215 1_545 S
O25 C2 1.283 . S
O26 Mn0 2.094 . S
O26 C4 1.240 . S
O27 Mn1 2.117 . S
O27 C4 1.264 1_565 S
C28 C21 1.403 . S
C28 C29 1.399 . S
C28 H34 0.929 . S
C29 C9 1.449 . S
C29 C28 1.399 . S
C29 H35 0.930 . S
H30 C10 0.931 . S
H31 C11 0.930 . S
H32 C19 0.931 . S
H33 C20 0.929 . S
H34 C28 0.929 . S
H35 C29 0.930 . S
Mn36 O41 2.095 . S
Mn36 O51 2.162 . S
Mn36 O52 2.297 . S
Mn36 O60 2.385 . S
Mn36 O61 2.209 . S
Mn36 O62 2.094 . S
Mn37 O42 2.121 . S
Mn37 N44 2.257 . S
Mn37 N53 2.282 . S
Mn37 O61 2.215 . S
Mn37 O63 2.117 . S
C38 O60 1.234 . S
C38 O61 1.283 . S
C39 O51 1.281 . S
C39 O52 1.236 . S
C40 O62 1.240 . S
C40 O63 1.264 . S
O41 Mn36 2.095 . S
O41 C50 1.250 . S
O42 Mn37 2.121 . S
O42 C50 1.258 . S
C43 N44 1.326 . S
C43 C47 1.460 . S
C43 H49 0.929 . S
N44 Mn37 2.257 . S
N44 C43 1.326 . S
N44 C48 1.362 . S
C45 C46 1.258 . S
C45 C48 1.431 . S
C45 C65 1.449 . S
C46 C45 1.258 . S
C46 C47 1.477 . S
C46 H66 0.931 . S
C47 C43 1.460 . S
C47 C46 1.477 . S
C47 H67 0.930 . S
C48 N44 1.362 . S
C48 C45 1.431 . S
C48 C58 1.476 . S
H49 C43 0.929 . S
C50 O41 1.250 . S
C50 O42 1.258 . S
O51 Mn36 2.162 . S
O51 C39 1.281 . S
O52 Mn36 2.297 . S
O52 C39 1.236 . S
N53 Mn37 2.282 . S
N53 C54 1.328 . S
N53 C58 1.318 . S
C54 N53 1.328 . S
C54 C55 1.457 . S
C54 H59 0.929 . S
C55 C54 1.457 . S
C55 C56 1.291 . S
C55 H68 0.931 . S
C56 C55 1.291 . S
C56 C57 1.373 . S
C56 H69 0.929 . S
C57 C56 1.373 . S
C57 C58 1.396 . S
C57 C64 1.403 . S
C58 C48 1.476 . S
C58 N53 1.318 . S
C58 C57 1.396 . S
H59 C54 0.929 . S
O60 Mn36 2.385 . S
O60 C38 1.234 . S
O61 Mn36 2.209 . S
O61 Mn37 2.215 . S
O61 C38 1.283 . S
O62 Mn36 2.094 . S
O62 C40 1.240 . S
O63 Mn37 2.117 . S
O63 C40 1.264 . S
C64 C57 1.403 . S
C64 C65 1.399 . S
C64 H70 0.929 . S
C65 C45 1.449 . S
C65 C64 1.399 . S
C65 H71 0.930 . S
H66 C46 0.931 . S
H67 C47 0.930 . S
H68 C55 0.931 . S
H69 C56 0.929 . S
H70 C64 0.929 . S
H71 C65 0.930 . S
Mn72 O77 2.095 . S
Mn72 O87 2.162 . S
Mn72 O88 2.297 . S
Mn72 O96 2.385 . S
Mn72 O97 2.209 . S
Mn72 O98 2.094 . S
Mn73 O78 2.121 . S
Mn73 N80 2.257 1_455 S
Mn73 N89 2.282 1_455 S
Mn73 O97 2.215 1_545 S
Mn73 O99 2.117 . S
C74 O96 1.234 1_655 S
C74 O97 1.283 1_655 S
C75 O87 1.281 . S
C75 O88 1.236 . S
C76 O98 1.240 . S
C76 O99 1.264 1_565 S
O77 Mn72 2.095 . S
O77 C86 1.250 1_565 S
O78 Mn73 2.121 . S
O78 C86 1.258 . S
C79 N80 1.326 1_455 S
C79 C83 1.460 1_455 S
C79 H85 0.929 . S
N80 Mn73 2.257 1_655 S
N80 C79 1.326 1_655 S
N80 C84 1.362 . S
C81 C82 1.258 . S
C81 C84 1.431 . S
C81 C101 1.449 . S
C82 C81 1.258 . S
C82 C83 1.477 . S
C82 H102 0.931 . S
C83 C79 1.460 1_655 S
C83 C82 1.477 . S
C83 H103 0.930 . S
C84 N80 1.362 . S
C84 C81 1.431 . S
C84 C94 1.476 . S
H85 C79 0.929 . S
C86 O77 1.250 1_545 S
C86 O78 1.258 . S
O87 Mn72 2.162 . S
O87 C75 1.281 . S
O88 Mn72 2.297 . S
O88 C75 1.236 . S
N89 Mn73 2.282 1_655 S
N89 C90 1.328 . S
N89 C94 1.318 . S
C90 N89 1.328 . S
C90 C91 1.457 . S
C90 H95 0.929 . S
C91 C90 1.457 . S
C91 C92 1.291 . S
C91 H104 0.931 . S
C92 C91 1.291 . S
C92 C93 1.373 . S
C92 H105 0.929 . S
C93 C92 1.373 . S
C93 C94 1.396 . S
C93 C100 1.403 . S
C94 C84 1.476 . S
C94 N89 1.318 . S
C94 C93 1.396 . S
H95 C90 0.929 . S
O96 Mn72 2.385 . S
O96 C74 1.234 1_455 S
O97 Mn72 2.209 . S
O97 Mn73 2.215 1_565 S
O97 C74 1.283 1_455 S
O98 Mn72 2.094 . S
O98 C76 1.240 . S
O99 Mn73 2.117 . S
O99 C76 1.264 1_545 S
C100 C93 1.403 . S
C100 C101 1.399 . S
C100 H106 0.929 . S
C101 C81 1.449 . S
C101 C100 1.399 . S
C101 H107 0.930 . S
H102 C82 0.931 . S
H103 C83 0.930 . S
H104 C91 0.931 . S
H105 C92 0.929 . S
H106 C100 0.929 . S
H107 C101 0.930 . S
Mn108 O113 2.095 . S
Mn108 O123 2.162 . S
Mn108 O124 2.297 . S
Mn108 O132 2.385 . S
Mn108 O133 2.209 . S
Mn108 O134 2.094 . S
Mn109 O114 2.121 . S
Mn109 N116 2.257 . S
Mn109 N125 2.282 . S
Mn109 O133 2.215 . S
Mn109 O135 2.117 . S
C110 O132 1.234 . S
C110 O133 1.283 . S
C111 O123 1.281 . S
C111 O124 1.236 . S
C112 O134 1.240 . S
C112 O135 1.264 . S
O113 Mn108 2.095 . S
O113 C122 1.250 . S
O114 Mn109 2.121 . S
O114 C122 1.258 . S
C115 N116 1.326 . S
C115 C119 1.460 . S
C115 H121 0.929 . S
N116 Mn109 2.257 . S
N116 C115 1.326 . S
N116 C120 1.362 . S
C117 C118 1.258 . S
C117 C120 1.431 . S
C117 C137 1.449 . S
C118 C117 1.258 . S
C118 C119 1.477 . S
C118 H138 0.931 . S
C119 C115 1.460 . S
C119 C118 1.477 . S
C119 H139 0.930 . S
C120 N116 1.362 . S
C120 C117 1.431 . S
C120 C130 1.476 . S
H121 C115 0.929 . S
C122 O113 1.250 . S
C122 O114 1.258 . S
O123 Mn108 2.162 . S
O123 C111 1.281 . S
O124 Mn108 2.297 . S
O124 C111 1.236 . S
N125 Mn109 2.282 . S
N125 C126 1.328 . S
N125 C130 1.318 . S
C126 N125 1.328 . S
C126 C127 1.457 . S
C126 H131 0.929 . S
C127 C126 1.457 . S
C127 C128 1.291 . S
C127 H140 0.931 . S
C128 C127 1.291 . S
C128 C129 1.373 . S
C128 H141 0.929 . S
C129 C128 1.373 . S
C129 C130 1.396 . S
C129 C136 1.403 . S
C130 C120 1.476 . S
C130 N125 1.318 . S
C130 C129 1.396 . S
H131 C126 0.929 . S
O132 Mn108 2.385 . S
O132 C110 1.234 . S
O133 Mn108 2.209 . S
O133 Mn109 2.215 . S
O133 C110 1.283 . S
O134 Mn108 2.094 . S
O134 C112 1.240 . S
O135 Mn109 2.117 . S
O135 C112 1.264 . S
C136 C129 1.403 . S
C136 C137 1.399 . S
C136 H142 0.929 . S
C137 C117 1.449 . S
C137 C136 1.399 . S
C137 H143 0.930 . S
H138 C118 0.931 . S
H139 C119 0.930 . S
H140 C127 0.931 . S
H141 C128 0.929 . S
H142 C136 0.929 . S
H143 C137 0.930 . S
Mn144 O149 2.095 . S
Mn144 O159 2.162 . S
Mn144 O160 2.297 . S
Mn144 O168 2.385 . S
Mn144 O169 2.209 . S
Mn144 O170 2.094 . S
Mn145 O150 2.121 . S
Mn145 N152 2.257 . S
Mn145 N161 2.282 . S
Mn145 O169 2.215 1_545 S
Mn145 O171 2.117 . S
C146 O168 1.234 . S
C146 O169 1.283 . S
C147 O159 1.281 . S
C147 O160 1.236 . S
C148 O170 1.240 . S
C148 O171 1.264 1_565 S
O149 Mn144 2.095 . S
O149 C158 1.250 1_565 S
O150 Mn145 2.121 . S
O150 C158 1.258 . S
C151 N152 1.326 . S
C151 C155 1.460 . S
C151 H157 0.929 . S
N152 Mn145 2.257 . S
N152 C151 1.326 . S
N152 C156 1.362 . S
C153 C154 1.258 . S
C153 C156 1.431 . S
C153 C173 1.449 . S
C154 C153 1.258 . S
C154 C155 1.477 . S
C154 H174 0.931 . S
C155 C151 1.460 . S
C155 C154 1.477 . S
C155 H175 0.930 . S
C156 N152 1.362 . S
C156 C153 1.431 . S
C156 C166 1.476 . S
H157 C151 0.929 . S
C158 O149 1.250 1_545 S
C158 O150 1.258 . S
O159 Mn144 2.162 . S
O159 C147 1.281 . S
O160 Mn144 2.297 . S
O160 C147 1.236 . S
N161 Mn145 2.282 . S
N161 C162 1.328 . S
N161 C166 1.318 . S
C162 N161 1.328 . S
C162 C163 1.457 . S
C162 H167 0.929 . S
C163 C162 1.457 . S
C163 C164 1.291 . S
C163 H176 0.931 . S
C164 C163 1.291 . S
C164 C165 1.373 . S
C164 H177 0.929 . S
C165 C164 1.373 . S
C165 C166 1.396 . S
C165 C172 1.403 . S
C166 C156 1.476 . S
C166 N161 1.318 . S
C166 C165 1.396 . S
H167 C162 0.929 . S
O168 Mn144 2.385 . S
O168 C146 1.234 . S
O169 Mn144 2.209 . S
O169 Mn145 2.215 1_565 S
O169 C146 1.283 . S
O170 Mn144 2.094 . S
O170 C148 1.240 . S
O171 Mn145 2.117 . S
O171 C148 1.264 1_545 S
C172 C165 1.403 . S
C172 C173 1.399 . S
C172 H178 0.929 . S
C173 C153 1.449 . S
C173 C172 1.399 . S
C173 H179 0.930 . S
H174 C154 0.931 . S
H175 C155 0.930 . S
H176 C163 0.931 . S
H177 C164 0.929 . S
H178 C172 0.929 . S
H179 C173 0.930 . S
Mn180 O185 2.095 . S
Mn180 O195 2.162 . S
Mn180 O196 2.297 . S
Mn180 O204 2.385 . S
Mn180 O205 2.209 . S
Mn180 O206 2.094 . S
Mn181 O186 2.121 . S
Mn181 N188 2.257 . S
Mn181 N197 2.282 . S
Mn181 O205 2.215 . S
Mn181 O207 2.117 . S
C182 O204 1.234 . S
C182 O205 1.283 . S
C183 O195 1.281 . S
C183 O196 1.236 . S
C184 O206 1.240 . S
C184 O207 1.264 . S
O185 Mn180 2.095 . S
O185 C194 1.250 . S
O186 Mn181 2.121 . S
O186 C194 1.258 . S
C187 N188 1.326 . S
C187 C191 1.460 . S
C187 H193 0.929 . S
N188 Mn181 2.257 . S
N188 C187 1.326 . S
N188 C192 1.362 . S
C189 C190 1.258 . S
C189 C192 1.431 . S
C189 C209 1.449 . S
C190 C189 1.258 . S
C190 C191 1.477 . S
C190 H210 0.931 . S
C191 C187 1.460 . S
C191 C190 1.477 . S
C191 H211 0.930 . S
C192 N188 1.362 . S
C192 C189 1.431 . S
C192 C202 1.476 . S
H193 C187 0.929 . S
C194 O185 1.250 . S
C194 O186 1.258 . S
O195 Mn180 2.162 . S
O195 C183 1.281 . S
O196 Mn180 2.297 . S
O196 C183 1.236 . S
N197 Mn181 2.282 . S
N197 C198 1.328 . S
N197 C202 1.318 . S
C198 N197 1.328 . S
C198 C199 1.457 . S
C198 H203 0.929 . S
C199 C198 1.457 . S
C199 C200 1.291 . S
C199 H212 0.931 . S
C200 C199 1.291 . S
C200 C201 1.373 . S
C200 H213 0.929 . S
C201 C200 1.373 . S
C201 C202 1.396 . S
C201 C208 1.403 . S
C202 C192 1.476 . S
C202 N197 1.318 . S
C202 C201 1.396 . S
H203 C198 0.929 . S
O204 Mn180 2.385 . S
O204 C182 1.234 . S
O205 Mn180 2.209 . S
O205 Mn181 2.215 . S
O205 C182 1.283 . S
O206 Mn180 2.094 . S
O206 C184 1.240 . S
O207 Mn181 2.117 . S
O207 C184 1.264 . S
C208 C201 1.403 . S
C208 C209 1.399 . S
C208 H214 0.929 . S
C209 C189 1.449 . S
C209 C208 1.399 . S
C209 H215 0.930 . S
H210 C190 0.931 . S
H211 C191 0.930 . S
H212 C199 0.931 . S
H213 C200 0.929 . S
H214 C208 0.929 . S
H215 C209 0.930 . S
Mn216 O221 2.095 . S
Mn216 O231 2.162 . S
Mn216 O232 2.297 . S
Mn216 O240 2.385 . S
Mn216 O241 2.209 . S
Mn216 O242 2.094 . S
Mn217 O222 2.121 . S
Mn217 N224 2.257 1_455 S
Mn217 N233 2.282 1_455 S
Mn217 O241 2.215 1_565 S
Mn217 O243 2.117 . S
C218 O240 1.234 1_655 S
C218 O241 1.283 1_655 S
C219 O231 1.281 . S
C219 O232 1.236 . S
C220 O242 1.240 . S
C220 O243 1.264 1_545 S
O221 Mn216 2.095 . S
O221 C230 1.250 1_545 S
O222 Mn217 2.121 . S
O222 C230 1.258 . S
C223 N224 1.326 1_455 S
C223 C227 1.460 1_455 S
C223 H229 0.929 . S
N224 Mn217 2.257 1_655 S
N224 C223 1.326 1_655 S
N224 C228 1.362 . S
C225 C226 1.258 . S
C225 C228 1.431 . S
C225 C245 1.449 . S
C226 C225 1.258 . S
C226 C227 1.477 . S
C226 H246 0.931 . S
C227 C223 1.460 1_655 S
C227 C226 1.477 . S
C227 H247 0.930 . S
C228 N224 1.362 . S
C228 C225 1.431 . S
C228 C238 1.476 . S
H229 C223 0.929 . S
C230 O221 1.250 1_565 S
C230 O222 1.258 . S
O231 Mn216 2.162 . S
O231 C219 1.281 . S
O232 Mn216 2.297 . S
O232 C219 1.236 . S
N233 Mn217 2.282 1_655 S
N233 C234 1.328 . S
N233 C238 1.318 . S
C234 N233 1.328 . S
C234 C235 1.457 . S
C234 H239 0.929 . S
C235 C234 1.457 . S
C235 C236 1.291 . S
C235 H248 0.931 . S
C236 C235 1.291 . S
C236 C237 1.373 . S
C236 H249 0.929 . S
C237 C236 1.373 . S
C237 C238 1.396 . S
C237 C244 1.403 . S
C238 C228 1.476 . S
C238 N233 1.318 . S
C238 C237 1.396 . S
H239 C234 0.929 . S
O240 Mn216 2.385 . S
O240 C218 1.234 1_455 S
O241 Mn216 2.209 . S
O241 Mn217 2.215 1_545 S
O241 C218 1.283 1_455 S
O242 Mn216 2.094 . S
O242 C220 1.240 . S
O243 Mn217 2.117 . S
O243 C220 1.264 1_565 S
C244 C237 1.403 . S
C244 C245 1.399 . S
C244 H250 0.929 . S
C245 C225 1.449 . S
C245 C244 1.399 . S
C245 H251 0.930 . S
H246 C226 0.931 . S
H247 C227 0.930 . S
H248 C235 0.931 . S
H249 C236 0.929 . S
H250 C244 0.929 . S
H251 C245 0.930 . S
Mn252 O257 2.095 . S
Mn252 O267 2.162 . S
Mn252 O268 2.297 . S
Mn252 O276 2.385 . S
Mn252 O277 2.209 . S
Mn252 O278 2.094 . S
Mn253 O258 2.121 . S
Mn253 N260 2.257 . S
Mn253 N269 2.282 . S
Mn253 O277 2.215 . S
Mn253 O279 2.117 . S
C254 O276 1.234 . S
C254 O277 1.283 . S
C255 O267 1.281 . S
C255 O268 1.236 . S
C256 O278 1.240 . S
C256 O279 1.264 . S
O257 Mn252 2.095 . S
O257 C266 1.250 . S
O258 Mn253 2.121 . S
O258 C266 1.258 . S
C259 N260 1.326 . S
C259 C263 1.460 . S
C259 H265 0.929 . S
N260 Mn253 2.257 . S
N260 C259 1.326 . S
N260 C264 1.362 . S
C261 C262 1.258 . S
C261 C264 1.431 . S
C261 C281 1.449 . S
C262 C261 1.258 . S
C262 C263 1.477 . S
C262 H282 0.931 . S
C263 C259 1.460 . S
C263 C262 1.477 . S
C263 H283 0.930 . S
C264 N260 1.362 . S
C264 C261 1.431 . S
C264 C274 1.476 . S
H265 C259 0.929 . S
C266 O257 1.250 . S
C266 O258 1.258 . S
O267 Mn252 2.162 . S
O267 C255 1.281 . S
O268 Mn252 2.297 . S
O268 C255 1.236 . S
N269 Mn253 2.282 . S
N269 C270 1.328 . S
N269 C274 1.318 . S
C270 N269 1.328 . S
C270 C271 1.457 . S
C270 H275 0.929 . S
C271 C270 1.457 . S
C271 C272 1.291 . S
C271 H284 0.931 . S
C272 C271 1.291 . S
C272 C273 1.373 . S
C272 H285 0.929 . S
C273 C272 1.373 . S
C273 C274 1.396 . S
C273 C280 1.403 . S
C274 C264 1.476 . S
C274 N269 1.318 . S
C274 C273 1.396 . S
H275 C270 0.929 . S
O276 Mn252 2.385 . S
O276 C254 1.234 . S
O277 Mn252 2.209 . S
O277 Mn253 2.215 . S
O277 C254 1.283 . S
O278 Mn252 2.094 . S
O278 C256 1.240 . S
O279 Mn253 2.117 . S
O279 C256 1.264 . S
C280 C273 1.403 . S
C280 C281 1.399 . S
C280 H286 0.929 . S
C281 C261 1.449 . S
C281 C280 1.399 . S
C281 H287 0.930 . S
H282 C262 0.931 . S
H283 C263 0.930 . S
H284 C271 0.931 . S
H285 C272 0.929 . S
H286 C280 0.929 . S
H287 C281 0.930 . S
Mn288 O293 2.095 . S
Mn288 O303 2.162 . S
Mn288 O304 2.297 . S
Mn288 O312 2.385 . S
Mn288 O313 2.209 . S
Mn288 O314 2.094 . S
Mn289 O294 2.121 . S
Mn289 N296 2.257 . S
Mn289 N305 2.282 . S
Mn289 O313 2.215 1_545 S
Mn289 O315 2.117 . S
C290 O312 1.234 . S
C290 O313 1.283 . S
C291 O303 1.281 . S
C291 O304 1.236 . S
C292 O314 1.240 . S
C292 O315 1.264 1_565 S
O293 Mn288 2.095 . S
O293 C302 1.250 1_565 S
O294 Mn289 2.121 . S
O294 C302 1.258 . S
C295 N296 1.326 . S
C295 C299 1.460 . S
C295 H301 0.929 . S
N296 Mn289 2.257 . S
N296 C295 1.326 . S
N296 C300 1.362 . S
C297 C298 1.258 . S
C297 C300 1.431 . S
C297 C317 1.449 . S
C298 C297 1.258 . S
C298 C299 1.477 . S
C298 H318 0.931 . S
C299 C295 1.460 . S
C299 C298 1.477 . S
C299 H319 0.930 . S
C300 N296 1.362 . S
C300 C297 1.431 . S
C300 C310 1.476 . S
H301 C295 0.929 . S
C302 O293 1.250 1_545 S
C302 O294 1.258 . S
O303 Mn288 2.162 . S
O303 C291 1.281 . S
O304 Mn288 2.297 . S
O304 C291 1.236 . S
N305 Mn289 2.282 . S
N305 C306 1.328 . S
N305 C310 1.318 . S
C306 N305 1.328 . S
C306 C307 1.457 . S
C306 H311 0.929 . S
C307 C306 1.457 . S
C307 C308 1.291 . S
C307 H320 0.931 . S
C308 C307 1.291 . S
C308 C309 1.373 . S
C308 H321 0.929 . S
C309 C308 1.373 . S
C309 C310 1.396 . S
C309 C316 1.403 . S
C310 C300 1.476 . S
C310 N305 1.318 . S
C310 C309 1.396 . S
H311 C306 0.929 . S
O312 Mn288 2.385 . S
O312 C290 1.234 . S
O313 Mn288 2.209 . S
O313 Mn289 2.215 1_565 S
O313 C290 1.283 . S
O314 Mn288 2.094 . S
O314 C292 1.240 . S
O315 Mn289 2.117 . S
O315 C292 1.264 1_545 S
C316 C309 1.403 . S
C316 C317 1.399 . S
C316 H322 0.929 . S
C317 C297 1.449 . S
C317 C316 1.399 . S
C317 H323 0.930 . S
H318 C298 0.931 . S
H319 C299 0.930 . S
H320 C307 0.931 . S
H321 C308 0.929 . S
H322 C316 0.929 . S
H323 C317 0.930 . S
Mn324 O329 2.095 . S
Mn324 O339 2.162 . S
Mn324 O340 2.297 . S
Mn324 O348 2.385 . S
Mn324 O349 2.209 . S
Mn324 O350 2.094 . S
Mn325 O330 2.121 . S
Mn325 N332 2.257 . S
Mn325 N341 2.282 . S
Mn325 O349 2.215 . S
Mn325 O351 2.117 . S
C326 O348 1.234 . S
C326 O349 1.283 . S
C327 O339 1.281 . S
C327 O340 1.236 . S
C328 O350 1.240 . S
C328 O351 1.264 . S
O329 Mn324 2.095 . S
O329 C338 1.250 . S
O330 Mn325 2.121 . S
O330 C338 1.258 . S
C331 N332 1.326 . S
C331 C335 1.460 . S
C331 H337 0.929 . S
N332 Mn325 2.257 . S
N332 C331 1.326 . S
N332 C336 1.362 . S
C333 C334 1.258 . S
C333 C336 1.431 . S
C333 C353 1.449 . S
C334 C333 1.258 . S
C334 C335 1.477 . S
C334 H354 0.931 . S
C335 C331 1.460 . S
C335 C334 1.477 . S
C335 H355 0.930 . S
C336 N332 1.362 . S
C336 C333 1.431 . S
C336 C346 1.476 . S
H337 C331 0.929 . S
C338 O329 1.250 . S
C338 O330 1.258 . S
O339 Mn324 2.162 . S
O339 C327 1.281 . S
O340 Mn324 2.297 . S
O340 C327 1.236 . S
N341 Mn325 2.282 . S
N341 C342 1.328 . S
N341 C346 1.318 . S
C342 N341 1.328 . S
C342 C343 1.457 . S
C342 H347 0.929 . S
C343 C342 1.457 . S
C343 C344 1.291 . S
C343 H356 0.931 . S
C344 C343 1.291 . S
C344 C345 1.373 . S
C344 H357 0.929 . S
C345 C344 1.373 . S
C345 C346 1.396 . S
C345 C352 1.403 . S
C346 C336 1.476 . S
C346 N341 1.318 . S
C346 C345 1.396 . S
H347 C342 0.929 . S
O348 Mn324 2.385 . S
O348 C326 1.234 . S
O349 Mn324 2.209 . S
O349 Mn325 2.215 . S
O349 C326 1.283 . S
O350 Mn324 2.094 . S
O350 C328 1.240 . S
O351 Mn325 2.117 . S
O351 C328 1.264 . S
C352 C345 1.403 . S
C352 C353 1.399 . S
C352 H358 0.929 . S
C353 C333 1.449 . S
C353 C352 1.399 . S
C353 H359 0.930 . S
H354 C334 0.931 . S
H355 C335 0.930 . S
H356 C343 0.931 . S
H357 C344 0.929 . S
H358 C352 0.929 . S
H359 C353 0.930 . S
Mn360 O365 2.095 . S
Mn360 O375 2.162 . S
Mn360 O376 2.297 . S
Mn360 O384 2.385 . S
Mn360 O385 2.209 . S
Mn360 O386 2.094 . S
Mn361 O366 2.121 . S
Mn361 N368 2.257 1_655 S
Mn361 N377 2.282 1_655 S
Mn361 O385 2.215 1_565 S
Mn361 O387 2.117 . S
C362 O384 1.234 1_455 S
C362 O385 1.283 1_455 S
C363 O375 1.281 . S
C363 O376 1.236 . S
C364 O386 1.240 . S
C364 O387 1.264 1_545 S
O365 Mn360 2.095 . S
O365 C374 1.250 1_545 S
O366 Mn361 2.121 . S
O366 C374 1.258 . S
C367 N368 1.326 1_655 S
C367 C371 1.460 1_655 S
C367 H373 0.929 . S
N368 Mn361 2.257 1_455 S
N368 C367 1.326 1_455 S
N368 C372 1.362 . S
C369 C370 1.258 . S
C369 C372 1.431 . S
C369 C389 1.449 . S
C370 C369 1.258 . S
C370 C371 1.477 . S
C370 H390 0.931 . S
C371 C367 1.460 1_455 S
C371 C370 1.477 . S
C371 H391 0.930 . S
C372 N368 1.362 . S
C372 C369 1.431 . S
C372 C382 1.476 . S
H373 C367 0.929 . S
C374 O365 1.250 1_565 S
C374 O366 1.258 . S
O375 Mn360 2.162 . S
O375 C363 1.281 . S
O376 Mn360 2.297 . S
O376 C363 1.236 . S
N377 Mn361 2.282 1_455 S
N377 C378 1.328 . S
N377 C382 1.318 . S
C378 N377 1.328 . S
C378 C379 1.457 . S
C378 H383 0.929 . S
C379 C378 1.457 . S
C379 C380 1.291 . S
C379 H392 0.931 . S
C380 C379 1.291 . S
C380 C381 1.373 . S
C380 H393 0.929 . S
C381 C380 1.373 . S
C381 C382 1.396 . S
C381 C388 1.403 . S
C382 C372 1.476 . S
C382 N377 1.318 . S
C382 C381 1.396 . S
H383 C378 0.929 . S
O384 Mn360 2.385 . S
O384 C362 1.234 1_655 S
O385 Mn360 2.209 . S
O385 Mn361 2.215 1_545 S
O385 C362 1.283 1_655 S
O386 Mn360 2.094 . S
O386 C364 1.240 . S
O387 Mn361 2.117 . S
O387 C364 1.264 1_565 S
C388 C381 1.403 . S
C388 C389 1.399 . S
C388 H394 0.929 . S
C389 C369 1.449 . S
C389 C388 1.399 . S
C389 H395 0.930 . S
H390 C370 0.931 . S
H391 C371 0.930 . S
H392 C379 0.931 . S
H393 C380 0.929 . S
H394 C388 0.929 . S
H395 C389 0.930 . S
Mn396 O401 2.095 . S
Mn396 O411 2.162 . S
Mn396 O412 2.297 . S
Mn396 O420 2.385 . S
Mn396 O421 2.209 . S
Mn396 O422 2.094 . S
Mn397 O402 2.121 . S
Mn397 N404 2.257 . S
Mn397 N413 2.282 . S
Mn397 O421 2.215 . S
Mn397 O423 2.117 . S
C398 O420 1.234 . S
C398 O421 1.283 . S
C399 O411 1.281 . S
C399 O412 1.236 . S
C400 O422 1.240 . S
C400 O423 1.264 . S
O401 Mn396 2.095 . S
O401 C410 1.250 . S
O402 Mn397 2.121 . S
O402 C410 1.258 . S
C403 N404 1.326 . S
C403 C407 1.460 . S
C403 H409 0.929 . S
N404 Mn397 2.257 . S
N404 C403 1.326 . S
N404 C408 1.362 . S
C405 C406 1.258 . S
C405 C408 1.431 . S
C405 C425 1.449 . S
C406 C405 1.258 . S
C406 C407 1.477 . S
C406 H426 0.931 . S
C407 C403 1.460 . S
C407 C406 1.477 . S
C407 H427 0.930 . S
C408 N404 1.362 . S
C408 C405 1.431 . S
C408 C418 1.476 . S
H409 C403 0.929 . S
C410 O401 1.250 . S
C410 O402 1.258 . S
O411 Mn396 2.162 . S
O411 C399 1.281 . S
O412 Mn396 2.297 . S
O412 C399 1.236 . S
N413 Mn397 2.282 . S
N413 C414 1.328 . S
N413 C418 1.318 . S
C414 N413 1.328 . S
C414 C415 1.457 . S
C414 H419 0.929 . S
C415 C414 1.457 . S
C415 C416 1.291 . S
C415 H428 0.931 . S
C416 C415 1.291 . S
C416 C417 1.373 . S
C416 H429 0.929 . S
C417 C416 1.373 . S
C417 C418 1.396 . S
C417 C424 1.403 . S
C418 C408 1.476 . S
C418 N413 1.318 . S
C418 C417 1.396 . S
H419 C414 0.929 . S
O420 Mn396 2.385 . S
O420 C398 1.234 . S
O421 Mn396 2.209 . S
O421 Mn397 2.215 . S
O421 C398 1.283 . S
O422 Mn396 2.094 . S
O422 C400 1.240 . S
O423 Mn397 2.117 . S
O423 C400 1.264 . S
C424 C417 1.403 . S
C424 C425 1.399 . S
C424 H430 0.929 . S
C425 C405 1.449 . S
C425 C424 1.399 . S
C425 H431 0.930 . S
H426 C406 0.931 . S
H427 C407 0.930 . S
H428 C415 0.931 . S
H429 C416 0.929 . S
H430 C424 0.929 . S
H431 C425 0.930 . S
Mn432 O437 2.095 . S
Mn432 O447 2.162 . S
Mn432 O448 2.297 . S
Mn432 O456 2.385 . S
Mn432 O457 2.209 . S
Mn432 O458 2.094 . S
Mn433 O438 2.121 . S
Mn433 N440 2.257 . S
Mn433 N449 2.282 . S
Mn433 O457 2.215 1_565 S
Mn433 O459 2.117 . S
C434 O456 1.234 . S
C434 O457 1.283 . S
C435 O447 1.281 . S
C435 O448 1.236 . S
C436 O458 1.240 . S
C436 O459 1.264 1_545 S
O437 Mn432 2.095 . S
O437 C446 1.250 1_545 S
O438 Mn433 2.121 . S
O438 C446 1.258 . S
C439 N440 1.326 . S
C439 C443 1.460 . S
C439 H445 0.929 . S
N440 Mn433 2.257 . S
N440 C439 1.326 . S
N440 C444 1.362 . S
C441 C442 1.258 . S
C441 C444 1.431 . S
C441 C461 1.449 . S
C442 C441 1.258 . S
C442 C443 1.477 . S
C442 H462 0.931 . S
C443 C439 1.460 . S
C443 C442 1.477 . S
C443 H463 0.930 . S
C444 N440 1.362 . S
C444 C441 1.431 . S
C444 C454 1.476 . S
H445 C439 0.929 . S
C446 O437 1.250 1_565 S
C446 O438 1.258 . S
O447 Mn432 2.162 . S
O447 C435 1.281 . S
O448 Mn432 2.297 . S
O448 C435 1.236 . S
N449 Mn433 2.282 . S
N449 C450 1.328 . S
N449 C454 1.318 . S
C450 N449 1.328 . S
C450 C451 1.457 . S
C450 H455 0.929 . S
C451 C450 1.457 . S
C451 C452 1.291 . S
C451 H464 0.931 . S
C452 C451 1.291 . S
C452 C453 1.373 . S
C452 H465 0.929 . S
C453 C452 1.373 . S
C453 C454 1.396 . S
C453 C460 1.403 . S
C454 C444 1.476 . S
C454 N449 1.318 . S
C454 C453 1.396 . S
H455 C450 0.929 . S
O456 Mn432 2.385 . S
O456 C434 1.234 . S
O457 Mn432 2.209 . S
O457 Mn433 2.215 1_545 S
O457 C434 1.283 . S
O458 Mn432 2.094 . S
O458 C436 1.240 . S
O459 Mn433 2.117 . S
O459 C436 1.264 1_565 S
C460 C453 1.403 . S
C460 C461 1.399 . S
C460 H466 0.929 . S
C461 C441 1.449 . S
C461 C460 1.399 . S
C461 H467 0.930 . S
H462 C442 0.931 . S
H463 C443 0.930 . S
H464 C451 0.931 . S
H465 C452 0.929 . S
H466 C460 0.929 . S
H467 C461 0.930 . S
Mn468 O473 2.095 . S
Mn468 O483 2.162 . S
Mn468 O484 2.297 . S
Mn468 O492 2.385 . S
Mn468 O493 2.209 . S
Mn468 O494 2.094 . S
Mn469 O474 2.121 . S
Mn469 N476 2.257 . S
Mn469 N485 2.282 . S
Mn469 O493 2.215 . S
Mn469 O495 2.117 . S
C470 O492 1.234 . S
C470 O493 1.283 . S
C471 O483 1.281 . S
C471 O484 1.236 . S
C472 O494 1.240 . S
C472 O495 1.264 . S
O473 Mn468 2.095 . S
O473 C482 1.250 . S
O474 Mn469 2.121 . S
O474 C482 1.258 . S
C475 N476 1.326 . S
C475 C479 1.460 . S
C475 H481 0.929 . S
N476 Mn469 2.257 . S
N476 C475 1.326 . S
N476 C480 1.362 . S
C477 C478 1.258 . S
C477 C480 1.431 . S
C477 C497 1.449 . S
C478 C477 1.258 . S
C478 C479 1.477 . S
C478 H498 0.931 . S
C479 C475 1.460 . S
C479 C478 1.477 . S
C479 H499 0.930 . S
C480 N476 1.362 . S
C480 C477 1.431 . S
C480 C490 1.476 . S
H481 C475 0.929 . S
C482 O473 1.250 . S
C482 O474 1.258 . S
O483 Mn468 2.162 . S
O483 C471 1.281 . S
O484 Mn468 2.297 . S
O484 C471 1.236 . S
N485 Mn469 2.282 . S
N485 C486 1.328 . S
N485 C490 1.318 . S
C486 N485 1.328 . S
C486 C487 1.457 . S
C486 H491 0.929 . S
C487 C486 1.457 . S
C487 C488 1.291 . S
C487 H500 0.931 . S
C488 C487 1.291 . S
C488 C489 1.373 . S
C488 H501 0.929 . S
C489 C488 1.373 . S
C489 C490 1.396 . S
C489 C496 1.403 . S
C490 C480 1.476 . S
C490 N485 1.318 . S
C490 C489 1.396 . S
H491 C486 0.929 . S
O492 Mn468 2.385 . S
O492 C470 1.234 . S
O493 Mn468 2.209 . S
O493 Mn469 2.215 . S
O493 C470 1.283 . S
O494 Mn468 2.094 . S
O494 C472 1.240 . S
O495 Mn469 2.117 . S
O495 C472 1.264 . S
C496 C489 1.403 . S
C496 C497 1.399 . S
C496 H502 0.929 . S
C497 C477 1.449 . S
C497 C496 1.399 . S
C497 H503 0.930 . S
H498 C478 0.931 . S
H499 C479 0.930 . S
H500 C487 0.931 . S
H501 C488 0.929 . S
H502 C496 0.929 . S
H503 C497 0.930 . S
Mn504 O509 2.095 . S
Mn504 O519 2.162 . S
Mn504 O520 2.297 . S
Mn504 O528 2.385 . S
Mn504 O529 2.209 . S
Mn504 O530 2.094 . S
Mn505 O510 2.121 . S
Mn505 N512 2.257 1_655 S
Mn505 N521 2.282 1_655 S
Mn505 O529 2.215 1_545 S
Mn505 O531 2.117 . S
C506 O528 1.234 1_455 S
C506 O529 1.283 1_455 S
C507 O519 1.281 . S
C507 O520 1.236 . S
C508 O530 1.240 . S
C508 O531 1.264 1_565 S
O509 Mn504 2.095 . S
O509 C518 1.250 1_565 S
O510 Mn505 2.121 . S
O510 C518 1.258 . S
C511 N512 1.326 1_655 S
C511 C515 1.460 1_655 S
C511 H517 0.929 . S
N512 Mn505 2.257 1_455 S
N512 C511 1.326 1_455 S
N512 C516 1.362 . S
C513 C514 1.258 . S
C513 C516 1.431 . S
C513 C533 1.449 . S
C514 C513 1.258 . S
C514 C515 1.477 . S
C514 H534 0.931 . S
C515 C511 1.460 1_455 S
C515 C514 1.477 . S
C515 H535 0.930 . S
C516 N512 1.362 . S
C516 C513 1.431 . S
C516 C526 1.476 . S
H517 C511 0.929 . S
C518 O509 1.250 1_545 S
C518 O510 1.258 . S
O519 Mn504 2.162 . S
O519 C507 1.281 . S
O520 Mn504 2.297 . S
O520 C507 1.236 . S
N521 Mn505 2.282 1_455 S
N521 C522 1.328 . S
N521 C526 1.318 . S
C522 N521 1.328 . S
C522 C523 1.457 . S
C522 H527 0.929 . S
C523 C522 1.457 . S
C523 C524 1.291 . S
C523 H536 0.931 . S
C524 C523 1.291 . S
C524 C525 1.373 . S
C524 H537 0.929 . S
C525 C524 1.373 . S
C525 C526 1.396 . S
C525 C532 1.403 . S
C526 C516 1.476 . S
C526 N521 1.318 . S
C526 C525 1.396 . S
H527 C522 0.929 . S
O528 Mn504 2.385 . S
O528 C506 1.234 1_655 S
O529 Mn504 2.209 . S
O529 Mn505 2.215 1_565 S
O529 C506 1.283 1_655 S
O530 Mn504 2.094 . S
O530 C508 1.240 . S
O531 Mn505 2.117 . S
O531 C508 1.264 1_545 S
C532 C525 1.403 . S
C532 C533 1.399 . S
C532 H538 0.929 . S
C533 C513 1.449 . S
C533 C532 1.399 . S
C533 H539 0.930 . S
H534 C514 0.931 . S
H535 C515 0.930 . S
H536 C523 0.931 . S
H537 C524 0.929 . S
H538 C532 0.929 . S
H539 C533 0.930 . S
Mn540 O545 2.095 . S
Mn540 O555 2.162 . S
Mn540 O556 2.297 . S
Mn540 O564 2.385 . S
Mn540 O565 2.209 . S
Mn540 O566 2.094 . S
Mn541 O546 2.121 . S
Mn541 N548 2.257 . S
Mn541 N557 2.282 . S
Mn541 O565 2.215 . S
Mn541 O567 2.117 . S
C542 O564 1.234 . S
C542 O565 1.283 . S
C543 O555 1.281 . S
C543 O556 1.236 . S
C544 O566 1.240 . S
C544 O567 1.264 . S
O545 Mn540 2.095 . S
O545 C554 1.250 . S
O546 Mn541 2.121 . S
O546 C554 1.258 . S
C547 N548 1.326 . S
C547 C551 1.460 . S
C547 H553 0.929 . S
N548 Mn541 2.257 . S
N548 C547 1.326 . S
N548 C552 1.362 . S
C549 C550 1.258 . S
C549 C552 1.431 . S
C549 C569 1.449 . S
C550 C549 1.258 . S
C550 C551 1.477 . S
C550 H570 0.931 . S
C551 C547 1.460 . S
C551 C550 1.477 . S
C551 H571 0.930 . S
C552 N548 1.362 . S
C552 C549 1.431 . S
C552 C562 1.476 . S
H553 C547 0.929 . S
C554 O545 1.250 . S
C554 O546 1.258 . S
O555 Mn540 2.162 . S
O555 C543 1.281 . S
O556 Mn540 2.297 . S
O556 C543 1.236 . S
N557 Mn541 2.282 . S
N557 C558 1.328 . S
N557 C562 1.318 . S
C558 N557 1.328 . S
C558 C559 1.457 . S
C558 H563 0.929 . S
C559 C558 1.457 . S
C559 C560 1.291 . S
C559 H572 0.931 . S
C560 C559 1.291 . S
C560 C561 1.373 . S
C560 H573 0.929 . S
C561 C560 1.373 . S
C561 C562 1.396 . S
C561 C568 1.403 . S
C562 C552 1.476 . S
C562 N557 1.318 . S
C562 C561 1.396 . S
H563 C558 0.929 . S
O564 Mn540 2.385 . S
O564 C542 1.234 . S
O565 Mn540 2.209 . S
O565 Mn541 2.215 . S
O565 C542 1.283 . S
O566 Mn540 2.094 . S
O566 C544 1.240 . S
O567 Mn541 2.117 . S
O567 C544 1.264 . S
C568 C561 1.403 . S
C568 C569 1.399 . S
C568 H574 0.929 . S
C569 C549 1.449 . S
C569 C568 1.399 . S
C569 H575 0.930 . S
H570 C550 0.931 . S
H571 C551 0.930 . S
H572 C559 0.931 . S
H573 C560 0.929 . S
H574 C568 0.929 . S
H575 C569 0.930 . S
Mn576 O581 2.095 . S
Mn576 O591 2.162 . S
Mn576 O592 2.297 . S
Mn576 O600 2.385 . S
Mn576 O601 2.209 . S
Mn576 O602 2.094 . S
Mn577 O582 2.121 . S
Mn577 N584 2.257 1_655 S
Mn577 N593 2.282 1_655 S
Mn577 O601 2.215 . S
Mn577 O603 2.117 . S
C578 O600 1.234 1_455 S
C578 O601 1.283 1_455 S
C579 O591 1.281 . S
C579 O592 1.236 . S
C580 O602 1.240 . S
C580 O603 1.264 . S
O581 Mn576 2.095 . S
O581 C590 1.250 . S
O582 Mn577 2.121 . S
O582 C590 1.258 . S
C583 N584 1.326 1_655 S
C583 C587 1.460 1_655 S
C583 H589 0.929 . S
N584 Mn577 2.257 1_455 S
N584 C583 1.326 1_455 S
N584 C588 1.362 . S
C585 C586 1.258 . S
C585 C588 1.431 . S
C585 C605 1.449 . S
C586 C585 1.258 . S
C586 C587 1.477 . S
C586 H606 0.931 . S
C587 C583 1.460 1_455 S
C587 C586 1.477 . S
C587 H607 0.930 . S
C588 N584 1.362 . S
C588 C585 1.431 . S
C588 C598 1.476 . S
H589 C583 0.929 . S
C590 O581 1.250 . S
C590 O582 1.258 . S
O591 Mn576 2.162 . S
O591 C579 1.281 . S
O592 Mn576 2.297 . S
O592 C579 1.236 . S
N593 Mn577 2.282 1_455 S
N593 C594 1.328 . S
N593 C598 1.318 . S
C594 N593 1.328 . S
C594 C595 1.457 . S
C594 H599 0.929 . S
C595 C594 1.457 . S
C595 C596 1.291 . S
C595 H608 0.931 . S
C596 C595 1.291 . S
C596 C597 1.373 . S
C596 H609 0.929 . S
C597 C596 1.373 . S
C597 C598 1.396 . S
C597 C604 1.403 . S
C598 C588 1.476 . S
C598 N593 1.318 . S
C598 C597 1.396 . S
H599 C594 0.929 . S
O600 Mn576 2.385 . S
O600 C578 1.234 1_655 S
O601 Mn576 2.209 . S
O601 Mn577 2.215 . S
O601 C578 1.283 1_655 S
O602 Mn576 2.094 . S
O602 C580 1.240 . S
O603 Mn577 2.117 . S
O603 C580 1.264 . S
C604 C597 1.403 . S
C604 C605 1.399 . S
C604 H610 0.929 . S
C605 C585 1.449 . S
C605 C604 1.399 . S
C605 H611 0.930 . S
H606 C586 0.931 . S
H607 C587 0.930 . S
H608 C595 0.931 . S
H609 C596 0.929 . S
H610 C604 0.929 . S
H611 C605 0.930 . S
Mn612 O617 2.095 . S
Mn612 O627 2.162 . S
Mn612 O628 2.297 . S
Mn612 O636 2.385 . S
Mn612 O637 2.209 . S
Mn612 O638 2.094 . S
Mn613 O618 2.121 . S
Mn613 N620 2.257 . S
Mn613 N629 2.282 . S
Mn613 O637 2.215 . S
Mn613 O639 2.117 . S
C614 O636 1.234 . S
C614 O637 1.283 . S
C615 O627 1.281 . S
C615 O628 1.236 . S
C616 O638 1.240 . S
C616 O639 1.264 . S
O617 Mn612 2.095 . S
O617 C626 1.250 . S
O618 Mn613 2.121 . S
O618 C626 1.258 . S
C619 N620 1.326 . S
C619 C623 1.460 . S
C619 H625 0.929 . S
N620 Mn613 2.257 . S
N620 C619 1.326 . S
N620 C624 1.362 . S
C621 C622 1.258 . S
C621 C624 1.431 . S
C621 C641 1.449 . S
C622 C621 1.258 . S
C622 C623 1.477 . S
C622 H642 0.931 . S
C623 C619 1.460 . S
C623 C622 1.477 . S
C623 H643 0.930 . S
C624 N620 1.362 . S
C624 C621 1.431 . S
C624 C634 1.476 . S
H625 C619 0.929 . S
C626 O617 1.250 . S
C626 O618 1.258 . S
O627 Mn612 2.162 . S
O627 C615 1.281 . S
O628 Mn612 2.297 . S
O628 C615 1.236 . S
N629 Mn613 2.282 . S
N629 C630 1.328 . S
N629 C634 1.318 . S
C630 N629 1.328 . S
C630 C631 1.457 . S
C630 H635 0.929 . S
C631 C630 1.457 . S
C631 C632 1.291 . S
C631 H644 0.931 . S
C632 C631 1.291 . S
C632 C633 1.373 . S
C632 H645 0.929 . S
C633 C632 1.373 . S
C633 C634 1.396 . S
C633 C640 1.403 . S
C634 C624 1.476 . S
C634 N629 1.318 . S
C634 C633 1.396 . S
H635 C630 0.929 . S
O636 Mn612 2.385 . S
O636 C614 1.234 . S
O637 Mn612 2.209 . S
O637 Mn613 2.215 . S
O637 C614 1.283 . S
O638 Mn612 2.094 . S
O638 C616 1.240 . S
O639 Mn613 2.117 . S
O639 C616 1.264 . S
C640 C633 1.403 . S
C640 C641 1.399 . S
C640 H646 0.929 1_565 S
C641 C621 1.449 . S
C641 C640 1.399 . S
C641 H647 0.930 . S
H642 C622 0.931 . S
H643 C623 0.930 . S
H644 C631 0.931 . S
H645 C632 0.929 . S
H646 C640 0.929 1_545 S
H647 C641 0.930 . S
Mn648 O653 2.095 . S
Mn648 O663 2.162 . S
Mn648 O664 2.297 . S
Mn648 O672 2.385 . S
Mn648 O673 2.209 . S
Mn648 O674 2.094 . S
Mn649 O654 2.121 . S
Mn649 N656 2.257 . S
Mn649 N665 2.282 . S
Mn649 O673 2.215 . S
Mn649 O675 2.117 . S
C650 O672 1.234 . S
C650 O673 1.283 . S
C651 O663 1.281 . S
C651 O664 1.236 . S
C652 O674 1.240 . S
C652 O675 1.264 . S
O653 Mn648 2.095 . S
O653 C662 1.250 . S
O654 Mn649 2.121 . S
O654 C662 1.258 . S
C655 N656 1.326 . S
C655 C659 1.460 . S
C655 H661 0.929 . S
N656 Mn649 2.257 . S
N656 C655 1.326 . S
N656 C660 1.362 . S
C657 C658 1.258 . S
C657 C660 1.431 . S
C657 C677 1.449 . S
C658 C657 1.258 . S
C658 C659 1.477 . S
C658 H678 0.931 . S
C659 C655 1.460 . S
C659 C658 1.477 . S
C659 H679 0.930 . S
C660 N656 1.362 . S
C660 C657 1.431 . S
C660 C670 1.476 . S
H661 C655 0.929 . S
C662 O653 1.250 . S
C662 O654 1.258 . S
O663 Mn648 2.162 . S
O663 C651 1.281 . S
O664 Mn648 2.297 . S
O664 C651 1.236 . S
N665 Mn649 2.282 . S
N665 C666 1.328 . S
N665 C670 1.318 . S
C666 N665 1.328 . S
C666 C667 1.457 . S
C666 H671 0.929 . S
C667 C666 1.457 . S
C667 C668 1.291 . S
C667 H680 0.931 . S
C668 C667 1.291 . S
C668 C669 1.373 . S
C668 H681 0.929 . S
C669 C668 1.373 . S
C669 C670 1.396 . S
C669 C676 1.403 . S
C670 C660 1.476 . S
C670 N665 1.318 . S
C670 C669 1.396 . S
H671 C666 0.929 . S
O672 Mn648 2.385 . S
O672 C650 1.234 . S
O673 Mn648 2.209 . S
O673 Mn649 2.215 . S
O673 C650 1.283 . S
O674 Mn648 2.094 . S
O674 C652 1.240 . S
O675 Mn649 2.117 . S
O675 C652 1.264 . S
C676 C669 1.403 . S
C676 C677 1.399 . S
C676 H682 0.929 . S
C677 C657 1.449 . S
C677 C676 1.399 . S
C677 H683 0.930 . S
H678 C658 0.931 . S
H679 C659 0.930 . S
H680 C667 0.931 . S
H681 C668 0.929 . S
H682 C676 0.929 . S
H683 C677 0.930 . S
Mn684 O689 2.095 . S
Mn684 O699 2.162 . S
Mn684 O700 2.297 . S
Mn684 O708 2.385 . S
Mn684 O709 2.209 . S
Mn684 O710 2.094 . S
Mn685 O690 2.121 . S
Mn685 N692 2.257 . S
Mn685 N701 2.282 . S
Mn685 O709 2.215 . S
Mn685 O711 2.117 . S
C686 O708 1.234 . S
C686 O709 1.283 . S
C687 O699 1.281 . S
C687 O700 1.236 . S
C688 O710 1.240 . S
C688 O711 1.264 . S
O689 Mn684 2.095 . S
O689 C698 1.250 . S
O690 Mn685 2.121 . S
O690 C698 1.258 . S
C691 N692 1.326 . S
C691 C695 1.460 . S
C691 H697 0.929 . S
N692 Mn685 2.257 . S
N692 C691 1.326 . S
N692 C696 1.362 . S
C693 C694 1.258 . S
C693 C696 1.431 . S
C693 C713 1.449 . S
C694 C693 1.258 . S
C694 C695 1.477 . S
C694 H714 0.931 . S
C695 C691 1.460 . S
C695 C694 1.477 . S
C695 H715 0.930 . S
C696 N692 1.362 . S
C696 C693 1.431 . S
C696 C706 1.476 . S
H697 C691 0.929 . S
C698 O689 1.250 . S
C698 O690 1.258 . S
O699 Mn684 2.162 . S
O699 C687 1.281 . S
O700 Mn684 2.297 . S
O700 C687 1.236 . S
N701 Mn685 2.282 . S
N701 C702 1.328 . S
N701 C706 1.318 . S
C702 N701 1.328 . S
C702 C703 1.457 . S
C702 H707 0.929 . S
C703 C702 1.457 . S
C703 C704 1.291 . S
C703 H716 0.931 . S
C704 C703 1.291 . S
C704 C705 1.373 . S
C704 H717 0.929 . S
C705 C704 1.373 . S
C705 C706 1.396 . S
C705 C712 1.403 . S
C706 C696 1.476 . S
C706 N701 1.318 . S
C706 C705 1.396 . S
H707 C702 0.929 . S
O708 Mn684 2.385 . S
O708 C686 1.234 . S
O709 Mn684 2.209 . S
O709 Mn685 2.215 . S
O709 C686 1.283 . S
O710 Mn684 2.094 . S
O710 C688 1.240 . S
O711 Mn685 2.117 . S
O711 C688 1.264 . S
C712 C705 1.403 . S
C712 C713 1.399 . S
C712 H718 0.929 1_545 S
C713 C693 1.449 . S
C713 C712 1.399 . S
C713 H719 0.930 . S
H714 C694 0.931 . S
H715 C695 0.930 . S
H716 C703 0.931 . S
H717 C704 0.929 . S
H718 C712 0.929 1_565 S
H719 C713 0.930 . S
Mn720 O725 2.095 . S
Mn720 O735 2.162 . S
Mn720 O736 2.297 . S
Mn720 O744 2.385 . S
Mn720 O745 2.209 . S
Mn720 O746 2.094 . S
Mn721 O726 2.121 . S
Mn721 N728 2.257 1_655 S
Mn721 N737 2.282 1_655 S
Mn721 O745 2.215 . S
Mn721 O747 2.117 . S
C722 O744 1.234 1_455 S
C722 O745 1.283 1_455 S
C723 O735 1.281 . S
C723 O736 1.236 . S
C724 O746 1.240 . S
C724 O747 1.264 . S
O725 Mn720 2.095 . S
O725 C734 1.250 . S
O726 Mn721 2.121 . S
O726 C734 1.258 . S
C727 N728 1.326 1_655 S
C727 C731 1.460 1_655 S
C727 H733 0.929 . S
N728 Mn721 2.257 1_455 S
N728 C727 1.326 1_455 S
N728 C732 1.362 . S
C729 C730 1.258 . S
C729 C732 1.431 . S
C729 C749 1.449 . S
C730 C729 1.258 . S
C730 C731 1.477 . S
C730 H750 0.931 . S
C731 C727 1.460 1_455 S
C731 C730 1.477 . S
C731 H751 0.930 . S
C732 N728 1.362 . S
C732 C729 1.431 . S
C732 C742 1.476 . S
H733 C727 0.929 . S
C734 O725 1.250 . S
C734 O726 1.258 . S
O735 Mn720 2.162 . S
O735 C723 1.281 . S
O736 Mn720 2.297 . S
O736 C723 1.236 . S
N737 Mn721 2.282 1_455 S
N737 C738 1.328 . S
N737 C742 1.318 . S
C738 N737 1.328 . S
C738 C739 1.457 . S
C738 H743 0.929 . S
C739 C738 1.457 . S
C739 C740 1.291 . S
C739 H752 0.931 . S
C740 C739 1.291 . S
C740 C741 1.373 . S
C740 H753 0.929 . S
C741 C740 1.373 . S
C741 C742 1.396 . S
C741 C748 1.403 . S
C742 C732 1.476 . S
C742 N737 1.318 . S
C742 C741 1.396 . S
H743 C738 0.929 . S
O744 Mn720 2.385 . S
O744 C722 1.234 1_655 S
O745 Mn720 2.209 . S
O745 Mn721 2.215 . S
O745 C722 1.283 1_655 S
O746 Mn720 2.094 . S
O746 C724 1.240 . S
O747 Mn721 2.117 . S
O747 C724 1.264 . S
C748 C741 1.403 . S
C748 C749 1.399 . S
C748 H754 0.929 . S
C749 C729 1.449 . S
C749 C748 1.399 . S
C749 H755 0.930 . S
H750 C730 0.931 . S
H751 C731 0.930 . S
H752 C739 0.931 . S
H753 C740 0.929 . S
H754 C748 0.929 . S
H755 C749 0.930 . S
Mn756 O761 2.095 . S
Mn756 O771 2.162 . S
Mn756 O772 2.297 . S
Mn756 O780 2.385 . S
Mn756 O781 2.209 . S
Mn756 O782 2.094 . S
Mn757 O762 2.121 . S
Mn757 N764 2.257 . S
Mn757 N773 2.282 . S
Mn757 O781 2.215 . S
Mn757 O783 2.117 . S
C758 O780 1.234 . S
C758 O781 1.283 . S
C759 O771 1.281 . S
C759 O772 1.236 . S
C760 O782 1.240 . S
C760 O783 1.264 . S
O761 Mn756 2.095 . S
O761 C770 1.250 . S
O762 Mn757 2.121 . S
O762 C770 1.258 . S
C763 N764 1.326 . S
C763 C767 1.460 . S
C763 H769 0.929 . S
N764 Mn757 2.257 . S
N764 C763 1.326 . S
N764 C768 1.362 . S
C765 C766 1.258 . S
C765 C768 1.431 . S
C765 C785 1.449 . S
C766 C765 1.258 . S
C766 C767 1.477 . S
C766 H786 0.931 . S
C767 C763 1.460 . S
C767 C766 1.477 . S
C767 H787 0.930 . S
C768 N764 1.362 . S
C768 C765 1.431 . S
C768 C778 1.476 . S
H769 C763 0.929 . S
C770 O761 1.250 . S
C770 O762 1.258 . S
O771 Mn756 2.162 . S
O771 C759 1.281 . S
O772 Mn756 2.297 . S
O772 C759 1.236 . S
N773 Mn757 2.282 . S
N773 C774 1.328 . S
N773 C778 1.318 . S
C774 N773 1.328 . S
C774 C775 1.457 . S
C774 H779 0.929 . S
C775 C774 1.457 . S
C775 C776 1.291 . S
C775 H788 0.931 . S
C776 C775 1.291 . S
C776 C777 1.373 . S
C776 H789 0.929 . S
C777 C776 1.373 . S
C777 C778 1.396 . S
C777 C784 1.403 . S
C778 C768 1.476 . S
C778 N773 1.318 . S
C778 C777 1.396 . S
H779 C774 0.929 . S
O780 Mn756 2.385 . S
O780 C758 1.234 . S
O781 Mn756 2.209 . S
O781 Mn757 2.215 . S
O781 C758 1.283 . S
O782 Mn756 2.094 . S
O782 C760 1.240 . S
O783 Mn757 2.117 . S
O783 C760 1.264 . S
C784 C777 1.403 . S
C784 C785 1.399 . S
C784 H790 0.929 1_565 S
C785 C765 1.449 . S
C785 C784 1.399 . S
C785 H791 0.930 . S
H786 C766 0.931 . S
H787 C767 0.930 . S
H788 C775 0.931 . S
H789 C776 0.929 . S
H790 C784 0.929 1_545 S
H791 C785 0.930 . S
Mn792 O797 2.095 . S
Mn792 O807 2.162 . S
Mn792 O808 2.297 . S
Mn792 O816 2.385 . S
Mn792 O817 2.209 . S
Mn792 O818 2.094 . S
Mn793 O798 2.121 . S
Mn793 N800 2.257 . S
Mn793 N809 2.282 . S
Mn793 O817 2.215 . S
Mn793 O819 2.117 . S
C794 O816 1.234 . S
C794 O817 1.283 . S
C795 O807 1.281 . S
C795 O808 1.236 . S
C796 O818 1.240 . S
C796 O819 1.264 . S
O797 Mn792 2.095 . S
O797 C806 1.250 . S
O798 Mn793 2.121 . S
O798 C806 1.258 . S
C799 N800 1.326 . S
C799 C803 1.460 . S
C799 H805 0.929 . S
N800 Mn793 2.257 . S
N800 C799 1.326 . S
N800 C804 1.362 . S
C801 C802 1.258 . S
C801 C804 1.431 . S
C801 C821 1.449 . S
C802 C801 1.258 . S
C802 C803 1.477 . S
C802 H822 0.931 . S
C803 C799 1.460 . S
C803 C802 1.477 . S
C803 H823 0.930 . S
C804 N800 1.362 . S
C804 C801 1.431 . S
C804 C814 1.476 . S
H805 C799 0.929 . S
C806 O797 1.250 . S
C806 O798 1.258 . S
O807 Mn792 2.162 . S
O807 C795 1.281 . S
O808 Mn792 2.297 . S
O808 C795 1.236 . S
N809 Mn793 2.282 . S
N809 C810 1.328 . S
N809 C814 1.318 . S
C810 N809 1.328 . S
C810 C811 1.457 . S
C810 H815 0.929 . S
C811 C810 1.457 . S
C811 C812 1.291 . S
C811 H824 0.931 . S
C812 C811 1.291 . S
C812 C813 1.373 . S
C812 H825 0.929 . S
C813 C812 1.373 . S
C813 C814 1.396 . S
C813 C820 1.403 . S
C814 C804 1.476 . S
C814 N809 1.318 . S
C814 C813 1.396 . S
H815 C810 0.929 . S
O816 Mn792 2.385 . S
O816 C794 1.234 . S
O817 Mn792 2.209 . S
O817 Mn793 2.215 . S
O817 C794 1.283 . S
O818 Mn792 2.094 . S
O818 C796 1.240 . S
O819 Mn793 2.117 . S
O819 C796 1.264 . S
C820 C813 1.403 . S
C820 C821 1.399 . S
C820 H826 0.929 . S
C821 C801 1.449 . S
C821 C820 1.399 . S
C821 H827 0.930 . S
H822 C802 0.931 . S
H823 C803 0.930 . S
H824 C811 0.931 . S
H825 C812 0.929 . S
H826 C820 0.929 . S
H827 C821 0.930 . S
Mn828 O833 2.095 . S
Mn828 O843 2.162 . S
Mn828 O844 2.297 . S
Mn828 O852 2.385 . S
Mn828 O853 2.209 . S
Mn828 O854 2.094 . S
Mn829 O834 2.121 . S
Mn829 N836 2.257 . S
Mn829 N845 2.282 . S
Mn829 O853 2.215 . S
Mn829 O855 2.117 . S
C830 O852 1.234 . S
C830 O853 1.283 . S
C831 O843 1.281 . S
C831 O844 1.236 . S
C832 O854 1.240 . S
C832 O855 1.264 . S
O833 Mn828 2.095 . S
O833 C842 1.250 . S
O834 Mn829 2.121 . S
O834 C842 1.258 . S
C835 N836 1.326 . S
C835 C839 1.460 . S
C835 H841 0.929 . S
N836 Mn829 2.257 . S
N836 C835 1.326 . S
N836 C840 1.362 . S
C837 C838 1.258 . S
C837 C840 1.431 . S
C837 C857 1.449 . S
C838 C837 1.258 . S
C838 C839 1.477 . S
C838 H858 0.931 . S
C839 C835 1.460 . S
C839 C838 1.477 . S
C839 H859 0.930 . S
C840 N836 1.362 . S
C840 C837 1.431 . S
C840 C850 1.476 . S
H841 C835 0.929 . S
C842 O833 1.250 . S
C842 O834 1.258 . S
O843 Mn828 2.162 . S
O843 C831 1.281 . S
O844 Mn828 2.297 . S
O844 C831 1.236 . S
N845 Mn829 2.282 . S
N845 C846 1.328 . S
N845 C850 1.318 . S
C846 N845 1.328 . S
C846 C847 1.457 . S
C846 H851 0.929 . S
C847 C846 1.457 . S
C847 C848 1.291 . S
C847 H860 0.931 . S
C848 C847 1.291 . S
C848 C849 1.373 . S
C848 H861 0.929 . S
C849 C848 1.373 . S
C849 C850 1.396 . S
C849 C856 1.403 . S
C850 C840 1.476 . S
C850 N845 1.318 . S
C850 C849 1.396 . S
H851 C846 0.929 . S
O852 Mn828 2.385 . S
O852 C830 1.234 . S
O853 Mn828 2.209 . S
O853 Mn829 2.215 . S
O853 C830 1.283 . S
O854 Mn828 2.094 . S
O854 C832 1.240 . S
O855 Mn829 2.117 . S
O855 C832 1.264 . S
C856 C849 1.403 . S
C856 C857 1.399 . S
C856 H862 0.929 1_545 S
C857 C837 1.449 . S
C857 C856 1.399 . S
C857 H863 0.930 . S
H858 C838 0.931 . S
H859 C839 0.930 . S
H860 C847 0.931 . S
H861 C848 0.929 . S
H862 C856 0.929 1_565 S
H863 C857 0.930 . S
Mn864 O869 2.095 . S
Mn864 O879 2.162 . S
Mn864 O880 2.297 . S
Mn864 O888 2.385 . S
Mn864 O889 2.209 . S
Mn864 O890 2.094 . S
Mn865 O870 2.121 . S
Mn865 N872 2.257 1_455 S
Mn865 N881 2.282 1_455 S
Mn865 O889 2.215 . S
Mn865 O891 2.117 . S
C866 O888 1.234 1_655 S
C866 O889 1.283 1_655 S
C867 O879 1.281 . S
C867 O880 1.236 . S
C868 O890 1.240 . S
C868 O891 1.264 . S
O869 Mn864 2.095 . S
O869 C878 1.250 . S
O870 Mn865 2.121 . S
O870 C878 1.258 . S
C871 N872 1.326 1_455 S
C871 C875 1.460 1_455 S
C871 H877 0.929 . S
N872 Mn865 2.257 1_655 S
N872 C871 1.326 1_655 S
N872 C876 1.362 . S
C873 C874 1.258 . S
C873 C876 1.431 . S
C873 C893 1.449 . S
C874 C873 1.258 . S
C874 C875 1.477 . S
C874 H894 0.931 . S
C875 C871 1.460 1_655 S
C875 C874 1.477 . S
C875 H895 0.930 . S
C876 N872 1.362 . S
C876 C873 1.431 . S
C876 C886 1.476 . S
H877 C871 0.929 . S
C878 O869 1.250 . S
C878 O870 1.258 . S
O879 Mn864 2.162 . S
O879 C867 1.281 . S
O880 Mn864 2.297 . S
O880 C867 1.236 . S
N881 Mn865 2.282 1_655 S
N881 C882 1.328 . S
N881 C886 1.318 . S
C882 N881 1.328 . S
C882 C883 1.457 . S
C882 H887 0.929 . S
C883 C882 1.457 . S
C883 C884 1.291 . S
C883 H896 0.931 . S
C884 C883 1.291 . S
C884 C885 1.373 . S
C884 H897 0.929 . S
C885 C884 1.373 . S
C885 C886 1.396 . S
C885 C892 1.403 . S
C886 C876 1.476 . S
C886 N881 1.318 . S
C886 C885 1.396 . S
H887 C882 0.929 . S
O888 Mn864 2.385 . S
O888 C866 1.234 1_455 S
O889 Mn864 2.209 . S
O889 Mn865 2.215 . S
O889 C866 1.283 1_455 S
O890 Mn864 2.094 . S
O890 C868 1.240 . S
O891 Mn865 2.117 . S
O891 C868 1.264 . S
C892 C885 1.403 . S
C892 C893 1.399 . S
C892 H898 0.929 . S
C893 C873 1.449 . S
C893 C892 1.399 . S
C893 H899 0.930 . S
H894 C874 0.931 . S
H895 C875 0.930 . S
H896 C883 0.931 . S
H897 C884 0.929 . S
H898 C892 0.929 . S
H899 C893 0.930 . S
Mn900 O905 2.095 . S
Mn900 O915 2.162 . S
Mn900 O916 2.297 . S
Mn900 O924 2.385 . S
Mn900 O925 2.209 . S
Mn900 O926 2.094 . S
Mn901 O906 2.121 . S
Mn901 N908 2.257 . S
Mn901 N917 2.282 . S
Mn901 O925 2.215 . S
Mn901 O927 2.117 . S
C902 O924 1.234 . S
C902 O925 1.283 . S
C903 O915 1.281 . S
C903 O916 1.236 . S
C904 O926 1.240 . S
C904 O927 1.264 . S
O905 Mn900 2.095 . S
O905 C914 1.250 . S
O906 Mn901 2.121 . S
O906 C914 1.258 . S
C907 N908 1.326 . S
C907 C911 1.460 . S
C907 H913 0.929 . S
N908 Mn901 2.257 . S
N908 C907 1.326 . S
N908 C912 1.362 . S
C909 C910 1.258 . S
C909 C912 1.431 . S
C909 C929 1.449 . S
C910 C909 1.258 . S
C910 C911 1.477 . S
C910 H930 0.931 . S
C911 C907 1.460 . S
C911 C910 1.477 . S
C911 H931 0.930 . S
C912 N908 1.362 . S
C912 C909 1.431 . S
C912 C922 1.476 . S
H913 C907 0.929 . S
C914 O905 1.250 . S
C914 O906 1.258 . S
O915 Mn900 2.162 . S
O915 C903 1.281 . S
O916 Mn900 2.297 . S
O916 C903 1.236 . S
N917 Mn901 2.282 . S
N917 C918 1.328 . S
N917 C922 1.318 . S
C918 N917 1.328 . S
C918 C919 1.457 . S
C918 H923 0.929 . S
C919 C918 1.457 . S
C919 C920 1.291 . S
C919 H932 0.931 . S
C920 C919 1.291 . S
C920 C921 1.373 . S
C920 H933 0.929 . S
C921 C920 1.373 . S
C921 C922 1.396 . S
C921 C928 1.403 . S
C922 C912 1.476 . S
C922 N917 1.318 . S
C922 C921 1.396 . S
H923 C918 0.929 . S
O924 Mn900 2.385 . S
O924 C902 1.234 . S
O925 Mn900 2.209 . S
O925 Mn901 2.215 . S
O925 C902 1.283 . S
O926 Mn900 2.094 . S
O926 C904 1.240 . S
O927 Mn901 2.117 . S
O927 C904 1.264 . S
C928 C921 1.403 . S
C928 C929 1.399 . S
C928 H934 0.929 1_545 S
C929 C909 1.449 . S
C929 C928 1.399 . S
C929 H935 0.930 . S
H930 C910 0.931 . S
H931 C911 0.930 . S
H932 C919 0.931 . S
H933 C920 0.929 . S
H934 C928 0.929 1_565 S
H935 C929 0.930 . S
Mn936 O941 2.095 . S
Mn936 O951 2.162 . S
Mn936 O952 2.297 . S
Mn936 O960 2.385 . S
Mn936 O961 2.209 . S
Mn936 O962 2.094 . S
Mn937 O942 2.121 . S
Mn937 N944 2.257 . S
Mn937 N953 2.282 . S
Mn937 O961 2.215 . S
Mn937 O963 2.117 . S
C938 O960 1.234 . S
C938 O961 1.283 . S
C939 O951 1.281 . S
C939 O952 1.236 . S
C940 O962 1.240 . S
C940 O963 1.264 . S
O941 Mn936 2.095 . S
O941 C950 1.250 . S
O942 Mn937 2.121 . S
O942 C950 1.258 . S
C943 N944 1.326 . S
C943 C947 1.460 . S
C943 H949 0.929 . S
N944 Mn937 2.257 . S
N944 C943 1.326 . S
N944 C948 1.362 . S
C945 C946 1.258 . S
C945 C948 1.431 . S
C945 C965 1.449 . S
C946 C945 1.258 . S
C946 C947 1.477 . S
C946 H966 0.931 . S
C947 C943 1.460 . S
C947 C946 1.477 . S
C947 H967 0.930 . S
C948 N944 1.362 . S
C948 C945 1.431 . S
C948 C958 1.476 . S
H949 C943 0.929 . S
C950 O941 1.250 . S
C950 O942 1.258 . S
O951 Mn936 2.162 . S
O951 C939 1.281 . S
O952 Mn936 2.297 . S
O952 C939 1.236 . S
N953 Mn937 2.282 . S
N953 C954 1.328 . S
N953 C958 1.318 . S
C954 N953 1.328 . S
C954 C955 1.457 . S
C954 H959 0.929 . S
C955 C954 1.457 . S
C955 C956 1.291 . S
C955 H968 0.931 . S
C956 C955 1.291 . S
C956 C957 1.373 . S
C956 H969 0.929 . S
C957 C956 1.373 . S
C957 C958 1.396 . S
C957 C964 1.403 . S
C958 C948 1.476 . S
C958 N953 1.318 . S
C958 C957 1.396 . S
H959 C954 0.929 . S
O960 Mn936 2.385 . S
O960 C938 1.234 . S
O961 Mn936 2.209 . S
O961 Mn937 2.215 . S
O961 C938 1.283 . S
O962 Mn936 2.094 . S
O962 C940 1.240 . S
O963 Mn937 2.117 . S
O963 C940 1.264 . S
C964 C957 1.403 . S
C964 C965 1.399 . S
C964 H970 0.929 . S
C965 C945 1.449 . S
C965 C964 1.399 . S
C965 H971 0.930 . S
H966 C946 0.931 . S
H967 C947 0.930 . S
H968 C955 0.931 . S
H969 C956 0.929 . S
H970 C964 0.929 . S
H971 C965 0.930 . S
Mn972 O977 2.095 . S
Mn972 O987 2.162 . S
Mn972 O988 2.297 . S
Mn972 O996 2.385 . S
Mn972 O997 2.209 . S
Mn972 O998 2.094 . S
Mn973 O978 2.121 . S
Mn973 N980 2.257 . S
Mn973 N989 2.282 . S
Mn973 O997 2.215 . S
Mn973 O999 2.117 . S
C974 O996 1.234 . S
C974 O997 1.283 . S
C975 O987 1.281 . S
C975 O988 1.236 . S
C976 O998 1.240 . S
C976 O999 1.264 . S
O977 Mn972 2.095 . S
O977 C986 1.250 . S
O978 Mn973 2.121 . S
O978 C986 1.258 . S
C979 N980 1.326 . S
C979 C983 1.460 . S
C979 H985 0.929 . S
N980 Mn973 2.257 . S
N980 C979 1.326 . S
N980 C984 1.362 . S
C981 C982 1.258 . S
C981 C984 1.431 . S
C981 C1001 1.449 . S
C982 C981 1.258 . S
C982 C983 1.477 . S
C982 H1002 0.931 . S
C983 C979 1.460 . S
C983 C982 1.477 . S
C983 H1003 0.930 . S
C984 N980 1.362 . S
C984 C981 1.431 . S
C984 C994 1.476 . S
H985 C979 0.929 . S
C986 O977 1.250 . S
C986 O978 1.258 . S
O987 Mn972 2.162 . S
O987 C975 1.281 . S
O988 Mn972 2.297 . S
O988 C975 1.236 . S
N989 Mn973 2.282 . S
N989 C990 1.328 . S
N989 C994 1.318 . S
C990 N989 1.328 . S
C990 C991 1.457 . S
C990 H995 0.929 . S
C991 C990 1.457 . S
C991 C992 1.291 . S
C991 H1004 0.931 . S
C992 C991 1.291 . S
C992 C993 1.373 . S
C992 H1005 0.929 . S
C993 C992 1.373 . S
C993 C994 1.396 . S
C993 C1000 1.403 . S
C994 C984 1.476 . S
C994 N989 1.318 . S
C994 C993 1.396 . S
H995 C990 0.929 . S
O996 Mn972 2.385 . S
O996 C974 1.234 . S
O997 Mn972 2.209 . S
O997 Mn973 2.215 . S
O997 C974 1.283 . S
O998 Mn972 2.094 . S
O998 C976 1.240 . S
O999 Mn973 2.117 . S
O999 C976 1.264 . S
C1000 C993 1.403 . S
C1000 C1001 1.399 . S
C1000 H1006 0.929 1_565 S
C1001 C981 1.449 . S
C1001 C1000 1.399 . S
C1001 H1007 0.930 . S
H1002 C982 0.931 . S
H1003 C983 0.930 . S
H1004 C991 0.931 . S
H1005 C992 0.929 . S
H1006 C1000 0.929 1_545 S
H1007 C1001 0.930 . S
Mn1008 O1013 2.095 . S
Mn1008 O1023 2.162 . S
Mn1008 O1024 2.297 . S
Mn1008 O1032 2.385 . S
Mn1008 O1033 2.209 . S
Mn1008 O1034 2.094 . S
Mn1009 O1014 2.121 . S
Mn1009 N1016 2.257 1_455 S
Mn1009 N1025 2.282 1_455 S
Mn1009 O1033 2.215 . S
Mn1009 O1035 2.117 . S
C1010 O1032 1.234 1_655 S
C1010 O1033 1.283 1_655 S
C1011 O1023 1.281 . S
C1011 O1024 1.236 . S
C1012 O1034 1.240 . S
C1012 O1035 1.264 . S
O1013 Mn1008 2.095 . S
O1013 C1022 1.250 . S
O1014 Mn1009 2.121 . S
O1014 C1022 1.258 . S
C1015 N1016 1.326 1_455 S
C1015 C1019 1.460 1_455 S
C1015 H1021 0.929 . S
N1016 Mn1009 2.257 1_655 S
N1016 C1015 1.326 1_655 S
N1016 C1020 1.362 . S
C1017 C1018 1.258 . S
C1017 C1020 1.431 . S
C1017 C1037 1.449 . S
C1018 C1017 1.258 . S
C1018 C1019 1.477 . S
C1018 H1038 0.931 . S
C1019 C1015 1.460 1_655 S
C1019 C1018 1.477 . S
C1019 H1039 0.930 . S
C1020 N1016 1.362 . S
C1020 C1017 1.431 . S
C1020 C1030 1.476 . S
H1021 C1015 0.929 . S
C1022 O1013 1.250 . S
C1022 O1014 1.258 . S
O1023 Mn1008 2.162 . S
O1023 C1011 1.281 . S
O1024 Mn1008 2.297 . S
O1024 C1011 1.236 . S
N1025 Mn1009 2.282 1_655 S
N1025 C1026 1.328 . S
N1025 C1030 1.318 . S
C1026 N1025 1.328 . S
C1026 C1027 1.457 . S
C1026 H1031 0.929 . S
C1027 C1026 1.457 . S
C1027 C1028 1.291 . S
C1027 H1040 0.931 . S
C1028 C1027 1.291 . S
C1028 C1029 1.373 . S
C1028 H1041 0.929 . S
C1029 C1028 1.373 . S
C1029 C1030 1.396 . S
C1029 C1036 1.403 . S
C1030 C1020 1.476 . S
C1030 N1025 1.318 . S
C1030 C1029 1.396 . S
H1031 C1026 0.929 . S
O1032 Mn1008 2.385 . S
O1032 C1010 1.234 1_455 S
O1033 Mn1008 2.209 . S
O1033 Mn1009 2.215 . S
O1033 C1010 1.283 1_455 S
O1034 Mn1008 2.094 . S
O1034 C1012 1.240 . S
O1035 Mn1009 2.117 . S
O1035 C1012 1.264 . S
C1036 C1029 1.403 . S
C1036 C1037 1.399 . S
C1036 H1042 0.929 . S
C1037 C1017 1.449 . S
C1037 C1036 1.399 . S
C1037 H1043 0.930 . S
H1038 C1018 0.931 . S
H1039 C1019 0.930 . S
H1040 C1027 0.931 . S
H1041 C1028 0.929 . S
H1042 C1036 0.929 . S
H1043 C1037 0.930 . S
Mn1044 O1049 2.095 . S
Mn1044 O1059 2.162 . S
Mn1044 O1060 2.297 . S
Mn1044 O1068 2.385 . S
Mn1044 O1069 2.209 . S
Mn1044 O1070 2.094 . S
Mn1045 O1050 2.121 . S
Mn1045 N1052 2.257 . S
Mn1045 N1061 2.282 . S
Mn1045 O1069 2.215 . S
Mn1045 O1071 2.117 . S
C1046 O1068 1.234 . S
C1046 O1069 1.283 . S
C1047 O1059 1.281 . S
C1047 O1060 1.236 . S
C1048 O1070 1.240 . S
C1048 O1071 1.264 . S
O1049 Mn1044 2.095 . S
O1049 C1058 1.250 . S
O1050 Mn1045 2.121 . S
O1050 C1058 1.258 . S
C1051 N1052 1.326 . S
C1051 C1055 1.460 . S
C1051 H1057 0.929 . S
N1052 Mn1045 2.257 . S
N1052 C1051 1.326 . S
N1052 C1056 1.362 . S
C1053 C1054 1.258 . S
C1053 C1056 1.431 . S
C1053 C1073 1.449 . S
C1054 C1053 1.258 . S
C1054 C1055 1.477 . S
C1054 H1074 0.931 . S
C1055 C1051 1.460 . S
C1055 C1054 1.477 . S
C1055 H1075 0.930 . S
C1056 N1052 1.362 . S
C1056 C1053 1.431 . S
C1056 C1066 1.476 . S
H1057 C1051 0.929 . S
C1058 O1049 1.250 . S
C1058 O1050 1.258 . S
O1059 Mn1044 2.162 . S
O1059 C1047 1.281 . S
O1060 Mn1044 2.297 . S
O1060 C1047 1.236 . S
N1061 Mn1045 2.282 . S
N1061 C1062 1.328 . S
N1061 C1066 1.318 . S
C1062 N1061 1.328 . S
C1062 C1063 1.457 . S
C1062 H1067 0.929 . S
C1063 C1062 1.457 . S
C1063 C1064 1.291 . S
C1063 H1076 0.931 . S
C1064 C1063 1.291 . S
C1064 C1065 1.373 . S
C1064 H1077 0.929 . S
C1065 C1064 1.373 . S
C1065 C1066 1.396 . S
C1065 C1072 1.403 . S
C1066 C1056 1.476 . S
C1066 N1061 1.318 . S
C1066 C1065 1.396 . S
H1067 C1062 0.929 . S
O1068 Mn1044 2.385 . S
O1068 C1046 1.234 . S
O1069 Mn1044 2.209 . S
O1069 Mn1045 2.215 . S
O1069 C1046 1.283 . S
O1070 Mn1044 2.094 . S
O1070 C1048 1.240 . S
O1071 Mn1045 2.117 . S
O1071 C1048 1.264 . S
C1072 C1065 1.403 . S
C1072 C1073 1.399 . S
C1072 H1078 0.929 1_545 S
C1073 C1053 1.449 . S
C1073 C1072 1.399 . S
C1073 H1079 0.930 . S
H1074 C1054 0.931 . S
H1075 C1055 0.930 . S
H1076 C1063 0.931 . S
H1077 C1064 0.929 . S
H1078 C1072 0.929 1_565 S
H1079 C1073 0.930 . S
Mn1080 O1085 2.095 . S
Mn1080 O1095 2.162 . S
Mn1080 O1096 2.297 . S
Mn1080 O1104 2.385 . S
Mn1080 O1105 2.209 . S
Mn1080 O1106 2.094 . S
Mn1081 O1086 2.121 . S
Mn1081 N1088 2.257 . S
Mn1081 N1097 2.282 . S
Mn1081 O1105 2.215 . S
Mn1081 O1107 2.117 . S
C1082 O1104 1.234 . S
C1082 O1105 1.283 . S
C1083 O1095 1.281 . S
C1083 O1096 1.236 . S
C1084 O1106 1.240 . S
C1084 O1107 1.264 . S
O1085 Mn1080 2.095 . S
O1085 C1094 1.250 . S
O1086 Mn1081 2.121 . S
O1086 C1094 1.258 . S
C1087 N1088 1.326 . S
C1087 C1091 1.460 . S
C1087 H1093 0.929 . S
N1088 Mn1081 2.257 . S
N1088 C1087 1.326 . S
N1088 C1092 1.362 . S
C1089 C1090 1.258 . S
C1089 C1092 1.431 . S
C1089 C1109 1.449 . S
C1090 C1089 1.258 . S
C1090 C1091 1.477 . S
C1090 H1110 0.931 . S
C1091 C1087 1.460 . S
C1091 C1090 1.477 . S
C1091 H1111 0.930 . S
C1092 N1088 1.362 . S
C1092 C1089 1.431 . S
C1092 C1102 1.476 . S
H1093 C1087 0.929 . S
C1094 O1085 1.250 . S
C1094 O1086 1.258 . S
O1095 Mn1080 2.162 . S
O1095 C1083 1.281 . S
O1096 Mn1080 2.297 . S
O1096 C1083 1.236 . S
N1097 Mn1081 2.282 . S
N1097 C1098 1.328 . S
N1097 C1102 1.318 . S
C1098 N1097 1.328 . S
C1098 C1099 1.457 . S
C1098 H1103 0.929 . S
C1099 C1098 1.457 . S
C1099 C1100 1.291 . S
C1099 H1112 0.931 . S
C1100 C1099 1.291 . S
C1100 C1101 1.373 . S
C1100 H1113 0.929 . S
C1101 C1100 1.373 . S
C1101 C1102 1.396 . S
C1101 C1108 1.403 . S
C1102 C1092 1.476 . S
C1102 N1097 1.318 . S
C1102 C1101 1.396 . S
H1103 C1098 0.929 . S
O1104 Mn1080 2.385 . S
O1104 C1082 1.234 . S
O1105 Mn1080 2.209 . S
O1105 Mn1081 2.215 . S
O1105 C1082 1.283 . S
O1106 Mn1080 2.094 . S
O1106 C1084 1.240 . S
O1107 Mn1081 2.117 . S
O1107 C1084 1.264 . S
C1108 C1101 1.403 . S
C1108 C1109 1.399 . S
C1108 H1114 0.929 . S
C1109 C1089 1.449 . S
C1109 C1108 1.399 . S
C1109 H1115 0.930 . S
H1110 C1090 0.931 . S
H1111 C1091 0.930 . S
H1112 C1099 0.931 . S
H1113 C1100 0.929 . S
H1114 C1108 0.929 . S
H1115 C1109 0.930 . S
Mn1116 O1121 2.095 . S
Mn1116 O1131 2.162 . S
Mn1116 O1132 2.297 . S
Mn1116 O1140 2.385 . S
Mn1116 O1141 2.209 . S
Mn1116 O1142 2.094 . S
Mn1117 O1122 2.121 . S
Mn1117 N1124 2.257 . S
Mn1117 N1133 2.282 . S
Mn1117 O1141 2.215 . S
Mn1117 O1143 2.117 . S
C1118 O1140 1.234 . S
C1118 O1141 1.283 . S
C1119 O1131 1.281 . S
C1119 O1132 1.236 . S
C1120 O1142 1.240 . S
C1120 O1143 1.264 . S
O1121 Mn1116 2.095 . S
O1121 C1130 1.250 . S
O1122 Mn1117 2.121 . S
O1122 C1130 1.258 . S
C1123 N1124 1.326 . S
C1123 C1127 1.460 . S
C1123 H1129 0.929 . S
N1124 Mn1117 2.257 . S
N1124 C1123 1.326 . S
N1124 C1128 1.362 . S
C1125 C1126 1.258 . S
C1125 C1128 1.431 . S
C1125 C1145 1.449 . S
C1126 C1125 1.258 . S
C1126 C1127 1.477 . S
C1126 H1146 0.931 . S
C1127 C1123 1.460 . S
C1127 C1126 1.477 . S
C1127 H1147 0.930 . S
C1128 N1124 1.362 . S
C1128 C1125 1.431 . S
C1128 C1138 1.476 . S
H1129 C1123 0.929 . S
C1130 O1121 1.250 . S
C1130 O1122 1.258 . S
O1131 Mn1116 2.162 . S
O1131 C1119 1.281 . S
O1132 Mn1116 2.297 . S
O1132 C1119 1.236 . S
N1133 Mn1117 2.282 . S
N1133 C1134 1.328 . S
N1133 C1138 1.318 . S
C1134 N1133 1.328 . S
C1134 C1135 1.457 . S
C1134 H1139 0.929 . S
C1135 C1134 1.457 . S
C1135 C1136 1.291 . S
C1135 H1148 0.931 . S
C1136 C1135 1.291 . S
C1136 C1137 1.373 . S
C1136 H1149 0.929 . S
C1137 C1136 1.373 . S
C1137 C1138 1.396 . S
C1137 C1144 1.403 . S
C1138 C1128 1.476 . S
C1138 N1133 1.318 . S
C1138 C1137 1.396 . S
H1139 C1134 0.929 . S
O1140 Mn1116 2.385 . S
O1140 C1118 1.234 . S
O1141 Mn1116 2.209 . S
O1141 Mn1117 2.215 . S
O1141 C1118 1.283 . S
O1142 Mn1116 2.094 . S
O1142 C1120 1.240 . S
O1143 Mn1117 2.117 . S
O1143 C1120 1.264 . S
C1144 C1137 1.403 . S
C1144 C1145 1.399 . S
C1144 H1150 0.929 1_565 S
C1145 C1125 1.449 . S
C1145 C1144 1.399 . S
C1145 H1151 0.930 . S
H1146 C1126 0.931 . S
H1147 C1127 0.930 . S
H1148 C1135 0.931 . S
H1149 C1136 0.929 . S
H1150 C1144 0.929 1_545 S
H1151 C1145 0.930 . S
C148 C4 1.547 1_565 S
C184 C40 1.547 . S
C220 C76 1.547 1_545 S
C112 C256 1.547 1_556 S
C292 C436 1.547 1_565 S
C472 C328 1.547 . S
C364 C508 1.547 1_545 S
C544 C400 1.547 1_556 S
C580 C724 1.547 . S
C760 C616 1.547 1_554 S
C796 C652 1.547 . S
C832 C688 1.547 . S
C868 C1012 1.547 . S
C904 C1048 1.547 1_554 S
C940 C1084 1.547 . S
C976 C1120 1.547 . S
C14 C266 0.992 . S
C50 C158 0.992 . S
C86 C194 0.992 . S
C230 C122 0.992 . S
C554 C302 0.992 . S
C446 C338 0.992 . S
C482 C374 0.992 . S
C410 C518 0.992 . S
C842 C590 0.992 . S
C734 C626 0.992 . S
C770 C662 0.992 . S
C698 C806 0.992 . S
C878 C1130 0.992 . S
C914 C1022 0.992 . S
C950 C1058 0.992 . S
C1094 C986 0.992 . S
C3 C902 1.463 . S
C39 C362 1.463 . S
C75 C974 1.463 . S
C290 C111 1.463 . S
C1118 C147 1.463 . S
C183 C434 1.463 . S
C219 C1046 1.463 . S
C255 C506 1.463 . S
C614 C291 1.463 . S
C74 C327 1.463 . S
C686 C363 1.463 . S
C399 C2 1.463 . S
C830 C435 1.463 . S
C146 C471 1.463 . S
C758 C507 1.463 . S
C218 C543 1.463 . S
C326 C579 1.463 . S
C615 C938 1.463 . S
C651 C398 1.463 . S
C687 C866 1.463 . S
C723 C542 1.463 . S
C1010 C759 1.463 . S
C795 C470 1.463 . S
C831 C1082 1.463 . S
C867 C38 1.463 . S
C903 C650 1.463 . S
C110 C939 1.463 . S
C578 C975 1.463 . S
C1011 C254 1.463 . S
C1047 C722 1.463 . S
C182 C1083 1.463 . S
C794 C1119 1.463 . S
