# Generated by pormake.
# Topology pcu-i, (5)-cn, num edge types: 1
# Building blocks:
#     Node 0, Type 0, BuildingBlock: XOMCOT_clean_sbu_1, # of connection points: 5
#     Node 1, Type 0, BuildingBlock: XOMCOT_clean_sbu_1, # of connection points: 5
#     Node 2, Type 0, BuildingBlock: XOMCOT_clean_sbu_1, # of connection points: 5
#     Node 3, Type 0, BuildingBlock: XOMCOT_clean_sbu_1, # of connection points: 5
#     Node 4, Type 0, BuildingBlock: XOMCOT_clean_sbu_1, # of connection points: 5
#     Node 5, Type 0, BuildingBlock: XOMCOT_clean_sbu_1, # of connection points: 5
#     Node 6, Type 0, BuildingBlock: XOMCOT_clean_sbu_1, # of connection points: 5
#     Node 7, Type 0, BuildingBlock: XOMCOT_clean_sbu_1, # of connection points: 5
#     Node 8, Type 0, BuildingBlock: XOMCOT_clean_sbu_1, # of connection points: 5
#     Node 9, Type 0, BuildingBlock: XOMCOT_clean_sbu_1, # of connection points: 5
#     Node 10, Type 0, BuildingBlock: XOMCOT_clean_sbu_1, # of connection points: 5
#     Node 11, Type 0, BuildingBlock: XOMCOT_clean_sbu_1, # of connection points: 5
#     Node 12, Type 0, BuildingBlock: XOMCOT_clean_sbu_1, # of connection points: 5
#     Node 13, Type 0, BuildingBlock: XOMCOT_clean_sbu_1, # of connection points: 5
#     Node 14, Type 0, BuildingBlock: XOMCOT_clean_sbu_1, # of connection points: 5
#     Node 15, Type 0, BuildingBlock: XOMCOT_clean_sbu_1, # of connection points: 5
#     Node 16, Type 0, BuildingBlock: XOMCOT_clean_sbu_1, # of connection points: 5
#     Node 17, Type 0, BuildingBlock: XOMCOT_clean_sbu_1, # of connection points: 5
#     Node 18, Type 0, BuildingBlock: XOMCOT_clean_sbu_1, # of connection points: 5
#     Node 19, Type 0, BuildingBlock: XOMCOT_clean_sbu_1, # of connection points: 5
#     Node 20, Type 0, BuildingBlock: XOMCOT_clean_sbu_1, # of connection points: 5
#     Node 21, Type 0, BuildingBlock: XOMCOT_clean_sbu_1, # of connection points: 5
#     Node 22, Type 0, BuildingBlock: XOMCOT_clean_sbu_1, # of connection points: 5
#     Node 23, Type 0, BuildingBlock: XOMCOT_clean_sbu_1, # of connection points: 5
#     Edge 24, Type (0, 0), BuildingBlock: ZUJKAS_clean_linker_0, # of connection points: 2
#     Edge 25, Type (0, 0), BuildingBlock: ZUJKAS_clean_linker_0, # of connection points: 2
#     Edge 26, Type (0, 0), BuildingBlock: ZUJKAS_clean_linker_0, # of connection points: 2
#     Edge 27, Type (0, 0), BuildingBlock: ZUJKAS_clean_linker_0, # of connection points: 2
#     Edge 28, Type (0, 0), BuildingBlock: ZUJKAS_clean_linker_0, # of connection points: 2
#     Edge 29, Type (0, 0), BuildingBlock: ZUJKAS_clean_linker_0, # of connection points: 2
#     Edge 30, Type (0, 0), BuildingBlock: ZUJKAS_clean_linker_0, # of connection points: 2
#     Edge 31, Type (0, 0), BuildingBlock: ZUJKAS_clean_linker_0, # of connection points: 2
#     Edge 32, Type (0, 0), BuildingBlock: ZUJKAS_clean_linker_0, # of connection points: 2
#     Edge 33, Type (0, 0), BuildingBlock: ZUJKAS_clean_linker_0, # of connection points: 2
#     Edge 34, Type (0, 0), BuildingBlock: ZUJKAS_clean_linker_0, # of connection points: 2
#     Edge 35, Type (0, 0), BuildingBlock: ZUJKAS_clean_linker_0, # of connection points: 2
#     Edge 36, Type (0, 0), BuildingBlock: ZUJKAS_clean_linker_0, # of connection points: 2
#     Edge 37, Type (0, 0), BuildingBlock: ZUJKAS_clean_linker_0, # of connection points: 2
#     Edge 38, Type (0, 0), BuildingBlock: ZUJKAS_clean_linker_0, # of connection points: 2
#     Edge 39, Type (0, 0), BuildingBlock: ZUJKAS_clean_linker_0, # of connection points: 2
#     Edge 40, Type (0, 0), BuildingBlock: ZUJKAS_clean_linker_0, # of connection points: 2
#     Edge 41, Type (0, 0), BuildingBlock: ZUJKAS_clean_linker_0, # of connection points: 2
#     Edge 42, Type (0, 0), BuildingBlock: ZUJKAS_clean_linker_0, # of connection points: 2
#     Edge 43, Type (0, 0), BuildingBlock: ZUJKAS_clean_linker_0, # of connection points: 2
#     Edge 44, Type (0, 0), BuildingBlock: ZUJKAS_clean_linker_0, # of connection points: 2
#     Edge 45, Type (0, 0), BuildingBlock: ZUJKAS_clean_linker_0, # of connection points: 2
#     Edge 46, Type (0, 0), BuildingBlock: ZUJKAS_clean_linker_0, # of connection points: 2
#     Edge 47, Type (0, 0), BuildingBlock: ZUJKAS_clean_linker_0, # of connection points: 2
#     Edge 48, Type (0, 0), BuildingBlock: ZUJKAS_clean_linker_0, # of connection points: 2
#     Edge 49, Type (0, 0), BuildingBlock: ZUJKAS_clean_linker_0, # of connection points: 2
#     Edge 50, Type (0, 0), BuildingBlock: ZUJKAS_clean_linker_0, # of connection points: 2
#     Edge 51, Type (0, 0), BuildingBlock: ZUJKAS_clean_linker_0, # of connection points: 2
#     Edge 52, Type (0, 0), BuildingBlock: ZUJKAS_clean_linker_0, # of connection points: 2
#     Edge 53, Type (0, 0), BuildingBlock: ZUJKAS_clean_linker_0, # of connection points: 2
#     Edge 54, Type (0, 0), BuildingBlock: ZUJKAS_clean_linker_0, # of connection points: 2
#     Edge 55, Type (0, 0), BuildingBlock: ZUJKAS_clean_linker_0, # of connection points: 2
#     Edge 56, Type (0, 0), BuildingBlock: ZUJKAS_clean_linker_0, # of connection points: 2
#     Edge 57, Type (0, 0), BuildingBlock: ZUJKAS_clean_linker_0, # of connection points: 2
#     Edge 58, Type (0, 0), BuildingBlock: ZUJKAS_clean_linker_0, # of connection points: 2
#     Edge 59, Type (0, 0), BuildingBlock: ZUJKAS_clean_linker_0, # of connection points: 2
#     Edge 60, Type (0, 0), BuildingBlock: ZUJKAS_clean_linker_0, # of connection points: 2
#     Edge 61, Type (0, 0), BuildingBlock: ZUJKAS_clean_linker_0, # of connection points: 2
#     Edge 62, Type (0, 0), BuildingBlock: ZUJKAS_clean_linker_0, # of connection points: 2
#     Edge 63, Type (0, 0), BuildingBlock: ZUJKAS_clean_linker_0, # of connection points: 2
#     Edge 64, Type (0, 0), BuildingBlock: ZUJKAS_clean_linker_0, # of connection points: 2
#     Edge 65, Type (0, 0), BuildingBlock: ZUJKAS_clean_linker_0, # of connection points: 2
#     Edge 66, Type (0, 0), BuildingBlock: ZUJKAS_clean_linker_0, # of connection points: 2
#     Edge 67, Type (0, 0), BuildingBlock: ZUJKAS_clean_linker_0, # of connection points: 2
#     Edge 68, Type (0, 0), BuildingBlock: ZUJKAS_clean_linker_0, # of connection points: 2
#     Edge 69, Type (0, 0), BuildingBlock: ZUJKAS_clean_linker_0, # of connection points: 2
#     Edge 70, Type (0, 0), BuildingBlock: ZUJKAS_clean_linker_0, # of connection points: 2
#     Edge 71, Type (0, 0), BuildingBlock: ZUJKAS_clean_linker_0, # of connection points: 2
#     Edge 72, Type (0, 0), BuildingBlock: ZUJKAS_clean_linker_0, # of connection points: 2
#     Edge 73, Type (0, 0), BuildingBlock: ZUJKAS_clean_linker_0, # of connection points: 2
#     Edge 74, Type (0, 0), BuildingBlock: ZUJKAS_clean_linker_0, # of connection points: 2
#     Edge 75, Type (0, 0), BuildingBlock: ZUJKAS_clean_linker_0, # of connection points: 2
#     Edge 76, Type (0, 0), BuildingBlock: ZUJKAS_clean_linker_0, # of connection points: 2
#     Edge 77, Type (0, 0), BuildingBlock: ZUJKAS_clean_linker_0, # of connection points: 2
#     Edge 78, Type (0, 0), BuildingBlock: ZUJKAS_clean_linker_0, # of connection points: 2
#     Edge 79, Type (0, 0), BuildingBlock: ZUJKAS_clean_linker_0, # of connection points: 2
#     Edge 80, Type (0, 0), BuildingBlock: ZUJKAS_clean_linker_0, # of connection points: 2
#     Edge 81, Type (0, 0), BuildingBlock: ZUJKAS_clean_linker_0, # of connection points: 2
#     Edge 82, Type (0, 0), BuildingBlock: ZUJKAS_clean_linker_0, # of connection points: 2
#     Edge 83, Type (0, 0), BuildingBlock: ZUJKAS_clean_linker_0, # of connection points: 2
# Relax obj value: 0.241
# Max RMSD: 0.244
# Mean RMSD: 0.244
data_MOF--net-pcu-i--node1-XOMCOT_clean_sbu_1--edge1-ZUJKAS_clean_linker_0
_symmetry_space_group_name_H-M    P1
_symmetry_Int_Tables_number       1
_symmetry_cell_setting            triclinic
loop_
_symmetry_equiv_pos_as_xyz
'x, y, z'
_cell_length_a     71.376152
_cell_length_b     71.383989
_cell_length_c     71.382031
_cell_angle_alpha  89.977324
_cell_angle_beta   89.992235
_cell_angle_gamma 90.00681
loop_
_atom_site_label
_atom_site_type_symbol
_atom_site_fract_x
_atom_site_fract_y
_atom_site_fract_z
_atom_type_partial_charge
C0 C 0.08162 0.17626 0.3511 0.0
C1 C 0.06284 0.17219 0.35151 0.0
N2 N 0.05979 0.15706 0.34062 0.0
N3 N 0.09042 0.16371 0.34012 0.0
C4 C 0.07677 0.15226 0.33376 0.0
H5 H 0.08849 0.18772 0.35826 0.0
Co6 Co 0.11586 0.16414 0.33543 0.0
C7 C 0.12819 0.12505 0.33536 0.0
O8 O 0.14249 0.1305 0.34562 0.0
N9 N 0.14179 0.1653 0.32984 0.0
C10 C 0.17174 0.17322 0.32583 0.0
C11 C 0.15596 0.17592 0.33657 0.0
C12 C 0.14932 0.15679 0.31466 0.0
N13 N 0.16751 0.16115 0.31199 0.0
O14 O 0.11122 0.16918 0.30972 0.0
H15 H 0.15508 0.18585 0.34786 0.0
H16 H 0.1414 0.14764 0.30556 0.0
O17 O 0.11585 0.13703 0.33025 0.0
C18 C 0.1079 0.18618 0.30563 0.0
O19 O 0.10543 0.19825 0.31931 0.0
N20 N 0.12004 0.16013 0.36129 0.0
C21 C 0.12503 0.15668 0.40009 0.0
C22 C 0.11534 0.14292 0.38984 0.0
C23 C 0.11289 0.14497 0.37056 0.0
C24 C 0.12745 0.17458 0.37127 0.0
C25 C 0.13085 0.17286 0.39045 0.0
H26 H 0.10475 0.13455 0.36321 0.0
H27 H 0.13022 0.18778 0.36447 0.0
H28 H 0.07926 0.14062 0.32438 0.0
H29 H 0.0522 0.18005 0.35891 0.0
H30 H 0.18503 0.18027 0.32764 0.0
H31 H 0.10927 0.13079 0.39658 0.0
H32 H 0.13791 0.18426 0.39748 0.0
C33 C 0.82091 0.08274 0.35534 0.0
C34 C 0.82646 0.06433 0.35579 0.0
N35 N 0.84095 0.06219 0.34386 0.0
N36 N 0.83191 0.09221 0.34329 0.0
C37 C 0.8439 0.07932 0.33636 0.0
H38 H 0.80947 0.08885 0.36317 0.0
Co39 Co 0.82941 0.11744 0.338 0.0
C40 C 0.86771 0.13222 0.3344 0.0
O41 O 0.86226 0.14702 0.34392 0.0
N42 N 0.82625 0.14304 0.33195 0.0
C43 C 0.818 0.17301 0.32908 0.0
C44 C 0.81663 0.1572 0.34006 0.0
C45 C 0.83279 0.15059 0.31583 0.0
N46 N 0.82822 0.16879 0.31381 0.0
O47 O 0.82325 0.11171 0.31276 0.0
H48 H 0.80874 0.15636 0.35289 0.0
H49 H 0.8412 0.14283 0.3059 0.0
O50 O 0.85607 0.11898 0.33116 0.0
C51 C 0.80626 0.10738 0.30965 0.0
O52 O 0.79507 0.1046 0.324 0.0
N53 N 0.83448 0.12265 0.36343 0.0
C54 C 0.83841 0.12782 0.40202 0.0
C55 C 0.85338 0.1211 0.39123 0.0
C56 C 0.85099 0.11817 0.37206 0.0
C57 C 0.81941 0.12783 0.37395 0.0
C58 C 0.82116 0.13098 0.39318 0.0
H59 H 0.8623 0.11174 0.36438 0.0
H60 H 0.80577 0.12897 0.36747 0.0
H61 H 0.85457 0.08244 0.32606 0.0
H62 H 0.82 0.0533 0.36394 0.0
H63 H 0.81167 0.18647 0.33203 0.0
H64 H 0.86681 0.11796 0.39754 0.0
H65 H 0.80897 0.13525 0.40113 0.0
C66 C 0.9164 0.82386 0.3551 0.0
C67 C 0.9353 0.82734 0.35431 0.0
N68 N 0.93829 0.84095 0.34157 0.0
N69 N 0.9075 0.83526 0.34298 0.0
C70 C 0.92119 0.84558 0.33494 0.0
H71 H 0.90962 0.81323 0.3635 0.0
Co72 Co 0.88224 0.8337 0.33743 0.0
C73 C 0.86859 0.87239 0.33428 0.0
O74 O 0.85354 0.86715 0.34353 0.0
N75 N 0.85662 0.83141 0.33107 0.0
C76 C 0.82653 0.82378 0.3277 0.0
C77 C 0.84215 0.822 0.33889 0.0
C78 C 0.84942 0.8383 0.31492 0.0
N79 N 0.83116 0.83407 0.31259 0.0
O80 O 0.88805 0.82775 0.31214 0.0
H81 H 0.84266 0.81391 0.3516 0.0
H82 H 0.85751 0.8466 0.30515 0.0
O83 O 0.88165 0.86052 0.33107 0.0
C84 C 0.89228 0.81074 0.30902 0.0
O85 O 0.89484 0.79949 0.32337 0.0
N86 N 0.87687 0.8384 0.36289 0.0
C87 C 0.87062 0.84148 0.40139 0.0
C88 C 0.87782 0.85663 0.39115 0.0
C89 C 0.8813 0.85465 0.37201 0.0
C90 C 0.87131 0.82314 0.37291 0.0
C91 C 0.86768 0.82445 0.39208 0.0
H92 H 0.88809 0.86604 0.36476 0.0
H93 H 0.87006 0.8097 0.36604 0.0
H94 H 0.91877 0.85555 0.32376 0.0
H95 H 0.94605 0.82016 0.36224 0.0
H96 H 0.81295 0.81759 0.33035 0.0
H97 H 0.88128 0.86973 0.39797 0.0
H98 H 0.86264 0.81221 0.3995 0.0
C99 C 0.17619 0.91382 0.35693 0.0
C100 C 0.17209 0.9326 0.35617 0.0
N101 N 0.15893 0.93527 0.3429 0.0
N102 N 0.16562 0.90469 0.34425 0.0
C103 C 0.1552 0.9181 0.3359 0.0
H104 H 0.18659 0.90728 0.3658 0.0
Co105 Co 0.16779 0.87947 0.3387 0.0
C106 C 0.12928 0.86555 0.33399 0.0
O107 O 0.13426 0.85046 0.34332 0.0
N108 N 0.17061 0.85393 0.33239 0.0
C109 C 0.17862 0.82394 0.32913 0.0
C110 C 0.17995 0.83953 0.34041 0.0
C111 C 0.16426 0.84675 0.31604 0.0
N112 N 0.16868 0.82853 0.31377 0.0
O113 O 0.1749 0.88542 0.31364 0.0
H114 H 0.18768 0.84008 0.35335 0.0
H115 H 0.15616 0.85481 0.3061 0.0
O116 O 0.14123 0.87864 0.33122 0.0
C117 C 0.19172 0.89085 0.31135 0.0
O118 O 0.20199 0.89439 0.32621 0.0
N119 N 0.162 0.87397 0.36393 0.0
C120 C 0.15731 0.86762 0.40227 0.0
C121 C 0.14258 0.87475 0.39141 0.0
C122 C 0.14536 0.87829 0.37237 0.0
C123 C 0.17685 0.86844 0.37458 0.0
C124 C 0.17474 0.86476 0.39367 0.0
H125 H 0.13425 0.88505 0.36467 0.0
H126 H 0.19058 0.86731 0.36829 0.0
H127 H 0.14573 0.91545 0.32436 0.0
H128 H 0.17849 0.94349 0.36456 0.0
H129 H 0.18483 0.8104 0.33193 0.0
H130 H 0.12919 0.87815 0.39768 0.0
H131 H 0.18669 0.85978 0.40159 0.0
C132 C 0.07788 0.8233 0.64529 0.0
C133 C 0.0595 0.82895 0.64481 0.0
N134 N 0.05736 0.84331 0.65689 0.0
N135 N 0.08735 0.83413 0.65748 0.0
C136 C 0.07448 0.84611 0.66448 0.0
H137 H 0.08394 0.81185 0.63744 0.0
Co138 Co 0.11247 0.83107 0.66303 0.0
C139 C 0.12838 0.86887 0.66619 0.0
O140 O 0.14303 0.8627 0.65689 0.0
N141 N 0.13793 0.82724 0.66939 0.0
C142 C 0.16743 0.81768 0.67306 0.0
C143 C 0.1518 0.81686 0.66175 0.0
C144 C 0.14543 0.83372 0.68556 0.0
N145 N 0.16335 0.82832 0.68807 0.0
O146 O 0.10637 0.82526 0.68828 0.0
H147 H 0.15085 0.80873 0.64909 0.0
H148 H 0.13782 0.84256 0.69522 0.0
O149 O 0.11468 0.85778 0.66956 0.0
C150 C 0.10251 0.80815 0.69132 0.0
O151 O 0.10003 0.79701 0.67687 0.0
N152 N 0.11808 0.83576 0.63757 0.0
C153 C 0.12416 0.83943 0.59906 0.0
C154 C 0.11745 0.85455 0.60964 0.0
C155 C 0.11405 0.85229 0.62875 0.0
C156 C 0.12317 0.82055 0.62722 0.0
C157 C 0.12675 0.82215 0.60805 0.0
H158 H 0.10768 0.86376 0.63625 0.0
H159 H 0.1239 0.80692 0.63378 0.0
H160 H 0.0776 0.85659 0.67497 0.0
H161 H 0.04846 0.82256 0.63662 0.0
H162 H 0.18061 0.81063 0.67056 0.0
H163 H 0.11474 0.86803 0.60322 0.0
H164 H 0.13097 0.80984 0.60025 0.0
C165 C 0.17742 0.08323 0.6453 0.0
C166 C 0.17349 0.0644 0.64484 0.0
N167 N 0.15882 0.06107 0.65629 0.0
N168 N 0.16524 0.09177 0.65689 0.0
C169 C 0.15416 0.07794 0.6635 0.0
H170 H 0.18854 0.09028 0.6378 0.0
Co171 Co 0.1654 0.11709 0.66223 0.0
C172 C 0.12617 0.12854 0.66555 0.0
O173 O 0.13054 0.1434 0.65559 0.0
N174 N 0.16608 0.14295 0.66843 0.0
C175 C 0.16978 0.17385 0.67095 0.0
C176 C 0.17294 0.15841 0.65987 0.0
C177 C 0.15929 0.1495 0.68489 0.0
N178 N 0.1611 0.16821 0.68671 0.0
O179 O 0.17241 0.11171 0.68733 0.0
H180 H 0.17982 0.15892 0.64647 0.0
H181 H 0.15297 0.14055 0.69535 0.0
O182 O 0.13872 0.11624 0.66917 0.0
C183 C 0.19003 0.11014 0.68937 0.0
O184 O 0.20067 0.11044 0.67434 0.0
N185 N 0.15979 0.12185 0.6369 0.0
C186 C 0.15534 0.1273 0.59829 0.0
C187 C 0.14162 0.11789 0.60887 0.0
C188 C 0.14417 0.11519 0.62807 0.0
C189 C 0.17406 0.12914 0.62659 0.0
C190 C 0.17187 0.13278 0.60753 0.0
H191 H 0.13384 0.10716 0.63567 0.0
H192 H 0.18738 0.13201 0.6332 0.0
H193 H 0.14289 0.08022 0.67336 0.0
H194 H 0.18116 0.05393 0.63702 0.0
H195 H 0.17333 0.18815 0.66741 0.0
H196 H 0.12917 0.11216 0.60241 0.0
H197 H 0.18316 0.1398 0.60028 0.0
C198 C 0.91743 0.17319 0.64312 0.0
C199 C 0.93561 0.16694 0.64272 0.0
N200 N 0.93752 0.15329 0.65566 0.0
N201 N 0.90785 0.16347 0.65614 0.0
C202 C 0.92045 0.15154 0.66367 0.0
H203 H 0.91159 0.18431 0.63465 0.0
Co204 Co 0.88294 0.1673 0.66217 0.0
C205 C 0.86675 0.12972 0.66737 0.0
O206 O 0.85178 0.13552 0.65833 0.0
N207 N 0.85774 0.17178 0.66897 0.0
C208 C 0.82828 0.18141 0.67264 0.0
C209 C 0.84378 0.18192 0.66116 0.0
C210 C 0.85044 0.16583 0.68543 0.0
N211 N 0.83252 0.17121 0.68793 0.0
O212 O 0.8898 0.17407 0.687 0.0
H213 H 0.84456 0.18957 0.64818 0.0
H214 H 0.85815 0.15724 0.69524 0.0
O215 O 0.88054 0.14093 0.66981 0.0
C216 C 0.89509 0.19096 0.68891 0.0
O217 O 0.89805 0.20102 0.67377 0.0
N218 N 0.87659 0.1618 0.63711 0.0
C219 C 0.86949 0.15736 0.59889 0.0
C220 C 0.87586 0.14227 0.60973 0.0
C221 C 0.87978 0.14489 0.6287 0.0
C222 C 0.87181 0.17691 0.62647 0.0
C223 C 0.86776 0.17495 0.60744 0.0
H224 H 0.88599 0.13343 0.63635 0.0
H225 H 0.87161 0.1907 0.6327 0.0
H226 H 0.91718 0.14185 0.67485 0.0
H227 H 0.9467 0.17244 0.63396 0.0
H228 H 0.81502 0.18826 0.66999 0.0
H229 H 0.87841 0.12868 0.60348 0.0
H230 H 0.86341 0.18715 0.59953 0.0
C231 C 0.82102 0.91766 0.64294 0.0
C232 C 0.82495 0.93646 0.64373 0.0
N233 N 0.83795 0.93924 0.65712 0.0
N234 N 0.83157 0.90861 0.65571 0.0
C235 C 0.84179 0.9221 0.66415 0.0
H236 H 0.81066 0.91106 0.63409 0.0
Co237 Co 0.82902 0.88353 0.6615 0.0
C238 C 0.86713 0.86889 0.66722 0.0
O239 O 0.86197 0.85363 0.65829 0.0
N240 N 0.8256 0.8581 0.66807 0.0
C241 C 0.81655 0.82842 0.67155 0.0
C242 C 0.81625 0.8438 0.6599 0.0
C243 C 0.83099 0.85108 0.68484 0.0
N244 N 0.82581 0.83309 0.68729 0.0
O245 O 0.8219 0.88989 0.68633 0.0
H246 H 0.80914 0.84429 0.64661 0.0
H247 H 0.83886 0.85906 0.69503 0.0
O248 O 0.85543 0.88232 0.66935 0.0
C249 C 0.80461 0.89341 0.68867 0.0
O250 O 0.79389 0.89516 0.6738 0.0
N251 N 0.83503 0.87764 0.63643 0.0
C252 C 0.84029 0.87087 0.59824 0.0
C253 C 0.85499 0.87772 0.60933 0.0
C254 C 0.85194 0.88146 0.62828 0.0
C255 C 0.82026 0.87237 0.62555 0.0
C256 C 0.82264 0.86848 0.60654 0.0
H257 H 0.86311 0.88792 0.63614 0.0
H258 H 0.80638 0.87166 0.63159 0.0
H259 H 0.85107 0.91955 0.67587 0.0
H260 H 0.81845 0.94731 0.63536 0.0
H261 H 0.81007 0.815 0.66879 0.0
H262 H 0.86873 0.88029 0.60344 0.0
H263 H 0.81065 0.86415 0.59831 0.0
C264 C 0.35744 0.08189 0.17335 0.0
C265 C 0.35818 0.06347 0.16789 0.0
N266 N 0.3456 0.06082 0.15404 0.0
N267 N 0.34455 0.09089 0.16292 0.0
C268 C 0.33745 0.07771 0.15137 0.0
H269 H 0.36551 0.08827 0.18446 0.0
Co270 Co 0.33806 0.11577 0.16592 0.0
C271 C 0.33198 0.13069 0.12788 0.0
O272 O 0.34028 0.14631 0.13302 0.0
N273 N 0.33084 0.14095 0.16965 0.0
C274 C 0.32706 0.17063 0.17849 0.0
C275 C 0.3387 0.15527 0.17922 0.0
C276 C 0.31418 0.1479 0.16383 0.0
N277 N 0.31162 0.16596 0.16872 0.0
O278 O 0.31335 0.10863 0.17271 0.0
H279 H 0.35184 0.15485 0.18662 0.0
H280 H 0.30429 0.13987 0.15563 0.0
O281 O 0.33038 0.11716 0.13953 0.0
C282 C 0.31087 0.10384 0.18967 0.0
O283 O 0.3256 0.10172 0.2005 0.0
N284 N 0.36302 0.1224 0.16017 0.0
C285 C 0.40117 0.12973 0.1553 0.0
C286 C 0.39023 0.12317 0.14037 0.0
C287 C 0.37131 0.11915 0.1432 0.0
C288 C 0.37374 0.12748 0.17512 0.0
C289 C 0.39274 0.13162 0.17295 0.0
H290 H 0.36365 0.11274 0.13188 0.0
H291 H 0.36761 0.12786 0.18896 0.0
H292 H 0.32642 0.08043 0.14134 0.0
H293 H 0.36687 0.05273 0.17413 0.0
H294 H 0.32973 0.18411 0.18489 0.0
H295 H 0.39638 0.1205 0.12676 0.0
H296 H 0.40074 0.13615 0.18501 0.0
C297 C 0.91823 0.35586 0.17611 0.0
C298 C 0.93669 0.35635 0.17076 0.0
N299 N 0.93914 0.34407 0.15662 0.0
N300 N 0.90899 0.34344 0.16533 0.0
C301 C 0.9221 0.33633 0.15367 0.0
H302 H 0.91194 0.36384 0.18734 0.0
Co303 Co 0.88385 0.33783 0.16814 0.0
C304 C 0.86861 0.33307 0.1302 0.0
O305 O 0.85372 0.34243 0.13566 0.0
N306 N 0.85835 0.33147 0.17173 0.0
C307 C 0.82854 0.32844 0.18052 0.0
C308 C 0.84423 0.33965 0.18134 0.0
C309 C 0.85092 0.31508 0.16575 0.0
N310 N 0.83281 0.31295 0.17066 0.0
O311 O 0.88998 0.31282 0.17482 0.0
H312 H 0.84501 0.3527 0.18886 0.0
H313 H 0.85868 0.30501 0.1575 0.0
O314 O 0.88217 0.33041 0.14164 0.0
C315 C 0.89381 0.31029 0.19202 0.0
O316 O 0.89607 0.32505 0.20278 0.0
N317 N 0.8782 0.36308 0.16259 0.0
C318 C 0.87239 0.40153 0.15807 0.0
C319 C 0.87893 0.39056 0.14315 0.0
C320 C 0.88218 0.37146 0.14583 0.0
C321 C 0.87317 0.3738 0.17756 0.0
C322 C 0.86973 0.39294 0.17554 0.0
H323 H 0.88847 0.36366 0.13452 0.0
H324 H 0.87238 0.36754 0.19133 0.0
H325 H 0.91921 0.32565 0.14331 0.0
H326 H 0.94757 0.3647 0.1772 0.0
H327 H 0.81514 0.33139 0.18697 0.0
H328 H 0.88169 0.39667 0.12954 0.0
H329 H 0.86562 0.40105 0.18768 0.0
C330 C 0.64383 0.91787 0.17158 0.0
C331 C 0.64315 0.93623 0.16587 0.0
N332 N 0.6559 0.9387 0.15216 0.0
N333 N 0.65683 0.90873 0.16141 0.0
C334 C 0.66409 0.92179 0.14979 0.0
H335 H 0.6356 0.91163 0.18266 0.0
Co336 Co 0.66315 0.88381 0.16474 0.0
C337 C 0.66771 0.86809 0.12689 0.0
O338 O 0.65904 0.85292 0.13273 0.0
N339 N 0.67024 0.85861 0.1688 0.0
C340 C 0.67447 0.82934 0.17878 0.0
C341 C 0.66281 0.8447 0.17929 0.0
C342 C 0.68665 0.85142 0.16259 0.0
N343 N 0.6895 0.83361 0.16822 0.0
O344 O 0.68809 0.89076 0.1709 0.0
H345 H 0.65006 0.84548 0.18731 0.0
H346 H 0.69625 0.85916 0.15378 0.0
O347 O 0.67018 0.88181 0.13818 0.0
C348 C 0.69066 0.89529 0.18792 0.0
O349 O 0.67593 0.89768 0.1987 0.0
N350 N 0.63798 0.87731 0.15972 0.0
C351 C 0.59974 0.86983 0.15592 0.0
C352 C 0.61025 0.87639 0.14067 0.0
C353 C 0.62922 0.88051 0.14298 0.0
C354 C 0.62765 0.87234 0.17499 0.0
C355 C 0.60862 0.86812 0.17335 0.0
H356 H 0.63659 0.88688 0.13143 0.0
H357 H 0.63412 0.87214 0.18868 0.0
H358 H 0.67523 0.91897 0.13991 0.0
H359 H 0.63436 0.94705 0.17183 0.0
H360 H 0.67217 0.81621 0.186 0.0
H361 H 0.60373 0.87894 0.1272 0.0
H362 H 0.60095 0.86365 0.18566 0.0
C363 C 0.08348 0.64172 0.175 0.0
C364 C 0.06503 0.64129 0.16959 0.0
N365 N 0.06259 0.65389 0.15572 0.0
N366 N 0.0927 0.6544 0.1645 0.0
C367 C 0.07961 0.66172 0.15297 0.0
H368 H 0.08975 0.63352 0.18609 0.0
Co369 Co 0.11776 0.66037 0.16716 0.0
C370 C 0.13256 0.66441 0.12884 0.0
O371 O 0.14772 0.65547 0.13425 0.0
N372 N 0.14315 0.6671 0.17048 0.0
C373 C 0.1728 0.67097 0.17944 0.0
C374 C 0.15731 0.65951 0.18051 0.0
C375 C 0.15035 0.68338 0.16395 0.0
N376 N 0.16836 0.68602 0.16897 0.0
O377 O 0.11132 0.68546 0.17321 0.0
H378 H 0.15664 0.64679 0.18858 0.0
H379 H 0.14246 0.69304 0.15535 0.0
O380 O 0.11922 0.66715 0.14051 0.0
C381 C 0.10658 0.6884 0.19012 0.0
O382 O 0.10379 0.67393 0.20115 0.0
N383 N 0.12374 0.6351 0.16229 0.0
C384 C 0.13014 0.59665 0.15899 0.0
C385 C 0.12348 0.60706 0.14371 0.0
C386 C 0.11994 0.62617 0.14577 0.0
C387 C 0.12889 0.62493 0.1776 0.0
C388 C 0.13262 0.60579 0.17618 0.0
H389 H 0.11357 0.63353 0.13422 0.0
H390 H 0.12951 0.63161 0.19117 0.0
H391 H 0.08249 0.67264 0.14287 0.0
H392 H 0.05414 0.63278 0.17583 0.0
H393 H 0.18613 0.66854 0.18623 0.0
H394 H 0.12084 0.60048 0.1303 0.0
H395 H 0.13681 0.59812 0.18859 0.0
C396 C 0.35115 0.91867 0.82139 0.0
C397 C 0.3519 0.93709 0.82681 0.0
N398 N 0.34076 0.93934 0.8419 0.0
N399 N 0.33967 0.90927 0.83303 0.0
C400 C 0.3334 0.92222 0.84532 0.0
H401 H 0.3583 0.91252 0.80953 0.0
Co402 Co 0.33419 0.88412 0.83046 0.0
C403 C 0.33104 0.86885 0.86865 0.0
O404 O 0.34029 0.85401 0.86286 0.0
N405 N 0.32798 0.85861 0.82713 0.0
C406 C 0.3248 0.82883 0.81834 0.0
C407 C 0.33586 0.84459 0.81712 0.0
C408 C 0.31191 0.85105 0.83377 0.0
N409 N 0.30971 0.83296 0.82886 0.0
O410 O 0.30883 0.89002 0.82479 0.0
H411 H 0.34855 0.84551 0.80903 0.0
H412 H 0.30215 0.8587 0.84246 0.0
O413 O 0.32785 0.88235 0.85728 0.0
C414 C 0.3055 0.89393 0.80774 0.0
O415 O 0.31974 0.89645 0.79634 0.0
N416 N 0.35967 0.8787 0.83494 0.0
C417 C 0.39817 0.87237 0.83792 0.0
C418 C 0.38786 0.87892 0.85331 0.0
C419 C 0.36872 0.88245 0.8514 0.0
C420 C 0.36977 0.87384 0.81949 0.0
C421 C 0.38894 0.87018 0.82073 0.0
H422 H 0.36142 0.88873 0.86304 0.0
H423 H 0.36294 0.87314 0.80599 0.0
H424 H 0.32362 0.91915 0.85649 0.0
H425 H 0.35965 0.94808 0.81979 0.0
H426 H 0.32754 0.81548 0.8117 0.0
H427 H 0.39462 0.88183 0.86658 0.0
H428 H 0.39641 0.86567 0.80832 0.0
C429 C 0.08248 0.35719 0.82788 0.0
C430 C 0.0641 0.35804 0.8335 0.0
N431 N 0.06143 0.34529 0.84718 0.0
N432 N 0.09143 0.34407 0.83805 0.0
C433 C 0.07824 0.33693 0.8496 0.0
H434 H 0.08885 0.36535 0.81682 0.0
Co435 Co 0.11621 0.33725 0.83488 0.0
C436 C 0.13115 0.33086 0.87291 0.0
O437 O 0.14694 0.33884 0.86779 0.0
N438 N 0.14128 0.32971 0.831 0.0
C439 C 0.17089 0.32578 0.82196 0.0
C440 C 0.15559 0.33749 0.82132 0.0
C441 C 0.14816 0.31301 0.83678 0.0
N442 N 0.16619 0.31037 0.83179 0.0
O443 O 0.10869 0.31271 0.82799 0.0
H444 H 0.15521 0.35063 0.81393 0.0
H445 H 0.14011 0.30316 0.84502 0.0
O446 O 0.1176 0.32955 0.86125 0.0
C447 C 0.10507 0.31115 0.81063 0.0
O448 O 0.10454 0.32644 0.80038 0.0
N449 N 0.12323 0.36207 0.84049 0.0
C450 C 0.13091 0.40025 0.84439 0.0
C451 C 0.1248 0.38962 0.85975 0.0
C452 C 0.12061 0.37065 0.85742 0.0
C453 C 0.12797 0.37248 0.82521 0.0
C454 C 0.1323 0.39145 0.82688 0.0
H455 H 0.11454 0.36321 0.86908 0.0
H456 H 0.12792 0.36607 0.81149 0.0
H457 H 0.08091 0.32571 0.85943 0.0
H458 H 0.0534 0.36693 0.82747 0.0
H459 H 0.18435 0.32838 0.81549 0.0
H460 H 0.12257 0.39605 0.87331 0.0
H461 H 0.13653 0.39916 0.81452 0.0
C462 C 0.6441 0.08157 0.82095 0.0
C463 C 0.64348 0.06304 0.82601 0.0
N464 N 0.65514 0.06045 0.84065 0.0
N465 N 0.65599 0.0907 0.83239 0.0
C466 C 0.66265 0.07748 0.84417 0.0
H467 H 0.63659 0.08798 0.80945 0.0
Co468 Co 0.66159 0.11586 0.8301 0.0
C469 C 0.66518 0.13054 0.86846 0.0
O470 O 0.65597 0.14552 0.86298 0.0
N471 N 0.66792 0.14139 0.82704 0.0
C472 C 0.67113 0.17127 0.81857 0.0
C473 C 0.65998 0.15558 0.81731 0.0
C474 C 0.68411 0.14879 0.83356 0.0
N475 N 0.68634 0.16693 0.82883 0.0
O476 O 0.68684 0.10989 0.82418 0.0
H477 H 0.64718 0.15483 0.80937 0.0
H478 H 0.69396 0.14098 0.84202 0.0
O479 O 0.66819 0.11721 0.85684 0.0
C480 C 0.69015 0.10587 0.80716 0.0
O481 O 0.67592 0.10339 0.79575 0.0
N482 N 0.63618 0.12136 0.8349 0.0
C483 C 0.59773 0.12768 0.83842 0.0
C484 C 0.6082 0.12085 0.85358 0.0
C485 C 0.6273 0.11732 0.85139 0.0
C486 C 0.62593 0.12653 0.81965 0.0
C487 C 0.60678 0.13022 0.82117 0.0
H488 H 0.63472 0.11089 0.86287 0.0
H489 H 0.63258 0.12735 0.80607 0.0
H490 H 0.67286 0.08027 0.85502 0.0
H491 H 0.63549 0.05221 0.81904 0.0
H492 H 0.66839 0.1847 0.81209 0.0
H493 H 0.60171 0.11817 0.86703 0.0
H494 H 0.59907 0.13453 0.80884 0.0
C495 C 0.91684 0.64856 0.81963 0.0
C496 C 0.93567 0.64868 0.82359 0.0
N497 N 0.93851 0.65979 0.83859 0.0
N498 N 0.90784 0.65943 0.83215 0.0
C499 C 0.9214 0.66626 0.84344 0.0
H500 H 0.91008 0.64102 0.80837 0.0
Co501 Co 0.88221 0.66312 0.83222 0.0
C502 C 0.87079 0.66368 0.87158 0.0
O503 O 0.85669 0.65288 0.86667 0.0
N504 N 0.85607 0.66766 0.8316 0.0
C505 C 0.82566 0.67003 0.82484 0.0
C506 C 0.84176 0.65982 0.82197 0.0
C507 C 0.84824 0.68291 0.83973 0.0
N508 N 0.82979 0.68462 0.83604 0.0
O509 O 0.88576 0.68884 0.82638 0.0
H510 H 0.8427 0.64799 0.81269 0.0
H511 H 0.85611 0.6927 0.84819 0.0
O512 O 0.88265 0.66896 0.8592 0.0
C513 C 0.88819 0.69229 0.80909 0.0
O514 O 0.89043 0.67816 0.79751 0.0
N515 N 0.87916 0.63723 0.83694 0.0
C516 C 0.87596 0.59836 0.84128 0.0
C517 C 0.88526 0.60931 0.85472 0.0
C518 C 0.88689 0.62861 0.8522 0.0
C519 C 0.87203 0.62661 0.82279 0.0
C520 C 0.86958 0.60732 0.82493 0.0
H521 H 0.89485 0.63652 0.86234 0.0
H522 H 0.8687 0.63303 0.80952 0.0
H523 H 0.91876 0.67557 0.85509 0.0
H524 H 0.94645 0.64136 0.81584 0.0
H525 H 0.81216 0.66728 0.81853 0.0
H526 H 0.89165 0.60306 0.86697 0.0
H527 H 0.86279 0.59965 0.81378 0.0
C528 C 0.17463 0.35795 0.08541 0.0
C529 C 0.16974 0.3588 0.06686 0.0
N530 N 0.15763 0.34476 0.06319 0.0
N531 N 0.16545 0.34364 0.09358 0.0
C532 C 0.15526 0.33579 0.07972 0.0
H533 H 0.18448 0.36705 0.09244 0.0
Co534 Co 0.16846 0.33616 0.11823 0.0
C535 C 0.1304 0.33098 0.13329 0.0
O536 O 0.1361 0.33882 0.14894 0.0
N537 N 0.17223 0.32788 0.14309 0.0
C538 C 0.18247 0.32196 0.17198 0.0
C539 C 0.1828 0.33452 0.15734 0.0
C540 C 0.16609 0.31108 0.14936 0.0
N541 N 0.17195 0.30717 0.16689 0.0
O542 O 0.17447 0.31153 0.11021 0.0
H543 H 0.19085 0.34726 0.15724 0.0
H544 H 0.15731 0.30189 0.14113 0.0
O545 O 0.14183 0.32918 0.11958 0.0
C546 C 0.19158 0.3087 0.10623 0.0
O547 O 0.2028 0.32324 0.10486 0.0
N548 N 0.1635 0.36101 0.12586 0.0
C549 C 0.15997 0.39911 0.1341 0.0
C550 C 0.14469 0.38888 0.1272 0.0
C551 C 0.14686 0.36998 0.12274 0.0
C552 C 0.17877 0.37104 0.13142 0.0
C553 C 0.17726 0.38998 0.13601 0.0
H554 H 0.13534 0.36291 0.116 0.0
H555 H 0.19241 0.36448 0.13156 0.0
H556 H 0.14682 0.32334 0.08164 0.0
H557 H 0.17487 0.36898 0.05688 0.0
H558 H 0.18985 0.32343 0.18514 0.0
H559 H 0.13136 0.3956 0.12451 0.0
H560 H 0.18958 0.39743 0.14077 0.0
C561 C 0.17501 0.6433 0.91708 0.0
C562 C 0.16947 0.64266 0.93548 0.0
N563 N 0.15538 0.65499 0.93789 0.0
N564 N 0.16437 0.65586 0.90786 0.0
C565 C 0.15262 0.66291 0.92091 0.0
H566 H 0.18627 0.63533 0.91084 0.0
Co567 Co 0.1673 0.66175 0.88281 0.0
C568 C 0.12936 0.66601 0.86736 0.0
O569 O 0.13501 0.65683 0.85243 0.0
N570 N 0.17098 0.66841 0.85742 0.0
C571 C 0.17984 0.67191 0.82768 0.0
C572 C 0.18074 0.66052 0.84324 0.0
C573 C 0.1648 0.68481 0.85016 0.0
N574 N 0.16977 0.68722 0.8321 0.0
O575 O 0.17338 0.6868 0.88926 0.0
H576 H 0.1884 0.64754 0.84388 0.0
H577 H 0.15636 0.69466 0.85798 0.0
O578 O 0.14072 0.66873 0.88096 0.0
C579 C 0.1904 0.68977 0.89351 0.0
O580 O 0.20155 0.67531 0.89588 0.0
N581 N 0.16229 0.63648 0.87689 0.0
C582 C 0.1586 0.59793 0.8713 0.0
C583 C 0.14342 0.60863 0.87768 0.0
C584 C 0.14567 0.62778 0.88081 0.0
C585 C 0.17749 0.62606 0.87192 0.0
C586 C 0.17588 0.60686 0.86859 0.0
H587 H 0.13418 0.63536 0.88703 0.0
H588 H 0.19114 0.63259 0.87118 0.0
H589 H 0.14235 0.67368 0.91803 0.0
H590 H 0.17575 0.63417 0.94636 0.0
H591 H 0.18635 0.66921 0.81426 0.0
H592 H 0.12993 0.60224 0.88044 0.0
H593 H 0.18821 0.59897 0.86456 0.0
C594 C 0.3588 0.17665 0.91576 0.0
C595 C 0.3594 0.17211 0.93443 0.0
N596 N 0.34588 0.15937 0.93795 0.0
N597 N 0.34514 0.16667 0.90743 0.0
C598 C 0.33745 0.15632 0.92127 0.0
H599 H 0.36763 0.18675 0.90872 0.0
Co600 Co 0.33817 0.16863 0.88257 0.0
C601 C 0.3338 0.13009 0.86878 0.0
O602 O 0.34224 0.13539 0.85329 0.0
N603 N 0.33039 0.17116 0.85737 0.0
C604 C 0.32584 0.17753 0.82715 0.0
C605 C 0.33787 0.17953 0.8421 0.0
C606 C 0.31363 0.1647 0.85131 0.0
N607 N 0.31059 0.16809 0.83299 0.0
O608 O 0.31333 0.17476 0.88991 0.0
H609 H 0.35112 0.1867 0.84149 0.0
H610 H 0.30386 0.15742 0.86031 0.0
O611 O 0.33145 0.14189 0.88208 0.0
C612 C 0.31034 0.19191 0.89359 0.0
O613 O 0.32477 0.20327 0.89487 0.0
N614 N 0.36321 0.16366 0.87569 0.0
C615 C 0.40132 0.16013 0.86758 0.0
C616 C 0.39126 0.14509 0.87522 0.0
C617 C 0.37234 0.14728 0.87962 0.0
C618 C 0.37311 0.1788 0.8696 0.0
C619 C 0.39207 0.17727 0.86505 0.0
H620 H 0.3653 0.13597 0.88677 0.0
H621 H 0.36631 0.1923 0.86861 0.0
H622 H 0.3255 0.14722 0.91922 0.0
H623 H 0.36907 0.17785 0.94459 0.0
H624 H 0.32838 0.18238 0.81302 0.0
H625 H 0.39809 0.13191 0.87838 0.0
H626 H 0.39939 0.18943 0.85968 0.0
C627 C 0.82007 0.35426 0.918 0.0
C628 C 0.82355 0.3536 0.93691 0.0
N629 N 0.83733 0.34105 0.93998 0.0
N630 N 0.83168 0.34229 0.90919 0.0
C631 C 0.84203 0.33439 0.92291 0.0
H632 H 0.80955 0.3627 0.91108 0.0
Co633 Co 0.83082 0.33708 0.88381 0.0
C634 C 0.87015 0.33737 0.8722 0.0
O635 O 0.86496 0.34807 0.85812 0.0
N636 N 0.82879 0.33071 0.8583 0.0
C637 C 0.81493 0.32185 0.83173 0.0
C638 C 0.81316 0.33243 0.84774 0.0
C639 C 0.83926 0.31804 0.84884 0.0
N640 N 0.83144 0.31282 0.83247 0.0
O641 O 0.82508 0.31169 0.88911 0.0
H642 H 0.80047 0.3394 0.85215 0.0
H643 H 0.85149 0.31124 0.85461 0.0
O644 O 0.85784 0.3314 0.88381 0.0
C645 C 0.80795 0.30853 0.8928 0.0
O646 O 0.79668 0.32287 0.89528 0.0
N647 N 0.8358 0.36286 0.87862 0.0
C648 C 0.84253 0.40107 0.87214 0.0
C649 C 0.85345 0.3909 0.88495 0.0
C650 C 0.84988 0.37193 0.88797 0.0
C651 C 0.82436 0.3728 0.86698 0.0
C652 C 0.82776 0.39168 0.86315 0.0
H653 H 0.85845 0.36452 0.89802 0.0
H654 H 0.81227 0.36641 0.86077 0.0
H655 H 0.85227 0.32349 0.92048 0.0
H656 H 0.81641 0.36166 0.94758 0.0
H657 H 0.80445 0.32023 0.82089 0.0
H658 H 0.86452 0.39752 0.89291 0.0
H659 H 0.81878 0.39875 0.8532 0.0
C660 C 0.63937 0.82374 0.91561 0.0
C661 C 0.63913 0.82926 0.93404 0.0
N662 N 0.65206 0.84284 0.93636 0.0
N663 N 0.65227 0.83388 0.90631 0.0
C664 C 0.6599 0.84531 0.9193 0.0
H665 H 0.6309 0.81282 0.90942 0.0
Co666 Co 0.65814 0.83087 0.88127 0.0
C667 C 0.66305 0.86889 0.86609 0.0
O668 O 0.65387 0.86344 0.85108 0.0
N669 N 0.66477 0.82715 0.8559 0.0
C670 C 0.66815 0.81838 0.82614 0.0
C671 C 0.65684 0.8174 0.84174 0.0
C672 C 0.68115 0.83333 0.84861 0.0
N673 N 0.68346 0.82848 0.83051 0.0
O674 O 0.68306 0.82411 0.88777 0.0
H675 H 0.64389 0.8097 0.84243 0.0
H676 H 0.69104 0.84171 0.85645 0.0
O677 O 0.66567 0.85734 0.87956 0.0
C678 C 0.68554 0.80716 0.89264 0.0
O679 O 0.67077 0.79646 0.89521 0.0
N680 N 0.63298 0.83651 0.87527 0.0
C681 C 0.59477 0.84148 0.86839 0.0
C682 C 0.6057 0.85623 0.87537 0.0
C683 C 0.62465 0.85332 0.87917 0.0
C684 C 0.62223 0.82166 0.86996 0.0
C685 C 0.60321 0.82391 0.86597 0.0
H686 H 0.6324 0.86451 0.88573 0.0
H687 H 0.62835 0.80783 0.86932 0.0
H688 H 0.67104 0.85514 0.91632 0.0
H689 H 0.63051 0.82327 0.94498 0.0
H690 H 0.66537 0.81191 0.81272 0.0
H691 H 0.59968 0.8699 0.87798 0.0
H692 H 0.59508 0.81187 0.86157 0.0
C693 C 0.82553 0.64478 0.08269 0.0
C694 C 0.83111 0.64425 0.06429 0.0
N695 N 0.84547 0.65633 0.06205 0.0
N696 N 0.83639 0.65701 0.09207 0.0
C697 C 0.84831 0.66398 0.07913 0.0
H698 H 0.81413 0.63691 0.08884 0.0
Co699 Co 0.8337 0.66263 0.11719 0.0
C700 C 0.87194 0.66662 0.13213 0.0
O701 O 0.86647 0.65748 0.14716 0.0
N702 N 0.83033 0.66901 0.14265 0.0
C703 C 0.82135 0.67257 0.17233 0.0
C704 C 0.8204 0.66121 0.15677 0.0
C705 C 0.8367 0.68529 0.14995 0.0
N706 N 0.83164 0.68777 0.16797 0.0
O707 O 0.82754 0.68781 0.11106 0.0
H708 H 0.81247 0.6484 0.15602 0.0
H709 H 0.8452 0.69509 0.14212 0.0
O710 O 0.86033 0.66951 0.11877 0.0
C711 C 0.81049 0.69094 0.10699 0.0
O712 O 0.79922 0.67658 0.10458 0.0
N713 N 0.83877 0.63728 0.12283 0.0
C714 C 0.84278 0.59883 0.12905 0.0
C715 C 0.8578 0.60953 0.12227 0.0
C716 C 0.85537 0.62862 0.11881 0.0
C717 C 0.82365 0.62681 0.12799 0.0
C718 C 0.82542 0.60766 0.13161 0.0
H719 H 0.86673 0.63617 0.11229 0.0
H720 H 0.81 0.63328 0.12887 0.0
H721 H 0.85881 0.67447 0.08217 0.0
H722 H 0.8247 0.636 0.05331 0.0
H723 H 0.8146 0.67 0.18566 0.0
H724 H 0.87117 0.6031 0.11907 0.0
H725 H 0.81327 0.59988 0.13629 0.0
C726 C 0.35521 0.82062 0.08086 0.0
C727 C 0.35419 0.82423 0.06201 0.0
N728 N 0.34154 0.83797 0.05925 0.0
N729 N 0.34336 0.83209 0.09 0.0
C730 C 0.3352 0.84255 0.0765 0.0
H731 H 0.36373 0.80998 0.08749 0.0
Co732 Co 0.33869 0.83076 0.11546 0.0
C733 C 0.33654 0.86958 0.12881 0.0
O734 O 0.34658 0.86432 0.14334 0.0
N735 N 0.33321 0.82867 0.14131 0.0
C736 C 0.33045 0.82045 0.17133 0.0
C737 C 0.34089 0.81836 0.15524 0.0
C738 C 0.31782 0.83637 0.14928 0.0
N739 N 0.31599 0.8319 0.16752 0.0
O740 O 0.31319 0.82483 0.11065 0.0
H741 H 0.35296 0.8094 0.15402 0.0
H742 H 0.30788 0.84495 0.14169 0.0
O743 O 0.33244 0.85763 0.11608 0.0
C744 C 0.30986 0.8078 0.10666 0.0
O745 O 0.32408 0.79646 0.10377 0.0
N746 N 0.36439 0.83552 0.11986 0.0
C747 C 0.40301 0.83932 0.12505 0.0
C748 C 0.39242 0.854 0.11741 0.0
C749 C 0.37324 0.85164 0.11447 0.0
C750 C 0.37474 0.82059 0.1257 0.0
C751 C 0.39398 0.82229 0.12886 0.0
H752 H 0.36567 0.86271 0.10748 0.0
H753 H 0.36815 0.80707 0.12737 0.0
H754 H 0.32428 0.85272 0.07918 0.0
H755 H 0.36205 0.81715 0.05115 0.0
H756 H 0.33332 0.81409 0.18479 0.0
H757 H 0.39886 0.86723 0.11372 0.0
H758 H 0.40177 0.81023 0.13377 0.0
C759 C 0.64558 0.17761 0.07993 0.0
C760 C 0.64515 0.17245 0.06141 0.0
N761 N 0.65685 0.15782 0.05904 0.0
N762 N 0.65736 0.16621 0.08925 0.0
C763 C 0.66419 0.15438 0.07615 0.0
H764 H 0.63789 0.18904 0.08622 0.0
Co765 Co 0.6623 0.16822 0.11459 0.0
C766 C 0.6658 0.12967 0.12881 0.0
O767 O 0.65614 0.13489 0.1436 0.0
N768 N 0.66795 0.17098 0.14031 0.0
C769 C 0.67058 0.17937 0.17025 0.0
C770 C 0.65972 0.18064 0.15436 0.0
C771 C 0.684 0.16446 0.148 0.0
N772 N 0.6859 0.16915 0.16619 0.0
O773 O 0.68763 0.17461 0.10935 0.0
H774 H 0.64695 0.18861 0.15337 0.0
H775 H 0.69405 0.15613 0.1403 0.0
O776 O 0.66916 0.14152 0.11575 0.0
C777 C 0.69048 0.1919 0.10614 0.0
O778 O 0.67592 0.20295 0.10394 0.0
N779 N 0.6368 0.16304 0.11936 0.0
C780 C 0.59817 0.15912 0.12429 0.0
C781 C 0.60898 0.14418 0.11752 0.0
C782 C 0.62818 0.14657 0.11472 0.0
C783 C 0.62626 0.17809 0.12454 0.0
C784 C 0.60701 0.17635 0.12755 0.0
H785 H 0.6359 0.13529 0.10829 0.0
H786 H 0.63276 0.1917 0.1258 0.0
H787 H 0.67427 0.14346 0.07911 0.0
H788 H 0.63718 0.17926 0.05046 0.0
H789 H 0.66759 0.18586 0.18362 0.0
H790 H 0.60267 0.13077 0.11429 0.0
H791 H 0.59905 0.18853 0.13185 0.0
H792 H 0.18231 0.1311 0.57061 0.0
H793 H 0.17778 0.1387 0.5379 0.0
H794 H 0.11786 0.13645 0.54552 0.0
H795 H 0.12214 0.13159 0.57881 0.0
H796 H 0.16525 0.1214 0.51104 0.0
H797 H 0.11924 0.18307 0.51745 0.0
H798 H 0.13037 0.17266 0.53755 0.0
H799 H 0.1085 0.16345 0.52875 0.0
C800 C 0.16811 0.13289 0.56567 0.0
C801 C 0.15263 0.13097 0.57781 0.0
C802 C 0.16554 0.13694 0.54671 0.0
C803 C 0.14746 0.13863 0.53916 0.0
C804 C 0.13198 0.13599 0.55101 0.0
H805 H 0.12867 0.12378 0.42012 0.0
H806 H 0.13342 0.11993 0.45344 0.0
C807 C 0.13451 0.13267 0.57013 0.0
C808 C 0.14488 0.14233 0.51879 0.0
H809 H 0.11943 0.1679 0.48743 0.0
C810 C 0.15541 0.13179 0.50593 0.0
C811 C 0.13239 0.15616 0.51194 0.0
C812 C 0.12218 0.1696 0.52469 0.0
C813 C 0.15363 0.13446 0.48655 0.0
C814 C 0.13998 0.14715 0.47969 0.0
C815 C 0.12968 0.15792 0.49255 0.0
C816 C 0.13618 0.14956 0.45933 0.0
C817 C 0.16689 0.124 0.47379 0.0
C818 C 0.13483 0.16756 0.45151 0.0
C819 C 0.13085 0.16991 0.43249 0.0
C820 C 0.12862 0.15429 0.42062 0.0
C821 C 0.12996 0.13627 0.42859 0.0
C822 C 0.13322 0.13397 0.44774 0.0
H823 H 0.18036 0.12096 0.48097 0.0
H824 H 0.16055 0.11036 0.46988 0.0
H825 H 0.16998 0.13205 0.46085 0.0
H826 H 0.13683 0.17989 0.46013 0.0
H827 H 0.12937 0.18406 0.4273 0.0
H828 H 0.85659 0.10546 0.4273 0.0
H829 H 0.8608 0.11088 0.46084 0.0
H830 H 0.82951 0.16238 0.45658 0.0
H831 H 0.82526 0.15709 0.42296 0.0
H832 H 0.87828 0.14095 0.47812 0.0
H833 H 0.80388 0.13527 0.5002 0.0
H834 H 0.81202 0.1274 0.47758 0.0
H835 H 0.80805 0.15191 0.48178 0.0
C836 C 0.85066 0.11798 0.43347 0.0
C837 C 0.8406 0.13087 0.42247 0.0
C838 C 0.853 0.121 0.45265 0.0
C839 C 0.84528 0.1369 0.46122 0.0
C840 C 0.83524 0.14982 0.45031 0.0
H841 H 0.87822 0.18107 0.56993 0.0
H842 H 0.87191 0.17657 0.53657 0.0
C843 C 0.83285 0.14678 0.43111 0.0
C844 C 0.8483 0.14022 0.48147 0.0
H845 H 0.82558 0.14553 0.52322 0.0
C846 C 0.86677 0.14193 0.488 0.0
C847 C 0.83325 0.1413 0.49431 0.0
C848 C 0.81318 0.13871 0.4882 0.0
C849 C 0.8706 0.14484 0.50705 0.0
C850 C 0.85554 0.14639 0.51983 0.0
C851 C 0.83708 0.14451 0.51334 0.0
C852 C 0.8587 0.14951 0.54008 0.0
C853 C 0.89075 0.14585 0.51338 0.0
C854 C 0.85287 0.13603 0.55314 0.0
C855 C 0.85625 0.13865 0.57223 0.0
C856 C 0.86545 0.15486 0.57863 0.0
C857 C 0.87096 0.1685 0.5655 0.0
C858 C 0.86756 0.16587 0.54641 0.0
H859 H 0.90045 0.13984 0.5028 0.0
H860 H 0.89468 0.16073 0.51558 0.0
H861 H 0.89274 0.13829 0.52683 0.0
H862 H 0.8459 0.12336 0.54852 0.0
H863 H 0.85158 0.12801 0.582 0.0
H864 H 0.87829 0.8162 0.42926 0.0
H865 H 0.87202 0.81945 0.46281 0.0
H866 H 0.84878 0.87438 0.45323 0.0
H867 H 0.85449 0.87104 0.41961 0.0
H868 H 0.88591 0.84674 0.48702 0.0
H869 H 0.80825 0.84834 0.48457 0.0
H870 H 0.82235 0.84039 0.46513 0.0
H871 H 0.81925 0.86504 0.46929 0.0
C872 C 0.87158 0.82885 0.43425 0.0
C873 C 0.8668 0.84333 0.42176 0.0
C874 C 0.86812 0.83073 0.45343 0.0
C875 C 0.8597 0.84704 0.46044 0.0
C876 C 0.85498 0.86154 0.44805 0.0
H877 H 0.86037 0.89139 0.57277 0.0
H878 H 0.86531 0.88457 0.53959 0.0
C879 C 0.85845 0.85969 0.42888 0.0
C880 C 0.85649 0.8492 0.48081 0.0
H881 H 0.82247 0.85715 0.51347 0.0
C882 C 0.87204 0.8489 0.49284 0.0
C883 C 0.83835 0.85176 0.48836 0.0
C884 C 0.82106 0.85123 0.47621 0.0
C885 C 0.86998 0.85162 0.51219 0.0
C886 C 0.85192 0.855 0.51963 0.0
C887 C 0.83631 0.85476 0.50768 0.0
C888 C 0.84898 0.85903 0.53975 0.0
C889 C 0.88712 0.85075 0.52453 0.0
C890 C 0.8378 0.84715 0.55072 0.0
C891 C 0.83496 0.851 0.5697 0.0
C892 C 0.84318 0.86686 0.57803 0.0
C893 C 0.85417 0.87885 0.5669 0.0
C894 C 0.85699 0.87499 0.54793 0.0
H895 H 0.89883 0.84321 0.51758 0.0
H896 H 0.89191 0.8652 0.52765 0.0
H897 H 0.88393 0.84367 0.53802 0.0
H898 H 0.83143 0.8348 0.54462 0.0
H899 H 0.82655 0.84141 0.57792 0.0
H900 H 0.15347 0.82509 0.5789 0.0
H901 H 0.15999 0.82928 0.54547 0.0
H902 H 0.10997 0.86265 0.53978 0.0
H903 H 0.10324 0.85842 0.57309 0.0
H904 H 0.13787 0.81991 0.5141 0.0
H905 H 0.15136 0.89639 0.51803 0.0
H906 H 0.15081 0.88157 0.53852 0.0
H907 H 0.12933 0.88929 0.52789 0.0
C908 C 0.14378 0.83321 0.5705 0.0
C909 C 0.12792 0.84156 0.57869 0.0
C910 C 0.14757 0.83565 0.55144 0.0
C911 C 0.13563 0.84654 0.54026 0.0
C912 C 0.11959 0.85456 0.54828 0.0
H913 H 0.12705 0.85151 0.41942 0.0
H914 H 0.1224 0.84592 0.45291 0.0
C915 C 0.11578 0.85214 0.56732 0.0
C916 C 0.13983 0.84939 0.52015 0.0
H917 H 0.14874 0.88324 0.48755 0.0
C918 C 0.14033 0.83374 0.50828 0.0
C919 C 0.14329 0.86742 0.51268 0.0
C920 C 0.14386 0.88463 0.52494 0.0
C921 C 0.14376 0.83568 0.48901 0.0
C922 C 0.14651 0.85379 0.48143 0.0
C923 C 0.14645 0.86939 0.49338 0.0
C924 C 0.14944 0.8569 0.46113 0.0
C925 C 0.14461 0.81834 0.47696 0.0
C926 C 0.166 0.8653 0.45471 0.0
C927 C 0.16863 0.86869 0.4356 0.0
C928 C 0.15466 0.86384 0.42257 0.0
C929 C 0.13803 0.85551 0.4291 0.0
C930 C 0.13543 0.85211 0.4482 0.0
H931 H 0.14716 0.80555 0.48546 0.0
H932 H 0.13104 0.81657 0.4696 0.0
H933 H 0.15582 0.81954 0.46624 0.0
H934 H 0.17691 0.86925 0.4645 0.0
H935 H 0.18146 0.87541 0.43109 0.0
H936 H 0.41784 0.14735 0.12564 0.0
H937 H 0.45132 0.15269 0.12051 0.0
H938 H 0.46369 0.12705 0.17379 0.0
H939 H 0.43032 0.12111 0.17879 0.0
H940 H 0.47716 0.17293 0.14217 0.0
H941 H 0.49666 0.09781 0.13678 0.0
H942 H 0.4727 0.10578 0.13544 0.0
H943 H 0.48416 0.10385 0.15778 0.0
C944 C 0.4277 0.14271 0.1362 0.0
C945 C 0.42142 0.1337 0.15257 0.0
C946 C 0.4468 0.14588 0.1333 0.0
C947 C 0.45997 0.14003 0.14665 0.0
C948 C 0.45375 0.1314 0.16318 0.0
H949 H 0.57726 0.17234 0.15354 0.0
H950 H 0.54361 0.16832 0.15881 0.0
C951 C 0.43466 0.12821 0.1661 0.0
C952 C 0.48022 0.14294 0.14323 0.0
H953 H 0.52162 0.1197 0.13756 0.0
C954 C 0.4869 0.16131 0.14114 0.0
C955 C 0.49281 0.12773 0.14164 0.0
C956 C 0.48625 0.10766 0.14285 0.0
C957 C 0.50594 0.1649 0.13774 0.0
C958 C 0.51861 0.1497 0.13668 0.0
C959 C 0.51188 0.13133 0.13854 0.0
C960 C 0.5389 0.15251 0.13338 0.0
C961 C 0.51226 0.18488 0.13497 0.0
C962 C 0.54745 0.14466 0.11752 0.0
C963 C 0.56666 0.14688 0.11451 0.0
C964 C 0.5777 0.15693 0.12736 0.0
C965 C 0.56908 0.16476 0.14325 0.0
C966 C 0.54987 0.16249 0.14627 0.0
H967 H 0.50035 0.19427 0.13145 0.0
H968 H 0.51872 0.19006 0.14812 0.0
H969 H 0.52289 0.18585 0.12365 0.0
H970 H 0.53922 0.13688 0.10742 0.0
H971 H 0.57281 0.14088 0.102 0.0
H972 H 0.87255 0.58128 0.14555 0.0
H973 H 0.87697 0.54767 0.15058 0.0
H974 H 0.82264 0.53679 0.12653 0.0
H975 H 0.81834 0.57031 0.12087 0.0
H976 H 0.85532 0.52252 0.17147 0.0
H977 H 0.8577 0.50272 0.09626 0.0
H978 H 0.8599 0.52666 0.1041 0.0
H979 H 0.83725 0.51572 0.10303 0.0
C980 C 0.86161 0.57172 0.14116 0.0
C981 C 0.84514 0.57847 0.1327 0.0
C982 C 0.86411 0.55255 0.14417 0.0
C983 C 0.85024 0.53975 0.1387 0.0
C984 C 0.83364 0.54643 0.13058 0.0
H985 H 0.84332 0.42241 0.1718 0.0
H986 H 0.83779 0.456 0.16758 0.0
C987 C 0.83112 0.56561 0.12755 0.0
C988 C 0.85321 0.51942 0.14155 0.0
H989 H 0.85742 0.47787 0.11826 0.0
C990 C 0.85578 0.51273 0.15986 0.0
C991 C 0.85403 0.50676 0.12633 0.0
C992 C 0.85225 0.51329 0.1063 0.0
C993 C 0.859 0.49366 0.16339 0.0
C994 C 0.85938 0.48094 0.1482 0.0
C995 C 0.85696 0.48765 0.12988 0.0
C996 C 0.86272 0.46065 0.15095 0.0
C997 C 0.86237 0.48734 0.18328 0.0
C998 C 0.87836 0.45208 0.1427 0.0
C999 C 0.88153 0.43292 0.14505 0.0
C1000 C 0.86905 0.42192 0.15563 0.0
C1001 C 0.85334 0.43055 0.16381 0.0
C1002 C 0.85016 0.44973 0.16142 0.0
H1003 H 0.8662 0.49924 0.19255 0.0
H1004 H 0.84937 0.48089 0.18887 0.0
H1005 H 0.8737 0.4767 0.1839 0.0
H1006 H 0.88821 0.46028 0.13456 0.0
H1007 H 0.8939 0.42677 0.13877 0.0
H1008 H 0.57106 0.87854 0.17992 0.0
H1009 H 0.53766 0.8719 0.17595 0.0
H1010 H 0.54909 0.84563 0.12278 0.0
H1011 H 0.58256 0.85172 0.12686 0.0
H1012 H 0.51454 0.88433 0.14702 0.0
H1013 H 0.51661 0.80667 0.1499 0.0
H1014 H 0.53583 0.82113 0.15775 0.0
H1015 H 0.53249 0.81676 0.13318 0.0
C1016 C 0.56651 0.87107 0.16753 0.0
C1017 C 0.57948 0.86557 0.15374 0.0
C1018 C 0.54742 0.8674 0.16523 0.0
C1019 C 0.54095 0.85806 0.1492 0.0
C1020 C 0.55383 0.85256 0.13541 0.0
H1021 H 0.42901 0.85692 0.10293 0.0
H1022 H 0.46233 0.8615 0.10938 0.0
C1023 C 0.57292 0.85624 0.13768 0.0
C1024 C 0.52064 0.8548 0.14651 0.0
H1025 H 0.48798 0.8205 0.13976 0.0
C1026 C 0.5087 0.87038 0.14553 0.0
C1027 C 0.51307 0.83657 0.14478 0.0
C1028 C 0.52511 0.8193 0.14663 0.0
C1029 C 0.48941 0.86824 0.14245 0.0
C1030 C 0.48194 0.85005 0.14002 0.0
C1031 C 0.4938 0.83444 0.14144 0.0
C1032 C 0.46184 0.84697 0.13598 0.0
C1033 C 0.47715 0.88546 0.14199 0.0
C1034 C 0.45064 0.83687 0.14858 0.0
C1035 C 0.43158 0.83424 0.14496 0.0
C1036 C 0.42339 0.84162 0.12861 0.0
C1037 C 0.43477 0.85141 0.11584 0.0
C1038 C 0.45382 0.85402 0.11948 0.0
H1039 H 0.48407 0.89765 0.14876 0.0
H1040 H 0.47418 0.88924 0.12721 0.0
H1041 H 0.46358 0.88282 0.14913 0.0
H1042 H 0.4566 0.83127 0.16137 0.0
H1043 H 0.42317 0.82677 0.15515 0.0
H1044 H 0.1308 0.41691 0.15141 0.0
H1045 H 0.12675 0.45059 0.15631 0.0
H1046 H 0.18085 0.46085 0.13146 0.0
H1047 H 0.18477 0.42728 0.12592 0.0
H1048 H 0.14872 0.47636 0.17632 0.0
H1049 H 0.14533 0.49389 0.10056 0.0
H1050 H 0.14326 0.4702 0.10916 0.0
H1051 H 0.16588 0.48112 0.10748 0.0
C1052 C 0.14179 0.42635 0.14689 0.0
C1053 C 0.15804 0.41942 0.13816 0.0
C1054 C 0.13951 0.44556 0.14981 0.0
C1055 C 0.15338 0.45819 0.144 0.0
C1056 C 0.16986 0.45133 0.13577 0.0
H1057 H 0.15956 0.57666 0.17323 0.0
H1058 H 0.16549 0.54302 0.17016 0.0
C1059 C 0.17215 0.43212 0.13282 0.0
C1060 C 0.15044 0.47858 0.1463 0.0
H1061 H 0.14567 0.51935 0.12177 0.0
C1062 C 0.14807 0.4858 0.16442 0.0
C1063 C 0.14936 0.49076 0.1307 0.0
C1064 C 0.15092 0.48363 0.11085 0.0
C1065 C 0.14475 0.50495 0.16739 0.0
C1066 C 0.14407 0.51718 0.15181 0.0
C1067 C 0.14634 0.50994 0.13369 0.0
C1068 C 0.14049 0.53749 0.15392 0.0
C1069 C 0.14158 0.51185 0.18712 0.0
C1070 C 0.12469 0.54557 0.14549 0.0
C1071 C 0.1213 0.56476 0.14715 0.0
C1072 C 0.13372 0.57625 0.15723 0.0
C1073 C 0.1496 0.56812 0.16561 0.0
C1074 C 0.15299 0.54892 0.16389 0.0
H1075 H 0.138 0.50021 0.19682 0.0
H1076 H 0.15458 0.51861 0.19232 0.0
H1077 H 0.13015 0.5224 0.18754 0.0
H1078 H 0.11488 0.53697 0.13772 0.0
H1079 H 0.10882 0.57054 0.14075 0.0
H1080 H 0.42623 0.88088 0.81309 0.0
H1081 H 0.45975 0.87442 0.81634 0.0
H1082 H 0.44975 0.84923 0.87034 0.0
H1083 H 0.41618 0.85509 0.86697 0.0
H1084 H 0.48378 0.88731 0.84402 0.0
H1085 H 0.48133 0.80966 0.84346 0.0
H1086 H 0.46188 0.82397 0.8359 0.0
H1087 H 0.46599 0.82009 0.86045 0.0
C1088 C 0.43112 0.87369 0.82553 0.0
C1089 C 0.41852 0.86841 0.83974 0.0
C1090 C 0.45028 0.87013 0.82741 0.0
C1091 C 0.45717 0.86111 0.84345 0.0
C1092 C 0.44467 0.85589 0.85769 0.0
H1093 H 0.56901 0.86109 0.88896 0.0
H1094 H 0.53589 0.86604 0.88185 0.0
C1095 C 0.42552 0.85945 0.85583 0.0
C1096 C 0.47754 0.85784 0.84568 0.0
H1097 H 0.51011 0.82363 0.85317 0.0
C1098 C 0.48957 0.87338 0.84589 0.0
C1099 C 0.48506 0.83964 0.84785 0.0
C1100 C 0.47293 0.82236 0.84673 0.0
C1101 C 0.50889 0.87126 0.84878 0.0
C1102 C 0.51629 0.85313 0.85182 0.0
C1103 C 0.50435 0.83753 0.85104 0.0
C1104 C 0.53636 0.85009 0.85607 0.0
C1105 C 0.52123 0.88842 0.84843 0.0
C1106 C 0.54748 0.83908 0.84419 0.0
C1107 C 0.56643 0.83622 0.84821 0.0
C1108 C 0.57457 0.84426 0.86426 0.0
C1109 C 0.56328 0.85504 0.87628 0.0
C1110 C 0.54435 0.85787 0.87225 0.0
H1111 H 0.5144 0.90026 0.84097 0.0
H1112 H 0.52406 0.89296 0.86303 0.0
H1113 H 0.53485 0.88539 0.84156 0.0
H1114 H 0.54153 0.83288 0.83167 0.0
H1115 H 0.57477 0.82795 0.83861 0.0
H1116 H 0.12169 0.42864 0.82026 0.0
H1117 H 0.12805 0.46207 0.82381 0.0
H1118 H 0.15461 0.45149 0.87704 0.0
H1119 H 0.14894 0.4179 0.87328 0.0
H1120 H 0.11545 0.48535 0.85162 0.0
H1121 H 0.19316 0.48416 0.85026 0.0
H1122 H 0.1791 0.46448 0.84286 0.0
H1123 H 0.18307 0.46871 0.86737 0.0
C1124 C 0.1292 0.43335 0.83257 0.0
C1125 C 0.13493 0.42057 0.84644 0.0
C1126 C 0.1327 0.45249 0.83463 0.0
C1127 C 0.14204 0.45922 0.85055 0.0
C1128 C 0.14772 0.44654 0.86446 0.0
H1129 H 0.1402 0.57254 0.89334 0.0
H1130 H 0.1363 0.53897 0.88786 0.0
C1131 C 0.14426 0.42738 0.8624 0.0
C1132 C 0.14504 0.4796 0.85296 0.0
H1133 H 0.17881 0.51284 0.85951 0.0
C1134 C 0.12931 0.49138 0.85326 0.0
C1135 C 0.16315 0.48744 0.85485 0.0
C1136 C 0.18061 0.47559 0.85365 0.0
C1137 C 0.13115 0.51077 0.85577 0.0
C1138 C 0.1492 0.51852 0.85839 0.0
C1139 C 0.16498 0.50681 0.8577 0.0
C1140 C 0.15195 0.53877 0.86189 0.0
C1141 C 0.11378 0.52282 0.85537 0.0
C1142 C 0.16251 0.54966 0.84939 0.0
C1143 C 0.16479 0.56886 0.85249 0.0
C1144 C 0.15658 0.57747 0.8682 0.0
C1145 C 0.14634 0.56641 0.88089 0.0
C1146 C 0.14411 0.54723 0.8778 0.0
H1147 H 0.10193 0.5156 0.8483 0.0
H1148 H 0.10942 0.52599 0.86995 0.0
H1149 H 0.11648 0.53629 0.84806 0.0
H1150 H 0.16873 0.54336 0.83707 0.0
H1151 H 0.17267 0.57703 0.84242 0.0
H1152 H 0.42965 0.1851 0.87442 0.0
H1153 H 0.46304 0.18126 0.86766 0.0
H1154 H 0.45217 0.12651 0.84457 0.0
H1155 H 0.41871 0.13044 0.85078 0.0
H1156 H 0.48642 0.15345 0.88174 0.0
H1157 H 0.48438 0.15151 0.80407 0.0
H1158 H 0.46506 0.16002 0.81801 0.0
H1159 H 0.46865 0.13526 0.81509 0.0
C1160 C 0.43432 0.17238 0.86759 0.0
C1161 C 0.42152 0.1581 0.86306 0.0
C1162 C 0.4534 0.17017 0.86385 0.0
C1163 C 0.46002 0.15372 0.8554 0.0
C1164 C 0.4473 0.13946 0.85079 0.0
H1165 H 0.57145 0.10706 0.85731 0.0
H1166 H 0.5382 0.11419 0.86138 0.0
C1167 C 0.42822 0.14164 0.85455 0.0
C1168 C 0.48034 0.15104 0.85229 0.0
H1169 H 0.51302 0.14213 0.81852 0.0
C1170 C 0.49227 0.15109 0.86791 0.0
C1171 C 0.48792 0.14819 0.83421 0.0
C1172 C 0.47589 0.1489 0.81685 0.0
C1173 C 0.51155 0.14788 0.86599 0.0
C1174 C 0.51902 0.14426 0.848 0.0
C1175 C 0.50719 0.14471 0.83231 0.0
C1176 C 0.53907 0.13983 0.84524 0.0
C1177 C 0.5238 0.14851 0.88321 0.0
C1178 C 0.55044 0.15165 0.83442 0.0
C1179 C 0.56946 0.14764 0.83209 0.0
C1180 C 0.57742 0.13168 0.84048 0.0
C1181 C 0.56586 0.11968 0.851 0.0
C1182 C 0.54686 0.1237 0.85332 0.0
H1183 H 0.5169 0.15613 0.89491 0.0
H1184 H 0.52667 0.134 0.88798 0.0
H1185 H 0.53742 0.15538 0.88012 0.0
H1186 H 0.54464 0.16414 0.82802 0.0
H1187 H 0.57801 0.15724 0.82401 0.0
H1188 H 0.87167 0.57943 0.87459 0.0
H1189 H 0.86811 0.546 0.87949 0.0
H1190 H 0.86805 0.53711 0.81972 0.0
H1191 H 0.87388 0.57023 0.81466 0.0
H1192 H 0.84189 0.52392 0.87205 0.0
H1193 H 0.90347 0.49744 0.83337 0.0
H1194 H 0.90011 0.52203 0.83792 0.0
H1195 H 0.88868 0.51096 0.81828 0.0
C1196 C 0.87154 0.57041 0.86242 0.0
C1197 C 0.87332 0.57779 0.84419 0.0
C1198 C 0.86921 0.55121 0.86527 0.0
C1199 C 0.86816 0.53887 0.85001 0.0
C1200 C 0.86942 0.54618 0.83179 0.0
H1201 H 0.81729 0.42887 0.86285 0.0
H1202 H 0.82366 0.46168 0.85659 0.0
C1203 C 0.87233 0.56533 0.82891 0.0
C1204 C 0.86491 0.51854 0.85324 0.0
H1205 H 0.87993 0.47482 0.84101 0.0
C1206 C 0.85037 0.51321 0.86539 0.0
C1207 C 0.87612 0.50447 0.84485 0.0
C1208 C 0.89308 0.50903 0.83306 0.0
C1209 C 0.84665 0.49432 0.86931 0.0
C1210 C 0.85708 0.48024 0.85999 0.0
C1211 C 0.87173 0.48556 0.84796 0.0
C1212 C 0.85331 0.45995 0.86279 0.0
C1213 C 0.83196 0.4898 0.88385 0.0
C1214 C 0.86801 0.44768 0.86726 0.0
C1215 C 0.86458 0.42861 0.86994 0.0
C1216 C 0.84628 0.42135 0.86857 0.0
C1217 C 0.83162 0.4337 0.86386 0.0
C1218 C 0.83517 0.45267 0.86066 0.0
H1219 H 0.83022 0.5015 0.89397 0.0
H1220 H 0.81826 0.48766 0.87682 0.0
H1221 H 0.83556 0.47694 0.89182 0.0
H1222 H 0.8822 0.45287 0.86877 0.0
H1223 H 0.87638 0.41959 0.87299 0.0
H1224 H 0.12388 0.94255 0.33013 0.0
H1225 H 0.11132 0.97335 0.3209 0.0
H1226 H 0.16499 0.99855 0.3325 0.0
H1227 H 0.17749 0.9681 0.34157 0.0
H1228 H 0.11098 0.00636 0.34505 0.0
H1229 H 0.15077 0.01851 0.27972 0.0
H1230 H 0.14699 0.99538 0.28935 0.0
H1231 H 0.16535 0.0101 0.2984 0.0
C1232 C 0.13299 0.95467 0.33045 0.0
C1233 C 0.15162 0.95299 0.33666 0.0
C1234 C 0.12582 0.9722 0.32522 0.0
C1235 C 0.13732 0.98813 0.32577 0.0
C1236 C 0.15597 0.98637 0.33168 0.0
H1237 H 0.15526 0.09863 0.33808 0.0
H1238 H 0.15276 0.06525 0.33184 0.0
C1239 C 0.16304 0.969 0.33707 0.0
C1240 C 0.1299 0.00703 0.32159 0.0
H1241 H 0.14126 0.04631 0.29689 0.0
C1242 C 0.11706 0.01502 0.33413 0.0
C1243 C 0.13778 0.01819 0.30726 0.0
C1244 C 0.15085 0.01005 0.29279 0.0
C1245 C 0.11339 0.03436 0.3339 0.0
C1246 C 0.12272 0.0458 0.32068 0.0
C1247 C 0.13419 0.03749 0.30706 0.0
C1248 C 0.12377 0.06635 0.32309 0.0
C1249 C 0.10093 0.0427 0.34879 0.0
C1250 C 0.1083 0.07809 0.31999 0.0
C1251 C 0.10969 0.09738 0.32355 0.0
C1252 C 0.12654 0.10503 0.33036 0.0
C1253 C 0.14203 0.09319 0.33301 0.0
C1254 C 0.14067 0.0741 0.32936 0.0
H1255 H 0.0953 0.03192 0.35851 0.0
H1256 H 0.10887 0.05321 0.35706 0.0
H1257 H 0.08898 0.05003 0.34208 0.0
H1258 H 0.09516 0.07233 0.31504 0.0
H1259 H 0.09752 0.10618 0.32137 0.0
H1260 H 0.8863 0.10115 0.32113 0.0
H1261 H 0.92012 0.09815 0.31539 0.0
H1262 H 0.92778 0.15615 0.33048 0.0
H1263 H 0.8943 0.15934 0.33593 0.0
H1264 H 0.94857 0.14503 0.29879 0.0
H1265 H 0.95777 0.0965 0.35933 0.0
H1266 H 0.94146 0.08991 0.34128 0.0
H1267 H 0.93649 0.1097 0.35595 0.0
C1268 C 0.8952 0.11329 0.323 0.0
C1269 C 0.88767 0.13043 0.32919 0.0
C1270 C 0.9145 0.11153 0.3198 0.0
C1271 C 0.92645 0.12688 0.32274 0.0
C1272 C 0.9188 0.14413 0.32814 0.0
H1273 H 0.02962 0.15649 0.36343 0.0
H1274 H 0.99839 0.14493 0.35601 0.0
C1275 C 0.89964 0.14589 0.33135 0.0
C1276 C 0.94708 0.12517 0.32141 0.0
H1277 H 0.98484 0.1094 0.34614 0.0
C1278 C 0.9566 0.13689 0.30881 0.0
C1279 C 0.95742 0.11457 0.33458 0.0
C1280 C 0.94787 0.102 0.34866 0.0
C1281 C 0.97607 0.13936 0.30991 0.0
C1282 C 0.98628 0.12958 0.3238 0.0
C1283 C 0.97694 0.11683 0.3355 0.0
C1284 C 0.00584 0.13472 0.32846 0.0
C1285 C 0.98533 0.15351 0.29719 0.0
C1286 C 0.02053 0.13245 0.31557 0.0
C1287 C 0.03845 0.13928 0.31973 0.0
C1288 C 0.04192 0.14846 0.33683 0.0
C1289 C 0.02733 0.14989 0.34998 0.0
C1290 C 0.00951 0.1431 0.34583 0.0
H1291 H 0.97497 0.1617 0.28895 0.0
H1292 H 0.994 0.16341 0.30548 0.0
H1293 H 0.99471 0.14613 0.28723 0.0
H1294 H 0.01803 0.12577 0.30218 0.0
H1295 H 0.04939 0.13796 0.30931 0.0
H1296 H 0.84121 0.89866 0.33331 0.0
H1297 H 0.84444 0.93207 0.32771 0.0
H1298 H 0.90365 0.92503 0.3178 0.0
H1299 H 0.90054 0.89121 0.32365 0.0
H1300 H 0.89592 0.95292 0.34327 0.0
H1301 H 0.85187 0.96296 0.2807 0.0
H1302 H 0.83955 0.94938 0.29786 0.0
H1303 H 0.8607 0.94023 0.28753 0.0
C1304 C 0.85492 0.90411 0.32971 0.0
C1305 C 0.87064 0.8923 0.32899 0.0
C1306 C 0.8567 0.92323 0.32631 0.0
C1307 C 0.87421 0.93101 0.32199 0.0
C1308 C 0.88996 0.91925 0.32089 0.0
H1309 H 0.85808 0.05258 0.31123 0.0
H1310 H 0.8719 0.02209 0.30351 0.0
C1311 C 0.88816 0.89997 0.32421 0.0
C1312 C 0.87596 0.95165 0.32064 0.0
H1313 H 0.8532 0.98948 0.30241 0.0
C1314 C 0.88699 0.96098 0.33397 0.0
C1315 C 0.86467 0.96223 0.30826 0.0
C1316 C 0.85371 0.95315 0.29265 0.0
C1317 C 0.88556 0.98043 0.33647 0.0
C1318 C 0.87251 0.99067 0.32561 0.0
C1319 C 0.86295 0.98161 0.31101 0.0
C1320 C 0.86662 0.00991 0.33077 0.0
C1321 C 0.89748 0.98968 0.35125 0.0
C1322 C 0.85913 0.01321 0.34864 0.0
C1323 C 0.85131 0.03054 0.35308 0.0
C1324 C 0.85059 0.04495 0.33967 0.0
C1325 C 0.85856 0.04183 0.32191 0.0
C1326 C 0.86641 0.02441 0.31746 0.0
H1327 H 0.91107 0.98225 0.35288 0.0
H1328 H 0.9003 0.0046 0.34782 0.0
H1329 H 0.89011 0.98903 0.36492 0.0
H1330 H 0.85868 0.00213 0.35901 0.0
H1331 H 0.84552 0.03255 0.36694 0.0
H1332 H 0.94709 0.87624 0.33051 0.0
H1333 H 0.97837 0.8878 0.32152 0.0
H1334 H 0.00101 0.83238 0.32963 0.0
H1335 H 0.97009 0.82089 0.33849 0.0
H1336 H 0.01156 0.88492 0.34542 0.0
H1337 H 0.02124 0.8489 0.27754 0.0
H1338 H 0.9984 0.85322 0.28762 0.0
H1339 H 0.01225 0.83365 0.29542 0.0
C1340 C 0.95875 0.86655 0.3301 0.0
C1341 C 0.95623 0.84771 0.33531 0.0
C1342 C 0.97655 0.87315 0.32501 0.0
C1343 C 0.99191 0.86087 0.32467 0.0
C1344 C 0.98928 0.84201 0.32951 0.0
H1345 H 0.10291 0.8383 0.33231 0.0
H1346 H 0.06954 0.84176 0.32636 0.0
C1347 C 0.97165 0.83551 0.33478 0.0
C1348 C 0.01112 0.86761 0.32076 0.0
H1349 H 0.04956 0.85638 0.29472 0.0
C1350 C 0.01982 0.87922 0.33401 0.0
C1351 C 0.02176 0.8602 0.30581 0.0
C1352 C 0.01289 0.84845 0.29067 0.0
C1353 C 0.0393 0.88208 0.33374 0.0
C1354 C 0.05018 0.87328 0.3197 0.0
C1355 C 0.0412 0.86304 0.30552 0.0
C1356 C 0.07079 0.87164 0.32143 0.0
C1357 C 0.04829 0.89313 0.34937 0.0
C1358 C 0.08268 0.88728 0.32023 0.0
C1359 C 0.10194 0.88534 0.32366 0.0
C1360 C 0.10946 0.86774 0.32841 0.0
C1361 C 0.09755 0.85208 0.32887 0.0
C1362 C 0.07846 0.85401 0.32538 0.0
H1363 H 0.03798 0.89758 0.36014 0.0
H1364 H 0.05936 0.88465 0.35627 0.0
H1365 H 0.05503 0.90585 0.3435 0.0
H1366 H 0.07703 0.90098 0.31699 0.0
H1367 H 0.11079 0.89766 0.32318 0.0
H1368 H 0.13972 0.05075 0.68768 0.0
H1369 H 0.12722 0.0196 0.69486 0.0
H1370 H 0.1468 -0.00055 0.64139 0.0
H1371 H 0.15862 0.03054 0.63383 0.0
H1372 H 0.11109 0.98652 0.65062 0.0
H1373 H 0.16172 0.97599 0.70911 0.0
H1374 H 0.14654 0.99602 0.71057 0.0
H1375 H 0.16407 0.99495 0.69257 0.0
C1376 C 0.14111 0.03977 0.67733 0.0
C1377 C 0.15042 0.04311 0.66026 0.0
C1378 C 0.1341 0.02194 0.68154 0.0
C1379 C 0.13635 0.00716 0.66878 0.0
C1380 C 0.14499 0.01064 0.65148 0.0
H1381 H 0.15674 0.8941 0.66504 0.0
H1382 H 0.15496 0.92782 0.66938 0.0
C1383 C 0.15193 0.0284 0.64726 0.0
C1384 C 0.13069 0.98774 0.67347 0.0
H1385 H 0.14392 0.95009 0.69983 0.0
C1386 C 0.11794 0.97859 0.66162 0.0
C1387 C 0.13972 0.97749 0.68784 0.0
C1388 C 0.15387 0.98649 0.70072 0.0
C1389 C 0.11487 0.95921 0.66296 0.0
C1390 C 0.12462 0.94881 0.67673 0.0
C1391 C 0.13641 0.95817 0.68937 0.0
C1392 C 0.12539 0.92808 0.67609 0.0
C1393 C 0.10232 0.94981 0.64878 0.0
C1394 C 0.10941 0.91694 0.67885 0.0
C1395 C 0.11036 0.89748 0.67629 0.0
C1396 C 0.12733 0.889 0.67092 0.0
C1397 C 0.14341 0.90018 0.66898 0.0
C1398 C 0.14245 0.91948 0.67156 0.0
H1399 H 0.09767 0.95961 0.63761 0.0
H1400 H 0.10968 0.93784 0.64212 0.0
H1401 H 0.08969 0.94426 0.65594 0.0
H1402 H 0.09616 0.9233 0.68261 0.0
H1403 H 0.09775 0.88921 0.67795 0.0
H1404 H 0.09913 0.15507 0.66671 0.0
H1405 H 0.066 0.15093 0.67311 0.0
H1406 H 0.0751 0.09221 0.68414 0.0
H1407 H 0.10869 0.09624 0.67743 0.0
H1408 H 0.04658 0.09821 0.65926 0.0
H1409 H 0.03588 0.14385 0.72042 0.0
H1410 H 0.04888 0.15624 0.70289 0.0
H1411 H 0.05883 0.13562 0.71359 0.0
C1412 C 0.0942 0.14129 0.67072 0.0
C1413 C 0.10651 0.12595 0.67147 0.0
C1414 C 0.07524 0.13899 0.67461 0.0
C1415 C 0.0681 0.12134 0.67946 0.0
C1416 C 0.08038 0.106 0.68064 0.0
H1417 H 0.94677 0.13779 0.68924 0.0
H1418 H 0.97696 0.1239 0.69781 0.0
C1419 C 0.09953 0.10832 0.67683 0.0
C1420 C 0.04754 0.119 0.68114 0.0
H1421 H 0.00938 0.14185 0.6985 0.0
C1422 C 0.03839 0.10733 0.66824 0.0
C1423 C 0.03677 0.13049 0.69316 0.0
C1424 C 0.04564 0.14208 0.70843 0.0
C1425 C 0.01892 0.10838 0.66567 0.0
C1426 C 0.0085 0.12175 0.67596 0.0
C1427 C 0.01738 0.13188 0.69028 0.0
C1428 C 0.98931 0.12743 0.67034 0.0
C1429 C 0.00987 0.09574 0.65138 0.0
C1430 C 0.98615 0.13392 0.65205 0.0
C1431 C 0.96896 0.14175 0.64711 0.0
C1432 C 0.95455 0.14352 0.66041 0.0
C1433 C 0.9575 0.1365 0.67861 0.0
C1434 C 0.97477 0.12861 0.68355 0.0
H1435 H 0.01728 0.08207 0.65061 0.0
H1436 H 0.99488 0.09314 0.65468 0.0
H1437 H 0.01082 0.10236 0.63734 0.0
H1438 H 0.99727 0.13366 0.64173 0.0
H1439 H 0.96709 0.14676 0.63293 0.0
H1440 H 0.87277 0.94723 0.67007 0.0
H1441 H 0.88452 0.97824 0.6797 0.0
H1442 H 0.8302 0.00217 0.66844 0.0
H1443 H 0.81851 0.97152 0.65892 0.0
H1444 H 0.88345 0.01167 0.65549 0.0
H1445 H 0.84444 0.02163 0.72171 0.0
H1446 H 0.84898 0.99877 0.71179 0.0
H1447 H 0.83003 0.01289 0.70304 0.0
C1448 C 0.86335 0.95912 0.66991 0.0
C1449 C 0.84478 0.95704 0.66364 0.0
C1450 C 0.87006 0.97675 0.67536 0.0
C1451 C 0.85813 0.99239 0.67501 0.0
C1452 C 0.83953 0.99021 0.66909 0.0
H1453 H 0.83855 0.10425 0.66811 0.0
H1454 H 0.84078 0.07073 0.67379 0.0
C1455 C 0.83293 0.97274 0.66345 0.0
C1456 C 0.86507 0.01141 0.67936 0.0
H1457 H 0.85353 0.04985 0.70524 0.0
C1458 C 0.87743 0.01996 0.6667 0.0
C1459 C 0.85721 0.02208 0.69405 0.0
C1460 C 0.84456 0.01333 0.70855 0.0
C1461 C 0.88068 0.03936 0.66726 0.0
C1462 C 0.87153 0.05031 0.68103 0.0
C1463 C 0.86047 0.04144 0.69466 0.0
C1464 C 0.87055 0.07097 0.67952 0.0
C1465 C 0.89258 0.04822 0.65219 0.0
C1466 C 0.88652 0.08233 0.68128 0.0
C1467 C 0.8853 0.10165 0.67796 0.0
C1468 C 0.86809 0.10979 0.67282 0.0
C1469 C 0.85205 0.09842 0.67185 0.0
C1470 C 0.85328 0.07924 0.67519 0.0
H1471 H 0.89701 0.03795 0.64136 0.0
H1472 H 0.88478 0.05974 0.64522 0.0
H1473 H 0.90535 0.05434 0.6586 0.0
H1474 H 0.89994 0.07622 0.68485 0.0
H1475 H 0.89788 0.11007 0.67888 0.0
H1476 H 0.02768 0.84803 0.63391 0.0
H1477 H 0.99708 0.86056 0.64212 0.0
H1478 H 0.01691 0.87309 0.69781 0.0
H1479 H 0.0476 0.85984 0.6898 0.0
H1480 H 0.9846 0.85415 0.69883 0.0
H1481 H 0.97635 0.91236 0.64895 0.0
H1482 H 0.98327 0.89165 0.63659 0.0
H1483 H 0.99886 0.9018 0.65369 0.0
C1484 C 0.02561 0.85354 0.64788 0.0
C1485 C 0.04005 0.85277 0.66124 0.0
C1486 C 0.00817 0.86101 0.65248 0.0
C1487 C 0.00476 0.86811 0.67049 0.0
C1488 C 0.01929 0.86788 0.68376 0.0
H1489 H 0.88588 0.90097 0.67756 0.0
H1490 H 0.91966 0.90418 0.68346 0.0
C1491 C 0.03684 0.86038 0.67914 0.0
C1492 C 0.98542 0.87364 0.67576 0.0
H1493 H 0.94727 0.89667 0.65848 0.0
C1494 C 0.97656 0.86385 0.69034 0.0
C1495 C 0.97495 0.88663 0.66505 0.0
C1496 C 0.98395 0.89885 0.65035 0.0
C1497 C 0.95717 0.86531 0.69323 0.0
C1498 C 0.94636 0.87654 0.68098 0.0
C1499 C 0.95549 0.88777 0.66766 0.0
C1500 C 0.92569 0.87468 0.67985 0.0
C1501 C 0.94836 0.8542 0.7089 0.0
C1502 C 0.91789 0.85708 0.6759 0.0
C1503 C 0.89877 0.85523 0.67252 0.0
C1504 C 0.88696 0.87096 0.67284 0.0
C1505 C 0.89462 0.88857 0.6773 0.0
C1506 C 0.91389 0.89043 0.68065 0.0
H1507 H 0.95824 0.85261 0.72082 0.0
H1508 H 0.93531 0.86093 0.71406 0.0
H1509 H 0.9449 0.83994 0.70376 0.0
H1510 H 0.92674 0.84481 0.67469 0.0
H1511 H 0.89334 0.84146 0.66914 0.0
H1512 H 0.35335 0.17416 0.97213 0.0
H1513 H 0.34554 0.16091 0.00253 0.0
H1514 H 0.31876 0.11397 0.97568 0.0
H1515 H 0.32704 0.12686 0.94487 0.0
H1516 H 0.29961 0.14148 0.00989 0.0
H1517 H 0.36677 0.10358 0.02135 0.0
H1518 H 0.36795 0.12598 0.00973 0.0
H1519 H 0.35661 0.10667 0.99834 0.0
C1520 C 0.34604 0.1609 0.97253 0.0
C1521 C 0.34097 0.15154 0.95594 0.0
C1522 C 0.34146 0.15343 0.98997 0.0
C1523 C 0.33165 0.1365 0.99125 0.0
C1524 C 0.32635 0.12709 0.97487 0.0
H1525 H 0.32785 0.09797 0.10815 0.0
H1526 H 0.32327 0.09486 0.07417 0.0
C1527 C 0.33102 0.13453 0.95731 0.0
C1528 C 0.32709 0.12906 0.00997 0.0
H1529 H 0.34857 0.1106 0.04839 0.0
C1530 C 0.31005 0.13424 0.01823 0.0
C1531 C 0.34069 0.11952 0.02066 0.0
C1532 C 0.35904 0.11346 0.01213 0.0
C1533 C 0.30687 0.13137 0.03742 0.0
C1534 C 0.32122 0.12339 0.04852 0.0
C1535 C 0.33759 0.11676 0.03987 0.0
C1536 C 0.32098 0.12468 0.06921 0.0
C1537 C 0.28857 0.13772 0.04583 0.0
C1538 C 0.32108 0.14244 0.07762 0.0
C1539 C 0.32387 0.14425 0.09685 0.0
C1540 C 0.32659 0.12833 0.10808 0.0
C1541 C 0.32567 0.11047 0.09982 0.0
C1542 C 0.32308 0.10867 0.08045 0.0
H1543 H 0.2771 0.13726 0.03531 0.0
H1544 H 0.28459 0.12892 0.05804 0.0
H1545 H 0.29 0.15244 0.05064 0.0
H1546 H 0.3199 0.15499 0.06917 0.0
H1547 H 0.32445 0.15818 0.10283 0.0
H1548 H 0.83992 0.32865 0.10582 0.0
H1549 H 0.84167 0.32233 0.0724 0.0
H1550 H 0.90183 0.31792 0.07606 0.0
H1551 H 0.90019 0.3244 0.10988 0.0
H1552 H 0.88925 0.3428 0.04849 0.0
H1553 H 0.85216 0.27535 0.04179 0.0
H1554 H 0.83919 0.29134 0.05617 0.0
H1555 H 0.86191 0.28336 0.06375 0.0
C1556 C 0.85353 0.32607 0.09962 0.0
C1557 C 0.86993 0.3271 0.11045 0.0
C1558 C 0.85449 0.32226 0.08052 0.0
C1559 C 0.87185 0.31934 0.07179 0.0
C1560 C 0.88828 0.31991 0.08261 0.0
H1561 H 0.87251 0.32874 0.94771 0.0
H1562 H 0.88499 0.32017 0.97867 0.0
C1563 C 0.88732 0.32359 0.10188 0.0
C1564 C 0.87252 0.31784 0.05111 0.0
H1565 H 0.84996 0.29639 0.01487 0.0
C1566 C 0.8812 0.33232 0.04101 0.0
C1567 C 0.86208 0.30409 0.04141 0.0
C1568 C 0.85348 0.28755 0.05136 0.0
C1569 C 0.87817 0.33441 0.02168 0.0
C1570 C 0.86631 0.32161 0.01233 0.0
C1571 C 0.85894 0.30626 0.02214 0.0
C1572 C 0.85903 0.32558 0.99335 0.0
C1573 C 0.8864 0.35112 0.01167 0.0
C1574 C 0.84029 0.33112 0.9914 0.0
C1575 C 0.83319 0.336 0.97389 0.0
C1576 C 0.84466 0.33535 0.9579 0.0
C1577 C 0.86334 0.32932 0.95978 0.0
C1578 C 0.8705 0.32452 0.97742 0.0
H1579 H 0.8944 0.36041 0.02126 0.0
H1580 H 0.89596 0.34625 0.00042 0.0
H1581 H 0.87507 0.35942 0.00497 0.0
H1582 H 0.83122 0.33198 0.00355 0.0
H1583 H 0.81868 0.34024 0.97287 0.0
H1584 H 0.62962 0.84816 0.9664 0.0
H1585 H 0.63871 0.86011 0.99699 0.0
H1586 H 0.69463 0.87051 0.97657 0.0
H1587 H 0.68577 0.85781 0.94595 0.0
H1588 H 0.69531 0.8514 0.00867 0.0
H1589 H 0.64786 0.91148 0.01785 0.0
H1590 H 0.63463 0.89125 0.0111 0.0
H1591 H 0.65184 0.90081 0.99525 0.0
C1592 C 0.64384 0.85306 0.96834 0.0
C1593 C 0.657 0.85186 0.95375 0.0
C1594 C 0.64894 0.8602 0.98578 0.0
C1595 C 0.66726 0.86655 0.98901 0.0
C1596 C 0.68035 0.86588 0.97433 0.0
H1597 H 0.67857 0.89957 0.10746 0.0
H1598 H 0.68349 0.90226 0.0735 0.0
C1599 C 0.67524 0.85869 0.95681 0.0
C1600 C 0.67301 0.87178 0.00828 0.0
H1601 H 0.65744 0.89551 0.04671 0.0
C1602 C 0.68736 0.86142 0.01687 0.0
C1603 C 0.66302 0.88517 0.01894 0.0
C1604 C 0.64863 0.89795 0.0102 0.0
C1605 C 0.69072 0.8628 0.03618 0.0
C1606 C 0.67916 0.87453 0.0472 0.0
C1607 C 0.66608 0.88623 0.03833 0.0
C1608 C 0.67851 0.87288 0.06789 0.0
C1609 C 0.70613 0.85112 0.04468 0.0
C1610 C 0.67411 0.85552 0.07597 0.0
C1611 C 0.67129 0.85395 0.09521 0.0
C1612 C 0.67263 0.86976 0.10684 0.0
C1613 C 0.67751 0.88712 0.09886 0.0
C1614 C 0.68031 0.88868 0.07949 0.0
H1615 H 0.71773 0.84897 0.03452 0.0
H1616 H 0.71189 0.85772 0.05754 0.0
H1617 H 0.70049 0.83711 0.04839 0.0
H1618 H 0.67214 0.84323 0.06729 0.0
H1619 H 0.66756 0.84038 0.10088 0.0
H1620 H 0.15963 0.66403 0.10212 0.0
H1621 H 0.15615 0.66969 0.06873 0.0
H1622 H 0.09757 0.68223 0.07662 0.0
H1623 H 0.10088 0.67629 0.11036 0.0
H1624 H 0.10342 0.65677 0.04867 0.0
H1625 H 0.15059 0.71693 0.03797 0.0
H1626 H 0.16229 0.69899 0.05108 0.0
H1627 H 0.14199 0.71038 0.06087 0.0
C1628 C 0.14602 0.66822 0.09687 0.0
C1629 C 0.13051 0.66966 0.1089 0.0
C1630 C 0.14411 0.67165 0.07775 0.0
C1631 C 0.12669 0.67674 0.07021 0.0
C1632 C 0.11118 0.67853 0.0822 0.0
H1633 H 0.1401 0.68827 0.94835 0.0
H1634 H 0.12751 0.6962 0.97934 0.0
C1635 C 0.11311 0.67514 0.10145 0.0
C1636 C 0.12465 0.67823 0.0496 0.0
H1637 H 0.14725 0.69568 0.0113 0.0
C1638 C 0.11264 0.66564 0.04045 0.0
C1639 C 0.1363 0.6901 0.03883 0.0
C1640 C 0.14835 0.705 0.04773 0.0
C1641 C 0.11332 0.66334 0.02094 0.0
C1642 C 0.12662 0.67363 0.01043 0.0
C1643 C 0.13728 0.68752 0.01937 0.0
C1644 C 0.13158 0.66847 0.99092 0.0
C1645 C 0.10029 0.6494 0.01189 0.0
C1646 C 0.13792 0.65026 0.98711 0.0
C1647 C 0.14503 0.64572 0.9695 0.0
C1648 C 0.14617 0.65933 0.95533 0.0
C1649 C 0.13926 0.67743 0.95893 0.0
C1650 C 0.13213 0.682 0.97663 0.0
H1651 H 0.08687 0.64843 0.01973 0.0
H1652 H 0.09721 0.6532 0.99712 0.0
H1653 H 0.10689 0.63532 0.01213 0.0
H1654 H 0.13809 0.63969 0.998 0.0
H1655 H 0.15001 0.6316 0.96712 0.0
H1656 H 0.33984 0.8191 0.02656 0.0
H1657 H 0.33127 0.83151 0.99594 0.0
H1658 H 0.32028 0.88553 0.0206 0.0
H1659 H 0.32919 0.87315 0.05154 0.0
H1660 H 0.29612 0.85009 0.98458 0.0
H1661 H 0.35994 0.89475 0.97772 0.0
H1662 H 0.35894 0.87568 0.99431 0.0
H1663 H 0.34574 0.89662 0.9985 0.0
C1664 C 0.33571 0.83364 0.02551 0.0
C1665 C 0.33543 0.84521 0.04143 0.0
C1666 C 0.33065 0.84067 0.00802 0.0
C1667 C 0.32528 0.85944 0.00601 0.0
C1668 C 0.32452 0.87102 0.02188 0.0
H1669 H 0.32242 0.9003 0.88919 0.0
H1670 H 0.31663 0.90188 0.92314 0.0
C1671 C 0.3295 0.86392 0.03952 0.0
C1672 C 0.32123 0.86664 0.98699 0.0
H1673 H 0.3422 0.88953 0.95061 0.0
C1674 C 0.30592 0.8591 0.97724 0.0
C1675 C 0.33395 0.87852 0.97752 0.0
C1676 C 0.35064 0.88689 0.98742 0.0
C1677 C 0.30371 0.86211 0.95794 0.0
C1678 C 0.31736 0.8726 0.94814 0.0
C1679 C 0.33179 0.88143 0.95817 0.0
C1680 C 0.31872 0.87195 0.92744 0.0
C1681 C 0.28724 0.8533 0.94807 0.0
C1682 C 0.32183 0.85464 0.91868 0.0
C1683 C 0.32526 0.85372 0.8995 0.0
C1684 C 0.32569 0.87011 0.8886 0.0
C1685 C 0.32206 0.88744 0.89724 0.0
C1686 C 0.31878 0.88837 0.91659 0.0
H1687 H 0.27511 0.85174 0.9577 0.0
H1688 H 0.28285 0.86173 0.93575 0.0
H1689 H 0.29122 0.8391 0.94316 0.0
H1690 H 0.32227 0.84184 0.92683 0.0
H1691 H 0.32794 0.84015 0.89327 0.0
H1692 H 0.1584 0.32347 0.89831 0.0
H1693 H 0.15483 0.31889 0.93194 0.0
H1694 H 0.09475 0.32203 0.92626 0.0
H1695 H 0.09823 0.32665 0.89233 0.0
H1696 H 0.10995 0.34731 0.95219 0.0
H1697 H 0.13691 0.27602 0.96563 0.0
H1698 H 0.15223 0.28905 0.95055 0.0
H1699 H 0.12888 0.28347 0.94279 0.0
C1700 C 0.1444 0.32284 0.90413 0.0
C1701 C 0.1286 0.32551 0.89272 0.0
C1702 C 0.14237 0.32002 0.92335 0.0
C1703 C 0.12452 0.31984 0.93156 0.0
C1704 C 0.10863 0.32189 0.92013 0.0
H1705 H 0.12671 0.32339 0.056 0.0
H1706 H 0.11414 0.31509 0.02508 0.0
C1707 C 0.11065 0.32452 0.90079 0.0
C1708 C 0.12295 0.32006 0.95224 0.0
H1709 H 0.1405 0.29849 0.99115 0.0
C1710 C 0.11606 0.33636 0.96079 0.0
C1711 C 0.13083 0.30574 0.96345 0.0
C1712 C 0.13745 0.2875 0.95513 0.0
C1713 C 0.11846 0.33945 0.98004 0.0
C1714 C 0.12793 0.3259 0.99089 0.0
C1715 C 0.13333 0.30889 0.9827 0.0
C1716 C 0.13514 0.33055 0.00969 0.0
C1717 C 0.11204 0.35771 0.98848 0.0
C1718 C 0.15115 0.34176 0.01111 0.0
C1719 C 0.1585 0.34631 0.02859 0.0
C1720 C 0.14991 0.33985 0.04513 0.0
C1721 C 0.13381 0.3285 0.04362 0.0
C1722 C 0.12652 0.32381 0.026 0.0
H1723 H 0.10169 0.36496 0.97939 0.0
H1724 H 0.10569 0.35532 0.00249 0.0
H1725 H 0.12432 0.36707 0.99034 0.0
H1726 H 0.15807 0.3469 0.99861 0.0
H1727 H 0.17109 0.3547 0.02902 0.0
H1728 H 0.63354 0.15376 0.02955 0.0
H1729 H 0.64121 0.14107 0.99886 0.0
H1730 H 0.69689 0.12757 0.01808 0.0
H1731 H 0.6894 0.14085 0.04891 0.0
H1732 H 0.69739 0.14699 0.98549 0.0
H1733 H 0.64731 0.08867 0.97857 0.0
H1734 H 0.63534 0.10951 0.98581 0.0
H1735 H 0.65276 0.09921 0.00093 0.0
C1736 C 0.64739 0.14799 0.02732 0.0
C1737 C 0.66091 0.14846 0.04162 0.0
C1738 C 0.65167 0.14046 0.00983 0.0
C1739 C 0.66952 0.13304 0.00625 0.0
C1740 C 0.68295 0.13302 0.02062 0.0
H1741 H 0.67621 0.09894 0.88762 0.0
H1742 H 0.68216 0.09625 0.92144 0.0
C1743 C 0.67864 0.14055 0.03823 0.0
C1744 C 0.67446 0.12738 0.98688 0.0
H1745 H 0.65665 0.10389 0.94927 0.0
C1746 C 0.68882 0.13717 0.97768 0.0
C1747 C 0.66361 0.11427 0.97673 0.0
C1748 C 0.64904 0.10217 0.98611 0.0
C1749 C 0.69137 0.13555 0.95826 0.0
C1750 C 0.67904 0.12411 0.94779 0.0
C1751 C 0.66591 0.11292 0.95725 0.0
C1752 C 0.67762 0.12568 0.92713 0.0
C1753 C 0.70675 0.14674 0.94903 0.0
C1754 C 0.67308 0.14306 0.91918 0.0
C1755 C 0.66963 0.14461 0.90004 0.0
C1756 C 0.67052 0.12878 0.88839 0.0
C1757 C 0.67551 0.1114 0.89624 0.0
C1758 C 0.67889 0.10984 0.91553 0.0
H1759 H 0.71873 0.14882 0.95875 0.0
H1760 H 0.7119 0.13977 0.93611 0.0
H1761 H 0.70128 0.16079 0.94522 0.0
H1762 H 0.67155 0.15538 0.9279 0.0
H1763 H 0.66586 0.15821 0.89446 0.0
H1764 H 0.90105 0.68029 0.88898 0.0
H1765 H 0.90474 0.68636 0.92274 0.0
H1766 H 0.84951 0.66396 0.93272 0.0
H1767 H 0.84564 0.6581 0.89945 0.0
H1768 H 0.85762 0.69838 0.95184 0.0
H1769 H 0.91228 0.64346 0.962 0.0
H1770 H 0.91583 0.66128 0.94448 0.0
H1771 H 0.89788 0.64402 0.94122 0.0
C1772 C 0.88967 0.67683 0.8984 0.0
C1773 C 0.8731 0.6686 0.89156 0.0
C1774 C 0.89183 0.68023 0.91765 0.0
C1775 C 0.87743 0.67547 0.9302 0.0
C1776 C 0.86077 0.66776 0.92327 0.0
H1777 H 0.84993 0.63337 0.03231 0.0
H1778 H 0.8624 0.64162 0.00165 0.0
C1779 C 0.85863 0.66434 0.90421 0.0
C1780 C 0.87943 0.67764 0.95072 0.0
H1781 H 0.8971 0.65477 0.9888 0.0
C1782 C 0.86662 0.68927 0.96003 0.0
C1783 C 0.89118 0.66567 0.96124 0.0
C1784 C 0.90508 0.65281 0.95185 0.0
C1785 C 0.8641 0.68812 0.97949 0.0
C1786 C 0.87495 0.67518 0.9899 0.0
C1787 C 0.88884 0.66467 0.98076 0.0
C1788 C 0.86979 0.67 0.00933 0.0
C1789 C 0.84874 0.69955 0.98848 0.0
C1790 C 0.87025 0.68307 0.02401 0.0
C1791 C 0.86285 0.67843 0.04159 0.0
C1792 C 0.85492 0.66064 0.04473 0.0
C1793 C 0.85549 0.64732 0.03025 0.0
C1794 C 0.86282 0.65195 0.01276 0.0
H1795 H 0.84003 0.70703 0.97797 0.0
H1796 H 0.83946 0.69043 0.99701 0.0
H1797 H 0.85506 0.71014 0.99794 0.0
H1798 H 0.87582 0.69699 0.02173 0.0
H1799 H 0.86265 0.68901 0.05244 0.0
H1800 H 0.96888 0.36706 0.15223 0.0
H1801 H -0.00028 0.35877 0.14038 0.0
H1802 H 0.9802 0.30295 0.12798 0.0
H1803 H 0.94926 0.31101 0.14058 0.0
H1804 H 0.01208 0.30207 0.14746 0.0
H1805 H 0.02147 0.3516 0.0891 0.0
H1806 H 0.01427 0.36409 0.10964 0.0
H1807 H 0.99878 0.34699 0.09932 0.0
C1808 C 0.97106 0.35304 0.1469 0.0
C1809 C 0.95663 0.33966 0.14753 0.0
C1810 C 0.98866 0.3484 0.13982 0.0
C1811 C 0.99222 0.33033 0.13295 0.0
C1812 C 0.97771 0.31704 0.13302 0.0
H1813 H 0.11134 0.32141 0.10116 0.0
H1814 H 0.07743 0.31648 0.09788 0.0
C1815 C 0.96001 0.32169 0.14015 0.0
C1816 C 0.01167 0.32502 0.12782 0.0
H1817 H 0.05024 0.34194 0.1052 0.0
C1818 C 0.02032 0.31047 0.13783 0.0
C1819 C 0.0224 0.33562 0.11493 0.0
C1820 C 0.01365 0.35029 0.1025 0.0
C1821 C 0.0397 0.30743 0.13663 0.0
C1822 C 0.05074 0.31953 0.12545 0.0
C1823 C 0.04185 0.33288 0.11406 0.0
C1824 C 0.07142 0.32033 0.12735 0.0
C1825 C 0.04825 0.29173 0.1479 0.0
C1826 C 0.07927 0.32414 0.14496 0.0
C1827 C 0.09849 0.32695 0.14686 0.0
C1828 C 0.11034 0.32621 0.13116 0.0
C1829 C 0.10258 0.32199 0.11354 0.0
C1830 C 0.08323 0.31919 0.11164 0.0
H1831 H 0.0382 0.27995 0.14953 0.0
H1832 H 0.06126 0.28636 0.14128 0.0
H1833 H 0.0517 0.29694 0.16213 0.0
H1834 H 0.07043 0.32561 0.1572 0.0
H1835 H 0.10397 0.33018 0.16064 0.0
H1836 H 0.96849 0.63686 0.84046 0.0
H1837 H 0.99937 0.64426 0.85295 0.0
H1838 H 0.97986 0.69903 0.86937 0.0
H1839 H 0.94879 0.69177 0.85644 0.0
H1840 H 0.01295 0.69998 0.8491 0.0
H1841 H 0.01885 0.64844 0.90641 0.0
H1842 H 0.01125 0.63742 0.88515 0.0
H1843 H 0.99661 0.65481 0.89611 0.0
C1844 C 0.97072 0.65045 0.84678 0.0
C1845 C 0.95624 0.66377 0.84736 0.0
C1846 C 0.98831 0.65458 0.85417 0.0
C1847 C 0.99182 0.67207 0.86239 0.0
C1848 C 0.97735 0.68536 0.86328 0.0
H1849 H 0.10975 0.67709 0.89862 0.0
H1850 H 0.07599 0.68357 0.90065 0.0
C1851 C 0.95963 0.68118 0.85595 0.0
C1852 C 0.01114 0.67677 0.86833 0.0
H1853 H 0.04825 0.6583 0.89209 0.0
C1854 C 0.02058 0.6912 0.85888 0.0
C1855 C 0.02101 0.66561 0.88138 0.0
C1856 C 0.01133 0.65084 0.89299 0.0
C1857 C 0.04 0.69357 0.86082 0.0
C1858 C 0.05019 0.681 0.87226 0.0
C1859 C 0.04048 0.66777 0.88309 0.0
C1860 C 0.07085 0.67946 0.87106 0.0
C1861 C 0.04952 0.70901 0.84997 0.0
C1862 C 0.07909 0.67501 0.85379 0.0
C1863 C 0.0982 0.67124 0.85261 0.0
C1864 C 0.10951 0.67172 0.86871 0.0
C1865 C 0.10139 0.67668 0.88596 0.0
C1866 C 0.08214 0.68038 0.88715 0.0
H1867 H 0.03992 0.72107 0.84783 0.0
H1868 H 0.06234 0.714 0.85722 0.0
H1869 H 0.05355 0.70366 0.83594 0.0
H1870 H 0.0706 0.67375 0.84127 0.0
H1871 H 0.10401 0.66751 0.83909 0.0
H1872 H 0.32222 0.11177 0.90076 0.0
H1873 H 0.31653 0.07797 0.90433 0.0
H1874 H 0.32866 0.06985 0.84568 0.0
H1875 H 0.33392 0.10325 0.84193 0.0
H1876 H 0.29792 0.04928 0.85797 0.0
H1877 H 0.3598 0.04 0.90474 0.0
H1878 H 0.34187 0.05616 0.91195 0.0
H1879 H 0.35597 0.06137 0.8918 0.0
C1880 C 0.32344 0.10276 0.88861 0.0
C1881 C 0.32873 0.11014 0.8711 0.0
C1882 C 0.32029 0.08347 0.8907 0.0
C1883 C 0.32242 0.07138 0.87531 0.0
C1884 C 0.32695 0.0789 0.85774 0.0
H1885 H 0.36364 0.9694 0.84422 0.0
H1886 H 0.35607 8e-05 0.85695 0.0
C1887 C 0.33007 0.09803 0.85565 0.0
C1888 C 0.32108 0.05075 0.87718 0.0
H1889 H 0.3464 0.01299 0.892 0.0
C1890 C 0.3082 0.04124 0.86577 0.0
C1891 C 0.33456 0.04039 0.88736 0.0
C1892 C 0.34894 0.0499 0.89961 0.0
C1893 C 0.30939 0.02181 0.86303 0.0
C1894 C 0.32362 0.01159 0.87232 0.0
C1895 C 0.33552 0.02089 0.88492 0.0
C1896 C 0.32846 0.99219 0.86669 0.0
C1897 C 0.29643 0.01268 0.84903 0.0
C1898 C 0.31563 0.97736 0.86835 0.0
C1899 C 0.31985 0.95975 0.86076 0.0
C1900 C 0.33699 0.95672 0.85148 0.0
C1901 C 0.35014 0.97136 0.85082 0.0
C1902 C 0.34591 0.98887 0.85831 0.0
H1903 H 0.28808 0.02312 0.84104 0.0
H1904 H 0.30452 0.00406 0.83892 0.0
H1905 H 0.28655 0.0033 0.85651 0.0
H1906 H 0.30221 0.97952 0.87507 0.0
H1907 H 0.30941 0.94878 0.86154 0.0
H1908 H 0.88805 0.32091 0.90222 0.0
H1909 H 0.92189 0.31495 0.9054 0.0
H1910 H 0.93093 0.33714 0.84992 0.0
H1911 H 0.89758 0.34286 0.84655 0.0
H1912 H 0.9506 0.3034 0.85757 0.0
H1913 H 0.96071 0.35785 0.91265 0.0
H1914 H 0.94367 0.33967 0.91658 0.0
H1915 H 0.93965 0.35687 0.89871 0.0
C1916 C 0.89729 0.32433 0.89067 0.0
C1917 C 0.89017 0.33249 0.87419 0.0
C1918 C 0.91658 0.32101 0.89255 0.0
C1919 C 0.92889 0.32576 0.87794 0.0
C1920 C 0.92167 0.33336 0.86135 0.0
H1921 H 0.03188 0.36848 0.85208 0.0
H1922 H 0.00096 0.36019 0.86384 0.0
C1923 C 0.90257 0.33671 0.85949 0.0
C1924 C 0.94946 0.32379 0.8797 0.0
H1925 H 0.98755 0.3464 0.89769 0.0
C1926 C 0.95878 0.3124 0.86667 0.0
C1927 C 0.95999 0.33563 0.89158 0.0
C1928 C 0.95061 0.3483 0.90566 0.0
C1929 C 0.97824 0.31364 0.86412 0.0
C1930 C 0.98865 0.32636 0.87521 0.0
C1931 C 0.9795 0.33666 0.88925 0.0
C1932 C 0.00818 0.33146 0.87032 0.0
C1933 C 0.9872 0.30248 0.84855 0.0
C1934 C 0.0227 0.31819 0.8705 0.0
C1935 C 0.04042 0.32285 0.86346 0.0
C1936 C 0.0439 0.34087 0.85623 0.0
C1937 C 0.02958 0.35436 0.85709 0.0
C1938 C 0.01193 0.34969 0.86403 0.0
H1939 H 0.97666 0.29543 0.83953 0.0
H1940 H 0.99599 0.31169 0.8396 0.0
H1941 H 0.99639 0.29155 0.85468 0.0
H1942 H 0.02018 0.30412 0.87558 0.0
H1943 H 0.05111 0.31212 0.86304 0.0
H1944 H 0.68729 0.05045 0.85863 0.0
H1945 H 0.69496 0.01938 0.87114 0.0
H1946 H 0.64022 -0.00055 0.85507 0.0
H1947 H 0.63225 0.03044 0.84332 0.0
H1948 H 0.65145 0.98593 0.88954 0.0
H1949 H 0.70713 0.97626 0.83563 0.0
H1950 H 0.70952 0.99586 0.85124 0.0
H1951 H 0.69068 0.9954 0.83458 0.0
C1952 C 0.67678 0.03954 0.85808 0.0
C1953 C 0.65925 0.04284 0.84966 0.0
C1954 C 0.68125 0.02175 0.86509 0.0
C1955 C 0.66828 0.00702 0.86371 0.0
C1956 C 0.65049 0.01058 0.85619 0.0
H1957 H 0.66177 0.89548 0.83894 0.0
H1958 H 0.66714 0.92894 0.84216 0.0
C1959 C 0.64601 0.02828 0.84928 0.0
C1960 C 0.67325 0.9875 0.86879 0.0
H1961 H 0.69815 0.94992 0.85285 0.0
C1962 C 0.66195 0.97808 0.88186 0.0
C1963 C 0.68696 0.97735 0.85868 0.0
C1964 C 0.69924 0.98662 0.84416 0.0
C1965 C 0.66301 0.95857 0.88409 0.0
C1966 C 0.67599 0.94829 0.8732 0.0
C1967 C 0.68826 0.95789 0.86119 0.0
C1968 C 0.67475 0.92764 0.87148 0.0
C1969 C 0.64924 0.94897 0.89696 0.0
C1970 C 0.67766 0.91567 0.88683 0.0
C1971 C 0.67447 0.89636 0.88506 0.0
C1972 C 0.66836 0.88883 0.86789 0.0
C1973 C 0.66629 0.90081 0.85241 0.0
C1974 C 0.66945 0.91997 0.8542 0.0
H1975 H 0.63851 0.95879 0.9025 0.0
H1976 H 0.64199 0.9374 0.8895 0.0
H1977 H 0.65687 0.94282 0.90902 0.0
H1978 H 0.68204 0.92128 0.90023 0.0
H1979 H 0.67628 0.88747 0.89722 0.0
H1980 H 0.03281 0.63109 0.15071 0.0
H1981 H 0.00208 0.63973 0.13877 0.0
H1982 H 0.02186 0.69576 0.12776 0.0
H1983 H 0.05266 0.68733 0.1404 0.0
H1984 H 0.98986 0.69612 0.14729 0.0
H1985 H 0.98077 0.64841 0.08739 0.0
H1986 H 0.98795 0.63536 0.10759 0.0
H1987 H 0.00342 0.65279 0.09781 0.0
C1988 C 0.0307 0.64522 0.14566 0.0
C1989 C 0.04515 0.65855 0.14668 0.0
C1990 C 0.01318 0.65007 0.13853 0.0
C1991 C 0.00974 0.66831 0.13203 0.0
C1992 C 0.02428 0.68155 0.1325 0.0
H1993 H 0.89071 0.67812 0.10048 0.0
H1994 H 0.92455 0.68357 0.09732 0.0
C1995 C 0.04188 0.67669 0.13966 0.0
C1996 C 0.99037 0.67382 0.12692 0.0
H1997 H 0.95193 0.65761 0.10363 0.0
C1998 C 0.98167 0.68804 0.13736 0.0
C1999 C 0.97972 0.66364 0.11366 0.0
C2000 C 0.98855 0.64935 0.10084 0.0
C2001 C 0.9623 0.69107 0.13619 0.0
C2002 C 0.95134 0.67933 0.1246 0.0
C2003 C 0.96028 0.66639 0.1128 0.0
C2004 C 0.93069 0.6783 0.12654 0.0
C2005 C 0.95365 0.70631 0.148 0.0
C2006 C 0.92297 0.67353 0.14397 0.0
C2007 C 0.9038 0.67038 0.1458 0.0
C2008 C 0.8919 0.67178 0.13019 0.0
C2009 C 0.89953 0.67701 0.11278 0.0
C2010 C 0.91883 0.68011 0.11095 0.0
H2011 H 0.96366 0.71804 0.15014 0.0
H2012 H 0.94067 0.7119 0.1415 0.0
H2013 H 0.9501 0.70054 0.162 0.0
H2014 H 0.93189 0.67156 0.15609 0.0
H2015 H 0.8984 0.66639 0.15941 0.0
H2016 H 0.31271 0.05082 0.13742 0.0
H2017 H 0.30466 0.01993 0.12483 0.0
H2018 H 0.36012 5e-05 0.13824 0.0
H2019 H 0.3685 0.03092 0.14998 0.0
H2020 H 0.34745 0.98668 0.1043 0.0
H2021 H 0.29402 0.97661 0.16038 0.0
H2022 H 0.29088 0.99628 0.14498 0.0
H2023 H 0.31042 0.99581 0.16081 0.0
C2024 C 0.3233 0.03998 0.13736 0.0
C2025 C 0.34117 0.04328 0.14504 0.0
C2026 C 0.31861 0.02228 0.13031 0.0
C2027 C 0.33167 0.00759 0.13094 0.0
C2028 C 0.34977 0.01114 0.13771 0.0
H2029 H 0.3395 0.89651 0.15538 0.0
H2030 H 0.33411 0.92993 0.15203 0.0
C2031 C 0.35448 0.02877 0.14463 0.0
C2032 C 0.3265 0.98811 0.12592 0.0
H2033 H 0.3022 0.95044 0.14259 0.0
C2034 C 0.33725 0.97879 0.11234 0.0
C2035 C 0.31317 0.9779 0.13648 0.0
C2036 C 0.3015 0.98705 0.15157 0.0
C2037 C 0.33608 0.95929 0.11003 0.0
C2038 C 0.32355 0.94895 0.12138 0.0
C2039 C 0.31174 0.95847 0.13389 0.0
C2040 C 0.32503 0.92832 0.12315 0.0
C2041 C 0.34928 0.94975 0.09655 0.0
C2042 C 0.32137 0.91621 0.10808 0.0
C2043 C 0.32457 0.89691 0.10993 0.0
C2044 C 0.33146 0.88955 0.12687 0.0
C2045 C 0.33438 0.9017 0.14207 0.0
C2046 C 0.3312 0.92084 0.14022 0.0
H2047 H 0.3596 0.95964 0.09039 0.0
H2048 H 0.35703 0.93834 0.10375 0.0
H2049 H 0.34112 0.94339 0.08496 0.0
H2050 H 0.31635 0.92169 0.09486 0.0
H2051 H 0.32212 0.88786 0.098 0.0
H2052 H 0.66508 0.10304 0.1559 0.0
H2053 H 0.67073 0.06964 0.1526 0.0
H2054 H 0.68416 0.07738 0.09419 0.0
H2055 H 0.67823 0.11116 0.09734 0.0
H2056 H 0.65852 0.04939 0.09983 0.0
H2057 H 0.71802 0.03885 0.14781 0.0
H2058 H 0.69997 0.05205 0.15922 0.0
H2059 H 0.71165 0.06171 0.139 0.0
C2060 C 0.66946 0.09775 0.14237 0.0
C2061 C 0.67115 0.10976 0.12686 0.0
C2062 C 0.67289 0.07863 0.14056 0.0
C2063 C 0.67822 0.07104 0.12324 0.0
C2064 C 0.68027 0.083 0.10774 0.0
H2065 H 0.68947 0.94927 0.13755 0.0
H2066 H 0.69757 0.98021 0.12499 0.0
C2067 C 0.6769 0.10227 0.10956 0.0
C2068 C 0.6797 0.05041 0.12131 0.0
H2069 H 0.69674 0.01221 0.1444 0.0
C2070 C 0.66724 0.04121 0.1092 0.0
C2071 C 0.69138 0.03968 0.13319 0.0
C2072 C 0.70615 0.04862 0.14537 0.0
C2073 C 0.66488 0.0217 0.10999 0.0
C2074 C 0.67495 0.01125 0.12349 0.0
C2075 C 0.68873 0.02023 0.13427 0.0
C2076 C 0.66974 0.99174 0.12846 0.0
C2077 C 0.6511 0.0126 0.09681 0.0
C2078 C 0.65141 0.98789 0.13445 0.0
C2079 C 0.64677 0.97028 0.14153 0.0
C2080 C 0.66038 0.95614 0.14301 0.0
C2081 C 0.67862 0.95979 0.13645 0.0
C2082 C 0.68328 0.97749 0.12934 0.0
H2083 H 0.65036 0.02036 0.08333 0.0
H2084 H 0.65489 0.9978 0.09389 0.0
H2085 H 0.63693 0.01294 0.10319 0.0
H2086 H 0.64081 0.99874 0.13438 0.0
H2087 H 0.63255 0.96787 0.14622 0.0
H2088 H 0.09669 0.21958 0.29122 0.0
H2089 H 0.10692 0.23385 0.2619 0.0
H2090 H 0.13669 0.1833 0.24744 0.0
H2091 H 0.12645 0.16885 0.27687 0.0
H2092 H 0.15894 0.21559 0.2475 0.0
H2093 H 0.0944 0.22729 0.20625 0.0
H2094 H 0.09196 0.23486 0.2301 0.0
H2095 H 0.09566 0.21043 0.22511 0.0
C2096 C 0.10499 0.21131 0.28158 0.0
C2097 C 0.11081 0.19313 0.28636 0.0
C2098 C 0.11074 0.21944 0.26477 0.0
C2099 C 0.12242 0.20957 0.25243 0.0
C2100 C 0.12754 0.19108 0.25672 0.0
H2101 H 0.16143 0.27282 0.15408 0.0
H2102 H 0.15099 0.24617 0.17289 0.0
C2103 C 0.12162 0.18284 0.2735 0.0
C2104 C 0.13111 0.21957 0.23647 0.0
H2105 H 0.12045 0.24794 0.19951 0.0
C2106 C 0.15059 0.22233 0.23674 0.0
C2107 C 0.12023 0.22819 0.22235 0.0
C2108 C 0.09942 0.2249 0.22079 0.0
C2109 C 0.15928 0.23457 0.22405 0.0
C2110 C 0.14816 0.24435 0.21092 0.0
C2111 C 0.1289 0.24057 0.20977 0.0
C2112 C 0.15589 0.25979 0.19948 0.0
C2113 C 0.18019 0.2374 0.22515 0.0
C2114 C 0.16213 0.27622 0.20824 0.0
C2115 C 0.16784 0.29159 0.19756 0.0
C2116 C 0.16738 0.29083 0.17789 0.0
C2117 C 0.16161 0.27408 0.16917 0.0
C2118 C 0.15578 0.25876 0.17988 0.0
H2119 H 0.18722 0.22538 0.2321 0.0
H2120 H 0.18631 0.23932 0.21097 0.0
H2121 H 0.18317 0.25019 0.23347 0.0
H2122 H 0.16201 0.27738 0.22337 0.0
H2123 H 0.17196 0.30426 0.20476 0.0
H2124 H 0.68476 0.16713 0.20415 0.0
H2125 H 0.70972 0.1565 0.22499 0.0
H2126 H 0.74598 0.14774 0.17753 0.0
H2127 H 0.72136 0.15892 0.15656 0.0
H2128 H 0.74116 0.11591 0.20464 0.0
H2129 H 0.76123 0.18374 0.23716 0.0
H2130 H 0.73647 0.17917 0.23584 0.0
H2131 H 0.74969 0.18223 0.21467 0.0
C2132 C 0.69812 0.1633 0.19811 0.0
C2133 C 0.70093 0.16381 0.17861 0.0
C2134 C 0.71235 0.15716 0.21006 0.0
C2135 C 0.72965 0.15141 0.20275 0.0
C2136 C 0.73267 0.1521 0.18338 0.0
H2137 H 0.82173 0.12514 0.27936 0.0
H2138 H 0.80557 0.13426 0.2505 0.0
C2139 C 0.7185 0.15838 0.17142 0.0
C2140 C 0.74423 0.14393 0.21538 0.0
H2141 H 0.77226 0.15604 0.2521 0.0
C2142 C 0.74818 0.12468 0.21487 0.0
C2143 C 0.75347 0.15549 0.2285 0.0
C2144 C 0.75018 0.17635 0.22907 0.0
C2145 C 0.7605 0.11651 0.22785 0.0
C2146 C 0.76894 0.12792 0.24165 0.0
C2147 C 0.76571 0.14732 0.24152 0.0
C2148 C 0.77978 0.11992 0.2574 0.0
C2149 C 0.76413 0.09572 0.22692 0.0
C2150 C 0.77073 0.10853 0.27061 0.0
C2151 C 0.77984 0.10341 0.28713 0.0
C2152 C 0.79818 0.10958 0.29072 0.0
C2153 C 0.80763 0.12008 0.27696 0.0
C2154 C 0.79841 0.12536 0.26049 0.0
H2155 H 0.7611 0.09003 0.21275 0.0
H2156 H 0.77889 0.09246 0.23062 0.0
H2157 H 0.75487 0.08847 0.23708 0.0
H2158 H 0.75625 0.10443 0.26862 0.0
H2159 H 0.77221 0.09533 0.29747 0.0
H2160 H 0.90487 0.77695 0.29679 0.0
H2161 H 0.89588 0.76084 0.26801 0.0
H2162 H 0.8653 0.80972 0.24996 0.0
H2163 H 0.87432 0.82603 0.27876 0.0
H2164 H 0.84392 0.77631 0.25181 0.0
H2165 H 0.90972 0.76538 0.21208 0.0
H2166 H 0.91162 0.75928 0.23642 0.0
H2167 H 0.90731 0.78323 0.22989 0.0
C2168 C 0.89666 0.78446 0.28647 0.0
C2169 C 0.89023 0.80271 0.29007 0.0
C2170 C 0.89161 0.77527 0.26998 0.0
C2171 C 0.88003 0.78413 0.25682 0.0
C2172 C 0.87435 0.8027 0.25991 0.0
H2173 H 0.84205 0.72289 0.15733 0.0
H2174 H 0.85287 0.74819 0.17763 0.0
C2175 C 0.87958 0.812 0.27634 0.0
C2176 C 0.87201 0.77311 0.24122 0.0
H2177 H 0.88409 0.74479 0.20466 0.0
C2178 C 0.85264 0.76968 0.24128 0.0
C2179 C 0.88341 0.76456 0.22747 0.0
C2180 C 0.90415 0.76842 0.2263 0.0
C2181 C 0.84452 0.75711 0.22855 0.0
C2182 C 0.8561 0.74771 0.21556 0.0
C2183 C 0.8753 0.7519 0.21481 0.0
C2184 C 0.84874 0.73273 0.20333 0.0
C2185 C 0.82369 0.75365 0.22933 0.0
C2186 C 0.84285 0.71569 0.21112 0.0
C2187 C 0.83689 0.70106 0.19957 0.0
C2188 C 0.83673 0.70322 0.17998 0.0
C2189 C 0.84231 0.72053 0.17229 0.0
C2190 C 0.84839 0.73509 0.18386 0.0
H2191 H 0.81623 0.76497 0.23697 0.0
H2192 H 0.81776 0.75249 0.21499 0.0
H2193 H 0.82101 0.74023 0.23672 0.0
H2194 H 0.84327 0.71355 0.22615 0.0
H2195 H 0.83295 0.68791 0.20599 0.0
H2196 H 0.29841 0.86546 0.1667 0.0
H2197 H 0.27529 0.8772 0.18911 0.0
H2198 H 0.27801 0.82495 0.21937 0.0
H2199 H 0.30136 0.81325 0.19712 0.0
H2200 H 0.24052 0.86507 0.19973 0.0
H2201 H 0.28956 0.86281 0.25992 0.0
H2202 H 0.29728 0.85984 0.23605 0.0
H2203 H 0.2869 0.84056 0.24856 0.0
C2204 C 0.29396 0.85642 0.17804 0.0
C2205 C 0.3018 0.83848 0.18026 0.0
C2206 C 0.28078 0.86316 0.19085 0.0
C2207 C 0.27517 0.85209 0.2061 0.0
C2208 C 0.28249 0.83392 0.20798 0.0
H2209 H 0.18157 0.86875 0.28176 0.0
H2210 H 0.20083 0.86102 0.25453 0.0
C2211 C 0.29581 0.82724 0.19527 0.0
C2212 C 0.262 0.85971 0.22025 0.0
H2213 H 0.25762 0.8687 0.26696 0.0
C2214 C 0.24426 0.86597 0.21443 0.0
C2215 C 0.26703 0.86119 0.23936 0.0
C2216 C 0.28629 0.85593 0.24635 0.0
C2217 C 0.23128 0.87333 0.2273 0.0
C2218 C 0.23605 0.87408 0.24652 0.0
C2219 C 0.2539 0.86807 0.25224 0.0
C2220 C 0.22289 0.8808 0.26117 0.0
C2221 C 0.21274 0.88049 0.2201 0.0
C2222 C 0.22871 0.8946 0.27391 0.0
C2223 C 0.2179 0.89876 0.28967 0.0
C2224 C 0.20094 0.88933 0.2929 0.0
C2225 C 0.19447 0.87641 0.27952 0.0
C2226 C 0.20547 0.87202 0.26389 0.0
H2227 H 0.21362 0.88444 0.20507 0.0
H2228 H 0.20207 0.86926 0.22144 0.0
H2229 H 0.20791 0.89284 0.22823 0.0
H2230 H 0.24207 0.90159 0.27211 0.0
H2231 H 0.2232 0.9088 0.29973 0.0
H2232 H 0.11917 0.82432 0.72194 0.0
H2233 H 0.13 0.80816 0.75023 0.0
H2234 H 0.10391 0.75713 0.73116 0.0
H2235 H 0.09303 0.7731 0.70293 0.0
H2236 H 0.10052 0.76424 0.77083 0.0
H2237 H 0.1737 0.76996 0.74415 0.0
H2238 H 0.16068 0.79139 0.74666 0.0
H2239 H 0.15363 0.77449 0.72945 0.0
C2240 C 0.11536 0.80978 0.72398 0.0
C2241 C 0.10544 0.7999 0.71009 0.0
C2242 C 0.12166 0.80055 0.7401 0.0
C2243 C 0.11803 0.78139 0.74257 0.0
C2244 C 0.10693 0.77191 0.72943 0.0
H2245 H 0.16688 0.68656 0.7942 0.0
H2246 H 0.15538 0.71167 0.77398 0.0
C2247 C 0.10074 0.78106 0.71331 0.0
C2248 C 0.12698 0.77063 0.75787 0.0
H2249 H 0.16897 0.75202 0.77134 0.0
C2250 C 0.11551 0.7618 0.77117 0.0
C2251 C 0.14654 0.76735 0.75808 0.0
C2252 C 0.15943 0.77616 0.74379 0.0
C2253 C 0.12305 0.74937 0.78443 0.0
C2254 C 0.14252 0.74575 0.78432 0.0
C2255 C 0.15406 0.75495 0.77136 0.0
C2256 C 0.15086 0.7313 0.79658 0.0
C2257 C 0.1101 0.73955 0.79795 0.0
C2258 C 0.15252 0.73426 0.81591 0.0
C2259 C 0.15927 0.71999 0.82751 0.0
C2260 C 0.16436 0.70248 0.81998 0.0
C2261 C 0.16323 0.69986 0.80048 0.0
C2262 C 0.15658 0.71416 0.7889 0.0
H2263 H 0.09511 0.74239 0.79488 0.0
H2264 H 0.11249 0.72418 0.79747 0.0
H2265 H 0.11315 0.74434 0.81242 0.0
H2266 H 0.14838 0.74751 0.82203 0.0
H2267 H 0.16036 0.72268 0.84238 0.0
H2268 H 0.22674 0.10503 0.69789 0.0
H2269 H 0.24233 0.11194 0.72737 0.0
H2270 H 0.18907 0.12498 0.7528 0.0
H2271 H 0.17327 0.11846 0.72298 0.0
H2272 H 0.21423 0.1525 0.75828 0.0
H2273 H 0.24726 0.08514 0.77658 0.0
H2274 H 0.2528 0.09137 0.7529 0.0
H2275 H 0.2288 0.08687 0.75937 0.0
C2276 C 0.21825 0.109 0.70983 0.0
C2277 C 0.19877 0.11123 0.70809 0.0
C2278 C 0.22719 0.1128 0.72675 0.0
C2279 C 0.21685 0.11871 0.74238 0.0
C2280 C 0.19729 0.12029 0.74093 0.0
H2281 H 0.28646 0.13964 0.84097 0.0
H2282 H 0.26062 0.12851 0.82176 0.0
C2283 C 0.18829 0.11648 0.72393 0.0
C2284 C 0.22688 0.1251 0.75939 0.0
H2285 H 0.26276 0.11303 0.78852 0.0
C2286 C 0.22456 0.14376 0.76518 0.0
C2287 C 0.24012 0.11363 0.76865 0.0
C2288 C 0.24223 0.09308 0.76417 0.0
C2289 C 0.23603 0.1516 0.77909 0.0
C2290 C 0.25049 0.1406 0.78704 0.0
C2291 C 0.25192 0.1216 0.78217 0.0
C2292 C 0.26495 0.14869 0.79957 0.0
C2293 C 0.23268 0.17163 0.78492 0.0
C2294 C 0.276 0.16382 0.79354 0.0
C2295 C 0.29067 0.17046 0.80466 0.0
C2296 C 0.29481 0.16193 0.82193 0.0
C2297 C 0.28359 0.14684 0.82796 0.0
C2298 C 0.26883 0.14033 0.81691 0.0
H2299 H 0.21778 0.17566 0.78287 0.0
H2300 H 0.23647 0.17395 0.79983 0.0
H2301 H 0.24135 0.18105 0.77608 0.0
H2302 H 0.2736 0.1702 0.77999 0.0
H2303 H 0.29885 0.18217 0.79959 0.0
H2304 H 0.86784 0.30431 0.82633 0.0
H2305 H 0.88028 0.28138 0.80414 0.0
H2306 H 0.82407 0.26723 0.78712 0.0
H2307 H 0.81149 0.29002 0.80941 0.0
H2308 H 0.8733 0.2419 0.80056 0.0
H2309 H 0.85089 0.28264 0.73806 0.0
H2310 H 0.85167 0.29267 0.76125 0.0
H2311 H 0.83263 0.2776 0.75464 0.0
C2312 C 0.85811 0.2962 0.818 0.0
C2313 C 0.83867 0.29911 0.81954 0.0
C2314 C 0.86524 0.28312 0.80532 0.0
C2315 C 0.8531 0.27278 0.79388 0.0
C2316 C 0.83368 0.27532 0.79563 0.0
H2317 H 0.87686 0.17878 0.72044 0.0
H2318 H 0.86841 0.19776 0.7477 0.0
C2319 C 0.82652 0.28841 0.80831 0.0
C2320 C 0.86081 0.25978 0.7797 0.0
H2321 H 0.86394 0.25276 0.73256 0.0
C2322 C 0.87129 0.24423 0.78568 0.0
C2323 C 0.85834 0.26304 0.76033 0.0
C2324 C 0.84792 0.27997 0.75311 0.0
C2325 C 0.87921 0.2317 0.77272 0.0
C2326 C 0.87641 0.23479 0.75336 0.0
C2327 C 0.86604 0.25042 0.74743 0.0
C2328 C 0.88408 0.22216 0.73879 0.0
C2329 C 0.89073 0.21547 0.77979 0.0
C2330 C 0.89598 0.22944 0.72495 0.0
C2331 C 0.90069 0.21871 0.70931 0.0
C2332 C 0.89358 0.20048 0.70722 0.0
C2333 C 0.88268 0.19273 0.72171 0.0
C2334 C 0.87786 0.20356 0.73733 0.0
H2335 H 0.89536 0.21764 0.79449 0.0
H2336 H 0.88214 0.20252 0.77932 0.0
H2337 H 0.90327 0.21326 0.77086 0.0
H2338 H 0.90094 0.24376 0.72583 0.0
H2339 H 0.90917 0.22503 0.69843 0.0
H2340 H 0.71877 0.83875 0.8406 0.0
H2341 H 0.74334 0.85088 0.82003 0.0
H2342 H 0.70756 0.84256 0.77214 0.0
H2343 H 0.68267 0.83096 0.79256 0.0
H2344 H 0.74928 0.8291 0.77108 0.0
H2345 H 0.73619 0.90366 0.79036 0.0
H2346 H 0.73758 0.88626 0.80863 0.0
H2347 H 0.71823 0.88598 0.79266 0.0
C2348 C 0.71603 0.83958 0.82572 0.0
C2349 C 0.69859 0.83405 0.81829 0.0
C2350 C 0.73015 0.84641 0.814 0.0
C2351 C 0.72714 0.8477 0.79466 0.0
C2352 C 0.71008 0.84163 0.78709 0.0
H2353 H 0.76876 0.90171 0.69867 0.0
H2354 H 0.75249 0.89176 0.72707 0.0
C2355 C 0.69591 0.83491 0.79878 0.0
C2356 C 0.74149 0.85595 0.78225 0.0
H2357 H 0.75835 0.8979 0.76667 0.0
C2358 C 0.75153 0.8441 0.77025 0.0
C2359 C 0.74421 0.87553 0.78128 0.0
C2360 C 0.7335 0.88873 0.79383 0.0
C2361 C 0.76392 0.8514 0.75683 0.0
C2362 C 0.76629 0.87105 0.75551 0.0
C2363 C 0.7566 0.88286 0.76787 0.0
C2364 C 0.77704 0.87957 0.73998 0.0
C2365 C 0.77369 0.83813 0.74358 0.0
C2366 C 0.79641 0.87672 0.73825 0.0
C2367 C 0.8058 0.88249 0.72204 0.0
C2368 C 0.79589 0.89106 0.7073 0.0
C2369 C 0.77676 0.89502 0.7097 0.0
C2370 C 0.76743 0.88936 0.72592 0.0
H2371 H 0.76816 0.82362 0.74466 0.0
H2372 H 0.77214 0.84297 0.72888 0.0
H2373 H 0.78888 0.83778 0.74689 0.0
H2374 H 0.8041 0.8694 0.74909 0.0
H2375 H 0.82057 0.87929 0.72065 0.0
H2376 H 0.20552 0.1604 0.31202 0.0
H2377 H 0.22599 0.14923 0.28701 0.0
H2378 H 0.17781 0.1354 0.25339 0.0
H2379 H 0.15715 0.14706 0.27803 0.0
H2380 H 0.20761 0.1059 0.2581 0.0
H2381 H 0.23349 0.17525 0.23396 0.0
H2382 H 0.23373 0.17167 0.25891 0.0
H2383 H 0.21177 0.17241 0.24667 0.0
C2384 C 0.19921 0.15525 0.29925 0.0
C2385 C 0.17962 0.15468 0.29714 0.0
C2386 C 0.21095 0.1488 0.28499 0.0
C2387 C 0.20336 0.14162 0.26838 0.0
C2388 C 0.18388 0.1409 0.26616 0.0
H2389 H 0.27901 0.11909 0.17471 0.0
H2390 H 0.24987 0.12612 0.19137 0.0
C2391 C 0.1721 0.14748 0.28036 0.0
C2392 C 0.2159 0.13454 0.25352 0.0
H2393 H 0.25032 0.14846 0.22349 0.0
C2394 C 0.21679 0.11518 0.25032 0.0
C2395 C 0.22761 0.14674 0.24326 0.0
C2396 C 0.22657 0.16771 0.24569 0.0
C2397 C 0.22988 0.1076 0.23773 0.0
C2398 C 0.24237 0.11973 0.2283 0.0
C2399 C 0.24076 0.13917 0.23079 0.0
C2400 C 0.25836 0.11264 0.21716 0.0
C2401 C 0.23045 0.08667 0.23489 0.0
C2402 C 0.27258 0.10239 0.22603 0.0
C2403 C 0.28925 0.09843 0.21661 0.0
C2404 C 0.292 0.10469 0.19814 0.0
C2405 C 0.27729 0.11399 0.1889 0.0
C2406 C 0.26065 0.11808 0.1984 0.0
H2407 H 0.21678 0.08009 0.23837 0.0
H2408 H 0.23416 0.08311 0.22021 0.0
H2409 H 0.24123 0.08054 0.24426 0.0
H2410 H 0.27124 0.09836 0.2406 0.0
H2411 H 0.30032 0.09125 0.2241 0.0
H2412 H 0.87755 0.27906 0.17667 0.0
H2413 H 0.86739 0.25091 0.1935 0.0
H2414 H 0.89344 0.27157 0.24393 0.0
H2415 H 0.90365 0.29967 0.22728 0.0
H2416 H 0.89748 0.23153 0.23726 0.0
H2417 H 0.82396 0.25738 0.23229 0.0
H2418 H 0.83676 0.2549 0.21072 0.0
H2419 H 0.84383 0.27226 0.22746 0.0
C2420 C 0.88151 0.2774 0.19122 0.0
C2421 C 0.89122 0.29168 0.20073 0.0
C2422 C 0.87559 0.26137 0.20083 0.0
C2423 C 0.87941 0.25937 0.22001 0.0
C2424 C 0.89029 0.27292 0.22914 0.0
H2425 H 0.83121 0.20669 0.31516 0.0
H2426 H 0.84287 0.22734 0.29047 0.0
C2427 C 0.8961 0.28897 0.2196 0.0
C2428 C 0.8708 0.24414 0.23112 0.0
H2429 H 0.82916 0.23025 0.25021 0.0
C2430 C 0.88252 0.23103 0.23989 0.0
C2431 C 0.85129 0.24375 0.23464 0.0
C2432 C 0.83816 0.25785 0.22592 0.0
C2433 C 0.87526 0.21772 0.25242 0.0
C2434 C 0.85583 0.21759 0.25622 0.0
C2435 C 0.84405 0.23042 0.24715 0.0
C2436 C 0.8477 0.20505 0.27055 0.0
C2437 C 0.88845 0.20434 0.26211 0.0
C2438 C 0.8462 0.18576 0.26731 0.0
C2439 C 0.83935 0.17392 0.28132 0.0
C2440 C 0.83397 0.18116 0.29888 0.0
C2441 C 0.83505 0.20062 0.30182 0.0
C2442 C 0.84181 0.21245 0.28776 0.0
H2443 H 0.90338 0.20767 0.25924 0.0
H2444 H 0.8861 0.20467 0.27749 0.0
H2445 H 0.88561 0.18986 0.25723 0.0
H2446 H 0.85046 0.17987 0.25399 0.0
H2447 H 0.83833 0.1591 0.27836 0.0
H2448 H 0.72207 0.87892 0.17303 0.0
H2449 H 0.75041 0.86978 0.19011 0.0
H2450 H 0.72959 0.89749 0.23959 0.0
H2451 H 0.70133 0.90673 0.22267 0.0
H2452 H 0.76938 0.90157 0.23315 0.0
H2453 H 0.74444 0.82763 0.23005 0.0
H2454 H 0.74712 0.83975 0.20811 0.0
H2455 H 0.72942 0.84716 0.22435 0.0
C2456 C 0.72374 0.88348 0.1874 0.0
C2457 C 0.70936 0.89336 0.19659 0.0
C2458 C 0.73988 0.87814 0.19716 0.0
C2459 C 0.74188 0.88269 0.21618 0.0
C2460 C 0.72824 0.89377 0.22493 0.0
H2461 H 0.79325 0.83711 0.31307 0.0
H2462 H 0.77312 0.84829 0.28776 0.0
C2463 C 0.71209 0.89902 0.21524 0.0
C2464 C 0.75716 0.87458 0.22761 0.0
H2465 H 0.77129 0.83368 0.24807 0.0
C2466 C 0.77003 0.8867 0.2362 0.0
C2467 C 0.75775 0.85518 0.23169 0.0
C2468 C 0.74391 0.84161 0.22321 0.0
C2469 C 0.78324 0.87997 0.24912 0.0
C2470 C 0.78354 0.86066 0.2535 0.0
C2471 C 0.771 0.84847 0.24458 0.0
C2472 C 0.79585 0.8531 0.26833 0.0
C2473 C 0.79631 0.89359 0.25863 0.0
C2474 C 0.81524 0.85179 0.26559 0.0
C2475 C 0.8268 0.84521 0.27997 0.0
C2476 C 0.81916 0.8399 0.29739 0.0
C2477 C 0.79963 0.84089 0.29986 0.0
C2478 C 0.78809 0.84737 0.28544 0.0
H2479 H 0.79284 0.90839 0.25527 0.0
H2480 H 0.79577 0.89168 0.27406 0.0
H2481 H 0.8109 0.89081 0.25404 0.0
H2482 H 0.82142 0.85593 0.25236 0.0
H2483 H 0.84169 0.84428 0.27737 0.0
H2484 H 0.09388 0.7002 0.22406 0.0
H2485 H 0.1029 0.72874 0.24059 0.0
H2486 H 0.13353 0.74745 0.19197 0.0
H2487 H 0.12447 0.71891 0.17525 0.0
H2488 H 0.15491 0.74491 0.22533 0.0
H2489 H 0.08933 0.78483 0.23694 0.0
H2490 H 0.08738 0.7604 0.24267 0.0
H2491 H 0.09164 0.7673 0.21881 0.0
C2492 C 0.10209 0.71062 0.21669 0.0
C2493 C 0.10854 0.70726 0.1984 0.0
C2494 C 0.10717 0.72697 0.22613 0.0
C2495 C 0.11879 0.74023 0.21746 0.0
C2496 C 0.12445 0.73741 0.19885 0.0
H2497 H 0.15836 0.83913 0.27859 0.0
H2498 H 0.14699 0.81889 0.25349 0.0
C2499 C 0.11921 0.72113 0.18931 0.0
C2500 C 0.1269 0.75563 0.22871 0.0
H2501 H 0.11513 0.79205 0.25734 0.0
C2502 C 0.14627 0.75543 0.23208 0.0
C2503 C 0.1156 0.76935 0.23742 0.0
C2504 C 0.09485 0.77065 0.23366 0.0
C2505 C 0.15451 0.76802 0.24471 0.0
C2506 C 0.14304 0.78104 0.25421 0.0
C2507 C 0.12383 0.78189 0.25013 0.0
C2508 C 0.15058 0.79322 0.26913 0.0
C2509 C 0.17535 0.7671 0.24811 0.0
C2510 C 0.15633 0.78543 0.28622 0.0
C2511 C 0.16259 0.79696 0.30074 0.0
C2512 C 0.16323 0.81652 0.29843 0.0
C2513 C 0.15775 0.8242 0.28108 0.0
C2514 C 0.15136 0.81266 0.26663 0.0
H2515 H 0.18271 0.7593 0.23683 0.0
H2516 H 0.18139 0.7814 0.24911 0.0
H2517 H 0.178 0.75982 0.26159 0.0
H2518 H 0.1556 0.77043 0.28845 0.0
H2519 H 0.16643 0.79053 0.31392 0.0
H2520 H 0.29292 0.905 0.77351 0.0
H2521 H 0.26423 0.89493 0.75786 0.0
H2522 H 0.24686 0.86592 0.80793 0.0
H2523 H 0.27555 0.87607 0.82379 0.0
H2524 H 0.24862 0.84336 0.77516 0.0
H2525 H 0.20818 0.90842 0.7625 0.0
H2526 H 0.23245 0.91029 0.75611 0.0
H2527 H 0.22617 0.90673 0.78025 0.0
C2528 C 0.28277 0.89691 0.78137 0.0
C2529 C 0.28654 0.89126 0.79985 0.0
C2530 C 0.26634 0.89122 0.77243 0.0
C2531 C 0.25339 0.87977 0.78177 0.0
C2532 C 0.25665 0.87485 0.80053 0.0
H2533 H 0.15319 0.83945 0.72311 0.0
H2534 H 0.17385 0.85089 0.74786 0.0
C2535 C 0.27301 0.88072 0.80958 0.0
C2536 C 0.23774 0.87124 0.77117 0.0
H2537 H 0.20062 0.88202 0.74303 0.0
C2538 C 0.23792 0.85176 0.76839 0.0
C2539 C 0.22376 0.88221 0.76244 0.0
C2540 C 0.22246 0.90306 0.7656 0.0
C2541 C 0.22505 0.84311 0.75631 0.0
C2542 C 0.21179 0.85424 0.74674 0.0
C2543 C 0.21096 0.87356 0.75027 0.0
C2544 C 0.19935 0.84628 0.73222 0.0
C2545 C 0.22594 0.82218 0.75357 0.0
C2546 C 0.2069 0.83985 0.71526 0.0
C2547 C 0.19514 0.83355 0.70094 0.0
C2548 C 0.17557 0.83356 0.70331 0.0
C2549 C 0.16813 0.83958 0.72058 0.0
C2550 C 0.17991 0.84601 0.73483 0.0
H2551 H 0.23381 0.81518 0.76503 0.0
H2552 H 0.21164 0.81609 0.75283 0.0
H2553 H 0.23317 0.8191 0.74015 0.0
H2554 H 0.2219 0.84019 0.71291 0.0
H2555 H 0.20138 0.82924 0.68782 0.0
H2556 H 0.11344 0.27691 0.82612 0.0
H2557 H 0.11966 0.24771 0.80916 0.0
H2558 H 0.10492 0.27479 0.75717 0.0
H2559 H 0.09813 0.30365 0.77396 0.0
H2560 H 0.09281 0.23889 0.7581 0.0
H2561 H 0.16773 0.24309 0.77937 0.0
H2562 H 0.15117 0.2413 0.79821 0.0
H2563 H 0.15142 0.26187 0.78369 0.0
C2564 C 0.11111 0.27649 0.81114 0.0
C2565 C 0.10552 0.29266 0.80134 0.0
C2566 C 0.11485 0.25985 0.80145 0.0
C2567 C 0.11321 0.25923 0.78185 0.0
C2568 C 0.1064 0.27498 0.77228 0.0
H2569 H 0.17273 0.20328 0.69586 0.0
H2570 H 0.16028 0.22334 0.72051 0.0
C2571 C 0.10256 0.29151 0.78191 0.0
C2572 C 0.11982 0.24288 0.77089 0.0
H2573 H 0.15949 0.21933 0.75825 0.0
C2574 C 0.10734 0.23441 0.75828 0.0
C2575 C 0.13885 0.23727 0.77103 0.0
C2576 C 0.15315 0.24641 0.78366 0.0
C2577 C 0.11348 0.22101 0.74528 0.0
C2578 C 0.13256 0.21558 0.74525 0.0
C2579 C 0.14488 0.2235 0.75836 0.0
C2580 C 0.14035 0.20291 0.73076 0.0
C2581 C 0.0997 0.21359 0.73105 0.0
C2582 C 0.13348 0.18465 0.72848 0.0
C2583 C 0.14033 0.17324 0.71413 0.0
C2584 C 0.15443 0.17975 0.70193 0.0
C2585 C 0.16167 0.19787 0.70469 0.0
C2586 C 0.15468 0.20932 0.71892 0.0
H2587 H 0.0869 0.2224 0.73019 0.0
H2588 H 0.10615 0.21286 0.71691 0.0
H2589 H 0.09534 0.19924 0.73514 0.0
H2590 H 0.12269 0.17927 0.7377 0.0
H2591 H 0.13425 0.15947 0.71244 0.0
H2592 H 0.70268 0.09489 0.77287 0.0
H2593 H 0.73155 0.10473 0.75739 0.0
H2594 H 0.74913 0.1331 0.80773 0.0
H2595 H 0.72028 0.12317 0.82343 0.0
H2596 H 0.74737 0.15596 0.77508 0.0
H2597 H 0.78761 0.09084 0.76204 0.0
H2598 H 0.7633 0.08913 0.75573 0.0
H2599 H 0.76968 0.09251 0.77986 0.0
C2600 C 0.71291 0.10278 0.78083 0.0
C2601 C 0.70915 0.10834 0.79933 0.0
C2602 C 0.72945 0.10833 0.77198 0.0
C2603 C 0.7425 0.11955 0.78145 0.0
C2604 C 0.73926 0.12434 0.80024 0.0
H2605 H 0.84273 0.16011 0.72298 0.0
H2606 H 0.82213 0.14854 0.74772 0.0
C2607 C 0.72279 0.11861 0.80919 0.0
C2608 C 0.75819 0.12809 0.77094 0.0
H2609 H 0.7953 0.11737 0.74277 0.0
C2610 C 0.75806 0.14758 0.76828 0.0
C2611 C 0.77214 0.11712 0.76217 0.0
C2612 C 0.77336 0.09625 0.76521 0.0
C2613 C 0.77095 0.15627 0.75625 0.0
C2614 C 0.78419 0.14515 0.74663 0.0
C2615 C 0.78498 0.12581 0.75006 0.0
C2616 C 0.7966 0.15316 0.73212 0.0
C2617 C 0.77009 0.17721 0.75358 0.0
C2618 C 0.78901 0.15961 0.71518 0.0
C2619 C 0.80074 0.16598 0.70087 0.0
C2620 C 0.82032 0.16601 0.70322 0.0
C2621 C 0.8278 0.15996 0.72046 0.0
C2622 C 0.81604 0.15346 0.73471 0.0
H2623 H 0.76224 0.18417 0.76509 0.0
H2624 H 0.7844 0.18328 0.75285 0.0
H2625 H 0.76286 0.18036 0.74019 0.0
H2626 H 0.77402 0.15925 0.71286 0.0
H2627 H 0.79447 0.17028 0.68776 0.0
H2628 H 0.87015 0.72168 0.82599 0.0
H2629 H 0.85926 0.75053 0.81078 0.0
H2630 H 0.88693 0.73405 0.75967 0.0
H2631 H 0.89784 0.70533 0.77468 0.0
H2632 H 0.88988 0.77365 0.7694 0.0
H2633 H 0.81692 0.74568 0.77036 0.0
H2634 H 0.82932 0.74708 0.79226 0.0
H2635 H 0.83698 0.73089 0.77465 0.0
C2636 C 0.87429 0.72444 0.81166 0.0
C2637 C 0.88472 0.71119 0.80145 0.0
C2638 C 0.86795 0.74085 0.80297 0.0
C2639 C 0.8721 0.74424 0.78405 0.0
C2640 C 0.88355 0.73164 0.77427 0.0
H2641 H 0.82882 0.79525 0.68758 0.0
H2642 H 0.83847 0.77556 0.71388 0.0
C2643 C 0.88975 0.71523 0.78286 0.0
C2644 C 0.86339 0.75994 0.77372 0.0
H2645 H 0.82237 0.77293 0.75279 0.0
C2646 C 0.87506 0.77377 0.76606 0.0
C2647 C 0.84407 0.75986 0.7693 0.0
C2648 C 0.83101 0.74507 0.77694 0.0
C2649 C 0.86803 0.78715 0.75348 0.0
C2650 C 0.84887 0.78662 0.74852 0.0
C2651 C 0.83704 0.77325 0.75673 0.0
C2652 C 0.84136 0.79856 0.73337 0.0
C2653 C 0.88129 0.80115 0.7448 0.0
C2654 C 0.83936 0.81793 0.73584 0.0
C2655 C 0.83372 0.82922 0.72086 0.0
C2656 C 0.83005 0.82131 0.70315 0.0
C2657 C 0.83141 0.80179 0.70101 0.0
C2658 C 0.83698 0.79052 0.716 0.0
H2659 H 0.89611 0.79841 0.74866 0.0
H2660 H 0.88002 0.80085 0.72929 0.0
H2661 H 0.87753 0.81546 0.74956 0.0
H2662 H 0.84244 0.82432 0.74925 0.0
H2663 H 0.83238 0.84413 0.72314 0.0
H2664 H 0.27634 0.1553 0.15883 0.0
H2665 H 0.25128 0.17552 0.1471 0.0
H2666 H 0.28637 0.22395 0.15522 0.0
H2667 H 0.31172 0.20392 0.1664 0.0
H2668 H 0.24471 0.22428 0.1691 0.0
H2669 H 0.25759 0.20555 0.09434 0.0
H2670 H 0.25657 0.18726 0.11175 0.0
H2671 H 0.27576 0.20344 0.11183 0.0
C2672 C 0.27883 0.17023 0.15805 0.0
C2673 C 0.29621 0.17793 0.1634 0.0
C2674 C 0.26442 0.18175 0.15145 0.0
C2675 C 0.26709 0.20114 0.15022 0.0
C2676 C 0.2841 0.20897 0.15612 0.0
H2677 H 0.22703 0.29772 0.09746 0.0
H2678 H 0.24246 0.26871 0.10689 0.0
C2679 C 0.29855 0.19748 0.1626 0.0
C2680 C 0.25251 0.21339 0.14213 0.0
H2681 H 0.2358 0.2295 0.10033 0.0
C2682 C 0.24246 0.22525 0.1541 0.0
C2683 C 0.24978 0.21454 0.12257 0.0
C2684 C 0.26047 0.2021 0.10925 0.0
C2685 C 0.23015 0.23881 0.14693 0.0
C2686 C 0.22789 0.24043 0.12729 0.0
C2687 C 0.23749 0.2281 0.11537 0.0
C2688 C 0.21754 0.25632 0.11892 0.0
C2689 C 0.22042 0.25196 0.16036 0.0
C2690 C 0.19822 0.25855 0.12178 0.0
C2691 C 0.18932 0.27513 0.11631 0.0
C2692 C 0.19967 0.28973 0.10801 0.0
C2693 C 0.21871 0.28681 0.10394 0.0
C2694 C 0.22754 0.27023 0.10932 0.0
H2695 H 0.22583 0.25059 0.17489 0.0
H2696 H 0.22217 0.26672 0.15576 0.0
H2697 H 0.20519 0.24881 0.16055 0.0
H2698 H 0.19022 0.24782 0.12894 0.0
H2699 H 0.17461 0.2769 0.11957 0.0
H2700 H 0.17405 0.72085 0.87796 0.0
H2701 H 0.19003 0.7496 0.86816 0.0
H2702 H 0.24118 0.72992 0.89357 0.0
H2703 H 0.22539 0.70123 0.90345 0.0
H2704 H 0.2337 0.76969 0.898 0.0
H2705 H 0.22839 0.74437 0.82431 0.0
H2706 H 0.20693 0.7464 0.83736 0.0
H2707 H 0.22401 0.72924 0.8441 0.0
C2708 C 0.18858 0.72284 0.88187 0.0
C2709 C 0.19855 0.70866 0.89126 0.0
C2710 C 0.19769 0.73922 0.87616 0.0
C2711 C 0.21683 0.74167 0.87987 0.0
C2712 C 0.22641 0.72822 0.89051 0.0
H2713 H 0.31089 0.79505 0.83131 0.0
H2714 H 0.2862 0.77437 0.84291 0.0
C2715 C 0.21736 0.71182 0.89612 0.0
C2716 C 0.2275 0.7572 0.87128 0.0
H2717 H 0.24606 0.77162 0.82959 0.0
C2718 C 0.23618 0.77034 0.88302 0.0
C2719 C 0.23083 0.75779 0.85174 0.0
C2720 C 0.22219 0.74367 0.83857 0.0
C2721 C 0.2485 0.78385 0.87576 0.0
C2722 C 0.25215 0.78413 0.8563 0.0
C2723 C 0.24311 0.77132 0.8445 0.0
C2724 C 0.26643 0.7967 0.84818 0.0
C2725 C 0.25816 0.79722 0.88897 0.0
C2726 C 0.26326 0.81602 0.84695 0.0
C2727 C 0.27728 0.82788 0.84014 0.0
C2728 C 0.29475 0.82061 0.83454 0.0
C2729 C 0.29761 0.80113 0.83533 0.0
C2730 C 0.28355 0.78929 0.84205 0.0
H2731 H 0.25542 0.79376 0.9039 0.0
H2732 H 0.27352 0.79705 0.88652 0.0
H2733 H 0.25312 0.81168 0.88627 0.0
H2734 H 0.25001 0.82193 0.8514 0.0
H2735 H 0.2744 0.84273 0.83935 0.0
H2736 H 0.27863 0.17454 0.88054 0.0
H2737 H 0.24922 0.18975 0.87152 0.0
H2738 H 0.26969 0.2423 0.89315 0.0
H2739 H 0.29902 0.22727 0.90227 0.0
H2740 H 0.23036 0.23488 0.90013 0.0
H2741 H 0.25149 0.22566 0.82548 0.0
H2742 H 0.25024 0.20496 0.8398 0.0
H2743 H 0.26776 0.22235 0.84455 0.0
C2744 C 0.2767 0.18923 0.88379 0.0
C2745 C 0.29126 0.19979 0.89189 0.0
C2746 C 0.25993 0.1979 0.87853 0.0
C2747 C 0.25748 0.21719 0.88137 0.0
C2748 C 0.27138 0.2274 0.89076 0.0
H2749 H 0.20415 0.31058 0.83404 0.0
H2750 H 0.22426 0.28535 0.84527 0.0
C2751 C 0.28815 0.21879 0.89594 0.0
C2752 C 0.24138 0.2273 0.87311 0.0
H2753 H 0.22489 0.24405 0.83142 0.0
C2754 C 0.2289 0.23661 0.88511 0.0
C2755 C 0.2397 0.22964 0.85349 0.0
C2756 C 0.25303 0.22025 0.84 0.0
C2757 C 0.21511 0.24869 0.87799 0.0
C2758 C 0.21388 0.25151 0.85844 0.0
C2759 C 0.22591 0.24172 0.8464 0.0
C2760 C 0.20152 0.26603 0.85043 0.0
C2761 C 0.20253 0.25912 0.89138 0.0
C2762 C 0.18212 0.26329 0.84926 0.0
C2763 C 0.17055 0.27764 0.84263 0.0
C2764 C 0.17819 0.29501 0.83717 0.0
C2765 C 0.19774 0.29741 0.83792 0.0
C2766 C 0.20928 0.28303 0.84443 0.0
H2767 H 0.20603 0.2562 0.90626 0.0
H2768 H 0.20364 0.27444 0.88887 0.0
H2769 H 0.18774 0.25503 0.88887 0.0
H2770 H 0.17595 0.25014 0.85367 0.0
H2771 H 0.15562 0.27512 0.84189 0.0
H2772 H 0.72184 0.15682 0.83828 0.0
H2773 H 0.74672 0.17734 0.84978 0.0
H2774 H 0.71054 0.2252 0.84295 0.0
H2775 H 0.68541 0.20479 0.83184 0.0
H2776 H 0.74943 0.2287 0.82863 0.0
H2777 H 0.74411 0.2041 0.90255 0.0
H2778 H 0.74618 0.18661 0.88449 0.0
H2779 H 0.72542 0.2007 0.88582 0.0
C2780 C 0.71908 0.17168 0.83933 0.0
C2781 C 0.7015 0.17911 0.83432 0.0
C2782 C 0.73336 0.18338 0.84583 0.0
C2783 C 0.73035 0.2027 0.84738 0.0
C2784 C 0.71309 0.21027 0.84185 0.0
H2785 H 0.77373 0.29626 0.9041 0.0
H2786 H 0.75765 0.26786 0.89386 0.0
C2787 C 0.69877 0.19859 0.83542 0.0
C2788 C 0.74496 0.21513 0.85516 0.0
H2789 H 0.76569 0.22819 0.89623 0.0
C2790 C 0.75322 0.22847 0.84334 0.0
C2791 C 0.74971 0.21475 0.87438 0.0
C2792 C 0.74087 0.20087 0.88767 0.0
C2793 C 0.76579 0.24185 0.85036 0.0
C2794 C 0.77025 0.24173 0.86968 0.0
C2795 C 0.76235 0.22807 0.88141 0.0
C2796 C 0.78125 0.25705 0.87824 0.0
C2797 C 0.77349 0.25657 0.83726 0.0
C2798 C 0.80012 0.25991 0.8735 0.0
C2799 C 0.8094 0.27613 0.8794 0.0
C2800 C 0.79987 0.2897 0.89006 0.0
C2801 C 0.7814 0.28611 0.89582 0.0
C2802 C 0.77219 0.26989 0.89 0.0
H2803 H 0.76643 0.25637 0.82339 0.0
H2804 H 0.7719 0.27075 0.84345 0.0
H2805 H 0.78867 0.25404 0.83501 0.0
H2806 H 0.80739 0.25002 0.86458 0.0
H2807 H 0.82363 0.27855 0.87468 0.0
H2808 H 0.69617 0.77305 0.90594 0.0
H2809 H 0.72502 0.75618 0.8987 0.0
H2810 H 0.74597 0.80439 0.8689 0.0
H2811 H 0.71707 0.82142 0.87607 0.0
H2812 H 0.74496 0.77126 0.84769 0.0
H2813 H 0.77989 0.75921 0.91597 0.0
H2814 H 0.75542 0.75339 0.91611 0.0
H2815 H 0.76251 0.7773 0.91252 0.0
C2816 C 0.70711 0.78025 0.89826 0.0
C2817 C 0.70432 0.79853 0.89152 0.0
C2818 C 0.72364 0.77061 0.89422 0.0
C2819 C 0.73768 0.77908 0.88338 0.0
C2820 C 0.73534 0.79767 0.87739 0.0
H2821 H 0.83925 0.71959 0.84812 0.0
H2822 H 0.81807 0.74387 0.85958 0.0
C2823 C 0.71885 0.80739 0.88156 0.0
C2824 C 0.75354 0.76769 0.87641 0.0
H2825 H 0.789 0.73891 0.89067 0.0
C2826 C 0.75479 0.76443 0.85706 0.0
C2827 C 0.76636 0.75885 0.88865 0.0
C2828 C 0.76614 0.76248 0.90946 0.0
C2829 C 0.76797 0.75185 0.84971 0.0
C2830 C 0.78011 0.74228 0.86205 0.0
C2831 C 0.77949 0.74618 0.8813 0.0
C2832 C 0.79295 0.72756 0.85523 0.0
C2833 C 0.76862 0.74858 0.82884 0.0
C2834 C 0.78577 0.71033 0.84914 0.0
C2835 C 0.79783 0.69628 0.84281 0.0
C2836 C 0.81732 0.69923 0.8424 0.0
C2837 C 0.82441 0.71662 0.84849 0.0
C2838 C 0.81232 0.73061 0.85496 0.0
H2839 H 0.76099 0.75964 0.82098 0.0
H2840 H 0.78335 0.74809 0.82384 0.0
H2841 H 0.76204 0.73487 0.82561 0.0
H2842 H 0.77082 0.70771 0.84945 0.0
H2843 H 0.79186 0.68304 0.83852 0.0
H2844 H 0.69008 0.79557 0.16834 0.0
H2845 H 0.71561 0.77531 0.15805 0.0
H2846 H 0.7495 0.82375 0.1458 0.0
H2847 H 0.72429 0.84421 0.15663 0.0
H2848 H 0.74529 0.79579 0.11557 0.0
H2849 H 0.76794 0.7654 0.1835 0.0
H2850 H 0.74304 0.7654 0.17967 0.0
H2851 H 0.75529 0.78727 0.18181 0.0
C2852 C 0.70305 0.80198 0.16384 0.0
C2853 C 0.70499 0.82159 0.16325 0.0
C2854 C 0.71762 0.79036 0.15791 0.0
C2855 C 0.73442 0.79807 0.15126 0.0
C2856 C 0.7366 0.81757 0.15089 0.0
H2857 H 0.82645 0.72144 0.12395 0.0
H2858 H 0.81057 0.75042 0.13316 0.0
C2859 C 0.72209 0.82923 0.15697 0.0
C2860 C 0.74921 0.78567 0.14373 0.0
H2861 H 0.77801 0.74953 0.15584 0.0
C2862 C 0.75268 0.78585 0.12438 0.0
C2863 C 0.75897 0.77293 0.1553 0.0
C2864 C 0.7563 0.77277 0.17627 0.0
C2865 C 0.76493 0.77284 0.11615 0.0
C2866 C 0.77379 0.75933 0.1276 0.0
C2867 C 0.77112 0.75986 0.14708 0.0
C2868 C 0.78439 0.74341 0.11959 0.0
C2869 C 0.768 0.77341 0.09526 0.0
C2870 C 0.77503 0.73006 0.10863 0.0
C2871 C 0.78399 0.71346 0.10347 0.0
C2872 C 0.80249 0.70991 0.10918 0.0
C2873 C 0.81221 0.72379 0.11926 0.0
C2874 C 0.80316 0.74033 0.12459 0.0
H2875 H 0.76489 0.78751 0.08942 0.0
H2876 H 0.78264 0.76958 0.09164 0.0
H2877 H 0.75847 0.7632 0.08843 0.0
H2878 H 0.76046 0.73202 0.10488 0.0
H2879 H 0.77613 0.70304 0.09573 0.0
H2880 H 0.20639 0.68627 0.16777 0.0
H2881 H 0.22652 0.71181 0.15721 0.0
H2882 H 0.17797 0.74618 0.14691 0.0
H2883 H 0.15767 0.72095 0.15796 0.0
H2884 H 0.20495 0.74284 0.116 0.0
H2885 H 0.23744 0.76324 0.18365 0.0
H2886 H 0.23738 0.73848 0.17903 0.0
H2887 H 0.21555 0.75058 0.18224 0.0
C2888 C 0.19994 0.69934 0.16362 0.0
C2889 C 0.18034 0.70143 0.16368 0.0
C2890 C 0.21149 0.71392 0.15754 0.0
C2891 C 0.20369 0.73087 0.1514 0.0
C2892 C 0.18421 0.73317 0.1516 0.0
H2893 H 0.28009 0.82332 0.1252 0.0
H2894 H 0.25115 0.80735 0.1345 0.0
C2895 C 0.17264 0.71864 0.15781 0.0
C2896 C 0.21596 0.7458 0.14394 0.0
H2897 H 0.25253 0.77412 0.15585 0.0
C2898 C 0.21518 0.74991 0.12473 0.0
C2899 C 0.22907 0.75515 0.15542 0.0
C2900 C 0.22987 0.75181 0.17628 0.0
C2901 C 0.22794 0.76242 0.11651 0.0
C2902 C 0.24182 0.77088 0.12781 0.0
C2903 C 0.2419 0.76755 0.1472 0.0
C2904 C 0.25753 0.7817 0.11968 0.0
C2905 C 0.22672 0.7662 0.09576 0.0
C2906 C 0.27047 0.77268 0.10798 0.0
C2907 C 0.28701 0.78169 0.10273 0.0
C2908 C 0.2909 0.7999 0.1091 0.0
C2909 C 0.27742 0.80933 0.11995 0.0
C2910 C 0.26092 0.80022 0.12534 0.0
H2911 H 0.21242 0.76338 0.0903 0.0
H2912 H 0.23054 0.78093 0.0925 0.0
H2913 H 0.23662 0.75685 0.08828 0.0
H2914 H 0.26828 0.75828 0.10372 0.0
H2915 H 0.29714 0.77407 0.09438 0.0
H2916 H 0.72113 0.17595 0.12298 0.0
H2917 H 0.74954 0.19218 0.13343 0.0
H2918 H 0.73023 0.24302 0.1071 0.0
H2919 H 0.7019 0.22697 0.09662 0.0
H2920 H 0.77001 0.23539 0.10312 0.0
H2921 H 0.74419 0.23124 0.17671 0.0
H2922 H 0.7462 0.20962 0.16393 0.0
H2923 H 0.72915 0.22669 0.15691 0.0
C2924 C 0.72314 0.19046 0.11904 0.0
C2925 C 0.70919 0.20025 0.10913 0.0
C2926 C 0.73932 0.19973 0.12513 0.0
C2927 C 0.74179 0.21886 0.12128 0.0
C2928 C 0.72852 0.22827 0.11028 0.0
H2929 H 0.79489 0.31396 0.16797 0.0
H2930 H 0.77433 0.28892 0.157 0.0
C2931 C 0.71233 0.21908 0.10431 0.0
C2932 C 0.75729 0.22964 0.12984 0.0
H2933 H 0.77144 0.24891 0.1713 0.0
C2934 C 0.77055 0.23811 0.11805 0.0
C2935 C 0.75776 0.23329 0.14932 0.0
C2936 C 0.74354 0.22487 0.16253 0.0
C2937 C 0.78403 0.25053 0.1252 0.0
C2938 C 0.78419 0.25453 0.14459 0.0
C2939 C 0.77126 0.2457 0.15645 0.0
C2940 C 0.7967 0.269 0.15252 0.0
C2941 C 0.79751 0.25995 0.11191 0.0
C2942 C 0.81602 0.26589 0.15402 0.0
C2943 C 0.82782 0.28012 0.16047 0.0
C2944 C 0.82051 0.29777 0.16544 0.0
C2945 C 0.80102 0.30057 0.16443 0.0
C2946 C 0.78924 0.2863 0.15807 0.0
H2947 H 0.79424 0.25687 0.09702 0.0
H2948 H 0.79724 0.27536 0.11401 0.0
H2949 H 0.81197 0.25505 0.11489 0.0
H2950 H 0.82197 0.25252 0.15001 0.0
H2951 H 0.84268 0.2773 0.16146 0.0
loop_
_geom_bond_atom_site_label_1
_geom_bond_atom_site_label_2
_geom_bond_distance
_geom_bond_site_symmetry_2
_ccdc_geom_bond_type
C0 C1 1.351 . S
C0 N3 1.368 . S
C0 H5 0.931 . S
C1 C0 1.351 . S
C1 N2 1.373 . S
C1 H29 0.930 . S
N2 C1 1.373 . S
N2 C4 1.340 . S
N3 C0 1.368 . S
N3 C4 1.321 . S
N3 Co6 2.135 . S
C4 N2 1.340 . S
C4 N3 1.321 . S
C4 H28 0.930 . S
H5 C0 0.931 . S
Co6 N3 2.135 . S
Co6 N9 2.121 . S
Co6 O14 2.055 . S
Co6 O17 2.039 . S
Co6 N20 2.140 . S
C7 O8 1.227 . S
C7 O17 1.265 . S
O8 C7 1.227 . S
N9 Co6 2.121 . S
N9 C11 1.375 . S
N9 C12 1.313 . S
C10 C11 1.338 . S
C10 N13 1.377 . S
C10 H30 0.930 . S
C11 N9 1.375 . S
C11 C10 1.338 . S
C11 H15 0.931 . S
C12 N9 1.313 . S
C12 N13 1.344 . S
C12 H16 0.930 . S
N13 C10 1.377 . S
N13 C12 1.344 . S
O14 Co6 2.055 . S
O14 C18 1.253 . S
H15 C11 0.931 . S
H16 C12 0.930 . S
O17 Co6 2.039 . S
O17 C7 1.265 . S
C18 O14 1.253 . S
C18 O19 1.227 . S
O19 C18 1.227 . S
N20 Co6 2.140 . S
N20 C23 1.346 . S
N20 C24 1.345 . S
C21 C22 1.387 . S
C21 C25 1.391 . S
C22 C21 1.387 . S
C22 C23 1.369 . S
C22 H31 0.929 . S
C23 N20 1.346 . S
C23 C22 1.369 . S
C23 H26 0.928 . S
C24 N20 1.345 . S
C24 C25 1.371 . S
C24 H27 0.931 . S
C25 C21 1.391 . S
C25 C24 1.371 . S
C25 H32 0.930 . S
H26 C23 0.928 . S
H27 C24 0.931 . S
H28 C4 0.930 . S
H29 C1 0.930 . S
H30 C10 0.930 . S
H31 C22 0.929 . S
H32 C25 0.930 . S
C33 C34 1.351 . S
C33 N36 1.368 . S
C33 H38 0.931 . S
C34 C33 1.351 . S
C34 N35 1.373 . S
C34 H62 0.930 . S
N35 C34 1.373 . S
N35 C37 1.340 . S
N36 C33 1.368 . S
N36 C37 1.321 . S
N36 Co39 2.135 . S
C37 N35 1.340 . S
C37 N36 1.321 . S
C37 H61 0.930 . S
H38 C33 0.931 . S
Co39 N36 2.135 . S
Co39 N42 2.121 . S
Co39 O47 2.055 . S
Co39 O50 2.039 . S
Co39 N53 2.140 . S
C40 O41 1.227 . S
C40 O50 1.265 . S
O41 C40 1.227 . S
N42 Co39 2.121 . S
N42 C44 1.375 . S
N42 C45 1.313 . S
C43 C44 1.338 . S
C43 N46 1.377 . S
C43 H63 0.930 . S
C44 N42 1.375 . S
C44 C43 1.338 . S
C44 H48 0.931 . S
C45 N42 1.313 . S
C45 N46 1.344 . S
C45 H49 0.930 . S
N46 C43 1.377 . S
N46 C45 1.344 . S
O47 Co39 2.055 . S
O47 C51 1.253 . S
H48 C44 0.931 . S
H49 C45 0.930 . S
O50 Co39 2.039 . S
O50 C40 1.265 . S
C51 O47 1.253 . S
C51 O52 1.227 . S
O52 C51 1.227 . S
N53 Co39 2.140 . S
N53 C56 1.346 . S
N53 C57 1.345 . S
C54 C55 1.387 . S
C54 C58 1.391 . S
C55 C54 1.387 . S
C55 C56 1.369 . S
C55 H64 0.929 . S
C56 N53 1.346 . S
C56 C55 1.369 . S
C56 H59 0.928 . S
C57 N53 1.345 . S
C57 C58 1.371 . S
C57 H60 0.931 . S
C58 C54 1.391 . S
C58 C57 1.371 . S
C58 H65 0.930 . S
H59 C56 0.928 . S
H60 C57 0.931 . S
H61 C37 0.930 . S
H62 C34 0.930 . S
H63 C43 0.930 . S
H64 C55 0.929 . S
H65 C58 0.930 . S
C66 C67 1.351 . S
C66 N69 1.368 . S
C66 H71 0.931 . S
C67 C66 1.351 . S
C67 N68 1.373 . S
C67 H95 0.930 . S
N68 C67 1.373 . S
N68 C70 1.340 . S
N69 C66 1.368 . S
N69 C70 1.321 . S
N69 Co72 2.135 . S
C70 N68 1.340 . S
C70 N69 1.321 . S
C70 H94 0.930 . S
H71 C66 0.931 . S
Co72 N69 2.135 . S
Co72 N75 2.121 . S
Co72 O80 2.055 . S
Co72 O83 2.039 . S
Co72 N86 2.140 . S
C73 O74 1.227 . S
C73 O83 1.265 . S
O74 C73 1.227 . S
N75 Co72 2.121 . S
N75 C77 1.375 . S
N75 C78 1.313 . S
C76 C77 1.338 . S
C76 N79 1.377 . S
C76 H96 0.930 . S
C77 N75 1.375 . S
C77 C76 1.338 . S
C77 H81 0.931 . S
C78 N75 1.313 . S
C78 N79 1.344 . S
C78 H82 0.930 . S
N79 C76 1.377 . S
N79 C78 1.344 . S
O80 Co72 2.055 . S
O80 C84 1.253 . S
H81 C77 0.931 . S
H82 C78 0.930 . S
O83 Co72 2.039 . S
O83 C73 1.265 . S
C84 O80 1.253 . S
C84 O85 1.227 . S
O85 C84 1.227 . S
N86 Co72 2.140 . S
N86 C89 1.346 . S
N86 C90 1.345 . S
C87 C88 1.387 . S
C87 C91 1.391 . S
C88 C87 1.387 . S
C88 C89 1.369 . S
C88 H97 0.929 . S
C89 N86 1.346 . S
C89 C88 1.369 . S
C89 H92 0.928 . S
C90 N86 1.345 . S
C90 C91 1.371 . S
C90 H93 0.931 . S
C91 C87 1.391 . S
C91 C90 1.371 . S
C91 H98 0.930 . S
H92 C89 0.928 . S
H93 C90 0.931 . S
H94 C70 0.930 . S
H95 C67 0.930 . S
H96 C76 0.930 . S
H97 C88 0.929 . S
H98 C91 0.930 . S
C99 C100 1.351 . S
C99 N102 1.368 . S
C99 H104 0.931 . S
C100 C99 1.351 . S
C100 N101 1.373 . S
C100 H128 0.930 . S
N101 C100 1.373 . S
N101 C103 1.340 . S
N102 C99 1.368 . S
N102 C103 1.321 . S
N102 Co105 2.135 . S
C103 N101 1.340 . S
C103 N102 1.321 . S
C103 H127 0.930 . S
H104 C99 0.931 . S
Co105 N102 2.135 . S
Co105 N108 2.121 . S
Co105 O113 2.055 . S
Co105 O116 2.039 . S
Co105 N119 2.140 . S
C106 O107 1.227 . S
C106 O116 1.265 . S
O107 C106 1.227 . S
N108 Co105 2.121 . S
N108 C110 1.375 . S
N108 C111 1.313 . S
C109 C110 1.338 . S
C109 N112 1.377 . S
C109 H129 0.930 . S
C110 N108 1.375 . S
C110 C109 1.338 . S
C110 H114 0.931 . S
C111 N108 1.313 . S
C111 N112 1.344 . S
C111 H115 0.930 . S
N112 C109 1.377 . S
N112 C111 1.344 . S
O113 Co105 2.055 . S
O113 C117 1.253 . S
H114 C110 0.931 . S
H115 C111 0.930 . S
O116 Co105 2.039 . S
O116 C106 1.265 . S
C117 O113 1.253 . S
C117 O118 1.227 . S
O118 C117 1.227 . S
N119 Co105 2.140 . S
N119 C122 1.346 . S
N119 C123 1.345 . S
C120 C121 1.387 . S
C120 C124 1.391 . S
C121 C120 1.387 . S
C121 C122 1.369 . S
C121 H130 0.929 . S
C122 N119 1.346 . S
C122 C121 1.369 . S
C122 H125 0.928 . S
C123 N119 1.345 . S
C123 C124 1.371 . S
C123 H126 0.931 . S
C124 C120 1.391 . S
C124 C123 1.371 . S
C124 H131 0.930 . S
H125 C122 0.928 . S
H126 C123 0.931 . S
H127 C103 0.930 . S
H128 C100 0.930 . S
H129 C109 0.930 . S
H130 C121 0.929 . S
H131 C124 0.930 . S
C132 C133 1.351 . S
C132 N135 1.368 . S
C132 H137 0.931 . S
C133 C132 1.351 . S
C133 N134 1.373 . S
C133 H161 0.930 . S
N134 C133 1.373 . S
N134 C136 1.340 . S
N135 C132 1.368 . S
N135 C136 1.321 . S
N135 Co138 2.135 . S
C136 N134 1.340 . S
C136 N135 1.321 . S
C136 H160 0.930 . S
H137 C132 0.931 . S
Co138 N135 2.135 . S
Co138 N141 2.121 . S
Co138 O146 2.055 . S
Co138 O149 2.039 . S
Co138 N152 2.140 . S
C139 O140 1.227 . S
C139 O149 1.265 . S
O140 C139 1.227 . S
N141 Co138 2.121 . S
N141 C143 1.375 . S
N141 C144 1.313 . S
C142 C143 1.338 . S
C142 N145 1.377 . S
C142 H162 0.930 . S
C143 N141 1.375 . S
C143 C142 1.338 . S
C143 H147 0.931 . S
C144 N141 1.313 . S
C144 N145 1.344 . S
C144 H148 0.930 . S
N145 C142 1.377 . S
N145 C144 1.344 . S
O146 Co138 2.055 . S
O146 C150 1.253 . S
H147 C143 0.931 . S
H148 C144 0.930 . S
O149 Co138 2.039 . S
O149 C139 1.265 . S
C150 O146 1.253 . S
C150 O151 1.227 . S
O151 C150 1.227 . S
N152 Co138 2.140 . S
N152 C155 1.346 . S
N152 C156 1.345 . S
C153 C154 1.387 . S
C153 C157 1.391 . S
C154 C153 1.387 . S
C154 C155 1.369 . S
C154 H163 0.929 . S
C155 N152 1.346 . S
C155 C154 1.369 . S
C155 H158 0.928 . S
C156 N152 1.345 . S
C156 C157 1.371 . S
C156 H159 0.931 . S
C157 C153 1.391 . S
C157 C156 1.371 . S
C157 H164 0.930 . S
H158 C155 0.928 . S
H159 C156 0.931 . S
H160 C136 0.930 . S
H161 C133 0.930 . S
H162 C142 0.930 . S
H163 C154 0.929 . S
H164 C157 0.930 . S
C165 C166 1.351 . S
C165 N168 1.368 . S
C165 H170 0.931 . S
C166 C165 1.351 . S
C166 N167 1.373 . S
C166 H194 0.930 . S
N167 C166 1.373 . S
N167 C169 1.340 . S
N168 C165 1.368 . S
N168 C169 1.321 . S
N168 Co171 2.135 . S
C169 N167 1.340 . S
C169 N168 1.321 . S
C169 H193 0.930 . S
H170 C165 0.931 . S
Co171 N168 2.135 . S
Co171 N174 2.121 . S
Co171 O179 2.055 . S
Co171 O182 2.039 . S
Co171 N185 2.140 . S
C172 O173 1.227 . S
C172 O182 1.265 . S
O173 C172 1.227 . S
N174 Co171 2.121 . S
N174 C176 1.375 . S
N174 C177 1.313 . S
C175 C176 1.338 . S
C175 N178 1.377 . S
C175 H195 0.930 . S
C176 N174 1.375 . S
C176 C175 1.338 . S
C176 H180 0.931 . S
C177 N174 1.313 . S
C177 N178 1.344 . S
C177 H181 0.930 . S
N178 C175 1.377 . S
N178 C177 1.344 . S
O179 Co171 2.055 . S
O179 C183 1.253 . S
H180 C176 0.931 . S
H181 C177 0.930 . S
O182 Co171 2.039 . S
O182 C172 1.265 . S
C183 O179 1.253 . S
C183 O184 1.227 . S
O184 C183 1.227 . S
N185 Co171 2.140 . S
N185 C188 1.346 . S
N185 C189 1.345 . S
C186 C187 1.387 . S
C186 C190 1.391 . S
C187 C186 1.387 . S
C187 C188 1.369 . S
C187 H196 0.929 . S
C188 N185 1.346 . S
C188 C187 1.369 . S
C188 H191 0.928 . S
C189 N185 1.345 . S
C189 C190 1.371 . S
C189 H192 0.931 . S
C190 C186 1.391 . S
C190 C189 1.371 . S
C190 H197 0.930 . S
H191 C188 0.928 . S
H192 C189 0.931 . S
H193 C169 0.930 . S
H194 C166 0.930 . S
H195 C175 0.930 . S
H196 C187 0.929 . S
H197 C190 0.930 . S
C198 C199 1.351 . S
C198 N201 1.368 . S
C198 H203 0.931 . S
C199 C198 1.351 . S
C199 N200 1.373 . S
C199 H227 0.930 . S
N200 C199 1.373 . S
N200 C202 1.340 . S
N201 C198 1.368 . S
N201 C202 1.321 . S
N201 Co204 2.135 . S
C202 N200 1.340 . S
C202 N201 1.321 . S
C202 H226 0.930 . S
H203 C198 0.931 . S
Co204 N201 2.135 . S
Co204 N207 2.121 . S
Co204 O212 2.055 . S
Co204 O215 2.039 . S
Co204 N218 2.140 . S
C205 O206 1.227 . S
C205 O215 1.265 . S
O206 C205 1.227 . S
N207 Co204 2.121 . S
N207 C209 1.375 . S
N207 C210 1.313 . S
C208 C209 1.338 . S
C208 N211 1.377 . S
C208 H228 0.930 . S
C209 N207 1.375 . S
C209 C208 1.338 . S
C209 H213 0.931 . S
C210 N207 1.313 . S
C210 N211 1.344 . S
C210 H214 0.930 . S
N211 C208 1.377 . S
N211 C210 1.344 . S
O212 Co204 2.055 . S
O212 C216 1.253 . S
H213 C209 0.931 . S
H214 C210 0.930 . S
O215 Co204 2.039 . S
O215 C205 1.265 . S
C216 O212 1.253 . S
C216 O217 1.227 . S
O217 C216 1.227 . S
N218 Co204 2.140 . S
N218 C221 1.346 . S
N218 C222 1.345 . S
C219 C220 1.387 . S
C219 C223 1.391 . S
C220 C219 1.387 . S
C220 C221 1.369 . S
C220 H229 0.929 . S
C221 N218 1.346 . S
C221 C220 1.369 . S
C221 H224 0.928 . S
C222 N218 1.345 . S
C222 C223 1.371 . S
C222 H225 0.931 . S
C223 C219 1.391 . S
C223 C222 1.371 . S
C223 H230 0.930 . S
H224 C221 0.928 . S
H225 C222 0.931 . S
H226 C202 0.930 . S
H227 C199 0.930 . S
H228 C208 0.930 . S
H229 C220 0.929 . S
H230 C223 0.930 . S
C231 C232 1.351 . S
C231 N234 1.368 . S
C231 H236 0.931 . S
C232 C231 1.351 . S
C232 N233 1.373 . S
C232 H260 0.930 . S
N233 C232 1.373 . S
N233 C235 1.340 . S
N234 C231 1.368 . S
N234 C235 1.321 . S
N234 Co237 2.135 . S
C235 N233 1.340 . S
C235 N234 1.321 . S
C235 H259 0.930 . S
H236 C231 0.931 . S
Co237 N234 2.135 . S
Co237 N240 2.121 . S
Co237 O245 2.055 . S
Co237 O248 2.039 . S
Co237 N251 2.140 . S
C238 O239 1.227 . S
C238 O248 1.265 . S
O239 C238 1.227 . S
N240 Co237 2.121 . S
N240 C242 1.375 . S
N240 C243 1.313 . S
C241 C242 1.338 . S
C241 N244 1.377 . S
C241 H261 0.930 . S
C242 N240 1.375 . S
C242 C241 1.338 . S
C242 H246 0.931 . S
C243 N240 1.313 . S
C243 N244 1.344 . S
C243 H247 0.930 . S
N244 C241 1.377 . S
N244 C243 1.344 . S
O245 Co237 2.055 . S
O245 C249 1.253 . S
H246 C242 0.931 . S
H247 C243 0.930 . S
O248 Co237 2.039 . S
O248 C238 1.265 . S
C249 O245 1.253 . S
C249 O250 1.227 . S
O250 C249 1.227 . S
N251 Co237 2.140 . S
N251 C254 1.346 . S
N251 C255 1.345 . S
C252 C253 1.387 . S
C252 C256 1.391 . S
C253 C252 1.387 . S
C253 C254 1.369 . S
C253 H262 0.929 . S
C254 N251 1.346 . S
C254 C253 1.369 . S
C254 H257 0.928 . S
C255 N251 1.345 . S
C255 C256 1.371 . S
C255 H258 0.931 . S
C256 C252 1.391 . S
C256 C255 1.371 . S
C256 H263 0.930 . S
H257 C254 0.928 . S
H258 C255 0.931 . S
H259 C235 0.930 . S
H260 C232 0.930 . S
H261 C241 0.930 . S
H262 C253 0.929 . S
H263 C256 0.930 . S
C264 C265 1.351 . S
C264 N267 1.368 . S
C264 H269 0.931 . S
C265 C264 1.351 . S
C265 N266 1.373 . S
C265 H293 0.930 . S
N266 C265 1.373 . S
N266 C268 1.340 . S
N267 C264 1.368 . S
N267 C268 1.321 . S
N267 Co270 2.135 . S
C268 N266 1.340 . S
C268 N267 1.321 . S
C268 H292 0.930 . S
H269 C264 0.931 . S
Co270 N267 2.135 . S
Co270 N273 2.121 . S
Co270 O278 2.055 . S
Co270 O281 2.039 . S
Co270 N284 2.140 . S
C271 O272 1.227 . S
C271 O281 1.265 . S
O272 C271 1.227 . S
N273 Co270 2.121 . S
N273 C275 1.375 . S
N273 C276 1.313 . S
C274 C275 1.338 . S
C274 N277 1.377 . S
C274 H294 0.930 . S
C275 N273 1.375 . S
C275 C274 1.338 . S
C275 H279 0.931 . S
C276 N273 1.313 . S
C276 N277 1.344 . S
C276 H280 0.930 . S
N277 C274 1.377 . S
N277 C276 1.344 . S
O278 Co270 2.055 . S
O278 C282 1.253 . S
H279 C275 0.931 . S
H280 C276 0.930 . S
O281 Co270 2.039 . S
O281 C271 1.265 . S
C282 O278 1.253 . S
C282 O283 1.227 . S
O283 C282 1.227 . S
N284 Co270 2.140 . S
N284 C287 1.346 . S
N284 C288 1.345 . S
C285 C286 1.387 . S
C285 C289 1.391 . S
C286 C285 1.387 . S
C286 C287 1.369 . S
C286 H295 0.929 . S
C287 N284 1.346 . S
C287 C286 1.369 . S
C287 H290 0.928 . S
C288 N284 1.345 . S
C288 C289 1.371 . S
C288 H291 0.931 . S
C289 C285 1.391 . S
C289 C288 1.371 . S
C289 H296 0.930 . S
H290 C287 0.928 . S
H291 C288 0.931 . S
H292 C268 0.930 . S
H293 C265 0.930 . S
H294 C274 0.930 . S
H295 C286 0.929 . S
H296 C289 0.930 . S
C297 C298 1.351 . S
C297 N300 1.368 . S
C297 H302 0.931 . S
C298 C297 1.351 . S
C298 N299 1.373 . S
C298 H326 0.930 . S
N299 C298 1.373 . S
N299 C301 1.340 . S
N300 C297 1.368 . S
N300 C301 1.321 . S
N300 Co303 2.135 . S
C301 N299 1.340 . S
C301 N300 1.321 . S
C301 H325 0.930 . S
H302 C297 0.931 . S
Co303 N300 2.135 . S
Co303 N306 2.121 . S
Co303 O311 2.055 . S
Co303 O314 2.039 . S
Co303 N317 2.140 . S
C304 O305 1.227 . S
C304 O314 1.265 . S
O305 C304 1.227 . S
N306 Co303 2.121 . S
N306 C308 1.375 . S
N306 C309 1.313 . S
C307 C308 1.338 . S
C307 N310 1.377 . S
C307 H327 0.930 . S
C308 N306 1.375 . S
C308 C307 1.338 . S
C308 H312 0.931 . S
C309 N306 1.313 . S
C309 N310 1.344 . S
C309 H313 0.930 . S
N310 C307 1.377 . S
N310 C309 1.344 . S
O311 Co303 2.055 . S
O311 C315 1.253 . S
H312 C308 0.931 . S
H313 C309 0.930 . S
O314 Co303 2.039 . S
O314 C304 1.265 . S
C315 O311 1.253 . S
C315 O316 1.227 . S
O316 C315 1.227 . S
N317 Co303 2.140 . S
N317 C320 1.346 . S
N317 C321 1.345 . S
C318 C319 1.387 . S
C318 C322 1.391 . S
C319 C318 1.387 . S
C319 C320 1.369 . S
C319 H328 0.929 . S
C320 N317 1.346 . S
C320 C319 1.369 . S
C320 H323 0.928 . S
C321 N317 1.345 . S
C321 C322 1.371 . S
C321 H324 0.931 . S
C322 C318 1.391 . S
C322 C321 1.371 . S
C322 H329 0.930 . S
H323 C320 0.928 . S
H324 C321 0.931 . S
H325 C301 0.930 . S
H326 C298 0.930 . S
H327 C307 0.930 . S
H328 C319 0.929 . S
H329 C322 0.930 . S
C330 C331 1.351 . S
C330 N333 1.368 . S
C330 H335 0.931 . S
C331 C330 1.351 . S
C331 N332 1.373 . S
C331 H359 0.930 . S
N332 C331 1.373 . S
N332 C334 1.340 . S
N333 C330 1.368 . S
N333 C334 1.321 . S
N333 Co336 2.135 . S
C334 N332 1.340 . S
C334 N333 1.321 . S
C334 H358 0.930 . S
H335 C330 0.931 . S
Co336 N333 2.135 . S
Co336 N339 2.121 . S
Co336 O344 2.055 . S
Co336 O347 2.039 . S
Co336 N350 2.140 . S
C337 O338 1.227 . S
C337 O347 1.265 . S
O338 C337 1.227 . S
N339 Co336 2.121 . S
N339 C341 1.375 . S
N339 C342 1.313 . S
C340 C341 1.338 . S
C340 N343 1.377 . S
C340 H360 0.930 . S
C341 N339 1.375 . S
C341 C340 1.338 . S
C341 H345 0.931 . S
C342 N339 1.313 . S
C342 N343 1.344 . S
C342 H346 0.930 . S
N343 C340 1.377 . S
N343 C342 1.344 . S
O344 Co336 2.055 . S
O344 C348 1.253 . S
H345 C341 0.931 . S
H346 C342 0.930 . S
O347 Co336 2.039 . S
O347 C337 1.265 . S
C348 O344 1.253 . S
C348 O349 1.227 . S
O349 C348 1.227 . S
N350 Co336 2.140 . S
N350 C353 1.346 . S
N350 C354 1.345 . S
C351 C352 1.387 . S
C351 C355 1.391 . S
C352 C351 1.387 . S
C352 C353 1.369 . S
C352 H361 0.929 . S
C353 N350 1.346 . S
C353 C352 1.369 . S
C353 H356 0.928 . S
C354 N350 1.345 . S
C354 C355 1.371 . S
C354 H357 0.931 . S
C355 C351 1.391 . S
C355 C354 1.371 . S
C355 H362 0.930 . S
H356 C353 0.928 . S
H357 C354 0.931 . S
H358 C334 0.930 . S
H359 C331 0.930 . S
H360 C340 0.930 . S
H361 C352 0.929 . S
H362 C355 0.930 . S
C363 C364 1.351 . S
C363 N366 1.368 . S
C363 H368 0.931 . S
C364 C363 1.351 . S
C364 N365 1.373 . S
C364 H392 0.930 . S
N365 C364 1.373 . S
N365 C367 1.340 . S
N366 C363 1.368 . S
N366 C367 1.321 . S
N366 Co369 2.135 . S
C367 N365 1.340 . S
C367 N366 1.321 . S
C367 H391 0.930 . S
H368 C363 0.931 . S
Co369 N366 2.135 . S
Co369 N372 2.121 . S
Co369 O377 2.055 . S
Co369 O380 2.039 . S
Co369 N383 2.140 . S
C370 O371 1.227 . S
C370 O380 1.265 . S
O371 C370 1.227 . S
N372 Co369 2.121 . S
N372 C374 1.375 . S
N372 C375 1.313 . S
C373 C374 1.338 . S
C373 N376 1.377 . S
C373 H393 0.930 . S
C374 N372 1.375 . S
C374 C373 1.338 . S
C374 H378 0.931 . S
C375 N372 1.313 . S
C375 N376 1.344 . S
C375 H379 0.930 . S
N376 C373 1.377 . S
N376 C375 1.344 . S
O377 Co369 2.055 . S
O377 C381 1.253 . S
H378 C374 0.931 . S
H379 C375 0.930 . S
O380 Co369 2.039 . S
O380 C370 1.265 . S
C381 O377 1.253 . S
C381 O382 1.227 . S
O382 C381 1.227 . S
N383 Co369 2.140 . S
N383 C386 1.346 . S
N383 C387 1.345 . S
C384 C385 1.387 . S
C384 C388 1.391 . S
C385 C384 1.387 . S
C385 C386 1.369 . S
C385 H394 0.929 . S
C386 N383 1.346 . S
C386 C385 1.369 . S
C386 H389 0.928 . S
C387 N383 1.345 . S
C387 C388 1.371 . S
C387 H390 0.931 . S
C388 C384 1.391 . S
C388 C387 1.371 . S
C388 H395 0.930 . S
H389 C386 0.928 . S
H390 C387 0.931 . S
H391 C367 0.930 . S
H392 C364 0.930 . S
H393 C373 0.930 . S
H394 C385 0.929 . S
H395 C388 0.930 . S
C396 C397 1.351 . S
C396 N399 1.368 . S
C396 H401 0.931 . S
C397 C396 1.351 . S
C397 N398 1.373 . S
C397 H425 0.930 . S
N398 C397 1.373 . S
N398 C400 1.340 . S
N399 C396 1.368 . S
N399 C400 1.321 . S
N399 Co402 2.135 . S
C400 N398 1.340 . S
C400 N399 1.321 . S
C400 H424 0.930 . S
H401 C396 0.931 . S
Co402 N399 2.135 . S
Co402 N405 2.121 . S
Co402 O410 2.055 . S
Co402 O413 2.039 . S
Co402 N416 2.140 . S
C403 O404 1.227 . S
C403 O413 1.265 . S
O404 C403 1.227 . S
N405 Co402 2.121 . S
N405 C407 1.375 . S
N405 C408 1.313 . S
C406 C407 1.338 . S
C406 N409 1.377 . S
C406 H426 0.930 . S
C407 N405 1.375 . S
C407 C406 1.338 . S
C407 H411 0.931 . S
C408 N405 1.313 . S
C408 N409 1.344 . S
C408 H412 0.930 . S
N409 C406 1.377 . S
N409 C408 1.344 . S
O410 Co402 2.055 . S
O410 C414 1.253 . S
H411 C407 0.931 . S
H412 C408 0.930 . S
O413 Co402 2.039 . S
O413 C403 1.265 . S
C414 O410 1.253 . S
C414 O415 1.227 . S
O415 C414 1.227 . S
N416 Co402 2.140 . S
N416 C419 1.346 . S
N416 C420 1.345 . S
C417 C418 1.387 . S
C417 C421 1.391 . S
C418 C417 1.387 . S
C418 C419 1.369 . S
C418 H427 0.929 . S
C419 N416 1.346 . S
C419 C418 1.369 . S
C419 H422 0.928 . S
C420 N416 1.345 . S
C420 C421 1.371 . S
C420 H423 0.931 . S
C421 C417 1.391 . S
C421 C420 1.371 . S
C421 H428 0.930 . S
H422 C419 0.928 . S
H423 C420 0.931 . S
H424 C400 0.930 . S
H425 C397 0.930 . S
H426 C406 0.930 . S
H427 C418 0.929 . S
H428 C421 0.930 . S
C429 C430 1.351 . S
C429 N432 1.368 . S
C429 H434 0.931 . S
C430 C429 1.351 . S
C430 N431 1.373 . S
C430 H458 0.930 . S
N431 C430 1.373 . S
N431 C433 1.340 . S
N432 C429 1.368 . S
N432 C433 1.321 . S
N432 Co435 2.135 . S
C433 N431 1.340 . S
C433 N432 1.321 . S
C433 H457 0.930 . S
H434 C429 0.931 . S
Co435 N432 2.135 . S
Co435 N438 2.121 . S
Co435 O443 2.055 . S
Co435 O446 2.039 . S
Co435 N449 2.140 . S
C436 O437 1.227 . S
C436 O446 1.265 . S
O437 C436 1.227 . S
N438 Co435 2.121 . S
N438 C440 1.375 . S
N438 C441 1.313 . S
C439 C440 1.338 . S
C439 N442 1.377 . S
C439 H459 0.930 . S
C440 N438 1.375 . S
C440 C439 1.338 . S
C440 H444 0.931 . S
C441 N438 1.313 . S
C441 N442 1.344 . S
C441 H445 0.930 . S
N442 C439 1.377 . S
N442 C441 1.344 . S
O443 Co435 2.055 . S
O443 C447 1.253 . S
H444 C440 0.931 . S
H445 C441 0.930 . S
O446 Co435 2.039 . S
O446 C436 1.265 . S
C447 O443 1.253 . S
C447 O448 1.227 . S
O448 C447 1.227 . S
N449 Co435 2.140 . S
N449 C452 1.346 . S
N449 C453 1.345 . S
C450 C451 1.387 . S
C450 C454 1.391 . S
C451 C450 1.387 . S
C451 C452 1.369 . S
C451 H460 0.929 . S
C452 N449 1.346 . S
C452 C451 1.369 . S
C452 H455 0.928 . S
C453 N449 1.345 . S
C453 C454 1.371 . S
C453 H456 0.931 . S
C454 C450 1.391 . S
C454 C453 1.371 . S
C454 H461 0.930 . S
H455 C452 0.928 . S
H456 C453 0.931 . S
H457 C433 0.930 . S
H458 C430 0.930 . S
H459 C439 0.930 . S
H460 C451 0.929 . S
H461 C454 0.930 . S
C462 C463 1.351 . S
C462 N465 1.368 . S
C462 H467 0.931 . S
C463 C462 1.351 . S
C463 N464 1.373 . S
C463 H491 0.930 . S
N464 C463 1.373 . S
N464 C466 1.340 . S
N465 C462 1.368 . S
N465 C466 1.321 . S
N465 Co468 2.135 . S
C466 N464 1.340 . S
C466 N465 1.321 . S
C466 H490 0.930 . S
H467 C462 0.931 . S
Co468 N465 2.135 . S
Co468 N471 2.121 . S
Co468 O476 2.055 . S
Co468 O479 2.039 . S
Co468 N482 2.140 . S
C469 O470 1.227 . S
C469 O479 1.265 . S
O470 C469 1.227 . S
N471 Co468 2.121 . S
N471 C473 1.375 . S
N471 C474 1.313 . S
C472 C473 1.338 . S
C472 N475 1.377 . S
C472 H492 0.930 . S
C473 N471 1.375 . S
C473 C472 1.338 . S
C473 H477 0.931 . S
C474 N471 1.313 . S
C474 N475 1.344 . S
C474 H478 0.930 . S
N475 C472 1.377 . S
N475 C474 1.344 . S
O476 Co468 2.055 . S
O476 C480 1.253 . S
H477 C473 0.931 . S
H478 C474 0.930 . S
O479 Co468 2.039 . S
O479 C469 1.265 . S
C480 O476 1.253 . S
C480 O481 1.227 . S
O481 C480 1.227 . S
N482 Co468 2.140 . S
N482 C485 1.346 . S
N482 C486 1.345 . S
C483 C484 1.387 . S
C483 C487 1.391 . S
C484 C483 1.387 . S
C484 C485 1.369 . S
C484 H493 0.929 . S
C485 N482 1.346 . S
C485 C484 1.369 . S
C485 H488 0.928 . S
C486 N482 1.345 . S
C486 C487 1.371 . S
C486 H489 0.931 . S
C487 C483 1.391 . S
C487 C486 1.371 . S
C487 H494 0.930 . S
H488 C485 0.928 . S
H489 C486 0.931 . S
H490 C466 0.930 . S
H491 C463 0.930 . S
H492 C472 0.930 . S
H493 C484 0.929 . S
H494 C487 0.930 . S
C495 C496 1.351 . S
C495 N498 1.368 . S
C495 H500 0.931 . S
C496 C495 1.351 . S
C496 N497 1.373 . S
C496 H524 0.930 . S
N497 C496 1.373 . S
N497 C499 1.340 . S
N498 C495 1.368 . S
N498 C499 1.321 . S
N498 Co501 2.135 . S
C499 N497 1.340 . S
C499 N498 1.321 . S
C499 H523 0.930 . S
H500 C495 0.931 . S
Co501 N498 2.135 . S
Co501 N504 2.121 . S
Co501 O509 2.055 . S
Co501 O512 2.039 . S
Co501 N515 2.140 . S
C502 O503 1.227 . S
C502 O512 1.265 . S
O503 C502 1.227 . S
N504 Co501 2.121 . S
N504 C506 1.375 . S
N504 C507 1.313 . S
C505 C506 1.338 . S
C505 N508 1.377 . S
C505 H525 0.930 . S
C506 N504 1.375 . S
C506 C505 1.338 . S
C506 H510 0.931 . S
C507 N504 1.313 . S
C507 N508 1.344 . S
C507 H511 0.930 . S
N508 C505 1.377 . S
N508 C507 1.344 . S
O509 Co501 2.055 . S
O509 C513 1.253 . S
H510 C506 0.931 . S
H511 C507 0.930 . S
O512 Co501 2.039 . S
O512 C502 1.265 . S
C513 O509 1.253 . S
C513 O514 1.227 . S
O514 C513 1.227 . S
N515 Co501 2.140 . S
N515 C518 1.346 . S
N515 C519 1.345 . S
C516 C517 1.387 . S
C516 C520 1.391 . S
C517 C516 1.387 . S
C517 C518 1.369 . S
C517 H526 0.929 . S
C518 N515 1.346 . S
C518 C517 1.369 . S
C518 H521 0.928 . S
C519 N515 1.345 . S
C519 C520 1.371 . S
C519 H522 0.931 . S
C520 C516 1.391 . S
C520 C519 1.371 . S
C520 H527 0.930 . S
H521 C518 0.928 . S
H522 C519 0.931 . S
H523 C499 0.930 . S
H524 C496 0.930 . S
H525 C505 0.930 . S
H526 C517 0.929 . S
H527 C520 0.930 . S
C528 C529 1.351 . S
C528 N531 1.368 . S
C528 H533 0.931 . S
C529 C528 1.351 . S
C529 N530 1.373 . S
C529 H557 0.930 . S
N530 C529 1.373 . S
N530 C532 1.340 . S
N531 C528 1.368 . S
N531 C532 1.321 . S
N531 Co534 2.135 . S
C532 N530 1.340 . S
C532 N531 1.321 . S
C532 H556 0.930 . S
H533 C528 0.931 . S
Co534 N531 2.135 . S
Co534 N537 2.121 . S
Co534 O542 2.055 . S
Co534 O545 2.039 . S
Co534 N548 2.140 . S
C535 O536 1.227 . S
C535 O545 1.265 . S
O536 C535 1.227 . S
N537 Co534 2.121 . S
N537 C539 1.375 . S
N537 C540 1.313 . S
C538 C539 1.338 . S
C538 N541 1.377 . S
C538 H558 0.930 . S
C539 N537 1.375 . S
C539 C538 1.338 . S
C539 H543 0.931 . S
C540 N537 1.313 . S
C540 N541 1.344 . S
C540 H544 0.930 . S
N541 C538 1.377 . S
N541 C540 1.344 . S
O542 Co534 2.055 . S
O542 C546 1.253 . S
H543 C539 0.931 . S
H544 C540 0.930 . S
O545 Co534 2.039 . S
O545 C535 1.265 . S
C546 O542 1.253 . S
C546 O547 1.227 . S
O547 C546 1.227 . S
N548 Co534 2.140 . S
N548 C551 1.346 . S
N548 C552 1.345 . S
C549 C550 1.387 . S
C549 C553 1.391 . S
C550 C549 1.387 . S
C550 C551 1.369 . S
C550 H559 0.929 . S
C551 N548 1.346 . S
C551 C550 1.369 . S
C551 H554 0.928 . S
C552 N548 1.345 . S
C552 C553 1.371 . S
C552 H555 0.931 . S
C553 C549 1.391 . S
C553 C552 1.371 . S
C553 H560 0.930 . S
H554 C551 0.928 . S
H555 C552 0.931 . S
H556 C532 0.930 . S
H557 C529 0.930 . S
H558 C538 0.930 . S
H559 C550 0.929 . S
H560 C553 0.930 . S
C561 C562 1.351 . S
C561 N564 1.368 . S
C561 H566 0.931 . S
C562 C561 1.351 . S
C562 N563 1.373 . S
C562 H590 0.930 . S
N563 C562 1.373 . S
N563 C565 1.340 . S
N564 C561 1.368 . S
N564 C565 1.321 . S
N564 Co567 2.135 . S
C565 N563 1.340 . S
C565 N564 1.321 . S
C565 H589 0.930 . S
H566 C561 0.931 . S
Co567 N564 2.135 . S
Co567 N570 2.121 . S
Co567 O575 2.055 . S
Co567 O578 2.039 . S
Co567 N581 2.140 . S
C568 O569 1.227 . S
C568 O578 1.265 . S
O569 C568 1.227 . S
N570 Co567 2.121 . S
N570 C572 1.375 . S
N570 C573 1.313 . S
C571 C572 1.338 . S
C571 N574 1.377 . S
C571 H591 0.930 . S
C572 N570 1.375 . S
C572 C571 1.338 . S
C572 H576 0.931 . S
C573 N570 1.313 . S
C573 N574 1.344 . S
C573 H577 0.930 . S
N574 C571 1.377 . S
N574 C573 1.344 . S
O575 Co567 2.055 . S
O575 C579 1.253 . S
H576 C572 0.931 . S
H577 C573 0.930 . S
O578 Co567 2.039 . S
O578 C568 1.265 . S
C579 O575 1.253 . S
C579 O580 1.227 . S
O580 C579 1.227 . S
N581 Co567 2.140 . S
N581 C584 1.346 . S
N581 C585 1.345 . S
C582 C583 1.387 . S
C582 C586 1.391 . S
C583 C582 1.387 . S
C583 C584 1.369 . S
C583 H592 0.929 . S
C584 N581 1.346 . S
C584 C583 1.369 . S
C584 H587 0.928 . S
C585 N581 1.345 . S
C585 C586 1.371 . S
C585 H588 0.931 . S
C586 C582 1.391 . S
C586 C585 1.371 . S
C586 H593 0.930 . S
H587 C584 0.928 . S
H588 C585 0.931 . S
H589 C565 0.930 . S
H590 C562 0.930 . S
H591 C571 0.930 . S
H592 C583 0.929 . S
H593 C586 0.930 . S
C594 C595 1.351 . S
C594 N597 1.368 . S
C594 H599 0.931 . S
C595 C594 1.351 . S
C595 N596 1.373 . S
C595 H623 0.930 . S
N596 C595 1.373 . S
N596 C598 1.340 . S
N597 C594 1.368 . S
N597 C598 1.321 . S
N597 Co600 2.135 . S
C598 N596 1.340 . S
C598 N597 1.321 . S
C598 H622 0.930 . S
H599 C594 0.931 . S
Co600 N597 2.135 . S
Co600 N603 2.121 . S
Co600 O608 2.055 . S
Co600 O611 2.039 . S
Co600 N614 2.140 . S
C601 O602 1.227 . S
C601 O611 1.265 . S
O602 C601 1.227 . S
N603 Co600 2.121 . S
N603 C605 1.375 . S
N603 C606 1.313 . S
C604 C605 1.338 . S
C604 N607 1.377 . S
C604 H624 0.930 . S
C605 N603 1.375 . S
C605 C604 1.338 . S
C605 H609 0.931 . S
C606 N603 1.313 . S
C606 N607 1.344 . S
C606 H610 0.930 . S
N607 C604 1.377 . S
N607 C606 1.344 . S
O608 Co600 2.055 . S
O608 C612 1.253 . S
H609 C605 0.931 . S
H610 C606 0.930 . S
O611 Co600 2.039 . S
O611 C601 1.265 . S
C612 O608 1.253 . S
C612 O613 1.227 . S
O613 C612 1.227 . S
N614 Co600 2.140 . S
N614 C617 1.346 . S
N614 C618 1.345 . S
C615 C616 1.387 . S
C615 C619 1.391 . S
C616 C615 1.387 . S
C616 C617 1.369 . S
C616 H625 0.929 . S
C617 N614 1.346 . S
C617 C616 1.369 . S
C617 H620 0.928 . S
C618 N614 1.345 . S
C618 C619 1.371 . S
C618 H621 0.931 . S
C619 C615 1.391 . S
C619 C618 1.371 . S
C619 H626 0.930 . S
H620 C617 0.928 . S
H621 C618 0.931 . S
H622 C598 0.930 . S
H623 C595 0.930 . S
H624 C604 0.930 . S
H625 C616 0.929 . S
H626 C619 0.930 . S
C627 C628 1.351 . S
C627 N630 1.368 . S
C627 H632 0.931 . S
C628 C627 1.351 . S
C628 N629 1.373 . S
C628 H656 0.930 . S
N629 C628 1.373 . S
N629 C631 1.340 . S
N630 C627 1.368 . S
N630 C631 1.321 . S
N630 Co633 2.135 . S
C631 N629 1.340 . S
C631 N630 1.321 . S
C631 H655 0.930 . S
H632 C627 0.931 . S
Co633 N630 2.135 . S
Co633 N636 2.121 . S
Co633 O641 2.055 . S
Co633 O644 2.039 . S
Co633 N647 2.140 . S
C634 O635 1.227 . S
C634 O644 1.265 . S
O635 C634 1.227 . S
N636 Co633 2.121 . S
N636 C638 1.375 . S
N636 C639 1.313 . S
C637 C638 1.338 . S
C637 N640 1.377 . S
C637 H657 0.930 . S
C638 N636 1.375 . S
C638 C637 1.338 . S
C638 H642 0.931 . S
C639 N636 1.313 . S
C639 N640 1.344 . S
C639 H643 0.930 . S
N640 C637 1.377 . S
N640 C639 1.344 . S
O641 Co633 2.055 . S
O641 C645 1.253 . S
H642 C638 0.931 . S
H643 C639 0.930 . S
O644 Co633 2.039 . S
O644 C634 1.265 . S
C645 O641 1.253 . S
C645 O646 1.227 . S
O646 C645 1.227 . S
N647 Co633 2.140 . S
N647 C650 1.346 . S
N647 C651 1.345 . S
C648 C649 1.387 . S
C648 C652 1.391 . S
C649 C648 1.387 . S
C649 C650 1.369 . S
C649 H658 0.929 . S
C650 N647 1.346 . S
C650 C649 1.369 . S
C650 H653 0.928 . S
C651 N647 1.345 . S
C651 C652 1.371 . S
C651 H654 0.931 . S
C652 C648 1.391 . S
C652 C651 1.371 . S
C652 H659 0.930 . S
H653 C650 0.928 . S
H654 C651 0.931 . S
H655 C631 0.930 . S
H656 C628 0.930 . S
H657 C637 0.930 . S
H658 C649 0.929 . S
H659 C652 0.930 . S
C660 C661 1.351 . S
C660 N663 1.368 . S
C660 H665 0.931 . S
C661 C660 1.351 . S
C661 N662 1.373 . S
C661 H689 0.930 . S
N662 C661 1.373 . S
N662 C664 1.340 . S
N663 C660 1.368 . S
N663 C664 1.321 . S
N663 Co666 2.135 . S
C664 N662 1.340 . S
C664 N663 1.321 . S
C664 H688 0.930 . S
H665 C660 0.931 . S
Co666 N663 2.135 . S
Co666 N669 2.121 . S
Co666 O674 2.055 . S
Co666 O677 2.039 . S
Co666 N680 2.140 . S
C667 O668 1.227 . S
C667 O677 1.265 . S
O668 C667 1.227 . S
N669 Co666 2.121 . S
N669 C671 1.375 . S
N669 C672 1.313 . S
C670 C671 1.338 . S
C670 N673 1.377 . S
C670 H690 0.930 . S
C671 N669 1.375 . S
C671 C670 1.338 . S
C671 H675 0.931 . S
C672 N669 1.313 . S
C672 N673 1.344 . S
C672 H676 0.930 . S
N673 C670 1.377 . S
N673 C672 1.344 . S
O674 Co666 2.055 . S
O674 C678 1.253 . S
H675 C671 0.931 . S
H676 C672 0.930 . S
O677 Co666 2.039 . S
O677 C667 1.265 . S
C678 O674 1.253 . S
C678 O679 1.227 . S
O679 C678 1.227 . S
N680 Co666 2.140 . S
N680 C683 1.346 . S
N680 C684 1.345 . S
C681 C682 1.387 . S
C681 C685 1.391 . S
C682 C681 1.387 . S
C682 C683 1.369 . S
C682 H691 0.929 . S
C683 N680 1.346 . S
C683 C682 1.369 . S
C683 H686 0.928 . S
C684 N680 1.345 . S
C684 C685 1.371 . S
C684 H687 0.931 . S
C685 C681 1.391 . S
C685 C684 1.371 . S
C685 H692 0.930 . S
H686 C683 0.928 . S
H687 C684 0.931 . S
H688 C664 0.930 . S
H689 C661 0.930 . S
H690 C670 0.930 . S
H691 C682 0.929 . S
H692 C685 0.930 . S
C693 C694 1.351 . S
C693 N696 1.368 . S
C693 H698 0.931 . S
C694 C693 1.351 . S
C694 N695 1.373 . S
C694 H722 0.930 . S
N695 C694 1.373 . S
N695 C697 1.340 . S
N696 C693 1.368 . S
N696 C697 1.321 . S
N696 Co699 2.135 . S
C697 N695 1.340 . S
C697 N696 1.321 . S
C697 H721 0.930 . S
H698 C693 0.931 . S
Co699 N696 2.135 . S
Co699 N702 2.121 . S
Co699 O707 2.055 . S
Co699 O710 2.039 . S
Co699 N713 2.140 . S
C700 O701 1.227 . S
C700 O710 1.265 . S
O701 C700 1.227 . S
N702 Co699 2.121 . S
N702 C704 1.375 . S
N702 C705 1.313 . S
C703 C704 1.338 . S
C703 N706 1.377 . S
C703 H723 0.930 . S
C704 N702 1.375 . S
C704 C703 1.338 . S
C704 H708 0.931 . S
C705 N702 1.313 . S
C705 N706 1.344 . S
C705 H709 0.930 . S
N706 C703 1.377 . S
N706 C705 1.344 . S
O707 Co699 2.055 . S
O707 C711 1.253 . S
H708 C704 0.931 . S
H709 C705 0.930 . S
O710 Co699 2.039 . S
O710 C700 1.265 . S
C711 O707 1.253 . S
C711 O712 1.227 . S
O712 C711 1.227 . S
N713 Co699 2.140 . S
N713 C716 1.346 . S
N713 C717 1.345 . S
C714 C715 1.387 . S
C714 C718 1.391 . S
C715 C714 1.387 . S
C715 C716 1.369 . S
C715 H724 0.929 . S
C716 N713 1.346 . S
C716 C715 1.369 . S
C716 H719 0.928 . S
C717 N713 1.345 . S
C717 C718 1.371 . S
C717 H720 0.931 . S
C718 C714 1.391 . S
C718 C717 1.371 . S
C718 H725 0.930 . S
H719 C716 0.928 . S
H720 C717 0.931 . S
H721 C697 0.930 . S
H722 C694 0.930 . S
H723 C703 0.930 . S
H724 C715 0.929 . S
H725 C718 0.930 . S
C726 C727 1.351 . S
C726 N729 1.368 . S
C726 H731 0.931 . S
C727 C726 1.351 . S
C727 N728 1.373 . S
C727 H755 0.930 . S
N728 C727 1.373 . S
N728 C730 1.340 . S
N729 C726 1.368 . S
N729 C730 1.321 . S
N729 Co732 2.135 . S
C730 N728 1.340 . S
C730 N729 1.321 . S
C730 H754 0.930 . S
H731 C726 0.931 . S
Co732 N729 2.135 . S
Co732 N735 2.121 . S
Co732 O740 2.055 . S
Co732 O743 2.039 . S
Co732 N746 2.140 . S
C733 O734 1.227 . S
C733 O743 1.265 . S
O734 C733 1.227 . S
N735 Co732 2.121 . S
N735 C737 1.375 . S
N735 C738 1.313 . S
C736 C737 1.338 . S
C736 N739 1.377 . S
C736 H756 0.930 . S
C737 N735 1.375 . S
C737 C736 1.338 . S
C737 H741 0.931 . S
C738 N735 1.313 . S
C738 N739 1.344 . S
C738 H742 0.930 . S
N739 C736 1.377 . S
N739 C738 1.344 . S
O740 Co732 2.055 . S
O740 C744 1.253 . S
H741 C737 0.931 . S
H742 C738 0.930 . S
O743 Co732 2.039 . S
O743 C733 1.265 . S
C744 O740 1.253 . S
C744 O745 1.227 . S
O745 C744 1.227 . S
N746 Co732 2.140 . S
N746 C749 1.346 . S
N746 C750 1.345 . S
C747 C748 1.387 . S
C747 C751 1.391 . S
C748 C747 1.387 . S
C748 C749 1.369 . S
C748 H757 0.929 . S
C749 N746 1.346 . S
C749 C748 1.369 . S
C749 H752 0.928 . S
C750 N746 1.345 . S
C750 C751 1.371 . S
C750 H753 0.931 . S
C751 C747 1.391 . S
C751 C750 1.371 . S
C751 H758 0.930 . S
H752 C749 0.928 . S
H753 C750 0.931 . S
H754 C730 0.930 . S
H755 C727 0.930 . S
H756 C736 0.930 . S
H757 C748 0.929 . S
H758 C751 0.930 . S
C759 C760 1.351 . S
C759 N762 1.368 . S
C759 H764 0.931 . S
C760 C759 1.351 . S
C760 N761 1.373 . S
C760 H788 0.930 . S
N761 C760 1.373 . S
N761 C763 1.340 . S
N762 C759 1.368 . S
N762 C763 1.321 . S
N762 Co765 2.135 . S
C763 N761 1.340 . S
C763 N762 1.321 . S
C763 H787 0.930 . S
H764 C759 0.931 . S
Co765 N762 2.135 . S
Co765 N768 2.121 . S
Co765 O773 2.055 . S
Co765 O776 2.039 . S
Co765 N779 2.140 . S
C766 O767 1.227 . S
C766 O776 1.265 . S
O767 C766 1.227 . S
N768 Co765 2.121 . S
N768 C770 1.375 . S
N768 C771 1.313 . S
C769 C770 1.338 . S
C769 N772 1.377 . S
C769 H789 0.930 . S
C770 N768 1.375 . S
C770 C769 1.338 . S
C770 H774 0.931 . S
C771 N768 1.313 . S
C771 N772 1.344 . S
C771 H775 0.930 . S
N772 C769 1.377 . S
N772 C771 1.344 . S
O773 Co765 2.055 . S
O773 C777 1.253 . S
H774 C770 0.931 . S
H775 C771 0.930 . S
O776 Co765 2.039 . S
O776 C766 1.265 . S
C777 O773 1.253 . S
C777 O778 1.227 . S
O778 C777 1.227 . S
N779 Co765 2.140 . S
N779 C782 1.346 . S
N779 C783 1.345 . S
C780 C781 1.387 . S
C780 C784 1.391 . S
C781 C780 1.387 . S
C781 C782 1.369 . S
C781 H790 0.929 . S
C782 N779 1.346 . S
C782 C781 1.369 . S
C782 H785 0.928 . S
C783 N779 1.345 . S
C783 C784 1.371 . S
C783 H786 0.931 . S
C784 C780 1.391 . S
C784 C783 1.371 . S
C784 H791 0.930 . S
H785 C782 0.928 . S
H786 C783 0.931 . S
H787 C763 0.930 . S
H788 C760 0.930 . S
H789 C769 0.930 . S
H790 C781 0.929 . S
H791 C784 0.930 . S
H792 C800 0.929 . S
H793 C802 0.930 . S
H794 C804 0.930 . S
H795 C807 0.929 . S
H796 C810 0.930 . S
H797 C812 0.960 . S
H798 C812 0.960 . S
H799 C812 0.960 . S
C800 H792 0.929 . S
C800 C801 1.377 . S
C800 C802 1.384 . S
C801 C800 1.377 . S
C801 C807 1.390 . S
C802 H793 0.930 . S
C802 C800 1.384 . S
C802 C803 1.372 . S
C803 C802 1.372 . S
C803 C804 1.400 . S
C803 C808 1.490 . S
C804 H794 0.930 . S
C804 C803 1.400 . S
C804 C807 1.386 . S
H805 C821 0.930 . S
H806 C822 0.931 . S
C807 H795 0.929 . S
C807 C801 1.390 . S
C807 C804 1.386 . S
C808 C803 1.490 . S
C808 C810 1.395 . S
C808 C811 1.403 . S
H809 C815 0.930 . S
C810 H796 0.930 . S
C810 C808 1.395 . S
C810 C813 1.403 . S
C811 C808 1.403 . S
C811 C812 1.524 . S
C811 C815 1.400 . S
C812 H797 0.960 . S
C812 H798 0.960 . S
C812 H799 0.960 . S
C812 C811 1.524 . S
C813 C810 1.403 . S
C813 C814 1.392 . S
C813 C817 1.495 . S
C814 C813 1.392 . S
C814 C815 1.385 . S
C814 C816 1.478 . S
C815 H809 0.930 . S
C815 C811 1.400 . S
C815 C814 1.385 . S
C816 C814 1.478 . S
C816 C818 1.381 . S
C816 C822 1.383 . S
C817 C813 1.495 . S
C817 H823 0.959 . S
C817 H824 0.961 . S
C817 H825 0.960 . S
C818 C816 1.381 . S
C818 C819 1.394 . S
C818 H826 0.930 . S
C819 C818 1.394 . S
C819 C820 1.383 . S
C819 H827 0.929 . S
C820 C819 1.383 . S
C820 C821 1.377 . S
C821 H805 0.930 . S
C821 C820 1.377 . S
C821 C822 1.379 . S
C822 H806 0.931 . S
C822 C816 1.383 . S
C822 C821 1.379 . S
H823 C817 0.959 . S
H824 C817 0.961 . S
H825 C817 0.960 . S
H826 C818 0.930 . S
H827 C819 0.929 . S
H828 C836 0.929 . S
H829 C838 0.930 . S
H830 C840 0.930 . S
H831 C843 0.929 . S
H832 C846 0.930 . S
H833 C848 0.960 . S
H834 C848 0.960 . S
H835 C848 0.960 . S
C836 H828 0.929 . S
C836 C837 1.377 . S
C836 C838 1.384 . S
C837 C836 1.377 . S
C837 C843 1.390 . S
C838 H829 0.930 . S
C838 C836 1.384 . S
C838 C839 1.372 . S
C839 C838 1.372 . S
C839 C840 1.400 . S
C839 C844 1.490 . S
C840 H830 0.930 . S
C840 C839 1.400 . S
C840 C843 1.386 . S
H841 C857 0.930 . S
H842 C858 0.931 . S
C843 H831 0.929 . S
C843 C837 1.390 . S
C843 C840 1.386 . S
C844 C839 1.490 . S
C844 C846 1.395 . S
C844 C847 1.403 . S
H845 C851 0.930 . S
C846 H832 0.930 . S
C846 C844 1.395 . S
C846 C849 1.403 . S
C847 C844 1.403 . S
C847 C848 1.524 . S
C847 C851 1.400 . S
C848 H833 0.960 . S
C848 H834 0.960 . S
C848 H835 0.960 . S
C848 C847 1.524 . S
C849 C846 1.403 . S
C849 C850 1.392 . S
C849 C853 1.495 . S
C850 C849 1.392 . S
C850 C851 1.385 . S
C850 C852 1.478 . S
C851 H845 0.930 . S
C851 C847 1.400 . S
C851 C850 1.385 . S
C852 C850 1.478 . S
C852 C854 1.381 . S
C852 C858 1.383 . S
C853 C849 1.495 . S
C853 H859 0.959 . S
C853 H860 0.961 . S
C853 H861 0.960 . S
C854 C852 1.381 . S
C854 C855 1.394 . S
C854 H862 0.930 . S
C855 C854 1.394 . S
C855 C856 1.383 . S
C855 H863 0.929 . S
C856 C855 1.383 . S
C856 C857 1.377 . S
C857 H841 0.930 . S
C857 C856 1.377 . S
C857 C858 1.379 . S
C858 H842 0.931 . S
C858 C852 1.383 . S
C858 C857 1.379 . S
H859 C853 0.959 . S
H860 C853 0.961 . S
H861 C853 0.960 . S
H862 C854 0.930 . S
H863 C855 0.929 . S
H864 C872 0.929 . S
H865 C874 0.930 . S
H866 C876 0.930 . S
H867 C879 0.929 . S
H868 C882 0.930 . S
H869 C884 0.960 . S
H870 C884 0.960 . S
H871 C884 0.960 . S
C872 H864 0.929 . S
C872 C873 1.377 . S
C872 C874 1.384 . S
C873 C872 1.377 . S
C873 C879 1.390 . S
C874 H865 0.930 . S
C874 C872 1.384 . S
C874 C875 1.372 . S
C875 C874 1.372 . S
C875 C876 1.400 . S
C875 C880 1.490 . S
C876 H866 0.930 . S
C876 C875 1.400 . S
C876 C879 1.386 . S
H877 C893 0.930 . S
H878 C894 0.931 . S
C879 H867 0.929 . S
C879 C873 1.390 . S
C879 C876 1.386 . S
C880 C875 1.490 . S
C880 C882 1.395 . S
C880 C883 1.403 . S
H881 C887 0.930 . S
C882 H868 0.930 . S
C882 C880 1.395 . S
C882 C885 1.403 . S
C883 C880 1.403 . S
C883 C884 1.524 . S
C883 C887 1.400 . S
C884 H869 0.960 . S
C884 H870 0.960 . S
C884 H871 0.960 . S
C884 C883 1.524 . S
C885 C882 1.403 . S
C885 C886 1.392 . S
C885 C889 1.495 . S
C886 C885 1.392 . S
C886 C887 1.385 . S
C886 C888 1.478 . S
C887 H881 0.930 . S
C887 C883 1.400 . S
C887 C886 1.385 . S
C888 C886 1.478 . S
C888 C890 1.381 . S
C888 C894 1.383 . S
C889 C885 1.495 . S
C889 H895 0.959 . S
C889 H896 0.961 . S
C889 H897 0.960 . S
C890 C888 1.381 . S
C890 C891 1.394 . S
C890 H898 0.930 . S
C891 C890 1.394 . S
C891 C892 1.383 . S
C891 H899 0.929 . S
C892 C891 1.383 . S
C892 C893 1.377 . S
C893 H877 0.930 . S
C893 C892 1.377 . S
C893 C894 1.379 . S
C894 H878 0.931 . S
C894 C888 1.383 . S
C894 C893 1.379 . S
H895 C889 0.959 . S
H896 C889 0.961 . S
H897 C889 0.960 . S
H898 C890 0.930 . S
H899 C891 0.929 . S
H900 C908 0.929 . S
H901 C910 0.930 . S
H902 C912 0.930 . S
H903 C915 0.929 . S
H904 C918 0.930 . S
H905 C920 0.960 . S
H906 C920 0.960 . S
H907 C920 0.960 . S
C908 H900 0.929 . S
C908 C909 1.377 . S
C908 C910 1.384 . S
C909 C908 1.377 . S
C909 C915 1.390 . S
C910 H901 0.930 . S
C910 C908 1.384 . S
C910 C911 1.372 . S
C911 C910 1.372 . S
C911 C912 1.400 . S
C911 C916 1.490 . S
C912 H902 0.930 . S
C912 C911 1.400 . S
C912 C915 1.386 . S
H913 C929 0.930 . S
H914 C930 0.931 . S
C915 H903 0.929 . S
C915 C909 1.390 . S
C915 C912 1.386 . S
C916 C911 1.490 . S
C916 C918 1.395 . S
C916 C919 1.403 . S
H917 C923 0.930 . S
C918 H904 0.930 . S
C918 C916 1.395 . S
C918 C921 1.403 . S
C919 C916 1.403 . S
C919 C920 1.524 . S
C919 C923 1.400 . S
C920 H905 0.960 . S
C920 H906 0.960 . S
C920 H907 0.960 . S
C920 C919 1.524 . S
C921 C918 1.403 . S
C921 C922 1.392 . S
C921 C925 1.495 . S
C922 C921 1.392 . S
C922 C923 1.385 . S
C922 C924 1.478 . S
C923 H917 0.930 . S
C923 C919 1.400 . S
C923 C922 1.385 . S
C924 C922 1.478 . S
C924 C926 1.381 . S
C924 C930 1.383 . S
C925 C921 1.495 . S
C925 H931 0.959 . S
C925 H932 0.961 . S
C925 H933 0.960 . S
C926 C924 1.381 . S
C926 C927 1.394 . S
C926 H934 0.930 . S
C927 C926 1.394 . S
C927 C928 1.383 . S
C927 H935 0.929 . S
C928 C927 1.383 . S
C928 C929 1.377 . S
C929 H913 0.930 . S
C929 C928 1.377 . S
C929 C930 1.379 . S
C930 H914 0.931 . S
C930 C924 1.383 . S
C930 C929 1.379 . S
H931 C925 0.959 . S
H932 C925 0.961 . S
H933 C925 0.960 . S
H934 C926 0.930 . S
H935 C927 0.929 . S
H936 C944 0.929 . S
H937 C946 0.930 . S
H938 C948 0.930 . S
H939 C951 0.929 . S
H940 C954 0.930 . S
H941 C956 0.960 . S
H942 C956 0.960 . S
H943 C956 0.960 . S
C944 H936 0.929 . S
C944 C945 1.377 . S
C944 C946 1.384 . S
C945 C944 1.377 . S
C945 C951 1.390 . S
C946 H937 0.930 . S
C946 C944 1.384 . S
C946 C947 1.372 . S
C947 C946 1.372 . S
C947 C948 1.400 . S
C947 C952 1.490 . S
C948 H938 0.930 . S
C948 C947 1.400 . S
C948 C951 1.386 . S
H949 C965 0.930 . S
H950 C966 0.931 . S
C951 H939 0.929 . S
C951 C945 1.390 . S
C951 C948 1.386 . S
C952 C947 1.490 . S
C952 C954 1.395 . S
C952 C955 1.403 . S
H953 C959 0.930 . S
C954 H940 0.930 . S
C954 C952 1.395 . S
C954 C957 1.403 . S
C955 C952 1.403 . S
C955 C956 1.524 . S
C955 C959 1.400 . S
C956 H941 0.960 . S
C956 H942 0.960 . S
C956 H943 0.960 . S
C956 C955 1.524 . S
C957 C954 1.403 . S
C957 C958 1.392 . S
C957 C961 1.495 . S
C958 C957 1.392 . S
C958 C959 1.385 . S
C958 C960 1.478 . S
C959 H953 0.930 . S
C959 C955 1.400 . S
C959 C958 1.385 . S
C960 C958 1.478 . S
C960 C962 1.381 . S
C960 C966 1.383 . S
C961 C957 1.495 . S
C961 H967 0.959 . S
C961 H968 0.961 . S
C961 H969 0.960 . S
C962 C960 1.381 . S
C962 C963 1.394 . S
C962 H970 0.930 . S
C963 C962 1.394 . S
C963 C964 1.383 . S
C963 H971 0.929 . S
C964 C963 1.383 . S
C964 C965 1.377 . S
C965 H949 0.930 . S
C965 C964 1.377 . S
C965 C966 1.379 . S
C966 H950 0.931 . S
C966 C960 1.383 . S
C966 C965 1.379 . S
H967 C961 0.959 . S
H968 C961 0.961 . S
H969 C961 0.960 . S
H970 C962 0.930 . S
H971 C963 0.929 . S
H972 C980 0.929 . S
H973 C982 0.930 . S
H974 C984 0.930 . S
H975 C987 0.929 . S
H976 C990 0.930 . S
H977 C992 0.960 . S
H978 C992 0.960 . S
H979 C992 0.960 . S
C980 H972 0.929 . S
C980 C981 1.377 . S
C980 C982 1.384 . S
C981 C980 1.377 . S
C981 C987 1.390 . S
C982 H973 0.930 . S
C982 C980 1.384 . S
C982 C983 1.372 . S
C983 C982 1.372 . S
C983 C984 1.400 . S
C983 C988 1.490 . S
C984 H974 0.930 . S
C984 C983 1.400 . S
C984 C987 1.386 . S
H985 C1001 0.930 . S
H986 C1002 0.931 . S
C987 H975 0.929 . S
C987 C981 1.390 . S
C987 C984 1.386 . S
C988 C983 1.490 . S
C988 C990 1.395 . S
C988 C991 1.403 . S
H989 C995 0.930 . S
C990 H976 0.930 . S
C990 C988 1.395 . S
C990 C993 1.403 . S
C991 C988 1.403 . S
C991 C992 1.524 . S
C991 C995 1.400 . S
C992 H977 0.960 . S
C992 H978 0.960 . S
C992 H979 0.960 . S
C992 C991 1.524 . S
C993 C990 1.403 . S
C993 C994 1.392 . S
C993 C997 1.495 . S
C994 C993 1.392 . S
C994 C995 1.385 . S
C994 C996 1.478 . S
C995 H989 0.930 . S
C995 C991 1.400 . S
C995 C994 1.385 . S
C996 C994 1.478 . S
C996 C998 1.381 . S
C996 C1002 1.383 . S
C997 C993 1.495 . S
C997 H1003 0.959 . S
C997 H1004 0.961 . S
C997 H1005 0.960 . S
C998 C996 1.381 . S
C998 C999 1.394 . S
C998 H1006 0.930 . S
C999 C998 1.394 . S
C999 C1000 1.383 . S
C999 H1007 0.929 . S
C1000 C999 1.383 . S
C1000 C1001 1.377 . S
C1001 H985 0.930 . S
C1001 C1000 1.377 . S
C1001 C1002 1.379 . S
C1002 H986 0.931 . S
C1002 C996 1.383 . S
C1002 C1001 1.379 . S
H1003 C997 0.959 . S
H1004 C997 0.961 . S
H1005 C997 0.960 . S
H1006 C998 0.930 . S
H1007 C999 0.929 . S
H1008 C1016 0.929 . S
H1009 C1018 0.930 . S
H1010 C1020 0.930 . S
H1011 C1023 0.929 . S
H1012 C1026 0.930 . S
H1013 C1028 0.960 . S
H1014 C1028 0.960 . S
H1015 C1028 0.960 . S
C1016 H1008 0.929 . S
C1016 C1017 1.377 . S
C1016 C1018 1.384 . S
C1017 C1016 1.377 . S
C1017 C1023 1.390 . S
C1018 H1009 0.930 . S
C1018 C1016 1.384 . S
C1018 C1019 1.372 . S
C1019 C1018 1.372 . S
C1019 C1020 1.400 . S
C1019 C1024 1.490 . S
C1020 H1010 0.930 . S
C1020 C1019 1.400 . S
C1020 C1023 1.386 . S
H1021 C1037 0.930 . S
H1022 C1038 0.931 . S
C1023 H1011 0.929 . S
C1023 C1017 1.390 . S
C1023 C1020 1.386 . S
C1024 C1019 1.490 . S
C1024 C1026 1.395 . S
C1024 C1027 1.403 . S
H1025 C1031 0.930 . S
C1026 H1012 0.930 . S
C1026 C1024 1.395 . S
C1026 C1029 1.403 . S
C1027 C1024 1.403 . S
C1027 C1028 1.524 . S
C1027 C1031 1.400 . S
C1028 H1013 0.960 . S
C1028 H1014 0.960 . S
C1028 H1015 0.960 . S
C1028 C1027 1.524 . S
C1029 C1026 1.403 . S
C1029 C1030 1.392 . S
C1029 C1033 1.495 . S
C1030 C1029 1.392 . S
C1030 C1031 1.385 . S
C1030 C1032 1.478 . S
C1031 H1025 0.930 . S
C1031 C1027 1.400 . S
C1031 C1030 1.385 . S
C1032 C1030 1.478 . S
C1032 C1034 1.381 . S
C1032 C1038 1.383 . S
C1033 C1029 1.495 . S
C1033 H1039 0.959 . S
C1033 H1040 0.961 . S
C1033 H1041 0.960 . S
C1034 C1032 1.381 . S
C1034 C1035 1.394 . S
C1034 H1042 0.930 . S
C1035 C1034 1.394 . S
C1035 C1036 1.383 . S
C1035 H1043 0.929 . S
C1036 C1035 1.383 . S
C1036 C1037 1.377 . S
C1037 H1021 0.930 . S
C1037 C1036 1.377 . S
C1037 C1038 1.379 . S
C1038 H1022 0.931 . S
C1038 C1032 1.383 . S
C1038 C1037 1.379 . S
H1039 C1033 0.959 . S
H1040 C1033 0.961 . S
H1041 C1033 0.960 . S
H1042 C1034 0.930 . S
H1043 C1035 0.929 . S
H1044 C1052 0.929 . S
H1045 C1054 0.930 . S
H1046 C1056 0.930 . S
H1047 C1059 0.929 . S
H1048 C1062 0.930 . S
H1049 C1064 0.960 . S
H1050 C1064 0.960 . S
H1051 C1064 0.960 . S
C1052 H1044 0.929 . S
C1052 C1053 1.377 . S
C1052 C1054 1.384 . S
C1053 C1052 1.377 . S
C1053 C1059 1.390 . S
C1054 H1045 0.930 . S
C1054 C1052 1.384 . S
C1054 C1055 1.372 . S
C1055 C1054 1.372 . S
C1055 C1056 1.400 . S
C1055 C1060 1.490 . S
C1056 H1046 0.930 . S
C1056 C1055 1.400 . S
C1056 C1059 1.386 . S
H1057 C1073 0.930 . S
H1058 C1074 0.931 . S
C1059 H1047 0.929 . S
C1059 C1053 1.390 . S
C1059 C1056 1.386 . S
C1060 C1055 1.490 . S
C1060 C1062 1.395 . S
C1060 C1063 1.403 . S
H1061 C1067 0.930 . S
C1062 H1048 0.930 . S
C1062 C1060 1.395 . S
C1062 C1065 1.403 . S
C1063 C1060 1.403 . S
C1063 C1064 1.524 . S
C1063 C1067 1.400 . S
C1064 H1049 0.960 . S
C1064 H1050 0.960 . S
C1064 H1051 0.960 . S
C1064 C1063 1.524 . S
C1065 C1062 1.403 . S
C1065 C1066 1.392 . S
C1065 C1069 1.495 . S
C1066 C1065 1.392 . S
C1066 C1067 1.385 . S
C1066 C1068 1.478 . S
C1067 H1061 0.930 . S
C1067 C1063 1.400 . S
C1067 C1066 1.385 . S
C1068 C1066 1.478 . S
C1068 C1070 1.381 . S
C1068 C1074 1.383 . S
C1069 C1065 1.495 . S
C1069 H1075 0.959 . S
C1069 H1076 0.961 . S
C1069 H1077 0.960 . S
C1070 C1068 1.381 . S
C1070 C1071 1.394 . S
C1070 H1078 0.930 . S
C1071 C1070 1.394 . S
C1071 C1072 1.383 . S
C1071 H1079 0.929 . S
C1072 C1071 1.383 . S
C1072 C1073 1.377 . S
C1073 H1057 0.930 . S
C1073 C1072 1.377 . S
C1073 C1074 1.379 . S
C1074 H1058 0.931 . S
C1074 C1068 1.383 . S
C1074 C1073 1.379 . S
H1075 C1069 0.959 . S
H1076 C1069 0.961 . S
H1077 C1069 0.960 . S
H1078 C1070 0.930 . S
H1079 C1071 0.929 . S
H1080 C1088 0.929 . S
H1081 C1090 0.930 . S
H1082 C1092 0.930 . S
H1083 C1095 0.929 . S
H1084 C1098 0.930 . S
H1085 C1100 0.960 . S
H1086 C1100 0.960 . S
H1087 C1100 0.960 . S
C1088 H1080 0.929 . S
C1088 C1089 1.377 . S
C1088 C1090 1.384 . S
C1089 C1088 1.377 . S
C1089 C1095 1.390 . S
C1090 H1081 0.930 . S
C1090 C1088 1.384 . S
C1090 C1091 1.372 . S
C1091 C1090 1.372 . S
C1091 C1092 1.400 . S
C1091 C1096 1.490 . S
C1092 H1082 0.930 . S
C1092 C1091 1.400 . S
C1092 C1095 1.386 . S
H1093 C1109 0.930 . S
H1094 C1110 0.931 . S
C1095 H1083 0.929 . S
C1095 C1089 1.390 . S
C1095 C1092 1.386 . S
C1096 C1091 1.490 . S
C1096 C1098 1.395 . S
C1096 C1099 1.403 . S
H1097 C1103 0.930 . S
C1098 H1084 0.930 . S
C1098 C1096 1.395 . S
C1098 C1101 1.403 . S
C1099 C1096 1.403 . S
C1099 C1100 1.524 . S
C1099 C1103 1.400 . S
C1100 H1085 0.960 . S
C1100 H1086 0.960 . S
C1100 H1087 0.960 . S
C1100 C1099 1.524 . S
C1101 C1098 1.403 . S
C1101 C1102 1.392 . S
C1101 C1105 1.495 . S
C1102 C1101 1.392 . S
C1102 C1103 1.385 . S
C1102 C1104 1.478 . S
C1103 H1097 0.930 . S
C1103 C1099 1.400 . S
C1103 C1102 1.385 . S
C1104 C1102 1.478 . S
C1104 C1106 1.381 . S
C1104 C1110 1.383 . S
C1105 C1101 1.495 . S
C1105 H1111 0.959 . S
C1105 H1112 0.961 . S
C1105 H1113 0.960 . S
C1106 C1104 1.381 . S
C1106 C1107 1.394 . S
C1106 H1114 0.930 . S
C1107 C1106 1.394 . S
C1107 C1108 1.383 . S
C1107 H1115 0.929 . S
C1108 C1107 1.383 . S
C1108 C1109 1.377 . S
C1109 H1093 0.930 . S
C1109 C1108 1.377 . S
C1109 C1110 1.379 . S
C1110 H1094 0.931 . S
C1110 C1104 1.383 . S
C1110 C1109 1.379 . S
H1111 C1105 0.959 . S
H1112 C1105 0.961 . S
H1113 C1105 0.960 . S
H1114 C1106 0.930 . S
H1115 C1107 0.929 . S
H1116 C1124 0.929 . S
H1117 C1126 0.930 . S
H1118 C1128 0.930 . S
H1119 C1131 0.929 . S
H1120 C1134 0.930 . S
H1121 C1136 0.960 . S
H1122 C1136 0.960 . S
H1123 C1136 0.960 . S
C1124 H1116 0.929 . S
C1124 C1125 1.377 . S
C1124 C1126 1.384 . S
C1125 C1124 1.377 . S
C1125 C1131 1.390 . S
C1126 H1117 0.930 . S
C1126 C1124 1.384 . S
C1126 C1127 1.372 . S
C1127 C1126 1.372 . S
C1127 C1128 1.400 . S
C1127 C1132 1.490 . S
C1128 H1118 0.930 . S
C1128 C1127 1.400 . S
C1128 C1131 1.386 . S
H1129 C1145 0.930 . S
H1130 C1146 0.931 . S
C1131 H1119 0.929 . S
C1131 C1125 1.390 . S
C1131 C1128 1.386 . S
C1132 C1127 1.490 . S
C1132 C1134 1.395 . S
C1132 C1135 1.403 . S
H1133 C1139 0.930 . S
C1134 H1120 0.930 . S
C1134 C1132 1.395 . S
C1134 C1137 1.403 . S
C1135 C1132 1.403 . S
C1135 C1136 1.524 . S
C1135 C1139 1.400 . S
C1136 H1121 0.960 . S
C1136 H1122 0.960 . S
C1136 H1123 0.960 . S
C1136 C1135 1.524 . S
C1137 C1134 1.403 . S
C1137 C1138 1.392 . S
C1137 C1141 1.495 . S
C1138 C1137 1.392 . S
C1138 C1139 1.385 . S
C1138 C1140 1.478 . S
C1139 H1133 0.930 . S
C1139 C1135 1.400 . S
C1139 C1138 1.385 . S
C1140 C1138 1.478 . S
C1140 C1142 1.381 . S
C1140 C1146 1.383 . S
C1141 C1137 1.495 . S
C1141 H1147 0.959 . S
C1141 H1148 0.961 . S
C1141 H1149 0.960 . S
C1142 C1140 1.381 . S
C1142 C1143 1.394 . S
C1142 H1150 0.930 . S
C1143 C1142 1.394 . S
C1143 C1144 1.383 . S
C1143 H1151 0.929 . S
C1144 C1143 1.383 . S
C1144 C1145 1.377 . S
C1145 H1129 0.930 . S
C1145 C1144 1.377 . S
C1145 C1146 1.379 . S
C1146 H1130 0.931 . S
C1146 C1140 1.383 . S
C1146 C1145 1.379 . S
H1147 C1141 0.959 . S
H1148 C1141 0.961 . S
H1149 C1141 0.960 . S
H1150 C1142 0.930 . S
H1151 C1143 0.929 . S
H1152 C1160 0.929 . S
H1153 C1162 0.930 . S
H1154 C1164 0.930 . S
H1155 C1167 0.929 . S
H1156 C1170 0.930 . S
H1157 C1172 0.960 . S
H1158 C1172 0.960 . S
H1159 C1172 0.960 . S
C1160 H1152 0.929 . S
C1160 C1161 1.377 . S
C1160 C1162 1.384 . S
C1161 C1160 1.377 . S
C1161 C1167 1.390 . S
C1162 H1153 0.930 . S
C1162 C1160 1.384 . S
C1162 C1163 1.372 . S
C1163 C1162 1.372 . S
C1163 C1164 1.400 . S
C1163 C1168 1.490 . S
C1164 H1154 0.930 . S
C1164 C1163 1.400 . S
C1164 C1167 1.386 . S
H1165 C1181 0.930 . S
H1166 C1182 0.931 . S
C1167 H1155 0.929 . S
C1167 C1161 1.390 . S
C1167 C1164 1.386 . S
C1168 C1163 1.490 . S
C1168 C1170 1.395 . S
C1168 C1171 1.403 . S
H1169 C1175 0.930 . S
C1170 H1156 0.930 . S
C1170 C1168 1.395 . S
C1170 C1173 1.403 . S
C1171 C1168 1.403 . S
C1171 C1172 1.524 . S
C1171 C1175 1.400 . S
C1172 H1157 0.960 . S
C1172 H1158 0.960 . S
C1172 H1159 0.960 . S
C1172 C1171 1.524 . S
C1173 C1170 1.403 . S
C1173 C1174 1.392 . S
C1173 C1177 1.495 . S
C1174 C1173 1.392 . S
C1174 C1175 1.385 . S
C1174 C1176 1.478 . S
C1175 H1169 0.930 . S
C1175 C1171 1.400 . S
C1175 C1174 1.385 . S
C1176 C1174 1.478 . S
C1176 C1178 1.381 . S
C1176 C1182 1.383 . S
C1177 C1173 1.495 . S
C1177 H1183 0.959 . S
C1177 H1184 0.961 . S
C1177 H1185 0.960 . S
C1178 C1176 1.381 . S
C1178 C1179 1.394 . S
C1178 H1186 0.930 . S
C1179 C1178 1.394 . S
C1179 C1180 1.383 . S
C1179 H1187 0.929 . S
C1180 C1179 1.383 . S
C1180 C1181 1.377 . S
C1181 H1165 0.930 . S
C1181 C1180 1.377 . S
C1181 C1182 1.379 . S
C1182 H1166 0.931 . S
C1182 C1176 1.383 . S
C1182 C1181 1.379 . S
H1183 C1177 0.959 . S
H1184 C1177 0.961 . S
H1185 C1177 0.960 . S
H1186 C1178 0.930 . S
H1187 C1179 0.929 . S
H1188 C1196 0.929 . S
H1189 C1198 0.930 . S
H1190 C1200 0.930 . S
H1191 C1203 0.929 . S
H1192 C1206 0.930 . S
H1193 C1208 0.960 . S
H1194 C1208 0.960 . S
H1195 C1208 0.960 . S
C1196 H1188 0.929 . S
C1196 C1197 1.377 . S
C1196 C1198 1.384 . S
C1197 C1196 1.377 . S
C1197 C1203 1.390 . S
C1198 H1189 0.930 . S
C1198 C1196 1.384 . S
C1198 C1199 1.372 . S
C1199 C1198 1.372 . S
C1199 C1200 1.400 . S
C1199 C1204 1.490 . S
C1200 H1190 0.930 . S
C1200 C1199 1.400 . S
C1200 C1203 1.386 . S
H1201 C1217 0.930 . S
H1202 C1218 0.931 . S
C1203 H1191 0.929 . S
C1203 C1197 1.390 . S
C1203 C1200 1.386 . S
C1204 C1199 1.490 . S
C1204 C1206 1.395 . S
C1204 C1207 1.403 . S
H1205 C1211 0.930 . S
C1206 H1192 0.930 . S
C1206 C1204 1.395 . S
C1206 C1209 1.403 . S
C1207 C1204 1.403 . S
C1207 C1208 1.524 . S
C1207 C1211 1.400 . S
C1208 H1193 0.960 . S
C1208 H1194 0.960 . S
C1208 H1195 0.960 . S
C1208 C1207 1.524 . S
C1209 C1206 1.403 . S
C1209 C1210 1.392 . S
C1209 C1213 1.495 . S
C1210 C1209 1.392 . S
C1210 C1211 1.385 . S
C1210 C1212 1.478 . S
C1211 H1205 0.930 . S
C1211 C1207 1.400 . S
C1211 C1210 1.385 . S
C1212 C1210 1.478 . S
C1212 C1214 1.381 . S
C1212 C1218 1.383 . S
C1213 C1209 1.495 . S
C1213 H1219 0.959 . S
C1213 H1220 0.961 . S
C1213 H1221 0.960 . S
C1214 C1212 1.381 . S
C1214 C1215 1.394 . S
C1214 H1222 0.930 . S
C1215 C1214 1.394 . S
C1215 C1216 1.383 . S
C1215 H1223 0.929 . S
C1216 C1215 1.383 . S
C1216 C1217 1.377 . S
C1217 H1201 0.930 . S
C1217 C1216 1.377 . S
C1217 C1218 1.379 . S
C1218 H1202 0.931 . S
C1218 C1212 1.383 . S
C1218 C1217 1.379 . S
H1219 C1213 0.959 . S
H1220 C1213 0.961 . S
H1221 C1213 0.960 . S
H1222 C1214 0.930 . S
H1223 C1215 0.929 . S
H1224 C1232 0.929 . S
H1225 C1234 0.930 . S
H1226 C1236 0.930 . S
H1227 C1239 0.929 . S
H1228 C1242 0.927 1_565 S
H1229 C1244 0.960 1_545 S
H1230 C1244 0.960 . S
H1231 C1244 0.960 . S
C1232 H1224 0.929 . S
C1232 C1233 1.377 . S
C1232 C1234 1.384 . S
C1233 C1232 1.377 . S
C1233 C1239 1.390 . S
C1234 H1225 0.930 . S
C1234 C1232 1.384 . S
C1234 C1235 1.372 . S
C1235 C1234 1.372 . S
C1235 C1236 1.400 . S
C1235 C1240 1.490 . S
C1236 H1226 0.930 . S
C1236 C1235 1.400 . S
C1236 C1239 1.386 . S
H1237 C1253 0.930 . S
H1238 C1254 0.931 . S
C1239 H1227 0.929 . S
C1239 C1233 1.390 . S
C1239 C1236 1.386 . S
C1240 C1235 1.490 . S
C1240 C1242 1.395 1_565 S
C1240 C1243 1.403 1_565 S
H1241 C1247 0.930 . S
C1242 H1228 0.927 1_545 S
C1242 C1240 1.395 1_545 S
C1242 C1245 1.403 . S
C1243 C1240 1.403 1_545 S
C1243 C1244 1.524 1_545 S
C1243 C1247 1.400 . S
C1244 H1229 0.960 1_565 S
C1244 H1230 0.960 . S
C1244 H1231 0.960 . S
C1244 C1243 1.524 1_565 S
C1245 C1242 1.403 . S
C1245 C1246 1.392 . S
C1245 C1249 1.495 . S
C1246 C1245 1.392 . S
C1246 C1247 1.385 . S
C1246 C1248 1.478 . S
C1247 H1241 0.930 . S
C1247 C1243 1.400 . S
C1247 C1246 1.385 . S
C1248 C1246 1.478 . S
C1248 C1250 1.381 . S
C1248 C1254 1.383 . S
C1249 C1245 1.495 . S
C1249 H1255 0.959 . S
C1249 H1256 0.961 . S
C1249 H1257 0.960 . S
C1250 C1248 1.381 . S
C1250 C1251 1.394 . S
C1250 H1258 0.930 . S
C1251 C1250 1.394 . S
C1251 C1252 1.383 . S
C1251 H1259 0.929 . S
C1252 C1251 1.383 . S
C1252 C1253 1.377 . S
C1253 H1237 0.930 . S
C1253 C1252 1.377 . S
C1253 C1254 1.379 . S
C1254 H1238 0.931 . S
C1254 C1248 1.383 . S
C1254 C1253 1.379 . S
H1255 C1249 0.959 . S
H1256 C1249 0.961 . S
H1257 C1249 0.960 . S
H1258 C1250 0.930 . S
H1259 C1251 0.929 . S
H1260 C1268 0.929 . S
H1261 C1270 0.930 . S
H1262 C1272 0.930 . S
H1263 C1275 0.929 . S
H1264 C1278 0.930 . S
H1265 C1280 0.960 . S
H1266 C1280 0.960 . S
H1267 C1280 0.960 . S
C1268 H1260 0.929 . S
C1268 C1269 1.377 . S
C1268 C1270 1.384 . S
C1269 C1268 1.377 . S
C1269 C1275 1.390 . S
C1270 H1261 0.930 . S
C1270 C1268 1.384 . S
C1270 C1271 1.372 . S
C1271 C1270 1.372 . S
C1271 C1272 1.400 . S
C1271 C1276 1.490 . S
C1272 H1262 0.930 . S
C1272 C1271 1.400 . S
C1272 C1275 1.386 . S
H1273 C1289 0.930 . S
H1274 C1290 0.931 . S
C1275 H1263 0.929 . S
C1275 C1269 1.390 . S
C1275 C1272 1.386 . S
C1276 C1271 1.490 . S
C1276 C1278 1.395 . S
C1276 C1279 1.403 . S
H1277 C1283 0.930 1_455 S
C1278 H1264 0.930 . S
C1278 C1276 1.395 . S
C1278 C1281 1.403 . S
C1279 C1276 1.403 . S
C1279 C1280 1.524 . S
C1279 C1283 1.400 . S
C1280 H1265 0.960 . S
C1280 H1266 0.960 . S
C1280 H1267 0.960 . S
C1280 C1279 1.524 . S
C1281 C1278 1.403 . S
C1281 C1282 1.392 1_655 S
C1281 C1285 1.495 1_655 S
C1282 C1281 1.392 1_455 S
C1282 C1283 1.385 1_455 S
C1282 C1284 1.478 . S
C1283 H1277 0.930 1_655 S
C1283 C1279 1.400 . S
C1283 C1282 1.385 1_655 S
C1284 C1282 1.478 . S
C1284 C1286 1.381 . S
C1284 C1290 1.383 . S
C1285 C1281 1.495 1_455 S
C1285 H1291 0.927 1_455 S
C1285 H1292 0.961 . S
C1285 H1293 0.960 . S
C1286 C1284 1.381 . S
C1286 C1287 1.394 . S
C1286 H1294 0.930 . S
C1287 C1286 1.394 . S
C1287 C1288 1.383 . S
C1287 H1295 0.929 . S
C1288 C1287 1.383 . S
C1288 C1289 1.377 . S
C1289 H1273 0.930 . S
C1289 C1288 1.377 . S
C1289 C1290 1.379 . S
C1290 H1274 0.931 . S
C1290 C1284 1.383 . S
C1290 C1289 1.379 . S
H1291 C1285 0.927 1_655 S
H1292 C1285 0.961 . S
H1293 C1285 0.960 . S
H1294 C1286 0.930 . S
H1295 C1287 0.929 . S
H1296 C1304 0.929 . S
H1297 C1306 0.930 . S
H1298 C1308 0.930 . S
H1299 C1311 0.929 . S
H1300 C1314 0.930 . S
H1301 C1316 0.960 . S
H1302 C1316 0.960 . S
H1303 C1316 0.960 . S
C1304 H1296 0.929 . S
C1304 C1305 1.377 . S
C1304 C1306 1.384 . S
C1305 C1304 1.377 . S
C1305 C1311 1.390 . S
C1306 H1297 0.930 . S
C1306 C1304 1.384 . S
C1306 C1307 1.372 . S
C1307 C1306 1.372 . S
C1307 C1308 1.400 . S
C1307 C1312 1.490 . S
C1308 H1298 0.930 . S
C1308 C1307 1.400 . S
C1308 C1311 1.386 . S
H1309 C1325 0.930 . S
H1310 C1326 0.931 . S
C1311 H1299 0.929 . S
C1311 C1305 1.390 . S
C1311 C1308 1.386 . S
C1312 C1307 1.490 . S
C1312 C1314 1.395 . S
C1312 C1315 1.403 . S
H1313 C1319 0.930 1_545 S
C1314 H1300 0.930 . S
C1314 C1312 1.395 . S
C1314 C1317 1.403 . S
C1315 C1312 1.403 . S
C1315 C1316 1.524 . S
C1315 C1319 1.400 . S
C1316 H1301 0.960 . S
C1316 H1302 0.960 . S
C1316 H1303 0.960 . S
C1316 C1315 1.524 . S
C1317 C1314 1.403 . S
C1317 C1318 1.392 1_565 S
C1317 C1321 1.506 . S
C1318 C1317 1.392 1_545 S
C1318 C1319 1.385 1_545 S
C1318 C1320 1.478 . S
C1319 H1313 0.930 1_565 S
C1319 C1315 1.400 . S
C1319 C1318 1.385 1_565 S
C1320 C1318 1.478 . S
C1320 C1322 1.381 . S
C1320 C1326 1.383 . S
C1321 C1317 1.506 . S
C1321 H1327 0.987 . S
C1321 H1328 0.942 1_565 S
C1321 H1329 0.941 1_565 S
C1322 C1320 1.381 . S
C1322 C1323 1.394 . S
C1322 H1330 0.930 . S
C1323 C1322 1.394 . S
C1323 C1324 1.383 . S
C1323 H1331 0.929 . S
C1324 C1323 1.383 . S
C1324 C1325 1.377 . S
C1325 H1309 0.930 . S
C1325 C1324 1.377 . S
C1325 C1326 1.379 . S
C1326 H1310 0.931 . S
C1326 C1320 1.383 . S
C1326 C1325 1.379 . S
H1327 C1321 0.987 . S
H1328 C1321 0.942 1_545 S
H1329 C1321 0.941 1_545 S
H1330 C1322 0.930 . S
H1331 C1323 0.929 . S
H1332 C1340 0.929 . S
H1333 C1342 0.930 . S
H1334 C1344 0.930 . S
H1335 C1347 0.929 . S
H1336 C1350 0.919 1_655 S
H1337 C1352 0.960 1_455 S
H1338 C1352 0.960 . S
H1339 C1352 0.960 . S
C1340 H1332 0.929 . S
C1340 C1341 1.377 . S
C1340 C1342 1.384 . S
C1341 C1340 1.377 . S
C1341 C1347 1.390 . S
C1342 H1333 0.930 . S
C1342 C1340 1.384 . S
C1342 C1343 1.372 . S
C1343 C1342 1.372 . S
C1343 C1344 1.400 . S
C1343 C1348 1.490 . S
C1344 H1334 0.930 . S
C1344 C1343 1.400 . S
C1344 C1347 1.386 . S
H1345 C1361 0.930 . S
H1346 C1362 0.931 . S
C1347 H1335 0.929 . S
C1347 C1341 1.390 . S
C1347 C1344 1.386 . S
C1348 C1343 1.490 . S
C1348 C1350 1.395 1_655 S
C1348 C1351 1.403 1_655 S
H1349 C1355 0.930 . S
C1350 H1336 0.919 1_455 S
C1350 C1348 1.395 1_455 S
C1350 C1353 1.403 . S
C1351 C1348 1.403 1_455 S
C1351 C1352 1.524 1_455 S
C1351 C1355 1.400 . S
C1352 H1337 0.960 1_655 S
C1352 H1338 0.960 . S
C1352 H1339 0.960 . S
C1352 C1351 1.524 1_655 S
C1353 C1350 1.403 . S
C1353 C1354 1.392 . S
C1353 C1357 1.495 . S
C1354 C1353 1.392 . S
C1354 C1355 1.385 . S
C1354 C1356 1.478 . S
C1355 H1349 0.930 . S
C1355 C1351 1.400 . S
C1355 C1354 1.385 . S
C1356 C1354 1.478 . S
C1356 C1358 1.381 . S
C1356 C1362 1.383 . S
C1357 C1353 1.495 . S
C1357 H1363 0.959 . S
C1357 H1364 0.961 . S
C1357 H1365 0.960 . S
C1358 C1356 1.381 . S
C1358 C1359 1.394 . S
C1358 H1366 0.930 . S
C1359 C1358 1.394 . S
C1359 C1360 1.383 . S
C1359 H1367 0.929 . S
C1360 C1359 1.383 . S
C1360 C1361 1.377 . S
C1361 H1345 0.930 . S
C1361 C1360 1.377 . S
C1361 C1362 1.379 . S
C1362 H1346 0.931 . S
C1362 C1356 1.383 . S
C1362 C1361 1.379 . S
H1363 C1357 0.959 . S
H1364 C1357 0.961 . S
H1365 C1357 0.960 . S
H1366 C1358 0.930 . S
H1367 C1359 0.929 . S
H1368 C1376 0.929 . S
H1369 C1378 0.930 . S
H1370 C1380 0.930 . S
H1371 C1383 0.929 . S
H1372 C1386 0.930 1_545 S
H1373 C1388 0.957 1_565 S
H1374 C1388 0.962 . S
H1375 C1388 0.962 . S
C1376 H1368 0.929 . S
C1376 C1377 1.377 . S
C1376 C1378 1.384 . S
C1377 C1376 1.377 . S
C1377 C1383 1.390 . S
C1378 H1369 0.930 . S
C1378 C1376 1.384 . S
C1378 C1379 1.372 . S
C1379 C1378 1.372 . S
C1379 C1380 1.400 . S
C1379 C1384 1.490 . S
C1380 H1370 0.930 . S
C1380 C1379 1.400 . S
C1380 C1383 1.386 . S
H1381 C1397 0.930 . S
H1382 C1398 0.931 . S
C1383 H1371 0.929 . S
C1383 C1377 1.390 . S
C1383 C1380 1.386 . S
C1384 C1379 1.490 . S
C1384 C1386 1.395 1_545 S
C1384 C1387 1.403 1_545 S
H1385 C1391 0.930 . S
C1386 H1372 0.930 1_565 S
C1386 C1384 1.395 1_565 S
C1386 C1389 1.403 . S
C1387 C1384 1.403 1_565 S
C1387 C1388 1.522 1_565 S
C1387 C1391 1.400 . S
C1388 H1373 0.957 1_545 S
C1388 H1374 0.962 . S
C1388 H1375 0.962 . S
C1388 C1387 1.522 1_545 S
C1389 C1386 1.403 . S
C1389 C1390 1.392 . S
C1389 C1393 1.495 . S
C1390 C1389 1.392 . S
C1390 C1391 1.385 . S
C1390 C1392 1.478 . S
C1391 H1385 0.930 . S
C1391 C1387 1.400 . S
C1391 C1390 1.385 . S
C1392 C1390 1.478 . S
C1392 C1394 1.381 . S
C1392 C1398 1.383 . S
C1393 C1389 1.495 . S
C1393 H1399 0.959 . S
C1393 H1400 0.961 . S
C1393 H1401 0.960 . S
C1394 C1392 1.381 . S
C1394 C1395 1.394 . S
C1394 H1402 0.930 . S
C1395 C1394 1.394 . S
C1395 C1396 1.383 . S
C1395 H1403 0.929 . S
C1396 C1395 1.383 . S
C1396 C1397 1.377 . S
C1397 H1381 0.930 . S
C1397 C1396 1.377 . S
C1397 C1398 1.379 . S
C1398 H1382 0.931 . S
C1398 C1392 1.383 . S
C1398 C1397 1.379 . S
H1399 C1393 0.959 . S
H1400 C1393 0.961 . S
H1401 C1393 0.960 . S
H1402 C1394 0.930 . S
H1403 C1395 0.929 . S
H1404 C1412 0.929 . S
H1405 C1414 0.930 . S
H1406 C1416 0.930 . S
H1407 C1419 0.929 . S
H1408 C1422 0.930 . S
H1409 C1424 0.960 . S
H1410 C1424 0.960 . S
H1411 C1424 0.960 . S
C1412 H1404 0.929 . S
C1412 C1413 1.377 . S
C1412 C1414 1.384 . S
C1413 C1412 1.377 . S
C1413 C1419 1.390 . S
C1414 H1405 0.930 . S
C1414 C1412 1.384 . S
C1414 C1415 1.372 . S
C1415 C1414 1.372 . S
C1415 C1416 1.400 . S
C1415 C1420 1.490 . S
C1416 H1406 0.930 . S
C1416 C1415 1.400 . S
C1416 C1419 1.386 . S
H1417 C1433 0.930 . S
H1418 C1434 0.931 . S
C1419 H1407 0.929 . S
C1419 C1413 1.390 . S
C1419 C1416 1.386 . S
C1420 C1415 1.490 . S
C1420 C1422 1.395 . S
C1420 C1423 1.403 . S
H1421 C1427 0.930 1_655 S
C1422 H1408 0.930 . S
C1422 C1420 1.395 . S
C1422 C1425 1.403 . S
C1423 C1420 1.403 . S
C1423 C1424 1.524 . S
C1423 C1427 1.400 . S
C1424 H1409 0.960 . S
C1424 H1410 0.960 . S
C1424 H1411 0.960 . S
C1424 C1423 1.524 . S
C1425 C1422 1.403 . S
C1425 C1426 1.392 1_455 S
C1425 C1429 1.495 1_455 S
C1426 C1425 1.392 1_655 S
C1426 C1427 1.385 1_655 S
C1426 C1428 1.478 . S
C1427 H1421 0.930 1_455 S
C1427 C1423 1.400 . S
C1427 C1426 1.385 1_455 S
C1428 C1426 1.478 . S
C1428 C1430 1.381 . S
C1428 C1434 1.383 . S
C1429 C1425 1.495 1_655 S
C1429 H1435 0.959 1_655 S
C1429 H1436 0.961 . S
C1429 H1437 0.960 . S
C1430 C1428 1.381 . S
C1430 C1431 1.394 . S
C1430 H1438 0.930 . S
C1431 C1430 1.394 . S
C1431 C1432 1.383 . S
C1431 H1439 0.929 . S
C1432 C1431 1.383 . S
C1432 C1433 1.377 . S
C1433 H1417 0.930 . S
C1433 C1432 1.377 . S
C1433 C1434 1.379 . S
C1434 H1418 0.931 . S
C1434 C1428 1.383 . S
C1434 C1433 1.379 . S
H1435 C1429 0.959 1_455 S
H1436 C1429 0.961 . S
H1437 C1429 0.960 . S
H1438 C1430 0.930 . S
H1439 C1431 0.929 . S
H1440 C1448 0.929 . S
H1441 C1450 0.930 . S
H1442 C1452 0.930 . S
H1443 C1455 0.929 . S
H1444 C1458 0.907 1_565 S
H1445 C1460 0.960 1_545 S
H1446 C1460 0.960 . S
H1447 C1460 0.960 . S
C1448 H1440 0.929 . S
C1448 C1449 1.377 . S
C1448 C1450 1.384 . S
C1449 C1448 1.377 . S
C1449 C1455 1.390 . S
C1450 H1441 0.930 . S
C1450 C1448 1.384 . S
C1450 C1451 1.372 . S
C1451 C1450 1.372 . S
C1451 C1452 1.400 . S
C1451 C1456 1.490 . S
C1452 H1442 0.930 . S
C1452 C1451 1.400 . S
C1452 C1455 1.386 . S
H1453 C1469 0.930 . S
H1454 C1470 0.931 . S
C1455 H1443 0.929 . S
C1455 C1449 1.390 . S
C1455 C1452 1.386 . S
C1456 C1451 1.490 . S
C1456 C1458 1.395 1_565 S
C1456 C1459 1.403 1_565 S
H1457 C1463 0.930 . S
C1458 H1444 0.907 1_545 S
C1458 C1456 1.395 1_545 S
C1458 C1461 1.403 . S
C1459 C1456 1.403 1_545 S
C1459 C1460 1.524 1_545 S
C1459 C1463 1.400 . S
C1460 H1445 0.960 1_565 S
C1460 H1446 0.960 . S
C1460 H1447 0.960 . S
C1460 C1459 1.524 1_565 S
C1461 C1458 1.403 . S
C1461 C1462 1.392 . S
C1461 C1465 1.495 . S
C1462 C1461 1.392 . S
C1462 C1463 1.385 . S
C1462 C1464 1.478 . S
C1463 H1457 0.930 . S
C1463 C1459 1.400 . S
C1463 C1462 1.385 . S
C1464 C1462 1.478 . S
C1464 C1466 1.381 . S
C1464 C1470 1.383 . S
C1465 C1461 1.495 . S
C1465 H1471 0.959 . S
C1465 H1472 0.961 . S
C1465 H1473 0.960 . S
C1466 C1464 1.381 . S
C1466 C1467 1.394 . S
C1466 H1474 0.930 . S
C1467 C1466 1.394 . S
C1467 C1468 1.383 . S
C1467 H1475 0.929 . S
C1468 C1467 1.383 . S
C1468 C1469 1.377 . S
C1469 H1453 0.930 . S
C1469 C1468 1.377 . S
C1469 C1470 1.379 . S
C1470 H1454 0.931 . S
C1470 C1464 1.383 . S
C1470 C1469 1.379 . S
H1471 C1465 0.959 . S
H1472 C1465 0.961 . S
H1473 C1465 0.960 . S
H1474 C1466 0.930 . S
H1475 C1467 0.929 . S
H1476 C1484 0.929 . S
H1477 C1486 0.930 . S
H1478 C1488 0.930 . S
H1479 C1491 0.929 . S
H1480 C1494 0.930 1_455 S
H1481 C1496 0.960 1_655 S
H1482 C1496 0.960 . S
H1483 C1496 0.960 . S
C1484 H1476 0.929 . S
C1484 C1485 1.377 . S
C1484 C1486 1.384 . S
C1485 C1484 1.377 . S
C1485 C1491 1.390 . S
C1486 H1477 0.930 . S
C1486 C1484 1.384 . S
C1486 C1487 1.372 . S
C1487 C1486 1.372 . S
C1487 C1488 1.400 . S
C1487 C1492 1.490 . S
C1488 H1478 0.930 . S
C1488 C1487 1.400 . S
C1488 C1491 1.386 . S
H1489 C1505 0.930 . S
H1490 C1506 0.931 . S
C1491 H1479 0.929 . S
C1491 C1485 1.390 . S
C1491 C1488 1.386 . S
C1492 C1487 1.490 . S
C1492 C1494 1.395 1_455 S
C1492 C1495 1.403 1_455 S
H1493 C1499 0.930 . S
C1494 H1480 0.930 1_655 S
C1494 C1492 1.395 1_655 S
C1494 C1497 1.403 . S
C1495 C1492 1.403 1_655 S
C1495 C1496 1.524 1_655 S
C1495 C1499 1.400 . S
C1496 H1481 0.960 1_455 S
C1496 H1482 0.960 . S
C1496 H1483 0.960 . S
C1496 C1495 1.524 1_455 S
C1497 C1494 1.403 . S
C1497 C1498 1.392 . S
C1497 C1501 1.495 . S
C1498 C1497 1.392 . S
C1498 C1499 1.385 . S
C1498 C1500 1.478 . S
C1499 H1493 0.930 . S
C1499 C1495 1.400 . S
C1499 C1498 1.385 . S
C1500 C1498 1.478 . S
C1500 C1502 1.381 . S
C1500 C1506 1.383 . S
C1501 C1497 1.495 . S
C1501 H1507 0.959 . S
C1501 H1508 0.961 . S
C1501 H1509 0.960 . S
C1502 C1500 1.381 . S
C1502 C1503 1.394 . S
C1502 H1510 0.930 . S
C1503 C1502 1.394 . S
C1503 C1504 1.383 . S
C1503 H1511 0.929 . S
C1504 C1503 1.383 . S
C1504 C1505 1.377 . S
C1505 H1489 0.930 . S
C1505 C1504 1.377 . S
C1505 C1506 1.379 . S
C1506 H1490 0.931 . S
C1506 C1500 1.383 . S
C1506 C1505 1.379 . S
H1507 C1501 0.959 . S
H1508 C1501 0.961 . S
H1509 C1501 0.960 . S
H1510 C1502 0.930 . S
H1511 C1503 0.929 . S
H1512 C1520 0.929 . S
H1513 C1522 0.930 . S
H1514 C1524 0.930 . S
H1515 C1527 0.929 . S
H1516 C1530 0.930 1_556 S
H1517 C1532 0.960 . S
H1518 C1532 0.960 1_556 S
H1519 C1532 0.960 1_556 S
C1520 H1512 0.929 . S
C1520 C1521 1.377 . S
C1520 C1522 1.384 . S
C1521 C1520 1.377 . S
C1521 C1527 1.390 . S
C1522 H1513 0.930 . S
C1522 C1520 1.384 . S
C1522 C1523 1.372 . S
C1523 C1522 1.372 . S
C1523 C1524 1.400 . S
C1523 C1528 1.490 . S
C1524 H1514 0.930 . S
C1524 C1523 1.400 . S
C1524 C1527 1.386 . S
H1525 C1541 0.930 . S
H1526 C1542 0.931 . S
C1527 H1515 0.929 . S
C1527 C1521 1.390 . S
C1527 C1524 1.386 . S
C1528 C1523 1.490 . S
C1528 C1530 1.395 1_556 S
C1528 C1531 1.403 1_556 S
H1529 C1535 0.930 . S
C1530 H1516 0.930 1_554 S
C1530 C1528 1.395 1_554 S
C1530 C1533 1.403 . S
C1531 C1528 1.403 1_554 S
C1531 C1532 1.524 . S
C1531 C1535 1.400 . S
C1532 H1517 0.960 . S
C1532 H1518 0.960 1_554 S
C1532 H1519 0.960 1_554 S
C1532 C1531 1.524 . S
C1533 C1530 1.403 . S
C1533 C1534 1.392 . S
C1533 C1537 1.495 . S
C1534 C1533 1.392 . S
C1534 C1535 1.385 . S
C1534 C1536 1.478 . S
C1535 H1529 0.930 . S
C1535 C1531 1.400 . S
C1535 C1534 1.385 . S
C1536 C1534 1.478 . S
C1536 C1538 1.381 . S
C1536 C1542 1.383 . S
C1537 C1533 1.495 . S
C1537 H1543 0.959 . S
C1537 H1544 0.961 . S
C1537 H1545 0.960 . S
C1538 C1536 1.381 . S
C1538 C1539 1.394 . S
C1538 H1546 0.930 . S
C1539 C1538 1.394 . S
C1539 C1540 1.383 . S
C1539 H1547 0.929 . S
C1540 C1539 1.383 . S
C1540 C1541 1.377 . S
C1541 H1525 0.930 . S
C1541 C1540 1.377 . S
C1541 C1542 1.379 . S
C1542 H1526 0.931 . S
C1542 C1536 1.383 . S
C1542 C1541 1.379 . S
H1543 C1537 0.959 . S
H1544 C1537 0.961 . S
H1545 C1537 0.960 . S
H1546 C1538 0.930 . S
H1547 C1539 0.929 . S
H1548 C1556 0.929 . S
H1549 C1558 0.930 . S
H1550 C1560 0.930 . S
H1551 C1563 0.929 . S
H1552 C1566 0.930 . S
H1553 C1568 0.960 . S
H1554 C1568 0.960 . S
H1555 C1568 0.960 . S
C1556 H1548 0.929 . S
C1556 C1557 1.377 . S
C1556 C1558 1.384 . S
C1557 C1556 1.377 . S
C1557 C1563 1.390 . S
C1558 H1549 0.930 . S
C1558 C1556 1.384 . S
C1558 C1559 1.372 . S
C1559 C1558 1.372 . S
C1559 C1560 1.400 . S
C1559 C1564 1.490 . S
C1560 H1550 0.930 . S
C1560 C1559 1.400 . S
C1560 C1563 1.386 . S
H1561 C1577 0.930 . S
H1562 C1578 0.931 . S
C1563 H1551 0.929 . S
C1563 C1557 1.390 . S
C1563 C1560 1.386 . S
C1564 C1559 1.490 . S
C1564 C1566 1.395 . S
C1564 C1567 1.403 . S
H1565 C1571 0.930 1_556 S
C1566 H1552 0.930 . S
C1566 C1564 1.395 . S
C1566 C1569 1.403 . S
C1567 C1564 1.403 . S
C1567 C1568 1.524 . S
C1567 C1571 1.400 . S
C1568 H1553 0.960 . S
C1568 H1554 0.960 . S
C1568 H1555 0.960 . S
C1568 C1567 1.524 . S
C1569 C1566 1.403 . S
C1569 C1570 1.392 1_554 S
C1569 C1573 1.509 . S
C1570 C1569 1.392 1_556 S
C1570 C1571 1.385 1_556 S
C1570 C1572 1.478 . S
C1571 H1565 0.930 1_554 S
C1571 C1567 1.400 . S
C1571 C1570 1.385 1_554 S
C1572 C1570 1.478 . S
C1572 C1574 1.381 . S
C1572 C1578 1.383 . S
C1573 C1569 1.509 . S
C1573 H1579 0.994 . S
C1573 H1580 0.940 1_554 S
C1573 H1581 0.934 1_554 S
C1574 C1572 1.381 . S
C1574 C1575 1.394 . S
C1574 H1582 0.930 . S
C1575 C1574 1.394 . S
C1575 C1576 1.383 . S
C1575 H1583 0.929 . S
C1576 C1575 1.383 . S
C1576 C1577 1.377 . S
C1577 H1561 0.930 . S
C1577 C1576 1.377 . S
C1577 C1578 1.379 . S
C1578 H1562 0.931 . S
C1578 C1572 1.383 . S
C1578 C1577 1.379 . S
H1579 C1573 0.994 . S
H1580 C1573 0.940 1_556 S
H1581 C1573 0.934 1_556 S
H1582 C1574 0.930 . S
H1583 C1575 0.929 . S
H1584 C1592 0.929 . S
H1585 C1594 0.930 . S
H1586 C1596 0.930 . S
H1587 C1599 0.929 . S
H1588 C1602 0.924 1_556 S
H1589 C1604 0.960 1_554 S
H1590 C1604 0.960 . S
H1591 C1604 0.960 . S
C1592 H1584 0.929 . S
C1592 C1593 1.377 . S
C1592 C1594 1.384 . S
C1593 C1592 1.377 . S
C1593 C1599 1.390 . S
C1594 H1585 0.930 . S
C1594 C1592 1.384 . S
C1594 C1595 1.372 . S
C1595 C1594 1.372 . S
C1595 C1596 1.400 . S
C1595 C1600 1.490 . S
C1596 H1586 0.930 . S
C1596 C1595 1.400 . S
C1596 C1599 1.386 . S
H1597 C1613 0.930 . S
H1598 C1614 0.931 . S
C1599 H1587 0.929 . S
C1599 C1593 1.390 . S
C1599 C1596 1.386 . S
C1600 C1595 1.490 . S
C1600 C1602 1.395 1_556 S
C1600 C1603 1.403 1_556 S
H1601 C1607 0.930 . S
C1602 H1588 0.924 1_554 S
C1602 C1600 1.395 1_554 S
C1602 C1605 1.403 . S
C1603 C1600 1.403 1_554 S
C1603 C1604 1.524 1_554 S
C1603 C1607 1.400 . S
C1604 H1589 0.960 1_556 S
C1604 H1590 0.960 . S
C1604 H1591 0.960 . S
C1604 C1603 1.524 1_556 S
C1605 C1602 1.403 . S
C1605 C1606 1.392 . S
C1605 C1609 1.495 . S
C1606 C1605 1.392 . S
C1606 C1607 1.385 . S
C1606 C1608 1.478 . S
C1607 H1601 0.930 . S
C1607 C1603 1.400 . S
C1607 C1606 1.385 . S
C1608 C1606 1.478 . S
C1608 C1610 1.381 . S
C1608 C1614 1.383 . S
C1609 C1605 1.495 . S
C1609 H1615 0.959 . S
C1609 H1616 0.961 . S
C1609 H1617 0.960 . S
C1610 C1608 1.381 . S
C1610 C1611 1.394 . S
C1610 H1618 0.930 . S
C1611 C1610 1.394 . S
C1611 C1612 1.383 . S
C1611 H1619 0.929 . S
C1612 C1611 1.383 . S
C1612 C1613 1.377 . S
C1613 H1597 0.930 . S
C1613 C1612 1.377 . S
C1613 C1614 1.379 . S
C1614 H1598 0.931 . S
C1614 C1608 1.383 . S
C1614 C1613 1.379 . S
H1615 C1609 0.959 . S
H1616 C1609 0.961 . S
H1617 C1609 0.960 . S
H1618 C1610 0.930 . S
H1619 C1611 0.929 . S
H1620 C1628 0.929 . S
H1621 C1630 0.930 . S
H1622 C1632 0.930 . S
H1623 C1635 0.929 . S
H1624 C1638 0.930 . S
H1625 C1640 0.960 . S
H1626 C1640 0.960 . S
H1627 C1640 0.960 . S
C1628 H1620 0.929 . S
C1628 C1629 1.377 . S
C1628 C1630 1.384 . S
C1629 C1628 1.377 . S
C1629 C1635 1.390 . S
C1630 H1621 0.930 . S
C1630 C1628 1.384 . S
C1630 C1631 1.372 . S
C1631 C1630 1.372 . S
C1631 C1632 1.400 . S
C1631 C1636 1.490 . S
C1632 H1622 0.930 . S
C1632 C1631 1.400 . S
C1632 C1635 1.386 . S
H1633 C1649 0.930 . S
H1634 C1650 0.931 . S
C1635 H1623 0.929 . S
C1635 C1629 1.390 . S
C1635 C1632 1.386 . S
C1636 C1631 1.490 . S
C1636 C1638 1.395 . S
C1636 C1639 1.403 . S
H1637 C1643 0.930 1_556 S
C1638 H1624 0.930 . S
C1638 C1636 1.395 . S
C1638 C1641 1.403 . S
C1639 C1636 1.403 . S
C1639 C1640 1.524 . S
C1639 C1643 1.400 . S
C1640 H1625 0.960 . S
C1640 H1626 0.960 . S
C1640 H1627 0.960 . S
C1640 C1639 1.524 . S
C1641 C1638 1.403 . S
C1641 C1642 1.392 1_554 S
C1641 C1645 1.503 . S
C1642 C1641 1.392 1_556 S
C1642 C1643 1.385 1_556 S
C1642 C1644 1.478 . S
C1643 H1637 0.930 1_554 S
C1643 C1639 1.400 . S
C1643 C1642 1.385 1_554 S
C1644 C1642 1.478 . S
C1644 C1646 1.381 . S
C1644 C1650 1.383 . S
C1645 C1641 1.503 . S
C1645 H1651 0.977 . S
C1645 H1652 0.948 1_554 S
C1645 H1653 0.948 1_554 S
C1646 C1644 1.381 . S
C1646 C1647 1.394 . S
C1646 H1654 0.930 . S
C1647 C1646 1.394 . S
C1647 C1648 1.383 . S
C1647 H1655 0.929 . S
C1648 C1647 1.383 . S
C1648 C1649 1.377 . S
C1649 H1633 0.930 . S
C1649 C1648 1.377 . S
C1649 C1650 1.379 . S
C1650 H1634 0.931 . S
C1650 C1644 1.383 . S
C1650 C1649 1.379 . S
H1651 C1645 0.977 . S
H1652 C1645 0.948 1_556 S
H1653 C1645 0.948 1_556 S
H1654 C1646 0.930 . S
H1655 C1647 0.929 . S
H1656 C1664 0.929 . S
H1657 C1666 0.930 . S
H1658 C1668 0.930 . S
H1659 C1671 0.929 . S
H1660 C1674 0.930 1_554 S
H1661 C1676 0.968 . S
H1662 C1676 0.955 1_554 S
H1663 C1676 0.954 1_554 S
C1664 H1656 0.929 . S
C1664 C1665 1.377 . S
C1664 C1666 1.384 . S
C1665 C1664 1.377 . S
C1665 C1671 1.390 . S
C1666 H1657 0.930 . S
C1666 C1664 1.384 . S
C1666 C1667 1.372 . S
C1667 C1666 1.372 . S
C1667 C1668 1.400 . S
C1667 C1672 1.490 . S
C1668 H1658 0.930 . S
C1668 C1667 1.400 . S
C1668 C1671 1.386 . S
H1669 C1685 0.930 . S
H1670 C1686 0.931 . S
C1671 H1659 0.929 . S
C1671 C1665 1.390 . S
C1671 C1668 1.386 . S
C1672 C1667 1.490 . S
C1672 C1674 1.395 1_554 S
C1672 C1675 1.403 1_554 S
H1673 C1679 0.930 . S
C1674 H1660 0.930 1_556 S
C1674 C1672 1.395 1_556 S
C1674 C1677 1.403 . S
C1675 C1672 1.403 1_556 S
C1675 C1676 1.527 . S
C1675 C1679 1.400 . S
C1676 H1661 0.968 . S
C1676 H1662 0.955 1_556 S
C1676 H1663 0.954 1_556 S
C1676 C1675 1.527 . S
C1677 C1674 1.403 . S
C1677 C1678 1.392 . S
C1677 C1681 1.495 . S
C1678 C1677 1.392 . S
C1678 C1679 1.385 . S
C1678 C1680 1.478 . S
C1679 H1673 0.930 . S
C1679 C1675 1.400 . S
C1679 C1678 1.385 . S
C1680 C1678 1.478 . S
C1680 C1682 1.381 . S
C1680 C1686 1.383 . S
C1681 C1677 1.495 . S
C1681 H1687 0.959 . S
C1681 H1688 0.961 . S
C1681 H1689 0.960 . S
C1682 C1680 1.381 . S
C1682 C1683 1.394 . S
C1682 H1690 0.930 . S
C1683 C1682 1.394 . S
C1683 C1684 1.383 . S
C1683 H1691 0.929 . S
C1684 C1683 1.383 . S
C1684 C1685 1.377 . S
C1685 H1669 0.930 . S
C1685 C1684 1.377 . S
C1685 C1686 1.379 . S
C1686 H1670 0.931 . S
C1686 C1680 1.383 . S
C1686 C1685 1.379 . S
H1687 C1681 0.959 . S
H1688 C1681 0.961 . S
H1689 C1681 0.960 . S
H1690 C1682 0.930 . S
H1691 C1683 0.929 . S
H1692 C1700 0.929 . S
H1693 C1702 0.930 . S
H1694 C1704 0.930 . S
H1695 C1707 0.929 . S
H1696 C1710 0.930 . S
H1697 C1712 0.960 . S
H1698 C1712 0.960 . S
H1699 C1712 0.960 . S
C1700 H1692 0.929 . S
C1700 C1701 1.377 . S
C1700 C1702 1.384 . S
C1701 C1700 1.377 . S
C1701 C1707 1.390 . S
C1702 H1693 0.930 . S
C1702 C1700 1.384 . S
C1702 C1703 1.372 . S
C1703 C1702 1.372 . S
C1703 C1704 1.400 . S
C1703 C1708 1.490 . S
C1704 H1694 0.930 . S
C1704 C1703 1.400 . S
C1704 C1707 1.386 . S
H1705 C1721 0.930 . S
H1706 C1722 0.931 . S
C1707 H1695 0.929 . S
C1707 C1701 1.390 . S
C1707 C1704 1.386 . S
C1708 C1703 1.490 . S
C1708 C1710 1.395 . S
C1708 C1711 1.403 . S
H1709 C1715 0.930 1_554 S
C1710 H1696 0.930 . S
C1710 C1708 1.395 . S
C1710 C1713 1.403 . S
C1711 C1708 1.403 . S
C1711 C1712 1.524 . S
C1711 C1715 1.400 . S
C1712 H1697 0.960 . S
C1712 H1698 0.960 . S
C1712 H1699 0.960 . S
C1712 C1711 1.524 . S
C1713 C1710 1.403 . S
C1713 C1714 1.392 1_556 S
C1713 C1717 1.495 1_556 S
C1714 C1713 1.392 1_554 S
C1714 C1715 1.385 1_554 S
C1714 C1716 1.478 . S
C1715 H1709 0.930 1_556 S
C1715 C1711 1.400 . S
C1715 C1714 1.385 1_556 S
C1716 C1714 1.478 . S
C1716 C1718 1.381 . S
C1716 C1722 1.383 . S
C1717 C1713 1.495 1_554 S
C1717 H1723 0.959 1_554 S
C1717 H1724 0.961 . S
C1717 H1725 0.960 . S
C1718 C1716 1.381 . S
C1718 C1719 1.394 . S
C1718 H1726 0.930 . S
C1719 C1718 1.394 . S
C1719 C1720 1.383 . S
C1719 H1727 0.929 . S
C1720 C1719 1.383 . S
C1720 C1721 1.377 . S
C1721 H1705 0.930 . S
C1721 C1720 1.377 . S
C1721 C1722 1.379 . S
C1722 H1706 0.931 . S
C1722 C1716 1.383 . S
C1722 C1721 1.379 . S
H1723 C1717 0.959 1_556 S
H1724 C1717 0.961 . S
H1725 C1717 0.960 . S
H1726 C1718 0.930 . S
H1727 C1719 0.929 . S
H1728 C1736 0.929 . S
H1729 C1738 0.930 . S
H1730 C1740 0.930 . S
H1731 C1743 0.929 . S
H1732 C1746 0.925 1_554 S
H1733 C1748 0.960 1_556 S
H1734 C1748 0.960 . S
H1735 C1748 0.960 . S
C1736 H1728 0.929 . S
C1736 C1737 1.377 . S
C1736 C1738 1.384 . S
C1737 C1736 1.377 . S
C1737 C1743 1.390 . S
C1738 H1729 0.930 . S
C1738 C1736 1.384 . S
C1738 C1739 1.372 . S
C1739 C1738 1.372 . S
C1739 C1740 1.400 . S
C1739 C1744 1.490 . S
C1740 H1730 0.930 . S
C1740 C1739 1.400 . S
C1740 C1743 1.386 . S
H1741 C1757 0.930 . S
H1742 C1758 0.931 . S
C1743 H1731 0.929 . S
C1743 C1737 1.390 . S
C1743 C1740 1.386 . S
C1744 C1739 1.490 . S
C1744 C1746 1.395 1_554 S
C1744 C1747 1.403 1_554 S
H1745 C1751 0.930 . S
C1746 H1732 0.925 1_556 S
C1746 C1744 1.395 1_556 S
C1746 C1749 1.403 . S
C1747 C1744 1.403 1_556 S
C1747 C1748 1.524 1_556 S
C1747 C1751 1.400 . S
C1748 H1733 0.960 1_554 S
C1748 H1734 0.960 . S
C1748 H1735 0.960 . S
C1748 C1747 1.524 1_554 S
C1749 C1746 1.403 . S
C1749 C1750 1.392 . S
C1749 C1753 1.495 . S
C1750 C1749 1.392 . S
C1750 C1751 1.385 . S
C1750 C1752 1.478 . S
C1751 H1745 0.930 . S
C1751 C1747 1.400 . S
C1751 C1750 1.385 . S
C1752 C1750 1.478 . S
C1752 C1754 1.381 . S
C1752 C1758 1.383 . S
C1753 C1749 1.495 . S
C1753 H1759 0.959 . S
C1753 H1760 0.961 . S
C1753 H1761 0.960 . S
C1754 C1752 1.381 . S
C1754 C1755 1.394 . S
C1754 H1762 0.930 . S
C1755 C1754 1.394 . S
C1755 C1756 1.383 . S
C1755 H1763 0.929 . S
C1756 C1755 1.383 . S
C1756 C1757 1.377 . S
C1757 H1741 0.930 . S
C1757 C1756 1.377 . S
C1757 C1758 1.379 . S
C1758 H1742 0.931 . S
C1758 C1752 1.383 . S
C1758 C1757 1.379 . S
H1759 C1753 0.959 . S
H1760 C1753 0.961 . S
H1761 C1753 0.960 . S
H1762 C1754 0.930 . S
H1763 C1755 0.929 . S
H1764 C1772 0.929 . S
H1765 C1774 0.930 . S
H1766 C1776 0.930 . S
H1767 C1779 0.929 . S
H1768 C1782 0.930 . S
H1769 C1784 0.960 . S
H1770 C1784 0.960 . S
H1771 C1784 0.960 . S
C1772 H1764 0.929 . S
C1772 C1773 1.377 . S
C1772 C1774 1.384 . S
C1773 C1772 1.377 . S
C1773 C1779 1.390 . S
C1774 H1765 0.930 . S
C1774 C1772 1.384 . S
C1774 C1775 1.372 . S
C1775 C1774 1.372 . S
C1775 C1776 1.400 . S
C1775 C1780 1.490 . S
C1776 H1766 0.930 . S
C1776 C1775 1.400 . S
C1776 C1779 1.386 . S
H1777 C1793 0.930 . S
H1778 C1794 0.931 . S
C1779 H1767 0.929 . S
C1779 C1773 1.390 . S
C1779 C1776 1.386 . S
C1780 C1775 1.490 . S
C1780 C1782 1.395 . S
C1780 C1783 1.403 . S
H1781 C1787 0.930 1_554 S
C1782 H1768 0.930 . S
C1782 C1780 1.395 . S
C1782 C1785 1.403 . S
C1783 C1780 1.403 . S
C1783 C1784 1.524 . S
C1783 C1787 1.400 . S
C1784 H1769 0.960 . S
C1784 H1770 0.960 . S
C1784 H1771 0.960 . S
C1784 C1783 1.524 . S
C1785 C1782 1.403 . S
C1785 C1786 1.392 1_556 S
C1785 C1789 1.495 1_556 S
C1786 C1785 1.392 1_554 S
C1786 C1787 1.385 1_554 S
C1786 C1788 1.478 . S
C1787 H1781 0.930 1_556 S
C1787 C1783 1.400 . S
C1787 C1786 1.385 1_556 S
C1788 C1786 1.478 . S
C1788 C1790 1.381 . S
C1788 C1794 1.383 . S
C1789 C1785 1.495 1_554 S
C1789 H1795 0.959 1_554 S
C1789 H1796 0.961 . S
C1789 H1797 0.960 . S
C1790 C1788 1.381 . S
C1790 C1791 1.394 . S
C1790 H1798 0.930 . S
C1791 C1790 1.394 . S
C1791 C1792 1.383 . S
C1791 H1799 0.929 . S
C1792 C1791 1.383 . S
C1792 C1793 1.377 . S
C1793 H1777 0.930 . S
C1793 C1792 1.377 . S
C1793 C1794 1.379 . S
C1794 H1778 0.931 . S
C1794 C1788 1.383 . S
C1794 C1793 1.379 . S
H1795 C1789 0.959 1_556 S
H1796 C1789 0.961 . S
H1797 C1789 0.960 . S
H1798 C1790 0.930 . S
H1799 C1791 0.929 . S
H1800 C1808 0.929 . S
H1801 C1810 0.930 . S
H1802 C1812 0.930 . S
H1803 C1815 0.929 . S
H1804 C1818 0.930 1_655 S
H1805 C1820 0.960 1_455 S
H1806 C1820 0.960 . S
H1807 C1820 0.960 . S
C1808 H1800 0.929 . S
C1808 C1809 1.377 . S
C1808 C1810 1.384 . S
C1809 C1808 1.377 . S
C1809 C1815 1.390 . S
C1810 H1801 0.930 . S
C1810 C1808 1.384 . S
C1810 C1811 1.372 . S
C1811 C1810 1.372 . S
C1811 C1812 1.400 . S
C1811 C1816 1.490 . S
C1812 H1802 0.930 . S
C1812 C1811 1.400 . S
C1812 C1815 1.386 . S
H1813 C1829 0.930 . S
H1814 C1830 0.931 . S
C1815 H1803 0.929 . S
C1815 C1809 1.390 . S
C1815 C1812 1.386 . S
C1816 C1811 1.490 . S
C1816 C1818 1.395 1_655 S
C1816 C1819 1.403 1_655 S
H1817 C1823 0.930 . S
C1818 H1804 0.930 1_455 S
C1818 C1816 1.395 1_455 S
C1818 C1821 1.403 . S
C1819 C1816 1.403 1_455 S
C1819 C1820 1.524 1_455 S
C1819 C1823 1.400 . S
C1820 H1805 0.960 1_655 S
C1820 H1806 0.960 . S
C1820 H1807 0.960 . S
C1820 C1819 1.524 1_655 S
C1821 C1818 1.403 . S
C1821 C1822 1.392 . S
C1821 C1825 1.495 . S
C1822 C1821 1.392 . S
C1822 C1823 1.385 . S
C1822 C1824 1.478 . S
C1823 H1817 0.930 . S
C1823 C1819 1.400 . S
C1823 C1822 1.385 . S
C1824 C1822 1.478 . S
C1824 C1826 1.381 . S
C1824 C1830 1.383 . S
C1825 C1821 1.495 . S
C1825 H1831 0.959 . S
C1825 H1832 0.961 . S
C1825 H1833 0.960 . S
C1826 C1824 1.381 . S
C1826 C1827 1.394 . S
C1826 H1834 0.930 . S
C1827 C1826 1.394 . S
C1827 C1828 1.383 . S
C1827 H1835 0.929 . S
C1828 C1827 1.383 . S
C1828 C1829 1.377 . S
C1829 H1813 0.930 . S
C1829 C1828 1.377 . S
C1829 C1830 1.379 . S
C1830 H1814 0.931 . S
C1830 C1824 1.383 . S
C1830 C1829 1.379 . S
H1831 C1825 0.959 . S
H1832 C1825 0.961 . S
H1833 C1825 0.960 . S
H1834 C1826 0.930 . S
H1835 C1827 0.929 . S
H1836 C1844 0.929 . S
H1837 C1846 0.930 . S
H1838 C1848 0.930 . S
H1839 C1851 0.929 . S
H1840 C1854 0.926 1_655 S
H1841 C1856 0.960 1_455 S
H1842 C1856 0.960 . S
H1843 C1856 0.960 . S
C1844 H1836 0.929 . S
C1844 C1845 1.377 . S
C1844 C1846 1.384 . S
C1845 C1844 1.377 . S
C1845 C1851 1.390 . S
C1846 H1837 0.930 . S
C1846 C1844 1.384 . S
C1846 C1847 1.372 . S
C1847 C1846 1.372 . S
C1847 C1848 1.400 . S
C1847 C1852 1.490 . S
C1848 H1838 0.930 . S
C1848 C1847 1.400 . S
C1848 C1851 1.386 . S
H1849 C1865 0.930 . S
H1850 C1866 0.931 . S
C1851 H1839 0.929 . S
C1851 C1845 1.390 . S
C1851 C1848 1.386 . S
C1852 C1847 1.490 . S
C1852 C1854 1.395 1_655 S
C1852 C1855 1.403 1_655 S
H1853 C1859 0.930 . S
C1854 H1840 0.926 1_455 S
C1854 C1852 1.395 1_455 S
C1854 C1857 1.403 . S
C1855 C1852 1.403 1_455 S
C1855 C1856 1.524 1_455 S
C1855 C1859 1.400 . S
C1856 H1841 0.960 1_655 S
C1856 H1842 0.960 . S
C1856 H1843 0.960 . S
C1856 C1855 1.524 1_655 S
C1857 C1854 1.403 . S
C1857 C1858 1.392 . S
C1857 C1861 1.495 . S
C1858 C1857 1.392 . S
C1858 C1859 1.385 . S
C1858 C1860 1.478 . S
C1859 H1853 0.930 . S
C1859 C1855 1.400 . S
C1859 C1858 1.385 . S
C1860 C1858 1.478 . S
C1860 C1862 1.381 . S
C1860 C1866 1.383 . S
C1861 C1857 1.495 . S
C1861 H1867 0.959 . S
C1861 H1868 0.961 . S
C1861 H1869 0.960 . S
C1862 C1860 1.381 . S
C1862 C1863 1.394 . S
C1862 H1870 0.930 . S
C1863 C1862 1.394 . S
C1863 C1864 1.383 . S
C1863 H1871 0.929 . S
C1864 C1863 1.383 . S
C1864 C1865 1.377 . S
C1865 H1849 0.930 . S
C1865 C1864 1.377 . S
C1865 C1866 1.379 . S
C1866 H1850 0.931 . S
C1866 C1860 1.383 . S
C1866 C1865 1.379 . S
H1867 C1861 0.959 . S
H1868 C1861 0.961 . S
H1869 C1861 0.960 . S
H1870 C1862 0.930 . S
H1871 C1863 0.929 . S
H1872 C1880 0.929 . S
H1873 C1882 0.930 . S
H1874 C1884 0.930 . S
H1875 C1887 0.929 . S
H1876 C1890 0.930 . S
H1877 C1892 0.960 . S
H1878 C1892 0.960 . S
H1879 C1892 0.960 . S
C1880 H1872 0.929 . S
C1880 C1881 1.377 . S
C1880 C1882 1.384 . S
C1881 C1880 1.377 . S
C1881 C1887 1.390 . S
C1882 H1873 0.930 . S
C1882 C1880 1.384 . S
C1882 C1883 1.372 . S
C1883 C1882 1.372 . S
C1883 C1884 1.400 . S
C1883 C1888 1.490 . S
C1884 H1874 0.930 . S
C1884 C1883 1.400 . S
C1884 C1887 1.386 . S
H1885 C1901 0.930 . S
H1886 C1902 0.931 . S
C1887 H1875 0.929 . S
C1887 C1881 1.390 . S
C1887 C1884 1.386 . S
C1888 C1883 1.490 . S
C1888 C1890 1.395 . S
C1888 C1891 1.403 . S
H1889 C1895 0.930 1_565 S
C1890 H1876 0.930 . S
C1890 C1888 1.395 . S
C1890 C1893 1.403 . S
C1891 C1888 1.403 . S
C1891 C1892 1.524 . S
C1891 C1895 1.400 . S
C1892 H1877 0.960 . S
C1892 H1878 0.960 . S
C1892 H1879 0.960 . S
C1892 C1891 1.524 . S
C1893 C1890 1.403 . S
C1893 C1894 1.392 1_545 S
C1893 C1897 1.495 1_545 S
C1894 C1893 1.392 1_565 S
C1894 C1895 1.385 1_565 S
C1894 C1896 1.478 . S
C1895 H1889 0.930 1_545 S
C1895 C1891 1.400 . S
C1895 C1894 1.385 1_545 S
C1896 C1894 1.478 . S
C1896 C1898 1.381 . S
C1896 C1902 1.383 . S
C1897 C1893 1.495 1_565 S
C1897 H1903 0.959 1_565 S
C1897 H1904 0.961 . S
C1897 H1905 0.960 . S
C1898 C1896 1.381 . S
C1898 C1899 1.394 . S
C1898 H1906 0.930 . S
C1899 C1898 1.394 . S
C1899 C1900 1.383 . S
C1899 H1907 0.929 . S
C1900 C1899 1.383 . S
C1900 C1901 1.377 . S
C1901 H1885 0.930 . S
C1901 C1900 1.377 . S
C1901 C1902 1.379 . S
C1902 H1886 0.931 . S
C1902 C1896 1.383 . S
C1902 C1901 1.379 . S
H1903 C1897 0.959 1_545 S
H1904 C1897 0.961 . S
H1905 C1897 0.960 . S
H1906 C1898 0.930 . S
H1907 C1899 0.929 . S
H1908 C1916 0.929 . S
H1909 C1918 0.930 . S
H1910 C1920 0.930 . S
H1911 C1923 0.929 . S
H1912 C1926 0.930 . S
H1913 C1928 0.960 . S
H1914 C1928 0.960 . S
H1915 C1928 0.960 . S
C1916 H1908 0.929 . S
C1916 C1917 1.377 . S
C1916 C1918 1.384 . S
C1917 C1916 1.377 . S
C1917 C1923 1.390 . S
C1918 H1909 0.930 . S
C1918 C1916 1.384 . S
C1918 C1919 1.372 . S
C1919 C1918 1.372 . S
C1919 C1920 1.400 . S
C1919 C1924 1.490 . S
C1920 H1910 0.930 . S
C1920 C1919 1.400 . S
C1920 C1923 1.386 . S
H1921 C1937 0.930 . S
H1922 C1938 0.931 . S
C1923 H1911 0.929 . S
C1923 C1917 1.390 . S
C1923 C1920 1.386 . S
C1924 C1919 1.490 . S
C1924 C1926 1.395 . S
C1924 C1927 1.403 . S
H1925 C1931 0.930 1_455 S
C1926 H1912 0.930 . S
C1926 C1924 1.395 . S
C1926 C1929 1.403 . S
C1927 C1924 1.403 . S
C1927 C1928 1.524 . S
C1927 C1931 1.400 . S
C1928 H1913 0.960 . S
C1928 H1914 0.960 . S
C1928 H1915 0.960 . S
C1928 C1927 1.524 . S
C1929 C1926 1.403 . S
C1929 C1930 1.392 1_655 S
C1929 C1933 1.495 1_655 S
C1930 C1929 1.392 1_455 S
C1930 C1931 1.385 1_455 S
C1930 C1932 1.478 . S
C1931 H1925 0.930 1_655 S
C1931 C1927 1.400 . S
C1931 C1930 1.385 1_655 S
C1932 C1930 1.478 . S
C1932 C1934 1.381 . S
C1932 C1938 1.383 . S
C1933 C1929 1.495 1_455 S
C1933 H1939 0.923 1_455 S
C1933 H1940 0.961 . S
C1933 H1941 0.960 . S
C1934 C1932 1.381 . S
C1934 C1935 1.394 . S
C1934 H1942 0.930 . S
C1935 C1934 1.394 . S
C1935 C1936 1.383 . S
C1935 H1943 0.929 . S
C1936 C1935 1.383 . S
C1936 C1937 1.377 . S
C1937 H1921 0.930 . S
C1937 C1936 1.377 . S
C1937 C1938 1.379 . S
C1938 H1922 0.931 . S
C1938 C1932 1.383 . S
C1938 C1937 1.379 . S
H1939 C1933 0.923 1_655 S
H1940 C1933 0.961 . S
H1941 C1933 0.960 . S
H1942 C1934 0.930 . S
H1943 C1935 0.929 . S
H1944 C1952 0.929 . S
H1945 C1954 0.930 . S
H1946 C1956 0.930 . S
H1947 C1959 0.929 . S
H1948 C1962 0.930 1_545 S
H1949 C1964 0.960 1_565 S
H1950 C1964 0.960 . S
H1951 C1964 0.960 . S
C1952 H1944 0.929 . S
C1952 C1953 1.377 . S
C1952 C1954 1.384 . S
C1953 C1952 1.377 . S
C1953 C1959 1.390 . S
C1954 H1945 0.930 . S
C1954 C1952 1.384 . S
C1954 C1955 1.372 . S
C1955 C1954 1.372 . S
C1955 C1956 1.400 . S
C1955 C1960 1.490 . S
C1956 H1946 0.930 . S
C1956 C1955 1.400 . S
C1956 C1959 1.386 . S
H1957 C1973 0.930 . S
H1958 C1974 0.931 . S
C1959 H1947 0.929 . S
C1959 C1953 1.390 . S
C1959 C1956 1.386 . S
C1960 C1955 1.490 . S
C1960 C1962 1.395 1_545 S
C1960 C1963 1.403 1_545 S
H1961 C1967 0.930 . S
C1962 H1948 0.930 1_565 S
C1962 C1960 1.395 1_565 S
C1962 C1965 1.403 . S
C1963 C1960 1.403 1_565 S
C1963 C1964 1.524 1_565 S
C1963 C1967 1.400 . S
C1964 H1949 0.960 1_545 S
C1964 H1950 0.960 . S
C1964 H1951 0.960 . S
C1964 C1963 1.524 1_545 S
C1965 C1962 1.403 . S
C1965 C1966 1.392 . S
C1965 C1969 1.495 . S
C1966 C1965 1.392 . S
C1966 C1967 1.385 . S
C1966 C1968 1.478 . S
C1967 H1961 0.930 . S
C1967 C1963 1.400 . S
C1967 C1966 1.385 . S
C1968 C1966 1.478 . S
C1968 C1970 1.381 . S
C1968 C1974 1.383 . S
C1969 C1965 1.495 . S
C1969 H1975 0.959 . S
C1969 H1976 0.961 . S
C1969 H1977 0.960 . S
C1970 C1968 1.381 . S
C1970 C1971 1.394 . S
C1970 H1978 0.930 . S
C1971 C1970 1.394 . S
C1971 C1972 1.383 . S
C1971 H1979 0.929 . S
C1972 C1971 1.383 . S
C1972 C1973 1.377 . S
C1973 H1957 0.930 . S
C1973 C1972 1.377 . S
C1973 C1974 1.379 . S
C1974 H1958 0.931 . S
C1974 C1968 1.383 . S
C1974 C1973 1.379 . S
H1975 C1969 0.959 . S
H1976 C1969 0.961 . S
H1977 C1969 0.960 . S
H1978 C1970 0.930 . S
H1979 C1971 0.929 . S
H1980 C1988 0.929 . S
H1981 C1990 0.930 . S
H1982 C1992 0.930 . S
H1983 C1995 0.929 . S
H1984 C1998 0.930 1_455 S
H1985 C2000 0.934 1_655 S
H1986 C2000 0.975 . S
H1987 C2000 0.984 . S
C1988 H1980 0.929 . S
C1988 C1989 1.377 . S
C1988 C1990 1.384 . S
C1989 C1988 1.377 . S
C1989 C1995 1.390 . S
C1990 H1981 0.930 . S
C1990 C1988 1.384 . S
C1990 C1991 1.372 . S
C1991 C1990 1.372 . S
C1991 C1992 1.400 . S
C1991 C1996 1.490 . S
C1992 H1982 0.930 . S
C1992 C1991 1.400 . S
C1992 C1995 1.386 . S
H1993 C2009 0.930 . S
H1994 C2010 0.931 . S
C1995 H1983 0.929 . S
C1995 C1989 1.390 . S
C1995 C1992 1.386 . S
C1996 C1991 1.490 . S
C1996 C1998 1.395 1_455 S
C1996 C1999 1.403 1_455 S
H1997 C2003 0.930 . S
C1998 H1984 0.930 1_655 S
C1998 C1996 1.395 1_655 S
C1998 C2001 1.403 . S
C1999 C1996 1.403 1_655 S
C1999 C2000 1.512 1_655 S
C1999 C2003 1.400 . S
C2000 H1985 0.934 1_455 S
C2000 H1986 0.975 . S
C2000 H1987 0.984 . S
C2000 C1999 1.512 1_455 S
C2001 C1998 1.403 . S
C2001 C2002 1.392 . S
C2001 C2005 1.495 . S
C2002 C2001 1.392 . S
C2002 C2003 1.385 . S
C2002 C2004 1.478 . S
C2003 H1997 0.930 . S
C2003 C1999 1.400 . S
C2003 C2002 1.385 . S
C2004 C2002 1.478 . S
C2004 C2006 1.381 . S
C2004 C2010 1.383 . S
C2005 C2001 1.495 . S
C2005 H2011 0.959 . S
C2005 H2012 0.961 . S
C2005 H2013 0.960 . S
C2006 C2004 1.381 . S
C2006 C2007 1.394 . S
C2006 H2014 0.930 . S
C2007 C2006 1.394 . S
C2007 C2008 1.383 . S
C2007 H2015 0.929 . S
C2008 C2007 1.383 . S
C2008 C2009 1.377 . S
C2009 H1993 0.930 . S
C2009 C2008 1.377 . S
C2009 C2010 1.379 . S
C2010 H1994 0.931 . S
C2010 C2004 1.383 . S
C2010 C2009 1.379 . S
H2011 C2005 0.959 . S
H2012 C2005 0.961 . S
H2013 C2005 0.960 . S
H2014 C2006 0.930 . S
H2015 C2007 0.929 . S
H2016 C2024 0.929 . S
H2017 C2026 0.930 . S
H2018 C2028 0.930 . S
H2019 C2031 0.929 . S
H2020 C2034 0.930 1_545 S
H2021 C2036 0.942 1_565 S
H2022 C2036 0.973 . S
H2023 C2036 0.972 . S
C2024 H2016 0.929 . S
C2024 C2025 1.377 . S
C2024 C2026 1.384 . S
C2025 C2024 1.377 . S
C2025 C2031 1.390 . S
C2026 H2017 0.930 . S
C2026 C2024 1.384 . S
C2026 C2027 1.372 . S
C2027 C2026 1.372 . S
C2027 C2028 1.400 . S
C2027 C2032 1.490 . S
C2028 H2018 0.930 . S
C2028 C2027 1.400 . S
C2028 C2031 1.386 . S
H2029 C2045 0.930 . S
H2030 C2046 0.931 . S
C2031 H2019 0.929 . S
C2031 C2025 1.390 . S
C2031 C2028 1.386 . S
C2032 C2027 1.490 . S
C2032 C2034 1.395 1_545 S
C2032 C2035 1.403 1_545 S
H2033 C2039 0.930 . S
C2034 H2020 0.930 1_565 S
C2034 C2032 1.395 1_565 S
C2034 C2037 1.403 . S
C2035 C2032 1.403 1_565 S
C2035 C2036 1.516 1_565 S
C2035 C2039 1.400 . S
C2036 H2021 0.942 1_545 S
C2036 H2022 0.973 . S
C2036 H2023 0.972 . S
C2036 C2035 1.516 1_545 S
C2037 C2034 1.403 . S
C2037 C2038 1.392 . S
C2037 C2041 1.495 . S
C2038 C2037 1.392 . S
C2038 C2039 1.385 . S
C2038 C2040 1.478 . S
C2039 H2033 0.930 . S
C2039 C2035 1.400 . S
C2039 C2038 1.385 . S
C2040 C2038 1.478 . S
C2040 C2042 1.381 . S
C2040 C2046 1.383 . S
C2041 C2037 1.495 . S
C2041 H2047 0.959 . S
C2041 H2048 0.961 . S
C2041 H2049 0.960 . S
C2042 C2040 1.381 . S
C2042 C2043 1.394 . S
C2042 H2050 0.930 . S
C2043 C2042 1.394 . S
C2043 C2044 1.383 . S
C2043 H2051 0.929 . S
C2044 C2043 1.383 . S
C2044 C2045 1.377 . S
C2045 H2029 0.930 . S
C2045 C2044 1.377 . S
C2045 C2046 1.379 . S
C2046 H2030 0.931 . S
C2046 C2040 1.383 . S
C2046 C2045 1.379 . S
H2047 C2041 0.959 . S
H2048 C2041 0.961 . S
H2049 C2041 0.960 . S
H2050 C2042 0.930 . S
H2051 C2043 0.929 . S
H2052 C2060 0.929 . S
H2053 C2062 0.930 . S
H2054 C2064 0.930 . S
H2055 C2067 0.929 . S
H2056 C2070 0.930 . S
H2057 C2072 0.960 . S
H2058 C2072 0.960 . S
H2059 C2072 0.960 . S
C2060 H2052 0.929 . S
C2060 C2061 1.377 . S
C2060 C2062 1.384 . S
C2061 C2060 1.377 . S
C2061 C2067 1.390 . S
C2062 H2053 0.930 . S
C2062 C2060 1.384 . S
C2062 C2063 1.372 . S
C2063 C2062 1.372 . S
C2063 C2064 1.400 . S
C2063 C2068 1.490 . S
C2064 H2054 0.930 . S
C2064 C2063 1.400 . S
C2064 C2067 1.386 . S
H2065 C2081 0.930 . S
H2066 C2082 0.931 . S
C2067 H2055 0.929 . S
C2067 C2061 1.390 . S
C2067 C2064 1.386 . S
C2068 C2063 1.490 . S
C2068 C2070 1.395 . S
C2068 C2071 1.403 . S
H2069 C2075 0.930 1_565 S
C2070 H2056 0.930 . S
C2070 C2068 1.395 . S
C2070 C2073 1.403 . S
C2071 C2068 1.403 . S
C2071 C2072 1.524 . S
C2071 C2075 1.400 . S
C2072 H2057 0.960 . S
C2072 H2058 0.960 . S
C2072 H2059 0.960 . S
C2072 C2071 1.524 . S
C2073 C2070 1.403 . S
C2073 C2074 1.392 1_545 S
C2073 C2077 1.495 1_545 S
C2074 C2073 1.392 1_565 S
C2074 C2075 1.385 1_565 S
C2074 C2076 1.478 . S
C2075 H2069 0.930 1_545 S
C2075 C2071 1.400 . S
C2075 C2074 1.385 1_545 S
C2076 C2074 1.478 . S
C2076 C2078 1.381 . S
C2076 C2082 1.383 . S
C2077 C2073 1.495 1_565 S
C2077 H2083 0.959 1_565 S
C2077 H2084 0.961 . S
C2077 H2085 0.960 . S
C2078 C2076 1.381 . S
C2078 C2079 1.394 . S
C2078 H2086 0.930 . S
C2079 C2078 1.394 . S
C2079 C2080 1.383 . S
C2079 H2087 0.929 . S
C2080 C2079 1.383 . S
C2080 C2081 1.377 . S
C2081 H2065 0.930 . S
C2081 C2080 1.377 . S
C2081 C2082 1.379 . S
C2082 H2066 0.931 . S
C2082 C2076 1.383 . S
C2082 C2081 1.379 . S
H2083 C2077 0.959 1_545 S
H2084 C2077 0.961 . S
H2085 C2077 0.960 . S
H2086 C2078 0.930 . S
H2087 C2079 0.929 . S
H2088 C2096 0.929 . S
H2089 C2098 0.930 . S
H2090 C2100 0.930 . S
H2091 C2103 0.929 . S
H2092 C2106 0.930 . S
H2093 C2108 0.960 . S
H2094 C2108 0.960 . S
H2095 C2108 0.960 . S
C2096 H2088 0.929 . S
C2096 C2097 1.377 . S
C2096 C2098 1.384 . S
C2097 C2096 1.377 . S
C2097 C2103 1.390 . S
C2098 H2089 0.930 . S
C2098 C2096 1.384 . S
C2098 C2099 1.372 . S
C2099 C2098 1.372 . S
C2099 C2100 1.400 . S
C2099 C2104 1.490 . S
C2100 H2090 0.930 . S
C2100 C2099 1.400 . S
C2100 C2103 1.386 . S
H2101 C2117 0.930 . S
H2102 C2118 0.931 . S
C2103 H2091 0.929 . S
C2103 C2097 1.390 . S
C2103 C2100 1.386 . S
C2104 C2099 1.490 . S
C2104 C2106 1.395 . S
C2104 C2107 1.403 . S
H2105 C2111 0.930 . S
C2106 H2092 0.930 . S
C2106 C2104 1.395 . S
C2106 C2109 1.403 . S
C2107 C2104 1.403 . S
C2107 C2108 1.524 . S
C2107 C2111 1.400 . S
C2108 H2093 0.960 . S
C2108 H2094 0.960 . S
C2108 H2095 0.960 . S
C2108 C2107 1.524 . S
C2109 C2106 1.403 . S
C2109 C2110 1.392 . S
C2109 C2113 1.495 . S
C2110 C2109 1.392 . S
C2110 C2111 1.385 . S
C2110 C2112 1.478 . S
C2111 H2105 0.930 . S
C2111 C2107 1.400 . S
C2111 C2110 1.385 . S
C2112 C2110 1.478 . S
C2112 C2114 1.381 . S
C2112 C2118 1.383 . S
C2113 C2109 1.495 . S
C2113 H2119 0.959 . S
C2113 H2120 0.961 . S
C2113 H2121 0.960 . S
C2114 C2112 1.381 . S
C2114 C2115 1.394 . S
C2114 H2122 0.930 . S
C2115 C2114 1.394 . S
C2115 C2116 1.383 . S
C2115 H2123 0.929 . S
C2116 C2115 1.383 . S
C2116 C2117 1.377 . S
C2117 H2101 0.930 . S
C2117 C2116 1.377 . S
C2117 C2118 1.379 . S
C2118 H2102 0.931 . S
C2118 C2112 1.383 . S
C2118 C2117 1.379 . S
H2119 C2113 0.959 . S
H2120 C2113 0.961 . S
H2121 C2113 0.960 . S
H2122 C2114 0.930 . S
H2123 C2115 0.929 . S
H2124 C2132 0.929 . S
H2125 C2134 0.930 . S
H2126 C2136 0.930 . S
H2127 C2139 0.929 . S
H2128 C2142 0.930 . S
H2129 C2144 0.960 . S
H2130 C2144 0.960 . S
H2131 C2144 0.960 . S
C2132 H2124 0.929 . S
C2132 C2133 1.377 . S
C2132 C2134 1.384 . S
C2133 C2132 1.377 . S
C2133 C2139 1.390 . S
C2134 H2125 0.930 . S
C2134 C2132 1.384 . S
C2134 C2135 1.372 . S
C2135 C2134 1.372 . S
C2135 C2136 1.400 . S
C2135 C2140 1.490 . S
C2136 H2126 0.930 . S
C2136 C2135 1.400 . S
C2136 C2139 1.386 . S
H2137 C2153 0.930 . S
H2138 C2154 0.931 . S
C2139 H2127 0.929 . S
C2139 C2133 1.390 . S
C2139 C2136 1.386 . S
C2140 C2135 1.490 . S
C2140 C2142 1.395 . S
C2140 C2143 1.403 . S
H2141 C2147 0.930 . S
C2142 H2128 0.930 . S
C2142 C2140 1.395 . S
C2142 C2145 1.403 . S
C2143 C2140 1.403 . S
C2143 C2144 1.524 . S
C2143 C2147 1.400 . S
C2144 H2129 0.960 . S
C2144 H2130 0.960 . S
C2144 H2131 0.960 . S
C2144 C2143 1.524 . S
C2145 C2142 1.403 . S
C2145 C2146 1.392 . S
C2145 C2149 1.495 . S
C2146 C2145 1.392 . S
C2146 C2147 1.385 . S
C2146 C2148 1.478 . S
C2147 H2141 0.930 . S
C2147 C2143 1.400 . S
C2147 C2146 1.385 . S
C2148 C2146 1.478 . S
C2148 C2150 1.381 . S
C2148 C2154 1.383 . S
C2149 C2145 1.495 . S
C2149 H2155 0.959 . S
C2149 H2156 0.961 . S
C2149 H2157 0.960 . S
C2150 C2148 1.381 . S
C2150 C2151 1.394 . S
C2150 H2158 0.930 . S
C2151 C2150 1.394 . S
C2151 C2152 1.383 . S
C2151 H2159 0.929 . S
C2152 C2151 1.383 . S
C2152 C2153 1.377 . S
C2153 H2137 0.930 . S
C2153 C2152 1.377 . S
C2153 C2154 1.379 . S
C2154 H2138 0.931 . S
C2154 C2148 1.383 . S
C2154 C2153 1.379 . S
H2155 C2149 0.959 . S
H2156 C2149 0.961 . S
H2157 C2149 0.960 . S
H2158 C2150 0.930 . S
H2159 C2151 0.929 . S
H2160 C2168 0.929 . S
H2161 C2170 0.930 . S
H2162 C2172 0.930 . S
H2163 C2175 0.929 . S
H2164 C2178 0.930 . S
H2165 C2180 0.960 . S
H2166 C2180 0.960 . S
H2167 C2180 0.960 . S
C2168 H2160 0.929 . S
C2168 C2169 1.377 . S
C2168 C2170 1.384 . S
C2169 C2168 1.377 . S
C2169 C2175 1.390 . S
C2170 H2161 0.930 . S
C2170 C2168 1.384 . S
C2170 C2171 1.372 . S
C2171 C2170 1.372 . S
C2171 C2172 1.400 . S
C2171 C2176 1.490 . S
C2172 H2162 0.930 . S
C2172 C2171 1.400 . S
C2172 C2175 1.386 . S
H2173 C2189 0.930 . S
H2174 C2190 0.931 . S
C2175 H2163 0.929 . S
C2175 C2169 1.390 . S
C2175 C2172 1.386 . S
C2176 C2171 1.490 . S
C2176 C2178 1.395 . S
C2176 C2179 1.403 . S
H2177 C2183 0.930 . S
C2178 H2164 0.930 . S
C2178 C2176 1.395 . S
C2178 C2181 1.403 . S
C2179 C2176 1.403 . S
C2179 C2180 1.524 . S
C2179 C2183 1.400 . S
C2180 H2165 0.960 . S
C2180 H2166 0.960 . S
C2180 H2167 0.960 . S
C2180 C2179 1.524 . S
C2181 C2178 1.403 . S
C2181 C2182 1.392 . S
C2181 C2185 1.495 . S
C2182 C2181 1.392 . S
C2182 C2183 1.385 . S
C2182 C2184 1.478 . S
C2183 H2177 0.930 . S
C2183 C2179 1.400 . S
C2183 C2182 1.385 . S
C2184 C2182 1.478 . S
C2184 C2186 1.381 . S
C2184 C2190 1.383 . S
C2185 C2181 1.495 . S
C2185 H2191 0.959 . S
C2185 H2192 0.961 . S
C2185 H2193 0.960 . S
C2186 C2184 1.381 . S
C2186 C2187 1.394 . S
C2186 H2194 0.930 . S
C2187 C2186 1.394 . S
C2187 C2188 1.383 . S
C2187 H2195 0.929 . S
C2188 C2187 1.383 . S
C2188 C2189 1.377 . S
C2189 H2173 0.930 . S
C2189 C2188 1.377 . S
C2189 C2190 1.379 . S
C2190 H2174 0.931 . S
C2190 C2184 1.383 . S
C2190 C2189 1.379 . S
H2191 C2185 0.959 . S
H2192 C2185 0.961 . S
H2193 C2185 0.960 . S
H2194 C2186 0.930 . S
H2195 C2187 0.929 . S
H2196 C2204 0.929 . S
H2197 C2206 0.930 . S
H2198 C2208 0.930 . S
H2199 C2211 0.929 . S
H2200 C2214 0.930 . S
H2201 C2216 0.960 . S
H2202 C2216 0.960 . S
H2203 C2216 0.960 . S
C2204 H2196 0.929 . S
C2204 C2205 1.377 . S
C2204 C2206 1.384 . S
C2205 C2204 1.377 . S
C2205 C2211 1.390 . S
C2206 H2197 0.930 . S
C2206 C2204 1.384 . S
C2206 C2207 1.372 . S
C2207 C2206 1.372 . S
C2207 C2208 1.400 . S
C2207 C2212 1.490 . S
C2208 H2198 0.930 . S
C2208 C2207 1.400 . S
C2208 C2211 1.386 . S
H2209 C2225 0.930 . S
H2210 C2226 0.931 . S
C2211 H2199 0.929 . S
C2211 C2205 1.390 . S
C2211 C2208 1.386 . S
C2212 C2207 1.490 . S
C2212 C2214 1.395 . S
C2212 C2215 1.403 . S
H2213 C2219 0.930 . S
C2214 H2200 0.930 . S
C2214 C2212 1.395 . S
C2214 C2217 1.403 . S
C2215 C2212 1.403 . S
C2215 C2216 1.524 . S
C2215 C2219 1.400 . S
C2216 H2201 0.960 . S
C2216 H2202 0.960 . S
C2216 H2203 0.960 . S
C2216 C2215 1.524 . S
C2217 C2214 1.403 . S
C2217 C2218 1.392 . S
C2217 C2221 1.495 . S
C2218 C2217 1.392 . S
C2218 C2219 1.385 . S
C2218 C2220 1.478 . S
C2219 H2213 0.930 . S
C2219 C2215 1.400 . S
C2219 C2218 1.385 . S
C2220 C2218 1.478 . S
C2220 C2222 1.381 . S
C2220 C2226 1.383 . S
C2221 C2217 1.495 . S
C2221 H2227 0.959 . S
C2221 H2228 0.961 . S
C2221 H2229 0.960 . S
C2222 C2220 1.381 . S
C2222 C2223 1.394 . S
C2222 H2230 0.930 . S
C2223 C2222 1.394 . S
C2223 C2224 1.383 . S
C2223 H2231 0.929 . S
C2224 C2223 1.383 . S
C2224 C2225 1.377 . S
C2225 H2209 0.930 . S
C2225 C2224 1.377 . S
C2225 C2226 1.379 . S
C2226 H2210 0.931 . S
C2226 C2220 1.383 . S
C2226 C2225 1.379 . S
H2227 C2221 0.959 . S
H2228 C2221 0.961 . S
H2229 C2221 0.960 . S
H2230 C2222 0.930 . S
H2231 C2223 0.929 . S
H2232 C2240 0.929 . S
H2233 C2242 0.930 . S
H2234 C2244 0.930 . S
H2235 C2247 0.929 . S
H2236 C2250 0.930 . S
H2237 C2252 0.960 . S
H2238 C2252 0.960 . S
H2239 C2252 0.960 . S
C2240 H2232 0.929 . S
C2240 C2241 1.377 . S
C2240 C2242 1.384 . S
C2241 C2240 1.377 . S
C2241 C2247 1.390 . S
C2242 H2233 0.930 . S
C2242 C2240 1.384 . S
C2242 C2243 1.372 . S
C2243 C2242 1.372 . S
C2243 C2244 1.400 . S
C2243 C2248 1.490 . S
C2244 H2234 0.930 . S
C2244 C2243 1.400 . S
C2244 C2247 1.386 . S
H2245 C2261 0.930 . S
H2246 C2262 0.931 . S
C2247 H2235 0.929 . S
C2247 C2241 1.390 . S
C2247 C2244 1.386 . S
C2248 C2243 1.490 . S
C2248 C2250 1.395 . S
C2248 C2251 1.403 . S
H2249 C2255 0.930 . S
C2250 H2236 0.930 . S
C2250 C2248 1.395 . S
C2250 C2253 1.403 . S
C2251 C2248 1.403 . S
C2251 C2252 1.524 . S
C2251 C2255 1.400 . S
C2252 H2237 0.960 . S
C2252 H2238 0.960 . S
C2252 H2239 0.960 . S
C2252 C2251 1.524 . S
C2253 C2250 1.403 . S
C2253 C2254 1.392 . S
C2253 C2257 1.495 . S
C2254 C2253 1.392 . S
C2254 C2255 1.385 . S
C2254 C2256 1.478 . S
C2255 H2249 0.930 . S
C2255 C2251 1.400 . S
C2255 C2254 1.385 . S
C2256 C2254 1.478 . S
C2256 C2258 1.381 . S
C2256 C2262 1.383 . S
C2257 C2253 1.495 . S
C2257 H2263 0.959 . S
C2257 H2264 0.961 . S
C2257 H2265 0.960 . S
C2258 C2256 1.381 . S
C2258 C2259 1.394 . S
C2258 H2266 0.930 . S
C2259 C2258 1.394 . S
C2259 C2260 1.383 . S
C2259 H2267 0.929 . S
C2260 C2259 1.383 . S
C2260 C2261 1.377 . S
C2261 H2245 0.930 . S
C2261 C2260 1.377 . S
C2261 C2262 1.379 . S
C2262 H2246 0.931 . S
C2262 C2256 1.383 . S
C2262 C2261 1.379 . S
H2263 C2257 0.959 . S
H2264 C2257 0.961 . S
H2265 C2257 0.960 . S
H2266 C2258 0.930 . S
H2267 C2259 0.929 . S
H2268 C2276 0.929 . S
H2269 C2278 0.930 . S
H2270 C2280 0.930 . S
H2271 C2283 0.929 . S
H2272 C2286 0.930 . S
H2273 C2288 0.960 . S
H2274 C2288 0.960 . S
H2275 C2288 0.960 . S
C2276 H2268 0.929 . S
C2276 C2277 1.377 . S
C2276 C2278 1.384 . S
C2277 C2276 1.377 . S
C2277 C2283 1.390 . S
C2278 H2269 0.930 . S
C2278 C2276 1.384 . S
C2278 C2279 1.372 . S
C2279 C2278 1.372 . S
C2279 C2280 1.400 . S
C2279 C2284 1.490 . S
C2280 H2270 0.930 . S
C2280 C2279 1.400 . S
C2280 C2283 1.386 . S
H2281 C2297 0.930 . S
H2282 C2298 0.931 . S
C2283 H2271 0.929 . S
C2283 C2277 1.390 . S
C2283 C2280 1.386 . S
C2284 C2279 1.490 . S
C2284 C2286 1.395 . S
C2284 C2287 1.403 . S
H2285 C2291 0.930 . S
C2286 H2272 0.930 . S
C2286 C2284 1.395 . S
C2286 C2289 1.403 . S
C2287 C2284 1.403 . S
C2287 C2288 1.524 . S
C2287 C2291 1.400 . S
C2288 H2273 0.960 . S
C2288 H2274 0.960 . S
C2288 H2275 0.960 . S
C2288 C2287 1.524 . S
C2289 C2286 1.403 . S
C2289 C2290 1.392 . S
C2289 C2293 1.495 . S
C2290 C2289 1.392 . S
C2290 C2291 1.385 . S
C2290 C2292 1.478 . S
C2291 H2285 0.930 . S
C2291 C2287 1.400 . S
C2291 C2290 1.385 . S
C2292 C2290 1.478 . S
C2292 C2294 1.381 . S
C2292 C2298 1.383 . S
C2293 C2289 1.495 . S
C2293 H2299 0.959 . S
C2293 H2300 0.961 . S
C2293 H2301 0.960 . S
C2294 C2292 1.381 . S
C2294 C2295 1.394 . S
C2294 H2302 0.930 . S
C2295 C2294 1.394 . S
C2295 C2296 1.383 . S
C2295 H2303 0.929 . S
C2296 C2295 1.383 . S
C2296 C2297 1.377 . S
C2297 H2281 0.930 . S
C2297 C2296 1.377 . S
C2297 C2298 1.379 . S
C2298 H2282 0.931 . S
C2298 C2292 1.383 . S
C2298 C2297 1.379 . S
H2299 C2293 0.959 . S
H2300 C2293 0.961 . S
H2301 C2293 0.960 . S
H2302 C2294 0.930 . S
H2303 C2295 0.929 . S
H2304 C2312 0.929 . S
H2305 C2314 0.930 . S
H2306 C2316 0.930 . S
H2307 C2319 0.929 . S
H2308 C2322 0.930 . S
H2309 C2324 0.960 . S
H2310 C2324 0.960 . S
H2311 C2324 0.960 . S
C2312 H2304 0.929 . S
C2312 C2313 1.377 . S
C2312 C2314 1.384 . S
C2313 C2312 1.377 . S
C2313 C2319 1.390 . S
C2314 H2305 0.930 . S
C2314 C2312 1.384 . S
C2314 C2315 1.372 . S
C2315 C2314 1.372 . S
C2315 C2316 1.400 . S
C2315 C2320 1.490 . S
C2316 H2306 0.930 . S
C2316 C2315 1.400 . S
C2316 C2319 1.386 . S
H2317 C2333 0.930 . S
H2318 C2334 0.931 . S
C2319 H2307 0.929 . S
C2319 C2313 1.390 . S
C2319 C2316 1.386 . S
C2320 C2315 1.490 . S
C2320 C2322 1.395 . S
C2320 C2323 1.403 . S
H2321 C2327 0.930 . S
C2322 H2308 0.930 . S
C2322 C2320 1.395 . S
C2322 C2325 1.403 . S
C2323 C2320 1.403 . S
C2323 C2324 1.524 . S
C2323 C2327 1.400 . S
C2324 H2309 0.960 . S
C2324 H2310 0.960 . S
C2324 H2311 0.960 . S
C2324 C2323 1.524 . S
C2325 C2322 1.403 . S
C2325 C2326 1.392 . S
C2325 C2329 1.495 . S
C2326 C2325 1.392 . S
C2326 C2327 1.385 . S
C2326 C2328 1.478 . S
C2327 H2321 0.930 . S
C2327 C2323 1.400 . S
C2327 C2326 1.385 . S
C2328 C2326 1.478 . S
C2328 C2330 1.381 . S
C2328 C2334 1.383 . S
C2329 C2325 1.495 . S
C2329 H2335 0.959 . S
C2329 H2336 0.961 . S
C2329 H2337 0.960 . S
C2330 C2328 1.381 . S
C2330 C2331 1.394 . S
C2330 H2338 0.930 . S
C2331 C2330 1.394 . S
C2331 C2332 1.383 . S
C2331 H2339 0.929 . S
C2332 C2331 1.383 . S
C2332 C2333 1.377 . S
C2333 H2317 0.930 . S
C2333 C2332 1.377 . S
C2333 C2334 1.379 . S
C2334 H2318 0.931 . S
C2334 C2328 1.383 . S
C2334 C2333 1.379 . S
H2335 C2329 0.959 . S
H2336 C2329 0.961 . S
H2337 C2329 0.960 . S
H2338 C2330 0.930 . S
H2339 C2331 0.929 . S
H2340 C2348 0.929 . S
H2341 C2350 0.930 . S
H2342 C2352 0.930 . S
H2343 C2355 0.929 . S
H2344 C2358 0.930 . S
H2345 C2360 0.960 . S
H2346 C2360 0.960 . S
H2347 C2360 0.960 . S
C2348 H2340 0.929 . S
C2348 C2349 1.377 . S
C2348 C2350 1.384 . S
C2349 C2348 1.377 . S
C2349 C2355 1.390 . S
C2350 H2341 0.930 . S
C2350 C2348 1.384 . S
C2350 C2351 1.372 . S
C2351 C2350 1.372 . S
C2351 C2352 1.400 . S
C2351 C2356 1.490 . S
C2352 H2342 0.930 . S
C2352 C2351 1.400 . S
C2352 C2355 1.386 . S
H2353 C2369 0.930 . S
H2354 C2370 0.931 . S
C2355 H2343 0.929 . S
C2355 C2349 1.390 . S
C2355 C2352 1.386 . S
C2356 C2351 1.490 . S
C2356 C2358 1.395 . S
C2356 C2359 1.403 . S
H2357 C2363 0.930 . S
C2358 H2344 0.930 . S
C2358 C2356 1.395 . S
C2358 C2361 1.403 . S
C2359 C2356 1.403 . S
C2359 C2360 1.524 . S
C2359 C2363 1.400 . S
C2360 H2345 0.960 . S
C2360 H2346 0.960 . S
C2360 H2347 0.960 . S
C2360 C2359 1.524 . S
C2361 C2358 1.403 . S
C2361 C2362 1.392 . S
C2361 C2365 1.495 . S
C2362 C2361 1.392 . S
C2362 C2363 1.385 . S
C2362 C2364 1.478 . S
C2363 H2357 0.930 . S
C2363 C2359 1.400 . S
C2363 C2362 1.385 . S
C2364 C2362 1.478 . S
C2364 C2366 1.381 . S
C2364 C2370 1.383 . S
C2365 C2361 1.495 . S
C2365 H2371 0.959 . S
C2365 H2372 0.961 . S
C2365 H2373 0.960 . S
C2366 C2364 1.381 . S
C2366 C2367 1.394 . S
C2366 H2374 0.930 . S
C2367 C2366 1.394 . S
C2367 C2368 1.383 . S
C2367 H2375 0.929 . S
C2368 C2367 1.383 . S
C2368 C2369 1.377 . S
C2369 H2353 0.930 . S
C2369 C2368 1.377 . S
C2369 C2370 1.379 . S
C2370 H2354 0.931 . S
C2370 C2364 1.383 . S
C2370 C2369 1.379 . S
H2371 C2365 0.959 . S
H2372 C2365 0.961 . S
H2373 C2365 0.960 . S
H2374 C2366 0.930 . S
H2375 C2367 0.929 . S
H2376 C2384 0.929 . S
H2377 C2386 0.930 . S
H2378 C2388 0.930 . S
H2379 C2391 0.929 . S
H2380 C2394 0.930 . S
H2381 C2396 0.960 . S
H2382 C2396 0.960 . S
H2383 C2396 0.960 . S
C2384 H2376 0.929 . S
C2384 C2385 1.377 . S
C2384 C2386 1.384 . S
C2385 C2384 1.377 . S
C2385 C2391 1.390 . S
C2386 H2377 0.930 . S
C2386 C2384 1.384 . S
C2386 C2387 1.372 . S
C2387 C2386 1.372 . S
C2387 C2388 1.400 . S
C2387 C2392 1.490 . S
C2388 H2378 0.930 . S
C2388 C2387 1.400 . S
C2388 C2391 1.386 . S
H2389 C2405 0.930 . S
H2390 C2406 0.931 . S
C2391 H2379 0.929 . S
C2391 C2385 1.390 . S
C2391 C2388 1.386 . S
C2392 C2387 1.490 . S
C2392 C2394 1.395 . S
C2392 C2395 1.403 . S
H2393 C2399 0.930 . S
C2394 H2380 0.930 . S
C2394 C2392 1.395 . S
C2394 C2397 1.403 . S
C2395 C2392 1.403 . S
C2395 C2396 1.524 . S
C2395 C2399 1.400 . S
C2396 H2381 0.960 . S
C2396 H2382 0.960 . S
C2396 H2383 0.960 . S
C2396 C2395 1.524 . S
C2397 C2394 1.403 . S
C2397 C2398 1.392 . S
C2397 C2401 1.495 . S
C2398 C2397 1.392 . S
C2398 C2399 1.385 . S
C2398 C2400 1.478 . S
C2399 H2393 0.930 . S
C2399 C2395 1.400 . S
C2399 C2398 1.385 . S
C2400 C2398 1.478 . S
C2400 C2402 1.381 . S
C2400 C2406 1.383 . S
C2401 C2397 1.495 . S
C2401 H2407 0.959 . S
C2401 H2408 0.961 . S
C2401 H2409 0.960 . S
C2402 C2400 1.381 . S
C2402 C2403 1.394 . S
C2402 H2410 0.930 . S
C2403 C2402 1.394 . S
C2403 C2404 1.383 . S
C2403 H2411 0.929 . S
C2404 C2403 1.383 . S
C2404 C2405 1.377 . S
C2405 H2389 0.930 . S
C2405 C2404 1.377 . S
C2405 C2406 1.379 . S
C2406 H2390 0.931 . S
C2406 C2400 1.383 . S
C2406 C2405 1.379 . S
H2407 C2401 0.959 . S
H2408 C2401 0.961 . S
H2409 C2401 0.960 . S
H2410 C2402 0.930 . S
H2411 C2403 0.929 . S
H2412 C2420 0.929 . S
H2413 C2422 0.930 . S
H2414 C2424 0.930 . S
H2415 C2427 0.929 . S
H2416 C2430 0.930 . S
H2417 C2432 0.960 . S
H2418 C2432 0.960 . S
H2419 C2432 0.960 . S
C2420 H2412 0.929 . S
C2420 C2421 1.377 . S
C2420 C2422 1.384 . S
C2421 C2420 1.377 . S
C2421 C2427 1.390 . S
C2422 H2413 0.930 . S
C2422 C2420 1.384 . S
C2422 C2423 1.372 . S
C2423 C2422 1.372 . S
C2423 C2424 1.400 . S
C2423 C2428 1.490 . S
C2424 H2414 0.930 . S
C2424 C2423 1.400 . S
C2424 C2427 1.386 . S
H2425 C2441 0.930 . S
H2426 C2442 0.931 . S
C2427 H2415 0.929 . S
C2427 C2421 1.390 . S
C2427 C2424 1.386 . S
C2428 C2423 1.490 . S
C2428 C2430 1.395 . S
C2428 C2431 1.403 . S
H2429 C2435 0.930 . S
C2430 H2416 0.930 . S
C2430 C2428 1.395 . S
C2430 C2433 1.403 . S
C2431 C2428 1.403 . S
C2431 C2432 1.524 . S
C2431 C2435 1.400 . S
C2432 H2417 0.960 . S
C2432 H2418 0.960 . S
C2432 H2419 0.960 . S
C2432 C2431 1.524 . S
C2433 C2430 1.403 . S
C2433 C2434 1.392 . S
C2433 C2437 1.495 . S
C2434 C2433 1.392 . S
C2434 C2435 1.385 . S
C2434 C2436 1.478 . S
C2435 H2429 0.930 . S
C2435 C2431 1.400 . S
C2435 C2434 1.385 . S
C2436 C2434 1.478 . S
C2436 C2438 1.381 . S
C2436 C2442 1.383 . S
C2437 C2433 1.495 . S
C2437 H2443 0.959 . S
C2437 H2444 0.961 . S
C2437 H2445 0.960 . S
C2438 C2436 1.381 . S
C2438 C2439 1.394 . S
C2438 H2446 0.930 . S
C2439 C2438 1.394 . S
C2439 C2440 1.383 . S
C2439 H2447 0.929 . S
C2440 C2439 1.383 . S
C2440 C2441 1.377 . S
C2441 H2425 0.930 . S
C2441 C2440 1.377 . S
C2441 C2442 1.379 . S
C2442 H2426 0.931 . S
C2442 C2436 1.383 . S
C2442 C2441 1.379 . S
H2443 C2437 0.959 . S
H2444 C2437 0.961 . S
H2445 C2437 0.960 . S
H2446 C2438 0.930 . S
H2447 C2439 0.929 . S
H2448 C2456 0.929 . S
H2449 C2458 0.930 . S
H2450 C2460 0.930 . S
H2451 C2463 0.929 . S
H2452 C2466 0.930 . S
H2453 C2468 0.960 . S
H2454 C2468 0.960 . S
H2455 C2468 0.960 . S
C2456 H2448 0.929 . S
C2456 C2457 1.377 . S
C2456 C2458 1.384 . S
C2457 C2456 1.377 . S
C2457 C2463 1.390 . S
C2458 H2449 0.930 . S
C2458 C2456 1.384 . S
C2458 C2459 1.372 . S
C2459 C2458 1.372 . S
C2459 C2460 1.400 . S
C2459 C2464 1.490 . S
C2460 H2450 0.930 . S
C2460 C2459 1.400 . S
C2460 C2463 1.386 . S
H2461 C2477 0.930 . S
H2462 C2478 0.931 . S
C2463 H2451 0.929 . S
C2463 C2457 1.390 . S
C2463 C2460 1.386 . S
C2464 C2459 1.490 . S
C2464 C2466 1.395 . S
C2464 C2467 1.403 . S
H2465 C2471 0.930 . S
C2466 H2452 0.930 . S
C2466 C2464 1.395 . S
C2466 C2469 1.403 . S
C2467 C2464 1.403 . S
C2467 C2468 1.524 . S
C2467 C2471 1.400 . S
C2468 H2453 0.960 . S
C2468 H2454 0.960 . S
C2468 H2455 0.960 . S
C2468 C2467 1.524 . S
C2469 C2466 1.403 . S
C2469 C2470 1.392 . S
C2469 C2473 1.495 . S
C2470 C2469 1.392 . S
C2470 C2471 1.385 . S
C2470 C2472 1.478 . S
C2471 H2465 0.930 . S
C2471 C2467 1.400 . S
C2471 C2470 1.385 . S
C2472 C2470 1.478 . S
C2472 C2474 1.381 . S
C2472 C2478 1.383 . S
C2473 C2469 1.495 . S
C2473 H2479 0.959 . S
C2473 H2480 0.961 . S
C2473 H2481 0.960 . S
C2474 C2472 1.381 . S
C2474 C2475 1.394 . S
C2474 H2482 0.930 . S
C2475 C2474 1.394 . S
C2475 C2476 1.383 . S
C2475 H2483 0.929 . S
C2476 C2475 1.383 . S
C2476 C2477 1.377 . S
C2477 H2461 0.930 . S
C2477 C2476 1.377 . S
C2477 C2478 1.379 . S
C2478 H2462 0.931 . S
C2478 C2472 1.383 . S
C2478 C2477 1.379 . S
H2479 C2473 0.959 . S
H2480 C2473 0.961 . S
H2481 C2473 0.960 . S
H2482 C2474 0.930 . S
H2483 C2475 0.929 . S
H2484 C2492 0.929 . S
H2485 C2494 0.930 . S
H2486 C2496 0.930 . S
H2487 C2499 0.929 . S
H2488 C2502 0.930 . S
H2489 C2504 0.960 . S
H2490 C2504 0.960 . S
H2491 C2504 0.960 . S
C2492 H2484 0.929 . S
C2492 C2493 1.377 . S
C2492 C2494 1.384 . S
C2493 C2492 1.377 . S
C2493 C2499 1.390 . S
C2494 H2485 0.930 . S
C2494 C2492 1.384 . S
C2494 C2495 1.372 . S
C2495 C2494 1.372 . S
C2495 C2496 1.400 . S
C2495 C2500 1.490 . S
C2496 H2486 0.930 . S
C2496 C2495 1.400 . S
C2496 C2499 1.386 . S
H2497 C2513 0.930 . S
H2498 C2514 0.931 . S
C2499 H2487 0.929 . S
C2499 C2493 1.390 . S
C2499 C2496 1.386 . S
C2500 C2495 1.490 . S
C2500 C2502 1.395 . S
C2500 C2503 1.403 . S
H2501 C2507 0.930 . S
C2502 H2488 0.930 . S
C2502 C2500 1.395 . S
C2502 C2505 1.403 . S
C2503 C2500 1.403 . S
C2503 C2504 1.524 . S
C2503 C2507 1.400 . S
C2504 H2489 0.960 . S
C2504 H2490 0.960 . S
C2504 H2491 0.960 . S
C2504 C2503 1.524 . S
C2505 C2502 1.403 . S
C2505 C2506 1.392 . S
C2505 C2509 1.495 . S
C2506 C2505 1.392 . S
C2506 C2507 1.385 . S
C2506 C2508 1.478 . S
C2507 H2501 0.930 . S
C2507 C2503 1.400 . S
C2507 C2506 1.385 . S
C2508 C2506 1.478 . S
C2508 C2510 1.381 . S
C2508 C2514 1.383 . S
C2509 C2505 1.495 . S
C2509 H2515 0.959 . S
C2509 H2516 0.961 . S
C2509 H2517 0.960 . S
C2510 C2508 1.381 . S
C2510 C2511 1.394 . S
C2510 H2518 0.930 . S
C2511 C2510 1.394 . S
C2511 C2512 1.383 . S
C2511 H2519 0.929 . S
C2512 C2511 1.383 . S
C2512 C2513 1.377 . S
C2513 H2497 0.930 . S
C2513 C2512 1.377 . S
C2513 C2514 1.379 . S
C2514 H2498 0.931 . S
C2514 C2508 1.383 . S
C2514 C2513 1.379 . S
H2515 C2509 0.959 . S
H2516 C2509 0.961 . S
H2517 C2509 0.960 . S
H2518 C2510 0.930 . S
H2519 C2511 0.929 . S
H2520 C2528 0.929 . S
H2521 C2530 0.930 . S
H2522 C2532 0.930 . S
H2523 C2535 0.929 . S
H2524 C2538 0.930 . S
H2525 C2540 0.960 . S
H2526 C2540 0.960 . S
H2527 C2540 0.960 . S
C2528 H2520 0.929 . S
C2528 C2529 1.377 . S
C2528 C2530 1.384 . S
C2529 C2528 1.377 . S
C2529 C2535 1.390 . S
C2530 H2521 0.930 . S
C2530 C2528 1.384 . S
C2530 C2531 1.372 . S
C2531 C2530 1.372 . S
C2531 C2532 1.400 . S
C2531 C2536 1.490 . S
C2532 H2522 0.930 . S
C2532 C2531 1.400 . S
C2532 C2535 1.386 . S
H2533 C2549 0.930 . S
H2534 C2550 0.931 . S
C2535 H2523 0.929 . S
C2535 C2529 1.390 . S
C2535 C2532 1.386 . S
C2536 C2531 1.490 . S
C2536 C2538 1.395 . S
C2536 C2539 1.403 . S
H2537 C2543 0.930 . S
C2538 H2524 0.930 . S
C2538 C2536 1.395 . S
C2538 C2541 1.403 . S
C2539 C2536 1.403 . S
C2539 C2540 1.524 . S
C2539 C2543 1.400 . S
C2540 H2525 0.960 . S
C2540 H2526 0.960 . S
C2540 H2527 0.960 . S
C2540 C2539 1.524 . S
C2541 C2538 1.403 . S
C2541 C2542 1.392 . S
C2541 C2545 1.495 . S
C2542 C2541 1.392 . S
C2542 C2543 1.385 . S
C2542 C2544 1.478 . S
C2543 H2537 0.930 . S
C2543 C2539 1.400 . S
C2543 C2542 1.385 . S
C2544 C2542 1.478 . S
C2544 C2546 1.381 . S
C2544 C2550 1.383 . S
C2545 C2541 1.495 . S
C2545 H2551 0.959 . S
C2545 H2552 0.961 . S
C2545 H2553 0.960 . S
C2546 C2544 1.381 . S
C2546 C2547 1.394 . S
C2546 H2554 0.930 . S
C2547 C2546 1.394 . S
C2547 C2548 1.383 . S
C2547 H2555 0.929 . S
C2548 C2547 1.383 . S
C2548 C2549 1.377 . S
C2549 H2533 0.930 . S
C2549 C2548 1.377 . S
C2549 C2550 1.379 . S
C2550 H2534 0.931 . S
C2550 C2544 1.383 . S
C2550 C2549 1.379 . S
H2551 C2545 0.959 . S
H2552 C2545 0.961 . S
H2553 C2545 0.960 . S
H2554 C2546 0.930 . S
H2555 C2547 0.929 . S
H2556 C2564 0.929 . S
H2557 C2566 0.930 . S
H2558 C2568 0.930 . S
H2559 C2571 0.929 . S
H2560 C2574 0.930 . S
H2561 C2576 0.960 . S
H2562 C2576 0.960 . S
H2563 C2576 0.960 . S
C2564 H2556 0.929 . S
C2564 C2565 1.377 . S
C2564 C2566 1.384 . S
C2565 C2564 1.377 . S
C2565 C2571 1.390 . S
C2566 H2557 0.930 . S
C2566 C2564 1.384 . S
C2566 C2567 1.372 . S
C2567 C2566 1.372 . S
C2567 C2568 1.400 . S
C2567 C2572 1.490 . S
C2568 H2558 0.930 . S
C2568 C2567 1.400 . S
C2568 C2571 1.386 . S
H2569 C2585 0.930 . S
H2570 C2586 0.931 . S
C2571 H2559 0.929 . S
C2571 C2565 1.390 . S
C2571 C2568 1.386 . S
C2572 C2567 1.490 . S
C2572 C2574 1.395 . S
C2572 C2575 1.403 . S
H2573 C2579 0.930 . S
C2574 H2560 0.930 . S
C2574 C2572 1.395 . S
C2574 C2577 1.403 . S
C2575 C2572 1.403 . S
C2575 C2576 1.524 . S
C2575 C2579 1.400 . S
C2576 H2561 0.960 . S
C2576 H2562 0.960 . S
C2576 H2563 0.960 . S
C2576 C2575 1.524 . S
C2577 C2574 1.403 . S
C2577 C2578 1.392 . S
C2577 C2581 1.495 . S
C2578 C2577 1.392 . S
C2578 C2579 1.385 . S
C2578 C2580 1.478 . S
C2579 H2573 0.930 . S
C2579 C2575 1.400 . S
C2579 C2578 1.385 . S
C2580 C2578 1.478 . S
C2580 C2582 1.381 . S
C2580 C2586 1.383 . S
C2581 C2577 1.495 . S
C2581 H2587 0.959 . S
C2581 H2588 0.961 . S
C2581 H2589 0.960 . S
C2582 C2580 1.381 . S
C2582 C2583 1.394 . S
C2582 H2590 0.930 . S
C2583 C2582 1.394 . S
C2583 C2584 1.383 . S
C2583 H2591 0.929 . S
C2584 C2583 1.383 . S
C2584 C2585 1.377 . S
C2585 H2569 0.930 . S
C2585 C2584 1.377 . S
C2585 C2586 1.379 . S
C2586 H2570 0.931 . S
C2586 C2580 1.383 . S
C2586 C2585 1.379 . S
H2587 C2581 0.959 . S
H2588 C2581 0.961 . S
H2589 C2581 0.960 . S
H2590 C2582 0.930 . S
H2591 C2583 0.929 . S
H2592 C2600 0.929 . S
H2593 C2602 0.930 . S
H2594 C2604 0.930 . S
H2595 C2607 0.929 . S
H2596 C2610 0.930 . S
H2597 C2612 0.960 . S
H2598 C2612 0.960 . S
H2599 C2612 0.960 . S
C2600 H2592 0.929 . S
C2600 C2601 1.377 . S
C2600 C2602 1.384 . S
C2601 C2600 1.377 . S
C2601 C2607 1.390 . S
C2602 H2593 0.930 . S
C2602 C2600 1.384 . S
C2602 C2603 1.372 . S
C2603 C2602 1.372 . S
C2603 C2604 1.400 . S
C2603 C2608 1.490 . S
C2604 H2594 0.930 . S
C2604 C2603 1.400 . S
C2604 C2607 1.386 . S
H2605 C2621 0.930 . S
H2606 C2622 0.931 . S
C2607 H2595 0.929 . S
C2607 C2601 1.390 . S
C2607 C2604 1.386 . S
C2608 C2603 1.490 . S
C2608 C2610 1.395 . S
C2608 C2611 1.403 . S
H2609 C2615 0.930 . S
C2610 H2596 0.930 . S
C2610 C2608 1.395 . S
C2610 C2613 1.403 . S
C2611 C2608 1.403 . S
C2611 C2612 1.524 . S
C2611 C2615 1.400 . S
C2612 H2597 0.960 . S
C2612 H2598 0.960 . S
C2612 H2599 0.960 . S
C2612 C2611 1.524 . S
C2613 C2610 1.403 . S
C2613 C2614 1.392 . S
C2613 C2617 1.495 . S
C2614 C2613 1.392 . S
C2614 C2615 1.385 . S
C2614 C2616 1.478 . S
C2615 H2609 0.930 . S
C2615 C2611 1.400 . S
C2615 C2614 1.385 . S
C2616 C2614 1.478 . S
C2616 C2618 1.381 . S
C2616 C2622 1.383 . S
C2617 C2613 1.495 . S
C2617 H2623 0.959 . S
C2617 H2624 0.961 . S
C2617 H2625 0.960 . S
C2618 C2616 1.381 . S
C2618 C2619 1.394 . S
C2618 H2626 0.930 . S
C2619 C2618 1.394 . S
C2619 C2620 1.383 . S
C2619 H2627 0.929 . S
C2620 C2619 1.383 . S
C2620 C2621 1.377 . S
C2621 H2605 0.930 . S
C2621 C2620 1.377 . S
C2621 C2622 1.379 . S
C2622 H2606 0.931 . S
C2622 C2616 1.383 . S
C2622 C2621 1.379 . S
H2623 C2617 0.959 . S
H2624 C2617 0.961 . S
H2625 C2617 0.960 . S
H2626 C2618 0.930 . S
H2627 C2619 0.929 . S
H2628 C2636 0.929 . S
H2629 C2638 0.930 . S
H2630 C2640 0.930 . S
H2631 C2643 0.929 . S
H2632 C2646 0.930 . S
H2633 C2648 0.960 . S
H2634 C2648 0.960 . S
H2635 C2648 0.960 . S
C2636 H2628 0.929 . S
C2636 C2637 1.377 . S
C2636 C2638 1.384 . S
C2637 C2636 1.377 . S
C2637 C2643 1.390 . S
C2638 H2629 0.930 . S
C2638 C2636 1.384 . S
C2638 C2639 1.372 . S
C2639 C2638 1.372 . S
C2639 C2640 1.400 . S
C2639 C2644 1.490 . S
C2640 H2630 0.930 . S
C2640 C2639 1.400 . S
C2640 C2643 1.386 . S
H2641 C2657 0.930 . S
H2642 C2658 0.931 . S
C2643 H2631 0.929 . S
C2643 C2637 1.390 . S
C2643 C2640 1.386 . S
C2644 C2639 1.490 . S
C2644 C2646 1.395 . S
C2644 C2647 1.403 . S
H2645 C2651 0.930 . S
C2646 H2632 0.930 . S
C2646 C2644 1.395 . S
C2646 C2649 1.403 . S
C2647 C2644 1.403 . S
C2647 C2648 1.524 . S
C2647 C2651 1.400 . S
C2648 H2633 0.960 . S
C2648 H2634 0.960 . S
C2648 H2635 0.960 . S
C2648 C2647 1.524 . S
C2649 C2646 1.403 . S
C2649 C2650 1.392 . S
C2649 C2653 1.495 . S
C2650 C2649 1.392 . S
C2650 C2651 1.385 . S
C2650 C2652 1.478 . S
C2651 H2645 0.930 . S
C2651 C2647 1.400 . S
C2651 C2650 1.385 . S
C2652 C2650 1.478 . S
C2652 C2654 1.381 . S
C2652 C2658 1.383 . S
C2653 C2649 1.495 . S
C2653 H2659 0.959 . S
C2653 H2660 0.961 . S
C2653 H2661 0.960 . S
C2654 C2652 1.381 . S
C2654 C2655 1.394 . S
C2654 H2662 0.930 . S
C2655 C2654 1.394 . S
C2655 C2656 1.383 . S
C2655 H2663 0.929 . S
C2656 C2655 1.383 . S
C2656 C2657 1.377 . S
C2657 H2641 0.930 . S
C2657 C2656 1.377 . S
C2657 C2658 1.379 . S
C2658 H2642 0.931 . S
C2658 C2652 1.383 . S
C2658 C2657 1.379 . S
H2659 C2653 0.959 . S
H2660 C2653 0.961 . S
H2661 C2653 0.960 . S
H2662 C2654 0.930 . S
H2663 C2655 0.929 . S
H2664 C2672 0.929 . S
H2665 C2674 0.930 . S
H2666 C2676 0.930 . S
H2667 C2679 0.929 . S
H2668 C2682 0.930 . S
H2669 C2684 0.960 . S
H2670 C2684 0.960 . S
H2671 C2684 0.960 . S
C2672 H2664 0.929 . S
C2672 C2673 1.377 . S
C2672 C2674 1.384 . S
C2673 C2672 1.377 . S
C2673 C2679 1.390 . S
C2674 H2665 0.930 . S
C2674 C2672 1.384 . S
C2674 C2675 1.372 . S
C2675 C2674 1.372 . S
C2675 C2676 1.400 . S
C2675 C2680 1.490 . S
C2676 H2666 0.930 . S
C2676 C2675 1.400 . S
C2676 C2679 1.386 . S
H2677 C2693 0.930 . S
H2678 C2694 0.931 . S
C2679 H2667 0.929 . S
C2679 C2673 1.390 . S
C2679 C2676 1.386 . S
C2680 C2675 1.490 . S
C2680 C2682 1.395 . S
C2680 C2683 1.403 . S
H2681 C2687 0.930 . S
C2682 H2668 0.930 . S
C2682 C2680 1.395 . S
C2682 C2685 1.403 . S
C2683 C2680 1.403 . S
C2683 C2684 1.524 . S
C2683 C2687 1.400 . S
C2684 H2669 0.960 . S
C2684 H2670 0.960 . S
C2684 H2671 0.960 . S
C2684 C2683 1.524 . S
C2685 C2682 1.403 . S
C2685 C2686 1.392 . S
C2685 C2689 1.495 . S
C2686 C2685 1.392 . S
C2686 C2687 1.385 . S
C2686 C2688 1.478 . S
C2687 H2681 0.930 . S
C2687 C2683 1.400 . S
C2687 C2686 1.385 . S
C2688 C2686 1.478 . S
C2688 C2690 1.381 . S
C2688 C2694 1.383 . S
C2689 C2685 1.495 . S
C2689 H2695 0.959 . S
C2689 H2696 0.961 . S
C2689 H2697 0.960 . S
C2690 C2688 1.381 . S
C2690 C2691 1.394 . S
C2690 H2698 0.930 . S
C2691 C2690 1.394 . S
C2691 C2692 1.383 . S
C2691 H2699 0.929 . S
C2692 C2691 1.383 . S
C2692 C2693 1.377 . S
C2693 H2677 0.930 . S
C2693 C2692 1.377 . S
C2693 C2694 1.379 . S
C2694 H2678 0.931 . S
C2694 C2688 1.383 . S
C2694 C2693 1.379 . S
H2695 C2689 0.959 . S
H2696 C2689 0.961 . S
H2697 C2689 0.960 . S
H2698 C2690 0.930 . S
H2699 C2691 0.929 . S
H2700 C2708 0.929 . S
H2701 C2710 0.930 . S
H2702 C2712 0.930 . S
H2703 C2715 0.929 . S
H2704 C2718 0.930 . S
H2705 C2720 0.960 . S
H2706 C2720 0.960 . S
H2707 C2720 0.960 . S
C2708 H2700 0.929 . S
C2708 C2709 1.377 . S
C2708 C2710 1.384 . S
C2709 C2708 1.377 . S
C2709 C2715 1.390 . S
C2710 H2701 0.930 . S
C2710 C2708 1.384 . S
C2710 C2711 1.372 . S
C2711 C2710 1.372 . S
C2711 C2712 1.400 . S
C2711 C2716 1.490 . S
C2712 H2702 0.930 . S
C2712 C2711 1.400 . S
C2712 C2715 1.386 . S
H2713 C2729 0.930 . S
H2714 C2730 0.931 . S
C2715 H2703 0.929 . S
C2715 C2709 1.390 . S
C2715 C2712 1.386 . S
C2716 C2711 1.490 . S
C2716 C2718 1.395 . S
C2716 C2719 1.403 . S
H2717 C2723 0.930 . S
C2718 H2704 0.930 . S
C2718 C2716 1.395 . S
C2718 C2721 1.403 . S
C2719 C2716 1.403 . S
C2719 C2720 1.524 . S
C2719 C2723 1.400 . S
C2720 H2705 0.960 . S
C2720 H2706 0.960 . S
C2720 H2707 0.960 . S
C2720 C2719 1.524 . S
C2721 C2718 1.403 . S
C2721 C2722 1.392 . S
C2721 C2725 1.495 . S
C2722 C2721 1.392 . S
C2722 C2723 1.385 . S
C2722 C2724 1.478 . S
C2723 H2717 0.930 . S
C2723 C2719 1.400 . S
C2723 C2722 1.385 . S
C2724 C2722 1.478 . S
C2724 C2726 1.381 . S
C2724 C2730 1.383 . S
C2725 C2721 1.495 . S
C2725 H2731 0.959 . S
C2725 H2732 0.961 . S
C2725 H2733 0.960 . S
C2726 C2724 1.381 . S
C2726 C2727 1.394 . S
C2726 H2734 0.930 . S
C2727 C2726 1.394 . S
C2727 C2728 1.383 . S
C2727 H2735 0.929 . S
C2728 C2727 1.383 . S
C2728 C2729 1.377 . S
C2729 H2713 0.930 . S
C2729 C2728 1.377 . S
C2729 C2730 1.379 . S
C2730 H2714 0.931 . S
C2730 C2724 1.383 . S
C2730 C2729 1.379 . S
H2731 C2725 0.959 . S
H2732 C2725 0.961 . S
H2733 C2725 0.960 . S
H2734 C2726 0.930 . S
H2735 C2727 0.929 . S
H2736 C2744 0.929 . S
H2737 C2746 0.930 . S
H2738 C2748 0.930 . S
H2739 C2751 0.929 . S
H2740 C2754 0.930 . S
H2741 C2756 0.960 . S
H2742 C2756 0.960 . S
H2743 C2756 0.960 . S
C2744 H2736 0.929 . S
C2744 C2745 1.377 . S
C2744 C2746 1.384 . S
C2745 C2744 1.377 . S
C2745 C2751 1.390 . S
C2746 H2737 0.930 . S
C2746 C2744 1.384 . S
C2746 C2747 1.372 . S
C2747 C2746 1.372 . S
C2747 C2748 1.400 . S
C2747 C2752 1.490 . S
C2748 H2738 0.930 . S
C2748 C2747 1.400 . S
C2748 C2751 1.386 . S
H2749 C2765 0.930 . S
H2750 C2766 0.931 . S
C2751 H2739 0.929 . S
C2751 C2745 1.390 . S
C2751 C2748 1.386 . S
C2752 C2747 1.490 . S
C2752 C2754 1.395 . S
C2752 C2755 1.403 . S
H2753 C2759 0.930 . S
C2754 H2740 0.930 . S
C2754 C2752 1.395 . S
C2754 C2757 1.403 . S
C2755 C2752 1.403 . S
C2755 C2756 1.524 . S
C2755 C2759 1.400 . S
C2756 H2741 0.960 . S
C2756 H2742 0.960 . S
C2756 H2743 0.960 . S
C2756 C2755 1.524 . S
C2757 C2754 1.403 . S
C2757 C2758 1.392 . S
C2757 C2761 1.495 . S
C2758 C2757 1.392 . S
C2758 C2759 1.385 . S
C2758 C2760 1.478 . S
C2759 H2753 0.930 . S
C2759 C2755 1.400 . S
C2759 C2758 1.385 . S
C2760 C2758 1.478 . S
C2760 C2762 1.381 . S
C2760 C2766 1.383 . S
C2761 C2757 1.495 . S
C2761 H2767 0.959 . S
C2761 H2768 0.961 . S
C2761 H2769 0.960 . S
C2762 C2760 1.381 . S
C2762 C2763 1.394 . S
C2762 H2770 0.930 . S
C2763 C2762 1.394 . S
C2763 C2764 1.383 . S
C2763 H2771 0.929 . S
C2764 C2763 1.383 . S
C2764 C2765 1.377 . S
C2765 H2749 0.930 . S
C2765 C2764 1.377 . S
C2765 C2766 1.379 . S
C2766 H2750 0.931 . S
C2766 C2760 1.383 . S
C2766 C2765 1.379 . S
H2767 C2761 0.959 . S
H2768 C2761 0.961 . S
H2769 C2761 0.960 . S
H2770 C2762 0.930 . S
H2771 C2763 0.929 . S
H2772 C2780 0.929 . S
H2773 C2782 0.930 . S
H2774 C2784 0.930 . S
H2775 C2787 0.929 . S
H2776 C2790 0.930 . S
H2777 C2792 0.960 . S
H2778 C2792 0.960 . S
H2779 C2792 0.960 . S
C2780 H2772 0.929 . S
C2780 C2781 1.377 . S
C2780 C2782 1.384 . S
C2781 C2780 1.377 . S
C2781 C2787 1.390 . S
C2782 H2773 0.930 . S
C2782 C2780 1.384 . S
C2782 C2783 1.372 . S
C2783 C2782 1.372 . S
C2783 C2784 1.400 . S
C2783 C2788 1.490 . S
C2784 H2774 0.930 . S
C2784 C2783 1.400 . S
C2784 C2787 1.386 . S
H2785 C2801 0.930 . S
H2786 C2802 0.931 . S
C2787 H2775 0.929 . S
C2787 C2781 1.390 . S
C2787 C2784 1.386 . S
C2788 C2783 1.490 . S
C2788 C2790 1.395 . S
C2788 C2791 1.403 . S
H2789 C2795 0.930 . S
C2790 H2776 0.930 . S
C2790 C2788 1.395 . S
C2790 C2793 1.403 . S
C2791 C2788 1.403 . S
C2791 C2792 1.524 . S
C2791 C2795 1.400 . S
C2792 H2777 0.960 . S
C2792 H2778 0.960 . S
C2792 H2779 0.960 . S
C2792 C2791 1.524 . S
C2793 C2790 1.403 . S
C2793 C2794 1.392 . S
C2793 C2797 1.495 . S
C2794 C2793 1.392 . S
C2794 C2795 1.385 . S
C2794 C2796 1.478 . S
C2795 H2789 0.930 . S
C2795 C2791 1.400 . S
C2795 C2794 1.385 . S
C2796 C2794 1.478 . S
C2796 C2798 1.381 . S
C2796 C2802 1.383 . S
C2797 C2793 1.495 . S
C2797 H2803 0.959 . S
C2797 H2804 0.961 . S
C2797 H2805 0.960 . S
C2798 C2796 1.381 . S
C2798 C2799 1.394 . S
C2798 H2806 0.930 . S
C2799 C2798 1.394 . S
C2799 C2800 1.383 . S
C2799 H2807 0.929 . S
C2800 C2799 1.383 . S
C2800 C2801 1.377 . S
C2801 H2785 0.930 . S
C2801 C2800 1.377 . S
C2801 C2802 1.379 . S
C2802 H2786 0.931 . S
C2802 C2796 1.383 . S
C2802 C2801 1.379 . S
H2803 C2797 0.959 . S
H2804 C2797 0.961 . S
H2805 C2797 0.960 . S
H2806 C2798 0.930 . S
H2807 C2799 0.929 . S
H2808 C2816 0.929 . S
H2809 C2818 0.930 . S
H2810 C2820 0.930 . S
H2811 C2823 0.929 . S
H2812 C2826 0.930 . S
H2813 C2828 0.960 . S
H2814 C2828 0.960 . S
H2815 C2828 0.960 . S
C2816 H2808 0.929 . S
C2816 C2817 1.377 . S
C2816 C2818 1.384 . S
C2817 C2816 1.377 . S
C2817 C2823 1.390 . S
C2818 H2809 0.930 . S
C2818 C2816 1.384 . S
C2818 C2819 1.372 . S
C2819 C2818 1.372 . S
C2819 C2820 1.400 . S
C2819 C2824 1.490 . S
C2820 H2810 0.930 . S
C2820 C2819 1.400 . S
C2820 C2823 1.386 . S
H2821 C2837 0.930 . S
H2822 C2838 0.931 . S
C2823 H2811 0.929 . S
C2823 C2817 1.390 . S
C2823 C2820 1.386 . S
C2824 C2819 1.490 . S
C2824 C2826 1.395 . S
C2824 C2827 1.403 . S
H2825 C2831 0.930 . S
C2826 H2812 0.930 . S
C2826 C2824 1.395 . S
C2826 C2829 1.403 . S
C2827 C2824 1.403 . S
C2827 C2828 1.524 . S
C2827 C2831 1.400 . S
C2828 H2813 0.960 . S
C2828 H2814 0.960 . S
C2828 H2815 0.960 . S
C2828 C2827 1.524 . S
C2829 C2826 1.403 . S
C2829 C2830 1.392 . S
C2829 C2833 1.495 . S
C2830 C2829 1.392 . S
C2830 C2831 1.385 . S
C2830 C2832 1.478 . S
C2831 H2825 0.930 . S
C2831 C2827 1.400 . S
C2831 C2830 1.385 . S
C2832 C2830 1.478 . S
C2832 C2834 1.381 . S
C2832 C2838 1.383 . S
C2833 C2829 1.495 . S
C2833 H2839 0.959 . S
C2833 H2840 0.961 . S
C2833 H2841 0.960 . S
C2834 C2832 1.381 . S
C2834 C2835 1.394 . S
C2834 H2842 0.930 . S
C2835 C2834 1.394 . S
C2835 C2836 1.383 . S
C2835 H2843 0.929 . S
C2836 C2835 1.383 . S
C2836 C2837 1.377 . S
C2837 H2821 0.930 . S
C2837 C2836 1.377 . S
C2837 C2838 1.379 . S
C2838 H2822 0.931 . S
C2838 C2832 1.383 . S
C2838 C2837 1.379 . S
H2839 C2833 0.959 . S
H2840 C2833 0.961 . S
H2841 C2833 0.960 . S
H2842 C2834 0.930 . S
H2843 C2835 0.929 . S
H2844 C2852 0.929 . S
H2845 C2854 0.930 . S
H2846 C2856 0.930 . S
H2847 C2859 0.929 . S
H2848 C2862 0.930 . S
H2849 C2864 0.960 . S
H2850 C2864 0.960 . S
H2851 C2864 0.960 . S
C2852 H2844 0.929 . S
C2852 C2853 1.377 . S
C2852 C2854 1.384 . S
C2853 C2852 1.377 . S
C2853 C2859 1.390 . S
C2854 H2845 0.930 . S
C2854 C2852 1.384 . S
C2854 C2855 1.372 . S
C2855 C2854 1.372 . S
C2855 C2856 1.400 . S
C2855 C2860 1.490 . S
C2856 H2846 0.930 . S
C2856 C2855 1.400 . S
C2856 C2859 1.386 . S
H2857 C2873 0.930 . S
H2858 C2874 0.931 . S
C2859 H2847 0.929 . S
C2859 C2853 1.390 . S
C2859 C2856 1.386 . S
C2860 C2855 1.490 . S
C2860 C2862 1.395 . S
C2860 C2863 1.403 . S
H2861 C2867 0.930 . S
C2862 H2848 0.930 . S
C2862 C2860 1.395 . S
C2862 C2865 1.403 . S
C2863 C2860 1.403 . S
C2863 C2864 1.524 . S
C2863 C2867 1.400 . S
C2864 H2849 0.960 . S
C2864 H2850 0.960 . S
C2864 H2851 0.960 . S
C2864 C2863 1.524 . S
C2865 C2862 1.403 . S
C2865 C2866 1.392 . S
C2865 C2869 1.495 . S
C2866 C2865 1.392 . S
C2866 C2867 1.385 . S
C2866 C2868 1.478 . S
C2867 H2861 0.930 . S
C2867 C2863 1.400 . S
C2867 C2866 1.385 . S
C2868 C2866 1.478 . S
C2868 C2870 1.381 . S
C2868 C2874 1.383 . S
C2869 C2865 1.495 . S
C2869 H2875 0.959 . S
C2869 H2876 0.961 . S
C2869 H2877 0.960 . S
C2870 C2868 1.381 . S
C2870 C2871 1.394 . S
C2870 H2878 0.930 . S
C2871 C2870 1.394 . S
C2871 C2872 1.383 . S
C2871 H2879 0.929 . S
C2872 C2871 1.383 . S
C2872 C2873 1.377 . S
C2873 H2857 0.930 . S
C2873 C2872 1.377 . S
C2873 C2874 1.379 . S
C2874 H2858 0.931 . S
C2874 C2868 1.383 . S
C2874 C2873 1.379 . S
H2875 C2869 0.959 . S
H2876 C2869 0.961 . S
H2877 C2869 0.960 . S
H2878 C2870 0.930 . S
H2879 C2871 0.929 . S
H2880 C2888 0.929 . S
H2881 C2890 0.930 . S
H2882 C2892 0.930 . S
H2883 C2895 0.929 . S
H2884 C2898 0.930 . S
H2885 C2900 0.960 . S
H2886 C2900 0.960 . S
H2887 C2900 0.960 . S
C2888 H2880 0.929 . S
C2888 C2889 1.377 . S
C2888 C2890 1.384 . S
C2889 C2888 1.377 . S
C2889 C2895 1.390 . S
C2890 H2881 0.930 . S
C2890 C2888 1.384 . S
C2890 C2891 1.372 . S
C2891 C2890 1.372 . S
C2891 C2892 1.400 . S
C2891 C2896 1.490 . S
C2892 H2882 0.930 . S
C2892 C2891 1.400 . S
C2892 C2895 1.386 . S
H2893 C2909 0.930 . S
H2894 C2910 0.931 . S
C2895 H2883 0.929 . S
C2895 C2889 1.390 . S
C2895 C2892 1.386 . S
C2896 C2891 1.490 . S
C2896 C2898 1.395 . S
C2896 C2899 1.403 . S
H2897 C2903 0.930 . S
C2898 H2884 0.930 . S
C2898 C2896 1.395 . S
C2898 C2901 1.403 . S
C2899 C2896 1.403 . S
C2899 C2900 1.524 . S
C2899 C2903 1.400 . S
C2900 H2885 0.960 . S
C2900 H2886 0.960 . S
C2900 H2887 0.960 . S
C2900 C2899 1.524 . S
C2901 C2898 1.403 . S
C2901 C2902 1.392 . S
C2901 C2905 1.495 . S
C2902 C2901 1.392 . S
C2902 C2903 1.385 . S
C2902 C2904 1.478 . S
C2903 H2897 0.930 . S
C2903 C2899 1.400 . S
C2903 C2902 1.385 . S
C2904 C2902 1.478 . S
C2904 C2906 1.381 . S
C2904 C2910 1.383 . S
C2905 C2901 1.495 . S
C2905 H2911 0.959 . S
C2905 H2912 0.961 . S
C2905 H2913 0.960 . S
C2906 C2904 1.381 . S
C2906 C2907 1.394 . S
C2906 H2914 0.930 . S
C2907 C2906 1.394 . S
C2907 C2908 1.383 . S
C2907 H2915 0.929 . S
C2908 C2907 1.383 . S
C2908 C2909 1.377 . S
C2909 H2893 0.930 . S
C2909 C2908 1.377 . S
C2909 C2910 1.379 . S
C2910 H2894 0.931 . S
C2910 C2904 1.383 . S
C2910 C2909 1.379 . S
H2911 C2905 0.959 . S
H2912 C2905 0.961 . S
H2913 C2905 0.960 . S
H2914 C2906 0.930 . S
H2915 C2907 0.929 . S
H2916 C2924 0.929 . S
H2917 C2926 0.930 . S
H2918 C2928 0.930 . S
H2919 C2931 0.929 . S
H2920 C2934 0.930 . S
H2921 C2936 0.960 . S
H2922 C2936 0.960 . S
H2923 C2936 0.960 . S
C2924 H2916 0.929 . S
C2924 C2925 1.377 . S
C2924 C2926 1.384 . S
C2925 C2924 1.377 . S
C2925 C2931 1.390 . S
C2926 H2917 0.930 . S
C2926 C2924 1.384 . S
C2926 C2927 1.372 . S
C2927 C2926 1.372 . S
C2927 C2928 1.400 . S
C2927 C2932 1.490 . S
C2928 H2918 0.930 . S
C2928 C2927 1.400 . S
C2928 C2931 1.386 . S
H2929 C2945 0.930 . S
H2930 C2946 0.931 . S
C2931 H2919 0.929 . S
C2931 C2925 1.390 . S
C2931 C2928 1.386 . S
C2932 C2927 1.490 . S
C2932 C2934 1.395 . S
C2932 C2935 1.403 . S
H2933 C2939 0.930 . S
C2934 H2920 0.930 . S
C2934 C2932 1.395 . S
C2934 C2937 1.403 . S
C2935 C2932 1.403 . S
C2935 C2936 1.524 . S
C2935 C2939 1.400 . S
C2936 H2921 0.960 . S
C2936 H2922 0.960 . S
C2936 H2923 0.960 . S
C2936 C2935 1.524 . S
C2937 C2934 1.403 . S
C2937 C2938 1.392 . S
C2937 C2941 1.495 . S
C2938 C2937 1.392 . S
C2938 C2939 1.385 . S
C2938 C2940 1.478 . S
C2939 H2933 0.930 . S
C2939 C2935 1.400 . S
C2939 C2938 1.385 . S
C2940 C2938 1.478 . S
C2940 C2942 1.381 . S
C2940 C2946 1.383 . S
C2941 C2937 1.495 . S
C2941 H2947 0.959 . S
C2941 H2948 0.961 . S
C2941 H2949 0.960 . S
C2942 C2940 1.381 . S
C2942 C2943 1.394 . S
C2942 H2950 0.930 . S
C2943 C2942 1.394 . S
C2943 C2944 1.383 . S
C2943 H2951 0.929 . S
C2944 C2943 1.383 . S
C2944 C2945 1.377 . S
C2945 H2929 0.930 . S
C2945 C2944 1.377 . S
C2945 C2946 1.379 . S
C2946 H2930 0.931 . S
C2946 C2940 1.383 . S
C2946 C2945 1.379 . S
H2947 C2941 0.959 . S
H2948 C2941 0.961 . S
H2949 C2941 0.960 . S
H2950 C2942 0.930 . S
H2951 C2943 0.929 . S
C801 C186 0.757 . S
C820 C21 0.756 . S
C837 C54 0.759 . S
C856 C219 0.726 . S
C873 C87 0.761 . S
C892 C252 0.732 . S
C909 C153 0.750 . S
C928 C120 0.783 . S
C945 C285 0.748 . S
C964 C780 0.787 . S
C981 C714 0.748 . S
C1000 C318 0.787 . S
C1017 C351 0.760 . S
C1036 C747 0.735 . S
C1053 C549 0.749 . S
C1072 C384 0.773 . S
C1089 C417 0.761 . S
C1108 C681 0.721 . S
C1125 C450 0.761 . S
C1144 C582 0.722 . S
C1161 C615 0.761 . S
C1180 C483 0.727 . S
C1197 C516 0.753 . S
C1216 C648 0.751 . S
C1233 N101 1.658 . S
C1252 C7 1.691 . S
C1269 C40 1.709 . S
C1288 N2 1.628 . S
C1305 C73 1.712 . S
C1324 N35 1.671 . S
C1341 N68 1.656 . S
C1360 C106 1.689 . S
C1377 N167 1.648 . S
C1396 C139 1.713 . S
C1413 C172 1.708 . S
C1432 N200 1.675 . S
C1449 N233 1.655 . S
C1468 C205 1.689 . S
C1485 N134 1.657 . S
C1504 C238 1.717 . S
C1521 N596 1.650 . S
C1540 C271 1.723 . S
C1557 C304 1.714 . S
C1576 N629 1.656 . S
C1593 N662 1.659 . S
C1612 C337 1.694 . S
C1629 C370 1.712 . S
C1648 N563 1.672 . S
C1665 N728 1.653 . S
C1684 C403 1.724 . S
C1701 C436 1.714 . S
C1720 N530 1.637 . S
C1737 N761 1.658 . S
C1756 C469 1.690 . S
C1773 C502 1.712 . S
C1792 N695 1.622 . S
C1809 N299 1.659 . S
C1828 C535 1.709 . S
C1845 N497 1.658 . S
C1864 C568 1.691 . S
C1881 C601 1.711 . S
C1900 N398 1.622 . S
C1917 C634 1.709 . S
C1936 N431 1.628 . S
C1953 N464 1.651 . S
C1972 C667 1.695 . S
C1989 N365 1.655 . S
C2008 C700 1.722 . S
C2025 N266 1.648 . S
C2044 C733 1.711 . S
C2061 C766 1.707 . S
C2080 N332 1.668 . S
C2097 C18 1.118 . S
C2116 N541 1.084 . S
C2133 N772 1.059 . S
C2152 C51 1.123 . S
C2169 C84 1.118 . S
C2188 N706 1.095 . S
C2205 N739 1.055 . S
C2224 C117 1.116 . S
C2241 C150 1.113 . S
C2260 N574 1.015 . S
C2277 C183 1.112 . S
C2296 N607 1.067 . S
C2313 N640 1.055 . S
C2332 C216 1.116 . S
C2349 N673 1.052 . S
C2368 C249 1.103 . S
C2385 N13 1.059 . S
C2404 C282 1.122 . S
C2421 C315 1.111 . S
C2440 N46 1.036 . S
C2457 C348 1.111 . S
C2476 N79 1.028 . S
C2493 C381 1.117 . S
C2512 N112 1.105 . S
C2529 C414 1.117 . S
C2548 N145 1.070 . S
C2565 C447 1.116 . S
C2584 N178 1.042 . S
C2601 C480 1.118 . S
C2620 N211 1.096 . S
C2637 C513 1.111 . S
C2656 N244 1.050 . S
C2673 N277 1.060 . S
C2692 C546 1.098 . S
C2709 C579 1.112 . S
C2728 N409 1.016 . S
C2745 C612 1.111 . S
C2764 N442 1.026 . S
C2781 N475 1.062 . S
C2800 C645 1.100 . S
C2817 C678 1.118 . S
C2836 N508 1.071 . S
C2853 N343 1.060 . S
C2872 C711 1.124 . S
C2889 N376 1.063 . S
C2908 C744 1.126 . S
C2925 C777 1.111 . S
C2944 N310 1.043 . S
