# Generated by pormake.
# Topology umd, (4)-cn, num edge types: 1
# Building blocks:
#     Node 0, Type 0, BuildingBlock: QUQFOY_clean_sbu_3, # of connection points: 4
#     Node 1, Type 0, BuildingBlock: QUQFOY_clean_sbu_3, # of connection points: 4
#     Node 2, Type 0, BuildingBlock: QUQFOY_clean_sbu_3, # of connection points: 4
#     Node 3, Type 0, BuildingBlock: QUQFOY_clean_sbu_3, # of connection points: 4
#     Node 4, Type 0, BuildingBlock: QUQFOY_clean_sbu_3, # of connection points: 4
#     Node 5, Type 0, BuildingBlock: QUQFOY_clean_sbu_3, # of connection points: 4
#     Node 6, Type 0, BuildingBlock: QUQFOY_clean_sbu_3, # of connection points: 4
#     Node 7, Type 0, BuildingBlock: QUQFOY_clean_sbu_3, # of connection points: 4
#     Node 8, Type 0, BuildingBlock: QUQFOY_clean_sbu_3, # of connection points: 4
#     Node 9, Type 0, BuildingBlock: QUQFOY_clean_sbu_3, # of connection points: 4
#     Node 10, Type 0, BuildingBlock: QUQFOY_clean_sbu_3, # of connection points: 4
#     Node 11, Type 0, BuildingBlock: QUQFOY_clean_sbu_3, # of connection points: 4
#     Node 12, Type 0, BuildingBlock: QUQFOY_clean_sbu_3, # of connection points: 4
#     Node 13, Type 0, BuildingBlock: QUQFOY_clean_sbu_3, # of connection points: 4
#     Node 14, Type 0, BuildingBlock: QUQFOY_clean_sbu_3, # of connection points: 4
#     Node 15, Type 0, BuildingBlock: QUQFOY_clean_sbu_3, # of connection points: 4
#     Edge 16, Type (0, 0), BuildingBlock: MIFKUJ_clean_linker_0, # of connection points: 2
#     Edge 17, Type (0, 0), BuildingBlock: MIFKUJ_clean_linker_0, # of connection points: 2
#     Edge 18, Type (0, 0), BuildingBlock: MIFKUJ_clean_linker_0, # of connection points: 2
#     Edge 19, Type (0, 0), BuildingBlock: MIFKUJ_clean_linker_0, # of connection points: 2
#     Edge 20, Type (0, 0), BuildingBlock: MIFKUJ_clean_linker_0, # of connection points: 2
#     Edge 21, Type (0, 0), BuildingBlock: MIFKUJ_clean_linker_0, # of connection points: 2
#     Edge 22, Type (0, 0), BuildingBlock: MIFKUJ_clean_linker_0, # of connection points: 2
#     Edge 23, Type (0, 0), BuildingBlock: MIFKUJ_clean_linker_0, # of connection points: 2
#     Edge 24, Type (0, 0), BuildingBlock: MIFKUJ_clean_linker_0, # of connection points: 2
#     Edge 25, Type (0, 0), BuildingBlock: MIFKUJ_clean_linker_0, # of connection points: 2
#     Edge 26, Type (0, 0), BuildingBlock: MIFKUJ_clean_linker_0, # of connection points: 2
#     Edge 27, Type (0, 0), BuildingBlock: MIFKUJ_clean_linker_0, # of connection points: 2
#     Edge 28, Type (0, 0), BuildingBlock: MIFKUJ_clean_linker_0, # of connection points: 2
#     Edge 29, Type (0, 0), BuildingBlock: MIFKUJ_clean_linker_0, # of connection points: 2
#     Edge 30, Type (0, 0), BuildingBlock: MIFKUJ_clean_linker_0, # of connection points: 2
#     Edge 31, Type (0, 0), BuildingBlock: MIFKUJ_clean_linker_0, # of connection points: 2
#     Edge 32, Type (0, 0), BuildingBlock: MIFKUJ_clean_linker_0, # of connection points: 2
#     Edge 33, Type (0, 0), BuildingBlock: MIFKUJ_clean_linker_0, # of connection points: 2
#     Edge 34, Type (0, 0), BuildingBlock: MIFKUJ_clean_linker_0, # of connection points: 2
#     Edge 35, Type (0, 0), BuildingBlock: MIFKUJ_clean_linker_0, # of connection points: 2
#     Edge 36, Type (0, 0), BuildingBlock: MIFKUJ_clean_linker_0, # of connection points: 2
#     Edge 37, Type (0, 0), BuildingBlock: MIFKUJ_clean_linker_0, # of connection points: 2
#     Edge 38, Type (0, 0), BuildingBlock: MIFKUJ_clean_linker_0, # of connection points: 2
#     Edge 39, Type (0, 0), BuildingBlock: MIFKUJ_clean_linker_0, # of connection points: 2
#     Edge 40, Type (0, 0), BuildingBlock: MIFKUJ_clean_linker_0, # of connection points: 2
#     Edge 41, Type (0, 0), BuildingBlock: MIFKUJ_clean_linker_0, # of connection points: 2
#     Edge 42, Type (0, 0), BuildingBlock: MIFKUJ_clean_linker_0, # of connection points: 2
#     Edge 43, Type (0, 0), BuildingBlock: MIFKUJ_clean_linker_0, # of connection points: 2
#     Edge 44, Type (0, 0), BuildingBlock: MIFKUJ_clean_linker_0, # of connection points: 2
#     Edge 45, Type (0, 0), BuildingBlock: MIFKUJ_clean_linker_0, # of connection points: 2
#     Edge 46, Type (0, 0), BuildingBlock: MIFKUJ_clean_linker_0, # of connection points: 2
#     Edge 47, Type (0, 0), BuildingBlock: MIFKUJ_clean_linker_0, # of connection points: 2
# Relax obj value: 0.100
# Max RMSD: 0.237
# Mean RMSD: 0.237
data_MOF--net-umd--node1-QUQFOY_clean_sbu_3--edge1-MIFKUJ_clean_linker_0
_symmetry_space_group_name_H-M    P1
_symmetry_Int_Tables_number       1
_symmetry_cell_setting            triclinic
loop_
_symmetry_equiv_pos_as_xyz
'x, y, z'
_cell_length_a     52.059068
_cell_length_b     51.764321
_cell_length_c     77.157229
_cell_angle_alpha  90.142764
_cell_angle_beta   89.268862
_cell_angle_gamma 89.779253
loop_
_atom_site_label
_atom_site_type_symbol
_atom_site_fract_x
_atom_site_fract_y
_atom_site_fract_z
_atom_type_partial_charge
C0 C 0.20245 0.48981 0.13142 0.0
O1 O 0.20114 0.51094 0.12318 0.0
Cd2 Cd 0.18529 0.51154 0.09407 0.0
O3 O 0.19707 0.46864 0.12394 0.0
Cd4 Cd 0.18496 0.45204 0.09523 0.0
C5 C 0.12726 0.48068 0.10002 0.0
O6 O 0.20772 0.48151 0.07535 0.0
O7 O 0.17612 0.4595 0.06496 0.0
O8 O 0.22094 0.42302 0.09743 0.0
C9 C 0.19507 0.47434 0.06223 0.0
O10 O 0.13971 0.50129 0.09678 0.0
C11 C 0.20874 0.40208 0.09558 0.0
O12 O 0.13895 0.45907 0.10129 0.0
O13 O 0.18454 0.40395 0.09368 0.0
C14 C 0.49502 0.19918 0.6305 0.0
O15 O 0.47459 0.19779 0.62175 0.0
Cd16 Cd 0.47664 0.18115 0.5924 0.0
O17 O 0.51651 0.19324 0.62357 0.0
Cd18 Cd 0.53695 0.1798 0.59632 0.0
C19 C 0.50676 0.12264 0.59958 0.0
O20 O 0.50936 0.20268 0.5757 0.0
O21 O 0.53443 0.1727 0.5655 0.0
O22 O 0.56562 0.21464 0.60297 0.0
C23 C 0.51835 0.1906 0.56259 0.0
O24 O 0.48698 0.13521 0.59482 0.0
C25 C 0.58647 0.20221 0.60086 0.0
O26 O 0.52786 0.13415 0.60264 0.0
O27 O 0.58465 0.17858 0.59647 0.0
C28 C 0.7747 0.49092 0.1311 0.0
O29 O 0.77655 0.47009 0.12248 0.0
Cd30 Cd 0.79434 0.47161 0.09345 0.0
O31 O 0.78054 0.51232 0.12407 0.0
Cd32 Cd 0.7941 0.53104 0.0963 0.0
C33 C 0.85183 0.5024 0.10056 0.0
O34 O 0.77262 0.50238 0.07524 0.0
O35 O 0.8022 0.52827 0.06571 0.0
O36 O 0.75762 0.55881 0.10103 0.0
C37 C 0.7845 0.51231 0.06239 0.0
O38 O 0.83956 0.48191 0.09689 0.0
C39 C 0.76911 0.58019 0.09921 0.0
O40 O 0.84007 0.52397 0.10212 0.0
O41 O 0.79321 0.57915 0.09624 0.0
C42 C 0.48387 0.77015 0.63107 0.0
O43 O 0.50372 0.77052 0.62137 0.0
Cd44 Cd 0.50044 0.78816 0.59246 0.0
O45 O 0.46233 0.77733 0.62517 0.0
Cd46 Cd 0.4424 0.79185 0.59832 0.0
C47 C 0.47397 0.84779 0.60128 0.0
O48 O 0.46725 0.76821 0.57567 0.0
O49 O 0.4448 0.80144 0.56796 0.0
O50 O 0.41201 0.75834 0.60541 0.0
C51 C 0.45823 0.78198 0.56353 0.0
O52 O 0.49288 0.8346 0.59541 0.0
C53 C 0.39182 0.77149 0.60286 0.0
O54 O 0.45275 0.83695 0.60526 0.0
O55 O 0.39484 0.79491 0.59832 0.0
C56 C 0.20378 0.48986 0.3162 0.0
O57 O 0.20411 0.46979 0.3256 0.0
Cd58 Cd 0.18812 0.47373 0.35505 0.0
O59 O 0.19757 0.51155 0.3228 0.0
Cd60 Cd 0.18638 0.53305 0.35016 0.0
C61 C 0.1294 0.50283 0.34825 0.0
O62 O 0.21045 0.50665 0.37122 0.0
O63 O 0.18122 0.53296 0.38105 0.0
O64 O 0.22053 0.56198 0.34186 0.0
C65 C 0.19945 0.51741 0.38418 0.0
O66 O 0.14225 0.48275 0.3522 0.0
C67 C 0.20795 0.58285 0.34372 0.0
O68 O 0.1406 0.52444 0.34595 0.0
O69 O 0.1846 0.58086 0.3486 0.0
C70 C 0.489 0.20526 0.81448 0.0
O71 O 0.50923 0.20418 0.82345 0.0
Cd72 Cd 0.507 0.18449 0.85166 0.0
O73 O 0.46762 0.19823 0.821 0.0
Cd74 Cd 0.44823 0.18357 0.8484 0.0
C75 C 0.47773 0.12663 0.8419 0.0
O76 O 0.47529 0.20457 0.87042 0.0
O77 O 0.451 0.17283 0.87855 0.0
O78 O 0.41992 0.21973 0.8445 0.0
C79 C 0.4659 0.19109 0.8827 0.0
O80 O 0.49779 0.13905 0.84611 0.0
C81 C 0.39893 0.20759 0.84606 0.0
O82 O 0.45609 0.13811 0.84085 0.0
O83 O 0.40047 0.18335 0.84859 0.0
C84 C 0.77888 0.48871 0.31492 0.0
O85 O 0.779 0.50875 0.32442 0.0
Cd86 Cd 0.79591 0.50511 0.35329 0.0
O87 O 0.78548 0.46701 0.32115 0.0
Cd88 Cd 0.79781 0.44617 0.34831 0.0
C89 C 0.85476 0.47614 0.34537 0.0
O90 O 0.77394 0.47247 0.37006 0.0
O91 O 0.80381 0.44673 0.37907 0.0
O92 O 0.76305 0.41807 0.34065 0.0
C93 C 0.78537 0.46195 0.38271 0.0
O94 O 0.8417 0.49606 0.34968 0.0
C95 C 0.7748 0.39685 0.34279 0.0
O96 O 0.84373 0.45449 0.343 0.0
O97 O 0.79814 0.39818 0.34744 0.0
C98 C 0.48752 0.77132 0.81451 0.0
O99 O 0.46669 0.77377 0.82308 0.0
Cd100 Cd 0.46756 0.79343 0.8515 0.0
O101 O 0.50872 0.77755 0.82131 0.0
Cd102 Cd 0.52743 0.79294 0.84842 0.0
C103 C 0.49882 0.85047 0.84199 0.0
O104 O 0.49851 0.77341 0.87024 0.0
O105 O 0.52346 0.8043 0.8786 0.0
O106 O 0.55546 0.75626 0.84503 0.0
C107 C 0.5072 0.78705 0.88257 0.0
O108 O 0.47836 0.83862 0.84642 0.0
C109 C 0.57655 0.76837 0.84562 0.0
O110 O 0.52014 0.83835 0.84056 0.0
O111 O 0.57518 0.79275 0.84772 0.0
C112 C 0.77155 0.48761 0.81401 0.0
O113 O 0.77204 0.46699 0.82286 0.0
Cd114 Cd 0.79085 0.4685 0.85129 0.0
O115 O 0.77851 0.50881 0.82077 0.0
Cd116 Cd 0.79194 0.52757 0.8484 0.0
C117 C 0.84897 0.498 0.84291 0.0
O118 O 0.77017 0.49978 0.87011 0.0
O119 O 0.80044 0.52518 0.87881 0.0
O120 O 0.75588 0.55574 0.84423 0.0
C121 C 0.78253 0.50958 0.88263 0.0
O122 O 0.83634 0.47773 0.84671 0.0
C123 C 0.76786 0.57696 0.84518 0.0
O124 O 0.83763 0.5198 0.84175 0.0
O125 O 0.79196 0.57561 0.84766 0.0
C126 C 0.48477 0.77647 0.31377 0.0
O127 O 0.50483 0.77592 0.32292 0.0
Cd128 Cd 0.50183 0.79501 0.3515 0.0
O129 O 0.46365 0.78428 0.32036 0.0
Cd130 Cd 0.44384 0.79795 0.3478 0.0
C131 C 0.47438 0.85441 0.34335 0.0
O132 O 0.46952 0.77478 0.36969 0.0
O133 O 0.4454 0.80667 0.37826 0.0
O134 O 0.41543 0.7628 0.3417 0.0
C135 C 0.45972 0.78776 0.38217 0.0
O136 O 0.49413 0.84125 0.34741 0.0
C137 C 0.39451 0.77526 0.34314 0.0
O138 O 0.45266 0.84348 0.34162 0.0
O139 O 0.39613 0.79915 0.34691 0.0
C140 C 0.1988 0.48977 0.81597 0.0
O141 O 0.19731 0.5103 0.82494 0.0
Cd142 Cd 0.18069 0.50841 0.85421 0.0
O143 O 0.19356 0.46808 0.82281 0.0
Cd144 Cd 0.18182 0.44856 0.85078 0.0
C145 C 0.12369 0.47659 0.84721 0.0
O146 O 0.20386 0.4774 0.87127 0.0
O147 O 0.17541 0.45102 0.88168 0.0
O148 O 0.21792 0.42071 0.84499 0.0
C149 C 0.19295 0.46739 0.88446 0.0
O150 O 0.13555 0.49728 0.85098 0.0
C151 C 0.2064 0.39941 0.84719 0.0
O152 O 0.13585 0.45528 0.84548 0.0
O153 O 0.1825 0.40059 0.8508 0.0
C154 C 0.48829 0.20849 0.31649 0.0
O155 O 0.46822 0.2072 0.32595 0.0
Cd156 Cd 0.47055 0.18859 0.35445 0.0
O157 O 0.50997 0.20194 0.32251 0.0
Cd158 Cd 0.53052 0.18764 0.34939 0.0
C159 C 0.50073 0.13054 0.34468 0.0
O160 O 0.50313 0.20887 0.37156 0.0
O161 O 0.52817 0.17791 0.37981 0.0
O162 O 0.55937 0.22305 0.34374 0.0
C163 C 0.5123 0.19561 0.38389 0.0
O164 O 0.4807 0.14311 0.34936 0.0
C165 C 0.58015 0.2104 0.34516 0.0
O166 O 0.52222 0.14199 0.34265 0.0
O167 O 0.57816 0.18645 0.34858 0.0
C168 C 0.76884 0.48771 0.63048 0.0
O169 O 0.77058 0.50812 0.62148 0.0
Cd170 Cd 0.78883 0.50499 0.59258 0.0
O171 O 0.77556 0.46608 0.62402 0.0
Cd172 Cd 0.79136 0.44601 0.59711 0.0
C173 C 0.84759 0.47745 0.60077 0.0
O174 O 0.76829 0.47206 0.57528 0.0
O175 O 0.79884 0.44654 0.56642 0.0
O176 O 0.75776 0.41565 0.60383 0.0
C177 C 0.78048 0.46159 0.56269 0.0
O178 O 0.83463 0.49723 0.59638 0.0
C179 C 0.77117 0.39528 0.60216 0.0
O180 O 0.83663 0.45569 0.60295 0.0
O181 O 0.79475 0.39821 0.59811 0.0
C182 C 0.4831 0.77053 0.13095 0.0
O183 O 0.46238 0.77424 0.12283 0.0
Cd184 Cd 0.46347 0.79446 0.09474 0.0
O185 O 0.50458 0.77624 0.12397 0.0
Cd186 Cd 0.52316 0.79271 0.09671 0.0
C187 C 0.49554 0.85071 0.10447 0.0
O188 O 0.49388 0.77406 0.0752 0.0
O189 O 0.51879 0.80513 0.06681 0.0
O190 O 0.55129 0.75577 0.09776 0.0
C191 C 0.50265 0.78785 0.06289 0.0
O192 O 0.47486 0.83932 0.10033 0.0
C193 C 0.57238 0.76791 0.09709 0.0
O194 O 0.51667 0.83821 0.10524 0.0
O195 O 0.57096 0.79244 0.09633 0.0
C196 C 0.19715 0.49304 0.63111 0.0
O197 O 0.19698 0.47237 0.62226 0.0
Cd198 Cd 0.18137 0.47449 0.59293 0.0
O199 O 0.1911 0.51436 0.62411 0.0
Cd200 Cd 0.17943 0.53348 0.59628 0.0
C201 C 0.1224 0.50347 0.59935 0.0
O202 O 0.2043 0.50605 0.57562 0.0
O203 O 0.17478 0.5312 0.56546 0.0
O204 O 0.21277 0.56332 0.60421 0.0
C205 C 0.19343 0.51593 0.56252 0.0
O206 O 0.13534 0.48325 0.59558 0.0
C207 C 0.20043 0.5839 0.60104 0.0
O208 O 0.1336 0.52512 0.60133 0.0
O209 O 0.17761 0.58135 0.5956 0.0
C210 C 0.48616 0.2066 0.13284 0.0
O211 O 0.50702 0.20525 0.12421 0.0
Cd212 Cd 0.50655 0.18511 0.09599 0.0
O213 O 0.46524 0.19951 0.12602 0.0
Cd214 Cd 0.44798 0.18418 0.09843 0.0
C215 C 0.47698 0.12716 0.10515 0.0
O216 O 0.47635 0.20434 0.07634 0.0
O217 O 0.45299 0.1718 0.06865 0.0
O218 O 0.4198 0.22096 0.0999 0.0
C219 C 0.4677 0.19019 0.06425 0.0
O220 O 0.49721 0.13965 0.10108 0.0
C221 C 0.39872 0.2089 0.09898 0.0
O222 O 0.45529 0.13866 0.10623 0.0
O223 O 0.4001 0.18436 0.09815 0.0
H224 H 0.09747 0.52417 0.10108 0.0
H225 H 0.05084 0.52714 0.10325 0.0
H226 H 0.04586 0.44408 0.10579 0.0
H227 H 0.09279 0.44085 0.10348 0.0
H228 H 0.01242 0.46463 0.08258 0.0
H229 H 0.03495 0.48015 0.14169 0.0
H230 H 0.05803 0.50119 0.16556 0.0
H231 H 0.0254 0.57447 0.15167 0.0
H232 H 0.0024 0.55392 0.12755 0.0
H233 H 0.8809 0.45874 0.10323 0.0
H234 H 0.92741 0.45525 0.105 0.0
H235 H 0.93367 0.53831 0.10416 0.0
H236 H 0.88674 0.54205 0.10273 0.0
H237 H 0.96653 0.51734 0.12708 0.0
H238 H 0.94532 0.50271 0.06761 0.0
H239 H 0.92253 0.48237 0.04334 0.0
H240 H 0.95316 0.4083 0.05739 0.0
H241 H 0.97586 0.42815 0.08191 0.0
C242 C 0.08655 0.50646 0.10219 0.0
C243 C 0.09893 0.48223 0.10209 0.0
C244 C 0.05985 0.50824 0.10353 0.0
C245 C 0.04488 0.48586 0.10486 0.0
C246 C 0.05709 0.46161 0.10483 0.0
C247 C 0.0839 0.4598 0.10355 0.0
C248 C 0.01644 0.48789 0.10555 0.0
C249 C 0.00234 0.47577 0.09249 0.0
C250 C 0.00339 0.50312 0.11817 0.0
C251 C 0.01713 0.51552 0.13271 0.0
C252 C 0.03285 0.50079 0.14363 0.0
C253 C 0.0459 0.51262 0.15723 0.0
C254 C 0.04323 0.53916 0.1601 0.0
C255 C 0.02747 0.55391 0.14941 0.0
C256 C 0.0144 0.54218 0.13579 0.0
C257 C 0.89207 0.47635 0.10348 0.0
C258 C 0.88006 0.50071 0.10266 0.0
C259 C 0.91873 0.47428 0.10445 0.0
C260 C 0.93407 0.49648 0.10437 0.0
C261 C 0.92218 0.5209 0.10414 0.0
C262 C 0.89538 0.52301 0.1033 0.0
C263 C 0.96251 0.49402 0.10413 0.0
C264 C 0.9766 0.5061 0.11723 0.0
C265 C 0.97562 0.47886 0.09149 0.0
C266 C 0.96209 0.46688 0.0767 0.0
C267 C 0.94704 0.48205 0.06561 0.0
C268 C 0.93416 0.47061 0.05179 0.0
C269 C 0.93634 0.44405 0.04885 0.0
C270 C 0.95146 0.42887 0.0597 0.0
C271 C 0.96435 0.44021 0.07355 0.0
H272 H 0.92636 0.43523 0.03815 0.0
H273 H 0.05335 0.54828 0.17063 0.0
H274 H 0.50457 0.87923 0.58206 0.0
H275 H 0.51026 0.92569 0.58504 0.0
H276 H 0.45699 0.92655 0.62841 0.0
H277 H 0.45006 0.88003 0.62471 0.0
H278 H 0.44816 0.96606 0.61105 0.0
H279 H 0.52544 0.93204 0.6329 0.0
H280 H 0.56451 0.90503 0.63384 0.0
H281 H 0.59421 0.9429 0.58842 0.0
H282 H 0.55516 0.96991 0.58706 0.0
H283 H 0.534 0.09102 0.62117 0.0
H284 H 0.52828 0.04444 0.6254 0.0
H285 H 0.47039 0.04386 0.58583 0.0
H286 H 0.47503 0.09035 0.58232 0.0
H287 H 0.53529 0.00433 0.6076 0.0
H288 H 0.42576 -1e-05 0.59179 0.0
H289 H 0.38706 0.02706 0.59589 0.0
H290 H 0.42242 0.06598 0.63855 0.0
H291 H 0.46119 0.03891 0.63488 0.0
C292 C 0.49407 0.88932 0.59224 0.0
C293 C 0.47697 0.87602 0.60322 0.0
C294 C 0.49751 0.9159 0.59405 0.0
C295 C 0.48462 0.92967 0.60727 0.0
C296 C 0.46728 0.91641 0.61816 0.0
C297 C 0.46333 0.88984 0.61606 0.0
C298 C 0.48875 0.95799 0.60925 0.0
C299 C 0.46724 0.97438 0.61041 0.0
C300 C 0.51365 0.96902 0.60905 0.0
C301 C 0.53727 0.9529 0.60982 0.0
C302 C 0.54023 0.93451 0.62305 0.0
C303 C 0.56238 0.91921 0.62366 0.0
C304 C 0.58181 0.92222 0.61118 0.0
C305 C 0.57915 0.94058 0.59807 0.0
C306 C 0.55702 0.95592 0.59739 0.0
C307 C 0.52003 0.08088 0.61343 0.0
C308 C 0.50476 0.09432 0.60156 0.0
C309 C 0.51677 0.05427 0.61585 0.0
C310 C 0.49844 0.04061 0.60624 0.0
C311 C 0.48398 0.05398 0.59387 0.0
C312 C 0.4868 0.08057 0.59176 0.0
C313 C 0.49467 0.01235 0.60877 0.0
C314 C 0.51624 -0.004 0.60846 0.0
C315 C 0.46988 0.00136 0.61055 0.0
C316 C 0.44647 0.01753 0.61297 0.0
C317 C 0.42523 0.01422 0.60211 0.0
C318 C 0.40329 0.0296 0.60434 0.0
C319 C 0.4023 0.04827 0.61744 0.0
C320 C 0.42323 0.05157 0.62838 0.0
C321 C 0.44521 0.03623 0.62621 0.0
H322 H 0.38531 0.06017 0.61914 0.0
H323 H 0.59895 0.91035 0.61167 0.0
H324 H 0.10099 0.45876 0.34626 0.0
H325 H 0.05448 0.45494 0.34378 0.0
H326 H 0.04722 0.53795 0.3435 0.0
H327 H 0.09395 0.54202 0.34593 0.0
H328 H 0.01335 0.51366 0.36655 0.0
H329 H 0.03951 0.50644 0.307 0.0
H330 H 0.06487 0.48896 0.28242 0.0
H331 H 0.03355 0.41354 0.29162 0.0
H332 H 0.00831 0.43048 0.31646 0.0
H333 H 0.88296 0.52042 0.34524 0.0
H334 H 0.92948 0.52473 0.34391 0.0
H335 H 0.93757 0.44194 0.34024 0.0
H336 H 0.89068 0.4374 0.34125 0.0
H337 H 0.97125 0.46629 0.31871 0.0
H338 H 0.94652 0.47249 0.37859 0.0
H339 H 0.92197 0.489 0.40384 0.0
H340 H 0.95132 0.56522 0.39466 0.0
H341 H 0.97578 0.54923 0.36919 0.0
C342 C 0.08957 0.47625 0.34563 0.0
C343 C 0.1012 0.50073 0.34632 0.0
C344 C 0.06298 0.474 0.34412 0.0
C345 C 0.04745 0.49615 0.34333 0.0
C346 C 0.05893 0.52062 0.34404 0.0
C347 C 0.08561 0.52291 0.34539 0.0
C348 C 0.01916 0.49362 0.34234 0.0
C349 C 0.00408 0.50369 0.35595 0.0
C350 C 0.00724 0.4799 0.32876 0.0
C351 C 0.02219 0.46969 0.3137 0.0
C352 C 0.03818 0.48608 0.30388 0.0
C353 C 0.05251 0.47628 0.28988 0.0
C354 C 0.05087 0.45014 0.28548 0.0
C355 C 0.03482 0.43378 0.29505 0.0
C356 C 0.02048 0.44348 0.30908 0.0
C357 C 0.89454 0.50305 0.34408 0.0
C358 C 0.88305 0.47851 0.34353 0.0
C359 C 0.92119 0.50559 0.34336 0.0
C360 C 0.93703 0.48365 0.3423 0.0
C361 C 0.92569 0.45913 0.34114 0.0
C362 C 0.8989 0.45656 0.34176 0.0
C363 C 0.96538 0.48644 0.34291 0.0
C364 C 0.98049 0.47635 0.32928 0.0
C365 C 0.97741 0.50003 0.35654 0.0
C366 C 0.96279 0.5097 0.37188 0.0
C367 C 0.94758 0.49281 0.38188 0.0
C368 C 0.93371 0.50207 0.39624 0.0
C369 C 0.93503 0.52815 0.40083 0.0
C370 C 0.95029 0.54502 0.39108 0.0
C371 C 0.96418 0.53587 0.37668 0.0
H372 H 0.92428 0.53528 0.41195 0.0
H373 H 0.06199 0.44259 0.27464 0.0
H374 H 0.53836 0.88366 0.83404 0.0
H375 H 0.53589 0.93067 0.83075 0.0
H376 H 0.45407 0.92816 0.84013 0.0
H377 H 0.45625 0.88139 0.84316 0.0
H378 H 0.46561 0.96132 0.81436 0.0
H379 H 0.49525 0.9441 0.87238 0.0
H380 H 0.52435 0.92533 0.89401 0.0
H381 H 0.58778 0.96689 0.87163 0.0
H382 H 0.55909 0.98565 0.84972 0.0
H383 H 0.43908 0.09075 0.84095 0.0
H384 H 0.44363 0.04387 0.83788 0.0
H385 H 0.52575 0.05222 0.83209 0.0
H386 H 0.52142 0.09884 0.83565 0.0
H387 H 0.51598 0.01604 0.85428 0.0
H388 H 0.48593 0.03593 0.79744 0.0
H389 H 0.4569 0.05488 0.77586 0.0
H390 H 0.39468 0.00878 0.79552 0.0
H391 H 0.42327 -0.01019 0.81739 0.0
C392 C 0.51983 0.89309 0.83527 0.0
C393 C 0.49755 0.87874 0.839 0.0
C394 C 0.51845 0.91996 0.83343 0.0
C395 C 0.49482 0.93294 0.83539 0.0
C396 C 0.4725 0.91857 0.83856 0.0
C397 C 0.47384 0.89179 0.84038 0.0
C398 C 0.49329 0.96156 0.83487 0.0
C399 C 0.47649 0.97333 0.82316 0.0
C400 C 0.50787 0.97722 0.8461 0.0
C401 C 0.52509 0.96604 0.85931 0.0
C402 C 0.51544 0.94907 0.872 0.0
C403 C 0.53185 0.93847 0.88432 0.0
C404 C 0.55791 0.94485 0.88416 0.0
C405 C 0.5676 0.96192 0.87171 0.0
C406 C 0.55127 0.97256 0.85935 0.0
C407 C 0.45806 0.0826 0.83884 0.0
C408 C 0.47989 0.0985 0.83863 0.0
C409 C 0.46065 0.0558 0.83701 0.0
C410 C 0.48505 0.04448 0.83462 0.0
C411 C 0.50675 0.06045 0.83398 0.0
C412 C 0.50422 0.08713 0.836 0.0
C413 C 0.48822 0.01595 0.83378 0.0
C414 C 0.50528 0.00416 0.84531 0.0
C415 C 0.47391 0.00032 0.82234 0.0
C416 C 0.4567 0.01161 0.80915 0.0
C417 C 0.46602 0.02997 0.79725 0.0
C418 C 0.44965 0.04069 0.78495 0.0
C419 C 0.42395 0.03308 0.78435 0.0
C420 C 0.41459 0.01468 0.79602 0.0
C421 C 0.43087 0.00391 0.80835 0.0
H422 H 0.41131 0.04141 0.77482 0.0
H423 H 0.57058 0.93662 0.89371 0.0
H424 H 0.8775 0.45396 0.83951 0.0
H425 H 0.92407 0.44991 0.83763 0.0
H426 H 0.93128 0.53287 0.83901 0.0
H427 H 0.88437 0.53718 0.84058 0.0
H428 H 0.96551 0.51126 0.81623 0.0
H429 H 0.93971 0.49771 0.87545 0.0
H430 H 0.91489 0.47783 0.89932 0.0
H431 H 0.94577 0.40332 0.88582 0.0
H432 H 0.97052 0.42271 0.8617 0.0
H433 H 0.09338 0.51964 0.846 0.0
H434 H 0.04698 0.52195 0.84257 0.0
H435 H 0.04346 0.43886 0.83933 0.0
H436 H 0.09015 0.43628 0.84284 0.0
H437 H 0.00751 0.45931 0.86192 0.0
H438 H 0.03583 0.47414 0.8036 0.0
H439 H 0.06147 0.49503 0.78053 0.0
H440 H 0.02661 0.56819 0.79292 0.0
H441 H 0.00107 0.54782 0.81628 0.0
C442 C 0.88891 0.47142 0.83931 0.0
C443 C 0.87719 0.49592 0.8404 0.0
C444 C 0.91557 0.46904 0.83825 0.0
C445 C 0.93117 0.49106 0.8385 0.0
C446 C 0.91958 0.51561 0.83887 0.0
C447 C 0.89279 0.51804 0.83981 0.0
C448 C 0.95954 0.48829 0.83915 0.0
C449 C 0.97473 0.50015 0.82631 0.0
C450 C 0.97153 0.47332 0.85212 0.0
C451 C 0.95676 0.46163 0.86666 0.0
C452 C 0.94105 0.47706 0.87749 0.0
C453 C 0.92702 0.46588 0.89108 0.0
C454 C 0.9287 0.43932 0.89406 0.0
C455 C 0.94446 0.42388 0.88348 0.0
C456 C 0.95851 0.43496 0.86986 0.0
C457 C 0.08283 0.50179 0.8445 0.0
C458 C 0.09552 0.47773 0.84472 0.0
C459 C 0.05629 0.50319 0.84244 0.0
C460 C 0.04182 0.48061 0.84051 0.0
C461 C 0.05434 0.45653 0.84073 0.0
C462 C 0.081 0.45509 0.8427 0.0
C463 C 0.0135 0.48226 0.839 0.0
C464 C -0.0017 0.47026 0.85174 0.0
C465 C 0.00158 0.49721 0.826 0.0
C466 C 0.01668 0.50947 0.8118 0.0
C467 C 0.03376 0.49472 0.8015 0.0
C468 C 0.04826 0.50646 0.78835 0.0
C469 C 0.04571 0.53293 0.78528 0.0
C470 C 0.02858 0.54769 0.79532 0.0
C471 C 0.01407 0.53605 0.80851 0.0
H472 H 0.05697 0.54198 0.77511 0.0
H473 H 0.91782 0.4307 0.90459 0.0
H474 H 0.45697 0.10216 0.34207 0.0
H475 H 0.45302 0.05544 0.33974 0.0
H476 H 0.53557 0.04775 0.33935 0.0
H477 H 0.53974 0.09484 0.34131 0.0
H478 H 0.51442 0.01483 0.31665 0.0
H479 H 0.50056 0.03679 0.37632 0.0
H480 H 0.48093 0.06017 0.40106 0.0
H481 H 0.40674 0.03072 0.38771 0.0
H482 H 0.42588 0.00744 0.36274 0.0
H483 H 0.51854 0.88273 0.34222 0.0
H484 H 0.52278 0.92953 0.34011 0.0
H485 H 0.44042 0.93728 0.33736 0.0
H486 H 0.43593 0.8903 0.33954 0.0
H487 H 0.46161 0.97001 0.36125 0.0
H488 H 0.47679 0.94676 0.30174 0.0
H489 H 0.49757 0.92294 0.27762 0.0
H490 H 0.57079 0.95416 0.29155 0.0
H491 H 0.5505 0.97789 0.31591 0.0
C492 C 0.47435 0.09061 0.34141 0.0
C493 C 0.4987 0.10225 0.34206 0.0
C494 C 0.47203 0.06385 0.34013 0.0
C495 C 0.49398 0.04804 0.33973 0.0
C496 C 0.51836 0.05958 0.33973 0.0
C497 C 0.52072 0.08648 0.34088 0.0
C498 C 0.49129 0.01948 0.3398 0.0
C499 C 0.50315 0.00499 0.32652 0.0
C500 C 0.47619 0.00667 0.35251 0.0
C501 C 0.46463 0.02057 0.36756 0.0
C502 C 0.48003 0.03545 0.37859 0.0
C503 C 0.469 0.04866 0.39266 0.0
C504 C 0.44259 0.04698 0.39593 0.0
C505 C 0.42718 0.03203 0.38515 0.0
C506 C 0.43812 0.01881 0.37104 0.0
C507 C 0.50128 0.89432 0.34105 0.0
C508 C 0.47686 0.88273 0.34108 0.0
C509 C 0.50378 0.92109 0.33976 0.0
C510 C 0.48193 0.93687 0.33845 0.0
C511 C 0.45753 0.92542 0.33832 0.0
C512 C 0.455 0.89857 0.33952 0.0
C513 C 0.48458 0.96538 0.33805 0.0
C514 C 0.47279 0.97987 0.35133 0.0
C515 C 0.49991 0.9781 0.32544 0.0
C516 C 0.51215 0.96392 0.31075 0.0
C517 C 0.49736 0.94838 0.29975 0.0
C518 C 0.50904 0.93493 0.28602 0.0
C519 C 0.53549 0.93699 0.28308 0.0
C520 C 0.55031 0.95256 0.29385 0.0
C521 C 0.53872 0.96604 0.30761 0.0
H522 H 0.5445 0.92656 0.27244 0.0
H523 H 0.43409 0.05722 0.40683 0.0
H524 H 0.87521 0.52195 0.60304 0.0
H525 H 0.92166 0.5266 0.60479 0.0
H526 H 0.93042 0.44369 0.60468 0.0
H527 H 0.88367 0.43883 0.60337 0.0
H528 H 0.96276 0.4652 0.627 0.0
H529 H 0.94058 0.47948 0.56766 0.0
H530 H 0.91714 0.49948 0.54355 0.0
H531 H 0.94634 0.57397 0.5577 0.0
H532 H 0.96968 0.55446 0.58206 0.0
H533 H 0.09341 0.45962 0.59964 0.0
H534 H 0.04681 0.45613 0.60202 0.0
H535 H 0.04043 0.53905 0.60585 0.0
H536 H 0.08725 0.54279 0.6034 0.0
H537 H 0.00703 0.51831 0.58235 0.0
H538 H 0.03091 0.50272 0.64122 0.0
H539 H 0.05479 0.48167 0.66472 0.0
H540 H 0.02299 0.40826 0.65062 0.0
H541 H -0.00081 0.42882 0.62686 0.0
C542 C 0.88696 0.50465 0.60346 0.0
C543 C 0.87572 0.47999 0.60289 0.0
C544 C 0.91356 0.50737 0.6044 0.0
C545 C 0.92958 0.48551 0.6045 0.0
C546 C 0.91842 0.46084 0.60453 0.0
C547 C 0.89171 0.45809 0.60375 0.0
C548 C 0.95795 0.48851 0.60417 0.0
C549 C 0.97247 0.47655 0.61711 0.0
C550 C 0.9706 0.50376 0.59148 0.0
C551 C 0.95667 0.51554 0.57679 0.0
C552 C 0.94185 0.50015 0.56571 0.0
C553 C 0.92861 0.5114 0.55199 0.0
C554 C 0.9302 0.53799 0.54912 0.0
C555 C 0.94509 0.55338 0.55995 0.0
C556 C 0.95835 0.54224 0.57371 0.0
C557 C 0.08218 0.47717 0.60106 0.0
C558 C 0.09411 0.50152 0.60132 0.0
C559 C 0.05551 0.4751 0.60251 0.0
C560 C 0.04018 0.4973 0.60428 0.0
C561 C 0.05195 0.52166 0.60455 0.0
C562 C 0.0787 0.52376 0.60319 0.0
C563 C 0.0118 0.49503 0.60517 0.0
C564 C -0.00271 0.50707 0.59229 0.0
C565 C -0.00078 0.47969 0.61783 0.0
C566 C 0.01344 0.46729 0.63215 0.0
C567 C 0.02917 0.48205 0.64303 0.0
C568 C 0.04266 0.47022 0.65642 0.0
C569 C 0.04045 0.44364 0.65914 0.0
C570 C 0.0247 0.42885 0.64849 0.0
C571 C 0.01118 0.44059 0.63507 0.0
H572 H 0.05091 0.43451 0.66951 0.0
H573 H 0.91993 0.54666 0.53849 0.0
H574 H 0.43806 0.09192 0.10969 0.0
H575 H 0.44226 0.04496 0.11255 0.0
H576 H 0.5248 0.05177 0.11035 0.0
H577 H 0.52082 0.09839 0.10722 0.0
H578 H 0.50954 0.01529 0.08903 0.0
H579 H 0.4927 0.03765 0.14832 0.0
H580 H 0.46896 0.05799 0.17265 0.0
H581 H 0.40272 0.01209 0.16128 0.0
H582 H 0.42593 -0.00825 0.1367 0.0
H583 H 0.53607 0.88398 0.10866 0.0
H584 H 0.53408 0.93107 0.11191 0.0
H585 H 0.45133 0.92828 0.11098 0.0
H586 H 0.45307 0.88144 0.10788 0.0
H587 H 0.46825 0.96268 0.13518 0.0
H588 H 0.48434 0.94279 0.07484 0.0
H589 H 0.50792 0.92277 0.05031 0.0
H590 H 0.57587 0.96457 0.06392 0.0
H591 H 0.55276 0.98458 0.08869 0.0
C592 C 0.45709 0.08343 0.10997 0.0
C593 C 0.47907 0.09894 0.10814 0.0
C594 C 0.45948 0.05659 0.11167 0.0
C595 C 0.48388 0.04484 0.11175 0.0
C596 C 0.50579 0.06037 0.11027 0.0
C597 C 0.50344 0.08708 0.1085 0.0
C598 C 0.4867 0.01629 0.11252 0.0
C599 C 0.50086 0.00386 0.0993 0.0
C600 C 0.47495 0.00128 0.12571 0.0
C601 C 0.46099 0.01335 0.14056 0.0
C602 C 0.473 0.03203 0.15092 0.0
C603 C 0.45965 0.04354 0.16477 0.0
C604 C 0.43433 0.03638 0.16848 0.0
C605 C 0.42233 0.01764 0.15838 0.0
C606 C 0.43558 0.0061 0.14449 0.0
C607 C 0.51745 0.89336 0.10933 0.0
C608 C 0.49475 0.87893 0.10784 0.0
C609 C 0.51635 0.92027 0.11115 0.0
C610 C 0.49254 0.93319 0.1115 0.0
C611 C 0.46988 0.91873 0.11073 0.0
C612 C 0.47096 0.89192 0.10885 0.0
C613 C 0.4911 0.96183 0.11171 0.0
C614 C 0.47712 0.97422 0.12504 0.0
C615 C 0.50304 0.97687 0.09864 0.0
C616 C 0.51691 0.96495 0.08372 0.0
C617 C 0.50437 0.94755 0.07268 0.0
C618 C 0.51763 0.93624 0.05872 0.0
C619 C 0.5434 0.94234 0.05559 0.0
C620 C 0.55593 0.95983 0.06638 0.0
C621 C 0.54276 0.97117 0.08037 0.0
H622 H 0.55364 0.93356 0.04478 0.0
H623 H 0.42402 0.04532 0.1792 0.0
H624 H 0.20417 0.52956 0.29317 0.0
H625 H 0.20834 0.52716 0.26178 0.0
H626 H 0.21961 0.44474 0.26474 0.0
H627 H 0.21534 0.44685 0.29646 0.0
H628 H 0.25259 0.471 0.23986 0.0
H629 H 0.16371 0.4624 0.25482 0.0
H630 H 0.12306 0.47354 0.26986 0.0
H631 H 0.12301 0.54798 0.24543 0.0
H632 H 0.16387 0.53742 0.23043 0.0
H633 H 0.21591 0.44846 0.15131 0.0
H634 H 0.22133 0.44751 0.18274 0.0
H635 H 0.20765 0.52966 0.18525 0.0
H636 H 0.20239 0.53087 0.15379 0.0
H637 H 0.17614 0.50055 0.20748 0.0
H638 H 0.26559 0.5085 0.19248 0.0
H639 H 0.30604 0.49661 0.17748 0.0
H640 H 0.3045 0.42203 0.2017 0.0
H641 H 0.26381 0.43334 0.21666 0.0
C642 C 0.20778 0.51088 0.28725 0.0
C643 C 0.20913 0.48833 0.29734 0.0
C644 C 0.21016 0.50959 0.26928 0.0
C645 C 0.21395 0.48576 0.26099 0.0
C646 C 0.21662 0.4633 0.27097 0.0
C647 C 0.21411 0.46455 0.28905 0.0
C648 C 0.21349 0.4845 0.24186 0.0
C649 C 0.23578 0.47704 0.23273 0.0
C650 C 0.19163 0.49277 0.23266 0.0
C651 C 0.167 0.49921 0.24163 0.0
C652 C 0.15516 0.48123 0.25277 0.0
C653 C 0.13205 0.48742 0.26127 0.0
C654 C 0.1205 0.51147 0.25864 0.0
C655 C 0.132 0.52936 0.24747 0.0
C656 C 0.15512 0.52328 0.23896 0.0
C657 C 0.2144 0.4664 0.15851 0.0
C658 C 0.20858 0.48973 0.15008 0.0
C659 C 0.2176 0.46581 0.17645 0.0
C660 C 0.21489 0.48851 0.18626 0.0
C661 C 0.20982 0.51195 0.17785 0.0
C662 C 0.20691 0.51261 0.15989 0.0
C663 C 0.21539 0.48748 0.20541 0.0
C664 C 0.19297 0.49442 0.21456 0.0
C665 C 0.23706 0.47854 0.21455 0.0
C666 C 0.26149 0.47166 0.20554 0.0
C667 C 0.27373 0.48946 0.19447 0.0
C668 C 0.29674 0.48285 0.18601 0.0
C669 C 0.30779 0.45855 0.18859 0.0
C670 C 0.29589 0.44083 0.19969 0.0
C671 C 0.27286 0.44734 0.20817 0.0
H672 H 0.32562 0.45347 0.18203 0.0
H673 H 0.10261 0.51623 0.26522 0.0
H674 H 0.45268 0.20895 0.65123 0.0
H675 H 0.45215 0.21704 0.68257 0.0
H676 H 0.53495 0.21418 0.68287 0.0
H677 H 0.53573 0.20603 0.6518 0.0
H678 H 0.51371 0.18216 0.70663 0.0
H679 H 0.50415 0.27055 0.68907 0.0
H680 H 0.48427 0.30699 0.67362 0.0
H681 H 0.41323 0.29436 0.70114 0.0
H682 H 0.43259 0.25759 0.71658 0.0
H683 H 0.53187 0.2128 0.79415 0.0
H684 H 0.53333 0.21895 0.76272 0.0
H685 H 0.45053 0.22048 0.76161 0.0
H686 H 0.44883 0.21456 0.79297 0.0
H687 H 0.47218 0.25501 0.73831 0.0
H688 H 0.47977 0.16549 0.75397 0.0
H689 H 0.49826 0.12821 0.76933 0.0
H690 H 0.57148 0.14203 0.7449 0.0
H691 H 0.55349 0.17966 0.72958 0.0
C692 C 0.47077 0.21039 0.65795 0.0
C693 C 0.49422 0.20661 0.64904 0.0
C694 C 0.47043 0.21511 0.67582 0.0
C695 C 0.49353 0.21621 0.68501 0.0
C696 C 0.51692 0.21332 0.67603 0.0
C697 C 0.51729 0.20864 0.65824 0.0
C698 C 0.49346 0.21832 0.70414 0.0
C699 C 0.50502 0.19833 0.71353 0.0
C700 C 0.48144 0.23903 0.71312 0.0
C701 C 0.46975 0.26114 0.70386 0.0
C702 C 0.48422 0.27539 0.69172 0.0
C703 C 0.47306 0.29614 0.68298 0.0
C704 C 0.44748 0.30294 0.68636 0.0
C705 C 0.43303 0.28905 0.69852 0.0
C706 C 0.44409 0.26826 0.70728 0.0
C707 C 0.51398 0.21494 0.78727 0.0
C708 C 0.49024 0.21281 0.79602 0.0
C709 C 0.51485 0.21841 0.76932 0.0
C710 C 0.49202 0.21979 0.75986 0.0
C711 C 0.46835 0.21941 0.76869 0.0
C712 C 0.46745 0.21586 0.7866 0.0
C713 C 0.49272 0.21902 0.74069 0.0
C714 C 0.48111 0.23904 0.73134 0.0
C715 C 0.50452 0.19823 0.73166 0.0
C716 C 0.51537 0.17556 0.74079 0.0
C717 C 0.49987 0.16071 0.75199 0.0
C718 C 0.51025 0.1395 0.76067 0.0
C719 C 0.53605 0.1328 0.75813 0.0
C720 C 0.55151 0.14727 0.74687 0.0
C721 C 0.54123 0.16854 0.73818 0.0
H722 H 0.54405 0.11637 0.76486 0.0
H723 H 0.43888 0.31902 0.67959 0.0
H724 H 0.75992 0.53195 0.15107 0.0
H725 H 0.75298 0.53282 0.18238 0.0
H726 H 0.76619 0.45058 0.18461 0.0
H727 H 0.77267 0.44942 0.15311 0.0
H728 H 0.72838 0.46593 0.20742 0.0
H729 H 0.81467 0.49197 0.19223 0.0
H730 H 0.84723 0.51812 0.17688 0.0
H731 H 0.81656 0.58707 0.20044 0.0
H732 H 0.78358 0.56133 0.21576 0.0
H733 H 0.77578 0.44901 0.2918 0.0
H734 H 0.76746 0.45141 0.26091 0.0
H735 H 0.75743 0.53399 0.265 0.0
H736 H 0.76626 0.53183 0.29609 0.0
H737 H 0.78949 0.5216 0.23911 0.0
H738 H 0.70606 0.49408 0.25719 0.0
H739 H 0.67438 0.46715 0.27274 0.0
H740 H 0.7001 0.40035 0.24424 0.0
H741 H 0.7322 0.4268 0.22868 0.0
C742 C 0.76103 0.51395 0.15816 0.0
C743 C 0.76722 0.49065 0.14965 0.0
C744 C 0.75706 0.51451 0.17607 0.0
C745 C 0.75959 0.49187 0.18584 0.0
C746 C 0.76426 0.4683 0.17729 0.0
C747 C 0.76801 0.46767 0.15931 0.0
C748 C 0.75938 0.49313 0.20503 0.0
C749 C 0.74182 0.47795 0.21439 0.0
C750 C 0.77655 0.50931 0.21407 0.0
C751 C 0.7965 0.52477 0.20499 0.0
C752 C 0.81477 0.51273 0.19404 0.0
C753 C 0.83331 0.52747 0.18536 0.0
C754 C 0.83392 0.55425 0.18764 0.0
C755 C 0.81604 0.56633 0.19866 0.0
C756 C 0.79743 0.55168 0.20735 0.0
C757 C 0.77157 0.4677 0.28622 0.0
C758 C 0.7718 0.49027 0.29643 0.0
C759 C 0.7666 0.469 0.26854 0.0
C760 C 0.7615 0.49283 0.26067 0.0
C761 C 0.76121 0.51538 0.27085 0.0
C762 C 0.76623 0.51411 0.2886 0.0
C763 C 0.75858 0.49424 0.24161 0.0
C764 C 0.7757 0.50988 0.23222 0.0
C765 C 0.74108 0.47839 0.23259 0.0
C766 C 0.72167 0.46242 0.24185 0.0
C767 C 0.70509 0.47362 0.25432 0.0
C768 C 0.68703 0.45844 0.26312 0.0
C769 C 0.68526 0.43205 0.2595 0.0
C770 C 0.7015 0.42079 0.24704 0.0
C771 C 0.71961 0.43588 0.2382 0.0
H772 H 0.67127 0.42033 0.26634 0.0
H773 H 0.84829 0.56563 0.18091 0.0
H774 H 0.44639 0.76728 0.79281 0.0
H775 H 0.44768 0.75866 0.76162 0.0
H776 H 0.52973 0.7472 0.76372 0.0
H777 H 0.52868 0.75629 0.79474 0.0
H778 H 0.51831 0.78049 0.73941 0.0
H779 H 0.48823 0.69665 0.75544 0.0
H780 H 0.46008 0.6651 0.7701 0.0
H781 H 0.39526 0.69395 0.74213 0.0
H782 H 0.42295 0.72593 0.72748 0.0
H783 H 0.52671 0.75569 0.6492 0.0
H784 H 0.52934 0.74734 0.68037 0.0
H785 H 0.44766 0.75992 0.68579 0.0
H786 H 0.44474 0.76768 0.65479 0.0
H787 H 0.46251 0.7213 0.70622 0.0
H788 H 0.49074 0.80837 0.69366 0.0
H789 H 0.51787 0.84116 0.67934 0.0
H790 H 0.58525 0.80692 0.70132 0.0
H791 H 0.55852 0.77372 0.7156 0.0
C792 C 0.46463 0.76248 0.78668 0.0
C793 C 0.48745 0.7627 0.79621 0.0
C794 C 0.46533 0.75744 0.76885 0.0
C795 C 0.48881 0.75219 0.76033 0.0
C796 C 0.51142 0.75128 0.77 0.0
C797 C 0.51076 0.75649 0.78775 0.0
C798 C 0.49019 0.7501 0.74116 0.0
C799 C 0.50651 0.76711 0.73218 0.0
C800 C 0.47436 0.73311 0.73171 0.0
C801 C 0.45765 0.71383 0.74045 0.0
C802 C 0.46794 0.6964 0.75251 0.0
C803 C 0.45206 0.67841 0.7608 0.0
C804 C 0.42589 0.67755 0.75707 0.0
C805 C 0.41554 0.69465 0.74501 0.0
C806 C 0.43132 0.71269 0.73669 0.0
C807 C 0.50927 0.75635 0.657 0.0
C808 C 0.48557 0.76266 0.64953 0.0
C809 C 0.51082 0.75162 0.67481 0.0
C810 C 0.48874 0.75338 0.68543 0.0
C811 C 0.46494 0.75847 0.67786 0.0
C812 C 0.46335 0.76306 0.66011 0.0
C813 C 0.49044 0.75181 0.70457 0.0
C814 C 0.47464 0.73426 0.71352 0.0
C815 C 0.50662 0.76841 0.71405 0.0
C816 C 0.52268 0.7884 0.70552 0.0
C817 C 0.51136 0.80773 0.69533 0.0
C818 C 0.52666 0.8264 0.68724 0.0
C819 C 0.55327 0.82607 0.68937 0.0
C820 C 0.56464 0.80712 0.69965 0.0
C821 C 0.54943 0.78838 0.70775 0.0
H822 H 0.56508 0.84055 0.6831 0.0
H823 H 0.41363 0.66361 0.76351 0.0
H824 H 0.76992 0.52834 0.79171 0.0
H825 H 0.76129 0.52753 0.76082 0.0
H826 H 0.74692 0.44559 0.76347 0.0
H827 H 0.75619 0.4461 0.79451 0.0
H828 H 0.77956 0.45639 0.7381 0.0
H829 H 0.69816 0.49041 0.75653 0.0
H830 H 0.66868 0.51995 0.77219 0.0
H831 H 0.69865 0.5842 0.74336 0.0
H832 H 0.7287 0.55516 0.72778 0.0
H833 H 0.75107 0.44797 0.65019 0.0
H834 H 0.74312 0.44783 0.68141 0.0
H835 H 0.76052 0.52918 0.68375 0.0
H836 H 0.76788 0.52962 0.6523 0.0
H837 H 0.7223 0.51654 0.70663 0.0
H838 H 0.80683 0.48485 0.69159 0.0
H839 H 0.83801 0.45681 0.67616 0.0
H840 H 0.80329 0.38973 0.69904 0.0
H841 H 0.77168 0.41738 0.71444 0.0
C842 C 0.76465 0.51015 0.78582 0.0
C843 C 0.7639 0.48723 0.79559 0.0
C844 C 0.7595 0.50977 0.76813 0.0
C845 C 0.75315 0.48656 0.75984 0.0
C846 C 0.7517 0.46374 0.76963 0.0
C847 C 0.75698 0.46406 0.78736 0.0
C848 C 0.75039 0.48583 0.74074 0.0
C849 C 0.76657 0.46913 0.73126 0.0
C850 C 0.73406 0.50307 0.73178 0.0
C851 C 0.71585 0.52059 0.74107 0.0
C852 C 0.69863 0.51087 0.75363 0.0
C853 C 0.6818 0.52754 0.76249 0.0
C854 C 0.68186 0.55396 0.75883 0.0
C855 C 0.69869 0.56375 0.74624 0.0
C856 C 0.7156 0.54718 0.73737 0.0
C857 C 0.75283 0.46595 0.65729 0.0
C858 C 0.76049 0.48874 0.64885 0.0
C859 C 0.74829 0.46582 0.67514 0.0
C860 C 0.7518 0.48835 0.68494 0.0
C861 C 0.75782 0.51154 0.67642 0.0
C862 C 0.76208 0.51176 0.65847 0.0
C863 C 0.75147 0.48714 0.70414 0.0
C864 C 0.73489 0.50353 0.71356 0.0
C865 C 0.7676 0.4698 0.71313 0.0
C866 C 0.78674 0.45316 0.70402 0.0
C867 C 0.80575 0.46411 0.69324 0.0
C868 C 0.82351 0.44829 0.68451 0.0
C869 C 0.82259 0.4215 0.68658 0.0
C870 C 0.80395 0.41048 0.69743 0.0
C871 C 0.78612 0.42621 0.70617 0.0
H872 H 0.83635 0.40928 0.67981 0.0
H873 H 0.66884 0.56684 0.76571 0.0
H874 H 0.44592 0.77974 0.29061 0.0
H875 H 0.44721 0.76952 0.25989 0.0
H876 H 0.52614 0.74482 0.26411 0.0
H877 H 0.52524 0.75578 0.29506 0.0
H878 H 0.52052 0.77628 0.23764 0.0
H879 H 0.47608 0.70092 0.25727 0.0
H880 H 0.44293 0.67686 0.27358 0.0
H881 H 0.38379 0.71456 0.24462 0.0
H882 H 0.41654 0.73915 0.22831 0.0
H883 H 0.52209 0.74812 0.14882 0.0
H884 H 0.52331 0.73921 0.17987 0.0
H885 H 0.4446 0.76473 0.18531 0.0
H886 H 0.44296 0.77278 0.15412 0.0
H887 H 0.45368 0.72619 0.20711 0.0
H888 H 0.49575 0.80625 0.19181 0.0
H889 H 0.52728 0.83311 0.17602 0.0
H890 H 0.58908 0.78885 0.19749 0.0
H891 H 0.55787 0.76152 0.21325 0.0
C892 C 0.46354 0.7719 0.28511 0.0
C893 C 0.48552 0.76862 0.29531 0.0
C894 C 0.46416 0.76584 0.26751 0.0
C895 C 0.48662 0.75593 0.25973 0.0
C896 C 0.50854 0.75227 0.26989 0.0
C897 C 0.50801 0.75854 0.28755 0.0
C898 C 0.4876 0.75155 0.24072 0.0
C899 C 0.5063 0.76476 0.23101 0.0
C900 C 0.46858 0.73711 0.23203 0.0
C901 C 0.44882 0.72199 0.24162 0.0
C902 C 0.45601 0.70419 0.25444 0.0
C903 C 0.43728 0.69045 0.26368 0.0
C904 C 0.41127 0.69422 0.26016 0.0
C905 C 0.40394 0.71167 0.24734 0.0
C906 C 0.42259 0.72548 0.23807 0.0
C907 C 0.50489 0.7514 0.15659 0.0
C908 C 0.48253 0.7615 0.1491 0.0
C909 C 0.50564 0.74635 0.17433 0.0
C910 C 0.48426 0.75192 0.18498 0.0
C911 C 0.46138 0.7604 0.17736 0.0
C912 C 0.46047 0.76505 0.15953 0.0
C913 C 0.48638 0.7512 0.20413 0.0
C914 C 0.46823 0.73717 0.21382 0.0
C915 C 0.50571 0.76513 0.21287 0.0
C916 C 0.52449 0.78168 0.20354 0.0
C917 C 0.51606 0.80216 0.19307 0.0
C918 C 0.53387 0.81747 0.18414 0.0
C919 C 0.56017 0.81264 0.18571 0.0
C920 C 0.56871 0.79254 0.19626 0.0
C921 C 0.55097 0.77714 0.2052 0.0
H922 H 0.57392 0.82451 0.17878 0.0
H923 H 0.39679 0.68361 0.26735 0.0
H924 H 0.20466 0.53273 0.79557 0.0
H925 H 0.21001 0.53393 0.76403 0.0
H926 H 0.21183 0.45065 0.7624 0.0
H927 H 0.2068 0.44922 0.79385 0.0
H928 H 0.24625 0.47134 0.73954 0.0
H929 H 0.15693 0.48151 0.75463 0.0
H930 H 0.11953 0.50124 0.76957 0.0
H931 H 0.13583 0.57395 0.74521 0.0
H932 H 0.17354 0.55471 0.73028 0.0
H933 H 0.20527 0.45095 0.65203 0.0
H934 H 0.21123 0.45106 0.68348 0.0
H935 H 0.20874 0.53437 0.68379 0.0
H936 H 0.20259 0.53448 0.65256 0.0
H937 H 0.17621 0.51437 0.70737 0.0
H938 H 0.26465 0.50218 0.69059 0.0
H939 H 0.30101 0.48092 0.67545 0.0
H940 H 0.2853 0.41033 0.70263 0.0
H941 H 0.24861 0.43107 0.71777 0.0
C942 C 0.20657 0.51468 0.78853 0.0
C943 C 0.205 0.49088 0.79721 0.0
C944 C 0.20955 0.5154 0.77051 0.0
C945 C 0.21094 0.49236 0.76089 0.0
C946 C 0.21074 0.46864 0.76959 0.0
C947 C 0.20773 0.46788 0.78758 0.0
C948 C 0.21085 0.49286 0.7417 0.0
C949 C 0.23087 0.48059 0.73247 0.0
C950 C 0.19088 0.50513 0.73253 0.0
C951 C 0.16822 0.51675 0.74149 0.0
C952 C 0.15266 0.50176 0.75257 0.0
C953 C 0.13138 0.51284 0.76102 0.0
C954 C 0.12535 0.53885 0.75839 0.0
C955 C 0.14055 0.55381 0.74726 0.0
C956 C 0.16187 0.54283 0.7388 0.0
C957 C 0.20632 0.46928 0.65877 0.0
C958 C 0.20326 0.49268 0.6498 0.0
C959 C 0.20981 0.46932 0.67673 0.0
C960 C 0.21047 0.49275 0.68595 0.0
C961 C 0.2082 0.51609 0.67693 0.0
C962 C 0.2047 0.51608 0.65905 0.0
C963 C 0.21174 0.49305 0.70512 0.0
C964 C 0.19177 0.50535 0.71438 0.0
C965 C 0.23165 0.48062 0.71427 0.0
C966 C 0.25372 0.46812 0.70519 0.0
C967 C 0.26881 0.48206 0.69323 0.0
C968 C 0.28951 0.47012 0.68467 0.0
C969 C 0.29542 0.44427 0.68804 0.0
C970 C 0.28068 0.43034 0.70002 0.0
C971 C 0.25995 0.44219 0.70861 0.0
H972 H 0.31146 0.43506 0.6814 0.0
H973 H 0.10887 0.54738 0.76493 0.0
H974 H 0.52786 0.21805 0.29391 0.0
H975 H 0.52542 0.22547 0.2628 0.0
H976 H 0.44267 0.22346 0.26604 0.0
H977 H 0.4449 0.21577 0.29728 0.0
H978 H 0.46167 0.19084 0.24159 0.0
H979 H 0.47327 0.27954 0.2568 0.0
H980 H 0.49379 0.31651 0.27123 0.0
H981 H 0.56425 0.30093 0.24355 0.0
H982 H 0.54426 0.26364 0.22911 0.0
H983 H 0.44437 0.21602 0.15356 0.0
H984 H 0.4436 0.2237 0.18473 0.0
H985 H 0.52643 0.22289 0.18521 0.0
H986 H 0.52745 0.21541 0.15383 0.0
H987 H 0.50528 0.2597 0.20774 0.0
H988 H 0.49584 0.16937 0.19496 0.0
H989 H 0.47673 0.13139 0.1808 0.0
H990 H 0.40365 0.1491 0.20448 0.0
H991 H 0.42227 0.18743 0.2186 0.0
C992 C 0.5091 0.21953 0.28808 0.0
C993 C 0.48656 0.21612 0.29807 0.0
C994 C 0.50775 0.22396 0.27029 0.0
C995 C 0.48387 0.22516 0.26213 0.0
C996 C 0.46129 0.22265 0.27212 0.0
C997 C 0.46261 0.21831 0.28997 0.0
C998 C 0.48266 0.22655 0.24298 0.0
C999 C 0.47071 0.20622 0.23421 0.0
C1000 C 0.49523 0.24616 0.23337 0.0
C1001 C 0.5073 0.26866 0.24197 0.0
C1002 C 0.4932 0.28387 0.25389 0.0
C1003 C 0.50473 0.30491 0.26205 0.0
C1004 C 0.53032 0.31103 0.25833 0.0
C1005 C 0.54443 0.29616 0.24642 0.0
C1006 C 0.53299 0.27509 0.23822 0.0
C1007 C 0.46247 0.21781 0.16021 0.0
C1008 C 0.486 0.21472 0.15124 0.0
C1009 C 0.46197 0.22221 0.17803 0.0
C1010 C 0.48493 0.22342 0.18728 0.0
C1011 C 0.50849 0.22194 0.17827 0.0
C1012 C 0.50903 0.21759 0.16036 0.0
C1013 C 0.48422 0.22405 0.20646 0.0
C1014 C 0.49594 0.24458 0.21519 0.0
C1015 C 0.47161 0.20452 0.2161 0.0
C1016 C 0.46038 0.18143 0.20767 0.0
C1017 C 0.47564 0.16529 0.19703 0.0
C1018 C 0.46491 0.14368 0.18903 0.0
C1019 C 0.43898 0.13787 0.1917 0.0
C1020 C 0.42373 0.15364 0.2024 0.0
C1021 C 0.43436 0.17531 0.21041 0.0
H1022 H 0.43071 0.12112 0.1855 0.0
H1023 H 0.53921 0.32733 0.26467 0.0
H1024 H 0.22322 0.50736 0.89558 0.0
H1025 H 0.23526 0.51718 0.92563 0.0
H1026 H 0.19238 0.45101 0.94339 0.0
H1027 H 0.18014 0.4413 0.91374 0.0
H1028 H 0.20127 0.5268 0.95456 0.0
H1029 H 0.22676 0.42136 -0.02588 0.0
H1030 H 0.24737 0.383 0.96092 0.0
H1031 H 0.28959 0.43149 0.92572 0.0
H1032 H 0.26956 0.47019 0.93888 0.0
H1033 H 0.16266 0.47957 0.03529 0.0
H1034 H 0.17372 0.48922 0.00515 0.0
H1035 H 0.25345 0.49678 0.01874 0.0
H1036 H 0.24231 0.48779 0.04924 0.0
H1037 H 0.24213 0.46015 -0.00863 0.0
H1038 H 0.2296 0.54811 0.00508 0.0
H1039 H 0.20844 0.58619 0.01823 0.0
H1040 H 0.14187 0.57345 -0.01289 0.0
H1041 H 0.16244 0.53504 -0.02605 0.0
C1042 C 0.21647 0.49491 0.90593 0.0
C1043 C 0.20072 0.47359 0.90233 0.0
C1044 C 0.22334 0.50055 0.92302 0.0
C1045 C 0.21495 0.48462 0.93664 0.0
C1046 C 0.19934 0.46332 0.93302 0.0
C1047 C 0.19224 0.45789 0.91607 0.0
C1048 C 0.2213 0.49035 0.95487 0.0
C1049 C 0.21061 0.51251 0.96262 0.0
C1050 C 0.23402 0.47191 0.96523 0.0
C1051 C 0.24658 0.44871 0.95748 0.0
C1052 C 0.2406 0.42388 0.96366 0.0
C1053 C 0.25214 0.40206 0.95616 0.0
C1054 C 0.26975 0.4048 0.94248 0.0
C1055 C 0.2759 0.42939 0.9363 0.0
C1056 C 0.26443 0.45127 0.94376 0.0
C1057 C 0.18249 0.48373 0.03192 0.0
C1058 C 0.20167 0.48284 0.04452 0.0
C1059 C 0.18875 0.4894 0.01474 0.0
C1060 C 0.21435 0.49386 0.00979 0.0
C1061 C 0.23355 0.49359 0.0224 0.0
C1062 C 0.22718 0.48848 0.03974 0.0
C1063 C 0.22081 0.49585 -0.00886 0.0
C1064 C 0.23369 0.47497 -0.0167 0.0
C1065 C 0.21015 0.51548 -0.01928 0.0
C1066 C 0.19758 0.53861 -0.01145 0.0
C1067 C 0.21038 0.5533 0.00112 0.0
C1068 C 0.19849 0.57498 0.00857 0.0
C1069 C 0.17382 0.58223 0.00352 0.0
C1070 C 0.161 0.56783 -0.00901 0.0
C1071 C 0.17279 0.54612 -0.01649 0.0
H1072 H 0.16466 0.59902 0.0093 0.0
H1073 H 0.27864 0.38788 0.93667 0.0
H1074 H 0.48419 0.23571 0.39811 0.0
H1075 H 0.47259 0.24182 0.42888 0.0
H1076 H 0.51051 0.17005 0.44123 0.0
H1077 H 0.5221 0.1639 0.41089 0.0
H1078 H 0.46327 0.17532 0.45778 0.0
H1079 H 0.54104 0.22685 0.44601 0.0
H1080 H 0.56419 0.2623 0.43137 0.0
H1081 H 0.50871 0.31691 0.45105 0.0
H1082 H 0.48509 0.28168 0.46566 0.0
H1083 H 0.52755 0.16132 0.53399 0.0
H1084 H 0.51353 0.16916 0.50452 0.0
H1085 H 0.47516 0.23912 0.52112 0.0
H1086 H 0.48912 0.23126 0.55103 0.0
H1087 H 0.50672 0.24457 0.49081 0.0
H1088 H 0.43765 0.1929 0.51005 0.0
H1089 H 0.41622 0.15694 0.52523 0.0
H1090 H 0.45481 0.1024 0.49183 0.0
H1091 H 0.4768 0.13799 0.47662 0.0
C1092 C 0.48986 0.22121 0.40742 0.0
C1093 C 0.50418 0.19941 0.40213 0.0
C1094 C 0.48323 0.22472 0.42494 0.0
C1095 C 0.49068 0.20636 0.43729 0.0
C1096 C 0.50442 0.18436 0.43189 0.0
C1097 C 0.51119 0.18097 0.41454 0.0
C1098 C 0.48572 0.21007 0.45606 0.0
C1099 C 0.4725 0.19059 0.46504 0.0
C1100 C 0.49691 0.23057 0.46544 0.0
C1101 C 0.51114 0.25165 0.45671 0.0
C1102 C 0.53369 0.2464 0.44709 0.0
C1103 C 0.5469 0.26644 0.43883 0.0
C1104 C 0.53787 0.29183 0.44022 0.0
C1105 C 0.51564 0.29723 0.44994 0.0
C1106 C 0.50234 0.27724 0.45821 0.0
C1107 C 0.51606 0.17835 0.53146 0.0
C1108 C 0.50942 0.19567 0.54483 0.0
C1109 C 0.50792 0.18272 0.51461 0.0
C1110 C 0.49303 0.20452 0.51071 0.0
C1111 C 0.48649 0.22208 0.52395 0.0
C1112 C 0.49444 0.21756 0.54097 0.0
C1113 C 0.48561 0.20893 0.49252 0.0
C1114 C 0.49647 0.2299 0.48362 0.0
C1115 C 0.47223 0.18978 0.4832 0.0
C1116 C 0.45891 0.16818 0.49219 0.0
C1117 C 0.44168 0.17324 0.50599 0.0
C1118 C 0.42942 0.15291 0.5146 0.0
C1119 C 0.43415 0.1274 0.5095 0.0
C1120 C 0.45113 0.12217 0.49576 0.0
C1121 C 0.46346 0.14243 0.48711 0.0
H1122 H 0.42465 0.11168 0.51619 0.0
H1123 H 0.54813 0.30733 0.43382 0.0
H1124 H 0.75347 0.47373 0.04988 0.0
H1125 H 0.74212 0.46593 0.0194 0.0
H1126 H 0.78774 0.53153 0.00393 0.0
H1127 H 0.79929 0.53919 0.03393 0.0
H1128 H 0.73811 0.53046 -0.01064 0.0
H1129 H 0.81229 0.4737 -0.00035 0.0
H1130 H 0.83372 0.43729 0.01421 0.0
H1131 H 0.77442 0.38594 -0.0027 0.0
H1132 H 0.75248 0.42218 -0.01719 0.0
H1133 H 0.79981 0.53526 0.91078 0.0
H1134 H 0.78842 0.52831 0.94106 0.0
H1135 H 0.7388 0.46549 0.92669 0.0
H1136 H 0.74997 0.47256 0.89593 0.0
H1137 H 0.7748 0.45642 0.95626 0.0
H1138 H 0.70796 0.51273 0.93896 0.0
H1139 H 0.68859 0.54971 0.9238 0.0
H1140 H 0.73396 0.60218 0.9537 0.0
H1141 H 0.75393 0.56552 0.96885 0.0
C1142 C 0.761 0.48644 0.03993 0.0
C1143 C 0.7773 0.50703 0.04427 0.0
C1144 C 0.75452 0.48197 0.02259 0.0
C1145 C 0.76402 0.49826 0.00949 0.0
C1146 C 0.78008 0.51886 0.01388 0.0
C1147 C 0.78678 0.52311 0.03104 0.0
C1148 C 0.75809 0.49409 -0.00899 0.0
C1149 C 0.74581 0.51413 -0.01789 0.0
C1150 C 0.76738 0.47235 -0.01831 0.0
C1151 C 0.78057 0.45067 -0.00961 0.0
C1152 C 0.8037 0.45469 -0.00081 0.0
C1153 C 0.81597 0.43408 0.00739 0.0
C1154 C 0.80538 0.40933 0.00674 0.0
C1155 C 0.78256 0.40513 -0.00217 0.0
C1156 C 0.7702 0.42569 -0.01037 0.0
C1157 C 0.78649 0.51991 0.91396 0.0
C1158 C 0.77572 0.5045 0.90095 0.0
C1159 C 0.77995 0.51602 0.93129 0.0
C1160 C 0.76262 0.49656 0.93604 0.0
C1161 C 0.75214 0.48068 0.9232 0.0
C1162 C 0.75848 0.48478 0.9057 0.0
C1163 C 0.75597 0.49345 0.95459 0.0
C1164 C 0.76597 0.47216 0.96352 0.0
C1165 C 0.74457 0.51407 0.96399 0.0
C1166 C 0.73249 0.53632 0.95503 0.0
C1167 C 0.71393 0.53215 0.94224 0.0
C1168 C 0.70283 0.55306 0.93365 0.0
C1169 C 0.71005 0.57828 0.93778 0.0
C1170 C 0.72836 0.58264 0.95053 0.0
C1171 C 0.73955 0.56179 0.95915 0.0
H1172 H 0.70143 0.59445 0.93111 0.0
H1173 H 0.81491 0.3934 0.01309 0.0
H1174 H 0.44515 0.81166 0.53616 0.0
H1175 H 0.44967 0.80155 0.50552 0.0
H1176 H 0.48602 0.72901 0.51787 0.0
H1177 H 0.48174 0.73917 0.549 0.0
H1178 H 0.50926 0.75808 0.48882 0.0
H1179 H 0.42776 0.72423 0.50677 0.0
H1180 H 0.38636 0.7258 0.52267 0.0
H1181 H 0.36318 0.79153 0.49277 0.0
H1182 H 0.40455 0.79065 0.4769 0.0
H1183 H 0.48591 0.74605 0.39551 0.0
H1184 H 0.48957 0.7342 0.42626 0.0
H1185 H 0.44586 0.80207 0.44068 0.0
H1186 H 0.442 0.81382 0.41039 0.0
H1187 H 0.42759 0.75891 0.45636 0.0
H1188 H 0.51079 0.79964 0.44465 0.0
H1189 H 0.55295 0.80258 0.42984 0.0
H1190 H 0.57288 0.7269 0.44811 0.0
H1191 H 0.53066 0.72342 0.46285 0.0
C1192 C 0.45425 0.79358 0.53246 0.0
C1193 C 0.46283 0.77607 0.54501 0.0
C1194 C 0.45682 0.78784 0.51491 0.0
C1195 C 0.4678 0.76438 0.50948 0.0
C1196 C 0.47737 0.74717 0.52187 0.0
C1197 C 0.47485 0.75296 0.53959 0.0
C1198 C 0.46796 0.75805 0.49079 0.0
C1199 C 0.49145 0.75746 0.48168 0.0
C1200 C 0.44467 0.75738 0.48156 0.0
C1201 C 0.41932 0.75736 0.49065 0.0
C1202 C 0.41386 0.73905 0.50361 0.0
C1203 C 0.39039 0.73983 0.51263 0.0
C1204 C 0.37218 0.75878 0.50874 0.0
C1205 C 0.3773 0.77686 0.49576 0.0
C1206 C 0.40073 0.77618 0.48672 0.0
C1207 C 0.47723 0.75845 0.40529 0.0
C1208 C 0.46355 0.78079 0.40053 0.0
C1209 C 0.47933 0.75166 0.42281 0.0
C1210 C 0.46783 0.76719 0.43571 0.0
C1211 C 0.45464 0.78967 0.43092 0.0
C1212 C 0.45254 0.79641 0.41357 0.0
C1213 C 0.46885 0.76047 0.45434 0.0
C1214 C 0.44545 0.75847 0.46344 0.0
C1215 C 0.49218 0.75899 0.46349 0.0
C1216 C 0.51747 0.76112 0.45463 0.0
C1217 C 0.52408 0.78354 0.44536 0.0
C1218 C 0.54799 0.78533 0.43702 0.0
C1219 C 0.56555 0.7649 0.43797 0.0
C1220 C 0.55924 0.74268 0.44733 0.0
C1221 C 0.53533 0.74079 0.45569 0.0
H1222 H 0.58406 0.76632 0.43151 0.0
H1223 H 0.3541 0.75953 0.5158 0.0
H1224 H 0.23216 0.47994 0.39652 0.0
H1225 H 0.24446 0.47302 0.42689 0.0
H1226 H 0.19773 0.53828 0.44245 0.0
H1227 H 0.1854 0.54516 0.41255 0.0
H1228 H 0.24604 0.53822 0.45754 0.0
H1229 H 0.17484 0.47811 0.44598 0.0
H1230 H 0.15609 0.44073 0.43087 0.0
H1231 H 0.21798 0.39253 0.44813 0.0
H1232 H 0.23723 0.42975 0.46318 0.0
H1233 H 0.17894 0.54172 0.53375 0.0
H1234 H 0.1937 0.5352 0.50407 0.0
H1235 H 0.24311 0.47307 0.52045 0.0
H1236 H 0.22844 0.47968 0.55066 0.0
H1237 H 0.21124 0.46291 0.4897 0.0
H1238 H 0.27368 0.52207 0.50902 0.0
H1239 H 0.2902 0.55993 0.52473 0.0
H1240 H 0.2449 0.61029 0.49313 0.0
H1241 H 0.22778 0.57274 0.4774 0.0
C1242 C 0.22466 0.49282 0.40646 0.0
C1243 C 0.20774 0.51303 0.40218 0.0
C1244 C 0.2317 0.48886 0.42375 0.0
C1245 C 0.22205 0.50521 0.43687 0.0
C1246 C 0.20554 0.52556 0.4325 0.0
C1247 C 0.19837 0.52936 0.4154 0.0
C1248 C 0.22785 0.50111 0.45539 0.0
C1249 C 0.23879 0.52162 0.4646 0.0
C1250 C 0.21926 0.479 0.46448 0.0
C1251 C 0.20764 0.45673 0.45548 0.0
C1252 C 0.18454 0.45958 0.44642 0.0
C1253 C 0.17381 0.43843 0.4379 0.0
C1254 C 0.18589 0.41429 0.43848 0.0
C1255 C 0.20868 0.41125 0.44764 0.0
C1256 C 0.21951 0.43235 0.45617 0.0
C1257 C 0.19296 0.52664 0.53115 0.0
C1258 C 0.20257 0.51124 0.54457 0.0
C1259 C 0.20146 0.52302 0.51416 0.0
C1260 C 0.2197 0.50388 0.51014 0.0
C1261 C 0.22913 0.48806 0.52338 0.0
C1262 C 0.22078 0.49188 0.54057 0.0
C1263 C 0.22802 0.50074 0.49185 0.0
C1264 C 0.2197 0.47896 0.48267 0.0
C1265 C 0.23902 0.52172 0.48275 0.0
C1266 C 0.24944 0.54452 0.49202 0.0
C1267 C 0.26714 0.54121 0.50547 0.0
C1268 C 0.27662 0.56262 0.51438 0.0
C1269 C 0.26861 0.5875 0.50993 0.0
C1270 C 0.25113 0.59101 0.49654 0.0
C1271 C 0.24157 0.56966 0.4876 0.0
H1272 H 0.27596 0.60406 0.51685 0.0
H1273 H 0.17754 0.39793 0.43188 0.0
H1274 H 0.44825 0.16446 0.91058 0.0
H1275 H 0.4539 0.17448 0.94107 0.0
H1276 H 0.5005 0.24027 0.92747 0.0
H1277 H 0.49496 0.23025 0.89652 0.0
H1278 H 0.5197 0.2092 0.95594 0.0
H1279 H 0.44378 0.25403 0.94007 0.0
H1280 H 0.40196 0.26013 0.92601 0.0
H1281 H 0.36943 0.19962 0.95716 0.0
H1282 H 0.41117 0.19278 0.97118 0.0
H1283 H 0.49709 0.22896 0.04982 0.0
H1284 H 0.50239 0.23874 0.01876 0.0
H1285 H 0.45501 0.17333 0.00616 0.0
H1286 H 0.44974 0.16344 0.03675 0.0
H1287 H 0.43951 0.2199 -0.00928 0.0
H1288 H 0.51764 0.16917 0.00088 0.0
H1289 H 0.55951 0.16165 0.01465 0.0
H1290 H 0.58743 0.2336 -0.00562 0.0
H1291 H 0.54557 0.24168 -0.01932 0.0
C1292 C 0.45982 0.18102 0.91398 0.0
C1293 C 0.47097 0.19671 0.90113 0.0
C1294 C 0.46299 0.18674 0.93143 0.0
C1295 C 0.47727 0.20833 0.93648 0.0
C1296 C 0.48928 0.22361 0.92377 0.0
C1297 C 0.48606 0.21789 0.90616 0.0
C1298 C 0.47869 0.21472 0.95513 0.0
C1299 C 0.5023 0.21228 0.96356 0.0
C1300 C 0.45595 0.21876 0.96501 0.0
C1301 C 0.43068 0.22288 0.95667 0.0
C1302 C 0.42776 0.24191 0.94385 0.0
C1303 C 0.40405 0.24551 0.93589 0.0
C1304 C 0.38304 0.23029 0.9407 0.0
C1305 C 0.38571 0.21142 0.95347 0.0
C1306 C 0.40939 0.2077 0.96145 0.0
C1307 C 0.48801 0.2166 0.04038 0.0
C1308 C 0.47286 0.19553 0.04573 0.0
C1309 C 0.49107 0.2222 0.02269 0.0
C1310 C 0.47892 0.20684 0.01024 0.0
C1311 C 0.46436 0.18553 0.0156 0.0
C1312 C 0.46143 0.17987 0.03311 0.0
C1313 C 0.48025 0.21287 -0.00846 0.0
C1314 C 0.45706 0.21776 -0.0169 0.0
C1315 C 0.50332 0.2111 -0.01826 0.0
C1316 C 0.5284 0.2062 -0.01002 0.0
C1317 C 0.53263 0.1835 -0.00048 0.0
C1318 C 0.55637 0.17911 0.00727 0.0
C1319 C 0.57608 0.19718 0.00545 0.0
C1320 C 0.57212 0.21965 -0.00418 0.0
C1321 C 0.5484 0.22414 -0.01194 0.0
H1322 H 0.59446 0.19374 0.01146 0.0
H1323 H 0.36468 0.23312 0.93456 0.0
H1324 H 0.80215 0.43596 0.41085 0.0
H1325 H 0.78886 0.44154 0.44092 0.0
H1326 H 0.73698 0.50265 0.42633 0.0
H1327 H 0.75022 0.49707 0.39577 0.0
H1328 H 0.76892 0.51358 0.45609 0.0
H1329 H 0.70935 0.45066 0.43764 0.0
H1330 H 0.69468 0.41169 0.42229 0.0
H1331 H 0.74352 0.36444 0.45363 0.0
H1332 H 0.7588 0.40315 0.469 0.0
H1333 H 0.74685 0.49734 0.54926 0.0
H1334 H 0.73571 0.50303 0.51856 0.0
H1335 H 0.78642 0.44003 0.5046 0.0
H1336 H 0.79765 0.43437 0.53483 0.0
H1337 H 0.73865 0.43692 0.48888 0.0
H1338 H 0.80619 0.50061 0.50023 0.0
H1339 H 0.82333 0.53914 0.51491 0.0
H1340 H 0.75996 0.58441 0.49661 0.0
H1341 H 0.7423 0.54601 0.48199 0.0
C1342 C 0.7879 0.45062 0.41394 0.0
C1343 C 0.77718 0.46604 0.40092 0.0
C1344 C 0.78023 0.45369 0.43115 0.0
C1345 C 0.7617 0.47226 0.43578 0.0
C1346 C 0.75119 0.4881 0.42294 0.0
C1347 C 0.75873 0.48486 0.40555 0.0
C1348 C 0.75417 0.47486 0.45425 0.0
C1349 C 0.76148 0.49716 0.46326 0.0
C1350 C 0.74456 0.45337 0.46354 0.0
C1351 C 0.73523 0.42988 0.45448 0.0
C1352 C 0.71707 0.43198 0.44121 0.0
C1353 C 0.70863 0.40993 0.4325 0.0
C1354 C 0.71815 0.38561 0.43699 0.0
C1355 C 0.73612 0.3833 0.45019 0.0
C1356 C 0.74463 0.40529 0.45894 0.0
C1357 C 0.75552 0.48471 0.5396 0.0
C1358 C 0.77317 0.46546 0.54443 0.0
C1359 C 0.74915 0.48798 0.52212 0.0
C1360 C 0.76019 0.47186 0.50937 0.0
C1361 C 0.77754 0.45253 0.51427 0.0
C1362 C 0.78406 0.44944 0.53156 0.0
C1363 C 0.75473 0.47506 0.49072 0.0
C1364 C 0.74498 0.45377 0.48169 0.0
C1365 C 0.76213 0.49742 0.48145 0.0
C1366 C 0.77274 0.52041 0.49025 0.0
C1367 C 0.7958 0.51873 0.49948 0.0
C1368 C 0.80563 0.54055 0.50776 0.0
C1369 C 0.79269 0.56419 0.50675 0.0
C1370 C 0.76992 0.56607 0.49742 0.0
C1371 C 0.76 0.5443 0.48914 0.0
H1372 H 0.80033 0.58106 0.51316 0.0
H1373 H 0.71157 0.36855 0.43026 0.0
H1374 H 0.51081 0.82079 0.03612 0.0
H1375 H 0.49962 0.81486 0.00586 0.0
H1376 H 0.46511 0.74137 0.01802 0.0
H1377 H 0.47626 0.74726 0.04868 0.0
H1378 H 0.49913 0.73946 -0.01038 0.0
H1379 H 0.42599 0.78785 0.00668 0.0
H1380 H 0.40145 0.82247 0.02143 0.0
H1381 H 0.44061 0.87948 -0.00927 0.0
H1382 H 0.46569 0.84525 -0.02403 0.0
H1383 H 0.48 0.74678 0.89685 0.0
H1384 H 0.46789 0.74118 0.92754 0.0
H1385 H 0.50272 0.81442 0.93965 0.0
H1386 H 0.51489 0.82003 0.90934 0.0
H1387 H 0.45527 0.80782 0.95594 0.0
H1388 H 0.53541 0.75985 0.94561 0.0
H1389 H 0.56145 0.72575 0.93141 0.0
H1390 H 0.50874 0.66811 0.94987 0.0
H1391 H 0.48222 0.70196 0.964 0.0
C1392 C 0.50065 0.80343 0.03244 0.0
C1393 C 0.49444 0.78446 0.04477 0.0
C1394 C 0.49412 0.80015 0.01514 0.0
C1395 C 0.48127 0.77782 0.00974 0.0
C1396 C 0.47487 0.75881 0.02199 0.0
C1397 C 0.4812 0.76223 0.03945 0.0
C1398 C 0.47622 0.77417 -0.00895 0.0
C1399 C 0.48884 0.75393 -0.01773 0.0
C1400 C 0.46293 0.79316 -0.01851 0.0
C1401 C 0.44778 0.81392 -0.00977 0.0
C1402 C 0.42949 0.80777 0.00314 0.0
C1403 C 0.41547 0.82734 0.0115 0.0
C1404 C 0.41947 0.85316 0.00703 0.0
C1405 C 0.4375 0.85947 -0.00583 0.0
C1406 C 0.45159 0.83998 -0.01423 0.0
C1407 C 0.48486 0.76172 0.90608 0.0
C1408 C 0.49853 0.78376 0.90073 0.0
C1409 C 0.47795 0.7585 0.92356 0.0
C1410 C 0.48444 0.7774 0.93583 0.0
C1411 C 0.49741 0.79968 0.93037 0.0
C1412 C 0.50451 0.80277 0.91305 0.0
C1413 C 0.47921 0.77386 0.95457 0.0
C1414 C 0.46468 0.79279 0.96334 0.0
C1415 C 0.49073 0.7537 0.96411 0.0
C1416 C 0.50667 0.73342 0.95563 0.0
C1417 C 0.52926 0.73992 0.9465 0.0
C1418 C 0.54413 0.72065 0.9385 0.0
C1419 C 0.5367 0.69479 0.93968 0.0
C1420 C 0.51443 0.68815 0.94892 0.0
C1421 C 0.49948 0.70737 0.95693 0.0
H1422 H 0.54824 0.67989 0.93348 0.0
H1423 H 0.4086 0.86828 0.01352 0.0
H1424 H 0.26029 0.39491 0.09651 0.0
H1425 H 0.28419 0.35456 0.09498 0.0
H1426 H 0.21338 0.31187 0.09243 0.0
H1427 H 0.1889 0.35272 0.09389 0.0
H1428 H 0.25258 0.29113 0.11617 0.0
H1429 H 0.24333 0.31416 0.05703 0.0
H1430 H 0.24272 0.34342 0.03188 0.0
H1431 H 0.32268 0.36001 0.03878 0.0
H1432 H 0.3237 0.33116 0.06415 0.0
H1433 H 0.34919 0.18987 0.09857 0.0
H1434 H 0.30915 0.21513 0.0962 0.0
H1435 H 0.35318 0.28552 0.09513 0.0
H1436 H 0.39271 0.26084 0.09756 0.0
H1437 H 0.31738 0.28256 0.06875 0.0
H1438 H 0.32299 0.26777 0.13126 0.0
H1439 H 0.32395 0.23995 0.15716 0.0
H1440 H 0.25082 0.20799 0.14374 0.0
H1441 H 0.24961 0.23542 0.11763 0.0
C1442 C 0.24964 0.37702 0.09567 0.0
C1443 C 0.22265 0.37706 0.09523 0.0
C1444 C 0.26338 0.35394 0.09476 0.0
C1445 C 0.25056 0.33028 0.09341 0.0
C1446 C 0.22359 0.33 0.09341 0.0
C1447 C 0.20969 0.35329 0.09419 0.0
C1448 C 0.26603 0.3063 0.09173 0.0
C1449 C 0.26627 0.28873 0.10556 0.0
C1450 C 0.28393 0.3033 0.07792 0.0
C1451 C 0.28355 0.32051 0.06254 0.0
C1452 C 0.26075 0.32415 0.05325 0.0
C1453 C 0.26034 0.34066 0.03895 0.0
C1454 C 0.28264 0.35358 0.03374 0.0
C1455 C 0.30543 0.34997 0.04282 0.0
C1456 C 0.30594 0.3335 0.05715 0.0
C1457 C 0.35023 0.21074 0.0979 0.0
C1458 C 0.37413 0.22334 0.09823 0.0
C1459 C 0.32739 0.2251 0.09655 0.0
C1460 C 0.32826 0.25218 0.0954 0.0
C1461 C 0.35208 0.26464 0.09587 0.0
C1462 C 0.3747 0.25045 0.09734 0.0
C1463 C 0.30475 0.26817 0.09357 0.0
C1464 C 0.30308 0.2843 0.07905 0.0
C1465 C 0.2856 0.26977 0.10672 0.0
C1466 C 0.28638 0.25334 0.12238 0.0
C1467 C 0.30724 0.25462 0.13375 0.0
C1468 C 0.3078 0.23898 0.14848 0.0
C1469 C 0.28751 0.22214 0.15206 0.0
C1470 C 0.26656 0.22098 0.14093 0.0
C1471 C 0.26593 0.23657 0.12617 0.0
H1472 H 0.28797 0.21005 0.16347 0.0
H1473 H 0.28228 0.36636 0.02267 0.0
H1474 H 0.72442 0.38508 0.61632 0.0
H1475 H 0.70283 0.34366 0.61854 0.0
H1476 H 0.76879 0.30567 0.59544 0.0
H1477 H 0.79077 0.34757 0.59311 0.0
H1478 H 0.72291 0.29166 0.58019 0.0
H1479 H 0.75591 0.29398 0.63702 0.0
H1480 H 0.76687 0.31323 0.66521 0.0
H1481 H 0.68686 0.32596 0.67658 0.0
H1482 H 0.67541 0.30716 0.64834 0.0
H1483 H 0.63492 0.185 0.59164 0.0
H1484 H 0.67548 0.20892 0.59418 0.0
H1485 H 0.63443 0.27264 0.6179 0.0
H1486 H 0.59432 0.24911 0.61549 0.0
H1487 H 0.67937 0.26284 0.63431 0.0
H1488 H 0.64896 0.27229 0.5748 0.0
H1489 H 0.63711 0.25541 0.54607 0.0
H1490 H 0.71215 0.22161 0.53989 0.0
H1491 H 0.72431 0.23807 0.5687 0.0
C1492 C 0.73452 0.36794 0.61185 0.0
C1493 C 0.7593 0.3696 0.60452 0.0
C1494 C 0.72219 0.3442 0.61324 0.0
C1495 C 0.73432 0.32152 0.60736 0.0
C1496 C 0.75919 0.32295 0.60016 0.0
C1497 C 0.77171 0.34684 0.59888 0.0
C1498 C 0.71985 0.2969 0.60785 0.0
C1499 C 0.714 0.2848 0.5921 0.0
C1500 C 0.70809 0.28808 0.62337 0.0
C1501 C 0.71481 0.29916 0.64051 0.0
C1502 C 0.74064 0.30099 0.64549 0.0
C1503 C 0.74695 0.31183 0.66149 0.0
C1504 C 0.72757 0.32082 0.67268 0.0
C1505 C 0.70185 0.31895 0.6679 0.0
C1506 C 0.69544 0.30815 0.65191 0.0
C1507 C 0.63468 0.204 0.59754 0.0
C1508 C 0.61142 0.21525 0.60325 0.0
C1509 C 0.65781 0.21763 0.59896 0.0
C1510 C 0.65794 0.2426 0.60618 0.0
C1511 C 0.63483 0.25338 0.61236 0.0
C1512 C 0.61185 0.23993 0.61087 0.0
C1513 C 0.68152 0.25857 0.60658 0.0
C1514 C 0.68905 0.26903 0.62251 0.0
C1515 C 0.69474 0.26594 0.59124 0.0
C1516 C 0.68741 0.25607 0.57397 0.0
C1517 C 0.66284 0.26107 0.56737 0.0
C1518 C 0.65609 0.25162 0.55107 0.0
C1519 C 0.67383 0.23736 0.54119 0.0
C1520 C 0.6984 0.23259 0.54758 0.0
C1521 C 0.70523 0.24197 0.56389 0.0
H1522 H 0.66857 0.23007 0.52857 0.0
H1523 H 0.7325 0.32922 0.68505 0.0
H1524 H 0.71805 0.58589 0.10546 0.0
H1525 H 0.69229 0.62501 0.10363 0.0
H1526 H 0.76026 0.66949 0.09228 0.0
H1527 H 0.78659 0.6299 0.09396 0.0
H1528 H 0.72041 0.69227 0.11787 0.0
H1529 H 0.72971 0.66032 0.05988 0.0
H1530 H 0.73112 0.62657 0.03728 0.0
H1531 H 0.65268 0.6069 0.04872 0.0
H1532 H 0.65092 0.64026 0.07159 0.0
H1533 H 0.62166 0.78737 0.09589 0.0
H1534 H 0.66205 0.76247 0.09485 0.0
H1535 H 0.61888 0.69156 0.09693 0.0
H1536 H 0.57895 0.71595 0.09788 0.0
H1537 H 0.6552 0.69035 0.07152 0.0
H1538 H 0.64857 0.71539 0.13241 0.0
H1539 H 0.6464 0.74698 0.15637 0.0
H1540 H 0.71892 0.77865 0.14016 0.0
H1541 H 0.72134 0.74742 0.11595 0.0
C1542 C 0.72771 0.60394 0.10272 0.0
C1543 C 0.75439 0.60472 0.09969 0.0
C1544 C 0.71291 0.62631 0.1017 0.0
C1545 C 0.72436 0.65003 0.09767 0.0
C1546 C 0.75113 0.65129 0.09539 0.0
C1547 C 0.76608 0.6287 0.09631 0.0
C1548 C 0.70757 0.67275 0.0949 0.0
C1549 C 0.70658 0.69237 0.10747 0.0
C1550 C 0.68942 0.6726 0.08144 0.0
C1551 C 0.69023 0.65275 0.0675 0.0
C1552 C 0.71281 0.64869 0.05765 0.0
C1553 C 0.71367 0.62964 0.04478 0.0
C1554 C 0.69202 0.61458 0.04158 0.0
C1555 C 0.66944 0.61859 0.05121 0.0
C1556 C 0.66849 0.6376 0.06411 0.0
C1557 C 0.62088 0.76648 0.09616 0.0
C1558 C 0.5971 0.75365 0.09692 0.0
C1559 C 0.64393 0.75231 0.09559 0.0
C1560 C 0.64345 0.72516 0.09577 0.0
C1561 C 0.61972 0.71247 0.09665 0.0
C1562 C 0.59687 0.7265 0.09726 0.0
C1563 C 0.66729 0.70937 0.09489 0.0
C1564 C 0.66955 0.69092 0.0816 0.0
C1565 C 0.68646 0.71061 0.10772 0.0
C1566 C 0.68496 0.72934 0.12224 0.0
C1567 C 0.66393 0.72925 0.13386 0.0
C1568 C 0.66268 0.74705 0.14751 0.0
C1569 C 0.68246 0.76488 0.14975 0.0
C1570 C 0.70358 0.76488 0.13838 0.0
C1571 C 0.7049 0.74714 0.1247 0.0
H1572 H 0.68147 0.77863 0.16033 0.0
H1573 H 0.69272 0.59983 0.03161 0.0
H1574 H 0.24272 0.59465 0.61983 0.0
H1575 H 0.26596 0.63529 0.62145 0.0
H1576 H 0.21008 0.6714 0.58847 0.0
H1577 H 0.18639 0.63043 0.58686 0.0
H1578 H 0.261 0.67854 0.57741 0.0
H1579 H 0.21211 0.69123 0.62901 0.0
H1580 H 0.19222 0.67942 0.65704 0.0
H1581 H 0.26682 0.66646 0.67853 0.0
H1582 H 0.28718 0.67782 0.65056 0.0
H1583 H 0.34637 0.78682 0.58829 0.0
H1584 H 0.3054 0.76326 0.58888 0.0
H1585 H 0.33908 0.70534 0.62175 0.0
H1586 H 0.3798 0.72842 0.62106 0.0
H1587 H 0.2897 0.71884 0.63223 0.0
H1588 H 0.33683 0.69513 0.57987 0.0
H1589 H 0.35783 0.70218 0.55145 0.0
H1590 H 0.28747 0.73289 0.53145 0.0
H1591 H 0.26615 0.72638 0.55986 0.0
C1592 C 0.23513 0.61129 0.61308 0.0
C1593 C 0.21276 0.60935 0.60318 0.0
C1594 C 0.24837 0.63458 0.61412 0.0
C1595 C 0.23962 0.65643 0.60522 0.0
C1596 C 0.21703 0.65477 0.59552 0.0
C1597 C 0.20351 0.63143 0.59466 0.0
C1598 C 0.25556 0.68011 0.6051 0.0
C1599 C 0.26668 0.68797 0.58933 0.0
C1600 C 0.26329 0.69201 0.62071 0.0
C1601 C 0.25117 0.68532 0.63764 0.0
C1602 C 0.22428 0.68572 0.63968 0.0
C1603 C 0.21292 0.67912 0.65556 0.0
C1604 C 0.22824 0.67218 0.66955 0.0
C1605 C 0.25497 0.67187 0.66769 0.0
C1606 C 0.26644 0.67843 0.65182 0.0
C1607 C 0.34484 0.76926 0.59583 0.0
C1608 C 0.36627 0.75936 0.60456 0.0
C1609 C 0.32151 0.75581 0.59611 0.0
C1610 C 0.31927 0.73252 0.60531 0.0
C1611 C 0.34036 0.7233 0.61462 0.0
C1612 C 0.36366 0.73646 0.61414 0.0
C1613 C 0.29571 0.71659 0.60461 0.0
C1614 C 0.28328 0.71012 0.62024 0.0
C1615 C 0.28694 0.70579 0.5889 0.0
C1616 C 0.30002 0.71067 0.57206 0.0
C1617 C 0.32595 0.70376 0.56949 0.0
C1618 C 0.33788 0.70757 0.55337 0.0
C1619 C 0.32399 0.71801 0.53967 0.0
C1620 C 0.2982 0.72485 0.54209 0.0
C1621 C 0.28619 0.72113 0.5582 0.0
H1622 H 0.33315 0.72061 0.52714 0.0
H1623 H 0.21941 0.66707 0.68184 0.0
H1624 H 0.38751 0.727 0.33047 0.0
H1625 H 0.34759 0.70335 0.32772 0.0
H1626 H 0.30514 0.76907 0.34747 0.0
H1627 H 0.34558 0.79315 0.35042 0.0
H1628 H 0.29155 0.72297 0.36345 0.0
H1629 H 0.29827 0.75363 0.30561 0.0
H1630 H 0.32058 0.76394 0.27812 0.0
H1631 H 0.33811 0.68363 0.27023 0.0
H1632 H 0.31612 0.67283 0.29776 0.0
H1633 H 0.18943 0.63155 0.35126 0.0
H1634 H 0.21257 0.67263 0.34821 0.0
H1635 H 0.27801 0.63177 0.32671 0.0
H1636 H 0.25516 0.59109 0.32954 0.0
H1637 H 0.2698 0.67605 0.30947 0.0
H1638 H 0.27426 0.64794 0.36974 0.0
H1639 H 0.25546 0.63632 0.39816 0.0
H1640 H 0.21937 0.71091 0.40183 0.0
H1641 H 0.23775 0.72284 0.3733 0.0
C1642 C 0.36973 0.73661 0.33413 0.0
C1643 C 0.36972 0.76196 0.34068 0.0
C1644 C 0.34685 0.72309 0.33242 0.0
C1645 C 0.32334 0.73457 0.33714 0.0
C1646 C 0.3231 0.75996 0.34363 0.0
C1647 C 0.34615 0.77367 0.34527 0.0
C1648 C 0.29955 0.719 0.33612 0.0
C1649 C 0.28621 0.71331 0.35154 0.0
C1650 C 0.29283 0.70617 0.32061 0.0
C1651 C 0.30553 0.71243 0.30378 0.0
C1652 C 0.30692 0.73816 0.29804 0.0
C1653 C 0.31951 0.74409 0.28244 0.0
C1654 C 0.33075 0.72445 0.27244 0.0
C1655 C 0.32934 0.69881 0.27798 0.0
C1656 C 0.31674 0.69277 0.29355 0.0
C1657 C 0.20863 0.63144 0.3457 0.0
C1658 C 0.22055 0.60807 0.34077 0.0
C1659 C 0.22183 0.65489 0.344 0.0
C1660 C 0.24709 0.65524 0.33733 0.0
C1661 C 0.25853 0.63201 0.33183 0.0
C1662 C 0.24547 0.60871 0.33356 0.0
C1663 C 0.26262 0.67922 0.33695 0.0
C1664 C 0.27443 0.68645 0.32124 0.0
C1665 C 0.26808 0.6933 0.35221 0.0
C1666 C 0.25705 0.68613 0.36931 0.0
C1667 C 0.26213 0.66177 0.37655 0.0
C1668 C 0.25159 0.65515 0.39268 0.0
C1669 C 0.23615 0.67283 0.40177 0.0
C1670 C 0.23128 0.69721 0.39476 0.0
C1671 C 0.24174 0.70391 0.37861 0.0
H1672 H 0.22801 0.66767 0.41426 0.0
H1673 H 0.34054 0.72909 0.26039 0.0
H1674 H 0.39186 0.25815 0.83841 0.0
H1675 H 0.35234 0.28317 0.84014 0.0
H1676 H 0.31012 0.2148 0.85447 0.0
H1677 H 0.3501 0.18922 0.85273 0.0
H1678 H 0.28456 0.24945 0.82963 0.0
H1679 H 0.32213 0.25163 0.88553 0.0
H1680 H 0.35723 0.25565 0.90647 0.0
H1681 H 0.3707 0.33363 0.88998 0.0
H1682 H 0.33607 0.3299 0.86863 0.0
H1683 H 0.18874 0.34989 0.85284 0.0
H1684 H 0.21473 0.31006 0.85386 0.0
H1685 H 0.2826 0.35395 0.84109 0.0
H1686 H 0.25714 0.39332 0.83996 0.0
H1687 H 0.2874 0.32327 0.87072 0.0
H1688 H 0.25647 0.31746 0.81133 0.0
H1689 H 0.22257 0.31375 0.78943 0.0
H1690 H 0.19659 0.2431 0.81273 0.0
H1691 H 0.23017 0.2466 0.83491 0.0
C1692 C 0.37422 0.24825 0.84181 0.0
C1693 C 0.37418 0.22172 0.84562 0.0
C1694 C 0.35161 0.26262 0.84279 0.0
C1695 C 0.32842 0.2509 0.84768 0.0
C1696 C 0.32791 0.22418 0.85074 0.0
C1697 C 0.35071 0.20965 0.84977 0.0
C1698 C 0.30541 0.26739 0.85035 0.0
C1699 C 0.28477 0.26522 0.83892 0.0
C1700 C 0.30579 0.28796 0.86245 0.0
C1701 C 0.32651 0.29043 0.87542 0.0
C1702 C 0.33268 0.26958 0.88628 0.0
C1703 C 0.3525 0.27182 0.89824 0.0
C1704 C 0.36617 0.29489 0.89958 0.0
C1705 C 0.36007 0.31577 0.88894 0.0
C1706 C 0.34033 0.31361 0.87691 0.0
C1707 C 0.20916 0.35092 0.85007 0.0
C1708 C 0.22091 0.37478 0.84643 0.0
C1709 C 0.22393 0.3282 0.85066 0.0
C1710 C 0.25058 0.32917 0.84767 0.0
C1711 C 0.26209 0.35284 0.84357 0.0
C1712 C 0.24745 0.37534 0.84289 0.0
C1713 C 0.26723 0.3061 0.84944 0.0
C1714 C 0.28671 0.30705 0.8618 0.0
C1715 C 0.2657 0.28452 0.83822 0.0
C1716 C 0.24556 0.28248 0.82491 0.0
C1717 C 0.24336 0.30128 0.81189 0.0
C1718 C 0.22425 0.29918 0.7994 0.0
C1719 C 0.20737 0.27826 0.79973 0.0
C1720 C 0.20963 0.25934 0.81252 0.0
C1721 C 0.22869 0.26136 0.82504 0.0
H1722 H 0.19259 0.27666 0.79005 0.0
H1723 H 0.38149 0.29661 0.90885 0.0
H1724 H 0.5888 0.25788 0.33156 0.0
H1725 H 0.62933 0.28098 0.32927 0.0
H1726 H 0.66893 0.21628 0.35197 0.0
H1727 H 0.62804 0.19271 0.35424 0.0
H1728 H 0.68056 0.26517 0.36713 0.0
H1729 H 0.6799 0.22665 0.31093 0.0
H1730 H 0.66087 0.2136 0.28317 0.0
H1731 H 0.64767 0.29317 0.27033 0.0
H1732 H 0.66629 0.30671 0.29812 0.0
H1733 H 0.78945 0.34833 0.35346 0.0
H1734 H 0.76391 0.30851 0.35199 0.0
H1735 H 0.70389 0.35012 0.3258 0.0
H1736 H 0.72908 0.38953 0.32716 0.0
H1737 H 0.71121 0.30299 0.3116 0.0
H1738 H 0.7009 0.34052 0.369 0.0
H1739 H 0.7164 0.35603 0.39722 0.0
H1740 H 0.7471 0.28074 0.40808 0.0
H1741 H 0.73208 0.2649 0.37975 0.0
C1742 C 0.60611 0.2484 0.33597 0.0
C1743 C 0.60522 0.22346 0.34308 0.0
C1744 C 0.6293 0.26161 0.33457 0.0
C1745 C 0.65216 0.25025 0.34029 0.0
C1746 C 0.65148 0.2253 0.3474 0.0
C1747 C 0.62817 0.21187 0.34863 0.0
C1748 C 0.67629 0.26532 0.3394 0.0
C1749 C 0.68781 0.27285 0.35495 0.0
C1750 C 0.68537 0.2757 0.32353 0.0
C1751 C 0.67445 0.26768 0.30666 0.0
C1752 C 0.67282 0.24136 0.30223 0.0
C1753 C 0.66212 0.23388 0.28648 0.0
C1754 C 0.65305 0.25254 0.275 0.0
C1755 C 0.65473 0.27874 0.27923 0.0
C1756 C 0.66541 0.28633 0.29497 0.0
C1757 C 0.77096 0.34881 0.34719 0.0
C1758 C 0.76118 0.37207 0.34054 0.0
C1759 C 0.75638 0.32612 0.3464 0.0
C1760 C 0.73192 0.32641 0.33889 0.0
C1761 C 0.72272 0.3494 0.33162 0.0
C1762 C 0.73711 0.37198 0.33249 0.0
C1763 C 0.71487 0.30351 0.33936 0.0
C1764 C 0.70461 0.29459 0.32373 0.0
C1765 C 0.7067 0.29216 0.35517 0.0
C1766 C 0.71571 0.30163 0.37217 0.0
C1767 C 0.71117 0.32734 0.37734 0.0
C1768 C 0.71982 0.33618 0.39336 0.0
C1769 C 0.73281 0.31941 0.40442 0.0
C1770 C 0.7371 0.29373 0.39948 0.0
C1771 C 0.72853 0.28482 0.38344 0.0
H1772 H 0.73947 0.32628 0.41683 0.0
H1773 H 0.64475 0.24671 0.26282 0.0
H1774 H 0.71725 0.5833 0.83856 0.0
H1775 H 0.69317 0.62331 0.83608 0.0
H1776 H 0.76193 0.66713 0.84547 0.0
H1777 H 0.78651 0.6266 0.84818 0.0
H1778 H 0.71908 0.68494 0.86451 0.0
H1779 H 0.73942 0.66742 0.80548 0.0
H1780 H 0.74493 0.64021 0.77942 0.0
H1781 H 0.66424 0.62333 0.78001 0.0
H1782 H 0.65827 0.65018 0.80621 0.0
H1783 H 0.62581 0.78708 0.84895 0.0
H1784 H 0.66616 0.76235 0.84626 0.0
H1785 H 0.62293 0.6933 0.8356 0.0
H1786 H 0.58305 0.71757 0.83814 0.0
H1787 H 0.66347 0.6982 0.81352 0.0
H1788 H 0.64625 0.70598 0.87588 0.0
H1789 H 0.6401 0.73076 0.90298 0.0
H1790 H 0.71462 0.76487 0.89624 0.0
H1791 H 0.72106 0.74048 0.86898 0.0
C1792 C 0.72742 0.60137 0.84005 0.0
C1793 C 0.75386 0.60175 0.84349 0.0
C1794 C 0.71359 0.62428 0.83854 0.0
C1795 C 0.72583 0.64821 0.84029 0.0
C1796 C 0.75219 0.64883 0.84394 0.0
C1797 C 0.76618 0.62571 0.84544 0.0
C1798 C 0.71037 0.67217 0.83866 0.0
C1799 C 0.70745 0.68837 0.85317 0.0
C1800 C 0.6951 0.67652 0.82389 0.0
C1801 C 0.69842 0.66083 0.80785 0.0
C1802 C 0.72286 0.65785 0.80009 0.0
C1803 C 0.72606 0.64249 0.78529 0.0
C1804 C 0.70495 0.63005 0.77807 0.0
C1805 C 0.68057 0.63302 0.7856 0.0
C1806 C 0.67725 0.64838 0.80041 0.0
C1807 C 0.62501 0.76665 0.84597 0.0
C1808 C 0.60124 0.75427 0.84382 0.0
C1809 C 0.64803 0.75257 0.84446 0.0
C1810 C 0.64753 0.72598 0.84073 0.0
C1811 C 0.62381 0.71381 0.83837 0.0
C1812 C 0.60098 0.72774 0.83993 0.0
C1813 C 0.67128 0.71009 0.83968 0.0
C1814 C 0.67576 0.69542 0.82462 0.0
C1815 C 0.68788 0.70712 0.85394 0.0
C1816 C 0.68398 0.72171 0.8703 0.0
C1817 C 0.66122 0.71894 0.88011 0.0
C1818 C 0.6577 0.73287 0.89551 0.0
C1819 C 0.67692 0.74946 0.9013 0.0
C1820 C 0.69972 0.75208 0.89172 0.0
C1821 C 0.70332 0.7382 0.8763 0.0
H1822 H 0.67416 0.76022 0.91323 0.0
H1823 H 0.70749 0.61813 0.76663 0.0
loop_
_geom_bond_atom_site_label_1
_geom_bond_atom_site_label_2
_geom_bond_distance
_geom_bond_site_symmetry_2
_ccdc_geom_bond_type
C0 O1 1.306 . S
C0 O3 1.160 . S
O1 C0 1.306 . S
O1 Cd2 2.228 . S
Cd2 O1 2.228 . S
Cd2 O6 2.273 . S
Cd2 O10 2.277 . S
O3 C0 1.160 . S
O3 Cd4 2.203 . S
Cd4 O3 2.203 . S
Cd4 O6 2.411 . S
Cd4 O7 2.333 . S
Cd4 O8 2.352 . S
Cd4 O12 2.277 . S
Cd4 O13 2.356 . S
C5 O10 1.209 . S
C5 O12 1.226 . S
O6 Cd2 2.273 . S
O6 Cd4 2.411 . S
O6 C9 1.320 . S
O7 Cd4 2.333 . S
O7 C9 1.214 . S
O8 Cd4 2.352 . S
O8 C11 1.258 . S
C9 O6 1.320 . S
C9 O7 1.214 . S
O10 Cd2 2.277 . S
O10 C5 1.209 . S
C11 O8 1.258 . S
C11 O13 1.282 . S
O12 Cd4 2.277 . S
O12 C5 1.226 . S
O13 Cd4 2.356 . S
O13 C11 1.282 . S
C14 O15 1.306 . S
C14 O17 1.160 . S
O15 C14 1.306 . S
O15 Cd16 2.228 . S
Cd16 O15 2.228 . S
Cd16 O20 2.273 . S
Cd16 O24 2.277 . S
O17 C14 1.160 . S
O17 Cd18 2.203 . S
Cd18 O17 2.203 . S
Cd18 O20 2.411 . S
Cd18 O21 2.333 . S
Cd18 O22 2.352 . S
Cd18 O26 2.277 . S
Cd18 O27 2.356 . S
C19 O24 1.209 . S
C19 O26 1.226 . S
O20 Cd16 2.273 . S
O20 Cd18 2.411 . S
O20 C23 1.320 . S
O21 Cd18 2.333 . S
O21 C23 1.214 . S
O22 Cd18 2.352 . S
O22 C25 1.258 . S
C23 O20 1.320 . S
C23 O21 1.214 . S
O24 Cd16 2.277 . S
O24 C19 1.209 . S
C25 O22 1.258 . S
C25 O27 1.282 . S
O26 Cd18 2.277 . S
O26 C19 1.226 . S
O27 Cd18 2.356 . S
O27 C25 1.282 . S
C28 O29 1.306 . S
C28 O31 1.160 . S
O29 C28 1.306 . S
O29 Cd30 2.228 . S
Cd30 O29 2.228 . S
Cd30 O34 2.273 . S
Cd30 O38 2.277 . S
O31 C28 1.160 . S
O31 Cd32 2.203 . S
Cd32 O31 2.203 . S
Cd32 O34 2.411 . S
Cd32 O35 2.333 . S
Cd32 O36 2.352 . S
Cd32 O40 2.277 . S
Cd32 O41 2.356 . S
C33 O38 1.209 . S
C33 O40 1.226 . S
O34 Cd30 2.273 . S
O34 Cd32 2.411 . S
O34 C37 1.320 . S
O35 Cd32 2.333 . S
O35 C37 1.214 . S
O36 Cd32 2.352 . S
O36 C39 1.258 . S
C37 O34 1.320 . S
C37 O35 1.214 . S
O38 Cd30 2.277 . S
O38 C33 1.209 . S
C39 O36 1.258 . S
C39 O41 1.282 . S
O40 Cd32 2.277 . S
O40 C33 1.226 . S
O41 Cd32 2.356 . S
O41 C39 1.282 . S
C42 O43 1.306 . S
C42 O45 1.160 . S
O43 C42 1.306 . S
O43 Cd44 2.228 . S
Cd44 O43 2.228 . S
Cd44 O48 2.273 . S
Cd44 O52 2.277 . S
O45 C42 1.160 . S
O45 Cd46 2.203 . S
Cd46 O45 2.203 . S
Cd46 O48 2.411 . S
Cd46 O49 2.333 . S
Cd46 O50 2.352 . S
Cd46 O54 2.277 . S
Cd46 O55 2.356 . S
C47 O52 1.209 . S
C47 O54 1.226 . S
O48 Cd44 2.273 . S
O48 Cd46 2.411 . S
O48 C51 1.320 . S
O49 Cd46 2.333 . S
O49 C51 1.214 . S
O50 Cd46 2.352 . S
O50 C53 1.258 . S
C51 O48 1.320 . S
C51 O49 1.214 . S
O52 Cd44 2.277 . S
O52 C47 1.209 . S
C53 O50 1.258 . S
C53 O55 1.282 . S
O54 Cd46 2.277 . S
O54 C47 1.226 . S
O55 Cd46 2.356 . S
O55 C53 1.282 . S
C56 O57 1.306 . S
C56 O59 1.160 . S
O57 C56 1.306 . S
O57 Cd58 2.228 . S
Cd58 O57 2.228 . S
Cd58 O62 2.273 . S
Cd58 O66 2.277 . S
O59 C56 1.160 . S
O59 Cd60 2.203 . S
Cd60 O59 2.203 . S
Cd60 O62 2.411 . S
Cd60 O63 2.333 . S
Cd60 O64 2.352 . S
Cd60 O68 2.277 . S
Cd60 O69 2.356 . S
C61 O66 1.209 . S
C61 O68 1.226 . S
O62 Cd58 2.273 . S
O62 Cd60 2.411 . S
O62 C65 1.320 . S
O63 Cd60 2.333 . S
O63 C65 1.214 . S
O64 Cd60 2.352 . S
O64 C67 1.258 . S
C65 O62 1.320 . S
C65 O63 1.214 . S
O66 Cd58 2.277 . S
O66 C61 1.209 . S
C67 O64 1.258 . S
C67 O69 1.282 . S
O68 Cd60 2.277 . S
O68 C61 1.226 . S
O69 Cd60 2.356 . S
O69 C67 1.282 . S
C70 O71 1.306 . S
C70 O73 1.160 . S
O71 C70 1.306 . S
O71 Cd72 2.228 . S
Cd72 O71 2.228 . S
Cd72 O76 2.273 . S
Cd72 O80 2.277 . S
O73 C70 1.160 . S
O73 Cd74 2.203 . S
Cd74 O73 2.203 . S
Cd74 O76 2.411 . S
Cd74 O77 2.333 . S
Cd74 O78 2.352 . S
Cd74 O82 2.277 . S
Cd74 O83 2.356 . S
C75 O80 1.209 . S
C75 O82 1.226 . S
O76 Cd72 2.273 . S
O76 Cd74 2.411 . S
O76 C79 1.320 . S
O77 Cd74 2.333 . S
O77 C79 1.214 . S
O78 Cd74 2.352 . S
O78 C81 1.258 . S
C79 O76 1.320 . S
C79 O77 1.214 . S
O80 Cd72 2.277 . S
O80 C75 1.209 . S
C81 O78 1.258 . S
C81 O83 1.282 . S
O82 Cd74 2.277 . S
O82 C75 1.226 . S
O83 Cd74 2.356 . S
O83 C81 1.282 . S
C84 O85 1.306 . S
C84 O87 1.160 . S
O85 C84 1.306 . S
O85 Cd86 2.228 . S
Cd86 O85 2.228 . S
Cd86 O90 2.273 . S
Cd86 O94 2.277 . S
O87 C84 1.160 . S
O87 Cd88 2.203 . S
Cd88 O87 2.203 . S
Cd88 O90 2.411 . S
Cd88 O91 2.333 . S
Cd88 O92 2.352 . S
Cd88 O96 2.277 . S
Cd88 O97 2.356 . S
C89 O94 1.209 . S
C89 O96 1.226 . S
O90 Cd86 2.273 . S
O90 Cd88 2.411 . S
O90 C93 1.320 . S
O91 Cd88 2.333 . S
O91 C93 1.214 . S
O92 Cd88 2.352 . S
O92 C95 1.258 . S
C93 O90 1.320 . S
C93 O91 1.214 . S
O94 Cd86 2.277 . S
O94 C89 1.209 . S
C95 O92 1.258 . S
C95 O97 1.282 . S
O96 Cd88 2.277 . S
O96 C89 1.226 . S
O97 Cd88 2.356 . S
O97 C95 1.282 . S
C98 O99 1.306 . S
C98 O101 1.160 . S
O99 C98 1.306 . S
O99 Cd100 2.228 . S
Cd100 O99 2.228 . S
Cd100 O104 2.273 . S
Cd100 O108 2.277 . S
O101 C98 1.160 . S
O101 Cd102 2.203 . S
Cd102 O101 2.203 . S
Cd102 O104 2.411 . S
Cd102 O105 2.333 . S
Cd102 O106 2.352 . S
Cd102 O110 2.277 . S
Cd102 O111 2.356 . S
C103 O108 1.209 . S
C103 O110 1.226 . S
O104 Cd100 2.273 . S
O104 Cd102 2.411 . S
O104 C107 1.320 . S
O105 Cd102 2.333 . S
O105 C107 1.214 . S
O106 Cd102 2.352 . S
O106 C109 1.258 . S
C107 O104 1.320 . S
C107 O105 1.214 . S
O108 Cd100 2.277 . S
O108 C103 1.209 . S
C109 O106 1.258 . S
C109 O111 1.282 . S
O110 Cd102 2.277 . S
O110 C103 1.226 . S
O111 Cd102 2.356 . S
O111 C109 1.282 . S
C112 O113 1.306 . S
C112 O115 1.160 . S
O113 C112 1.306 . S
O113 Cd114 2.228 . S
Cd114 O113 2.228 . S
Cd114 O118 2.273 . S
Cd114 O122 2.277 . S
O115 C112 1.160 . S
O115 Cd116 2.203 . S
Cd116 O115 2.203 . S
Cd116 O118 2.411 . S
Cd116 O119 2.333 . S
Cd116 O120 2.352 . S
Cd116 O124 2.277 . S
Cd116 O125 2.356 . S
C117 O122 1.209 . S
C117 O124 1.226 . S
O118 Cd114 2.273 . S
O118 Cd116 2.411 . S
O118 C121 1.320 . S
O119 Cd116 2.333 . S
O119 C121 1.214 . S
O120 Cd116 2.352 . S
O120 C123 1.258 . S
C121 O118 1.320 . S
C121 O119 1.214 . S
O122 Cd114 2.277 . S
O122 C117 1.209 . S
C123 O120 1.258 . S
C123 O125 1.282 . S
O124 Cd116 2.277 . S
O124 C117 1.226 . S
O125 Cd116 2.356 . S
O125 C123 1.282 . S
C126 O127 1.306 . S
C126 O129 1.160 . S
O127 C126 1.306 . S
O127 Cd128 2.228 . S
Cd128 O127 2.228 . S
Cd128 O132 2.273 . S
Cd128 O136 2.277 . S
O129 C126 1.160 . S
O129 Cd130 2.203 . S
Cd130 O129 2.203 . S
Cd130 O132 2.411 . S
Cd130 O133 2.333 . S
Cd130 O134 2.352 . S
Cd130 O138 2.277 . S
Cd130 O139 2.356 . S
C131 O136 1.209 . S
C131 O138 1.226 . S
O132 Cd128 2.273 . S
O132 Cd130 2.411 . S
O132 C135 1.320 . S
O133 Cd130 2.333 . S
O133 C135 1.214 . S
O134 Cd130 2.352 . S
O134 C137 1.258 . S
C135 O132 1.320 . S
C135 O133 1.214 . S
O136 Cd128 2.277 . S
O136 C131 1.209 . S
C137 O134 1.258 . S
C137 O139 1.282 . S
O138 Cd130 2.277 . S
O138 C131 1.226 . S
O139 Cd130 2.356 . S
O139 C137 1.282 . S
C140 O141 1.306 . S
C140 O143 1.160 . S
O141 C140 1.306 . S
O141 Cd142 2.228 . S
Cd142 O141 2.228 . S
Cd142 O146 2.273 . S
Cd142 O150 2.277 . S
O143 C140 1.160 . S
O143 Cd144 2.203 . S
Cd144 O143 2.203 . S
Cd144 O146 2.411 . S
Cd144 O147 2.333 . S
Cd144 O148 2.352 . S
Cd144 O152 2.277 . S
Cd144 O153 2.356 . S
C145 O150 1.209 . S
C145 O152 1.226 . S
O146 Cd142 2.273 . S
O146 Cd144 2.411 . S
O146 C149 1.320 . S
O147 Cd144 2.333 . S
O147 C149 1.214 . S
O148 Cd144 2.352 . S
O148 C151 1.258 . S
C149 O146 1.320 . S
C149 O147 1.214 . S
O150 Cd142 2.277 . S
O150 C145 1.209 . S
C151 O148 1.258 . S
C151 O153 1.282 . S
O152 Cd144 2.277 . S
O152 C145 1.226 . S
O153 Cd144 2.356 . S
O153 C151 1.282 . S
C154 O155 1.306 . S
C154 O157 1.160 . S
O155 C154 1.306 . S
O155 Cd156 2.228 . S
Cd156 O155 2.228 . S
Cd156 O160 2.273 . S
Cd156 O164 2.277 . S
O157 C154 1.160 . S
O157 Cd158 2.203 . S
Cd158 O157 2.203 . S
Cd158 O160 2.411 . S
Cd158 O161 2.333 . S
Cd158 O162 2.352 . S
Cd158 O166 2.277 . S
Cd158 O167 2.356 . S
C159 O164 1.209 . S
C159 O166 1.226 . S
O160 Cd156 2.273 . S
O160 Cd158 2.411 . S
O160 C163 1.320 . S
O161 Cd158 2.333 . S
O161 C163 1.214 . S
O162 Cd158 2.352 . S
O162 C165 1.258 . S
C163 O160 1.320 . S
C163 O161 1.214 . S
O164 Cd156 2.277 . S
O164 C159 1.209 . S
C165 O162 1.258 . S
C165 O167 1.282 . S
O166 Cd158 2.277 . S
O166 C159 1.226 . S
O167 Cd158 2.356 . S
O167 C165 1.282 . S
C168 O169 1.306 . S
C168 O171 1.160 . S
O169 C168 1.306 . S
O169 Cd170 2.228 . S
Cd170 O169 2.228 . S
Cd170 O174 2.273 . S
Cd170 O178 2.277 . S
O171 C168 1.160 . S
O171 Cd172 2.203 . S
Cd172 O171 2.203 . S
Cd172 O174 2.411 . S
Cd172 O175 2.333 . S
Cd172 O176 2.352 . S
Cd172 O180 2.277 . S
Cd172 O181 2.356 . S
C173 O178 1.209 . S
C173 O180 1.226 . S
O174 Cd170 2.273 . S
O174 Cd172 2.411 . S
O174 C177 1.320 . S
O175 Cd172 2.333 . S
O175 C177 1.214 . S
O176 Cd172 2.352 . S
O176 C179 1.258 . S
C177 O174 1.320 . S
C177 O175 1.214 . S
O178 Cd170 2.277 . S
O178 C173 1.209 . S
C179 O176 1.258 . S
C179 O181 1.282 . S
O180 Cd172 2.277 . S
O180 C173 1.226 . S
O181 Cd172 2.356 . S
O181 C179 1.282 . S
C182 O183 1.306 . S
C182 O185 1.160 . S
O183 C182 1.306 . S
O183 Cd184 2.228 . S
Cd184 O183 2.228 . S
Cd184 O188 2.273 . S
Cd184 O192 2.277 . S
O185 C182 1.160 . S
O185 Cd186 2.203 . S
Cd186 O185 2.203 . S
Cd186 O188 2.411 . S
Cd186 O189 2.333 . S
Cd186 O190 2.352 . S
Cd186 O194 2.277 . S
Cd186 O195 2.356 . S
C187 O192 1.209 . S
C187 O194 1.226 . S
O188 Cd184 2.273 . S
O188 Cd186 2.411 . S
O188 C191 1.320 . S
O189 Cd186 2.333 . S
O189 C191 1.214 . S
O190 Cd186 2.352 . S
O190 C193 1.258 . S
C191 O188 1.320 . S
C191 O189 1.214 . S
O192 Cd184 2.277 . S
O192 C187 1.209 . S
C193 O190 1.258 . S
C193 O195 1.282 . S
O194 Cd186 2.277 . S
O194 C187 1.226 . S
O195 Cd186 2.356 . S
O195 C193 1.282 . S
C196 O197 1.306 . S
C196 O199 1.160 . S
O197 C196 1.306 . S
O197 Cd198 2.228 . S
Cd198 O197 2.228 . S
Cd198 O202 2.273 . S
Cd198 O206 2.277 . S
O199 C196 1.160 . S
O199 Cd200 2.203 . S
Cd200 O199 2.203 . S
Cd200 O202 2.411 . S
Cd200 O203 2.333 . S
Cd200 O204 2.352 . S
Cd200 O208 2.277 . S
Cd200 O209 2.356 . S
C201 O206 1.209 . S
C201 O208 1.226 . S
O202 Cd198 2.273 . S
O202 Cd200 2.411 . S
O202 C205 1.320 . S
O203 Cd200 2.333 . S
O203 C205 1.214 . S
O204 Cd200 2.352 . S
O204 C207 1.258 . S
C205 O202 1.320 . S
C205 O203 1.214 . S
O206 Cd198 2.277 . S
O206 C201 1.209 . S
C207 O204 1.258 . S
C207 O209 1.282 . S
O208 Cd200 2.277 . S
O208 C201 1.226 . S
O209 Cd200 2.356 . S
O209 C207 1.282 . S
C210 O211 1.306 . S
C210 O213 1.160 . S
O211 C210 1.306 . S
O211 Cd212 2.228 . S
Cd212 O211 2.228 . S
Cd212 O216 2.273 . S
Cd212 O220 2.277 . S
O213 C210 1.160 . S
O213 Cd214 2.203 . S
Cd214 O213 2.203 . S
Cd214 O216 2.411 . S
Cd214 O217 2.333 . S
Cd214 O218 2.352 . S
Cd214 O222 2.277 . S
Cd214 O223 2.356 . S
C215 O220 1.209 . S
C215 O222 1.226 . S
O216 Cd212 2.273 . S
O216 Cd214 2.411 . S
O216 C219 1.320 . S
O217 Cd214 2.333 . S
O217 C219 1.214 . S
O218 Cd214 2.352 . S
O218 C221 1.258 . S
C219 O216 1.320 . S
C219 O217 1.214 . S
O220 Cd212 2.277 . S
O220 C215 1.209 . S
C221 O218 1.258 . S
C221 O223 1.282 . S
O222 Cd214 2.277 . S
O222 C215 1.226 . S
O223 Cd214 2.356 . S
O223 C221 1.282 . S
H224 C242 0.951 . S
H225 C244 0.951 . S
H226 C246 0.950 . S
H227 C247 0.950 . S
H228 C249 0.950 . S
H229 C252 0.950 . S
H230 C253 0.950 . S
H231 C255 0.950 . S
H232 C256 0.950 . S
H233 C257 0.951 . S
H234 C259 0.951 . S
H235 C261 0.950 . S
H236 C262 0.950 . S
H237 C264 0.950 . S
H238 C267 0.950 . S
H239 C268 0.950 . S
H240 C270 0.950 . S
H241 C271 0.950 . S
C242 H224 0.951 . S
C242 C243 1.366 . S
C242 C244 1.388 . S
C243 C242 1.366 . S
C243 C247 1.385 . S
C244 H225 0.951 . S
C244 C242 1.388 . S
C244 C245 1.366 . S
C245 C244 1.366 . S
C245 C246 1.414 . S
C245 C248 1.499 . S
C246 H226 0.950 . S
C246 C245 1.414 . S
C246 C247 1.374 . S
C247 H227 0.950 . S
C247 C243 1.385 . S
C247 C246 1.374 . S
C248 C245 1.499 . S
C248 C249 1.373 . S
C248 C250 1.389 . S
C249 H228 0.950 . S
C249 C248 1.373 . S
C249 C265 1.377 1_455 S
C250 C248 1.389 . S
C250 C251 1.524 . S
C250 C264 1.377 1_455 S
C251 C250 1.524 . S
C251 C252 1.397 . S
C251 C256 1.363 . S
C252 H229 0.950 . S
C252 C251 1.397 . S
C252 C253 1.334 . S
C253 H230 0.950 . S
C253 C252 1.334 . S
C253 C254 1.287 . S
C254 C253 1.287 . S
C254 C255 1.524 . S
C254 H273 0.913 . S
C255 H231 0.950 . S
C255 C254 1.524 . S
C255 C256 1.415 . S
C256 H232 0.950 . S
C256 C251 1.363 . S
C256 C255 1.415 . S
C257 H233 0.951 . S
C257 C258 1.366 . S
C257 C259 1.388 . S
C258 C257 1.366 . S
C258 C262 1.385 . S
C259 H234 0.951 . S
C259 C257 1.388 . S
C259 C260 1.366 . S
C260 C259 1.366 . S
C260 C261 1.414 . S
C260 C263 1.499 . S
C261 H235 0.950 . S
C261 C260 1.414 . S
C261 C262 1.374 . S
C262 H236 0.950 . S
C262 C258 1.385 . S
C262 C261 1.374 . S
C263 C260 1.499 . S
C263 C264 1.373 . S
C263 C265 1.389 . S
C264 H237 0.950 . S
C264 C250 1.377 1_655 S
C264 C263 1.373 . S
C265 C249 1.377 1_655 S
C265 C263 1.389 . S
C265 C266 1.524 . S
C266 C265 1.524 . S
C266 C267 1.397 . S
C266 C271 1.363 . S
C267 H238 0.950 . S
C267 C266 1.397 . S
C267 C268 1.334 . S
C268 H239 0.950 . S
C268 C267 1.334 . S
C268 C269 1.287 . S
C269 C268 1.287 . S
C269 C270 1.524 . S
C269 H272 0.999 . S
C270 H240 0.950 . S
C270 C269 1.524 . S
C270 C271 1.415 . S
C271 H241 0.950 . S
C271 C266 1.363 . S
C271 C270 1.415 . S
H272 C269 0.999 . S
H273 C254 0.913 . S
H274 C292 0.951 . S
H275 C294 0.951 . S
H276 C296 0.950 . S
H277 C297 0.950 . S
H278 C299 0.950 . S
H279 C302 0.950 . S
H280 C303 0.950 . S
H281 C305 0.950 . S
H282 C306 0.950 . S
H283 C307 0.951 . S
H284 C309 0.951 . S
H285 C311 0.950 . S
H286 C312 0.950 . S
H287 C314 0.950 . S
H288 C317 0.950 . S
H289 C318 0.950 . S
H290 C320 0.950 . S
H291 C321 0.950 . S
C292 H274 0.951 . S
C292 C293 1.366 . S
C292 C294 1.388 . S
C293 C292 1.366 . S
C293 C297 1.385 . S
C294 H275 0.951 . S
C294 C292 1.388 . S
C294 C295 1.366 . S
C295 C294 1.366 . S
C295 C296 1.414 . S
C295 C298 1.499 . S
C296 H276 0.950 . S
C296 C295 1.414 . S
C296 C297 1.374 . S
C297 H277 0.950 . S
C297 C293 1.385 . S
C297 C296 1.374 . S
C298 C295 1.499 . S
C298 C299 1.373 . S
C298 C300 1.389 . S
C299 H278 0.950 . S
C299 C298 1.373 . S
C299 C315 1.377 1_565 S
C300 C298 1.389 . S
C300 C301 1.524 . S
C300 C314 1.377 1_565 S
C301 C300 1.524 . S
C301 C302 1.397 . S
C301 C306 1.363 . S
C302 H279 0.950 . S
C302 C301 1.397 . S
C302 C303 1.334 . S
C303 H280 0.950 . S
C303 C302 1.334 . S
C303 C304 1.287 . S
C304 C303 1.287 . S
C304 C305 1.524 . S
C304 H323 0.913 . S
C305 H281 0.950 . S
C305 C304 1.524 . S
C305 C306 1.415 . S
C306 H282 0.950 . S
C306 C301 1.363 . S
C306 C305 1.415 . S
C307 H283 0.951 . S
C307 C308 1.366 . S
C307 C309 1.388 . S
C308 C307 1.366 . S
C308 C312 1.385 . S
C309 H284 0.951 . S
C309 C307 1.388 . S
C309 C310 1.366 . S
C310 C309 1.366 . S
C310 C311 1.414 . S
C310 C313 1.499 . S
C311 H285 0.950 . S
C311 C310 1.414 . S
C311 C312 1.374 . S
C312 H286 0.950 . S
C312 C308 1.385 . S
C312 C311 1.374 . S
C313 C310 1.499 . S
C313 C314 1.373 . S
C313 C315 1.389 . S
C314 H287 0.950 . S
C314 C300 1.377 1_545 S
C314 C313 1.373 . S
C315 C299 1.377 1_545 S
C315 C313 1.389 . S
C315 C316 1.524 . S
C316 C315 1.524 . S
C316 C317 1.397 . S
C316 C321 1.363 . S
C317 H288 0.950 . S
C317 C316 1.397 . S
C317 C318 1.334 . S
C318 H289 0.950 . S
C318 C317 1.334 . S
C318 C319 1.287 . S
C319 C318 1.287 . S
C319 C320 1.524 . S
C319 H322 0.999 . S
C320 H290 0.950 . S
C320 C319 1.524 . S
C320 C321 1.415 . S
C321 H291 0.950 . S
C321 C316 1.363 . S
C321 C320 1.415 . S
H322 C319 0.999 . S
H323 C304 0.913 . S
H324 C342 0.951 . S
H325 C344 0.951 . S
H326 C346 0.950 . S
H327 C347 0.950 . S
H328 C349 0.950 . S
H329 C352 0.950 . S
H330 C353 0.950 . S
H331 C355 0.950 . S
H332 C356 0.950 . S
H333 C357 0.951 . S
H334 C359 0.951 . S
H335 C361 0.950 . S
H336 C362 0.950 . S
H337 C364 0.950 . S
H338 C367 0.950 . S
H339 C368 0.950 . S
H340 C370 0.950 . S
H341 C371 0.950 . S
C342 H324 0.951 . S
C342 C343 1.366 . S
C342 C344 1.388 . S
C343 C342 1.366 . S
C343 C347 1.385 . S
C344 H325 0.951 . S
C344 C342 1.388 . S
C344 C345 1.366 . S
C345 C344 1.366 . S
C345 C346 1.414 . S
C345 C348 1.499 . S
C346 H326 0.950 . S
C346 C345 1.414 . S
C346 C347 1.374 . S
C347 H327 0.950 . S
C347 C343 1.385 . S
C347 C346 1.374 . S
C348 C345 1.499 . S
C348 C349 1.373 . S
C348 C350 1.389 . S
C349 H328 0.950 . S
C349 C348 1.373 . S
C349 C365 1.377 1_455 S
C350 C348 1.389 . S
C350 C351 1.524 . S
C350 C364 1.377 1_455 S
C351 C350 1.524 . S
C351 C352 1.397 . S
C351 C356 1.363 . S
C352 H329 0.950 . S
C352 C351 1.397 . S
C352 C353 1.334 . S
C353 H330 0.950 . S
C353 C352 1.334 . S
C353 C354 1.287 . S
C354 C353 1.287 . S
C354 C355 1.524 . S
C354 H373 0.913 . S
C355 H331 0.950 . S
C355 C354 1.524 . S
C355 C356 1.415 . S
C356 H332 0.950 . S
C356 C351 1.363 . S
C356 C355 1.415 . S
C357 H333 0.951 . S
C357 C358 1.366 . S
C357 C359 1.388 . S
C358 C357 1.366 . S
C358 C362 1.385 . S
C359 H334 0.951 . S
C359 C357 1.388 . S
C359 C360 1.366 . S
C360 C359 1.366 . S
C360 C361 1.414 . S
C360 C363 1.499 . S
C361 H335 0.950 . S
C361 C360 1.414 . S
C361 C362 1.374 . S
C362 H336 0.950 . S
C362 C358 1.385 . S
C362 C361 1.374 . S
C363 C360 1.499 . S
C363 C364 1.373 . S
C363 C365 1.389 . S
C364 H337 0.950 . S
C364 C350 1.377 1_655 S
C364 C363 1.373 . S
C365 C349 1.377 1_655 S
C365 C363 1.389 . S
C365 C366 1.524 . S
C366 C365 1.524 . S
C366 C367 1.397 . S
C366 C371 1.363 . S
C367 H338 0.950 . S
C367 C366 1.397 . S
C367 C368 1.334 . S
C368 H339 0.950 . S
C368 C367 1.334 . S
C368 C369 1.287 . S
C369 C368 1.287 . S
C369 C370 1.524 . S
C369 H372 0.999 . S
C370 H340 0.950 . S
C370 C369 1.524 . S
C370 C371 1.415 . S
C371 H341 0.950 . S
C371 C366 1.363 . S
C371 C370 1.415 . S
H372 C369 0.999 . S
H373 C354 0.913 . S
H374 C392 0.951 . S
H375 C394 0.951 . S
H376 C396 0.950 . S
H377 C397 0.950 . S
H378 C399 0.950 . S
H379 C402 0.950 . S
H380 C403 0.950 . S
H381 C405 0.950 . S
H382 C406 0.950 1_545 S
H383 C407 0.951 . S
H384 C409 0.951 . S
H385 C411 0.950 . S
H386 C412 0.950 . S
H387 C414 0.950 . S
H388 C417 0.950 . S
H389 C418 0.950 . S
H390 C420 0.950 . S
H391 C421 0.950 1_565 S
C392 H374 0.951 . S
C392 C393 1.366 . S
C392 C394 1.388 . S
C393 C392 1.366 . S
C393 C397 1.385 . S
C394 H375 0.951 . S
C394 C392 1.388 . S
C394 C395 1.366 . S
C395 C394 1.366 . S
C395 C396 1.414 . S
C395 C398 1.499 . S
C396 H376 0.950 . S
C396 C395 1.414 . S
C396 C397 1.374 . S
C397 H377 0.950 . S
C397 C393 1.385 . S
C397 C396 1.374 . S
C398 C395 1.499 . S
C398 C399 1.373 . S
C398 C400 1.389 . S
C399 H378 0.950 . S
C399 C398 1.373 . S
C399 C415 1.377 1_565 S
C400 C398 1.389 . S
C400 C401 1.524 . S
C400 C414 1.377 1_565 S
C401 C400 1.524 . S
C401 C402 1.397 . S
C401 C406 1.363 . S
C402 H379 0.950 . S
C402 C401 1.397 . S
C402 C403 1.334 . S
C403 H380 0.950 . S
C403 C402 1.334 . S
C403 C404 1.287 . S
C404 C403 1.287 . S
C404 C405 1.524 . S
C404 H423 0.913 . S
C405 H381 0.950 . S
C405 C404 1.524 . S
C405 C406 1.415 . S
C406 H382 0.950 1_565 S
C406 C401 1.363 . S
C406 C405 1.415 . S
C407 H383 0.951 . S
C407 C408 1.366 . S
C407 C409 1.388 . S
C408 C407 1.366 . S
C408 C412 1.385 . S
C409 H384 0.951 . S
C409 C407 1.388 . S
C409 C410 1.366 . S
C410 C409 1.366 . S
C410 C411 1.414 . S
C410 C413 1.499 . S
C411 H385 0.950 . S
C411 C410 1.414 . S
C411 C412 1.374 . S
C412 H386 0.950 . S
C412 C408 1.385 . S
C412 C411 1.374 . S
C413 C410 1.499 . S
C413 C414 1.373 . S
C413 C415 1.389 . S
C414 H387 0.950 . S
C414 C400 1.377 1_545 S
C414 C413 1.373 . S
C415 C399 1.377 1_545 S
C415 C413 1.389 . S
C415 C416 1.524 . S
C416 C415 1.524 . S
C416 C417 1.397 . S
C416 C421 1.363 . S
C417 H388 0.950 . S
C417 C416 1.397 . S
C417 C418 1.334 . S
C418 H389 0.950 . S
C418 C417 1.334 . S
C418 C419 1.287 . S
C419 C418 1.287 . S
C419 C420 1.524 . S
C419 H422 0.999 . S
C420 H390 0.950 . S
C420 C419 1.524 . S
C420 C421 1.415 . S
C421 H391 0.950 1_545 S
C421 C416 1.363 . S
C421 C420 1.415 . S
H422 C419 0.999 . S
H423 C404 0.913 . S
H424 C442 0.951 . S
H425 C444 0.951 . S
H426 C446 0.950 . S
H427 C447 0.950 . S
H428 C449 0.950 . S
H429 C452 0.950 . S
H430 C453 0.950 . S
H431 C455 0.950 . S
H432 C456 0.950 . S
H433 C457 0.951 . S
H434 C459 0.951 . S
H435 C461 0.950 . S
H436 C462 0.950 . S
H437 C464 0.950 . S
H438 C467 0.950 . S
H439 C468 0.950 . S
H440 C470 0.950 . S
H441 C471 0.950 . S
C442 H424 0.951 . S
C442 C443 1.366 . S
C442 C444 1.388 . S
C443 C442 1.366 . S
C443 C447 1.385 . S
C444 H425 0.951 . S
C444 C442 1.388 . S
C444 C445 1.366 . S
C445 C444 1.366 . S
C445 C446 1.414 . S
C445 C448 1.499 . S
C446 H426 0.950 . S
C446 C445 1.414 . S
C446 C447 1.374 . S
C447 H427 0.950 . S
C447 C443 1.385 . S
C447 C446 1.374 . S
C448 C445 1.499 . S
C448 C449 1.373 . S
C448 C450 1.389 . S
C449 H428 0.950 . S
C449 C448 1.373 . S
C449 C465 1.377 1_655 S
C450 C448 1.389 . S
C450 C451 1.524 . S
C450 C464 1.377 1_655 S
C451 C450 1.524 . S
C451 C452 1.397 . S
C451 C456 1.363 . S
C452 H429 0.950 . S
C452 C451 1.397 . S
C452 C453 1.334 . S
C453 H430 0.950 . S
C453 C452 1.334 . S
C453 C454 1.287 . S
C454 C453 1.287 . S
C454 C455 1.524 . S
C454 H473 0.913 . S
C455 H431 0.950 . S
C455 C454 1.524 . S
C455 C456 1.415 . S
C456 H432 0.950 . S
C456 C451 1.363 . S
C456 C455 1.415 . S
C457 H433 0.951 . S
C457 C458 1.366 . S
C457 C459 1.388 . S
C458 C457 1.366 . S
C458 C462 1.385 . S
C459 H434 0.951 . S
C459 C457 1.388 . S
C459 C460 1.366 . S
C460 C459 1.366 . S
C460 C461 1.414 . S
C460 C463 1.499 . S
C461 H435 0.950 . S
C461 C460 1.414 . S
C461 C462 1.374 . S
C462 H436 0.950 . S
C462 C458 1.385 . S
C462 C461 1.374 . S
C463 C460 1.499 . S
C463 C464 1.373 . S
C463 C465 1.389 . S
C464 H437 0.950 . S
C464 C450 1.377 1_455 S
C464 C463 1.373 . S
C465 C449 1.377 1_455 S
C465 C463 1.389 . S
C465 C466 1.524 . S
C466 C465 1.524 . S
C466 C467 1.397 . S
C466 C471 1.363 . S
C467 H438 0.950 . S
C467 C466 1.397 . S
C467 C468 1.334 . S
C468 H439 0.950 . S
C468 C467 1.334 . S
C468 C469 1.287 . S
C469 C468 1.287 . S
C469 C470 1.524 . S
C469 H472 0.999 . S
C470 H440 0.950 . S
C470 C469 1.524 . S
C470 C471 1.415 . S
C471 H441 0.950 . S
C471 C466 1.363 . S
C471 C470 1.415 . S
H472 C469 0.999 . S
H473 C454 0.913 . S
H474 C492 0.951 . S
H475 C494 0.951 . S
H476 C496 0.950 . S
H477 C497 0.950 . S
H478 C499 0.950 . S
H479 C502 0.950 . S
H480 C503 0.950 . S
H481 C505 0.950 . S
H482 C506 0.950 . S
H483 C507 0.951 . S
H484 C509 0.951 . S
H485 C511 0.950 . S
H486 C512 0.950 . S
H487 C514 0.950 . S
H488 C517 0.950 . S
H489 C518 0.950 . S
H490 C520 0.950 . S
H491 C521 0.950 . S
C492 H474 0.951 . S
C492 C493 1.366 . S
C492 C494 1.388 . S
C493 C492 1.366 . S
C493 C497 1.385 . S
C494 H475 0.951 . S
C494 C492 1.388 . S
C494 C495 1.366 . S
C495 C494 1.366 . S
C495 C496 1.414 . S
C495 C498 1.499 . S
C496 H476 0.950 . S
C496 C495 1.414 . S
C496 C497 1.374 . S
C497 H477 0.950 . S
C497 C493 1.385 . S
C497 C496 1.374 . S
C498 C495 1.499 . S
C498 C499 1.373 . S
C498 C500 1.389 . S
C499 H478 0.950 . S
C499 C498 1.373 . S
C499 C515 1.377 1_545 S
C500 C498 1.389 . S
C500 C501 1.524 . S
C500 C514 1.377 1_545 S
C501 C500 1.524 . S
C501 C502 1.397 . S
C501 C506 1.363 . S
C502 H479 0.950 . S
C502 C501 1.397 . S
C502 C503 1.334 . S
C503 H480 0.950 . S
C503 C502 1.334 . S
C503 C504 1.287 . S
C504 C503 1.287 . S
C504 C505 1.524 . S
C504 H523 0.913 . S
C505 H481 0.950 . S
C505 C504 1.524 . S
C505 C506 1.415 . S
C506 H482 0.950 . S
C506 C501 1.363 . S
C506 C505 1.415 . S
C507 H483 0.951 . S
C507 C508 1.366 . S
C507 C509 1.388 . S
C508 C507 1.366 . S
C508 C512 1.385 . S
C509 H484 0.951 . S
C509 C507 1.388 . S
C509 C510 1.366 . S
C510 C509 1.366 . S
C510 C511 1.414 . S
C510 C513 1.499 . S
C511 H485 0.950 . S
C511 C510 1.414 . S
C511 C512 1.374 . S
C512 H486 0.950 . S
C512 C508 1.385 . S
C512 C511 1.374 . S
C513 C510 1.499 . S
C513 C514 1.373 . S
C513 C515 1.389 . S
C514 H487 0.950 . S
C514 C500 1.377 1_565 S
C514 C513 1.373 . S
C515 C499 1.377 1_565 S
C515 C513 1.389 . S
C515 C516 1.524 . S
C516 C515 1.524 . S
C516 C517 1.397 . S
C516 C521 1.363 . S
C517 H488 0.950 . S
C517 C516 1.397 . S
C517 C518 1.334 . S
C518 H489 0.950 . S
C518 C517 1.334 . S
C518 C519 1.287 . S
C519 C518 1.287 . S
C519 C520 1.524 . S
C519 H522 0.999 . S
C520 H490 0.950 . S
C520 C519 1.524 . S
C520 C521 1.415 . S
C521 H491 0.950 . S
C521 C516 1.363 . S
C521 C520 1.415 . S
H522 C519 0.999 . S
H523 C504 0.913 . S
H524 C542 0.951 . S
H525 C544 0.951 . S
H526 C546 0.950 . S
H527 C547 0.950 . S
H528 C549 0.950 . S
H529 C552 0.950 . S
H530 C553 0.950 . S
H531 C555 0.950 . S
H532 C556 0.950 . S
H533 C557 0.951 . S
H534 C559 0.951 . S
H535 C561 0.950 . S
H536 C562 0.950 . S
H537 C564 0.950 . S
H538 C567 0.950 . S
H539 C568 0.950 . S
H540 C570 0.950 . S
H541 C571 0.950 . S
C542 H524 0.951 . S
C542 C543 1.366 . S
C542 C544 1.388 . S
C543 C542 1.366 . S
C543 C547 1.385 . S
C544 H525 0.951 . S
C544 C542 1.388 . S
C544 C545 1.366 . S
C545 C544 1.366 . S
C545 C546 1.414 . S
C545 C548 1.499 . S
C546 H526 0.950 . S
C546 C545 1.414 . S
C546 C547 1.374 . S
C547 H527 0.950 . S
C547 C543 1.385 . S
C547 C546 1.374 . S
C548 C545 1.499 . S
C548 C549 1.373 . S
C548 C550 1.389 . S
C549 H528 0.950 . S
C549 C548 1.373 . S
C549 C565 1.377 1_655 S
C550 C548 1.389 . S
C550 C551 1.524 . S
C550 C564 1.377 1_655 S
C551 C550 1.524 . S
C551 C552 1.397 . S
C551 C556 1.363 . S
C552 H529 0.950 . S
C552 C551 1.397 . S
C552 C553 1.334 . S
C553 H530 0.950 . S
C553 C552 1.334 . S
C553 C554 1.287 . S
C554 C553 1.287 . S
C554 C555 1.524 . S
C554 H573 0.913 . S
C555 H531 0.950 . S
C555 C554 1.524 . S
C555 C556 1.415 . S
C556 H532 0.950 . S
C556 C551 1.363 . S
C556 C555 1.415 . S
C557 H533 0.951 . S
C557 C558 1.366 . S
C557 C559 1.388 . S
C558 C557 1.366 . S
C558 C562 1.385 . S
C559 H534 0.951 . S
C559 C557 1.388 . S
C559 C560 1.366 . S
C560 C559 1.366 . S
C560 C561 1.414 . S
C560 C563 1.499 . S
C561 H535 0.950 . S
C561 C560 1.414 . S
C561 C562 1.374 . S
C562 H536 0.950 . S
C562 C558 1.385 . S
C562 C561 1.374 . S
C563 C560 1.499 . S
C563 C564 1.373 . S
C563 C565 1.389 . S
C564 H537 0.950 . S
C564 C550 1.377 1_455 S
C564 C563 1.373 . S
C565 C549 1.377 1_455 S
C565 C563 1.389 . S
C565 C566 1.524 . S
C566 C565 1.524 . S
C566 C567 1.397 . S
C566 C571 1.363 . S
C567 H538 0.950 . S
C567 C566 1.397 . S
C567 C568 1.334 . S
C568 H539 0.950 . S
C568 C567 1.334 . S
C568 C569 1.287 . S
C569 C568 1.287 . S
C569 C570 1.524 . S
C569 H572 0.999 . S
C570 H540 0.950 . S
C570 C569 1.524 . S
C570 C571 1.415 . S
C571 H541 0.950 . S
C571 C566 1.363 . S
C571 C570 1.415 . S
H572 C569 0.999 . S
H573 C554 0.913 . S
H574 C592 0.951 . S
H575 C594 0.951 . S
H576 C596 0.950 . S
H577 C597 0.950 . S
H578 C599 0.950 . S
H579 C602 0.950 . S
H580 C603 0.950 . S
H581 C605 0.950 . S
H582 C606 0.950 1_565 S
H583 C607 0.951 . S
H584 C609 0.951 . S
H585 C611 0.950 . S
H586 C612 0.950 . S
H587 C614 0.950 . S
H588 C617 0.950 . S
H589 C618 0.950 . S
H590 C620 0.950 . S
H591 C621 0.950 1_545 S
C592 H574 0.951 . S
C592 C593 1.366 . S
C592 C594 1.388 . S
C593 C592 1.366 . S
C593 C597 1.385 . S
C594 H575 0.951 . S
C594 C592 1.388 . S
C594 C595 1.366 . S
C595 C594 1.366 . S
C595 C596 1.414 . S
C595 C598 1.499 . S
C596 H576 0.950 . S
C596 C595 1.414 . S
C596 C597 1.374 . S
C597 H577 0.950 . S
C597 C593 1.385 . S
C597 C596 1.374 . S
C598 C595 1.499 . S
C598 C599 1.373 . S
C598 C600 1.389 . S
C599 H578 0.950 . S
C599 C598 1.373 . S
C599 C615 1.377 1_545 S
C600 C598 1.389 . S
C600 C601 1.524 . S
C600 C614 1.377 1_545 S
C601 C600 1.524 . S
C601 C602 1.397 . S
C601 C606 1.363 . S
C602 H579 0.950 . S
C602 C601 1.397 . S
C602 C603 1.334 . S
C603 H580 0.950 . S
C603 C602 1.334 . S
C603 C604 1.287 . S
C604 C603 1.287 . S
C604 C605 1.524 . S
C604 H623 0.913 . S
C605 H581 0.950 . S
C605 C604 1.524 . S
C605 C606 1.415 . S
C606 H582 0.950 1_545 S
C606 C601 1.363 . S
C606 C605 1.415 . S
C607 H583 0.951 . S
C607 C608 1.366 . S
C607 C609 1.388 . S
C608 C607 1.366 . S
C608 C612 1.385 . S
C609 H584 0.951 . S
C609 C607 1.388 . S
C609 C610 1.366 . S
C610 C609 1.366 . S
C610 C611 1.414 . S
C610 C613 1.499 . S
C611 H585 0.950 . S
C611 C610 1.414 . S
C611 C612 1.374 . S
C612 H586 0.950 . S
C612 C608 1.385 . S
C612 C611 1.374 . S
C613 C610 1.499 . S
C613 C614 1.373 . S
C613 C615 1.389 . S
C614 H587 0.950 . S
C614 C600 1.377 1_565 S
C614 C613 1.373 . S
C615 C599 1.377 1_565 S
C615 C613 1.389 . S
C615 C616 1.524 . S
C616 C615 1.524 . S
C616 C617 1.397 . S
C616 C621 1.363 . S
C617 H588 0.950 . S
C617 C616 1.397 . S
C617 C618 1.334 . S
C618 H589 0.950 . S
C618 C617 1.334 . S
C618 C619 1.287 . S
C619 C618 1.287 . S
C619 C620 1.524 . S
C619 H622 0.999 . S
C620 H590 0.950 . S
C620 C619 1.524 . S
C620 C621 1.415 . S
C621 H591 0.950 1_565 S
C621 C616 1.363 . S
C621 C620 1.415 . S
H622 C619 0.999 . S
H623 C604 0.913 . S
H624 C642 0.951 . S
H625 C644 0.951 . S
H626 C646 0.950 . S
H627 C647 0.950 . S
H628 C649 0.950 . S
H629 C652 0.950 . S
H630 C653 0.950 . S
H631 C655 0.950 . S
H632 C656 0.950 . S
H633 C657 0.951 . S
H634 C659 0.951 . S
H635 C661 0.950 . S
H636 C662 0.950 . S
H637 C664 0.950 . S
H638 C667 0.950 . S
H639 C668 0.950 . S
H640 C670 0.950 . S
H641 C671 0.950 . S
C642 H624 0.951 . S
C642 C643 1.366 . S
C642 C644 1.388 . S
C643 C642 1.366 . S
C643 C647 1.385 . S
C644 H625 0.951 . S
C644 C642 1.388 . S
C644 C645 1.366 . S
C645 C644 1.366 . S
C645 C646 1.414 . S
C645 C648 1.499 . S
C646 H626 0.950 . S
C646 C645 1.414 . S
C646 C647 1.374 . S
C647 H627 0.950 . S
C647 C643 1.385 . S
C647 C646 1.374 . S
C648 C645 1.499 . S
C648 C649 1.373 . S
C648 C650 1.389 . S
C649 H628 0.950 . S
C649 C648 1.373 . S
C649 C665 1.377 . S
C650 C648 1.389 . S
C650 C651 1.524 . S
C650 C664 1.377 . S
C651 C650 1.524 . S
C651 C652 1.397 . S
C651 C656 1.363 . S
C652 H629 0.950 . S
C652 C651 1.397 . S
C652 C653 1.334 . S
C653 H630 0.950 . S
C653 C652 1.334 . S
C653 C654 1.287 . S
C654 C653 1.287 . S
C654 C655 1.524 . S
C654 H673 0.913 . S
C655 H631 0.950 . S
C655 C654 1.524 . S
C655 C656 1.415 . S
C656 H632 0.950 . S
C656 C651 1.363 . S
C656 C655 1.415 . S
C657 H633 0.951 . S
C657 C658 1.366 . S
C657 C659 1.388 . S
C658 C657 1.366 . S
C658 C662 1.385 . S
C659 H634 0.951 . S
C659 C657 1.388 . S
C659 C660 1.366 . S
C660 C659 1.366 . S
C660 C661 1.414 . S
C660 C663 1.499 . S
C661 H635 0.950 . S
C661 C660 1.414 . S
C661 C662 1.374 . S
C662 H636 0.950 . S
C662 C658 1.385 . S
C662 C661 1.374 . S
C663 C660 1.499 . S
C663 C664 1.373 . S
C663 C665 1.389 . S
C664 H637 0.950 . S
C664 C650 1.377 . S
C664 C663 1.373 . S
C665 C649 1.377 . S
C665 C663 1.389 . S
C665 C666 1.524 . S
C666 C665 1.524 . S
C666 C667 1.397 . S
C666 C671 1.363 . S
C667 H638 0.950 . S
C667 C666 1.397 . S
C667 C668 1.334 . S
C668 H639 0.950 . S
C668 C667 1.334 . S
C668 C669 1.287 . S
C669 C668 1.287 . S
C669 C670 1.524 . S
C669 H672 0.999 . S
C670 H640 0.950 . S
C670 C669 1.524 . S
C670 C671 1.415 . S
C671 H641 0.950 . S
C671 C666 1.363 . S
C671 C670 1.415 . S
H672 C669 0.999 . S
H673 C654 0.913 . S
H674 C692 0.951 . S
H675 C694 0.951 . S
H676 C696 0.950 . S
H677 C697 0.950 . S
H678 C699 0.950 . S
H679 C702 0.950 . S
H680 C703 0.950 . S
H681 C705 0.950 . S
H682 C706 0.950 . S
H683 C707 0.951 . S
H684 C709 0.951 . S
H685 C711 0.950 . S
H686 C712 0.950 . S
H687 C714 0.950 . S
H688 C717 0.950 . S
H689 C718 0.950 . S
H690 C720 0.950 . S
H691 C721 0.950 . S
C692 H674 0.951 . S
C692 C693 1.366 . S
C692 C694 1.388 . S
C693 C692 1.366 . S
C693 C697 1.385 . S
C694 H675 0.951 . S
C694 C692 1.388 . S
C694 C695 1.366 . S
C695 C694 1.366 . S
C695 C696 1.414 . S
C695 C698 1.499 . S
C696 H676 0.950 . S
C696 C695 1.414 . S
C696 C697 1.374 . S
C697 H677 0.950 . S
C697 C693 1.385 . S
C697 C696 1.374 . S
C698 C695 1.499 . S
C698 C699 1.373 . S
C698 C700 1.389 . S
C699 H678 0.950 . S
C699 C698 1.373 . S
C699 C715 1.377 . S
C700 C698 1.389 . S
C700 C701 1.524 . S
C700 C714 1.377 . S
C701 C700 1.524 . S
C701 C702 1.397 . S
C701 C706 1.363 . S
C702 H679 0.950 . S
C702 C701 1.397 . S
C702 C703 1.334 . S
C703 H680 0.950 . S
C703 C702 1.334 . S
C703 C704 1.287 . S
C704 C703 1.287 . S
C704 C705 1.524 . S
C704 H723 0.913 . S
C705 H681 0.950 . S
C705 C704 1.524 . S
C705 C706 1.415 . S
C706 H682 0.950 . S
C706 C701 1.363 . S
C706 C705 1.415 . S
C707 H683 0.951 . S
C707 C708 1.366 . S
C707 C709 1.388 . S
C708 C707 1.366 . S
C708 C712 1.385 . S
C709 H684 0.951 . S
C709 C707 1.388 . S
C709 C710 1.366 . S
C710 C709 1.366 . S
C710 C711 1.414 . S
C710 C713 1.499 . S
C711 H685 0.950 . S
C711 C710 1.414 . S
C711 C712 1.374 . S
C712 H686 0.950 . S
C712 C708 1.385 . S
C712 C711 1.374 . S
C713 C710 1.499 . S
C713 C714 1.373 . S
C713 C715 1.389 . S
C714 H687 0.950 . S
C714 C700 1.377 . S
C714 C713 1.373 . S
C715 C699 1.377 . S
C715 C713 1.389 . S
C715 C716 1.524 . S
C716 C715 1.524 . S
C716 C717 1.397 . S
C716 C721 1.363 . S
C717 H688 0.950 . S
C717 C716 1.397 . S
C717 C718 1.334 . S
C718 H689 0.950 . S
C718 C717 1.334 . S
C718 C719 1.287 . S
C719 C718 1.287 . S
C719 C720 1.524 . S
C719 H722 0.999 . S
C720 H690 0.950 . S
C720 C719 1.524 . S
C720 C721 1.415 . S
C721 H691 0.950 . S
C721 C716 1.363 . S
C721 C720 1.415 . S
H722 C719 0.999 . S
H723 C704 0.913 . S
H724 C742 0.951 . S
H725 C744 0.951 . S
H726 C746 0.950 . S
H727 C747 0.950 . S
H728 C749 0.950 . S
H729 C752 0.950 . S
H730 C753 0.950 . S
H731 C755 0.950 . S
H732 C756 0.950 . S
H733 C757 0.951 . S
H734 C759 0.951 . S
H735 C761 0.950 . S
H736 C762 0.950 . S
H737 C764 0.950 . S
H738 C767 0.950 . S
H739 C768 0.950 . S
H740 C770 0.950 . S
H741 C771 0.950 . S
C742 H724 0.951 . S
C742 C743 1.366 . S
C742 C744 1.388 . S
C743 C742 1.366 . S
C743 C747 1.385 . S
C744 H725 0.951 . S
C744 C742 1.388 . S
C744 C745 1.366 . S
C745 C744 1.366 . S
C745 C746 1.414 . S
C745 C748 1.499 . S
C746 H726 0.950 . S
C746 C745 1.414 . S
C746 C747 1.374 . S
C747 H727 0.950 . S
C747 C743 1.385 . S
C747 C746 1.374 . S
C748 C745 1.499 . S
C748 C749 1.373 . S
C748 C750 1.389 . S
C749 H728 0.950 . S
C749 C748 1.373 . S
C749 C765 1.377 . S
C750 C748 1.389 . S
C750 C751 1.524 . S
C750 C764 1.377 . S
C751 C750 1.524 . S
C751 C752 1.397 . S
C751 C756 1.363 . S
C752 H729 0.950 . S
C752 C751 1.397 . S
C752 C753 1.334 . S
C753 H730 0.950 . S
C753 C752 1.334 . S
C753 C754 1.287 . S
C754 C753 1.287 . S
C754 C755 1.524 . S
C754 H773 0.913 . S
C755 H731 0.950 . S
C755 C754 1.524 . S
C755 C756 1.415 . S
C756 H732 0.950 . S
C756 C751 1.363 . S
C756 C755 1.415 . S
C757 H733 0.951 . S
C757 C758 1.366 . S
C757 C759 1.388 . S
C758 C757 1.366 . S
C758 C762 1.385 . S
C759 H734 0.951 . S
C759 C757 1.388 . S
C759 C760 1.366 . S
C760 C759 1.366 . S
C760 C761 1.414 . S
C760 C763 1.499 . S
C761 H735 0.950 . S
C761 C760 1.414 . S
C761 C762 1.374 . S
C762 H736 0.950 . S
C762 C758 1.385 . S
C762 C761 1.374 . S
C763 C760 1.499 . S
C763 C764 1.373 . S
C763 C765 1.389 . S
C764 H737 0.950 . S
C764 C750 1.377 . S
C764 C763 1.373 . S
C765 C749 1.377 . S
C765 C763 1.389 . S
C765 C766 1.524 . S
C766 C765 1.524 . S
C766 C767 1.397 . S
C766 C771 1.363 . S
C767 H738 0.950 . S
C767 C766 1.397 . S
C767 C768 1.334 . S
C768 H739 0.950 . S
C768 C767 1.334 . S
C768 C769 1.287 . S
C769 C768 1.287 . S
C769 C770 1.524 . S
C769 H772 0.999 . S
C770 H740 0.950 . S
C770 C769 1.524 . S
C770 C771 1.415 . S
C771 H741 0.950 . S
C771 C766 1.363 . S
C771 C770 1.415 . S
H772 C769 0.999 . S
H773 C754 0.913 . S
H774 C792 0.951 . S
H775 C794 0.951 . S
H776 C796 0.950 . S
H777 C797 0.950 . S
H778 C799 0.950 . S
H779 C802 0.950 . S
H780 C803 0.950 . S
H781 C805 0.950 . S
H782 C806 0.950 . S
H783 C807 0.951 . S
H784 C809 0.951 . S
H785 C811 0.950 . S
H786 C812 0.950 . S
H787 C814 0.950 . S
H788 C817 0.950 . S
H789 C818 0.950 . S
H790 C820 0.950 . S
H791 C821 0.950 . S
C792 H774 0.951 . S
C792 C793 1.366 . S
C792 C794 1.388 . S
C793 C792 1.366 . S
C793 C797 1.385 . S
C794 H775 0.951 . S
C794 C792 1.388 . S
C794 C795 1.366 . S
C795 C794 1.366 . S
C795 C796 1.414 . S
C795 C798 1.499 . S
C796 H776 0.950 . S
C796 C795 1.414 . S
C796 C797 1.374 . S
C797 H777 0.950 . S
C797 C793 1.385 . S
C797 C796 1.374 . S
C798 C795 1.499 . S
C798 C799 1.373 . S
C798 C800 1.389 . S
C799 H778 0.950 . S
C799 C798 1.373 . S
C799 C815 1.377 . S
C800 C798 1.389 . S
C800 C801 1.524 . S
C800 C814 1.377 . S
C801 C800 1.524 . S
C801 C802 1.397 . S
C801 C806 1.363 . S
C802 H779 0.950 . S
C802 C801 1.397 . S
C802 C803 1.334 . S
C803 H780 0.950 . S
C803 C802 1.334 . S
C803 C804 1.287 . S
C804 C803 1.287 . S
C804 C805 1.524 . S
C804 H823 0.913 . S
C805 H781 0.950 . S
C805 C804 1.524 . S
C805 C806 1.415 . S
C806 H782 0.950 . S
C806 C801 1.363 . S
C806 C805 1.415 . S
C807 H783 0.951 . S
C807 C808 1.366 . S
C807 C809 1.388 . S
C808 C807 1.366 . S
C808 C812 1.385 . S
C809 H784 0.951 . S
C809 C807 1.388 . S
C809 C810 1.366 . S
C810 C809 1.366 . S
C810 C811 1.414 . S
C810 C813 1.499 . S
C811 H785 0.950 . S
C811 C810 1.414 . S
C811 C812 1.374 . S
C812 H786 0.950 . S
C812 C808 1.385 . S
C812 C811 1.374 . S
C813 C810 1.499 . S
C813 C814 1.373 . S
C813 C815 1.389 . S
C814 H787 0.950 . S
C814 C800 1.377 . S
C814 C813 1.373 . S
C815 C799 1.377 . S
C815 C813 1.389 . S
C815 C816 1.524 . S
C816 C815 1.524 . S
C816 C817 1.397 . S
C816 C821 1.363 . S
C817 H788 0.950 . S
C817 C816 1.397 . S
C817 C818 1.334 . S
C818 H789 0.950 . S
C818 C817 1.334 . S
C818 C819 1.287 . S
C819 C818 1.287 . S
C819 C820 1.524 . S
C819 H822 0.999 . S
C820 H790 0.950 . S
C820 C819 1.524 . S
C820 C821 1.415 . S
C821 H791 0.950 . S
C821 C816 1.363 . S
C821 C820 1.415 . S
H822 C819 0.999 . S
H823 C804 0.913 . S
H824 C842 0.951 . S
H825 C844 0.951 . S
H826 C846 0.950 . S
H827 C847 0.950 . S
H828 C849 0.950 . S
H829 C852 0.950 . S
H830 C853 0.950 . S
H831 C855 0.950 . S
H832 C856 0.950 . S
H833 C857 0.951 . S
H834 C859 0.951 . S
H835 C861 0.950 . S
H836 C862 0.950 . S
H837 C864 0.950 . S
H838 C867 0.950 . S
H839 C868 0.950 . S
H840 C870 0.950 . S
H841 C871 0.950 . S
C842 H824 0.951 . S
C842 C843 1.366 . S
C842 C844 1.388 . S
C843 C842 1.366 . S
C843 C847 1.385 . S
C844 H825 0.951 . S
C844 C842 1.388 . S
C844 C845 1.366 . S
C845 C844 1.366 . S
C845 C846 1.414 . S
C845 C848 1.499 . S
C846 H826 0.950 . S
C846 C845 1.414 . S
C846 C847 1.374 . S
C847 H827 0.950 . S
C847 C843 1.385 . S
C847 C846 1.374 . S
C848 C845 1.499 . S
C848 C849 1.373 . S
C848 C850 1.389 . S
C849 H828 0.950 . S
C849 C848 1.373 . S
C849 C865 1.377 . S
C850 C848 1.389 . S
C850 C851 1.524 . S
C850 C864 1.377 . S
C851 C850 1.524 . S
C851 C852 1.397 . S
C851 C856 1.363 . S
C852 H829 0.950 . S
C852 C851 1.397 . S
C852 C853 1.334 . S
C853 H830 0.950 . S
C853 C852 1.334 . S
C853 C854 1.287 . S
C854 C853 1.287 . S
C854 C855 1.524 . S
C854 H873 0.913 . S
C855 H831 0.950 . S
C855 C854 1.524 . S
C855 C856 1.415 . S
C856 H832 0.950 . S
C856 C851 1.363 . S
C856 C855 1.415 . S
C857 H833 0.951 . S
C857 C858 1.366 . S
C857 C859 1.388 . S
C858 C857 1.366 . S
C858 C862 1.385 . S
C859 H834 0.951 . S
C859 C857 1.388 . S
C859 C860 1.366 . S
C860 C859 1.366 . S
C860 C861 1.414 . S
C860 C863 1.499 . S
C861 H835 0.950 . S
C861 C860 1.414 . S
C861 C862 1.374 . S
C862 H836 0.950 . S
C862 C858 1.385 . S
C862 C861 1.374 . S
C863 C860 1.499 . S
C863 C864 1.373 . S
C863 C865 1.389 . S
C864 H837 0.950 . S
C864 C850 1.377 . S
C864 C863 1.373 . S
C865 C849 1.377 . S
C865 C863 1.389 . S
C865 C866 1.524 . S
C866 C865 1.524 . S
C866 C867 1.397 . S
C866 C871 1.363 . S
C867 H838 0.950 . S
C867 C866 1.397 . S
C867 C868 1.334 . S
C868 H839 0.950 . S
C868 C867 1.334 . S
C868 C869 1.287 . S
C869 C868 1.287 . S
C869 C870 1.524 . S
C869 H872 0.999 . S
C870 H840 0.950 . S
C870 C869 1.524 . S
C870 C871 1.415 . S
C871 H841 0.950 . S
C871 C866 1.363 . S
C871 C870 1.415 . S
H872 C869 0.999 . S
H873 C854 0.913 . S
H874 C892 0.951 . S
H875 C894 0.951 . S
H876 C896 0.950 . S
H877 C897 0.950 . S
H878 C899 0.950 . S
H879 C902 0.950 . S
H880 C903 0.950 . S
H881 C905 0.950 . S
H882 C906 0.950 . S
H883 C907 0.951 . S
H884 C909 0.951 . S
H885 C911 0.950 . S
H886 C912 0.950 . S
H887 C914 0.950 . S
H888 C917 0.950 . S
H889 C918 0.950 . S
H890 C920 0.950 . S
H891 C921 0.950 . S
C892 H874 0.951 . S
C892 C893 1.366 . S
C892 C894 1.388 . S
C893 C892 1.366 . S
C893 C897 1.385 . S
C894 H875 0.951 . S
C894 C892 1.388 . S
C894 C895 1.366 . S
C895 C894 1.366 . S
C895 C896 1.414 . S
C895 C898 1.499 . S
C896 H876 0.950 . S
C896 C895 1.414 . S
C896 C897 1.374 . S
C897 H877 0.950 . S
C897 C893 1.385 . S
C897 C896 1.374 . S
C898 C895 1.499 . S
C898 C899 1.373 . S
C898 C900 1.389 . S
C899 H878 0.950 . S
C899 C898 1.373 . S
C899 C915 1.377 . S
C900 C898 1.389 . S
C900 C901 1.524 . S
C900 C914 1.377 . S
C901 C900 1.524 . S
C901 C902 1.397 . S
C901 C906 1.363 . S
C902 H879 0.950 . S
C902 C901 1.397 . S
C902 C903 1.334 . S
C903 H880 0.950 . S
C903 C902 1.334 . S
C903 C904 1.287 . S
C904 C903 1.287 . S
C904 C905 1.524 . S
C904 H923 0.913 . S
C905 H881 0.950 . S
C905 C904 1.524 . S
C905 C906 1.415 . S
C906 H882 0.950 . S
C906 C901 1.363 . S
C906 C905 1.415 . S
C907 H883 0.951 . S
C907 C908 1.366 . S
C907 C909 1.388 . S
C908 C907 1.366 . S
C908 C912 1.385 . S
C909 H884 0.951 . S
C909 C907 1.388 . S
C909 C910 1.366 . S
C910 C909 1.366 . S
C910 C911 1.414 . S
C910 C913 1.499 . S
C911 H885 0.950 . S
C911 C910 1.414 . S
C911 C912 1.374 . S
C912 H886 0.950 . S
C912 C908 1.385 . S
C912 C911 1.374 . S
C913 C910 1.499 . S
C913 C914 1.373 . S
C913 C915 1.389 . S
C914 H887 0.950 . S
C914 C900 1.377 . S
C914 C913 1.373 . S
C915 C899 1.377 . S
C915 C913 1.389 . S
C915 C916 1.524 . S
C916 C915 1.524 . S
C916 C917 1.397 . S
C916 C921 1.363 . S
C917 H888 0.950 . S
C917 C916 1.397 . S
C917 C918 1.334 . S
C918 H889 0.950 . S
C918 C917 1.334 . S
C918 C919 1.287 . S
C919 C918 1.287 . S
C919 C920 1.524 . S
C919 H922 0.999 . S
C920 H890 0.950 . S
C920 C919 1.524 . S
C920 C921 1.415 . S
C921 H891 0.950 . S
C921 C916 1.363 . S
C921 C920 1.415 . S
H922 C919 0.999 . S
H923 C904 0.913 . S
H924 C942 0.951 . S
H925 C944 0.951 . S
H926 C946 0.950 . S
H927 C947 0.950 . S
H928 C949 0.950 . S
H929 C952 0.950 . S
H930 C953 0.950 . S
H931 C955 0.950 . S
H932 C956 0.950 . S
H933 C957 0.951 . S
H934 C959 0.951 . S
H935 C961 0.950 . S
H936 C962 0.950 . S
H937 C964 0.950 . S
H938 C967 0.950 . S
H939 C968 0.950 . S
H940 C970 0.950 . S
H941 C971 0.950 . S
C942 H924 0.951 . S
C942 C943 1.366 . S
C942 C944 1.388 . S
C943 C942 1.366 . S
C943 C947 1.385 . S
C944 H925 0.951 . S
C944 C942 1.388 . S
C944 C945 1.366 . S
C945 C944 1.366 . S
C945 C946 1.414 . S
C945 C948 1.499 . S
C946 H926 0.950 . S
C946 C945 1.414 . S
C946 C947 1.374 . S
C947 H927 0.950 . S
C947 C943 1.385 . S
C947 C946 1.374 . S
C948 C945 1.499 . S
C948 C949 1.373 . S
C948 C950 1.389 . S
C949 H928 0.950 . S
C949 C948 1.373 . S
C949 C965 1.377 . S
C950 C948 1.389 . S
C950 C951 1.524 . S
C950 C964 1.377 . S
C951 C950 1.524 . S
C951 C952 1.397 . S
C951 C956 1.363 . S
C952 H929 0.950 . S
C952 C951 1.397 . S
C952 C953 1.334 . S
C953 H930 0.950 . S
C953 C952 1.334 . S
C953 C954 1.287 . S
C954 C953 1.287 . S
C954 C955 1.524 . S
C954 H973 0.913 . S
C955 H931 0.950 . S
C955 C954 1.524 . S
C955 C956 1.415 . S
C956 H932 0.950 . S
C956 C951 1.363 . S
C956 C955 1.415 . S
C957 H933 0.951 . S
C957 C958 1.366 . S
C957 C959 1.388 . S
C958 C957 1.366 . S
C958 C962 1.385 . S
C959 H934 0.951 . S
C959 C957 1.388 . S
C959 C960 1.366 . S
C960 C959 1.366 . S
C960 C961 1.414 . S
C960 C963 1.499 . S
C961 H935 0.950 . S
C961 C960 1.414 . S
C961 C962 1.374 . S
C962 H936 0.950 . S
C962 C958 1.385 . S
C962 C961 1.374 . S
C963 C960 1.499 . S
C963 C964 1.373 . S
C963 C965 1.389 . S
C964 H937 0.950 . S
C964 C950 1.377 . S
C964 C963 1.373 . S
C965 C949 1.377 . S
C965 C963 1.389 . S
C965 C966 1.524 . S
C966 C965 1.524 . S
C966 C967 1.397 . S
C966 C971 1.363 . S
C967 H938 0.950 . S
C967 C966 1.397 . S
C967 C968 1.334 . S
C968 H939 0.950 . S
C968 C967 1.334 . S
C968 C969 1.287 . S
C969 C968 1.287 . S
C969 C970 1.524 . S
C969 H972 0.999 . S
C970 H940 0.950 . S
C970 C969 1.524 . S
C970 C971 1.415 . S
C971 H941 0.950 . S
C971 C966 1.363 . S
C971 C970 1.415 . S
H972 C969 0.999 . S
H973 C954 0.913 . S
H974 C992 0.951 . S
H975 C994 0.951 . S
H976 C996 0.950 . S
H977 C997 0.950 . S
H978 C999 0.950 . S
H979 C1002 0.950 . S
H980 C1003 0.950 . S
H981 C1005 0.950 . S
H982 C1006 0.950 . S
H983 C1007 0.951 . S
H984 C1009 0.951 . S
H985 C1011 0.950 . S
H986 C1012 0.950 . S
H987 C1014 0.950 . S
H988 C1017 0.950 . S
H989 C1018 0.950 . S
H990 C1020 0.950 . S
H991 C1021 0.950 . S
C992 H974 0.951 . S
C992 C993 1.366 . S
C992 C994 1.388 . S
C993 C992 1.366 . S
C993 C997 1.385 . S
C994 H975 0.951 . S
C994 C992 1.388 . S
C994 C995 1.366 . S
C995 C994 1.366 . S
C995 C996 1.414 . S
C995 C998 1.499 . S
C996 H976 0.950 . S
C996 C995 1.414 . S
C996 C997 1.374 . S
C997 H977 0.950 . S
C997 C993 1.385 . S
C997 C996 1.374 . S
C998 C995 1.499 . S
C998 C999 1.373 . S
C998 C1000 1.389 . S
C999 H978 0.950 . S
C999 C998 1.373 . S
C999 C1015 1.377 . S
C1000 C998 1.389 . S
C1000 C1001 1.524 . S
C1000 C1014 1.377 . S
C1001 C1000 1.524 . S
C1001 C1002 1.397 . S
C1001 C1006 1.363 . S
C1002 H979 0.950 . S
C1002 C1001 1.397 . S
C1002 C1003 1.334 . S
C1003 H980 0.950 . S
C1003 C1002 1.334 . S
C1003 C1004 1.287 . S
C1004 C1003 1.287 . S
C1004 C1005 1.524 . S
C1004 H1023 0.913 . S
C1005 H981 0.950 . S
C1005 C1004 1.524 . S
C1005 C1006 1.415 . S
C1006 H982 0.950 . S
C1006 C1001 1.363 . S
C1006 C1005 1.415 . S
C1007 H983 0.951 . S
C1007 C1008 1.366 . S
C1007 C1009 1.388 . S
C1008 C1007 1.366 . S
C1008 C1012 1.385 . S
C1009 H984 0.951 . S
C1009 C1007 1.388 . S
C1009 C1010 1.366 . S
C1010 C1009 1.366 . S
C1010 C1011 1.414 . S
C1010 C1013 1.499 . S
C1011 H985 0.950 . S
C1011 C1010 1.414 . S
C1011 C1012 1.374 . S
C1012 H986 0.950 . S
C1012 C1008 1.385 . S
C1012 C1011 1.374 . S
C1013 C1010 1.499 . S
C1013 C1014 1.373 . S
C1013 C1015 1.389 . S
C1014 H987 0.950 . S
C1014 C1000 1.377 . S
C1014 C1013 1.373 . S
C1015 C999 1.377 . S
C1015 C1013 1.389 . S
C1015 C1016 1.524 . S
C1016 C1015 1.524 . S
C1016 C1017 1.397 . S
C1016 C1021 1.363 . S
C1017 H988 0.950 . S
C1017 C1016 1.397 . S
C1017 C1018 1.334 . S
C1018 H989 0.950 . S
C1018 C1017 1.334 . S
C1018 C1019 1.287 . S
C1019 C1018 1.287 . S
C1019 C1020 1.524 . S
C1019 H1022 0.999 . S
C1020 H990 0.950 . S
C1020 C1019 1.524 . S
C1020 C1021 1.415 . S
C1021 H991 0.950 . S
C1021 C1016 1.363 . S
C1021 C1020 1.415 . S
H1022 C1019 0.999 . S
H1023 C1004 0.913 . S
H1024 C1042 0.951 . S
H1025 C1044 0.951 . S
H1026 C1046 0.950 . S
H1027 C1047 0.950 . S
H1028 C1049 0.950 . S
H1029 C1052 0.950 . S
H1030 C1053 0.950 . S
H1031 C1055 0.950 . S
H1032 C1056 0.950 . S
H1033 C1057 0.951 . S
H1034 C1059 0.951 . S
H1035 C1061 0.950 . S
H1036 C1062 0.950 . S
H1037 C1064 0.950 . S
H1038 C1067 0.950 . S
H1039 C1068 0.950 . S
H1040 C1070 0.950 . S
H1041 C1071 0.950 . S
C1042 H1024 0.951 . S
C1042 C1043 1.366 . S
C1042 C1044 1.388 . S
C1043 C1042 1.366 . S
C1043 C1047 1.385 . S
C1044 H1025 0.951 . S
C1044 C1042 1.388 . S
C1044 C1045 1.366 . S
C1045 C1044 1.366 . S
C1045 C1046 1.414 . S
C1045 C1048 1.499 . S
C1046 H1026 0.950 . S
C1046 C1045 1.414 . S
C1046 C1047 1.374 . S
C1047 H1027 0.950 . S
C1047 C1043 1.385 . S
C1047 C1046 1.374 . S
C1048 C1045 1.499 . S
C1048 C1049 1.373 . S
C1048 C1050 1.389 . S
C1049 H1028 0.950 . S
C1049 C1048 1.373 . S
C1049 C1065 1.377 1_556 S
C1050 C1048 1.389 . S
C1050 C1051 1.524 . S
C1050 C1064 1.377 1_556 S
C1051 C1050 1.524 . S
C1051 C1052 1.397 . S
C1051 C1056 1.363 . S
C1052 H1029 0.950 . S
C1052 C1051 1.397 . S
C1052 C1053 1.334 . S
C1053 H1030 0.950 . S
C1053 C1052 1.334 . S
C1053 C1054 1.287 . S
C1054 C1053 1.287 . S
C1054 C1055 1.524 . S
C1054 H1073 0.913 . S
C1055 H1031 0.950 . S
C1055 C1054 1.524 . S
C1055 C1056 1.415 . S
C1056 H1032 0.950 . S
C1056 C1051 1.363 . S
C1056 C1055 1.415 . S
C1057 H1033 0.951 . S
C1057 C1058 1.366 . S
C1057 C1059 1.388 . S
C1058 C1057 1.366 . S
C1058 C1062 1.385 . S
C1059 H1034 0.951 . S
C1059 C1057 1.388 . S
C1059 C1060 1.366 . S
C1060 C1059 1.366 . S
C1060 C1061 1.414 . S
C1060 C1063 1.499 . S
C1061 H1035 0.950 . S
C1061 C1060 1.414 . S
C1061 C1062 1.374 . S
C1062 H1036 0.950 . S
C1062 C1058 1.385 . S
C1062 C1061 1.374 . S
C1063 C1060 1.499 . S
C1063 C1064 1.373 . S
C1063 C1065 1.389 . S
C1064 H1037 0.950 . S
C1064 C1050 1.377 1_554 S
C1064 C1063 1.373 . S
C1065 C1049 1.377 1_554 S
C1065 C1063 1.389 . S
C1065 C1066 1.524 . S
C1066 C1065 1.524 . S
C1066 C1067 1.397 . S
C1066 C1071 1.363 . S
C1067 H1038 0.950 . S
C1067 C1066 1.397 . S
C1067 C1068 1.334 . S
C1068 H1039 0.950 . S
C1068 C1067 1.334 . S
C1068 C1069 1.287 . S
C1069 C1068 1.287 . S
C1069 C1070 1.524 . S
C1069 H1072 0.999 . S
C1070 H1040 0.950 . S
C1070 C1069 1.524 . S
C1070 C1071 1.415 . S
C1071 H1041 0.950 . S
C1071 C1066 1.363 . S
C1071 C1070 1.415 . S
H1072 C1069 0.999 . S
H1073 C1054 0.913 . S
H1074 C1092 0.951 . S
H1075 C1094 0.951 . S
H1076 C1096 0.950 . S
H1077 C1097 0.950 . S
H1078 C1099 0.950 . S
H1079 C1102 0.950 . S
H1080 C1103 0.950 . S
H1081 C1105 0.950 . S
H1082 C1106 0.950 . S
H1083 C1107 0.951 . S
H1084 C1109 0.951 . S
H1085 C1111 0.950 . S
H1086 C1112 0.950 . S
H1087 C1114 0.950 . S
H1088 C1117 0.950 . S
H1089 C1118 0.950 . S
H1090 C1120 0.950 . S
H1091 C1121 0.950 . S
C1092 H1074 0.951 . S
C1092 C1093 1.366 . S
C1092 C1094 1.388 . S
C1093 C1092 1.366 . S
C1093 C1097 1.385 . S
C1094 H1075 0.951 . S
C1094 C1092 1.388 . S
C1094 C1095 1.366 . S
C1095 C1094 1.366 . S
C1095 C1096 1.414 . S
C1095 C1098 1.499 . S
C1096 H1076 0.950 . S
C1096 C1095 1.414 . S
C1096 C1097 1.374 . S
C1097 H1077 0.950 . S
C1097 C1093 1.385 . S
C1097 C1096 1.374 . S
C1098 C1095 1.499 . S
C1098 C1099 1.373 . S
C1098 C1100 1.389 . S
C1099 H1078 0.950 . S
C1099 C1098 1.373 . S
C1099 C1115 1.377 . S
C1100 C1098 1.389 . S
C1100 C1101 1.524 . S
C1100 C1114 1.377 . S
C1101 C1100 1.524 . S
C1101 C1102 1.397 . S
C1101 C1106 1.363 . S
C1102 H1079 0.950 . S
C1102 C1101 1.397 . S
C1102 C1103 1.334 . S
C1103 H1080 0.950 . S
C1103 C1102 1.334 . S
C1103 C1104 1.287 . S
C1104 C1103 1.287 . S
C1104 C1105 1.524 . S
C1104 H1123 0.913 . S
C1105 H1081 0.950 . S
C1105 C1104 1.524 . S
C1105 C1106 1.415 . S
C1106 H1082 0.950 . S
C1106 C1101 1.363 . S
C1106 C1105 1.415 . S
C1107 H1083 0.951 . S
C1107 C1108 1.366 . S
C1107 C1109 1.388 . S
C1108 C1107 1.366 . S
C1108 C1112 1.385 . S
C1109 H1084 0.951 . S
C1109 C1107 1.388 . S
C1109 C1110 1.366 . S
C1110 C1109 1.366 . S
C1110 C1111 1.414 . S
C1110 C1113 1.499 . S
C1111 H1085 0.950 . S
C1111 C1110 1.414 . S
C1111 C1112 1.374 . S
C1112 H1086 0.950 . S
C1112 C1108 1.385 . S
C1112 C1111 1.374 . S
C1113 C1110 1.499 . S
C1113 C1114 1.373 . S
C1113 C1115 1.389 . S
C1114 H1087 0.950 . S
C1114 C1100 1.377 . S
C1114 C1113 1.373 . S
C1115 C1099 1.377 . S
C1115 C1113 1.389 . S
C1115 C1116 1.524 . S
C1116 C1115 1.524 . S
C1116 C1117 1.397 . S
C1116 C1121 1.363 . S
C1117 H1088 0.950 . S
C1117 C1116 1.397 . S
C1117 C1118 1.334 . S
C1118 H1089 0.950 . S
C1118 C1117 1.334 . S
C1118 C1119 1.287 . S
C1119 C1118 1.287 . S
C1119 C1120 1.524 . S
C1119 H1122 0.999 . S
C1120 H1090 0.950 . S
C1120 C1119 1.524 . S
C1120 C1121 1.415 . S
C1121 H1091 0.950 . S
C1121 C1116 1.363 . S
C1121 C1120 1.415 . S
H1122 C1119 0.999 . S
H1123 C1104 0.913 . S
H1124 C1142 0.951 . S
H1125 C1144 0.951 . S
H1126 C1146 0.950 . S
H1127 C1147 0.950 . S
H1128 C1149 0.950 . S
H1129 C1152 0.950 . S
H1130 C1153 0.950 . S
H1131 C1155 0.950 . S
H1132 C1156 0.950 . S
H1133 C1157 0.951 . S
H1134 C1159 0.951 . S
H1135 C1161 0.950 . S
H1136 C1162 0.950 . S
H1137 C1164 0.950 . S
H1138 C1167 0.950 . S
H1139 C1168 0.950 . S
H1140 C1170 0.950 . S
H1141 C1171 0.950 . S
C1142 H1124 0.951 . S
C1142 C1143 1.366 . S
C1142 C1144 1.388 . S
C1143 C1142 1.366 . S
C1143 C1147 1.385 . S
C1144 H1125 0.951 . S
C1144 C1142 1.388 . S
C1144 C1145 1.366 . S
C1145 C1144 1.366 . S
C1145 C1146 1.414 . S
C1145 C1148 1.499 . S
C1146 H1126 0.950 . S
C1146 C1145 1.414 . S
C1146 C1147 1.374 . S
C1147 H1127 0.950 . S
C1147 C1143 1.385 . S
C1147 C1146 1.374 . S
C1148 C1145 1.499 . S
C1148 C1149 1.373 . S
C1148 C1150 1.389 . S
C1149 H1128 0.950 . S
C1149 C1148 1.373 . S
C1149 C1165 1.377 1_554 S
C1150 C1148 1.389 . S
C1150 C1151 1.524 . S
C1150 C1164 1.377 1_554 S
C1151 C1150 1.524 . S
C1151 C1152 1.397 . S
C1151 C1156 1.363 . S
C1152 H1129 0.950 . S
C1152 C1151 1.397 . S
C1152 C1153 1.334 . S
C1153 H1130 0.950 . S
C1153 C1152 1.334 . S
C1153 C1154 1.287 . S
C1154 C1153 1.287 . S
C1154 C1155 1.524 . S
C1154 H1173 0.913 . S
C1155 H1131 0.950 . S
C1155 C1154 1.524 . S
C1155 C1156 1.415 . S
C1156 H1132 0.950 . S
C1156 C1151 1.363 . S
C1156 C1155 1.415 . S
C1157 H1133 0.951 . S
C1157 C1158 1.366 . S
C1157 C1159 1.388 . S
C1158 C1157 1.366 . S
C1158 C1162 1.385 . S
C1159 H1134 0.951 . S
C1159 C1157 1.388 . S
C1159 C1160 1.366 . S
C1160 C1159 1.366 . S
C1160 C1161 1.414 . S
C1160 C1163 1.499 . S
C1161 H1135 0.950 . S
C1161 C1160 1.414 . S
C1161 C1162 1.374 . S
C1162 H1136 0.950 . S
C1162 C1158 1.385 . S
C1162 C1161 1.374 . S
C1163 C1160 1.499 . S
C1163 C1164 1.373 . S
C1163 C1165 1.389 . S
C1164 H1137 0.950 . S
C1164 C1150 1.377 1_556 S
C1164 C1163 1.373 . S
C1165 C1149 1.377 1_556 S
C1165 C1163 1.389 . S
C1165 C1166 1.524 . S
C1166 C1165 1.524 . S
C1166 C1167 1.397 . S
C1166 C1171 1.363 . S
C1167 H1138 0.950 . S
C1167 C1166 1.397 . S
C1167 C1168 1.334 . S
C1168 H1139 0.950 . S
C1168 C1167 1.334 . S
C1168 C1169 1.287 . S
C1169 C1168 1.287 . S
C1169 C1170 1.524 . S
C1169 H1172 0.999 . S
C1170 H1140 0.950 . S
C1170 C1169 1.524 . S
C1170 C1171 1.415 . S
C1171 H1141 0.950 . S
C1171 C1166 1.363 . S
C1171 C1170 1.415 . S
H1172 C1169 0.999 . S
H1173 C1154 0.913 . S
H1174 C1192 0.951 . S
H1175 C1194 0.951 . S
H1176 C1196 0.950 . S
H1177 C1197 0.950 . S
H1178 C1199 0.950 . S
H1179 C1202 0.950 . S
H1180 C1203 0.950 . S
H1181 C1205 0.950 . S
H1182 C1206 0.950 . S
H1183 C1207 0.951 . S
H1184 C1209 0.951 . S
H1185 C1211 0.950 . S
H1186 C1212 0.950 . S
H1187 C1214 0.950 . S
H1188 C1217 0.950 . S
H1189 C1218 0.950 . S
H1190 C1220 0.950 . S
H1191 C1221 0.950 . S
C1192 H1174 0.951 . S
C1192 C1193 1.366 . S
C1192 C1194 1.388 . S
C1193 C1192 1.366 . S
C1193 C1197 1.385 . S
C1194 H1175 0.951 . S
C1194 C1192 1.388 . S
C1194 C1195 1.366 . S
C1195 C1194 1.366 . S
C1195 C1196 1.414 . S
C1195 C1198 1.499 . S
C1196 H1176 0.950 . S
C1196 C1195 1.414 . S
C1196 C1197 1.374 . S
C1197 H1177 0.950 . S
C1197 C1193 1.385 . S
C1197 C1196 1.374 . S
C1198 C1195 1.499 . S
C1198 C1199 1.373 . S
C1198 C1200 1.389 . S
C1199 H1178 0.950 . S
C1199 C1198 1.373 . S
C1199 C1215 1.377 . S
C1200 C1198 1.389 . S
C1200 C1201 1.524 . S
C1200 C1214 1.377 . S
C1201 C1200 1.524 . S
C1201 C1202 1.397 . S
C1201 C1206 1.363 . S
C1202 H1179 0.950 . S
C1202 C1201 1.397 . S
C1202 C1203 1.334 . S
C1203 H1180 0.950 . S
C1203 C1202 1.334 . S
C1203 C1204 1.287 . S
C1204 C1203 1.287 . S
C1204 C1205 1.524 . S
C1204 H1223 0.913 . S
C1205 H1181 0.950 . S
C1205 C1204 1.524 . S
C1205 C1206 1.415 . S
C1206 H1182 0.950 . S
C1206 C1201 1.363 . S
C1206 C1205 1.415 . S
C1207 H1183 0.951 . S
C1207 C1208 1.366 . S
C1207 C1209 1.388 . S
C1208 C1207 1.366 . S
C1208 C1212 1.385 . S
C1209 H1184 0.951 . S
C1209 C1207 1.388 . S
C1209 C1210 1.366 . S
C1210 C1209 1.366 . S
C1210 C1211 1.414 . S
C1210 C1213 1.499 . S
C1211 H1185 0.950 . S
C1211 C1210 1.414 . S
C1211 C1212 1.374 . S
C1212 H1186 0.950 . S
C1212 C1208 1.385 . S
C1212 C1211 1.374 . S
C1213 C1210 1.499 . S
C1213 C1214 1.373 . S
C1213 C1215 1.389 . S
C1214 H1187 0.950 . S
C1214 C1200 1.377 . S
C1214 C1213 1.373 . S
C1215 C1199 1.377 . S
C1215 C1213 1.389 . S
C1215 C1216 1.524 . S
C1216 C1215 1.524 . S
C1216 C1217 1.397 . S
C1216 C1221 1.363 . S
C1217 H1188 0.950 . S
C1217 C1216 1.397 . S
C1217 C1218 1.334 . S
C1218 H1189 0.950 . S
C1218 C1217 1.334 . S
C1218 C1219 1.287 . S
C1219 C1218 1.287 . S
C1219 C1220 1.524 . S
C1219 H1222 0.999 . S
C1220 H1190 0.950 . S
C1220 C1219 1.524 . S
C1220 C1221 1.415 . S
C1221 H1191 0.950 . S
C1221 C1216 1.363 . S
C1221 C1220 1.415 . S
H1222 C1219 0.999 . S
H1223 C1204 0.913 . S
H1224 C1242 0.951 . S
H1225 C1244 0.951 . S
H1226 C1246 0.950 . S
H1227 C1247 0.950 . S
H1228 C1249 0.950 . S
H1229 C1252 0.950 . S
H1230 C1253 0.950 . S
H1231 C1255 0.950 . S
H1232 C1256 0.950 . S
H1233 C1257 0.951 . S
H1234 C1259 0.951 . S
H1235 C1261 0.950 . S
H1236 C1262 0.950 . S
H1237 C1264 0.950 . S
H1238 C1267 0.950 . S
H1239 C1268 0.950 . S
H1240 C1270 0.950 . S
H1241 C1271 0.950 . S
C1242 H1224 0.951 . S
C1242 C1243 1.366 . S
C1242 C1244 1.388 . S
C1243 C1242 1.366 . S
C1243 C1247 1.385 . S
C1244 H1225 0.951 . S
C1244 C1242 1.388 . S
C1244 C1245 1.366 . S
C1245 C1244 1.366 . S
C1245 C1246 1.414 . S
C1245 C1248 1.499 . S
C1246 H1226 0.950 . S
C1246 C1245 1.414 . S
C1246 C1247 1.374 . S
C1247 H1227 0.950 . S
C1247 C1243 1.385 . S
C1247 C1246 1.374 . S
C1248 C1245 1.499 . S
C1248 C1249 1.373 . S
C1248 C1250 1.389 . S
C1249 H1228 0.950 . S
C1249 C1248 1.373 . S
C1249 C1265 1.377 . S
C1250 C1248 1.389 . S
C1250 C1251 1.524 . S
C1250 C1264 1.377 . S
C1251 C1250 1.524 . S
C1251 C1252 1.397 . S
C1251 C1256 1.363 . S
C1252 H1229 0.950 . S
C1252 C1251 1.397 . S
C1252 C1253 1.334 . S
C1253 H1230 0.950 . S
C1253 C1252 1.334 . S
C1253 C1254 1.287 . S
C1254 C1253 1.287 . S
C1254 C1255 1.524 . S
C1254 H1273 0.913 . S
C1255 H1231 0.950 . S
C1255 C1254 1.524 . S
C1255 C1256 1.415 . S
C1256 H1232 0.950 . S
C1256 C1251 1.363 . S
C1256 C1255 1.415 . S
C1257 H1233 0.951 . S
C1257 C1258 1.366 . S
C1257 C1259 1.388 . S
C1258 C1257 1.366 . S
C1258 C1262 1.385 . S
C1259 H1234 0.951 . S
C1259 C1257 1.388 . S
C1259 C1260 1.366 . S
C1260 C1259 1.366 . S
C1260 C1261 1.414 . S
C1260 C1263 1.499 . S
C1261 H1235 0.950 . S
C1261 C1260 1.414 . S
C1261 C1262 1.374 . S
C1262 H1236 0.950 . S
C1262 C1258 1.385 . S
C1262 C1261 1.374 . S
C1263 C1260 1.499 . S
C1263 C1264 1.373 . S
C1263 C1265 1.389 . S
C1264 H1237 0.950 . S
C1264 C1250 1.377 . S
C1264 C1263 1.373 . S
C1265 C1249 1.377 . S
C1265 C1263 1.389 . S
C1265 C1266 1.524 . S
C1266 C1265 1.524 . S
C1266 C1267 1.397 . S
C1266 C1271 1.363 . S
C1267 H1238 0.950 . S
C1267 C1266 1.397 . S
C1267 C1268 1.334 . S
C1268 H1239 0.950 . S
C1268 C1267 1.334 . S
C1268 C1269 1.287 . S
C1269 C1268 1.287 . S
C1269 C1270 1.524 . S
C1269 H1272 0.999 . S
C1270 H1240 0.950 . S
C1270 C1269 1.524 . S
C1270 C1271 1.415 . S
C1271 H1241 0.950 . S
C1271 C1266 1.363 . S
C1271 C1270 1.415 . S
H1272 C1269 0.999 . S
H1273 C1254 0.913 . S
H1274 C1292 0.951 . S
H1275 C1294 0.951 . S
H1276 C1296 0.950 . S
H1277 C1297 0.950 . S
H1278 C1299 0.950 . S
H1279 C1302 0.950 . S
H1280 C1303 0.950 . S
H1281 C1305 0.950 . S
H1282 C1306 0.950 . S
H1283 C1307 0.951 . S
H1284 C1309 0.951 . S
H1285 C1311 0.950 . S
H1286 C1312 0.950 . S
H1287 C1314 0.950 . S
H1288 C1317 0.950 . S
H1289 C1318 0.950 . S
H1290 C1320 0.950 . S
H1291 C1321 0.950 . S
C1292 H1274 0.951 . S
C1292 C1293 1.366 . S
C1292 C1294 1.388 . S
C1293 C1292 1.366 . S
C1293 C1297 1.385 . S
C1294 H1275 0.951 . S
C1294 C1292 1.388 . S
C1294 C1295 1.366 . S
C1295 C1294 1.366 . S
C1295 C1296 1.414 . S
C1295 C1298 1.499 . S
C1296 H1276 0.950 . S
C1296 C1295 1.414 . S
C1296 C1297 1.374 . S
C1297 H1277 0.950 . S
C1297 C1293 1.385 . S
C1297 C1296 1.374 . S
C1298 C1295 1.499 . S
C1298 C1299 1.373 . S
C1298 C1300 1.389 . S
C1299 H1278 0.950 . S
C1299 C1298 1.373 . S
C1299 C1315 1.377 1_556 S
C1300 C1298 1.389 . S
C1300 C1301 1.524 . S
C1300 C1314 1.377 1_556 S
C1301 C1300 1.524 . S
C1301 C1302 1.397 . S
C1301 C1306 1.363 . S
C1302 H1279 0.950 . S
C1302 C1301 1.397 . S
C1302 C1303 1.334 . S
C1303 H1280 0.950 . S
C1303 C1302 1.334 . S
C1303 C1304 1.287 . S
C1304 C1303 1.287 . S
C1304 C1305 1.524 . S
C1304 H1323 0.913 . S
C1305 H1281 0.950 . S
C1305 C1304 1.524 . S
C1305 C1306 1.415 . S
C1306 H1282 0.950 . S
C1306 C1301 1.363 . S
C1306 C1305 1.415 . S
C1307 H1283 0.951 . S
C1307 C1308 1.366 . S
C1307 C1309 1.388 . S
C1308 C1307 1.366 . S
C1308 C1312 1.385 . S
C1309 H1284 0.951 . S
C1309 C1307 1.388 . S
C1309 C1310 1.366 . S
C1310 C1309 1.366 . S
C1310 C1311 1.414 . S
C1310 C1313 1.499 . S
C1311 H1285 0.950 . S
C1311 C1310 1.414 . S
C1311 C1312 1.374 . S
C1312 H1286 0.950 . S
C1312 C1308 1.385 . S
C1312 C1311 1.374 . S
C1313 C1310 1.499 . S
C1313 C1314 1.373 . S
C1313 C1315 1.389 . S
C1314 H1287 0.950 . S
C1314 C1300 1.377 1_554 S
C1314 C1313 1.373 . S
C1315 C1299 1.377 1_554 S
C1315 C1313 1.389 . S
C1315 C1316 1.524 . S
C1316 C1315 1.524 . S
C1316 C1317 1.397 . S
C1316 C1321 1.363 . S
C1317 H1288 0.950 . S
C1317 C1316 1.397 . S
C1317 C1318 1.334 . S
C1318 H1289 0.950 . S
C1318 C1317 1.334 . S
C1318 C1319 1.287 . S
C1319 C1318 1.287 . S
C1319 C1320 1.524 . S
C1319 H1322 0.999 . S
C1320 H1290 0.950 . S
C1320 C1319 1.524 . S
C1320 C1321 1.415 . S
C1321 H1291 0.950 . S
C1321 C1316 1.363 . S
C1321 C1320 1.415 . S
H1322 C1319 0.999 . S
H1323 C1304 0.913 . S
H1324 C1342 0.951 . S
H1325 C1344 0.951 . S
H1326 C1346 0.950 . S
H1327 C1347 0.950 . S
H1328 C1349 0.950 . S
H1329 C1352 0.950 . S
H1330 C1353 0.950 . S
H1331 C1355 0.950 . S
H1332 C1356 0.950 . S
H1333 C1357 0.951 . S
H1334 C1359 0.951 . S
H1335 C1361 0.950 . S
H1336 C1362 0.950 . S
H1337 C1364 0.950 . S
H1338 C1367 0.950 . S
H1339 C1368 0.950 . S
H1340 C1370 0.950 . S
H1341 C1371 0.950 . S
C1342 H1324 0.951 . S
C1342 C1343 1.366 . S
C1342 C1344 1.388 . S
C1343 C1342 1.366 . S
C1343 C1347 1.385 . S
C1344 H1325 0.951 . S
C1344 C1342 1.388 . S
C1344 C1345 1.366 . S
C1345 C1344 1.366 . S
C1345 C1346 1.414 . S
C1345 C1348 1.499 . S
C1346 H1326 0.950 . S
C1346 C1345 1.414 . S
C1346 C1347 1.374 . S
C1347 H1327 0.950 . S
C1347 C1343 1.385 . S
C1347 C1346 1.374 . S
C1348 C1345 1.499 . S
C1348 C1349 1.373 . S
C1348 C1350 1.389 . S
C1349 H1328 0.950 . S
C1349 C1348 1.373 . S
C1349 C1365 1.377 . S
C1350 C1348 1.389 . S
C1350 C1351 1.524 . S
C1350 C1364 1.377 . S
C1351 C1350 1.524 . S
C1351 C1352 1.397 . S
C1351 C1356 1.363 . S
C1352 H1329 0.950 . S
C1352 C1351 1.397 . S
C1352 C1353 1.334 . S
C1353 H1330 0.950 . S
C1353 C1352 1.334 . S
C1353 C1354 1.287 . S
C1354 C1353 1.287 . S
C1354 C1355 1.524 . S
C1354 H1373 0.913 . S
C1355 H1331 0.950 . S
C1355 C1354 1.524 . S
C1355 C1356 1.415 . S
C1356 H1332 0.950 . S
C1356 C1351 1.363 . S
C1356 C1355 1.415 . S
C1357 H1333 0.951 . S
C1357 C1358 1.366 . S
C1357 C1359 1.388 . S
C1358 C1357 1.366 . S
C1358 C1362 1.385 . S
C1359 H1334 0.951 . S
C1359 C1357 1.388 . S
C1359 C1360 1.366 . S
C1360 C1359 1.366 . S
C1360 C1361 1.414 . S
C1360 C1363 1.499 . S
C1361 H1335 0.950 . S
C1361 C1360 1.414 . S
C1361 C1362 1.374 . S
C1362 H1336 0.950 . S
C1362 C1358 1.385 . S
C1362 C1361 1.374 . S
C1363 C1360 1.499 . S
C1363 C1364 1.373 . S
C1363 C1365 1.389 . S
C1364 H1337 0.950 . S
C1364 C1350 1.377 . S
C1364 C1363 1.373 . S
C1365 C1349 1.377 . S
C1365 C1363 1.389 . S
C1365 C1366 1.524 . S
C1366 C1365 1.524 . S
C1366 C1367 1.397 . S
C1366 C1371 1.363 . S
C1367 H1338 0.950 . S
C1367 C1366 1.397 . S
C1367 C1368 1.334 . S
C1368 H1339 0.950 . S
C1368 C1367 1.334 . S
C1368 C1369 1.287 . S
C1369 C1368 1.287 . S
C1369 C1370 1.524 . S
C1369 H1372 0.999 . S
C1370 H1340 0.950 . S
C1370 C1369 1.524 . S
C1370 C1371 1.415 . S
C1371 H1341 0.950 . S
C1371 C1366 1.363 . S
C1371 C1370 1.415 . S
H1372 C1369 0.999 . S
H1373 C1354 0.913 . S
H1374 C1392 0.951 . S
H1375 C1394 0.951 . S
H1376 C1396 0.950 . S
H1377 C1397 0.950 . S
H1378 C1399 0.950 . S
H1379 C1402 0.950 . S
H1380 C1403 0.950 . S
H1381 C1405 0.950 . S
H1382 C1406 0.950 . S
H1383 C1407 0.951 . S
H1384 C1409 0.951 . S
H1385 C1411 0.950 . S
H1386 C1412 0.950 . S
H1387 C1414 0.950 . S
H1388 C1417 0.950 . S
H1389 C1418 0.950 . S
H1390 C1420 0.950 . S
H1391 C1421 0.950 . S
C1392 H1374 0.951 . S
C1392 C1393 1.366 . S
C1392 C1394 1.388 . S
C1393 C1392 1.366 . S
C1393 C1397 1.385 . S
C1394 H1375 0.951 . S
C1394 C1392 1.388 . S
C1394 C1395 1.366 . S
C1395 C1394 1.366 . S
C1395 C1396 1.414 . S
C1395 C1398 1.499 . S
C1396 H1376 0.950 . S
C1396 C1395 1.414 . S
C1396 C1397 1.374 . S
C1397 H1377 0.950 . S
C1397 C1393 1.385 . S
C1397 C1396 1.374 . S
C1398 C1395 1.499 . S
C1398 C1399 1.373 . S
C1398 C1400 1.389 . S
C1399 H1378 0.950 . S
C1399 C1398 1.373 . S
C1399 C1415 1.377 1_554 S
C1400 C1398 1.389 . S
C1400 C1401 1.524 . S
C1400 C1414 1.377 1_554 S
C1401 C1400 1.524 . S
C1401 C1402 1.397 . S
C1401 C1406 1.363 . S
C1402 H1379 0.950 . S
C1402 C1401 1.397 . S
C1402 C1403 1.334 . S
C1403 H1380 0.950 . S
C1403 C1402 1.334 . S
C1403 C1404 1.287 . S
C1404 C1403 1.287 . S
C1404 C1405 1.524 . S
C1404 H1423 0.913 . S
C1405 H1381 0.950 . S
C1405 C1404 1.524 . S
C1405 C1406 1.415 . S
C1406 H1382 0.950 . S
C1406 C1401 1.363 . S
C1406 C1405 1.415 . S
C1407 H1383 0.951 . S
C1407 C1408 1.366 . S
C1407 C1409 1.388 . S
C1408 C1407 1.366 . S
C1408 C1412 1.385 . S
C1409 H1384 0.951 . S
C1409 C1407 1.388 . S
C1409 C1410 1.366 . S
C1410 C1409 1.366 . S
C1410 C1411 1.414 . S
C1410 C1413 1.499 . S
C1411 H1385 0.950 . S
C1411 C1410 1.414 . S
C1411 C1412 1.374 . S
C1412 H1386 0.950 . S
C1412 C1408 1.385 . S
C1412 C1411 1.374 . S
C1413 C1410 1.499 . S
C1413 C1414 1.373 . S
C1413 C1415 1.389 . S
C1414 H1387 0.950 . S
C1414 C1400 1.377 1_556 S
C1414 C1413 1.373 . S
C1415 C1399 1.377 1_556 S
C1415 C1413 1.389 . S
C1415 C1416 1.524 . S
C1416 C1415 1.524 . S
C1416 C1417 1.397 . S
C1416 C1421 1.363 . S
C1417 H1388 0.950 . S
C1417 C1416 1.397 . S
C1417 C1418 1.334 . S
C1418 H1389 0.950 . S
C1418 C1417 1.334 . S
C1418 C1419 1.287 . S
C1419 C1418 1.287 . S
C1419 C1420 1.524 . S
C1419 H1422 0.999 . S
C1420 H1390 0.950 . S
C1420 C1419 1.524 . S
C1420 C1421 1.415 . S
C1421 H1391 0.950 . S
C1421 C1416 1.363 . S
C1421 C1420 1.415 . S
H1422 C1419 0.999 . S
H1423 C1404 0.913 . S
H1424 C1442 0.951 . S
H1425 C1444 0.951 . S
H1426 C1446 0.950 . S
H1427 C1447 0.950 . S
H1428 C1449 0.950 . S
H1429 C1452 0.950 . S
H1430 C1453 0.950 . S
H1431 C1455 0.950 . S
H1432 C1456 0.950 . S
H1433 C1457 0.951 . S
H1434 C1459 0.951 . S
H1435 C1461 0.950 . S
H1436 C1462 0.950 . S
H1437 C1464 0.950 . S
H1438 C1467 0.950 . S
H1439 C1468 0.950 . S
H1440 C1470 0.950 . S
H1441 C1471 0.950 . S
C1442 H1424 0.951 . S
C1442 C1443 1.366 . S
C1442 C1444 1.388 . S
C1443 C1442 1.366 . S
C1443 C1447 1.385 . S
C1444 H1425 0.951 . S
C1444 C1442 1.388 . S
C1444 C1445 1.366 . S
C1445 C1444 1.366 . S
C1445 C1446 1.414 . S
C1445 C1448 1.499 . S
C1446 H1426 0.950 . S
C1446 C1445 1.414 . S
C1446 C1447 1.374 . S
C1447 H1427 0.950 . S
C1447 C1443 1.385 . S
C1447 C1446 1.374 . S
C1448 C1445 1.499 . S
C1448 C1449 1.373 . S
C1448 C1450 1.389 . S
C1449 H1428 0.950 . S
C1449 C1448 1.373 . S
C1449 C1465 1.377 . S
C1450 C1448 1.389 . S
C1450 C1451 1.524 . S
C1450 C1464 1.377 . S
C1451 C1450 1.524 . S
C1451 C1452 1.397 . S
C1451 C1456 1.363 . S
C1452 H1429 0.950 . S
C1452 C1451 1.397 . S
C1452 C1453 1.334 . S
C1453 H1430 0.950 . S
C1453 C1452 1.334 . S
C1453 C1454 1.287 . S
C1454 C1453 1.287 . S
C1454 C1455 1.524 . S
C1454 H1473 0.913 . S
C1455 H1431 0.950 . S
C1455 C1454 1.524 . S
C1455 C1456 1.415 . S
C1456 H1432 0.950 . S
C1456 C1451 1.363 . S
C1456 C1455 1.415 . S
C1457 H1433 0.951 . S
C1457 C1458 1.366 . S
C1457 C1459 1.388 . S
C1458 C1457 1.366 . S
C1458 C1462 1.385 . S
C1459 H1434 0.951 . S
C1459 C1457 1.388 . S
C1459 C1460 1.366 . S
C1460 C1459 1.366 . S
C1460 C1461 1.414 . S
C1460 C1463 1.499 . S
C1461 H1435 0.950 . S
C1461 C1460 1.414 . S
C1461 C1462 1.374 . S
C1462 H1436 0.950 . S
C1462 C1458 1.385 . S
C1462 C1461 1.374 . S
C1463 C1460 1.499 . S
C1463 C1464 1.373 . S
C1463 C1465 1.389 . S
C1464 H1437 0.950 . S
C1464 C1450 1.377 . S
C1464 C1463 1.373 . S
C1465 C1449 1.377 . S
C1465 C1463 1.389 . S
C1465 C1466 1.524 . S
C1466 C1465 1.524 . S
C1466 C1467 1.397 . S
C1466 C1471 1.363 . S
C1467 H1438 0.950 . S
C1467 C1466 1.397 . S
C1467 C1468 1.334 . S
C1468 H1439 0.950 . S
C1468 C1467 1.334 . S
C1468 C1469 1.287 . S
C1469 C1468 1.287 . S
C1469 C1470 1.524 . S
C1469 H1472 0.999 . S
C1470 H1440 0.950 . S
C1470 C1469 1.524 . S
C1470 C1471 1.415 . S
C1471 H1441 0.950 . S
C1471 C1466 1.363 . S
C1471 C1470 1.415 . S
H1472 C1469 0.999 . S
H1473 C1454 0.913 . S
H1474 C1492 0.951 . S
H1475 C1494 0.951 . S
H1476 C1496 0.950 . S
H1477 C1497 0.950 . S
H1478 C1499 0.950 . S
H1479 C1502 0.950 . S
H1480 C1503 0.950 . S
H1481 C1505 0.950 . S
H1482 C1506 0.950 . S
H1483 C1507 0.951 . S
H1484 C1509 0.951 . S
H1485 C1511 0.950 . S
H1486 C1512 0.950 . S
H1487 C1514 0.950 . S
H1488 C1517 0.950 . S
H1489 C1518 0.950 . S
H1490 C1520 0.950 . S
H1491 C1521 0.950 . S
C1492 H1474 0.951 . S
C1492 C1493 1.366 . S
C1492 C1494 1.388 . S
C1493 C1492 1.366 . S
C1493 C1497 1.385 . S
C1494 H1475 0.951 . S
C1494 C1492 1.388 . S
C1494 C1495 1.366 . S
C1495 C1494 1.366 . S
C1495 C1496 1.414 . S
C1495 C1498 1.499 . S
C1496 H1476 0.950 . S
C1496 C1495 1.414 . S
C1496 C1497 1.374 . S
C1497 H1477 0.950 . S
C1497 C1493 1.385 . S
C1497 C1496 1.374 . S
C1498 C1495 1.499 . S
C1498 C1499 1.373 . S
C1498 C1500 1.389 . S
C1499 H1478 0.950 . S
C1499 C1498 1.373 . S
C1499 C1515 1.377 . S
C1500 C1498 1.389 . S
C1500 C1501 1.524 . S
C1500 C1514 1.377 . S
C1501 C1500 1.524 . S
C1501 C1502 1.397 . S
C1501 C1506 1.363 . S
C1502 H1479 0.950 . S
C1502 C1501 1.397 . S
C1502 C1503 1.334 . S
C1503 H1480 0.950 . S
C1503 C1502 1.334 . S
C1503 C1504 1.287 . S
C1504 C1503 1.287 . S
C1504 C1505 1.524 . S
C1504 H1523 0.913 . S
C1505 H1481 0.950 . S
C1505 C1504 1.524 . S
C1505 C1506 1.415 . S
C1506 H1482 0.950 . S
C1506 C1501 1.363 . S
C1506 C1505 1.415 . S
C1507 H1483 0.951 . S
C1507 C1508 1.366 . S
C1507 C1509 1.388 . S
C1508 C1507 1.366 . S
C1508 C1512 1.385 . S
C1509 H1484 0.951 . S
C1509 C1507 1.388 . S
C1509 C1510 1.366 . S
C1510 C1509 1.366 . S
C1510 C1511 1.414 . S
C1510 C1513 1.499 . S
C1511 H1485 0.950 . S
C1511 C1510 1.414 . S
C1511 C1512 1.374 . S
C1512 H1486 0.950 . S
C1512 C1508 1.385 . S
C1512 C1511 1.374 . S
C1513 C1510 1.499 . S
C1513 C1514 1.373 . S
C1513 C1515 1.389 . S
C1514 H1487 0.950 . S
C1514 C1500 1.377 . S
C1514 C1513 1.373 . S
C1515 C1499 1.377 . S
C1515 C1513 1.389 . S
C1515 C1516 1.524 . S
C1516 C1515 1.524 . S
C1516 C1517 1.397 . S
C1516 C1521 1.363 . S
C1517 H1488 0.950 . S
C1517 C1516 1.397 . S
C1517 C1518 1.334 . S
C1518 H1489 0.950 . S
C1518 C1517 1.334 . S
C1518 C1519 1.287 . S
C1519 C1518 1.287 . S
C1519 C1520 1.524 . S
C1519 H1522 0.999 . S
C1520 H1490 0.950 . S
C1520 C1519 1.524 . S
C1520 C1521 1.415 . S
C1521 H1491 0.950 . S
C1521 C1516 1.363 . S
C1521 C1520 1.415 . S
H1522 C1519 0.999 . S
H1523 C1504 0.913 . S
H1524 C1542 0.951 . S
H1525 C1544 0.951 . S
H1526 C1546 0.950 . S
H1527 C1547 0.950 . S
H1528 C1549 0.950 . S
H1529 C1552 0.950 . S
H1530 C1553 0.950 . S
H1531 C1555 0.950 . S
H1532 C1556 0.950 . S
H1533 C1557 0.951 . S
H1534 C1559 0.951 . S
H1535 C1561 0.950 . S
H1536 C1562 0.950 . S
H1537 C1564 0.950 . S
H1538 C1567 0.950 . S
H1539 C1568 0.950 . S
H1540 C1570 0.950 . S
H1541 C1571 0.950 . S
C1542 H1524 0.951 . S
C1542 C1543 1.366 . S
C1542 C1544 1.388 . S
C1543 C1542 1.366 . S
C1543 C1547 1.385 . S
C1544 H1525 0.951 . S
C1544 C1542 1.388 . S
C1544 C1545 1.366 . S
C1545 C1544 1.366 . S
C1545 C1546 1.414 . S
C1545 C1548 1.499 . S
C1546 H1526 0.950 . S
C1546 C1545 1.414 . S
C1546 C1547 1.374 . S
C1547 H1527 0.950 . S
C1547 C1543 1.385 . S
C1547 C1546 1.374 . S
C1548 C1545 1.499 . S
C1548 C1549 1.373 . S
C1548 C1550 1.389 . S
C1549 H1528 0.950 . S
C1549 C1548 1.373 . S
C1549 C1565 1.377 . S
C1550 C1548 1.389 . S
C1550 C1551 1.524 . S
C1550 C1564 1.377 . S
C1551 C1550 1.524 . S
C1551 C1552 1.397 . S
C1551 C1556 1.363 . S
C1552 H1529 0.950 . S
C1552 C1551 1.397 . S
C1552 C1553 1.334 . S
C1553 H1530 0.950 . S
C1553 C1552 1.334 . S
C1553 C1554 1.287 . S
C1554 C1553 1.287 . S
C1554 C1555 1.524 . S
C1554 H1573 0.913 . S
C1555 H1531 0.950 . S
C1555 C1554 1.524 . S
C1555 C1556 1.415 . S
C1556 H1532 0.950 . S
C1556 C1551 1.363 . S
C1556 C1555 1.415 . S
C1557 H1533 0.951 . S
C1557 C1558 1.366 . S
C1557 C1559 1.388 . S
C1558 C1557 1.366 . S
C1558 C1562 1.385 . S
C1559 H1534 0.951 . S
C1559 C1557 1.388 . S
C1559 C1560 1.366 . S
C1560 C1559 1.366 . S
C1560 C1561 1.414 . S
C1560 C1563 1.499 . S
C1561 H1535 0.950 . S
C1561 C1560 1.414 . S
C1561 C1562 1.374 . S
C1562 H1536 0.950 . S
C1562 C1558 1.385 . S
C1562 C1561 1.374 . S
C1563 C1560 1.499 . S
C1563 C1564 1.373 . S
C1563 C1565 1.389 . S
C1564 H1537 0.950 . S
C1564 C1550 1.377 . S
C1564 C1563 1.373 . S
C1565 C1549 1.377 . S
C1565 C1563 1.389 . S
C1565 C1566 1.524 . S
C1566 C1565 1.524 . S
C1566 C1567 1.397 . S
C1566 C1571 1.363 . S
C1567 H1538 0.950 . S
C1567 C1566 1.397 . S
C1567 C1568 1.334 . S
C1568 H1539 0.950 . S
C1568 C1567 1.334 . S
C1568 C1569 1.287 . S
C1569 C1568 1.287 . S
C1569 C1570 1.524 . S
C1569 H1572 0.999 . S
C1570 H1540 0.950 . S
C1570 C1569 1.524 . S
C1570 C1571 1.415 . S
C1571 H1541 0.950 . S
C1571 C1566 1.363 . S
C1571 C1570 1.415 . S
H1572 C1569 0.999 . S
H1573 C1554 0.913 . S
H1574 C1592 0.951 . S
H1575 C1594 0.951 . S
H1576 C1596 0.950 . S
H1577 C1597 0.950 . S
H1578 C1599 0.950 . S
H1579 C1602 0.950 . S
H1580 C1603 0.950 . S
H1581 C1605 0.950 . S
H1582 C1606 0.950 . S
H1583 C1607 0.951 . S
H1584 C1609 0.951 . S
H1585 C1611 0.950 . S
H1586 C1612 0.950 . S
H1587 C1614 0.950 . S
H1588 C1617 0.950 . S
H1589 C1618 0.950 . S
H1590 C1620 0.950 . S
H1591 C1621 0.950 . S
C1592 H1574 0.951 . S
C1592 C1593 1.366 . S
C1592 C1594 1.388 . S
C1593 C1592 1.366 . S
C1593 C1597 1.385 . S
C1594 H1575 0.951 . S
C1594 C1592 1.388 . S
C1594 C1595 1.366 . S
C1595 C1594 1.366 . S
C1595 C1596 1.414 . S
C1595 C1598 1.499 . S
C1596 H1576 0.950 . S
C1596 C1595 1.414 . S
C1596 C1597 1.374 . S
C1597 H1577 0.950 . S
C1597 C1593 1.385 . S
C1597 C1596 1.374 . S
C1598 C1595 1.499 . S
C1598 C1599 1.373 . S
C1598 C1600 1.389 . S
C1599 H1578 0.950 . S
C1599 C1598 1.373 . S
C1599 C1615 1.377 . S
C1600 C1598 1.389 . S
C1600 C1601 1.524 . S
C1600 C1614 1.377 . S
C1601 C1600 1.524 . S
C1601 C1602 1.397 . S
C1601 C1606 1.363 . S
C1602 H1579 0.950 . S
C1602 C1601 1.397 . S
C1602 C1603 1.334 . S
C1603 H1580 0.950 . S
C1603 C1602 1.334 . S
C1603 C1604 1.287 . S
C1604 C1603 1.287 . S
C1604 C1605 1.524 . S
C1604 H1623 0.913 . S
C1605 H1581 0.950 . S
C1605 C1604 1.524 . S
C1605 C1606 1.415 . S
C1606 H1582 0.950 . S
C1606 C1601 1.363 . S
C1606 C1605 1.415 . S
C1607 H1583 0.951 . S
C1607 C1608 1.366 . S
C1607 C1609 1.388 . S
C1608 C1607 1.366 . S
C1608 C1612 1.385 . S
C1609 H1584 0.951 . S
C1609 C1607 1.388 . S
C1609 C1610 1.366 . S
C1610 C1609 1.366 . S
C1610 C1611 1.414 . S
C1610 C1613 1.499 . S
C1611 H1585 0.950 . S
C1611 C1610 1.414 . S
C1611 C1612 1.374 . S
C1612 H1586 0.950 . S
C1612 C1608 1.385 . S
C1612 C1611 1.374 . S
C1613 C1610 1.499 . S
C1613 C1614 1.373 . S
C1613 C1615 1.389 . S
C1614 H1587 0.950 . S
C1614 C1600 1.377 . S
C1614 C1613 1.373 . S
C1615 C1599 1.377 . S
C1615 C1613 1.389 . S
C1615 C1616 1.524 . S
C1616 C1615 1.524 . S
C1616 C1617 1.397 . S
C1616 C1621 1.363 . S
C1617 H1588 0.950 . S
C1617 C1616 1.397 . S
C1617 C1618 1.334 . S
C1618 H1589 0.950 . S
C1618 C1617 1.334 . S
C1618 C1619 1.287 . S
C1619 C1618 1.287 . S
C1619 C1620 1.524 . S
C1619 H1622 0.999 . S
C1620 H1590 0.950 . S
C1620 C1619 1.524 . S
C1620 C1621 1.415 . S
C1621 H1591 0.950 . S
C1621 C1616 1.363 . S
C1621 C1620 1.415 . S
H1622 C1619 0.999 . S
H1623 C1604 0.913 . S
H1624 C1642 0.951 . S
H1625 C1644 0.951 . S
H1626 C1646 0.950 . S
H1627 C1647 0.950 . S
H1628 C1649 0.950 . S
H1629 C1652 0.950 . S
H1630 C1653 0.950 . S
H1631 C1655 0.950 . S
H1632 C1656 0.950 . S
H1633 C1657 0.951 . S
H1634 C1659 0.951 . S
H1635 C1661 0.950 . S
H1636 C1662 0.950 . S
H1637 C1664 0.950 . S
H1638 C1667 0.950 . S
H1639 C1668 0.950 . S
H1640 C1670 0.950 . S
H1641 C1671 0.950 . S
C1642 H1624 0.951 . S
C1642 C1643 1.366 . S
C1642 C1644 1.388 . S
C1643 C1642 1.366 . S
C1643 C1647 1.385 . S
C1644 H1625 0.951 . S
C1644 C1642 1.388 . S
C1644 C1645 1.366 . S
C1645 C1644 1.366 . S
C1645 C1646 1.414 . S
C1645 C1648 1.499 . S
C1646 H1626 0.950 . S
C1646 C1645 1.414 . S
C1646 C1647 1.374 . S
C1647 H1627 0.950 . S
C1647 C1643 1.385 . S
C1647 C1646 1.374 . S
C1648 C1645 1.499 . S
C1648 C1649 1.373 . S
C1648 C1650 1.389 . S
C1649 H1628 0.950 . S
C1649 C1648 1.373 . S
C1649 C1665 1.377 . S
C1650 C1648 1.389 . S
C1650 C1651 1.524 . S
C1650 C1664 1.377 . S
C1651 C1650 1.524 . S
C1651 C1652 1.397 . S
C1651 C1656 1.363 . S
C1652 H1629 0.950 . S
C1652 C1651 1.397 . S
C1652 C1653 1.334 . S
C1653 H1630 0.950 . S
C1653 C1652 1.334 . S
C1653 C1654 1.287 . S
C1654 C1653 1.287 . S
C1654 C1655 1.524 . S
C1654 H1673 0.913 . S
C1655 H1631 0.950 . S
C1655 C1654 1.524 . S
C1655 C1656 1.415 . S
C1656 H1632 0.950 . S
C1656 C1651 1.363 . S
C1656 C1655 1.415 . S
C1657 H1633 0.951 . S
C1657 C1658 1.366 . S
C1657 C1659 1.388 . S
C1658 C1657 1.366 . S
C1658 C1662 1.385 . S
C1659 H1634 0.951 . S
C1659 C1657 1.388 . S
C1659 C1660 1.366 . S
C1660 C1659 1.366 . S
C1660 C1661 1.414 . S
C1660 C1663 1.499 . S
C1661 H1635 0.950 . S
C1661 C1660 1.414 . S
C1661 C1662 1.374 . S
C1662 H1636 0.950 . S
C1662 C1658 1.385 . S
C1662 C1661 1.374 . S
C1663 C1660 1.499 . S
C1663 C1664 1.373 . S
C1663 C1665 1.389 . S
C1664 H1637 0.950 . S
C1664 C1650 1.377 . S
C1664 C1663 1.373 . S
C1665 C1649 1.377 . S
C1665 C1663 1.389 . S
C1665 C1666 1.524 . S
C1666 C1665 1.524 . S
C1666 C1667 1.397 . S
C1666 C1671 1.363 . S
C1667 H1638 0.950 . S
C1667 C1666 1.397 . S
C1667 C1668 1.334 . S
C1668 H1639 0.950 . S
C1668 C1667 1.334 . S
C1668 C1669 1.287 . S
C1669 C1668 1.287 . S
C1669 C1670 1.524 . S
C1669 H1672 0.999 . S
C1670 H1640 0.950 . S
C1670 C1669 1.524 . S
C1670 C1671 1.415 . S
C1671 H1641 0.950 . S
C1671 C1666 1.363 . S
C1671 C1670 1.415 . S
H1672 C1669 0.999 . S
H1673 C1654 0.913 . S
H1674 C1692 0.951 . S
H1675 C1694 0.951 . S
H1676 C1696 0.950 . S
H1677 C1697 0.950 . S
H1678 C1699 0.950 . S
H1679 C1702 0.950 . S
H1680 C1703 0.950 . S
H1681 C1705 0.950 . S
H1682 C1706 0.950 . S
H1683 C1707 0.951 . S
H1684 C1709 0.951 . S
H1685 C1711 0.950 . S
H1686 C1712 0.950 . S
H1687 C1714 0.950 . S
H1688 C1717 0.950 . S
H1689 C1718 0.950 . S
H1690 C1720 0.950 . S
H1691 C1721 0.950 . S
C1692 H1674 0.951 . S
C1692 C1693 1.366 . S
C1692 C1694 1.388 . S
C1693 C1692 1.366 . S
C1693 C1697 1.385 . S
C1694 H1675 0.951 . S
C1694 C1692 1.388 . S
C1694 C1695 1.366 . S
C1695 C1694 1.366 . S
C1695 C1696 1.414 . S
C1695 C1698 1.499 . S
C1696 H1676 0.950 . S
C1696 C1695 1.414 . S
C1696 C1697 1.374 . S
C1697 H1677 0.950 . S
C1697 C1693 1.385 . S
C1697 C1696 1.374 . S
C1698 C1695 1.499 . S
C1698 C1699 1.373 . S
C1698 C1700 1.389 . S
C1699 H1678 0.950 . S
C1699 C1698 1.373 . S
C1699 C1715 1.377 . S
C1700 C1698 1.389 . S
C1700 C1701 1.524 . S
C1700 C1714 1.377 . S
C1701 C1700 1.524 . S
C1701 C1702 1.397 . S
C1701 C1706 1.363 . S
C1702 H1679 0.950 . S
C1702 C1701 1.397 . S
C1702 C1703 1.334 . S
C1703 H1680 0.950 . S
C1703 C1702 1.334 . S
C1703 C1704 1.287 . S
C1704 C1703 1.287 . S
C1704 C1705 1.524 . S
C1704 H1723 0.913 . S
C1705 H1681 0.950 . S
C1705 C1704 1.524 . S
C1705 C1706 1.415 . S
C1706 H1682 0.950 . S
C1706 C1701 1.363 . S
C1706 C1705 1.415 . S
C1707 H1683 0.951 . S
C1707 C1708 1.366 . S
C1707 C1709 1.388 . S
C1708 C1707 1.366 . S
C1708 C1712 1.385 . S
C1709 H1684 0.951 . S
C1709 C1707 1.388 . S
C1709 C1710 1.366 . S
C1710 C1709 1.366 . S
C1710 C1711 1.414 . S
C1710 C1713 1.499 . S
C1711 H1685 0.950 . S
C1711 C1710 1.414 . S
C1711 C1712 1.374 . S
C1712 H1686 0.950 . S
C1712 C1708 1.385 . S
C1712 C1711 1.374 . S
C1713 C1710 1.499 . S
C1713 C1714 1.373 . S
C1713 C1715 1.389 . S
C1714 H1687 0.950 . S
C1714 C1700 1.377 . S
C1714 C1713 1.373 . S
C1715 C1699 1.377 . S
C1715 C1713 1.389 . S
C1715 C1716 1.524 . S
C1716 C1715 1.524 . S
C1716 C1717 1.397 . S
C1716 C1721 1.363 . S
C1717 H1688 0.950 . S
C1717 C1716 1.397 . S
C1717 C1718 1.334 . S
C1718 H1689 0.950 . S
C1718 C1717 1.334 . S
C1718 C1719 1.287 . S
C1719 C1718 1.287 . S
C1719 C1720 1.524 . S
C1719 H1722 0.999 . S
C1720 H1690 0.950 . S
C1720 C1719 1.524 . S
C1720 C1721 1.415 . S
C1721 H1691 0.950 . S
C1721 C1716 1.363 . S
C1721 C1720 1.415 . S
H1722 C1719 0.999 . S
H1723 C1704 0.913 . S
H1724 C1742 0.951 . S
H1725 C1744 0.951 . S
H1726 C1746 0.950 . S
H1727 C1747 0.950 . S
H1728 C1749 0.950 . S
H1729 C1752 0.950 . S
H1730 C1753 0.950 . S
H1731 C1755 0.950 . S
H1732 C1756 0.950 . S
H1733 C1757 0.951 . S
H1734 C1759 0.951 . S
H1735 C1761 0.950 . S
H1736 C1762 0.950 . S
H1737 C1764 0.950 . S
H1738 C1767 0.950 . S
H1739 C1768 0.950 . S
H1740 C1770 0.950 . S
H1741 C1771 0.950 . S
C1742 H1724 0.951 . S
C1742 C1743 1.366 . S
C1742 C1744 1.388 . S
C1743 C1742 1.366 . S
C1743 C1747 1.385 . S
C1744 H1725 0.951 . S
C1744 C1742 1.388 . S
C1744 C1745 1.366 . S
C1745 C1744 1.366 . S
C1745 C1746 1.414 . S
C1745 C1748 1.499 . S
C1746 H1726 0.950 . S
C1746 C1745 1.414 . S
C1746 C1747 1.374 . S
C1747 H1727 0.950 . S
C1747 C1743 1.385 . S
C1747 C1746 1.374 . S
C1748 C1745 1.499 . S
C1748 C1749 1.373 . S
C1748 C1750 1.389 . S
C1749 H1728 0.950 . S
C1749 C1748 1.373 . S
C1749 C1765 1.377 . S
C1750 C1748 1.389 . S
C1750 C1751 1.524 . S
C1750 C1764 1.377 . S
C1751 C1750 1.524 . S
C1751 C1752 1.397 . S
C1751 C1756 1.363 . S
C1752 H1729 0.950 . S
C1752 C1751 1.397 . S
C1752 C1753 1.334 . S
C1753 H1730 0.950 . S
C1753 C1752 1.334 . S
C1753 C1754 1.287 . S
C1754 C1753 1.287 . S
C1754 C1755 1.524 . S
C1754 H1773 0.913 . S
C1755 H1731 0.950 . S
C1755 C1754 1.524 . S
C1755 C1756 1.415 . S
C1756 H1732 0.950 . S
C1756 C1751 1.363 . S
C1756 C1755 1.415 . S
C1757 H1733 0.951 . S
C1757 C1758 1.366 . S
C1757 C1759 1.388 . S
C1758 C1757 1.366 . S
C1758 C1762 1.385 . S
C1759 H1734 0.951 . S
C1759 C1757 1.388 . S
C1759 C1760 1.366 . S
C1760 C1759 1.366 . S
C1760 C1761 1.414 . S
C1760 C1763 1.499 . S
C1761 H1735 0.950 . S
C1761 C1760 1.414 . S
C1761 C1762 1.374 . S
C1762 H1736 0.950 . S
C1762 C1758 1.385 . S
C1762 C1761 1.374 . S
C1763 C1760 1.499 . S
C1763 C1764 1.373 . S
C1763 C1765 1.389 . S
C1764 H1737 0.950 . S
C1764 C1750 1.377 . S
C1764 C1763 1.373 . S
C1765 C1749 1.377 . S
C1765 C1763 1.389 . S
C1765 C1766 1.524 . S
C1766 C1765 1.524 . S
C1766 C1767 1.397 . S
C1766 C1771 1.363 . S
C1767 H1738 0.950 . S
C1767 C1766 1.397 . S
C1767 C1768 1.334 . S
C1768 H1739 0.950 . S
C1768 C1767 1.334 . S
C1768 C1769 1.287 . S
C1769 C1768 1.287 . S
C1769 C1770 1.524 . S
C1769 H1772 0.999 . S
C1770 H1740 0.950 . S
C1770 C1769 1.524 . S
C1770 C1771 1.415 . S
C1771 H1741 0.950 . S
C1771 C1766 1.363 . S
C1771 C1770 1.415 . S
H1772 C1769 0.999 . S
H1773 C1754 0.913 . S
H1774 C1792 0.951 . S
H1775 C1794 0.951 . S
H1776 C1796 0.950 . S
H1777 C1797 0.950 . S
H1778 C1799 0.950 . S
H1779 C1802 0.950 . S
H1780 C1803 0.950 . S
H1781 C1805 0.950 . S
H1782 C1806 0.950 . S
H1783 C1807 0.951 . S
H1784 C1809 0.951 . S
H1785 C1811 0.950 . S
H1786 C1812 0.950 . S
H1787 C1814 0.950 . S
H1788 C1817 0.950 . S
H1789 C1818 0.950 . S
H1790 C1820 0.950 . S
H1791 C1821 0.950 . S
C1792 H1774 0.951 . S
C1792 C1793 1.366 . S
C1792 C1794 1.388 . S
C1793 C1792 1.366 . S
C1793 C1797 1.385 . S
C1794 H1775 0.951 . S
C1794 C1792 1.388 . S
C1794 C1795 1.366 . S
C1795 C1794 1.366 . S
C1795 C1796 1.414 . S
C1795 C1798 1.499 . S
C1796 H1776 0.950 . S
C1796 C1795 1.414 . S
C1796 C1797 1.374 . S
C1797 H1777 0.950 . S
C1797 C1793 1.385 . S
C1797 C1796 1.374 . S
C1798 C1795 1.499 . S
C1798 C1799 1.373 . S
C1798 C1800 1.389 . S
C1799 H1778 0.950 . S
C1799 C1798 1.373 . S
C1799 C1815 1.377 . S
C1800 C1798 1.389 . S
C1800 C1801 1.524 . S
C1800 C1814 1.377 . S
C1801 C1800 1.524 . S
C1801 C1802 1.397 . S
C1801 C1806 1.363 . S
C1802 H1779 0.950 . S
C1802 C1801 1.397 . S
C1802 C1803 1.334 . S
C1803 H1780 0.950 . S
C1803 C1802 1.334 . S
C1803 C1804 1.287 . S
C1804 C1803 1.287 . S
C1804 C1805 1.524 . S
C1804 H1823 0.913 . S
C1805 H1781 0.950 . S
C1805 C1804 1.524 . S
C1805 C1806 1.415 . S
C1806 H1782 0.950 . S
C1806 C1801 1.363 . S
C1806 C1805 1.415 . S
C1807 H1783 0.951 . S
C1807 C1808 1.366 . S
C1807 C1809 1.388 . S
C1808 C1807 1.366 . S
C1808 C1812 1.385 . S
C1809 H1784 0.951 . S
C1809 C1807 1.388 . S
C1809 C1810 1.366 . S
C1810 C1809 1.366 . S
C1810 C1811 1.414 . S
C1810 C1813 1.499 . S
C1811 H1785 0.950 . S
C1811 C1810 1.414 . S
C1811 C1812 1.374 . S
C1812 H1786 0.950 . S
C1812 C1808 1.385 . S
C1812 C1811 1.374 . S
C1813 C1810 1.499 . S
C1813 C1814 1.373 . S
C1813 C1815 1.389 . S
C1814 H1787 0.950 . S
C1814 C1800 1.377 . S
C1814 C1813 1.373 . S
C1815 C1799 1.377 . S
C1815 C1813 1.389 . S
C1815 C1816 1.524 . S
C1816 C1815 1.524 . S
C1816 C1817 1.397 . S
C1816 C1821 1.363 . S
C1817 H1788 0.950 . S
C1817 C1816 1.397 . S
C1817 C1818 1.334 . S
C1818 H1789 0.950 . S
C1818 C1817 1.334 . S
C1818 C1819 1.287 . S
C1819 C1818 1.287 . S
C1819 C1820 1.524 . S
C1819 H1822 0.999 . S
C1820 H1790 0.950 . S
C1820 C1819 1.524 . S
C1820 C1821 1.415 . S
C1821 H1791 0.950 . S
C1821 C1816 1.363 . S
C1821 C1820 1.415 . S
H1822 C1819 0.999 . S
H1823 C1804 0.913 . S
C243 C5 1.311 . S
C258 C33 1.311 . S
C293 C47 1.311 . S
C308 C19 1.311 . S
C343 C61 1.311 . S
C358 C89 1.311 . S
C393 C103 1.311 . S
C408 C75 1.311 . S
C443 C117 1.311 . S
C458 C145 1.311 . S
C493 C159 1.311 . S
C508 C131 1.311 . S
C543 C173 1.311 . S
C558 C201 1.311 . S
C593 C215 1.311 . S
C608 C187 1.311 . S
C643 C56 1.169 . S
C658 C0 1.169 . S
C693 C14 1.169 . S
C708 C70 1.170 . S
C743 C28 1.170 . S
C758 C84 1.169 . S
C793 C98 1.169 . S
C808 C42 1.169 . S
C843 C112 1.169 . S
C858 C168 1.170 . S
C893 C126 1.170 . S
C908 C182 1.170 . S
C943 C140 1.169 . S
C958 C196 1.169 . S
C993 C154 1.169 . S
C1008 C210 1.169 . S
C1043 C149 1.087 . S
C1058 C9 1.085 . S
C1093 C163 1.086 . S
C1108 C23 1.086 . S
C1143 C37 1.086 . S
C1158 C121 1.086 . S
C1193 C51 1.087 . S
C1208 C135 1.085 . S
C1243 C65 1.085 . S
C1258 C205 1.087 . S
C1293 C79 1.087 . S
C1308 C219 1.085 . S
C1343 C93 1.086 . S
C1358 C177 1.085 . S
C1393 C191 1.085 . S
C1408 C107 1.087 . S
C1443 C11 1.326 . S
C1458 C221 1.326 . S
C1493 C179 1.326 . S
C1508 C25 1.326 . S
C1543 C39 1.326 . S
C1558 C193 1.326 . S
C1593 C207 1.326 . S
C1608 C53 1.326 . S
C1643 C137 1.326 . S
C1658 C67 1.326 . S
C1693 C81 1.326 . S
C1708 C151 1.326 . S
C1743 C165 1.326 . S
C1758 C95 1.326 . S
C1793 C123 1.326 . S
C1808 C109 1.326 . S
