# Generated by pormake.
# Topology uku, (4)-cn, num edge types: 1
# Building blocks:
#     Node 0, Type 0, BuildingBlock: KUFVIS_clean_sbu_0, # of connection points: 4
#     Node 1, Type 0, BuildingBlock: KUFVIS_clean_sbu_0, # of connection points: 4
#     Node 2, Type 0, BuildingBlock: KUFVIS_clean_sbu_0, # of connection points: 4
#     Node 3, Type 0, BuildingBlock: KUFVIS_clean_sbu_0, # of connection points: 4
#     Node 4, Type 0, BuildingBlock: KUFVIS_clean_sbu_0, # of connection points: 4
#     Node 5, Type 0, BuildingBlock: KUFVIS_clean_sbu_0, # of connection points: 4
#     Node 6, Type 0, BuildingBlock: KUFVIS_clean_sbu_0, # of connection points: 4
#     Node 7, Type 0, BuildingBlock: KUFVIS_clean_sbu_0, # of connection points: 4
#     Node 8, Type 0, BuildingBlock: KUFVIS_clean_sbu_0, # of connection points: 4
#     Node 9, Type 0, BuildingBlock: KUFVIS_clean_sbu_0, # of connection points: 4
#     Node 10, Type 0, BuildingBlock: KUFVIS_clean_sbu_0, # of connection points: 4
#     Node 11, Type 0, BuildingBlock: KUFVIS_clean_sbu_0, # of connection points: 4
#     Edge 12, Type (0, 0), BuildingBlock: EZIPEK_clean_linker_0, # of connection points: 2
#     Edge 13, Type (0, 0), BuildingBlock: EZIPEK_clean_linker_0, # of connection points: 2
#     Edge 14, Type (0, 0), BuildingBlock: EZIPEK_clean_linker_0, # of connection points: 2
#     Edge 15, Type (0, 0), BuildingBlock: EZIPEK_clean_linker_0, # of connection points: 2
#     Edge 16, Type (0, 0), BuildingBlock: EZIPEK_clean_linker_0, # of connection points: 2
#     Edge 17, Type (0, 0), BuildingBlock: EZIPEK_clean_linker_0, # of connection points: 2
#     Edge 18, Type (0, 0), BuildingBlock: EZIPEK_clean_linker_0, # of connection points: 2
#     Edge 19, Type (0, 0), BuildingBlock: EZIPEK_clean_linker_0, # of connection points: 2
#     Edge 20, Type (0, 0), BuildingBlock: EZIPEK_clean_linker_0, # of connection points: 2
#     Edge 21, Type (0, 0), BuildingBlock: EZIPEK_clean_linker_0, # of connection points: 2
#     Edge 22, Type (0, 0), BuildingBlock: EZIPEK_clean_linker_0, # of connection points: 2
#     Edge 23, Type (0, 0), BuildingBlock: EZIPEK_clean_linker_0, # of connection points: 2
#     Edge 24, Type (0, 0), BuildingBlock: EZIPEK_clean_linker_0, # of connection points: 2
#     Edge 25, Type (0, 0), BuildingBlock: EZIPEK_clean_linker_0, # of connection points: 2
#     Edge 26, Type (0, 0), BuildingBlock: EZIPEK_clean_linker_0, # of connection points: 2
#     Edge 27, Type (0, 0), BuildingBlock: EZIPEK_clean_linker_0, # of connection points: 2
#     Edge 28, Type (0, 0), BuildingBlock: EZIPEK_clean_linker_0, # of connection points: 2
#     Edge 29, Type (0, 0), BuildingBlock: EZIPEK_clean_linker_0, # of connection points: 2
#     Edge 30, Type (0, 0), BuildingBlock: EZIPEK_clean_linker_0, # of connection points: 2
#     Edge 31, Type (0, 0), BuildingBlock: EZIPEK_clean_linker_0, # of connection points: 2
#     Edge 32, Type (0, 0), BuildingBlock: EZIPEK_clean_linker_0, # of connection points: 2
#     Edge 33, Type (0, 0), BuildingBlock: EZIPEK_clean_linker_0, # of connection points: 2
#     Edge 34, Type (0, 0), BuildingBlock: EZIPEK_clean_linker_0, # of connection points: 2
#     Edge 35, Type (0, 0), BuildingBlock: EZIPEK_clean_linker_0, # of connection points: 2
# Relax obj value: 0.400
# Max RMSD: 0.284
# Mean RMSD: 0.284
data_MOF--net-uku--node1-KUFVIS_clean_sbu_0--edge1-EZIPEK_clean_linker_0
_symmetry_space_group_name_H-M    P1
_symmetry_Int_Tables_number       1
_symmetry_cell_setting            triclinic
loop_
_symmetry_equiv_pos_as_xyz
'x, y, z'
_cell_length_a     29.906633
_cell_length_b     29.857375
_cell_length_c     29.844022
_cell_angle_alpha  89.993694
_cell_angle_beta   90.021564
_cell_angle_gamma 89.86594
loop_
_atom_site_label
_atom_site_type_symbol
_atom_site_fract_x
_atom_site_fract_y
_atom_site_fract_z
_atom_type_partial_charge
Mn0 Mn 0.08229 0.1578 0.66472 0.0
Mn1 Mn 0.97646 0.19014 0.68685 0.0
C2 C 0.07048 0.22213 0.70527 0.0
C3 C 0.14279 0.1128 0.68423 0.0
C4 C 0.0205 0.19531 0.59469 0.0
O5 O 0.04519 0.10256 0.6538 0.0
O6 O 0.9778 0.1235 0.68121 0.0
C7 C 0.95629 0.14971 0.77523 0.0
N8 N 0.96296 0.18681 0.7495 0.0
C9 C 0.94501 0.23535 0.81138 0.0
C10 C 0.93919 0.19767 0.83877 0.0
C11 C 0.9446 0.15466 0.82053 0.0
C12 C 0.95666 0.22832 0.76645 0.0
H13 H 0.95942 0.11656 0.76124 0.0
C14 C 0.00541 0.09415 0.66624 0.0
O15 O 0.13687 0.12598 0.64323 0.0
O16 O 0.11383 0.12666 0.71353 0.0
N17 N 0.97237 0.25376 0.69446 0.0
C18 C 0.97585 0.28654 0.66299 0.0
C19 C 0.97114 0.33158 0.67571 0.0
C20 C 0.96185 0.34241 0.72054 0.0
C21 C 0.95661 0.30803 0.75207 0.0
C22 C 0.96201 0.26377 0.73743 0.0
H23 H 0.98177 0.27834 0.62843 0.0
O24 O 0.10835 0.21557 0.6849 0.0
O25 O 0.04057 0.19105 0.70016 0.0
O26 O 0.06015 0.1858 0.60678 0.0
O27 O 0.98686 0.19528 0.62119 0.0
C28 C 0.94577 0.31593 0.79734 0.0
C29 C 0.93976 0.2796 0.82693 0.0
H30 H 0.93038 0.20142 0.87376 0.0
H31 H 0.93951 0.12537 0.84128 0.0
H32 H 0.97441 0.35786 0.65096 0.0
H33 H 0.95811 0.37718 0.73022 0.0
H34 H 0.94157 0.3498 0.80966 0.0
H35 H 0.93112 0.28606 0.8616 0.0
Mn36 Mn 0.91157 0.8334 0.65295 0.0
Mn37 Mn 0.01659 0.81044 0.68696 0.0
C38 C 0.92349 0.77108 0.69703 0.0
C39 C 0.84883 0.87769 0.66493 0.0
C40 C 0.98296 0.79997 0.59122 0.0
O41 O 0.94558 0.8899 0.64195 0.0
O42 O 0.00929 0.87746 0.68059 0.0
C43 C 0.03192 0.85208 0.77565 0.0
N44 N 0.02558 0.8146 0.75045 0.0
C45 C 0.0449 0.76739 0.8131 0.0
C46 C 0.04836 0.80547 0.84032 0.0
C47 C 0.0424 0.84806 0.82134 0.0
C48 C 0.03397 0.77357 0.76782 0.0
H49 H 0.03086 0.88475 0.76064 0.0
C50 C 0.98147 0.9034 0.65998 0.0
O51 O 0.85796 0.86229 0.62526 0.0
O52 O 0.87477 0.86504 0.69742 0.0
N53 N 0.02454 0.74718 0.69509 0.0
C54 C 0.02313 0.71393 0.66384 0.0
C55 C 0.02969 0.66929 0.67712 0.0
C56 C 0.03823 0.65926 0.72227 0.0
C57 C 0.04029 0.69403 0.75374 0.0
C58 C 0.03286 0.73785 0.73864 0.0
H59 H 0.01688 0.72127 0.62904 0.0
O60 O 0.88715 0.77492 0.67336 0.0
O61 O 0.95167 0.80407 0.69382 0.0
O62 O 0.94134 0.80505 0.59864 0.0
O63 O 0.01307 0.80378 0.62127 0.0
C64 C 0.04978 0.68691 0.79944 0.0
C65 C 0.05253 0.72361 0.82902 0.0
H66 H 0.05679 0.80243 0.8755 0.0
H67 H 0.04694 0.87776 0.84162 0.0
H68 H 0.02826 0.64266 0.65256 0.0
H69 H 0.04348 0.62479 0.73234 0.0
H70 H 0.0556 0.65339 0.81208 0.0
H71 H 0.06057 0.71781 0.86396 0.0
Mn72 Mn 0.06555 0.82609 0.32764 0.0
Mn73 Mn 0.95585 0.80683 0.32155 0.0
C74 C 0.04171 0.76996 0.28123 0.0
C75 C 0.12483 0.86919 0.30315 0.0
C76 C 0.01538 0.78811 0.40317 0.0
O77 O 0.03588 0.88018 0.35583 0.0
O78 O 0.96561 0.87244 0.32943 0.0
C79 C 0.92425 0.8538 0.23981 0.0
N80 N 0.93275 0.81489 0.26214 0.0
C81 C 0.90744 0.77111 0.19934 0.0
C82 C 0.90036 0.81067 0.17503 0.0
C83 C 0.90835 0.85222 0.19555 0.0
C84 C 0.92348 0.77482 0.24329 0.0
H85 H 0.92928 0.88579 0.25573 0.0
C86 C -0.0026 0.89581 0.34642 0.0
O87 O 0.12612 0.84913 0.34179 0.0
O88 O 0.0885 0.86516 0.27983 0.0
N89 N 0.94439 0.74445 0.31193 0.0
C90 C 0.94599 0.71029 0.34198 0.0
C91 C 0.93645 0.66646 0.32791 0.0
C92 C 0.92388 0.65847 0.28328 0.0
C93 C 0.91951 0.69463 0.25362 0.0
C94 C 0.92956 0.73751 0.2697 0.0
H95 H 0.95362 0.71676 0.37647 0.0
O96 O 0.08328 0.77199 0.2935 0.0
O97 O 0.01581 0.80156 0.29634 0.0
O98 O 0.05229 0.78824 0.38224 0.0
O99 O 0.97773 0.79721 0.38447 0.0
C100 C 0.90471 0.68993 0.20903 0.0
C101 C 0.89872 0.72817 0.18188 0.0
H102 H 0.88804 0.80958 0.1409 0.0
H103 H 0.90212 0.88291 0.17732 0.0
H104 H 0.9384 0.63899 0.35149 0.0
H105 H 0.91648 0.62465 0.2725 0.0
H106 H 0.89713 0.65714 0.19552 0.0
H107 H 0.88671 0.72422 0.14786 0.0
Mn108 Mn 0.91795 0.15995 0.33452 0.0
Mn109 Mn 0.02778 0.17792 0.32161 0.0
C110 C 0.9409 0.21882 0.29055 0.0
C111 C 0.85541 0.12337 0.3073 0.0
C112 C 0.97568 0.1951 0.40819 0.0
O113 O 0.94667 0.10213 0.35484 0.0
O114 O 0.01762 0.11245 0.33079 0.0
C115 C 0.04866 0.12995 0.2372 0.0
N116 N 0.04551 0.16902 0.2606 0.0
C117 C 0.06854 0.21176 0.19626 0.0
C118 C 0.071 0.17209 0.17125 0.0
C119 C 0.06123 0.131 0.19188 0.0
C120 C 0.05582 0.20863 0.24131 0.0
H121 H 0.04143 0.09824 0.25291 0.0
C122 C 0.98595 0.08798 0.34634 0.0
O123 O 0.85627 0.13819 0.34829 0.0
O124 O 0.89151 0.12776 0.28398 0.0
N125 N 0.03998 0.23997 0.31092 0.0
C126 C 0.03896 0.27474 0.34037 0.0
C127 C 0.04881 0.31818 0.32533 0.0
C128 C 0.06036 0.32528 0.28028 0.0
C129 C 0.06294 0.28871 0.25093 0.0
C130 C 0.05295 0.24618 0.26796 0.0
H131 H 0.03095 0.26927 0.37507 0.0
O132 O 0.90076 0.2181 0.30689 0.0
O133 O 0.96637 0.18542 0.30189 0.0
O134 O 0.93637 0.19066 0.39241 0.0
O135 O 0.01148 0.18854 0.38545 0.0
C136 C 0.07521 0.29275 0.20552 0.0
C137 C 0.078 0.25429 0.17819 0.0
H138 H 0.08049 0.17279 0.13626 0.0
H139 H 0.06332 0.10021 0.17286 0.0
H140 H 0.04752 0.3461 0.34842 0.0
H141 H 0.06775 0.35886 0.26874 0.0
H142 H 0.08281 0.32524 0.19134 0.0
H143 H 0.08762 0.25777 0.14336 0.0
Mn144 Mn 0.6535 0.08049 0.14969 0.0
Mn145 Mn 0.68776 0.97655 0.17589 0.0
C146 C 0.69752 0.07003 0.21248 0.0
C147 C 0.66852 0.14347 0.10646 0.0
C148 C 0.59226 0.01115 0.18738 0.0
O149 O 0.64298 0.04428 0.09335 0.0
O150 O 0.68146 0.98106 0.10921 0.0
C151 C 0.77781 0.97118 0.13454 0.0
N152 N 0.75159 0.9721 0.17184 0.0
C153 C 0.81605 0.96605 0.21986 0.0
C154 C 0.84375 0.96705 0.18201 0.0
C155 C 0.82451 0.96913 0.13913 0.0
C156 C 0.76974 0.96866 0.21319 0.0
H157 H 0.76323 0.97168 0.10153 0.0
C158 C 0.66131 0.0075 0.0819 0.0
O159 O 0.62804 0.13542 0.12011 0.0
O160 O 0.69912 0.11527 0.11838 0.0
N161 N 0.69638 0.96957 0.23916 0.0
C162 C 0.66502 0.96359 0.27168 0.0
C163 C 0.67862 0.95746 0.31632 0.0
C164 C 0.72437 0.95668 0.32695 0.0
C165 C 0.75611 0.96096 0.29267 0.0
C166 C 0.7405 0.96673 0.24878 0.0
H167 H 0.62991 0.96298 0.26358 0.0
O168 O 0.67389 0.1063 0.20792 0.0
O169 O 0.69317 0.04116 0.18042 0.0
O170 O 0.59959 0.05235 0.17937 0.0
O171 O 0.62143 0.97988 0.18259 0.0
C172 C 0.80259 0.95918 0.30027 0.0
C173 C 0.83257 0.96193 0.2639 0.0
H174 H 0.87978 0.96542 0.18545 0.0
H175 H 0.8456 0.96889 0.10968 0.0
H176 H 0.65389 0.95324 0.34244 0.0
H177 H 0.73474 0.95211 0.36143 0.0
H178 H 0.81564 0.95527 0.33391 0.0
H179 H 0.86823 0.96008 0.27009 0.0
Mn180 Mn 0.33669 0.90834 0.17185 0.0
Mn181 Mn 0.32095 0.01606 0.19654 0.0
C182 C 0.28955 0.92587 0.2305 0.0
C183 C 0.31607 0.85049 0.12411 0.0
C184 C 0.40867 0.96409 0.20866 0.0
O185 O 0.35805 0.94321 0.11766 0.0
O186 O 0.32501 0.01007 0.12999 0.0
C187 C 0.23397 0.04281 0.15684 0.0
N188 N 0.25927 0.03345 0.19365 0.0
C189 C 0.1976 0.05007 0.24277 0.0
C190 C 0.17026 0.05725 0.20528 0.0
C191 C 0.18869 0.05422 0.16212 0.0
C192 C 0.24236 0.03831 0.23535 0.0
H193 H 0.24833 0.04206 0.12375 0.0
C194 C 0.34314 0.98083 0.10412 0.0
O195 O 0.35519 0.8508 0.14307 0.0
O196 O 0.28899 0.88264 0.13488 0.0
N197 N 0.31465 0.02341 0.26001 0.0
C198 C 0.34707 0.02363 0.29198 0.0
C199 C 0.33538 0.03054 0.33703 0.0
C200 C 0.29052 0.03842 0.34859 0.0
C201 C 0.25802 0.04059 0.31479 0.0
C202 C 0.27177 0.03334 0.27051 0.0
H203 H 0.38159 0.01963 0.28292 0.0
O204 O 0.30679 0.88599 0.22717 0.0
O205 O 0.30235 0.95381 0.19995 0.0
O206 O 0.39192 0.92513 0.20703 0.0
O207 O 0.38598 -7e-05 0.20123 0.0
C208 C 0.21274 0.05072 0.32318 0.0
C209 C 0.18251 0.05535 0.28717 0.0
H210 H 0.13542 0.06628 0.2093 0.0
H211 H 0.16818 0.06112 0.13302 0.0
H212 H 0.36094 0.03022 0.36271 0.0
H213 H 0.2816 0.04387 0.38334 0.0
H214 H 0.20102 0.05594 0.35712 0.0
H215 H 0.14798 0.06409 0.29394 0.0
Mn216 Mn 0.66291 0.91813 0.82099 0.0
Mn217 Mn 0.67609 0.02664 0.79645 0.0
C218 C 0.70372 0.93628 0.75865 0.0
C219 C 0.68841 0.85717 0.86137 0.0
C220 C 0.58834 0.97436 0.78777 0.0
O221 O 0.64532 0.95125 0.87742 0.0
O222 O 0.67371 0.0199 0.86329 0.0
C223 C 0.76327 0.05472 0.83452 0.0
N224 N 0.73736 0.04538 0.79816 0.0
C225 C 0.79711 0.06526 0.74792 0.0
C226 C 0.8251 0.07266 0.78486 0.0
C227 C 0.80791 0.06791 0.82838 0.0
C228 C 0.75294 0.05205 0.75619 0.0
H229 H 0.74981 0.0528 0.86793 0.0
C230 C 0.6584 0.98982 0.89002 0.0
O231 O 0.64733 0.85895 0.84724 0.0
O232 O 0.71338 0.89172 0.85368 0.0
N233 N 0.68077 0.03486 0.73292 0.0
C234 C 0.64801 0.03284 0.70138 0.0
C235 C 0.6588 0.03926 0.65604 0.0
C236 C 0.70306 0.04889 0.64373 0.0
C237 C 0.73583 0.05326 0.67703 0.0
C238 C 0.72301 0.04633 0.72163 0.0
H239 H 0.61392 0.02704 0.71091 0.0
O240 O 0.68737 0.89638 0.76346 0.0
O241 O 0.69538 0.96432 0.79101 0.0
O242 O 0.60491 0.9353 0.79048 0.0
O243 O 0.61129 0.01023 0.79307 0.0
C244 C 0.78051 0.06498 0.66779 0.0
C245 C 0.81113 0.07103 0.70323 0.0
H246 H 0.85952 0.08292 0.78023 0.0
H247 H 0.82892 0.07476 0.85709 0.0
H248 H 0.63301 0.03707 0.6307 0.0
H249 H 0.71128 0.05391 0.60874 0.0
H250 H 0.79148 0.07016 0.6336 0.0
H251 H 0.84522 0.08073 0.69579 0.0
Mn252 Mn 0.33583 0.07909 0.84916 0.0
Mn253 Mn 0.31167 0.97321 0.81844 0.0
C254 C 0.29167 0.06747 0.78717 0.0
C255 C 0.31863 0.13929 0.8959 0.0
C256 C 0.40291 0.0174 0.807 0.0
O257 O 0.35098 0.04152 0.9034 0.0
O258 O 0.32019 0.97496 0.88484 0.0
C259 C 0.22528 0.95343 0.86285 0.0
N260 N 0.24934 0.95988 0.82462 0.0
C261 C 0.18552 0.94176 0.77891 0.0
C262 C 0.15982 0.93627 0.81779 0.0
C263 C 0.17986 0.94196 0.85994 0.0
C264 C 0.23062 0.95337 0.7839 0.0
H265 H 0.24073 0.95638 0.89534 0.0
C266 C 0.33785 0.00215 0.91301 0.0
O267 O 0.35855 0.13405 0.87966 0.0
O268 O 0.28904 0.10997 0.88377 0.0
N269 N 0.3013 0.96877 0.75521 0.0
C270 C 0.33128 0.97185 0.72104 0.0
C271 C 0.31666 0.96667 0.67663 0.0
C272 C 0.27151 0.95735 0.66784 0.0
C273 C 0.24155 0.95253 0.70362 0.0
C274 C 0.25804 0.95835 0.74717 0.0
H275 H 0.36612 0.97796 0.7276 0.0
O276 O 0.31173 0.1056 0.79293 0.0
O277 O 0.29854 0.03743 0.81792 0.0
O278 O 0.39162 0.05723 0.81702 0.0
O279 O 0.37675 0.98365 0.80998 0.0
C280 C 0.19608 0.94172 0.69777 0.0
C281 C 0.16813 0.93612 0.7354 0.0
H282 H 0.12479 0.92733 0.81566 0.0
H283 H 0.16044 0.9371 0.89014 0.0
H284 H 0.34019 0.96965 0.64926 0.0
H285 H 0.26036 0.95329 0.63355 0.0
H286 H 0.18236 0.93721 0.66448 0.0
H287 H 0.1333 0.92748 0.73051 0.0
Mn288 Mn 0.14541 0.6631 0.0829 0.0
Mn289 Mn 0.18722 0.68314 0.98056 0.0
C290 C 0.20696 0.7085 0.07721 0.0
C291 C 0.08813 0.67968 0.13313 0.0
C292 C 0.19328 0.5937 0.03054 0.0
O293 O 0.09858 0.64274 0.03899 0.0
O294 O 0.12073 0.67761 0.97579 0.0
C295 C 0.14953 0.76996 0.95015 0.0
N296 N 0.18535 0.74513 0.96374 0.0
C297 C 0.2353 0.8068 0.95006 0.0
C298 C 0.19862 0.83359 0.93823 0.0
C299 C 0.15559 0.81492 0.93779 0.0
C300 C 0.22714 0.76224 0.9623 0.0
H301 H 0.11674 0.75537 0.94773 0.0
C302 C 0.09108 0.65826 8e-05 0.0
O303 O 0.10812 0.64103 0.13349 0.0
O304 O 0.10338 0.70921 0.10511 0.0
N305 N 0.25084 0.69087 0.98289 0.0
C306 C 0.28315 0.65953 0.99009 0.0
C307 C 0.32832 0.67226 0.99006 0.0
C308 C 0.33992 0.71695 0.98134 0.0
C309 C 0.30626 0.74824 0.97174 0.0
C310 C 0.26178 0.73358 0.97259 0.0
H311 H 0.27453 0.62504 0.99516 0.0
O312 O 0.19584 0.6916 0.11578 0.0
O313 O 0.18073 0.69921 0.04381 0.0
O314 O 0.18323 0.60817 0.0693 0.0
O315 O 0.19145 0.61787 0.99503 0.0
C316 C 0.31514 0.79326 0.96081 0.0
C317 C 0.2797 0.82248 0.9498 0.0
H318 H 0.20323 0.86824 0.92862 0.0
H319 H 0.12723 0.83498 0.92739 0.0
H320 H 0.35413 0.6476 0.99641 0.0
H321 H 0.37479 0.72665 0.98124 0.0
H322 H 0.34916 0.80561 0.96022 0.0
H323 H 0.28696 0.8569 0.94091 0.0
Mn324 Mn 0.16307 0.3405 0.91652 0.0
Mn325 Mn 0.18496 0.31738 0.02457 0.0
C326 C 0.22336 0.29531 0.93332 0.0
C327 C 0.12009 0.32332 0.8539 0.0
C328 C 0.19762 0.40898 0.98031 0.0
O329 O 0.10629 0.3561 0.94997 0.0
O330 O 0.11881 0.32324 0.01704 0.0
C331 C 0.14252 0.22984 0.04372 0.0
N332 N 0.18019 0.25491 0.03849 0.0
C333 C 0.22677 0.19265 0.0601 0.0
C334 C 0.18856 0.16585 0.06412 0.0
C335 C 0.14624 0.1846 0.05605 0.0
C336 C 0.22097 0.23752 0.04753 0.0
H337 H 0.10983 0.24438 0.03925 0.0
C338 C 0.09303 0.34114 0.98762 0.0
O339 O 0.13617 0.36324 0.85965 0.0
O340 O 0.13053 0.29362 0.8839 0.0
N341 N 0.24791 0.30926 0.03378 0.0
C342 C 0.28098 0.34047 0.03312 0.0
C343 C 0.32539 0.32737 0.04111 0.0
C344 C 0.33523 0.2824 0.05082 0.0
C345 C 0.30043 0.25115 0.0533 0.0
C346 C 0.25686 0.26618 0.04464 0.0
H347 H 0.27343 0.37513 0.02709 0.0
O348 O 0.22091 0.3152 0.89462 0.0
O349 O 0.19078 0.30355 0.96082 0.0
O350 O 0.19372 0.39647 0.93982 0.0
O351 O 0.1914 0.38303 0.01392 0.0
C352 C 0.3072 0.20582 0.06464 0.0
C353 C 0.27036 0.17664 0.06827 0.0
H354 H 0.19131 0.13096 0.07375 0.0
H355 H 0.11652 0.16433 0.05969 0.0
H356 H 0.35192 0.35193 0.04009 0.0
H357 H 0.36951 0.27242 0.05711 0.0
H358 H 0.34054 0.19321 0.07126 0.0
H359 H 0.2759 0.14199 0.07757 0.0
Mn360 Mn 0.83107 0.64886 0.90682 0.0
Mn361 Mn 0.80847 0.67976 0.01265 0.0
C362 C 0.76958 0.69402 0.92058 0.0
C363 C 0.87345 0.66582 0.84338 0.0
C364 C 0.79828 0.5846 0.97588 0.0
O365 O 0.88831 0.63756 0.94109 0.0
O366 O 0.87478 0.67517 0.00543 0.0
C367 C 0.84782 0.77035 0.02216 0.0
N368 N 0.81113 0.74354 0.01939 0.0
C369 C 0.76193 0.80681 0.0287 0.0
C370 C 0.79915 0.83526 0.02927 0.0
C371 C 0.84232 0.81686 0.02651 0.0
C372 C 0.76953 0.76074 0.02388 0.0
H373 H 0.88102 0.75631 0.02155 0.0
C374 C 0.90108 0.65575 0.97748 0.0
O375 O 0.85969 0.62515 0.85043 0.0
O376 O 0.8612 0.69557 0.8723 0.0
N377 N 0.74537 0.68676 0.02149 0.0
C378 C 0.71389 0.6545 0.02762 0.0
C379 C 0.66912 0.66691 0.03471 0.0
C380 C 0.65736 0.71244 0.03656 0.0
C381 C 0.6907 0.74511 0.03244 0.0
C382 C 0.73473 0.73064 0.0254 0.0
H383 H 0.72306 0.61965 0.02797 0.0
O384 O 0.77218 0.67091 0.88373 0.0
O385 O 0.802 0.68727 0.9484 0.0
O386 O 0.80269 0.59369 0.93443 0.0
O387 O 0.80369 0.61323 0.00752 0.0
C388 C 0.68208 0.79141 0.03584 0.0
C389 C 0.71768 0.82226 0.03385 0.0
H390 H 0.79503 0.87113 0.03297 0.0
H391 H 0.8713 0.83844 0.02821 0.0
H392 H 0.64381 0.64143 0.03907 0.0
H393 H 0.62281 0.72191 0.04207 0.0
H394 H 0.6483 0.8036 0.04072 0.0
H395 H 0.71074 0.85773 0.03727 0.0
Mn396 Mn 0.84152 0.32927 0.08383 0.0
Mn397 Mn 0.80723 0.31454 0.9776 0.0
C398 C 0.77914 0.28604 0.07124 0.0
C399 C 0.89418 0.30931 0.13798 0.0
C400 C 0.79862 0.40174 0.03083 0.0
O401 O 0.89253 0.35003 0.04486 0.0
O402 O 0.87393 0.31984 0.97815 0.0
C403 C 0.84688 0.22872 0.9469 0.0
N404 N 0.81012 0.25353 0.9577 0.0
C405 C 0.76112 0.19409 0.93413 0.0
C406 C 0.7985 0.16735 0.92465 0.0
C407 C 0.84157 0.18485 0.9308 0.0
C408 C 0.7685 0.23745 0.95049 0.0
H409 H 0.88 0.24249 0.94974 0.0
C410 C 0.90218 0.33724 0.00542 0.0
O411 O 0.87506 0.34839 0.13818 0.0
O412 O 0.88032 0.28117 0.10784 0.0
N413 N 0.74359 0.30739 0.97428 0.0
C414 C 0.71097 0.33842 0.98143 0.0
C415 C 0.66591 0.32642 0.97627 0.0
C416 C 0.65482 0.28289 0.96254 0.0
C417 C 0.68897 0.25201 0.95337 0.0
C418 C 0.7333 0.26583 0.95958 0.0
H419 H 0.7193 0.37215 0.99052 0.0
O420 O 0.78769 0.30125 0.11115 0.0
O421 O 0.80839 0.29547 0.04045 0.0
O422 O 0.8065 0.38588 0.06954 0.0
O423 O 0.80217 0.3789 0.99465 0.0
C424 C 0.68076 0.20827 0.93776 0.0
C425 C 0.71682 0.1794 0.92791 0.0
H426 H 0.79449 0.13354 0.91216 0.0
H427 H 0.87059 0.16472 0.9227 0.0
H428 H 0.63981 0.3508 0.9825 0.0
H429 H 0.62003 0.27378 0.9584 0.0
H430 H 0.64684 0.19663 0.93281 0.0
H431 H 0.71012 0.14594 0.91561 0.0
C432 C 0.99201 0.23945 0.47809 0.0
C433 C 0.98063 0.19836 0.45724 0.0
C434 C 0.00244 0.1568 0.52369 0.0
C435 C 0.01139 0.19743 0.54616 0.0
N436 N 0.02143 0.27721 0.54441 0.0
N437 N 0.95987 0.12083 0.46587 0.0
C438 C 0.00777 0.239 0.52336 0.0
C439 C 0.98122 0.15795 0.48175 0.0
N440 N 0.98614 0.27846 0.4549 0.0
N441 N 0.01668 0.11695 0.54103 0.0
H442 H 0.94173 0.12086 0.43614 0.0
H443 H 0.9558 0.09179 0.48484 0.0
H444 H 0.0342 0.11453 0.57104 0.0
H445 H 0.01541 0.08699 0.52312 0.0
H446 H 0.99372 0.31011 0.46717 0.0
H447 H 0.97111 0.27907 0.42333 0.0
H448 H 0.0198 0.30909 0.53055 0.0
H449 H 0.03694 0.27651 0.57573 0.0
C450 C -0.00236 0.74916 0.4753 0.0
C451 C 0.01706 0.78581 0.45272 0.0
C452 C 0.02383 0.82685 0.52339 0.0
C453 C -0.00211 0.79304 0.5446 0.0
N454 N 0.96035 0.72159 0.54185 0.0
N455 N 0.0635 0.85189 0.45742 0.0
C456 C 0.98505 0.75388 0.52093 0.0
C457 C 0.0348 0.82236 0.47739 0.0
N458 N 0.99516 0.70882 0.45401 0.0
N459 N 0.03556 0.86471 0.54639 0.0
H460 H 0.07326 0.84987 0.42414 0.0
H461 H 0.08165 0.87608 0.47461 0.0
H462 H 0.03057 0.86899 0.5806 0.0
H463 H 0.04779 0.89362 0.53135 0.0
H464 H 0.98425 0.67944 0.46923 0.0
H465 H 0.00993 0.70382 0.42272 0.0
H466 H 0.94557 0.69491 0.52502 0.0
H467 H 0.95262 0.72268 0.57591 0.0
C468 C 0.4795 0.96132 0.16623 0.0
C469 C 0.45792 0.96735 0.20783 0.0
C470 C 0.52695 -0.00139 0.23927 0.0
C471 C 0.5456 -0.00198 0.19549 0.0
N472 N 0.53365 0.99231 0.11595 0.0
N473 N 0.46272 0.98125 0.28673 0.0
C474 C 0.52033 0.98299 0.15861 0.0
C475 C 0.48213 0.98321 0.24541 0.0
N476 N 0.46207 0.93355 0.13443 0.0
N477 N 0.55171 0.0149 0.27412 0.0
H478 H 0.43241 0.96473 0.29175 0.0
H479 H 0.47706 0.99328 0.31606 0.0
H480 H 0.58363 0.0282 0.26966 0.0
H481 H 0.54085 0.01631 0.30716 0.0
H482 H 0.47915 0.92547 0.10504 0.0
H483 H 0.43363 0.91431 0.13977 0.0
H484 H 0.5138 0.9856 0.08804 0.0
H485 H 0.56183 0.01154 0.10898 0.0
C486 C 0.51471 0.9927 0.75076 0.0
C487 C 0.53914 0.97833 0.78886 0.0
C488 C 0.47617 0.99464 0.83738 0.0
C489 C 0.45077 0.00818 0.79993 0.0
N490 N 0.44605 0.02603 0.72151 0.0
N491 N 0.53556 0.94734 0.8635 0.0
C492 C 0.46997 0.00865 0.75645 0.0
C493 C 0.51766 0.97369 0.83068 0.0
N494 N 0.53345 0.98792 0.70935 0.0
N495 N 0.46216 0.00451 0.87972 0.0
H496 H 0.56508 0.92931 0.85949 0.0
H497 H 0.51829 0.93952 0.89283 0.0
H498 H 0.43289 0.02231 0.88614 0.0
H499 H 0.48227 -0.00043 0.90785 0.0
H500 H 0.51771 0.99631 0.67944 0.0
H501 H 0.56393 0.97141 0.70495 0.0
H502 H 0.45826 0.02947 0.68909 0.0
H503 H 0.41429 0.0399 0.72582 0.0
C504 C 0.15861 0.48084 0.99244 0.0
C505 C 0.19955 0.45757 0.98921 0.0
C506 C 0.23881 0.52329 0.019 0.0
C507 C 0.19682 0.54475 0.02443 0.0
N508 N 0.11745 0.53554 0.0343 0.0
N509 N 0.27978 0.45842 0.99056 0.0
C510 C 0.15691 0.5211 0.01652 0.0
C511 C 0.24026 0.47915 0.00038 0.0
N512 N 0.12169 0.46613 0.97011 0.0
N513 N 0.27641 0.5442 0.03417 0.0
H514 H 0.28088 0.42816 0.97309 0.0
H515 H 0.31113 0.47228 0.99622 0.0
H516 H 0.27471 0.57437 0.05177 0.0
H517 H 0.30838 0.53054 0.03284 0.0
H518 H 0.09233 0.48497 0.96807 0.0
H519 H 0.12216 0.43808 0.94946 0.0
H520 H 0.08826 0.51651 0.03282 0.0
H521 H 0.11537 0.56321 0.05539 0.0
C522 C 0.75405 0.51643 -0.00087 0.0
C523 C 0.79551 0.53696 0.98853 0.0
C524 C 0.83611 0.47387 0.01967 0.0
C525 C 0.79568 0.45078 0.02604 0.0
N526 N 0.71572 0.4516 0.03107 0.0
N527 N 0.87396 0.52675 0.97305 0.0
C528 C 0.7542 0.47249 0.01829 0.0
C529 C 0.83598 0.51338 0.99438 0.0
N530 N 0.71516 0.53807 0.98863 0.0
N531 N 0.87458 0.45912 0.03933 0.0
H532 H 0.87488 0.5543 0.95171 0.0
H533 H 0.90305 0.50742 0.97285 0.0
H534 H 0.8754 0.43145 0.06055 0.0
H535 H 0.90404 0.47777 0.03884 0.0
H536 H 0.68338 0.52563 0.99507 0.0
H537 H 0.7149 0.56824 0.97097 0.0
H538 H 0.68378 0.46464 0.02664 0.0
H539 H 0.71637 0.42154 0.04895 0.0
C540 C 0.22504 0.08944 0.682 0.0
C541 C 0.18101 0.0844 0.69925 0.0
C542 C 0.21002 0.05818 0.77056 0.0
C543 C 0.25431 0.06521 0.75498 0.0
N544 N 0.30466 0.07657 0.69311 0.0
N545 N 0.13392 0.04222 0.74877 0.0
C546 C 0.26202 0.07704 0.70957 0.0
C547 C 0.17457 0.06074 0.73961 0.0
N548 N 0.23183 0.10735 0.6405 0.0
N549 N 0.20087 0.05313 0.81514 0.0
H550 H 0.10826 0.04217 0.72503 0.0
H551 H 0.12776 0.02288 0.77717 0.0
H552 H 0.22505 0.05389 0.84019 0.0
H553 H 0.16835 0.05231 0.82768 0.0
H554 H 0.26276 0.11871 0.62932 0.0
H555 H 0.20667 0.11026 0.61665 0.0
H556 H 0.31242 0.08061 0.65936 0.0
H557 H 0.33223 0.0682 0.71287 0.0
C558 C 0.73246 0.92539 0.68183 0.0
C559 C 0.74031 0.94132 0.72594 0.0
C560 C 0.82008 0.93988 0.71061 0.0
C561 C 0.81246 0.91037 0.6745 0.0
N562 N 0.76034 0.88056 0.62015 0.0
N563 N 0.79461 0.95752 0.78453 0.0
C564 C 0.76841 0.90572 0.65743 0.0
C565 C 0.78489 0.94831 0.74077 0.0
N566 N 0.69027 0.92733 0.66445 0.0
N567 N 0.8616 0.95745 0.71739 0.0
H568 H 0.77067 0.96074 0.80954 0.0
H569 H 0.82729 0.95818 0.79672 0.0
H570 H 0.88768 0.95177 0.69481 0.0
H571 H 0.86815 0.98121 0.74216 0.0
H572 H 0.68283 0.9198 0.63121 0.0
H573 H 0.66343 0.94044 0.6826 0.0
H574 H 0.7284 0.87095 0.61018 0.0
H575 H 0.78553 0.86861 0.59934 0.0
C576 C 0.23818 0.92547 0.29665 0.0
C577 C 0.24427 0.92829 0.24975 0.0
C578 C 0.17262 0.89223 0.2378 0.0
C579 C 0.16429 0.89281 0.28469 0.0
N580 N 0.18374 0.92541 0.35645 0.0
N581 N 0.20884 0.92981 0.17668 0.0
C582 C 0.19525 0.9145 0.31358 0.0
C583 C 0.20819 0.91796 0.22082 0.0
N584 N 0.27351 0.9313 0.32493 0.0
N585 N 0.15043 0.86371 0.20968 0.0
H586 H 0.23427 0.94866 0.16246 0.0
H587 H 0.18136 0.92518 0.15564 0.0
H588 H 0.12908 0.83852 0.22064 0.0
H589 H 0.15861 0.86044 0.17586 0.0
H590 H 0.27142 0.92541 0.3593 0.0
H591 H 0.30539 0.93936 0.31334 0.0
H592 H 0.20461 0.94401 0.37732 0.0
H593 H 0.15153 0.92084 0.36898 0.0
C594 C 0.77744 0.09018 0.21438 0.0
C595 C 0.73961 0.07393 0.23772 0.0
C596 C 0.78035 0.083 0.30818 0.0
C597 C 0.81427 0.10694 0.28502 0.0
N598 N 0.83229 0.1483 0.21722 0.0
N599 N 0.70162 0.06408 0.30834 0.0
C600 C 0.80946 0.11473 0.23834 0.0
C601 C 0.73985 0.0732 0.28521 0.0
N602 N 0.78243 0.08419 0.1693 0.0
N603 N 0.7869 0.0682 0.35093 0.0
H604 H 0.67152 0.05658 0.29237 0.0
H605 H 0.69945 0.06702 0.34308 0.0
H606 H 0.81711 0.07189 0.36787 0.0
H607 H 0.76396 0.04773 0.36739 0.0
H608 H 0.81152 0.0935 0.15243 0.0
H609 H 0.76059 0.06546 0.14984 0.0
H610 H 0.82692 0.15651 0.18366 0.0
H611 H 0.85097 0.17225 0.23436 0.0
C612 C 0.66956 0.22701 0.09075 0.0
C613 C 0.68223 0.18272 0.07919 0.0
C614 C 0.75435 0.20819 0.05231 0.0
C615 C 0.74344 0.25248 0.06563 0.0
N616 N 0.68702 0.30644 0.08612 0.0
N617 N 0.72499 0.13633 0.02949 0.0
C618 C 0.69954 0.26273 0.08078 0.0
C619 C 0.72031 0.17568 0.05225 0.0
N620 N 0.63052 0.23471 0.11309 0.0
N621 N 0.79755 0.19576 0.04392 0.0
H622 H 0.69934 0.11263 0.02892 0.0
H623 H 0.75171 0.12966 0.00809 0.0
H624 H 0.82459 0.21753 0.04623 0.0
H625 H 0.80697 0.16258 0.03842 0.0
H626 H 0.62252 0.26519 0.12806 0.0
H627 H 0.60596 0.21036 0.11672 0.0
H628 H 0.65443 0.31643 0.09333 0.0
H629 H 0.70861 0.333 0.07933 0.0
C630 C 0.22826 0.78846 0.06578 0.0
C631 C 0.24126 0.74371 0.07549 0.0
C632 C 0.31593 0.76972 0.09756 0.0
C633 C 0.29985 0.81418 0.09412 0.0
N634 N 0.25367 0.86389 0.05106 0.0
N635 N 0.29785 0.69029 0.09716 0.0
C636 C 0.26026 0.82275 0.06993 0.0
C637 C 0.28562 0.7338 0.08966 0.0
N638 N 0.18472 0.79904 0.05645 0.0
N639 N 0.36018 0.76219 0.10589 0.0
H640 H 0.27703 0.66335 0.08948 0.0
H641 H 0.32787 0.68066 0.11192 0.0
H642 H 0.38349 0.78806 0.10607 0.0
H643 H 0.37485 0.7306 0.10693 0.0
H644 H 0.17324 0.83194 0.05405 0.0
H645 H 0.15915 0.77553 0.05456 0.0
H646 H 0.22657 0.87147 0.03042 0.0
H647 H 0.27851 0.88841 0.05182 0.0
C648 C 0.70121 0.74308 0.9178 0.0
C649 C 0.74833 0.73846 0.91727 0.0
C650 C 0.75432 0.8075 0.87515 0.0
C651 C 0.70808 0.81619 0.88148 0.0
N652 N 0.64033 0.79628 0.9215 0.0
N653 N 0.81983 0.77626 0.90907 0.0
C654 C 0.6821 0.78528 0.90673 0.0
C655 C 0.77492 0.7743 0.90131 0.0
N656 N 0.67477 0.70734 0.92792 0.0
N657 N 0.77809 0.82738 0.84145 0.0
H658 H 0.83684 0.75369 0.92935 0.0
H659 H 0.83904 0.80383 0.89961 0.0
H660 H 0.7633 0.8463 0.8161 0.0
H661 H 0.8113 0.81904 0.83463 0.0
H662 H 0.64004 0.70831 0.92489 0.0
H663 H 0.68796 0.67612 0.93654 0.0
H664 H 0.62198 0.77548 0.94266 0.0
H665 H 0.62653 0.82809 0.9174 0.0
C666 C 0.26233 0.17502 0.94447 0.0
C667 C 0.30455 0.17836 0.92389 0.0
C668 C 0.29938 0.26015 0.92993 0.0
C669 C 0.25275 0.25572 0.93785 0.0
N670 N 0.18853 0.20637 0.94568 0.0
N671 N 0.3693 0.22412 0.909 0.0
C672 C 0.23377 0.21255 0.94409 0.0
C673 C 0.32538 0.22099 0.92088 0.0
N674 N 0.24928 0.13541 0.96308 0.0
N675 N 0.31842 0.3017 0.93118 0.0
H676 H 0.39099 0.19684 0.91031 0.0
H677 H 0.38466 0.25386 0.89945 0.0
H678 H 0.29988 0.33067 0.93755 0.0
H679 H 0.35267 0.30738 0.92934 0.0
H680 H 0.2191 0.13139 0.98002 0.0
H681 H 0.27138 0.10841 0.9658 0.0
H682 H 0.17396 0.17468 0.94583 0.0
H683 H 0.16522 0.23206 0.94261 0.0
C684 C 0.03965 0.69449 0.24665 0.0
C685 C 0.03094 0.74116 0.2427 0.0
C686 C 0.03178 0.73413 0.16127 0.0
C687 C 0.05297 0.69229 0.16621 0.0
N688 N 0.05176 0.62366 0.20808 0.0
N689 N 0.01892 0.80608 0.19507 0.0
C690 C 0.04868 0.66923 0.20728 0.0
C691 C 0.02521 0.76098 0.19968 0.0
N692 N 0.0427 0.6755 0.28819 0.0
N693 N 0.0185 0.74791 0.11977 0.0
H694 H 0.01542 0.82791 0.22197 0.0
H695 H 0.02005 0.8224 0.16423 0.0
H696 H 0.02192 0.72713 0.09181 0.0
H697 H -0.00041 0.77678 0.11435 0.0
H698 H 0.05374 0.64293 0.29393 0.0
H699 H 0.03555 0.69336 0.31739 0.0
H700 H 0.0466 0.60437 0.23664 0.0
H701 H 0.05384 0.60493 0.17865 0.0
C702 C 0.08308 0.29949 0.73433 0.0
C703 C 0.06918 0.25477 0.74242 0.0
C704 C 0.06505 0.27139 0.82202 0.0
C705 C 0.09133 0.30994 0.81536 0.0
N706 N 0.11851 0.36624 0.76376 0.0
N707 N 0.05532 0.19586 0.79711 0.0
C708 C 0.09757 0.32637 0.77107 0.0
C709 C 0.06155 0.24006 0.78704 0.0
N710 N 0.08264 0.31589 0.69159 0.0
N711 N 0.04528 0.26403 0.86253 0.0
H712 H 0.05602 0.17022 0.77356 0.0
H713 H 0.05381 0.18414 0.82999 0.0
H714 H 0.04584 0.28829 0.88773 0.0
H715 H 0.02457 0.23672 0.86886 0.0
H716 H 0.08832 0.34937 0.68376 0.0
H717 H 0.07254 0.29661 0.66424 0.0
H718 H 0.13024 0.37624 0.73248 0.0
H719 H 0.12388 0.38976 0.78883 0.0
C720 C 0.89703 0.66503 0.76071 0.0
C721 C 0.90237 0.68046 0.8054 0.0
C722 C 0.92966 0.75217 0.77893 0.0
C723 C 0.92437 0.7379 0.73389 0.0
N724 N 0.91505 0.67671 0.68209 0.0
N725 N 0.94548 0.72757 0.85428 0.0
C726 C 0.9123 0.69275 0.72485 0.0
C727 C 0.92704 0.71996 0.81319 0.0
N728 N 0.87588 0.62554 0.75212 0.0
N729 N 0.93273 0.79648 0.78996 0.0
H730 H 0.94575 0.70274 0.87893 0.0
H731 H 0.96416 0.75602 0.86176 0.0
H732 H 0.93082 0.82245 0.76681 0.0
H733 H 0.93259 0.80759 0.82309 0.0
H734 H 0.8655 0.61603 0.7202 0.0
H735 H 0.86812 0.60238 0.77692 0.0
H736 H 0.91056 0.64311 0.67392 0.0
H737 H 0.92609 0.69641 0.65543 0.0
C738 C 0.94095 0.29358 0.25349 0.0
C739 C 0.94841 0.2466 0.25033 0.0
C740 C 0.94678 0.25236 0.16876 0.0
C741 C 0.92705 0.29497 0.17287 0.0
N742 N 0.93017 0.36411 0.21389 0.0
N743 N 0.95495 0.18031 0.20312 0.0
C744 C 0.93191 0.31844 0.21373 0.0
C745 C 0.9519 0.22577 0.20748 0.0
N746 N 0.93966 0.31351 0.29469 0.0
N747 N 0.96083 0.2377 0.12783 0.0
H748 H 0.95687 0.1582 0.2299 0.0
H749 H 0.95208 0.16408 0.17233 0.0
H750 H 0.95955 0.25843 0.09968 0.0
H751 H 0.97881 0.20807 0.12339 0.0
H752 H 0.92955 0.34642 0.3001 0.0
H753 H 0.94741 0.29621 0.32408 0.0
H754 H 0.93573 0.3837 0.24215 0.0
H755 H 0.92895 0.38257 0.18425 0.0
C756 C 0.97789 0.02642 0.62669 0.0
C757 C 0.9926 0.04671 0.66669 0.0
C758 C 0.9903 0.97431 0.70406 0.0
C759 C 0.98662 0.95274 0.66186 0.0
N760 N 0.97735 0.9596 0.58135 0.0
N761 N 0.01718 0.03942 0.7435 0.0
C762 C 0.98038 0.97919 0.62258 0.0
C763 C 0.00027 0.02052 0.70546 0.0
N764 N 0.95986 0.05218 0.59349 0.0
N765 N 0.97983 0.95202 0.74254 0.0
H766 H 0.02484 0.0734 0.74592 0.0
H767 H 0.02695 0.02039 0.77115 0.0
H768 H 0.96631 0.91984 0.74227 0.0
H769 H 0.97869 0.96763 0.77377 0.0
H770 H 0.945 0.03887 0.56486 0.0
H771 H 0.95528 0.08664 0.59727 0.0
H772 H 0.97782 0.97783 0.55157 0.0
H773 H 0.97763 0.92512 0.57658 0.0
C774 C 0.00188 0.01619 0.38666 0.0
C775 C 0.99191 0.03911 0.34634 0.0
C776 C 0.98992 0.96827 0.30579 0.0
C777 C 0.99315 0.94495 0.34708 0.0
N778 N -0.00248 0.94618 0.42774 0.0
N779 N 0.96853 0.03687 0.26878 0.0
C780 C -0.00216 0.96877 0.38793 0.0
C781 C 0.98347 0.01514 0.30627 0.0
N782 N 0.01644 0.03962 0.42311 0.0
N783 N 0.99603 0.94628 0.26607 0.0
H784 H 0.9642 0.0715 0.26719 0.0
H785 H 0.95703 0.01999 0.24047 0.0
H786 H 0.00376 0.91226 0.26411 0.0
H787 H -0.00171 0.96274 0.23536 0.0
H788 H 0.02762 0.02452 0.45252 0.0
H789 H 0.02156 0.07416 0.42209 0.0
H790 H -0.00312 0.96204 0.45882 0.0
H791 H 0.99391 0.91147 0.4296 0.0
C792 C 0.62035 0.99258 0.96427 0.0
C793 C 0.66001 -0.00272 0.93896 0.0
C794 C 0.70195 0.00869 0.0083 0.0
C795 C 0.66309 -0.00184 0.03337 0.0
N796 N 0.59017 0.96466 0.03376 0.0
N797 N 0.74089 0.99535 0.9387 0.0
C798 C 0.62359 0.98548 0.01094 0.0
C799 C 0.7017 0.0013 0.96136 0.0
N800 N 0.57968 0.99638 0.94407 0.0
N801 N 0.73854 0.02675 0.02875 0.0
H802 H 0.74194 0.98605 0.90504 0.0
H803 H 0.7719 0.99451 0.95466 0.0
H804 H 0.73928 0.0343 0.06286 0.0
H805 H 0.76616 0.0383 0.0109 0.0
H806 H 0.54972 0.99582 0.96194 0.0
H807 H 0.57673 0.00583 0.91056 0.0
H808 H 0.56154 0.95232 0.01812 0.0
H809 H 0.59457 0.95443 0.0669 0.0
C810 C 0.38089 0.98362 0.02942 0.0
C811 C 0.34126 0.98729 0.0551 0.0
C812 C 0.29821 -0.00098 0.98653 0.0
C813 C 0.33726 0.99074 0.96094 0.0
N814 N 0.41177 0.96072 0.95816 0.0
N815 N 0.26045 0.983 0.05602 0.0
C816 C 0.37751 0.97856 0.98242 0.0
C817 C 0.29923 0.99062 0.03318 0.0
N818 N 0.42165 0.98672 0.04962 0.0
N819 N 0.26055 0.01586 0.96678 0.0
H820 H 0.26 0.97293 0.08943 0.0
H821 H 0.22935 0.98133 0.04033 0.0
H822 H 0.25865 0.02322 0.93267 0.0
H823 H 0.23276 0.02629 0.98514 0.0
H824 H 0.45153 0.98743 0.03166 0.0
H825 H 0.42487 0.99402 0.08363 0.0
H826 H 0.44101 0.94848 0.97279 0.0
H827 H 0.40806 0.95313 0.92423 0.0
C828 C 0.97389 0.61791 0.99162 0.0
C829 C 0.94973 0.65797 0.98472 0.0
C830 C 0.0195 0.69996 0.98685 0.0
C831 C 0.04376 0.65901 0.98665 0.0
N832 N 0.04315 0.57906 0.9768 0.0
N833 N 0.95093 0.73642 0.96448 0.0
C834 C 0.02059 0.6179 0.98495 0.0
C835 C 0.97288 0.69892 0.97876 0.0
N836 N 0.95273 0.58078 0.00734 0.0
N837 N 0.03991 0.73929 -0.00209 0.0
H838 H 0.91708 0.73633 0.95609 0.0
H839 H 0.96753 0.76598 0.95629 0.0
H840 H 0.07319 0.74097 0.00808 0.0
H841 H 0.02231 0.76918 0.00209 0.0
H842 H 0.96964 0.55134 0.01566 0.0
H843 H 0.91948 0.58211 0.01777 0.0
H844 H 0.02705 0.54838 0.97265 0.0
H845 H 0.07719 0.57896 0.96907 0.0
C846 C 0.02157 0.29772 0.98887 0.0
C847 C 0.04425 0.33908 0.99406 0.0
C848 C 0.9729 0.3785 0.99219 0.0
C849 C 0.95016 0.33714 0.99436 0.0
N850 N 0.95406 0.25698 0.00576 0.0
N851 N 0.04065 0.41744 0.01231 0.0
C852 C 0.97473 0.29644 0.99563 0.0
C853 C 0.01967 0.37923 -0.00101 0.0
N854 N 0.04425 0.26005 0.97618 0.0
N855 N 0.94993 0.41681 0.98272 0.0
H856 H 0.07422 0.41735 0.02179 0.0
H857 H 0.02358 0.44711 0.01933 0.0
H858 H 0.91596 0.41629 0.9747 0.0
H859 H 0.96561 0.44757 0.97775 0.0
H860 H 0.02819 0.23016 0.96813 0.0
H861 H 0.07839 0.26001 0.96911 0.0
H862 H 0.97159 0.22722 0.01102 0.0
H863 H 0.9202 0.25497 0.01374 0.0
loop_
_geom_bond_atom_site_label_1
_geom_bond_atom_site_label_2
_geom_bond_distance
_geom_bond_site_symmetry_2
_ccdc_geom_bond_type
Mn0 O5 2.095 . S
Mn0 O15 2.162 . S
Mn0 O16 2.297 . S
Mn0 O24 2.385 . S
Mn0 O25 2.209 . S
Mn0 O26 2.094 . S
Mn1 O6 2.121 . S
Mn1 N8 2.257 . S
Mn1 N17 2.282 . S
Mn1 O25 2.215 1_655 S
Mn1 O27 2.117 1_655 S
C2 O24 1.234 . S
C2 O25 1.283 . S
C3 O15 1.281 . S
C3 O16 1.236 . S
C4 O26 1.240 . S
C4 O27 1.264 . S
O5 Mn0 2.095 . S
O5 C14 1.250 . S
O6 Mn1 2.121 . S
O6 C14 1.258 1_655 S
C7 N8 1.326 . S
C7 C11 1.460 . S
C7 H13 0.929 . S
N8 Mn1 2.257 . S
N8 C7 1.326 . S
N8 C12 1.362 . S
C9 C10 1.258 . S
C9 C12 1.431 . S
C9 C29 1.449 . S
C10 C9 1.258 . S
C10 C11 1.477 . S
C10 H30 0.931 . S
C11 C7 1.460 . S
C11 C10 1.477 . S
C11 H31 0.930 . S
C12 N8 1.362 . S
C12 C9 1.431 . S
C12 C22 1.476 . S
H13 C7 0.929 . S
C14 O5 1.250 . S
C14 O6 1.258 1_455 S
O15 Mn0 2.162 . S
O15 C3 1.281 . S
O16 Mn0 2.297 . S
O16 C3 1.236 . S
N17 Mn1 2.282 . S
N17 C18 1.328 . S
N17 C22 1.318 . S
C18 N17 1.328 . S
C18 C19 1.457 . S
C18 H23 0.929 1_655 S
C19 C18 1.457 . S
C19 C20 1.291 . S
C19 H32 0.931 . S
C20 C19 1.291 . S
C20 C21 1.373 . S
C20 H33 0.929 . S
C21 C20 1.373 . S
C21 C22 1.396 . S
C21 C28 1.403 . S
C22 C12 1.476 . S
C22 N17 1.318 . S
C22 C21 1.396 . S
H23 C18 0.929 1_455 S
O24 Mn0 2.385 . S
O24 C2 1.234 . S
O25 Mn0 2.209 . S
O25 Mn1 2.215 1_455 S
O25 C2 1.283 . S
O26 Mn0 2.094 . S
O26 C4 1.240 . S
O27 Mn1 2.117 1_455 S
O27 C4 1.264 . S
C28 C21 1.403 . S
C28 C29 1.399 . S
C28 H34 0.929 . S
C29 C9 1.449 . S
C29 C28 1.399 . S
C29 H35 0.930 . S
H30 C10 0.931 . S
H31 C11 0.930 . S
H32 C19 0.931 . S
H33 C20 0.929 . S
H34 C28 0.929 . S
H35 C29 0.930 . S
Mn36 O41 2.095 . S
Mn36 O51 2.162 . S
Mn36 O52 2.297 . S
Mn36 O60 2.385 . S
Mn36 O61 2.209 . S
Mn36 O62 2.094 . S
Mn37 O42 2.121 . S
Mn37 N44 2.257 . S
Mn37 N53 2.282 . S
Mn37 O61 2.215 1_455 S
Mn37 O63 2.117 1_455 S
C38 O60 1.234 . S
C38 O61 1.283 . S
C39 O51 1.281 . S
C39 O52 1.236 . S
C40 O62 1.240 . S
C40 O63 1.264 . S
O41 Mn36 2.095 . S
O41 C50 1.250 . S
O42 Mn37 2.121 . S
O42 C50 1.258 1_455 S
C43 N44 1.326 . S
C43 C47 1.460 . S
C43 H49 0.929 . S
N44 Mn37 2.257 . S
N44 C43 1.326 . S
N44 C48 1.362 . S
C45 C46 1.258 . S
C45 C48 1.431 . S
C45 C65 1.449 . S
C46 C45 1.258 . S
C46 C47 1.477 . S
C46 H66 0.931 . S
C47 C43 1.460 . S
C47 C46 1.477 . S
C47 H67 0.930 . S
C48 N44 1.362 . S
C48 C45 1.431 . S
C48 C58 1.476 . S
H49 C43 0.929 . S
C50 O41 1.250 . S
C50 O42 1.258 1_655 S
O51 Mn36 2.162 . S
O51 C39 1.281 . S
O52 Mn36 2.297 . S
O52 C39 1.236 . S
N53 Mn37 2.282 . S
N53 C54 1.328 . S
N53 C58 1.318 . S
C54 N53 1.328 . S
C54 C55 1.457 . S
C54 H59 0.929 1_455 S
C55 C54 1.457 . S
C55 C56 1.291 . S
C55 H68 0.931 . S
C56 C55 1.291 . S
C56 C57 1.373 . S
C56 H69 0.929 . S
C57 C56 1.373 . S
C57 C58 1.396 . S
C57 C64 1.403 . S
C58 C48 1.476 . S
C58 N53 1.318 . S
C58 C57 1.396 . S
H59 C54 0.929 1_655 S
O60 Mn36 2.385 . S
O60 C38 1.234 . S
O61 Mn36 2.209 . S
O61 Mn37 2.215 1_655 S
O61 C38 1.283 . S
O62 Mn36 2.094 . S
O62 C40 1.240 . S
O63 Mn37 2.117 1_655 S
O63 C40 1.264 . S
C64 C57 1.403 . S
C64 C65 1.399 . S
C64 H70 0.929 . S
C65 C45 1.449 . S
C65 C64 1.399 . S
C65 H71 0.930 . S
H66 C46 0.931 . S
H67 C47 0.930 . S
H68 C55 0.931 . S
H69 C56 0.929 . S
H70 C64 0.929 . S
H71 C65 0.930 . S
Mn72 O77 2.095 . S
Mn72 O87 2.162 . S
Mn72 O88 2.297 . S
Mn72 O96 2.385 . S
Mn72 O97 2.209 . S
Mn72 O98 2.094 . S
Mn73 O78 2.121 . S
Mn73 N80 2.257 . S
Mn73 N89 2.282 . S
Mn73 O97 2.215 1_655 S
Mn73 O99 2.117 1_655 S
C74 O96 1.234 . S
C74 O97 1.283 . S
C75 O87 1.281 . S
C75 O88 1.236 . S
C76 O98 1.240 . S
C76 O99 1.264 . S
O77 Mn72 2.095 . S
O77 C86 1.250 . S
O78 Mn73 2.121 . S
O78 C86 1.258 1_655 S
C79 N80 1.326 . S
C79 C83 1.460 . S
C79 H85 0.929 . S
N80 Mn73 2.257 . S
N80 C79 1.326 . S
N80 C84 1.362 . S
C81 C82 1.258 . S
C81 C84 1.431 . S
C81 C101 1.449 . S
C82 C81 1.258 . S
C82 C83 1.477 . S
C82 H102 0.931 . S
C83 C79 1.460 . S
C83 C82 1.477 . S
C83 H103 0.930 . S
C84 N80 1.362 . S
C84 C81 1.431 . S
C84 C94 1.476 . S
H85 C79 0.929 . S
C86 O77 1.250 . S
C86 O78 1.258 1_455 S
O87 Mn72 2.162 . S
O87 C75 1.281 . S
O88 Mn72 2.297 . S
O88 C75 1.236 . S
N89 Mn73 2.282 . S
N89 C90 1.328 . S
N89 C94 1.318 . S
C90 N89 1.328 . S
C90 C91 1.457 . S
C90 H95 0.929 1_655 S
C91 C90 1.457 . S
C91 C92 1.291 . S
C91 H104 0.931 . S
C92 C91 1.291 . S
C92 C93 1.373 . S
C92 H105 0.929 . S
C93 C92 1.373 . S
C93 C94 1.396 . S
C93 C100 1.403 . S
C94 C84 1.476 . S
C94 N89 1.318 . S
C94 C93 1.396 . S
H95 C90 0.929 1_455 S
O96 Mn72 2.385 . S
O96 C74 1.234 . S
O97 Mn72 2.209 . S
O97 Mn73 2.215 1_455 S
O97 C74 1.283 . S
O98 Mn72 2.094 . S
O98 C76 1.240 . S
O99 Mn73 2.117 1_455 S
O99 C76 1.264 . S
C100 C93 1.403 . S
C100 C101 1.399 . S
C100 H106 0.929 . S
C101 C81 1.449 . S
C101 C100 1.399 . S
C101 H107 0.930 . S
H102 C82 0.931 . S
H103 C83 0.930 . S
H104 C91 0.931 . S
H105 C92 0.929 . S
H106 C100 0.929 . S
H107 C101 0.930 . S
Mn108 O113 2.095 . S
Mn108 O123 2.162 . S
Mn108 O124 2.297 . S
Mn108 O132 2.385 . S
Mn108 O133 2.209 . S
Mn108 O134 2.094 . S
Mn109 O114 2.121 . S
Mn109 N116 2.257 . S
Mn109 N125 2.282 . S
Mn109 O133 2.215 1_455 S
Mn109 O135 2.117 1_455 S
C110 O132 1.234 . S
C110 O133 1.283 . S
C111 O123 1.281 . S
C111 O124 1.236 . S
C112 O134 1.240 . S
C112 O135 1.264 . S
O113 Mn108 2.095 . S
O113 C122 1.250 . S
O114 Mn109 2.121 . S
O114 C122 1.258 1_455 S
C115 N116 1.326 . S
C115 C119 1.460 . S
C115 H121 0.929 . S
N116 Mn109 2.257 . S
N116 C115 1.326 . S
N116 C120 1.362 . S
C117 C118 1.258 . S
C117 C120 1.431 . S
C117 C137 1.449 . S
C118 C117 1.258 . S
C118 C119 1.477 . S
C118 H138 0.931 . S
C119 C115 1.460 . S
C119 C118 1.477 . S
C119 H139 0.930 . S
C120 N116 1.362 . S
C120 C117 1.431 . S
C120 C130 1.476 . S
H121 C115 0.929 . S
C122 O113 1.250 . S
C122 O114 1.258 1_655 S
O123 Mn108 2.162 . S
O123 C111 1.281 . S
O124 Mn108 2.297 . S
O124 C111 1.236 . S
N125 Mn109 2.282 . S
N125 C126 1.328 . S
N125 C130 1.318 . S
C126 N125 1.328 . S
C126 C127 1.457 . S
C126 H131 0.929 1_455 S
C127 C126 1.457 . S
C127 C128 1.291 . S
C127 H140 0.931 . S
C128 C127 1.291 . S
C128 C129 1.373 . S
C128 H141 0.929 . S
C129 C128 1.373 . S
C129 C130 1.396 . S
C129 C136 1.403 . S
C130 C120 1.476 . S
C130 N125 1.318 . S
C130 C129 1.396 . S
H131 C126 0.929 1_655 S
O132 Mn108 2.385 . S
O132 C110 1.234 . S
O133 Mn108 2.209 . S
O133 Mn109 2.215 1_655 S
O133 C110 1.283 . S
O134 Mn108 2.094 . S
O134 C112 1.240 . S
O135 Mn109 2.117 1_655 S
O135 C112 1.264 . S
C136 C129 1.403 . S
C136 C137 1.399 . S
C136 H142 0.929 . S
C137 C117 1.449 . S
C137 C136 1.399 . S
C137 H143 0.930 . S
H138 C118 0.931 . S
H139 C119 0.930 . S
H140 C127 0.931 . S
H141 C128 0.929 . S
H142 C136 0.929 . S
H143 C137 0.930 . S
Mn144 O149 2.095 . S
Mn144 O159 2.162 . S
Mn144 O160 2.297 . S
Mn144 O168 2.385 . S
Mn144 O169 2.209 . S
Mn144 O170 2.094 . S
Mn145 O150 2.121 . S
Mn145 N152 2.257 . S
Mn145 N161 2.282 . S
Mn145 O169 2.215 1_565 S
Mn145 O171 2.117 1_565 S
C146 O168 1.234 . S
C146 O169 1.283 . S
C147 O159 1.281 . S
C147 O160 1.236 . S
C148 O170 1.240 . S
C148 O171 1.264 . S
O149 Mn144 2.095 . S
O149 C158 1.250 . S
O150 Mn145 2.121 . S
O150 C158 1.258 1_565 S
C151 N152 1.326 . S
C151 C155 1.460 . S
C151 H157 0.929 . S
N152 Mn145 2.257 . S
N152 C151 1.326 . S
N152 C156 1.362 . S
C153 C154 1.258 . S
C153 C156 1.431 . S
C153 C173 1.449 . S
C154 C153 1.258 . S
C154 C155 1.477 . S
C154 H174 0.931 . S
C155 C151 1.460 . S
C155 C154 1.477 . S
C155 H175 0.930 . S
C156 N152 1.362 . S
C156 C153 1.431 . S
C156 C166 1.476 . S
H157 C151 0.929 . S
C158 O149 1.250 . S
C158 O150 1.258 1_545 S
O159 Mn144 2.162 . S
O159 C147 1.281 . S
O160 Mn144 2.297 . S
O160 C147 1.236 . S
N161 Mn145 2.282 . S
N161 C162 1.328 . S
N161 C166 1.318 . S
C162 N161 1.328 . S
C162 C163 1.457 . S
C162 H167 0.929 1_565 S
C163 C162 1.457 . S
C163 C164 1.291 . S
C163 H176 0.931 . S
C164 C163 1.291 . S
C164 C165 1.373 . S
C164 H177 0.929 . S
C165 C164 1.373 . S
C165 C166 1.396 . S
C165 C172 1.403 . S
C166 C156 1.476 . S
C166 N161 1.318 . S
C166 C165 1.396 . S
H167 C162 0.929 1_545 S
O168 Mn144 2.385 . S
O168 C146 1.234 . S
O169 Mn144 2.209 . S
O169 Mn145 2.215 1_545 S
O169 C146 1.283 . S
O170 Mn144 2.094 . S
O170 C148 1.240 . S
O171 Mn145 2.117 1_545 S
O171 C148 1.264 . S
C172 C165 1.403 . S
C172 C173 1.399 . S
C172 H178 0.929 . S
C173 C153 1.449 . S
C173 C172 1.399 . S
C173 H179 0.930 . S
H174 C154 0.931 . S
H175 C155 0.930 . S
H176 C163 0.931 . S
H177 C164 0.929 . S
H178 C172 0.929 . S
H179 C173 0.930 . S
Mn180 O185 2.095 . S
Mn180 O195 2.162 . S
Mn180 O196 2.297 . S
Mn180 O204 2.385 . S
Mn180 O205 2.209 . S
Mn180 O206 2.094 . S
Mn181 O186 2.121 . S
Mn181 N188 2.257 . S
Mn181 N197 2.282 . S
Mn181 O205 2.215 1_545 S
Mn181 O207 2.117 1_545 S
C182 O204 1.234 . S
C182 O205 1.283 . S
C183 O195 1.281 . S
C183 O196 1.236 . S
C184 O206 1.240 . S
C184 O207 1.264 . S
O185 Mn180 2.095 . S
O185 C194 1.250 . S
O186 Mn181 2.121 . S
O186 C194 1.258 1_545 S
C187 N188 1.326 . S
C187 C191 1.460 . S
C187 H193 0.929 . S
N188 Mn181 2.257 . S
N188 C187 1.326 . S
N188 C192 1.362 . S
C189 C190 1.258 . S
C189 C192 1.431 . S
C189 C209 1.449 . S
C190 C189 1.258 . S
C190 C191 1.477 . S
C190 H210 0.931 . S
C191 C187 1.460 . S
C191 C190 1.477 . S
C191 H211 0.930 . S
C192 N188 1.362 . S
C192 C189 1.431 . S
C192 C202 1.476 . S
H193 C187 0.929 . S
C194 O185 1.250 . S
C194 O186 1.258 1_565 S
O195 Mn180 2.162 . S
O195 C183 1.281 . S
O196 Mn180 2.297 . S
O196 C183 1.236 . S
N197 Mn181 2.282 . S
N197 C198 1.328 . S
N197 C202 1.318 . S
C198 N197 1.328 . S
C198 C199 1.457 . S
C198 H203 0.929 1_545 S
C199 C198 1.457 . S
C199 C200 1.291 . S
C199 H212 0.931 . S
C200 C199 1.291 . S
C200 C201 1.373 . S
C200 H213 0.929 . S
C201 C200 1.373 . S
C201 C202 1.396 . S
C201 C208 1.403 . S
C202 C192 1.476 . S
C202 N197 1.318 . S
C202 C201 1.396 . S
H203 C198 0.929 1_565 S
O204 Mn180 2.385 . S
O204 C182 1.234 . S
O205 Mn180 2.209 . S
O205 Mn181 2.215 1_565 S
O205 C182 1.283 . S
O206 Mn180 2.094 . S
O206 C184 1.240 . S
O207 Mn181 2.117 1_565 S
O207 C184 1.264 . S
C208 C201 1.403 . S
C208 C209 1.399 . S
C208 H214 0.929 . S
C209 C189 1.449 . S
C209 C208 1.399 . S
C209 H215 0.930 . S
H210 C190 0.931 . S
H211 C191 0.930 . S
H212 C199 0.931 . S
H213 C200 0.929 . S
H214 C208 0.929 . S
H215 C209 0.930 . S
Mn216 O221 2.095 . S
Mn216 O231 2.162 . S
Mn216 O232 2.297 . S
Mn216 O240 2.385 . S
Mn216 O241 2.209 . S
Mn216 O242 2.094 . S
Mn217 O222 2.121 . S
Mn217 N224 2.257 . S
Mn217 N233 2.282 . S
Mn217 O241 2.215 1_545 S
Mn217 O243 2.117 1_545 S
C218 O240 1.234 . S
C218 O241 1.283 . S
C219 O231 1.281 . S
C219 O232 1.236 . S
C220 O242 1.240 . S
C220 O243 1.264 . S
O221 Mn216 2.095 . S
O221 C230 1.250 . S
O222 Mn217 2.121 . S
O222 C230 1.258 1_545 S
C223 N224 1.326 . S
C223 C227 1.460 . S
C223 H229 0.929 . S
N224 Mn217 2.257 . S
N224 C223 1.326 . S
N224 C228 1.362 . S
C225 C226 1.258 . S
C225 C228 1.431 . S
C225 C245 1.449 . S
C226 C225 1.258 . S
C226 C227 1.477 . S
C226 H246 0.931 . S
C227 C223 1.460 . S
C227 C226 1.477 . S
C227 H247 0.930 . S
C228 N224 1.362 . S
C228 C225 1.431 . S
C228 C238 1.476 . S
H229 C223 0.929 . S
C230 O221 1.250 . S
C230 O222 1.258 1_565 S
O231 Mn216 2.162 . S
O231 C219 1.281 . S
O232 Mn216 2.297 . S
O232 C219 1.236 . S
N233 Mn217 2.282 . S
N233 C234 1.328 . S
N233 C238 1.318 . S
C234 N233 1.328 . S
C234 C235 1.457 . S
C234 H239 0.929 1_545 S
C235 C234 1.457 . S
C235 C236 1.291 . S
C235 H248 0.931 . S
C236 C235 1.291 . S
C236 C237 1.373 . S
C236 H249 0.929 . S
C237 C236 1.373 . S
C237 C238 1.396 . S
C237 C244 1.403 . S
C238 C228 1.476 . S
C238 N233 1.318 . S
C238 C237 1.396 . S
H239 C234 0.929 1_565 S
O240 Mn216 2.385 . S
O240 C218 1.234 . S
O241 Mn216 2.209 . S
O241 Mn217 2.215 1_565 S
O241 C218 1.283 . S
O242 Mn216 2.094 . S
O242 C220 1.240 . S
O243 Mn217 2.117 1_565 S
O243 C220 1.264 . S
C244 C237 1.403 . S
C244 C245 1.399 . S
C244 H250 0.929 . S
C245 C225 1.449 . S
C245 C244 1.399 . S
C245 H251 0.930 . S
H246 C226 0.931 . S
H247 C227 0.930 . S
H248 C235 0.931 . S
H249 C236 0.929 . S
H250 C244 0.929 . S
H251 C245 0.930 . S
Mn252 O257 2.095 . S
Mn252 O267 2.162 . S
Mn252 O268 2.297 . S
Mn252 O276 2.385 . S
Mn252 O277 2.209 . S
Mn252 O278 2.094 . S
Mn253 O258 2.121 . S
Mn253 N260 2.257 . S
Mn253 N269 2.282 . S
Mn253 O277 2.215 1_565 S
Mn253 O279 2.117 1_565 S
C254 O276 1.234 . S
C254 O277 1.283 . S
C255 O267 1.281 . S
C255 O268 1.236 . S
C256 O278 1.240 . S
C256 O279 1.264 . S
O257 Mn252 2.095 . S
O257 C266 1.250 . S
O258 Mn253 2.121 . S
O258 C266 1.258 1_565 S
C259 N260 1.326 . S
C259 C263 1.460 . S
C259 H265 0.929 . S
N260 Mn253 2.257 . S
N260 C259 1.326 . S
N260 C264 1.362 . S
C261 C262 1.258 . S
C261 C264 1.431 . S
C261 C281 1.449 . S
C262 C261 1.258 . S
C262 C263 1.477 . S
C262 H282 0.931 . S
C263 C259 1.460 . S
C263 C262 1.477 . S
C263 H283 0.930 . S
C264 N260 1.362 . S
C264 C261 1.431 . S
C264 C274 1.476 . S
H265 C259 0.929 . S
C266 O257 1.250 . S
C266 O258 1.258 1_545 S
O267 Mn252 2.162 . S
O267 C255 1.281 . S
O268 Mn252 2.297 . S
O268 C255 1.236 . S
N269 Mn253 2.282 . S
N269 C270 1.328 . S
N269 C274 1.318 . S
C270 N269 1.328 . S
C270 C271 1.457 . S
C270 H275 0.929 1_565 S
C271 C270 1.457 . S
C271 C272 1.291 . S
C271 H284 0.931 . S
C272 C271 1.291 . S
C272 C273 1.373 . S
C272 H285 0.929 . S
C273 C272 1.373 . S
C273 C274 1.396 . S
C273 C280 1.403 . S
C274 C264 1.476 . S
C274 N269 1.318 . S
C274 C273 1.396 . S
H275 C270 0.929 1_545 S
O276 Mn252 2.385 . S
O276 C254 1.234 . S
O277 Mn252 2.209 . S
O277 Mn253 2.215 1_545 S
O277 C254 1.283 . S
O278 Mn252 2.094 . S
O278 C256 1.240 . S
O279 Mn253 2.117 1_545 S
O279 C256 1.264 . S
C280 C273 1.403 . S
C280 C281 1.399 . S
C280 H286 0.929 . S
C281 C261 1.449 . S
C281 C280 1.399 . S
C281 H287 0.930 . S
H282 C262 0.931 . S
H283 C263 0.930 . S
H284 C271 0.931 . S
H285 C272 0.929 . S
H286 C280 0.929 . S
H287 C281 0.930 . S
Mn288 O293 2.095 . S
Mn288 O303 2.162 . S
Mn288 O304 2.297 . S
Mn288 O312 2.385 . S
Mn288 O313 2.209 . S
Mn288 O314 2.094 . S
Mn289 O294 2.121 . S
Mn289 N296 2.257 . S
Mn289 N305 2.282 . S
Mn289 O313 2.215 1_556 S
Mn289 O315 2.117 1_556 S
C290 O312 1.234 . S
C290 O313 1.283 . S
C291 O303 1.281 . S
C291 O304 1.236 . S
C292 O314 1.240 . S
C292 O315 1.264 . S
O293 Mn288 2.095 . S
O293 C302 1.250 . S
O294 Mn289 2.121 . S
O294 C302 1.258 1_556 S
C295 N296 1.326 . S
C295 C299 1.460 . S
C295 H301 0.929 . S
N296 Mn289 2.257 . S
N296 C295 1.326 . S
N296 C300 1.362 . S
C297 C298 1.258 . S
C297 C300 1.431 . S
C297 C317 1.449 . S
C298 C297 1.258 . S
C298 C299 1.477 . S
C298 H318 0.931 . S
C299 C295 1.460 . S
C299 C298 1.477 . S
C299 H319 0.930 . S
C300 N296 1.362 . S
C300 C297 1.431 . S
C300 C310 1.476 . S
H301 C295 0.929 . S
C302 O293 1.250 . S
C302 O294 1.258 1_554 S
O303 Mn288 2.162 . S
O303 C291 1.281 . S
O304 Mn288 2.297 . S
O304 C291 1.236 . S
N305 Mn289 2.282 . S
N305 C306 1.328 . S
N305 C310 1.318 . S
C306 N305 1.328 . S
C306 C307 1.457 . S
C306 H311 0.929 1_556 S
C307 C306 1.457 . S
C307 C308 1.291 . S
C307 H320 0.931 . S
C308 C307 1.291 . S
C308 C309 1.373 . S
C308 H321 0.929 . S
C309 C308 1.373 . S
C309 C310 1.396 . S
C309 C316 1.403 . S
C310 C300 1.476 . S
C310 N305 1.318 . S
C310 C309 1.396 . S
H311 C306 0.929 1_554 S
O312 Mn288 2.385 . S
O312 C290 1.234 . S
O313 Mn288 2.209 . S
O313 Mn289 2.215 1_554 S
O313 C290 1.283 . S
O314 Mn288 2.094 . S
O314 C292 1.240 . S
O315 Mn289 2.117 1_554 S
O315 C292 1.264 . S
C316 C309 1.403 . S
C316 C317 1.399 . S
C316 H322 0.929 . S
C317 C297 1.449 . S
C317 C316 1.399 . S
C317 H323 0.930 . S
H318 C298 0.931 . S
H319 C299 0.930 . S
H320 C307 0.931 . S
H321 C308 0.929 . S
H322 C316 0.929 . S
H323 C317 0.930 . S
Mn324 O329 2.095 . S
Mn324 O339 2.162 . S
Mn324 O340 2.297 . S
Mn324 O348 2.385 . S
Mn324 O349 2.209 . S
Mn324 O350 2.094 . S
Mn325 O330 2.121 . S
Mn325 N332 2.257 . S
Mn325 N341 2.282 . S
Mn325 O349 2.215 1_554 S
Mn325 O351 2.117 1_554 S
C326 O348 1.234 . S
C326 O349 1.283 . S
C327 O339 1.281 . S
C327 O340 1.236 . S
C328 O350 1.240 . S
C328 O351 1.264 . S
O329 Mn324 2.095 . S
O329 C338 1.250 . S
O330 Mn325 2.121 . S
O330 C338 1.258 1_554 S
C331 N332 1.326 . S
C331 C335 1.460 . S
C331 H337 0.929 . S
N332 Mn325 2.257 . S
N332 C331 1.326 . S
N332 C336 1.362 . S
C333 C334 1.258 . S
C333 C336 1.431 . S
C333 C353 1.449 . S
C334 C333 1.258 . S
C334 C335 1.477 . S
C334 H354 0.931 . S
C335 C331 1.460 . S
C335 C334 1.477 . S
C335 H355 0.930 . S
C336 N332 1.362 . S
C336 C333 1.431 . S
C336 C346 1.476 . S
H337 C331 0.929 . S
C338 O329 1.250 . S
C338 O330 1.258 1_556 S
O339 Mn324 2.162 . S
O339 C327 1.281 . S
O340 Mn324 2.297 . S
O340 C327 1.236 . S
N341 Mn325 2.282 . S
N341 C342 1.328 . S
N341 C346 1.318 . S
C342 N341 1.328 . S
C342 C343 1.457 . S
C342 H347 0.929 1_554 S
C343 C342 1.457 . S
C343 C344 1.291 . S
C343 H356 0.931 . S
C344 C343 1.291 . S
C344 C345 1.373 . S
C344 H357 0.929 . S
C345 C344 1.373 . S
C345 C346 1.396 . S
C345 C352 1.403 . S
C346 C336 1.476 . S
C346 N341 1.318 . S
C346 C345 1.396 . S
H347 C342 0.929 1_556 S
O348 Mn324 2.385 . S
O348 C326 1.234 . S
O349 Mn324 2.209 . S
O349 Mn325 2.215 1_556 S
O349 C326 1.283 . S
O350 Mn324 2.094 . S
O350 C328 1.240 . S
O351 Mn325 2.117 1_556 S
O351 C328 1.264 . S
C352 C345 1.403 . S
C352 C353 1.399 . S
C352 H358 0.929 . S
C353 C333 1.449 . S
C353 C352 1.399 . S
C353 H359 0.930 . S
H354 C334 0.931 . S
H355 C335 0.930 . S
H356 C343 0.931 . S
H357 C344 0.929 . S
H358 C352 0.929 . S
H359 C353 0.930 . S
Mn360 O365 2.095 . S
Mn360 O375 2.162 . S
Mn360 O376 2.297 . S
Mn360 O384 2.385 . S
Mn360 O385 2.209 . S
Mn360 O386 2.094 . S
Mn361 O366 2.121 . S
Mn361 N368 2.257 . S
Mn361 N377 2.282 . S
Mn361 O385 2.215 1_554 S
Mn361 O387 2.117 1_554 S
C362 O384 1.234 . S
C362 O385 1.283 . S
C363 O375 1.281 . S
C363 O376 1.236 . S
C364 O386 1.240 . S
C364 O387 1.264 . S
O365 Mn360 2.095 . S
O365 C374 1.250 . S
O366 Mn361 2.121 . S
O366 C374 1.258 1_554 S
C367 N368 1.326 . S
C367 C371 1.460 . S
C367 H373 0.929 . S
N368 Mn361 2.257 . S
N368 C367 1.326 . S
N368 C372 1.362 . S
C369 C370 1.258 . S
C369 C372 1.431 . S
C369 C389 1.449 . S
C370 C369 1.258 . S
C370 C371 1.477 . S
C370 H390 0.931 . S
C371 C367 1.460 . S
C371 C370 1.477 . S
C371 H391 0.930 . S
C372 N368 1.362 . S
C372 C369 1.431 . S
C372 C382 1.476 . S
H373 C367 0.929 . S
C374 O365 1.250 . S
C374 O366 1.258 1_556 S
O375 Mn360 2.162 . S
O375 C363 1.281 . S
O376 Mn360 2.297 . S
O376 C363 1.236 . S
N377 Mn361 2.282 . S
N377 C378 1.328 . S
N377 C382 1.318 . S
C378 N377 1.328 . S
C378 C379 1.457 . S
C378 H383 0.929 1_554 S
C379 C378 1.457 . S
C379 C380 1.291 . S
C379 H392 0.931 . S
C380 C379 1.291 . S
C380 C381 1.373 . S
C380 H393 0.929 . S
C381 C380 1.373 . S
C381 C382 1.396 . S
C381 C388 1.403 . S
C382 C372 1.476 . S
C382 N377 1.318 . S
C382 C381 1.396 . S
H383 C378 0.929 1_556 S
O384 Mn360 2.385 . S
O384 C362 1.234 . S
O385 Mn360 2.209 . S
O385 Mn361 2.215 1_556 S
O385 C362 1.283 . S
O386 Mn360 2.094 . S
O386 C364 1.240 . S
O387 Mn361 2.117 1_556 S
O387 C364 1.264 . S
C388 C381 1.403 . S
C388 C389 1.399 . S
C388 H394 0.929 . S
C389 C369 1.449 . S
C389 C388 1.399 . S
C389 H395 0.930 . S
H390 C370 0.931 . S
H391 C371 0.930 . S
H392 C379 0.931 . S
H393 C380 0.929 . S
H394 C388 0.929 . S
H395 C389 0.930 . S
Mn396 O401 2.095 . S
Mn396 O411 2.162 . S
Mn396 O412 2.297 . S
Mn396 O420 2.385 . S
Mn396 O421 2.209 . S
Mn396 O422 2.094 . S
Mn397 O402 2.121 . S
Mn397 N404 2.257 . S
Mn397 N413 2.282 . S
Mn397 O421 2.215 1_556 S
Mn397 O423 2.117 1_556 S
C398 O420 1.234 . S
C398 O421 1.283 . S
C399 O411 1.281 . S
C399 O412 1.236 . S
C400 O422 1.240 . S
C400 O423 1.264 . S
O401 Mn396 2.095 . S
O401 C410 1.250 . S
O402 Mn397 2.121 . S
O402 C410 1.258 1_556 S
C403 N404 1.326 . S
C403 C407 1.460 . S
C403 H409 0.929 . S
N404 Mn397 2.257 . S
N404 C403 1.326 . S
N404 C408 1.362 . S
C405 C406 1.258 . S
C405 C408 1.431 . S
C405 C425 1.449 . S
C406 C405 1.258 . S
C406 C407 1.477 . S
C406 H426 0.931 . S
C407 C403 1.460 . S
C407 C406 1.477 . S
C407 H427 0.930 . S
C408 N404 1.362 . S
C408 C405 1.431 . S
C408 C418 1.476 . S
H409 C403 0.929 . S
C410 O401 1.250 . S
C410 O402 1.258 1_554 S
O411 Mn396 2.162 . S
O411 C399 1.281 . S
O412 Mn396 2.297 . S
O412 C399 1.236 . S
N413 Mn397 2.282 . S
N413 C414 1.328 . S
N413 C418 1.318 . S
C414 N413 1.328 . S
C414 C415 1.457 . S
C414 H419 0.929 1_556 S
C415 C414 1.457 . S
C415 C416 1.291 . S
C415 H428 0.931 . S
C416 C415 1.291 . S
C416 C417 1.373 . S
C416 H429 0.929 . S
C417 C416 1.373 . S
C417 C418 1.396 . S
C417 C424 1.403 . S
C418 C408 1.476 . S
C418 N413 1.318 . S
C418 C417 1.396 . S
H419 C414 0.929 1_554 S
O420 Mn396 2.385 . S
O420 C398 1.234 . S
O421 Mn396 2.209 . S
O421 Mn397 2.215 1_554 S
O421 C398 1.283 . S
O422 Mn396 2.094 . S
O422 C400 1.240 . S
O423 Mn397 2.117 1_554 S
O423 C400 1.264 . S
C424 C417 1.403 . S
C424 C425 1.399 . S
C424 H430 0.929 . S
C425 C405 1.449 . S
C425 C424 1.399 . S
C425 H431 0.930 . S
H426 C406 0.931 . S
H427 C407 0.930 . S
H428 C415 0.931 . S
H429 C416 0.929 . S
H430 C424 0.929 . S
H431 C425 0.930 . S
C432 C433 1.379 . S
C432 C438 1.363 1_655 S
C432 N440 1.362 . S
C433 C432 1.379 . S
C433 C439 1.363 . S
C434 C435 1.379 . S
C434 C439 1.363 1_455 S
C434 N441 1.362 . S
C435 C434 1.379 . S
C435 C438 1.363 . S
N436 C438 1.356 . S
N436 H448 0.984 . S
N436 H449 0.985 . S
N437 C439 1.356 . S
N437 H442 0.984 . S
N437 H443 0.985 . S
C438 C432 1.363 1_455 S
C438 C435 1.363 . S
C438 N436 1.356 . S
C439 C433 1.363 . S
C439 C434 1.363 1_655 S
C439 N437 1.356 . S
N440 C432 1.362 . S
N440 H446 0.984 1_655 S
N440 H447 0.984 . S
N441 C434 1.362 . S
N441 H444 0.984 . S
N441 H445 0.985 1_455 S
H442 N437 0.984 . S
H443 N437 0.985 . S
H444 N441 0.984 . S
H445 N441 0.985 1_655 S
H446 N440 0.984 1_455 S
H447 N440 0.984 . S
H448 N436 0.984 . S
H449 N436 0.985 . S
C450 C451 1.379 . S
C450 C456 1.363 1_455 S
C450 N458 1.362 . S
C451 C450 1.379 . S
C451 C457 1.363 . S
C452 C453 1.379 . S
C452 C457 1.363 1_655 S
C452 N459 1.362 . S
C453 C452 1.379 . S
C453 C456 1.363 . S
N454 C456 1.356 . S
N454 H466 0.984 . S
N454 H467 0.985 . S
N455 C457 1.356 . S
N455 H460 0.984 . S
N455 H461 0.985 . S
C456 C450 1.363 1_655 S
C456 C453 1.363 . S
C456 N454 1.356 . S
C457 C451 1.363 . S
C457 C452 1.363 1_455 S
C457 N455 1.356 . S
N458 C450 1.362 . S
N458 H464 0.984 1_455 S
N458 H465 0.984 . S
N459 C452 1.362 . S
N459 H462 0.984 . S
N459 H463 0.985 1_655 S
H460 N455 0.984 . S
H461 N455 0.985 . S
H462 N459 0.984 . S
H463 N459 0.985 1_455 S
H464 N458 0.984 1_655 S
H465 N458 0.984 . S
H466 N454 0.984 . S
H467 N454 0.985 . S
C468 C469 1.363 . S
C468 C474 1.363 1_565 S
C468 N476 1.356 . S
C469 C468 1.363 . S
C469 C475 1.379 . S
C470 C471 1.363 . S
C470 C475 1.363 1_545 S
C470 N477 1.356 . S
C471 C470 1.363 . S
C471 C474 1.379 . S
N472 C474 1.362 . S
N472 H484 0.984 1_545 S
N472 H485 0.985 . S
N473 C475 1.362 . S
N473 H478 0.984 . S
N473 H479 0.985 1_565 S
C474 C468 1.363 1_545 S
C474 C471 1.379 . S
C474 N472 1.362 . S
C475 C469 1.379 . S
C475 C470 1.363 1_565 S
C475 N473 1.362 . S
N476 C468 1.356 . S
N476 H482 0.984 . S
N476 H483 0.984 . S
N477 C470 1.356 . S
N477 H480 0.984 . S
N477 H481 0.985 . S
H478 N473 0.984 . S
H479 N473 0.985 1_545 S
H480 N477 0.984 . S
H481 N477 0.985 . S
H482 N476 0.984 . S
H483 N476 0.984 . S
H484 N472 0.984 1_565 S
H485 N472 0.985 . S
C486 C487 1.379 . S
C486 C492 1.363 1_565 S
C486 N494 1.362 . S
C487 C486 1.379 . S
C487 C493 1.363 . S
C488 C489 1.379 . S
C488 C493 1.363 1_545 S
C488 N495 1.362 . S
C489 C488 1.379 . S
C489 C492 1.363 . S
N490 C492 1.356 . S
N490 H502 0.984 . S
N490 H503 0.985 . S
N491 C493 1.356 . S
N491 H496 0.984 . S
N491 H497 0.985 . S
C492 C486 1.363 1_545 S
C492 C489 1.363 . S
C492 N490 1.356 . S
C493 C487 1.363 . S
C493 C488 1.363 1_565 S
C493 N491 1.356 . S
N494 C486 1.362 . S
N494 H500 0.984 1_565 S
N494 H501 0.984 . S
N495 C488 1.362 . S
N495 H498 0.984 . S
N495 H499 0.985 1_545 S
H496 N491 0.984 . S
H497 N491 0.985 . S
H498 N495 0.984 . S
H499 N495 0.985 1_565 S
H500 N494 0.984 1_545 S
H501 N494 0.984 . S
H502 N490 0.984 . S
H503 N490 0.985 . S
C504 C505 1.345 1_554 S
C504 C510 1.396 . S
C504 N512 1.351 1_554 S
C505 C504 1.345 1_556 S
C505 C511 1.363 . S
C506 C507 1.345 1_556 S
C506 C511 1.396 . S
C506 N513 1.351 1_556 S
C507 C506 1.345 1_554 S
C507 C510 1.363 . S
N508 C510 1.356 . S
N508 H520 0.984 . S
N508 H521 0.985 . S
N509 C511 1.356 . S
N509 H514 0.984 . S
N509 H515 0.985 . S
C510 C504 1.396 . S
C510 C507 1.363 . S
C510 N508 1.356 . S
C511 C505 1.363 . S
C511 C506 1.396 . S
C511 N509 1.356 . S
N512 C504 1.351 1_556 S
N512 H518 0.984 1_556 S
N512 H519 0.984 . S
N513 C506 1.351 1_554 S
N513 H516 0.984 . S
N513 H517 0.985 1_554 S
H514 N509 0.984 . S
H515 N509 0.985 . S
H516 N513 0.984 . S
H517 N513 0.985 1_556 S
H518 N512 0.984 1_554 S
H519 N512 0.984 . S
H520 N508 0.984 . S
H521 N508 0.985 . S
C522 C523 1.363 . S
C522 C528 1.379 . S
C522 N530 1.356 . S
C523 C522 1.363 . S
C523 C529 1.363 1_556 S
C524 C525 1.363 . S
C524 C529 1.379 . S
C524 N531 1.356 . S
C525 C524 1.363 . S
C525 C528 1.363 1_554 S
N526 C528 1.356 1_554 S
N526 H538 0.984 1_554 S
N526 H539 0.985 . S
N527 C529 1.356 1_556 S
N527 H532 0.984 . S
N527 H533 0.985 1_556 S
C528 C522 1.379 . S
C528 C525 1.363 1_556 S
C528 N526 1.356 1_556 S
C529 C523 1.363 1_554 S
C529 C524 1.379 . S
C529 N527 1.356 1_554 S
N530 C522 1.356 . S
N530 H536 0.984 . S
N530 H537 0.984 . S
N531 C524 1.356 . S
N531 H534 0.984 . S
N531 H535 0.985 . S
H532 N527 0.984 . S
H533 N527 0.985 1_554 S
H534 N531 0.984 . S
H535 N531 0.985 . S
H536 N530 0.984 . S
H537 N530 0.984 . S
H538 N526 0.984 1_556 S
H539 N526 0.985 . S
C540 C541 1.363 . S
C540 C546 1.379 . S
C540 N548 1.356 . S
C541 C540 1.363 . S
C541 C547 1.363 . S
C542 C543 1.363 . S
C542 C547 1.379 . S
C542 N549 1.356 . S
C543 C542 1.363 . S
C543 C546 1.363 . S
N544 C546 1.356 . S
N544 H556 0.984 . S
N544 H557 0.985 . S
N545 C547 1.356 . S
N545 H550 0.984 . S
N545 H551 0.985 . S
C546 C540 1.379 . S
C546 C543 1.363 . S
C546 N544 1.356 . S
C547 C541 1.363 . S
C547 C542 1.379 . S
C547 N545 1.356 . S
N548 C540 1.356 . S
N548 H554 0.984 . S
N548 H555 0.984 . S
N549 C542 1.356 . S
N549 H552 0.984 . S
N549 H553 0.985 . S
H550 N545 0.984 . S
H551 N545 0.985 . S
H552 N549 0.984 . S
H553 N549 0.985 . S
H554 N548 0.984 . S
H555 N548 0.984 . S
H556 N544 0.984 . S
H557 N544 0.985 . S
C558 C559 1.363 . S
C558 C564 1.379 . S
C558 N566 1.356 . S
C559 C558 1.363 . S
C559 C565 1.363 . S
C560 C561 1.363 . S
C560 C565 1.379 . S
C560 N567 1.356 . S
C561 C560 1.363 . S
C561 C564 1.363 . S
N562 C564 1.356 . S
N562 H574 0.984 . S
N562 H575 0.985 . S
N563 C565 1.356 . S
N563 H568 0.984 . S
N563 H569 0.985 . S
C564 C558 1.379 . S
C564 C561 1.363 . S
C564 N562 1.356 . S
C565 C559 1.363 . S
C565 C560 1.379 . S
C565 N563 1.356 . S
N566 C558 1.356 . S
N566 H572 0.984 . S
N566 H573 0.984 . S
N567 C560 1.356 . S
N567 H570 0.984 . S
N567 H571 0.985 . S
H568 N563 0.984 . S
H569 N563 0.985 . S
H570 N567 0.984 . S
H571 N567 0.985 . S
H572 N566 0.984 . S
H573 N566 0.984 . S
H574 N562 0.984 . S
H575 N562 0.985 . S
C576 C577 1.363 . S
C576 C582 1.379 . S
C576 N584 1.356 . S
C577 C576 1.363 . S
C577 C583 1.363 . S
C578 C579 1.363 . S
C578 C583 1.379 . S
C578 N585 1.356 . S
C579 C578 1.363 . S
C579 C582 1.363 . S
N580 C582 1.356 . S
N580 H592 0.984 . S
N580 H593 0.985 . S
N581 C583 1.356 . S
N581 H586 0.984 . S
N581 H587 0.985 . S
C582 C576 1.379 . S
C582 C579 1.363 . S
C582 N580 1.356 . S
C583 C577 1.363 . S
C583 C578 1.379 . S
C583 N581 1.356 . S
N584 C576 1.356 . S
N584 H590 0.984 . S
N584 H591 0.984 . S
N585 C578 1.356 . S
N585 H588 0.984 . S
N585 H589 0.985 . S
H586 N581 0.984 . S
H587 N581 0.985 . S
H588 N585 0.984 . S
H589 N585 0.985 . S
H590 N584 0.984 . S
H591 N584 0.984 . S
H592 N580 0.984 . S
H593 N580 0.985 . S
C594 C595 1.363 . S
C594 C600 1.379 . S
C594 N602 1.356 . S
C595 C594 1.363 . S
C595 C601 1.363 . S
C596 C597 1.363 . S
C596 C601 1.379 . S
C596 N603 1.356 . S
C597 C596 1.363 . S
C597 C600 1.363 . S
N598 C600 1.356 . S
N598 H610 0.984 . S
N598 H611 0.985 . S
N599 C601 1.356 . S
N599 H604 0.984 . S
N599 H605 0.985 . S
C600 C594 1.379 . S
C600 C597 1.363 . S
C600 N598 1.356 . S
C601 C595 1.363 . S
C601 C596 1.379 . S
C601 N599 1.356 . S
N602 C594 1.356 . S
N602 H608 0.984 . S
N602 H609 0.984 . S
N603 C596 1.356 . S
N603 H606 0.984 . S
N603 H607 0.985 . S
H604 N599 0.984 . S
H605 N599 0.985 . S
H606 N603 0.984 . S
H607 N603 0.985 . S
H608 N602 0.984 . S
H609 N602 0.984 . S
H610 N598 0.984 . S
H611 N598 0.985 . S
C612 C613 1.363 . S
C612 C618 1.379 . S
C612 N620 1.356 . S
C613 C612 1.363 . S
C613 C619 1.363 . S
C614 C615 1.363 . S
C614 C619 1.379 . S
C614 N621 1.356 . S
C615 C614 1.363 . S
C615 C618 1.363 . S
N616 C618 1.356 . S
N616 H628 0.984 . S
N616 H629 0.985 . S
N617 C619 1.356 . S
N617 H622 0.984 . S
N617 H623 0.985 . S
C618 C612 1.379 . S
C618 C615 1.363 . S
C618 N616 1.356 . S
C619 C613 1.363 . S
C619 C614 1.379 . S
C619 N617 1.356 . S
N620 C612 1.356 . S
N620 H626 0.984 . S
N620 H627 0.984 . S
N621 C614 1.356 . S
N621 H624 0.984 . S
N621 H625 0.985 . S
H622 N617 0.984 . S
H623 N617 0.985 . S
H624 N621 0.984 . S
H625 N621 0.985 . S
H626 N620 0.984 . S
H627 N620 0.984 . S
H628 N616 0.984 . S
H629 N616 0.985 . S
C630 C631 1.363 . S
C630 C636 1.379 . S
C630 N638 1.356 . S
C631 C630 1.363 . S
C631 C637 1.363 . S
C632 C633 1.363 . S
C632 C637 1.379 . S
C632 N639 1.356 . S
C633 C632 1.363 . S
C633 C636 1.363 . S
N634 C636 1.356 . S
N634 H646 0.984 . S
N634 H647 0.985 . S
N635 C637 1.356 . S
N635 H640 0.984 . S
N635 H641 0.985 . S
C636 C630 1.379 . S
C636 C633 1.363 . S
C636 N634 1.356 . S
C637 C631 1.363 . S
C637 C632 1.379 . S
C637 N635 1.356 . S
N638 C630 1.356 . S
N638 H644 0.984 . S
N638 H645 0.984 . S
N639 C632 1.356 . S
N639 H642 0.984 . S
N639 H643 0.985 . S
H640 N635 0.984 . S
H641 N635 0.985 . S
H642 N639 0.984 . S
H643 N639 0.985 . S
H644 N638 0.984 . S
H645 N638 0.984 . S
H646 N634 0.984 . S
H647 N634 0.985 . S
C648 C649 1.363 . S
C648 C654 1.379 . S
C648 N656 1.356 . S
C649 C648 1.363 . S
C649 C655 1.363 . S
C650 C651 1.363 . S
C650 C655 1.379 . S
C650 N657 1.356 . S
C651 C650 1.363 . S
C651 C654 1.363 . S
N652 C654 1.356 . S
N652 H664 0.984 . S
N652 H665 0.985 . S
N653 C655 1.356 . S
N653 H658 0.984 . S
N653 H659 0.985 . S
C654 C648 1.379 . S
C654 C651 1.363 . S
C654 N652 1.356 . S
C655 C649 1.363 . S
C655 C650 1.379 . S
C655 N653 1.356 . S
N656 C648 1.356 . S
N656 H662 0.999 . S
N656 H663 0.984 . S
N657 C650 1.356 . S
N657 H660 0.984 . S
N657 H661 0.985 . S
H658 N653 0.984 . S
H659 N653 0.985 . S
H660 N657 0.984 . S
H661 N657 0.985 . S
H662 N656 0.999 . S
H663 N656 0.984 . S
H664 N652 0.984 . S
H665 N652 0.985 . S
C666 C667 1.363 . S
C666 C672 1.379 . S
C666 N674 1.356 . S
C667 C666 1.363 . S
C667 C673 1.363 . S
C668 C669 1.363 . S
C668 C673 1.379 . S
C668 N675 1.356 . S
C669 C668 1.363 . S
C669 C672 1.363 . S
N670 C672 1.356 . S
N670 H682 0.984 1_556 S
N670 H683 0.985 . S
N671 C673 1.356 . S
N671 H676 0.984 . S
N671 H677 0.985 . S
C672 C666 1.379 . S
C672 C669 1.363 . S
C672 N670 1.356 . S
C673 C667 1.363 . S
C673 C668 1.379 . S
C673 N671 1.356 . S
N674 C666 1.356 . S
N674 H680 0.984 . S
N674 H681 0.984 . S
N675 C668 1.356 . S
N675 H678 0.984 . S
N675 H679 0.985 . S
H676 N671 0.984 . S
H677 N671 0.985 . S
H678 N675 0.984 . S
H679 N675 0.985 . S
H680 N674 0.984 . S
H681 N674 0.984 . S
H682 N670 0.984 1_554 S
H683 N670 0.985 . S
C684 C685 1.363 . S
C684 C690 1.379 . S
C684 N692 1.356 . S
C685 C684 1.363 . S
C685 C691 1.363 . S
C686 C687 1.363 . S
C686 C691 1.379 . S
C686 N693 1.356 . S
C687 C686 1.363 . S
C687 C690 1.363 . S
N688 C690 1.356 . S
N688 H700 0.984 . S
N688 H701 0.985 . S
N689 C691 1.356 . S
N689 H694 0.984 . S
N689 H695 0.985 . S
C690 C684 1.379 . S
C690 C687 1.363 . S
C690 N688 1.356 . S
C691 C685 1.363 . S
C691 C686 1.379 . S
C691 N689 1.356 . S
N692 C684 1.356 . S
N692 H698 0.984 . S
N692 H699 0.984 . S
N693 C686 1.356 . S
N693 H696 0.984 . S
N693 H697 0.985 . S
H694 N689 0.984 . S
H695 N689 0.985 . S
H696 N693 0.984 . S
H697 N693 0.985 . S
H698 N692 0.984 . S
H699 N692 0.984 . S
H700 N688 0.984 . S
H701 N688 0.985 . S
C702 C703 1.363 . S
C702 C708 1.379 . S
C702 N710 1.356 . S
C703 C702 1.363 . S
C703 C709 1.363 . S
C704 C705 1.363 . S
C704 C709 1.379 . S
C704 N711 1.356 . S
C705 C704 1.363 . S
C705 C708 1.363 . S
N706 C708 1.356 . S
N706 H718 0.984 . S
N706 H719 0.985 . S
N707 C709 1.356 . S
N707 H712 0.984 . S
N707 H713 0.985 1_455 S
C708 C702 1.379 . S
C708 C705 1.363 . S
C708 N706 1.356 . S
C709 C703 1.363 . S
C709 C704 1.379 . S
C709 N707 1.356 . S
N710 C702 1.356 . S
N710 H716 0.984 . S
N710 H717 0.984 . S
N711 C704 1.356 . S
N711 H714 0.984 . S
N711 H715 0.985 . S
H712 N707 0.984 . S
H713 N707 0.985 1_655 S
H714 N711 0.984 . S
H715 N711 0.985 . S
H716 N710 0.984 . S
H717 N710 0.984 . S
H718 N706 0.984 . S
H719 N706 0.985 . S
C720 C721 1.363 . S
C720 C726 1.379 . S
C720 N728 1.356 . S
C721 C720 1.363 . S
C721 C727 1.363 . S
C722 C723 1.363 . S
C722 C727 1.379 . S
C722 N729 1.356 . S
C723 C722 1.363 . S
C723 C726 1.363 . S
N724 C726 1.356 . S
N724 H736 0.984 . S
N724 H737 0.985 . S
N725 C727 1.356 . S
N725 H730 0.984 . S
N725 H731 0.985 . S
C726 C720 1.379 . S
C726 C723 1.363 . S
C726 N724 1.356 . S
C727 C721 1.363 . S
C727 C722 1.379 . S
C727 N725 1.356 . S
N728 C720 1.356 . S
N728 H734 0.984 . S
N728 H735 0.984 . S
N729 C722 1.356 . S
N729 H732 0.984 . S
N729 H733 0.985 . S
H730 N725 0.984 . S
H731 N725 0.985 . S
H732 N729 0.984 . S
H733 N729 0.985 . S
H734 N728 0.984 . S
H735 N728 0.984 . S
H736 N724 0.984 . S
H737 N724 0.985 . S
C738 C739 1.363 . S
C738 C744 1.379 . S
C738 N746 1.356 . S
C739 C738 1.363 . S
C739 C745 1.363 . S
C740 C741 1.363 . S
C740 C745 1.379 . S
C740 N747 1.356 . S
C741 C740 1.363 . S
C741 C744 1.363 . S
N742 C744 1.356 . S
N742 H754 0.984 . S
N742 H755 0.985 . S
N743 C745 1.356 . S
N743 H748 0.984 . S
N743 H749 0.985 1_655 S
C744 C738 1.379 . S
C744 C741 1.363 . S
C744 N742 1.356 . S
C745 C739 1.363 . S
C745 C740 1.379 . S
C745 N743 1.356 . S
N746 C738 1.356 . S
N746 H752 0.984 . S
N746 H753 0.984 . S
N747 C740 1.356 . S
N747 H750 0.984 . S
N747 H751 0.985 . S
H748 N743 0.984 . S
H749 N743 0.985 1_455 S
H750 N747 0.984 . S
H751 N747 0.985 . S
H752 N746 0.984 . S
H753 N746 0.984 . S
H754 N742 0.984 . S
H755 N742 0.985 . S
C756 C757 1.363 1_655 S
C756 C762 1.379 1_545 S
C756 N764 1.356 . S
C757 C756 1.363 1_455 S
C757 C763 1.363 . S
C758 C759 1.363 1_455 S
C758 C763 1.379 1_565 S
C758 N765 1.356 . S
C759 C758 1.363 1_655 S
C759 C762 1.363 . S
N760 C762 1.356 . S
N760 H772 0.984 . S
N760 H773 0.985 . S
N761 C763 1.356 . S
N761 H766 0.984 . S
N761 H767 0.985 . S
C762 C756 1.379 1_565 S
C762 C759 1.363 . S
C762 N760 1.356 . S
C763 C757 1.363 . S
C763 C758 1.379 1_545 S
C763 N761 1.356 . S
N764 C756 1.356 . S
N764 H770 0.984 . S
N764 H771 0.984 1_655 S
N765 C758 1.356 . S
N765 H768 0.984 1_455 S
N765 H769 0.985 . S
H766 N761 0.984 . S
H767 N761 0.985 . S
H768 N765 0.984 1_655 S
H769 N765 0.985 . S
H770 N764 0.984 . S
H771 N764 0.984 1_455 S
H772 N760 0.984 . S
H773 N760 0.985 . S
C774 C775 1.363 1_455 S
C774 C780 1.379 1_545 S
C774 N782 1.356 . S
C775 C774 1.363 1_655 S
C775 C781 1.363 . S
C776 C777 1.363 1_655 S
C776 C781 1.379 1_565 S
C776 N783 1.356 . S
C777 C776 1.363 1_455 S
C777 C780 1.363 . S
N778 C780 1.356 . S
N778 H790 0.984 . S
N778 H791 0.985 . S
N779 C781 1.356 . S
N779 H784 0.984 . S
N779 H785 0.985 . S
C780 C774 1.379 1_565 S
C780 C777 1.363 . S
C780 N778 1.356 . S
C781 C775 1.363 . S
C781 C776 1.379 1_545 S
C781 N779 1.356 . S
N782 C774 1.356 . S
N782 H788 0.984 . S
N782 H789 0.984 1_455 S
N783 C776 1.356 . S
N783 H786 0.984 1_655 S
N783 H787 0.985 . S
H784 N779 0.984 . S
H785 N779 0.985 . S
H786 N783 0.984 1_455 S
H787 N783 0.985 . S
H788 N782 0.984 . S
H789 N782 0.984 1_655 S
H790 N778 0.984 . S
H791 N778 0.985 . S
C792 C793 1.363 . S
C792 C798 1.379 1_556 S
C792 N800 1.356 . S
C793 C792 1.363 . S
C793 C799 1.363 1_565 S
C794 C795 1.363 . S
C794 C799 1.379 1_554 S
C794 N801 1.356 . S
C795 C794 1.363 . S
C795 C798 1.363 1_545 S
N796 C798 1.356 . S
N796 H808 0.984 . S
N796 H809 0.985 . S
N797 C799 1.356 . S
N797 H802 0.984 . S
N797 H803 0.985 . S
C798 C792 1.379 1_554 S
C798 C795 1.363 1_565 S
C798 N796 1.356 . S
C799 C793 1.363 1_545 S
C799 C794 1.379 1_556 S
C799 N797 1.356 . S
N800 C792 1.356 . S
N800 H806 0.984 . S
N800 H807 0.984 . S
N801 C794 1.356 . S
N801 H804 0.984 . S
N801 H805 0.985 . S
H802 N797 0.984 . S
H803 N797 0.985 . S
H804 N801 0.984 . S
H805 N801 0.985 . S
H806 N800 0.984 . S
H807 N800 0.984 . S
H808 N796 0.984 . S
H809 N796 0.985 . S
C810 C811 1.363 . S
C810 C816 1.379 1_554 S
C810 N818 1.356 . S
C811 C810 1.363 . S
C811 C817 1.363 1_565 S
C812 C813 1.363 . S
C812 C817 1.379 1_556 S
C812 N819 1.356 . S
C813 C812 1.363 . S
C813 C816 1.363 1_545 S
N814 C816 1.356 . S
N814 H826 0.984 . S
N814 H827 0.985 . S
N815 C817 1.356 . S
N815 H820 0.984 . S
N815 H821 0.985 . S
C816 C810 1.379 1_556 S
C816 C813 1.363 1_565 S
C816 N814 1.356 . S
C817 C811 1.363 1_545 S
C817 C812 1.379 1_554 S
C817 N815 1.356 . S
N818 C810 1.356 . S
N818 H824 0.984 . S
N818 H825 0.984 . S
N819 C812 1.356 . S
N819 H822 0.984 . S
N819 H823 0.985 . S
H820 N815 0.984 . S
H821 N815 0.985 . S
H822 N819 0.984 . S
H823 N819 0.985 . S
H824 N818 0.984 . S
H825 N818 0.984 . S
H826 N814 0.984 . S
H827 N814 0.985 . S
C828 C829 1.363 1_554 S
C828 C834 1.379 1_655 S
C828 N836 1.356 . S
C829 C828 1.363 1_556 S
C829 C835 1.363 . S
C830 C831 1.363 1_556 S
C830 C835 1.379 1_455 S
C830 N837 1.356 . S
C831 C830 1.363 1_554 S
C831 C834 1.363 . S
N832 C834 1.356 . S
N832 H844 0.984 . S
N832 H845 0.985 . S
N833 C835 1.356 . S
N833 H838 0.984 . S
N833 H839 0.985 . S
C834 C828 1.379 1_455 S
C834 C831 1.363 . S
C834 N832 1.356 . S
C835 C829 1.363 . S
C835 C830 1.379 1_655 S
C835 N833 1.356 . S
N836 C828 1.356 . S
N836 H842 0.984 . S
N836 H843 0.984 1_554 S
N837 C830 1.356 . S
N837 H840 0.984 1_556 S
N837 H841 0.985 . S
H838 N833 0.984 . S
H839 N833 0.985 . S
H840 N837 0.984 1_554 S
H841 N837 0.985 . S
H842 N836 0.984 . S
H843 N836 0.984 1_556 S
H844 N832 0.984 . S
H845 N832 0.985 . S
C846 C847 1.363 . S
C846 C852 1.379 1_455 S
C846 N854 1.356 . S
C847 C846 1.363 . S
C847 C853 1.363 1_556 S
C848 C849 1.363 . S
C848 C853 1.379 1_655 S
C848 N855 1.356 . S
C849 C848 1.363 . S
C849 C852 1.363 1_554 S
N850 C852 1.356 . S
N850 H862 0.984 . S
N850 H863 0.985 1_556 S
N851 C853 1.356 . S
N851 H856 0.984 1_554 S
N851 H857 0.985 . S
C852 C846 1.379 1_655 S
C852 C849 1.363 1_556 S
C852 N850 1.356 . S
C853 C847 1.363 1_554 S
C853 C848 1.379 1_455 S
C853 N851 1.356 . S
N854 C846 1.356 . S
N854 H860 0.984 . S
N854 H861 0.984 . S
N855 C848 1.356 . S
N855 H858 0.984 . S
N855 H859 0.985 . S
H856 N851 0.984 1_556 S
H857 N851 0.985 . S
H858 N855 0.984 . S
H859 N855 0.985 . S
H860 N854 0.984 . S
H861 N854 0.984 . S
H862 N850 0.984 . S
H863 N850 0.985 1_554 S
C433 C112 1.184 . S
C435 C4 1.184 . S
C451 C76 1.184 . S
C453 C40 1.184 . S
C469 C184 1.184 . S
C471 C148 1.184 . S
C487 C220 1.184 . S
C489 C256 1.184 . S
C505 C328 1.184 . S
C507 C292 1.184 . S
C523 C364 1.184 . S
C525 C400 1.184 . S
C541 C3 1.142 . S
C543 C254 1.089 . S
C559 C218 1.089 . S
C561 C39 1.142 . S
C577 C182 1.089 . S
C579 C75 1.142 . S
C595 C146 1.089 . S
C597 C111 1.142 . S
C613 C147 1.142 . S
C615 C398 1.089 . S
C631 C290 1.089 . S
C633 C183 1.142 . S
C649 C362 1.089 . S
C651 C219 1.142 . S
C667 C255 1.142 . S
C669 C326 1.089 . S
C685 C74 1.089 . S
C687 C291 1.142 . S
C703 C2 1.089 . S
C705 C327 1.142 . S
C721 C363 1.142 . S
C723 C38 1.089 . S
C739 C110 1.089 . S
C741 C399 1.142 . S
C757 C14 1.238 . S
C759 C50 1.238 . S
C775 C122 1.238 . S
C777 C86 1.238 . S
C793 C230 1.238 . S
C795 C158 1.238 . S
C811 C194 1.238 . S
C813 C266 1.238 . S
C829 C374 1.238 . S
C831 C302 1.238 . S
C847 C338 1.238 . S
C849 C410 1.238 . S
