# Generated by pormake.
# Topology crb, (4)-cn, num edge types: 1
# Building blocks:
#     Node 0, Type 0, BuildingBlock: CEKHIL_clean_sbu_0, # of connection points: 4
#     Node 1, Type 0, BuildingBlock: CEKHIL_clean_sbu_0, # of connection points: 4
#     Node 2, Type 0, BuildingBlock: CEKHIL_clean_sbu_0, # of connection points: 4
#     Node 3, Type 0, BuildingBlock: CEKHIL_clean_sbu_0, # of connection points: 4
#     Node 4, Type 0, BuildingBlock: CEKHIL_clean_sbu_0, # of connection points: 4
#     Node 5, Type 0, BuildingBlock: CEKHIL_clean_sbu_0, # of connection points: 4
#     Node 6, Type 0, BuildingBlock: CEKHIL_clean_sbu_0, # of connection points: 4
#     Node 7, Type 0, BuildingBlock: CEKHIL_clean_sbu_0, # of connection points: 4
#     Edge 8, Type (0, 0), BuildingBlock: KIFKEQ_clean_linker_1, # of connection points: 2
#     Edge 9, Type (0, 0), BuildingBlock: KIFKEQ_clean_linker_1, # of connection points: 2
#     Edge 10, Type (0, 0), BuildingBlock: KIFKEQ_clean_linker_1, # of connection points: 2
#     Edge 11, Type (0, 0), BuildingBlock: KIFKEQ_clean_linker_1, # of connection points: 2
#     Edge 12, Type (0, 0), BuildingBlock: KIFKEQ_clean_linker_1, # of connection points: 2
#     Edge 13, Type (0, 0), BuildingBlock: KIFKEQ_clean_linker_1, # of connection points: 2
#     Edge 14, Type (0, 0), BuildingBlock: KIFKEQ_clean_linker_1, # of connection points: 2
#     Edge 15, Type (0, 0), BuildingBlock: KIFKEQ_clean_linker_1, # of connection points: 2
#     Edge 16, Type (0, 0), BuildingBlock: KIFKEQ_clean_linker_1, # of connection points: 2
#     Edge 17, Type (0, 0), BuildingBlock: KIFKEQ_clean_linker_1, # of connection points: 2
#     Edge 18, Type (0, 0), BuildingBlock: KIFKEQ_clean_linker_1, # of connection points: 2
#     Edge 19, Type (0, 0), BuildingBlock: KIFKEQ_clean_linker_1, # of connection points: 2
#     Edge 20, Type (0, 0), BuildingBlock: KIFKEQ_clean_linker_1, # of connection points: 2
#     Edge 21, Type (0, 0), BuildingBlock: KIFKEQ_clean_linker_1, # of connection points: 2
#     Edge 22, Type (0, 0), BuildingBlock: KIFKEQ_clean_linker_1, # of connection points: 2
#     Edge 23, Type (0, 0), BuildingBlock: KIFKEQ_clean_linker_1, # of connection points: 2
# Relax obj value: 0.118
# Max RMSD: 0.159
# Mean RMSD: 0.159
data_MOF--net-crb--node1-CEKHIL_clean_sbu_0--edge1-KIFKEQ_clean_linker_1
_symmetry_space_group_name_H-M    P1
_symmetry_Int_Tables_number       1
_symmetry_cell_setting            triclinic
loop_
_symmetry_equiv_pos_as_xyz
'x, y, z'
_cell_length_a     44.459832
_cell_length_b     43.415173
_cell_length_c     23.112314
_cell_angle_alpha  90.020798
_cell_angle_beta   90.072628
_cell_angle_gamma 89.989538
loop_
_atom_site_label
_atom_site_type_symbol
_atom_site_fract_x
_atom_site_fract_y
_atom_site_fract_z
_atom_type_partial_charge
Co0 Co 0.33233 0.33567 0.01886 0.0
O1 O 0.2927 0.33013 0.05325 0.0
O2 O 0.33309 0.30263 0.07417 0.0
C3 C 0.33374 0.38748 0.02735 0.0
O4 O 0.37717 0.33463 1.00028 0.0
Co5 Co 0.34741 0.37308 0.90881 0.0
O6 O 0.38962 0.37119 0.93624 0.0
C7 C 0.32007 0.31106 0.89741 0.0
C8 C 0.30508 0.30872 0.08474 0.0
C9 C 0.3969 0.35097 0.97356 0.0
O10 O 0.32176 0.30655 0.95263 0.0
O11 O 0.3278 0.33628 0.87294 0.0
O12 O 0.33994 0.37005 0.07153 0.0
O13 O 0.32518 0.37331 0.98108 0.0
Co14 Co 0.68067 0.33662 0.05228 0.0
O15 O 0.72124 0.33217 0.02227 0.0
O16 O 0.68212 0.30428 0.99511 0.0
C17 C 0.67875 0.38851 0.04568 0.0
O18 O 0.63535 0.33493 0.06659 0.0
Co19 Co 0.66292 0.37276 0.16274 0.0
O20 O 0.62143 0.37041 0.13189 0.0
C21 C 0.69089 0.31104 0.17371 0.0
C22 C 0.71032 0.31106 0.98822 0.0
C23 C 0.61502 0.35071 0.09298 0.0
O24 O 0.68999 0.30692 0.11829 0.0
O25 O 0.68261 0.33601 0.19845 0.0
O26 O 0.67395 0.37149 1.00031 0.0
O27 O 0.68639 0.37394 0.09208 0.0
Co28 Co 0.68024 0.67208 0.02838 0.0
O29 O 0.72046 0.67584 0.06053 0.0
O30 O 0.68193 0.70567 0.083 0.0
C31 C 0.67692 0.62039 0.03882 0.0
O32 O 0.63523 0.67492 1.01084 0.0
Co33 Co 0.66319 0.63367 0.91993 0.0
O34 O 0.62105 0.63965 0.94523 0.0
C35 C 0.69828 0.69137 0.90789 0.0
C36 C 0.70978 0.69809 0.09215 0.0
C37 C 0.61476 0.66005 0.9829 0.0
O38 O 0.69187 0.69956 0.96029 0.0
O39 O 0.69113 0.66508 0.88686 0.0
O40 O 0.67169 0.63841 0.08264 0.0
O41 O 0.68543 0.63392 0.99204 0.0
Co42 Co 0.33066 0.67099 0.04922 0.0
O43 O 0.29043 0.67442 0.01698 0.0
O44 O 0.3287 0.70463 0.99477 0.0
C45 C 0.33449 0.61935 0.03842 0.0
O46 O 0.37563 0.67421 0.06686 0.0
Co47 Co 0.34793 0.63265 0.15753 0.0
O48 O 0.39003 0.63894 0.13225 0.0
C49 C 0.31239 0.69006 0.1698 0.0
C50 C 0.30094 0.69678 0.98549 0.0
C51 C 0.39619 0.65943 0.0947 0.0
O52 O 0.31875 0.69831 0.11741 0.0
O53 O 0.31975 0.66383 0.19077 0.0
O54 O 0.33956 0.6375 0.99476 0.0
O55 O 0.3258 0.63271 0.08529 0.0
Co56 Co 0.83091 0.83771 0.52686 0.0
O57 O 0.79128 0.83151 0.56075 0.0
O58 O 0.83199 0.80454 0.58184 0.0
C59 C 0.8315 0.88952 0.53597 0.0
O60 O 0.87583 0.83742 0.50878 0.0
Co61 Co 0.8457 0.8756 0.41732 0.0
O62 O 0.88791 0.87417 0.44484 0.0
C63 C 0.81914 0.81328 0.40503 0.0
C64 C 0.80387 0.81022 0.5922 0.0
C65 C 0.89539 0.85404 0.48219 0.0
O66 O 0.82089 0.80863 0.46022 0.0
O67 O 0.82655 0.83869 0.38088 0.0
O68 O 0.83788 0.87204 0.57999 0.0
O69 O 0.8233 0.87536 0.48943 0.0
Co70 Co 0.17888 0.83574 0.55112 0.0
O71 O 0.21848 0.82973 0.51699 0.0
O72 O 0.17785 0.80266 0.49584 0.0
C73 C 0.17799 0.88754 0.54249 0.0
O74 O 0.13397 0.83536 0.56947 0.0
Co75 Co 0.16431 0.87343 0.66121 0.0
O76 O 0.12217 0.87234 0.63324 0.0
C77 C 0.19093 0.8111 0.67269 0.0
C78 C 0.20595 0.80844 0.48544 0.0
C79 C 0.11455 0.85224 0.59592 0.0
O80 O 0.18908 0.80657 0.61748 0.0
O81 O 0.18353 0.83644 0.69715 0.0
O82 O 0.17169 0.87013 0.49831 0.0
O83 O 0.18642 0.87334 0.5888 0.0
Co84 Co 0.18055 0.17103 0.52045 0.0
O85 O 0.22076 0.17463 0.5526 0.0
O86 O 0.18237 0.20469 0.57489 0.0
C87 C 0.17697 0.1194 0.53129 0.0
O88 O 0.13557 0.17404 0.5029 0.0
Co89 Co 0.16336 0.13256 0.41221 0.0
O90 O 0.12128 0.13849 0.43792 0.0
C91 C 0.19858 0.19017 0.39981 0.0
C92 C 0.21017 0.19694 0.58414 0.0
C93 C 0.11505 0.15902 0.47538 0.0
O94 O 0.19229 0.19837 0.45225 0.0
O95 O 0.19129 0.16391 0.37882 0.0
O96 O 0.17183 0.13755 0.57495 0.0
O97 O 0.18556 0.13275 0.48438 0.0
Co98 Co 0.83129 0.17361 0.55228 0.0
O99 O 0.79067 0.17799 0.52231 0.0
O100 O 0.82966 0.20612 0.49551 0.0
C101 C 0.83313 0.12172 0.54488 0.0
O102 O 0.87664 0.17548 0.56664 0.0
Co103 Co 0.84936 0.13722 0.66208 0.0
O104 O 0.89094 0.14028 0.63212 0.0
C105 C 0.82099 0.19871 0.674 0.0
C106 C 0.80149 0.19921 0.48847 0.0
C107 C 0.89715 0.16008 0.59334 0.0
O108 O 0.82191 0.20307 0.61866 0.0
O109 O 0.82938 0.17366 0.69835 0.0
O110 O 0.83799 0.13892 0.49982 0.0
O111 O 0.82567 0.13613 0.59156 0.0
H112 H 0.32018 0.42798 0.94137 0.0
H113 H 0.35617 0.42342 0.11481 0.0
H114 H 0.32393 0.48385 0.94333 0.0
H115 H 0.3608 0.47949 0.11628 0.0
H116 H 0.35326 0.58376 0.94694 0.0
H117 H 0.35721 0.52752 0.94382 0.0
H118 H 0.32777 0.52279 0.12176 0.0
H119 H 0.32468 0.57852 0.12521 0.0
C120 C 0.32922 0.43892 0.97976 0.0
C121 C 0.33764 0.42131 0.02817 0.0
C122 C 0.33162 0.47099 0.98068 0.0
C123 C 0.34262 0.48627 0.02997 0.0
C124 C 0.3518 0.46853 0.07789 0.0
C125 C 0.34926 0.43639 0.07704 0.0
C126 C 0.34794 0.57063 0.98542 0.0
C127 C 0.33857 0.58556 0.03619 0.0
C128 C 0.35003 0.53843 0.98363 0.0
C129 C 0.34275 0.52056 0.03255 0.0
C130 C 0.33402 0.53571 0.08356 0.0
C131 C 0.33202 0.56775 0.08536 0.0
H132 H 0.42049 0.32381 0.07016 0.0
H133 H 0.44631 0.36921 0.91142 0.0
H134 H 0.47329 0.32072 0.09886 0.0
H135 H 0.49917 0.36574 0.94012 0.0
H136 H 0.59266 0.32733 0.99168 0.0
H137 H 0.53997 0.3245 0.96128 0.0
H138 H 0.51245 0.3621 0.12577 0.0
H139 H 0.56501 0.36532 0.15606 0.0
C140 C 0.43742 0.33277 0.04101 0.0
C141 C 0.42913 0.34683 0.9885 0.0
C142 C 0.46763 0.33113 0.05767 0.0
C143 C 0.49029 0.34304 0.02179 0.0
C144 C 0.48217 0.35618 0.96844 0.0
C145 C 0.45189 0.35829 0.95217 0.0
C146 C 0.57535 0.33469 0.02161 0.0
C147 C 0.58304 0.34659 0.0763 0.0
C148 C 0.54524 0.33324 1.00401 0.0
C149 C 0.52216 0.34311 0.04114 0.0
C150 C 0.52977 0.35413 0.09642 0.0
C151 C 0.55987 0.35609 0.11363 0.0
H152 H 0.65718 0.42489 0.95823 0.0
H153 H 0.6908 0.42845 0.13349 0.0
H154 H 0.65224 0.48091 0.95792 0.0
H155 H 0.68684 0.48433 0.13268 0.0
H156 H 0.68791 0.57988 0.95207 0.0
H157 H 0.68507 0.52416 0.95467 0.0
H158 H 0.65385 0.52813 0.13157 0.0
H159 H 0.6576 0.58441 0.12936 0.0
C160 C 0.66351 0.43764 0.99665 0.0
C161 C 0.67457 0.4223 0.04568 0.0
C162 C 0.66081 0.46976 0.99647 0.0
C163 C 0.66931 0.48723 0.0452 0.0
C164 C 0.67969 0.47169 0.09468 0.0
C165 C 0.68221 0.43961 0.09495 0.0
C166 C 0.68024 0.56895 0.99152 0.0
C167 C 0.67312 0.58656 0.04066 0.0
C168 C 0.67838 0.53691 0.99282 0.0
C169 C 0.66918 0.52153 0.04326 0.0
C170 C 0.66138 0.5392 0.09219 0.0
C171 C 0.66337 0.57142 0.09092 0.0
H172 H 0.41918 0.68606 0.99687 0.0
H173 H 0.44588 0.64539 0.15965 0.0
H174 H 0.47205 0.69053 0.96904 0.0
H175 H 0.49864 0.65016 0.13187 0.0
H176 H 0.59162 0.68651 0.08079 0.0
H177 H 0.53872 0.6907 0.10861 0.0
H178 H 0.51237 0.65022 0.94569 0.0
H179 H 0.56516 0.64573 0.91792 0.0
C180 C 0.43629 0.67852 0.02711 0.0
C181 C 0.42826 0.66526 0.08045 0.0
C182 C 0.46655 0.68093 0.01097 0.0
C183 C 0.48946 0.67063 0.04821 0.0
C184 C 0.4815 0.65851 0.10245 0.0
C185 C 0.45125 0.65565 0.11821 0.0
C186 C 0.57455 0.67889 0.05053 0.0
C187 C 0.58266 0.66568 0.99718 0.0
C188 C 0.54427 0.68113 0.06666 0.0
C189 C 0.52143 0.67071 0.0294 0.0
C190 C 0.52946 0.65865 0.97513 0.0
C191 C 0.55973 0.65595 0.95938 0.0
H192 H 0.81766 0.93001 0.45022 0.0
H193 H 0.8526 0.92563 0.62447 0.0
H194 H 0.82075 0.98588 0.45254 0.0
H195 H 0.85655 0.98178 0.62633 0.0
H196 H 0.82186 0.08169 0.63275 0.0
H197 H 0.824 0.02575 0.63057 0.0
H198 H 0.85445 0.02893 0.45313 0.0
H199 H 0.85142 0.08513 0.45494 0.0
C200 C 0.8263 0.941 0.4889 0.0
C201 C 0.83473 0.92342 0.53732 0.0
C202 C 0.82831 0.97309 0.49005 0.0
C203 C 0.83892 0.98843 0.53959 0.0
C204 C 0.84788 0.97076 0.58773 0.0
C205 C 0.84575 0.93858 0.58664 0.0
C206 C 0.82916 0.07048 0.59332 0.0
C207 C 0.83629 0.08781 0.54387 0.0
C208 C 0.83061 0.03835 0.59221 0.0
C209 C 0.83935 0.02273 0.54167 0.0
C210 C 0.84718 0.04017 0.49255 0.0
C211 C 0.84561 0.07237 0.49361 0.0
H212 H 0.06557 0.86982 0.65973 0.0
H213 H 0.09046 0.82762 0.49733 0.0
H214 H 0.01258 0.86746 0.63152 0.0
H215 H 0.03748 0.82573 0.46901 0.0
H216 H 0.94457 0.87133 0.41859 0.0
H217 H 0.99755 0.86803 0.44659 0.0
H218 H 0.97219 0.82588 0.60838 0.0
H219 H 0.91924 0.82872 0.5803 0.0
C220 C 0.05974 0.85987 0.61822 0.0
C221 C 0.08226 0.84888 0.58083 0.0
C222 C 0.02941 0.85843 0.60219 0.0
C223 C 0.02096 0.84649 0.54803 0.0
C224 C 0.04339 0.83521 0.51088 0.0
C225 C 0.07368 0.83612 0.52731 0.0
C226 C 0.95029 0.86111 0.45991 0.0
C227 C 0.92766 0.85028 0.49717 0.0
C228 C 0.98063 0.85911 0.4758 0.0
C229 C 0.98894 0.84677 0.52971 0.0
C230 C 0.96639 0.83566 0.56672 0.0
C231 C 0.9361 0.83713 0.55042 0.0
H232 H 0.15835 0.08383 0.62285 0.0
H233 H 0.18693 0.07853 0.44456 0.0
H234 H 0.15458 0.02758 0.62604 0.0
H235 H 0.18401 0.0228 0.44809 0.0
H236 H 0.19174 0.92805 0.6284 0.0
H237 H 0.18799 0.98394 0.62645 0.0
H238 H 0.15094 0.97952 0.45365 0.0
H239 H 0.15556 0.92346 0.4551 0.0
C240 C 0.16372 0.07068 0.58438 0.0
C241 C 0.17302 0.08559 0.53358 0.0
C242 C 0.16172 0.03848 0.58622 0.0
C243 C 0.16903 0.0206 0.5373 0.0
C244 C 0.17772 0.03573 0.48628 0.0
C245 C 0.17963 0.06778 0.48443 0.0
C246 C 0.18267 0.93899 0.59004 0.0
C247 C 0.17419 0.92138 0.54166 0.0
C248 C 0.18027 0.97107 0.58914 0.0
C249 C 0.16921 0.98632 0.53988 0.0
C250 C 0.15999 0.96857 0.492 0.0
C251 C 0.16253 0.93644 0.49283 0.0
H252 H 0.94728 0.1452 0.65622 0.0
H253 H 0.91948 0.18518 0.49353 0.0
H254 H 0.99982 0.14924 0.62656 0.0
H255 H 0.97215 0.18891 0.46379 0.0
H256 H 0.0652 0.1441 0.41152 0.0
H257 H 0.01251 0.14846 0.44023 0.0
H258 H 0.03951 0.18998 0.60182 0.0
H259 H 0.09227 0.18593 0.57309 0.0
C260 C 0.95237 0.15507 0.61433 0.0
C261 C 0.92914 0.16481 0.57722 0.0
C262 C 0.98248 0.15754 0.5975 0.0
C263 C 0.99007 0.16935 0.54283 0.0
C264 C 0.96693 0.17957 0.50606 0.0
C265 C 0.9368 0.17758 0.52327 0.0
C266 C 0.05992 0.15452 0.45287 0.0
C267 C 0.08299 0.16459 0.49005 0.0
C268 C 0.02972 0.15714 0.46917 0.0
C269 C 0.02192 0.16945 0.52336 0.0
C270 C 0.0449 0.18021 0.55996 0.0
C271 C 0.07509 0.17805 0.5433 0.0
H272 H 0.23786 0.17203 0.31819 0.0
H273 H 0.19819 0.25405 0.39131 0.0
H274 H 0.26284 0.2026 0.24528 0.0
H275 H 0.22394 0.28533 0.31715 0.0
H276 H 0.24719 0.31817 0.12423 0.0
H277 H 0.22242 0.29262 0.20625 0.0
H278 H 0.30326 0.24021 0.23834 0.0
H279 H 0.32757 0.26498 0.15677 0.0
C280 C 0.23467 0.19678 0.319 0.0
C281 C 0.21592 0.21058 0.36056 0.0
C282 C 0.24919 0.21436 0.2772 0.0
C283 C 0.24547 0.24644 0.27528 0.0
C284 C 0.22709 0.26059 0.31732 0.0
C285 C 0.21263 0.2428 0.36007 0.0
C286 C 0.25955 0.30109 0.14876 0.0
C287 C 0.28921 0.29329 0.13331 0.0
C288 C 0.24549 0.28675 0.19612 0.0
C289 C 0.26082 0.26428 0.22872 0.0
C290 C 0.29064 0.25708 0.21376 0.0
C291 C 0.30458 0.2713 0.16677 0.0
H292 H 0.73976 0.27336 0.15647 0.0
H293 H 0.67034 0.29557 0.27992 0.0
H294 H 0.76566 0.24256 0.23053 0.0
H295 H 0.69591 0.26504 0.35335 0.0
H296 H 0.7413 0.19196 0.46547 0.0
H297 H 0.71272 0.21311 0.38401 0.0
H298 H 0.79293 0.25797 0.32117 0.0
H299 H 0.82141 0.23693 0.40224 0.0
C300 C 0.72961 0.2709 0.1988 0.0
C301 C 0.7031 0.28689 0.21248 0.0
C302 C 0.74457 0.25361 0.24141 0.0
C303 C 0.733 0.25162 0.29808 0.0
C304 C 0.70539 0.26591 0.31024 0.0
C305 C 0.69076 0.28347 0.26812 0.0
C306 C 0.75278 0.20641 0.43436 0.0
C307 C 0.78358 0.21297 0.44071 0.0
C308 C 0.73644 0.21846 0.3876 0.0
C309 C 0.75059 0.23703 0.34577 0.0
C310 C 0.78144 0.24333 0.35198 0.0
C311 C 0.79768 0.23157 0.39895 0.0
H312 H 0.83904 0.79893 0.29774 0.0
H313 H 0.77119 0.77449 0.42286 0.0
H314 H 0.81383 0.76768 0.22477 0.0
H315 H 0.74556 0.74315 0.34917 0.0
H316 H 0.68932 0.73626 0.17729 0.0
H317 H 0.71753 0.75842 0.25777 0.0
H318 H 0.79835 0.71419 0.19624 0.0
H319 H 0.77002 0.69175 0.11558 0.0
C320 C 0.81904 0.78625 0.30995 0.0
C321 C 0.80706 0.78916 0.366 0.0
C322 C 0.80462 0.76829 0.26812 0.0
C323 C 0.77754 0.75315 0.28093 0.0
C324 C 0.76627 0.75481 0.33786 0.0
C325 C 0.78107 0.77244 0.38021 0.0
C326 C 0.71312 0.73126 0.18077 0.0
C327 C 0.72747 0.71242 0.13965 0.0
C328 C 0.72921 0.74368 0.22737 0.0
C329 C 0.76014 0.73789 0.23372 0.0
C330 C 0.77454 0.71911 0.19252 0.0
C331 C 0.75834 0.70633 0.14624 0.0
H332 H 0.26383 0.81768 0.44594 0.0
H333 H 0.18335 0.76466 0.41351 0.0
H334 H 0.2885 0.79213 0.36381 0.0
H335 H 0.20757 0.73986 0.33179 0.0
H336 H 0.27288 0.6718 0.25087 0.0
H337 H 0.24786 0.70223 0.32399 0.0
H338 H 0.28698 0.78505 0.25317 0.0
H339 H 0.31278 0.75391 0.17882 0.0
C340 C 0.25143 0.80062 0.42142 0.0
C341 C 0.22176 0.79289 0.4369 0.0
C342 C 0.26543 0.78628 0.37398 0.0
C343 C 0.25005 0.76387 0.34133 0.0
C344 C 0.22023 0.75669 0.3564 0.0
C345 C 0.20634 0.77093 0.40346 0.0
C346 C 0.2761 0.69654 0.25033 0.0
C347 C 0.29493 0.71041 0.20902 0.0
C348 C 0.26155 0.71405 0.29225 0.0
C349 C 0.26534 0.7461 0.29455 0.0
C350 C 0.28378 0.76033 0.25271 0.0
C351 C 0.29827 0.74262 0.20985 0.0
H352 H 0.17082 0.79609 0.77945 0.0
H353 H 0.23934 0.77293 0.65479 0.0
H354 H 0.19624 0.76499 0.85235 0.0
H355 H 0.26519 0.74174 0.72841 0.0
H356 H 0.32108 0.73534 0.90074 0.0
H357 H 0.29276 0.7572 0.82012 0.0
H358 H 0.21241 0.71176 0.8807 0.0
H359 H 0.24084 0.68965 0.9615 0.0
C360 C 0.19101 0.7837 0.7673 0.0
C361 C 0.20311 0.78693 0.71143 0.0
C362 C 0.20555 0.76583 0.8091 0.0
C363 C 0.23288 0.75112 0.79642 0.0
C364 C 0.24428 0.75307 0.73962 0.0
C365 C 0.22936 0.7706 0.6973 0.0
C366 C 0.29735 0.73002 0.89702 0.0
C367 C 0.28317 0.71095 0.93793 0.0
C368 C 0.28121 0.74226 0.85034 0.0
C369 C 0.25038 0.73604 0.84368 0.0
C370 C 0.23614 0.71702 0.88466 0.0
C371 C 0.2524 0.70443 0.93103 0.0
H372 H 0.34027 0.29579 0.79086 0.0
H373 H 0.27133 0.27329 0.91506 0.0
H374 H 0.31482 0.26477 0.71789 0.0
H375 H 0.24546 0.24215 0.84136 0.0
H376 H 0.18995 0.23569 0.66861 0.0
H377 H 0.21816 0.25751 0.74941 0.0
H378 H 0.29849 0.21169 0.6896 0.0
H379 H 0.27017 0.18964 0.6086 0.0
C380 C 0.31997 0.28357 0.80289 0.0
C381 C 0.30776 0.28696 0.85864 0.0
C382 C 0.30541 0.26574 0.76106 0.0
C383 C 0.27797 0.25122 0.77358 0.0
C384 C 0.26645 0.25334 0.83027 0.0
C385 C 0.28138 0.27084 0.87263 0.0
C386 C 0.21365 0.23028 0.67253 0.0
C387 C 0.22787 0.21112 0.63177 0.0
C388 C 0.22972 0.2425 0.71932 0.0
C389 C 0.26052 0.23616 0.72625 0.0
C390 C 0.27479 0.21705 0.68543 0.0
C391 C 0.2586 0.20449 0.63894 0.0
H392 H 0.77066 0.31761 0.9661 0.0
H393 H 0.69018 0.27377 0.90135 0.0
H394 H 0.79922 0.29614 0.88502 0.0
H395 H 0.71864 0.25242 0.82064 0.0
H396 H 0.77239 0.23679 0.65651 0.0
H397 H 0.74646 0.26759 0.73047 0.0
H398 H 0.81544 0.24394 0.85444 0.0
H399 H 0.84102 0.2134 0.78113 0.0
C400 C 0.75908 0.30335 0.93472 0.0
C401 C 0.72819 0.2972 0.94055 0.0
C402 C 0.77542 0.29111 0.88818 0.0
C403 C 0.76117 0.27275 0.84604 0.0
C404 C 0.73022 0.26688 0.85171 0.0
C405 C 0.71399 0.27882 0.89846 0.0
C406 C 0.78236 0.23896 0.69911 0.0
C407 C 0.80867 0.22266 0.71309 0.0
C408 C 0.76738 0.25626 0.74165 0.0
C409 C 0.77874 0.25797 0.79858 0.0
C410 C 0.80613 0.2433 0.81112 0.0
C411 C 0.82076 0.22572 0.76908 0.0
H412 H 0.73804 0.67336 0.82709 0.0
H413 H 0.69731 0.7552 0.8987 0.0
H414 H 0.76279 0.7039 0.75387 0.0
H415 H 0.72286 0.78647 0.82427 0.0
H416 H 0.74588 0.81905 0.63148 0.0
H417 H 0.72137 0.7934 0.71365 0.0
H418 H 0.8027 0.74183 0.74599 0.0
H419 H 0.82675 0.76669 0.66422 0.0
C420 C 0.73459 0.69807 0.82752 0.0
C421 C 0.7156 0.71183 0.86872 0.0
C422 C 0.74898 0.71564 0.78554 0.0
C423 C 0.74489 0.74766 0.7831 0.0
C424 C 0.7263 0.76178 0.82484 0.0
C425 C 0.71195 0.744 0.86775 0.0
C426 C 0.7584 0.80212 0.65608 0.0
C427 C 0.78813 0.79459 0.64067 0.0
C428 C 0.74449 0.78772 0.70353 0.0
C429 C 0.76004 0.76548 0.73628 0.0
C430 C 0.78991 0.75852 0.72129 0.0
C431 C 0.80371 0.77279 0.6742 0.0
loop_
_geom_bond_atom_site_label_1
_geom_bond_atom_site_label_2
_geom_bond_distance
_geom_bond_site_symmetry_2
_ccdc_geom_bond_type
Co0 O1 2.216 . S
Co0 O2 2.091 . S
Co0 O4 2.004 . S
Co0 O10 2.021 1_554 S
Co0 O12 2.137 . S
Co0 O13 2.244 . S
O1 Co0 2.216 . S
O1 C8 1.247 . S
O2 Co0 2.091 . S
O2 C8 1.261 . S
C3 O12 1.247 . S
C3 O13 1.272 . S
O4 Co0 2.004 . S
O4 C9 1.259 . S
Co5 O6 2.061 . S
Co5 O11 2.052 . S
Co5 O13 2.135 1_556 S
O6 Co5 2.061 . S
O6 C9 1.235 1_556 S
C7 O10 1.238 . S
C7 O11 1.241 . S
C8 O1 1.247 . S
C8 O2 1.261 . S
C9 O4 1.259 . S
C9 O6 1.235 1_554 S
O10 Co0 2.021 1_556 S
O10 C7 1.238 . S
O11 Co5 2.052 . S
O11 C7 1.241 . S
O12 Co0 2.137 . S
O12 C3 1.247 . S
O13 Co0 2.244 . S
O13 C3 1.272 . S
O13 Co5 2.135 1_554 S
Co14 O15 2.216 . S
Co14 O16 2.091 . S
Co14 O18 2.004 1_556 S
Co14 O24 2.021 1_556 S
Co14 O26 2.137 . S
Co14 O27 2.244 1_556 S
O15 Co14 2.216 . S
O15 C22 1.247 . S
O16 Co14 2.091 . S
O16 C22 1.261 . S
C17 O26 1.256 . S
C17 O27 1.263 1_556 S
O18 Co14 2.004 1_554 S
O18 C23 1.259 . S
Co19 O20 2.061 . S
Co19 O25 2.052 . S
Co19 O27 2.135 . S
O20 Co19 2.061 . S
O20 C23 1.235 . S
C21 O24 1.238 . S
C21 O25 1.241 . S
C22 O15 1.247 . S
C22 O16 1.261 . S
C23 O18 1.259 . S
C23 O20 1.235 . S
O24 Co14 2.021 1_554 S
O24 C21 1.238 . S
O25 Co19 2.052 . S
O25 C21 1.241 . S
O26 Co14 2.137 . S
O26 C17 1.256 . S
O27 Co14 2.244 1_554 S
O27 C17 1.263 1_554 S
O27 Co19 2.135 . S
Co28 O29 2.216 . S
Co28 O30 2.091 . S
Co28 O32 2.004 . S
Co28 O38 2.021 1_554 S
Co28 O40 2.137 . S
Co28 O41 2.244 . S
O29 Co28 2.216 . S
O29 C36 1.247 . S
O30 Co28 2.091 . S
O30 C36 1.261 . S
C31 O40 1.247 . S
C31 O41 1.272 . S
O32 Co28 2.004 . S
O32 C37 1.259 . S
Co33 O34 2.061 . S
Co33 O39 2.052 . S
Co33 O41 2.135 1_556 S
O34 Co33 2.061 . S
O34 C37 1.235 1_556 S
C35 O38 1.238 . S
C35 O39 1.241 . S
C36 O29 1.247 . S
C36 O30 1.261 . S
C37 O32 1.259 . S
C37 O34 1.235 1_554 S
O38 Co28 2.021 1_556 S
O38 C35 1.238 . S
O39 Co33 2.052 . S
O39 C35 1.241 . S
O40 Co28 2.137 . S
O40 C31 1.247 . S
O41 Co28 2.244 . S
O41 C31 1.272 . S
O41 Co33 2.135 1_554 S
Co42 O43 2.216 . S
Co42 O44 2.091 . S
Co42 O46 2.004 1_556 S
Co42 O52 2.021 1_556 S
Co42 O54 2.137 . S
Co42 O55 2.244 1_556 S
O43 Co42 2.216 . S
O43 C50 1.247 . S
O44 Co42 2.091 . S
O44 C50 1.261 . S
C45 O54 1.256 . S
C45 O55 1.263 1_556 S
O46 Co42 2.004 1_554 S
O46 C51 1.259 . S
Co47 O48 2.061 . S
Co47 O53 2.052 . S
Co47 O55 2.135 . S
O48 Co47 2.061 . S
O48 C51 1.235 . S
C49 O52 1.238 . S
C49 O53 1.241 . S
C50 O43 1.247 . S
C50 O44 1.261 . S
C51 O46 1.259 . S
C51 O48 1.235 . S
O52 Co42 2.021 1_554 S
O52 C49 1.238 . S
O53 Co47 2.052 . S
O53 C49 1.241 . S
O54 Co42 2.137 . S
O54 C45 1.256 . S
O55 Co42 2.244 1_554 S
O55 C45 1.263 1_554 S
O55 Co47 2.135 . S
Co56 O57 2.216 . S
Co56 O58 2.091 . S
Co56 O60 2.004 . S
Co56 O66 2.021 . S
Co56 O68 2.137 . S
Co56 O69 2.244 . S
O57 Co56 2.216 . S
O57 C64 1.247 . S
O58 Co56 2.091 . S
O58 C64 1.261 . S
C59 O68 1.247 . S
C59 O69 1.272 . S
O60 Co56 2.004 . S
O60 C65 1.259 . S
Co61 O62 2.061 . S
Co61 O67 2.052 . S
Co61 O69 2.135 . S
O62 Co61 2.061 . S
O62 C65 1.235 . S
C63 O66 1.238 . S
C63 O67 1.241 . S
C64 O57 1.247 . S
C64 O58 1.261 . S
C65 O60 1.259 . S
C65 O62 1.235 . S
O66 Co56 2.021 . S
O66 C63 1.238 . S
O67 Co61 2.052 . S
O67 C63 1.241 . S
O68 Co56 2.137 . S
O68 C59 1.247 . S
O69 Co56 2.244 . S
O69 C59 1.272 . S
O69 Co61 2.135 . S
Co70 O71 2.216 . S
Co70 O72 2.091 . S
Co70 O74 2.004 . S
Co70 O80 2.021 . S
Co70 O82 2.137 . S
Co70 O83 2.244 . S
O71 Co70 2.216 . S
O71 C78 1.247 . S
O72 Co70 2.091 . S
O72 C78 1.261 . S
C73 O82 1.247 . S
C73 O83 1.272 . S
O74 Co70 2.004 . S
O74 C79 1.259 . S
Co75 O76 2.061 . S
Co75 O81 2.052 . S
Co75 O83 2.135 . S
O76 Co75 2.061 . S
O76 C79 1.235 . S
C77 O80 1.238 . S
C77 O81 1.241 . S
C78 O71 1.247 . S
C78 O72 1.261 . S
C79 O74 1.259 . S
C79 O76 1.235 . S
O80 Co70 2.021 . S
O80 C77 1.238 . S
O81 Co75 2.052 . S
O81 C77 1.241 . S
O82 Co70 2.137 . S
O82 C73 1.247 . S
O83 Co70 2.244 . S
O83 C73 1.272 . S
O83 Co75 2.135 . S
Co84 O85 2.216 . S
Co84 O86 2.091 . S
Co84 O88 2.004 . S
Co84 O94 2.021 . S
Co84 O96 2.137 . S
Co84 O97 2.244 . S
O85 Co84 2.216 . S
O85 C92 1.247 . S
O86 Co84 2.091 . S
O86 C92 1.261 . S
C87 O96 1.247 . S
C87 O97 1.272 . S
O88 Co84 2.004 . S
O88 C93 1.259 . S
Co89 O90 2.061 . S
Co89 O95 2.052 . S
Co89 O97 2.135 . S
O90 Co89 2.061 . S
O90 C93 1.235 . S
C91 O94 1.238 . S
C91 O95 1.241 . S
C92 O85 1.247 . S
C92 O86 1.261 . S
C93 O88 1.259 . S
C93 O90 1.235 . S
O94 Co84 2.021 . S
O94 C91 1.238 . S
O95 Co89 2.052 . S
O95 C91 1.241 . S
O96 Co84 2.137 . S
O96 C87 1.247 . S
O97 Co84 2.244 . S
O97 C87 1.272 . S
O97 Co89 2.135 . S
Co98 O99 2.216 . S
Co98 O100 2.091 . S
Co98 O102 2.004 . S
Co98 O108 2.021 . S
Co98 O110 2.137 . S
Co98 O111 2.244 . S
O99 Co98 2.216 . S
O99 C106 1.247 . S
O100 Co98 2.091 . S
O100 C106 1.261 . S
C101 O110 1.247 . S
C101 O111 1.272 . S
O102 Co98 2.004 . S
O102 C107 1.259 . S
Co103 O104 2.061 . S
Co103 O109 2.052 . S
Co103 O111 2.135 . S
O104 Co103 2.061 . S
O104 C107 1.235 . S
C105 O108 1.238 . S
C105 O109 1.241 . S
C106 O99 1.247 . S
C106 O100 1.261 . S
C107 O102 1.259 . S
C107 O104 1.235 . S
O108 Co98 2.021 . S
O108 C105 1.238 . S
O109 Co103 2.052 . S
O109 C105 1.241 . S
O110 Co98 2.137 . S
O110 C101 1.247 . S
O111 Co98 2.244 . S
O111 C101 1.272 . S
O111 Co103 2.135 . S
H112 C120 0.950 . S
H113 C125 0.950 . S
H114 C122 0.950 . S
H115 C124 0.950 . S
H116 C126 0.950 . S
H117 C128 0.950 . S
H118 C130 0.950 . S
H119 C131 0.950 . S
C120 H112 0.950 . S
C120 C121 1.386 . S
C120 C122 1.391 . S
C121 C120 1.386 . S
C121 C125 1.393 . S
C122 H114 0.950 . S
C122 C120 1.391 . S
C122 C123 1.400 . S
C123 C122 1.400 . S
C123 C124 1.398 . S
C123 C129 1.491 . S
C124 H115 0.950 . S
C124 C123 1.398 . S
C124 C125 1.391 . S
C125 H113 0.950 . S
C125 C121 1.393 . S
C125 C124 1.391 . S
C126 H116 0.950 . S
C126 C127 1.386 1_556 S
C126 C128 1.391 1_556 S
C127 C126 1.386 1_554 S
C127 C131 1.393 . S
C128 H117 0.950 . S
C128 C126 1.391 1_554 S
C128 C129 1.400 . S
C129 C123 1.491 . S
C129 C128 1.400 . S
C129 C130 1.398 . S
C130 H118 0.950 . S
C130 C129 1.398 . S
C130 C131 1.391 . S
C131 H119 0.950 . S
C131 C127 1.393 . S
C131 C130 1.391 . S
H132 C140 0.950 . S
H133 C145 0.950 . S
H134 C142 0.950 . S
H135 C144 0.950 . S
H136 C146 0.950 . S
H137 C148 0.950 . S
H138 C150 0.950 . S
H139 C151 0.950 . S
C140 H132 0.950 . S
C140 C141 1.386 . S
C140 C142 1.391 . S
C141 C140 1.386 . S
C141 C145 1.393 1_554 S
C142 H134 0.950 . S
C142 C140 1.391 . S
C142 C143 1.400 . S
C143 C142 1.400 . S
C143 C144 1.398 1_554 S
C143 C149 1.491 . S
C144 H135 0.950 . S
C144 C143 1.398 1_556 S
C144 C145 1.391 . S
C145 H133 0.950 . S
C145 C141 1.393 1_556 S
C145 C144 1.391 . S
C146 H136 0.950 . S
C146 C147 1.386 1_556 S
C146 C148 1.391 . S
C147 C146 1.386 1_554 S
C147 C151 1.393 . S
C148 H137 0.950 . S
C148 C146 1.391 . S
C148 C149 1.400 1_556 S
C149 C143 1.491 . S
C149 C148 1.400 1_554 S
C149 C150 1.398 . S
C150 H138 0.950 . S
C150 C149 1.398 . S
C150 C151 1.391 . S
C151 H139 0.950 . S
C151 C147 1.393 . S
C151 C150 1.391 . S
H152 C160 0.953 . S
H153 C165 0.950 . S
H154 C162 0.950 . S
H155 C164 0.950 . S
H156 C166 0.950 . S
H157 C168 0.950 . S
H158 C170 0.950 . S
H159 C171 0.950 . S
C160 H152 0.953 . S
C160 C161 1.384 1_556 S
C160 C162 1.390 1_556 S
C161 C160 1.384 1_554 S
C161 C165 1.393 . S
C162 H154 0.950 . S
C162 C160 1.390 1_554 S
C162 C163 1.400 . S
C163 C162 1.400 . S
C163 C164 1.398 . S
C163 C169 1.491 . S
C164 H155 0.950 . S
C164 C163 1.398 . S
C164 C165 1.391 . S
C165 H153 0.950 . S
C165 C161 1.393 . S
C165 C164 1.391 . S
C166 H156 0.950 . S
C166 C167 1.386 . S
C166 C168 1.391 . S
C167 C166 1.386 . S
C167 C171 1.393 . S
C168 H157 0.950 . S
C168 C166 1.391 . S
C168 C169 1.400 . S
C169 C163 1.491 . S
C169 C168 1.400 . S
C169 C170 1.398 . S
C170 H158 0.950 . S
C170 C169 1.398 . S
C170 C171 1.391 . S
C171 H159 0.950 . S
C171 C167 1.393 . S
C171 C170 1.391 . S
H172 C180 0.950 1_556 S
H173 C185 0.950 . S
H174 C182 0.950 1_556 S
H175 C184 0.950 . S
H176 C186 0.950 . S
H177 C188 0.950 . S
H178 C190 0.950 . S
H179 C191 0.950 . S
C180 H172 0.950 1_554 S
C180 C181 1.386 . S
C180 C182 1.391 . S
C181 C180 1.386 . S
C181 C185 1.393 . S
C182 H174 0.950 1_554 S
C182 C180 1.391 . S
C182 C183 1.400 . S
C183 C182 1.400 . S
C183 C184 1.398 . S
C183 C189 1.491 . S
C184 H175 0.950 . S
C184 C183 1.398 . S
C184 C185 1.391 . S
C185 H173 0.950 . S
C185 C181 1.393 . S
C185 C184 1.391 . S
C186 H176 0.950 . S
C186 C187 1.386 . S
C186 C188 1.391 . S
C187 C186 1.386 . S
C187 C191 1.393 1_554 S
C188 H177 0.950 . S
C188 C186 1.391 . S
C188 C189 1.400 . S
C189 C183 1.491 . S
C189 C188 1.400 . S
C189 C190 1.398 1_554 S
C190 H178 0.950 . S
C190 C189 1.398 1_556 S
C190 C191 1.391 . S
C191 H179 0.950 . S
C191 C187 1.393 1_556 S
C191 C190 1.391 . S
H192 C200 0.950 . S
H193 C205 0.950 . S
H194 C202 0.950 . S
H195 C204 0.950 . S
H196 C206 0.950 . S
H197 C208 0.950 . S
H198 C210 0.950 . S
H199 C211 0.950 . S
C200 H192 0.950 . S
C200 C201 1.386 . S
C200 C202 1.391 . S
C201 C200 1.386 . S
C201 C205 1.393 . S
C202 H194 0.950 . S
C202 C200 1.391 . S
C202 C203 1.400 . S
C203 C202 1.400 . S
C203 C204 1.398 . S
C203 C209 1.491 1_565 S
C204 H195 0.950 . S
C204 C203 1.398 . S
C204 C205 1.391 . S
C205 H193 0.950 . S
C205 C201 1.393 . S
C205 C204 1.391 . S
C206 H196 0.950 . S
C206 C207 1.386 . S
C206 C208 1.391 . S
C207 C206 1.386 . S
C207 C211 1.393 . S
C208 H197 0.950 . S
C208 C206 1.391 . S
C208 C209 1.400 . S
C209 C203 1.491 1_545 S
C209 C208 1.400 . S
C209 C210 1.398 . S
C210 H198 0.950 . S
C210 C209 1.398 . S
C210 C211 1.391 . S
C211 H199 0.950 . S
C211 C207 1.393 . S
C211 C210 1.391 . S
H212 C220 0.950 . S
H213 C225 0.950 . S
H214 C222 0.950 . S
H215 C224 0.950 . S
H216 C226 0.950 . S
H217 C228 0.950 . S
H218 C230 0.950 . S
H219 C231 0.950 . S
C220 H212 0.950 . S
C220 C221 1.386 . S
C220 C222 1.391 . S
C221 C220 1.386 . S
C221 C225 1.393 . S
C222 H214 0.950 . S
C222 C220 1.391 . S
C222 C223 1.400 . S
C223 C222 1.400 . S
C223 C224 1.398 . S
C223 C229 1.491 1_455 S
C224 H215 0.950 . S
C224 C223 1.398 . S
C224 C225 1.391 . S
C225 H213 0.950 . S
C225 C221 1.393 . S
C225 C224 1.391 . S
C226 H216 0.950 . S
C226 C227 1.386 . S
C226 C228 1.391 . S
C227 C226 1.386 . S
C227 C231 1.393 . S
C228 H217 0.950 . S
C228 C226 1.391 . S
C228 C229 1.400 . S
C229 C223 1.491 1_655 S
C229 C228 1.400 . S
C229 C230 1.398 . S
C230 H218 0.950 . S
C230 C229 1.398 . S
C230 C231 1.391 . S
C231 H219 0.950 . S
C231 C227 1.393 . S
C231 C230 1.391 . S
H232 C240 0.950 . S
H233 C245 0.950 . S
H234 C242 0.950 . S
H235 C244 0.950 . S
H236 C246 0.950 . S
H237 C248 0.950 . S
H238 C250 0.950 . S
H239 C251 0.950 . S
C240 H232 0.950 . S
C240 C241 1.386 . S
C240 C242 1.391 . S
C241 C240 1.386 . S
C241 C245 1.393 . S
C242 H234 0.950 . S
C242 C240 1.391 . S
C242 C243 1.400 . S
C243 C242 1.400 . S
C243 C244 1.398 . S
C243 C249 1.491 1_545 S
C244 H235 0.950 . S
C244 C243 1.398 . S
C244 C245 1.391 . S
C245 H233 0.950 . S
C245 C241 1.393 . S
C245 C244 1.391 . S
C246 H236 0.950 . S
C246 C247 1.386 . S
C246 C248 1.391 . S
C247 C246 1.386 . S
C247 C251 1.393 . S
C248 H237 0.950 . S
C248 C246 1.391 . S
C248 C249 1.400 . S
C249 C243 1.491 1_565 S
C249 C248 1.400 . S
C249 C250 1.398 . S
C250 H238 0.950 . S
C250 C249 1.398 . S
C250 C251 1.391 . S
C251 H239 0.950 . S
C251 C247 1.393 . S
C251 C250 1.391 . S
H252 C260 0.950 . S
H253 C265 0.950 . S
H254 C262 0.950 . S
H255 C264 0.950 . S
H256 C266 0.950 . S
H257 C268 0.950 . S
H258 C270 0.950 . S
H259 C271 0.950 . S
C260 H252 0.950 . S
C260 C261 1.386 . S
C260 C262 1.391 . S
C261 C260 1.386 . S
C261 C265 1.393 . S
C262 H254 0.950 . S
C262 C260 1.391 . S
C262 C263 1.400 . S
C263 C262 1.400 . S
C263 C264 1.398 . S
C263 C269 1.491 1_655 S
C264 H255 0.950 . S
C264 C263 1.398 . S
C264 C265 1.391 . S
C265 H253 0.950 . S
C265 C261 1.393 . S
C265 C264 1.391 . S
C266 H256 0.950 . S
C266 C267 1.386 . S
C266 C268 1.391 . S
C267 C266 1.386 . S
C267 C271 1.393 . S
C268 H257 0.950 . S
C268 C266 1.391 . S
C268 C269 1.400 . S
C269 C263 1.491 1_455 S
C269 C268 1.400 . S
C269 C270 1.398 . S
C270 H258 0.950 . S
C270 C269 1.398 . S
C270 C271 1.391 . S
C271 H259 0.950 . S
C271 C267 1.393 . S
C271 C270 1.391 . S
H272 C280 0.950 . S
H273 C285 0.950 . S
H274 C282 0.950 . S
H275 C284 0.950 . S
H276 C286 0.950 . S
H277 C288 0.950 . S
H278 C290 0.950 . S
H279 C291 0.950 . S
C280 H272 0.950 . S
C280 C281 1.386 . S
C280 C282 1.391 . S
C281 C280 1.386 . S
C281 C285 1.393 . S
C282 H274 0.950 . S
C282 C280 1.391 . S
C282 C283 1.400 . S
C283 C282 1.400 . S
C283 C284 1.398 . S
C283 C289 1.491 . S
C284 H275 0.950 . S
C284 C283 1.398 . S
C284 C285 1.391 . S
C285 H273 0.950 . S
C285 C281 1.393 . S
C285 C284 1.391 . S
C286 H276 0.950 . S
C286 C287 1.386 . S
C286 C288 1.391 . S
C287 C286 1.386 . S
C287 C291 1.393 . S
C288 H277 0.950 . S
C288 C286 1.391 . S
C288 C289 1.400 . S
C289 C283 1.491 . S
C289 C288 1.400 . S
C289 C290 1.398 . S
C290 H278 0.950 . S
C290 C289 1.398 . S
C290 C291 1.391 . S
C291 H279 0.950 . S
C291 C287 1.393 . S
C291 C290 1.391 . S
H292 C300 0.950 . S
H293 C305 0.950 . S
H294 C302 0.950 . S
H295 C304 0.950 . S
H296 C306 0.950 . S
H297 C308 0.950 . S
H298 C310 0.950 . S
H299 C311 0.950 . S
C300 H292 0.950 . S
C300 C301 1.386 . S
C300 C302 1.391 . S
C301 C300 1.386 . S
C301 C305 1.393 . S
C302 H294 0.950 . S
C302 C300 1.391 . S
C302 C303 1.400 . S
C303 C302 1.400 . S
C303 C304 1.398 . S
C303 C309 1.491 . S
C304 H295 0.950 . S
C304 C303 1.398 . S
C304 C305 1.391 . S
C305 H293 0.950 . S
C305 C301 1.393 . S
C305 C304 1.391 . S
C306 H296 0.950 . S
C306 C307 1.386 . S
C306 C308 1.391 . S
C307 C306 1.386 . S
C307 C311 1.393 . S
C308 H297 0.950 . S
C308 C306 1.391 . S
C308 C309 1.400 . S
C309 C303 1.491 . S
C309 C308 1.400 . S
C309 C310 1.398 . S
C310 H298 0.950 . S
C310 C309 1.398 . S
C310 C311 1.391 . S
C311 H299 0.950 . S
C311 C307 1.393 . S
C311 C310 1.391 . S
H312 C320 0.950 . S
H313 C325 0.950 . S
H314 C322 0.950 . S
H315 C324 0.950 . S
H316 C326 0.950 . S
H317 C328 0.950 . S
H318 C330 0.950 . S
H319 C331 0.950 . S
C320 H312 0.950 . S
C320 C321 1.386 . S
C320 C322 1.391 . S
C321 C320 1.386 . S
C321 C325 1.393 . S
C322 H314 0.950 . S
C322 C320 1.391 . S
C322 C323 1.400 . S
C323 C322 1.400 . S
C323 C324 1.398 . S
C323 C329 1.491 . S
C324 H315 0.950 . S
C324 C323 1.398 . S
C324 C325 1.391 . S
C325 H313 0.950 . S
C325 C321 1.393 . S
C325 C324 1.391 . S
C326 H316 0.950 . S
C326 C327 1.386 . S
C326 C328 1.391 . S
C327 C326 1.386 . S
C327 C331 1.393 . S
C328 H317 0.950 . S
C328 C326 1.391 . S
C328 C329 1.400 . S
C329 C323 1.491 . S
C329 C328 1.400 . S
C329 C330 1.398 . S
C330 H318 0.950 . S
C330 C329 1.398 . S
C330 C331 1.391 . S
C331 H319 0.950 . S
C331 C327 1.393 . S
C331 C330 1.391 . S
H332 C340 0.950 . S
H333 C345 0.950 . S
H334 C342 0.950 . S
H335 C344 0.950 . S
H336 C346 0.950 . S
H337 C348 0.950 . S
H338 C350 0.950 . S
H339 C351 0.950 . S
C340 H332 0.950 . S
C340 C341 1.386 . S
C340 C342 1.391 . S
C341 C340 1.386 . S
C341 C345 1.393 . S
C342 H334 0.950 . S
C342 C340 1.391 . S
C342 C343 1.400 . S
C343 C342 1.400 . S
C343 C344 1.398 . S
C343 C349 1.491 . S
C344 H335 0.950 . S
C344 C343 1.398 . S
C344 C345 1.391 . S
C345 H333 0.950 . S
C345 C341 1.393 . S
C345 C344 1.391 . S
C346 H336 0.950 . S
C346 C347 1.386 . S
C346 C348 1.391 . S
C347 C346 1.386 . S
C347 C351 1.393 . S
C348 H337 0.950 . S
C348 C346 1.391 . S
C348 C349 1.400 . S
C349 C343 1.491 . S
C349 C348 1.400 . S
C349 C350 1.398 . S
C350 H338 0.950 . S
C350 C349 1.398 . S
C350 C351 1.391 . S
C351 H339 0.950 . S
C351 C347 1.393 . S
C351 C350 1.391 . S
H352 C360 0.950 . S
H353 C365 0.950 . S
H354 C362 0.950 . S
H355 C364 0.950 . S
H356 C366 0.950 . S
H357 C368 0.950 . S
H358 C370 0.950 . S
H359 C371 0.950 . S
C360 H352 0.950 . S
C360 C361 1.386 . S
C360 C362 1.391 . S
C361 C360 1.386 . S
C361 C365 1.393 . S
C362 H354 0.950 . S
C362 C360 1.391 . S
C362 C363 1.400 . S
C363 C362 1.400 . S
C363 C364 1.398 . S
C363 C369 1.491 . S
C364 H355 0.950 . S
C364 C363 1.398 . S
C364 C365 1.391 . S
C365 H353 0.950 . S
C365 C361 1.393 . S
C365 C364 1.391 . S
C366 H356 0.950 . S
C366 C367 1.386 . S
C366 C368 1.391 . S
C367 C366 1.386 . S
C367 C371 1.393 . S
C368 H357 0.950 . S
C368 C366 1.391 . S
C368 C369 1.400 . S
C369 C363 1.491 . S
C369 C368 1.400 . S
C369 C370 1.398 . S
C370 H358 0.950 . S
C370 C369 1.398 . S
C370 C371 1.391 . S
C371 H359 0.950 . S
C371 C367 1.393 . S
C371 C370 1.391 . S
H372 C380 0.950 . S
H373 C385 0.950 . S
H374 C382 0.950 . S
H375 C384 0.950 . S
H376 C386 0.950 . S
H377 C388 0.950 . S
H378 C390 0.950 . S
H379 C391 0.950 . S
C380 H372 0.950 . S
C380 C381 1.386 . S
C380 C382 1.391 . S
C381 C380 1.386 . S
C381 C385 1.393 . S
C382 H374 0.950 . S
C382 C380 1.391 . S
C382 C383 1.400 . S
C383 C382 1.400 . S
C383 C384 1.398 . S
C383 C389 1.491 . S
C384 H375 0.950 . S
C384 C383 1.398 . S
C384 C385 1.391 . S
C385 H373 0.950 . S
C385 C381 1.393 . S
C385 C384 1.391 . S
C386 H376 0.950 . S
C386 C387 1.386 . S
C386 C388 1.391 . S
C387 C386 1.386 . S
C387 C391 1.393 . S
C388 H377 0.950 . S
C388 C386 1.391 . S
C388 C389 1.400 . S
C389 C383 1.491 . S
C389 C388 1.400 . S
C389 C390 1.398 . S
C390 H378 0.950 . S
C390 C389 1.398 . S
C390 C391 1.391 . S
C391 H379 0.950 . S
C391 C387 1.393 . S
C391 C390 1.391 . S
H392 C400 0.950 . S
H393 C405 0.950 . S
H394 C402 0.950 . S
H395 C404 0.950 . S
H396 C406 0.950 . S
H397 C408 0.950 . S
H398 C410 0.950 . S
H399 C411 0.950 . S
C400 H392 0.950 . S
C400 C401 1.386 . S
C400 C402 1.391 . S
C401 C400 1.386 . S
C401 C405 1.393 . S
C402 H394 0.950 . S
C402 C400 1.391 . S
C402 C403 1.400 . S
C403 C402 1.400 . S
C403 C404 1.398 . S
C403 C409 1.491 . S
C404 H395 0.950 . S
C404 C403 1.398 . S
C404 C405 1.391 . S
C405 H393 0.950 . S
C405 C401 1.393 . S
C405 C404 1.391 . S
C406 H396 0.950 . S
C406 C407 1.386 . S
C406 C408 1.391 . S
C407 C406 1.386 . S
C407 C411 1.393 . S
C408 H397 0.950 . S
C408 C406 1.391 . S
C408 C409 1.400 . S
C409 C403 1.491 . S
C409 C408 1.400 . S
C409 C410 1.398 . S
C410 H398 0.950 . S
C410 C409 1.398 . S
C410 C411 1.391 . S
C411 H399 0.950 . S
C411 C407 1.393 . S
C411 C410 1.391 . S
H412 C420 0.950 . S
H413 C425 0.950 . S
H414 C422 0.950 . S
H415 C424 0.950 . S
H416 C426 0.950 . S
H417 C428 0.950 . S
H418 C430 0.950 . S
H419 C431 0.950 . S
C420 H412 0.950 . S
C420 C421 1.386 . S
C420 C422 1.391 . S
C421 C420 1.386 . S
C421 C425 1.393 . S
C422 H414 0.950 . S
C422 C420 1.391 . S
C422 C423 1.400 . S
C423 C422 1.400 . S
C423 C424 1.398 . S
C423 C429 1.491 . S
C424 H415 0.950 . S
C424 C423 1.398 . S
C424 C425 1.391 . S
C425 H413 0.950 . S
C425 C421 1.393 . S
C425 C424 1.391 . S
C426 H416 0.950 . S
C426 C427 1.386 . S
C426 C428 1.391 . S
C427 C426 1.386 . S
C427 C431 1.393 . S
C428 H417 0.950 . S
C428 C426 1.391 . S
C428 C429 1.400 . S
C429 C423 1.491 . S
C429 C428 1.400 . S
C429 C430 1.398 . S
C430 H418 0.950 . S
C430 C429 1.398 . S
C430 C431 1.391 . S
C431 H419 0.950 . S
C431 C427 1.393 . S
C431 C430 1.391 . S
C121 C3 1.535 . S
C127 C45 1.536 1_554 S
C141 C9 1.541 . S
C147 C23 1.530 . S
C161 C17 1.527 1_554 S
C167 C31 1.529 . S
C181 C51 1.541 . S
C187 C37 1.535 . S
C201 C59 1.531 . S
C207 C101 1.528 . S
C221 C79 1.531 . S
C227 C65 1.540 . S
C241 C87 1.528 . S
C247 C73 1.528 . S
C261 C107 1.530 . S
C267 C93 1.541 . S
C281 C91 1.453 . S
C287 C8 1.492 . S
C301 C21 1.449 . S
C307 C106 1.490 . S
C321 C63 1.468 . S
C327 C36 1.491 . S
C341 C78 1.483 . S
C347 C49 1.461 . S
C361 C77 1.468 . S
C367 C50 1.489 . S
C381 C7 1.466 . S
C387 C92 1.492 . S
C401 C22 1.493 . S
C407 C105 1.463 . S
C421 C35 1.453 . S
C427 C64 1.492 . S
