# Generated by pormake.
# Topology uki, (4)-cn, num edge types: 1
# Building blocks:
#     Node 0, Type 0, BuildingBlock: ICAMEG_clean_sbu_1, # of connection points: 4
#     Node 1, Type 0, BuildingBlock: ICAMEG_clean_sbu_1, # of connection points: 4
#     Node 2, Type 0, BuildingBlock: ICAMEG_clean_sbu_1, # of connection points: 4
#     Node 3, Type 0, BuildingBlock: ICAMEG_clean_sbu_1, # of connection points: 4
#     Node 4, Type 0, BuildingBlock: ICAMEG_clean_sbu_1, # of connection points: 4
#     Node 5, Type 0, BuildingBlock: ICAMEG_clean_sbu_1, # of connection points: 4
#     Node 6, Type 0, BuildingBlock: ICAMEG_clean_sbu_1, # of connection points: 4
#     Node 7, Type 0, BuildingBlock: ICAMEG_clean_sbu_1, # of connection points: 4
#     Node 8, Type 0, BuildingBlock: ICAMEG_clean_sbu_1, # of connection points: 4
#     Node 9, Type 0, BuildingBlock: ICAMEG_clean_sbu_1, # of connection points: 4
#     Node 10, Type 0, BuildingBlock: ICAMEG_clean_sbu_1, # of connection points: 4
#     Node 11, Type 0, BuildingBlock: ICAMEG_clean_sbu_1, # of connection points: 4
#     Node 12, Type 0, BuildingBlock: ICAMEG_clean_sbu_1, # of connection points: 4
#     Node 13, Type 0, BuildingBlock: ICAMEG_clean_sbu_1, # of connection points: 4
#     Node 14, Type 0, BuildingBlock: ICAMEG_clean_sbu_1, # of connection points: 4
#     Node 15, Type 0, BuildingBlock: ICAMEG_clean_sbu_1, # of connection points: 4
#     Edge 16, Type (0, 0), BuildingBlock: KIFKEQ_clean_linker_1, # of connection points: 2
#     Edge 17, Type (0, 0), BuildingBlock: KIFKEQ_clean_linker_1, # of connection points: 2
#     Edge 18, Type (0, 0), BuildingBlock: KIFKEQ_clean_linker_1, # of connection points: 2
#     Edge 19, Type (0, 0), BuildingBlock: KIFKEQ_clean_linker_1, # of connection points: 2
#     Edge 20, Type (0, 0), BuildingBlock: KIFKEQ_clean_linker_1, # of connection points: 2
#     Edge 21, Type (0, 0), BuildingBlock: KIFKEQ_clean_linker_1, # of connection points: 2
#     Edge 22, Type (0, 0), BuildingBlock: KIFKEQ_clean_linker_1, # of connection points: 2
#     Edge 23, Type (0, 0), BuildingBlock: KIFKEQ_clean_linker_1, # of connection points: 2
#     Edge 24, Type (0, 0), BuildingBlock: KIFKEQ_clean_linker_1, # of connection points: 2
#     Edge 25, Type (0, 0), BuildingBlock: KIFKEQ_clean_linker_1, # of connection points: 2
#     Edge 26, Type (0, 0), BuildingBlock: KIFKEQ_clean_linker_1, # of connection points: 2
#     Edge 27, Type (0, 0), BuildingBlock: KIFKEQ_clean_linker_1, # of connection points: 2
#     Edge 28, Type (0, 0), BuildingBlock: KIFKEQ_clean_linker_1, # of connection points: 2
#     Edge 29, Type (0, 0), BuildingBlock: KIFKEQ_clean_linker_1, # of connection points: 2
#     Edge 30, Type (0, 0), BuildingBlock: KIFKEQ_clean_linker_1, # of connection points: 2
#     Edge 31, Type (0, 0), BuildingBlock: KIFKEQ_clean_linker_1, # of connection points: 2
#     Edge 32, Type (0, 0), BuildingBlock: KIFKEQ_clean_linker_1, # of connection points: 2
#     Edge 33, Type (0, 0), BuildingBlock: KIFKEQ_clean_linker_1, # of connection points: 2
#     Edge 34, Type (0, 0), BuildingBlock: KIFKEQ_clean_linker_1, # of connection points: 2
#     Edge 35, Type (0, 0), BuildingBlock: KIFKEQ_clean_linker_1, # of connection points: 2
#     Edge 36, Type (0, 0), BuildingBlock: KIFKEQ_clean_linker_1, # of connection points: 2
#     Edge 37, Type (0, 0), BuildingBlock: KIFKEQ_clean_linker_1, # of connection points: 2
#     Edge 38, Type (0, 0), BuildingBlock: KIFKEQ_clean_linker_1, # of connection points: 2
#     Edge 39, Type (0, 0), BuildingBlock: KIFKEQ_clean_linker_1, # of connection points: 2
#     Edge 40, Type (0, 0), BuildingBlock: KIFKEQ_clean_linker_1, # of connection points: 2
#     Edge 41, Type (0, 0), BuildingBlock: KIFKEQ_clean_linker_1, # of connection points: 2
#     Edge 42, Type (0, 0), BuildingBlock: KIFKEQ_clean_linker_1, # of connection points: 2
#     Edge 43, Type (0, 0), BuildingBlock: KIFKEQ_clean_linker_1, # of connection points: 2
#     Edge 44, Type (0, 0), BuildingBlock: KIFKEQ_clean_linker_1, # of connection points: 2
#     Edge 45, Type (0, 0), BuildingBlock: KIFKEQ_clean_linker_1, # of connection points: 2
#     Edge 46, Type (0, 0), BuildingBlock: KIFKEQ_clean_linker_1, # of connection points: 2
#     Edge 47, Type (0, 0), BuildingBlock: KIFKEQ_clean_linker_1, # of connection points: 2
# Relax obj value: 0.015
# Max RMSD: 0.106
# Mean RMSD: 0.106
data_MOF--net-uki--node1-ICAMEG_clean_sbu_1--edge1-KIFKEQ_clean_linker_1
_symmetry_space_group_name_H-M    P1
_symmetry_Int_Tables_number       1
_symmetry_cell_setting            triclinic
loop_
_symmetry_equiv_pos_as_xyz
'x, y, z'
_cell_length_a     33.761338
_cell_length_b     33.755866
_cell_length_c     79.500208
_cell_angle_alpha  90.004987
_cell_angle_beta   90.000406
_cell_angle_gamma 89.99604
loop_
_atom_site_label
_atom_site_type_symbol
_atom_site_fract_x
_atom_site_fract_y
_atom_site_fract_z
_atom_type_partial_charge
Co0 Co 0.10229 0.20533 0.276 0.0
Co1 Co 0.07854 0.26438 0.31011 0.0
O2 O 0.09681 0.21471 0.30015 0.0
C3 C 0.04883 0.14206 0.28788 0.0
O4 O 0.03077 0.16925 0.29685 0.0
C5 C 0.15675 0.25073 0.32569 0.0
O6 O 0.16996 0.24293 0.31052 0.0
O7 O 0.11543 0.29589 0.29583 0.0
O8 O 0.12594 0.25902 0.27271 0.0
H9 H 0.03079 0.40534 0.30924 0.0
H10 H 0.13474 0.14698 0.30022 0.0
O11 O 0.07841 0.1513 0.27873 0.0
H12 H 0.24941 0.19284 0.2671 0.0
H13 H 0.13397 0.12268 0.22503 0.0
H14 H 0.08816 0.253 0.24525 0.0
H15 H 0.18239 0.21832 0.26114 0.0
H16 H 0.12756 0.13594 0.25543 0.0
O17 O 0.12052 0.26 0.32786 0.0
H18 H 0.05323 0.34235 0.29672 0.0
H19 H 0.06628 0.29198 0.34536 0.0
H20 H 0.09444 0.24113 0.21475 0.0
H21 H 0.20121 0.12049 0.30652 0.0
H22 H 0.11748 0.17557 0.20446 0.0
H23 H 0.25913 0.14355 0.28993 0.0
O24 O 0.04868 0.22738 0.27146 0.0
H25 H 0.04141 0.15276 0.34883 0.0
H26 H 0.99251 0.27021 0.31835 0.0
H27 H 0.94598 0.2306 0.33535 0.0
H28 H 0.97039 0.17141 0.35075 0.0
H29 H 0.08685 0.19301 0.33156 0.0
H30 H 0.04428 0.35453 0.35842 0.0
H31 H 0.02621 0.41171 0.34031 0.0
O32 O 0.03632 0.26979 0.29262 0.0
C33 C 0.13009 0.29086 0.28119 0.0
C34 C 0.03846 0.3806 0.31726 0.0
C35 C 0.04608 0.3521 0.34487 0.0
N36 N 0.06074 0.31345 0.32029 0.0
C37 C 0.05107 0.34483 0.31024 0.0
C38 C 0.05859 0.31679 0.3374 0.0
C39 C 0.03594 0.38417 0.3347 0.0
C40 C 0.15975 0.15684 0.29283 0.0
N41 N 0.15467 0.18398 0.28027 0.0
C42 C 0.19734 0.14187 0.29651 0.0
C43 C 0.22983 0.15487 0.28721 0.0
C44 C 0.2244 0.18254 0.27441 0.0
C45 C 0.18639 0.19691 0.27111 0.0
C46 C 0.12398 0.1514 0.22936 0.0
C47 C 0.09846 0.22448 0.24087 0.0
C48 C 0.12022 0.15905 0.24655 0.0
N49 N 0.10781 0.1953 0.2521 0.0
C50 C 0.10184 0.21789 0.22358 0.0
C51 C 0.11473 0.18109 0.21782 0.0
C52 C 0.02733 0.25363 0.27861 0.0
C53 C 0.03045 0.17854 0.34222 0.0
C54 C 0.00333 0.24444 0.32498 0.0
C55 C 0.97687 0.22217 0.33462 0.0
C56 C 0.99059 0.18899 0.34327 0.0
N57 N 0.04238 0.234 0.32401 0.0
C58 C 0.05607 0.20155 0.33248 0.0
Co59 Co 0.20519 0.89892 0.72465 0.0
Co60 Co 0.26568 0.92241 0.69105 0.0
O61 O 0.21546 0.90486 0.70063 0.0
C62 C 0.14301 0.95436 0.71329 0.0
O63 O 0.17134 0.97494 0.70611 0.0
C64 C 0.25123 0.84478 0.67516 0.0
O65 O 0.24318 0.83153 0.6903 0.0
O66 O 0.29603 0.88459 0.70531 0.0
O67 O 0.25868 0.875 0.72835 0.0
H68 H 0.40752 0.96721 0.69291 0.0
H69 H 0.14775 0.86702 0.69988 0.0
O70 O 0.15133 0.92282 0.72137 0.0
H71 H 0.19175 0.75171 0.73306 0.0
H72 H 0.11992 0.86696 0.77478 0.0
H73 H 0.25142 0.91234 0.75586 0.0
H74 H 0.21724 0.81855 0.73938 0.0
H75 H 0.13471 0.87371 0.74452 0.0
O76 O 0.26095 0.88093 0.67307 0.0
H77 H 0.34368 0.9459 0.70499 0.0
H78 H 0.29461 0.93494 0.65602 0.0
H79 H 0.238 0.90573 0.78623 0.0
H80 H 0.12128 0.80074 0.69322 0.0
H81 H 0.17183 0.8829 0.79586 0.0
H82 H 0.1434 0.7425 0.70984 0.0
O83 O 0.22753 0.95234 0.72953 0.0
H84 H 0.15564 0.96311 0.65216 0.0
H85 H 0.27372 0.00843 0.68318 0.0
H86 H 0.23557 0.0563 0.66625 0.0
H87 H 0.17609 0.03369 0.65057 0.0
H88 H 0.19448 0.9163 0.66936 0.0
H89 H 0.35802 0.95585 0.6434 0.0
H90 H 0.41498 0.97228 0.6619 0.0
O91 O 0.27133 0.964 0.7088 0.0
C92 C 0.29059 0.87025 0.71998 0.0
C93 C 0.38288 0.96026 0.68472 0.0
C94 C 0.35511 0.95382 0.65693 0.0
N95 N 0.31539 0.9395 0.68122 0.0
C96 C 0.34663 0.94829 0.69149 0.0
C97 C 0.31931 0.94193 0.66414 0.0
C98 C 0.38706 0.96306 0.66732 0.0
C99 C 0.1572 0.84188 0.70728 0.0
N100 N 0.18384 0.84668 0.72006 0.0
C101 C 0.14225 0.8044 0.7034 0.0
C102 C 0.15472 0.77172 0.71272 0.0
C103 C 0.18187 0.77686 0.72574 0.0
C104 C 0.19625 0.81477 0.72924 0.0
C105 C 0.14889 0.87686 0.77074 0.0
C106 C 0.22264 0.90214 0.75996 0.0
C107 C 0.15741 0.88081 0.75363 0.0
N108 N 0.19399 0.8931 0.74844 0.0
C109 C 0.21518 0.89857 0.77717 0.0
C110 C 0.17803 0.88579 0.78256 0.0
C111 C 0.25466 0.97316 0.72269 0.0
C112 C 0.18156 0.9733 0.6589 0.0
C113 C 0.24781 0.99839 0.67643 0.0
C114 C 0.22638 0.02562 0.66683 0.0
C115 C 0.19302 0.01291 0.65803 0.0
N116 N 0.23642 0.95958 0.6772 0.0
C117 C 0.20375 0.9469 0.66861 0.0
Co118 Co 0.89793 0.79662 0.27579 0.0
Co119 Co 0.92152 0.73761 0.30993 0.0
O120 O 0.90323 0.78724 0.29995 0.0
C121 C 0.95117 0.85997 0.28777 0.0
O122 O 0.96923 0.8328 0.29674 0.0
C123 C 0.8432 0.75114 0.32544 0.0
O124 O 0.83001 0.75892 0.31026 0.0
O125 O 0.88476 0.70605 0.29561 0.0
O126 O 0.87442 0.74287 0.27246 0.0
H127 H 0.96948 0.59672 0.30912 0.0
H128 H 0.86516 0.8549 0.29997 0.0
O129 O 0.92168 0.8507 0.27857 0.0
H130 H 0.75086 0.80881 0.26667 0.0
H131 H 0.86652 0.87922 0.22479 0.0
H132 H 0.91241 0.74899 0.24506 0.0
H133 H 0.81798 0.78346 0.26082 0.0
H134 H 0.87269 0.86597 0.2552 0.0
O135 O 0.87943 0.74194 0.32764 0.0
H136 H 0.94701 0.65967 0.29657 0.0
H137 H 0.93362 0.71004 0.34519 0.0
H138 H 0.90637 0.76086 0.21455 0.0
H139 H 0.79858 0.88125 0.30617 0.0
H140 H 0.88328 0.82638 0.20424 0.0
H141 H 0.74085 0.85809 0.28949 0.0
O142 O 0.95163 0.77468 0.27133 0.0
H143 H 0.95823 0.84932 0.34869 0.0
H144 H 0.00751 0.73192 0.31828 0.0
H145 H 0.05387 0.77161 0.33533 0.0
H146 H 0.02927 0.83077 0.35069 0.0
H147 H 0.91297 0.80898 0.33138 0.0
H148 H 0.95564 0.64754 0.35828 0.0
H149 H 0.97389 0.59038 0.34019 0.0
O150 O 0.96385 0.73226 0.29249 0.0
C151 C 0.87024 0.71103 0.28094 0.0
C152 C 0.96172 0.62146 0.31713 0.0
C153 C 0.9539 0.64996 0.34472 0.0
N154 N 0.93933 0.68857 0.32013 0.0
C155 C 0.9491 0.6572 0.3101 0.0
C156 C 0.94138 0.68525 0.33725 0.0
C157 C 0.96416 0.6179 0.33457 0.0
C158 C 0.84024 0.84499 0.29255 0.0
N159 N 0.84548 0.81786 0.27999 0.0
C160 C 0.80259 0.85988 0.29616 0.0
C161 C 0.7702 0.84683 0.28681 0.0
C162 C 0.77579 0.81916 0.27402 0.0
C163 C 0.81386 0.80486 0.27078 0.0
C164 C 0.87653 0.85053 0.22913 0.0
C165 C 0.90209 0.77749 0.24067 0.0
C166 C 0.88015 0.84288 0.24632 0.0
N167 N 0.89259 0.80664 0.25188 0.0
C168 C 0.89885 0.78408 0.22338 0.0
C169 C 0.88593 0.82086 0.2176 0.0
C170 C 0.97294 0.74845 0.2785 0.0
C171 C 0.96928 0.82354 0.34209 0.0
C172 C 0.99661 0.75768 0.32488 0.0
C173 C 0.02298 0.77999 0.33456 0.0
C174 C 0.00915 0.81316 0.34319 0.0
N175 N 0.95754 0.76805 0.32388 0.0
C176 C 0.94375 0.80049 0.33233 0.0
Co177 Co 0.7964 0.10298 0.72421 0.0
Co178 Co 0.73635 0.07891 0.69053 0.0
O179 O 0.78632 0.09696 0.70018 0.0
C180 C 0.85896 0.04792 0.71291 0.0
O181 O 0.83079 0.02729 0.70563 0.0
C182 C 0.75 0.15683 0.67477 0.0
O183 O 0.75789 0.17004 0.68994 0.0
O184 O 0.70543 0.11627 0.70482 0.0
O185 O 0.74278 0.1266 0.72781 0.0
H186 H 0.59513 0.03209 0.69215 0.0
H187 H 0.85383 0.13514 0.6995 0.0
O188 O 0.85042 0.07936 0.72101 0.0
H189 H 0.8089 0.25029 0.73257 0.0
H190 H 0.88101 0.13569 0.77446 0.0
H191 H 0.74997 0.08942 0.75535 0.0
H192 H 0.7838 0.18332 0.73889 0.0
H193 H 0.86657 0.12862 0.74418 0.0
O194 O 0.74066 0.12059 0.67262 0.0
H195 H 0.65855 0.05432 0.70434 0.0
H196 H 0.70782 0.06629 0.65545 0.0
H197 H 0.76303 0.09634 0.78574 0.0
H198 H 0.87993 0.20156 0.69284 0.0
H199 H 0.82896 0.11963 0.79546 0.0
H200 H 0.85733 0.25973 0.70939 0.0
O201 O 0.77434 0.04942 0.72909 0.0
H202 H 0.84713 0.03996 0.6517 0.0
H203 H 0.7295 0.99283 0.68254 0.0
H204 H 0.76841 0.94559 0.6656 0.0
H205 H 0.82767 0.96911 0.65001 0.0
H206 H 0.80754 0.08612 0.66891 0.0
H207 H 0.64484 0.04449 0.64272 0.0
H208 H 0.58799 0.02706 0.66112 0.0
O209 O 0.7311 0.03713 0.70821 0.0
C210 C 0.71079 0.13088 0.71945 0.0
C211 C 0.61973 0.03947 0.684 0.0
C212 C 0.64761 0.04649 0.65625 0.0
N213 N 0.68692 0.06128 0.68062 0.0
C214 C 0.65574 0.05197 0.69083 0.0
C215 C 0.68316 0.05889 0.66353 0.0
C216 C 0.61573 0.0367 0.66659 0.0
C217 C 0.84418 0.16025 0.70688 0.0
N218 N 0.81749 0.15533 0.71963 0.0
C219 C 0.85892 0.19781 0.703 0.0
C220 C 0.84619 0.23044 0.71227 0.0
C221 C 0.81899 0.22517 0.72527 0.0
C222 C 0.80483 0.18719 0.72878 0.0
C223 C 0.85214 0.12559 0.77038 0.0
C224 C 0.77865 0.09981 0.75949 0.0
C225 C 0.84383 0.12146 0.75326 0.0
N226 N 0.80737 0.10892 0.74802 0.0
C227 C 0.78591 0.10356 0.77671 0.0
C228 C 0.82292 0.11658 0.78216 0.0
C229 C 0.74761 0.02822 0.72216 0.0
C230 C 0.82131 0.02938 0.6584 0.0
C231 C 0.75531 0.00326 0.67583 0.0
C232 C 0.77717 0.9764 0.66623 0.0
C233 C 0.81041 0.98962 0.65747 0.0
N234 N 0.76616 0.04222 0.67666 0.0
C235 C 0.7987 0.05541 0.66811 0.0
Co236 Co 0.10294 0.29622 0.97555 0.0
Co237 Co 0.08171 0.23603 0.94164 0.0
O238 O 0.09878 0.28615 0.95144 0.0
C239 C 0.04935 0.35912 0.96353 0.0
O240 O 0.029 0.33094 0.95612 0.0
C241 C 0.15969 0.25066 0.92606 0.0
O242 O 0.17282 0.25836 0.94126 0.0
O243 O 0.11955 0.2059 0.95597 0.0
O244 O 0.12526 0.24211 0.97963 0.0
H245 H 0.03742 0.09397 0.94294 0.0
H246 H 0.13803 0.35323 0.95139 0.0
O247 O 0.08035 0.35055 0.97193 0.0
H248 H 0.24964 0.30626 0.98608 0.0
H249 H 0.13306 0.38076 0.02612 0.0
H250 H 0.08513 0.25068 0.00655 0.0
H251 H 0.18179 0.2822 0.99138 0.0
H252 H 0.12844 0.36602 0.99578 0.0
O253 O 0.12351 0.24124 0.92385 0.0
H254 H 0.0584 0.15767 0.95527 0.0
H255 H 0.0701 0.20757 0.90648 0.0
H256 H 0.08956 0.26402 0.037 0.0
H257 H 0.20535 0.3783 0.94575 0.0
H258 H 0.11368 0.32947 0.04696 0.0
H259 H 0.26175 0.35468 0.96313 0.0
O260 O 0.04882 0.27501 0.97959 0.0
H261 H 0.04135 0.34639 0.90286 0.0
H262 H 0.99589 0.22764 0.93338 0.0
H263 H 0.94824 0.26581 0.91635 0.0
H264 H 0.97092 0.32564 0.90092 0.0
H265 H 0.08793 0.30752 0.92017 0.0
H266 H 0.04958 0.14431 0.89361 0.0
H267 H 0.03291 0.08701 0.91189 0.0
O268 O 0.03963 0.22979 0.9592 0.0
C269 C 0.13164 0.2108 0.97103 0.0
C270 C 0.04448 0.11876 0.93484 0.0
C271 C 0.05136 0.147 0.90715 0.0
N272 N 0.06516 0.18636 0.93161 0.0
C273 C 0.05627 0.15493 0.94175 0.0
C274 C 0.06305 0.18271 0.91451 0.0
C275 C 0.042 0.11486 0.91742 0.0
C276 C 0.16236 0.34313 0.95912 0.0
N277 N 0.15596 0.31645 0.97175 0.0
C278 C 0.20044 0.3573 0.95582 0.0
C279 C 0.23207 0.34399 0.96556 0.0
C280 C 0.22531 0.31679 0.97843 0.0
C281 C 0.18684 0.30322 0.98135 0.0
C282 C 0.12263 0.35208 0.02194 0.0
C283 C 0.09598 0.27909 0.01079 0.0
C284 C 0.11991 0.34359 0.00478 0.0
N285 N 0.10698 0.30736 0.99942 0.0
C286 C 0.09827 0.28654 0.02805 0.0
C287 C 0.11176 0.32329 0.03362 0.0
C288 C 0.02901 0.24715 0.97275 0.0
C289 C 0.03114 0.32032 0.9095 0.0
C290 C 0.00595 0.2537 0.92675 0.0
C291 C 0.97886 0.27514 0.91709 0.0
C292 C 0.99161 0.30869 0.90843 0.0
N293 N 0.04468 0.26527 0.92772 0.0
C294 C 0.05741 0.29811 0.91926 0.0
Co295 Co 0.29687 0.89543 0.02564 0.0
Co296 Co 0.23914 0.92171 0.0599 0.0
O297 O 0.28804 0.90203 0.04978 0.0
C298 C 0.35954 0.95023 0.03696 0.0
O299 O 0.33228 0.96798 0.046 0.0
C300 C 0.25047 0.84254 0.07506 0.0
O301 O 0.25852 0.82954 0.05987 0.0
O302 O 0.20614 0.88654 0.04535 0.0
O303 O 0.24355 0.8709 0.02291 0.0
H304 H 0.10013 0.97479 0.05934 0.0
H305 H 0.35634 0.86532 0.04993 0.0
O306 O 0.35057 0.92038 0.02791 0.0
H307 H 0.31146 0.74805 0.01823 0.0
H308 H 0.37897 0.86239 0.97468 0.0
H309 H 0.24801 0.90606 0.99495 0.0
H310 H 0.28478 0.81432 0.0117 0.0
H311 H 0.36633 0.87056 0.00505 0.0
O312 O 0.24187 0.87889 0.07735 0.0
H313 H 0.16232 0.95061 0.04668 0.0
H314 H 0.21188 0.93347 0.09524 0.0
H315 H 0.25925 0.89799 0.96449 0.0
H316 H 0.38402 0.79963 0.05679 0.0
H317 H 0.32514 0.87601 0.95418 0.0
H318 H 0.36147 0.74041 0.04092 0.0
O319 O 0.27372 0.94839 0.02057 0.0
H320 H 0.35268 0.95308 0.09854 0.0
H321 H 0.23609 0.00732 0.06911 0.0
H322 H 0.2776 0.05166 0.08636 0.0
H323 H 0.33637 0.02456 0.10123 0.0
H324 H 0.31056 0.90989 0.08103 0.0
H325 H 0.15013 0.95717 0.10844 0.0
H326 H 0.09376 0.97817 0.09044 0.0
O327 O 0.23565 0.96488 0.04276 0.0
C328 C 0.21118 0.86948 0.03117 0.0
C329 C 0.12453 0.96585 0.06732 0.0
C330 C 0.15257 0.9559 0.09487 0.0
N331 N 0.19077 0.94096 0.07021 0.0
C332 C 0.15984 0.95225 0.06022 0.0
C333 C 0.18742 0.94243 0.08733 0.0
C334 C 0.12096 0.9677 0.08477 0.0
C335 C 0.34669 0.83974 0.04286 0.0
N336 N 0.31918 0.84367 0.03037 0.0
C337 C 0.36234 0.8026 0.04685 0.0
C338 C 0.34963 0.76938 0.03795 0.0
C339 C 0.32156 0.77364 0.02522 0.0
C340 C 0.30651 0.81122 0.0216 0.0
C341 C 0.35012 0.87194 0.97902 0.0
C342 C 0.2767 0.89632 0.99057 0.0
C343 C 0.34282 0.87672 0.99619 0.0
N344 N 0.30641 0.8886 0.00176 0.0
C345 C 0.28292 0.89187 0.9733 0.0
C346 C 0.3199 0.87957 0.96752 0.0
C347 C 0.25008 0.97173 0.02821 0.0
C348 C 0.3271 0.96523 0.09215 0.0
C349 C 0.2617 0.99535 0.07549 0.0
C350 C 0.28502 0.02057 0.08528 0.0
C351 C 0.31797 0.00534 0.09363 0.0
N352 N 0.27088 0.95606 0.07408 0.0
C353 C 0.30306 0.94088 0.08227 0.0
Co354 Co 0.89754 0.7042 0.97514 0.0
Co355 Co 0.92162 0.76411 0.9414 0.0
O356 O 0.90366 0.71418 0.9511 0.0
C357 C 0.95337 0.6423 0.96396 0.0
O358 O 0.97367 0.67075 0.95672 0.0
C359 C 0.84371 0.75029 0.92565 0.0
O360 O 0.83049 0.74228 0.9408 0.0
O361 O 0.88427 0.79502 0.95569 0.0
O362 O 0.87342 0.75764 0.97864 0.0
H363 H 0.96824 0.90542 0.94291 0.0
H364 H 0.86617 0.64626 0.95045 0.0
O365 O 0.92175 0.65041 0.97202 0.0
H366 H 0.75029 0.69039 0.98324 0.0
H367 H 0.86519 0.61946 0.02539 0.0
H368 H 0.91028 0.75093 0.00627 0.0
H369 H 0.81696 0.71618 0.98965 0.0
H370 H 0.87243 0.63385 0.99511 0.0
O371 O 0.87993 0.75969 0.92352 0.0
H372 H 0.94613 0.842 0.95515 0.0
H373 H 0.93415 0.7925 0.9063 0.0
H374 H 0.90318 0.73792 0.03666 0.0
H375 H 0.80008 0.61947 0.9437 0.0
H376 H 0.88048 0.67178 0.04638 0.0
H377 H 0.74155 0.64165 0.96012 0.0
O378 O 0.95081 0.7268 0.98011 0.0
H379 H 0.96056 0.6531 0.90268 0.0
H380 H 0.00764 0.77104 0.93333 0.0
H381 H 0.05486 0.73207 0.91641 0.0
H382 H 0.03137 0.67264 0.90092 0.0
H383 H 0.91442 0.69275 0.91988 0.0
H384 H 0.95582 0.85547 0.89352 0.0
H385 H 0.97319 0.91243 0.91188 0.0
O386 O 0.96341 0.76948 0.95906 0.0
C387 C 0.86936 0.78966 0.97027 0.0
C388 C 0.96087 0.88077 0.93478 0.0
C389 C 0.95385 0.85276 0.90706 0.0
N390 N 0.93917 0.81352 0.93145 0.0
C391 C 0.94845 0.84477 0.94164 0.0
C392 C 0.94152 0.81721 0.91436 0.0
C393 C 0.96361 0.8847 0.91737 0.0
C394 C 0.8409 0.65575 0.95776 0.0
N395 N 0.84545 0.68259 0.97048 0.0
C396 C 0.80353 0.64061 0.95384 0.0
C397 C 0.77069 0.65311 0.96304 0.0
C398 C 0.77557 0.68047 0.976 0.0
C399 C 0.81338 0.69503 0.97955 0.0
C400 C 0.87503 0.64842 0.0213 0.0
C401 C 0.90015 0.72215 0.01041 0.0
C402 C 0.87925 0.65671 0.00419 0.0
N403 N 0.89146 0.69329 0.99894 0.0
C404 C 0.8963 0.71493 0.02763 0.0
C405 C 0.8836 0.67779 0.03308 0.0
C406 C 0.97209 0.75335 0.97311 0.0
C407 C 0.97113 0.67899 0.90934 0.0
C408 C 0.99722 0.74517 0.92667 0.0
C409 C 0.02408 0.72326 0.91707 0.0
C410 C 0.01087 0.68994 0.90838 0.0
N411 N 0.95829 0.73426 0.92754 0.0
C412 C 0.94512 0.70164 0.91904 0.0
Co413 Co 0.70417 0.10318 0.02535 0.0
Co414 Co 0.76273 0.08 0.05968 0.0
O415 O 0.71329 0.09832 0.04955 0.0
C416 C 0.64075 0.05013 0.03733 0.0
O417 O 0.66786 0.03223 0.04639 0.0
C418 C 0.74953 0.15872 0.07494 0.0
O419 O 0.74192 0.17176 0.05973 0.0
O420 O 0.79455 0.11634 0.04528 0.0
O421 O 0.75799 0.12648 0.02204 0.0
H422 H 0.90342 0.03147 0.05926 0.0
H423 H 0.64569 0.13651 0.0493 0.0
O424 O 0.65004 0.07956 0.0281 0.0
H425 H 0.69244 0.25013 0.01574 0.0
H426 H 0.62215 0.13387 0.9741 0.0
H427 H 0.75204 0.08799 0.99475 0.0
H428 H 0.7177 0.18283 0.01016 0.0
H429 H 0.6351 0.12822 0.00455 0.0
O430 O 0.75845 0.12244 0.07724 0.0
H431 H 0.84068 0.05395 0.04653 0.0
H432 H 0.78992 0.06843 0.09503 0.0
H433 H 0.74048 0.09349 0.9642 0.0
H434 H 0.61942 0.20327 0.05523 0.0
H435 H 0.67513 0.11658 0.9537 0.0
H436 H 0.64292 0.26066 0.03841 0.0
O437 O 0.72602 0.04935 0.0211 0.0
H438 H 0.65051 0.04451 0.09836 0.0
H439 H 0.76799 0.99414 0.06834 0.0
H440 H 0.72793 0.94827 0.08547 0.0
H441 H 0.66873 0.97342 0.10064 0.0
H442 H 0.69121 0.08927 0.08096 0.0
H443 H 0.85221 0.0464 0.10829 0.0
H444 H 0.90945 0.02759 0.09036 0.0
O445 O 0.76807 0.03729 0.0424 0.0
C446 C 0.78976 0.13064 0.03056 0.0
C447 C 0.87864 0.03946 0.06721 0.0
C448 C 0.84991 0.0479 0.09473 0.0
N449 N 0.8116 0.06217 0.07003 0.0
C450 C 0.84301 0.0521 0.06007 0.0
C451 C 0.81475 0.06042 0.08715 0.0
C452 C 0.88202 0.03733 0.08466 0.0
C453 C 0.65575 0.16128 0.04182 0.0
N454 N 0.68301 0.15576 0.02934 0.0
C455 C 0.6409 0.19904 0.04528 0.0
C456 C 0.65414 0.23123 0.03586 0.0
C457 C 0.68195 0.22535 0.02314 0.0
C458 C 0.69619 0.18719 0.02006 0.0
C459 C 0.65077 0.12386 0.97852 0.0
C460 C 0.72361 0.09831 0.99027 0.0
C461 C 0.65825 0.12054 0.99574 0.0
N462 N 0.69439 0.1081 0.00141 0.0
C463 C 0.7172 0.10125 0.97296 0.0
C464 C 0.68052 0.11416 0.96708 0.0
C465 C 0.75204 0.02804 0.0284 0.0
C466 C 0.6763 0.03322 0.09185 0.0
C467 C 0.74221 0.00528 0.07486 0.0
C468 C 0.7197 0.97919 0.08458 0.0
C469 C 0.6865 0.99332 0.0931 0.0
N470 N 0.73202 0.04437 0.0737 0.0
C471 C 0.69956 0.05846 0.08204 0.0
Co472 Co 0.60307 0.70531 0.77669 0.0
Co473 Co 0.57927 0.7652 0.81047 0.0
O474 O 0.59737 0.71531 0.80075 0.0
C475 C 0.54818 0.64274 0.78806 0.0
O476 O 0.52769 0.67092 0.7954 0.0
C477 C 0.65739 0.75166 0.82608 0.0
O478 O 0.67052 0.74386 0.81089 0.0
O479 O 0.61635 0.79627 0.79611 0.0
O480 O 0.62652 0.75901 0.77307 0.0
H481 H 0.532 0.9063 0.80905 0.0
H482 H 0.63568 0.64783 0.80128 0.0
O483 O 0.57957 0.65124 0.77992 0.0
H484 H 0.75026 0.69308 0.76795 0.0
H485 H 0.63515 0.62085 0.72632 0.0
H486 H 0.58897 0.7518 0.74561 0.0
H487 H 0.68316 0.71812 0.76182 0.0
H488 H 0.62856 0.63522 0.75662 0.0
O489 O 0.62116 0.76093 0.82828 0.0
H490 H 0.55429 0.84299 0.79677 0.0
H491 H 0.56698 0.79354 0.84559 0.0
H492 H 0.59541 0.73881 0.7152 0.0
H493 H 0.70223 0.62178 0.80774 0.0
H494 H 0.61865 0.67292 0.70538 0.0
H495 H 0.76011 0.64453 0.79105 0.0
O496 O 0.54942 0.72725 0.77196 0.0
H497 H 0.54118 0.65413 0.8493 0.0
H498 H 0.49328 0.77173 0.81865 0.0
H499 H 0.44639 0.7326 0.83567 0.0
H500 H 0.4703 0.67335 0.85116 0.0
H501 H 0.58698 0.69393 0.83202 0.0
H502 H 0.54513 0.85642 0.85842 0.0
H503 H 0.52731 0.91329 0.84009 0.0
O504 O 0.53724 0.77038 0.79289 0.0
C505 C 0.63081 0.791 0.78144 0.0
C506 C 0.53956 0.88169 0.81717 0.0
C507 C 0.54698 0.85371 0.84487 0.0
N508 N 0.56161 0.81454 0.82045 0.0
C509 C 0.55208 0.84574 0.81028 0.0
C510 C 0.55941 0.81822 0.83755 0.0
C511 C 0.53697 0.88561 0.83458 0.0
C512 C 0.66067 0.65756 0.79385 0.0
N513 N 0.65552 0.6843 0.78114 0.0
C514 C 0.6983 0.64284 0.79762 0.0
C515 C 0.73077 0.65566 0.78826 0.0
C516 C 0.72527 0.68292 0.7753 0.0
C517 C 0.68722 0.69705 0.77191 0.0
C518 C 0.62507 0.6497 0.73044 0.0
C519 C 0.59934 0.72314 0.74144 0.0
C520 C 0.62121 0.65798 0.74758 0.0
N521 N 0.6087 0.69442 0.75287 0.0
C522 C 0.60282 0.71592 0.7242 0.0
C523 C 0.61582 0.67893 0.7187 0.0
C524 C 0.5282 0.75385 0.77896 0.0
C525 C 0.53043 0.67994 0.84264 0.0
C526 C 0.50388 0.74594 0.82532 0.0
C527 C 0.47721 0.72394 0.83497 0.0
C528 C 0.49065 0.69071 0.84366 0.0
N529 N 0.54286 0.73522 0.8244 0.0
C530 C 0.55626 0.70268 0.83289 0.0
Co531 Co 0.70448 0.39857 0.22422 0.0
Co532 Co 0.76455 0.42247 0.19052 0.0
O533 O 0.71455 0.40452 0.20018 0.0
C534 C 0.64209 0.45374 0.21292 0.0
O535 O 0.67033 0.4743 0.20566 0.0
C536 C 0.75056 0.3447 0.17466 0.0
O537 O 0.74264 0.33137 0.18981 0.0
O538 O 0.79536 0.38498 0.20479 0.0
O539 O 0.75808 0.37493 0.22783 0.0
H540 H 0.90591 0.46884 0.19215 0.0
H541 H 0.64697 0.36642 0.19954 0.0
O542 O 0.65051 0.42226 0.22101 0.0
H543 H 0.69183 0.25129 0.23262 0.0
H544 H 0.61979 0.36607 0.27446 0.0
H545 H 0.75091 0.41216 0.25536 0.0
H546 H 0.71703 0.31825 0.23891 0.0
H547 H 0.63427 0.37304 0.24419 0.0
O548 O 0.76008 0.3809 0.17258 0.0
H549 H 0.84244 0.44676 0.20433 0.0
H550 H 0.79305 0.43516 0.15544 0.0
H551 H 0.7378 0.40533 0.28575 0.0
H552 H 0.62077 0.30002 0.1929 0.0
H553 H 0.67184 0.38214 0.29547 0.0
H554 H 0.64332 0.24186 0.20947 0.0
O555 O 0.72659 0.4521 0.22908 0.0
H556 H 0.65377 0.46186 0.15177 0.0
H557 H 0.77164 0.50855 0.18258 0.0
H558 H 0.73283 0.55595 0.16568 0.0
H559 H 0.67344 0.53265 0.15011 0.0
H560 H 0.69327 0.41554 0.16894 0.0
H561 H 0.85609 0.45681 0.14272 0.0
H562 H 0.91302 0.47397 0.16112 0.0
O563 O 0.76995 0.46417 0.20823 0.0
C564 C 0.79004 0.37052 0.21945 0.0
C565 C 0.88128 0.46157 0.184 0.0
C566 C 0.85333 0.45476 0.15625 0.0
N567 N 0.81401 0.44 0.18061 0.0
C568 C 0.84524 0.44916 0.19082 0.0
C569 C 0.81775 0.44244 0.16353 0.0
C570 C 0.88526 0.4644 0.16659 0.0
C571 C 0.65661 0.34131 0.20691 0.0
N572 N 0.68333 0.34623 0.21965 0.0
C573 C 0.64181 0.30376 0.20305 0.0
C574 C 0.65452 0.27114 0.21234 0.0
C575 C 0.68176 0.2764 0.22532 0.0
C576 C 0.69598 0.31438 0.22881 0.0
C577 C 0.64868 0.37613 0.27038 0.0
C578 C 0.72221 0.40181 0.2595 0.0
C579 C 0.65702 0.3802 0.25326 0.0
N580 N 0.6935 0.39269 0.24802 0.0
C581 C 0.71493 0.39811 0.27672 0.0
C582 C 0.6779 0.38514 0.28216 0.0
C583 C 0.75342 0.47318 0.22216 0.0
C584 C 0.67965 0.47235 0.15846 0.0
C585 C 0.74578 0.49821 0.17588 0.0
C586 C 0.72397 0.52517 0.16629 0.0
C587 C 0.69067 0.51207 0.15755 0.0
N588 N 0.73482 0.45928 0.17669 0.0
C589 C 0.70221 0.44622 0.16815 0.0
Co590 Co 0.39899 0.29624 0.77695 0.0
Co591 Co 0.42381 0.2366 0.81067 0.0
O592 O 0.40532 0.28636 0.80097 0.0
C593 C 0.45407 0.35887 0.78806 0.0
O594 O 0.4747 0.3307 0.79533 0.0
C595 C 0.34591 0.2499 0.82647 0.0
O596 O 0.3326 0.25761 0.8113 0.0
O597 O 0.38665 0.20525 0.79644 0.0
O598 O 0.37554 0.24251 0.77348 0.0
H599 H 0.47209 0.09584 0.80922 0.0
H600 H 0.36701 0.35383 0.80164 0.0
O601 O 0.42253 0.35035 0.78003 0.0
H602 H 0.25153 0.3081 0.76899 0.0
H603 H 0.36518 0.38039 0.72669 0.0
H604 H 0.41228 0.24964 0.74582 0.0
H605 H 0.3185 0.28321 0.76251 0.0
H606 H 0.37285 0.36621 0.75696 0.0
O607 O 0.38219 0.24073 0.8286 0.0
H608 H 0.44904 0.1589 0.79695 0.0
H609 H 0.43686 0.20851 0.84577 0.0
H610 H 0.40476 0.26244 0.71544 0.0
H611 H 0.3006 0.37972 0.80846 0.0
H612 H 0.38104 0.32822 0.7057 0.0
H613 H 0.24227 0.35672 0.79212 0.0
O614 O 0.45254 0.2743 0.77196 0.0
H615 H 0.46195 0.34812 0.84927 0.0
H616 H 0.50999 0.23062 0.81858 0.0
H617 H 0.55696 0.27016 0.83539 0.0
H618 H 0.53298 0.32937 0.8509 0.0
H619 H 0.41606 0.30792 0.83219 0.0
H620 H 0.45947 0.14589 0.85858 0.0
H621 H 0.47743 0.08907 0.84025 0.0
O622 O 0.46552 0.23157 0.79295 0.0
C623 C 0.37173 0.21047 0.78185 0.0
C624 C 0.46447 0.12043 0.81733 0.0
C625 C 0.45734 0.1485 0.84504 0.0
N626 N 0.44193 0.18742 0.82063 0.0
C627 C 0.45151 0.15623 0.81046 0.0
C628 C 0.44447 0.18385 0.83772 0.0
C629 C 0.46742 0.11664 0.83475 0.0
C630 C 0.34182 0.34401 0.79435 0.0
N631 N 0.34665 0.31721 0.78163 0.0
C632 C 0.30427 0.35863 0.79832 0.0
C633 C 0.27155 0.34567 0.78916 0.0
C634 C 0.27672 0.31837 0.7762 0.0
C635 C 0.3147 0.30433 0.7726 0.0
C636 C 0.37546 0.35158 0.73078 0.0
C637 C 0.40171 0.27825 0.74168 0.0
C638 C 0.37993 0.34341 0.7479 0.0
N639 N 0.39269 0.30703 0.75314 0.0
C640 C 0.39762 0.28537 0.72446 0.0
C641 C 0.38435 0.32229 0.71901 0.0
C642 C 0.47407 0.24789 0.77893 0.0
C643 C 0.47273 0.32233 0.8426 0.0
C644 C 0.49935 0.25639 0.82525 0.0
C645 C 0.52607 0.27861 0.83478 0.0
C646 C 0.51259 0.31182 0.84349 0.0
N647 N 0.46029 0.26686 0.82446 0.0
C648 C 0.44686 0.29936 0.83297 0.0
Co649 Co 0.29597 0.60321 0.22438 0.0
Co650 Co 0.23585 0.57906 0.19073 0.0
O651 O 0.28584 0.59712 0.20035 0.0
C652 C 0.35833 0.548 0.21308 0.0
O653 O 0.33006 0.52743 0.20585 0.0
C654 C 0.24959 0.65679 0.17483 0.0
O655 O 0.25756 0.67019 0.18996 0.0
O656 O 0.20502 0.61654 0.20499 0.0
O657 O 0.24237 0.62686 0.22799 0.0
H658 H 0.09457 0.53246 0.19246 0.0
H659 H 0.3534 0.63523 0.19964 0.0
O660 O 0.34994 0.57951 0.22116 0.0
H661 H 0.3086 0.75054 0.23264 0.0
H662 H 0.38078 0.63601 0.27455 0.0
H663 H 0.24962 0.5898 0.25556 0.0
H664 H 0.28343 0.68361 0.23901 0.0
H665 H 0.36623 0.62885 0.24429 0.0
O666 O 0.24017 0.62056 0.17277 0.0
H667 H 0.15804 0.55468 0.2046 0.0
H668 H 0.20726 0.56618 0.15567 0.0
H669 H 0.2628 0.59682 0.28593 0.0
H670 H 0.37957 0.7016 0.19293 0.0
H671 H 0.32879 0.62008 0.2956 0.0
H672 H 0.35705 0.75985 0.20946 0.0
O673 O 0.27388 0.54969 0.22931 0.0
H674 H 0.34658 0.53974 0.15194 0.0
H675 H 0.22889 0.49293 0.18283 0.0
H676 H 0.26774 0.44555 0.16593 0.0
H677 H 0.32704 0.4689 0.15032 0.0
H678 H 0.30705 0.58604 0.16911 0.0
H679 H 0.14421 0.54439 0.143 0.0
H680 H 0.08737 0.52721 0.16144 0.0
O681 O 0.23058 0.53742 0.20846 0.0
C682 C 0.21038 0.63115 0.21963 0.0
C683 C 0.11916 0.53974 0.18429 0.0
C684 C 0.14701 0.54649 0.15653 0.0
N685 N 0.18639 0.5614 0.18086 0.0
C686 C 0.1552 0.55223 0.19109 0.0
C687 C 0.1826 0.55889 0.16378 0.0
C688 C 0.11513 0.53684 0.16689 0.0
C689 C 0.34377 0.66038 0.207 0.0
N690 N 0.31709 0.65552 0.21975 0.0
C691 C 0.35856 0.69791 0.2031 0.0
C692 C 0.34586 0.73058 0.21236 0.0
C693 C 0.31866 0.72538 0.22536 0.0
C694 C 0.30446 0.68742 0.22888 0.0
C695 C 0.35189 0.62593 0.2705 0.0
C696 C 0.27833 0.60018 0.25967 0.0
C697 C 0.34351 0.62175 0.25338 0.0
N698 N 0.30701 0.60923 0.24818 0.0
C699 C 0.28565 0.60398 0.27688 0.0
C700 C 0.3227 0.61699 0.2823 0.0
C701 C 0.2471 0.52852 0.2224 0.0
C702 C 0.32074 0.52922 0.15865 0.0
C703 C 0.2547 0.50329 0.17611 0.0
C704 C 0.27654 0.47634 0.16653 0.0
C705 C 0.30979 0.48947 0.15777 0.0
N706 N 0.2656 0.54224 0.1769 0.0
C707 C 0.29816 0.55534 0.16834 0.0
Co708 Co 0.60275 0.79658 0.4749 0.0
Co709 Co 0.57923 0.73761 0.44073 0.0
O710 O 0.59749 0.78723 0.45074 0.0
C711 C 0.5494 0.85988 0.46294 0.0
O712 O 0.53141 0.83268 0.45396 0.0
C713 C 0.65757 0.75116 0.42524 0.0
O714 O 0.67074 0.75894 0.44043 0.0
O715 O 0.61597 0.70605 0.45506 0.0
O716 O 0.62631 0.74284 0.47822 0.0
H717 H 0.53135 0.59669 0.44151 0.0
H718 H 0.63547 0.85493 0.45075 0.0
O719 O 0.57893 0.85066 0.47213 0.0
H720 H 0.7498 0.80889 0.48404 0.0
H721 H 0.63403 0.87915 0.52593 0.0
H722 H 0.58829 0.74891 0.50562 0.0
H723 H 0.6827 0.78348 0.48988 0.0
H724 H 0.62789 0.86593 0.49552 0.0
O725 O 0.62134 0.74195 0.42304 0.0
H726 H 0.55375 0.65965 0.45408 0.0
H727 H 0.56719 0.71006 0.40546 0.0
H728 H 0.5943 0.76074 0.53613 0.0
H729 H 0.70203 0.88135 0.44457 0.0
H730 H 0.61731 0.82627 0.54646 0.0
H731 H 0.75978 0.85821 0.46125 0.0
O732 O 0.54907 0.7746 0.47934 0.0
H733 H 0.54253 0.84934 0.40199 0.0
H734 H 0.49326 0.73189 0.43236 0.0
H735 H 0.44691 0.77158 0.41531 0.0
H736 H 0.4715 0.83077 0.39996 0.0
H737 H 0.58778 0.809 0.41931 0.0
H738 H 0.54524 0.64755 0.39236 0.0
H739 H 0.52699 0.59037 0.41043 0.0
O740 O 0.53687 0.73223 0.45816 0.0
C741 C 0.6305 0.71101 0.46973 0.0
C742 C 0.5391 0.62144 0.4335 0.0
C743 C 0.54695 0.64997 0.40592 0.0
N744 N 0.56146 0.68857 0.43052 0.0
C745 C 0.55169 0.65719 0.44055 0.0
C746 C 0.55943 0.68525 0.4134 0.0
C747 C 0.5367 0.6179 0.41606 0.0
C748 C 0.6604 0.84503 0.45817 0.0
N749 N 0.65518 0.81788 0.47071 0.0
C750 C 0.69804 0.85996 0.45456 0.0
C751 C 0.73044 0.84692 0.46391 0.0
C752 C 0.72486 0.81923 0.4767 0.0
C753 C 0.68681 0.80489 0.47992 0.0
C754 C 0.62405 0.85045 0.52158 0.0
C755 C 0.59857 0.77741 0.51002 0.0
C756 C 0.62045 0.84282 0.50438 0.0
N757 N 0.60805 0.80658 0.49881 0.0
C758 C 0.6018 0.78398 0.52731 0.0
C759 C 0.61467 0.82076 0.5331 0.0
C760 C 0.52776 0.74839 0.47215 0.0
C761 C 0.53148 0.82355 0.40858 0.0
C762 C 0.50416 0.75766 0.42576 0.0
C763 C 0.4778 0.77997 0.41609 0.0
C764 C 0.49162 0.81315 0.40747 0.0
N765 N 0.54321 0.76804 0.42679 0.0
C766 C 0.557 0.8005 0.41835 0.0
Co767 Co 0.79635 0.39808 0.52594 0.0
Co768 Co 0.73646 0.42169 0.55973 0.0
O769 O 0.78638 0.40377 0.54999 0.0
C770 C 0.85863 0.45328 0.53732 0.0
O771 O 0.83033 0.47364 0.54464 0.0
C772 C 0.75015 0.34355 0.57532 0.0
O773 O 0.75804 0.33046 0.56014 0.0
O774 O 0.70553 0.38454 0.54537 0.0
O775 O 0.74278 0.37436 0.52233 0.0
H776 H 0.59521 0.46844 0.55833 0.0
H777 H 0.85403 0.36581 0.55052 0.0
O778 O 0.85029 0.42186 0.52915 0.0
H779 H 0.80927 0.25091 0.51726 0.0
H780 H 0.88091 0.36624 0.47557 0.0
H781 H 0.74976 0.41185 0.49485 0.0
H782 H 0.7839 0.31788 0.51111 0.0
H783 H 0.86654 0.37291 0.50587 0.0
O784 O 0.74085 0.37977 0.57753 0.0
H785 H 0.65859 0.44642 0.54604 0.0
H786 H 0.7081 0.43385 0.59487 0.0
H787 H 0.76275 0.40532 0.46444 0.0
H788 H 0.8804 0.2994 0.55701 0.0
H789 H 0.82874 0.38237 0.45463 0.0
H790 H 0.8579 0.24135 0.54035 0.0
O791 O 0.77411 0.45162 0.52118 0.0
H792 H 0.84742 0.46008 0.59857 0.0
H793 H 0.72965 0.50766 0.56795 0.0
H794 H 0.76863 0.55465 0.58498 0.0
H795 H 0.82797 0.53091 0.60046 0.0
H796 H 0.80776 0.41417 0.58127 0.0
H797 H 0.64515 0.45543 0.6077 0.0
H798 H 0.58821 0.47305 0.58938 0.0
O799 O 0.73112 0.46371 0.54216 0.0
C800 C 0.71081 0.37005 0.53071 0.0
C801 C 0.61985 0.46097 0.56645 0.0
C802 C 0.64786 0.45361 0.59415 0.0
N803 N 0.68708 0.43918 0.56972 0.0
C804 C 0.65584 0.4486 0.55956 0.0
C805 C 0.6834 0.44134 0.58682 0.0
C806 C 0.61593 0.46351 0.58387 0.0
C807 C 0.84441 0.34076 0.54311 0.0
N808 N 0.81763 0.34575 0.5304 0.0
C809 C 0.85931 0.3032 0.54689 0.0
C810 C 0.84663 0.27064 0.53755 0.0
C811 C 0.81933 0.27597 0.5246 0.0
C812 C 0.80501 0.31395 0.52119 0.0
C813 C 0.85202 0.37619 0.47969 0.0
C814 C 0.77847 0.4016 0.49068 0.0
C815 C 0.84374 0.38009 0.49683 0.0
N816 N 0.80725 0.39244 0.50211 0.0
C817 C 0.78568 0.39808 0.47344 0.0
C818 C 0.82273 0.38523 0.46795 0.0
C819 C 0.74746 0.47276 0.5282 0.0
C820 C 0.82157 0.47076 0.59192 0.0
C821 C 0.75548 0.49713 0.57461 0.0
C822 C 0.77739 0.52385 0.58426 0.0
C823 C 0.81067 0.51051 0.59295 0.0
N824 N 0.76633 0.45818 0.57367 0.0
C825 C 0.79891 0.44487 0.58216 0.0
Co826 Co 0.39769 0.2051 0.47504 0.0
Co827 Co 0.421 0.26407 0.44085 0.0
O828 O 0.40275 0.21446 0.45087 0.0
C829 C 0.45084 0.14172 0.46299 0.0
O830 O 0.46879 0.1689 0.45398 0.0
C831 C 0.34252 0.25065 0.42545 0.0
O832 O 0.32942 0.24288 0.44064 0.0
O833 O 0.38441 0.29566 0.45523 0.0
O834 O 0.37425 0.25888 0.4784 0.0
H835 H 0.46908 0.40492 0.44159 0.0
H836 H 0.36466 0.14683 0.45093 0.0
O837 O 0.4214 0.15099 0.47222 0.0
H838 H 0.25071 0.19302 0.48442 0.0
H839 H 0.36675 0.12253 0.52609 0.0
H840 H 0.41251 0.25272 0.50574 0.0
H841 H 0.3179 0.21833 0.49015 0.0
H842 H 0.37262 0.13577 0.49568 0.0
O843 O 0.37875 0.2598 0.42321 0.0
H844 H 0.44668 0.34199 0.45417 0.0
H845 H 0.43281 0.29163 0.40557 0.0
H846 H 0.40677 0.24086 0.53626 0.0
H847 H 0.298 0.12052 0.44485 0.0
H848 H 0.38375 0.17536 0.54661 0.0
H849 H 0.24044 0.14374 0.46163 0.0
O850 O 0.45145 0.22699 0.4794 0.0
H851 H 0.45724 0.15232 0.40203 0.0
H852 H 0.50692 0.26968 0.43236 0.0
H853 H 0.55307 0.22994 0.41523 0.0
H854 H 0.52828 0.1708 0.3999 0.0
H855 H 0.41219 0.19271 0.41942 0.0
H856 H 0.45475 0.35412 0.39245 0.0
H857 H 0.47322 0.41126 0.41051 0.0
O858 O 0.4635 0.26938 0.45821 0.0
C859 C 0.37002 0.29072 0.46993 0.0
C860 C 0.46123 0.38019 0.43359 0.0
C861 C 0.45314 0.35169 0.40601 0.0
N862 N 0.43876 0.3131 0.43062 0.0
C863 C 0.44864 0.34445 0.44064 0.0
C864 C 0.44066 0.31642 0.4135 0.0
C865 C 0.46351 0.38374 0.41615 0.0
C866 C 0.33981 0.15676 0.45839 0.0
N867 N 0.34519 0.1839 0.47093 0.0
C868 C 0.30212 0.14189 0.45484 0.0
C869 C 0.26983 0.15498 0.46425 0.0
C870 C 0.27556 0.18265 0.47703 0.0
C871 C 0.31367 0.19692 0.4802 0.0
C872 C 0.37673 0.15121 0.52174 0.0
C873 C 0.40222 0.22423 0.51015 0.0
C874 C 0.38018 0.15886 0.50454 0.0
N875 N 0.39259 0.19509 0.49895 0.0
C876 C 0.39915 0.21765 0.52745 0.0
C877 C 0.38627 0.18088 0.53325 0.0
C878 C 0.47272 0.25319 0.47218 0.0
C879 C 0.46838 0.17809 0.40861 0.0
C880 C 0.49593 0.24393 0.42577 0.0
C881 C 0.52218 0.22159 0.41605 0.0
C882 C 0.50824 0.18843 0.40744 0.0
N883 N 0.45687 0.2336 0.42685 0.0
C884 C 0.44297 0.20117 0.41842 0.0
Co885 Co 0.20437 0.6037 0.52617 0.0
Co886 Co 0.26423 0.5802 0.55999 0.0
O887 O 0.21432 0.59809 0.55023 0.0
C888 C 0.14203 0.54856 0.53754 0.0
O889 O 0.17029 0.52819 0.54489 0.0
C890 C 0.25056 0.65839 0.57557 0.0
O891 O 0.24272 0.6715 0.56039 0.0
O892 O 0.29519 0.61733 0.54562 0.0
O893 O 0.25796 0.62737 0.52256 0.0
H894 H 0.40549 0.53346 0.55864 0.0
H895 H 0.14669 0.6361 0.55072 0.0
O896 O 0.15042 0.57997 0.52938 0.0
H897 H 0.19153 0.75084 0.51738 0.0
H898 H 0.1199 0.63537 0.47576 0.0
H899 H 0.251 0.58978 0.4951 0.0
H900 H 0.21688 0.68383 0.51129 0.0
H901 H 0.13423 0.62884 0.50607 0.0
O902 O 0.25982 0.62215 0.57778 0.0
H903 H 0.34213 0.55545 0.54633 0.0
H904 H 0.29255 0.56812 0.59513 0.0
H905 H 0.23805 0.59616 0.46469 0.0
H906 H 0.12034 0.70256 0.55716 0.0
H907 H 0.17209 0.6191 0.45484 0.0
H908 H 0.14288 0.76051 0.54046 0.0
O909 O 0.22659 0.55013 0.52145 0.0
H910 H 0.15324 0.5419 0.59882 0.0
H911 H 0.27104 0.49425 0.56823 0.0
H912 H 0.23205 0.4473 0.58528 0.0
H913 H 0.1727 0.47108 0.60074 0.0
H914 H 0.19291 0.58776 0.58151 0.0
H915 H 0.35548 0.54657 0.60799 0.0
H916 H 0.41245 0.52892 0.58969 0.0
O917 O 0.26961 0.53814 0.54243 0.0
C918 C 0.28992 0.63173 0.53094 0.0
C919 C 0.38084 0.54095 0.56675 0.0
C920 C 0.35279 0.54836 0.59444 0.0
N921 N 0.31361 0.56274 0.57 0.0
C922 C 0.34486 0.5533 0.55984 0.0
C923 C 0.31726 0.56062 0.58709 0.0
C924 C 0.38474 0.53845 0.58417 0.0
C925 C 0.15633 0.66112 0.54329 0.0
N926 N 0.18313 0.65607 0.53059 0.0
C927 C 0.14144 0.6987 0.54704 0.0
C928 C 0.15414 0.73122 0.53768 0.0
C929 C 0.18146 0.72581 0.52474 0.0
C930 C 0.19577 0.68781 0.52137 0.0
C931 C 0.14878 0.62542 0.47989 0.0
C932 C 0.22231 0.60002 0.49092 0.0
C933 C 0.15704 0.6216 0.49703 0.0
N934 N 0.19351 0.60925 0.50234 0.0
C935 C 0.21511 0.60346 0.47368 0.0
C936 C 0.17808 0.6163 0.46817 0.0
C937 C 0.25325 0.52903 0.52848 0.0
C938 C 0.1791 0.5312 0.59217 0.0
C939 C 0.2452 0.50479 0.57488 0.0
C940 C 0.22329 0.47809 0.58455 0.0
C941 C 0.19001 0.49146 0.59323 0.0
N942 N 0.23435 0.54374 0.57393 0.0
C943 C 0.20176 0.55707 0.58241 0.0
H944 H 0.14621 0.36422 0.2945 0.0
H945 H 0.16325 0.29323 0.24977 0.0
H946 H 0.17765 0.42034 0.2805 0.0
H947 H 0.19486 0.34919 0.23595 0.0
H948 H 0.26666 0.50276 0.25412 0.0
H949 H 0.24188 0.4441 0.26872 0.0
H950 H 0.17176 0.41361 0.22518 0.0
H951 H 0.19648 0.47173 0.21055 0.0
C952 C 0.15699 0.36038 0.28177 0.0
C953 C 0.1519 0.32418 0.27326 0.0
C954 C 0.17519 0.39253 0.27378 0.0
C955 C 0.18851 0.38926 0.25709 0.0
C956 C 0.18439 0.3528 0.24874 0.0
C957 C 0.1664 0.32064 0.25673 0.0
C958 C 0.2462 0.48339 0.2476 0.0
C959 C 0.23368 0.49203 0.23111 0.0
C960 C 0.23184 0.44992 0.25602 0.0
C961 C 0.20493 0.42419 0.2481 0.0
C962 C 0.19288 0.43253 0.23156 0.0
C963 C 0.20696 0.46605 0.22319 0.0
H964 H 0.50153 0.73311 0.74753 0.0
H965 H 0.47171 0.80495 0.79078 0.0
H966 H 0.44261 0.75745 0.73303 0.0
H967 H 0.41329 0.8293 0.77621 0.0
H968 H 0.29272 0.83845 0.75167 0.0
H969 H 0.34847 0.80684 0.76569 0.0
H970 H 0.41935 0.82108 0.72088 0.0
H971 H 0.36352 0.85245 0.70671 0.0
C972 C 0.48237 0.75386 0.754 0.0
C973 C 0.49146 0.76701 0.77036 0.0
C974 C 0.44873 0.76796 0.74564 0.0
C975 C 0.42328 0.79528 0.75347 0.0
C976 C 0.43201 0.80788 0.76991 0.0
C977 C 0.4657 0.79402 0.77823 0.0
C978 C 0.32003 0.83461 0.74471 0.0
C979 C 0.32359 0.84827 0.72805 0.0
C980 C 0.35207 0.81663 0.7528 0.0
C981 C 0.3884 0.81168 0.74444 0.0
C982 C 0.39164 0.82417 0.72763 0.0
C983 C 0.35965 0.84234 0.71953 0.0
H984 H 0.73373 0.49918 0.25382 0.0
H985 H 0.80427 0.52978 0.2103 0.0
H986 H 0.75853 0.55787 0.2684 0.0
H987 H 0.82903 0.58794 0.22492 0.0
H988 H 0.83751 0.7085 0.24944 0.0
H989 H 0.80604 0.65249 0.2356 0.0
H990 H 0.82266 0.58156 0.28024 0.0
H991 H 0.85396 0.63773 0.29427 0.0
C992 C 0.75428 0.51846 0.24731 0.0
C993 C 0.76689 0.5097 0.23085 0.0
C994 C 0.76866 0.55195 0.25572 0.0
C995 C 0.79568 0.57757 0.2478 0.0
C996 C 0.80783 0.5691 0.23128 0.0
C997 C 0.79372 0.53557 0.22293 0.0
C998 C 0.83426 0.68112 0.25641 0.0
C999 C 0.84854 0.67768 0.27298 0.0
C1000 C 0.81635 0.64894 0.24841 0.0
C1001 C 0.8121 0.61252 0.25678 0.0
C1002 C 0.82523 0.60933 0.27351 0.0
C1003 C 0.84335 0.64151 0.28151 0.0
H1004 H 0.49904 0.26696 0.74705 0.0
H1005 H 0.53165 0.19817 0.79081 0.0
H1006 H 0.55754 0.2423 0.73231 0.0
H1007 H 0.58963 0.17352 0.77604 0.0
H1008 H 0.70926 0.16458 0.75079 0.0
H1009 H 0.65362 0.1963 0.76481 0.0
H1010 H 0.58126 0.17814 0.72069 0.0
H1011 H 0.63704 0.14664 0.70649 0.0
C1012 C 0.51873 0.24684 0.75358 0.0
C1013 C 0.51056 0.23464 0.77015 0.0
C1014 C 0.55212 0.23253 0.74508 0.0
C1015 C 0.57823 0.206 0.75301 0.0
C1016 C 0.57039 0.19434 0.76965 0.0
C1017 C 0.53696 0.20837 0.77809 0.0
C1018 C 0.68165 0.16756 0.74397 0.0
C1019 C 0.67768 0.15278 0.7275 0.0
C1020 C 0.64967 0.1856 0.75207 0.0
C1021 C 0.61297 0.1895 0.74391 0.0
C1022 C 0.60927 0.17588 0.72727 0.0
C1023 C 0.64123 0.15764 0.71916 0.0
H1024 H 0.23313 0.98094 0.99499 0.0
H1025 H 0.23865 0.04472 0.04193 0.0
H1026 H 0.2065 0.03934 0.98112 0.0
H1027 H 0.21505 0.1043 0.02796 0.0
H1028 H 0.1293 0.19033 0.00405 0.0
H1029 H 0.15985 0.13364 0.01751 0.0
H1030 H 0.21464 0.10126 0.97021 0.0
H1031 H 0.18119 0.15661 0.95658 0.0
C1032 C 0.2294 0.00785 0.00225 0.0
C1033 C 0.2376 0.00829 0.01954 0.0
C1034 C 0.21436 0.04159 0.99428 0.0
C1035 C 0.20817 0.07696 0.00334 0.0
C1036 C 0.2181 0.07756 0.02057 0.0
C1037 C 0.23203 0.04348 0.02861 0.0
C1038 C 0.14802 0.17114 0.99657 0.0
C1039 C 0.15279 0.1778 0.97927 0.0
C1040 C 0.16594 0.13863 0.00432 0.0
C1041 C 0.19008 0.11245 0.99506 0.0
C1042 C 0.19565 0.11996 0.97777 0.0
C1043 C 0.17676 0.15192 0.96993 0.0
H1044 H 0.20852 0.83319 1.00041 0.0
H1045 H 0.13695 0.85718 0.04439 0.0
H1046 H 0.15192 0.80213 0.98686 0.0
H1047 H 0.08019 0.8261 0.03065 0.0
H1048 H 0.02998 0.80219 0.96088 0.0
H1049 H 0.08822 0.8269 0.97546 0.0
H1050 H 0.05529 0.76075 0.01978 0.0
H1051 H 0.99659 0.73587 0.00522 0.0
C1052 C 0.18084 0.83167 0.00727 0.0
C1053 C 0.17734 0.84798 0.0235 0.0
C1054 C 0.14833 0.81398 0.99943 0.0
C1055 C 0.11155 0.81192 0.00764 0.0
C1056 C 0.10825 0.82702 0.02406 0.0
C1057 C 0.14076 0.84499 0.03189 0.0
C1058 C 0.03515 0.79258 0.97369 0.0
C1059 C 0.00853 0.76689 0.98184 0.0
C1060 C 0.06871 0.80666 0.98202 0.0
C1061 C 0.0764 0.79569 0.99875 0.0
C1062 C 0.04997 0.76991 0.00692 0.0
C1063 C 0.01649 0.75549 0.99853 0.0
H1064 H 0.85292 0.86289 0.95698 0.0
H1065 H 0.83639 0.79192 0.00175 0.0
H1066 H 0.82147 0.91891 0.97099 0.0
H1067 H 0.8047 0.84787 0.0156 0.0
H1068 H 0.73261 0.0013 0.99685 0.0
H1069 H 0.75736 0.94228 0.98258 0.0
H1070 H 0.82694 0.91264 0.02638 0.0
H1071 H 0.80215 0.97123 0.04073 0.0
C1072 C 0.84224 0.85903 0.96973 0.0
C1073 C 0.84745 0.82285 0.97824 0.0
C1074 C 0.82403 0.89113 0.97772 0.0
C1075 C 0.81078 0.88788 0.99443 0.0
C1076 C 0.81508 0.85147 0.00279 0.0
C1077 C 0.8331 0.81932 0.99479 0.0
C1078 C 0.75293 0.98205 0.00351 0.0
C1079 C 0.76533 0.99111 0.01998 0.0
C1080 C 0.76728 0.94835 0.99528 0.0
C1081 C 0.79411 0.9228 0.00335 0.0
C1082 C 0.80592 0.93145 0.01989 0.0
C1083 C 0.79181 0.96522 0.02809 0.0
H1084 H 0.79349 0.16108 0.99867 0.0
H1085 H 0.8623 0.14839 0.04426 0.0
H1086 H 0.84987 0.19211 0.98491 0.0
H1087 H 0.91878 0.17931 0.03033 0.0
H1088 H 1.00049 0.2685 0.00378 0.0
H1089 H 0.94149 0.24346 0.01799 0.0
H1090 H 0.9157 0.16922 0.97513 0.0
H1091 H 0.97434 0.19417 0.96087 0.0
C1092 C 0.8205 0.16507 0.00582 0.0
C1093 C 0.8233 0.15199 0.02259 0.0
C1094 C 0.8529 0.18271 0.99787 0.0
C1095 C 0.88883 0.18794 0.0065 0.0
C1096 C 0.89137 0.17596 0.0234 0.0
C1097 C 0.85902 0.15806 0.03135 0.0
C1098 C 0.98211 0.24705 0.99732 0.0
C1099 C 0.99223 0.23344 0.98114 0.0
C1100 C 0.94844 0.23255 0.00552 0.0
C1101 C 0.92395 0.20441 0.99768 0.0
C1102 C 0.9337 0.19127 0.98143 0.0
C1103 C 0.96748 0.20548 0.97328 0.0
H1104 H 0.64736 0.86442 0.79458 0.0
H1105 H 0.66326 0.79309 0.74987 0.0
H1106 H 0.67864 0.92035 0.7804 0.0
H1107 H 0.69474 0.84889 0.73587 0.0
H1108 H 0.69683 0.97146 0.71036 0.0
H1109 H 0.67208 0.91339 0.72505 0.0
H1110 H 0.74263 0.9438 0.76848 0.0
H1111 H 0.7674 0.00238 0.75383 0.0
C1112 C 0.65785 0.86046 0.78181 0.0
C1113 C 0.65251 0.8242 0.77337 0.0
C1114 C 0.67597 0.89251 0.77372 0.0
C1115 C 0.68896 0.88911 0.75698 0.0
C1116 C 0.68454 0.85261 0.74869 0.0
C1117 C 0.66664 0.82054 0.75678 0.0
C1118 C 0.70739 0.96576 0.72299 0.0
C1119 C 0.73421 0.99171 0.73088 0.0
C1120 C 0.6933 0.93228 0.73139 0.0
C1121 C 0.70544 0.92394 0.74792 0.0
C1122 C 0.73249 0.94962 0.75579 0.0
C1123 C 0.74685 0.98305 0.74734 0.0
H1124 H 0.00129 0.23404 0.24696 0.0
H1125 H 0.97048 0.30415 0.29059 0.0
H1126 H 0.94267 0.25883 0.23241 0.0
H1127 H 0.9123 0.32898 0.27597 0.0
H1128 H 0.86348 0.35399 0.20636 0.0
H1129 H 0.91937 0.32278 0.22058 0.0
H1130 H 0.84777 0.30657 0.26506 0.0
H1131 H 0.79199 0.338 0.25101 0.0
C1132 C 0.98197 0.2545 0.25351 0.0
C1133 C 0.99069 0.26702 0.26999 0.0
C1134 C 0.9485 0.26888 0.24511 0.0
C1135 C 0.92285 0.29585 0.25303 0.0
C1136 C 0.93119 0.30784 0.26959 0.0
C1137 C 0.96473 0.2937 0.27795 0.0
C1138 C 0.85948 0.34348 0.21913 0.0
C1139 C 0.82319 0.34877 0.22754 0.0
C1140 C 0.8915 0.32542 0.22725 0.0
C1141 C 0.88805 0.3124 0.24398 0.0
C1142 C 0.85153 0.31678 0.25224 0.0
C1143 C 0.81947 0.33465 0.24413 0.0
H1144 H 0.23489 0.99912 0.75435 0.0
H1145 H 0.30607 0.02947 0.71099 0.0
H1146 H 0.25991 0.05758 0.76902 0.0
H1147 H 0.331 0.08745 0.72569 0.0
H1148 H 0.35547 0.13705 0.79508 0.0
H1149 H 0.32427 0.08094 0.78096 0.0
H1150 H 0.30777 0.15213 0.73639 0.0
H1151 H 0.33907 0.20811 0.75034 0.0
C1152 C 0.25563 0.0183 0.74789 0.0
C1153 C 0.26833 0.00953 0.73144 0.0
C1154 C 0.27013 0.05165 0.75635 0.0
C1155 C 0.29736 0.07716 0.74851 0.0
C1156 C 0.30964 0.06869 0.73201 0.0
C1157 C 0.29543 0.03526 0.7236 0.0
C1158 C 0.3449 0.14091 0.78232 0.0
C1159 C 0.35006 0.17715 0.77384 0.0
C1160 C 0.32685 0.10876 0.77426 0.0
C1161 C 0.31378 0.11205 0.75753 0.0
C1162 C 0.31803 0.14852 0.74921 0.0
C1163 C 0.33583 0.18068 0.75727 0.0
H1164 H 0.99918 0.76798 0.24688 0.0
H1165 H 0.02976 0.69802 0.29058 0.0
H1166 H 0.05789 0.74314 0.2324 0.0
H1167 H 0.08802 0.67315 0.27603 0.0
H1168 H 0.20839 0.66384 0.25116 0.0
H1169 H 0.15262 0.69545 0.26515 0.0
H1170 H 0.08113 0.67908 0.22065 0.0
H1171 H 0.137 0.64769 0.20649 0.0
C1172 C 0.01847 0.74755 0.25346 0.0
C1173 C 0.00965 0.73508 0.26994 0.0
C1174 C 0.05199 0.73314 0.2451 0.0
C1175 C 0.07759 0.70619 0.25306 0.0
C1176 C 0.06916 0.69427 0.26962 0.0
C1177 C 0.03558 0.70843 0.27793 0.0
C1178 C 0.18094 0.6672 0.24425 0.0
C1179 C 0.17724 0.65297 0.22768 0.0
C1180 C 0.14889 0.68517 0.25234 0.0
C1181 C 0.11239 0.68955 0.24405 0.0
C1182 C 0.10896 0.67644 0.22733 0.0
C1183 C 0.14098 0.65827 0.21924 0.0
H1184 H 0.6968 0.52938 0.5402 0.0
H1185 H 0.76699 0.49898 0.49655 0.0
H1186 H 0.67199 0.58767 0.52569 0.0
H1187 H 0.74216 0.55779 0.48209 0.0
H1188 H 0.6632 0.70834 0.50124 0.0
H1189 H 0.69471 0.65227 0.51503 0.0
H1190 H 0.67811 0.58155 0.47032 0.0
H1191 H 0.6468 0.63777 0.45635 0.0
C1192 C 0.70727 0.53524 0.52757 0.0
C1193 C 0.734 0.50938 0.51958 0.0
C1194 C 0.69314 0.56885 0.51928 0.0
C1195 C 0.70516 0.5774 0.50275 0.0
C1196 C 0.73211 0.55181 0.49477 0.0
C1197 C 0.74651 0.51824 0.50312 0.0
C1198 C 0.66647 0.681 0.49425 0.0
C1199 C 0.65219 0.67762 0.47767 0.0
C1200 C 0.68439 0.64877 0.50222 0.0
C1201 C 0.68867 0.6124 0.49382 0.0
C1202 C 0.67553 0.60929 0.47709 0.0
C1203 C 0.6574 0.6415 0.46911 0.0
H1204 H 0.70851 0.33774 0.49911 0.0
H1205 H 0.63761 0.3533 0.54395 0.0
H1206 H 0.65261 0.3062 0.48517 0.0
H1207 H 0.58163 0.32201 0.52985 0.0
H1208 H 0.52937 0.30369 0.46003 0.0
H1209 H 0.58784 0.32844 0.47447 0.0
H1210 H 0.55834 0.25808 0.51806 0.0
H1211 H 0.49942 0.23338 0.5037 0.0
C1212 C 0.68114 0.33427 0.50606 0.0
C1213 C 0.67762 0.3483 0.52267 0.0
C1214 C 0.64902 0.31634 0.49801 0.0
C1215 C 0.61263 0.31181 0.50637 0.0
C1216 C 0.60938 0.32475 0.52312 0.0
C1217 C 0.64147 0.34287 0.53117 0.0
C1218 C 0.53538 0.29318 0.47264 0.0
C1219 C 0.50956 0.26648 0.48067 0.0
C1220 C 0.56908 0.30726 0.48089 0.0
C1221 C 0.57774 0.29521 0.49741 0.0
C1222 C 0.55225 0.26819 0.50539 0.0
C1223 C 0.51862 0.25387 0.49711 0.0
H1224 H 0.30405 0.4725 0.54047 0.0
H1225 H 0.2336 0.50268 0.49686 0.0
H1226 H 0.32887 0.41421 0.52596 0.0
H1227 H 0.25844 0.44387 0.4824 0.0
H1228 H 0.33767 0.29345 0.5015 0.0
H1229 H 0.30626 0.34954 0.51534 0.0
H1230 H 0.32241 0.42018 0.47058 0.0
H1231 H 0.35361 0.36395 0.45657 0.0
C1232 C 0.29353 0.46659 0.52784 0.0
C1233 C 0.26672 0.4924 0.51987 0.0
C1234 C 0.30767 0.43298 0.51955 0.0
C1235 C 0.29558 0.42437 0.50304 0.0
C1236 C 0.26855 0.4499 0.49508 0.0
C1237 C 0.25415 0.48346 0.50342 0.0
C1238 C 0.33432 0.32079 0.49451 0.0
C1239 C 0.34843 0.32413 0.47791 0.0
C1240 C 0.31646 0.35302 0.5025 0.0
C1241 C 0.31207 0.38937 0.4941 0.0
C1242 C 0.32507 0.39246 0.47735 0.0
C1243 C 0.34313 0.36024 0.46935 0.0
H1244 H 0.47106 0.69782 0.46008 0.0
H1245 H 0.50131 0.76815 0.50371 0.0
H1246 H 0.4127 0.67307 0.47459 0.0
H1247 H 0.44251 0.74345 0.51815 0.0
H1248 H 0.29214 0.66399 0.49934 0.0
H1249 H 0.34802 0.69541 0.48535 0.0
H1250 H 0.41918 0.67957 0.52998 0.0
H1251 H 0.36321 0.64839 0.54413 0.0
C1252 C 0.46515 0.70834 0.4727 0.0
C1253 C 0.49101 0.73505 0.4807 0.0
C1254 C 0.43151 0.69425 0.48099 0.0
C1255 C 0.42296 0.70632 0.49752 0.0
C1256 C 0.4485 0.73333 0.50548 0.0
C1257 C 0.48208 0.74766 0.49714 0.0
C1258 C 0.31955 0.66742 0.50626 0.0
C1259 C 0.32312 0.65342 0.52287 0.0
C1260 C 0.35166 0.68528 0.49818 0.0
C1261 C 0.38809 0.68976 0.50651 0.0
C1262 C 0.3914 0.67685 0.52327 0.0
C1263 C 0.35932 0.6588 0.53135 0.0
H1264 H 0.35863 0.27049 0.39283 0.0
H1265 H 0.26488 0.22717 0.42496 0.0
H1266 H 0.31374 0.26937 0.36889 0.0
H1267 H 0.22016 0.22518 0.40087 0.0
H1268 H 0.23425 0.2269 0.32627 0.0
H1269 H 0.27886 0.22486 0.35039 0.0
H1270 H 0.18534 0.26958 0.38227 0.0
H1271 H 0.14053 0.27073 0.35829 0.0
C1272 C 0.32849 0.26047 0.39477 0.0
C1273 C 0.31531 0.24908 0.41084 0.0
C1274 C 0.3028 0.25959 0.381 0.0
C1275 C 0.2633 0.24718 0.38292 0.0
C1276 C 0.25022 0.23544 0.39897 0.0
C1277 C 0.27592 0.23641 0.41278 0.0
C1278 C 0.2232 0.23624 0.33843 0.0
C1279 C 0.18385 0.24908 0.34033 0.0
C1280 C 0.24883 0.23525 0.35225 0.0
C1281 C 0.23575 0.24715 0.36829 0.0
C1282 C 0.19628 0.25969 0.37018 0.0
C1283 C 0.17064 0.26059 0.35638 0.0
H1284 H 0.22753 0.73616 0.57596 0.0
H1285 H 0.27008 0.64234 0.60825 0.0
H1286 H 0.22576 0.7811 0.59998 0.0
H1287 H 0.26916 0.68746 0.63213 0.0
H1288 H 0.27161 0.86077 0.64256 0.0
H1289 H 0.27035 0.8158 0.6186 0.0
H1290 H 0.22459 0.7228 0.65049 0.0
H1291 H 0.22669 0.76753 0.67456 0.0
C1292 C 0.23664 0.72514 0.58816 0.0
C1293 C 0.24904 0.68567 0.59016 0.0
C1294 C 0.23581 0.75097 0.60192 0.0
C1295 C 0.24738 0.73796 0.618 0.0
C1296 C 0.25951 0.69837 0.61999 0.0
C1297 C 0.26028 0.67254 0.60625 0.0
C1298 C 0.26121 0.83074 0.64447 0.0
C1299 C 0.24944 0.8177 0.66051 0.0
C1300 C 0.26026 0.80501 0.63069 0.0
C1301 C 0.24741 0.76563 0.6326 0.0
C1302 C 0.23523 0.75275 0.64862 0.0
C1303 C 0.23625 0.77846 0.66241 0.0
H1304 H 0.64138 0.73125 0.39264 0.0
H1305 H 0.73514 0.77483 0.42469 0.0
H1306 H 0.68619 0.73239 0.36867 0.0
H1307 H 0.77978 0.77686 0.40058 0.0
H1308 H 0.76563 0.77482 0.326 0.0
H1309 H 0.72101 0.77685 0.35011 0.0
H1310 H 0.81461 0.7324 0.38202 0.0
H1311 H 0.85942 0.73125 0.35805 0.0
C1312 C 0.6715 0.74133 0.39456 0.0
C1313 C 0.68471 0.75278 0.41062 0.0
C1314 C 0.69715 0.74223 0.38077 0.0
C1315 C 0.73663 0.75471 0.38267 0.0
C1316 C 0.74973 0.76653 0.39871 0.0
C1317 C 0.72408 0.76554 0.41253 0.0
C1318 C 0.7767 0.76553 0.33817 0.0
C1319 C 0.81607 0.75277 0.34008 0.0
C1320 C 0.75105 0.76653 0.35199 0.0
C1321 C 0.76416 0.75471 0.36803 0.0
C1322 C 0.80364 0.74223 0.36992 0.0
C1323 C 0.82929 0.74133 0.35613 0.0
H1324 H 0.77382 0.2343 0.67429 0.0
H1325 H 0.7299 0.14085 0.64214 0.0
H1326 H 0.77571 0.27916 0.65027 0.0
H1327 H 0.73094 0.18593 0.61823 0.0
H1328 H 0.73016 0.35941 0.60796 0.0
H1329 H 0.73112 0.31425 0.63183 0.0
H1330 H 0.77547 0.22097 0.59972 0.0
H1331 H 0.77366 0.26594 0.57572 0.0
C1332 C 0.76442 0.22336 0.66212 0.0
C1333 C 0.7516 0.18401 0.66016 0.0
C1334 C 0.76533 0.24914 0.64835 0.0
C1335 C 0.75338 0.23623 0.6323 0.0
C1336 C 0.74086 0.19676 0.63035 0.0
C1337 C 0.74003 0.17095 0.6441 0.0
C1338 C 0.74018 0.32929 0.60598 0.0
C1339 C 0.75168 0.31626 0.5899 0.0
C1340 C 0.74096 0.30343 0.61971 0.0
C1341 C 0.75337 0.26393 0.61772 0.0
C1342 C 0.76521 0.25102 0.60166 0.0
C1343 C 0.76435 0.27687 0.58791 0.0
H1344 H 0.2373 0.2742 0.92562 0.0
H1345 H 0.1437 0.23077 0.89343 0.0
H1346 H 0.28219 0.27593 0.90159 0.0
H1347 H 0.18877 0.23163 0.86955 0.0
H1348 H 0.2685 0.27385 0.827 0.0
H1349 H 0.22381 0.27604 0.85107 0.0
H1350 H 0.31712 0.23133 0.88306 0.0
H1351 H 0.36205 0.23 0.85911 0.0
C1352 C 0.22632 0.2649 0.91344 0.0
C1353 C 0.18693 0.25228 0.91147 0.0
C1354 C 0.25213 0.26571 0.89967 0.0
C1355 C 0.23915 0.25385 0.88362 0.0
C1356 C 0.19964 0.2415 0.88166 0.0
C1357 C 0.17384 0.24078 0.8954 0.0
C1358 C 0.2795 0.26452 0.83918 0.0
C1359 C 0.31882 0.25163 0.84111 0.0
C1360 C 0.25381 0.26561 0.85297 0.0
C1361 C 0.26679 0.25376 0.86902 0.0
C1362 C 0.30625 0.24117 0.87095 0.0
C1363 C 0.33196 0.24017 0.85717 0.0
H1364 H 0.22913 0.6404 0.14228 0.0
H1365 H 0.27379 0.73414 0.17409 0.0
H1366 H 0.23016 0.6851 0.11824 0.0
H1367 H 0.27568 0.7786 0.14994 0.0
H1368 H 0.27299 0.76459 0.07546 0.0
H1369 H 0.27456 0.71974 0.09952 0.0
H1370 H 0.23099 0.81356 0.13155 0.0
H1371 H 0.23029 0.85855 0.10764 0.0
C1372 C 0.23942 0.67048 0.14413 0.0
C1373 C 0.25119 0.68375 0.16014 0.0
C1374 C 0.24024 0.69606 0.13031 0.0
C1375 C 0.25296 0.7355 0.13214 0.0
C1376 C 0.26513 0.74861 0.14812 0.0
C1377 C 0.26422 0.72305 0.16196 0.0
C1378 C 0.26376 0.77564 0.08764 0.0
C1379 C 0.25145 0.81514 0.08961 0.0
C1380 C 0.26449 0.74987 0.10143 0.0
C1381 C 0.25288 0.763 0.11749 0.0
C1382 C 0.2407 0.80258 0.11943 0.0
C1383 C 0.24005 0.82833 0.10567 0.0
H1384 H 0.8598 0.77065 0.89306 0.0
H1385 H 0.7662 0.72658 0.92508 0.0
H1386 H 0.8148 0.76996 0.86914 0.0
H1387 H 0.7214 0.72503 0.90103 0.0
H1388 H 0.73491 0.72794 0.82649 0.0
H1389 H 0.77975 0.72569 0.85052 0.0
H1390 H 0.68647 0.76994 0.88265 0.0
H1391 H 0.64143 0.77134 0.85874 0.0
C1392 C 0.82968 0.76056 0.89498 0.0
C1393 C 0.81656 0.74884 0.91102 0.0
C1394 C 0.80392 0.75993 0.88122 0.0
C1395 C 0.76443 0.74746 0.88313 0.0
C1396 C 0.75144 0.73536 0.89915 0.0
C1397 C 0.77719 0.73607 0.91293 0.0
C1398 C 0.72396 0.73715 0.83869 0.0
C1399 C 0.68461 0.74992 0.84068 0.0
C1400 C 0.74973 0.73603 0.85246 0.0
C1401 C 0.73678 0.74771 0.86854 0.0
C1402 C 0.69732 0.76021 0.87052 0.0
C1403 C 0.67154 0.76126 0.85677 0.0
H1404 H 0.76896 0.14265 0.10761 0.0
H1405 H 0.72686 0.23665 0.07531 0.0
H1406 H 0.76812 0.18769 0.13149 0.0
H1407 H 0.72514 0.28155 0.09936 0.0
H1408 H 0.77095 0.36088 0.14209 0.0
H1409 H 0.76959 0.3161 0.11807 0.0
H1410 H 0.72368 0.22296 0.14985 0.0
H1411 H 0.72592 0.26749 0.17398 0.0
C1412 C 0.75927 0.17288 0.10561 0.0
C1413 C 0.74812 0.18607 0.08951 0.0
C1414 C 0.75854 0.19867 0.11936 0.0
C1415 C 0.74653 0.23828 0.11738 0.0
C1416 C 0.73508 0.25139 0.10129 0.0
C1417 C 0.73589 0.22559 0.08752 0.0
C1418 C 0.76051 0.33086 0.14396 0.0
C1419 C 0.74874 0.31771 0.15998 0.0
C1420 C 0.75948 0.30524 0.13015 0.0
C1421 C 0.74657 0.26587 0.13201 0.0
C1422 C 0.73438 0.25289 0.14801 0.0
C1423 C 0.73549 0.27849 0.16184 0.0
H1424 H 0.93944 0.91709 0.26406 0.0
H1425 H 0.99451 0.89642 0.31233 0.0
H1426 H 0.96354 0.98542 0.26439 0.0
H1427 H 0.01783 0.96522 0.31277 0.0
H1428 H 0.00527 0.10562 0.31238 0.0
H1429 H 0.98188 0.03685 0.31276 0.0
H1430 H 0.03645 0.01669 0.26444 0.0
H1431 H 0.06062 0.08499 0.26416 0.0
C1432 C 0.9565 0.92721 0.27477 0.0
C1433 C 0.96522 0.90142 0.28815 0.0
C1434 C 0.97038 0.96621 0.27492 0.0
C1435 C 0.9925 0.98042 0.2886 0.0
C1436 C 0.00069 0.95491 0.30212 0.0
C1437 C 0.98753 0.9156 0.30181 0.0
C1438 C 0.0123 0.08646 0.30186 0.0
C1439 C 0.03471 0.10064 0.28823 0.0
C1440 C 0.9991 0.04716 0.30213 0.0
C1441 C 0.00735 0.02167 0.28861 0.0
C1442 C 0.02956 0.03589 0.27496 0.0
C1443 C 0.04348 0.07487 0.27485 0.0
H1444 H 0.92529 0.08839 0.72257 0.0
H1445 H 0.88709 0.97719 0.70103 0.0
H1446 H 0.99388 0.0657 0.72171 0.0
H1447 H 0.95582 0.95458 0.70021 0.0
H1448 H 0.07644 0.91383 0.72258 0.0
H1449 H 0.00791 0.93662 0.72154 0.0
H1450 H 0.04652 0.04807 0.70055 0.0
H1451 H 0.11523 0.02536 0.70156 0.0
C1452 C 0.93151 0.05915 0.71761 0.0
C1453 C 0.90068 0.03452 0.71193 0.0
C1454 C 0.97085 0.04627 0.71703 0.0
C1455 C 0.98021 0.00835 0.71092 0.0
C1456 C 0.94944 0.98382 0.70513 0.0
C1457 C 0.91011 0.99685 0.70554 0.0
C1458 C 0.07036 0.94317 0.7177 0.0
C1459 C 0.10134 0.96786 0.71221 0.0
C1460 C 0.03106 0.9561 0.71701 0.0
C1461 C 0.02186 0.99413 0.71099 0.0
C1462 C 0.05277 0.01874 0.7054 0.0
C1463 C 0.09208 0.00565 0.70591 0.0
H1464 H 0.08924 0.42563 0.97344 0.0
H1465 H 0.97886 0.3869 0.95133 0.0
H1466 H 0.06603 0.4941 0.97266 0.0
H1467 H 0.95574 0.45546 0.95061 0.0
H1468 H 0.91349 0.57532 0.97323 0.0
H1469 H 0.937 0.507 0.97219 0.0
H1470 H 0.04823 0.54684 0.95141 0.0
H1471 H 0.02478 0.6153 0.9524 0.0
C1472 C 0.06009 0.43172 0.96836 0.0
C1473 C 0.03583 0.40078 0.96251 0.0
C1474 C 0.04691 0.47096 0.96783 0.0
C1475 C 0.00905 0.4801 0.9616 0.0
C1476 C 0.98491 0.44924 0.95562 0.0
C1477 C 0.99825 0.41002 0.95597 0.0
C1478 C 0.94293 0.56955 0.96839 0.0
C1479 C 0.96733 0.60078 0.96295 0.0
C1480 C 0.95628 0.53038 0.96771 0.0
C1481 C 0.99445 0.5216 0.96173 0.0
C1482 C 0.01879 0.55278 0.95621 0.0
C1483 C 0.00528 0.59194 0.95672 0.0
H1484 H 0.41676 0.93895 0.01323 0.0
H1485 H 0.39544 0.99425 0.06142 0.0
H1486 H 0.48487 0.96372 0.01357 0.0
H1487 H 0.46396 0.01823 0.06186 0.0
H1488 H 0.6042 0.00668 0.06182 0.0
H1489 H 0.53561 0.98282 0.06205 0.0
H1490 H 0.51583 0.03675 0.01357 0.0
H1491 H 0.58396 0.06138 0.01343 0.0
C1492 C 0.42668 0.95623 0.02392 0.0
C1493 C 0.40079 0.9648 0.03728 0.0
C1494 C 0.46554 0.97048 0.02407 0.0
C1495 C 0.47949 0.99283 0.03774 0.0
C1496 C 0.45386 0.00091 0.05122 0.0
C1497 C 0.4147 0.98738 0.05091 0.0
C1498 C 0.58516 0.01347 0.05123 0.0
C1499 C 0.59939 0.03584 0.0376 0.0
C1500 C 0.54597 1.0 0.05141 0.0
C1501 C 0.52064 0.00792 0.03781 0.0
C1502 C 0.53491 0.0301 0.02416 0.0
C1503 C 0.57378 0.0443 0.02413 0.0
H1504 H 0.41366 0.42533 0.77849 0.0
H1505 H 0.52501 0.38677 0.79975 0.0
H1506 H 0.43653 0.49388 0.77935 0.0
H1507 H 0.54779 0.45545 0.80057 0.0
H1508 H 0.58845 0.57629 0.77839 0.0
H1509 H 0.56554 0.50776 0.77923 0.0
H1510 H 0.45451 0.54618 0.80068 0.0
H1511 H 0.47734 0.61485 0.79988 0.0
C1512 C 0.44297 0.43146 0.78338 0.0
C1513 C 0.46758 0.40055 0.78899 0.0
C1514 C 0.45595 0.47077 0.78396 0.0
C1515 C 0.49396 0.48001 0.79 0.0
C1516 C 0.51849 0.44916 0.7957 0.0
C1517 C 0.50535 0.40986 0.7953 0.0
C1518 C 0.55918 0.57016 0.78333 0.0
C1519 C 0.53465 0.60106 0.78901 0.0
C1520 C 0.54618 0.53086 0.7839 0.0
C1521 C 0.50823 0.52162 0.79 0.0
C1522 C 0.48377 0.55247 0.79577 0.0
C1523 C 0.49693 0.59176 0.79538 0.0
H1524 H 0.5756 0.41342 0.22247 0.0
H1525 H 0.61426 0.52466 0.20113 0.0
H1526 H 0.50709 0.43635 0.2216 0.0
H1527 H 0.54561 0.54751 0.20029 0.0
H1528 H 0.42487 0.58833 0.22258 0.0
H1529 H 0.49338 0.56542 0.22162 0.0
H1530 H 0.45475 0.45427 0.20033 0.0
H1531 H 0.3861 0.4771 0.20125 0.0
C1532 C 0.5695 0.44273 0.21756 0.0
C1533 C 0.60043 0.46729 0.21193 0.0
C1534 C 0.53021 0.45574 0.21697 0.0
C1535 C 0.521 0.49373 0.2109 0.0
C1536 C 0.55187 0.51821 0.20518 0.0
C1537 C 0.59115 0.50504 0.20559 0.0
C1538 C 0.43095 0.55903 0.21765 0.0
C1539 C 0.39999 0.53447 0.21206 0.0
C1540 C 0.47023 0.54603 0.21701 0.0
C1541 C 0.47941 0.50805 0.21092 0.0
C1542 C 0.44851 0.48356 0.20523 0.0
C1543 C 0.40923 0.49672 0.20569 0.0
H1544 H 0.49418 0.10532 0.43841 0.0
H1545 H 0.43935 0.08462 0.48673 0.0
H1546 H 0.51776 0.03661 0.438 0.0
H1547 H 0.46371 0.01638 0.48642 0.0
H1548 H 0.56101 0.91702 0.48667 0.0
H1549 H 0.53662 0.98525 0.48638 0.0
H1550 H 0.48222 0.96492 0.43803 0.0
H1551 H 0.50584 0.89623 0.43842 0.0
C1552 C 0.4873 0.08615 0.44895 0.0
C1553 C 0.46498 0.1003 0.46261 0.0
C1554 C 0.50061 0.04689 0.44866 0.0
C1555 C 0.49258 0.0214 0.4622 0.0
C1556 C 0.47044 0.03557 0.47588 0.0
C1557 C 0.45641 0.07452 0.47601 0.0
C1558 C 0.54387 0.92709 0.47597 0.0
C1559 C 0.53521 0.90129 0.46259 0.0
C1560 C 0.52982 0.96603 0.47585 0.0
C1561 C 0.50758 0.98018 0.46219 0.0
C1562 C 0.49945 0.95467 0.44867 0.0
C1563 C 0.51278 0.91541 0.44895 0.0
H1564 H 0.9253 0.41323 0.52775 0.0
H1565 H 0.88615 0.52424 0.54917 0.0
H1566 H 0.99373 0.43639 0.52871 0.0
H1567 H 0.95471 0.54732 0.55007 0.0
H1568 H 0.07544 0.58863 0.52792 0.0
H1569 H 0.007 0.56545 0.52875 0.0
H1570 H 0.04586 0.45447 0.55012 0.0
H1571 H 0.11443 0.47757 0.54933 0.0
C1572 C 0.93128 0.44253 0.5327 0.0
C1573 C 0.90024 0.46696 0.53832 0.0
C1574 C 0.97051 0.45568 0.53333 0.0
C1575 C 0.97956 0.49368 0.53944 0.0
C1576 C 0.94858 0.51803 0.54516 0.0
C1577 C 0.90935 0.50472 0.5447 0.0
C1578 C 0.06942 0.55931 0.53284 0.0
C1579 C 0.10042 0.53487 0.53849 0.0
C1580 C 0.03018 0.54616 0.53341 0.0
C1581 C 0.0211 0.50814 0.53948 0.0
C1582 C 0.05203 0.48378 0.54523 0.0
C1583 C 0.09126 0.4971 0.54484 0.0
loop_
_geom_bond_atom_site_label_1
_geom_bond_atom_site_label_2
_geom_bond_distance
_geom_bond_site_symmetry_2
_ccdc_geom_bond_type
Co0 O2 2.143 . S
Co0 O8 2.074 . S
Co0 O11 2.093 . S
Co0 O24 2.097 . S
Co0 N41 2.151 . S
Co0 N49 2.214 . S
Co1 O2 2.160 . S
Co1 O7 2.058 . S
Co1 O17 2.057 . S
Co1 O32 2.037 . S
Co1 N36 2.145 . S
Co1 N57 2.257 . S
O2 Co0 2.143 . S
O2 Co1 2.160 . S
C3 O4 1.278 . S
C3 O11 1.224 . S
O4 C3 1.278 . S
C5 O6 1.245 . S
C5 O17 1.232 . S
O6 C5 1.245 . S
O7 Co1 2.058 . S
O7 C33 1.269 . S
O8 Co0 2.074 . S
O8 C33 1.257 . S
H9 C34 0.930 . S
H10 C40 0.930 . S
O11 Co0 2.093 . S
O11 C3 1.224 . S
H12 C44 0.929 . S
H13 C46 0.930 . S
H14 C47 0.930 . S
H15 C45 0.929 . S
H16 C48 0.928 . S
O17 Co1 2.057 . S
O17 C5 1.232 . S
H18 C37 0.929 . S
H19 C38 0.929 . S
H20 C50 0.931 . S
H21 C42 0.929 . S
H22 C51 0.930 . S
H23 C43 0.931 . S
O24 Co0 2.097 . S
O24 C52 1.214 . S
H25 C53 0.929 . S
H26 C54 0.929 1_655 S
H27 C55 0.930 . S
H28 C56 0.929 . S
H29 C58 0.930 . S
H30 C35 0.930 . S
H31 C39 0.930 . S
O32 Co1 2.037 . S
O32 C52 1.234 . S
C33 O7 1.269 . S
C33 O8 1.257 . S
C34 H9 0.930 . S
C34 C37 1.388 . S
C34 C39 1.418 . S
C35 H30 0.930 . S
C35 C38 1.404 . S
C35 C39 1.353 . S
N36 Co1 2.145 . S
N36 C37 1.397 . S
N36 C38 1.334 . S
C37 H18 0.929 . S
C37 C34 1.388 . S
C37 N36 1.397 . S
C38 H19 0.929 . S
C38 C35 1.404 . S
C38 N36 1.334 . S
C39 H31 0.930 . S
C39 C34 1.418 . S
C39 C35 1.353 . S
C40 H10 0.930 . S
C40 N41 1.330 . S
C40 C42 1.446 . S
N41 Co0 2.151 . S
N41 C40 1.330 . S
N41 C45 1.418 . S
C42 H21 0.929 . S
C42 C40 1.446 . S
C42 C43 1.332 . S
C43 H23 0.931 . S
C43 C42 1.332 . S
C43 C44 1.267 . S
C44 H12 0.929 . S
C44 C43 1.267 . S
C44 C45 1.251 . S
C45 H15 0.929 . S
C45 N41 1.418 . S
C45 C44 1.251 . S
C46 H13 0.930 . S
C46 C48 1.406 . S
C46 C51 1.261 . S
C47 H14 0.930 . S
C47 N49 1.325 . S
C47 C50 1.357 . S
C48 H16 0.928 . S
C48 C46 1.406 . S
C48 N49 1.261 . S
N49 Co0 2.214 . S
N49 C47 1.325 . S
N49 C48 1.261 . S
C50 H20 0.931 . S
C50 C47 1.357 . S
C50 C51 1.312 . S
C51 H22 0.930 . S
C51 C46 1.261 . S
C51 C50 1.312 . S
C52 O24 1.214 . S
C52 O32 1.234 . S
C53 H25 0.929 . S
C53 C56 1.391 1_455 S
C53 C58 1.391 . S
C54 H26 0.929 1_455 S
C54 C55 1.390 1_455 S
C54 N57 1.391 . S
C55 H27 0.930 . S
C55 C54 1.390 1_655 S
C55 C56 1.392 . S
C56 H28 0.929 . S
C56 C53 1.391 1_655 S
C56 C55 1.392 . S
N57 Co1 2.257 . S
N57 C54 1.391 . S
N57 C58 1.388 . S
C58 H29 0.930 . S
C58 C53 1.391 . S
C58 N57 1.388 . S
Co59 O61 2.143 . S
Co59 O67 2.074 . S
Co59 O70 2.093 . S
Co59 O83 2.097 . S
Co59 N100 2.151 . S
Co59 N108 2.214 . S
Co60 O61 2.160 . S
Co60 O66 2.058 . S
Co60 O76 2.057 . S
Co60 O91 2.037 . S
Co60 N95 2.145 . S
Co60 N116 2.257 . S
O61 Co59 2.143 . S
O61 Co60 2.160 . S
C62 O63 1.278 . S
C62 O70 1.224 . S
O63 C62 1.278 . S
C64 O65 1.245 . S
C64 O76 1.232 . S
O65 C64 1.245 . S
O66 Co60 2.058 . S
O66 C92 1.269 . S
O67 Co59 2.074 . S
O67 C92 1.257 . S
H68 C93 0.930 . S
H69 C99 0.930 . S
O70 Co59 2.093 . S
O70 C62 1.224 . S
H71 C103 0.929 . S
H72 C105 0.930 . S
H73 C106 0.930 . S
H74 C104 0.929 . S
H75 C107 0.928 . S
O76 Co60 2.057 . S
O76 C64 1.232 . S
H77 C96 0.929 . S
H78 C97 0.929 . S
H79 C109 0.931 . S
H80 C101 0.929 . S
H81 C110 0.930 . S
H82 C102 0.931 . S
O83 Co59 2.097 . S
O83 C111 1.214 . S
H84 C112 0.929 . S
H85 C113 0.929 1_545 S
H86 C114 0.930 . S
H87 C115 0.929 . S
H88 C117 0.930 . S
H89 C94 0.930 . S
H90 C98 0.930 . S
O91 Co60 2.037 . S
O91 C111 1.234 . S
C92 O66 1.269 . S
C92 O67 1.257 . S
C93 H68 0.930 . S
C93 C96 1.388 . S
C93 C98 1.418 . S
C94 H89 0.930 . S
C94 C97 1.404 . S
C94 C98 1.353 . S
N95 Co60 2.145 . S
N95 C96 1.397 . S
N95 C97 1.334 . S
C96 H77 0.929 . S
C96 C93 1.388 . S
C96 N95 1.397 . S
C97 H78 0.929 . S
C97 C94 1.404 . S
C97 N95 1.334 . S
C98 H90 0.930 . S
C98 C93 1.418 . S
C98 C94 1.353 . S
C99 H69 0.930 . S
C99 N100 1.330 . S
C99 C101 1.446 . S
N100 Co59 2.151 . S
N100 C99 1.330 . S
N100 C104 1.418 . S
C101 H80 0.929 . S
C101 C99 1.446 . S
C101 C102 1.332 . S
C102 H82 0.931 . S
C102 C101 1.332 . S
C102 C103 1.267 . S
C103 H71 0.929 . S
C103 C102 1.267 . S
C103 C104 1.251 . S
C104 H74 0.929 . S
C104 N100 1.418 . S
C104 C103 1.251 . S
C105 H72 0.930 . S
C105 C107 1.406 . S
C105 C110 1.261 . S
C106 H73 0.930 . S
C106 N108 1.325 . S
C106 C109 1.357 . S
C107 H75 0.928 . S
C107 C105 1.406 . S
C107 N108 1.261 . S
N108 Co59 2.214 . S
N108 C106 1.325 . S
N108 C107 1.261 . S
C109 H79 0.931 . S
C109 C106 1.357 . S
C109 C110 1.312 . S
C110 H81 0.930 . S
C110 C105 1.261 . S
C110 C109 1.312 . S
C111 O83 1.214 . S
C111 O91 1.234 . S
C112 H84 0.929 . S
C112 C115 1.391 1_565 S
C112 C117 1.391 . S
C113 H85 0.929 1_565 S
C113 C114 1.390 1_565 S
C113 N116 1.391 . S
C114 H86 0.930 . S
C114 C113 1.390 1_545 S
C114 C115 1.392 . S
C115 H87 0.929 . S
C115 C112 1.391 1_545 S
C115 C114 1.392 . S
N116 Co60 2.257 . S
N116 C113 1.391 . S
N116 C117 1.388 . S
C117 H88 0.930 . S
C117 C112 1.391 . S
C117 N116 1.388 . S
Co118 O120 2.143 . S
Co118 O126 2.074 . S
Co118 O129 2.093 . S
Co118 O142 2.097 . S
Co118 N159 2.151 . S
Co118 N167 2.214 . S
Co119 O120 2.160 . S
Co119 O125 2.058 . S
Co119 O135 2.057 . S
Co119 O150 2.037 . S
Co119 N154 2.145 . S
Co119 N175 2.257 . S
O120 Co118 2.143 . S
O120 Co119 2.160 . S
C121 O122 1.278 . S
C121 O129 1.224 . S
O122 C121 1.278 . S
C123 O124 1.245 . S
C123 O135 1.232 . S
O124 C123 1.245 . S
O125 Co119 2.058 . S
O125 C151 1.269 . S
O126 Co118 2.074 . S
O126 C151 1.257 . S
H127 C152 0.930 . S
H128 C158 0.930 . S
O129 Co118 2.093 . S
O129 C121 1.224 . S
H130 C162 0.929 . S
H131 C164 0.930 . S
H132 C165 0.930 . S
H133 C163 0.929 . S
H134 C166 0.928 . S
O135 Co119 2.057 . S
O135 C123 1.232 . S
H136 C155 0.929 . S
H137 C156 0.929 . S
H138 C168 0.931 . S
H139 C160 0.929 . S
H140 C169 0.930 . S
H141 C161 0.931 . S
O142 Co118 2.097 . S
O142 C170 1.214 . S
H143 C171 0.929 . S
H144 C172 0.929 1_455 S
H145 C173 0.930 . S
H146 C174 0.929 . S
H147 C176 0.930 . S
H148 C153 0.930 . S
H149 C157 0.930 . S
O150 Co119 2.037 . S
O150 C170 1.234 . S
C151 O125 1.269 . S
C151 O126 1.257 . S
C152 H127 0.930 . S
C152 C155 1.388 . S
C152 C157 1.418 . S
C153 H148 0.930 . S
C153 C156 1.404 . S
C153 C157 1.353 . S
N154 Co119 2.145 . S
N154 C155 1.397 . S
N154 C156 1.334 . S
C155 H136 0.929 . S
C155 C152 1.388 . S
C155 N154 1.397 . S
C156 H137 0.929 . S
C156 C153 1.404 . S
C156 N154 1.334 . S
C157 H149 0.930 . S
C157 C152 1.418 . S
C157 C153 1.353 . S
C158 H128 0.930 . S
C158 N159 1.330 . S
C158 C160 1.446 . S
N159 Co118 2.151 . S
N159 C158 1.330 . S
N159 C163 1.418 . S
C160 H139 0.929 . S
C160 C158 1.446 . S
C160 C161 1.332 . S
C161 H141 0.931 . S
C161 C160 1.332 . S
C161 C162 1.267 . S
C162 H130 0.929 . S
C162 C161 1.267 . S
C162 C163 1.251 . S
C163 H133 0.929 . S
C163 N159 1.418 . S
C163 C162 1.251 . S
C164 H131 0.930 . S
C164 C166 1.406 . S
C164 C169 1.261 . S
C165 H132 0.930 . S
C165 N167 1.325 . S
C165 C168 1.357 . S
C166 H134 0.928 . S
C166 C164 1.406 . S
C166 N167 1.261 . S
N167 Co118 2.214 . S
N167 C165 1.325 . S
N167 C166 1.261 . S
C168 H138 0.931 . S
C168 C165 1.357 . S
C168 C169 1.312 . S
C169 H140 0.930 . S
C169 C164 1.261 . S
C169 C168 1.312 . S
C170 O142 1.214 . S
C170 O150 1.234 . S
C171 H143 0.929 . S
C171 C174 1.391 1_655 S
C171 C176 1.391 . S
C172 H144 0.929 1_655 S
C172 C173 1.390 1_655 S
C172 N175 1.391 . S
C173 H145 0.930 . S
C173 C172 1.390 1_455 S
C173 C174 1.392 . S
C174 H146 0.929 . S
C174 C171 1.391 1_455 S
C174 C173 1.392 . S
N175 Co119 2.257 . S
N175 C172 1.391 . S
N175 C176 1.388 . S
C176 H147 0.930 . S
C176 C171 1.391 . S
C176 N175 1.388 . S
Co177 O179 2.143 . S
Co177 O185 2.074 . S
Co177 O188 2.093 . S
Co177 O201 2.097 . S
Co177 N218 2.151 . S
Co177 N226 2.214 . S
Co178 O179 2.160 . S
Co178 O184 2.058 . S
Co178 O194 2.057 . S
Co178 O209 2.037 . S
Co178 N213 2.145 . S
Co178 N234 2.257 . S
O179 Co177 2.143 . S
O179 Co178 2.160 . S
C180 O181 1.278 . S
C180 O188 1.224 . S
O181 C180 1.278 . S
C182 O183 1.245 . S
C182 O194 1.232 . S
O183 C182 1.245 . S
O184 Co178 2.058 . S
O184 C210 1.269 . S
O185 Co177 2.074 . S
O185 C210 1.257 . S
H186 C211 0.930 . S
H187 C217 0.930 . S
O188 Co177 2.093 . S
O188 C180 1.224 . S
H189 C221 0.929 . S
H190 C223 0.930 . S
H191 C224 0.930 . S
H192 C222 0.929 . S
H193 C225 0.928 . S
O194 Co178 2.057 . S
O194 C182 1.232 . S
H195 C214 0.929 . S
H196 C215 0.929 . S
H197 C227 0.931 . S
H198 C219 0.929 . S
H199 C228 0.930 . S
H200 C220 0.931 . S
O201 Co177 2.097 . S
O201 C229 1.214 . S
H202 C230 0.929 . S
H203 C231 0.929 1_565 S
H204 C232 0.930 . S
H205 C233 0.929 . S
H206 C235 0.930 . S
H207 C212 0.930 . S
H208 C216 0.930 . S
O209 Co178 2.037 . S
O209 C229 1.234 . S
C210 O184 1.269 . S
C210 O185 1.257 . S
C211 H186 0.930 . S
C211 C214 1.388 . S
C211 C216 1.418 . S
C212 H207 0.930 . S
C212 C215 1.404 . S
C212 C216 1.353 . S
N213 Co178 2.145 . S
N213 C214 1.397 . S
N213 C215 1.334 . S
C214 H195 0.929 . S
C214 C211 1.388 . S
C214 N213 1.397 . S
C215 H196 0.929 . S
C215 C212 1.404 . S
C215 N213 1.334 . S
C216 H208 0.930 . S
C216 C211 1.418 . S
C216 C212 1.353 . S
C217 H187 0.930 . S
C217 N218 1.330 . S
C217 C219 1.446 . S
N218 Co177 2.151 . S
N218 C217 1.330 . S
N218 C222 1.418 . S
C219 H198 0.929 . S
C219 C217 1.446 . S
C219 C220 1.332 . S
C220 H200 0.931 . S
C220 C219 1.332 . S
C220 C221 1.267 . S
C221 H189 0.929 . S
C221 C220 1.267 . S
C221 C222 1.251 . S
C222 H192 0.929 . S
C222 N218 1.418 . S
C222 C221 1.251 . S
C223 H190 0.930 . S
C223 C225 1.406 . S
C223 C228 1.261 . S
C224 H191 0.930 . S
C224 N226 1.325 . S
C224 C227 1.357 . S
C225 H193 0.928 . S
C225 C223 1.406 . S
C225 N226 1.261 . S
N226 Co177 2.214 . S
N226 C224 1.325 . S
N226 C225 1.261 . S
C227 H197 0.931 . S
C227 C224 1.357 . S
C227 C228 1.312 . S
C228 H199 0.930 . S
C228 C223 1.261 . S
C228 C227 1.312 . S
C229 O201 1.214 . S
C229 O209 1.234 . S
C230 H202 0.929 . S
C230 C233 1.391 1_545 S
C230 C235 1.391 . S
C231 H203 0.929 1_545 S
C231 C232 1.390 1_545 S
C231 N234 1.391 . S
C232 H204 0.930 . S
C232 C231 1.390 1_565 S
C232 C233 1.392 . S
C233 H205 0.929 . S
C233 C230 1.391 1_565 S
C233 C232 1.392 . S
N234 Co178 2.257 . S
N234 C231 1.391 . S
N234 C235 1.388 . S
C235 H206 0.930 . S
C235 C230 1.391 . S
C235 N234 1.388 . S
Co236 O238 2.143 . S
Co236 O244 2.074 . S
Co236 O247 2.093 . S
Co236 O260 2.097 . S
Co236 N277 2.151 . S
Co236 N285 2.214 1_556 S
Co237 O238 2.160 . S
Co237 O243 2.058 . S
Co237 O253 2.057 . S
Co237 O268 2.037 . S
Co237 N272 2.145 . S
Co237 N293 2.257 . S
O238 Co236 2.143 . S
O238 Co237 2.160 . S
C239 O240 1.278 . S
C239 O247 1.224 . S
O240 C239 1.278 . S
C241 O242 1.245 . S
C241 O253 1.232 . S
O242 C241 1.245 . S
O243 Co237 2.058 . S
O243 C269 1.269 . S
O244 Co236 2.074 . S
O244 C269 1.257 . S
H245 C270 0.930 . S
H246 C276 0.930 . S
O247 Co236 2.093 . S
O247 C239 1.224 . S
H248 C280 0.929 . S
H249 C282 0.930 . S
H250 C283 0.930 . S
H251 C281 0.929 1_554 S
H252 C284 0.928 . S
O253 Co237 2.057 . S
O253 C241 1.232 . S
H254 C273 0.929 . S
H255 C274 0.929 . S
H256 C286 0.931 . S
H257 C278 0.929 . S
H258 C287 0.930 . S
H259 C279 0.931 . S
O260 Co236 2.097 . S
O260 C288 1.214 . S
H261 C289 0.929 . S
H262 C290 0.929 1_655 S
H263 C291 0.930 . S
H264 C292 0.929 . S
H265 C294 0.930 . S
H266 C271 0.930 . S
H267 C275 0.930 . S
O268 Co237 2.037 . S
O268 C288 1.234 . S
C269 O243 1.269 . S
C269 O244 1.257 . S
C270 H245 0.930 . S
C270 C273 1.388 . S
C270 C275 1.418 . S
C271 H266 0.930 . S
C271 C274 1.404 . S
C271 C275 1.353 . S
N272 Co237 2.145 . S
N272 C273 1.397 . S
N272 C274 1.334 . S
C273 H254 0.929 . S
C273 C270 1.388 . S
C273 N272 1.397 . S
C274 H255 0.929 . S
C274 C271 1.404 . S
C274 N272 1.334 . S
C275 H267 0.930 . S
C275 C270 1.418 . S
C275 C271 1.353 . S
C276 H246 0.930 . S
C276 N277 1.330 . S
C276 C278 1.446 . S
N277 Co236 2.151 . S
N277 C276 1.330 . S
N277 C281 1.418 . S
C278 H257 0.929 . S
C278 C276 1.446 . S
C278 C279 1.332 . S
C279 H259 0.931 . S
C279 C278 1.332 . S
C279 C280 1.267 1_556 S
C280 H248 0.929 . S
C280 C279 1.267 1_554 S
C280 C281 1.251 1_554 S
C281 H251 0.929 1_556 S
C281 N277 1.418 . S
C281 C280 1.251 1_556 S
C282 H249 0.930 . S
C282 C284 1.406 . S
C282 C287 1.261 . S
C283 H250 0.930 . S
C283 N285 1.325 . S
C283 C286 1.357 . S
C284 H252 0.928 . S
C284 C282 1.406 . S
C284 N285 1.261 . S
N285 Co236 2.214 1_554 S
N285 C283 1.325 . S
N285 C284 1.261 . S
C286 H256 0.931 . S
C286 C283 1.357 . S
C286 C287 1.312 . S
C287 H258 0.930 . S
C287 C282 1.261 . S
C287 C286 1.312 . S
C288 O260 1.214 . S
C288 O268 1.234 . S
C289 H261 0.929 . S
C289 C292 1.391 1_455 S
C289 C294 1.391 . S
C290 H262 0.929 1_455 S
C290 C291 1.390 1_455 S
C290 N293 1.391 . S
C291 H263 0.930 . S
C291 C290 1.390 1_655 S
C291 C292 1.392 . S
C292 H264 0.929 . S
C292 C289 1.391 1_655 S
C292 C291 1.392 . S
N293 Co237 2.257 . S
N293 C290 1.391 . S
N293 C294 1.388 . S
C294 H265 0.930 . S
C294 C289 1.391 . S
C294 N293 1.388 . S
Co295 O297 2.143 . S
Co295 O303 2.074 . S
Co295 O306 2.093 . S
Co295 O319 2.097 . S
Co295 N336 2.151 . S
Co295 N344 2.214 1_554 S
Co296 O297 2.160 . S
Co296 O302 2.058 . S
Co296 O312 2.057 . S
Co296 O327 2.037 . S
Co296 N331 2.145 . S
Co296 N352 2.257 . S
O297 Co295 2.143 . S
O297 Co296 2.160 . S
C298 O299 1.278 . S
C298 O306 1.224 . S
O299 C298 1.278 . S
C300 O301 1.245 . S
C300 O312 1.232 . S
O301 C300 1.245 . S
O302 Co296 2.058 . S
O302 C328 1.269 . S
O303 Co295 2.074 . S
O303 C328 1.257 . S
H304 C329 0.930 . S
H305 C335 0.930 . S
O306 Co295 2.093 . S
O306 C298 1.224 . S
H307 C339 0.929 . S
H308 C341 0.930 . S
H309 C342 0.930 . S
H310 C340 0.929 1_556 S
H311 C343 0.928 . S
O312 Co296 2.057 . S
O312 C300 1.232 . S
H313 C332 0.929 . S
H314 C333 0.929 . S
H315 C345 0.931 . S
H316 C337 0.929 . S
H317 C346 0.930 . S
H318 C338 0.931 . S
O319 Co295 2.097 . S
O319 C347 1.214 . S
H320 C348 0.929 . S
H321 C349 0.929 1_545 S
H322 C350 0.930 . S
H323 C351 0.929 . S
H324 C353 0.930 . S
H325 C330 0.930 . S
H326 C334 0.930 . S
O327 Co296 2.037 . S
O327 C347 1.234 . S
C328 O302 1.269 . S
C328 O303 1.257 . S
C329 H304 0.930 . S
C329 C332 1.388 . S
C329 C334 1.418 . S
C330 H325 0.930 . S
C330 C333 1.404 . S
C330 C334 1.353 . S
N331 Co296 2.145 . S
N331 C332 1.397 . S
N331 C333 1.334 . S
C332 H313 0.929 . S
C332 C329 1.388 . S
C332 N331 1.397 . S
C333 H314 0.929 . S
C333 C330 1.404 . S
C333 N331 1.334 . S
C334 H326 0.930 . S
C334 C329 1.418 . S
C334 C330 1.353 . S
C335 H305 0.930 . S
C335 N336 1.330 . S
C335 C337 1.446 . S
N336 Co295 2.151 . S
N336 C335 1.330 . S
N336 C340 1.418 . S
C337 H316 0.929 . S
C337 C335 1.446 . S
C337 C338 1.332 . S
C338 H318 0.931 . S
C338 C337 1.332 . S
C338 C339 1.267 1_554 S
C339 H307 0.929 . S
C339 C338 1.267 1_556 S
C339 C340 1.251 1_556 S
C340 H310 0.929 1_554 S
C340 N336 1.418 . S
C340 C339 1.251 1_554 S
C341 H308 0.930 . S
C341 C343 1.406 . S
C341 C346 1.261 . S
C342 H309 0.930 . S
C342 N344 1.325 . S
C342 C345 1.357 . S
C343 H311 0.928 . S
C343 C341 1.406 . S
C343 N344 1.261 . S
N344 Co295 2.214 1_556 S
N344 C342 1.325 . S
N344 C343 1.261 . S
C345 H315 0.931 . S
C345 C342 1.357 . S
C345 C346 1.312 . S
C346 H317 0.930 . S
C346 C341 1.261 . S
C346 C345 1.312 . S
C347 O319 1.214 . S
C347 O327 1.234 . S
C348 H320 0.929 . S
C348 C351 1.391 1_565 S
C348 C353 1.391 . S
C349 H321 0.929 1_565 S
C349 C350 1.390 1_565 S
C349 N352 1.391 . S
C350 H322 0.930 . S
C350 C349 1.390 1_545 S
C350 C351 1.392 . S
C351 H323 0.929 . S
C351 C348 1.391 1_545 S
C351 C350 1.392 . S
N352 Co296 2.257 . S
N352 C349 1.391 . S
N352 C353 1.388 . S
C353 H324 0.930 . S
C353 C348 1.391 . S
C353 N352 1.388 . S
Co354 O356 2.143 . S
Co354 O362 2.074 . S
Co354 O365 2.093 . S
Co354 O378 2.097 . S
Co354 N395 2.151 . S
Co354 N403 2.214 1_556 S
Co355 O356 2.160 . S
Co355 O361 2.058 . S
Co355 O371 2.057 . S
Co355 O386 2.037 . S
Co355 N390 2.145 . S
Co355 N411 2.257 . S
O356 Co354 2.143 . S
O356 Co355 2.160 . S
C357 O358 1.278 . S
C357 O365 1.224 . S
O358 C357 1.278 . S
C359 O360 1.245 . S
C359 O371 1.232 . S
O360 C359 1.245 . S
O361 Co355 2.058 . S
O361 C387 1.269 . S
O362 Co354 2.074 . S
O362 C387 1.257 . S
H363 C388 0.930 . S
H364 C394 0.930 . S
O365 Co354 2.093 . S
O365 C357 1.224 . S
H366 C398 0.929 . S
H367 C400 0.930 . S
H368 C401 0.930 . S
H369 C399 0.929 1_554 S
H370 C402 0.928 . S
O371 Co355 2.057 . S
O371 C359 1.232 . S
H372 C391 0.929 . S
H373 C392 0.929 . S
H374 C404 0.931 . S
H375 C396 0.929 . S
H376 C405 0.930 . S
H377 C397 0.931 . S
O378 Co354 2.097 . S
O378 C406 1.214 . S
H379 C407 0.929 . S
H380 C408 0.929 1_455 S
H381 C409 0.930 . S
H382 C410 0.929 . S
H383 C412 0.930 . S
H384 C389 0.930 . S
H385 C393 0.930 . S
O386 Co355 2.037 . S
O386 C406 1.234 . S
C387 O361 1.269 . S
C387 O362 1.257 . S
C388 H363 0.930 . S
C388 C391 1.388 . S
C388 C393 1.418 . S
C389 H384 0.930 . S
C389 C392 1.404 . S
C389 C393 1.353 . S
N390 Co355 2.145 . S
N390 C391 1.397 . S
N390 C392 1.334 . S
C391 H372 0.929 . S
C391 C388 1.388 . S
C391 N390 1.397 . S
C392 H373 0.929 . S
C392 C389 1.404 . S
C392 N390 1.334 . S
C393 H385 0.930 . S
C393 C388 1.418 . S
C393 C389 1.353 . S
C394 H364 0.930 . S
C394 N395 1.330 . S
C394 C396 1.446 . S
N395 Co354 2.151 . S
N395 C394 1.330 . S
N395 C399 1.418 . S
C396 H375 0.929 . S
C396 C394 1.446 . S
C396 C397 1.332 . S
C397 H377 0.931 . S
C397 C396 1.332 . S
C397 C398 1.267 1_556 S
C398 H366 0.929 . S
C398 C397 1.267 1_554 S
C398 C399 1.251 1_554 S
C399 H369 0.929 1_556 S
C399 N395 1.418 . S
C399 C398 1.251 1_556 S
C400 H367 0.930 . S
C400 C402 1.406 . S
C400 C405 1.261 . S
C401 H368 0.930 . S
C401 N403 1.325 . S
C401 C404 1.357 . S
C402 H370 0.928 . S
C402 C400 1.406 . S
C402 N403 1.261 . S
N403 Co354 2.214 1_554 S
N403 C401 1.325 . S
N403 C402 1.261 . S
C404 H374 0.931 . S
C404 C401 1.357 . S
C404 C405 1.312 . S
C405 H376 0.930 . S
C405 C400 1.261 . S
C405 C404 1.312 . S
C406 O378 1.214 . S
C406 O386 1.234 . S
C407 H379 0.929 . S
C407 C410 1.391 1_655 S
C407 C412 1.391 . S
C408 H380 0.929 1_655 S
C408 C409 1.390 1_655 S
C408 N411 1.391 . S
C409 H381 0.930 . S
C409 C408 1.390 1_455 S
C409 C410 1.392 . S
C410 H382 0.929 . S
C410 C407 1.391 1_455 S
C410 C409 1.392 . S
N411 Co355 2.257 . S
N411 C408 1.391 . S
N411 C412 1.388 . S
C412 H383 0.930 . S
C412 C407 1.391 . S
C412 N411 1.388 . S
Co413 O415 2.143 . S
Co413 O421 2.074 . S
Co413 O424 2.093 . S
Co413 O437 2.097 . S
Co413 N454 2.151 . S
Co413 N462 2.214 1_554 S
Co414 O415 2.160 . S
Co414 O420 2.058 . S
Co414 O430 2.057 . S
Co414 O445 2.037 . S
Co414 N449 2.145 . S
Co414 N470 2.257 . S
O415 Co413 2.143 . S
O415 Co414 2.160 . S
C416 O417 1.278 . S
C416 O424 1.224 . S
O417 C416 1.278 . S
C418 O419 1.245 . S
C418 O430 1.232 . S
O419 C418 1.245 . S
O420 Co414 2.058 . S
O420 C446 1.269 . S
O421 Co413 2.074 . S
O421 C446 1.257 . S
H422 C447 0.930 . S
H423 C453 0.930 . S
O424 Co413 2.093 . S
O424 C416 1.224 . S
H425 C457 0.929 . S
H426 C459 0.930 . S
H427 C460 0.930 . S
H428 C458 0.929 1_556 S
H429 C461 0.928 . S
O430 Co414 2.057 . S
O430 C418 1.232 . S
H431 C450 0.929 . S
H432 C451 0.929 . S
H433 C463 0.931 . S
H434 C455 0.929 . S
H435 C464 0.930 . S
H436 C456 0.931 . S
O437 Co413 2.097 . S
O437 C465 1.214 . S
H438 C466 0.929 . S
H439 C467 0.929 1_565 S
H440 C468 0.930 . S
H441 C469 0.929 . S
H442 C471 0.930 . S
H443 C448 0.930 . S
H444 C452 0.930 . S
O445 Co414 2.037 . S
O445 C465 1.234 . S
C446 O420 1.269 . S
C446 O421 1.257 . S
C447 H422 0.930 . S
C447 C450 1.388 . S
C447 C452 1.418 . S
C448 H443 0.930 . S
C448 C451 1.404 . S
C448 C452 1.353 . S
N449 Co414 2.145 . S
N449 C450 1.397 . S
N449 C451 1.334 . S
C450 H431 0.929 . S
C450 C447 1.388 . S
C450 N449 1.397 . S
C451 H432 0.929 . S
C451 C448 1.404 . S
C451 N449 1.334 . S
C452 H444 0.930 . S
C452 C447 1.418 . S
C452 C448 1.353 . S
C453 H423 0.930 . S
C453 N454 1.330 . S
C453 C455 1.446 . S
N454 Co413 2.151 . S
N454 C453 1.330 . S
N454 C458 1.418 . S
C455 H434 0.929 . S
C455 C453 1.446 . S
C455 C456 1.332 . S
C456 H436 0.931 . S
C456 C455 1.332 . S
C456 C457 1.267 1_554 S
C457 H425 0.929 . S
C457 C456 1.267 1_556 S
C457 C458 1.251 1_556 S
C458 H428 0.929 1_554 S
C458 N454 1.418 . S
C458 C457 1.251 1_554 S
C459 H426 0.930 . S
C459 C461 1.406 . S
C459 C464 1.261 . S
C460 H427 0.930 . S
C460 N462 1.325 . S
C460 C463 1.357 . S
C461 H429 0.928 . S
C461 C459 1.406 . S
C461 N462 1.261 . S
N462 Co413 2.214 1_556 S
N462 C460 1.325 . S
N462 C461 1.261 . S
C463 H433 0.931 . S
C463 C460 1.357 . S
C463 C464 1.312 . S
C464 H435 0.930 . S
C464 C459 1.261 . S
C464 C463 1.312 . S
C465 O437 1.214 . S
C465 O445 1.234 . S
C466 H438 0.929 . S
C466 C469 1.391 1_545 S
C466 C471 1.391 . S
C467 H439 0.929 1_545 S
C467 C468 1.390 1_545 S
C467 N470 1.391 . S
C468 H440 0.930 . S
C468 C467 1.390 1_565 S
C468 C469 1.392 . S
C469 H441 0.929 . S
C469 C466 1.391 1_565 S
C469 C468 1.392 . S
N470 Co414 2.257 . S
N470 C467 1.391 . S
N470 C471 1.388 . S
C471 H442 0.930 . S
C471 C466 1.391 . S
C471 N470 1.388 . S
Co472 O474 2.143 . S
Co472 O480 2.074 . S
Co472 O483 2.093 . S
Co472 O496 2.097 . S
Co472 N513 2.151 . S
Co472 N521 2.214 . S
Co473 O474 2.160 . S
Co473 O479 2.058 . S
Co473 O489 2.057 . S
Co473 O504 2.037 . S
Co473 N508 2.145 . S
Co473 N529 2.257 . S
O474 Co472 2.143 . S
O474 Co473 2.160 . S
C475 O476 1.278 . S
C475 O483 1.224 . S
O476 C475 1.278 . S
C477 O478 1.245 . S
C477 O489 1.232 . S
O478 C477 1.245 . S
O479 Co473 2.058 . S
O479 C505 1.269 . S
O480 Co472 2.074 . S
O480 C505 1.257 . S
H481 C506 0.930 . S
H482 C512 0.930 . S
O483 Co472 2.093 . S
O483 C475 1.224 . S
H484 C516 0.929 . S
H485 C518 0.930 . S
H486 C519 0.930 . S
H487 C517 0.929 . S
H488 C520 0.928 . S
O489 Co473 2.057 . S
O489 C477 1.232 . S
H490 C509 0.929 . S
H491 C510 0.929 . S
H492 C522 0.931 . S
H493 C514 0.929 . S
H494 C523 0.930 . S
H495 C515 0.931 . S
O496 Co472 2.097 . S
O496 C524 1.214 . S
H497 C525 0.929 . S
H498 C526 0.929 . S
H499 C527 0.930 . S
H500 C528 0.929 . S
H501 C530 0.930 . S
H502 C507 0.930 . S
H503 C511 0.930 . S
O504 Co473 2.037 . S
O504 C524 1.234 . S
C505 O479 1.269 . S
C505 O480 1.257 . S
C506 H481 0.930 . S
C506 C509 1.388 . S
C506 C511 1.418 . S
C507 H502 0.930 . S
C507 C510 1.404 . S
C507 C511 1.353 . S
N508 Co473 2.145 . S
N508 C509 1.397 . S
N508 C510 1.334 . S
C509 H490 0.929 . S
C509 C506 1.388 . S
C509 N508 1.397 . S
C510 H491 0.929 . S
C510 C507 1.404 . S
C510 N508 1.334 . S
C511 H503 0.930 . S
C511 C506 1.418 . S
C511 C507 1.353 . S
C512 H482 0.930 . S
C512 N513 1.330 . S
C512 C514 1.446 . S
N513 Co472 2.151 . S
N513 C512 1.330 . S
N513 C517 1.418 . S
C514 H493 0.929 . S
C514 C512 1.446 . S
C514 C515 1.332 . S
C515 H495 0.931 . S
C515 C514 1.332 . S
C515 C516 1.267 . S
C516 H484 0.929 . S
C516 C515 1.267 . S
C516 C517 1.251 . S
C517 H487 0.929 . S
C517 N513 1.418 . S
C517 C516 1.251 . S
C518 H485 0.930 . S
C518 C520 1.406 . S
C518 C523 1.261 . S
C519 H486 0.930 . S
C519 N521 1.325 . S
C519 C522 1.357 . S
C520 H488 0.928 . S
C520 C518 1.406 . S
C520 N521 1.261 . S
N521 Co472 2.214 . S
N521 C519 1.325 . S
N521 C520 1.261 . S
C522 H492 0.931 . S
C522 C519 1.357 . S
C522 C523 1.312 . S
C523 H494 0.930 . S
C523 C518 1.261 . S
C523 C522 1.312 . S
C524 O496 1.214 . S
C524 O504 1.234 . S
C525 H497 0.929 . S
C525 C528 1.391 . S
C525 C530 1.391 . S
C526 H498 0.929 . S
C526 C527 1.390 . S
C526 N529 1.391 . S
C527 H499 0.930 . S
C527 C526 1.390 . S
C527 C528 1.392 . S
C528 H500 0.929 . S
C528 C525 1.391 . S
C528 C527 1.392 . S
N529 Co473 2.257 . S
N529 C526 1.391 . S
N529 C530 1.388 . S
C530 H501 0.930 . S
C530 C525 1.391 . S
C530 N529 1.388 . S
Co531 O533 2.143 . S
Co531 O539 2.074 . S
Co531 O542 2.093 . S
Co531 O555 2.097 . S
Co531 N572 2.151 . S
Co531 N580 2.214 . S
Co532 O533 2.160 . S
Co532 O538 2.058 . S
Co532 O548 2.057 . S
Co532 O563 2.037 . S
Co532 N567 2.145 . S
Co532 N588 2.257 . S
O533 Co531 2.143 . S
O533 Co532 2.160 . S
C534 O535 1.278 . S
C534 O542 1.224 . S
O535 C534 1.278 . S
C536 O537 1.245 . S
C536 O548 1.232 . S
O537 C536 1.245 . S
O538 Co532 2.058 . S
O538 C564 1.269 . S
O539 Co531 2.074 . S
O539 C564 1.257 . S
H540 C565 0.930 . S
H541 C571 0.930 . S
O542 Co531 2.093 . S
O542 C534 1.224 . S
H543 C575 0.929 . S
H544 C577 0.930 . S
H545 C578 0.930 . S
H546 C576 0.929 . S
H547 C579 0.928 . S
O548 Co532 2.057 . S
O548 C536 1.232 . S
H549 C568 0.929 . S
H550 C569 0.929 . S
H551 C581 0.931 . S
H552 C573 0.929 . S
H553 C582 0.930 . S
H554 C574 0.931 . S
O555 Co531 2.097 . S
O555 C583 1.214 . S
H556 C584 0.929 . S
H557 C585 0.929 . S
H558 C586 0.930 . S
H559 C587 0.929 . S
H560 C589 0.930 . S
H561 C566 0.930 . S
H562 C570 0.930 . S
O563 Co532 2.037 . S
O563 C583 1.234 . S
C564 O538 1.269 . S
C564 O539 1.257 . S
C565 H540 0.930 . S
C565 C568 1.388 . S
C565 C570 1.418 . S
C566 H561 0.930 . S
C566 C569 1.404 . S
C566 C570 1.353 . S
N567 Co532 2.145 . S
N567 C568 1.397 . S
N567 C569 1.334 . S
C568 H549 0.929 . S
C568 C565 1.388 . S
C568 N567 1.397 . S
C569 H550 0.929 . S
C569 C566 1.404 . S
C569 N567 1.334 . S
C570 H562 0.930 . S
C570 C565 1.418 . S
C570 C566 1.353 . S
C571 H541 0.930 . S
C571 N572 1.330 . S
C571 C573 1.446 . S
N572 Co531 2.151 . S
N572 C571 1.330 . S
N572 C576 1.418 . S
C573 H552 0.929 . S
C573 C571 1.446 . S
C573 C574 1.332 . S
C574 H554 0.931 . S
C574 C573 1.332 . S
C574 C575 1.267 . S
C575 H543 0.929 . S
C575 C574 1.267 . S
C575 C576 1.251 . S
C576 H546 0.929 . S
C576 N572 1.418 . S
C576 C575 1.251 . S
C577 H544 0.930 . S
C577 C579 1.406 . S
C577 C582 1.261 . S
C578 H545 0.930 . S
C578 N580 1.325 . S
C578 C581 1.357 . S
C579 H547 0.928 . S
C579 C577 1.406 . S
C579 N580 1.261 . S
N580 Co531 2.214 . S
N580 C578 1.325 . S
N580 C579 1.261 . S
C581 H551 0.931 . S
C581 C578 1.357 . S
C581 C582 1.312 . S
C582 H553 0.930 . S
C582 C577 1.261 . S
C582 C581 1.312 . S
C583 O555 1.214 . S
C583 O563 1.234 . S
C584 H556 0.929 . S
C584 C587 1.391 . S
C584 C589 1.391 . S
C585 H557 0.929 . S
C585 C586 1.390 . S
C585 N588 1.391 . S
C586 H558 0.930 . S
C586 C585 1.390 . S
C586 C587 1.392 . S
C587 H559 0.929 . S
C587 C584 1.391 . S
C587 C586 1.392 . S
N588 Co532 2.257 . S
N588 C585 1.391 . S
N588 C589 1.388 . S
C589 H560 0.930 . S
C589 C584 1.391 . S
C589 N588 1.388 . S
Co590 O592 2.143 . S
Co590 O598 2.074 . S
Co590 O601 2.093 . S
Co590 O614 2.097 . S
Co590 N631 2.151 . S
Co590 N639 2.214 . S
Co591 O592 2.160 . S
Co591 O597 2.058 . S
Co591 O607 2.057 . S
Co591 O622 2.037 . S
Co591 N626 2.145 . S
Co591 N647 2.257 . S
O592 Co590 2.143 . S
O592 Co591 2.160 . S
C593 O594 1.278 . S
C593 O601 1.224 . S
O594 C593 1.278 . S
C595 O596 1.245 . S
C595 O607 1.232 . S
O596 C595 1.245 . S
O597 Co591 2.058 . S
O597 C623 1.269 . S
O598 Co590 2.074 . S
O598 C623 1.257 . S
H599 C624 0.930 . S
H600 C630 0.930 . S
O601 Co590 2.093 . S
O601 C593 1.224 . S
H602 C634 0.929 . S
H603 C636 0.930 . S
H604 C637 0.930 . S
H605 C635 0.929 . S
H606 C638 0.928 . S
O607 Co591 2.057 . S
O607 C595 1.232 . S
H608 C627 0.929 . S
H609 C628 0.929 . S
H610 C640 0.931 . S
H611 C632 0.929 . S
H612 C641 0.930 . S
H613 C633 0.931 . S
O614 Co590 2.097 . S
O614 C642 1.214 . S
H615 C643 0.929 . S
H616 C644 0.929 . S
H617 C645 0.930 . S
H618 C646 0.929 . S
H619 C648 0.930 . S
H620 C625 0.930 . S
H621 C629 0.930 . S
O622 Co591 2.037 . S
O622 C642 1.234 . S
C623 O597 1.269 . S
C623 O598 1.257 . S
C624 H599 0.930 . S
C624 C627 1.388 . S
C624 C629 1.418 . S
C625 H620 0.930 . S
C625 C628 1.404 . S
C625 C629 1.353 . S
N626 Co591 2.145 . S
N626 C627 1.397 . S
N626 C628 1.334 . S
C627 H608 0.929 . S
C627 C624 1.388 . S
C627 N626 1.397 . S
C628 H609 0.929 . S
C628 C625 1.404 . S
C628 N626 1.334 . S
C629 H621 0.930 . S
C629 C624 1.418 . S
C629 C625 1.353 . S
C630 H600 0.930 . S
C630 N631 1.330 . S
C630 C632 1.446 . S
N631 Co590 2.151 . S
N631 C630 1.330 . S
N631 C635 1.418 . S
C632 H611 0.929 . S
C632 C630 1.446 . S
C632 C633 1.332 . S
C633 H613 0.931 . S
C633 C632 1.332 . S
C633 C634 1.267 . S
C634 H602 0.929 . S
C634 C633 1.267 . S
C634 C635 1.251 . S
C635 H605 0.929 . S
C635 N631 1.418 . S
C635 C634 1.251 . S
C636 H603 0.930 . S
C636 C638 1.406 . S
C636 C641 1.261 . S
C637 H604 0.930 . S
C637 N639 1.325 . S
C637 C640 1.357 . S
C638 H606 0.928 . S
C638 C636 1.406 . S
C638 N639 1.261 . S
N639 Co590 2.214 . S
N639 C637 1.325 . S
N639 C638 1.261 . S
C640 H610 0.931 . S
C640 C637 1.357 . S
C640 C641 1.312 . S
C641 H612 0.930 . S
C641 C636 1.261 . S
C641 C640 1.312 . S
C642 O614 1.214 . S
C642 O622 1.234 . S
C643 H615 0.929 . S
C643 C646 1.391 . S
C643 C648 1.391 . S
C644 H616 0.929 . S
C644 C645 1.390 . S
C644 N647 1.391 . S
C645 H617 0.930 . S
C645 C644 1.390 . S
C645 C646 1.392 . S
C646 H618 0.929 . S
C646 C643 1.391 . S
C646 C645 1.392 . S
N647 Co591 2.257 . S
N647 C644 1.391 . S
N647 C648 1.388 . S
C648 H619 0.930 . S
C648 C643 1.391 . S
C648 N647 1.388 . S
Co649 O651 2.143 . S
Co649 O657 2.074 . S
Co649 O660 2.093 . S
Co649 O673 2.097 . S
Co649 N690 2.151 . S
Co649 N698 2.214 . S
Co650 O651 2.160 . S
Co650 O656 2.058 . S
Co650 O666 2.057 . S
Co650 O681 2.037 . S
Co650 N685 2.145 . S
Co650 N706 2.257 . S
O651 Co649 2.143 . S
O651 Co650 2.160 . S
C652 O653 1.278 . S
C652 O660 1.224 . S
O653 C652 1.278 . S
C654 O655 1.245 . S
C654 O666 1.232 . S
O655 C654 1.245 . S
O656 Co650 2.058 . S
O656 C682 1.269 . S
O657 Co649 2.074 . S
O657 C682 1.257 . S
H658 C683 0.930 . S
H659 C689 0.930 . S
O660 Co649 2.093 . S
O660 C652 1.224 . S
H661 C693 0.929 . S
H662 C695 0.930 . S
H663 C696 0.930 . S
H664 C694 0.929 . S
H665 C697 0.928 . S
O666 Co650 2.057 . S
O666 C654 1.232 . S
H667 C686 0.929 . S
H668 C687 0.929 . S
H669 C699 0.931 . S
H670 C691 0.929 . S
H671 C700 0.930 . S
H672 C692 0.931 . S
O673 Co649 2.097 . S
O673 C701 1.214 . S
H674 C702 0.929 . S
H675 C703 0.929 . S
H676 C704 0.930 . S
H677 C705 0.929 . S
H678 C707 0.930 . S
H679 C684 0.930 . S
H680 C688 0.930 . S
O681 Co650 2.037 . S
O681 C701 1.234 . S
C682 O656 1.269 . S
C682 O657 1.257 . S
C683 H658 0.930 . S
C683 C686 1.388 . S
C683 C688 1.418 . S
C684 H679 0.930 . S
C684 C687 1.404 . S
C684 C688 1.353 . S
N685 Co650 2.145 . S
N685 C686 1.397 . S
N685 C687 1.334 . S
C686 H667 0.929 . S
C686 C683 1.388 . S
C686 N685 1.397 . S
C687 H668 0.929 . S
C687 C684 1.404 . S
C687 N685 1.334 . S
C688 H680 0.930 . S
C688 C683 1.418 . S
C688 C684 1.353 . S
C689 H659 0.930 . S
C689 N690 1.330 . S
C689 C691 1.446 . S
N690 Co649 2.151 . S
N690 C689 1.330 . S
N690 C694 1.418 . S
C691 H670 0.929 . S
C691 C689 1.446 . S
C691 C692 1.332 . S
C692 H672 0.931 . S
C692 C691 1.332 . S
C692 C693 1.267 . S
C693 H661 0.929 . S
C693 C692 1.267 . S
C693 C694 1.251 . S
C694 H664 0.929 . S
C694 N690 1.418 . S
C694 C693 1.251 . S
C695 H662 0.930 . S
C695 C697 1.406 . S
C695 C700 1.261 . S
C696 H663 0.930 . S
C696 N698 1.325 . S
C696 C699 1.357 . S
C697 H665 0.928 . S
C697 C695 1.406 . S
C697 N698 1.261 . S
N698 Co649 2.214 . S
N698 C696 1.325 . S
N698 C697 1.261 . S
C699 H669 0.931 . S
C699 C696 1.357 . S
C699 C700 1.312 . S
C700 H671 0.930 . S
C700 C695 1.261 . S
C700 C699 1.312 . S
C701 O673 1.214 . S
C701 O681 1.234 . S
C702 H674 0.929 . S
C702 C705 1.391 . S
C702 C707 1.391 . S
C703 H675 0.929 . S
C703 C704 1.390 . S
C703 N706 1.391 . S
C704 H676 0.930 . S
C704 C703 1.390 . S
C704 C705 1.392 . S
C705 H677 0.929 . S
C705 C702 1.391 . S
C705 C704 1.392 . S
N706 Co650 2.257 . S
N706 C703 1.391 . S
N706 C707 1.388 . S
C707 H678 0.930 . S
C707 C702 1.391 . S
C707 N706 1.388 . S
Co708 O710 2.143 . S
Co708 O716 2.074 . S
Co708 O719 2.093 . S
Co708 O732 2.097 . S
Co708 N749 2.151 . S
Co708 N757 2.214 . S
Co709 O710 2.160 . S
Co709 O715 2.058 . S
Co709 O725 2.057 . S
Co709 O740 2.037 . S
Co709 N744 2.145 . S
Co709 N765 2.257 . S
O710 Co708 2.143 . S
O710 Co709 2.160 . S
C711 O712 1.278 . S
C711 O719 1.224 . S
O712 C711 1.278 . S
C713 O714 1.245 . S
C713 O725 1.232 . S
O714 C713 1.245 . S
O715 Co709 2.058 . S
O715 C741 1.269 . S
O716 Co708 2.074 . S
O716 C741 1.257 . S
H717 C742 0.930 . S
H718 C748 0.930 . S
O719 Co708 2.093 . S
O719 C711 1.224 . S
H720 C752 0.929 . S
H721 C754 0.930 . S
H722 C755 0.930 . S
H723 C753 0.929 . S
H724 C756 0.928 . S
O725 Co709 2.057 . S
O725 C713 1.232 . S
H726 C745 0.929 . S
H727 C746 0.929 . S
H728 C758 0.931 . S
H729 C750 0.929 . S
H730 C759 0.930 . S
H731 C751 0.931 . S
O732 Co708 2.097 . S
O732 C760 1.214 . S
H733 C761 0.929 . S
H734 C762 0.929 . S
H735 C763 0.930 . S
H736 C764 0.929 . S
H737 C766 0.930 . S
H738 C743 0.930 . S
H739 C747 0.930 . S
O740 Co709 2.037 . S
O740 C760 1.234 . S
C741 O715 1.269 . S
C741 O716 1.257 . S
C742 H717 0.930 . S
C742 C745 1.388 . S
C742 C747 1.418 . S
C743 H738 0.930 . S
C743 C746 1.404 . S
C743 C747 1.353 . S
N744 Co709 2.145 . S
N744 C745 1.397 . S
N744 C746 1.334 . S
C745 H726 0.929 . S
C745 C742 1.388 . S
C745 N744 1.397 . S
C746 H727 0.929 . S
C746 C743 1.404 . S
C746 N744 1.334 . S
C747 H739 0.930 . S
C747 C742 1.418 . S
C747 C743 1.353 . S
C748 H718 0.930 . S
C748 N749 1.330 . S
C748 C750 1.446 . S
N749 Co708 2.151 . S
N749 C748 1.330 . S
N749 C753 1.418 . S
C750 H729 0.929 . S
C750 C748 1.446 . S
C750 C751 1.332 . S
C751 H731 0.931 . S
C751 C750 1.332 . S
C751 C752 1.267 . S
C752 H720 0.929 . S
C752 C751 1.267 . S
C752 C753 1.251 . S
C753 H723 0.929 . S
C753 N749 1.418 . S
C753 C752 1.251 . S
C754 H721 0.930 . S
C754 C756 1.406 . S
C754 C759 1.261 . S
C755 H722 0.930 . S
C755 N757 1.325 . S
C755 C758 1.357 . S
C756 H724 0.928 . S
C756 C754 1.406 . S
C756 N757 1.261 . S
N757 Co708 2.214 . S
N757 C755 1.325 . S
N757 C756 1.261 . S
C758 H728 0.931 . S
C758 C755 1.357 . S
C758 C759 1.312 . S
C759 H730 0.930 . S
C759 C754 1.261 . S
C759 C758 1.312 . S
C760 O732 1.214 . S
C760 O740 1.234 . S
C761 H733 0.929 . S
C761 C764 1.391 . S
C761 C766 1.391 . S
C762 H734 0.929 . S
C762 C763 1.390 . S
C762 N765 1.391 . S
C763 H735 0.930 . S
C763 C762 1.390 . S
C763 C764 1.392 . S
C764 H736 0.929 . S
C764 C761 1.391 . S
C764 C763 1.392 . S
N765 Co709 2.257 . S
N765 C762 1.391 . S
N765 C766 1.388 . S
C766 H737 0.930 . S
C766 C761 1.391 . S
C766 N765 1.388 . S
Co767 O769 2.143 . S
Co767 O775 2.074 . S
Co767 O778 2.093 . S
Co767 O791 2.097 . S
Co767 N808 2.151 . S
Co767 N816 2.214 . S
Co768 O769 2.160 . S
Co768 O774 2.058 . S
Co768 O784 2.057 . S
Co768 O799 2.037 . S
Co768 N803 2.145 . S
Co768 N824 2.257 . S
O769 Co767 2.143 . S
O769 Co768 2.160 . S
C770 O771 1.278 . S
C770 O778 1.224 . S
O771 C770 1.278 . S
C772 O773 1.245 . S
C772 O784 1.232 . S
O773 C772 1.245 . S
O774 Co768 2.058 . S
O774 C800 1.269 . S
O775 Co767 2.074 . S
O775 C800 1.257 . S
H776 C801 0.930 . S
H777 C807 0.930 . S
O778 Co767 2.093 . S
O778 C770 1.224 . S
H779 C811 0.929 . S
H780 C813 0.930 . S
H781 C814 0.930 . S
H782 C812 0.929 . S
H783 C815 0.928 . S
O784 Co768 2.057 . S
O784 C772 1.232 . S
H785 C804 0.929 . S
H786 C805 0.929 . S
H787 C817 0.931 . S
H788 C809 0.929 . S
H789 C818 0.930 . S
H790 C810 0.931 . S
O791 Co767 2.097 . S
O791 C819 1.214 . S
H792 C820 0.929 . S
H793 C821 0.929 . S
H794 C822 0.930 . S
H795 C823 0.929 . S
H796 C825 0.930 . S
H797 C802 0.930 . S
H798 C806 0.930 . S
O799 Co768 2.037 . S
O799 C819 1.234 . S
C800 O774 1.269 . S
C800 O775 1.257 . S
C801 H776 0.930 . S
C801 C804 1.388 . S
C801 C806 1.418 . S
C802 H797 0.930 . S
C802 C805 1.404 . S
C802 C806 1.353 . S
N803 Co768 2.145 . S
N803 C804 1.397 . S
N803 C805 1.334 . S
C804 H785 0.929 . S
C804 C801 1.388 . S
C804 N803 1.397 . S
C805 H786 0.929 . S
C805 C802 1.404 . S
C805 N803 1.334 . S
C806 H798 0.930 . S
C806 C801 1.418 . S
C806 C802 1.353 . S
C807 H777 0.930 . S
C807 N808 1.330 . S
C807 C809 1.446 . S
N808 Co767 2.151 . S
N808 C807 1.330 . S
N808 C812 1.418 . S
C809 H788 0.929 . S
C809 C807 1.446 . S
C809 C810 1.332 . S
C810 H790 0.931 . S
C810 C809 1.332 . S
C810 C811 1.267 . S
C811 H779 0.929 . S
C811 C810 1.267 . S
C811 C812 1.251 . S
C812 H782 0.929 . S
C812 N808 1.418 . S
C812 C811 1.251 . S
C813 H780 0.930 . S
C813 C815 1.406 . S
C813 C818 1.261 . S
C814 H781 0.930 . S
C814 N816 1.325 . S
C814 C817 1.357 . S
C815 H783 0.928 . S
C815 C813 1.406 . S
C815 N816 1.261 . S
N816 Co767 2.214 . S
N816 C814 1.325 . S
N816 C815 1.261 . S
C817 H787 0.931 . S
C817 C814 1.357 . S
C817 C818 1.312 . S
C818 H789 0.930 . S
C818 C813 1.261 . S
C818 C817 1.312 . S
C819 O791 1.214 . S
C819 O799 1.234 . S
C820 H792 0.929 . S
C820 C823 1.391 . S
C820 C825 1.391 . S
C821 H793 0.929 . S
C821 C822 1.390 . S
C821 N824 1.391 . S
C822 H794 0.930 . S
C822 C821 1.390 . S
C822 C823 1.392 . S
C823 H795 0.929 . S
C823 C820 1.391 . S
C823 C822 1.392 . S
N824 Co768 2.257 . S
N824 C821 1.391 . S
N824 C825 1.388 . S
C825 H796 0.930 . S
C825 C820 1.391 . S
C825 N824 1.388 . S
Co826 O828 2.143 . S
Co826 O834 2.074 . S
Co826 O837 2.093 . S
Co826 O850 2.097 . S
Co826 N867 2.151 . S
Co826 N875 2.214 . S
Co827 O828 2.160 . S
Co827 O833 2.058 . S
Co827 O843 2.057 . S
Co827 O858 2.037 . S
Co827 N862 2.145 . S
Co827 N883 2.257 . S
O828 Co826 2.143 . S
O828 Co827 2.160 . S
C829 O830 1.278 . S
C829 O837 1.224 . S
O830 C829 1.278 . S
C831 O832 1.245 . S
C831 O843 1.232 . S
O832 C831 1.245 . S
O833 Co827 2.058 . S
O833 C859 1.269 . S
O834 Co826 2.074 . S
O834 C859 1.257 . S
H835 C860 0.930 . S
H836 C866 0.930 . S
O837 Co826 2.093 . S
O837 C829 1.224 . S
H838 C870 0.929 . S
H839 C872 0.930 . S
H840 C873 0.930 . S
H841 C871 0.929 . S
H842 C874 0.928 . S
O843 Co827 2.057 . S
O843 C831 1.232 . S
H844 C863 0.929 . S
H845 C864 0.929 . S
H846 C876 0.931 . S
H847 C868 0.929 . S
H848 C877 0.930 . S
H849 C869 0.931 . S
O850 Co826 2.097 . S
O850 C878 1.214 . S
H851 C879 0.929 . S
H852 C880 0.929 . S
H853 C881 0.930 . S
H854 C882 0.929 . S
H855 C884 0.930 . S
H856 C861 0.930 . S
H857 C865 0.930 . S
O858 Co827 2.037 . S
O858 C878 1.234 . S
C859 O833 1.269 . S
C859 O834 1.257 . S
C860 H835 0.930 . S
C860 C863 1.388 . S
C860 C865 1.418 . S
C861 H856 0.930 . S
C861 C864 1.404 . S
C861 C865 1.353 . S
N862 Co827 2.145 . S
N862 C863 1.397 . S
N862 C864 1.334 . S
C863 H844 0.929 . S
C863 C860 1.388 . S
C863 N862 1.397 . S
C864 H845 0.929 . S
C864 C861 1.404 . S
C864 N862 1.334 . S
C865 H857 0.930 . S
C865 C860 1.418 . S
C865 C861 1.353 . S
C866 H836 0.930 . S
C866 N867 1.330 . S
C866 C868 1.446 . S
N867 Co826 2.151 . S
N867 C866 1.330 . S
N867 C871 1.418 . S
C868 H847 0.929 . S
C868 C866 1.446 . S
C868 C869 1.332 . S
C869 H849 0.931 . S
C869 C868 1.332 . S
C869 C870 1.267 . S
C870 H838 0.929 . S
C870 C869 1.267 . S
C870 C871 1.251 . S
C871 H841 0.929 . S
C871 N867 1.418 . S
C871 C870 1.251 . S
C872 H839 0.930 . S
C872 C874 1.406 . S
C872 C877 1.261 . S
C873 H840 0.930 . S
C873 N875 1.325 . S
C873 C876 1.357 . S
C874 H842 0.928 . S
C874 C872 1.406 . S
C874 N875 1.261 . S
N875 Co826 2.214 . S
N875 C873 1.325 . S
N875 C874 1.261 . S
C876 H846 0.931 . S
C876 C873 1.357 . S
C876 C877 1.312 . S
C877 H848 0.930 . S
C877 C872 1.261 . S
C877 C876 1.312 . S
C878 O850 1.214 . S
C878 O858 1.234 . S
C879 H851 0.929 . S
C879 C882 1.391 . S
C879 C884 1.391 . S
C880 H852 0.929 . S
C880 C881 1.390 . S
C880 N883 1.391 . S
C881 H853 0.930 . S
C881 C880 1.390 . S
C881 C882 1.392 . S
C882 H854 0.929 . S
C882 C879 1.391 . S
C882 C881 1.392 . S
N883 Co827 2.257 . S
N883 C880 1.391 . S
N883 C884 1.388 . S
C884 H855 0.930 . S
C884 C879 1.391 . S
C884 N883 1.388 . S
Co885 O887 2.143 . S
Co885 O893 2.074 . S
Co885 O896 2.093 . S
Co885 O909 2.097 . S
Co885 N926 2.151 . S
Co885 N934 2.214 . S
Co886 O887 2.160 . S
Co886 O892 2.058 . S
Co886 O902 2.057 . S
Co886 O917 2.037 . S
Co886 N921 2.145 . S
Co886 N942 2.257 . S
O887 Co885 2.143 . S
O887 Co886 2.160 . S
C888 O889 1.278 . S
C888 O896 1.224 . S
O889 C888 1.278 . S
C890 O891 1.245 . S
C890 O902 1.232 . S
O891 C890 1.245 . S
O892 Co886 2.058 . S
O892 C918 1.269 . S
O893 Co885 2.074 . S
O893 C918 1.257 . S
H894 C919 0.930 . S
H895 C925 0.930 . S
O896 Co885 2.093 . S
O896 C888 1.224 . S
H897 C929 0.929 . S
H898 C931 0.930 . S
H899 C932 0.930 . S
H900 C930 0.929 . S
H901 C933 0.928 . S
O902 Co886 2.057 . S
O902 C890 1.232 . S
H903 C922 0.929 . S
H904 C923 0.929 . S
H905 C935 0.931 . S
H906 C927 0.929 . S
H907 C936 0.930 . S
H908 C928 0.931 . S
O909 Co885 2.097 . S
O909 C937 1.214 . S
H910 C938 0.929 . S
H911 C939 0.929 . S
H912 C940 0.930 . S
H913 C941 0.929 . S
H914 C943 0.930 . S
H915 C920 0.930 . S
H916 C924 0.930 . S
O917 Co886 2.037 . S
O917 C937 1.234 . S
C918 O892 1.269 . S
C918 O893 1.257 . S
C919 H894 0.930 . S
C919 C922 1.388 . S
C919 C924 1.418 . S
C920 H915 0.930 . S
C920 C923 1.404 . S
C920 C924 1.353 . S
N921 Co886 2.145 . S
N921 C922 1.397 . S
N921 C923 1.334 . S
C922 H903 0.929 . S
C922 C919 1.388 . S
C922 N921 1.397 . S
C923 H904 0.929 . S
C923 C920 1.404 . S
C923 N921 1.334 . S
C924 H916 0.930 . S
C924 C919 1.418 . S
C924 C920 1.353 . S
C925 H895 0.930 . S
C925 N926 1.330 . S
C925 C927 1.446 . S
N926 Co885 2.151 . S
N926 C925 1.330 . S
N926 C930 1.418 . S
C927 H906 0.929 . S
C927 C925 1.446 . S
C927 C928 1.332 . S
C928 H908 0.931 . S
C928 C927 1.332 . S
C928 C929 1.267 . S
C929 H897 0.929 . S
C929 C928 1.267 . S
C929 C930 1.251 . S
C930 H900 0.929 . S
C930 N926 1.418 . S
C930 C929 1.251 . S
C931 H898 0.930 . S
C931 C933 1.406 . S
C931 C936 1.261 . S
C932 H899 0.930 . S
C932 N934 1.325 . S
C932 C935 1.357 . S
C933 H901 0.928 . S
C933 C931 1.406 . S
C933 N934 1.261 . S
N934 Co885 2.214 . S
N934 C932 1.325 . S
N934 C933 1.261 . S
C935 H905 0.931 . S
C935 C932 1.357 . S
C935 C936 1.312 . S
C936 H907 0.930 . S
C936 C931 1.261 . S
C936 C935 1.312 . S
C937 O909 1.214 . S
C937 O917 1.234 . S
C938 H910 0.929 . S
C938 C941 1.391 . S
C938 C943 1.391 . S
C939 H911 0.929 . S
C939 C940 1.390 . S
C939 N942 1.391 . S
C940 H912 0.930 . S
C940 C939 1.390 . S
C940 C941 1.392 . S
C941 H913 0.929 . S
C941 C938 1.391 . S
C941 C940 1.392 . S
N942 Co886 2.257 . S
N942 C939 1.391 . S
N942 C943 1.388 . S
C943 H914 0.930 . S
C943 C938 1.391 . S
C943 N942 1.388 . S
H944 C952 0.950 . S
H945 C957 0.950 . S
H946 C954 0.950 . S
H947 C956 0.950 . S
H948 C958 0.950 . S
H949 C960 0.950 . S
H950 C962 0.950 . S
H951 C963 0.950 . S
C952 H944 0.950 . S
C952 C953 1.386 . S
C952 C954 1.391 . S
C953 C952 1.386 . S
C953 C957 1.393 . S
C954 H946 0.950 . S
C954 C952 1.391 . S
C954 C955 1.400 . S
C955 C954 1.400 . S
C955 C956 1.398 . S
C955 C961 1.491 . S
C956 H947 0.950 . S
C956 C955 1.398 . S
C956 C957 1.391 . S
C957 H945 0.950 . S
C957 C953 1.393 . S
C957 C956 1.391 . S
C958 H948 0.950 . S
C958 C959 1.386 . S
C958 C960 1.391 . S
C959 C958 1.386 . S
C959 C963 1.393 . S
C960 H949 0.950 . S
C960 C958 1.391 . S
C960 C961 1.400 . S
C961 C955 1.491 . S
C961 C960 1.400 . S
C961 C962 1.398 . S
C962 H950 0.950 . S
C962 C961 1.398 . S
C962 C963 1.391 . S
C963 H951 0.950 . S
C963 C959 1.393 . S
C963 C962 1.391 . S
H964 C972 0.950 . S
H965 C977 0.950 . S
H966 C974 0.950 . S
H967 C976 0.950 . S
H968 C978 0.950 . S
H969 C980 0.950 . S
H970 C982 0.950 . S
H971 C983 0.950 . S
C972 H964 0.950 . S
C972 C973 1.386 . S
C972 C974 1.391 . S
C973 C972 1.386 . S
C973 C977 1.393 . S
C974 H966 0.950 . S
C974 C972 1.391 . S
C974 C975 1.400 . S
C975 C974 1.400 . S
C975 C976 1.398 . S
C975 C981 1.491 . S
C976 H967 0.950 . S
C976 C975 1.398 . S
C976 C977 1.391 . S
C977 H965 0.950 . S
C977 C973 1.393 . S
C977 C976 1.391 . S
C978 H968 0.950 . S
C978 C979 1.386 . S
C978 C980 1.391 . S
C979 C978 1.386 . S
C979 C983 1.393 . S
C980 H969 0.950 . S
C980 C978 1.391 . S
C980 C981 1.400 . S
C981 C975 1.491 . S
C981 C980 1.400 . S
C981 C982 1.398 . S
C982 H970 0.950 . S
C982 C981 1.398 . S
C982 C983 1.391 . S
C983 H971 0.950 . S
C983 C979 1.393 . S
C983 C982 1.391 . S
H984 C992 0.950 . S
H985 C997 0.950 . S
H986 C994 0.950 . S
H987 C996 0.950 . S
H988 C998 0.950 . S
H989 C1000 0.950 . S
H990 C1002 0.950 . S
H991 C1003 0.950 . S
C992 H984 0.950 . S
C992 C993 1.386 . S
C992 C994 1.391 . S
C993 C992 1.386 . S
C993 C997 1.393 . S
C994 H986 0.950 . S
C994 C992 1.391 . S
C994 C995 1.400 . S
C995 C994 1.400 . S
C995 C996 1.398 . S
C995 C1001 1.491 . S
C996 H987 0.950 . S
C996 C995 1.398 . S
C996 C997 1.391 . S
C997 H985 0.950 . S
C997 C993 1.393 . S
C997 C996 1.391 . S
C998 H988 0.950 . S
C998 C999 1.386 . S
C998 C1000 1.391 . S
C999 C998 1.386 . S
C999 C1003 1.393 . S
C1000 H989 0.950 . S
C1000 C998 1.391 . S
C1000 C1001 1.400 . S
C1001 C995 1.491 . S
C1001 C1000 1.400 . S
C1001 C1002 1.398 . S
C1002 H990 0.950 . S
C1002 C1001 1.398 . S
C1002 C1003 1.391 . S
C1003 H991 0.950 . S
C1003 C999 1.393 . S
C1003 C1002 1.391 . S
H1004 C1012 0.950 . S
H1005 C1017 0.950 . S
H1006 C1014 0.950 . S
H1007 C1016 0.950 . S
H1008 C1018 0.950 . S
H1009 C1020 0.950 . S
H1010 C1022 0.950 . S
H1011 C1023 0.950 . S
C1012 H1004 0.950 . S
C1012 C1013 1.386 . S
C1012 C1014 1.391 . S
C1013 C1012 1.386 . S
C1013 C1017 1.393 . S
C1014 H1006 0.950 . S
C1014 C1012 1.391 . S
C1014 C1015 1.400 . S
C1015 C1014 1.400 . S
C1015 C1016 1.398 . S
C1015 C1021 1.491 . S
C1016 H1007 0.950 . S
C1016 C1015 1.398 . S
C1016 C1017 1.391 . S
C1017 H1005 0.950 . S
C1017 C1013 1.393 . S
C1017 C1016 1.391 . S
C1018 H1008 0.950 . S
C1018 C1019 1.386 . S
C1018 C1020 1.391 . S
C1019 C1018 1.386 . S
C1019 C1023 1.393 . S
C1020 H1009 0.950 . S
C1020 C1018 1.391 . S
C1020 C1021 1.400 . S
C1021 C1015 1.491 . S
C1021 C1020 1.400 . S
C1021 C1022 1.398 . S
C1022 H1010 0.950 . S
C1022 C1021 1.398 . S
C1022 C1023 1.391 . S
C1023 H1011 0.950 . S
C1023 C1019 1.393 . S
C1023 C1022 1.391 . S
H1024 C1032 0.950 1_565 S
H1025 C1037 0.950 . S
H1026 C1034 0.963 . S
H1027 C1036 0.950 . S
H1028 C1038 0.947 1_554 S
H1029 C1040 0.950 . S
H1030 C1042 0.950 . S
H1031 C1043 0.950 . S
C1032 H1024 0.950 1_545 S
C1032 C1033 1.386 . S
C1032 C1034 1.385 1_554 S
C1033 C1032 1.386 . S
C1033 C1037 1.393 . S
C1034 H1026 0.963 . S
C1034 C1032 1.385 1_556 S
C1034 C1035 1.394 1_556 S
C1035 C1034 1.394 1_554 S
C1035 C1036 1.398 . S
C1035 C1041 1.473 1_554 S
C1036 H1027 0.950 . S
C1036 C1035 1.398 . S
C1036 C1037 1.391 . S
C1037 H1025 0.950 . S
C1037 C1033 1.393 . S
C1037 C1036 1.391 . S
C1038 H1028 0.947 1_556 S
C1038 C1039 1.390 . S
C1038 C1040 1.389 1_556 S
C1039 C1038 1.390 . S
C1039 C1043 1.393 . S
C1040 H1029 0.950 . S
C1040 C1038 1.389 1_554 S
C1040 C1041 1.383 1_554 S
C1041 C1035 1.473 1_556 S
C1041 C1040 1.383 1_556 S
C1041 C1042 1.435 . S
C1042 H1030 0.950 . S
C1042 C1041 1.435 . S
C1042 C1043 1.391 . S
C1043 H1031 0.950 . S
C1043 C1039 1.393 . S
C1043 C1042 1.391 . S
H1044 C1052 0.950 . S
H1045 C1057 0.950 . S
H1046 C1054 0.950 . S
H1047 C1056 0.950 . S
H1048 C1058 0.950 1_655 S
H1049 C1060 0.950 1_554 S
H1050 C1062 0.950 . S
H1051 C1063 0.950 . S
C1052 H1044 0.950 . S
C1052 C1053 1.386 . S
C1052 C1054 1.391 1_554 S
C1053 C1052 1.386 . S
C1053 C1057 1.393 . S
C1054 H1046 0.950 . S
C1054 C1052 1.391 1_556 S
C1054 C1055 1.395 1_556 S
C1055 C1054 1.395 1_554 S
C1055 C1056 1.430 . S
C1055 C1061 1.468 1_554 S
C1056 H1047 0.950 . S
C1056 C1055 1.430 . S
C1056 C1057 1.391 . S
C1057 H1045 0.950 . S
C1057 C1053 1.393 . S
C1057 C1056 1.391 . S
C1058 H1048 0.950 1_455 S
C1058 C1059 1.386 . S
C1058 C1060 1.391 . S
C1059 C1058 1.386 . S
C1059 C1063 1.393 . S
C1060 H1049 0.950 1_556 S
C1060 C1058 1.391 . S
C1060 C1061 1.400 . S
C1061 C1055 1.468 1_556 S
C1061 C1060 1.400 . S
C1061 C1062 1.398 . S
C1062 H1050 0.950 . S
C1062 C1061 1.398 . S
C1062 C1063 1.391 . S
C1063 H1051 0.950 . S
C1063 C1059 1.393 . S
C1063 C1062 1.391 . S
H1064 C1072 0.950 . S
H1065 C1077 0.950 . S
H1066 C1074 0.950 . S
H1067 C1076 0.952 1_554 S
H1068 C1078 0.950 . S
H1069 C1080 0.950 . S
H1070 C1082 0.950 . S
H1071 C1083 0.950 1_545 S
C1072 H1064 0.950 . S
C1072 C1073 1.386 . S
C1072 C1074 1.391 . S
C1073 C1072 1.386 . S
C1073 C1077 1.393 . S
C1074 H1066 0.950 . S
C1074 C1072 1.391 . S
C1074 C1075 1.419 . S
C1075 C1074 1.419 . S
C1075 C1076 1.407 . S
C1075 C1081 1.467 1_556 S
C1076 H1067 0.952 1_556 S
C1076 C1075 1.407 . S
C1076 C1077 1.391 . S
C1077 H1065 0.950 . S
C1077 C1073 1.393 . S
C1077 C1076 1.391 . S
C1078 H1068 0.950 . S
C1078 C1079 1.386 . S
C1078 C1080 1.391 . S
C1079 C1078 1.386 . S
C1079 C1083 1.393 . S
C1080 H1069 0.950 . S
C1080 C1078 1.391 . S
C1080 C1081 1.400 . S
C1081 C1075 1.467 1_554 S
C1081 C1080 1.400 . S
C1081 C1082 1.398 . S
C1082 H1070 0.950 . S
C1082 C1081 1.398 . S
C1082 C1083 1.391 . S
C1083 H1071 0.950 1_565 S
C1083 C1079 1.393 . S
C1083 C1082 1.391 . S
H1084 C1092 0.950 . S
H1085 C1097 0.950 . S
H1086 C1094 0.950 . S
H1087 C1096 0.950 . S
H1088 C1098 0.950 . S
H1089 C1100 0.950 1_554 S
H1090 C1102 0.950 . S
H1091 C1103 0.950 . S
C1092 H1084 0.950 . S
C1092 C1093 1.386 . S
C1092 C1094 1.391 1_554 S
C1093 C1092 1.386 . S
C1093 C1097 1.393 . S
C1094 H1086 0.950 . S
C1094 C1092 1.391 1_556 S
C1094 C1095 1.399 1_556 S
C1095 C1094 1.399 1_554 S
C1095 C1096 1.403 . S
C1095 C1101 1.487 1_554 S
C1096 H1087 0.950 . S
C1096 C1095 1.403 . S
C1096 C1097 1.391 . S
C1097 H1085 0.950 . S
C1097 C1093 1.393 . S
C1097 C1096 1.391 . S
C1098 H1088 0.950 . S
C1098 C1099 1.386 . S
C1098 C1100 1.391 . S
C1099 C1098 1.386 . S
C1099 C1103 1.393 . S
C1100 H1089 0.950 1_556 S
C1100 C1098 1.391 . S
C1100 C1101 1.400 . S
C1101 C1095 1.487 1_556 S
C1101 C1100 1.400 . S
C1101 C1102 1.398 . S
C1102 H1090 0.950 . S
C1102 C1101 1.398 . S
C1102 C1103 1.391 . S
C1103 H1091 0.950 . S
C1103 C1099 1.393 . S
C1103 C1102 1.391 . S
H1104 C1112 0.950 . S
H1105 C1117 0.950 . S
H1106 C1114 0.950 . S
H1107 C1116 0.950 . S
H1108 C1118 0.950 . S
H1109 C1120 0.950 . S
H1110 C1122 0.950 . S
H1111 C1123 0.950 . S
C1112 H1104 0.950 . S
C1112 C1113 1.386 . S
C1112 C1114 1.391 . S
C1113 C1112 1.386 . S
C1113 C1117 1.393 . S
C1114 H1106 0.950 . S
C1114 C1112 1.391 . S
C1114 C1115 1.400 . S
C1115 C1114 1.400 . S
C1115 C1116 1.398 . S
C1115 C1121 1.491 . S
C1116 H1107 0.950 . S
C1116 C1115 1.398 . S
C1116 C1117 1.391 . S
C1117 H1105 0.950 . S
C1117 C1113 1.393 . S
C1117 C1116 1.391 . S
C1118 H1108 0.950 . S
C1118 C1119 1.386 . S
C1118 C1120 1.391 . S
C1119 C1118 1.386 . S
C1119 C1123 1.393 . S
C1120 H1109 0.950 . S
C1120 C1118 1.391 . S
C1120 C1121 1.400 . S
C1121 C1115 1.491 . S
C1121 C1120 1.400 . S
C1121 C1122 1.398 . S
C1122 H1110 0.950 . S
C1122 C1121 1.398 . S
C1122 C1123 1.391 . S
C1123 H1111 0.950 . S
C1123 C1119 1.393 . S
C1123 C1122 1.391 . S
H1124 C1132 0.950 . S
H1125 C1137 0.950 1_455 S
H1126 C1134 0.950 . S
H1127 C1136 0.950 . S
H1128 C1138 0.950 . S
H1129 C1140 0.950 . S
H1130 C1142 0.950 . S
H1131 C1143 0.950 . S
C1132 H1124 0.950 . S
C1132 C1133 1.386 . S
C1132 C1134 1.391 . S
C1133 C1132 1.386 . S
C1133 C1137 1.393 . S
C1134 H1126 0.950 . S
C1134 C1132 1.391 . S
C1134 C1135 1.400 . S
C1135 C1134 1.400 . S
C1135 C1136 1.398 . S
C1135 C1141 1.491 . S
C1136 H1127 0.950 . S
C1136 C1135 1.398 . S
C1136 C1137 1.391 . S
C1137 H1125 0.950 1_655 S
C1137 C1133 1.393 . S
C1137 C1136 1.391 . S
C1138 H1128 0.950 . S
C1138 C1139 1.386 . S
C1138 C1140 1.391 . S
C1139 C1138 1.386 . S
C1139 C1143 1.393 . S
C1140 H1129 0.950 . S
C1140 C1138 1.391 . S
C1140 C1141 1.400 . S
C1141 C1135 1.491 . S
C1141 C1140 1.400 . S
C1141 C1142 1.398 . S
C1142 H1130 0.950 . S
C1142 C1141 1.398 . S
C1142 C1143 1.391 . S
C1143 H1131 0.950 . S
C1143 C1139 1.393 . S
C1143 C1142 1.391 . S
H1144 C1152 0.950 . S
H1145 C1157 0.950 1_565 S
H1146 C1154 0.950 . S
H1147 C1156 0.950 . S
H1148 C1158 0.950 . S
H1149 C1160 0.950 . S
H1150 C1162 0.950 . S
H1151 C1163 0.950 . S
C1152 H1144 0.950 . S
C1152 C1153 1.386 . S
C1152 C1154 1.391 . S
C1153 C1152 1.386 . S
C1153 C1157 1.393 . S
C1154 H1146 0.950 . S
C1154 C1152 1.391 . S
C1154 C1155 1.400 . S
C1155 C1154 1.400 . S
C1155 C1156 1.398 . S
C1155 C1161 1.491 . S
C1156 H1147 0.950 . S
C1156 C1155 1.398 . S
C1156 C1157 1.391 . S
C1157 H1145 0.950 1_545 S
C1157 C1153 1.393 . S
C1157 C1156 1.391 . S
C1158 H1148 0.950 . S
C1158 C1159 1.386 . S
C1158 C1160 1.391 . S
C1159 C1158 1.386 . S
C1159 C1163 1.393 . S
C1160 H1149 0.950 . S
C1160 C1158 1.391 . S
C1160 C1161 1.400 . S
C1161 C1155 1.491 . S
C1161 C1160 1.400 . S
C1161 C1162 1.398 . S
C1162 H1150 0.950 . S
C1162 C1161 1.398 . S
C1162 C1163 1.391 . S
C1163 H1151 0.950 . S
C1163 C1159 1.393 . S
C1163 C1162 1.391 . S
H1164 C1172 0.950 . S
H1165 C1177 0.950 . S
H1166 C1174 0.950 . S
H1167 C1176 0.950 . S
H1168 C1178 0.950 . S
H1169 C1180 0.950 . S
H1170 C1182 0.950 . S
H1171 C1183 0.950 . S
C1172 H1164 0.950 . S
C1172 C1173 1.386 . S
C1172 C1174 1.391 . S
C1173 C1172 1.386 . S
C1173 C1177 1.393 . S
C1174 H1166 0.950 . S
C1174 C1172 1.391 . S
C1174 C1175 1.400 . S
C1175 C1174 1.400 . S
C1175 C1176 1.398 . S
C1175 C1181 1.491 . S
C1176 H1167 0.950 . S
C1176 C1175 1.398 . S
C1176 C1177 1.391 . S
C1177 H1165 0.950 . S
C1177 C1173 1.393 . S
C1177 C1176 1.391 . S
C1178 H1168 0.950 . S
C1178 C1179 1.386 . S
C1178 C1180 1.391 . S
C1179 C1178 1.386 . S
C1179 C1183 1.393 . S
C1180 H1169 0.950 . S
C1180 C1178 1.391 . S
C1180 C1181 1.400 . S
C1181 C1175 1.491 . S
C1181 C1180 1.400 . S
C1181 C1182 1.398 . S
C1182 H1170 0.950 . S
C1182 C1181 1.398 . S
C1182 C1183 1.391 . S
C1183 H1171 0.950 . S
C1183 C1179 1.393 . S
C1183 C1182 1.391 . S
H1184 C1192 0.950 . S
H1185 C1197 0.950 . S
H1186 C1194 0.950 . S
H1187 C1196 0.950 . S
H1188 C1198 0.950 . S
H1189 C1200 0.950 . S
H1190 C1202 0.950 . S
H1191 C1203 0.950 . S
C1192 H1184 0.950 . S
C1192 C1193 1.386 . S
C1192 C1194 1.391 . S
C1193 C1192 1.386 . S
C1193 C1197 1.393 . S
C1194 H1186 0.950 . S
C1194 C1192 1.391 . S
C1194 C1195 1.400 . S
C1195 C1194 1.400 . S
C1195 C1196 1.398 . S
C1195 C1201 1.491 . S
C1196 H1187 0.950 . S
C1196 C1195 1.398 . S
C1196 C1197 1.391 . S
C1197 H1185 0.950 . S
C1197 C1193 1.393 . S
C1197 C1196 1.391 . S
C1198 H1188 0.950 . S
C1198 C1199 1.386 . S
C1198 C1200 1.391 . S
C1199 C1198 1.386 . S
C1199 C1203 1.393 . S
C1200 H1189 0.950 . S
C1200 C1198 1.391 . S
C1200 C1201 1.400 . S
C1201 C1195 1.491 . S
C1201 C1200 1.400 . S
C1201 C1202 1.398 . S
C1202 H1190 0.950 . S
C1202 C1201 1.398 . S
C1202 C1203 1.391 . S
C1203 H1191 0.950 . S
C1203 C1199 1.393 . S
C1203 C1202 1.391 . S
H1204 C1212 0.950 . S
H1205 C1217 0.950 . S
H1206 C1214 0.950 . S
H1207 C1216 0.950 . S
H1208 C1218 0.950 . S
H1209 C1220 0.950 . S
H1210 C1222 0.950 . S
H1211 C1223 0.950 . S
C1212 H1204 0.950 . S
C1212 C1213 1.386 . S
C1212 C1214 1.391 . S
C1213 C1212 1.386 . S
C1213 C1217 1.393 . S
C1214 H1206 0.950 . S
C1214 C1212 1.391 . S
C1214 C1215 1.400 . S
C1215 C1214 1.400 . S
C1215 C1216 1.398 . S
C1215 C1221 1.491 . S
C1216 H1207 0.950 . S
C1216 C1215 1.398 . S
C1216 C1217 1.391 . S
C1217 H1205 0.950 . S
C1217 C1213 1.393 . S
C1217 C1216 1.391 . S
C1218 H1208 0.950 . S
C1218 C1219 1.386 . S
C1218 C1220 1.391 . S
C1219 C1218 1.386 . S
C1219 C1223 1.393 . S
C1220 H1209 0.950 . S
C1220 C1218 1.391 . S
C1220 C1221 1.400 . S
C1221 C1215 1.491 . S
C1221 C1220 1.400 . S
C1221 C1222 1.398 . S
C1222 H1210 0.950 . S
C1222 C1221 1.398 . S
C1222 C1223 1.391 . S
C1223 H1211 0.950 . S
C1223 C1219 1.393 . S
C1223 C1222 1.391 . S
H1224 C1232 0.950 . S
H1225 C1237 0.950 . S
H1226 C1234 0.950 . S
H1227 C1236 0.950 . S
H1228 C1238 0.950 . S
H1229 C1240 0.950 . S
H1230 C1242 0.950 . S
H1231 C1243 0.950 . S
C1232 H1224 0.950 . S
C1232 C1233 1.386 . S
C1232 C1234 1.391 . S
C1233 C1232 1.386 . S
C1233 C1237 1.393 . S
C1234 H1226 0.950 . S
C1234 C1232 1.391 . S
C1234 C1235 1.400 . S
C1235 C1234 1.400 . S
C1235 C1236 1.398 . S
C1235 C1241 1.491 . S
C1236 H1227 0.950 . S
C1236 C1235 1.398 . S
C1236 C1237 1.391 . S
C1237 H1225 0.950 . S
C1237 C1233 1.393 . S
C1237 C1236 1.391 . S
C1238 H1228 0.950 . S
C1238 C1239 1.386 . S
C1238 C1240 1.391 . S
C1239 C1238 1.386 . S
C1239 C1243 1.393 . S
C1240 H1229 0.950 . S
C1240 C1238 1.391 . S
C1240 C1241 1.400 . S
C1241 C1235 1.491 . S
C1241 C1240 1.400 . S
C1241 C1242 1.398 . S
C1242 H1230 0.950 . S
C1242 C1241 1.398 . S
C1242 C1243 1.391 . S
C1243 H1231 0.950 . S
C1243 C1239 1.393 . S
C1243 C1242 1.391 . S
H1244 C1252 0.950 . S
H1245 C1257 0.950 . S
H1246 C1254 0.950 . S
H1247 C1256 0.950 . S
H1248 C1258 0.950 . S
H1249 C1260 0.950 . S
H1250 C1262 0.950 . S
H1251 C1263 0.950 . S
C1252 H1244 0.950 . S
C1252 C1253 1.386 . S
C1252 C1254 1.391 . S
C1253 C1252 1.386 . S
C1253 C1257 1.393 . S
C1254 H1246 0.950 . S
C1254 C1252 1.391 . S
C1254 C1255 1.400 . S
C1255 C1254 1.400 . S
C1255 C1256 1.398 . S
C1255 C1261 1.491 . S
C1256 H1247 0.950 . S
C1256 C1255 1.398 . S
C1256 C1257 1.391 . S
C1257 H1245 0.950 . S
C1257 C1253 1.393 . S
C1257 C1256 1.391 . S
C1258 H1248 0.950 . S
C1258 C1259 1.386 . S
C1258 C1260 1.391 . S
C1259 C1258 1.386 . S
C1259 C1263 1.393 . S
C1260 H1249 0.950 . S
C1260 C1258 1.391 . S
C1260 C1261 1.400 . S
C1261 C1255 1.491 . S
C1261 C1260 1.400 . S
C1261 C1262 1.398 . S
C1262 H1250 0.950 . S
C1262 C1261 1.398 . S
C1262 C1263 1.391 . S
C1263 H1251 0.950 . S
C1263 C1259 1.393 . S
C1263 C1262 1.391 . S
H1264 C1272 0.950 . S
H1265 C1277 0.950 . S
H1266 C1274 0.950 . S
H1267 C1276 0.950 . S
H1268 C1278 0.950 . S
H1269 C1280 0.950 . S
H1270 C1282 0.950 . S
H1271 C1283 0.950 . S
C1272 H1264 0.950 . S
C1272 C1273 1.386 . S
C1272 C1274 1.391 . S
C1273 C1272 1.386 . S
C1273 C1277 1.393 . S
C1274 H1266 0.950 . S
C1274 C1272 1.391 . S
C1274 C1275 1.400 . S
C1275 C1274 1.400 . S
C1275 C1276 1.398 . S
C1275 C1281 1.491 . S
C1276 H1267 0.950 . S
C1276 C1275 1.398 . S
C1276 C1277 1.391 . S
C1277 H1265 0.950 . S
C1277 C1273 1.393 . S
C1277 C1276 1.391 . S
C1278 H1268 0.950 . S
C1278 C1279 1.386 . S
C1278 C1280 1.391 . S
C1279 C1278 1.386 . S
C1279 C1283 1.393 . S
C1280 H1269 0.950 . S
C1280 C1278 1.391 . S
C1280 C1281 1.400 . S
C1281 C1275 1.491 . S
C1281 C1280 1.400 . S
C1281 C1282 1.398 . S
C1282 H1270 0.950 . S
C1282 C1281 1.398 . S
C1282 C1283 1.391 . S
C1283 H1271 0.950 . S
C1283 C1279 1.393 . S
C1283 C1282 1.391 . S
H1284 C1292 0.950 . S
H1285 C1297 0.950 . S
H1286 C1294 0.950 . S
H1287 C1296 0.950 . S
H1288 C1298 0.950 . S
H1289 C1300 0.950 . S
H1290 C1302 0.950 . S
H1291 C1303 0.950 . S
C1292 H1284 0.950 . S
C1292 C1293 1.386 . S
C1292 C1294 1.391 . S
C1293 C1292 1.386 . S
C1293 C1297 1.393 . S
C1294 H1286 0.950 . S
C1294 C1292 1.391 . S
C1294 C1295 1.400 . S
C1295 C1294 1.400 . S
C1295 C1296 1.398 . S
C1295 C1301 1.491 . S
C1296 H1287 0.950 . S
C1296 C1295 1.398 . S
C1296 C1297 1.391 . S
C1297 H1285 0.950 . S
C1297 C1293 1.393 . S
C1297 C1296 1.391 . S
C1298 H1288 0.950 . S
C1298 C1299 1.386 . S
C1298 C1300 1.391 . S
C1299 C1298 1.386 . S
C1299 C1303 1.393 . S
C1300 H1289 0.950 . S
C1300 C1298 1.391 . S
C1300 C1301 1.400 . S
C1301 C1295 1.491 . S
C1301 C1300 1.400 . S
C1301 C1302 1.398 . S
C1302 H1290 0.950 . S
C1302 C1301 1.398 . S
C1302 C1303 1.391 . S
C1303 H1291 0.950 . S
C1303 C1299 1.393 . S
C1303 C1302 1.391 . S
H1304 C1312 0.950 . S
H1305 C1317 0.950 . S
H1306 C1314 0.950 . S
H1307 C1316 0.950 . S
H1308 C1318 0.950 . S
H1309 C1320 0.950 . S
H1310 C1322 0.950 . S
H1311 C1323 0.950 . S
C1312 H1304 0.950 . S
C1312 C1313 1.386 . S
C1312 C1314 1.391 . S
C1313 C1312 1.386 . S
C1313 C1317 1.393 . S
C1314 H1306 0.950 . S
C1314 C1312 1.391 . S
C1314 C1315 1.400 . S
C1315 C1314 1.400 . S
C1315 C1316 1.398 . S
C1315 C1321 1.491 . S
C1316 H1307 0.950 . S
C1316 C1315 1.398 . S
C1316 C1317 1.391 . S
C1317 H1305 0.950 . S
C1317 C1313 1.393 . S
C1317 C1316 1.391 . S
C1318 H1308 0.950 . S
C1318 C1319 1.386 . S
C1318 C1320 1.391 . S
C1319 C1318 1.386 . S
C1319 C1323 1.393 . S
C1320 H1309 0.950 . S
C1320 C1318 1.391 . S
C1320 C1321 1.400 . S
C1321 C1315 1.491 . S
C1321 C1320 1.400 . S
C1321 C1322 1.398 . S
C1322 H1310 0.950 . S
C1322 C1321 1.398 . S
C1322 C1323 1.391 . S
C1323 H1311 0.950 . S
C1323 C1319 1.393 . S
C1323 C1322 1.391 . S
H1324 C1332 0.950 . S
H1325 C1337 0.950 . S
H1326 C1334 0.950 . S
H1327 C1336 0.950 . S
H1328 C1338 0.950 . S
H1329 C1340 0.950 . S
H1330 C1342 0.950 . S
H1331 C1343 0.950 . S
C1332 H1324 0.950 . S
C1332 C1333 1.386 . S
C1332 C1334 1.391 . S
C1333 C1332 1.386 . S
C1333 C1337 1.393 . S
C1334 H1326 0.950 . S
C1334 C1332 1.391 . S
C1334 C1335 1.400 . S
C1335 C1334 1.400 . S
C1335 C1336 1.398 . S
C1335 C1341 1.491 . S
C1336 H1327 0.950 . S
C1336 C1335 1.398 . S
C1336 C1337 1.391 . S
C1337 H1325 0.950 . S
C1337 C1333 1.393 . S
C1337 C1336 1.391 . S
C1338 H1328 0.950 . S
C1338 C1339 1.386 . S
C1338 C1340 1.391 . S
C1339 C1338 1.386 . S
C1339 C1343 1.393 . S
C1340 H1329 0.950 . S
C1340 C1338 1.391 . S
C1340 C1341 1.400 . S
C1341 C1335 1.491 . S
C1341 C1340 1.400 . S
C1341 C1342 1.398 . S
C1342 H1330 0.950 . S
C1342 C1341 1.398 . S
C1342 C1343 1.391 . S
C1343 H1331 0.950 . S
C1343 C1339 1.393 . S
C1343 C1342 1.391 . S
H1344 C1352 0.950 . S
H1345 C1357 0.950 . S
H1346 C1354 0.950 . S
H1347 C1356 0.950 . S
H1348 C1358 0.950 . S
H1349 C1360 0.950 . S
H1350 C1362 0.950 . S
H1351 C1363 0.950 . S
C1352 H1344 0.950 . S
C1352 C1353 1.386 . S
C1352 C1354 1.391 . S
C1353 C1352 1.386 . S
C1353 C1357 1.393 . S
C1354 H1346 0.950 . S
C1354 C1352 1.391 . S
C1354 C1355 1.400 . S
C1355 C1354 1.400 . S
C1355 C1356 1.398 . S
C1355 C1361 1.491 . S
C1356 H1347 0.950 . S
C1356 C1355 1.398 . S
C1356 C1357 1.391 . S
C1357 H1345 0.950 . S
C1357 C1353 1.393 . S
C1357 C1356 1.391 . S
C1358 H1348 0.950 . S
C1358 C1359 1.386 . S
C1358 C1360 1.391 . S
C1359 C1358 1.386 . S
C1359 C1363 1.393 . S
C1360 H1349 0.950 . S
C1360 C1358 1.391 . S
C1360 C1361 1.400 . S
C1361 C1355 1.491 . S
C1361 C1360 1.400 . S
C1361 C1362 1.398 . S
C1362 H1350 0.950 . S
C1362 C1361 1.398 . S
C1362 C1363 1.391 . S
C1363 H1351 0.950 . S
C1363 C1359 1.393 . S
C1363 C1362 1.391 . S
H1364 C1372 0.950 . S
H1365 C1377 0.950 . S
H1366 C1374 0.950 . S
H1367 C1376 0.950 . S
H1368 C1378 0.950 . S
H1369 C1380 0.950 . S
H1370 C1382 0.950 . S
H1371 C1383 0.950 . S
C1372 H1364 0.950 . S
C1372 C1373 1.386 . S
C1372 C1374 1.391 . S
C1373 C1372 1.386 . S
C1373 C1377 1.393 . S
C1374 H1366 0.950 . S
C1374 C1372 1.391 . S
C1374 C1375 1.400 . S
C1375 C1374 1.400 . S
C1375 C1376 1.398 . S
C1375 C1381 1.491 . S
C1376 H1367 0.950 . S
C1376 C1375 1.398 . S
C1376 C1377 1.391 . S
C1377 H1365 0.950 . S
C1377 C1373 1.393 . S
C1377 C1376 1.391 . S
C1378 H1368 0.950 . S
C1378 C1379 1.386 . S
C1378 C1380 1.391 . S
C1379 C1378 1.386 . S
C1379 C1383 1.393 . S
C1380 H1369 0.950 . S
C1380 C1378 1.391 . S
C1380 C1381 1.400 . S
C1381 C1375 1.491 . S
C1381 C1380 1.400 . S
C1381 C1382 1.398 . S
C1382 H1370 0.950 . S
C1382 C1381 1.398 . S
C1382 C1383 1.391 . S
C1383 H1371 0.950 . S
C1383 C1379 1.393 . S
C1383 C1382 1.391 . S
H1384 C1392 0.950 . S
H1385 C1397 0.950 . S
H1386 C1394 0.950 . S
H1387 C1396 0.950 . S
H1388 C1398 0.950 . S
H1389 C1400 0.950 . S
H1390 C1402 0.950 . S
H1391 C1403 0.950 . S
C1392 H1384 0.950 . S
C1392 C1393 1.386 . S
C1392 C1394 1.391 . S
C1393 C1392 1.386 . S
C1393 C1397 1.393 . S
C1394 H1386 0.950 . S
C1394 C1392 1.391 . S
C1394 C1395 1.400 . S
C1395 C1394 1.400 . S
C1395 C1396 1.398 . S
C1395 C1401 1.491 . S
C1396 H1387 0.950 . S
C1396 C1395 1.398 . S
C1396 C1397 1.391 . S
C1397 H1385 0.950 . S
C1397 C1393 1.393 . S
C1397 C1396 1.391 . S
C1398 H1388 0.950 . S
C1398 C1399 1.386 . S
C1398 C1400 1.391 . S
C1399 C1398 1.386 . S
C1399 C1403 1.393 . S
C1400 H1389 0.950 . S
C1400 C1398 1.391 . S
C1400 C1401 1.400 . S
C1401 C1395 1.491 . S
C1401 C1400 1.400 . S
C1401 C1402 1.398 . S
C1402 H1390 0.950 . S
C1402 C1401 1.398 . S
C1402 C1403 1.391 . S
C1403 H1391 0.950 . S
C1403 C1399 1.393 . S
C1403 C1402 1.391 . S
H1404 C1412 0.950 . S
H1405 C1417 0.950 . S
H1406 C1414 0.950 . S
H1407 C1416 0.950 . S
H1408 C1418 0.950 . S
H1409 C1420 0.950 . S
H1410 C1422 0.950 . S
H1411 C1423 0.950 . S
C1412 H1404 0.950 . S
C1412 C1413 1.386 . S
C1412 C1414 1.391 . S
C1413 C1412 1.386 . S
C1413 C1417 1.393 . S
C1414 H1406 0.950 . S
C1414 C1412 1.391 . S
C1414 C1415 1.400 . S
C1415 C1414 1.400 . S
C1415 C1416 1.398 . S
C1415 C1421 1.491 . S
C1416 H1407 0.950 . S
C1416 C1415 1.398 . S
C1416 C1417 1.391 . S
C1417 H1405 0.950 . S
C1417 C1413 1.393 . S
C1417 C1416 1.391 . S
C1418 H1408 0.950 . S
C1418 C1419 1.386 . S
C1418 C1420 1.391 . S
C1419 C1418 1.386 . S
C1419 C1423 1.393 . S
C1420 H1409 0.950 . S
C1420 C1418 1.391 . S
C1420 C1421 1.400 . S
C1421 C1415 1.491 . S
C1421 C1420 1.400 . S
C1421 C1422 1.398 . S
C1422 H1410 0.950 . S
C1422 C1421 1.398 . S
C1422 C1423 1.391 . S
C1423 H1411 0.950 . S
C1423 C1419 1.393 . S
C1423 C1422 1.391 . S
H1424 C1432 0.950 . S
H1425 C1437 0.950 . S
H1426 C1434 0.950 1_455 S
H1427 C1436 0.950 . S
H1428 C1438 0.950 . S
H1429 C1440 0.950 1_655 S
H1430 C1442 0.950 . S
H1431 C1443 0.950 . S
C1432 H1424 0.950 . S
C1432 C1433 1.386 . S
C1432 C1434 1.391 . S
C1433 C1432 1.386 . S
C1433 C1437 1.393 . S
C1434 H1426 0.950 1_655 S
C1434 C1432 1.391 . S
C1434 C1435 1.400 . S
C1435 C1434 1.400 . S
C1435 C1436 1.398 . S
C1435 C1441 1.491 1_665 S
C1436 H1427 0.950 . S
C1436 C1435 1.398 . S
C1436 C1437 1.391 . S
C1437 H1425 0.950 . S
C1437 C1433 1.393 . S
C1437 C1436 1.391 . S
C1438 H1428 0.950 . S
C1438 C1439 1.386 . S
C1438 C1440 1.391 . S
C1439 C1438 1.386 . S
C1439 C1443 1.393 . S
C1440 H1429 0.950 1_455 S
C1440 C1438 1.391 . S
C1440 C1441 1.400 . S
C1441 C1435 1.491 1_445 S
C1441 C1440 1.400 . S
C1441 C1442 1.398 . S
C1442 H1430 0.950 . S
C1442 C1441 1.398 . S
C1442 C1443 1.391 . S
C1443 H1431 0.950 . S
C1443 C1439 1.393 . S
C1443 C1442 1.391 . S
H1444 C1452 0.950 . S
H1445 C1457 0.950 1_565 S
H1446 C1454 0.950 . S
H1447 C1456 0.950 . S
H1448 C1458 0.950 . S
H1449 C1460 0.950 . S
H1450 C1462 0.950 . S
H1451 C1463 0.950 1_545 S
C1452 H1444 0.950 . S
C1452 C1453 1.386 . S
C1452 C1454 1.391 . S
C1453 C1452 1.386 . S
C1453 C1457 1.393 . S
C1454 H1446 0.950 . S
C1454 C1452 1.391 . S
C1454 C1455 1.400 . S
C1455 C1454 1.400 . S
C1455 C1456 1.398 1_545 S
C1455 C1461 1.491 1_645 S
C1456 H1447 0.950 . S
C1456 C1455 1.398 1_565 S
C1456 C1457 1.391 1_565 S
C1457 H1445 0.950 1_545 S
C1457 C1453 1.393 . S
C1457 C1456 1.391 1_545 S
C1458 H1448 0.950 . S
C1458 C1459 1.386 . S
C1458 C1460 1.391 . S
C1459 C1458 1.386 . S
C1459 C1463 1.393 . S
C1460 H1449 0.950 . S
C1460 C1458 1.391 . S
C1460 C1461 1.400 . S
C1461 C1455 1.491 1_465 S
C1461 C1460 1.400 . S
C1461 C1462 1.398 1_565 S
C1462 H1450 0.950 . S
C1462 C1461 1.398 1_545 S
C1462 C1463 1.391 1_545 S
C1463 H1451 0.950 1_565 S
C1463 C1459 1.393 . S
C1463 C1462 1.391 1_565 S
H1464 C1472 0.950 . S
H1465 C1477 0.950 1_655 S
H1466 C1474 0.950 . S
H1467 C1476 0.950 . S
H1468 C1478 0.950 . S
H1469 C1480 0.950 . S
H1470 C1482 0.950 . S
H1471 C1483 0.950 1_455 S
C1472 H1464 0.950 . S
C1472 C1473 1.386 . S
C1472 C1474 1.391 . S
C1473 C1472 1.386 . S
C1473 C1477 1.393 . S
C1474 H1466 0.950 . S
C1474 C1472 1.391 . S
C1474 C1475 1.400 . S
C1475 C1474 1.400 . S
C1475 C1476 1.398 1_455 S
C1475 C1481 1.491 1_455 S
C1476 H1467 0.950 . S
C1476 C1475 1.398 1_655 S
C1476 C1477 1.391 1_655 S
C1477 H1465 0.950 1_455 S
C1477 C1473 1.393 . S
C1477 C1476 1.391 1_455 S
C1478 H1468 0.950 . S
C1478 C1479 1.386 . S
C1478 C1480 1.391 . S
C1479 C1478 1.386 . S
C1479 C1483 1.393 . S
C1480 H1469 0.950 . S
C1480 C1478 1.391 . S
C1480 C1481 1.400 . S
C1481 C1475 1.491 1_655 S
C1481 C1480 1.400 . S
C1481 C1482 1.398 1_655 S
C1482 H1470 0.950 . S
C1482 C1481 1.398 1_455 S
C1482 C1483 1.391 1_455 S
C1483 H1471 0.950 1_655 S
C1483 C1479 1.393 . S
C1483 C1482 1.391 1_655 S
H1484 C1492 0.950 . S
H1485 C1497 0.950 . S
H1486 C1494 0.950 1_545 S
H1487 C1496 0.950 . S
H1488 C1498 0.950 . S
H1489 C1500 0.950 1_565 S
H1490 C1502 0.950 . S
H1491 C1503 0.950 . S
C1492 H1484 0.950 . S
C1492 C1493 1.386 . S
C1492 C1494 1.391 . S
C1493 C1492 1.386 . S
C1493 C1497 1.393 . S
C1494 H1486 0.950 1_565 S
C1494 C1492 1.391 . S
C1494 C1495 1.400 . S
C1495 C1494 1.400 . S
C1495 C1496 1.398 . S
C1495 C1501 1.491 1_565 S
C1496 H1487 0.950 . S
C1496 C1495 1.398 . S
C1496 C1497 1.391 . S
C1497 H1485 0.950 . S
C1497 C1493 1.393 . S
C1497 C1496 1.391 . S
C1498 H1488 0.950 . S
C1498 C1499 1.386 . S
C1498 C1500 1.391 . S
C1499 C1498 1.386 . S
C1499 C1503 1.393 . S
C1500 H1489 0.950 1_545 S
C1500 C1498 1.391 . S
C1500 C1501 1.400 . S
C1501 C1495 1.491 1_545 S
C1501 C1500 1.400 . S
C1501 C1502 1.398 . S
C1502 H1490 0.950 . S
C1502 C1501 1.398 . S
C1502 C1503 1.391 . S
C1503 H1491 0.950 . S
C1503 C1499 1.393 . S
C1503 C1502 1.391 . S
H1504 C1512 0.950 . S
H1505 C1517 0.950 . S
H1506 C1514 0.950 . S
H1507 C1516 0.950 . S
H1508 C1518 0.950 . S
H1509 C1520 0.950 . S
H1510 C1522 0.950 . S
H1511 C1523 0.950 . S
C1512 H1504 0.950 . S
C1512 C1513 1.386 . S
C1512 C1514 1.391 . S
C1513 C1512 1.386 . S
C1513 C1517 1.393 . S
C1514 H1506 0.950 . S
C1514 C1512 1.391 . S
C1514 C1515 1.400 . S
C1515 C1514 1.400 . S
C1515 C1516 1.398 . S
C1515 C1521 1.491 . S
C1516 H1507 0.950 . S
C1516 C1515 1.398 . S
C1516 C1517 1.391 . S
C1517 H1505 0.950 . S
C1517 C1513 1.393 . S
C1517 C1516 1.391 . S
C1518 H1508 0.950 . S
C1518 C1519 1.386 . S
C1518 C1520 1.391 . S
C1519 C1518 1.386 . S
C1519 C1523 1.393 . S
C1520 H1509 0.950 . S
C1520 C1518 1.391 . S
C1520 C1521 1.400 . S
C1521 C1515 1.491 . S
C1521 C1520 1.400 . S
C1521 C1522 1.398 . S
C1522 H1510 0.950 . S
C1522 C1521 1.398 . S
C1522 C1523 1.391 . S
C1523 H1511 0.950 . S
C1523 C1519 1.393 . S
C1523 C1522 1.391 . S
H1524 C1532 0.950 . S
H1525 C1537 0.950 . S
H1526 C1534 0.950 . S
H1527 C1536 0.950 . S
H1528 C1538 0.950 . S
H1529 C1540 0.950 . S
H1530 C1542 0.950 . S
H1531 C1543 0.950 . S
C1532 H1524 0.950 . S
C1532 C1533 1.386 . S
C1532 C1534 1.391 . S
C1533 C1532 1.386 . S
C1533 C1537 1.393 . S
C1534 H1526 0.950 . S
C1534 C1532 1.391 . S
C1534 C1535 1.400 . S
C1535 C1534 1.400 . S
C1535 C1536 1.398 . S
C1535 C1541 1.491 . S
C1536 H1527 0.950 . S
C1536 C1535 1.398 . S
C1536 C1537 1.391 . S
C1537 H1525 0.950 . S
C1537 C1533 1.393 . S
C1537 C1536 1.391 . S
C1538 H1528 0.950 . S
C1538 C1539 1.386 . S
C1538 C1540 1.391 . S
C1539 C1538 1.386 . S
C1539 C1543 1.393 . S
C1540 H1529 0.950 . S
C1540 C1538 1.391 . S
C1540 C1541 1.400 . S
C1541 C1535 1.491 . S
C1541 C1540 1.400 . S
C1541 C1542 1.398 . S
C1542 H1530 0.950 . S
C1542 C1541 1.398 . S
C1542 C1543 1.391 . S
C1543 H1531 0.950 . S
C1543 C1539 1.393 . S
C1543 C1542 1.391 . S
H1544 C1552 0.950 . S
H1545 C1557 0.950 . S
H1546 C1554 0.950 . S
H1547 C1556 0.950 . S
H1548 C1558 0.950 . S
H1549 C1560 0.950 . S
H1550 C1562 0.950 . S
H1551 C1563 0.950 . S
C1552 H1544 0.950 . S
C1552 C1553 1.386 . S
C1552 C1554 1.391 . S
C1553 C1552 1.386 . S
C1553 C1557 1.393 . S
C1554 H1546 0.950 . S
C1554 C1552 1.391 . S
C1554 C1555 1.400 . S
C1555 C1554 1.400 . S
C1555 C1556 1.398 . S
C1555 C1561 1.491 1_545 S
C1556 H1547 0.950 . S
C1556 C1555 1.398 . S
C1556 C1557 1.391 . S
C1557 H1545 0.950 . S
C1557 C1553 1.393 . S
C1557 C1556 1.391 . S
C1558 H1548 0.950 . S
C1558 C1559 1.386 . S
C1558 C1560 1.391 . S
C1559 C1558 1.386 . S
C1559 C1563 1.393 . S
C1560 H1549 0.950 . S
C1560 C1558 1.391 . S
C1560 C1561 1.400 . S
C1561 C1555 1.491 1_565 S
C1561 C1560 1.400 . S
C1561 C1562 1.398 . S
C1562 H1550 0.950 . S
C1562 C1561 1.398 . S
C1562 C1563 1.391 . S
C1563 H1551 0.950 . S
C1563 C1559 1.393 . S
C1563 C1562 1.391 . S
H1564 C1572 0.950 . S
H1565 C1577 0.950 . S
H1566 C1574 0.950 . S
H1567 C1576 0.950 . S
H1568 C1578 0.950 . S
H1569 C1580 0.950 . S
H1570 C1582 0.950 . S
H1571 C1583 0.950 . S
C1572 H1564 0.950 . S
C1572 C1573 1.386 . S
C1572 C1574 1.391 . S
C1573 C1572 1.386 . S
C1573 C1577 1.393 . S
C1574 H1566 0.950 . S
C1574 C1572 1.391 . S
C1574 C1575 1.400 . S
C1575 C1574 1.400 . S
C1575 C1576 1.398 . S
C1575 C1581 1.491 1_655 S
C1576 H1567 0.950 . S
C1576 C1575 1.398 . S
C1576 C1577 1.391 . S
C1577 H1565 0.950 . S
C1577 C1573 1.393 . S
C1577 C1576 1.391 . S
C1578 H1568 0.950 . S
C1578 C1579 1.386 . S
C1578 C1580 1.391 . S
C1579 C1578 1.386 . S
C1579 C1583 1.393 . S
C1580 H1569 0.950 . S
C1580 C1578 1.391 . S
C1580 C1581 1.400 . S
C1581 C1575 1.491 1_455 S
C1581 C1580 1.400 . S
C1581 C1582 1.398 . S
C1582 H1570 0.950 . S
C1582 C1581 1.398 . S
C1582 C1583 1.391 . S
C1583 H1571 0.950 . S
C1583 C1579 1.393 . S
C1583 C1582 1.391 . S
C953 C33 1.306 . S
C959 C701 1.317 . S
C973 C524 1.316 . S
C979 C92 1.303 . S
C993 C583 1.312 . S
C999 C151 1.312 . S
C1013 C642 1.315 . S
C1019 C210 1.301 . S
C1033 C347 1.317 1_545 S
C1039 C269 1.311 . S
C1053 C328 1.306 . S
C1059 C406 1.317 1_455 S
C1073 C387 1.305 . S
C1079 C465 1.317 1_565 S
C1093 C446 1.313 . S
C1099 C288 1.313 1_655 S
C1113 C505 1.311 . S
C1119 C229 1.311 1_565 S
C1133 C52 1.317 1_655 S
C1139 C564 1.310 . S
C1153 C111 1.311 1_545 S
C1159 C623 1.311 . S
C1173 C170 1.314 1_455 S
C1179 C682 1.300 . S
C1193 C819 1.317 . S
C1199 C741 1.307 . S
C1213 C800 1.308 . S
C1219 C878 1.317 . S
C1233 C937 1.317 . S
C1239 C859 1.305 . S
C1253 C760 1.310 . S
C1259 C918 1.309 . S
C1273 C831 1.514 . S
C1279 C5 1.515 . S
C1293 C890 1.515 . S
C1299 C64 1.515 . S
C1313 C713 1.515 . S
C1319 C123 1.515 . S
C1333 C182 1.515 . S
C1339 C772 1.514 . S
C1353 C241 1.513 . S
C1359 C595 1.514 . S
C1373 C654 1.505 . S
C1379 C300 1.506 . S
C1393 C359 1.515 . S
C1399 C477 1.515 . S
C1413 C418 1.507 . S
C1419 C536 1.508 . S
C1433 C121 1.377 . S
C1439 C3 1.377 . S
C1453 C180 1.361 . S
C1459 C62 1.363 . S
C1473 C239 1.365 . S
C1479 C357 1.363 . S
C1493 C298 1.360 . S
C1499 C416 1.359 . S
C1513 C593 1.373 . S
C1519 C475 1.371 . S
C1533 C534 1.362 . S
C1539 C652 1.365 . S
C1553 C829 1.357 . S
C1559 C711 1.357 . S
C1573 C770 1.369 . S
C1579 C888 1.372 . S
