# Generated by pormake.
# Topology vbj, (5)-cn, num edge types: 1
# Building blocks:
#     Node 0, Type 0, BuildingBlock: BEQFEK_clean_sbu_0, # of connection points: 5
#     Node 1, Type 0, BuildingBlock: BEQFEK_clean_sbu_0, # of connection points: 5
#     Node 2, Type 0, BuildingBlock: BEQFEK_clean_sbu_0, # of connection points: 5
#     Node 3, Type 0, BuildingBlock: BEQFEK_clean_sbu_0, # of connection points: 5
#     Node 4, Type 0, BuildingBlock: BEQFEK_clean_sbu_0, # of connection points: 5
#     Node 5, Type 0, BuildingBlock: BEQFEK_clean_sbu_0, # of connection points: 5
#     Node 6, Type 0, BuildingBlock: BEQFEK_clean_sbu_0, # of connection points: 5
#     Node 7, Type 0, BuildingBlock: BEQFEK_clean_sbu_0, # of connection points: 5
#     Node 8, Type 0, BuildingBlock: BEQFEK_clean_sbu_0, # of connection points: 5
#     Node 9, Type 0, BuildingBlock: BEQFEK_clean_sbu_0, # of connection points: 5
#     Node 10, Type 0, BuildingBlock: BEQFEK_clean_sbu_0, # of connection points: 5
#     Node 11, Type 0, BuildingBlock: BEQFEK_clean_sbu_0, # of connection points: 5
#     Node 12, Type 0, BuildingBlock: BEQFEK_clean_sbu_0, # of connection points: 5
#     Node 13, Type 0, BuildingBlock: BEQFEK_clean_sbu_0, # of connection points: 5
#     Node 14, Type 0, BuildingBlock: BEQFEK_clean_sbu_0, # of connection points: 5
#     Node 15, Type 0, BuildingBlock: BEQFEK_clean_sbu_0, # of connection points: 5
#     Edge 16, Type (0, 0), BuildingBlock: XIVTED_clean_linker_0, # of connection points: 2
#     Edge 17, Type (0, 0), BuildingBlock: XIVTED_clean_linker_0, # of connection points: 2
#     Edge 18, Type (0, 0), BuildingBlock: XIVTED_clean_linker_0, # of connection points: 2
#     Edge 19, Type (0, 0), BuildingBlock: XIVTED_clean_linker_0, # of connection points: 2
#     Edge 20, Type (0, 0), BuildingBlock: XIVTED_clean_linker_0, # of connection points: 2
#     Edge 21, Type (0, 0), BuildingBlock: XIVTED_clean_linker_0, # of connection points: 2
#     Edge 22, Type (0, 0), BuildingBlock: XIVTED_clean_linker_0, # of connection points: 2
#     Edge 23, Type (0, 0), BuildingBlock: XIVTED_clean_linker_0, # of connection points: 2
#     Edge 24, Type (0, 0), BuildingBlock: XIVTED_clean_linker_0, # of connection points: 2
#     Edge 25, Type (0, 0), BuildingBlock: XIVTED_clean_linker_0, # of connection points: 2
#     Edge 26, Type (0, 0), BuildingBlock: XIVTED_clean_linker_0, # of connection points: 2
#     Edge 27, Type (0, 0), BuildingBlock: XIVTED_clean_linker_0, # of connection points: 2
#     Edge 28, Type (0, 0), BuildingBlock: XIVTED_clean_linker_0, # of connection points: 2
#     Edge 29, Type (0, 0), BuildingBlock: XIVTED_clean_linker_0, # of connection points: 2
#     Edge 30, Type (0, 0), BuildingBlock: XIVTED_clean_linker_0, # of connection points: 2
#     Edge 31, Type (0, 0), BuildingBlock: XIVTED_clean_linker_0, # of connection points: 2
#     Edge 32, Type (0, 0), BuildingBlock: XIVTED_clean_linker_0, # of connection points: 2
#     Edge 33, Type (0, 0), BuildingBlock: XIVTED_clean_linker_0, # of connection points: 2
#     Edge 34, Type (0, 0), BuildingBlock: XIVTED_clean_linker_0, # of connection points: 2
#     Edge 35, Type (0, 0), BuildingBlock: XIVTED_clean_linker_0, # of connection points: 2
#     Edge 36, Type (0, 0), BuildingBlock: XIVTED_clean_linker_0, # of connection points: 2
#     Edge 37, Type (0, 0), BuildingBlock: XIVTED_clean_linker_0, # of connection points: 2
#     Edge 38, Type (0, 0), BuildingBlock: XIVTED_clean_linker_0, # of connection points: 2
#     Edge 39, Type (0, 0), BuildingBlock: XIVTED_clean_linker_0, # of connection points: 2
#     Edge 40, Type (0, 0), BuildingBlock: XIVTED_clean_linker_0, # of connection points: 2
#     Edge 41, Type (0, 0), BuildingBlock: XIVTED_clean_linker_0, # of connection points: 2
#     Edge 42, Type (0, 0), BuildingBlock: XIVTED_clean_linker_0, # of connection points: 2
#     Edge 43, Type (0, 0), BuildingBlock: XIVTED_clean_linker_0, # of connection points: 2
#     Edge 44, Type (0, 0), BuildingBlock: XIVTED_clean_linker_0, # of connection points: 2
#     Edge 45, Type (0, 0), BuildingBlock: XIVTED_clean_linker_0, # of connection points: 2
#     Edge 46, Type (0, 0), BuildingBlock: XIVTED_clean_linker_0, # of connection points: 2
#     Edge 47, Type (0, 0), BuildingBlock: XIVTED_clean_linker_0, # of connection points: 2
#     Edge 48, Type (0, 0), BuildingBlock: XIVTED_clean_linker_0, # of connection points: 2
#     Edge 49, Type (0, 0), BuildingBlock: XIVTED_clean_linker_0, # of connection points: 2
#     Edge 50, Type (0, 0), BuildingBlock: XIVTED_clean_linker_0, # of connection points: 2
#     Edge 51, Type (0, 0), BuildingBlock: XIVTED_clean_linker_0, # of connection points: 2
#     Edge 52, Type (0, 0), BuildingBlock: XIVTED_clean_linker_0, # of connection points: 2
#     Edge 53, Type (0, 0), BuildingBlock: XIVTED_clean_linker_0, # of connection points: 2
#     Edge 54, Type (0, 0), BuildingBlock: XIVTED_clean_linker_0, # of connection points: 2
#     Edge 55, Type (0, 0), BuildingBlock: XIVTED_clean_linker_0, # of connection points: 2
# Relax obj value: 0.115
# Max RMSD: 0.137
# Mean RMSD: 0.137
data_MOF--net-vbj--node1-BEQFEK_clean_sbu_0--edge1-XIVTED_clean_linker_0
_symmetry_space_group_name_H-M    P1
_symmetry_Int_Tables_number       1
_symmetry_cell_setting            triclinic
loop_
_symmetry_equiv_pos_as_xyz
'x, y, z'
_cell_length_a     25.842886
_cell_length_b     73.346552
_cell_length_c     45.570691
_cell_angle_alpha  89.987727
_cell_angle_beta   89.989906
_cell_angle_gamma 89.945478
loop_
_atom_site_label
_atom_site_type_symbol
_atom_site_fract_x
_atom_site_fract_y
_atom_site_fract_z
_atom_type_partial_charge
Co0 Co 0.1093 0.15883 0.09187 0.0
Co1 Co 0.11667 0.11609 0.08381 0.0
C2 C 0.06038 0.1331 0.13438 0.0
O3 O 0.07031 0.14901 0.12493 0.0
O4 O 0.07674 0.11893 0.12112 0.0
C5 C 0.09921 0.19412 0.11891 0.0
O6 O 0.09712 0.18461 0.14331 0.0
C7 C 0.15908 0.07905 0.09507 0.0
C8 C 0.12577 0.06372 0.05788 0.0
C9 C 0.15709 0.06184 0.08234 0.0
N10 N 0.13052 0.09057 0.07867 0.0
N11 N 0.11062 0.08125 0.05657 0.0
C12 C 0.18437 0.0842 0.1234 0.0
H13 H 0.17255 0.09814 0.13016 0.0
H14 H 0.227 0.0838 0.12096 0.0
H15 H 0.17373 0.07422 0.14068 0.0
C16 C 0.22268 0.15549 0.08773 0.0
N17 N 0.17545 0.14795 0.08981 0.0
N18 N 0.17871 0.13033 0.08433 0.0
C19 C 0.22803 0.12629 0.07722 0.0
C20 C 0.2578 0.14203 0.07962 0.0
C21 C 0.23284 0.17539 0.09191 0.0
H22 H 0.20969 0.18057 0.11065 0.0
H23 H 0.2745 0.17802 0.09602 0.0
H24 H 0.22049 0.18289 0.07195 0.0
O25 O 0.07135 0.15384 0.05557 0.0
O26 O 0.07365 0.12382 0.04991 0.0
H27 H 0.27428 0.11139 0.04578 0.0
H28 H 0.26057 0.09948 0.07926 0.0
C29 C 0.24415 0.10887 0.06264 0.0
H30 H 0.21074 0.10228 0.05179 0.0
H31 H 0.08667 0.08687 0.0405 0.0
O32 O 0.10887 0.18596 0.0949 0.0
C33 C 0.05956 0.13957 0.04127 0.0
Co34 Co 0.41678 0.85013 0.08351 0.0
Co35 Co 0.39982 0.8925 0.07595 0.0
C36 C 0.46381 0.87701 0.12463 0.0
O37 O 0.45674 0.86082 0.11557 0.0
O38 O 0.44329 0.89063 0.11174 0.0
C39 C 0.42706 0.81436 0.11057 0.0
O40 O 0.41791 0.82263 0.1356 0.0
C41 C 0.35426 0.92893 0.08873 0.0
C42 C 0.3807 0.94451 0.05004 0.0
C43 C 0.35297 0.94613 0.07589 0.0
N44 N 0.38132 0.91768 0.07108 0.0
N45 N 0.39698 0.92714 0.04804 0.0
C46 C 0.3337 0.92361 0.11818 0.0
H47 H 0.3475 0.9098 0.12438 0.0
H48 H 0.29083 0.92362 0.11774 0.0
H49 H 0.3461 0.93373 0.13487 0.0
C50 C 0.3023 0.8508 0.08407 0.0
N51 N 0.34831 0.85933 0.08392 0.0
N52 N 0.34113 0.87684 0.07875 0.0
C53 C 0.29041 0.87984 0.07409 0.0
C54 C 0.26386 0.8635 0.07782 0.0
C55 C 0.29611 0.83073 0.08873 0.0
H56 H 0.32099 0.82629 0.1072 0.0
H57 H 0.25531 0.82713 0.09362 0.0
H58 H 0.30902 0.82338 0.06874 0.0
O59 O 0.4497 0.8558 0.04577 0.0
O60 O 0.44075 0.88571 0.04108 0.0
H61 H 0.29996 0.90423 0.04825 0.0
H62 H 0.23736 0.89392 0.04516 0.0
C63 C 0.2694 0.89696 0.06059 0.0
H64 H 0.25418 0.90597 0.0781 0.0
H65 H 0.41914 0.92175 0.03097 0.0
O66 O 0.42387 0.82324 0.08669 0.0
C67 C 0.45693 0.87045 0.03149 0.0
Co68 Co 0.54019 0.85913 0.38706 0.0
Co69 Co 0.54065 0.90222 0.38897 0.0
C70 C 0.55349 0.88113 0.33291 0.0
O71 O 0.55229 0.86571 0.3457 0.0
O72 O 0.54813 0.89592 0.34713 0.0
C73 C 0.55157 0.82089 0.37149 0.0
O74 O 0.57276 0.82704 0.34724 0.0
C75 C 0.58948 0.93774 0.3791 0.0
C76 C 0.54849 0.95551 0.4106 0.0
C77 C 0.58847 0.95534 0.39032 0.0
N78 N 0.55269 0.92788 0.39266 0.0
N79 N 0.52775 0.93866 0.4111 0.0
C80 C 0.62388 0.9303 0.35549 0.0
H81 H 0.59964 0.92611 0.3366 0.0
H82 H 0.6441 0.91792 0.36357 0.0
H83 H 0.65232 0.94047 0.34761 0.0
C84 C 0.62079 0.86439 0.43225 0.0
N85 N 0.58777 0.87092 0.41201 0.0
N86 N 0.58888 0.88888 0.41244 0.0
C87 C 0.62354 0.89435 0.43269 0.0
C88 C 0.64453 0.87903 0.44612 0.0
C89 C 0.62574 0.84457 0.43962 0.0
H90 H 0.58677 0.83829 0.44066 0.0
H91 H 0.64778 0.83762 0.42196 0.0
H92 H 0.6456 0.84244 0.46092 0.0
O93 O 0.47086 0.86648 0.39904 0.0
O94 O 0.46901 0.89666 0.40253 0.0
H95 H 0.60358 0.92139 0.44639 0.0
H96 H 0.67026 0.91536 0.4537 0.0
C97 C 0.6378 0.91387 0.43806 0.0
H98 H 0.65019 0.92013 0.41717 0.0
H99 H 0.49762 0.93437 0.42471 0.0
O100 O 0.53879 0.8321 0.3915 0.0
C101 C 0.44709 0.88117 0.40508 0.0
Co102 Co 0.89732 0.15495 0.38816 0.0
Co103 Co 0.89011 0.11194 0.39218 0.0
C104 C 0.91093 0.13089 0.33544 0.0
O105 O 0.9082 0.14651 0.34747 0.0
O106 O 0.90517 0.11635 0.35025 0.0
C107 C 0.89959 0.19169 0.36567 0.0
O108 O 0.89119 0.1837 0.34034 0.0
C109 C 0.84227 0.07596 0.3813 0.0
C110 C 0.87174 0.06 0.41886 0.0
C111 C 0.83886 0.05904 0.39491 0.0
N112 N 0.87452 0.08656 0.39705 0.0
N113 N 0.89264 0.0768 0.41916 0.0
C114 C 0.81575 0.08197 0.35371 0.0
H115 H 0.8418 0.09075 0.34061 0.0
H116 H 0.78093 0.0901 0.35929 0.0
H117 H 0.80387 0.07008 0.34025 0.0
C118 C 0.7989 0.15216 0.42043 0.0
N119 N 0.83728 0.14458 0.40459 0.0
N120 N 0.83394 0.12667 0.40615 0.0
C121 C 0.79277 0.12231 0.42288 0.0
C122 C 0.76959 0.13827 0.43276 0.0
C123 C 0.79585 0.17212 0.42701 0.0
H124 H 0.83342 0.17677 0.43611 0.0
H125 H 0.78923 0.1797 0.40626 0.0
H126 H 0.76457 0.17535 0.44283 0.0
O127 O 0.95582 0.14772 0.41278 0.0
O128 O 0.95299 0.11749 0.4159 0.0
H129 H 0.80885 0.09663 0.44333 0.0
H130 H 0.74091 0.10268 0.44328 0.0
C131 C 0.77742 0.10321 0.43058 0.0
H132 H 0.77117 0.09535 0.41024 0.0
H133 H 0.91813 0.0818 0.435 0.0
O134 O 0.89905 0.18215 0.38898 0.0
C135 C 0.9738 0.13273 0.42236 0.0
Co136 Co 0.91616 0.8486 0.90074 0.0
Co137 Co 0.90912 0.8914 0.90827 0.0
C138 C 0.96794 0.87578 0.85948 0.0
O139 O 0.95659 0.85985 0.86862 0.0
O140 O 0.95165 0.89004 0.87249 0.0
C141 C 0.92386 0.8144 0.8697 0.0
O142 O 0.92416 0.82471 0.84612 0.0
C143 C 0.87765 0.93072 0.90264 0.0
C144 C 0.86433 0.93672 0.94954 0.0
C145 C 0.85902 0.94401 0.92169 0.0
N146 N 0.89197 0.91607 0.91865 0.0
N147 N 0.88527 0.92006 0.94667 0.0
C148 C 0.87656 0.93122 0.86983 0.0
H149 H 0.8827 0.9174 0.86057 0.0
H150 H 0.83916 0.93689 0.86204 0.0
H151 H 0.90779 0.94036 0.86194 0.0
C152 C 0.80222 0.85241 0.90724 0.0
N153 N 0.84998 0.85935 0.9032 0.0
N154 N 0.84735 0.87729 0.90349 0.0
C155 C 0.79745 0.88226 0.9059 0.0
C156 C 0.76727 0.86677 0.90938 0.0
C157 C 0.7917 0.83267 0.91293 0.0
H158 H 0.82745 0.82559 0.9201 0.0
H159 H 0.7777 0.82623 0.89238 0.0
H160 H 0.76132 0.83103 0.92995 0.0
O161 O 0.95187 0.8522 0.93758 0.0
O162 O 0.94969 0.88222 0.94267 0.0
H163 H 0.78843 0.90866 0.92536 0.0
H164 H 0.73602 0.90217 0.90135 0.0
C165 C 0.77851 0.90153 0.90468 0.0
H166 H 0.79721 0.90859 0.88609 0.0
H167 H 0.89203 0.91094 0.96382 0.0
O168 O 0.91664 0.82175 0.89464 0.0
C169 C 0.96286 0.86649 0.9519 0.0
Co170 Co 0.61093 0.15682 0.89951 0.0
Co171 Co 0.61946 0.11444 0.91056 0.0
C172 C 0.56151 0.12977 0.85934 0.0
O173 O 0.5714 0.14596 0.86753 0.0
O174 O 0.57858 0.11599 0.87341 0.0
C175 C 0.60238 0.19145 0.86987 0.0
O176 O 0.59979 0.18146 0.84599 0.0
C177 C 0.66066 0.07694 0.90184 0.0
C178 C 0.63674 0.06403 0.94348 0.0
C179 C 0.66277 0.06063 0.91746 0.0
N180 N 0.635 0.08933 0.91814 0.0
N181 N 0.62072 0.08146 0.94293 0.0
C182 C 0.67997 0.0805 0.87143 0.0
H183 H 0.66035 0.09259 0.8619 0.0
H184 H 0.72211 0.08326 0.87209 0.0
H185 H 0.67353 0.06838 0.85733 0.0
C186 C 0.72448 0.15386 0.90273 0.0
N187 N 0.67728 0.14621 0.90183 0.0
N188 N 0.68103 0.12877 0.90843 0.0
C189 C 0.73068 0.12497 0.91507 0.0
C190 C 0.76011 0.14067 0.91121 0.0
C191 C 0.73424 0.17365 0.89703 0.0
H192 H 0.7112 0.17817 0.87783 0.0
H193 H 0.77586 0.17629 0.89282 0.0
H194 H 0.72145 0.18171 0.91633 0.0
O195 O 0.57327 0.15288 0.93633 0.0
O196 O 0.57637 0.12305 0.94391 0.0
H197 H 0.71538 0.10208 0.94334 0.0
H198 H 0.78027 0.11052 0.94557 0.0
C199 C 0.74762 0.10787 0.93038 0.0
H200 H 0.7605 0.09774 0.9139 0.0
H201 H 0.60028 0.08803 0.9596 0.0
O202 O 0.611 0.18374 0.89438 0.0
C203 C 0.56176 0.13894 0.95152 0.0
Co204 Co 0.39616 0.15244 0.60857 0.0
Co205 Co 0.39498 0.10952 0.6026 0.0
C206 C 0.40702 0.12749 0.66061 0.0
O207 O 0.40281 0.14321 0.64912 0.0
O208 O 0.40563 0.11312 0.64506 0.0
C209 C 0.41754 0.18764 0.63053 0.0
O210 O 0.43613 0.17776 0.65212 0.0
C211 C 0.35299 0.0728 0.61168 0.0
C212 C 0.38101 0.05821 0.57236 0.0
C213 C 0.34985 0.05628 0.59691 0.0
N214 N 0.38326 0.08412 0.59606 0.0
N215 N 0.40077 0.07519 0.57292 0.0
C216 C 0.3281 0.07791 0.64022 0.0
H217 H 0.35826 0.08276 0.65564 0.0
H218 H 0.30063 0.08933 0.63671 0.0
H219 H 0.30781 0.06621 0.65046 0.0
C220 C 0.29991 0.14859 0.57402 0.0
N221 N 0.33913 0.14149 0.58977 0.0
N222 N 0.33782 0.12355 0.58797 0.0
C223 C 0.29698 0.11869 0.57134 0.0
C224 C 0.27202 0.13435 0.56165 0.0
C225 C 0.29364 0.16856 0.56826 0.0
H226 H 0.33195 0.17472 0.5636 0.0
H227 H 0.27791 0.1752 0.58824 0.0
H228 H 0.26725 0.17121 0.54954 0.0
O229 O 0.45809 0.14666 0.58558 0.0
O230 O 0.45882 0.11651 0.58095 0.0
H231 H 0.31298 0.09295 0.55112 0.0
H232 H 0.24479 0.09845 0.55291 0.0
C233 C 0.28228 0.09939 0.56459 0.0
H234 H 0.27826 0.09171 0.5853 0.0
H235 H 0.42459 0.08092 0.55687 0.0
O236 O 0.39445 0.1797 0.60942 0.0
C237 C 0.47854 0.13211 0.57586 0.0
Co238 Co 0.03724 0.85833 0.59633 0.0
Co239 Co 0.04319 0.90119 0.59472 0.0
C240 C 0.05436 0.87952 0.6506 0.0
O241 O 0.05122 0.86417 0.63772 0.0
O242 O 0.05051 0.89442 0.63646 0.0
C243 C 0.04409 0.81916 0.60852 0.0
O244 O 0.07383 0.82329 0.63092 0.0
C245 C 0.09661 0.9358 0.6049 0.0
C246 C 0.05606 0.95451 0.57464 0.0
C247 C 0.09668 0.95357 0.59442 0.0
N248 N 0.05847 0.92659 0.5914 0.0
N249 N 0.03391 0.93791 0.57365 0.0
C250 C 0.1309 0.92762 0.62792 0.0
H251 H 0.10686 0.92368 0.64703 0.0
H252 H 0.14915 0.91499 0.61936 0.0
H253 H 0.16095 0.93725 0.63563 0.0
C254 C 0.11796 0.86234 0.55068 0.0
N255 N 0.08597 0.8693 0.5711 0.0
N256 N 0.08904 0.88723 0.57068 0.0
C257 C 0.12381 0.89225 0.55019 0.0
C258 C 0.14291 0.87667 0.53663 0.0
C259 C 0.12105 0.84247 0.54344 0.0
H260 H 0.08152 0.83663 0.54251 0.0
H261 H 0.14249 0.83531 0.56113 0.0
H262 H 0.1407 0.84007 0.52215 0.0
O263 O 0.96895 0.86709 0.58514 0.0
O264 O 0.9707 0.8972 0.58145 0.0
H265 H 0.10623 0.91959 0.53697 0.0
H266 H 0.17189 0.91271 0.5287 0.0
C267 C 0.13995 0.91158 0.54476 0.0
H268 H 0.15384 0.91761 0.56553 0.0
H269 H 0.0028 0.93418 0.56032 0.0
O270 O 0.02935 0.83164 0.5911 0.0
C271 C 0.94681 0.88209 0.57919 0.0
Co272 Co 0.57977 0.65146 0.09869 0.0
Co273 Co 0.59252 0.60885 0.09135 0.0
C274 C 0.58425 0.62674 0.15028 0.0
O275 O 0.58195 0.64259 0.13904 0.0
O276 O 0.58719 0.61246 0.13446 0.0
C277 C 0.593 0.69107 0.11254 0.0
O278 O 0.63474 0.68759 0.12798 0.0
C279 C 0.64874 0.57375 0.09512 0.0
C280 C 0.60961 0.55787 0.06044 0.0
C281 C 0.6499 0.55711 0.08047 0.0
N282 N 0.60996 0.58386 0.08393 0.0
N283 N 0.58619 0.57414 0.0636 0.0
C284 C 0.68672 0.58071 0.11719 0.0
H285 H 0.68504 0.59581 0.11844 0.0
H286 H 0.72651 0.57623 0.11147 0.0
H287 H 0.67688 0.57505 0.13907 0.0
C288 C 0.67566 0.65118 0.06264 0.0
N289 N 0.63762 0.64275 0.0776 0.0
N290 N 0.64224 0.62495 0.07423 0.0
C291 C 0.68281 0.62156 0.05655 0.0
C292 C 0.70577 0.63799 0.04908 0.0
C293 C 0.68283 0.67141 0.06177 0.0
H294 H 0.64605 0.67803 0.05512 0.0
H295 H 0.69264 0.67627 0.08411 0.0
H296 H 0.7143 0.67549 0.04662 0.0
O297 O 0.51658 0.64306 0.07914 0.0
O298 O 0.52501 0.61328 0.07241 0.0
H299 H 0.65941 0.59586 0.03842 0.0
H300 H 0.71894 0.60439 0.02363 0.0
C301 C 0.69547 0.60323 0.04392 0.0
H302 H 0.71769 0.59521 0.06022 0.0
H303 H 0.55521 0.57888 0.05104 0.0
O304 O 0.56966 0.67831 0.09918 0.0
C305 C 0.49951 0.628 0.06944 0.0
Co306 Co 0.93476 0.35627 0.09822 0.0
Co307 Co 0.942 0.39918 0.09282 0.0
C308 C 0.92212 0.38023 0.15021 0.0
O309 O 0.92189 0.3645 0.1385 0.0
O310 O 0.93049 0.39453 0.13513 0.0
C311 C 0.96105 0.32207 0.11739 0.0
O312 O 0.98176 0.33296 0.13702 0.0
C313 C 0.89521 0.43555 0.09625 0.0
C314 C 0.94738 0.45202 0.06852 0.0
C315 C 0.90214 0.45295 0.08485 0.0
N316 N 0.9343 0.42489 0.08694 0.0
N317 N 0.96579 0.43489 0.07076 0.0
C318 C 0.8497 0.42854 0.11312 0.0
H319 H 0.84691 0.41349 0.11111 0.0
H320 H 0.81339 0.43495 0.10518 0.0
H321 H 0.85466 0.43202 0.13665 0.0
C322 C 0.85127 0.36213 0.05449 0.0
N323 N 0.88886 0.36821 0.07242 0.0
N324 N 0.8936 0.386 0.06929 0.0
C325 C 0.86026 0.3917 0.04854 0.0
C326 C 0.83176 0.37686 0.03883 0.0
C327 C 0.83357 0.34274 0.0533 0.0
H328 H 0.83973 0.33604 0.07484 0.0
H329 H 0.79209 0.34193 0.04715 0.0
H330 H 0.85666 0.33534 0.03657 0.0
O331 O 0.00586 0.36196 0.08613 0.0
O332 O 0.01312 0.39197 0.08169 0.0
H333 H 0.8426 0.41073 0.01365 0.0
H334 H 0.83517 0.41948 0.05031 0.0
C335 C 0.8592 0.4106 0.0361 0.0
H336 H 0.89893 0.41619 0.03504 0.0
H337 H -0.0011 0.42987 0.0604 0.0
O338 O 0.93352 0.32905 0.09709 0.0
C339 C 0.03244 0.37602 0.08006 0.0
Co340 Co 0.07565 0.35067 0.39747 0.0
Co341 Co 0.08714 0.39344 0.40344 0.0
C342 C 0.02593 0.37743 0.35546 0.0
O343 O 0.03516 0.36142 0.36489 0.0
O344 O 0.04463 0.39143 0.36799 0.0
C345 C 0.0611 0.31615 0.36899 0.0
O346 O 0.05712 0.32629 0.34534 0.0
C347 C 0.12332 0.43084 0.39025 0.0
C348 C 0.11393 0.44419 0.43337 0.0
C349 C 0.1305 0.44721 0.40491 0.0
N350 N 0.1039 0.4186 0.40932 0.0
N351 N 0.09787 0.42676 0.43495 0.0
C352 C 0.1329 0.42705 0.35845 0.0
H353 H 0.12978 0.41223 0.35383 0.0
H354 H 0.17168 0.43204 0.35186 0.0
H355 H 0.1038 0.4345 0.34514 0.0
C356 C 0.18891 0.35285 0.40436 0.0
N357 N 0.14275 0.36073 0.39913 0.0
N358 N 0.14768 0.3786 0.40051 0.0
C359 C 0.19757 0.38262 0.40575 0.0
C360 C 0.22523 0.36651 0.40904 0.0
C361 C 0.19527 0.33287 0.40988 0.0
H362 H 0.16843 0.3286 0.42762 0.0
H363 H 0.18428 0.32525 0.3898 0.0
H364 H 0.2355 0.32931 0.41611 0.0
O365 O 0.04046 0.35565 0.43445 0.0
O366 O 0.0453 0.38579 0.43797 0.0
H367 H 0.19821 0.40789 0.42941 0.0
H368 H 0.26025 0.40173 0.41377 0.0
C369 C 0.21778 0.40155 0.4103 0.0
H370 H 0.20959 0.40979 0.39055 0.0
H371 H 0.08352 0.42035 0.45371 0.0
O372 O 0.07361 0.32363 0.39315 0.0
C373 C 0.03062 0.3704 0.44792 0.0
Co374 Co 0.38648 0.65811 0.39019 0.0
Co375 Co 0.37303 0.61539 0.39672 0.0
C376 C 0.43248 0.63064 0.34766 0.0
O377 O 0.42391 0.64672 0.35697 0.0
O378 O 0.41418 0.61675 0.36066 0.0
C379 C 0.43685 0.69023 0.37871 0.0
O380 O 0.47313 0.67778 0.37612 0.0
C381 C 0.33473 0.57794 0.38544 0.0
C382 C 0.3462 0.56518 0.42887 0.0
C383 C 0.328 0.56181 0.40084 0.0
N384 N 0.35547 0.59039 0.40368 0.0
N385 N 0.36269 0.58257 0.4295 0.0
C386 C 0.32352 0.58129 0.35368 0.0
H387 H 0.32772 0.59597 0.3483 0.0
H388 H 0.28388 0.57665 0.34815 0.0
H389 H 0.35099 0.57324 0.34015 0.0
C390 C 0.27324 0.65657 0.3993 0.0
N391 N 0.31882 0.64851 0.39318 0.0
N392 N 0.31322 0.63065 0.39451 0.0
C393 C 0.26352 0.62686 0.40067 0.0
C394 C 0.23671 0.64308 0.40454 0.0
C395 C 0.26769 0.67653 0.40521 0.0
H396 H 0.29078 0.68013 0.42491 0.0
H397 H 0.28358 0.68435 0.38642 0.0
H398 H 0.22668 0.68041 0.40886 0.0
O399 O 0.42349 0.65309 0.42662 0.0
O400 O 0.41673 0.62302 0.43045 0.0
H401 H 0.26353 0.60185 0.42506 0.0
H402 H 0.20079 0.60812 0.41058 0.0
C403 C 0.243 0.60806 0.40617 0.0
H404 H 0.24962 0.59959 0.38649 0.0
H405 H 0.37826 0.58919 0.44774 0.0
O406 O 0.39096 0.68513 0.38483 0.0
C407 C 0.43298 0.63829 0.44005 0.0
Co408 Co 0.44026 0.35438 0.88674 0.0
Co409 Co 0.42604 0.39698 0.89219 0.0
C410 C 0.41888 0.37815 0.83455 0.0
O411 O 0.42554 0.3626 0.84639 0.0
O412 O 0.41928 0.39274 0.84964 0.0
C413 C 0.47386 0.32057 0.86652 0.0
O414 O 0.49282 0.33151 0.84638 0.0
C415 C 0.37545 0.43302 0.88811 0.0
C416 C 0.413 0.44768 0.9247 0.0
C417 C 0.37555 0.44952 0.90313 0.0
N418 N 0.4109 0.42197 0.90048 0.0
N419 N 0.43374 0.43094 0.92201 0.0
C420 C 0.33867 0.42702 0.86467 0.0
H421 H 0.33565 0.41193 0.86427 0.0
H422 H 0.29976 0.43304 0.86825 0.0
H423 H 0.35331 0.43168 0.84304 0.0
C424 C 0.36031 0.35518 0.93333 0.0
N425 N 0.38992 0.36343 0.91299 0.0
N426 N 0.38238 0.38119 0.91426 0.0
C427 C 0.34689 0.38476 0.93509 0.0
C428 C 0.33233 0.36845 0.94819 0.0
C429 C 0.36248 0.3352 0.93984 0.0
H430 H 0.40323 0.33044 0.93928 0.0
H431 H 0.34087 0.32772 0.92259 0.0
H432 H 0.34546 0.33201 0.96159 0.0
O433 O 0.50845 0.363 0.8994 0.0
O434 O 0.49842 0.39286 0.90475 0.0
H435 H 0.35604 0.41152 0.95302 0.0
H436 H 0.29059 0.4029 0.9552 0.0
C437 C 0.32606 0.40339 0.94156 0.0
H438 H 0.31611 0.41028 0.92074 0.0
H439 H 0.46236 0.4254 0.93551 0.0
O440 O 0.44608 0.32733 0.88687 0.0
C441 C 0.52621 0.37856 0.90636 0.0
Co442 Co 0.08424 0.65132 0.8788 0.0
Co443 Co 0.08573 0.60844 0.88545 0.0
C444 C 0.08135 0.62655 0.82685 0.0
O445 O 0.08281 0.64234 0.8383 0.0
O446 O 0.08152 0.61219 0.84253 0.0
C447 C 0.05349 0.68558 0.85994 0.0
O448 O 0.02812 0.67478 0.84203 0.0
C449 C 0.13298 0.5719 0.88237 0.0
C450 C 0.08636 0.5569 0.91504 0.0
C451 C 0.12856 0.55515 0.89646 0.0
N452 N 0.09559 0.583 0.89255 0.0
N453 N 0.06728 0.57383 0.91163 0.0
C454 C 0.17476 0.578 0.86187 0.0
H455 H 0.17605 0.59311 0.86067 0.0
H456 H 0.21287 0.57262 0.86906 0.0
H457 H 0.16658 0.57261 0.8396 0.0
C458 C 0.18069 0.64748 0.91361 0.0
N459 N 0.14008 0.64041 0.89906 0.0
N460 N 0.13973 0.62256 0.90255 0.0
C461 C 0.17918 0.6178 0.92023 0.0
C462 C 0.20697 0.63334 0.92733 0.0
C463 C 0.19324 0.66737 0.91455 0.0
H464 H 0.18464 0.67372 0.893 0.0
H465 H 0.23449 0.66961 0.92028 0.0
H466 H 0.16854 0.67405 0.93133 0.0
O467 O 0.01919 0.64535 0.89915 0.0
O468 O 0.0203 0.61528 0.90443 0.0
H469 H 0.20669 0.60009 0.95495 0.0
H470 H 0.20805 0.59047 0.91871 0.0
C471 C 0.18564 0.59932 0.93378 0.0
H472 H 0.14738 0.59308 0.93797 0.0
H473 H 0.03621 0.57936 0.92325 0.0
O474 O 0.08481 0.67853 0.87831 0.0
C475 C -0.00127 0.63068 0.90836 0.0
Co476 Co 0.88715 0.65727 0.58421 0.0
Co477 Co 0.87387 0.6146 0.58042 0.0
C478 C 0.9343 0.63014 0.62776 0.0
O479 O 0.92569 0.64595 0.61723 0.0
O480 O 0.91527 0.61591 0.61611 0.0
C481 C 0.87201 0.69679 0.60279 0.0
O482 O 0.82749 0.69374 0.61577 0.0
C483 C 0.84178 0.57551 0.58833 0.0
C484 C 0.83871 0.56723 0.54174 0.0
C485 C 0.83084 0.56086 0.56997 0.0
N486 N 0.85491 0.58993 0.57151 0.0
N487 N 0.85315 0.58477 0.54374 0.0
C488 C 0.84184 0.57553 0.62117 0.0
H489 H 0.86474 0.5871 0.62979 0.0
H490 H 0.8016 0.57687 0.62933 0.0
H491 H 0.85769 0.56246 0.62957 0.0
C492 C 0.7732 0.65507 0.57363 0.0
N493 N 0.81917 0.64778 0.58138 0.0
N494 N 0.81423 0.62993 0.58315 0.0
C495 C 0.76446 0.6255 0.57874 0.0
C496 C 0.737 0.64111 0.57154 0.0
C497 C 0.76663 0.6742 0.56284 0.0
H498 H 0.80476 0.68057 0.55849 0.0
H499 H 0.74574 0.68226 0.57971 0.0
H500 H 0.74307 0.67442 0.54247 0.0
O501 O 0.92307 0.65222 0.54779 0.0
O502 O 0.91834 0.62206 0.54663 0.0
H503 H 0.7554 0.59896 0.55978 0.0
H504 H 0.70096 0.60639 0.58154 0.0
C505 C 0.74381 0.60645 0.57985 0.0
H506 H 0.75998 0.59936 0.59921 0.0
H507 H 0.86145 0.5933 0.52605 0.0
O508 O 0.89574 0.68394 0.58982 0.0
C509 C 0.93358 0.63711 0.5357 0.0
Co510 Co 0.57521 0.348 0.58753 0.0
Co511 Co 0.59139 0.39048 0.58182 0.0
C512 C 0.52901 0.37614 0.6297 0.0
O513 O 0.53625 0.36011 0.61967 0.0
O514 O 0.54965 0.39004 0.61775 0.0
C515 C 0.56114 0.31432 0.61856 0.0
O516 O 0.56155 0.32489 0.64182 0.0
C517 C 0.63067 0.42873 0.58736 0.0
C518 C 0.63915 0.43525 0.54025 0.0
C519 C 0.64894 0.44196 0.56809 0.0
N520 N 0.6123 0.41466 0.57142 0.0
N521 N 0.6163 0.41894 0.54334 0.0
C522 C 0.63562 0.42857 0.62006 0.0
H523 H 0.62988 0.4146 0.6288 0.0
H524 H 0.67413 0.43384 0.62672 0.0
H525 H 0.60572 0.43769 0.62958 0.0
C526 C 0.68894 0.34868 0.58036 0.0
N527 N 0.64338 0.35699 0.58563 0.0
N528 N 0.65013 0.37479 0.58543 0.0
C529 C 0.7007 0.37827 0.58147 0.0
C530 C 0.72682 0.36196 0.5772 0.0
C531 C 0.69381 0.32879 0.57368 0.0
H532 H 0.66841 0.32535 0.55484 0.0
H533 H 0.6801 0.3208 0.59284 0.0
H534 H 0.73432 0.32493 0.56851 0.0
O535 O 0.5404 0.35259 0.55039 0.0
O536 O 0.54725 0.38266 0.54838 0.0
H537 H 0.71056 0.40339 0.55818 0.0
H538 H 0.76649 0.39647 0.57908 0.0
C539 C 0.72356 0.39694 0.5789 0.0
H540 H 0.7107 0.40534 0.59766 0.0
H541 H 0.60596 0.41027 0.52618 0.0
O542 O 0.57047 0.32123 0.59352 0.0
C543 C 0.53116 0.36765 0.53778 0.0
H544 H 0.5153 0.17028 0.97046 0.0
H545 H 0.34146 0.12039 0.09081 0.0
H546 H 0.52986 0.11301 0.99117 0.0
H547 H 0.2951 0.16849 0.04308 0.0
H548 H 0.42517 0.12112 0.06535 0.0
H549 H 0.44964 0.1732 0.00855 0.0
C550 C 0.50524 0.15834 0.98324 0.0
C551 C 0.52742 0.14127 0.97719 0.0
C552 C 0.39695 0.1317 0.06098 0.0
C553 C 0.45237 0.14463 0.02089 0.0
C554 C 0.34937 0.13131 0.07545 0.0
C555 C 0.31136 0.14435 0.06891 0.0
C556 C 0.40654 0.14537 0.04016 0.0
C557 C 0.32349 0.15832 0.04909 0.0
C558 C 0.4677 0.16006 0.00497 0.0
C559 C 0.51318 0.12637 -0.00523 0.0
N560 N 0.36993 0.15838 0.03523 0.0
N561 N 0.47609 0.12835 0.01568 0.0
H562 H -0.00497 0.89336 0.98985 0.0
H563 H 0.22709 0.83625 0.0428 0.0
H564 H 0.00302 0.83524 0.97502 0.0
H565 H 0.1782 0.88346 0.09202 0.0
H566 H 0.14196 0.83468 0.02037 0.0
H567 H 0.05835 0.89002 0.02948 0.0
C568 C 0.00947 0.87989 -0.00483 0.0
C569 C -0.00531 0.86463 0.97862 0.0
C570 C 0.1493 0.84513 0.03664 0.0
C571 C 0.06687 0.86076 0.02365 0.0
C572 C 0.19787 0.84592 0.04969 0.0
C573 C 0.20969 0.86005 0.06921 0.0
C574 C 0.11296 0.8589 0.04247 0.0
C575 C 0.17063 0.87252 0.07666 0.0
C576 C 0.0453 0.87798 0.01789 0.0
C577 C 0.01405 0.84746 0.98676 0.0
N578 N 0.12424 0.87196 0.06269 0.0
N579 N 0.0499 0.84604 0.00832 0.0
H580 H 0.64529 0.89868 0.49717 0.0
H581 H 0.89566 0.85171 0.56113 0.0
H582 H 0.73135 0.85809 0.44904 0.0
H583 H 0.87982 0.91032 0.56617 0.0
H584 H 0.81685 0.85033 0.53212 0.0
H585 H 0.71494 0.89964 0.53392 0.0
C586 C 0.67879 0.88997 0.49441 0.0
C587 C 0.6833 0.87852 0.46985 0.0
C588 C 0.83038 0.86344 0.53996 0.0
C589 C 0.76095 0.87899 0.5121 0.0
C590 C 0.87522 0.8643 0.55663 0.0
C591 C 0.89486 0.88124 0.5658 0.0
C592 C 0.8043 0.87953 0.53286 0.0
C593 C 0.86631 0.89702 0.5593 0.0
C594 C 0.7181 0.89049 0.51536 0.0
C595 C 0.72646 0.86706 0.4677 0.0
N596 N 0.82228 0.89581 0.54303 0.0
N597 N 0.7637 0.86755 0.48864 0.0
H598 H 0.67963 0.15786 0.43113 0.0
H599 H 0.55327 0.10644 0.565 0.0
H600 H 0.76928 0.12211 0.48645 0.0
H601 H 0.5072 0.16135 0.54289 0.0
H602 H 0.62734 0.10945 0.53162 0.0
H603 H 0.61003 0.15752 0.46799 0.0
C604 C 0.68469 0.15009 0.45115 0.0
C605 C 0.72954 0.13976 0.45569 0.0
C606 C 0.60107 0.12085 0.53432 0.0
C607 C 0.65052 0.13896 0.49721 0.0
C608 C 0.55884 0.11911 0.55319 0.0
C609 C 0.52431 0.13368 0.55674 0.0
C610 C 0.60787 0.13708 0.51844 0.0
C611 C 0.5332 0.14983 0.54094 0.0
C612 C 0.64515 0.14985 0.47204 0.0
C613 C 0.73459 0.12991 0.48192 0.0
N614 N 0.57384 0.15104 0.52219 0.0
N615 N 0.69515 0.1295 0.50154 0.0
H616 H 0.68469 0.84445 0.89538 0.0
H617 H 0.49675 0.89931 0.00115 0.0
H618 H 0.73143 0.8878 0.95366 0.0
H619 H 0.49142 0.84042 0.0013 0.0
H620 H 0.56499 0.89805 0.96419 0.0
H621 H 0.59778 0.84511 0.91829 0.0
C622 C 0.67652 0.8542 0.91262 0.0
C623 C 0.71472 0.86644 0.92211 0.0
C624 C 0.54786 0.88545 0.97191 0.0
C625 C 0.61652 0.86766 0.94715 0.0
C626 C 0.50901 0.88613 -0.00703 0.0
C627 C 0.4895 0.86993 0.00494 0.0
C628 C 0.5669 0.8685 0.96263 0.0
C629 C 0.50642 0.85323 -0.00686 0.0
C630 C 0.62721 0.85463 0.92542 0.0
C631 C 0.70262 0.87867 0.94473 0.0
N632 N 0.54497 0.8529 0.97287 0.0
N633 N 0.65451 0.8791 0.95623 0.0
H634 H 0.84418 0.11914 0.90044 0.0
H635 H 0.01552 0.1707 0.01986 0.0
H636 H 0.79722 0.16794 0.94608 0.0
H637 H 0.02772 0.11289 0.00294 0.0
H638 H 0.952 0.17318 0.98058 0.0
H639 H 0.92769 0.12031 0.9261 0.0
C640 C 0.852 0.13033 0.9153 0.0
C641 C 0.8138 0.1434 0.92134 0.0
C642 C 0.96911 0.16 0.98526 0.0
C643 C 0.90863 0.14491 0.95026 0.0
C644 C 0.00536 0.15854 0.00768 0.0
C645 C 0.02618 0.14146 0.01514 0.0
C646 C 0.9537 0.14432 0.97005 0.0
C647 C 0.01199 0.12626 -0.00174 0.0
C648 C 0.89942 0.13096 0.92989 0.0
C649 C 0.82574 0.15771 0.94051 0.0
N650 N 0.97611 0.12801 0.97664 0.0
N651 N 0.87201 0.158 0.95452 0.0
H652 H 0.00261 0.16094 0.45742 0.0
H653 H 0.2677 0.11727 0.50871 0.0
H654 H 0.04621 0.10615 0.43306 0.0
H655 H 0.18214 0.15399 0.56449 0.0
H656 H 0.19485 0.11678 0.47437 0.0
H657 H 0.07646 0.16216 0.49086 0.0
C658 C 0.02791 0.14919 0.459 0.0
C659 C 0.01843 0.1334 0.44243 0.0
C660 C 0.19209 0.12493 0.49413 0.0
C661 C 0.10298 0.13487 0.48033 0.0
C662 C 0.23343 0.12521 0.51369 0.0
C663 C 0.23019 0.13538 0.53967 0.0
C664 C 0.14784 0.13528 0.50026 0.0
C665 C 0.18583 0.14591 0.54471 0.0
C666 C 0.06977 0.1499 0.47818 0.0
C667 C 0.05213 0.11854 0.44553 0.0
N668 N 0.14618 0.14561 0.52512 0.0
N669 N 0.09332 0.11969 0.46398 0.0
H670 H 0.14423 0.89608 0.4854 0.0
H671 H 0.4006 0.8503 0.42507 0.0
H672 H 0.22836 0.85501 0.53355 0.0
H673 H 0.37585 0.90835 0.41626 0.0
H674 H 0.32102 0.84805 0.45333 0.0
H675 H 0.2143 0.89688 0.44893 0.0
C676 C 0.17736 0.88718 0.48817 0.0
C677 C 0.18132 0.87573 0.51273 0.0
C678 C 0.3328 0.86121 0.44487 0.0
C679 C 0.25966 0.87607 0.47084 0.0
C680 C 0.37808 0.86257 0.42862 0.0
C681 C 0.39531 0.87963 0.41854 0.0
C682 C 0.30394 0.87693 0.45068 0.0
C683 C 0.36422 0.89498 0.42386 0.0
C684 C 0.21695 0.88763 0.46739 0.0
C685 C 0.22398 0.86404 0.51492 0.0
N686 N 0.31987 0.89328 0.43973 0.0
N687 N 0.26167 0.86451 0.4942 0.0
H688 H 0.71394 0.65874 -0.00069 0.0
H689 H 0.96168 0.60491 0.94591 0.0
H690 H 0.79857 0.62147 0.05457 0.0
H691 H 0.9305 0.65915 0.91339 0.0
H692 H 0.891 0.60837 0.98089 0.0
H693 H 0.7853 0.65777 0.96357 0.0
C694 C 0.74811 0.65073 0.00417 0.0
C695 C 0.75089 0.64021 0.02978 0.0
C696 C 0.8996 0.61948 0.96602 0.0
C697 C 0.83065 0.63845 0.98895 0.0
C698 C 0.93953 0.61745 0.94584 0.0
C699 C 0.95209 0.63181 0.92683 0.0
C700 C 0.87157 0.63585 0.9669 0.0
C701 C 0.92219 0.6478 0.92783 0.0
C702 C 0.78837 0.65004 0.98375 0.0
C703 C 0.79518 0.62969 0.03493 0.0
N704 N 0.88308 0.64942 0.9476 0.0
N705 N 0.83312 0.62888 0.01448 0.0
H706 H 0.75193 0.40083 0.03733 0.0
H707 H 0.60083 0.35206 0.90806 0.0
H708 H 0.81379 0.35385 -0.00749 0.0
H709 H 0.56849 0.40705 0.93668 0.0
H710 H 0.67887 0.35202 0.9383 0.0
H711 H 0.68278 0.40263 0.0011 0.0
C712 C 0.751 0.39094 0.01969 0.0
C713 C 0.78865 0.37726 0.01768 0.0
C714 C 0.65505 0.36417 0.93761 0.0
C715 C 0.70933 0.37904 0.97639 0.0
C716 C 0.61054 0.36423 0.92035 0.0
C717 C 0.57778 0.37952 0.92012 0.0
C718 C 0.66643 0.37942 0.955 0.0
C719 C 0.59244 0.39493 0.93629 0.0
C720 C 0.71159 0.39197 -0.00098 0.0
C721 C 0.78513 0.36451 -0.00513 0.0
N722 N 0.63534 0.39439 0.95341 0.0
N723 N 0.74594 0.36567 0.97506 0.0
H724 H 0.31335 0.34773 0.39329 0.0
H725 H 0.47989 0.39683 0.51479 0.0
H726 H 0.24792 0.38135 0.46154 0.0
H727 H 0.50271 0.33893 0.50275 0.0
H728 H 0.4098 0.39586 0.4789 0.0
H729 H 0.3968 0.34783 0.42008 0.0
C730 C 0.31666 0.35507 0.41382 0.0
C731 C 0.27446 0.36485 0.42508 0.0
C732 C 0.43101 0.38348 0.4838 0.0
C733 C 0.36842 0.36553 0.45466 0.0
C734 C 0.471 0.384 0.50415 0.0
C735 C 0.49633 0.36785 0.5122 0.0
C736 C 0.41691 0.3668 0.47114 0.0
C737 C 0.48337 0.35162 0.49752 0.0
C738 C 0.36392 0.3552 0.42886 0.0
C739 C 0.28007 0.37405 0.45181 0.0
N740 N 0.44395 0.35144 0.47778 0.0
N741 N 0.32643 0.3744 0.46547 0.0
H742 H 0.14496 0.65973 0.38961 0.0
H743 H -0.00469 0.60932 0.51695 0.0
H744 H 0.22109 0.63006 0.45899 0.0
H745 H 0.95319 0.66503 0.49746 0.0
H746 H 0.06615 0.61165 0.48156 0.0
H747 H 0.06312 0.65807 0.41781 0.0
C748 C 0.14438 0.65306 0.41081 0.0
C749 C 0.1891 0.64479 0.422 0.0
C750 C 0.04068 0.62322 0.48476 0.0
C751 C 0.09703 0.64227 0.45317 0.0
C752 C 0.00018 0.62188 0.50474 0.0
C753 C 0.96906 0.63711 0.51045 0.0
C754 C 0.04939 0.63976 0.47012 0.0
C755 C 0.97703 0.65308 0.49397 0.0
C756 C 0.09802 0.652 0.42664 0.0
C757 C 0.18698 0.63631 0.44951 0.0
N758 N 0.01687 0.65407 0.47458 0.0
N759 N 0.14147 0.635 0.46395 0.0
H760 H 0.25215 0.34446 0.95304 0.0
H761 H 0.10856 0.40162 0.07174 0.0
H762 H 0.33122 0.38735 -0.00037 0.0
H763 H 0.07488 0.34441 0.05976 0.0
H764 H 0.18967 0.39735 0.04474 0.0
H765 H 0.18558 0.34417 0.99136 0.0
C766 C 0.25588 0.35357 0.97163 0.0
C767 C 0.29641 0.36618 0.97305 0.0
C768 C 0.16481 0.3857 0.04853 0.0
C769 C 0.2204 0.36625 0.01629 0.0
C770 C 0.11852 0.38814 0.06381 0.0
C771 C 0.08469 0.37341 0.06773 0.0
C772 C 0.17653 0.36853 0.0366 0.0
C773 C 0.09964 0.35619 0.05712 0.0
C774 C 0.21797 0.35345 -0.0066 0.0
C775 C 0.29963 0.37776 -0.00253 0.0
N776 N 0.14403 0.3543 0.04154 0.0
N777 N 0.26144 0.3778 0.0179 0.0
H778 H 0.29284 0.61229 0.92477 0.0
H779 H 0.42638 0.65487 0.06635 0.0
H780 H 0.22271 0.65577 0.97451 0.0
H781 H 0.46548 0.60194 0.03115 0.0
H782 H 0.35505 0.65698 0.03134 0.0
H783 H 0.3622 0.61044 0.96105 0.0
C784 C 0.29249 0.62156 0.94328 0.0
C785 C 0.2522 0.63414 0.94688 0.0
C786 C 0.37898 0.64485 0.03149 0.0
C787 C 0.33093 0.63211 0.9884 0.0
C788 C 0.4196 0.6436 0.05148 0.0
C789 C 0.45204 0.62823 0.05155 0.0
C790 C 0.37124 0.63074 0.01122 0.0
C791 C 0.44139 0.61402 0.0319 0.0
C792 C 0.33178 0.62044 0.96402 0.0
C793 C 0.25347 0.646 0.97094 0.0
N794 N 0.40217 0.61571 0.01229 0.0
N795 N 0.29228 0.64466 0.99095 0.0
H796 H 0.46367 0.6681 0.47192 0.0
H797 H 0.71189 0.61951 0.52566 0.0
H798 H 0.48203 0.60964 0.46629 0.0
H799 H 0.65254 0.66377 0.57817 0.0
H800 H 0.63032 0.61809 0.49953 0.0
H801 H 0.5332 0.66903 0.5085 0.0
C802 C 0.48171 0.65544 0.47869 0.0
C803 C 0.46779 0.63878 0.46564 0.0
C804 C 0.63474 0.62795 0.51704 0.0
C805 C 0.54708 0.63989 0.50693 0.0
C806 C 0.6812 0.62873 0.53207 0.0
C807 C 0.6881 0.64132 0.55485 0.0
C808 C 0.59528 0.64026 0.52405 0.0
C809 C 0.64816 0.6537 0.56099 0.0
C810 C 0.52109 0.65602 0.49962 0.0
C811 C 0.49191 0.6228 0.47549 0.0
N812 N 0.60312 0.65295 0.54547 0.0
N813 N 0.53114 0.6238 0.49514 0.0
H814 H 0.97376 0.39808 0.4715 0.0
H815 H 0.81693 0.34391 0.59175 0.0
H816 H 0.00898 0.34091 0.48272 0.0
H817 H 0.74593 0.37689 0.5245 0.0
H818 H 0.90014 0.34594 0.56481 0.0
H819 H 0.90384 0.395 0.50726 0.0
C820 C 0.96765 0.385 0.48198 0.0
C821 C -0.00363 0.36964 0.47371 0.0
C822 C 0.86603 0.35267 0.55621 0.0
C823 C 0.91709 0.36614 0.51453 0.0
C824 C 0.81891 0.3514 0.5713 0.0
C825 C 0.77523 0.36048 0.56038 0.0
C826 C 0.86879 0.36342 0.53077 0.0
C827 C 0.77917 0.37001 0.53385 0.0
C828 C 0.92772 0.38326 0.50223 0.0
C829 C 0.98692 0.35301 0.48814 0.0
N830 N 0.82534 0.37149 0.52018 0.0
N831 N 0.94749 0.35161 0.50775 0.0
H832 H 0.11789 0.02751 0.08447 0.0
H833 H 0.39194 0.98048 0.07644 0.0
H834 H 0.25946 0.05758 0.09664 0.0
H835 H 0.25334 0.95013 0.09574 0.0
H836 H 0.34461 0.00888 0.08519 0.0
H837 H 0.16626 0.99898 0.09003 0.0
C838 C 0.15904 0.02808 0.08894 0.0
C839 C 0.18464 0.0449 0.09049 0.0
C840 C 0.32475 0.99602 0.08812 0.0
C841 C 0.24047 0.01237 0.09608 0.0
C842 C 0.35173 0.97982 0.0831 0.0
C843 C 0.32662 0.96296 0.0857 0.0
C844 C 0.27182 0.99538 0.09501 0.0
C845 C 0.27442 0.96282 0.09411 0.0
C846 C 0.18661 0.01182 0.09213 0.0
C847 C 0.23803 0.04493 0.09598 0.0
N848 N 0.24849 0.97881 0.09803 0.0
N849 N 0.26434 0.0289 0.09814 0.0
H850 H 0.69399 0.95293 0.3905 0.0
H851 H 0.73682 0.06079 0.37831 0.0
H852 H 0.56901 0.99159 0.38282 0.0
H853 H 0.85825 0.02267 0.39968 0.0
H854 H 0.67647 0.03536 0.37316 0.0
H855 H 0.75605 0.97799 0.38733 0.0
C856 C 0.67969 0.96668 0.3874 0.0
C857 C 0.62638 0.9702 0.38613 0.0
C858 C 0.71647 0.03253 0.37861 0.0
C859 C 0.69709 0.99902 0.38348 0.0
C860 C 0.75115 0.04704 0.38116 0.0
C861 C 0.80294 0.04379 0.38883 0.0
C862 C 0.73361 0.01465 0.38389 0.0
C863 C 0.81872 0.02573 0.39353 0.0
C864 C 0.71509 0.98101 0.38596 0.0
C865 C 0.60987 0.98833 0.38352 0.0
N866 N 0.78423 0.01184 0.39099 0.0
N867 N 0.64508 1.00208 0.38223 0.0
H868 H 0.75482 0.05425 0.88785 0.0
H869 H 0.76467 0.95158 0.94367 0.0
H870 H 0.62933 0.02688 0.93203 0.0
H871 H 0.88028 0.97307 0.88495 0.0
H872 H 0.71354 0.97909 0.93705 0.0
H873 H 0.79994 0.02493 0.88331 0.0
C874 C 0.73604 0.04206 0.89586 0.0
C875 C 0.68799 0.04302 0.91022 0.0
C876 C 0.74983 0.97786 0.92533 0.0
C877 C 0.74004 0.00958 0.90582 0.0
C878 C 0.77914 0.96215 0.92922 0.0
C879 C 0.82686 0.96016 0.91501 0.0
C880 C 0.76862 0.99198 0.90746 0.0
C881 C 0.84356 0.97414 0.89626 0.0
C882 C 0.7621 0.02533 0.8935 0.0
C883 C 0.6664 0.02681 0.92095 0.0
N884 N 0.81474 0.98965 0.8933 0.0
N885 N 0.69267 0.01086 0.91872 0.0
H886 H 0.20213 0.95066 0.59364 0.0
H887 H 0.24739 0.05802 0.61172 0.0
H888 H 0.07855 0.98961 0.60433 0.0
H889 H 0.36929 0.01995 0.5911 0.0
H890 H 0.18642 0.0327 0.61509 0.0
H891 H 0.2651 0.97536 0.59844 0.0
C892 C 0.18834 0.96438 0.59772 0.0
C893 C 0.13519 0.9681 0.59938 0.0
C894 C 0.22663 0.02982 0.61022 0.0
C895 C 0.20684 0.99649 0.6039 0.0
C896 C 0.26161 0.04426 0.6087 0.0
C897 C 0.31374 0.04099 0.60189 0.0
C898 C 0.24374 0.01198 0.6046 0.0
C899 C 0.3295 0.02298 0.59675 0.0
C900 C 0.22425 0.9785 0.60011 0.0
C901 C 0.11928 0.9862 0.60328 0.0
N902 N 0.29465 0.00913 0.59821 0.0
N903 N 0.15496 0.99974 0.60545 0.0
H904 H 0.84518 0.46584 0.13165 0.0
H905 H 0.69128 0.53838 0.03489 0.0
H906 H 0.8788 0.47628 0.04049 0.0
H907 H 0.69633 0.54196 0.1293 0.0
H908 H 0.75396 0.51349 0.03668 0.0
H909 H 0.78474 0.49172 0.13153 0.0
C910 C 0.83954 0.47348 0.11158 0.0
C911 C 0.86643 0.46875 0.08591 0.0
C912 C 0.74168 0.51978 0.05703 0.0
C913 C 0.79789 0.49835 0.08568 0.0
C914 C 0.70573 0.53393 0.05603 0.0
C915 C 0.68898 0.54236 0.08197 0.0
C916 C 0.76047 0.5137 0.08422 0.0
C917 C 0.70896 0.53605 0.10876 0.0
C918 C 0.80547 0.48833 0.11161 0.0
C919 C 0.85877 0.47943 0.06074 0.0
N920 N 0.74347 0.52199 0.10924 0.0
N921 N 0.82491 0.4936 0.06118 0.0
H922 H 0.2287 0.55891 0.38135 0.0
H923 H 0.22877 0.44983 0.38374 0.0
H924 H 0.36364 0.52694 0.40241 0.0
H925 H 0.09485 0.4821 0.40569 0.0
H926 H 0.27803 0.47799 0.37544 0.0
H927 H 0.17896 0.53064 0.37514 0.0
C928 C 0.24817 0.54591 0.38372 0.0
C929 C 0.30037 0.54513 0.39198 0.0
C930 C 0.23756 0.47888 0.38147 0.0
C931 C 0.2439 0.51295 0.38533 0.0
C932 C 0.20937 0.46286 0.38588 0.0
C933 C 0.15762 0.46376 0.39497 0.0
C934 C 0.21358 0.49584 0.38597 0.0
C935 C 0.13463 0.48093 0.39846 0.0
C936 C 0.21972 0.52984 0.38051 0.0
C937 C 0.3235 0.52801 0.39581 0.0
N938 N 0.16278 0.49634 0.39396 0.0
N939 N 0.2951 0.51256 0.39246 0.0
H940 H 0.33503 0.46511 0.85295 0.0
H941 H 0.15639 0.53437 0.94301 0.0
H942 H 0.33495 0.46973 0.94732 0.0
H943 H 0.18228 0.54001 0.84992 0.0
H944 H 0.21624 0.50872 0.9439 0.0
H945 H 0.27422 0.49081 0.85031 0.0
C946 C 0.32184 0.47139 0.87309 0.0
C947 C 0.33944 0.46511 0.90043 0.0
C948 C 0.20913 0.51559 0.92326 0.0
C949 C 0.27063 0.49455 0.89756 0.0
C950 C 0.17472 0.5302 0.9227 0.0
C951 C 0.16485 0.53951 0.89642 0.0
C952 C 0.23356 0.51002 0.89725 0.0
C953 C 0.18972 0.5335 0.87079 0.0
C954 C 0.28755 0.48615 0.87156 0.0
C955 C 0.32232 0.47411 0.92579 0.0
N956 N 0.22292 0.51907 0.87181 0.0
N957 N 0.28869 0.48827 0.92374 0.0
H958 H 0.75837 0.55025 0.61116 0.0
H959 H 0.73603 0.45146 0.53933 0.0
H960 H 0.85886 0.52942 0.54344 0.0
H961 H 0.63656 0.46895 0.60991 0.0
H962 H 0.78687 0.47905 0.54501 0.0
H963 H 0.7193 0.51991 0.61587 0.0
C964 C 0.77328 0.5392 0.59791 0.0
C965 C 0.81218 0.54231 0.57698 0.0
C966 C 0.75424 0.4769 0.55951 0.0
C967 C 0.76685 0.50778 0.5817 0.0
C968 C 0.72506 0.46114 0.55619 0.0
C969 C 0.68184 0.458 0.57404 0.0
C970 C 0.73978 0.48992 0.58056 0.0
C971 C 0.66978 0.47086 0.59579 0.0
C972 C 0.75056 0.52192 0.60038 0.0
C973 C 0.82883 0.52762 0.55976 0.0
N974 N 0.69827 0.48644 0.59822 0.0
N975 N 0.80591 0.51109 0.56238 0.0
H976 H 0.95556 0.29722 0.07213 0.0
H977 H 0.0837 0.21656 0.16603 0.0
H978 H 0.00085 0.30257 0.16286 0.0
H979 H 0.07406 0.21549 0.07149 0.0
H980 H 0.04687 0.24724 0.16576 0.0
H981 H 0.9902 0.26601 0.07212 0.0
C982 C 0.9721 0.29176 0.09213 0.0
C983 C 0.97545 0.30252 0.11751 0.0
C984 C 0.05306 0.24035 0.14504 0.0
C985 C 0.01542 0.26699 0.1176 0.0
C986 C 0.07427 0.22283 0.14519 0.0
C987 C 0.08216 0.21343 0.11875 0.0
C988 C 0.03903 0.24851 0.1183 0.0
C989 C 0.06897 0.22226 0.0924 0.0
C990 C 0.99228 0.27402 0.09204 0.0
C991 C -0.00232 0.2948 0.14274 0.0
N992 N 0.04774 0.23925 0.09285 0.0
N993 N 0.0168 0.27756 0.14213 0.0
H994 H 0.50011 0.80111 0.07324 0.0
H995 H 0.49126 0.6988 0.11979 0.0
H996 H 0.40681 0.78586 0.1478 0.0
H997 H 0.63956 0.72451 0.10708 0.0
H998 H 0.45012 0.72899 0.12044 0.0
H999 H 0.54252 0.77119 0.07509 0.0
C1000 C 0.48809 0.79137 0.08976 0.0
C1001 C 0.44972 0.79587 0.11034 0.0
C1002 C 0.49164 0.72797 0.11759 0.0
C1003 C 0.49762 0.76175 0.11226 0.0
C1004 C 0.51507 0.71083 0.11706 0.0
C1005 C 0.5688 0.70927 0.11336 0.0
C1006 C 0.52196 0.74356 0.1134 0.0
C1007 C 0.59805 0.72522 0.11009 0.0
C1008 C 0.51265 0.77444 0.09093 0.0
C1009 C 0.43616 0.78286 0.13154 0.0
N1010 N 0.5741 0.74177 0.10972 0.0
N1011 N 0.45966 0.76624 0.13175 0.0
H1012 H 0.48465 0.80534 0.41093 0.0
H1013 H 0.5204 0.70422 0.35047 0.0
H1014 H 0.58234 0.79227 0.33701 0.0
H1015 H 0.38663 0.72044 0.40079 0.0
H1016 H 0.54866 0.73592 0.34891 0.0
H1017 H 0.45433 0.77373 0.41179 0.0
C1018 C 0.50014 0.7958 0.39505 0.0
C1019 C 0.53622 0.80148 0.37386 0.0
C1020 C 0.51296 0.7326 0.36015 0.0
C1021 C 0.50144 0.76531 0.37473 0.0
C1022 C 0.49678 0.71449 0.36109 0.0
C1023 C 0.45107 0.70968 0.37581 0.0
C1024 C 0.48374 0.74605 0.37445 0.0
C1025 C 0.42197 0.72358 0.38908 0.0
C1026 C 0.48243 0.7778 0.39542 0.0
C1027 C 0.55454 0.78852 0.35372 0.0
N1028 N 0.43907 0.74115 0.38834 0.0
N1029 N 0.53709 0.77104 0.35471 0.0
H1030 H 0.05248 0.29226 0.41518 0.0
H1031 H 0.91019 0.21544 0.3197 0.0
H1032 H 0.02491 0.2967 0.32201 0.0
H1033 H 0.9339 0.21126 0.41324 0.0
H1034 H 0.95146 0.24535 0.32033 0.0
H1035 H 0.01111 0.26229 0.41482 0.0
C1036 C 0.03827 0.28687 0.39457 0.0
C1037 C 0.04214 0.29707 0.36858 0.0
C1038 C 0.94743 0.23795 0.34076 0.0
C1039 C 0.99405 0.26282 0.36812 0.0
C1040 C 0.92357 0.22088 0.34045 0.0
C1041 C 0.91861 0.21076 0.36645 0.0
C1042 C 0.96669 0.245 0.36725 0.0
C1043 C 0.93683 0.21855 0.39265 0.0
C1044 C 0.01433 0.26979 0.39443 0.0
C1045 C 0.02281 0.28937 0.34259 0.0
N1046 N 0.96028 0.23515 0.39235 0.0
N1047 N -0.00054 0.27277 0.34305 0.0
H1048 H 0.93312 0.79316 0.82052 0.0
H1049 H 0.07026 0.71027 0.90434 0.0
H1050 H 0.95334 0.79174 0.91452 0.0
H1051 H 0.00534 0.70546 0.81744 0.0
H1052 H 0.03812 0.74174 0.90675 0.0
H1053 H 0.96796 0.76217 0.81755 0.0
C1054 C 0.94449 0.78629 0.84056 0.0
C1055 C 0.9401 0.79505 0.86781 0.0
C1056 C 0.03118 0.73379 0.88712 0.0
C1057 C 0.98097 0.75972 0.8645 0.0
C1058 C 0.0499 0.7159 0.88564 0.0
C1059 C 0.0403 0.70522 0.86069 0.0
C1060 C 0.00328 0.74108 0.86336 0.0
C1061 C 0.01337 0.71317 0.83717 0.0
C1062 C 0.96451 0.76862 0.83884 0.0
C1063 C 0.95569 0.78549 0.89305 0.0
N1064 N -0.00418 0.7306 0.83908 0.0
N1065 N 0.97576 0.7684 0.89076 0.0
H1066 H 0.59018 0.21328 0.82156 0.0
H1067 H 0.465 0.29587 0.91155 0.0
H1068 H 0.57934 0.21393 0.91609 0.0
H1069 H 0.51885 0.30112 0.82229 0.0
H1070 H 0.49806 0.26454 0.91248 0.0
H1071 H 0.55732 0.24458 0.82042 0.0
C1072 C 0.58131 0.22005 0.84208 0.0
C1073 C 0.58762 0.21096 0.86895 0.0
C1074 C 0.50251 0.27256 0.89269 0.0
C1075 C 0.5491 0.24666 0.86777 0.0
C1076 C 0.48331 0.29038 0.89207 0.0
C1077 C 0.48929 0.30114 0.86683 0.0
C1078 C 0.52732 0.26538 0.86777 0.0
C1079 C 0.51359 0.29335 0.84227 0.0
C1080 C 0.56245 0.2379 0.84141 0.0
C1081 C 0.57534 0.22041 0.89487 0.0
N1082 N 0.53164 0.27596 0.84334 0.0
N1083 N 0.5563 0.23768 0.89362 0.0
H1084 H 0.41534 0.21033 0.58251 0.0
H1085 H 0.54081 0.29472 0.6684 0.0
H1086 H 0.45219 0.20937 0.67487 0.0
H1087 H 0.53623 0.29085 0.5739 0.0
H1088 H 0.50137 0.26452 0.67164 0.0
H1089 H 0.45015 0.24136 0.57955 0.0
C1090 C 0.43 0.21673 0.60224 0.0
C1091 C 0.43111 0.20721 0.62895 0.0
C1092 C 0.50921 0.27025 0.65019 0.0
C1093 C 0.4714 0.24258 0.62566 0.0
C1094 C 0.53192 0.28747 0.64832 0.0
C1095 C 0.54202 0.29534 0.62084 0.0
C1096 C 0.49601 0.26084 0.6244 0.0
C1097 C 0.5294 0.2853 0.59557 0.0
C1098 C 0.45029 0.23437 0.60048 0.0
C1099 C 0.45087 0.21615 0.65378 0.0
N1100 N 0.50683 0.26862 0.59796 0.0
N1101 N 0.47034 0.23329 0.65152 0.0
H1102 H 0.97524 0.70369 0.60405 0.0
H1103 H 0.95328 0.81012 0.58173 0.0
H1104 H 0.82694 0.73073 0.60556 0.0
H1105 H 0.07969 0.78671 0.6309 0.0
H1106 H 0.91045 0.78038 0.58147 0.0
H1107 H 0.01807 0.73342 0.60571 0.0
C1108 C 0.95168 0.71591 0.60468 0.0
C1109 C 0.89743 0.71479 0.60461 0.0
C1110 C 0.9476 0.78179 0.59224 0.0
C1111 C 0.94629 0.74875 0.60601 0.0
C1112 C 0.97237 0.79868 0.59218 0.0
C1113 C 0.0203 0.80087 0.6063 0.0
C1114 C 0.97141 0.76687 0.60592 0.0
C1115 C 0.04283 0.7856 0.61977 0.0
C1116 C 0.97619 0.73282 0.60576 0.0
C1117 C 0.86882 0.73103 0.60568 0.0
N1118 N 0.01836 0.76917 0.61904 0.0
N1119 N 0.89363 0.74741 0.60597 0.0
H1120 H 0.0044 0.15968 0.16125 0.0
H1121 H 0.93824 0.10057 0.30354 0.0
H1122 H 0.0466 0.10292 0.16961 0.0
H1123 H 0.91303 0.15857 0.29545 0.0
H1124 H 0.96739 0.0998 0.25239 0.0
H1125 H 0.95996 0.15802 0.20803 0.0
C1126 C 0.00421 0.1468 0.1729 0.0
C1127 C 0.02992 0.13146 0.16166 0.0
C1128 C 0.95507 0.11264 0.26181 0.0
C1129 C 0.97897 0.12951 0.2156 0.0
C1130 C 0.93833 0.1131 0.29096 0.0
C1131 C 0.92379 0.12972 0.30392 0.0
C1132 C 0.95695 0.12889 0.24557 0.0
C1133 C 0.92448 0.1455 0.28656 0.0
C1134 C 0.97868 0.14587 0.19967 0.0
C1135 C 0.02754 0.1151 0.17758 0.0
N1136 N 0.94106 0.1447 0.25838 0.0
N1137 N 0.0029 0.11458 0.20398 0.0
H1138 H 0.47489 0.9084 0.15687 0.0
H1139 H 0.57557 0.85316 0.29519 0.0
H1140 H 0.51964 0.85165 0.1549 0.0
H1141 H 0.53978 0.91069 0.29706 0.0
H1142 H 0.5692 0.85371 0.24187 0.0
H1143 H 0.51227 0.91095 0.20595 0.0
C1144 C 0.49326 0.89656 0.16654 0.0
C1145 C 0.49315 0.87969 0.15204 0.0
C1146 C 0.56339 0.86628 0.2539 0.0
C1147 C 0.53559 0.88247 0.20813 0.0
C1148 C 0.56692 0.86596 0.28438 0.0
C1149 C 0.55717 0.88182 0.30064 0.0
C1150 C 0.54936 0.88253 0.23961 0.0
C1151 C 0.54696 0.89808 0.28542 0.0
C1152 C 0.51457 0.89801 0.19457 0.0
C1153 C 0.51791 0.86484 0.1655 0.0
N1154 N 0.54249 0.89795 0.25575 0.0
N1155 N 0.53747 0.86652 0.19294 0.0
H1156 H 0.01864 0.84882 0.8298 0.0
H1157 H 0.05043 0.9095 0.68636 0.0
H1158 H 0.98426 0.90644 0.82622 0.0
H1159 H 0.06742 0.85091 0.68849 0.0
H1160 H 0.04491 0.90971 0.73976 0.0
H1161 H 0.05534 0.85065 0.78072 0.0
C1162 C 0.01932 0.86192 0.81882 0.0
C1163 C -0.00265 0.87744 0.83188 0.0
C1164 C 0.05053 0.89685 0.72855 0.0
C1165 C 0.0391 0.87957 0.77556 0.0
C1166 C 0.05379 0.8967 0.69804 0.0
C1167 C 0.05846 0.88011 0.68287 0.0
C1168 C 0.05182 0.8803 0.74398 0.0
C1169 C 0.06297 0.86399 0.69922 0.0
C1170 C 0.04035 0.86295 0.79078 0.0
C1171 C 0.00021 0.89409 0.81682 0.0
N1172 N 0.0589 0.86446 0.72889 0.0
N1173 N 0.01998 0.89466 0.78922 0.0
H1174 H 0.54825 0.0988 0.82588 0.0
H1175 H 0.396 0.15405 0.70197 0.0
H1176 H 0.50206 0.15527 0.83229 0.0
H1177 H 0.44253 0.09786 0.6915 0.0
H1178 H 0.42437 0.15299 0.75277 0.0
H1179 H 0.50045 0.09652 0.77944 0.0
C1180 C 0.52769 0.11064 0.8177 0.0
C1181 C 0.52977 0.12732 0.83273 0.0
C1182 C 0.42807 0.14081 0.73951 0.0
C1183 C 0.47519 0.12481 0.77998 0.0
C1184 C 0.41183 0.14142 0.71044 0.0
C1185 C 0.41767 0.12611 0.69234 0.0
C1186 C 0.4509 0.12484 0.75057 0.0
C1187 C 0.43773 0.11003 0.70466 0.0
C1188 C 0.50049 0.10933 0.79124 0.0
C1189 C 0.5023 0.14221 0.82124 0.0
N1190 N 0.45434 0.10988 0.73297 0.0
N1191 N 0.4765 0.14062 0.79553 0.0
H1192 H 0.44867 0.59937 0.31583 0.0
H1193 H 0.60253 0.65284 0.19133 0.0
H1194 H 0.49063 0.65633 0.31976 0.0
H1195 H 0.55204 0.59705 0.18196 0.0
H1196 H 0.5768 0.65213 0.24264 0.0
H1197 H 0.49922 0.59638 0.27065 0.0
C1198 C 0.46876 0.61121 0.30732 0.0
C1199 C 0.46477 0.6282 0.3213 0.0
C1200 C 0.57184 0.63995 0.22952 0.0
C1201 C 0.52275 0.62482 0.26995 0.0
C1202 C 0.58661 0.64035 0.20022 0.0
C1203 C 0.57834 0.62511 0.18228 0.0
C1204 C 0.54797 0.62429 0.24088 0.0
C1205 C 0.55853 0.60916 0.19502 0.0
C1206 C 0.49767 0.60947 0.2816 0.0
C1207 C 0.4919 0.64303 0.30948 0.0
N1208 N 0.54306 0.60926 0.22352 0.0
N1209 N 0.51942 0.64101 0.2844 0.0
H1210 H 0.00855 0.40874 0.32409 0.0
H1211 H 0.89578 0.35335 0.18892 0.0
H1212 H 0.97237 0.35125 0.32559 0.0
H1213 H 0.93901 0.41018 0.18486 0.0
H1214 H 0.90515 0.35425 0.24204 0.0
H1215 H 0.96599 0.41121 0.27642 0.0
C1216 C 0.99112 0.39668 0.31458 0.0
C1217 C -0.005 0.37967 0.32853 0.0
C1218 C 0.91191 0.36661 0.22959 0.0
C1219 C 0.94638 0.38243 0.27408 0.0
C1220 C 0.90655 0.36611 0.19923 0.0
C1221 C 0.91794 0.3816 0.18238 0.0
C1222 C 0.92931 0.38265 0.24316 0.0
C1223 C 0.93073 0.39782 0.19697 0.0
C1224 C 0.96679 0.39812 0.28738 0.0
C1225 C 0.97123 0.36456 0.31536 0.0
N1226 N 0.93703 0.39784 0.22654 0.0
N1227 N 0.94849 0.36626 0.2887 0.0
H1228 H 0.40102 0.35049 0.79583 0.0
H1229 H 0.51405 0.40712 0.66246 0.0
H1230 H 0.43103 0.40835 0.79985 0.0
H1231 H 0.47271 0.35012 0.65817 0.0
H1232 H 0.47083 0.40921 0.71006 0.0
H1233 H 0.41282 0.35147 0.74288 0.0
C1234 C 0.4094 0.36346 0.7855 0.0
C1235 C 0.4162 0.37928 0.80231 0.0
C1236 C 0.47063 0.39632 0.69848 0.0
C1237 C 0.43056 0.38046 0.74173 0.0
C1238 C 0.49537 0.39511 0.67134 0.0
C1239 C 0.49795 0.37833 0.65661 0.0
C1240 C 0.4486 0.38062 0.71095 0.0
C1241 C 0.47261 0.36326 0.66899 0.0
C1242 C 0.41613 0.36402 0.75523 0.0
C1243 C 0.42615 0.39577 0.78774 0.0
N1244 N 0.44958 0.36472 0.69559 0.0
N1245 N 0.43404 0.39587 0.75828 0.0
H1246 H 0.05585 0.59629 0.79454 0.0
H1247 H 0.99239 0.65661 0.65381 0.0
H1248 H 0.09108 0.65362 0.78626 0.0
H1249 H 0.9507 0.59979 0.66169 0.0
H1250 H 0.04123 0.65425 0.69924 0.0
H1251 H 0.03072 0.59576 0.74281 0.0
C1252 C 0.05911 0.60868 0.78175 0.0
C1253 C 0.07455 0.62511 0.79484 0.0
C1254 C 0.02173 0.64224 0.69097 0.0
C1255 C 0.04567 0.62462 0.73593 0.0
C1256 C 0.99363 0.6436 0.66506 0.0
C1257 C 0.96669 0.62845 0.65421 0.0
C1258 C 0.02258 0.62566 0.70634 0.0
C1259 C 0.97044 0.61187 0.66946 0.0
C1260 C 0.04462 0.60838 0.75226 0.0
C1261 C 0.07846 0.64073 0.77721 0.0
N1262 N -0.0026 0.61096 0.69499 0.0
N1263 N 0.0635 0.64013 0.74875 0.0
loop_
_geom_bond_atom_site_label_1
_geom_bond_atom_site_label_2
_geom_bond_distance
_geom_bond_site_symmetry_2
_ccdc_geom_bond_type
Co0 O3 1.970 . S
Co0 N17 1.989 . S
Co0 O25 1.967 . S
Co0 O32 1.920 . S
Co1 O4 1.966 . S
Co1 N10 2.022 . S
Co1 N18 1.993 . S
Co1 O26 1.941 . S
C2 O3 1.258 . S
C2 O4 1.263 . S
O3 Co0 1.970 . S
O3 C2 1.258 . S
O4 Co1 1.966 . S
O4 C2 1.263 . S
C5 O6 1.235 . S
C5 O32 1.289 . S
O6 C5 1.235 . S
C7 C9 1.400 . S
C7 N10 1.351 . S
C7 C12 1.501 . S
C8 C9 1.387 . S
C8 N11 1.341 . S
C9 C7 1.400 . S
C9 C8 1.387 . S
N10 Co1 2.022 . S
N10 C7 1.351 . S
N10 N11 1.365 . S
N11 C8 1.341 . S
N11 N10 1.365 . S
N11 H31 0.862 . S
C12 C7 1.501 . S
C12 H13 0.961 . S
C12 H14 0.961 . S
C12 H15 0.960 . S
H13 C12 0.961 . S
H14 C12 0.961 . S
H15 C12 0.960 . S
C16 N17 1.342 . S
C16 C20 1.401 . S
C16 C21 1.499 . S
N17 Co0 1.989 . S
N17 C16 1.342 . S
N17 N18 1.388 . S
N18 Co1 1.993 . S
N18 N17 1.388 . S
N18 C19 1.346 . S
C19 N18 1.346 . S
C19 C20 1.396 . S
C19 C29 1.510 . S
C20 C16 1.401 . S
C20 C19 1.396 . S
C21 C16 1.499 . S
C21 H22 0.959 . S
C21 H23 0.960 . S
C21 H24 0.961 . S
H22 C21 0.959 . S
H23 C21 0.960 . S
H24 C21 0.961 . S
O25 Co0 1.967 . S
O25 C33 1.258 . S
O26 Co1 1.941 . S
O26 C33 1.266 . S
H27 C29 0.959 . S
H28 C29 0.961 . S
C29 C19 1.510 . S
C29 H27 0.959 . S
C29 H28 0.961 . S
C29 H30 0.960 . S
H30 C29 0.960 . S
H31 N11 0.862 . S
O32 Co0 1.920 . S
O32 C5 1.289 . S
C33 O25 1.258 . S
C33 O26 1.266 . S
Co34 O37 1.970 . S
Co34 N51 1.989 . S
Co34 O59 1.967 . S
Co34 O66 1.920 . S
Co35 O38 1.966 . S
Co35 N44 2.022 . S
Co35 N52 1.993 . S
Co35 O60 1.941 . S
C36 O37 1.258 . S
C36 O38 1.263 . S
O37 Co34 1.970 . S
O37 C36 1.258 . S
O38 Co35 1.966 . S
O38 C36 1.263 . S
C39 O40 1.235 . S
C39 O66 1.289 . S
O40 C39 1.235 . S
C41 C43 1.400 . S
C41 N44 1.351 . S
C41 C46 1.501 . S
C42 C43 1.387 . S
C42 N45 1.341 . S
C43 C41 1.400 . S
C43 C42 1.387 . S
N44 Co35 2.022 . S
N44 C41 1.351 . S
N44 N45 1.365 . S
N45 C42 1.341 . S
N45 N44 1.365 . S
N45 H65 0.862 . S
C46 C41 1.501 . S
C46 H47 0.961 . S
C46 H48 0.961 . S
C46 H49 0.960 . S
H47 C46 0.961 . S
H48 C46 0.961 . S
H49 C46 0.960 . S
C50 N51 1.342 . S
C50 C54 1.401 . S
C50 C55 1.499 . S
N51 Co34 1.989 . S
N51 C50 1.342 . S
N51 N52 1.388 . S
N52 Co35 1.993 . S
N52 N51 1.388 . S
N52 C53 1.346 . S
C53 N52 1.346 . S
C53 C54 1.396 . S
C53 C63 1.510 . S
C54 C50 1.401 . S
C54 C53 1.396 . S
C55 C50 1.499 . S
C55 H56 0.959 . S
C55 H57 0.960 . S
C55 H58 0.961 . S
H56 C55 0.959 . S
H57 C55 0.960 . S
H58 C55 0.961 . S
O59 Co34 1.967 . S
O59 C67 1.258 . S
O60 Co35 1.941 . S
O60 C67 1.266 . S
H61 C63 0.959 . S
H62 C63 0.961 . S
C63 C53 1.510 . S
C63 H61 0.959 . S
C63 H62 0.961 . S
C63 H64 0.960 . S
H64 C63 0.960 . S
H65 N45 0.862 . S
O66 Co34 1.920 . S
O66 C39 1.289 . S
C67 O59 1.258 . S
C67 O60 1.266 . S
Co68 O71 1.970 . S
Co68 N85 1.989 . S
Co68 O93 1.967 . S
Co68 O100 1.920 . S
Co69 O72 1.966 . S
Co69 N78 2.022 . S
Co69 N86 1.993 . S
Co69 O94 1.941 . S
C70 O71 1.258 . S
C70 O72 1.263 . S
O71 Co68 1.970 . S
O71 C70 1.258 . S
O72 Co69 1.966 . S
O72 C70 1.263 . S
C73 O74 1.235 . S
C73 O100 1.289 . S
O74 C73 1.235 . S
C75 C77 1.400 . S
C75 N78 1.351 . S
C75 C80 1.501 . S
C76 C77 1.387 . S
C76 N79 1.341 . S
C77 C75 1.400 . S
C77 C76 1.387 . S
N78 Co69 2.022 . S
N78 C75 1.351 . S
N78 N79 1.365 . S
N79 C76 1.341 . S
N79 N78 1.365 . S
N79 H99 0.862 . S
C80 C75 1.501 . S
C80 H81 0.961 . S
C80 H82 0.961 . S
C80 H83 0.960 . S
H81 C80 0.961 . S
H82 C80 0.961 . S
H83 C80 0.960 . S
C84 N85 1.342 . S
C84 C88 1.401 . S
C84 C89 1.499 . S
N85 Co68 1.989 . S
N85 C84 1.342 . S
N85 N86 1.388 . S
N86 Co69 1.993 . S
N86 N85 1.388 . S
N86 C87 1.346 . S
C87 N86 1.346 . S
C87 C88 1.396 . S
C87 C97 1.510 . S
C88 C84 1.401 . S
C88 C87 1.396 . S
C89 C84 1.499 . S
C89 H90 0.959 . S
C89 H91 0.960 . S
C89 H92 0.961 . S
H90 C89 0.959 . S
H91 C89 0.960 . S
H92 C89 0.961 . S
O93 Co68 1.967 . S
O93 C101 1.258 . S
O94 Co69 1.941 . S
O94 C101 1.266 . S
H95 C97 0.959 . S
H96 C97 0.961 . S
C97 C87 1.510 . S
C97 H95 0.959 . S
C97 H96 0.961 . S
C97 H98 0.960 . S
H98 C97 0.960 . S
H99 N79 0.862 . S
O100 Co68 1.920 . S
O100 C73 1.289 . S
C101 O93 1.258 . S
C101 O94 1.266 . S
Co102 O105 1.970 . S
Co102 N119 1.989 . S
Co102 O127 1.967 . S
Co102 O134 1.920 . S
Co103 O106 1.966 . S
Co103 N112 2.022 . S
Co103 N120 1.993 . S
Co103 O128 1.941 . S
C104 O105 1.258 . S
C104 O106 1.263 . S
O105 Co102 1.970 . S
O105 C104 1.258 . S
O106 Co103 1.966 . S
O106 C104 1.263 . S
C107 O108 1.235 . S
C107 O134 1.289 . S
O108 C107 1.235 . S
C109 C111 1.400 . S
C109 N112 1.351 . S
C109 C114 1.501 . S
C110 C111 1.387 . S
C110 N113 1.341 . S
C111 C109 1.400 . S
C111 C110 1.387 . S
N112 Co103 2.022 . S
N112 C109 1.351 . S
N112 N113 1.365 . S
N113 C110 1.341 . S
N113 N112 1.365 . S
N113 H133 0.862 . S
C114 C109 1.501 . S
C114 H115 0.961 . S
C114 H116 0.961 . S
C114 H117 0.960 . S
H115 C114 0.961 . S
H116 C114 0.961 . S
H117 C114 0.960 . S
C118 N119 1.342 . S
C118 C122 1.401 . S
C118 C123 1.499 . S
N119 Co102 1.989 . S
N119 C118 1.342 . S
N119 N120 1.388 . S
N120 Co103 1.993 . S
N120 N119 1.388 . S
N120 C121 1.346 . S
C121 N120 1.346 . S
C121 C122 1.396 . S
C121 C131 1.510 . S
C122 C118 1.401 . S
C122 C121 1.396 . S
C123 C118 1.499 . S
C123 H124 0.959 . S
C123 H125 0.960 . S
C123 H126 0.961 . S
H124 C123 0.959 . S
H125 C123 0.960 . S
H126 C123 0.961 . S
O127 Co102 1.967 . S
O127 C135 1.258 . S
O128 Co103 1.941 . S
O128 C135 1.266 . S
H129 C131 0.959 . S
H130 C131 0.961 . S
C131 C121 1.510 . S
C131 H129 0.959 . S
C131 H130 0.961 . S
C131 H132 0.960 . S
H132 C131 0.960 . S
H133 N113 0.862 . S
O134 Co102 1.920 . S
O134 C107 1.289 . S
C135 O127 1.258 . S
C135 O128 1.266 . S
Co136 O139 1.970 . S
Co136 N153 1.989 . S
Co136 O161 1.967 . S
Co136 O168 1.920 . S
Co137 O140 1.966 . S
Co137 N146 2.022 . S
Co137 N154 1.993 . S
Co137 O162 1.941 . S
C138 O139 1.258 . S
C138 O140 1.263 . S
O139 Co136 1.970 . S
O139 C138 1.258 . S
O140 Co137 1.966 . S
O140 C138 1.263 . S
C141 O142 1.235 . S
C141 O168 1.289 . S
O142 C141 1.235 . S
C143 C145 1.400 . S
C143 N146 1.351 . S
C143 C148 1.501 . S
C144 C145 1.387 . S
C144 N147 1.341 . S
C145 C143 1.400 . S
C145 C144 1.387 . S
N146 Co137 2.022 . S
N146 C143 1.351 . S
N146 N147 1.365 . S
N147 C144 1.341 . S
N147 N146 1.365 . S
N147 H167 0.862 . S
C148 C143 1.501 . S
C148 H149 0.961 . S
C148 H150 0.961 . S
C148 H151 0.960 . S
H149 C148 0.961 . S
H150 C148 0.961 . S
H151 C148 0.960 . S
C152 N153 1.342 . S
C152 C156 1.401 . S
C152 C157 1.499 . S
N153 Co136 1.989 . S
N153 C152 1.342 . S
N153 N154 1.388 . S
N154 Co137 1.993 . S
N154 N153 1.388 . S
N154 C155 1.346 . S
C155 N154 1.346 . S
C155 C156 1.396 . S
C155 C165 1.510 . S
C156 C152 1.401 . S
C156 C155 1.396 . S
C157 C152 1.499 . S
C157 H158 0.959 . S
C157 H159 0.960 . S
C157 H160 0.961 . S
H158 C157 0.959 . S
H159 C157 0.960 . S
H160 C157 0.961 . S
O161 Co136 1.967 . S
O161 C169 1.258 . S
O162 Co137 1.941 . S
O162 C169 1.266 . S
H163 C165 0.959 . S
H164 C165 0.961 . S
C165 C155 1.510 . S
C165 H163 0.959 . S
C165 H164 0.961 . S
C165 H166 0.960 . S
H166 C165 0.960 . S
H167 N147 0.862 . S
O168 Co136 1.920 . S
O168 C141 1.289 . S
C169 O161 1.258 . S
C169 O162 1.266 . S
Co170 O173 1.970 . S
Co170 N187 1.989 . S
Co170 O195 1.967 . S
Co170 O202 1.920 . S
Co171 O174 1.966 . S
Co171 N180 2.022 . S
Co171 N188 1.993 . S
Co171 O196 1.941 . S
C172 O173 1.258 . S
C172 O174 1.263 . S
O173 Co170 1.970 . S
O173 C172 1.258 . S
O174 Co171 1.966 . S
O174 C172 1.263 . S
C175 O176 1.235 . S
C175 O202 1.289 . S
O176 C175 1.235 . S
C177 C179 1.400 . S
C177 N180 1.351 . S
C177 C182 1.501 . S
C178 C179 1.387 . S
C178 N181 1.341 . S
C179 C177 1.400 . S
C179 C178 1.387 . S
N180 Co171 2.022 . S
N180 C177 1.351 . S
N180 N181 1.365 . S
N181 C178 1.341 . S
N181 N180 1.365 . S
N181 H201 0.862 . S
C182 C177 1.501 . S
C182 H183 0.961 . S
C182 H184 0.961 . S
C182 H185 0.960 . S
H183 C182 0.961 . S
H184 C182 0.961 . S
H185 C182 0.960 . S
C186 N187 1.342 . S
C186 C190 1.401 . S
C186 C191 1.499 . S
N187 Co170 1.989 . S
N187 C186 1.342 . S
N187 N188 1.388 . S
N188 Co171 1.993 . S
N188 N187 1.388 . S
N188 C189 1.346 . S
C189 N188 1.346 . S
C189 C190 1.396 . S
C189 C199 1.510 . S
C190 C186 1.401 . S
C190 C189 1.396 . S
C191 C186 1.499 . S
C191 H192 0.959 . S
C191 H193 0.960 . S
C191 H194 0.961 . S
H192 C191 0.959 . S
H193 C191 0.960 . S
H194 C191 0.961 . S
O195 Co170 1.967 . S
O195 C203 1.258 . S
O196 Co171 1.941 . S
O196 C203 1.266 . S
H197 C199 0.959 . S
H198 C199 0.961 . S
C199 C189 1.510 . S
C199 H197 0.959 . S
C199 H198 0.961 . S
C199 H200 0.960 . S
H200 C199 0.960 . S
H201 N181 0.862 . S
O202 Co170 1.920 . S
O202 C175 1.289 . S
C203 O195 1.258 . S
C203 O196 1.266 . S
Co204 O207 1.970 . S
Co204 N221 1.989 . S
Co204 O229 1.967 . S
Co204 O236 1.920 . S
Co205 O208 1.966 . S
Co205 N214 2.022 . S
Co205 N222 1.993 . S
Co205 O230 1.941 . S
C206 O207 1.258 . S
C206 O208 1.263 . S
O207 Co204 1.970 . S
O207 C206 1.258 . S
O208 Co205 1.966 . S
O208 C206 1.263 . S
C209 O210 1.235 . S
C209 O236 1.289 . S
O210 C209 1.235 . S
C211 C213 1.400 . S
C211 N214 1.351 . S
C211 C216 1.501 . S
C212 C213 1.387 . S
C212 N215 1.341 . S
C213 C211 1.400 . S
C213 C212 1.387 . S
N214 Co205 2.022 . S
N214 C211 1.351 . S
N214 N215 1.365 . S
N215 C212 1.341 . S
N215 N214 1.365 . S
N215 H235 0.862 . S
C216 C211 1.501 . S
C216 H217 0.961 . S
C216 H218 0.961 . S
C216 H219 0.960 . S
H217 C216 0.961 . S
H218 C216 0.961 . S
H219 C216 0.960 . S
C220 N221 1.342 . S
C220 C224 1.401 . S
C220 C225 1.499 . S
N221 Co204 1.989 . S
N221 C220 1.342 . S
N221 N222 1.388 . S
N222 Co205 1.993 . S
N222 N221 1.388 . S
N222 C223 1.346 . S
C223 N222 1.346 . S
C223 C224 1.396 . S
C223 C233 1.510 . S
C224 C220 1.401 . S
C224 C223 1.396 . S
C225 C220 1.499 . S
C225 H226 0.959 . S
C225 H227 0.960 . S
C225 H228 0.961 . S
H226 C225 0.959 . S
H227 C225 0.960 . S
H228 C225 0.961 . S
O229 Co204 1.967 . S
O229 C237 1.258 . S
O230 Co205 1.941 . S
O230 C237 1.266 . S
H231 C233 0.959 . S
H232 C233 0.961 . S
C233 C223 1.510 . S
C233 H231 0.959 . S
C233 H232 0.961 . S
C233 H234 0.960 . S
H234 C233 0.960 . S
H235 N215 0.862 . S
O236 Co204 1.920 . S
O236 C209 1.289 . S
C237 O229 1.258 . S
C237 O230 1.266 . S
Co238 O241 1.970 . S
Co238 N255 1.989 . S
Co238 O263 1.967 . S
Co238 O270 1.920 . S
Co239 O242 1.966 . S
Co239 N248 2.022 . S
Co239 N256 1.993 . S
Co239 O264 1.941 . S
C240 O241 1.258 . S
C240 O242 1.263 . S
O241 Co238 1.970 . S
O241 C240 1.258 . S
O242 Co239 1.966 . S
O242 C240 1.263 . S
C243 O244 1.235 . S
C243 O270 1.289 . S
O244 C243 1.235 . S
C245 C247 1.400 . S
C245 N248 1.351 . S
C245 C250 1.501 . S
C246 C247 1.387 . S
C246 N249 1.341 . S
C247 C245 1.400 . S
C247 C246 1.387 . S
N248 Co239 2.022 . S
N248 C245 1.351 . S
N248 N249 1.365 . S
N249 C246 1.341 . S
N249 N248 1.365 . S
N249 H269 0.862 . S
C250 C245 1.501 . S
C250 H251 0.961 . S
C250 H252 0.961 . S
C250 H253 0.960 . S
H251 C250 0.961 . S
H252 C250 0.961 . S
H253 C250 0.960 . S
C254 N255 1.342 . S
C254 C258 1.401 . S
C254 C259 1.499 . S
N255 Co238 1.989 . S
N255 C254 1.342 . S
N255 N256 1.388 . S
N256 Co239 1.993 . S
N256 N255 1.388 . S
N256 C257 1.346 . S
C257 N256 1.346 . S
C257 C258 1.396 . S
C257 C267 1.510 . S
C258 C254 1.401 . S
C258 C257 1.396 . S
C259 C254 1.499 . S
C259 H260 0.959 . S
C259 H261 0.960 . S
C259 H262 0.961 . S
H260 C259 0.959 . S
H261 C259 0.960 . S
H262 C259 0.961 . S
O263 Co238 1.967 . S
O263 C271 1.258 . S
O264 Co239 1.941 . S
O264 C271 1.266 . S
H265 C267 0.959 . S
H266 C267 0.961 . S
C267 C257 1.510 . S
C267 H265 0.959 . S
C267 H266 0.961 . S
C267 H268 0.960 . S
H268 C267 0.960 . S
H269 N249 0.862 . S
O270 Co238 1.920 . S
O270 C243 1.289 . S
C271 O263 1.258 . S
C271 O264 1.266 . S
Co272 O275 1.970 . S
Co272 N289 1.989 . S
Co272 O297 1.967 . S
Co272 O304 1.920 . S
Co273 O276 1.966 . S
Co273 N282 2.022 . S
Co273 N290 1.993 . S
Co273 O298 1.941 . S
C274 O275 1.258 . S
C274 O276 1.263 . S
O275 Co272 1.970 . S
O275 C274 1.258 . S
O276 Co273 1.966 . S
O276 C274 1.263 . S
C277 O278 1.235 . S
C277 O304 1.289 . S
O278 C277 1.235 . S
C279 C281 1.400 . S
C279 N282 1.351 . S
C279 C284 1.501 . S
C280 C281 1.387 . S
C280 N283 1.341 . S
C281 C279 1.400 . S
C281 C280 1.387 . S
N282 Co273 2.022 . S
N282 C279 1.351 . S
N282 N283 1.365 . S
N283 C280 1.341 . S
N283 N282 1.365 . S
N283 H303 0.862 . S
C284 C279 1.501 . S
C284 H285 0.961 . S
C284 H286 0.961 . S
C284 H287 0.960 . S
H285 C284 0.961 . S
H286 C284 0.961 . S
H287 C284 0.960 . S
C288 N289 1.342 . S
C288 C292 1.401 . S
C288 C293 1.499 . S
N289 Co272 1.989 . S
N289 C288 1.342 . S
N289 N290 1.388 . S
N290 Co273 1.993 . S
N290 N289 1.388 . S
N290 C291 1.346 . S
C291 N290 1.346 . S
C291 C292 1.396 . S
C291 C301 1.510 . S
C292 C288 1.401 . S
C292 C291 1.396 . S
C293 C288 1.499 . S
C293 H294 0.959 . S
C293 H295 0.960 . S
C293 H296 0.961 . S
H294 C293 0.959 . S
H295 C293 0.960 . S
H296 C293 0.961 . S
O297 Co272 1.967 . S
O297 C305 1.258 . S
O298 Co273 1.941 . S
O298 C305 1.266 . S
H299 C301 0.959 . S
H300 C301 0.961 . S
C301 C291 1.510 . S
C301 H299 0.959 . S
C301 H300 0.961 . S
C301 H302 0.960 . S
H302 C301 0.960 . S
H303 N283 0.862 . S
O304 Co272 1.920 . S
O304 C277 1.289 . S
C305 O297 1.258 . S
C305 O298 1.266 . S
Co306 O309 1.970 . S
Co306 N323 1.989 . S
Co306 O331 1.967 . S
Co306 O338 1.920 . S
Co307 O310 1.966 . S
Co307 N316 2.022 . S
Co307 N324 1.993 . S
Co307 O332 1.941 . S
C308 O309 1.258 . S
C308 O310 1.263 . S
O309 Co306 1.970 . S
O309 C308 1.258 . S
O310 Co307 1.966 . S
O310 C308 1.263 . S
C311 O312 1.235 . S
C311 O338 1.289 . S
O312 C311 1.235 . S
C313 C315 1.400 . S
C313 N316 1.351 . S
C313 C318 1.501 . S
C314 C315 1.387 . S
C314 N317 1.341 . S
C315 C313 1.400 . S
C315 C314 1.387 . S
N316 Co307 2.022 . S
N316 C313 1.351 . S
N316 N317 1.365 . S
N317 C314 1.341 . S
N317 N316 1.365 . S
N317 H337 0.862 . S
C318 C313 1.501 . S
C318 H319 0.961 . S
C318 H320 0.961 . S
C318 H321 0.960 . S
H319 C318 0.961 . S
H320 C318 0.961 . S
H321 C318 0.960 . S
C322 N323 1.342 . S
C322 C326 1.401 . S
C322 C327 1.499 . S
N323 Co306 1.989 . S
N323 C322 1.342 . S
N323 N324 1.388 . S
N324 Co307 1.993 . S
N324 N323 1.388 . S
N324 C325 1.346 . S
C325 N324 1.346 . S
C325 C326 1.396 . S
C325 C335 1.510 . S
C326 C322 1.401 . S
C326 C325 1.396 . S
C327 C322 1.499 . S
C327 H328 0.959 . S
C327 H329 0.960 . S
C327 H330 0.961 . S
H328 C327 0.959 . S
H329 C327 0.960 . S
H330 C327 0.961 . S
O331 Co306 1.967 . S
O331 C339 1.258 . S
O332 Co307 1.941 . S
O332 C339 1.266 . S
H333 C335 0.959 . S
H334 C335 0.961 . S
C335 C325 1.510 . S
C335 H333 0.959 . S
C335 H334 0.961 . S
C335 H336 0.960 . S
H336 C335 0.960 . S
H337 N317 0.862 . S
O338 Co306 1.920 . S
O338 C311 1.289 . S
C339 O331 1.258 . S
C339 O332 1.266 . S
Co340 O343 1.970 . S
Co340 N357 1.989 . S
Co340 O365 1.967 . S
Co340 O372 1.920 . S
Co341 O344 1.966 . S
Co341 N350 2.022 . S
Co341 N358 1.993 . S
Co341 O366 1.941 . S
C342 O343 1.258 . S
C342 O344 1.263 . S
O343 Co340 1.970 . S
O343 C342 1.258 . S
O344 Co341 1.966 . S
O344 C342 1.263 . S
C345 O346 1.235 . S
C345 O372 1.289 . S
O346 C345 1.235 . S
C347 C349 1.400 . S
C347 N350 1.351 . S
C347 C352 1.501 . S
C348 C349 1.387 . S
C348 N351 1.341 . S
C349 C347 1.400 . S
C349 C348 1.387 . S
N350 Co341 2.022 . S
N350 C347 1.351 . S
N350 N351 1.365 . S
N351 C348 1.341 . S
N351 N350 1.365 . S
N351 H371 0.862 . S
C352 C347 1.501 . S
C352 H353 0.961 . S
C352 H354 0.961 . S
C352 H355 0.960 . S
H353 C352 0.961 . S
H354 C352 0.961 . S
H355 C352 0.960 . S
C356 N357 1.342 . S
C356 C360 1.401 . S
C356 C361 1.499 . S
N357 Co340 1.989 . S
N357 C356 1.342 . S
N357 N358 1.388 . S
N358 Co341 1.993 . S
N358 N357 1.388 . S
N358 C359 1.346 . S
C359 N358 1.346 . S
C359 C360 1.396 . S
C359 C369 1.510 . S
C360 C356 1.401 . S
C360 C359 1.396 . S
C361 C356 1.499 . S
C361 H362 0.959 . S
C361 H363 0.960 . S
C361 H364 0.961 . S
H362 C361 0.959 . S
H363 C361 0.960 . S
H364 C361 0.961 . S
O365 Co340 1.967 . S
O365 C373 1.258 . S
O366 Co341 1.941 . S
O366 C373 1.266 . S
H367 C369 0.959 . S
H368 C369 0.961 . S
C369 C359 1.510 . S
C369 H367 0.959 . S
C369 H368 0.961 . S
C369 H370 0.960 . S
H370 C369 0.960 . S
H371 N351 0.862 . S
O372 Co340 1.920 . S
O372 C345 1.289 . S
C373 O365 1.258 . S
C373 O366 1.266 . S
Co374 O377 1.970 . S
Co374 N391 1.989 . S
Co374 O399 1.967 . S
Co374 O406 1.920 . S
Co375 O378 1.966 . S
Co375 N384 2.022 . S
Co375 N392 1.993 . S
Co375 O400 1.941 . S
C376 O377 1.258 . S
C376 O378 1.263 . S
O377 Co374 1.970 . S
O377 C376 1.258 . S
O378 Co375 1.966 . S
O378 C376 1.263 . S
C379 O380 1.235 . S
C379 O406 1.289 . S
O380 C379 1.235 . S
C381 C383 1.400 . S
C381 N384 1.351 . S
C381 C386 1.501 . S
C382 C383 1.387 . S
C382 N385 1.341 . S
C383 C381 1.400 . S
C383 C382 1.387 . S
N384 Co375 2.022 . S
N384 C381 1.351 . S
N384 N385 1.365 . S
N385 C382 1.341 . S
N385 N384 1.365 . S
N385 H405 0.862 . S
C386 C381 1.501 . S
C386 H387 0.961 . S
C386 H388 0.961 . S
C386 H389 0.960 . S
H387 C386 0.961 . S
H388 C386 0.961 . S
H389 C386 0.960 . S
C390 N391 1.342 . S
C390 C394 1.401 . S
C390 C395 1.499 . S
N391 Co374 1.989 . S
N391 C390 1.342 . S
N391 N392 1.388 . S
N392 Co375 1.993 . S
N392 N391 1.388 . S
N392 C393 1.346 . S
C393 N392 1.346 . S
C393 C394 1.396 . S
C393 C403 1.510 . S
C394 C390 1.401 . S
C394 C393 1.396 . S
C395 C390 1.499 . S
C395 H396 0.959 . S
C395 H397 0.960 . S
C395 H398 0.961 . S
H396 C395 0.959 . S
H397 C395 0.960 . S
H398 C395 0.961 . S
O399 Co374 1.967 . S
O399 C407 1.258 . S
O400 Co375 1.941 . S
O400 C407 1.266 . S
H401 C403 0.959 . S
H402 C403 0.961 . S
C403 C393 1.510 . S
C403 H401 0.959 . S
C403 H402 0.961 . S
C403 H404 0.960 . S
H404 C403 0.960 . S
H405 N385 0.862 . S
O406 Co374 1.920 . S
O406 C379 1.289 . S
C407 O399 1.258 . S
C407 O400 1.266 . S
Co408 O411 1.970 . S
Co408 N425 1.989 . S
Co408 O433 1.967 . S
Co408 O440 1.920 . S
Co409 O412 1.966 . S
Co409 N418 2.022 . S
Co409 N426 1.993 . S
Co409 O434 1.941 . S
C410 O411 1.258 . S
C410 O412 1.263 . S
O411 Co408 1.970 . S
O411 C410 1.258 . S
O412 Co409 1.966 . S
O412 C410 1.263 . S
C413 O414 1.235 . S
C413 O440 1.289 . S
O414 C413 1.235 . S
C415 C417 1.400 . S
C415 N418 1.351 . S
C415 C420 1.501 . S
C416 C417 1.387 . S
C416 N419 1.341 . S
C417 C415 1.400 . S
C417 C416 1.387 . S
N418 Co409 2.022 . S
N418 C415 1.351 . S
N418 N419 1.365 . S
N419 C416 1.341 . S
N419 N418 1.365 . S
N419 H439 0.862 . S
C420 C415 1.501 . S
C420 H421 0.961 . S
C420 H422 0.961 . S
C420 H423 0.960 . S
H421 C420 0.961 . S
H422 C420 0.961 . S
H423 C420 0.960 . S
C424 N425 1.342 . S
C424 C428 1.401 . S
C424 C429 1.499 . S
N425 Co408 1.989 . S
N425 C424 1.342 . S
N425 N426 1.388 . S
N426 Co409 1.993 . S
N426 N425 1.388 . S
N426 C427 1.346 . S
C427 N426 1.346 . S
C427 C428 1.396 . S
C427 C437 1.510 . S
C428 C424 1.401 . S
C428 C427 1.396 . S
C429 C424 1.499 . S
C429 H430 0.959 . S
C429 H431 0.960 . S
C429 H432 0.961 . S
H430 C429 0.959 . S
H431 C429 0.960 . S
H432 C429 0.961 . S
O433 Co408 1.967 . S
O433 C441 1.258 . S
O434 Co409 1.941 . S
O434 C441 1.266 . S
H435 C437 0.959 . S
H436 C437 0.961 . S
C437 C427 1.510 . S
C437 H435 0.959 . S
C437 H436 0.961 . S
C437 H438 0.960 . S
H438 C437 0.960 . S
H439 N419 0.862 . S
O440 Co408 1.920 . S
O440 C413 1.289 . S
C441 O433 1.258 . S
C441 O434 1.266 . S
Co442 O445 1.970 . S
Co442 N459 1.989 . S
Co442 O467 1.967 . S
Co442 O474 1.920 . S
Co443 O446 1.966 . S
Co443 N452 2.022 . S
Co443 N460 1.993 . S
Co443 O468 1.941 . S
C444 O445 1.258 . S
C444 O446 1.263 . S
O445 Co442 1.970 . S
O445 C444 1.258 . S
O446 Co443 1.966 . S
O446 C444 1.263 . S
C447 O448 1.235 . S
C447 O474 1.289 . S
O448 C447 1.235 . S
C449 C451 1.400 . S
C449 N452 1.351 . S
C449 C454 1.501 . S
C450 C451 1.387 . S
C450 N453 1.341 . S
C451 C449 1.400 . S
C451 C450 1.387 . S
N452 Co443 2.022 . S
N452 C449 1.351 . S
N452 N453 1.365 . S
N453 C450 1.341 . S
N453 N452 1.365 . S
N453 H473 0.862 . S
C454 C449 1.501 . S
C454 H455 0.961 . S
C454 H456 0.961 . S
C454 H457 0.960 . S
H455 C454 0.961 . S
H456 C454 0.961 . S
H457 C454 0.960 . S
C458 N459 1.342 . S
C458 C462 1.401 . S
C458 C463 1.499 . S
N459 Co442 1.989 . S
N459 C458 1.342 . S
N459 N460 1.388 . S
N460 Co443 1.993 . S
N460 N459 1.388 . S
N460 C461 1.346 . S
C461 N460 1.346 . S
C461 C462 1.396 . S
C461 C471 1.510 . S
C462 C458 1.401 . S
C462 C461 1.396 . S
C463 C458 1.499 . S
C463 H464 0.959 . S
C463 H465 0.960 . S
C463 H466 0.961 . S
H464 C463 0.959 . S
H465 C463 0.960 . S
H466 C463 0.961 . S
O467 Co442 1.967 . S
O467 C475 1.258 . S
O468 Co443 1.941 . S
O468 C475 1.266 . S
H469 C471 0.959 . S
H470 C471 0.961 . S
C471 C461 1.510 . S
C471 H469 0.959 . S
C471 H470 0.961 . S
C471 H472 0.960 . S
H472 C471 0.960 . S
H473 N453 0.862 . S
O474 Co442 1.920 . S
O474 C447 1.289 . S
C475 O467 1.258 . S
C475 O468 1.266 . S
Co476 O479 1.970 . S
Co476 N493 1.989 . S
Co476 O501 1.967 . S
Co476 O508 1.920 . S
Co477 O480 1.966 . S
Co477 N486 2.022 . S
Co477 N494 1.993 . S
Co477 O502 1.941 . S
C478 O479 1.258 . S
C478 O480 1.263 . S
O479 Co476 1.970 . S
O479 C478 1.258 . S
O480 Co477 1.966 . S
O480 C478 1.263 . S
C481 O482 1.235 . S
C481 O508 1.289 . S
O482 C481 1.235 . S
C483 C485 1.400 . S
C483 N486 1.351 . S
C483 C488 1.501 . S
C484 C485 1.387 . S
C484 N487 1.341 . S
C485 C483 1.400 . S
C485 C484 1.387 . S
N486 Co477 2.022 . S
N486 C483 1.351 . S
N486 N487 1.365 . S
N487 C484 1.341 . S
N487 N486 1.365 . S
N487 H507 0.862 . S
C488 C483 1.501 . S
C488 H489 0.961 . S
C488 H490 0.961 . S
C488 H491 0.960 . S
H489 C488 0.961 . S
H490 C488 0.961 . S
H491 C488 0.960 . S
C492 N493 1.342 . S
C492 C496 1.401 . S
C492 C497 1.499 . S
N493 Co476 1.989 . S
N493 C492 1.342 . S
N493 N494 1.388 . S
N494 Co477 1.993 . S
N494 N493 1.388 . S
N494 C495 1.346 . S
C495 N494 1.346 . S
C495 C496 1.396 . S
C495 C505 1.510 . S
C496 C492 1.401 . S
C496 C495 1.396 . S
C497 C492 1.499 . S
C497 H498 0.959 . S
C497 H499 0.960 . S
C497 H500 0.961 . S
H498 C497 0.959 . S
H499 C497 0.960 . S
H500 C497 0.961 . S
O501 Co476 1.967 . S
O501 C509 1.258 . S
O502 Co477 1.941 . S
O502 C509 1.266 . S
H503 C505 0.959 . S
H504 C505 0.961 . S
C505 C495 1.510 . S
C505 H503 0.959 . S
C505 H504 0.961 . S
C505 H506 0.960 . S
H506 C505 0.960 . S
H507 N487 0.862 . S
O508 Co476 1.920 . S
O508 C481 1.289 . S
C509 O501 1.258 . S
C509 O502 1.266 . S
Co510 O513 1.970 . S
Co510 N527 1.989 . S
Co510 O535 1.967 . S
Co510 O542 1.920 . S
Co511 O514 1.966 . S
Co511 N520 2.022 . S
Co511 N528 1.993 . S
Co511 O536 1.941 . S
C512 O513 1.258 . S
C512 O514 1.263 . S
O513 Co510 1.970 . S
O513 C512 1.258 . S
O514 Co511 1.966 . S
O514 C512 1.263 . S
C515 O516 1.235 . S
C515 O542 1.289 . S
O516 C515 1.235 . S
C517 C519 1.400 . S
C517 N520 1.351 . S
C517 C522 1.501 . S
C518 C519 1.387 . S
C518 N521 1.341 . S
C519 C517 1.400 . S
C519 C518 1.387 . S
N520 Co511 2.022 . S
N520 C517 1.351 . S
N520 N521 1.365 . S
N521 C518 1.341 . S
N521 N520 1.365 . S
N521 H541 0.862 . S
C522 C517 1.501 . S
C522 H523 0.961 . S
C522 H524 0.961 . S
C522 H525 0.960 . S
H523 C522 0.961 . S
H524 C522 0.961 . S
H525 C522 0.960 . S
C526 N527 1.342 . S
C526 C530 1.401 . S
C526 C531 1.499 . S
N527 Co510 1.989 . S
N527 C526 1.342 . S
N527 N528 1.388 . S
N528 Co511 1.993 . S
N528 N527 1.388 . S
N528 C529 1.346 . S
C529 N528 1.346 . S
C529 C530 1.396 . S
C529 C539 1.510 . S
C530 C526 1.401 . S
C530 C529 1.396 . S
C531 C526 1.499 . S
C531 H532 0.959 . S
C531 H533 0.960 . S
C531 H534 0.961 . S
H532 C531 0.959 . S
H533 C531 0.960 . S
H534 C531 0.961 . S
O535 Co510 1.967 . S
O535 C543 1.258 . S
O536 Co511 1.941 . S
O536 C543 1.266 . S
H537 C539 0.959 . S
H538 C539 0.961 . S
C539 C529 1.510 . S
C539 H537 0.959 . S
C539 H538 0.961 . S
C539 H540 0.960 . S
H540 C539 0.960 . S
H541 N521 0.862 . S
O542 Co510 1.920 . S
O542 C515 1.289 . S
C543 O535 1.258 . S
C543 O536 1.266 . S
H544 C550 0.930 . S
H545 C554 0.930 . S
H546 C559 0.929 . S
H547 C557 0.929 . S
H548 C552 0.929 . S
H549 C558 0.929 . S
C550 H544 0.930 . S
C550 C551 1.367 . S
C550 C558 1.378 . S
C551 C550 1.367 . S
C551 C559 1.433 . S
C552 H548 0.929 . S
C552 C554 1.378 . S
C552 C556 1.350 . S
C553 C556 1.463 1_556 S
C553 C558 1.350 . S
C553 N561 1.427 . S
C554 H545 0.930 . S
C554 C552 1.378 . S
C554 C555 1.367 . S
C555 C554 1.367 . S
C555 C557 1.433 . S
C556 C552 1.350 . S
C556 C553 1.463 1_554 S
C556 N560 1.427 1_554 S
C557 H547 0.929 . S
C557 C555 1.433 . S
C557 N560 1.384 1_554 S
C558 H549 0.929 . S
C558 C550 1.378 . S
C558 C553 1.350 . S
C559 H546 0.929 . S
C559 C551 1.433 . S
C559 N561 1.384 . S
N560 C556 1.427 1_556 S
N560 C557 1.384 1_556 S
N561 C553 1.427 . S
N561 C559 1.384 . S
H562 C568 0.925 1_655 S
H563 C572 0.930 . S
H564 C577 0.929 . S
H565 C575 0.929 . S
H566 C570 0.929 . S
H567 C576 0.929 1_554 S
C568 H562 0.925 1_455 S
C568 C569 1.367 . S
C568 C576 1.378 . S
C569 C568 1.367 . S
C569 C577 1.433 . S
C570 H566 0.929 . S
C570 C572 1.378 1_556 S
C570 C574 1.350 1_556 S
C571 C574 1.463 1_556 S
C571 C576 1.350 . S
C571 N579 1.427 . S
C572 H563 0.930 . S
C572 C570 1.378 1_554 S
C572 C573 1.367 . S
C573 C572 1.367 . S
C573 C575 1.433 . S
C574 C570 1.350 1_554 S
C574 C571 1.463 1_554 S
C574 N578 1.427 . S
C575 H565 0.929 . S
C575 C573 1.433 . S
C575 N578 1.384 . S
C576 H567 0.929 1_556 S
C576 C568 1.378 . S
C576 C571 1.350 . S
C577 H564 0.929 . S
C577 C569 1.433 . S
C577 N579 1.384 . S
N578 C574 1.427 . S
N578 C575 1.384 . S
N579 C571 1.427 . S
N579 C577 1.384 . S
H580 C586 0.930 . S
H581 C590 0.930 . S
H582 C595 0.929 . S
H583 C593 0.929 . S
H584 C588 0.929 . S
H585 C594 0.929 . S
C586 H580 0.930 . S
C586 C587 1.367 . S
C586 C594 1.378 . S
C587 C586 1.367 . S
C587 C595 1.433 . S
C588 H584 0.929 . S
C588 C590 1.378 . S
C588 C592 1.350 . S
C589 C592 1.463 . S
C589 C594 1.350 . S
C589 N597 1.427 . S
C590 H581 0.930 . S
C590 C588 1.378 . S
C590 C591 1.367 . S
C591 C590 1.367 . S
C591 C593 1.433 . S
C592 C588 1.350 . S
C592 C589 1.463 . S
C592 N596 1.427 . S
C593 H583 0.929 . S
C593 C591 1.433 . S
C593 N596 1.384 . S
C594 H585 0.929 . S
C594 C586 1.378 . S
C594 C589 1.350 . S
C595 H582 0.929 . S
C595 C587 1.433 . S
C595 N597 1.384 . S
N596 C592 1.427 . S
N596 C593 1.384 . S
N597 C589 1.427 . S
N597 C595 1.384 . S
H598 C604 0.930 . S
H599 C608 0.930 . S
H600 C613 0.929 . S
H601 C611 0.929 . S
H602 C606 0.929 . S
H603 C612 0.929 . S
C604 H598 0.930 . S
C604 C605 1.367 . S
C604 C612 1.378 . S
C605 C604 1.367 . S
C605 C613 1.433 . S
C606 H602 0.929 . S
C606 C608 1.378 . S
C606 C610 1.350 . S
C607 C610 1.463 . S
C607 C612 1.350 . S
C607 N615 1.427 . S
C608 H599 0.930 . S
C608 C606 1.378 . S
C608 C609 1.367 . S
C609 C608 1.367 . S
C609 C611 1.433 . S
C610 C606 1.350 . S
C610 C607 1.463 . S
C610 N614 1.427 . S
C611 H601 0.929 . S
C611 C609 1.433 . S
C611 N614 1.384 . S
C612 H603 0.929 . S
C612 C604 1.378 . S
C612 C607 1.350 . S
C613 H600 0.929 . S
C613 C605 1.433 . S
C613 N615 1.384 . S
N614 C610 1.427 . S
N614 C611 1.384 . S
N615 C607 1.427 . S
N615 C613 1.384 . S
H616 C622 0.930 . S
H617 C626 0.930 . S
H618 C631 0.929 . S
H619 C629 0.929 . S
H620 C624 0.929 . S
H621 C630 0.929 . S
C622 H616 0.930 . S
C622 C623 1.367 . S
C622 C630 1.378 . S
C623 C622 1.367 . S
C623 C631 1.433 . S
C624 H620 0.929 . S
C624 C626 1.378 . S
C624 C628 1.350 . S
C625 C628 1.463 1_556 S
C625 C630 1.350 . S
C625 N633 1.427 1_556 S
C626 H617 0.930 . S
C626 C624 1.378 . S
C626 C627 1.367 . S
C627 C626 1.367 . S
C627 C629 1.433 . S
C628 C624 1.350 . S
C628 C625 1.463 1_554 S
C628 N632 1.427 . S
C629 H619 0.929 . S
C629 C627 1.433 . S
C629 N632 1.384 . S
C630 H621 0.929 . S
C630 C622 1.378 . S
C630 C625 1.350 . S
C631 H618 0.929 . S
C631 C623 1.433 . S
C631 N633 1.384 1_556 S
N632 C628 1.427 . S
N632 C629 1.384 . S
N633 C625 1.427 1_554 S
N633 C631 1.384 1_554 S
H634 C640 0.930 . S
H635 C644 0.930 . S
H636 C649 0.929 . S
H637 C647 0.929 . S
H638 C642 0.929 . S
H639 C648 0.929 . S
C640 H634 0.930 . S
C640 C641 1.367 . S
C640 C648 1.378 . S
C641 C640 1.367 . S
C641 C649 1.433 . S
C642 H638 0.929 . S
C642 C644 1.378 . S
C642 C646 1.350 . S
C643 C646 1.463 1_556 S
C643 C648 1.350 . S
C643 N651 1.427 1_556 S
C644 H635 0.930 . S
C644 C642 1.378 . S
C644 C645 1.367 . S
C645 C644 1.367 . S
C645 C647 1.433 . S
C646 C642 1.350 . S
C646 C643 1.463 1_554 S
C646 N650 1.427 . S
C647 H637 0.929 . S
C647 C645 1.433 . S
C647 N650 1.384 . S
C648 H639 0.929 . S
C648 C640 1.378 . S
C648 C643 1.350 . S
C649 H636 0.929 . S
C649 C641 1.433 . S
C649 N651 1.384 1_556 S
N650 C646 1.427 . S
N650 C647 1.384 . S
N651 C643 1.427 1_554 S
N651 C649 1.384 1_554 S
H652 C658 0.930 1_655 S
H653 C662 0.930 . S
H654 C667 0.929 . S
H655 C665 0.929 . S
H656 C660 0.929 . S
H657 C666 0.929 . S
C658 H652 0.930 1_455 S
C658 C659 1.367 . S
C658 C666 1.378 . S
C659 C658 1.367 . S
C659 C667 1.433 . S
C660 H656 0.929 . S
C660 C662 1.378 . S
C660 C664 1.350 . S
C661 C664 1.463 . S
C661 C666 1.350 . S
C661 N669 1.427 . S
C662 H653 0.930 . S
C662 C660 1.378 . S
C662 C663 1.367 . S
C663 C662 1.367 . S
C663 C665 1.433 . S
C664 C660 1.350 . S
C664 C661 1.463 . S
C664 N668 1.427 . S
C665 H655 0.929 . S
C665 C663 1.433 . S
C665 N668 1.384 . S
C666 H657 0.929 . S
C666 C658 1.378 . S
C666 C661 1.350 . S
C667 H654 0.929 . S
C667 C659 1.433 . S
C667 N669 1.384 . S
N668 C664 1.427 . S
N668 C665 1.384 . S
N669 C661 1.427 . S
N669 C667 1.384 . S
H670 C676 0.930 . S
H671 C680 0.930 . S
H672 C685 0.929 . S
H673 C683 0.929 . S
H674 C678 0.929 . S
H675 C684 0.929 . S
C676 H670 0.930 . S
C676 C677 1.367 . S
C676 C684 1.378 . S
C677 C676 1.367 . S
C677 C685 1.433 . S
C678 H674 0.929 . S
C678 C680 1.378 . S
C678 C682 1.350 . S
C679 C682 1.463 . S
C679 C684 1.350 . S
C679 N687 1.427 . S
C680 H671 0.930 . S
C680 C678 1.378 . S
C680 C681 1.367 . S
C681 C680 1.367 . S
C681 C683 1.433 . S
C682 C678 1.350 . S
C682 C679 1.463 . S
C682 N686 1.427 . S
C683 H673 0.929 . S
C683 C681 1.433 . S
C683 N686 1.384 . S
C684 H675 0.929 . S
C684 C676 1.378 . S
C684 C679 1.350 . S
C685 H672 0.929 . S
C685 C677 1.433 . S
C685 N687 1.384 . S
N686 C682 1.427 . S
N686 C683 1.384 . S
N687 C679 1.427 . S
N687 C685 1.384 . S
H688 C694 0.944 . S
H689 C698 0.930 1_455 S
H690 C703 0.929 . S
H691 C701 0.929 . S
H692 C696 0.929 1_554 S
H693 C702 0.929 . S
C694 H688 0.944 . S
C694 C695 1.367 . S
C694 C702 1.378 1_554 S
C695 C694 1.367 . S
C695 C703 1.433 . S
C696 H692 0.929 1_556 S
C696 C698 1.378 . S
C696 C700 1.350 . S
C697 C700 1.463 1_554 S
C697 C702 1.350 1_554 S
C697 N705 1.427 . S
C698 H689 0.930 1_655 S
C698 C696 1.378 . S
C698 C699 1.367 . S
C699 C698 1.367 . S
C699 C701 1.433 . S
C700 C696 1.350 . S
C700 C697 1.463 1_556 S
C700 N704 1.427 . S
C701 H691 0.929 . S
C701 C699 1.433 . S
C701 N704 1.384 . S
C702 H693 0.929 . S
C702 C694 1.378 1_556 S
C702 C697 1.350 1_556 S
C703 H690 0.929 . S
C703 C695 1.433 . S
C703 N705 1.384 . S
N704 C700 1.427 . S
N704 C701 1.384 . S
N705 C697 1.427 . S
N705 C703 1.384 . S
H706 C712 0.930 . S
H707 C716 0.930 . S
H708 C721 0.929 . S
H709 C719 0.929 . S
H710 C714 0.929 . S
H711 C720 0.929 . S
C712 H706 0.930 . S
C712 C713 1.367 . S
C712 C720 1.378 . S
C713 C712 1.367 . S
C713 C721 1.433 . S
C714 H710 0.929 . S
C714 C716 1.378 . S
C714 C718 1.350 . S
C715 C718 1.463 1_554 S
C715 C720 1.350 . S
C715 N723 1.427 . S
C716 H707 0.930 . S
C716 C714 1.378 . S
C716 C717 1.367 . S
C717 C716 1.367 . S
C717 C719 1.433 . S
C718 C714 1.350 . S
C718 C715 1.463 1_556 S
C718 N722 1.427 . S
C719 H709 0.929 . S
C719 C717 1.433 . S
C719 N722 1.384 . S
C720 H711 0.929 . S
C720 C712 1.378 . S
C720 C715 1.350 . S
C721 H708 0.929 . S
C721 C713 1.433 . S
C721 N723 1.384 . S
N722 C718 1.427 . S
N722 C719 1.384 . S
N723 C715 1.427 . S
N723 C721 1.384 . S
H724 C730 0.930 . S
H725 C734 0.930 . S
H726 C739 0.929 . S
H727 C737 0.929 . S
H728 C732 0.929 . S
H729 C738 0.929 . S
C730 H724 0.930 . S
C730 C731 1.367 . S
C730 C738 1.378 . S
C731 C730 1.367 . S
C731 C739 1.433 . S
C732 H728 0.929 . S
C732 C734 1.378 . S
C732 C736 1.350 . S
C733 C736 1.463 . S
C733 C738 1.350 . S
C733 N741 1.427 . S
C734 H725 0.930 . S
C734 C732 1.378 . S
C734 C735 1.367 . S
C735 C734 1.367 . S
C735 C737 1.433 . S
C736 C732 1.350 . S
C736 C733 1.463 . S
C736 N740 1.427 . S
C737 H727 0.929 . S
C737 C735 1.433 . S
C737 N740 1.384 . S
C738 H729 0.929 . S
C738 C730 1.378 . S
C738 C733 1.350 . S
C739 H726 0.929 . S
C739 C731 1.433 . S
C739 N741 1.384 . S
N740 C736 1.427 . S
N740 C737 1.384 . S
N741 C733 1.427 . S
N741 C739 1.384 . S
H742 C748 0.930 . S
H743 C752 0.930 . S
H744 C757 0.929 . S
H745 C755 0.927 1_655 S
H746 C750 0.929 . S
H747 C756 0.929 . S
C748 H742 0.930 . S
C748 C749 1.367 . S
C748 C756 1.378 . S
C749 C748 1.367 . S
C749 C757 1.433 . S
C750 H746 0.929 . S
C750 C752 1.378 . S
C750 C754 1.350 . S
C751 C754 1.463 . S
C751 C756 1.350 . S
C751 N759 1.427 . S
C752 H743 0.930 . S
C752 C750 1.378 . S
C752 C753 1.367 . S
C753 C752 1.367 . S
C753 C755 1.433 . S
C754 C750 1.350 . S
C754 C751 1.463 . S
C754 N758 1.427 . S
C755 H745 0.927 1_455 S
C755 C753 1.433 . S
C755 N758 1.384 . S
C756 H747 0.929 . S
C756 C748 1.378 . S
C756 C751 1.350 . S
C757 H744 0.929 . S
C757 C749 1.433 . S
C757 N759 1.384 . S
N758 C754 1.427 . S
N758 C755 1.384 . S
N759 C751 1.427 . S
N759 C757 1.384 . S
H760 C766 0.930 . S
H761 C770 0.930 . S
H762 C775 0.929 . S
H763 C773 0.929 1_655 S
H764 C768 0.929 . S
H765 C774 0.929 . S
C766 H760 0.930 . S
C766 C767 1.367 . S
C766 C774 1.378 . S
C767 C766 1.367 . S
C767 C775 1.433 . S
C768 H764 0.929 . S
C768 C770 1.378 . S
C768 C772 1.350 . S
C769 C772 1.463 1_556 S
C769 C774 1.350 . S
C769 N777 1.427 1_556 S
C770 H761 0.930 . S
C770 C768 1.378 . S
C770 C771 1.367 . S
C771 C770 1.367 . S
C771 C773 1.433 . S
C772 C768 1.350 . S
C772 C769 1.463 1_554 S
C772 N776 1.427 . S
C773 H763 0.929 1_455 S
C773 C771 1.433 . S
C773 N776 1.384 . S
C774 H765 0.929 . S
C774 C766 1.378 . S
C774 C769 1.350 . S
C775 H762 0.929 . S
C775 C767 1.433 . S
C775 N777 1.384 1_556 S
N776 C772 1.427 . S
N776 C773 1.384 . S
N777 C769 1.427 1_554 S
N777 C775 1.384 1_554 S
H778 C784 0.930 . S
H779 C788 0.930 . S
H780 C793 0.929 . S
H781 C791 0.929 . S
H782 C786 0.929 . S
H783 C792 0.929 . S
C784 H778 0.930 . S
C784 C785 1.367 . S
C784 C792 1.378 . S
C785 C784 1.367 . S
C785 C793 1.433 . S
C786 H782 0.929 . S
C786 C788 1.378 . S
C786 C790 1.350 . S
C787 C790 1.463 1_556 S
C787 C792 1.350 . S
C787 N795 1.427 1_556 S
C788 H779 0.930 . S
C788 C786 1.378 . S
C788 C789 1.367 . S
C789 C788 1.367 . S
C789 C791 1.433 . S
C790 C786 1.350 . S
C790 C787 1.463 1_554 S
C790 N794 1.427 . S
C791 H781 0.929 . S
C791 C789 1.433 . S
C791 N794 1.384 . S
C792 H783 0.929 . S
C792 C784 1.378 . S
C792 C787 1.350 . S
C793 H780 0.929 . S
C793 C785 1.433 . S
C793 N795 1.384 1_556 S
N794 C790 1.427 . S
N794 C791 1.384 . S
N795 C787 1.427 1_554 S
N795 C793 1.384 1_554 S
H796 C802 0.930 . S
H797 C806 0.930 . S
H798 C811 0.929 . S
H799 C809 0.929 . S
H800 C804 0.929 . S
H801 C810 0.929 . S
C802 H796 0.930 . S
C802 C803 1.367 . S
C802 C810 1.378 . S
C803 C802 1.367 . S
C803 C811 1.433 . S
C804 H800 0.929 . S
C804 C806 1.378 . S
C804 C808 1.350 . S
C805 C808 1.463 . S
C805 C810 1.350 . S
C805 N813 1.427 . S
C806 H797 0.930 . S
C806 C804 1.378 . S
C806 C807 1.367 . S
C807 C806 1.367 . S
C807 C809 1.433 . S
C808 C804 1.350 . S
C808 C805 1.463 . S
C808 N812 1.427 . S
C809 H799 0.929 . S
C809 C807 1.433 . S
C809 N812 1.384 . S
C810 H801 0.929 . S
C810 C802 1.378 . S
C810 C805 1.350 . S
C811 H798 0.929 . S
C811 C803 1.433 . S
C811 N813 1.384 . S
N812 C808 1.427 . S
N812 C809 1.384 . S
N813 C805 1.427 . S
N813 C811 1.384 . S
H814 C820 0.930 . S
H815 C824 0.930 . S
H816 C829 0.929 1_455 S
H817 C827 0.929 . S
H818 C822 0.929 . S
H819 C828 0.929 . S
C820 H814 0.930 . S
C820 C821 1.367 . S
C820 C828 1.378 . S
C821 C820 1.367 . S
C821 C829 1.433 . S
C822 H818 0.929 . S
C822 C824 1.378 . S
C822 C826 1.350 . S
C823 C826 1.463 . S
C823 C828 1.350 . S
C823 N831 1.427 . S
C824 H815 0.930 . S
C824 C822 1.378 . S
C824 C825 1.367 . S
C825 C824 1.367 . S
C825 C827 1.433 . S
C826 C822 1.350 . S
C826 C823 1.463 . S
C826 N830 1.427 . S
C827 H817 0.929 . S
C827 C825 1.433 . S
C827 N830 1.384 . S
C828 H819 0.929 . S
C828 C820 1.378 . S
C828 C823 1.350 . S
C829 H816 0.929 1_655 S
C829 C821 1.433 . S
C829 N831 1.384 . S
N830 C826 1.427 . S
N830 C827 1.384 . S
N831 C823 1.427 . S
N831 C829 1.384 . S
H832 C838 0.930 . S
H833 C842 0.930 . S
H834 C847 0.929 . S
H835 C845 0.929 . S
H836 C840 0.929 . S
H837 C846 0.929 . S
C838 H832 0.930 . S
C838 C839 1.367 . S
C838 C846 1.378 . S
C839 C838 1.367 . S
C839 C847 1.433 . S
C840 H836 0.929 . S
C840 C842 1.378 . S
C840 C844 1.350 . S
C841 C844 1.463 1_545 S
C841 C846 1.350 . S
C841 N849 1.427 . S
C842 H833 0.930 . S
C842 C840 1.378 . S
C842 C843 1.367 . S
C843 C842 1.367 . S
C843 C845 1.433 . S
C844 C840 1.350 . S
C844 C841 1.463 1_565 S
C844 N848 1.427 . S
C845 H835 0.929 . S
C845 C843 1.433 . S
C845 N848 1.384 . S
C846 H837 0.929 . S
C846 C838 1.378 . S
C846 C841 1.350 . S
C847 H834 0.929 . S
C847 C839 1.433 . S
C847 N849 1.384 . S
N848 C844 1.427 . S
N848 C845 1.384 . S
N849 C841 1.427 . S
N849 C847 1.384 . S
H850 C856 0.930 . S
H851 C860 0.930 . S
H852 C865 0.929 . S
H853 C863 0.929 . S
H854 C858 0.929 . S
H855 C864 0.929 . S
C856 H850 0.930 . S
C856 C857 1.367 . S
C856 C864 1.378 . S
C857 C856 1.367 . S
C857 C865 1.433 . S
C858 H854 0.929 . S
C858 C860 1.378 . S
C858 C862 1.350 . S
C859 C862 1.463 1_565 S
C859 C864 1.350 . S
C859 N867 1.427 . S
C860 H851 0.930 . S
C860 C858 1.378 . S
C860 C861 1.367 . S
C861 C860 1.367 . S
C861 C863 1.433 . S
C862 C858 1.350 . S
C862 C859 1.463 1_545 S
C862 N866 1.427 . S
C863 H853 0.929 . S
C863 C861 1.433 . S
C863 N866 1.384 . S
C864 H855 0.929 . S
C864 C856 1.378 . S
C864 C859 1.350 . S
C865 H852 0.929 . S
C865 C857 1.433 . S
C865 N867 1.384 . S
N866 C862 1.427 . S
N866 C863 1.384 . S
N867 C859 1.427 . S
N867 C865 1.384 . S
H868 C874 0.930 . S
H869 C878 0.930 . S
H870 C883 0.929 . S
H871 C881 0.929 . S
H872 C876 0.929 . S
H873 C882 0.929 . S
C874 H868 0.930 . S
C874 C875 1.367 . S
C874 C882 1.378 . S
C875 C874 1.367 . S
C875 C883 1.433 . S
C876 H872 0.929 . S
C876 C878 1.378 . S
C876 C880 1.350 . S
C877 C880 1.463 1_545 S
C877 C882 1.350 . S
C877 N885 1.427 . S
C878 H869 0.930 . S
C878 C876 1.378 . S
C878 C879 1.367 . S
C879 C878 1.367 . S
C879 C881 1.433 . S
C880 C876 1.350 . S
C880 C877 1.463 1_565 S
C880 N884 1.427 . S
C881 H871 0.929 . S
C881 C879 1.433 . S
C881 N884 1.384 . S
C882 H873 0.929 . S
C882 C874 1.378 . S
C882 C877 1.350 . S
C883 H870 0.929 . S
C883 C875 1.433 . S
C883 N885 1.384 . S
N884 C880 1.427 . S
N884 C881 1.384 . S
N885 C877 1.427 . S
N885 C883 1.384 . S
H886 C892 0.930 . S
H887 C896 0.930 . S
H888 C901 0.929 . S
H889 C899 0.929 . S
H890 C894 0.929 . S
H891 C900 0.929 . S
C892 H886 0.930 . S
C892 C893 1.367 . S
C892 C900 1.378 . S
C893 C892 1.367 . S
C893 C901 1.433 . S
C894 H890 0.929 . S
C894 C896 1.378 . S
C894 C898 1.350 . S
C895 C898 1.463 1_565 S
C895 C900 1.350 . S
C895 N903 1.427 . S
C896 H887 0.930 . S
C896 C894 1.378 . S
C896 C897 1.367 . S
C897 C896 1.367 . S
C897 C899 1.433 . S
C898 C894 1.350 . S
C898 C895 1.463 1_545 S
C898 N902 1.427 . S
C899 H889 0.929 . S
C899 C897 1.433 . S
C899 N902 1.384 . S
C900 H891 0.929 . S
C900 C892 1.378 . S
C900 C895 1.350 . S
C901 H888 0.929 . S
C901 C893 1.433 . S
C901 N903 1.384 . S
N902 C898 1.427 . S
N902 C899 1.384 . S
N903 C895 1.427 . S
N903 C901 1.384 . S
H904 C910 0.930 . S
H905 C914 0.930 . S
H906 C919 0.929 . S
H907 C917 0.929 . S
H908 C912 0.929 . S
H909 C918 0.929 . S
C910 H904 0.930 . S
C910 C911 1.367 . S
C910 C918 1.378 . S
C911 C910 1.367 . S
C911 C919 1.433 . S
C912 H908 0.929 . S
C912 C914 1.378 . S
C912 C916 1.350 . S
C913 C916 1.463 . S
C913 C918 1.350 . S
C913 N921 1.427 . S
C914 H905 0.930 . S
C914 C912 1.378 . S
C914 C915 1.367 . S
C915 C914 1.367 . S
C915 C917 1.433 . S
C916 C912 1.350 . S
C916 C913 1.463 . S
C916 N920 1.427 . S
C917 H907 0.929 . S
C917 C915 1.433 . S
C917 N920 1.384 . S
C918 H909 0.929 . S
C918 C910 1.378 . S
C918 C913 1.350 . S
C919 H906 0.929 . S
C919 C911 1.433 . S
C919 N921 1.384 . S
N920 C916 1.427 . S
N920 C917 1.384 . S
N921 C913 1.427 . S
N921 C919 1.384 . S
H922 C928 0.930 . S
H923 C932 0.930 . S
H924 C937 0.929 . S
H925 C935 0.929 . S
H926 C930 0.929 . S
H927 C936 0.929 . S
C928 H922 0.930 . S
C928 C929 1.367 . S
C928 C936 1.378 . S
C929 C928 1.367 . S
C929 C937 1.433 . S
C930 H926 0.929 . S
C930 C932 1.378 . S
C930 C934 1.350 . S
C931 C934 1.463 . S
C931 C936 1.350 . S
C931 N939 1.427 . S
C932 H923 0.930 . S
C932 C930 1.378 . S
C932 C933 1.367 . S
C933 C932 1.367 . S
C933 C935 1.433 . S
C934 C930 1.350 . S
C934 C931 1.463 . S
C934 N938 1.427 . S
C935 H925 0.929 . S
C935 C933 1.433 . S
C935 N938 1.384 . S
C936 H927 0.929 . S
C936 C928 1.378 . S
C936 C931 1.350 . S
C937 H924 0.929 . S
C937 C929 1.433 . S
C937 N939 1.384 . S
N938 C934 1.427 . S
N938 C935 1.384 . S
N939 C931 1.427 . S
N939 C937 1.384 . S
H940 C946 0.930 . S
H941 C950 0.930 . S
H942 C955 0.929 . S
H943 C953 0.929 . S
H944 C948 0.929 . S
H945 C954 0.929 . S
C946 H940 0.930 . S
C946 C947 1.367 . S
C946 C954 1.378 . S
C947 C946 1.367 . S
C947 C955 1.433 . S
C948 H944 0.929 . S
C948 C950 1.378 . S
C948 C952 1.350 . S
C949 C952 1.463 . S
C949 C954 1.350 . S
C949 N957 1.427 . S
C950 H941 0.930 . S
C950 C948 1.378 . S
C950 C951 1.367 . S
C951 C950 1.367 . S
C951 C953 1.433 . S
C952 C948 1.350 . S
C952 C949 1.463 . S
C952 N956 1.427 . S
C953 H943 0.929 . S
C953 C951 1.433 . S
C953 N956 1.384 . S
C954 H945 0.929 . S
C954 C946 1.378 . S
C954 C949 1.350 . S
C955 H942 0.929 . S
C955 C947 1.433 . S
C955 N957 1.384 . S
N956 C952 1.427 . S
N956 C953 1.384 . S
N957 C949 1.427 . S
N957 C955 1.384 . S
H958 C964 0.930 . S
H959 C968 0.930 . S
H960 C973 0.929 . S
H961 C971 0.929 . S
H962 C966 0.929 . S
H963 C972 0.929 . S
C964 H958 0.930 . S
C964 C965 1.367 . S
C964 C972 1.378 . S
C965 C964 1.367 . S
C965 C973 1.433 . S
C966 H962 0.929 . S
C966 C968 1.378 . S
C966 C970 1.350 . S
C967 C970 1.463 . S
C967 C972 1.350 . S
C967 N975 1.427 . S
C968 H959 0.930 . S
C968 C966 1.378 . S
C968 C969 1.367 . S
C969 C968 1.367 . S
C969 C971 1.433 . S
C970 C966 1.350 . S
C970 C967 1.463 . S
C970 N974 1.427 . S
C971 H961 0.929 . S
C971 C969 1.433 . S
C971 N974 1.384 . S
C972 H963 0.929 . S
C972 C964 1.378 . S
C972 C967 1.350 . S
C973 H960 0.929 . S
C973 C965 1.433 . S
C973 N975 1.384 . S
N974 C970 1.427 . S
N974 C971 1.384 . S
N975 C967 1.427 . S
N975 C973 1.384 . S
H976 C982 0.930 . S
H977 C986 0.930 . S
H978 C991 0.929 . S
H979 C989 0.929 . S
H980 C984 0.929 . S
H981 C990 0.929 . S
C982 H976 0.930 . S
C982 C983 1.367 . S
C982 C990 1.378 . S
C983 C982 1.367 . S
C983 C991 1.433 . S
C984 H980 0.929 . S
C984 C986 1.378 . S
C984 C988 1.350 . S
C985 C988 1.463 1_655 S
C985 C990 1.350 . S
C985 N993 1.427 . S
C986 H977 0.930 . S
C986 C984 1.378 . S
C986 C987 1.367 . S
C987 C986 1.367 . S
C987 C989 1.433 . S
C988 C984 1.350 . S
C988 C985 1.463 1_455 S
C988 N992 1.427 . S
C989 H979 0.929 . S
C989 C987 1.433 . S
C989 N992 1.384 . S
C990 H981 0.929 . S
C990 C982 1.378 . S
C990 C985 1.350 . S
C991 H978 0.929 . S
C991 C983 1.433 . S
C991 N993 1.384 . S
N992 C988 1.427 . S
N992 C989 1.384 . S
N993 C985 1.427 . S
N993 C991 1.384 . S
H994 C1000 0.930 . S
H995 C1004 0.930 . S
H996 C1009 0.929 . S
H997 C1007 0.929 . S
H998 C1002 0.929 . S
H999 C1008 0.929 . S
C1000 H994 0.930 . S
C1000 C1001 1.367 . S
C1000 C1008 1.378 . S
C1001 C1000 1.367 . S
C1001 C1009 1.433 . S
C1002 H998 0.929 . S
C1002 C1004 1.378 . S
C1002 C1006 1.350 . S
C1003 C1006 1.463 . S
C1003 C1008 1.350 . S
C1003 N1011 1.427 . S
C1004 H995 0.930 . S
C1004 C1002 1.378 . S
C1004 C1005 1.367 . S
C1005 C1004 1.367 . S
C1005 C1007 1.433 . S
C1006 C1002 1.350 . S
C1006 C1003 1.463 . S
C1006 N1010 1.427 . S
C1007 H997 0.929 . S
C1007 C1005 1.433 . S
C1007 N1010 1.384 . S
C1008 H999 0.929 . S
C1008 C1000 1.378 . S
C1008 C1003 1.350 . S
C1009 H996 0.929 . S
C1009 C1001 1.433 . S
C1009 N1011 1.384 . S
N1010 C1006 1.427 . S
N1010 C1007 1.384 . S
N1011 C1003 1.427 . S
N1011 C1009 1.384 . S
H1012 C1018 0.930 . S
H1013 C1022 0.930 . S
H1014 C1027 0.929 . S
H1015 C1025 0.929 . S
H1016 C1020 0.929 . S
H1017 C1026 0.929 . S
C1018 H1012 0.930 . S
C1018 C1019 1.367 . S
C1018 C1026 1.378 . S
C1019 C1018 1.367 . S
C1019 C1027 1.433 . S
C1020 H1016 0.929 . S
C1020 C1022 1.378 . S
C1020 C1024 1.350 . S
C1021 C1024 1.463 . S
C1021 C1026 1.350 . S
C1021 N1029 1.427 . S
C1022 H1013 0.930 . S
C1022 C1020 1.378 . S
C1022 C1023 1.367 . S
C1023 C1022 1.367 . S
C1023 C1025 1.433 . S
C1024 C1020 1.350 . S
C1024 C1021 1.463 . S
C1024 N1028 1.427 . S
C1025 H1015 0.929 . S
C1025 C1023 1.433 . S
C1025 N1028 1.384 . S
C1026 H1017 0.929 . S
C1026 C1018 1.378 . S
C1026 C1021 1.350 . S
C1027 H1014 0.929 . S
C1027 C1019 1.433 . S
C1027 N1029 1.384 . S
N1028 C1024 1.427 . S
N1028 C1025 1.384 . S
N1029 C1021 1.427 . S
N1029 C1027 1.384 . S
H1030 C1036 0.930 . S
H1031 C1040 0.930 . S
H1032 C1045 0.929 . S
H1033 C1043 0.929 . S
H1034 C1038 0.929 1_455 S
H1035 C1044 0.929 1_655 S
C1036 H1030 0.930 . S
C1036 C1037 1.367 . S
C1036 C1044 1.378 . S
C1037 C1036 1.367 . S
C1037 C1045 1.433 . S
C1038 H1034 0.929 1_655 S
C1038 C1040 1.378 . S
C1038 C1042 1.350 . S
C1039 C1042 1.463 1_455 S
C1039 C1044 1.350 . S
C1039 N1047 1.427 . S
C1040 H1031 0.930 . S
C1040 C1038 1.378 . S
C1040 C1041 1.367 . S
C1041 C1040 1.367 . S
C1041 C1043 1.433 . S
C1042 C1038 1.350 . S
C1042 C1039 1.463 1_655 S
C1042 N1046 1.427 . S
C1043 H1033 0.929 . S
C1043 C1041 1.433 . S
C1043 N1046 1.384 . S
C1044 H1035 0.929 1_455 S
C1044 C1036 1.378 . S
C1044 C1039 1.350 . S
C1045 H1032 0.929 . S
C1045 C1037 1.433 . S
C1045 N1047 1.384 . S
N1046 C1042 1.427 . S
N1046 C1043 1.384 . S
N1047 C1039 1.427 . S
N1047 C1045 1.384 . S
H1048 C1054 0.930 . S
H1049 C1058 0.930 . S
H1050 C1063 0.929 . S
H1051 C1061 0.929 . S
H1052 C1056 0.929 1_655 S
H1053 C1062 0.929 1_455 S
C1054 H1048 0.930 . S
C1054 C1055 1.367 . S
C1054 C1062 1.378 . S
C1055 C1054 1.367 . S
C1055 C1063 1.433 . S
C1056 H1052 0.929 1_455 S
C1056 C1058 1.378 . S
C1056 C1060 1.350 . S
C1057 C1060 1.463 1_655 S
C1057 C1062 1.350 . S
C1057 N1065 1.427 . S
C1058 H1049 0.930 . S
C1058 C1056 1.378 . S
C1058 C1059 1.367 . S
C1059 C1058 1.367 . S
C1059 C1061 1.433 . S
C1060 C1056 1.350 . S
C1060 C1057 1.463 1_455 S
C1060 N1064 1.427 . S
C1061 H1051 0.929 . S
C1061 C1059 1.433 . S
C1061 N1064 1.384 . S
C1062 H1053 0.929 1_655 S
C1062 C1054 1.378 . S
C1062 C1057 1.350 . S
C1063 H1050 0.929 . S
C1063 C1055 1.433 . S
C1063 N1065 1.384 . S
N1064 C1060 1.427 . S
N1064 C1061 1.384 . S
N1065 C1057 1.427 . S
N1065 C1063 1.384 . S
H1066 C1072 0.930 . S
H1067 C1076 0.930 . S
H1068 C1081 0.929 . S
H1069 C1079 0.929 . S
H1070 C1074 0.929 . S
H1071 C1080 0.929 . S
C1072 H1066 0.930 . S
C1072 C1073 1.367 . S
C1072 C1080 1.378 . S
C1073 C1072 1.367 . S
C1073 C1081 1.433 . S
C1074 H1070 0.929 . S
C1074 C1076 1.378 . S
C1074 C1078 1.350 . S
C1075 C1078 1.463 . S
C1075 C1080 1.350 . S
C1075 N1083 1.427 . S
C1076 H1067 0.930 . S
C1076 C1074 1.378 . S
C1076 C1077 1.367 . S
C1077 C1076 1.367 . S
C1077 C1079 1.433 . S
C1078 C1074 1.350 . S
C1078 C1075 1.463 . S
C1078 N1082 1.427 . S
C1079 H1069 0.929 . S
C1079 C1077 1.433 . S
C1079 N1082 1.384 . S
C1080 H1071 0.929 . S
C1080 C1072 1.378 . S
C1080 C1075 1.350 . S
C1081 H1068 0.929 . S
C1081 C1073 1.433 . S
C1081 N1083 1.384 . S
N1082 C1078 1.427 . S
N1082 C1079 1.384 . S
N1083 C1075 1.427 . S
N1083 C1081 1.384 . S
H1084 C1090 0.930 . S
H1085 C1094 0.930 . S
H1086 C1099 0.929 . S
H1087 C1097 0.929 . S
H1088 C1092 0.929 . S
H1089 C1098 0.929 . S
C1090 H1084 0.930 . S
C1090 C1091 1.367 . S
C1090 C1098 1.378 . S
C1091 C1090 1.367 . S
C1091 C1099 1.433 . S
C1092 H1088 0.929 . S
C1092 C1094 1.378 . S
C1092 C1096 1.350 . S
C1093 C1096 1.463 . S
C1093 C1098 1.350 . S
C1093 N1101 1.427 . S
C1094 H1085 0.930 . S
C1094 C1092 1.378 . S
C1094 C1095 1.367 . S
C1095 C1094 1.367 . S
C1095 C1097 1.433 . S
C1096 C1092 1.350 . S
C1096 C1093 1.463 . S
C1096 N1100 1.427 . S
C1097 H1087 0.929 . S
C1097 C1095 1.433 . S
C1097 N1100 1.384 . S
C1098 H1089 0.929 . S
C1098 C1090 1.378 . S
C1098 C1093 1.350 . S
C1099 H1086 0.929 . S
C1099 C1091 1.433 . S
C1099 N1101 1.384 . S
N1100 C1096 1.427 . S
N1100 C1097 1.384 . S
N1101 C1093 1.427 . S
N1101 C1099 1.384 . S
H1102 C1108 0.930 . S
H1103 C1112 0.930 . S
H1104 C1117 0.929 . S
H1105 C1115 0.929 . S
H1106 C1110 0.929 . S
H1107 C1116 0.929 . S
C1108 H1102 0.930 . S
C1108 C1109 1.367 . S
C1108 C1116 1.378 1_655 S
C1109 C1108 1.367 . S
C1109 C1117 1.433 . S
C1110 H1106 0.929 . S
C1110 C1112 1.378 1_655 S
C1110 C1114 1.350 1_655 S
C1111 C1114 1.463 1_655 S
C1111 C1116 1.350 1_655 S
C1111 N1119 1.427 . S
C1112 H1103 0.930 . S
C1112 C1110 1.378 1_455 S
C1112 C1113 1.367 . S
C1113 C1112 1.367 . S
C1113 C1115 1.433 . S
C1114 C1110 1.350 1_455 S
C1114 C1111 1.463 1_455 S
C1114 N1118 1.427 . S
C1115 H1105 0.929 . S
C1115 C1113 1.433 . S
C1115 N1118 1.384 . S
C1116 H1107 0.929 . S
C1116 C1108 1.378 1_455 S
C1116 C1111 1.350 1_455 S
C1117 H1104 0.929 . S
C1117 C1109 1.433 . S
C1117 N1119 1.384 . S
N1118 C1114 1.427 . S
N1118 C1115 1.384 . S
N1119 C1111 1.427 . S
N1119 C1117 1.384 . S
H1120 C1126 0.930 . S
H1121 C1130 0.930 . S
H1122 C1135 0.929 . S
H1123 C1133 0.929 . S
H1124 C1128 0.929 . S
H1125 C1134 0.929 . S
C1126 H1120 0.930 . S
C1126 C1127 1.367 . S
C1126 C1134 1.378 . S
C1127 C1126 1.367 . S
C1127 C1135 1.433 . S
C1128 H1124 0.929 . S
C1128 C1130 1.378 . S
C1128 C1132 1.350 . S
C1129 C1132 1.463 1_455 S
C1129 C1134 1.350 . S
C1129 N1137 1.427 . S
C1130 H1121 0.930 . S
C1130 C1128 1.378 . S
C1130 C1131 1.367 . S
C1131 C1130 1.367 . S
C1131 C1133 1.433 . S
C1132 C1128 1.350 . S
C1132 C1129 1.463 1_655 S
C1132 N1136 1.427 . S
C1133 H1123 0.929 . S
C1133 C1131 1.433 . S
C1133 N1136 1.384 . S
C1134 H1125 0.929 . S
C1134 C1126 1.378 . S
C1134 C1129 1.350 . S
C1135 H1122 0.929 . S
C1135 C1127 1.433 . S
C1135 N1137 1.384 . S
N1136 C1132 1.427 . S
N1136 C1133 1.384 . S
N1137 C1129 1.427 . S
N1137 C1135 1.384 . S
H1138 C1144 0.930 . S
H1139 C1148 0.930 . S
H1140 C1153 0.929 . S
H1141 C1151 0.929 . S
H1142 C1146 0.929 . S
H1143 C1152 0.929 . S
C1144 H1138 0.930 . S
C1144 C1145 1.367 . S
C1144 C1152 1.378 . S
C1145 C1144 1.367 . S
C1145 C1153 1.433 . S
C1146 H1142 0.929 . S
C1146 C1148 1.378 . S
C1146 C1150 1.350 . S
C1147 C1150 1.463 . S
C1147 C1152 1.350 . S
C1147 N1155 1.427 . S
C1148 H1139 0.930 . S
C1148 C1146 1.378 . S
C1148 C1149 1.367 . S
C1149 C1148 1.367 . S
C1149 C1151 1.433 . S
C1150 C1146 1.350 . S
C1150 C1147 1.463 . S
C1150 N1154 1.427 . S
C1151 H1141 0.929 . S
C1151 C1149 1.433 . S
C1151 N1154 1.384 . S
C1152 H1143 0.929 . S
C1152 C1144 1.378 . S
C1152 C1147 1.350 . S
C1153 H1140 0.929 . S
C1153 C1145 1.433 . S
C1153 N1155 1.384 . S
N1154 C1150 1.427 . S
N1154 C1151 1.384 . S
N1155 C1147 1.427 . S
N1155 C1153 1.384 . S
H1156 C1162 0.930 . S
H1157 C1166 0.930 . S
H1158 C1171 0.929 . S
H1159 C1169 0.929 . S
H1160 C1164 0.929 . S
H1161 C1170 0.929 . S
C1162 H1156 0.930 . S
C1162 C1163 1.367 . S
C1162 C1170 1.378 . S
C1163 C1162 1.367 . S
C1163 C1171 1.433 1_655 S
C1164 H1160 0.929 . S
C1164 C1166 1.378 . S
C1164 C1168 1.350 . S
C1165 C1168 1.463 1_655 S
C1165 C1170 1.350 . S
C1165 N1173 1.427 1_655 S
C1166 H1157 0.930 . S
C1166 C1164 1.378 . S
C1166 C1167 1.367 . S
C1167 C1166 1.367 . S
C1167 C1169 1.433 1_455 S
C1168 C1164 1.350 . S
C1168 C1165 1.463 1_455 S
C1168 N1172 1.427 1_455 S
C1169 H1159 0.929 . S
C1169 C1167 1.433 1_655 S
C1169 N1172 1.384 . S
C1170 H1161 0.929 . S
C1170 C1162 1.378 . S
C1170 C1165 1.350 . S
C1171 H1158 0.929 . S
C1171 C1163 1.433 1_455 S
C1171 N1173 1.384 . S
N1172 C1168 1.427 1_655 S
N1172 C1169 1.384 . S
N1173 C1165 1.427 1_455 S
N1173 C1171 1.384 . S
H1174 C1180 0.930 . S
H1175 C1184 0.930 . S
H1176 C1189 0.929 . S
H1177 C1187 0.929 . S
H1178 C1182 0.929 . S
H1179 C1188 0.929 . S
C1180 H1174 0.930 . S
C1180 C1181 1.367 . S
C1180 C1188 1.378 . S
C1181 C1180 1.367 . S
C1181 C1189 1.433 . S
C1182 H1178 0.929 . S
C1182 C1184 1.378 . S
C1182 C1186 1.350 . S
C1183 C1186 1.463 . S
C1183 C1188 1.350 . S
C1183 N1191 1.427 . S
C1184 H1175 0.930 . S
C1184 C1182 1.378 . S
C1184 C1185 1.367 . S
C1185 C1184 1.367 . S
C1185 C1187 1.433 . S
C1186 C1182 1.350 . S
C1186 C1183 1.463 . S
C1186 N1190 1.427 . S
C1187 H1177 0.929 . S
C1187 C1185 1.433 . S
C1187 N1190 1.384 . S
C1188 H1179 0.929 . S
C1188 C1180 1.378 . S
C1188 C1183 1.350 . S
C1189 H1176 0.929 . S
C1189 C1181 1.433 . S
C1189 N1191 1.384 . S
N1190 C1186 1.427 . S
N1190 C1187 1.384 . S
N1191 C1183 1.427 . S
N1191 C1189 1.384 . S
H1192 C1198 0.930 . S
H1193 C1202 0.930 . S
H1194 C1207 0.929 . S
H1195 C1205 0.929 . S
H1196 C1200 0.929 . S
H1197 C1206 0.929 . S
C1198 H1192 0.930 . S
C1198 C1199 1.367 . S
C1198 C1206 1.378 . S
C1199 C1198 1.367 . S
C1199 C1207 1.433 . S
C1200 H1196 0.929 . S
C1200 C1202 1.378 . S
C1200 C1204 1.350 . S
C1201 C1204 1.463 . S
C1201 C1206 1.350 . S
C1201 N1209 1.427 . S
C1202 H1193 0.930 . S
C1202 C1200 1.378 . S
C1202 C1203 1.367 . S
C1203 C1202 1.367 . S
C1203 C1205 1.433 . S
C1204 C1200 1.350 . S
C1204 C1201 1.463 . S
C1204 N1208 1.427 . S
C1205 H1195 0.929 . S
C1205 C1203 1.433 . S
C1205 N1208 1.384 . S
C1206 H1197 0.929 . S
C1206 C1198 1.378 . S
C1206 C1201 1.350 . S
C1207 H1194 0.929 . S
C1207 C1199 1.433 . S
C1207 N1209 1.384 . S
N1208 C1204 1.427 . S
N1208 C1205 1.384 . S
N1209 C1201 1.427 . S
N1209 C1207 1.384 . S
H1210 C1216 0.930 . S
H1211 C1220 0.930 . S
H1212 C1225 0.929 . S
H1213 C1223 0.929 . S
H1214 C1218 0.929 . S
H1215 C1224 0.929 . S
C1216 H1210 0.930 . S
C1216 C1217 1.367 . S
C1216 C1224 1.378 . S
C1217 C1216 1.367 . S
C1217 C1225 1.433 1_455 S
C1218 H1214 0.929 . S
C1218 C1220 1.378 . S
C1218 C1222 1.350 . S
C1219 C1222 1.463 1_455 S
C1219 C1224 1.350 . S
C1219 N1227 1.427 1_455 S
C1220 H1211 0.930 . S
C1220 C1218 1.378 . S
C1220 C1221 1.367 . S
C1221 C1220 1.367 . S
C1221 C1223 1.433 1_655 S
C1222 C1218 1.350 . S
C1222 C1219 1.463 1_655 S
C1222 N1226 1.427 1_655 S
C1223 H1213 0.929 . S
C1223 C1221 1.433 1_455 S
C1223 N1226 1.384 . S
C1224 H1215 0.929 . S
C1224 C1216 1.378 . S
C1224 C1219 1.350 . S
C1225 H1212 0.929 . S
C1225 C1217 1.433 1_655 S
C1225 N1227 1.384 . S
N1226 C1222 1.427 1_455 S
N1226 C1223 1.384 . S
N1227 C1219 1.427 1_655 S
N1227 C1225 1.384 . S
H1228 C1234 0.930 . S
H1229 C1238 0.930 . S
H1230 C1243 0.929 . S
H1231 C1241 0.929 . S
H1232 C1236 0.929 . S
H1233 C1242 0.929 . S
C1234 H1228 0.930 . S
C1234 C1235 1.367 . S
C1234 C1242 1.378 . S
C1235 C1234 1.367 . S
C1235 C1243 1.433 . S
C1236 H1232 0.929 . S
C1236 C1238 1.378 . S
C1236 C1240 1.350 . S
C1237 C1240 1.463 . S
C1237 C1242 1.350 . S
C1237 N1245 1.427 . S
C1238 H1229 0.930 . S
C1238 C1236 1.378 . S
C1238 C1239 1.367 . S
C1239 C1238 1.367 . S
C1239 C1241 1.433 . S
C1240 C1236 1.350 . S
C1240 C1237 1.463 . S
C1240 N1244 1.427 . S
C1241 H1231 0.929 . S
C1241 C1239 1.433 . S
C1241 N1244 1.384 . S
C1242 H1233 0.929 . S
C1242 C1234 1.378 . S
C1242 C1237 1.350 . S
C1243 H1230 0.929 . S
C1243 C1235 1.433 . S
C1243 N1245 1.384 . S
N1244 C1240 1.427 . S
N1244 C1241 1.384 . S
N1245 C1237 1.427 . S
N1245 C1243 1.384 . S
H1246 C1252 0.930 . S
H1247 C1256 0.930 . S
H1248 C1261 0.929 . S
H1249 C1259 0.929 . S
H1250 C1254 0.928 1_455 S
H1251 C1260 0.928 1_655 S
C1252 H1246 0.930 . S
C1252 C1253 1.367 . S
C1252 C1260 1.378 . S
C1253 C1252 1.367 . S
C1253 C1261 1.433 . S
C1254 H1250 0.928 1_655 S
C1254 C1256 1.378 . S
C1254 C1258 1.350 . S
C1255 C1258 1.463 1_455 S
C1255 C1260 1.350 . S
C1255 N1263 1.427 . S
C1256 H1247 0.930 . S
C1256 C1254 1.378 . S
C1256 C1257 1.367 . S
C1257 C1256 1.367 . S
C1257 C1259 1.433 . S
C1258 C1254 1.350 . S
C1258 C1255 1.463 1_655 S
C1258 N1262 1.427 . S
C1259 H1249 0.929 . S
C1259 C1257 1.433 . S
C1259 N1262 1.384 . S
C1260 H1251 0.928 1_455 S
C1260 C1252 1.378 . S
C1260 C1255 1.350 . S
C1261 H1248 0.929 . S
C1261 C1253 1.433 . S
C1261 N1263 1.384 . S
N1262 C1258 1.427 . S
N1262 C1259 1.384 . S
N1263 C1255 1.427 . S
N1263 C1261 1.384 . S
C551 C203 1.132 . S
C555 C20 1.129 . S
C569 C169 1.133 1_455 S
C573 C54 1.133 . S
C587 C88 1.128 . S
C591 C271 1.130 1_655 S
C605 C122 1.136 . S
C609 C237 1.136 . S
C623 C156 1.135 . S
C627 C67 1.137 . S
C641 C190 1.129 . S
C645 C33 1.132 1_655 S
C659 C135 1.130 1_455 S
C663 C224 1.129 . S
C677 C258 1.128 . S
C681 C101 1.131 . S
C695 C292 1.132 . S
C699 C475 1.132 1_655 S
C713 C326 1.128 . S
C717 C441 1.131 . S
C731 C360 1.136 . S
C735 C543 1.137 . S
C749 C394 1.135 . S
C753 C509 1.137 1_455 S
C767 C428 1.133 . S
C771 C339 1.136 1_455 S
C785 C462 1.129 . S
C789 C305 1.132 . S
C803 C407 1.130 . S
C807 C496 1.128 . S
C821 C373 1.137 1_655 S
C825 C530 1.135 . S
C839 C9 1.450 . S
C843 C43 1.442 . S
C857 C77 1.456 . S
C861 C111 1.443 . S
C875 C179 1.456 . S
C879 C145 1.442 . S
C893 C247 1.443 . S
C897 C213 1.456 . S
C911 C315 1.456 . S
C915 C281 1.440 . S
C929 C383 1.444 . S
C933 C349 1.455 . S
C947 C417 1.456 . S
C951 C451 1.440 . S
C965 C485 1.456 . S
C969 C519 1.440 . S
C983 C311 1.608 . S
C987 C5 1.604 . S
C1001 C39 1.605 . S
C1005 C277 1.602 . S
C1019 C73 1.605 . S
C1023 C379 1.602 . S
C1037 C345 1.606 . S
C1041 C107 1.602 . S
C1055 C141 1.602 . S
C1059 C447 1.606 . S
C1073 C175 1.604 . S
C1077 C413 1.608 . S
C1091 C209 1.608 . S
C1095 C515 1.603 . S
C1109 C481 1.602 . S
C1113 C243 1.604 . S
C1127 C2 1.399 . S
C1131 C104 1.403 . S
C1145 C36 1.402 . S
C1149 C70 1.399 . S
C1163 C138 1.400 . S
C1167 C240 1.400 . S
C1181 C172 1.403 . S
C1185 C206 1.400 . S
C1199 C376 1.402 . S
C1203 C274 1.399 . S
C1217 C342 1.401 . S
C1221 C308 1.399 . S
C1235 C410 1.401 . S
C1239 C512 1.402 . S
C1253 C444 1.403 . S
C1257 C478 1.400 . S
