# Generated by pormake.
# Topology wir, (6)-cn, num edge types: 1
# Building blocks:
#     Node 0, Type 0, BuildingBlock: BETFEN_clean_sbu_0, # of connection points: 6
#     Node 1, Type 0, BuildingBlock: BETFEN_clean_sbu_0, # of connection points: 6
#     Node 2, Type 0, BuildingBlock: BETFEN_clean_sbu_0, # of connection points: 6
#     Node 3, Type 0, BuildingBlock: BETFEN_clean_sbu_0, # of connection points: 6
#     Node 4, Type 0, BuildingBlock: BETFEN_clean_sbu_0, # of connection points: 6
#     Node 5, Type 0, BuildingBlock: BETFEN_clean_sbu_0, # of connection points: 6
#     Node 6, Type 0, BuildingBlock: BETFEN_clean_sbu_0, # of connection points: 6
#     Node 7, Type 0, BuildingBlock: BETFEN_clean_sbu_0, # of connection points: 6
#     Node 8, Type 0, BuildingBlock: BETFEN_clean_sbu_0, # of connection points: 6
#     Node 9, Type 0, BuildingBlock: BETFEN_clean_sbu_0, # of connection points: 6
#     Node 10, Type 0, BuildingBlock: BETFEN_clean_sbu_0, # of connection points: 6
#     Node 11, Type 0, BuildingBlock: BETFEN_clean_sbu_0, # of connection points: 6
#     Node 12, Type 0, BuildingBlock: BETFEN_clean_sbu_0, # of connection points: 6
#     Node 13, Type 0, BuildingBlock: BETFEN_clean_sbu_0, # of connection points: 6
#     Node 14, Type 0, BuildingBlock: BETFEN_clean_sbu_0, # of connection points: 6
#     Node 15, Type 0, BuildingBlock: BETFEN_clean_sbu_0, # of connection points: 6
#     Node 16, Type 0, BuildingBlock: BETFEN_clean_sbu_0, # of connection points: 6
#     Node 17, Type 0, BuildingBlock: BETFEN_clean_sbu_0, # of connection points: 6
#     Node 18, Type 0, BuildingBlock: BETFEN_clean_sbu_0, # of connection points: 6
#     Node 19, Type 0, BuildingBlock: BETFEN_clean_sbu_0, # of connection points: 6
#     Node 20, Type 0, BuildingBlock: BETFEN_clean_sbu_0, # of connection points: 6
#     Node 21, Type 0, BuildingBlock: BETFEN_clean_sbu_0, # of connection points: 6
#     Node 22, Type 0, BuildingBlock: BETFEN_clean_sbu_0, # of connection points: 6
#     Node 23, Type 0, BuildingBlock: BETFEN_clean_sbu_0, # of connection points: 6
#     Node 24, Type 0, BuildingBlock: BETFEN_clean_sbu_0, # of connection points: 6
#     Node 25, Type 0, BuildingBlock: BETFEN_clean_sbu_0, # of connection points: 6
#     Node 26, Type 0, BuildingBlock: BETFEN_clean_sbu_0, # of connection points: 6
#     Node 27, Type 0, BuildingBlock: BETFEN_clean_sbu_0, # of connection points: 6
#     Node 28, Type 0, BuildingBlock: BETFEN_clean_sbu_0, # of connection points: 6
#     Node 29, Type 0, BuildingBlock: BETFEN_clean_sbu_0, # of connection points: 6
#     Node 30, Type 0, BuildingBlock: BETFEN_clean_sbu_0, # of connection points: 6
#     Node 31, Type 0, BuildingBlock: BETFEN_clean_sbu_0, # of connection points: 6
#     Edge 32, Type (0, 0), BuildingBlock: XIVTED_clean_linker_0, # of connection points: 2
#     Edge 33, Type (0, 0), BuildingBlock: XIVTED_clean_linker_0, # of connection points: 2
#     Edge 34, Type (0, 0), BuildingBlock: XIVTED_clean_linker_0, # of connection points: 2
#     Edge 35, Type (0, 0), BuildingBlock: XIVTED_clean_linker_0, # of connection points: 2
#     Edge 36, Type (0, 0), BuildingBlock: XIVTED_clean_linker_0, # of connection points: 2
#     Edge 37, Type (0, 0), BuildingBlock: XIVTED_clean_linker_0, # of connection points: 2
#     Edge 38, Type (0, 0), BuildingBlock: XIVTED_clean_linker_0, # of connection points: 2
#     Edge 39, Type (0, 0), BuildingBlock: XIVTED_clean_linker_0, # of connection points: 2
#     Edge 40, Type (0, 0), BuildingBlock: XIVTED_clean_linker_0, # of connection points: 2
#     Edge 41, Type (0, 0), BuildingBlock: XIVTED_clean_linker_0, # of connection points: 2
#     Edge 42, Type (0, 0), BuildingBlock: XIVTED_clean_linker_0, # of connection points: 2
#     Edge 43, Type (0, 0), BuildingBlock: XIVTED_clean_linker_0, # of connection points: 2
#     Edge 44, Type (0, 0), BuildingBlock: XIVTED_clean_linker_0, # of connection points: 2
#     Edge 45, Type (0, 0), BuildingBlock: XIVTED_clean_linker_0, # of connection points: 2
#     Edge 46, Type (0, 0), BuildingBlock: XIVTED_clean_linker_0, # of connection points: 2
#     Edge 47, Type (0, 0), BuildingBlock: XIVTED_clean_linker_0, # of connection points: 2
#     Edge 48, Type (0, 0), BuildingBlock: XIVTED_clean_linker_0, # of connection points: 2
#     Edge 49, Type (0, 0), BuildingBlock: XIVTED_clean_linker_0, # of connection points: 2
#     Edge 50, Type (0, 0), BuildingBlock: XIVTED_clean_linker_0, # of connection points: 2
#     Edge 51, Type (0, 0), BuildingBlock: XIVTED_clean_linker_0, # of connection points: 2
#     Edge 52, Type (0, 0), BuildingBlock: XIVTED_clean_linker_0, # of connection points: 2
#     Edge 53, Type (0, 0), BuildingBlock: XIVTED_clean_linker_0, # of connection points: 2
#     Edge 54, Type (0, 0), BuildingBlock: XIVTED_clean_linker_0, # of connection points: 2
#     Edge 55, Type (0, 0), BuildingBlock: XIVTED_clean_linker_0, # of connection points: 2
#     Edge 56, Type (0, 0), BuildingBlock: XIVTED_clean_linker_0, # of connection points: 2
#     Edge 57, Type (0, 0), BuildingBlock: XIVTED_clean_linker_0, # of connection points: 2
#     Edge 58, Type (0, 0), BuildingBlock: XIVTED_clean_linker_0, # of connection points: 2
#     Edge 59, Type (0, 0), BuildingBlock: XIVTED_clean_linker_0, # of connection points: 2
#     Edge 60, Type (0, 0), BuildingBlock: XIVTED_clean_linker_0, # of connection points: 2
#     Edge 61, Type (0, 0), BuildingBlock: XIVTED_clean_linker_0, # of connection points: 2
#     Edge 62, Type (0, 0), BuildingBlock: XIVTED_clean_linker_0, # of connection points: 2
#     Edge 63, Type (0, 0), BuildingBlock: XIVTED_clean_linker_0, # of connection points: 2
#     Edge 64, Type (0, 0), BuildingBlock: XIVTED_clean_linker_0, # of connection points: 2
#     Edge 65, Type (0, 0), BuildingBlock: XIVTED_clean_linker_0, # of connection points: 2
#     Edge 66, Type (0, 0), BuildingBlock: XIVTED_clean_linker_0, # of connection points: 2
#     Edge 67, Type (0, 0), BuildingBlock: XIVTED_clean_linker_0, # of connection points: 2
#     Edge 68, Type (0, 0), BuildingBlock: XIVTED_clean_linker_0, # of connection points: 2
#     Edge 69, Type (0, 0), BuildingBlock: XIVTED_clean_linker_0, # of connection points: 2
#     Edge 70, Type (0, 0), BuildingBlock: XIVTED_clean_linker_0, # of connection points: 2
#     Edge 71, Type (0, 0), BuildingBlock: XIVTED_clean_linker_0, # of connection points: 2
#     Edge 72, Type (0, 0), BuildingBlock: XIVTED_clean_linker_0, # of connection points: 2
#     Edge 73, Type (0, 0), BuildingBlock: XIVTED_clean_linker_0, # of connection points: 2
#     Edge 74, Type (0, 0), BuildingBlock: XIVTED_clean_linker_0, # of connection points: 2
#     Edge 75, Type (0, 0), BuildingBlock: XIVTED_clean_linker_0, # of connection points: 2
#     Edge 76, Type (0, 0), BuildingBlock: XIVTED_clean_linker_0, # of connection points: 2
#     Edge 77, Type (0, 0), BuildingBlock: XIVTED_clean_linker_0, # of connection points: 2
#     Edge 78, Type (0, 0), BuildingBlock: XIVTED_clean_linker_0, # of connection points: 2
#     Edge 79, Type (0, 0), BuildingBlock: XIVTED_clean_linker_0, # of connection points: 2
#     Edge 80, Type (0, 0), BuildingBlock: XIVTED_clean_linker_0, # of connection points: 2
#     Edge 81, Type (0, 0), BuildingBlock: XIVTED_clean_linker_0, # of connection points: 2
#     Edge 82, Type (0, 0), BuildingBlock: XIVTED_clean_linker_0, # of connection points: 2
#     Edge 83, Type (0, 0), BuildingBlock: XIVTED_clean_linker_0, # of connection points: 2
#     Edge 84, Type (0, 0), BuildingBlock: XIVTED_clean_linker_0, # of connection points: 2
#     Edge 85, Type (0, 0), BuildingBlock: XIVTED_clean_linker_0, # of connection points: 2
#     Edge 86, Type (0, 0), BuildingBlock: XIVTED_clean_linker_0, # of connection points: 2
#     Edge 87, Type (0, 0), BuildingBlock: XIVTED_clean_linker_0, # of connection points: 2
#     Edge 88, Type (0, 0), BuildingBlock: XIVTED_clean_linker_0, # of connection points: 2
#     Edge 89, Type (0, 0), BuildingBlock: XIVTED_clean_linker_0, # of connection points: 2
#     Edge 90, Type (0, 0), BuildingBlock: XIVTED_clean_linker_0, # of connection points: 2
#     Edge 91, Type (0, 0), BuildingBlock: XIVTED_clean_linker_0, # of connection points: 2
#     Edge 92, Type (0, 0), BuildingBlock: XIVTED_clean_linker_0, # of connection points: 2
#     Edge 93, Type (0, 0), BuildingBlock: XIVTED_clean_linker_0, # of connection points: 2
#     Edge 94, Type (0, 0), BuildingBlock: XIVTED_clean_linker_0, # of connection points: 2
#     Edge 95, Type (0, 0), BuildingBlock: XIVTED_clean_linker_0, # of connection points: 2
#     Edge 96, Type (0, 0), BuildingBlock: XIVTED_clean_linker_0, # of connection points: 2
#     Edge 97, Type (0, 0), BuildingBlock: XIVTED_clean_linker_0, # of connection points: 2
#     Edge 98, Type (0, 0), BuildingBlock: XIVTED_clean_linker_0, # of connection points: 2
#     Edge 99, Type (0, 0), BuildingBlock: XIVTED_clean_linker_0, # of connection points: 2
#     Edge 100, Type (0, 0), BuildingBlock: XIVTED_clean_linker_0, # of connection points: 2
#     Edge 101, Type (0, 0), BuildingBlock: XIVTED_clean_linker_0, # of connection points: 2
#     Edge 102, Type (0, 0), BuildingBlock: XIVTED_clean_linker_0, # of connection points: 2
#     Edge 103, Type (0, 0), BuildingBlock: XIVTED_clean_linker_0, # of connection points: 2
#     Edge 104, Type (0, 0), BuildingBlock: XIVTED_clean_linker_0, # of connection points: 2
#     Edge 105, Type (0, 0), BuildingBlock: XIVTED_clean_linker_0, # of connection points: 2
#     Edge 106, Type (0, 0), BuildingBlock: XIVTED_clean_linker_0, # of connection points: 2
#     Edge 107, Type (0, 0), BuildingBlock: XIVTED_clean_linker_0, # of connection points: 2
#     Edge 108, Type (0, 0), BuildingBlock: XIVTED_clean_linker_0, # of connection points: 2
#     Edge 109, Type (0, 0), BuildingBlock: XIVTED_clean_linker_0, # of connection points: 2
#     Edge 110, Type (0, 0), BuildingBlock: XIVTED_clean_linker_0, # of connection points: 2
#     Edge 111, Type (0, 0), BuildingBlock: XIVTED_clean_linker_0, # of connection points: 2
#     Edge 112, Type (0, 0), BuildingBlock: XIVTED_clean_linker_0, # of connection points: 2
#     Edge 113, Type (0, 0), BuildingBlock: XIVTED_clean_linker_0, # of connection points: 2
#     Edge 114, Type (0, 0), BuildingBlock: XIVTED_clean_linker_0, # of connection points: 2
#     Edge 115, Type (0, 0), BuildingBlock: XIVTED_clean_linker_0, # of connection points: 2
#     Edge 116, Type (0, 0), BuildingBlock: XIVTED_clean_linker_0, # of connection points: 2
#     Edge 117, Type (0, 0), BuildingBlock: XIVTED_clean_linker_0, # of connection points: 2
#     Edge 118, Type (0, 0), BuildingBlock: XIVTED_clean_linker_0, # of connection points: 2
#     Edge 119, Type (0, 0), BuildingBlock: XIVTED_clean_linker_0, # of connection points: 2
#     Edge 120, Type (0, 0), BuildingBlock: XIVTED_clean_linker_0, # of connection points: 2
#     Edge 121, Type (0, 0), BuildingBlock: XIVTED_clean_linker_0, # of connection points: 2
#     Edge 122, Type (0, 0), BuildingBlock: XIVTED_clean_linker_0, # of connection points: 2
#     Edge 123, Type (0, 0), BuildingBlock: XIVTED_clean_linker_0, # of connection points: 2
#     Edge 124, Type (0, 0), BuildingBlock: XIVTED_clean_linker_0, # of connection points: 2
#     Edge 125, Type (0, 0), BuildingBlock: XIVTED_clean_linker_0, # of connection points: 2
#     Edge 126, Type (0, 0), BuildingBlock: XIVTED_clean_linker_0, # of connection points: 2
#     Edge 127, Type (0, 0), BuildingBlock: XIVTED_clean_linker_0, # of connection points: 2
# Relax obj value: 0.450
# Max RMSD: 0.204
# Mean RMSD: 0.204
data_MOF--net-wir--node1-BETFEN_clean_sbu_0--edge1-XIVTED_clean_linker_0
_symmetry_space_group_name_H-M    P1
_symmetry_Int_Tables_number       1
_symmetry_cell_setting            triclinic
loop_
_symmetry_equiv_pos_as_xyz
'x, y, z'
_cell_length_a     39.827166
_cell_length_b     39.937969
_cell_length_c     110.65322
_cell_angle_alpha  90.158236
_cell_angle_beta   89.966403
_cell_angle_gamma 89.757039
loop_
_atom_site_label
_atom_site_type_symbol
_atom_site_fract_x
_atom_site_fract_y
_atom_site_fract_z
_atom_type_partial_charge
Pr0 Pr 0.23384 0.21475 0.37829 0.0
Pr1 Pr 0.20676 0.17676 0.37108 0.0
C2 C 0.25846 0.27632 0.38295 0.0
C3 C 0.24583 0.30211 0.39122 0.0
C4 C 0.26818 0.32283 0.39746 0.0
C5 C 0.25644 0.34345 0.40679 0.0
C6 C 0.22222 0.34344 0.40996 0.0
C7 C 0.19976 0.32369 0.40329 0.0
C8 C 0.21148 0.30312 0.39403 0.0
C9 C 0.26919 0.16409 0.39397 0.0
C10 C 0.19059 0.18358 0.39835 0.0
C11 C 0.19798 0.11741 0.36001 0.0
C12 C 0.20772 0.08327 0.3635 0.0
C13 C 0.19217 0.05575 0.35808 0.0
C14 C 0.2023 1.02328 0.36107 0.0
C15 C 0.22824 1.01782 0.36951 0.0
C16 C 0.24269 0.04553 0.37532 0.0
C17 C 0.23236 0.07798 0.37238 0.0
C18 C 0.14509 0.21537 0.37443 0.0
C19 C 0.24158 0.2188 0.34832 0.0
O20 O 0.23947 0.26968 0.3737 0.0
O21 O 0.26965 0.24938 0.38816 0.0
O22 O 0.25717 0.15934 0.38291 0.0
O23 O 0.26271 0.19534 0.39635 0.0
O24 O 0.19797 0.15978 0.39074 0.0
O25 O 0.19622 0.21405 0.39463 0.0
O26 O 0.2226 0.1377 0.35734 0.0
O27 O 0.17511 0.13135 0.36681 0.0
O28 O 0.17504 0.22809 0.37286 0.0
O29 O 0.14825 0.18305 0.37493 0.0
O30 O 0.26108 0.22014 0.35802 0.0
O31 O 0.21285 0.20466 0.35123 0.0
H32 H 0.29481 0.32207 0.39546 0.0
H33 H 0.27423 0.35865 0.41174 0.0
H34 H 0.17338 0.32267 0.40564 0.0
H35 H 0.19386 0.28687 0.38943 0.0
H36 H 0.17284 0.05937 0.35132 0.0
H37 H 0.19108 1.00254 0.35623 0.0
H38 H 0.26267 0.04215 0.38185 0.0
H39 H 0.24423 0.09893 0.37683 0.0
Pr40 Pr 0.10145 1.00087 0.65189 0.0
Pr41 Pr 0.13243 0.97556 0.64431 0.0
C42 C 0.03844 1.02342 0.65534 0.0
C43 C 1.00636 1.00831 0.65185 0.0
C44 C 0.97854 0.02818 0.64885 0.0
C45 C 0.94742 1.01318 0.6466 0.0
C46 C 0.94377 0.97814 0.64746 0.0
C47 C 0.97268 0.95846 0.64938 0.0
C48 C 1.00349 0.97339 0.65155 0.0
C49 C 0.15043 0.03928 0.66733 0.0
C50 C 0.13919 0.9577 0.67114 0.0
C51 C 0.17797 0.98067 0.62655 0.0
C52 C 0.17585 0.9805 0.61318 0.0
C53 C 0.18555 0.95212 0.60651 0.0
C54 C 0.1833 0.95209 0.5939 0.0
C55 C 0.17131 0.98047 0.5877 0.0
C56 C 0.16111 1.0086 0.5944 0.0
C57 C 0.16362 1.00874 0.60696 0.0
C58 C 0.09783 0.91238 0.64735 0.0
C59 C 0.08935 1.0084 0.62248 0.0
O60 O 0.05722 0.03356 0.64643 0.0
O61 O 0.05539 1.00727 0.66358 0.0
O62 O 0.15753 1.01655 0.65901 0.0
O63 O 0.11813 0.04331 0.66656 0.0
O64 O 0.15933 0.9597 0.66188 0.0
O65 O 0.10833 0.96774 0.66929 0.0
O66 O 0.16435 1.0066 0.63194 0.0
O67 O 0.1725 0.95242 0.63221 0.0
O68 O 0.08389 0.94227 0.64705 0.0
O69 O 0.13037 0.91618 0.64671 0.0
O70 O 0.09717 0.02876 0.63152 0.0
O71 O 0.0957 0.97799 0.62627 0.0
H72 H 0.98057 0.05521 0.64872 0.0
H73 H 0.92591 0.02913 0.64489 0.0
H74 H 0.97132 0.93153 0.6503 0.0
H75 H 1.0247 0.95748 0.65368 0.0
H76 H 0.1952 0.93007 0.61104 0.0
H77 H 0.19195 0.9302 0.58898 0.0
H78 H 0.1514 0.03071 0.58993 0.0
H79 H 0.15589 0.03114 0.61176 0.0
Pr80 Pr 0.30407 0.82904 0.87882 0.0
Pr81 Pr 0.32621 0.85928 0.87104 0.0
C82 C 0.29082 0.77012 0.88973 0.0
C83 C 0.31284 0.74871 0.8971 0.0
C84 C 0.31459 0.71416 0.89492 0.0
C85 C 0.33705 0.69418 0.90146 0.0
C86 C 0.35813 0.70855 0.91025 0.0
C87 C 0.35643 0.74325 0.91229 0.0
C88 C 0.33414 0.7631 0.90577 0.0
C89 C 0.26479 0.88097 0.89275 0.0
C90 C 0.36244 0.87177 0.89336 0.0
C91 C 0.30238 0.90091 0.85423 0.0
C92 C 0.29718 0.89685 0.84107 0.0
C93 C 0.32458 0.89594 0.83309 0.0
C94 C 0.31955 0.89109 0.82074 0.0
C95 C 0.287 0.88692 0.81603 0.0
C96 C 0.25966 0.88672 0.82407 0.0
C97 C 0.26469 0.89179 0.83645 0.0
C98 C 0.39093 0.82566 0.87146 0.0
C99 C 0.29601 0.81435 0.84917 0.0
O100 O 0.29876 0.77235 0.87838 0.0
O101 O 0.28282 0.79899 0.89435 0.0
O102 O 0.29633 0.88067 0.88955 0.0
O103 O 0.2522 0.85593 0.88659 0.0
O104 O 0.35635 0.89117 0.8842 0.0
O105 O 0.3473 0.84244 0.89326 0.0
O106 O 0.28257 0.88304 0.86115 0.0
O107 O 0.33356 0.90223 0.85811 0.0
O108 O 0.36176 0.81146 0.87341 0.0
O109 O 0.38589 0.85746 0.86921 0.0
O110 O 0.27605 0.81747 0.85874 0.0
O111 O 0.32572 0.82563 0.85227 0.0
H112 H 0.29875 0.70269 0.88813 0.0
H113 H 0.33791 0.66753 0.89964 0.0
H114 H 0.37171 0.75508 0.91916 0.0
H115 H 0.33357 0.78974 0.90757 0.0
H116 H 0.34999 0.89937 0.83633 0.0
H117 H 0.34121 0.89219 0.81484 0.0
H118 H 0.2343 0.8834 0.82077 0.0
H119 H 0.24311 0.89185 0.84242 0.0
Pr120 Pr 0.48342 0.07218 0.15047 0.0
Pr121 Pr 0.44964 0.09845 0.14354 0.0
C122 C 0.54479 0.04375 0.15158 0.0
C123 C 0.57564 0.05229 0.14508 0.0
C124 C 0.60671 0.0432 0.14992 0.0
C125 C 0.63549 0.06069 0.14657 0.0
C126 C 0.63323 0.08798 0.13851 0.0
C127 C 0.60308 0.09287 0.13216 0.0
C128 C 0.57429 0.07549 0.13557 0.0
C129 C 0.43503 0.03568 0.16666 0.0
C130 C 0.45016 0.11238 0.17112 0.0
C131 C 0.39777 0.10055 0.12799 0.0
C132 C 0.39192 0.10558 0.11502 0.0
C133 C 0.41156 0.12757 0.10812 0.0
C134 C 0.40737 0.12915 0.09556 0.0
C135 C 0.38398 0.10828 0.08977 0.0
C136 C 0.3643 0.08657 0.09676 0.0
C137 C 0.36818 0.08533 0.10926 0.0
C138 C 0.48657 0.16044 0.14705 0.0
C139 C 0.49031 0.06601 0.12067 0.0
O140 O 0.52048 0.03151 0.14506 0.0
O141 O 0.53452 0.06676 0.15913 0.0
O142 O 0.42807 0.05138 0.15643 0.0
O143 O 0.46725 0.03907 0.16793 0.0
O144 O 0.42787 0.10953 0.16256 0.0
O145 O 0.48094 0.1045 0.16817 0.0
O146 O 0.41411 0.07311 0.13066 0.0
O147 O 0.40663 0.12635 0.13456 0.0
O148 O 0.49976 0.13058 0.14527 0.0
O149 O 0.45404 0.15696 0.14771 0.0
O150 O 0.48624 0.0455 0.12991 0.0
O151 O 0.48182 0.09607 0.12438 0.0
H152 H 0.60821 1.02517 0.15721 0.0
H153 H 0.65827 0.05575 0.1516 0.0
H154 H 0.60067 0.11312 0.12571 0.0
H155 H 0.55048 0.08284 0.1317 0.0
H156 H 0.43047 0.14301 0.1124 0.0
H157 H 0.42284 0.14606 0.09035 0.0
H158 H 0.34571 0.07061 0.09255 0.0
H159 H 0.35305 0.06798 0.11443 0.0
Pr160 Pr 0.25492 0.84213 0.25156 0.0
Pr161 Pr 0.23184 0.87221 0.25912 0.0
C162 C 0.27286 0.78309 0.24125 0.0
C163 C 0.25433 0.75866 0.23403 0.0
C164 C 0.27177 0.73465 0.22725 0.0
C165 C 0.25469 0.71506 0.21881 0.0
C166 C 0.21997 0.71945 0.217 0.0
C167 C 0.2023 0.74224 0.22435 0.0
C168 C 0.2194 0.76178 0.23278 0.0
C169 C 0.29318 0.89458 0.23762 0.0
C170 C 0.1966 0.8818 0.23628 0.0
C171 C 0.25552 0.91411 0.2759 0.0
C172 C 0.26227 0.90917 0.28895 0.0
C173 C 0.23593 0.90926 0.29737 0.0
C174 C 0.24202 0.90137 0.30945 0.0
C175 C 0.27458 0.89298 0.31343 0.0
C176 C 0.30096 0.89295 0.30499 0.0
C177 C 0.29491 0.90116 0.29291 0.0
C178 C 0.1675 0.83877 0.25857 0.0
C179 C 0.26207 0.82778 0.28112 0.0
O180 O 0.26405 0.786 0.25252 0.0
O181 O 0.27692 0.81192 0.23612 0.0
O182 O 0.26162 0.89378 0.24076 0.0
O183 O 0.30623 0.86987 0.24383 0.0
O184 O 0.20211 0.90233 0.24521 0.0
O185 O 0.21194 0.85253 0.23687 0.0
O186 O 0.27527 0.8972 0.26857 0.0
O187 O 0.22394 0.91465 0.27242 0.0
O188 O 0.19688 0.82445 0.25669 0.0
O189 O 0.17224 0.87066 0.26079 0.0
O190 O 0.28247 0.83165 0.27175 0.0
O191 O 0.23218 0.83827 0.2778 0.0
H192 H 0.29876 0.73205 0.22812 0.0
H193 H 0.26885 0.69734 0.21338 0.0
H194 H 0.17564 0.74643 0.22308 0.0
H195 H 0.2056 0.78043 0.2379 0.0
H196 H 0.21049 0.91524 0.29466 0.0
H197 H 0.22119 0.9027 0.31572 0.0
H198 H 0.3263 0.88657 0.30771 0.0
H199 H 0.31574 0.90061 0.28662 0.0
Pr200 Pr 0.46181 0.98277 0.47945 0.0
Pr201 Pr 0.42649 0.95453 0.48581 0.0
C202 C 0.52303 1.01092 0.47886 0.0
C203 C 0.55437 0.99938 0.48446 0.0
C204 C 0.58068 1.02147 0.48692 0.0
C205 C 0.61212 1.00891 0.49038 0.0
C206 C 0.61791 0.97397 0.49091 0.0
C207 C 0.58981 0.95267 0.49014 0.0
C208 C 0.5585 0.96529 0.48696 0.0
C209 C 0.41229 1.0202 0.4638 0.0
C210 C 0.43339 0.94498 0.45784 0.0
C211 C 0.37166 0.9418 0.49924 0.0
C212 C 0.33552 0.94685 0.50104 0.0
C213 C 0.31764 0.92204 0.50714 0.0
C214 C 0.28537 0.92856 0.51143 0.0
C215 C 0.27031 0.96014 0.50966 0.0
C216 C 0.28719 0.98387 0.5025 0.0
C217 C 0.31969 0.97732 0.49827 0.0
C218 C 0.4664 0.89415 0.48238 0.0
C219 C 0.46681 0.98877 0.50915 0.0
O220 O 0.49966 1.02067 0.48634 0.0
O221 O 0.51156 0.99177 0.47023 0.0
O222 O 0.4055 1.00335 0.47382 0.0
O223 O 0.44466 1.01794 0.46263 0.0
O224 O 0.40943 0.94847 0.4658 0.0
O225 O 0.46366 0.95083 0.46175 0.0
O226 O 0.39124 0.96754 0.50105 0.0
O227 O 0.38153 0.92221 0.49047 0.0
O228 O 0.478 0.92411 0.48492 0.0
O229 O 0.43424 0.89707 0.48068 0.0
O230 O 0.46514 1.00924 0.49984 0.0
O231 O 0.45615 0.95918 0.50559 0.0
H232 H 0.57745 0.04814 0.48555 0.0
H233 H 0.63237 1.02653 0.49165 0.0
H234 H 0.59209 0.92575 0.49067 0.0
H235 H 0.5381 0.94792 0.48556 0.0
H236 H 0.32952 0.89836 0.50934 0.0
H237 H 0.27358 0.90972 0.51699 0.0
H238 H 0.2761 1.00819 0.50077 0.0
H239 H 0.33308 0.99669 0.49344 0.0
Pr240 Pr 0.33157 0.23052 0.75353 0.0
Pr241 Pr 0.35873 0.19294 0.76028 0.0
C242 C 0.30706 0.29293 0.7501 0.0
C243 C 0.32256 0.32155 0.74411 0.0
C244 C 0.30247 0.34519 0.73821 0.0
C245 C 0.31681 0.3668 0.72978 0.0
C246 C 0.35131 0.36458 0.72707 0.0
C247 C 0.37178 0.34317 0.73394 0.0
C248 C 0.35747 0.32172 0.74238 0.0
C249 C 0.29484 0.18064 0.73781 0.0
C250 C 0.37373 0.20119 0.73304 0.0
C251 C 0.36872 0.13397 0.77147 0.0
C252 C 0.35913 0.09949 0.7685 0.0
C253 C 0.37376 0.07276 0.77472 0.0
C254 C 0.36369 0.03998 0.77228 0.0
C255 C 0.33871 0.03342 0.76358 0.0
C256 C 0.32505 0.06029 0.75702 0.0
C257 C 0.33533 0.09307 0.75943 0.0
C258 C 0.42037 0.23121 0.75702 0.0
C259 C 0.32353 0.23431 0.78331 0.0
O260 O 0.32099 0.28335 0.76015 0.0
O261 O 0.30052 0.26792 0.74295 0.0
O262 O 0.30813 0.17525 0.74864 0.0
O263 O 0.30063 0.2121 0.73573 0.0
O264 O 0.3656 0.17696 0.74029 0.0
O265 O 0.36962 0.23138 0.73733 0.0
O266 O 0.34408 0.15436 0.77424 0.0
O267 O 0.39074 0.14738 0.76426 0.0
O268 O 0.39045 0.24388 0.759 0.0
O269 O 0.41711 0.19899 0.75596 0.0
O270 O 0.30365 0.23462 0.77371 0.0
O271 O 0.3528 0.22139 0.78017 0.0
H272 H 0.27548 0.34528 0.73945 0.0
H273 H 0.30055 0.38347 0.72473 0.0
H274 H 0.39834 0.34063 0.73201 0.0
H275 H 0.37336 0.30342 0.74681 0.0
H276 H 0.39235 0.07728 0.78168 0.0
H277 H 0.37428 1.01996 0.77767 0.0
H278 H 0.30586 0.05605 0.75026 0.0
H279 H 0.32416 0.11344 0.75439 0.0
Pr280 Pr 0.07251 0.06031 0.97923 0.0
Pr281 Pr 0.10937 0.08703 0.98654 0.0
C282 C 1.01084 0.03392 0.97684 0.0
C283 C 0.9796 0.04484 0.98266 0.0
C284 C 0.94898 0.03925 0.97687 0.0
C285 C 0.92118 0.05909 0.97977 0.0
C286 C 0.92395 0.08517 0.98835 0.0
C287 C 0.95328 0.08715 0.99535 0.0
C288 C 0.98106 0.0673 0.99244 0.0
C289 C 0.12285 1.02319 0.9638 0.0
C290 C 0.10589 0.10058 0.95897 0.0
C291 C 0.1637 0.09894 1.00042 0.0
C292 C 0.19986 0.0958 1.0032 0.0
C293 C 0.22147 0.12286 1.00102 0.0
C294 C 0.25346 0.12365 1.00621 0.0
C295 C 0.26434 0.09754 1.01378 0.0
C296 C 0.24367 0.06931 1.01515 0.0
C297 C 0.21177 0.06848 1.00994 0.0
C298 C 0.06967 0.14795 0.98309 0.0
C299 C 0.06619 0.05318 1.0092 0.0
O300 O 0.0336 1.02116 0.98396 0.0
O301 O 1.0232 0.05561 0.96928 0.0
O302 O 0.12831 0.03698 0.97456 0.0
O303 O 0.09127 0.02875 0.96168 0.0
O304 O 0.12904 0.09413 0.96697 0.0
O305 O 0.07496 0.09566 0.96238 0.0
O306 O 0.14429 0.07288 1.00181 0.0
O307 O 0.15403 0.11894 0.99177 0.0
O308 O 0.05778 0.11819 0.98566 0.0
O309 O 0.10182 0.14457 0.98146 0.0
O310 O 0.06526 0.03391 0.99948 0.0
O311 O 0.08019 0.08183 1.0063 0.0
H312 H 0.94745 1.02205 0.9693 0.0
H313 H 0.89907 0.0567 0.97415 0.0
H314 H 0.95606 0.1066 1.00211 0.0
H315 H 1.00459 0.07202 0.99701 0.0
H316 H 0.21296 0.14437 0.99591 0.0
H317 H 0.26895 0.14552 1.00482 0.0
H318 H 0.25096 0.04889 1.02102 0.0
H319 H 0.19568 0.04737 1.01187 0.0
Pr320 Pr 0.8275 0.86204 0.73681 0.0
Pr321 Pr 0.80308 0.82837 0.72897 0.0
C322 C 0.82695 0.90993 0.75394 0.0
C323 C 0.83161 0.91157 0.76719 0.0
C324 C 0.85786 0.93049 0.77212 0.0
C325 C 0.86107 0.93386 0.78466 0.0
C326 C 0.83797 0.91845 0.79248 0.0
C327 C 0.81237 0.89865 0.78753 0.0
C328 C 0.80913 0.89536 0.77504 0.0
C329 C 0.89101 0.8269 0.73326 0.0
C330 C 0.79515 0.8181 0.75857 0.0
C331 C 0.78038 0.76554 0.72603 0.0
C332 C 0.79368 0.73478 0.73143 0.0
C333 C 0.78946 0.70422 0.72547 0.0
C334 C 0.81087 0.67742 0.72805 0.0
C335 C 0.8371 0.6811 0.73651 0.0
C336 C 0.83835 0.7104 0.74353 0.0
C337 C 0.81686 0.73713 0.74096 0.0
C338 C 0.76528 0.87691 0.7133 0.0
C339 C 0.84325 0.86836 0.70974 0.0
O340 O 0.79997 0.89454 0.75016 0.0
O341 O 0.85341 0.9038 0.74725 0.0
O342 O 0.86143 0.81298 0.73446 0.0
O343 O 0.88664 0.85932 0.7331 0.0
O344 O 0.7749 0.82271 0.74923 0.0
O345 O 0.82519 0.82749 0.75524 0.0
O346 O 0.76639 0.78687 0.73345 0.0
O347 O 0.80099 0.7798 0.71849 0.0
O348 O 0.78027 0.88337 0.72373 0.0
O349 O 0.76954 0.84497 0.71168 0.0
O350 O 0.83879 0.8887 0.71881 0.0
O351 O 0.83685 0.83681 0.71179 0.0
H352 H 0.87541 0.94334 0.76628 0.0
H353 H 0.88081 0.94966 0.7882 0.0
H354 H 0.79441 0.88619 0.79332 0.0
H355 H 0.78849 0.88066 0.77158 0.0
H356 H 0.77185 0.70206 0.71805 0.0
H357 H 0.80925 0.65533 0.72238 0.0
H358 H 0.85805 0.71389 0.75016 0.0
H359 H 0.82061 0.76065 0.74564 0.0
Pr360 Pr 0.94845 0.1028 0.51116 0.0
Pr361 Pr 0.98573 0.07891 0.50314 0.0
C362 C 0.8907 0.10785 0.52365 0.0
C363 C 0.85625 0.09741 0.52091 0.0
C364 C 0.82923 0.11403 0.52636 0.0
C365 C 0.79636 0.10448 0.52373 0.0
C366 C 0.78995 0.07812 0.51557 0.0
C367 C 0.81718 0.06211 0.50986 0.0
C368 C 0.85007 0.07181 0.51247 0.0
C369 C 0.98463 0.16621 0.50817 0.0
C370 C 0.99226 0.06819 0.53306 0.0
C371 C 0.04858 0.05661 0.4984 0.0
C372 C 0.07687 0.07453 0.4931 0.0
C373 C 0.1078 0.05865 0.49123 0.0
C374 C 0.13282 0.07476 0.48458 0.0
C375 C 0.12682 0.10664 0.47953 0.0
C376 C 0.09662 0.12332 0.48235 0.0
C377 C 0.072 0.10745 0.48912 0.0
C378 C 0.93489 0.04302 0.4877 0.0
C379 C 0.94966 0.12489 0.48467 0.0
O380 O 0.91257 0.08384 0.52544 0.0
O381 O 0.90224 0.13184 0.51689 0.0
O382 O 0.99852 0.13666 0.50929 0.0
O383 O 0.9523 0.16195 0.50796 0.0
O384 O 0.99213 0.04948 0.52309 0.0
O385 O 0.9787 0.09739 0.53053 0.0
O386 O 0.0391 0.06722 0.50897 0.0
O387 O 1.02333 0.05196 0.49116 0.0
O388 O 0.93242 0.0514 0.4993 0.0
O389 O 0.96421 0.05416 0.48455 0.0
O390 O 0.92719 0.11496 0.49236 0.0
O391 O 0.98093 0.11904 0.48761 0.0
H392 H 0.83356 0.13408 0.53279 0.0
H393 H 0.77603 0.1169 0.52848 0.0
H394 H 0.81306 0.04178 0.50354 0.0
H395 H 0.87065 0.05907 0.508 0.0
H396 H 0.11206 0.03339 0.49444 0.0
H397 H 0.15611 0.06152 0.48285 0.0
H398 H 0.09071 0.14763 0.47859 0.0
H399 H 0.04833 0.12021 0.49067 0.0
Pr400 Pr 0.704 0.17586 0.23541 0.0
Pr401 Pr 0.73221 0.21453 0.2289 0.0
C402 C 0.68823 0.11756 0.24617 0.0
C403 C 0.66855 0.10419 0.25626 0.0
C404 C 0.66892 0.11948 0.26769 0.0
C405 C 0.65224 0.10462 0.27737 0.0
C406 C 0.6348 0.07434 0.27577 0.0
C407 C 0.63307 0.06014 0.26415 0.0
C408 C 0.64989 0.07493 0.25449 0.0
C409 C 0.64369 0.21685 0.23258 0.0
C410 C 0.73652 0.21788 0.25926 0.0
C411 C 0.76251 0.27433 0.22704 0.0
C412 C 0.75499 0.30626 0.23296 0.0
C413 C 0.76666 0.33595 0.22788 0.0
C414 C 0.75135 0.36631 0.2309 0.0
C415 C 0.72381 0.36714 0.23893 0.0
C416 C 0.71551 0.33786 0.24525 0.0
C417 C 0.73082 0.3075 0.24221 0.0
C418 C 0.7693 0.16389 0.21339 0.0
C419 C 0.6932 0.18756 0.20751 0.0
O420 O 0.71519 0.1347 0.2488 0.0
O421 O 0.67128 0.12995 0.23716 0.0
O422 O 0.67372 0.22817 0.23532 0.0
O423 O 0.64664 0.18498 0.23053 0.0
O424 O 0.7546 0.22429 0.24955 0.0
O425 O 0.71046 0.19921 0.25627 0.0
O426 O 0.77372 0.25049 0.23401 0.0
O427 O 0.73929 0.26419 0.21957 0.0
O428 O 0.7551 0.15849 0.22404 0.0
O429 O 0.76449 0.19556 0.21144 0.0
O430 O 0.69876 0.16284 0.21494 0.0
O431 O 0.69772 0.21747 0.2119 0.0
H432 H 0.68292 0.14228 0.26923 0.0
H433 H 0.65448 0.116 0.28623 0.0
H434 H 0.61948 0.03709 0.2626 0.0
H435 H 0.64906 0.06301 0.24569 0.0
H436 H 0.78531 0.33535 0.22074 0.0
H437 H 0.75847 0.38826 0.22579 0.0
H438 H 0.69474 0.33777 0.25158 0.0
H439 H 0.72151 0.28468 0.24624 0.0
Pr440 Pr 0.62637 0.97803 1.00828 0.0
Pr441 Pr 0.59655 1.00166 1.00097 0.0
C442 C 0.66868 1.00142 1.02498 0.0
C443 C 0.66343 1.00874 1.03798 0.0
C444 C 0.66232 0.98279 1.04649 0.0
C445 C 0.65376 0.9895 1.05849 0.0
C446 C 0.64586 1.02231 1.06229 0.0
C447 C 0.64706 0.04828 1.05376 0.0
C448 C 0.65598 0.04161 1.04178 0.0
C449 C 0.59237 0.9143 1.00785 0.0
C450 C 0.58211 1.00835 1.03042 0.0
C451 C 0.53756 1.02103 0.99093 0.0
C452 C 0.51302 1.00361 0.98339 0.0
C453 C 0.48948 1.022 0.97676 0.0
C454 C 0.46964 1.00602 0.96811 0.0
C455 C 0.4733 0.97144 0.96594 0.0
C456 C 0.49575 0.95285 0.97309 0.0
C457 C 0.51553 0.96885 0.98173 0.0
C458 C 0.64973 0.0389 0.98692 0.0
C459 C 0.63422 0.94314 0.98524 0.0
O460 O 0.65226 1.02115 1.01755 0.0
O461 O 0.66872 0.96981 1.02159 0.0
O462 O 0.57827 0.94373 1.00597 0.0
O463 O 0.62444 0.91866 1.00997 0.0
O464 O 0.58694 0.02901 1.02124 0.0
O465 O 0.59167 0.97839 1.02686 0.0
O466 O 0.54029 1.01089 1.00203 0.0
O467 O 0.56656 1.02551 0.98588 0.0
O468 O 0.64808 1.00736 0.98988 0.0
O469 O 0.62559 0.05235 0.99338 0.0
O470 O 0.65533 0.94806 0.99404 0.0
O471 O 0.60525 0.959 0.98608 0.0
H472 H 0.6678 0.95718 1.0439 0.0
H473 H 0.65419 0.96893 1.06483 0.0
H474 H 0.64103 0.07379 1.05633 0.0
H475 H 0.65631 0.06215 1.03541 0.0
H476 H 0.48737 0.04888 0.97793 0.0
H477 H 0.45218 1.02089 0.96285 0.0
H478 H 0.49939 0.92628 0.97156 0.0
H479 H 0.53381 0.95432 0.98674 0.0
Pr480 Pr 0.85788 0.19476 0.89413 0.0
Pr481 Pr 0.82901 0.23008 0.90065 0.0
C482 C 0.87198 0.14069 0.88043 0.0
C483 C 0.8685 0.10481 0.8779 0.0
C484 C 0.89501 0.08842 0.87203 0.0
C485 C 0.8905 0.05654 0.86716 0.0
C486 C 0.85929 0.04035 0.86811 0.0
C487 C 0.83359 0.05581 0.87491 0.0
C488 C 0.83811 0.08792 0.87973 0.0
C489 C 0.91772 0.23528 0.89774 0.0
C490 C 0.82501 0.23566 0.87074 0.0
C491 C 0.79536 0.28868 0.90226 0.0
C492 C 0.79785 0.32097 0.89611 0.0
C493 C 0.78307 0.34913 0.90142 0.0
C494 C 0.79422 0.381 0.89831 0.0
C495 C 0.82099 0.3849 0.89005 0.0
C496 C 0.83085 0.35691 0.88312 0.0
C497 C 0.81986 0.32495 0.88632 0.0
C498 C 0.7931 0.17985 0.9163 0.0
C499 C 0.8683 0.20055 0.92199 0.0
O500 O 0.84574 0.1599 0.87872 0.0
O501 O 0.891 0.15011 0.88939 0.0
O502 O 0.88751 0.24676 0.89515 0.0
O503 O 0.91514 0.20321 0.89942 0.0
O504 O 0.80426 0.23507 0.88003 0.0
O505 O 0.85426 0.22391 0.87431 0.0
O506 O 0.78498 0.26353 0.89577 0.0
O507 O 0.82097 0.28104 0.90909 0.0
O508 O 0.80769 0.17415 0.90567 0.0
O509 O 0.79772 0.21155 0.91821 0.0
O510 O 0.8652 0.17691 0.91391 0.0
O511 O 0.86123 0.2308 0.91835 0.0
H512 H 0.91862 0.10116 0.87052 0.0
H513 H 0.91077 0.04584 0.86188 0.0
H514 H 0.80945 0.04381 0.87601 0.0
H515 H 0.81738 0.10016 0.88433 0.0
H516 H 0.76556 0.34643 0.90885 0.0
H517 H 0.78511 0.40175 0.90372 0.0
H518 H 0.85036 0.35912 0.87635 0.0
H519 H 0.83109 0.30332 0.88196 0.0
Pr520 Pr 0.60371 0.08163 0.62078 0.0
Pr521 Pr 0.57306 0.0595 0.62865 0.0
C522 C 0.64592 0.05829 0.60397 0.0
C523 C 0.64213 0.0524 0.59083 0.0
C524 C 0.64426 0.07898 0.5826 0.0
C525 C 0.64 0.07332 0.57026 0.0
C526 C 0.63346 0.04092 0.56581 0.0
C527 C 0.63014 1.01453 0.57409 0.0
C528 C 0.63464 1.02017 0.58645 0.0
C529 C 0.56976 0.14601 0.62122 0.0
C530 C 0.5591 0.05144 0.59892 0.0
C531 C 0.51327 0.04362 0.63874 0.0
C532 C 0.48547 0.06411 0.64332 0.0
C533 C 0.46431 0.05123 0.65224 0.0
C534 C 0.44211 0.07243 0.65836 0.0
C535 C 0.44103 0.10688 0.65569 0.0
C536 C 0.4608 0.11924 0.64621 0.0
C537 C 0.48283 0.09796 0.64005 0.0
C538 C 0.62501 1.02009 0.64247 0.0
C539 C 0.61487 0.11752 0.64343 0.0
O540 O 0.62842 0.03844 0.61099 0.0
O541 O 0.64654 0.08956 0.60772 0.0
O542 O 0.55549 0.11675 0.62282 0.0
O543 O 0.6019 0.14125 0.61934 0.0
O544 O 0.56227 0.03158 0.60847 0.0
O545 O 0.5702 0.08111 0.60205 0.0
O546 O 0.51836 0.04424 0.62714 0.0
O547 O 0.54098 0.04622 0.64482 0.0
O548 O 0.62523 0.05134 0.63908 0.0
O549 O 0.59935 1.00776 0.63661 0.0
O550 O 0.63459 0.11147 0.63431 0.0
O551 O 0.58534 0.10262 0.64323 0.0
H552 H 0.64974 0.10416 0.58565 0.0
H553 H 0.64354 0.09418 0.56417 0.0
H554 H 0.62492 0.98935 0.57099 0.0
H555 H 0.6324 0.9992 0.59258 0.0
H556 H 0.46625 1.02522 0.65492 0.0
H557 H 0.42753 0.06224 0.66574 0.0
H558 H 0.46029 0.14559 0.64391 0.0
H559 H 0.49894 0.10831 0.63316 0.0
Pr560 Pr 0.72537 0.88433 0.39645 0.0
Pr561 Pr 0.75105 0.84546 0.40405 0.0
C562 C 0.71245 0.94074 0.38395 0.0
C563 C 0.69192 0.9507 0.37363 0.0
C564 C 0.69259 0.98394 0.36973 0.0
C565 C 0.67335 0.99381 0.35983 0.0
C566 C 0.65308 0.97053 0.35369 0.0
C567 C 0.65207 0.93725 0.35779 0.0
C568 C 0.67136 0.92741 0.36772 0.0
C569 C 0.66358 0.84505 0.39933 0.0
C570 C 0.75819 0.83967 0.37359 0.0
C571 C 0.77628 0.78369 0.4075 0.0
C572 C 0.76483 0.7523 0.40209 0.0
C573 C 0.77172 0.72196 0.40785 0.0
C574 C 0.7521 0.69392 0.40532 0.0
C575 C 0.72503 0.69619 0.39715 0.0
C576 C 0.72095 0.72555 0.39036 0.0
C577 C 0.74075 0.75347 0.39282 0.0
C578 C 0.78872 0.89625 0.4191 0.0
C579 C 0.7113 0.88147 0.42415 0.0
O580 O 0.73808 0.92119 0.38163 0.0
O581 O 0.69587 0.93197 0.39358 0.0
O582 O 0.69354 0.8329 0.39701 0.0
O583 O 0.66708 0.87704 0.40096 0.0
O584 O 0.77572 0.83436 0.38359 0.0
O585 O 0.73172 0.85833 0.37614 0.0
O586 O 0.78994 0.80516 0.40014 0.0
O587 O 0.75433 0.79748 0.41472 0.0
O588 O 0.77774 0.89975 0.40782 0.0
O589 O 0.77998 0.86604 0.42196 0.0
O590 O 0.71838 0.90382 0.41601 0.0
O591 O 0.71515 0.8503 0.42083 0.0
H592 H 0.70832 1.00216 0.37424 0.0
H593 H 0.67524 1.01945 0.35675 0.0
H594 H 0.63659 0.91881 0.35329 0.0
H595 H 0.67045 0.90164 0.37074 0.0
H596 H 0.79004 0.72074 0.41507 0.0
H597 H 0.75574 0.67177 0.4108 0.0
H598 H 0.70043 0.72793 0.38399 0.0
H599 H 0.735 0.77685 0.38832 0.0
Pr600 Pr 0.92702 0.95774 0.12098 0.0
Pr601 Pr 0.96556 0.98414 0.12842 0.0
C602 C 0.86769 0.94909 0.10983 0.0
C603 C 0.8334 0.95875 0.11328 0.0
C604 C 0.80596 0.94303 0.10787 0.0
C605 C 0.77332 0.95307 0.1108 0.0
C606 C 0.7676 0.97911 0.11919 0.0
C607 C 0.79523 0.99373 0.12502 0.0
C608 C 0.82787 0.98348 0.12213 0.0
C609 C 0.96568 0.89596 0.124 0.0
C610 C 0.96947 0.9937 0.09853 0.0
C611 C 1.02752 1.00761 0.13344 0.0
C612 C 0.05279 0.99462 0.14181 0.0
C613 C 0.07456 1.01648 0.14781 0.0
C614 C 0.09495 1.00459 0.15715 0.0
C615 C 0.09363 0.97072 0.1606 0.0
C616 C 0.07277 0.9487 0.15417 0.0
C617 C 0.05247 0.96057 0.14489 0.0
C618 C 0.91447 1.01948 0.14403 0.0
C619 C 0.93287 0.94056 0.14813 0.0
O620 O 0.88807 0.97365 0.10724 0.0
O621 O 0.88154 0.92624 0.11659 0.0
O622 O 0.97843 0.92579 0.12236 0.0
O623 O 0.93333 0.89931 0.1248 0.0
O624 O 0.97122 1.0124 0.10844 0.0
O625 O 0.95494 0.965 0.10113 0.0
O626 O 1.02098 0.98872 0.12414 0.0
O627 O 1.00045 1.01923 0.13851 0.0
O628 O 0.91033 1.00841 0.13281 0.0
O629 O 0.94545 1.01208 0.14661 0.0
O630 O 0.90928 0.94868 0.14055 0.0
O631 O 0.96359 0.94596 0.14452 0.0
H632 H 0.80978 0.92363 0.10113 0.0
H633 H 0.75266 0.94171 0.10595 0.0
H634 H 0.79164 1.01379 0.13151 0.0
H635 H 0.84878 0.99546 0.12659 0.0
H636 H 0.07487 0.04288 0.14558 0.0
H637 H 0.11103 1.02203 0.16189 0.0
H638 H 0.07075 0.92263 0.15673 0.0
H639 H 0.03544 0.94336 0.14046 0.0
Pr640 Pr 0.73107 0.71435 0.87732 0.0
Pr641 Pr 0.70378 0.6817 0.87118 0.0
C642 C 0.75648 0.77426 0.88408 0.0
C643 C 0.7424 0.80314 0.8904 0.0
C644 C 0.76385 0.82666 0.89565 0.0
C645 C 0.75118 0.84982 0.90396 0.0
C646 C 0.717 0.84932 0.90717 0.0
C647 C 0.69518 0.82748 0.90108 0.0
C648 C 0.70784 0.8045 0.89274 0.0
C649 C 0.76842 0.66131 0.89156 0.0
C650 C 0.67738 0.69005 0.89683 0.0
C651 C 0.71193 0.62371 0.85936 0.0
C652 C 0.72146 0.58957 0.86304 0.0
C653 C 0.70471 0.56223 0.85797 0.0
C654 C 0.71418 0.52965 0.861 0.0
C655 C 0.74069 0.52371 0.86917 0.0
C656 C 0.75647 0.55125 0.87465 0.0
C657 C 0.74686 0.58391 0.87163 0.0
C658 C 0.64168 0.71863 0.87194 0.0
C659 C 0.73621 0.72183 0.84781 0.0
O660 O 0.74472 0.76831 0.87333 0.0
O661 O 0.75869 0.74734 0.89059 0.0
O662 O 0.73651 0.66391 0.88921 0.0
O663 O 0.78165 0.68387 0.88448 0.0
O664 O 0.67881 0.66577 0.88897 0.0
O665 O 0.69413 0.71717 0.89411 0.0
O666 O 0.73554 0.64654 0.85997 0.0
O667 O 0.68255 0.63422 0.86314 0.0
O668 O 0.67196 0.73189 0.87212 0.0
O669 O 0.64463 0.68611 0.87143 0.0
O670 O 0.75732 0.71903 0.85694 0.0
O671 O 0.70649 0.7118 0.85153 0.0
H672 H 0.79061 0.82582 0.89389 0.0
H673 H 0.76844 0.86677 0.90838 0.0
H674 H 0.66881 0.82625 0.90343 0.0
H675 H 0.691 0.78635 0.88874 0.0
H676 H 0.68486 0.56608 0.85142 0.0
H677 H 0.70188 0.50914 0.85639 0.0
H678 H 0.77688 0.54756 0.88097 0.0
H679 H 0.75985 0.60467 0.87581 0.0
Pr680 Pr 0.59633 0.5001 0.15319 0.0
Pr681 Pr 0.63255 0.47198 0.1465 0.0
C682 C 0.5339 0.52526 0.1552 0.0
C683 C 0.5026 0.50783 0.15224 0.0
C684 C 0.47401 0.52509 0.14825 0.0
C685 C 0.44425 0.50756 0.14594 0.0
C686 C 0.44281 0.47258 0.14764 0.0
C687 C 0.47245 0.45549 0.15086 0.0
C688 C 0.50184 0.47288 0.1531 0.0
C689 C 0.64642 0.53763 0.16874 0.0
C690 C 0.62427 0.45987 0.17403 0.0
C691 C 0.68768 0.45772 0.13337 0.0
C692 C 0.72396 0.46003 0.13133 0.0
C693 C 0.7401 0.43268 0.12592 0.0
C694 C 0.77246 0.43596 0.12131 0.0
C695 C 0.78941 0.46676 0.12206 0.0
C696 C 0.77431 0.49317 0.12861 0.0
C697 C 0.74166 0.48991 0.13313 0.0
C698 C 0.59267 0.41153 0.14954 0.0
C699 C 0.59094 0.50678 0.12335 0.0
O700 O 0.55322 0.5317 0.146 0.0
O701 O 0.55048 0.51299 0.16435 0.0
O702 O 0.65285 0.52095 0.15859 0.0
O703 O 0.61411 0.53531 0.17003 0.0
O704 O 0.64882 0.46636 0.16661 0.0
O705 O 0.59417 0.46392 0.16969 0.0
O706 O 0.6693 0.48454 0.1317 0.0
O707 O 0.67684 0.43829 0.14197 0.0
O708 O 0.58105 0.44166 0.14715 0.0
O709 O 0.62476 0.41433 0.15135 0.0
O710 O 0.59089 0.52682 0.13288 0.0
O711 O 0.60368 0.47768 0.12662 0.0
H712 H 0.47446 0.55206 0.14723 0.0
H713 H 0.42208 0.52154 0.14332 0.0
H714 H 0.47267 0.42882 0.15256 0.0
H715 H 0.5237 0.45894 0.15604 0.0
H716 H 0.72678 0.4094 0.12447 0.0
H717 H 0.78279 0.41508 0.11625 0.0
H718 H 0.78689 0.517 0.1296 0.0
H719 H 0.72966 0.51123 0.13743 0.0
Pr720 Pr 0.8074 0.31773 0.37961 0.0
Pr721 Pr 0.83112 0.35882 0.37122 0.0
C722 C 0.78667 0.25568 0.38571 0.0
C723 C 0.80597 0.22876 0.39137 0.0
C724 C 0.78971 0.20173 0.39679 0.0
C725 C 0.80767 0.18023 0.40438 0.0
C726 C 0.8419 0.18606 0.40682 0.0
C727 C 0.85858 0.21148 0.40047 0.0
C728 C 0.84073 0.2326 0.39279 0.0
C729 C 0.77068 0.37048 0.39411 0.0
C730 C 0.8548 0.35207 0.39809 0.0
C731 C 0.84651 0.41751 0.36062 0.0
C732 C 0.87424 0.44168 0.36159 0.0
C733 C 0.88099 0.45883 0.37244 0.0
C734 C 0.90575 0.48354 0.37283 0.0
C735 C 0.92433 0.49127 0.36242 0.0
C736 C 0.91877 0.47266 0.35179 0.0
C737 C 0.8939 0.44824 0.35138 0.0
C738 C 0.89427 0.32121 0.37464 0.0
C739 C 0.79314 0.31413 0.3493 0.0
O740 O 0.79591 0.26368 0.37483 0.0
O741 O 0.78202 0.28184 0.39251 0.0
O742 O 0.77764 0.37095 0.38234 0.0
O743 O 0.78383 0.34254 0.39779 0.0
O744 O 0.84533 0.37549 0.39066 0.0
O745 O 0.849 0.32123 0.39472 0.0
O746 O 0.85365 0.3886 0.3558 0.0
O747 O 0.82625 0.41511 0.36981 0.0
O748 O 0.86483 0.30815 0.37261 0.0
O749 O 0.88996 0.35334 0.37568 0.0
O750 O 0.77938 0.3055 0.35979 0.0
O751 O 0.81733 0.33598 0.35105 0.0
H752 H 0.7629 0.19837 0.39571 0.0
H753 H 0.79427 0.16038 0.40894 0.0
H754 H 0.88476 0.21696 0.40215 0.0
H755 H 0.85368 0.25339 0.38862 0.0
H756 H 0.86654 0.45393 0.38053 0.0
H757 H 0.90947 0.49748 0.38113 0.0
H758 H 0.9321 0.47841 0.34353 0.0
H759 H 0.88927 0.43525 0.34293 0.0
Pr760 Pr 0.98738 0.5737 0.65131 0.0
Pr761 Pr 0.94893 0.60204 0.64493 0.0
C762 C 0.04775 0.54316 0.65238 0.0
C763 C 0.07911 0.54983 0.6459 0.0
C764 C 0.10957 0.53998 0.65105 0.0
C765 C 0.13918 0.55598 0.64767 0.0
C766 C 0.13839 0.5826 0.63929 0.0
C767 C 0.1088 0.58788 0.63263 0.0
C768 C 0.07914 0.57198 0.63606 0.0
C769 C 0.93765 0.53689 0.667 0.0
C770 C 0.95924 0.61311 0.67278 0.0
C771 C 0.89074 0.61633 0.6336 0.0
C772 C 0.87651 0.63303 0.62294 0.0
C773 C 0.84733 0.65239 0.62431 0.0
C774 C 0.83094 0.66534 0.61419 0.0
C775 C 0.84339 0.65896 0.60252 0.0
C776 C 0.87368 0.64099 0.60124 0.0
C777 C 0.89014 0.62816 0.61137 0.0
C778 C 0.99053 0.66171 0.64787 0.0
C779 C 0.989 0.56889 0.62108 0.0
O780 O 1.02294 0.53177 0.6459 0.0
O781 O 0.03851 0.5669 0.65982 0.0
O782 O 0.9317 0.551 0.65637 0.0
O783 O 0.96933 0.54224 0.66891 0.0
O784 O 0.93469 0.6082 0.66519 0.0
O785 O 0.98939 0.60738 0.66865 0.0
O786 O 0.90775 0.58867 0.63181 0.0
O787 O 0.9034 0.63535 0.64202 0.0
O788 O 1.00133 0.63166 0.64484 0.0
O789 O 0.95863 0.6592 0.65015 0.0
O790 O 0.99326 0.54971 0.63065 0.0
O791 O 0.97326 0.59663 0.62429 0.0
H792 H 0.11002 0.52265 0.65856 0.0
H793 H 0.16147 0.55063 0.65293 0.0
H794 H 0.10754 0.60746 0.62589 0.0
H795 H 0.0558 0.57969 0.63189 0.0
H796 H 0.83659 0.65658 0.63319 0.0
H797 H 0.80796 0.67951 0.61549 0.0
H798 H 0.88378 0.63531 0.59237 0.0
H799 H 0.91278 0.61343 0.6101 0.0
Pr800 Pr 0.7587 0.34015 0.75109 0.0
Pr801 Pr 0.7351 0.37004 0.75862 0.0
C802 C 0.77726 0.28157 0.74056 0.0
C803 C 0.75879 0.25757 0.73311 0.0
C804 C 0.77628 0.2358 0.72541 0.0
C805 C 0.75889 0.21709 0.71678 0.0
C806 C 0.72379 0.2201 0.71571 0.0
C807 C 0.70622 0.2406 0.72391 0.0
C808 C 0.72363 0.25929 0.73252 0.0
C809 C 0.7962 0.39327 0.73726 0.0
C810 C 0.69926 0.37877 0.73591 0.0
C811 C 0.75828 0.41215 0.77542 0.0
C812 C 0.76508 0.40738 0.78847 0.0
C813 C 0.73876 0.4068 0.79691 0.0
C814 C 0.74519 0.39973 0.80904 0.0
C815 C 0.77806 0.39288 0.81305 0.0
C816 C 0.80433 0.39308 0.80457 0.0
C817 C 0.79794 0.40047 0.79244 0.0
C818 C 0.67138 0.33564 0.75815 0.0
C819 C 0.76549 0.32594 0.78063 0.0
O820 O 0.76815 0.28403 0.75181 0.0
O821 O 0.78159 0.31061 0.73562 0.0
O822 O 0.76453 0.39168 0.7402 0.0
O823 O 0.80964 0.3691 0.74363 0.0
O824 O 0.70446 0.39948 0.74481 0.0
O825 O 0.7154 0.34991 0.73643 0.0
O826 O 0.77823 0.39546 0.76809 0.0
O827 O 0.72671 0.41238 0.77192 0.0
O828 O 0.70095 0.32177 0.75625 0.0
O829 O 0.67555 0.3676 0.76038 0.0
O830 O 0.78609 0.33002 0.77133 0.0
O831 O 0.73555 0.33599 0.77721 0.0
H832 H 0.80344 0.23435 0.72572 0.0
H833 H 0.77302 0.20113 0.71068 0.0
H834 H 0.67926 0.24372 0.72324 0.0
H835 H 0.70975 0.27627 0.73832 0.0
H836 H 0.71313 0.4118 0.79418 0.0
H837 H 0.72438 0.40071 0.81534 0.0
H838 H 0.82989 0.38776 0.8073 0.0
H839 H 0.81876 0.40037 0.78614 0.0
Pr840 Pr 0.9589 0.48691 0.97954 0.0
Pr841 Pr 0.9273 0.46186 0.98657 0.0
C842 C 1.02006 0.51508 0.97801 0.0
C843 C 0.05242 0.50539 0.9833 0.0
C844 C 0.07778 0.52901 0.98509 0.0
C845 C 0.11042 0.51836 0.98785 0.0
C846 C 0.1183 0.48384 0.98826 0.0
C847 C 0.09141 0.46092 0.98825 0.0
C848 C 0.05885 0.47166 0.98582 0.0
C849 C 0.9104 0.52318 0.96323 0.0
C850 C 0.92541 0.4457 0.95933 0.0
C851 C 0.88028 0.46476 1.00395 0.0
C852 C 0.8821 0.46525 1.01732 0.0
C853 C 0.871 0.43793 1.02417 0.0
C854 C 0.8728 0.43883 1.03682 0.0
C855 C 0.88587 0.46707 1.04283 0.0
C856 C 0.89769 0.49396 1.03592 0.0
C857 C 0.89542 0.49327 1.02338 0.0
C858 C 0.96216 0.39874 0.98329 0.0
C859 C 0.96929 0.49334 1.00893 0.0
O860 O 0.99722 0.52551 0.98558 0.0
O861 O 1.00822 0.49446 0.96992 0.0
O862 O 0.90347 0.50711 0.97336 0.0
O863 O 0.94274 0.52052 0.96214 0.0
O864 O 0.90339 0.4489 0.968 0.0
O865 O 0.95624 0.45337 0.96219 0.0
O866 O 0.89255 0.49114 0.99859 0.0
O867 O 0.88769 0.43675 0.99834 0.0
O868 O 0.97622 0.42832 0.98441 0.0
O869 O 0.92958 0.40301 0.98305 0.0
O870 O 0.96156 0.51413 1.00007 0.0
O871 O 0.96334 0.46321 1.00481 0.0
H872 H 0.07284 0.5554 0.98368 0.0
H873 H 0.12982 0.53712 0.98858 0.0
H874 H 0.09541 0.43419 0.98877 0.0
H875 H 0.03923 0.45313 0.98494 0.0
H876 H 0.86054 0.41608 1.01977 0.0
H877 H 0.86297 0.41788 1.04188 0.0
H878 H 0.90842 0.51584 1.04022 0.0
H879 H 0.90419 0.51495 1.01847 0.0
Pr880 Pr 0.8272 0.73327 0.25413 0.0
Pr881 Pr 0.85289 0.69918 0.26176 0.0
C882 C 0.80579 0.79623 0.24956 0.0
C883 C 0.82362 0.82385 0.24382 0.0
C884 C 0.80755 0.85439 0.24158 0.0
C885 C 0.82327 0.87844 0.23439 0.0
C886 C 0.85498 0.87184 0.22919 0.0
C887 C 0.87187 0.84211 0.23231 0.0
C888 C 0.85635 0.81842 0.23958 0.0
C889 C 0.78954 0.68316 0.23891 0.0
C890 C 0.86872 0.69547 0.23485 0.0
C891 C 0.86464 0.65055 0.27787 0.0
C892 C 0.88426 0.64989 0.28916 0.0
C893 C 0.91889 0.65692 0.2892 0.0
C894 C 0.93713 0.65606 0.29997 0.0
C895 C 0.92103 0.64856 0.31091 0.0
C896 C 0.88621 0.64266 0.3109 0.0
C897 C 0.86805 0.64322 0.30013 0.0
C898 C 0.91577 0.73499 0.25767 0.0
C899 C 0.81687 0.74222 0.28372 0.0
O900 O 0.8175 0.78692 0.26001 0.0
O901 O 0.79967 0.77094 0.24249 0.0
O902 O 0.80423 0.67767 0.24954 0.0
O903 O 0.79391 0.71492 0.23695 0.0
O904 O 0.86078 0.67416 0.24321 0.0
O905 O 0.86453 0.72699 0.23771 0.0
O906 O 0.83714 0.66861 0.27803 0.0
O907 O 0.88165 0.65353 0.26784 0.0
O908 O 0.88603 0.74864 0.25891 0.0
O909 O 0.9117 0.70276 0.25763 0.0
O910 O 0.79727 0.73869 0.27409 0.0
O911 O 0.84714 0.73211 0.28067 0.0
H912 H 0.78237 0.85902 0.24492 0.0
H913 H 0.80986 0.9014 0.23239 0.0
H914 H 0.89604 0.8358 0.22842 0.0
H915 H 0.86918 0.79497 0.24132 0.0
H916 H 0.93206 0.66273 0.2809 0.0
H917 H 0.96391 0.66065 0.29973 0.0
H918 H 0.87319 0.6361 0.31915 0.0
H919 H 0.84138 0.63799 0.30034 0.0
Pr920 Pr 0.57279 0.55599 0.47773 0.0
Pr921 Pr 0.61282 0.58126 0.48499 0.0
C922 C 0.51049 0.53137 0.47518 0.0
C923 C 0.47993 0.54389 0.48108 0.0
C924 C 0.44892 0.54026 0.47535 0.0
C925 C 0.4223 0.56151 0.47842 0.0
C926 C 0.42663 0.58702 0.48713 0.0
C927 C 0.45633 0.58744 0.49395 0.0
C928 C 0.48289 0.56615 0.49089 0.0
C929 C 0.62298 0.51849 0.46215 0.0
C930 C 0.60452 0.59767 0.4576 0.0
C931 C 0.6713 0.59216 0.49662 0.0
C932 C 0.68514 0.61007 0.50703 0.0
C933 C 0.71973 0.61583 0.50749 0.0
C934 C 0.73388 0.63161 0.51751 0.0
C935 C 0.71359 0.64189 0.52725 0.0
C936 C 0.67867 0.63687 0.52659 0.0
C937 C 0.66452 0.62112 0.51652 0.0
C938 C 0.57339 0.64313 0.48251 0.0
C939 C 0.56884 0.54935 0.50812 0.0
O940 O 0.53283 0.51764 0.48224 0.0
O941 O 0.52367 0.55247 0.46759 0.0
O942 O 0.62718 0.52914 0.47342 0.0
O943 O 0.59255 0.52764 0.45953 0.0
O944 O 0.62849 0.58891 0.46496 0.0
O945 O 0.57396 0.59383 0.46158 0.0
O946 O 0.6518 0.56669 0.49889 0.0
O947 O 0.66075 0.61054 0.48767 0.0
O948 O 0.56139 0.61342 0.48502 0.0
O949 O 0.60542 0.63953 0.4807 0.0
O950 O 0.56288 0.53172 0.49821 0.0
O951 O 0.5876 0.57544 0.50543 0.0
H952 H 0.44626 0.52338 0.46773 0.0
H953 H 0.39987 0.56049 0.4729 0.0
H954 H 0.46033 0.60654 0.50076 0.0
H955 H 0.50675 0.56953 0.49539 0.0
H956 H 0.73593 0.6075 0.50019 0.0
H957 H 0.76088 0.6346 0.51781 0.0
H958 H 0.66238 0.64478 0.53391 0.0
H959 H 0.63764 0.61713 0.51623 0.0
Pr960 Pr 0.32938 0.36058 0.23619 0.0
Pr961 Pr 0.30382 0.32433 0.22875 0.0
C962 C 0.33665 0.4135 0.25097 0.0
C963 C 0.35114 0.42067 0.26292 0.0
C964 C 0.3855 0.41579 0.2653 0.0
C965 C 0.39867 0.42377 0.27664 0.0
C966 C 0.37764 0.43633 0.28579 0.0
C967 C 0.34319 0.44039 0.28347 0.0
C968 C 0.33011 0.43278 0.27212 0.0
C969 C 0.39184 0.32317 0.23287 0.0
C970 C 0.29789 0.3168 0.25884 0.0
C971 C 0.27818 0.26257 0.22599 0.0
C972 C 0.28889 0.23129 0.2317 0.0
C973 C 0.28216 0.2008 0.22601 0.0
C974 C 0.30177 0.17273 0.22866 0.0
C975 C 0.32873 0.17513 0.23688 0.0
C976 C 0.33201 0.20443 0.24381 0.0
C977 C 0.31232 0.23245 0.24118 0.0
C978 C 0.26617 0.37394 0.2133 0.0
C979 C 0.34303 0.36058 0.20861 0.0
O980 O 0.3097 0.39487 0.25087 0.0
O981 O 0.35746 0.40672 0.24214 0.0
O982 O 0.36213 0.31009 0.23477 0.0
O983 O 0.38783 0.3554 0.23186 0.0
O984 O 0.27811 0.31619 0.24924 0.0
O985 O 0.32638 0.3309 0.25578 0.0
O986 O 0.26475 0.28499 0.23312 0.0
O987 O 0.30044 0.27521 0.21869 0.0
O988 O 0.27953 0.3794 0.2241 0.0
O989 O 0.27207 0.34249 0.21119 0.0
O990 O 0.33771 0.38248 0.21713 0.0
O991 O 0.33777 0.32933 0.21146 0.0
H992 H 0.40227 0.40615 0.2584 0.0
H993 H 0.4253 0.42035 0.27825 0.0
H994 H 0.32652 0.45055 0.29031 0.0
H995 H 0.30357 0.43676 0.27048 0.0
H996 H 0.26421 0.19953 0.21867 0.0
H997 H 0.2985 0.15062 0.2231 0.0
H998 H 0.35229 0.20692 0.25027 0.0
H999 H 0.31792 0.2559 0.24566 0.0
Pr1000 Pr 0.45151 0.60103 1.01095 0.0
Pr1001 Pr 0.48906 0.57446 1.00387 0.0
C1002 C 0.39282 0.61073 1.02251 0.0
C1003 C 0.35802 0.60191 1.01964 0.0
C1004 C 0.33165 0.6187 1.02541 0.0
C1005 C 0.29846 0.61009 1.02289 0.0
C1006 C 0.29109 0.58446 1.01453 0.0
C1007 C 0.31768 0.56846 1.00845 0.0
C1008 C 0.3509 0.57726 1.01094 0.0
C1009 C 0.48925 0.66298 1.00758 0.0
C1010 C 0.49347 0.56571 1.03372 0.0
C1011 C 0.55185 0.55095 1.0 0.0
C1012 C 0.58041 0.56745 0.99428 0.0
C1013 C 0.60493 0.54838 0.98834 0.0
C1014 C 0.62644 0.56369 0.98007 0.0
C1015 C 0.62314 0.59809 0.97753 0.0
C1016 C 0.60092 0.61757 0.9845 0.0
C1017 C 0.57965 0.60232 0.9928 0.0
C1018 C 0.4389 0.53756 0.98831 0.0
C1019 C 0.45767 0.61676 0.98381 0.0
O1020 O 0.41307 0.58575 1.02493 0.0
O1021 O 0.40626 0.63306 1.01547 0.0
O1022 O 0.50234 0.63321 1.0093 0.0
O1023 O 0.45693 0.65944 1.00681 0.0
O1024 O 0.49412 0.54628 1.02398 0.0
O1025 O 0.48004 0.59479 1.03078 0.0
O1026 O 0.54208 0.56349 1.01029 0.0
O1027 O 0.52686 0.54511 0.99276 0.0
O1028 O 0.43378 0.55053 0.99923 0.0
O1029 O 0.47033 0.54364 0.98609 0.0
O1030 O 0.43393 0.60793 0.99119 0.0
O1031 O 0.48826 0.61297 0.98782 0.0
H1032 H 0.33673 0.63802 1.03205 0.0
H1033 H 0.27864 0.62247 1.02792 0.0
H1034 H 0.3128 0.54871 1.00196 0.0
H1035 H 0.37102 0.56442 1.00623 0.0
H1036 H 0.60579 0.52143 0.9894 0.0
H1037 H 0.64379 0.54818 0.97498 0.0
H1038 H 0.59752 0.64403 0.98273 0.0
H1039 H 0.56071 0.61742 0.99728 0.0
Pr1040 Pr 0.20366 0.68094 0.73556 0.0
Pr1041 Pr 0.23189 0.71602 0.72922 0.0
C1042 C 0.1905 0.62638 0.74897 0.0
C1043 C 0.19538 0.59051 0.75118 0.0
C1044 C 0.16974 0.57312 0.75706 0.0
C1045 C 0.17584 0.54144 0.76185 0.0
C1046 C 0.2078 0.5265 0.76081 0.0
C1047 C 0.23251 0.54278 0.75389 0.0
C1048 C 0.2264 0.57469 0.74915 0.0
C1049 C 0.14323 0.72114 0.73238 0.0
C1050 C 0.23703 0.72169 0.75902 0.0
C1051 C 0.26323 0.77556 0.72849 0.0
C1052 C 0.25535 0.80747 0.73445 0.0
C1053 C 0.27997 0.83194 0.73605 0.0
C1054 C 0.27058 0.86459 0.73927 0.0
C1055 C 0.23626 0.87341 0.74023 0.0
C1056 C 0.21267 0.84713 0.7407 0.0
C1057 C 0.2222 0.81452 0.73782 0.0
C1058 C 0.26814 0.66607 0.71326 0.0
C1059 C 0.1926 0.68872 0.70774 0.0
O1060 O 0.21603 0.64615 0.75091 0.0
O1061 O 0.17151 0.63565 0.73997 0.0
O1062 O 0.17335 0.73267 0.73486 0.0
O1063 O 0.14606 0.68909 0.7306 0.0
O1064 O 0.25759 0.72048 0.74968 0.0
O1065 O 0.20763 0.71032 0.75548 0.0
O1066 O 0.27281 0.75136 0.73557 0.0
O1067 O 0.24159 0.76587 0.72035 0.0
O1068 O 0.25357 0.66016 0.72384 0.0
O1069 O 0.26372 0.69794 0.7116 0.0
O1070 O 0.1965 0.66447 0.71551 0.0
O1071 O 0.19884 0.71872 0.71181 0.0
H1072 H 0.14565 0.58502 0.75871 0.0
H1073 H 0.15624 0.53005 0.76721 0.0
H1074 H 0.25718 0.53173 0.75272 0.0
H1075 H 0.24644 0.5877 0.74453 0.0
H1076 H 0.30606 0.82643 0.73405 0.0
H1077 H 0.29002 0.88338 0.73976 0.0
H1078 H 0.18611 0.85173 0.74184 0.0
H1079 H 0.20302 0.79543 0.73718 0.0
Pr1080 Pr 0.12253 0.48105 0.50864 0.0
Pr1081 Pr 0.09134 0.50299 0.50071 0.0
C1082 C 0.16313 0.50743 0.52532 0.0
C1083 C 0.15798 0.51551 0.53827 0.0
C1084 C 0.15801 0.49026 0.54707 0.0
C1085 C 0.15053 0.49788 0.55911 0.0
C1086 C 0.14264 0.5309 0.56264 0.0
C1087 C 0.14235 0.5561 0.55381 0.0
C1088 C 0.15015 0.54853 0.54179 0.0
C1089 C 0.08919 0.41667 0.50843 0.0
C1090 C 0.077 0.51075 0.53043 0.0
C1091 C 0.03264 0.51734 0.4894 0.0
C1092 C 1.00834 0.4961 0.48307 0.0
C1093 C 0.98496 0.51047 0.47518 0.0
C1094 C 0.96449 0.49007 0.46806 0.0
C1095 C 0.96715 0.45491 0.46869 0.0
C1096 C 0.99003 0.44067 0.47688 0.0
C1097 C 1.0105 0.4611 0.48398 0.0
C1098 C 0.14367 0.54246 0.48722 0.0
C1099 C 0.13449 0.44481 0.48626 0.0
O1100 O 0.14568 0.52588 0.51776 0.0
O1101 O 0.1647 0.47562 0.52221 0.0
O1102 O 0.0746 0.4458 0.50661 0.0
O1103 O 0.12124 0.42158 0.51044 0.0
O1104 O 0.07918 0.53056 0.52083 0.0
O1105 O 0.08921 0.48133 0.52741 0.0
O1106 O 0.03512 0.51317 0.50102 0.0
O1107 O 0.06178 0.51941 0.48425 0.0
O1108 O 0.14329 0.51088 0.49018 0.0
O1109 O 0.11852 0.5549 0.49344 0.0
O1110 O 0.15452 0.45134 0.49524 0.0
O1111 O 0.10461 0.45915 0.48663 0.0
H1112 H 0.16374 0.46455 0.5447 0.0
H1113 H 0.1519 0.47793 0.56569 0.0
H1114 H 0.13629 0.58174 0.55619 0.0
H1115 H 0.1496 0.56854 0.5352 0.0
H1116 H 0.98329 0.53742 0.47426 0.0
H1117 H 0.94753 0.50188 0.46171 0.0
H1118 H 0.99248 0.41375 0.47769 0.0
H1119 H 0.02863 0.44953 0.48994 0.0
Pr1120 Pr 0.35211 0.6967 0.39538 0.0
Pr1121 Pr 0.3238 0.73552 0.40184 0.0
C1122 C 0.36568 0.63689 0.38518 0.0
C1123 C 0.38254 0.6167 0.3759 0.0
C1124 C 0.3968 0.58604 0.37934 0.0
C1125 C 0.40838 0.56356 0.37061 0.0
C1126 C 0.40586 0.57144 0.35829 0.0
C1127 C 0.39346 0.60311 0.3549 0.0
C1128 C 0.38177 0.6256 0.36365 0.0
C1129 C 0.4125 0.73739 0.39829 0.0
C1130 C 0.31957 0.73724 0.3715 0.0
C1131 C 0.29297 0.79561 0.40299 0.0
C1132 C 0.29936 0.82674 0.39641 0.0
C1133 C 0.28871 0.85717 0.40136 0.0
C1134 C 0.30406 0.88687 0.39778 0.0
C1135 C 0.33084 0.88625 0.3894 0.0
C1136 C 0.33697 0.85646 0.38296 0.0
C1137 C 0.32174 0.82671 0.3866 0.0
C1138 C 0.2866 0.68541 0.41725 0.0
C1139 C 0.3627 0.70769 0.42336 0.0
O1140 O 0.34016 0.65563 0.38201 0.0
O1141 O 0.38396 0.64979 0.39376 0.0
O1142 O 0.38239 0.74887 0.39562 0.0
O1143 O 0.40969 0.70544 0.40013 0.0
O1144 O 0.30068 0.74251 0.38113 0.0
O1145 O 0.34672 0.72024 0.37461 0.0
O1146 O 0.28145 0.7707 0.39661 0.0
O1147 O 0.317 0.78664 0.41033 0.0
O1148 O 0.30026 0.68017 0.40648 0.0
O1149 O 0.29237 0.7168 0.41946 0.0
O1150 O 0.35789 0.6833 0.41571 0.0
O1151 O 0.357 0.73777 0.41929 0.0
H1152 H 0.39762 0.57883 0.38877 0.0
H1153 H 0.41813 0.53949 0.37348 0.0
H1154 H 0.39093 0.60971 0.34545 0.0
H1155 H 0.37088 0.64921 0.36082 0.0
H1156 H 0.27118 0.85765 0.40885 0.0
H1157 H 0.29805 0.90928 0.40288 0.0
H1158 H 0.35671 0.85526 0.37623 0.0
H1159 H 0.33012 0.8034 0.38259 0.0
Pr1160 Pr 0.10465 0.58075 0.12127 0.0
Pr1161 Pr 0.07452 0.55797 0.12878 0.0
C1162 C 0.1473 0.55916 0.10428 0.0
C1163 C 0.14368 0.55435 0.09108 0.0
C1164 C 0.14605 0.58162 0.08316 0.0
C1165 C 0.14203 0.57704 0.07075 0.0
C1166 C 0.13551 0.54506 1.06592 0.0
C1167 C 0.13199 0.51797 0.07389 0.0
C1168 C 0.13623 0.52252 0.08632 0.0
C1169 C 0.07049 0.64496 0.12214 0.0
C1170 C 0.06061 0.55146 0.09914 0.0
C1171 C 1.01403 0.54196 0.13818 0.0
C1172 C 0.98765 0.56308 0.14341 0.0
C1173 C 0.95558 0.55026 0.14553 0.0
C1174 C 0.93195 0.56942 0.15188 0.0
C1175 C 0.9404 0.6014 0.15634 0.0
C1176 C 0.97183 0.61495 0.15332 0.0
C1177 C 0.99513 0.59601 0.14686 0.0
C1178 C 0.12605 0.51844 0.14274 0.0
C1179 C 0.1157 0.61551 0.14407 0.0
O1180 O 0.13002 0.53856 0.11108 0.0
O1181 O 0.1475 0.5901 0.10835 0.0
O1182 O 0.05643 0.61566 0.12382 0.0
O1183 O 0.10251 0.64036 0.11997 0.0
O1184 O 0.06487 0.53082 0.1084 0.0
O1185 O 0.07055 0.5812 0.10265 0.0
O1186 O 1.01919 0.54566 0.12667 0.0
O1187 O 0.04186 0.54089 0.14429 0.0
O1188 O 0.12629 0.54978 0.13944 0.0
O1189 O 0.10058 0.50614 0.13675 0.0
O1190 O 0.13546 0.6102 0.13492 0.0
O1191 O 0.08642 0.60017 0.14377 0.0
H1192 H 0.15155 0.60652 0.0865 0.0
H1193 H 0.14573 0.59841 1.0649 0.0
H1194 H 0.12677 0.49307 0.07049 0.0
H1195 H 0.13383 0.50104 0.09221 0.0
H1196 H 0.94926 0.52507 0.1427 0.0
H1197 H 0.90766 0.55854 0.15378 0.0
H1198 H 0.97951 0.63925 0.15665 0.0
H1199 H 1.01967 0.60649 0.14511 0.0
Pr1200 Pr 0.23302 0.37525 0.89501 0.0
Pr1201 Pr 0.25845 0.34377 0.90255 0.0
C1202 C 0.237 0.42142 0.87749 0.0
C1203 C 0.23498 0.42094 0.86413 0.0
C1204 C 0.20738 0.43532 0.85819 0.0
C1205 C 0.20588 0.43554 0.84556 0.0
C1206 C 0.232 0.42139 0.83863 0.0
C1207 C 0.25924 0.40637 0.84459 0.0
C1208 C 0.26085 0.40637 0.85718 0.0
C1209 C 0.16984 0.34037 0.89804 0.0
C1210 C 0.26504 0.33156 0.873 0.0
C1211 C 0.28185 0.28126 0.90596 0.0
C1212 C 0.26893 0.24957 0.90127 0.0
C1213 C 0.27607 0.21979 0.90735 0.0
C1214 C 0.25619 0.19163 0.90537 0.0
C1215 C 0.22863 0.19316 0.89739 0.0
C1216 C 0.22408 0.22195 0.89031 0.0
C1217 C 0.24411 0.25002 0.89226 0.0
C1218 C 0.2965 0.39267 0.91816 0.0
C1219 C 0.21551 0.38175 0.92193 0.0
O1220 O 0.26328 0.40664 0.88222 0.0
O1221 O 0.20926 0.41619 0.88357 0.0
O1222 O 0.19982 0.32647 0.89756 0.0
O1223 O 0.17363 0.37284 0.89766 0.0
O1224 O 0.28575 0.33823 0.88205 0.0
O1225 O 0.2348 0.33931 0.87677 0.0
O1226 O 0.29463 0.30161 0.898 0.0
O1227 O 0.26167 0.29631 0.91353 0.0
O1228 O 0.27511 0.39981 0.9094 0.0
O1229 O 0.29919 0.36028 0.91786 0.0
O1230 O 0.21759 0.40188 0.91272 0.0
O1231 O 0.22553 0.35096 0.92005 0.0
H1232 H 0.18721 0.44688 0.86331 0.0
H1233 H 0.1848 0.44782 0.84123 0.0
H1234 H 0.27957 0.39493 0.83953 0.0
H1235 H 0.28264 0.39516 0.86141 0.0
H1236 H 0.29502 0.21914 0.91437 0.0
H1237 H 0.26023 0.16999 0.91107 0.0
H1238 H 0.20322 0.22377 0.88406 0.0
H1239 H 0.23826 0.27293 0.88748 0.0
Pr1240 Pr 0.42874 0.45982 0.62088 0.0
Pr1241 Pr 0.46254 0.48646 0.62759 0.0
C1242 C 0.37086 0.47009 0.60922 0.0
C1243 C 0.33681 0.48019 0.613 0.0
C1244 C 0.30913 0.46303 0.60835 0.0
C1245 C 0.27661 0.47295 0.61145 0.0
C1246 C 0.27105 0.50037 0.61926 0.0
C1247 C 0.29893 0.51662 0.62434 0.0
C1248 C 0.33154 0.50655 0.62127 0.0
C1249 C 0.4656 0.39758 0.62139 0.0
C1250 C 0.47096 0.4923 0.59777 0.0
C1251 C 0.52204 0.50927 0.63601 0.0
C1252 C 0.54827 0.49396 0.64339 0.0
C1253 C 0.56971 0.51433 0.65016 0.0
C1254 C 0.59023 0.50022 0.65901 0.0
C1255 C 0.58928 0.46557 0.66126 0.0
C1256 C 0.56929 0.44501 0.6539 0.0
C1257 C 0.54886 0.45914 0.64504 0.0
C1258 C 0.40861 0.52359 0.64167 0.0
C1259 C 0.43494 0.43115 0.64612 0.0
O1260 O 0.39435 0.49303 0.61 0.0
O1261 O 0.38068 0.44027 0.61268 0.0
O1262 O 0.47904 0.42767 0.62201 0.0
O1263 O 0.43306 0.40072 0.62051 0.0
O1264 O 0.47081 0.51248 0.60727 0.0
O1265 O 0.45782 0.46342 0.60101 0.0
O1266 O 0.51811 0.49711 0.62519 0.0
O1267 O 0.49367 0.51378 0.64155 0.0
O1268 O 0.41142 0.49182 0.63919 0.0
O1269 O 0.4315 0.53696 0.63471 0.0
O1270 O 0.411 0.43368 0.63818 0.0
O1271 O 0.46261 0.44759 0.64379 0.0
H1272 H 0.31264 0.44247 0.60206 0.0
H1273 H 0.25583 0.46024 0.60713 0.0
H1274 H 0.29554 0.53775 0.63038 0.0
H1275 H 0.35255 0.51993 0.62512 0.0
H1276 H 0.56938 0.54127 0.649 0.0
H1277 H 0.60581 0.51656 0.66444 0.0
H1278 H 0.56781 0.41831 0.65549 0.0
H1279 H 0.53222 0.44308 0.63991 0.0
H1280 H 0.1641 0.37954 0.41282 0.0
H1281 H 0.19452 0.41295 0.4832 0.0
H1282 H 0.25256 0.34674 0.43205 0.0
H1283 H 0.10153 0.43577 0.4649 0.0
H1284 H 0.21658 0.38914 0.46447 0.0
H1285 H 0.14164 0.40246 0.43167 0.0
C1286 C 0.17887 0.37736 0.421 0.0
C1287 C 0.2102 0.36118 0.42089 0.0
C1288 C 0.19127 0.39914 0.46456 0.0
C1289 C 0.18467 0.38718 0.44245 0.0
C1290 C 0.17861 0.41258 0.47526 0.0
C1291 C 0.14622 0.42639 0.47555 0.0
C1292 C 0.17142 0.39972 0.45408 0.0
C1293 C 0.12666 0.42533 0.46504 0.0
C1294 C 0.16603 0.39037 0.43175 0.0
C1295 C 0.22849 0.35939 0.4317 0.0
N1296 N 0.13967 0.41243 0.45468 0.0
N1297 N 0.21537 0.37211 0.44206 0.0
H1298 H 0.92189 0.91441 0.64133 0.0
H1299 H 0.8223 0.92896 0.70219 0.0
H1300 H 0.88837 1.00599 0.65841 0.0
H1301 H 0.86852 0.83776 0.68928 0.0
H1302 H 0.82789 0.95311 0.68222 0.0
H1303 H 0.88291 0.88317 0.65404 0.0
C1304 C 0.90562 0.92816 0.64744 0.0
C1305 C 0.91032 0.96265 0.64945 0.0
C1306 C 0.83668 0.92773 0.68366 0.0
C1307 C 0.86534 0.92724 0.6637 0.0
C1308 C 0.83391 0.91406 0.69512 0.0
C1309 C 0.84627 0.88182 0.69746 0.0
C1310 C 0.85294 0.90951 0.67452 0.0
C1311 C 0.85964 0.86311 0.68787 0.0
C1312 C 0.88337 0.91023 0.65468 0.0
C1313 C 0.88696 0.9793 0.65686 0.0
N1314 N 0.86345 0.87757 0.67683 0.0
N1315 N 0.86621 0.96129 0.66401 0.0
H1316 H 0.34335 0.64764 0.92006 0.0
H1317 H 0.49424 0.65406 0.96752 0.0
H1318 H 0.42199 0.72161 0.91844 0.0
H1319 H 0.4028 0.59757 0.97151 0.0
H1320 H 0.47606 0.67019 0.94702 0.0
H1321 H 0.37407 0.61883 0.93593 0.0
C1322 C 0.36745 0.65745 0.92284 0.0
C1323 C 0.37973 0.6875 0.91809 0.0
C1324 C 0.46028 0.65396 0.95238 0.0
C1325 C 0.41461 0.65515 0.93656 0.0
C1326 C 0.4706 0.64487 0.96403 0.0
C1327 C 0.44958 0.6252 0.97124 0.0
C1328 C 0.42913 0.64269 0.948 0.0
C1329 C 0.41937 0.6135 0.96634 0.0
C1330 C 0.38487 0.64115 0.93201 0.0
C1331 C 0.41112 0.69903 0.92213 0.0
N1332 N 0.41001 0.62255 0.95507 0.0
N1333 N 0.42726 0.68315 0.9313 0.0
H1334 H 0.71751 0.13297 0.19605 0.0
H1335 H 0.6177 0.15484 0.13999 0.0
H1336 H 0.67005 0.22831 0.18916 0.0
H1337 H 0.70224 0.08708 0.14157 0.0
H1338 H 0.64504 0.19107 0.15442 0.0
H1339 H 0.71925 0.12188 0.17459 0.0
C1340 C 0.70732 0.15163 0.18998 0.0
C1341 C 0.69287 0.18127 0.1944 0.0
C1342 C 0.65837 0.16901 0.15127 0.0
C1343 C 0.69446 0.16853 0.1696 0.0
C1344 C 0.64285 0.1482 0.14285 0.0
C1345 C 0.65666 0.11647 0.14023 0.0
C1346 C 0.68753 0.15767 0.15706 0.0
C1347 C 0.68977 0.11033 0.14395 0.0
C1348 C 0.70882 0.14551 0.17766 0.0
C1349 C 0.68075 0.20483 0.18609 0.0
N1350 N 0.70352 0.12994 0.15266 0.0
N1351 N 0.68097 0.19755 0.17404 0.0
H1352 H 0.15743 0.69033 0.21621 0.0
H1353 H 0.1706 0.65508 0.1452 0.0
H1354 H 0.2436 0.71298 0.19406 0.0
H1355 H 0.08783 0.61952 0.16677 0.0
H1356 H 0.19454 0.68119 0.16304 0.0
H1357 H 0.12903 0.66761 0.19831 0.0
C1358 C 0.17039 0.69038 0.20761 0.0
C1359 C 0.20303 0.70327 0.20663 0.0
C1360 C 0.17106 0.66784 0.16392 0.0
C1361 C 0.17074 0.67777 0.18621 0.0
C1362 C 0.15729 0.65303 0.15371 0.0
C1363 C 0.12736 0.63491 0.15456 0.0
C1364 C 0.1549 0.66444 0.17512 0.0
C1365 C 0.11103 0.63328 0.16577 0.0
C1366 C 0.1542 0.67744 0.19742 0.0
C1367 C 0.21873 0.7027 0.1953 0.0
N1368 N 0.12519 0.64767 0.17569 0.0
N1369 N 0.20241 0.69026 0.18555 0.0
H1370 H 0.73385 0.93929 0.43375 0.0
H1371 H 0.64319 0.90962 0.49571 0.0
H1372 H 0.68699 0.84611 0.44372 0.0
H1373 H 0.67402 1.00484 0.48105 0.0
H1374 H 0.67974 0.88152 0.48115 0.0
H1375 H 0.73114 0.95763 0.45459 0.0
C1376 C 0.72266 0.9227 0.44034 0.0
C1377 C 0.70943 0.89159 0.43694 0.0
C1378 C 0.67902 0.90863 0.48139 0.0
C1379 C 0.70604 0.91276 0.46095 0.0
C1380 C 0.65795 0.92486 0.48965 0.0
C1381 C 0.65219 0.95963 0.48868 0.0
C1382 C 0.69554 0.92767 0.47261 0.0
C1383 C 0.67512 0.97788 0.48164 0.0
C1384 C 0.72156 0.93307 0.4523 0.0
C1385 C 0.69658 0.87068 0.44596 0.0
N1386 N 0.69487 0.96162 0.47356 0.0
N1387 N 0.69442 0.882 0.45756 0.0
H1388 H 0.38524 0.38793 0.65155 0.0
H1389 H 0.41244 0.39482 0.72297 0.0
H1390 H 0.46824 0.4412 0.66753 0.0
H1391 H 0.32094 0.36469 0.70514 0.0
H1392 H 0.43666 0.4083 0.70314 0.0
H1393 H 0.36607 0.37253 0.67161 0.0
C1394 C 0.39972 0.39595 0.65932 0.0
C1395 C 0.42811 0.41611 0.65794 0.0
C1396 C 0.41117 0.39908 0.70365 0.0
C1397 C 0.40592 0.39924 0.68096 0.0
C1398 C 0.39732 0.39154 0.71492 0.0
C1399 C 0.36456 0.3788 0.71571 0.0
C1400 C 0.3922 0.39338 0.69316 0.0
C1401 C 0.34603 0.375 0.70503 0.0
C1402 C 0.38862 0.38741 0.67078 0.0
C1403 C 0.44616 0.42561 0.66827 0.0
N1404 N 0.36021 0.382 0.69423 0.0
N1405 N 0.43452 0.41738 0.67943 0.0
H1406 H 0.94241 0.15111 0.98823 0.0
H1407 H 0.84386 0.14418 0.93182 0.0
H1408 H 0.85527 0.08807 0.98488 0.0
H1409 H 0.89078 0.23767 0.94147 0.0
H1410 H 0.84145 0.12901 0.9529 0.0
H1411 H 0.91651 0.19147 0.97484 0.0
C1412 C 0.91705 0.14637 0.9852 0.0
C1413 C 0.90189 0.115 0.98701 0.0
C1414 C 0.85191 0.1531 0.95053 0.0
C1415 C 0.87258 0.16088 0.97144 0.0
C1416 C 0.85382 0.16156 0.93842 0.0
C1417 C 0.86829 0.19189 0.93489 0.0
C1418 C 0.86601 0.17437 0.95924 0.0
C1419 C 0.88007 0.21372 0.94387 0.0
C1420 C 0.90231 0.16955 0.97742 0.0
C1421 C 0.86863 0.11111 0.98314 0.0
N1422 N 0.87959 0.2041 0.95568 0.0
N1423 N 0.85556 0.13312 0.97507 0.0
H1424 H 0.84035 0.61255 0.73388 0.0
H1425 H 0.995 0.64465 0.69092 0.0
H1426 H 0.90298 0.70016 0.73603 0.0
H1427 H 0.90721 0.58459 0.68415 0.0
H1428 H 0.97747 0.64981 0.7123 0.0
H1429 H 0.88394 0.58466 0.72199 0.0
C1430 C 0.86379 0.62548 0.73227 0.0
C1431 C 0.86723 0.65937 0.73532 0.0
C1432 C 0.96272 0.63476 0.70614 0.0
C1433 C 0.91654 0.62814 0.72153 0.0
C1434 C 0.97248 0.63214 0.69399 0.0
C1435 C 0.95197 0.61499 0.68578 0.0
C1436 C 0.9329 0.61926 0.70999 0.0
C1437 C 0.92336 0.59868 0.69013 0.0
C1438 C 0.88862 0.60963 0.72544 0.0
C1439 C 0.89864 0.67446 0.73341 0.0
N1440 N 0.91463 0.60136 0.70189 0.0
N1441 N 0.92166 0.65924 0.72618 0.0
H1442 H 0.1604 0.07065 0.46225 0.0
H1443 H 0.18248 0.22609 0.41788 0.0
H1444 H 0.14176 0.17248 0.4739 0.0
H1445 H 0.18373 0.12165 0.40764 0.0
H1446 H 0.17593 0.20914 0.43915 0.0
H1447 H 0.18198 0.09155 0.44335 0.0
C1448 C 0.1616 0.0975 0.46103 0.0
C1449 C 0.14833 0.11973 0.46965 0.0
C1450 C 0.17771 0.19009 0.43219 0.0
C1451 C 0.17163 0.14384 0.44757 0.0
C1452 C 0.18108 0.19973 0.42009 0.0
C1453 C 0.18329 0.17524 0.41101 0.0
C1454 C 0.17694 0.15585 0.4351 0.0
C1455 C 0.18187 0.14144 0.41432 0.0
C1456 C 0.17347 0.10945 0.45007 0.0
C1457 C 0.15058 0.15431 0.46734 0.0
N1458 N 0.17885 0.13282 0.42606 0.0
N1459 N 0.16127 0.16534 0.45639 0.0
H1460 H 0.58324 0.43177 0.19117 0.0
H1461 H 0.73448 0.43513 0.23704 0.0
H1462 H 0.67898 0.48009 0.18641 0.0
H1463 H 0.65555 0.36142 0.23729 0.0
H1464 H 0.69933 0.47088 0.22437 0.0
H1465 H 0.59702 0.42295 0.21263 0.0
C1466 C 0.60694 0.44075 0.19468 0.0
C1467 C 0.63056 0.45555 0.187 0.0
C1468 C 0.68926 0.44737 0.22758 0.0
C1469 C 0.6458 0.44687 0.21138 0.0
C1470 C 0.70925 0.42705 0.23487 0.0
C1471 C 0.69875 0.39446 0.23762 0.0
C1472 C 0.65888 0.43472 0.22305 0.0
C1473 C 0.66531 0.38585 0.23501 0.0
C1474 C 0.61461 0.43609 0.2069 0.0
C1475 C 0.66056 0.46754 0.19196 0.0
N1476 N 0.64696 0.40532 0.22744 0.0
N1477 N 0.66744 0.46267 0.20381 0.0
H1478 H 0.39929 0.92862 0.89462 0.0
H1479 H 0.44303 0.90968 0.96482 0.0
H1480 H 0.37046 0.84239 0.91557 0.0
H1481 H 0.46589 0.99655 0.94324 0.0
H1482 H 0.41841 0.88299 0.94694 0.0
H1483 H 0.42696 0.95183 0.91231 0.0
C1484 C 0.39903 0.91443 0.90295 0.0
C1485 C 0.3824 0.88367 0.90368 0.0
C1486 C 0.42874 0.90793 0.94615 0.0
C1487 C 0.41377 0.91028 0.92405 0.0
C1488 C 0.44278 0.92315 0.95634 0.0
C1489 C 0.45629 0.95549 0.95554 0.0
C1490 C 0.42844 0.92515 0.93511 0.0
C1491 C 0.45519 0.97188 0.94435 0.0
C1492 C 0.41475 0.92775 0.91307 0.0
C1493 C 0.383 0.86625 0.91466 0.0
N1494 N 0.44159 0.95651 0.9346 0.0
N1495 N 0.39826 0.87994 0.92449 0.0
H1496 H 0.89012 0.38263 0.88924 0.0
H1497 H 0.86393 0.4616 0.95059 0.0
H1498 H 0.80847 0.45143 0.89618 0.0
H1499 H 0.96285 0.43035 0.93919 0.0
H1500 H 0.8467 0.46491 0.92958 0.0
H1501 H 0.92309 0.41044 0.90449 0.0
C1502 C 0.87934 0.40455 0.89354 0.0
C1503 C 0.84511 0.41276 0.89217 0.0
C1504 C 0.8723 0.45758 0.93161 0.0
C1505 C 0.88283 0.44406 0.90994 0.0
C1506 C 0.88195 0.45495 0.94364 0.0
C1507 C 0.91458 0.44462 0.94663 0.0
C1508 C 0.89511 0.44889 0.92244 0.0
C1509 C 0.9372 0.43759 0.93724 0.0
C1510 C 0.89834 0.42026 0.90245 0.0
C1511 C 0.83386 0.44255 0.89764 0.0
N1512 N 0.92683 0.43917 0.92553 0.0
N1513 N 0.85197 0.45611 0.90681 0.0
H1514 H 0.37819 0.09992 0.66535 0.0
H1515 H 0.40763 0.2392 0.71623 0.0
H1516 H 0.46354 0.16616 0.66501 0.0
H1517 H 0.35171 0.14769 0.72061 0.0
H1518 H 0.41739 0.22406 0.69484 0.0
H1519 H 0.35574 0.13058 0.68271 0.0
C1520 C 0.39184 0.12133 0.66878 0.0
C1521 C 0.42309 0.13004 0.66393 0.0
C1522 C 0.4027 0.20764 0.70052 0.0
C1523 C 0.39783 0.16494 0.68379 0.0
C1524 C 0.39731 0.21615 0.71266 0.0
C1525 C 0.37957 0.19425 0.72018 0.0
C1526 C 0.38946 0.17756 0.69596 0.0
C1527 C 0.36623 0.16491 0.71518 0.0
C1528 C 0.37908 0.13879 0.67868 0.0
C1529 C 0.43942 0.15849 0.66854 0.0
N1530 N 0.37149 0.15742 0.70341 0.0
N1531 N 0.42691 0.17459 0.6784 0.0
H1532 H 0.72775 0.62751 0.39825 0.0
H1533 H 0.57041 0.63778 0.44148 0.0
H1534 H 0.65838 0.71072 0.39939 0.0
H1535 H 0.65555 0.57135 0.44474 0.0
H1536 H 0.58928 0.65236 0.42093 0.0
H1537 H 0.68663 0.59345 0.40897 0.0
C1538 C 0.70339 0.63822 0.40035 0.0
C1539 C 0.69696 0.67227 0.39836 0.0
C1540 C 0.60329 0.634 0.42608 0.0
C1541 C 0.65043 0.63403 0.4109 0.0
C1542 C 0.59267 0.62591 0.43778 0.0
C1543 C 0.61215 0.60427 0.44486 0.0
C1544 C 0.63315 0.6198 0.42152 0.0
C1545 C 0.64043 0.58898 0.43967 0.0
C1546 C 0.67998 0.61888 0.40653 0.0
C1547 C 0.66469 0.68472 0.40099 0.0
N1548 N 0.65024 0.59727 0.42838 0.0
N1549 N 0.64298 0.66592 0.40752 0.0
H1550 H 0.18867 0.8477 0.21503 0.0
H1551 H 0.09897 1.00248 0.18237 0.0
H1552 H 0.16382 0.94089 0.23283 0.0
H1553 H 0.12739 0.91141 0.16383 0.0
H1554 H 0.12272 0.98008 0.20097 0.0
H1555 H 0.16439 0.86951 0.19632 0.0
C1556 C 0.17773 0.87258 0.21503 0.0
C1557 C 0.17831 0.89261 0.22545 0.0
C1558 C 0.12392 0.96502 0.19283 0.0
C1559 C 0.15101 0.91782 0.20413 0.0
C1560 C 0.11071 0.97797 0.18217 0.0
C1561 C 0.11125 0.95879 0.17154 0.0
C1562 C 0.13772 0.93261 0.19287 0.0
C1563 C 0.12615 0.92689 0.17187 0.0
C1564 C 0.1641 0.8851 0.20434 0.0
C1565 C 0.16395 0.92467 0.22498 0.0
N1566 N 0.13871 0.91473 0.18238 0.0
N1567 N 0.15102 0.93635 0.21447 0.0
H1568 H 0.69247 0.90927 0.98119 0.0
H1569 H 0.65722 0.88273 0.9107 0.0
H1570 H 0.59965 0.93852 0.96398 0.0
H1571 H 0.74937 0.85499 0.9287 0.0
H1572 H 0.63541 0.90404 0.92995 0.0
H1573 H 0.71288 0.88799 0.9619 0.0
C1574 C 0.67623 0.91082 0.97336 0.0
C1575 C 0.64443 0.92574 0.97413 0.0
C1576 C 0.6605 0.89354 0.92963 0.0
C1577 C 0.66777 0.90199 0.95199 0.0
C1578 C 0.67297 0.88149 0.91866 0.0
C1579 C 0.70518 0.86717 0.9181 0.0
C1580 C 0.68038 0.89105 0.94007 0.0
C1581 C 0.72463 0.86632 0.92865 0.0
C1582 C 0.68796 0.89888 0.96233 0.0
C1583 C 0.62437 0.92714 0.96374 0.0
N1584 N 0.71184 0.8779 0.93921 0.0
N1585 N 0.63649 0.91559 0.95303 0.0
H1586 H 0.36881 0.32681 0.18882 0.0
H1587 H 0.38261 0.4973 0.15604 0.0
H1588 H 0.32196 0.41969 0.19973 0.0
H1589 H 0.42765 0.40657 0.14208 0.0
H1590 H 0.34245 0.46402 0.16699 0.0
H1591 H 0.37637 0.35001 0.1684 0.0
C1592 C 0.35991 0.35188 0.18688 0.0
C1593 C 0.34611 0.37193 0.19603 0.0
C1594 C 0.36069 0.45121 0.16136 0.0
C1595 C 0.35355 0.39812 0.17284 0.0
C1596 C 0.38354 0.4704 0.15489 0.0
C1597 C 0.41026 0.45471 0.14881 0.0
C1598 C 0.36543 0.41635 0.16204 0.0
C1599 C 0.40893 0.41968 0.14741 0.0
C1600 C 0.36384 0.36498 0.17523 0.0
C1601 C 0.33402 0.40386 0.19304 0.0
N1602 N 0.38801 0.40148 0.15449 0.0
N1603 N 0.33835 0.41603 0.18177 0.0
H1604 H 0.98281 0.12213 0.46278 0.0
H1605 H 0.81358 0.17211 0.42861 0.0
H1606 H 0.89095 0.15512 0.47982 0.0
H1607 H 0.9081 0.16593 0.40951 0.0
H1608 H 0.84202 0.15708 0.44709 0.0
H1609 H 0.95732 0.13359 0.44287 0.0
C1610 C 0.95766 0.13246 0.46232 0.0
C1611 C 0.9388 0.13762 0.47288 0.0
C1612 C 0.85665 0.15881 0.43886 0.0
C1613 C 0.90951 0.14969 0.45044 0.0
C1614 C 0.84024 0.16682 0.4282 0.0
C1615 C 0.85842 0.17047 0.41744 0.0
C1616 C 0.89165 0.15459 0.43888 0.0
C1617 C 0.89318 0.16393 0.41765 0.0
C1618 C 0.94304 0.13861 0.45102 0.0
C1619 C 0.90622 0.15055 0.47188 0.0
N1620 N 0.90881 0.15656 0.42826 0.0
N1621 N 0.89257 0.15588 0.46088 0.0
H1622 H 0.20686 0.57972 0.64355 0.0
H1623 H 0.17219 0.72929 0.68899 0.0
H1624 H 0.12529 0.65022 0.6394 0.0
H1625 H 0.21464 0.63218 0.69686 0.0
H1626 H 0.17384 0.71515 0.66725 0.0
H1627 H 0.23238 0.61742 0.6583 0.0
C1628 C 0.19505 0.60375 0.64529 0.0
C1629 C 0.16258 0.61053 0.64098 0.0
C1630 C 0.18336 0.69737 0.6738 0.0
C1631 C 0.19148 0.65348 0.65769 0.0
C1632 C 0.18195 0.70517 0.68614 0.0
C1633 C 0.19229 0.68144 0.6947 0.0
C1634 C 0.19617 0.66611 0.67011 0.0
C1635 C 0.20549 0.65086 0.69059 0.0
C1636 C 0.20952 0.62516 0.65377 0.0
C1637 C 0.14947 0.64289 0.643 0.0
N1638 N 0.20697 0.64408 0.67862 0.0
N1639 N 0.16321 0.66265 0.65166 0.0
H1640 H 0.66884 0.15845 0.64401 0.0
H1641 H 0.66266 0.18813 0.71549 0.0
H1642 H 0.58868 0.12089 0.66638 0.0
H1643 H 0.74406 0.21836 0.69223 0.0
H1644 H 0.63286 0.16627 0.69776 0.0
H1645 H 0.69375 0.18478 0.66166 0.0
C1646 C 0.65629 0.15604 0.65265 0.0
C1647 C 0.62683 0.13728 0.65378 0.0
C1648 C 0.65727 0.17763 0.69658 0.0
C1649 C 0.65551 0.16699 0.67412 0.0
C1650 C 0.67427 0.19008 0.70667 0.0
C1651 C 0.70602 0.20479 0.70534 0.0
C1652 C 0.6721 0.18019 0.6851 0.0
C1653 C 0.71997 0.20661 0.69373 0.0
C1654 C 0.6706 0.17098 0.66275 0.0
C1655 C 0.61147 0.13518 0.66516 0.0
N1656 N 0.70291 0.19452 0.68408 0.0
N1657 N 0.6262 0.14962 0.67496 0.0
H1658 H 0.20776 0.34753 0.94336 0.0
H1659 H 0.16967 0.5176 0.97654 0.0
H1660 H 0.21356 0.44703 0.92839 0.0
H1661 H 0.14854 0.42154 0.99272 0.0
H1662 H 0.20743 0.49056 0.96268 0.0
H1663 H 0.20169 0.37244 0.96363 0.0
C1664 C 0.20767 0.37452 0.94434 0.0
C1665 C 0.21016 0.39529 0.93417 0.0
C1666 C 0.19478 0.47532 0.96935 0.0
C1667 C 0.20475 0.4237 0.95719 0.0
C1668 C 0.17323 0.49091 0.97752 0.0
C1669 C 0.15282 0.47152 0.98515 0.0
C1670 C 0.19547 0.44025 0.9687 0.0
C1671 C 0.16102 0.43726 0.98619 0.0
C1672 C 0.20471 0.38867 0.95588 0.0
C1673 C 0.21078 0.43003 0.93592 0.0
N1674 N 0.18038 0.4223 0.97759 0.0
N1675 N 0.20796 0.44307 0.94717 0.0
H1676 H 0.97492 0.93054 0.16763 0.0
H1677 H 0.81837 0.90265 0.21153 0.0
H1678 H 0.8705 0.93232 0.15713 0.0
H1679 H 0.92071 0.88701 0.2233 0.0
H1680 H 0.83906 0.92421 0.19258 0.0
H1681 H 0.95736 0.92127 0.18871 0.0
C1682 C 0.94843 0.92869 0.16974 0.0
C1683 C 0.92413 0.9319 0.16064 0.0
C1684 C 0.85711 0.91636 0.19933 0.0
C1685 C 0.90403 0.92229 0.18454 0.0
C1686 C 0.84527 0.90449 0.21031 0.0
C1687 C 0.86776 0.89235 0.21902 0.0
C1688 C 0.89171 0.91572 0.19691 0.0
C1689 C 0.90239 0.89517 0.2167 0.0
C1690 C 0.93844 0.92374 0.18174 0.0
C1691 C 0.89015 0.92979 0.16383 0.0
N1692 N 0.91336 0.90602 0.20576 0.0
N1693 N 0.88118 0.92518 0.17548 0.0
H1694 H 0.44703 0.65232 0.48711 0.0
H1695 H 0.3325 0.65585 0.43413 0.0
H1696 H 0.35778 0.59202 0.48488 0.0
H1697 H 0.39293 0.74242 0.44215 0.0
H1698 H 0.33313 0.64055 0.45513 0.0
H1699 H 0.41985 0.69513 0.47504 0.0
C1700 C 0.4211 0.64864 0.48458 0.0
C1701 C 0.40538 0.61755 0.48632 0.0
C1702 C 0.34592 0.66325 0.45248 0.0
C1703 C 0.37436 0.66628 0.47233 0.0
C1704 C 0.34577 0.6719 0.44038 0.0
C1705 C 0.36312 0.70018 0.43636 0.0
C1706 C 0.36529 0.68184 0.46064 0.0
C1707 C 0.37973 0.72008 0.44491 0.0
C1708 C 0.40557 0.67323 0.47759 0.0
C1709 C 0.37143 0.61491 0.48318 0.0
N1710 N 0.38135 0.7099 0.45666 0.0
N1711 N 0.35738 0.63845 0.47593 0.0
H1712 H 0.32991 0.10642 0.23416 0.0
H1713 H 0.39067 0.09191 0.17984 0.0
H1714 H 0.39475 0.19265 0.23507 0.0
H1715 H 0.4852 0.13391 0.1912 0.0
H1716 H 0.37161 0.09213 0.20054 0.0
H1717 H 0.37047 0.07812 0.221 0.0
C1718 C 0.35322 0.11893 0.23198 0.0
C1719 C 0.35803 0.15261 0.23512 0.0
C1720 C 0.39688 0.10055 0.19867 0.0
C1721 C 0.40333 0.1213 0.21972 0.0
C1722 C 0.40749 0.10124 0.18675 0.0
C1723 C 0.43925 0.11371 0.1838 0.0
C1724 C 0.41779 0.11328 0.20778 0.0
C1725 C 0.46026 0.12467 0.19315 0.0
C1726 C 0.37615 0.10297 0.22435 0.0
C1727 C 0.38929 0.16712 0.23247 0.0
N1728 N 0.44875 0.12512 0.20475 0.0
N1729 N 0.41025 0.15188 0.22448 0.0
H1730 H 0.62505 0.56773 0.95557 0.0
H1731 H 0.69215 0.72284 0.91802 0.0
H1732 H 0.65018 0.66067 0.9734 0.0
H1733 H 0.63418 0.64138 0.90324 0.0
H1734 H 0.68098 0.70143 0.93845 0.0
H1735 H 0.63651 0.59346 0.93624 0.0
C1736 C 0.63381 0.59336 0.95547 0.0
C1737 C 0.63671 0.61203 0.96616 0.0
C1738 C 0.67033 0.68867 0.93071 0.0
C1739 C 0.64859 0.64218 0.94388 0.0
C1740 C 0.67637 0.70103 0.9191 0.0
C1741 C 0.6643 0.68356 0.90898 0.0
C1742 C 0.65243 0.65869 0.93206 0.0
C1743 C 0.64426 0.65533 0.91081 0.0
C1744 C 0.63971 0.60827 0.94437 0.0
C1745 C 0.64738 0.64548 0.96535 0.0
N1746 N 0.63932 0.64354 0.92211 0.0
N1747 N 0.65282 0.65963 0.95436 0.0
H1748 H 0.17411 0.90525 0.7443 0.0
H1749 H 0.20472 0.95841 0.67742 0.0
H1750 H 0.27099 0.92362 0.72811 0.0
H1751 H 0.10536 0.95095 0.69275 0.0
H1752 H 0.2284 0.95768 0.69752 0.0
H1753 H 0.148 0.93744 0.72813 0.0
C1754 C 0.19016 0.91635 0.73753 0.0
C1755 C 0.22449 0.90778 0.73675 0.0
C1756 C 0.20137 0.95627 0.69659 0.0
C1757 C 0.19494 0.94608 0.71867 0.0
C1758 C 0.18782 0.95613 0.68505 0.0
C1759 C 0.15303 0.95387 0.68339 0.0
C1760 C 0.18018 0.95308 0.70665 0.0
C1761 C 0.1324 0.952 0.69365 0.0
C1762 C 0.17508 0.93494 0.72831 0.0
C1763 C 0.24407 0.92655 0.72865 0.0
N1764 N 0.14634 0.95104 0.70488 0.0
N1765 N 0.22889 0.94365 0.71962 0.0
H1766 H 0.98803 0.39831 0.45659 0.0
H1767 H 0.83476 0.40458 0.41148 0.0
H1768 H 0.90169 0.46262 0.46158 0.0
H1769 H 0.90339 0.3208 0.41187 0.0
H1770 H 0.8585 0.42447 0.43038 0.0
H1771 H 0.95734 0.36747 0.44101 0.0
C1772 C 0.96242 0.4056 0.45458 0.0
C1773 C 0.94757 0.43345 0.4603 0.0
C1774 C 0.86829 0.40155 0.42647 0.0
C1775 C 0.91263 0.39856 0.44235 0.0
C1776 C 0.85484 0.39027 0.41563 0.0
C1777 C 0.8675 0.36127 0.4101 0.0
C1778 C 0.89521 0.38414 0.43172 0.0
C1779 C 0.89311 0.34335 0.4159 0.0
C1780 C 0.94499 0.38802 0.44565 0.0
C1781 C 0.91446 0.44188 0.45722 0.0
N1782 N 0.90664 0.35543 0.42636 0.0
N1783 N 0.89829 0.42477 0.44837 0.0
H1784 H 0.37459 0.96299 0.44764 0.0
H1785 H 0.39891 0.8749 0.38961 0.0
H1786 H 0.47432 0.92871 0.43854 0.0
H1787 H 0.32634 0.95487 0.3931 0.0
H1788 H 0.43454 0.90275 0.4041 0.0
H1789 H 0.36104 0.96638 0.42637 0.0
C1790 C 0.39368 0.95604 0.44113 0.0
C1791 C 0.42541 0.94489 0.44485 0.0
C1792 C 0.41148 0.91503 0.40136 0.0
C1793 C 0.40993 0.94851 0.4203 0.0
C1794 C 0.39097 0.89923 0.39291 0.0
C1795 C 0.35815 0.91125 0.39087 0.0
C1796 C 0.39878 0.94265 0.40773 0.0
C1797 C 0.35046 0.94355 0.39508 0.0
C1798 C 0.38611 0.95855 0.42893 0.0
C1799 C 0.44933 0.9368 0.436 0.0
N1800 N 0.36983 0.95743 0.40384 0.0
N1801 N 0.44082 0.93793 0.42407 0.0
H1802 H 0.8639 0.632 0.22674 0.0
H1803 H 0.92972 0.66912 0.16027 0.0
H1804 H 0.88814 0.73191 0.21484 0.0
H1805 H 0.90435 0.57152 0.17428 0.0
H1806 H 0.9076 0.6945 0.17883 0.0
H1807 H 0.87252 0.61143 0.20645 0.0
C1808 C 0.87139 0.64967 0.21985 0.0
C1809 C 0.87587 0.68367 0.22252 0.0
C1810 C 0.90638 0.6676 0.17769 0.0
C1811 C 0.88581 0.66007 0.19905 0.0
C1812 C 0.91902 0.65304 0.16712 0.0
C1813 C 0.91958 0.61799 0.16576 0.0
C1814 C 0.89416 0.6469 0.18691 0.0
C1815 C 0.90452 0.59857 0.17479 0.0
C1816 C 0.87606 0.63788 0.20819 0.0
C1817 C 0.88489 0.70541 0.21314 0.0
N1818 N 0.8929 0.61327 0.18501 0.0
N1819 N 0.88992 0.69315 0.20178 0.0
H1820 H 0.23218 0.12471 0.89963 0.0
H1821 H 0.07164 0.1361 0.94159 0.0
H1822 H 0.16166 0.20702 0.8993 0.0
H1823 H 0.16047 0.07624 0.94753 0.0
H1824 H 0.09183 0.14833 0.921 0.0
H1825 H 0.1915 0.09161 0.91096 0.0
C1826 C 0.20768 0.13537 0.90154 0.0
C1827 C 0.20083 0.16907 0.89898 0.0
C1828 C 0.10642 0.13193 0.92676 0.0
C1829 C 0.15471 0.13185 0.9121 0.0
C1830 C 0.09507 0.12521 0.93848 0.0
C1831 C 0.11506 0.10613 0.9463 0.0
C1832 C 0.13749 0.11882 0.92291 0.0
C1833 C 0.14486 0.09198 0.94187 0.0
C1834 C 0.18453 0.11657 0.90805 0.0
C1835 C 0.16835 0.18137 0.90135 0.0
N1836 N 0.1553 0.09883 0.93051 0.0
N1837 N 0.14682 0.16313 0.90816 0.0
H1838 H 0.62451 0.40645 0.66328 0.0
H1839 H 0.65938 0.43368 0.73377 0.0
H1840 H 0.59093 0.49221 0.68389 0.0
H1841 H 0.69399 0.34663 0.71412 0.0
H1842 H 0.63148 0.45361 0.7156 0.0
H1843 H 0.64858 0.38264 0.68175 0.0
C1844 C 0.62232 0.42029 0.67168 0.0
C1845 C 0.60603 0.45151 0.67204 0.0
C1846 C 0.645 0.43004 0.71523 0.0
C1847 C 0.63318 0.42445 0.69313 0.0
C1848 C 0.66085 0.41862 0.72563 0.0
C1849 C 0.67917 0.38864 0.72538 0.0
C1850 C 0.64767 0.41145 0.70449 0.0
C1851 C 0.68012 0.36996 0.71464 0.0
C1852 C 0.63601 0.4067 0.6822 0.0
C1853 C 0.60391 0.46843 0.68313 0.0
N1854 N 0.66479 0.38184 0.70454 0.0
N1855 N 0.61731 0.45468 0.69322 0.0
H1856 H 0.12309 0.2853 0.37392 0.0
H1857 H 0.91686 0.25187 0.37322 0.0
H1858 H 0.08034 0.18677 0.3747 0.0
H1859 H 0.95892 0.3505 0.37564 0.0
H1860 H 0.97476 0.22829 0.37315 0.0
H1861 H 0.06526 0.30921 0.37394 0.0
C1862 C 0.10202 0.26827 0.37405 0.0
C1863 C 0.10864 0.23309 0.37428 0.0
C1864 C 0.97166 0.25518 0.37367 0.0
C1865 C 0.03889 0.26169 0.37427 0.0
C1866 C 0.93781 0.26899 0.37369 0.0
C1867 C 0.93098 0.30408 0.37439 0.0
C1868 C 1.00085 0.27586 0.37429 0.0
C1869 C 0.96119 0.32354 0.37505 0.0
C1870 C 0.06821 0.28227 0.37408 0.0
C1871 C 0.07827 0.21378 0.3745 0.0
N1872 N 0.99349 0.30961 0.37495 0.0
N1873 N 0.04607 0.22789 0.37446 0.0
H1874 H 0.06017 0.68355 0.64372 0.0
H1875 H 1.02814 0.88988 0.64922 0.0
H1876 H 0.96333 0.72671 0.6511 0.0
H1877 H 0.12674 0.84724 0.6454 0.0
H1878 H 1.00452 0.83232 0.64924 0.0
H1879 H 0.08429 0.74101 0.64361 0.0
C1880 C 0.04349 0.70458 0.64529 0.0
C1881 C 1.00865 0.69803 0.64741 0.0
C1882 C 0.03143 0.83517 0.64838 0.0
C1883 C 0.03766 0.76771 0.64724 0.0
C1884 C 0.0453 0.86892 0.64835 0.0
C1885 C 0.08044 0.87567 0.6473 0.0
C1886 C 0.05198 0.80579 0.64727 0.0
C1887 C 0.09977 0.84523 0.64625 0.0
C1888 C 0.05766 0.73827 0.64524 0.0
C1889 C 0.99 0.72854 0.64939 0.0
N1890 N 0.08575 0.81305 0.64623 0.0
N1891 N 1.00422 0.76058 0.64922 0.0
H1892 H 0.45455 0.85586 0.86874 0.0
H1893 H 0.57775 0.68936 0.87299 0.0
H1894 H 0.4157 0.75702 0.87446 0.0
H1895 H 0.61812 0.78872 0.87085 0.0
H1896 H 0.52056 0.71304 0.87299 0.0
H1897 H 0.51216 0.83274 0.86893 0.0
C1898 C 0.45753 0.82915 0.87001 0.0
C1899 C 0.42803 0.80922 0.87153 0.0
C1900 C 0.54159 0.73006 0.8725 0.0
C1901 C 0.49799 0.78103 0.87174 0.0
C1902 C 0.57521 0.71631 0.87249 0.0
C1903 C 0.60504 0.73613 0.87189 0.0
C1904 C 0.53537 0.76505 0.87184 0.0
C1905 C 0.59747 0.77126 0.87131 0.0
C1906 C 0.49135 0.81573 0.87014 0.0
C1907 C 0.43608 0.77448 0.87318 0.0
N1908 N 0.56447 0.78399 0.87126 0.0
N1909 N 0.46917 0.76209 0.87319 0.0
H1910 H 0.55662 0.18291 0.14708 0.0
H1911 H 0.52279 0.38945 0.1465 0.0
H1912 H 0.45745 0.22552 0.14736 0.0
H1913 H 0.62094 0.34645 0.15107 0.0
H1914 H 0.49909 0.33184 0.14591 0.0
H1915 H 0.58011 0.24055 0.14761 0.0
C1916 C 0.53932 0.20388 0.14721 0.0
C1917 C 0.50404 0.1971 0.14715 0.0
C1918 C 0.52592 0.33465 0.14703 0.0
C1919 C 0.53232 0.26705 0.14771 0.0
C1920 C 0.53983 0.36842 0.14737 0.0
C1921 C 0.57488 0.37506 0.14887 0.0
C1922 C 0.54642 0.3052 0.14806 0.0
C1923 C 0.59405 0.34454 0.1499 0.0
C1924 C 0.55311 0.23767 0.14753 0.0
C1925 C 0.48453 0.22755 0.14737 0.0
N1926 N 0.58007 0.3124 0.14945 0.0
N1927 N 0.49845 0.25974 0.14759 0.0
H1928 H 0.97951 0.7047 0.25528 0.0
H1929 H 0.1039 0.86909 0.2619 0.0
H1930 H 0.94025 0.80416 0.26009 0.0
H1931 H 0.14251 0.77043 0.25479 0.0
H1932 H 0.04629 0.84654 0.26162 0.0
H1933 H 0.03699 0.72746 0.2554 0.0
C1934 C 0.98236 0.73148 0.25637 0.0
C1935 C 0.95273 0.75164 0.25766 0.0
C1936 C 0.06703 0.82944 0.26012 0.0
C1937 C 1.02274 0.77943 0.25788 0.0
C1938 C 0.10089 0.84253 0.2603 0.0
C1939 C 0.13037 0.8225 0.25844 0.0
C1940 C 0.06026 0.79495 0.25808 0.0
C1941 C 0.12219 0.78797 0.25637 0.0
C1942 C 1.01614 0.7447 0.25644 0.0
C1943 C 0.9607 0.78648 0.25903 0.0
N1944 N 0.08906 0.77589 0.25629 0.0
N1945 N 0.99381 0.79865 0.25912 0.0
H1946 H 0.53654 0.87189 0.48458 0.0
H1947 H 0.50365 0.66567 0.48399 0.0
H1948 H 0.43817 0.82935 0.48101 0.0
H1949 H 0.60228 0.70792 0.48187 0.0
H1950 H 0.47969 0.72342 0.48404 0.0
H1951 H 0.56048 0.81417 0.48472 0.0
C1952 C 0.51951 0.85093 0.48386 0.0
C1953 C 0.48433 0.85768 0.48278 0.0
C1954 C 0.50669 0.72043 0.48361 0.0
C1955 C 0.51306 0.78781 0.48303 0.0
C1956 C 0.52067 0.68663 0.48362 0.0
C1957 C 0.55588 0.67978 0.48298 0.0
C1958 C 0.52732 0.74969 0.48307 0.0
C1959 C 0.57524 0.71008 0.48241 0.0
C1960 C 0.53355 0.81713 0.48392 0.0
C1961 C 0.46515 0.8273 0.48187 0.0
N1962 N 0.56118 0.74231 0.48252 0.0
N1963 N 0.47927 0.79512 0.48206 0.0
H1964 H 0.64852 0.26745 0.75371 0.0
H1965 H 0.44263 0.30016 0.76085 0.0
H1966 H 0.60686 0.36413 0.76208 0.0
H1967 H 0.48503 0.20307 0.75367 0.0
H1968 H 0.50043 0.32366 0.76113 0.0
H1969 H 0.59068 0.24421 0.75347 0.0
C1970 C 0.62768 0.2842 0.75556 0.0
C1971 C 0.63467 0.31863 0.75801 0.0
C1972 C 0.49742 0.29712 0.75948 0.0
C1973 C 0.56475 0.29081 0.75764 0.0
C1974 C 0.46361 0.28336 0.75932 0.0
C1975 C 0.45686 0.24868 0.75725 0.0
C1976 C 0.52667 0.27685 0.75754 0.0
C1977 C 0.48716 0.22967 0.75534 0.0
C1978 C 0.59384 0.27059 0.7554 0.0
C1979 C 0.60453 0.33766 0.76018 0.0
N1980 N 0.51936 0.24356 0.75553 0.0
N1981 N 0.57224 0.32393 0.75995 0.0
H1982 H 0.09894 0.21171 0.98102 0.0
H1983 H 0.93172 0.33494 0.98373 0.0
H1984 H 0.99982 0.172 0.98572 0.0
H1985 H 0.03192 0.37417 0.9831 0.0
H1986 H 0.95498 0.27755 0.98388 0.0
H1987 H 0.07538 0.26886 0.98119 0.0
C1988 C 0.07205 0.21437 0.98211 0.0
C1989 C 0.05229 0.18469 0.9834 0.0
C1990 C 0.97227 0.29838 0.98371 0.0
C1991 C 1.02342 0.25442 0.9835 0.0
C1992 C 0.95876 0.33212 0.98362 0.0
C1993 C 0.97896 0.36173 0.98342 0.0
C1994 C 1.00739 0.29182 0.98351 0.0
C1995 C 1.01416 0.35376 0.98328 0.0
C1996 C 0.05836 0.248 0.98221 0.0
C1997 C 1.01724 0.19248 0.98472 0.0
N1998 N 1.02661 0.32072 0.98329 0.0
N1999 N 1.00454 0.22546 0.98469 0.0
H2000 H 0.12074 0.79083 0.73569 0.0
H2001 H 0.91419 0.75769 0.73219 0.0
H2002 H 0.07839 0.69336 0.72993 0.0
H2003 H 0.95594 0.85636 0.73429 0.0
H2004 H 0.97219 0.73417 0.73207 0.0
H2005 H 0.06282 0.81466 0.7359 0.0
C2006 C 0.09979 0.77398 0.73448 0.0
C2007 C 0.10666 0.73908 0.73278 0.0
C2008 C 0.96906 0.76106 0.73259 0.0
C2009 C 0.03655 0.76767 0.7331 0.0
C2010 C 0.9351 0.7748 0.73269 0.0
C2011 C 0.92801 0.80988 0.7333 0.0
C2012 C 0.99827 0.78179 0.73318 0.0
C2013 C 0.95827 0.82939 0.73382 0.0
C2014 C 0.06586 0.78795 0.7346 0.0
C2015 C 0.07627 0.72012 0.73129 0.0
N2016 N 0.99068 0.81553 0.73378 0.0
N2017 N 0.04399 0.73417 0.73151 0.0
H2018 H 0.95427 0.22977 0.5058 0.0
H2019 H 0.11959 0.3533 0.51183 0.0
H2020 H 0.05389 0.19043 0.51055 0.0
H2021 H 1.02067 0.39195 0.50495 0.0
H2022 H 0.09677 0.29592 0.51173 0.0
H2023 H 0.97728 0.28703 0.5058 0.0
C2024 C 0.98113 0.23258 0.50687 0.0
C2025 C 1.00127 0.20303 0.5082 0.0
C2026 C 0.07967 0.31663 0.51025 0.0
C2027 C 0.02935 0.27267 0.50823 0.0
C2028 C 0.09291 0.35033 0.51032 0.0
C2029 C 0.07287 0.37971 0.50846 0.0
C2030 C 0.04504 0.30998 0.50833 0.0
C2031 C 0.0382 0.37166 0.50652 0.0
C2032 C 0.9945 0.2662 0.50686 0.0
C2033 C 0.03623 0.21086 0.5095 0.0
N2034 N 1.02597 0.33868 0.50654 0.0
N2035 N 0.04855 0.24382 0.5095 0.0
H2036 H 0.57989 0.18752 0.23083 0.0
H2037 H 0.45563 0.3536 0.23284 0.0
H2038 H 0.61935 0.2867 0.23533 0.0
H2039 H 0.41666 0.25355 0.23352 0.0
H2040 H 0.51325 0.33068 0.23307 0.0
H2041 H 0.52251 0.21068 0.23112 0.0
C2042 C 0.57714 0.21433 0.23191 0.0
C2043 C 0.60686 0.2342 0.2331 0.0
C2044 C 0.49244 0.31334 0.23318 0.0
C2045 C 0.53677 0.2626 0.23331 0.0
C2046 C 0.45856 0.32665 0.23305 0.0
C2047 C 0.42893 0.3064 0.2332 0.0
C2048 C 0.49917 0.27837 0.23334 0.0
C2049 C 0.43706 0.27134 0.23344 0.0
C2050 C 0.54336 0.22778 0.23207 0.0
C2051 C 0.59889 0.26914 0.23441 0.0
N2052 N 0.47025 0.25906 0.23344 0.0
N2053 N 0.56574 0.28161 0.23442 0.0
H2054 H 0.52392 0.8909 1.00387 0.0
H2055 H 0.5585 0.68577 1.01072 0.0
H2056 H 0.6215 0.85012 1.01156 0.0
H2057 H 0.4604 0.72732 1.00454 0.0
H2058 H 0.58166 0.74358 1.0108 0.0
H2059 H 0.501 0.83305 1.00382 0.0
C2060 C 0.54094 0.87027 1.0056 0.0
C2061 C 0.57553 0.87753 1.0078 0.0
C2062 C 0.55497 0.74039 1.00941 0.0
C2063 C 0.54808 0.80754 1.00767 0.0
C2064 C 0.5414 0.70655 1.00937 0.0
C2065 C 0.50654 0.69955 1.00765 0.0
C2066 C 0.53433 0.76942 1.00769 0.0
C2067 C 0.48716 0.72964 1.00594 0.0
C2068 C 0.52752 0.83641 1.00555 0.0
C2069 C 0.59489 0.84761 1.00985 0.0
N2070 N 0.50087 0.76186 1.00601 0.0
N2071 N 0.58134 0.81529 1.00972 0.0
H2072 H 0.14691 0.27085 0.89916 0.0
H2073 H 0.9402 0.30496 0.89459 0.0
H2074 H 0.10477 0.3697 0.89659 0.0
H2075 H 0.98264 0.20733 0.90048 0.0
H2076 H 0.99805 0.32847 0.89466 0.0
H2077 H 0.089 0.24767 0.89904 0.0
C2078 C 0.12598 0.28814 0.89854 0.0
C2079 C 0.13297 0.32321 0.89789 0.0
C2080 C 0.99506 0.30179 0.89594 0.0
C2081 C 0.06271 0.29533 0.89768 0.0
C2082 C 0.96114 0.28799 0.89589 0.0
C2083 C 0.95427 0.25314 0.89753 0.0
C2084 C 1.02441 0.2814 0.89757 0.0
C2085 C 0.98471 0.23407 0.89915 0.0
C2086 C 0.09204 0.27454 0.89848 0.0
C2087 C 0.10258 0.34276 0.89713 0.0
N2088 N 1.01697 0.24795 0.8991 0.0
N2089 N 0.07023 0.32902 0.89703 0.0
H2090 H 0.53574 0.37499 0.62133 0.0
H2091 H 0.50061 0.16954 0.6234 0.0
H2092 H 0.43658 0.33313 0.62149 0.0
H2093 H 0.59956 0.21027 0.61927 0.0
H2094 H 0.47755 0.22748 0.62342 0.0
H2095 H 0.55925 0.31711 0.62126 0.0
C2096 C 0.51848 0.35413 0.62134 0.0
C2097 C 0.48323 0.36106 0.62136 0.0
C2098 C 0.5044 0.22411 0.62249 0.0
C2099 C 0.51141 0.29114 0.62139 0.0
C2100 C 0.51792 0.19019 0.62247 0.0
C2101 C 0.55293 0.18289 0.62126 0.0
C2102 C 0.5253 0.25299 0.62139 0.0
C2103 C 0.57263 0.21284 0.62018 0.0
C2104 C 0.53225 0.32026 0.62131 0.0
C2105 C 0.46366 0.33087 0.62143 0.0
N2106 N 0.55898 0.24522 0.6203 0.0
N2107 N 0.47756 0.29863 0.62147 0.0
H2108 H 0.59922 0.8749 0.3999 0.0
H2109 H 0.47684 0.70813 0.39961 0.0
H2110 H 0.6396 0.77525 0.39748 0.0
H2111 H 0.43625 0.80749 0.39637 0.0
H2112 H 0.534 0.73151 0.39957 0.0
H2113 H 0.54193 0.8517 0.39937 0.0
C2114 C 0.59669 0.84799 0.39924 0.0
C2115 C 0.62666 0.82799 0.39871 0.0
C2116 C 0.51295 0.74861 0.39884 0.0
C2117 C 0.55667 0.79953 0.39821 0.0
C2118 C 0.47928 0.73503 0.39886 0.0
C2119 C 0.44927 0.75484 0.39793 0.0
C2120 C 0.51918 0.78355 0.39804 0.0
C2121 C 0.4569 0.78992 0.39705 0.0
C2122 C 0.56297 0.8345 0.39893 0.0
C2123 C 0.61896 0.79292 0.39789 0.0
N2124 N 0.48993 0.8025 0.39719 0.0
N2125 N 0.5859 0.78046 0.39773 0.0
H2126 H 0.035 0.87341 0.12041 0.0
H2127 H 1.00214 0.66825 0.12646 0.0
H2128 H 0.93746 0.83163 0.12687 0.0
H2129 H 0.09927 0.70914 0.11861 0.0
H2130 H 0.97883 0.72611 0.12687 0.0
H2131 H 0.05865 0.81562 0.11996 0.0
C2132 C 1.01813 0.85258 0.12175 0.0
C2133 C 0.98329 0.85948 0.12367 0.0
C2134 C 1.00532 0.72277 0.12502 0.0
C2135 C 1.01163 0.78971 0.12318 0.0
C2136 C 1.01896 0.68893 0.12476 0.0
C2137 C 0.05354 0.68173 0.1224 0.0
C2138 C 1.02565 0.75165 0.12297 0.0
C2139 C 0.07268 0.71165 0.12042 0.0
C2140 C 0.03198 0.81877 0.12149 0.0
C2141 C 0.9642 0.82936 0.12532 0.0
N2142 N 0.05892 0.74396 0.12075 0.0
N2143 N 0.97817 0.79716 0.12505 0.0
H2144 H 0.20346 0.2189 0.3264 0.0
H2145 H 0.33632 0.31659 0.28071 0.0
H2146 H 0.30005 0.2526 0.33845 0.0
H2147 H 0.23976 0.28265 0.26871 0.0
H2148 H 0.32403 0.29423 0.3011 0.0
H2149 H 0.2159 0.24115 0.30602 0.0
C2150 C 0.2275 0.2308 0.32497 0.0
C2151 C 0.25031 0.23289 0.33495 0.0
C2152 C 0.30522 0.29147 0.29411 0.0
C2153 C 0.26552 0.26013 0.31019 0.0
C2154 C 0.31234 0.30457 0.28215 0.0
C2155 C 0.28948 0.30244 0.27219 0.0
C2156 C 0.27443 0.27515 0.29695 0.0
C2157 C 0.25893 0.28581 0.27554 0.0
C2158 C 0.2347 0.24386 0.31301 0.0
C2159 C 0.28092 0.24945 0.33161 0.0
N2160 N 0.25269 0.27335 0.2872 0.0
N2161 N 0.28723 0.26189 0.31995 0.0
H2162 H 1.02059 1.00658 0.54254 0.0
H2163 H 0.06693 0.07107 0.61216 0.0
H2164 H 0.99894 0.1063 0.55495 0.0
H2165 H 0.07846 0.96852 0.60117 0.0
H2166 H 0.04476 0.08444 0.59177 0.0
H2167 H 0.04291 0.99295 0.56292 0.0
C2168 C 1.02023 1.02599 0.54939 0.0
C2169 C 1.00687 0.05815 0.54625 0.0
C2170 C 0.05203 0.05886 0.59367 0.0
C2171 C 0.03416 0.04186 0.57096 0.0
C2172 C 0.06506 0.05098 0.60562 0.0
C2173 C 0.07526 1.01807 0.60919 0.0
C2174 C 0.04861 0.03414 0.58439 0.0
C2175 C 0.07132 0.99427 0.59952 0.0
C2176 C 0.03333 1.01794 0.56133 0.0
C2177 C 1.00827 0.0811 0.55628 0.0
N2178 N 0.05888 1.0026 0.58803 0.0
N2179 N 1.02124 0.07274 0.56768 0.0
H2180 H 0.2344 0.78752 0.83936 0.0
H2181 H 0.29754 0.7499 0.76889 0.0
H2182 H 0.33437 0.80902 0.82722 0.0
H2183 H 0.19791 0.72668 0.78098 0.0
H2184 H 0.31077 0.77135 0.78939 0.0
H2185 H 0.22072 0.7665 0.81881 0.0
C2186 C 0.25388 0.78802 0.83254 0.0
C2187 C 0.2862 0.80063 0.83584 0.0
C2188 C 0.28589 0.76158 0.78772 0.0
C2189 C 0.26974 0.77528 0.81088 0.0
C2190 C 0.27808 0.74895 0.77571 0.0
C2191 C 0.24609 0.73548 0.77243 0.0
C2192 C 0.26197 0.76156 0.79734 0.0
C2193 C 0.223 0.73617 0.78242 0.0
C2194 C 0.2458 0.77569 0.8205 0.0
C2195 C 0.30916 0.79982 0.8258 0.0
N2196 N 0.23122 0.74849 0.79395 0.0
N2197 N 0.3007 0.78782 0.81427 0.0
H2198 H 0.51412 1.00401 0.11023 0.0
H2199 H 0.56093 0.07088 1.04116 0.0
H2200 H 0.49922 0.10611 0.09937 0.0
H2201 H 0.57127 0.96785 1.0515 0.0
H2202 H 0.54013 0.08408 1.06178 0.0
H2203 H 0.53538 0.99091 0.08965 0.0
C2204 C 0.51501 1.02404 0.10367 0.0
C2205 C 0.50398 0.05669 0.1073 0.0
C2206 C 0.54677 0.05842 1.05967 0.0
C2207 C 0.52974 0.04101 0.08236 0.0
C2208 C 0.55892 0.05063 1.04759 0.0
C2209 C 0.56841 1.01765 1.04379 0.0
C2210 C 0.54334 0.03348 0.0688 0.0
C2211 C 0.5646 0.99365 1.05334 0.0
C2212 C 0.52749 1.01631 0.09162 0.0
C2213 C 0.50685 0.08051 0.09764 0.0
N2214 N 0.55279 1.00185 1.06493 0.0
N2215 N 0.51899 0.07237 0.08608 0.0
H2216 H 0.26207 0.77205 0.36205 0.0
H2217 H 0.32359 0.80096 0.29108 0.0
H2218 H 0.35658 0.73467 0.34897 0.0
H2219 H 0.22318 0.82262 0.30294 0.0
H2220 H 0.33699 0.78017 0.31166 0.0
H2221 H 0.24911 0.79278 0.34148 0.0
C2222 C 0.28044 0.76782 0.355 0.0
C2223 C 0.31086 0.75054 0.35802 0.0
C2224 C 0.31187 0.78936 0.3099 0.0
C2225 C 0.29542 0.77599 0.33304 0.0
C2226 C 0.30396 0.80155 0.29785 0.0
C2227 C 0.27162 0.81414 0.29447 0.0
C2228 C 0.28778 0.78928 0.31946 0.0
C2229 C 0.24843 0.81345 0.30443 0.0
C2230 C 0.27278 0.78001 0.34294 0.0
C2231 C 0.33269 0.74719 0.34773 0.0
N2232 N 0.2568 0.80177 0.316 0.0
N2233 N 0.32476 0.75944 0.33618 0.0
H2234 H 0.55551 0.08968 0.57718 0.0
H2235 H 0.47179 0.9493 0.53072 0.0
H2236 H 0.53118 0.99026 0.58882 0.0
H2237 H 0.49442 0.04947 0.51946 0.0
H2238 H 0.49302 0.96301 0.5512 0.0
H2239 H 0.53481 0.07561 0.55671 0.0
C2240 C 0.54578 0.06477 0.57566 0.0
C2241 C 0.54564 0.04175 0.58556 0.0
C2242 C 0.4935 0.9823 0.54435 0.0
C2243 C 0.52042 1.02449 0.56069 0.0
C2244 C 0.48104 0.97436 0.53235 0.0
C2245 C 0.48036 0.99779 0.52258 0.0
C2246 C 0.50632 1.01454 0.5474 0.0
C2247 C 0.49356 0.02977 0.52614 0.0
C2248 C 0.53369 0.05658 0.56364 0.0
C2249 C 0.53237 1.00975 0.58207 0.0
N2250 N 0.5055 0.03677 0.53782 0.0
N2251 N 0.52071 1.00252 0.57036 0.0
H2252 H 0.36358 0.2396 0.80471 0.0
H2253 H 0.22423 0.32306 0.852 0.0
H2254 H 0.26281 0.263 0.79377 0.0
H2255 H 0.32691 0.30642 0.86218 0.0
H2256 H 0.23711 0.30114 0.83155 0.0
H2257 H 0.35083 0.26196 0.82511 0.0
C2258 C 0.33855 0.24921 0.80639 0.0
C2259 C 0.3147 0.24844 0.79671 0.0
C2260 C 0.25713 0.30204 0.83815 0.0
C2261 C 0.29905 0.27567 0.82152 0.0
C2262 C 0.24966 0.31485 0.85016 0.0
C2263 C 0.274 0.31738 0.85963 0.0
C2264 C 0.28978 0.2905 0.8348 0.0
C2265 C 0.30646 0.30571 0.85576 0.0
C2266 C 0.33118 0.26236 0.81837 0.0
C2267 C 0.28283 0.26218 0.80036 0.0
N2268 N 0.31296 0.29318 0.84409 0.0
N2269 N 0.27633 0.27464 0.81204 0.0
H2270 H 0.03278 0.99445 1.01819 0.0
H2271 H 1.00299 0.05272 0.08964 0.0
H2272 H 0.06522 0.08984 1.03168 0.0
H2273 H 0.96996 0.95771 0.07596 0.0
H2274 H 1.02515 0.06637 0.06928 0.0
H2275 H 1.01054 0.981 1.03854 0.0
C2276 C 0.03558 1.01291 1.02529 0.0
C2277 C 0.05185 0.04379 1.02245 0.0
C2278 C 1.01307 0.04243 0.07058 0.0
C2279 C 1.02485 1.02769 1.04716 0.0
C2280 C 1.00003 0.03439 0.0825 0.0
C2281 C 0.98362 1.00353 0.08528 0.0
C2282 C 1.01058 1.01986 1.06059 0.0
C2283 C 0.9818 0.98186 0.07491 0.0
C2284 C 1.0225 1.00499 1.03721 0.0
C2285 C 0.05348 0.06566 1.03278 0.0
N2286 N 0.99464 0.99024 1.0635 0.0
N2287 N 0.04064 0.05737 1.0442 0.0
H2288 H 0.69488 0.73031 0.82682 0.0
H2289 H 0.83541 0.80987 0.77965 0.0
H2290 H 0.79743 0.74685 0.83708 0.0
H2291 H 0.73324 0.7928 0.76903 0.0
H2292 H 0.82222 0.78793 0.79999 0.0
H2293 H 0.70771 0.75233 0.80642 0.0
C2294 C 0.72028 0.73837 0.82498 0.0
C2295 C 0.74466 0.73581 0.83444 0.0
C2296 C 0.80238 0.78877 0.79332 0.0
C2297 C 0.76035 0.76264 0.80973 0.0
C2298 C 0.81002 0.8016 0.78138 0.0
C2299 C 0.78592 0.80395 0.77184 0.0
C2300 C 0.76975 0.77726 0.79652 0.0
C2301 C 0.75348 0.79219 0.77554 0.0
C2302 C 0.72771 0.75129 0.81303 0.0
C2303 C 0.77702 0.74754 0.83064 0.0
N2304 N 0.74676 0.77981 0.78717 0.0
N2305 N 0.78351 0.75995 0.81901 0.0
H2306 H 0.74227 0.26714 0.34134 0.0
H2307 H 0.78762 0.26241 0.26789 0.0
H2308 H 0.82084 0.32621 0.32571 0.0
H2309 H 0.70521 0.20691 0.28264 0.0
H2310 H 0.80001 0.28437 0.28836 0.0
H2311 H 0.72899 0.24492 0.3209 0.0
C2312 C 0.75699 0.2759 0.33376 0.0
C2313 C 0.78313 0.29963 0.33605 0.0
C2314 C 0.77914 0.26736 0.2873 0.0
C2315 C 0.76734 0.27251 0.31122 0.0
C2316 C 0.77185 0.25438 0.2753 0.0
C2317 C 0.74492 0.2318 0.27273 0.0
C2318 C 0.75984 0.25848 0.29767 0.0
C2319 C 0.72627 0.22377 0.28348 0.0
C2320 C 0.74919 0.26279 0.32179 0.0
C2321 C 0.80041 0.30852 0.3251 0.0
N2322 N 0.73395 0.23661 0.295 0.0
N2323 N 0.79245 0.29539 0.31367 0.0
H2324 H 0.72502 0.31895 0.80178 0.0
H2325 H 0.86567 0.24068 0.84942 0.0
H2326 H 0.82754 0.30179 0.79141 0.0
H2327 H 0.76434 0.2628 0.86013 0.0
H2328 H 0.85267 0.26155 0.82887 0.0
H2329 H 0.73839 0.29866 0.82234 0.0
C2330 C 0.7505 0.31091 0.8036 0.0
C2331 C 0.77463 0.31263 0.79404 0.0
C2332 C 0.83297 0.26198 0.8356 0.0
C2333 C 0.79104 0.28805 0.81901 0.0
C2334 C 0.84049 0.24974 0.84766 0.0
C2335 C 0.81651 0.24905 0.85729 0.0
C2336 C 0.80058 0.2744 0.83236 0.0
C2337 C 0.78443 0.26197 0.85355 0.0
C2338 C 0.75827 0.29909 0.81567 0.0
C2339 C 0.80722 0.30144 0.79789 0.0
N2340 N 0.7778 0.27357 0.84182 0.0
N2341 N 0.81405 0.29002 0.80964 0.0
H2342 H 0.81509 0.80208 0.3646 0.0
H2343 H 0.75636 0.77385 0.29306 0.0
H2344 H 0.72278 0.84249 0.3508 0.0
H2345 H 0.85378 0.7449 0.30602 0.0
H2346 H 0.74294 0.79634 0.31347 0.0
H2347 H 0.82821 0.77996 0.34416 0.0
C2348 C 0.79721 0.80665 0.35743 0.0
C2349 C 0.76732 0.82519 0.36024 0.0
C2350 C 0.76738 0.78509 0.31201 0.0
C2351 C 0.78295 0.79802 0.33536 0.0
C2352 C 0.77528 0.77183 0.30004 0.0
C2353 C 0.8068 0.75656 0.29701 0.0
C2354 C 0.79061 0.78368 0.32184 0.0
C2355 C 0.82914 0.75592 0.30723 0.0
C2356 C 0.80495 0.79363 0.34544 0.0
C2357 C 0.7462 0.82896 0.34977 0.0
N2358 N 0.82078 0.76867 0.31869 0.0
N2359 N 0.75418 0.81589 0.3383 0.0
H2360 H 0.58859 0.46781 0.10152 0.0
H2361 H 0.49537 0.604 1.05564 0.0
H2362 H 0.55936 0.56621 0.11328 0.0
H2363 H 0.52552 0.5061 1.04364 0.0
H2364 H 0.51756 0.59096 0.076 0.0
H2365 H 0.56644 0.48068 0.08112 0.0
C2366 C 0.5777 0.49232 0.10003 0.0
C2367 C 0.57684 0.51549 0.10994 0.0
C2368 C 0.51951 0.57199 0.06903 0.0
C2369 C 0.54969 0.53126 0.08514 0.0
C2370 C 0.50647 0.57955 1.05707 0.0
C2371 C 0.50758 0.5566 1.0471 0.0
C2372 C 0.53475 0.54061 0.07188 0.0
C2373 C 0.52316 0.52542 1.05046 0.0
C2374 C 0.56469 0.49978 0.08805 0.0
C2375 C 0.56152 0.54673 0.10651 0.0
N2376 N 0.53558 0.51876 1.06212 0.0
N2377 N 0.5491 0.55327 0.09485 0.0
H2378 H 1.02333 0.51129 0.61148 0.0
H2379 H 0.04896 0.57185 0.54031 0.0
H2380 H 0.986 0.60574 0.59866 0.0
H2381 H 0.07369 0.47269 0.55233 0.0
H2382 H 0.02879 0.58543 0.56099 0.0
H2383 H 0.04351 0.49826 0.59079 0.0
C2384 C 1.019 0.52961 0.60445 0.0
C2385 C 1.00197 0.56005 0.60758 0.0
C2386 C 0.03852 0.56055 0.55924 0.0
C2387 C 1.02663 0.54453 0.58249 0.0
C2388 C 0.05032 0.55254 0.54713 0.0
C2389 C 0.06358 0.52049 0.54379 0.0
C2390 C 0.03947 0.53683 0.56887 0.0
C2391 C 0.06394 0.49769 0.55381 0.0
C2392 C 0.03087 0.52193 0.59234 0.0
C2393 C 0.99841 0.58186 0.59734 0.0
N2394 N 0.05254 0.50612 0.56542 0.0
N2395 N 1.01028 0.57387 0.58573 0.0
H2396 H 0.05309 0.59226 0.07815 0.0
H2397 H 0.97996 0.45176 1.02955 0.0
H2398 H 0.03669 0.48983 0.08813 0.0
H2399 H 0.99037 0.5555 1.02029 0.0
H2400 H 1.0007 0.46451 1.05014 0.0
H2401 H 0.03233 0.57947 1.05757 0.0
C2402 C 0.04513 0.56692 0.07624 0.0
C2403 C 0.04717 0.54264 0.0857 0.0
C2404 C 0.99869 0.48479 1.04371 0.0
C2405 C 1.02201 0.52693 1.06071 0.0
C2406 C 0.98657 0.4774 1.03163 0.0
C2407 C 0.98271 0.5021 1.02238 0.0
C2408 C 1.0081 0.5177 1.04734 0.0
C2409 C 0.99226 0.5348 1.02654 0.0
C2410 C 0.03299 0.55951 1.06416 0.0
C2411 C 0.03608 0.51025 0.08173 0.0
N2412 N 1.00415 0.54123 1.03827 0.0
N2413 N 1.02442 0.50375 0.06997 0.0
H2414 H 0.47011 0.45475 0.5756 0.0
H2415 H 0.57427 0.58471 0.5307 0.0
H2416 H 0.50594 0.54998 0.58806 0.0
H2417 H 0.52947 0.49421 0.51745 0.0
H2418 H 0.55187 0.57222 0.5511 0.0
H2419 H 0.49222 0.46751 0.5552 0.0
C2420 C 0.48251 0.47852 0.57427 0.0
C2421 C 0.48518 0.50087 0.58437 0.0
C2422 C 0.54674 0.55477 0.54383 0.0
C2423 C 0.51242 0.51642 0.55958 0.0
C2424 C 0.55988 0.56202 0.53186 0.0
C2425 C 0.55471 0.54093 0.52154 0.0
C2426 C 0.52748 0.52554 0.54633 0.0
C2427 C 0.53509 0.51197 0.52456 0.0
C2428 C 0.49546 0.48593 0.56229 0.0
C2429 C 0.50232 0.53119 0.58113 0.0
N2430 N 0.52284 0.50548 0.53624 0.0
N2431 N 0.51481 0.53763 0.56948 0.0
H2432 H 0.26551 0.09213 0.40104 0.0
H2433 H 0.42702 0.07719 0.44886 0.0
H2434 H 0.32317 0.17848 0.41074 0.0
H2435 H 0.34155 1.01424 0.45444 0.0
H2436 H 0.39525 0.10841 0.43329 0.0
H2437 H 0.29542 0.0598 0.41705 0.0
C2438 C 0.28472 0.10489 0.40618 0.0
C2439 C 0.29069 0.13976 0.4035 0.0
C2440 C 0.3828 0.08789 0.4378 0.0
C2441 C 0.32797 0.09977 0.42336 0.0
C2442 C 0.4015 0.06939 0.44709 0.0
C2443 C 0.38855 0.04179 0.45407 0.0
C2444 C 0.34933 0.07955 0.43415 0.0
C2445 C 0.35442 0.03483 0.45015 0.0
C2446 C 0.30218 0.08576 0.41576 0.0
C2447 C 0.31641 0.15239 0.4116 0.0
N2448 N 0.33725 0.05253 0.44083 0.0
N2449 N 0.33337 0.13321 0.42049 0.0
H2450 H 0.29331 0.10723 0.73212 0.0
H2451 H 0.14134 0.10253 0.67966 0.0
H2452 H 0.24547 0.19684 0.71947 0.0
H2453 H 0.21569 1.02466 0.68007 0.0
H2454 H 0.17345 0.13298 0.69534 0.0
H2455 H 0.26295 0.07508 0.71616 0.0
C2456 C 0.27626 0.12087 0.7263 0.0
C2457 C 0.27322 0.15662 0.72815 0.0
C2458 C 0.18335 0.10927 0.69216 0.0
C2459 C 0.2353 0.11679 0.70833 0.0
C2460 C 0.16443 0.09114 0.68281 0.0
C2461 C 0.17422 0.05954 0.67746 0.0
C2462 C 0.21377 0.09682 0.69748 0.0
C2463 C 0.20538 0.04837 0.68305 0.0
C2464 C 0.25849 0.10177 0.71677 0.0
C2465 C 0.24998 0.17011 0.71927 0.0
N2466 N 0.22274 0.06605 0.69234 0.0
N2467 N 0.23272 0.15108 0.71042 0.0
H2468 H 0.19702 1.01131 0.96096 0.0
H2469 H 0.19431 0.88707 0.89927 0.0
H2470 H 0.10623 0.98399 0.94272 0.0
H2471 H 0.28701 0.92761 0.91229 0.0
H2472 H 0.1639 0.91864 0.91521 0.0
H2473 H 0.22956 0.98041 0.94515 0.0
C2474 C 0.18311 0.99886 0.95387 0.0
C2475 C 0.14692 1.00161 0.95412 0.0
C2476 C 0.19092 0.9211 0.91478 0.0
C2477 C 0.18712 0.9633 0.93446 0.0
C2478 C 0.20906 0.90243 0.90532 0.0
C2479 C 0.24493 0.9031 0.90346 0.0
C2480 C 0.2072 0.94207 0.92354 0.0
C2481 C 0.26001 0.92483 0.9125 0.0
C2482 C 0.20246 0.9807 0.94447 0.0
C2483 C 0.13322 0.98383 0.94377 0.0
N2484 N 0.24186 0.94229 0.92166 0.0
N2485 N 0.15237 0.96635 0.93498 0.0
H2486 H 0.26951 0.94191 0.21883 0.0
H2487 H 0.45357 0.99461 0.18688 0.0
H2488 H 0.36366 0.90051 0.23029 0.0
H2489 H 0.36062 1.02632 0.17102 0.0
H2490 H 0.4219 0.96374 0.20246 0.0
H2491 H 0.29959 0.97329 0.20272 0.0
C2492 C 0.29649 0.93896 0.21827 0.0
C2493 C 0.31245 0.91686 0.22688 0.0
C2494 C 0.40775 0.97715 0.19566 0.0
C2495 C 0.35004 0.95589 0.20687 0.0
C2496 C 0.42645 0.99547 0.18636 0.0
C2497 C 0.41166 1.01448 0.17661 0.0
C2498 C 0.37182 0.97641 0.19627 0.0
C2499 C 0.37529 1.01282 0.17764 0.0
C2500 C 0.31425 0.95754 0.20868 0.0
C2501 C 0.34834 0.91619 0.22454 0.0
N2502 N 0.35778 0.99509 0.18686 0.0
N2503 N 0.36477 0.93455 0.2153 0.0
H2504 H 0.72384 0.85898 0.69312 0.0
H2505 H 0.67353 0.04296 0.661 0.0
H2506 H 0.75621 0.95119 0.70914 0.0
H2507 H 0.62943 0.95002 0.65002 0.0
H2508 H 0.70465 1.01256 0.67716 0.0
H2509 H 0.69308 0.89102 0.67756 0.0
C2510 C 0.72485 0.88601 0.69368 0.0
C2511 C 0.74396 0.90051 0.70345 0.0
C2512 C 0.68836 0.99825 0.6713 0.0
C2513 C 0.70618 0.94075 0.68383 0.0
C2514 C 0.66995 1.01618 0.66168 0.0
C2515 C 0.6472 1.00063 0.65321 0.0
C2516 C 0.68587 0.96271 0.67322 0.0
C2517 C 0.64568 0.96499 0.65568 0.0
C2518 C 0.70661 0.90492 0.68439 0.0
C2519 C 0.74256 0.93678 0.70248 0.0
N2520 N 0.66393 0.94837 0.66491 0.0
N2521 N 0.72496 0.9545 0.69327 0.0
H2522 H 0.87678 0.99552 0.49022 0.0
H2523 H 0.83193 0.95773 0.4168 0.0
H2524 H 0.93518 0.03831 0.46165 0.0
H2525 H 0.79737 0.89288 0.44496 0.0
H2526 H 0.86391 0.99013 0.43227 0.0
H2527 H 0.84451 0.96341 0.47476 0.0
C2528 C 0.8834 0.99892 0.48082 0.0
C2529 C 0.9107 1.02139 0.47809 0.0
C2530 C 0.84937 0.96891 0.43528 0.0
C2531 C 0.87028 0.98203 0.45881 0.0
C2532 C 0.83031 0.94969 0.42612 0.0
C2533 C 0.81018 0.92058 0.42872 0.0
C2534 C 0.84937 0.96111 0.44802 0.0
C2535 C 0.8115 0.91404 0.44165 0.0
C2536 C 0.86427 0.9798 0.47165 0.0
C2537 C 0.91549 1.0223 0.46506 0.0
N2538 N 0.82949 0.93327 0.45026 0.0
N2539 N 0.89637 1.00412 0.45646 0.0
H2540 H 0.92753 0.07938 0.15791 0.0
H2541 H 0.76694 0.0916 0.20644 0.0
H2542 H 0.84502 1.01177 0.15388 0.0
H2543 H 0.82264 0.17884 0.19645 0.0
H2544 H 0.79736 0.05941 0.19044 0.0
H2545 H 0.89514 0.11081 0.17337 0.0
C2546 C 0.90245 0.07073 0.15995 0.0
C2547 C 0.89035 0.04192 0.15339 0.0
C2548 C 0.80357 0.08555 0.19168 0.0
C2549 C 0.85063 0.07973 0.17323 0.0
C2550 C 0.7858 0.1046 0.20123 0.0
C2551 C 0.79103 0.13968 0.20382 0.0
C2552 C 0.82898 0.09987 0.184 0.0
C2553 C 0.81641 0.15259 0.19566 0.0
C2554 C 0.88342 0.0893 0.16919 0.0
C2555 C 0.85695 0.03362 0.15773 0.0
N2556 N 0.83368 0.1335 0.18678 0.0
N2557 N 0.8395 0.05145 0.16698 0.0
H2558 H 0.69511 1.01464 0.96749 0.0
H2559 H 0.75427 0.198 0.9371 0.0
H2560 H 0.65818 0.10934 0.9802 0.0
H2561 H 0.78024 0.10551 0.91965 0.0
H2562 H 0.7229 0.16653 0.95258 0.0
H2563 H 0.72685 0.04438 0.95137 0.0
C2564 C 0.69324 0.04167 0.9672 0.0
C2565 C 0.67224 0.0579 0.97616 0.0
C2566 C 0.7351 0.15243 0.94545 0.0
C2567 C 0.71176 0.09506 0.95616 0.0
C2568 C 0.75371 0.17102 0.9362 0.0
C2569 C 0.77131 0.15635 0.92604 0.0
C2570 C 0.73262 0.11667 0.94559 0.0
C2571 C 0.76792 0.12013 0.92661 0.0
C2572 C 0.71202 0.05923 0.95761 0.0
C2573 C 0.67292 0.09382 0.97416 0.0
N2574 N 0.74995 0.10268 0.93579 0.0
N2575 N 0.69147 0.11003 0.96492 0.0
H2576 H 0.83913 0.6538 0.8975 0.0
H2577 H 0.83633 0.53191 0.95959 0.0
H2578 H 0.74616 0.61736 0.91177 0.0
H2579 H 0.92735 0.56292 0.94231 0.0
H2580 H 0.80383 0.56202 0.94366 0.0
H2581 H 0.86965 0.62299 0.91354 0.0
C2582 C 0.82435 0.6395 0.90385 0.0
C2583 C 0.78836 0.63976 0.90234 0.0
C2584 C 0.83095 0.56269 0.9432 0.0
C2585 C 0.82623 0.60156 0.92245 0.0
C2586 C 0.85027 0.54495 0.95266 0.0
C2587 C 0.88649 0.54354 0.95323 0.0
C2588 C 0.84635 0.58082 0.93342 0.0
C2589 C 0.9003 0.56204 0.94311 0.0
C2590 C 0.84254 0.62128 0.91336 0.0
C2591 C 0.77324 0.61935 0.91172 0.0
N2592 N 0.88116 0.57896 0.93421 0.0
N2593 N 0.79147 0.60215 0.92088 0.0
H2594 H 0.71805 0.5323 0.17693 0.0
H2595 H 0.73074 0.6963 0.2243 0.0
H2596 H 0.63221 0.59343 0.18497 0.0
H2597 H 0.79725 0.61288 0.2292 0.0
H2598 H 0.69983 0.66398 0.20878 0.0
H2599 H 0.74989 0.56266 0.19296 0.0
C2600 C 0.70526 0.55228 0.18171 0.0
C2601 C 0.67061 0.55893 0.17853 0.0
C2602 C 0.72099 0.65202 0.21315 0.0
C2603 C 0.71023 0.59703 0.19849 0.0
C2604 C 0.73934 0.67107 0.22244 0.0
C2605 C 0.76777 0.65889 0.22929 0.0
C2606 C 0.73026 0.61886 0.20932 0.0
C2607 C 0.77578 0.62512 0.22514 0.0
C2608 C 0.72415 0.5701 0.19131 0.0
C2609 C 0.65808 0.58587 0.18621 0.0
N2610 N 0.75815 0.6076 0.21586 0.0
N2611 N 0.67704 0.60304 0.19514 0.0
H2612 H 0.7711 0.37374 0.41988 0.0
H2613 H 0.61646 0.50867 0.4366 0.0
H2614 H 0.71757 0.42513 0.39186 0.0
H2615 H 0.68633 0.47629 0.46365 0.0
H2616 H 0.64894 0.47756 0.42114 0.0
H2617 H 0.73992 0.40658 0.43519 0.0
C2618 C 0.75291 0.39179 0.41661 0.0
C2619 C 0.74896 0.39485 0.40367 0.0
C2620 C 0.65774 0.47678 0.43039 0.0
C2621 C 0.70932 0.43557 0.42283 0.0
C2622 C 0.63852 0.49518 0.43962 0.0
C2623 C 0.64677 0.49698 0.45233 0.0
C2624 C 0.68722 0.45752 0.43305 0.0
C2625 C 0.67702 0.47744 0.45448 0.0
C2626 C 0.73447 0.41122 0.42576 0.0
C2627 C 0.72355 0.42014 0.40121 0.0
N2628 N 0.69484 0.45935 0.44537 0.0
N2629 N 0.7056 0.43823 0.4103 0.0
H2630 H 0.77203 0.43851 0.71792 0.0
H2631 H 0.95604 0.49828 0.68778 0.0
H2632 H 0.86688 0.40177 0.73062 0.0
H2633 H 0.86339 0.52333 0.67024 0.0
H2634 H 0.92443 0.46676 0.7032 0.0
H2635 H 0.80201 0.47022 0.70186 0.0
C2636 C 0.79914 0.43668 0.71764 0.0
C2637 C 0.81534 0.41576 0.72656 0.0
C2638 C 0.91034 0.4788 0.69606 0.0
C2639 C 0.85278 0.45522 0.70667 0.0
C2640 C 0.929 0.49748 0.68685 0.0
C2641 C 0.91429 0.51486 0.6767 0.0
C2642 C 0.8745 0.47608 0.69615 0.0
C2643 C 0.87801 0.51118 0.67721 0.0
C2644 C 0.81684 0.45544 0.70809 0.0
C2645 C 0.85138 0.41647 0.72459 0.0
N2646 N 0.8605 0.49319 0.68635 0.0
N2647 N 0.86773 0.43501 0.7154 0.0
H2648 H 0.22685 0.35645 0.19255 0.0
H2649 H 0.17327 0.54117 0.16173 0.0
H2650 H 0.25452 0.44828 0.20995 0.0
H2651 H 0.1315 0.44803 0.14981 0.0
H2652 H 0.20418 0.51049 0.17787 0.0
H2653 H 0.19608 0.38875 0.17706 0.0
C2654 C 0.22678 0.38344 0.19344 0.0
C2655 C 0.24458 0.39771 0.20357 0.0
C2656 C 0.18846 0.49619 0.1718 0.0
C2657 C 0.20686 0.43834 0.18403 0.0
C2658 C 0.17017 0.51429 0.16219 0.0
C2659 C 0.14813 0.49879 0.15346 0.0
C2660 C 0.18659 0.4605 0.17345 0.0
C2661 C 0.14719 0.46299 0.15567 0.0
C2662 C 0.20855 0.40251 0.18419 0.0
C2663 C 0.2419 0.43399 0.203 0.0
N2664 N 0.16534 0.44621 0.1649 0.0
N2665 N 0.22439 0.4519 0.19381 0.0
H2666 H 0.36525 0.53591 0.98276 0.0
H2667 H 0.35992 0.38355 0.93043 0.0
H2668 H 0.45502 0.48802 0.96997 0.0
H2669 H 0.28222 0.45808 0.93081 0.0
H2670 H 0.39061 0.41573 0.94604 0.0
H2671 H 0.33292 0.50549 0.96686 0.0
C2672 C 0.37889 0.51884 0.97692 0.0
C2673 C 0.41475 0.51581 0.97872 0.0
C2674 C 0.36692 0.42569 0.94285 0.0
C2675 C 0.37469 0.47779 0.95897 0.0
C2676 C 0.34865 0.40672 0.93354 0.0
C2677 C 0.31706 0.41658 0.92818 0.0
C2678 C 0.35459 0.4562 0.94814 0.0
C2679 C 0.30601 0.44781 0.93375 0.0
C2680 C 0.35969 0.50102 0.96743 0.0
C2681 C 0.42822 0.49253 0.96982 0.0
N2682 N 0.32379 0.4652 0.94301 0.0
N2683 N 0.40908 0.47522 0.96099 0.0
H2684 H 0.36565 0.49984 0.66173 0.0
H2685 H 0.30548 0.68393 0.69211 0.0
H2686 H 0.3989 0.59437 0.64806 0.0
H2687 H 0.28144 0.59174 0.7098 0.0
H2688 H 0.33621 0.65218 0.6764 0.0
H2689 H 0.33454 0.52997 0.67802 0.0
C2690 C 0.36685 0.52691 0.66185 0.0
C2691 C 0.38662 0.54295 0.65257 0.0
C2692 C 0.32456 0.63821 0.68364 0.0
C2693 C 0.34788 0.58061 0.67279 0.0
C2694 C 0.30634 0.65697 0.69303 0.0
C2695 C 0.28947 0.64246 0.70331 0.0
C2696 C 0.32741 0.60244 0.6835 0.0
C2697 C 0.29318 0.60624 0.70274 0.0
C2698 C 0.34842 0.54471 0.67154 0.0
C2699 C 0.38513 0.57897 0.65436 0.0
N2700 N 0.31081 0.58864 0.69344 0.0
N2701 N 0.36699 0.59541 0.66372 0.0
H2702 H 0.15014 0.61301 0.4813 0.0
H2703 H 0.27375 0.61166 0.41946 0.0
H2704 H 0.19008 0.52071 0.46748 0.0
H2705 H 0.24784 0.70166 0.43855 0.0
H2706 H 0.24271 0.57892 0.43504 0.0
H2707 H 0.18184 0.64374 0.46559 0.0
C2708 C 0.16539 0.59842 0.47511 0.0
C2709 C 0.16586 0.56254 0.47667 0.0
C2710 C 0.24332 0.60589 0.43596 0.0
C2711 C 0.20497 0.60067 0.45689 0.0
C2712 C 0.26156 0.62536 0.42669 0.0
C2713 C 0.26473 0.66139 0.42676 0.0
C2714 C 0.22626 0.62095 0.44613 0.0
C2715 C 0.24729 0.67481 0.43725 0.0
C2716 C 0.18413 0.61674 0.46579 0.0
C2717 C 0.18746 0.54768 0.46749 0.0
N2718 N 0.22971 0.65557 0.44591 0.0
N2719 N 0.20499 0.56601 0.45847 0.0
H2720 H 0.19692 0.95679 0.37147 0.0
H2721 H 0.3292 0.91384 0.32661 0.0
H2722 H 0.29506 1.00159 0.3696 0.0
H2723 H 0.23536 0.86132 0.33045 0.0
H2724 H 0.32915 0.92491 0.34816 0.0
H2725 H 0.22075 0.90432 0.36403 0.0
C2726 C 0.22372 0.95525 0.36987 0.0
C2727 C 0.24368 0.98406 0.37044 0.0
C2728 C 0.30893 0.91014 0.3444 0.0
C2729 C 0.27087 0.92466 0.36155 0.0
C2730 C 0.30902 0.90363 0.33201 0.0
C2731 C 0.28108 0.8885 0.32656 0.0
C2732 C 0.28012 0.90267 0.35122 0.0
C2733 C 0.25633 0.87509 0.33416 0.0
C2734 C 0.23742 0.92522 0.36563 0.0
C2735 C 0.27843 0.98033 0.36881 0.0
N2736 N 0.25574 0.88356 0.34605 0.0
N2737 N 0.29078 0.95151 0.364 0.0
H2738 H 0.15478 0.93105 0.5714 0.0
H2739 H 0.25768 1.02072 0.52051 0.0
H2740 H 0.19017 0.03292 0.57343 0.0
H2741 H 0.2158 0.92177 0.51633 0.0
H2742 H 0.22041 0.03059 0.53747 0.0
H2743 H 0.1656 0.93123 0.54963 0.0
C2744 C 0.16444 0.95358 0.56725 0.0
C2745 C 0.17225 0.98176 0.5743 0.0
C2746 C 0.21881 1.00691 0.53271 0.0
C2747 C 0.18454 0.98222 0.54942 0.0
C2748 C 0.23995 1.00133 0.52287 0.0
C2749 C 0.2408 0.96986 0.51717 0.0
C2750 C 0.19883 0.98066 0.53705 0.0
C2751 C 0.21702 0.94593 0.52076 0.0
C2752 C 0.17036 0.95377 0.55481 0.0
C2753 C 0.18386 1.01056 0.5684 0.0
N2754 N 0.19766 0.95146 0.53068 0.0
N2755 N 0.19018 1.00983 0.55635 0.0
H2756 H 0.27222 1.01665 0.76234 0.0
H2757 H 0.32515 0.85837 0.79787 0.0
H2758 H 0.37125 0.9726 0.76318 0.0
H2759 H 0.23685 0.91932 0.8037 0.0
H2760 H 0.32935 0.88074 0.77738 0.0
H2761 H 0.24866 0.96317 0.76856 0.0
C2762 C 0.28896 0.99542 0.76338 0.0
C2763 C 0.32393 0.99945 0.7628 0.0
C2764 C 0.30835 0.88826 0.78301 0.0
C2765 C 0.29716 0.93858 0.77024 0.0
C2766 C 0.30605 0.87567 0.79474 0.0
C2767 C 0.28178 0.88851 0.80275 0.0
C2768 C 0.28634 0.91388 0.77938 0.0
C2769 C 0.25671 0.90949 0.79801 0.0
C2770 C 0.27545 0.96485 0.76698 0.0
C2771 C 0.34424 0.97089 0.76408 0.0
N2772 N 0.26022 0.92233 0.78675 0.0
N2773 N 0.33067 0.94186 0.7681 0.0
H2774 H 0.31114 0.05012 1.02049 0.0
H2775 H 0.37454 0.16316 0.07537 0.0
H2776 H 0.28529 0.15438 1.0254 0.0
H2777 H 0.38187 0.05546 0.07412 0.0
H2778 H 0.35615 0.16303 1.05422 0.0
H2779 H 0.35119 0.05475 1.03714 0.0
C2780 C 0.31428 0.07412 1.02492 0.0
C2781 C 0.29425 0.10169 1.02168 0.0
C2782 C 0.36236 0.13947 1.05852 0.0
C2783 C 0.34006 0.10716 1.04073 0.0
C2784 C 0.373 0.13957 0.07055 0.0
C2785 C 0.37906 0.10923 0.07652 0.0
C2786 C 0.35793 0.10882 1.05246 0.0
C2787 C 0.37671 0.07934 0.06989 0.0
C2788 C 0.33719 0.07676 1.03441 0.0
C2789 C 0.30006 0.13239 1.02755 0.0
N2790 N 0.36593 0.07984 1.05826 0.0
N2791 N 0.322 0.13415 1.03692 0.0
H2792 H 0.7849 0.93267 0.80731 0.0
H2793 H 0.90164 0.98779 0.86231 0.0
H2794 H 0.89266 0.92077 0.8076 0.0
H2795 H 0.80127 1.02523 0.85597 0.0
H2796 H 0.89442 0.94852 0.84552 0.0
H2797 H 0.787 0.95166 0.82827 0.0
C2798 C 0.80896 0.93338 0.81186 0.0
C2799 C 0.83873 0.92553 0.80564 0.0
C2800 C 0.87381 0.96492 0.848 0.0
C2801 C 0.84127 0.94762 0.8296 0.0
C2802 C 0.87788 0.9874 0.85756 0.0
C2803 C 0.85237 1.01057 0.8604 0.0
C2804 C 0.8439 0.9654 0.84131 0.0
C2805 C 0.82176 1.00807 0.85416 0.0
C2806 C 0.81013 0.9444 0.8238 0.0
C2807 C 0.8692 0.92723 0.81198 0.0
N2808 N 0.81859 0.9863 0.84479 0.0
N2809 N 0.86974 0.93843 0.82359 0.0
H2810 H 0.61029 0.07942 0.54687 0.0
H2811 H 0.76987 1.01261 0.51533 0.0
H2812 H 0.6629 0.98719 0.55448 0.0
H2813 H 0.73093 0.11336 0.51321 0.0
H2814 H 0.71404 0.99288 0.52072 0.0
H2815 H 0.63551 0.07979 0.52672 0.0
C2816 C 0.62632 0.05871 0.54419 0.0
C2817 C 0.6361 0.03432 0.55262 0.0
C2818 C 0.71742 1.01918 0.51869 0.0
C2819 C 0.66483 0.03458 0.52967 0.0
C2820 C 0.74935 0.03048 0.51556 0.0
C2821 C 0.75534 0.06494 0.5144 0.0
C2822 C 0.69172 0.0426 0.52092 0.0
C2823 C 0.72765 0.08676 0.51461 0.0
C2824 C 0.64055 0.05884 0.53266 0.0
C2825 C 0.65549 1.0072 0.54846 0.0
N2826 N 0.69719 0.07539 0.51821 0.0
N2827 N 0.67009 1.0086 0.5374 0.0
H2828 H 0.64791 0.93521 0.33255 0.0
H2829 H 0.60277 0.09928 0.29593 0.0
H2830 H 0.61876 0.02887 0.34914 0.0
H2831 H 0.63873 1.00705 0.28 0.0
H2832 H 0.59389 0.0698 0.315 0.0
H2833 H 0.62932 0.9566 0.31307 0.0
C2834 C 0.63684 0.95999 0.33216 0.0
C2835 C 0.63562 0.98059 0.34244 0.0
C2836 C 0.60308 0.05589 0.30725 0.0
C2837 C 0.61503 1.00554 0.3201 0.0
C2838 C 0.60828 0.07273 0.29639 0.0
C2839 C 0.62222 0.05579 0.28643 0.0
C2840 C 0.61213 1.02196 0.30817 0.0
C2841 C 0.62805 1.02122 0.28743 0.0
C2842 C 0.62642 0.97231 0.321 0.0
C2843 C 0.62109 1.01253 0.34136 0.0
N2844 N 0.62354 1.00559 0.29817 0.0
N2845 N 0.61193 1.02427 0.33034 0.0
H2846 H 0.70638 0.94784 0.12106 0.0
H2847 H 0.6662 0.07737 0.07535 0.0
H2848 H 0.75123 0.04571 0.11906 0.0
H2849 H 0.6129 0.98419 0.07934 0.0
H2850 H 0.67581 0.07849 0.09695 0.0
H2851 H 0.65413 0.97121 0.11323 0.0
C2852 C 0.70487 0.9745 0.11936 0.0
C2853 C 0.7337 0.99448 0.12 0.0
C2854 C 0.6612 0.05814 0.0932 0.0
C2855 C 0.67459 1.02111 0.11066 0.0
C2856 C 0.65553 0.05756 0.08077 0.0
C2857 C 0.64063 0.02945 0.07537 0.0
C2858 C 0.65319 0.02981 0.10013 0.0
C2859 C 0.62659 1.00523 0.08302 0.0
C2860 C 0.67497 0.98793 0.11489 0.0
C2861 C 0.72998 0.02906 0.11822 0.0
N2862 N 0.6343 1.00527 0.09497 0.0
N2863 N 0.70132 0.04112 0.11319 0.0
H2864 H 0.80708 0.50505 0.86952 0.0
H2865 H 0.74041 0.36188 0.8307 0.0
H2866 H 0.70735 0.4636 0.87101 0.0
H2867 H 0.83192 0.41762 0.82565 0.0
H2868 H 0.74168 0.37617 0.85217 0.0
H2869 H 0.82813 0.4516 0.86209 0.0
C2870 C 0.7897 0.48438 0.86875 0.0
C2871 C 0.755 0.4894 0.87015 0.0
C2872 C 0.76212 0.38427 0.84643 0.0
C2873 C 0.77882 0.42873 0.86114 0.0
C2874 C 0.76127 0.37635 0.83414 0.0
C2875 C 0.78502 0.3902 0.82622 0.0
C2876 C 0.78655 0.40661 0.85072 0.0
C2877 C 0.81236 0.40728 0.83129 0.0
C2878 C 0.80179 0.45377 0.86442 0.0
C2879 C 0.73405 0.46132 0.86933 0.0
N2880 N 0.81183 0.41588 0.84316 0.0
N2881 N 0.74605 0.43245 0.86443 0.0
H2882 H 0.89813 0.41829 1.05987 0.0
H2883 H 0.80533 0.52407 0.10975 0.0
H2884 H 0.87027 0.52241 1.05633 0.0
H2885 H 0.84068 0.42306 0.11578 0.0
H2886 H 0.84164 0.52782 0.09228 0.0
H2887 H 0.88792 0.42236 0.08166 0.0
C2888 C 0.89022 0.44207 1.06368 0.0
C2889 C 0.88451 0.46987 1.05621 0.0
C2890 C 0.842 0.50498 0.09753 0.0
C2891 C 0.87308 0.4748 0.0811 0.0
C2892 C 0.82144 0.50292 0.10768 0.0
C2893 C 0.81891 0.47272 0.11409 0.0
C2894 C 0.85968 0.47647 0.09359 0.0
C2895 C 0.84066 0.44637 0.11082 0.0
C2896 C 0.88471 0.44446 0.07613 0.0
C2897 C 0.87509 0.50027 1.06168 0.0
N2898 N 0.85942 0.44849 0.10059 0.0
N2899 N 0.86922 0.50175 0.07373 0.0
H2900 H 0.98577 0.50057 0.3516 0.0
H2901 H 0.90718 0.66883 0.33411 0.0
H2902 H 0.90849 0.55309 0.37142 0.0
H2903 H 0.97942 0.61296 0.31305 0.0
H2904 H 0.92782 0.64128 0.35234 0.0
H2905 H 1.00423 0.55376 0.34312 0.0
C2906 C 0.97345 0.52346 0.3545 0.0
C2907 C 0.9445 0.52229 0.36172 0.0
C2908 C 0.93995 0.63579 0.34379 0.0
C2909 C 0.96487 0.58291 0.35188 0.0
C2910 C 0.92807 0.65147 0.33339 0.0
C2911 C 0.94063 0.64202 0.32203 0.0
C2912 C 0.96382 0.60992 0.34273 0.0
C2913 C 0.9684 0.62034 0.32161 0.0
C2914 C 0.98398 0.55386 0.34966 0.0
C2915 C 0.93028 0.55269 0.36557 0.0
N2916 N 0.97839 0.60419 0.33177 0.0
N2917 N 0.93986 0.58171 0.36027 0.0
H2918 H 0.76538 0.68677 0.52929 0.0
H2919 H 0.86522 0.68308 0.58064 0.0
H2920 H 0.69786 0.62684 0.55065 0.0
H2921 H 0.77549 0.65369 0.59968 0.0
H2922 H 0.83256 0.68792 0.56214 0.0
H2923 H 0.79614 0.7013 0.54762 0.0
C2924 C 0.75703 0.67672 0.53786 0.0
C2925 C 0.72938 0.65506 0.53841 0.0
C2926 C 0.81965 0.68145 0.57039 0.0
C2927 C 0.76495 0.67084 0.55942 0.0
C2928 C 0.83849 0.67828 0.58096 0.0
C2929 C 0.82317 0.6677 0.59171 0.0
C2930 C 0.78518 0.67392 0.57058 0.0
C2931 C 0.78839 0.66217 0.59165 0.0
C2932 C 0.77476 0.68484 0.54833 0.0
C2933 C 0.71902 0.64357 0.54978 0.0
N2934 N 0.77072 0.66487 0.58122 0.0
N2935 N 0.73704 0.65131 0.5598 0.0
H2936 H 0.38556 0.50639 0.35867 0.0
H2937 H 0.43229 0.47602 0.28945 0.0
H2938 H 0.4395 0.57744 0.33676 0.0
H2939 H 0.35426 0.42329 0.30851 0.0
H2940 H 0.44855 0.50323 0.30841 0.0
H2941 H 0.38772 0.46625 0.34202 0.0
C2942 C 0.39859 0.51326 0.35045 0.0
C2943 C 0.4121 0.54541 0.34902 0.0
C2944 C 0.42826 0.48527 0.30846 0.0
C2945 C 0.41422 0.49977 0.32992 0.0
C2946 C 0.41912 0.46959 0.29769 0.0
C2947 C 0.39159 0.44783 0.29743 0.0
C2948 C 0.4098 0.47893 0.31901 0.0
C2949 C 0.37525 0.44042 0.30832 0.0
C2950 C 0.39959 0.49041 0.34093 0.0
C2951 C 0.42831 0.55309 0.33813 0.0
N2952 N 0.38438 0.45625 0.31867 0.0
N2953 N 0.42864 0.53052 0.32893 0.0
H2954 H 0.27028 0.51923 1.01406 0.0
H2955 H 0.11259 0.58529 1.04742 0.0
H2956 H 0.2323 0.62049 1.01307 0.0
H2957 H 0.16501 0.49234 1.05401 0.0
H2958 H 0.13747 0.58709 1.02723 0.0
H2959 H 0.21476 0.49983 1.01998 0.0
C2960 C 0.24999 0.5373 1.01464 0.0
C2961 C 0.25624 0.57175 1.01363 0.0
C2962 C 0.14255 0.56569 1.03295 0.0
C2963 C 0.193 0.54976 1.02075 0.0
C2964 C 0.12852 0.56474 1.04451 0.0
C2965 C 0.13826 0.53963 1.05266 0.0
C2966 C 0.16657 0.54149 1.02965 0.0
C2967 C 0.15757 0.51282 1.04821 0.0
C2968 C 0.21824 0.52618 1.01808 0.0
C2969 C 0.22883 0.59385 1.01432 0.0
N2970 N 0.17193 0.51497 1.03712 0.0
N2971 N 0.19859 0.58262 1.0182 0.0
H2972 H 0.16868 0.47234 0.76713 0.0
H2973 H 0.28523 0.4367 0.82405 0.0
H2974 H 0.26677 0.51526 0.7729 0.0
H2975 H 0.17934 0.41427 0.82276 0.0
H2976 H 0.28379 0.45003 0.80259 0.0
H2977 H 0.17787 0.43586 0.78455 0.0
C2978 C 0.19241 0.47366 0.77188 0.0
C2979 C 0.21656 0.49768 0.76872 0.0
C2980 C 0.26097 0.44169 0.80695 0.0
C2981 C 0.22727 0.45582 0.78856 0.0
C2982 C 0.26178 0.43388 0.81921 0.0
C2983 C 0.23221 0.42486 0.82527 0.0
C2984 C 0.23036 0.44065 0.80069 0.0
C2985 C 0.20255 0.42192 0.81851 0.0
C2986 C 0.19762 0.45279 0.78181 0.0
C2987 C 0.24725 0.49741 0.77497 0.0
N2988 N 0.20227 0.43022 0.8066 0.0
N2989 N 0.25146 0.47728 0.78472 0.0
H2990 H 0.11124 0.49489 0.58062 0.0
H2991 H 0.25263 0.56666 0.61872 0.0
H2992 H 0.16599 0.58636 0.57461 0.0
H2993 H 0.21065 0.46773 0.62192 0.0
H2994 H 0.19914 0.58684 0.61101 0.0
H2995 H 0.12418 0.49898 0.60214 0.0
C2996 C 0.12524 0.51631 0.58385 0.0
C2997 C 0.13922 0.53926 0.57569 0.0
C2998 C 0.2012 0.56091 0.61377 0.0
C2999 C 0.15423 0.54393 0.60025 0.0
C3000 C 0.23183 0.54933 0.61827 0.0
C3001 C 0.23674 0.51493 0.62021 0.0
C3002 C 0.17604 0.53767 0.61086 0.0
C3003 C 0.20847 0.4941 0.6198 0.0
C3004 C 0.13238 0.51877 0.59617 0.0
C3005 C 0.15562 0.56737 0.58047 0.0
N3006 N 0.1796 0.50548 0.61472 0.0
N3007 N 0.16358 0.56837 0.59238 0.0
loop_
_geom_bond_atom_site_label_1
_geom_bond_atom_site_label_2
_geom_bond_distance
_geom_bond_site_symmetry_2
_ccdc_geom_bond_type
Pr0 C2 2.880 . S
Pr0 O20 2.562 . S
Pr0 O21 2.490 . S
Pr0 O22 2.695 . S
Pr0 O23 2.512 . S
Pr0 O25 2.437 . S
Pr0 O28 2.436 . S
Pr0 O30 2.438 . S
Pr1 C11 2.880 . S
Pr1 O22 2.436 . S
Pr1 O24 2.438 . S
Pr1 O26 2.562 . S
Pr1 O27 2.490 . S
Pr1 O28 2.695 . S
Pr1 O29 2.512 . S
Pr1 O31 2.437 . S
C2 Pr0 2.880 . S
C2 C3 1.491 . S
C2 O20 1.254 . S
C2 O21 1.225 . S
C3 C2 1.491 . S
C3 C4 1.392 . S
C3 C8 1.356 . S
C4 C3 1.392 . S
C4 C5 1.368 . S
C4 H32 0.929 . S
C5 C4 1.368 . S
C5 C6 1.386 . S
C5 H33 0.929 . S
C6 C5 1.386 . S
C6 C7 1.373 . S
C7 C6 1.373 . S
C7 C8 1.409 . S
C7 H34 0.931 . S
C8 C3 1.356 . S
C8 C7 1.409 . S
C8 H35 0.930 . S
C9 O22 1.270 . S
C9 O23 1.248 . S
C10 O24 1.267 . S
C10 O25 1.278 . S
C11 Pr1 2.880 . S
C11 C12 1.491 . S
C11 O26 1.254 . S
C11 O27 1.225 . S
C12 C11 1.491 . S
C12 C13 1.392 . S
C12 C17 1.356 . S
C13 C12 1.392 . S
C13 C14 1.368 . S
C13 H36 0.929 . S
C14 C13 1.368 . S
C14 C15 1.386 . S
C14 H37 0.929 . S
C15 C14 1.386 . S
C15 C16 1.373 . S
C16 C15 1.373 . S
C16 C17 1.409 . S
C16 H38 0.931 . S
C17 C12 1.356 . S
C17 C16 1.409 . S
C17 H39 0.930 . S
C18 O28 1.270 . S
C18 O29 1.248 . S
C19 O30 1.267 . S
C19 O31 1.278 . S
O20 Pr0 2.562 . S
O20 C2 1.254 . S
O21 Pr0 2.490 . S
O21 C2 1.225 . S
O22 Pr0 2.695 . S
O22 Pr1 2.436 . S
O22 C9 1.270 . S
O23 Pr0 2.512 . S
O23 C9 1.248 . S
O24 Pr1 2.438 . S
O24 C10 1.267 . S
O25 Pr0 2.437 . S
O25 C10 1.278 . S
O26 Pr1 2.562 . S
O26 C11 1.254 . S
O27 Pr1 2.490 . S
O27 C11 1.225 . S
O28 Pr0 2.436 . S
O28 Pr1 2.695 . S
O28 C18 1.270 . S
O29 Pr1 2.512 . S
O29 C18 1.248 . S
O30 Pr0 2.438 . S
O30 C19 1.267 . S
O31 Pr1 2.437 . S
O31 C19 1.278 . S
H32 C4 0.929 . S
H33 C5 0.929 . S
H34 C7 0.931 . S
H35 C8 0.930 . S
H36 C13 0.929 . S
H37 C14 0.929 . S
H38 C16 0.931 . S
H39 C17 0.930 . S
Pr40 C42 2.885 . S
Pr40 O60 2.567 . S
Pr40 O61 2.495 . S
Pr40 O62 2.686 1_655 S
Pr40 O63 2.507 1_665 S
Pr40 O65 2.431 1_655 S
Pr40 O68 2.432 1_655 S
Pr40 O70 2.437 1_655 S
Pr41 C51 2.880 . S
Pr41 O62 2.436 . S
Pr41 O64 2.438 . S
Pr41 O66 2.562 . S
Pr41 O67 2.490 . S
Pr41 O68 2.695 . S
Pr41 O69 2.512 . S
Pr41 O71 2.437 . S
C42 Pr40 2.885 . S
C42 C43 1.491 . S
C42 O60 1.254 . S
C42 O61 1.225 . S
C43 C42 1.491 . S
C43 C44 1.392 . S
C43 C48 1.356 . S
C44 C43 1.392 . S
C44 C45 1.368 . S
C44 H72 0.929 . S
C45 C44 1.368 . S
C45 C46 1.386 . S
C45 H73 0.929 . S
C46 C45 1.386 . S
C46 C47 1.373 . S
C47 C46 1.373 . S
C47 C48 1.409 . S
C47 H74 0.931 . S
C48 C43 1.356 . S
C48 C47 1.409 . S
C48 H75 0.930 . S
C49 O62 1.270 1_545 S
C49 O63 1.248 . S
C50 O64 1.267 . S
C50 O65 1.278 . S
C51 Pr41 2.880 . S
C51 C52 1.491 . S
C51 O66 1.254 . S
C51 O67 1.225 . S
C52 C51 1.491 . S
C52 C53 1.392 . S
C52 C57 1.356 . S
C53 C52 1.392 . S
C53 C54 1.368 . S
C53 H76 0.929 . S
C54 C53 1.368 . S
C54 C55 1.386 . S
C54 H77 0.929 . S
C55 C54 1.386 . S
C55 C56 1.373 . S
C56 C55 1.373 . S
C56 C57 1.409 . S
C56 H78 0.931 1_565 S
C57 C52 1.356 . S
C57 C56 1.409 . S
C57 H79 0.930 1_565 S
C58 O68 1.270 . S
C58 O69 1.248 . S
C59 O70 1.267 . S
C59 O71 1.278 . S
O60 Pr40 2.567 . S
O60 C42 1.254 . S
O61 Pr40 2.495 . S
O61 C42 1.225 . S
O62 Pr40 2.686 1_455 S
O62 Pr41 2.436 . S
O62 C49 1.270 1_565 S
O63 Pr40 2.507 1_445 S
O63 C49 1.248 . S
O64 Pr41 2.438 . S
O64 C50 1.267 . S
O65 Pr40 2.431 1_455 S
O65 C50 1.278 . S
O66 Pr41 2.562 . S
O66 C51 1.254 . S
O67 Pr41 2.490 . S
O67 C51 1.225 . S
O68 Pr40 2.432 1_455 S
O68 Pr41 2.695 . S
O68 C58 1.270 . S
O69 Pr41 2.512 . S
O69 C58 1.248 . S
O70 Pr40 2.437 1_455 S
O70 C59 1.267 . S
O71 Pr41 2.437 . S
O71 C59 1.278 . S
H72 C44 0.929 . S
H73 C45 0.929 . S
H74 C47 0.931 . S
H75 C48 0.930 . S
H76 C53 0.929 . S
H77 C54 0.929 . S
H78 C56 0.931 1_545 S
H79 C57 0.930 1_545 S
Pr80 C82 2.880 . S
Pr80 O100 2.562 . S
Pr80 O101 2.490 . S
Pr80 O102 2.695 . S
Pr80 O103 2.512 . S
Pr80 O105 2.437 . S
Pr80 O108 2.436 . S
Pr80 O110 2.438 . S
Pr81 C91 2.880 . S
Pr81 O102 2.436 . S
Pr81 O104 2.438 . S
Pr81 O106 2.562 . S
Pr81 O107 2.490 . S
Pr81 O108 2.695 . S
Pr81 O109 2.512 . S
Pr81 O111 2.437 . S
C82 Pr80 2.880 . S
C82 C83 1.491 . S
C82 O100 1.254 . S
C82 O101 1.225 . S
C83 C82 1.491 . S
C83 C84 1.392 . S
C83 C88 1.356 . S
C84 C83 1.392 . S
C84 C85 1.368 . S
C84 H112 0.929 . S
C85 C84 1.368 . S
C85 C86 1.386 . S
C85 H113 0.929 . S
C86 C85 1.386 . S
C86 C87 1.373 . S
C87 C86 1.373 . S
C87 C88 1.409 . S
C87 H114 0.931 . S
C88 C83 1.356 . S
C88 C87 1.409 . S
C88 H115 0.930 . S
C89 O102 1.270 . S
C89 O103 1.248 . S
C90 O104 1.267 . S
C90 O105 1.278 . S
C91 Pr81 2.880 . S
C91 C92 1.491 . S
C91 O106 1.254 . S
C91 O107 1.225 . S
C92 C91 1.491 . S
C92 C93 1.392 . S
C92 C97 1.356 . S
C93 C92 1.392 . S
C93 C94 1.368 . S
C93 H116 0.929 . S
C94 C93 1.368 . S
C94 C95 1.386 . S
C94 H117 0.929 . S
C95 C94 1.386 . S
C95 C96 1.373 . S
C96 C95 1.373 . S
C96 C97 1.409 . S
C96 H118 0.931 . S
C97 C92 1.356 . S
C97 C96 1.409 . S
C97 H119 0.930 . S
C98 O108 1.270 . S
C98 O109 1.248 . S
C99 O110 1.267 . S
C99 O111 1.278 . S
O100 Pr80 2.562 . S
O100 C82 1.254 . S
O101 Pr80 2.490 . S
O101 C82 1.225 . S
O102 Pr80 2.695 . S
O102 Pr81 2.436 . S
O102 C89 1.270 . S
O103 Pr80 2.512 . S
O103 C89 1.248 . S
O104 Pr81 2.438 . S
O104 C90 1.267 . S
O105 Pr80 2.437 . S
O105 C90 1.278 . S
O106 Pr81 2.562 . S
O106 C91 1.254 . S
O107 Pr81 2.490 . S
O107 C91 1.225 . S
O108 Pr80 2.436 . S
O108 Pr81 2.695 . S
O108 C98 1.270 . S
O109 Pr81 2.512 . S
O109 C98 1.248 . S
O110 Pr80 2.438 . S
O110 C99 1.267 . S
O111 Pr81 2.437 . S
O111 C99 1.278 . S
H112 C84 0.929 . S
H113 C85 0.929 . S
H114 C87 0.931 . S
H115 C88 0.930 . S
H116 C93 0.929 . S
H117 C94 0.929 . S
H118 C96 0.931 . S
H119 C97 0.930 . S
Pr120 C122 2.880 . S
Pr120 O140 2.562 . S
Pr120 O141 2.490 . S
Pr120 O142 2.695 . S
Pr120 O143 2.512 1_545 S
Pr120 O145 2.437 . S
Pr120 O148 2.436 . S
Pr120 O150 2.438 . S
Pr121 C131 2.880 . S
Pr121 O142 2.436 . S
Pr121 O144 2.438 . S
Pr121 O146 2.562 . S
Pr121 O147 2.490 . S
Pr121 O148 2.695 . S
Pr121 O149 2.512 . S
Pr121 O151 2.437 . S
C122 Pr120 2.880 . S
C122 C123 1.491 . S
C122 O140 1.254 . S
C122 O141 1.225 . S
C123 C122 1.491 . S
C123 C124 1.392 . S
C123 C128 1.356 . S
C124 C123 1.392 . S
C124 C125 1.368 . S
C124 H152 0.929 . S
C125 C124 1.368 . S
C125 C126 1.386 . S
C125 H153 0.929 . S
C126 C125 1.386 . S
C126 C127 1.373 . S
C127 C126 1.373 . S
C127 C128 1.409 . S
C127 H154 0.931 . S
C128 C123 1.356 . S
C128 C127 1.409 . S
C128 H155 0.930 . S
C129 O142 1.270 1_565 S
C129 O143 1.248 . S
C130 O144 1.267 . S
C130 O145 1.278 . S
C131 Pr121 2.880 . S
C131 C132 1.491 . S
C131 O146 1.254 . S
C131 O147 1.225 . S
C132 C131 1.491 . S
C132 C133 1.392 . S
C132 C137 1.356 . S
C133 C132 1.392 . S
C133 C134 1.368 . S
C133 H156 0.929 . S
C134 C133 1.368 . S
C134 C135 1.386 . S
C134 H157 0.929 . S
C135 C134 1.386 . S
C135 C136 1.373 . S
C136 C135 1.373 . S
C136 C137 1.409 . S
C136 H158 0.931 1_545 S
C137 C132 1.356 . S
C137 C136 1.409 . S
C137 H159 0.930 1_545 S
C138 O148 1.270 . S
C138 O149 1.248 . S
C139 O150 1.267 . S
C139 O151 1.278 . S
O140 Pr120 2.562 . S
O140 C122 1.254 . S
O141 Pr120 2.490 . S
O141 C122 1.225 . S
O142 Pr120 2.695 . S
O142 Pr121 2.436 . S
O142 C129 1.270 1_545 S
O143 Pr120 2.512 1_565 S
O143 C129 1.248 . S
O144 Pr121 2.438 . S
O144 C130 1.267 . S
O145 Pr120 2.437 . S
O145 C130 1.278 . S
O146 Pr121 2.562 . S
O146 C131 1.254 . S
O147 Pr121 2.490 . S
O147 C131 1.225 . S
O148 Pr120 2.436 . S
O148 Pr121 2.695 . S
O148 C138 1.270 . S
O149 Pr121 2.512 . S
O149 C138 1.248 . S
O150 Pr120 2.438 . S
O150 C139 1.267 . S
O151 Pr121 2.437 . S
O151 C139 1.278 . S
H152 C124 0.929 . S
H153 C125 0.929 . S
H154 C127 0.931 . S
H155 C128 0.930 . S
H156 C133 0.929 . S
H157 C134 0.929 . S
H158 C136 0.931 1_565 S
H159 C137 0.930 1_565 S
Pr160 C162 2.880 . S
Pr160 O180 2.562 . S
Pr160 O181 2.490 . S
Pr160 O182 2.695 . S
Pr160 O183 2.512 . S
Pr160 O185 2.437 . S
Pr160 O188 2.436 . S
Pr160 O190 2.438 . S
Pr161 C171 2.880 . S
Pr161 O182 2.436 . S
Pr161 O184 2.438 . S
Pr161 O186 2.562 . S
Pr161 O187 2.490 . S
Pr161 O188 2.695 . S
Pr161 O189 2.512 . S
Pr161 O191 2.437 . S
C162 Pr160 2.880 . S
C162 C163 1.491 . S
C162 O180 1.254 . S
C162 O181 1.225 . S
C163 C162 1.491 . S
C163 C164 1.392 . S
C163 C168 1.356 . S
C164 C163 1.392 . S
C164 C165 1.368 . S
C164 H192 0.929 . S
C165 C164 1.368 . S
C165 C166 1.386 . S
C165 H193 0.929 . S
C166 C165 1.386 . S
C166 C167 1.373 . S
C167 C166 1.373 . S
C167 C168 1.409 . S
C167 H194 0.931 . S
C168 C163 1.356 . S
C168 C167 1.409 . S
C168 H195 0.930 . S
C169 O182 1.270 . S
C169 O183 1.248 . S
C170 O184 1.267 . S
C170 O185 1.278 . S
C171 Pr161 2.880 . S
C171 C172 1.491 . S
C171 O186 1.254 . S
C171 O187 1.225 . S
C172 C171 1.491 . S
C172 C173 1.392 . S
C172 C177 1.356 . S
C173 C172 1.392 . S
C173 C174 1.368 . S
C173 H196 0.929 . S
C174 C173 1.368 . S
C174 C175 1.386 . S
C174 H197 0.929 . S
C175 C174 1.386 . S
C175 C176 1.373 . S
C176 C175 1.373 . S
C176 C177 1.409 . S
C176 H198 0.931 . S
C177 C172 1.356 . S
C177 C176 1.409 . S
C177 H199 0.930 . S
C178 O188 1.270 . S
C178 O189 1.248 . S
C179 O190 1.267 . S
C179 O191 1.278 . S
O180 Pr160 2.562 . S
O180 C162 1.254 . S
O181 Pr160 2.490 . S
O181 C162 1.225 . S
O182 Pr160 2.695 . S
O182 Pr161 2.436 . S
O182 C169 1.270 . S
O183 Pr160 2.512 . S
O183 C169 1.248 . S
O184 Pr161 2.438 . S
O184 C170 1.267 . S
O185 Pr160 2.437 . S
O185 C170 1.278 . S
O186 Pr161 2.562 . S
O186 C171 1.254 . S
O187 Pr161 2.490 . S
O187 C171 1.225 . S
O188 Pr160 2.436 . S
O188 Pr161 2.695 . S
O188 C178 1.270 . S
O189 Pr161 2.512 . S
O189 C178 1.248 . S
O190 Pr160 2.438 . S
O190 C179 1.267 . S
O191 Pr161 2.437 . S
O191 C179 1.278 . S
H192 C164 0.929 . S
H193 C165 0.929 . S
H194 C167 0.931 . S
H195 C168 0.930 . S
H196 C173 0.929 . S
H197 C174 0.929 . S
H198 C176 0.931 . S
H199 C177 0.930 . S
Pr200 C202 2.880 . S
Pr200 O220 2.562 . S
Pr200 O221 2.490 . S
Pr200 O222 2.695 . S
Pr200 O223 2.512 1_565 S
Pr200 O225 2.437 . S
Pr200 O228 2.436 . S
Pr200 O230 2.438 . S
Pr201 C211 2.880 . S
Pr201 O222 2.436 . S
Pr201 O224 2.438 . S
Pr201 O226 2.562 . S
Pr201 O227 2.490 . S
Pr201 O228 2.695 . S
Pr201 O229 2.512 . S
Pr201 O231 2.437 . S
C202 Pr200 2.880 . S
C202 C203 1.491 . S
C202 O220 1.254 . S
C202 O221 1.225 . S
C203 C202 1.491 . S
C203 C204 1.392 . S
C203 C208 1.356 . S
C204 C203 1.392 . S
C204 C205 1.368 . S
C204 H232 0.929 . S
C205 C204 1.368 . S
C205 C206 1.386 . S
C205 H233 0.929 . S
C206 C205 1.386 . S
C206 C207 1.373 . S
C207 C206 1.373 . S
C207 C208 1.409 . S
C207 H234 0.931 . S
C208 C203 1.356 . S
C208 C207 1.409 . S
C208 H235 0.930 . S
C209 O222 1.270 1_545 S
C209 O223 1.248 . S
C210 O224 1.267 . S
C210 O225 1.278 . S
C211 Pr201 2.880 . S
C211 C212 1.491 . S
C211 O226 1.254 . S
C211 O227 1.225 . S
C212 C211 1.491 . S
C212 C213 1.392 . S
C212 C217 1.356 . S
C213 C212 1.392 . S
C213 C214 1.368 . S
C213 H236 0.929 . S
C214 C213 1.368 . S
C214 C215 1.386 . S
C214 H237 0.929 . S
C215 C214 1.386 . S
C215 C216 1.373 . S
C216 C215 1.373 . S
C216 C217 1.409 . S
C216 H238 0.931 1_565 S
C217 C212 1.356 . S
C217 C216 1.409 . S
C217 H239 0.930 1_565 S
C218 O228 1.270 . S
C218 O229 1.248 . S
C219 O230 1.267 . S
C219 O231 1.278 . S
O220 Pr200 2.562 . S
O220 C202 1.254 . S
O221 Pr200 2.490 . S
O221 C202 1.225 . S
O222 Pr200 2.695 . S
O222 Pr201 2.436 . S
O222 C209 1.270 1_565 S
O223 Pr200 2.512 1_545 S
O223 C209 1.248 . S
O224 Pr201 2.438 . S
O224 C210 1.267 . S
O225 Pr200 2.437 . S
O225 C210 1.278 . S
O226 Pr201 2.562 . S
O226 C211 1.254 . S
O227 Pr201 2.490 . S
O227 C211 1.225 . S
O228 Pr200 2.436 . S
O228 Pr201 2.695 . S
O228 C218 1.270 . S
O229 Pr201 2.512 . S
O229 C218 1.248 . S
O230 Pr200 2.438 . S
O230 C219 1.267 . S
O231 Pr201 2.437 . S
O231 C219 1.278 . S
H232 C204 0.929 . S
H233 C205 0.929 . S
H234 C207 0.931 . S
H235 C208 0.930 . S
H236 C213 0.929 . S
H237 C214 0.929 . S
H238 C216 0.931 1_545 S
H239 C217 0.930 1_545 S
Pr240 C242 2.880 . S
Pr240 O260 2.562 . S
Pr240 O261 2.490 . S
Pr240 O262 2.695 . S
Pr240 O263 2.512 . S
Pr240 O265 2.437 . S
Pr240 O268 2.436 . S
Pr240 O270 2.438 . S
Pr241 C251 2.880 . S
Pr241 O262 2.436 . S
Pr241 O264 2.438 . S
Pr241 O266 2.562 . S
Pr241 O267 2.490 . S
Pr241 O268 2.695 . S
Pr241 O269 2.512 . S
Pr241 O271 2.437 . S
C242 Pr240 2.880 . S
C242 C243 1.491 . S
C242 O260 1.254 . S
C242 O261 1.225 . S
C243 C242 1.491 . S
C243 C244 1.392 . S
C243 C248 1.356 . S
C244 C243 1.392 . S
C244 C245 1.368 . S
C244 H272 0.929 . S
C245 C244 1.368 . S
C245 C246 1.386 . S
C245 H273 0.929 . S
C246 C245 1.386 . S
C246 C247 1.373 . S
C247 C246 1.373 . S
C247 C248 1.409 . S
C247 H274 0.931 . S
C248 C243 1.356 . S
C248 C247 1.409 . S
C248 H275 0.930 . S
C249 O262 1.270 . S
C249 O263 1.248 . S
C250 O264 1.267 . S
C250 O265 1.278 . S
C251 Pr241 2.880 . S
C251 C252 1.491 . S
C251 O266 1.254 . S
C251 O267 1.225 . S
C252 C251 1.491 . S
C252 C253 1.392 . S
C252 C257 1.356 . S
C253 C252 1.392 . S
C253 C254 1.368 . S
C253 H276 0.929 . S
C254 C253 1.368 . S
C254 C255 1.386 . S
C254 H277 0.929 . S
C255 C254 1.386 . S
C255 C256 1.373 . S
C256 C255 1.373 . S
C256 C257 1.409 . S
C256 H278 0.931 . S
C257 C252 1.356 . S
C257 C256 1.409 . S
C257 H279 0.930 . S
C258 O268 1.270 . S
C258 O269 1.248 . S
C259 O270 1.267 . S
C259 O271 1.278 . S
O260 Pr240 2.562 . S
O260 C242 1.254 . S
O261 Pr240 2.490 . S
O261 C242 1.225 . S
O262 Pr240 2.695 . S
O262 Pr241 2.436 . S
O262 C249 1.270 . S
O263 Pr240 2.512 . S
O263 C249 1.248 . S
O264 Pr241 2.438 . S
O264 C250 1.267 . S
O265 Pr240 2.437 . S
O265 C250 1.278 . S
O266 Pr241 2.562 . S
O266 C251 1.254 . S
O267 Pr241 2.490 . S
O267 C251 1.225 . S
O268 Pr240 2.436 . S
O268 Pr241 2.695 . S
O268 C258 1.270 . S
O269 Pr241 2.512 . S
O269 C258 1.248 . S
O270 Pr240 2.438 . S
O270 C259 1.267 . S
O271 Pr241 2.437 . S
O271 C259 1.278 . S
H272 C244 0.929 . S
H273 C245 0.929 . S
H274 C247 0.931 . S
H275 C248 0.930 . S
H276 C253 0.929 . S
H277 C254 0.929 . S
H278 C256 0.931 . S
H279 C257 0.930 . S
Pr280 C282 2.885 . S
Pr280 O300 2.567 . S
Pr280 O301 2.495 . S
Pr280 O302 2.686 1_655 S
Pr280 O303 2.507 1_645 S
Pr280 O305 2.431 1_655 S
Pr280 O308 2.432 1_655 S
Pr280 O310 2.437 1_655 S
Pr281 C291 2.880 . S
Pr281 O302 2.436 . S
Pr281 O304 2.438 . S
Pr281 O306 2.562 . S
Pr281 O307 2.490 . S
Pr281 O308 2.695 . S
Pr281 O309 2.512 . S
Pr281 O311 2.437 . S
C282 Pr280 2.885 . S
C282 C283 1.491 . S
C282 O300 1.254 . S
C282 O301 1.225 . S
C283 C282 1.491 . S
C283 C284 1.392 . S
C283 C288 1.356 . S
C284 C283 1.392 . S
C284 C285 1.368 . S
C284 H312 0.929 . S
C285 C284 1.368 . S
C285 C286 1.386 . S
C285 H313 0.929 . S
C286 C285 1.386 . S
C286 C287 1.373 . S
C287 C286 1.373 . S
C287 C288 1.409 . S
C287 H314 0.931 . S
C288 C283 1.356 . S
C288 C287 1.409 . S
C288 H315 0.930 . S
C289 O302 1.270 1_565 S
C289 O303 1.248 . S
C290 O304 1.267 . S
C290 O305 1.278 . S
C291 Pr281 2.880 . S
C291 C292 1.491 . S
C291 O306 1.254 . S
C291 O307 1.225 . S
C292 C291 1.491 . S
C292 C293 1.392 . S
C292 C297 1.356 . S
C293 C292 1.392 . S
C293 C294 1.368 . S
C293 H316 0.929 . S
C294 C293 1.368 . S
C294 C295 1.386 . S
C294 H317 0.929 . S
C295 C294 1.386 . S
C295 C296 1.373 . S
C296 C295 1.373 . S
C296 C297 1.409 . S
C296 H318 0.931 1_545 S
C297 C292 1.356 . S
C297 C296 1.409 . S
C297 H319 0.930 1_545 S
C298 O308 1.270 . S
C298 O309 1.248 . S
C299 O310 1.267 . S
C299 O311 1.278 . S
O300 Pr280 2.567 . S
O300 C282 1.254 . S
O301 Pr280 2.495 . S
O301 C282 1.225 . S
O302 Pr280 2.686 1_455 S
O302 Pr281 2.436 . S
O302 C289 1.270 1_545 S
O303 Pr280 2.507 1_465 S
O303 C289 1.248 . S
O304 Pr281 2.438 . S
O304 C290 1.267 . S
O305 Pr280 2.431 1_455 S
O305 C290 1.278 . S
O306 Pr281 2.562 . S
O306 C291 1.254 . S
O307 Pr281 2.490 . S
O307 C291 1.225 . S
O308 Pr280 2.432 1_455 S
O308 Pr281 2.695 . S
O308 C298 1.270 . S
O309 Pr281 2.512 . S
O309 C298 1.248 . S
O310 Pr280 2.437 1_455 S
O310 C299 1.267 . S
O311 Pr281 2.437 . S
O311 C299 1.278 . S
H312 C284 0.929 . S
H313 C285 0.929 . S
H314 C287 0.931 . S
H315 C288 0.930 . S
H316 C293 0.929 . S
H317 C294 0.929 . S
H318 C296 0.931 1_565 S
H319 C297 0.930 1_565 S
Pr320 C322 2.880 . S
Pr320 O340 2.562 . S
Pr320 O341 2.490 . S
Pr320 O342 2.695 . S
Pr320 O343 2.512 . S
Pr320 O345 2.437 . S
Pr320 O348 2.436 . S
Pr320 O350 2.438 . S
Pr321 C331 2.880 . S
Pr321 O342 2.436 . S
Pr321 O344 2.438 . S
Pr321 O346 2.562 . S
Pr321 O347 2.490 . S
Pr321 O348 2.695 . S
Pr321 O349 2.512 . S
Pr321 O351 2.437 . S
C322 Pr320 2.880 . S
C322 C323 1.491 . S
C322 O340 1.254 . S
C322 O341 1.225 . S
C323 C322 1.491 . S
C323 C324 1.392 . S
C323 C328 1.356 . S
C324 C323 1.392 . S
C324 C325 1.368 . S
C324 H352 0.929 . S
C325 C324 1.368 . S
C325 C326 1.386 . S
C325 H353 0.929 . S
C326 C325 1.386 . S
C326 C327 1.373 . S
C327 C326 1.373 . S
C327 C328 1.409 . S
C327 H354 0.931 . S
C328 C323 1.356 . S
C328 C327 1.409 . S
C328 H355 0.930 . S
C329 O342 1.270 . S
C329 O343 1.248 . S
C330 O344 1.267 . S
C330 O345 1.278 . S
C331 Pr321 2.880 . S
C331 C332 1.491 . S
C331 O346 1.254 . S
C331 O347 1.225 . S
C332 C331 1.491 . S
C332 C333 1.392 . S
C332 C337 1.356 . S
C333 C332 1.392 . S
C333 C334 1.368 . S
C333 H356 0.929 . S
C334 C333 1.368 . S
C334 C335 1.386 . S
C334 H357 0.929 . S
C335 C334 1.386 . S
C335 C336 1.373 . S
C336 C335 1.373 . S
C336 C337 1.409 . S
C336 H358 0.931 . S
C337 C332 1.356 . S
C337 C336 1.409 . S
C337 H359 0.930 . S
C338 O348 1.270 . S
C338 O349 1.248 . S
C339 O350 1.267 . S
C339 O351 1.278 . S
O340 Pr320 2.562 . S
O340 C322 1.254 . S
O341 Pr320 2.490 . S
O341 C322 1.225 . S
O342 Pr320 2.695 . S
O342 Pr321 2.436 . S
O342 C329 1.270 . S
O343 Pr320 2.512 . S
O343 C329 1.248 . S
O344 Pr321 2.438 . S
O344 C330 1.267 . S
O345 Pr320 2.437 . S
O345 C330 1.278 . S
O346 Pr321 2.562 . S
O346 C331 1.254 . S
O347 Pr321 2.490 . S
O347 C331 1.225 . S
O348 Pr320 2.436 . S
O348 Pr321 2.695 . S
O348 C338 1.270 . S
O349 Pr321 2.512 . S
O349 C338 1.248 . S
O350 Pr320 2.438 . S
O350 C339 1.267 . S
O351 Pr321 2.437 . S
O351 C339 1.278 . S
H352 C324 0.929 . S
H353 C325 0.929 . S
H354 C327 0.931 . S
H355 C328 0.930 . S
H356 C333 0.929 . S
H357 C334 0.929 . S
H358 C336 0.931 . S
H359 C337 0.930 . S
Pr360 C362 2.880 . S
Pr360 O380 2.562 . S
Pr360 O381 2.490 . S
Pr360 O382 2.695 . S
Pr360 O383 2.512 . S
Pr360 O385 2.437 . S
Pr360 O388 2.436 . S
Pr360 O390 2.438 . S
Pr361 C371 2.885 . S
Pr361 O382 2.432 1_455 S
Pr361 O384 2.437 1_455 S
Pr361 O386 2.567 . S
Pr361 O387 2.495 . S
Pr361 O388 2.686 1_455 S
Pr361 O389 2.507 1_445 S
Pr361 O391 2.431 1_455 S
C362 Pr360 2.880 . S
C362 C363 1.491 . S
C362 O380 1.254 . S
C362 O381 1.225 . S
C363 C362 1.491 . S
C363 C364 1.392 . S
C363 C368 1.356 . S
C364 C363 1.392 . S
C364 C365 1.368 . S
C364 H392 0.929 . S
C365 C364 1.368 . S
C365 C366 1.386 . S
C365 H393 0.929 . S
C366 C365 1.386 . S
C366 C367 1.373 . S
C367 C366 1.373 . S
C367 C368 1.409 . S
C367 H394 0.931 1_545 S
C368 C363 1.356 . S
C368 C367 1.409 . S
C368 H395 0.930 1_545 S
C369 O382 1.270 . S
C369 O383 1.248 . S
C370 O384 1.267 . S
C370 O385 1.278 . S
C371 Pr361 2.885 . S
C371 C372 1.491 . S
C371 O386 1.254 . S
C371 O387 1.225 . S
C372 C371 1.491 . S
C372 C373 1.392 . S
C372 C377 1.356 . S
C373 C372 1.392 . S
C373 C374 1.368 . S
C373 H396 0.929 . S
C374 C373 1.368 . S
C374 C375 1.386 . S
C374 H397 0.929 . S
C375 C374 1.386 . S
C375 C376 1.373 . S
C376 C375 1.373 . S
C376 C377 1.409 . S
C376 H398 0.931 . S
C377 C372 1.356 . S
C377 C376 1.409 . S
C377 H399 0.930 . S
C378 O388 1.270 1_565 S
C378 O389 1.248 . S
C379 O390 1.267 . S
C379 O391 1.278 . S
O380 Pr360 2.562 . S
O380 C362 1.254 . S
O381 Pr360 2.490 . S
O381 C362 1.225 . S
O382 Pr360 2.695 . S
O382 Pr361 2.432 1_655 S
O382 C369 1.270 . S
O383 Pr360 2.512 . S
O383 C369 1.248 . S
O384 Pr361 2.437 1_655 S
O384 C370 1.267 . S
O385 Pr360 2.437 . S
O385 C370 1.278 . S
O386 Pr361 2.567 . S
O386 C371 1.254 . S
O387 Pr361 2.495 . S
O387 C371 1.225 . S
O388 Pr360 2.436 . S
O388 Pr361 2.686 1_655 S
O388 C378 1.270 1_545 S
O389 Pr361 2.507 1_665 S
O389 C378 1.248 . S
O390 Pr360 2.438 . S
O390 C379 1.267 . S
O391 Pr361 2.431 1_655 S
O391 C379 1.278 . S
H392 C364 0.929 . S
H393 C365 0.929 . S
H394 C367 0.931 1_565 S
H395 C368 0.930 1_565 S
H396 C373 0.929 . S
H397 C374 0.929 . S
H398 C376 0.931 . S
H399 C377 0.930 . S
Pr400 C402 2.880 . S
Pr400 O420 2.562 . S
Pr400 O421 2.490 . S
Pr400 O422 2.695 . S
Pr400 O423 2.512 . S
Pr400 O425 2.437 . S
Pr400 O428 2.436 . S
Pr400 O430 2.438 . S
Pr401 C411 2.880 . S
Pr401 O422 2.436 . S
Pr401 O424 2.438 . S
Pr401 O426 2.562 . S
Pr401 O427 2.490 . S
Pr401 O428 2.695 . S
Pr401 O429 2.512 . S
Pr401 O431 2.437 . S
C402 Pr400 2.880 . S
C402 C403 1.491 . S
C402 O420 1.254 . S
C402 O421 1.225 . S
C403 C402 1.491 . S
C403 C404 1.392 . S
C403 C408 1.356 . S
C404 C403 1.392 . S
C404 C405 1.368 . S
C404 H432 0.929 . S
C405 C404 1.368 . S
C405 C406 1.386 . S
C405 H433 0.929 . S
C406 C405 1.386 . S
C406 C407 1.373 . S
C407 C406 1.373 . S
C407 C408 1.409 . S
C407 H434 0.931 . S
C408 C403 1.356 . S
C408 C407 1.409 . S
C408 H435 0.930 . S
C409 O422 1.270 . S
C409 O423 1.248 . S
C410 O424 1.267 . S
C410 O425 1.278 . S
C411 Pr401 2.880 . S
C411 C412 1.491 . S
C411 O426 1.254 . S
C411 O427 1.225 . S
C412 C411 1.491 . S
C412 C413 1.392 . S
C412 C417 1.356 . S
C413 C412 1.392 . S
C413 C414 1.368 . S
C413 H436 0.929 . S
C414 C413 1.368 . S
C414 C415 1.386 . S
C414 H437 0.929 . S
C415 C414 1.386 . S
C415 C416 1.373 . S
C416 C415 1.373 . S
C416 C417 1.409 . S
C416 H438 0.931 . S
C417 C412 1.356 . S
C417 C416 1.409 . S
C417 H439 0.930 . S
C418 O428 1.270 . S
C418 O429 1.248 . S
C419 O430 1.267 . S
C419 O431 1.278 . S
O420 Pr400 2.562 . S
O420 C402 1.254 . S
O421 Pr400 2.490 . S
O421 C402 1.225 . S
O422 Pr400 2.695 . S
O422 Pr401 2.436 . S
O422 C409 1.270 . S
O423 Pr400 2.512 . S
O423 C409 1.248 . S
O424 Pr401 2.438 . S
O424 C410 1.267 . S
O425 Pr400 2.437 . S
O425 C410 1.278 . S
O426 Pr401 2.562 . S
O426 C411 1.254 . S
O427 Pr401 2.490 . S
O427 C411 1.225 . S
O428 Pr400 2.436 . S
O428 Pr401 2.695 . S
O428 C418 1.270 . S
O429 Pr401 2.512 . S
O429 C418 1.248 . S
O430 Pr400 2.438 . S
O430 C419 1.267 . S
O431 Pr401 2.437 . S
O431 C419 1.278 . S
H432 C404 0.929 . S
H433 C405 0.929 . S
H434 C407 0.931 . S
H435 C408 0.930 . S
H436 C413 0.929 . S
H437 C414 0.929 . S
H438 C416 0.931 . S
H439 C417 0.930 . S
Pr440 C442 2.880 . S
Pr440 O460 2.562 . S
Pr440 O461 2.490 . S
Pr440 O462 2.695 . S
Pr440 O463 2.512 . S
Pr440 O465 2.437 . S
Pr440 O468 2.436 . S
Pr440 O470 2.438 . S
Pr441 C451 2.880 . S
Pr441 O462 2.436 . S
Pr441 O464 2.438 . S
Pr441 O466 2.562 . S
Pr441 O467 2.490 . S
Pr441 O468 2.695 . S
Pr441 O469 2.512 1_565 S
Pr441 O471 2.437 . S
C442 Pr440 2.880 . S
C442 C443 1.491 . S
C442 O460 1.254 . S
C442 O461 1.225 . S
C443 C442 1.491 . S
C443 C444 1.392 . S
C443 C448 1.356 . S
C444 C443 1.392 . S
C444 C445 1.368 . S
C444 H472 0.929 . S
C445 C444 1.368 . S
C445 C446 1.386 . S
C445 H473 0.929 . S
C446 C445 1.386 . S
C446 C447 1.373 . S
C447 C446 1.373 . S
C447 C448 1.409 . S
C447 H474 0.931 1_565 S
C448 C443 1.356 . S
C448 C447 1.409 . S
C448 H475 0.930 1_565 S
C449 O462 1.270 . S
C449 O463 1.248 . S
C450 O464 1.267 . S
C450 O465 1.278 . S
C451 Pr441 2.880 . S
C451 C452 1.491 . S
C451 O466 1.254 . S
C451 O467 1.225 . S
C452 C451 1.491 . S
C452 C453 1.392 . S
C452 C457 1.356 . S
C453 C452 1.392 . S
C453 C454 1.368 . S
C453 H476 0.929 . S
C454 C453 1.368 . S
C454 C455 1.386 . S
C454 H477 0.929 . S
C455 C454 1.386 . S
C455 C456 1.373 . S
C456 C455 1.373 . S
C456 C457 1.409 . S
C456 H478 0.931 . S
C457 C452 1.356 . S
C457 C456 1.409 . S
C457 H479 0.930 . S
C458 O468 1.270 1_545 S
C458 O469 1.248 . S
C459 O470 1.267 . S
C459 O471 1.278 . S
O460 Pr440 2.562 . S
O460 C442 1.254 . S
O461 Pr440 2.490 . S
O461 C442 1.225 . S
O462 Pr440 2.695 . S
O462 Pr441 2.436 . S
O462 C449 1.270 . S
O463 Pr440 2.512 . S
O463 C449 1.248 . S
O464 Pr441 2.438 . S
O464 C450 1.267 . S
O465 Pr440 2.437 . S
O465 C450 1.278 . S
O466 Pr441 2.562 . S
O466 C451 1.254 . S
O467 Pr441 2.490 . S
O467 C451 1.225 . S
O468 Pr440 2.436 . S
O468 Pr441 2.695 . S
O468 C458 1.270 1_565 S
O469 Pr441 2.512 1_545 S
O469 C458 1.248 . S
O470 Pr440 2.438 . S
O470 C459 1.267 . S
O471 Pr441 2.437 . S
O471 C459 1.278 . S
H472 C444 0.929 . S
H473 C445 0.929 . S
H474 C447 0.931 1_545 S
H475 C448 0.930 1_545 S
H476 C453 0.929 . S
H477 C454 0.929 . S
H478 C456 0.931 . S
H479 C457 0.930 . S
Pr480 C482 2.880 . S
Pr480 O500 2.562 . S
Pr480 O501 2.490 . S
Pr480 O502 2.695 . S
Pr480 O503 2.512 . S
Pr480 O505 2.437 . S
Pr480 O508 2.436 . S
Pr480 O510 2.438 . S
Pr481 C491 2.880 . S
Pr481 O502 2.436 . S
Pr481 O504 2.438 . S
Pr481 O506 2.562 . S
Pr481 O507 2.490 . S
Pr481 O508 2.695 . S
Pr481 O509 2.512 . S
Pr481 O511 2.437 . S
C482 Pr480 2.880 . S
C482 C483 1.491 . S
C482 O500 1.254 . S
C482 O501 1.225 . S
C483 C482 1.491 . S
C483 C484 1.392 . S
C483 C488 1.356 . S
C484 C483 1.392 . S
C484 C485 1.368 . S
C484 H512 0.929 . S
C485 C484 1.368 . S
C485 C486 1.386 . S
C485 H513 0.929 . S
C486 C485 1.386 . S
C486 C487 1.373 . S
C487 C486 1.373 . S
C487 C488 1.409 . S
C487 H514 0.931 . S
C488 C483 1.356 . S
C488 C487 1.409 . S
C488 H515 0.930 . S
C489 O502 1.270 . S
C489 O503 1.248 . S
C490 O504 1.267 . S
C490 O505 1.278 . S
C491 Pr481 2.880 . S
C491 C492 1.491 . S
C491 O506 1.254 . S
C491 O507 1.225 . S
C492 C491 1.491 . S
C492 C493 1.392 . S
C492 C497 1.356 . S
C493 C492 1.392 . S
C493 C494 1.368 . S
C493 H516 0.929 . S
C494 C493 1.368 . S
C494 C495 1.386 . S
C494 H517 0.929 . S
C495 C494 1.386 . S
C495 C496 1.373 . S
C496 C495 1.373 . S
C496 C497 1.409 . S
C496 H518 0.931 . S
C497 C492 1.356 . S
C497 C496 1.409 . S
C497 H519 0.930 . S
C498 O508 1.270 . S
C498 O509 1.248 . S
C499 O510 1.267 . S
C499 O511 1.278 . S
O500 Pr480 2.562 . S
O500 C482 1.254 . S
O501 Pr480 2.490 . S
O501 C482 1.225 . S
O502 Pr480 2.695 . S
O502 Pr481 2.436 . S
O502 C489 1.270 . S
O503 Pr480 2.512 . S
O503 C489 1.248 . S
O504 Pr481 2.438 . S
O504 C490 1.267 . S
O505 Pr480 2.437 . S
O505 C490 1.278 . S
O506 Pr481 2.562 . S
O506 C491 1.254 . S
O507 Pr481 2.490 . S
O507 C491 1.225 . S
O508 Pr480 2.436 . S
O508 Pr481 2.695 . S
O508 C498 1.270 . S
O509 Pr481 2.512 . S
O509 C498 1.248 . S
O510 Pr480 2.438 . S
O510 C499 1.267 . S
O511 Pr481 2.437 . S
O511 C499 1.278 . S
H512 C484 0.929 . S
H513 C485 0.929 . S
H514 C487 0.931 . S
H515 C488 0.930 . S
H516 C493 0.929 . S
H517 C494 0.929 . S
H518 C496 0.931 . S
H519 C497 0.930 . S
Pr520 C522 2.880 . S
Pr520 O540 2.562 . S
Pr520 O541 2.490 . S
Pr520 O542 2.695 . S
Pr520 O543 2.512 . S
Pr520 O545 2.437 . S
Pr520 O548 2.436 . S
Pr520 O550 2.438 . S
Pr521 C531 2.880 . S
Pr521 O542 2.436 . S
Pr521 O544 2.438 . S
Pr521 O546 2.562 . S
Pr521 O547 2.490 . S
Pr521 O548 2.695 . S
Pr521 O549 2.512 1_545 S
Pr521 O551 2.437 . S
C522 Pr520 2.880 . S
C522 C523 1.491 . S
C522 O540 1.254 . S
C522 O541 1.225 . S
C523 C522 1.491 . S
C523 C524 1.392 . S
C523 C528 1.356 . S
C524 C523 1.392 . S
C524 C525 1.368 . S
C524 H552 0.929 . S
C525 C524 1.368 . S
C525 C526 1.386 . S
C525 H553 0.929 . S
C526 C525 1.386 . S
C526 C527 1.373 . S
C527 C526 1.373 . S
C527 C528 1.409 . S
C527 H554 0.931 1_545 S
C528 C523 1.356 . S
C528 C527 1.409 . S
C528 H555 0.930 1_545 S
C529 O542 1.270 . S
C529 O543 1.248 . S
C530 O544 1.267 . S
C530 O545 1.278 . S
C531 Pr521 2.880 . S
C531 C532 1.491 . S
C531 O546 1.254 . S
C531 O547 1.225 . S
C532 C531 1.491 . S
C532 C533 1.392 . S
C532 C537 1.356 . S
C533 C532 1.392 . S
C533 C534 1.368 . S
C533 H556 0.929 . S
C534 C533 1.368 . S
C534 C535 1.386 . S
C534 H557 0.929 . S
C535 C534 1.386 . S
C535 C536 1.373 . S
C536 C535 1.373 . S
C536 C537 1.409 . S
C536 H558 0.931 . S
C537 C532 1.356 . S
C537 C536 1.409 . S
C537 H559 0.930 . S
C538 O548 1.270 1_565 S
C538 O549 1.248 . S
C539 O550 1.267 . S
C539 O551 1.278 . S
O540 Pr520 2.562 . S
O540 C522 1.254 . S
O541 Pr520 2.490 . S
O541 C522 1.225 . S
O542 Pr520 2.695 . S
O542 Pr521 2.436 . S
O542 C529 1.270 . S
O543 Pr520 2.512 . S
O543 C529 1.248 . S
O544 Pr521 2.438 . S
O544 C530 1.267 . S
O545 Pr520 2.437 . S
O545 C530 1.278 . S
O546 Pr521 2.562 . S
O546 C531 1.254 . S
O547 Pr521 2.490 . S
O547 C531 1.225 . S
O548 Pr520 2.436 . S
O548 Pr521 2.695 . S
O548 C538 1.270 1_545 S
O549 Pr521 2.512 1_565 S
O549 C538 1.248 . S
O550 Pr520 2.438 . S
O550 C539 1.267 . S
O551 Pr521 2.437 . S
O551 C539 1.278 . S
H552 C524 0.929 . S
H553 C525 0.929 . S
H554 C527 0.931 1_565 S
H555 C528 0.930 1_565 S
H556 C533 0.929 . S
H557 C534 0.929 . S
H558 C536 0.931 . S
H559 C537 0.930 . S
Pr560 C562 2.880 . S
Pr560 O580 2.562 . S
Pr560 O581 2.490 . S
Pr560 O582 2.695 . S
Pr560 O583 2.512 . S
Pr560 O585 2.437 . S
Pr560 O588 2.436 . S
Pr560 O590 2.438 . S
Pr561 C571 2.880 . S
Pr561 O582 2.436 . S
Pr561 O584 2.438 . S
Pr561 O586 2.562 . S
Pr561 O587 2.490 . S
Pr561 O588 2.695 . S
Pr561 O589 2.512 . S
Pr561 O591 2.437 . S
C562 Pr560 2.880 . S
C562 C563 1.491 . S
C562 O580 1.254 . S
C562 O581 1.225 . S
C563 C562 1.491 . S
C563 C564 1.392 . S
C563 C568 1.356 . S
C564 C563 1.392 . S
C564 C565 1.368 . S
C564 H592 0.929 . S
C565 C564 1.368 . S
C565 C566 1.386 . S
C565 H593 0.929 . S
C566 C565 1.386 . S
C566 C567 1.373 . S
C567 C566 1.373 . S
C567 C568 1.409 . S
C567 H594 0.931 . S
C568 C563 1.356 . S
C568 C567 1.409 . S
C568 H595 0.930 . S
C569 O582 1.270 . S
C569 O583 1.248 . S
C570 O584 1.267 . S
C570 O585 1.278 . S
C571 Pr561 2.880 . S
C571 C572 1.491 . S
C571 O586 1.254 . S
C571 O587 1.225 . S
C572 C571 1.491 . S
C572 C573 1.392 . S
C572 C577 1.356 . S
C573 C572 1.392 . S
C573 C574 1.368 . S
C573 H596 0.929 . S
C574 C573 1.368 . S
C574 C575 1.386 . S
C574 H597 0.929 . S
C575 C574 1.386 . S
C575 C576 1.373 . S
C576 C575 1.373 . S
C576 C577 1.409 . S
C576 H598 0.931 . S
C577 C572 1.356 . S
C577 C576 1.409 . S
C577 H599 0.930 . S
C578 O588 1.270 . S
C578 O589 1.248 . S
C579 O590 1.267 . S
C579 O591 1.278 . S
O580 Pr560 2.562 . S
O580 C562 1.254 . S
O581 Pr560 2.490 . S
O581 C562 1.225 . S
O582 Pr560 2.695 . S
O582 Pr561 2.436 . S
O582 C569 1.270 . S
O583 Pr560 2.512 . S
O583 C569 1.248 . S
O584 Pr561 2.438 . S
O584 C570 1.267 . S
O585 Pr560 2.437 . S
O585 C570 1.278 . S
O586 Pr561 2.562 . S
O586 C571 1.254 . S
O587 Pr561 2.490 . S
O587 C571 1.225 . S
O588 Pr560 2.436 . S
O588 Pr561 2.695 . S
O588 C578 1.270 . S
O589 Pr561 2.512 . S
O589 C578 1.248 . S
O590 Pr560 2.438 . S
O590 C579 1.267 . S
O591 Pr561 2.437 . S
O591 C579 1.278 . S
H592 C564 0.929 . S
H593 C565 0.929 . S
H594 C567 0.931 . S
H595 C568 0.930 . S
H596 C573 0.929 . S
H597 C574 0.929 . S
H598 C576 0.931 . S
H599 C577 0.930 . S
Pr600 C602 2.880 . S
Pr600 O620 2.562 . S
Pr600 O621 2.490 . S
Pr600 O622 2.695 . S
Pr600 O623 2.512 . S
Pr600 O625 2.437 . S
Pr600 O628 2.436 . S
Pr600 O630 2.438 . S
Pr601 C611 2.885 . S
Pr601 O622 2.432 1_455 S
Pr601 O624 2.437 1_455 S
Pr601 O626 2.567 . S
Pr601 O627 2.495 . S
Pr601 O628 2.686 1_455 S
Pr601 O629 2.507 1_465 S
Pr601 O631 2.431 1_455 S
C602 Pr600 2.880 . S
C602 C603 1.491 . S
C602 O620 1.254 . S
C602 O621 1.225 . S
C603 C602 1.491 . S
C603 C604 1.392 . S
C603 C608 1.356 . S
C604 C603 1.392 . S
C604 C605 1.368 . S
C604 H632 0.929 . S
C605 C604 1.368 . S
C605 C606 1.386 . S
C605 H633 0.929 . S
C606 C605 1.386 . S
C606 C607 1.373 . S
C607 C606 1.373 . S
C607 C608 1.409 . S
C607 H634 0.931 1_565 S
C608 C603 1.356 . S
C608 C607 1.409 . S
C608 H635 0.930 1_565 S
C609 O622 1.270 . S
C609 O623 1.248 . S
C610 O624 1.267 . S
C610 O625 1.278 . S
C611 Pr601 2.885 . S
C611 C612 1.491 . S
C611 O626 1.254 . S
C611 O627 1.225 . S
C612 C611 1.491 . S
C612 C613 1.392 . S
C612 C617 1.356 . S
C613 C612 1.392 . S
C613 C614 1.368 . S
C613 H636 0.929 . S
C614 C613 1.368 . S
C614 C615 1.386 . S
C614 H637 0.929 . S
C615 C614 1.386 . S
C615 C616 1.373 . S
C616 C615 1.373 . S
C616 C617 1.409 . S
C616 H638 0.931 . S
C617 C612 1.356 . S
C617 C616 1.409 . S
C617 H639 0.930 . S
C618 O628 1.270 1_545 S
C618 O629 1.248 . S
C619 O630 1.267 . S
C619 O631 1.278 . S
O620 Pr600 2.562 . S
O620 C602 1.254 . S
O621 Pr600 2.490 . S
O621 C602 1.225 . S
O622 Pr600 2.695 . S
O622 Pr601 2.432 1_655 S
O622 C609 1.270 . S
O623 Pr600 2.512 . S
O623 C609 1.248 . S
O624 Pr601 2.437 1_655 S
O624 C610 1.267 . S
O625 Pr600 2.437 . S
O625 C610 1.278 . S
O626 Pr601 2.567 . S
O626 C611 1.254 . S
O627 Pr601 2.495 . S
O627 C611 1.225 . S
O628 Pr600 2.436 . S
O628 Pr601 2.686 1_655 S
O628 C618 1.270 1_565 S
O629 Pr601 2.507 1_645 S
O629 C618 1.248 . S
O630 Pr600 2.438 . S
O630 C619 1.267 . S
O631 Pr601 2.431 1_655 S
O631 C619 1.278 . S
H632 C604 0.929 . S
H633 C605 0.929 . S
H634 C607 0.931 1_545 S
H635 C608 0.930 1_545 S
H636 C613 0.929 . S
H637 C614 0.929 . S
H638 C616 0.931 . S
H639 C617 0.930 . S
Pr640 C642 2.880 . S
Pr640 O660 2.562 . S
Pr640 O661 2.490 . S
Pr640 O662 2.695 . S
Pr640 O663 2.512 . S
Pr640 O665 2.437 . S
Pr640 O668 2.436 . S
Pr640 O670 2.438 . S
Pr641 C651 2.880 . S
Pr641 O662 2.436 . S
Pr641 O664 2.438 . S
Pr641 O666 2.562 . S
Pr641 O667 2.490 . S
Pr641 O668 2.695 . S
Pr641 O669 2.512 . S
Pr641 O671 2.437 . S
C642 Pr640 2.880 . S
C642 C643 1.491 . S
C642 O660 1.254 . S
C642 O661 1.225 . S
C643 C642 1.491 . S
C643 C644 1.392 . S
C643 C648 1.356 . S
C644 C643 1.392 . S
C644 C645 1.368 . S
C644 H672 0.929 . S
C645 C644 1.368 . S
C645 C646 1.386 . S
C645 H673 0.929 . S
C646 C645 1.386 . S
C646 C647 1.373 . S
C647 C646 1.373 . S
C647 C648 1.409 . S
C647 H674 0.931 . S
C648 C643 1.356 . S
C648 C647 1.409 . S
C648 H675 0.930 . S
C649 O662 1.270 . S
C649 O663 1.248 . S
C650 O664 1.267 . S
C650 O665 1.278 . S
C651 Pr641 2.880 . S
C651 C652 1.491 . S
C651 O666 1.254 . S
C651 O667 1.225 . S
C652 C651 1.491 . S
C652 C653 1.392 . S
C652 C657 1.356 . S
C653 C652 1.392 . S
C653 C654 1.368 . S
C653 H676 0.929 . S
C654 C653 1.368 . S
C654 C655 1.386 . S
C654 H677 0.929 . S
C655 C654 1.386 . S
C655 C656 1.373 . S
C656 C655 1.373 . S
C656 C657 1.409 . S
C656 H678 0.931 . S
C657 C652 1.356 . S
C657 C656 1.409 . S
C657 H679 0.930 . S
C658 O668 1.270 . S
C658 O669 1.248 . S
C659 O670 1.267 . S
C659 O671 1.278 . S
O660 Pr640 2.562 . S
O660 C642 1.254 . S
O661 Pr640 2.490 . S
O661 C642 1.225 . S
O662 Pr640 2.695 . S
O662 Pr641 2.436 . S
O662 C649 1.270 . S
O663 Pr640 2.512 . S
O663 C649 1.248 . S
O664 Pr641 2.438 . S
O664 C650 1.267 . S
O665 Pr640 2.437 . S
O665 C650 1.278 . S
O666 Pr641 2.562 . S
O666 C651 1.254 . S
O667 Pr641 2.490 . S
O667 C651 1.225 . S
O668 Pr640 2.436 . S
O668 Pr641 2.695 . S
O668 C658 1.270 . S
O669 Pr641 2.512 . S
O669 C658 1.248 . S
O670 Pr640 2.438 . S
O670 C659 1.267 . S
O671 Pr641 2.437 . S
O671 C659 1.278 . S
H672 C644 0.929 . S
H673 C645 0.929 . S
H674 C647 0.931 . S
H675 C648 0.930 . S
H676 C653 0.929 . S
H677 C654 0.929 . S
H678 C656 0.931 . S
H679 C657 0.930 . S
Pr680 C682 2.880 . S
Pr680 O700 2.562 . S
Pr680 O701 2.490 . S
Pr680 O702 2.695 . S
Pr680 O703 2.512 . S
Pr680 O705 2.437 . S
Pr680 O708 2.436 . S
Pr680 O710 2.438 . S
Pr681 C691 2.880 . S
Pr681 O702 2.436 . S
Pr681 O704 2.438 . S
Pr681 O706 2.562 . S
Pr681 O707 2.490 . S
Pr681 O708 2.695 . S
Pr681 O709 2.512 . S
Pr681 O711 2.437 . S
C682 Pr680 2.880 . S
C682 C683 1.491 . S
C682 O700 1.254 . S
C682 O701 1.225 . S
C683 C682 1.491 . S
C683 C684 1.392 . S
C683 C688 1.356 . S
C684 C683 1.392 . S
C684 C685 1.368 . S
C684 H712 0.929 . S
C685 C684 1.368 . S
C685 C686 1.386 . S
C685 H713 0.929 . S
C686 C685 1.386 . S
C686 C687 1.373 . S
C687 C686 1.373 . S
C687 C688 1.409 . S
C687 H714 0.931 . S
C688 C683 1.356 . S
C688 C687 1.409 . S
C688 H715 0.930 . S
C689 O702 1.270 . S
C689 O703 1.248 . S
C690 O704 1.267 . S
C690 O705 1.278 . S
C691 Pr681 2.880 . S
C691 C692 1.491 . S
C691 O706 1.254 . S
C691 O707 1.225 . S
C692 C691 1.491 . S
C692 C693 1.392 . S
C692 C697 1.356 . S
C693 C692 1.392 . S
C693 C694 1.368 . S
C693 H716 0.929 . S
C694 C693 1.368 . S
C694 C695 1.386 . S
C694 H717 0.929 . S
C695 C694 1.386 . S
C695 C696 1.373 . S
C696 C695 1.373 . S
C696 C697 1.409 . S
C696 H718 0.931 . S
C697 C692 1.356 . S
C697 C696 1.409 . S
C697 H719 0.930 . S
C698 O708 1.270 . S
C698 O709 1.248 . S
C699 O710 1.267 . S
C699 O711 1.278 . S
O700 Pr680 2.562 . S
O700 C682 1.254 . S
O701 Pr680 2.490 . S
O701 C682 1.225 . S
O702 Pr680 2.695 . S
O702 Pr681 2.436 . S
O702 C689 1.270 . S
O703 Pr680 2.512 . S
O703 C689 1.248 . S
O704 Pr681 2.438 . S
O704 C690 1.267 . S
O705 Pr680 2.437 . S
O705 C690 1.278 . S
O706 Pr681 2.562 . S
O706 C691 1.254 . S
O707 Pr681 2.490 . S
O707 C691 1.225 . S
O708 Pr680 2.436 . S
O708 Pr681 2.695 . S
O708 C698 1.270 . S
O709 Pr681 2.512 . S
O709 C698 1.248 . S
O710 Pr680 2.438 . S
O710 C699 1.267 . S
O711 Pr681 2.437 . S
O711 C699 1.278 . S
H712 C684 0.929 . S
H713 C685 0.929 . S
H714 C687 0.931 . S
H715 C688 0.930 . S
H716 C693 0.929 . S
H717 C694 0.929 . S
H718 C696 0.931 . S
H719 C697 0.930 . S
Pr720 C722 2.880 . S
Pr720 O740 2.562 . S
Pr720 O741 2.490 . S
Pr720 O742 2.695 . S
Pr720 O743 2.512 . S
Pr720 O745 2.437 . S
Pr720 O748 2.436 . S
Pr720 O750 2.438 . S
Pr721 C731 2.880 . S
Pr721 O742 2.436 . S
Pr721 O744 2.438 . S
Pr721 O746 2.562 . S
Pr721 O747 2.490 . S
Pr721 O748 2.695 . S
Pr721 O749 2.512 . S
Pr721 O751 2.437 . S
C722 Pr720 2.880 . S
C722 C723 1.491 . S
C722 O740 1.254 . S
C722 O741 1.225 . S
C723 C722 1.491 . S
C723 C724 1.392 . S
C723 C728 1.356 . S
C724 C723 1.392 . S
C724 C725 1.368 . S
C724 H752 0.929 . S
C725 C724 1.368 . S
C725 C726 1.386 . S
C725 H753 0.929 . S
C726 C725 1.386 . S
C726 C727 1.373 . S
C727 C726 1.373 . S
C727 C728 1.409 . S
C727 H754 0.931 . S
C728 C723 1.356 . S
C728 C727 1.409 . S
C728 H755 0.930 . S
C729 O742 1.270 . S
C729 O743 1.248 . S
C730 O744 1.267 . S
C730 O745 1.278 . S
C731 Pr721 2.880 . S
C731 C732 1.491 . S
C731 O746 1.254 . S
C731 O747 1.225 . S
C732 C731 1.491 . S
C732 C733 1.392 . S
C732 C737 1.356 . S
C733 C732 1.392 . S
C733 C734 1.368 . S
C733 H756 0.929 . S
C734 C733 1.368 . S
C734 C735 1.386 . S
C734 H757 0.929 . S
C735 C734 1.386 . S
C735 C736 1.373 . S
C736 C735 1.373 . S
C736 C737 1.409 . S
C736 H758 0.931 . S
C737 C732 1.356 . S
C737 C736 1.409 . S
C737 H759 0.930 . S
C738 O748 1.270 . S
C738 O749 1.248 . S
C739 O750 1.267 . S
C739 O751 1.278 . S
O740 Pr720 2.562 . S
O740 C722 1.254 . S
O741 Pr720 2.490 . S
O741 C722 1.225 . S
O742 Pr720 2.695 . S
O742 Pr721 2.436 . S
O742 C729 1.270 . S
O743 Pr720 2.512 . S
O743 C729 1.248 . S
O744 Pr721 2.438 . S
O744 C730 1.267 . S
O745 Pr720 2.437 . S
O745 C730 1.278 . S
O746 Pr721 2.562 . S
O746 C731 1.254 . S
O747 Pr721 2.490 . S
O747 C731 1.225 . S
O748 Pr720 2.436 . S
O748 Pr721 2.695 . S
O748 C738 1.270 . S
O749 Pr721 2.512 . S
O749 C738 1.248 . S
O750 Pr720 2.438 . S
O750 C739 1.267 . S
O751 Pr721 2.437 . S
O751 C739 1.278 . S
H752 C724 0.929 . S
H753 C725 0.929 . S
H754 C727 0.931 . S
H755 C728 0.930 . S
H756 C733 0.929 . S
H757 C734 0.929 . S
H758 C736 0.931 . S
H759 C737 0.930 . S
Pr760 C762 2.885 . S
Pr760 O780 2.567 . S
Pr760 O781 2.495 . S
Pr760 O782 2.686 1_455 S
Pr760 O783 2.507 1_455 S
Pr760 O785 2.431 1_455 S
Pr760 O788 2.432 1_455 S
Pr760 O790 2.437 1_455 S
Pr761 C771 2.880 . S
Pr761 O782 2.436 . S
Pr761 O784 2.438 . S
Pr761 O786 2.562 . S
Pr761 O787 2.490 . S
Pr761 O788 2.695 . S
Pr761 O789 2.512 . S
Pr761 O791 2.437 . S
C762 Pr760 2.885 . S
C762 C763 1.491 . S
C762 O780 1.254 . S
C762 O781 1.225 . S
C763 C762 1.491 . S
C763 C764 1.392 . S
C763 C768 1.356 . S
C764 C763 1.392 . S
C764 C765 1.368 . S
C764 H792 0.929 . S
C765 C764 1.368 . S
C765 C766 1.386 . S
C765 H793 0.929 . S
C766 C765 1.386 . S
C766 C767 1.373 . S
C767 C766 1.373 . S
C767 C768 1.409 . S
C767 H794 0.931 . S
C768 C763 1.356 . S
C768 C767 1.409 . S
C768 H795 0.930 . S
C769 O782 1.270 . S
C769 O783 1.248 . S
C770 O784 1.267 . S
C770 O785 1.278 . S
C771 Pr761 2.880 . S
C771 C772 1.491 . S
C771 O786 1.254 . S
C771 O787 1.225 . S
C772 C771 1.491 . S
C772 C773 1.392 . S
C772 C777 1.356 . S
C773 C772 1.392 . S
C773 C774 1.368 . S
C773 H796 0.929 . S
C774 C773 1.368 . S
C774 C775 1.386 . S
C774 H797 0.929 . S
C775 C774 1.386 . S
C775 C776 1.373 . S
C776 C775 1.373 . S
C776 C777 1.409 . S
C776 H798 0.931 . S
C777 C772 1.356 . S
C777 C776 1.409 . S
C777 H799 0.930 . S
C778 O788 1.270 . S
C778 O789 1.248 . S
C779 O790 1.267 . S
C779 O791 1.278 . S
O780 Pr760 2.567 . S
O780 C762 1.254 . S
O781 Pr760 2.495 . S
O781 C762 1.225 . S
O782 Pr760 2.686 1_655 S
O782 Pr761 2.436 . S
O782 C769 1.270 . S
O783 Pr760 2.507 1_655 S
O783 C769 1.248 . S
O784 Pr761 2.438 . S
O784 C770 1.267 . S
O785 Pr760 2.431 1_655 S
O785 C770 1.278 . S
O786 Pr761 2.562 . S
O786 C771 1.254 . S
O787 Pr761 2.490 . S
O787 C771 1.225 . S
O788 Pr760 2.432 1_655 S
O788 Pr761 2.695 . S
O788 C778 1.270 . S
O789 Pr761 2.512 . S
O789 C778 1.248 . S
O790 Pr760 2.437 1_655 S
O790 C779 1.267 . S
O791 Pr761 2.437 . S
O791 C779 1.278 . S
H792 C764 0.929 . S
H793 C765 0.929 . S
H794 C767 0.931 . S
H795 C768 0.930 . S
H796 C773 0.929 . S
H797 C774 0.929 . S
H798 C776 0.931 . S
H799 C777 0.930 . S
Pr800 C802 2.880 . S
Pr800 O820 2.562 . S
Pr800 O821 2.490 . S
Pr800 O822 2.695 . S
Pr800 O823 2.512 . S
Pr800 O825 2.437 . S
Pr800 O828 2.436 . S
Pr800 O830 2.438 . S
Pr801 C811 2.880 . S
Pr801 O822 2.436 . S
Pr801 O824 2.438 . S
Pr801 O826 2.562 . S
Pr801 O827 2.490 . S
Pr801 O828 2.695 . S
Pr801 O829 2.512 . S
Pr801 O831 2.437 . S
C802 Pr800 2.880 . S
C802 C803 1.491 . S
C802 O820 1.254 . S
C802 O821 1.225 . S
C803 C802 1.491 . S
C803 C804 1.392 . S
C803 C808 1.356 . S
C804 C803 1.392 . S
C804 C805 1.368 . S
C804 H832 0.929 . S
C805 C804 1.368 . S
C805 C806 1.386 . S
C805 H833 0.929 . S
C806 C805 1.386 . S
C806 C807 1.373 . S
C807 C806 1.373 . S
C807 C808 1.409 . S
C807 H834 0.931 . S
C808 C803 1.356 . S
C808 C807 1.409 . S
C808 H835 0.930 . S
C809 O822 1.270 . S
C809 O823 1.248 . S
C810 O824 1.267 . S
C810 O825 1.278 . S
C811 Pr801 2.880 . S
C811 C812 1.491 . S
C811 O826 1.254 . S
C811 O827 1.225 . S
C812 C811 1.491 . S
C812 C813 1.392 . S
C812 C817 1.356 . S
C813 C812 1.392 . S
C813 C814 1.368 . S
C813 H836 0.929 . S
C814 C813 1.368 . S
C814 C815 1.386 . S
C814 H837 0.929 . S
C815 C814 1.386 . S
C815 C816 1.373 . S
C816 C815 1.373 . S
C816 C817 1.409 . S
C816 H838 0.931 . S
C817 C812 1.356 . S
C817 C816 1.409 . S
C817 H839 0.930 . S
C818 O828 1.270 . S
C818 O829 1.248 . S
C819 O830 1.267 . S
C819 O831 1.278 . S
O820 Pr800 2.562 . S
O820 C802 1.254 . S
O821 Pr800 2.490 . S
O821 C802 1.225 . S
O822 Pr800 2.695 . S
O822 Pr801 2.436 . S
O822 C809 1.270 . S
O823 Pr800 2.512 . S
O823 C809 1.248 . S
O824 Pr801 2.438 . S
O824 C810 1.267 . S
O825 Pr800 2.437 . S
O825 C810 1.278 . S
O826 Pr801 2.562 . S
O826 C811 1.254 . S
O827 Pr801 2.490 . S
O827 C811 1.225 . S
O828 Pr800 2.436 . S
O828 Pr801 2.695 . S
O828 C818 1.270 . S
O829 Pr801 2.512 . S
O829 C818 1.248 . S
O830 Pr800 2.438 . S
O830 C819 1.267 . S
O831 Pr801 2.437 . S
O831 C819 1.278 . S
H832 C804 0.929 . S
H833 C805 0.929 . S
H834 C807 0.931 . S
H835 C808 0.930 . S
H836 C813 0.929 . S
H837 C814 0.929 . S
H838 C816 0.931 . S
H839 C817 0.930 . S
Pr840 C842 2.885 . S
Pr840 O860 2.567 . S
Pr840 O861 2.495 . S
Pr840 O862 2.686 1_455 S
Pr840 O863 2.507 1_455 S
Pr840 O865 2.431 1_455 S
Pr840 O868 2.432 1_455 S
Pr840 O870 2.437 1_455 S
Pr841 C851 2.880 . S
Pr841 O862 2.436 . S
Pr841 O864 2.438 . S
Pr841 O866 2.562 . S
Pr841 O867 2.490 . S
Pr841 O868 2.695 . S
Pr841 O869 2.512 . S
Pr841 O871 2.437 . S
C842 Pr840 2.885 . S
C842 C843 1.491 . S
C842 O860 1.254 . S
C842 O861 1.225 . S
C843 C842 1.491 . S
C843 C844 1.392 . S
C843 C848 1.356 . S
C844 C843 1.392 . S
C844 C845 1.368 . S
C844 H872 0.929 . S
C845 C844 1.368 . S
C845 C846 1.386 . S
C845 H873 0.929 . S
C846 C845 1.386 . S
C846 C847 1.373 . S
C847 C846 1.373 . S
C847 C848 1.409 . S
C847 H874 0.931 . S
C848 C843 1.356 . S
C848 C847 1.409 . S
C848 H875 0.930 . S
C849 O862 1.270 . S
C849 O863 1.248 . S
C850 O864 1.267 . S
C850 O865 1.278 . S
C851 Pr841 2.880 . S
C851 C852 1.491 . S
C851 O866 1.254 . S
C851 O867 1.225 . S
C852 C851 1.491 . S
C852 C853 1.392 . S
C852 C857 1.356 . S
C853 C852 1.392 . S
C853 C854 1.368 . S
C853 H876 0.929 . S
C854 C853 1.368 . S
C854 C855 1.386 . S
C854 H877 0.929 . S
C855 C854 1.386 . S
C855 C856 1.373 . S
C856 C855 1.373 . S
C856 C857 1.409 . S
C856 H878 0.931 . S
C857 C852 1.356 . S
C857 C856 1.409 . S
C857 H879 0.930 . S
C858 O868 1.270 . S
C858 O869 1.248 . S
C859 O870 1.267 . S
C859 O871 1.278 . S
O860 Pr840 2.567 . S
O860 C842 1.254 . S
O861 Pr840 2.495 . S
O861 C842 1.225 . S
O862 Pr840 2.686 1_655 S
O862 Pr841 2.436 . S
O862 C849 1.270 . S
O863 Pr840 2.507 1_655 S
O863 C849 1.248 . S
O864 Pr841 2.438 . S
O864 C850 1.267 . S
O865 Pr840 2.431 1_655 S
O865 C850 1.278 . S
O866 Pr841 2.562 . S
O866 C851 1.254 . S
O867 Pr841 2.490 . S
O867 C851 1.225 . S
O868 Pr840 2.432 1_655 S
O868 Pr841 2.695 . S
O868 C858 1.270 . S
O869 Pr841 2.512 . S
O869 C858 1.248 . S
O870 Pr840 2.437 1_655 S
O870 C859 1.267 . S
O871 Pr841 2.437 . S
O871 C859 1.278 . S
H872 C844 0.929 . S
H873 C845 0.929 . S
H874 C847 0.931 . S
H875 C848 0.930 . S
H876 C853 0.929 . S
H877 C854 0.929 . S
H878 C856 0.931 . S
H879 C857 0.930 . S
Pr880 C882 2.880 . S
Pr880 O900 2.562 . S
Pr880 O901 2.490 . S
Pr880 O902 2.695 . S
Pr880 O903 2.512 . S
Pr880 O905 2.437 . S
Pr880 O908 2.436 . S
Pr880 O910 2.438 . S
Pr881 C891 2.880 . S
Pr881 O902 2.436 . S
Pr881 O904 2.438 . S
Pr881 O906 2.562 . S
Pr881 O907 2.490 . S
Pr881 O908 2.695 . S
Pr881 O909 2.512 . S
Pr881 O911 2.437 . S
C882 Pr880 2.880 . S
C882 C883 1.491 . S
C882 O900 1.254 . S
C882 O901 1.225 . S
C883 C882 1.491 . S
C883 C884 1.392 . S
C883 C888 1.356 . S
C884 C883 1.392 . S
C884 C885 1.368 . S
C884 H912 0.929 . S
C885 C884 1.368 . S
C885 C886 1.386 . S
C885 H913 0.929 . S
C886 C885 1.386 . S
C886 C887 1.373 . S
C887 C886 1.373 . S
C887 C888 1.409 . S
C887 H914 0.931 . S
C888 C883 1.356 . S
C888 C887 1.409 . S
C888 H915 0.930 . S
C889 O902 1.270 . S
C889 O903 1.248 . S
C890 O904 1.267 . S
C890 O905 1.278 . S
C891 Pr881 2.880 . S
C891 C892 1.491 . S
C891 O906 1.254 . S
C891 O907 1.225 . S
C892 C891 1.491 . S
C892 C893 1.392 . S
C892 C897 1.356 . S
C893 C892 1.392 . S
C893 C894 1.368 . S
C893 H916 0.929 . S
C894 C893 1.368 . S
C894 C895 1.386 . S
C894 H917 0.929 . S
C895 C894 1.386 . S
C895 C896 1.373 . S
C896 C895 1.373 . S
C896 C897 1.409 . S
C896 H918 0.931 . S
C897 C892 1.356 . S
C897 C896 1.409 . S
C897 H919 0.930 . S
C898 O908 1.270 . S
C898 O909 1.248 . S
C899 O910 1.267 . S
C899 O911 1.278 . S
O900 Pr880 2.562 . S
O900 C882 1.254 . S
O901 Pr880 2.490 . S
O901 C882 1.225 . S
O902 Pr880 2.695 . S
O902 Pr881 2.436 . S
O902 C889 1.270 . S
O903 Pr880 2.512 . S
O903 C889 1.248 . S
O904 Pr881 2.438 . S
O904 C890 1.267 . S
O905 Pr880 2.437 . S
O905 C890 1.278 . S
O906 Pr881 2.562 . S
O906 C891 1.254 . S
O907 Pr881 2.490 . S
O907 C891 1.225 . S
O908 Pr880 2.436 . S
O908 Pr881 2.695 . S
O908 C898 1.270 . S
O909 Pr881 2.512 . S
O909 C898 1.248 . S
O910 Pr880 2.438 . S
O910 C899 1.267 . S
O911 Pr881 2.437 . S
O911 C899 1.278 . S
H912 C884 0.929 . S
H913 C885 0.929 . S
H914 C887 0.931 . S
H915 C888 0.930 . S
H916 C893 0.929 . S
H917 C894 0.929 . S
H918 C896 0.931 . S
H919 C897 0.930 . S
Pr920 C922 2.880 . S
Pr920 O940 2.562 . S
Pr920 O941 2.490 . S
Pr920 O942 2.695 . S
Pr920 O943 2.512 . S
Pr920 O945 2.437 . S
Pr920 O948 2.436 . S
Pr920 O950 2.438 . S
Pr921 C931 2.880 . S
Pr921 O942 2.436 . S
Pr921 O944 2.438 . S
Pr921 O946 2.562 . S
Pr921 O947 2.490 . S
Pr921 O948 2.695 . S
Pr921 O949 2.512 . S
Pr921 O951 2.437 . S
C922 Pr920 2.880 . S
C922 C923 1.491 . S
C922 O940 1.254 . S
C922 O941 1.225 . S
C923 C922 1.491 . S
C923 C924 1.392 . S
C923 C928 1.356 . S
C924 C923 1.392 . S
C924 C925 1.368 . S
C924 H952 0.929 . S
C925 C924 1.368 . S
C925 C926 1.386 . S
C925 H953 0.929 . S
C926 C925 1.386 . S
C926 C927 1.373 . S
C927 C926 1.373 . S
C927 C928 1.409 . S
C927 H954 0.931 . S
C928 C923 1.356 . S
C928 C927 1.409 . S
C928 H955 0.930 . S
C929 O942 1.270 . S
C929 O943 1.248 . S
C930 O944 1.267 . S
C930 O945 1.278 . S
C931 Pr921 2.880 . S
C931 C932 1.491 . S
C931 O946 1.254 . S
C931 O947 1.225 . S
C932 C931 1.491 . S
C932 C933 1.392 . S
C932 C937 1.356 . S
C933 C932 1.392 . S
C933 C934 1.368 . S
C933 H956 0.929 . S
C934 C933 1.368 . S
C934 C935 1.386 . S
C934 H957 0.929 . S
C935 C934 1.386 . S
C935 C936 1.373 . S
C936 C935 1.373 . S
C936 C937 1.409 . S
C936 H958 0.931 . S
C937 C932 1.356 . S
C937 C936 1.409 . S
C937 H959 0.930 . S
C938 O948 1.270 . S
C938 O949 1.248 . S
C939 O950 1.267 . S
C939 O951 1.278 . S
O940 Pr920 2.562 . S
O940 C922 1.254 . S
O941 Pr920 2.490 . S
O941 C922 1.225 . S
O942 Pr920 2.695 . S
O942 Pr921 2.436 . S
O942 C929 1.270 . S
O943 Pr920 2.512 . S
O943 C929 1.248 . S
O944 Pr921 2.438 . S
O944 C930 1.267 . S
O945 Pr920 2.437 . S
O945 C930 1.278 . S
O946 Pr921 2.562 . S
O946 C931 1.254 . S
O947 Pr921 2.490 . S
O947 C931 1.225 . S
O948 Pr920 2.436 . S
O948 Pr921 2.695 . S
O948 C938 1.270 . S
O949 Pr921 2.512 . S
O949 C938 1.248 . S
O950 Pr920 2.438 . S
O950 C939 1.267 . S
O951 Pr921 2.437 . S
O951 C939 1.278 . S
H952 C924 0.929 . S
H953 C925 0.929 . S
H954 C927 0.931 . S
H955 C928 0.930 . S
H956 C933 0.929 . S
H957 C934 0.929 . S
H958 C936 0.931 . S
H959 C937 0.930 . S
Pr960 C962 2.880 . S
Pr960 O980 2.562 . S
Pr960 O981 2.490 . S
Pr960 O982 2.695 . S
Pr960 O983 2.512 . S
Pr960 O985 2.437 . S
Pr960 O988 2.436 . S
Pr960 O990 2.438 . S
Pr961 C971 2.880 . S
Pr961 O982 2.436 . S
Pr961 O984 2.438 . S
Pr961 O986 2.562 . S
Pr961 O987 2.490 . S
Pr961 O988 2.695 . S
Pr961 O989 2.512 . S
Pr961 O991 2.437 . S
C962 Pr960 2.880 . S
C962 C963 1.491 . S
C962 O980 1.254 . S
C962 O981 1.225 . S
C963 C962 1.491 . S
C963 C964 1.392 . S
C963 C968 1.356 . S
C964 C963 1.392 . S
C964 C965 1.368 . S
C964 H992 0.929 . S
C965 C964 1.368 . S
C965 C966 1.386 . S
C965 H993 0.929 . S
C966 C965 1.386 . S
C966 C967 1.373 . S
C967 C966 1.373 . S
C967 C968 1.409 . S
C967 H994 0.931 . S
C968 C963 1.356 . S
C968 C967 1.409 . S
C968 H995 0.930 . S
C969 O982 1.270 . S
C969 O983 1.248 . S
C970 O984 1.267 . S
C970 O985 1.278 . S
C971 Pr961 2.880 . S
C971 C972 1.491 . S
C971 O986 1.254 . S
C971 O987 1.225 . S
C972 C971 1.491 . S
C972 C973 1.392 . S
C972 C977 1.356 . S
C973 C972 1.392 . S
C973 C974 1.368 . S
C973 H996 0.929 . S
C974 C973 1.368 . S
C974 C975 1.386 . S
C974 H997 0.929 . S
C975 C974 1.386 . S
C975 C976 1.373 . S
C976 C975 1.373 . S
C976 C977 1.409 . S
C976 H998 0.931 . S
C977 C972 1.356 . S
C977 C976 1.409 . S
C977 H999 0.930 . S
C978 O988 1.270 . S
C978 O989 1.248 . S
C979 O990 1.267 . S
C979 O991 1.278 . S
O980 Pr960 2.562 . S
O980 C962 1.254 . S
O981 Pr960 2.490 . S
O981 C962 1.225 . S
O982 Pr960 2.695 . S
O982 Pr961 2.436 . S
O982 C969 1.270 . S
O983 Pr960 2.512 . S
O983 C969 1.248 . S
O984 Pr961 2.438 . S
O984 C970 1.267 . S
O985 Pr960 2.437 . S
O985 C970 1.278 . S
O986 Pr961 2.562 . S
O986 C971 1.254 . S
O987 Pr961 2.490 . S
O987 C971 1.225 . S
O988 Pr960 2.436 . S
O988 Pr961 2.695 . S
O988 C978 1.270 . S
O989 Pr961 2.512 . S
O989 C978 1.248 . S
O990 Pr960 2.438 . S
O990 C979 1.267 . S
O991 Pr961 2.437 . S
O991 C979 1.278 . S
H992 C964 0.929 . S
H993 C965 0.929 . S
H994 C967 0.931 . S
H995 C968 0.930 . S
H996 C973 0.929 . S
H997 C974 0.929 . S
H998 C976 0.931 . S
H999 C977 0.930 . S
Pr1000 C1002 2.880 . S
Pr1000 O1020 2.562 . S
Pr1000 O1021 2.490 . S
Pr1000 O1022 2.695 . S
Pr1000 O1023 2.512 . S
Pr1000 O1025 2.437 . S
Pr1000 O1028 2.436 . S
Pr1000 O1030 2.438 . S
Pr1001 C1011 2.880 . S
Pr1001 O1022 2.436 . S
Pr1001 O1024 2.438 . S
Pr1001 O1026 2.562 . S
Pr1001 O1027 2.490 . S
Pr1001 O1028 2.695 . S
Pr1001 O1029 2.512 . S
Pr1001 O1031 2.437 . S
C1002 Pr1000 2.880 . S
C1002 C1003 1.491 . S
C1002 O1020 1.254 . S
C1002 O1021 1.225 . S
C1003 C1002 1.491 . S
C1003 C1004 1.392 . S
C1003 C1008 1.356 . S
C1004 C1003 1.392 . S
C1004 C1005 1.368 . S
C1004 H1032 0.929 . S
C1005 C1004 1.368 . S
C1005 C1006 1.386 . S
C1005 H1033 0.929 . S
C1006 C1005 1.386 . S
C1006 C1007 1.373 . S
C1007 C1006 1.373 . S
C1007 C1008 1.409 . S
C1007 H1034 0.931 . S
C1008 C1003 1.356 . S
C1008 C1007 1.409 . S
C1008 H1035 0.930 . S
C1009 O1022 1.270 . S
C1009 O1023 1.248 . S
C1010 O1024 1.267 . S
C1010 O1025 1.278 . S
C1011 Pr1001 2.880 . S
C1011 C1012 1.491 . S
C1011 O1026 1.254 . S
C1011 O1027 1.225 . S
C1012 C1011 1.491 . S
C1012 C1013 1.392 . S
C1012 C1017 1.356 . S
C1013 C1012 1.392 . S
C1013 C1014 1.368 . S
C1013 H1036 0.929 . S
C1014 C1013 1.368 . S
C1014 C1015 1.386 . S
C1014 H1037 0.929 . S
C1015 C1014 1.386 . S
C1015 C1016 1.373 . S
C1016 C1015 1.373 . S
C1016 C1017 1.409 . S
C1016 H1038 0.931 . S
C1017 C1012 1.356 . S
C1017 C1016 1.409 . S
C1017 H1039 0.930 . S
C1018 O1028 1.270 . S
C1018 O1029 1.248 . S
C1019 O1030 1.267 . S
C1019 O1031 1.278 . S
O1020 Pr1000 2.562 . S
O1020 C1002 1.254 . S
O1021 Pr1000 2.490 . S
O1021 C1002 1.225 . S
O1022 Pr1000 2.695 . S
O1022 Pr1001 2.436 . S
O1022 C1009 1.270 . S
O1023 Pr1000 2.512 . S
O1023 C1009 1.248 . S
O1024 Pr1001 2.438 . S
O1024 C1010 1.267 . S
O1025 Pr1000 2.437 . S
O1025 C1010 1.278 . S
O1026 Pr1001 2.562 . S
O1026 C1011 1.254 . S
O1027 Pr1001 2.490 . S
O1027 C1011 1.225 . S
O1028 Pr1000 2.436 . S
O1028 Pr1001 2.695 . S
O1028 C1018 1.270 . S
O1029 Pr1001 2.512 . S
O1029 C1018 1.248 . S
O1030 Pr1000 2.438 . S
O1030 C1019 1.267 . S
O1031 Pr1001 2.437 . S
O1031 C1019 1.278 . S
H1032 C1004 0.929 . S
H1033 C1005 0.929 . S
H1034 C1007 0.931 . S
H1035 C1008 0.930 . S
H1036 C1013 0.929 . S
H1037 C1014 0.929 . S
H1038 C1016 0.931 . S
H1039 C1017 0.930 . S
Pr1040 C1042 2.880 . S
Pr1040 O1060 2.562 . S
Pr1040 O1061 2.490 . S
Pr1040 O1062 2.695 . S
Pr1040 O1063 2.512 . S
Pr1040 O1065 2.437 . S
Pr1040 O1068 2.436 . S
Pr1040 O1070 2.438 . S
Pr1041 C1051 2.880 . S
Pr1041 O1062 2.436 . S
Pr1041 O1064 2.438 . S
Pr1041 O1066 2.562 . S
Pr1041 O1067 2.490 . S
Pr1041 O1068 2.695 . S
Pr1041 O1069 2.512 . S
Pr1041 O1071 2.437 . S
C1042 Pr1040 2.880 . S
C1042 C1043 1.491 . S
C1042 O1060 1.254 . S
C1042 O1061 1.225 . S
C1043 C1042 1.491 . S
C1043 C1044 1.392 . S
C1043 C1048 1.356 . S
C1044 C1043 1.392 . S
C1044 C1045 1.368 . S
C1044 H1072 0.929 . S
C1045 C1044 1.368 . S
C1045 C1046 1.386 . S
C1045 H1073 0.929 . S
C1046 C1045 1.386 . S
C1046 C1047 1.373 . S
C1047 C1046 1.373 . S
C1047 C1048 1.409 . S
C1047 H1074 0.931 . S
C1048 C1043 1.356 . S
C1048 C1047 1.409 . S
C1048 H1075 0.930 . S
C1049 O1062 1.270 . S
C1049 O1063 1.248 . S
C1050 O1064 1.267 . S
C1050 O1065 1.278 . S
C1051 Pr1041 2.880 . S
C1051 C1052 1.491 . S
C1051 O1066 1.254 . S
C1051 O1067 1.225 . S
C1052 C1051 1.491 . S
C1052 C1053 1.392 . S
C1052 C1057 1.356 . S
C1053 C1052 1.392 . S
C1053 C1054 1.368 . S
C1053 H1076 0.929 . S
C1054 C1053 1.368 . S
C1054 C1055 1.386 . S
C1054 H1077 0.929 . S
C1055 C1054 1.386 . S
C1055 C1056 1.373 . S
C1056 C1055 1.373 . S
C1056 C1057 1.409 . S
C1056 H1078 0.931 . S
C1057 C1052 1.356 . S
C1057 C1056 1.409 . S
C1057 H1079 0.930 . S
C1058 O1068 1.270 . S
C1058 O1069 1.248 . S
C1059 O1070 1.267 . S
C1059 O1071 1.278 . S
O1060 Pr1040 2.562 . S
O1060 C1042 1.254 . S
O1061 Pr1040 2.490 . S
O1061 C1042 1.225 . S
O1062 Pr1040 2.695 . S
O1062 Pr1041 2.436 . S
O1062 C1049 1.270 . S
O1063 Pr1040 2.512 . S
O1063 C1049 1.248 . S
O1064 Pr1041 2.438 . S
O1064 C1050 1.267 . S
O1065 Pr1040 2.437 . S
O1065 C1050 1.278 . S
O1066 Pr1041 2.562 . S
O1066 C1051 1.254 . S
O1067 Pr1041 2.490 . S
O1067 C1051 1.225 . S
O1068 Pr1040 2.436 . S
O1068 Pr1041 2.695 . S
O1068 C1058 1.270 . S
O1069 Pr1041 2.512 . S
O1069 C1058 1.248 . S
O1070 Pr1040 2.438 . S
O1070 C1059 1.267 . S
O1071 Pr1041 2.437 . S
O1071 C1059 1.278 . S
H1072 C1044 0.929 . S
H1073 C1045 0.929 . S
H1074 C1047 0.931 . S
H1075 C1048 0.930 . S
H1076 C1053 0.929 . S
H1077 C1054 0.929 . S
H1078 C1056 0.931 . S
H1079 C1057 0.930 . S
Pr1080 C1082 2.880 . S
Pr1080 O1100 2.562 . S
Pr1080 O1101 2.490 . S
Pr1080 O1102 2.695 . S
Pr1080 O1103 2.512 . S
Pr1080 O1105 2.437 . S
Pr1080 O1108 2.436 . S
Pr1080 O1110 2.438 . S
Pr1081 C1091 2.885 . S
Pr1081 O1102 2.432 1_655 S
Pr1081 O1104 2.437 1_655 S
Pr1081 O1106 2.567 . S
Pr1081 O1107 2.495 . S
Pr1081 O1108 2.686 1_655 S
Pr1081 O1109 2.507 1_655 S
Pr1081 O1111 2.431 1_655 S
C1082 Pr1080 2.880 . S
C1082 C1083 1.491 . S
C1082 O1100 1.254 . S
C1082 O1101 1.225 . S
C1083 C1082 1.491 . S
C1083 C1084 1.392 . S
C1083 C1088 1.356 . S
C1084 C1083 1.392 . S
C1084 C1085 1.368 . S
C1084 H1112 0.929 . S
C1085 C1084 1.368 . S
C1085 C1086 1.386 . S
C1085 H1113 0.929 . S
C1086 C1085 1.386 . S
C1086 C1087 1.373 . S
C1087 C1086 1.373 . S
C1087 C1088 1.409 . S
C1087 H1114 0.931 . S
C1088 C1083 1.356 . S
C1088 C1087 1.409 . S
C1088 H1115 0.930 . S
C1089 O1102 1.270 . S
C1089 O1103 1.248 . S
C1090 O1104 1.267 . S
C1090 O1105 1.278 . S
C1091 Pr1081 2.885 . S
C1091 C1092 1.491 . S
C1091 O1106 1.254 . S
C1091 O1107 1.225 . S
C1092 C1091 1.491 . S
C1092 C1093 1.392 . S
C1092 C1097 1.356 . S
C1093 C1092 1.392 . S
C1093 C1094 1.368 . S
C1093 H1116 0.929 . S
C1094 C1093 1.368 . S
C1094 C1095 1.386 . S
C1094 H1117 0.929 . S
C1095 C1094 1.386 . S
C1095 C1096 1.373 . S
C1096 C1095 1.373 . S
C1096 C1097 1.409 . S
C1096 H1118 0.931 . S
C1097 C1092 1.356 . S
C1097 C1096 1.409 . S
C1097 H1119 0.930 . S
C1098 O1108 1.270 . S
C1098 O1109 1.248 . S
C1099 O1110 1.267 . S
C1099 O1111 1.278 . S
O1100 Pr1080 2.562 . S
O1100 C1082 1.254 . S
O1101 Pr1080 2.490 . S
O1101 C1082 1.225 . S
O1102 Pr1080 2.695 . S
O1102 Pr1081 2.432 1_455 S
O1102 C1089 1.270 . S
O1103 Pr1080 2.512 . S
O1103 C1089 1.248 . S
O1104 Pr1081 2.437 1_455 S
O1104 C1090 1.267 . S
O1105 Pr1080 2.437 . S
O1105 C1090 1.278 . S
O1106 Pr1081 2.567 . S
O1106 C1091 1.254 . S
O1107 Pr1081 2.495 . S
O1107 C1091 1.225 . S
O1108 Pr1080 2.436 . S
O1108 Pr1081 2.686 1_455 S
O1108 C1098 1.270 . S
O1109 Pr1081 2.507 1_455 S
O1109 C1098 1.248 . S
O1110 Pr1080 2.438 . S
O1110 C1099 1.267 . S
O1111 Pr1081 2.431 1_455 S
O1111 C1099 1.278 . S
H1112 C1084 0.929 . S
H1113 C1085 0.929 . S
H1114 C1087 0.931 . S
H1115 C1088 0.930 . S
H1116 C1093 0.929 . S
H1117 C1094 0.929 . S
H1118 C1096 0.931 . S
H1119 C1097 0.930 . S
Pr1120 C1122 2.880 . S
Pr1120 O1140 2.562 . S
Pr1120 O1141 2.490 . S
Pr1120 O1142 2.695 . S
Pr1120 O1143 2.512 . S
Pr1120 O1145 2.437 . S
Pr1120 O1148 2.436 . S
Pr1120 O1150 2.438 . S
Pr1121 C1131 2.880 . S
Pr1121 O1142 2.436 . S
Pr1121 O1144 2.438 . S
Pr1121 O1146 2.562 . S
Pr1121 O1147 2.490 . S
Pr1121 O1148 2.695 . S
Pr1121 O1149 2.512 . S
Pr1121 O1151 2.437 . S
C1122 Pr1120 2.880 . S
C1122 C1123 1.491 . S
C1122 O1140 1.254 . S
C1122 O1141 1.225 . S
C1123 C1122 1.491 . S
C1123 C1124 1.392 . S
C1123 C1128 1.356 . S
C1124 C1123 1.392 . S
C1124 C1125 1.368 . S
C1124 H1152 0.929 . S
C1125 C1124 1.368 . S
C1125 C1126 1.386 . S
C1125 H1153 0.929 . S
C1126 C1125 1.386 . S
C1126 C1127 1.373 . S
C1127 C1126 1.373 . S
C1127 C1128 1.409 . S
C1127 H1154 0.931 . S
C1128 C1123 1.356 . S
C1128 C1127 1.409 . S
C1128 H1155 0.930 . S
C1129 O1142 1.270 . S
C1129 O1143 1.248 . S
C1130 O1144 1.267 . S
C1130 O1145 1.278 . S
C1131 Pr1121 2.880 . S
C1131 C1132 1.491 . S
C1131 O1146 1.254 . S
C1131 O1147 1.225 . S
C1132 C1131 1.491 . S
C1132 C1133 1.392 . S
C1132 C1137 1.356 . S
C1133 C1132 1.392 . S
C1133 C1134 1.368 . S
C1133 H1156 0.929 . S
C1134 C1133 1.368 . S
C1134 C1135 1.386 . S
C1134 H1157 0.929 . S
C1135 C1134 1.386 . S
C1135 C1136 1.373 . S
C1136 C1135 1.373 . S
C1136 C1137 1.409 . S
C1136 H1158 0.931 . S
C1137 C1132 1.356 . S
C1137 C1136 1.409 . S
C1137 H1159 0.930 . S
C1138 O1148 1.270 . S
C1138 O1149 1.248 . S
C1139 O1150 1.267 . S
C1139 O1151 1.278 . S
O1140 Pr1120 2.562 . S
O1140 C1122 1.254 . S
O1141 Pr1120 2.490 . S
O1141 C1122 1.225 . S
O1142 Pr1120 2.695 . S
O1142 Pr1121 2.436 . S
O1142 C1129 1.270 . S
O1143 Pr1120 2.512 . S
O1143 C1129 1.248 . S
O1144 Pr1121 2.438 . S
O1144 C1130 1.267 . S
O1145 Pr1120 2.437 . S
O1145 C1130 1.278 . S
O1146 Pr1121 2.562 . S
O1146 C1131 1.254 . S
O1147 Pr1121 2.490 . S
O1147 C1131 1.225 . S
O1148 Pr1120 2.436 . S
O1148 Pr1121 2.695 . S
O1148 C1138 1.270 . S
O1149 Pr1121 2.512 . S
O1149 C1138 1.248 . S
O1150 Pr1120 2.438 . S
O1150 C1139 1.267 . S
O1151 Pr1121 2.437 . S
O1151 C1139 1.278 . S
H1152 C1124 0.929 . S
H1153 C1125 0.929 . S
H1154 C1127 0.931 . S
H1155 C1128 0.930 . S
H1156 C1133 0.929 . S
H1157 C1134 0.929 . S
H1158 C1136 0.931 . S
H1159 C1137 0.930 . S
Pr1160 C1162 2.880 . S
Pr1160 O1180 2.562 . S
Pr1160 O1181 2.490 . S
Pr1160 O1182 2.695 . S
Pr1160 O1183 2.512 . S
Pr1160 O1185 2.437 . S
Pr1160 O1188 2.436 . S
Pr1160 O1190 2.438 . S
Pr1161 C1171 2.885 . S
Pr1161 O1182 2.432 1_655 S
Pr1161 O1184 2.437 1_655 S
Pr1161 O1186 2.567 . S
Pr1161 O1187 2.495 . S
Pr1161 O1188 2.686 1_655 S
Pr1161 O1189 2.507 1_655 S
Pr1161 O1191 2.431 1_655 S
C1162 Pr1160 2.880 . S
C1162 C1163 1.491 . S
C1162 O1180 1.254 . S
C1162 O1181 1.225 . S
C1163 C1162 1.491 . S
C1163 C1164 1.392 . S
C1163 C1168 1.356 . S
C1164 C1163 1.392 . S
C1164 C1165 1.368 . S
C1164 H1192 0.929 . S
C1165 C1164 1.368 . S
C1165 C1166 1.386 . S
C1165 H1193 0.929 . S
C1166 C1165 1.386 . S
C1166 C1167 1.373 . S
C1167 C1166 1.373 . S
C1167 C1168 1.409 . S
C1167 H1194 0.931 . S
C1168 C1163 1.356 . S
C1168 C1167 1.409 . S
C1168 H1195 0.930 . S
C1169 O1182 1.270 . S
C1169 O1183 1.248 . S
C1170 O1184 1.267 . S
C1170 O1185 1.278 . S
C1171 Pr1161 2.885 . S
C1171 C1172 1.491 . S
C1171 O1186 1.254 . S
C1171 O1187 1.225 . S
C1172 C1171 1.491 . S
C1172 C1173 1.392 . S
C1172 C1177 1.356 . S
C1173 C1172 1.392 . S
C1173 C1174 1.368 . S
C1173 H1196 0.929 . S
C1174 C1173 1.368 . S
C1174 C1175 1.386 . S
C1174 H1197 0.929 . S
C1175 C1174 1.386 . S
C1175 C1176 1.373 . S
C1176 C1175 1.373 . S
C1176 C1177 1.409 . S
C1176 H1198 0.931 . S
C1177 C1172 1.356 . S
C1177 C1176 1.409 . S
C1177 H1199 0.930 . S
C1178 O1188 1.270 . S
C1178 O1189 1.248 . S
C1179 O1190 1.267 . S
C1179 O1191 1.278 . S
O1180 Pr1160 2.562 . S
O1180 C1162 1.254 . S
O1181 Pr1160 2.490 . S
O1181 C1162 1.225 . S
O1182 Pr1160 2.695 . S
O1182 Pr1161 2.432 1_455 S
O1182 C1169 1.270 . S
O1183 Pr1160 2.512 . S
O1183 C1169 1.248 . S
O1184 Pr1161 2.437 1_455 S
O1184 C1170 1.267 . S
O1185 Pr1160 2.437 . S
O1185 C1170 1.278 . S
O1186 Pr1161 2.567 . S
O1186 C1171 1.254 . S
O1187 Pr1161 2.495 . S
O1187 C1171 1.225 . S
O1188 Pr1160 2.436 . S
O1188 Pr1161 2.686 1_455 S
O1188 C1178 1.270 . S
O1189 Pr1161 2.507 1_455 S
O1189 C1178 1.248 . S
O1190 Pr1160 2.438 . S
O1190 C1179 1.267 . S
O1191 Pr1161 2.431 1_455 S
O1191 C1179 1.278 . S
H1192 C1164 0.929 . S
H1193 C1165 0.929 . S
H1194 C1167 0.931 . S
H1195 C1168 0.930 . S
H1196 C1173 0.929 . S
H1197 C1174 0.929 . S
H1198 C1176 0.931 . S
H1199 C1177 0.930 . S
Pr1200 C1202 2.880 . S
Pr1200 O1220 2.562 . S
Pr1200 O1221 2.490 . S
Pr1200 O1222 2.695 . S
Pr1200 O1223 2.512 . S
Pr1200 O1225 2.437 . S
Pr1200 O1228 2.436 . S
Pr1200 O1230 2.438 . S
Pr1201 C1211 2.880 . S
Pr1201 O1222 2.436 . S
Pr1201 O1224 2.438 . S
Pr1201 O1226 2.562 . S
Pr1201 O1227 2.490 . S
Pr1201 O1228 2.695 . S
Pr1201 O1229 2.512 . S
Pr1201 O1231 2.437 . S
C1202 Pr1200 2.880 . S
C1202 C1203 1.491 . S
C1202 O1220 1.254 . S
C1202 O1221 1.225 . S
C1203 C1202 1.491 . S
C1203 C1204 1.392 . S
C1203 C1208 1.356 . S
C1204 C1203 1.392 . S
C1204 C1205 1.368 . S
C1204 H1232 0.929 . S
C1205 C1204 1.368 . S
C1205 C1206 1.386 . S
C1205 H1233 0.929 . S
C1206 C1205 1.386 . S
C1206 C1207 1.373 . S
C1207 C1206 1.373 . S
C1207 C1208 1.409 . S
C1207 H1234 0.931 . S
C1208 C1203 1.356 . S
C1208 C1207 1.409 . S
C1208 H1235 0.930 . S
C1209 O1222 1.270 . S
C1209 O1223 1.248 . S
C1210 O1224 1.267 . S
C1210 O1225 1.278 . S
C1211 Pr1201 2.880 . S
C1211 C1212 1.491 . S
C1211 O1226 1.254 . S
C1211 O1227 1.225 . S
C1212 C1211 1.491 . S
C1212 C1213 1.392 . S
C1212 C1217 1.356 . S
C1213 C1212 1.392 . S
C1213 C1214 1.368 . S
C1213 H1236 0.929 . S
C1214 C1213 1.368 . S
C1214 C1215 1.386 . S
C1214 H1237 0.929 . S
C1215 C1214 1.386 . S
C1215 C1216 1.373 . S
C1216 C1215 1.373 . S
C1216 C1217 1.409 . S
C1216 H1238 0.931 . S
C1217 C1212 1.356 . S
C1217 C1216 1.409 . S
C1217 H1239 0.930 . S
C1218 O1228 1.270 . S
C1218 O1229 1.248 . S
C1219 O1230 1.267 . S
C1219 O1231 1.278 . S
O1220 Pr1200 2.562 . S
O1220 C1202 1.254 . S
O1221 Pr1200 2.490 . S
O1221 C1202 1.225 . S
O1222 Pr1200 2.695 . S
O1222 Pr1201 2.436 . S
O1222 C1209 1.270 . S
O1223 Pr1200 2.512 . S
O1223 C1209 1.248 . S
O1224 Pr1201 2.438 . S
O1224 C1210 1.267 . S
O1225 Pr1200 2.437 . S
O1225 C1210 1.278 . S
O1226 Pr1201 2.562 . S
O1226 C1211 1.254 . S
O1227 Pr1201 2.490 . S
O1227 C1211 1.225 . S
O1228 Pr1200 2.436 . S
O1228 Pr1201 2.695 . S
O1228 C1218 1.270 . S
O1229 Pr1201 2.512 . S
O1229 C1218 1.248 . S
O1230 Pr1200 2.438 . S
O1230 C1219 1.267 . S
O1231 Pr1201 2.437 . S
O1231 C1219 1.278 . S
H1232 C1204 0.929 . S
H1233 C1205 0.929 . S
H1234 C1207 0.931 . S
H1235 C1208 0.930 . S
H1236 C1213 0.929 . S
H1237 C1214 0.929 . S
H1238 C1216 0.931 . S
H1239 C1217 0.930 . S
Pr1240 C1242 2.880 . S
Pr1240 O1260 2.562 . S
Pr1240 O1261 2.490 . S
Pr1240 O1262 2.695 . S
Pr1240 O1263 2.512 . S
Pr1240 O1265 2.437 . S
Pr1240 O1268 2.436 . S
Pr1240 O1270 2.438 . S
Pr1241 C1251 2.880 . S
Pr1241 O1262 2.436 . S
Pr1241 O1264 2.438 . S
Pr1241 O1266 2.562 . S
Pr1241 O1267 2.490 . S
Pr1241 O1268 2.695 . S
Pr1241 O1269 2.512 . S
Pr1241 O1271 2.437 . S
C1242 Pr1240 2.880 . S
C1242 C1243 1.491 . S
C1242 O1260 1.254 . S
C1242 O1261 1.225 . S
C1243 C1242 1.491 . S
C1243 C1244 1.392 . S
C1243 C1248 1.356 . S
C1244 C1243 1.392 . S
C1244 C1245 1.368 . S
C1244 H1272 0.929 . S
C1245 C1244 1.368 . S
C1245 C1246 1.386 . S
C1245 H1273 0.929 . S
C1246 C1245 1.386 . S
C1246 C1247 1.373 . S
C1247 C1246 1.373 . S
C1247 C1248 1.409 . S
C1247 H1274 0.931 . S
C1248 C1243 1.356 . S
C1248 C1247 1.409 . S
C1248 H1275 0.930 . S
C1249 O1262 1.270 . S
C1249 O1263 1.248 . S
C1250 O1264 1.267 . S
C1250 O1265 1.278 . S
C1251 Pr1241 2.880 . S
C1251 C1252 1.491 . S
C1251 O1266 1.254 . S
C1251 O1267 1.225 . S
C1252 C1251 1.491 . S
C1252 C1253 1.392 . S
C1252 C1257 1.356 . S
C1253 C1252 1.392 . S
C1253 C1254 1.368 . S
C1253 H1276 0.929 . S
C1254 C1253 1.368 . S
C1254 C1255 1.386 . S
C1254 H1277 0.929 . S
C1255 C1254 1.386 . S
C1255 C1256 1.373 . S
C1256 C1255 1.373 . S
C1256 C1257 1.409 . S
C1256 H1278 0.931 . S
C1257 C1252 1.356 . S
C1257 C1256 1.409 . S
C1257 H1279 0.930 . S
C1258 O1268 1.270 . S
C1258 O1269 1.248 . S
C1259 O1270 1.267 . S
C1259 O1271 1.278 . S
O1260 Pr1240 2.562 . S
O1260 C1242 1.254 . S
O1261 Pr1240 2.490 . S
O1261 C1242 1.225 . S
O1262 Pr1240 2.695 . S
O1262 Pr1241 2.436 . S
O1262 C1249 1.270 . S
O1263 Pr1240 2.512 . S
O1263 C1249 1.248 . S
O1264 Pr1241 2.438 . S
O1264 C1250 1.267 . S
O1265 Pr1240 2.437 . S
O1265 C1250 1.278 . S
O1266 Pr1241 2.562 . S
O1266 C1251 1.254 . S
O1267 Pr1241 2.490 . S
O1267 C1251 1.225 . S
O1268 Pr1240 2.436 . S
O1268 Pr1241 2.695 . S
O1268 C1258 1.270 . S
O1269 Pr1241 2.512 . S
O1269 C1258 1.248 . S
O1270 Pr1240 2.438 . S
O1270 C1259 1.267 . S
O1271 Pr1241 2.437 . S
O1271 C1259 1.278 . S
H1272 C1244 0.929 . S
H1273 C1245 0.929 . S
H1274 C1247 0.931 . S
H1275 C1248 0.930 . S
H1276 C1253 0.929 . S
H1277 C1254 0.929 . S
H1278 C1256 0.931 . S
H1279 C1257 0.930 . S
H1280 C1286 0.930 . S
H1281 C1290 0.930 . S
H1282 C1295 0.929 . S
H1283 C1293 0.929 . S
H1284 C1288 0.929 . S
H1285 C1294 0.929 . S
C1286 H1280 0.930 . S
C1286 C1287 1.367 . S
C1286 C1294 1.378 . S
C1287 C1286 1.367 . S
C1287 C1295 1.433 . S
C1288 H1284 0.929 . S
C1288 C1290 1.378 . S
C1288 C1292 1.350 . S
C1289 C1292 1.463 . S
C1289 C1294 1.350 . S
C1289 N1297 1.427 . S
C1290 H1281 0.930 . S
C1290 C1288 1.378 . S
C1290 C1291 1.367 . S
C1291 C1290 1.367 . S
C1291 C1293 1.433 . S
C1292 C1288 1.350 . S
C1292 C1289 1.463 . S
C1292 N1296 1.427 . S
C1293 H1283 0.929 . S
C1293 C1291 1.433 . S
C1293 N1296 1.384 . S
C1294 H1285 0.929 . S
C1294 C1286 1.378 . S
C1294 C1289 1.350 . S
C1295 H1282 0.929 . S
C1295 C1287 1.433 . S
C1295 N1297 1.384 . S
N1296 C1292 1.427 . S
N1296 C1293 1.384 . S
N1297 C1289 1.427 . S
N1297 C1295 1.384 . S
H1298 C1304 0.930 . S
H1299 C1308 0.930 . S
H1300 C1313 0.929 . S
H1301 C1311 0.929 . S
H1302 C1306 0.929 . S
H1303 C1312 0.929 . S
C1304 H1298 0.930 . S
C1304 C1305 1.367 . S
C1304 C1312 1.378 . S
C1305 C1304 1.367 . S
C1305 C1313 1.433 . S
C1306 H1302 0.929 . S
C1306 C1308 1.378 . S
C1306 C1310 1.350 . S
C1307 C1310 1.463 . S
C1307 C1312 1.350 . S
C1307 N1315 1.427 . S
C1308 H1299 0.930 . S
C1308 C1306 1.378 . S
C1308 C1309 1.367 . S
C1309 C1308 1.367 . S
C1309 C1311 1.433 . S
C1310 C1306 1.350 . S
C1310 C1307 1.463 . S
C1310 N1314 1.427 . S
C1311 H1301 0.929 . S
C1311 C1309 1.433 . S
C1311 N1314 1.384 . S
C1312 H1303 0.929 . S
C1312 C1304 1.378 . S
C1312 C1307 1.350 . S
C1313 H1300 0.929 . S
C1313 C1305 1.433 . S
C1313 N1315 1.384 . S
N1314 C1310 1.427 . S
N1314 C1311 1.384 . S
N1315 C1307 1.427 . S
N1315 C1313 1.384 . S
H1316 C1322 0.930 . S
H1317 C1326 0.930 . S
H1318 C1331 0.929 . S
H1319 C1329 0.929 . S
H1320 C1324 0.929 . S
H1321 C1330 0.929 . S
C1322 H1316 0.930 . S
C1322 C1323 1.367 . S
C1322 C1330 1.378 . S
C1323 C1322 1.367 . S
C1323 C1331 1.433 . S
C1324 H1320 0.929 . S
C1324 C1326 1.378 . S
C1324 C1328 1.350 . S
C1325 C1328 1.463 . S
C1325 C1330 1.350 . S
C1325 N1333 1.427 . S
C1326 H1317 0.930 . S
C1326 C1324 1.378 . S
C1326 C1327 1.367 . S
C1327 C1326 1.367 . S
C1327 C1329 1.433 . S
C1328 C1324 1.350 . S
C1328 C1325 1.463 . S
C1328 N1332 1.427 . S
C1329 H1319 0.929 . S
C1329 C1327 1.433 . S
C1329 N1332 1.384 . S
C1330 H1321 0.929 . S
C1330 C1322 1.378 . S
C1330 C1325 1.350 . S
C1331 H1318 0.929 . S
C1331 C1323 1.433 . S
C1331 N1333 1.384 . S
N1332 C1328 1.427 . S
N1332 C1329 1.384 . S
N1333 C1325 1.427 . S
N1333 C1331 1.384 . S
H1334 C1340 0.930 . S
H1335 C1344 0.930 . S
H1336 C1349 0.929 . S
H1337 C1347 0.929 . S
H1338 C1342 0.929 . S
H1339 C1348 0.929 . S
C1340 H1334 0.930 . S
C1340 C1341 1.367 . S
C1340 C1348 1.378 . S
C1341 C1340 1.367 . S
C1341 C1349 1.433 . S
C1342 H1338 0.929 . S
C1342 C1344 1.378 . S
C1342 C1346 1.350 . S
C1343 C1346 1.463 . S
C1343 C1348 1.350 . S
C1343 N1351 1.427 . S
C1344 H1335 0.930 . S
C1344 C1342 1.378 . S
C1344 C1345 1.367 . S
C1345 C1344 1.367 . S
C1345 C1347 1.433 . S
C1346 C1342 1.350 . S
C1346 C1343 1.463 . S
C1346 N1350 1.427 . S
C1347 H1337 0.929 . S
C1347 C1345 1.433 . S
C1347 N1350 1.384 . S
C1348 H1339 0.929 . S
C1348 C1340 1.378 . S
C1348 C1343 1.350 . S
C1349 H1336 0.929 . S
C1349 C1341 1.433 . S
C1349 N1351 1.384 . S
N1350 C1346 1.427 . S
N1350 C1347 1.384 . S
N1351 C1343 1.427 . S
N1351 C1349 1.384 . S
H1352 C1358 0.930 . S
H1353 C1362 0.930 . S
H1354 C1367 0.929 . S
H1355 C1365 0.929 . S
H1356 C1360 0.929 . S
H1357 C1366 0.929 . S
C1358 H1352 0.930 . S
C1358 C1359 1.367 . S
C1358 C1366 1.378 . S
C1359 C1358 1.367 . S
C1359 C1367 1.433 . S
C1360 H1356 0.929 . S
C1360 C1362 1.378 . S
C1360 C1364 1.350 . S
C1361 C1364 1.463 . S
C1361 C1366 1.350 . S
C1361 N1369 1.427 . S
C1362 H1353 0.930 . S
C1362 C1360 1.378 . S
C1362 C1363 1.367 . S
C1363 C1362 1.367 . S
C1363 C1365 1.433 . S
C1364 C1360 1.350 . S
C1364 C1361 1.463 . S
C1364 N1368 1.427 . S
C1365 H1355 0.929 . S
C1365 C1363 1.433 . S
C1365 N1368 1.384 . S
C1366 H1357 0.929 . S
C1366 C1358 1.378 . S
C1366 C1361 1.350 . S
C1367 H1354 0.929 . S
C1367 C1359 1.433 . S
C1367 N1369 1.384 . S
N1368 C1364 1.427 . S
N1368 C1365 1.384 . S
N1369 C1361 1.427 . S
N1369 C1367 1.384 . S
H1370 C1376 0.930 . S
H1371 C1380 0.930 . S
H1372 C1385 0.929 . S
H1373 C1383 0.929 . S
H1374 C1378 0.929 . S
H1375 C1384 0.929 . S
C1376 H1370 0.930 . S
C1376 C1377 1.367 . S
C1376 C1384 1.378 . S
C1377 C1376 1.367 . S
C1377 C1385 1.433 . S
C1378 H1374 0.929 . S
C1378 C1380 1.378 . S
C1378 C1382 1.350 . S
C1379 C1382 1.463 . S
C1379 C1384 1.350 . S
C1379 N1387 1.427 . S
C1380 H1371 0.930 . S
C1380 C1378 1.378 . S
C1380 C1381 1.367 . S
C1381 C1380 1.367 . S
C1381 C1383 1.433 . S
C1382 C1378 1.350 . S
C1382 C1379 1.463 . S
C1382 N1386 1.427 . S
C1383 H1373 0.929 . S
C1383 C1381 1.433 . S
C1383 N1386 1.384 . S
C1384 H1375 0.929 . S
C1384 C1376 1.378 . S
C1384 C1379 1.350 . S
C1385 H1372 0.929 . S
C1385 C1377 1.433 . S
C1385 N1387 1.384 . S
N1386 C1382 1.427 . S
N1386 C1383 1.384 . S
N1387 C1379 1.427 . S
N1387 C1385 1.384 . S
H1388 C1394 0.930 . S
H1389 C1398 0.930 . S
H1390 C1403 0.929 . S
H1391 C1401 0.929 . S
H1392 C1396 0.929 . S
H1393 C1402 0.929 . S
C1394 H1388 0.930 . S
C1394 C1395 1.367 . S
C1394 C1402 1.378 . S
C1395 C1394 1.367 . S
C1395 C1403 1.433 . S
C1396 H1392 0.929 . S
C1396 C1398 1.378 . S
C1396 C1400 1.350 . S
C1397 C1400 1.463 . S
C1397 C1402 1.350 . S
C1397 N1405 1.427 . S
C1398 H1389 0.930 . S
C1398 C1396 1.378 . S
C1398 C1399 1.367 . S
C1399 C1398 1.367 . S
C1399 C1401 1.433 . S
C1400 C1396 1.350 . S
C1400 C1397 1.463 . S
C1400 N1404 1.427 . S
C1401 H1391 0.929 . S
C1401 C1399 1.433 . S
C1401 N1404 1.384 . S
C1402 H1393 0.929 . S
C1402 C1394 1.378 . S
C1402 C1397 1.350 . S
C1403 H1390 0.929 . S
C1403 C1395 1.433 . S
C1403 N1405 1.384 . S
N1404 C1400 1.427 . S
N1404 C1401 1.384 . S
N1405 C1397 1.427 . S
N1405 C1403 1.384 . S
H1406 C1412 0.930 . S
H1407 C1416 0.930 . S
H1408 C1421 0.929 . S
H1409 C1419 0.929 . S
H1410 C1414 0.929 . S
H1411 C1420 0.929 . S
C1412 H1406 0.930 . S
C1412 C1413 1.367 . S
C1412 C1420 1.378 . S
C1413 C1412 1.367 . S
C1413 C1421 1.433 . S
C1414 H1410 0.929 . S
C1414 C1416 1.378 . S
C1414 C1418 1.350 . S
C1415 C1418 1.463 . S
C1415 C1420 1.350 . S
C1415 N1423 1.427 . S
C1416 H1407 0.930 . S
C1416 C1414 1.378 . S
C1416 C1417 1.367 . S
C1417 C1416 1.367 . S
C1417 C1419 1.433 . S
C1418 C1414 1.350 . S
C1418 C1415 1.463 . S
C1418 N1422 1.427 . S
C1419 H1409 0.929 . S
C1419 C1417 1.433 . S
C1419 N1422 1.384 . S
C1420 H1411 0.929 . S
C1420 C1412 1.378 . S
C1420 C1415 1.350 . S
C1421 H1408 0.929 . S
C1421 C1413 1.433 . S
C1421 N1423 1.384 . S
N1422 C1418 1.427 . S
N1422 C1419 1.384 . S
N1423 C1415 1.427 . S
N1423 C1421 1.384 . S
H1424 C1430 0.930 . S
H1425 C1434 0.930 . S
H1426 C1439 0.929 . S
H1427 C1437 0.929 . S
H1428 C1432 0.929 . S
H1429 C1438 0.929 . S
C1430 H1424 0.930 . S
C1430 C1431 1.367 . S
C1430 C1438 1.378 . S
C1431 C1430 1.367 . S
C1431 C1439 1.433 . S
C1432 H1428 0.929 . S
C1432 C1434 1.378 . S
C1432 C1436 1.350 . S
C1433 C1436 1.463 . S
C1433 C1438 1.350 . S
C1433 N1441 1.427 . S
C1434 H1425 0.930 . S
C1434 C1432 1.378 . S
C1434 C1435 1.367 . S
C1435 C1434 1.367 . S
C1435 C1437 1.433 . S
C1436 C1432 1.350 . S
C1436 C1433 1.463 . S
C1436 N1440 1.427 . S
C1437 H1427 0.929 . S
C1437 C1435 1.433 . S
C1437 N1440 1.384 . S
C1438 H1429 0.929 . S
C1438 C1430 1.378 . S
C1438 C1433 1.350 . S
C1439 H1426 0.929 . S
C1439 C1431 1.433 . S
C1439 N1441 1.384 . S
N1440 C1436 1.427 . S
N1440 C1437 1.384 . S
N1441 C1433 1.427 . S
N1441 C1439 1.384 . S
H1442 C1448 0.930 . S
H1443 C1452 0.930 . S
H1444 C1457 0.929 . S
H1445 C1455 0.929 . S
H1446 C1450 0.929 . S
H1447 C1456 0.929 . S
C1448 H1442 0.930 . S
C1448 C1449 1.367 . S
C1448 C1456 1.378 . S
C1449 C1448 1.367 . S
C1449 C1457 1.433 . S
C1450 H1446 0.929 . S
C1450 C1452 1.378 . S
C1450 C1454 1.350 . S
C1451 C1454 1.463 . S
C1451 C1456 1.350 . S
C1451 N1459 1.427 . S
C1452 H1443 0.930 . S
C1452 C1450 1.378 . S
C1452 C1453 1.367 . S
C1453 C1452 1.367 . S
C1453 C1455 1.433 . S
C1454 C1450 1.350 . S
C1454 C1451 1.463 . S
C1454 N1458 1.427 . S
C1455 H1445 0.929 . S
C1455 C1453 1.433 . S
C1455 N1458 1.384 . S
C1456 H1447 0.929 . S
C1456 C1448 1.378 . S
C1456 C1451 1.350 . S
C1457 H1444 0.929 . S
C1457 C1449 1.433 . S
C1457 N1459 1.384 . S
N1458 C1454 1.427 . S
N1458 C1455 1.384 . S
N1459 C1451 1.427 . S
N1459 C1457 1.384 . S
H1460 C1466 0.930 . S
H1461 C1470 0.930 . S
H1462 C1475 0.929 . S
H1463 C1473 0.929 . S
H1464 C1468 0.929 . S
H1465 C1474 0.929 . S
C1466 H1460 0.930 . S
C1466 C1467 1.367 . S
C1466 C1474 1.378 . S
C1467 C1466 1.367 . S
C1467 C1475 1.433 . S
C1468 H1464 0.929 . S
C1468 C1470 1.378 . S
C1468 C1472 1.350 . S
C1469 C1472 1.463 . S
C1469 C1474 1.350 . S
C1469 N1477 1.427 . S
C1470 H1461 0.930 . S
C1470 C1468 1.378 . S
C1470 C1471 1.367 . S
C1471 C1470 1.367 . S
C1471 C1473 1.433 . S
C1472 C1468 1.350 . S
C1472 C1469 1.463 . S
C1472 N1476 1.427 . S
C1473 H1463 0.929 . S
C1473 C1471 1.433 . S
C1473 N1476 1.384 . S
C1474 H1465 0.929 . S
C1474 C1466 1.378 . S
C1474 C1469 1.350 . S
C1475 H1462 0.929 . S
C1475 C1467 1.433 . S
C1475 N1477 1.384 . S
N1476 C1472 1.427 . S
N1476 C1473 1.384 . S
N1477 C1469 1.427 . S
N1477 C1475 1.384 . S
H1478 C1484 0.930 . S
H1479 C1488 0.930 . S
H1480 C1493 0.929 . S
H1481 C1491 0.929 . S
H1482 C1486 0.929 . S
H1483 C1492 0.929 . S
C1484 H1478 0.930 . S
C1484 C1485 1.367 . S
C1484 C1492 1.378 . S
C1485 C1484 1.367 . S
C1485 C1493 1.433 . S
C1486 H1482 0.929 . S
C1486 C1488 1.378 . S
C1486 C1490 1.350 . S
C1487 C1490 1.463 . S
C1487 C1492 1.350 . S
C1487 N1495 1.427 . S
C1488 H1479 0.930 . S
C1488 C1486 1.378 . S
C1488 C1489 1.367 . S
C1489 C1488 1.367 . S
C1489 C1491 1.433 . S
C1490 C1486 1.350 . S
C1490 C1487 1.463 . S
C1490 N1494 1.427 . S
C1491 H1481 0.929 . S
C1491 C1489 1.433 . S
C1491 N1494 1.384 . S
C1492 H1483 0.929 . S
C1492 C1484 1.378 . S
C1492 C1487 1.350 . S
C1493 H1480 0.929 . S
C1493 C1485 1.433 . S
C1493 N1495 1.384 . S
N1494 C1490 1.427 . S
N1494 C1491 1.384 . S
N1495 C1487 1.427 . S
N1495 C1493 1.384 . S
H1496 C1502 0.930 . S
H1497 C1506 0.930 . S
H1498 C1511 0.929 . S
H1499 C1509 0.929 . S
H1500 C1504 0.929 . S
H1501 C1510 0.929 . S
C1502 H1496 0.930 . S
C1502 C1503 1.367 . S
C1502 C1510 1.378 . S
C1503 C1502 1.367 . S
C1503 C1511 1.433 . S
C1504 H1500 0.929 . S
C1504 C1506 1.378 . S
C1504 C1508 1.350 . S
C1505 C1508 1.463 . S
C1505 C1510 1.350 . S
C1505 N1513 1.427 . S
C1506 H1497 0.930 . S
C1506 C1504 1.378 . S
C1506 C1507 1.367 . S
C1507 C1506 1.367 . S
C1507 C1509 1.433 . S
C1508 C1504 1.350 . S
C1508 C1505 1.463 . S
C1508 N1512 1.427 . S
C1509 H1499 0.929 . S
C1509 C1507 1.433 . S
C1509 N1512 1.384 . S
C1510 H1501 0.929 . S
C1510 C1502 1.378 . S
C1510 C1505 1.350 . S
C1511 H1498 0.929 . S
C1511 C1503 1.433 . S
C1511 N1513 1.384 . S
N1512 C1508 1.427 . S
N1512 C1509 1.384 . S
N1513 C1505 1.427 . S
N1513 C1511 1.384 . S
H1514 C1520 0.930 . S
H1515 C1524 0.930 . S
H1516 C1529 0.929 . S
H1517 C1527 0.929 . S
H1518 C1522 0.929 . S
H1519 C1528 0.929 . S
C1520 H1514 0.930 . S
C1520 C1521 1.367 . S
C1520 C1528 1.378 . S
C1521 C1520 1.367 . S
C1521 C1529 1.433 . S
C1522 H1518 0.929 . S
C1522 C1524 1.378 . S
C1522 C1526 1.350 . S
C1523 C1526 1.463 . S
C1523 C1528 1.350 . S
C1523 N1531 1.427 . S
C1524 H1515 0.930 . S
C1524 C1522 1.378 . S
C1524 C1525 1.367 . S
C1525 C1524 1.367 . S
C1525 C1527 1.433 . S
C1526 C1522 1.350 . S
C1526 C1523 1.463 . S
C1526 N1530 1.427 . S
C1527 H1517 0.929 . S
C1527 C1525 1.433 . S
C1527 N1530 1.384 . S
C1528 H1519 0.929 . S
C1528 C1520 1.378 . S
C1528 C1523 1.350 . S
C1529 H1516 0.929 . S
C1529 C1521 1.433 . S
C1529 N1531 1.384 . S
N1530 C1526 1.427 . S
N1530 C1527 1.384 . S
N1531 C1523 1.427 . S
N1531 C1529 1.384 . S
H1532 C1538 0.930 . S
H1533 C1542 0.930 . S
H1534 C1547 0.929 . S
H1535 C1545 0.929 . S
H1536 C1540 0.929 . S
H1537 C1546 0.929 . S
C1538 H1532 0.930 . S
C1538 C1539 1.367 . S
C1538 C1546 1.378 . S
C1539 C1538 1.367 . S
C1539 C1547 1.433 . S
C1540 H1536 0.929 . S
C1540 C1542 1.378 . S
C1540 C1544 1.350 . S
C1541 C1544 1.463 . S
C1541 C1546 1.350 . S
C1541 N1549 1.427 . S
C1542 H1533 0.930 . S
C1542 C1540 1.378 . S
C1542 C1543 1.367 . S
C1543 C1542 1.367 . S
C1543 C1545 1.433 . S
C1544 C1540 1.350 . S
C1544 C1541 1.463 . S
C1544 N1548 1.427 . S
C1545 H1535 0.929 . S
C1545 C1543 1.433 . S
C1545 N1548 1.384 . S
C1546 H1537 0.929 . S
C1546 C1538 1.378 . S
C1546 C1541 1.350 . S
C1547 H1534 0.929 . S
C1547 C1539 1.433 . S
C1547 N1549 1.384 . S
N1548 C1544 1.427 . S
N1548 C1545 1.384 . S
N1549 C1541 1.427 . S
N1549 C1547 1.384 . S
H1550 C1556 0.930 . S
H1551 C1560 0.930 . S
H1552 C1565 0.929 . S
H1553 C1563 0.929 . S
H1554 C1558 0.929 . S
H1555 C1564 0.929 . S
C1556 H1550 0.930 . S
C1556 C1557 1.367 . S
C1556 C1564 1.378 . S
C1557 C1556 1.367 . S
C1557 C1565 1.433 . S
C1558 H1554 0.929 . S
C1558 C1560 1.378 . S
C1558 C1562 1.350 . S
C1559 C1562 1.463 . S
C1559 C1564 1.350 . S
C1559 N1567 1.427 . S
C1560 H1551 0.930 . S
C1560 C1558 1.378 . S
C1560 C1561 1.367 . S
C1561 C1560 1.367 . S
C1561 C1563 1.433 . S
C1562 C1558 1.350 . S
C1562 C1559 1.463 . S
C1562 N1566 1.427 . S
C1563 H1553 0.929 . S
C1563 C1561 1.433 . S
C1563 N1566 1.384 . S
C1564 H1555 0.929 . S
C1564 C1556 1.378 . S
C1564 C1559 1.350 . S
C1565 H1552 0.929 . S
C1565 C1557 1.433 . S
C1565 N1567 1.384 . S
N1566 C1562 1.427 . S
N1566 C1563 1.384 . S
N1567 C1559 1.427 . S
N1567 C1565 1.384 . S
H1568 C1574 0.930 . S
H1569 C1578 0.930 . S
H1570 C1583 0.929 . S
H1571 C1581 0.929 . S
H1572 C1576 0.929 . S
H1573 C1582 0.929 . S
C1574 H1568 0.930 . S
C1574 C1575 1.367 . S
C1574 C1582 1.378 . S
C1575 C1574 1.367 . S
C1575 C1583 1.433 . S
C1576 H1572 0.929 . S
C1576 C1578 1.378 . S
C1576 C1580 1.350 . S
C1577 C1580 1.463 . S
C1577 C1582 1.350 . S
C1577 N1585 1.427 . S
C1578 H1569 0.930 . S
C1578 C1576 1.378 . S
C1578 C1579 1.367 . S
C1579 C1578 1.367 . S
C1579 C1581 1.433 . S
C1580 C1576 1.350 . S
C1580 C1577 1.463 . S
C1580 N1584 1.427 . S
C1581 H1571 0.929 . S
C1581 C1579 1.433 . S
C1581 N1584 1.384 . S
C1582 H1573 0.929 . S
C1582 C1574 1.378 . S
C1582 C1577 1.350 . S
C1583 H1570 0.929 . S
C1583 C1575 1.433 . S
C1583 N1585 1.384 . S
N1584 C1580 1.427 . S
N1584 C1581 1.384 . S
N1585 C1577 1.427 . S
N1585 C1583 1.384 . S
H1586 C1592 0.930 . S
H1587 C1596 0.930 . S
H1588 C1601 0.929 . S
H1589 C1599 0.929 . S
H1590 C1594 0.929 . S
H1591 C1600 0.929 . S
C1592 H1586 0.930 . S
C1592 C1593 1.367 . S
C1592 C1600 1.378 . S
C1593 C1592 1.367 . S
C1593 C1601 1.433 . S
C1594 H1590 0.929 . S
C1594 C1596 1.378 . S
C1594 C1598 1.350 . S
C1595 C1598 1.463 . S
C1595 C1600 1.350 . S
C1595 N1603 1.427 . S
C1596 H1587 0.930 . S
C1596 C1594 1.378 . S
C1596 C1597 1.367 . S
C1597 C1596 1.367 . S
C1597 C1599 1.433 . S
C1598 C1594 1.350 . S
C1598 C1595 1.463 . S
C1598 N1602 1.427 . S
C1599 H1589 0.929 . S
C1599 C1597 1.433 . S
C1599 N1602 1.384 . S
C1600 H1591 0.929 . S
C1600 C1592 1.378 . S
C1600 C1595 1.350 . S
C1601 H1588 0.929 . S
C1601 C1593 1.433 . S
C1601 N1603 1.384 . S
N1602 C1598 1.427 . S
N1602 C1599 1.384 . S
N1603 C1595 1.427 . S
N1603 C1601 1.384 . S
H1604 C1610 0.930 . S
H1605 C1614 0.930 . S
H1606 C1619 0.929 . S
H1607 C1617 0.929 . S
H1608 C1612 0.929 . S
H1609 C1618 0.929 . S
C1610 H1604 0.930 . S
C1610 C1611 1.367 . S
C1610 C1618 1.378 . S
C1611 C1610 1.367 . S
C1611 C1619 1.433 . S
C1612 H1608 0.929 . S
C1612 C1614 1.378 . S
C1612 C1616 1.350 . S
C1613 C1616 1.463 . S
C1613 C1618 1.350 . S
C1613 N1621 1.427 . S
C1614 H1605 0.930 . S
C1614 C1612 1.378 . S
C1614 C1615 1.367 . S
C1615 C1614 1.367 . S
C1615 C1617 1.433 . S
C1616 C1612 1.350 . S
C1616 C1613 1.463 . S
C1616 N1620 1.427 . S
C1617 H1607 0.929 . S
C1617 C1615 1.433 . S
C1617 N1620 1.384 . S
C1618 H1609 0.929 . S
C1618 C1610 1.378 . S
C1618 C1613 1.350 . S
C1619 H1606 0.929 . S
C1619 C1611 1.433 . S
C1619 N1621 1.384 . S
N1620 C1616 1.427 . S
N1620 C1617 1.384 . S
N1621 C1613 1.427 . S
N1621 C1619 1.384 . S
H1622 C1628 0.930 . S
H1623 C1632 0.930 . S
H1624 C1637 0.929 . S
H1625 C1635 0.929 . S
H1626 C1630 0.929 . S
H1627 C1636 0.929 . S
C1628 H1622 0.930 . S
C1628 C1629 1.367 . S
C1628 C1636 1.378 . S
C1629 C1628 1.367 . S
C1629 C1637 1.433 . S
C1630 H1626 0.929 . S
C1630 C1632 1.378 . S
C1630 C1634 1.350 . S
C1631 C1634 1.463 . S
C1631 C1636 1.350 . S
C1631 N1639 1.427 . S
C1632 H1623 0.930 . S
C1632 C1630 1.378 . S
C1632 C1633 1.367 . S
C1633 C1632 1.367 . S
C1633 C1635 1.433 . S
C1634 C1630 1.350 . S
C1634 C1631 1.463 . S
C1634 N1638 1.427 . S
C1635 H1625 0.929 . S
C1635 C1633 1.433 . S
C1635 N1638 1.384 . S
C1636 H1627 0.929 . S
C1636 C1628 1.378 . S
C1636 C1631 1.350 . S
C1637 H1624 0.929 . S
C1637 C1629 1.433 . S
C1637 N1639 1.384 . S
N1638 C1634 1.427 . S
N1638 C1635 1.384 . S
N1639 C1631 1.427 . S
N1639 C1637 1.384 . S
H1640 C1646 0.930 . S
H1641 C1650 0.930 . S
H1642 C1655 0.929 . S
H1643 C1653 0.929 . S
H1644 C1648 0.929 . S
H1645 C1654 0.929 . S
C1646 H1640 0.930 . S
C1646 C1647 1.367 . S
C1646 C1654 1.378 . S
C1647 C1646 1.367 . S
C1647 C1655 1.433 . S
C1648 H1644 0.929 . S
C1648 C1650 1.378 . S
C1648 C1652 1.350 . S
C1649 C1652 1.463 . S
C1649 C1654 1.350 . S
C1649 N1657 1.427 . S
C1650 H1641 0.930 . S
C1650 C1648 1.378 . S
C1650 C1651 1.367 . S
C1651 C1650 1.367 . S
C1651 C1653 1.433 . S
C1652 C1648 1.350 . S
C1652 C1649 1.463 . S
C1652 N1656 1.427 . S
C1653 H1643 0.929 . S
C1653 C1651 1.433 . S
C1653 N1656 1.384 . S
C1654 H1645 0.929 . S
C1654 C1646 1.378 . S
C1654 C1649 1.350 . S
C1655 H1642 0.929 . S
C1655 C1647 1.433 . S
C1655 N1657 1.384 . S
N1656 C1652 1.427 . S
N1656 C1653 1.384 . S
N1657 C1649 1.427 . S
N1657 C1655 1.384 . S
H1658 C1664 0.930 . S
H1659 C1668 0.930 . S
H1660 C1673 0.929 . S
H1661 C1671 0.929 . S
H1662 C1666 0.929 . S
H1663 C1672 0.929 . S
C1664 H1658 0.930 . S
C1664 C1665 1.367 . S
C1664 C1672 1.378 . S
C1665 C1664 1.367 . S
C1665 C1673 1.433 . S
C1666 H1662 0.929 . S
C1666 C1668 1.378 . S
C1666 C1670 1.350 . S
C1667 C1670 1.463 . S
C1667 C1672 1.350 . S
C1667 N1675 1.427 . S
C1668 H1659 0.930 . S
C1668 C1666 1.378 . S
C1668 C1669 1.367 . S
C1669 C1668 1.367 . S
C1669 C1671 1.433 . S
C1670 C1666 1.350 . S
C1670 C1667 1.463 . S
C1670 N1674 1.427 . S
C1671 H1661 0.929 . S
C1671 C1669 1.433 . S
C1671 N1674 1.384 . S
C1672 H1663 0.929 . S
C1672 C1664 1.378 . S
C1672 C1667 1.350 . S
C1673 H1660 0.929 . S
C1673 C1665 1.433 . S
C1673 N1675 1.384 . S
N1674 C1670 1.427 . S
N1674 C1671 1.384 . S
N1675 C1667 1.427 . S
N1675 C1673 1.384 . S
H1676 C1682 0.930 . S
H1677 C1686 0.930 . S
H1678 C1691 0.929 . S
H1679 C1689 0.929 . S
H1680 C1684 0.929 . S
H1681 C1690 0.929 . S
C1682 H1676 0.930 . S
C1682 C1683 1.367 . S
C1682 C1690 1.378 . S
C1683 C1682 1.367 . S
C1683 C1691 1.433 . S
C1684 H1680 0.929 . S
C1684 C1686 1.378 . S
C1684 C1688 1.350 . S
C1685 C1688 1.463 . S
C1685 C1690 1.350 . S
C1685 N1693 1.427 . S
C1686 H1677 0.930 . S
C1686 C1684 1.378 . S
C1686 C1687 1.367 . S
C1687 C1686 1.367 . S
C1687 C1689 1.433 . S
C1688 C1684 1.350 . S
C1688 C1685 1.463 . S
C1688 N1692 1.427 . S
C1689 H1679 0.929 . S
C1689 C1687 1.433 . S
C1689 N1692 1.384 . S
C1690 H1681 0.929 . S
C1690 C1682 1.378 . S
C1690 C1685 1.350 . S
C1691 H1678 0.929 . S
C1691 C1683 1.433 . S
C1691 N1693 1.384 . S
N1692 C1688 1.427 . S
N1692 C1689 1.384 . S
N1693 C1685 1.427 . S
N1693 C1691 1.384 . S
H1694 C1700 0.930 . S
H1695 C1704 0.930 . S
H1696 C1709 0.929 . S
H1697 C1707 0.929 . S
H1698 C1702 0.929 . S
H1699 C1708 0.929 . S
C1700 H1694 0.930 . S
C1700 C1701 1.367 . S
C1700 C1708 1.378 . S
C1701 C1700 1.367 . S
C1701 C1709 1.433 . S
C1702 H1698 0.929 . S
C1702 C1704 1.378 . S
C1702 C1706 1.350 . S
C1703 C1706 1.463 . S
C1703 C1708 1.350 . S
C1703 N1711 1.427 . S
C1704 H1695 0.930 . S
C1704 C1702 1.378 . S
C1704 C1705 1.367 . S
C1705 C1704 1.367 . S
C1705 C1707 1.433 . S
C1706 C1702 1.350 . S
C1706 C1703 1.463 . S
C1706 N1710 1.427 . S
C1707 H1697 0.929 . S
C1707 C1705 1.433 . S
C1707 N1710 1.384 . S
C1708 H1699 0.929 . S
C1708 C1700 1.378 . S
C1708 C1703 1.350 . S
C1709 H1696 0.929 . S
C1709 C1701 1.433 . S
C1709 N1711 1.384 . S
N1710 C1706 1.427 . S
N1710 C1707 1.384 . S
N1711 C1703 1.427 . S
N1711 C1709 1.384 . S
H1712 C1718 0.930 . S
H1713 C1722 0.930 . S
H1714 C1727 0.929 . S
H1715 C1725 0.929 . S
H1716 C1720 0.929 . S
H1717 C1726 0.929 . S
C1718 H1712 0.930 . S
C1718 C1719 1.367 . S
C1718 C1726 1.378 . S
C1719 C1718 1.367 . S
C1719 C1727 1.433 . S
C1720 H1716 0.929 . S
C1720 C1722 1.378 . S
C1720 C1724 1.350 . S
C1721 C1724 1.463 . S
C1721 C1726 1.350 . S
C1721 N1729 1.427 . S
C1722 H1713 0.930 . S
C1722 C1720 1.378 . S
C1722 C1723 1.367 . S
C1723 C1722 1.367 . S
C1723 C1725 1.433 . S
C1724 C1720 1.350 . S
C1724 C1721 1.463 . S
C1724 N1728 1.427 . S
C1725 H1715 0.929 . S
C1725 C1723 1.433 . S
C1725 N1728 1.384 . S
C1726 H1717 0.929 . S
C1726 C1718 1.378 . S
C1726 C1721 1.350 . S
C1727 H1714 0.929 . S
C1727 C1719 1.433 . S
C1727 N1729 1.384 . S
N1728 C1724 1.427 . S
N1728 C1725 1.384 . S
N1729 C1721 1.427 . S
N1729 C1727 1.384 . S
H1730 C1736 0.930 . S
H1731 C1740 0.930 . S
H1732 C1745 0.929 . S
H1733 C1743 0.929 . S
H1734 C1738 0.929 . S
H1735 C1744 0.929 . S
C1736 H1730 0.930 . S
C1736 C1737 1.367 . S
C1736 C1744 1.378 . S
C1737 C1736 1.367 . S
C1737 C1745 1.433 . S
C1738 H1734 0.929 . S
C1738 C1740 1.378 . S
C1738 C1742 1.350 . S
C1739 C1742 1.463 . S
C1739 C1744 1.350 . S
C1739 N1747 1.427 . S
C1740 H1731 0.930 . S
C1740 C1738 1.378 . S
C1740 C1741 1.367 . S
C1741 C1740 1.367 . S
C1741 C1743 1.433 . S
C1742 C1738 1.350 . S
C1742 C1739 1.463 . S
C1742 N1746 1.427 . S
C1743 H1733 0.929 . S
C1743 C1741 1.433 . S
C1743 N1746 1.384 . S
C1744 H1735 0.929 . S
C1744 C1736 1.378 . S
C1744 C1739 1.350 . S
C1745 H1732 0.929 . S
C1745 C1737 1.433 . S
C1745 N1747 1.384 . S
N1746 C1742 1.427 . S
N1746 C1743 1.384 . S
N1747 C1739 1.427 . S
N1747 C1745 1.384 . S
H1748 C1754 0.930 . S
H1749 C1758 0.930 . S
H1750 C1763 0.929 . S
H1751 C1761 0.929 . S
H1752 C1756 0.929 . S
H1753 C1762 0.929 . S
C1754 H1748 0.930 . S
C1754 C1755 1.367 . S
C1754 C1762 1.378 . S
C1755 C1754 1.367 . S
C1755 C1763 1.433 . S
C1756 H1752 0.929 . S
C1756 C1758 1.378 . S
C1756 C1760 1.350 . S
C1757 C1760 1.463 . S
C1757 C1762 1.350 . S
C1757 N1765 1.427 . S
C1758 H1749 0.930 . S
C1758 C1756 1.378 . S
C1758 C1759 1.367 . S
C1759 C1758 1.367 . S
C1759 C1761 1.433 . S
C1760 C1756 1.350 . S
C1760 C1757 1.463 . S
C1760 N1764 1.427 . S
C1761 H1751 0.929 . S
C1761 C1759 1.433 . S
C1761 N1764 1.384 . S
C1762 H1753 0.929 . S
C1762 C1754 1.378 . S
C1762 C1757 1.350 . S
C1763 H1750 0.929 . S
C1763 C1755 1.433 . S
C1763 N1765 1.384 . S
N1764 C1760 1.427 . S
N1764 C1761 1.384 . S
N1765 C1757 1.427 . S
N1765 C1763 1.384 . S
H1766 C1772 0.930 . S
H1767 C1776 0.930 . S
H1768 C1781 0.929 . S
H1769 C1779 0.929 . S
H1770 C1774 0.929 . S
H1771 C1780 0.929 . S
C1772 H1766 0.930 . S
C1772 C1773 1.367 . S
C1772 C1780 1.378 . S
C1773 C1772 1.367 . S
C1773 C1781 1.433 . S
C1774 H1770 0.929 . S
C1774 C1776 1.378 . S
C1774 C1778 1.350 . S
C1775 C1778 1.463 . S
C1775 C1780 1.350 . S
C1775 N1783 1.427 . S
C1776 H1767 0.930 . S
C1776 C1774 1.378 . S
C1776 C1777 1.367 . S
C1777 C1776 1.367 . S
C1777 C1779 1.433 . S
C1778 C1774 1.350 . S
C1778 C1775 1.463 . S
C1778 N1782 1.427 . S
C1779 H1769 0.929 . S
C1779 C1777 1.433 . S
C1779 N1782 1.384 . S
C1780 H1771 0.929 . S
C1780 C1772 1.378 . S
C1780 C1775 1.350 . S
C1781 H1768 0.929 . S
C1781 C1773 1.433 . S
C1781 N1783 1.384 . S
N1782 C1778 1.427 . S
N1782 C1779 1.384 . S
N1783 C1775 1.427 . S
N1783 C1781 1.384 . S
H1784 C1790 0.930 . S
H1785 C1794 0.930 . S
H1786 C1799 0.929 . S
H1787 C1797 0.929 . S
H1788 C1792 0.929 . S
H1789 C1798 0.929 . S
C1790 H1784 0.930 . S
C1790 C1791 1.367 . S
C1790 C1798 1.378 . S
C1791 C1790 1.367 . S
C1791 C1799 1.433 . S
C1792 H1788 0.929 . S
C1792 C1794 1.378 . S
C1792 C1796 1.350 . S
C1793 C1796 1.463 . S
C1793 C1798 1.350 . S
C1793 N1801 1.427 . S
C1794 H1785 0.930 . S
C1794 C1792 1.378 . S
C1794 C1795 1.367 . S
C1795 C1794 1.367 . S
C1795 C1797 1.433 . S
C1796 C1792 1.350 . S
C1796 C1793 1.463 . S
C1796 N1800 1.427 . S
C1797 H1787 0.929 . S
C1797 C1795 1.433 . S
C1797 N1800 1.384 . S
C1798 H1789 0.929 . S
C1798 C1790 1.378 . S
C1798 C1793 1.350 . S
C1799 H1786 0.929 . S
C1799 C1791 1.433 . S
C1799 N1801 1.384 . S
N1800 C1796 1.427 . S
N1800 C1797 1.384 . S
N1801 C1793 1.427 . S
N1801 C1799 1.384 . S
H1802 C1808 0.930 . S
H1803 C1812 0.930 . S
H1804 C1817 0.929 . S
H1805 C1815 0.929 . S
H1806 C1810 0.929 . S
H1807 C1816 0.929 . S
C1808 H1802 0.930 . S
C1808 C1809 1.367 . S
C1808 C1816 1.378 . S
C1809 C1808 1.367 . S
C1809 C1817 1.433 . S
C1810 H1806 0.929 . S
C1810 C1812 1.378 . S
C1810 C1814 1.350 . S
C1811 C1814 1.463 . S
C1811 C1816 1.350 . S
C1811 N1819 1.427 . S
C1812 H1803 0.930 . S
C1812 C1810 1.378 . S
C1812 C1813 1.367 . S
C1813 C1812 1.367 . S
C1813 C1815 1.433 . S
C1814 C1810 1.350 . S
C1814 C1811 1.463 . S
C1814 N1818 1.427 . S
C1815 H1805 0.929 . S
C1815 C1813 1.433 . S
C1815 N1818 1.384 . S
C1816 H1807 0.929 . S
C1816 C1808 1.378 . S
C1816 C1811 1.350 . S
C1817 H1804 0.929 . S
C1817 C1809 1.433 . S
C1817 N1819 1.384 . S
N1818 C1814 1.427 . S
N1818 C1815 1.384 . S
N1819 C1811 1.427 . S
N1819 C1817 1.384 . S
H1820 C1826 0.930 . S
H1821 C1830 0.930 . S
H1822 C1835 0.929 . S
H1823 C1833 0.929 . S
H1824 C1828 0.929 . S
H1825 C1834 0.929 . S
C1826 H1820 0.930 . S
C1826 C1827 1.367 . S
C1826 C1834 1.378 . S
C1827 C1826 1.367 . S
C1827 C1835 1.433 . S
C1828 H1824 0.929 . S
C1828 C1830 1.378 . S
C1828 C1832 1.350 . S
C1829 C1832 1.463 . S
C1829 C1834 1.350 . S
C1829 N1837 1.427 . S
C1830 H1821 0.930 . S
C1830 C1828 1.378 . S
C1830 C1831 1.367 . S
C1831 C1830 1.367 . S
C1831 C1833 1.433 . S
C1832 C1828 1.350 . S
C1832 C1829 1.463 . S
C1832 N1836 1.427 . S
C1833 H1823 0.929 . S
C1833 C1831 1.433 . S
C1833 N1836 1.384 . S
C1834 H1825 0.929 . S
C1834 C1826 1.378 . S
C1834 C1829 1.350 . S
C1835 H1822 0.929 . S
C1835 C1827 1.433 . S
C1835 N1837 1.384 . S
N1836 C1832 1.427 . S
N1836 C1833 1.384 . S
N1837 C1829 1.427 . S
N1837 C1835 1.384 . S
H1838 C1844 0.930 . S
H1839 C1848 0.930 . S
H1840 C1853 0.929 . S
H1841 C1851 0.929 . S
H1842 C1846 0.929 . S
H1843 C1852 0.929 . S
C1844 H1838 0.930 . S
C1844 C1845 1.367 . S
C1844 C1852 1.378 . S
C1845 C1844 1.367 . S
C1845 C1853 1.433 . S
C1846 H1842 0.929 . S
C1846 C1848 1.378 . S
C1846 C1850 1.350 . S
C1847 C1850 1.463 . S
C1847 C1852 1.350 . S
C1847 N1855 1.427 . S
C1848 H1839 0.930 . S
C1848 C1846 1.378 . S
C1848 C1849 1.367 . S
C1849 C1848 1.367 . S
C1849 C1851 1.433 . S
C1850 C1846 1.350 . S
C1850 C1847 1.463 . S
C1850 N1854 1.427 . S
C1851 H1841 0.929 . S
C1851 C1849 1.433 . S
C1851 N1854 1.384 . S
C1852 H1843 0.929 . S
C1852 C1844 1.378 . S
C1852 C1847 1.350 . S
C1853 H1840 0.929 . S
C1853 C1845 1.433 . S
C1853 N1855 1.384 . S
N1854 C1850 1.427 . S
N1854 C1851 1.384 . S
N1855 C1847 1.427 . S
N1855 C1853 1.384 . S
H1856 C1862 0.930 . S
H1857 C1866 0.930 . S
H1858 C1871 0.929 . S
H1859 C1869 0.929 . S
H1860 C1864 0.929 . S
H1861 C1870 0.929 . S
C1862 H1856 0.930 . S
C1862 C1863 1.367 . S
C1862 C1870 1.378 . S
C1863 C1862 1.367 . S
C1863 C1871 1.433 . S
C1864 H1860 0.929 . S
C1864 C1866 1.378 . S
C1864 C1868 1.350 . S
C1865 C1868 1.463 1_455 S
C1865 C1870 1.350 . S
C1865 N1873 1.427 . S
C1866 H1857 0.930 . S
C1866 C1864 1.378 . S
C1866 C1867 1.367 . S
C1867 C1866 1.367 . S
C1867 C1869 1.433 . S
C1868 C1864 1.350 . S
C1868 C1865 1.463 1_655 S
C1868 N1872 1.427 . S
C1869 H1859 0.929 . S
C1869 C1867 1.433 . S
C1869 N1872 1.384 . S
C1870 H1861 0.929 . S
C1870 C1862 1.378 . S
C1870 C1865 1.350 . S
C1871 H1858 0.929 . S
C1871 C1863 1.433 . S
C1871 N1873 1.384 . S
N1872 C1868 1.427 . S
N1872 C1869 1.384 . S
N1873 C1865 1.427 . S
N1873 C1871 1.384 . S
H1874 C1880 0.929 1_455 S
H1875 C1884 0.929 1_655 S
H1876 C1889 0.929 . S
H1877 C1887 0.929 . S
H1878 C1882 0.929 . S
H1879 C1888 0.929 . S
C1880 H1874 0.929 1_655 S
C1880 C1881 1.367 . S
C1880 C1888 1.378 1_655 S
C1881 C1880 1.367 . S
C1881 C1889 1.433 . S
C1882 H1878 0.929 . S
C1882 C1884 1.378 1_655 S
C1882 C1886 1.350 1_655 S
C1883 C1886 1.463 1_655 S
C1883 C1888 1.350 1_655 S
C1883 N1891 1.427 . S
C1884 H1875 0.929 1_455 S
C1884 C1882 1.378 1_455 S
C1884 C1885 1.367 . S
C1885 C1884 1.367 . S
C1885 C1887 1.433 . S
C1886 C1882 1.350 1_455 S
C1886 C1883 1.463 1_455 S
C1886 N1890 1.427 . S
C1887 H1877 0.929 . S
C1887 C1885 1.433 . S
C1887 N1890 1.384 . S
C1888 H1879 0.929 . S
C1888 C1880 1.378 1_455 S
C1888 C1883 1.350 1_455 S
C1889 H1876 0.929 . S
C1889 C1881 1.433 . S
C1889 N1891 1.384 . S
N1890 C1886 1.427 . S
N1890 C1887 1.384 . S
N1891 C1883 1.427 . S
N1891 C1889 1.384 . S
H1892 C1898 0.930 . S
H1893 C1902 0.930 . S
H1894 C1907 0.929 . S
H1895 C1905 0.929 . S
H1896 C1900 0.929 . S
H1897 C1906 0.929 . S
C1898 H1892 0.930 . S
C1898 C1899 1.367 . S
C1898 C1906 1.378 . S
C1899 C1898 1.367 . S
C1899 C1907 1.433 . S
C1900 H1896 0.929 . S
C1900 C1902 1.378 . S
C1900 C1904 1.350 . S
C1901 C1904 1.463 . S
C1901 C1906 1.350 . S
C1901 N1909 1.427 . S
C1902 H1893 0.930 . S
C1902 C1900 1.378 . S
C1902 C1903 1.367 . S
C1903 C1902 1.367 . S
C1903 C1905 1.433 . S
C1904 C1900 1.350 . S
C1904 C1901 1.463 . S
C1904 N1908 1.427 . S
C1905 H1895 0.929 . S
C1905 C1903 1.433 . S
C1905 N1908 1.384 . S
C1906 H1897 0.929 . S
C1906 C1898 1.378 . S
C1906 C1901 1.350 . S
C1907 H1894 0.929 . S
C1907 C1899 1.433 . S
C1907 N1909 1.384 . S
N1908 C1904 1.427 . S
N1908 C1905 1.384 . S
N1909 C1901 1.427 . S
N1909 C1907 1.384 . S
H1910 C1916 0.930 . S
H1911 C1920 0.930 . S
H1912 C1925 0.929 . S
H1913 C1923 0.929 . S
H1914 C1918 0.929 . S
H1915 C1924 0.929 . S
C1916 H1910 0.930 . S
C1916 C1917 1.367 . S
C1916 C1924 1.378 . S
C1917 C1916 1.367 . S
C1917 C1925 1.433 . S
C1918 H1914 0.929 . S
C1918 C1920 1.378 . S
C1918 C1922 1.350 . S
C1919 C1922 1.463 . S
C1919 C1924 1.350 . S
C1919 N1927 1.427 . S
C1920 H1911 0.930 . S
C1920 C1918 1.378 . S
C1920 C1921 1.367 . S
C1921 C1920 1.367 . S
C1921 C1923 1.433 . S
C1922 C1918 1.350 . S
C1922 C1919 1.463 . S
C1922 N1926 1.427 . S
C1923 H1913 0.929 . S
C1923 C1921 1.433 . S
C1923 N1926 1.384 . S
C1924 H1915 0.929 . S
C1924 C1916 1.378 . S
C1924 C1919 1.350 . S
C1925 H1912 0.929 . S
C1925 C1917 1.433 . S
C1925 N1927 1.384 . S
N1926 C1922 1.427 . S
N1926 C1923 1.384 . S
N1927 C1919 1.427 . S
N1927 C1925 1.384 . S
H1928 C1934 0.930 . S
H1929 C1938 0.930 . S
H1930 C1943 0.929 . S
H1931 C1941 0.929 . S
H1932 C1936 0.929 . S
H1933 C1942 0.929 . S
C1934 H1928 0.930 . S
C1934 C1935 1.367 . S
C1934 C1942 1.378 . S
C1935 C1934 1.367 . S
C1935 C1943 1.433 . S
C1936 H1932 0.929 . S
C1936 C1938 1.378 . S
C1936 C1940 1.350 . S
C1937 C1940 1.463 1_655 S
C1937 C1942 1.350 . S
C1937 N1945 1.427 . S
C1938 H1929 0.930 . S
C1938 C1936 1.378 . S
C1938 C1939 1.367 . S
C1939 C1938 1.367 . S
C1939 C1941 1.433 . S
C1940 C1936 1.350 . S
C1940 C1937 1.463 1_455 S
C1940 N1944 1.427 . S
C1941 H1931 0.929 . S
C1941 C1939 1.433 . S
C1941 N1944 1.384 . S
C1942 H1933 0.929 . S
C1942 C1934 1.378 . S
C1942 C1937 1.350 . S
C1943 H1930 0.929 . S
C1943 C1935 1.433 . S
C1943 N1945 1.384 . S
N1944 C1940 1.427 . S
N1944 C1941 1.384 . S
N1945 C1937 1.427 . S
N1945 C1943 1.384 . S
H1946 C1952 0.930 . S
H1947 C1956 0.930 . S
H1948 C1961 0.929 . S
H1949 C1959 0.929 . S
H1950 C1954 0.929 . S
H1951 C1960 0.929 . S
C1952 H1946 0.930 . S
C1952 C1953 1.367 . S
C1952 C1960 1.378 . S
C1953 C1952 1.367 . S
C1953 C1961 1.433 . S
C1954 H1950 0.929 . S
C1954 C1956 1.378 . S
C1954 C1958 1.350 . S
C1955 C1958 1.463 . S
C1955 C1960 1.350 . S
C1955 N1963 1.427 . S
C1956 H1947 0.930 . S
C1956 C1954 1.378 . S
C1956 C1957 1.367 . S
C1957 C1956 1.367 . S
C1957 C1959 1.433 . S
C1958 C1954 1.350 . S
C1958 C1955 1.463 . S
C1958 N1962 1.427 . S
C1959 H1949 0.929 . S
C1959 C1957 1.433 . S
C1959 N1962 1.384 . S
C1960 H1951 0.929 . S
C1960 C1952 1.378 . S
C1960 C1955 1.350 . S
C1961 H1948 0.929 . S
C1961 C1953 1.433 . S
C1961 N1963 1.384 . S
N1962 C1958 1.427 . S
N1962 C1959 1.384 . S
N1963 C1955 1.427 . S
N1963 C1961 1.384 . S
H1964 C1970 0.930 . S
H1965 C1974 0.930 . S
H1966 C1979 0.929 . S
H1967 C1977 0.929 . S
H1968 C1972 0.929 . S
H1969 C1978 0.929 . S
C1970 H1964 0.930 . S
C1970 C1971 1.367 . S
C1970 C1978 1.378 . S
C1971 C1970 1.367 . S
C1971 C1979 1.433 . S
C1972 H1968 0.929 . S
C1972 C1974 1.378 . S
C1972 C1976 1.350 . S
C1973 C1976 1.463 . S
C1973 C1978 1.350 . S
C1973 N1981 1.427 . S
C1974 H1965 0.930 . S
C1974 C1972 1.378 . S
C1974 C1975 1.367 . S
C1975 C1974 1.367 . S
C1975 C1977 1.433 . S
C1976 C1972 1.350 . S
C1976 C1973 1.463 . S
C1976 N1980 1.427 . S
C1977 H1967 0.929 . S
C1977 C1975 1.433 . S
C1977 N1980 1.384 . S
C1978 H1969 0.929 . S
C1978 C1970 1.378 . S
C1978 C1973 1.350 . S
C1979 H1966 0.929 . S
C1979 C1971 1.433 . S
C1979 N1981 1.384 . S
N1980 C1976 1.427 . S
N1980 C1977 1.384 . S
N1981 C1973 1.427 . S
N1981 C1979 1.384 . S
H1982 C1988 0.930 . S
H1983 C1992 0.930 . S
H1984 C1997 0.929 . S
H1985 C1995 0.929 . S
H1986 C1990 0.929 . S
H1987 C1996 0.929 . S
C1988 H1982 0.930 . S
C1988 C1989 1.367 . S
C1988 C1996 1.378 . S
C1989 C1988 1.367 . S
C1989 C1997 1.433 1_455 S
C1990 H1986 0.929 . S
C1990 C1992 1.378 . S
C1990 C1994 1.350 . S
C1991 C1994 1.463 1_455 S
C1991 C1996 1.350 . S
C1991 N1999 1.427 1_455 S
C1992 H1983 0.930 . S
C1992 C1990 1.378 . S
C1992 C1993 1.367 . S
C1993 C1992 1.367 . S
C1993 C1995 1.433 1_655 S
C1994 C1990 1.350 . S
C1994 C1991 1.463 1_655 S
C1994 N1998 1.427 1_655 S
C1995 H1985 0.929 . S
C1995 C1993 1.433 1_455 S
C1995 N1998 1.384 . S
C1996 H1987 0.929 . S
C1996 C1988 1.378 . S
C1996 C1991 1.350 . S
C1997 H1984 0.929 . S
C1997 C1989 1.433 1_655 S
C1997 N1999 1.384 . S
N1998 C1994 1.427 1_455 S
N1998 C1995 1.384 . S
N1999 C1991 1.427 1_655 S
N1999 C1997 1.384 . S
H2000 C2006 0.930 . S
H2001 C2010 0.930 . S
H2002 C2015 0.929 . S
H2003 C2013 0.929 . S
H2004 C2008 0.929 . S
H2005 C2014 0.929 . S
C2006 H2000 0.930 . S
C2006 C2007 1.367 . S
C2006 C2014 1.378 . S
C2007 C2006 1.367 . S
C2007 C2015 1.433 . S
C2008 H2004 0.929 . S
C2008 C2010 1.378 . S
C2008 C2012 1.350 . S
C2009 C2012 1.463 1_455 S
C2009 C2014 1.350 . S
C2009 N2017 1.427 . S
C2010 H2001 0.930 . S
C2010 C2008 1.378 . S
C2010 C2011 1.367 . S
C2011 C2010 1.367 . S
C2011 C2013 1.433 . S
C2012 C2008 1.350 . S
C2012 C2009 1.463 1_655 S
C2012 N2016 1.427 . S
C2013 H2003 0.929 . S
C2013 C2011 1.433 . S
C2013 N2016 1.384 . S
C2014 H2005 0.929 . S
C2014 C2006 1.378 . S
C2014 C2009 1.350 . S
C2015 H2002 0.929 . S
C2015 C2007 1.433 . S
C2015 N2017 1.384 . S
N2016 C2012 1.427 . S
N2016 C2013 1.384 . S
N2017 C2009 1.427 . S
N2017 C2015 1.384 . S
H2018 C2024 0.930 . S
H2019 C2028 0.930 . S
H2020 C2033 0.929 . S
H2021 C2031 0.929 . S
H2022 C2026 0.929 . S
H2023 C2032 0.929 . S
C2024 H2018 0.930 . S
C2024 C2025 1.367 . S
C2024 C2032 1.378 . S
C2025 C2024 1.367 . S
C2025 C2033 1.433 1_655 S
C2026 H2022 0.929 . S
C2026 C2028 1.378 . S
C2026 C2030 1.350 . S
C2027 C2030 1.463 1_655 S
C2027 C2032 1.350 . S
C2027 N2035 1.427 1_655 S
C2028 H2019 0.930 . S
C2028 C2026 1.378 . S
C2028 C2029 1.367 . S
C2029 C2028 1.367 . S
C2029 C2031 1.433 1_455 S
C2030 C2026 1.350 . S
C2030 C2027 1.463 1_455 S
C2030 N2034 1.427 1_455 S
C2031 H2021 0.929 . S
C2031 C2029 1.433 1_655 S
C2031 N2034 1.384 . S
C2032 H2023 0.929 . S
C2032 C2024 1.378 . S
C2032 C2027 1.350 . S
C2033 H2020 0.929 . S
C2033 C2025 1.433 1_455 S
C2033 N2035 1.384 . S
N2034 C2030 1.427 1_655 S
N2034 C2031 1.384 . S
N2035 C2027 1.427 1_455 S
N2035 C2033 1.384 . S
H2036 C2042 0.930 . S
H2037 C2046 0.930 . S
H2038 C2051 0.929 . S
H2039 C2049 0.929 . S
H2040 C2044 0.929 . S
H2041 C2050 0.929 . S
C2042 H2036 0.930 . S
C2042 C2043 1.367 . S
C2042 C2050 1.378 . S
C2043 C2042 1.367 . S
C2043 C2051 1.433 . S
C2044 H2040 0.929 . S
C2044 C2046 1.378 . S
C2044 C2048 1.350 . S
C2045 C2048 1.463 . S
C2045 C2050 1.350 . S
C2045 N2053 1.427 . S
C2046 H2037 0.930 . S
C2046 C2044 1.378 . S
C2046 C2047 1.367 . S
C2047 C2046 1.367 . S
C2047 C2049 1.433 . S
C2048 C2044 1.350 . S
C2048 C2045 1.463 . S
C2048 N2052 1.427 . S
C2049 H2039 0.929 . S
C2049 C2047 1.433 . S
C2049 N2052 1.384 . S
C2050 H2041 0.929 . S
C2050 C2042 1.378 . S
C2050 C2045 1.350 . S
C2051 H2038 0.929 . S
C2051 C2043 1.433 . S
C2051 N2053 1.384 . S
N2052 C2048 1.427 . S
N2052 C2049 1.384 . S
N2053 C2045 1.427 . S
N2053 C2051 1.384 . S
H2054 C2060 0.930 . S
H2055 C2064 0.930 . S
H2056 C2069 0.929 . S
H2057 C2067 0.929 . S
H2058 C2062 0.929 . S
H2059 C2068 0.929 . S
C2060 H2054 0.930 . S
C2060 C2061 1.367 . S
C2060 C2068 1.378 . S
C2061 C2060 1.367 . S
C2061 C2069 1.433 . S
C2062 H2058 0.929 . S
C2062 C2064 1.378 . S
C2062 C2066 1.350 . S
C2063 C2066 1.463 . S
C2063 C2068 1.350 . S
C2063 N2071 1.427 . S
C2064 H2055 0.930 . S
C2064 C2062 1.378 . S
C2064 C2065 1.367 . S
C2065 C2064 1.367 . S
C2065 C2067 1.433 . S
C2066 C2062 1.350 . S
C2066 C2063 1.463 . S
C2066 N2070 1.427 . S
C2067 H2057 0.929 . S
C2067 C2065 1.433 . S
C2067 N2070 1.384 . S
C2068 H2059 0.929 . S
C2068 C2060 1.378 . S
C2068 C2063 1.350 . S
C2069 H2056 0.929 . S
C2069 C2061 1.433 . S
C2069 N2071 1.384 . S
N2070 C2066 1.427 . S
N2070 C2067 1.384 . S
N2071 C2063 1.427 . S
N2071 C2069 1.384 . S
H2072 C2078 0.930 . S
H2073 C2082 0.930 . S
H2074 C2087 0.929 . S
H2075 C2085 0.929 . S
H2076 C2080 0.929 . S
H2077 C2086 0.929 . S
C2078 H2072 0.930 . S
C2078 C2079 1.367 . S
C2078 C2086 1.378 . S
C2079 C2078 1.367 . S
C2079 C2087 1.433 . S
C2080 H2076 0.929 . S
C2080 C2082 1.378 . S
C2080 C2084 1.350 . S
C2081 C2084 1.463 1_455 S
C2081 C2086 1.350 . S
C2081 N2089 1.427 . S
C2082 H2073 0.930 . S
C2082 C2080 1.378 . S
C2082 C2083 1.367 . S
C2083 C2082 1.367 . S
C2083 C2085 1.433 . S
C2084 C2080 1.350 . S
C2084 C2081 1.463 1_655 S
C2084 N2088 1.427 . S
C2085 H2075 0.929 . S
C2085 C2083 1.433 . S
C2085 N2088 1.384 . S
C2086 H2077 0.929 . S
C2086 C2078 1.378 . S
C2086 C2081 1.350 . S
C2087 H2074 0.929 . S
C2087 C2079 1.433 . S
C2087 N2089 1.384 . S
N2088 C2084 1.427 . S
N2088 C2085 1.384 . S
N2089 C2081 1.427 . S
N2089 C2087 1.384 . S
H2090 C2096 0.930 . S
H2091 C2100 0.930 . S
H2092 C2105 0.929 . S
H2093 C2103 0.929 . S
H2094 C2098 0.929 . S
H2095 C2104 0.929 . S
C2096 H2090 0.930 . S
C2096 C2097 1.367 . S
C2096 C2104 1.378 . S
C2097 C2096 1.367 . S
C2097 C2105 1.433 . S
C2098 H2094 0.929 . S
C2098 C2100 1.378 . S
C2098 C2102 1.350 . S
C2099 C2102 1.463 . S
C2099 C2104 1.350 . S
C2099 N2107 1.427 . S
C2100 H2091 0.930 . S
C2100 C2098 1.378 . S
C2100 C2101 1.367 . S
C2101 C2100 1.367 . S
C2101 C2103 1.433 . S
C2102 C2098 1.350 . S
C2102 C2099 1.463 . S
C2102 N2106 1.427 . S
C2103 H2093 0.929 . S
C2103 C2101 1.433 . S
C2103 N2106 1.384 . S
C2104 H2095 0.929 . S
C2104 C2096 1.378 . S
C2104 C2099 1.350 . S
C2105 H2092 0.929 . S
C2105 C2097 1.433 . S
C2105 N2107 1.384 . S
N2106 C2102 1.427 . S
N2106 C2103 1.384 . S
N2107 C2099 1.427 . S
N2107 C2105 1.384 . S
H2108 C2114 0.930 . S
H2109 C2118 0.930 . S
H2110 C2123 0.929 . S
H2111 C2121 0.929 . S
H2112 C2116 0.929 . S
H2113 C2122 0.929 . S
C2114 H2108 0.930 . S
C2114 C2115 1.367 . S
C2114 C2122 1.378 . S
C2115 C2114 1.367 . S
C2115 C2123 1.433 . S
C2116 H2112 0.929 . S
C2116 C2118 1.378 . S
C2116 C2120 1.350 . S
C2117 C2120 1.463 . S
C2117 C2122 1.350 . S
C2117 N2125 1.427 . S
C2118 H2109 0.930 . S
C2118 C2116 1.378 . S
C2118 C2119 1.367 . S
C2119 C2118 1.367 . S
C2119 C2121 1.433 . S
C2120 C2116 1.350 . S
C2120 C2117 1.463 . S
C2120 N2124 1.427 . S
C2121 H2111 0.929 . S
C2121 C2119 1.433 . S
C2121 N2124 1.384 . S
C2122 H2113 0.929 . S
C2122 C2114 1.378 . S
C2122 C2117 1.350 . S
C2123 H2110 0.929 . S
C2123 C2115 1.433 . S
C2123 N2125 1.384 . S
N2124 C2120 1.427 . S
N2124 C2121 1.384 . S
N2125 C2117 1.427 . S
N2125 C2123 1.384 . S
H2126 C2132 0.930 . S
H2127 C2136 0.930 . S
H2128 C2141 0.929 . S
H2129 C2139 0.929 . S
H2130 C2134 0.929 . S
H2131 C2140 0.929 . S
C2132 H2126 0.930 . S
C2132 C2133 1.367 1_455 S
C2132 C2140 1.378 . S
C2133 C2132 1.367 1_655 S
C2133 C2141 1.433 . S
C2134 H2130 0.929 . S
C2134 C2136 1.378 . S
C2134 C2138 1.330 1_655 S
C2135 C2138 1.461 1_655 S
C2135 C2140 1.330 1_655 S
C2135 N2143 1.451 . S
C2136 H2127 0.930 . S
C2136 C2134 1.378 . S
C2136 C2137 1.367 1_655 S
C2137 C2136 1.367 1_455 S
C2137 C2139 1.433 . S
C2138 C2134 1.330 1_455 S
C2138 C2135 1.461 1_455 S
C2138 N2142 1.451 . S
C2139 H2129 0.929 . S
C2139 C2137 1.433 . S
C2139 N2142 1.384 . S
C2140 H2131 0.929 . S
C2140 C2132 1.378 . S
C2140 C2135 1.330 1_455 S
C2141 H2128 0.929 . S
C2141 C2133 1.433 . S
C2141 N2143 1.384 . S
N2142 C2138 1.451 . S
N2142 C2139 1.384 . S
N2143 C2135 1.451 . S
N2143 C2141 1.384 . S
H2144 C2150 0.930 . S
H2145 C2154 0.930 . S
H2146 C2159 0.929 . S
H2147 C2157 0.929 . S
H2148 C2152 0.929 . S
H2149 C2158 0.929 . S
C2150 H2144 0.930 . S
C2150 C2151 1.367 . S
C2150 C2158 1.378 . S
C2151 C2150 1.367 . S
C2151 C2159 1.433 . S
C2152 H2148 0.929 . S
C2152 C2154 1.378 . S
C2152 C2156 1.350 . S
C2153 C2156 1.463 . S
C2153 C2158 1.350 . S
C2153 N2161 1.427 . S
C2154 H2145 0.930 . S
C2154 C2152 1.378 . S
C2154 C2155 1.367 . S
C2155 C2154 1.367 . S
C2155 C2157 1.433 . S
C2156 C2152 1.350 . S
C2156 C2153 1.463 . S
C2156 N2160 1.427 . S
C2157 H2147 0.929 . S
C2157 C2155 1.433 . S
C2157 N2160 1.384 . S
C2158 H2149 0.929 . S
C2158 C2150 1.378 . S
C2158 C2153 1.350 . S
C2159 H2146 0.929 . S
C2159 C2151 1.433 . S
C2159 N2161 1.384 . S
N2160 C2156 1.427 . S
N2160 C2157 1.384 . S
N2161 C2153 1.427 . S
N2161 C2159 1.384 . S
H2162 C2168 0.930 . S
H2163 C2172 0.930 . S
H2164 C2177 0.929 . S
H2165 C2175 0.929 . S
H2166 C2170 0.929 . S
H2167 C2176 0.929 . S
C2168 H2162 0.930 . S
C2168 C2169 1.367 1_565 S
C2168 C2176 1.378 . S
C2169 C2168 1.367 1_545 S
C2169 C2177 1.433 1_655 S
C2170 H2166 0.929 . S
C2170 C2172 1.378 . S
C2170 C2174 1.350 1_545 S
C2171 C2174 1.463 1_645 S
C2171 C2176 1.350 1_545 S
C2171 N2179 1.427 1_655 S
C2172 H2163 0.930 . S
C2172 C2170 1.378 . S
C2172 C2173 1.367 1_545 S
C2173 C2172 1.367 1_565 S
C2173 C2175 1.433 1_455 S
C2174 C2170 1.350 1_565 S
C2174 C2171 1.463 1_465 S
C2174 N2178 1.427 1_455 S
C2175 H2165 0.929 . S
C2175 C2173 1.433 1_655 S
C2175 N2178 1.384 . S
C2176 H2167 0.929 . S
C2176 C2168 1.378 . S
C2176 C2171 1.350 1_565 S
C2177 H2164 0.929 . S
C2177 C2169 1.433 1_455 S
C2177 N2179 1.384 . S
N2178 C2174 1.427 1_655 S
N2178 C2175 1.384 . S
N2179 C2171 1.427 1_455 S
N2179 C2177 1.384 . S
H2180 C2186 0.930 . S
H2181 C2190 0.930 . S
H2182 C2195 0.929 . S
H2183 C2193 0.929 . S
H2184 C2188 0.929 . S
H2185 C2194 0.929 . S
C2186 H2180 0.930 . S
C2186 C2187 1.367 . S
C2186 C2194 1.378 . S
C2187 C2186 1.367 . S
C2187 C2195 1.433 . S
C2188 H2184 0.929 . S
C2188 C2190 1.378 . S
C2188 C2192 1.350 . S
C2189 C2192 1.463 . S
C2189 C2194 1.350 . S
C2189 N2197 1.427 . S
C2190 H2181 0.930 . S
C2190 C2188 1.378 . S
C2190 C2191 1.367 . S
C2191 C2190 1.367 . S
C2191 C2193 1.433 . S
C2192 C2188 1.350 . S
C2192 C2189 1.463 . S
C2192 N2196 1.427 . S
C2193 H2183 0.929 . S
C2193 C2191 1.433 . S
C2193 N2196 1.384 . S
C2194 H2185 0.929 . S
C2194 C2186 1.378 . S
C2194 C2189 1.350 . S
C2195 H2182 0.929 . S
C2195 C2187 1.433 . S
C2195 N2197 1.384 . S
N2196 C2192 1.427 . S
N2196 C2193 1.384 . S
N2197 C2189 1.427 . S
N2197 C2195 1.384 . S
H2198 C2204 0.930 . S
H2199 C2208 0.930 . S
H2200 C2213 0.929 . S
H2201 C2211 0.929 . S
H2202 C2206 0.929 . S
H2203 C2212 0.929 . S
C2204 H2198 0.930 . S
C2204 C2205 1.367 1_565 S
C2204 C2212 1.378 . S
C2205 C2204 1.367 1_545 S
C2205 C2213 1.433 . S
C2206 H2202 0.929 . S
C2206 C2208 1.378 . S
C2206 C2210 1.337 1_545 S
C2207 C2210 1.462 1_544 S
C2207 C2212 1.337 1_545 S
C2207 N2215 1.442 . S
C2208 H2199 0.930 . S
C2208 C2206 1.378 . S
C2208 C2209 1.367 1_545 S
C2209 C2208 1.367 1_565 S
C2209 C2211 1.433 . S
C2210 C2206 1.337 1_565 S
C2210 C2207 1.462 1_566 S
C2210 N2214 1.442 . S
C2211 H2201 0.929 . S
C2211 C2209 1.433 . S
C2211 N2214 1.384 . S
C2212 H2203 0.929 . S
C2212 C2204 1.378 . S
C2212 C2207 1.337 1_565 S
C2213 H2200 0.929 . S
C2213 C2205 1.433 . S
C2213 N2215 1.384 . S
N2214 C2210 1.442 . S
N2214 C2211 1.384 . S
N2215 C2207 1.442 . S
N2215 C2213 1.384 . S
H2216 C2222 0.930 . S
H2217 C2226 0.930 . S
H2218 C2231 0.929 . S
H2219 C2229 0.929 . S
H2220 C2224 0.929 . S
H2221 C2230 0.929 . S
C2222 H2216 0.930 . S
C2222 C2223 1.367 . S
C2222 C2230 1.378 . S
C2223 C2222 1.367 . S
C2223 C2231 1.433 . S
C2224 H2220 0.929 . S
C2224 C2226 1.378 . S
C2224 C2228 1.350 . S
C2225 C2228 1.463 . S
C2225 C2230 1.350 . S
C2225 N2233 1.427 . S
C2226 H2217 0.930 . S
C2226 C2224 1.378 . S
C2226 C2227 1.367 . S
C2227 C2226 1.367 . S
C2227 C2229 1.433 . S
C2228 C2224 1.350 . S
C2228 C2225 1.463 . S
C2228 N2232 1.427 . S
C2229 H2219 0.929 . S
C2229 C2227 1.433 . S
C2229 N2232 1.384 . S
C2230 H2221 0.929 . S
C2230 C2222 1.378 . S
C2230 C2225 1.350 . S
C2231 H2218 0.929 . S
C2231 C2223 1.433 . S
C2231 N2233 1.384 . S
N2232 C2228 1.427 . S
N2232 C2229 1.384 . S
N2233 C2225 1.427 . S
N2233 C2231 1.384 . S
H2234 C2240 0.930 . S
H2235 C2244 0.930 . S
H2236 C2249 0.929 . S
H2237 C2247 0.929 . S
H2238 C2242 0.929 . S
H2239 C2248 0.929 . S
C2240 H2234 0.930 . S
C2240 C2241 1.367 . S
C2240 C2248 1.378 . S
C2241 C2240 1.367 . S
C2241 C2249 1.433 1_545 S
C2242 H2238 0.929 . S
C2242 C2244 1.378 . S
C2242 C2246 1.350 . S
C2243 C2246 1.463 1_545 S
C2243 C2248 1.350 . S
C2243 N2251 1.427 1_545 S
C2244 H2235 0.930 . S
C2244 C2242 1.378 . S
C2244 C2245 1.367 . S
C2245 C2244 1.367 . S
C2245 C2247 1.433 1_565 S
C2246 C2242 1.350 . S
C2246 C2243 1.463 1_565 S
C2246 N2250 1.427 1_565 S
C2247 H2237 0.929 . S
C2247 C2245 1.433 1_545 S
C2247 N2250 1.384 . S
C2248 H2239 0.929 . S
C2248 C2240 1.378 . S
C2248 C2243 1.350 . S
C2249 H2236 0.929 . S
C2249 C2241 1.433 1_565 S
C2249 N2251 1.384 . S
N2250 C2246 1.427 1_545 S
N2250 C2247 1.384 . S
N2251 C2243 1.427 1_565 S
N2251 C2249 1.384 . S
H2252 C2258 0.930 . S
H2253 C2262 0.930 . S
H2254 C2267 0.929 . S
H2255 C2265 0.929 . S
H2256 C2260 0.929 . S
H2257 C2266 0.929 . S
C2258 H2252 0.930 . S
C2258 C2259 1.367 . S
C2258 C2266 1.378 . S
C2259 C2258 1.367 . S
C2259 C2267 1.433 . S
C2260 H2256 0.929 . S
C2260 C2262 1.378 . S
C2260 C2264 1.350 . S
C2261 C2264 1.463 . S
C2261 C2266 1.350 . S
C2261 N2269 1.427 . S
C2262 H2253 0.930 . S
C2262 C2260 1.378 . S
C2262 C2263 1.367 . S
C2263 C2262 1.367 . S
C2263 C2265 1.433 . S
C2264 C2260 1.350 . S
C2264 C2261 1.463 . S
C2264 N2268 1.427 . S
C2265 H2255 0.929 . S
C2265 C2263 1.433 . S
C2265 N2268 1.384 . S
C2266 H2257 0.929 . S
C2266 C2258 1.378 . S
C2266 C2261 1.350 . S
C2267 H2254 0.929 . S
C2267 C2259 1.433 . S
C2267 N2269 1.384 . S
N2268 C2264 1.427 . S
N2268 C2265 1.384 . S
N2269 C2261 1.427 . S
N2269 C2267 1.384 . S
H2270 C2276 0.930 . S
H2271 C2280 0.930 . S
H2272 C2285 0.929 . S
H2273 C2283 0.929 . S
H2274 C2278 0.929 . S
H2275 C2284 0.929 . S
C2276 H2270 0.930 . S
C2276 C2277 1.367 1_565 S
C2276 C2284 1.378 . S
C2277 C2276 1.367 1_545 S
C2277 C2285 1.433 1_455 S
C2278 H2274 0.929 . S
C2278 C2280 1.378 . S
C2278 C2282 1.335 1_545 S
C2279 C2282 1.461 1_446 S
C2279 C2284 1.335 1_545 S
C2279 N2287 1.446 1_455 S
C2280 H2271 0.930 . S
C2280 C2278 1.378 . S
C2280 C2281 1.367 1_545 S
C2281 C2280 1.367 1_565 S
C2281 C2283 1.433 1_655 S
C2282 C2278 1.335 1_565 S
C2282 C2279 1.461 1_664 S
C2282 N2286 1.446 1_655 S
C2283 H2273 0.929 . S
C2283 C2281 1.433 1_455 S
C2283 N2286 1.384 . S
C2284 H2275 0.929 . S
C2284 C2276 1.378 . S
C2284 C2279 1.335 1_565 S
C2285 H2272 0.929 . S
C2285 C2277 1.433 1_655 S
C2285 N2287 1.384 . S
N2286 C2282 1.446 1_455 S
N2286 C2283 1.384 . S
N2287 C2279 1.446 1_655 S
N2287 C2285 1.384 . S
H2288 C2294 0.930 . S
H2289 C2298 0.930 . S
H2290 C2303 0.929 . S
H2291 C2301 0.929 . S
H2292 C2296 0.929 . S
H2293 C2302 0.929 . S
C2294 H2288 0.930 . S
C2294 C2295 1.367 . S
C2294 C2302 1.378 . S
C2295 C2294 1.367 . S
C2295 C2303 1.433 . S
C2296 H2292 0.929 . S
C2296 C2298 1.378 . S
C2296 C2300 1.350 . S
C2297 C2300 1.463 . S
C2297 C2302 1.350 . S
C2297 N2305 1.427 . S
C2298 H2289 0.930 . S
C2298 C2296 1.378 . S
C2298 C2299 1.367 . S
C2299 C2298 1.367 . S
C2299 C2301 1.433 . S
C2300 C2296 1.350 . S
C2300 C2297 1.463 . S
C2300 N2304 1.427 . S
C2301 H2291 0.929 . S
C2301 C2299 1.433 . S
C2301 N2304 1.384 . S
C2302 H2293 0.929 . S
C2302 C2294 1.378 . S
C2302 C2297 1.350 . S
C2303 H2290 0.929 . S
C2303 C2295 1.433 . S
C2303 N2305 1.384 . S
N2304 C2300 1.427 . S
N2304 C2301 1.384 . S
N2305 C2297 1.427 . S
N2305 C2303 1.384 . S
H2306 C2312 0.930 . S
H2307 C2316 0.930 . S
H2308 C2321 0.929 . S
H2309 C2319 0.929 . S
H2310 C2314 0.929 . S
H2311 C2320 0.929 . S
C2312 H2306 0.930 . S
C2312 C2313 1.367 . S
C2312 C2320 1.378 . S
C2313 C2312 1.367 . S
C2313 C2321 1.433 . S
C2314 H2310 0.929 . S
C2314 C2316 1.378 . S
C2314 C2318 1.350 . S
C2315 C2318 1.463 . S
C2315 C2320 1.350 . S
C2315 N2323 1.427 . S
C2316 H2307 0.930 . S
C2316 C2314 1.378 . S
C2316 C2317 1.367 . S
C2317 C2316 1.367 . S
C2317 C2319 1.433 . S
C2318 C2314 1.350 . S
C2318 C2315 1.463 . S
C2318 N2322 1.427 . S
C2319 H2309 0.929 . S
C2319 C2317 1.433 . S
C2319 N2322 1.384 . S
C2320 H2311 0.929 . S
C2320 C2312 1.378 . S
C2320 C2315 1.350 . S
C2321 H2308 0.929 . S
C2321 C2313 1.433 . S
C2321 N2323 1.384 . S
N2322 C2318 1.427 . S
N2322 C2319 1.384 . S
N2323 C2315 1.427 . S
N2323 C2321 1.384 . S
H2324 C2330 0.930 . S
H2325 C2334 0.930 . S
H2326 C2339 0.929 . S
H2327 C2337 0.929 . S
H2328 C2332 0.929 . S
H2329 C2338 0.929 . S
C2330 H2324 0.930 . S
C2330 C2331 1.367 . S
C2330 C2338 1.378 . S
C2331 C2330 1.367 . S
C2331 C2339 1.433 . S
C2332 H2328 0.929 . S
C2332 C2334 1.378 . S
C2332 C2336 1.350 . S
C2333 C2336 1.463 . S
C2333 C2338 1.350 . S
C2333 N2341 1.427 . S
C2334 H2325 0.930 . S
C2334 C2332 1.378 . S
C2334 C2335 1.367 . S
C2335 C2334 1.367 . S
C2335 C2337 1.433 . S
C2336 C2332 1.350 . S
C2336 C2333 1.463 . S
C2336 N2340 1.427 . S
C2337 H2327 0.929 . S
C2337 C2335 1.433 . S
C2337 N2340 1.384 . S
C2338 H2329 0.929 . S
C2338 C2330 1.378 . S
C2338 C2333 1.350 . S
C2339 H2326 0.929 . S
C2339 C2331 1.433 . S
C2339 N2341 1.384 . S
N2340 C2336 1.427 . S
N2340 C2337 1.384 . S
N2341 C2333 1.427 . S
N2341 C2339 1.384 . S
H2342 C2348 0.930 . S
H2343 C2352 0.930 . S
H2344 C2357 0.929 . S
H2345 C2355 0.929 . S
H2346 C2350 0.929 . S
H2347 C2356 0.929 . S
C2348 H2342 0.930 . S
C2348 C2349 1.367 . S
C2348 C2356 1.378 . S
C2349 C2348 1.367 . S
C2349 C2357 1.433 . S
C2350 H2346 0.929 . S
C2350 C2352 1.378 . S
C2350 C2354 1.350 . S
C2351 C2354 1.463 . S
C2351 C2356 1.350 . S
C2351 N2359 1.427 . S
C2352 H2343 0.930 . S
C2352 C2350 1.378 . S
C2352 C2353 1.367 . S
C2353 C2352 1.367 . S
C2353 C2355 1.433 . S
C2354 C2350 1.350 . S
C2354 C2351 1.463 . S
C2354 N2358 1.427 . S
C2355 H2345 0.929 . S
C2355 C2353 1.433 . S
C2355 N2358 1.384 . S
C2356 H2347 0.929 . S
C2356 C2348 1.378 . S
C2356 C2351 1.350 . S
C2357 H2344 0.929 . S
C2357 C2349 1.433 . S
C2357 N2359 1.384 . S
N2358 C2354 1.427 . S
N2358 C2355 1.384 . S
N2359 C2351 1.427 . S
N2359 C2357 1.384 . S
H2360 C2366 0.930 . S
H2361 C2370 0.930 . S
H2362 C2375 0.929 . S
H2363 C2373 0.929 . S
H2364 C2368 0.929 . S
H2365 C2374 0.929 . S
C2366 H2360 0.930 . S
C2366 C2367 1.367 . S
C2366 C2374 1.378 . S
C2367 C2366 1.367 . S
C2367 C2375 1.433 . S
C2368 H2364 0.929 . S
C2368 C2370 1.378 . S
C2368 C2372 1.350 . S
C2369 C2372 1.463 1_554 S
C2369 C2374 1.350 . S
C2369 N2377 1.427 . S
C2370 H2361 0.930 . S
C2370 C2368 1.378 . S
C2370 C2371 1.367 . S
C2371 C2370 1.367 . S
C2371 C2373 1.433 . S
C2372 C2368 1.350 . S
C2372 C2369 1.463 1_556 S
C2372 N2376 1.427 . S
C2373 H2363 0.929 . S
C2373 C2371 1.433 . S
C2373 N2376 1.384 . S
C2374 H2365 0.929 . S
C2374 C2366 1.378 . S
C2374 C2369 1.350 . S
C2375 H2362 0.929 . S
C2375 C2367 1.433 . S
C2375 N2377 1.384 . S
N2376 C2372 1.427 . S
N2376 C2373 1.384 . S
N2377 C2369 1.427 . S
N2377 C2375 1.384 . S
H2378 C2384 0.930 . S
H2379 C2388 0.930 . S
H2380 C2393 0.929 . S
H2381 C2391 0.929 . S
H2382 C2386 0.929 . S
H2383 C2392 0.929 . S
C2384 H2378 0.930 . S
C2384 C2385 1.367 . S
C2384 C2392 1.378 . S
C2385 C2384 1.367 . S
C2385 C2393 1.433 . S
C2386 H2382 0.929 . S
C2386 C2388 1.378 . S
C2386 C2390 1.350 . S
C2387 C2390 1.463 1_655 S
C2387 C2392 1.350 . S
C2387 N2395 1.427 . S
C2388 H2379 0.930 . S
C2388 C2386 1.378 . S
C2388 C2389 1.367 . S
C2389 C2388 1.367 . S
C2389 C2391 1.433 . S
C2390 C2386 1.350 . S
C2390 C2387 1.463 1_455 S
C2390 N2394 1.427 . S
C2391 H2381 0.929 . S
C2391 C2389 1.433 . S
C2391 N2394 1.384 . S
C2392 H2383 0.929 . S
C2392 C2384 1.378 . S
C2392 C2387 1.350 . S
C2393 H2380 0.929 . S
C2393 C2385 1.433 . S
C2393 N2395 1.384 . S
N2394 C2390 1.427 . S
N2394 C2391 1.384 . S
N2395 C2387 1.427 . S
N2395 C2393 1.384 . S
H2396 C2402 0.930 . S
H2397 C2406 0.930 . S
H2398 C2411 0.929 . S
H2399 C2409 0.929 . S
H2400 C2404 0.929 . S
H2401 C2410 0.929 . S
C2402 H2396 0.930 . S
C2402 C2403 1.367 1_655 S
C2402 C2410 1.378 . S
C2403 C2402 1.367 1_455 S
C2403 C2411 1.433 . S
C2404 H2400 0.929 . S
C2404 C2406 1.378 . S
C2404 C2408 1.350 1_455 S
C2405 C2408 1.463 1_454 S
C2405 C2410 1.350 1_455 S
C2405 N2413 1.427 . S
C2406 H2397 0.930 . S
C2406 C2404 1.378 . S
C2406 C2407 1.367 1_455 S
C2407 C2406 1.367 1_655 S
C2407 C2409 1.433 . S
C2408 C2404 1.350 1_655 S
C2408 C2405 1.463 1_656 S
C2408 N2412 1.427 . S
C2409 H2399 0.929 . S
C2409 C2407 1.433 . S
C2409 N2412 1.384 . S
C2410 H2401 0.929 . S
C2410 C2402 1.378 . S
C2410 C2405 1.350 1_655 S
C2411 H2398 0.929 . S
C2411 C2403 1.433 . S
C2411 N2413 1.384 . S
N2412 C2408 1.427 . S
N2412 C2409 1.384 . S
N2413 C2405 1.427 . S
N2413 C2411 1.384 . S
H2414 C2420 0.930 . S
H2415 C2424 0.930 . S
H2416 C2429 0.929 . S
H2417 C2427 0.929 . S
H2418 C2422 0.929 . S
H2419 C2428 0.929 . S
C2420 H2414 0.930 . S
C2420 C2421 1.367 . S
C2420 C2428 1.378 . S
C2421 C2420 1.367 . S
C2421 C2429 1.433 . S
C2422 H2418 0.929 . S
C2422 C2424 1.378 . S
C2422 C2426 1.350 . S
C2423 C2426 1.463 . S
C2423 C2428 1.350 . S
C2423 N2431 1.427 . S
C2424 H2415 0.930 . S
C2424 C2422 1.378 . S
C2424 C2425 1.367 . S
C2425 C2424 1.367 . S
C2425 C2427 1.433 . S
C2426 C2422 1.350 . S
C2426 C2423 1.463 . S
C2426 N2430 1.427 . S
C2427 H2417 0.929 . S
C2427 C2425 1.433 . S
C2427 N2430 1.384 . S
C2428 H2419 0.929 . S
C2428 C2420 1.378 . S
C2428 C2423 1.350 . S
C2429 H2416 0.929 . S
C2429 C2421 1.433 . S
C2429 N2431 1.384 . S
N2430 C2426 1.427 . S
N2430 C2427 1.384 . S
N2431 C2423 1.427 . S
N2431 C2429 1.384 . S
H2432 C2438 0.930 . S
H2433 C2442 0.930 . S
H2434 C2447 0.929 . S
H2435 C2445 0.929 . S
H2436 C2440 0.929 . S
H2437 C2446 0.929 . S
C2438 H2432 0.930 . S
C2438 C2439 1.367 . S
C2438 C2446 1.378 . S
C2439 C2438 1.367 . S
C2439 C2447 1.433 . S
C2440 H2436 0.929 . S
C2440 C2442 1.378 . S
C2440 C2444 1.350 . S
C2441 C2444 1.463 . S
C2441 C2446 1.350 . S
C2441 N2449 1.427 . S
C2442 H2433 0.930 . S
C2442 C2440 1.378 . S
C2442 C2443 1.367 . S
C2443 C2442 1.367 . S
C2443 C2445 1.433 . S
C2444 C2440 1.350 . S
C2444 C2441 1.463 . S
C2444 N2448 1.427 . S
C2445 H2435 0.929 . S
C2445 C2443 1.433 . S
C2445 N2448 1.384 . S
C2446 H2437 0.929 . S
C2446 C2438 1.378 . S
C2446 C2441 1.350 . S
C2447 H2434 0.929 . S
C2447 C2439 1.433 . S
C2447 N2449 1.384 . S
N2448 C2444 1.427 . S
N2448 C2445 1.384 . S
N2449 C2441 1.427 . S
N2449 C2447 1.384 . S
H2450 C2456 0.930 . S
H2451 C2460 0.930 . S
H2452 C2465 0.929 . S
H2453 C2463 0.929 . S
H2454 C2458 0.929 . S
H2455 C2464 0.929 . S
C2456 H2450 0.930 . S
C2456 C2457 1.367 . S
C2456 C2464 1.378 . S
C2457 C2456 1.367 . S
C2457 C2465 1.433 . S
C2458 H2454 0.929 . S
C2458 C2460 1.378 . S
C2458 C2462 1.350 . S
C2459 C2462 1.463 . S
C2459 C2464 1.350 . S
C2459 N2467 1.427 . S
C2460 H2451 0.930 . S
C2460 C2458 1.378 . S
C2460 C2461 1.367 . S
C2461 C2460 1.367 . S
C2461 C2463 1.433 . S
C2462 C2458 1.350 . S
C2462 C2459 1.463 . S
C2462 N2466 1.427 . S
C2463 H2453 0.929 . S
C2463 C2461 1.433 . S
C2463 N2466 1.384 . S
C2464 H2455 0.929 . S
C2464 C2456 1.378 . S
C2464 C2459 1.350 . S
C2465 H2452 0.929 . S
C2465 C2457 1.433 . S
C2465 N2467 1.384 . S
N2466 C2462 1.427 . S
N2466 C2463 1.384 . S
N2467 C2459 1.427 . S
N2467 C2465 1.384 . S
H2468 C2474 0.930 . S
H2469 C2478 0.930 . S
H2470 C2483 0.929 . S
H2471 C2481 0.929 . S
H2472 C2476 0.929 . S
H2473 C2482 0.929 . S
C2474 H2468 0.930 . S
C2474 C2475 1.367 . S
C2474 C2482 1.378 . S
C2475 C2474 1.367 . S
C2475 C2483 1.433 . S
C2476 H2472 0.929 . S
C2476 C2478 1.378 . S
C2476 C2480 1.350 . S
C2477 C2480 1.463 . S
C2477 C2482 1.350 . S
C2477 N2485 1.427 . S
C2478 H2469 0.930 . S
C2478 C2476 1.378 . S
C2478 C2479 1.367 . S
C2479 C2478 1.367 . S
C2479 C2481 1.433 . S
C2480 C2476 1.350 . S
C2480 C2477 1.463 . S
C2480 N2484 1.427 . S
C2481 H2471 0.929 . S
C2481 C2479 1.433 . S
C2481 N2484 1.384 . S
C2482 H2473 0.929 . S
C2482 C2474 1.378 . S
C2482 C2477 1.350 . S
C2483 H2470 0.929 . S
C2483 C2475 1.433 . S
C2483 N2485 1.384 . S
N2484 C2480 1.427 . S
N2484 C2481 1.384 . S
N2485 C2477 1.427 . S
N2485 C2483 1.384 . S
H2486 C2492 0.930 . S
H2487 C2496 0.930 . S
H2488 C2501 0.929 . S
H2489 C2499 0.929 . S
H2490 C2494 0.929 . S
H2491 C2500 0.929 . S
C2492 H2486 0.930 . S
C2492 C2493 1.367 . S
C2492 C2500 1.378 . S
C2493 C2492 1.367 . S
C2493 C2501 1.433 . S
C2494 H2490 0.929 . S
C2494 C2496 1.378 . S
C2494 C2498 1.350 . S
C2495 C2498 1.463 . S
C2495 C2500 1.350 . S
C2495 N2503 1.427 . S
C2496 H2487 0.930 . S
C2496 C2494 1.378 . S
C2496 C2497 1.367 . S
C2497 C2496 1.367 . S
C2497 C2499 1.433 . S
C2498 C2494 1.350 . S
C2498 C2495 1.463 . S
C2498 N2502 1.427 . S
C2499 H2489 0.929 . S
C2499 C2497 1.433 . S
C2499 N2502 1.384 . S
C2500 H2491 0.929 . S
C2500 C2492 1.378 . S
C2500 C2495 1.350 . S
C2501 H2488 0.929 . S
C2501 C2493 1.433 . S
C2501 N2503 1.384 . S
N2502 C2498 1.427 . S
N2502 C2499 1.384 . S
N2503 C2495 1.427 . S
N2503 C2501 1.384 . S
H2504 C2510 0.930 . S
H2505 C2514 0.930 . S
H2506 C2519 0.929 . S
H2507 C2517 0.929 . S
H2508 C2512 0.929 . S
H2509 C2518 0.929 . S
C2510 H2504 0.930 . S
C2510 C2511 1.367 . S
C2510 C2518 1.378 . S
C2511 C2510 1.367 . S
C2511 C2519 1.433 . S
C2512 H2508 0.929 . S
C2512 C2514 1.378 . S
C2512 C2516 1.350 . S
C2513 C2516 1.463 . S
C2513 C2518 1.350 . S
C2513 N2521 1.427 . S
C2514 H2505 0.930 . S
C2514 C2512 1.378 . S
C2514 C2515 1.367 . S
C2515 C2514 1.367 . S
C2515 C2517 1.433 . S
C2516 C2512 1.350 . S
C2516 C2513 1.463 . S
C2516 N2520 1.427 . S
C2517 H2507 0.929 . S
C2517 C2515 1.433 . S
C2517 N2520 1.384 . S
C2518 H2509 0.929 . S
C2518 C2510 1.378 . S
C2518 C2513 1.350 . S
C2519 H2506 0.929 . S
C2519 C2511 1.433 . S
C2519 N2521 1.384 . S
N2520 C2516 1.427 . S
N2520 C2517 1.384 . S
N2521 C2513 1.427 . S
N2521 C2519 1.384 . S
H2522 C2528 0.930 . S
H2523 C2532 0.930 . S
H2524 C2537 0.929 . S
H2525 C2535 0.929 . S
H2526 C2530 0.929 . S
H2527 C2536 0.929 . S
C2528 H2522 0.930 . S
C2528 C2529 1.367 . S
C2528 C2536 1.378 . S
C2529 C2528 1.367 . S
C2529 C2537 1.433 . S
C2530 H2526 0.929 . S
C2530 C2532 1.378 . S
C2530 C2534 1.350 . S
C2531 C2534 1.463 . S
C2531 C2536 1.350 . S
C2531 N2539 1.427 . S
C2532 H2523 0.930 . S
C2532 C2530 1.378 . S
C2532 C2533 1.367 . S
C2533 C2532 1.367 . S
C2533 C2535 1.433 . S
C2534 C2530 1.350 . S
C2534 C2531 1.463 . S
C2534 N2538 1.427 . S
C2535 H2525 0.929 . S
C2535 C2533 1.433 . S
C2535 N2538 1.384 . S
C2536 H2527 0.929 . S
C2536 C2528 1.378 . S
C2536 C2531 1.350 . S
C2537 H2524 0.929 . S
C2537 C2529 1.433 . S
C2537 N2539 1.384 . S
N2538 C2534 1.427 . S
N2538 C2535 1.384 . S
N2539 C2531 1.427 . S
N2539 C2537 1.384 . S
H2540 C2546 0.930 . S
H2541 C2550 0.930 . S
H2542 C2555 0.929 . S
H2543 C2553 0.929 . S
H2544 C2548 0.929 . S
H2545 C2554 0.929 . S
C2546 H2540 0.930 . S
C2546 C2547 1.367 . S
C2546 C2554 1.378 . S
C2547 C2546 1.367 . S
C2547 C2555 1.433 . S
C2548 H2544 0.929 . S
C2548 C2550 1.378 . S
C2548 C2552 1.350 . S
C2549 C2552 1.463 . S
C2549 C2554 1.350 . S
C2549 N2557 1.427 . S
C2550 H2541 0.930 . S
C2550 C2548 1.378 . S
C2550 C2551 1.367 . S
C2551 C2550 1.367 . S
C2551 C2553 1.433 . S
C2552 C2548 1.350 . S
C2552 C2549 1.463 . S
C2552 N2556 1.427 . S
C2553 H2543 0.929 . S
C2553 C2551 1.433 . S
C2553 N2556 1.384 . S
C2554 H2545 0.929 . S
C2554 C2546 1.378 . S
C2554 C2549 1.350 . S
C2555 H2542 0.929 . S
C2555 C2547 1.433 . S
C2555 N2557 1.384 . S
N2556 C2552 1.427 . S
N2556 C2553 1.384 . S
N2557 C2549 1.427 . S
N2557 C2555 1.384 . S
H2558 C2564 0.930 . S
H2559 C2568 0.930 . S
H2560 C2573 0.929 . S
H2561 C2571 0.929 . S
H2562 C2566 0.929 . S
H2563 C2572 0.929 . S
C2564 H2558 0.930 . S
C2564 C2565 1.367 . S
C2564 C2572 1.378 . S
C2565 C2564 1.367 . S
C2565 C2573 1.433 . S
C2566 H2562 0.929 . S
C2566 C2568 1.378 . S
C2566 C2570 1.350 . S
C2567 C2570 1.463 . S
C2567 C2572 1.350 . S
C2567 N2575 1.427 . S
C2568 H2559 0.930 . S
C2568 C2566 1.378 . S
C2568 C2569 1.367 . S
C2569 C2568 1.367 . S
C2569 C2571 1.433 . S
C2570 C2566 1.350 . S
C2570 C2567 1.463 . S
C2570 N2574 1.427 . S
C2571 H2561 0.929 . S
C2571 C2569 1.433 . S
C2571 N2574 1.384 . S
C2572 H2563 0.929 . S
C2572 C2564 1.378 . S
C2572 C2567 1.350 . S
C2573 H2560 0.929 . S
C2573 C2565 1.433 . S
C2573 N2575 1.384 . S
N2574 C2570 1.427 . S
N2574 C2571 1.384 . S
N2575 C2567 1.427 . S
N2575 C2573 1.384 . S
H2576 C2582 0.930 . S
H2577 C2586 0.930 . S
H2578 C2591 0.929 . S
H2579 C2589 0.929 . S
H2580 C2584 0.929 . S
H2581 C2590 0.929 . S
C2582 H2576 0.930 . S
C2582 C2583 1.367 . S
C2582 C2590 1.378 . S
C2583 C2582 1.367 . S
C2583 C2591 1.433 . S
C2584 H2580 0.929 . S
C2584 C2586 1.378 . S
C2584 C2588 1.350 . S
C2585 C2588 1.463 . S
C2585 C2590 1.350 . S
C2585 N2593 1.427 . S
C2586 H2577 0.930 . S
C2586 C2584 1.378 . S
C2586 C2587 1.367 . S
C2587 C2586 1.367 . S
C2587 C2589 1.433 . S
C2588 C2584 1.350 . S
C2588 C2585 1.463 . S
C2588 N2592 1.427 . S
C2589 H2579 0.929 . S
C2589 C2587 1.433 . S
C2589 N2592 1.384 . S
C2590 H2581 0.929 . S
C2590 C2582 1.378 . S
C2590 C2585 1.350 . S
C2591 H2578 0.929 . S
C2591 C2583 1.433 . S
C2591 N2593 1.384 . S
N2592 C2588 1.427 . S
N2592 C2589 1.384 . S
N2593 C2585 1.427 . S
N2593 C2591 1.384 . S
H2594 C2600 0.930 . S
H2595 C2604 0.930 . S
H2596 C2609 0.929 . S
H2597 C2607 0.929 . S
H2598 C2602 0.929 . S
H2599 C2608 0.929 . S
C2600 H2594 0.930 . S
C2600 C2601 1.367 . S
C2600 C2608 1.378 . S
C2601 C2600 1.367 . S
C2601 C2609 1.433 . S
C2602 H2598 0.929 . S
C2602 C2604 1.378 . S
C2602 C2606 1.350 . S
C2603 C2606 1.463 . S
C2603 C2608 1.350 . S
C2603 N2611 1.427 . S
C2604 H2595 0.930 . S
C2604 C2602 1.378 . S
C2604 C2605 1.367 . S
C2605 C2604 1.367 . S
C2605 C2607 1.433 . S
C2606 C2602 1.350 . S
C2606 C2603 1.463 . S
C2606 N2610 1.427 . S
C2607 H2597 0.929 . S
C2607 C2605 1.433 . S
C2607 N2610 1.384 . S
C2608 H2599 0.929 . S
C2608 C2600 1.378 . S
C2608 C2603 1.350 . S
C2609 H2596 0.929 . S
C2609 C2601 1.433 . S
C2609 N2611 1.384 . S
N2610 C2606 1.427 . S
N2610 C2607 1.384 . S
N2611 C2603 1.427 . S
N2611 C2609 1.384 . S
H2612 C2618 0.930 . S
H2613 C2622 0.930 . S
H2614 C2627 0.929 . S
H2615 C2625 0.929 . S
H2616 C2620 0.929 . S
H2617 C2626 0.929 . S
C2618 H2612 0.930 . S
C2618 C2619 1.367 . S
C2618 C2626 1.378 . S
C2619 C2618 1.367 . S
C2619 C2627 1.433 . S
C2620 H2616 0.929 . S
C2620 C2622 1.378 . S
C2620 C2624 1.350 . S
C2621 C2624 1.463 . S
C2621 C2626 1.350 . S
C2621 N2629 1.427 . S
C2622 H2613 0.930 . S
C2622 C2620 1.378 . S
C2622 C2623 1.367 . S
C2623 C2622 1.367 . S
C2623 C2625 1.433 . S
C2624 C2620 1.350 . S
C2624 C2621 1.463 . S
C2624 N2628 1.427 . S
C2625 H2615 0.929 . S
C2625 C2623 1.433 . S
C2625 N2628 1.384 . S
C2626 H2617 0.929 . S
C2626 C2618 1.378 . S
C2626 C2621 1.350 . S
C2627 H2614 0.929 . S
C2627 C2619 1.433 . S
C2627 N2629 1.384 . S
N2628 C2624 1.427 . S
N2628 C2625 1.384 . S
N2629 C2621 1.427 . S
N2629 C2627 1.384 . S
H2630 C2636 0.930 . S
H2631 C2640 0.930 . S
H2632 C2645 0.929 . S
H2633 C2643 0.929 . S
H2634 C2638 0.929 . S
H2635 C2644 0.929 . S
C2636 H2630 0.930 . S
C2636 C2637 1.367 . S
C2636 C2644 1.378 . S
C2637 C2636 1.367 . S
C2637 C2645 1.433 . S
C2638 H2634 0.929 . S
C2638 C2640 1.378 . S
C2638 C2642 1.350 . S
C2639 C2642 1.463 . S
C2639 C2644 1.350 . S
C2639 N2647 1.427 . S
C2640 H2631 0.930 . S
C2640 C2638 1.378 . S
C2640 C2641 1.367 . S
C2641 C2640 1.367 . S
C2641 C2643 1.433 . S
C2642 C2638 1.350 . S
C2642 C2639 1.463 . S
C2642 N2646 1.427 . S
C2643 H2633 0.929 . S
C2643 C2641 1.433 . S
C2643 N2646 1.384 . S
C2644 H2635 0.929 . S
C2644 C2636 1.378 . S
C2644 C2639 1.350 . S
C2645 H2632 0.929 . S
C2645 C2637 1.433 . S
C2645 N2647 1.384 . S
N2646 C2642 1.427 . S
N2646 C2643 1.384 . S
N2647 C2639 1.427 . S
N2647 C2645 1.384 . S
H2648 C2654 0.930 . S
H2649 C2658 0.930 . S
H2650 C2663 0.929 . S
H2651 C2661 0.929 . S
H2652 C2656 0.929 . S
H2653 C2662 0.929 . S
C2654 H2648 0.930 . S
C2654 C2655 1.367 . S
C2654 C2662 1.378 . S
C2655 C2654 1.367 . S
C2655 C2663 1.433 . S
C2656 H2652 0.929 . S
C2656 C2658 1.378 . S
C2656 C2660 1.350 . S
C2657 C2660 1.463 . S
C2657 C2662 1.350 . S
C2657 N2665 1.427 . S
C2658 H2649 0.930 . S
C2658 C2656 1.378 . S
C2658 C2659 1.367 . S
C2659 C2658 1.367 . S
C2659 C2661 1.433 . S
C2660 C2656 1.350 . S
C2660 C2657 1.463 . S
C2660 N2664 1.427 . S
C2661 H2651 0.929 . S
C2661 C2659 1.433 . S
C2661 N2664 1.384 . S
C2662 H2653 0.929 . S
C2662 C2654 1.378 . S
C2662 C2657 1.350 . S
C2663 H2650 0.929 . S
C2663 C2655 1.433 . S
C2663 N2665 1.384 . S
N2664 C2660 1.427 . S
N2664 C2661 1.384 . S
N2665 C2657 1.427 . S
N2665 C2663 1.384 . S
H2666 C2672 0.930 . S
H2667 C2676 0.930 . S
H2668 C2681 0.929 . S
H2669 C2679 0.929 . S
H2670 C2674 0.929 . S
H2671 C2680 0.929 . S
C2672 H2666 0.930 . S
C2672 C2673 1.367 . S
C2672 C2680 1.378 . S
C2673 C2672 1.367 . S
C2673 C2681 1.433 . S
C2674 H2670 0.929 . S
C2674 C2676 1.378 . S
C2674 C2678 1.350 . S
C2675 C2678 1.463 . S
C2675 C2680 1.350 . S
C2675 N2683 1.427 . S
C2676 H2667 0.930 . S
C2676 C2674 1.378 . S
C2676 C2677 1.367 . S
C2677 C2676 1.367 . S
C2677 C2679 1.433 . S
C2678 C2674 1.350 . S
C2678 C2675 1.463 . S
C2678 N2682 1.427 . S
C2679 H2669 0.929 . S
C2679 C2677 1.433 . S
C2679 N2682 1.384 . S
C2680 H2671 0.929 . S
C2680 C2672 1.378 . S
C2680 C2675 1.350 . S
C2681 H2668 0.929 . S
C2681 C2673 1.433 . S
C2681 N2683 1.384 . S
N2682 C2678 1.427 . S
N2682 C2679 1.384 . S
N2683 C2675 1.427 . S
N2683 C2681 1.384 . S
H2684 C2690 0.930 . S
H2685 C2694 0.930 . S
H2686 C2699 0.929 . S
H2687 C2697 0.929 . S
H2688 C2692 0.929 . S
H2689 C2698 0.929 . S
C2690 H2684 0.930 . S
C2690 C2691 1.367 . S
C2690 C2698 1.378 . S
C2691 C2690 1.367 . S
C2691 C2699 1.433 . S
C2692 H2688 0.929 . S
C2692 C2694 1.378 . S
C2692 C2696 1.350 . S
C2693 C2696 1.463 . S
C2693 C2698 1.350 . S
C2693 N2701 1.427 . S
C2694 H2685 0.930 . S
C2694 C2692 1.378 . S
C2694 C2695 1.367 . S
C2695 C2694 1.367 . S
C2695 C2697 1.433 . S
C2696 C2692 1.350 . S
C2696 C2693 1.463 . S
C2696 N2700 1.427 . S
C2697 H2687 0.929 . S
C2697 C2695 1.433 . S
C2697 N2700 1.384 . S
C2698 H2689 0.929 . S
C2698 C2690 1.378 . S
C2698 C2693 1.350 . S
C2699 H2686 0.929 . S
C2699 C2691 1.433 . S
C2699 N2701 1.384 . S
N2700 C2696 1.427 . S
N2700 C2697 1.384 . S
N2701 C2693 1.427 . S
N2701 C2699 1.384 . S
H2702 C2708 0.930 . S
H2703 C2712 0.930 . S
H2704 C2717 0.929 . S
H2705 C2715 0.929 . S
H2706 C2710 0.929 . S
H2707 C2716 0.929 . S
C2708 H2702 0.930 . S
C2708 C2709 1.367 . S
C2708 C2716 1.378 . S
C2709 C2708 1.367 . S
C2709 C2717 1.433 . S
C2710 H2706 0.929 . S
C2710 C2712 1.378 . S
C2710 C2714 1.350 . S
C2711 C2714 1.463 . S
C2711 C2716 1.350 . S
C2711 N2719 1.427 . S
C2712 H2703 0.930 . S
C2712 C2710 1.378 . S
C2712 C2713 1.367 . S
C2713 C2712 1.367 . S
C2713 C2715 1.433 . S
C2714 C2710 1.350 . S
C2714 C2711 1.463 . S
C2714 N2718 1.427 . S
C2715 H2705 0.929 . S
C2715 C2713 1.433 . S
C2715 N2718 1.384 . S
C2716 H2707 0.929 . S
C2716 C2708 1.378 . S
C2716 C2711 1.350 . S
C2717 H2704 0.929 . S
C2717 C2709 1.433 . S
C2717 N2719 1.384 . S
N2718 C2714 1.427 . S
N2718 C2715 1.384 . S
N2719 C2711 1.427 . S
N2719 C2717 1.384 . S
H2720 C2726 0.930 . S
H2721 C2730 0.930 . S
H2722 C2735 0.929 . S
H2723 C2733 0.929 . S
H2724 C2728 0.929 1_545 S
H2725 C2734 0.929 1_565 S
C2726 H2720 0.930 . S
C2726 C2727 1.367 . S
C2726 C2734 1.378 . S
C2727 C2726 1.367 . S
C2727 C2735 1.433 . S
C2728 H2724 0.929 1_565 S
C2728 C2730 1.378 . S
C2728 C2732 1.350 . S
C2729 C2732 1.463 1_545 S
C2729 C2734 1.350 . S
C2729 N2737 1.427 . S
C2730 H2721 0.930 . S
C2730 C2728 1.378 . S
C2730 C2731 1.367 . S
C2731 C2730 1.367 . S
C2731 C2733 1.433 . S
C2732 C2728 1.350 . S
C2732 C2729 1.463 1_565 S
C2732 N2736 1.427 . S
C2733 H2723 0.929 . S
C2733 C2731 1.433 . S
C2733 N2736 1.384 . S
C2734 H2725 0.929 1_545 S
C2734 C2726 1.378 . S
C2734 C2729 1.350 . S
C2735 H2722 0.929 . S
C2735 C2727 1.433 . S
C2735 N2737 1.384 . S
N2736 C2732 1.427 . S
N2736 C2733 1.384 . S
N2737 C2729 1.427 . S
N2737 C2735 1.384 . S
H2738 C2744 0.930 . S
H2739 C2748 0.930 . S
H2740 C2753 0.929 . S
H2741 C2751 0.929 . S
H2742 C2746 0.929 . S
H2743 C2752 0.929 . S
C2744 H2738 0.930 . S
C2744 C2745 1.367 . S
C2744 C2752 1.378 . S
C2745 C2744 1.367 . S
C2745 C2753 1.433 1_565 S
C2746 H2742 0.929 . S
C2746 C2748 1.378 . S
C2746 C2750 1.350 1_545 S
C2747 C2750 1.463 . S
C2747 C2752 1.350 . S
C2747 N2755 1.427 1_565 S
C2748 H2739 0.930 . S
C2748 C2746 1.378 . S
C2748 C2749 1.367 1_545 S
C2749 C2748 1.367 1_565 S
C2749 C2751 1.433 . S
C2750 C2746 1.350 1_565 S
C2750 C2747 1.463 . S
C2750 N2754 1.427 . S
C2751 H2741 0.929 . S
C2751 C2749 1.433 . S
C2751 N2754 1.384 . S
C2752 H2743 0.929 . S
C2752 C2744 1.378 . S
C2752 C2747 1.350 . S
C2753 H2740 0.929 . S
C2753 C2745 1.433 1_545 S
C2753 N2755 1.384 . S
N2754 C2750 1.427 . S
N2754 C2751 1.384 . S
N2755 C2747 1.427 1_545 S
N2755 C2753 1.384 . S
H2756 C2762 0.930 . S
H2757 C2766 0.930 . S
H2758 C2771 0.929 . S
H2759 C2769 0.929 . S
H2760 C2764 0.929 . S
H2761 C2770 0.929 . S
C2762 H2756 0.930 . S
C2762 C2763 1.367 . S
C2762 C2770 1.378 . S
C2763 C2762 1.367 . S
C2763 C2771 1.433 . S
C2764 H2760 0.929 . S
C2764 C2766 1.378 . S
C2764 C2768 1.350 . S
C2765 C2768 1.463 1_545 S
C2765 C2770 1.350 . S
C2765 N2773 1.427 . S
C2766 H2757 0.930 . S
C2766 C2764 1.378 . S
C2766 C2767 1.367 . S
C2767 C2766 1.367 . S
C2767 C2769 1.433 . S
C2768 C2764 1.350 . S
C2768 C2765 1.463 1_565 S
C2768 N2772 1.427 . S
C2769 H2759 0.929 . S
C2769 C2767 1.433 . S
C2769 N2772 1.384 . S
C2770 H2761 0.929 . S
C2770 C2762 1.378 . S
C2770 C2765 1.350 . S
C2771 H2758 0.929 . S
C2771 C2763 1.433 . S
C2771 N2773 1.384 . S
N2772 C2768 1.427 . S
N2772 C2769 1.384 . S
N2773 C2765 1.427 . S
N2773 C2771 1.384 . S
H2774 C2780 0.930 . S
H2775 C2784 0.930 . S
H2776 C2789 0.929 . S
H2777 C2787 0.929 . S
H2778 C2782 0.929 . S
H2779 C2788 0.929 . S
C2780 H2774 0.930 . S
C2780 C2781 1.367 1_565 S
C2780 C2788 1.378 . S
C2781 C2780 1.367 1_545 S
C2781 C2789 1.433 . S
C2782 H2778 0.929 . S
C2782 C2784 1.378 . S
C2782 C2786 1.350 . S
C2783 C2786 1.463 1_556 S
C2783 C2788 1.350 1_545 S
C2783 N2791 1.427 . S
C2784 H2775 0.930 . S
C2784 C2782 1.378 . S
C2784 C2785 1.367 . S
C2785 C2784 1.367 . S
C2785 C2787 1.433 1_545 S
C2786 C2782 1.350 . S
C2786 C2783 1.463 1_554 S
C2786 N2790 1.427 1_545 S
C2787 H2777 0.929 . S
C2787 C2785 1.433 1_565 S
C2787 N2790 1.384 . S
C2788 H2779 0.929 . S
C2788 C2780 1.378 . S
C2788 C2783 1.350 1_565 S
C2789 H2776 0.929 . S
C2789 C2781 1.433 . S
C2789 N2791 1.384 . S
N2790 C2786 1.427 1_565 S
N2790 C2787 1.384 . S
N2791 C2783 1.427 . S
N2791 C2789 1.384 . S
H2792 C2798 0.930 . S
H2793 C2802 0.930 . S
H2794 C2807 0.929 . S
H2795 C2805 0.929 . S
H2796 C2800 0.929 . S
H2797 C2806 0.929 . S
C2798 H2792 0.930 . S
C2798 C2799 1.367 . S
C2798 C2806 1.378 . S
C2799 C2798 1.367 . S
C2799 C2807 1.433 . S
C2800 H2796 0.929 . S
C2800 C2802 1.378 . S
C2800 C2804 1.350 . S
C2801 C2804 1.463 1_565 S
C2801 C2806 1.350 . S
C2801 N2809 1.427 . S
C2802 H2793 0.930 . S
C2802 C2800 1.378 . S
C2802 C2803 1.367 . S
C2803 C2802 1.367 . S
C2803 C2805 1.433 . S
C2804 C2800 1.350 . S
C2804 C2801 1.463 1_545 S
C2804 N2808 1.427 . S
C2805 H2795 0.929 . S
C2805 C2803 1.433 . S
C2805 N2808 1.384 . S
C2806 H2797 0.929 . S
C2806 C2798 1.378 . S
C2806 C2801 1.350 . S
C2807 H2794 0.929 . S
C2807 C2799 1.433 . S
C2807 N2809 1.384 . S
N2808 C2804 1.427 . S
N2808 C2805 1.384 . S
N2809 C2801 1.427 . S
N2809 C2807 1.384 . S
H2810 C2816 0.930 . S
H2811 C2820 0.930 1_565 S
H2812 C2825 0.929 1_565 S
H2813 C2823 0.929 . S
H2814 C2818 0.929 1_565 S
H2815 C2824 0.929 . S
C2816 H2810 0.930 . S
C2816 C2817 1.367 . S
C2816 C2824 1.378 . S
C2817 C2816 1.367 . S
C2817 C2825 1.433 . S
C2818 H2814 0.929 1_545 S
C2818 C2820 1.378 . S
C2818 C2822 1.350 . S
C2819 C2822 1.463 . S
C2819 C2824 1.350 . S
C2819 N2827 1.427 . S
C2820 H2811 0.930 1_545 S
C2820 C2818 1.378 . S
C2820 C2821 1.367 . S
C2821 C2820 1.367 . S
C2821 C2823 1.433 . S
C2822 C2818 1.350 . S
C2822 C2819 1.463 . S
C2822 N2826 1.427 . S
C2823 H2813 0.929 . S
C2823 C2821 1.433 . S
C2823 N2826 1.384 . S
C2824 H2815 0.929 . S
C2824 C2816 1.378 . S
C2824 C2819 1.350 . S
C2825 H2812 0.929 1_545 S
C2825 C2817 1.433 . S
C2825 N2827 1.384 . S
N2826 C2822 1.427 . S
N2826 C2823 1.384 . S
N2827 C2819 1.427 . S
N2827 C2825 1.384 . S
H2828 C2834 0.930 . S
H2829 C2838 0.930 . S
H2830 C2843 0.929 . S
H2831 C2841 0.929 . S
H2832 C2836 0.929 1_565 S
H2833 C2842 0.929 1_545 S
C2834 H2828 0.930 . S
C2834 C2835 1.367 . S
C2834 C2842 1.378 . S
C2835 C2834 1.367 . S
C2835 C2843 1.433 . S
C2836 H2832 0.929 1_545 S
C2836 C2838 1.378 . S
C2836 C2840 1.350 . S
C2837 C2840 1.463 1_565 S
C2837 C2842 1.350 . S
C2837 N2845 1.427 . S
C2838 H2829 0.930 . S
C2838 C2836 1.378 . S
C2838 C2839 1.367 . S
C2839 C2838 1.367 . S
C2839 C2841 1.433 . S
C2840 C2836 1.350 . S
C2840 C2837 1.463 1_545 S
C2840 N2844 1.427 . S
C2841 H2831 0.929 . S
C2841 C2839 1.433 . S
C2841 N2844 1.384 . S
C2842 H2833 0.929 1_565 S
C2842 C2834 1.378 . S
C2842 C2837 1.350 . S
C2843 H2830 0.929 . S
C2843 C2835 1.433 . S
C2843 N2845 1.384 . S
N2844 C2840 1.427 . S
N2844 C2841 1.384 . S
N2845 C2837 1.427 . S
N2845 C2843 1.384 . S
H2846 C2852 0.930 . S
H2847 C2856 0.930 1_545 S
H2848 C2861 0.929 1_545 S
H2849 C2859 0.929 . S
H2850 C2854 0.929 1_545 S
H2851 C2860 0.929 . S
C2852 H2846 0.930 . S
C2852 C2853 1.367 . S
C2852 C2860 1.378 . S
C2853 C2852 1.367 . S
C2853 C2861 1.433 . S
C2854 H2850 0.929 1_565 S
C2854 C2856 1.378 . S
C2854 C2858 1.350 . S
C2855 C2858 1.463 1_554 S
C2855 C2860 1.350 . S
C2855 N2863 1.427 1_554 S
C2856 H2847 0.930 1_565 S
C2856 C2854 1.378 . S
C2856 C2857 1.367 . S
C2857 C2856 1.367 . S
C2857 C2859 1.433 . S
C2858 C2854 1.350 . S
C2858 C2855 1.463 1_556 S
C2858 N2862 1.427 1_556 S
C2859 H2849 0.929 . S
C2859 C2857 1.433 . S
C2859 N2862 1.384 1_556 S
C2860 H2851 0.929 . S
C2860 C2852 1.378 . S
C2860 C2855 1.350 . S
C2861 H2848 0.929 1_565 S
C2861 C2853 1.433 . S
C2861 N2863 1.384 1_554 S
N2862 C2858 1.427 1_554 S
N2862 C2859 1.384 1_554 S
N2863 C2855 1.427 1_556 S
N2863 C2861 1.384 1_556 S
H2864 C2870 0.930 . S
H2865 C2874 0.930 . S
H2866 C2879 0.929 . S
H2867 C2877 0.929 . S
H2868 C2872 0.929 . S
H2869 C2878 0.929 . S
C2870 H2864 0.930 . S
C2870 C2871 1.367 . S
C2870 C2878 1.378 . S
C2871 C2870 1.367 . S
C2871 C2879 1.433 . S
C2872 H2868 0.929 . S
C2872 C2874 1.378 . S
C2872 C2876 1.350 . S
C2873 C2876 1.463 . S
C2873 C2878 1.350 . S
C2873 N2881 1.427 . S
C2874 H2865 0.930 . S
C2874 C2872 1.378 . S
C2874 C2875 1.367 . S
C2875 C2874 1.367 . S
C2875 C2877 1.433 . S
C2876 C2872 1.350 . S
C2876 C2873 1.463 . S
C2876 N2880 1.427 . S
C2877 H2867 0.929 . S
C2877 C2875 1.433 . S
C2877 N2880 1.384 . S
C2878 H2869 0.929 . S
C2878 C2870 1.378 . S
C2878 C2873 1.350 . S
C2879 H2866 0.929 . S
C2879 C2871 1.433 . S
C2879 N2881 1.384 . S
N2880 C2876 1.427 . S
N2880 C2877 1.384 . S
N2881 C2873 1.427 . S
N2881 C2879 1.384 . S
H2882 C2888 0.930 . S
H2883 C2892 0.930 . S
H2884 C2897 0.929 . S
H2885 C2895 0.929 . S
H2886 C2890 0.968 . S
H2887 C2896 0.968 . S
C2888 H2882 0.930 . S
C2888 C2889 1.367 . S
C2888 C2896 1.378 . S
C2889 C2888 1.367 . S
C2889 C2897 1.433 . S
C2890 H2886 0.968 . S
C2890 C2892 1.378 . S
C2890 C2894 1.350 . S
C2891 C2894 1.463 1_556 S
C2891 C2896 1.350 . S
C2891 N2899 1.427 . S
C2892 H2883 0.930 . S
C2892 C2890 1.378 . S
C2892 C2893 1.367 . S
C2893 C2892 1.367 . S
C2893 C2895 1.433 . S
C2894 C2890 1.350 . S
C2894 C2891 1.463 1_554 S
C2894 N2898 1.427 . S
C2895 H2885 0.929 . S
C2895 C2893 1.433 . S
C2895 N2898 1.384 . S
C2896 H2887 0.968 . S
C2896 C2888 1.378 . S
C2896 C2891 1.350 . S
C2897 H2884 0.929 . S
C2897 C2889 1.433 . S
C2897 N2899 1.384 . S
N2898 C2894 1.427 . S
N2898 C2895 1.384 . S
N2899 C2891 1.427 . S
N2899 C2897 1.384 . S
H2900 C2906 0.930 . S
H2901 C2910 0.930 . S
H2902 C2915 0.929 . S
H2903 C2913 0.929 . S
H2904 C2908 0.929 . S
H2905 C2914 0.929 . S
C2906 H2900 0.930 . S
C2906 C2907 1.367 . S
C2906 C2914 1.378 . S
C2907 C2906 1.367 . S
C2907 C2915 1.433 . S
C2908 H2904 0.929 . S
C2908 C2910 1.378 . S
C2908 C2912 1.350 . S
C2909 C2912 1.463 . S
C2909 C2914 1.350 . S
C2909 N2917 1.427 . S
C2910 H2901 0.930 . S
C2910 C2908 1.378 . S
C2910 C2911 1.367 . S
C2911 C2910 1.367 . S
C2911 C2913 1.433 . S
C2912 C2908 1.350 . S
C2912 C2909 1.463 . S
C2912 N2916 1.427 . S
C2913 H2903 0.929 . S
C2913 C2911 1.433 . S
C2913 N2916 1.384 . S
C2914 H2905 0.929 . S
C2914 C2906 1.378 . S
C2914 C2909 1.350 . S
C2915 H2902 0.929 . S
C2915 C2907 1.433 . S
C2915 N2917 1.384 . S
N2916 C2912 1.427 . S
N2916 C2913 1.384 . S
N2917 C2909 1.427 . S
N2917 C2915 1.384 . S
H2918 C2924 0.930 . S
H2919 C2928 0.930 . S
H2920 C2933 0.929 . S
H2921 C2931 0.929 . S
H2922 C2926 0.929 . S
H2923 C2932 0.929 . S
C2924 H2918 0.930 . S
C2924 C2925 1.367 . S
C2924 C2932 1.378 . S
C2925 C2924 1.367 . S
C2925 C2933 1.433 . S
C2926 H2922 0.929 . S
C2926 C2928 1.378 . S
C2926 C2930 1.350 . S
C2927 C2930 1.463 . S
C2927 C2932 1.350 . S
C2927 N2935 1.427 . S
C2928 H2919 0.930 . S
C2928 C2926 1.378 . S
C2928 C2929 1.367 . S
C2929 C2928 1.367 . S
C2929 C2931 1.433 . S
C2930 C2926 1.350 . S
C2930 C2927 1.463 . S
C2930 N2934 1.427 . S
C2931 H2921 0.929 . S
C2931 C2929 1.433 . S
C2931 N2934 1.384 . S
C2932 H2923 0.929 . S
C2932 C2924 1.378 . S
C2932 C2927 1.350 . S
C2933 H2920 0.929 . S
C2933 C2925 1.433 . S
C2933 N2935 1.384 . S
N2934 C2930 1.427 . S
N2934 C2931 1.384 . S
N2935 C2927 1.427 . S
N2935 C2933 1.384 . S
H2936 C2942 0.930 . S
H2937 C2946 0.930 . S
H2938 C2951 0.929 . S
H2939 C2949 0.929 . S
H2940 C2944 0.929 . S
H2941 C2950 0.929 . S
C2942 H2936 0.930 . S
C2942 C2943 1.367 . S
C2942 C2950 1.378 . S
C2943 C2942 1.367 . S
C2943 C2951 1.433 . S
C2944 H2940 0.929 . S
C2944 C2946 1.378 . S
C2944 C2948 1.350 . S
C2945 C2948 1.463 . S
C2945 C2950 1.350 . S
C2945 N2953 1.427 . S
C2946 H2937 0.930 . S
C2946 C2944 1.378 . S
C2946 C2947 1.367 . S
C2947 C2946 1.367 . S
C2947 C2949 1.433 . S
C2948 C2944 1.350 . S
C2948 C2945 1.463 . S
C2948 N2952 1.427 . S
C2949 H2939 0.929 . S
C2949 C2947 1.433 . S
C2949 N2952 1.384 . S
C2950 H2941 0.929 . S
C2950 C2942 1.378 . S
C2950 C2945 1.350 . S
C2951 H2938 0.929 . S
C2951 C2943 1.433 . S
C2951 N2953 1.384 . S
N2952 C2948 1.427 . S
N2952 C2949 1.384 . S
N2953 C2945 1.427 . S
N2953 C2951 1.384 . S
H2954 C2960 0.930 . S
H2955 C2964 0.930 . S
H2956 C2969 0.929 . S
H2957 C2967 0.929 . S
H2958 C2962 0.975 . S
H2959 C2968 0.975 . S
C2960 H2954 0.930 . S
C2960 C2961 1.367 . S
C2960 C2968 1.350 1_556 S
C2961 C2960 1.367 . S
C2961 C2969 1.433 . S
C2962 H2958 0.975 . S
C2962 C2964 1.350 1_556 S
C2962 C2966 1.334 1_556 S
C2963 C2966 1.463 1_556 S
C2963 C2968 1.334 1_556 S
C2963 N2971 1.427 . S
C2964 H2955 0.930 . S
C2964 C2962 1.350 1_554 S
C2964 C2965 1.367 . S
C2965 C2964 1.367 . S
C2965 C2967 1.433 . S
C2966 C2962 1.334 1_554 S
C2966 C2963 1.463 1_554 S
C2966 N2970 1.427 . S
C2967 H2957 0.929 . S
C2967 C2965 1.433 . S
C2967 N2970 1.384 . S
C2968 H2959 0.975 . S
C2968 C2960 1.350 1_554 S
C2968 C2963 1.334 1_554 S
C2969 H2956 0.929 . S
C2969 C2961 1.433 . S
C2969 N2971 1.384 . S
N2970 C2966 1.427 . S
N2970 C2967 1.384 . S
N2971 C2963 1.427 . S
N2971 C2969 1.384 . S
H2972 C2978 0.930 . S
H2973 C2982 0.930 . S
H2974 C2987 0.929 . S
H2975 C2985 0.929 . S
H2976 C2980 0.929 . S
H2977 C2986 0.929 . S
C2978 H2972 0.930 . S
C2978 C2979 1.367 . S
C2978 C2986 1.378 . S
C2979 C2978 1.367 . S
C2979 C2987 1.433 . S
C2980 H2976 0.929 . S
C2980 C2982 1.378 . S
C2980 C2984 1.350 . S
C2981 C2984 1.463 . S
C2981 C2986 1.350 . S
C2981 N2989 1.427 . S
C2982 H2973 0.930 . S
C2982 C2980 1.378 . S
C2982 C2983 1.367 . S
C2983 C2982 1.367 . S
C2983 C2985 1.433 . S
C2984 C2980 1.350 . S
C2984 C2981 1.463 . S
C2984 N2988 1.427 . S
C2985 H2975 0.929 . S
C2985 C2983 1.433 . S
C2985 N2988 1.384 . S
C2986 H2977 0.929 . S
C2986 C2978 1.378 . S
C2986 C2981 1.350 . S
C2987 H2974 0.929 . S
C2987 C2979 1.433 . S
C2987 N2989 1.384 . S
N2988 C2984 1.427 . S
N2988 C2985 1.384 . S
N2989 C2981 1.427 . S
N2989 C2987 1.384 . S
H2990 C2996 0.930 . S
H2991 C3000 0.930 . S
H2992 C3005 0.929 . S
H2993 C3003 0.929 . S
H2994 C2998 0.929 . S
H2995 C3004 0.929 . S
C2996 H2990 0.930 . S
C2996 C2997 1.367 . S
C2996 C3004 1.378 . S
C2997 C2996 1.367 . S
C2997 C3005 1.433 . S
C2998 H2994 0.929 . S
C2998 C3000 1.378 . S
C2998 C3002 1.350 . S
C2999 C3002 1.463 . S
C2999 C3004 1.350 . S
C2999 N3007 1.427 . S
C3000 H2991 0.930 . S
C3000 C2998 1.378 . S
C3000 C3001 1.367 . S
C3001 C3000 1.367 . S
C3001 C3003 1.433 . S
C3002 C2998 1.350 . S
C3002 C2999 1.463 . S
C3002 N3006 1.427 . S
C3003 H2993 0.929 . S
C3003 C3001 1.433 . S
C3003 N3006 1.384 . S
C3004 H2995 0.929 . S
C3004 C2996 1.378 . S
C3004 C2999 1.350 . S
C3005 H2992 0.929 . S
C3005 C2997 1.433 . S
C3005 N3007 1.384 . S
N3006 C3002 1.427 . S
N3006 C3003 1.384 . S
N3007 C2999 1.427 . S
N3007 C3005 1.384 . S
C1287 C6 0.509 . S
C1291 C1099 0.559 . S
C1305 C46 0.514 . S
C1309 C339 0.565 . S
C1323 C86 0.520 . S
C1327 C1019 0.569 . S
C1341 C419 0.556 . S
C1345 C126 0.506 . S
C1359 C166 0.499 . S
C1363 C1179 0.549 . S
C1377 C579 0.549 . S
C1381 C206 0.499 . S
C1395 C1259 0.547 . S
C1399 C246 0.498 . S
C1413 C286 0.503 . S
C1417 C499 0.553 . S
C1431 C335 0.533 . S
C1435 C770 0.584 . S
C1449 C375 0.513 . S
C1453 C10 0.561 . S
C1467 C690 0.586 . S
C1471 C415 0.535 . S
C1485 C90 0.550 . S
C1489 C455 0.500 . S
C1503 C495 0.489 . S
C1507 C850 0.538 . S
C1521 C535 0.536 . S
C1525 C250 0.587 . S
C1539 C575 0.531 . S
C1543 C930 0.582 . S
C1557 C170 0.560 . S
C1561 C615 0.512 . S
C1575 C459 0.563 . S
C1579 C646 0.512 . S
C1593 C979 0.542 . S
C1597 C686 0.494 . S
C1611 C379 0.548 . S
C1615 C726 0.500 . S
C1629 C766 0.526 . S
C1633 C1059 0.577 . S
C1647 C539 0.540 . S
C1651 C806 0.491 . S
C1665 C1219 0.580 . S
C1669 C846 0.530 . S
C1683 C619 0.551 . S
C1687 C886 0.503 . S
C1701 C926 0.491 . S
C1705 C1139 0.540 . S
C1719 C975 0.539 . S
C1723 C130 0.589 . S
C1737 C1015 0.510 . S
C1741 C650 0.558 . S
C1755 C1055 0.523 . S
C1759 C50 0.574 . S
C1773 C1095 0.492 . S
C1777 C730 0.540 . S
C1791 C210 0.542 . S
C1795 C1135 0.493 . S
C1809 C890 0.542 . S
C1813 C1175 0.493 . S
C1827 C1215 0.532 . S
C1831 C290 0.583 . S
C1845 C1255 0.535 . S
C1849 C810 0.586 . S
C1863 C18 2.672 . S
C1867 C738 2.671 . S
C1881 C778 2.667 . S
C1885 C58 2.666 . S
C1899 C98 2.662 . S
C1903 C658 2.664 . S
C1917 C138 2.667 . S
C1921 C698 2.668 . S
C1935 C898 2.663 . S
C1939 C178 2.662 . S
C1953 C218 2.668 . S
C1957 C938 2.669 . S
C1971 C818 2.666 . S
C1975 C258 2.667 . S
C1989 C298 2.661 . S
C1993 C858 2.660 . S
C2007 C1049 2.665 . S
C2011 C329 2.667 . S
C2025 C369 2.661 . S
C2029 C1089 2.662 . S
C2043 C409 2.664 . S
C2047 C969 2.666 . S
C2061 C449 2.668 . S
C2065 C1009 2.667 . S
C2079 C1209 2.672 . S
C2083 C489 2.671 . S
C2097 C1249 2.669 . S
C2101 C529 2.668 . S
C2115 C569 2.661 . S
C2119 C1129 2.662 . S
C2133 C609 2.670 . S
C2137 C1169 2.671 . S
C2151 C19 3.280 . S
C2155 C970 3.280 . S
C2169 C370 3.283 . S
C2173 C59 3.283 . S
C2187 C99 3.283 . S
C2191 C1050 3.283 . S
C2205 C139 3.285 . S
C2209 C450 3.285 . S
C2223 C1130 3.284 . S
C2227 C179 3.284 . S
C2241 C530 3.280 . S
C2245 C219 3.280 . S
C2259 C259 3.279 . S
C2263 C1210 3.279 . S
C2277 C299 3.284 . S
C2281 C610 3.284 . S
C2295 C659 3.279 . S
C2299 C330 3.279 . S
C2313 C739 3.283 . S
C2317 C410 3.283 . S
C2331 C819 3.278 . S
C2335 C490 3.278 . S
C2349 C570 3.284 . S
C2353 C899 3.284 . S
C2367 C699 3.283 . S
C2371 C1010 3.283 . S
C2385 C779 3.285 . S
C2389 C1090 3.285 . S
C2403 C1170 3.279 . S
C2407 C859 3.279 . S
C2421 C1250 3.278 . S
C2425 C939 3.278 . S
C2439 C9 4.591 . S
C2443 C209 4.591 . S
C2457 C249 4.591 . S
C2461 C49 4.590 . S
C2475 C289 4.590 . S
C2479 C89 4.589 . S
C2493 C169 4.592 . S
C2497 C129 4.591 . S
C2511 C338 4.587 . S
C2515 C538 4.587 . S
C2529 C378 4.592 . S
C2533 C578 4.592 . S
C2547 C618 4.591 . S
C2551 C418 4.591 . S
C2565 C458 4.586 . S
C2569 C498 4.586 . S
C2583 C649 4.587 . S
C2587 C849 4.588 . S
C2601 C689 4.590 . S
C2605 C889 4.589 . S
C2619 C729 4.585 . S
C2623 C929 4.586 . S
C2637 C809 4.589 . S
C2641 C769 4.588 . S
C2655 C978 4.588 . S
C2659 C1178 4.588 . S
C2673 C1018 4.586 . S
C2677 C1218 4.586 . S
C2691 C1258 4.586 . S
C2695 C1058 4.586 . S
C2709 C1098 4.592 . S
C2713 C1138 4.592 . S
C2727 C15 0.654 . S
C2731 C175 0.656 . S
C2745 C55 0.668 . S
C2749 C215 0.678 . S
C2763 C255 0.679 . S
C2767 C95 0.670 . S
C2781 C295 0.671 . S
C2785 C135 0.660 . S
C2799 C326 0.665 . S
C2803 C486 0.656 . S
C2817 C526 0.674 . S
C2821 C366 0.681 . S
C2835 C566 0.658 . S
C2839 C406 0.654 . S
C2853 C606 0.655 . S
C2857 C446 0.662 . S
C2871 C655 0.681 . S
C2875 C815 0.673 . S
C2889 C855 0.666 . S
C2893 C695 0.676 . S
C2907 C735 0.670 . S
C2911 C895 0.679 . S
C2925 C935 0.672 . S
C2929 C775 0.681 . S
C2943 C1126 0.661 . S
C2947 C966 0.655 . S
C2961 C1006 0.681 . S
C2965 C1166 0.674 . S
C2979 C1046 0.654 . S
C2983 C1206 0.657 . S
C2997 C1086 0.670 . S
C3001 C1246 0.680 . S
