# Generated by pormake.
# Topology pcl, (4)-cn, num edge types: 1
# Building blocks:
#     Node 0, Type 0, BuildingBlock: CEKHIL_clean_sbu_0, # of connection points: 4
#     Node 1, Type 0, BuildingBlock: CEKHIL_clean_sbu_0, # of connection points: 4
#     Node 2, Type 0, BuildingBlock: CEKHIL_clean_sbu_0, # of connection points: 4
#     Node 3, Type 0, BuildingBlock: CEKHIL_clean_sbu_0, # of connection points: 4
#     Node 4, Type 0, BuildingBlock: CEKHIL_clean_sbu_0, # of connection points: 4
#     Node 5, Type 0, BuildingBlock: CEKHIL_clean_sbu_0, # of connection points: 4
#     Node 6, Type 0, BuildingBlock: CEKHIL_clean_sbu_0, # of connection points: 4
#     Node 7, Type 0, BuildingBlock: CEKHIL_clean_sbu_0, # of connection points: 4
#     Node 8, Type 0, BuildingBlock: CEKHIL_clean_sbu_0, # of connection points: 4
#     Node 9, Type 0, BuildingBlock: CEKHIL_clean_sbu_0, # of connection points: 4
#     Node 10, Type 0, BuildingBlock: CEKHIL_clean_sbu_0, # of connection points: 4
#     Node 11, Type 0, BuildingBlock: CEKHIL_clean_sbu_0, # of connection points: 4
#     Node 12, Type 0, BuildingBlock: CEKHIL_clean_sbu_0, # of connection points: 4
#     Node 13, Type 0, BuildingBlock: CEKHIL_clean_sbu_0, # of connection points: 4
#     Node 14, Type 0, BuildingBlock: CEKHIL_clean_sbu_0, # of connection points: 4
#     Node 15, Type 0, BuildingBlock: CEKHIL_clean_sbu_0, # of connection points: 4
#     Edge 16, Type (0, 0), BuildingBlock: XIVTED_clean_linker_0, # of connection points: 2
#     Edge 17, Type (0, 0), BuildingBlock: XIVTED_clean_linker_0, # of connection points: 2
#     Edge 18, Type (0, 0), BuildingBlock: XIVTED_clean_linker_0, # of connection points: 2
#     Edge 19, Type (0, 0), BuildingBlock: XIVTED_clean_linker_0, # of connection points: 2
#     Edge 20, Type (0, 0), BuildingBlock: XIVTED_clean_linker_0, # of connection points: 2
#     Edge 21, Type (0, 0), BuildingBlock: XIVTED_clean_linker_0, # of connection points: 2
#     Edge 22, Type (0, 0), BuildingBlock: XIVTED_clean_linker_0, # of connection points: 2
#     Edge 23, Type (0, 0), BuildingBlock: XIVTED_clean_linker_0, # of connection points: 2
#     Edge 24, Type (0, 0), BuildingBlock: XIVTED_clean_linker_0, # of connection points: 2
#     Edge 25, Type (0, 0), BuildingBlock: XIVTED_clean_linker_0, # of connection points: 2
#     Edge 26, Type (0, 0), BuildingBlock: XIVTED_clean_linker_0, # of connection points: 2
#     Edge 27, Type (0, 0), BuildingBlock: XIVTED_clean_linker_0, # of connection points: 2
#     Edge 28, Type (0, 0), BuildingBlock: XIVTED_clean_linker_0, # of connection points: 2
#     Edge 29, Type (0, 0), BuildingBlock: XIVTED_clean_linker_0, # of connection points: 2
#     Edge 30, Type (0, 0), BuildingBlock: XIVTED_clean_linker_0, # of connection points: 2
#     Edge 31, Type (0, 0), BuildingBlock: XIVTED_clean_linker_0, # of connection points: 2
#     Edge 32, Type (0, 0), BuildingBlock: XIVTED_clean_linker_0, # of connection points: 2
#     Edge 33, Type (0, 0), BuildingBlock: XIVTED_clean_linker_0, # of connection points: 2
#     Edge 34, Type (0, 0), BuildingBlock: XIVTED_clean_linker_0, # of connection points: 2
#     Edge 35, Type (0, 0), BuildingBlock: XIVTED_clean_linker_0, # of connection points: 2
#     Edge 36, Type (0, 0), BuildingBlock: XIVTED_clean_linker_0, # of connection points: 2
#     Edge 37, Type (0, 0), BuildingBlock: XIVTED_clean_linker_0, # of connection points: 2
#     Edge 38, Type (0, 0), BuildingBlock: XIVTED_clean_linker_0, # of connection points: 2
#     Edge 39, Type (0, 0), BuildingBlock: XIVTED_clean_linker_0, # of connection points: 2
#     Edge 40, Type (0, 0), BuildingBlock: XIVTED_clean_linker_0, # of connection points: 2
#     Edge 41, Type (0, 0), BuildingBlock: XIVTED_clean_linker_0, # of connection points: 2
#     Edge 42, Type (0, 0), BuildingBlock: XIVTED_clean_linker_0, # of connection points: 2
#     Edge 43, Type (0, 0), BuildingBlock: XIVTED_clean_linker_0, # of connection points: 2
#     Edge 44, Type (0, 0), BuildingBlock: XIVTED_clean_linker_0, # of connection points: 2
#     Edge 45, Type (0, 0), BuildingBlock: XIVTED_clean_linker_0, # of connection points: 2
#     Edge 46, Type (0, 0), BuildingBlock: XIVTED_clean_linker_0, # of connection points: 2
#     Edge 47, Type (0, 0), BuildingBlock: XIVTED_clean_linker_0, # of connection points: 2
# Relax obj value: 0.073
# Max RMSD: 0.055
# Mean RMSD: 0.054
data_MOF--net-pcl--node1-CEKHIL_clean_sbu_0--edge1-XIVTED_clean_linker_0
_symmetry_space_group_name_H-M    P1
_symmetry_Int_Tables_number       1
_symmetry_cell_setting            triclinic
loop_
_symmetry_equiv_pos_as_xyz
'x, y, z'
_cell_length_a     52.927464
_cell_length_b     40.965495
_cell_length_c     42.855763
_cell_angle_alpha  90.011105
_cell_angle_beta   89.990028
_cell_angle_gamma 89.987415
loop_
_atom_site_label
_atom_site_type_symbol
_atom_site_fract_x
_atom_site_fract_y
_atom_site_fract_z
_atom_type_partial_charge
Co0 Co 0.13463 0.3398 0.07479 0.0
O1 O 0.17078 0.33567 0.07014 0.0
O2 O 0.14329 0.29678 0.05902 0.0
C3 C 0.13224 0.38934 0.05164 0.0
O4 O 0.09598 0.33516 0.0754 0.0
Co5 Co 0.10951 0.39572 0.11251 0.0
O6 O 0.07916 0.38372 0.08811 0.0
C7 C 0.13063 0.33805 0.14551 0.0
C8 C 0.1667 0.30647 0.05956 0.0
C9 C 0.07701 0.35479 0.07767 0.0
O10 O 0.13691 0.32442 0.11954 0.0
O11 O 0.1204 0.36631 0.14745 0.0
O12 O 0.13278 0.36289 0.03491 0.0
O13 O 0.13458 0.3852 0.08134 0.0
Co14 Co 0.87144 0.6624 0.57132 0.0
O15 O 0.8351 0.66576 0.56966 0.0
O16 O 0.86134 0.70569 0.55746 0.0
C17 C 0.87316 0.61353 0.54666 0.0
O18 O 0.91009 0.66764 0.56925 0.0
Co19 Co 0.89868 0.60512 0.6052 0.0
O20 O 0.9278 0.61887 0.57938 0.0
C21 C 0.87901 0.66186 0.64147 0.0
C22 C 0.83814 0.69534 0.5596 0.0
C23 C 0.92931 0.64821 0.56983 0.0
O24 O 0.8714 0.67655 0.6166 0.0
O25 O 0.8891 0.63341 0.64146 0.0
O26 O 0.8715 0.64038 0.53067 0.0
O27 O 0.87224 0.61691 0.57653 0.0
Co28 Co 0.13929 0.6602 0.92968 0.0
O29 O 0.17529 0.66433 0.9354 0.0
O30 O 0.14773 0.70391 0.94383 0.0
C31 C 0.13597 0.61169 0.95463 0.0
O32 O 0.1007 0.66459 0.9275 0.0
Co33 Co 0.11622 0.60204 0.89245 0.0
O34 O 0.08455 0.61592 0.9134 0.0
C35 C 0.14292 0.6555 0.85958 0.0
C36 C 0.17113 0.69409 0.94436 0.0
C37 C 0.08196 0.64479 0.92396 0.0
O38 O 0.14297 0.67332 0.88435 0.0
O39 O 0.13539 0.6258 0.85901 0.0
O40 O 0.13631 0.63873 0.97049 0.0
O41 O 0.13931 0.61482 0.92501 0.0
Co42 Co 0.87337 0.34087 0.42804 0.0
O43 O 0.83749 0.33637 0.43441 0.0
O44 O 0.86537 0.29713 0.44263 0.0
C45 C 0.87648 0.38959 0.45271 0.0
O46 O 0.91196 0.33698 0.42497 0.0
Co47 Co 0.89529 0.39918 0.39 0.0
O48 O 0.92762 0.38546 0.40942 0.0
C49 C 0.86846 0.34515 0.35815 0.0
C50 C 0.84192 0.30671 0.44342 0.0
C51 C 0.93056 0.35674 0.42023 0.0
O52 O 0.86926 0.3274 0.38293 0.0
O53 O 0.87552 0.37505 0.35732 0.0
O54 O 0.87668 0.36262 0.46867 0.0
O55 O 0.87283 0.38625 0.42317 0.0
Co56 Co 0.84105 0.66744 0.91621 0.0
O57 O 0.80481 0.67255 0.91957 0.0
O58 O 0.83254 0.69215 0.95329 0.0
C59 C 0.84413 0.68005 0.86485 0.0
O60 O 0.87971 0.66837 0.9204 0.0
Co61 Co 0.8652 0.61534 0.87243 0.0
O62 O 0.89689 0.63961 0.88095 0.0
C63 C 0.84009 0.59484 0.93055 0.0
C64 C 0.80903 0.68884 0.94504 0.0
C65 C 0.89885 0.65897 0.90406 0.0
O66 O 0.83907 0.62473 0.94002 0.0
O67 O 0.84753 0.58672 0.90322 0.0
O68 O 0.84264 0.70329 0.88544 0.0
O69 O 0.84148 0.65094 0.87566 0.0
Co70 Co 0.1712 0.33169 0.41388 0.0
O71 O 0.20701 0.32646 0.42029 0.0
O72 O 0.17768 0.31123 0.45402 0.0
C73 C 0.17117 0.3128 0.3645 0.0
O74 O 0.13248 0.33223 0.41503 0.0
Co75 Co 0.1502 0.37789 0.36267 0.0
O76 O 0.11813 0.35391 0.3702 0.0
C77 C 0.17021 0.40559 0.42151 0.0
C78 C 0.20155 0.31322 0.44694 0.0
C79 C 0.11447 0.33874 0.39575 0.0
O80 O 0.17259 0.37668 0.43306 0.0
O81 O 0.16336 0.41092 0.39329 0.0
O82 O 0.17019 0.2924 0.38768 0.0
O83 O 0.17372 0.34313 0.37176 0.0
Co84 Co 0.8371 0.33189 0.08609 0.0
O85 O 0.80133 0.32718 0.07893 0.0
O86 O 0.83105 0.30916 0.04703 0.0
C87 C 0.83534 0.3164 0.13655 0.0
O88 O 0.8758 0.33126 0.0857 0.0
Co89 Co 0.85876 0.37962 0.13561 0.0
O90 O 0.89065 0.35494 0.12931 0.0
C91 C 0.83846 0.40505 0.07583 0.0
C92 C 0.8071 0.31211 0.05328 0.0
C93 C 0.89399 0.33839 0.10449 0.0
O94 O 0.83664 0.37586 0.06473 0.0
O95 O 0.84494 0.4111 0.10406 0.0
O96 O 0.83674 0.29433 0.11481 0.0
O97 O 0.83403 0.34618 0.1272 0.0
Co98 Co 0.169 0.66752 0.58295 0.0
O99 O 0.20504 0.67175 0.57725 0.0
O100 O 0.17633 0.69286 0.54573 0.0
C101 C 0.16993 0.67927 0.63449 0.0
O102 O 0.13026 0.66926 0.58152 0.0
Co103 Co 0.14578 0.61677 0.62856 0.0
O104 O 0.11444 0.64278 0.62312 0.0
C105 C 0.16736 0.59535 0.568 0.0
C106 C 0.2001 0.68884 0.55252 0.0
C107 C 0.1117 0.66124 0.59944 0.0
O108 O 0.16927 0.62518 0.55862 0.0
O109 O 0.1605 0.58753 0.59569 0.0
O110 O 0.16938 0.70286 0.61421 0.0
O111 O 0.17097 0.65026 0.6231 0.0
Co112 Co 0.63678 0.84018 0.07126 0.0
O113 O 0.6726 0.83624 0.06401 0.0
O114 O 0.64511 0.79631 0.05714 0.0
C115 C 0.63275 0.88835 0.04581 0.0
O116 O 0.59826 0.83566 0.07534 0.0
Co117 Co 0.61476 0.89893 0.10869 0.0
O118 O 0.58233 0.88422 0.09029 0.0
C119 C 0.64272 0.84614 0.14098 0.0
C120 C 0.66841 0.80637 0.05549 0.0
C121 C 0.57954 0.85525 0.08009 0.0
O122 O 0.64184 0.82779 0.11659 0.0
O123 O 0.63526 0.87589 0.14136 0.0
O124 O 0.63258 0.86107 0.03033 0.0
O125 O 0.63687 0.88564 0.07531 0.0
Co126 Co 0.37362 0.16577 0.57364 0.0
O127 O 0.33739 0.17053 0.57097 0.0
O128 O 0.36485 0.20947 0.55985 0.0
C129 C 0.37483 0.1171 0.54859 0.0
O130 O 0.41233 0.16975 0.57258 0.0
Co131 Co 0.39929 0.10736 0.60757 0.0
O132 O 0.42908 0.12042 0.58259 0.0
C133 C 0.37993 0.16422 0.64397 0.0
C134 C 0.34139 0.20003 0.56116 0.0
C135 C 0.4312 0.14982 0.57337 0.0
O136 O 0.37306 0.17946 0.61906 0.0
O137 O 0.38949 0.13547 0.64387 0.0
O138 O 0.37394 0.14414 0.5328 0.0
O139 O 0.37345 0.12023 0.57846 0.0
Co140 Co 0.6367 0.16058 0.9264 0.0
O141 O 0.67295 0.16504 0.92962 0.0
O142 O 0.64547 0.2039 0.94101 0.0
C143 C 0.63485 0.11149 0.95044 0.0
O144 O 0.59809 0.16509 0.92737 0.0
Co145 Co 0.61071 0.10406 0.89053 0.0
O146 O 0.5811 0.11622 0.91629 0.0
C147 C 0.63087 0.16117 0.85581 0.0
C148 C 0.66891 0.19442 0.93981 0.0
C149 C 0.57916 0.1453 0.92644 0.0
O150 O 0.63776 0.17519 0.88134 0.0
O151 O 0.62065 0.13285 0.85469 0.0
O152 O 0.63589 0.13822 0.96671 0.0
O153 O 0.63652 0.11508 0.92059 0.0
Co154 Co 0.3726 0.84421 0.431 0.0
O155 O 0.3373 0.83938 0.44061 0.0
O156 O 0.36568 0.80032 0.44644 0.0
C157 C 0.3771 0.89317 0.455 0.0
O158 O 0.41099 0.84132 0.42401 0.0
Co159 Co 0.38893 0.90301 0.38916 0.0
O160 O 0.42334 0.88602 0.39717 0.0
C161 C 0.36149 0.84741 0.36199 0.0
C162 C 0.34223 0.80968 0.44896 0.0
C163 C 0.42816 0.85921 0.41109 0.0
O164 O 0.36582 0.8301 0.38648 0.0
O165 O 0.36641 0.87794 0.3602 0.0
O166 O 0.3784 0.86632 0.47107 0.0
O167 O 0.37112 0.88949 0.42611 0.0
Co168 Co 0.33911 0.16881 0.91862 0.0
O169 O 0.3029 0.17385 0.92231 0.0
O170 O 0.33084 0.19393 0.95552 0.0
C171 C 0.34184 0.1808 0.86707 0.0
O172 O 0.37773 0.16986 0.92246 0.0
Co173 Co 0.36324 0.11645 0.87519 0.0
O174 O 0.39473 0.14155 0.88263 0.0
C175 C 0.33899 0.09637 0.93404 0.0
C176 C 0.30729 0.19045 0.94757 0.0
C177 C 0.39678 0.16079 0.90582 0.0
O178 O 0.33745 0.1264 0.94298 0.0
O179 O 0.34646 0.08793 0.90681 0.0
O180 O 0.34046 0.20427 0.88744 0.0
O181 O 0.3393 0.15181 0.87825 0.0
Co182 Co 0.66971 0.83662 0.41694 0.0
O183 O 0.70497 0.82999 0.42605 0.0
O184 O 0.67367 0.81117 0.45501 0.0
C185 C 0.67307 0.8242 0.36566 0.0
O186 O 0.63094 0.83768 0.414 0.0
Co187 Co 0.6533 0.88973 0.36902 0.0
O188 O 0.6206 0.86619 0.37095 0.0
C189 C 0.67096 0.90907 0.43183 0.0
C190 C 0.69793 0.81362 0.4504 0.0
C191 C 0.61467 0.84756 0.39363 0.0
O192 O 0.67025 0.87913 0.44115 0.0
O193 O 0.66704 0.91757 0.40348 0.0
O194 O 0.67042 0.80091 0.38601 0.0
O195 O 0.67514 0.85311 0.37704 0.0
Co196 Co 0.33931 0.83261 0.08966 0.0
O197 O 0.30358 0.82828 0.08204 0.0
O198 O 0.33341 0.80944 0.05075 0.0
C199 C 0.33676 0.81767 0.14021 0.0
O200 O 0.37807 0.83157 0.09003 0.0
Co201 Co 0.36048 0.8809 0.13889 0.0
O202 O 0.39229 0.85583 0.13368 0.0
C203 C 0.34098 0.90562 0.0785 0.0
C204 C 0.30942 0.8128 0.05665 0.0
C205 C 0.39599 0.83887 0.10919 0.0
O206 O 0.33929 0.87628 0.06778 0.0
O207 O 0.34714 0.91209 0.10675 0.0
O208 O 0.33834 0.79538 0.11869 0.0
O209 O 0.33576 0.84738 0.13058 0.0
Co210 Co 0.67112 0.17181 0.58715 0.0
O211 O 0.70712 0.17674 0.5819 0.0
O212 O 0.67854 0.19219 0.54731 0.0
C213 C 0.67006 0.19067 0.63651 0.0
O214 O 0.63247 0.17179 0.58456 0.0
Co215 Co 0.6484 0.12595 0.63752 0.0
O216 O 0.61667 0.15018 0.62867 0.0
C217 C 0.66969 0.09792 0.57949 0.0
C218 C 0.70224 0.19012 0.55514 0.0
C219 C 0.61387 0.16548 0.60303 0.0
O220 O 0.67266 0.12677 0.56803 0.0
O221 O 0.66201 0.09273 0.60741 0.0
O222 O 0.66981 0.2111 0.61333 0.0
O223 O 0.67251 0.1603 0.62935 0.0
H224 H 0.05544 0.30084 0.10355 0.0
H225 H 0.91542 0.3426 0.04663 0.0
H226 H 0.03945 0.38242 0.04324 0.0
H227 H 0.93251 0.31797 0.14213 0.0
H228 H 0.96076 0.33933 0.0342 0.0
H229 H 0.00987 0.28902 0.10624 0.0
C230 C 0.04241 0.31548 0.08998 0.0
C231 C 0.05108 0.34255 0.07305 0.0
C232 C 0.95441 0.33396 0.05768 0.0
C233 C 0.99934 0.32914 0.07591 0.0
C234 C 0.92863 0.33563 0.06475 0.0
C235 C 0.9203 0.33068 0.09548 0.0
C236 C 0.9718 0.32642 0.08132 0.0
C237 C 0.93822 0.32213 0.1182 0.0
C238 C 0.01649 0.30893 0.09177 0.0
C239 C 0.03342 0.36127 0.05644 0.0
N240 N 0.96316 0.32027 0.11068 0.0
N241 N 0.00835 0.35427 0.05831 0.0
H242 H 0.96572 0.62327 0.53183 0.0
H243 H 0.07389 0.68153 0.63805 0.0
H244 H 0.95179 0.69999 0.59839 0.0
H245 H 0.08992 0.66039 0.54154 0.0
H246 H 0.02902 0.68756 0.62494 0.0
H247 H 0.0111 0.63534 0.53435 0.0
C248 C 0.9722 0.64335 0.54621 0.0
C249 C 0.95506 0.66094 0.56466 0.0
C250 C 0.04242 0.68229 0.60652 0.0
C251 C 0.00688 0.67381 0.56878 0.0
C252 C 0.06798 0.67877 0.61399 0.0
C253 C 0.08558 0.67052 0.59082 0.0
C254 C 0.03428 0.67637 0.57586 0.0
C255 C 0.07694 0.66702 0.56002 0.0
C256 C 0.99806 0.65014 0.54773 0.0
C257 C 0.96441 0.68625 0.58345 0.0
N258 N 0.05179 0.6692 0.55353 0.0
N259 N 0.98978 0.69141 0.58565 0.0
H260 H 0.92114 0.65096 0.96098 0.0
H261 H 0.05938 0.70004 0.90159 0.0
H262 H 0.93543 0.68601 0.86785 0.0
H263 H 0.04514 0.61445 0.95732 0.0
H264 H 0.01373 0.71194 0.90177 0.0
H265 H 0.96672 0.65473 0.97219 0.0
C266 C 0.93378 0.66049 0.9433 0.0
C267 C 0.92468 0.66824 0.91349 0.0
C268 C 0.02077 0.69104 0.91458 0.0
C269 C 0.97639 0.67281 0.92613 0.0
C270 C 0.04673 0.68439 0.91467 0.0
C271 C 0.05588 0.65622 0.92943 0.0
C272 C 1.0041 0.66979 0.93 0.0
C273 C 0.03872 0.63637 0.94563 0.0
C274 C 0.9597 0.66239 0.94961 0.0
C275 C 0.94182 0.67985 0.89113 0.0
N276 N 0.01362 0.64348 0.94545 0.0
N277 N 0.96689 0.68173 0.89786 0.0
H278 H 0.09219 0.34672 0.4528 0.0
H279 H 0.95265 0.30237 0.39546 0.0
H280 H 0.07646 0.31624 0.35849 0.0
H281 H 0.9682 0.38643 0.45277 0.0
H282 H 0.99831 0.29069 0.3934 0.0
H283 H 0.04663 0.3446 0.46428 0.0
C284 C 0.07922 0.33873 0.4348 0.0
C285 C 0.088 0.33178 0.40462 0.0
C286 C 0.99157 0.3112 0.40701 0.0
C287 C 0.03624 0.32888 0.4177 0.0
C288 C 0.96562 0.31771 0.40841 0.0
C289 C 0.9568 0.34534 0.42436 0.0
C290 C 0.00861 0.33204 0.42234 0.0
C291 C 0.97435 0.36487 0.44027 0.0
C292 C 0.05331 0.33773 0.44131 0.0
C293 C 0.07039 0.32196 0.382 0.0
N294 N 0.99945 0.35787 0.43887 0.0
N295 N 0.04532 0.3208 0.38897 0.0
H296 H 0.43363 0.81946 0.14854 0.0
H297 H 0.54254 0.88107 0.04376 0.0
H298 H 0.41878 0.84148 0.05192 0.0
H299 H 0.55685 0.80455 0.11037 0.0
H300 H 0.49716 0.86891 0.0466 0.0
H301 H 0.47884 0.8153 0.1365 0.0
C302 C 0.43988 0.82284 0.12468 0.0
C303 C 0.42248 0.83078 0.10117 0.0
C304 C 0.51028 0.85426 0.06003 0.0
C305 C 0.47414 0.82705 0.08746 0.0
C306 C 0.5361 0.86115 0.05837 0.0
C307 C 0.55334 0.8435 0.0766 0.0
C308 C 0.50158 0.83042 0.08097 0.0
C309 C 0.54411 0.81834 0.09564 0.0
C310 C 0.46563 0.8204 0.11783 0.0
C311 C 0.43156 0.83508 0.07066 0.0
N312 N 0.51876 0.813 0.09788 0.0
N313 N 0.45686 0.83389 0.06479 0.0
H314 H 0.59318 0.15874 0.54491 0.0
H315 H 0.45281 0.20418 0.59857 0.0
H316 H 0.57507 0.18825 0.63886 0.0
H317 H 0.46886 0.12172 0.53933 0.0
H318 H 0.49838 0.21574 0.60153 0.0
H319 H 0.54804 0.16224 0.53139 0.0
C320 C 0.57979 0.16679 0.56242 0.0
C321 C 0.58775 0.17306 0.59308 0.0
C322 C 0.49178 0.19568 0.58723 0.0
C323 C 0.53649 0.17757 0.57768 0.0
C324 C 0.46585 0.18928 0.58527 0.0
C325 C 0.45717 0.16201 0.56863 0.0
C326 C 0.50897 0.17509 0.57184 0.0
C327 C 0.47487 0.143 0.55236 0.0
C328 C 0.55412 0.1686 0.55475 0.0
C329 C 0.56963 0.18302 0.61502 0.0
N330 N 0.49997 0.14982 0.55443 0.0
N331 N 0.54482 0.18496 0.60692 0.0
H332 H 0.55723 0.20103 0.90456 0.0
H333 H 0.41847 0.15434 0.96324 0.0
H334 H 0.54233 0.11597 0.96079 0.0
H335 H 0.43392 0.18624 0.86935 0.0
H336 H 0.46393 0.1582 0.97511 0.0
H337 H 0.51173 0.21354 0.90469 0.0
C338 C 0.54449 0.18568 0.91782 0.0
C339 C 0.5534 0.15742 0.93266 0.0
C340 C 0.45718 0.16516 0.9522 0.0
C341 C 0.50176 0.17168 0.93311 0.0
C342 C 0.43134 0.16319 0.9455 0.0
C343 C 0.4226 0.16998 0.9153 0.0
C344 C 0.47414 0.17476 0.92872 0.0
C345 C 0.44002 0.18078 0.8929 0.0
C346 C 0.51861 0.19268 0.91768 0.0
C347 C 0.5361 0.13795 0.94905 0.0
N348 N 0.46501 0.18279 0.90002 0.0
N349 N 0.51106 0.14537 0.94877 0.0
H350 H 0.4583 0.83355 0.45809 0.0
H351 H 0.58027 0.84144 0.34715 0.0
H352 H 0.45856 0.86021 0.36081 0.0
H353 H 0.58704 0.83477 0.44724 0.0
H354 H 0.53472 0.83635 0.35189 0.0
H355 H 0.50429 0.82311 0.45476 0.0
C356 C 0.46793 0.83658 0.43598 0.0
C357 C 0.45473 0.84798 0.40972 0.0
C358 C 0.54605 0.83574 0.37292 0.0
C359 C 0.50686 0.83607 0.4057 0.0
C360 C 0.57215 0.8386 0.3702 0.0
C361 C 0.58751 0.83902 0.39685 0.0
C362 C 0.53487 0.83369 0.40259 0.0
C363 C 0.57587 0.83468 0.42608 0.0
C364 C 0.49412 0.83083 0.43413 0.0
C365 C 0.46805 0.85177 0.38169 0.0
N366 N 0.55015 0.83269 0.42825 0.0
N367 N 0.49324 0.84594 0.38048 0.0
H368 H 0.09823 0.32863 0.19362 0.0
H369 H 0.20345 0.32295 0.31675 0.0
H370 H 0.17504 0.31073 0.16498 0.0
H371 H 0.13022 0.28306 0.3383 0.0
H372 H 0.19411 0.31755 0.26098 0.0
H373 H 0.109 0.31073 0.24648 0.0
C374 C 0.11725 0.32022 0.19842 0.0
C375 C 0.13584 0.32118 0.17514 0.0
C376 C 0.18034 0.30914 0.27786 0.0
C377 C 0.14844 0.30166 0.23553 0.0
C378 C 0.18565 0.31225 0.30958 0.0
C379 C 0.16762 0.30316 0.33183 0.0
C380 C 0.15644 0.29807 0.26845 0.0
C381 C 0.14467 0.28992 0.32165 0.0
C382 C 0.12336 0.30994 0.22849 0.0
C383 C 0.16021 0.31018 0.18238 0.0
N384 N 0.13945 0.28845 0.29057 0.0
N385 N 0.16601 0.30161 0.21223 0.0
H386 H 0.8393 0.69836 0.66492 0.0
H387 H 0.87194 0.63945 0.82888 0.0
H388 H 0.91308 0.66084 0.68809 0.0
H389 H 0.83286 0.7318 0.82552 0.0
H390 H 0.88292 0.64512 0.77464 0.0
H391 H 0.83271 0.71182 0.72061 0.0
C392 C 0.85435 0.69392 0.68152 0.0
C393 C 0.87652 0.67778 0.67221 0.0
C394 C 0.87219 0.66444 0.78573 0.0
C395 C 0.86912 0.6928 0.73507 0.0
C396 C 0.86582 0.66119 0.81689 0.0
C397 C 0.85167 0.68533 0.83202 0.0
C398 C 0.86372 0.69156 0.76887 0.0
C399 C 0.84405 0.71279 0.8147 0.0
C400 C 0.85059 0.70161 0.71314 0.0
C401 C 0.89546 0.67252 0.69448 0.0
N402 N 0.8498 0.71497 0.78365 0.0
N403 N 0.89114 0.67943 0.72489 0.0
H404 H 0.18232 0.63224 0.82701 0.0
H405 H 0.14781 0.7282 0.66991 0.0
H406 H 0.12522 0.70713 0.82487 0.0
H407 H 0.19264 0.64057 0.67653 0.0
H408 H 0.14542 0.72983 0.72754 0.0
H409 H 0.1935 0.64521 0.77331 0.0
C410 C 0.1725 0.65195 0.81526 0.0
C411 C 0.15286 0.66863 0.83013 0.0
C412 C 0.15604 0.71057 0.71623 0.0
C413 C 0.16478 0.68289 0.76817 0.0
C414 C 0.15745 0.70971 0.68349 0.0
C415 C 0.1702 0.68401 0.6686 0.0
C416 C 0.16783 0.68586 0.73382 0.0
C417 C 0.18232 0.66057 0.68707 0.0
C418 C 0.17873 0.65924 0.78453 0.0
C419 C 0.14059 0.69389 0.81402 0.0
N420 N 0.18077 0.66202 0.71855 0.0
N421 N 0.14645 0.69995 0.78356 0.0
H422 H 0.80313 0.34239 0.17777 0.0
H423 H 0.88219 0.28847 0.32803 0.0
H424 H 0.86581 0.27559 0.17144 0.0
H425 H 0.8325 0.37154 0.32175 0.0
H426 H 0.86974 0.27255 0.27457 0.0
H427 H 0.80617 0.34095 0.23437 0.0
C428 C 0.81729 0.3269 0.18849 0.0
C429 C 0.83436 0.30928 0.17013 0.0
C430 C 0.86126 0.29388 0.28522 0.0
C431 C 0.8386 0.30832 0.235 0.0
C432 C 0.86822 0.30281 0.31565 0.0
C433 C 0.8584 0.33142 0.32898 0.0
C434 C 0.84412 0.3135 0.26859 0.0
C435 C 0.8406 0.34945 0.31211 0.0
C436 C 0.81912 0.32618 0.2208 0.0
C437 C 0.85229 0.28945 0.18501 0.0
N438 N 0.83413 0.34027 0.28283 0.0
N439 N 0.85431 0.28996 0.21677 0.0
H440 H 0.6501 0.77558 0.33084 0.0
H441 H 0.68186 0.87121 0.17284 0.0
H442 H 0.696 0.86214 0.32301 0.0
H443 H 0.62684 0.79384 0.17611 0.0
H444 H 0.69397 0.85892 0.22636 0.0
H445 H 0.64706 0.77365 0.27333 0.0
C446 C 0.65985 0.79377 0.31702 0.0
C447 C 0.67309 0.81926 0.33156 0.0
C448 C 0.67946 0.8442 0.21544 0.0
C449 C 0.66991 0.81713 0.26639 0.0
C450 C 0.6727 0.85112 0.1848 0.0
C451 C 0.65337 0.83352 0.17028 0.0
C452 C 0.66633 0.82 0.2321 0.0
C453 C 0.64196 0.80779 0.18666 0.0
C454 C 0.65807 0.79274 0.28432 0.0
C455 C 0.68532 0.84231 0.31275 0.0
N456 N 0.64831 0.8021 0.21704 0.0
N457 N 0.68335 0.84075 0.2813 0.0
H458 H 0.3665 0.13778 0.83009 0.0
H459 H 0.34061 0.20204 0.66658 0.0
H460 H 0.3337 0.23421 0.82848 0.0
H461 H 0.41277 0.16088 0.69184 0.0
H462 H 0.33297 0.2147 0.72225 0.0
H463 H 0.37813 0.14352 0.77603 0.0
C464 C 0.36184 0.16037 0.81852 0.0
C465 C 0.34932 0.18568 0.83413 0.0
C466 C 0.35075 0.20387 0.71526 0.0
C467 C 0.36218 0.19205 0.77122 0.0
C468 C 0.35511 0.19664 0.68364 0.0
C469 C 0.37709 0.17972 0.67487 0.0
C470 C 0.36848 0.19381 0.7377 0.0
C471 C 0.3953 0.1732 0.69776 0.0
C472 C 0.36859 0.16363 0.78749 0.0
C473 C 0.34359 0.21424 0.81731 0.0
N474 N 0.39038 0.17966 0.72812 0.0
N475 N 0.34973 0.21655 0.78638 0.0
H476 H 0.59834 0.16582 0.80717 0.0
H477 H 0.7034 0.18715 0.68408 0.0
H478 H 0.67347 0.19296 0.83599 0.0
H479 H 0.62659 0.2135 0.66256 0.0
H480 H 0.69358 0.19096 0.73988 0.0
H481 H 0.60792 0.18464 0.75431 0.0
C482 C 0.61673 0.17631 0.8024 0.0
C483 C 0.63523 0.17772 0.82577 0.0
C484 C 0.67904 0.19681 0.723 0.0
C485 C 0.64651 0.1985 0.76532 0.0
C486 C 0.68465 0.19467 0.69126 0.0
C487 C 0.66579 0.20035 0.66902 0.0
C488 C 0.65416 0.20346 0.73241 0.0
C489 C 0.64165 0.20936 0.6792 0.0
C490 C 0.62215 0.18716 0.77231 0.0
C491 C 0.65873 0.19154 0.81852 0.0
N492 N 0.63633 0.20996 0.71027 0.0
N493 N 0.66395 0.20073 0.78867 0.0
H494 H 0.30305 0.84414 0.17933 0.0
H495 H 0.37806 0.79183 0.33259 0.0
H496 H 0.36531 0.77641 0.17696 0.0
H497 H 0.32298 0.86902 0.32638 0.0
H498 H 0.36719 0.7751 0.27896 0.0
H499 H 0.30318 0.84186 0.23601 0.0
C500 C 0.31654 0.82834 0.19093 0.0
C501 C 0.33433 0.81068 0.17369 0.0
C502 C 0.35711 0.79519 0.28967 0.0
C503 C 0.33524 0.80869 0.23875 0.0
C504 C 0.36315 0.80454 0.32026 0.0
C505 C 0.35146 0.83193 0.33361 0.0
C506 C 0.33912 0.81327 0.27278 0.0
C507 C 0.33253 0.84792 0.31673 0.0
C508 C 0.31667 0.82708 0.2233 0.0
C509 C 0.35129 0.79037 0.18964 0.0
N510 N 0.32711 0.83853 0.28718 0.0
N511 N 0.3517 0.79041 0.22149 0.0
H512 H 0.25635 0.18116 0.94041 0.0
H513 H 0.21747 0.31723 0.06509 0.0
H514 H 0.31061 0.23307 0.9968 0.0
H515 H 0.16375 0.25059 0.02421 0.0
H516 H 0.25175 0.28716 0.03989 0.0
H517 H 0.22215 0.20685 0.97001 0.0
C518 C 0.26109 0.1979 0.95908 0.0
C519 C 0.28642 0.20504 0.96605 0.0
C520 C 0.2325 0.27891 0.0366 0.0
C521 C 0.24728 0.23471 0.99999 0.0
C522 C 0.21288 0.29609 0.051 0.0
C523 C 0.18765 0.28646 0.04672 0.0
C524 C 0.22692 0.25208 0.01739 0.0
C525 C 0.1829 0.25884 0.02821 0.0
C526 C 0.24153 0.2125 0.97604 0.0
C527 C 0.29138 0.22685 0.99058 0.0
N528 N 0.20231 0.24281 0.01401 0.0
N529 N 0.27201 0.24106 0.00649 0.0
H530 H 0.78801 0.68032 0.56484 0.0
H531 H 0.6902 0.77381 0.50141 0.0
H532 H 0.83809 0.75456 0.52927 0.0
H533 H 0.74926 0.8181 0.44647 0.0
H534 H 0.72245 0.74669 0.53304 0.0
H535 H 0.75228 0.70932 0.5424 0.0
C536 C 0.79145 0.7031 0.55274 0.0
C537 C 0.81617 0.71498 0.54897 0.0
C538 C 0.72845 0.76197 0.51386 0.0
C539 C 0.77497 0.74894 0.52331 0.0
C540 C 0.70995 0.77774 0.49596 0.0
C541 C 0.71698 0.79797 0.47101 0.0
C542 C 0.75422 0.76635 0.50666 0.0
C543 C 0.74289 0.80248 0.46526 0.0
C544 C 0.77089 0.71989 0.54004 0.0
C545 C 0.8194 0.74451 0.53286 0.0
N546 N 0.76048 0.78678 0.48284 0.0
N547 N 0.7991 0.76025 0.52038 0.0
H548 H 0.25879 0.82507 0.05877 0.0
H549 H 0.22189 0.68241 0.94071 0.0
H550 H 0.31434 0.76854 0.00868 0.0
H551 H 0.16804 0.75248 0.97573 0.0
H552 H 0.25601 0.71382 0.9647 0.0
H553 H 0.22545 0.79915 0.02819 0.0
C554 C 0.26401 0.80731 0.04118 0.0
C555 C 0.28943 0.79885 0.0364 0.0
C556 C 0.23677 0.72252 0.96692 0.0
C557 C 0.25118 0.76877 0.00137 0.0
C558 C 0.21724 0.70457 0.95325 0.0
C559 C 0.19201 0.71474 0.95633 0.0
C560 C 0.23108 0.75072 0.98419 0.0
C561 C 0.18718 0.74372 0.97276 0.0
C562 C 0.24492 0.79255 0.02367 0.0
C563 C 0.29501 0.77579 0.01317 0.0
N564 N 0.2065 0.7605 0.98632 0.0
N565 N 0.27603 0.76132 0.99673 0.0
H566 H 0.75308 0.18053 0.56156 0.0
H567 H 0.79116 0.31659 0.43745 0.0
H568 H 0.69842 0.23024 0.50396 0.0
H569 H 0.8453 0.24993 0.47746 0.0
H570 H 0.75702 0.28538 0.46155 0.0
H571 H 0.78707 0.20564 0.53131 0.0
C572 C 0.74821 0.1966 0.54241 0.0
C573 C 0.72283 0.20341 0.53538 0.0
C574 C 0.77632 0.27736 0.46485 0.0
C575 C 0.76177 0.23252 0.50076 0.0
C576 C 0.79587 0.2952 0.45112 0.0
C577 C 0.82117 0.28594 0.45555 0.0
C578 C 0.78205 0.25023 0.48358 0.0
C579 C 0.82608 0.25794 0.47342 0.0
C580 C 0.76766 0.21087 0.52509 0.0
C581 C 0.7177 0.22431 0.51021 0.0
N582 N 0.80673 0.24128 0.48706 0.0
N583 N 0.73699 0.23836 0.49402 0.0
H584 H 0.71909 0.81718 0.06029 0.0
H585 H 0.75809 0.67958 0.9375 0.0
H586 H 0.6652 0.74949 0.0214 0.0
H587 H 0.8121 0.73136 0.99435 0.0
H588 H 0.72374 0.70545 0.96679 0.0
H589 H 0.75325 0.78658 0.03557 0.0
C590 C 0.71444 0.79569 0.04672 0.0
C591 C 0.6892 0.78593 0.04287 0.0
C592 C 0.7431 0.711 0.97299 0.0
C593 C 0.72837 0.7509 0.01405 0.0
C594 C 0.76274 0.69632 0.95621 0.0
C595 C 0.78805 0.70339 0.96339 0.0
C596 C 0.74875 0.73325 0.99694 0.0
C597 C 0.7929 0.72518 0.98796 0.0
C598 C 0.734 0.7782 0.03261 0.0
C599 C 0.68438 0.75784 0.02505 0.0
N600 N 0.77347 0.73949 0.00366 0.0
N601 N 0.70375 0.74149 0.01104 0.0
H602 H 0.29063 0.18922 0.56751 0.0
H603 H 0.25223 0.32433 0.44252 0.0
H604 H 0.34395 0.25704 0.52762 0.0
H605 H 0.19718 0.27255 0.49782 0.0
H606 H 0.28592 0.3002 0.47382 0.0
H607 H 0.25612 0.21961 0.54307 0.0
C608 C 0.29508 0.21072 0.55387 0.0
C609 C 0.32027 0.22051 0.54951 0.0
C610 C 0.26649 0.29427 0.47933 0.0
C611 C 0.28077 0.25522 0.52108 0.0
C612 C 0.2472 0.30799 0.46139 0.0
C613 C 0.22181 0.30032 0.46744 0.0
C614 C 0.26047 0.27229 0.50335 0.0
C615 C 0.21648 0.27912 0.49232 0.0
C616 C 0.27533 0.22807 0.53992 0.0
C617 C 0.32485 0.2486 0.53163 0.0
N618 N 0.23566 0.26558 0.50916 0.0
N619 N 0.30533 0.26473 0.51781 0.0
H620 H 0.75636 0.3235 0.05605 0.0
H621 H 0.71979 0.18303 0.93533 0.0
H622 H 0.81218 0.26877 0.00459 0.0
H623 H 0.66593 0.25216 0.97202 0.0
H624 H 0.75395 0.21417 0.95974 0.0
H625 H 0.72313 0.29779 0.02514 0.0
C626 C 0.76165 0.30617 0.03811 0.0
C627 C 0.78711 0.29817 0.03301 0.0
C628 C 0.73469 0.22271 0.96221 0.0
C629 C 0.749 0.26833 0.99758 0.0
C630 C 0.71515 0.20494 0.94828 0.0
C631 C 0.68991 0.21492 0.95174 0.0
C632 C 0.72897 0.2505 0.98008 0.0
C633 C 0.68507 0.24353 0.96874 0.0
C634 C 0.74263 0.29153 0.02039 0.0
C635 C 0.7928 0.27565 0.00932 0.0
N636 N 0.70437 0.26011 0.98251 0.0
N637 N 0.77389 0.26129 0.99268 0.0
H638 H 0.19629 0.73347 0.50492 0.0
H639 H 0.34626 0.75119 0.48056 0.0
H640 H 0.251 0.67848 0.55788 0.0
H641 H 0.29149 0.81996 0.44538 0.0
H642 H 0.31157 0.71918 0.50342 0.0
H643 H 0.23097 0.76036 0.4771 0.0
C644 C 0.21557 0.72686 0.51054 0.0
C645 C 0.22072 0.70383 0.5339 0.0
C646 C 0.3072 0.74121 0.49054 0.0
C647 C 0.26057 0.73449 0.50213 0.0
C648 C 0.32698 0.75939 0.47741 0.0
C649 C 0.32181 0.7884 0.46121 0.0
C650 C 0.28208 0.75195 0.48714 0.0
C651 C 0.29643 0.7979 0.45789 0.0
C652 C 0.23538 0.74229 0.49472 0.0
C653 C 0.24613 0.69624 0.54017 0.0
N654 N 0.27759 0.77981 0.47072 0.0
N655 N 0.26508 0.71155 0.52446 0.0
H656 H 0.1317 0.55316 0.92495 0.0
H657 H 0.12973 0.44785 0.08212 0.0
H658 H 0.13191 0.5962 0.01686 0.0
H659 H 0.12894 0.4058 0.9898 0.0
H660 H 0.12803 0.50231 0.05894 0.0
H661 H 0.12815 0.49922 0.94848 0.0
C662 C 0.13085 0.55128 0.95014 0.0
C663 C 0.13221 0.57924 0.96899 0.0
C664 C 0.12809 0.4812 0.04373 0.0
C665 C 0.12828 0.51731 0.99618 0.0
C666 C 0.12904 0.45007 0.05695 0.0
C667 C 0.12959 0.42224 0.03783 0.0
C668 C 0.12774 0.48458 0.01113 0.0
C669 C 0.12861 0.42658 0.0054 0.0
C670 C 0.12884 0.5204 0.96357 0.0
C671 C 0.13096 0.57528 0.00147 0.0
N672 N 0.12786 0.45716 0.99308 0.0
N673 N 0.12921 0.54484 0.01406 0.0
H674 H 0.87524 0.59822 0.48433 0.0
H675 H 0.88149 0.40506 0.51475 0.0
H676 H 0.87834 0.55482 0.57599 0.0
H677 H 0.87757 0.44851 0.42316 0.0
H678 H 0.88304 0.45985 0.53763 0.0
H679 H 0.87863 0.54365 0.46131 0.0
C680 C 0.87676 0.57724 0.49959 0.0
C681 C 0.8764 0.58106 0.5321 0.0
C682 C 0.88198 0.45738 0.5125 0.0
C683 C 0.88022 0.51856 0.50601 0.0
C684 C 0.88115 0.4261 0.49946 0.0
C685 C 0.87929 0.42223 0.46704 0.0
C686 C 0.88092 0.48495 0.49297 0.0
C687 C 0.8789 0.45035 0.44831 0.0
C688 C 0.87868 0.54609 0.48647 0.0
C689 C 0.87846 0.55302 0.55079 0.0
N690 N 0.87959 0.48047 0.46153 0.0
N691 N 0.88018 0.52299 0.5375 0.0
H692 H 0.8368 0.46972 0.0919 0.0
H693 H 0.82968 0.53151 0.91581 0.0
H694 H 0.82964 0.40538 0.0125 0.0
H695 H 0.83673 0.59643 0.99473 0.0
H696 H 0.82504 0.48567 0.95137 0.0
H697 H 0.83252 0.51648 0.05729 0.0
C698 C 0.83419 0.46533 0.06719 0.0
C699 C 0.83387 0.43341 0.0551 0.0
C700 C 0.82739 0.50993 0.96099 0.0
C701 C 0.82895 0.4872 0.01526 0.0
C702 C 0.83007 0.53621 0.94068 0.0
C703 C 0.83397 0.5679 0.95229 0.0
C704 C 0.82876 0.51517 0.99326 0.0
C705 C 0.83389 0.57243 0.98474 0.0
C706 C 0.8317 0.49216 0.04744 0.0
C707 C 0.83017 0.42946 0.0229 0.0
N708 N 0.83164 0.54627 0.00412 0.0
N709 N 0.82806 0.45604 0.00408 0.0
H710 H 0.16926 0.47048 0.40556 0.0
H711 H 0.17583 0.53135 0.58208 0.0
H712 H 0.18027 0.40636 0.48443 0.0
H713 H 0.1703 0.59727 0.50375 0.0
H714 H 0.18027 0.48584 0.54613 0.0
H715 H 0.17234 0.51737 0.44043 0.0
C716 C 0.1725 0.46619 0.43017 0.0
C717 C 0.17427 0.43426 0.44206 0.0
C718 C 0.17826 0.51024 0.5367 0.0
C719 C 0.17773 0.4881 0.48216 0.0
C720 C 0.17566 0.53633 0.55726 0.0
C721 C 0.17239 0.56825 0.54595 0.0
C722 C 0.17741 0.51585 0.50445 0.0
C723 C 0.17268 0.57309 0.51352 0.0
C724 C 0.17428 0.49306 0.45006 0.0
C725 C 0.17864 0.43042 0.47415 0.0
N726 N 0.17487 0.54711 0.49388 0.0
N727 N 0.18002 0.45698 0.49308 0.0
H728 H 0.63123 0.09636 0.01254 0.0
H729 H 0.62803 0.90287 0.98347 0.0
H730 H 0.63121 0.0525 0.92099 0.0
H731 H 0.63037 0.94755 0.07462 0.0
H732 H 0.62604 0.95739 0.95994 0.0
H733 H 0.62792 0.04192 0.03566 0.0
C734 C 0.6304 0.07529 0.99731 0.0
C735 C 0.63162 0.07895 0.96482 0.0
C736 C 0.62684 0.95523 0.98511 0.0
C737 C 0.62789 0.01653 0.99106 0.0
C738 C 0.62791 0.92412 0.99852 0.0
C739 C 0.6295 0.92068 0.03101 0.0
C740 C 0.62735 0.98304 0.00436 0.0
C741 C 0.62929 0.94903 0.04943 0.0
C742 C 0.62853 0.04419 0.01049 0.0
C743 C 0.63043 0.05079 0.94618 0.0
N744 N 0.62836 0.97896 0.03587 0.0
N745 N 0.62873 0.02078 0.95955 0.0
H746 H 0.38528 0.90898 0.51636 0.0
H747 H 0.37667 0.10205 0.48617 0.0
H748 H 0.37628 0.95198 0.42513 0.0
H749 H 0.38027 0.05833 0.57767 0.0
H750 H 0.38009 0.04753 0.46295 0.0
H751 H 0.3873 0.96384 0.53894 0.0
C752 C 0.38394 0.92996 0.50107 0.0
C753 C 0.38047 0.92592 0.46887 0.0
C754 C 0.38025 0.0499 0.48811 0.0
C755 C 0.38263 0.98875 0.49447 0.0
C756 C 0.37831 0.08102 0.50135 0.0
C757 C 0.37807 0.08471 0.53388 0.0
C758 C 0.38198 0.02233 0.50756 0.0
C759 C 0.38028 0.05662 0.55246 0.0
C760 C 0.38502 0.96128 0.51395 0.0
C761 C 0.37885 0.95396 0.45012 0.0
N762 N 0.38206 0.02666 0.53906 0.0
N763 N 0.37983 0.98415 0.4632 0.0
H764 H 0.33066 0.9046 0.01556 0.0
H765 H 0.33557 0.0993 0.99817 0.0
H766 H 0.3406 0.97072 0.09316 0.0
H767 H 0.33026 0.03229 0.92064 0.0
H768 H 0.33209 0.05293 0.03406 0.0
H769 H 0.32555 0.95159 0.98102 0.0
C770 C 0.33164 0.92893 0.0254 0.0
C771 C 0.33634 0.9336 0.05731 0.0
C772 C 0.33147 0.04847 0.00917 0.0
C773 C 0.33049 0.98757 0.01786 0.0
C774 C 0.33333 0.07496 0.98869 0.0
C775 C 0.33356 0.06968 0.95635 0.0
C776 C 0.32974 0.01657 0.99716 0.0
C777 C 0.33058 0.03756 0.94539 0.0
C778 C 0.32871 0.95578 0.00565 0.0
C779 C 0.33726 0.96581 0.0687 0.0
N780 N 0.329 0.01227 0.96572 0.0
N781 N 0.33452 0.9915 0.04898 0.0
H782 H 0.66607 0.03305 0.59497 0.0
H783 H 0.68383 0.97222 0.41946 0.0
H784 H 0.68325 0.09685 0.51757 0.0
H785 H 0.66824 0.90684 0.49612 0.0
H786 H 0.68711 0.01728 0.45609 0.0
H787 H 0.67008 0.98613 0.56028 0.0
C788 C 0.67085 0.03727 0.57074 0.0
C789 C 0.6741 0.06913 0.55917 0.0
C790 C 0.68313 0.99309 0.46502 0.0
C791 C 0.67867 0.01525 0.51928 0.0
C792 C 0.6812 0.96725 0.44407 0.0
C793 C 0.67544 0.93564 0.45465 0.0
C794 C 0.67912 0.98755 0.49692 0.0
C795 C 0.67262 0.93078 0.48689 0.0
C796 C 0.67315 0.01038 0.55094 0.0
C797 C 0.68042 0.07286 0.52757 0.0
N798 N 0.67423 0.95654 0.50688 0.0
N799 N 0.68232 0.04629 0.50872 0.0
loop_
_geom_bond_atom_site_label_1
_geom_bond_atom_site_label_2
_geom_bond_distance
_geom_bond_site_symmetry_2
_ccdc_geom_bond_type
Co0 O1 2.216 . S
Co0 O2 2.091 . S
Co0 O4 2.004 . S
Co0 O10 2.021 . S
Co0 O12 2.137 . S
Co0 O13 2.244 . S
O1 Co0 2.216 . S
O1 C8 1.247 . S
O2 Co0 2.091 . S
O2 C8 1.261 . S
C3 O12 1.247 . S
C3 O13 1.272 . S
O4 Co0 2.004 . S
O4 C9 1.259 . S
Co5 O6 2.061 . S
Co5 O11 2.052 . S
Co5 O13 2.135 . S
O6 Co5 2.061 . S
O6 C9 1.235 . S
C7 O10 1.238 . S
C7 O11 1.241 . S
C8 O1 1.247 . S
C8 O2 1.261 . S
C9 O4 1.259 . S
C9 O6 1.235 . S
O10 Co0 2.021 . S
O10 C7 1.238 . S
O11 Co5 2.052 . S
O11 C7 1.241 . S
O12 Co0 2.137 . S
O12 C3 1.247 . S
O13 Co0 2.244 . S
O13 C3 1.272 . S
O13 Co5 2.135 . S
Co14 O15 2.216 . S
Co14 O16 2.091 . S
Co14 O18 2.004 . S
Co14 O24 2.021 . S
Co14 O26 2.137 . S
Co14 O27 2.244 . S
O15 Co14 2.216 . S
O15 C22 1.247 . S
O16 Co14 2.091 . S
O16 C22 1.261 . S
C17 O26 1.247 . S
C17 O27 1.272 . S
O18 Co14 2.004 . S
O18 C23 1.259 . S
Co19 O20 2.061 . S
Co19 O25 2.052 . S
Co19 O27 2.135 . S
O20 Co19 2.061 . S
O20 C23 1.235 . S
C21 O24 1.238 . S
C21 O25 1.241 . S
C22 O15 1.247 . S
C22 O16 1.261 . S
C23 O18 1.259 . S
C23 O20 1.235 . S
O24 Co14 2.021 . S
O24 C21 1.238 . S
O25 Co19 2.052 . S
O25 C21 1.241 . S
O26 Co14 2.137 . S
O26 C17 1.247 . S
O27 Co14 2.244 . S
O27 C17 1.272 . S
O27 Co19 2.135 . S
Co28 O29 2.216 . S
Co28 O30 2.091 . S
Co28 O32 2.004 . S
Co28 O38 2.021 . S
Co28 O40 2.137 . S
Co28 O41 2.244 . S
O29 Co28 2.216 . S
O29 C36 1.247 . S
O30 Co28 2.091 . S
O30 C36 1.261 . S
C31 O40 1.247 . S
C31 O41 1.272 . S
O32 Co28 2.004 . S
O32 C37 1.259 . S
Co33 O34 2.061 . S
Co33 O39 2.052 . S
Co33 O41 2.135 . S
O34 Co33 2.061 . S
O34 C37 1.235 . S
C35 O38 1.238 . S
C35 O39 1.241 . S
C36 O29 1.247 . S
C36 O30 1.261 . S
C37 O32 1.259 . S
C37 O34 1.235 . S
O38 Co28 2.021 . S
O38 C35 1.238 . S
O39 Co33 2.052 . S
O39 C35 1.241 . S
O40 Co28 2.137 . S
O40 C31 1.247 . S
O41 Co28 2.244 . S
O41 C31 1.272 . S
O41 Co33 2.135 . S
Co42 O43 2.216 . S
Co42 O44 2.091 . S
Co42 O46 2.004 . S
Co42 O52 2.021 . S
Co42 O54 2.137 . S
Co42 O55 2.244 . S
O43 Co42 2.216 . S
O43 C50 1.247 . S
O44 Co42 2.091 . S
O44 C50 1.261 . S
C45 O54 1.247 . S
C45 O55 1.272 . S
O46 Co42 2.004 . S
O46 C51 1.259 . S
Co47 O48 2.061 . S
Co47 O53 2.052 . S
Co47 O55 2.135 . S
O48 Co47 2.061 . S
O48 C51 1.235 . S
C49 O52 1.238 . S
C49 O53 1.241 . S
C50 O43 1.247 . S
C50 O44 1.261 . S
C51 O46 1.259 . S
C51 O48 1.235 . S
O52 Co42 2.021 . S
O52 C49 1.238 . S
O53 Co47 2.052 . S
O53 C49 1.241 . S
O54 Co42 2.137 . S
O54 C45 1.247 . S
O55 Co42 2.244 . S
O55 C45 1.272 . S
O55 Co47 2.135 . S
Co56 O57 2.216 . S
Co56 O58 2.091 . S
Co56 O60 2.004 . S
Co56 O66 2.021 . S
Co56 O68 2.137 . S
Co56 O69 2.244 . S
O57 Co56 2.216 . S
O57 C64 1.247 . S
O58 Co56 2.091 . S
O58 C64 1.261 . S
C59 O68 1.247 . S
C59 O69 1.272 . S
O60 Co56 2.004 . S
O60 C65 1.259 . S
Co61 O62 2.061 . S
Co61 O67 2.052 . S
Co61 O69 2.135 . S
O62 Co61 2.061 . S
O62 C65 1.235 . S
C63 O66 1.238 . S
C63 O67 1.241 . S
C64 O57 1.247 . S
C64 O58 1.261 . S
C65 O60 1.259 . S
C65 O62 1.235 . S
O66 Co56 2.021 . S
O66 C63 1.238 . S
O67 Co61 2.052 . S
O67 C63 1.241 . S
O68 Co56 2.137 . S
O68 C59 1.247 . S
O69 Co56 2.244 . S
O69 C59 1.272 . S
O69 Co61 2.135 . S
Co70 O71 2.216 . S
Co70 O72 2.091 . S
Co70 O74 2.004 . S
Co70 O80 2.021 . S
Co70 O82 2.137 . S
Co70 O83 2.244 . S
O71 Co70 2.216 . S
O71 C78 1.247 . S
O72 Co70 2.091 . S
O72 C78 1.261 . S
C73 O82 1.247 . S
C73 O83 1.272 . S
O74 Co70 2.004 . S
O74 C79 1.259 . S
Co75 O76 2.061 . S
Co75 O81 2.052 . S
Co75 O83 2.135 . S
O76 Co75 2.061 . S
O76 C79 1.235 . S
C77 O80 1.238 . S
C77 O81 1.241 . S
C78 O71 1.247 . S
C78 O72 1.261 . S
C79 O74 1.259 . S
C79 O76 1.235 . S
O80 Co70 2.021 . S
O80 C77 1.238 . S
O81 Co75 2.052 . S
O81 C77 1.241 . S
O82 Co70 2.137 . S
O82 C73 1.247 . S
O83 Co70 2.244 . S
O83 C73 1.272 . S
O83 Co75 2.135 . S
Co84 O85 2.216 . S
Co84 O86 2.091 . S
Co84 O88 2.004 . S
Co84 O94 2.021 . S
Co84 O96 2.137 . S
Co84 O97 2.244 . S
O85 Co84 2.216 . S
O85 C92 1.247 . S
O86 Co84 2.091 . S
O86 C92 1.261 . S
C87 O96 1.247 . S
C87 O97 1.272 . S
O88 Co84 2.004 . S
O88 C93 1.259 . S
Co89 O90 2.061 . S
Co89 O95 2.052 . S
Co89 O97 2.135 . S
O90 Co89 2.061 . S
O90 C93 1.235 . S
C91 O94 1.238 . S
C91 O95 1.241 . S
C92 O85 1.247 . S
C92 O86 1.261 . S
C93 O88 1.259 . S
C93 O90 1.235 . S
O94 Co84 2.021 . S
O94 C91 1.238 . S
O95 Co89 2.052 . S
O95 C91 1.241 . S
O96 Co84 2.137 . S
O96 C87 1.247 . S
O97 Co84 2.244 . S
O97 C87 1.272 . S
O97 Co89 2.135 . S
Co98 O99 2.216 . S
Co98 O100 2.091 . S
Co98 O102 2.004 . S
Co98 O108 2.021 . S
Co98 O110 2.137 . S
Co98 O111 2.244 . S
O99 Co98 2.216 . S
O99 C106 1.247 . S
O100 Co98 2.091 . S
O100 C106 1.261 . S
C101 O110 1.247 . S
C101 O111 1.272 . S
O102 Co98 2.004 . S
O102 C107 1.259 . S
Co103 O104 2.061 . S
Co103 O109 2.052 . S
Co103 O111 2.135 . S
O104 Co103 2.061 . S
O104 C107 1.235 . S
C105 O108 1.238 . S
C105 O109 1.241 . S
C106 O99 1.247 . S
C106 O100 1.261 . S
C107 O102 1.259 . S
C107 O104 1.235 . S
O108 Co98 2.021 . S
O108 C105 1.238 . S
O109 Co103 2.052 . S
O109 C105 1.241 . S
O110 Co98 2.137 . S
O110 C101 1.247 . S
O111 Co98 2.244 . S
O111 C101 1.272 . S
O111 Co103 2.135 . S
Co112 O113 2.216 . S
Co112 O114 2.091 . S
Co112 O116 2.004 . S
Co112 O122 2.021 . S
Co112 O124 2.137 . S
Co112 O125 2.244 . S
O113 Co112 2.216 . S
O113 C120 1.247 . S
O114 Co112 2.091 . S
O114 C120 1.261 . S
C115 O124 1.247 . S
C115 O125 1.272 . S
O116 Co112 2.004 . S
O116 C121 1.259 . S
Co117 O118 2.061 . S
Co117 O123 2.052 . S
Co117 O125 2.135 . S
O118 Co117 2.061 . S
O118 C121 1.235 . S
C119 O122 1.238 . S
C119 O123 1.241 . S
C120 O113 1.247 . S
C120 O114 1.261 . S
C121 O116 1.259 . S
C121 O118 1.235 . S
O122 Co112 2.021 . S
O122 C119 1.238 . S
O123 Co117 2.052 . S
O123 C119 1.241 . S
O124 Co112 2.137 . S
O124 C115 1.247 . S
O125 Co112 2.244 . S
O125 C115 1.272 . S
O125 Co117 2.135 . S
Co126 O127 2.216 . S
Co126 O128 2.091 . S
Co126 O130 2.004 . S
Co126 O136 2.021 . S
Co126 O138 2.137 . S
Co126 O139 2.244 . S
O127 Co126 2.216 . S
O127 C134 1.247 . S
O128 Co126 2.091 . S
O128 C134 1.261 . S
C129 O138 1.247 . S
C129 O139 1.272 . S
O130 Co126 2.004 . S
O130 C135 1.259 . S
Co131 O132 2.061 . S
Co131 O137 2.052 . S
Co131 O139 2.135 . S
O132 Co131 2.061 . S
O132 C135 1.235 . S
C133 O136 1.238 . S
C133 O137 1.241 . S
C134 O127 1.247 . S
C134 O128 1.261 . S
C135 O130 1.259 . S
C135 O132 1.235 . S
O136 Co126 2.021 . S
O136 C133 1.238 . S
O137 Co131 2.052 . S
O137 C133 1.241 . S
O138 Co126 2.137 . S
O138 C129 1.247 . S
O139 Co126 2.244 . S
O139 C129 1.272 . S
O139 Co131 2.135 . S
Co140 O141 2.216 . S
Co140 O142 2.091 . S
Co140 O144 2.004 . S
Co140 O150 2.021 . S
Co140 O152 2.137 . S
Co140 O153 2.244 . S
O141 Co140 2.216 . S
O141 C148 1.247 . S
O142 Co140 2.091 . S
O142 C148 1.261 . S
C143 O152 1.247 . S
C143 O153 1.272 . S
O144 Co140 2.004 . S
O144 C149 1.259 . S
Co145 O146 2.061 . S
Co145 O151 2.052 . S
Co145 O153 2.135 . S
O146 Co145 2.061 . S
O146 C149 1.235 . S
C147 O150 1.238 . S
C147 O151 1.241 . S
C148 O141 1.247 . S
C148 O142 1.261 . S
C149 O144 1.259 . S
C149 O146 1.235 . S
O150 Co140 2.021 . S
O150 C147 1.238 . S
O151 Co145 2.052 . S
O151 C147 1.241 . S
O152 Co140 2.137 . S
O152 C143 1.247 . S
O153 Co140 2.244 . S
O153 C143 1.272 . S
O153 Co145 2.135 . S
Co154 O155 2.216 . S
Co154 O156 2.091 . S
Co154 O158 2.004 . S
Co154 O164 2.021 . S
Co154 O166 2.137 . S
Co154 O167 2.244 . S
O155 Co154 2.216 . S
O155 C162 1.247 . S
O156 Co154 2.091 . S
O156 C162 1.261 . S
C157 O166 1.247 . S
C157 O167 1.272 . S
O158 Co154 2.004 . S
O158 C163 1.259 . S
Co159 O160 2.061 . S
Co159 O165 2.052 . S
Co159 O167 2.135 . S
O160 Co159 2.061 . S
O160 C163 1.235 . S
C161 O164 1.238 . S
C161 O165 1.241 . S
C162 O155 1.247 . S
C162 O156 1.261 . S
C163 O158 1.259 . S
C163 O160 1.235 . S
O164 Co154 2.021 . S
O164 C161 1.238 . S
O165 Co159 2.052 . S
O165 C161 1.241 . S
O166 Co154 2.137 . S
O166 C157 1.247 . S
O167 Co154 2.244 . S
O167 C157 1.272 . S
O167 Co159 2.135 . S
Co168 O169 2.216 . S
Co168 O170 2.091 . S
Co168 O172 2.004 . S
Co168 O178 2.021 . S
Co168 O180 2.137 . S
Co168 O181 2.244 . S
O169 Co168 2.216 . S
O169 C176 1.247 . S
O170 Co168 2.091 . S
O170 C176 1.261 . S
C171 O180 1.247 . S
C171 O181 1.272 . S
O172 Co168 2.004 . S
O172 C177 1.259 . S
Co173 O174 2.061 . S
Co173 O179 2.052 . S
Co173 O181 2.135 . S
O174 Co173 2.061 . S
O174 C177 1.235 . S
C175 O178 1.238 . S
C175 O179 1.241 . S
C176 O169 1.247 . S
C176 O170 1.261 . S
C177 O172 1.259 . S
C177 O174 1.235 . S
O178 Co168 2.021 . S
O178 C175 1.238 . S
O179 Co173 2.052 . S
O179 C175 1.241 . S
O180 Co168 2.137 . S
O180 C171 1.247 . S
O181 Co168 2.244 . S
O181 C171 1.272 . S
O181 Co173 2.135 . S
Co182 O183 2.216 . S
Co182 O184 2.091 . S
Co182 O186 2.004 . S
Co182 O192 2.021 . S
Co182 O194 2.137 . S
Co182 O195 2.244 . S
O183 Co182 2.216 . S
O183 C190 1.247 . S
O184 Co182 2.091 . S
O184 C190 1.261 . S
C185 O194 1.247 . S
C185 O195 1.272 . S
O186 Co182 2.004 . S
O186 C191 1.259 . S
Co187 O188 2.061 . S
Co187 O193 2.052 . S
Co187 O195 2.135 . S
O188 Co187 2.061 . S
O188 C191 1.235 . S
C189 O192 1.238 . S
C189 O193 1.241 . S
C190 O183 1.247 . S
C190 O184 1.261 . S
C191 O186 1.259 . S
C191 O188 1.235 . S
O192 Co182 2.021 . S
O192 C189 1.238 . S
O193 Co187 2.052 . S
O193 C189 1.241 . S
O194 Co182 2.137 . S
O194 C185 1.247 . S
O195 Co182 2.244 . S
O195 C185 1.272 . S
O195 Co187 2.135 . S
Co196 O197 2.216 . S
Co196 O198 2.091 . S
Co196 O200 2.004 . S
Co196 O206 2.021 . S
Co196 O208 2.137 . S
Co196 O209 2.244 . S
O197 Co196 2.216 . S
O197 C204 1.247 . S
O198 Co196 2.091 . S
O198 C204 1.261 . S
C199 O208 1.247 . S
C199 O209 1.272 . S
O200 Co196 2.004 . S
O200 C205 1.259 . S
Co201 O202 2.061 . S
Co201 O207 2.052 . S
Co201 O209 2.135 . S
O202 Co201 2.061 . S
O202 C205 1.235 . S
C203 O206 1.238 . S
C203 O207 1.241 . S
C204 O197 1.247 . S
C204 O198 1.261 . S
C205 O200 1.259 . S
C205 O202 1.235 . S
O206 Co196 2.021 . S
O206 C203 1.238 . S
O207 Co201 2.052 . S
O207 C203 1.241 . S
O208 Co196 2.137 . S
O208 C199 1.247 . S
O209 Co196 2.244 . S
O209 C199 1.272 . S
O209 Co201 2.135 . S
Co210 O211 2.216 . S
Co210 O212 2.091 . S
Co210 O214 2.004 . S
Co210 O220 2.021 . S
Co210 O222 2.137 . S
Co210 O223 2.244 . S
O211 Co210 2.216 . S
O211 C218 1.247 . S
O212 Co210 2.091 . S
O212 C218 1.261 . S
C213 O222 1.247 . S
C213 O223 1.272 . S
O214 Co210 2.004 . S
O214 C219 1.259 . S
Co215 O216 2.061 . S
Co215 O221 2.052 . S
Co215 O223 2.135 . S
O216 Co215 2.061 . S
O216 C219 1.235 . S
C217 O220 1.238 . S
C217 O221 1.241 . S
C218 O211 1.247 . S
C218 O212 1.261 . S
C219 O214 1.259 . S
C219 O216 1.235 . S
O220 Co210 2.021 . S
O220 C217 1.238 . S
O221 Co215 2.052 . S
O221 C217 1.241 . S
O222 Co210 2.137 . S
O222 C213 1.247 . S
O223 Co210 2.244 . S
O223 C213 1.272 . S
O223 Co215 2.135 . S
H224 C230 0.930 . S
H225 C234 0.930 . S
H226 C239 0.929 . S
H227 C237 0.929 . S
H228 C232 0.929 . S
H229 C238 0.929 . S
C230 H224 0.930 . S
C230 C231 1.367 . S
C230 C238 1.378 . S
C231 C230 1.367 . S
C231 C239 1.433 . S
C232 H228 0.929 . S
C232 C234 1.378 . S
C232 C236 1.350 . S
C233 C236 1.463 1_455 S
C233 C238 1.350 . S
C233 N241 1.427 . S
C234 H225 0.930 . S
C234 C232 1.378 . S
C234 C235 1.367 . S
C235 C234 1.367 . S
C235 C237 1.433 . S
C236 C232 1.350 . S
C236 C233 1.463 1_655 S
C236 N240 1.427 . S
C237 H227 0.929 . S
C237 C235 1.433 . S
C237 N240 1.384 . S
C238 H229 0.929 . S
C238 C230 1.378 . S
C238 C233 1.350 . S
C239 H226 0.929 . S
C239 C231 1.433 . S
C239 N241 1.384 . S
N240 C236 1.427 . S
N240 C237 1.384 . S
N241 C233 1.427 . S
N241 C239 1.384 . S
H242 C248 0.930 . S
H243 C252 0.930 . S
H244 C257 0.929 . S
H245 C255 0.929 . S
H246 C250 0.929 . S
H247 C256 0.929 . S
C248 H242 0.930 . S
C248 C249 1.367 . S
C248 C256 1.378 . S
C249 C248 1.367 . S
C249 C257 1.433 . S
C250 H246 0.929 . S
C250 C252 1.378 . S
C250 C254 1.350 . S
C251 C254 1.463 1_655 S
C251 C256 1.350 . S
C251 N259 1.427 . S
C252 H243 0.930 . S
C252 C250 1.378 . S
C252 C253 1.367 . S
C253 C252 1.367 . S
C253 C255 1.433 . S
C254 C250 1.350 . S
C254 C251 1.463 1_455 S
C254 N258 1.427 . S
C255 H245 0.929 . S
C255 C253 1.433 . S
C255 N258 1.384 . S
C256 H247 0.929 . S
C256 C248 1.378 . S
C256 C251 1.350 . S
C257 H244 0.929 . S
C257 C249 1.433 . S
C257 N259 1.384 . S
N258 C254 1.427 . S
N258 C255 1.384 . S
N259 C251 1.427 . S
N259 C257 1.384 . S
H260 C266 0.930 . S
H261 C270 0.930 . S
H262 C275 0.929 . S
H263 C273 0.929 . S
H264 C268 0.929 . S
H265 C274 0.929 . S
C266 H260 0.930 . S
C266 C267 1.367 . S
C266 C274 1.378 . S
C267 C266 1.367 . S
C267 C275 1.433 . S
C268 H264 0.929 . S
C268 C270 1.378 . S
C268 C272 1.350 . S
C269 C272 1.463 1_655 S
C269 C274 1.350 . S
C269 N277 1.427 . S
C270 H261 0.930 . S
C270 C268 1.378 . S
C270 C271 1.367 . S
C271 C270 1.367 . S
C271 C273 1.433 . S
C272 C268 1.350 . S
C272 C269 1.463 1_455 S
C272 N276 1.427 . S
C273 H263 0.929 . S
C273 C271 1.433 . S
C273 N276 1.384 . S
C274 H265 0.929 . S
C274 C266 1.378 . S
C274 C269 1.350 . S
C275 H262 0.929 . S
C275 C267 1.433 . S
C275 N277 1.384 . S
N276 C272 1.427 . S
N276 C273 1.384 . S
N277 C269 1.427 . S
N277 C275 1.384 . S
H278 C284 0.930 . S
H279 C288 0.930 . S
H280 C293 0.929 . S
H281 C291 0.929 . S
H282 C286 0.929 . S
H283 C292 0.929 . S
C284 H278 0.930 . S
C284 C285 1.367 . S
C284 C292 1.378 . S
C285 C284 1.367 . S
C285 C293 1.433 . S
C286 H282 0.929 . S
C286 C288 1.378 . S
C286 C290 1.350 . S
C287 C290 1.463 1_455 S
C287 C292 1.350 . S
C287 N295 1.427 . S
C288 H279 0.930 . S
C288 C286 1.378 . S
C288 C289 1.367 . S
C289 C288 1.367 . S
C289 C291 1.433 . S
C290 C286 1.350 . S
C290 C287 1.463 1_655 S
C290 N294 1.427 . S
C291 H281 0.929 . S
C291 C289 1.433 . S
C291 N294 1.384 . S
C292 H283 0.929 . S
C292 C284 1.378 . S
C292 C287 1.350 . S
C293 H280 0.929 . S
C293 C285 1.433 . S
C293 N295 1.384 . S
N294 C290 1.427 . S
N294 C291 1.384 . S
N295 C287 1.427 . S
N295 C293 1.384 . S
H296 C302 0.930 . S
H297 C306 0.930 . S
H298 C311 0.929 . S
H299 C309 0.929 . S
H300 C304 0.929 . S
H301 C310 0.929 . S
C302 H296 0.930 . S
C302 C303 1.367 . S
C302 C310 1.378 . S
C303 C302 1.367 . S
C303 C311 1.433 . S
C304 H300 0.929 . S
C304 C306 1.378 . S
C304 C308 1.350 . S
C305 C308 1.463 . S
C305 C310 1.350 . S
C305 N313 1.427 . S
C306 H297 0.930 . S
C306 C304 1.378 . S
C306 C307 1.367 . S
C307 C306 1.367 . S
C307 C309 1.433 . S
C308 C304 1.350 . S
C308 C305 1.463 . S
C308 N312 1.427 . S
C309 H299 0.929 . S
C309 C307 1.433 . S
C309 N312 1.384 . S
C310 H301 0.929 . S
C310 C302 1.378 . S
C310 C305 1.350 . S
C311 H298 0.929 . S
C311 C303 1.433 . S
C311 N313 1.384 . S
N312 C308 1.427 . S
N312 C309 1.384 . S
N313 C305 1.427 . S
N313 C311 1.384 . S
H314 C320 0.930 . S
H315 C324 0.930 . S
H316 C329 0.929 . S
H317 C327 0.929 . S
H318 C322 0.929 . S
H319 C328 0.929 . S
C320 H314 0.930 . S
C320 C321 1.367 . S
C320 C328 1.378 . S
C321 C320 1.367 . S
C321 C329 1.433 . S
C322 H318 0.929 . S
C322 C324 1.378 . S
C322 C326 1.350 . S
C323 C326 1.463 . S
C323 C328 1.350 . S
C323 N331 1.427 . S
C324 H315 0.930 . S
C324 C322 1.378 . S
C324 C325 1.367 . S
C325 C324 1.367 . S
C325 C327 1.433 . S
C326 C322 1.350 . S
C326 C323 1.463 . S
C326 N330 1.427 . S
C327 H317 0.929 . S
C327 C325 1.433 . S
C327 N330 1.384 . S
C328 H319 0.929 . S
C328 C320 1.378 . S
C328 C323 1.350 . S
C329 H316 0.929 . S
C329 C321 1.433 . S
C329 N331 1.384 . S
N330 C326 1.427 . S
N330 C327 1.384 . S
N331 C323 1.427 . S
N331 C329 1.384 . S
H332 C338 0.930 . S
H333 C342 0.930 . S
H334 C347 0.929 . S
H335 C345 0.929 . S
H336 C340 0.929 . S
H337 C346 0.929 . S
C338 H332 0.930 . S
C338 C339 1.367 . S
C338 C346 1.378 . S
C339 C338 1.367 . S
C339 C347 1.433 . S
C340 H336 0.929 . S
C340 C342 1.378 . S
C340 C344 1.350 . S
C341 C344 1.463 . S
C341 C346 1.350 . S
C341 N349 1.427 . S
C342 H333 0.930 . S
C342 C340 1.378 . S
C342 C343 1.367 . S
C343 C342 1.367 . S
C343 C345 1.433 . S
C344 C340 1.350 . S
C344 C341 1.463 . S
C344 N348 1.427 . S
C345 H335 0.929 . S
C345 C343 1.433 . S
C345 N348 1.384 . S
C346 H337 0.929 . S
C346 C338 1.378 . S
C346 C341 1.350 . S
C347 H334 0.929 . S
C347 C339 1.433 . S
C347 N349 1.384 . S
N348 C344 1.427 . S
N348 C345 1.384 . S
N349 C341 1.427 . S
N349 C347 1.384 . S
H350 C356 0.930 . S
H351 C360 0.930 . S
H352 C365 0.929 . S
H353 C363 0.929 . S
H354 C358 0.929 . S
H355 C364 0.929 . S
C356 H350 0.930 . S
C356 C357 1.367 . S
C356 C364 1.378 . S
C357 C356 1.367 . S
C357 C365 1.433 . S
C358 H354 0.929 . S
C358 C360 1.378 . S
C358 C362 1.350 . S
C359 C362 1.463 . S
C359 C364 1.350 . S
C359 N367 1.427 . S
C360 H351 0.930 . S
C360 C358 1.378 . S
C360 C361 1.367 . S
C361 C360 1.367 . S
C361 C363 1.433 . S
C362 C358 1.350 . S
C362 C359 1.463 . S
C362 N366 1.427 . S
C363 H353 0.929 . S
C363 C361 1.433 . S
C363 N366 1.384 . S
C364 H355 0.929 . S
C364 C356 1.378 . S
C364 C359 1.350 . S
C365 H352 0.929 . S
C365 C357 1.433 . S
C365 N367 1.384 . S
N366 C362 1.427 . S
N366 C363 1.384 . S
N367 C359 1.427 . S
N367 C365 1.384 . S
H368 C374 0.930 . S
H369 C378 0.930 . S
H370 C383 0.929 . S
H371 C381 0.929 . S
H372 C376 0.929 . S
H373 C382 0.929 . S
C374 H368 0.930 . S
C374 C375 1.367 . S
C374 C382 1.378 . S
C375 C374 1.367 . S
C375 C383 1.433 . S
C376 H372 0.929 . S
C376 C378 1.378 . S
C376 C380 1.350 . S
C377 C380 1.463 . S
C377 C382 1.350 . S
C377 N385 1.427 . S
C378 H369 0.930 . S
C378 C376 1.378 . S
C378 C379 1.367 . S
C379 C378 1.367 . S
C379 C381 1.433 . S
C380 C376 1.350 . S
C380 C377 1.463 . S
C380 N384 1.427 . S
C381 H371 0.929 . S
C381 C379 1.433 . S
C381 N384 1.384 . S
C382 H373 0.929 . S
C382 C374 1.378 . S
C382 C377 1.350 . S
C383 H370 0.929 . S
C383 C375 1.433 . S
C383 N385 1.384 . S
N384 C380 1.427 . S
N384 C381 1.384 . S
N385 C377 1.427 . S
N385 C383 1.384 . S
H386 C392 0.930 . S
H387 C396 0.930 . S
H388 C401 0.929 . S
H389 C399 0.929 . S
H390 C394 0.929 . S
H391 C400 0.929 . S
C392 H386 0.930 . S
C392 C393 1.367 . S
C392 C400 1.378 . S
C393 C392 1.367 . S
C393 C401 1.433 . S
C394 H390 0.929 . S
C394 C396 1.378 . S
C394 C398 1.350 . S
C395 C398 1.463 . S
C395 C400 1.350 . S
C395 N403 1.427 . S
C396 H387 0.930 . S
C396 C394 1.378 . S
C396 C397 1.367 . S
C397 C396 1.367 . S
C397 C399 1.433 . S
C398 C394 1.350 . S
C398 C395 1.463 . S
C398 N402 1.427 . S
C399 H389 0.929 . S
C399 C397 1.433 . S
C399 N402 1.384 . S
C400 H391 0.929 . S
C400 C392 1.378 . S
C400 C395 1.350 . S
C401 H388 0.929 . S
C401 C393 1.433 . S
C401 N403 1.384 . S
N402 C398 1.427 . S
N402 C399 1.384 . S
N403 C395 1.427 . S
N403 C401 1.384 . S
H404 C410 0.930 . S
H405 C414 0.930 . S
H406 C419 0.929 . S
H407 C417 0.929 . S
H408 C412 0.929 . S
H409 C418 0.929 . S
C410 H404 0.930 . S
C410 C411 1.367 . S
C410 C418 1.378 . S
C411 C410 1.367 . S
C411 C419 1.433 . S
C412 H408 0.929 . S
C412 C414 1.378 . S
C412 C416 1.350 . S
C413 C416 1.463 . S
C413 C418 1.350 . S
C413 N421 1.427 . S
C414 H405 0.930 . S
C414 C412 1.378 . S
C414 C415 1.367 . S
C415 C414 1.367 . S
C415 C417 1.433 . S
C416 C412 1.350 . S
C416 C413 1.463 . S
C416 N420 1.427 . S
C417 H407 0.929 . S
C417 C415 1.433 . S
C417 N420 1.384 . S
C418 H409 0.929 . S
C418 C410 1.378 . S
C418 C413 1.350 . S
C419 H406 0.929 . S
C419 C411 1.433 . S
C419 N421 1.384 . S
N420 C416 1.427 . S
N420 C417 1.384 . S
N421 C413 1.427 . S
N421 C419 1.384 . S
H422 C428 0.930 . S
H423 C432 0.930 . S
H424 C437 0.929 . S
H425 C435 0.929 . S
H426 C430 0.929 . S
H427 C436 0.929 . S
C428 H422 0.930 . S
C428 C429 1.367 . S
C428 C436 1.378 . S
C429 C428 1.367 . S
C429 C437 1.433 . S
C430 H426 0.929 . S
C430 C432 1.378 . S
C430 C434 1.350 . S
C431 C434 1.463 . S
C431 C436 1.350 . S
C431 N439 1.427 . S
C432 H423 0.930 . S
C432 C430 1.378 . S
C432 C433 1.367 . S
C433 C432 1.367 . S
C433 C435 1.433 . S
C434 C430 1.350 . S
C434 C431 1.463 . S
C434 N438 1.427 . S
C435 H425 0.929 . S
C435 C433 1.433 . S
C435 N438 1.384 . S
C436 H427 0.929 . S
C436 C428 1.378 . S
C436 C431 1.350 . S
C437 H424 0.929 . S
C437 C429 1.433 . S
C437 N439 1.384 . S
N438 C434 1.427 . S
N438 C435 1.384 . S
N439 C431 1.427 . S
N439 C437 1.384 . S
H440 C446 0.930 . S
H441 C450 0.930 . S
H442 C455 0.929 . S
H443 C453 0.929 . S
H444 C448 0.929 . S
H445 C454 0.929 . S
C446 H440 0.930 . S
C446 C447 1.367 . S
C446 C454 1.378 . S
C447 C446 1.367 . S
C447 C455 1.433 . S
C448 H444 0.929 . S
C448 C450 1.378 . S
C448 C452 1.350 . S
C449 C452 1.463 . S
C449 C454 1.350 . S
C449 N457 1.427 . S
C450 H441 0.930 . S
C450 C448 1.378 . S
C450 C451 1.367 . S
C451 C450 1.367 . S
C451 C453 1.433 . S
C452 C448 1.350 . S
C452 C449 1.463 . S
C452 N456 1.427 . S
C453 H443 0.929 . S
C453 C451 1.433 . S
C453 N456 1.384 . S
C454 H445 0.929 . S
C454 C446 1.378 . S
C454 C449 1.350 . S
C455 H442 0.929 . S
C455 C447 1.433 . S
C455 N457 1.384 . S
N456 C452 1.427 . S
N456 C453 1.384 . S
N457 C449 1.427 . S
N457 C455 1.384 . S
H458 C464 0.930 . S
H459 C468 0.930 . S
H460 C473 0.929 . S
H461 C471 0.929 . S
H462 C466 0.929 . S
H463 C472 0.929 . S
C464 H458 0.930 . S
C464 C465 1.367 . S
C464 C472 1.378 . S
C465 C464 1.367 . S
C465 C473 1.433 . S
C466 H462 0.929 . S
C466 C468 1.378 . S
C466 C470 1.350 . S
C467 C470 1.463 . S
C467 C472 1.350 . S
C467 N475 1.427 . S
C468 H459 0.930 . S
C468 C466 1.378 . S
C468 C469 1.367 . S
C469 C468 1.367 . S
C469 C471 1.433 . S
C470 C466 1.350 . S
C470 C467 1.463 . S
C470 N474 1.427 . S
C471 H461 0.929 . S
C471 C469 1.433 . S
C471 N474 1.384 . S
C472 H463 0.929 . S
C472 C464 1.378 . S
C472 C467 1.350 . S
C473 H460 0.929 . S
C473 C465 1.433 . S
C473 N475 1.384 . S
N474 C470 1.427 . S
N474 C471 1.384 . S
N475 C467 1.427 . S
N475 C473 1.384 . S
H476 C482 0.930 . S
H477 C486 0.930 . S
H478 C491 0.929 . S
H479 C489 0.929 . S
H480 C484 0.929 . S
H481 C490 0.929 . S
C482 H476 0.930 . S
C482 C483 1.367 . S
C482 C490 1.378 . S
C483 C482 1.367 . S
C483 C491 1.433 . S
C484 H480 0.929 . S
C484 C486 1.378 . S
C484 C488 1.350 . S
C485 C488 1.463 . S
C485 C490 1.350 . S
C485 N493 1.427 . S
C486 H477 0.930 . S
C486 C484 1.378 . S
C486 C487 1.367 . S
C487 C486 1.367 . S
C487 C489 1.433 . S
C488 C484 1.350 . S
C488 C485 1.463 . S
C488 N492 1.427 . S
C489 H479 0.929 . S
C489 C487 1.433 . S
C489 N492 1.384 . S
C490 H481 0.929 . S
C490 C482 1.378 . S
C490 C485 1.350 . S
C491 H478 0.929 . S
C491 C483 1.433 . S
C491 N493 1.384 . S
N492 C488 1.427 . S
N492 C489 1.384 . S
N493 C485 1.427 . S
N493 C491 1.384 . S
H494 C500 0.930 . S
H495 C504 0.930 . S
H496 C509 0.929 . S
H497 C507 0.929 . S
H498 C502 0.929 . S
H499 C508 0.929 . S
C500 H494 0.930 . S
C500 C501 1.367 . S
C500 C508 1.378 . S
C501 C500 1.367 . S
C501 C509 1.433 . S
C502 H498 0.929 . S
C502 C504 1.378 . S
C502 C506 1.350 . S
C503 C506 1.463 . S
C503 C508 1.350 . S
C503 N511 1.427 . S
C504 H495 0.930 . S
C504 C502 1.378 . S
C504 C505 1.367 . S
C505 C504 1.367 . S
C505 C507 1.433 . S
C506 C502 1.350 . S
C506 C503 1.463 . S
C506 N510 1.427 . S
C507 H497 0.929 . S
C507 C505 1.433 . S
C507 N510 1.384 . S
C508 H499 0.929 . S
C508 C500 1.378 . S
C508 C503 1.350 . S
C509 H496 0.929 . S
C509 C501 1.433 . S
C509 N511 1.384 . S
N510 C506 1.427 . S
N510 C507 1.384 . S
N511 C503 1.427 . S
N511 C509 1.384 . S
H512 C518 0.930 . S
H513 C522 0.930 . S
H514 C527 0.929 . S
H515 C525 0.929 . S
H516 C520 0.929 . S
H517 C526 0.929 . S
C518 H512 0.930 . S
C518 C519 1.367 . S
C518 C526 1.378 . S
C519 C518 1.367 . S
C519 C527 1.433 . S
C520 H516 0.929 . S
C520 C522 1.378 . S
C520 C524 1.350 . S
C521 C524 1.463 1_556 S
C521 C526 1.350 . S
C521 N529 1.427 . S
C522 H513 0.930 . S
C522 C520 1.378 . S
C522 C523 1.367 . S
C523 C522 1.367 . S
C523 C525 1.433 . S
C524 C520 1.350 . S
C524 C521 1.463 1_554 S
C524 N528 1.427 . S
C525 H515 0.929 . S
C525 C523 1.433 . S
C525 N528 1.384 . S
C526 H517 0.929 . S
C526 C518 1.378 . S
C526 C521 1.350 . S
C527 H514 0.929 . S
C527 C519 1.433 . S
C527 N529 1.384 . S
N528 C524 1.427 . S
N528 C525 1.384 . S
N529 C521 1.427 . S
N529 C527 1.384 . S
H530 C536 0.930 . S
H531 C540 0.930 . S
H532 C545 0.929 . S
H533 C543 0.929 . S
H534 C538 0.929 . S
H535 C544 0.929 . S
C536 H530 0.930 . S
C536 C537 1.367 . S
C536 C544 1.378 . S
C537 C536 1.367 . S
C537 C545 1.433 . S
C538 H534 0.929 . S
C538 C540 1.378 . S
C538 C542 1.350 . S
C539 C542 1.463 . S
C539 C544 1.350 . S
C539 N547 1.427 . S
C540 H531 0.930 . S
C540 C538 1.378 . S
C540 C541 1.367 . S
C541 C540 1.367 . S
C541 C543 1.433 . S
C542 C538 1.350 . S
C542 C539 1.463 . S
C542 N546 1.427 . S
C543 H533 0.929 . S
C543 C541 1.433 . S
C543 N546 1.384 . S
C544 H535 0.929 . S
C544 C536 1.378 . S
C544 C539 1.350 . S
C545 H532 0.929 . S
C545 C537 1.433 . S
C545 N547 1.384 . S
N546 C542 1.427 . S
N546 C543 1.384 . S
N547 C539 1.427 . S
N547 C545 1.384 . S
H548 C554 0.930 . S
H549 C558 0.930 . S
H550 C563 0.929 . S
H551 C561 0.929 . S
H552 C556 0.929 . S
H553 C562 0.954 . S
C554 H548 0.930 . S
C554 C555 1.367 . S
C554 C562 1.362 1_554 S
C555 C554 1.367 . S
C555 C563 1.433 . S
C556 H552 0.929 . S
C556 C558 1.378 1_554 S
C556 C560 1.350 1_554 S
C557 C560 1.463 1_554 S
C557 C562 1.341 1_554 S
C557 N565 1.427 . S
C558 H549 0.930 . S
C558 C556 1.378 1_556 S
C558 C559 1.367 . S
C559 C558 1.367 . S
C559 C561 1.433 . S
C560 C556 1.350 1_556 S
C560 C557 1.463 1_556 S
C560 N564 1.427 . S
C561 H551 0.929 . S
C561 C559 1.433 . S
C561 N564 1.384 . S
C562 H553 0.954 . S
C562 C554 1.362 1_556 S
C562 C557 1.341 1_556 S
C563 H550 0.929 . S
C563 C555 1.433 . S
C563 N565 1.384 . S
N564 C560 1.427 . S
N564 C561 1.384 . S
N565 C557 1.427 . S
N565 C563 1.384 . S
H566 C572 0.930 . S
H567 C576 0.930 . S
H568 C581 0.929 . S
H569 C579 0.929 . S
H570 C574 0.929 . S
H571 C580 0.929 . S
C572 H566 0.930 . S
C572 C573 1.367 . S
C572 C580 1.378 . S
C573 C572 1.367 . S
C573 C581 1.433 . S
C574 H570 0.929 . S
C574 C576 1.378 . S
C574 C578 1.350 . S
C575 C578 1.463 . S
C575 C580 1.350 . S
C575 N583 1.427 . S
C576 H567 0.930 . S
C576 C574 1.378 . S
C576 C577 1.367 . S
C577 C576 1.367 . S
C577 C579 1.433 . S
C578 C574 1.350 . S
C578 C575 1.463 . S
C578 N582 1.427 . S
C579 H569 0.929 . S
C579 C577 1.433 . S
C579 N582 1.384 . S
C580 H571 0.929 . S
C580 C572 1.378 . S
C580 C575 1.350 . S
C581 H568 0.929 . S
C581 C573 1.433 . S
C581 N583 1.384 . S
N582 C578 1.427 . S
N582 C579 1.384 . S
N583 C575 1.427 . S
N583 C581 1.384 . S
H584 C590 0.930 . S
H585 C594 0.930 . S
H586 C599 0.929 . S
H587 C597 0.929 . S
H588 C592 0.929 1_554 S
H589 C598 0.929 1_556 S
C590 H584 0.930 . S
C590 C591 1.367 . S
C590 C598 1.378 . S
C591 C590 1.367 . S
C591 C599 1.433 . S
C592 H588 0.929 1_556 S
C592 C594 1.378 . S
C592 C596 1.350 . S
C593 C596 1.463 1_554 S
C593 C598 1.350 . S
C593 N601 1.427 . S
C594 H585 0.930 . S
C594 C592 1.378 . S
C594 C595 1.367 . S
C595 C594 1.367 . S
C595 C597 1.433 . S
C596 C592 1.350 . S
C596 C593 1.463 1_556 S
C596 N600 1.427 . S
C597 H587 0.929 . S
C597 C595 1.433 . S
C597 N600 1.384 . S
C598 H589 0.929 1_554 S
C598 C590 1.378 . S
C598 C593 1.350 . S
C599 H586 0.929 . S
C599 C591 1.433 . S
C599 N601 1.384 . S
N600 C596 1.427 . S
N600 C597 1.384 . S
N601 C593 1.427 . S
N601 C599 1.384 . S
H602 C608 0.930 . S
H603 C612 0.930 . S
H604 C617 0.929 . S
H605 C615 0.929 . S
H606 C610 0.929 . S
H607 C616 0.929 . S
C608 H602 0.930 . S
C608 C609 1.367 . S
C608 C616 1.378 . S
C609 C608 1.367 . S
C609 C617 1.433 . S
C610 H606 0.929 . S
C610 C612 1.378 . S
C610 C614 1.350 . S
C611 C614 1.463 . S
C611 C616 1.350 . S
C611 N619 1.427 . S
C612 H603 0.930 . S
C612 C610 1.378 . S
C612 C613 1.367 . S
C613 C612 1.367 . S
C613 C615 1.433 . S
C614 C610 1.350 . S
C614 C611 1.463 . S
C614 N618 1.427 . S
C615 H605 0.929 . S
C615 C613 1.433 . S
C615 N618 1.384 . S
C616 H607 0.929 . S
C616 C608 1.378 . S
C616 C611 1.350 . S
C617 H604 0.929 . S
C617 C609 1.433 . S
C617 N619 1.384 . S
N618 C614 1.427 . S
N618 C615 1.384 . S
N619 C611 1.427 . S
N619 C617 1.384 . S
H620 C626 0.930 . S
H621 C630 0.930 . S
H622 C635 0.929 1_556 S
H623 C633 0.929 1_554 S
H624 C628 0.929 . S
H625 C634 0.929 . S
C626 H620 0.930 . S
C626 C627 1.367 . S
C626 C634 1.378 . S
C627 C626 1.367 . S
C627 C635 1.433 . S
C628 H624 0.929 . S
C628 C630 1.378 . S
C628 C632 1.350 . S
C629 C632 1.463 1_554 S
C629 C634 1.350 . S
C629 N637 1.427 1_554 S
C630 H621 0.930 . S
C630 C628 1.378 . S
C630 C631 1.367 . S
C631 C630 1.367 . S
C631 C633 1.433 . S
C632 C628 1.350 . S
C632 C629 1.463 1_556 S
C632 N636 1.427 1_556 S
C633 H623 0.929 1_556 S
C633 C631 1.433 . S
C633 N636 1.384 1_556 S
C634 H625 0.929 . S
C634 C626 1.378 . S
C634 C629 1.350 . S
C635 H622 0.929 1_554 S
C635 C627 1.433 . S
C635 N637 1.384 1_554 S
N636 C632 1.427 1_554 S
N636 C633 1.384 1_554 S
N637 C629 1.427 1_556 S
N637 C635 1.384 1_556 S
H638 C644 0.930 . S
H639 C648 0.930 . S
H640 C653 0.929 . S
H641 C651 0.929 . S
H642 C646 0.929 . S
H643 C652 0.929 . S
C644 H638 0.930 . S
C644 C645 1.367 . S
C644 C652 1.378 . S
C645 C644 1.367 . S
C645 C653 1.433 . S
C646 H642 0.929 . S
C646 C648 1.378 . S
C646 C650 1.350 . S
C647 C650 1.463 . S
C647 C652 1.350 . S
C647 N655 1.427 . S
C648 H639 0.930 . S
C648 C646 1.378 . S
C648 C649 1.367 . S
C649 C648 1.367 . S
C649 C651 1.433 . S
C650 C646 1.350 . S
C650 C647 1.463 . S
C650 N654 1.427 . S
C651 H641 0.929 . S
C651 C649 1.433 . S
C651 N654 1.384 . S
C652 H643 0.929 . S
C652 C644 1.378 . S
C652 C647 1.350 . S
C653 H640 0.929 . S
C653 C645 1.433 . S
C653 N655 1.384 . S
N654 C650 1.427 . S
N654 C651 1.384 . S
N655 C647 1.427 . S
N655 C653 1.384 . S
H656 C662 0.930 . S
H657 C666 0.930 . S
H658 C671 0.929 1_554 S
H659 C669 0.929 1_556 S
H660 C664 0.929 . S
H661 C670 0.929 . S
C662 H656 0.930 . S
C662 C663 1.367 . S
C662 C670 1.378 . S
C663 C662 1.367 . S
C663 C671 1.433 . S
C664 H660 0.929 . S
C664 C666 1.378 . S
C664 C668 1.350 . S
C665 C668 1.463 1_556 S
C665 C670 1.350 . S
C665 N673 1.427 1_556 S
C666 H657 0.930 . S
C666 C664 1.378 . S
C666 C667 1.367 . S
C667 C666 1.367 . S
C667 C669 1.433 . S
C668 C664 1.350 . S
C668 C665 1.463 1_554 S
C668 N672 1.427 1_554 S
C669 H659 0.929 1_554 S
C669 C667 1.433 . S
C669 N672 1.384 1_554 S
C670 H661 0.929 . S
C670 C662 1.378 . S
C670 C665 1.350 . S
C671 H658 0.929 1_556 S
C671 C663 1.433 . S
C671 N673 1.384 1_556 S
N672 C668 1.427 1_556 S
N672 C669 1.384 1_556 S
N673 C665 1.427 1_554 S
N673 C671 1.384 1_554 S
H674 C680 0.930 . S
H675 C684 0.930 . S
H676 C689 0.929 . S
H677 C687 0.929 . S
H678 C682 0.929 . S
H679 C688 0.929 . S
C680 H674 0.930 . S
C680 C681 1.367 . S
C680 C688 1.378 . S
C681 C680 1.367 . S
C681 C689 1.433 . S
C682 H678 0.929 . S
C682 C684 1.378 . S
C682 C686 1.350 . S
C683 C686 1.463 . S
C683 C688 1.350 . S
C683 N691 1.427 . S
C684 H675 0.930 . S
C684 C682 1.378 . S
C684 C685 1.367 . S
C685 C684 1.367 . S
C685 C687 1.433 . S
C686 C682 1.350 . S
C686 C683 1.463 . S
C686 N690 1.427 . S
C687 H677 0.929 . S
C687 C685 1.433 . S
C687 N690 1.384 . S
C688 H679 0.929 . S
C688 C680 1.378 . S
C688 C683 1.350 . S
C689 H676 0.929 . S
C689 C681 1.433 . S
C689 N691 1.384 . S
N690 C686 1.427 . S
N690 C687 1.384 . S
N691 C683 1.427 . S
N691 C689 1.384 . S
H692 C698 0.930 . S
H693 C702 0.930 . S
H694 C707 0.929 1_556 S
H695 C705 0.929 1_554 S
H696 C700 0.929 . S
H697 C706 0.929 . S
C698 H692 0.930 . S
C698 C699 1.367 . S
C698 C706 1.378 . S
C699 C698 1.367 . S
C699 C707 1.433 . S
C700 H696 0.929 . S
C700 C702 1.378 . S
C700 C704 1.350 . S
C701 C704 1.463 1_554 S
C701 C706 1.350 . S
C701 N709 1.427 1_554 S
C702 H693 0.930 . S
C702 C700 1.378 . S
C702 C703 1.367 . S
C703 C702 1.367 . S
C703 C705 1.433 . S
C704 C700 1.350 . S
C704 C701 1.463 1_556 S
C704 N708 1.427 1_556 S
C705 H695 0.929 1_556 S
C705 C703 1.433 . S
C705 N708 1.384 1_556 S
C706 H697 0.929 . S
C706 C698 1.378 . S
C706 C701 1.350 . S
C707 H694 0.929 1_554 S
C707 C699 1.433 . S
C707 N709 1.384 1_554 S
N708 C704 1.427 1_554 S
N708 C705 1.384 1_554 S
N709 C701 1.427 1_556 S
N709 C707 1.384 1_556 S
H710 C716 0.930 . S
H711 C720 0.930 . S
H712 C725 0.929 . S
H713 C723 0.929 . S
H714 C718 0.929 . S
H715 C724 0.929 . S
C716 H710 0.930 . S
C716 C717 1.367 . S
C716 C724 1.378 . S
C717 C716 1.367 . S
C717 C725 1.433 . S
C718 H714 0.929 . S
C718 C720 1.378 . S
C718 C722 1.350 . S
C719 C722 1.463 . S
C719 C724 1.350 . S
C719 N727 1.427 . S
C720 H711 0.930 . S
C720 C718 1.378 . S
C720 C721 1.367 . S
C721 C720 1.367 . S
C721 C723 1.433 . S
C722 C718 1.350 . S
C722 C719 1.463 . S
C722 N726 1.427 . S
C723 H713 0.929 . S
C723 C721 1.433 . S
C723 N726 1.384 . S
C724 H715 0.929 . S
C724 C716 1.378 . S
C724 C719 1.350 . S
C725 H712 0.929 . S
C725 C717 1.433 . S
C725 N727 1.384 . S
N726 C722 1.427 . S
N726 C723 1.384 . S
N727 C719 1.427 . S
N727 C725 1.384 . S
H728 C734 0.930 1_554 S
H729 C738 0.930 1_556 S
H730 C743 0.929 . S
H731 C741 0.929 . S
H732 C736 0.929 . S
H733 C742 0.929 . S
C734 H728 0.930 1_556 S
C734 C735 1.367 . S
C734 C742 1.378 1_556 S
C735 C734 1.367 . S
C735 C743 1.433 . S
C736 H732 0.929 . S
C736 C738 1.378 1_556 S
C736 C740 1.350 1_556 S
C737 C740 1.463 1_546 S
C737 C742 1.350 1_556 S
C737 N745 1.427 . S
C738 H729 0.930 1_554 S
C738 C736 1.378 1_554 S
C738 C739 1.367 . S
C739 C738 1.367 . S
C739 C741 1.433 . S
C740 C736 1.350 1_554 S
C740 C737 1.463 1_564 S
C740 N744 1.427 . S
C741 H731 0.929 . S
C741 C739 1.433 . S
C741 N744 1.384 . S
C742 H733 0.929 . S
C742 C734 1.378 1_554 S
C742 C737 1.350 1_554 S
C743 H730 0.929 . S
C743 C735 1.433 . S
C743 N745 1.384 . S
N744 C740 1.427 . S
N744 C741 1.384 . S
N745 C737 1.427 . S
N745 C743 1.384 . S
H746 C752 0.930 . S
H747 C756 0.930 . S
H748 C761 0.929 . S
H749 C759 0.929 . S
H750 C754 0.929 . S
H751 C760 0.929 . S
C752 H746 0.930 . S
C752 C753 1.367 . S
C752 C760 1.378 . S
C753 C752 1.367 . S
C753 C761 1.433 . S
C754 H750 0.929 . S
C754 C756 1.378 . S
C754 C758 1.350 . S
C755 C758 1.463 1_565 S
C755 C760 1.350 . S
C755 N763 1.427 . S
C756 H747 0.930 . S
C756 C754 1.378 . S
C756 C757 1.367 . S
C757 C756 1.367 . S
C757 C759 1.433 . S
C758 C754 1.350 . S
C758 C755 1.463 1_545 S
C758 N762 1.427 . S
C759 H749 0.929 . S
C759 C757 1.433 . S
C759 N762 1.384 . S
C760 H751 0.929 . S
C760 C752 1.378 . S
C760 C755 1.350 . S
C761 H748 0.929 . S
C761 C753 1.433 . S
C761 N763 1.384 . S
N762 C758 1.427 . S
N762 C759 1.384 . S
N763 C755 1.427 . S
N763 C761 1.384 . S
H764 C770 0.930 . S
H765 C774 0.930 . S
H766 C779 0.929 . S
H767 C777 0.929 . S
H768 C772 0.929 1_554 S
H769 C778 0.929 1_556 S
C770 H764 0.930 . S
C770 C771 1.367 . S
C770 C778 1.378 . S
C771 C770 1.367 . S
C771 C779 1.433 . S
C772 H768 0.929 1_556 S
C772 C774 1.378 . S
C772 C776 1.350 . S
C773 C776 1.463 1_564 S
C773 C778 1.350 . S
C773 N781 1.427 . S
C774 H765 0.930 . S
C774 C772 1.378 . S
C774 C775 1.367 . S
C775 C774 1.367 . S
C775 C777 1.433 . S
C776 C772 1.350 . S
C776 C773 1.463 1_546 S
C776 N780 1.427 . S
C777 H767 0.929 . S
C777 C775 1.433 . S
C777 N780 1.384 . S
C778 H769 0.929 1_554 S
C778 C770 1.378 . S
C778 C773 1.350 . S
C779 H766 0.929 . S
C779 C771 1.433 . S
C779 N781 1.384 . S
N780 C776 1.427 . S
N780 C777 1.384 . S
N781 C773 1.427 . S
N781 C779 1.384 . S
H782 C788 0.930 . S
H783 C792 0.930 . S
H784 C797 0.929 . S
H785 C795 0.929 . S
H786 C790 0.929 . S
H787 C796 0.929 . S
C788 H782 0.930 . S
C788 C789 1.367 . S
C788 C796 1.378 . S
C789 C788 1.367 . S
C789 C797 1.433 . S
C790 H786 0.929 . S
C790 C792 1.378 . S
C790 C794 1.350 . S
C791 C794 1.463 1_545 S
C791 C796 1.350 . S
C791 N799 1.427 . S
C792 H783 0.930 . S
C792 C790 1.378 . S
C792 C793 1.367 . S
C793 C792 1.367 . S
C793 C795 1.433 . S
C794 C790 1.350 . S
C794 C791 1.463 1_565 S
C794 N798 1.427 . S
C795 H785 0.929 . S
C795 C793 1.433 . S
C795 N798 1.384 . S
C796 H787 0.929 . S
C796 C788 1.378 . S
C796 C791 1.350 . S
C797 H784 0.929 . S
C797 C789 1.433 . S
C797 N799 1.384 . S
N798 C794 1.427 . S
N798 C795 1.384 . S
N799 C791 1.427 . S
N799 C797 1.384 . S
C231 C9 1.418 . S
C235 C93 1.422 . S
C249 C23 1.423 . S
C253 C107 1.415 . S
C267 C65 1.417 . S
C271 C37 1.423 . S
C285 C79 1.422 . S
C289 C51 1.418 . S
C303 C205 1.421 . S
C307 C121 1.416 . S
C321 C219 1.416 . S
C325 C135 1.424 . S
C339 C149 1.416 . S
C343 C177 1.424 . S
C357 C163 1.423 . S
C361 C191 1.415 . S
C375 C7 1.424 . S
C379 C73 1.492 . S
C393 C21 1.440 . S
C397 C59 1.490 . S
C411 C35 1.426 . S
C415 C101 1.491 . S
C429 C87 1.492 . S
C433 C49 1.432 . S
C447 C185 1.490 . S
C451 C119 1.429 . S
C465 C171 1.490 . S
C469 C133 1.440 . S
C483 C147 1.424 . S
C487 C213 1.492 . S
C501 C199 1.493 . S
C505 C161 1.430 . S
C519 C176 1.396 . S
C523 C8 1.388 . S
C537 C22 1.384 . S
C541 C190 1.394 . S
C555 C204 1.394 . S
C559 C36 1.385 . S
C573 C218 1.397 . S
C577 C50 1.390 . S
C591 C120 1.385 . S
C595 C64 1.395 . S
C609 C134 1.391 . S
C613 C78 1.397 . S
C627 C92 1.397 . S
C631 C148 1.392 . S
C645 C106 1.394 . S
C649 C162 1.384 . S
C663 C31 1.504 . S
C667 C3 1.503 . S
C681 C17 1.504 . S
C685 C45 1.505 . S
C699 C91 1.412 . S
C703 C63 1.418 . S
C717 C77 1.412 . S
C721 C105 1.417 . S
C735 C143 1.504 . S
C739 C115 1.505 . S
C753 C157 1.505 . S
C757 C129 1.505 . S
C771 C203 1.417 . S
C775 C175 1.427 . S
C789 C217 1.412 . S
C793 C189 1.417 . S
