# Generated by pormake.
# Topology uol, (4)-cn, num edge types: 1
# Building blocks:
#     Node 0, Type 0, BuildingBlock: TATPOV_clean_sbu_0, # of connection points: 4
#     Node 1, Type 0, BuildingBlock: TATPOV_clean_sbu_0, # of connection points: 4
#     Node 2, Type 0, BuildingBlock: TATPOV_clean_sbu_0, # of connection points: 4
#     Node 3, Type 0, BuildingBlock: TATPOV_clean_sbu_0, # of connection points: 4
#     Node 4, Type 0, BuildingBlock: TATPOV_clean_sbu_0, # of connection points: 4
#     Node 5, Type 0, BuildingBlock: TATPOV_clean_sbu_0, # of connection points: 4
#     Node 6, Type 0, BuildingBlock: TATPOV_clean_sbu_0, # of connection points: 4
#     Node 7, Type 0, BuildingBlock: TATPOV_clean_sbu_0, # of connection points: 4
#     Node 8, Type 0, BuildingBlock: TATPOV_clean_sbu_0, # of connection points: 4
#     Node 9, Type 0, BuildingBlock: TATPOV_clean_sbu_0, # of connection points: 4
#     Node 10, Type 0, BuildingBlock: TATPOV_clean_sbu_0, # of connection points: 4
#     Node 11, Type 0, BuildingBlock: TATPOV_clean_sbu_0, # of connection points: 4
#     Edge 12, Type (0, 0), BuildingBlock: AJUNOK_clean_linker_0, # of connection points: 2
#     Edge 13, Type (0, 0), BuildingBlock: AJUNOK_clean_linker_0, # of connection points: 2
#     Edge 14, Type (0, 0), BuildingBlock: AJUNOK_clean_linker_0, # of connection points: 2
#     Edge 15, Type (0, 0), BuildingBlock: AJUNOK_clean_linker_0, # of connection points: 2
#     Edge 16, Type (0, 0), BuildingBlock: AJUNOK_clean_linker_0, # of connection points: 2
#     Edge 17, Type (0, 0), BuildingBlock: AJUNOK_clean_linker_0, # of connection points: 2
#     Edge 18, Type (0, 0), BuildingBlock: AJUNOK_clean_linker_0, # of connection points: 2
#     Edge 19, Type (0, 0), BuildingBlock: AJUNOK_clean_linker_0, # of connection points: 2
#     Edge 20, Type (0, 0), BuildingBlock: AJUNOK_clean_linker_0, # of connection points: 2
#     Edge 21, Type (0, 0), BuildingBlock: AJUNOK_clean_linker_0, # of connection points: 2
#     Edge 22, Type (0, 0), BuildingBlock: AJUNOK_clean_linker_0, # of connection points: 2
#     Edge 23, Type (0, 0), BuildingBlock: AJUNOK_clean_linker_0, # of connection points: 2
#     Edge 24, Type (0, 0), BuildingBlock: AJUNOK_clean_linker_0, # of connection points: 2
#     Edge 25, Type (0, 0), BuildingBlock: AJUNOK_clean_linker_0, # of connection points: 2
#     Edge 26, Type (0, 0), BuildingBlock: AJUNOK_clean_linker_0, # of connection points: 2
#     Edge 27, Type (0, 0), BuildingBlock: AJUNOK_clean_linker_0, # of connection points: 2
#     Edge 28, Type (0, 0), BuildingBlock: AJUNOK_clean_linker_0, # of connection points: 2
#     Edge 29, Type (0, 0), BuildingBlock: AJUNOK_clean_linker_0, # of connection points: 2
#     Edge 30, Type (0, 0), BuildingBlock: AJUNOK_clean_linker_0, # of connection points: 2
#     Edge 31, Type (0, 0), BuildingBlock: AJUNOK_clean_linker_0, # of connection points: 2
#     Edge 32, Type (0, 0), BuildingBlock: AJUNOK_clean_linker_0, # of connection points: 2
#     Edge 33, Type (0, 0), BuildingBlock: AJUNOK_clean_linker_0, # of connection points: 2
#     Edge 34, Type (0, 0), BuildingBlock: AJUNOK_clean_linker_0, # of connection points: 2
#     Edge 35, Type (0, 0), BuildingBlock: AJUNOK_clean_linker_0, # of connection points: 2
# Relax obj value: 0.209
# Max RMSD: 0.264
# Mean RMSD: 0.264
data_MOF--net-uol--node1-TATPOV_clean_sbu_0--edge1-AJUNOK_clean_linker_0
_symmetry_space_group_name_H-M    P1
_symmetry_Int_Tables_number       1
_symmetry_cell_setting            triclinic
loop_
_symmetry_equiv_pos_as_xyz
'x, y, z'
_cell_length_a     24.256025
_cell_length_b     24.291703
_cell_length_c     45.877564
_cell_angle_alpha  90.156596
_cell_angle_beta   89.866873
_cell_angle_gamma 120.0472
loop_
_atom_site_label
_atom_site_type_symbol
_atom_site_fract_x
_atom_site_fract_y
_atom_site_fract_z
_atom_type_partial_charge
Zn0 Zn 0.16725 0.25913 0.0667 0.0
Zn1 Zn 0.19274 0.37713 0.07061 0.0
O2 O 0.21421 0.36878 0.02714 0.0
O3 O 0.18409 0.26689 0.02425 0.0
O4 O 0.20716 0.46599 0.07373 0.0
O5 O 0.07828 0.22605 0.08149 0.0
O6 O 0.09881 0.3248 0.08408 0.0
C7 C 0.20588 0.32065 0.01234 0.0
C8 C 0.26485 0.3306 0.10854 0.0
O9 O 0.25205 0.37392 0.10191 0.0
O10 O 0.23752 0.27774 0.09529 0.0
C11 C 0.25493 0.51644 0.06416 0.0
O12 O 0.30089 0.51262 0.05085 0.0
C13 C 0.06043 0.26552 0.08766 0.0
Zn14 Zn 0.88143 0.11449 0.23335 0.0
Zn15 Zn 0.81009 0.16764 0.23507 0.0
O16 O 0.85167 0.18997 0.19372 0.0
O17 O 0.89839 0.13231 0.19097 0.0
O18 O 0.74638 0.19775 0.23435 0.0
O19 O 0.8104 0.02982 0.24659 0.0
O20 O 0.7506 0.07393 0.24686 0.0
C21 C 0.88273 0.16948 0.17924 0.0
C22 C 0.92177 0.21507 0.27653 0.0
O23 O 0.87158 0.21541 0.26873 0.0
O24 O 0.93832 0.17929 0.26374 0.0
C25 C 0.74985 0.24595 0.24708 0.0
O26 O 0.80166 0.28467 0.2616 0.0
C27 C 0.75698 0.02559 0.25117 0.0
Zn28 Zn 0.7247 0.91943 0.40406 0.0
Zn29 Zn 0.60944 0.82311 0.41008 0.0
O30 O 0.61562 0.84762 0.36594 0.0
O31 O 0.71629 0.92237 0.36145 0.0
O32 O 0.52117 0.74599 0.41329 0.0
O33 O 0.76275 0.87016 0.42091 0.0
O34 O 0.66635 0.78761 0.42479 0.0
C35 C 0.66234 0.88675 0.35024 0.0
C36 C 0.65244 0.94675 0.44444 0.0
O37 O 0.61158 0.88847 0.43978 0.0
O38 O 0.70429 0.97312 0.43035 0.0
C39 C 0.4746 0.74268 0.42761 0.0
O40 O 0.48207 0.79328 0.44151 0.0
C41 C 0.72636 0.81292 0.42834 0.0
Zn42 Zn 0.92967 0.7913 0.56384 0.0
Zn43 Zn 0.84608 0.6707 0.57119 0.0
O44 O 0.82247 0.69073 0.53079 0.0
O45 O 0.89381 0.79159 0.52457 0.0
O46 O 0.79736 0.57548 0.57358 0.0
O47 O 0.00793 0.78365 0.56778 0.0
O48 O 0.93642 0.68733 0.58089 0.0
C49 C 0.84597 0.74111 0.51542 0.0
C50 C 0.84271 0.76016 0.61446 0.0
O51 O 0.81467 0.70342 0.60473 0.0
O52 O 0.89105 0.80357 0.60132 0.0
C53 C 0.79695 0.54985 0.59774 0.0
O54 O 0.8221 0.58649 0.62069 0.0
C55 C 0.99466 0.73061 0.57861 0.0
Zn56 Zn 0.0978 0.80213 0.73166 0.0
Zn57 Zn 0.19162 0.7797 0.73856 0.0
O58 O 0.16479 0.75686 0.69484 0.0
O59 O 0.09075 0.78338 0.68951 0.0
O60 O 0.26881 0.76893 0.7416 0.0
O61 O 0.15015 0.89171 0.74627 0.0
O62 O 0.22932 0.87339 0.75205 0.0
C63 C 0.12477 0.76242 0.67894 0.0
C64 C 0.06943 0.70538 0.77421 0.0
O65 O 0.12684 0.71948 0.76929 0.0
O66 O 0.04483 0.73213 0.7599 0.0
C67 C 0.27318 0.72557 0.75505 0.0
O68 O 0.22291 0.68071 0.7685 0.0
C69 C 0.20675 0.91068 0.75432 0.0
Zn70 Zn 0.22362 0.10064 0.8969 0.0
Zn71 Zn 0.34762 0.17144 0.89946 0.0
O72 O 0.32916 0.12729 0.85856 0.0
O73 O 0.22488 0.08084 0.85488 0.0
O74 O 0.44183 0.23507 0.8987 0.0
O75 O 0.20874 0.17142 0.90922 0.0
O76 O 0.31275 0.2309 0.9108 0.0
C77 C 0.27816 0.09501 0.84384 0.0
C78 C 0.28189 0.06118 0.94128 0.0
O79 O 0.33291 0.11101 0.93356 0.0
O80 O 0.23002 0.04461 0.92807 0.0
C81 C 0.48493 0.23363 0.91385 0.0
O82 O 0.46955 0.18477 0.93096 0.0
C83 C 0.25773 0.22457 0.91443 0.0
Zn84 Zn 0.78566 0.92358 0.7689 0.0
Zn85 Zn 0.66668 0.8454 0.75644 0.0
O86 O 0.67908 0.81915 0.79813 0.0
O87 O 0.77696 0.89189 0.80958 0.0
O88 O 0.5716 0.80133 0.74993 0.0
O89 O 0.78677 0.00477 0.76046 0.0
O90 O 0.69017 0.93746 0.74569 0.0
C91 C 0.72493 0.84307 0.81635 0.0
C92 C 0.76262 0.8345 0.71995 0.0
O93 O 0.70364 0.8127 0.72521 0.0
O94 O 0.80417 0.87954 0.73543 0.0
C95 C 0.52802 0.76045 0.76631 0.0
O96 O 0.54393 0.739 0.78915 0.0
C97 C 0.7361 0.99451 0.74799 0.0
Zn98 Zn 0.90735 0.7211 0.92051 0.0
Zn99 Zn 0.81122 0.60475 0.91546 0.0
O100 O 0.83766 0.61066 0.95927 0.0
O101 O 0.91444 0.7107 0.96276 0.0
O102 O 0.73484 0.51696 0.91172 0.0
O103 O 0.85446 0.75794 0.90644 0.0
O104 O 0.7736 0.66066 0.90203 0.0
C105 C 0.87908 0.65719 0.97436 0.0
C106 C 0.93225 0.64801 0.87906 0.0
O107 O 0.8751 0.60588 0.88518 0.0
O108 O 0.95831 0.70107 0.89213 0.0
C109 C 0.73179 0.46627 0.92104 0.0
O110 O 0.78172 0.46976 0.93396 0.0
C111 C 0.79692 0.72058 0.89968 0.0
Zn112 Zn 0.10965 0.87839 0.09093 0.0
Zn113 Zn 0.16521 0.80942 0.08817 0.0
O114 O 0.1876 0.85053 0.12963 0.0
O115 O 0.12735 0.8943 0.13335 0.0
O116 O 0.19761 0.74743 0.0884 0.0
O117 O 0.02551 0.80683 0.07742 0.0
O118 O 0.07143 0.74872 0.07644 0.0
C119 C 0.1661 0.88008 0.14458 0.0
C120 C 0.21087 0.92247 0.04785 0.0
O121 O 0.21192 0.87232 0.05489 0.0
O122 O 0.17418 0.93742 0.06098 0.0
C123 C 0.24106 0.74868 0.07235 0.0
O124 O 0.27244 0.79657 0.05443 0.0
C125 C 0.02232 0.75408 0.07246 0.0
Zn126 Zn 0.2576 0.1657 0.25672 0.0
Zn127 Zn 0.37548 0.19226 0.25247 0.0
O128 O 0.36754 0.21414 0.29594 0.0
O129 O 0.26466 0.17968 0.29935 0.0
O130 O 0.46447 0.20678 0.24934 0.0
O131 O 0.22431 0.07767 0.24107 0.0
O132 O 0.32328 0.09825 0.23898 0.0
C133 C 0.3189 0.20337 0.31105 0.0
C134 C 0.32875 0.2653 0.21567 0.0
O135 O 0.37197 0.25174 0.22143 0.0
O136 O 0.27611 0.23759 0.22914 0.0
C137 C 0.51592 0.25745 0.25557 0.0
O138 O 0.51332 0.30704 0.26525 0.0
C139 C 0.26397 0.05992 0.23514 0.0
Zn140 Zn 0.10438 0.23292 0.42713 0.0
Zn141 Zn 0.17611 0.35606 0.42253 0.0
O142 O 0.13564 0.34178 0.46422 0.0
O143 O 0.08846 0.23787 0.4693 0.0
O144 O 0.2407 0.44965 0.42032 0.0
O145 O 0.17329 0.21558 0.4143 0.0
O146 O 0.23375 0.31907 0.41114 0.0
C147 C 0.10419 0.29196 0.47973 0.0
C148 C 0.06182 0.28855 0.38286 0.0
O149 O 0.11287 0.33965 0.38936 0.0
O150 O 0.04596 0.23764 0.39669 0.0
C151 C 0.24335 0.49448 0.43572 0.0
O152 O 0.19846 0.48155 0.45505 0.0
C153 C 0.22647 0.26365 0.4081 0.0
Zn154 Zn 0.81706 0.10573 0.59203 0.0
Zn155 Zn 0.79169 0.1989 0.58794 0.0
O156 O 0.77123 0.16833 0.63122 0.0
O157 O 0.80006 0.09576 0.63449 0.0
O158 O 0.77631 0.27319 0.58557 0.0
O159 O 0.90597 0.16201 0.57711 0.0
O160 O 0.88526 0.24 0.57367 0.0
C161 C 0.77858 0.12833 0.64616 0.0
C162 C 0.7185 0.07967 0.55047 0.0
O163 O 0.73145 0.13593 0.557 0.0
O164 O 0.74633 0.0545 0.5635 0.0
C165 C 0.75965 0.29534 0.60683 0.0
O166 O 0.74917 0.26775 0.63241 0.0
C167 C 0.92354 0.21888 0.57019 0.0
C168 C 0.20682 0.63691 0.08666 0.0
C169 C 0.25011 0.69251 0.07166 0.0
C170 C 0.20982 0.58105 0.08448 0.0
C171 C 0.2565 0.57813 0.06733 0.0
H172 H 0.16896 0.63573 0.09971 0.0
H173 H 0.17441 0.53948 0.09609 0.0
S174 S 0.38462 0.71183 0.02546 0.0
N175 N 0.34364 0.74222 0.04031 0.0
N176 N 0.34948 0.63706 0.03631 0.0
C177 C 0.30171 0.63397 0.05304 0.0
C178 C 0.29845 0.69109 0.05517 0.0
C179 C 0.63457 0.20435 0.23687 0.0
C180 C 0.69269 0.25349 0.24786 0.0
C181 C 0.5784 0.20687 0.23914 0.0
C182 C 0.57759 0.25881 0.25236 0.0
H183 H 0.63179 0.16255 0.22692 0.0
H184 H 0.53504 0.16709 0.23066 0.0
S185 S 0.71771 0.40228 0.28293 0.0
N186 N 0.74666 0.35743 0.27127 0.0
N187 N 0.64084 0.36233 0.27542 0.0
C188 C 0.63568 0.3094 0.26266 0.0
C189 C 0.69318 0.30668 0.26046 0.0
C190 C 0.40575 0.62907 0.41264 0.0
C191 C 0.41347 0.68128 0.42923 0.0
C192 C 0.35017 0.56967 0.41448 0.0
C193 C 0.29967 0.5595 0.4331 0.0
H194 H 0.44324 0.63369 0.3982 0.0
H195 H 0.34747 0.53114 0.40145 0.0
S196 S 0.29438 0.68114 0.48039 0.0
N197 N 0.36462 0.71942 0.46428 0.0
N198 N 0.26016 0.60761 0.4678 0.0
C199 C 0.30602 0.61157 0.44941 0.0
C200 C 0.3628 0.67238 0.44746 0.0
C201 C 0.77358 0.45343 0.62654 0.0
C202 C 0.77793 0.48159 0.59924 0.0
C203 C 0.76456 0.39197 0.62876 0.0
C204 C 0.76024 0.35638 0.60375 0.0
H205 H 0.7791 0.47973 0.64647 0.0
H206 H 0.7637 0.37343 0.65031 0.0
S207 S 0.76193 0.40539 0.52702 0.0
N208 N 0.77185 0.46684 0.54656 0.0
N209 N 0.75552 0.35158 0.55078 0.0
C210 C 0.7613 0.3826 0.57629 0.0
C211 C 0.7699 0.44507 0.57403 0.0
C212 C 0.44821 0.78188 0.74232 0.0
C213 C 0.46108 0.74513 0.76186 0.0
C214 C 0.38715 0.77394 0.73985 0.0
C215 C 0.3359 0.72857 0.75665 0.0
H216 H 0.48603 0.81873 0.72936 0.0
H217 H 0.38056 0.80469 0.72495 0.0
S218 S 0.34259 0.61581 0.8091 0.0
N219 N 0.41631 0.65848 0.79693 0.0
N220 N 0.30128 0.64325 0.79218 0.0
C221 C 0.3473 0.68945 0.77537 0.0
C222 C 0.40985 0.69783 0.77801 0.0
C223 C 0.56167 0.34622 0.90009 0.0
C224 C 0.55012 0.29017 0.91434 0.0
C225 C 0.62073 0.40216 0.90201 0.0
C226 C 0.67124 0.40469 0.91815 0.0
H227 H 0.52432 0.34764 0.8878 0.0
H228 H 0.62634 0.44405 0.89099 0.0
S229 S 0.66762 0.2699 0.95791 0.0
N230 N 0.59549 0.23978 0.94399 0.0
N231 N 0.70675 0.34501 0.94752 0.0
C232 C 0.66124 0.34847 0.93174 0.0
C233 C 0.60071 0.2913 0.92987 0.0
C234 C 0.35296 0.28838 0.16305 0.0
C235 C 0.33322 0.30246 0.18949 0.0
C236 C 0.33635 0.30389 0.13631 0.0
C237 C 0.30105 0.33543 0.1352 0.0
H238 H 0.37534 0.25938 0.1629 0.0
H239 H 0.34679 0.28664 0.11643 0.0
S240 S 0.24968 0.39402 0.19848 0.0
N241 N 0.28475 0.35739 0.2131 0.0
N242 N 0.25552 0.38864 0.16283 0.0
C243 C 0.28813 0.35667 0.16148 0.0
C244 C 0.30368 0.33954 0.18869 0.0
C245 C 0.02305 0.28325 0.30322 0.0
C246 C 0.95611 0.24833 0.30322 0.0
C247 C 0.05733 0.30221 0.32945 0.0
C248 C 0.02566 0.28483 0.35645 0.0
H249 H 0.04905 0.29312 0.28287 0.0
H250 H 0.10885 0.32592 0.32858 0.0
S251 S 0.85105 0.19755 0.36818 0.0
N252 N 0.85944 0.20182 0.33236 0.0
N253 N 0.92398 0.2347 0.38169 0.0
C254 C 0.95882 0.25291 0.35671 0.0
C255 C 0.92395 0.23536 0.33004 0.0
C256 C 0.64563 0.98053 0.5235 0.0
C257 C 0.68111 0.0474 0.52419 0.0
C258 C 0.62823 0.94736 0.49696 0.0
C259 C 0.64736 0.98015 0.47032 0.0
H260 H 0.63584 0.95363 0.54353 0.0
H261 H 0.60599 0.896 0.49745 0.0
S262 S 0.7304 0.15493 0.4603 0.0
N263 N 0.72568 0.14507 0.49601 0.0
N264 N 0.69482 0.08267 0.44612 0.0
C265 C 0.67663 0.04681 0.47074 0.0
C266 C 0.69307 0.08055 0.49774 0.0
C267 C 0.75751 0.74852 0.64936 0.0
C268 C 0.82233 0.77562 0.6422 0.0
C269 C 0.73836 0.76638 0.67495 0.0
C270 C 0.78344 0.81118 0.6945 0.0
H271 H 0.72137 0.71486 0.63466 0.0
H272 H 0.68786 0.74591 0.67908 0.0
S273 S 0.95958 0.88855 0.68736 0.0
N274 N 0.93159 0.84459 0.65772 0.0
N275 N 0.89637 0.87725 0.70588 0.0
C276 C 0.84858 0.83589 0.68814 0.0
C277 C 0.8678 0.81838 0.66198 0.0
C278 C 0.03257 0.67236 0.85348 0.0
C279 C 0.96555 0.64106 0.85353 0.0
C280 C 0.06687 0.68551 0.82731 0.0
C281 C 0.03512 0.66911 0.80037 0.0
H282 H 0.05875 0.69132 0.87359 0.0
H283 H 0.11829 0.71474 0.8281 0.0
S284 S 0.86053 0.57634 0.78895 0.0
N285 N 0.8689 0.58507 0.82467 0.0
N286 N 0.93346 0.61169 0.77542 0.0
C287 C 0.96833 0.63183 0.80032 0.0
C288 C 0.93342 0.61724 0.82699 0.0
C289 C 0.23141 0.92652 0.99465 0.0
C290 C 0.24428 0.95844 0.02155 0.0
C291 C 0.24787 0.96045 0.96834 0.0
C292 C 0.27966 0.02728 0.96821 0.0
H293 H 0.20389 0.87504 0.99387 0.0
H294 H 0.23283 0.93426 0.94801 0.0
S295 S 0.33044 0.13288 0.03294 0.0
N296 N 0.29422 0.06021 0.0466 0.0
N297 N 0.32809 0.12413 0.99715 0.0
C298 C 0.29743 0.05969 0.99498 0.0
C299 C 0.27891 0.02517 0.02171 0.0
C300 C 0.28701 0.33931 0.9753 0.0
C301 C 0.22465 0.32531 0.98162 0.0
C302 C 0.29992 0.31364 0.9505 0.0
C303 C 0.25048 0.27253 0.93158 0.0
H304 H 0.32436 0.36352 0.99133 0.0
H305 H 0.34719 0.31991 0.94823 0.0
S306 S 0.0828 0.23654 0.93479 0.0
N307 N 0.11615 0.27943 0.96431 0.0
N308 N 0.14002 0.23175 0.91745 0.0
C309 C 0.19014 0.26663 0.93545 0.0
C310 C 0.17723 0.29276 0.96067 0.0
C311 C 0.94917 0.2606 0.14652 0.0
C312 C 0.90936 0.19474 0.15024 0.0
C313 C 0.99409 0.28448 0.12379 0.0
C314 C 1.0003 0.24305 0.10421 0.0
H315 H 0.95029 0.29335 0.16291 0.0
H316 H 0.02799 0.33503 0.12339 0.0
S317 S 0.89498 0.06786 0.10053 0.0
N318 N 0.87035 0.08964 0.12962 0.0
N319 N 0.95346 0.13413 0.08659 0.0
C320 C 0.95475 0.17784 0.10556 0.0
C321 C 0.90961 0.15373 0.12874 0.0
C322 C 0.6664 0.97983 0.28641 0.0
C323 C 0.70849 0.97101 0.26836 0.0
C324 C 0.64064 0.94305 0.31162 0.0
C325 C 0.6556 0.8961 0.31919 0.0
H326 H 0.65961 0.02022 0.28323 0.0
H327 H 0.61599 0.95704 0.32705 0.0
S328 S 0.74606 0.84108 0.27463 0.0
N329 N 0.75041 0.90136 0.25611 0.0
N330 N 0.70254 0.83319 0.30376 0.0
C331 C 0.68856 0.88003 0.29895 0.0
C332 C 0.7148 0.91725 0.27332 0.0
C333 C 0.85017 0.79132 0.46778 0.0
C334 C 0.81407 0.74459 0.4886 0.0
C335 C 0.82082 0.8086 0.44638 0.0
C336 C 0.75408 0.78036 0.44509 0.0
H337 H 0.9017 0.81764 0.46914 0.0
H338 H 0.85104 0.84758 0.43202 0.0
S339 S 0.63782 0.64717 0.49129 0.0
N340 N 0.70809 0.66365 0.50404 0.0
N341 N 0.65254 0.69656 0.46386 0.0
C342 C 0.71726 0.72886 0.46383 0.0
C343 C 0.74739 0.7109 0.48562 0.0
C344 C 0.13667 0.79046 0.62705 0.0
C345 C 0.11383 0.74259 0.64829 0.0
C346 C 0.10257 0.78224 0.60124 0.0
C347 C 0.0437 0.72638 0.59633 0.0
H348 H 0.1765 0.83721 0.63198 0.0
H349 H 0.11834 0.82303 0.58706 0.0
S350 S 0.97471 0.58035 0.64162 0.0
N351 N 0.03791 0.63286 0.65999 0.0
N352 N 0.97353 0.61669 0.61145 0.0
C353 C 0.02666 0.67448 0.61514 0.0
C354 C 0.06171 0.68295 0.64133 0.0
C355 C 0.23115 0.056 0.79502 0.0
C356 C 0.27776 0.06527 0.81564 0.0
C357 C 0.21348 0.01035 0.77298 0.0
C358 C 0.24099 0.97132 0.77098 0.0
H359 H 0.20462 0.08078 0.79729 0.0
H360 H 0.17421 0.00219 0.75895 0.0
S361 S 0.37452 0.98607 0.81624 0.0
N362 N 0.35848 0.03944 0.82997 0.0
N363 N 0.32494 0.95278 0.78866 0.0
C364 C 0.29293 0.98536 0.78938 0.0
C365 C 0.31136 0.03257 0.81174 0.0
C366 C 0.69903 0.74242 0.84189 0.0
C367 C 0.72363 0.80856 0.84304 0.0
C368 C 0.71765 0.71206 0.86246 0.0
C369 C 0.76129 0.74709 0.8847 0.0
H370 H 0.67057 0.7151 0.82345 0.0
H371 H 0.70252 0.66229 0.8592 0.0
S372 S 0.82479 0.91783 0.90151 0.0
N373 N 0.78304 0.90538 0.87137 0.0
N374 N 0.81755 0.84853 0.91009 0.0
C375 C 0.77922 0.81146 0.88816 0.0
C376 C 0.76047 0.84219 0.86728 0.0
C377 C 0.93921 0.63785 0.01197 0.0
C378 C 0.89054 0.65099 0.00521 0.0
C379 C 0.97705 0.66421 0.03687 0.0
C380 C 0.96766 0.70519 0.0554 0.0
H381 H 0.95337 0.61406 0.99614 0.0
H382 H 0.01844 0.65874 0.03943 0.0
S383 S 0.83431 0.73836 0.05121 0.0
N384 N 0.82607 0.69532 0.02188 0.0
N385 N 0.89635 0.74442 0.06892 0.0
C386 C 0.91267 0.70988 0.05122 0.0
C387 C 0.8743 0.68295 0.02592 0.0
C388 C 0.25839 0.94802 0.17651 0.0
C389 C 0.19239 0.9074 0.17338 0.0
C390 C 0.28274 0.99359 0.19896 0.0
C391 C 0.24163 0.99963 0.21882 0.0
H392 H 0.29074 0.94922 0.15987 0.0
H393 H 0.33322 0.02804 0.19891 0.0
S394 S 0.06671 0.89257 0.22411 0.0
N395 N 0.08784 0.86761 0.19492 0.0
N396 N 0.13324 0.95203 0.23739 0.0
C397 C 0.17651 0.95342 0.21808 0.0
C398 C 0.15192 0.90759 0.19521 0.0
C399 C 0.28497 0.176 0.36198 0.0
C400 C 0.32352 0.22277 0.3417 0.0
C401 C 0.26073 0.19139 0.38643 0.0
C402 C 0.27317 0.25398 0.39103 0.0
H403 H 0.26756 0.12625 0.35719 0.0
H404 H 0.22635 0.15273 0.39987 0.0
S405 S 0.38535 0.39582 0.34802 0.0
N406 N 0.38378 0.33536 0.33069 0.0
N407 N 0.33824 0.36501 0.37661 0.0
C408 C 0.31955 0.30246 0.37327 0.0
C409 C 0.34461 0.28658 0.34846 0.0
C410 C 0.07127 0.24996 0.52966 0.0
C411 C 0.07669 0.2936 0.50824 0.0
C412 C 0.02608 0.23155 0.55198 0.0
C413 C 0.98381 0.25537 0.55347 0.0
H414 H 0.09843 0.22575 0.52773 0.0
H415 H 0.02069 0.19423 0.56661 0.0
S416 S 0.98788 0.3809 0.50596 0.0
N417 N 0.04381 0.36819 0.49255 0.0
N418 N 0.95802 0.33328 0.5344 0.0
C419 C 0.99414 0.30493 0.53429 0.0
C420 C 0.04083 0.3241 0.51162 0.0
C421 C 0.79668 0.10023 0.72381 0.0
C422 C 0.73759 0.04489 0.7291 0.0
C423 C 0.80773 0.13444 0.69785 0.0
C424 C 0.75963 0.11562 0.67687 0.0
H425 H 0.83701 0.11287 0.73795 0.0
H426 H 0.85595 0.17133 0.6928 0.0
S427 S 0.59189 0.98716 0.68407 0.0
N428 N 0.62653 0.98241 0.71416 0.0
N429 N 0.64787 0.04749 0.66545 0.0
C430 C 0.69799 0.06722 0.68394 0.0
C431 C 0.68666 0.03182 0.71023 0.0
loop_
_geom_bond_atom_site_label_1
_geom_bond_atom_site_label_2
_geom_bond_distance
_geom_bond_site_symmetry_2
_ccdc_geom_bond_type
Zn0 O3 2.031 . S
Zn0 O5 2.049 . S
Zn0 O10 2.067 . S
Zn1 O2 1.962 . S
Zn1 O4 1.986 . S
Zn1 O6 1.996 . S
Zn1 O9 1.943 . S
O2 Zn1 1.962 . S
O2 C7 1.254 . S
O3 Zn0 2.031 . S
O3 C7 1.269 . S
O4 Zn1 1.986 . S
O4 C11 1.262 . S
O5 Zn0 2.049 . S
O5 C13 1.260 . S
O6 Zn1 1.996 . S
O6 C13 1.257 . S
C7 O2 1.254 . S
C7 O3 1.269 . S
C8 O9 1.249 . S
C8 O10 1.270 . S
O9 Zn1 1.943 . S
O9 C8 1.249 . S
O10 Zn0 2.067 . S
O10 C8 1.270 . S
C11 O4 1.262 . S
C11 O12 1.232 . S
O12 C11 1.232 . S
C13 O5 1.260 . S
C13 O6 1.257 . S
Zn14 O17 2.031 . S
Zn14 O19 2.049 . S
Zn14 O24 2.067 . S
Zn15 O16 1.962 . S
Zn15 O18 1.986 . S
Zn15 O20 1.996 . S
Zn15 O23 1.943 . S
O16 Zn15 1.962 . S
O16 C21 1.254 . S
O17 Zn14 2.031 . S
O17 C21 1.269 . S
O18 Zn15 1.986 . S
O18 C25 1.262 . S
O19 Zn14 2.049 . S
O19 C27 1.260 . S
O20 Zn15 1.996 . S
O20 C27 1.257 . S
C21 O16 1.254 . S
C21 O17 1.269 . S
C22 O23 1.249 . S
C22 O24 1.270 . S
O23 Zn15 1.943 . S
O23 C22 1.249 . S
O24 Zn14 2.067 . S
O24 C22 1.270 . S
C25 O18 1.262 . S
C25 O26 1.232 . S
O26 C25 1.232 . S
C27 O19 1.260 . S
C27 O20 1.257 . S
Zn28 O31 2.031 . S
Zn28 O33 2.049 . S
Zn28 O38 2.067 . S
Zn29 O30 1.962 . S
Zn29 O32 1.986 . S
Zn29 O34 1.996 . S
Zn29 O37 1.943 . S
O30 Zn29 1.962 . S
O30 C35 1.254 . S
O31 Zn28 2.031 . S
O31 C35 1.269 . S
O32 Zn29 1.986 . S
O32 C39 1.262 . S
O33 Zn28 2.049 . S
O33 C41 1.260 . S
O34 Zn29 1.996 . S
O34 C41 1.257 . S
C35 O30 1.254 . S
C35 O31 1.269 . S
C36 O37 1.249 . S
C36 O38 1.270 . S
O37 Zn29 1.943 . S
O37 C36 1.249 . S
O38 Zn28 2.067 . S
O38 C36 1.270 . S
C39 O32 1.262 . S
C39 O40 1.232 . S
O40 C39 1.232 . S
C41 O33 1.260 . S
C41 O34 1.257 . S
Zn42 O45 2.031 . S
Zn42 O47 2.049 . S
Zn42 O52 2.067 . S
Zn43 O44 1.962 . S
Zn43 O46 1.986 . S
Zn43 O48 1.996 . S
Zn43 O51 1.943 . S
O44 Zn43 1.962 . S
O44 C49 1.254 . S
O45 Zn42 2.031 . S
O45 C49 1.269 . S
O46 Zn43 1.986 . S
O46 C53 1.262 . S
O47 Zn42 2.049 . S
O47 C55 1.260 . S
O48 Zn43 1.996 . S
O48 C55 1.257 . S
C49 O44 1.254 . S
C49 O45 1.269 . S
C50 O51 1.249 . S
C50 O52 1.270 . S
O51 Zn43 1.943 . S
O51 C50 1.249 . S
O52 Zn42 2.067 . S
O52 C50 1.270 . S
C53 O46 1.262 . S
C53 O54 1.232 . S
O54 C53 1.232 . S
C55 O47 1.260 . S
C55 O48 1.257 . S
Zn56 O59 2.031 . S
Zn56 O61 2.049 . S
Zn56 O66 2.067 . S
Zn57 O58 1.962 . S
Zn57 O60 1.986 . S
Zn57 O62 1.996 . S
Zn57 O65 1.943 . S
O58 Zn57 1.962 . S
O58 C63 1.254 . S
O59 Zn56 2.031 . S
O59 C63 1.269 . S
O60 Zn57 1.986 . S
O60 C67 1.262 . S
O61 Zn56 2.049 . S
O61 C69 1.260 . S
O62 Zn57 1.996 . S
O62 C69 1.257 . S
C63 O58 1.254 . S
C63 O59 1.269 . S
C64 O65 1.249 . S
C64 O66 1.270 . S
O65 Zn57 1.943 . S
O65 C64 1.249 . S
O66 Zn56 2.067 . S
O66 C64 1.270 . S
C67 O60 1.262 . S
C67 O68 1.232 . S
O68 C67 1.232 . S
C69 O61 1.260 . S
C69 O62 1.257 . S
Zn70 O73 2.031 . S
Zn70 O75 2.049 . S
Zn70 O80 2.067 . S
Zn71 O72 1.962 . S
Zn71 O74 1.986 . S
Zn71 O76 1.996 . S
Zn71 O79 1.943 . S
O72 Zn71 1.962 . S
O72 C77 1.254 . S
O73 Zn70 2.031 . S
O73 C77 1.269 . S
O74 Zn71 1.986 . S
O74 C81 1.262 . S
O75 Zn70 2.049 . S
O75 C83 1.260 . S
O76 Zn71 1.996 . S
O76 C83 1.257 . S
C77 O72 1.254 . S
C77 O73 1.269 . S
C78 O79 1.249 . S
C78 O80 1.270 . S
O79 Zn71 1.943 . S
O79 C78 1.249 . S
O80 Zn70 2.067 . S
O80 C78 1.270 . S
C81 O74 1.262 . S
C81 O82 1.232 . S
O82 C81 1.232 . S
C83 O75 1.260 . S
C83 O76 1.257 . S
Zn84 O87 2.031 . S
Zn84 O89 2.049 . S
Zn84 O94 2.067 . S
Zn85 O86 1.962 . S
Zn85 O88 1.986 . S
Zn85 O90 1.996 . S
Zn85 O93 1.943 . S
O86 Zn85 1.962 . S
O86 C91 1.254 . S
O87 Zn84 2.031 . S
O87 C91 1.269 . S
O88 Zn85 1.986 . S
O88 C95 1.262 . S
O89 Zn84 2.049 . S
O89 C97 1.260 . S
O90 Zn85 1.996 . S
O90 C97 1.257 . S
C91 O86 1.254 . S
C91 O87 1.269 . S
C92 O93 1.249 . S
C92 O94 1.270 . S
O93 Zn85 1.943 . S
O93 C92 1.249 . S
O94 Zn84 2.067 . S
O94 C92 1.270 . S
C95 O88 1.262 . S
C95 O96 1.232 . S
O96 C95 1.232 . S
C97 O89 1.260 . S
C97 O90 1.257 . S
Zn98 O101 2.031 . S
Zn98 O103 2.049 . S
Zn98 O108 2.067 . S
Zn99 O100 1.962 . S
Zn99 O102 1.986 . S
Zn99 O104 1.996 . S
Zn99 O107 1.943 . S
O100 Zn99 1.962 . S
O100 C105 1.254 . S
O101 Zn98 2.031 . S
O101 C105 1.269 . S
O102 Zn99 1.986 . S
O102 C109 1.262 . S
O103 Zn98 2.049 . S
O103 C111 1.260 . S
O104 Zn99 1.996 . S
O104 C111 1.257 . S
C105 O100 1.254 . S
C105 O101 1.269 . S
C106 O107 1.249 . S
C106 O108 1.270 . S
O107 Zn99 1.943 . S
O107 C106 1.249 . S
O108 Zn98 2.067 . S
O108 C106 1.270 . S
C109 O102 1.262 . S
C109 O110 1.232 . S
O110 C109 1.232 . S
C111 O103 1.260 . S
C111 O104 1.257 . S
Zn112 O115 2.031 . S
Zn112 O117 2.049 . S
Zn112 O122 2.067 . S
Zn113 O114 1.962 . S
Zn113 O116 1.986 . S
Zn113 O118 1.996 . S
Zn113 O121 1.943 . S
O114 Zn113 1.962 . S
O114 C119 1.254 . S
O115 Zn112 2.031 . S
O115 C119 1.269 . S
O116 Zn113 1.986 . S
O116 C123 1.262 . S
O117 Zn112 2.049 . S
O117 C125 1.260 . S
O118 Zn113 1.996 . S
O118 C125 1.257 . S
C119 O114 1.254 . S
C119 O115 1.269 . S
C120 O121 1.249 . S
C120 O122 1.270 . S
O121 Zn113 1.943 . S
O121 C120 1.249 . S
O122 Zn112 2.067 . S
O122 C120 1.270 . S
C123 O116 1.262 . S
C123 O124 1.232 . S
O124 C123 1.232 . S
C125 O117 1.260 . S
C125 O118 1.257 . S
Zn126 O129 2.031 . S
Zn126 O131 2.049 . S
Zn126 O136 2.067 . S
Zn127 O128 1.962 . S
Zn127 O130 1.986 . S
Zn127 O132 1.996 . S
Zn127 O135 1.943 . S
O128 Zn127 1.962 . S
O128 C133 1.254 . S
O129 Zn126 2.031 . S
O129 C133 1.269 . S
O130 Zn127 1.986 . S
O130 C137 1.262 . S
O131 Zn126 2.049 . S
O131 C139 1.260 . S
O132 Zn127 1.996 . S
O132 C139 1.257 . S
C133 O128 1.254 . S
C133 O129 1.269 . S
C134 O135 1.249 . S
C134 O136 1.270 . S
O135 Zn127 1.943 . S
O135 C134 1.249 . S
O136 Zn126 2.067 . S
O136 C134 1.270 . S
C137 O130 1.262 . S
C137 O138 1.232 . S
O138 C137 1.232 . S
C139 O131 1.260 . S
C139 O132 1.257 . S
Zn140 O143 2.031 . S
Zn140 O145 2.049 . S
Zn140 O150 2.067 . S
Zn141 O142 1.962 . S
Zn141 O144 1.986 . S
Zn141 O146 1.996 . S
Zn141 O149 1.943 . S
O142 Zn141 1.962 . S
O142 C147 1.254 . S
O143 Zn140 2.031 . S
O143 C147 1.269 . S
O144 Zn141 1.986 . S
O144 C151 1.262 . S
O145 Zn140 2.049 . S
O145 C153 1.260 . S
O146 Zn141 1.996 . S
O146 C153 1.257 . S
C147 O142 1.254 . S
C147 O143 1.269 . S
C148 O149 1.249 . S
C148 O150 1.270 . S
O149 Zn141 1.943 . S
O149 C148 1.249 . S
O150 Zn140 2.067 . S
O150 C148 1.270 . S
C151 O144 1.262 . S
C151 O152 1.232 . S
O152 C151 1.232 . S
C153 O145 1.260 . S
C153 O146 1.257 . S
Zn154 O157 2.031 . S
Zn154 O159 2.049 . S
Zn154 O164 2.067 . S
Zn155 O156 1.962 . S
Zn155 O158 1.986 . S
Zn155 O160 1.996 . S
Zn155 O163 1.943 . S
O156 Zn155 1.962 . S
O156 C161 1.254 . S
O157 Zn154 2.031 . S
O157 C161 1.269 . S
O158 Zn155 1.986 . S
O158 C165 1.262 . S
O159 Zn154 2.049 . S
O159 C167 1.260 . S
O160 Zn155 1.996 . S
O160 C167 1.257 . S
C161 O156 1.254 . S
C161 O157 1.269 . S
C162 O163 1.249 . S
C162 O164 1.270 . S
O163 Zn155 1.943 . S
O163 C162 1.249 . S
O164 Zn154 2.067 . S
O164 C162 1.270 . S
C165 O158 1.262 . S
C165 O166 1.232 . S
O166 C165 1.232 . S
C167 O159 1.260 . S
C167 O160 1.257 . S
C168 C169 1.369 . S
C168 C170 1.419 . S
C168 H172 0.930 . S
C169 C168 1.369 . S
C169 C178 1.429 . S
C170 C168 1.419 . S
C170 C171 1.363 . S
C170 H173 0.929 . S
C171 C170 1.363 . S
C171 C177 1.428 . S
H172 C168 0.930 . S
H173 C170 0.929 . S
S174 N175 1.613 . S
S174 N176 1.610 . S
N175 S174 1.613 . S
N175 C178 1.350 . S
N176 S174 1.610 . S
N176 C177 1.351 . S
C177 C171 1.428 . S
C177 N176 1.351 . S
C177 C178 1.434 . S
C178 C169 1.429 . S
C178 N175 1.350 . S
C178 C177 1.434 . S
C179 C180 1.369 . S
C179 C181 1.419 . S
C179 H183 0.930 . S
C180 C179 1.369 . S
C180 C189 1.429 . S
C181 C179 1.419 . S
C181 C182 1.363 . S
C181 H184 0.929 . S
C182 C181 1.363 . S
C182 C188 1.428 . S
H183 C179 0.930 . S
H184 C181 0.929 . S
S185 N186 1.613 . S
S185 N187 1.610 . S
N186 S185 1.613 . S
N186 C189 1.350 . S
N187 S185 1.610 . S
N187 C188 1.351 . S
C188 C182 1.428 . S
C188 N187 1.351 . S
C188 C189 1.434 . S
C189 C180 1.429 . S
C189 N186 1.350 . S
C189 C188 1.434 . S
C190 C191 1.369 . S
C190 C192 1.419 . S
C190 H194 0.930 . S
C191 C190 1.369 . S
C191 C200 1.429 . S
C192 C190 1.419 . S
C192 C193 1.363 . S
C192 H195 0.929 . S
C193 C192 1.363 . S
C193 C199 1.428 . S
H194 C190 0.930 . S
H195 C192 0.929 . S
S196 N197 1.613 . S
S196 N198 1.610 . S
N197 S196 1.613 . S
N197 C200 1.350 . S
N198 S196 1.610 . S
N198 C199 1.351 . S
C199 C193 1.428 . S
C199 N198 1.351 . S
C199 C200 1.434 . S
C200 C191 1.429 . S
C200 N197 1.350 . S
C200 C199 1.434 . S
C201 C202 1.369 . S
C201 C203 1.419 . S
C201 H205 0.930 . S
C202 C201 1.369 . S
C202 C211 1.429 . S
C203 C201 1.419 . S
C203 C204 1.363 . S
C203 H206 0.929 . S
C204 C203 1.363 . S
C204 C210 1.428 . S
H205 C201 0.930 . S
H206 C203 0.929 . S
S207 N208 1.613 . S
S207 N209 1.610 . S
N208 S207 1.613 . S
N208 C211 1.350 . S
N209 S207 1.610 . S
N209 C210 1.351 . S
C210 C204 1.428 . S
C210 N209 1.351 . S
C210 C211 1.434 . S
C211 C202 1.429 . S
C211 N208 1.350 . S
C211 C210 1.434 . S
C212 C213 1.369 . S
C212 C214 1.419 . S
C212 H216 0.930 . S
C213 C212 1.369 . S
C213 C222 1.429 . S
C214 C212 1.419 . S
C214 C215 1.363 . S
C214 H217 0.929 . S
C215 C214 1.363 . S
C215 C221 1.428 . S
H216 C212 0.930 . S
H217 C214 0.929 . S
S218 N219 1.613 . S
S218 N220 1.610 . S
N219 S218 1.613 . S
N219 C222 1.350 . S
N220 S218 1.610 . S
N220 C221 1.351 . S
C221 C215 1.428 . S
C221 N220 1.351 . S
C221 C222 1.434 . S
C222 C213 1.429 . S
C222 N219 1.350 . S
C222 C221 1.434 . S
C223 C224 1.369 . S
C223 C225 1.419 . S
C223 H227 0.930 . S
C224 C223 1.369 . S
C224 C233 1.429 . S
C225 C223 1.419 . S
C225 C226 1.363 . S
C225 H228 0.929 . S
C226 C225 1.363 . S
C226 C232 1.428 . S
H227 C223 0.930 . S
H228 C225 0.929 . S
S229 N230 1.613 . S
S229 N231 1.610 . S
N230 S229 1.613 . S
N230 C233 1.350 . S
N231 S229 1.610 . S
N231 C232 1.351 . S
C232 C226 1.428 . S
C232 N231 1.351 . S
C232 C233 1.434 . S
C233 C224 1.429 . S
C233 N230 1.350 . S
C233 C232 1.434 . S
C234 C235 1.369 . S
C234 C236 1.419 . S
C234 H238 0.930 . S
C235 C234 1.369 . S
C235 C244 1.429 . S
C236 C234 1.419 . S
C236 C237 1.363 . S
C236 H239 0.929 . S
C237 C236 1.363 . S
C237 C243 1.428 . S
H238 C234 0.930 . S
H239 C236 0.929 . S
S240 N241 1.613 . S
S240 N242 1.610 . S
N241 S240 1.613 . S
N241 C244 1.350 . S
N242 S240 1.610 . S
N242 C243 1.351 . S
C243 C237 1.428 . S
C243 N242 1.351 . S
C243 C244 1.434 . S
C244 C235 1.429 . S
C244 N241 1.350 . S
C244 C243 1.434 . S
C245 C246 1.369 . S
C245 C247 1.419 1_655 S
C245 H249 0.930 . S
C246 C245 1.369 . S
C246 C255 1.429 . S
C247 C245 1.419 1_455 S
C247 C248 1.363 . S
C247 H250 0.929 . S
C248 C247 1.363 . S
C248 C254 1.428 . S
H249 C245 0.930 . S
H250 C247 0.929 . S
S251 N252 1.613 . S
S251 N253 1.610 1_655 S
N252 S251 1.613 . S
N252 C255 1.350 . S
N253 S251 1.610 1_455 S
N253 C254 1.351 . S
C254 C248 1.428 . S
C254 N253 1.351 . S
C254 C255 1.434 1_455 S
C255 C246 1.429 . S
C255 N252 1.350 . S
C255 C254 1.434 1_655 S
C256 C257 1.369 . S
C256 C258 1.419 1_545 S
C256 H260 0.930 . S
C257 C256 1.369 . S
C257 C266 1.429 . S
C258 C256 1.419 1_565 S
C258 C259 1.363 . S
C258 H261 0.929 . S
C259 C258 1.363 . S
C259 C265 1.428 . S
H260 C256 0.930 . S
H261 C258 0.929 . S
S262 N263 1.613 . S
S262 N264 1.610 . S
N263 S262 1.613 . S
N263 C266 1.350 . S
N264 S262 1.610 . S
N264 C265 1.351 1_545 S
C265 C259 1.428 . S
C265 N264 1.351 1_565 S
C265 C266 1.434 1_565 S
C266 C257 1.429 . S
C266 N263 1.350 . S
C266 C265 1.434 1_545 S
C267 C268 1.369 . S
C267 C269 1.419 . S
C267 H271 0.930 . S
C268 C267 1.369 . S
C268 C277 1.429 . S
C269 C267 1.419 . S
C269 C270 1.363 . S
C269 H272 0.929 . S
C270 C269 1.363 . S
C270 C276 1.428 . S
H271 C267 0.930 . S
H272 C269 0.929 . S
S273 N274 1.613 . S
S273 N275 1.610 . S
N274 S273 1.613 . S
N274 C277 1.350 . S
N275 S273 1.610 . S
N275 C276 1.351 . S
C276 C270 1.428 . S
C276 N275 1.351 . S
C276 C277 1.434 . S
C277 C268 1.429 . S
C277 N274 1.350 . S
C277 C276 1.434 . S
C278 C279 1.369 . S
C278 C280 1.419 1_655 S
C278 H282 0.930 . S
C279 C278 1.369 . S
C279 C288 1.429 . S
C280 C278 1.419 1_455 S
C280 C281 1.363 . S
C280 H283 0.929 . S
C281 C280 1.363 . S
C281 C287 1.428 . S
H282 C278 0.930 . S
H283 C280 0.929 . S
S284 N285 1.613 . S
S284 N286 1.610 1_655 S
N285 S284 1.613 . S
N285 C288 1.350 . S
N286 S284 1.610 1_455 S
N286 C287 1.351 . S
C287 C281 1.428 . S
C287 N286 1.351 . S
C287 C288 1.434 1_455 S
C288 C279 1.429 . S
C288 N285 1.350 . S
C288 C287 1.434 1_655 S
C289 C290 1.369 1_556 S
C289 C291 1.419 1_565 S
C289 H293 0.930 . S
C290 C289 1.369 1_554 S
C290 C299 1.429 . S
C291 C289 1.419 1_545 S
C291 C292 1.363 . S
C291 H294 0.929 . S
C292 C291 1.363 . S
C292 C298 1.428 1_556 S
H293 C289 0.930 . S
H294 C291 0.929 . S
S295 N296 1.613 1_545 S
S295 N297 1.610 . S
N296 S295 1.613 1_565 S
N296 C299 1.350 . S
N297 S295 1.610 . S
N297 C298 1.351 . S
C298 C292 1.428 1_554 S
C298 N297 1.351 . S
C298 C299 1.434 1_545 S
C299 C290 1.429 . S
C299 N296 1.350 . S
C299 C298 1.434 1_565 S
C300 C301 1.369 . S
C300 C302 1.419 . S
C300 H304 0.930 . S
C301 C300 1.369 . S
C301 C310 1.429 . S
C302 C300 1.419 . S
C302 C303 1.363 1_554 S
C302 H305 0.929 . S
C303 C302 1.363 1_556 S
C303 C309 1.428 . S
H304 C300 0.930 . S
H305 C302 0.929 . S
S306 N307 1.613 1_556 S
S306 N308 1.610 . S
N307 S306 1.613 1_554 S
N307 C310 1.350 . S
N308 S306 1.610 . S
N308 C309 1.351 . S
C309 C303 1.428 . S
C309 N308 1.351 . S
C309 C310 1.434 1_556 S
C310 C301 1.429 . S
C310 N307 1.350 . S
C310 C309 1.434 1_554 S
C311 C312 1.369 . S
C311 C313 1.419 . S
C311 H315 0.930 . S
C312 C311 1.369 . S
C312 C321 1.429 . S
C313 C311 1.419 . S
C313 C314 1.363 1_655 S
C313 H316 0.929 . S
C314 C313 1.363 1_455 S
C314 C320 1.428 . S
H315 C311 0.930 . S
H316 C313 0.929 . S
S317 N318 1.613 . S
S317 N319 1.610 . S
N318 S317 1.613 . S
N318 C321 1.350 1_455 S
N319 S317 1.610 . S
N319 C320 1.351 . S
C320 C314 1.428 . S
C320 N319 1.351 . S
C320 C321 1.434 1_455 S
C321 C312 1.429 . S
C321 N318 1.350 1_655 S
C321 C320 1.434 1_655 S
C322 C323 1.369 . S
C322 C324 1.419 1_545 S
C322 H326 0.930 . S
C323 C322 1.369 . S
C323 C332 1.429 1_545 S
C324 C322 1.419 1_565 S
C324 C325 1.363 . S
C324 H327 0.929 1_565 S
C325 C324 1.363 . S
C325 C331 1.428 . S
H326 C322 0.930 . S
H327 C324 0.929 1_545 S
S328 N329 1.613 . S
S328 N330 1.610 . S
N329 S328 1.613 . S
N329 C332 1.350 . S
N330 S328 1.610 . S
N330 C331 1.351 . S
C331 C325 1.428 . S
C331 N330 1.351 . S
C331 C332 1.434 . S
C332 C323 1.429 1_565 S
C332 N329 1.350 . S
C332 C331 1.434 . S
C333 C334 1.369 . S
C333 C335 1.419 . S
C333 H337 0.930 . S
C334 C333 1.369 . S
C334 C343 1.429 . S
C335 C333 1.419 . S
C335 C336 1.363 . S
C335 H338 0.929 . S
C336 C335 1.363 . S
C336 C342 1.428 . S
H337 C333 0.930 . S
H338 C335 0.929 . S
S339 N340 1.613 . S
S339 N341 1.610 . S
N340 S339 1.613 . S
N340 C343 1.350 . S
N341 S339 1.610 . S
N341 C342 1.351 . S
C342 C336 1.428 . S
C342 N341 1.351 . S
C342 C343 1.434 . S
C343 C334 1.429 . S
C343 N340 1.350 . S
C343 C342 1.434 . S
C344 C345 1.369 . S
C344 C346 1.419 . S
C344 H348 0.930 . S
C345 C344 1.369 . S
C345 C354 1.429 . S
C346 C344 1.419 . S
C346 C347 1.363 1_455 S
C346 H349 0.929 . S
C347 C346 1.363 1_655 S
C347 C353 1.428 . S
H348 C344 0.930 . S
H349 C346 0.929 . S
S350 N351 1.613 . S
S350 N352 1.610 . S
N351 S350 1.613 . S
N351 C354 1.350 1_655 S
N352 S350 1.610 . S
N352 C353 1.351 . S
C353 C347 1.428 . S
C353 N352 1.351 . S
C353 C354 1.434 1_655 S
C354 C345 1.429 . S
C354 N351 1.350 1_455 S
C354 C353 1.434 1_455 S
C355 C356 1.369 . S
C355 C357 1.419 . S
C355 H359 0.930 . S
C356 C355 1.369 . S
C356 C365 1.429 . S
C357 C355 1.419 . S
C357 C358 1.363 1_545 S
C357 H360 0.929 . S
C358 C357 1.363 1_565 S
C358 C364 1.428 . S
H359 C355 0.930 . S
H360 C357 0.929 . S
S361 N362 1.613 1_565 S
S361 N363 1.610 . S
N362 S361 1.613 1_545 S
N362 C365 1.350 . S
N363 S361 1.610 . S
N363 C364 1.351 . S
C364 C358 1.428 . S
C364 N363 1.351 . S
C364 C365 1.434 1_565 S
C365 C356 1.429 . S
C365 N362 1.350 . S
C365 C364 1.434 1_545 S
C366 C367 1.369 . S
C366 C368 1.419 . S
C366 H370 0.930 . S
C367 C366 1.369 . S
C367 C376 1.429 . S
C368 C366 1.419 . S
C368 C369 1.363 . S
C368 H371 0.929 . S
C369 C368 1.363 . S
C369 C375 1.428 . S
H370 C366 0.930 . S
H371 C368 0.929 . S
S372 N373 1.613 . S
S372 N374 1.610 . S
N373 S372 1.613 . S
N373 C376 1.350 . S
N374 S372 1.610 . S
N374 C375 1.351 . S
C375 C369 1.428 . S
C375 N374 1.351 . S
C375 C376 1.434 . S
C376 C367 1.429 . S
C376 N373 1.350 . S
C376 C375 1.434 . S
C377 C378 1.369 . S
C377 C379 1.419 1_655 S
C377 H381 0.930 . S
C378 C377 1.369 . S
C378 C387 1.429 . S
C379 C377 1.419 1_455 S
C379 C380 1.363 1_556 S
C379 H382 0.929 . S
C380 C379 1.363 1_554 S
C380 C386 1.428 1_455 S
H381 C377 0.930 . S
H382 C379 0.929 . S
S383 N384 1.613 1_554 S
S383 N385 1.610 . S
N384 S383 1.613 1_556 S
N384 C387 1.350 . S
N385 S383 1.610 . S
N385 C386 1.351 . S
C386 C380 1.428 1_655 S
C386 N385 1.351 . S
C386 C387 1.434 1_554 S
C387 C378 1.429 . S
C387 N384 1.350 . S
C387 C386 1.434 1_556 S
C388 C389 1.369 . S
C388 C390 1.419 . S
C388 H392 0.930 . S
C389 C388 1.369 . S
C389 C398 1.429 . S
C390 C388 1.419 . S
C390 C391 1.363 1_565 S
C390 H393 0.929 . S
C391 C390 1.363 1_545 S
C391 C397 1.428 . S
H392 C388 0.930 . S
H393 C390 0.929 . S
S394 N395 1.613 1_545 S
S394 N396 1.610 . S
N395 S394 1.613 1_565 S
N395 C398 1.350 . S
N396 S394 1.610 . S
N396 C397 1.351 . S
C397 C391 1.428 . S
C397 N396 1.351 . S
C397 C398 1.434 1_545 S
C398 C389 1.429 . S
C398 N395 1.350 . S
C398 C397 1.434 1_565 S
C399 C400 1.369 . S
C399 C401 1.419 . S
C399 H403 0.930 . S
C400 C399 1.369 . S
C400 C409 1.429 . S
C401 C399 1.419 . S
C401 C402 1.363 . S
C401 H404 0.929 . S
C402 C401 1.363 . S
C402 C408 1.428 . S
H403 C399 0.930 . S
H404 C401 0.929 . S
S405 N406 1.613 . S
S405 N407 1.610 . S
N406 S405 1.613 . S
N406 C409 1.350 . S
N407 S405 1.610 . S
N407 C408 1.351 . S
C408 C402 1.428 . S
C408 N407 1.351 . S
C408 C409 1.434 . S
C409 C400 1.429 . S
C409 N406 1.350 . S
C409 C408 1.434 . S
C410 C411 1.369 . S
C410 C412 1.419 . S
C410 H414 0.930 . S
C411 C410 1.369 . S
C411 C420 1.429 . S
C412 C410 1.419 . S
C412 C413 1.363 1_455 S
C412 H415 0.929 . S
C413 C412 1.363 1_655 S
C413 C419 1.428 . S
H414 C410 0.930 . S
H415 C412 0.929 . S
S416 N417 1.613 . S
S416 N418 1.610 . S
N417 S416 1.613 . S
N417 C420 1.350 1_655 S
N418 S416 1.610 . S
N418 C419 1.351 . S
C419 C413 1.428 . S
C419 N418 1.351 . S
C419 C420 1.434 1_655 S
C420 C411 1.429 . S
C420 N417 1.350 1_455 S
C420 C419 1.434 1_455 S
C421 C422 1.369 . S
C421 C423 1.419 1_565 S
C421 H425 0.930 . S
C422 C421 1.369 . S
C422 C431 1.429 1_565 S
C423 C421 1.419 1_545 S
C423 C424 1.363 . S
C423 H426 0.929 . S
C424 C423 1.363 . S
C424 C430 1.428 . S
H425 C421 0.930 . S
H426 C423 0.929 . S
S427 N428 1.613 . S
S427 N429 1.610 . S
N428 S427 1.613 . S
N428 C431 1.350 . S
N429 S427 1.610 . S
N429 C430 1.351 . S
C430 C424 1.428 . S
C430 N429 1.351 . S
C430 C431 1.434 . S
C431 C422 1.429 1_545 S
C431 N428 1.350 . S
C431 C430 1.434 . S
C169 C123 1.342 . S
C171 C11 1.338 . S
C180 C25 1.341 . S
C182 C137 1.340 . S
C191 C39 1.342 . S
C193 C151 1.338 . S
C202 C53 1.337 . S
C204 C165 1.340 . S
C213 C95 1.341 . S
C215 C67 1.340 . S
C224 C81 1.342 . S
C226 C109 1.340 . S
C235 C134 0.980 . S
C237 C8 0.982 . S
C246 C22 0.996 . S
C248 C148 0.994 . S
C257 C162 0.988 . S
C259 C36 0.988 . S
C268 C50 0.981 . S
C270 C92 0.983 . S
C279 C106 0.985 . S
C281 C64 0.986 . S
C290 C120 0.981 . S
C292 C78 0.982 . S
C301 C7 1.390 . S
C303 C83 1.280 . S
C312 C21 1.388 . S
C314 C13 1.282 . S
C323 C27 1.289 . S
C325 C35 1.390 . S
C334 C49 1.387 . S
C336 C41 1.288 . S
C345 C63 1.387 . S
C347 C55 1.282 . S
C356 C77 1.388 . S
C358 C69 1.289 . S
C367 C91 1.389 . S
C369 C111 1.279 . S
C378 C105 1.391 . S
C380 C125 1.281 . S
C389 C119 1.388 . S
C391 C139 1.279 . S
C400 C133 1.388 . S
C402 C153 1.290 . S
C411 C147 1.387 . S
C413 C167 1.287 . S
C422 C97 1.292 . S
C424 C161 1.388 . S
