# Generated by pormake.
# Topology uoi, (4)-cn, num edge types: 1
# Building blocks:
#     Node 0, Type 0, BuildingBlock: AZAVOO_clean_sbu_0, # of connection points: 4
#     Node 1, Type 0, BuildingBlock: AZAVOO_clean_sbu_0, # of connection points: 4
#     Node 2, Type 0, BuildingBlock: AZAVOO_clean_sbu_0, # of connection points: 4
#     Node 3, Type 0, BuildingBlock: AZAVOO_clean_sbu_0, # of connection points: 4
#     Node 4, Type 0, BuildingBlock: AZAVOO_clean_sbu_0, # of connection points: 4
#     Node 5, Type 0, BuildingBlock: AZAVOO_clean_sbu_0, # of connection points: 4
#     Node 6, Type 0, BuildingBlock: AZAVOO_clean_sbu_0, # of connection points: 4
#     Node 7, Type 0, BuildingBlock: AZAVOO_clean_sbu_0, # of connection points: 4
#     Node 8, Type 0, BuildingBlock: AZAVOO_clean_sbu_0, # of connection points: 4
#     Node 9, Type 0, BuildingBlock: AZAVOO_clean_sbu_0, # of connection points: 4
#     Node 10, Type 0, BuildingBlock: AZAVOO_clean_sbu_0, # of connection points: 4
#     Node 11, Type 0, BuildingBlock: AZAVOO_clean_sbu_0, # of connection points: 4
#     Node 12, Type 0, BuildingBlock: AZAVOO_clean_sbu_0, # of connection points: 4
#     Node 13, Type 0, BuildingBlock: AZAVOO_clean_sbu_0, # of connection points: 4
#     Node 14, Type 0, BuildingBlock: AZAVOO_clean_sbu_0, # of connection points: 4
#     Node 15, Type 0, BuildingBlock: AZAVOO_clean_sbu_0, # of connection points: 4
#     Node 16, Type 0, BuildingBlock: AZAVOO_clean_sbu_0, # of connection points: 4
#     Node 17, Type 0, BuildingBlock: AZAVOO_clean_sbu_0, # of connection points: 4
#     Node 18, Type 0, BuildingBlock: AZAVOO_clean_sbu_0, # of connection points: 4
#     Node 19, Type 0, BuildingBlock: AZAVOO_clean_sbu_0, # of connection points: 4
#     Node 20, Type 0, BuildingBlock: AZAVOO_clean_sbu_0, # of connection points: 4
#     Node 21, Type 0, BuildingBlock: AZAVOO_clean_sbu_0, # of connection points: 4
#     Node 22, Type 0, BuildingBlock: AZAVOO_clean_sbu_0, # of connection points: 4
#     Node 23, Type 0, BuildingBlock: AZAVOO_clean_sbu_0, # of connection points: 4
#     Node 24, Type 0, BuildingBlock: AZAVOO_clean_sbu_0, # of connection points: 4
#     Node 25, Type 0, BuildingBlock: AZAVOO_clean_sbu_0, # of connection points: 4
#     Node 26, Type 0, BuildingBlock: AZAVOO_clean_sbu_0, # of connection points: 4
#     Node 27, Type 0, BuildingBlock: AZAVOO_clean_sbu_0, # of connection points: 4
#     Node 28, Type 0, BuildingBlock: AZAVOO_clean_sbu_0, # of connection points: 4
#     Node 29, Type 0, BuildingBlock: AZAVOO_clean_sbu_0, # of connection points: 4
#     Node 30, Type 0, BuildingBlock: AZAVOO_clean_sbu_0, # of connection points: 4
#     Node 31, Type 0, BuildingBlock: AZAVOO_clean_sbu_0, # of connection points: 4
#     Edge 32, Type (0, 0), BuildingBlock: XUDNAN_clean_linker_2, # of connection points: 2
#     Edge 33, Type (0, 0), BuildingBlock: XUDNAN_clean_linker_2, # of connection points: 2
#     Edge 34, Type (0, 0), BuildingBlock: XUDNAN_clean_linker_2, # of connection points: 2
#     Edge 35, Type (0, 0), BuildingBlock: XUDNAN_clean_linker_2, # of connection points: 2
#     Edge 36, Type (0, 0), BuildingBlock: XUDNAN_clean_linker_2, # of connection points: 2
#     Edge 37, Type (0, 0), BuildingBlock: XUDNAN_clean_linker_2, # of connection points: 2
#     Edge 38, Type (0, 0), BuildingBlock: XUDNAN_clean_linker_2, # of connection points: 2
#     Edge 39, Type (0, 0), BuildingBlock: XUDNAN_clean_linker_2, # of connection points: 2
#     Edge 40, Type (0, 0), BuildingBlock: XUDNAN_clean_linker_2, # of connection points: 2
#     Edge 41, Type (0, 0), BuildingBlock: XUDNAN_clean_linker_2, # of connection points: 2
#     Edge 42, Type (0, 0), BuildingBlock: XUDNAN_clean_linker_2, # of connection points: 2
#     Edge 43, Type (0, 0), BuildingBlock: XUDNAN_clean_linker_2, # of connection points: 2
#     Edge 44, Type (0, 0), BuildingBlock: XUDNAN_clean_linker_2, # of connection points: 2
#     Edge 45, Type (0, 0), BuildingBlock: XUDNAN_clean_linker_2, # of connection points: 2
#     Edge 46, Type (0, 0), BuildingBlock: XUDNAN_clean_linker_2, # of connection points: 2
#     Edge 47, Type (0, 0), BuildingBlock: XUDNAN_clean_linker_2, # of connection points: 2
#     Edge 48, Type (0, 0), BuildingBlock: XUDNAN_clean_linker_2, # of connection points: 2
#     Edge 49, Type (0, 0), BuildingBlock: XUDNAN_clean_linker_2, # of connection points: 2
#     Edge 50, Type (0, 0), BuildingBlock: XUDNAN_clean_linker_2, # of connection points: 2
#     Edge 51, Type (0, 0), BuildingBlock: XUDNAN_clean_linker_2, # of connection points: 2
#     Edge 52, Type (0, 0), BuildingBlock: XUDNAN_clean_linker_2, # of connection points: 2
#     Edge 53, Type (0, 0), BuildingBlock: XUDNAN_clean_linker_2, # of connection points: 2
#     Edge 54, Type (0, 0), BuildingBlock: XUDNAN_clean_linker_2, # of connection points: 2
#     Edge 55, Type (0, 0), BuildingBlock: XUDNAN_clean_linker_2, # of connection points: 2
#     Edge 56, Type (0, 0), BuildingBlock: XUDNAN_clean_linker_2, # of connection points: 2
#     Edge 57, Type (0, 0), BuildingBlock: XUDNAN_clean_linker_2, # of connection points: 2
#     Edge 58, Type (0, 0), BuildingBlock: XUDNAN_clean_linker_2, # of connection points: 2
#     Edge 59, Type (0, 0), BuildingBlock: XUDNAN_clean_linker_2, # of connection points: 2
#     Edge 60, Type (0, 0), BuildingBlock: XUDNAN_clean_linker_2, # of connection points: 2
#     Edge 61, Type (0, 0), BuildingBlock: XUDNAN_clean_linker_2, # of connection points: 2
#     Edge 62, Type (0, 0), BuildingBlock: XUDNAN_clean_linker_2, # of connection points: 2
#     Edge 63, Type (0, 0), BuildingBlock: XUDNAN_clean_linker_2, # of connection points: 2
#     Edge 64, Type (0, 0), BuildingBlock: XUDNAN_clean_linker_2, # of connection points: 2
#     Edge 65, Type (0, 0), BuildingBlock: XUDNAN_clean_linker_2, # of connection points: 2
#     Edge 66, Type (0, 0), BuildingBlock: XUDNAN_clean_linker_2, # of connection points: 2
#     Edge 67, Type (0, 0), BuildingBlock: XUDNAN_clean_linker_2, # of connection points: 2
#     Edge 68, Type (0, 0), BuildingBlock: XUDNAN_clean_linker_2, # of connection points: 2
#     Edge 69, Type (0, 0), BuildingBlock: XUDNAN_clean_linker_2, # of connection points: 2
#     Edge 70, Type (0, 0), BuildingBlock: XUDNAN_clean_linker_2, # of connection points: 2
#     Edge 71, Type (0, 0), BuildingBlock: XUDNAN_clean_linker_2, # of connection points: 2
#     Edge 72, Type (0, 0), BuildingBlock: XUDNAN_clean_linker_2, # of connection points: 2
#     Edge 73, Type (0, 0), BuildingBlock: XUDNAN_clean_linker_2, # of connection points: 2
#     Edge 74, Type (0, 0), BuildingBlock: XUDNAN_clean_linker_2, # of connection points: 2
#     Edge 75, Type (0, 0), BuildingBlock: XUDNAN_clean_linker_2, # of connection points: 2
#     Edge 76, Type (0, 0), BuildingBlock: XUDNAN_clean_linker_2, # of connection points: 2
#     Edge 77, Type (0, 0), BuildingBlock: XUDNAN_clean_linker_2, # of connection points: 2
#     Edge 78, Type (0, 0), BuildingBlock: XUDNAN_clean_linker_2, # of connection points: 2
#     Edge 79, Type (0, 0), BuildingBlock: XUDNAN_clean_linker_2, # of connection points: 2
#     Edge 80, Type (0, 0), BuildingBlock: XUDNAN_clean_linker_2, # of connection points: 2
#     Edge 81, Type (0, 0), BuildingBlock: XUDNAN_clean_linker_2, # of connection points: 2
#     Edge 82, Type (0, 0), BuildingBlock: XUDNAN_clean_linker_2, # of connection points: 2
#     Edge 83, Type (0, 0), BuildingBlock: XUDNAN_clean_linker_2, # of connection points: 2
#     Edge 84, Type (0, 0), BuildingBlock: XUDNAN_clean_linker_2, # of connection points: 2
#     Edge 85, Type (0, 0), BuildingBlock: XUDNAN_clean_linker_2, # of connection points: 2
#     Edge 86, Type (0, 0), BuildingBlock: XUDNAN_clean_linker_2, # of connection points: 2
#     Edge 87, Type (0, 0), BuildingBlock: XUDNAN_clean_linker_2, # of connection points: 2
#     Edge 88, Type (0, 0), BuildingBlock: XUDNAN_clean_linker_2, # of connection points: 2
#     Edge 89, Type (0, 0), BuildingBlock: XUDNAN_clean_linker_2, # of connection points: 2
#     Edge 90, Type (0, 0), BuildingBlock: XUDNAN_clean_linker_2, # of connection points: 2
#     Edge 91, Type (0, 0), BuildingBlock: XUDNAN_clean_linker_2, # of connection points: 2
#     Edge 92, Type (0, 0), BuildingBlock: XUDNAN_clean_linker_2, # of connection points: 2
#     Edge 93, Type (0, 0), BuildingBlock: XUDNAN_clean_linker_2, # of connection points: 2
#     Edge 94, Type (0, 0), BuildingBlock: XUDNAN_clean_linker_2, # of connection points: 2
#     Edge 95, Type (0, 0), BuildingBlock: XUDNAN_clean_linker_2, # of connection points: 2
# Relax obj value: 0.353
# Max RMSD: 0.233
# Mean RMSD: 0.229
data_MOF--net-uoi--node1-AZAVOO_clean_sbu_0--edge1-XUDNAN_clean_linker_2
_symmetry_space_group_name_H-M    P1
_symmetry_Int_Tables_number       1
_symmetry_cell_setting            triclinic
loop_
_symmetry_equiv_pos_as_xyz
'x, y, z'
_cell_length_a     85.875348
_cell_length_b     85.1339
_cell_length_c     17.950952
_cell_angle_alpha  89.857795
_cell_angle_beta   90.041133
_cell_angle_gamma 90.194824
loop_
_atom_site_label
_atom_site_type_symbol
_atom_site_fract_x
_atom_site_fract_y
_atom_site_fract_z
_atom_type_partial_charge
Mg0 Mg 0.18618 0.16645 0.11936 0.0
O1 O 0.18137 0.18604 0.20161 0.0
O2 O 0.16673 0.20478 0.15135 0.0
Mg3 Mg 0.15998 0.19571 0.03503 0.0
C4 C 0.17478 0.19937 0.20534 0.0
C5 C 0.20784 0.16026 0.25458 0.0
O6 O 0.21337 0.17342 0.22666 0.0
O7 O 0.16169 0.15497 0.13378 0.0
O8 O 0.1477 0.17374 0.07837 0.0
O9 O 0.20542 0.18209 0.07302 0.0
O10 O 0.18145 0.18169 0.02969 0.0
C11 C 0.14865 0.16036 0.1103 0.0
C12 C 0.19505 0.18792 0.02863 0.0
O13 O 0.19673 0.15336 0.22045 0.0
Mg14 Mg 0.05596 0.93931 0.40589 0.0
O15 O 0.03853 0.92697 0.48294 0.0
O16 O 0.02691 0.90774 0.41927 0.0
Mg17 Mg 0.03739 0.90712 0.30234 0.0
C18 C 0.02855 0.9159 0.47833 0.0
C19 C 0.05927 0.96298 0.53892 0.0
O20 O 0.04707 0.96885 0.5048 0.0
O21 O 0.0739 0.91917 0.41112 0.0
O22 O 0.06166 0.90063 0.34502 0.0
O23 O 0.03588 0.95428 0.36905 0.0
O24 O 0.04279 0.93236 0.31285 0.0
C25 C 0.07347 0.9055 0.38165 0.0
C26 C 0.03288 0.94354 0.32008 0.0
O27 O 0.06604 0.95111 0.51072 0.0
Mg28 Mg 0.28629 0.80104 0.6386 0.0
O29 O 0.29343 0.78525 0.73388 0.0
O30 O 0.31634 0.7739 0.71438 0.0
Mg31 Mg 0.32525 0.78476 0.60476 0.0
C32 C 0.30413 0.77586 0.75365 0.0
C33 C 0.26596 0.82052 0.7581 0.0
O34 O 0.27623 0.83176 0.74737 0.0
O35 O 0.3029 0.82107 0.67388 0.0
O36 O 0.32585 0.81013 0.64713 0.0
O37 O 0.27747 0.77943 0.57824 0.0
O38 O 0.30117 0.78905 0.56581 0.0
C39 C 0.31776 0.82182 0.66886 0.0
C40 C 0.29128 0.77824 0.54997 0.0
O41 O 0.2666 0.80816 0.71851 0.0
Mg42 Mg 0.40857 0.04702 0.88944 0.0
O43 O 0.42727 0.05291 0.97552 0.0
O44 O 0.444 0.07045 0.92946 0.0
Mg45 Mg 0.43452 0.07768 0.8147 0.0
C46 C 0.43967 0.06109 0.98113 0.0
C47 C 0.40363 0.02274 0.01646 0.0
O48 O 0.41758 0.01924 0.99163 0.0
O49 O 0.39464 0.06993 0.91004 0.0
O50 O 0.41154 0.08703 0.86069 0.0
O51 O 0.42593 0.02998 0.84041 0.0
O52 O 0.4234 0.05451 0.80306 0.0
C53 C 0.39847 0.08396 0.8915 0.0
C54 C 0.43091 0.04153 0.79979 0.0
O55 O 0.39604 0.03362 0.98394 0.0
Mg56 Mg 0.18393 0.80318 0.36129 0.0
O57 O 0.17379 0.78269 0.2935 0.0
O58 O 0.15314 0.7737 0.35582 0.0
Mg59 Mg 0.14824 0.78968 0.45524 0.0
C60 C 0.16286 0.77269 0.30226 0.0
C61 C 0.20517 0.80039 0.21327 0.0
O62 O 0.20275 0.78523 0.22071 0.0
O63 O 0.1652 0.82097 0.32432 0.0
O64 O 0.14437 0.81186 0.38563 0.0
O65 O 0.19608 0.7847 0.43368 0.0
O66 O 0.17321 0.79504 0.4581 0.0
C67 C 0.15085 0.82198 0.34309 0.0
C68 C 0.18381 0.78517 0.47547 0.0
O69 O 0.19955 0.80979 0.26132 0.0
Mg70 Mg 0.40986 0.94166 0.59287 0.0
O71 O 0.42579 0.93159 0.50491 0.0
O72 O 0.43994 0.91172 0.54798 0.0
Mg73 Mg 0.4307 0.90737 0.66676 0.0
C74 C 0.43635 0.92133 0.49615 0.0
C75 C 0.38869 0.96537 0.48762 0.0
O76 O 0.37899 0.96742 0.54326 0.0
O77 O 0.39188 0.92166 0.58027 0.0
O78 O 0.40565 0.90195 0.62949 0.0
O79 O 0.43045 0.95566 0.63195 0.0
O80 O 0.42421 0.93235 0.67739 0.0
C81 C 0.39308 0.90732 0.60122 0.0
C82 C 0.43393 0.94385 0.67431 0.0
O83 O 0.40023 0.9562 0.49547 0.0
Mg84 Mg 0.27539 0.16736 0.87155 0.0
O85 O 0.2806 0.18861 0.79959 0.0
O86 O 0.29656 0.20541 0.85611 0.0
Mg87 Mg 0.30375 0.1931 0.96506 0.0
C88 C 0.28783 0.20166 0.80138 0.0
C89 C 0.25196 0.14896 0.75809 0.0
O90 O 0.24564 0.14272 0.81791 0.0
O91 O 0.29909 0.15543 0.84561 0.0
O92 O 0.31477 0.17235 0.9047 0.0
O93 O 0.25746 0.18282 0.92781 0.0
O94 O 0.28155 0.18001 0.96789 0.0
C95 C 0.31268 0.15993 0.86621 0.0
C96 C 0.26842 0.18705 0.97315 0.0
O97 O 0.26372 0.15796 0.76485 0.0
Mg98 Mg 0.05403 0.04698 0.10641 0.0
O99 O 0.03344 0.05008 0.02873 0.0
O100 O 0.01784 0.06936 0.06478 0.0
Mg101 Mg 0.03028 0.08039 0.16625 0.0
C102 C 0.02112 0.05811 0.0207 0.0
C103 C 0.06945 0.01732 0.01922 0.0
O104 O 0.0733 0.01175 0.08498 0.0
O105 O 0.06753 0.06844 0.05976 0.0
O106 O 0.05206 0.08765 0.10136 0.0
O107 O 0.03803 0.03293 0.18404 0.0
O108 O 0.04251 0.05833 0.19301 0.0
C109 C 0.06433 0.08304 0.06773 0.0
C110 C 0.03547 0.04613 0.21747 0.0
O111 O 0.06278 0.03059 0.01449 0.0
Mg112 Mg 0.78234 0.80487 0.87268 0.0
O113 O 0.79369 0.78969 0.78409 0.0
O114 O 0.81522 0.77848 0.82884 0.0
Mg115 Mg 0.81769 0.78681 0.9497 0.0
C116 C 0.80538 0.7807 0.77659 0.0
C117 C 0.76567 0.82794 0.75005 0.0
O118 O 0.77283 0.83989 0.78128 0.0
O119 O 0.80084 0.82462 0.86218 0.0
O120 O 0.82107 0.81239 0.91449 0.0
O121 O 0.76985 0.78301 0.90866 0.0
O122 O 0.79234 0.79071 0.95601 0.0
C123 C 0.81496 0.82458 0.88519 0.0
C124 C 0.78177 0.78003 0.9505 0.0
O125 O 0.76729 0.81423 0.77714 0.0
Mg126 Mg 0.91403 0.04432 0.59498 0.0
O127 O 0.93639 0.05398 0.54177 0.0
O128 O 0.94894 0.06841 0.62641 0.0
Mg129 Mg 0.93367 0.07009 0.73016 0.0
C130 C 0.94817 0.06205 0.56216 0.0
C131 C 0.90898 0.02199 0.45699 0.0
O132 O 0.91394 0.01171 0.50619 0.0
O133 O 0.90075 0.06795 0.58284 0.0
O134 O 0.91408 0.08204 0.66642 0.0
O135 O 0.92948 0.02529 0.64169 0.0
O136 O 0.92379 0.04705 0.70194 0.0
C137 C 0.90326 0.08077 0.61807 0.0
C138 C 0.93201 0.03453 0.69763 0.0
O139 O 0.90709 0.03619 0.47713 0.0
Mg140 Mg 0.67876 0.1718 0.32821 0.0
O141 O 0.67245 0.18978 0.2378 0.0
O142 O 0.65359 0.20608 0.27421 0.0
Mg143 Mg 0.64095 0.18988 0.35645 0.0
C144 C 0.6646 0.20238 0.22969 0.0
C145 C 0.70201 0.15146 0.2199 0.0
O146 O 0.6958 0.13862 0.24786 0.0
O147 O 0.6615 0.1521 0.29215 0.0
O148 O 0.64599 0.17152 0.26919 0.0
O149 O 0.68809 0.1925 0.39385 0.0
O150 O 0.66407 0.18366 0.40587 0.0
C151 C 0.64767 0.15702 0.28285 0.0
C152 C 0.6744 0.19399 0.42305 0.0
O153 O 0.69783 0.16478 0.24464 0.0
Mg154 Mg 0.54968 0.94273 0.09565 0.0
O155 O 0.53417 0.93354 0.00343 0.0
O156 O 0.52093 0.91233 0.03898 0.0
Mg157 Mg 0.53038 0.90642 0.15589 0.0
C158 C 0.52403 0.92296 0.99092 0.0
C159 C 0.57243 0.96221 0.97923 0.0
O160 O 0.58477 0.95592 0.01052 0.0
O161 O 0.56827 0.92394 0.07622 0.0
O162 O 0.55571 0.90256 0.11731 0.0
O163 O 0.52875 0.95525 0.13815 0.0
O164 O 0.53559 0.93152 0.17614 0.0
C165 C 0.56792 0.90925 0.09133 0.0
C166 C 0.52554 0.9427 0.17613 0.0
O167 O 0.55895 0.95912 0.00462 0.0
Mg168 Mg 0.78542 0.17118 0.62564 0.0
O169 O 0.7915 0.19114 0.70526 0.0
O170 O 0.80868 0.20749 0.65336 0.0
Mg171 Mg 0.8156 0.19647 0.54175 0.0
C172 C 0.7996 0.2037 0.70677 0.0
C173 C 0.76223 0.1679 0.75871 0.0
O174 O 0.75923 0.18212 0.73413 0.0
O175 O 0.80831 0.15772 0.65063 0.0
O176 O 0.82517 0.1744 0.59739 0.0
O177 O 0.76845 0.18804 0.57144 0.0
O178 O 0.79271 0.18494 0.5347 0.0
C179 C 0.82221 0.16167 0.63249 0.0
C180 C 0.77986 0.19248 0.52916 0.0
O181 O 0.77226 0.15966 0.72419 0.0
Mg182 Mg 0.5531 0.04631 0.38956 0.0
O183 O 0.53463 0.05181 0.47762 0.0
O184 O 0.51851 0.07022 0.43537 0.0
Mg185 Mg 0.52831 0.07848 0.32295 0.0
C186 C 0.5225 0.06023 0.48491 0.0
C187 C 0.55719 0.02159 0.51425 0.0
O188 O 0.54274 0.01934 0.49254 0.0
O189 O 0.56769 0.06845 0.41539 0.0
O190 O 0.55149 0.08693 0.37268 0.0
O191 O 0.53534 0.03019 0.33769 0.0
O192 O 0.53843 0.05503 0.30545 0.0
C193 C 0.5644 0.08284 0.40226 0.0
C194 C 0.53058 0.04222 0.29987 0.0
O195 O 0.56545 0.03175 0.48006 0.0
Mg196 Mg 0.68499 0.81444 0.15016 0.0
O197 O 0.67657 0.7986 0.24395 0.0
O198 O 0.65652 0.78383 0.20815 0.0
Mg199 Mg 0.65028 0.79257 0.0904 0.0
C200 C 0.66672 0.78773 0.25651 0.0
C201 C 0.70891 0.81692 0.27684 0.0
O202 O 0.70909 0.80197 0.25893 0.0
O203 O 0.66513 0.83203 0.16652 0.0
O204 O 0.64477 0.81795 0.12643 0.0
O205 O 0.69877 0.79396 0.10914 0.0
O206 O 0.67486 0.79925 0.07135 0.0
C207 C 0.65063 0.83074 0.15122 0.0
C208 C 0.68654 0.78984 0.07164 0.0
O209 O 0.70047 0.82624 0.2387 0.0
Mg210 Mg 0.91637 0.93658 0.89545 0.0
O211 O 0.93235 0.93026 0.99131 0.0
O212 O 0.9438 0.9072 0.97311 0.0
Mg213 Mg 0.93312 0.8975 0.865 0.0
C214 C 0.94184 0.91964 0.01138 0.0
C215 C 0.90994 0.97067 0.96707 0.0
O216 O 0.9159 0.97624 0.90497 0.0
O217 O 0.89683 0.91967 0.93331 0.0
O218 O 0.90814 0.89663 0.90916 0.0
O219 O 0.93773 0.94559 0.83286 0.0
O220 O 0.92848 0.92155 0.82382 0.0
C221 C 0.89642 0.90464 0.93053 0.0
C222 C 0.93905 0.93154 0.80615 0.0
O223 O 0.90797 0.95594 0.97441 0.0
Mg224 Mg 0.68939 0.67296 0.65328 0.0
O225 O 0.67948 0.68853 0.74348 0.0
O226 O 0.65928 0.70236 0.70253 0.0
Mg227 Mg 0.65469 0.69345 0.58347 0.0
C228 C 0.66908 0.6989 0.75341 0.0
C229 C 0.70281 0.65112 0.78906 0.0
O230 O 0.69148 0.64118 0.77462 0.0
O231 O 0.66993 0.65438 0.66597 0.0
O232 O 0.64997 0.66796 0.61886 0.0
O233 O 0.70268 0.69416 0.61378 0.0
O234 O 0.67953 0.68748 0.57059 0.0
C235 C 0.65565 0.65531 0.64586 0.0
C236 C 0.69074 0.6975 0.57272 0.0
O237 O 0.70468 0.66315 0.74779 0.0
Mg238 Mg 0.55813 0.44797 0.88424 0.0
O239 O 0.54137 0.43758 0.9685 0.0
O240 O 0.5287 0.4168 0.92405 0.0
Mg241 Mg 0.53966 0.41229 0.8091 0.0
C242 C 0.53115 0.42684 0.97543 0.0
C243 C 0.55805 0.47512 -0.00274 0.0
O244 O 0.54821 0.47982 0.94593 0.0
O245 O 0.57652 0.42881 0.90425 0.0
O246 O 0.56425 0.40801 0.85537 0.0
O247 O 0.53753 0.46069 0.83618 0.0
O248 O 0.54529 0.43753 0.79646 0.0
C249 C 0.57616 0.41426 0.88628 0.0
C250 C 0.5351 0.44853 0.79475 0.0
O251 O 0.56626 0.46302 0.98416 0.0
Mg252 Mg 0.79426 0.31693 0.12135 0.0
O253 O 0.79662 0.2964 0.20347 0.0
O254 O 0.8128 0.27845 0.15795 0.0
Mg255 Mg 0.82275 0.28874 0.04957 0.0
C256 C 0.80326 0.28306 0.20771 0.0
C257 C 0.76913 0.3225 0.24004 0.0
O258 O 0.7648 0.30923 0.20895 0.0
O259 O 0.81783 0.32803 0.15449 0.0
O260 O 0.83391 0.30985 0.10835 0.0
O261 O 0.77632 0.30227 0.06226 0.0
O262 O 0.80131 0.30244 0.03339 0.0
C263 C 0.83155 0.32285 0.14184 0.0
C264 C 0.78772 0.29642 0.02429 0.0
O265 O 0.78104 0.32963 0.21434 0.0
Mg266 Mg 0.91089 0.52584 0.36363 0.0
O267 O 0.93079 0.53138 0.44129 0.0
O268 O 0.94368 0.55308 0.41064 0.0
Mg269 Mg 0.92977 0.56295 0.31062 0.0
C270 C 0.94188 0.541 0.45195 0.0
C271 C 0.89265 0.50513 0.49057 0.0
O272 O 0.87985 0.51267 0.47289 0.0
O273 O 0.89469 0.54458 0.41404 0.0
O274 O 0.90696 0.56628 0.37457 0.0
O275 O 0.92865 0.51491 0.28489 0.0
O276 O 0.92082 0.53949 0.2792 0.0
C277 C 0.89553 0.55954 0.40738 0.0
C278 C 0.92957 0.52862 0.25378 0.0
O279 O 0.90504 0.50753 0.45334 0.0
Mg280 Mg 0.6883 0.31362 0.81598 0.0
O281 O 0.67584 0.29516 0.74376 0.0
O282 O 0.65632 0.28489 0.81007 0.0
Mg283 Mg 0.65593 0.29699 0.92374 0.0
C284 C 0.66455 0.2855 0.75092 0.0
C285 C 0.71065 0.33287 0.70637 0.0
O286 O 0.71343 0.34141 0.7658 0.0
O287 O 0.66882 0.33199 0.80333 0.0
O288 O 0.65019 0.32109 0.87366 0.0
O289 O 0.70282 0.29395 0.85936 0.0
O290 O 0.68103 0.3019 0.91257 0.0
C291 C 0.65529 0.33234 0.83314 0.0
C292 C 0.69209 0.29177 0.90904 0.0
O293 O 0.7009 0.32163 0.71041 0.0
Mg294 Mg 0.93339 0.4305 0.07926 0.0
O295 O 0.94598 0.4234 0.97269 0.0
O296 O 0.9624 0.40378 -0.00453 0.0
Mg297 Mg 0.96043 0.3982 0.12041 0.0
C298 C 0.95637 0.4138 0.95108 0.0
C299 C 0.92329 0.45393 0.95931 0.0
O300 O 0.93831 0.45641 0.96719 0.0
O301 O 0.9174 0.40836 0.07909 0.0
O302 O 0.93508 0.39043 0.11067 0.0
O303 O 0.95354 0.44716 0.103 0.0
O304 O 0.95279 0.42252 0.14078 0.0
C305 C 0.92103 0.39425 0.09649 0.0
C306 C 0.96057 0.43536 0.13335 0.0
O307 O 0.91664 0.44418 0.00292 0.0
Mg308 Mg 0.78962 0.66706 0.3689 0.0
O309 O 0.79864 0.67981 0.26626 0.0
O310 O 0.8214 0.69148 0.28852 0.0
Mg311 Mg 0.82844 0.68364 0.40642 0.0
C312 C 0.80983 0.68865 0.24593 0.0
C313 C 0.76385 0.66583 0.2482 0.0
O314 O 0.76634 0.68097 0.25613 0.0
O315 O 0.80611 0.64592 0.35289 0.0
O316 O 0.82873 0.65744 0.38069 0.0
O317 O 0.77971 0.69018 0.40844 0.0
O318 O 0.80342 0.68211 0.43576 0.0
C319 C 0.82083 0.64526 0.36351 0.0
C320 C 0.79318 0.69311 0.43771 0.0
O321 O 0.77099 0.65631 0.29115 0.0
Mg322 Mg 0.55342 0.5452 0.60561 0.0
O323 O 0.53723 0.55184 0.5117 0.0
O324 O 0.5252 0.57456 0.52919 0.0
Mg325 Mg 0.53606 0.58407 0.63778 0.0
C326 C 0.52751 0.56216 0.49112 0.0
C327 C 0.54966 0.51681 0.50641 0.0
O328 O 0.53681 0.51789 0.54564 0.0
O329 O 0.57267 0.56236 0.56783 0.0
O330 O 0.56118 0.58519 0.59451 0.0
O331 O 0.53247 0.53581 0.66894 0.0
O332 O 0.54113 0.56004 0.67893 0.0
C333 C 0.57299 0.57737 0.57253 0.0
C334 C 0.53079 0.54975 0.696 0.0
O335 O 0.56101 0.52578 0.5235 0.0
Mg336 Mg 0.28514 0.31202 0.37173 0.0
O337 O 0.28727 0.29093 0.29299 0.0
O338 O 0.30201 0.27241 0.34454 0.0
Mg339 Mg 0.31125 0.28276 0.45434 0.0
C340 C 0.29322 0.27724 0.29197 0.0
C341 C 0.26306 0.31817 0.2397 0.0
O342 O 0.25798 0.30466 0.26581 0.0
O343 O 0.3096 0.32165 0.34426 0.0
O344 O 0.32425 0.30316 0.39818 0.0
O345 O 0.26582 0.29861 0.42891 0.0
O346 O 0.29052 0.29782 0.46302 0.0
C347 C 0.3229 0.31609 0.36252 0.0
C348 C 0.27656 0.29266 0.47096 0.0
O349 O 0.27399 0.32522 0.274 0.0
Mg350 Mg 0.41554 0.53258 0.09472 0.0
O351 O 0.432 0.54669 0.01984 0.0
O352 O 0.44124 0.56725 0.08302 0.0
Mg353 Mg 0.42976 0.56699 0.19774 0.0
C354 C 0.44074 0.55879 0.02449 0.0
C355 C 0.39628 0.51121 0.97607 0.0
O356 O 0.38519 0.51063 0.02641 0.0
O357 O 0.3956 0.5505 0.08246 0.0
O358 O 0.40542 0.57052 0.148 0.0
O359 O 0.43666 0.51998 0.13508 0.0
O360 O 0.42735 0.54125 0.1892 0.0
C361 C 0.3945 0.56434 0.10958 0.0
C362 C 0.43841 0.53113 0.18333 0.0
O363 O 0.40862 0.51899 0.98947 0.0
Mg364 Mg 0.17491 0.6643 0.86925 0.0
O365 O 0.16777 0.68681 0.80739 0.0
O366 O 0.15058 0.69927 0.87889 0.0
Mg367 Mg 0.14476 0.68392 0.97998 0.0
C368 C 0.15917 0.69864 0.82091 0.0
C369 C 0.19803 0.66405 0.73063 0.0
O370 O 0.20282 0.67726 0.76079 0.0
O371 O 0.15224 0.65082 0.83837 0.0
O372 O 0.13519 0.66403 0.90843 0.0
O373 O 0.19172 0.67981 0.93541 0.0
O374 O 0.16793 0.67357 0.97093 0.0
C375 C 0.13839 0.65312 0.86236 0.0
C376 C 0.18044 0.68136 0.98266 0.0
O377 O 0.18719 0.65627 0.76225 0.0
Mg378 Mg 0.06928 0.44123 0.57619 0.0
O379 O 0.05882 0.43772 0.45976 0.0
O380 O 0.0466 0.41446 0.46329 0.0
Mg381 Mg 0.04794 0.40395 0.58068 0.0
C382 C 0.05078 0.42692 0.42885 0.0
C383 C 0.08713 0.4702 0.48203 0.0
O384 O 0.0997 0.47897 0.47789 0.0
O385 O 0.0881 0.42224 0.56188 0.0
O386 O 0.07436 0.40007 0.57372 0.0
O387 O 0.04697 0.45323 0.60912 0.0
O388 O 0.0515 0.42791 0.62277 0.0
C389 C 0.08735 0.40727 0.56674 0.0
C390 C 0.04195 0.43942 0.62816 0.0
O391 O 0.08625 0.45997 0.53366 0.0
Mg392 Mg 0.2786 0.66207 0.14841 0.0
O393 O 0.29193 0.67937 0.22165 0.0
O394 O 0.31167 0.68975 0.15729 0.0
Mg395 Mg 0.31178 0.67799 0.04309 0.0
C396 C 0.30343 0.6888 0.21628 0.0
C397 C 0.2532 0.64685 0.25731 0.0
O398 O 0.24777 0.64059 0.19569 0.0
O399 O 0.2974 0.64288 0.16098 0.0
O400 O 0.3166 0.65385 0.09445 0.0
O401 O 0.26512 0.68272 0.10793 0.0
O402 O 0.28647 0.67414 0.05299 0.0
C403 C 0.31116 0.64256 0.13361 0.0
C404 C 0.27602 0.68488 0.05916 0.0
O405 O 0.26563 0.65498 0.25489 0.0
Mg406 Mg 0.0503 0.53207 0.8728 0.0
O407 O 0.02762 0.54078 0.92423 0.0
O408 O 0.01482 0.55567 0.84242 0.0
Mg409 Mg 0.03036 0.55805 0.73959 0.0
C410 C 0.01575 0.54882 0.90558 0.0
C411 C 0.05639 0.50864 0.00652 0.0
O412 O 0.05548 0.49832 0.95242 0.0
O413 O 0.06288 0.55611 0.88926 0.0
O414 O 0.04947 0.57023 0.80597 0.0
O415 O 0.03584 0.51277 0.82303 0.0
O416 O 0.04087 0.53511 0.76528 0.0
C417 C 0.06015 0.56905 0.85508 0.0
C418 C 0.03312 0.52218 0.76784 0.0
O419 O 0.05594 0.52324 0.99088 0.0
Mg420 Mg 0.20238 0.31043 0.61654 0.0
O421 O 0.19487 0.29233 0.70248 0.0
O422 O 0.17439 0.27872 0.66267 0.0
Mg423 Mg 0.16759 0.28994 0.55017 0.0
C424 C 0.185 0.28132 0.71099 0.0
C425 C 0.21958 0.33295 0.73879 0.0
O426 O 0.21295 0.34518 0.70738 0.0
O427 O 0.18257 0.3275 0.64415 0.0
O428 O 0.16215 0.31445 0.59785 0.0
O429 O 0.21603 0.29104 0.56406 0.0
O430 O 0.19202 0.29728 0.53099 0.0
C431 C 0.16805 0.32662 0.62858 0.0
C432 C 0.20365 0.28788 0.52554 0.0
O433 O 0.21771 0.31937 0.71097 0.0
Mg434 Mg 0.41645 0.43087 0.37795 0.0
O435 O 0.43502 0.42588 0.46538 0.0
O436 O 0.45273 0.40913 0.42294 0.0
Mg437 Mg 0.4437 0.4011 0.30851 0.0
C438 C 0.44771 0.41838 0.47326 0.0
C439 C 0.41121 0.45487 0.50362 0.0
O440 O 0.42525 0.45828 0.4792 0.0
O441 O 0.40345 0.40755 0.40049 0.0
O442 O 0.42103 0.39077 0.35524 0.0
O443 O 0.43322 0.44845 0.32912 0.0
O444 O 0.43173 0.42372 0.29319 0.0
C445 C 0.4078 0.39357 0.38485 0.0
C446 C 0.43875 0.43704 0.28982 0.0
O447 O 0.40349 0.4441 0.47087 0.0
H448 H 0.25664 0.16662 0.63194 0.0
H449 H 0.23024 0.12687 0.71649 0.0
H450 H 0.21698 0.1244 0.59454 0.0
H451 H 0.22551 0.18364 0.5303 0.0
H452 H 0.23757 0.19045 0.45465 0.0
H453 H 0.24572 0.18831 0.5465 0.0
H454 H 0.26706 0.16995 0.49418 0.0
H455 H 0.259 0.17205 0.40204 0.0
H456 H 0.26147 0.15277 0.44196 0.0
H457 H 0.20592 0.12695 0.46318 0.0
H458 H 0.19751 0.13484 0.33654 0.0
H459 H 0.23086 0.17326 0.34057 0.0
C460 C 0.24825 0.15723 0.62461 0.0
C461 C 0.2446 0.14682 0.68374 0.0
C462 C 0.23329 0.13492 0.67203 0.0
C463 C 0.22571 0.13342 0.60286 0.0
C464 C 0.22949 0.14397 0.546 0.0
C465 C 0.24047 0.15568 0.55635 0.0
C466 C 0.24187 0.16604 0.48791 0.0
C467 C 0.2374 0.18312 0.50595 0.0
C468 C 0.25833 0.16514 0.45456 0.0
C469 C 0.22995 0.15836 0.43732 0.0
C470 C 0.22298 0.1456 0.4715 0.0
C471 C 0.21137 0.13689 0.43584 0.0
C472 C 0.20668 0.14144 0.3638 0.0
C473 C 0.21354 0.15463 0.32821 0.0
C474 C 0.22542 0.16306 0.36572 0.0
H475 H 0.04926 -0.00996 0.6057 0.0
H476 H 0.08038 0.95053 0.63783 0.0
H477 H 0.08725 0.96057 0.76287 0.0
H478 H 0.07343 0.01905 0.70046 0.0
H479 H 0.05693 0.02907 0.73998 0.0
H480 H 0.05501 0.01903 0.65221 0.0
H481 H 0.03197 0.0028 0.70545 0.0
H482 H 0.03389 0.0127 0.79346 0.0
H483 H 0.03469 -0.00843 0.7897 0.0
H484 H 0.0893 0.97418 0.88863 0.0
H485 H 0.08728 -0.00918 0.00118 0.0
H486 H 0.05554 0.02175 0.88354 0.0
C487 C 0.05763 0.98354 0.63864 0.0
C488 C 0.06429 0.96948 0.61181 0.0
C489 C 0.07518 0.96136 0.65694 0.0
C490 C 0.07913 0.96696 0.72814 0.0
C491 C 0.07221 0.98078 0.75317 0.0
C492 C 0.06179 -0.01097 0.70941 0.0
C493 C 0.05581 0.00344 0.74942 0.0
C494 C 0.06059 0.01854 0.70805 0.0
C495 C 0.03804 0.00256 0.76014 0.0
C496 C 0.06431 0.00191 0.82298 0.0
C497 C 0.0737 0.98877 0.82431 0.0
C498 C 0.08213 0.9846 0.88781 0.0
C499 C 0.0809 -0.00589 0.95153 0.0
C500 C 0.07139 0.00767 0.95108 0.0
C501 C 0.06311 0.0116 0.88551 0.0
H502 H 0.21581 0.78402 0.09143 0.0
H503 H 0.21415 0.83082 0.18666 0.0
H504 H 0.22826 0.84127 0.07742 0.0
H505 H 0.25415 0.78702 0.01341 0.0
H506 H 0.24928 0.77604 0.93084 0.0
H507 H 0.23893 0.77238 0.01632 0.0
H508 H 0.21286 0.77769 0.94806 0.0
H509 H 0.22324 0.78155 0.86272 0.0
H510 H 0.21014 0.79607 0.89972 0.0
H511 H 0.24338 0.84653 0.95982 0.0
H512 H 0.25865 0.84611 0.84322 0.0
H513 H 0.24987 0.79605 0.82276 0.0
C514 C 0.21842 0.79647 0.08945 0.0
C515 C 0.21388 0.80659 0.14793 0.0
C516 C 0.21748 0.82282 0.14274 0.0
C517 C 0.22548 0.82888 0.08078 0.0
C518 C 0.22973 0.8186 0.02408 0.0
C519 C 0.22633 0.80274 0.02778 0.0
C520 C 0.23234 0.7942 0.95957 0.0
C521 C 0.24439 0.78168 0.9814 0.0
C522 C 0.21884 0.78695 0.91488 0.0
C523 C 0.23985 0.80771 0.9175 0.0
C524 C 0.23818 0.82169 0.95557 0.0
C525 C 0.24466 0.83567 0.92922 0.0
C526 C 0.25331 0.83532 0.86287 0.0
C527 C 0.25536 0.8211 0.82334 0.0
C528 C 0.24832 0.80718 0.85082 0.0
H529 H 0.41779 -0.00033 0.09822 0.0
H530 H 0.37593 0.02805 0.08962 0.0
H531 H 0.36685 0.01574 0.20705 0.0
H532 H 0.39986 0.96429 0.1737 0.0
H533 H 0.41646 0.95974 0.23127 0.0
H534 H 0.41911 0.97025 0.14497 0.0
H535 H 0.43323 -0.00736 0.21591 0.0
H536 H 0.43057 0.98218 0.30223 0.0
H537 H 0.42359 0.00203 0.29297 0.0
H538 H 0.3631 0.00105 0.33015 0.0
H539 H 0.36486 0.98513 0.44554 0.0
H540 H 0.40911 0.96644 0.37051 0.0
C541 C 0.40662 0.00321 0.12039 0.0
C542 C 0.39755 0.01482 0.08439 0.0
C543 C 0.38306 0.01915 0.11592 0.0
C544 C 0.37782 0.01222 0.18266 0.0
C545 C 0.38716 0.00094 0.21705 0.0
C546 C 0.40123 -0.00357 0.18664 0.0
C547 C 0.40934 0.98441 0.23524 0.0
C548 C 0.4113 0.96874 0.19381 0.0
C549 C 0.42511 -0.0093 0.26324 0.0
C550 C 0.39771 0.98291 0.29818 0.0
C551 C 0.38497 -0.00749 0.2869 0.0
C552 C 0.37297 -0.00659 0.33915 0.0
C553 C 0.37408 0.98433 0.4046 0.0
C554 C 0.38707 0.97446 0.4172 0.0
C555 C 0.39894 0.97374 0.36264 0.0
H556 H 0.72266 0.79855 0.38265 0.0
H557 H 0.714 0.84727 0.32471 0.0
H558 H 0.72751 0.85566 0.44014 0.0
H559 H 0.7161 0.80249 0.57747 0.0
H560 H 0.73113 0.78879 0.60353 0.0
H561 H 0.72131 0.78673 0.51545 0.0
H562 H 0.74774 0.78766 0.44656 0.0
H563 H 0.75772 0.78963 0.53426 0.0
H564 H 0.76077 0.80399 0.46174 0.0
H565 H 0.74238 0.85851 0.56306 0.0
H566 H 0.75669 0.85554 0.68217 0.0
H567 H 0.7545 0.80485 0.65861 0.0
C568 C 0.7237 0.81102 0.39364 0.0
C569 C 0.71737 0.82228 0.34425 0.0
C570 C 0.71881 0.83844 0.36158 0.0
C571 C 0.72646 0.84331 0.42701 0.0
C572 C 0.7325 0.83185 0.47464 0.0
C573 C 0.73115 0.81603 0.45863 0.0
C574 C 0.73831 0.80598 0.51918 0.0
C575 C 0.72597 0.79538 0.55609 0.0
C576 C 0.75194 0.79625 0.48859 0.0
C577 C 0.74396 0.8186 0.57195 0.0
C578 C 0.74059 0.83346 0.5454 0.0
C579 C 0.74501 0.84692 0.58441 0.0
C580 C 0.75313 0.84513 0.65202 0.0
C581 C 0.75665 0.82998 0.68011 0.0
C582 C 0.75189 0.81661 0.63929 0.0
H583 H 0.90961 -0.00779 0.39894 0.0
H584 H 0.90395 0.0411 0.3357 0.0
H585 H 0.90239 0.03329 0.20329 0.0
H586 H 0.93368 0.98122 0.2475 0.0
H587 H 0.92516 0.96198 0.23706 0.0
H588 H 0.92516 0.97139 0.32674 0.0
H589 H 0.89516 0.96826 0.33425 0.0
H590 H 0.89508 0.95883 0.24452 0.0
H591 H 0.88319 0.97592 0.2601 0.0
H592 H 0.90348 0.02015 0.0763 0.0
H593 H 0.90572 0.00264 0.9668 0.0
H594 H 0.90943 0.9624 0.11442 0.0
C595 C 0.90788 0.00128 0.35742 0.0
C596 C 0.90688 0.01728 0.37791 0.0
C597 C 0.90467 0.02876 0.32157 0.0
C598 C 0.9038 0.02444 0.24613 0.0
C599 C 0.90501 0.00857 0.22785 0.0
C600 C 0.90687 -0.00283 0.28204 0.0
C601 C 0.90812 0.98096 0.24786 0.0
C602 C 0.92397 0.97345 0.26586 0.0
C603 C 0.89458 0.97037 0.27319 0.0
C604 C 0.90681 0.98503 0.16591 0.0
C605 C 0.90511 0.00101 0.15532 0.0
C606 C 0.90458 0.00759 0.08405 0.0
C607 C 0.90587 -0.00243 0.02218 0.0
C608 C 0.9075 0.98114 0.03195 0.0
C609 C 0.90784 0.97486 0.10495 0.0
H610 H 0.74385 0.18458 0.85469 0.0
H611 H 0.76315 0.13814 0.81935 0.0
H612 H 0.7503 0.12882 0.93489 0.0
H613 H 0.74819 0.18507 0.05375 0.0
H614 H 0.73025 0.1955 0.06904 0.0
H615 H 0.74087 0.19832 0.98357 0.0
H616 H 0.71628 0.19067 0.90833 0.0
H617 H 0.70559 0.18766 -0.00653 0.0
H618 H 0.70687 0.17206 0.92611 0.0
H619 H 0.7345 0.12452 0.05388 0.0
H620 H 0.71782 0.1258 0.16624 0.0
H621 H 0.70991 0.17537 0.12441 0.0
C622 C 0.74537 0.17242 0.87091 0.0
C623 C 0.75447 0.16206 0.82754 0.0
C624 C 0.75622 0.14629 0.85145 0.0
C625 C 0.74896 0.1409 0.91705 0.0
C626 C 0.74008 0.15144 0.95847 0.0
C627 C 0.73832 0.1669 0.93631 0.0
C628 C 0.72826 0.17594 0.99057 0.0
C629 C 0.73745 0.18951 0.02636 0.0
C630 C 0.71337 0.18193 0.95232 0.0
C631 C 0.7246 0.16317 0.04687 0.0
C632 C 0.73143 0.14909 0.02734 0.0
C633 C 0.7292 0.13552 0.06986 0.0
C634 C 0.7197 0.13635 0.13361 0.0
C635 C 0.71265 0.1507 0.1547 0.0
C636 C 0.71529 0.16426 0.11064 0.0
H637 H 0.54901 0.97076 0.88468 0.0
H638 H 0.59888 0.97537 0.91771 0.0
H639 H 0.60071 -0.00891 0.80151 0.0
H640 H 0.5504 0.96606 0.68688 0.0
H641 H 0.53264 0.97682 0.67133 0.0
H642 H 0.53552 0.96638 0.75758 0.0
H643 H 0.53052 -0.00794 0.83095 0.0
H644 H 0.52775 0.00258 0.74485 0.0
H645 H 0.54211 0.00926 0.81094 0.0
H646 H 0.59668 0.00682 0.68099 0.0
H647 H 0.58734 0.02031 0.56694 0.0
H648 H 0.54035 0.00416 0.61364 0.0
C649 C 0.56034 0.97514 0.86804 0.0
C650 C 0.57381 0.97192 0.91074 0.0
C651 C 0.5884 0.97772 0.88605 0.0
C652 C 0.58955 0.98666 0.82015 0.0
C653 C 0.576 -0.01044 0.77933 0.0
C654 C 0.56169 0.98389 0.8024 0.0
C655 C 0.5489 0.98826 0.7483 0.0
C656 C 0.54143 0.9735 0.71398 0.0
C657 C 0.5366 -0.00134 0.78603 0.0
C658 C 0.55818 -0.0026 0.69114 0.0
C659 C 0.57378 -0.00189 0.70986 0.0
C660 C 0.5845 0.00625 0.66573 0.0
C661 C 0.57909 0.01388 0.60108 0.0
C662 C 0.56314 0.01321 0.58097 0.0
C663 C 0.55265 0.00478 0.6268 0.0
H664 H 0.71937 0.67413 0.86022 0.0
H665 H 0.70682 0.62484 0.8764 0.0
H666 H 0.72116 0.62295 -0.00407 0.0
H667 H 0.75799 0.6714 0.93997 0.0
H668 H 0.75619 0.68983 0.98843 0.0
H669 H 0.74572 0.68669 0.90285 0.0
H670 H 0.71996 0.69355 0.97064 0.0
H671 H 0.73042 0.6964 0.05653 0.0
H672 H 0.71443 0.68265 0.05273 0.0
H673 H 0.73717 0.62671 0.11498 0.0
H674 H 0.75265 0.63591 0.22315 0.0
H675 H 0.75335 0.68296 0.12952 0.0
C676 C 0.71981 0.66286 0.88821 0.0
C677 C 0.71212 0.64957 0.85842 0.0
C678 C 0.7127 0.63515 0.89791 0.0
C679 C 0.72081 0.63398 0.96585 0.0
C680 C 0.72813 0.64737 -0.00602 0.0
C681 C 0.72763 0.66155 0.95635 0.0
C682 C 0.73588 0.67438 -0.00058 0.0
C683 C 0.74977 0.68095 0.955 0.0
C684 C 0.72449 0.68752 0.02112 0.0
C685 C 0.74124 0.66522 0.06708 0.0
C686 C 0.73675 0.64964 0.06299 0.0
C687 C 0.74067 0.6389 0.1188 0.0
C688 C 0.74946 0.64422 0.18006 0.0
C689 C 0.7541 0.66017 0.18531 0.0
C690 C 0.74984 0.67073 0.12791 0.0
H691 H 0.57362 0.51148 0.40459 0.0
H692 H 0.52461 0.50204 0.44654 0.0
H693 H 0.52218 0.48991 0.32366 0.0
H694 H 0.57001 0.52101 0.21367 0.0
H695 H 0.58751 0.51129 0.18353 0.0
H696 H 0.58608 0.51861 0.27731 0.0
H697 H 0.59231 0.49095 0.32942 0.0
H698 H 0.59391 0.48356 0.23572 0.0
H699 H 0.58066 0.47439 0.30057 0.0
H700 H 0.52377 0.48171 0.19348 0.0
H701 H 0.53025 0.47452 0.06456 0.0
H702 H 0.5787 0.48647 0.10427 0.0
C703 C 0.56248 0.50658 0.38836 0.0
C704 C 0.54933 0.50775 0.43574 0.0
C705 C 0.53491 0.50128 0.41199 0.0
C706 C 0.53336 0.49437 0.34191 0.0
C707 C 0.54637 0.4937 0.29614 0.0
C708 C 0.56075 0.4993 0.31842 0.0
C709 C 0.57273 0.49706 0.25687 0.0
C710 C 0.57948 0.51294 0.23135 0.0
C711 C 0.58567 0.48582 0.28217 0.0
C712 C 0.56268 0.48968 0.19636 0.0
C713 C 0.54749 0.48803 0.22063 0.0
C714 C 0.53567 0.48263 0.17419 0.0
C715 C 0.53946 0.47866 0.10098 0.0
C716 C 0.55497 0.47977 0.07502 0.0
C717 C 0.5668 0.48527 0.12338 0.0
H718 H 0.74465 0.30846 0.31131 0.0
H719 H 0.77539 0.34896 0.32297 0.0
H720 H 0.76274 0.35701 0.4407 0.0
H721 H 0.71008 0.32732 0.38745 0.0
H722 H 0.7042 0.30996 0.43798 0.0
H723 H 0.71499 0.30813 0.35244 0.0
H724 H 0.73585 0.29152 0.42093 0.0
H725 H 0.72511 0.29333 0.50651 0.0
H726 H 0.74523 0.2994 0.50263 0.0
H727 H 0.74766 0.35959 0.56183 0.0
H728 H 0.7314 0.35662 0.67474 0.0
H729 H 0.71065 0.31445 0.58143 0.0
C730 C 0.74862 0.31916 0.33788 0.0
C731 C 0.76098 0.32813 0.30764 0.0
C732 C 0.76589 0.34194 0.34486 0.0
C733 C 0.75878 0.3466 0.41174 0.0
C734 C 0.74674 0.33734 0.44045 0.0
C735 C 0.74168 0.32394 0.40442 0.0
C736 C 0.729 0.31564 0.44807 0.0
C737 C 0.71366 0.31525 0.40384 0.0
C738 C 0.73411 0.29899 0.47089 0.0
C739 C 0.72782 0.32636 0.5149 0.0
C740 C 0.73809 0.33885 0.50953 0.0
C741 C 0.73948 0.34994 0.56623 0.0
C742 C 0.7302 0.34814 0.6302 0.0
C743 C 0.71968 0.33536 0.63693 0.0
C744 C 0.71844 0.32446 0.5779 0.0
H745 H 0.93589 0.47177 0.84833 0.0
H746 H 0.892 0.45199 0.92384 0.0
H747 H 0.87896 0.46284 0.81166 0.0
H748 H 0.91981 0.50722 0.77382 0.0
H749 H 0.9327 0.50831 0.69519 0.0
H750 H 0.9392 0.49929 0.78057 0.0
H751 H 0.94582 0.47335 0.71472 0.0
H752 H 0.9404 0.4821 0.62715 0.0
H753 H 0.93141 0.46395 0.65669 0.0
H754 H 0.87088 0.4764 0.68875 0.0
H755 H 0.86887 0.49054 0.5679 0.0
H756 H 0.91858 0.49954 0.57354 0.0
C757 C 0.9235 0.46977 0.84192 0.0
C758 C 0.91496 0.46107 0.89522 0.0
C759 C 0.89878 0.45868 0.88397 0.0
C760 C 0.89129 0.46478 0.82034 0.0
C761 C 0.90016 0.47316 0.76844 0.0
C762 C 0.91593 0.47561 0.77887 0.0
C763 C 0.923 0.48486 0.71529 0.0
C764 C 0.92905 0.50085 0.74289 0.0
C765 C 0.93592 0.4755 0.67615 0.0
C766 C 0.90888 0.48682 0.66589 0.0
C767 C 0.89571 0.4803 0.69778 0.0
C768 C 0.88118 0.48141 0.66316 0.0
C769 C 0.88013 0.48943 0.59455 0.0
C770 C 0.89359 0.49594 0.56075 0.0
C771 C 0.90811 0.49446 0.59709 0.0
H772 H 0.22522 0.30941 0.83809 0.0
H773 H 0.23136 0.35958 0.80571 0.0
H774 H 0.24353 0.36149 0.9308 0.0
H775 H 0.21437 0.3115 0.02843 0.0
H776 H 0.22411 0.29355 0.05396 0.0
H777 H 0.21685 0.29611 0.96066 0.0
H778 H 0.24429 0.29053 0.90766 0.0
H779 H 0.25167 0.28788 0.00075 0.0
H780 H 0.26067 0.30202 0.93936 0.0
H781 H 0.25542 0.35749 0.0603 0.0
H782 H 0.26464 0.34825 0.1838 0.0
H783 H 0.2488 0.30113 0.131 0.0
C784 C 0.22928 0.3208 0.85667 0.0
C785 C 0.22751 0.33434 0.81178 0.0
C786 C 0.23269 0.34905 0.83906 0.0
C787 C 0.23961 0.35023 0.90994 0.0
C788 C 0.24106 0.33662 0.95294 0.0
C789 C 0.23594 0.32221 0.92727 0.0
C790 C 0.23816 0.30942 0.98492 0.0
C791 C 0.22243 0.30223 0.00837 0.0
C792 C 0.24937 0.29672 0.95646 0.0
C793 C 0.24537 0.31886 0.04733 0.0
C794 C 0.24713 0.33449 0.02784 0.0
C795 C 0.25398 0.3453 0.07623 0.0
C796 C 0.25918 0.33997 0.14616 0.0
C797 C 0.25726 0.32403 0.16725 0.0
C798 C 0.25021 0.31344 0.11704 0.0
H799 H 0.42657 0.47607 0.59143 0.0
H800 H 0.38255 0.45125 0.57071 0.0
H801 H 0.37346 0.46359 0.68763 0.0
H802 H 0.43021 0.47208 0.78737 0.0
H803 H 0.43884 0.49121 0.80033 0.0
H804 H 0.44143 0.48099 0.7136 0.0
H805 H 0.43013 0.50486 0.64205 0.0
H806 H 0.42752 0.51513 0.7287 0.0
H807 H 0.4112 0.51228 0.66692 0.0
H808 H 0.36965 0.47816 0.81019 0.0
H809 H 0.37143 0.49357 0.92661 0.0
H810 H 0.41807 0.50857 0.86516 0.0
C811 C 0.41494 0.47332 0.61082 0.0
C812 C 0.40523 0.46274 0.57152 0.0
C813 C 0.39017 0.45937 0.59961 0.0
C814 C 0.38491 0.46632 0.66599 0.0
C815 C 0.39486 0.47661 0.70358 0.0
C816 C 0.40955 0.4801 0.67679 0.0
C817 C 0.4182 0.49115 0.72844 0.0
C818 C 0.43304 0.48339 0.75926 0.0
C819 C 0.42198 0.50678 0.68917 0.0
C820 C 0.40611 0.49331 0.78881 0.0
C821 C 0.39271 0.48488 0.77359 0.0
C822 C 0.38007 0.48486 0.82239 0.0
C823 C 0.38119 0.49365 0.88845 0.0
C824 C 0.39486 0.50233 0.90518 0.0
C825 C 0.40741 0.50215 0.85414 0.0
H826 H 0.2554 0.66609 0.37942 0.0
H827 H 0.23005 0.62592 0.29254 0.0
H828 H 0.21377 0.62543 0.40609 0.0
H829 H 0.25494 0.65473 0.57468 0.0
H830 H 0.25202 0.67452 0.60714 0.0
H831 H 0.26228 0.67111 0.52124 0.0
H832 H 0.243 0.68923 0.45163 0.0
H833 H 0.2326 0.69267 0.53706 0.0
H834 H 0.22239 0.68521 0.45676 0.0
H835 H 0.19987 0.62968 0.52783 0.0
H836 H 0.18889 0.63872 0.64723 0.0
H837 H 0.22268 0.67677 0.65275 0.0
C838 C 0.24658 0.65703 0.38473 0.0
C839 C 0.2441 0.64591 0.32737 0.0
C840 C 0.23221 0.63449 0.33586 0.0
C841 C 0.22291 0.63412 0.40017 0.0
C842 C 0.22555 0.64535 0.45523 0.0
C843 C 0.23706 0.65663 0.44806 0.0
C844 C 0.23702 0.66782 0.51371 0.0
C845 C 0.25248 0.66699 0.55674 0.0
C846 C 0.23354 0.68473 0.48824 0.0
C847 C 0.22368 0.66105 0.55901 0.0
C848 C 0.21729 0.64804 0.52448 0.0
C849 C 0.2048 0.63984 0.55543 0.0
C850 C 0.19864 0.64507 0.62337 0.0
C851 C 0.2049 0.65845 0.65961 0.0
C852 C 0.21762 0.6665 0.62667 0.0
H853 H 0.08387 0.45637 0.3471 0.0
H854 H 0.06428 0.49179 0.49111 0.0
H855 H 0.05064 0.50361 0.38361 0.0
H856 H 0.09378 0.47937 0.20987 0.0
H857 H 0.08894 0.46709 0.13149 0.0
H858 H 0.09319 0.45829 0.22013 0.0
H859 H 0.06632 0.44404 0.2226 0.0
H860 H 0.06265 0.45206 0.13117 0.0
H861 H 0.04892 0.45525 0.20521 0.0
H862 H 0.04538 0.51549 0.25927 0.0
H863 H 0.04539 0.52436 0.1281 0.0
H864 H 0.06761 0.48088 0.06247 0.0
C865 C 0.07586 0.46597 0.35636 0.0
C866 C 0.07467 0.47293 0.42736 0.0
C867 C 0.06485 0.48602 0.43744 0.0
C868 C 0.05717 0.49286 0.37652 0.0
C869 C 0.05934 0.48635 0.30606 0.0
C870 C 0.06804 0.47286 0.29591 0.0
C871 C 0.07019 0.46941 0.21361 0.0
C872 C 0.08755 0.4685 0.19263 0.0
C873 C 0.06151 0.45428 0.19189 0.0
C874 C 0.06249 0.4837 0.17934 0.0
C875 C 0.05609 0.4932 0.23355 0.0
C876 C 0.04992 0.50791 0.2162 0.0
C877 C 0.05016 0.51294 0.14167 0.0
C878 C 0.05647 0.50329 0.08515 0.0
C879 C 0.06251 0.4884 0.1044 0.0
H880 H 0.09635 0.08171 0.08273 0.0
H881 H 0.05838 0.11257 0.02022 0.0
H882 H 0.07601 0.13535 0.02756 0.0
H883 H 0.11313 0.1061 0.21483 0.0
H884 H 0.13323 0.10212 0.19314 0.0
H885 H 0.1185 0.08758 0.17378 0.0
H886 H 0.12674 0.0867 0.03521 0.0
H887 H 0.14182 0.10089 0.05455 0.0
H888 H 0.12773 0.1047 0.98232 0.0
H889 H 0.0959 0.15488 0.06006 0.0
H890 H 0.11907 0.17054 0.08918 0.0
H891 H 0.14558 0.12779 0.12583 0.0
C892 C 0.09196 0.09318 0.06737 0.0
C893 C 0.07599 0.09536 0.05021 0.0
C894 C 0.07056 0.11062 0.03289 0.0
C895 C 0.08046 0.12365 0.03751 0.0
C896 C 0.09585 0.12127 0.05894 0.0
C897 C 0.10179 0.10644 0.0715 0.0
C898 C 0.11877 0.10745 0.09586 0.0
C899 C 0.12103 0.10039 0.17405 0.0
C900 C 0.1294 0.09946 0.03856 0.0
C901 C 0.12124 0.12516 0.09651 0.0
C902 C 0.10774 0.13279 0.07567 0.0
C903 C 0.10666 0.14906 0.07481 0.0
C904 C 0.11993 0.15786 0.09203 0.0
C905 C 0.1343 0.15047 0.10909 0.0
C906 C 0.13482 0.13383 0.11322 0.0
H907 H 0.11934 0.82513 0.33154 0.0
H908 H 0.16236 0.85192 0.32827 0.0
H909 H 0.14729 0.87655 0.33929 0.0
H910 H 0.09567 0.85423 0.22601 0.0
H911 H 0.07857 0.84984 0.2805 0.0
H912 H 0.09284 0.8348 0.26386 0.0
H913 H 0.09518 0.8304 0.40632 0.0
H914 H 0.0813 0.84574 0.42357 0.0
H915 H 0.10035 0.84668 0.46553 0.0
H916 H 0.12738 0.89798 0.36876 0.0
H917 H 0.10418 0.91464 0.38992 0.0
H918 H 0.07448 0.87356 0.36969 0.0
C919 C 0.12558 0.83621 0.3307 0.0
C920 C 0.14203 0.83661 0.32863 0.0
C921 C 0.14976 0.85134 0.32854 0.0
C922 C 0.1413 0.86538 0.33571 0.0
C923 C 0.12511 0.86449 0.34163 0.0
C924 C 0.11732 0.85028 0.33696 0.0
C925 C 0.09993 0.85237 0.34624 0.0
C926 C 0.09124 0.84753 0.2749 0.0
C927 C 0.09385 0.84326 0.41447 0.0
C928 C 0.09913 0.86992 0.35862 0.0
C929 C 0.11375 0.87674 0.35643 0.0
C930 C 0.11586 0.89277 0.36947 0.0
C931 C 0.10265 0.90212 0.38236 0.0
C932 C 0.08752 0.89542 0.38139 0.0
C933 C 0.08588 0.87906 0.37046 0.0
H934 H 0.39249 0.87563 0.62475 0.0
H935 H 0.36209 0.9154 0.58497 0.0
H936 H 0.33913 0.89832 0.6079 0.0
H937 H 0.36816 0.8463 0.53811 0.0
H938 H 0.37334 0.83145 0.60532 0.0
H939 H 0.38691 0.84692 0.58324 0.0
H940 H 0.38855 0.854 0.72347 0.0
H941 H 0.37468 0.8388 0.74572 0.0
H942 H 0.371 0.85878 0.77343 0.0
H943 H 0.3194 0.87643 0.64024 0.0
H944 H 0.30506 0.85153 0.66183 0.0
H945 H 0.34902 0.82692 0.68251 0.0
C946 C 0.38102 0.88079 0.61997 0.0
C947 C 0.37914 0.89691 0.60299 0.0
C948 C 0.36387 0.90308 0.59728 0.0
C949 C 0.35076 0.89349 0.61097 0.0
C950 C 0.35312 0.87777 0.63018 0.0
C951 C 0.36791 0.87146 0.63352 0.0
C952 C 0.36751 0.85425 0.6543 0.0
C953 C 0.37438 0.84414 0.5915 0.0
C954 C 0.37593 0.85129 0.72865 0.0
C955 C 0.35015 0.85173 0.66195 0.0
C956 C 0.34198 0.86541 0.64856 0.0
C957 C 0.32573 0.86568 0.65085 0.0
C958 C 0.31767 0.8515 0.66396 0.0
C959 C 0.32588 0.83723 0.67408 0.0
C960 C 0.34234 0.83758 0.67535 0.0
H961 H 0.31528 0.1274 0.86701 0.0
H962 H 0.34185 0.17053 0.84131 0.0
H963 H 0.36624 0.1556 0.84974 0.0
H964 H 0.3397 0.10971 -0.00014 0.0
H965 H 0.33845 0.08998 0.96408 0.0
H966 H 0.32266 0.1035 0.94889 0.0
H967 H 0.32453 0.09933 0.80639 0.0
H968 H 0.34006 0.08548 0.82126 0.0
H969 H 0.34299 0.10208 0.76026 0.0
H970 H 0.38747 0.13717 0.87455 0.0
H971 H 0.40533 0.11505 0.89208 0.0
H972 H 0.36603 0.08279 0.89851 0.0
C973 C 0.32624 0.13357 0.86055 0.0
C974 C 0.32666 0.15015 0.85309 0.0
C975 C 0.34125 0.15787 0.84682 0.0
C976 C 0.35518 0.1495 0.85201 0.0
C977 C 0.35442 0.13335 0.86311 0.0
C978 C 0.34041 0.12532 0.86557 0.0
C979 C 0.34318 0.10788 0.8792 0.0
C980 C 0.33554 0.10246 0.95236 0.0
C981 C 0.33735 0.09811 0.81282 0.0
C982 C 0.36086 0.1075 0.88498 0.0
C983 C 0.36698 0.12242 0.8761 0.0
C984 C 0.38287 0.12539 0.88048 0.0
C985 C 0.39293 0.1127 0.8909 0.0
C986 C 0.38716 0.09711 0.89633 0.0
C987 C 0.37083 0.09454 0.89517 0.0
H988 H 0.8925 0.8733 0.95457 0.0
H989 H 0.86651 0.91632 0.92067 0.0
H990 H 0.8423 0.90071 0.90529 0.0
H991 H 0.87412 0.8516 0.81778 0.0
H992 H 0.87429 0.83328 0.86825 0.0
H993 H 0.88901 0.84785 0.88633 0.0
H994 H 0.8818 0.84806 0.02656 0.0
H995 H 0.86731 0.83316 0.00931 0.0
H996 H 0.86186 0.85129 0.05373 0.0
H997 H 0.82123 0.87949 0.88025 0.0
H998 H 0.80535 0.85532 0.86312 0.0
H999 H 0.84614 0.82704 0.91051 0.0
C1000 C 0.88167 0.87953 0.94586 0.0
C1001 C 0.88143 0.89606 0.93911 0.0
C1002 C 0.86698 0.90368 0.92709 0.0
C1003 C 0.85319 0.89489 0.91754 0.0
C1004 C 0.85403 0.87852 0.92074 0.0
C1005 C 0.86792 0.87099 0.93602 0.0
C1006 C 0.86611 0.85334 0.93356 0.0
C1007 C 0.8765 0.8461 0.87287 0.0
C1008 C 0.86946 0.84603 0.01036 0.0
C1009 C 0.84908 0.85201 0.91343 0.0
C1010 C 0.8422 0.86658 0.90617 0.0
C1011 C 0.82652 0.86804 0.88649 0.0
C1012 C 0.81761 0.85425 0.87617 0.0
C1013 C 0.82444 0.83924 0.88554 0.0
C1014 C 0.84046 0.83828 0.90317 0.0
H1015 H 0.82297 0.12912 0.62486 0.0
H1016 H 0.85176 0.17032 0.66335 0.0
H1017 H 0.8753 0.15402 0.65666 0.0
H1018 H 0.84793 0.10135 0.73179 0.0
H1019 H 0.84464 0.08546 0.66738 0.0
H1020 H 0.82986 0.10015 0.6809 0.0
H1021 H 0.82977 0.10559 0.53893 0.0
H1022 H 0.84484 0.09121 0.52522 0.0
H1023 H 0.84766 0.1111 0.49319 0.0
H1024 H 0.89563 0.13439 0.63622 0.0
H1025 H 0.91224 0.11111 0.62271 0.0
H1026 H 0.87119 0.08169 0.59789 0.0
C1027 C 0.83422 0.13456 0.63421 0.0
C1028 C 0.83554 0.151 0.64506 0.0
C1029 C 0.85048 0.15777 0.65519 0.0
C1030 C 0.86393 0.14863 0.65102 0.0
C1031 C 0.86232 0.13266 0.63679 0.0
C1032 C 0.84791 0.12553 0.63004 0.0
C1033 C 0.84974 0.10808 0.61412 0.0
C1034 C 0.84262 0.09817 0.67732 0.0
C1035 C 0.84257 0.10375 0.53835 0.0
C1036 C 0.8674 0.10664 0.61248 0.0
C1037 C 0.87431 0.12107 0.62517 0.0
C1038 C 0.89039 0.12299 0.62677 0.0
C1039 C 0.89972 0.1097 0.61853 0.0
C1040 C 0.89303 0.09461 0.60885 0.0
C1041 C 0.87663 0.09311 0.60383 0.0
H1042 H 0.59611 0.08081 0.37967 0.0
H1043 H 0.55933 0.11324 0.43912 0.0
H1044 H 0.57752 0.13545 0.42451 0.0
H1045 H 0.62923 0.1041 0.46645 0.0
H1046 H 0.6423 0.09916 0.3916 0.0
H1047 H 0.62724 0.08553 0.41923 0.0
H1048 H 0.61713 0.08493 0.28342 0.0
H1049 H 0.63192 0.09876 0.25559 0.0
H1050 H 0.61169 0.10306 0.23841 0.0
H1051 H 0.59767 0.15413 0.38319 0.0
H1052 H 0.61994 0.16859 0.3314 0.0
H1053 H 0.64483 0.12474 0.30093 0.0
C1054 C 0.59212 0.09253 0.39278 0.0
C1055 C 0.57634 0.0953 0.41148 0.0
C1056 C 0.57138 0.11086 0.42542 0.0
C1057 C 0.58162 0.12356 0.41709 0.0
C1058 C 0.59686 0.12055 0.39506 0.0
C1059 C 0.60225 0.10544 0.38437 0.0
C1060 C 0.61888 0.10571 0.35501 0.0
C1061 C 0.63008 0.09818 0.41145 0.0
C1062 C 0.61995 0.09764 0.27858 0.0
C1063 C 0.62172 0.12329 0.34845 0.0
C1064 C 0.60882 0.13156 0.37216 0.0
C1065 C 0.60799 0.14783 0.36617 0.0
C1066 C 0.62072 0.15594 0.3361 0.0
C1067 C 0.63428 0.14786 0.31283 0.0
C1068 C 0.63476 0.13128 0.31937 0.0
H1069 H 0.57098 0.87722 0.09735 0.0
H1070 H 0.59803 0.92031 0.08484 0.0
H1071 H 0.62217 0.90507 0.10397 0.0
H1072 H 0.59253 0.85896 0.23988 0.0
H1073 H 0.59121 0.83948 0.2013 0.0
H1074 H 0.57613 0.85359 0.18247 0.0
H1075 H 0.58003 0.85002 0.04036 0.0
H1076 H 0.59489 0.83564 0.05875 0.0
H1077 H 0.5992 0.85245 0.00099 0.0
H1078 H 0.64326 0.88508 0.13451 0.0
H1079 H 0.65978 0.86173 0.155 0.0
H1080 H 0.61874 0.8319 0.14482 0.0
C1081 C 0.58199 0.88346 0.09739 0.0
C1082 C 0.58256 0.9 0.0896 0.0
C1083 C 0.59725 0.90766 0.09007 0.0
C1084 C 0.61104 0.89911 0.10158 0.0
C1085 C 0.60996 0.88289 0.11177 0.0
C1086 C 0.59582 0.87512 0.10822 0.0
C1087 C 0.59777 0.85763 0.12046 0.0
C1088 C 0.58888 0.8521 0.19018 0.0
C1089 C 0.59268 0.84839 0.051 0.0
C1090 C 0.6152 0.85675 0.13215 0.0
C1091 C 0.62204 0.87144 0.12765 0.0
C1092 C 0.63802 0.87351 0.13757 0.0
C1093 C 0.64731 0.86018 0.1499 0.0
C1094 C 0.6406 0.84493 0.15153 0.0
C1095 C 0.62427 0.84335 0.14387 0.0
H1096 H 0.57724 0.60904 0.55962 0.0
H1097 H 0.60275 0.56532 0.57917 0.0
H1098 H 0.62703 0.58036 0.60184 0.0
H1099 H 0.60849 0.63217 0.4704 0.0
H1100 H 0.60313 0.64964 0.52064 0.0
H1101 H 0.58852 0.63525 0.49732 0.0
H1102 H 0.58088 0.63341 0.63677 0.0
H1103 H 0.59576 0.64745 0.66086 0.0
H1104 H 0.59551 0.62839 0.7048 0.0
H1105 H 0.64815 0.60071 0.6359 0.0
H1106 H 0.66444 0.62422 0.66089 0.0
H1107 H 0.62429 0.65395 0.62137 0.0
C1108 C 0.58798 0.60257 0.56665 0.0
C1109 C 0.58805 0.58597 0.56735 0.0
C1110 C 0.6024 0.57803 0.5774 0.0
C1111 C 0.61623 0.58649 0.59111 0.0
C1112 C 0.61554 0.60286 0.59401 0.0
C1113 C 0.6018 0.61078 0.58051 0.0
C1114 C 0.60384 0.62833 0.58926 0.0
C1115 C 0.60082 0.63685 0.51498 0.0
C1116 C 0.59338 0.63476 0.65163 0.0
C1117 C 0.62084 0.62911 0.61091 0.0
C1118 C 0.62746 0.61435 0.61356 0.0
C1119 C 0.64307 0.61231 0.63333 0.0
C1120 C 0.6522 0.62573 0.6482 0.0
C1121 C 0.64569 0.64099 0.64315 0.0
C1122 C 0.62971 0.64252 0.62571 0.0
H1123 H 0.57822 0.38229 0.89423 0.0
H1124 H 0.60653 0.42452 0.88227 0.0
H1125 H 0.62998 0.40822 0.86206 0.0
H1126 H 0.60721 0.3581 0.99144 0.0
H1127 H 0.60149 0.34062 0.94179 0.0
H1128 H 0.58741 0.35577 0.95977 0.0
H1129 H 0.58138 0.35725 0.81842 0.0
H1130 H 0.59573 0.34241 0.79978 0.0
H1131 H 0.59697 0.3612 0.75371 0.0
H1132 H 0.64998 0.387 0.83068 0.0
H1133 H 0.66539 0.36274 0.81298 0.0
H1134 H 0.62377 0.33475 0.8496 0.0
C1135 C 0.5894 0.38812 0.88892 0.0
C1136 C 0.59054 0.40469 0.88996 0.0
C1137 C 0.60538 0.41184 0.88258 0.0
C1138 C 0.61874 0.40268 0.87026 0.0
C1139 C 0.61708 0.38639 0.86648 0.0
C1140 C 0.60281 0.37918 0.87746 0.0
C1141 C 0.60404 0.3615 0.87118 0.0
C1142 C 0.5998 0.35353 0.94547 0.0
C1143 C 0.59393 0.35523 0.80695 0.0
C1144 C 0.6212 0.35984 0.85396 0.0
C1145 C 0.62853 0.3743 0.85062 0.0
C1146 C 0.64436 0.37562 0.8339 0.0
C1147 C 0.65299 0.36179 0.82308 0.0
C1148 C 0.6458 0.34685 0.82987 0.0
C1149 C 0.62963 0.34599 0.84413 0.0
H1150 H 0.83553 0.35478 0.12147 0.0
H1151 H 0.85924 0.31243 0.19296 0.0
H1152 H 0.88424 0.32666 0.19285 0.0
H1153 H 0.86375 0.36709 -0.00451 0.0
H1154 H 0.86249 0.38785 0.01393 0.0
H1155 H 0.84585 0.37537 0.02995 0.0
H1156 H 0.84433 0.38465 0.16691 0.0
H1157 H 0.86077 0.39744 0.15097 0.0
H1158 H 0.86132 0.38324 0.22555 0.0
H1159 H 0.90667 0.34371 0.16925 0.0
H1160 H 0.92587 0.36392 0.13821 0.0
H1161 H 0.88861 0.39639 0.0823 0.0
C1162 C 0.84592 0.34874 0.13999 0.0
C1163 C 0.84545 0.33255 0.15836 0.0
C1164 C 0.85934 0.32485 0.17954 0.0
C1165 C 0.8736 0.33282 0.17934 0.0
C1166 C 0.87382 0.34854 0.15776 0.0
C1167 C 0.86039 0.35657 0.13964 0.0
C1168 C 0.86425 0.37322 0.11406 0.0
C1169 C 0.85876 0.37604 0.03358 0.0
C1170 C 0.85725 0.38536 0.16758 0.0
C1171 C 0.88194 0.37306 0.11898 0.0
C1172 C 0.88708 0.35865 0.14439 0.0
C1173 C 0.9028 0.35516 0.1506 0.0
C1174 C 0.91365 0.36678 0.13222 0.0
C1175 C 0.90887 0.38193 0.10808 0.0
C1176 C 0.89271 0.38502 0.10079 0.0
H1177 H 0.85209 0.6405 0.37631 0.0
H1178 H 0.80825 0.61521 0.36053 0.0
H1179 H 0.82224 0.59019 0.38339 0.0
H1180 H 0.87585 0.61197 0.2861 0.0
H1181 H 0.89228 0.61572 0.34606 0.0
H1182 H 0.87851 0.63109 0.32723 0.0
H1183 H 0.87432 0.63454 0.46936 0.0
H1184 H 0.88779 0.61887 0.48849 0.0
H1185 H 0.86824 0.61793 0.52476 0.0
H1186 H 0.84179 0.56774 0.4094 0.0
H1187 H 0.86478 0.55036 0.41985 0.0
H1188 H 0.89494 0.59132 0.42352 0.0
C1189 C 0.84534 0.62974 0.377 0.0
C1190 C 0.82902 0.62988 0.36648 0.0
C1191 C 0.82076 0.61543 0.36784 0.0
C1192 C 0.8286 0.60118 0.38158 0.0
C1193 C 0.84467 0.6016 0.39417 0.0
C1194 C 0.8529 0.61556 0.39114 0.0
C1195 C 0.87007 0.61309 0.40508 0.0
C1196 C 0.87974 0.61827 0.33707 0.0
C1197 C 0.87541 0.62162 0.47615 0.0
C1198 C 0.87037 0.59549 0.41548 0.0
C1199 C 0.85565 0.58899 0.40981 0.0
C1200 C 0.85333 0.57276 0.41431 0.0
C1201 C 0.86647 0.56297 0.42113 0.0
C1202 C 0.8817 0.56945 0.4228 0.0
C1203 C 0.88348 0.58596 0.42293 0.0
H1204 H 0.37552 0.39394 0.38553 0.0
H1205 H 0.41533 0.36269 0.39571 0.0
H1206 H 0.3979 0.33988 0.3833 0.0
H1207 H 0.34871 0.36808 0.48995 0.0
H1208 H 0.33213 0.37333 0.43359 0.0
H1209 H 0.34771 0.38725 0.44741 0.0
H1210 H 0.3507 0.38989 0.30436 0.0
H1211 H 0.33539 0.37568 0.29013 0.0
H1212 H 0.35431 0.37258 0.24936 0.0
H1213 H 0.37681 0.32056 0.36275 0.0
H1214 H 0.35253 0.30526 0.35232 0.0
H1215 H 0.32577 0.34844 0.35533 0.0
C1216 C 0.38051 0.38228 0.387 0.0
C1217 C 0.39683 0.38013 0.3917 0.0
C1218 C 0.4029 0.36467 0.39209 0.0
C1219 C 0.3931 0.35161 0.38468 0.0
C1220 C 0.37718 0.35413 0.37703 0.0
C1221 C 0.37083 0.36902 0.37944 0.0
C1222 C 0.35325 0.36827 0.36974 0.0
C1223 C 0.34496 0.3746 0.43932 0.0
C1224 C 0.34812 0.37714 0.2992 0.0
C1225 C 0.3508 0.35067 0.36134 0.0
C1226 C 0.36483 0.34282 0.36521 0.0
C1227 C 0.36573 0.32655 0.35994 0.0
C1228 C 0.35187 0.31796 0.3536 0.0
C1229 C 0.33724 0.32562 0.35262 0.0
C1230 C 0.33676 0.34225 0.3546 0.0
H1231 H 0.39104 0.59611 0.11052 0.0
H1232 H 0.36464 0.55269 0.09825 0.0
H1233 H 0.34008 0.56778 0.1095 0.0
H1234 H 0.36791 0.61524 0.24399 0.0
H1235 H 0.36957 0.6344 0.20172 0.0
H1236 H 0.38489 0.62025 0.18977 0.0
H1237 H 0.38253 0.62261 0.04618 0.0
H1238 H 0.36745 0.63704 0.0577 0.0
H1239 H 0.36383 0.61974 0.00252 0.0
H1240 H 0.31839 0.58807 0.13217 0.0
H1241 H 0.30167 0.61169 0.14325 0.0
H1242 H 0.34279 0.64133 0.13587 0.0
C1243 C 0.38008 0.58977 0.10915 0.0
C1244 C 0.37973 0.57322 0.10357 0.0
C1245 C 0.36516 0.56537 0.10175 0.0
C1246 C 0.35118 0.57385 0.10887 0.0
C1247 C 0.352 0.59015 0.11676 0.0
C1248 C 0.3661 0.59801 0.11521 0.0
C1249 C 0.36398 0.61555 0.1232 0.0
C1250 C 0.37207 0.62171 0.19388 0.0
C1251 C 0.36978 0.62424 0.05323 0.0
C1252 C 0.34646 0.6164 0.13021 0.0
C1253 C 0.33969 0.60166 0.12734 0.0
C1254 C 0.3236 0.59966 0.1339 0.0
C1255 C 0.31419 0.61311 0.14097 0.0
C1256 C 0.32093 0.62832 0.14042 0.0
C1257 C 0.33729 0.62985 0.13633 0.0
H1258 H 0.13874 0.62066 0.85887 0.0
H1259 H 0.10873 0.66114 0.83138 0.0
H1260 H 0.08569 0.64384 0.83209 0.0
H1261 H 0.11469 0.59306 0.74468 0.0
H1262 H 0.11852 0.57667 0.80567 0.0
H1263 H 0.13281 0.59208 0.79525 0.0
H1264 H 0.13278 0.596 0.93822 0.0
H1265 H 0.11818 0.58091 0.94892 0.0
H1266 H 0.11474 0.60033 0.98509 0.0
H1267 H 0.06596 0.62309 0.8468 0.0
H1268 H 0.05015 0.59901 0.85598 0.0
H1269 H 0.09218 0.57111 0.87508 0.0
C1270 C 0.12734 0.62575 0.85017 0.0
C1271 C 0.1255 0.64224 0.84394 0.0
C1272 C 0.11038 0.64856 0.83533 0.0
C1273 C 0.09722 0.63883 0.83627 0.0
C1274 C 0.09933 0.62276 0.84607 0.0
C1275 C 0.11396 0.61615 0.85142 0.0
C1276 C 0.11271 0.59848 0.86366 0.0
C1277 C 0.12012 0.58954 0.79842 0.0
C1278 C 0.12004 0.59365 0.93842 0.0
C1279 C 0.09512 0.59631 0.86498 0.0
C1280 C 0.08773 0.61057 0.85512 0.0
C1281 C 0.07159 0.61183 0.85402 0.0
C1282 C 0.06271 0.59809 0.85983 0.0
C1283 C 0.06991 0.58321 0.86678 0.0
C1284 C 0.08635 0.58235 0.87128 0.0
H1285 H 0.13636 0.32846 0.61196 0.0
H1286 H 0.17724 0.35714 0.65565 0.0
H1287 H 0.16121 0.38108 0.64287 0.0
H1288 H 0.12021 0.35226 0.47324 0.0
H1289 H 0.10026 0.34924 0.50121 0.0
H1290 H 0.11458 0.33436 0.52003 0.0
H1291 H 0.10785 0.33508 0.6607 0.0
H1292 H 0.09327 0.34973 0.64212 0.0
H1293 H 0.10837 0.35356 0.70952 0.0
H1294 H 0.14081 0.40208 0.61418 0.0
H1295 H 0.11738 0.41799 0.58752 0.0
H1296 H 0.09022 0.3752 0.56321 0.0
C1297 C 0.14194 0.33974 0.62034 0.0
C1298 C 0.15811 0.34085 0.6349 0.0
C1299 C 0.16488 0.35592 0.64508 0.0
C1300 C 0.15588 0.36961 0.63735 0.0
C1301 C 0.1401 0.36806 0.62005 0.0
C1302 C 0.13316 0.35347 0.61304 0.0
C1303 C 0.11609 0.35491 0.59317 0.0
C1304 C 0.11259 0.34724 0.51742 0.0
C1305 C 0.10579 0.34791 0.65507 0.0
C1306 C 0.1145 0.37258 0.58904 0.0
C1307 C 0.12846 0.38001 0.60441 0.0
C1308 C 0.1298 0.39636 0.60266 0.0
C1309 C 0.11644 0.4053 0.58684 0.0
C1310 C 0.1019 0.3979 0.57323 0.0
C1311 C 0.1011 0.38129 0.5734 0.0
H1312 H 0.17779 0.19827 0.91219 0.0
H1313 H 0.21733 0.21103 0.05009 0.0
H1314 H 0.21842 0.23708 0.98759 0.0
H1315 H 0.19079 0.21771 0.74396 0.0
H1316 H 0.17133 0.22336 0.71771 0.0
H1317 H 0.17438 0.20582 0.77188 0.0
H1318 H 0.15538 0.2163 0.87221 0.0
H1319 H 0.15249 0.23401 0.81901 0.0
H1320 H 0.15904 0.23516 0.91428 0.0
H1321 H 0.21395 0.26236 0.91276 0.0
H1322 H 0.20663 0.28316 0.82361 0.0
H1323 H 0.16987 0.25326 0.73621 0.0
C1324 C 0.18677 0.20649 0.92911 0.0
C1325 C 0.19742 0.20268 0.98634 0.0
C1326 C 0.20909 0.2137 0.0062 0.0
C1327 C 0.2097 0.22855 0.9714 0.0
C1328 C 0.1986 0.23208 0.91682 0.0
C1329 C 0.18752 0.22123 0.89517 0.0
C1330 C 0.17696 0.22768 0.835 0.0
C1331 C 0.17846 0.21808 0.76287 0.0
C1332 C 0.15996 0.22833 0.86176 0.0
C1333 C 0.18374 0.24398 0.82591 0.0
C1334 C 0.19615 0.24636 0.87382 0.0
C1335 C 0.2043 0.26054 0.8749 0.0
C1336 C 0.19997 0.27234 0.82415 0.0
C1337 C 0.18763 0.2699 0.77258 0.0
C1338 C 0.17925 0.2556 0.775 0.0
H1339 H 0.97088 0.9076 0.03728 0.0
H1340 H 0.9371 0.94057 0.12462 0.0
H1341 H 0.95653 0.95005 0.21569 0.0
H1342 H -0.00924 0.89882 0.21507 0.0
H1343 H 0.0096 0.89801 0.17104 0.0
H1344 H -0.0076 0.89258 0.11949 0.0
H1345 H -0.00037 0.91297 0.01762 0.0
H1346 H 0.01669 0.91865 0.06935 0.0
H1347 H 0.00251 0.93323 0.04331 0.0
H1348 H 0.98047 0.95737 0.29096 0.0
H1349 H 0.0065 0.96079 0.34832 0.0
H1350 H 0.02461 0.92394 0.20635 0.0
C1351 C 0.9674 0.91645 0.07709 0.0
C1352 C 0.95241 0.9232 0.07439 0.0
C1353 C 0.94849 0.93513 0.12606 0.0
C1354 C 0.95945 0.94063 0.17788 0.0
C1355 C 0.97432 0.93413 0.17718 0.0
C1356 C 0.97825 0.92221 0.12851 0.0
C1357 C -0.00472 0.91792 0.13564 0.0
C1358 C -0.00289 0.90082 0.16189 0.0
C1359 C 0.00403 0.92087 0.06212 0.0
C1360 C 0.00034 0.92937 0.19532 0.0
C1361 C -0.01189 0.93858 0.21898 0.0
C1362 C -0.00988 0.95014 0.27319 0.0
C1363 C 0.00496 0.95208 0.30506 0.0
C1364 C 0.01757 0.94255 0.28232 0.0
C1365 C 0.01518 0.93125 0.22592 0.0
H1366 H 0.28276 0.69778 0.3245 0.0
H1367 H 0.32933 0.70685 0.24014 0.0
H1368 H 0.33179 0.72937 0.32539 0.0
H1369 H 0.27125 0.73641 0.33171 0.0
H1370 H 0.25997 0.73495 0.41614 0.0
H1371 H 0.26256 0.71792 0.35838 0.0
H1372 H 0.27393 0.70245 0.46986 0.0
H1373 H 0.27117 0.71934 0.52865 0.0
H1374 H 0.29015 0.71051 0.52114 0.0
H1375 H 0.32802 0.75258 0.40443 0.0
H1376 H 0.31902 0.77474 0.47935 0.0
H1377 H 0.27475 0.75111 0.51595 0.0
C1378 C 0.29368 0.70418 0.32572 0.0
C1379 C 0.30593 0.70047 0.27601 0.0
C1380 C 0.31985 0.70941 0.27789 0.0
C1381 C 0.32135 0.72222 0.32619 0.0
C1382 C 0.30886 0.7259 0.37237 0.0
C1383 C 0.29533 0.71708 0.37331 0.0
C1384 C 0.28318 0.72443 0.42374 0.0
C1385 C 0.26837 0.72868 0.37983 0.0
C1386 C 0.27939 0.71353 0.48977 0.0
C1387 C 0.29185 0.73903 0.44909 0.0
C1388 C 0.30667 0.73948 0.41911 0.0
C1389 C 0.3166 0.75219 0.42979 0.0
C1390 C 0.31133 0.76475 0.47275 0.0
C1391 C 0.29628 0.76457 0.50516 0.0
C1392 C 0.2864 0.75149 0.49296 0.0
H1393 H 0.49404 0.07363 0.51317 0.0
H1394 H 0.52586 0.038 0.5953 0.0
H1395 H 0.50591 0.02897 0.68459 0.0
H1396 H 0.47611 0.08256 0.69347 0.0
H1397 H 0.45717 0.08541 0.65244 0.0
H1398 H 0.47444 0.08962 0.59904 0.0
H1399 H 0.46475 0.07071 0.49577 0.0
H1400 H 0.44759 0.06623 0.54937 0.0
H1401 H 0.46022 0.05061 0.5193 0.0
H1402 H 0.48134 0.02248 0.75897 0.0
H1403 H 0.45544 0.02112 0.81997 0.0
H1404 H 0.4403 0.0611 0.68872 0.0
C1405 C 0.49698 0.06414 0.55086 0.0
C1406 C 0.51157 0.05656 0.54682 0.0
C1407 C 0.5148 0.04406 0.59705 0.0
C1408 C 0.5035 0.03879 0.64794 0.0
C1409 C 0.48905 0.04618 0.6485 0.0
C1410 C 0.48588 0.05876 0.60204 0.0
C1411 C 0.46939 0.06452 0.61236 0.0
C1412 C 0.46928 0.08153 0.64106 0.0
C1413 C 0.45994 0.06291 0.5399 0.0
C1414 C 0.4637 0.05314 0.67126 0.0
C1415 C 0.47514 0.04259 0.69142 0.0
C1416 C 0.47235 0.03078 0.74398 0.0
C1417 C 0.45758 0.03 0.77791 0.0
C1418 C 0.4459 0.04103 0.75928 0.0
C1419 C 0.44903 0.05258 0.70462 0.0
H1420 H 0.17663 0.70272 0.69223 0.0
H1421 H 0.14537 0.72708 0.84306 0.0
H1422 H 0.14986 0.75164 0.77443 0.0
H1423 H 0.20429 0.73396 0.67016 0.0
H1424 H 0.20762 0.73068 0.5723 0.0
H1425 H 0.20195 0.71455 0.63168 0.0
H1426 H 0.17838 0.70863 0.54622 0.0
H1427 H 0.1841 0.72458 0.48593 0.0
H1428 H 0.16476 0.72407 0.52479 0.0
H1429 H 0.15786 0.77354 0.69442 0.0
H1430 H 0.16699 0.79168 0.59728 0.0
H1431 H 0.19311 0.75402 0.49371 0.0
C1432 C 0.17059 0.71318 0.71029 0.0
C1433 C 0.1606 0.71288 0.77331 0.0
C1434 C 0.15299 0.72688 0.79505 0.0
C1435 C 0.15554 0.74097 0.75665 0.0
C1436 C 0.16567 0.74092 0.69617 0.0
C1437 C 0.17292 0.72742 0.67211 0.0
C1438 C 0.18302 0.73078 0.60418 0.0
C1439 C 0.20024 0.72728 0.6206 0.0
C1440 C 0.17721 0.72146 0.53626 0.0
C1441 C 0.18029 0.7483 0.59426 0.0
C1442 C 0.1703 0.7538 0.64861 0.0
C1443 C 0.16566 0.76939 0.65147 0.0
C1444 C 0.17095 0.77961 0.59604 0.0
C1445 C 0.18079 0.77428 0.53814 0.0
C1446 C 0.1858 0.75846 0.53798 0.0
H1447 H 0.44221 0.92367 0.78568 0.0
H1448 H 0.46055 0.96061 0.6434 0.0
H1449 H 0.48662 0.95699 0.69974 0.0
H1450 H 0.4636 0.93425 0.94722 0.0
H1451 H 0.46643 0.91428 0.97778 0.0
H1452 H 0.44964 0.91926 0.9227 0.0
H1453 H 0.45728 0.89795 0.82652 0.0
H1454 H 0.47424 0.89307 0.88094 0.0
H1455 H 0.47632 0.89855 0.78439 0.0
H1456 H 0.51041 0.94978 0.77419 0.0
H1457 H 0.52943 0.94176 0.86968 0.0
H1458 H 0.49535 0.90962 0.96429 0.0
C1459 C 0.45173 0.93093 0.76595 0.0
C1460 C 0.44939 0.94237 0.70987 0.0
C1461 C 0.46208 0.95181 0.68643 0.0
C1462 C 0.47695 0.94974 0.71764 0.0
C1463 C 0.47887 0.93821 0.77228 0.0
C1464 C 0.46656 0.92909 0.79677 0.0
C1465 C 0.47145 0.91822 0.85943 0.0
C1466 C 0.46224 0.92172 0.931 0.0
C1467 C 0.46972 0.90092 0.83641 0.0
C1468 C 0.48842 0.9228 0.86731 0.0
C1469 C 0.49252 0.93419 0.81579 0.0
C1470 C 0.50736 0.94081 0.81447 0.0
C1471 C 0.5181 0.93612 0.86893 0.0
C1472 C 0.51394 0.92498 0.92452 0.0
C1473 C 0.49902 0.91793 0.92197 0.0
H1474 H 0.28563 0.19362 0.09578 0.0
H1475 H 0.2498 0.21311 0.9529 0.0
H1476 H 0.25238 0.23869 0.01797 0.0
H1477 H 0.27468 0.2149 0.26538 0.0
H1478 H 0.29468 0.21709 0.2942 0.0
H1479 H 0.28886 0.20032 0.2398 0.0
H1480 H 0.31005 0.20727 0.14223 0.0
H1481 H 0.31572 0.22425 0.1954 0.0
H1482 H 0.31003 0.22643 0.09925 0.0
H1483 H 0.26109 0.2629 0.09204 0.0
H1484 H 0.27227 0.28242 0.17839 0.0
H1485 H 0.30207 0.24644 0.27332 0.0
C1486 C 0.2781 0.20319 0.07901 0.0
C1487 C 0.26752 0.20141 0.01931 0.0
C1488 C 0.25788 0.21418 -0.00104 0.0
C1489 C 0.25939 0.22878 0.03521 0.0
C1490 C 0.27044 0.23028 0.09201 0.0
C1491 C 0.2794 0.21769 0.11467 0.0
C1492 C 0.29059 0.22225 0.17618 0.0
C1493 C 0.28698 0.2131 0.24815 0.0
C1494 C 0.3076 0.21991 0.15177 0.0
C1495 C 0.28677 0.23949 0.18423 0.0
C1496 C 0.27518 0.24395 0.13504 0.0
C1497 C 0.27002 0.25944 0.13131 0.0
C1498 C 0.27653 0.27048 0.18052 0.0
C1499 C 0.28803 0.26602 0.23335 0.0
C1500 C 0.29332 0.25031 0.23395 0.0
H1501 H 0.0061 0.0329 0.23898 0.0
H1502 H 0.04019 0.06464 0.33545 0.0
H1503 H 0.02142 0.07229 0.43193 0.0
H1504 H 0.97353 0.05778 0.26469 0.0
H1505 H 0.9599 0.04246 0.28903 0.0
H1506 H 0.97629 0.03813 0.23008 0.0
H1507 H 0.9851 0.01619 0.32091 0.0
H1508 H 0.96857 0.02028 0.37938 0.0
H1509 H -0.01206 0.02074 0.41802 0.0
H1510 H -0.00092 0.078 0.51239 0.0
H1511 H 0.97444 0.07976 0.58154 0.0
H1512 H 0.95396 0.0447 0.43518 0.0
C1513 C 0.00967 0.0411 0.28177 0.0
C1514 C 0.02462 0.04809 0.28037 0.0
C1515 C 0.02879 0.05912 0.3359 0.0
C1516 C 0.01822 0.06358 0.3908 0.0
C1517 C 0.00342 0.05697 0.3895 0.0
C1518 C -0.0009 0.04584 0.33728 0.0
C1519 C 0.98218 0.04107 0.34808 0.0
C1520 C 0.9724 0.04511 0.27884 0.0
C1521 C 0.98088 0.02353 0.36779 0.0
C1522 C 0.97778 0.05136 0.4139 0.0
C1523 C -0.00975 0.06042 0.43651 0.0
C1524 C -0.0108 0.0709 0.49568 0.0
C1525 C 0.97511 0.07187 0.53443 0.0
C1526 C 0.9622 0.06241 0.51398 0.0
C1527 C 0.96354 0.0522 0.45198 0.0
H1528 H 0.80354 0.77165 0.05401 0.0
H1529 H 0.76617 0.75262 0.91834 0.0
H1530 H 0.77181 0.72603 0.96737 0.0
H1531 H 0.83016 0.73861 0.03527 0.0
H1532 H 0.83689 0.74011 0.13014 0.0
H1533 H 0.83045 0.75742 0.08119 0.0
H1534 H 0.81045 0.76314 0.18581 0.0
H1535 H 0.81701 0.74603 0.23543 0.0
H1536 H 0.79669 0.74809 0.21229 0.0
H1537 H 0.78074 0.70183 0.03662 0.0
H1538 H 0.79036 0.68257 0.12851 0.0
H1539 H 0.82242 0.71751 0.21568 0.0
C1540 C 0.79664 0.76189 0.03384 0.0
C1541 C 0.78448 0.76419 0.98192 0.0
C1542 C 0.77552 0.75113 0.95821 0.0
C1543 C 0.77874 0.73597 0.98521 0.0
C1544 C 0.79099 0.7341 0.03556 0.0
C1545 C 0.79971 0.74674 0.05998 0.0
C1546 C 0.8116 0.74181 0.11769 0.0
C1547 C 0.82827 0.74466 0.08935 0.0
C1548 C 0.80876 0.75026 0.19219 0.0
C1549 C 0.80801 0.72444 0.12333 0.0
C1550 C 0.79621 0.72017 0.07486 0.0
C1551 C 0.7901 0.70499 0.07408 0.0
C1552 C 0.79571 0.6941 0.1263 0.0
C1553 C 0.80729 0.69846 0.17879 0.0
C1554 C 0.81388 0.71366 0.17511 0.0
H1555 H -0.00994 0.06578 0.00879 0.0
H1556 H 0.02643 0.03844 0.903 0.0
H1557 H 0.00722 0.02775 0.8142 0.0
H1558 H 0.96007 0.03651 -0.00575 0.0
H1559 H 0.94478 0.05042 0.97535 0.0
H1560 H 0.96142 0.05623 0.03003 0.0
H1561 H 0.96693 0.07931 0.93899 0.0
H1562 H 0.95014 0.07371 0.88495 0.0
H1563 H 0.96892 0.07536 0.84083 0.0
H1564 H 0.98386 0.02006 0.73574 0.0
H1565 H 0.95866 0.0177 0.66934 0.0
H1566 H 0.93757 0.04906 0.83013 0.0
C1567 C -0.00596 0.0577 0.96642 0.0
C1568 C 0.00979 0.05303 0.96289 0.0
C1569 C 0.01443 0.04224 0.90698 0.0
C1570 C 0.00359 0.03603 0.85637 0.0
C1571 C -0.0119 0.04061 0.86247 0.0
C1572 C 0.98334 0.05128 0.9158 0.0
C1573 C 0.96602 0.05431 0.91032 0.0
C1574 C 0.95758 0.04905 0.98174 0.0
C1575 C 0.96282 0.0717 0.8927 0.0
C1576 C 0.96182 0.04385 0.84513 0.0
C1577 C 0.97467 0.03597 0.8184 0.0
C1578 C 0.97369 0.0261 0.7565 0.0
C1579 C 0.9593 0.02471 0.71949 0.0
C1580 C 0.94616 0.03319 0.74449 0.0
C1581 C 0.94741 0.04245 0.80951 0.0
H1582 H 0.6856 0.27468 0.64759 0.0
H1583 H 0.63829 0.26802 0.72711 0.0
H1584 H 0.63543 0.24495 0.64544 0.0
H1585 H 0.67871 0.26119 0.45281 0.0
H1586 H 0.69729 0.25148 0.44793 0.0
H1587 H 0.69503 0.26868 0.50518 0.0
H1588 H 0.70516 0.25309 0.61919 0.0
H1589 H 0.70728 0.23579 0.56272 0.0
H1590 H 0.69556 0.23507 0.64593 0.0
H1591 H 0.6384 0.22134 0.5667 0.0
H1592 H 0.64653 0.19888 0.49088 0.0
H1593 H 0.69214 0.22017 0.46058 0.0
C1594 C 0.67448 0.26865 0.64612 0.0
C1595 C 0.66209 0.27327 0.69332 0.0
C1596 C 0.6479 0.26477 0.69126 0.0
C1597 C 0.64616 0.25165 0.64501 0.0
C1598 C 0.65873 0.24712 0.60106 0.0
C1599 C 0.67259 0.2554 0.60058 0.0
C1600 C 0.68461 0.24731 0.55192 0.0
C1601 C 0.68917 0.25779 0.48552 0.0
C1602 C 0.699 0.24253 0.5977 0.0
C1603 C 0.67543 0.233 0.52658 0.0
C1604 C 0.6605 0.23327 0.55531 0.0
C1605 C 0.64997 0.22111 0.5429 0.0
C1606 C 0.65474 0.20836 0.49961 0.0
C1607 C 0.66994 0.20777 0.46886 0.0
C1608 C 0.68042 0.22031 0.48272 0.0
H1609 H 0.46523 0.90835 0.47174 0.0
H1610 H 0.43029 0.93833 0.37004 0.0
H1611 H 0.44892 0.94575 0.27194 0.0
H1612 H 0.49616 0.93329 0.44806 0.0
H1613 H 0.5105 0.91859 0.42629 0.0
H1614 H 0.49386 0.91349 0.48225 0.0
H1615 H 0.48643 0.89132 0.39008 0.0
H1616 H 0.50325 0.89613 0.33439 0.0
H1617 H 0.48418 0.89584 0.29249 0.0
H1618 H 0.47238 0.95323 0.19714 0.0
H1619 H 0.49836 0.95774 0.14154 0.0
H1620 H 0.51788 0.92232 0.28823 0.0
C1621 C 0.4613 0.91601 0.42733 0.0
C1622 C 0.44626 0.92271 0.42878 0.0
C1623 C 0.44173 0.93299 0.37031 0.0
C1624 C 0.45224 0.93731 0.31422 0.0
C1625 C 0.46721 0.93111 0.31656 0.0
C1626 C 0.47166 0.92042 0.3706 0.0
C1627 C 0.48875 0.91632 0.36318 0.0
C1628 C 0.49785 0.92069 0.43415 0.0
C1629 C 0.49077 0.89887 0.34387 0.0
C1630 C 0.4933 0.92677 0.29827 0.0
C1631 C 0.4807 0.9352 0.27211 0.0
C1632 C 0.48227 0.94647 0.21608 0.0
C1633 C 0.49708 0.94905 0.18532 0.0
C1634 C 0.51008 0.94032 0.21036 0.0
C1635 C 0.50809 0.92902 0.26735 0.0
H1636 H 0.81412 0.25323 0.2346 0.0
H1637 H 0.78059 0.2874 0.31392 0.0
H1638 H 0.77011 0.26776 0.40211 0.0
H1639 H 0.78909 0.22009 0.24098 0.0
H1640 H 0.80394 0.20669 0.27225 0.0
H1641 H 0.8092 0.2236 0.21726 0.0
H1642 H 0.82848 0.23268 0.31992 0.0
H1643 H 0.82344 0.21566 0.37471 0.0
H1644 H 0.8216 0.23501 0.41411 0.0
H1645 H 0.76249 0.24357 0.47895 0.0
H1646 H 0.76035 0.21796 0.54472 0.0
H1647 H 0.79891 0.20021 0.41411 0.0
C1648 C 0.80471 0.2567 0.27107 0.0
C1649 C 0.79823 0.27192 0.26704 0.0
C1650 C 0.78584 0.27586 0.31585 0.0
C1651 C 0.77973 0.26475 0.36602 0.0
C1652 C 0.78615 0.24974 0.36713 0.0
C1653 C 0.7985 0.2458 0.32153 0.0
C1654 C 0.80337 0.22892 0.33337 0.0
C1655 C 0.80127 0.21926 0.2617 0.0
C1656 C 0.82022 0.22802 0.36226 0.0
C1657 C 0.79183 0.22394 0.39258 0.0
C1658 C 0.78189 0.23603 0.41124 0.0
C1659 C 0.77025 0.23405 0.46485 0.0
C1660 C 0.76903 0.21944 0.50152 0.0
C1661 C 0.77947 0.20713 0.4846 0.0
C1662 C 0.79079 0.20942 0.42854 0.0
H1663 H 0.46804 0.07487 0.0111 0.0
H1664 H 0.43601 0.0391 0.09199 0.0
H1665 H 0.45567 0.03035 0.18294 0.0
H1666 H 0.50185 0.05224 0.02057 0.0
H1667 H 0.5144 0.06792 0.05171 0.0
H1668 H 0.49741 0.07232 -0.00316 0.0
H1669 H 0.48744 0.09114 0.09947 0.0
H1670 H 0.50454 0.087 0.1542 0.0
H1671 H 0.48546 0.08404 0.19372 0.0
H1672 H 0.47993 0.02378 0.25727 0.0
H1673 H 0.50575 0.02211 0.31854 0.0
H1674 H 0.5214 0.06255 0.19119 0.0
C1675 C 0.465 0.06542 0.04893 0.0
C1676 C 0.45043 0.05771 0.044 0.0
C1677 C 0.44704 0.04528 0.09446 0.0
C1678 C 0.45817 0.04015 0.1463 0.0
C1679 C 0.4726 0.04766 0.14777 0.0
C1680 C 0.47592 0.06022 0.10135 0.0
C1681 C 0.49241 0.06607 0.11301 0.0
C1682 C 0.50208 0.06454 0.04126 0.0
C1683 C 0.49246 0.08307 0.14183 0.0
C1684 C 0.49791 0.0547 0.17232 0.0
C1685 C 0.48637 0.04411 0.1915 0.0
C1686 C 0.48899 0.03214 0.24329 0.0
C1687 C 0.50372 0.03119 0.27736 0.0
C1688 C 0.51553 0.04223 0.25982 0.0
C1689 C 0.51254 0.05402 0.20623 0.0
H1690 H 0.66629 0.78077 0.96264 0.0
H1691 H 0.70367 0.76353 0.10318 0.0
H1692 H 0.70072 0.73712 0.0474 0.0
H1693 H 0.64244 0.74514 0.96225 0.0
H1694 H 0.6371 0.74731 0.86564 0.0
H1695 H 0.64121 0.76444 0.92116 0.0
H1696 H 0.66217 0.77339 0.82601 0.0
H1697 H 0.65798 0.75641 0.76991 0.0
H1698 H 0.6776 0.76007 0.8013 0.0
H1699 H 0.69435 0.713 0.97296 0.0
H1700 H 0.68743 0.69383 0.87591 0.0
H1701 H 0.65463 0.72709 0.78112 0.0
C1702 C 0.67375 0.77139 0.98223 0.0
C1703 C 0.68515 0.77413 0.03751 0.0
C1704 C 0.69488 0.76166 0.06077 0.0
C1705 C 0.69319 0.74661 0.0299 0.0
C1706 C 0.68177 0.74429 0.97566 0.0
C1707 C 0.67234 0.75639 0.95141 0.0
C1708 C 0.66187 0.75117 0.88813 0.0
C1709 C 0.64463 0.75207 0.91067 0.0
C1710 C 0.66511 0.76083 0.81716 0.0
C1711 C 0.66707 0.73429 0.87952 0.0
C1712 C 0.67835 0.73048 0.93146 0.0
C1713 C 0.68547 0.71582 0.93232 0.0
C1714 C 0.6814 0.70498 0.87691 0.0
C1715 C 0.67044 0.70891 0.82067 0.0
C1716 C 0.66285 0.72361 0.82375 0.0
H1717 H 0.01964 0.93778 0.58214 0.0
H1718 H 0.0104 0.89021 0.50687 0.0
H1719 H -0.01233 0.88877 0.59033 0.0
H1720 H 0.00606 0.93211 0.77916 0.0
H1721 H -0.00249 0.95141 0.78231 0.0
H1722 H 0.01445 0.94794 0.7255 0.0
H1723 H -0.00032 0.95869 0.61061 0.0
H1724 H 0.98261 0.96196 0.66652 0.0
H1725 H 0.98135 0.94993 0.58423 0.0
H1726 H 0.96436 0.89354 0.66585 0.0
H1727 H 0.94233 0.90331 0.73819 0.0
H1728 H 0.96613 0.94795 0.76939 0.0
C1729 C 0.01316 0.92686 0.58522 0.0
C1730 C 0.01689 0.91402 0.53845 0.0
C1731 C 0.00783 0.90013 0.54243 0.0
C1732 C -0.00511 0.89921 0.58966 0.0
C1733 C -0.00882 0.91227 0.63271 0.0
C1734 C 0.00011 0.92578 0.63185 0.0
C1735 C -0.00726 0.93852 0.67938 0.0
C1736 C 0.00332 0.94274 0.74553 0.0
C1737 C -0.01113 0.95313 0.63235 0.0
C1738 C 0.97806 0.93017 0.70526 0.0
C1739 C 0.97754 0.91501 0.67779 0.0
C1740 C 0.9648 0.90523 0.68935 0.0
C1741 C 0.95232 0.91094 0.73092 0.0
C1742 C 0.95259 0.9263 0.76142 0.0
C1743 C 0.96566 0.93608 0.74796 0.0
H1744 H 0.6543 0.75855 0.28558 0.0
H1745 H 0.6858 0.79372 0.37566 0.0
H1746 H 0.6947 0.77478 0.47038 0.0
H1747 H 0.64462 0.73934 0.46706 0.0
H1748 H 0.64413 0.72013 0.42509 0.0
H1749 H 0.63877 0.73715 0.37115 0.0
H1750 H 0.65935 0.72968 0.27195 0.0
H1751 H 0.665 0.71283 0.32613 0.0
H1752 H 0.67938 0.72727 0.29966 0.0
H1753 H 0.70274 0.7509 0.54463 0.0
H1754 H 0.70705 0.72469 0.60122 0.0
H1755 H 0.67013 0.70544 0.46347 0.0
C1756 C 0.66266 0.76247 0.32676 0.0
C1757 C 0.66929 0.77767 0.32303 0.0
C1758 C 0.68049 0.78217 0.37724 0.0
C1759 C 0.68567 0.77147 0.4313 0.0
C1760 C 0.67945 0.75635 0.43109 0.0
C1761 C 0.66797 0.75194 0.38115 0.0
C1762 C 0.66385 0.73473 0.38985 0.0
C1763 C 0.64683 0.73272 0.41479 0.0
C1764 C 0.6671 0.7256 0.31761 0.0
C1765 C 0.67505 0.73007 0.45115 0.0
C1766 C 0.68395 0.74268 0.47435 0.0
C1767 C 0.69565 0.74099 0.52776 0.0
C1768 C 0.69811 0.72605 0.55915 0.0
C1769 C 0.68887 0.71307 0.5371 0.0
C1770 C 0.67726 0.71518 0.4822 0.0
H1771 H 0.47772 0.40862 0.50109 0.0
H1772 H 0.44095 0.43819 0.58897 0.0
H1773 H 0.45915 0.44883 0.6822 0.0
H1774 H 0.49662 0.4004 0.6824 0.0
H1775 H 0.51584 0.40093 0.64226 0.0
H1776 H 0.49949 0.39462 0.58684 0.0
H1777 H 0.50633 0.41578 0.48796 0.0
H1778 H 0.52253 0.42232 0.54354 0.0
H1779 H 0.50772 0.43608 0.51559 0.0
H1780 H 0.48209 0.45833 0.75761 0.0
H1781 H 0.50744 0.46378 0.81819 0.0
H1782 H 0.52895 0.42762 0.68334 0.0
C1783 C 0.47336 0.41703 0.54107 0.0
C1784 C 0.45786 0.42253 0.53734 0.0
C1785 C 0.45274 0.43373 0.59039 0.0
C1786 C 0.46301 0.4399 0.64363 0.0
C1787 C 0.47835 0.43465 0.64388 0.0
C1788 C 0.48344 0.42327 0.59488 0.0
C1789 C 0.50064 0.42002 0.60529 0.0
C1790 C 0.5033 0.40298 0.63073 0.0
C1791 C 0.50984 0.42378 0.53385 0.0
C1792 C 0.50446 0.43156 0.66678 0.0
C1793 C 0.49147 0.43992 0.6882 0.0
C1794 C 0.49231 0.4517 0.74198 0.0
C1795 C 0.50676 0.4548 0.77566 0.0
C1796 C 0.52013 0.44608 0.75569 0.0
C1797 C 0.5189 0.43438 0.70027 0.0
H1798 H 0.80632 0.28636 0.91186 0.0
H1799 H 0.7657 0.27323 0.04159 0.0
H1800 H 0.76515 0.24733 0.97882 0.0
H1801 H 0.794 0.26761 0.74065 0.0
H1802 H 0.81351 0.26189 0.71584 0.0
H1803 H 0.8104 0.27924 0.77093 0.0
H1804 H 0.8289 0.26818 0.87237 0.0
H1805 H 0.83187 0.25067 0.81812 0.0
H1806 H 0.82493 0.24917 0.91264 0.0
H1807 H 0.77008 0.22238 0.90606 0.0
H1808 H 0.77767 0.20172 0.81764 0.0
H1809 H 0.81455 0.23183 0.73232 0.0
C1810 C 0.79723 0.27808 0.92665 0.0
C1811 C 0.78606 0.28174 0.98154 0.0
C1812 C 0.77429 0.27067 -0.0008 0.0
C1813 C 0.77398 0.25591 0.96433 0.0
C1814 C 0.78542 0.25255 0.91156 0.0
C1815 C 0.79665 0.26344 0.89188 0.0
C1816 C 0.80739 0.25714 0.83225 0.0
C1817 C 0.80625 0.26706 0.76068 0.0
C1818 C 0.82427 0.25624 0.86057 0.0
C1819 C 0.8005 0.24094 0.82141 0.0
C1820 C 0.78796 0.23844 0.86828 0.0
C1821 C 0.7798 0.22428 0.86873 0.0
C1822 C 0.78427 0.21257 0.81833 0.0
C1823 C 0.79667 0.21514 0.76738 0.0
C1824 C 0.80503 0.22945 0.7703 0.0
H1825 H 0.9585 0.51547 0.22284 0.0
H1826 H 0.92586 0.55129 0.15089 0.0
H1827 H 0.94456 0.56056 0.05709 0.0
H1828 H -0.00722 0.53947 0.20438 0.0
H1829 H 0.00506 0.52398 0.16981 0.0
H1830 H -0.01107 0.51935 0.23019 0.0
H1831 H 0.97789 0.50012 0.13173 0.0
H1832 H -0.00592 0.50457 0.07145 0.0
H1833 H 0.97443 0.50701 0.03812 0.0
H1834 H 0.96639 0.56649 0.97283 0.0
H1835 H -0.00959 0.5681 0.89814 0.0
H1836 H 0.00977 0.52914 0.02435 0.0
C1837 C 0.95527 0.52509 0.18648 0.0
C1838 C 0.94072 0.53264 0.19399 0.0
C1839 C 0.93696 0.54536 0.14625 0.0
C1840 C 0.9475 0.55074 0.09275 0.0
C1841 C 0.96185 0.54336 0.08763 0.0
C1842 C 0.96581 0.53078 0.13271 0.0
C1843 C 0.98223 0.52528 0.11572 0.0
C1844 C -0.00712 0.52713 0.1841 0.0
C1845 C 0.98215 0.50823 0.08756 0.0
C1846 C -0.01327 0.53673 0.0542 0.0
C1847 C 0.97475 0.54703 0.03911 0.0
C1848 C 0.97591 0.55852 0.984 0.0
C1849 C -0.01039 0.55937 0.94196 0.0
C1850 C 0.00202 0.54884 0.95547 0.0
C1851 C 0.00058 0.5375 0.01315 0.0
H1852 H 0.6732 0.28557 0.02804 0.0
H1853 H 0.70841 0.26456 0.88676 0.0
H1854 H 0.70467 0.23916 0.95163 0.0
H1855 H 0.68315 0.2644 0.19663 0.0
H1856 H 0.66317 0.26254 0.22612 0.0
H1857 H 0.6691 0.27908 0.17008 0.0
H1858 H 0.64779 0.27213 0.07309 0.0
H1859 H 0.64191 0.25546 0.12841 0.0
H1860 H 0.64744 0.25279 0.03244 0.0
H1861 H 0.69639 0.21598 0.02876 0.0
H1862 H 0.68562 0.19692 0.11837 0.0
H1863 H 0.65557 0.23313 0.20894 0.0
C1864 C 0.68017 0.27565 0.01079 0.0
C1865 C 0.69104 0.277 0.95206 0.0
C1866 C 0.70006 0.26379 0.93179 0.0
C1867 C 0.69795 0.24931 0.96801 0.0
C1868 C 0.68684 0.24831 0.02446 0.0
C1869 C 0.67821 0.26116 0.04627 0.0
C1870 C 0.66703 0.25698 0.10848 0.0
C1871 C 0.67084 0.2663 0.17953 0.0
C1872 C 0.65004 0.25949 0.08411 0.0
C1873 C 0.67063 0.2397 0.11808 0.0
C1874 C 0.68207 0.23495 0.06896 0.0
C1875 C 0.68745 0.21957 0.06756 0.0
C1876 C 0.68121 0.20882 0.11873 0.0
C1877 C 0.6697 0.2135 0.17088 0.0
C1878 C 0.66423 0.22913 0.16957 0.0
H1879 H 0.97695 0.45616 0.22106 0.0
H1880 H 0.98222 0.41492 0.08291 0.0
H1881 H 0.00923 0.41204 0.12453 0.0
H1882 H 0.02017 0.46978 0.20416 0.0
H1883 H 0.02033 0.47615 0.29974 0.0
H1884 H 0.00272 0.47764 0.2453 0.0
H1885 H -0.01216 0.46139 0.34499 0.0
H1886 H 0.0053 0.45995 0.39948 0.0
H1887 H -0.00486 0.44235 0.37172 0.0
H1888 H 0.03265 0.40962 0.20076 0.0
H1889 H 0.05098 0.40819 0.3066 0.0
H1890 H 0.03249 0.45167 0.39347 0.0
C1891 C 0.98406 0.44693 0.19761 0.0
C1892 C 0.97747 0.43567 0.1491 0.0
C1893 C -0.01308 0.42351 0.12085 0.0
C1894 C 0.0024 0.42191 0.14348 0.0
C1895 C 0.00843 0.4327 0.19402 0.0
C1896 C -0.00032 0.44516 0.22012 0.0
C1897 C 0.00833 0.45375 0.28176 0.0
C1898 C 0.01317 0.47031 0.25619 0.0
C1899 C -0.00143 0.45438 0.3537 0.0
C1900 C 0.0225 0.44328 0.29061 0.0
C1901 C 0.02255 0.43149 0.23773 0.0
C1902 C 0.03312 0.41909 0.24079 0.0
C1903 C 0.0435 0.41834 0.30092 0.0
C1904 C 0.04338 0.43004 0.35648 0.0
C1905 C 0.03319 0.44296 0.3497 0.0
H1906 H 0.77378 0.71371 0.51037 0.0
H1907 H 0.82139 0.70819 0.4351 0.0
H1908 H 0.82914 0.73177 0.50321 0.0
H1909 H 0.77451 0.75823 0.50442 0.0
H1910 H 0.76248 0.75963 0.58634 0.0
H1911 H 0.76015 0.74327 0.52368 0.0
H1912 H 0.76449 0.724 0.63378 0.0
H1913 H 0.76693 0.74028 0.69633 0.0
H1914 H 0.78197 0.72564 0.68899 0.0
H1915 H 0.83282 0.75291 0.59614 0.0
H1916 H 0.8314 0.77209 0.69937 0.0
H1917 H 0.78127 0.76614 0.70685 0.0
C1918 C 0.78574 0.71772 0.50677 0.0
C1919 C 0.79708 0.70873 0.46913 0.0
C1920 C 0.81261 0.71433 0.46599 0.0
C1921 C 0.8171 0.72796 0.50364 0.0
C1922 C 0.80586 0.73616 0.54306 0.0
C1923 C 0.79041 0.73149 0.54373 0.0
C1924 C 0.7809 0.74199 0.59439 0.0
C1925 C 0.7688 0.75133 0.54951 0.0
C1926 C 0.77312 0.7324 0.65707 0.0
C1927 C 0.79359 0.75269 0.6245 0.0
C1928 C 0.80789 0.74918 0.59378 0.0
C1929 C 0.82163 0.75617 0.61904 0.0
C1930 C 0.82076 0.76697 0.67773 0.0
C1931 C 0.80622 0.77082 0.70948 0.0
C1932 C 0.79247 0.76379 0.68157 0.0
H1933 H 0.50464 0.53205 0.73048 0.0
H1934 H 0.52593 0.57785 0.76398 0.0
H1935 H 0.50336 0.58613 0.83752 0.0
H1936 H 0.46379 0.54563 0.7218 0.0
H1937 H 0.45651 0.52899 0.77356 0.0
H1938 H 0.47358 0.52698 0.71603 0.0
H1939 H 0.48922 0.51675 0.82969 0.0
H1940 H 0.47217 0.51863 0.88709 0.0
H1941 H 0.49 0.52839 0.91342 0.0
H1942 H 0.47986 0.58906 0.91535 0.0
H1943 H 0.45738 0.58573 -0.00063 0.0
H1944 H 0.45092 0.53815 0.91795 0.0
C1945 C 0.50443 0.54388 0.7525 0.0
C1946 C 0.51696 0.55438 0.74004 0.0
C1947 C 0.51637 0.56967 0.77105 0.0
C1948 C 0.50357 0.57452 0.8131 0.0
C1949 C 0.49141 0.56397 0.8241 0.0
C1950 C 0.4917 0.54893 0.79516 0.0
C1951 C 0.4776 0.53957 0.82057 0.0
C1952 C 0.46726 0.53503 0.75401 0.0
C1953 C 0.48255 0.52498 0.86537 0.0
C1954 C 0.46963 0.5516 0.86974 0.0
C1955 C 0.47771 0.56565 0.87006 0.0
C1956 C 0.47328 0.57819 0.91495 0.0
C1957 C 0.4605 0.57619 0.96249 0.0
C1958 C 0.4523 0.56175 0.96489 0.0
C1959 C 0.45672 0.54946 0.91634 0.0
H1960 H 0.30173 0.23045 0.77776 0.0
H1961 H 0.26546 0.19961 0.69281 0.0
H1962 H 0.25738 0.22015 0.60415 0.0
H1963 H 0.28036 0.26625 0.76597 0.0
H1964 H 0.29679 0.27787 0.73588 0.0
H1965 H 0.29981 0.26073 0.79305 0.0
H1966 H 0.31857 0.24921 0.69415 0.0
H1967 H 0.3158 0.26643 0.63733 0.0
H1968 H 0.31203 0.24723 0.59915 0.0
H1969 H 0.25247 0.24475 0.52736 0.0
H1970 H 0.25383 0.26992 0.4576 0.0
H1971 H 0.29369 0.28394 0.59059 0.0
C1972 C 0.29217 0.22795 0.74019 0.0
C1973 C 0.28424 0.21341 0.74271 0.0
C1974 C 0.27179 0.21064 0.69215 0.0
C1975 C 0.26701 0.22228 0.64177 0.0
C1976 C 0.27485 0.23661 0.64203 0.0
C1977 C 0.28733 0.23937 0.68904 0.0
C1978 C 0.29412 0.25557 0.67658 0.0
C1979 C 0.29268 0.2657 0.74707 0.0
C1980 C 0.31113 0.25454 0.65021 0.0
C1981 C 0.28353 0.26146 0.61526 0.0
C1982 C 0.27233 0.25048 0.59662 0.0
C1983 C 0.26126 0.25341 0.54126 0.0
C1984 C 0.26202 0.26775 0.50234 0.0
C1985 C 0.27388 0.27879 0.51866 0.0
C1986 C 0.28452 0.27567 0.57681 0.0
H1987 H 0.49784 0.57273 0.46365 0.0
H1988 H 0.53349 0.54149 0.37895 0.0
H1989 H 0.51474 0.53058 0.28872 0.0
H1990 H 0.46768 0.54539 0.45866 0.0
H1991 H 0.45268 0.55894 0.43068 0.0
H1992 H 0.4693 0.56591 0.48221 0.0
H1993 H 0.47544 0.5862 0.37838 0.0
H1994 H 0.45866 0.57949 0.32701 0.0
H1995 H 0.47757 0.57963 0.28354 0.0
H1996 H 0.49156 0.52141 0.21522 0.0
H1997 H 0.46593 0.51581 0.15839 0.0
H1998 H 0.44518 0.55236 0.29378 0.0
C1999 C 0.50184 0.56401 0.42434 0.0
C2000 C 0.51719 0.55812 0.42778 0.0
C2001 C 0.52183 0.5463 0.37693 0.0
C2002 C 0.51125 0.53998 0.32554 0.0
C2003 C 0.49605 0.54562 0.32549 0.0
C2004 C 0.49137 0.55747 0.37297 0.0
C2005 C 0.4741 0.56067 0.36489 0.0
C2006 C 0.46544 0.55754 0.43848 0.0
C2007 C 0.47128 0.5775 0.33677 0.0
C2008 C 0.46979 0.54865 0.30625 0.0
C2009 C 0.48262 0.54012 0.28403 0.0
C2010 C 0.48145 0.52811 0.23166 0.0
C2011 C 0.46681 0.52494 0.20007 0.0
C2012 C 0.45354 0.53372 0.2211 0.0
C2013 C 0.45511 0.54559 0.2756 0.0
H2014 H 0.17724 0.76698 0.16633 0.0
H2015 H 0.1502 0.74461 0.3419 0.0
H2016 H 0.15448 0.71893 0.28402 0.0
H2017 H 0.16242 0.7415 0.01723 0.0
H2018 H 0.1807 0.74111 0.96804 0.0
H2019 H 0.17562 0.75797 0.02326 0.0
H2020 H 0.20139 0.75503 0.09671 0.0
H2021 H 0.20641 0.73795 0.04281 0.0
H2022 H 0.20564 0.73672 0.14301 0.0
H2023 H 0.16232 0.69576 0.21361 0.0
H2024 H 0.16916 0.67612 0.11912 0.0
H2025 H 0.19035 0.71249 0.98273 0.0
C2026 C 0.17207 0.75668 0.19196 0.0
C2027 C 0.16338 0.75788 0.25892 0.0
C2028 C 0.15676 0.74412 0.29045 0.0
C2029 C 0.15929 0.7294 0.25845 0.0
C2030 C 0.16827 0.72857 0.19416 0.0
C2031 C 0.17423 0.7418 0.15978 0.0
C2032 C 0.18279 0.73744 0.08852 0.0
C2033 C 0.17491 0.74495 0.02023 0.0
C2034 C 0.20008 0.74206 0.09308 0.0
C2035 C 0.18073 0.71967 0.08889 0.0
C2036 C 0.17251 0.71493 0.15131 0.0
C2037 C 0.16873 0.69928 0.16444 0.0
C2038 C 0.17276 0.68821 0.1107 0.0
C2039 C 0.18044 0.69276 0.04433 0.0
C2040 C 0.18487 0.70865 0.03397 0.0
H2041 H 0.03151 0.41388 0.70404 0.0
H2042 H 0.01653 0.45898 0.6175 0.0
H2043 H -0.00957 0.45463 0.67297 0.0
H2044 H -0.00635 0.39272 0.68881 0.0
H2045 H -0.00318 0.38259 0.77576 0.0
H2046 H 0.01317 0.38799 0.71804 0.0
H2047 H 0.0256 0.40301 0.82885 0.0
H2048 H 0.00941 0.39755 0.88671 0.0
H2049 H 0.01448 0.41798 0.8755 0.0
H2050 H 0.96699 0.44645 0.74906 0.0
H2051 H 0.94979 0.43711 0.84965 0.0
H2052 H 0.98081 0.3978 0.88945 0.0
C2053 C 0.02262 0.42267 0.69484 0.0
C2054 C 0.02595 0.43668 0.65564 0.0
C2055 C 0.01416 0.44811 0.64693 0.0
C2056 C -0.00071 0.44568 0.67775 0.0
C2057 C -0.00354 0.43177 0.71706 0.0
C2058 C 0.00787 0.42051 0.72594 0.0
C2059 C 0.00273 0.4076 0.7786 0.0
C2060 C 0.00152 0.39179 0.73784 0.0
C2061 C 0.0137 0.40649 0.8464 0.0
C2062 C -0.01317 0.41359 0.80037 0.0
C2063 C 0.98322 0.42732 0.76285 0.0
C2064 C 0.96964 0.43562 0.77807 0.0
C2065 C 0.9599 0.43017 0.83542 0.0
C2066 C 0.96396 0.41672 0.87802 0.0
C2067 C 0.97726 0.40801 0.85769 0.0
H2068 H 0.2959 0.69211 0.94466 0.0
H2069 H 0.26105 0.7125 0.08994 0.0
H2070 H 0.26628 0.73864 0.03502 0.0
H2071 H 0.32324 0.72438 0.95228 0.0
H2072 H 0.32881 0.72264 0.85585 0.0
H2073 H 0.3224 0.70554 0.90681 0.0
H2074 H 0.30102 0.70026 0.80781 0.0
H2075 H 0.30752 0.71718 0.75608 0.0
H2076 H 0.28745 0.71563 0.78459 0.0
H2077 H 0.27512 0.76241 0.96328 0.0
H2078 H 0.285 0.78168 0.87169 0.0
H2079 H 0.31478 0.74591 0.77617 0.0
C2080 C 0.28941 0.70207 0.96528 0.0
C2081 C 0.27814 0.70027 0.02203 0.0
C2082 C 0.26971 0.71358 0.0464 0.0
C2083 C 0.2727 0.72849 0.016 0.0
C2084 C 0.28417 0.72989 0.96142 0.0
C2085 C 0.29229 0.71702 0.93579 0.0
C2086 C 0.30365 0.7216 0.8749 0.0
C2087 C 0.32053 0.71834 0.89893 0.0
C2088 C 0.29966 0.71317 0.80151 0.0
C2089 C 0.30055 0.73906 0.86964 0.0
C2090 C 0.28935 0.74362 0.92043 0.0
C2091 C 0.28394 0.75901 0.92354 0.0
C2092 C 0.2897 0.76988 0.87155 0.0
C2093 C 0.30081 0.76534 0.81741 0.0
C2094 C 0.30659 0.74983 0.81801 0.0
H2095 H 0.97197 0.55224 0.46671 0.0
H2096 H 0.93877 0.51957 0.56406 0.0
H2097 H 0.95915 0.5096 0.64843 0.0
H2098 H 0.00471 0.52624 0.47203 0.0
H2099 H 0.01863 0.54132 0.4956 0.0
H2100 H 0.00144 0.54625 0.44301 0.0
H2101 H -0.00609 0.56712 0.54157 0.0
H2102 H 0.01122 0.56244 0.59358 0.0
H2103 H -0.00755 0.56142 0.63814 0.0
H2104 H 0.98288 0.50328 0.72377 0.0
H2105 H 0.00818 0.50243 0.7896 0.0
H2106 H 0.0262 0.53826 0.64003 0.0
C2107 C 0.9689 0.5432 0.50667 0.0
C2108 C 0.95372 0.53674 0.50878 0.0
C2109 C 0.95029 0.52473 0.56128 0.0
C2110 C 0.96178 0.51895 0.60944 0.0
C2111 C 0.97667 0.5253 0.60481 0.0
C2112 C 0.98026 0.53723 0.55522 0.0
C2113 C -0.00277 0.54195 0.56173 0.0
C2114 C 0.00602 0.53874 0.48875 0.0
C2115 C -0.00121 0.55926 0.58517 0.0
C2116 C 0.0025 0.53096 0.62327 0.0
C2117 C -0.00951 0.52138 0.64712 0.0
C2118 C -0.00758 0.51068 0.70539 0.0
C2119 C 0.00686 0.51018 0.74209 0.0
C2120 C 0.01913 0.52035 0.72037 0.0
C2121 C 0.017 0.53044 0.6585 0.0
H2122 H 0.18293 0.28138 0.41489 0.0
H2123 H 0.22006 0.26056 0.54569 0.0
H2124 H 0.21511 0.23493 0.48487 0.0
H2125 H 0.15691 0.24835 0.41485 0.0
H2126 H 0.15073 0.25125 0.31982 0.0
H2127 H 0.15692 0.2678 0.37491 0.0
H2128 H 0.17757 0.27511 0.27525 0.0
H2129 H 0.17128 0.25874 0.2194 0.0
H2130 H 0.19145 0.26054 0.24597 0.0
H2131 H 0.20544 0.21147 0.41213 0.0
H2132 H 0.19473 0.19289 0.32061 0.0
H2133 H 0.16471 0.22954 0.23288 0.0
C2134 C 0.19003 0.27142 0.43073 0.0
C2135 C 0.2018 0.27288 0.48532 0.0
C2136 C 0.211 0.25967 0.50388 0.0
C2137 C 0.20818 0.24506 0.47009 0.0
C2138 C 0.19626 0.24397 0.41744 0.0
C2139 C 0.18753 0.25687 0.39691 0.0
C2140 C 0.17596 0.25281 0.33616 0.0
C2141 C 0.15913 0.25519 0.36307 0.0
C2142 C 0.17927 0.26236 0.26499 0.0
C2143 C 0.17953 0.23558 0.32539 0.0
C2144 C 0.1911 0.23065 0.37365 0.0
C2145 C 0.19644 0.21524 0.37387 0.0
C2146 C 0.1902 0.20474 0.32165 0.0
C2147 C 0.17889 0.20973 0.26891 0.0
C2148 C 0.17327 0.22529 0.27235 0.0
H2149 H 0.44851 0.41953 0.17255 0.0
H2150 H 0.46323 0.45674 0.32165 0.0
H2151 H 0.4895 0.45639 0.26437 0.0
H2152 H 0.48425 0.39796 0.16929 0.0
H2153 H 0.48291 0.39322 0.07168 0.0
H2154 H 0.46545 0.39618 0.12536 0.0
H2155 H 0.45636 0.41769 0.03264 0.0
H2156 H 0.47363 0.41458 0.97803 0.0
H2157 H 0.46914 0.43396 0.01182 0.0
H2158 H 0.51431 0.45123 0.19281 0.0
H2159 H 0.53454 0.44483 0.10049 0.0
H2160 H 0.50297 0.41181 -0.00565 0.0
C2161 C 0.45726 0.42765 0.19298 0.0
C2162 C 0.45391 0.43815 0.25156 0.0
C2163 C 0.46557 0.44869 0.27643 0.0
C2164 C 0.48053 0.44845 0.24476 0.0
C2165 C 0.48352 0.4377 0.18794 0.0
C2166 C 0.47211 0.4277 0.16139 0.0
C2167 C 0.47802 0.41784 0.09732 0.0
C2168 C 0.47763 0.40026 0.11713 0.0
C2169 C 0.46874 0.42123 0.02572 0.0
C2170 C 0.49457 0.42386 0.09162 0.0
C2171 C 0.49759 0.43513 0.14514 0.0
C2172 C 0.51203 0.44252 0.15037 0.0
C2173 C 0.52345 0.43877 0.09763 0.0
C2174 C 0.52032 0.42793 0.03952 0.0
C2175 C 0.50581 0.42006 0.03817 0.0
loop_
_geom_bond_atom_site_label_1
_geom_bond_atom_site_label_2
_geom_bond_distance
_geom_bond_site_symmetry_2
_ccdc_geom_bond_type
Mg0 O1 2.028 . S
Mg0 O7 1.986 . S
Mg0 O9 2.114 . S
Mg0 O10 2.251 . S
Mg0 O13 2.010 . S
O1 Mg0 2.028 . S
O1 C4 1.250 . S
O2 Mg3 2.028 . S
O2 C4 1.248 . S
Mg3 O2 2.028 . S
Mg3 O8 2.032 . S
Mg3 O10 2.079 . S
C4 O1 1.250 . S
C4 O2 1.248 . S
C5 O6 1.264 . S
C5 O13 1.249 . S
O6 C5 1.264 . S
O7 Mg0 1.986 . S
O7 C11 1.246 . S
O8 Mg3 2.032 . S
O8 C11 1.259 . S
O9 Mg0 2.114 . S
O9 C12 1.252 . S
O10 Mg0 2.251 . S
O10 Mg3 2.079 . S
O10 C12 1.273 . S
C11 O7 1.246 . S
C11 O8 1.259 . S
C12 O9 1.252 . S
C12 O10 1.273 . S
O13 Mg0 2.010 . S
O13 C5 1.249 . S
Mg14 O15 2.028 . S
Mg14 O21 1.986 . S
Mg14 O23 2.114 . S
Mg14 O24 2.251 . S
Mg14 O27 2.010 . S
O15 Mg14 2.028 . S
O15 C18 1.250 . S
O16 Mg17 2.028 . S
O16 C18 1.248 . S
Mg17 O16 2.028 . S
Mg17 O22 2.032 . S
Mg17 O24 2.079 . S
C18 O15 1.250 . S
C18 O16 1.248 . S
C19 O20 1.264 . S
C19 O27 1.249 . S
O20 C19 1.264 . S
O21 Mg14 1.986 . S
O21 C25 1.246 . S
O22 Mg17 2.032 . S
O22 C25 1.259 . S
O23 Mg14 2.114 . S
O23 C26 1.252 . S
O24 Mg14 2.251 . S
O24 Mg17 2.079 . S
O24 C26 1.273 . S
C25 O21 1.246 . S
C25 O22 1.259 . S
C26 O23 1.252 . S
C26 O24 1.273 . S
O27 Mg14 2.010 . S
O27 C19 1.249 . S
Mg28 O29 2.028 . S
Mg28 O35 1.986 . S
Mg28 O37 2.114 . S
Mg28 O38 2.251 . S
Mg28 O41 2.010 . S
O29 Mg28 2.028 . S
O29 C32 1.250 . S
O30 Mg31 2.028 . S
O30 C32 1.248 . S
Mg31 O30 2.028 . S
Mg31 O36 2.032 . S
Mg31 O38 2.079 . S
C32 O29 1.250 . S
C32 O30 1.248 . S
C33 O34 1.264 . S
C33 O41 1.249 . S
O34 C33 1.264 . S
O35 Mg28 1.986 . S
O35 C39 1.246 . S
O36 Mg31 2.032 . S
O36 C39 1.259 . S
O37 Mg28 2.114 . S
O37 C40 1.252 . S
O38 Mg28 2.251 . S
O38 Mg31 2.079 . S
O38 C40 1.273 . S
C39 O35 1.246 . S
C39 O36 1.259 . S
C40 O37 1.252 . S
C40 O38 1.273 . S
O41 Mg28 2.010 . S
O41 C33 1.249 . S
Mg42 O43 2.028 1_556 S
Mg42 O49 1.986 . S
Mg42 O51 2.114 . S
Mg42 O52 2.251 . S
Mg42 O55 2.010 1_556 S
O43 Mg42 2.028 1_554 S
O43 C46 1.250 . S
O44 Mg45 2.028 1_554 S
O44 C46 1.248 . S
Mg45 O44 2.028 1_556 S
Mg45 O50 2.032 . S
Mg45 O52 2.079 . S
C46 O43 1.250 . S
C46 O44 1.248 . S
C47 O48 1.265 1_554 S
C47 O55 1.249 . S
O48 C47 1.265 1_556 S
O49 Mg42 1.986 . S
O49 C53 1.246 . S
O50 Mg45 2.032 . S
O50 C53 1.259 . S
O51 Mg42 2.114 . S
O51 C54 1.252 . S
O52 Mg42 2.251 . S
O52 Mg45 2.079 . S
O52 C54 1.273 . S
C53 O49 1.246 . S
C53 O50 1.259 . S
C54 O51 1.252 . S
C54 O52 1.273 . S
O55 Mg42 2.010 1_554 S
O55 C47 1.249 . S
Mg56 O57 2.028 . S
Mg56 O63 1.986 . S
Mg56 O65 2.114 . S
Mg56 O66 2.251 . S
Mg56 O69 2.010 . S
O57 Mg56 2.028 . S
O57 C60 1.250 . S
O58 Mg59 2.028 . S
O58 C60 1.248 . S
Mg59 O58 2.028 . S
Mg59 O64 2.032 . S
Mg59 O66 2.079 . S
C60 O57 1.250 . S
C60 O58 1.248 . S
C61 O62 1.264 . S
C61 O69 1.249 . S
O62 C61 1.264 . S
O63 Mg56 1.986 . S
O63 C67 1.246 . S
O64 Mg59 2.032 . S
O64 C67 1.259 . S
O65 Mg56 2.114 . S
O65 C68 1.252 . S
O66 Mg56 2.251 . S
O66 Mg59 2.079 . S
O66 C68 1.273 . S
C67 O63 1.246 . S
C67 O64 1.259 . S
C68 O65 1.252 . S
C68 O66 1.273 . S
O69 Mg56 2.010 . S
O69 C61 1.249 . S
Mg70 O71 2.028 . S
Mg70 O77 1.986 . S
Mg70 O79 2.114 . S
Mg70 O80 2.251 . S
Mg70 O83 2.010 . S
O71 Mg70 2.028 . S
O71 C74 1.250 . S
O72 Mg73 2.028 . S
O72 C74 1.248 . S
Mg73 O72 2.028 . S
Mg73 O78 2.032 . S
Mg73 O80 2.079 . S
C74 O71 1.250 . S
C74 O72 1.248 . S
C75 O76 1.264 . S
C75 O83 1.249 . S
O76 C75 1.264 . S
O77 Mg70 1.986 . S
O77 C81 1.246 . S
O78 Mg73 2.032 . S
O78 C81 1.259 . S
O79 Mg70 2.114 . S
O79 C82 1.252 . S
O80 Mg70 2.251 . S
O80 Mg73 2.079 . S
O80 C82 1.273 . S
C81 O77 1.246 . S
C81 O78 1.259 . S
C82 O79 1.252 . S
C82 O80 1.273 . S
O83 Mg70 2.010 . S
O83 C75 1.249 . S
Mg84 O85 2.028 . S
Mg84 O91 1.986 . S
Mg84 O93 2.114 . S
Mg84 O94 2.251 . S
Mg84 O97 2.010 . S
O85 Mg84 2.028 . S
O85 C88 1.250 . S
O86 Mg87 2.028 . S
O86 C88 1.248 . S
Mg87 O86 2.028 . S
Mg87 O92 2.032 . S
Mg87 O94 2.079 . S
C88 O85 1.250 . S
C88 O86 1.248 . S
C89 O90 1.264 . S
C89 O97 1.249 . S
O90 C89 1.264 . S
O91 Mg84 1.986 . S
O91 C95 1.246 . S
O92 Mg87 2.032 . S
O92 C95 1.259 . S
O93 Mg84 2.114 . S
O93 C96 1.252 . S
O94 Mg84 2.251 . S
O94 Mg87 2.079 . S
O94 C96 1.273 . S
C95 O91 1.246 . S
C95 O92 1.259 . S
C96 O93 1.252 . S
C96 O94 1.273 . S
O97 Mg84 2.010 . S
O97 C89 1.249 . S
Mg98 O99 2.028 1_554 S
Mg98 O105 1.986 . S
Mg98 O107 2.114 . S
Mg98 O108 2.251 . S
Mg98 O111 2.010 1_554 S
O99 Mg98 2.028 1_556 S
O99 C102 1.250 . S
O100 Mg101 2.028 1_556 S
O100 C102 1.248 . S
Mg101 O100 2.028 1_554 S
Mg101 O106 2.032 . S
Mg101 O108 2.079 . S
C102 O99 1.250 . S
C102 O100 1.248 . S
C103 O104 1.265 1_556 S
C103 O111 1.249 . S
O104 C103 1.265 1_554 S
O105 Mg98 1.986 . S
O105 C109 1.246 . S
O106 Mg101 2.032 . S
O106 C109 1.259 . S
O107 Mg98 2.114 . S
O107 C110 1.252 . S
O108 Mg98 2.251 . S
O108 Mg101 2.079 . S
O108 C110 1.273 . S
C109 O105 1.246 . S
C109 O106 1.259 . S
C110 O107 1.252 . S
C110 O108 1.273 . S
O111 Mg98 2.010 1_556 S
O111 C103 1.249 . S
Mg112 O113 2.028 . S
Mg112 O119 1.986 . S
Mg112 O121 2.114 . S
Mg112 O122 2.251 . S
Mg112 O125 2.010 . S
O113 Mg112 2.028 . S
O113 C116 1.250 . S
O114 Mg115 2.028 . S
O114 C116 1.248 . S
Mg115 O114 2.028 . S
Mg115 O120 2.032 . S
Mg115 O122 2.079 . S
C116 O113 1.250 . S
C116 O114 1.248 . S
C117 O118 1.264 . S
C117 O125 1.249 . S
O118 C117 1.264 . S
O119 Mg112 1.986 . S
O119 C123 1.246 . S
O120 Mg115 2.032 . S
O120 C123 1.259 . S
O121 Mg112 2.114 . S
O121 C124 1.252 . S
O122 Mg112 2.251 . S
O122 Mg115 2.079 . S
O122 C124 1.273 . S
C123 O119 1.246 . S
C123 O120 1.259 . S
C124 O121 1.252 . S
C124 O122 1.273 . S
O125 Mg112 2.010 . S
O125 C117 1.249 . S
Mg126 O127 2.028 . S
Mg126 O133 1.986 . S
Mg126 O135 2.114 . S
Mg126 O136 2.251 . S
Mg126 O139 2.010 . S
O127 Mg126 2.028 . S
O127 C130 1.250 . S
O128 Mg129 2.028 . S
O128 C130 1.248 . S
Mg129 O128 2.028 . S
Mg129 O134 2.032 . S
Mg129 O136 2.079 . S
C130 O127 1.250 . S
C130 O128 1.248 . S
C131 O132 1.264 . S
C131 O139 1.249 . S
O132 C131 1.264 . S
O133 Mg126 1.986 . S
O133 C137 1.246 . S
O134 Mg129 2.032 . S
O134 C137 1.259 . S
O135 Mg126 2.114 . S
O135 C138 1.252 . S
O136 Mg126 2.251 . S
O136 Mg129 2.079 . S
O136 C138 1.273 . S
C137 O133 1.246 . S
C137 O134 1.259 . S
C138 O135 1.252 . S
C138 O136 1.273 . S
O139 Mg126 2.010 . S
O139 C131 1.249 . S
Mg140 O141 2.028 . S
Mg140 O147 1.986 . S
Mg140 O149 2.114 . S
Mg140 O150 2.251 . S
Mg140 O153 2.010 . S
O141 Mg140 2.028 . S
O141 C144 1.250 . S
O142 Mg143 2.028 . S
O142 C144 1.248 . S
Mg143 O142 2.028 . S
Mg143 O148 2.032 . S
Mg143 O150 2.079 . S
C144 O141 1.250 . S
C144 O142 1.248 . S
C145 O146 1.264 . S
C145 O153 1.249 . S
O146 C145 1.264 . S
O147 Mg140 1.986 . S
O147 C151 1.246 . S
O148 Mg143 2.032 . S
O148 C151 1.259 . S
O149 Mg140 2.114 . S
O149 C152 1.252 . S
O150 Mg140 2.251 . S
O150 Mg143 2.079 . S
O150 C152 1.273 . S
C151 O147 1.246 . S
C151 O148 1.259 . S
C152 O149 1.252 . S
C152 O150 1.273 . S
O153 Mg140 2.010 . S
O153 C145 1.249 . S
Mg154 O155 2.028 1_554 S
Mg154 O161 1.986 . S
Mg154 O163 2.114 . S
Mg154 O164 2.251 . S
Mg154 O167 2.010 1_554 S
O155 Mg154 2.028 1_556 S
O155 C158 1.250 . S
O156 Mg157 2.028 1_556 S
O156 C158 1.248 . S
Mg157 O156 2.028 1_554 S
Mg157 O162 2.032 . S
Mg157 O164 2.079 . S
C158 O155 1.250 . S
C158 O156 1.248 . S
C159 O160 1.265 1_556 S
C159 O167 1.249 . S
O160 C159 1.265 1_554 S
O161 Mg154 1.986 . S
O161 C165 1.246 . S
O162 Mg157 2.032 . S
O162 C165 1.259 . S
O163 Mg154 2.114 . S
O163 C166 1.252 . S
O164 Mg154 2.251 . S
O164 Mg157 2.079 . S
O164 C166 1.273 . S
C165 O161 1.246 . S
C165 O162 1.259 . S
C166 O163 1.252 . S
C166 O164 1.273 . S
O167 Mg154 2.010 1_556 S
O167 C159 1.249 . S
Mg168 O169 2.028 . S
Mg168 O175 1.986 . S
Mg168 O177 2.114 . S
Mg168 O178 2.251 . S
Mg168 O181 2.010 . S
O169 Mg168 2.028 . S
O169 C172 1.250 . S
O170 Mg171 2.028 . S
O170 C172 1.248 . S
Mg171 O170 2.028 . S
Mg171 O176 2.032 . S
Mg171 O178 2.079 . S
C172 O169 1.250 . S
C172 O170 1.248 . S
C173 O174 1.264 . S
C173 O181 1.249 . S
O174 C173 1.264 . S
O175 Mg168 1.986 . S
O175 C179 1.246 . S
O176 Mg171 2.032 . S
O176 C179 1.259 . S
O177 Mg168 2.114 . S
O177 C180 1.252 . S
O178 Mg168 2.251 . S
O178 Mg171 2.079 . S
O178 C180 1.273 . S
C179 O175 1.246 . S
C179 O176 1.259 . S
C180 O177 1.252 . S
C180 O178 1.273 . S
O181 Mg168 2.010 . S
O181 C173 1.249 . S
Mg182 O183 2.028 . S
Mg182 O189 1.986 . S
Mg182 O191 2.114 . S
Mg182 O192 2.251 . S
Mg182 O195 2.010 . S
O183 Mg182 2.028 . S
O183 C186 1.250 . S
O184 Mg185 2.028 . S
O184 C186 1.248 . S
Mg185 O184 2.028 . S
Mg185 O190 2.032 . S
Mg185 O192 2.079 . S
C186 O183 1.250 . S
C186 O184 1.248 . S
C187 O188 1.264 . S
C187 O195 1.249 . S
O188 C187 1.264 . S
O189 Mg182 1.986 . S
O189 C193 1.246 . S
O190 Mg185 2.032 . S
O190 C193 1.259 . S
O191 Mg182 2.114 . S
O191 C194 1.252 . S
O192 Mg182 2.251 . S
O192 Mg185 2.079 . S
O192 C194 1.273 . S
C193 O189 1.246 . S
C193 O190 1.259 . S
C194 O191 1.252 . S
C194 O192 1.273 . S
O195 Mg182 2.010 . S
O195 C187 1.249 . S
Mg196 O197 2.028 . S
Mg196 O203 1.986 . S
Mg196 O205 2.114 . S
Mg196 O206 2.251 . S
Mg196 O209 2.010 . S
O197 Mg196 2.028 . S
O197 C200 1.250 . S
O198 Mg199 2.028 . S
O198 C200 1.248 . S
Mg199 O198 2.028 . S
Mg199 O204 2.032 . S
Mg199 O206 2.079 . S
C200 O197 1.250 . S
C200 O198 1.248 . S
C201 O202 1.264 . S
C201 O209 1.249 . S
O202 C201 1.264 . S
O203 Mg196 1.986 . S
O203 C207 1.246 . S
O204 Mg199 2.032 . S
O204 C207 1.259 . S
O205 Mg196 2.114 . S
O205 C208 1.252 . S
O206 Mg196 2.251 . S
O206 Mg199 2.079 . S
O206 C208 1.273 . S
C207 O203 1.246 . S
C207 O204 1.259 . S
C208 O205 1.252 . S
C208 O206 1.273 . S
O209 Mg196 2.010 . S
O209 C201 1.249 . S
Mg210 O211 2.028 1_556 S
Mg210 O217 1.986 . S
Mg210 O219 2.114 . S
Mg210 O220 2.251 . S
Mg210 O223 2.010 1_556 S
O211 Mg210 2.028 1_554 S
O211 C214 1.250 . S
O212 Mg213 2.028 1_554 S
O212 C214 1.248 . S
Mg213 O212 2.028 1_556 S
Mg213 O218 2.032 . S
Mg213 O220 2.079 . S
C214 O211 1.250 . S
C214 O212 1.248 . S
C215 O216 1.265 1_554 S
C215 O223 1.249 . S
O216 C215 1.265 1_556 S
O217 Mg210 1.986 . S
O217 C221 1.246 . S
O218 Mg213 2.032 . S
O218 C221 1.259 . S
O219 Mg210 2.114 . S
O219 C222 1.252 . S
O220 Mg210 2.251 . S
O220 Mg213 2.079 . S
O220 C222 1.273 . S
C221 O217 1.246 . S
C221 O218 1.259 . S
C222 O219 1.252 . S
C222 O220 1.273 . S
O223 Mg210 2.010 1_554 S
O223 C215 1.249 . S
Mg224 O225 2.028 . S
Mg224 O231 1.986 . S
Mg224 O233 2.114 . S
Mg224 O234 2.251 . S
Mg224 O237 2.010 . S
O225 Mg224 2.028 . S
O225 C228 1.250 . S
O226 Mg227 2.028 . S
O226 C228 1.248 . S
Mg227 O226 2.028 . S
Mg227 O232 2.032 . S
Mg227 O234 2.079 . S
C228 O225 1.250 . S
C228 O226 1.248 . S
C229 O230 1.264 . S
C229 O237 1.249 . S
O230 C229 1.264 . S
O231 Mg224 1.986 . S
O231 C235 1.246 . S
O232 Mg227 2.032 . S
O232 C235 1.259 . S
O233 Mg224 2.114 . S
O233 C236 1.252 . S
O234 Mg224 2.251 . S
O234 Mg227 2.079 . S
O234 C236 1.273 . S
C235 O231 1.246 . S
C235 O232 1.259 . S
C236 O233 1.252 . S
C236 O234 1.273 . S
O237 Mg224 2.010 . S
O237 C229 1.249 . S
Mg238 O239 2.028 1_556 S
Mg238 O245 1.986 . S
Mg238 O247 2.114 . S
Mg238 O248 2.251 . S
Mg238 O251 2.010 1_556 S
O239 Mg238 2.028 1_554 S
O239 C242 1.250 . S
O240 Mg241 2.028 1_554 S
O240 C242 1.248 . S
Mg241 O240 2.028 1_556 S
Mg241 O246 2.032 . S
Mg241 O248 2.079 . S
C242 O239 1.250 . S
C242 O240 1.248 . S
C243 O244 1.265 1_554 S
C243 O251 1.249 . S
O244 C243 1.265 1_556 S
O245 Mg238 1.986 . S
O245 C249 1.246 . S
O246 Mg241 2.032 . S
O246 C249 1.259 . S
O247 Mg238 2.114 . S
O247 C250 1.252 . S
O248 Mg238 2.251 . S
O248 Mg241 2.079 . S
O248 C250 1.273 . S
C249 O245 1.246 . S
C249 O246 1.259 . S
C250 O247 1.252 . S
C250 O248 1.273 . S
O251 Mg238 2.010 1_554 S
O251 C243 1.249 . S
Mg252 O253 2.028 . S
Mg252 O259 1.986 . S
Mg252 O261 2.114 . S
Mg252 O262 2.251 . S
Mg252 O265 2.010 . S
O253 Mg252 2.028 . S
O253 C256 1.250 . S
O254 Mg255 2.028 . S
O254 C256 1.248 . S
Mg255 O254 2.028 . S
Mg255 O260 2.032 . S
Mg255 O262 2.079 . S
C256 O253 1.250 . S
C256 O254 1.248 . S
C257 O258 1.264 . S
C257 O265 1.249 . S
O258 C257 1.264 . S
O259 Mg252 1.986 . S
O259 C263 1.246 . S
O260 Mg255 2.032 . S
O260 C263 1.259 . S
O261 Mg252 2.114 . S
O261 C264 1.252 . S
O262 Mg252 2.251 . S
O262 Mg255 2.079 . S
O262 C264 1.273 . S
C263 O259 1.246 . S
C263 O260 1.259 . S
C264 O261 1.252 . S
C264 O262 1.273 . S
O265 Mg252 2.010 . S
O265 C257 1.249 . S
Mg266 O267 2.028 . S
Mg266 O273 1.986 . S
Mg266 O275 2.114 . S
Mg266 O276 2.251 . S
Mg266 O279 2.010 . S
O267 Mg266 2.028 . S
O267 C270 1.250 . S
O268 Mg269 2.028 . S
O268 C270 1.248 . S
Mg269 O268 2.028 . S
Mg269 O274 2.032 . S
Mg269 O276 2.079 . S
C270 O267 1.250 . S
C270 O268 1.248 . S
C271 O272 1.264 . S
C271 O279 1.249 . S
O272 C271 1.264 . S
O273 Mg266 1.986 . S
O273 C277 1.246 . S
O274 Mg269 2.032 . S
O274 C277 1.259 . S
O275 Mg266 2.114 . S
O275 C278 1.252 . S
O276 Mg266 2.251 . S
O276 Mg269 2.079 . S
O276 C278 1.273 . S
C277 O273 1.246 . S
C277 O274 1.259 . S
C278 O275 1.252 . S
C278 O276 1.273 . S
O279 Mg266 2.010 . S
O279 C271 1.249 . S
Mg280 O281 2.028 . S
Mg280 O287 1.986 . S
Mg280 O289 2.114 . S
Mg280 O290 2.251 . S
Mg280 O293 2.010 . S
O281 Mg280 2.028 . S
O281 C284 1.250 . S
O282 Mg283 2.028 . S
O282 C284 1.248 . S
Mg283 O282 2.028 . S
Mg283 O288 2.032 . S
Mg283 O290 2.079 . S
C284 O281 1.250 . S
C284 O282 1.248 . S
C285 O286 1.264 . S
C285 O293 1.249 . S
O286 C285 1.264 . S
O287 Mg280 1.986 . S
O287 C291 1.246 . S
O288 Mg283 2.032 . S
O288 C291 1.259 . S
O289 Mg280 2.114 . S
O289 C292 1.252 . S
O290 Mg280 2.251 . S
O290 Mg283 2.079 . S
O290 C292 1.273 . S
C291 O287 1.246 . S
C291 O288 1.259 . S
C292 O289 1.252 . S
C292 O290 1.273 . S
O293 Mg280 2.010 . S
O293 C285 1.249 . S
Mg294 O295 2.028 1_554 S
Mg294 O301 1.986 . S
Mg294 O303 2.114 . S
Mg294 O304 2.251 . S
Mg294 O307 2.010 1_554 S
O295 Mg294 2.028 1_556 S
O295 C298 1.250 . S
O296 Mg297 2.028 1_556 S
O296 C298 1.248 . S
Mg297 O296 2.028 1_554 S
Mg297 O302 2.032 . S
Mg297 O304 2.079 . S
C298 O295 1.250 . S
C298 O296 1.248 . S
C299 O300 1.265 1_556 S
C299 O307 1.249 . S
O300 C299 1.265 1_554 S
O301 Mg294 1.986 . S
O301 C305 1.246 . S
O302 Mg297 2.032 . S
O302 C305 1.259 . S
O303 Mg294 2.114 . S
O303 C306 1.252 . S
O304 Mg294 2.251 . S
O304 Mg297 2.079 . S
O304 C306 1.273 . S
C305 O301 1.246 . S
C305 O302 1.259 . S
C306 O303 1.252 . S
C306 O304 1.273 . S
O307 Mg294 2.010 1_556 S
O307 C299 1.249 . S
Mg308 O309 2.028 . S
Mg308 O315 1.986 . S
Mg308 O317 2.114 . S
Mg308 O318 2.251 . S
Mg308 O321 2.010 . S
O309 Mg308 2.028 . S
O309 C312 1.250 . S
O310 Mg311 2.028 . S
O310 C312 1.248 . S
Mg311 O310 2.028 . S
Mg311 O316 2.032 . S
Mg311 O318 2.079 . S
C312 O309 1.250 . S
C312 O310 1.248 . S
C313 O314 1.264 . S
C313 O321 1.249 . S
O314 C313 1.264 . S
O315 Mg308 1.986 . S
O315 C319 1.246 . S
O316 Mg311 2.032 . S
O316 C319 1.259 . S
O317 Mg308 2.114 . S
O317 C320 1.252 . S
O318 Mg308 2.251 . S
O318 Mg311 2.079 . S
O318 C320 1.273 . S
C319 O315 1.246 . S
C319 O316 1.259 . S
C320 O317 1.252 . S
C320 O318 1.273 . S
O321 Mg308 2.010 . S
O321 C313 1.249 . S
Mg322 O323 2.028 . S
Mg322 O329 1.986 . S
Mg322 O331 2.114 . S
Mg322 O332 2.251 . S
Mg322 O335 2.010 . S
O323 Mg322 2.028 . S
O323 C326 1.250 . S
O324 Mg325 2.028 . S
O324 C326 1.248 . S
Mg325 O324 2.028 . S
Mg325 O330 2.032 . S
Mg325 O332 2.079 . S
C326 O323 1.250 . S
C326 O324 1.248 . S
C327 O328 1.264 . S
C327 O335 1.249 . S
O328 C327 1.264 . S
O329 Mg322 1.986 . S
O329 C333 1.246 . S
O330 Mg325 2.032 . S
O330 C333 1.259 . S
O331 Mg322 2.114 . S
O331 C334 1.252 . S
O332 Mg322 2.251 . S
O332 Mg325 2.079 . S
O332 C334 1.273 . S
C333 O329 1.246 . S
C333 O330 1.259 . S
C334 O331 1.252 . S
C334 O332 1.273 . S
O335 Mg322 2.010 . S
O335 C327 1.249 . S
Mg336 O337 2.028 . S
Mg336 O343 1.986 . S
Mg336 O345 2.114 . S
Mg336 O346 2.251 . S
Mg336 O349 2.010 . S
O337 Mg336 2.028 . S
O337 C340 1.250 . S
O338 Mg339 2.028 . S
O338 C340 1.248 . S
Mg339 O338 2.028 . S
Mg339 O344 2.032 . S
Mg339 O346 2.079 . S
C340 O337 1.250 . S
C340 O338 1.248 . S
C341 O342 1.264 . S
C341 O349 1.249 . S
O342 C341 1.264 . S
O343 Mg336 1.986 . S
O343 C347 1.246 . S
O344 Mg339 2.032 . S
O344 C347 1.259 . S
O345 Mg336 2.114 . S
O345 C348 1.252 . S
O346 Mg336 2.251 . S
O346 Mg339 2.079 . S
O346 C348 1.273 . S
C347 O343 1.246 . S
C347 O344 1.259 . S
C348 O345 1.252 . S
C348 O346 1.273 . S
O349 Mg336 2.010 . S
O349 C341 1.249 . S
Mg350 O351 2.028 1_554 S
Mg350 O357 1.986 . S
Mg350 O359 2.114 . S
Mg350 O360 2.251 . S
Mg350 O363 2.010 1_554 S
O351 Mg350 2.028 1_556 S
O351 C354 1.250 . S
O352 Mg353 2.028 1_556 S
O352 C354 1.248 . S
Mg353 O352 2.028 1_554 S
Mg353 O358 2.032 . S
Mg353 O360 2.079 . S
C354 O351 1.250 . S
C354 O352 1.248 . S
C355 O356 1.265 1_556 S
C355 O363 1.249 . S
O356 C355 1.265 1_554 S
O357 Mg350 1.986 . S
O357 C361 1.246 . S
O358 Mg353 2.032 . S
O358 C361 1.259 . S
O359 Mg350 2.114 . S
O359 C362 1.252 . S
O360 Mg350 2.251 . S
O360 Mg353 2.079 . S
O360 C362 1.273 . S
C361 O357 1.246 . S
C361 O358 1.259 . S
C362 O359 1.252 . S
C362 O360 1.273 . S
O363 Mg350 2.010 1_556 S
O363 C355 1.249 . S
Mg364 O365 2.028 . S
Mg364 O371 1.986 . S
Mg364 O373 2.114 . S
Mg364 O374 2.251 . S
Mg364 O377 2.010 . S
O365 Mg364 2.028 . S
O365 C368 1.250 . S
O366 Mg367 2.028 . S
O366 C368 1.248 . S
Mg367 O366 2.028 . S
Mg367 O372 2.032 . S
Mg367 O374 2.079 . S
C368 O365 1.250 . S
C368 O366 1.248 . S
C369 O370 1.264 . S
C369 O377 1.249 . S
O370 C369 1.264 . S
O371 Mg364 1.986 . S
O371 C375 1.246 . S
O372 Mg367 2.032 . S
O372 C375 1.259 . S
O373 Mg364 2.114 . S
O373 C376 1.252 . S
O374 Mg364 2.251 . S
O374 Mg367 2.079 . S
O374 C376 1.273 . S
C375 O371 1.246 . S
C375 O372 1.259 . S
C376 O373 1.252 . S
C376 O374 1.273 . S
O377 Mg364 2.010 . S
O377 C369 1.249 . S
Mg378 O379 2.028 . S
Mg378 O385 1.986 . S
Mg378 O387 2.114 . S
Mg378 O388 2.251 . S
Mg378 O391 2.010 . S
O379 Mg378 2.028 . S
O379 C382 1.250 . S
O380 Mg381 2.028 . S
O380 C382 1.248 . S
Mg381 O380 2.028 . S
Mg381 O386 2.032 . S
Mg381 O388 2.079 . S
C382 O379 1.250 . S
C382 O380 1.248 . S
C383 O384 1.264 . S
C383 O391 1.249 . S
O384 C383 1.264 . S
O385 Mg378 1.986 . S
O385 C389 1.246 . S
O386 Mg381 2.032 . S
O386 C389 1.259 . S
O387 Mg378 2.114 . S
O387 C390 1.252 . S
O388 Mg378 2.251 . S
O388 Mg381 2.079 . S
O388 C390 1.273 . S
C389 O385 1.246 . S
C389 O386 1.259 . S
C390 O387 1.252 . S
C390 O388 1.273 . S
O391 Mg378 2.010 . S
O391 C383 1.249 . S
Mg392 O393 2.028 . S
Mg392 O399 1.986 . S
Mg392 O401 2.114 . S
Mg392 O402 2.251 . S
Mg392 O405 2.010 . S
O393 Mg392 2.028 . S
O393 C396 1.250 . S
O394 Mg395 2.028 . S
O394 C396 1.248 . S
Mg395 O394 2.028 . S
Mg395 O400 2.032 . S
Mg395 O402 2.079 . S
C396 O393 1.250 . S
C396 O394 1.248 . S
C397 O398 1.264 . S
C397 O405 1.249 . S
O398 C397 1.264 . S
O399 Mg392 1.986 . S
O399 C403 1.246 . S
O400 Mg395 2.032 . S
O400 C403 1.259 . S
O401 Mg392 2.114 . S
O401 C404 1.252 . S
O402 Mg392 2.251 . S
O402 Mg395 2.079 . S
O402 C404 1.273 . S
C403 O399 1.246 . S
C403 O400 1.259 . S
C404 O401 1.252 . S
C404 O402 1.273 . S
O405 Mg392 2.010 . S
O405 C397 1.249 . S
Mg406 O407 2.028 1_556 S
Mg406 O413 1.986 . S
Mg406 O415 2.114 . S
Mg406 O416 2.251 . S
Mg406 O419 2.010 1_556 S
O407 Mg406 2.028 1_554 S
O407 C410 1.250 . S
O408 Mg409 2.028 1_554 S
O408 C410 1.248 . S
Mg409 O408 2.028 1_556 S
Mg409 O414 2.032 . S
Mg409 O416 2.079 . S
C410 O407 1.250 . S
C410 O408 1.248 . S
C411 O412 1.265 1_554 S
C411 O419 1.249 . S
O412 C411 1.265 1_556 S
O413 Mg406 1.986 . S
O413 C417 1.246 . S
O414 Mg409 2.032 . S
O414 C417 1.259 . S
O415 Mg406 2.114 . S
O415 C418 1.252 . S
O416 Mg406 2.251 . S
O416 Mg409 2.079 . S
O416 C418 1.273 . S
C417 O413 1.246 . S
C417 O414 1.259 . S
C418 O415 1.252 . S
C418 O416 1.273 . S
O419 Mg406 2.010 1_554 S
O419 C411 1.249 . S
Mg420 O421 2.028 . S
Mg420 O427 1.986 . S
Mg420 O429 2.114 . S
Mg420 O430 2.251 . S
Mg420 O433 2.010 . S
O421 Mg420 2.028 . S
O421 C424 1.250 . S
O422 Mg423 2.028 . S
O422 C424 1.248 . S
Mg423 O422 2.028 . S
Mg423 O428 2.032 . S
Mg423 O430 2.079 . S
C424 O421 1.250 . S
C424 O422 1.248 . S
C425 O426 1.264 . S
C425 O433 1.249 . S
O426 C425 1.264 . S
O427 Mg420 1.986 . S
O427 C431 1.246 . S
O428 Mg423 2.032 . S
O428 C431 1.259 . S
O429 Mg420 2.114 . S
O429 C432 1.252 . S
O430 Mg420 2.251 . S
O430 Mg423 2.079 . S
O430 C432 1.273 . S
C431 O427 1.246 . S
C431 O428 1.259 . S
C432 O429 1.252 . S
C432 O430 1.273 . S
O433 Mg420 2.010 . S
O433 C425 1.249 . S
Mg434 O435 2.028 . S
Mg434 O441 1.986 . S
Mg434 O443 2.114 . S
Mg434 O444 2.251 . S
Mg434 O447 2.010 . S
O435 Mg434 2.028 . S
O435 C438 1.250 . S
O436 Mg437 2.028 . S
O436 C438 1.248 . S
Mg437 O436 2.028 . S
Mg437 O442 2.032 . S
Mg437 O444 2.079 . S
C438 O435 1.250 . S
C438 O436 1.248 . S
C439 O440 1.264 . S
C439 O447 1.249 . S
O440 C439 1.264 . S
O441 Mg434 1.986 . S
O441 C445 1.246 . S
O442 Mg437 2.032 . S
O442 C445 1.259 . S
O443 Mg434 2.114 . S
O443 C446 1.252 . S
O444 Mg434 2.251 . S
O444 Mg437 2.079 . S
O444 C446 1.273 . S
C445 O441 1.246 . S
C445 O442 1.259 . S
C446 O443 1.252 . S
C446 O444 1.273 . S
O447 Mg434 2.010 . S
O447 C439 1.249 . S
H448 C460 0.930 . S
H449 C462 0.930 . S
H450 C463 0.930 . S
H451 C467 0.959 . S
H452 C467 0.959 . S
H453 C467 0.961 . S
H454 C468 0.960 . S
H455 C468 0.961 . S
H456 C468 0.959 . S
H457 C471 0.929 . S
H458 C472 0.931 . S
H459 C474 0.930 . S
C460 H448 0.930 . S
C460 C461 1.399 . S
C460 C465 1.399 . S
C461 C460 1.399 . S
C461 C462 1.376 . S
C462 H449 0.930 . S
C462 C461 1.376 . S
C462 C463 1.388 . S
C463 H450 0.930 . S
C463 C462 1.388 . S
C463 C464 1.390 . S
C464 C463 1.390 . S
C464 C465 1.394 . S
C464 C470 1.465 . S
C465 C460 1.399 . S
C465 C464 1.394 . S
C465 C466 1.516 . S
C466 C465 1.516 . S
C466 C467 1.502 . S
C466 C468 1.561 . S
C466 C469 1.526 . S
C467 H451 0.959 . S
C467 H452 0.959 . S
C467 H453 0.961 . S
C467 C466 1.502 . S
C468 H454 0.960 . S
C468 H455 0.961 . S
C468 H456 0.959 . S
C468 C466 1.561 . S
C469 C466 1.526 . S
C469 C470 1.396 . S
C469 C474 1.390 . S
C470 C464 1.465 . S
C470 C469 1.396 . S
C470 C471 1.399 . S
C471 H457 0.929 . S
C471 C470 1.399 . S
C471 C472 1.385 . S
C472 H458 0.931 . S
C472 C471 1.385 . S
C472 C473 1.389 . S
C473 C472 1.389 . S
C473 C474 1.387 . S
C474 H459 0.930 . S
C474 C469 1.390 . S
C474 C473 1.387 . S
H475 C487 0.930 . S
H476 C489 0.930 . S
H477 C490 0.930 . S
H478 C494 0.959 . S
H479 C494 0.959 . S
H480 C494 0.961 . S
H481 C495 0.960 . S
H482 C495 0.961 . S
H483 C495 0.959 . S
H484 C498 0.995 . S
H485 C499 0.931 . S
H486 C501 0.930 . S
C487 H475 0.930 . S
C487 C488 1.399 . S
C487 C492 1.399 . S
C488 C487 1.399 . S
C488 C489 1.376 . S
C489 H476 0.930 . S
C489 C488 1.376 . S
C489 C490 1.388 . S
C490 H477 0.930 . S
C490 C489 1.388 . S
C490 C491 1.390 . S
C491 C490 1.390 . S
C491 C492 1.394 . S
C491 C497 1.438 1_565 S
C492 C487 1.399 . S
C492 C491 1.394 . S
C492 C493 1.516 1_565 S
C493 C492 1.516 1_545 S
C493 C494 1.502 . S
C493 C495 1.561 . S
C493 C496 1.526 . S
C494 H478 0.959 . S
C494 H479 0.959 . S
C494 H480 0.961 . S
C494 C493 1.502 . S
C495 H481 0.960 . S
C495 H482 0.961 . S
C495 H483 0.959 . S
C495 C493 1.561 . S
C496 C493 1.526 . S
C496 C497 1.432 . S
C496 C501 1.390 . S
C497 C491 1.438 1_545 S
C497 C496 1.432 . S
C497 C498 1.393 1_545 S
C498 H484 0.995 . S
C498 C497 1.393 1_565 S
C498 C499 1.326 1_565 S
C499 H485 0.931 . S
C499 C498 1.326 1_545 S
C499 C500 1.389 . S
C500 C499 1.389 . S
C500 C501 1.387 . S
C501 H486 0.930 . S
C501 C496 1.390 . S
C501 C500 1.387 . S
H502 C514 0.930 . S
H503 C516 0.930 . S
H504 C517 0.930 . S
H505 C521 0.959 . S
H506 C521 0.959 . S
H507 C521 0.961 . S
H508 C522 0.960 1_554 S
H509 C522 0.961 . S
H510 C522 0.959 . S
H511 C525 0.929 . S
H512 C526 0.931 . S
H513 C528 0.930 . S
C514 H502 0.930 . S
C514 C515 1.399 . S
C514 C519 1.399 . S
C515 C514 1.399 . S
C515 C516 1.376 . S
C516 H503 0.930 . S
C516 C515 1.376 . S
C516 C517 1.388 . S
C517 H504 0.930 . S
C517 C516 1.388 . S
C517 C518 1.390 . S
C518 C517 1.390 . S
C518 C519 1.394 . S
C518 C524 1.465 1_554 S
C519 C514 1.399 . S
C519 C518 1.394 . S
C519 C520 1.516 . S
C520 C519 1.516 . S
C520 C521 1.502 . S
C520 C522 1.561 1_554 S
C520 C523 1.526 1_554 S
C521 H505 0.959 . S
C521 H506 0.959 . S
C521 H507 0.961 . S
C521 C520 1.502 . S
C522 H508 0.960 1_556 S
C522 H509 0.961 . S
C522 H510 0.959 . S
C522 C520 1.561 1_556 S
C523 C520 1.526 1_556 S
C523 C524 1.396 . S
C523 C528 1.390 . S
C524 C518 1.465 1_556 S
C524 C523 1.396 . S
C524 C525 1.399 . S
C525 H511 0.929 . S
C525 C524 1.399 . S
C525 C526 1.385 . S
C526 H512 0.931 . S
C526 C525 1.385 . S
C526 C527 1.389 . S
C527 C526 1.389 . S
C527 C528 1.387 . S
C528 H513 0.930 . S
C528 C523 1.390 . S
C528 C527 1.387 . S
H529 C541 0.930 . S
H530 C543 0.930 . S
H531 C544 0.930 . S
H532 C548 0.959 . S
H533 C548 0.959 . S
H534 C548 0.961 . S
H535 C549 0.960 . S
H536 C549 0.961 1_565 S
H537 C549 0.959 . S
H538 C552 0.929 1_545 S
H539 C553 0.931 . S
H540 C555 0.930 . S
C541 H529 0.930 . S
C541 C542 1.399 . S
C541 C546 1.399 . S
C542 C541 1.399 . S
C542 C543 1.376 . S
C543 H530 0.930 . S
C543 C542 1.376 . S
C543 C544 1.388 . S
C544 H531 0.930 . S
C544 C543 1.388 . S
C544 C545 1.390 . S
C545 C544 1.390 . S
C545 C546 1.394 . S
C545 C551 1.465 1_545 S
C546 C541 1.399 . S
C546 C545 1.394 . S
C546 C547 1.516 1_545 S
C547 C546 1.516 1_565 S
C547 C548 1.502 . S
C547 C549 1.561 1_565 S
C547 C550 1.526 . S
C548 H532 0.959 . S
C548 H533 0.959 . S
C548 H534 0.961 . S
C548 C547 1.502 . S
C549 H535 0.960 . S
C549 H536 0.961 1_545 S
C549 H537 0.959 . S
C549 C547 1.561 1_545 S
C550 C547 1.526 . S
C550 C551 1.396 . S
C550 C555 1.390 . S
C551 C545 1.465 1_565 S
C551 C550 1.396 . S
C551 C552 1.399 . S
C552 H538 0.929 1_565 S
C552 C551 1.399 . S
C552 C553 1.385 . S
C553 H539 0.931 . S
C553 C552 1.385 . S
C553 C554 1.389 . S
C554 C553 1.389 . S
C554 C555 1.387 . S
C555 H540 0.930 . S
C555 C550 1.390 . S
C555 C554 1.387 . S
H556 C568 0.930 . S
H557 C570 0.930 . S
H558 C571 0.930 . S
H559 C575 0.959 . S
H560 C575 0.959 . S
H561 C575 0.961 . S
H562 C576 0.960 . S
H563 C576 0.961 . S
H564 C576 0.959 . S
H565 C579 0.929 . S
H566 C580 0.931 . S
H567 C582 0.930 . S
C568 H556 0.930 . S
C568 C569 1.399 . S
C568 C573 1.399 . S
C569 C568 1.399 . S
C569 C570 1.376 . S
C570 H557 0.930 . S
C570 C569 1.376 . S
C570 C571 1.388 . S
C571 H558 0.930 . S
C571 C570 1.388 . S
C571 C572 1.390 . S
C572 C571 1.390 . S
C572 C573 1.394 . S
C572 C578 1.465 . S
C573 C568 1.399 . S
C573 C572 1.394 . S
C573 C574 1.516 . S
C574 C573 1.516 . S
C574 C575 1.502 . S
C574 C576 1.561 . S
C574 C577 1.526 . S
C575 H559 0.959 . S
C575 H560 0.959 . S
C575 H561 0.961 . S
C575 C574 1.502 . S
C576 H562 0.960 . S
C576 H563 0.961 . S
C576 H564 0.959 . S
C576 C574 1.561 . S
C577 C574 1.526 . S
C577 C578 1.396 . S
C577 C582 1.390 . S
C578 C572 1.465 . S
C578 C577 1.396 . S
C578 C579 1.399 . S
C579 H565 0.929 . S
C579 C578 1.399 . S
C579 C580 1.385 . S
C580 H566 0.931 . S
C580 C579 1.385 . S
C580 C581 1.389 . S
C581 C580 1.389 . S
C581 C582 1.387 . S
C582 H567 0.930 . S
C582 C577 1.390 . S
C582 C581 1.387 . S
H583 C595 0.930 . S
H584 C597 0.930 . S
H585 C598 0.930 . S
H586 C602 0.959 . S
H587 C602 0.959 . S
H588 C602 0.961 . S
H589 C603 0.963 1_545 S
H590 C603 0.955 . S
H591 C603 0.964 1_545 S
H592 C606 0.929 1_545 S
H593 C607 0.931 . S
H594 C609 0.930 . S
C595 H583 0.930 . S
C595 C596 1.399 . S
C595 C600 1.399 . S
C596 C595 1.399 . S
C596 C597 1.376 . S
C597 H584 0.930 . S
C597 C596 1.376 . S
C597 C598 1.388 . S
C598 H585 0.930 . S
C598 C597 1.388 . S
C598 C599 1.390 . S
C599 C598 1.390 . S
C599 C600 1.394 . S
C599 C605 1.465 1_545 S
C600 C595 1.399 . S
C600 C599 1.394 . S
C600 C601 1.516 1_545 S
C601 C600 1.516 1_565 S
C601 C602 1.502 . S
C601 C603 1.559 . S
C601 C604 1.526 . S
C602 H586 0.959 . S
C602 H587 0.959 . S
C602 H588 0.961 . S
C602 C601 1.502 . S
C603 H589 0.963 1_565 S
C603 H590 0.955 . S
C603 H591 0.964 1_565 S
C603 C601 1.559 . S
C604 C601 1.526 . S
C604 C605 1.396 . S
C604 C609 1.390 . S
C605 C599 1.465 1_565 S
C605 C604 1.396 . S
C605 C606 1.399 . S
C606 H592 0.929 1_565 S
C606 C605 1.399 . S
C606 C607 1.385 . S
C607 H593 0.931 . S
C607 C606 1.385 . S
C607 C608 1.389 . S
C608 C607 1.389 . S
C608 C609 1.387 . S
C609 H594 0.930 . S
C609 C604 1.390 . S
C609 C608 1.387 . S
H610 C622 0.930 . S
H611 C624 0.930 . S
H612 C625 0.930 1_554 S
H613 C629 0.959 . S
H614 C629 0.959 . S
H615 C629 0.961 . S
H616 C630 0.960 . S
H617 C630 0.961 1_554 S
H618 C630 0.959 1_554 S
H619 C633 0.929 . S
H620 C634 0.931 . S
H621 C636 0.930 . S
C622 H610 0.930 . S
C622 C623 1.399 . S
C622 C627 1.399 . S
C623 C622 1.399 . S
C623 C624 1.376 . S
C624 H611 0.930 . S
C624 C623 1.376 . S
C624 C625 1.388 . S
C625 H612 0.930 1_556 S
C625 C624 1.388 . S
C625 C626 1.390 . S
C626 C625 1.390 . S
C626 C627 1.394 . S
C626 C632 1.465 1_556 S
C627 C622 1.399 . S
C627 C626 1.394 . S
C627 C628 1.516 . S
C628 C627 1.516 . S
C628 C629 1.502 . S
C628 C630 1.561 . S
C628 C631 1.526 1_556 S
C629 H613 0.959 . S
C629 H614 0.959 . S
C629 H615 0.961 . S
C629 C628 1.502 . S
C630 H616 0.960 . S
C630 H617 0.961 1_556 S
C630 H618 0.959 1_556 S
C630 C628 1.561 . S
C631 C628 1.526 1_554 S
C631 C632 1.396 . S
C631 C636 1.390 . S
C632 C626 1.465 1_554 S
C632 C631 1.396 . S
C632 C633 1.399 . S
C633 H619 0.929 . S
C633 C632 1.399 . S
C633 C634 1.385 . S
C634 H620 0.931 . S
C634 C633 1.385 . S
C634 C635 1.389 . S
C635 C634 1.389 . S
C635 C636 1.387 . S
C636 H621 0.930 . S
C636 C631 1.390 . S
C636 C635 1.387 . S
H637 C649 0.930 . S
H638 C651 0.930 . S
H639 C652 0.930 . S
H640 C656 0.959 . S
H641 C656 0.959 . S
H642 C656 0.961 . S
H643 C657 0.960 . S
H644 C657 0.961 . S
H645 C657 0.959 . S
H646 C660 0.929 . S
H647 C661 0.931 . S
H648 C663 0.930 . S
C649 H637 0.930 . S
C649 C650 1.399 . S
C649 C654 1.399 . S
C650 C649 1.399 . S
C650 C651 1.376 . S
C651 H638 0.930 . S
C651 C650 1.376 . S
C651 C652 1.388 1_565 S
C652 H639 0.930 . S
C652 C651 1.388 1_545 S
C652 C653 1.389 . S
C653 C652 1.389 . S
C653 C654 1.401 1_545 S
C653 C659 1.460 . S
C654 C649 1.399 . S
C654 C653 1.401 1_565 S
C654 C655 1.516 . S
C655 C654 1.516 . S
C655 C656 1.502 . S
C655 C657 1.561 . S
C655 C658 1.526 1_565 S
C656 H640 0.959 . S
C656 H641 0.959 . S
C656 H642 0.961 . S
C656 C655 1.502 . S
C657 H643 0.960 . S
C657 H644 0.961 . S
C657 H645 0.959 . S
C657 C655 1.561 . S
C658 C655 1.526 1_545 S
C658 C659 1.396 . S
C658 C663 1.390 . S
C659 C653 1.460 . S
C659 C658 1.396 . S
C659 C660 1.399 . S
C660 H646 0.929 . S
C660 C659 1.399 . S
C660 C661 1.385 . S
C661 H647 0.931 . S
C661 C660 1.385 . S
C661 C662 1.389 . S
C662 C661 1.389 . S
C662 C663 1.387 . S
C663 H648 0.930 . S
C663 C658 1.390 . S
C663 C662 1.387 . S
H664 C676 0.930 . S
H665 C678 0.930 . S
H666 C679 0.930 . S
H667 C683 0.959 . S
H668 C683 0.959 . S
H669 C683 0.961 . S
H670 C684 0.960 1_556 S
H671 C684 0.961 . S
H672 C684 0.959 1_556 S
H673 C687 0.929 1_556 S
H674 C688 0.931 . S
H675 C690 0.930 . S
C676 H664 0.930 . S
C676 C677 1.399 . S
C676 C681 1.399 . S
C677 C676 1.399 . S
C677 C678 1.376 . S
C678 H665 0.930 . S
C678 C677 1.376 . S
C678 C679 1.388 . S
C679 H666 0.930 . S
C679 C678 1.388 . S
C679 C680 1.390 . S
C680 C679 1.390 . S
C680 C681 1.394 . S
C680 C686 1.465 1_556 S
C681 C676 1.399 . S
C681 C680 1.394 . S
C681 C682 1.516 1_556 S
C682 C681 1.516 1_554 S
C682 C683 1.502 . S
C682 C684 1.561 . S
C682 C685 1.526 . S
C683 H667 0.959 . S
C683 H668 0.959 . S
C683 H669 0.961 . S
C683 C682 1.502 . S
C684 H670 0.960 1_554 S
C684 H671 0.961 . S
C684 H672 0.959 1_554 S
C684 C682 1.561 . S
C685 C682 1.526 . S
C685 C686 1.396 . S
C685 C690 1.390 . S
C686 C680 1.465 1_554 S
C686 C685 1.396 . S
C686 C687 1.399 . S
C687 H673 0.929 1_554 S
C687 C686 1.399 . S
C687 C688 1.385 . S
C688 H674 0.931 . S
C688 C687 1.385 . S
C688 C689 1.389 . S
C689 C688 1.389 . S
C689 C690 1.387 . S
C690 H675 0.930 . S
C690 C685 1.390 . S
C690 C689 1.387 . S
H691 C703 0.930 . S
H692 C705 0.930 . S
H693 C706 0.930 . S
H694 C710 0.959 . S
H695 C710 0.959 . S
H696 C710 0.961 . S
H697 C711 0.960 . S
H698 C711 0.961 . S
H699 C711 0.959 . S
H700 C714 0.929 . S
H701 C715 0.931 . S
H702 C717 0.930 . S
C703 H691 0.930 . S
C703 C704 1.399 . S
C703 C708 1.399 . S
C704 C703 1.399 . S
C704 C705 1.376 . S
C705 H692 0.930 . S
C705 C704 1.376 . S
C705 C706 1.388 . S
C706 H693 0.930 . S
C706 C705 1.388 . S
C706 C707 1.390 . S
C707 C706 1.390 . S
C707 C708 1.394 . S
C707 C713 1.465 . S
C708 C703 1.399 . S
C708 C707 1.394 . S
C708 C709 1.516 . S
C709 C708 1.516 . S
C709 C710 1.502 . S
C709 C711 1.561 . S
C709 C712 1.526 . S
C710 H694 0.959 . S
C710 H695 0.959 . S
C710 H696 0.961 . S
C710 C709 1.502 . S
C711 H697 0.960 . S
C711 H698 0.961 . S
C711 H699 0.959 . S
C711 C709 1.561 . S
C712 C709 1.526 . S
C712 C713 1.396 . S
C712 C717 1.390 . S
C713 C707 1.465 . S
C713 C712 1.396 . S
C713 C714 1.399 . S
C714 H700 0.929 . S
C714 C713 1.399 . S
C714 C715 1.385 . S
C715 H701 0.931 . S
C715 C714 1.385 . S
C715 C716 1.389 . S
C716 C715 1.389 . S
C716 C717 1.387 . S
C717 H702 0.930 . S
C717 C712 1.390 . S
C717 C716 1.387 . S
H718 C730 0.930 . S
H719 C732 0.930 . S
H720 C733 0.930 . S
H721 C737 0.959 . S
H722 C737 0.959 . S
H723 C737 0.961 . S
H724 C738 0.960 . S
H725 C738 0.961 . S
H726 C738 0.959 . S
H727 C741 0.929 . S
H728 C742 0.931 . S
H729 C744 0.930 . S
C730 H718 0.930 . S
C730 C731 1.399 . S
C730 C735 1.399 . S
C731 C730 1.399 . S
C731 C732 1.376 . S
C732 H719 0.930 . S
C732 C731 1.376 . S
C732 C733 1.388 . S
C733 H720 0.930 . S
C733 C732 1.388 . S
C733 C734 1.390 . S
C734 C733 1.390 . S
C734 C735 1.394 . S
C734 C740 1.465 . S
C735 C730 1.399 . S
C735 C734 1.394 . S
C735 C736 1.516 . S
C736 C735 1.516 . S
C736 C737 1.502 . S
C736 C738 1.561 . S
C736 C739 1.526 . S
C737 H721 0.959 . S
C737 H722 0.959 . S
C737 H723 0.961 . S
C737 C736 1.502 . S
C738 H724 0.960 . S
C738 H725 0.961 . S
C738 H726 0.959 . S
C738 C736 1.561 . S
C739 C736 1.526 . S
C739 C740 1.396 . S
C739 C744 1.390 . S
C740 C734 1.465 . S
C740 C739 1.396 . S
C740 C741 1.399 . S
C741 H727 0.929 . S
C741 C740 1.399 . S
C741 C742 1.385 . S
C742 H728 0.931 . S
C742 C741 1.385 . S
C742 C743 1.389 . S
C743 C742 1.389 . S
C743 C744 1.387 . S
C744 H729 0.930 . S
C744 C739 1.390 . S
C744 C743 1.387 . S
H745 C757 0.930 . S
H746 C759 0.930 . S
H747 C760 0.930 . S
H748 C764 0.959 . S
H749 C764 0.959 . S
H750 C764 0.961 . S
H751 C765 0.960 . S
H752 C765 0.961 . S
H753 C765 0.959 . S
H754 C768 0.929 . S
H755 C769 0.931 . S
H756 C771 0.930 . S
C757 H745 0.930 . S
C757 C758 1.399 . S
C757 C762 1.399 . S
C758 C757 1.399 . S
C758 C759 1.376 . S
C759 H746 0.930 . S
C759 C758 1.376 . S
C759 C760 1.388 . S
C760 H747 0.930 . S
C760 C759 1.388 . S
C760 C761 1.390 . S
C761 C760 1.390 . S
C761 C762 1.394 . S
C761 C767 1.465 . S
C762 C757 1.399 . S
C762 C761 1.394 . S
C762 C763 1.516 . S
C763 C762 1.516 . S
C763 C764 1.502 . S
C763 C765 1.561 . S
C763 C766 1.526 . S
C764 H748 0.959 . S
C764 H749 0.959 . S
C764 H750 0.961 . S
C764 C763 1.502 . S
C765 H751 0.960 . S
C765 H752 0.961 . S
C765 H753 0.959 . S
C765 C763 1.561 . S
C766 C763 1.526 . S
C766 C767 1.396 . S
C766 C771 1.390 . S
C767 C761 1.465 . S
C767 C766 1.396 . S
C767 C768 1.399 . S
C768 H754 0.929 . S
C768 C767 1.399 . S
C768 C769 1.385 . S
C769 H755 0.931 . S
C769 C768 1.385 . S
C769 C770 1.389 . S
C770 C769 1.389 . S
C770 C771 1.387 . S
C771 H756 0.930 . S
C771 C766 1.390 . S
C771 C770 1.387 . S
H772 C784 0.930 . S
H773 C786 0.930 . S
H774 C787 0.930 . S
H775 C791 0.959 . S
H776 C791 0.959 . S
H777 C791 0.961 . S
H778 C792 0.960 . S
H779 C792 0.961 1_554 S
H780 C792 0.959 . S
H781 C795 0.929 . S
H782 C796 0.931 . S
H783 C798 0.930 . S
C784 H772 0.930 . S
C784 C785 1.399 . S
C784 C789 1.399 . S
C785 C784 1.399 . S
C785 C786 1.376 . S
C786 H773 0.930 . S
C786 C785 1.376 . S
C786 C787 1.388 . S
C787 H774 0.930 . S
C787 C786 1.388 . S
C787 C788 1.390 . S
C788 C787 1.390 . S
C788 C789 1.394 . S
C788 C794 1.465 1_556 S
C789 C784 1.399 . S
C789 C788 1.394 . S
C789 C790 1.516 1_556 S
C790 C789 1.516 1_554 S
C790 C791 1.502 . S
C790 C792 1.561 1_554 S
C790 C793 1.526 . S
C791 H775 0.959 . S
C791 H776 0.959 . S
C791 H777 0.961 . S
C791 C790 1.502 . S
C792 H778 0.960 . S
C792 H779 0.961 1_556 S
C792 H780 0.959 . S
C792 C790 1.561 1_556 S
C793 C790 1.526 . S
C793 C794 1.396 . S
C793 C798 1.390 . S
C794 C788 1.465 1_554 S
C794 C793 1.396 . S
C794 C795 1.399 . S
C795 H781 0.929 . S
C795 C794 1.399 . S
C795 C796 1.385 . S
C796 H782 0.931 . S
C796 C795 1.385 . S
C796 C797 1.389 . S
C797 C796 1.389 . S
C797 C798 1.387 . S
C798 H783 0.930 . S
C798 C793 1.390 . S
C798 C797 1.387 . S
H799 C811 0.930 . S
H800 C813 0.930 . S
H801 C814 0.930 . S
H802 C818 0.959 . S
H803 C818 0.959 . S
H804 C818 0.961 . S
H805 C819 0.960 . S
H806 C819 0.961 . S
H807 C819 0.959 . S
H808 C822 0.929 . S
H809 C823 0.931 . S
H810 C825 0.930 . S
C811 H799 0.930 . S
C811 C812 1.399 . S
C811 C816 1.399 . S
C812 C811 1.399 . S
C812 C813 1.376 . S
C813 H800 0.930 . S
C813 C812 1.376 . S
C813 C814 1.388 . S
C814 H801 0.930 . S
C814 C813 1.388 . S
C814 C815 1.390 . S
C815 C814 1.390 . S
C815 C816 1.394 . S
C815 C821 1.465 . S
C816 C811 1.399 . S
C816 C815 1.394 . S
C816 C817 1.516 . S
C817 C816 1.516 . S
C817 C818 1.502 . S
C817 C819 1.561 . S
C817 C820 1.526 . S
C818 H802 0.959 . S
C818 H803 0.959 . S
C818 H804 0.961 . S
C818 C817 1.502 . S
C819 H805 0.960 . S
C819 H806 0.961 . S
C819 H807 0.959 . S
C819 C817 1.561 . S
C820 C817 1.526 . S
C820 C821 1.396 . S
C820 C825 1.390 . S
C821 C815 1.465 . S
C821 C820 1.396 . S
C821 C822 1.399 . S
C822 H808 0.929 . S
C822 C821 1.399 . S
C822 C823 1.385 . S
C823 H809 0.931 . S
C823 C822 1.385 . S
C823 C824 1.389 . S
C824 C823 1.389 . S
C824 C825 1.387 . S
C825 H810 0.930 . S
C825 C820 1.390 . S
C825 C824 1.387 . S
H826 C838 0.930 . S
H827 C840 0.930 . S
H828 C841 0.930 . S
H829 C845 0.959 . S
H830 C845 0.959 . S
H831 C845 0.961 . S
H832 C846 0.960 . S
H833 C846 0.961 . S
H834 C846 0.959 . S
H835 C849 0.929 . S
H836 C850 0.931 . S
H837 C852 0.930 . S
C838 H826 0.930 . S
C838 C839 1.399 . S
C838 C843 1.399 . S
C839 C838 1.399 . S
C839 C840 1.376 . S
C840 H827 0.930 . S
C840 C839 1.376 . S
C840 C841 1.388 . S
C841 H828 0.930 . S
C841 C840 1.388 . S
C841 C842 1.390 . S
C842 C841 1.390 . S
C842 C843 1.394 . S
C842 C848 1.465 . S
C843 C838 1.399 . S
C843 C842 1.394 . S
C843 C844 1.516 . S
C844 C843 1.516 . S
C844 C845 1.502 . S
C844 C846 1.561 . S
C844 C847 1.526 . S
C845 H829 0.959 . S
C845 H830 0.959 . S
C845 H831 0.961 . S
C845 C844 1.502 . S
C846 H832 0.960 . S
C846 H833 0.961 . S
C846 H834 0.959 . S
C846 C844 1.561 . S
C847 C844 1.526 . S
C847 C848 1.396 . S
C847 C852 1.390 . S
C848 C842 1.465 . S
C848 C847 1.396 . S
C848 C849 1.399 . S
C849 H835 0.929 . S
C849 C848 1.399 . S
C849 C850 1.385 . S
C850 H836 0.931 . S
C850 C849 1.385 . S
C850 C851 1.389 . S
C851 C850 1.389 . S
C851 C852 1.387 . S
C852 H837 0.930 . S
C852 C847 1.390 . S
C852 C851 1.387 . S
H853 C865 0.930 . S
H854 C867 0.930 . S
H855 C868 0.930 . S
H856 C872 0.959 . S
H857 C872 0.959 . S
H858 C872 0.961 . S
H859 C873 0.960 . S
H860 C873 0.961 . S
H861 C873 0.959 . S
H862 C876 0.929 . S
H863 C877 0.931 . S
H864 C879 0.930 . S
C865 H853 0.930 . S
C865 C866 1.399 . S
C865 C870 1.399 . S
C866 C865 1.399 . S
C866 C867 1.376 . S
C867 H854 0.930 . S
C867 C866 1.376 . S
C867 C868 1.388 . S
C868 H855 0.930 . S
C868 C867 1.388 . S
C868 C869 1.390 . S
C869 C868 1.390 . S
C869 C870 1.394 . S
C869 C875 1.465 . S
C870 C865 1.399 . S
C870 C869 1.394 . S
C870 C871 1.516 . S
C871 C870 1.516 . S
C871 C872 1.502 . S
C871 C873 1.561 . S
C871 C874 1.526 . S
C872 H856 0.959 . S
C872 H857 0.959 . S
C872 H858 0.961 . S
C872 C871 1.502 . S
C873 H859 0.960 . S
C873 H860 0.961 . S
C873 H861 0.959 . S
C873 C871 1.561 . S
C874 C871 1.526 . S
C874 C875 1.396 . S
C874 C879 1.390 . S
C875 C869 1.465 . S
C875 C874 1.396 . S
C875 C876 1.399 . S
C876 H862 0.929 . S
C876 C875 1.399 . S
C876 C877 1.385 . S
C877 H863 0.931 . S
C877 C876 1.385 . S
C877 C878 1.389 . S
C878 C877 1.389 . S
C878 C879 1.387 . S
C879 H864 0.930 . S
C879 C874 1.390 . S
C879 C878 1.387 . S
H880 C892 0.930 . S
H881 C894 0.930 . S
H882 C895 0.930 . S
H883 C899 0.959 . S
H884 C899 0.959 . S
H885 C899 0.961 . S
H886 C900 0.960 . S
H887 C900 0.961 . S
H888 C900 0.959 . S
H889 C903 0.929 . S
H890 C904 0.931 . S
H891 C906 0.930 . S
C892 H880 0.930 . S
C892 C893 1.399 . S
C892 C897 1.399 . S
C893 C892 1.399 . S
C893 C894 1.376 1_554 S
C894 H881 0.930 . S
C894 C893 1.376 1_556 S
C894 C895 1.388 . S
C895 H882 0.930 . S
C895 C894 1.388 . S
C895 C896 1.390 1_556 S
C896 C895 1.390 1_554 S
C896 C897 1.394 . S
C896 C902 1.465 . S
C897 C892 1.399 . S
C897 C896 1.394 . S
C897 C898 1.516 . S
C898 C897 1.516 . S
C898 C899 1.502 . S
C898 C900 1.561 . S
C898 C901 1.526 . S
C899 H883 0.959 . S
C899 H884 0.959 . S
C899 H885 0.961 . S
C899 C898 1.502 . S
C900 H886 0.960 . S
C900 H887 0.961 . S
C900 H888 0.959 . S
C900 C898 1.561 . S
C901 C898 1.526 . S
C901 C902 1.396 . S
C901 C906 1.390 . S
C902 C896 1.465 . S
C902 C901 1.396 . S
C902 C903 1.399 . S
C903 H889 0.929 . S
C903 C902 1.399 . S
C903 C904 1.385 . S
C904 H890 0.931 . S
C904 C903 1.385 . S
C904 C905 1.389 . S
C905 C904 1.389 . S
C905 C906 1.387 . S
C906 H891 0.930 . S
C906 C901 1.390 . S
C906 C905 1.387 . S
H907 C919 0.930 . S
H908 C921 0.930 . S
H909 C922 0.930 . S
H910 C926 0.959 . S
H911 C926 0.959 . S
H912 C926 0.961 . S
H913 C927 0.960 . S
H914 C927 0.961 . S
H915 C927 0.959 . S
H916 C930 0.929 . S
H917 C931 0.931 . S
H918 C933 0.930 . S
C919 H907 0.930 . S
C919 C920 1.399 . S
C919 C924 1.399 . S
C920 C919 1.399 . S
C920 C921 1.376 . S
C921 H908 0.930 . S
C921 C920 1.376 . S
C921 C922 1.388 . S
C922 H909 0.930 . S
C922 C921 1.388 . S
C922 C923 1.390 . S
C923 C922 1.390 . S
C923 C924 1.394 . S
C923 C929 1.465 . S
C924 C919 1.399 . S
C924 C923 1.394 . S
C924 C925 1.516 . S
C925 C924 1.516 . S
C925 C926 1.502 . S
C925 C927 1.561 . S
C925 C928 1.526 . S
C926 H910 0.959 . S
C926 H911 0.959 . S
C926 H912 0.961 . S
C926 C925 1.502 . S
C927 H913 0.960 . S
C927 H914 0.961 . S
C927 H915 0.959 . S
C927 C925 1.561 . S
C928 C925 1.526 . S
C928 C929 1.396 . S
C928 C933 1.390 . S
C929 C923 1.465 . S
C929 C928 1.396 . S
C929 C930 1.399 . S
C930 H916 0.929 . S
C930 C929 1.399 . S
C930 C931 1.385 . S
C931 H917 0.931 . S
C931 C930 1.385 . S
C931 C932 1.389 . S
C932 C931 1.389 . S
C932 C933 1.387 . S
C933 H918 0.930 . S
C933 C928 1.390 . S
C933 C932 1.387 . S
H934 C946 0.930 . S
H935 C948 0.930 . S
H936 C949 0.930 . S
H937 C953 0.959 . S
H938 C953 0.959 . S
H939 C953 0.961 . S
H940 C954 0.960 . S
H941 C954 0.961 . S
H942 C954 0.959 . S
H943 C957 0.929 . S
H944 C958 0.931 . S
H945 C960 0.930 . S
C946 H934 0.930 . S
C946 C947 1.399 . S
C946 C951 1.399 . S
C947 C946 1.399 . S
C947 C948 1.376 . S
C948 H935 0.930 . S
C948 C947 1.376 . S
C948 C949 1.388 . S
C949 H936 0.930 . S
C949 C948 1.388 . S
C949 C950 1.390 . S
C950 C949 1.390 . S
C950 C951 1.394 . S
C950 C956 1.465 . S
C951 C946 1.399 . S
C951 C950 1.394 . S
C951 C952 1.516 . S
C952 C951 1.516 . S
C952 C953 1.502 . S
C952 C954 1.561 . S
C952 C955 1.526 . S
C953 H937 0.959 . S
C953 H938 0.959 . S
C953 H939 0.961 . S
C953 C952 1.502 . S
C954 H940 0.960 . S
C954 H941 0.961 . S
C954 H942 0.959 . S
C954 C952 1.561 . S
C955 C952 1.526 . S
C955 C956 1.396 . S
C955 C960 1.390 . S
C956 C950 1.465 . S
C956 C955 1.396 . S
C956 C957 1.399 . S
C957 H943 0.929 . S
C957 C956 1.399 . S
C957 C958 1.385 . S
C958 H944 0.931 . S
C958 C957 1.385 . S
C958 C959 1.389 . S
C959 C958 1.389 . S
C959 C960 1.387 . S
C960 H945 0.930 . S
C960 C955 1.390 . S
C960 C959 1.387 . S
H961 C973 0.930 . S
H962 C975 0.930 . S
H963 C976 0.930 . S
H964 C980 0.959 . S
H965 C980 0.959 . S
H966 C980 0.961 . S
H967 C981 0.960 . S
H968 C981 0.961 . S
H969 C981 0.959 . S
H970 C984 0.929 1_554 S
H971 C985 0.931 . S
H972 C987 0.930 . S
C973 H961 0.930 . S
C973 C974 1.399 . S
C973 C978 1.399 . S
C974 C973 1.399 . S
C974 C975 1.376 . S
C975 H962 0.930 . S
C975 C974 1.376 . S
C975 C976 1.388 . S
C976 H963 0.930 . S
C976 C975 1.388 . S
C976 C977 1.390 . S
C977 C976 1.390 . S
C977 C978 1.394 . S
C977 C983 1.465 . S
C978 C973 1.399 . S
C978 C977 1.394 . S
C978 C979 1.516 . S
C979 C978 1.516 . S
C979 C980 1.502 . S
C979 C981 1.561 . S
C979 C982 1.526 . S
C980 H964 0.959 . S
C980 H965 0.959 . S
C980 H966 0.961 . S
C980 C979 1.502 . S
C981 H967 0.960 . S
C981 H968 0.961 . S
C981 H969 0.959 . S
C981 C979 1.561 . S
C982 C979 1.526 . S
C982 C983 1.396 . S
C982 C987 1.390 . S
C983 C977 1.465 . S
C983 C982 1.396 . S
C983 C984 1.399 . S
C984 H970 0.929 1_556 S
C984 C983 1.399 . S
C984 C985 1.385 1_556 S
C985 H971 0.931 . S
C985 C984 1.385 1_554 S
C985 C986 1.389 1_554 S
C986 C985 1.389 1_556 S
C986 C987 1.387 . S
C987 H972 0.930 . S
C987 C982 1.390 . S
C987 C986 1.387 . S
H988 C1000 0.930 . S
H989 C1002 0.930 1_554 S
H990 C1003 0.930 . S
H991 C1007 0.959 . S
H992 C1007 0.959 . S
H993 C1007 0.961 . S
H994 C1008 0.960 . S
H995 C1008 0.961 . S
H996 C1008 0.959 . S
H997 C1011 0.929 . S
H998 C1012 0.931 . S
H999 C1014 0.930 . S
C1000 H988 0.930 . S
C1000 C1001 1.399 . S
C1000 C1005 1.399 . S
C1001 C1000 1.399 . S
C1001 C1002 1.376 . S
C1002 H989 0.930 1_556 S
C1002 C1001 1.376 . S
C1002 C1003 1.388 . S
C1003 H990 0.930 . S
C1003 C1002 1.388 . S
C1003 C1004 1.390 . S
C1004 C1003 1.390 . S
C1004 C1005 1.394 . S
C1004 C1010 1.465 . S
C1005 C1000 1.399 . S
C1005 C1004 1.394 . S
C1005 C1006 1.516 . S
C1006 C1005 1.516 . S
C1006 C1007 1.502 . S
C1006 C1008 1.561 . S
C1006 C1009 1.526 . S
C1007 H991 0.959 . S
C1007 H992 0.959 . S
C1007 H993 0.961 . S
C1007 C1006 1.502 . S
C1008 H994 0.960 . S
C1008 H995 0.961 . S
C1008 H996 0.959 . S
C1008 C1006 1.561 . S
C1009 C1006 1.526 . S
C1009 C1010 1.396 . S
C1009 C1014 1.390 . S
C1010 C1004 1.465 . S
C1010 C1009 1.396 . S
C1010 C1011 1.399 . S
C1011 H997 0.929 . S
C1011 C1010 1.399 . S
C1011 C1012 1.385 . S
C1012 H998 0.931 . S
C1012 C1011 1.385 . S
C1012 C1013 1.389 . S
C1013 C1012 1.389 . S
C1013 C1014 1.387 . S
C1014 H999 0.930 . S
C1014 C1009 1.390 . S
C1014 C1013 1.387 . S
H1015 C1027 0.930 . S
H1016 C1029 0.930 . S
H1017 C1030 0.930 . S
H1018 C1034 0.959 . S
H1019 C1034 0.959 . S
H1020 C1034 0.961 . S
H1021 C1035 0.960 . S
H1022 C1035 0.961 . S
H1023 C1035 0.959 . S
H1024 C1038 0.929 . S
H1025 C1039 0.931 . S
H1026 C1041 0.930 . S
C1027 H1015 0.930 . S
C1027 C1028 1.399 . S
C1027 C1032 1.399 . S
C1028 C1027 1.399 . S
C1028 C1029 1.376 . S
C1029 H1016 0.930 . S
C1029 C1028 1.376 . S
C1029 C1030 1.388 . S
C1030 H1017 0.930 . S
C1030 C1029 1.388 . S
C1030 C1031 1.390 . S
C1031 C1030 1.390 . S
C1031 C1032 1.394 . S
C1031 C1037 1.465 . S
C1032 C1027 1.399 . S
C1032 C1031 1.394 . S
C1032 C1033 1.516 . S
C1033 C1032 1.516 . S
C1033 C1034 1.502 . S
C1033 C1035 1.561 . S
C1033 C1036 1.526 . S
C1034 H1018 0.959 . S
C1034 H1019 0.959 . S
C1034 H1020 0.961 . S
C1034 C1033 1.502 . S
C1035 H1021 0.960 . S
C1035 H1022 0.961 . S
C1035 H1023 0.959 . S
C1035 C1033 1.561 . S
C1036 C1033 1.526 . S
C1036 C1037 1.396 . S
C1036 C1041 1.390 . S
C1037 C1031 1.465 . S
C1037 C1036 1.396 . S
C1037 C1038 1.399 . S
C1038 H1024 0.929 . S
C1038 C1037 1.399 . S
C1038 C1039 1.385 . S
C1039 H1025 0.931 . S
C1039 C1038 1.385 . S
C1039 C1040 1.389 . S
C1040 C1039 1.389 . S
C1040 C1041 1.387 . S
C1041 H1026 0.930 . S
C1041 C1036 1.390 . S
C1041 C1040 1.387 . S
H1042 C1054 0.930 . S
H1043 C1056 0.930 . S
H1044 C1057 0.930 . S
H1045 C1061 0.959 . S
H1046 C1061 0.959 . S
H1047 C1061 0.961 . S
H1048 C1062 0.960 . S
H1049 C1062 0.961 . S
H1050 C1062 0.959 . S
H1051 C1065 0.929 . S
H1052 C1066 0.931 . S
H1053 C1068 0.930 . S
C1054 H1042 0.930 . S
C1054 C1055 1.399 . S
C1054 C1059 1.399 . S
C1055 C1054 1.399 . S
C1055 C1056 1.376 . S
C1056 H1043 0.930 . S
C1056 C1055 1.376 . S
C1056 C1057 1.388 . S
C1057 H1044 0.930 . S
C1057 C1056 1.388 . S
C1057 C1058 1.390 . S
C1058 C1057 1.390 . S
C1058 C1059 1.394 . S
C1058 C1064 1.465 . S
C1059 C1054 1.399 . S
C1059 C1058 1.394 . S
C1059 C1060 1.516 . S
C1060 C1059 1.516 . S
C1060 C1061 1.502 . S
C1060 C1062 1.561 . S
C1060 C1063 1.526 . S
C1061 H1045 0.959 . S
C1061 H1046 0.959 . S
C1061 H1047 0.961 . S
C1061 C1060 1.502 . S
C1062 H1048 0.960 . S
C1062 H1049 0.961 . S
C1062 H1050 0.959 . S
C1062 C1060 1.561 . S
C1063 C1060 1.526 . S
C1063 C1064 1.396 . S
C1063 C1068 1.390 . S
C1064 C1058 1.465 . S
C1064 C1063 1.396 . S
C1064 C1065 1.399 . S
C1065 H1051 0.929 . S
C1065 C1064 1.399 . S
C1065 C1066 1.385 . S
C1066 H1052 0.931 . S
C1066 C1065 1.385 . S
C1066 C1067 1.389 . S
C1067 C1066 1.389 . S
C1067 C1068 1.387 . S
C1068 H1053 0.930 . S
C1068 C1063 1.390 . S
C1068 C1067 1.387 . S
H1069 C1081 0.930 1_556 S
H1070 C1083 0.930 . S
H1071 C1084 0.930 . S
H1072 C1088 0.959 1_554 S
H1073 C1088 0.959 . S
H1074 C1088 0.961 . S
H1075 C1089 0.960 . S
H1076 C1089 0.961 . S
H1077 C1089 0.959 1_554 S
H1078 C1092 0.929 . S
H1079 C1093 0.931 . S
H1080 C1095 0.930 . S
C1081 H1069 0.930 1_554 S
C1081 C1082 1.399 . S
C1081 C1086 1.399 . S
C1082 C1081 1.399 . S
C1082 C1083 1.376 . S
C1083 H1070 0.930 . S
C1083 C1082 1.376 . S
C1083 C1084 1.388 . S
C1084 H1071 0.930 . S
C1084 C1083 1.388 . S
C1084 C1085 1.390 . S
C1085 C1084 1.390 . S
C1085 C1086 1.394 . S
C1085 C1091 1.465 . S
C1086 C1081 1.399 . S
C1086 C1085 1.394 . S
C1086 C1087 1.516 . S
C1087 C1086 1.516 . S
C1087 C1088 1.502 1_554 S
C1087 C1089 1.561 1_554 S
C1087 C1090 1.526 . S
C1088 H1072 0.959 1_556 S
C1088 H1073 0.959 . S
C1088 H1074 0.961 . S
C1088 C1087 1.502 1_556 S
C1089 H1075 0.960 . S
C1089 H1076 0.961 . S
C1089 H1077 0.959 1_556 S
C1089 C1087 1.561 1_556 S
C1090 C1087 1.526 . S
C1090 C1091 1.396 . S
C1090 C1095 1.390 . S
C1091 C1085 1.465 . S
C1091 C1090 1.396 . S
C1091 C1092 1.399 . S
C1092 H1078 0.929 . S
C1092 C1091 1.399 . S
C1092 C1093 1.385 . S
C1093 H1079 0.931 . S
C1093 C1092 1.385 . S
C1093 C1094 1.389 . S
C1094 C1093 1.389 . S
C1094 C1095 1.387 . S
C1095 H1080 0.930 . S
C1095 C1090 1.390 . S
C1095 C1094 1.387 . S
H1096 C1108 0.930 . S
H1097 C1110 0.930 . S
H1098 C1111 0.930 . S
H1099 C1115 0.959 . S
H1100 C1115 0.959 . S
H1101 C1115 0.961 . S
H1102 C1116 0.960 . S
H1103 C1116 0.961 . S
H1104 C1116 0.959 . S
H1105 C1119 0.929 . S
H1106 C1120 0.931 . S
H1107 C1122 0.930 . S
C1108 H1096 0.930 . S
C1108 C1109 1.399 . S
C1108 C1113 1.399 . S
C1109 C1108 1.399 . S
C1109 C1110 1.376 . S
C1110 H1097 0.930 . S
C1110 C1109 1.376 . S
C1110 C1111 1.388 . S
C1111 H1098 0.930 . S
C1111 C1110 1.388 . S
C1111 C1112 1.390 . S
C1112 C1111 1.390 . S
C1112 C1113 1.394 . S
C1112 C1118 1.465 . S
C1113 C1108 1.399 . S
C1113 C1112 1.394 . S
C1113 C1114 1.516 . S
C1114 C1113 1.516 . S
C1114 C1115 1.502 . S
C1114 C1116 1.561 . S
C1114 C1117 1.526 . S
C1115 H1099 0.959 . S
C1115 H1100 0.959 . S
C1115 H1101 0.961 . S
C1115 C1114 1.502 . S
C1116 H1102 0.960 . S
C1116 H1103 0.961 . S
C1116 H1104 0.959 . S
C1116 C1114 1.561 . S
C1117 C1114 1.526 . S
C1117 C1118 1.396 . S
C1117 C1122 1.390 . S
C1118 C1112 1.465 . S
C1118 C1117 1.396 . S
C1118 C1119 1.399 . S
C1119 H1105 0.929 . S
C1119 C1118 1.399 . S
C1119 C1120 1.385 . S
C1120 H1106 0.931 . S
C1120 C1119 1.385 . S
C1120 C1121 1.389 . S
C1121 C1120 1.389 . S
C1121 C1122 1.387 . S
C1122 H1107 0.930 . S
C1122 C1117 1.390 . S
C1122 C1121 1.387 . S
H1123 C1135 0.930 . S
H1124 C1137 0.930 . S
H1125 C1138 0.930 . S
H1126 C1142 0.959 . S
H1127 C1142 0.959 . S
H1128 C1142 0.961 . S
H1129 C1143 0.960 . S
H1130 C1143 0.961 . S
H1131 C1143 0.959 . S
H1132 C1146 0.929 . S
H1133 C1147 0.931 . S
H1134 C1149 0.930 . S
C1135 H1123 0.930 . S
C1135 C1136 1.399 . S
C1135 C1140 1.399 . S
C1136 C1135 1.399 . S
C1136 C1137 1.376 . S
C1137 H1124 0.930 . S
C1137 C1136 1.376 . S
C1137 C1138 1.388 . S
C1138 H1125 0.930 . S
C1138 C1137 1.388 . S
C1138 C1139 1.390 . S
C1139 C1138 1.390 . S
C1139 C1140 1.394 . S
C1139 C1145 1.465 . S
C1140 C1135 1.399 . S
C1140 C1139 1.394 . S
C1140 C1141 1.516 . S
C1141 C1140 1.516 . S
C1141 C1142 1.502 . S
C1141 C1143 1.561 . S
C1141 C1144 1.526 . S
C1142 H1126 0.959 . S
C1142 H1127 0.959 . S
C1142 H1128 0.961 . S
C1142 C1141 1.502 . S
C1143 H1129 0.960 . S
C1143 H1130 0.961 . S
C1143 H1131 0.959 . S
C1143 C1141 1.561 . S
C1144 C1141 1.526 . S
C1144 C1145 1.396 . S
C1144 C1149 1.390 . S
C1145 C1139 1.465 . S
C1145 C1144 1.396 . S
C1145 C1146 1.399 . S
C1146 H1132 0.929 . S
C1146 C1145 1.399 . S
C1146 C1147 1.385 . S
C1147 H1133 0.931 . S
C1147 C1146 1.385 . S
C1147 C1148 1.389 . S
C1148 C1147 1.389 . S
C1148 C1149 1.387 . S
C1149 H1134 0.930 . S
C1149 C1144 1.390 . S
C1149 C1148 1.387 . S
H1150 C1162 0.930 . S
H1151 C1164 0.930 . S
H1152 C1165 0.930 . S
H1153 C1169 0.959 . S
H1154 C1169 0.959 . S
H1155 C1169 0.961 . S
H1156 C1170 0.960 . S
H1157 C1170 0.961 . S
H1158 C1170 0.959 . S
H1159 C1173 0.929 1_556 S
H1160 C1174 0.931 . S
H1161 C1176 0.930 . S
C1162 H1150 0.930 . S
C1162 C1163 1.399 . S
C1162 C1167 1.399 . S
C1163 C1162 1.399 . S
C1163 C1164 1.376 . S
C1164 H1151 0.930 . S
C1164 C1163 1.376 . S
C1164 C1165 1.388 . S
C1165 H1152 0.930 . S
C1165 C1164 1.388 . S
C1165 C1166 1.390 . S
C1166 C1165 1.390 . S
C1166 C1167 1.394 . S
C1166 C1172 1.465 . S
C1167 C1162 1.399 . S
C1167 C1166 1.394 . S
C1167 C1168 1.516 . S
C1168 C1167 1.516 . S
C1168 C1169 1.502 . S
C1168 C1170 1.561 . S
C1168 C1171 1.526 . S
C1169 H1153 0.959 . S
C1169 H1154 0.959 . S
C1169 H1155 0.961 . S
C1169 C1168 1.502 . S
C1170 H1156 0.960 . S
C1170 H1157 0.961 . S
C1170 H1158 0.959 . S
C1170 C1168 1.561 . S
C1171 C1168 1.526 . S
C1171 C1172 1.396 . S
C1171 C1176 1.390 . S
C1172 C1166 1.465 . S
C1172 C1171 1.396 . S
C1172 C1173 1.399 . S
C1173 H1159 0.929 1_554 S
C1173 C1172 1.399 . S
C1173 C1174 1.385 1_554 S
C1174 H1160 0.931 . S
C1174 C1173 1.385 1_556 S
C1174 C1175 1.389 1_556 S
C1175 C1174 1.389 1_554 S
C1175 C1176 1.387 . S
C1176 H1161 0.930 . S
C1176 C1171 1.390 . S
C1176 C1175 1.387 . S
H1177 C1189 0.930 . S
H1178 C1191 0.930 . S
H1179 C1192 0.930 . S
H1180 C1196 0.959 . S
H1181 C1196 0.959 . S
H1182 C1196 0.961 . S
H1183 C1197 0.960 . S
H1184 C1197 0.961 . S
H1185 C1197 0.959 . S
H1186 C1200 0.929 . S
H1187 C1201 0.931 . S
H1188 C1203 0.930 . S
C1189 H1177 0.930 . S
C1189 C1190 1.399 . S
C1189 C1194 1.399 . S
C1190 C1189 1.399 . S
C1190 C1191 1.376 . S
C1191 H1178 0.930 . S
C1191 C1190 1.376 . S
C1191 C1192 1.388 . S
C1192 H1179 0.930 . S
C1192 C1191 1.388 . S
C1192 C1193 1.390 . S
C1193 C1192 1.390 . S
C1193 C1194 1.394 . S
C1193 C1199 1.465 . S
C1194 C1189 1.399 . S
C1194 C1193 1.394 . S
C1194 C1195 1.516 . S
C1195 C1194 1.516 . S
C1195 C1196 1.502 . S
C1195 C1197 1.561 . S
C1195 C1198 1.526 . S
C1196 H1180 0.959 . S
C1196 H1181 0.959 . S
C1196 H1182 0.961 . S
C1196 C1195 1.502 . S
C1197 H1183 0.960 . S
C1197 H1184 0.961 . S
C1197 H1185 0.959 . S
C1197 C1195 1.561 . S
C1198 C1195 1.526 . S
C1198 C1199 1.396 . S
C1198 C1203 1.390 . S
C1199 C1193 1.465 . S
C1199 C1198 1.396 . S
C1199 C1200 1.399 . S
C1200 H1186 0.929 . S
C1200 C1199 1.399 . S
C1200 C1201 1.385 . S
C1201 H1187 0.931 . S
C1201 C1200 1.385 . S
C1201 C1202 1.389 . S
C1202 C1201 1.389 . S
C1202 C1203 1.387 . S
C1203 H1188 0.930 . S
C1203 C1198 1.390 . S
C1203 C1202 1.387 . S
H1204 C1216 0.930 . S
H1205 C1218 0.930 . S
H1206 C1219 0.930 . S
H1207 C1223 0.959 . S
H1208 C1223 0.959 . S
H1209 C1223 0.961 . S
H1210 C1224 0.960 . S
H1211 C1224 0.961 . S
H1212 C1224 0.959 . S
H1213 C1227 0.929 . S
H1214 C1228 0.931 . S
H1215 C1230 0.930 . S
C1216 H1204 0.930 . S
C1216 C1217 1.399 . S
C1216 C1221 1.399 . S
C1217 C1216 1.399 . S
C1217 C1218 1.376 . S
C1218 H1205 0.930 . S
C1218 C1217 1.376 . S
C1218 C1219 1.388 . S
C1219 H1206 0.930 . S
C1219 C1218 1.388 . S
C1219 C1220 1.390 . S
C1220 C1219 1.390 . S
C1220 C1221 1.394 . S
C1220 C1226 1.465 . S
C1221 C1216 1.399 . S
C1221 C1220 1.394 . S
C1221 C1222 1.516 . S
C1222 C1221 1.516 . S
C1222 C1223 1.502 . S
C1222 C1224 1.561 . S
C1222 C1225 1.526 . S
C1223 H1207 0.959 . S
C1223 H1208 0.959 . S
C1223 H1209 0.961 . S
C1223 C1222 1.502 . S
C1224 H1210 0.960 . S
C1224 H1211 0.961 . S
C1224 H1212 0.959 . S
C1224 C1222 1.561 . S
C1225 C1222 1.526 . S
C1225 C1226 1.396 . S
C1225 C1230 1.390 . S
C1226 C1220 1.465 . S
C1226 C1225 1.396 . S
C1226 C1227 1.399 . S
C1227 H1213 0.929 . S
C1227 C1226 1.399 . S
C1227 C1228 1.385 . S
C1228 H1214 0.931 . S
C1228 C1227 1.385 . S
C1228 C1229 1.389 . S
C1229 C1228 1.389 . S
C1229 C1230 1.387 . S
C1230 H1215 0.930 . S
C1230 C1225 1.390 . S
C1230 C1229 1.387 . S
H1231 C1243 0.930 . S
H1232 C1245 0.930 . S
H1233 C1246 0.930 . S
H1234 C1250 0.959 . S
H1235 C1250 0.959 . S
H1236 C1250 0.961 . S
H1237 C1251 0.960 . S
H1238 C1251 0.961 . S
H1239 C1251 0.959 . S
H1240 C1254 0.929 . S
H1241 C1255 0.931 . S
H1242 C1257 0.930 . S
C1243 H1231 0.930 . S
C1243 C1244 1.399 . S
C1243 C1248 1.399 . S
C1244 C1243 1.399 . S
C1244 C1245 1.376 1_554 S
C1245 H1232 0.930 . S
C1245 C1244 1.376 1_556 S
C1245 C1246 1.388 . S
C1246 H1233 0.930 . S
C1246 C1245 1.388 . S
C1246 C1247 1.390 1_556 S
C1247 C1246 1.390 1_554 S
C1247 C1248 1.394 . S
C1247 C1253 1.465 . S
C1248 C1243 1.399 . S
C1248 C1247 1.394 . S
C1248 C1249 1.516 . S
C1249 C1248 1.516 . S
C1249 C1250 1.502 . S
C1249 C1251 1.561 . S
C1249 C1252 1.526 . S
C1250 H1234 0.959 . S
C1250 H1235 0.959 . S
C1250 H1236 0.961 . S
C1250 C1249 1.502 . S
C1251 H1237 0.960 . S
C1251 H1238 0.961 . S
C1251 H1239 0.959 . S
C1251 C1249 1.561 . S
C1252 C1249 1.526 . S
C1252 C1253 1.396 . S
C1252 C1257 1.390 . S
C1253 C1247 1.465 . S
C1253 C1252 1.396 . S
C1253 C1254 1.399 . S
C1254 H1240 0.929 . S
C1254 C1253 1.399 . S
C1254 C1255 1.385 . S
C1255 H1241 0.931 . S
C1255 C1254 1.385 . S
C1255 C1256 1.389 . S
C1256 C1255 1.389 . S
C1256 C1257 1.387 . S
C1257 H1242 0.930 . S
C1257 C1252 1.390 . S
C1257 C1256 1.387 . S
H1258 C1270 0.930 . S
H1259 C1272 0.930 . S
H1260 C1273 0.930 . S
H1261 C1277 0.959 . S
H1262 C1277 0.959 . S
H1263 C1277 0.961 . S
H1264 C1278 0.960 . S
H1265 C1278 0.961 . S
H1266 C1278 0.959 . S
H1267 C1281 0.929 . S
H1268 C1282 0.931 . S
H1269 C1284 0.930 1_554 S
C1270 H1258 0.930 . S
C1270 C1271 1.399 . S
C1270 C1275 1.399 . S
C1271 C1270 1.399 . S
C1271 C1272 1.376 . S
C1272 H1259 0.930 . S
C1272 C1271 1.376 . S
C1272 C1273 1.388 . S
C1273 H1260 0.930 . S
C1273 C1272 1.388 . S
C1273 C1274 1.390 . S
C1274 C1273 1.390 . S
C1274 C1275 1.394 . S
C1274 C1280 1.465 . S
C1275 C1270 1.399 . S
C1275 C1274 1.394 . S
C1275 C1276 1.516 . S
C1276 C1275 1.516 . S
C1276 C1277 1.502 . S
C1276 C1278 1.561 1_556 S
C1276 C1279 1.526 . S
C1277 H1261 0.959 . S
C1277 H1262 0.959 . S
C1277 H1263 0.961 . S
C1277 C1276 1.502 . S
C1278 H1264 0.960 . S
C1278 H1265 0.961 . S
C1278 H1266 0.959 . S
C1278 C1276 1.561 1_554 S
C1279 C1276 1.526 . S
C1279 C1280 1.396 . S
C1279 C1284 1.390 . S
C1280 C1274 1.465 . S
C1280 C1279 1.396 . S
C1280 C1281 1.399 . S
C1281 H1267 0.929 . S
C1281 C1280 1.399 . S
C1281 C1282 1.385 . S
C1282 H1268 0.931 . S
C1282 C1281 1.385 . S
C1282 C1283 1.389 . S
C1283 C1282 1.389 . S
C1283 C1284 1.387 . S
C1284 H1269 0.930 1_556 S
C1284 C1279 1.390 . S
C1284 C1283 1.387 . S
H1285 C1297 0.930 . S
H1286 C1299 0.930 . S
H1287 C1300 0.930 . S
H1288 C1304 0.959 . S
H1289 C1304 0.959 . S
H1290 C1304 0.961 . S
H1291 C1305 0.960 . S
H1292 C1305 0.961 . S
H1293 C1305 0.959 . S
H1294 C1308 0.929 . S
H1295 C1309 0.931 . S
H1296 C1311 0.930 . S
C1297 H1285 0.930 . S
C1297 C1298 1.399 . S
C1297 C1302 1.399 . S
C1298 C1297 1.399 . S
C1298 C1299 1.376 . S
C1299 H1286 0.930 . S
C1299 C1298 1.376 . S
C1299 C1300 1.388 . S
C1300 H1287 0.930 . S
C1300 C1299 1.388 . S
C1300 C1301 1.390 . S
C1301 C1300 1.390 . S
C1301 C1302 1.394 . S
C1301 C1307 1.465 . S
C1302 C1297 1.399 . S
C1302 C1301 1.394 . S
C1302 C1303 1.516 . S
C1303 C1302 1.516 . S
C1303 C1304 1.502 . S
C1303 C1305 1.561 . S
C1303 C1306 1.526 . S
C1304 H1288 0.959 . S
C1304 H1289 0.959 . S
C1304 H1290 0.961 . S
C1304 C1303 1.502 . S
C1305 H1291 0.960 . S
C1305 H1292 0.961 . S
C1305 H1293 0.959 . S
C1305 C1303 1.561 . S
C1306 C1303 1.526 . S
C1306 C1307 1.396 . S
C1306 C1311 1.390 . S
C1307 C1301 1.465 . S
C1307 C1306 1.396 . S
C1307 C1308 1.399 . S
C1308 H1294 0.929 . S
C1308 C1307 1.399 . S
C1308 C1309 1.385 . S
C1309 H1295 0.931 . S
C1309 C1308 1.385 . S
C1309 C1310 1.389 . S
C1310 C1309 1.389 . S
C1310 C1311 1.387 . S
C1311 H1296 0.930 . S
C1311 C1306 1.390 . S
C1311 C1310 1.387 . S
H1312 C1324 0.930 1_556 S
H1313 C1326 0.930 . S
H1314 C1327 0.930 . S
H1315 C1331 0.959 . S
H1316 C1331 0.959 . S
H1317 C1331 0.961 . S
H1318 C1332 0.960 . S
H1319 C1332 0.961 . S
H1320 C1332 0.959 . S
H1321 C1335 0.929 1_554 S
H1322 C1336 0.931 . S
H1323 C1338 0.930 . S
C1324 H1312 0.930 1_554 S
C1324 C1325 1.399 . S
C1324 C1329 1.399 1_554 S
C1325 C1324 1.399 . S
C1325 C1326 1.376 . S
C1326 H1313 0.930 . S
C1326 C1325 1.376 . S
C1326 C1327 1.388 . S
C1327 H1314 0.930 . S
C1327 C1326 1.388 . S
C1327 C1328 1.390 . S
C1328 C1327 1.390 . S
C1328 C1329 1.394 1_554 S
C1328 C1334 1.465 1_554 S
C1329 C1324 1.399 1_556 S
C1329 C1328 1.394 1_556 S
C1329 C1330 1.516 . S
C1330 C1329 1.516 . S
C1330 C1331 1.502 . S
C1330 C1332 1.561 . S
C1330 C1333 1.526 . S
C1331 H1315 0.959 . S
C1331 H1316 0.959 . S
C1331 H1317 0.961 . S
C1331 C1330 1.502 . S
C1332 H1318 0.960 . S
C1332 H1319 0.961 . S
C1332 H1320 0.959 . S
C1332 C1330 1.561 . S
C1333 C1330 1.526 . S
C1333 C1334 1.396 . S
C1333 C1338 1.390 . S
C1334 C1328 1.465 1_556 S
C1334 C1333 1.396 . S
C1334 C1335 1.399 . S
C1335 H1321 0.929 1_556 S
C1335 C1334 1.399 . S
C1335 C1336 1.385 . S
C1336 H1322 0.931 . S
C1336 C1335 1.385 . S
C1336 C1337 1.389 . S
C1337 C1336 1.389 . S
C1337 C1338 1.387 . S
C1338 H1323 0.930 . S
C1338 C1333 1.390 . S
C1338 C1337 1.387 . S
H1339 C1351 0.930 . S
H1340 C1353 0.930 . S
H1341 C1354 0.930 . S
H1342 C1358 0.959 . S
H1343 C1358 0.959 . S
H1344 C1358 0.961 . S
H1345 C1359 0.960 1_655 S
H1346 C1359 0.961 . S
H1347 C1359 0.959 1_655 S
H1348 C1362 0.893 1_655 S
H1349 C1363 0.931 . S
H1350 C1365 0.930 . S
C1351 H1339 0.930 . S
C1351 C1352 1.399 . S
C1351 C1356 1.399 . S
C1352 C1351 1.399 . S
C1352 C1353 1.376 . S
C1353 H1340 0.930 . S
C1353 C1352 1.376 . S
C1353 C1354 1.388 . S
C1354 H1341 0.930 . S
C1354 C1353 1.388 . S
C1354 C1355 1.390 . S
C1355 C1354 1.390 . S
C1355 C1356 1.394 . S
C1355 C1361 1.465 1_655 S
C1356 C1351 1.399 . S
C1356 C1355 1.394 . S
C1356 C1357 1.516 1_655 S
C1357 C1356 1.516 1_455 S
C1357 C1358 1.502 . S
C1357 C1359 1.561 . S
C1357 C1360 1.526 . S
C1358 H1342 0.959 . S
C1358 H1343 0.959 . S
C1358 H1344 0.961 . S
C1358 C1357 1.502 . S
C1359 H1345 0.960 1_455 S
C1359 H1346 0.961 . S
C1359 H1347 0.959 1_455 S
C1359 C1357 1.561 . S
C1360 C1357 1.526 . S
C1360 C1361 1.396 . S
C1360 C1365 1.390 . S
C1361 C1355 1.465 1_455 S
C1361 C1360 1.396 . S
C1361 C1362 1.399 . S
C1362 H1348 0.893 1_455 S
C1362 C1361 1.399 . S
C1362 C1363 1.385 . S
C1363 H1349 0.931 . S
C1363 C1362 1.385 . S
C1363 C1364 1.389 . S
C1364 C1363 1.389 . S
C1364 C1365 1.387 . S
C1365 H1350 0.930 . S
C1365 C1360 1.390 . S
C1365 C1364 1.387 . S
H1366 C1378 0.930 . S
H1367 C1380 0.930 . S
H1368 C1381 0.930 . S
H1369 C1385 0.959 . S
H1370 C1385 0.959 . S
H1371 C1385 0.961 . S
H1372 C1386 0.960 . S
H1373 C1386 0.961 . S
H1374 C1386 0.959 . S
H1375 C1389 0.929 . S
H1376 C1390 0.931 . S
H1377 C1392 0.930 . S
C1378 H1366 0.930 . S
C1378 C1379 1.399 . S
C1378 C1383 1.399 . S
C1379 C1378 1.399 . S
C1379 C1380 1.376 . S
C1380 H1367 0.930 . S
C1380 C1379 1.376 . S
C1380 C1381 1.388 . S
C1381 H1368 0.930 . S
C1381 C1380 1.388 . S
C1381 C1382 1.390 . S
C1382 C1381 1.390 . S
C1382 C1383 1.394 . S
C1382 C1388 1.465 . S
C1383 C1378 1.399 . S
C1383 C1382 1.394 . S
C1383 C1384 1.516 . S
C1384 C1383 1.516 . S
C1384 C1385 1.502 . S
C1384 C1386 1.561 . S
C1384 C1387 1.526 . S
C1385 H1369 0.959 . S
C1385 H1370 0.959 . S
C1385 H1371 0.961 . S
C1385 C1384 1.502 . S
C1386 H1372 0.960 . S
C1386 H1373 0.961 . S
C1386 H1374 0.959 . S
C1386 C1384 1.561 . S
C1387 C1384 1.526 . S
C1387 C1388 1.396 . S
C1387 C1392 1.390 . S
C1388 C1382 1.465 . S
C1388 C1387 1.396 . S
C1388 C1389 1.399 . S
C1389 H1375 0.929 . S
C1389 C1388 1.399 . S
C1389 C1390 1.385 . S
C1390 H1376 0.931 . S
C1390 C1389 1.385 . S
C1390 C1391 1.389 . S
C1391 C1390 1.389 . S
C1391 C1392 1.387 . S
C1392 H1377 0.930 . S
C1392 C1387 1.390 . S
C1392 C1391 1.387 . S
H1393 C1405 0.930 . S
H1394 C1407 0.930 . S
H1395 C1408 0.930 . S
H1396 C1412 0.959 . S
H1397 C1412 0.959 . S
H1398 C1412 0.961 . S
H1399 C1413 0.960 . S
H1400 C1413 0.961 . S
H1401 C1413 0.959 . S
H1402 C1416 0.929 . S
H1403 C1417 0.931 . S
H1404 C1419 0.930 . S
C1405 H1393 0.930 . S
C1405 C1406 1.399 . S
C1405 C1410 1.399 . S
C1406 C1405 1.399 . S
C1406 C1407 1.376 . S
C1407 H1394 0.930 . S
C1407 C1406 1.376 . S
C1407 C1408 1.388 . S
C1408 H1395 0.930 . S
C1408 C1407 1.388 . S
C1408 C1409 1.390 . S
C1409 C1408 1.390 . S
C1409 C1410 1.394 . S
C1409 C1415 1.465 . S
C1410 C1405 1.399 . S
C1410 C1409 1.394 . S
C1410 C1411 1.516 . S
C1411 C1410 1.516 . S
C1411 C1412 1.502 . S
C1411 C1413 1.561 . S
C1411 C1414 1.526 . S
C1412 H1396 0.959 . S
C1412 H1397 0.959 . S
C1412 H1398 0.961 . S
C1412 C1411 1.502 . S
C1413 H1399 0.960 . S
C1413 H1400 0.961 . S
C1413 H1401 0.959 . S
C1413 C1411 1.561 . S
C1414 C1411 1.526 . S
C1414 C1415 1.396 . S
C1414 C1419 1.390 . S
C1415 C1409 1.465 . S
C1415 C1414 1.396 . S
C1415 C1416 1.399 . S
C1416 H1402 0.929 . S
C1416 C1415 1.399 . S
C1416 C1417 1.385 . S
C1417 H1403 0.931 . S
C1417 C1416 1.385 . S
C1417 C1418 1.389 . S
C1418 C1417 1.389 . S
C1418 C1419 1.387 . S
C1419 H1404 0.930 . S
C1419 C1414 1.390 . S
C1419 C1418 1.387 . S
H1420 C1432 0.930 . S
H1421 C1434 0.930 . S
H1422 C1435 0.930 . S
H1423 C1439 0.959 . S
H1424 C1439 0.959 . S
H1425 C1439 0.961 . S
H1426 C1440 0.960 . S
H1427 C1440 0.961 . S
H1428 C1440 0.959 . S
H1429 C1443 0.929 . S
H1430 C1444 0.931 . S
H1431 C1446 0.930 . S
C1432 H1420 0.930 . S
C1432 C1433 1.399 . S
C1432 C1437 1.399 . S
C1433 C1432 1.399 . S
C1433 C1434 1.376 . S
C1434 H1421 0.930 . S
C1434 C1433 1.376 . S
C1434 C1435 1.388 . S
C1435 H1422 0.930 . S
C1435 C1434 1.388 . S
C1435 C1436 1.390 . S
C1436 C1435 1.390 . S
C1436 C1437 1.394 . S
C1436 C1442 1.465 . S
C1437 C1432 1.399 . S
C1437 C1436 1.394 . S
C1437 C1438 1.516 . S
C1438 C1437 1.516 . S
C1438 C1439 1.502 . S
C1438 C1440 1.561 . S
C1438 C1441 1.526 . S
C1439 H1423 0.959 . S
C1439 H1424 0.959 . S
C1439 H1425 0.961 . S
C1439 C1438 1.502 . S
C1440 H1426 0.960 . S
C1440 H1427 0.961 . S
C1440 H1428 0.959 . S
C1440 C1438 1.561 . S
C1441 C1438 1.526 . S
C1441 C1442 1.396 . S
C1441 C1446 1.390 . S
C1442 C1436 1.465 . S
C1442 C1441 1.396 . S
C1442 C1443 1.399 . S
C1443 H1429 0.929 . S
C1443 C1442 1.399 . S
C1443 C1444 1.385 . S
C1444 H1430 0.931 . S
C1444 C1443 1.385 . S
C1444 C1445 1.389 . S
C1445 C1444 1.389 . S
C1445 C1446 1.387 . S
C1446 H1431 0.930 . S
C1446 C1441 1.390 . S
C1446 C1445 1.387 . S
H1447 C1459 0.930 . S
H1448 C1461 0.930 . S
H1449 C1462 0.930 . S
H1450 C1466 0.959 . S
H1451 C1466 0.959 . S
H1452 C1466 0.961 . S
H1453 C1467 0.960 . S
H1454 C1467 0.961 . S
H1455 C1467 0.959 . S
H1456 C1470 0.929 . S
H1457 C1471 0.931 . S
H1458 C1473 0.930 . S
C1459 H1447 0.930 . S
C1459 C1460 1.399 . S
C1459 C1464 1.399 . S
C1460 C1459 1.399 . S
C1460 C1461 1.376 . S
C1461 H1448 0.930 . S
C1461 C1460 1.376 . S
C1461 C1462 1.388 . S
C1462 H1449 0.930 . S
C1462 C1461 1.388 . S
C1462 C1463 1.390 . S
C1463 C1462 1.390 . S
C1463 C1464 1.394 . S
C1463 C1469 1.465 . S
C1464 C1459 1.399 . S
C1464 C1463 1.394 . S
C1464 C1465 1.516 . S
C1465 C1464 1.516 . S
C1465 C1466 1.502 . S
C1465 C1467 1.561 . S
C1465 C1468 1.526 . S
C1466 H1450 0.959 . S
C1466 H1451 0.959 . S
C1466 H1452 0.961 . S
C1466 C1465 1.502 . S
C1467 H1453 0.960 . S
C1467 H1454 0.961 . S
C1467 H1455 0.959 . S
C1467 C1465 1.561 . S
C1468 C1465 1.526 . S
C1468 C1469 1.396 . S
C1468 C1473 1.390 . S
C1469 C1463 1.465 . S
C1469 C1468 1.396 . S
C1469 C1470 1.399 . S
C1470 H1456 0.929 . S
C1470 C1469 1.399 . S
C1470 C1471 1.385 . S
C1471 H1457 0.931 . S
C1471 C1470 1.385 . S
C1471 C1472 1.389 . S
C1472 C1471 1.389 . S
C1472 C1473 1.387 . S
C1473 H1458 0.930 . S
C1473 C1468 1.390 . S
C1473 C1472 1.387 . S
H1474 C1486 0.930 . S
H1475 C1488 0.929 1_554 S
H1476 C1489 0.930 . S
H1477 C1493 0.959 . S
H1478 C1493 0.959 . S
H1479 C1493 0.961 . S
H1480 C1494 0.960 . S
H1481 C1494 0.961 . S
H1482 C1494 0.959 . S
H1483 C1497 0.929 . S
H1484 C1498 0.931 . S
H1485 C1500 0.930 . S
C1486 H1474 0.930 . S
C1486 C1487 1.399 . S
C1486 C1491 1.399 . S
C1487 C1486 1.399 . S
C1487 C1488 1.380 . S
C1488 H1475 0.929 1_556 S
C1488 C1487 1.380 . S
C1488 C1489 1.385 1_556 S
C1489 H1476 0.930 . S
C1489 C1488 1.385 1_554 S
C1489 C1490 1.390 . S
C1490 C1489 1.390 . S
C1490 C1491 1.394 1_554 S
C1490 C1496 1.465 . S
C1491 C1486 1.399 . S
C1491 C1490 1.394 1_556 S
C1491 C1492 1.516 . S
C1492 C1491 1.516 . S
C1492 C1493 1.502 . S
C1492 C1494 1.561 . S
C1492 C1495 1.526 1_556 S
C1493 H1477 0.959 . S
C1493 H1478 0.959 . S
C1493 H1479 0.961 . S
C1493 C1492 1.502 . S
C1494 H1480 0.960 . S
C1494 H1481 0.961 . S
C1494 H1482 0.959 . S
C1494 C1492 1.561 . S
C1495 C1492 1.526 1_554 S
C1495 C1496 1.396 . S
C1495 C1500 1.390 . S
C1496 C1490 1.465 . S
C1496 C1495 1.396 . S
C1496 C1497 1.399 . S
C1497 H1483 0.929 . S
C1497 C1496 1.399 . S
C1497 C1498 1.385 . S
C1498 H1484 0.931 . S
C1498 C1497 1.385 . S
C1498 C1499 1.389 . S
C1499 C1498 1.389 . S
C1499 C1500 1.387 . S
C1500 H1485 0.930 . S
C1500 C1495 1.390 . S
C1500 C1499 1.387 . S
H1501 C1513 0.930 . S
H1502 C1515 0.930 . S
H1503 C1516 0.930 . S
H1504 C1520 0.959 . S
H1505 C1520 0.959 . S
H1506 C1520 0.961 . S
H1507 C1521 0.960 . S
H1508 C1521 0.961 1_655 S
H1509 C1521 0.959 . S
H1510 C1524 0.929 . S
H1511 C1525 0.931 . S
H1512 C1527 0.930 . S
C1513 H1501 0.930 . S
C1513 C1514 1.399 . S
C1513 C1518 1.399 . S
C1514 C1513 1.399 . S
C1514 C1515 1.376 . S
C1515 H1502 0.930 . S
C1515 C1514 1.376 . S
C1515 C1516 1.388 . S
C1516 H1503 0.930 . S
C1516 C1515 1.388 . S
C1516 C1517 1.390 . S
C1517 C1516 1.390 . S
C1517 C1518 1.394 . S
C1517 C1523 1.465 1_455 S
C1518 C1513 1.399 . S
C1518 C1517 1.394 . S
C1518 C1519 1.516 1_455 S
C1519 C1518 1.516 1_655 S
C1519 C1520 1.502 . S
C1519 C1521 1.561 1_655 S
C1519 C1522 1.526 . S
C1520 H1504 0.959 . S
C1520 H1505 0.959 . S
C1520 H1506 0.961 . S
C1520 C1519 1.502 . S
C1521 H1507 0.960 . S
C1521 H1508 0.961 1_455 S
C1521 H1509 0.959 . S
C1521 C1519 1.561 1_455 S
C1522 C1519 1.526 . S
C1522 C1523 1.396 . S
C1522 C1527 1.390 . S
C1523 C1517 1.465 1_655 S
C1523 C1522 1.396 . S
C1523 C1524 1.399 . S
C1524 H1510 0.929 . S
C1524 C1523 1.399 . S
C1524 C1525 1.385 . S
C1525 H1511 0.931 . S
C1525 C1524 1.385 . S
C1525 C1526 1.389 . S
C1526 C1525 1.389 . S
C1526 C1527 1.387 . S
C1527 H1512 0.930 . S
C1527 C1522 1.390 . S
C1527 C1526 1.387 . S
H1528 C1540 0.930 . S
H1529 C1542 0.930 . S
H1530 C1543 0.930 . S
H1531 C1547 0.959 . S
H1532 C1547 0.959 . S
H1533 C1547 0.961 . S
H1534 C1548 0.960 . S
H1535 C1548 0.961 . S
H1536 C1548 0.959 . S
H1537 C1551 0.929 . S
H1538 C1552 0.931 . S
H1539 C1554 0.930 . S
C1540 H1528 0.930 . S
C1540 C1541 1.399 . S
C1540 C1545 1.399 1_556 S
C1541 C1540 1.399 . S
C1541 C1542 1.376 . S
C1542 H1529 0.930 . S
C1542 C1541 1.376 . S
C1542 C1543 1.388 . S
C1543 H1530 0.930 . S
C1543 C1542 1.388 . S
C1543 C1544 1.390 1_556 S
C1544 C1543 1.390 1_554 S
C1544 C1545 1.394 . S
C1544 C1550 1.465 . S
C1545 C1540 1.399 1_554 S
C1545 C1544 1.394 . S
C1545 C1546 1.516 . S
C1546 C1545 1.516 . S
C1546 C1547 1.502 . S
C1546 C1548 1.561 . S
C1546 C1549 1.526 . S
C1547 H1531 0.959 . S
C1547 H1532 0.959 . S
C1547 H1533 0.961 . S
C1547 C1546 1.502 . S
C1548 H1534 0.960 . S
C1548 H1535 0.961 . S
C1548 H1536 0.959 . S
C1548 C1546 1.561 . S
C1549 C1546 1.526 . S
C1549 C1550 1.396 . S
C1549 C1554 1.390 . S
C1550 C1544 1.465 . S
C1550 C1549 1.396 . S
C1550 C1551 1.399 . S
C1551 H1537 0.929 . S
C1551 C1550 1.399 . S
C1551 C1552 1.385 . S
C1552 H1538 0.931 . S
C1552 C1551 1.385 . S
C1552 C1553 1.389 . S
C1553 C1552 1.389 . S
C1553 C1554 1.387 . S
C1554 H1539 0.930 . S
C1554 C1549 1.390 . S
C1554 C1553 1.387 . S
H1555 C1567 0.930 . S
H1556 C1569 0.930 . S
H1557 C1570 0.930 . S
H1558 C1574 0.959 . S
H1559 C1574 0.959 . S
H1560 C1574 0.961 . S
H1561 C1575 0.960 . S
H1562 C1575 0.930 1_655 S
H1563 C1575 0.959 . S
H1564 C1578 0.929 . S
H1565 C1579 0.931 . S
H1566 C1581 0.930 . S
C1567 H1555 0.930 . S
C1567 C1568 1.399 . S
C1567 C1572 1.399 . S
C1568 C1567 1.399 . S
C1568 C1569 1.376 . S
C1569 H1556 0.930 . S
C1569 C1568 1.376 . S
C1569 C1570 1.388 . S
C1570 H1557 0.930 . S
C1570 C1569 1.388 . S
C1570 C1571 1.390 . S
C1571 C1570 1.390 . S
C1571 C1572 1.394 . S
C1571 C1577 1.465 1_455 S
C1572 C1567 1.399 . S
C1572 C1571 1.394 . S
C1572 C1573 1.483 1_455 S
C1573 C1572 1.483 1_655 S
C1573 C1574 1.527 . S
C1573 C1575 1.541 1_655 S
C1573 C1576 1.553 . S
C1574 H1558 0.959 . S
C1574 H1559 0.959 . S
C1574 H1560 0.961 . S
C1574 C1573 1.527 . S
C1575 H1561 0.960 . S
C1575 H1562 0.930 1_455 S
C1575 H1563 0.959 . S
C1575 C1573 1.541 1_455 S
C1576 C1573 1.553 . S
C1576 C1577 1.396 . S
C1576 C1581 1.390 . S
C1577 C1571 1.465 1_655 S
C1577 C1576 1.396 . S
C1577 C1578 1.399 . S
C1578 H1564 0.929 . S
C1578 C1577 1.399 . S
C1578 C1579 1.385 . S
C1579 H1565 0.931 . S
C1579 C1578 1.385 . S
C1579 C1580 1.389 . S
C1580 C1579 1.389 . S
C1580 C1581 1.387 . S
C1581 H1566 0.930 . S
C1581 C1576 1.390 . S
C1581 C1580 1.387 . S
H1582 C1594 0.930 . S
H1583 C1596 0.930 . S
H1584 C1597 0.930 . S
H1585 C1601 0.959 . S
H1586 C1601 0.959 . S
H1587 C1601 0.961 . S
H1588 C1602 0.960 . S
H1589 C1602 0.961 . S
H1590 C1602 0.959 . S
H1591 C1605 0.929 . S
H1592 C1606 0.931 . S
H1593 C1608 0.930 . S
C1594 H1582 0.930 . S
C1594 C1595 1.399 . S
C1594 C1599 1.399 . S
C1595 C1594 1.399 . S
C1595 C1596 1.376 . S
C1596 H1583 0.930 . S
C1596 C1595 1.376 . S
C1596 C1597 1.388 . S
C1597 H1584 0.930 . S
C1597 C1596 1.388 . S
C1597 C1598 1.390 . S
C1598 C1597 1.390 . S
C1598 C1599 1.394 . S
C1598 C1604 1.465 . S
C1599 C1594 1.399 . S
C1599 C1598 1.394 . S
C1599 C1600 1.516 . S
C1600 C1599 1.516 . S
C1600 C1601 1.502 . S
C1600 C1602 1.561 . S
C1600 C1603 1.526 . S
C1601 H1585 0.959 . S
C1601 H1586 0.959 . S
C1601 H1587 0.961 . S
C1601 C1600 1.502 . S
C1602 H1588 0.960 . S
C1602 H1589 0.961 . S
C1602 H1590 0.959 . S
C1602 C1600 1.561 . S
C1603 C1600 1.526 . S
C1603 C1604 1.396 . S
C1603 C1608 1.390 . S
C1604 C1598 1.465 . S
C1604 C1603 1.396 . S
C1604 C1605 1.399 . S
C1605 H1591 0.929 . S
C1605 C1604 1.399 . S
C1605 C1606 1.385 . S
C1606 H1592 0.931 . S
C1606 C1605 1.385 . S
C1606 C1607 1.389 . S
C1607 C1606 1.389 . S
C1607 C1608 1.387 . S
C1608 H1593 0.930 . S
C1608 C1603 1.390 . S
C1608 C1607 1.387 . S
H1609 C1621 0.930 . S
H1610 C1623 0.930 . S
H1611 C1624 0.930 . S
H1612 C1628 0.959 . S
H1613 C1628 0.959 . S
H1614 C1628 0.961 . S
H1615 C1629 0.960 . S
H1616 C1629 0.961 . S
H1617 C1629 0.959 . S
H1618 C1632 0.929 . S
H1619 C1633 0.931 . S
H1620 C1635 0.930 . S
C1621 H1609 0.930 . S
C1621 C1622 1.399 . S
C1621 C1626 1.399 . S
C1622 C1621 1.399 . S
C1622 C1623 1.376 . S
C1623 H1610 0.930 . S
C1623 C1622 1.376 . S
C1623 C1624 1.388 . S
C1624 H1611 0.930 . S
C1624 C1623 1.388 . S
C1624 C1625 1.390 . S
C1625 C1624 1.390 . S
C1625 C1626 1.394 . S
C1625 C1631 1.465 . S
C1626 C1621 1.399 . S
C1626 C1625 1.394 . S
C1626 C1627 1.516 . S
C1627 C1626 1.516 . S
C1627 C1628 1.502 . S
C1627 C1629 1.561 . S
C1627 C1630 1.526 . S
C1628 H1612 0.959 . S
C1628 H1613 0.959 . S
C1628 H1614 0.961 . S
C1628 C1627 1.502 . S
C1629 H1615 0.960 . S
C1629 H1616 0.961 . S
C1629 H1617 0.959 . S
C1629 C1627 1.561 . S
C1630 C1627 1.526 . S
C1630 C1631 1.396 . S
C1630 C1635 1.390 . S
C1631 C1625 1.465 . S
C1631 C1630 1.396 . S
C1631 C1632 1.399 . S
C1632 H1618 0.929 . S
C1632 C1631 1.399 . S
C1632 C1633 1.385 . S
C1633 H1619 0.931 . S
C1633 C1632 1.385 . S
C1633 C1634 1.389 . S
C1634 C1633 1.389 . S
C1634 C1635 1.387 . S
C1635 H1620 0.930 . S
C1635 C1630 1.390 . S
C1635 C1634 1.387 . S
H1636 C1648 0.930 . S
H1637 C1650 0.930 . S
H1638 C1651 0.930 . S
H1639 C1655 0.959 . S
H1640 C1655 0.959 . S
H1641 C1655 0.961 . S
H1642 C1656 0.960 . S
H1643 C1656 0.961 . S
H1644 C1656 0.959 . S
H1645 C1659 0.929 . S
H1646 C1660 0.931 . S
H1647 C1662 0.930 . S
C1648 H1636 0.930 . S
C1648 C1649 1.399 . S
C1648 C1653 1.399 . S
C1649 C1648 1.399 . S
C1649 C1650 1.376 . S
C1650 H1637 0.930 . S
C1650 C1649 1.376 . S
C1650 C1651 1.388 . S
C1651 H1638 0.930 . S
C1651 C1650 1.388 . S
C1651 C1652 1.390 . S
C1652 C1651 1.390 . S
C1652 C1653 1.394 . S
C1652 C1658 1.465 . S
C1653 C1648 1.399 . S
C1653 C1652 1.394 . S
C1653 C1654 1.516 . S
C1654 C1653 1.516 . S
C1654 C1655 1.502 . S
C1654 C1656 1.561 . S
C1654 C1657 1.526 . S
C1655 H1639 0.959 . S
C1655 H1640 0.959 . S
C1655 H1641 0.961 . S
C1655 C1654 1.502 . S
C1656 H1642 0.960 . S
C1656 H1643 0.961 . S
C1656 H1644 0.959 . S
C1656 C1654 1.561 . S
C1657 C1654 1.526 . S
C1657 C1658 1.396 . S
C1657 C1662 1.390 . S
C1658 C1652 1.465 . S
C1658 C1657 1.396 . S
C1658 C1659 1.399 . S
C1659 H1645 0.929 . S
C1659 C1658 1.399 . S
C1659 C1660 1.385 . S
C1660 H1646 0.931 . S
C1660 C1659 1.385 . S
C1660 C1661 1.389 . S
C1661 C1660 1.389 . S
C1661 C1662 1.387 . S
C1662 H1647 0.930 . S
C1662 C1657 1.390 . S
C1662 C1661 1.387 . S
H1663 C1675 0.930 . S
H1664 C1677 0.930 . S
H1665 C1678 0.930 . S
H1666 C1682 0.959 . S
H1667 C1682 0.959 . S
H1668 C1682 0.961 . S
H1669 C1683 0.960 . S
H1670 C1683 0.961 . S
H1671 C1683 0.959 . S
H1672 C1686 0.929 . S
H1673 C1687 0.931 . S
H1674 C1689 0.930 . S
C1675 H1663 0.930 . S
C1675 C1676 1.399 . S
C1675 C1680 1.399 . S
C1676 C1675 1.399 . S
C1676 C1677 1.376 . S
C1677 H1664 0.930 . S
C1677 C1676 1.376 . S
C1677 C1678 1.388 . S
C1678 H1665 0.930 . S
C1678 C1677 1.388 . S
C1678 C1679 1.390 . S
C1679 C1678 1.390 . S
C1679 C1680 1.394 . S
C1679 C1685 1.465 . S
C1680 C1675 1.399 . S
C1680 C1679 1.394 . S
C1680 C1681 1.516 . S
C1681 C1680 1.516 . S
C1681 C1682 1.502 . S
C1681 C1683 1.561 . S
C1681 C1684 1.526 . S
C1682 H1666 0.959 . S
C1682 H1667 0.959 . S
C1682 H1668 0.961 . S
C1682 C1681 1.502 . S
C1683 H1669 0.960 . S
C1683 H1670 0.961 . S
C1683 H1671 0.959 . S
C1683 C1681 1.561 . S
C1684 C1681 1.526 . S
C1684 C1685 1.396 . S
C1684 C1689 1.390 . S
C1685 C1679 1.465 . S
C1685 C1684 1.396 . S
C1685 C1686 1.399 . S
C1686 H1672 0.929 . S
C1686 C1685 1.399 . S
C1686 C1687 1.385 . S
C1687 H1673 0.931 . S
C1687 C1686 1.385 . S
C1687 C1688 1.389 . S
C1688 C1687 1.389 . S
C1688 C1689 1.387 . S
C1689 H1674 0.930 . S
C1689 C1684 1.390 . S
C1689 C1688 1.387 . S
H1690 C1702 0.930 1_556 S
H1691 C1704 0.930 . S
H1692 C1705 0.930 . S
H1693 C1709 0.959 . S
H1694 C1709 0.959 . S
H1695 C1709 0.961 . S
H1696 C1710 0.960 . S
H1697 C1710 0.961 . S
H1698 C1710 0.959 . S
H1699 C1713 0.929 1_554 S
H1700 C1714 0.931 . S
H1701 C1716 0.930 . S
C1702 H1690 0.930 1_554 S
C1702 C1703 1.399 . S
C1702 C1707 1.399 1_554 S
C1703 C1702 1.399 . S
C1703 C1704 1.376 . S
C1704 H1691 0.930 . S
C1704 C1703 1.376 . S
C1704 C1705 1.388 . S
C1705 H1692 0.930 . S
C1705 C1704 1.388 . S
C1705 C1706 1.390 . S
C1706 C1705 1.390 . S
C1706 C1707 1.394 1_554 S
C1706 C1712 1.465 1_554 S
C1707 C1702 1.399 1_556 S
C1707 C1706 1.394 1_556 S
C1707 C1708 1.516 . S
C1708 C1707 1.516 . S
C1708 C1709 1.502 . S
C1708 C1710 1.561 . S
C1708 C1711 1.526 . S
C1709 H1693 0.959 . S
C1709 H1694 0.959 . S
C1709 H1695 0.961 . S
C1709 C1708 1.502 . S
C1710 H1696 0.960 . S
C1710 H1697 0.961 . S
C1710 H1698 0.959 . S
C1710 C1708 1.561 . S
C1711 C1708 1.526 . S
C1711 C1712 1.396 . S
C1711 C1716 1.390 . S
C1712 C1706 1.465 1_556 S
C1712 C1711 1.396 . S
C1712 C1713 1.399 . S
C1713 H1699 0.929 1_556 S
C1713 C1712 1.399 . S
C1713 C1714 1.385 . S
C1714 H1700 0.931 . S
C1714 C1713 1.385 . S
C1714 C1715 1.389 . S
C1715 C1714 1.389 . S
C1715 C1716 1.387 . S
C1716 H1701 0.930 . S
C1716 C1711 1.390 . S
C1716 C1715 1.387 . S
H1717 C1729 0.930 . S
H1718 C1731 0.930 . S
H1719 C1732 0.930 . S
H1720 C1736 0.959 . S
H1721 C1736 0.959 . S
H1722 C1736 0.961 . S
H1723 C1737 0.960 1_455 S
H1724 C1737 0.961 . S
H1725 C1737 0.959 . S
H1726 C1740 0.929 . S
H1727 C1741 0.931 . S
H1728 C1743 0.930 . S
C1729 H1717 0.930 . S
C1729 C1730 1.399 . S
C1729 C1734 1.399 . S
C1730 C1729 1.399 . S
C1730 C1731 1.376 . S
C1731 H1718 0.930 . S
C1731 C1730 1.376 . S
C1731 C1732 1.388 . S
C1732 H1719 0.930 . S
C1732 C1731 1.388 . S
C1732 C1733 1.390 . S
C1733 C1732 1.390 . S
C1733 C1734 1.394 . S
C1733 C1739 1.465 1_455 S
C1734 C1729 1.399 . S
C1734 C1733 1.394 . S
C1734 C1735 1.516 . S
C1735 C1734 1.516 . S
C1735 C1736 1.502 . S
C1735 C1737 1.561 1_455 S
C1735 C1738 1.526 1_455 S
C1736 H1720 0.959 . S
C1736 H1721 0.959 . S
C1736 H1722 0.961 . S
C1736 C1735 1.502 . S
C1737 H1723 0.960 1_655 S
C1737 H1724 0.961 . S
C1737 H1725 0.959 . S
C1737 C1735 1.561 1_655 S
C1738 C1735 1.526 1_655 S
C1738 C1739 1.396 . S
C1738 C1743 1.390 . S
C1739 C1733 1.465 1_655 S
C1739 C1738 1.396 . S
C1739 C1740 1.399 . S
C1740 H1726 0.929 . S
C1740 C1739 1.399 . S
C1740 C1741 1.385 . S
C1741 H1727 0.931 . S
C1741 C1740 1.385 . S
C1741 C1742 1.389 . S
C1742 C1741 1.389 . S
C1742 C1743 1.387 . S
C1743 H1728 0.930 . S
C1743 C1738 1.390 . S
C1743 C1742 1.387 . S
H1744 C1756 0.930 . S
H1745 C1758 0.930 . S
H1746 C1759 0.930 . S
H1747 C1763 0.959 . S
H1748 C1763 0.959 . S
H1749 C1763 0.961 . S
H1750 C1764 0.960 . S
H1751 C1764 0.961 . S
H1752 C1764 0.959 . S
H1753 C1767 0.929 . S
H1754 C1768 0.931 . S
H1755 C1770 0.930 . S
C1756 H1744 0.930 . S
C1756 C1757 1.399 . S
C1756 C1761 1.399 . S
C1757 C1756 1.399 . S
C1757 C1758 1.376 . S
C1758 H1745 0.930 . S
C1758 C1757 1.376 . S
C1758 C1759 1.388 . S
C1759 H1746 0.930 . S
C1759 C1758 1.388 . S
C1759 C1760 1.390 . S
C1760 C1759 1.390 . S
C1760 C1761 1.394 . S
C1760 C1766 1.465 . S
C1761 C1756 1.399 . S
C1761 C1760 1.394 . S
C1761 C1762 1.516 . S
C1762 C1761 1.516 . S
C1762 C1763 1.502 . S
C1762 C1764 1.561 . S
C1762 C1765 1.526 . S
C1763 H1747 0.959 . S
C1763 H1748 0.959 . S
C1763 H1749 0.961 . S
C1763 C1762 1.502 . S
C1764 H1750 0.960 . S
C1764 H1751 0.961 . S
C1764 H1752 0.959 . S
C1764 C1762 1.561 . S
C1765 C1762 1.526 . S
C1765 C1766 1.396 . S
C1765 C1770 1.390 . S
C1766 C1760 1.465 . S
C1766 C1765 1.396 . S
C1766 C1767 1.399 . S
C1767 H1753 0.929 . S
C1767 C1766 1.399 . S
C1767 C1768 1.385 . S
C1768 H1754 0.931 . S
C1768 C1767 1.385 . S
C1768 C1769 1.389 . S
C1769 C1768 1.389 . S
C1769 C1770 1.387 . S
C1770 H1755 0.930 . S
C1770 C1765 1.390 . S
C1770 C1769 1.387 . S
H1771 C1783 0.930 . S
H1772 C1785 0.930 . S
H1773 C1786 0.930 . S
H1774 C1790 0.959 . S
H1775 C1790 0.959 . S
H1776 C1790 0.961 . S
H1777 C1791 0.960 . S
H1778 C1791 0.961 . S
H1779 C1791 0.959 . S
H1780 C1794 0.929 . S
H1781 C1795 0.931 . S
H1782 C1797 0.930 . S
C1783 H1771 0.930 . S
C1783 C1784 1.399 . S
C1783 C1788 1.399 . S
C1784 C1783 1.399 . S
C1784 C1785 1.376 . S
C1785 H1772 0.930 . S
C1785 C1784 1.376 . S
C1785 C1786 1.388 . S
C1786 H1773 0.930 . S
C1786 C1785 1.388 . S
C1786 C1787 1.390 . S
C1787 C1786 1.390 . S
C1787 C1788 1.394 . S
C1787 C1793 1.465 . S
C1788 C1783 1.399 . S
C1788 C1787 1.394 . S
C1788 C1789 1.516 . S
C1789 C1788 1.516 . S
C1789 C1790 1.502 . S
C1789 C1791 1.561 . S
C1789 C1792 1.526 . S
C1790 H1774 0.959 . S
C1790 H1775 0.959 . S
C1790 H1776 0.961 . S
C1790 C1789 1.502 . S
C1791 H1777 0.960 . S
C1791 H1778 0.961 . S
C1791 H1779 0.959 . S
C1791 C1789 1.561 . S
C1792 C1789 1.526 . S
C1792 C1793 1.396 . S
C1792 C1797 1.390 . S
C1793 C1787 1.465 . S
C1793 C1792 1.396 . S
C1793 C1794 1.399 . S
C1794 H1780 0.929 . S
C1794 C1793 1.399 . S
C1794 C1795 1.385 . S
C1795 H1781 0.931 . S
C1795 C1794 1.385 . S
C1795 C1796 1.389 . S
C1796 C1795 1.389 . S
C1796 C1797 1.387 . S
C1797 H1782 0.930 . S
C1797 C1792 1.390 . S
C1797 C1796 1.387 . S
H1798 C1810 0.930 . S
H1799 C1812 0.930 1_556 S
H1800 C1813 0.930 . S
H1801 C1817 0.959 . S
H1802 C1817 0.959 . S
H1803 C1817 0.961 . S
H1804 C1818 0.960 . S
H1805 C1818 0.961 . S
H1806 C1818 0.959 . S
H1807 C1821 0.929 . S
H1808 C1822 0.931 . S
H1809 C1824 0.930 . S
C1810 H1798 0.930 . S
C1810 C1811 1.399 . S
C1810 C1815 1.399 . S
C1811 C1810 1.399 . S
C1811 C1812 1.376 . S
C1812 H1799 0.930 1_554 S
C1812 C1811 1.376 . S
C1812 C1813 1.388 1_554 S
C1813 H1800 0.930 . S
C1813 C1812 1.388 1_556 S
C1813 C1814 1.390 . S
C1814 C1813 1.390 . S
C1814 C1815 1.394 1_556 S
C1814 C1820 1.465 . S
C1815 C1810 1.399 . S
C1815 C1814 1.394 1_554 S
C1815 C1816 1.516 . S
C1816 C1815 1.516 . S
C1816 C1817 1.502 . S
C1816 C1818 1.561 . S
C1816 C1819 1.526 1_554 S
C1817 H1801 0.959 . S
C1817 H1802 0.959 . S
C1817 H1803 0.961 . S
C1817 C1816 1.502 . S
C1818 H1804 0.960 . S
C1818 H1805 0.961 . S
C1818 H1806 0.959 . S
C1818 C1816 1.561 . S
C1819 C1816 1.526 1_556 S
C1819 C1820 1.396 . S
C1819 C1824 1.390 . S
C1820 C1814 1.465 . S
C1820 C1819 1.396 . S
C1820 C1821 1.399 . S
C1821 H1807 0.929 . S
C1821 C1820 1.399 . S
C1821 C1822 1.385 . S
C1822 H1808 0.931 . S
C1822 C1821 1.385 . S
C1822 C1823 1.389 . S
C1823 C1822 1.389 . S
C1823 C1824 1.387 . S
C1824 H1809 0.930 . S
C1824 C1819 1.390 . S
C1824 C1823 1.387 . S
H1825 C1837 0.930 . S
H1826 C1839 0.930 . S
H1827 C1840 0.930 . S
H1828 C1844 0.959 . S
H1829 C1844 0.959 . S
H1830 C1844 0.961 . S
H1831 C1845 0.960 . S
H1832 C1845 0.961 . S
H1833 C1845 0.959 . S
H1834 C1848 0.929 1_655 S
H1835 C1849 0.931 . S
H1836 C1851 0.930 . S
C1837 H1825 0.930 . S
C1837 C1838 1.399 . S
C1837 C1842 1.399 . S
C1838 C1837 1.399 . S
C1838 C1839 1.376 . S
C1839 H1826 0.930 . S
C1839 C1838 1.376 . S
C1839 C1840 1.388 . S
C1840 H1827 0.930 . S
C1840 C1839 1.388 . S
C1840 C1841 1.390 . S
C1841 C1840 1.390 . S
C1841 C1842 1.394 . S
C1841 C1847 1.465 1_655 S
C1842 C1837 1.399 . S
C1842 C1841 1.394 . S
C1842 C1843 1.516 1_655 S
C1843 C1842 1.516 1_455 S
C1843 C1844 1.502 . S
C1843 C1845 1.561 . S
C1843 C1846 1.526 . S
C1844 H1828 0.959 . S
C1844 H1829 0.959 . S
C1844 H1830 0.961 . S
C1844 C1843 1.502 . S
C1845 H1831 0.960 . S
C1845 H1832 0.961 . S
C1845 H1833 0.959 . S
C1845 C1843 1.561 . S
C1846 C1843 1.526 . S
C1846 C1847 1.396 . S
C1846 C1851 1.390 . S
C1847 C1841 1.465 1_455 S
C1847 C1846 1.396 . S
C1847 C1848 1.399 . S
C1848 H1834 0.929 1_455 S
C1848 C1847 1.399 . S
C1848 C1849 1.385 . S
C1849 H1835 0.931 . S
C1849 C1848 1.385 . S
C1849 C1850 1.389 . S
C1850 C1849 1.389 . S
C1850 C1851 1.387 . S
C1851 H1836 0.930 . S
C1851 C1846 1.390 . S
C1851 C1850 1.387 . S
H1852 C1864 0.930 . S
H1853 C1866 0.930 . S
H1854 C1867 0.930 . S
H1855 C1871 0.959 1_554 S
H1856 C1871 0.959 . S
H1857 C1871 0.961 . S
H1858 C1872 0.960 . S
H1859 C1872 0.961 . S
H1860 C1872 0.959 . S
H1861 C1875 0.929 . S
H1862 C1876 0.931 . S
H1863 C1878 0.930 . S
C1864 H1852 0.930 . S
C1864 C1865 1.399 . S
C1864 C1869 1.399 . S
C1865 C1864 1.399 . S
C1865 C1866 1.376 . S
C1866 H1853 0.930 . S
C1866 C1865 1.376 . S
C1866 C1867 1.388 1_556 S
C1867 H1854 0.930 . S
C1867 C1866 1.388 1_554 S
C1867 C1868 1.390 . S
C1868 C1867 1.390 . S
C1868 C1869 1.394 1_554 S
C1868 C1874 1.465 . S
C1869 C1864 1.399 . S
C1869 C1868 1.394 1_556 S
C1869 C1870 1.516 . S
C1870 C1869 1.516 . S
C1870 C1871 1.502 . S
C1870 C1872 1.561 . S
C1870 C1873 1.526 1_556 S
C1871 H1855 0.959 1_556 S
C1871 H1856 0.959 . S
C1871 H1857 0.961 . S
C1871 C1870 1.502 . S
C1872 H1858 0.960 . S
C1872 H1859 0.961 . S
C1872 H1860 0.959 . S
C1872 C1870 1.561 . S
C1873 C1870 1.526 1_554 S
C1873 C1874 1.396 . S
C1873 C1878 1.390 . S
C1874 C1868 1.465 . S
C1874 C1873 1.396 . S
C1874 C1875 1.399 . S
C1875 H1861 0.929 . S
C1875 C1874 1.399 . S
C1875 C1876 1.385 . S
C1876 H1862 0.931 . S
C1876 C1875 1.385 . S
C1876 C1877 1.389 . S
C1877 C1876 1.389 . S
C1877 C1878 1.387 . S
C1878 H1863 0.930 . S
C1878 C1873 1.390 . S
C1878 C1877 1.387 . S
H1879 C1891 0.930 . S
H1880 C1893 0.930 . S
H1881 C1894 0.930 . S
H1882 C1898 0.959 . S
H1883 C1898 0.959 . S
H1884 C1898 0.961 . S
H1885 C1899 0.960 1_655 S
H1886 C1899 0.961 . S
H1887 C1899 0.959 1_655 S
H1888 C1902 0.929 . S
H1889 C1903 0.931 . S
H1890 C1905 0.930 . S
C1891 H1879 0.930 . S
C1891 C1892 1.399 . S
C1891 C1896 1.399 . S
C1892 C1891 1.399 . S
C1892 C1893 1.376 . S
C1893 H1880 0.930 . S
C1893 C1892 1.376 . S
C1893 C1894 1.388 . S
C1894 H1881 0.930 . S
C1894 C1893 1.388 . S
C1894 C1895 1.390 . S
C1895 C1894 1.390 . S
C1895 C1896 1.394 . S
C1895 C1901 1.465 1_655 S
C1896 C1891 1.399 . S
C1896 C1895 1.394 . S
C1896 C1897 1.516 1_655 S
C1897 C1896 1.516 1_455 S
C1897 C1898 1.502 . S
C1897 C1899 1.561 . S
C1897 C1900 1.526 . S
C1898 H1882 0.959 . S
C1898 H1883 0.959 . S
C1898 H1884 0.961 . S
C1898 C1897 1.502 . S
C1899 H1885 0.960 1_455 S
C1899 H1886 0.961 . S
C1899 H1887 0.959 1_455 S
C1899 C1897 1.561 . S
C1900 C1897 1.526 . S
C1900 C1901 1.396 . S
C1900 C1905 1.390 . S
C1901 C1895 1.465 1_455 S
C1901 C1900 1.396 . S
C1901 C1902 1.399 . S
C1902 H1888 0.929 . S
C1902 C1901 1.399 . S
C1902 C1903 1.385 . S
C1903 H1889 0.931 . S
C1903 C1902 1.385 . S
C1903 C1904 1.389 . S
C1904 C1903 1.389 . S
C1904 C1905 1.387 . S
C1905 H1890 0.930 . S
C1905 C1900 1.390 . S
C1905 C1904 1.387 . S
H1906 C1918 0.930 . S
H1907 C1920 0.930 . S
H1908 C1921 0.930 . S
H1909 C1925 0.959 . S
H1910 C1925 0.959 . S
H1911 C1925 0.961 . S
H1912 C1926 0.960 . S
H1913 C1926 0.961 . S
H1914 C1926 0.959 . S
H1915 C1929 0.929 . S
H1916 C1930 0.931 . S
H1917 C1932 0.930 . S
C1918 H1906 0.930 . S
C1918 C1919 1.399 . S
C1918 C1923 1.399 . S
C1919 C1918 1.399 . S
C1919 C1920 1.376 . S
C1920 H1907 0.930 . S
C1920 C1919 1.376 . S
C1920 C1921 1.388 . S
C1921 H1908 0.930 . S
C1921 C1920 1.388 . S
C1921 C1922 1.390 . S
C1922 C1921 1.390 . S
C1922 C1923 1.394 . S
C1922 C1928 1.465 . S
C1923 C1918 1.399 . S
C1923 C1922 1.394 . S
C1923 C1924 1.516 . S
C1924 C1923 1.516 . S
C1924 C1925 1.502 . S
C1924 C1926 1.561 . S
C1924 C1927 1.526 . S
C1925 H1909 0.959 . S
C1925 H1910 0.959 . S
C1925 H1911 0.961 . S
C1925 C1924 1.502 . S
C1926 H1912 0.960 . S
C1926 H1913 0.961 . S
C1926 H1914 0.959 . S
C1926 C1924 1.561 . S
C1927 C1924 1.526 . S
C1927 C1928 1.396 . S
C1927 C1932 1.390 . S
C1928 C1922 1.465 . S
C1928 C1927 1.396 . S
C1928 C1929 1.399 . S
C1929 H1915 0.929 . S
C1929 C1928 1.399 . S
C1929 C1930 1.385 . S
C1930 H1916 0.931 . S
C1930 C1929 1.385 . S
C1930 C1931 1.389 . S
C1931 C1930 1.389 . S
C1931 C1932 1.387 . S
C1932 H1917 0.930 . S
C1932 C1927 1.390 . S
C1932 C1931 1.387 . S
H1933 C1945 0.930 . S
H1934 C1947 0.930 . S
H1935 C1948 0.930 . S
H1936 C1952 0.959 . S
H1937 C1952 0.959 . S
H1938 C1952 0.961 . S
H1939 C1953 0.960 . S
H1940 C1953 0.961 . S
H1941 C1953 0.959 . S
H1942 C1956 0.929 . S
H1943 C1957 0.931 . S
H1944 C1959 0.930 . S
C1945 H1933 0.930 . S
C1945 C1946 1.399 . S
C1945 C1950 1.399 . S
C1946 C1945 1.399 . S
C1946 C1947 1.376 . S
C1947 H1934 0.930 . S
C1947 C1946 1.376 . S
C1947 C1948 1.388 . S
C1948 H1935 0.930 . S
C1948 C1947 1.388 . S
C1948 C1949 1.390 . S
C1949 C1948 1.390 . S
C1949 C1950 1.394 . S
C1949 C1955 1.465 . S
C1950 C1945 1.399 . S
C1950 C1949 1.394 . S
C1950 C1951 1.516 . S
C1951 C1950 1.516 . S
C1951 C1952 1.502 . S
C1951 C1953 1.561 . S
C1951 C1954 1.526 . S
C1952 H1936 0.959 . S
C1952 H1937 0.959 . S
C1952 H1938 0.961 . S
C1952 C1951 1.502 . S
C1953 H1939 0.960 . S
C1953 H1940 0.961 . S
C1953 H1941 0.959 . S
C1953 C1951 1.561 . S
C1954 C1951 1.526 . S
C1954 C1955 1.396 . S
C1954 C1959 1.390 . S
C1955 C1949 1.465 . S
C1955 C1954 1.396 . S
C1955 C1956 1.399 . S
C1956 H1942 0.929 . S
C1956 C1955 1.399 . S
C1956 C1957 1.385 . S
C1957 H1943 0.931 . S
C1957 C1956 1.385 . S
C1957 C1958 1.389 . S
C1958 C1957 1.389 . S
C1958 C1959 1.387 . S
C1959 H1944 0.930 . S
C1959 C1954 1.390 . S
C1959 C1958 1.387 . S
H1960 C1972 0.930 . S
H1961 C1974 0.930 . S
H1962 C1975 0.930 . S
H1963 C1979 0.959 . S
H1964 C1979 0.959 . S
H1965 C1979 0.961 . S
H1966 C1980 0.960 . S
H1967 C1980 0.961 . S
H1968 C1980 0.959 . S
H1969 C1983 0.929 . S
H1970 C1984 0.931 . S
H1971 C1986 0.930 . S
C1972 H1960 0.930 . S
C1972 C1973 1.399 . S
C1972 C1977 1.399 . S
C1973 C1972 1.399 . S
C1973 C1974 1.376 . S
C1974 H1961 0.930 . S
C1974 C1973 1.376 . S
C1974 C1975 1.388 . S
C1975 H1962 0.930 . S
C1975 C1974 1.388 . S
C1975 C1976 1.390 . S
C1976 C1975 1.390 . S
C1976 C1977 1.394 . S
C1976 C1982 1.465 . S
C1977 C1972 1.399 . S
C1977 C1976 1.394 . S
C1977 C1978 1.516 . S
C1978 C1977 1.516 . S
C1978 C1979 1.502 . S
C1978 C1980 1.561 . S
C1978 C1981 1.526 . S
C1979 H1963 0.959 . S
C1979 H1964 0.959 . S
C1979 H1965 0.961 . S
C1979 C1978 1.502 . S
C1980 H1966 0.960 . S
C1980 H1967 0.961 . S
C1980 H1968 0.959 . S
C1980 C1978 1.561 . S
C1981 C1978 1.526 . S
C1981 C1982 1.396 . S
C1981 C1986 1.390 . S
C1982 C1976 1.465 . S
C1982 C1981 1.396 . S
C1982 C1983 1.399 . S
C1983 H1969 0.929 . S
C1983 C1982 1.399 . S
C1983 C1984 1.385 . S
C1984 H1970 0.931 . S
C1984 C1983 1.385 . S
C1984 C1985 1.389 . S
C1985 C1984 1.389 . S
C1985 C1986 1.387 . S
C1986 H1971 0.930 . S
C1986 C1981 1.390 . S
C1986 C1985 1.387 . S
H1987 C1999 0.930 . S
H1988 C2001 0.930 . S
H1989 C2002 0.930 . S
H1990 C2006 0.959 . S
H1991 C2006 0.959 . S
H1992 C2006 0.961 . S
H1993 C2007 0.960 . S
H1994 C2007 0.961 . S
H1995 C2007 0.959 . S
H1996 C2010 0.929 . S
H1997 C2011 0.931 . S
H1998 C2013 0.930 . S
C1999 H1987 0.930 . S
C1999 C2000 1.399 . S
C1999 C2004 1.399 . S
C2000 C1999 1.399 . S
C2000 C2001 1.376 . S
C2001 H1988 0.930 . S
C2001 C2000 1.376 . S
C2001 C2002 1.388 . S
C2002 H1989 0.930 . S
C2002 C2001 1.388 . S
C2002 C2003 1.390 . S
C2003 C2002 1.390 . S
C2003 C2004 1.394 . S
C2003 C2009 1.465 . S
C2004 C1999 1.399 . S
C2004 C2003 1.394 . S
C2004 C2005 1.516 . S
C2005 C2004 1.516 . S
C2005 C2006 1.502 . S
C2005 C2007 1.561 . S
C2005 C2008 1.526 . S
C2006 H1990 0.959 . S
C2006 H1991 0.959 . S
C2006 H1992 0.961 . S
C2006 C2005 1.502 . S
C2007 H1993 0.960 . S
C2007 H1994 0.961 . S
C2007 H1995 0.959 . S
C2007 C2005 1.561 . S
C2008 C2005 1.526 . S
C2008 C2009 1.396 . S
C2008 C2013 1.390 . S
C2009 C2003 1.465 . S
C2009 C2008 1.396 . S
C2009 C2010 1.399 . S
C2010 H1996 0.929 . S
C2010 C2009 1.399 . S
C2010 C2011 1.385 . S
C2011 H1997 0.931 . S
C2011 C2010 1.385 . S
C2011 C2012 1.389 . S
C2012 C2011 1.389 . S
C2012 C2013 1.387 . S
C2013 H1998 0.930 . S
C2013 C2008 1.390 . S
C2013 C2012 1.387 . S
H2014 C2026 0.930 . S
H2015 C2028 0.930 . S
H2016 C2029 0.930 . S
H2017 C2033 0.959 . S
H2018 C2033 0.959 . S
H2019 C2033 0.961 . S
H2020 C2034 0.960 . S
H2021 C2034 0.961 . S
H2022 C2034 0.959 . S
H2023 C2037 0.929 . S
H2024 C2038 0.931 . S
H2025 C2040 0.930 . S
C2026 H2014 0.930 . S
C2026 C2027 1.399 . S
C2026 C2031 1.399 . S
C2027 C2026 1.399 . S
C2027 C2028 1.376 . S
C2028 H2015 0.930 . S
C2028 C2027 1.376 . S
C2028 C2029 1.388 . S
C2029 H2016 0.930 . S
C2029 C2028 1.388 . S
C2029 C2030 1.390 . S
C2030 C2029 1.390 . S
C2030 C2031 1.394 . S
C2030 C2036 1.465 . S
C2031 C2026 1.399 . S
C2031 C2030 1.394 . S
C2031 C2032 1.516 1_554 S
C2032 C2031 1.516 1_556 S
C2032 C2033 1.502 . S
C2032 C2034 1.561 . S
C2032 C2035 1.526 . S
C2033 H2017 0.959 . S
C2033 H2018 0.959 . S
C2033 H2019 0.961 . S
C2033 C2032 1.502 . S
C2034 H2020 0.960 . S
C2034 H2021 0.961 . S
C2034 H2022 0.959 . S
C2034 C2032 1.561 . S
C2035 C2032 1.526 . S
C2035 C2036 1.396 1_556 S
C2035 C2040 1.390 . S
C2036 C2030 1.465 . S
C2036 C2035 1.396 1_554 S
C2036 C2037 1.399 . S
C2037 H2023 0.929 . S
C2037 C2036 1.399 . S
C2037 C2038 1.385 . S
C2038 H2024 0.931 . S
C2038 C2037 1.385 . S
C2038 C2039 1.389 1_554 S
C2039 C2038 1.389 1_556 S
C2039 C2040 1.387 . S
C2040 H2025 0.930 . S
C2040 C2035 1.390 . S
C2040 C2039 1.387 . S
H2041 C2053 0.930 . S
H2042 C2055 0.930 . S
H2043 C2056 0.930 . S
H2044 C2060 0.959 . S
H2045 C2060 0.959 . S
H2046 C2060 0.961 . S
H2047 C2061 0.960 . S
H2048 C2061 0.961 1_655 S
H2049 C2061 0.959 . S
H2050 C2064 0.929 . S
H2051 C2065 0.931 . S
H2052 C2067 0.930 . S
C2053 H2041 0.930 . S
C2053 C2054 1.399 . S
C2053 C2058 1.399 . S
C2054 C2053 1.399 . S
C2054 C2055 1.376 . S
C2055 H2042 0.930 . S
C2055 C2054 1.376 . S
C2055 C2056 1.388 . S
C2056 H2043 0.930 . S
C2056 C2055 1.388 . S
C2056 C2057 1.390 . S
C2057 C2056 1.390 . S
C2057 C2058 1.394 . S
C2057 C2063 1.465 1_455 S
C2058 C2053 1.399 . S
C2058 C2057 1.394 . S
C2058 C2059 1.516 1_455 S
C2059 C2058 1.516 1_655 S
C2059 C2060 1.502 . S
C2059 C2061 1.561 1_655 S
C2059 C2062 1.526 . S
C2060 H2044 0.959 . S
C2060 H2045 0.959 . S
C2060 H2046 0.961 . S
C2060 C2059 1.502 . S
C2061 H2047 0.960 . S
C2061 H2048 0.961 1_455 S
C2061 H2049 0.959 . S
C2061 C2059 1.561 1_455 S
C2062 C2059 1.526 . S
C2062 C2063 1.396 . S
C2062 C2067 1.390 . S
C2063 C2057 1.465 1_655 S
C2063 C2062 1.396 . S
C2063 C2064 1.399 . S
C2064 H2050 0.929 . S
C2064 C2063 1.399 . S
C2064 C2065 1.385 . S
C2065 H2051 0.931 . S
C2065 C2064 1.385 . S
C2065 C2066 1.389 . S
C2066 C2065 1.389 . S
C2066 C2067 1.387 . S
C2067 H2052 0.930 . S
C2067 C2062 1.390 . S
C2067 C2066 1.387 . S
H2068 C2080 0.930 1_556 S
H2069 C2082 0.930 . S
H2070 C2083 0.930 . S
H2071 C2087 0.959 . S
H2072 C2087 0.959 . S
H2073 C2087 0.961 . S
H2074 C2088 0.960 . S
H2075 C2088 0.961 . S
H2076 C2088 0.959 . S
H2077 C2091 0.929 1_554 S
H2078 C2092 0.931 . S
H2079 C2094 0.930 . S
C2080 H2068 0.930 1_554 S
C2080 C2081 1.399 . S
C2080 C2085 1.399 1_554 S
C2081 C2080 1.399 . S
C2081 C2082 1.376 . S
C2082 H2069 0.930 . S
C2082 C2081 1.376 . S
C2082 C2083 1.388 . S
C2083 H2070 0.930 . S
C2083 C2082 1.388 . S
C2083 C2084 1.390 . S
C2084 C2083 1.390 . S
C2084 C2085 1.394 1_554 S
C2084 C2090 1.465 1_554 S
C2085 C2080 1.399 1_556 S
C2085 C2084 1.394 1_556 S
C2085 C2086 1.516 . S
C2086 C2085 1.516 . S
C2086 C2087 1.502 . S
C2086 C2088 1.561 . S
C2086 C2089 1.526 . S
C2087 H2071 0.959 . S
C2087 H2072 0.959 . S
C2087 H2073 0.961 . S
C2087 C2086 1.502 . S
C2088 H2074 0.960 . S
C2088 H2075 0.961 . S
C2088 H2076 0.959 . S
C2088 C2086 1.561 . S
C2089 C2086 1.526 . S
C2089 C2090 1.396 . S
C2089 C2094 1.390 . S
C2090 C2084 1.465 1_556 S
C2090 C2089 1.396 . S
C2090 C2091 1.399 . S
C2091 H2077 0.929 1_556 S
C2091 C2090 1.399 . S
C2091 C2092 1.385 . S
C2092 H2078 0.931 . S
C2092 C2091 1.385 . S
C2092 C2093 1.389 . S
C2093 C2092 1.389 . S
C2093 C2094 1.387 . S
C2094 H2079 0.930 . S
C2094 C2089 1.390 . S
C2094 C2093 1.387 . S
H2095 C2107 0.930 . S
H2096 C2109 0.930 . S
H2097 C2110 0.930 . S
H2098 C2114 0.959 . S
H2099 C2114 0.959 . S
H2100 C2114 0.961 . S
H2101 C2115 0.960 . S
H2102 C2115 0.961 1_455 S
H2103 C2115 0.959 . S
H2104 C2118 0.929 . S
H2105 C2119 0.931 . S
H2106 C2121 0.930 . S
C2107 H2095 0.930 . S
C2107 C2108 1.399 . S
C2107 C2112 1.399 . S
C2108 C2107 1.399 . S
C2108 C2109 1.376 . S
C2109 H2096 0.930 . S
C2109 C2108 1.376 . S
C2109 C2110 1.388 . S
C2110 H2097 0.930 . S
C2110 C2109 1.388 . S
C2110 C2111 1.390 . S
C2111 C2110 1.390 . S
C2111 C2112 1.394 . S
C2111 C2117 1.465 1_655 S
C2112 C2107 1.399 . S
C2112 C2111 1.394 . S
C2112 C2113 1.516 1_655 S
C2113 C2112 1.516 1_455 S
C2113 C2114 1.502 . S
C2113 C2115 1.561 1_455 S
C2113 C2116 1.526 . S
C2114 H2098 0.959 . S
C2114 H2099 0.959 . S
C2114 H2100 0.961 . S
C2114 C2113 1.502 . S
C2115 H2101 0.960 . S
C2115 H2102 0.961 1_655 S
C2115 H2103 0.959 . S
C2115 C2113 1.561 1_655 S
C2116 C2113 1.526 . S
C2116 C2117 1.396 . S
C2116 C2121 1.390 . S
C2117 C2111 1.465 1_455 S
C2117 C2116 1.396 . S
C2117 C2118 1.399 . S
C2118 H2104 0.929 . S
C2118 C2117 1.399 . S
C2118 C2119 1.385 . S
C2119 H2105 0.931 . S
C2119 C2118 1.385 . S
C2119 C2120 1.389 . S
C2120 C2119 1.389 . S
C2120 C2121 1.387 . S
C2121 H2106 0.930 . S
C2121 C2116 1.390 . S
C2121 C2120 1.387 . S
H2122 C2134 0.930 . S
H2123 C2136 0.930 . S
H2124 C2137 0.930 . S
H2125 C2141 0.959 . S
H2126 C2141 0.959 . S
H2127 C2141 0.961 . S
H2128 C2142 0.960 . S
H2129 C2142 0.961 . S
H2130 C2142 0.959 . S
H2131 C2145 0.929 . S
H2132 C2146 0.931 . S
H2133 C2148 0.930 . S
C2134 H2122 0.930 . S
C2134 C2135 1.399 . S
C2134 C2139 1.399 . S
C2135 C2134 1.399 . S
C2135 C2136 1.376 . S
C2136 H2123 0.930 . S
C2136 C2135 1.376 . S
C2136 C2137 1.388 . S
C2137 H2124 0.930 . S
C2137 C2136 1.388 . S
C2137 C2138 1.390 . S
C2138 C2137 1.390 . S
C2138 C2139 1.394 . S
C2138 C2144 1.465 . S
C2139 C2134 1.399 . S
C2139 C2138 1.394 . S
C2139 C2140 1.516 . S
C2140 C2139 1.516 . S
C2140 C2141 1.502 . S
C2140 C2142 1.561 . S
C2140 C2143 1.526 . S
C2141 H2125 0.959 . S
C2141 H2126 0.959 . S
C2141 H2127 0.961 . S
C2141 C2140 1.502 . S
C2142 H2128 0.960 . S
C2142 H2129 0.961 . S
C2142 H2130 0.959 . S
C2142 C2140 1.561 . S
C2143 C2140 1.526 . S
C2143 C2144 1.396 . S
C2143 C2148 1.390 . S
C2144 C2138 1.465 . S
C2144 C2143 1.396 . S
C2144 C2145 1.399 . S
C2145 H2131 0.929 . S
C2145 C2144 1.399 . S
C2145 C2146 1.385 . S
C2146 H2132 0.931 . S
C2146 C2145 1.385 . S
C2146 C2147 1.389 . S
C2147 C2146 1.389 . S
C2147 C2148 1.387 . S
C2148 H2133 0.930 . S
C2148 C2143 1.390 . S
C2148 C2147 1.387 . S
H2149 C2161 0.930 . S
H2150 C2163 0.930 . S
H2151 C2164 0.930 . S
H2152 C2168 0.959 . S
H2153 C2168 0.959 . S
H2154 C2168 0.961 . S
H2155 C2169 0.960 . S
H2156 C2169 0.961 . S
H2157 C2169 0.959 . S
H2158 C2172 0.929 . S
H2159 C2173 0.931 . S
H2160 C2175 0.930 . S
C2161 H2149 0.930 . S
C2161 C2162 1.399 . S
C2161 C2166 1.399 . S
C2162 C2161 1.399 . S
C2162 C2163 1.376 . S
C2163 H2150 0.930 . S
C2163 C2162 1.376 . S
C2163 C2164 1.388 . S
C2164 H2151 0.930 . S
C2164 C2163 1.388 . S
C2164 C2165 1.390 . S
C2165 C2164 1.390 . S
C2165 C2166 1.394 . S
C2165 C2171 1.465 . S
C2166 C2161 1.399 . S
C2166 C2165 1.394 . S
C2166 C2167 1.516 . S
C2167 C2166 1.516 . S
C2167 C2168 1.502 . S
C2167 C2169 1.561 . S
C2167 C2170 1.526 . S
C2168 H2152 0.959 . S
C2168 H2153 0.959 . S
C2168 H2154 0.961 . S
C2168 C2167 1.502 . S
C2169 H2155 0.960 . S
C2169 H2156 0.961 . S
C2169 H2157 0.959 . S
C2169 C2167 1.561 . S
C2170 C2167 1.526 . S
C2170 C2171 1.396 . S
C2170 C2175 1.390 . S
C2171 C2165 1.465 . S
C2171 C2170 1.396 . S
C2171 C2172 1.399 . S
C2172 H2158 0.929 . S
C2172 C2171 1.399 . S
C2172 C2173 1.385 . S
C2173 H2159 0.931 . S
C2173 C2172 1.385 . S
C2173 C2174 1.389 . S
C2174 C2173 1.389 . S
C2174 C2175 1.387 . S
C2175 H2160 0.930 . S
C2175 C2170 1.390 . S
C2175 C2174 1.387 . S
C461 C89 1.466 . S
C473 C5 1.464 . S
C488 C19 1.503 . S
C500 C103 1.440 . S
C515 C61 1.493 . S
C527 C33 1.447 . S
C542 C47 1.476 . S
C554 C75 1.421 . S
C569 C201 1.524 . S
C581 C117 1.488 . S
C596 C131 1.503 . S
C608 C215 1.457 . S
C623 C173 1.522 . S
C635 C145 1.478 . S
C650 C159 1.429 . S
C662 C187 1.487 . S
C677 C229 1.462 . S
C689 C313 1.523 . S
C704 C327 1.461 . S
C716 C243 1.494 . S
C731 C257 1.496 . S
C743 C285 1.509 . S
C758 C299 1.496 . S
C770 C271 1.460 . S
C785 C425 1.444 . S
C797 C341 1.483 . S
C812 C439 1.466 . S
C824 C355 1.419 . S
C839 C397 1.444 . S
C851 C369 1.477 . S
C866 C383 1.468 . S
C878 C411 1.501 . S
C893 C109 1.105 . S
C905 C11 1.025 . S
C920 C67 1.012 . S
C932 C25 1.064 . S
C947 C81 1.039 . S
C959 C39 1.025 . S
C974 C95 1.011 . S
C986 C53 1.068 . S
C1001 C221 1.036 . S
C1013 C123 1.013 . S
C1028 C179 1.024 . S
C1040 C137 1.080 . S
C1055 C193 1.013 . S
C1067 C151 1.045 . S
C1082 C165 1.057 . S
C1094 C207 1.106 . S
C1109 C333 1.100 . S
C1121 C235 1.093 . S
C1136 C249 1.081 . S
C1148 C291 1.109 . S
C1163 C263 1.014 . S
C1175 C305 1.058 . S
C1190 C319 1.072 . S
C1202 C277 1.112 . S
C1217 C445 1.025 . S
C1229 C347 1.017 . S
C1244 C361 1.098 . S
C1256 C403 1.042 . S
C1271 C375 1.035 . S
C1283 C417 1.015 . S
C1298 C431 1.072 . S
C1310 C389 1.112 . S
C1325 C12 0.864 . S
C1337 C424 0.966 . S
C1352 C214 0.943 . S
C1364 C26 0.838 . S
C1379 C396 0.876 . S
C1391 C40 0.946 . S
C1406 C186 0.946 . S
C1418 C54 0.863 . S
C1433 C368 0.863 . S
C1445 C68 0.955 . S
C1460 C82 0.897 . S
C1472 C158 0.871 . S
C1487 C96 0.960 . S
C1499 C340 0.855 . S
C1514 C110 0.909 . S
C1526 C130 0.898 . S
C1541 C124 0.932 . S
C1553 C312 0.922 . S
C1568 C102 0.894 . S
C1580 C138 0.908 . S
C1595 C284 0.899 . S
C1607 C152 0.898 . S
C1622 C74 0.957 . S
C1634 C166 0.862 . S
C1649 C256 0.967 . S
C1661 C180 0.868 . S
C1676 C46 0.900 . S
C1688 C194 0.903 . S
C1703 C208 0.907 . S
C1715 C228 0.948 . S
C1730 C18 0.886 . S
C1742 C222 0.890 . S
C1757 C200 0.852 . S
C1769 C236 0.962 . S
C1784 C438 0.842 . S
C1796 C250 0.951 . S
C1811 C264 0.959 . S
C1823 C172 0.856 . S
C1838 C278 0.939 . S
C1850 C410 0.823 . S
C1865 C292 0.954 . S
C1877 C144 0.862 . S
C1892 C306 0.919 . S
C1904 C382 0.886 . S
C1919 C320 0.887 . S
C1931 C116 0.944 . S
C1946 C334 0.903 . S
C1958 C354 0.871 . S
C1973 C88 0.963 . S
C1985 C348 0.865 . S
C2000 C326 0.915 . S
C2012 C362 0.919 . S
C2027 C60 0.854 . S
C2039 C376 0.962 . S
C2054 C390 0.938 . S
C2066 C298 0.837 . S
C2081 C404 0.898 . S
C2093 C32 0.955 . S
C2108 C270 0.919 . S
C2120 C418 0.915 . S
C2135 C432 0.938 . S
C2147 C4 0.917 . S
C2162 C446 0.936 . S
C2174 C242 0.845 . S
