# Generated by pormake.
# Topology uks, (4)-cn, num edge types: 1
# Building blocks:
#     Node 0, Type 0, BuildingBlock: MUDLON_clean_sbu_0, # of connection points: 4
#     Node 1, Type 0, BuildingBlock: MUDLON_clean_sbu_0, # of connection points: 4
#     Node 2, Type 0, BuildingBlock: MUDLON_clean_sbu_0, # of connection points: 4
#     Node 3, Type 0, BuildingBlock: MUDLON_clean_sbu_0, # of connection points: 4
#     Node 4, Type 0, BuildingBlock: MUDLON_clean_sbu_0, # of connection points: 4
#     Node 5, Type 0, BuildingBlock: MUDLON_clean_sbu_0, # of connection points: 4
#     Node 6, Type 0, BuildingBlock: MUDLON_clean_sbu_0, # of connection points: 4
#     Node 7, Type 0, BuildingBlock: MUDLON_clean_sbu_0, # of connection points: 4
#     Node 8, Type 0, BuildingBlock: MUDLON_clean_sbu_0, # of connection points: 4
#     Node 9, Type 0, BuildingBlock: MUDLON_clean_sbu_0, # of connection points: 4
#     Node 10, Type 0, BuildingBlock: MUDLON_clean_sbu_0, # of connection points: 4
#     Node 11, Type 0, BuildingBlock: MUDLON_clean_sbu_0, # of connection points: 4
#     Node 12, Type 0, BuildingBlock: MUDLON_clean_sbu_0, # of connection points: 4
#     Node 13, Type 0, BuildingBlock: MUDLON_clean_sbu_0, # of connection points: 4
#     Node 14, Type 0, BuildingBlock: MUDLON_clean_sbu_0, # of connection points: 4
#     Node 15, Type 0, BuildingBlock: MUDLON_clean_sbu_0, # of connection points: 4
#     Node 16, Type 0, BuildingBlock: MUDLON_clean_sbu_0, # of connection points: 4
#     Node 17, Type 0, BuildingBlock: MUDLON_clean_sbu_0, # of connection points: 4
#     Node 18, Type 0, BuildingBlock: MUDLON_clean_sbu_0, # of connection points: 4
#     Node 19, Type 0, BuildingBlock: MUDLON_clean_sbu_0, # of connection points: 4
#     Node 20, Type 0, BuildingBlock: MUDLON_clean_sbu_0, # of connection points: 4
#     Node 21, Type 0, BuildingBlock: MUDLON_clean_sbu_0, # of connection points: 4
#     Node 22, Type 0, BuildingBlock: MUDLON_clean_sbu_0, # of connection points: 4
#     Node 23, Type 0, BuildingBlock: MUDLON_clean_sbu_0, # of connection points: 4
#     Edge 24, Type (0, 0), BuildingBlock: XIVTED_clean_linker_0, # of connection points: 2
#     Edge 25, Type (0, 0), BuildingBlock: XIVTED_clean_linker_0, # of connection points: 2
#     Edge 26, Type (0, 0), BuildingBlock: XIVTED_clean_linker_0, # of connection points: 2
#     Edge 27, Type (0, 0), BuildingBlock: XIVTED_clean_linker_0, # of connection points: 2
#     Edge 28, Type (0, 0), BuildingBlock: XIVTED_clean_linker_0, # of connection points: 2
#     Edge 29, Type (0, 0), BuildingBlock: XIVTED_clean_linker_0, # of connection points: 2
#     Edge 30, Type (0, 0), BuildingBlock: XIVTED_clean_linker_0, # of connection points: 2
#     Edge 31, Type (0, 0), BuildingBlock: XIVTED_clean_linker_0, # of connection points: 2
#     Edge 32, Type (0, 0), BuildingBlock: XIVTED_clean_linker_0, # of connection points: 2
#     Edge 33, Type (0, 0), BuildingBlock: XIVTED_clean_linker_0, # of connection points: 2
#     Edge 34, Type (0, 0), BuildingBlock: XIVTED_clean_linker_0, # of connection points: 2
#     Edge 35, Type (0, 0), BuildingBlock: XIVTED_clean_linker_0, # of connection points: 2
#     Edge 36, Type (0, 0), BuildingBlock: XIVTED_clean_linker_0, # of connection points: 2
#     Edge 37, Type (0, 0), BuildingBlock: XIVTED_clean_linker_0, # of connection points: 2
#     Edge 38, Type (0, 0), BuildingBlock: XIVTED_clean_linker_0, # of connection points: 2
#     Edge 39, Type (0, 0), BuildingBlock: XIVTED_clean_linker_0, # of connection points: 2
#     Edge 40, Type (0, 0), BuildingBlock: XIVTED_clean_linker_0, # of connection points: 2
#     Edge 41, Type (0, 0), BuildingBlock: XIVTED_clean_linker_0, # of connection points: 2
#     Edge 42, Type (0, 0), BuildingBlock: XIVTED_clean_linker_0, # of connection points: 2
#     Edge 43, Type (0, 0), BuildingBlock: XIVTED_clean_linker_0, # of connection points: 2
#     Edge 44, Type (0, 0), BuildingBlock: XIVTED_clean_linker_0, # of connection points: 2
#     Edge 45, Type (0, 0), BuildingBlock: XIVTED_clean_linker_0, # of connection points: 2
#     Edge 46, Type (0, 0), BuildingBlock: XIVTED_clean_linker_0, # of connection points: 2
#     Edge 47, Type (0, 0), BuildingBlock: XIVTED_clean_linker_0, # of connection points: 2
#     Edge 48, Type (0, 0), BuildingBlock: XIVTED_clean_linker_0, # of connection points: 2
#     Edge 49, Type (0, 0), BuildingBlock: XIVTED_clean_linker_0, # of connection points: 2
#     Edge 50, Type (0, 0), BuildingBlock: XIVTED_clean_linker_0, # of connection points: 2
#     Edge 51, Type (0, 0), BuildingBlock: XIVTED_clean_linker_0, # of connection points: 2
#     Edge 52, Type (0, 0), BuildingBlock: XIVTED_clean_linker_0, # of connection points: 2
#     Edge 53, Type (0, 0), BuildingBlock: XIVTED_clean_linker_0, # of connection points: 2
#     Edge 54, Type (0, 0), BuildingBlock: XIVTED_clean_linker_0, # of connection points: 2
#     Edge 55, Type (0, 0), BuildingBlock: XIVTED_clean_linker_0, # of connection points: 2
#     Edge 56, Type (0, 0), BuildingBlock: XIVTED_clean_linker_0, # of connection points: 2
#     Edge 57, Type (0, 0), BuildingBlock: XIVTED_clean_linker_0, # of connection points: 2
#     Edge 58, Type (0, 0), BuildingBlock: XIVTED_clean_linker_0, # of connection points: 2
#     Edge 59, Type (0, 0), BuildingBlock: XIVTED_clean_linker_0, # of connection points: 2
#     Edge 60, Type (0, 0), BuildingBlock: XIVTED_clean_linker_0, # of connection points: 2
#     Edge 61, Type (0, 0), BuildingBlock: XIVTED_clean_linker_0, # of connection points: 2
#     Edge 62, Type (0, 0), BuildingBlock: XIVTED_clean_linker_0, # of connection points: 2
#     Edge 63, Type (0, 0), BuildingBlock: XIVTED_clean_linker_0, # of connection points: 2
#     Edge 64, Type (0, 0), BuildingBlock: XIVTED_clean_linker_0, # of connection points: 2
#     Edge 65, Type (0, 0), BuildingBlock: XIVTED_clean_linker_0, # of connection points: 2
#     Edge 66, Type (0, 0), BuildingBlock: XIVTED_clean_linker_0, # of connection points: 2
#     Edge 67, Type (0, 0), BuildingBlock: XIVTED_clean_linker_0, # of connection points: 2
#     Edge 68, Type (0, 0), BuildingBlock: XIVTED_clean_linker_0, # of connection points: 2
#     Edge 69, Type (0, 0), BuildingBlock: XIVTED_clean_linker_0, # of connection points: 2
#     Edge 70, Type (0, 0), BuildingBlock: XIVTED_clean_linker_0, # of connection points: 2
#     Edge 71, Type (0, 0), BuildingBlock: XIVTED_clean_linker_0, # of connection points: 2
# Relax obj value: 0.065
# Max RMSD: 0.060
# Mean RMSD: 0.060
data_MOF--net-uks--node1-MUDLON_clean_sbu_0--edge1-XIVTED_clean_linker_0
_symmetry_space_group_name_H-M    P1
_symmetry_Int_Tables_number       1
_symmetry_cell_setting            triclinic
loop_
_symmetry_equiv_pos_as_xyz
'x, y, z'
_cell_length_a     56.35159
_cell_length_b     56.857293
_cell_length_c     56.780329
_cell_angle_alpha  90.169296
_cell_angle_beta   89.915625
_cell_angle_gamma 89.84768
loop_
_atom_site_label
_atom_site_type_symbol
_atom_site_fract_x
_atom_site_fract_y
_atom_site_fract_z
_atom_type_partial_charge
Mg0 Mg 0.15207 0.36927 0.70507 0.0
C1 C 0.20331 0.38005 0.69105 0.0
O2 O 0.19419 0.40123 0.6895 0.0
C3 C 0.10123 0.36388 0.68801 0.0
O4 O 0.09927 0.38049 0.70405 0.0
C5 C 0.14344 0.41825 0.68738 0.0
O6 O 0.13654 0.40501 0.66969 0.0
O7 O 0.14965 0.40818 0.70649 0.0
O8 O 0.18933 0.36269 0.69422 0.0
O9 O 0.15234 0.34882 0.73812 0.0
C10 C 0.13504 0.33625 0.74516 0.0
O11 O 0.1145 0.33806 0.73443 0.0
O12 O 0.12192 0.3556 0.68362 0.0
Mg13 Mg 0.629 0.63455 0.19781 0.0
C14 C 0.62422 0.68089 0.2157 0.0
O15 O 0.63328 0.68114 0.19436 0.0
C16 C 0.63036 0.58434 0.18118 0.0
O17 O 0.63284 0.59671 0.16183 0.0
C18 C 0.58558 0.63809 0.16709 0.0
O19 O 0.5816 0.61802 0.17777 0.0
O20 O 0.60578 0.64782 0.16964 0.0
O21 O 0.61914 0.6609 0.22469 0.0
O22 O 0.66722 0.64141 0.19929 0.0
C23 C 0.67538 0.6317 0.21783 0.0
O24 O 0.66099 0.61848 0.23027 0.0
O25 O 0.62676 0.59544 0.20049 0.0
Mg26 Mg 0.38462 0.13513 0.70718 0.0
C27 C 0.37083 0.16932 0.74686 0.0
O28 O 0.34966 0.16192 0.74072 0.0
C29 C 0.36384 0.08497 0.71658 0.0
O30 O 0.34588 0.09682 0.7255 0.0
C31 C 0.43483 0.12993 0.69129 0.0
O32 O 0.43247 0.11445 0.70827 0.0
O33 O 0.4166 0.14195 0.68542 0.0
O34 O 0.38897 0.15919 0.73783 0.0
O35 O 0.34934 0.14562 0.6943 0.0
C36 C 0.33474 0.13128 0.68501 0.0
O37 O 0.34279 0.11132 0.67641 0.0
O38 O 0.38249 0.09618 0.71051 0.0
Mg39 Mg 0.87249 0.87512 0.2075 0.0
C40 C 0.83878 0.89392 0.24581 0.0
O41 O 0.83876 0.91244 0.23204 0.0
C42 C 0.92546 0.86836 0.2215 0.0
O43 O 0.91612 0.85596 0.23865 0.0
C44 C 0.86874 0.91831 0.17534 0.0
O45 O 0.89193 0.91669 0.17707 0.0
O46 O 0.85603 0.90247 0.18496 0.0
O47 O 0.85304 0.87705 0.2412 0.0
O48 O 0.86637 0.83793 0.19809 0.0
C49 C 0.88349 0.82441 0.19222 0.0
O50 O 0.90421 0.83375 0.18742 0.0
O51 O 0.91163 0.87928 0.20751 0.0
Mg52 Mg 0.15375 0.13067 0.81289 0.0
C53 C 0.14865 0.18229 0.82792 0.0
O54 O 0.12842 0.17444 0.83618 0.0
C55 C 0.15502 0.08082 0.83159 0.0
O56 O 0.13751 0.08047 0.81634 0.0
C57 C 0.10221 0.13009 0.8295 0.0
O58 O 0.11297 0.12224 0.84844 0.0
O59 O 0.11454 0.13328 0.8109 0.0
O60 O 0.16418 0.16739 0.82103 0.0
O61 O 0.17274 0.12523 0.77933 0.0
C62 C 0.1788 0.14295 0.767 0.0
O63 O 0.17017 0.16371 0.7726 0.0
O64 O 0.16549 0.10042 0.83528 0.0
Mg65 Mg 0.8789 0.64174 0.30357 0.0
C66 C 0.87596 0.66016 0.25276 0.0
O67 O 0.85598 0.6483 0.25249 0.0
C68 C 0.86486 0.59518 0.32336 0.0
O69 O 0.85135 0.61038 0.3346 0.0
C70 C 0.91354 0.67683 0.32507 0.0
O71 O 0.90766 0.68813 0.30578 0.0
O72 O 0.90291 0.65762 0.32983 0.0
O73 O 0.89019 0.65724 0.26993 0.0
O74 O 0.84097 0.65013 0.30513 0.0
C75 C 0.83138 0.66784 0.29524 0.0
O76 O 0.84488 0.6853 0.28826 0.0
O77 O 0.87956 0.60301 0.30812 0.0
Mg78 Mg 0.39591 0.38527 0.79893 0.0
C79 C 0.36865 0.37173 0.75378 0.0
O80 O 0.37982 0.35164 0.75667 0.0
C81 C 0.4447 0.3944 0.81667 0.0
O82 O 0.43072 0.39797 0.83488 0.0
C83 C 0.36413 0.42566 0.81857 0.0
O84 O 0.34991 0.41796 0.80195 0.0
O85 O 0.38334 0.41433 0.82257 0.0
O86 O 0.37423 0.38917 0.76681 0.0
O87 O 0.39199 0.34749 0.80793 0.0
C88 C 0.3727 0.33589 0.80642 0.0
O89 O 0.35272 0.34745 0.80334 0.0
O90 O 0.43506 0.38933 0.79695 0.0
Mg91 Mg 0.63095 0.88687 0.31349 0.0
C92 C 0.62164 0.8388 0.29695 0.0
O93 O 0.61978 0.83842 0.31999 0.0
C94 C 0.6277 0.93718 0.32361 0.0
O95 O 0.62298 0.92596 0.34326 0.0
C96 C 0.59139 0.87148 0.35203 0.0
O97 O 0.60755 0.86029 0.36436 0.0
O98 O 0.59758 0.88289 0.33375 0.0
O99 O 0.62663 0.8584 0.28712 0.0
O100 O 0.66792 0.88351 0.32609 0.0
C101 C 0.68149 0.86694 0.31895 0.0
O102 O 0.67196 0.84853 0.30871 0.0
O103 O 0.63123 0.92492 0.30502 0.0
Mg104 Mg 0.70233 0.14867 0.3604 0.0
C105 C 0.74202 0.12988 0.32862 0.0
O106 O 0.72877 0.11092 0.32926 0.0
C107 C 0.70392 0.16824 0.41038 0.0
O108 O 0.71084 0.18676 0.39846 0.0
C109 C 0.67106 0.10458 0.36019 0.0
O110 O 0.67128 0.10921 0.38287 0.0
O111 O 0.68119 0.11895 0.34623 0.0
O112 O 0.7368 0.14706 0.34216 0.0
O113 O 0.69163 0.18489 0.35256 0.0
C114 C 0.70013 0.1952 0.33458 0.0
O115 O 0.70974 0.18231 0.31784 0.0
O116 O 0.70116 0.14882 0.39936 0.0
Mg117 Mg 0.88777 0.20176 0.86786 0.0
C118 C 0.88969 0.17859 0.81813 0.0
O119 O 0.9082 0.16714 0.82628 0.0
C120 C 0.88667 0.1864 0.91848 0.0
O121 O 0.90645 0.19847 0.91679 0.0
C122 C 0.93982 0.20375 0.84966 0.0
O123 O 0.93 0.21523 0.83213 0.0
O124 O 0.92696 0.19815 0.86729 0.0
O125 O 0.87675 0.19028 0.83247 0.0
O126 O 0.87101 0.23701 0.86772 0.0
C127 C 0.85843 0.24466 0.88482 0.0
O128 O 0.85853 0.23306 0.90478 0.0
O129 O 0.87431 0.18352 0.89984 0.0
Mg130 Mg 0.82921 0.37455 0.3673 0.0
C131 C 0.79442 0.33865 0.35414 0.0
O132 O 0.8141 0.33314 0.34298 0.0
C133 C 0.84965 0.4223 0.36238 0.0
O134 O 0.86638 0.40786 0.35508 0.0
C135 C 0.84515 0.33945 0.40573 0.0
O136 O 0.82569 0.32896 0.39862 0.0
O137 O 0.85187 0.35803 0.39499 0.0
O138 O 0.79447 0.35651 0.36783 0.0
O139 O 0.83737 0.37129 0.32937 0.0
C140 C 0.82456 0.38567 0.31769 0.0
O141 O 0.81053 0.4001 0.32929 0.0
O142 O 0.83071 0.41339 0.37094 0.0
Mg143 Mg 0.65829 0.33654 0.86311 0.0
C144 C 0.65922 0.29292 0.83191 0.0
O145 O 0.68175 0.29266 0.83777 0.0
C146 C 0.67019 0.32525 0.91519 0.0
O147 O 0.68621 0.3114 0.90558 0.0
C148 C 0.61394 0.36569 0.86197 0.0
O149 O 0.61352 0.35674 0.88326 0.0
O150 O 0.63249 0.36254 0.84939 0.0
O151 O 0.64515 0.30692 0.84252 0.0
O152 O 0.69671 0.33703 0.85484 0.0
C153 C 0.7123 0.34394 0.86957 0.0
O154 O 0.70533 0.35602 0.88809 0.0
O155 O 0.65542 0.33584 0.9019 0.0
Mg156 Mg 0.70274 0.37281 0.13561 0.0
C157 C 0.74678 0.39167 0.16281 0.0
O158 O 0.73971 0.41234 0.15522 0.0
C159 C 0.68734 0.37278 0.08567 0.0
O160 O 0.66751 0.37585 0.09749 0.0
C161 C 0.68106 0.41437 0.16525 0.0
O162 O 0.69332 0.40474 0.18238 0.0
O163 O 0.68064 0.4041 0.14519 0.0
O164 O 0.73574 0.37336 0.15611 0.0
O165 O 0.69002 0.33648 0.1403 0.0
C166 C 0.69929 0.32303 0.15572 0.0
O167 O 0.71226 0.33247 0.17244 0.0
O168 O 0.70681 0.37232 0.0971 0.0
Mg169 Mg 0.64044 0.20509 0.626 0.0
C170 C 0.68964 0.20177 0.64998 0.0
O171 O 0.67771 0.20642 0.66928 0.0
C172 C 0.6027 0.16451 0.63979 0.0
O173 O 0.61992 0.15236 0.64956 0.0
C174 C 0.64513 0.19203 0.57696 0.0
O175 O 0.64261 0.17263 0.58924 0.0
O176 O 0.64345 0.21165 0.58788 0.0
O177 O 0.67825 0.1959 0.63145 0.0
O178 O 0.63516 0.23203 0.65369 0.0
C179 C 0.62921 0.22188 0.67285 0.0
O180 O 0.62505 0.1992 0.67213 0.0
O181 O 0.60757 0.18373 0.62937 0.0
Mg182 Mg 0.79606 0.12625 0.12208 0.0
C183 C 0.76003 0.16499 0.11251 0.0
O184 O 0.77451 0.16807 0.09465 0.0
C185 C 0.81483 0.07763 0.11994 0.0
O186 O 0.83232 0.09111 0.1128 0.0
C187 C 0.83312 0.1436 0.08329 0.0
O188 O 0.84789 0.1472 0.1008 0.0
O189 O 0.81247 0.13563 0.08772 0.0
O190 O 0.76305 0.14707 0.12567 0.0
O191 O 0.81294 0.1339 0.15608 0.0
C192 C 0.80643 0.15162 0.16832 0.0
O193 O 0.79496 0.16878 0.15784 0.0
O194 O 0.79486 0.08737 0.12434 0.0
Mg195 Mg 0.90008 0.27687 0.61632 0.0
C196 C 0.85088 0.27783 0.64111 0.0
O197 O 0.86345 0.27745 0.66052 0.0
C198 C 0.94936 0.29461 0.6227 0.0
O199 O 0.95154 0.2747 0.61107 0.0
C200 C 0.904 0.29543 0.56719 0.0
O201 O 0.90877 0.31371 0.58057 0.0
O202 O 0.901 0.27552 0.57718 0.0
O203 O 0.86141 0.28155 0.62158 0.0
O204 O 0.90515 0.24625 0.64 0.0
C205 C 0.90977 0.25295 0.661 0.0
O206 O 0.91455 0.27528 0.66449 0.0
O207 O 0.92838 0.30191 0.62744 0.0
Mg208 Mg 0.37476 0.71137 0.14302 0.0
C209 C 0.34361 0.75148 0.125 0.0
O210 O 0.34645 0.74008 0.10504 0.0
C211 C 0.42895 0.71676 0.14927 0.0
O212 O 0.42253 0.72766 0.16871 0.0
C213 C 0.36909 0.67767 0.10125 0.0
O214 O 0.39184 0.67491 0.10544 0.0
O215 O 0.35685 0.69023 0.11545 0.0
O216 O 0.35549 0.74497 0.1429 0.0
O217 O 0.37344 0.70117 0.18043 0.0
C218 C 0.35719 0.70892 0.19406 0.0
O219 O 0.3388 0.71966 0.18475 0.0
O220 O 0.41298 0.71029 0.13478 0.0
Mg221 Mg 0.37947 0.79612 0.39705 0.0
C222 C 0.39347 0.7627 0.3569 0.0
O223 O 0.41172 0.77697 0.35606 0.0
C224 C 0.38802 0.8123 0.44544 0.0
O225 O 0.39322 0.83 0.43156 0.0
C226 C 0.41873 0.82922 0.37221 0.0
O227 O 0.40348 0.83454 0.35557 0.0
O228 O 0.41241 0.81566 0.38888 0.0
O229 O 0.37876 0.7648 0.3739 0.0
O230 O 0.34341 0.80998 0.39005 0.0
C231 C 0.32803 0.80823 0.40651 0.0
O232 O 0.33531 0.80238 0.42765 0.0
O233 O 0.38163 0.79296 0.43589 0.0
Mg234 Mg 0.21635 0.86901 0.89561 0.0
C235 C 0.21816 0.84157 0.84984 0.0
O236 O 0.22667 0.8251 0.86363 0.0
C237 C 0.18126 0.84041 0.9281 0.0
O238 O 0.18496 0.82282 0.91347 0.0
C239 C 0.19636 0.9165 0.88722 0.0
O240 O 0.17876 0.90146 0.88561 0.0
O241 O 0.21685 0.90829 0.89247 0.0
O242 O 0.20827 0.85951 0.85918 0.0
O243 O 0.24905 0.84741 0.90031 0.0
C244 C 0.24918 0.82949 0.91388 0.0
O245 O 0.23239 0.82759 0.92977 0.0
O246 O 0.19076 0.86029 0.92384 0.0
Mg247 Mg 0.12466 0.71929 0.39028 0.0
C248 C 0.11691 0.70375 0.33934 0.0
O249 O 0.09476 0.70403 0.34653 0.0
C250 C 0.15079 0.69548 0.43149 0.0
O251 O 0.16902 0.70593 0.42162 0.0
C252 C 0.07265 0.7098 0.3962 0.0
O253 O 0.08253 0.69165 0.40661 0.0
O254 O 0.08609 0.72628 0.38885 0.0
O255 O 0.13335 0.70633 0.35455 0.0
O256 O 0.14956 0.7489 0.3952 0.0
C257 C 0.16167 0.75657 0.37783 0.0
O258 O 0.15634 0.74925 0.35653 0.0
O259 O 0.13065 0.6966 0.42136 0.0
Mg260 Mg 0.30561 0.63887 0.88495 0.0
C261 C 0.27391 0.65926 0.84609 0.0
O262 O 0.29328 0.67142 0.84221 0.0
C263 C 0.32249 0.63754 0.93477 0.0
O264 O 0.33927 0.62677 0.92279 0.0
C265 C 0.33513 0.59264 0.87453 0.0
O266 O 0.35338 0.60688 0.87611 0.0
O267 O 0.31428 0.60105 0.87763 0.0
O268 O 0.27329 0.64546 0.86378 0.0
O269 O 0.3346 0.66096 0.87178 0.0
C270 C 0.34052 0.68248 0.86893 0.0
O271 O 0.36126 0.68649 0.85914 0.0
O272 O 0.30427 0.64478 0.92357 0.0
Mg273 Mg 0.13147 0.80571 0.14499 0.0
C274 C 0.14456 0.76513 0.17767 0.0
O275 O 0.16594 0.77271 0.17259 0.0
C276 C 0.12384 0.81982 0.09457 0.0
O277 O 0.11755 0.83883 0.10625 0.0
C278 C 0.0935 0.82653 0.1774 0.0
O279 O 0.10415 0.812 0.19192 0.0
O280 O 0.10219 0.82914 0.1568 0.0
O281 O 0.12688 0.77397 0.16678 0.0
O282 O 0.16872 0.81597 0.15143 0.0
C283 C 0.18231 0.82139 0.1343 0.0
O284 O 0.17278 0.82555 0.11366 0.0
O285 O 0.12922 0.80146 0.10632 0.0
Mg286 Mg 0.1918 0.6376 0.64717 0.0
C287 C 0.23116 0.67316 0.65551 0.0
O288 O 0.22621 0.6682 0.67753 0.0
C289 C 0.17657 0.58736 0.64506 0.0
O290 O 0.15831 0.59891 0.6365 0.0
C291 C 0.18296 0.63945 0.59688 0.0
O292 O 0.20329 0.62861 0.60031 0.0
O293 O 0.17097 0.64549 0.61505 0.0
O294 O 0.22249 0.66018 0.63935 0.0
O295 O 0.18203 0.6498 0.68296 0.0
C296 C 0.18093 0.63496 0.69977 0.0
O297 O 0.17966 0.6125 0.69453 0.0
O298 O 0.19529 0.59892 0.65007 0.0
Mg299 Mg 0.31856 0.87082 0.64929 0.0
C300 C 0.28748 0.83709 0.6214 0.0
O301 O 0.30458 0.83871 0.60577 0.0
C302 C 0.34083 0.91805 0.65848 0.0
O303 O 0.35851 0.90328 0.66164 0.0
C304 C 0.35255 0.86705 0.60858 0.0
O305 O 0.34574 0.88911 0.60711 0.0
O306 O 0.34601 0.85513 0.62642 0.0
O307 O 0.28643 0.85229 0.63793 0.0
O308 O 0.31482 0.86087 0.68628 0.0
C309 C 0.29656 0.87171 0.69409 0.0
O310 O 0.28588 0.8867 0.68004 0.0
O311 O 0.32098 0.90981 0.65145 0.0
H312 H 0.18464 0.20509 0.80386 0.0
H313 H 0.10168 0.31347 0.77157 0.0
H314 H 0.1163 0.2173 0.83614 0.0
H315 H 0.1769 0.31434 0.75748 0.0
H316 H 0.10717 0.27827 0.79559 0.0
H317 H 0.18312 0.24495 0.7873 0.0
C318 C 0.16954 0.21624 0.80786 0.0
C319 C 0.1505 0.20763 0.82133 0.0
C320 C 0.12256 0.28629 0.78752 0.0
C321 C 0.14846 0.25316 0.80201 0.0
C322 C 0.11942 0.30644 0.77378 0.0
C323 C 0.13883 0.31694 0.76246 0.0
C324 C 0.14524 0.27613 0.78965 0.0
C325 C 0.16142 0.30694 0.76597 0.0
C326 C 0.16865 0.23899 0.79832 0.0
C327 C 0.13137 0.22297 0.82577 0.0
N328 N 0.16396 0.28691 0.77895 0.0
N329 N 0.1307 0.24474 0.81591 0.0
H330 H 0.69906 0.60687 0.25104 0.0
H331 H 0.80866 0.69561 0.26257 0.0
H332 H 0.70606 0.66821 0.20705 0.0
H333 H 0.79856 0.63401 0.30565 0.0
H334 H 0.77103 0.68719 0.24265 0.0
H335 H 0.73586 0.61705 0.27071 0.0
C336 C 0.70847 0.62245 0.24535 0.0
C337 C 0.69937 0.63672 0.22734 0.0
C338 C 0.77697 0.67566 0.2566 0.0
C339 C 0.74178 0.64875 0.25022 0.0
C340 C 0.79836 0.68056 0.26816 0.0
C341 C 0.80687 0.66548 0.28587 0.0
C342 C 0.76397 0.65555 0.26278 0.0
C343 C 0.79281 0.64613 0.29213 0.0
C344 C 0.72951 0.62832 0.25672 0.0
C345 C 0.71249 0.65663 0.22074 0.0
N346 N 0.77222 0.64169 0.28055 0.0
N347 N 0.733 0.66215 0.23227 0.0
H348 H 0.33503 0.30548 0.80473 0.0
H349 H 0.41093 0.19583 0.75645 0.0
H350 H 0.41139 0.30665 0.79957 0.0
H351 H 0.33533 0.19434 0.76841 0.0
H352 H 0.41228 0.23516 0.77452 0.0
H353 H 0.3355 0.26388 0.79389 0.0
C354 C 0.35196 0.29695 0.80162 0.0
C355 C 0.37319 0.30977 0.80309 0.0
C356 C 0.39545 0.22609 0.77342 0.0
C357 C 0.37386 0.2618 0.79019 0.0
C358 C 0.39468 0.20355 0.76317 0.0
C359 C 0.37296 0.19164 0.76074 0.0
C360 C 0.37435 0.23693 0.78124 0.0
C361 C 0.3525 0.20274 0.76972 0.0
C362 C 0.35222 0.27311 0.79535 0.0
C363 C 0.39456 0.29757 0.79876 0.0
N364 N 0.35368 0.22468 0.77933 0.0
N365 N 0.39433 0.27441 0.79229 0.0
H366 H 0.71596 0.83384 0.31112 0.0
H367 H 0.80835 0.92753 0.26308 0.0
H368 H 0.7063 0.90865 0.31969 0.0
H369 H 0.82418 0.85344 0.26805 0.0
H370 H 0.77251 0.92132 0.28657 0.0
H371 H 0.75685 0.8407 0.29853 0.0
C372 C 0.72257 0.85171 0.31082 0.0
C373 C 0.70753 0.87069 0.3164 0.0
C374 C 0.78398 0.90646 0.28284 0.0
C375 C 0.75442 0.87875 0.30139 0.0
C376 C 0.80452 0.90999 0.26941 0.0
C377 C 0.81932 0.89096 0.26338 0.0
C378 C 0.77789 0.88364 0.2901 0.0
C379 C 0.81336 0.86865 0.27219 0.0
C380 C 0.74596 0.85562 0.30354 0.0
C381 C 0.71718 0.89345 0.31563 0.0
N382 N 0.79298 0.86557 0.28477 0.0
N383 N 0.73984 0.89686 0.30788 0.0
H384 H 0.79615 0.18655 0.20017 0.0
H385 H 0.76151 0.09595 0.3002 0.0
H386 H 0.81331 0.11265 0.19617 0.0
H387 H 0.76068 0.17105 0.31121 0.0
H388 H 0.78331 0.10182 0.26343 0.0
H389 H 0.78618 0.18174 0.24181 0.0
C390 C 0.79831 0.1694 0.20814 0.0
C391 C 0.80545 0.14996 0.19449 0.0
C392 C 0.77872 0.11702 0.27405 0.0
C393 C 0.79352 0.1442 0.24224 0.0
C394 C 0.76626 0.11367 0.29511 0.0
C395 C 0.75906 0.13303 0.30882 0.0
C396 C 0.78371 0.13994 0.26631 0.0
C397 C 0.7658 0.15558 0.30126 0.0
C398 C 0.79253 0.16665 0.23196 0.0
C399 C 0.80787 0.12816 0.20589 0.0
N400 N 0.77738 0.15843 0.28037 0.0
N401 N 0.80154 0.12581 0.22894 0.0
H402 H 0.88923 0.26825 0.70108 0.0
H403 H 0.91669 0.16029 0.78178 0.0
H404 H 0.91688 0.20497 0.66904 0.0
H405 H 0.85921 0.20874 0.79564 0.0
H406 H 0.91885 0.17509 0.7412 0.0
H407 H 0.88058 0.24649 0.73672 0.0
C408 C 0.89346 0.24966 0.7015 0.0
C409 C 0.90387 0.23846 0.68197 0.0
C410 C 0.90547 0.18207 0.75303 0.0
C411 C 0.89423 0.21328 0.72336 0.0
C412 C 0.90418 0.17364 0.77622 0.0
C413 C 0.8879 0.18343 0.79238 0.0
C414 C 0.89066 0.20068 0.74608 0.0
C415 C 0.87218 0.20072 0.78403 0.0
C416 C 0.88835 0.23719 0.72191 0.0
C417 C 0.9088 0.21427 0.68367 0.0
N418 N 0.87426 0.20903 0.76169 0.0
N419 N 0.9043 0.2025 0.70421 0.0
H420 H 0.82201 0.34722 0.28819 0.0
H421 H 0.77218 0.42736 0.18324 0.0
H422 H 0.82075 0.42299 0.28864 0.0
H423 H 0.76248 0.35215 0.18609 0.0
H424 H 0.79756 0.42502 0.21795 0.0
H425 H 0.80808 0.34771 0.24707 0.0
C426 C 0.81959 0.36392 0.27937 0.0
C427 C 0.82254 0.3851 0.29174 0.0
C428 C 0.7901 0.40897 0.21086 0.0
C429 C 0.80626 0.38586 0.24509 0.0
C430 C 0.7756 0.41029 0.19096 0.0
C431 C 0.76488 0.38998 0.18181 0.0
C432 C 0.79394 0.38717 0.22189 0.0
C433 C 0.77019 0.36833 0.19259 0.0
C434 C 0.81137 0.36422 0.25602 0.0
C435 C 0.81864 0.40627 0.2797 0.0
N436 N 0.78411 0.36752 0.21219 0.0
N437 N 0.81055 0.40611 0.25718 0.0
H438 H 0.63911 0.19978 0.71375 0.0
H439 H 0.62518 0.30765 0.8008 0.0
H440 H 0.62612 0.26911 0.68569 0.0
H441 H 0.67713 0.25293 0.81181 0.0
H442 H 0.6171 0.2914 0.76143 0.0
H443 H 0.64484 0.21684 0.7526 0.0
C444 C 0.63724 0.21865 0.71575 0.0
C445 C 0.63206 0.23306 0.69633 0.0
C446 C 0.63013 0.28294 0.77259 0.0
C447 C 0.63844 0.25263 0.74119 0.0
C448 C 0.63455 0.29196 0.79513 0.0
C449 C 0.65175 0.28146 0.80967 0.0
C450 C 0.64257 0.26298 0.76483 0.0
C451 C 0.66367 0.26147 0.80124 0.0
C452 C 0.64067 0.22833 0.73799 0.0
C453 C 0.63015 0.2574 0.70015 0.0
N454 N 0.65873 0.25278 0.77946 0.0
N455 N 0.63315 0.26648 0.72227 0.0
H456 H 0.31937 0.77448 0.09027 0.0
H457 H 0.20882 0.80536 0.17194 0.0
H458 H 0.32117 0.76584 0.1657 0.0
H459 H 0.21552 0.82864 0.09995 0.0
H460 H 0.25058 0.79304 0.1711 0.0
H461 H 0.28226 0.79645 0.09419 0.0
C462 C 0.31215 0.77751 0.10771 0.0
C463 C 0.32341 0.76818 0.12765 0.0
C464 C 0.24299 0.80119 0.15562 0.0
C465 C 0.28046 0.79301 0.13229 0.0
C466 C 0.21913 0.8083 0.15611 0.0
C467 C 0.20846 0.81786 0.13591 0.0
C468 C 0.25623 0.80344 0.13473 0.0
C469 C 0.22281 0.82117 0.11591 0.0
C470 C 0.2909 0.79006 0.10996 0.0
C471 C 0.31316 0.77272 0.14982 0.0
N472 N 0.24576 0.81371 0.11574 0.0
N473 N 0.2921 0.78448 0.15151 0.0
H474 H 0.29176 0.80936 0.43838 0.0
H475 H 0.19239 0.77338 0.34443 0.0
H476 H 0.30494 0.80532 0.36362 0.0
H477 H 0.18224 0.77042 0.41971 0.0
H478 H 0.23149 0.79077 0.35069 0.0
H479 H 0.2499 0.80127 0.43128 0.0
C480 C 0.28581 0.80714 0.42038 0.0
C481 C 0.30206 0.80786 0.40158 0.0
C482 C 0.22063 0.78657 0.36584 0.0
C483 C 0.25383 0.79824 0.39333 0.0
C484 C 0.1982 0.77666 0.36231 0.0
C485 C 0.18392 0.77022 0.38158 0.0
C486 C 0.22901 0.79015 0.38884 0.0
C487 C 0.19255 0.77501 0.4043 0.0
C488 C 0.26183 0.80241 0.41636 0.0
C489 C 0.29314 0.80495 0.37866 0.0
N490 N 0.21455 0.78449 0.40728 0.0
N491 N 0.2697 0.80001 0.37521 0.0
H492 H 0.2839 0.82444 0.87981 0.0
H493 H 0.30103 0.68504 0.89869 0.0
H494 H 0.24861 0.7862 0.93522 0.0
H495 H 0.34582 0.72757 0.85435 0.0
H496 H 0.27932 0.72094 0.9105 0.0
H497 H 0.30515 0.78838 0.86886 0.0
C498 C 0.28082 0.80859 0.88989 0.0
C499 C 0.26449 0.80857 0.9086 0.0
C500 C 0.29392 0.72232 0.89817 0.0
C501 C 0.28849 0.76681 0.89577 0.0
C502 C 0.30624 0.70178 0.89136 0.0
C503 C 0.32545 0.70316 0.87563 0.0
C504 C 0.3007 0.74434 0.88896 0.0
C505 C 0.33131 0.72549 0.86668 0.0
C506 C 0.29287 0.7879 0.88354 0.0
C507 C 0.2611 0.78724 0.92076 0.0
N508 N 0.31906 0.74502 0.87341 0.0
N509 N 0.27283 0.76728 0.91407 0.0
H510 H 0.24405 0.708 0.68613 0.0
H511 H 0.28376 0.80123 0.58914 0.0
H512 H 0.24095 0.6922 0.61179 0.0
H513 H 0.26413 0.82005 0.66025 0.0
H514 H 0.27041 0.76092 0.59661 0.0
H515 H 0.25535 0.74824 0.6768 0.0
C516 C 0.24604 0.71285 0.6678 0.0
C517 C 0.24148 0.69654 0.64973 0.0
C518 C 0.26876 0.77396 0.61046 0.0
C519 C 0.25428 0.74303 0.63891 0.0
C520 C 0.27625 0.79703 0.60618 0.0
C521 C 0.2751 0.81416 0.62408 0.0
C522 C 0.26041 0.76781 0.63292 0.0
C523 C 0.2653 0.80757 0.64585 0.0
C524 C 0.25228 0.73599 0.6625 0.0
C525 C 0.24431 0.7041 0.62632 0.0
N526 N 0.25865 0.78491 0.64972 0.0
N527 N 0.25053 0.72678 0.62158 0.0
H528 H 0.84344 0.79766 0.19993 0.0
H529 H 0.9158 0.68682 0.24492 0.0
H530 H 0.91946 0.79198 0.19238 0.0
H531 H 0.84145 0.68275 0.22736 0.0
H532 H 0.9176 0.72542 0.22596 0.0
H533 H 0.842 0.75581 0.21027 0.0
C534 C 0.85978 0.78759 0.20012 0.0
C535 C 0.8816 0.79847 0.19532 0.0
C536 C 0.90097 0.71591 0.22593 0.0
C537 C 0.88012 0.75062 0.20759 0.0
C538 C 0.89996 0.69383 0.23671 0.0
C539 C 0.87847 0.68143 0.23775 0.0
C540 C 0.88024 0.72598 0.21651 0.0
C541 C 0.85846 0.69154 0.22691 0.0
C542 C 0.85895 0.76368 0.20603 0.0
C543 C 0.90221 0.78444 0.19592 0.0
N544 N 0.85974 0.71333 0.2171 0.0
N545 N 0.901 0.76141 0.20226 0.0
H546 H 0.23683 0.41455 0.68808 0.0
H547 H 0.34437 0.33478 0.73422 0.0
H548 H 0.22964 0.34027 0.70174 0.0
H549 H 0.34228 0.41039 0.74073 0.0
H550 H 0.30553 0.33584 0.71498 0.0
H551 H 0.27843 0.41229 0.69957 0.0
C552 C 0.24403 0.39763 0.69315 0.0
C553 C 0.22948 0.37758 0.6941 0.0
C554 C 0.3137 0.3522 0.72039 0.0
C555 C 0.27747 0.37498 0.70745 0.0
C556 C 0.33598 0.35167 0.73126 0.0
C557 C 0.3467 0.37256 0.73919 0.0
C558 C 0.30206 0.3738 0.71713 0.0
C559 C 0.33476 0.39385 0.73498 0.0
C560 C 0.26785 0.39642 0.69985 0.0
C561 C 0.24007 0.35619 0.70077 0.0
N562 N 0.31311 0.39391 0.72431 0.0
N563 N 0.26336 0.35549 0.70733 0.0
H564 H 0.62942 0.82981 0.24956 0.0
H565 H 0.61188 0.68973 0.26237 0.0
H566 H 0.60962 0.79588 0.31456 0.0
H567 H 0.62955 0.72461 0.19726 0.0
H568 H 0.60948 0.72848 0.28175 0.0
H569 H 0.62814 0.79137 0.22975 0.0
C570 C 0.62467 0.81437 0.25963 0.0
C571 C 0.61972 0.81617 0.28378 0.0
C572 C 0.61379 0.72758 0.26318 0.0
C573 C 0.61833 0.77201 0.26131 0.0
C574 C 0.6151 0.70545 0.25213 0.0
C575 C 0.62106 0.70379 0.22818 0.0
C576 C 0.61845 0.74817 0.25016 0.0
C577 C 0.62507 0.72485 0.2158 0.0
C578 C 0.62398 0.79238 0.24835 0.0
C579 C 0.6137 0.79544 0.29593 0.0
N580 N 0.62378 0.74601 0.2269 0.0
N581 N 0.61327 0.77432 0.28463 0.0
H582 H 0.30041 0.09717 0.68415 0.0
H583 H 0.20121 0.17891 0.74411 0.0
H584 H 0.31054 0.17086 0.69942 0.0
H585 H 0.2018 0.10327 0.75035 0.0
H586 H 0.23695 0.17663 0.71983 0.0
H587 H 0.26017 0.09989 0.70026 0.0
C588 C 0.29403 0.11408 0.69036 0.0
C589 C 0.309 0.13384 0.69044 0.0
C590 C 0.22913 0.16051 0.72631 0.0
C591 C 0.26286 0.13695 0.70909 0.0
C592 C 0.20861 0.16175 0.74011 0.0
C593 C 0.19847 0.14123 0.74952 0.0
C594 C 0.23962 0.13859 0.72157 0.0
C595 C 0.209 0.11955 0.74363 0.0
C596 C 0.27109 0.11553 0.69977 0.0
C597 C 0.29971 0.15516 0.69902 0.0
N598 N 0.22904 0.11881 0.73014 0.0
N599 N 0.27732 0.15612 0.70807 0.0
H600 H 0.26228 0.89713 0.71609 0.0
H601 H 0.24819 0.81125 0.82656 0.0
H602 H 0.30541 0.83495 0.72496 0.0
H603 H 0.20785 0.87511 0.81669 0.0
H604 H 0.26744 0.81765 0.78847 0.0
H605 H 0.24141 0.88801 0.7523 0.0
C606 C 0.26749 0.88155 0.72573 0.0
C607 C 0.2857 0.86679 0.71739 0.0
C608 C 0.25421 0.83012 0.79454 0.0
C609 C 0.26148 0.85606 0.7592 0.0
C610 C 0.24302 0.8264 0.81623 0.0
C611 C 0.22639 0.84274 0.82499 0.0
C612 C 0.24874 0.85032 0.78145 0.0
C613 C 0.22056 0.86206 0.81078 0.0
C614 C 0.25544 0.8763 0.74647 0.0
C615 C 0.2916 0.8469 0.73079 0.0
N616 N 0.23183 0.86537 0.78987 0.0
N617 N 0.27947 0.84207 0.75104 0.0
H618 H 0.08528 0.70164 0.30286 0.0
H619 H 0.17859 0.74652 0.20659 0.0
H620 H 0.15983 0.7114 0.31711 0.0
H621 H 0.10264 0.7496 0.19734 0.0
H622 H 0.17272 0.72682 0.24431 0.0
H623 H 0.09228 0.71204 0.26177 0.0
C624 C 0.10323 0.70559 0.29732 0.0
C625 C 0.12196 0.70582 0.31366 0.0
C626 C 0.15733 0.73157 0.23393 0.0
C627 C 0.13003 0.71798 0.26637 0.0
C628 C 0.16065 0.74277 0.21228 0.0
C629 C 0.14107 0.74996 0.19874 0.0
C630 C 0.13425 0.72737 0.2422 0.0
C631 C 0.11828 0.74449 0.20714 0.0
C632 C 0.10717 0.71165 0.2738 0.0
C633 C 0.14482 0.71104 0.30525 0.0
N634 N 0.11551 0.7337 0.22838 0.0
N635 N 0.14816 0.71711 0.28227 0.0
H636 H 0.26671 0.69112 0.81081 0.0
H637 H 0.17882 0.60798 0.73957 0.0
H638 H 0.2379 0.62709 0.83952 0.0
H639 H 0.19836 0.67739 0.71609 0.0
H640 H 0.1971 0.61624 0.77766 0.0
H641 H 0.23927 0.688 0.77768 0.0
C642 C 0.25439 0.67653 0.81033 0.0
C643 C 0.25479 0.65924 0.82798 0.0
C644 C 0.19713 0.62982 0.76433 0.0
C645 C 0.22335 0.65539 0.78969 0.0
C646 C 0.18659 0.62515 0.74252 0.0
C647 C 0.18729 0.64188 0.72433 0.0
C648 C 0.20877 0.65132 0.76807 0.0
C649 C 0.19755 0.66383 0.72939 0.0
C650 C 0.23868 0.67477 0.79135 0.0
C651 C 0.23828 0.64083 0.82637 0.0
N652 N 0.2082 0.66775 0.7506 0.0
N653 N 0.22349 0.63922 0.80743 0.0
H654 H 0.35162 0.74008 0.34596 0.0
H655 H 0.3244 0.71894 0.22832 0.0
H656 H 0.42231 0.75209 0.31943 0.0
H657 H 0.39863 0.70269 0.219 0.0
H658 H 0.3318 0.72726 0.2698 0.0
H659 H 0.34113 0.7217 0.30837 0.0
C660 C 0.36503 0.73864 0.33235 0.0
C661 C 0.38782 0.74797 0.33586 0.0
C662 C 0.34642 0.72123 0.25897 0.0
C663 C 0.37571 0.72753 0.2923 0.0
C664 C 0.3422 0.7166 0.23512 0.0
C665 C 0.36089 0.71005 0.22004 0.0
C666 C 0.36962 0.71955 0.26795 0.0
C667 C 0.38362 0.70753 0.22992 0.0
C668 C 0.35892 0.72841 0.31069 0.0
C669 C 0.40444 0.74543 0.31751 0.0
N670 N 0.38739 0.71264 0.2531 0.0
N671 N 0.39803 0.73562 0.29656 0.0
H672 H 0.73377 0.31758 0.83449 0.0
H673 H 0.83679 0.27186 0.91841 0.0
H674 H 0.74661 0.34652 0.90362 0.0
H675 H 0.83879 0.26051 0.84331 0.0
H676 H 0.80364 0.29918 0.91313 0.0
H677 H 0.77185 0.2966 0.8368 0.0
C678 C 0.74471 0.31985 0.84999 0.0
C679 C 0.73682 0.33389 0.86889 0.0
C680 C 0.81149 0.29098 0.89774 0.0
C681 C 0.78032 0.30949 0.87183 0.0
C682 C 0.83047 0.27535 0.90075 0.0
C683 C 0.84068 0.26384 0.88129 0.0
C684 C 0.80217 0.29487 0.87512 0.0
C685 C 0.83162 0.26908 0.85882 0.0
C686 C 0.76646 0.30782 0.85131 0.0
C687 C 0.75183 0.33598 0.88857 0.0
N688 N 0.81269 0.28392 0.85639 0.0
N689 N 0.7726 0.32372 0.88963 0.0
H690 H 0.82159 0.26679 0.60369 0.0
H691 H 0.71955 0.21277 0.68622 0.0
H692 H 0.82377 0.26701 0.67965 0.0
H693 H 0.71704 0.20956 0.61034 0.0
H694 H 0.75815 0.23194 0.68377 0.0
H695 H 0.7832 0.24659 0.60537 0.0
C696 C 0.81389 0.26293 0.62072 0.0
C697 C 0.82605 0.26873 0.64157 0.0
C698 C 0.74931 0.2269 0.66761 0.0
C699 C 0.78215 0.24515 0.64359 0.0
C700 C 0.72726 0.21576 0.669 0.0
C701 C 0.71489 0.20945 0.64846 0.0
C702 C 0.75924 0.23202 0.64549 0.0
C703 C 0.7259 0.21393 0.62667 0.0
C704 C 0.79203 0.25118 0.62166 0.0
C705 C 0.81516 0.26299 0.6631 0.0
N706 N 0.74731 0.22509 0.62576 0.0
N707 N 0.794 0.25151 0.66352 0.0
H708 H 0.71261 0.2889 0.18702 0.0
H709 H 0.73897 0.17323 0.15569 0.0
H710 H 0.69026 0.29815 0.11503 0.0
H711 H 0.74495 0.20206 0.08575 0.0
H712 H 0.71851 0.20918 0.16838 0.0
H713 H 0.72241 0.24798 0.17828 0.0
C714 C 0.70918 0.28216 0.16949 0.0
C715 C 0.70057 0.29711 0.15177 0.0
C716 C 0.72429 0.20769 0.15026 0.0
C717 C 0.71186 0.2499 0.14147 0.0
C718 C 0.7357 0.18696 0.1429 0.0
C719 C 0.74397 0.18465 0.11965 0.0
C720 C 0.72109 0.2263 0.13424 0.0
C721 C 0.73916 0.20311 0.10391 0.0
C722 C 0.7147 0.25864 0.1645 0.0
C723 C 0.69671 0.28733 0.12932 0.0
N724 N 0.72819 0.22312 0.1115 0.0
N725 N 0.70279 0.26454 0.12473 0.0
H726 H 0.76007 0.32498 0.38625 0.0
H727 H 0.71642 0.22312 0.29902 0.0
H728 H 0.78176 0.3169 0.31384 0.0
H729 H 0.69675 0.22565 0.37245 0.0
H730 H 0.73363 0.2622 0.30276 0.0
H731 H 0.7307 0.29337 0.38039 0.0
C732 C 0.75823 0.31698 0.36902 0.0
C733 C 0.77347 0.32337 0.35055 0.0
C734 C 0.7253 0.2544 0.31805 0.0
C735 C 0.74022 0.28731 0.34374 0.0
C736 C 0.71533 0.23205 0.31586 0.0
C737 C 0.70544 0.22082 0.33551 0.0
C738 C 0.72571 0.26567 0.34013 0.0
C739 C 0.70441 0.23347 0.35685 0.0
C740 C 0.74161 0.29885 0.3657 0.0
C741 C 0.77054 0.31231 0.32863 0.0
N742 N 0.71481 0.25503 0.35871 0.0
N743 N 0.75447 0.29479 0.32591 0.0
H744 H 0.20316 0.55977 0.67546 0.0
H745 H 0.12271 0.44539 0.65383 0.0
H746 H 0.14295 0.55717 0.62872 0.0
H747 H 0.17292 0.4494 0.71092 0.0
H748 H 0.13166 0.48598 0.64362 0.0
H749 H 0.19481 0.51892 0.68733 0.0
C750 C 0.1884 0.55057 0.66748 0.0
C751 C 0.17378 0.56198 0.651 0.0
C752 C 0.14067 0.47815 0.65851 0.0
C753 C 0.16401 0.51537 0.66465 0.0
C754 C 0.13549 0.4549 0.66441 0.0
C755 C 0.14698 0.4439 0.68334 0.0
C756 C 0.15776 0.49071 0.6714 0.0
C757 C 0.16345 0.45722 0.69633 0.0
C758 C 0.18352 0.52733 0.67442 0.0
C759 C 0.15472 0.54922 0.64149 0.0
N760 N 0.16849 0.47986 0.69001 0.0
N761 N 0.15046 0.52675 0.6484 0.0
H762 H 0.46898 0.73401 0.17059 0.0
H763 H 0.54558 0.62032 0.14667 0.0
H764 H 0.44579 0.68025 0.12213 0.0
H765 H 0.57825 0.68587 0.16666 0.0
H766 H 0.50879 0.64158 0.1378 0.0
H767 H 0.50892 0.71677 0.17 0.0
C768 C 0.47235 0.71877 0.15957 0.0
C769 C 0.45393 0.70856 0.14643 0.0
C770 C 0.52413 0.6514 0.14371 0.0
C771 C 0.49957 0.68842 0.14608 0.0
C772 C 0.54515 0.63927 0.14873 0.0
C773 C 0.56507 0.65133 0.15732 0.0
C774 C 0.52271 0.67573 0.14792 0.0
C775 C 0.56342 0.67588 0.15985 0.0
C776 C 0.49518 0.70896 0.15922 0.0
C777 C 0.4594 0.68879 0.13249 0.0
N778 N 0.54249 0.6872 0.1556 0.0
N779 N 0.48157 0.67915 0.133 0.0
H780 H 0.38248 0.94167 0.66485 0.0
H781 H 0.3228 0.05899 0.71689 0.0
H782 H 0.3067 0.95198 0.668 0.0
H783 H 0.39708 0.05366 0.69909 0.0
H784 H 0.31679 0.01909 0.70178 0.0
H785 H 0.38819 0.98178 0.67922 0.0
C786 C 0.36698 0.95242 0.66841 0.0
C787 C 0.34403 0.94331 0.66512 0.0
C788 C 0.33442 0.02659 0.70124 0.0
C789 C 0.35054 0.98953 0.68207 0.0
C790 C 0.33795 0.04938 0.71007 0.0
C791 C 0.36057 0.05983 0.70945 0.0
C792 C 0.35364 0.01389 0.69181 0.0
C793 C 0.37936 0.04642 0.70007 0.0
C794 C 0.37029 0.97539 0.67667 0.0
C795 C 0.3247 0.95822 0.67009 0.0
N796 N 0.37549 0.02423 0.69171 0.0
N797 N 0.32839 0.98048 0.67847 0.0
H798 H 0.06192 0.85227 0.15029 0.0
H799 H 0.96016 0.84935 0.24936 0.0
H800 H 0.0715 0.82458 0.2203 0.0
H801 H 0.95005 0.8823 0.18177 0.0
H802 H 1.00169 0.84226 0.23932 0.0
H803 H 0.0219 0.8655 0.16162 0.0
C804 C 0.05578 0.84921 0.16809 0.0
C805 C 0.0702 0.83715 0.18429 0.0
C806 C 0.99051 0.85122 0.2267 0.0
C807 C 0.02423 0.8521 0.19734 0.0
C808 C 0.9667 0.85532 0.23246 0.0
C809 C 0.95142 0.86642 0.21641 0.0
C810 C 0.99931 0.85803 0.20456 0.0
C811 C 0.9611 0.87373 0.19476 0.0
C812 C 0.03287 0.85671 0.17454 0.0
C813 C 0.06113 0.83366 0.20711 0.0
N814 N 0.98432 0.86924 0.1894 0.0
N815 N 0.03882 0.84092 0.21284 0.0
H816 H 0.15354 0.93677 0.87864 0.0
H817 H 0.19791 0.06862 0.8531 0.0
H818 H 0.22774 0.95466 0.88334 0.0
H819 H 0.12891 0.04092 0.83586 0.0
H820 H 0.20932 0.02946 0.8684 0.0
H821 H 0.14451 0.97686 0.86757 0.0
C822 C 0.16808 0.94913 0.87743 0.0
C823 C 0.19155 0.94197 0.88187 0.0
C824 C 0.19167 0.03208 0.86136 0.0
C825 C 0.18107 0.98887 0.86886 0.0
C826 C 0.18508 0.05448 0.85276 0.0
C827 C 0.16236 0.05821 0.84309 0.0
C828 C 0.17532 0.01338 0.86057 0.0
C829 C 0.14663 0.03907 0.84297 0.0
C830 C 0.16283 0.97223 0.87101 0.0
C831 C 0.20939 0.95923 0.88007 0.0
N832 N 0.15337 0.01775 0.85151 0.0
N833 N 0.20381 0.98185 0.87363 0.0
H834 H 0.94053 0.71631 0.31836 0.0
H835 H 0.03949 0.67874 0.41222 0.0
H836 H 0.93476 0.65548 0.36325 0.0
H837 H 0.04744 0.73751 0.365 0.0
H838 H 0.99923 0.67288 0.39767 0.0
H839 H 0.97743 0.72697 0.33819 0.0
C840 C 0.94685 0.70528 0.33257 0.0
C841 C 0.93446 0.68482 0.339 0.0
C842 C 1.00964 0.68721 0.39061 0.0
C843 C 0.97705 0.69699 0.3618 0.0
C844 C 0.03269 0.69064 0.39897 0.0
C845 C 0.04705 0.7086 0.38976 0.0
C846 C 1.00069 0.70176 0.37275 0.0
C847 C 0.03709 0.72346 0.37267 0.0
C848 C 0.96802 0.7114 0.34387 0.0
C849 C 0.94364 0.67135 0.35761 0.0
N850 N 0.01464 0.71958 0.36458 0.0
N851 N 0.9644 0.67757 0.3682 0.0
H852 H 0.37722 0.56818 0.87333 0.0
H853 H 0.32215 0.45017 0.81896 0.0
H854 H 0.30219 0.55882 0.86194 0.0
H855 H 0.39417 0.45454 0.84413 0.0
H856 H 0.31461 0.48979 0.83418 0.0
H857 H 0.38387 0.52708 0.86218 0.0
C858 C 0.36208 0.55751 0.86855 0.0
C859 C 0.33906 0.56719 0.86858 0.0
C860 C 0.33202 0.48206 0.83658 0.0
C861 C 0.34668 0.51973 0.85553 0.0
C862 C 0.33637 0.45934 0.82788 0.0
C863 C 0.35888 0.44881 0.83021 0.0
C864 C 0.35035 0.49475 0.8475 0.0
C865 C 0.37652 0.46177 0.84198 0.0
C866 C 0.36592 0.53393 0.86221 0.0
C867 C 0.32023 0.55226 0.86223 0.0
N868 N 0.37195 0.48405 0.84994 0.0
N869 N 0.32447 0.52943 0.85584 0.0
H870 H 0.45553 0.81888 0.40217 0.0
H871 H 0.55327 0.88987 0.32818 0.0
H872 H 0.43952 0.85819 0.33924 0.0
H873 H 0.5704 0.84503 0.38698 0.0
H874 H 0.51125 0.88122 0.33408 0.0
H875 H 0.49702 0.83082 0.3988 0.0
C876 C 0.46066 0.83013 0.38768 0.0
C877 C 0.44385 0.83744 0.37091 0.0
C878 C 0.52416 0.87336 0.34579 0.0
C879 C 0.49168 0.85124 0.36697 0.0
C880 C 0.54824 0.87836 0.34249 0.0
C881 C 0.56559 0.86812 0.35705 0.0
C882 C 0.51714 0.858 0.36383 0.0
C883 C 0.55778 0.85334 0.37528 0.0
C884 C 0.48445 0.83692 0.38576 0.0
C885 C 0.45174 0.85204 0.35256 0.0
N886 N 0.53421 0.84867 0.37807 0.0
N887 N 0.47502 0.85839 0.35107 0.0
H888 H 0.66232 0.22645 0.54691 0.0
H889 H 0.68471 0.13517 0.44029 0.0
H890 H 0.64439 0.15277 0.54938 0.0
H891 H 0.70553 0.2081 0.43765 0.0
H892 H 0.6696 0.14158 0.48027 0.0
H893 H 0.67716 0.22072 0.5065 0.0
C894 C 0.66125 0.20917 0.53892 0.0
C895 C 0.6521 0.19009 0.55167 0.0
C896 C 0.67756 0.15618 0.47099 0.0
C897 C 0.66928 0.18331 0.50551 0.0
C898 C 0.68631 0.15248 0.44815 0.0
C899 C 0.69649 0.17107 0.43548 0.0
C900 C 0.67888 0.17869 0.48134 0.0
C901 C 0.69788 0.19318 0.44666 0.0
C902 C 0.66987 0.20585 0.5159 0.0
C903 C 0.65136 0.16803 0.54038 0.0
N904 N 0.68915 0.19637 0.46884 0.0
N905 N 0.65985 0.16527 0.51812 0.0
H906 H 0.80699 0.13912 0.04236 0.0
H907 H 0.91176 0.18723 0.95951 0.0
H908 H 0.87605 0.16005 0.0674 0.0
H909 H 0.84351 0.16684 0.93196 0.0
H910 H 0.89874 0.17618 0.99879 0.0
H911 H 0.81962 0.14815 1.00197 0.0
C912 C 0.82481 0.14558 0.03943 0.0
C913 C 0.84044 0.14882 0.05849 0.0
C914 C 0.88654 0.174 0.98423 0.0
C915 C 0.85504 0.1592 0.01207 0.0
C916 C 0.89399 0.18032 0.96164 0.0
C917 C 0.87874 0.17804 0.94219 0.0
C918 C 0.86351 0.16531 0.98777 0.0
C919 C 0.85594 0.16888 0.94633 0.0
C920 C 0.832 0.15072 0.01631 0.0
C921 C 0.8633 0.15726 0.05343 0.0
N922 N 0.84899 0.16294 0.96864 0.0
N923 N 0.86984 0.16213 0.03085 0.0
H924 H 0.917 0.33325 0.54066 0.0
H925 H 0.83744 0.29819 0.42935 0.0
H926 H 0.8802 0.26706 0.53518 0.0
H927 H 0.88031 0.36087 0.43219 0.0
H928 H 0.85429 0.28561 0.46691 0.0
H929 H 0.90544 0.34251 0.50032 0.0
C930 C 0.90667 0.32048 0.5309 0.0
C931 C 0.89954 0.29931 0.54152 0.0
C932 C 0.8602 0.30202 0.45927 0.0
C933 C 0.88587 0.31008 0.49496 0.0
C934 C 0.85057 0.30927 0.43773 0.0
C935 C 0.85734 0.33075 0.42745 0.0
C936 C 0.8767 0.31636 0.47096 0.0
C937 C 0.87451 0.3442 0.43931 0.0
C938 C 0.90004 0.32584 0.50778 0.0
C939 C 0.88621 0.28353 0.52779 0.0
N940 N 0.8834 0.3369 0.46044 0.0
N941 N 0.87963 0.28933 0.50538 0.0
H942 H 0.63892 0.35126 0.94198 0.0
H943 H 0.72208 0.35395 0.0568 0.0
H944 H 0.7055 0.31388 0.94646 0.0
H945 H 0.64972 0.37891 0.05604 0.0
H946 H 0.71784 0.342 0.01541 0.0
H947 H 0.64368 0.36372 0.98301 0.0
C948 C 0.65446 0.34551 0.95161 0.0
C949 C 0.67176 0.33139 0.94068 0.0
C950 C 0.70293 0.35018 0.0243 0.0
C951 C 0.67754 0.34595 0.98773 0.0
C952 C 0.70541 0.35717 0.0479 0.0
C953 C 0.68623 0.36745 0.05999 0.0
C954 C 0.68119 0.35367 0.01263 0.0
C955 C 0.66498 0.37099 0.04752 0.0
C956 C 0.6572 0.3527 0.97506 0.0
C957 C 0.69159 0.32462 0.95412 0.0
N958 N 0.66305 0.36414 0.02463 0.0
N959 N 0.69399 0.33205 0.97683 0.0
H960 H 0.83118 0.57408 0.35071 0.0
H961 H 0.88677 0.44465 0.34109 0.0
H962 H 0.89309 0.55778 0.30889 0.0
H963 H 0.81862 0.45884 0.37292 0.0
H964 H 0.89052 0.4862 0.3314 0.0
H965 H 0.82745 0.53258 0.36075 0.0
C966 C 0.84405 0.5618 0.34358 0.0
C967 C 0.86255 0.56961 0.32888 0.0
C968 C 0.87475 0.48031 0.34054 0.0
C969 C 0.85833 0.52165 0.34056 0.0
C970 C 0.87258 0.4565 0.34622 0.0
C971 C 0.8523 0.44805 0.35793 0.0
C972 C 0.85659 0.4961 0.34666 0.0
C973 C 0.83458 0.46445 0.36396 0.0
C974 C 0.84184 0.538 0.34935 0.0
C975 C 0.87855 0.55267 0.32022 0.0
N976 N 0.83715 0.48764 0.35828 0.0
N977 N 0.87612 0.52955 0.32626 0.0
H978 H 0.46854 0.41115 0.85475 0.0
H979 H 0.59793 0.36573 0.81583 0.0
H980 H 0.48096 0.37813 0.78733 0.0
H981 H 0.57817 0.38704 0.88611 0.0
H982 H 0.55753 0.3757 0.80235 0.0
H983 H 0.51059 0.4081 0.8635 0.0
C984 C 0.48013 0.40336 0.84163 0.0
C985 C 0.47097 0.39468 0.82031 0.0
C986 C 0.5622 0.37849 0.82063 0.0
C987 C 0.5198 0.39096 0.83045 0.0
C988 C 0.58532 0.37303 0.8283 0.0
C989 C 0.5915 0.37558 0.85217 0.0
C990 C 0.54525 0.38678 0.83692 0.0
C991 C 0.57427 0.38472 0.86758 0.0
C992 C 0.50429 0.40159 0.8467 0.0
C993 C 0.48716 0.38501 0.80401 0.0
N994 N 0.55208 0.38988 0.85974 0.0
N995 N 0.51076 0.38322 0.80949 0.0
H996 H 0.64117 0.07521 0.38366 0.0
H997 H 0.65149 0.96712 0.29282 0.0
H998 H 0.67877 0.0814 0.31777 0.0
H999 H 0.61089 0.9668 0.35726 0.0
H1000 H 0.65987 0.00929 0.29924 0.0
H1001 H 0.6282 0.03607 0.37216 0.0
C1002 C 0.64658 0.06841 0.36663 0.0
C1003 C 0.66117 0.08172 0.35174 0.0
C1004 C 0.64891 0.99998 0.3118 0.0
C1005 C 0.6465 0.03624 0.33838 0.0
C1006 C 0.64402 0.97594 0.30806 0.0
C1007 C 0.63058 0.96327 0.32459 0.0
C1008 C 0.64024 0.01137 0.33216 0.0
C1009 C 0.62152 0.97564 0.34411 0.0
C1010 C 0.63915 0.04593 0.36003 0.0
C1011 C 0.66747 0.07184 0.32981 0.0
N1012 N 0.62662 0.99876 0.34737 0.0
N1013 N 0.6603 0.04962 0.32389 0.0
H1014 H 0.07115 0.12461 0.8662 0.0
H1015 H 0.97066 0.20925 0.81256 0.0
H1016 H 0.07662 0.15674 0.79769 0.0
H1017 H 0.96503 0.17576 0.88043 0.0
H1018 H 1.00945 0.19065 0.80693 0.0
H1019 H 0.03219 0.14282 0.87136 0.0
C1020 C 0.0641 0.13532 0.8521 0.0
C1021 C 0.07732 0.13905 0.83143 0.0
C1022 C 0.9998 0.18743 0.8231 0.0
C1023 C 0.03247 0.16036 0.83742 0.0
C1024 C 0.97762 0.19816 0.82641 0.0
C1025 C 0.96442 0.19418 0.84707 0.0
C1026 C 1.00903 0.17249 0.84053 0.0
C1027 C 0.97449 0.17947 0.86425 0.0
C1028 C 0.0418 0.14582 0.85513 0.0
C1029 C 0.0671 0.15321 0.81386 0.0
N1030 N 0.99607 0.16917 0.86058 0.0
N1031 N 0.0454 0.1634 0.8173 0.0
H1032 H 0.85326 0.05218 0.10585 0.0
H1033 H 0.82273 0.93534 0.17897 0.0
H1034 H 0.78813 0.04513 0.14519 0.0
H1035 H 0.89038 0.95028 0.14678 0.0
H1036 H 0.80731 0.9728 0.16343 0.0
H1037 H 0.86434 0.01242 0.11696 0.0
C1038 C 0.84112 0.04221 0.11672 0.0
C1039 C 0.81975 0.05225 0.12469 0.0
C1040 C 0.82546 0.96774 0.15964 0.0
C1041 C 0.83261 1.00618 0.13781 0.0
C1042 C 0.83425 0.94629 0.1684 0.0
C1043 C 0.85796 0.93959 0.16426 0.0
C1044 C 0.84041 0.98251 0.14646 0.0
C1045 C 0.87206 0.95465 0.15058 0.0
C1046 C 0.84754 0.01939 0.12313 0.0
C1047 C 0.80477 0.03818 0.13861 0.0
N1048 N 0.86312 0.97526 0.14229 0.0
N1049 N 0.81156 0.01593 0.14489 0.0
H1050 H 0.09666 0.32747 0.65579 0.0
H1051 H 0.95363 0.33377 0.65179 0.0
H1052 H 0.05535 0.37873 0.69432 0.0
H1053 H 0.99548 0.28316 0.61296 0.0
H1054 H 0.99056 0.35141 0.66661 0.0
H1055 H 0.05979 0.3118 0.63898 0.0
C1056 C 0.07991 0.33552 0.66065 0.0
C1057 C 0.07927 0.35447 0.67657 0.0
C1058 C 0.99163 0.33649 0.65476 0.0
C1059 C 0.03675 0.33651 0.65741 0.0
C1060 C 0.9705 0.32645 0.64624 0.0
C1061 C 0.97128 0.30687 0.63109 0.0
C1062 C 0.01378 0.32693 0.64812 0.0
C1063 C 0.99382 0.29816 0.62463 0.0
C1064 C 0.0588 0.32654 0.65107 0.0
C1065 C 0.05687 0.36409 0.68218 0.0
N1066 N 0.014 0.30814 0.63317 0.0
N1067 N 0.03664 0.35502 0.67271 0.0
H1068 H 0.67788 0.44036 0.20612 0.0
H1069 H 0.62912 0.55629 0.14213 0.0
H1070 H 0.65954 0.4432 0.13245 0.0
H1071 H 0.64007 0.55268 0.21718 0.0
H1072 H 0.63882 0.5146 0.13887 0.0
H1073 H 0.663 0.48059 0.21102 0.0
C1074 C 0.67055 0.44931 0.19096 0.0
C1075 C 0.67007 0.43818 0.16877 0.0
C1076 C 0.63896 0.52277 0.15612 0.0
C1077 C 0.65307 0.4847 0.17433 0.0
C1078 C 0.63338 0.5467 0.15803 0.0
C1079 C 0.63378 0.55822 0.17999 0.0
C1080 C 0.64531 0.50996 0.17627 0.0
C1081 C 0.63941 0.54463 0.19989 0.0
C1082 C 0.66205 0.47238 0.19382 0.0
C1083 C 0.66032 0.45089 0.14989 0.0
N1084 N 0.64515 0.52133 0.19753 0.0
N1085 N 0.6524 0.4734 0.15307 0.0
H1086 H 0.47468 0.10343 0.69774 0.0
H1087 H 0.56227 0.18797 0.62573 0.0
H1088 H 0.45007 0.16506 0.66087 0.0
H1089 H 0.58502 0.12636 0.6638 0.0
H1090 H 0.52104 0.1789 0.63597 0.0
H1091 H 0.51462 0.11059 0.68316 0.0
C1092 C 0.4776 0.11847 0.68646 0.0
C1093 C 0.45881 0.13372 0.68067 0.0
C1094 C 0.53503 0.16728 0.64195 0.0
C1095 C 0.50511 0.14214 0.66382 0.0
C1096 C 0.55864 0.1724 0.63605 0.0
C1097 C 0.57734 0.15796 0.64393 0.0
C1098 C 0.5299 0.14754 0.65588 0.0
C1099 C 0.57135 0.13807 0.6573 0.0
C1100 C 0.50056 0.12255 0.67811 0.0
C1101 C 0.46392 0.15282 0.66583 0.0
N1102 N 0.54828 0.13355 0.6629 0.0
N1103 N 0.48657 0.15656 0.65804 0.0
H1104 H 0.40902 0.84806 0.46919 0.0
H1105 H 0.35089 0.82033 0.59501 0.0
H1106 H 0.36614 0.78643 0.48087 0.0
H1107 H 0.37794 0.88786 0.57359 0.0
H1108 H 0.36274 0.80401 0.55651 0.0
H1109 H 0.40446 0.85875 0.5104 0.0
C1110 C 0.39877 0.83659 0.48048 0.0
C1111 C 0.38772 0.81642 0.47137 0.0
C1112 C 0.36634 0.8223 0.56042 0.0
C1113 C 0.38225 0.82881 0.51905 0.0
C1114 C 0.35977 0.8316 0.58246 0.0
C1115 C 0.36334 0.85557 0.58753 0.0
C1116 C 0.37687 0.837 0.54352 0.0
C1117 C 0.37472 0.86935 0.57047 0.0
C1118 C 0.39614 0.84278 0.50411 0.0
C1119 C 0.37493 0.80216 0.4871 0.0
N1120 N 0.38097 0.85991 0.54932 0.0
N1121 N 0.37233 0.80876 0.51015 0.0
H1122 H 0.11755 0.85799 0.06612 0.0
H1123 H 0.17044 0.79824 0.94916 0.0
H1124 H 0.14091 0.78567 0.06394 0.0
H1125 H 0.16505 0.87322 0.95991 0.0
H1126 H 0.15402 0.79207 0.98871 0.0
H1127 H 0.12894 0.86233 0.02495 0.0
C1128 C 0.12486 0.84288 0.05696 0.0
C1129 C 0.12835 0.82142 0.06871 0.0
C1130 C 0.15629 0.80985 0.98233 0.0
C1131 C 0.14158 0.8264 0.02116 0.0
C1132 C 0.16554 0.81342 0.95968 0.0
C1133 C 0.16921 0.83633 0.95112 0.0
C1134 C 0.15036 0.8293 0.99649 0.0
C1135 C 0.16265 0.85526 0.96571 0.0
C1136 C 0.13146 0.84545 0.03338 0.0
C1137 C 0.1379 0.80255 0.05569 0.0
N1138 N 0.15358 0.85133 0.98759 0.0
N1139 N 0.14424 0.8055 0.03266 0.0
H1140 H 0.20875 0.63232 0.557 0.0
H1141 H 0.11627 0.68617 0.46484 0.0
H1142 H 0.14172 0.66112 0.58025 0.0
H1143 H 0.19164 0.68069 0.45265 0.0
H1144 H 0.12236 0.67158 0.50523 0.0
H1145 H 0.19964 0.64415 0.51701 0.0
C1146 C 0.19197 0.64105 0.55376 0.0
C1147 C 0.17605 0.64579 0.57228 0.0
C1148 C 0.13749 0.6735 0.49363 0.0
C1149 C 0.16543 0.65949 0.52582 0.0
C1150 C 0.13404 0.68164 0.47051 0.0
C1151 C 0.15349 0.68465 0.45524 0.0
C1152 C 0.16051 0.66793 0.50138 0.0
C1153 C 0.17611 0.67871 0.46371 0.0
C1154 C 0.18683 0.64789 0.53077 0.0
C1155 C 0.15458 0.65715 0.56663 0.0
N1156 N 0.17895 0.6706 0.48605 0.0
N1157 N 0.14988 0.66362 0.54388 0.0
H1158 H 0.38823 0.64492 0.0716 0.0
H1159 H 0.29633 0.66568 0.96553 0.0
H1160 H 0.32744 0.69065 0.07874 0.0
H1161 H 0.35691 0.61918 0.96289 0.0
H1162 H 0.3052 0.67377 0.00731 0.0
H1163 H 0.37479 0.63379 0.03244 0.0
C1164 C 0.37188 0.65248 0.06503 0.0
C1165 C 0.35902 0.66881 0.0786 0.0
C1166 C 0.31641 0.66169 0.99756 0.0
C1167 C 0.3435 0.65628 0.03311 0.0
C1168 C 0.31132 0.65702 0.97372 0.0
C1169 C 0.32593 0.6418 0.96052 0.0
C1170 C 0.33622 0.65101 0.00827 0.0
C1171 C 0.34517 0.63116 0.97214 0.0
C1172 C 0.36419 0.64614 0.04253 0.0
C1173 C 0.33789 0.67792 0.06899 0.0
N1174 N 0.34974 0.63602 0.99513 0.0
N1175 N 0.33091 0.67172 0.04677 0.0
loop_
_geom_bond_atom_site_label_1
_geom_bond_atom_site_label_2
_geom_bond_distance
_geom_bond_site_symmetry_2
_ccdc_geom_bond_type
Mg0 O7 2.141 . S
Mg0 O8 2.048 . S
Mg0 O9 2.048 . S
Mg0 O12 2.141 . S
C1 O2 1.313 . S
C1 O8 1.195 . S
O2 C1 1.313 . S
C3 O4 1.245 . S
C3 O12 1.289 . S
O4 C3 1.245 . S
C5 O6 1.245 . S
C5 O7 1.289 . S
O6 C5 1.245 . S
O7 Mg0 2.141 . S
O7 C5 1.289 . S
O8 Mg0 2.048 . S
O8 C1 1.195 . S
O9 Mg0 2.048 . S
O9 C10 1.195 . S
C10 O9 1.195 . S
C10 O11 1.313 . S
O11 C10 1.313 . S
O12 Mg0 2.141 . S
O12 C3 1.289 . S
Mg13 O20 2.141 . S
Mg13 O21 2.048 . S
Mg13 O22 2.048 . S
Mg13 O25 2.141 . S
C14 O15 1.313 . S
C14 O21 1.195 . S
O15 C14 1.313 . S
C16 O17 1.245 . S
C16 O25 1.289 . S
O17 C16 1.245 . S
C18 O19 1.245 . S
C18 O20 1.289 . S
O19 C18 1.245 . S
O20 Mg13 2.141 . S
O20 C18 1.289 . S
O21 Mg13 2.048 . S
O21 C14 1.195 . S
O22 Mg13 2.048 . S
O22 C23 1.195 . S
C23 O22 1.195 . S
C23 O24 1.313 . S
O24 C23 1.313 . S
O25 Mg13 2.141 . S
O25 C16 1.289 . S
Mg26 O33 2.141 . S
Mg26 O34 2.048 . S
Mg26 O35 2.048 . S
Mg26 O38 2.141 . S
C27 O28 1.313 . S
C27 O34 1.195 . S
O28 C27 1.313 . S
C29 O30 1.245 . S
C29 O38 1.289 . S
O30 C29 1.245 . S
C31 O32 1.245 . S
C31 O33 1.289 . S
O32 C31 1.245 . S
O33 Mg26 2.141 . S
O33 C31 1.289 . S
O34 Mg26 2.048 . S
O34 C27 1.195 . S
O35 Mg26 2.048 . S
O35 C36 1.195 . S
C36 O35 1.195 . S
C36 O37 1.313 . S
O37 C36 1.313 . S
O38 Mg26 2.141 . S
O38 C29 1.289 . S
Mg39 O46 2.141 . S
Mg39 O47 2.048 . S
Mg39 O48 2.048 . S
Mg39 O51 2.141 . S
C40 O41 1.313 . S
C40 O47 1.195 . S
O41 C40 1.313 . S
C42 O43 1.245 . S
C42 O51 1.289 . S
O43 C42 1.245 . S
C44 O45 1.245 . S
C44 O46 1.289 . S
O45 C44 1.245 . S
O46 Mg39 2.141 . S
O46 C44 1.289 . S
O47 Mg39 2.048 . S
O47 C40 1.195 . S
O48 Mg39 2.048 . S
O48 C49 1.195 . S
C49 O48 1.195 . S
C49 O50 1.313 . S
O50 C49 1.313 . S
O51 Mg39 2.141 . S
O51 C42 1.289 . S
Mg52 O59 2.141 . S
Mg52 O60 2.048 . S
Mg52 O61 2.048 . S
Mg52 O64 2.141 . S
C53 O54 1.313 . S
C53 O60 1.195 . S
O54 C53 1.313 . S
C55 O56 1.245 . S
C55 O64 1.289 . S
O56 C55 1.245 . S
C57 O58 1.245 . S
C57 O59 1.289 . S
O58 C57 1.245 . S
O59 Mg52 2.141 . S
O59 C57 1.289 . S
O60 Mg52 2.048 . S
O60 C53 1.195 . S
O61 Mg52 2.048 . S
O61 C62 1.195 . S
C62 O61 1.195 . S
C62 O63 1.313 . S
O63 C62 1.313 . S
O64 Mg52 2.141 . S
O64 C55 1.289 . S
Mg65 O72 2.141 . S
Mg65 O73 2.048 . S
Mg65 O74 2.048 . S
Mg65 O77 2.141 . S
C66 O67 1.313 . S
C66 O73 1.195 . S
O67 C66 1.313 . S
C68 O69 1.245 . S
C68 O77 1.289 . S
O69 C68 1.245 . S
C70 O71 1.245 . S
C70 O72 1.289 . S
O71 C70 1.245 . S
O72 Mg65 2.141 . S
O72 C70 1.289 . S
O73 Mg65 2.048 . S
O73 C66 1.195 . S
O74 Mg65 2.048 . S
O74 C75 1.195 . S
C75 O74 1.195 . S
C75 O76 1.313 . S
O76 C75 1.313 . S
O77 Mg65 2.141 . S
O77 C68 1.289 . S
Mg78 O85 2.141 . S
Mg78 O86 2.048 . S
Mg78 O87 2.048 . S
Mg78 O90 2.141 . S
C79 O80 1.313 . S
C79 O86 1.195 . S
O80 C79 1.313 . S
C81 O82 1.245 . S
C81 O90 1.289 . S
O82 C81 1.245 . S
C83 O84 1.245 . S
C83 O85 1.289 . S
O84 C83 1.245 . S
O85 Mg78 2.141 . S
O85 C83 1.289 . S
O86 Mg78 2.048 . S
O86 C79 1.195 . S
O87 Mg78 2.048 . S
O87 C88 1.195 . S
C88 O87 1.195 . S
C88 O89 1.313 . S
O89 C88 1.313 . S
O90 Mg78 2.141 . S
O90 C81 1.289 . S
Mg91 O98 2.141 . S
Mg91 O99 2.048 . S
Mg91 O100 2.048 . S
Mg91 O103 2.141 . S
C92 O93 1.313 . S
C92 O99 1.195 . S
O93 C92 1.313 . S
C94 O95 1.245 . S
C94 O103 1.289 . S
O95 C94 1.245 . S
C96 O97 1.245 . S
C96 O98 1.289 . S
O97 C96 1.245 . S
O98 Mg91 2.141 . S
O98 C96 1.289 . S
O99 Mg91 2.048 . S
O99 C92 1.195 . S
O100 Mg91 2.048 . S
O100 C101 1.195 . S
C101 O100 1.195 . S
C101 O102 1.313 . S
O102 C101 1.313 . S
O103 Mg91 2.141 . S
O103 C94 1.289 . S
Mg104 O111 2.141 . S
Mg104 O112 2.048 . S
Mg104 O113 2.048 . S
Mg104 O116 2.141 . S
C105 O106 1.313 . S
C105 O112 1.195 . S
O106 C105 1.313 . S
C107 O108 1.245 . S
C107 O116 1.289 . S
O108 C107 1.245 . S
C109 O110 1.245 . S
C109 O111 1.289 . S
O110 C109 1.245 . S
O111 Mg104 2.141 . S
O111 C109 1.289 . S
O112 Mg104 2.048 . S
O112 C105 1.195 . S
O113 Mg104 2.048 . S
O113 C114 1.195 . S
C114 O113 1.195 . S
C114 O115 1.313 . S
O115 C114 1.313 . S
O116 Mg104 2.141 . S
O116 C107 1.289 . S
Mg117 O124 2.141 . S
Mg117 O125 2.048 . S
Mg117 O126 2.048 . S
Mg117 O129 2.141 . S
C118 O119 1.313 . S
C118 O125 1.195 . S
O119 C118 1.313 . S
C120 O121 1.245 . S
C120 O129 1.289 . S
O121 C120 1.245 . S
C122 O123 1.245 . S
C122 O124 1.289 . S
O123 C122 1.245 . S
O124 Mg117 2.141 . S
O124 C122 1.289 . S
O125 Mg117 2.048 . S
O125 C118 1.195 . S
O126 Mg117 2.048 . S
O126 C127 1.195 . S
C127 O126 1.195 . S
C127 O128 1.313 . S
O128 C127 1.313 . S
O129 Mg117 2.141 . S
O129 C120 1.289 . S
Mg130 O137 2.141 . S
Mg130 O138 2.048 . S
Mg130 O139 2.048 . S
Mg130 O142 2.141 . S
C131 O132 1.313 . S
C131 O138 1.195 . S
O132 C131 1.313 . S
C133 O134 1.245 . S
C133 O142 1.289 . S
O134 C133 1.245 . S
C135 O136 1.245 . S
C135 O137 1.289 . S
O136 C135 1.245 . S
O137 Mg130 2.141 . S
O137 C135 1.289 . S
O138 Mg130 2.048 . S
O138 C131 1.195 . S
O139 Mg130 2.048 . S
O139 C140 1.195 . S
C140 O139 1.195 . S
C140 O141 1.313 . S
O141 C140 1.313 . S
O142 Mg130 2.141 . S
O142 C133 1.289 . S
Mg143 O150 2.141 . S
Mg143 O151 2.048 . S
Mg143 O152 2.048 . S
Mg143 O155 2.141 . S
C144 O145 1.313 . S
C144 O151 1.195 . S
O145 C144 1.313 . S
C146 O147 1.245 . S
C146 O155 1.289 . S
O147 C146 1.245 . S
C148 O149 1.245 . S
C148 O150 1.289 . S
O149 C148 1.245 . S
O150 Mg143 2.141 . S
O150 C148 1.289 . S
O151 Mg143 2.048 . S
O151 C144 1.195 . S
O152 Mg143 2.048 . S
O152 C153 1.195 . S
C153 O152 1.195 . S
C153 O154 1.313 . S
O154 C153 1.313 . S
O155 Mg143 2.141 . S
O155 C146 1.289 . S
Mg156 O163 2.141 . S
Mg156 O164 2.048 . S
Mg156 O165 2.048 . S
Mg156 O168 2.141 . S
C157 O158 1.313 . S
C157 O164 1.195 . S
O158 C157 1.313 . S
C159 O160 1.245 . S
C159 O168 1.289 . S
O160 C159 1.245 . S
C161 O162 1.245 . S
C161 O163 1.289 . S
O162 C161 1.245 . S
O163 Mg156 2.141 . S
O163 C161 1.289 . S
O164 Mg156 2.048 . S
O164 C157 1.195 . S
O165 Mg156 2.048 . S
O165 C166 1.195 . S
C166 O165 1.195 . S
C166 O167 1.313 . S
O167 C166 1.313 . S
O168 Mg156 2.141 . S
O168 C159 1.289 . S
Mg169 O176 2.141 . S
Mg169 O177 2.048 . S
Mg169 O178 2.048 . S
Mg169 O181 2.141 . S
C170 O171 1.313 . S
C170 O177 1.195 . S
O171 C170 1.313 . S
C172 O173 1.245 . S
C172 O181 1.289 . S
O173 C172 1.245 . S
C174 O175 1.245 . S
C174 O176 1.289 . S
O175 C174 1.245 . S
O176 Mg169 2.141 . S
O176 C174 1.289 . S
O177 Mg169 2.048 . S
O177 C170 1.195 . S
O178 Mg169 2.048 . S
O178 C179 1.195 . S
C179 O178 1.195 . S
C179 O180 1.313 . S
O180 C179 1.313 . S
O181 Mg169 2.141 . S
O181 C172 1.289 . S
Mg182 O189 2.141 . S
Mg182 O190 2.048 . S
Mg182 O191 2.048 . S
Mg182 O194 2.141 . S
C183 O184 1.313 . S
C183 O190 1.195 . S
O184 C183 1.313 . S
C185 O186 1.245 . S
C185 O194 1.289 . S
O186 C185 1.245 . S
C187 O188 1.245 . S
C187 O189 1.289 . S
O188 C187 1.245 . S
O189 Mg182 2.141 . S
O189 C187 1.289 . S
O190 Mg182 2.048 . S
O190 C183 1.195 . S
O191 Mg182 2.048 . S
O191 C192 1.195 . S
C192 O191 1.195 . S
C192 O193 1.313 . S
O193 C192 1.313 . S
O194 Mg182 2.141 . S
O194 C185 1.289 . S
Mg195 O202 2.141 . S
Mg195 O203 2.048 . S
Mg195 O204 2.048 . S
Mg195 O207 2.141 . S
C196 O197 1.313 . S
C196 O203 1.195 . S
O197 C196 1.313 . S
C198 O199 1.245 . S
C198 O207 1.289 . S
O199 C198 1.245 . S
C200 O201 1.245 . S
C200 O202 1.289 . S
O201 C200 1.245 . S
O202 Mg195 2.141 . S
O202 C200 1.289 . S
O203 Mg195 2.048 . S
O203 C196 1.195 . S
O204 Mg195 2.048 . S
O204 C205 1.195 . S
C205 O204 1.195 . S
C205 O206 1.313 . S
O206 C205 1.313 . S
O207 Mg195 2.141 . S
O207 C198 1.289 . S
Mg208 O215 2.141 . S
Mg208 O216 2.048 . S
Mg208 O217 2.048 . S
Mg208 O220 2.141 . S
C209 O210 1.313 . S
C209 O216 1.195 . S
O210 C209 1.313 . S
C211 O212 1.245 . S
C211 O220 1.289 . S
O212 C211 1.245 . S
C213 O214 1.245 . S
C213 O215 1.289 . S
O214 C213 1.245 . S
O215 Mg208 2.141 . S
O215 C213 1.289 . S
O216 Mg208 2.048 . S
O216 C209 1.195 . S
O217 Mg208 2.048 . S
O217 C218 1.195 . S
C218 O217 1.195 . S
C218 O219 1.313 . S
O219 C218 1.313 . S
O220 Mg208 2.141 . S
O220 C211 1.289 . S
Mg221 O228 2.141 . S
Mg221 O229 2.048 . S
Mg221 O230 2.048 . S
Mg221 O233 2.141 . S
C222 O223 1.313 . S
C222 O229 1.195 . S
O223 C222 1.313 . S
C224 O225 1.245 . S
C224 O233 1.289 . S
O225 C224 1.245 . S
C226 O227 1.245 . S
C226 O228 1.289 . S
O227 C226 1.245 . S
O228 Mg221 2.141 . S
O228 C226 1.289 . S
O229 Mg221 2.048 . S
O229 C222 1.195 . S
O230 Mg221 2.048 . S
O230 C231 1.195 . S
C231 O230 1.195 . S
C231 O232 1.313 . S
O232 C231 1.313 . S
O233 Mg221 2.141 . S
O233 C224 1.289 . S
Mg234 O241 2.141 . S
Mg234 O242 2.048 . S
Mg234 O243 2.048 . S
Mg234 O246 2.141 . S
C235 O236 1.313 . S
C235 O242 1.195 . S
O236 C235 1.313 . S
C237 O238 1.245 . S
C237 O246 1.289 . S
O238 C237 1.245 . S
C239 O240 1.245 . S
C239 O241 1.289 . S
O240 C239 1.245 . S
O241 Mg234 2.141 . S
O241 C239 1.289 . S
O242 Mg234 2.048 . S
O242 C235 1.195 . S
O243 Mg234 2.048 . S
O243 C244 1.195 . S
C244 O243 1.195 . S
C244 O245 1.313 . S
O245 C244 1.313 . S
O246 Mg234 2.141 . S
O246 C237 1.289 . S
Mg247 O254 2.141 . S
Mg247 O255 2.048 . S
Mg247 O256 2.048 . S
Mg247 O259 2.141 . S
C248 O249 1.313 . S
C248 O255 1.195 . S
O249 C248 1.313 . S
C250 O251 1.245 . S
C250 O259 1.289 . S
O251 C250 1.245 . S
C252 O253 1.245 . S
C252 O254 1.289 . S
O253 C252 1.245 . S
O254 Mg247 2.141 . S
O254 C252 1.289 . S
O255 Mg247 2.048 . S
O255 C248 1.195 . S
O256 Mg247 2.048 . S
O256 C257 1.195 . S
C257 O256 1.195 . S
C257 O258 1.313 . S
O258 C257 1.313 . S
O259 Mg247 2.141 . S
O259 C250 1.289 . S
Mg260 O267 2.141 . S
Mg260 O268 2.048 . S
Mg260 O269 2.048 . S
Mg260 O272 2.141 . S
C261 O262 1.313 . S
C261 O268 1.195 . S
O262 C261 1.313 . S
C263 O264 1.245 . S
C263 O272 1.289 . S
O264 C263 1.245 . S
C265 O266 1.245 . S
C265 O267 1.289 . S
O266 C265 1.245 . S
O267 Mg260 2.141 . S
O267 C265 1.289 . S
O268 Mg260 2.048 . S
O268 C261 1.195 . S
O269 Mg260 2.048 . S
O269 C270 1.195 . S
C270 O269 1.195 . S
C270 O271 1.313 . S
O271 C270 1.313 . S
O272 Mg260 2.141 . S
O272 C263 1.289 . S
Mg273 O280 2.141 . S
Mg273 O281 2.048 . S
Mg273 O282 2.048 . S
Mg273 O285 2.141 . S
C274 O275 1.313 . S
C274 O281 1.195 . S
O275 C274 1.313 . S
C276 O277 1.245 . S
C276 O285 1.289 . S
O277 C276 1.245 . S
C278 O279 1.245 . S
C278 O280 1.289 . S
O279 C278 1.245 . S
O280 Mg273 2.141 . S
O280 C278 1.289 . S
O281 Mg273 2.048 . S
O281 C274 1.195 . S
O282 Mg273 2.048 . S
O282 C283 1.195 . S
C283 O282 1.195 . S
C283 O284 1.313 . S
O284 C283 1.313 . S
O285 Mg273 2.141 . S
O285 C276 1.289 . S
Mg286 O293 2.141 . S
Mg286 O294 2.048 . S
Mg286 O295 2.048 . S
Mg286 O298 2.141 . S
C287 O288 1.313 . S
C287 O294 1.195 . S
O288 C287 1.313 . S
C289 O290 1.245 . S
C289 O298 1.289 . S
O290 C289 1.245 . S
C291 O292 1.245 . S
C291 O293 1.289 . S
O292 C291 1.245 . S
O293 Mg286 2.141 . S
O293 C291 1.289 . S
O294 Mg286 2.048 . S
O294 C287 1.195 . S
O295 Mg286 2.048 . S
O295 C296 1.195 . S
C296 O295 1.195 . S
C296 O297 1.313 . S
O297 C296 1.313 . S
O298 Mg286 2.141 . S
O298 C289 1.289 . S
Mg299 O306 2.141 . S
Mg299 O307 2.048 . S
Mg299 O308 2.048 . S
Mg299 O311 2.141 . S
C300 O301 1.313 . S
C300 O307 1.195 . S
O301 C300 1.313 . S
C302 O303 1.245 . S
C302 O311 1.289 . S
O303 C302 1.245 . S
C304 O305 1.245 . S
C304 O306 1.289 . S
O305 C304 1.245 . S
O306 Mg299 2.141 . S
O306 C304 1.289 . S
O307 Mg299 2.048 . S
O307 C300 1.195 . S
O308 Mg299 2.048 . S
O308 C309 1.195 . S
C309 O308 1.195 . S
C309 O310 1.313 . S
O310 C309 1.313 . S
O311 Mg299 2.141 . S
O311 C302 1.289 . S
H312 C318 0.930 . S
H313 C322 0.930 . S
H314 C327 0.929 . S
H315 C325 0.929 . S
H316 C320 0.929 . S
H317 C326 0.929 . S
C318 H312 0.930 . S
C318 C319 1.367 . S
C318 C326 1.378 . S
C319 C318 1.367 . S
C319 C327 1.433 . S
C320 H316 0.929 . S
C320 C322 1.378 . S
C320 C324 1.350 . S
C321 C324 1.463 . S
C321 C326 1.350 . S
C321 N329 1.427 . S
C322 H313 0.930 . S
C322 C320 1.378 . S
C322 C323 1.367 . S
C323 C322 1.367 . S
C323 C325 1.433 . S
C324 C320 1.350 . S
C324 C321 1.463 . S
C324 N328 1.427 . S
C325 H315 0.929 . S
C325 C323 1.433 . S
C325 N328 1.384 . S
C326 H317 0.929 . S
C326 C318 1.378 . S
C326 C321 1.350 . S
C327 H314 0.929 . S
C327 C319 1.433 . S
C327 N329 1.384 . S
N328 C324 1.427 . S
N328 C325 1.384 . S
N329 C321 1.427 . S
N329 C327 1.384 . S
H330 C336 0.930 . S
H331 C340 0.930 . S
H332 C345 0.929 . S
H333 C343 0.929 . S
H334 C338 0.929 . S
H335 C344 0.929 . S
C336 H330 0.930 . S
C336 C337 1.367 . S
C336 C344 1.378 . S
C337 C336 1.367 . S
C337 C345 1.433 . S
C338 H334 0.929 . S
C338 C340 1.378 . S
C338 C342 1.350 . S
C339 C342 1.463 . S
C339 C344 1.350 . S
C339 N347 1.427 . S
C340 H331 0.930 . S
C340 C338 1.378 . S
C340 C341 1.367 . S
C341 C340 1.367 . S
C341 C343 1.433 . S
C342 C338 1.350 . S
C342 C339 1.463 . S
C342 N346 1.427 . S
C343 H333 0.929 . S
C343 C341 1.433 . S
C343 N346 1.384 . S
C344 H335 0.929 . S
C344 C336 1.378 . S
C344 C339 1.350 . S
C345 H332 0.929 . S
C345 C337 1.433 . S
C345 N347 1.384 . S
N346 C342 1.427 . S
N346 C343 1.384 . S
N347 C339 1.427 . S
N347 C345 1.384 . S
H348 C354 0.930 . S
H349 C358 0.930 . S
H350 C363 0.929 . S
H351 C361 0.929 . S
H352 C356 0.929 . S
H353 C362 0.929 . S
C354 H348 0.930 . S
C354 C355 1.367 . S
C354 C362 1.378 . S
C355 C354 1.367 . S
C355 C363 1.433 . S
C356 H352 0.929 . S
C356 C358 1.378 . S
C356 C360 1.350 . S
C357 C360 1.463 . S
C357 C362 1.350 . S
C357 N365 1.427 . S
C358 H349 0.930 . S
C358 C356 1.378 . S
C358 C359 1.367 . S
C359 C358 1.367 . S
C359 C361 1.433 . S
C360 C356 1.350 . S
C360 C357 1.463 . S
C360 N364 1.427 . S
C361 H351 0.929 . S
C361 C359 1.433 . S
C361 N364 1.384 . S
C362 H353 0.929 . S
C362 C354 1.378 . S
C362 C357 1.350 . S
C363 H350 0.929 . S
C363 C355 1.433 . S
C363 N365 1.384 . S
N364 C360 1.427 . S
N364 C361 1.384 . S
N365 C357 1.427 . S
N365 C363 1.384 . S
H366 C372 0.930 . S
H367 C376 0.930 . S
H368 C381 0.929 . S
H369 C379 0.929 . S
H370 C374 0.929 . S
H371 C380 0.929 . S
C372 H366 0.930 . S
C372 C373 1.367 . S
C372 C380 1.378 . S
C373 C372 1.367 . S
C373 C381 1.433 . S
C374 H370 0.929 . S
C374 C376 1.378 . S
C374 C378 1.350 . S
C375 C378 1.463 . S
C375 C380 1.350 . S
C375 N383 1.427 . S
C376 H367 0.930 . S
C376 C374 1.378 . S
C376 C377 1.367 . S
C377 C376 1.367 . S
C377 C379 1.433 . S
C378 C374 1.350 . S
C378 C375 1.463 . S
C378 N382 1.427 . S
C379 H369 0.929 . S
C379 C377 1.433 . S
C379 N382 1.384 . S
C380 H371 0.929 . S
C380 C372 1.378 . S
C380 C375 1.350 . S
C381 H368 0.929 . S
C381 C373 1.433 . S
C381 N383 1.384 . S
N382 C378 1.427 . S
N382 C379 1.384 . S
N383 C375 1.427 . S
N383 C381 1.384 . S
H384 C390 0.930 . S
H385 C394 0.930 . S
H386 C399 0.929 . S
H387 C397 0.929 . S
H388 C392 0.929 . S
H389 C398 0.929 . S
C390 H384 0.930 . S
C390 C391 1.367 . S
C390 C398 1.378 . S
C391 C390 1.367 . S
C391 C399 1.433 . S
C392 H388 0.929 . S
C392 C394 1.378 . S
C392 C396 1.350 . S
C393 C396 1.463 . S
C393 C398 1.350 . S
C393 N401 1.427 . S
C394 H385 0.930 . S
C394 C392 1.378 . S
C394 C395 1.367 . S
C395 C394 1.367 . S
C395 C397 1.433 . S
C396 C392 1.350 . S
C396 C393 1.463 . S
C396 N400 1.427 . S
C397 H387 0.929 . S
C397 C395 1.433 . S
C397 N400 1.384 . S
C398 H389 0.929 . S
C398 C390 1.378 . S
C398 C393 1.350 . S
C399 H386 0.929 . S
C399 C391 1.433 . S
C399 N401 1.384 . S
N400 C396 1.427 . S
N400 C397 1.384 . S
N401 C393 1.427 . S
N401 C399 1.384 . S
H402 C408 0.930 . S
H403 C412 0.930 . S
H404 C417 0.929 . S
H405 C415 0.929 . S
H406 C410 0.929 . S
H407 C416 0.929 . S
C408 H402 0.930 . S
C408 C409 1.367 . S
C408 C416 1.378 . S
C409 C408 1.367 . S
C409 C417 1.433 . S
C410 H406 0.929 . S
C410 C412 1.378 . S
C410 C414 1.350 . S
C411 C414 1.463 . S
C411 C416 1.350 . S
C411 N419 1.427 . S
C412 H403 0.930 . S
C412 C410 1.378 . S
C412 C413 1.367 . S
C413 C412 1.367 . S
C413 C415 1.433 . S
C414 C410 1.350 . S
C414 C411 1.463 . S
C414 N418 1.427 . S
C415 H405 0.929 . S
C415 C413 1.433 . S
C415 N418 1.384 . S
C416 H407 0.929 . S
C416 C408 1.378 . S
C416 C411 1.350 . S
C417 H404 0.929 . S
C417 C409 1.433 . S
C417 N419 1.384 . S
N418 C414 1.427 . S
N418 C415 1.384 . S
N419 C411 1.427 . S
N419 C417 1.384 . S
H420 C426 0.930 . S
H421 C430 0.930 . S
H422 C435 0.929 . S
H423 C433 0.929 . S
H424 C428 0.929 . S
H425 C434 0.929 . S
C426 H420 0.930 . S
C426 C427 1.367 . S
C426 C434 1.378 . S
C427 C426 1.367 . S
C427 C435 1.433 . S
C428 H424 0.929 . S
C428 C430 1.378 . S
C428 C432 1.350 . S
C429 C432 1.463 . S
C429 C434 1.350 . S
C429 N437 1.427 . S
C430 H421 0.930 . S
C430 C428 1.378 . S
C430 C431 1.367 . S
C431 C430 1.367 . S
C431 C433 1.433 . S
C432 C428 1.350 . S
C432 C429 1.463 . S
C432 N436 1.427 . S
C433 H423 0.929 . S
C433 C431 1.433 . S
C433 N436 1.384 . S
C434 H425 0.929 . S
C434 C426 1.378 . S
C434 C429 1.350 . S
C435 H422 0.929 . S
C435 C427 1.433 . S
C435 N437 1.384 . S
N436 C432 1.427 . S
N436 C433 1.384 . S
N437 C429 1.427 . S
N437 C435 1.384 . S
H438 C444 0.930 . S
H439 C448 0.930 . S
H440 C453 0.929 . S
H441 C451 0.929 . S
H442 C446 0.929 . S
H443 C452 0.929 . S
C444 H438 0.930 . S
C444 C445 1.367 . S
C444 C452 1.378 . S
C445 C444 1.367 . S
C445 C453 1.433 . S
C446 H442 0.929 . S
C446 C448 1.378 . S
C446 C450 1.350 . S
C447 C450 1.463 . S
C447 C452 1.350 . S
C447 N455 1.427 . S
C448 H439 0.930 . S
C448 C446 1.378 . S
C448 C449 1.367 . S
C449 C448 1.367 . S
C449 C451 1.433 . S
C450 C446 1.350 . S
C450 C447 1.463 . S
C450 N454 1.427 . S
C451 H441 0.929 . S
C451 C449 1.433 . S
C451 N454 1.384 . S
C452 H443 0.929 . S
C452 C444 1.378 . S
C452 C447 1.350 . S
C453 H440 0.929 . S
C453 C445 1.433 . S
C453 N455 1.384 . S
N454 C450 1.427 . S
N454 C451 1.384 . S
N455 C447 1.427 . S
N455 C453 1.384 . S
H456 C462 0.930 . S
H457 C466 0.930 . S
H458 C471 0.929 . S
H459 C469 0.929 . S
H460 C464 0.929 . S
H461 C470 0.929 . S
C462 H456 0.930 . S
C462 C463 1.367 . S
C462 C470 1.378 . S
C463 C462 1.367 . S
C463 C471 1.433 . S
C464 H460 0.929 . S
C464 C466 1.378 . S
C464 C468 1.350 . S
C465 C468 1.463 . S
C465 C470 1.350 . S
C465 N473 1.427 . S
C466 H457 0.930 . S
C466 C464 1.378 . S
C466 C467 1.367 . S
C467 C466 1.367 . S
C467 C469 1.433 . S
C468 C464 1.350 . S
C468 C465 1.463 . S
C468 N472 1.427 . S
C469 H459 0.929 . S
C469 C467 1.433 . S
C469 N472 1.384 . S
C470 H461 0.929 . S
C470 C462 1.378 . S
C470 C465 1.350 . S
C471 H458 0.929 . S
C471 C463 1.433 . S
C471 N473 1.384 . S
N472 C468 1.427 . S
N472 C469 1.384 . S
N473 C465 1.427 . S
N473 C471 1.384 . S
H474 C480 0.930 . S
H475 C484 0.930 . S
H476 C489 0.929 . S
H477 C487 0.929 . S
H478 C482 0.929 . S
H479 C488 0.929 . S
C480 H474 0.930 . S
C480 C481 1.367 . S
C480 C488 1.378 . S
C481 C480 1.367 . S
C481 C489 1.433 . S
C482 H478 0.929 . S
C482 C484 1.378 . S
C482 C486 1.350 . S
C483 C486 1.463 . S
C483 C488 1.350 . S
C483 N491 1.427 . S
C484 H475 0.930 . S
C484 C482 1.378 . S
C484 C485 1.367 . S
C485 C484 1.367 . S
C485 C487 1.433 . S
C486 C482 1.350 . S
C486 C483 1.463 . S
C486 N490 1.427 . S
C487 H477 0.929 . S
C487 C485 1.433 . S
C487 N490 1.384 . S
C488 H479 0.929 . S
C488 C480 1.378 . S
C488 C483 1.350 . S
C489 H476 0.929 . S
C489 C481 1.433 . S
C489 N491 1.384 . S
N490 C486 1.427 . S
N490 C487 1.384 . S
N491 C483 1.427 . S
N491 C489 1.384 . S
H492 C498 0.930 . S
H493 C502 0.930 . S
H494 C507 0.929 . S
H495 C505 0.929 . S
H496 C500 0.929 . S
H497 C506 0.929 . S
C498 H492 0.930 . S
C498 C499 1.367 . S
C498 C506 1.378 . S
C499 C498 1.367 . S
C499 C507 1.433 . S
C500 H496 0.929 . S
C500 C502 1.378 . S
C500 C504 1.350 . S
C501 C504 1.463 . S
C501 C506 1.350 . S
C501 N509 1.427 . S
C502 H493 0.930 . S
C502 C500 1.378 . S
C502 C503 1.367 . S
C503 C502 1.367 . S
C503 C505 1.433 . S
C504 C500 1.350 . S
C504 C501 1.463 . S
C504 N508 1.427 . S
C505 H495 0.929 . S
C505 C503 1.433 . S
C505 N508 1.384 . S
C506 H497 0.929 . S
C506 C498 1.378 . S
C506 C501 1.350 . S
C507 H494 0.929 . S
C507 C499 1.433 . S
C507 N509 1.384 . S
N508 C504 1.427 . S
N508 C505 1.384 . S
N509 C501 1.427 . S
N509 C507 1.384 . S
H510 C516 0.930 . S
H511 C520 0.930 . S
H512 C525 0.929 . S
H513 C523 0.929 . S
H514 C518 0.929 . S
H515 C524 0.929 . S
C516 H510 0.930 . S
C516 C517 1.367 . S
C516 C524 1.378 . S
C517 C516 1.367 . S
C517 C525 1.433 . S
C518 H514 0.929 . S
C518 C520 1.378 . S
C518 C522 1.350 . S
C519 C522 1.463 . S
C519 C524 1.350 . S
C519 N527 1.427 . S
C520 H511 0.930 . S
C520 C518 1.378 . S
C520 C521 1.367 . S
C521 C520 1.367 . S
C521 C523 1.433 . S
C522 C518 1.350 . S
C522 C519 1.463 . S
C522 N526 1.427 . S
C523 H513 0.929 . S
C523 C521 1.433 . S
C523 N526 1.384 . S
C524 H515 0.929 . S
C524 C516 1.378 . S
C524 C519 1.350 . S
C525 H512 0.929 . S
C525 C517 1.433 . S
C525 N527 1.384 . S
N526 C522 1.427 . S
N526 C523 1.384 . S
N527 C519 1.427 . S
N527 C525 1.384 . S
H528 C534 0.930 . S
H529 C538 0.930 . S
H530 C543 0.929 . S
H531 C541 0.929 . S
H532 C536 0.929 . S
H533 C542 0.929 . S
C534 H528 0.930 . S
C534 C535 1.367 . S
C534 C542 1.378 . S
C535 C534 1.367 . S
C535 C543 1.433 . S
C536 H532 0.929 . S
C536 C538 1.378 . S
C536 C540 1.350 . S
C537 C540 1.463 . S
C537 C542 1.350 . S
C537 N545 1.427 . S
C538 H529 0.930 . S
C538 C536 1.378 . S
C538 C539 1.367 . S
C539 C538 1.367 . S
C539 C541 1.433 . S
C540 C536 1.350 . S
C540 C537 1.463 . S
C540 N544 1.427 . S
C541 H531 0.929 . S
C541 C539 1.433 . S
C541 N544 1.384 . S
C542 H533 0.929 . S
C542 C534 1.378 . S
C542 C537 1.350 . S
C543 H530 0.929 . S
C543 C535 1.433 . S
C543 N545 1.384 . S
N544 C540 1.427 . S
N544 C541 1.384 . S
N545 C537 1.427 . S
N545 C543 1.384 . S
H546 C552 0.930 . S
H547 C556 0.930 . S
H548 C561 0.929 . S
H549 C559 0.929 . S
H550 C554 0.929 . S
H551 C560 0.929 . S
C552 H546 0.930 . S
C552 C553 1.367 . S
C552 C560 1.378 . S
C553 C552 1.367 . S
C553 C561 1.433 . S
C554 H550 0.929 . S
C554 C556 1.378 . S
C554 C558 1.350 . S
C555 C558 1.463 . S
C555 C560 1.350 . S
C555 N563 1.427 . S
C556 H547 0.930 . S
C556 C554 1.378 . S
C556 C557 1.367 . S
C557 C556 1.367 . S
C557 C559 1.433 . S
C558 C554 1.350 . S
C558 C555 1.463 . S
C558 N562 1.427 . S
C559 H549 0.929 . S
C559 C557 1.433 . S
C559 N562 1.384 . S
C560 H551 0.929 . S
C560 C552 1.378 . S
C560 C555 1.350 . S
C561 H548 0.929 . S
C561 C553 1.433 . S
C561 N563 1.384 . S
N562 C558 1.427 . S
N562 C559 1.384 . S
N563 C555 1.427 . S
N563 C561 1.384 . S
H564 C570 0.930 . S
H565 C574 0.930 . S
H566 C579 0.929 . S
H567 C577 0.929 . S
H568 C572 0.929 . S
H569 C578 0.929 . S
C570 H564 0.930 . S
C570 C571 1.367 . S
C570 C578 1.378 . S
C571 C570 1.367 . S
C571 C579 1.433 . S
C572 H568 0.929 . S
C572 C574 1.378 . S
C572 C576 1.350 . S
C573 C576 1.463 . S
C573 C578 1.350 . S
C573 N581 1.427 . S
C574 H565 0.930 . S
C574 C572 1.378 . S
C574 C575 1.367 . S
C575 C574 1.367 . S
C575 C577 1.433 . S
C576 C572 1.350 . S
C576 C573 1.463 . S
C576 N580 1.427 . S
C577 H567 0.929 . S
C577 C575 1.433 . S
C577 N580 1.384 . S
C578 H569 0.929 . S
C578 C570 1.378 . S
C578 C573 1.350 . S
C579 H566 0.929 . S
C579 C571 1.433 . S
C579 N581 1.384 . S
N580 C576 1.427 . S
N580 C577 1.384 . S
N581 C573 1.427 . S
N581 C579 1.384 . S
H582 C588 0.930 . S
H583 C592 0.930 . S
H584 C597 0.929 . S
H585 C595 0.929 . S
H586 C590 0.929 . S
H587 C596 0.929 . S
C588 H582 0.930 . S
C588 C589 1.367 . S
C588 C596 1.378 . S
C589 C588 1.367 . S
C589 C597 1.433 . S
C590 H586 0.929 . S
C590 C592 1.378 . S
C590 C594 1.350 . S
C591 C594 1.463 . S
C591 C596 1.350 . S
C591 N599 1.427 . S
C592 H583 0.930 . S
C592 C590 1.378 . S
C592 C593 1.367 . S
C593 C592 1.367 . S
C593 C595 1.433 . S
C594 C590 1.350 . S
C594 C591 1.463 . S
C594 N598 1.427 . S
C595 H585 0.929 . S
C595 C593 1.433 . S
C595 N598 1.384 . S
C596 H587 0.929 . S
C596 C588 1.378 . S
C596 C591 1.350 . S
C597 H584 0.929 . S
C597 C589 1.433 . S
C597 N599 1.384 . S
N598 C594 1.427 . S
N598 C595 1.384 . S
N599 C591 1.427 . S
N599 C597 1.384 . S
H600 C606 0.930 . S
H601 C610 0.930 . S
H602 C615 0.929 . S
H603 C613 0.929 . S
H604 C608 0.929 . S
H605 C614 0.929 . S
C606 H600 0.930 . S
C606 C607 1.367 . S
C606 C614 1.378 . S
C607 C606 1.367 . S
C607 C615 1.433 . S
C608 H604 0.929 . S
C608 C610 1.378 . S
C608 C612 1.350 . S
C609 C612 1.463 . S
C609 C614 1.350 . S
C609 N617 1.427 . S
C610 H601 0.930 . S
C610 C608 1.378 . S
C610 C611 1.367 . S
C611 C610 1.367 . S
C611 C613 1.433 . S
C612 C608 1.350 . S
C612 C609 1.463 . S
C612 N616 1.427 . S
C613 H603 0.929 . S
C613 C611 1.433 . S
C613 N616 1.384 . S
C614 H605 0.929 . S
C614 C606 1.378 . S
C614 C609 1.350 . S
C615 H602 0.929 . S
C615 C607 1.433 . S
C615 N617 1.384 . S
N616 C612 1.427 . S
N616 C613 1.384 . S
N617 C609 1.427 . S
N617 C615 1.384 . S
H618 C624 0.930 . S
H619 C628 0.930 . S
H620 C633 0.929 . S
H621 C631 0.929 . S
H622 C626 0.929 . S
H623 C632 0.929 . S
C624 H618 0.930 . S
C624 C625 1.367 . S
C624 C632 1.378 . S
C625 C624 1.367 . S
C625 C633 1.433 . S
C626 H622 0.929 . S
C626 C628 1.378 . S
C626 C630 1.350 . S
C627 C630 1.463 . S
C627 C632 1.350 . S
C627 N635 1.427 . S
C628 H619 0.930 . S
C628 C626 1.378 . S
C628 C629 1.367 . S
C629 C628 1.367 . S
C629 C631 1.433 . S
C630 C626 1.350 . S
C630 C627 1.463 . S
C630 N634 1.427 . S
C631 H621 0.929 . S
C631 C629 1.433 . S
C631 N634 1.384 . S
C632 H623 0.929 . S
C632 C624 1.378 . S
C632 C627 1.350 . S
C633 H620 0.929 . S
C633 C625 1.433 . S
C633 N635 1.384 . S
N634 C630 1.427 . S
N634 C631 1.384 . S
N635 C627 1.427 . S
N635 C633 1.384 . S
H636 C642 0.930 . S
H637 C646 0.930 . S
H638 C651 0.929 . S
H639 C649 0.929 . S
H640 C644 0.929 . S
H641 C650 0.929 . S
C642 H636 0.930 . S
C642 C643 1.367 . S
C642 C650 1.378 . S
C643 C642 1.367 . S
C643 C651 1.433 . S
C644 H640 0.929 . S
C644 C646 1.378 . S
C644 C648 1.350 . S
C645 C648 1.463 . S
C645 C650 1.350 . S
C645 N653 1.427 . S
C646 H637 0.930 . S
C646 C644 1.378 . S
C646 C647 1.367 . S
C647 C646 1.367 . S
C647 C649 1.433 . S
C648 C644 1.350 . S
C648 C645 1.463 . S
C648 N652 1.427 . S
C649 H639 0.929 . S
C649 C647 1.433 . S
C649 N652 1.384 . S
C650 H641 0.929 . S
C650 C642 1.378 . S
C650 C645 1.350 . S
C651 H638 0.929 . S
C651 C643 1.433 . S
C651 N653 1.384 . S
N652 C648 1.427 . S
N652 C649 1.384 . S
N653 C645 1.427 . S
N653 C651 1.384 . S
H654 C660 0.930 . S
H655 C664 0.930 . S
H656 C669 0.929 . S
H657 C667 0.929 . S
H658 C662 0.929 . S
H659 C668 0.929 . S
C660 H654 0.930 . S
C660 C661 1.367 . S
C660 C668 1.378 . S
C661 C660 1.367 . S
C661 C669 1.433 . S
C662 H658 0.929 . S
C662 C664 1.378 . S
C662 C666 1.350 . S
C663 C666 1.463 . S
C663 C668 1.350 . S
C663 N671 1.427 . S
C664 H655 0.930 . S
C664 C662 1.378 . S
C664 C665 1.367 . S
C665 C664 1.367 . S
C665 C667 1.433 . S
C666 C662 1.350 . S
C666 C663 1.463 . S
C666 N670 1.427 . S
C667 H657 0.929 . S
C667 C665 1.433 . S
C667 N670 1.384 . S
C668 H659 0.929 . S
C668 C660 1.378 . S
C668 C663 1.350 . S
C669 H656 0.929 . S
C669 C661 1.433 . S
C669 N671 1.384 . S
N670 C666 1.427 . S
N670 C667 1.384 . S
N671 C663 1.427 . S
N671 C669 1.384 . S
H672 C678 0.930 . S
H673 C682 0.930 . S
H674 C687 0.929 . S
H675 C685 0.929 . S
H676 C680 0.929 . S
H677 C686 0.929 . S
C678 H672 0.930 . S
C678 C679 1.367 . S
C678 C686 1.378 . S
C679 C678 1.367 . S
C679 C687 1.433 . S
C680 H676 0.929 . S
C680 C682 1.378 . S
C680 C684 1.350 . S
C681 C684 1.463 . S
C681 C686 1.350 . S
C681 N689 1.427 . S
C682 H673 0.930 . S
C682 C680 1.378 . S
C682 C683 1.367 . S
C683 C682 1.367 . S
C683 C685 1.433 . S
C684 C680 1.350 . S
C684 C681 1.463 . S
C684 N688 1.427 . S
C685 H675 0.929 . S
C685 C683 1.433 . S
C685 N688 1.384 . S
C686 H677 0.929 . S
C686 C678 1.378 . S
C686 C681 1.350 . S
C687 H674 0.929 . S
C687 C679 1.433 . S
C687 N689 1.384 . S
N688 C684 1.427 . S
N688 C685 1.384 . S
N689 C681 1.427 . S
N689 C687 1.384 . S
H690 C696 0.930 . S
H691 C700 0.930 . S
H692 C705 0.929 . S
H693 C703 0.929 . S
H694 C698 0.929 . S
H695 C704 0.929 . S
C696 H690 0.930 . S
C696 C697 1.367 . S
C696 C704 1.378 . S
C697 C696 1.367 . S
C697 C705 1.433 . S
C698 H694 0.929 . S
C698 C700 1.378 . S
C698 C702 1.350 . S
C699 C702 1.463 . S
C699 C704 1.350 . S
C699 N707 1.427 . S
C700 H691 0.930 . S
C700 C698 1.378 . S
C700 C701 1.367 . S
C701 C700 1.367 . S
C701 C703 1.433 . S
C702 C698 1.350 . S
C702 C699 1.463 . S
C702 N706 1.427 . S
C703 H693 0.929 . S
C703 C701 1.433 . S
C703 N706 1.384 . S
C704 H695 0.929 . S
C704 C696 1.378 . S
C704 C699 1.350 . S
C705 H692 0.929 . S
C705 C697 1.433 . S
C705 N707 1.384 . S
N706 C702 1.427 . S
N706 C703 1.384 . S
N707 C699 1.427 . S
N707 C705 1.384 . S
H708 C714 0.930 . S
H709 C718 0.930 . S
H710 C723 0.929 . S
H711 C721 0.929 . S
H712 C716 0.929 . S
H713 C722 0.929 . S
C714 H708 0.930 . S
C714 C715 1.367 . S
C714 C722 1.378 . S
C715 C714 1.367 . S
C715 C723 1.433 . S
C716 H712 0.929 . S
C716 C718 1.378 . S
C716 C720 1.350 . S
C717 C720 1.463 . S
C717 C722 1.350 . S
C717 N725 1.427 . S
C718 H709 0.930 . S
C718 C716 1.378 . S
C718 C719 1.367 . S
C719 C718 1.367 . S
C719 C721 1.433 . S
C720 C716 1.350 . S
C720 C717 1.463 . S
C720 N724 1.427 . S
C721 H711 0.929 . S
C721 C719 1.433 . S
C721 N724 1.384 . S
C722 H713 0.929 . S
C722 C714 1.378 . S
C722 C717 1.350 . S
C723 H710 0.929 . S
C723 C715 1.433 . S
C723 N725 1.384 . S
N724 C720 1.427 . S
N724 C721 1.384 . S
N725 C717 1.427 . S
N725 C723 1.384 . S
H726 C732 0.930 . S
H727 C736 0.930 . S
H728 C741 0.929 . S
H729 C739 0.929 . S
H730 C734 0.929 . S
H731 C740 0.929 . S
C732 H726 0.930 . S
C732 C733 1.367 . S
C732 C740 1.378 . S
C733 C732 1.367 . S
C733 C741 1.433 . S
C734 H730 0.929 . S
C734 C736 1.378 . S
C734 C738 1.350 . S
C735 C738 1.463 . S
C735 C740 1.350 . S
C735 N743 1.427 . S
C736 H727 0.930 . S
C736 C734 1.378 . S
C736 C737 1.367 . S
C737 C736 1.367 . S
C737 C739 1.433 . S
C738 C734 1.350 . S
C738 C735 1.463 . S
C738 N742 1.427 . S
C739 H729 0.929 . S
C739 C737 1.433 . S
C739 N742 1.384 . S
C740 H731 0.929 . S
C740 C732 1.378 . S
C740 C735 1.350 . S
C741 H728 0.929 . S
C741 C733 1.433 . S
C741 N743 1.384 . S
N742 C738 1.427 . S
N742 C739 1.384 . S
N743 C735 1.427 . S
N743 C741 1.384 . S
H744 C750 0.930 . S
H745 C754 0.930 . S
H746 C759 0.929 . S
H747 C757 0.929 . S
H748 C752 0.929 . S
H749 C758 0.929 . S
C750 H744 0.930 . S
C750 C751 1.367 . S
C750 C758 1.378 . S
C751 C750 1.367 . S
C751 C759 1.433 . S
C752 H748 0.929 . S
C752 C754 1.378 . S
C752 C756 1.350 . S
C753 C756 1.463 . S
C753 C758 1.350 . S
C753 N761 1.427 . S
C754 H745 0.930 . S
C754 C752 1.378 . S
C754 C755 1.367 . S
C755 C754 1.367 . S
C755 C757 1.433 . S
C756 C752 1.350 . S
C756 C753 1.463 . S
C756 N760 1.427 . S
C757 H747 0.929 . S
C757 C755 1.433 . S
C757 N760 1.384 . S
C758 H749 0.929 . S
C758 C750 1.378 . S
C758 C753 1.350 . S
C759 H746 0.929 . S
C759 C751 1.433 . S
C759 N761 1.384 . S
N760 C756 1.427 . S
N760 C757 1.384 . S
N761 C753 1.427 . S
N761 C759 1.384 . S
H762 C768 0.930 . S
H763 C772 0.930 . S
H764 C777 0.929 . S
H765 C775 0.929 . S
H766 C770 0.929 . S
H767 C776 0.929 . S
C768 H762 0.930 . S
C768 C769 1.367 . S
C768 C776 1.378 . S
C769 C768 1.367 . S
C769 C777 1.433 . S
C770 H766 0.929 . S
C770 C772 1.378 . S
C770 C774 1.350 . S
C771 C774 1.463 . S
C771 C776 1.350 . S
C771 N779 1.427 . S
C772 H763 0.930 . S
C772 C770 1.378 . S
C772 C773 1.367 . S
C773 C772 1.367 . S
C773 C775 1.433 . S
C774 C770 1.350 . S
C774 C771 1.463 . S
C774 N778 1.427 . S
C775 H765 0.929 . S
C775 C773 1.433 . S
C775 N778 1.384 . S
C776 H767 0.929 . S
C776 C768 1.378 . S
C776 C771 1.350 . S
C777 H764 0.929 . S
C777 C769 1.433 . S
C777 N779 1.384 . S
N778 C774 1.427 . S
N778 C775 1.384 . S
N779 C771 1.427 . S
N779 C777 1.384 . S
H780 C786 0.930 . S
H781 C790 0.930 . S
H782 C795 0.929 . S
H783 C793 0.929 . S
H784 C788 0.929 . S
H785 C794 0.929 . S
C786 H780 0.930 . S
C786 C787 1.367 . S
C786 C794 1.378 . S
C787 C786 1.367 . S
C787 C795 1.433 . S
C788 H784 0.929 . S
C788 C790 1.378 . S
C788 C792 1.350 . S
C789 C792 1.463 1_565 S
C789 C794 1.350 . S
C789 N797 1.427 . S
C790 H781 0.930 . S
C790 C788 1.378 . S
C790 C791 1.367 . S
C791 C790 1.367 . S
C791 C793 1.433 . S
C792 C788 1.350 . S
C792 C789 1.463 1_545 S
C792 N796 1.427 . S
C793 H783 0.929 . S
C793 C791 1.433 . S
C793 N796 1.384 . S
C794 H785 0.929 . S
C794 C786 1.378 . S
C794 C789 1.350 . S
C795 H782 0.929 . S
C795 C787 1.433 . S
C795 N797 1.384 . S
N796 C792 1.427 . S
N796 C793 1.384 . S
N797 C789 1.427 . S
N797 C795 1.384 . S
H798 C804 0.930 . S
H799 C808 0.930 . S
H800 C813 0.929 . S
H801 C811 0.929 . S
H802 C806 0.929 . S
H803 C812 0.929 . S
C804 H798 0.930 . S
C804 C805 1.367 . S
C804 C812 1.378 . S
C805 C804 1.367 . S
C805 C813 1.433 . S
C806 H802 0.929 . S
C806 C808 1.378 . S
C806 C810 1.350 . S
C807 C810 1.463 1_455 S
C807 C812 1.350 . S
C807 N815 1.427 . S
C808 H799 0.930 . S
C808 C806 1.378 . S
C808 C809 1.367 . S
C809 C808 1.367 . S
C809 C811 1.433 . S
C810 C806 1.350 . S
C810 C807 1.463 1_655 S
C810 N814 1.427 . S
C811 H801 0.929 . S
C811 C809 1.433 . S
C811 N814 1.384 . S
C812 H803 0.929 . S
C812 C804 1.378 . S
C812 C807 1.350 . S
C813 H800 0.929 . S
C813 C805 1.433 . S
C813 N815 1.384 . S
N814 C810 1.427 . S
N814 C811 1.384 . S
N815 C807 1.427 . S
N815 C813 1.384 . S
H816 C822 0.930 . S
H817 C826 0.930 . S
H818 C831 0.929 . S
H819 C829 0.929 . S
H820 C824 0.929 . S
H821 C830 0.929 . S
C822 H816 0.930 . S
C822 C823 1.367 . S
C822 C830 1.378 . S
C823 C822 1.367 . S
C823 C831 1.433 . S
C824 H820 0.929 . S
C824 C826 1.378 . S
C824 C828 1.350 . S
C825 C828 1.463 1_565 S
C825 C830 1.350 . S
C825 N833 1.427 . S
C826 H817 0.930 . S
C826 C824 1.378 . S
C826 C827 1.367 . S
C827 C826 1.367 . S
C827 C829 1.433 . S
C828 C824 1.350 . S
C828 C825 1.463 1_545 S
C828 N832 1.427 . S
C829 H819 0.929 . S
C829 C827 1.433 . S
C829 N832 1.384 . S
C830 H821 0.929 . S
C830 C822 1.378 . S
C830 C825 1.350 . S
C831 H818 0.929 . S
C831 C823 1.433 . S
C831 N833 1.384 . S
N832 C828 1.427 . S
N832 C829 1.384 . S
N833 C825 1.427 . S
N833 C831 1.384 . S
H834 C840 0.930 . S
H835 C844 0.930 . S
H836 C849 0.929 . S
H837 C847 0.929 . S
H838 C842 0.929 . S
H839 C848 0.929 . S
C840 H834 0.930 . S
C840 C841 1.367 . S
C840 C848 1.378 . S
C841 C840 1.367 . S
C841 C849 1.433 . S
C842 H838 0.929 . S
C842 C844 1.378 . S
C842 C846 1.350 . S
C843 C846 1.463 1_655 S
C843 C848 1.350 . S
C843 N851 1.427 . S
C844 H835 0.930 . S
C844 C842 1.378 . S
C844 C845 1.367 . S
C845 C844 1.367 . S
C845 C847 1.433 . S
C846 C842 1.350 . S
C846 C843 1.463 1_455 S
C846 N850 1.427 . S
C847 H837 0.929 . S
C847 C845 1.433 . S
C847 N850 1.384 . S
C848 H839 0.929 . S
C848 C840 1.378 . S
C848 C843 1.350 . S
C849 H836 0.929 . S
C849 C841 1.433 . S
C849 N851 1.384 . S
N850 C846 1.427 . S
N850 C847 1.384 . S
N851 C843 1.427 . S
N851 C849 1.384 . S
H852 C858 0.930 . S
H853 C862 0.930 . S
H854 C867 0.929 . S
H855 C865 0.929 . S
H856 C860 0.929 . S
H857 C866 0.929 . S
C858 H852 0.930 . S
C858 C859 1.367 . S
C858 C866 1.378 . S
C859 C858 1.367 . S
C859 C867 1.433 . S
C860 H856 0.929 . S
C860 C862 1.378 . S
C860 C864 1.350 . S
C861 C864 1.463 . S
C861 C866 1.350 . S
C861 N869 1.427 . S
C862 H853 0.930 . S
C862 C860 1.378 . S
C862 C863 1.367 . S
C863 C862 1.367 . S
C863 C865 1.433 . S
C864 C860 1.350 . S
C864 C861 1.463 . S
C864 N868 1.427 . S
C865 H855 0.929 . S
C865 C863 1.433 . S
C865 N868 1.384 . S
C866 H857 0.929 . S
C866 C858 1.378 . S
C866 C861 1.350 . S
C867 H854 0.929 . S
C867 C859 1.433 . S
C867 N869 1.384 . S
N868 C864 1.427 . S
N868 C865 1.384 . S
N869 C861 1.427 . S
N869 C867 1.384 . S
H870 C876 0.930 . S
H871 C880 0.930 . S
H872 C885 0.929 . S
H873 C883 0.929 . S
H874 C878 0.929 . S
H875 C884 0.929 . S
C876 H870 0.930 . S
C876 C877 1.367 . S
C876 C884 1.378 . S
C877 C876 1.367 . S
C877 C885 1.433 . S
C878 H874 0.929 . S
C878 C880 1.378 . S
C878 C882 1.350 . S
C879 C882 1.463 . S
C879 C884 1.350 . S
C879 N887 1.427 . S
C880 H871 0.930 . S
C880 C878 1.378 . S
C880 C881 1.367 . S
C881 C880 1.367 . S
C881 C883 1.433 . S
C882 C878 1.350 . S
C882 C879 1.463 . S
C882 N886 1.427 . S
C883 H873 0.929 . S
C883 C881 1.433 . S
C883 N886 1.384 . S
C884 H875 0.929 . S
C884 C876 1.378 . S
C884 C879 1.350 . S
C885 H872 0.929 . S
C885 C877 1.433 . S
C885 N887 1.384 . S
N886 C882 1.427 . S
N886 C883 1.384 . S
N887 C879 1.427 . S
N887 C885 1.384 . S
H888 C894 0.930 . S
H889 C898 0.930 . S
H890 C903 0.929 . S
H891 C901 0.929 . S
H892 C896 0.929 . S
H893 C902 0.929 . S
C894 H888 0.930 . S
C894 C895 1.367 . S
C894 C902 1.378 . S
C895 C894 1.367 . S
C895 C903 1.433 . S
C896 H892 0.929 . S
C896 C898 1.378 . S
C896 C900 1.350 . S
C897 C900 1.463 . S
C897 C902 1.350 . S
C897 N905 1.427 . S
C898 H889 0.930 . S
C898 C896 1.378 . S
C898 C899 1.367 . S
C899 C898 1.367 . S
C899 C901 1.433 . S
C900 C896 1.350 . S
C900 C897 1.463 . S
C900 N904 1.427 . S
C901 H891 0.929 . S
C901 C899 1.433 . S
C901 N904 1.384 . S
C902 H893 0.929 . S
C902 C894 1.378 . S
C902 C897 1.350 . S
C903 H890 0.929 . S
C903 C895 1.433 . S
C903 N905 1.384 . S
N904 C900 1.427 . S
N904 C901 1.384 . S
N905 C897 1.427 . S
N905 C903 1.384 . S
H906 C912 0.930 . S
H907 C916 0.930 . S
H908 C921 0.929 . S
H909 C919 0.929 . S
H910 C914 0.929 . S
H911 C920 0.929 . S
C912 H906 0.930 . S
C912 C913 1.367 . S
C912 C920 1.378 . S
C913 C912 1.367 . S
C913 C921 1.433 . S
C914 H910 0.929 . S
C914 C916 1.378 . S
C914 C918 1.350 . S
C915 C918 1.463 1_554 S
C915 C920 1.350 . S
C915 N923 1.427 . S
C916 H907 0.930 . S
C916 C914 1.378 . S
C916 C917 1.367 . S
C917 C916 1.367 . S
C917 C919 1.433 . S
C918 C914 1.350 . S
C918 C915 1.463 1_556 S
C918 N922 1.427 . S
C919 H909 0.929 . S
C919 C917 1.433 . S
C919 N922 1.384 . S
C920 H911 0.929 . S
C920 C912 1.378 . S
C920 C915 1.350 . S
C921 H908 0.929 . S
C921 C913 1.433 . S
C921 N923 1.384 . S
N922 C918 1.427 . S
N922 C919 1.384 . S
N923 C915 1.427 . S
N923 C921 1.384 . S
H924 C930 0.930 . S
H925 C934 0.930 . S
H926 C939 0.929 . S
H927 C937 0.929 . S
H928 C932 0.929 . S
H929 C938 0.929 . S
C930 H924 0.930 . S
C930 C931 1.367 . S
C930 C938 1.378 . S
C931 C930 1.367 . S
C931 C939 1.433 . S
C932 H928 0.929 . S
C932 C934 1.378 . S
C932 C936 1.350 . S
C933 C936 1.463 . S
C933 C938 1.350 . S
C933 N941 1.427 . S
C934 H925 0.930 . S
C934 C932 1.378 . S
C934 C935 1.367 . S
C935 C934 1.367 . S
C935 C937 1.433 . S
C936 C932 1.350 . S
C936 C933 1.463 . S
C936 N940 1.427 . S
C937 H927 0.929 . S
C937 C935 1.433 . S
C937 N940 1.384 . S
C938 H929 0.929 . S
C938 C930 1.378 . S
C938 C933 1.350 . S
C939 H926 0.929 . S
C939 C931 1.433 . S
C939 N941 1.384 . S
N940 C936 1.427 . S
N940 C937 1.384 . S
N941 C933 1.427 . S
N941 C939 1.384 . S
H942 C948 0.930 . S
H943 C952 0.930 . S
H944 C957 0.929 . S
H945 C955 0.929 . S
H946 C950 0.929 . S
H947 C956 0.929 . S
C948 H942 0.930 . S
C948 C949 1.367 . S
C948 C956 1.378 . S
C949 C948 1.367 . S
C949 C957 1.433 . S
C950 H946 0.929 . S
C950 C952 1.378 . S
C950 C954 1.350 . S
C951 C954 1.463 1_556 S
C951 C956 1.350 . S
C951 N959 1.427 . S
C952 H943 0.930 . S
C952 C950 1.378 . S
C952 C953 1.367 . S
C953 C952 1.367 . S
C953 C955 1.433 . S
C954 C950 1.350 . S
C954 C951 1.463 1_554 S
C954 N958 1.427 . S
C955 H945 0.929 . S
C955 C953 1.433 . S
C955 N958 1.384 . S
C956 H947 0.929 . S
C956 C948 1.378 . S
C956 C951 1.350 . S
C957 H944 0.929 . S
C957 C949 1.433 . S
C957 N959 1.384 . S
N958 C954 1.427 . S
N958 C955 1.384 . S
N959 C951 1.427 . S
N959 C957 1.384 . S
H960 C966 0.930 . S
H961 C970 0.930 . S
H962 C975 0.929 . S
H963 C973 0.929 . S
H964 C968 0.929 . S
H965 C974 0.929 . S
C966 H960 0.930 . S
C966 C967 1.367 . S
C966 C974 1.378 . S
C967 C966 1.367 . S
C967 C975 1.433 . S
C968 H964 0.929 . S
C968 C970 1.378 . S
C968 C972 1.350 . S
C969 C972 1.463 . S
C969 C974 1.350 . S
C969 N977 1.427 . S
C970 H961 0.930 . S
C970 C968 1.378 . S
C970 C971 1.367 . S
C971 C970 1.367 . S
C971 C973 1.433 . S
C972 C968 1.350 . S
C972 C969 1.463 . S
C972 N976 1.427 . S
C973 H963 0.929 . S
C973 C971 1.433 . S
C973 N976 1.384 . S
C974 H965 0.929 . S
C974 C966 1.378 . S
C974 C969 1.350 . S
C975 H962 0.929 . S
C975 C967 1.433 . S
C975 N977 1.384 . S
N976 C972 1.427 . S
N976 C973 1.384 . S
N977 C969 1.427 . S
N977 C975 1.384 . S
H978 C984 0.930 . S
H979 C988 0.930 . S
H980 C993 0.929 . S
H981 C991 0.929 . S
H982 C986 0.929 . S
H983 C992 0.929 . S
C984 H978 0.930 . S
C984 C985 1.367 . S
C984 C992 1.378 . S
C985 C984 1.367 . S
C985 C993 1.433 . S
C986 H982 0.929 . S
C986 C988 1.378 . S
C986 C990 1.350 . S
C987 C990 1.463 . S
C987 C992 1.350 . S
C987 N995 1.427 . S
C988 H979 0.930 . S
C988 C986 1.378 . S
C988 C989 1.367 . S
C989 C988 1.367 . S
C989 C991 1.433 . S
C990 C986 1.350 . S
C990 C987 1.463 . S
C990 N994 1.427 . S
C991 H981 0.929 . S
C991 C989 1.433 . S
C991 N994 1.384 . S
C992 H983 0.929 . S
C992 C984 1.378 . S
C992 C987 1.350 . S
C993 H980 0.929 . S
C993 C985 1.433 . S
C993 N995 1.384 . S
N994 C990 1.427 . S
N994 C991 1.384 . S
N995 C987 1.427 . S
N995 C993 1.384 . S
H996 C1002 0.930 . S
H997 C1006 0.930 . S
H998 C1011 0.929 . S
H999 C1009 0.929 . S
H1000 C1004 0.929 . S
H1001 C1010 0.929 . S
C1002 H996 0.930 . S
C1002 C1003 1.367 . S
C1002 C1010 1.378 . S
C1003 C1002 1.367 . S
C1003 C1011 1.433 . S
C1004 H1000 0.929 . S
C1004 C1006 1.378 . S
C1004 C1008 1.350 . S
C1005 C1008 1.463 1_545 S
C1005 C1010 1.350 . S
C1005 N1013 1.427 . S
C1006 H997 0.930 . S
C1006 C1004 1.378 . S
C1006 C1007 1.367 . S
C1007 C1006 1.367 . S
C1007 C1009 1.433 . S
C1008 C1004 1.350 . S
C1008 C1005 1.463 1_565 S
C1008 N1012 1.427 . S
C1009 H999 0.929 . S
C1009 C1007 1.433 . S
C1009 N1012 1.384 . S
C1010 H1001 0.929 . S
C1010 C1002 1.378 . S
C1010 C1005 1.350 . S
C1011 H998 0.929 . S
C1011 C1003 1.433 . S
C1011 N1013 1.384 . S
N1012 C1008 1.427 . S
N1012 C1009 1.384 . S
N1013 C1005 1.427 . S
N1013 C1011 1.384 . S
H1014 C1020 0.930 . S
H1015 C1024 0.930 . S
H1016 C1029 0.929 . S
H1017 C1027 0.929 . S
H1018 C1022 0.929 . S
H1019 C1028 0.929 . S
C1020 H1014 0.930 . S
C1020 C1021 1.367 . S
C1020 C1028 1.378 . S
C1021 C1020 1.367 . S
C1021 C1029 1.433 . S
C1022 H1018 0.929 . S
C1022 C1024 1.378 . S
C1022 C1026 1.350 . S
C1023 C1026 1.463 1_455 S
C1023 C1028 1.350 . S
C1023 N1031 1.427 . S
C1024 H1015 0.930 . S
C1024 C1022 1.378 . S
C1024 C1025 1.367 . S
C1025 C1024 1.367 . S
C1025 C1027 1.433 . S
C1026 C1022 1.350 . S
C1026 C1023 1.463 1_655 S
C1026 N1030 1.427 . S
C1027 H1017 0.929 . S
C1027 C1025 1.433 . S
C1027 N1030 1.384 . S
C1028 H1019 0.929 . S
C1028 C1020 1.378 . S
C1028 C1023 1.350 . S
C1029 H1016 0.929 . S
C1029 C1021 1.433 . S
C1029 N1031 1.384 . S
N1030 C1026 1.427 . S
N1030 C1027 1.384 . S
N1031 C1023 1.427 . S
N1031 C1029 1.384 . S
H1032 C1038 0.930 . S
H1033 C1042 0.930 . S
H1034 C1047 0.929 . S
H1035 C1045 0.929 . S
H1036 C1040 0.929 . S
H1037 C1046 0.929 . S
C1038 H1032 0.930 . S
C1038 C1039 1.367 . S
C1038 C1046 1.378 . S
C1039 C1038 1.367 . S
C1039 C1047 1.433 . S
C1040 H1036 0.929 . S
C1040 C1042 1.378 . S
C1040 C1044 1.350 . S
C1041 C1044 1.463 1_545 S
C1041 C1046 1.350 . S
C1041 N1049 1.427 . S
C1042 H1033 0.930 . S
C1042 C1040 1.378 . S
C1042 C1043 1.367 . S
C1043 C1042 1.367 . S
C1043 C1045 1.433 . S
C1044 C1040 1.350 . S
C1044 C1041 1.463 1_565 S
C1044 N1048 1.427 . S
C1045 H1035 0.929 . S
C1045 C1043 1.433 . S
C1045 N1048 1.384 . S
C1046 H1037 0.929 . S
C1046 C1038 1.378 . S
C1046 C1041 1.350 . S
C1047 H1034 0.929 . S
C1047 C1039 1.433 . S
C1047 N1049 1.384 . S
N1048 C1044 1.427 . S
N1048 C1045 1.384 . S
N1049 C1041 1.427 . S
N1049 C1047 1.384 . S
H1050 C1056 0.930 . S
H1051 C1060 0.930 . S
H1052 C1065 0.929 . S
H1053 C1063 0.929 . S
H1054 C1058 0.929 . S
H1055 C1064 0.929 . S
C1056 H1050 0.930 . S
C1056 C1057 1.367 . S
C1056 C1064 1.378 . S
C1057 C1056 1.367 . S
C1057 C1065 1.433 . S
C1058 H1054 0.929 . S
C1058 C1060 1.378 . S
C1058 C1062 1.350 . S
C1059 C1062 1.463 1_455 S
C1059 C1064 1.350 . S
C1059 N1067 1.427 . S
C1060 H1051 0.930 . S
C1060 C1058 1.378 . S
C1060 C1061 1.367 . S
C1061 C1060 1.367 . S
C1061 C1063 1.433 . S
C1062 C1058 1.350 . S
C1062 C1059 1.463 1_655 S
C1062 N1066 1.427 . S
C1063 H1053 0.929 . S
C1063 C1061 1.433 . S
C1063 N1066 1.384 . S
C1064 H1055 0.929 . S
C1064 C1056 1.378 . S
C1064 C1059 1.350 . S
C1065 H1052 0.929 . S
C1065 C1057 1.433 . S
C1065 N1067 1.384 . S
N1066 C1062 1.427 . S
N1066 C1063 1.384 . S
N1067 C1059 1.427 . S
N1067 C1065 1.384 . S
H1068 C1074 0.930 . S
H1069 C1078 0.930 . S
H1070 C1083 0.929 . S
H1071 C1081 0.929 . S
H1072 C1076 0.929 . S
H1073 C1082 0.929 . S
C1074 H1068 0.930 . S
C1074 C1075 1.367 . S
C1074 C1082 1.378 . S
C1075 C1074 1.367 . S
C1075 C1083 1.433 . S
C1076 H1072 0.929 . S
C1076 C1078 1.378 . S
C1076 C1080 1.350 . S
C1077 C1080 1.463 . S
C1077 C1082 1.350 . S
C1077 N1085 1.427 . S
C1078 H1069 0.930 . S
C1078 C1076 1.378 . S
C1078 C1079 1.367 . S
C1079 C1078 1.367 . S
C1079 C1081 1.433 . S
C1080 C1076 1.350 . S
C1080 C1077 1.463 . S
C1080 N1084 1.427 . S
C1081 H1071 0.929 . S
C1081 C1079 1.433 . S
C1081 N1084 1.384 . S
C1082 H1073 0.929 . S
C1082 C1074 1.378 . S
C1082 C1077 1.350 . S
C1083 H1070 0.929 . S
C1083 C1075 1.433 . S
C1083 N1085 1.384 . S
N1084 C1080 1.427 . S
N1084 C1081 1.384 . S
N1085 C1077 1.427 . S
N1085 C1083 1.384 . S
H1086 C1092 0.930 . S
H1087 C1096 0.930 . S
H1088 C1101 0.929 . S
H1089 C1099 0.929 . S
H1090 C1094 0.929 . S
H1091 C1100 0.929 . S
C1092 H1086 0.930 . S
C1092 C1093 1.367 . S
C1092 C1100 1.378 . S
C1093 C1092 1.367 . S
C1093 C1101 1.433 . S
C1094 H1090 0.929 . S
C1094 C1096 1.378 . S
C1094 C1098 1.350 . S
C1095 C1098 1.463 . S
C1095 C1100 1.350 . S
C1095 N1103 1.427 . S
C1096 H1087 0.930 . S
C1096 C1094 1.378 . S
C1096 C1097 1.367 . S
C1097 C1096 1.367 . S
C1097 C1099 1.433 . S
C1098 C1094 1.350 . S
C1098 C1095 1.463 . S
C1098 N1102 1.427 . S
C1099 H1089 0.929 . S
C1099 C1097 1.433 . S
C1099 N1102 1.384 . S
C1100 H1091 0.929 . S
C1100 C1092 1.378 . S
C1100 C1095 1.350 . S
C1101 H1088 0.929 . S
C1101 C1093 1.433 . S
C1101 N1103 1.384 . S
N1102 C1098 1.427 . S
N1102 C1099 1.384 . S
N1103 C1095 1.427 . S
N1103 C1101 1.384 . S
H1104 C1110 0.930 . S
H1105 C1114 0.930 . S
H1106 C1119 0.929 . S
H1107 C1117 0.929 . S
H1108 C1112 0.929 . S
H1109 C1118 0.929 . S
C1110 H1104 0.930 . S
C1110 C1111 1.367 . S
C1110 C1118 1.378 . S
C1111 C1110 1.367 . S
C1111 C1119 1.433 . S
C1112 H1108 0.929 . S
C1112 C1114 1.378 . S
C1112 C1116 1.350 . S
C1113 C1116 1.463 . S
C1113 C1118 1.350 . S
C1113 N1121 1.427 . S
C1114 H1105 0.930 . S
C1114 C1112 1.378 . S
C1114 C1115 1.367 . S
C1115 C1114 1.367 . S
C1115 C1117 1.433 . S
C1116 C1112 1.350 . S
C1116 C1113 1.463 . S
C1116 N1120 1.427 . S
C1117 H1107 0.929 . S
C1117 C1115 1.433 . S
C1117 N1120 1.384 . S
C1118 H1109 0.929 . S
C1118 C1110 1.378 . S
C1118 C1113 1.350 . S
C1119 H1106 0.929 . S
C1119 C1111 1.433 . S
C1119 N1121 1.384 . S
N1120 C1116 1.427 . S
N1120 C1117 1.384 . S
N1121 C1113 1.427 . S
N1121 C1119 1.384 . S
H1122 C1128 0.930 . S
H1123 C1132 0.930 . S
H1124 C1137 0.929 . S
H1125 C1135 0.929 . S
H1126 C1130 0.929 . S
H1127 C1136 0.929 . S
C1128 H1122 0.930 . S
C1128 C1129 1.367 . S
C1128 C1136 1.378 . S
C1129 C1128 1.367 . S
C1129 C1137 1.433 . S
C1130 H1126 0.929 . S
C1130 C1132 1.378 . S
C1130 C1134 1.350 . S
C1131 C1134 1.463 1_554 S
C1131 C1136 1.350 . S
C1131 N1139 1.427 . S
C1132 H1123 0.930 . S
C1132 C1130 1.378 . S
C1132 C1133 1.367 . S
C1133 C1132 1.367 . S
C1133 C1135 1.433 . S
C1134 C1130 1.350 . S
C1134 C1131 1.463 1_556 S
C1134 N1138 1.427 . S
C1135 H1125 0.929 . S
C1135 C1133 1.433 . S
C1135 N1138 1.384 . S
C1136 H1127 0.929 . S
C1136 C1128 1.378 . S
C1136 C1131 1.350 . S
C1137 H1124 0.929 . S
C1137 C1129 1.433 . S
C1137 N1139 1.384 . S
N1138 C1134 1.427 . S
N1138 C1135 1.384 . S
N1139 C1131 1.427 . S
N1139 C1137 1.384 . S
H1140 C1146 0.930 . S
H1141 C1150 0.930 . S
H1142 C1155 0.929 . S
H1143 C1153 0.929 . S
H1144 C1148 0.929 . S
H1145 C1154 0.929 . S
C1146 H1140 0.930 . S
C1146 C1147 1.367 . S
C1146 C1154 1.378 . S
C1147 C1146 1.367 . S
C1147 C1155 1.433 . S
C1148 H1144 0.929 . S
C1148 C1150 1.378 . S
C1148 C1152 1.350 . S
C1149 C1152 1.463 . S
C1149 C1154 1.350 . S
C1149 N1157 1.427 . S
C1150 H1141 0.930 . S
C1150 C1148 1.378 . S
C1150 C1151 1.367 . S
C1151 C1150 1.367 . S
C1151 C1153 1.433 . S
C1152 C1148 1.350 . S
C1152 C1149 1.463 . S
C1152 N1156 1.427 . S
C1153 H1143 0.929 . S
C1153 C1151 1.433 . S
C1153 N1156 1.384 . S
C1154 H1145 0.929 . S
C1154 C1146 1.378 . S
C1154 C1149 1.350 . S
C1155 H1142 0.929 . S
C1155 C1147 1.433 . S
C1155 N1157 1.384 . S
N1156 C1152 1.427 . S
N1156 C1153 1.384 . S
N1157 C1149 1.427 . S
N1157 C1155 1.384 . S
H1158 C1164 0.930 . S
H1159 C1168 0.930 . S
H1160 C1173 0.929 . S
H1161 C1171 0.929 . S
H1162 C1166 0.929 . S
H1163 C1172 0.929 . S
C1164 H1158 0.930 . S
C1164 C1165 1.367 . S
C1164 C1172 1.378 . S
C1165 C1164 1.367 . S
C1165 C1173 1.433 . S
C1166 H1162 0.929 . S
C1166 C1168 1.378 . S
C1166 C1170 1.350 . S
C1167 C1170 1.463 1_554 S
C1167 C1172 1.350 . S
C1167 N1175 1.427 . S
C1168 H1159 0.930 . S
C1168 C1166 1.378 . S
C1168 C1169 1.367 . S
C1169 C1168 1.367 . S
C1169 C1171 1.433 . S
C1170 C1166 1.350 . S
C1170 C1167 1.463 1_556 S
C1170 N1174 1.427 . S
C1171 H1161 0.929 . S
C1171 C1169 1.433 . S
C1171 N1174 1.384 . S
C1172 H1163 0.929 . S
C1172 C1164 1.378 . S
C1172 C1167 1.350 . S
C1173 H1160 0.929 . S
C1173 C1165 1.433 . S
C1173 N1175 1.384 . S
N1174 C1170 1.427 . S
N1174 C1171 1.384 . S
N1175 C1167 1.427 . S
N1175 C1173 1.384 . S
C319 C53 1.517 . S
C323 C10 1.552 . S
C337 C23 1.553 . S
C341 C75 1.549 . S
C355 C88 1.550 . S
C359 C27 1.516 . S
C373 C101 1.546 . S
C377 C40 1.508 . S
C391 C192 1.546 . S
C395 C105 1.509 . S
C409 C205 1.547 . S
C413 C118 1.512 . S
C427 C140 1.546 . S
C431 C157 1.508 . S
C445 C179 1.551 . S
C449 C144 1.517 . S
C463 C209 1.503 . S
C467 C283 1.548 . S
C481 C231 1.551 . S
C485 C257 1.552 . S
C499 C244 1.546 . S
C503 C270 1.549 . S
C517 C287 1.505 . S
C521 C300 1.506 . S
C535 C49 1.505 . S
C539 C66 1.550 . S
C553 C1 1.553 . S
C557 C79 1.549 . S
C571 C92 1.546 . S
C575 C14 1.549 . S
C589 C36 1.508 . S
C593 C62 1.506 . S
C607 C309 1.512 . S
C611 C235 1.547 . S
C625 C248 1.552 . S
C629 C274 1.551 . S
C643 C261 1.548 . S
C647 C296 1.513 . S
C661 C222 1.546 . S
C665 C218 1.504 . S
C679 C153 1.509 . S
C683 C127 1.511 . S
C697 C196 1.552 . S
C701 C170 1.547 . S
C715 C166 1.503 . S
C719 C183 1.547 . S
C733 C131 1.550 . S
C737 C114 1.505 . S
C751 C289 1.594 . S
C755 C5 1.628 . S
C769 C211 1.586 . S
C773 C18 1.629 . S
C787 C302 1.587 . S
C791 C29 1.584 . S
C805 C278 1.629 . S
C809 C42 1.586 . S
C823 C239 1.627 . S
C827 C55 1.595 . S
C841 C70 1.627 . S
C845 C252 1.629 . S
C859 C265 1.628 . S
C863 C83 1.628 . S
C877 C226 1.629 . S
C881 C96 1.630 . S
C895 C174 1.628 . S
C899 C107 1.593 . S
C913 C187 1.629 . S
C917 C120 1.585 . S
C931 C200 1.628 . S
C935 C135 1.628 . S
C949 C146 1.595 . S
C953 C159 1.591 . S
C967 C68 1.628 . S
C971 C133 1.628 . S
C985 C81 1.628 . S
C989 C148 1.593 . S
C1003 C109 1.591 . S
C1007 C94 1.628 . S
C1021 C57 1.586 . S
C1025 C122 1.584 . S
C1039 C185 1.628 . S
C1043 C44 1.591 . S
C1057 C3 1.628 . S
C1061 C198 1.629 . S
C1075 C161 1.586 . S
C1079 C16 1.629 . S
C1093 C31 1.584 . S
C1097 C172 1.630 . S
C1111 C224 1.628 . S
C1115 C304 1.594 . S
C1129 C276 1.628 . S
C1133 C237 1.627 . S
C1147 C291 1.584 . S
C1151 C250 1.630 . S
C1165 C213 1.584 . S
C1169 C263 1.629 . S
