# Generated by pormake.
# Topology qtz-e, (6)-cn, num edge types: 1
# Building blocks:
#     Node 0, Type 0, BuildingBlock: HISSIN_clean_sbu_0, # of connection points: 6
#     Node 1, Type 0, BuildingBlock: HISSIN_clean_sbu_0, # of connection points: 6
#     Node 2, Type 0, BuildingBlock: HISSIN_clean_sbu_0, # of connection points: 6
#     Node 3, Type 0, BuildingBlock: HISSIN_clean_sbu_0, # of connection points: 6
#     Node 4, Type 0, BuildingBlock: HISSIN_clean_sbu_0, # of connection points: 6
#     Node 5, Type 0, BuildingBlock: HISSIN_clean_sbu_0, # of connection points: 6
#     Edge 6, Type (0, 0), BuildingBlock: TEMPAE_clean_linker_10, # of connection points: 2
#     Edge 7, Type (0, 0), BuildingBlock: TEMPAE_clean_linker_10, # of connection points: 2
#     Edge 8, Type (0, 0), BuildingBlock: TEMPAE_clean_linker_10, # of connection points: 2
#     Edge 9, Type (0, 0), BuildingBlock: TEMPAE_clean_linker_10, # of connection points: 2
#     Edge 10, Type (0, 0), BuildingBlock: TEMPAE_clean_linker_10, # of connection points: 2
#     Edge 11, Type (0, 0), BuildingBlock: TEMPAE_clean_linker_10, # of connection points: 2
#     Edge 12, Type (0, 0), BuildingBlock: TEMPAE_clean_linker_10, # of connection points: 2
#     Edge 13, Type (0, 0), BuildingBlock: TEMPAE_clean_linker_10, # of connection points: 2
#     Edge 14, Type (0, 0), BuildingBlock: TEMPAE_clean_linker_10, # of connection points: 2
#     Edge 15, Type (0, 0), BuildingBlock: TEMPAE_clean_linker_10, # of connection points: 2
#     Edge 16, Type (0, 0), BuildingBlock: TEMPAE_clean_linker_10, # of connection points: 2
#     Edge 17, Type (0, 0), BuildingBlock: TEMPAE_clean_linker_10, # of connection points: 2
#     Edge 18, Type (0, 0), BuildingBlock: TEMPAE_clean_linker_10, # of connection points: 2
#     Edge 19, Type (0, 0), BuildingBlock: TEMPAE_clean_linker_10, # of connection points: 2
#     Edge 20, Type (0, 0), BuildingBlock: TEMPAE_clean_linker_10, # of connection points: 2
#     Edge 21, Type (0, 0), BuildingBlock: TEMPAE_clean_linker_10, # of connection points: 2
#     Edge 22, Type (0, 0), BuildingBlock: TEMPAE_clean_linker_10, # of connection points: 2
#     Edge 23, Type (0, 0), BuildingBlock: TEMPAE_clean_linker_10, # of connection points: 2
# Relax obj value: 0.128
# Max RMSD: 0.199
# Mean RMSD: 0.199
data_MOF--net-qtz-e--node1-HISSIN_clean_sbu_0--edge1-TEMPAE_clean_linker_10
_symmetry_space_group_name_H-M    P1
_symmetry_Int_Tables_number       1
_symmetry_cell_setting            triclinic
loop_
_symmetry_equiv_pos_as_xyz
'x, y, z'
_cell_length_a     25.619574
_cell_length_b     25.565882
_cell_length_c     52.78674
_cell_angle_alpha  89.954413
_cell_angle_beta   90.078222
_cell_angle_gamma 120.01044
loop_
_atom_site_label
_atom_site_type_symbol
_atom_site_fract_x
_atom_site_fract_y
_atom_site_fract_z
_atom_type_partial_charge
Eu0 Eu 0.17427 0.45554 0.06745 0.0
Eu1 Eu 0.15773 0.3293 0.04204 0.0
C2 C 0.07118 0.3783 0.02925 0.0
C3 C 0.18735 0.57029 0.11682 0.0
C4 C 0.15229 0.53118 0.1364 0.0
C5 C 0.23782 0.65075 0.14789 0.0
C6 C 0.15969 0.55173 0.16143 0.0
C7 C 0.23023 0.63018 0.12282 0.0
C8 C 0.20252 0.61184 0.16755 0.0
C9 C 0.18007 0.54922 0.09022 0.0
O10 O 0.2294 0.40696 0.0195 0.0
O11 O 0.2019 0.47862 0.0263 0.0
C12 C 0.22945 0.45646 1.01265 0.0
O13 O 0.26064 0.45654 0.07553 0.0
O14 O 0.09799 0.24392 0.02293 0.0
O15 O 0.19143 0.27045 0.02967 0.0
O16 O 0.23193 0.35594 0.07055 0.0
C17 C 0.27024 0.41097 0.07825 0.0
O18 O 0.15147 0.39015 0.09941 0.0
O19 O 0.09942 0.30136 0.07726 0.0
O20 O 0.1068 0.36224 0.01854 0.0
O21 O 0.22652 0.54989 0.07979 0.0
O22 O 0.12966 0.50051 0.08446 0.0
O23 O 0.08014 0.39531 0.05294 0.0
C24 C 0.14992 0.22642 0.99039 0.0
C25 C 0.18678 0.27715 0.97548 0.0
C26 C 0.12873 0.16247 0.95342 0.0
C27 C 0.19548 0.27062 0.94988 0.0
C28 C 0.12047 0.16909 0.9792 0.0
C29 C 0.16679 0.21316 0.9385 0.0
C30 C 0.14204 0.23415 0.01744 0.0
C31 C 0.11251 0.33206 0.09861 0.0
H32 H 0.11885 0.48469 0.1324 0.0
H33 H 0.27181 0.69704 0.1519 0.0
H34 H 0.13104 0.52066 0.17593 0.0
H35 H 0.25802 0.66109 0.10809 0.0
H36 H 0.2095 0.32191 0.98372 0.0
H37 H 0.10528 0.11768 0.94519 0.0
H38 H 0.2259 0.3106 0.9392 0.0
H39 H 0.0913 0.12954 0.99038 0.0
Eu40 Eu 0.71305 0.1743 0.4005 0.0
Eu41 Eu 0.82368 0.1601 0.37527 0.0
C42 C 0.68887 0.07066 0.36287 0.0
C43 C 0.61089 0.18593 0.44977 0.0
C44 C 0.62984 0.16415 0.47019 0.0
C45 C 0.56615 0.22447 0.47973 0.0
C46 C 0.6164 0.1718 0.49513 0.0
C47 C 0.57923 0.21636 0.45476 0.0
C48 C 0.58423 0.20198 0.50029 0.0
C49 C 0.62389 0.17722 0.42332 0.0
O50 O 0.81574 0.2303 0.35236 0.0
O51 O 0.71621 0.20066 0.35922 0.0
C52 C 0.76579 0.22918 0.34556 0.0
O53 O 0.79708 0.26273 0.40781 0.0
O54 O 0.85063 0.10107 0.3565 0.0
O55 O 0.91621 0.19538 0.36266 0.0
O56 O 0.87063 0.23641 0.40299 0.0
C57 C 0.85284 0.27415 0.41031 0.0
O58 O 0.75935 0.15668 0.43257 0.0
O59 O 0.79424 0.10271 0.4109 0.0
O60 O 0.74001 0.10709 0.35195 0.0
O61 O 0.66783 0.22397 0.4121 0.0
O62 O 0.62481 0.12764 0.41856 0.0
O63 O 0.6811 0.07992 0.38655 0.0
C64 C 0.91871 0.15326 0.32354 0.0
C65 C 0.9021 0.18769 0.30837 0.0
C66 C 0.9628 0.13357 0.28668 0.0
C67 C 0.91654 0.19588 0.28268 0.0
C68 C 0.94865 0.12578 0.31253 0.0
C69 C 0.94733 0.16916 0.27148 0.0
C70 C 0.90385 0.14586 0.35068 0.0
C71 C 0.7785 0.11777 0.43223 0.0
H72 H 0.65467 0.14075 0.46687 0.0
H73 H 0.54228 0.24885 0.48289 0.0
H74 H 0.63043 0.15309 0.51034 0.0
H75 H 0.5646 0.23392 0.43931 0.0
H76 H 0.87853 0.20896 0.31647 0.0
H77 H 0.98581 0.11169 0.2786 0.0
H78 H 0.90478 0.22442 0.27177 0.0
H79 H 0.96121 0.09852 0.32391 0.0
Eu80 Eu 0.53358 0.71946 0.73407 0.0
Eu81 Eu 0.65918 0.83053 0.709 0.0
C82 C 0.61193 0.69561 0.69579 0.0
C83 C 0.41739 0.61515 0.78246 0.0
C84 C 0.38302 0.55494 0.79037 0.0
C85 C 0.40932 0.64795 0.82484 0.0
C86 C 0.36208 0.54118 0.81534 0.0
C87 C 0.43049 0.66163 0.79988 0.0
C88 C 0.375 0.58747 0.83297 0.0
C89 C 0.44172 0.62867 0.75646 0.0
O90 O 0.5823 0.82225 0.68525 0.0
O91 O 0.51025 0.72342 0.69286 0.0
C92 C 0.53268 0.77259 0.67876 0.0
O93 O 0.52959 0.80357 0.74192 0.0
O94 O 0.74762 0.85933 0.69258 0.0
O95 O 0.71483 0.92258 0.69509 0.0
O96 O 0.62937 0.87737 0.73653 0.0
C97 C 0.57407 0.85954 0.7441 0.0
O98 O 0.59702 0.76621 0.76622 0.0
O99 O 0.6857 0.79991 0.74468 0.0
O100 O 0.62821 0.74752 0.68517 0.0
O101 O 0.43812 0.67123 0.74429 0.0
O102 O 0.49391 0.63232 0.75337 0.0
O103 O 0.59571 0.68783 0.71957 0.0
C104 C 0.76512 0.9243 0.65791 0.0
C105 C 0.80725 0.9824 0.64963 0.0
C106 C 0.73407 0.89435 0.6143 0.0
C107 C 0.81232 -0.00329 0.62383 0.0
C108 C 0.7288 0.88025 0.64007 0.0
C109 C 0.77527 0.95303 0.60586 0.0
C110 C 0.75469 0.91125 0.68514 0.0
C111 C 0.65485 0.78477 0.76598 0.0
H112 H 0.37306 0.51844 0.7773 0.0
H113 H 0.41967 0.68482 0.83774 0.0
H114 H 0.33684 0.49417 0.82094 0.0
H115 H 0.45745 0.70851 0.79423 0.0
H116 H 0.83495 0.01719 0.66318 0.0
H117 H 0.7053 0.85941 0.60102 0.0
H118 H 0.84375 0.04263 0.61811 0.0
H119 H 0.69534 0.83526 0.64613 0.0
Eu120 Eu 0.80812 0.53726 0.06727 0.0
Eu121 Eu 0.8179 0.66185 0.04309 0.0
C122 C 0.91088 0.62114 0.03022 0.0
C123 C 0.80082 0.42402 0.11605 0.0
C124 C 0.82629 0.46459 0.13638 0.0
C125 C 0.75975 0.34061 0.14612 0.0
C126 C 0.81901 0.44336 0.16131 0.0
C127 C 0.76738 0.36192 0.12116 0.0
C128 C 0.78563 0.38101 0.16658 0.0
C129 C 0.80837 0.44589 0.08959 0.0
O130 O 0.75144 0.58406 0.01908 0.0
O131 O 0.78302 0.51538 0.02579 0.0
C132 C 0.75456 0.53639 1.01199 0.0
O133 O 0.71824 0.52934 0.07445 0.0
O134 O 0.87505 0.75187 0.02734 0.0
O135 O 0.77826 0.7144 0.02898 0.0
O136 O 0.74143 0.62875 0.07082 0.0
C137 C 0.70505 0.57239 0.07757 0.0
O138 O 0.82355 0.59918 0.09991 0.0
O139 O 0.87388 0.68976 0.07902 0.0
O140 O 0.8739 0.63546 0.01952 0.0
O141 O 0.76088 0.44199 0.07863 0.0
O142 O 0.85702 0.49702 0.08462 0.0
O143 O 0.9018 0.60311 0.05379 0.0
C144 C 0.82729 0.76696 0.99225 0.0
C145 C 0.81344 0.81041 0.98367 0.0
C146 C 0.82648 0.73523 0.94881 0.0
C147 C 0.80544 0.81584 0.95778 0.0
C148 C 0.83412 0.72965 0.97466 0.0
C149 C 0.81117 0.77782 0.94005 0.0
C150 C 0.82908 0.75642 0.01951 0.0
C151 C 0.86014 0.6578 0.10003 0.0
H152 H 0.85217 0.51281 0.13301 0.0
H153 H 0.73296 0.29243 0.14939 0.0
H154 H 0.8404 0.47591 0.17642 0.0
H155 H 0.74698 0.32982 0.10581 0.0
H156 H 0.80714 0.83893 0.99703 0.0
H157 H 0.83185 0.70566 0.93572 0.0
H158 H 0.79263 0.84838 0.95176 0.0
H159 H 0.84407 0.69524 0.98098 0.0
Eu160 Eu 0.26591 0.81528 0.4014 0.0
Eu161 Eu 0.15319 0.8268 0.37646 0.0
C162 C 0.28703 0.91644 0.36284 0.0
C163 C 0.37055 0.80385 0.4496 0.0
C164 C 0.32406 0.7748 0.46741 0.0
C165 C 0.44321 0.81435 0.48176 0.0
C166 C 0.33707 0.76555 0.49225 0.0
C167 C 0.4301 0.8234 0.45693 0.0
C168 C 0.39691 0.78547 0.49981 0.0
C169 C 0.35784 0.81656 0.42379 0.0
O170 O 0.16273 0.75893 0.35262 0.0
O171 O 0.26197 0.78768 0.36027 0.0
C172 C 0.21276 0.75965 0.34628 0.0
O173 O 0.18408 0.72545 0.409 0.0
O174 O 0.125 0.88468 0.35742 0.0
O175 O 0.05939 0.79142 0.36565 0.0
O176 O 0.10777 0.74764 0.40299 0.0
C177 C 0.1274 0.71152 0.41062 0.0
O178 O 0.21696 0.82902 0.43345 0.0
O179 O 0.18353 0.88435 0.41195 0.0
O180 O 0.23537 0.87962 0.35238 0.0
O181 O 0.31726 0.77067 0.41084 0.0
O182 O 0.35162 0.86393 0.42154 0.0
O183 O 0.29553 0.90861 0.38663 0.0
C184 C 0.05293 0.82989 0.32601 0.0
C185 C 0.05783 0.7859 0.31201 0.0
C186 C 0.01863 0.8577 0.2881 0.0
C187 C 0.04275 0.77741 0.28638 0.0
C188 C 0.03348 0.86593 0.3139 0.0
C189 C 0.02308 0.81325 0.27404 0.0
C190 C 0.07098 0.83974 0.35285 0.0
C191 C 0.19811 0.86814 0.43328 0.0
H192 H 0.27776 0.75972 0.46215 0.0
H193 H 0.48986 0.83128 0.48695 0.0
H194 H 0.3002 0.74264 0.5055 0.0
H195 H 0.46664 0.84649 0.44352 0.0
H196 H 0.07327 0.75789 0.3209 0.0
H197 H 0.00428 0.88651 0.27911 0.0
H198 H 0.04571 0.74203 0.27635 0.0
H199 H 0.03019 0.90065 0.32433 0.0
Eu200 Eu 0.4504 0.27482 0.73389 0.0
Eu201 Eu 0.327 0.16004 0.70942 0.0
C202 C 0.3671 0.29371 0.69611 0.0
C203 C 0.56698 0.38047 0.78164 0.0
C204 C 0.60199 0.44055 0.78963 0.0
C205 C 0.57614 0.34687 0.82372 0.0
C206 C 0.62379 0.45383 0.81451 0.0
C207 C 0.55413 0.33367 0.79886 0.0
C208 C 0.61107 0.40718 0.83195 0.0
C209 C 0.54171 0.36725 0.75578 0.0
O210 O 0.40524 0.17081 0.68597 0.0
O211 O 0.47254 0.2715 0.69251 0.0
C212 C 0.45291 0.2217 0.67905 0.0
O213 O 0.4583 0.19281 0.74183 0.0
O214 O 0.23703 0.12676 0.6937 0.0
O215 O 0.27488 0.06765 0.69543 0.0
O216 O 0.35911 0.11689 0.7378 0.0
C217 C 0.41516 0.1365 0.74479 0.0
O218 O 0.38813 0.22842 0.76636 0.0
O219 O 0.29851 0.1889 0.74491 0.0
O220 O 0.35315 0.24226 0.68557 0.0
O221 O 0.54637 0.32588 0.74316 0.0
O222 O 0.48857 0.36174 0.75329 0.0
O223 O 0.3857 0.3035 0.71962 0.0
C224 C 0.22082 0.06271 0.65896 0.0
C225 C 0.17727 0.00497 0.65088 0.0
C226 C 0.2502 0.09212 0.61521 0.0
C227 C 0.17064 0.99054 0.62508 0.0
C228 C 0.25696 0.10634 0.64097 0.0
C229 C 0.20757 0.03375 0.60696 0.0
C230 C 0.23246 0.07602 0.68609 0.0
C231 C 0.32979 0.20727 0.76608 0.0
H232 H 0.61177 0.47728 0.7767 0.0
H233 H 0.56592 0.30975 0.83647 0.0
H234 H 0.64952 0.50074 0.82022 0.0
H235 H 0.52671 0.2869 0.79313 0.0
H236 H 0.14961 0.97056 0.66455 0.0
H237 H 0.27892 0.12664 0.60178 0.0
H238 H 0.13809 0.94488 0.61945 0.0
H239 H 0.29137 0.15107 0.6469 0.0
C240 C 0.26888 0.74441 0.31052 0.0
C241 C 0.21427 0.73334 0.32135 0.0
C242 C 0.27067 0.72442 0.28584 0.0
C243 C 0.21664 0.69284 0.27163 0.0
C244 C 0.16132 0.68041 0.2827 0.0
C245 C 0.1608 0.70052 0.30737 0.0
C246 C 0.33063 0.73882 0.27471 0.0
C247 C 0.10263 0.64704 0.26827 0.0
C248 C 0.21858 0.69174 0.1995 0.0
C249 C 0.20953 0.63392 0.19424 0.0
C250 C 0.22286 0.71216 0.22455 0.0
C251 C 0.21758 0.6738 0.24496 0.0
C252 C 0.20951 0.61585 0.23982 0.0
C253 C 0.20578 0.59672 0.21458 0.0
C254 C 0.23132 0.77423 0.22918 0.0
C255 C 0.20348 0.57349 0.26102 0.0
H256 H 0.3105 0.77007 0.32104 0.0
H257 H 0.11823 0.69124 0.31552 0.0
H258 H 0.32776 0.69793 0.26606 0.0
H259 H 0.34304 0.77291 0.25946 0.0
H260 H 0.36716 0.75697 0.28912 0.0
H261 H 0.06318 0.6387 0.27997 0.0
H262 H 0.10415 0.67361 0.25137 0.0
H263 H 0.09578 0.60302 0.26142 0.0
H264 H 0.22074 0.7206 0.18401 0.0
H265 H 0.19983 0.5524 0.21079 0.0
H266 H 0.26991 0.80022 0.24217 0.0
H267 H 0.19056 0.77003 0.23847 0.0
H268 H 0.23938 0.80031 0.21136 0.0
H269 H 0.24283 0.59591 0.27394 0.0
H270 H 0.20001 0.53098 0.25389 0.0
H271 H 0.16267 0.5619 0.27237 0.0
C272 C 0.46911 0.16839 0.6429 0.0
C273 C 0.48074 0.22284 0.65424 0.0
C274 C 0.48928 0.16712 0.61833 0.0
C275 C 0.52139 0.2216 0.60449 0.0
C276 C 0.53478 0.27702 0.61605 0.0
C277 C 0.51453 0.27702 0.64085 0.0
C278 C 0.47486 0.10715 0.60695 0.0
C279 C 0.56818 0.33605 0.60189 0.0
C280 C 0.60997 0.2204 0.54677 0.0
C281 C 0.56905 0.2093 0.52694 0.0
C282 C 0.59544 0.22531 0.57201 0.0
C283 C 0.53891 0.21985 0.57765 0.0
C284 C 0.49784 0.20984 0.55773 0.0
C285 C 0.51319 0.2043 0.53271 0.0
C286 C 0.64027 0.23545 0.59271 0.0
C287 C 0.4372 0.20408 0.56291 0.0
H288 H 0.44333 0.1263 0.65314 0.0
H289 H 0.52324 0.31923 0.64935 0.0
H290 H 0.44387 0.0966 0.59061 0.0
H291 H 0.51657 0.10936 0.59972 0.0
H292 H 0.45334 0.06954 0.62082 0.0
H293 H 0.584 0.37556 0.61471 0.0
H294 H 0.60764 0.33951 0.59172 0.0
H295 H 0.53772 0.33825 0.5875 0.0
H296 H 0.65364 0.22542 0.54259 0.0
H297 H 0.48073 0.19478 0.51771 0.0
H298 H 0.62012 0.1973 0.60634 0.0
H299 H 0.65145 0.27711 0.60342 0.0
H300 H 0.68266 0.2396 0.58519 0.0
H301 H 0.40997 0.16431 0.57518 0.0
H302 H 0.41141 0.19892 0.54525 0.0
H303 H 0.44324 0.24452 0.57325 0.0
C304 C 0.24353 0.52512 0.97587 0.0
C305 C 0.25592 0.48322 0.9876 0.0
C306 C 0.26327 0.54543 0.95101 0.0
C307 C 0.29615 0.52332 0.93755 0.0
C308 C 0.30994 0.48214 0.94954 0.0
C309 C 0.28987 0.46281 0.97435 0.0
C310 C 0.2473 0.58906 0.93888 0.0
C311 C 0.34464 0.4572 0.93594 0.0
C312 C 0.29671 0.52302 0.86537 0.0
C313 C 0.35372 0.5726 0.85979 0.0
C314 C 0.27705 0.50713 0.89052 0.0
C315 C 0.31502 0.54184 0.91073 0.0
C316 C 0.37214 0.59249 0.90528 0.0
C317 C 0.39084 0.60713 0.87994 0.0
C318 C 0.21599 0.45248 0.89547 0.0
C319 C 0.41413 0.63048 0.92625 0.0
H320 H 0.21688 0.54076 0.9858 0.0
H321 H 0.3 0.43066 0.98321 0.0
H322 H 0.28805 0.62802 0.93065 0.0
H323 H 0.21501 0.5662 0.92314 0.0
H324 H 0.22654 0.60629 0.95256 0.0
H325 H 0.35365 0.42731 0.94825 0.0
H326 H 0.31883 0.4309 0.91913 0.0
H327 H 0.3883 0.49468 0.92903 0.0
H328 H 0.26721 0.4965 0.85002 0.0
H329 H 0.4353 0.64491 0.87598 0.0
H330 H 0.18858 0.46511 0.90753 0.0
H331 H 0.22147 0.41787 0.90594 0.0
H332 H 0.19077 0.43183 0.8777 0.0
H333 H 0.39094 0.6469 0.93897 0.0
H334 H 0.45581 0.67004 0.91888 0.0
H335 H 0.42708 0.60259 0.93788 0.0
C336 C 0.71102 0.23833 0.30771 0.0
C337 C 0.76522 0.25606 0.32066 0.0
C338 C 0.7111 0.25854 0.28287 0.0
C339 C 0.76664 0.2978 0.27077 0.0
C340 C 0.82129 0.31732 0.2841 0.0
C341 C 0.81992 0.29605 0.30876 0.0
C342 C 0.65184 0.23579 0.26921 0.0
C343 C 0.88149 0.3597 0.27213 0.0
C344 C 0.77976 0.30529 0.19879 0.0
C345 C 0.77839 0.35836 0.19323 0.0
C346 C 0.77428 0.2842 0.22382 0.0
C347 C 0.76813 0.31733 0.24395 0.0
C348 C 0.76625 0.37062 0.23851 0.0
C349 C 0.771 0.39023 0.21328 0.0
C350 C 0.77648 0.22712 0.22872 0.0
C351 C 0.76019 0.4075 0.25942 0.0
H352 H 0.66858 0.20691 0.31661 0.0
H353 H 0.86207 0.31023 0.31861 0.0
H354 H 0.64992 0.2734 0.25961 0.0
H355 H 0.64752 0.20311 0.25438 0.0
H356 H 0.61276 0.21292 0.28224 0.0
H357 H 0.91954 0.37385 0.28563 0.0
H358 H 0.88913 0.33728 0.25572 0.0
H359 H 0.8819 0.40067 0.2649 0.0
H360 H 0.78644 0.28072 0.18362 0.0
H361 H 0.76879 0.43065 0.20927 0.0
H362 H 0.73884 0.19628 0.24128 0.0
H363 H 0.81918 0.23846 0.23855 0.0
H364 H 0.77387 0.20273 0.21094 0.0
H365 H 0.71872 0.37906 0.27055 0.0
H366 H 0.75838 0.44727 0.25205 0.0
H367 H 0.79897 0.4236 0.27262 0.0
C368 C 0.53053 0.8243 0.63881 0.0
C369 C 0.50588 0.77151 0.65359 0.0
C370 C 0.51007 0.82387 0.61411 0.0
C371 C 0.46335 0.76938 0.60378 0.0
C372 C 0.43741 0.71606 0.61867 0.0
C373 C 0.45903 0.71771 0.64339 0.0
C374 C 0.53938 0.8817 0.59888 0.0
C375 C 0.38786 0.65694 0.60828 0.0
C376 C 0.38155 0.78668 0.54689 0.0
C377 C 0.41132 0.7776 0.5265 0.0
C378 C 0.39665 0.78221 0.57212 0.0
C379 C 0.44283 0.76854 0.57719 0.0
C380 C 0.47222 0.75811 0.55675 0.0
C381 C 0.45608 0.76265 0.53171 0.0
C382 C 0.36439 0.79392 0.59335 0.0
C383 C 0.52194 0.74377 0.5613 0.0
H384 H 0.56687 0.86619 0.64636 0.0
H385 H 0.44008 0.67655 0.65449 0.0
H386 H 0.56011 0.87563 0.58151 0.0
H387 H 0.50489 0.8932 0.59275 0.0
H388 H 0.57485 0.9204 0.60976 0.0
H389 H 0.36893 0.62088 0.62291 0.0
H390 H 0.35087 0.66277 0.60045 0.0
H391 H 0.40578 0.64183 0.59252 0.0
H392 H 0.34752 0.79905 0.54317 0.0
H393 H 0.47875 0.75461 0.51616 0.0
H394 H 0.39674 0.83518 0.60383 0.0
H395 H 0.34594 0.75586 0.60703 0.0
H396 H 0.32691 0.80009 0.58634 0.0
H397 H 0.56113 0.78317 0.5702 0.0
H398 H 0.53727 0.73255 0.54349 0.0
H399 H 0.50651 0.7052 0.5746 0.0
C400 C 0.69696 0.53129 0.97287 0.0
C401 C 0.72993 0.51037 0.98661 0.0
C402 C 0.67775 0.51206 0.94797 0.0
C403 C 0.6915 0.47054 0.93636 0.0
C404 C 0.72382 0.44829 0.95021 0.0
C405 C 0.7427 0.46849 0.97517 0.0
C406 C 0.64365 0.5372 0.93393 0.0
C407 C 0.73986 0.40442 0.93843 0.0
C408 C 0.5961 0.38699 0.87887 0.0
C409 C 0.63304 0.42149 0.8587 0.0
C410 C 0.61528 0.40131 0.90417 0.0
C411 C 0.67272 0.45157 0.90957 0.0
C412 C 0.71063 0.48606 0.88933 0.0
C413 C 0.69045 0.47054 0.8642 0.0
C414 C 0.57332 0.3636 0.92518 0.0
C415 C 0.77202 0.5403 0.89423 0.0
H416 H 0.68682 0.56372 0.98141 0.0
H417 H 0.76871 0.45258 0.98547 0.0
H418 H 0.66934 0.56227 0.9169 0.0
H419 H 0.59958 0.49979 0.92731 0.0
H420 H 0.63547 0.56819 0.94584 0.0
H421 H 0.76023 0.38722 0.95236 0.0
H422 H 0.69922 0.36547 0.93011 0.0
H423 H 0.7725 0.42708 0.92281 0.0
H424 H 0.55135 0.34961 0.87496 0.0
H425 H 0.71978 0.49701 0.84882 0.0
H426 H 0.56031 0.39165 0.93664 0.0
H427 H 0.59652 0.34742 0.93806 0.0
H428 H 0.53167 0.32391 0.91785 0.0
H429 H 0.76697 0.57567 0.90424 0.0
H430 H 0.79759 0.56001 0.87646 0.0
H431 H 0.79885 0.52763 0.90669 0.0
C432 C 0.36007 0.3994 0.0745 0.0
C433 C 0.32993 0.42453 0.08716 0.0
C434 C 0.42193 0.42271 0.07812 0.0
C435 C 0.45347 0.4708 0.09546 0.0
C436 C 0.42172 0.49181 0.11026 0.0
C437 C 0.36028 0.46924 0.10553 0.0
C438 C 0.45435 0.39974 0.06163 0.0
C439 C 0.45331 0.54093 0.12978 0.0
C440 C 0.61492 0.50816 0.10396 0.0
C441 C 0.6441 0.55479 0.08625 0.0
C442 C 0.5533 0.48357 0.10895 0.0
C443 C 0.52019 0.50457 0.09504 0.0
C444 C 0.55034 0.55393 0.07815 0.0
C445 C 0.61236 0.57918 0.0743 0.0
C446 C 0.5232 0.43296 0.12795 0.0
C447 C 0.51643 0.57693 0.06258 0.0
H448 H 0.33646 0.36506 0.06018 0.0
H449 H 0.33651 0.48815 0.11548 0.0
H450 H 0.48468 0.43591 0.04835 0.0
H451 H 0.48277 0.38775 0.07335 0.0
H452 H 0.42266 0.3595 0.05038 0.0
H453 H 0.42087 0.5425 0.14328 0.0
H454 H 0.48668 0.53421 0.14059 0.0
H455 H 0.47807 0.58537 0.12016 0.0
H456 H 0.63991 0.48978 0.11335 0.0
H457 H 0.63506 0.61498 0.06047 0.0
H458 H 0.49902 0.38913 0.11784 0.0
H459 H 0.48954 0.43791 0.13934 0.0
H460 H 0.55651 0.43138 0.14097 0.0
H461 H 0.48473 0.54079 0.04959 0.0
H462 H 0.54702 0.61716 0.05109 0.0
H463 H 0.48928 0.589 0.07505 0.0
C464 C 0.09915 0.62014 0.43676 0.0
C465 C 0.08334 0.65008 0.41874 0.0
C466 C 0.06152 0.55824 0.44132 0.0
C467 C 0.00845 0.52565 0.42673 0.0
C468 C 0.99089 0.55651 0.40947 0.0
C469 C 0.02821 0.61874 0.40601 0.0
C470 C 0.08027 0.52729 0.46067 0.0
C471 C 0.93518 0.52317 0.39318 0.0
C472 C 0.95382 0.36501 0.40654 0.0
C473 C 0.89813 0.33474 0.41886 0.0
C474 C -0.00785 0.42708 0.41009 0.0
C475 C 0.97491 0.45877 0.42699 0.0
C476 C 0.9214 0.42704 0.44134 0.0
C477 C 0.88286 0.36536 0.4367 0.0
C478 C 0.04832 0.4595 0.39406 0.0
C479 C 0.90293 0.45885 0.46033 0.0
H480 H 0.14172 0.64477 0.44675 0.0
H481 H 0.01635 0.64197 0.39193 0.0
H482 H 0.04089 0.49422 0.47189 0.0
H483 H 0.09917 0.5021 0.45087 0.0
H484 H 0.11513 0.56022 0.47381 0.0
H485 H 0.92662 0.55429 0.3815 0.0
H486 H 0.9404 0.49176 0.38031 0.0
H487 H 0.89503 0.49564 0.40513 0.0
H488 H 0.96529 0.34123 0.39261 0.0
H489 H 0.83986 0.34152 0.4464 0.0
H490 H 0.08814 0.48784 0.40609 0.0
H491 H 0.04337 0.49004 0.38054 0.0
H492 H 0.05722 0.42771 0.38309 0.0
H493 H 0.94232 0.49184 0.4716 0.0
H494 H 0.86766 0.42643 0.47345 0.0
H495 H 0.88463 0.48425 0.45021 0.0
C496 C 0.47926 0.10913 0.7707 0.0
C497 C 0.43218 0.09242 0.75331 0.0
C498 C 0.5029 0.07105 0.77544 0.0
C499 C 0.48051 0.01663 0.76159 0.0
C500 C 0.43071 -0.0018 0.74505 0.0
C501 C 0.40643 0.03599 0.74147 0.0
C502 C 0.55401 0.09073 0.79411 0.0
C503 C 0.40628 0.94109 0.72949 0.0
C504 C 0.58392 0.9604 0.74 0.0
C505 C 0.55933 0.90513 0.75273 0.0
C506 C 0.56081 -0.00089 0.74382 0.0
C507 C 0.51353 0.98283 0.76148 0.0
C508 C 0.49276 0.92984 0.77621 0.0
C509 C 0.51505 0.89074 0.77124 0.0
C510 C 0.58335 0.0546 0.72733 0.0
C511 C 0.4445 0.91254 0.79605 0.0
H512 H 0.4987 0.15269 0.78003 0.0
H513 H 0.37027 0.02339 0.72788 0.0
H514 H 0.54864 0.0518 0.80548 0.0
H515 H 0.59729 0.10945 0.78373 0.0
H516 H 0.55687 0.12616 0.80716 0.0
H517 H 0.36572 0.93201 0.71839 0.0
H518 H 0.44146 0.94496 0.71612 0.0
H519 H 0.39438 0.90171 0.7419 0.0
H520 H 0.61793 0.97116 0.72557 0.0
H521 H 0.49657 0.84808 0.78126 0.0
H522 H 0.59669 0.09522 0.73912 0.0
H523 H 0.54661 0.04937 0.71454 0.0
H524 H 0.62255 0.06249 0.71555 0.0
H525 H 0.45188 0.95276 0.80698 0.0
H526 H 0.44317 0.87829 0.80941 0.0
H527 H 0.39983 0.89321 0.78672 0.0
C528 C 0.59452 0.59265 0.69018 0.0
C529 C 0.5909 0.64131 0.68025 0.0
C530 C 0.55563 0.53397 0.68164 0.0
C531 C 0.51126 0.52428 0.66321 0.0
C532 C 0.51364 0.57421 0.65053 0.0
C533 C 0.55409 0.63272 0.65916 0.0
C534 C 0.55639 0.48214 0.69512 0.0
C535 C 0.46869 0.56619 0.63025 0.0
C536 C 0.4158 0.35687 0.65832 0.0
C537 C 0.38197 0.34674 0.68049 0.0
C538 C 0.45299 0.41593 0.64943 0.0
C539 C 0.4553 0.46464 0.66306 0.0
C540 C 0.41262 0.45301 0.68248 0.0
C541 C 0.3768 0.39387 0.69119 0.0
C542 C 0.49573 0.42644 0.62789 0.0
C543 C 0.41158 0.50354 0.69689 0.0
H544 H 0.62376 0.59984 0.70627 0.0
H545 H 0.55175 0.67071 0.65132 0.0
H546 H 0.51784 0.46067 0.70848 0.0
H547 H 0.55173 0.44723 0.68142 0.0
H548 H 0.59859 0.4974 0.70612 0.0
H549 H 0.48866 0.60439 0.6166 0.0
H550 H 0.45237 0.52315 0.6198 0.0
H551 H 0.42928 0.56574 0.63917 0.0
H552 H 0.41904 0.32001 0.6498 0.0
H553 H 0.34957 0.38546 0.70806 0.0
H554 H 0.53951 0.43486 0.63568 0.0
H555 H 0.50429 0.46655 0.61659 0.0
H556 H 0.47792 0.38639 0.61525 0.0
H557 H 0.45087 0.52493 0.7099 0.0
H558 H 0.36992 0.48688 0.70837 0.0
H559 H 0.41475 0.53884 0.68373 0.0
C560 C 0.06254 0.43386 0.99254 0.0
C561 C 0.03602 0.39725 1.01383 0.0
C562 C 0.04246 0.47277 0.98396 0.0
C563 C -0.00514 0.47397 0.997 0.0
C564 C 0.96179 0.42948 1.01562 0.0
C565 C 0.98343 0.39204 0.02405 0.0
C566 C 0.07744 0.51771 0.96339 0.0
C567 C 0.90918 0.42745 0.02947 0.0
C568 C -0.00028 0.60911 0.02514 0.0
C569 C 0.94736 0.6041 1.01469 0.0
C570 C 0.02225 0.57271 0.01639 0.0
C571 C 0.99028 0.52947 0.99719 0.0
C572 C 0.94317 0.53126 0.98395 0.0
C573 C 0.92221 0.56914 0.99285 0.0
C574 C 0.07439 0.57416 0.03045 0.0
C575 C 0.9095 0.4877 0.96276 0.0
H576 H 0.1031 0.43739 0.98447 0.0
H577 H 0.96267 0.3629 0.04029 0.0
H578 H 0.04879 0.53146 0.95282 0.0
H579 H 0.1153 0.55872 0.97204 0.0
H580 H 0.09699 0.49884 0.94989 0.0
H581 H 0.88336 0.38507 0.04051 0.0
H582 H 0.92606 0.46608 0.04283 0.0
H583 H 0.87802 0.43125 0.016 0.0
H584 H 0.0195 0.63706 0.04179 0.0
H585 H 0.88189 0.56582 0.98457 0.0
H586 H 0.10618 0.5713 0.01707 0.0
H587 H 0.05712 0.53477 0.04342 0.0
H588 H 0.09961 0.61592 0.04194 0.0
H589 H 0.93946 0.47636 0.95182 0.0
H590 H 0.88897 0.50651 0.94969 0.0
H591 H 0.87251 0.44523 0.97085 0.0
C592 C 0.389 0.00321 0.35704 0.0
C593 C 0.3408 0.95054 0.34716 0.0
C594 C 0.44766 0.02352 0.34853 0.0
C595 C 0.45778 0.98901 0.33019 0.0
C596 C 0.40825 0.94136 0.31742 0.0
C597 C 0.34972 0.92271 0.32603 0.0
C598 C 0.4991 0.07626 0.36206 0.0
C599 C 0.41691 0.90481 0.29719 0.0
C600 C 0.62501 0.05876 0.32558 0.0
C601 C 0.63468 0.03422 0.34765 0.0
C602 C 0.56619 0.0383 0.3168 0.0
C603 C 0.51718 0.99236 0.33043 0.0
C604 C 0.52804 0.96073 0.34993 0.0
C605 C 0.58697 0.9827 0.35851 0.0
C606 C 0.55657 0.07144 0.29531 0.0
C607 C 0.47712 0.90977 0.36442 0.0
H608 H 0.38155 0.02503 0.37314 0.0
H609 H 0.31208 0.88215 0.31819 0.0
H610 H 0.52018 0.05921 0.37568 0.0
H611 H 0.53427 0.10634 0.34843 0.0
H612 H 0.48361 0.10339 0.37276 0.0
H613 H 0.37775 0.88413 0.28405 0.0
H614 H 0.45864 0.93277 0.28615 0.0
H615 H 0.42072 0.86767 0.30623 0.0
H616 H 0.66228 0.09833 0.31697 0.0
H617 H 0.595 0.96329 0.37533 0.0
H618 H 0.55055 0.10835 0.30311 0.0
H619 H 0.51557 0.04099 0.28427 0.0
H620 H 0.59609 0.09199 0.28239 0.0
H621 H 0.45621 0.92844 0.37727 0.0
H622 H 0.49312 0.88435 0.37609 0.0
H623 H 0.44169 0.87774 0.35132 0.0
C624 C 0.23671 0.17654 0.7921 0.0
C625 C 0.29972 0.20545 0.79029 0.0
C626 C 0.20861 0.17489 0.81519 0.0
C627 C 0.24446 0.20316 0.83684 0.0
C628 C 0.30803 0.23291 0.83503 0.0
C629 C 0.3348 0.23351 0.81185 0.0
C630 C 0.14068 0.14252 0.81652 0.0
C631 C 0.34796 0.26402 0.85762 0.0
C632 C 0.18681 0.25024 0.89352 0.0
C633 C 0.17913 0.20642 0.91151 0.0
C634 C 0.20561 0.2484 0.86875 0.0
C635 C 0.21617 0.2011 0.86167 0.0
C636 C 0.20531 0.15494 0.87927 0.0
C637 C 0.18727 0.15834 0.90401 0.0
C638 C 0.21699 0.29869 0.85058 0.0
C639 C 0.21584 0.10362 0.87239 0.0
H640 H 0.2093 0.15478 0.77554 0.0
H641 H 0.38355 0.25641 0.81066 0.0
H642 H 0.12433 0.10513 0.83048 0.0
H643 H 0.12557 0.17395 0.82315 0.0
H644 H 0.11928 0.12358 0.7979 0.0
H645 H 0.39668 0.28614 0.85288 0.0
H646 H 0.33828 0.29877 0.86517 0.0
H647 H 0.33837 0.23077 0.87298 0.0
H648 H 0.17939 0.28689 0.89896 0.0
H649 H 0.18215 0.12462 0.91777 0.0
H650 H 0.19345 0.27979 0.83236 0.0
H651 H 0.26592 0.32577 0.84641 0.0
H652 H 0.20194 0.32937 0.85833 0.0
H653 H 0.19326 0.08278 0.85421 0.0
H654 H 0.19907 0.06803 0.88723 0.0
H655 H 0.26481 0.12126 0.86978 0.0
C656 C 0.92745 0.18531 0.22632 0.0
C657 C 0.96552 0.18105 0.24436 0.0
C658 C 0.94689 0.20354 0.20136 0.0
C659 C 0.00563 0.21733 0.19419 0.0
C660 C 0.04302 0.20992 0.21188 0.0
C661 C 0.02265 0.19218 0.23677 0.0
C662 C 0.90571 0.21121 0.18315 0.0
C663 C 0.10586 0.2239 0.20492 0.0
C664 C 0.0511 0.23834 0.12462 0.0
C665 C 0.08307 0.30152 0.12261 0.0
C666 C 0.02498 0.20999 0.14775 0.0
C667 C 0.03052 0.24573 0.16919 0.0
C668 C 0.0616 0.30942 0.16707 0.0
C669 C 0.08772 0.33644 0.14391 0.0
C670 C -0.00771 0.14195 0.14939 0.0
C671 C 0.06793 0.34926 0.18937 0.0
H672 H 0.88276 0.17565 0.23185 0.0
H673 H 0.0527 0.18969 0.25057 0.0
H674 H 0.92233 0.26008 0.18036 0.0
H675 H 0.90558 0.19174 0.16436 0.0
H676 H 0.85866 0.18963 0.19026 0.0
H677 H 0.12659 0.20952 0.21988 0.0
H678 H 0.10513 0.20119 0.18691 0.0
H679 H 0.13495 0.27324 0.20193 0.0
H680 H 0.04734 0.21107 0.10826 0.0
H681 H 0.11191 0.38526 0.14255 0.0
H682 H 0.94559 0.12471 0.15626 0.0
H683 H 0.01521 0.12764 0.1633 0.0
H684 H 0.99042 0.12057 0.13084 0.0
H685 H 0.02279 0.33683 0.19693 0.0
H686 H 0.09177 0.39798 0.18431 0.0
H687 H 0.09327 0.34239 0.20483 0.0
C688 C 0.72395 0.94762 0.56457 0.0
C689 C 0.77741 0.96962 0.57867 0.0
C690 C 0.72472 0.9666 0.53955 0.0
C691 C 0.78019 0.00932 0.52844 0.0
C692 C 0.83449 0.03004 0.5422 0.0
C693 C 0.83248 0.0097 0.56708 0.0
C694 C 0.66579 0.94301 0.52548 0.0
C695 C 0.89451 0.07581 0.53107 0.0
C696 C 0.78842 0.03958 0.45742 0.0
C697 C 0.78114 0.09041 0.45662 0.0
C698 C 0.78802 0.01234 0.48066 0.0
C699 C 0.78081 0.03698 0.50354 0.0
C700 C 0.77418 0.08867 0.50281 0.0
C701 C 0.77425 0.11455 0.47942 0.0
C702 C 0.79445 0.95679 0.48074 0.0
C703 C 0.76681 0.11669 0.52676 0.0
H704 H 0.68105 0.91723 0.57338 0.0
H705 H 0.87409 0.02602 0.57763 0.0
H706 H 0.65493 0.97971 0.52338 0.0
H707 H 0.66942 0.92812 0.50615 0.0
H708 H 0.62782 0.90459 0.53549 0.0
H709 H 0.93294 0.08372 0.54341 0.0
H710 H 0.90072 0.06068 0.51219 0.0
H711 H 0.89566 0.11942 0.52832 0.0
H712 H 0.79338 0.02044 0.4399 0.0
H713 H 0.76884 0.15398 0.47907 0.0
H714 H 0.75394 0.91845 0.48943 0.0
H715 H 0.83379 0.96484 0.49243 0.0
H716 H 0.80023 0.94354 0.46136 0.0
H717 H 0.72596 0.08327 0.53712 0.0
H718 H 0.76276 0.15725 0.5229 0.0
H719 H 0.806 0.1299 0.53947 0.0
C720 C 0.65417 0.78228 0.81317 0.0
C721 C 0.68454 0.78721 0.7904 0.0
C722 C 0.67954 0.78174 0.8366 0.0
C723 C 0.73667 0.78583 0.83739 0.0
C724 C 0.76791 0.79122 0.81454 0.0
C725 C 0.74157 0.79217 0.79126 0.0
C726 C 0.6449 0.77642 0.86054 0.0
C727 C 0.82862 0.79501 0.81468 0.0
C728 C 0.8154 0.83595 0.90097 0.0
C729 C 0.79795 0.78038 0.91275 0.0
C730 C 0.79815 0.83856 0.87597 0.0
C731 C 0.76302 0.78431 0.86232 0.0
C732 C 0.74786 0.72822 0.87363 0.0
C733 C 0.76515 0.72691 0.89874 0.0
C734 C 0.81512 0.89924 0.8646 0.0
C735 C 0.71079 0.6693 0.85968 0.0
H736 H 0.61021 0.77874 0.81275 0.0
H737 H 0.76511 0.79562 0.77374 0.0
H738 H 0.63547 0.73499 0.87103 0.0
H739 H 0.67232 0.81549 0.87314 0.0
H740 H 0.60139 0.77459 0.85664 0.0
H741 H 0.84752 0.80005 0.79532 0.0
H742 H 0.86095 0.83387 0.82638 0.0
H743 H 0.82454 0.75363 0.82342 0.0
H744 H 0.84176 0.87753 0.91147 0.0
H745 H 0.75081 0.68365 0.9077 0.0
H746 H 0.77392 0.90256 0.86184 0.0
H747 H 0.83601 0.90419 0.84571 0.0
H748 H 0.84695 0.93735 0.87681 0.0
H749 H 0.66385 0.66011 0.85757 0.0
H750 H 0.70964 0.6306 0.8698 0.0
H751 H 0.72899 0.67204 0.84036 0.0
C752 C 0.95409 0.8032 0.23822 0.0
C753 C 0.00557 0.80249 0.24684 0.0
C754 C 0.93343 0.78667 0.21326 0.0
C755 C 0.96465 0.76847 0.1966 0.0
C756 C 0.0182 0.77039 0.2048 0.0
C757 C 0.03819 0.78773 0.22976 0.0
C758 C 0.87632 0.78554 0.20516 0.0
C759 C 0.05274 0.75115 0.18766 0.0
C760 C 0.87206 0.65225 0.1467 0.0
C761 C 0.88655 0.68738 0.1246 0.0
C762 C 0.89724 0.67823 0.17014 0.0
C763 C 0.93777 0.74115 0.17168 0.0
C764 C 0.95236 0.77716 0.14955 0.0
C765 C 0.92663 0.7498 0.12621 0.0
C766 C 0.88062 0.6381 0.19326 0.0
C767 C -0.00472 0.84443 0.15055 0.0
H768 H 0.92831 0.81407 0.25128 0.0
H769 H 0.07879 0.78837 0.23608 0.0
H770 H 0.88282 0.8084 0.1866 0.0
H771 H 0.83969 0.73804 0.20278 0.0
H772 H 0.86151 0.80774 0.21923 0.0
H773 H 0.09617 0.76018 0.19617 0.0
H774 H 0.02511 0.70204 0.18374 0.0
H775 H 0.06204 0.77496 0.16921 0.0
H776 H 0.84106 0.60402 0.14577 0.0
H777 H 0.93808 0.77729 0.10926 0.0
H778 H 0.8597 0.65325 0.20774 0.0
H779 H 0.92176 0.64148 0.20184 0.0
H780 H 0.84869 0.58991 0.18877 0.0
H781 H 0.9784 0.86574 0.16408 0.0
H782 H 0.00131 0.86621 0.13173 0.0
H783 H 0.03994 0.85366 0.15755 0.0
C784 C 0.25684 0.03683 0.56553 0.0
C785 C 0.20397 0.01687 0.57979 0.0
C786 C 0.25463 0.01726 0.54054 0.0
C787 C 0.19824 0.9762 0.52959 0.0
C788 C 0.14459 0.95766 0.5435 0.0
C789 C 0.14809 0.9784 0.5684 0.0
C790 C 0.3129 0.03838 0.52628 0.0
C791 C 0.08363 0.9138 0.5325 0.0
C792 C 0.1897 0.94681 0.45858 0.0
C793 C 0.19503 0.89485 0.45771 0.0
C794 C 0.19038 0.97388 0.48186 0.0
C795 C 0.19591 0.94792 0.5047 0.0
C796 C 0.20009 0.89483 0.50391 0.0
C797 C 0.19981 0.86913 0.48047 0.0
C798 C 0.18639 0.03081 0.48201 0.0
C799 C 0.20556 0.8654 0.52784 0.0
H800 H 0.3003 0.06595 0.57423 0.0
H801 H 0.107 0.96365 0.57911 0.0
H802 H 0.32056 -0.00022 0.52331 0.0
H803 H 0.31029 0.05564 0.50731 0.0
H804 H 0.35236 0.07449 0.53657 0.0
H805 H 0.04605 0.90791 0.54489 0.0
H806 H 0.0781 0.92939 0.5136 0.0
H807 H 0.08015 0.8691 0.52986 0.0
H808 H 0.1863 0.96708 0.44107 0.0
H809 H 0.2036 0.82876 0.48002 0.0
H810 H 0.228 0.06835 0.49044 0.0
H811 H 0.14808 0.02447 0.49398 0.0
H812 H 0.18049 0.04432 0.46269 0.0
H813 H 0.20696 0.82342 0.52395 0.0
H814 H 0.1669 0.85417 0.54056 0.0
H815 H 0.24721 0.89725 0.5382 0.0
loop_
_geom_bond_atom_site_label_1
_geom_bond_atom_site_label_2
_geom_bond_distance
_geom_bond_site_symmetry_2
_ccdc_geom_bond_type
Eu0 C9 2.828 . S
Eu0 O11 2.392 . S
Eu0 O13 2.418 . S
Eu0 O18 2.373 . S
Eu0 O21 2.488 . S
Eu0 O22 2.471 . S
Eu0 O23 2.349 . S
Eu1 O10 2.373 1_554 S
Eu1 O14 2.488 1_554 S
Eu1 O15 2.471 1_554 S
Eu1 O16 2.349 . S
Eu1 O19 2.392 . S
Eu1 O20 2.418 . S
Eu1 C30 2.828 1_554 S
C2 O20 1.244 . S
C2 O23 1.265 . S
C3 C4 1.379 . S
C3 C7 1.373 . S
C3 C9 1.505 . S
C4 C3 1.379 . S
C4 C6 1.369 . S
C4 H32 0.930 . S
C5 C7 1.383 . S
C5 C8 1.382 . S
C5 H33 0.930 . S
C6 C4 1.369 . S
C6 C8 1.392 . S
C6 H34 0.930 . S
C7 C3 1.373 . S
C7 C5 1.383 . S
C7 H35 0.931 . S
C8 C5 1.382 . S
C8 C6 1.392 . S
C9 Eu0 2.828 . S
C9 C3 1.505 . S
C9 O21 1.249 . S
C9 O22 1.244 . S
O10 Eu1 2.373 1_556 S
O10 C12 1.258 . S
O11 Eu0 2.392 . S
O11 C12 1.242 1_554 S
C12 O10 1.258 . S
C12 O11 1.242 1_556 S
O13 Eu0 2.418 . S
O13 C17 1.244 . S
O14 Eu1 2.488 1_556 S
O14 C30 1.249 . S
O15 Eu1 2.471 1_556 S
O15 C30 1.244 . S
O16 Eu1 2.349 . S
O16 C17 1.265 . S
C17 O13 1.244 . S
C17 O16 1.265 . S
O18 Eu0 2.373 . S
O18 C31 1.258 . S
O19 Eu1 2.392 . S
O19 C31 1.242 . S
O20 Eu1 2.418 . S
O20 C2 1.244 . S
O21 Eu0 2.488 . S
O21 C9 1.249 . S
O22 Eu0 2.471 . S
O22 C9 1.244 . S
O23 Eu0 2.349 . S
O23 C2 1.265 . S
C24 C25 1.379 . S
C24 C28 1.373 . S
C24 C30 1.505 . S
C25 C24 1.379 . S
C25 C27 1.369 . S
C25 H36 0.930 . S
C26 C28 1.383 . S
C26 C29 1.382 . S
C26 H37 0.930 . S
C27 C25 1.369 . S
C27 C29 1.392 . S
C27 H38 0.930 . S
C28 C24 1.373 . S
C28 C26 1.383 . S
C28 H39 0.931 . S
C29 C26 1.382 . S
C29 C27 1.392 . S
C30 Eu1 2.828 1_556 S
C30 O14 1.249 . S
C30 O15 1.244 . S
C30 C24 1.505 . S
C31 O18 1.258 . S
C31 O19 1.242 . S
H32 C4 0.930 . S
H33 C5 0.930 . S
H34 C6 0.930 . S
H35 C7 0.931 . S
H36 C25 0.930 . S
H37 C26 0.930 . S
H38 C27 0.930 . S
H39 C28 0.931 . S
Eu40 C49 2.828 . S
Eu40 O51 2.392 . S
Eu40 O53 2.418 . S
Eu40 O58 2.373 . S
Eu40 O61 2.488 . S
Eu40 O62 2.471 . S
Eu40 O63 2.349 . S
Eu41 O50 2.373 . S
Eu41 O54 2.488 . S
Eu41 O55 2.471 . S
Eu41 O56 2.349 . S
Eu41 O59 2.392 . S
Eu41 O60 2.418 . S
Eu41 C70 2.828 . S
C42 O60 1.244 . S
C42 O63 1.265 . S
C43 C44 1.379 . S
C43 C47 1.373 . S
C43 C49 1.505 . S
C44 C43 1.379 . S
C44 C46 1.369 . S
C44 H72 0.930 . S
C45 C47 1.383 . S
C45 C48 1.382 . S
C45 H73 0.930 . S
C46 C44 1.369 . S
C46 C48 1.392 . S
C46 H74 0.930 . S
C47 C43 1.373 . S
C47 C45 1.383 . S
C47 H75 0.931 . S
C48 C45 1.382 . S
C48 C46 1.392 . S
C49 Eu40 2.828 . S
C49 C43 1.505 . S
C49 O61 1.249 . S
C49 O62 1.244 . S
O50 Eu41 2.373 . S
O50 C52 1.258 . S
O51 Eu40 2.392 . S
O51 C52 1.242 . S
C52 O50 1.258 . S
C52 O51 1.242 . S
O53 Eu40 2.418 . S
O53 C57 1.244 . S
O54 Eu41 2.488 . S
O54 C70 1.249 . S
O55 Eu41 2.471 . S
O55 C70 1.244 . S
O56 Eu41 2.349 . S
O56 C57 1.265 . S
C57 O53 1.244 . S
C57 O56 1.265 . S
O58 Eu40 2.373 . S
O58 C71 1.258 . S
O59 Eu41 2.392 . S
O59 C71 1.242 . S
O60 Eu41 2.418 . S
O60 C42 1.244 . S
O61 Eu40 2.488 . S
O61 C49 1.249 . S
O62 Eu40 2.471 . S
O62 C49 1.244 . S
O63 Eu40 2.349 . S
O63 C42 1.265 . S
C64 C65 1.379 . S
C64 C68 1.373 . S
C64 C70 1.505 . S
C65 C64 1.379 . S
C65 C67 1.369 . S
C65 H76 0.930 . S
C66 C68 1.383 . S
C66 C69 1.382 . S
C66 H77 0.930 . S
C67 C65 1.369 . S
C67 C69 1.392 . S
C67 H78 0.930 1_655 S
C68 C64 1.373 . S
C68 C66 1.383 . S
C68 H79 0.931 . S
C69 C66 1.382 . S
C69 C67 1.392 . S
C70 Eu41 2.828 . S
C70 O54 1.249 . S
C70 O55 1.244 . S
C70 C64 1.505 . S
C71 O58 1.258 . S
C71 O59 1.242 . S
H72 C44 0.930 . S
H73 C45 0.930 . S
H74 C46 0.930 . S
H75 C47 0.931 . S
H76 C65 0.930 . S
H77 C66 0.930 . S
H78 C67 0.930 1_455 S
H79 C68 0.931 . S
Eu80 C89 2.828 . S
Eu80 O91 2.392 . S
Eu80 O93 2.418 . S
Eu80 O98 2.373 . S
Eu80 O101 2.488 . S
Eu80 O102 2.471 . S
Eu80 O103 2.349 . S
Eu81 O90 2.373 . S
Eu81 O94 2.488 . S
Eu81 O95 2.471 . S
Eu81 O96 2.349 . S
Eu81 O99 2.392 . S
Eu81 O100 2.418 . S
Eu81 C110 2.828 . S
C82 O100 1.244 . S
C82 O103 1.265 . S
C83 C84 1.379 . S
C83 C87 1.373 . S
C83 C89 1.505 . S
C84 C83 1.379 . S
C84 C86 1.369 . S
C84 H112 0.930 . S
C85 C87 1.383 . S
C85 C88 1.382 . S
C85 H113 0.930 . S
C86 C84 1.369 . S
C86 C88 1.392 . S
C86 H114 0.930 . S
C87 C83 1.373 . S
C87 C85 1.383 . S
C87 H115 0.931 . S
C88 C85 1.382 . S
C88 C86 1.392 . S
C89 Eu80 2.828 . S
C89 C83 1.505 . S
C89 O101 1.249 . S
C89 O102 1.244 . S
O90 Eu81 2.373 . S
O90 C92 1.258 . S
O91 Eu80 2.392 . S
O91 C92 1.242 . S
C92 O90 1.258 . S
C92 O91 1.242 . S
O93 Eu80 2.418 . S
O93 C97 1.244 . S
O94 Eu81 2.488 . S
O94 C110 1.249 . S
O95 Eu81 2.471 . S
O95 C110 1.244 . S
O96 Eu81 2.349 . S
O96 C97 1.265 . S
C97 O93 1.244 . S
C97 O96 1.265 . S
O98 Eu80 2.373 . S
O98 C111 1.258 . S
O99 Eu81 2.392 . S
O99 C111 1.242 . S
O100 Eu81 2.418 . S
O100 C82 1.244 . S
O101 Eu80 2.488 . S
O101 C89 1.249 . S
O102 Eu80 2.471 . S
O102 C89 1.244 . S
O103 Eu80 2.349 . S
O103 C82 1.265 . S
C104 C105 1.379 . S
C104 C108 1.373 . S
C104 C110 1.505 . S
C105 C104 1.379 . S
C105 C107 1.369 . S
C105 H116 0.930 . S
C106 C108 1.383 . S
C106 C109 1.382 . S
C106 H117 0.930 . S
C107 C105 1.369 . S
C107 C109 1.392 . S
C107 H118 0.930 1_565 S
C108 C104 1.373 . S
C108 C106 1.383 . S
C108 H119 0.931 . S
C109 C106 1.382 . S
C109 C107 1.392 . S
C110 Eu81 2.828 . S
C110 O94 1.249 . S
C110 O95 1.244 . S
C110 C104 1.505 . S
C111 O98 1.258 . S
C111 O99 1.242 . S
H112 C84 0.930 . S
H113 C85 0.930 . S
H114 C86 0.930 . S
H115 C87 0.931 . S
H116 C105 0.930 . S
H117 C106 0.930 . S
H118 C107 0.930 1_545 S
H119 C108 0.931 . S
Eu120 C129 2.828 . S
Eu120 O131 2.392 . S
Eu120 O133 2.418 . S
Eu120 O138 2.373 . S
Eu120 O141 2.488 . S
Eu120 O142 2.471 . S
Eu120 O143 2.349 . S
Eu121 O130 2.373 1_554 S
Eu121 O134 2.488 1_554 S
Eu121 O135 2.471 1_554 S
Eu121 O136 2.349 . S
Eu121 O139 2.392 . S
Eu121 O140 2.418 . S
Eu121 C150 2.828 1_554 S
C122 O140 1.244 . S
C122 O143 1.265 . S
C123 C124 1.379 . S
C123 C127 1.373 . S
C123 C129 1.505 . S
C124 C123 1.379 . S
C124 C126 1.369 . S
C124 H152 0.930 . S
C125 C127 1.383 . S
C125 C128 1.382 . S
C125 H153 0.930 . S
C126 C124 1.369 . S
C126 C128 1.392 . S
C126 H154 0.930 . S
C127 C123 1.373 . S
C127 C125 1.383 . S
C127 H155 0.931 . S
C128 C125 1.382 . S
C128 C126 1.392 . S
C129 Eu120 2.828 . S
C129 C123 1.505 . S
C129 O141 1.249 . S
C129 O142 1.244 . S
O130 Eu121 2.373 1_556 S
O130 C132 1.258 . S
O131 Eu120 2.392 . S
O131 C132 1.242 1_554 S
C132 O130 1.258 . S
C132 O131 1.242 1_556 S
O133 Eu120 2.418 . S
O133 C137 1.244 . S
O134 Eu121 2.488 1_556 S
O134 C150 1.249 . S
O135 Eu121 2.471 1_556 S
O135 C150 1.244 . S
O136 Eu121 2.349 . S
O136 C137 1.265 . S
C137 O133 1.244 . S
C137 O136 1.265 . S
O138 Eu120 2.373 . S
O138 C151 1.258 . S
O139 Eu121 2.392 . S
O139 C151 1.242 . S
O140 Eu121 2.418 . S
O140 C122 1.244 . S
O141 Eu120 2.488 . S
O141 C129 1.249 . S
O142 Eu120 2.471 . S
O142 C129 1.244 . S
O143 Eu120 2.349 . S
O143 C122 1.265 . S
C144 C145 1.379 . S
C144 C148 1.373 . S
C144 C150 1.505 . S
C145 C144 1.379 . S
C145 C147 1.369 . S
C145 H156 0.930 . S
C146 C148 1.383 . S
C146 C149 1.382 . S
C146 H157 0.930 . S
C147 C145 1.369 . S
C147 C149 1.392 . S
C147 H158 0.930 . S
C148 C144 1.373 . S
C148 C146 1.383 . S
C148 H159 0.931 . S
C149 C146 1.382 . S
C149 C147 1.392 . S
C150 Eu121 2.828 1_556 S
C150 O134 1.249 . S
C150 O135 1.244 . S
C150 C144 1.505 . S
C151 O138 1.258 . S
C151 O139 1.242 . S
H152 C124 0.930 . S
H153 C125 0.930 . S
H154 C126 0.930 . S
H155 C127 0.931 . S
H156 C145 0.930 . S
H157 C146 0.930 . S
H158 C147 0.930 . S
H159 C148 0.931 . S
Eu160 C169 2.828 . S
Eu160 O171 2.392 . S
Eu160 O173 2.418 . S
Eu160 O178 2.373 . S
Eu160 O181 2.488 . S
Eu160 O182 2.471 . S
Eu160 O183 2.349 . S
Eu161 O170 2.373 . S
Eu161 O174 2.488 . S
Eu161 O175 2.471 . S
Eu161 O176 2.349 . S
Eu161 O179 2.392 . S
Eu161 O180 2.418 . S
Eu161 C190 2.828 . S
C162 O180 1.244 . S
C162 O183 1.265 . S
C163 C164 1.379 . S
C163 C167 1.373 . S
C163 C169 1.505 . S
C164 C163 1.379 . S
C164 C166 1.369 . S
C164 H192 0.930 . S
C165 C167 1.383 . S
C165 C168 1.382 . S
C165 H193 0.930 . S
C166 C164 1.369 . S
C166 C168 1.392 . S
C166 H194 0.930 . S
C167 C163 1.373 . S
C167 C165 1.383 . S
C167 H195 0.931 . S
C168 C165 1.382 . S
C168 C166 1.392 . S
C169 Eu160 2.828 . S
C169 C163 1.505 . S
C169 O181 1.249 . S
C169 O182 1.244 . S
O170 Eu161 2.373 . S
O170 C172 1.258 . S
O171 Eu160 2.392 . S
O171 C172 1.242 . S
C172 O170 1.258 . S
C172 O171 1.242 . S
O173 Eu160 2.418 . S
O173 C177 1.244 . S
O174 Eu161 2.488 . S
O174 C190 1.249 . S
O175 Eu161 2.471 . S
O175 C190 1.244 . S
O176 Eu161 2.349 . S
O176 C177 1.265 . S
C177 O173 1.244 . S
C177 O176 1.265 . S
O178 Eu160 2.373 . S
O178 C191 1.258 . S
O179 Eu161 2.392 . S
O179 C191 1.242 . S
O180 Eu161 2.418 . S
O180 C162 1.244 . S
O181 Eu160 2.488 . S
O181 C169 1.249 . S
O182 Eu160 2.471 . S
O182 C169 1.244 . S
O183 Eu160 2.349 . S
O183 C162 1.265 . S
C184 C185 1.379 . S
C184 C188 1.373 . S
C184 C190 1.505 . S
C185 C184 1.379 . S
C185 C187 1.369 . S
C185 H196 0.930 . S
C186 C188 1.383 . S
C186 C189 1.382 . S
C186 H197 0.930 . S
C187 C185 1.369 . S
C187 C189 1.392 . S
C187 H198 0.930 1_455 S
C188 C184 1.373 . S
C188 C186 1.383 . S
C188 H199 0.931 . S
C189 C186 1.382 . S
C189 C187 1.392 . S
C190 Eu161 2.828 . S
C190 O174 1.249 . S
C190 O175 1.244 . S
C190 C184 1.505 . S
C191 O178 1.258 . S
C191 O179 1.242 . S
H192 C164 0.930 . S
H193 C165 0.930 . S
H194 C166 0.930 . S
H195 C167 0.931 . S
H196 C185 0.930 . S
H197 C186 0.930 . S
H198 C187 0.930 1_655 S
H199 C188 0.931 . S
Eu200 C209 2.828 . S
Eu200 O211 2.392 . S
Eu200 O213 2.418 . S
Eu200 O218 2.373 . S
Eu200 O221 2.488 . S
Eu200 O222 2.471 . S
Eu200 O223 2.349 . S
Eu201 O210 2.373 . S
Eu201 O214 2.488 . S
Eu201 O215 2.471 . S
Eu201 O216 2.349 . S
Eu201 O219 2.392 . S
Eu201 O220 2.418 . S
Eu201 C230 2.828 . S
C202 O220 1.244 . S
C202 O223 1.265 . S
C203 C204 1.379 . S
C203 C207 1.373 . S
C203 C209 1.505 . S
C204 C203 1.379 . S
C204 C206 1.369 . S
C204 H232 0.930 . S
C205 C207 1.383 . S
C205 C208 1.382 . S
C205 H233 0.930 . S
C206 C204 1.369 . S
C206 C208 1.392 . S
C206 H234 0.930 . S
C207 C203 1.373 . S
C207 C205 1.383 . S
C207 H235 0.931 . S
C208 C205 1.382 . S
C208 C206 1.392 . S
C209 Eu200 2.828 . S
C209 C203 1.505 . S
C209 O221 1.249 . S
C209 O222 1.244 . S
O210 Eu201 2.373 . S
O210 C212 1.258 . S
O211 Eu200 2.392 . S
O211 C212 1.242 . S
C212 O210 1.258 . S
C212 O211 1.242 . S
O213 Eu200 2.418 . S
O213 C217 1.244 . S
O214 Eu201 2.488 . S
O214 C230 1.249 . S
O215 Eu201 2.471 . S
O215 C230 1.244 . S
O216 Eu201 2.349 . S
O216 C217 1.265 . S
C217 O213 1.244 . S
C217 O216 1.265 . S
O218 Eu200 2.373 . S
O218 C231 1.258 . S
O219 Eu201 2.392 . S
O219 C231 1.242 . S
O220 Eu201 2.418 . S
O220 C202 1.244 . S
O221 Eu200 2.488 . S
O221 C209 1.249 . S
O222 Eu200 2.471 . S
O222 C209 1.244 . S
O223 Eu200 2.349 . S
O223 C202 1.265 . S
C224 C225 1.379 . S
C224 C228 1.373 . S
C224 C230 1.505 . S
C225 C224 1.379 . S
C225 C227 1.369 . S
C225 H236 0.930 . S
C226 C228 1.383 . S
C226 C229 1.382 . S
C226 H237 0.930 . S
C227 C225 1.369 . S
C227 C229 1.392 . S
C227 H238 0.930 1_545 S
C228 C224 1.373 . S
C228 C226 1.383 . S
C228 H239 0.931 . S
C229 C226 1.382 . S
C229 C227 1.392 . S
C230 Eu201 2.828 . S
C230 O214 1.249 . S
C230 O215 1.244 . S
C230 C224 1.505 . S
C231 O218 1.258 . S
C231 O219 1.242 . S
H232 C204 0.930 . S
H233 C205 0.930 . S
H234 C206 0.930 . S
H235 C207 0.931 . S
H236 C225 0.930 . S
H237 C226 0.930 . S
H238 C227 0.930 1_565 S
H239 C228 0.931 . S
C240 C241 1.391 . S
C240 C242 1.394 . S
C240 H256 0.931 . S
C241 C240 1.391 . S
C241 C245 1.376 . S
C242 C240 1.394 . S
C242 C243 1.369 . S
C242 C246 1.531 . S
C243 C242 1.369 . S
C243 C244 1.410 . S
C243 C251 1.503 . S
C244 C243 1.410 . S
C244 C245 1.392 . S
C244 C247 1.511 . S
C245 C241 1.376 . S
C245 C244 1.392 . S
C245 H257 0.929 . S
C246 C242 1.531 . S
C246 H258 0.960 . S
C246 H259 0.962 . S
C246 H260 0.960 . S
C247 C244 1.511 . S
C247 H261 0.961 . S
C247 H262 0.961 . S
C247 H263 0.961 . S
C248 C249 1.370 . S
C248 C250 1.363 . S
C248 H264 0.931 . S
C249 C248 1.370 . S
C249 C253 1.408 . S
C250 C248 1.363 . S
C250 C251 1.370 . S
C250 C254 1.524 . S
C251 C243 1.503 . S
C251 C250 1.370 . S
C251 C252 1.403 . S
C252 C251 1.403 . S
C252 C253 1.404 . S
C252 C255 1.539 . S
C253 C249 1.408 . S
C253 C252 1.404 . S
C253 H265 0.930 . S
C254 C250 1.524 . S
C254 H266 0.956 . S
C254 H267 0.961 . S
C254 H268 0.961 . S
C255 C252 1.539 . S
C255 H269 0.958 . S
C255 H270 0.961 . S
C255 H271 0.960 . S
H256 C240 0.931 . S
H257 C245 0.929 . S
H258 C246 0.960 . S
H259 C246 0.962 . S
H260 C246 0.960 . S
H261 C247 0.961 . S
H262 C247 0.961 . S
H263 C247 0.961 . S
H264 C248 0.931 . S
H265 C253 0.930 . S
H266 C254 0.956 . S
H267 C254 0.961 . S
H268 C254 0.961 . S
H269 C255 0.958 . S
H270 C255 0.961 . S
H271 C255 0.960 . S
C272 C273 1.391 . S
C272 C274 1.394 . S
C272 H288 0.931 . S
C273 C272 1.391 . S
C273 C277 1.376 . S
C274 C272 1.394 . S
C274 C275 1.369 . S
C274 C278 1.531 . S
C275 C274 1.369 . S
C275 C276 1.410 . S
C275 C283 1.503 . S
C276 C275 1.410 . S
C276 C277 1.392 . S
C276 C279 1.511 . S
C277 C273 1.376 . S
C277 C276 1.392 . S
C277 H289 0.929 . S
C278 C274 1.531 . S
C278 H290 0.960 . S
C278 H291 0.962 . S
C278 H292 0.960 . S
C279 C276 1.511 . S
C279 H293 0.961 . S
C279 H294 0.961 . S
C279 H295 0.961 . S
C280 C281 1.370 . S
C280 C282 1.363 . S
C280 H296 0.931 . S
C281 C280 1.370 . S
C281 C285 1.408 . S
C282 C280 1.363 . S
C282 C283 1.370 . S
C282 C286 1.524 . S
C283 C275 1.503 . S
C283 C282 1.370 . S
C283 C284 1.403 . S
C284 C283 1.403 . S
C284 C285 1.404 . S
C284 C287 1.539 . S
C285 C281 1.408 . S
C285 C284 1.404 . S
C285 H297 0.930 . S
C286 C282 1.524 . S
C286 H298 0.956 . S
C286 H299 0.961 . S
C286 H300 0.961 . S
C287 C284 1.539 . S
C287 H301 0.958 . S
C287 H302 0.961 . S
C287 H303 0.960 . S
H288 C272 0.931 . S
H289 C277 0.929 . S
H290 C278 0.960 . S
H291 C278 0.962 . S
H292 C278 0.960 . S
H293 C279 0.961 . S
H294 C279 0.961 . S
H295 C279 0.961 . S
H296 C280 0.931 . S
H297 C285 0.930 . S
H298 C286 0.956 . S
H299 C286 0.961 . S
H300 C286 0.961 . S
H301 C287 0.958 . S
H302 C287 0.961 . S
H303 C287 0.960 . S
C304 C305 1.391 . S
C304 C306 1.394 . S
C304 H320 0.931 . S
C305 C304 1.391 . S
C305 C309 1.376 . S
C306 C304 1.394 . S
C306 C307 1.369 . S
C306 C310 1.531 . S
C307 C306 1.369 . S
C307 C308 1.410 . S
C307 C315 1.503 . S
C308 C307 1.410 . S
C308 C309 1.392 . S
C308 C311 1.511 . S
C309 C305 1.376 . S
C309 C308 1.392 . S
C309 H321 0.929 . S
C310 C306 1.531 . S
C310 H322 0.960 . S
C310 H323 0.962 . S
C310 H324 0.960 . S
C311 C308 1.511 . S
C311 H325 0.961 . S
C311 H326 0.961 . S
C311 H327 0.961 . S
C312 C313 1.370 . S
C312 C314 1.363 . S
C312 H328 0.931 . S
C313 C312 1.370 . S
C313 C317 1.408 . S
C314 C312 1.363 . S
C314 C315 1.370 . S
C314 C318 1.524 . S
C315 C307 1.503 . S
C315 C314 1.370 . S
C315 C316 1.403 . S
C316 C315 1.403 . S
C316 C317 1.404 . S
C316 C319 1.539 . S
C317 C313 1.408 . S
C317 C316 1.404 . S
C317 H329 0.930 . S
C318 C314 1.524 . S
C318 H330 0.956 . S
C318 H331 0.961 . S
C318 H332 0.961 . S
C319 C316 1.539 . S
C319 H333 0.958 . S
C319 H334 0.961 . S
C319 H335 0.960 . S
H320 C304 0.931 . S
H321 C309 0.929 . S
H322 C310 0.960 . S
H323 C310 0.962 . S
H324 C310 0.960 . S
H325 C311 0.961 . S
H326 C311 0.961 . S
H327 C311 0.961 . S
H328 C312 0.931 . S
H329 C317 0.930 . S
H330 C318 0.956 . S
H331 C318 0.961 . S
H332 C318 0.961 . S
H333 C319 0.958 . S
H334 C319 0.961 . S
H335 C319 0.960 . S
C336 C337 1.391 . S
C336 C338 1.394 . S
C336 H352 0.931 . S
C337 C336 1.391 . S
C337 C341 1.376 . S
C338 C336 1.394 . S
C338 C339 1.369 . S
C338 C342 1.531 . S
C339 C338 1.369 . S
C339 C340 1.410 . S
C339 C347 1.503 . S
C340 C339 1.410 . S
C340 C341 1.392 . S
C340 C343 1.511 . S
C341 C337 1.376 . S
C341 C340 1.392 . S
C341 H353 0.929 . S
C342 C338 1.531 . S
C342 H354 0.960 . S
C342 H355 0.962 . S
C342 H356 0.960 . S
C343 C340 1.511 . S
C343 H357 0.961 . S
C343 H358 0.961 . S
C343 H359 0.961 . S
C344 C345 1.370 . S
C344 C346 1.363 . S
C344 H360 0.931 . S
C345 C344 1.370 . S
C345 C349 1.408 . S
C346 C344 1.363 . S
C346 C347 1.370 . S
C346 C350 1.524 . S
C347 C339 1.503 . S
C347 C346 1.370 . S
C347 C348 1.403 . S
C348 C347 1.403 . S
C348 C349 1.404 . S
C348 C351 1.539 . S
C349 C345 1.408 . S
C349 C348 1.404 . S
C349 H361 0.930 . S
C350 C346 1.524 . S
C350 H362 0.956 . S
C350 H363 0.961 . S
C350 H364 0.961 . S
C351 C348 1.539 . S
C351 H365 0.958 . S
C351 H366 0.961 . S
C351 H367 0.960 . S
H352 C336 0.931 . S
H353 C341 0.929 . S
H354 C342 0.960 . S
H355 C342 0.962 . S
H356 C342 0.960 . S
H357 C343 0.961 . S
H358 C343 0.961 . S
H359 C343 0.961 . S
H360 C344 0.931 . S
H361 C349 0.930 . S
H362 C350 0.956 . S
H363 C350 0.961 . S
H364 C350 0.961 . S
H365 C351 0.958 . S
H366 C351 0.961 . S
H367 C351 0.960 . S
C368 C369 1.391 . S
C368 C370 1.394 . S
C368 H384 0.931 . S
C369 C368 1.391 . S
C369 C373 1.376 . S
C370 C368 1.394 . S
C370 C371 1.369 . S
C370 C374 1.531 . S
C371 C370 1.369 . S
C371 C372 1.410 . S
C371 C379 1.503 . S
C372 C371 1.410 . S
C372 C373 1.392 . S
C372 C375 1.511 . S
C373 C369 1.376 . S
C373 C372 1.392 . S
C373 H385 0.929 . S
C374 C370 1.531 . S
C374 H386 0.960 . S
C374 H387 0.962 . S
C374 H388 0.960 . S
C375 C372 1.511 . S
C375 H389 0.961 . S
C375 H390 0.961 . S
C375 H391 0.961 . S
C376 C377 1.370 . S
C376 C378 1.363 . S
C376 H392 0.931 . S
C377 C376 1.370 . S
C377 C381 1.408 . S
C378 C376 1.363 . S
C378 C379 1.370 . S
C378 C382 1.524 . S
C379 C371 1.503 . S
C379 C378 1.370 . S
C379 C380 1.403 . S
C380 C379 1.403 . S
C380 C381 1.404 . S
C380 C383 1.539 . S
C381 C377 1.408 . S
C381 C380 1.404 . S
C381 H393 0.930 . S
C382 C378 1.524 . S
C382 H394 0.956 . S
C382 H395 0.961 . S
C382 H396 0.961 . S
C383 C380 1.539 . S
C383 H397 0.958 . S
C383 H398 0.961 . S
C383 H399 0.960 . S
H384 C368 0.931 . S
H385 C373 0.929 . S
H386 C374 0.960 . S
H387 C374 0.962 . S
H388 C374 0.960 . S
H389 C375 0.961 . S
H390 C375 0.961 . S
H391 C375 0.961 . S
H392 C376 0.931 . S
H393 C381 0.930 . S
H394 C382 0.956 . S
H395 C382 0.961 . S
H396 C382 0.961 . S
H397 C383 0.958 . S
H398 C383 0.961 . S
H399 C383 0.960 . S
C400 C401 1.391 . S
C400 C402 1.394 . S
C400 H416 0.931 . S
C401 C400 1.391 . S
C401 C405 1.376 . S
C402 C400 1.394 . S
C402 C403 1.369 . S
C402 C406 1.531 . S
C403 C402 1.369 . S
C403 C404 1.410 . S
C403 C411 1.503 . S
C404 C403 1.410 . S
C404 C405 1.392 . S
C404 C407 1.511 . S
C405 C401 1.376 . S
C405 C404 1.392 . S
C405 H417 0.929 . S
C406 C402 1.531 . S
C406 H418 0.960 . S
C406 H419 0.962 . S
C406 H420 0.960 . S
C407 C404 1.511 . S
C407 H421 0.961 . S
C407 H422 0.961 . S
C407 H423 0.961 . S
C408 C409 1.370 . S
C408 C410 1.363 . S
C408 H424 0.931 . S
C409 C408 1.370 . S
C409 C413 1.408 . S
C410 C408 1.363 . S
C410 C411 1.370 . S
C410 C414 1.524 . S
C411 C403 1.503 . S
C411 C410 1.370 . S
C411 C412 1.403 . S
C412 C411 1.403 . S
C412 C413 1.404 . S
C412 C415 1.539 . S
C413 C409 1.408 . S
C413 C412 1.404 . S
C413 H425 0.930 . S
C414 C410 1.524 . S
C414 H426 0.956 . S
C414 H427 0.961 . S
C414 H428 0.961 . S
C415 C412 1.539 . S
C415 H429 0.958 . S
C415 H430 0.961 . S
C415 H431 0.960 . S
H416 C400 0.931 . S
H417 C405 0.929 . S
H418 C406 0.960 . S
H419 C406 0.962 . S
H420 C406 0.960 . S
H421 C407 0.961 . S
H422 C407 0.961 . S
H423 C407 0.961 . S
H424 C408 0.931 . S
H425 C413 0.930 . S
H426 C414 0.956 . S
H427 C414 0.961 . S
H428 C414 0.961 . S
H429 C415 0.958 . S
H430 C415 0.961 . S
H431 C415 0.960 . S
C432 C433 1.391 . S
C432 C434 1.394 . S
C432 H448 0.931 . S
C433 C432 1.391 . S
C433 C437 1.376 . S
C434 C432 1.394 . S
C434 C435 1.369 . S
C434 C438 1.531 . S
C435 C434 1.369 . S
C435 C436 1.410 . S
C435 C443 1.503 . S
C436 C435 1.410 . S
C436 C437 1.392 . S
C436 C439 1.511 . S
C437 C433 1.376 . S
C437 C436 1.392 . S
C437 H449 0.929 . S
C438 C434 1.531 . S
C438 H450 0.960 . S
C438 H451 0.962 . S
C438 H452 0.960 . S
C439 C436 1.511 . S
C439 H453 0.961 . S
C439 H454 0.961 . S
C439 H455 0.961 . S
C440 C441 1.370 . S
C440 C442 1.363 . S
C440 H456 0.931 . S
C441 C440 1.370 . S
C441 C445 1.408 . S
C442 C440 1.363 . S
C442 C443 1.370 . S
C442 C446 1.524 . S
C443 C435 1.503 . S
C443 C442 1.370 . S
C443 C444 1.403 . S
C444 C443 1.403 . S
C444 C445 1.404 . S
C444 C447 1.539 1_554 S
C445 C441 1.408 . S
C445 C444 1.404 . S
C445 H457 0.930 . S
C446 C442 1.524 . S
C446 H458 0.956 . S
C446 H459 0.961 . S
C446 H460 0.961 . S
C447 C444 1.539 1_556 S
C447 H461 0.958 . S
C447 H462 0.961 . S
C447 H463 0.960 . S
H448 C432 0.931 . S
H449 C437 0.929 . S
H450 C438 0.960 . S
H451 C438 0.962 . S
H452 C438 0.960 . S
H453 C439 0.961 . S
H454 C439 0.961 . S
H455 C439 0.961 . S
H456 C440 0.931 . S
H457 C445 0.930 . S
H458 C446 0.956 . S
H459 C446 0.961 . S
H460 C446 0.961 . S
H461 C447 0.958 . S
H462 C447 0.961 . S
H463 C447 0.960 . S
C464 C465 1.391 . S
C464 C466 1.394 . S
C464 H480 0.931 . S
C465 C464 1.391 . S
C465 C469 1.376 . S
C466 C464 1.394 . S
C466 C467 1.369 . S
C466 C470 1.531 . S
C467 C466 1.369 . S
C467 C468 1.410 1_455 S
C467 C475 1.503 1_455 S
C468 C467 1.410 1_655 S
C468 C469 1.392 1_655 S
C468 C471 1.511 . S
C469 C465 1.376 . S
C469 C468 1.392 1_455 S
C469 H481 0.929 1_455 S
C470 C466 1.531 . S
C470 H482 0.960 . S
C470 H483 0.962 . S
C470 H484 0.960 . S
C471 C468 1.511 . S
C471 H485 0.961 . S
C471 H486 0.961 . S
C471 H487 0.961 . S
C472 C473 1.370 . S
C472 C474 1.363 1_655 S
C472 H488 0.931 1_655 S
C473 C472 1.370 . S
C473 C477 1.408 . S
C474 C472 1.363 1_455 S
C474 C475 1.370 1_455 S
C474 C478 1.524 . S
C475 C467 1.503 1_655 S
C475 C474 1.370 1_655 S
C475 C476 1.403 . S
C476 C475 1.403 . S
C476 C477 1.404 . S
C476 C479 1.539 . S
C477 C473 1.408 . S
C477 C476 1.404 . S
C477 H489 0.930 . S
C478 C474 1.524 . S
C478 H490 0.956 . S
C478 H491 0.961 . S
C478 H492 0.961 . S
C479 C476 1.539 . S
C479 H493 0.958 . S
C479 H494 0.961 . S
C479 H495 0.960 . S
H480 C464 0.931 . S
H481 C469 0.929 1_655 S
H482 C470 0.960 . S
H483 C470 0.962 . S
H484 C470 0.960 . S
H485 C471 0.961 . S
H486 C471 0.961 . S
H487 C471 0.961 . S
H488 C472 0.931 1_455 S
H489 C477 0.930 . S
H490 C478 0.956 . S
H491 C478 0.961 . S
H492 C478 0.961 . S
H493 C479 0.958 . S
H494 C479 0.961 . S
H495 C479 0.960 . S
C496 C497 1.391 . S
C496 C498 1.394 . S
C496 H512 0.931 . S
C497 C496 1.391 . S
C497 C501 1.376 . S
C498 C496 1.394 . S
C498 C499 1.369 . S
C498 C502 1.531 . S
C499 C498 1.369 . S
C499 C500 1.410 1_545 S
C499 C507 1.503 1_545 S
C500 C499 1.410 1_565 S
C500 C501 1.392 1_565 S
C500 C503 1.511 . S
C501 C497 1.376 . S
C501 C500 1.392 1_545 S
C501 H513 0.929 1_545 S
C502 C498 1.531 . S
C502 H514 0.960 . S
C502 H515 0.962 . S
C502 H516 0.960 . S
C503 C500 1.511 . S
C503 H517 0.961 . S
C503 H518 0.961 . S
C503 H519 0.961 . S
C504 C505 1.370 . S
C504 C506 1.363 . S
C504 H520 0.931 . S
C505 C504 1.370 . S
C505 C509 1.408 . S
C506 C504 1.363 . S
C506 C507 1.370 . S
C506 C510 1.524 . S
C507 C499 1.503 1_565 S
C507 C506 1.370 . S
C507 C508 1.403 . S
C508 C507 1.403 . S
C508 C509 1.404 . S
C508 C511 1.539 . S
C509 C505 1.408 . S
C509 C508 1.404 . S
C509 H521 0.930 . S
C510 C506 1.524 . S
C510 H522 0.956 1_565 S
C510 H523 0.961 . S
C510 H524 0.961 . S
C511 C508 1.539 . S
C511 H525 0.958 1_565 S
C511 H526 0.961 . S
C511 H527 0.960 . S
H512 C496 0.931 . S
H513 C501 0.929 1_565 S
H514 C502 0.960 . S
H515 C502 0.962 . S
H516 C502 0.960 . S
H517 C503 0.961 . S
H518 C503 0.961 . S
H519 C503 0.961 . S
H520 C504 0.931 . S
H521 C509 0.930 . S
H522 C510 0.956 1_545 S
H523 C510 0.961 . S
H524 C510 0.961 . S
H525 C511 0.958 1_545 S
H526 C511 0.961 . S
H527 C511 0.960 . S
C528 C529 1.391 . S
C528 C530 1.394 . S
C528 H544 0.931 . S
C529 C528 1.391 . S
C529 C533 1.376 . S
C530 C528 1.394 . S
C530 C531 1.369 . S
C530 C534 1.531 . S
C531 C530 1.369 . S
C531 C532 1.410 . S
C531 C539 1.503 . S
C532 C531 1.410 . S
C532 C533 1.392 . S
C532 C535 1.511 . S
C533 C529 1.376 . S
C533 C532 1.392 . S
C533 H545 0.929 . S
C534 C530 1.531 . S
C534 H546 0.960 . S
C534 H547 0.962 . S
C534 H548 0.960 . S
C535 C532 1.511 . S
C535 H549 0.961 . S
C535 H550 0.961 . S
C535 H551 0.961 . S
C536 C537 1.370 . S
C536 C538 1.363 . S
C536 H552 0.931 . S
C537 C536 1.370 . S
C537 C541 1.408 . S
C538 C536 1.363 . S
C538 C539 1.370 . S
C538 C542 1.524 . S
C539 C531 1.503 . S
C539 C538 1.370 . S
C539 C540 1.403 . S
C540 C539 1.403 . S
C540 C541 1.404 . S
C540 C543 1.539 . S
C541 C537 1.408 . S
C541 C540 1.404 . S
C541 H553 0.930 . S
C542 C538 1.524 . S
C542 H554 0.956 . S
C542 H555 0.961 . S
C542 H556 0.961 . S
C543 C540 1.539 . S
C543 H557 0.958 . S
C543 H558 0.961 . S
C543 H559 0.960 . S
H544 C528 0.931 . S
H545 C533 0.929 . S
H546 C534 0.960 . S
H547 C534 0.962 . S
H548 C534 0.960 . S
H549 C535 0.961 . S
H550 C535 0.961 . S
H551 C535 0.961 . S
H552 C536 0.931 . S
H553 C541 0.930 . S
H554 C542 0.956 . S
H555 C542 0.961 . S
H556 C542 0.961 . S
H557 C543 0.958 . S
H558 C543 0.961 . S
H559 C543 0.960 . S
C560 C561 1.391 . S
C560 C562 1.394 . S
C560 H576 0.931 1_554 S
C561 C560 1.391 . S
C561 C565 1.376 . S
C562 C560 1.394 . S
C562 C563 1.369 . S
C562 C566 1.531 1_554 S
C563 C562 1.369 . S
C563 C564 1.410 1_455 S
C563 C571 1.503 1_455 S
C564 C563 1.410 1_655 S
C564 C565 1.392 1_655 S
C564 C567 1.511 . S
C565 C561 1.376 . S
C565 C564 1.392 1_455 S
C565 H577 0.929 . S
C566 C562 1.531 1_556 S
C566 H578 0.960 . S
C566 H579 0.962 . S
C566 H580 0.960 . S
C567 C564 1.511 . S
C567 H581 0.961 . S
C567 H582 0.961 . S
C567 H583 0.961 . S
C568 C569 1.370 . S
C568 C570 1.378 . S
C568 H584 0.931 . S
C569 C568 1.370 . S
C569 C573 1.408 . S
C570 C568 1.378 . S
C570 C571 1.370 . S
C570 C574 1.510 1_655 S
C571 C563 1.503 1_655 S
C571 C570 1.370 . S
C571 C572 1.403 . S
C572 C571 1.403 . S
C572 C573 1.404 . S
C572 C575 1.539 1_554 S
C573 C569 1.408 . S
C573 C572 1.404 . S
C573 H585 0.927 . S
C574 C570 1.510 1_455 S
C574 H586 0.956 . S
C574 H587 0.961 . S
C574 H588 0.961 . S
C575 C572 1.539 1_556 S
C575 H589 0.958 . S
C575 H590 0.961 . S
C575 H591 0.960 . S
H576 C560 0.931 1_556 S
H577 C565 0.929 . S
H578 C566 0.960 . S
H579 C566 0.962 . S
H580 C566 0.960 . S
H581 C567 0.961 . S
H582 C567 0.961 . S
H583 C567 0.961 . S
H584 C568 0.931 . S
H585 C573 0.927 . S
H586 C574 0.956 . S
H587 C574 0.961 . S
H588 C574 0.961 . S
H589 C575 0.958 . S
H590 C575 0.961 . S
H591 C575 0.960 . S
C592 C593 1.391 . S
C592 C594 1.394 . S
C592 H608 0.931 . S
C593 C592 1.391 . S
C593 C597 1.376 . S
C594 C592 1.394 . S
C594 C595 1.369 . S
C594 C598 1.531 1_565 S
C595 C594 1.369 . S
C595 C596 1.410 . S
C595 C603 1.503 1_565 S
C596 C595 1.410 . S
C596 C597 1.392 . S
C596 C599 1.511 . S
C597 C593 1.376 . S
C597 C596 1.392 . S
C597 H609 0.929 . S
C598 C594 1.531 1_545 S
C598 H610 0.960 . S
C598 H611 0.962 . S
C598 H612 0.960 1_545 S
C599 C596 1.511 . S
C599 H613 0.961 . S
C599 H614 0.961 . S
C599 H615 0.961 . S
C600 C601 1.370 . S
C600 C602 1.363 . S
C600 H616 0.931 . S
C601 C600 1.370 . S
C601 C605 1.408 . S
C602 C600 1.363 . S
C602 C603 1.370 . S
C602 C606 1.524 . S
C603 C595 1.503 1_545 S
C603 C602 1.370 . S
C603 C604 1.403 1_545 S
C604 C603 1.403 1_565 S
C604 C605 1.404 1_565 S
C604 C607 1.539 . S
C605 C601 1.408 . S
C605 C604 1.404 1_545 S
C605 H617 0.930 1_545 S
C606 C602 1.524 . S
C606 H618 0.956 . S
C606 H619 0.961 . S
C606 H620 0.961 . S
C607 C604 1.539 . S
C607 H621 0.958 . S
C607 H622 0.961 . S
C607 H623 0.960 . S
H608 C592 0.931 . S
H609 C597 0.929 . S
H610 C598 0.960 . S
H611 C598 0.962 . S
H612 C598 0.960 1_565 S
H613 C599 0.961 . S
H614 C599 0.961 . S
H615 C599 0.961 . S
H616 C600 0.931 . S
H617 C605 0.930 1_565 S
H618 C606 0.956 . S
H619 C606 0.961 . S
H620 C606 0.961 . S
H621 C607 0.958 . S
H622 C607 0.961 . S
H623 C607 0.960 . S
C624 C625 1.391 . S
C624 C626 1.394 . S
C624 H640 0.931 . S
C625 C624 1.391 . S
C625 C629 1.376 . S
C626 C624 1.394 . S
C626 C627 1.369 . S
C626 C630 1.531 . S
C627 C626 1.369 . S
C627 C628 1.410 . S
C627 C635 1.503 . S
C628 C627 1.410 . S
C628 C629 1.392 . S
C628 C631 1.511 . S
C629 C625 1.376 . S
C629 C628 1.392 . S
C629 H641 0.929 . S
C630 C626 1.531 . S
C630 H642 0.960 . S
C630 H643 0.962 . S
C630 H644 0.960 . S
C631 C628 1.511 . S
C631 H645 0.961 . S
C631 H646 0.961 . S
C631 H647 0.961 . S
C632 C633 1.370 . S
C632 C634 1.363 . S
C632 H648 0.931 . S
C633 C632 1.370 . S
C633 C637 1.408 . S
C634 C632 1.363 . S
C634 C635 1.370 . S
C634 C638 1.524 . S
C635 C627 1.503 . S
C635 C634 1.370 . S
C635 C636 1.403 . S
C636 C635 1.403 . S
C636 C637 1.404 . S
C636 C639 1.539 . S
C637 C633 1.408 . S
C637 C636 1.404 . S
C637 H649 0.930 . S
C638 C634 1.524 . S
C638 H650 0.956 . S
C638 H651 0.961 . S
C638 H652 0.961 . S
C639 C636 1.539 . S
C639 H653 0.958 . S
C639 H654 0.961 . S
C639 H655 0.960 . S
H640 C624 0.931 . S
H641 C629 0.929 . S
H642 C630 0.960 . S
H643 C630 0.962 . S
H644 C630 0.960 . S
H645 C631 0.961 . S
H646 C631 0.961 . S
H647 C631 0.961 . S
H648 C632 0.931 . S
H649 C637 0.930 . S
H650 C638 0.956 . S
H651 C638 0.961 . S
H652 C638 0.961 . S
H653 C639 0.958 . S
H654 C639 0.961 . S
H655 C639 0.960 . S
C656 C657 1.391 1_655 S
C656 C658 1.394 1_655 S
C656 H672 0.931 . S
C657 C656 1.391 1_455 S
C657 C661 1.376 . S
C658 C656 1.394 1_455 S
C658 C659 1.369 . S
C658 C662 1.531 1_455 S
C659 C658 1.369 . S
C659 C660 1.410 . S
C659 C667 1.503 . S
C660 C659 1.410 . S
C660 C661 1.392 . S
C660 C663 1.511 . S
C661 C657 1.376 . S
C661 C660 1.392 . S
C661 H673 0.929 . S
C662 C658 1.531 1_655 S
C662 H674 0.960 1_655 S
C662 H675 0.962 . S
C662 H676 0.960 . S
C663 C660 1.511 . S
C663 H677 0.961 . S
C663 H678 0.961 . S
C663 H679 0.961 . S
C664 C665 1.370 . S
C664 C666 1.363 . S
C664 H680 0.931 . S
C665 C664 1.370 . S
C665 C669 1.408 . S
C666 C664 1.363 . S
C666 C667 1.370 . S
C666 C670 1.524 . S
C667 C659 1.503 . S
C667 C666 1.370 . S
C667 C668 1.403 . S
C668 C667 1.403 . S
C668 C669 1.404 . S
C668 C671 1.539 . S
C669 C665 1.408 . S
C669 C668 1.404 . S
C669 H681 0.930 . S
C670 C666 1.524 . S
C670 H682 0.956 . S
C670 H683 0.961 . S
C670 H684 0.961 . S
C671 C668 1.539 . S
C671 H685 0.958 . S
C671 H686 0.961 . S
C671 H687 0.960 . S
H672 C656 0.931 . S
H673 C661 0.929 . S
H674 C662 0.960 1_455 S
H675 C662 0.962 . S
H676 C662 0.960 . S
H677 C663 0.961 . S
H678 C663 0.961 . S
H679 C663 0.961 . S
H680 C664 0.931 . S
H681 C669 0.930 . S
H682 C670 0.956 . S
H683 C670 0.961 . S
H684 C670 0.961 . S
H685 C671 0.958 . S
H686 C671 0.961 . S
H687 C671 0.960 . S
C688 C689 1.391 1_565 S
C688 C690 1.394 1_565 S
C688 H704 0.931 . S
C689 C688 1.391 1_545 S
C689 C693 1.376 . S
C690 C688 1.394 1_545 S
C690 C691 1.369 . S
C690 C694 1.531 1_545 S
C691 C690 1.369 . S
C691 C692 1.410 . S
C691 C699 1.503 . S
C692 C691 1.410 . S
C692 C693 1.392 . S
C692 C695 1.511 . S
C693 C689 1.376 . S
C693 C692 1.392 . S
C693 H705 0.929 . S
C694 C690 1.531 1_565 S
C694 H706 0.960 . S
C694 H707 0.962 . S
C694 H708 0.960 . S
C695 C692 1.511 . S
C695 H709 0.961 . S
C695 H710 0.961 . S
C695 H711 0.961 . S
C696 C697 1.370 . S
C696 C698 1.363 . S
C696 H712 0.931 . S
C697 C696 1.370 . S
C697 C701 1.408 . S
C698 C696 1.363 . S
C698 C699 1.370 . S
C698 C702 1.524 . S
C699 C691 1.503 . S
C699 C698 1.370 . S
C699 C700 1.403 . S
C700 C699 1.403 . S
C700 C701 1.404 . S
C700 C703 1.539 . S
C701 C697 1.408 . S
C701 C700 1.404 . S
C701 H713 0.930 . S
C702 C698 1.524 . S
C702 H714 0.956 . S
C702 H715 0.961 . S
C702 H716 0.961 . S
C703 C700 1.539 . S
C703 H717 0.958 1_545 S
C703 H718 0.961 . S
C703 H719 0.960 . S
H704 C688 0.931 . S
H705 C693 0.929 . S
H706 C694 0.960 . S
H707 C694 0.962 . S
H708 C694 0.960 . S
H709 C695 0.961 . S
H710 C695 0.961 . S
H711 C695 0.961 . S
H712 C696 0.931 . S
H713 C701 0.930 . S
H714 C702 0.956 . S
H715 C702 0.961 . S
H716 C702 0.961 . S
H717 C703 0.958 1_565 S
H718 C703 0.961 . S
H719 C703 0.960 . S
C720 C721 1.391 . S
C720 C722 1.394 . S
C720 H736 0.931 . S
C721 C720 1.391 . S
C721 C725 1.376 . S
C722 C720 1.394 . S
C722 C723 1.369 . S
C722 C726 1.531 . S
C723 C722 1.369 . S
C723 C724 1.410 . S
C723 C731 1.503 . S
C724 C723 1.410 . S
C724 C725 1.392 . S
C724 C727 1.511 . S
C725 C721 1.376 . S
C725 C724 1.392 . S
C725 H737 0.929 . S
C726 C722 1.531 . S
C726 H738 0.960 . S
C726 H739 0.962 . S
C726 H740 0.960 . S
C727 C724 1.511 . S
C727 H741 0.961 . S
C727 H742 0.961 . S
C727 H743 0.961 . S
C728 C729 1.370 . S
C728 C730 1.363 . S
C728 H744 0.931 . S
C729 C728 1.370 . S
C729 C733 1.408 . S
C730 C728 1.363 . S
C730 C731 1.370 . S
C730 C734 1.524 . S
C731 C723 1.503 . S
C731 C730 1.370 . S
C731 C732 1.403 . S
C732 C731 1.403 . S
C732 C733 1.404 . S
C732 C735 1.539 . S
C733 C729 1.408 . S
C733 C732 1.404 . S
C733 H745 0.930 . S
C734 C730 1.524 . S
C734 H746 0.956 . S
C734 H747 0.961 . S
C734 H748 0.961 . S
C735 C732 1.539 . S
C735 H749 0.958 . S
C735 H750 0.961 . S
C735 H751 0.960 . S
H736 C720 0.931 . S
H737 C725 0.929 . S
H738 C726 0.960 . S
H739 C726 0.962 . S
H740 C726 0.960 . S
H741 C727 0.961 . S
H742 C727 0.961 . S
H743 C727 0.961 . S
H744 C728 0.931 . S
H745 C733 0.930 . S
H746 C734 0.956 . S
H747 C734 0.961 . S
H748 C734 0.961 . S
H749 C735 0.958 . S
H750 C735 0.961 . S
H751 C735 0.960 . S
C752 C753 1.391 . S
C752 C754 1.394 . S
C752 H768 0.931 . S
C753 C752 1.391 . S
C753 C757 1.376 1_655 S
C754 C752 1.394 . S
C754 C755 1.369 . S
C754 C758 1.531 . S
C755 C754 1.369 . S
C755 C756 1.410 . S
C755 C763 1.503 . S
C756 C755 1.410 . S
C756 C757 1.392 1_655 S
C756 C759 1.511 1_655 S
C757 C753 1.376 1_455 S
C757 C756 1.392 1_455 S
C757 H769 0.929 . S
C758 C754 1.531 . S
C758 H770 0.960 . S
C758 H771 0.962 . S
C758 H772 0.960 . S
C759 C756 1.511 1_455 S
C759 H773 0.961 . S
C759 H774 0.961 1_455 S
C759 H775 0.961 . S
C760 C761 1.370 . S
C760 C762 1.363 . S
C760 H776 0.931 . S
C761 C760 1.370 . S
C761 C765 1.408 . S
C762 C760 1.363 . S
C762 C763 1.370 . S
C762 C766 1.524 . S
C763 C755 1.503 . S
C763 C762 1.370 . S
C763 C764 1.403 . S
C764 C763 1.403 . S
C764 C765 1.404 . S
C764 C767 1.539 1_655 S
C765 C761 1.408 . S
C765 C764 1.404 . S
C765 H777 0.930 . S
C766 C762 1.524 . S
C766 H778 0.956 . S
C766 H779 0.961 . S
C766 H780 0.961 . S
C767 C764 1.539 1_455 S
C767 H781 0.958 . S
C767 H782 0.961 . S
C767 H783 0.960 . S
H768 C752 0.931 . S
H769 C757 0.929 . S
H770 C758 0.960 . S
H771 C758 0.962 . S
H772 C758 0.960 . S
H773 C759 0.961 . S
H774 C759 0.961 1_655 S
H775 C759 0.961 . S
H776 C760 0.931 . S
H777 C765 0.930 . S
H778 C766 0.956 . S
H779 C766 0.961 . S
H780 C766 0.961 . S
H781 C767 0.958 . S
H782 C767 0.961 . S
H783 C767 0.960 . S
C784 C785 1.391 1_545 S
C784 C786 1.394 . S
C784 H800 0.931 . S
C785 C784 1.391 1_565 S
C785 C789 1.376 . S
C786 C784 1.394 . S
C786 C787 1.369 1_545 S
C786 C790 1.531 . S
C787 C786 1.369 1_565 S
C787 C788 1.410 . S
C787 C795 1.503 . S
C788 C787 1.410 . S
C788 C789 1.392 . S
C788 C791 1.511 . S
C789 C785 1.376 . S
C789 C788 1.392 . S
C789 H801 0.929 . S
C790 C786 1.531 . S
C790 H802 0.960 . S
C790 H803 0.962 . S
C790 H804 0.960 . S
C791 C788 1.511 . S
C791 H805 0.961 . S
C791 H806 0.961 . S
C791 H807 0.961 . S
C792 C793 1.370 . S
C792 C794 1.363 . S
C792 H808 0.931 . S
C793 C792 1.370 . S
C793 C797 1.408 . S
C794 C792 1.363 . S
C794 C795 1.370 . S
C794 C798 1.524 . S
C795 C787 1.503 . S
C795 C794 1.370 . S
C795 C796 1.403 . S
C796 C795 1.403 . S
C796 C797 1.404 . S
C796 C799 1.539 . S
C797 C793 1.408 . S
C797 C796 1.404 . S
C797 H809 0.930 . S
C798 C794 1.524 . S
C798 H810 0.956 . S
C798 H811 0.961 . S
C798 H812 0.961 . S
C799 C796 1.539 . S
C799 H813 0.958 . S
C799 H814 0.961 . S
C799 H815 0.960 . S
H800 C784 0.931 . S
H801 C789 0.929 . S
H802 C790 0.960 . S
H803 C790 0.962 . S
H804 C790 0.960 . S
H805 C791 0.961 . S
H806 C791 0.961 . S
H807 C791 0.961 . S
H808 C792 0.931 . S
H809 C797 0.930 . S
H810 C798 0.956 . S
H811 C798 0.961 . S
H812 C798 0.961 . S
H813 C799 0.958 . S
H814 C799 0.961 . S
H815 C799 0.960 . S
C241 C172 1.160 . S
C249 C8 1.173 . S
C273 C212 1.168 . S
C281 C48 1.165 . S
C305 C12 1.174 . S
C313 C88 1.166 . S
C337 C52 1.169 . S
C345 C128 1.169 . S
C369 C92 1.176 . S
C377 C168 1.163 . S
C401 C132 1.163 . S
C409 C208 1.168 . S
C433 C17 0.868 . S
C441 C137 0.870 . S
C465 C177 0.922 . S
C473 C57 0.827 . S
C497 C217 0.844 . S
C505 C97 0.855 . S
C529 C82 0.988 . S
C537 C202 1.006 . S
C561 C2 1.005 . S
C569 C122 0.995 . S
C593 C162 0.989 . S
C601 C42 1.007 . S
C625 C231 1.223 . S
C633 C29 1.218 . S
C657 C69 1.195 1_455 S
C665 C31 1.212 . S
C689 C109 1.195 1_545 S
C697 C71 1.210 . S
C721 C111 1.203 . S
C729 C149 1.210 . S
C753 C189 1.215 1_655 S
C761 C151 1.214 . S
C785 C229 1.192 1_565 S
C793 C191 1.211 . S
