# Generated by pormake.
# Topology reo, (8)-cn, num edge types: 1
# Building blocks:
#     Node 0, Type 0, BuildingBlock: GIZVER_clean_sbu_0, # of connection points: 8
#     Node 1, Type 0, BuildingBlock: GIZVER_clean_sbu_0, # of connection points: 8
#     Node 2, Type 0, BuildingBlock: GIZVER_clean_sbu_0, # of connection points: 8
#     Edge 3, Type (0, 0), BuildingBlock: XUDNAN_clean_linker_2, # of connection points: 2
#     Edge 4, Type (0, 0), BuildingBlock: XUDNAN_clean_linker_2, # of connection points: 2
#     Edge 5, Type (0, 0), BuildingBlock: XUDNAN_clean_linker_2, # of connection points: 2
#     Edge 6, Type (0, 0), BuildingBlock: XUDNAN_clean_linker_2, # of connection points: 2
#     Edge 7, Type (0, 0), BuildingBlock: XUDNAN_clean_linker_2, # of connection points: 2
#     Edge 8, Type (0, 0), BuildingBlock: XUDNAN_clean_linker_2, # of connection points: 2
#     Edge 9, Type (0, 0), BuildingBlock: XUDNAN_clean_linker_2, # of connection points: 2
#     Edge 10, Type (0, 0), BuildingBlock: XUDNAN_clean_linker_2, # of connection points: 2
#     Edge 11, Type (0, 0), BuildingBlock: XUDNAN_clean_linker_2, # of connection points: 2
#     Edge 12, Type (0, 0), BuildingBlock: XUDNAN_clean_linker_2, # of connection points: 2
#     Edge 13, Type (0, 0), BuildingBlock: XUDNAN_clean_linker_2, # of connection points: 2
#     Edge 14, Type (0, 0), BuildingBlock: XUDNAN_clean_linker_2, # of connection points: 2
# Relax obj value: 0.091
# Max RMSD: 0.199
# Mean RMSD: 0.142
data_MOF--net-reo--node1-GIZVER_clean_sbu_0--edge1-XUDNAN_clean_linker_2
_symmetry_space_group_name_H-M    P1
_symmetry_Int_Tables_number       1
_symmetry_cell_setting            triclinic
loop_
_symmetry_equiv_pos_as_xyz
'x, y, z'
_cell_length_a     24.253116
_cell_length_b     25.209723
_cell_length_c     25.51459
_cell_angle_alpha  107.51472
_cell_angle_beta   94.317593
_cell_angle_gamma 78.646924
loop_
_atom_site_label
_atom_site_type_symbol
_atom_site_fract_x
_atom_site_fract_y
_atom_site_fract_z
_atom_type_partial_charge
Co0 Co 0.05068 0.98083 0.61758 0.0
Co1 Co 0.12367 1.02399 0.58018 0.0
Co2 Co 1.01461 0.03405 0.50428 0.0
O3 O 0.06747 0.98444 0.54377 0.0
H4 H 0.08361 0.94805 0.51937 0.0
O5 O 0.96113 0.08424 0.46675 0.0
Co6 Co 0.97507 0.08582 0.39329 0.0
Co7 Co 0.90266 0.0469 0.43539 0.0
H8 H 0.94671 0.12119 0.49117 0.0
O9 O 0.192 0.983 0.59142 0.0
O10 O 0.11785 1.01518 0.64865 0.0
O11 O 0.11318 0.10472 0.59282 0.0
O12 O 0.02648 0.10874 0.55753 0.0
O13 O 0.07766 1.03173 0.45365 0.0
O14 O 0.98586 0.0906 0.32689 0.0
O15 O 0.93692 0.15779 0.39508 0.0
O16 O 0.01942 1.01404 0.38261 0.0
O17 O 1.00202 0.95968 0.45113 0.0
O18 O 0.91145 0.96661 0.42707 0.0
O19 O 0.90528 0.05452 0.36572 0.0
O20 O 0.83438 0.08953 0.42657 0.0
C21 C 0.07093 0.92575 0.66644 0.0
C22 C 0.95394 0.04699 0.60422 0.0
C23 C 0.06515 0.13274 0.58609 0.0
C24 C 0.16989 0.98929 0.63821 0.0
C25 C 0.95611 0.14103 0.34491 0.0
C26 C 0.06948 1.01612 0.4011 0.0
C27 C 0.96019 0.93724 0.42822 0.0
C28 C 0.85416 0.08204 0.37842 0.0
O29 O 0.03865 0.97495 0.68308 0.0
O30 O 0.09196 0.90975 0.61701 0.0
O31 O 0.95101 0.03446 0.55172 0.0
O32 O 1.00194 0.05136 0.62758 0.0
Co33 Co 0.6321 1.02052 0.92649 0.0
Co34 Co 0.57661 0.11834 0.98294 0.0
Co35 Co 0.51617 1.03174 1.00528 0.0
O36 O 0.55334 0.04995 0.94649 0.0
H37 H 0.52856 0.05326 0.91571 0.0
O38 O 0.47996 1.01435 0.06463 0.0
Co39 Co 0.40092 0.04125 0.0851 0.0
Co40 Co 0.46109 0.9441 0.02713 0.0
H41 H 0.50498 1.01165 0.09541 0.0
O42 O 0.6041 0.16343 0.94962 0.0
O43 O 0.6532 0.08995 0.97654 0.0
O44 O 0.56468 0.14962 0.06197 0.0
O45 O 0.57235 0.06153 0.06344 0.0
O46 O 0.46348 0.10769 0.02119 0.0
O47 O 0.32965 0.06218 0.10804 0.0
O48 O 0.40262 1.01868 0.1484 0.0
O49 O 0.38675 0.07259 0.02401 0.0
O50 O 0.45995 1.00234 0.9469 0.0
O51 O 0.46574 0.9142 0.94736 0.0
O52 O 0.38525 0.96578 0.04066 0.0
O53 O 0.44823 0.89747 0.06516 0.0
C54 C 0.68422 1.01975 0.86376 0.0
C55 C 0.6212 0.94761 0.98965 0.0
C56 C 0.57974 0.11203 0.08628 0.0
C57 C 0.65109 0.1368 0.96471 0.0
C58 C 0.3487 0.03932 0.14679 0.0
C59 C 0.40957 0.11302 0.02037 0.0
C60 C 0.45046 0.95259 0.92408 0.0
C61 C 0.39669 0.9219 0.05935 0.0
O62 O 0.70252 0.99564 0.90184 0.0
O63 O 0.63221 0.04729 0.86611 0.0
O64 O 0.56738 0.95466 0.9895 0.0
O65 O 0.645 0.98645 0.98469 0.0
Co66 Co 0.99955 0.42307 0.05551 0.0
Co67 Co 0.91858 0.47141 0.99991 0.0
Co68 Co 1.01764 0.53332 1.00747 0.0
O69 O 0.97464 0.49843 0.0479 0.0
H70 H 0.95782 0.52495 0.08106 0.0
O71 O 0.06152 0.56958 0.96841 0.0
Co72 Co 0.03555 0.64517 0.96058 0.0
Co73 Co 0.11322 0.60193 0.01938 0.0
H74 H 0.08021 0.54304 0.93621 0.0
O75 O 0.85574 0.45876 0.02696 0.0
O76 O 0.93844 0.39827 1.00375 0.0
O77 O 0.92185 0.46756 0.92302 0.0
O78 O 1.01162 0.47601 0.93312 0.0
O79 O 0.94492 0.58401 0.99385 0.0
O80 O 1.01557 0.71271 0.94865 0.0
O81 O 0.08127 0.64044 0.90374 0.0
O82 O 0.98256 0.6609 0.01658 0.0
O83 O 0.02217 0.58998 0.08176 0.0
O84 O 0.1088 0.60667 0.09639 0.0
O85 O 0.09232 0.67519 0.01626 0.0
O86 O 0.17731 0.61636 0.99897 0.0
C87 C 0.98181 0.37727 0.10641 0.0
C88 C 0.09459 0.42759 1.00749 0.0
C89 C 0.96993 0.46033 0.90287 0.0
C90 C 0.88653 0.40879 0.01914 0.0
C91 C 0.05313 0.69198 0.91048 0.0
C92 C 0.93911 0.63806 1.00606 0.0
C93 C 0.06078 0.60928 0.11418 0.0
C94 C 0.1468 0.66686 0.01199 0.0
O95 O 1.01745 0.35477 0.0666 0.0
O96 O 0.95656 0.42997 0.11476 0.0
O97 O 0.08991 0.48174 0.02069 0.0
O98 O 0.05036 0.4058 0.99728 0.0
H99 H 0.97428 0.39518 0.21954 0.0
H100 H 0.9564 0.27375 0.06058 0.0
H101 H 0.9346 0.207 0.10593 0.0
H102 H 0.04797 0.29287 0.28191 0.0
H103 H 1.01726 0.32586 0.34877 0.0
H104 H 0.02296 0.36826 0.30456 0.0
H105 H 0.91584 0.4068 0.31168 0.0
H106 H 0.90978 0.36423 0.35578 0.0
H107 H 0.86752 0.35791 0.29374 0.0
H108 H 0.92103 0.15053 0.16647 0.0
H109 H 0.92632 0.10307 0.23847 0.0
H110 H 0.95867 0.25565 0.36147 0.0
C111 C 0.96456 0.35498 0.19454 0.0
C112 C 0.96593 0.34009 0.13632 0.0
C113 C 0.95507 0.28628 0.10505 0.0
C114 C 0.94236 0.24812 0.1305 0.0
C115 C 0.9419 0.26348 0.18772 0.0
C116 C 0.95339 0.31523 0.21962 0.0
C117 C 0.95615 0.31792 0.28036 0.0
C118 C 1.01456 0.32674 0.30536 0.0
C119 C 0.90954 0.3645 0.31228 0.0
C120 C 0.94563 0.2593 0.2773 0.0
C121 C 0.93635 0.22936 0.2233 0.0
C122 C 0.92798 0.17365 0.20889 0.0
C123 C 0.93106 0.147 0.2502 0.0
C124 C 0.94259 0.17554 0.30571 0.0
C125 C 0.94862 0.23308 0.31965 0.0
H126 H 0.84604 1.0316 0.26745 0.0
H127 H 0.77611 0.17849 0.39922 0.0
H128 H 0.70378 0.20829 0.33525 0.0
H129 H 0.81178 0.09891 0.1524 0.0
H130 H 0.7941 0.03481 0.10571 0.0
H131 H 0.84706 1.0311 0.15867 0.0
H132 H 0.79236 0.97031 0.19347 0.0
H133 H 0.7386 0.97466 0.14163 0.0
H134 H 0.71997 0.9974 0.21308 0.0
H135 H 0.63386 0.21774 0.25961 0.0
H136 H 0.56872 0.20271 0.17882 0.0
H137 H 0.67919 0.04562 0.09925 0.0
C138 C 0.81654 0.07093 0.28217 0.0
C139 C 0.81676 0.10315 0.33794 0.0
C140 C 0.7766 0.15347 0.35645 0.0
C141 C 0.73558 0.17085 0.3204 0.0
C142 C 0.73505 0.13721 0.26602 0.0
C143 C 0.77448 0.08827 0.24686 0.0
C144 C 0.76062 0.05638 0.18835 0.0
C145 C 0.80608 0.05525 0.14895 0.0
C146 C 0.75238 0.99615 0.18394 0.0
C147 C 0.70582 0.09342 0.17889 0.0
C148 C 0.69274 0.14082 0.22342 0.0
C149 C 0.64375 0.18092 0.22435 0.0
C150 C 0.60695 0.17205 0.17862 0.0
C151 C 0.6187 0.12269 0.13371 0.0
C152 C 0.66894 0.08329 0.13371 0.0
H153 H 0.05535 0.88123 0.37141 0.0
H154 H 0.88859 0.86106 0.40289 0.0
H155 H 0.90355 0.76631 0.33446 0.0
H156 H 0.04574 0.8274 0.23115 0.0
H157 H 0.11818 0.79269 0.22047 0.0
H158 H 0.09969 0.85321 0.27917 0.0
H159 H 0.1466 0.79572 0.34433 0.0
H160 H 0.16606 0.73477 0.28585 0.0
H161 H 0.12603 0.72965 0.34031 0.0
H162 H 0.93212 0.67958 0.25618 0.0
H163 H 0.96857 0.6104 0.16972 0.0
H164 H 0.11553 0.68885 0.18583 0.0
C165 C 0.02277 0.85598 0.36536 0.0
C166 C 0.97121 0.87781 0.39329 0.0
C167 C 0.92862 0.84467 0.38247 0.0
C168 C 0.93688 0.79081 0.34384 0.0
C169 C 0.98776 0.77104 0.31609 0.0
C170 C 0.02994 0.80272 0.32621 0.0
C171 C 0.07754 0.77525 0.28595 0.0
C172 C 0.08571 0.81446 0.25218 0.0
C173 C 0.1323 0.7578 0.31592 0.0
C174 C 0.05485 0.7239 0.25057 0.0
C175 C 1.00356 0.72173 0.2694 0.0
C176 C 0.97256 0.68043 0.24149 0.0
C177 C 0.99366 0.6413 0.1923 0.0
C178 C 0.0451 0.64392 0.17101 0.0
C179 C 0.07669 0.68495 0.20148 0.0
H180 H 0.34481 0.05716 0.2617 0.0
H181 H 0.25501 0.99885 0.10786 0.0
H182 H 0.18362 0.97605 0.15643 0.0
H183 H 0.30762 0.96151 0.33348 0.0
H184 H 0.29452 1.01542 0.39846 0.0
H185 H 0.3447 1.02008 0.35205 0.0
H186 H 0.29095 0.11984 0.35333 0.0
H187 H 0.24086 0.1156 0.39994 0.0
H188 H 0.21694 0.12963 0.33597 0.0
H189 H 0.12218 0.95875 0.21846 0.0
H190 H 0.06165 0.96397 0.2926 0.0
H191 H 0.17786 0.04682 0.41318 0.0
C192 C 0.31051 0.03874 0.23844 0.0
C193 C 0.30691 1.02758 0.18026 0.0
C194 C 0.25993 1.00597 0.15182 0.0
C195 C 0.21893 0.99291 0.17917 0.0
C196 C 0.22351 1.00393 0.23597 0.0
C197 C 0.26697 1.02783 0.26587 0.0
C198 C 0.25666 0.04158 0.32749 0.0
C199 C 0.30369 1.00763 0.35447 0.0
C200 C 0.25102 0.10547 0.35586 0.0
C201 C 0.2007 1.02189 0.327 0.0
C202 C 0.18383 0.999 0.27333 0.0
C203 C 0.13456 0.97721 0.26068 0.0
C204 C 0.10026 0.98054 0.30358 0.0
C205 C 0.11392 1.0066 0.35938 0.0
C206 C 0.16589 1.02656 0.37127 0.0
H207 H 0.08137 0.80849 0.65155 0.0
H208 H 0.08971 0.96918 0.77423 0.0
H209 H 0.09264 0.92439 0.84763 0.0
H210 H 0.99318 0.76099 0.7229 0.0
H211 H 0.02742 0.6878 0.70539 0.0
H212 H 0.03241 0.72956 0.66035 0.0
H213 H 0.14101 0.70579 0.66577 0.0
H214 H 0.1364 0.66334 0.71039 0.0
H215 H 0.17615 0.71983 0.73201 0.0
H216 H 0.07456 0.87018 0.90717 0.0
H217 H 0.05766 0.8024 0.95331 0.0
H218 H 0.0725 0.66975 0.79774 0.0
C219 C 0.08573 0.83356 0.69379 0.0
C220 C 0.085 0.8927 0.70698 0.0
C221 C 0.08968 0.92415 0.76292 0.0
C222 C 0.09137 0.89906 0.80512 0.0
C223 C 0.08925 0.84176 0.79128 0.0
C224 C 0.08816 0.80866 0.7372 0.0
C225 C 0.08472 0.74809 0.73517 0.0
C226 C 0.03125 0.73059 0.7041 0.0
C227 C 0.13773 0.7068 0.70929 0.0
C228 C 0.082 0.75334 0.79629 0.0
C229 C 0.08408 0.80824 0.82738 0.0
C230 C 0.07542 0.82643 0.88377 0.0
C231 C 0.06555 0.78752 0.90958 0.0
C232 C 0.06603 0.73009 0.87984 0.0
C233 C 0.07439 0.71272 0.82209 0.0
H234 H 0.3568 1.02639 0.90975 0.0
H235 H 0.45172 0.85858 0.83515 0.0
H236 H 0.38278 0.8454 0.75742 0.0
H237 H 0.21655 0.98587 0.86751 0.0
H238 H 0.18764 0.05442 0.85912 0.0
H239 H 0.24277 0.04742 0.90951 0.0
H240 H 0.30231 0.09699 0.86464 0.0
H241 H 0.24748 0.10296 0.81412 0.0
H242 H 0.31779 0.06783 0.79247 0.0
H243 H 0.31021 0.85574 0.68375 0.0
H244 H 0.23781 0.88702 0.62046 0.0
H245 H 0.18482 0.04471 0.74699 0.0
C246 C 0.36303 0.98684 0.87699 0.0
C247 C 0.40997 0.94374 0.8776 0.0
C248 C 0.41618 0.89212 0.83491 0.0
C249 C 0.37714 0.88427 0.79094 0.0
C250 C 0.33137 0.92781 0.79144 0.0
C251 C 0.32368 0.97773 0.83382 0.0
C252 C 0.27133 1.01811 0.82444 0.0
C253 C 0.22694 1.02699 0.86772 0.0
C254 C 0.28562 0.07479 0.82385 0.0
C255 C 0.25279 0.98476 0.76821 0.0
C256 C 0.28757 0.9324 0.75031 0.0
C257 C 0.28201 0.896 0.69777 0.0
C258 C 0.24091 0.9141 0.66214 0.0
C259 C 0.20555 0.96777 0.67936 0.0
C260 C 0.21047 1.00287 0.73352 0.0
H261 H 0.0648 0.38444 0.86224 0.0
H262 H 0.89623 0.4522 0.81552 0.0
H263 H 0.90901 0.38351 0.72283 0.0
H264 H 0.13139 0.3457 0.72531 0.0
H265 H 0.17253 0.28109 0.73423 0.0
H266 H 0.15411 0.34179 0.7932 0.0
H267 H 0.10911 0.28142 0.83803 0.0
H268 H 0.12729 0.22069 0.77941 0.0
H269 H 0.05519 0.2442 0.80084 0.0
H270 H 0.93597 0.30176 0.6394 0.0
H271 H 0.97165 0.20914 0.57391 0.0
H272 H 0.12168 0.19131 0.67595 0.0
C273 C 0.03134 0.38605 0.83183 0.0
C274 C 0.97988 0.42438 0.84554 0.0
C275 C 0.93616 0.42365 0.80551 0.0
C276 C 0.94317 0.38494 0.75277 0.0
C277 C 0.99398 0.34688 0.74086 0.0
C278 C 0.03727 0.34693 0.77935 0.0
C279 C 0.08478 0.2972 0.75862 0.0
C280 C 0.13891 0.31769 0.75247 0.0
C281 C 0.09462 0.25862 0.79646 0.0
C282 C 0.06083 0.26833 0.70301 0.0
C283 C 1.00892 0.29833 0.69319 0.0
C284 C 0.97688 0.27829 0.6463 0.0
C285 C 0.99759 0.22552 0.60927 0.0
C286 C 0.0497 0.19287 0.61942 0.0
C287 C 0.08228 0.21555 0.66629 0.0
H288 H 0.69239 0.09485 0.8033 0.0
H289 H 0.76586 0.92993 0.82191 0.0
H290 H 0.83527 0.91652 0.75148 0.0
H291 H 0.71964 0.05398 0.65088 0.0
H292 H 0.73576 0.12192 0.65493 0.0
H293 H 0.68646 0.11656 0.70178 0.0
H294 H 0.74442 0.16655 0.78162 0.0
H295 H 0.79658 0.17058 0.73726 0.0
H296 H 0.81761 0.13724 0.79079 0.0
H297 H 0.89729 0.91927 0.67883 0.0
H298 H 0.95661 0.94444 0.61874 0.0
H299 H 0.85384 0.11184 0.65302 0.0
C300 C 0.72247 0.05558 0.7917 0.0
C301 C 0.72303 1.01314 0.81813 0.0
C302 C 0.76415 0.96301 0.80251 0.0
C303 C 0.80376 0.95477 0.76214 0.0
C304 C 0.80264 0.99719 0.73733 0.0
C305 C 0.76345 0.04688 0.75155 0.0
C306 C 0.7747 0.08678 0.72043 0.0
C307 C 0.72626 0.09531 0.67958 0.0
C308 C 0.78405 0.14367 0.76001 0.0
C309 C 0.82826 0.05338 0.68991 0.0
C310 C 0.84185 1.00073 0.69844 0.0
C311 C 0.88763 0.96083 0.6728 0.0
C312 C 0.92151 0.97566 0.63913 0.0
C313 C 0.91147 1.03072 0.63306 0.0
C314 C 0.86321 0.06971 0.65774 0.0
H315 H 0.11477 0.31206 0.9882 0.0
H316 H 0.20144 0.45454 0.02696 0.0
H317 H 0.29218 0.38957 0.03006 0.0
H318 H 0.19516 0.24102 0.07707 0.0
H319 H 0.19434 0.17115 0.03097 0.0
H320 H 0.13759 0.22847 0.02873 0.0
H321 H 0.15418 0.2095 0.92486 0.0
H322 H 0.21052 0.15188 0.92719 0.0
H323 H 0.2233 0.20801 0.90232 0.0
H324 H 0.37465 0.30661 0.03105 0.0
H325 H 0.43798 0.21719 0.03324 0.0
H326 H 0.29567 0.13051 0.99592 0.0
C327 C 0.15274 0.32992 0.99695 0.0
C328 C 0.15047 0.38892 1.00718 0.0
C329 C 0.20163 0.40979 0.01878 0.0
C330 C 0.25351 0.37303 0.0206 0.0
C331 C 0.25394 0.31522 0.01077 0.0
C332 C 0.20462 0.29399 0.9992 0.0
C333 C 0.21559 0.23073 0.99186 0.0
C334 C 0.18379 0.21707 0.03472 0.0
C335 C 0.19997 0.19813 0.93305 0.0
C336 C 0.27876 0.21943 1.002 0.0
C337 C 0.3004 0.26847 0.01223 0.0
C338 C 0.35785 0.26816 0.02301 0.0
C339 C 0.39369 0.21695 0.02404 0.0
C340 C 0.37224 0.16639 0.01496 0.0
C341 C 0.31382 0.16813 1.0033 0.0
H342 H 0.15208 0.75427 0.97261 0.0
H343 H 0.20704 0.68336 0.1063 0.0
H344 H 0.26251 0.7588 0.14625 0.0
H345 H 0.27174 0.7812 0.94674 0.0
H346 H 0.24748 0.84836 0.93344 0.0
H347 H 0.20026 0.79962 0.9239 0.0
H348 H 0.12965 0.87601 0.99246 0.0
H349 H 0.17675 0.92501 0.9995 0.0
H350 H 0.1544 0.91185 0.0595 0.0
H351 H 0.32584 0.82597 0.15977 0.0
H352 H 0.39514 0.87945 0.14484 0.0
H353 H 0.29816 0.91014 1.00378 0.0
C354 C 0.17369 0.75674 0.01153 0.0
C355 C 0.17527 0.71431 0.03698 0.0
C356 C 0.20587 0.71611 0.08657 0.0
C357 C 0.23667 0.75909 0.10983 0.0
C358 C 0.23562 0.80002 0.08312 0.0
C359 C 0.2044 0.7997 0.03531 0.0
C360 C 0.21708 0.84329 0.01042 0.0
C361 C 0.23526 0.81646 0.95011 0.0
C362 C 0.16648 0.89194 0.01577 0.0
C363 C 0.2649 0.86312 0.04791 0.0
C364 C 0.27314 0.83959 0.09104 0.0
C365 C 0.31892 0.84604 0.12725 0.0
C366 C 0.35825 0.87589 0.11821 0.0
C367 C 0.35121 0.89877 0.07346 0.0
C368 C 0.30331 0.89387 0.03894 0.0
H369 H 0.7327 0.15284 0.90681 0.0
H370 H 0.66808 0.19193 0.07034 0.0
H371 H 0.73563 0.25636 0.10736 0.0
H372 H 0.8845 0.16362 0.95095 0.0
H373 H 0.89142 0.19448 0.89712 0.0
H374 H 0.84538 0.14401 0.8874 0.0
H375 H 0.75918 0.22012 0.86763 0.0
H376 H 0.80977 0.26504 0.87352 0.0
H377 H 0.74783 0.28965 0.91531 0.0
H378 H 0.78926 0.33321 0.12026 0.0
H379 H 0.83753 0.40777 0.11099 0.0
H380 H 0.87826 0.31078 0.94289 0.0
C381 C 0.73431 0.17391 0.95054 0.0
C382 C 0.69591 0.16835 0.98605 0.0
C383 C 0.69782 0.1963 0.04297 0.0
C384 C 0.73608 0.23254 0.06427 0.0
C385 C 0.77262 0.23892 0.02803 0.0
C386 C 0.77298 0.20948 0.9726 0.0
C387 C 0.81244 0.22816 0.94168 0.0
C388 C 0.86135 0.17969 0.91786 0.0
C389 C 0.78052 0.25216 0.89686 0.0
C390 C 0.83211 0.27439 0.98764 0.0
C391 C 0.80827 0.28038 0.03718 0.0
C392 C 0.8103 0.32762 0.08254 0.0
C393 C 0.83703 0.3699 0.07683 0.0
C394 C 0.86232 0.36342 0.02673 0.0
C395 C 0.86107 0.31482 0.9822 0.0
H396 H 0.91732 0.75237 0.01944 0.0
H397 H 0.83261 0.60968 0.99151 0.0
H398 H 0.74078 0.6733 0.98872 0.0
H399 H 0.81209 0.85948 0.10533 0.0
H400 H 0.8225 0.91312 0.07559 0.0
H401 H 0.87972 0.85643 0.07854 0.0
H402 H 0.89131 0.83148 0.97307 0.0
H403 H 0.83371 0.88782 0.97023 0.0
H404 H 0.8318 0.81659 0.928 0.0
H405 H 0.65648 0.75579 0.98725 0.0
H406 H 0.59218 0.84447 0.98331 0.0
H407 H 0.73496 0.93011 0.01041 0.0
C408 C 0.8796 0.73417 0.01319 0.0
C409 C 0.88266 0.6756 1.006 0.0
C410 C 0.83177 0.65419 0.99736 0.0
C411 C 0.77929 0.69019 0.99577 0.0
C412 C 0.77807 0.74769 1.00273 0.0
C413 C 0.82724 0.76926 0.01116 0.0
C414 C 0.81568 0.83175 0.01526 0.0
C415 C 0.83355 0.86726 0.07206 0.0
C416 C 0.84485 0.84251 0.96888 0.0
C417 C 0.75225 0.84237 1.00772 0.0
C418 C 0.7309 0.79372 1.00089 0.0
C419 C 0.6731 0.79394 0.99265 0.0
C420 C 0.63671 0.84466 0.99064 0.0
C421 C 0.65807 0.89465 0.9964 0.0
C422 C 0.71676 0.89296 1.00565 0.0
loop_
_geom_bond_atom_site_label_1
_geom_bond_atom_site_label_2
_geom_bond_distance
_geom_bond_site_symmetry_2
_ccdc_geom_bond_type
Co0 O3 2.042 . S
Co0 O10 2.264 . S
Co0 O29 2.286 . S
Co0 O30 2.069 . S
Co0 O32 2.015 1_455 S
Co1 O3 2.122 1_545 S
Co1 O9 2.073 1_545 S
Co1 O10 2.327 1_545 S
Co1 O11 1.976 . S
Co2 O3 2.087 1_545 S
Co2 O5 2.087 1_455 S
Co2 O12 2.111 . S
Co2 O13 2.143 . S
Co2 O17 2.111 1_445 S
Co2 O31 2.143 1_445 S
O3 Co0 2.042 . S
O3 Co1 2.122 1_565 S
O3 Co2 2.087 1_565 S
O3 H4 0.980 . S
H4 O3 0.980 . S
O5 Co2 2.087 1_655 S
O5 Co6 2.042 . S
O5 Co7 2.122 1_545 S
O5 H8 0.980 . S
Co6 O5 2.042 . S
Co6 O14 2.286 . S
Co6 O15 2.069 . S
Co6 O16 2.015 1_655 S
Co6 O19 2.264 . S
Co7 O5 2.122 1_565 S
Co7 O18 1.976 . S
Co7 O19 2.327 1_565 S
Co7 O20 2.073 1_565 S
H8 O5 0.980 . S
O9 Co1 2.073 1_565 S
O9 C24 1.245 . S
O10 Co0 2.264 . S
O10 Co1 2.327 1_565 S
O10 C24 1.257 . S
O11 Co1 1.976 . S
O11 C23 1.251 . S
O12 Co2 2.111 . S
O12 C23 1.274 . S
O13 Co2 2.143 . S
O13 C26 1.246 1_545 S
O14 Co6 2.286 . S
O14 C25 1.259 . S
O15 Co6 2.069 . S
O15 C25 1.289 . S
O16 Co6 2.015 1_455 S
O16 C26 1.257 1_545 S
O17 Co2 2.111 1_665 S
O17 C27 1.274 . S
O18 Co7 1.976 . S
O18 C27 1.251 . S
O19 Co6 2.264 . S
O19 Co7 2.327 1_545 S
O19 C28 1.257 . S
O20 Co7 2.073 1_545 S
O20 C28 1.245 . S
C21 O29 1.259 . S
C21 O30 1.289 . S
C22 O31 1.246 1_545 S
C22 O32 1.257 1_545 S
C23 O11 1.251 . S
C23 O12 1.274 . S
C24 O9 1.245 . S
C24 O10 1.257 . S
C25 O14 1.259 . S
C25 O15 1.289 . S
C26 O13 1.246 1_565 S
C26 O16 1.257 1_565 S
C27 O17 1.274 . S
C27 O18 1.251 . S
C28 O19 1.257 . S
C28 O20 1.245 . S
O29 Co0 2.286 . S
O29 C21 1.259 . S
O30 Co0 2.069 . S
O30 C21 1.289 . S
O31 Co2 2.143 1_665 S
O31 C22 1.246 1_565 S
O32 Co0 2.015 1_655 S
O32 C22 1.257 1_565 S
Co33 O36 2.042 . S
Co33 O43 2.264 . S
Co33 O62 2.286 1_545 S
Co33 O63 2.069 . S
Co33 O65 2.015 1_545 S
Co34 O36 2.122 1_554 S
Co34 O42 2.073 . S
Co34 O43 2.327 1_554 S
Co34 O44 1.976 . S
Co35 O36 2.087 1_554 S
Co35 O38 2.087 1_545 S
Co35 O45 2.111 . S
Co35 O46 2.143 . S
Co35 O50 2.111 1_544 S
Co35 O64 2.143 1_544 S
O36 Co33 2.042 . S
O36 Co34 2.122 1_556 S
O36 Co35 2.087 1_556 S
O36 H37 0.980 . S
H37 O36 0.980 . S
O38 Co35 2.087 1_565 S
O38 Co39 2.042 . S
O38 Co40 2.122 1_554 S
O38 H41 0.980 . S
Co39 O38 2.042 . S
Co39 O47 2.286 1_565 S
Co39 O48 2.069 . S
Co39 O49 2.015 1_565 S
Co39 O52 2.264 . S
Co40 O38 2.122 1_556 S
Co40 O51 1.976 . S
Co40 O52 2.327 1_556 S
Co40 O53 2.073 . S
H41 O38 0.980 . S
O42 Co34 2.073 . S
O42 C57 1.245 1_554 S
O43 Co33 2.264 . S
O43 Co34 2.327 1_556 S
O43 C57 1.257 . S
O44 Co34 1.976 . S
O44 C56 1.251 . S
O45 Co35 2.111 . S
O45 C56 1.274 . S
O46 Co35 2.143 . S
O46 C59 1.246 . S
O47 Co39 2.286 1_545 S
O47 C58 1.259 1_545 S
O48 Co39 2.069 . S
O48 C58 1.289 . S
O49 Co39 2.015 1_545 S
O49 C59 1.257 . S
O50 Co35 2.111 1_566 S
O50 C60 1.274 . S
O51 Co40 1.976 . S
O51 C60 1.251 . S
O52 Co39 2.264 . S
O52 Co40 2.327 1_554 S
O52 C61 1.257 . S
O53 Co40 2.073 . S
O53 C61 1.245 1_556 S
C54 O62 1.259 1_545 S
C54 O63 1.289 . S
C55 O64 1.246 . S
C55 O65 1.257 . S
C56 O44 1.251 . S
C56 O45 1.274 . S
C57 O42 1.245 1_556 S
C57 O43 1.257 . S
C58 O47 1.259 1_565 S
C58 O48 1.289 . S
C59 O46 1.246 . S
C59 O49 1.257 . S
C60 O50 1.274 . S
C60 O51 1.251 . S
C61 O52 1.257 . S
C61 O53 1.245 1_554 S
O62 Co33 2.286 1_565 S
O62 C54 1.259 1_565 S
O63 Co33 2.069 . S
O63 C54 1.289 . S
O64 Co35 2.143 1_566 S
O64 C55 1.246 . S
O65 Co33 2.015 1_565 S
O65 C55 1.257 . S
Co66 O69 2.042 . S
Co66 O76 2.264 . S
Co66 O95 2.286 1_655 S
Co66 O96 2.069 . S
Co66 O98 2.015 1_655 S
Co67 O69 2.122 1_556 S
Co67 O75 2.073 1_556 S
Co67 O76 2.327 1_556 S
Co67 O77 1.976 . S
Co68 O69 2.087 1_455 S
Co68 O71 2.087 1_554 S
Co68 O78 2.111 1_454 S
Co68 O79 2.143 1_454 S
Co68 O83 2.111 . S
Co68 O97 2.143 . S
O69 Co66 2.042 . S
O69 Co67 2.122 1_554 S
O69 Co68 2.087 1_655 S
O69 H70 0.980 . S
H70 O69 0.980 . S
O71 Co68 2.087 1_556 S
O71 Co72 2.042 . S
O71 Co73 2.122 1_556 S
O71 H74 0.980 . S
Co72 O71 2.042 . S
Co72 O80 2.286 1_455 S
Co72 O81 2.069 . S
Co72 O82 2.015 1_455 S
Co72 O85 2.264 . S
Co73 O71 2.122 1_554 S
Co73 O84 1.976 . S
Co73 O85 2.327 1_554 S
Co73 O86 2.073 1_554 S
H74 O71 0.980 . S
O75 Co67 2.073 1_554 S
O75 C90 1.245 . S
O76 Co66 2.264 . S
O76 Co67 2.327 1_554 S
O76 C90 1.257 . S
O77 Co67 1.976 . S
O77 C89 1.251 . S
O78 Co68 2.111 1_656 S
O78 C89 1.274 . S
O79 Co68 2.143 1_656 S
O79 C92 1.249 1_556 S
O80 Co72 2.286 1_655 S
O80 C91 1.259 1_655 S
O81 Co72 2.069 . S
O81 C91 1.289 . S
O82 Co72 2.015 1_655 S
O82 C92 1.247 1_556 S
O83 Co68 2.111 . S
O83 C93 1.274 . S
O84 Co73 1.976 . S
O84 C93 1.251 . S
O85 Co72 2.264 . S
O85 Co73 2.327 1_556 S
O85 C94 1.257 . S
O86 Co73 2.073 1_556 S
O86 C94 1.245 . S
C87 O95 1.259 1_655 S
C87 O96 1.289 . S
C88 O97 1.248 1_556 S
C88 O98 1.250 1_556 S
C89 O77 1.251 . S
C89 O78 1.274 . S
C90 O75 1.245 . S
C90 O76 1.257 . S
C91 O80 1.259 1_455 S
C91 O81 1.289 . S
C92 O79 1.249 1_554 S
C92 O82 1.247 1_554 S
C93 O83 1.274 . S
C93 O84 1.251 . S
C94 O85 1.257 . S
C94 O86 1.245 . S
O95 Co66 2.286 1_455 S
O95 C87 1.259 1_455 S
O96 Co66 2.069 . S
O96 C87 1.289 . S
O97 Co68 2.143 . S
O97 C88 1.248 1_554 S
O98 Co66 2.015 1_455 S
O98 C88 1.250 1_554 S
H99 C111 0.930 . S
H100 C113 0.930 . S
H101 C114 0.930 . S
H102 C118 0.959 . S
H103 C118 0.959 . S
H104 C118 0.961 . S
H105 C119 0.960 . S
H106 C119 0.961 . S
H107 C119 0.959 . S
H108 C122 0.929 . S
H109 C123 0.931 . S
H110 C125 0.930 . S
C111 H99 0.930 . S
C111 C112 1.399 . S
C111 C116 1.399 . S
C112 C111 1.399 . S
C112 C113 1.376 . S
C113 H100 0.930 . S
C113 C112 1.376 . S
C113 C114 1.388 . S
C114 H101 0.930 . S
C114 C113 1.388 . S
C114 C115 1.390 . S
C115 C114 1.390 . S
C115 C116 1.394 . S
C115 C121 1.465 . S
C116 C111 1.399 . S
C116 C115 1.394 . S
C116 C117 1.516 . S
C117 C116 1.516 . S
C117 C118 1.502 1_655 S
C117 C119 1.561 . S
C117 C120 1.526 . S
C118 H102 0.959 . S
C118 H103 0.959 . S
C118 H104 0.961 . S
C118 C117 1.502 1_455 S
C119 H105 0.960 . S
C119 H106 0.961 . S
C119 H107 0.959 . S
C119 C117 1.561 . S
C120 C117 1.526 . S
C120 C121 1.396 . S
C120 C125 1.390 . S
C121 C115 1.465 . S
C121 C120 1.396 . S
C121 C122 1.399 . S
C122 H108 0.929 . S
C122 C121 1.399 . S
C122 C123 1.385 . S
C123 H109 0.931 . S
C123 C122 1.385 . S
C123 C124 1.389 . S
C124 C123 1.389 . S
C124 C125 1.387 . S
C125 H110 0.930 . S
C125 C120 1.390 . S
C125 C124 1.387 . S
H126 C138 0.930 . S
H127 C140 0.930 . S
H128 C141 0.930 . S
H129 C145 0.959 . S
H130 C145 0.959 . S
H131 C145 0.961 . S
H132 C146 0.960 . S
H133 C146 0.961 . S
H134 C146 0.959 . S
H135 C149 0.929 . S
H136 C150 0.931 . S
H137 C152 0.930 . S
C138 H126 0.930 . S
C138 C139 1.399 . S
C138 C143 1.399 . S
C139 C138 1.399 . S
C139 C140 1.376 1_545 S
C140 H127 0.930 . S
C140 C139 1.376 1_565 S
C140 C141 1.388 . S
C141 H128 0.930 . S
C141 C140 1.388 . S
C141 C142 1.390 1_565 S
C142 C141 1.390 1_545 S
C142 C143 1.394 . S
C142 C148 1.465 1_545 S
C143 C138 1.399 . S
C143 C142 1.394 . S
C143 C144 1.516 . S
C144 C143 1.516 . S
C144 C145 1.502 . S
C144 C146 1.561 . S
C144 C147 1.526 . S
C145 H129 0.959 . S
C145 H130 0.959 . S
C145 H131 0.961 . S
C145 C144 1.502 . S
C146 H132 0.960 . S
C146 H133 0.961 . S
C146 H134 0.959 . S
C146 C144 1.561 . S
C147 C144 1.526 . S
C147 C148 1.396 1_545 S
C147 C152 1.390 . S
C148 C142 1.465 1_565 S
C148 C147 1.396 1_565 S
C148 C149 1.399 . S
C149 H135 0.929 . S
C149 C148 1.399 . S
C149 C150 1.385 . S
C150 H136 0.931 . S
C150 C149 1.385 . S
C150 C151 1.389 . S
C151 C150 1.389 . S
C151 C152 1.387 1_565 S
C152 H137 0.930 . S
C152 C147 1.390 . S
C152 C151 1.387 1_545 S
H153 C165 0.930 . S
H154 C167 0.930 . S
H155 C168 0.930 . S
H156 C172 0.959 . S
H157 C172 0.959 . S
H158 C172 0.961 . S
H159 C173 0.960 . S
H160 C173 0.961 . S
H161 C173 0.959 . S
H162 C176 0.929 . S
H163 C177 0.931 . S
H164 C179 0.930 1_455 S
C165 H153 0.930 . S
C165 C166 1.399 . S
C165 C170 1.399 . S
C166 C165 1.399 . S
C166 C167 1.376 1_455 S
C167 H154 0.930 . S
C167 C166 1.376 1_655 S
C167 C168 1.388 . S
C168 H155 0.930 . S
C168 C167 1.388 . S
C168 C169 1.390 . S
C169 C168 1.390 . S
C169 C170 1.394 1_655 S
C169 C175 1.465 . S
C170 C165 1.399 . S
C170 C169 1.394 1_455 S
C170 C171 1.516 . S
C171 C170 1.516 . S
C171 C172 1.502 . S
C171 C173 1.561 1_455 S
C171 C174 1.526 1_455 S
C172 H156 0.959 . S
C172 H157 0.959 . S
C172 H158 0.961 . S
C172 C171 1.502 . S
C173 H159 0.960 . S
C173 H160 0.961 . S
C173 H161 0.959 . S
C173 C171 1.561 1_655 S
C174 C171 1.526 1_655 S
C174 C175 1.396 . S
C174 C179 1.390 . S
C175 C169 1.465 . S
C175 C174 1.396 . S
C175 C176 1.399 . S
C176 H162 0.929 . S
C176 C175 1.399 . S
C176 C177 1.385 . S
C177 H163 0.931 . S
C177 C176 1.385 . S
C177 C178 1.389 . S
C178 C177 1.389 . S
C178 C179 1.387 . S
C179 H164 0.930 1_655 S
C179 C174 1.390 . S
C179 C178 1.387 . S
H180 C192 0.930 . S
H181 C194 0.930 . S
H182 C195 0.930 . S
H183 C199 0.959 . S
H184 C199 0.959 . S
H185 C199 0.961 . S
H186 C200 0.960 . S
H187 C200 0.961 . S
H188 C200 0.959 . S
H189 C203 0.929 . S
H190 C204 0.931 . S
H191 C206 0.930 . S
C192 H180 0.930 . S
C192 C193 1.399 1_545 S
C192 C197 1.399 . S
C193 C192 1.399 1_565 S
C193 C194 1.376 . S
C194 H181 0.930 . S
C194 C193 1.376 . S
C194 C195 1.388 . S
C195 H182 0.930 . S
C195 C194 1.388 . S
C195 C196 1.390 . S
C196 C195 1.390 . S
C196 C197 1.394 1_565 S
C196 C202 1.465 . S
C197 C192 1.399 . S
C197 C196 1.394 1_545 S
C197 C198 1.516 . S
C198 C197 1.516 . S
C198 C199 1.502 . S
C198 C200 1.561 . S
C198 C201 1.526 . S
C199 H183 0.959 . S
C199 H184 0.959 . S
C199 H185 0.961 . S
C199 C198 1.502 . S
C200 H186 0.960 . S
C200 H187 0.961 . S
C200 H188 0.959 . S
C200 C198 1.561 . S
C201 C198 1.526 . S
C201 C202 1.396 1_545 S
C201 C206 1.390 . S
C202 C196 1.465 . S
C202 C201 1.396 1_565 S
C202 C203 1.399 . S
C203 H189 0.929 . S
C203 C202 1.399 . S
C203 C204 1.385 . S
C204 H190 0.931 . S
C204 C203 1.385 . S
C204 C205 1.389 . S
C205 C204 1.389 . S
C205 C206 1.387 1_565 S
C206 H191 0.930 . S
C206 C201 1.390 . S
C206 C205 1.387 1_545 S
H207 C219 0.930 . S
H208 C221 0.930 . S
H209 C222 0.930 . S
H210 C226 0.959 . S
H211 C226 0.959 . S
H212 C226 0.961 . S
H213 C227 0.960 . S
H214 C227 0.961 . S
H215 C227 0.959 . S
H216 C230 0.929 . S
H217 C231 0.931 . S
H218 C233 0.930 . S
C219 H207 0.930 . S
C219 C220 1.399 . S
C219 C224 1.399 . S
C220 C219 1.399 . S
C220 C221 1.376 . S
C221 H208 0.930 . S
C221 C220 1.376 . S
C221 C222 1.388 . S
C222 H209 0.930 . S
C222 C221 1.388 . S
C222 C223 1.390 . S
C223 C222 1.390 . S
C223 C224 1.394 . S
C223 C229 1.465 . S
C224 C219 1.399 . S
C224 C223 1.394 . S
C224 C225 1.516 . S
C225 C224 1.516 . S
C225 C226 1.502 1_455 S
C225 C227 1.561 . S
C225 C228 1.526 . S
C226 H210 0.959 . S
C226 H211 0.959 . S
C226 H212 0.961 . S
C226 C225 1.502 1_655 S
C227 H213 0.960 . S
C227 H214 0.961 . S
C227 H215 0.959 . S
C227 C225 1.561 . S
C228 C225 1.526 . S
C228 C229 1.396 . S
C228 C233 1.390 . S
C229 C223 1.465 . S
C229 C228 1.396 . S
C229 C230 1.399 . S
C230 H216 0.929 . S
C230 C229 1.399 . S
C230 C231 1.385 . S
C231 H217 0.931 . S
C231 C230 1.385 . S
C231 C232 1.389 . S
C232 C231 1.389 . S
C232 C233 1.387 . S
C233 H218 0.930 . S
C233 C228 1.390 . S
C233 C232 1.387 . S
H234 C246 0.930 . S
H235 C248 0.930 . S
H236 C249 0.930 . S
H237 C253 0.959 . S
H238 C253 0.959 . S
H239 C253 0.961 . S
H240 C254 0.960 . S
H241 C254 0.961 . S
H242 C254 0.959 . S
H243 C257 0.929 . S
H244 C258 0.931 . S
H245 C260 0.930 . S
C246 H234 0.930 . S
C246 C247 1.393 1_565 S
C246 C251 1.399 . S
C247 C246 1.393 1_545 S
C247 C248 1.384 . S
C248 H235 0.930 . S
C248 C247 1.384 . S
C248 C249 1.388 . S
C249 H236 0.930 . S
C249 C248 1.388 . S
C249 C250 1.390 . S
C250 C249 1.390 . S
C250 C251 1.394 1_545 S
C250 C256 1.465 1_545 S
C251 C246 1.399 . S
C251 C250 1.394 1_565 S
C251 C252 1.516 . S
C252 C251 1.516 . S
C252 C253 1.502 . S
C252 C254 1.561 . S
C252 C255 1.526 . S
C253 H237 0.959 . S
C253 H238 0.959 . S
C253 H239 0.961 . S
C253 C252 1.502 . S
C254 H240 0.960 . S
C254 H241 0.961 . S
C254 H242 0.959 . S
C254 C252 1.561 . S
C255 C252 1.526 . S
C255 C256 1.396 . S
C255 C260 1.390 . S
C256 C250 1.465 1_565 S
C256 C255 1.396 . S
C256 C257 1.399 1_565 S
C257 H243 0.929 . S
C257 C256 1.399 1_545 S
C257 C258 1.385 . S
C258 H244 0.931 . S
C258 C257 1.385 . S
C258 C259 1.389 1_545 S
C259 C258 1.389 1_565 S
C259 C260 1.387 . S
C260 H245 0.930 . S
C260 C255 1.390 . S
C260 C259 1.387 . S
H261 C273 0.930 . S
H262 C275 0.930 . S
H263 C276 0.930 . S
H264 C280 0.959 . S
H265 C280 0.959 . S
H266 C280 0.961 . S
H267 C281 0.960 . S
H268 C281 0.961 . S
H269 C281 0.959 . S
H270 C284 0.929 . S
H271 C285 0.931 . S
H272 C287 0.930 . S
C273 H261 0.930 . S
C273 C274 1.399 . S
C273 C278 1.399 . S
C274 C273 1.399 . S
C274 C275 1.376 1_455 S
C275 H262 0.930 . S
C275 C274 1.376 1_655 S
C275 C276 1.388 . S
C276 H263 0.930 . S
C276 C275 1.388 . S
C276 C277 1.390 . S
C277 C276 1.390 . S
C277 C278 1.394 1_655 S
C277 C283 1.465 . S
C278 C273 1.399 . S
C278 C277 1.394 1_455 S
C278 C279 1.516 . S
C279 C278 1.516 . S
C279 C280 1.502 . S
C279 C281 1.561 . S
C279 C282 1.526 . S
C280 H264 0.959 . S
C280 H265 0.959 . S
C280 H266 0.961 . S
C280 C279 1.502 . S
C281 H267 0.960 . S
C281 H268 0.961 . S
C281 H269 0.959 . S
C281 C279 1.561 . S
C282 C279 1.526 . S
C282 C283 1.396 1_455 S
C282 C287 1.390 . S
C283 C277 1.465 . S
C283 C282 1.396 1_655 S
C283 C284 1.399 . S
C284 H270 0.929 . S
C284 C283 1.399 . S
C284 C285 1.385 . S
C285 H271 0.931 . S
C285 C284 1.385 . S
C285 C286 1.389 . S
C286 C285 1.389 . S
C286 C287 1.387 1_655 S
C287 H272 0.930 . S
C287 C282 1.390 . S
C287 C286 1.387 1_455 S
H288 C300 0.930 . S
H289 C302 0.930 . S
H290 C303 0.930 . S
H291 C307 0.959 . S
H292 C307 0.959 . S
H293 C307 0.961 . S
H294 C308 0.960 . S
H295 C308 0.961 . S
H296 C308 0.959 . S
H297 C311 0.929 . S
H298 C312 0.931 . S
H299 C314 0.930 . S
C300 H288 0.930 . S
C300 C301 1.399 . S
C300 C305 1.399 . S
C301 C300 1.399 . S
C301 C302 1.376 1_545 S
C302 H289 0.930 . S
C302 C301 1.376 1_565 S
C302 C303 1.388 . S
C303 H290 0.930 . S
C303 C302 1.388 . S
C303 C304 1.392 . S
C304 C303 1.392 . S
C304 C305 1.392 1_565 S
C304 C310 1.465 1_565 S
C305 C300 1.399 . S
C305 C304 1.392 1_545 S
C305 C306 1.516 . S
C306 C305 1.516 . S
C306 C307 1.502 . S
C306 C308 1.561 . S
C306 C309 1.526 . S
C307 H291 0.959 . S
C307 H292 0.959 . S
C307 H293 0.961 . S
C307 C306 1.502 . S
C308 H294 0.960 . S
C308 H295 0.961 . S
C308 H296 0.959 . S
C308 C306 1.561 . S
C309 C306 1.526 . S
C309 C310 1.395 . S
C309 C314 1.390 . S
C310 C304 1.465 1_545 S
C310 C309 1.395 . S
C310 C311 1.399 1_545 S
C311 H297 0.929 . S
C311 C310 1.399 1_565 S
C311 C312 1.385 . S
C312 H298 0.931 . S
C312 C311 1.385 . S
C312 C313 1.389 1_565 S
C313 C312 1.389 1_545 S
C313 C314 1.387 . S
C314 H299 0.930 . S
C314 C309 1.390 . S
C314 C313 1.387 . S
H315 C327 0.930 . S
H316 C329 0.930 . S
H317 C330 0.930 . S
H318 C334 0.959 . S
H319 C334 0.959 . S
H320 C334 0.961 . S
H321 C335 0.960 . S
H322 C335 0.961 . S
H323 C335 0.959 . S
H324 C338 0.929 . S
H325 C339 0.931 . S
H326 C341 0.930 . S
C327 H315 0.930 . S
C327 C328 1.399 . S
C327 C332 1.399 . S
C328 C327 1.399 . S
C328 C329 1.376 1_556 S
C329 H316 0.930 . S
C329 C328 1.376 1_554 S
C329 C330 1.388 . S
C330 H317 0.930 . S
C330 C329 1.388 . S
C330 C331 1.390 . S
C331 C330 1.390 . S
C331 C332 1.394 1_554 S
C331 C337 1.465 . S
C332 C327 1.399 . S
C332 C331 1.394 1_556 S
C332 C333 1.516 . S
C333 C332 1.516 . S
C333 C334 1.502 . S
C333 C335 1.561 . S
C333 C336 1.526 . S
C334 H318 0.959 . S
C334 H319 0.959 . S
C334 H320 0.961 . S
C334 C333 1.502 . S
C335 H321 0.960 . S
C335 H322 0.961 . S
C335 H323 0.959 . S
C335 C333 1.561 . S
C336 C333 1.526 . S
C336 C337 1.396 1_556 S
C336 C341 1.390 . S
C337 C331 1.465 . S
C337 C336 1.396 1_554 S
C337 C338 1.399 . S
C338 H324 0.929 . S
C338 C337 1.399 . S
C338 C339 1.385 . S
C339 H325 0.931 . S
C339 C338 1.385 . S
C339 C340 1.389 . S
C340 C339 1.389 . S
C340 C341 1.387 1_554 S
C341 H326 0.930 . S
C341 C336 1.390 . S
C341 C340 1.387 1_556 S
H342 C354 0.930 . S
H343 C356 0.930 . S
H344 C357 0.930 . S
H345 C361 0.959 . S
H346 C361 0.959 . S
H347 C361 0.961 . S
H348 C362 0.960 . S
H349 C362 0.961 . S
H350 C362 0.959 . S
H351 C365 0.929 . S
H352 C366 0.931 . S
H353 C368 0.930 . S
C354 H342 0.930 . S
C354 C355 1.399 . S
C354 C359 1.399 . S
C355 C354 1.399 . S
C355 C356 1.376 1_556 S
C356 H343 0.930 . S
C356 C355 1.376 1_554 S
C356 C357 1.388 . S
C357 H344 0.930 . S
C357 C356 1.388 . S
C357 C358 1.390 . S
C358 C357 1.390 . S
C358 C359 1.394 1_554 S
C358 C364 1.465 . S
C359 C354 1.399 . S
C359 C358 1.394 1_556 S
C359 C360 1.516 . S
C360 C359 1.516 . S
C360 C361 1.502 . S
C360 C362 1.561 . S
C360 C363 1.526 . S
C361 H345 0.959 . S
C361 H346 0.959 . S
C361 H347 0.961 . S
C361 C360 1.502 . S
C362 H348 0.960 . S
C362 H349 0.961 . S
C362 H350 0.959 . S
C362 C360 1.561 . S
C363 C360 1.526 . S
C363 C364 1.396 1_556 S
C363 C368 1.390 . S
C364 C358 1.465 . S
C364 C363 1.396 1_554 S
C364 C365 1.399 . S
C365 H351 0.929 . S
C365 C364 1.399 . S
C365 C366 1.385 . S
C366 H352 0.931 . S
C366 C365 1.385 . S
C366 C367 1.389 . S
C367 C366 1.389 . S
C367 C368 1.387 1_554 S
C368 H353 0.930 . S
C368 C363 1.390 . S
C368 C367 1.387 1_556 S
H369 C381 0.930 . S
H370 C383 0.930 . S
H371 C384 0.930 . S
H372 C388 0.959 . S
H373 C388 0.959 . S
H374 C388 0.961 . S
H375 C389 0.960 . S
H376 C389 0.961 . S
H377 C389 0.959 . S
H378 C392 0.929 . S
H379 C393 0.931 . S
H380 C395 0.930 . S
C381 H369 0.930 . S
C381 C382 1.399 . S
C381 C386 1.399 . S
C382 C381 1.399 . S
C382 C383 1.376 1_556 S
C383 H370 0.930 . S
C383 C382 1.376 1_554 S
C383 C384 1.388 . S
C384 H371 0.930 . S
C384 C383 1.388 . S
C384 C385 1.390 . S
C385 C384 1.390 . S
C385 C386 1.394 1_554 S
C385 C391 1.465 . S
C386 C381 1.399 . S
C386 C385 1.394 1_556 S
C386 C387 1.516 . S
C387 C386 1.516 . S
C387 C388 1.502 . S
C387 C389 1.561 . S
C387 C390 1.526 . S
C388 H372 0.959 . S
C388 H373 0.959 . S
C388 H374 0.961 . S
C388 C387 1.502 . S
C389 H375 0.960 . S
C389 H376 0.961 . S
C389 H377 0.959 . S
C389 C387 1.561 . S
C390 C387 1.526 . S
C390 C391 1.396 1_556 S
C390 C395 1.390 . S
C391 C385 1.465 . S
C391 C390 1.396 1_554 S
C391 C392 1.399 . S
C392 H378 0.929 . S
C392 C391 1.399 . S
C392 C393 1.385 . S
C393 H379 0.931 . S
C393 C392 1.385 . S
C393 C394 1.389 . S
C394 C393 1.389 . S
C394 C395 1.387 1_554 S
C395 H380 0.930 . S
C395 C390 1.390 . S
C395 C394 1.387 1_556 S
H396 C408 0.930 . S
H397 C410 0.930 . S
H398 C411 0.930 . S
H399 C415 0.959 . S
H400 C415 0.959 . S
H401 C415 0.961 . S
H402 C416 0.960 . S
H403 C416 0.961 . S
H404 C416 0.959 . S
H405 C419 0.929 . S
H406 C420 0.931 . S
H407 C422 0.930 . S
C408 H396 0.930 . S
C408 C409 1.399 . S
C408 C413 1.399 . S
C409 C408 1.399 . S
C409 C410 1.376 1_554 S
C410 H397 0.930 . S
C410 C409 1.376 1_556 S
C410 C411 1.388 . S
C411 H398 0.930 . S
C411 C410 1.388 . S
C411 C412 1.390 . S
C412 C411 1.390 . S
C412 C413 1.394 1_556 S
C412 C418 1.465 . S
C413 C408 1.399 . S
C413 C412 1.394 1_554 S
C413 C414 1.516 . S
C414 C413 1.516 . S
C414 C415 1.502 . S
C414 C416 1.561 . S
C414 C417 1.526 . S
C415 H399 0.959 . S
C415 H400 0.959 . S
C415 H401 0.961 . S
C415 C414 1.502 . S
C416 H402 0.960 . S
C416 H403 0.961 . S
C416 H404 0.959 . S
C416 C414 1.561 . S
C417 C414 1.526 . S
C417 C418 1.396 1_554 S
C417 C422 1.390 . S
C418 C412 1.465 . S
C418 C417 1.396 1_556 S
C418 C419 1.399 . S
C419 H405 0.929 . S
C419 C418 1.399 . S
C419 C420 1.385 . S
C420 H406 0.931 . S
C420 C419 1.385 . S
C420 C421 1.389 . S
C421 C420 1.389 . S
C421 C422 1.387 1_556 S
C422 H407 0.930 . S
C422 C417 1.390 . S
C422 C421 1.387 1_554 S
C112 C87 1.732 . S
C124 C25 1.682 . S
C139 C28 1.126 . S
C151 C56 1.222 1_565 S
C166 C27 1.062 1_455 S
C178 C93 1.133 1_655 S
C193 C58 1.960 . S
C205 C26 1.835 . S
C220 C21 1.699 . S
C232 C91 1.731 . S
C247 C60 1.194 1_545 S
C259 C24 1.119 . S
C274 C89 1.049 1_455 S
C286 C23 1.194 1_655 S
C301 C54 1.948 . S
C313 C22 1.789 . S
C328 C88 2.039 . S
C340 C59 2.116 . S
C355 C94 1.059 . S
C367 C61 1.177 . S
C382 C57 1.044 . S
C394 C90 1.177 . S
C409 C92 2.026 . S
C421 C55 2.111 . S
