# Generated by pormake.
# Topology uoz, (4)-cn, num edge types: 1
# Building blocks:
#     Node 0, Type 0, BuildingBlock: NAHDIM_clean_sbu_0, # of connection points: 4
#     Node 1, Type 0, BuildingBlock: NAHDIM_clean_sbu_0, # of connection points: 4
#     Node 2, Type 0, BuildingBlock: NAHDIM_clean_sbu_0, # of connection points: 4
#     Node 3, Type 0, BuildingBlock: NAHDIM_clean_sbu_0, # of connection points: 4
#     Node 4, Type 0, BuildingBlock: NAHDIM_clean_sbu_0, # of connection points: 4
#     Node 5, Type 0, BuildingBlock: NAHDIM_clean_sbu_0, # of connection points: 4
#     Node 6, Type 0, BuildingBlock: NAHDIM_clean_sbu_0, # of connection points: 4
#     Node 7, Type 0, BuildingBlock: NAHDIM_clean_sbu_0, # of connection points: 4
#     Node 8, Type 0, BuildingBlock: NAHDIM_clean_sbu_0, # of connection points: 4
#     Node 9, Type 0, BuildingBlock: NAHDIM_clean_sbu_0, # of connection points: 4
#     Node 10, Type 0, BuildingBlock: NAHDIM_clean_sbu_0, # of connection points: 4
#     Node 11, Type 0, BuildingBlock: NAHDIM_clean_sbu_0, # of connection points: 4
#     Node 12, Type 0, BuildingBlock: NAHDIM_clean_sbu_0, # of connection points: 4
#     Node 13, Type 0, BuildingBlock: NAHDIM_clean_sbu_0, # of connection points: 4
#     Node 14, Type 0, BuildingBlock: NAHDIM_clean_sbu_0, # of connection points: 4
#     Node 15, Type 0, BuildingBlock: NAHDIM_clean_sbu_0, # of connection points: 4
#     Edge 16, Type (0, 0), BuildingBlock: KIFKEQ_clean_linker_1, # of connection points: 2
#     Edge 17, Type (0, 0), BuildingBlock: KIFKEQ_clean_linker_1, # of connection points: 2
#     Edge 18, Type (0, 0), BuildingBlock: KIFKEQ_clean_linker_1, # of connection points: 2
#     Edge 19, Type (0, 0), BuildingBlock: KIFKEQ_clean_linker_1, # of connection points: 2
#     Edge 20, Type (0, 0), BuildingBlock: KIFKEQ_clean_linker_1, # of connection points: 2
#     Edge 21, Type (0, 0), BuildingBlock: KIFKEQ_clean_linker_1, # of connection points: 2
#     Edge 22, Type (0, 0), BuildingBlock: KIFKEQ_clean_linker_1, # of connection points: 2
#     Edge 23, Type (0, 0), BuildingBlock: KIFKEQ_clean_linker_1, # of connection points: 2
#     Edge 24, Type (0, 0), BuildingBlock: KIFKEQ_clean_linker_1, # of connection points: 2
#     Edge 25, Type (0, 0), BuildingBlock: KIFKEQ_clean_linker_1, # of connection points: 2
#     Edge 26, Type (0, 0), BuildingBlock: KIFKEQ_clean_linker_1, # of connection points: 2
#     Edge 27, Type (0, 0), BuildingBlock: KIFKEQ_clean_linker_1, # of connection points: 2
#     Edge 28, Type (0, 0), BuildingBlock: KIFKEQ_clean_linker_1, # of connection points: 2
#     Edge 29, Type (0, 0), BuildingBlock: KIFKEQ_clean_linker_1, # of connection points: 2
#     Edge 30, Type (0, 0), BuildingBlock: KIFKEQ_clean_linker_1, # of connection points: 2
#     Edge 31, Type (0, 0), BuildingBlock: KIFKEQ_clean_linker_1, # of connection points: 2
#     Edge 32, Type (0, 0), BuildingBlock: KIFKEQ_clean_linker_1, # of connection points: 2
#     Edge 33, Type (0, 0), BuildingBlock: KIFKEQ_clean_linker_1, # of connection points: 2
#     Edge 34, Type (0, 0), BuildingBlock: KIFKEQ_clean_linker_1, # of connection points: 2
#     Edge 35, Type (0, 0), BuildingBlock: KIFKEQ_clean_linker_1, # of connection points: 2
#     Edge 36, Type (0, 0), BuildingBlock: KIFKEQ_clean_linker_1, # of connection points: 2
#     Edge 37, Type (0, 0), BuildingBlock: KIFKEQ_clean_linker_1, # of connection points: 2
#     Edge 38, Type (0, 0), BuildingBlock: KIFKEQ_clean_linker_1, # of connection points: 2
#     Edge 39, Type (0, 0), BuildingBlock: KIFKEQ_clean_linker_1, # of connection points: 2
#     Edge 40, Type (0, 0), BuildingBlock: KIFKEQ_clean_linker_1, # of connection points: 2
#     Edge 41, Type (0, 0), BuildingBlock: KIFKEQ_clean_linker_1, # of connection points: 2
#     Edge 42, Type (0, 0), BuildingBlock: KIFKEQ_clean_linker_1, # of connection points: 2
#     Edge 43, Type (0, 0), BuildingBlock: KIFKEQ_clean_linker_1, # of connection points: 2
#     Edge 44, Type (0, 0), BuildingBlock: KIFKEQ_clean_linker_1, # of connection points: 2
#     Edge 45, Type (0, 0), BuildingBlock: KIFKEQ_clean_linker_1, # of connection points: 2
#     Edge 46, Type (0, 0), BuildingBlock: KIFKEQ_clean_linker_1, # of connection points: 2
#     Edge 47, Type (0, 0), BuildingBlock: KIFKEQ_clean_linker_1, # of connection points: 2
# Relax obj value: 0.107
# Max RMSD: 0.095
# Mean RMSD: 0.095
data_MOF--net-uoz--node1-NAHDIM_clean_sbu_0--edge1-KIFKEQ_clean_linker_1
_symmetry_space_group_name_H-M    P1
_symmetry_Int_Tables_number       1
_symmetry_cell_setting            triclinic
loop_
_symmetry_equiv_pos_as_xyz
'x, y, z'
_cell_length_a     60.379891
_cell_length_b     60.389834
_cell_length_c     23.002062
_cell_angle_alpha  90.006985
_cell_angle_beta   89.986748
_cell_angle_gamma 89.997138
loop_
_atom_site_label
_atom_site_type_symbol
_atom_site_fract_x
_atom_site_fract_y
_atom_site_fract_z
_atom_type_partial_charge
C0 C 0.04628 0.55824 0.40455 0.0
O1 O 0.06162 0.55586 0.36446 0.0
O2 O 0.05978 0.6013 0.29904 0.0
Zn3 Zn 0.0307 0.58574 0.31574 0.0
O4 O 0.02691 0.56047 0.26018 0.0
C5 C 0.00571 0.61679 0.25282 0.0
O6 O 0.02113 0.61137 0.21514 0.0
O7 O 0.0306 0.57187 0.39549 0.0
C8 C 0.0086 0.55523 0.23674 0.0
O9 O 0.99075 0.56686 0.24818 0.0
C10 C 0.07032 0.59767 0.25204 0.0
O11 O 0.06277 0.58276 0.21553 0.0
O12 O 0.00594 0.60774 0.3028 0.0
C13 C 0.72782 0.76478 0.64219 0.0
O14 O 0.73003 0.77874 0.59881 0.0
O15 O 0.67857 0.77538 0.54511 0.0
Zn16 Zn 0.69626 0.74765 0.56274 0.0
O17 O 0.71832 0.74312 0.49923 0.0
C18 C 0.65493 0.72346 0.56156 0.0
O19 O 0.64664 0.74288 0.57524 0.0
O20 O 0.71326 0.74961 0.63849 0.0
C21 C 0.71167 0.74197 0.44697 0.0
O22 O 0.69046 0.74427 0.43568 0.0
C23 C 0.68579 0.79136 0.51443 0.0
O24 O 0.70636 0.79098 0.49589 0.0
O25 O 0.67583 0.72127 0.55803 0.0
C26 C 0.51416 0.44974 0.88878 0.0
O27 O 0.50087 0.45316 0.84449 0.0
O28 O 0.49894 0.39979 0.79695 0.0
Zn29 Zn 0.52771 0.41622 0.81118 0.0
O30 O 0.53218 0.43798 0.74701 0.0
C31 C 0.5499 0.37392 0.80072 0.0
O32 O 0.5298 0.36623 0.80892 0.0
O33 O 0.52762 0.43355 0.8866 0.0
C34 C 0.53158 0.43167 0.6944 0.0
O35 O 0.52755 0.41077 0.68257 0.0
C36 C 0.48281 0.40729 0.7673 0.0
O37 O 0.48354 0.42773 0.74793 0.0
O38 O 0.55324 0.39468 0.80394 0.0
C39 C 0.82844 0.24495 0.13091 0.0
O40 O 0.8208 0.23656 0.08218 0.0
O41 O 0.87669 0.21934 0.04257 0.0
Zn42 Zn 0.86486 0.25042 0.05569 0.0
O43 O 0.84333 0.2585 0.99275 0.0
C44 C 0.90735 0.2664 0.02018 0.0
O45 O 0.90898 0.24569 0.00333 0.0
O46 O 0.84825 0.2522 0.13214 0.0
C47 C 0.84929 0.26213 0.94067 0.0
O48 O 0.87026 0.26017 0.92643 0.0
C49 C 0.87047 0.20687 0.00107 0.0
O50 O 0.8539 0.21311 0.96796 0.0
O51 O 0.89015 0.27247 0.04802 0.0
C52 C 0.04569 0.4513 0.74205 0.0
O53 O 0.06044 0.4537 0.78356 0.0
O54 O 0.0626 0.40796 0.83927 0.0
Zn55 Zn 0.03176 0.42002 0.82415 0.0
O56 O 0.02368 0.44192 0.88594 0.0
C57 C 0.01568 0.37655 0.85227 0.0
O58 O 0.03683 0.37346 0.86265 0.0
O59 O 0.03085 0.4365 0.74775 0.0
C60 C 0.01908 0.43554 0.93715 0.0
O61 O 0.0201 0.41435 0.94979 0.0
C62 C 0.07475 0.41378 0.88181 0.0
O63 O 0.0683 0.43008 0.91557 0.0
O64 O 0.00938 0.39499 0.8311 0.0
C65 C 0.83541 0.7717 0.97773 0.0
O66 O 0.83272 0.78739 0.0167 0.0
O67 O 0.87833 0.78534 0.08615 0.0
Zn68 Zn 0.8623 0.75657 0.06884 0.0
O69 O 0.83653 0.75348 0.12298 0.0
C70 C 0.89075 0.72976 0.1356 0.0
O71 O 0.88366 0.74399 0.17459 0.0
O72 O 0.84905 0.75617 0.98837 0.0
C73 C 0.82944 0.73489 0.14079 0.0
O74 O 0.83934 0.71661 0.12396 0.0
C75 C 0.87543 0.79509 0.13465 0.0
O76 O 0.86093 0.78704 0.17158 0.0
O77 O 0.88369 0.7314 0.08363 0.0
C78 C 0.5124 0.55797 0.22353 0.0
O79 O 0.49568 0.55666 0.25994 0.0
O80 O 0.49865 0.6023 0.32734 0.0
Zn81 Zn 0.52642 0.58405 0.31659 0.0
O82 O 0.5258 0.55853 0.37201 0.0
C83 C 0.54988 0.61085 0.39188 0.0
O84 O 0.53249 0.60458 0.42205 0.0
O85 O 0.52863 0.57049 0.23641 0.0
C86 C 0.5437 0.54982 0.38968 0.0
O87 O 0.56274 0.55784 0.37176 0.0
C88 C 0.48214 0.59557 0.35681 0.0
O89 O 0.48202 0.57519 0.37675 0.0
O90 O 0.55196 0.60381 0.33997 0.0
C91 C 0.72901 0.2412 0.48377 0.0
O92 O 0.73535 0.22885 0.52776 0.0
O93 O 0.68237 0.21952 0.57849 0.0
Zn94 Zn 0.69682 0.24953 0.56777 0.0
O95 O 0.72151 0.25299 0.62528 0.0
C96 C 0.66517 0.27013 0.63663 0.0
O97 O 0.67182 0.25334 0.66846 0.0
O98 O 0.71107 0.25216 0.48834 0.0
C99 C 0.72677 0.27129 0.64869 0.0
O100 O 0.71534 0.28921 0.63662 0.0
C101 C 0.68771 0.20676 0.62025 0.0
O102 O 0.7041 0.21245 0.65469 0.0
O103 O 0.67373 0.27281 0.58651 0.0
C104 C 0.3286 0.25745 0.50078 0.0
O105 O 0.32101 0.26396 0.55149 0.0
O106 O 0.38338 0.27855 0.58332 0.0
Zn107 Zn 0.36666 0.24994 0.57159 0.0
O108 O 0.34586 0.24516 0.63865 0.0
C109 C 0.40434 0.22689 0.61176 0.0
O110 O 0.40613 0.24574 0.6398 0.0
O111 O 0.34853 0.25063 0.49719 0.0
C112 C 0.3501 0.25108 0.69045 0.0
O113 O 0.36888 0.26114 0.70192 0.0
C114 C 0.37512 0.29656 0.60199 0.0
O115 O 0.35363 0.29792 0.61029 0.0
O116 O 0.38862 0.22453 0.57537 0.0
C117 C 0.22652 0.73386 0.98472 0.0
O118 O 0.22847 0.71904 0.02623 0.0
O119 O 0.1811 0.72076 0.08511 0.0
Zn120 Zn 0.19741 0.74952 0.06924 0.0
O121 O 0.222 0.75309 0.12678 0.0
C122 C 0.15559 0.77227 0.083 0.0
O123 O 0.14746 0.75292 0.06804 0.0
O124 O 0.21239 0.74932 0.99087 0.0
C125 C 0.2195 0.76301 0.17502 0.0
O126 O 0.2 0.77114 0.18871 0.0
C127 C 0.18495 0.70919 0.13024 0.0
O128 O 0.20084 0.71525 0.16579 0.0
O129 O 0.17645 0.77514 0.08188 0.0
C130 C 0.22862 0.26855 0.14978 0.0
O131 O 0.23509 0.28089 0.10589 0.0
O132 O 0.18111 0.28799 0.05107 0.0
Zn133 Zn 0.19675 0.25869 0.06488 0.0
O134 O 0.22168 0.25589 0.00799 0.0
C135 C 0.16736 0.23303 0.99796 0.0
O136 O 0.17398 0.24787 0.95997 0.0
O137 O 0.21088 0.25732 0.14459 0.0
C138 C 0.22968 0.23779 0.98946 0.0
O139 O 0.22117 0.21892 0.00701 0.0
C140 C 0.18547 0.2994 0.00595 0.0
O141 O 0.20096 0.29253 0.97016 0.0
O142 O 0.175 0.23391 0.04949 0.0
C143 C 0.33814 0.73434 0.65783 0.0
O144 O 0.33646 0.71899 0.61764 0.0
O145 O 0.38294 0.72313 0.55148 0.0
Zn146 Zn 0.36588 0.75106 0.57026 0.0
O147 O 0.34129 0.75413 0.51294 0.0
C148 C 0.40697 0.77468 0.55643 0.0
O149 O 0.41535 0.75577 0.57416 0.0
O150 O 0.35142 0.75039 0.64948 0.0
C151 C 0.34529 0.75993 0.46096 0.0
O152 O 0.36585 0.76365 0.445 0.0
C153 C 0.37532 0.70767 0.51966 0.0
O154 O 0.35474 0.70872 0.5014 0.0
O155 O 0.38607 0.77716 0.55643 0.0
C156 C 0.55207 0.05479 0.90132 0.0
O157 O 0.56841 0.05273 0.86394 0.0
O158 O 0.56543 0.09599 0.79037 0.0
Zn159 Zn 0.53678 0.07971 0.80705 0.0
O160 O 0.53483 0.05322 0.75517 0.0
C161 C 0.50805 0.10476 0.73524 0.0
O162 O 0.5205 0.09506 0.69592 0.0
O163 O 0.53591 0.06737 0.88846 0.0
C164 C 0.51655 0.04442 0.74076 0.0
O165 O 0.49789 0.05297 0.75973 0.0
C166 C 0.57501 0.09343 0.74152 0.0
O167 O 0.56671 0.07932 0.70393 0.0
O168 O 0.51149 0.10056 0.78873 0.0
C169 C 0.02332 0.9545 0.386 0.0
O170 O 0.01353 0.96168 0.3386 0.0
O171 O 0.00209 0.90247 0.29824 0.0
Zn172 Zn 0.03126 0.91866 0.30899 0.0
O173 O 0.03449 0.94042 0.24405 0.0
C174 C 0.05324 0.87621 0.29708 0.0
O175 O 0.03373 0.86841 0.3119 0.0
O176 O 0.03235 0.93544 0.38537 0.0
C177 C 0.05272 0.94948 0.23029 0.0
O178 O 0.07062 0.945 0.26057 0.0
C179 C 0.98857 0.9079 0.25826 0.0
O180 O 0.99281 0.92539 0.22622 0.0
O181 O 0.0564 0.89702 0.29755 0.0
C182 C 0.54754 0.94712 0.23681 0.0
O183 O 0.56092 0.95001 0.28118 0.0
O184 O 0.5606 0.89625 0.32833 0.0
Zn185 Zn 0.53272 0.9141 0.31418 0.0
O186 O 0.52919 0.93584 0.37879 0.0
C187 C 0.50866 0.87293 0.3238 0.0
O188 O 0.52789 0.86434 0.30949 0.0
O189 O 0.53346 0.93146 0.23888 0.0
C190 C 0.52856 0.92881 0.43077 0.0
O191 O 0.53109 0.90754 0.4409 0.0
C192 C 0.57705 0.9031 0.35783 0.0
O193 O 0.57723 0.92361 0.37685 0.0
O194 O 0.50635 0.89386 0.32293 0.0
C195 C 0.02077 0.05209 0.74311 0.0
O196 O 0.01129 0.0445 0.79052 0.0
O197 O 0.99814 0.10319 0.83264 0.0
Zn198 Zn 0.02787 0.08811 0.82038 0.0
O199 O 0.03255 0.06636 0.88483 0.0
C200 C 0.05246 0.11991 0.87968 0.0
O201 O 0.03747 0.11398 0.91808 0.0
O202 O 0.02913 0.07144 0.74386 0.0
C203 C 0.05047 0.05591 0.89359 0.0
O204 O 0.0673 0.05885 0.85819 0.0
C205 C 0.98531 0.09713 0.8736 0.0
O206 O 0.9908 0.07999 0.90557 0.0
O207 O 0.05199 0.11103 0.8295 0.0
H208 H 0.18614 0.68406 0.2289 0.0
H209 H 0.15056 0.69197 0.06716 0.0
H210 H 0.16022 0.65524 0.2585 0.0
H211 H 0.12457 0.66321 0.09711 0.0
H212 H 0.09269 0.59784 0.14883 0.0
H213 H 0.12215 0.62292 0.11847 0.0
H214 H 0.1205 0.65446 0.28692 0.0
H215 H 0.09111 0.6293 0.3176 0.0
C216 C 0.17291 0.67954 0.19941 0.0
C217 C 0.17036 0.6904 0.14574 0.0
C218 C 0.15799 0.6631 0.21658 0.0
C219 C 0.1403 0.65705 0.18031 0.0
C220 C 0.13816 0.66739 0.12582 0.0
C221 C 0.15299 0.68393 0.10877 0.0
C222 C 0.09874 0.60998 0.17966 0.0
C223 C 0.08947 0.61164 0.23559 0.0
C224 C 0.11553 0.62441 0.16208 0.0
C225 C 0.12355 0.64072 0.20017 0.0
C226 C 0.11479 0.64194 0.25673 0.0
C227 C 0.09788 0.62759 0.27422 0.0
H228 H 0.616 0.91238 0.41362 0.0
H229 H 0.57713 0.85809 0.34588 0.0
H230 H 0.64286 0.88599 0.45265 0.0
H231 H 0.60396 0.83185 0.3849 0.0
H232 H 0.64074 0.79257 0.52524 0.0
H233 H 0.61531 0.82009 0.48567 0.0
H234 H 0.67066 0.85735 0.4182 0.0
H235 H 0.69621 0.82981 0.45778 0.0
C236 C 0.61329 0.89485 0.40659 0.0
C237 C 0.59439 0.88734 0.37677 0.0
C238 C 0.62869 0.87977 0.42885 0.0
C239 C 0.62538 0.85687 0.42228 0.0
C240 C 0.60676 0.84939 0.39135 0.0
C241 C 0.5915 0.86445 0.36859 0.0
C242 C 0.64753 0.80671 0.50241 0.0
C243 C 0.67051 0.80897 0.49454 0.0
C244 C 0.63295 0.82237 0.47935 0.0
C245 C 0.64101 0.84075 0.44842 0.0
C246 C 0.66399 0.84338 0.44201 0.0
C247 C 0.6786 0.82758 0.46455 0.0
H248 H 0.47927 0.36287 0.78773 0.0
H249 H 0.44611 0.41734 0.70232 0.0
H250 H 0.45233 0.33722 0.74696 0.0
H251 H 0.41916 0.39149 0.66126 0.0
H252 H 0.36379 0.33717 0.64673 0.0
H253 H 0.38863 0.36481 0.68926 0.0
H254 H 0.44487 0.32378 0.64638 0.0
H255 H 0.42028 0.29624 0.60426 0.0
C256 C 0.46612 0.36943 0.76073 0.0
C257 C 0.46496 0.39216 0.74797 0.0
C258 C 0.45077 0.35469 0.73703 0.0
C259 C 0.43382 0.36232 0.70029 0.0
C260 C 0.43203 0.38515 0.6895 0.0
C261 C 0.44751 0.39992 0.71294 0.0
C262 C 0.38147 0.33416 0.64589 0.0
C263 C 0.39002 0.31444 0.62232 0.0
C264 C 0.39567 0.35 0.67019 0.0
C265 C 0.41865 0.3463 0.67184 0.0
C266 C 0.4272 0.32689 0.64674 0.0
C267 C 0.41308 0.31119 0.62214 0.0
H268 H 0.8693 0.18366 0.89911 0.0
H269 H 0.90293 0.1867 0.06477 0.0
H270 H 0.89507 0.155 0.86675 0.0
H271 H 0.92857 0.15798 0.03235 0.0
H272 H 0.95977 0.09343 0.97099 0.0
H273 H 0.92968 0.11763 0.00209 0.0
H274 H 0.93641 0.15556 0.84401 0.0
H275 H 0.96665 0.13141 0.81273 0.0
C276 C 0.88194 0.17797 0.92899 0.0
C277 C 0.88412 0.18751 0.98448 0.0
C278 C 0.89677 0.16168 0.91024 0.0
C279 C 0.91387 0.15437 0.9469 0.0
C280 C 0.91545 0.16319 0.00329 0.0
C281 C 0.90081 0.17968 0.02178 0.0
C282 C 0.95471 0.10677 0.94246 0.0
C283 C 0.9657 0.11057 0.88946 0.0
C284 C 0.93753 0.12067 0.96049 0.0
C285 C 0.93078 0.1385 0.9256 0.0
C286 C 0.94117 0.14182 0.87159 0.0
C287 C 0.95855 0.12807 0.85382 0.0
H288 H 0.09457 0.38116 0.81802 0.0
H289 H 0.09842 0.41516 0.98309 0.0
H290 H 0.12344 0.35566 0.84967 0.0
H291 H 0.12738 0.38959 0.01459 0.0
H292 H 0.15233 0.31887 0.06954 0.0
H293 H 0.12788 0.34895 0.03912 0.0
H294 H 0.16345 0.35414 0.87683 0.0
H295 H 0.18782 0.32411 0.90687 0.0
C296 C 0.10179 0.3834 0.86072 0.0
C297 C 0.09413 0.40014 0.89809 0.0
C298 C 0.1184 0.36883 0.87877 0.0
C299 C 0.12758 0.37057 0.93473 0.0
C300 C 0.12043 0.38773 0.97145 0.0
C301 C 0.10396 0.40245 0.95319 0.0
C302 C 0.15509 0.32659 0.02766 0.0
C303 C 0.17192 0.31897 0.99049 0.0
C304 C 0.14116 0.34389 0.01038 0.0
C305 C 0.1437 0.3538 0.95545 0.0
C306 C 0.16095 0.34664 0.91911 0.0
C307 C 0.17496 0.32948 0.93651 0.0
H308 H 0.96058 0.91152 0.16553 0.0
H309 H 0.97394 0.87122 0.31683 0.0
H310 H 0.93156 0.8858 0.13594 0.0
H311 H 0.94488 0.84549 0.28698 0.0
H312 H 0.87807 0.81464 0.24139 0.0
H313 H 0.90371 0.84343 0.27287 0.0
H314 H 0.93113 0.84655 0.09968 0.0
H315 H 0.90544 0.81773 0.06792 0.0
C316 C 0.9572 0.8973 0.19282 0.0
C317 C 0.96964 0.89338 0.24348 0.0
C318 C 0.94066 0.88251 0.17561 0.0
C319 C 0.93604 0.86359 0.20895 0.0
C320 C 0.94796 0.86004 0.26063 0.0
C321 C 0.96466 0.87473 0.27761 0.0
C322 C 0.88941 0.82159 0.2098 0.0
C323 C 0.88977 0.81383 0.15214 0.0
C324 C 0.90417 0.83799 0.228 0.0
C325 C 0.91947 0.84715 0.18884 0.0
C326 C 0.91939 0.8399 0.13074 0.0
C327 C 0.90475 0.82334 0.11262 0.0
H328 H 0.42036 0.7056 0.52903 0.0
H329 H 0.36397 0.66995 0.46088 0.0
H330 H 0.44513 0.67805 0.48689 0.0
H331 H 0.38889 0.64234 0.41877 0.0
H332 H 0.443 0.58646 0.41181 0.0
H333 H 0.41643 0.61298 0.45163 0.0
H334 H 0.45577 0.66696 0.38467 0.0
H335 H 0.4823 0.64057 0.34482 0.0
C336 C 0.41322 0.69179 0.50551 0.0
C337 C 0.39018 0.68998 0.49822 0.0
C338 C 0.42744 0.67612 0.48097 0.0
C339 C 0.41893 0.65819 0.44912 0.0
C340 C 0.39588 0.65599 0.44323 0.0
C341 C 0.38164 0.67181 0.46725 0.0
C342 C 0.44585 0.60398 0.40503 0.0
C343 C 0.46481 0.61141 0.37533 0.0
C344 C 0.43062 0.61914 0.42774 0.0
C345 C 0.43418 0.64201 0.42175 0.0
C346 C 0.45279 0.64941 0.39066 0.0
C347 C 0.46788 0.63428 0.36743 0.0
H348 H 0.69077 0.17994 0.7156 0.0
H349 H 0.65283 0.18993 0.55842 0.0
H350 H 0.66542 0.15054 0.74487 0.0
H351 H 0.62744 0.16063 0.58803 0.0
H352 H 0.59599 0.09493 0.63647 0.0
H353 H 0.62523 0.12017 0.60584 0.0
H354 H 0.62609 0.14939 0.77719 0.0
H355 H 0.5969 0.12402 0.80818 0.0
C356 C 0.67718 0.17572 0.68696 0.0
C357 C 0.67376 0.18737 0.63477 0.0
C358 C 0.66258 0.15897 0.70398 0.0
C359 C 0.64437 0.15338 0.66897 0.0
C360 C 0.64143 0.16444 0.61574 0.0
C361 C 0.65593 0.1813 0.59888 0.0
C362 C 0.60253 0.10658 0.66787 0.0
C363 C 0.59402 0.10754 0.72473 0.0
C364 C 0.61922 0.12111 0.65014 0.0
C365 C 0.62787 0.13683 0.68898 0.0
C366 C 0.61988 0.13732 0.74641 0.0
C367 C 0.60308 0.12286 0.76407 0.0
H368 H 0.02448 0.33624 0.89972 0.0
H369 H 0.97024 0.37946 0.85327 0.0
H370 H 0.99858 0.31031 0.94289 0.0
H371 H 0.94409 0.35302 0.89549 0.0
H372 H 0.90683 0.31169 0.03276 0.0
H373 H 0.93277 0.33835 0.99059 0.0
H374 H 0.97031 0.2845 0.91579 0.0
H375 H 0.94494 0.25804 0.95882 0.0
C376 C 0.00697 0.3401 0.89801 0.0
C377 C 0.99944 0.35994 0.87292 0.0
C378 C 0.99209 0.32516 0.92271 0.0
C379 C 0.96925 0.32959 0.92281 0.0
C380 C 0.96162 0.34927 0.89686 0.0
C381 C 0.97657 0.36429 0.87208 0.0
C382 C 0.92078 0.30558 0.00789 0.0
C383 C 0.92384 0.28273 -0.00064 0.0
C384 C 0.9355 0.32085 0.98319 0.0
C385 C 0.95357 0.31356 0.9496 0.0
C386 C 0.95674 0.2907 0.94195 0.0
C387 C 0.94211 0.2755 0.96658 0.0
H388 H 0.49495 0.11463 0.6247 0.0
H389 H 0.48292 0.13187 0.80432 0.0
H390 H 0.46913 0.14332 0.59368 0.0
H391 H 0.45689 0.16045 0.77313 0.0
H392 H 0.43703 0.22691 0.69306 0.0
H393 H 0.46062 0.19637 0.72261 0.0
H394 H 0.42925 0.15408 0.59557 0.0
H395 H 0.4055 0.18489 0.56538 0.0
C396 C 0.48666 0.12441 0.65763 0.0
C397 C 0.49112 0.12108 0.71702 0.0
C398 C 0.47176 0.14076 0.63978 0.0
C399 C 0.46109 0.15423 0.6809 0.0
C400 C 0.46511 0.15051 0.74037 0.0
C401 C 0.47992 0.13407 0.75826 0.0
C402 C 0.43513 0.21115 0.67113 0.0
C403 C 0.41934 0.20835 0.62681 0.0
C404 C 0.44856 0.19358 0.68852 0.0
C405 C 0.44664 0.17276 0.66189 0.0
C406 C 0.43114 0.16998 0.61679 0.0
C407 C 0.41754 0.1876 0.59954 0.0
H408 H 0.54798 0.62963 0.49929 0.0
H409 H 0.58875 0.62654 0.34501 0.0
H410 H 0.57395 0.65536 0.54338 0.0
H411 H 0.61476 0.65266 0.38932 0.0
H412 H 0.66648 0.68404 0.51087 0.0
H413 H 0.64173 0.65584 0.47115 0.0
H414 H 0.58518 0.69399 0.52767 0.0
H415 H 0.60981 0.72203 0.56779 0.0
C416 C 0.56251 0.63442 0.4747 0.0
C417 C 0.56623 0.62609 0.41844 0.0
C418 C 0.57735 0.64927 0.49999 0.0
C419 C 0.59635 0.65613 0.46978 0.0
C420 C 0.60035 0.64752 0.41389 0.0
C421 C 0.58539 0.63268 0.38837 0.0
C422 C 0.64876 0.68628 0.51546 0.0
C423 C 0.64011 0.7053 0.54257 0.0
C424 C 0.63461 0.67022 0.4922 0.0
C425 C 0.61152 0.67274 0.49602 0.0
C426 C 0.6029 0.69146 0.52447 0.0
C427 C 0.61703 0.70757 0.54736 0.0
H428 H 0.16787 0.81003 0.14049 0.0
H429 H 0.1104 0.77244 0.08769 0.0
H430 H 0.14415 0.83517 0.19515 0.0
H431 H 0.08663 0.79794 0.14089 0.0
H432 H 0.0525 0.83102 0.29228 0.0
H433 H 0.07772 0.80676 0.2397 0.0
H434 H 0.11651 0.8635 0.18732 0.0
H435 H 0.09164 0.8877 0.24137 0.0
C436 C 0.15013 0.80735 0.13967 0.0
C437 C 0.14103 0.78916 0.10987 0.0
C438 C 0.13652 0.82179 0.17104 0.0
C439 C 0.11347 0.81845 0.17308 0.0
C440 C 0.10434 0.80071 0.14146 0.0
C441 C 0.11796 0.78621 0.11041 0.0
C442 C 0.06656 0.8383 0.27014 0.0
C443 C 0.07 0.8613 0.27093 0.0
C444 C 0.08091 0.82441 0.23944 0.0
C445 C 0.09899 0.83318 0.20847 0.0
C446 C 0.10285 0.85613 0.21092 0.0
C447 C 0.08856 0.87003 0.24191 0.0
H448 H 0.9696 0.63001 0.31643 0.0
H449 H 0.00225 0.63968 0.15116 0.0
H450 H 0.94083 0.65623 0.28756 0.0
H451 H 0.97389 0.66615 0.12298 0.0
H452 H 0.9084 0.69685 0.06763 0.0
H453 H 0.93522 0.66863 0.09639 0.0
H454 H 0.93637 0.6955 0.27048 0.0
H455 H 0.9093 0.72327 0.24224 0.0
C456 C 0.97069 0.63778 0.27409 0.0
C457 C 0.98823 0.63277 0.23616 0.0
C458 C 0.95425 0.65286 0.2576 0.0
C459 C 0.95503 0.66328 0.20288 0.0
C460 C 0.97257 0.65818 0.16502 0.0
C461 C 0.98894 0.6431 0.18142 0.0
C462 C 0.91433 0.69666 0.11207 0.0
C463 C 0.90674 0.71234 0.15256 0.0
C464 C 0.92978 0.68056 0.12851 0.0
C465 C 0.93798 0.67982 0.18576 0.0
C466 C 0.93019 0.69538 0.22629 0.0
C467 C 0.91476 0.71143 0.20991 0.0
H468 H 0.05666 0.14185 0.98258 0.0
H469 H 0.0874 0.13479 0.81392 0.0
H470 H 0.08485 0.1685 0.01061 0.0
H471 H 0.11603 0.16124 0.84258 0.0
H472 H 0.14755 0.22799 0.89222 0.0
H473 H 0.12038 0.20037 0.86327 0.0
H474 H 0.12378 0.171 0.03431 0.0
H475 H 0.15069 0.19901 0.06378 0.0
C476 C 0.0695 0.14591 0.95148 0.0
C477 C 0.06974 0.13621 0.8959 0.0
C478 C 0.08579 0.16109 0.96779 0.0
C479 C 0.10278 0.16696 0.929 0.0
C480 C 0.10304 0.15726 0.87333 0.0
C481 C 0.08669 0.14204 0.85695 0.0
C482 C 0.14255 0.21563 0.92372 0.0
C483 C 0.15123 0.21578 0.98045 0.0
C484 C 0.12706 0.19968 0.90691 0.0
C485 C 0.11987 0.18345 0.9464 0.0
C486 C 0.12874 0.18345 0.00302 0.0
C487 C 0.14424 0.19944 0.01987 0.0
H488 H 0.64103 0.26525 0.73556 0.0
H489 H 0.65155 0.31009 0.59176 0.0
H490 H 0.61402 0.2906 0.77686 0.0
H491 H 0.62417 0.33554 0.63327 0.0
H492 H 0.59121 0.38496 0.76052 0.0
H493 H 0.61927 0.36013 0.72031 0.0
H494 H 0.57661 0.30416 0.75365 0.0
H495 H 0.54869 0.32883 0.7942 0.0
C496 C 0.63755 0.28052 0.71261 0.0
C497 C 0.64843 0.28563 0.66025 0.0
C498 C 0.62197 0.295 0.73624 0.0
C499 C 0.61694 0.31505 0.70833 0.0
C500 C 0.62786 0.32028 0.65604 0.0
C501 C 0.6434 0.30566 0.63207 0.0
C502 C 0.58791 0.36733 0.75981 0.0
C503 C 0.56772 0.35887 0.78077 0.0
C504 C 0.6039 0.35315 0.73624 0.0
C505 C 0.60012 0.33021 0.7336 0.0
C506 C 0.5801 0.32174 0.75553 0.0
C507 C 0.56408 0.3359 0.7787 0.0
H508 H 0.39428 0.81136 0.49479 0.0
H509 H 0.45211 0.77481 0.54993 0.0
H510 H 0.41763 0.83522 0.43517 0.0
H511 H 0.47547 0.79897 0.49151 0.0
H512 H 0.50815 0.82785 0.33261 0.0
H513 H 0.48295 0.80512 0.38976 0.0
H514 H 0.4459 0.86355 0.43773 0.0
H515 H 0.47079 0.88625 0.37935 0.0
C516 C 0.41202 0.80866 0.49505 0.0
C517 C 0.42132 0.7911 0.52695 0.0
C518 C 0.42541 0.82235 0.46081 0.0
C519 C 0.4484 0.81882 0.45785 0.0
C520 C 0.45776 0.80182 0.49165 0.0
C521 C 0.44439 0.7881 0.52567 0.0
C522 C 0.49445 0.83583 0.35466 0.0
C523 C 0.49156 0.85888 0.35156 0.0
C524 C 0.48013 0.82282 0.38797 0.0
C525 C 0.46262 0.83255 0.4192 0.0
C526 C 0.45916 0.8555 0.4141 0.0
C527 C 0.47345 0.86851 0.38057 0.0
H528 H 0.03854 0.52186 0.22582 0.0
H529 H 0.97678 0.54625 0.15564 0.0
H530 H 0.03827 0.49168 0.1554 0.0
H531 H 0.97668 0.51602 0.08461 0.0
H532 H 0.00795 0.47892 0.92261 0.0
H533 H 0.00279 0.50686 0.99814 0.0
H534 H 0.01457 0.4574 0.13008 0.0
H535 H 0.01958 0.42932 0.05464 0.0
C536 C 0.02486 0.5207 0.19552 0.0
C537 C 0.00772 0.53643 0.19599 0.0
C538 C 0.02463 0.50335 0.15557 0.0
C539 C 0.00744 0.50158 0.11482 0.0
C540 C 0.99014 0.51713 0.11561 0.0
C541 C 0.99018 0.53432 0.15627 0.0
C542 C 0.00923 0.47396 0.96774 0.0
C543 C 0.01432 0.45199 0.98279 0.0
C544 C 0.00612 0.48991 0.01087 0.0
C545 C 0.00835 0.48422 0.06972 0.0
C546 C 0.0129 0.46216 0.08488 0.0
C547 C 0.0157 0.44613 0.04177 0.0
H548 H 0.79923 0.76733 0.16184 0.0
H549 H 0.81733 0.70075 0.21191 0.0
H550 H 0.76933 0.76701 0.23317 0.0
H551 H 0.78743 0.7006 0.28384 0.0
H552 H 0.75421 0.72736 0.45586 0.0
H553 H 0.78142 0.72363 0.37797 0.0
H554 H 0.73281 0.74581 0.25327 0.0
H555 H 0.70542 0.74938 0.33109 0.0
C556 C 0.79674 0.75259 0.18788 0.0
C557 C 0.81065 0.73409 0.18159 0.0
C558 C 0.77955 0.75238 0.22834 0.0
C559 C 0.77616 0.73379 0.26381 0.0
C560 C 0.78983 0.71515 0.25703 0.0
C561 C 0.80683 0.71523 0.21584 0.0
C562 C 0.74928 0.7313 0.41177 0.0
C563 C 0.72774 0.73877 0.39951 0.0
C564 C 0.76479 0.729 0.36725 0.0
C565 C 0.75914 0.73443 0.30983 0.0
C566 C 0.73754 0.74161 0.29735 0.0
C567 C 0.7219 0.74359 0.34178 0.0
H568 H 0.50845 0.52341 0.41522 0.0
H569 H 0.57736 0.53426 0.45746 0.0
H570 H 0.50684 0.49347 0.48644 0.0
H571 H 0.57561 0.50439 0.52912 0.0
H572 H 0.54971 0.4728 0.70284 0.0
H573 H 0.5539 0.50025 0.6258 0.0
H574 H 0.52471 0.45481 0.50282 0.0
H575 H 0.52066 0.42713 0.57983 0.0
C576 C 0.52326 0.51934 0.43956 0.0
C577 C 0.54302 0.5312 0.43102 0.0
C578 C 0.52236 0.50214 0.47995 0.0
C579 C 0.5411 0.49671 0.51306 0.0
C580 C 0.56092 0.50839 0.50418 0.0
C581 C 0.56192 0.52539 0.46313 0.0
C582 C 0.54429 0.46861 0.65931 0.0
C583 C 0.53479 0.44787 0.64729 0.0
C584 C 0.54682 0.48426 0.61525 0.0
C585 C 0.53963 0.47957 0.55859 0.0
C586 C 0.53029 0.45879 0.54635 0.0
C587 C 0.52806 0.44298 0.59028 0.0
H588 H 0.8541 0.26 0.8228 0.0
H589 H 0.8064 0.27454 0.9577 0.0
H590 H 0.82523 0.26462 0.74933 0.0
H591 H 0.77766 0.27926 0.88415 0.0
H592 H 0.73676 0.30369 0.72748 0.0
H593 H 0.76767 0.30412 0.79644 0.0
H594 H 0.79041 0.24141 0.72882 0.0
H595 H 0.75961 0.24083 0.66045 0.0
C596 C 0.83755 0.26444 0.83669 0.0
C597 C 0.83244 0.26674 0.89595 0.0
C598 C 0.82105 0.26701 0.79471 0.0
C599 C 0.79928 0.27223 0.81127 0.0
C600 C 0.79437 0.2754 0.87031 0.0
C601 C 0.81078 0.27255 0.91233 0.0
C602 C 0.74845 0.29009 0.72718 0.0
C603 C 0.74574 0.27218 0.68888 0.0
C604 C 0.76605 0.29032 0.76663 0.0
C605 C 0.78138 0.27283 0.76762 0.0
C606 C 0.77894 0.2552 0.72843 0.0
C607 C 0.76121 0.2548 0.68968 0.0
H608 H 0.24708 0.20338 0.9266 0.0
H609 H 0.25468 0.27347 0.95958 0.0
H610 H 0.2776 0.205 0.85662 0.0
H611 H 0.2849 0.27502 0.88988 0.0
H612 H 0.35156 0.26584 0.80259 0.0
H613 H 0.32354 0.26091 0.87792 0.0
H614 H 0.28353 0.22285 0.75861 0.0
H615 H 0.31155 0.22761 0.68328 0.0
C616 C 0.2553 0.21907 0.91913 0.0
C617 C 0.24844 0.2383 0.9484 0.0
C618 C 0.27268 0.22 0.879 0.0
C619 C 0.28361 0.24012 0.86804 0.0
C620 C 0.27695 0.25923 0.89803 0.0
C621 C 0.25952 0.25835 0.93762 0.0
C622 C 0.33687 0.25629 0.79253 0.0
C623 C 0.3337 0.24724 0.7369 0.0
C624 C 0.32082 0.25354 0.83559 0.0
C625 C 0.30137 0.24156 0.82396 0.0
C626 C 0.29847 0.23198 0.76888 0.0
C627 C 0.31445 0.23486 0.72568 0.0
H628 H 0.3013 0.75295 0.4806 0.0
H629 H 0.34783 0.77179 0.34649 0.0
H630 H 0.27111 0.75536 0.41086 0.0
H631 H 0.31746 0.77455 0.27688 0.0
H632 H 0.26163 0.74794 0.15904 0.0
H633 H 0.29212 0.74877 0.22809 0.0
H634 H 0.2504 0.78243 0.35257 0.0
H635 H 0.21967 0.78129 0.28376 0.0
C636 C 0.30507 0.75776 0.43632 0.0
C637 C 0.32697 0.76208 0.41895 0.0
C638 C 0.28774 0.75929 0.39649 0.0
C639 C 0.29193 0.76515 0.33846 0.0
C640 C 0.31379 0.76975 0.32122 0.0
C641 C 0.33115 0.76825 0.36111 0.0
C642 C 0.25896 0.75561 0.20104 0.0
C643 C 0.2382 0.76446 0.21609 0.0
C644 C 0.27649 0.75622 0.24042 0.0
C645 C 0.27363 0.76565 0.2957 0.0
C646 C 0.25299 0.77482 0.31047 0.0
C647 C 0.23543 0.77426 0.27099 0.0
H648 H 0.53686 0.92207 0.54604 0.0
H649 H 0.51223 0.97075 0.42438 0.0
H650 H 0.53211 0.94862 0.6255 0.0
H651 H 0.50727 0.99706 0.50388 0.0
H652 H 0.48258 0.03017 0.67194 0.0
H653 H 0.48381 0.00054 0.59927 0.0
H654 H 0.55155 0.98645 0.64653 0.0
H655 H 0.5505 0.01613 0.71848 0.0
C656 C 0.53028 0.93834 0.53638 0.0
C657 C 0.52504 0.94442 0.47908 0.0
C658 C 0.5276 0.95349 0.58173 0.0
C659 C 0.51927 0.97477 0.57057 0.0
C660 C 0.51352 0.98065 0.51355 0.0
C661 C 0.51653 0.96566 0.46811 0.0
C662 C 0.49763 0.02057 0.66719 0.0
C663 C 0.51649 0.02549 0.70048 0.0
C664 C 0.49834 0.00373 0.62559 0.0
C665 C 0.51778 0.99132 0.61753 0.0
C666 C 0.53634 0.9957 0.65233 0.0
C667 C 0.53576 0.01275 0.69314 0.0
H668 H 0.08462 0.02787 0.92163 0.0
H669 H 0.01987 0.04947 0.9786 0.0
H670 H 0.08614 0.0018 0.00299 0.0
H671 H 0.02164 0.02397 0.05987 0.0
H672 H 0.01939 0.95893 0.15481 0.0
H673 H 0.02007 0.98427 0.07306 0.0
H674 H 0.08834 0.00031 0.11048 0.0
H675 H 0.08785 0.97437 0.19217 0.0
C676 C 0.0708 0.02715 0.95162 0.0
C677 C 0.05205 0.04058 0.9434 0.0
C678 C 0.07173 0.01233 0.99831 0.0
C679 C 0.05392 0.01071 0.03748 0.0
C680 C 0.03543 0.0245 0.02977 0.0
C681 C 0.03447 0.0392 0.98326 0.0
C682 C 0.03458 0.96782 0.14576 0.0
C683 C 0.05353 0.96476 0.18026 0.0
C684 C 0.03493 0.98243 0.09898 0.0
C685 C 0.05419 0.99446 0.08571 0.0
C686 C 0.0733 0.99116 0.1195 0.0
C687 C 0.07297 0.97642 0.16642 0.0
H688 H 0.01342 0.45717 0.6594 0.0
H689 H 0.07826 0.48017 0.71109 0.0
H690 H 0.01343 0.48373 0.57896 0.0
H691 H 0.0782 0.50661 0.63115 0.0
H692 H 0.07986 0.53176 0.44221 0.0
H693 H 0.07947 0.50573 0.52309 0.0
H694 H 0.01255 0.52531 0.56478 0.0
H695 H 0.01287 0.55144 0.48342 0.0
C696 C 0.02769 0.4678 0.65346 0.0
C697 C 0.04585 0.46654 0.69158 0.0
C698 C 0.02762 0.48312 0.60774 0.0
C699 C 0.0458 0.49728 0.59888 0.0
C700 C 0.06402 0.4958 0.6366 0.0
C701 C 0.06401 0.48069 0.68252 0.0
C702 C 0.06509 0.53066 0.46879 0.0
C703 C 0.0464 0.5437 0.45641 0.0
C704 C 0.06491 0.51577 0.51524 0.0
C705 C 0.04596 0.51343 0.55016 0.0
C706 C 0.02731 0.5266 0.5382 0.0
C707 C 0.02756 0.54169 0.49198 0.0
H708 H 0.82897 0.73724 0.90192 0.0
H709 H 0.80879 0.80461 0.93665 0.0
H710 H 0.80273 0.73552 0.82099 0.0
H711 H 0.78264 0.80283 0.85611 0.0
H712 H 0.75626 0.79828 0.66894 0.0
H713 H 0.78297 0.79987 0.74818 0.0
H714 H 0.76113 0.73573 0.80811 0.0
H715 H 0.73431 0.73406 0.72844 0.0
C716 C 0.81911 0.75173 0.89198 0.0
C717 C 0.82099 0.77107 0.92568 0.0
C718 C 0.80394 0.75067 0.84601 0.0
C719 C 0.79056 0.769 0.83241 0.0
C720 C 0.79283 0.78848 0.86528 0.0
C721 C 0.80779 0.78947 0.91152 0.0
C722 C 0.75705 0.78453 0.6991 0.0
C723 C 0.74313 0.76604 0.6924 0.0
C724 C 0.77233 0.78549 0.74461 0.0
C725 C 0.7742 0.7679 0.78425 0.0
C726 C 0.76023 0.74943 0.7778 0.0
C727 C 0.74475 0.74856 0.73252 0.0
H728 H 0.54775 0.54816 0.15278 0.0
H729 H 0.47816 0.53449 0.1778 0.0
H730 H 0.54858 0.52182 0.07173 0.0
H731 H 0.47905 0.50829 0.09749 0.0
H732 H 0.48376 0.48185 0.91172 0.0
H733 H 0.48393 0.50875 0.99049 0.0
H734 H 0.54446 0.48035 0.057 0.0
H735 H 0.54439 0.45329 0.97761 0.0
C736 C 0.53262 0.53971 0.1407 0.0
C737 C 0.51288 0.54346 0.17163 0.0
C738 C 0.53314 0.52449 0.0947 0.0
C739 C 0.51388 0.51296 0.07836 0.0
C740 C 0.49411 0.51705 0.10868 0.0
C741 C 0.49363 0.53204 0.15484 0.0
C742 C 0.49711 0.48125 0.94315 0.0
C743 C 0.51404 0.46537 0.93845 0.0
C744 C 0.49715 0.49665 0.9884 0.0
C745 C 0.51421 0.49669 0.02989 0.0
C746 C 0.53121 0.48085 0.02529 0.0
C747 C 0.53106 0.46525 0.98017 0.0
H748 H 0.83975 0.25562 0.24311 0.0
H749 H 0.78413 0.23665 0.13591 0.0
H750 H 0.81551 0.25623 0.32837 0.0
H751 H 0.76006 0.23722 0.22087 0.0
H752 H 0.71966 0.26097 0.37892 0.0
H753 H 0.74387 0.26351 0.29368 0.0
H754 H 0.7949 0.22791 0.38617 0.0
H755 H 0.77093 0.22539 0.4709 0.0
C756 C 0.82238 0.25166 0.23768 0.0
C757 C 0.81391 0.24598 0.18278 0.0
C758 C 0.80852 0.25194 0.2865 0.0
C759 C 0.78587 0.24677 0.28128 0.0
C760 C 0.77737 0.24151 0.2262 0.0
C761 C 0.79123 0.24102 0.17759 0.0
C762 C 0.73605 0.25372 0.38099 0.0
C763 C 0.74331 0.2429 0.4316 0.0
C764 C 0.74988 0.25512 0.33219 0.0
C765 C 0.77132 0.24597 0.33334 0.0
C766 C 0.7786 0.23537 0.38417 0.0
C767 C 0.76475 0.23377 0.43257 0.0
H768 H 0.33969 0.2509 0.38631 0.0
H769 H 0.28418 0.26549 0.49861 0.0
H770 H 0.31521 0.25287 0.30174 0.0
H771 H 0.25987 0.26752 0.4143 0.0
H772 H 0.21963 0.24695 0.25223 0.0
H773 H 0.24389 0.24326 0.33692 0.0
H774 H 0.29387 0.28226 0.25006 0.0
H775 H 0.26982 0.28591 0.16571 0.0
C776 C 0.3223 0.25446 0.39298 0.0
C777 C 0.31392 0.25811 0.44918 0.0
C778 C 0.30829 0.25569 0.34457 0.0
C779 C 0.28561 0.26037 0.3514 0.0
C780 C 0.27721 0.26367 0.40766 0.0
C781 C 0.29121 0.26265 0.45593 0.0
C782 C 0.23577 0.25477 0.25132 0.0
C783 C 0.24275 0.26675 0.20225 0.0
C784 C 0.24963 0.2527 0.29983 0.0
C785 C 0.27084 0.26238 0.3 0.0
C786 C 0.27776 0.27436 0.25095 0.0
C787 C 0.26387 0.27659 0.20279 0.0
H788 H 0.31173 0.70034 0.69292 0.0
H789 H 0.32993 0.76752 0.73656 0.0
H790 H 0.28443 0.70033 0.77078 0.0
H791 H 0.30256 0.76741 0.81509 0.0
H792 H 0.23338 0.76617 0.90272 0.0
H793 H 0.2611 0.76632 0.82507 0.0
H794 H 0.28295 0.70129 0.87798 0.0
H795 H 0.25529 0.70102 0.95501 0.0
C796 C 0.31005 0.71506 0.71947 0.0
C797 C 0.32302 0.73393 0.70853 0.0
C798 C 0.29442 0.71502 0.76421 0.0
C799 C 0.29127 0.7339 0.7989 0.0
C800 C 0.30444 0.75271 0.78858 0.0
C801 C 0.32025 0.75269 0.74401 0.0
C802 C 0.24398 0.75184 0.89742 0.0
C803 C 0.2421 0.73357 0.93497 0.0
C804 C 0.25999 0.75202 0.85334 0.0
C805 C 0.27426 0.73386 0.8456 0.0
C806 C 0.27209 0.71546 0.88255 0.0
C807 C 0.25626 0.71535 0.92679 0.0
H808 H 0.51765 0.95161 0.14759 0.0
H809 H 0.57897 0.9783 0.21443 0.0
H810 H 0.51854 0.97868 0.06838 0.0
H811 H 0.57977 0.00525 0.13573 0.0
H812 H 0.58605 0.03092 0.94749 0.0
H813 H 0.5847 0.00496 0.02845 0.0
H814 H 0.51554 0.02018 0.05463 0.0
H815 H 0.51683 0.04624 0.9732 0.0
C816 C 0.53134 0.96316 0.14527 0.0
C817 C 0.54827 0.96276 0.18722 0.0
C818 C 0.53175 0.97878 0.10025 0.0
C819 C 0.5492 0.99412 0.09596 0.0
C820 C 0.56619 0.99354 0.13761 0.0
C821 C 0.56569 0.97812 0.18281 0.0
C822 C 0.57058 0.0289 0.97077 0.0
C823 C 0.55155 0.04066 0.95392 0.0
C824 C 0.56983 0.01405 0.01726 0.0
C825 C 0.54999 0.01045 0.04772 0.0
C826 C 0.531 0.02244 0.03151 0.0
C827 C 0.5318 0.0375 0.98527 0.0
H828 H 0.03543 0.06333 0.63403 0.0
H829 H 0.00898 0.00865 0.73333 0.0
H830 H 0.03721 0.03963 0.54792 0.0
H831 H 0.01065 0.98513 0.64744 0.0
H832 H 0.03772 0.9437 0.49565 0.0
H833 H 0.03819 0.96744 0.58186 0.0
H834 H 0.01073 0.02114 0.48107 0.0
H835 H 0.01035 0.9976 0.39515 0.0
C836 C 0.03001 0.04629 0.63752 0.0
C837 C 0.022 0.03792 0.69053 0.0
C838 C 0.03095 0.03274 0.58816 0.0
C839 C 0.0241 0.01049 0.5909 0.0
C840 C 0.01631 0.0021 0.64405 0.0
C841 C 0.0152 0.01567 0.69319 0.0
C842 C 0.03184 0.96058 0.49191 0.0
C843 C 0.02394 0.96871 0.43855 0.0
C844 C 0.03202 0.97415 0.54131 0.0
C845 C 0.02451 0.99618 0.53825 0.0
C846 C 0.01686 0.00435 0.48473 0.0
C847 C 0.01651 0.99076 0.43556 0.0
loop_
_geom_bond_atom_site_label_1
_geom_bond_atom_site_label_2
_geom_bond_distance
_geom_bond_site_symmetry_2
_ccdc_geom_bond_type
C0 O1 1.160 . S
C0 O7 1.185 . S
O1 C0 1.160 . S
O2 Zn3 1.899 . S
O2 C10 1.284 . S
Zn3 O2 1.899 . S
Zn3 O4 2.032 . S
Zn3 O7 2.086 . S
Zn3 O12 1.977 . S
O4 Zn3 2.032 . S
O4 C8 1.278 . S
C5 O6 1.240 . S
C5 O12 1.274 . S
O6 C5 1.240 . S
O7 C0 1.185 . S
O7 Zn3 2.086 . S
C8 O4 1.278 . S
C8 O9 1.211 . S
O9 C8 1.211 . S
C10 O2 1.284 . S
C10 O11 1.273 . S
O11 C10 1.273 . S
O12 Zn3 1.977 . S
O12 C5 1.274 . S
C13 O14 1.160 . S
C13 O20 1.185 . S
O14 C13 1.160 . S
O15 Zn16 1.899 . S
O15 C23 1.284 . S
Zn16 O15 1.899 . S
Zn16 O17 2.032 . S
Zn16 O20 2.086 . S
Zn16 O25 1.977 . S
O17 Zn16 2.032 . S
O17 C21 1.278 . S
C18 O19 1.203 . S
C18 O25 1.267 . S
O19 C18 1.203 . S
O20 C13 1.185 . S
O20 Zn16 2.086 . S
C21 O17 1.278 . S
C21 O22 1.211 . S
O22 C21 1.211 . S
C23 O15 1.284 . S
C23 O24 1.273 . S
O24 C23 1.273 . S
O25 Zn16 1.977 . S
O25 C18 1.267 . S
C26 O27 1.160 . S
C26 O33 1.185 . S
O27 C26 1.160 . S
O28 Zn29 1.899 . S
O28 C36 1.284 . S
Zn29 O28 1.899 . S
Zn29 O30 2.032 . S
Zn29 O33 2.086 . S
Zn29 O38 1.977 . S
O30 Zn29 2.032 . S
O30 C34 1.278 . S
C31 O32 1.203 . S
C31 O38 1.267 . S
O32 C31 1.203 . S
O33 C26 1.185 . S
O33 Zn29 2.086 . S
C34 O30 1.278 . S
C34 O35 1.211 . S
O35 C34 1.211 . S
C36 O28 1.284 . S
C36 O37 1.273 . S
O37 C36 1.273 . S
O38 Zn29 1.977 . S
O38 C31 1.267 . S
C39 O40 1.160 . S
C39 O46 1.185 . S
O40 C39 1.160 . S
O41 Zn42 1.899 . S
O41 C49 1.284 1_554 S
Zn42 O41 1.899 . S
Zn42 O43 2.032 1_554 S
Zn42 O46 2.086 . S
Zn42 O51 1.977 . S
O43 Zn42 2.032 1_556 S
O43 C47 1.278 . S
C44 O45 1.203 . S
C44 O51 1.267 1_556 S
O45 C44 1.203 . S
O46 C39 1.185 . S
O46 Zn42 2.086 . S
C47 O43 1.278 . S
C47 O48 1.211 . S
O48 C47 1.211 . S
C49 O41 1.284 1_556 S
C49 O50 1.273 . S
O50 C49 1.273 . S
O51 Zn42 1.977 . S
O51 C44 1.267 1_554 S
C52 O53 1.160 . S
C52 O59 1.185 . S
O53 C52 1.160 . S
O54 Zn55 1.899 . S
O54 C62 1.284 . S
Zn55 O54 1.899 . S
Zn55 O56 2.032 . S
Zn55 O59 2.086 . S
Zn55 O64 1.977 . S
O56 Zn55 2.032 . S
O56 C60 1.278 . S
C57 O58 1.240 . S
C57 O64 1.274 . S
O58 C57 1.240 . S
O59 C52 1.185 . S
O59 Zn55 2.086 . S
C60 O56 1.278 . S
C60 O61 1.211 . S
O61 C60 1.211 . S
C62 O54 1.284 . S
C62 O63 1.273 . S
O63 C62 1.273 . S
O64 Zn55 1.977 . S
O64 C57 1.274 . S
C65 O66 1.160 1_556 S
C65 O72 1.185 1_556 S
O66 C65 1.160 1_554 S
O67 Zn68 1.899 . S
O67 C75 1.284 . S
Zn68 O67 1.899 . S
Zn68 O69 2.032 . S
Zn68 O72 2.086 . S
Zn68 O77 1.977 . S
O69 Zn68 2.032 . S
O69 C73 1.278 . S
C70 O71 1.203 . S
C70 O77 1.267 . S
O71 C70 1.203 . S
O72 C65 1.185 1_554 S
O72 Zn68 2.086 . S
C73 O69 1.278 . S
C73 O74 1.211 . S
O74 C73 1.211 . S
C75 O67 1.284 . S
C75 O76 1.273 . S
O76 C75 1.273 . S
O77 Zn68 1.977 . S
O77 C70 1.267 . S
C78 O79 1.160 . S
C78 O85 1.185 . S
O79 C78 1.160 . S
O80 Zn81 1.899 . S
O80 C88 1.284 . S
Zn81 O80 1.899 . S
Zn81 O82 2.032 . S
Zn81 O85 2.086 . S
Zn81 O90 1.977 . S
O82 Zn81 2.032 . S
O82 C86 1.278 . S
C83 O84 1.203 . S
C83 O90 1.267 . S
O84 C83 1.203 . S
O85 C78 1.185 . S
O85 Zn81 2.086 . S
C86 O82 1.278 . S
C86 O87 1.211 . S
O87 C86 1.211 . S
C88 O80 1.284 . S
C88 O89 1.273 . S
O89 C88 1.273 . S
O90 Zn81 1.977 . S
O90 C83 1.267 . S
C91 O92 1.160 . S
C91 O98 1.185 . S
O92 C91 1.160 . S
O93 Zn94 1.899 . S
O93 C101 1.284 . S
Zn94 O93 1.899 . S
Zn94 O95 2.032 . S
Zn94 O98 2.086 . S
Zn94 O103 1.977 . S
O95 Zn94 2.032 . S
O95 C99 1.278 . S
C96 O97 1.203 . S
C96 O103 1.267 . S
O97 C96 1.203 . S
O98 C91 1.185 . S
O98 Zn94 2.086 . S
C99 O95 1.278 . S
C99 O100 1.211 . S
O100 C99 1.211 . S
C101 O93 1.284 . S
C101 O102 1.273 . S
O102 C101 1.273 . S
O103 Zn94 1.977 . S
O103 C96 1.267 . S
C104 O105 1.160 . S
C104 O111 1.185 . S
O105 C104 1.160 . S
O106 Zn107 1.899 . S
O106 C114 1.284 . S
Zn107 O106 1.899 . S
Zn107 O108 2.032 . S
Zn107 O111 2.086 . S
Zn107 O116 1.977 . S
O108 Zn107 2.032 . S
O108 C112 1.278 . S
C109 O110 1.203 . S
C109 O116 1.267 . S
O110 C109 1.203 . S
O111 C104 1.185 . S
O111 Zn107 2.086 . S
C112 O108 1.278 . S
C112 O113 1.211 . S
O113 C112 1.211 . S
C114 O106 1.284 . S
C114 O115 1.273 . S
O115 C114 1.273 . S
O116 Zn107 1.977 . S
O116 C109 1.267 . S
C117 O118 1.160 1_556 S
C117 O124 1.185 1_556 S
O118 C117 1.160 1_554 S
O119 Zn120 1.899 . S
O119 C127 1.284 . S
Zn120 O119 1.899 . S
Zn120 O121 2.032 . S
Zn120 O124 2.086 . S
Zn120 O129 1.977 . S
O121 Zn120 2.032 . S
O121 C125 1.278 . S
C122 O123 1.203 . S
C122 O129 1.267 . S
O123 C122 1.203 . S
O124 C117 1.185 1_554 S
O124 Zn120 2.086 . S
C125 O121 1.278 . S
C125 O126 1.211 . S
O126 C125 1.211 . S
C127 O119 1.284 . S
C127 O128 1.273 . S
O128 C127 1.273 . S
O129 Zn120 1.977 . S
O129 C122 1.267 . S
C130 O131 1.160 . S
C130 O137 1.185 . S
O131 C130 1.160 . S
O132 Zn133 1.899 . S
O132 C140 1.284 1_554 S
Zn133 O132 1.899 . S
Zn133 O134 2.032 1_554 S
Zn133 O137 2.086 . S
Zn133 O142 1.977 . S
O134 Zn133 2.032 1_556 S
O134 C138 1.278 . S
C135 O136 1.203 . S
C135 O142 1.267 1_556 S
O136 C135 1.203 . S
O137 C130 1.185 . S
O137 Zn133 2.086 . S
C138 O134 1.278 . S
C138 O139 1.211 . S
O139 C138 1.211 . S
C140 O132 1.284 1_556 S
C140 O141 1.273 . S
O141 C140 1.273 . S
O142 Zn133 1.977 . S
O142 C135 1.267 1_554 S
C143 O144 1.160 . S
C143 O150 1.185 . S
O144 C143 1.160 . S
O145 Zn146 1.899 . S
O145 C153 1.284 . S
Zn146 O145 1.899 . S
Zn146 O147 2.032 . S
Zn146 O150 2.086 . S
Zn146 O155 1.977 . S
O147 Zn146 2.032 . S
O147 C151 1.278 . S
C148 O149 1.203 . S
C148 O155 1.267 . S
O149 C148 1.203 . S
O150 C143 1.185 . S
O150 Zn146 2.086 . S
C151 O147 1.278 . S
C151 O152 1.211 . S
O152 C151 1.211 . S
C153 O145 1.284 . S
C153 O154 1.273 . S
O154 C153 1.273 . S
O155 Zn146 1.977 . S
O155 C148 1.267 . S
C156 O157 1.160 . S
C156 O163 1.185 . S
O157 C156 1.160 . S
O158 Zn159 1.899 . S
O158 C166 1.284 . S
Zn159 O158 1.899 . S
Zn159 O160 2.032 . S
Zn159 O163 2.086 . S
Zn159 O168 1.977 . S
O160 Zn159 2.032 . S
O160 C164 1.278 . S
C161 O162 1.203 . S
C161 O168 1.267 . S
O162 C161 1.203 . S
O163 C156 1.185 . S
O163 Zn159 2.086 . S
C164 O160 1.278 . S
C164 O165 1.211 . S
O165 C164 1.211 . S
C166 O158 1.284 . S
C166 O167 1.273 . S
O167 C166 1.273 . S
O168 Zn159 1.977 . S
O168 C161 1.267 . S
C169 O170 1.160 . S
C169 O176 1.185 . S
O170 C169 1.160 . S
O171 Zn172 1.899 . S
O171 C179 1.284 1_455 S
Zn172 O171 1.899 . S
Zn172 O173 2.032 . S
Zn172 O176 2.086 . S
Zn172 O181 1.977 . S
O173 Zn172 2.032 . S
O173 C177 1.278 . S
C174 O175 1.203 . S
C174 O181 1.267 . S
O175 C174 1.203 . S
O176 C169 1.185 . S
O176 Zn172 2.086 . S
C177 O173 1.278 . S
C177 O178 1.211 . S
O178 C177 1.211 . S
C179 O171 1.284 1_655 S
C179 O180 1.273 . S
O180 C179 1.273 . S
O181 Zn172 1.977 . S
O181 C174 1.267 . S
C182 O183 1.160 . S
C182 O189 1.185 . S
O183 C182 1.160 . S
O184 Zn185 1.899 . S
O184 C192 1.284 . S
Zn185 O184 1.899 . S
Zn185 O186 2.032 . S
Zn185 O189 2.086 . S
Zn185 O194 1.977 . S
O186 Zn185 2.032 . S
O186 C190 1.278 . S
C187 O188 1.203 . S
C187 O194 1.267 . S
O188 C187 1.203 . S
O189 C182 1.185 . S
O189 Zn185 2.086 . S
C190 O186 1.278 . S
C190 O191 1.211 . S
O191 C190 1.211 . S
C192 O184 1.284 . S
C192 O193 1.273 . S
O193 C192 1.273 . S
O194 Zn185 1.977 . S
O194 C187 1.267 . S
C195 O196 1.160 . S
C195 O202 1.185 . S
O196 C195 1.160 . S
O197 Zn198 1.899 . S
O197 C205 1.284 1_455 S
Zn198 O197 1.899 . S
Zn198 O199 2.032 . S
Zn198 O202 2.086 . S
Zn198 O207 1.977 . S
O199 Zn198 2.032 . S
O199 C203 1.278 . S
C200 O201 1.203 . S
C200 O207 1.267 . S
O201 C200 1.203 . S
O202 C195 1.185 . S
O202 Zn198 2.086 . S
C203 O199 1.278 . S
C203 O204 1.211 . S
O204 C203 1.211 . S
C205 O197 1.284 1_655 S
C205 O206 1.273 . S
O206 C205 1.273 . S
O207 Zn198 1.977 . S
O207 C200 1.267 . S
H208 C216 0.950 . S
H209 C221 0.950 . S
H210 C218 0.950 . S
H211 C220 0.950 . S
H212 C222 0.950 . S
H213 C224 0.950 . S
H214 C226 0.950 . S
H215 C227 0.950 . S
C216 H208 0.950 . S
C216 C217 1.386 . S
C216 C218 1.391 . S
C217 C216 1.386 . S
C217 C221 1.393 . S
C218 H210 0.950 . S
C218 C216 1.391 . S
C218 C219 1.400 . S
C219 C218 1.400 . S
C219 C220 1.398 . S
C219 C225 1.491 . S
C220 H211 0.950 . S
C220 C219 1.398 . S
C220 C221 1.391 . S
C221 H209 0.950 . S
C221 C217 1.393 . S
C221 C220 1.391 . S
C222 H212 0.950 . S
C222 C223 1.386 . S
C222 C224 1.391 . S
C223 C222 1.386 . S
C223 C227 1.393 . S
C224 H213 0.950 . S
C224 C222 1.391 . S
C224 C225 1.400 . S
C225 C219 1.491 . S
C225 C224 1.400 . S
C225 C226 1.398 . S
C226 H214 0.950 . S
C226 C225 1.398 . S
C226 C227 1.391 . S
C227 H215 0.950 . S
C227 C223 1.393 . S
C227 C226 1.391 . S
H228 C236 0.950 . S
H229 C241 0.950 . S
H230 C238 0.950 . S
H231 C240 0.950 . S
H232 C242 0.950 . S
H233 C244 0.950 . S
H234 C246 0.950 . S
H235 C247 0.950 . S
C236 H228 0.950 . S
C236 C237 1.386 . S
C236 C238 1.391 . S
C237 C236 1.386 . S
C237 C241 1.393 . S
C238 H230 0.950 . S
C238 C236 1.391 . S
C238 C239 1.400 . S
C239 C238 1.400 . S
C239 C240 1.398 . S
C239 C245 1.491 . S
C240 H231 0.950 . S
C240 C239 1.398 . S
C240 C241 1.391 . S
C241 H229 0.950 . S
C241 C237 1.393 . S
C241 C240 1.391 . S
C242 H232 0.950 . S
C242 C243 1.386 . S
C242 C244 1.391 . S
C243 C242 1.386 . S
C243 C247 1.393 . S
C244 H233 0.950 . S
C244 C242 1.391 . S
C244 C245 1.400 . S
C245 C239 1.491 . S
C245 C244 1.400 . S
C245 C246 1.398 . S
C246 H234 0.950 . S
C246 C245 1.398 . S
C246 C247 1.391 . S
C247 H235 0.950 . S
C247 C243 1.393 . S
C247 C246 1.391 . S
H248 C256 0.950 . S
H249 C261 0.950 . S
H250 C258 0.950 . S
H251 C260 0.950 . S
H252 C262 0.950 . S
H253 C264 0.950 . S
H254 C266 0.950 . S
H255 C267 0.950 . S
C256 H248 0.950 . S
C256 C257 1.386 . S
C256 C258 1.391 . S
C257 C256 1.386 . S
C257 C261 1.393 . S
C258 H250 0.950 . S
C258 C256 1.391 . S
C258 C259 1.400 . S
C259 C258 1.400 . S
C259 C260 1.398 . S
C259 C265 1.491 . S
C260 H251 0.950 . S
C260 C259 1.398 . S
C260 C261 1.391 . S
C261 H249 0.950 . S
C261 C257 1.393 . S
C261 C260 1.391 . S
C262 H252 0.950 . S
C262 C263 1.386 . S
C262 C264 1.391 . S
C263 C262 1.386 . S
C263 C267 1.393 . S
C264 H253 0.950 . S
C264 C262 1.391 . S
C264 C265 1.400 . S
C265 C259 1.491 . S
C265 C264 1.400 . S
C265 C266 1.398 . S
C266 H254 0.950 . S
C266 C265 1.398 . S
C266 C267 1.391 . S
C267 H255 0.950 . S
C267 C263 1.393 . S
C267 C266 1.391 . S
H268 C276 0.950 . S
H269 C281 0.950 . S
H270 C278 0.950 . S
H271 C280 0.950 . S
H272 C282 0.950 . S
H273 C284 0.950 1_554 S
H274 C286 0.950 . S
H275 C287 0.950 . S
C276 H268 0.950 . S
C276 C277 1.386 . S
C276 C278 1.391 . S
C277 C276 1.386 . S
C277 C281 1.393 1_556 S
C278 H270 0.950 . S
C278 C276 1.391 . S
C278 C279 1.400 . S
C279 C278 1.400 . S
C279 C280 1.398 1_556 S
C279 C285 1.491 . S
C280 H271 0.950 . S
C280 C279 1.398 1_554 S
C280 C281 1.391 . S
C281 H269 0.950 . S
C281 C277 1.393 1_554 S
C281 C280 1.391 . S
C282 H272 0.950 . S
C282 C283 1.386 . S
C282 C284 1.391 . S
C283 C282 1.386 . S
C283 C287 1.393 . S
C284 H273 0.950 1_556 S
C284 C282 1.391 . S
C284 C285 1.400 . S
C285 C279 1.491 . S
C285 C284 1.400 . S
C285 C286 1.398 . S
C286 H274 0.950 . S
C286 C285 1.398 . S
C286 C287 1.391 . S
C287 H275 0.950 . S
C287 C283 1.393 . S
C287 C286 1.391 . S
H288 C296 0.950 . S
H289 C301 0.950 . S
H290 C298 0.950 . S
H291 C300 0.950 1_554 S
H292 C302 0.950 . S
H293 C304 0.950 . S
H294 C306 0.950 . S
H295 C307 0.950 . S
C296 H288 0.950 . S
C296 C297 1.386 . S
C296 C298 1.391 . S
C297 C296 1.386 . S
C297 C301 1.393 . S
C298 H290 0.950 . S
C298 C296 1.391 . S
C298 C299 1.400 . S
C299 C298 1.400 . S
C299 C300 1.398 . S
C299 C305 1.491 . S
C300 H291 0.950 1_556 S
C300 C299 1.398 . S
C300 C301 1.391 . S
C301 H289 0.950 . S
C301 C297 1.393 . S
C301 C300 1.391 . S
C302 H292 0.950 . S
C302 C303 1.386 1_554 S
C302 C304 1.391 . S
C303 C302 1.386 1_556 S
C303 C307 1.393 . S
C304 H293 0.950 . S
C304 C302 1.391 . S
C304 C305 1.400 1_554 S
C305 C299 1.491 . S
C305 C304 1.400 1_556 S
C305 C306 1.398 . S
C306 H294 0.950 . S
C306 C305 1.398 . S
C306 C307 1.391 . S
C307 H295 0.950 . S
C307 C303 1.393 . S
C307 C306 1.391 . S
H308 C316 0.950 . S
H309 C321 0.950 . S
H310 C318 0.950 . S
H311 C320 0.950 . S
H312 C322 0.950 . S
H313 C324 0.950 . S
H314 C326 0.950 . S
H315 C327 0.950 . S
C316 H308 0.950 . S
C316 C317 1.386 . S
C316 C318 1.391 . S
C317 C316 1.386 . S
C317 C321 1.393 . S
C318 H310 0.950 . S
C318 C316 1.391 . S
C318 C319 1.400 . S
C319 C318 1.400 . S
C319 C320 1.398 . S
C319 C325 1.491 . S
C320 H311 0.950 . S
C320 C319 1.398 . S
C320 C321 1.391 . S
C321 H309 0.950 . S
C321 C317 1.393 . S
C321 C320 1.391 . S
C322 H312 0.950 . S
C322 C323 1.386 . S
C322 C324 1.391 . S
C323 C322 1.386 . S
C323 C327 1.393 . S
C324 H313 0.950 . S
C324 C322 1.391 . S
C324 C325 1.400 . S
C325 C319 1.491 . S
C325 C324 1.400 . S
C325 C326 1.398 . S
C326 H314 0.950 . S
C326 C325 1.398 . S
C326 C327 1.391 . S
C327 H315 0.950 . S
C327 C323 1.393 . S
C327 C326 1.391 . S
H328 C336 0.950 . S
H329 C341 0.950 . S
H330 C338 0.950 . S
H331 C340 0.950 . S
H332 C342 0.950 . S
H333 C344 0.950 . S
H334 C346 0.950 . S
H335 C347 0.950 . S
C336 H328 0.950 . S
C336 C337 1.386 . S
C336 C338 1.391 . S
C337 C336 1.386 . S
C337 C341 1.393 . S
C338 H330 0.950 . S
C338 C336 1.391 . S
C338 C339 1.400 . S
C339 C338 1.400 . S
C339 C340 1.398 . S
C339 C345 1.491 . S
C340 H331 0.950 . S
C340 C339 1.398 . S
C340 C341 1.391 . S
C341 H329 0.950 . S
C341 C337 1.393 . S
C341 C340 1.391 . S
C342 H332 0.950 . S
C342 C343 1.386 . S
C342 C344 1.391 . S
C343 C342 1.386 . S
C343 C347 1.393 . S
C344 H333 0.950 . S
C344 C342 1.391 . S
C344 C345 1.400 . S
C345 C339 1.491 . S
C345 C344 1.400 . S
C345 C346 1.398 . S
C346 H334 0.950 . S
C346 C345 1.398 . S
C346 C347 1.391 . S
C347 H335 0.950 . S
C347 C343 1.393 . S
C347 C346 1.391 . S
H348 C356 0.950 . S
H349 C361 0.950 . S
H350 C358 0.950 . S
H351 C360 0.950 . S
H352 C362 0.950 . S
H353 C364 0.950 . S
H354 C366 0.950 . S
H355 C367 0.950 . S
C356 H348 0.950 . S
C356 C357 1.386 . S
C356 C358 1.391 . S
C357 C356 1.386 . S
C357 C361 1.393 . S
C358 H350 0.950 . S
C358 C356 1.391 . S
C358 C359 1.400 . S
C359 C358 1.400 . S
C359 C360 1.398 . S
C359 C365 1.491 . S
C360 H351 0.950 . S
C360 C359 1.398 . S
C360 C361 1.391 . S
C361 H349 0.950 . S
C361 C357 1.393 . S
C361 C360 1.391 . S
C362 H352 0.950 . S
C362 C363 1.386 . S
C362 C364 1.391 . S
C363 C362 1.386 . S
C363 C367 1.393 . S
C364 H353 0.950 . S
C364 C362 1.391 . S
C364 C365 1.400 . S
C365 C359 1.491 . S
C365 C364 1.400 . S
C365 C366 1.398 . S
C366 H354 0.950 . S
C366 C365 1.398 . S
C366 C367 1.391 . S
C367 H355 0.950 . S
C367 C363 1.393 . S
C367 C366 1.391 . S
H368 C376 0.950 1_455 S
H369 C381 0.950 . S
H370 C378 0.950 . S
H371 C380 0.950 . S
H372 C382 0.950 . S
H373 C384 0.950 . S
H374 C386 0.950 . S
H375 C387 0.950 . S
C376 H368 0.950 1_655 S
C376 C377 1.386 . S
C376 C378 1.391 . S
C377 C376 1.386 . S
C377 C381 1.393 . S
C378 H370 0.950 . S
C378 C376 1.391 . S
C378 C379 1.400 . S
C379 C378 1.400 . S
C379 C380 1.398 . S
C379 C385 1.491 . S
C380 H371 0.950 . S
C380 C379 1.398 . S
C380 C381 1.391 . S
C381 H369 0.950 . S
C381 C377 1.393 . S
C381 C380 1.391 . S
C382 H372 0.950 . S
C382 C383 1.386 . S
C382 C384 1.391 . S
C383 C382 1.386 . S
C383 C387 1.393 . S
C384 H373 0.950 . S
C384 C382 1.391 . S
C384 C385 1.400 . S
C385 C379 1.491 . S
C385 C384 1.400 . S
C385 C386 1.398 . S
C386 H374 0.950 . S
C386 C385 1.398 . S
C386 C387 1.391 . S
C387 H375 0.950 . S
C387 C383 1.393 . S
C387 C386 1.391 . S
H388 C396 0.950 . S
H389 C401 0.950 . S
H390 C398 0.950 . S
H391 C400 0.950 . S
H392 C402 0.950 . S
H393 C404 0.950 . S
H394 C406 0.950 . S
H395 C407 0.950 . S
C396 H388 0.950 . S
C396 C397 1.386 . S
C396 C398 1.391 . S
C397 C396 1.386 . S
C397 C401 1.393 . S
C398 H390 0.950 . S
C398 C396 1.391 . S
C398 C399 1.400 . S
C399 C398 1.400 . S
C399 C400 1.398 . S
C399 C405 1.491 . S
C400 H391 0.950 . S
C400 C399 1.398 . S
C400 C401 1.391 . S
C401 H389 0.950 . S
C401 C397 1.393 . S
C401 C400 1.391 . S
C402 H392 0.950 . S
C402 C403 1.386 . S
C402 C404 1.391 . S
C403 C402 1.386 . S
C403 C407 1.393 . S
C404 H393 0.950 . S
C404 C402 1.391 . S
C404 C405 1.400 . S
C405 C399 1.491 . S
C405 C404 1.400 . S
C405 C406 1.398 . S
C406 H394 0.950 . S
C406 C405 1.398 . S
C406 C407 1.391 . S
C407 H395 0.950 . S
C407 C403 1.393 . S
C407 C406 1.391 . S
H408 C416 0.950 . S
H409 C421 0.950 . S
H410 C418 0.950 . S
H411 C420 0.950 . S
H412 C422 0.950 . S
H413 C424 0.950 . S
H414 C426 0.950 . S
H415 C427 0.950 . S
C416 H408 0.950 . S
C416 C417 1.386 . S
C416 C418 1.391 . S
C417 C416 1.386 . S
C417 C421 1.393 . S
C418 H410 0.950 . S
C418 C416 1.391 . S
C418 C419 1.400 . S
C419 C418 1.400 . S
C419 C420 1.398 . S
C419 C425 1.491 . S
C420 H411 0.950 . S
C420 C419 1.398 . S
C420 C421 1.391 . S
C421 H409 0.950 . S
C421 C417 1.393 . S
C421 C420 1.391 . S
C422 H412 0.950 . S
C422 C423 1.386 . S
C422 C424 1.391 . S
C423 C422 1.386 . S
C423 C427 1.393 . S
C424 H413 0.950 . S
C424 C422 1.391 . S
C424 C425 1.400 . S
C425 C419 1.491 . S
C425 C424 1.400 . S
C425 C426 1.398 . S
C426 H414 0.950 . S
C426 C425 1.398 . S
C426 C427 1.391 . S
C427 H415 0.950 . S
C427 C423 1.393 . S
C427 C426 1.391 . S
H428 C436 0.950 . S
H429 C441 0.950 . S
H430 C438 0.950 . S
H431 C440 0.950 . S
H432 C442 0.950 . S
H433 C444 0.950 . S
H434 C446 0.950 . S
H435 C447 0.950 . S
C436 H428 0.950 . S
C436 C437 1.386 . S
C436 C438 1.391 . S
C437 C436 1.386 . S
C437 C441 1.393 . S
C438 H430 0.950 . S
C438 C436 1.391 . S
C438 C439 1.400 . S
C439 C438 1.400 . S
C439 C440 1.398 . S
C439 C445 1.491 . S
C440 H431 0.950 . S
C440 C439 1.398 . S
C440 C441 1.391 . S
C441 H429 0.950 . S
C441 C437 1.393 . S
C441 C440 1.391 . S
C442 H432 0.950 . S
C442 C443 1.386 . S
C442 C444 1.391 . S
C443 C442 1.386 . S
C443 C447 1.393 . S
C444 H433 0.950 . S
C444 C442 1.391 . S
C444 C445 1.400 . S
C445 C439 1.491 . S
C445 C444 1.400 . S
C445 C446 1.398 . S
C446 H434 0.950 . S
C446 C445 1.398 . S
C446 C447 1.391 . S
C447 H435 0.950 . S
C447 C443 1.393 . S
C447 C446 1.391 . S
H448 C456 0.950 . S
H449 C461 0.938 1_455 S
H450 C458 0.950 . S
H451 C460 0.950 . S
H452 C462 0.950 . S
H453 C464 0.950 . S
H454 C466 0.950 . S
H455 C467 0.950 . S
C456 H448 0.950 . S
C456 C457 1.386 . S
C456 C458 1.391 . S
C457 C456 1.386 . S
C457 C461 1.393 . S
C458 H450 0.950 . S
C458 C456 1.391 . S
C458 C459 1.400 . S
C459 C458 1.400 . S
C459 C460 1.398 . S
C459 C465 1.491 . S
C460 H451 0.950 . S
C460 C459 1.398 . S
C460 C461 1.391 . S
C461 H449 0.938 1_655 S
C461 C457 1.393 . S
C461 C460 1.391 . S
C462 H452 0.950 . S
C462 C463 1.386 . S
C462 C464 1.391 . S
C463 C462 1.386 . S
C463 C467 1.393 . S
C464 H453 0.950 . S
C464 C462 1.391 . S
C464 C465 1.400 . S
C465 C459 1.491 . S
C465 C464 1.400 . S
C465 C466 1.398 . S
C466 H454 0.950 . S
C466 C465 1.398 . S
C466 C467 1.391 . S
C467 H455 0.950 . S
C467 C463 1.393 . S
C467 C466 1.391 . S
H468 C476 0.950 . S
H469 C481 0.950 . S
H470 C478 0.950 1_554 S
H471 C480 0.950 . S
H472 C482 0.950 . S
H473 C484 0.950 . S
H474 C486 0.950 . S
H475 C487 0.950 . S
C476 H468 0.950 . S
C476 C477 1.386 . S
C476 C478 1.391 . S
C477 C476 1.386 . S
C477 C481 1.393 . S
C478 H470 0.950 1_556 S
C478 C476 1.391 . S
C478 C479 1.400 . S
C479 C478 1.400 . S
C479 C480 1.398 . S
C479 C485 1.491 . S
C480 H471 0.950 . S
C480 C479 1.398 . S
C480 C481 1.391 . S
C481 H469 0.950 . S
C481 C477 1.393 . S
C481 C480 1.391 . S
C482 H472 0.950 . S
C482 C483 1.386 . S
C482 C484 1.391 . S
C483 C482 1.386 . S
C483 C487 1.393 1_556 S
C484 H473 0.950 . S
C484 C482 1.391 . S
C484 C485 1.400 . S
C485 C479 1.491 . S
C485 C484 1.400 . S
C485 C486 1.398 1_556 S
C486 H474 0.950 . S
C486 C485 1.398 1_554 S
C486 C487 1.391 . S
C487 H475 0.950 . S
C487 C483 1.393 1_554 S
C487 C486 1.391 . S
H488 C496 0.950 . S
H489 C501 0.950 . S
H490 C498 0.950 . S
H491 C500 0.950 . S
H492 C502 0.950 . S
H493 C504 0.950 . S
H494 C506 0.950 . S
H495 C507 0.950 . S
C496 H488 0.950 . S
C496 C497 1.386 . S
C496 C498 1.391 . S
C497 C496 1.386 . S
C497 C501 1.393 . S
C498 H490 0.950 . S
C498 C496 1.391 . S
C498 C499 1.400 . S
C499 C498 1.400 . S
C499 C500 1.398 . S
C499 C505 1.491 . S
C500 H491 0.950 . S
C500 C499 1.398 . S
C500 C501 1.391 . S
C501 H489 0.950 . S
C501 C497 1.393 . S
C501 C500 1.391 . S
C502 H492 0.950 . S
C502 C503 1.386 . S
C502 C504 1.391 . S
C503 C502 1.386 . S
C503 C507 1.393 . S
C504 H493 0.950 . S
C504 C502 1.391 . S
C504 C505 1.400 . S
C505 C499 1.491 . S
C505 C504 1.400 . S
C505 C506 1.398 . S
C506 H494 0.950 . S
C506 C505 1.398 . S
C506 C507 1.391 . S
C507 H495 0.950 . S
C507 C503 1.393 . S
C507 C506 1.391 . S
H508 C516 0.950 . S
H509 C521 0.950 . S
H510 C518 0.950 . S
H511 C520 0.950 . S
H512 C522 0.950 . S
H513 C524 0.950 . S
H514 C526 0.950 . S
H515 C527 0.950 . S
C516 H508 0.950 . S
C516 C517 1.386 . S
C516 C518 1.391 . S
C517 C516 1.386 . S
C517 C521 1.393 . S
C518 H510 0.950 . S
C518 C516 1.391 . S
C518 C519 1.400 . S
C519 C518 1.400 . S
C519 C520 1.398 . S
C519 C525 1.491 . S
C520 H511 0.950 . S
C520 C519 1.398 . S
C520 C521 1.391 . S
C521 H509 0.950 . S
C521 C517 1.393 . S
C521 C520 1.391 . S
C522 H512 0.950 . S
C522 C523 1.386 . S
C522 C524 1.391 . S
C523 C522 1.386 . S
C523 C527 1.393 . S
C524 H513 0.950 . S
C524 C522 1.391 . S
C524 C525 1.400 . S
C525 C519 1.491 . S
C525 C524 1.400 . S
C525 C526 1.398 . S
C526 H514 0.950 . S
C526 C525 1.398 . S
C526 C527 1.391 . S
C527 H515 0.950 . S
C527 C523 1.393 . S
C527 C526 1.391 . S
H528 C536 0.950 . S
H529 C541 0.950 . S
H530 C538 0.950 . S
H531 C540 0.950 . S
H532 C542 0.950 . S
H533 C544 0.950 . S
H534 C546 0.950 . S
H535 C547 0.950 . S
C536 H528 0.950 . S
C536 C537 1.386 . S
C536 C538 1.391 . S
C537 C536 1.386 . S
C537 C541 1.393 . S
C538 H530 0.950 . S
C538 C536 1.391 . S
C538 C539 1.400 . S
C539 C538 1.400 . S
C539 C540 1.398 . S
C539 C545 1.491 . S
C540 H531 0.950 . S
C540 C539 1.398 . S
C540 C541 1.391 . S
C541 H529 0.950 . S
C541 C537 1.393 . S
C541 C540 1.391 . S
C542 H532 0.950 . S
C542 C543 1.386 . S
C542 C544 1.391 . S
C543 C542 1.386 . S
C543 C547 1.393 1_556 S
C544 H533 0.950 . S
C544 C542 1.391 . S
C544 C545 1.400 1_556 S
C545 C539 1.491 . S
C545 C544 1.400 1_554 S
C545 C546 1.398 . S
C546 H534 0.950 . S
C546 C545 1.398 . S
C546 C547 1.391 . S
C547 H535 0.950 . S
C547 C543 1.393 1_554 S
C547 C546 1.391 . S
H548 C556 0.950 . S
H549 C561 0.950 . S
H550 C558 0.950 . S
H551 C560 0.950 . S
H552 C562 0.950 . S
H553 C564 0.950 . S
H554 C566 0.950 . S
H555 C567 0.950 . S
C556 H548 0.950 . S
C556 C557 1.386 . S
C556 C558 1.391 . S
C557 C556 1.386 . S
C557 C561 1.393 . S
C558 H550 0.950 . S
C558 C556 1.391 . S
C558 C559 1.400 . S
C559 C558 1.400 . S
C559 C560 1.398 . S
C559 C565 1.491 . S
C560 H551 0.950 . S
C560 C559 1.398 . S
C560 C561 1.391 . S
C561 H549 0.950 . S
C561 C557 1.393 . S
C561 C560 1.391 . S
C562 H552 0.950 . S
C562 C563 1.386 . S
C562 C564 1.391 . S
C563 C562 1.386 . S
C563 C567 1.393 . S
C564 H553 0.950 . S
C564 C562 1.391 . S
C564 C565 1.400 . S
C565 C559 1.491 . S
C565 C564 1.400 . S
C565 C566 1.398 . S
C566 H554 0.950 . S
C566 C565 1.398 . S
C566 C567 1.391 . S
C567 H555 0.950 . S
C567 C563 1.393 . S
C567 C566 1.391 . S
H568 C576 0.950 . S
H569 C581 0.950 . S
H570 C578 0.950 . S
H571 C580 0.950 . S
H572 C582 0.950 . S
H573 C584 0.950 . S
H574 C586 0.950 . S
H575 C587 0.950 . S
C576 H568 0.950 . S
C576 C577 1.386 . S
C576 C578 1.391 . S
C577 C576 1.386 . S
C577 C581 1.393 . S
C578 H570 0.950 . S
C578 C576 1.391 . S
C578 C579 1.400 . S
C579 C578 1.400 . S
C579 C580 1.398 . S
C579 C585 1.491 . S
C580 H571 0.950 . S
C580 C579 1.398 . S
C580 C581 1.391 . S
C581 H569 0.950 . S
C581 C577 1.393 . S
C581 C580 1.391 . S
C582 H572 0.950 . S
C582 C583 1.386 . S
C582 C584 1.391 . S
C583 C582 1.386 . S
C583 C587 1.393 . S
C584 H573 0.950 . S
C584 C582 1.391 . S
C584 C585 1.400 . S
C585 C579 1.491 . S
C585 C584 1.400 . S
C585 C586 1.398 . S
C586 H574 0.950 . S
C586 C585 1.398 . S
C586 C587 1.391 . S
C587 H575 0.950 . S
C587 C583 1.393 . S
C587 C586 1.391 . S
H588 C596 0.950 . S
H589 C601 0.950 . S
H590 C598 0.950 . S
H591 C600 0.950 . S
H592 C602 0.950 . S
H593 C604 0.950 . S
H594 C606 0.950 . S
H595 C607 0.950 . S
C596 H588 0.950 . S
C596 C597 1.386 . S
C596 C598 1.391 . S
C597 C596 1.386 . S
C597 C601 1.393 . S
C598 H590 0.950 . S
C598 C596 1.391 . S
C598 C599 1.400 . S
C599 C598 1.400 . S
C599 C600 1.398 . S
C599 C605 1.491 . S
C600 H591 0.950 . S
C600 C599 1.398 . S
C600 C601 1.391 . S
C601 H589 0.950 . S
C601 C597 1.393 . S
C601 C600 1.391 . S
C602 H592 0.950 . S
C602 C603 1.386 . S
C602 C604 1.391 . S
C603 C602 1.386 . S
C603 C607 1.393 . S
C604 H593 0.950 . S
C604 C602 1.391 . S
C604 C605 1.400 . S
C605 C599 1.491 . S
C605 C604 1.400 . S
C605 C606 1.398 . S
C606 H594 0.950 . S
C606 C605 1.398 . S
C606 C607 1.391 . S
C607 H595 0.950 . S
C607 C603 1.393 . S
C607 C606 1.391 . S
H608 C616 0.950 . S
H609 C621 0.950 . S
H610 C618 0.950 . S
H611 C620 0.950 . S
H612 C622 0.950 . S
H613 C624 0.950 . S
H614 C626 0.950 . S
H615 C627 0.950 . S
C616 H608 0.950 . S
C616 C617 1.386 . S
C616 C618 1.391 . S
C617 C616 1.386 . S
C617 C621 1.393 . S
C618 H610 0.950 . S
C618 C616 1.391 . S
C618 C619 1.400 . S
C619 C618 1.400 . S
C619 C620 1.398 . S
C619 C625 1.491 . S
C620 H611 0.950 . S
C620 C619 1.398 . S
C620 C621 1.391 . S
C621 H609 0.950 . S
C621 C617 1.393 . S
C621 C620 1.391 . S
C622 H612 0.950 . S
C622 C623 1.386 . S
C622 C624 1.391 . S
C623 C622 1.386 . S
C623 C627 1.393 . S
C624 H613 0.950 . S
C624 C622 1.391 . S
C624 C625 1.400 . S
C625 C619 1.491 . S
C625 C624 1.400 . S
C625 C626 1.398 . S
C626 H614 0.950 . S
C626 C625 1.398 . S
C626 C627 1.391 . S
C627 H615 0.950 . S
C627 C623 1.393 . S
C627 C626 1.391 . S
H628 C636 0.950 . S
H629 C641 0.950 . S
H630 C638 0.950 . S
H631 C640 0.950 . S
H632 C642 0.950 . S
H633 C644 0.950 . S
H634 C646 0.950 . S
H635 C647 0.950 . S
C636 H628 0.950 . S
C636 C637 1.386 . S
C636 C638 1.391 . S
C637 C636 1.386 . S
C637 C641 1.393 . S
C638 H630 0.950 . S
C638 C636 1.391 . S
C638 C639 1.400 . S
C639 C638 1.400 . S
C639 C640 1.398 . S
C639 C645 1.491 . S
C640 H631 0.950 . S
C640 C639 1.398 . S
C640 C641 1.391 . S
C641 H629 0.950 . S
C641 C637 1.393 . S
C641 C640 1.391 . S
C642 H632 0.950 . S
C642 C643 1.386 . S
C642 C644 1.391 . S
C643 C642 1.386 . S
C643 C647 1.393 . S
C644 H633 0.950 . S
C644 C642 1.391 . S
C644 C645 1.400 . S
C645 C639 1.491 . S
C645 C644 1.400 . S
C645 C646 1.398 . S
C646 H634 0.950 . S
C646 C645 1.398 . S
C646 C647 1.391 . S
C647 H635 0.950 . S
C647 C643 1.393 . S
C647 C646 1.391 . S
H648 C656 0.950 . S
H649 C661 0.950 . S
H650 C658 0.950 . S
H651 C660 0.950 1_545 S
H652 C662 0.950 . S
H653 C664 0.950 . S
H654 C666 0.950 1_565 S
H655 C667 0.950 . S
C656 H648 0.950 . S
C656 C657 1.386 . S
C656 C658 1.391 . S
C657 C656 1.386 . S
C657 C661 1.393 . S
C658 H650 0.950 . S
C658 C656 1.391 . S
C658 C659 1.400 . S
C659 C658 1.400 . S
C659 C660 1.398 . S
C659 C665 1.491 1_565 S
C660 H651 0.950 1_565 S
C660 C659 1.398 . S
C660 C661 1.391 . S
C661 H649 0.950 . S
C661 C657 1.393 . S
C661 C660 1.391 . S
C662 H652 0.950 . S
C662 C663 1.386 . S
C662 C664 1.391 . S
C663 C662 1.386 . S
C663 C667 1.393 . S
C664 H653 0.950 . S
C664 C662 1.391 . S
C664 C665 1.400 . S
C665 C659 1.491 1_545 S
C665 C664 1.400 . S
C665 C666 1.398 . S
C666 H654 0.950 1_545 S
C666 C665 1.398 . S
C666 C667 1.391 . S
C667 H655 0.950 . S
C667 C663 1.393 . S
C667 C666 1.391 . S
H668 C676 0.950 . S
H669 C681 0.950 1_655 S
H670 C678 0.950 . S
H671 C680 0.950 1_655 S
H672 C682 0.950 1_655 S
H673 C684 0.950 1_655 S
H674 C686 0.950 . S
H675 C687 0.950 . S
C676 H668 0.950 . S
C676 C677 1.386 . S
C676 C678 1.391 1_556 S
C677 C676 1.386 . S
C677 C681 1.393 . S
C678 H670 0.950 . S
C678 C676 1.391 1_554 S
C678 C679 1.400 . S
C679 C678 1.400 . S
C679 C680 1.398 . S
C679 C685 1.491 1_545 S
C680 H671 0.950 1_455 S
C680 C679 1.398 . S
C680 C681 1.391 1_554 S
C681 H669 0.950 1_455 S
C681 C677 1.393 . S
C681 C680 1.391 1_556 S
C682 H672 0.950 1_455 S
C682 C683 1.386 . S
C682 C684 1.391 . S
C683 C682 1.386 . S
C683 C687 1.393 . S
C684 H673 0.950 1_455 S
C684 C682 1.391 . S
C684 C685 1.400 . S
C685 C679 1.491 1_565 S
C685 C684 1.400 . S
C685 C686 1.398 . S
C686 H674 0.950 . S
C686 C685 1.398 . S
C686 C687 1.391 . S
C687 H675 0.950 . S
C687 C683 1.393 . S
C687 C686 1.391 . S
H688 C696 0.950 . S
H689 C701 0.950 . S
H690 C698 0.950 . S
H691 C700 0.950 . S
H692 C702 0.950 . S
H693 C704 0.950 . S
H694 C706 0.950 . S
H695 C707 0.950 . S
C696 H688 0.950 . S
C696 C697 1.386 . S
C696 C698 1.391 . S
C697 C696 1.386 . S
C697 C701 1.393 . S
C698 H690 0.950 . S
C698 C696 1.391 . S
C698 C699 1.400 . S
C699 C698 1.400 . S
C699 C700 1.398 . S
C699 C705 1.491 . S
C700 H691 0.950 . S
C700 C699 1.398 . S
C700 C701 1.391 . S
C701 H689 0.950 . S
C701 C697 1.393 . S
C701 C700 1.391 . S
C702 H692 0.950 . S
C702 C703 1.386 . S
C702 C704 1.391 . S
C703 C702 1.386 . S
C703 C707 1.393 . S
C704 H693 0.950 . S
C704 C702 1.391 . S
C704 C705 1.400 . S
C705 C699 1.491 . S
C705 C704 1.400 . S
C705 C706 1.398 . S
C706 H694 0.950 . S
C706 C705 1.398 . S
C706 C707 1.391 . S
C707 H695 0.950 . S
C707 C703 1.393 . S
C707 C706 1.391 . S
H708 C716 0.950 . S
H709 C721 0.950 . S
H710 C718 0.950 . S
H711 C720 0.950 . S
H712 C722 0.950 . S
H713 C724 0.950 . S
H714 C726 0.950 . S
H715 C727 0.950 . S
C716 H708 0.950 . S
C716 C717 1.386 . S
C716 C718 1.391 . S
C717 C716 1.386 . S
C717 C721 1.393 . S
C718 H710 0.950 . S
C718 C716 1.391 . S
C718 C719 1.400 . S
C719 C718 1.400 . S
C719 C720 1.398 . S
C719 C725 1.491 . S
C720 H711 0.950 . S
C720 C719 1.398 . S
C720 C721 1.391 . S
C721 H709 0.950 . S
C721 C717 1.393 . S
C721 C720 1.391 . S
C722 H712 0.950 . S
C722 C723 1.386 . S
C722 C724 1.391 . S
C723 C722 1.386 . S
C723 C727 1.393 . S
C724 H713 0.950 . S
C724 C722 1.391 . S
C724 C725 1.400 . S
C725 C719 1.491 . S
C725 C724 1.400 . S
C725 C726 1.398 . S
C726 H714 0.950 . S
C726 C725 1.398 . S
C726 C727 1.391 . S
C727 H715 0.950 . S
C727 C723 1.393 . S
C727 C726 1.391 . S
H728 C736 0.950 . S
H729 C741 0.950 . S
H730 C738 0.950 . S
H731 C740 0.950 . S
H732 C742 0.950 . S
H733 C744 0.950 . S
H734 C746 0.950 . S
H735 C747 0.950 . S
C736 H728 0.950 . S
C736 C737 1.386 . S
C736 C738 1.391 . S
C737 C736 1.386 . S
C737 C741 1.393 . S
C738 H730 0.950 . S
C738 C736 1.391 . S
C738 C739 1.400 . S
C739 C738 1.400 . S
C739 C740 1.398 . S
C739 C745 1.491 . S
C740 H731 0.950 . S
C740 C739 1.398 . S
C740 C741 1.391 . S
C741 H729 0.950 . S
C741 C737 1.393 . S
C741 C740 1.391 . S
C742 H732 0.950 . S
C742 C743 1.386 . S
C742 C744 1.391 1_556 S
C743 C742 1.386 . S
C743 C747 1.393 . S
C744 H733 0.950 . S
C744 C742 1.391 1_554 S
C744 C745 1.400 . S
C745 C739 1.491 . S
C745 C744 1.400 . S
C745 C746 1.398 1_554 S
C746 H734 0.950 . S
C746 C745 1.398 1_556 S
C746 C747 1.391 . S
C747 H735 0.950 . S
C747 C743 1.393 . S
C747 C746 1.391 . S
H748 C756 0.950 . S
H749 C761 0.950 . S
H750 C758 0.950 . S
H751 C760 0.950 . S
H752 C762 0.950 . S
H753 C764 0.950 . S
H754 C766 0.950 . S
H755 C767 0.950 . S
C756 H748 0.950 . S
C756 C757 1.386 . S
C756 C758 1.391 . S
C757 C756 1.386 . S
C757 C761 1.393 . S
C758 H750 0.950 . S
C758 C756 1.391 . S
C758 C759 1.400 . S
C759 C758 1.400 . S
C759 C760 1.398 . S
C759 C765 1.491 . S
C760 H751 0.950 . S
C760 C759 1.398 . S
C760 C761 1.391 . S
C761 H749 0.950 . S
C761 C757 1.393 . S
C761 C760 1.391 . S
C762 H752 0.950 . S
C762 C763 1.386 . S
C762 C764 1.391 . S
C763 C762 1.386 . S
C763 C767 1.393 . S
C764 H753 0.950 . S
C764 C762 1.391 . S
C764 C765 1.400 . S
C765 C759 1.491 . S
C765 C764 1.400 . S
C765 C766 1.398 . S
C766 H754 0.950 . S
C766 C765 1.398 . S
C766 C767 1.391 . S
C767 H755 0.950 . S
C767 C763 1.393 . S
C767 C766 1.391 . S
H768 C776 0.950 . S
H769 C781 0.950 . S
H770 C778 0.950 . S
H771 C780 0.950 . S
H772 C782 0.950 . S
H773 C784 0.950 . S
H774 C786 0.950 . S
H775 C787 0.950 . S
C776 H768 0.950 . S
C776 C777 1.386 . S
C776 C778 1.391 . S
C777 C776 1.386 . S
C777 C781 1.393 . S
C778 H770 0.950 . S
C778 C776 1.391 . S
C778 C779 1.400 . S
C779 C778 1.400 . S
C779 C780 1.398 . S
C779 C785 1.491 . S
C780 H771 0.950 . S
C780 C779 1.398 . S
C780 C781 1.391 . S
C781 H769 0.950 . S
C781 C777 1.393 . S
C781 C780 1.391 . S
C782 H772 0.950 . S
C782 C783 1.386 . S
C782 C784 1.391 . S
C783 C782 1.386 . S
C783 C787 1.393 . S
C784 H773 0.950 . S
C784 C782 1.391 . S
C784 C785 1.400 . S
C785 C779 1.491 . S
C785 C784 1.400 . S
C785 C786 1.398 . S
C786 H774 0.950 . S
C786 C785 1.398 . S
C786 C787 1.391 . S
C787 H775 0.950 . S
C787 C783 1.393 . S
C787 C786 1.391 . S
H788 C796 0.950 . S
H789 C801 0.950 . S
H790 C798 0.950 . S
H791 C800 0.950 . S
H792 C802 0.950 . S
H793 C804 0.950 . S
H794 C806 0.950 . S
H795 C807 0.950 . S
C796 H788 0.950 . S
C796 C797 1.386 . S
C796 C798 1.391 . S
C797 C796 1.386 . S
C797 C801 1.393 . S
C798 H790 0.950 . S
C798 C796 1.391 . S
C798 C799 1.400 . S
C799 C798 1.400 . S
C799 C800 1.398 . S
C799 C805 1.491 . S
C800 H791 0.950 . S
C800 C799 1.398 . S
C800 C801 1.391 . S
C801 H789 0.950 . S
C801 C797 1.393 . S
C801 C800 1.391 . S
C802 H792 0.950 . S
C802 C803 1.386 . S
C802 C804 1.391 . S
C803 C802 1.386 . S
C803 C807 1.393 . S
C804 H793 0.950 . S
C804 C802 1.391 . S
C804 C805 1.400 . S
C805 C799 1.491 . S
C805 C804 1.400 . S
C805 C806 1.398 . S
C806 H794 0.950 . S
C806 C805 1.398 . S
C806 C807 1.391 . S
C807 H795 0.950 . S
C807 C803 1.393 . S
C807 C806 1.391 . S
H808 C816 0.950 . S
H809 C821 0.950 . S
H810 C818 0.950 . S
H811 C820 0.950 1_545 S
H812 C822 0.950 . S
H813 C824 0.950 . S
H814 C826 0.950 1_564 S
H815 C827 0.950 . S
C816 H808 0.950 . S
C816 C817 1.386 . S
C816 C818 1.391 . S
C817 C816 1.386 . S
C817 C821 1.393 . S
C818 H810 0.950 . S
C818 C816 1.391 . S
C818 C819 1.400 . S
C819 C818 1.400 . S
C819 C820 1.398 . S
C819 C825 1.491 1_565 S
C820 H811 0.950 1_565 S
C820 C819 1.398 . S
C820 C821 1.391 . S
C821 H809 0.950 . S
C821 C817 1.393 . S
C821 C820 1.391 . S
C822 H812 0.950 . S
C822 C823 1.386 . S
C822 C824 1.391 1_556 S
C823 C822 1.386 . S
C823 C827 1.393 . S
C824 H813 0.950 . S
C824 C822 1.391 1_554 S
C824 C825 1.400 . S
C825 C819 1.491 1_545 S
C825 C824 1.400 . S
C825 C826 1.398 1_554 S
C826 H814 0.950 1_546 S
C826 C825 1.398 1_556 S
C826 C827 1.391 . S
C827 H815 0.950 . S
C827 C823 1.393 . S
C827 C826 1.391 . S
H828 C836 0.950 . S
H829 C841 0.950 . S
H830 C838 0.950 . S
H831 C840 0.925 1_565 S
H832 C842 0.950 . S
H833 C844 0.950 . S
H834 C846 0.925 1_545 S
H835 C847 0.950 . S
C836 H828 0.950 . S
C836 C837 1.386 . S
C836 C838 1.391 . S
C837 C836 1.386 . S
C837 C841 1.393 . S
C838 H830 0.950 . S
C838 C836 1.391 . S
C838 C839 1.400 . S
C839 C838 1.400 . S
C839 C840 1.406 . S
C839 C845 1.491 1_545 S
C840 H831 0.925 1_545 S
C840 C839 1.406 . S
C840 C841 1.407 . S
C841 H829 0.950 . S
C841 C837 1.393 . S
C841 C840 1.407 . S
C842 H832 0.950 . S
C842 C843 1.386 . S
C842 C844 1.391 . S
C843 C842 1.386 . S
C843 C847 1.393 . S
C844 H833 0.950 . S
C844 C842 1.391 . S
C844 C845 1.400 . S
C845 C839 1.491 1_565 S
C845 C844 1.400 . S
C845 C846 1.406 . S
C846 H834 0.925 1_565 S
C846 C845 1.406 . S
C846 C847 1.407 . S
C847 H835 0.950 . S
C847 C843 1.393 . S
C847 C846 1.407 . S
C217 C127 1.409 . S
C223 C10 1.408 . S
C237 C192 1.407 . S
C243 C23 1.407 . S
C257 C36 1.426 . S
C263 C114 1.426 . S
C277 C49 1.413 . S
C283 C205 1.413 . S
C297 C62 1.410 . S
C303 C140 1.410 . S
C317 C179 1.412 . S
C323 C75 1.411 . S
C337 C153 1.426 . S
C343 C88 1.426 . S
C357 C101 1.407 . S
C363 C166 1.407 . S
C377 C57 1.373 1_655 S
C383 C44 1.416 . S
C397 C161 1.437 . S
C403 C109 1.418 . S
C417 C83 1.430 . S
C423 C18 1.411 . S
C437 C122 1.433 . S
C443 C174 1.432 . S
C457 C5 1.379 1_655 S
C463 C70 1.437 . S
C477 C200 1.433 . S
C483 C135 1.413 . S
C497 C96 1.417 . S
C503 C31 1.415 . S
C517 C148 1.426 . S
C523 C187 1.436 . S
C537 C8 0.463 . S
C543 C60 0.500 . S
C557 C73 0.461 . S
C563 C21 0.499 . S
C577 C86 0.492 . S
C583 C34 0.501 . S
C597 C47 0.504 . S
C603 C99 0.478 . S
C617 C138 0.472 . S
C623 C112 0.443 . S
C637 C151 0.462 . S
C643 C125 0.499 . S
C657 C190 0.503 . S
C663 C164 0.471 . S
C677 C203 0.450 . S
C683 C177 0.451 . S
C697 C52 1.691 . S
C703 C0 1.698 . S
C717 C65 1.699 . S
C723 C13 1.690 . S
C737 C78 1.699 . S
C743 C26 1.690 . S
C757 C39 1.700 . S
C763 C91 1.687 . S
C777 C104 1.699 . S
C783 C130 1.687 . S
C797 C143 1.695 . S
C803 C117 1.690 . S
C817 C182 1.697 . S
C823 C156 1.692 . S
C837 C195 1.699 . S
C843 C169 1.689 . S
