# Generated by pormake.
# Topology wkj, (6)-cn, num edge types: 1
# Building blocks:
#     Node 0, Type 0, BuildingBlock: BETDEL_clean_sbu_0, # of connection points: 6
#     Node 1, Type 0, BuildingBlock: BETDEL_clean_sbu_0, # of connection points: 6
#     Node 2, Type 0, BuildingBlock: BETDEL_clean_sbu_0, # of connection points: 6
#     Node 3, Type 0, BuildingBlock: BETDEL_clean_sbu_0, # of connection points: 6
#     Node 4, Type 0, BuildingBlock: BETDEL_clean_sbu_0, # of connection points: 6
#     Node 5, Type 0, BuildingBlock: BETDEL_clean_sbu_0, # of connection points: 6
#     Node 6, Type 0, BuildingBlock: BETDEL_clean_sbu_0, # of connection points: 6
#     Node 7, Type 0, BuildingBlock: BETDEL_clean_sbu_0, # of connection points: 6
#     Node 8, Type 0, BuildingBlock: BETDEL_clean_sbu_0, # of connection points: 6
#     Node 9, Type 0, BuildingBlock: BETDEL_clean_sbu_0, # of connection points: 6
#     Node 10, Type 0, BuildingBlock: BETDEL_clean_sbu_0, # of connection points: 6
#     Node 11, Type 0, BuildingBlock: BETDEL_clean_sbu_0, # of connection points: 6
#     Edge 12, Type (0, 0), BuildingBlock: ZUJKAS_clean_linker_0, # of connection points: 2
#     Edge 13, Type (0, 0), BuildingBlock: ZUJKAS_clean_linker_0, # of connection points: 2
#     Edge 14, Type (0, 0), BuildingBlock: ZUJKAS_clean_linker_0, # of connection points: 2
#     Edge 15, Type (0, 0), BuildingBlock: ZUJKAS_clean_linker_0, # of connection points: 2
#     Edge 16, Type (0, 0), BuildingBlock: ZUJKAS_clean_linker_0, # of connection points: 2
#     Edge 17, Type (0, 0), BuildingBlock: ZUJKAS_clean_linker_0, # of connection points: 2
#     Edge 18, Type (0, 0), BuildingBlock: ZUJKAS_clean_linker_0, # of connection points: 2
#     Edge 19, Type (0, 0), BuildingBlock: ZUJKAS_clean_linker_0, # of connection points: 2
#     Edge 20, Type (0, 0), BuildingBlock: ZUJKAS_clean_linker_0, # of connection points: 2
#     Edge 21, Type (0, 0), BuildingBlock: ZUJKAS_clean_linker_0, # of connection points: 2
#     Edge 22, Type (0, 0), BuildingBlock: ZUJKAS_clean_linker_0, # of connection points: 2
#     Edge 23, Type (0, 0), BuildingBlock: ZUJKAS_clean_linker_0, # of connection points: 2
#     Edge 24, Type (0, 0), BuildingBlock: ZUJKAS_clean_linker_0, # of connection points: 2
#     Edge 25, Type (0, 0), BuildingBlock: ZUJKAS_clean_linker_0, # of connection points: 2
#     Edge 26, Type (0, 0), BuildingBlock: ZUJKAS_clean_linker_0, # of connection points: 2
#     Edge 27, Type (0, 0), BuildingBlock: ZUJKAS_clean_linker_0, # of connection points: 2
#     Edge 28, Type (0, 0), BuildingBlock: ZUJKAS_clean_linker_0, # of connection points: 2
#     Edge 29, Type (0, 0), BuildingBlock: ZUJKAS_clean_linker_0, # of connection points: 2
#     Edge 30, Type (0, 0), BuildingBlock: ZUJKAS_clean_linker_0, # of connection points: 2
#     Edge 31, Type (0, 0), BuildingBlock: ZUJKAS_clean_linker_0, # of connection points: 2
#     Edge 32, Type (0, 0), BuildingBlock: ZUJKAS_clean_linker_0, # of connection points: 2
#     Edge 33, Type (0, 0), BuildingBlock: ZUJKAS_clean_linker_0, # of connection points: 2
#     Edge 34, Type (0, 0), BuildingBlock: ZUJKAS_clean_linker_0, # of connection points: 2
#     Edge 35, Type (0, 0), BuildingBlock: ZUJKAS_clean_linker_0, # of connection points: 2
#     Edge 36, Type (0, 0), BuildingBlock: ZUJKAS_clean_linker_0, # of connection points: 2
#     Edge 37, Type (0, 0), BuildingBlock: ZUJKAS_clean_linker_0, # of connection points: 2
#     Edge 38, Type (0, 0), BuildingBlock: ZUJKAS_clean_linker_0, # of connection points: 2
#     Edge 39, Type (0, 0), BuildingBlock: ZUJKAS_clean_linker_0, # of connection points: 2
#     Edge 40, Type (0, 0), BuildingBlock: ZUJKAS_clean_linker_0, # of connection points: 2
#     Edge 41, Type (0, 0), BuildingBlock: ZUJKAS_clean_linker_0, # of connection points: 2
#     Edge 42, Type (0, 0), BuildingBlock: ZUJKAS_clean_linker_0, # of connection points: 2
#     Edge 43, Type (0, 0), BuildingBlock: ZUJKAS_clean_linker_0, # of connection points: 2
#     Edge 44, Type (0, 0), BuildingBlock: ZUJKAS_clean_linker_0, # of connection points: 2
#     Edge 45, Type (0, 0), BuildingBlock: ZUJKAS_clean_linker_0, # of connection points: 2
#     Edge 46, Type (0, 0), BuildingBlock: ZUJKAS_clean_linker_0, # of connection points: 2
#     Edge 47, Type (0, 0), BuildingBlock: ZUJKAS_clean_linker_0, # of connection points: 2
# Relax obj value: 0.352
# Max RMSD: 0.192
# Mean RMSD: 0.192
data_MOF--net-wkj--node1-BETDEL_clean_sbu_0--edge1-ZUJKAS_clean_linker_0
_symmetry_space_group_name_H-M    P1
_symmetry_Int_Tables_number       1
_symmetry_cell_setting            triclinic
loop_
_symmetry_equiv_pos_as_xyz
'x, y, z'
_cell_length_a     61.115309
_cell_length_b     61.127878
_cell_length_c     35.092341
_cell_angle_alpha  90.033408
_cell_angle_beta   89.937832
_cell_angle_gamma 119.86888
loop_
_atom_site_label
_atom_site_type_symbol
_atom_site_fract_x
_atom_site_fract_y
_atom_site_fract_z
_atom_type_partial_charge
Dy0 Dy 0.47214 0.07484 0.28141 0.0
C1 C 0.56098 0.14611 0.19957 0.0
C2 C 0.43522 0.04776 0.33389 0.0
Dy3 Dy 0.52426 0.11057 0.24472 0.0
O4 O 0.44634 0.07194 0.32884 0.0
O5 O 0.44367 0.03786 0.30912 0.0
O6 O 0.45509 0.09299 0.24541 0.0
O7 O 0.49252 0.11424 0.26412 0.0
C8 C 0.47586 0.1146 0.24357 0.0
C9 C 0.52267 0.0731 0.28561 0.0
O10 O 0.53228 0.12758 0.30345 0.0
O11 O 0.49783 0.09333 0.33167 0.0
O12 O 0.55776 0.12378 0.20617 0.0
O13 O 0.54425 0.14917 0.21804 0.0
O14 O 0.54342 0.0944 0.27992 0.0
O15 O 0.50514 0.0722 0.26525 0.0
O16 O 0.46498 0.05458 0.2254 0.0
O17 O 0.50037 0.08667 0.19487 0.0
C18 C 0.51955 0.1149 0.33419 0.0
C19 C 0.47875 0.06468 0.19415 0.0
Dy20 Dy 0.36473 0.43223 0.63268 0.0
C21 C 0.40345 0.52761 0.55417 0.0
C22 C 0.35527 0.3913 0.67575 0.0
Dy23 Dy 0.39312 0.48519 0.59395 0.0
O24 O 0.37565 0.40479 0.65595 0.0
O25 O 0.33942 0.39926 0.66972 0.0
O26 O 0.32821 0.43185 0.63084 0.0
O27 O 0.35567 0.45166 0.5886 0.0
C28 C 0.33485 0.44759 0.60252 0.0
C29 C 0.42107 0.46877 0.63071 0.0
O30 O 0.38438 0.49676 0.6508 0.0
O31 O 0.37343 0.45932 0.68258 0.0
O32 O 0.42022 0.52186 0.56552 0.0
O33 O 0.38119 0.51057 0.56576 0.0
O34 O 0.43001 0.48463 0.60233 0.0
O35 O 0.39991 0.46564 0.6389 0.0
O36 O 0.37666 0.42264 0.57592 0.0
O37 O 0.39007 0.46087 0.54454 0.0
C38 C 0.37896 0.4834 0.68288 0.0
C39 C 0.38532 0.43721 0.54483 0.0
Dy40 Dy 0.91761 0.38458 0.95525 0.0
C41 C 0.83869 0.38573 0.86906 0.0
C42 C 0.94922 0.38225 1.008 0.0
Dy43 Dy 0.87747 0.39417 0.91615 0.0
O44 O 0.92774 0.36347 0.99735 0.0
O45 O 0.95407 0.40222 0.98839 0.0
O46 O 0.90248 0.34848 0.92193 0.0
O47 O 0.87822 0.36172 0.93937 0.0
C48 C 0.87966 0.34495 0.9205 0.0
C49 C 0.91259 0.43322 0.95445 0.0
O50 O 0.86096 0.38615 0.97532 0.0
O51 O 0.89623 0.38845 1.00468 0.0
O52 O 0.85588 0.40784 0.88108 0.0
O53 O 0.84268 0.36839 0.88307 0.0
O54 O 0.89013 0.43008 0.94833 0.0
O55 O 0.91562 0.41725 0.93563 0.0
O56 O 0.93769 0.39818 0.89932 0.0
O57 O 0.90472 0.39947 0.86768 0.0
C58 C 0.87391 0.38715 1.00639 0.0
C59 C 0.92757 0.40155 0.86788 0.0
Dy60 Dy 0.51975 0.92026 0.2862 0.0
C61 C 0.4413 0.8414 0.19823 0.0
C62 C 0.5556 0.95325 0.3358 0.0
Dy63 Dy 0.47031 0.87952 0.2473 0.0
O64 O 0.55169 0.93092 0.32731 0.0
O65 O 0.54022 0.95784 0.31644 0.0
O66 O 0.54052 0.9054 0.25109 0.0
O67 O 0.50372 0.88085 0.27045 0.0
C68 C 0.52162 0.88244 0.25074 0.0
C69 C 0.46518 0.91396 0.28609 0.0
O70 O 0.46368 0.86256 0.30614 0.0
O71 O 0.4945 0.89916 0.33562 0.0
O72 O 0.43362 0.85467 0.21711 0.0
O73 O 0.46463 0.84877 0.20669 0.0
O74 O 0.44624 0.89155 0.27881 0.0
O75 O 0.48447 0.91751 0.26737 0.0
O76 O 0.5253 0.94034 0.23065 0.0
O77 O 0.4914 0.90724 0.19898 0.0
C78 C 0.47442 0.87617 0.33733 0.0
C79 C 0.51191 0.93019 0.19921 0.0
Dy80 Dy 0.63102 0.56422 0.6259 0.0
C81 C 0.58537 0.47066 0.54289 0.0
C82 C 0.64669 0.6037 0.6756 0.0
Dy83 Dy 0.59886 0.51131 0.58886 0.0
O84 O 0.65659 0.5893 0.6722 0.0
O85 O 0.62905 0.59729 0.65025 0.0
O86 O 0.66428 0.57169 0.59033 0.0
O87 O 0.63815 0.5344 0.60715 0.0
C88 C 0.65737 0.54788 0.58683 0.0
C89 C 0.57273 0.52938 0.62602 0.0
O90 O 0.59998 0.49703 0.64676 0.0
O91 O 0.61824 0.53639 0.67591 0.0
O92 O 0.57283 0.48259 0.54648 0.0
O93 O 0.60499 0.48063 0.56505 0.0
O94 O 0.56407 0.50532 0.62086 0.0
O95 O 0.59286 0.54158 0.60769 0.0
O96 O 0.62182 0.57564 0.56905 0.0
O97 O 0.60915 0.53738 0.53851 0.0
C98 C 0.6071 0.51131 0.67773 0.0
C99 C 0.61482 0.56135 0.53768 0.0
Dy100 Dy 0.07647 0.60834 0.95427 0.0
C101 C 0.1525 0.60116 0.86805 0.0
C102 C 0.04461 0.61115 1.00628 0.0
Dy103 Dy 0.11499 0.5961 0.91552 0.0
O104 O 0.06741 0.62895 0.99893 0.0
O105 O 0.03873 0.59206 0.9839 0.0
O106 O 0.09411 0.64535 0.92315 0.0
O107 O 0.11635 0.6295 0.93932 0.0
C108 C 0.1163 0.64731 0.92135 0.0
C109 C 0.07775 0.55767 0.95244 0.0
O110 O 0.13209 0.60587 0.97432 0.0
O111 O 0.09636 0.60245 1.00375 0.0
O112 O 0.14072 0.5828 0.8922 0.0
O113 O 0.14368 0.61655 0.86981 0.0
O114 O 0.09937 0.55904 0.94576 0.0
O115 O 0.07644 0.57476 0.93413 0.0
O116 O 0.05692 0.59608 0.8975 0.0
O117 O 0.0882 0.59126 0.86682 0.0
C118 C 0.11886 0.60417 1.00547 0.0
C119 C 0.06632 0.59125 0.8664 0.0
Dy120 Dy 0.90552 0.52846 0.42845 0.0
C121 C 0.83556 0.4407 0.51251 0.0
C122 C 0.93613 0.56481 0.3774 0.0
Dy123 Dy 0.87135 0.47537 0.46534 0.0
O124 O 0.9122 0.55651 0.38214 0.0
O125 O 0.94368 0.55424 0.40226 0.0
O126 O 0.88658 0.54453 0.46455 0.0
O127 O 0.8665 0.50662 0.44663 0.0
C128 C 0.86556 0.52307 0.46716 0.0
C129 C 0.90906 0.47864 0.42321 0.0
O130 O 0.85278 0.4665 0.40799 0.0
O131 O 0.88401 0.50301 0.37906 0.0
O132 O 0.8508 0.43667 0.49161 0.0
O133 O 0.83997 0.46358 0.5076 0.0
O134 O 0.8892 0.45709 0.4315 0.0
O135 O 0.90913 0.49607 0.44277 0.0
O136 O 0.92633 0.53517 0.48426 0.0
O137 O 0.89794 0.49721 0.51382 0.0
C138 C 0.86394 0.48007 0.3771 0.0
C139 C 0.91863 0.51995 0.51453 0.0
Dy140 Dy 0.37101 0.91051 0.75016 0.0
C141 C 0.3887 0.83767 0.82981 0.0
C142 C 0.37097 0.94646 0.70416 0.0
Dy143 Dy 0.38943 0.87581 0.78872 0.0
O144 O 0.35088 0.92633 0.71619 0.0
O145 O 0.39091 0.94768 0.71952 0.0
O146 O 0.33079 0.88067 0.75764 0.0
O147 O 0.35842 0.88343 0.79671 0.0
C148 C 0.33575 0.87023 0.78612 0.0
C149 C 0.423 0.91324 0.74409 0.0
O150 O 0.37425 0.85444 0.73304 0.0
O151 O 0.36814 0.88462 0.70187 0.0
O152 O 0.40898 0.85819 0.81944 0.0
O153 O 0.36885 0.83771 0.81657 0.0
O154 O 0.43008 0.90361 0.77133 0.0
O155 O 0.39961 0.90073 0.74139 0.0
O156 O 0.3885 0.93254 0.80492 0.0
O157 O 0.39712 0.90374 0.83574 0.0
C158 C 0.36883 0.86315 0.70165 0.0
C159 C 0.39682 0.92536 0.83502 0.0
Dy160 Dy 0.46404 0.37346 0.0953 0.0
C161 C 0.55134 0.39109 0.17999 0.0
C162 C 0.42607 0.36542 0.04633 0.0
Dy163 Dy 0.51608 0.39017 0.13144 0.0
O164 O 0.43353 0.3494 0.05386 0.0
O165 O 0.43882 0.38568 0.0667 0.0
O166 O 0.4487 0.33734 0.12824 0.0
O167 O 0.48612 0.35522 0.10788 0.0
C168 C 0.46983 0.33709 0.12737 0.0
C169 C 0.51239 0.42698 0.09759 0.0
O170 O 0.52632 0.38638 0.07087 0.0
O171 O 0.49004 0.38363 0.04466 0.0
O172 O 0.55142 0.41079 0.16592 0.0
O173 O 0.53242 0.37074 0.16608 0.0
O174 O 0.53381 0.42753 0.10218 0.0
O175 O 0.49517 0.40867 0.116 0.0
O176 O 0.45516 0.38315 0.15277 0.0
O177 O 0.49142 0.38778 0.18199 0.0
C178 C 0.51304 0.38668 0.04092 0.0
C179 C 0.46896 0.38642 0.18377 0.0
Dy180 Dy 0.08684 0.46721 0.43068 0.0
C181 C 0.16538 0.54942 0.5145 0.0
C182 C 0.0539 0.43277 0.37974 0.0
Dy183 Dy 0.1267 0.51807 0.46806 0.0
O184 O 0.07683 0.43763 0.38569 0.0
O185 O 0.04849 0.44598 0.40297 0.0
O186 O 0.10416 0.44756 0.46249 0.0
O187 O 0.12656 0.48519 0.44483 0.0
C188 C 0.12649 0.46757 0.46335 0.0
C189 C 0.09023 0.52016 0.43063 0.0
O190 O 0.14232 0.52591 0.40826 0.0
O191 O 0.10668 0.49241 0.38062 0.0
O192 O 0.14832 0.55417 0.50111 0.0
O193 O 0.16137 0.52773 0.50209 0.0
O194 O 0.11233 0.54002 0.43631 0.0
O195 O 0.08819 0.50167 0.44974 0.0
O196 O 0.06795 0.46087 0.48765 0.0
O197 O 0.10028 0.49654 0.51748 0.0
C198 C 0.12877 0.51357 0.3778 0.0
C199 C 0.078 0.47519 0.51838 0.0
Dy200 Dy 0.61474 0.08611 0.76212 0.0
C201 C 0.61055 0.16525 0.84585 0.0
C202 C 0.61469 0.05272 0.7101 0.0
Dy203 Dy 0.60625 0.12785 0.79881 0.0
O204 O 0.63439 0.07369 0.72035 0.0
O205 O 0.59529 0.04939 0.72991 0.0
O206 O 0.65009 0.10002 0.797 0.0
O207 O 0.63846 0.12535 0.77855 0.0
C208 C 0.65433 0.12311 0.79852 0.0
C209 C 0.56768 0.09367 0.75867 0.0
O210 O 0.61603 0.14407 0.73941 0.0
O211 O 0.61303 0.10796 0.71193 0.0
O212 O 0.58943 0.146 0.83482 0.0
O213 O 0.62945 0.16434 0.83052 0.0
O214 O 0.57167 0.11648 0.76387 0.0
O215 O 0.58257 0.08991 0.77904 0.0
O216 O 0.59879 0.06635 0.81746 0.0
O217 O 0.60049 0.10105 0.84816 0.0
C218 C 0.6151 0.13056 0.70899 0.0
C219 C 0.59632 0.0774 0.84854 0.0
Dy220 Dy 0.53161 0.62404 0.09164 0.0
C221 C 0.44869 0.61124 0.18295 0.0
C222 C 0.56817 0.62987 0.04108 0.0
Dy223 Dy 0.48085 0.60954 0.13043 0.0
O224 O 0.5629 0.64725 0.05053 0.0
O225 O 0.55395 0.60942 0.06025 0.0
O226 O 0.54843 0.66079 0.12329 0.0
O227 O 0.51074 0.64361 0.10451 0.0
C228 C 0.52774 0.66189 0.1229 0.0
C229 C 0.48208 0.57138 0.09694 0.0
O230 O 0.46979 0.61341 0.07033 0.0
O231 O 0.50473 0.61409 0.04248 0.0
O232 O 0.4451 0.59117 0.16479 0.0
O233 O 0.46928 0.63066 0.17067 0.0
O234 O 0.46118 0.57167 0.10292 0.0
O235 O 0.50021 0.58962 0.11419 0.0
O236 O 0.54139 0.61449 0.14836 0.0
O237 O 0.50588 0.61042 0.1794 0.0
C238 C 0.48207 0.61197 0.03978 0.0
C239 C 0.52817 0.61138 0.17997 0.0
H240 H 0.50504 0.16189 0.27154 0.0
H241 H 0.50458 0.20016 0.25306 0.0
H242 H 0.45082 0.15875 0.1642 0.0
H243 H 0.44977 0.11994 0.18489 0.0
H244 H 0.51712 0.22819 0.19603 0.0
H245 H 0.41432 0.18922 0.21136 0.0
H246 H 0.42956 0.17187 0.22597 0.0
H247 H 0.42085 0.17168 0.17679 0.0
C248 C 0.49306 0.16099 0.24814 0.0
C249 C 0.47717 0.13799 0.22989 0.0
C250 C 0.49282 0.18288 0.23752 0.0
C251 C 0.47713 0.18235 0.20784 0.0
C252 C 0.46229 0.15955 0.18822 0.0
H253 H 0.50044 0.32059 0.09891 0.0
H254 H 0.50273 0.2835 0.11894 0.0
C255 C 0.4619 0.13743 0.1997 0.0
C256 C 0.47653 0.2057 0.19756 0.0
H257 H 0.43684 0.22859 0.17894 0.0
C258 C 0.49952 0.22828 0.19267 0.0
C259 C 0.45365 0.20616 0.19399 0.0
C260 C 0.42826 0.18349 0.20275 0.0
C261 C 0.5003 0.2511 0.18407 0.0
C262 C 0.47742 0.25116 0.17793 0.0
C263 C 0.45444 0.22864 0.18314 0.0
C264 C 0.47669 0.27422 0.16621 0.0
C265 C 0.5257 0.27493 0.18298 0.0
C266 C 0.46056 0.28097 0.185 0.0
C267 C 0.45845 0.30155 0.17249 0.0
C268 C 0.47286 0.31611 0.14154 0.0
C269 C 0.48938 0.3098 0.12321 0.0
C270 C 0.49088 0.28873 0.13492 0.0
H271 H 0.53954 0.27331 0.20154 0.0
H272 H 0.53319 0.27816 0.15346 0.0
H273 H 0.5244 0.29161 0.1923 0.0
H274 H 0.44937 0.27016 0.20918 0.0
H275 H 0.44561 0.30613 0.18707 0.0
H276 H 0.29402 0.44499 0.63616 0.0
H277 H 0.26268 0.45371 0.60813 0.0
H278 H 0.30521 0.47657 0.50332 0.0
H279 H 0.33696 0.46776 0.53149 0.0
H280 H 0.26806 0.49945 0.57275 0.0
H281 H 0.23277 0.41655 0.47555 0.0
H282 H 0.25216 0.42014 0.51649 0.0
H283 H 0.26604 0.4391 0.47487 0.0
C284 C 0.29686 0.45208 0.60723 0.0
C285 C 0.31776 0.45549 0.58583 0.0
C286 C 0.27898 0.45715 0.59134 0.0
C287 C 0.28152 0.46553 0.55361 0.0
C288 C 0.30286 0.46988 0.53243 0.0
H289 H 0.17497 0.50417 0.45021 0.0
H290 H 0.21361 0.50525 0.47134 0.0
C291 C 0.32098 0.46496 0.54853 0.0
C292 C 0.26084 0.46816 0.53647 0.0
H293 H 0.21031 0.43849 0.47667 0.0
C294 C 0.25561 0.4864 0.55133 0.0
C295 C 0.24447 0.45078 0.50903 0.0
C296 C 0.2489 0.43039 0.49305 0.0
C297 C 0.23415 0.48746 0.53986 0.0
C298 C 0.21763 0.46986 0.51278 0.0
C299 C 0.22307 0.45191 0.49745 0.0
C300 C 0.19423 0.46941 0.50063 0.0
C301 C 0.22881 0.5068 0.55769 0.0
C302 C 0.17055 0.44872 0.50978 0.0
C303 C 0.1484 0.44814 0.49801 0.0
C304 C 0.14966 0.46818 0.47674 0.0
C305 C 0.17342 0.4887 0.46727 0.0
C306 C 0.19551 0.48934 0.47921 0.0
H307 H 0.24076 0.51581 0.58313 0.0
H308 H 0.23265 0.52178 0.53654 0.0
H309 H 0.20866 0.49802 0.56616 0.0
H310 H 0.16925 0.4331 0.52616 0.0
H311 H 0.13033 0.43204 0.50546 0.0
H312 H 0.8302 0.32982 0.93315 0.0
H313 H 0.79329 0.29064 0.91251 0.0
H314 H 0.84183 0.26769 0.85766 0.0
H315 H 0.879 0.30728 0.87769 0.0
H316 H 0.80044 0.26031 0.81285 0.0
H317 H 0.77007 0.22045 0.95781 0.0
H318 H 0.77461 0.25167 0.95263 0.0
H319 H 0.80112 0.24669 0.94795 0.0
C320 C 0.83303 0.31654 0.91641 0.0
C321 C 0.85745 0.32161 0.90686 0.0
C322 C 0.81193 0.29404 0.905 0.0
C323 C 0.81485 0.27607 0.88416 0.0
C324 C 0.83921 0.28125 0.87399 0.0
H325 H 0.69154 0.12233 0.8407 0.0
H326 H 0.73155 0.15875 0.86133 0.0
C327 C 0.86038 0.30382 0.88542 0.0
C328 C 0.79238 0.2521 0.87253 0.0
H329 H 0.7403 0.20011 0.90767 0.0
C330 C 0.78739 0.24703 0.83354 0.0
C331 C 0.77559 0.23464 0.89961 0.0
C332 C 0.78068 0.23845 0.94185 0.0
C333 C 0.76555 0.22538 0.82089 0.0
C334 C 0.74812 0.20858 0.84799 0.0
C335 C 0.75357 0.21317 0.88697 0.0
C336 C 0.72379 0.18655 0.83639 0.0
C337 C 0.76133 0.22068 0.77861 0.0
C338 C 0.70601 0.19018 0.81634 0.0
C339 C 0.68328 0.16951 0.8046 0.0
C340 C 0.67778 0.14481 0.813 0.0
C341 C 0.69533 0.14117 0.83384 0.0
C342 C 0.71814 0.16192 0.8456 0.0
H343 H 0.77926 0.2311 0.76237 0.0
H344 H 0.75262 0.20026 0.77201 0.0
H345 H 0.74837 0.22726 0.7686 0.0
H346 H 0.70978 0.20903 0.8096 0.0
H347 H 0.6702 0.1729 0.78836 0.0
H348 H 0.49913 0.67988 0.0916 0.0
H349 H 0.49891 0.71861 0.10846 0.0
H350 H 0.55084 0.73139 0.20047 0.0
H351 H 0.55264 0.69378 0.18143 0.0
H352 H 0.48453 0.73351 0.16356 0.0
H353 H 0.58715 0.79879 0.1559 0.0
H354 H 0.57314 0.76648 0.14046 0.0
H355 H 0.58059 0.77457 0.19009 0.0
C356 C 0.5106 0.69111 0.11527 0.0
C357 C 0.52615 0.68413 0.13498 0.0
C358 C 0.51048 0.71325 0.12495 0.0
C359 C 0.52543 0.72851 0.15515 0.0
C360 C 0.54001 0.72072 0.17602 0.0
H361 H 0.49378 0.83376 0.27321 0.0
H362 H 0.49483 0.79713 0.24796 0.0
C363 C 0.54079 0.69904 0.16548 0.0
C364 C 0.52517 0.75209 0.16533 0.0
H365 H 0.56314 0.81393 0.1898 0.0
C366 C 0.5018 0.75115 0.1688 0.0
C367 C 0.5476 0.77546 0.1712 0.0
C368 C 0.57349 0.77895 0.16375 0.0
C369 C 0.50019 0.77254 0.17893 0.0
C370 C 0.52252 0.79526 0.18814 0.0
C371 C 0.54593 0.79645 0.18353 0.0
C372 C 0.52204 0.81776 0.20349 0.0
C373 C 0.47454 0.77053 0.17871 0.0
C374 C 0.53793 0.84196 0.18835 0.0
C375 C 0.53806 0.86316 0.20384 0.0
C376 C 0.52198 0.86043 0.23426 0.0
C377 C 0.50612 0.83632 0.24937 0.0
C378 C 0.5065 0.8153 0.23463 0.0
H379 H 0.46183 0.75627 0.15765 0.0
H380 H 0.46569 0.76427 0.20719 0.0
H381 H 0.47582 0.78885 0.17176 0.0
H382 H 0.55024 0.84447 0.16451 0.0
H383 H 0.55045 0.8816 0.19175 0.0
H384 H 0.69741 0.57405 0.54007 0.0
H385 H 0.72815 0.56215 0.51879 0.0
H386 H 0.68634 0.4907 0.57655 0.0
H387 H 0.65532 0.50252 0.59795 0.0
H388 H 0.73969 0.51989 0.59471 0.0
H389 H 0.72223 0.50907 0.43897 0.0
H390 H 0.72464 0.5374 0.45839 0.0
H391 H 0.69904 0.50722 0.47279 0.0
C392 C 0.69454 0.55564 0.54774 0.0
C393 C 0.67404 0.53922 0.57067 0.0
C394 C 0.71205 0.54882 0.53543 0.0
C395 C 0.7094 0.52548 0.54587 0.0
C396 C 0.68861 0.50874 0.56805 0.0
H397 H 0.81782 0.48356 0.45777 0.0
H398 H 0.77833 0.4805 0.47983 0.0
C399 C 0.6709 0.51548 0.58011 0.0
C400 C 0.72952 0.51969 0.53592 0.0
H401 H 0.76205 0.51499 0.46024 0.0
C402 C 0.74438 0.51841 0.56535 0.0
C403 C 0.73541 0.51754 0.49765 0.0
C404 C 0.71937 0.51763 0.46509 0.0
C405 C 0.7658 0.51633 0.55737 0.0
C406 C 0.77258 0.51577 0.519 0.0
C407 C 0.75695 0.5157 0.48965 0.0
C408 C 0.79648 0.51659 0.50857 0.0
C409 C 0.7812 0.51512 0.59 0.0
C410 C 0.81975 0.53787 0.51758 0.0
C411 C 0.84231 0.53969 0.50497 0.0
C412 C 0.84195 0.52026 0.48314 0.0
C413 C 0.81866 0.49874 0.47481 0.0
C414 C 0.7961 0.49698 0.48727 0.0
H415 H 0.77002 0.50882 0.61677 0.0
H416 H 0.78844 0.5021 0.5834 0.0
H417 H 0.79762 0.53419 0.59499 0.0
H418 H 0.82042 0.55341 0.53341 0.0
H419 H 0.85999 0.55651 0.51166 0.0
H420 H 0.30579 0.82686 0.74911 0.0
H421 H 0.2706 0.78831 0.77536 0.0
H422 H 0.28665 0.82222 0.88726 0.0
H423 H 0.32333 0.86005 0.86124 0.0
H424 H 0.27045 0.77541 0.89554 0.0
H425 H 0.20486 0.78258 0.79529 0.0
H426 H 0.22814 0.77904 0.7694 0.0
H427 H 0.23752 0.80669 0.79849 0.0
C428 C 0.30197 0.8258 0.77942 0.0
C429 C 0.31691 0.84628 0.80324 0.0
C430 C 0.28168 0.80395 0.79434 0.0
C431 C 0.27517 0.8027 0.83301 0.0
C432 C 0.29101 0.82279 0.85723 0.0
H433 H 0.1214 0.69259 0.90043 0.0
H434 H 0.16023 0.73107 0.88305 0.0
C435 C 0.31194 0.84437 0.84246 0.0
C436 C 0.25154 0.78081 0.84774 0.0
H437 H 0.18896 0.74321 0.82782 0.0
C438 C 0.25257 0.76854 0.88096 0.0
C439 C 0.22794 0.77217 0.82952 0.0
C440 C 0.2245 0.78603 0.79651 0.0
C441 C 0.23089 0.7476 0.89584 0.0
C442 C 0.20773 0.73773 0.87577 0.0
C443 C 0.20666 0.75037 0.84303 0.0
C444 C 0.18432 0.71451 0.88802 0.0
C445 C 0.23308 0.73692 0.93349 0.0
C446 C 0.18466 0.69223 0.89656 0.0
C447 C 0.16262 0.67053 0.9079 0.0
C448 C 0.1395 0.67021 0.90899 0.0
C449 C 0.13893 0.69222 0.89951 0.0
C450 C 0.16115 0.71422 0.88953 0.0
H451 H 0.24843 0.75162 0.95119 0.0
H452 H 0.21523 0.72884 0.95 0.0
H453 H 0.23786 0.72188 0.92822 0.0
H454 H 0.20195 0.6915 0.89436 0.0
H455 H 0.16373 0.65399 0.91574 0.0
H456 H 0.57267 0.16062 0.89098 0.0
H457 H 0.57669 0.17985 0.95267 0.0
H458 H 0.65699 0.22701 0.93519 0.0
H459 H 0.65308 0.20616 0.8738 0.0
H460 H 0.65208 0.20718 0.9975 0.0
H461 H 0.58327 0.23864 1.00481 0.0
H462 H 0.56587 0.20754 0.98554 0.0
H463 H 0.59245 0.23182 0.9594 0.0
C464 C 0.59109 0.17562 0.89969 0.0
C465 C 0.61259 0.18174 0.87785 0.0
C466 C 0.59337 0.18698 0.93499 0.0
C467 C 0.61713 0.20533 0.94876 0.0
C468 C 0.63843 0.21297 0.92534 0.0
H469 H 0.57236 0.19465 0.18507 0.0
H470 H 0.59574 0.22056 0.13002 0.0
C471 C 0.6362 0.20113 0.89022 0.0
C472 C 0.61979 0.21229 0.98984 0.0
H473 H 0.58309 0.21303 0.06226 0.0
C474 C 0.63753 0.20944 1.01158 0.0
C475 C 0.60191 0.21663 1.00901 0.0
C476 C 0.58509 0.22416 0.9882 0.0
C477 C 0.63527 0.20686 0.0513 0.0
C478 C 0.61404 0.20577 0.06938 0.0
C479 C 0.59878 0.21264 0.04847 0.0
C480 C 0.60464 0.19305 0.10679 0.0
C481 C 0.65497 0.20399 0.07304 0.0
C482 C 0.60227 0.1692 0.11271 0.0
C483 C 0.5895 0.15476 0.1444 0.0
C484 C 0.5781 0.16344 0.17032 0.0
C485 C 0.58107 0.18758 0.16541 0.0
C486 C 0.59438 0.20235 0.13397 0.0
H487 H 0.67406 0.2171 0.06155 0.0
H488 H 0.65472 0.20781 0.10393 0.0
H489 H 0.65167 0.18455 0.06918 0.0
H490 H 0.60894 0.16095 0.09164 0.0
H491 H 0.58725 0.1361 0.14727 0.0
H492 H 0.46418 0.64884 0.2358 0.0
H493 H 0.45428 0.64287 0.30403 0.0
H494 H 0.39846 0.5652 0.28336 0.0
H495 H 0.40832 0.57094 0.21528 0.0
H496 H 0.40408 0.61667 0.35402 0.0
H497 H 0.46276 0.57059 0.3448 0.0
H498 H 0.46385 0.59238 0.30914 0.0
H499 H 0.43788 0.56061 0.31019 0.0
C500 C 0.44907 0.63078 0.24559 0.0
C501 C 0.43721 0.61024 0.22037 0.0
C502 C 0.44348 0.62741 0.28457 0.0
C503 C 0.42588 0.60353 0.29861 0.0
C504 C 0.41215 0.58375 0.27295 0.0
H505 H 0.36833 0.53247 0.51323 0.0
H506 H 0.37551 0.55637 0.45436 0.0
C507 C 0.41777 0.58707 0.23407 0.0
C508 C 0.42497 0.59801 0.33978 0.0
H509 H 0.44167 0.56656 0.4029 0.0
C510 C 0.41242 0.60589 0.36495 0.0
C511 C 0.43642 0.58449 0.35392 0.0
C512 C 0.45119 0.57664 0.32829 0.0
C513 C 0.41018 0.59966 0.40393 0.0
C514 C 0.42042 0.58485 0.41768 0.0
C515 C 0.43378 0.57788 0.39252 0.0
C516 C 0.41628 0.57474 0.45717 0.0
C517 C 0.39695 0.60904 0.42991 0.0
C518 C 0.43676 0.57729 0.47883 0.0
C519 C 0.43266 0.56325 0.51217 0.0
C520 C 0.408 0.54653 0.52454 0.0
C521 C 0.38756 0.54538 0.50449 0.0
C522 C 0.39166 0.55919 0.47089 0.0
H523 H 0.3984 0.62674 0.41885 0.0
H524 H 0.37662 0.59465 0.43143 0.0
H525 H 0.40487 0.6125 0.45918 0.0
H526 H 0.45592 0.58912 0.4688 0.0
H527 H 0.44874 0.56446 0.52709 0.0
H528 H 0.80657 0.34103 0.83503 0.0
H529 H 0.78661 0.33572 0.77263 0.0
H530 H 0.81185 0.41531 0.76927 0.0
H531 H 0.83183 0.42079 0.83157 0.0
H532 H 0.76072 0.37795 0.7301 0.0
H533 H 0.84573 0.3712 0.6906 0.0
H534 H 0.82462 0.3503 0.72646 0.0
H535 H 0.84337 0.3834 0.73627 0.0
C536 C 0.80707 0.35723 0.82158 0.0
C537 C 0.82112 0.38142 0.8376 0.0
C538 C 0.79559 0.35412 0.78606 0.0
C539 C 0.79802 0.37517 0.76637 0.0
C540 C 0.80972 0.39885 0.78421 0.0
H541 H 0.81348 0.45228 0.56993 0.0
H542 H 0.79511 0.42792 0.62755 0.0
C543 C 0.82124 0.40198 0.81966 0.0
C544 C 0.79367 0.37397 0.72493 0.0
H545 H 0.82474 0.37891 0.6421 0.0
C546 C 0.77428 0.37754 0.71057 0.0
C547 C 0.81124 0.37311 0.69964 0.0
C548 C 0.83251 0.36938 0.71376 0.0
C549 C 0.77291 0.38177 0.67151 0.0
C550 C 0.79196 0.38334 0.64673 0.0
C551 C 0.81011 0.37775 0.66089 0.0
C552 C 0.79644 0.39488 0.60825 0.0
C553 C 0.75148 0.38517 0.65752 0.0
C554 C 0.80315 0.38449 0.57769 0.0
C555 C 0.81458 0.39887 0.54514 0.0
C556 C 0.81905 0.42366 0.54246 0.0
C557 C 0.81022 0.43317 0.57134 0.0
C558 C 0.79933 0.41905 0.60418 0.0
H559 H 0.73387 0.37263 0.67343 0.0
H560 H 0.75602 0.40489 0.66287 0.0
H561 H 0.74795 0.38107 0.6266 0.0
H562 H 0.80116 0.36592 0.58014 0.0
H563 H 0.82111 0.3911 0.52304 0.0
H564 H 0.34734 0.80168 0.86737 0.0
H565 H 0.34736 0.78517 0.93092 0.0
H566 H 0.4285 0.82113 0.92744 0.0
H567 H 0.42867 0.83778 0.86402 0.0
H568 H 0.39568 0.76855 0.97259 0.0
H569 H 0.38253 0.85056 1.00623 0.0
H570 H 0.36218 0.82787 0.97146 0.0
H571 H 0.39502 0.8479 0.96096 0.0
C572 C 0.36509 0.80517 0.87946 0.0
C573 C 0.38805 0.82133 0.86115 0.0
C574 C 0.36505 0.79568 0.91572 0.0
C575 C 0.38794 0.80214 0.93382 0.0
C576 C 0.41066 0.81588 0.91377 0.0
H577 H 0.46048 0.82368 0.14441 0.0
H578 H 0.44196 0.80637 0.0825 0.0
C579 C 0.41073 0.82545 0.87761 0.0
C580 C 0.38881 0.79979 0.97557 0.0
H581 H 0.39064 0.83111 0.0568 0.0
C582 C 0.39415 0.78187 0.99127 0.0
C583 C 0.38674 0.8172 0.99966 0.0
C584 C 0.3814 0.83709 0.98398 0.0
C585 C 0.39813 0.78137 0.03068 0.0
C586 C 0.39741 0.79972 0.05454 0.0
C587 C 0.39102 0.8169 0.03874 0.0
C588 C 0.40597 0.80376 0.09485 0.0
C589 C 0.40324 0.76135 0.04617 0.0
C590 C 0.39187 0.8077 0.12295 0.0
C591 C 0.40276 0.81836 0.15804 0.0
C592 C 0.4278 0.82491 0.16575 0.0
C593 C 0.44109 0.81877 0.13916 0.0
C594 C 0.43038 0.80858 0.1038 0.0
H595 H 0.39334 0.74377 0.02904 0.0
H596 H 0.42377 0.76814 0.04431 0.0
H597 H 0.39722 0.75683 0.07636 0.0
H598 H 0.37301 0.80415 0.11675 0.0
H599 H 0.3921 0.82281 0.17819 0.0
H600 H 0.54627 0.35136 0.2228 0.0
H601 H 0.55775 0.35347 0.29023 0.0
H602 H 0.59562 0.43477 0.28532 0.0
H603 H 0.58535 0.43276 0.21806 0.0
H604 H 0.61782 0.42007 0.33589 0.0
H605 H 0.5138 0.36716 0.35955 0.0
H606 H 0.52677 0.35074 0.33414 0.0
H607 H 0.52729 0.37779 0.31297 0.0
C608 C 0.55789 0.36965 0.23586 0.0
C609 C 0.56451 0.39191 0.21554 0.0
C610 C 0.56417 0.37083 0.27447 0.0
C611 C 0.57667 0.39425 0.2932 0.0
C612 C 0.58571 0.41645 0.27167 0.0
H613 H 0.55325 0.45807 0.48316 0.0
H614 H 0.5514 0.43358 0.4272 0.0
C615 C 0.57981 0.4153 0.23313 0.0
C616 C 0.57748 0.39622 0.33541 0.0
H617 H 0.53924 0.38678 0.412 0.0
C618 C 0.60071 0.41242 0.35283 0.0
C619 C 0.55505 0.38627 0.35736 0.0
C620 C 0.52928 0.36967 0.34017 0.0
C621 C 0.60199 0.42071 0.39052 0.0
C622 C 0.57942 0.41166 0.41188 0.0
C623 C 0.55647 0.3937 0.39552 0.0
C624 C 0.57855 0.42353 0.44837 0.0
C625 C 0.62723 0.44069 0.40577 0.0
C626 C 0.5937 0.4253 0.47961 0.0
C627 C 0.59514 0.43979 0.51143 0.0
C628 C 0.58094 0.45212 0.51279 0.0
C629 C 0.56439 0.44875 0.48284 0.0
C630 C 0.56332 0.43473 0.45084 0.0
H631 H 0.64175 0.44908 0.383 0.0
H632 H 0.62559 0.45612 0.41974 0.0
H633 H 0.63401 0.43214 0.42724 0.0
H634 H 0.60502 0.41621 0.4789 0.0
H635 H 0.60791 0.44198 0.53438 0.0
H636 H 0.17343 0.57096 0.86107 0.0
H637 H 0.1966 0.5683 0.80589 0.0
H638 H 0.19331 0.63048 0.75343 0.0
H639 H 0.17135 0.63387 0.80894 0.0
H640 H 0.17444 0.55457 0.74173 0.0
H641 H 0.25998 0.64524 0.71458 0.0
H642 H 0.24433 0.63786 0.76034 0.0
H643 H 0.23449 0.65119 0.72266 0.0
C644 C 0.17848 0.58458 0.83826 0.0
C645 C 0.1704 0.60241 0.83891 0.0
C646 C 0.19177 0.58312 0.80683 0.0
C647 C 0.19697 0.59933 0.77551 0.0
C648 C 0.19029 0.61822 0.7775 0.0
H649 H 0.17063 0.59107 0.55077 0.0
H650 H 0.18874 0.60556 0.61405 0.0
C651 C 0.17737 0.61992 0.8091 0.0
C652 C 0.20415 0.59335 0.73817 0.0
H653 H 0.23658 0.62155 0.65671 0.0
C654 C 0.18872 0.56898 0.72361 0.0
C655 C 0.2228 0.61208 0.7144 0.0
C656 C 0.24147 0.63795 0.72911 0.0
C657 C 0.18955 0.56355 0.68507 0.0
C658 C 0.20652 0.58299 0.66051 0.0
C659 C 0.2235 0.60676 0.67561 0.0
C660 C 0.20338 0.57991 0.61879 0.0
C661 C 0.17065 0.53768 0.6703 0.0
C662 C 0.20705 0.56183 0.59968 0.0
C663 C 0.19655 0.5534 0.5636 0.0
C664 C 0.18239 0.56307 0.54634 0.0
C665 C 0.18129 0.58319 0.56364 0.0
C666 C 0.19174 0.59156 0.5997 0.0
H667 H 0.15708 0.52561 0.69261 0.0
H668 H 0.1598 0.5393 0.64616 0.0
H669 H 0.18075 0.52801 0.6597 0.0
H670 H 0.21619 0.5528 0.61391 0.0
H671 H 0.19783 0.53799 0.55062 0.0
H672 H 0.4262 0.92362 0.89241 0.0
H673 H 0.43966 0.94795 0.95121 0.0
H674 H 0.40089 0.98766 0.9183 0.0
H675 H 0.38805 0.96381 0.85816 0.0
H676 H 0.44407 0.01969 0.95092 0.0
H677 H 0.39895 0.93621 0.04476 0.0
H678 H 0.42128 0.93468 1.01337 0.0
H679 H 0.3936 0.93397 0.99406 0.0
C680 C 0.42041 0.93748 0.89749 0.0
C681 C 0.40571 0.94143 0.87034 0.0
C682 C 0.42802 0.95134 0.93157 0.0
C683 C 0.42074 0.96927 0.9403 0.0
C684 C 0.40664 0.97381 0.91278 0.0
H685 H 0.43157 0.02548 0.17501 0.0
H686 H 0.41741 0.00366 0.11373 0.0
C687 C 0.39927 0.96013 0.87825 0.0
C688 C 0.42812 0.9833 0.9778 0.0
H689 H 0.42849 0.97497 0.07444 0.0
C690 C 0.44047 0.00983 0.9779 0.0
C691 C 0.4232 0.97073 1.01351 0.0
C692 C 0.40829 0.94234 1.01652 0.0
C693 C 0.4484 0.02397 1.01208 0.0
C694 C 0.44463 0.01142 0.04763 0.0
C695 C 0.43182 0.98487 0.04754 0.0
C696 C 0.45341 0.02528 0.08518 0.0
C697 C 0.46015 0.05225 1.00955 0.0
C698 C 0.47853 0.04469 0.09048 0.0
C699 C 0.48657 0.05752 0.12549 0.0
C700 C 0.46995 0.05098 0.15675 0.0
C701 C 0.44498 0.03116 0.15176 0.0
C702 C 0.43684 0.01858 0.11653 0.0
H703 H 0.45405 0.05794 0.98336 0.0
H704 H 0.45517 0.05999 0.03462 0.0
H705 H 0.48098 0.06093 1.00827 0.0
H706 H 0.49213 0.04981 0.06764 0.0
H707 H 0.50603 0.07239 0.12816 0.0
H708 H 0.42465 0.38614 0.2006 0.0
H709 H 0.40978 0.39174 0.26279 0.0
H710 H 0.47608 0.39789 0.31613 0.0
H711 H 0.49125 0.39265 0.25417 0.0
H712 H 0.39828 0.3647 0.33075 0.0
H713 H 0.47793 0.46177 0.35322 0.0
H714 H 0.47178 0.44605 0.30772 0.0
H715 H 0.48749 0.43878 0.34473 0.0
C716 C 0.43614 0.38871 0.22549 0.0
C717 C 0.45935 0.38915 0.22194 0.0
C718 C 0.42753 0.39184 0.26121 0.0
C719 C 0.4419 0.39567 0.29442 0.0
C720 C 0.46479 0.39555 0.29107 0.0
H721 H 0.38814 0.39367 0.53156 0.0
H722 H 0.40106 0.38162 0.47221 0.0
C723 C 0.47342 0.39242 0.25542 0.0
C724 C 0.43314 0.4001 0.33227 0.0
H725 H 0.4496 0.44314 0.40463 0.0
C726 C 0.40956 0.38184 0.34693 0.0
C727 C 0.44761 0.42254 0.35353 0.0
C728 C 0.4725 0.44354 0.33894 0.0
C729 C 0.40019 0.38536 0.38193 0.0
C730 C 0.41481 0.40768 0.40335 0.0
C731 C 0.43838 0.42589 0.38866 0.0
C732 C 0.40544 0.41359 0.43946 0.0
C733 C 0.37434 0.36548 0.39513 0.0
C734 C 0.40351 0.4355 0.44128 0.0
C735 C 0.39621 0.44239 0.47499 0.0
C736 C 0.39065 0.4277 0.50841 0.0
C737 C 0.39204 0.40539 0.50651 0.0
C738 C 0.39941 0.39845 0.47244 0.0
H739 H 0.36335 0.35218 0.37188 0.0
H740 H 0.37636 0.35445 0.4186 0.0
H741 H 0.36351 0.37429 0.40619 0.0
H742 H 0.4079 0.44754 0.41649 0.0
H743 H 0.39532 0.45965 0.47483 0.0
H744 H 0.08293 0.50485 0.58046 0.0
H745 H 0.05764 0.49298 0.63875 0.0
H746 H 0.01469 0.41632 0.59843 0.0
H747 H 0.03909 0.42847 0.53919 0.0
H748 H 0.98372 0.42735 0.62932 0.0
H749 H 0.06256 0.45976 0.73143 0.0
H750 H 0.06579 0.48519 0.70215 0.0
H751 H 0.06719 0.45905 0.68084 0.0
C752 C 0.06823 0.4854 0.58405 0.0
C753 C 0.06327 0.46763 0.55496 0.0
C754 C 0.0538 0.47853 0.61776 0.0
C755 C 0.03443 0.45349 0.624 0.0
C756 C 0.02948 0.43575 0.59485 0.0
H757 H 0.96812 0.39564 0.84948 0.0
H758 H 0.99281 0.40753 0.79051 0.0
C759 C 0.04356 0.44272 0.56083 0.0
C760 C 0.01883 0.44588 0.6601 0.0
H761 H 0.02254 0.44926 0.75765 0.0
C762 C 0.99233 0.43206 0.65733 0.0
C763 C 0.02969 0.45154 0.69711 0.0
C764 C 0.05786 0.46445 0.70312 0.0
C765 C 0.9766 0.42396 0.68989 0.0
C766 C 0.98744 0.43059 0.72686 0.0
C767 C 0.01395 0.44428 0.72964 0.0
C768 C 0.97183 0.42302 0.76292 0.0
C769 C 0.94853 0.4076 0.68405 0.0
C770 C 0.9517 0.4278 0.76796 0.0
C771 C 0.93714 0.42046 0.80153 0.0
C772 C 0.94268 0.40876 0.83166 0.0
C773 C 0.96318 0.40454 0.82702 0.0
C774 C 0.97743 0.41144 0.79315 0.0
H775 H 0.94419 0.39752 0.65631 0.0
H776 H 0.93974 0.39339 0.70709 0.0
H777 H 0.93971 0.41968 0.6838 0.0
H778 H 0.94733 0.43749 0.74608 0.0
H779 H 0.9218 0.42444 0.80415 0.0
H780 H 0.48819 0.91841 0.12913 0.0
H781 H 0.50193 0.9431 0.07006 0.0
H782 H 0.56756 0.00095 0.12763 0.0
H783 H 0.55411 0.97646 0.18663 0.0
H784 H 0.5115 0.99239 0.05339 0.0
H785 H 0.5981 0.98578 0.03412 0.0
H786 H 0.57331 0.96577 0.06679 0.0
H787 H 0.59575 0.99769 0.07983 0.0
C788 C 0.50559 0.93636 0.12932 0.0
C789 C 0.52004 0.94525 0.16294 0.0
C790 C 0.51341 0.95053 0.09541 0.0
C791 C 0.53602 0.97384 0.09398 0.0
C792 C 0.5503 0.98287 0.12757 0.0
H793 H 0.58471 0.09113 0.91733 0.0
H794 H 0.56954 0.06621 0.97591 0.0
C795 C 0.54246 0.96881 0.1615 0.0
C796 C 0.54465 0.9887 0.05756 0.0
H797 H 0.5932 0.01383 0.99301 0.0
C798 C 0.52935 0.99703 0.04018 0.0
C799 C 0.56781 0.99462 0.03982 0.0
C800 C 0.58463 0.98534 0.05582 0.0
C801 C 0.53674 0.01137 1.00621 0.0
C802 C 0.56026 0.01788 0.98904 0.0
C803 C 0.57531 0.00915 1.0061 0.0
C804 C 0.56946 0.03327 0.95311 0.0
C805 C 0.51902 0.01902 0.98866 0.0
C806 C 0.57524 0.02355 0.92068 0.0
C807 C 0.58405 0.03785 0.88704 0.0
C808 C 0.58763 0.06245 0.88488 0.0
C809 C 0.5822 0.0723 0.91762 0.0
C810 C 0.57327 0.05793 0.95122 0.0
H811 H 0.49937 0.00716 0.99917 0.0
H812 H 0.52531 0.03889 0.99639 0.0
H813 H 0.519 0.01767 0.95711 0.0
H814 H 0.57269 0.0047 0.92124 0.0
H815 H 0.58801 0.02951 0.86266 0.0
H816 H 0.61141 0.60429 0.5237 0.0
H817 H 0.59801 0.61553 0.4642 0.0
H818 H 0.59435 0.55094 0.40861 0.0
H819 H 0.6075 0.5396 0.4673 0.0
H820 H 0.6172 0.62543 0.38788 0.0
H821 H 0.52288 0.53953 0.39335 0.0
H822 H 0.54399 0.55034 0.43369 0.0
H823 H 0.54844 0.53304 0.3959 0.0
C824 C 0.60812 0.59269 0.49866 0.0
C825 C 0.61041 0.57089 0.5007 0.0
C826 C 0.60033 0.59908 0.46462 0.0
C827 C 0.59453 0.58376 0.43194 0.0
C828 C 0.59804 0.56277 0.43349 0.0
H829 H 0.57308 0.61247 0.19436 0.0
H830 H 0.58915 0.60707 0.25539 0.0
C831 C 0.60577 0.55639 0.46726 0.0
C832 C 0.58424 0.58908 0.39644 0.0
H833 H 0.53386 0.5627 0.3353 0.0
C834 C 0.59892 0.61177 0.37653 0.0
C835 C 0.5602 0.57149 0.3816 0.0
C836 C 0.54282 0.54734 0.40238 0.0
C837 C 0.59059 0.61696 0.34188 0.0
C838 C 0.567 0.59887 0.32622 0.0
C839 C 0.55204 0.57652 0.34678 0.0
C840 C 0.5574 0.60267 0.28876 0.0
C841 C 0.60705 0.64197 0.32262 0.0
C842 C 0.5338 0.6014 0.28648 0.0
C843 C 0.52444 0.60434 0.25142 0.0
C844 C 0.5383 0.60843 0.21743 0.0
C845 C 0.56185 0.60951 0.21974 0.0
C846 C 0.57121 0.60661 0.25486 0.0
H847 H 0.62046 0.65628 0.343 0.0
H848 H 0.61826 0.63948 0.2999 0.0
H849 H 0.5955 0.64932 0.30934 0.0
H850 H 0.52259 0.59822 0.31197 0.0
H851 H 0.50623 0.6033 0.25103 0.0
H852 H 0.02002 0.58747 0.8529 0.0
H853 H 0.99546 0.57548 0.79379 0.0
H854 H 0.05414 0.56815 0.7374 0.0
H855 H 0.07863 0.57975 0.79642 0.0
H856 H 0.00475 0.59676 0.72365 0.0
H857 H 0.9933 0.50133 0.7102 0.0
H858 H 0.00502 0.51988 0.75309 0.0
H859 H 0.02569 0.52581 0.71308 0.0
C860 C 0.02776 0.58327 0.82802 0.0
C861 C 0.05141 0.58452 0.8299 0.0
C862 C 0.01362 0.57639 0.79404 0.0
C863 C 0.02255 0.57037 0.76091 0.0
C864 C 0.04635 0.57201 0.76254 0.0
H865 H 0.96373 0.56378 0.52862 0.0
H866 H 0.98886 0.57622 0.58722 0.0
C867 C 0.0605 0.57889 0.79647 0.0
C868 C 0.00724 0.56287 0.72467 0.0
H869 H 0.98067 0.51639 0.6569 0.0
C870 C -0.00051 0.57915 0.70915 0.0
C871 C -9e-05 0.53973 0.70563 0.0
C872 C 0.00617 0.52055 0.72149 0.0
C873 C 0.98509 0.5732 0.67529 0.0
C874 C 0.97844 0.55043 0.6556 0.0
C875 C 0.98589 0.53398 0.67143 0.0
C876 C 0.96317 0.54295 0.61931 0.0
C877 C 0.97662 0.59116 0.66151 0.0
C878 C 0.94051 0.51977 0.61687 0.0
C879 C 0.92614 0.5125 0.58319 0.0
C880 C 0.934 0.52811 0.55061 0.0
C881 C 0.95683 0.55126 0.55298 0.0
C882 C 0.97122 0.55852 0.58675 0.0
H883 H 0.97699 0.60369 0.68476 0.0
H884 H 0.98957 0.60328 0.63871 0.0
H885 H 0.95722 0.58078 0.64965 0.0
H886 H 0.93375 0.50726 0.64127 0.0
H887 H 0.90878 0.49451 0.58278 0.0
H888 H 0.55249 0.08501 0.3493 0.0
H889 H 0.54164 0.06185 0.41003 0.0
H890 H 0.47192 0.0044 0.35979 0.0
H891 H 0.48245 0.02756 0.3005 0.0
H892 H 0.5347 0.01822 0.43396 0.0
H893 H 0.44473 0.00776 0.46137 0.0
H894 H 0.44288 0.00577 0.4103 0.0
H895 H 0.46714 0.0341 0.43308 0.0
C896 C 0.5349 0.06732 0.35151 0.0
C897 C 0.5181 0.05803 0.32043 0.0
C898 C 0.52861 0.05433 0.38633 0.0
C899 C 0.50546 0.03193 0.39042 0.0
C900 C 0.48933 0.02231 0.35853 0.0
H901 H 0.50028 0.96158 0.30418 0.0
H902 H 0.50696 0.9822 0.36533 0.0
C903 C 0.49549 0.03528 0.32416 0.0
C904 C 0.49869 0.0164 0.42567 0.0
H905 H 0.44198 0.96349 0.4311 0.0
C906 C 0.51437 0.00667 0.43615 0.0
C907 C 0.47281 0.00171 0.43479 0.0
C908 C 0.45607 0.01318 0.43478 0.0
C909 C 0.5034 0.98045 0.44119 0.0
C910 C 0.47817 0.96531 0.42927 0.0
C911 C 0.46218 0.97536 0.43476 0.0
C912 C 0.47425 0.95122 0.39305 0.0
C913 C 0.51942 0.96867 0.44878 0.0
C914 C 0.45294 0.9275 0.3869 0.0
C915 C 0.44917 0.91571 0.35129 0.0
C916 C 0.4666 0.92762 0.32141 0.0
C917 C 0.48705 0.95177 0.32704 0.0
C918 C 0.49091 0.9634 0.36235 0.0
H919 H 0.53656 0.98169 0.46519 0.0
H920 H 0.50844 0.95082 0.46496 0.0
H921 H 0.52508 0.96386 0.42143 0.0
H922 H 0.43947 0.91804 0.40963 0.0
H923 H 0.43314 0.89695 0.34757 0.0
H924 H 0.47016 0.47903 0.62582 0.0
H925 H 0.49645 0.48127 0.67962 0.0
H926 H 0.43171 0.45108 0.75411 0.0
H927 H 0.40506 0.44627 0.69995 0.0
H928 H 0.46417 0.50201 0.76576 0.0
H929 H 0.51429 0.45818 0.72 0.0
H930 H 0.48909 0.4402 0.75339 0.0
H931 H 0.52171 0.45677 0.76896 0.0
C932 C 0.46138 0.47175 0.65324 0.0
C933 C 0.43583 0.46363 0.65897 0.0
C934 C 0.47634 0.47286 0.68412 0.0
C935 C 0.46615 0.46709 0.72128 0.0
C936 C 0.44004 0.45578 0.72592 0.0
H937 H 0.59823 0.5595 0.68769 0.0
H938 H 0.57813 0.55847 0.74779 0.0
C939 C 0.42493 0.45359 0.6948 0.0
C940 C 0.48309 0.48086 0.75346 0.0
H941 H 0.54613 0.50481 0.75664 0.0
C942 C 0.48204 0.50224 0.76587 0.0
C943 C 0.50604 0.48089 0.75744 0.0
C944 C 0.50771 0.45755 0.74969 0.0
C945 C 0.50439 0.52559 0.76824 0.0
C946 C 0.52714 0.52656 0.75795 0.0
C947 C 0.52828 0.5042 0.76126 0.0
C948 C 0.54062 0.54149 0.72393 0.0
C949 C 0.50298 0.54937 0.7716 0.0
C950 C 0.52676 0.5347 0.68964 0.0
C951 C 0.53783 0.5326 0.65611 0.0
C952 C 0.56337 0.53971 0.65573 0.0
C953 C 0.57829 0.55237 0.6876 0.0
C954 C 0.5669 0.55264 0.722 0.0
H955 H 0.48861 0.54698 0.79315 0.0
H956 H 0.52159 0.56565 0.77954 0.0
H957 H 0.49711 0.55348 0.74381 0.0
H958 H 0.50648 0.52674 0.68998 0.0
H959 H 0.52601 0.52346 0.63158 0.0
H960 H 0.96191 0.44915 0.96627 0.0
H961 H 0.98619 0.46789 1.02365 0.0
H962 H 0.92039 0.46363 0.07737 0.0
H963 H 0.8967 0.44629 1.01873 0.0
H964 H 0.98509 0.45381 0.09589 0.0
H965 H 0.96409 0.5307 0.11401 0.0
H966 H 0.94032 0.49799 0.11525 0.0
H967 H 0.95137 0.51393 0.07001 0.0
C968 C 0.95276 0.45235 0.99037 0.0
C969 C 0.92756 0.44628 0.98823 0.0
C970 C 0.96646 0.46272 1.02358 0.0
C971 C 0.95515 0.46686 0.05584 0.0
C972 C 0.92981 0.46078 0.0535 0.0
H973 H 0.094 0.54588 1.01738 0.0
H974 H 0.07163 0.53193 0.07769 0.0
C975 C 0.91624 0.45091 1.01977 0.0
C976 C 0.97137 0.47993 0.08937 0.0
H977 H 0.00744 0.54329 0.09846 0.0
C978 C 0.98976 0.47335 0.09831 0.0
C979 C 0.97707 0.50483 0.09803 0.0
C980 C 0.95709 0.51231 0.09942 0.0
C981 C 0.01522 0.49222 0.09965 0.0
C982 C 0.02121 0.51723 0.09133 0.0
C983 C 0.00261 0.52365 0.0997 0.0
C984 C 0.03707 0.52957 0.05708 0.0
C985 C 0.03515 0.48475 0.1029 0.0
C986 C 0.02555 0.53333 1.02474 0.0
C987 C 0.03857 0.54179 0.99047 0.0
C988 C 0.06325 0.54634 0.98737 0.0
C989 C 0.0748 0.5423 1.01909 0.0
C990 C 0.062 0.53443 0.05382 0.0
H991 H 0.0412 0.48251 0.07401 0.0
H992 H 0.05173 0.49931 0.11877 0.0
H993 H 0.02789 0.4666 0.11826 0.0
H994 H 0.00612 0.5291 0.02545 0.0
H995 H 0.02928 0.54464 0.96626 0.0
H996 H 0.04146 0.48519 0.41847 0.0
H997 H 0.01664 0.47941 0.36138 0.0
H998 H 0.08145 0.54121 0.30689 0.0
H999 H 0.10567 0.54814 0.36549 0.0
H1000 H 0.01648 0.471 0.28205 0.0
H1001 H 0.03561 0.56883 0.30004 0.0
H1002 H 0.05973 0.56137 0.28749 0.0
H1003 H 0.04974 0.55921 0.33643 0.0
C1004 C 0.05034 0.49746 0.39425 0.0
C1005 C 0.07523 0.5172 0.3964 0.0
C1006 C 0.03636 0.49392 0.36127 0.0
C1007 C 0.04713 0.5099 0.32951 0.0
C1008 C 0.07254 0.52888 0.331 0.0
H1009 H 0.92952 0.44975 0.40449 0.0
H1010 H 0.95891 0.45661 0.35298 0.0
C1011 C 0.0863 0.5329 0.36457 0.0
C1012 C 0.02987 0.50945 0.29957 0.0
H1013 H 0.99363 0.53618 0.31155 0.0
C1014 C 0.01149 0.48555 0.28638 0.0
C1015 C 0.02365 0.52882 0.30052 0.0
C1016 C 0.04327 0.55612 0.30635 0.0
C1017 C 0.98591 0.47869 0.28769 0.0
C1018 C 0.97942 0.49624 0.30247 0.0
C1019 C -0.00181 0.52185 0.30326 0.0
C1020 C 0.95713 0.48825 0.32774 0.0
C1021 C 0.96628 0.45219 0.27716 0.0
C1022 C 0.94657 0.50388 0.33218 0.0
C1023 C 0.93187 0.50139 0.36394 0.0
C1024 C 0.9256 0.48204 0.3905 0.0
C1025 C 0.93421 0.46498 0.38451 0.0
C1026 C 0.95045 0.46848 0.35414 0.0
H1027 H 0.97058 0.44781 0.24844 0.0
H1028 H 0.96714 0.43861 0.29725 0.0
H1029 H 0.94694 0.44955 0.27693 0.0
H1030 H 0.95098 0.51914 0.31242 0.0
H1031 H 0.92566 0.51481 0.36731 0.0
H1032 H 0.40679 0.92036 0.67559 0.0
H1033 H 0.4315 0.94824 0.62441 0.0
H1034 H 0.4995 0.97012 0.68875 0.0
H1035 H 0.47459 0.94139 0.74015 0.0
H1036 H 0.45445 0.99578 0.63471 0.0
H1037 H 0.52665 0.97664 0.58189 0.0
H1038 H 0.49747 0.95198 0.60201 0.0
H1039 H 0.52468 0.97003 0.63197 0.0
C1040 C 0.42703 0.9306 0.67873 0.0
C1041 C 0.43876 0.92901 0.71235 0.0
C1042 C 0.44116 0.94634 0.64897 0.0
C1043 C 0.46737 0.96097 0.65222 0.0
C1044 C 0.47931 0.95843 0.68496 0.0
H1045 H 0.55737 0.11016 0.69241 0.0
H1046 H 0.53867 0.0855 0.63433 0.0
C1047 C 0.4651 0.94242 0.71473 0.0
C1048 C 0.48146 0.98312 0.62721 0.0
H1049 H 0.54386 0.0216 0.61113 0.0
C1050 C 0.47379 0.00129 0.62767 0.0
C1051 C 0.50604 0.99027 0.61465 0.0
C1052 C 0.51399 0.971 0.6071 0.0
C1053 C 0.49187 0.02696 0.62713 0.0
C1054 C 0.5176 0.03375 0.62731 0.0
C1055 C 0.52412 0.01602 0.61416 0.0
C1056 C 0.53339 0.05056 0.65829 0.0
C1057 C 0.48355 0.046 0.63456 0.0
C1058 C 0.53693 0.03922 0.69085 0.0
C1059 C 0.54772 0.05322 0.72364 0.0
C1060 C 0.55504 0.07877 0.72468 0.0
C1061 C 0.55167 0.09031 0.69223 0.0
C1062 C 0.54121 0.07635 0.65898 0.0
H1063 H 0.48609 0.05119 0.66521 0.0
H1064 H 0.49509 0.06333 0.61755 0.0
H1065 H 0.46335 0.03836 0.62725 0.0
H1066 H 0.53045 0.01919 0.69148 0.0
H1067 H 0.54996 0.04395 0.74842 0.0
H1068 H 0.45147 0.55316 0.03494 0.0
H1069 H 0.45757 0.53372 0.97827 0.0
H1070 H 0.52465 0.53952 0.02954 0.0
H1071 H 0.51972 0.56105 0.084 0.0
H1072 H 0.45193 0.49335 0.96661 0.0
H1073 H 0.54884 0.54403 0.92714 0.0
H1074 H 0.55286 0.54788 0.97743 0.0
H1075 H 0.53562 0.56058 0.95248 0.0
C1076 C 0.46782 0.5507 0.03352 0.0
C1077 C 0.48526 0.55862 0.06368 0.0
C1078 C 0.47138 0.53973 1.00093 0.0
C1079 C 0.49192 0.53551 0.99854 0.0
C1080 C 0.5093 0.54354 0.02905 0.0
H1081 H 0.47287 0.43464 0.08621 0.0
H1082 H 0.46493 0.45345 0.03117 0.0
C1083 C 0.50621 0.55532 0.06092 0.0
C1084 C 0.49252 0.51816 0.96931 0.0
H1085 H 0.53549 0.49915 0.96034 0.0
C1086 C 0.4703 0.4949 0.96366 0.0
C1087 C 0.51566 0.51972 0.9594 0.0
C1088 C 0.53945 0.54464 0.9539 0.0
C1089 C 0.47164 0.47271 0.96152 0.0
C1090 C 0.4952 0.47442 0.96847 0.0
C1091 C 0.51701 0.49752 0.96014 0.0
C1092 C 0.49738 0.45823 0.99827 0.0
C1093 C 0.44771 0.44766 0.95784 0.0
C1094 C 0.51877 0.45532 0.99992 0.0
C1095 C 0.52415 0.44618 0.03293 0.0
C1096 C 0.50758 0.43843 0.0642 0.0
C1097 C 0.48576 0.44027 0.06225 0.0
C1098 C 0.48091 0.45044 0.03 0.0
H1099 H 0.43788 0.44747 0.93115 0.0
H1100 H 0.45149 0.43166 0.95719 0.0
H1101 H 0.43471 0.44507 0.98173 0.0
H1102 H 0.53193 0.46108 0.97637 0.0
H1103 H 0.5412 0.44494 0.03376 0.0
H1104 H 0.41244 0.98426 0.66944 0.0
H1105 H 0.41479 0.00022 0.60464 0.0
H1106 H 0.33398 0.95504 0.59422 0.0
H1107 H 0.33142 0.939 0.65916 0.0
H1108 H 0.38032 0.95365 0.53739 0.0
H1109 H 0.37076 0.03903 0.55456 0.0
H1110 H 0.38731 0.03165 0.59034 0.0
H1111 H 0.35394 0.01167 0.58484 0.0
C1112 C 0.3951 0.9783 0.65379 0.0
C1113 C 0.37174 0.96043 0.66936 0.0
C1114 C 0.39649 0.98731 0.61674 0.0
C1115 C 0.37456 0.97868 0.59476 0.0
C1116 C 0.35107 0.96192 0.61089 0.0
H1117 H 0.39588 -0.00093 0.3435 0.0
H1118 H 0.37433 0.97942 0.40372 0.0
C1119 C 0.34965 0.95292 0.64802 0.0
C1120 C 0.37667 0.98549 0.55394 0.0
H1121 H 0.38192 0.03152 0.4938 0.0
C1122 C 0.38061 0.97061 0.52751 0.0
C1123 C 0.37644 0.00725 0.54148 0.0
C1124 C 0.37182 0.02343 0.56907 0.0
C1125 C 0.386 0.97778 0.48904 0.0
C1126 C 0.38726 0.00054 0.47665 0.0
C1127 C 0.38152 0.01439 0.50303 0.0
C1128 C 0.39761 0.01229 0.43861 0.0
C1129 C 0.39089 0.96101 0.46297 0.0
C1130 C 0.41665 0.03778 0.43728 0.0
C1131 C 0.42789 0.04922 0.40288 0.0
C1132 C 0.42098 0.03536 0.36884 0.0
C1133 C 0.40167 0.01004 0.36953 0.0
C1134 C 0.38958 -0.00123 0.40404 0.0
H1135 H 0.3964 0.94888 0.47914 0.0
H1136 H 0.37331 0.94841 0.44718 0.0
H1137 H 0.40589 0.97195 0.44196 0.0
H1138 H 0.42348 0.0488 0.46317 0.0
H1139 H 0.44289 0.06873 0.40323 0.0
H1140 H 0.4129 0.39962 1.0213 0.0
H1141 H 0.3928 0.39866 0.9604 0.0
H1142 H 0.38536 0.32617 0.93504 0.0
H1143 H 0.40442 0.32662 0.9962 0.0
H1144 H 0.41253 0.39947 0.89376 0.0
H1145 H 0.31836 0.31402 0.89893 0.0
H1146 H 0.33742 0.32729 0.94102 0.0
H1147 H 0.34259 0.3067 0.91019 0.0
C1148 C 0.40619 0.38314 1.00322 0.0
C1149 C 0.41009 0.36315 1.01346 0.0
C1150 C 0.39483 0.38265 0.96839 0.0
C1151 C 0.3873 0.36221 0.94324 0.0
C1152 C 0.39034 0.34182 0.95426 0.0
H1153 H 0.39041 0.37906 0.69861 0.0
H1154 H 0.39621 0.36855 0.76371 0.0
C1155 C 0.40142 0.34218 0.98918 0.0
C1156 C 0.37921 0.36351 0.90382 0.0
H1157 H 0.33468 0.33007 0.83621 0.0
C1158 C 0.39535 0.38441 0.88136 0.0
C1159 C 0.35669 0.34398 0.88765 0.0
C1160 C 0.33766 0.32189 0.91088 0.0
C1161 C 0.38997 0.38604 0.84299 0.0
C1162 C 0.36824 0.36579 0.8262 0.0
C1163 C 0.35165 0.34525 0.84889 0.0
C1164 C 0.36203 0.36637 0.78552 0.0
C1165 C 0.40745 0.40966 0.82104 0.0
C1166 C 0.33983 0.36642 0.77559 0.0
C1167 C 0.3362 0.37186 0.73822 0.0
C1168 C 0.35482 0.37746 0.71039 0.0
C1169 C 0.3758 0.3749 0.71953 0.0
C1170 C 0.37929 0.36922 0.75681 0.0
H1171 H 0.41897 0.42578 0.84036 0.0
H1172 H 0.4206 0.40618 0.80368 0.0
H1173 H 0.39671 0.41516 0.80154 0.0
H1174 H 0.32613 0.36398 0.79723 0.0
H1175 H 0.31984 0.37369 0.73197 0.0
H1176 H 0.93453 0.34397 0.0589 0.0
H1177 H 0.94984 0.34699 0.12412 0.0
H1178 H 0.0079 0.42379 0.10333 0.0
H1179 H 0.99202 0.4213 0.03842 0.0
H1180 H 0.99347 0.35748 0.15893 0.0
H1181 H 0.96407 0.42608 0.19129 0.0
H1182 H 0.96334 0.41603 0.14321 0.0
H1183 H 0.99149 0.44283 0.16217 0.0
C1184 C 0.95086 0.36138 0.068 0.0
C1185 C 0.96198 0.38249 0.04375 0.0
C1186 C 0.95954 0.36308 0.10531 0.0
C1187 C 0.97957 0.38586 0.11886 0.0
C1188 C 0.99199 0.4063 0.09367 0.0
H1189 H 0.06934 0.41594 0.31982 0.0
H1190 H 0.04844 0.40128 0.2586 0.0
C1191 C 0.98309 0.40476 0.0565 0.0
C1192 C 0.98655 0.38874 0.15979 0.0
H1193 H 0.99541 0.42601 0.23715 0.0
C1194 C 0.99371 0.37232 0.1762 0.0
C1195 C 0.9858 0.40738 0.18281 0.0
C1196 C 0.9755 0.4238 0.16873 0.0
C1197 C 0.00135 0.37486 0.21448 0.0
C1198 C 0.00289 0.39505 0.23648 0.0
C1199 C 0.99462 0.41072 0.22042 0.0
C1200 C 0.0143 0.40131 0.27524 0.0
C1201 C 0.00731 0.35561 0.23088 0.0
C1202 C 0.00244 0.40684 0.30516 0.0
C1203 C 0.01477 0.41599 0.34004 0.0
C1204 C 0.03903 0.41946 0.34576 0.0
C1205 C 0.05045 0.41302 0.31645 0.0
C1206 C 0.03838 0.40441 0.28141 0.0
H1207 H 0.99586 0.33697 0.21688 0.0
H1208 H 0.02745 0.36176 0.2255 0.0
H1209 H 0.00373 0.35321 0.26203 0.0
H1210 H 0.98394 0.4048 0.30113 0.0
H1211 H 0.00569 0.42111 0.36203 0.0
H1212 H 0.65322 0.05971 0.66289 0.0
H1213 H 0.64944 0.04323 0.59808 0.0
H1214 H 0.56866 0.00028 0.61096 0.0
H1215 H 0.57229 0.01599 0.67593 0.0
H1216 H 0.58258 0.97429 0.57214 0.0
H1217 H 0.6296 0.07037 0.50994 0.0
H1218 H 0.64967 0.06552 0.54187 0.0
H1219 H 0.6216 0.06462 0.55975 0.0
C1220 C 0.63469 0.04636 0.65207 0.0
C1221 C 0.61303 0.03926 0.67433 0.0
C1222 C 0.63251 0.03725 0.61482 0.0
C1223 C 0.60862 0.02128 0.59899 0.0
C1224 C 0.5872 0.01293 0.62223 0.0
H1225 H 0.56006 0.99692 0.36439 0.0
H1226 H 0.57706 0.01548 0.42683 0.0
C1227 C 0.58933 0.02181 0.6595 0.0
C1228 C 0.60553 0.01363 0.55812 0.0
H1229 H 0.61868 0.03657 0.46703 0.0
C1230 C 0.59057 0.98794 0.5492 0.0
C1231 C 0.61539 0.03146 0.52801 0.0
C1232 C 0.62972 0.05953 0.53528 0.0
C1233 C 0.585 0.97957 0.51134 0.0
C1234 C 0.59581 0.99726 0.48119 0.0
C1235 C 0.61084 0.02296 0.49003 0.0
C1236 C 0.5903 0.98948 0.44051 0.0
C1237 C 0.56662 0.95196 0.50432 0.0
C1238 C 0.59382 0.97 0.42612 0.0
C1239 C 0.584 0.95931 0.39058 0.0
C1240 C 0.57091 0.96823 0.36852 0.0
C1241 C 0.5699 0.98955 0.38097 0.0
C1242 C 0.5796 0.00014 0.4167 0.0
H1243 H 0.55443 0.94288 0.52956 0.0
H1244 H 0.55424 0.94928 0.47955 0.0
H1245 H 0.57727 0.942 0.49847 0.0
H1246 H 0.60301 0.96218 0.4432 0.0
H1247 H 0.58547 0.94318 0.38135 0.0
H1248 H 0.59655 0.67102 0.99694 0.0
H1249 H 0.61601 0.67203 0.93547 0.0
H1250 H 0.59392 0.59353 0.94826 0.0
H1251 H 0.57417 0.59234 1.00972 0.0
H1252 H 0.65315 0.66045 0.91039 0.0
H1253 H 0.55851 0.59625 0.84967 0.0
H1254 H 0.56271 0.61075 0.89591 0.0
H1255 H 0.56625 0.58346 0.89007 0.0
C1256 C 0.59626 0.65411 0.98697 0.0
C1257 C 0.58372 0.63155 1.00787 0.0
C1258 C 0.60737 0.65472 0.95187 0.0
C1259 C 0.60599 0.63276 0.93706 0.0
C1260 C 0.59481 0.61058 0.95897 0.0
H1261 H 0.67437 0.60873 0.73904 0.0
H1262 H 0.66735 0.62043 0.80252 0.0
C1263 C 0.58371 0.60996 0.99413 0.0
C1264 C 0.61467 0.63267 0.89764 0.0
H1265 H 0.59371 0.6058 0.81035 0.0
C1266 C 0.64019 0.64858 0.88841 0.0
C1267 C 0.59759 0.6176 0.86887 0.0
C1268 C 0.56969 0.60124 0.87642 0.0
C1269 C 0.64921 0.64931 0.85128 0.0
C1270 C 0.63229 0.63347 0.82292 0.0
C1271 C 0.60669 0.61797 0.83208 0.0
C1272 C 0.64057 0.63159 0.78389 0.0
C1273 C 0.67668 0.66721 0.84272 0.0
C1274 C 0.62831 0.63451 0.75208 0.0
C1275 C 0.63214 0.62761 0.71577 0.0
C1276 C 0.64826 0.61764 0.71073 0.0
C1277 C 0.66201 0.61658 0.74205 0.0
C1278 C 0.65805 0.62333 0.7784 0.0
H1279 H 0.68496 0.68324 0.86312 0.0
H1280 H 0.68733 0.65697 0.84537 0.0
H1281 H 0.67926 0.67482 0.81332 0.0
H1282 H 0.6147 0.64079 0.75567 0.0
H1283 H 0.62118 0.62847 0.69217 0.0
H1284 H 0.99729 0.57464 0.02762 0.0
H1285 H 0.97681 0.57097 0.08928 0.0
H1286 H 0.04072 0.64117 0.1255 0.0
H1287 H 0.06053 0.64565 0.06338 0.0
H1288 H 0.99612 0.56616 0.15628 0.0
H1289 H 0.98297 0.64933 0.1638 0.0
H1290 H 0.98975 0.63867 0.11968 0.0
H1291 H 0.01481 0.65766 0.15237 0.0
C1292 C 0.00658 0.58961 0.04838 0.0
C1293 C 0.0304 0.6105 0.04068 0.0
C1294 C 0.99501 0.58737 0.08371 0.0
C1295 C 0.00721 0.60575 0.1121 0.0
C1296 C 0.03066 0.627 0.10389 0.0
H1297 H 0.98297 0.57422 0.3555 0.0
H1298 H 0.00136 0.5859 0.29156 0.0
C1299 C 0.04202 0.62948 0.06838 0.0
C1300 C 0.99671 0.60156 0.15132 0.0
H1301 H 0.9803 0.62854 0.22289 0.0
C1302 C 0.99237 0.57966 0.17068 0.0
C1303 C 0.99183 0.61917 0.17015 0.0
C1304 C 0.99484 0.6424 0.1503 0.0
C1305 C 0.98358 0.575 0.20841 0.0
C1306 C 0.97972 0.59313 0.22784 0.0
C1307 C 0.98365 0.61484 0.20826 0.0
C1308 C 0.97049 0.58932 0.26785 0.0
C1309 C 0.97823 0.55049 0.22676 0.0
C1310 C 0.94787 0.58896 0.27644 0.0
C1311 C 0.93761 0.58279 0.3131 0.0
C1312 C 0.94979 0.57689 0.34187 0.0
C1313 C 0.97322 0.57879 0.33393 0.0
C1314 C 0.98356 0.58511 0.29726 0.0
H1315 H 0.97485 0.53585 0.20512 0.0
H1316 H 0.99486 0.55381 0.24385 0.0
H1317 H 0.96156 0.54303 0.24588 0.0
H1318 H 0.93753 0.59233 0.25433 0.0
H1319 H 0.91948 0.58137 0.31835 0.0
H1320 H 0.50234 0.08912 0.40118 0.0
H1321 H 0.52206 0.09999 0.46353 0.0
H1322 H 0.58203 0.17004 0.41879 0.0
H1323 H 0.56277 0.15871 0.35524 0.0
H1324 H 0.60121 0.14883 0.46177 0.0
H1325 H 0.52295 0.14633 0.54349 0.0
H1326 H 0.51233 0.117 0.51911 0.0
H1327 H 0.52299 0.14566 0.49209 0.0
C1328 C 0.51954 0.10707 0.40444 0.0
C1329 C 0.53081 0.12313 0.37292 0.0
C1330 C 0.53076 0.11336 0.44048 0.0
C1331 C 0.55328 0.13618 0.44647 0.0
C1332 C 0.56453 0.15241 0.41516 0.0
H1333 H 0.60377 0.1673 0.68691 0.0
H1334 H 0.59206 0.17381 0.62259 0.0
C1335 C 0.55345 0.14596 0.37878 0.0
C1336 C 0.5657 0.14209 0.48481 0.0
H1337 H 0.55354 0.14107 0.58023 0.0
C1338 C 0.59087 0.14755 0.48758 0.0
C1339 C 0.55258 0.14102 0.51879 0.0
C1340 C 0.52632 0.13747 0.51818 0.0
C1341 C 0.6027 0.15053 0.52314 0.0
C1342 C 0.58885 0.14728 0.55715 0.0
C1343 C 0.56418 0.14326 0.55437 0.0
C1344 C 0.59873 0.14581 0.59552 0.0
C1345 C 0.62996 0.15697 0.52373 0.0
C1346 C 0.60669 0.1282 0.60189 0.0
C1347 C 0.61369 0.12474 0.63828 0.0
C1348 C 0.61253 0.13846 0.66978 0.0
C1349 C 0.60527 0.15668 0.66335 0.0
C1350 C 0.59833 0.16023 0.62659 0.0
H1351 H 0.64016 0.16801 0.49808 0.0
H1352 H 0.63988 0.16799 0.5495 0.0
H1353 H 0.63085 0.13928 0.52346 0.0
H1354 H 0.60653 0.11626 0.57895 0.0
H1355 H 0.61897 0.11037 0.64191 0.0
H1356 H 0.38411 0.52993 0.69911 0.0
H1357 H 0.39772 0.55342 0.75919 0.0
H1358 H 0.40205 0.49171 0.8109 0.0
H1359 H 0.38737 0.46778 0.75175 0.0
H1360 H 0.38463 0.51009 0.86121 0.0
H1361 H 0.46832 0.59098 0.79633 0.0
H1362 H 0.43949 0.58582 0.775 0.0
H1363 H 0.44882 0.56222 0.77055 0.0
C1364 C 0.38765 0.52123 0.72342 0.0
C1365 C 0.38455 0.49688 0.72034 0.0
C1366 C 0.39576 0.53485 0.75778 0.0
C1367 C 0.40166 0.52477 0.78971 0.0
C1368 C 0.39778 0.50013 0.78695 0.0
H1369 H 0.50281 0.60781 0.97319 0.0
H1370 H 0.48174 0.5874 0.91455 0.0
C1371 C 0.38928 0.48636 0.7529 0.0
C1372 C 0.41217 0.5398 0.82575 0.0
H1373 H 0.45956 0.59587 0.86045 0.0
C1374 C 0.40102 0.52887 0.86096 0.0
C1375 C 0.43391 0.56419 0.82596 0.0
C1376 C 0.44851 0.57639 0.79001 0.0
C1377 C 0.41093 0.54137 0.89594 0.0
C1378 C 0.43212 0.56613 0.89603 0.0
C1379 C 0.44311 0.57713 0.86076 0.0
C1380 C 0.44473 0.58005 0.93214 0.0
C1381 C 0.39926 0.52731 0.93245 0.0
C1382 C 0.43136 0.58364 0.96206 0.0
C1383 C 0.44348 0.59518 0.99657 0.0
C1384 C 0.46938 0.60383 1.00169 0.0
C1385 C 0.48287 0.60149 0.97078 0.0
C1386 C 0.47076 0.5897 0.93684 0.0
H1387 H 0.38815 0.5066 0.92774 0.0
H1388 H 0.41391 0.53117 0.95424 0.0
H1389 H 0.38624 0.53343 0.9439 0.0
H1390 H 0.41144 0.57718 0.95904 0.0
H1391 H 0.43241 0.59656 1.01957 0.0
H1392 H 0.84382 0.40734 1.02479 0.0
H1393 H 0.83752 0.42011 0.08834 0.0
H1394 H 0.8783 0.38659 0.1384 0.0
H1395 H 0.88552 0.37479 0.07512 0.0
H1396 H 0.81627 0.39819 0.15451 0.0
H1397 H 0.91928 0.45672 0.17698 0.0
H1398 H 0.90632 0.44027 0.13293 0.0
H1399 H 0.90974 0.42394 0.17303 0.0
C1400 C 0.85101 0.40226 0.04942 0.0
C1401 C 0.86533 0.3902 0.04478 0.0
C1402 C 0.84754 0.40972 0.0858 0.0
C1403 C 0.85808 0.40503 0.11831 0.0
C1404 C 0.87069 0.39125 0.11386 0.0
H1405 H 0.83366 0.42986 0.3582 0.0
H1406 H 0.82966 0.41063 0.2953 0.0
C1407 C 0.87457 0.38425 0.07757 0.0
C1408 C 0.85674 0.41532 0.15649 0.0
H1409 H 0.89314 0.45178 0.23047 0.0
C1410 C 0.8331 0.40995 0.17105 0.0
C1411 C 0.8787 0.43086 0.17827 0.0
C1412 C 0.90493 0.43848 0.16433 0.0
C1413 C 0.83082 0.41949 0.20657 0.0
C1414 C 0.85272 0.43467 0.22838 0.0
C1415 C 0.87631 0.44006 0.21385 0.0
C1416 C 0.85201 0.44605 0.26573 0.0
C1417 C 0.80507 0.41369 0.22013 0.0
C1418 C 0.86555 0.47236 0.27014 0.0
C1419 C 0.86782 0.48337 0.30593 0.0
C1420 C 0.85674 0.46838 0.33849 0.0
C1421 C 0.84216 0.44204 0.33379 0.0
C1422 C 0.83989 0.43099 0.29776 0.0
H1423 H 0.79098 0.40653 0.1967 0.0
H1424 H 0.79851 0.39902 0.24264 0.0
H1425 H 0.8058 0.43075 0.23261 0.0
H1426 H 0.87509 0.48442 0.24597 0.0
H1427 H 0.87924 0.5037 0.30824 0.0
H1428 H 0.48874 0.9018 0.40476 0.0
H1429 H 0.46667 0.89056 0.46523 0.0
H1430 H 0.41018 0.81938 0.41838 0.0
H1431 H 0.43181 0.8311 0.35643 0.0
H1432 H 0.38805 0.83949 0.45735 0.0
H1433 H 0.46426 0.84568 0.54839 0.0
H1434 H 0.47509 0.8747 0.52308 0.0
H1435 H 0.46626 0.846 0.49709 0.0
C1436 C 0.47187 0.88349 0.40717 0.0
C1437 C 0.46225 0.86727 0.37544 0.0
C1438 C 0.45928 0.877 0.44218 0.0
C1439 C 0.43699 0.8538 0.44704 0.0
C1440 C 0.42746 0.83731 0.41563 0.0
H1441 H 0.38182 0.82694 0.68435 0.0
H1442 H 0.39432 0.81891 0.62178 0.0
C1443 C 0.43993 0.84397 0.38021 0.0
C1444 C 0.42305 0.84779 0.48418 0.0
H1445 H 0.43191 0.85058 0.58067 0.0
C1446 C 0.39756 0.84149 0.48428 0.0
C1447 C 0.43505 0.84976 0.5196 0.0
C1448 C 0.46159 0.85412 0.52201 0.0
C1449 C 0.38431 0.83857 0.51854 0.0
C1450 C 0.39703 0.84281 0.55391 0.0
C1451 C 0.42207 0.84766 0.5538 0.0
C1452 C 0.3856 0.84431 0.59097 0.0
C1453 C 0.35678 0.83097 0.51625 0.0
C1454 C 0.37581 0.86068 0.59473 0.0
C1455 C 0.36819 0.86489 0.63028 0.0
C1456 C 0.37067 0.85334 0.66348 0.0
C1457 C 0.37939 0.83603 0.65953 0.0
C1458 C 0.38678 0.8316 0.6237 0.0
H1459 H 0.34778 0.81904 0.49077 0.0
H1460 H 0.34624 0.82043 0.54199 0.0
H1461 H 0.35509 0.84815 0.51339 0.0
H1462 H 0.37528 0.87136 0.5705 0.0
H1463 H 0.36178 0.8785 0.63192 0.0
H1464 H 0.57992 0.46054 0.6938 0.0
H1465 H 0.56697 0.44003 0.75594 0.0
H1466 H 0.60674 0.51249 0.81131 0.0
H1467 H 0.61914 0.53326 0.74908 0.0
H1468 H 0.59199 0.43704 0.81599 0.0
H1469 H 0.53964 0.48493 0.86201 0.0
H1470 H 0.55239 0.48846 0.81471 0.0
H1471 H 0.5725 0.50644 0.85348 0.0
C1472 C 0.58605 0.47222 0.71911 0.0
C1473 C 0.6007 0.49869 0.71606 0.0
C1474 C 0.57858 0.46038 0.75484 0.0
C1475 C 0.58546 0.47456 0.78873 0.0
C1476 C 0.60058 0.50098 0.78584 0.0
H1477 H 0.56355 0.40842 1.02078 0.0
H1478 H 0.5829 0.42933 0.96012 0.0
C1479 C 0.60792 0.51288 0.75005 0.0
C1480 C 0.57677 0.46155 0.82673 0.0
H1481 H 0.54362 0.45847 0.90736 0.0
C1482 C 0.58149 0.44184 0.83596 0.0
C1483 C 0.56294 0.46757 0.85317 0.0
C1484 C 0.55635 0.48785 0.8453 0.0
C1485 C 0.57273 0.42806 0.8703 0.0
C1486 C 0.55889 0.43408 0.89648 0.0
C1487 C 0.55434 0.45387 0.88749 0.0
C1488 C 0.54754 0.41922 0.93222 0.0
C1489 C 0.5777 0.40665 0.87787 0.0
C1490 C 0.52124 0.40613 0.93675 0.0
C1491 C 0.51017 0.39399 0.97111 0.0
C1492 C 0.52505 0.3948 1.00238 0.0
C1493 C 0.55142 0.40703 0.99733 0.0
C1494 C 0.56254 0.41914 0.96263 0.0
H1495 H 0.58481 0.40155 0.85215 0.0
H1496 H 0.59207 0.41227 0.9007 0.0
H1497 H 0.56024 0.3897 0.88787 0.0
H1498 H 0.50919 0.40581 0.91387 0.0
H1499 H 0.48983 0.38489 0.9736 0.0
H1500 H 0.11118 0.48987 0.30973 0.0
H1501 H 0.11558 0.50899 0.24735 0.0
H1502 H 0.16573 0.58234 0.29476 0.0
H1503 H 0.16157 0.56316 0.35781 0.0
H1504 H 0.10026 0.54309 0.23205 0.0
H1505 H 0.2015 0.58373 0.19483 0.0
H1506 H 0.18644 0.56037 0.23183 0.0
H1507 H 0.19532 0.59269 0.24066 0.0
C1508 C 0.12367 0.51002 0.30693 0.0
C1509 C 0.13605 0.52494 0.339 0.0
C1510 C 0.12609 0.52096 0.27109 0.0
C1511 C 0.14101 0.54713 0.26609 0.0
C1512 C 0.15441 0.56206 0.29762 0.0
H1513 H 0.10845 0.61802 0.07386 0.0
H1514 H 0.11596 0.60696 0.13744 0.0
C1515 C 0.15207 0.55104 0.33371 0.0
C1516 C 0.14046 0.55858 0.2287 0.0
H1517 H 0.1767 0.59297 0.15311 0.0
C1518 C 0.11701 0.554 0.21481 0.0
C1519 C 0.16223 0.57271 0.20602 0.0
C1520 C 0.18781 0.57756 0.2188 0.0
C1521 C 0.1146 0.56286 0.17896 0.0
C1522 C 0.13643 0.57736 0.15629 0.0
C1523 C 0.15995 0.58201 0.17029 0.0
C1524 C 0.13503 0.58724 0.11776 0.0
C1525 C 0.08843 0.55586 0.16566 0.0
C1526 C 0.14491 0.58163 0.08527 0.0
C1527 C 0.14134 0.58873 0.04868 0.0
C1528 C 0.12757 0.60134 0.04383 0.0
C1529 C 0.11897 0.60814 0.07652 0.0
C1530 C 0.123 0.60155 0.11298 0.0
H1531 H 0.0738 0.53818 0.17934 0.0
H1532 H 0.08445 0.57111 0.17365 0.0
H1533 H 0.08656 0.55332 0.13439 0.0
H1534 H 0.15447 0.57081 0.08801 0.0
H1535 H 0.148 0.58299 1.02412 0.0
loop_
_geom_bond_atom_site_label_1
_geom_bond_atom_site_label_2
_geom_bond_distance
_geom_bond_site_symmetry_2
_ccdc_geom_bond_type
Dy0 O4 2.398 . S
Dy0 O5 2.491 . S
Dy0 O6 2.403 . S
Dy0 O7 2.664 . S
Dy0 O11 2.326 . S
Dy0 O15 2.310 . S
Dy0 O16 2.351 . S
C1 O12 1.185 . S
C1 O13 1.355 . S
C2 O4 1.185 . S
C2 O5 1.355 . S
Dy3 O7 2.310 . S
Dy3 O10 2.351 . S
Dy3 O12 2.398 . S
Dy3 O13 2.491 . S
Dy3 O14 2.403 . S
Dy3 O15 2.664 . S
Dy3 O17 2.326 . S
O4 Dy0 2.398 . S
O4 C2 1.185 . S
O5 Dy0 2.491 . S
O5 C2 1.355 . S
O6 Dy0 2.403 . S
O6 C8 1.254 . S
O7 Dy0 2.664 . S
O7 Dy3 2.310 . S
O7 C8 1.268 . S
C8 O6 1.254 . S
C8 O7 1.268 . S
C9 O14 1.254 . S
C9 O15 1.268 . S
O10 Dy3 2.351 . S
O10 C18 1.249 . S
O11 Dy0 2.326 . S
O11 C18 1.267 . S
O12 C1 1.185 . S
O12 Dy3 2.398 . S
O13 C1 1.355 . S
O13 Dy3 2.491 . S
O14 Dy3 2.403 . S
O14 C9 1.254 . S
O15 Dy0 2.310 . S
O15 Dy3 2.664 . S
O15 C9 1.268 . S
O16 Dy0 2.351 . S
O16 C19 1.249 . S
O17 Dy3 2.326 . S
O17 C19 1.267 . S
C18 O10 1.249 . S
C18 O11 1.267 . S
C19 O16 1.249 . S
C19 O17 1.267 . S
Dy20 O24 2.398 . S
Dy20 O25 2.491 . S
Dy20 O26 2.403 . S
Dy20 O27 2.664 . S
Dy20 O31 2.326 . S
Dy20 O35 2.310 . S
Dy20 O36 2.351 . S
C21 O32 1.185 . S
C21 O33 1.355 . S
C22 O24 1.185 . S
C22 O25 1.355 . S
Dy23 O27 2.310 . S
Dy23 O30 2.351 . S
Dy23 O32 2.398 . S
Dy23 O33 2.491 . S
Dy23 O34 2.403 . S
Dy23 O35 2.664 . S
Dy23 O37 2.326 . S
O24 Dy20 2.398 . S
O24 C22 1.185 . S
O25 Dy20 2.491 . S
O25 C22 1.355 . S
O26 Dy20 2.403 . S
O26 C28 1.254 . S
O27 Dy20 2.664 . S
O27 Dy23 2.310 . S
O27 C28 1.268 . S
C28 O26 1.254 . S
C28 O27 1.268 . S
C29 O34 1.254 . S
C29 O35 1.268 . S
O30 Dy23 2.351 . S
O30 C38 1.249 . S
O31 Dy20 2.326 . S
O31 C38 1.267 . S
O32 C21 1.185 . S
O32 Dy23 2.398 . S
O33 C21 1.355 . S
O33 Dy23 2.491 . S
O34 Dy23 2.403 . S
O34 C29 1.254 . S
O35 Dy20 2.310 . S
O35 Dy23 2.664 . S
O35 C29 1.268 . S
O36 Dy20 2.351 . S
O36 C39 1.249 . S
O37 Dy23 2.326 . S
O37 C39 1.267 . S
C38 O30 1.249 . S
C38 O31 1.267 . S
C39 O36 1.249 . S
C39 O37 1.267 . S
Dy40 O44 2.398 . S
Dy40 O45 2.491 . S
Dy40 O46 2.403 . S
Dy40 O47 2.664 . S
Dy40 O51 2.326 . S
Dy40 O55 2.310 . S
Dy40 O56 2.351 . S
C41 O52 1.185 . S
C41 O53 1.355 . S
C42 O44 1.185 1_554 S
C42 O45 1.355 1_554 S
Dy43 O47 2.310 . S
Dy43 O50 2.351 . S
Dy43 O52 2.398 . S
Dy43 O53 2.491 . S
Dy43 O54 2.403 . S
Dy43 O55 2.664 . S
Dy43 O57 2.326 . S
O44 Dy40 2.398 . S
O44 C42 1.185 1_556 S
O45 Dy40 2.491 . S
O45 C42 1.355 1_556 S
O46 Dy40 2.403 . S
O46 C48 1.254 . S
O47 Dy40 2.664 . S
O47 Dy43 2.310 . S
O47 C48 1.268 . S
C48 O46 1.254 . S
C48 O47 1.268 . S
C49 O54 1.254 . S
C49 O55 1.268 . S
O50 Dy43 2.351 . S
O50 C58 1.249 . S
O51 Dy40 2.326 . S
O51 C58 1.267 . S
O52 C41 1.185 . S
O52 Dy43 2.398 . S
O53 C41 1.355 . S
O53 Dy43 2.491 . S
O54 Dy43 2.403 . S
O54 C49 1.254 . S
O55 Dy40 2.310 . S
O55 Dy43 2.664 . S
O55 C49 1.268 . S
O56 Dy40 2.351 . S
O56 C59 1.249 . S
O57 Dy43 2.326 . S
O57 C59 1.267 . S
C58 O50 1.249 . S
C58 O51 1.267 . S
C59 O56 1.249 . S
C59 O57 1.267 . S
Dy60 O64 2.398 . S
Dy60 O65 2.491 . S
Dy60 O66 2.403 . S
Dy60 O67 2.664 . S
Dy60 O71 2.326 . S
Dy60 O75 2.310 . S
Dy60 O76 2.351 . S
C61 O72 1.185 . S
C61 O73 1.355 . S
C62 O64 1.185 . S
C62 O65 1.355 . S
Dy63 O67 2.310 . S
Dy63 O70 2.351 . S
Dy63 O72 2.398 . S
Dy63 O73 2.491 . S
Dy63 O74 2.403 . S
Dy63 O75 2.664 . S
Dy63 O77 2.326 . S
O64 Dy60 2.398 . S
O64 C62 1.185 . S
O65 Dy60 2.491 . S
O65 C62 1.355 . S
O66 Dy60 2.403 . S
O66 C68 1.254 . S
O67 Dy60 2.664 . S
O67 Dy63 2.310 . S
O67 C68 1.268 . S
C68 O66 1.254 . S
C68 O67 1.268 . S
C69 O74 1.254 . S
C69 O75 1.268 . S
O70 Dy63 2.351 . S
O70 C78 1.249 . S
O71 Dy60 2.326 . S
O71 C78 1.267 . S
O72 C61 1.185 . S
O72 Dy63 2.398 . S
O73 C61 1.355 . S
O73 Dy63 2.491 . S
O74 Dy63 2.403 . S
O74 C69 1.254 . S
O75 Dy60 2.310 . S
O75 Dy63 2.664 . S
O75 C69 1.268 . S
O76 Dy60 2.351 . S
O76 C79 1.249 . S
O77 Dy63 2.326 . S
O77 C79 1.267 . S
C78 O70 1.249 . S
C78 O71 1.267 . S
C79 O76 1.249 . S
C79 O77 1.267 . S
Dy80 O84 2.398 . S
Dy80 O85 2.491 . S
Dy80 O86 2.403 . S
Dy80 O87 2.664 . S
Dy80 O91 2.326 . S
Dy80 O95 2.310 . S
Dy80 O96 2.351 . S
C81 O92 1.185 . S
C81 O93 1.355 . S
C82 O84 1.185 . S
C82 O85 1.355 . S
Dy83 O87 2.310 . S
Dy83 O90 2.351 . S
Dy83 O92 2.398 . S
Dy83 O93 2.491 . S
Dy83 O94 2.403 . S
Dy83 O95 2.664 . S
Dy83 O97 2.326 . S
O84 Dy80 2.398 . S
O84 C82 1.185 . S
O85 Dy80 2.491 . S
O85 C82 1.355 . S
O86 Dy80 2.403 . S
O86 C88 1.254 . S
O87 Dy80 2.664 . S
O87 Dy83 2.310 . S
O87 C88 1.268 . S
C88 O86 1.254 . S
C88 O87 1.268 . S
C89 O94 1.254 . S
C89 O95 1.268 . S
O90 Dy83 2.351 . S
O90 C98 1.249 . S
O91 Dy80 2.326 . S
O91 C98 1.267 . S
O92 C81 1.185 . S
O92 Dy83 2.398 . S
O93 C81 1.355 . S
O93 Dy83 2.491 . S
O94 Dy83 2.403 . S
O94 C89 1.254 . S
O95 Dy80 2.310 . S
O95 Dy83 2.664 . S
O95 C89 1.268 . S
O96 Dy80 2.351 . S
O96 C99 1.249 . S
O97 Dy83 2.326 . S
O97 C99 1.267 . S
C98 O90 1.249 . S
C98 O91 1.267 . S
C99 O96 1.249 . S
C99 O97 1.267 . S
Dy100 O104 2.398 . S
Dy100 O105 2.491 . S
Dy100 O106 2.403 . S
Dy100 O107 2.664 . S
Dy100 O111 2.326 . S
Dy100 O115 2.310 . S
Dy100 O116 2.351 . S
C101 O112 1.185 . S
C101 O113 1.355 . S
C102 O104 1.185 1_554 S
C102 O105 1.355 1_554 S
Dy103 O107 2.310 . S
Dy103 O110 2.351 . S
Dy103 O112 2.398 . S
Dy103 O113 2.491 . S
Dy103 O114 2.403 . S
Dy103 O115 2.664 . S
Dy103 O117 2.326 . S
O104 Dy100 2.398 . S
O104 C102 1.185 1_556 S
O105 Dy100 2.491 . S
O105 C102 1.355 1_556 S
O106 Dy100 2.403 . S
O106 C108 1.254 . S
O107 Dy100 2.664 . S
O107 Dy103 2.310 . S
O107 C108 1.268 . S
C108 O106 1.254 . S
C108 O107 1.268 . S
C109 O114 1.254 . S
C109 O115 1.268 . S
O110 Dy103 2.351 . S
O110 C118 1.249 . S
O111 Dy100 2.326 . S
O111 C118 1.267 . S
O112 C101 1.185 . S
O112 Dy103 2.398 . S
O113 C101 1.355 . S
O113 Dy103 2.491 . S
O114 Dy103 2.403 . S
O114 C109 1.254 . S
O115 Dy100 2.310 . S
O115 Dy103 2.664 . S
O115 C109 1.268 . S
O116 Dy100 2.351 . S
O116 C119 1.249 . S
O117 Dy103 2.326 . S
O117 C119 1.267 . S
C118 O110 1.249 . S
C118 O111 1.267 . S
C119 O116 1.249 . S
C119 O117 1.267 . S
Dy120 O124 2.398 . S
Dy120 O125 2.491 . S
Dy120 O126 2.403 . S
Dy120 O127 2.664 . S
Dy120 O131 2.326 . S
Dy120 O135 2.310 . S
Dy120 O136 2.351 . S
C121 O132 1.185 . S
C121 O133 1.355 . S
C122 O124 1.185 . S
C122 O125 1.355 . S
Dy123 O127 2.310 . S
Dy123 O130 2.351 . S
Dy123 O132 2.398 . S
Dy123 O133 2.491 . S
Dy123 O134 2.403 . S
Dy123 O135 2.664 . S
Dy123 O137 2.326 . S
O124 Dy120 2.398 . S
O124 C122 1.185 . S
O125 Dy120 2.491 . S
O125 C122 1.355 . S
O126 Dy120 2.403 . S
O126 C128 1.254 . S
O127 Dy120 2.664 . S
O127 Dy123 2.310 . S
O127 C128 1.268 . S
C128 O126 1.254 . S
C128 O127 1.268 . S
C129 O134 1.254 . S
C129 O135 1.268 . S
O130 Dy123 2.351 . S
O130 C138 1.249 . S
O131 Dy120 2.326 . S
O131 C138 1.267 . S
O132 C121 1.185 . S
O132 Dy123 2.398 . S
O133 C121 1.355 . S
O133 Dy123 2.491 . S
O134 Dy123 2.403 . S
O134 C129 1.254 . S
O135 Dy120 2.310 . S
O135 Dy123 2.664 . S
O135 C129 1.268 . S
O136 Dy120 2.351 . S
O136 C139 1.249 . S
O137 Dy123 2.326 . S
O137 C139 1.267 . S
C138 O130 1.249 . S
C138 O131 1.267 . S
C139 O136 1.249 . S
C139 O137 1.267 . S
Dy140 O144 2.398 . S
Dy140 O145 2.491 . S
Dy140 O146 2.403 . S
Dy140 O147 2.664 . S
Dy140 O151 2.326 . S
Dy140 O155 2.310 . S
Dy140 O156 2.351 . S
C141 O152 1.185 . S
C141 O153 1.355 . S
C142 O144 1.185 . S
C142 O145 1.355 . S
Dy143 O147 2.310 . S
Dy143 O150 2.351 . S
Dy143 O152 2.398 . S
Dy143 O153 2.491 . S
Dy143 O154 2.403 . S
Dy143 O155 2.664 . S
Dy143 O157 2.326 . S
O144 Dy140 2.398 . S
O144 C142 1.185 . S
O145 Dy140 2.491 . S
O145 C142 1.355 . S
O146 Dy140 2.403 . S
O146 C148 1.254 . S
O147 Dy140 2.664 . S
O147 Dy143 2.310 . S
O147 C148 1.268 . S
C148 O146 1.254 . S
C148 O147 1.268 . S
C149 O154 1.254 . S
C149 O155 1.268 . S
O150 Dy143 2.351 . S
O150 C158 1.249 . S
O151 Dy140 2.326 . S
O151 C158 1.267 . S
O152 C141 1.185 . S
O152 Dy143 2.398 . S
O153 C141 1.355 . S
O153 Dy143 2.491 . S
O154 Dy143 2.403 . S
O154 C149 1.254 . S
O155 Dy140 2.310 . S
O155 Dy143 2.664 . S
O155 C149 1.268 . S
O156 Dy140 2.351 . S
O156 C159 1.249 . S
O157 Dy143 2.326 . S
O157 C159 1.267 . S
C158 O150 1.249 . S
C158 O151 1.267 . S
C159 O156 1.249 . S
C159 O157 1.267 . S
Dy160 O164 2.398 . S
Dy160 O165 2.491 . S
Dy160 O166 2.403 . S
Dy160 O167 2.664 . S
Dy160 O171 2.326 . S
Dy160 O175 2.310 . S
Dy160 O176 2.351 . S
C161 O172 1.185 . S
C161 O173 1.355 . S
C162 O164 1.185 1_556 S
C162 O165 1.355 1_556 S
Dy163 O167 2.310 . S
Dy163 O170 2.351 . S
Dy163 O172 2.398 . S
Dy163 O173 2.491 . S
Dy163 O174 2.403 . S
Dy163 O175 2.664 . S
Dy163 O177 2.326 . S
O164 Dy160 2.398 . S
O164 C162 1.185 1_554 S
O165 Dy160 2.491 . S
O165 C162 1.355 1_554 S
O166 Dy160 2.403 . S
O166 C168 1.254 . S
O167 Dy160 2.664 . S
O167 Dy163 2.310 . S
O167 C168 1.268 . S
C168 O166 1.254 . S
C168 O167 1.268 . S
C169 O174 1.254 . S
C169 O175 1.268 . S
O170 Dy163 2.351 . S
O170 C178 1.249 . S
O171 Dy160 2.326 . S
O171 C178 1.267 . S
O172 C161 1.185 . S
O172 Dy163 2.398 . S
O173 C161 1.355 . S
O173 Dy163 2.491 . S
O174 Dy163 2.403 . S
O174 C169 1.254 . S
O175 Dy160 2.310 . S
O175 Dy163 2.664 . S
O175 C169 1.268 . S
O176 Dy160 2.351 . S
O176 C179 1.249 . S
O177 Dy163 2.326 . S
O177 C179 1.267 . S
C178 O170 1.249 . S
C178 O171 1.267 . S
C179 O176 1.249 . S
C179 O177 1.267 . S
Dy180 O184 2.398 . S
Dy180 O185 2.491 . S
Dy180 O186 2.403 . S
Dy180 O187 2.664 . S
Dy180 O191 2.326 . S
Dy180 O195 2.310 . S
Dy180 O196 2.351 . S
C181 O192 1.185 . S
C181 O193 1.355 . S
C182 O184 1.185 . S
C182 O185 1.355 . S
Dy183 O187 2.310 . S
Dy183 O190 2.351 . S
Dy183 O192 2.398 . S
Dy183 O193 2.491 . S
Dy183 O194 2.403 . S
Dy183 O195 2.664 . S
Dy183 O197 2.326 . S
O184 Dy180 2.398 . S
O184 C182 1.185 . S
O185 Dy180 2.491 . S
O185 C182 1.355 . S
O186 Dy180 2.403 . S
O186 C188 1.254 . S
O187 Dy180 2.664 . S
O187 Dy183 2.310 . S
O187 C188 1.268 . S
C188 O186 1.254 . S
C188 O187 1.268 . S
C189 O194 1.254 . S
C189 O195 1.268 . S
O190 Dy183 2.351 . S
O190 C198 1.249 . S
O191 Dy180 2.326 . S
O191 C198 1.267 . S
O192 C181 1.185 . S
O192 Dy183 2.398 . S
O193 C181 1.355 . S
O193 Dy183 2.491 . S
O194 Dy183 2.403 . S
O194 C189 1.254 . S
O195 Dy180 2.310 . S
O195 Dy183 2.664 . S
O195 C189 1.268 . S
O196 Dy180 2.351 . S
O196 C199 1.249 . S
O197 Dy183 2.326 . S
O197 C199 1.267 . S
C198 O190 1.249 . S
C198 O191 1.267 . S
C199 O196 1.249 . S
C199 O197 1.267 . S
Dy200 O204 2.398 . S
Dy200 O205 2.491 . S
Dy200 O206 2.403 . S
Dy200 O207 2.664 . S
Dy200 O211 2.326 . S
Dy200 O215 2.310 . S
Dy200 O216 2.351 . S
C201 O212 1.185 . S
C201 O213 1.355 . S
C202 O204 1.185 . S
C202 O205 1.355 . S
Dy203 O207 2.310 . S
Dy203 O210 2.351 . S
Dy203 O212 2.398 . S
Dy203 O213 2.491 . S
Dy203 O214 2.403 . S
Dy203 O215 2.664 . S
Dy203 O217 2.326 . S
O204 Dy200 2.398 . S
O204 C202 1.185 . S
O205 Dy200 2.491 . S
O205 C202 1.355 . S
O206 Dy200 2.403 . S
O206 C208 1.254 . S
O207 Dy200 2.664 . S
O207 Dy203 2.310 . S
O207 C208 1.268 . S
C208 O206 1.254 . S
C208 O207 1.268 . S
C209 O214 1.254 . S
C209 O215 1.268 . S
O210 Dy203 2.351 . S
O210 C218 1.249 . S
O211 Dy200 2.326 . S
O211 C218 1.267 . S
O212 C201 1.185 . S
O212 Dy203 2.398 . S
O213 C201 1.355 . S
O213 Dy203 2.491 . S
O214 Dy203 2.403 . S
O214 C209 1.254 . S
O215 Dy200 2.310 . S
O215 Dy203 2.664 . S
O215 C209 1.268 . S
O216 Dy200 2.351 . S
O216 C219 1.249 . S
O217 Dy203 2.326 . S
O217 C219 1.267 . S
C218 O210 1.249 . S
C218 O211 1.267 . S
C219 O216 1.249 . S
C219 O217 1.267 . S
Dy220 O224 2.398 . S
Dy220 O225 2.491 . S
Dy220 O226 2.403 . S
Dy220 O227 2.664 . S
Dy220 O231 2.326 . S
Dy220 O235 2.310 . S
Dy220 O236 2.351 . S
C221 O232 1.185 . S
C221 O233 1.355 . S
C222 O224 1.185 1_556 S
C222 O225 1.355 1_556 S
Dy223 O227 2.310 . S
Dy223 O230 2.351 . S
Dy223 O232 2.398 . S
Dy223 O233 2.491 . S
Dy223 O234 2.403 . S
Dy223 O235 2.664 . S
Dy223 O237 2.326 . S
O224 Dy220 2.398 . S
O224 C222 1.185 1_554 S
O225 Dy220 2.491 . S
O225 C222 1.355 1_554 S
O226 Dy220 2.403 . S
O226 C228 1.254 . S
O227 Dy220 2.664 . S
O227 Dy223 2.310 . S
O227 C228 1.268 . S
C228 O226 1.254 . S
C228 O227 1.268 . S
C229 O234 1.254 . S
C229 O235 1.268 . S
O230 Dy223 2.351 . S
O230 C238 1.249 . S
O231 Dy220 2.326 . S
O231 C238 1.267 . S
O232 C221 1.185 . S
O232 Dy223 2.398 . S
O233 C221 1.355 . S
O233 Dy223 2.491 . S
O234 Dy223 2.403 . S
O234 C229 1.254 . S
O235 Dy220 2.310 . S
O235 Dy223 2.664 . S
O235 C229 1.268 . S
O236 Dy220 2.351 . S
O236 C239 1.249 . S
O237 Dy223 2.326 . S
O237 C239 1.267 . S
C238 O230 1.249 . S
C238 O231 1.267 . S
C239 O236 1.249 . S
C239 O237 1.267 . S
H240 C248 0.929 . S
H241 C250 0.930 . S
H242 C252 0.930 . S
H243 C255 0.929 . S
H244 C258 0.930 . S
H245 C260 0.960 . S
H246 C260 0.960 . S
H247 C260 0.960 . S
C248 H240 0.929 . S
C248 C249 1.377 . S
C248 C250 1.384 . S
C249 C248 1.377 . S
C249 C255 1.390 . S
C250 H241 0.930 . S
C250 C248 1.384 . S
C250 C251 1.372 . S
C251 C250 1.372 . S
C251 C252 1.400 . S
C251 C256 1.490 . S
C252 H242 0.930 . S
C252 C251 1.400 . S
C252 C255 1.386 . S
H253 C269 0.930 . S
H254 C270 0.931 . S
C255 H243 0.929 . S
C255 C249 1.390 . S
C255 C252 1.386 . S
C256 C251 1.490 . S
C256 C258 1.395 . S
C256 C259 1.403 . S
H257 C263 0.930 . S
C258 H244 0.930 . S
C258 C256 1.395 . S
C258 C261 1.403 . S
C259 C256 1.403 . S
C259 C260 1.524 . S
C259 C263 1.400 . S
C260 H245 0.960 . S
C260 H246 0.960 . S
C260 H247 0.960 . S
C260 C259 1.524 . S
C261 C258 1.403 . S
C261 C262 1.392 . S
C261 C265 1.495 . S
C262 C261 1.392 . S
C262 C263 1.385 . S
C262 C264 1.478 . S
C263 H257 0.930 . S
C263 C259 1.400 . S
C263 C262 1.385 . S
C264 C262 1.478 . S
C264 C266 1.381 . S
C264 C270 1.383 . S
C265 C261 1.495 . S
C265 H271 0.959 . S
C265 H272 0.961 . S
C265 H273 0.960 . S
C266 C264 1.381 . S
C266 C267 1.394 . S
C266 H274 0.930 . S
C267 C266 1.394 . S
C267 C268 1.383 . S
C267 H275 0.929 . S
C268 C267 1.383 . S
C268 C269 1.377 . S
C269 H253 0.930 . S
C269 C268 1.377 . S
C269 C270 1.379 . S
C270 H254 0.931 . S
C270 C264 1.383 . S
C270 C269 1.379 . S
H271 C265 0.959 . S
H272 C265 0.961 . S
H273 C265 0.960 . S
H274 C266 0.930 . S
H275 C267 0.929 . S
H276 C284 0.929 . S
H277 C286 0.930 . S
H278 C288 0.930 . S
H279 C291 0.929 . S
H280 C294 0.930 . S
H281 C296 0.960 . S
H282 C296 0.960 . S
H283 C296 0.960 . S
C284 H276 0.929 . S
C284 C285 1.377 . S
C284 C286 1.384 . S
C285 C284 1.377 . S
C285 C291 1.390 . S
C286 H277 0.930 . S
C286 C284 1.384 . S
C286 C287 1.372 . S
C287 C286 1.372 . S
C287 C288 1.400 . S
C287 C292 1.490 . S
C288 H278 0.930 . S
C288 C287 1.400 . S
C288 C291 1.386 . S
H289 C305 0.930 . S
H290 C306 0.931 . S
C291 H279 0.929 . S
C291 C285 1.390 . S
C291 C288 1.386 . S
C292 C287 1.490 . S
C292 C294 1.395 . S
C292 C295 1.403 . S
H293 C299 0.930 . S
C294 H280 0.930 . S
C294 C292 1.395 . S
C294 C297 1.403 . S
C295 C292 1.403 . S
C295 C296 1.524 . S
C295 C299 1.400 . S
C296 H281 0.960 . S
C296 H282 0.960 . S
C296 H283 0.960 . S
C296 C295 1.524 . S
C297 C294 1.403 . S
C297 C298 1.392 . S
C297 C301 1.495 . S
C298 C297 1.392 . S
C298 C299 1.385 . S
C298 C300 1.478 . S
C299 H293 0.930 . S
C299 C295 1.400 . S
C299 C298 1.385 . S
C300 C298 1.478 . S
C300 C302 1.381 . S
C300 C306 1.383 . S
C301 C297 1.495 . S
C301 H307 0.959 . S
C301 H308 0.961 . S
C301 H309 0.960 . S
C302 C300 1.381 . S
C302 C303 1.394 . S
C302 H310 0.930 . S
C303 C302 1.394 . S
C303 C304 1.383 . S
C303 H311 0.929 . S
C304 C303 1.383 . S
C304 C305 1.377 . S
C305 H289 0.930 . S
C305 C304 1.377 . S
C305 C306 1.379 . S
C306 H290 0.931 . S
C306 C300 1.383 . S
C306 C305 1.379 . S
H307 C301 0.959 . S
H308 C301 0.961 . S
H309 C301 0.960 . S
H310 C302 0.930 . S
H311 C303 0.929 . S
H312 C320 0.929 . S
H313 C322 0.930 . S
H314 C324 0.930 . S
H315 C327 0.929 . S
H316 C330 0.930 . S
H317 C332 0.960 . S
H318 C332 0.960 . S
H319 C332 0.960 . S
C320 H312 0.929 . S
C320 C321 1.377 . S
C320 C322 1.384 . S
C321 C320 1.377 . S
C321 C327 1.390 . S
C322 H313 0.930 . S
C322 C320 1.384 . S
C322 C323 1.372 . S
C323 C322 1.372 . S
C323 C324 1.400 . S
C323 C328 1.490 . S
C324 H314 0.930 . S
C324 C323 1.400 . S
C324 C327 1.386 . S
H325 C341 0.930 . S
H326 C342 0.931 . S
C327 H315 0.929 . S
C327 C321 1.390 . S
C327 C324 1.386 . S
C328 C323 1.490 . S
C328 C330 1.395 . S
C328 C331 1.403 . S
H329 C335 0.930 . S
C330 H316 0.930 . S
C330 C328 1.395 . S
C330 C333 1.403 . S
C331 C328 1.403 . S
C331 C332 1.524 . S
C331 C335 1.400 . S
C332 H317 0.960 . S
C332 H318 0.960 . S
C332 H319 0.960 . S
C332 C331 1.524 . S
C333 C330 1.403 . S
C333 C334 1.392 . S
C333 C337 1.495 . S
C334 C333 1.392 . S
C334 C335 1.385 . S
C334 C336 1.478 . S
C335 H329 0.930 . S
C335 C331 1.400 . S
C335 C334 1.385 . S
C336 C334 1.478 . S
C336 C338 1.381 . S
C336 C342 1.383 . S
C337 C333 1.495 . S
C337 H343 0.959 . S
C337 H344 0.961 . S
C337 H345 0.960 . S
C338 C336 1.381 . S
C338 C339 1.394 . S
C338 H346 0.930 . S
C339 C338 1.394 . S
C339 C340 1.383 . S
C339 H347 0.929 . S
C340 C339 1.383 . S
C340 C341 1.377 . S
C341 H325 0.930 . S
C341 C340 1.377 . S
C341 C342 1.379 . S
C342 H326 0.931 . S
C342 C336 1.383 . S
C342 C341 1.379 . S
H343 C337 0.959 . S
H344 C337 0.961 . S
H345 C337 0.960 . S
H346 C338 0.930 . S
H347 C339 0.929 . S
H348 C356 0.929 . S
H349 C358 0.930 . S
H350 C360 0.930 . S
H351 C363 0.929 . S
H352 C366 0.930 . S
H353 C368 0.960 . S
H354 C368 0.960 . S
H355 C368 0.960 . S
C356 H348 0.929 . S
C356 C357 1.377 . S
C356 C358 1.384 . S
C357 C356 1.377 . S
C357 C363 1.390 . S
C358 H349 0.930 . S
C358 C356 1.384 . S
C358 C359 1.372 . S
C359 C358 1.372 . S
C359 C360 1.400 . S
C359 C364 1.490 . S
C360 H350 0.930 . S
C360 C359 1.400 . S
C360 C363 1.386 . S
H361 C377 0.930 . S
H362 C378 0.931 . S
C363 H351 0.929 . S
C363 C357 1.390 . S
C363 C360 1.386 . S
C364 C359 1.490 . S
C364 C366 1.395 . S
C364 C367 1.403 . S
H365 C371 0.930 . S
C366 H352 0.930 . S
C366 C364 1.395 . S
C366 C369 1.403 . S
C367 C364 1.403 . S
C367 C368 1.524 . S
C367 C371 1.400 . S
C368 H353 0.960 . S
C368 H354 0.960 . S
C368 H355 0.960 . S
C368 C367 1.524 . S
C369 C366 1.403 . S
C369 C370 1.392 . S
C369 C373 1.495 . S
C370 C369 1.392 . S
C370 C371 1.385 . S
C370 C372 1.478 . S
C371 H365 0.930 . S
C371 C367 1.400 . S
C371 C370 1.385 . S
C372 C370 1.478 . S
C372 C374 1.381 . S
C372 C378 1.383 . S
C373 C369 1.495 . S
C373 H379 0.959 . S
C373 H380 0.961 . S
C373 H381 0.960 . S
C374 C372 1.381 . S
C374 C375 1.394 . S
C374 H382 0.930 . S
C375 C374 1.394 . S
C375 C376 1.383 . S
C375 H383 0.929 . S
C376 C375 1.383 . S
C376 C377 1.377 . S
C377 H361 0.930 . S
C377 C376 1.377 . S
C377 C378 1.379 . S
C378 H362 0.931 . S
C378 C372 1.383 . S
C378 C377 1.379 . S
H379 C373 0.959 . S
H380 C373 0.961 . S
H381 C373 0.960 . S
H382 C374 0.930 . S
H383 C375 0.929 . S
H384 C392 0.929 . S
H385 C394 0.930 . S
H386 C396 0.930 . S
H387 C399 0.929 . S
H388 C402 0.930 . S
H389 C404 0.960 . S
H390 C404 0.960 . S
H391 C404 0.960 . S
C392 H384 0.929 . S
C392 C393 1.377 . S
C392 C394 1.384 . S
C393 C392 1.377 . S
C393 C399 1.390 . S
C394 H385 0.930 . S
C394 C392 1.384 . S
C394 C395 1.372 . S
C395 C394 1.372 . S
C395 C396 1.400 . S
C395 C400 1.490 . S
C396 H386 0.930 . S
C396 C395 1.400 . S
C396 C399 1.386 . S
H397 C413 0.930 . S
H398 C414 0.931 . S
C399 H387 0.929 . S
C399 C393 1.390 . S
C399 C396 1.386 . S
C400 C395 1.490 . S
C400 C402 1.395 . S
C400 C403 1.403 . S
H401 C407 0.930 . S
C402 H388 0.930 . S
C402 C400 1.395 . S
C402 C405 1.403 . S
C403 C400 1.403 . S
C403 C404 1.524 . S
C403 C407 1.400 . S
C404 H389 0.960 . S
C404 H390 0.960 . S
C404 H391 0.960 . S
C404 C403 1.524 . S
C405 C402 1.403 . S
C405 C406 1.392 . S
C405 C409 1.495 . S
C406 C405 1.392 . S
C406 C407 1.385 . S
C406 C408 1.478 . S
C407 H401 0.930 . S
C407 C403 1.400 . S
C407 C406 1.385 . S
C408 C406 1.478 . S
C408 C410 1.381 . S
C408 C414 1.383 . S
C409 C405 1.495 . S
C409 H415 0.959 . S
C409 H416 0.961 . S
C409 H417 0.960 . S
C410 C408 1.381 . S
C410 C411 1.394 . S
C410 H418 0.930 . S
C411 C410 1.394 . S
C411 C412 1.383 . S
C411 H419 0.929 . S
C412 C411 1.383 . S
C412 C413 1.377 . S
C413 H397 0.930 . S
C413 C412 1.377 . S
C413 C414 1.379 . S
C414 H398 0.931 . S
C414 C408 1.383 . S
C414 C413 1.379 . S
H415 C409 0.959 . S
H416 C409 0.961 . S
H417 C409 0.960 . S
H418 C410 0.930 . S
H419 C411 0.929 . S
H420 C428 0.929 . S
H421 C430 0.930 . S
H422 C432 0.930 . S
H423 C435 0.929 . S
H424 C438 0.930 . S
H425 C440 0.960 . S
H426 C440 0.960 . S
H427 C440 0.960 . S
C428 H420 0.929 . S
C428 C429 1.377 . S
C428 C430 1.384 . S
C429 C428 1.377 . S
C429 C435 1.390 . S
C430 H421 0.930 . S
C430 C428 1.384 . S
C430 C431 1.372 . S
C431 C430 1.372 . S
C431 C432 1.400 . S
C431 C436 1.490 . S
C432 H422 0.930 . S
C432 C431 1.400 . S
C432 C435 1.386 . S
H433 C449 0.930 . S
H434 C450 0.931 . S
C435 H423 0.929 . S
C435 C429 1.390 . S
C435 C432 1.386 . S
C436 C431 1.490 . S
C436 C438 1.395 . S
C436 C439 1.403 . S
H437 C443 0.930 . S
C438 H424 0.930 . S
C438 C436 1.395 . S
C438 C441 1.403 . S
C439 C436 1.403 . S
C439 C440 1.524 . S
C439 C443 1.400 . S
C440 H425 0.960 . S
C440 H426 0.960 . S
C440 H427 0.960 . S
C440 C439 1.524 . S
C441 C438 1.403 . S
C441 C442 1.392 . S
C441 C445 1.495 . S
C442 C441 1.392 . S
C442 C443 1.385 . S
C442 C444 1.478 . S
C443 H437 0.930 . S
C443 C439 1.400 . S
C443 C442 1.385 . S
C444 C442 1.478 . S
C444 C446 1.381 . S
C444 C450 1.383 . S
C445 C441 1.495 . S
C445 H451 0.959 . S
C445 H452 0.961 . S
C445 H453 0.960 . S
C446 C444 1.381 . S
C446 C447 1.394 . S
C446 H454 0.930 . S
C447 C446 1.394 . S
C447 C448 1.383 . S
C447 H455 0.929 . S
C448 C447 1.383 . S
C448 C449 1.377 . S
C449 H433 0.930 . S
C449 C448 1.377 . S
C449 C450 1.379 . S
C450 H434 0.931 . S
C450 C444 1.383 . S
C450 C449 1.379 . S
H451 C445 0.959 . S
H452 C445 0.961 . S
H453 C445 0.960 . S
H454 C446 0.930 . S
H455 C447 0.929 . S
H456 C464 0.929 . S
H457 C466 0.930 . S
H458 C468 0.930 . S
H459 C471 0.929 . S
H460 C474 0.930 . S
H461 C476 0.960 . S
H462 C476 0.960 . S
H463 C476 0.960 . S
C464 H456 0.929 . S
C464 C465 1.377 . S
C464 C466 1.384 . S
C465 C464 1.377 . S
C465 C471 1.390 . S
C466 H457 0.930 . S
C466 C464 1.384 . S
C466 C467 1.372 . S
C467 C466 1.372 . S
C467 C468 1.400 . S
C467 C472 1.490 . S
C468 H458 0.930 . S
C468 C467 1.400 . S
C468 C471 1.386 . S
H469 C485 0.930 . S
H470 C486 0.931 . S
C471 H459 0.929 . S
C471 C465 1.390 . S
C471 C468 1.386 . S
C472 C467 1.490 . S
C472 C474 1.395 . S
C472 C475 1.403 . S
H473 C479 0.930 . S
C474 H460 0.930 . S
C474 C472 1.395 . S
C474 C477 1.403 1_556 S
C475 C472 1.403 . S
C475 C476 1.524 . S
C475 C479 1.400 1_556 S
C476 H461 0.960 . S
C476 H462 0.960 . S
C476 H463 0.960 . S
C476 C475 1.524 . S
C477 C474 1.403 1_554 S
C477 C478 1.392 . S
C477 C481 1.495 . S
C478 C477 1.392 . S
C478 C479 1.385 . S
C478 C480 1.478 . S
C479 H473 0.930 . S
C479 C475 1.400 1_554 S
C479 C478 1.385 . S
C480 C478 1.478 . S
C480 C482 1.381 . S
C480 C486 1.383 . S
C481 C477 1.495 . S
C481 H487 0.959 . S
C481 H488 0.961 . S
C481 H489 0.960 . S
C482 C480 1.381 . S
C482 C483 1.394 . S
C482 H490 0.930 . S
C483 C482 1.394 . S
C483 C484 1.383 . S
C483 H491 0.929 . S
C484 C483 1.383 . S
C484 C485 1.377 . S
C485 H469 0.930 . S
C485 C484 1.377 . S
C485 C486 1.379 . S
C486 H470 0.931 . S
C486 C480 1.383 . S
C486 C485 1.379 . S
H487 C481 0.959 . S
H488 C481 0.961 . S
H489 C481 0.960 . S
H490 C482 0.930 . S
H491 C483 0.929 . S
H492 C500 0.929 . S
H493 C502 0.930 . S
H494 C504 0.930 . S
H495 C507 0.929 . S
H496 C510 0.930 . S
H497 C512 0.960 . S
H498 C512 0.960 . S
H499 C512 0.960 . S
C500 H492 0.929 . S
C500 C501 1.377 . S
C500 C502 1.384 . S
C501 C500 1.377 . S
C501 C507 1.390 . S
C502 H493 0.930 . S
C502 C500 1.384 . S
C502 C503 1.372 . S
C503 C502 1.372 . S
C503 C504 1.400 . S
C503 C508 1.490 . S
C504 H494 0.930 . S
C504 C503 1.400 . S
C504 C507 1.386 . S
H505 C521 0.930 . S
H506 C522 0.931 . S
C507 H495 0.929 . S
C507 C501 1.390 . S
C507 C504 1.386 . S
C508 C503 1.490 . S
C508 C510 1.395 . S
C508 C511 1.403 . S
H509 C515 0.930 . S
C510 H496 0.930 . S
C510 C508 1.395 . S
C510 C513 1.403 . S
C511 C508 1.403 . S
C511 C512 1.524 . S
C511 C515 1.400 . S
C512 H497 0.960 . S
C512 H498 0.960 . S
C512 H499 0.960 . S
C512 C511 1.524 . S
C513 C510 1.403 . S
C513 C514 1.392 . S
C513 C517 1.495 . S
C514 C513 1.392 . S
C514 C515 1.385 . S
C514 C516 1.478 . S
C515 H509 0.930 . S
C515 C511 1.400 . S
C515 C514 1.385 . S
C516 C514 1.478 . S
C516 C518 1.381 . S
C516 C522 1.383 . S
C517 C513 1.495 . S
C517 H523 0.959 . S
C517 H524 0.961 . S
C517 H525 0.960 . S
C518 C516 1.381 . S
C518 C519 1.394 . S
C518 H526 0.930 . S
C519 C518 1.394 . S
C519 C520 1.383 . S
C519 H527 0.929 . S
C520 C519 1.383 . S
C520 C521 1.377 . S
C521 H505 0.930 . S
C521 C520 1.377 . S
C521 C522 1.379 . S
C522 H506 0.931 . S
C522 C516 1.383 . S
C522 C521 1.379 . S
H523 C517 0.959 . S
H524 C517 0.961 . S
H525 C517 0.960 . S
H526 C518 0.930 . S
H527 C519 0.929 . S
H528 C536 0.929 . S
H529 C538 0.930 . S
H530 C540 0.930 . S
H531 C543 0.929 . S
H532 C546 0.930 . S
H533 C548 0.960 . S
H534 C548 0.960 . S
H535 C548 0.960 . S
C536 H528 0.929 . S
C536 C537 1.377 . S
C536 C538 1.384 . S
C537 C536 1.377 . S
C537 C543 1.390 . S
C538 H529 0.930 . S
C538 C536 1.384 . S
C538 C539 1.372 . S
C539 C538 1.372 . S
C539 C540 1.400 . S
C539 C544 1.490 . S
C540 H530 0.930 . S
C540 C539 1.400 . S
C540 C543 1.386 . S
H541 C557 0.930 . S
H542 C558 0.931 . S
C543 H531 0.929 . S
C543 C537 1.390 . S
C543 C540 1.386 . S
C544 C539 1.490 . S
C544 C546 1.395 . S
C544 C547 1.403 . S
H545 C551 0.930 . S
C546 H532 0.930 . S
C546 C544 1.395 . S
C546 C549 1.403 . S
C547 C544 1.403 . S
C547 C548 1.524 . S
C547 C551 1.400 . S
C548 H533 0.960 . S
C548 H534 0.960 . S
C548 H535 0.960 . S
C548 C547 1.524 . S
C549 C546 1.403 . S
C549 C550 1.392 . S
C549 C553 1.495 . S
C550 C549 1.392 . S
C550 C551 1.385 . S
C550 C552 1.478 . S
C551 H545 0.930 . S
C551 C547 1.400 . S
C551 C550 1.385 . S
C552 C550 1.478 . S
C552 C554 1.381 . S
C552 C558 1.383 . S
C553 C549 1.495 . S
C553 H559 0.959 . S
C553 H560 0.961 . S
C553 H561 0.960 . S
C554 C552 1.381 . S
C554 C555 1.394 . S
C554 H562 0.930 . S
C555 C554 1.394 . S
C555 C556 1.383 . S
C555 H563 0.929 . S
C556 C555 1.383 . S
C556 C557 1.377 . S
C557 H541 0.930 . S
C557 C556 1.377 . S
C557 C558 1.379 . S
C558 H542 0.931 . S
C558 C552 1.383 . S
C558 C557 1.379 . S
H559 C553 0.959 . S
H560 C553 0.961 . S
H561 C553 0.960 . S
H562 C554 0.930 . S
H563 C555 0.929 . S
H564 C572 0.929 . S
H565 C574 0.930 . S
H566 C576 0.930 . S
H567 C579 0.929 . S
H568 C582 0.930 . S
H569 C584 0.960 . S
H570 C584 0.960 . S
H571 C584 0.960 . S
C572 H564 0.929 . S
C572 C573 1.377 . S
C572 C574 1.384 . S
C573 C572 1.377 . S
C573 C579 1.390 . S
C574 H565 0.930 . S
C574 C572 1.384 . S
C574 C575 1.372 . S
C575 C574 1.372 . S
C575 C576 1.400 . S
C575 C580 1.490 . S
C576 H566 0.930 . S
C576 C575 1.400 . S
C576 C579 1.386 . S
H577 C593 0.930 . S
H578 C594 0.931 . S
C579 H567 0.929 . S
C579 C573 1.390 . S
C579 C576 1.386 . S
C580 C575 1.490 . S
C580 C582 1.395 . S
C580 C583 1.403 . S
H581 C587 0.930 . S
C582 H568 0.930 . S
C582 C580 1.395 . S
C582 C585 1.403 1_556 S
C583 C580 1.403 . S
C583 C584 1.524 . S
C583 C587 1.400 1_556 S
C584 H569 0.960 . S
C584 H570 0.960 . S
C584 H571 0.960 . S
C584 C583 1.524 . S
C585 C582 1.403 1_554 S
C585 C586 1.392 . S
C585 C589 1.495 . S
C586 C585 1.392 . S
C586 C587 1.385 . S
C586 C588 1.478 . S
C587 H581 0.930 . S
C587 C583 1.400 1_554 S
C587 C586 1.385 . S
C588 C586 1.478 . S
C588 C590 1.381 . S
C588 C594 1.383 . S
C589 C585 1.495 . S
C589 H595 0.959 . S
C589 H596 0.961 . S
C589 H597 0.960 . S
C590 C588 1.381 . S
C590 C591 1.394 . S
C590 H598 0.930 . S
C591 C590 1.394 . S
C591 C592 1.383 . S
C591 H599 0.929 . S
C592 C591 1.383 . S
C592 C593 1.377 . S
C593 H577 0.930 . S
C593 C592 1.377 . S
C593 C594 1.379 . S
C594 H578 0.931 . S
C594 C588 1.383 . S
C594 C593 1.379 . S
H595 C589 0.959 . S
H596 C589 0.961 . S
H597 C589 0.960 . S
H598 C590 0.930 . S
H599 C591 0.929 . S
H600 C608 0.929 . S
H601 C610 0.930 . S
H602 C612 0.930 . S
H603 C615 0.929 . S
H604 C618 0.930 . S
H605 C620 0.960 . S
H606 C620 0.960 . S
H607 C620 0.960 . S
C608 H600 0.929 . S
C608 C609 1.377 . S
C608 C610 1.384 . S
C609 C608 1.377 . S
C609 C615 1.390 . S
C610 H601 0.930 . S
C610 C608 1.384 . S
C610 C611 1.372 . S
C611 C610 1.372 . S
C611 C612 1.400 . S
C611 C616 1.490 . S
C612 H602 0.930 . S
C612 C611 1.400 . S
C612 C615 1.386 . S
H613 C629 0.930 . S
H614 C630 0.931 . S
C615 H603 0.929 . S
C615 C609 1.390 . S
C615 C612 1.386 . S
C616 C611 1.490 . S
C616 C618 1.395 . S
C616 C619 1.403 . S
H617 C623 0.930 . S
C618 H604 0.930 . S
C618 C616 1.395 . S
C618 C621 1.403 . S
C619 C616 1.403 . S
C619 C620 1.524 . S
C619 C623 1.400 . S
C620 H605 0.960 . S
C620 H606 0.960 . S
C620 H607 0.960 . S
C620 C619 1.524 . S
C621 C618 1.403 . S
C621 C622 1.392 . S
C621 C625 1.495 . S
C622 C621 1.392 . S
C622 C623 1.385 . S
C622 C624 1.478 . S
C623 H617 0.930 . S
C623 C619 1.400 . S
C623 C622 1.385 . S
C624 C622 1.478 . S
C624 C626 1.381 . S
C624 C630 1.383 . S
C625 C621 1.495 . S
C625 H631 0.959 . S
C625 H632 0.961 . S
C625 H633 0.960 . S
C626 C624 1.381 . S
C626 C627 1.394 . S
C626 H634 0.930 . S
C627 C626 1.394 . S
C627 C628 1.383 . S
C627 H635 0.929 . S
C628 C627 1.383 . S
C628 C629 1.377 . S
C629 H613 0.930 . S
C629 C628 1.377 . S
C629 C630 1.379 . S
C630 H614 0.931 . S
C630 C624 1.383 . S
C630 C629 1.379 . S
H631 C625 0.959 . S
H632 C625 0.961 . S
H633 C625 0.960 . S
H634 C626 0.930 . S
H635 C627 0.929 . S
H636 C644 0.929 . S
H637 C646 0.930 . S
H638 C648 0.930 . S
H639 C651 0.929 . S
H640 C654 0.930 . S
H641 C656 0.960 . S
H642 C656 0.960 . S
H643 C656 0.960 . S
C644 H636 0.929 . S
C644 C645 1.377 . S
C644 C646 1.384 . S
C645 C644 1.377 . S
C645 C651 1.390 . S
C646 H637 0.930 . S
C646 C644 1.384 . S
C646 C647 1.372 . S
C647 C646 1.372 . S
C647 C648 1.400 . S
C647 C652 1.490 . S
C648 H638 0.930 . S
C648 C647 1.400 . S
C648 C651 1.386 . S
H649 C665 0.930 . S
H650 C666 0.931 . S
C651 H639 0.929 . S
C651 C645 1.390 . S
C651 C648 1.386 . S
C652 C647 1.490 . S
C652 C654 1.395 . S
C652 C655 1.403 . S
H653 C659 0.930 . S
C654 H640 0.930 . S
C654 C652 1.395 . S
C654 C657 1.403 . S
C655 C652 1.403 . S
C655 C656 1.524 . S
C655 C659 1.400 . S
C656 H641 0.960 . S
C656 H642 0.960 . S
C656 H643 0.960 . S
C656 C655 1.524 . S
C657 C654 1.403 . S
C657 C658 1.392 . S
C657 C661 1.495 . S
C658 C657 1.392 . S
C658 C659 1.385 . S
C658 C660 1.478 . S
C659 H653 0.930 . S
C659 C655 1.400 . S
C659 C658 1.385 . S
C660 C658 1.478 . S
C660 C662 1.381 . S
C660 C666 1.383 . S
C661 C657 1.495 . S
C661 H667 0.959 . S
C661 H668 0.961 . S
C661 H669 0.960 . S
C662 C660 1.381 . S
C662 C663 1.394 . S
C662 H670 0.930 . S
C663 C662 1.394 . S
C663 C664 1.383 . S
C663 H671 0.929 . S
C664 C663 1.383 . S
C664 C665 1.377 . S
C665 H649 0.930 . S
C665 C664 1.377 . S
C665 C666 1.379 . S
C666 H650 0.931 . S
C666 C660 1.383 . S
C666 C665 1.379 . S
H667 C661 0.959 . S
H668 C661 0.961 . S
H669 C661 0.960 . S
H670 C662 0.930 . S
H671 C663 0.929 . S
H672 C680 0.929 . S
H673 C682 0.930 . S
H674 C684 0.930 . S
H675 C687 0.929 . S
H676 C690 0.930 . S
H677 C692 0.958 . S
H678 C692 0.960 1_556 S
H679 C692 0.962 1_556 S
C680 H672 0.929 . S
C680 C681 1.377 . S
C680 C682 1.384 . S
C681 C680 1.377 . S
C681 C687 1.390 . S
C682 H673 0.930 . S
C682 C680 1.384 . S
C682 C683 1.372 . S
C683 C682 1.372 . S
C683 C684 1.400 . S
C683 C688 1.490 . S
C684 H674 0.930 . S
C684 C683 1.400 . S
C684 C687 1.386 . S
H685 C701 0.930 . S
H686 C702 0.931 . S
C687 H675 0.929 . S
C687 C681 1.390 . S
C687 C684 1.386 . S
C688 C683 1.490 . S
C688 C690 1.395 1_565 S
C688 C691 1.403 . S
H689 C695 0.930 . S
C690 H676 0.930 . S
C690 C688 1.395 1_545 S
C690 C693 1.404 . S
C691 C688 1.403 . S
C691 C692 1.524 1_556 S
C691 C695 1.400 1_556 S
C692 H677 0.958 . S
C692 H678 0.960 1_554 S
C692 H679 0.962 1_554 S
C692 C691 1.524 1_554 S
C693 C690 1.404 . S
C693 C694 1.392 1_556 S
C693 C697 1.495 . S
C694 C693 1.392 1_554 S
C694 C695 1.385 1_545 S
C694 C696 1.478 . S
C695 H689 0.930 . S
C695 C691 1.400 1_554 S
C695 C694 1.385 1_565 S
C696 C694 1.478 . S
C696 C698 1.381 . S
C696 C702 1.383 . S
C697 C693 1.495 . S
C697 H703 0.980 . S
C697 H704 0.957 1_556 S
C697 H705 0.943 1_556 S
C698 C696 1.381 . S
C698 C699 1.394 . S
C698 H706 0.930 . S
C699 C698 1.394 . S
C699 C700 1.383 . S
C699 H707 0.929 . S
C700 C699 1.383 . S
C700 C701 1.377 . S
C701 H685 0.930 . S
C701 C700 1.377 . S
C701 C702 1.379 . S
C702 H686 0.931 . S
C702 C696 1.383 . S
C702 C701 1.379 . S
H703 C697 0.980 . S
H704 C697 0.957 1_554 S
H705 C697 0.943 1_554 S
H706 C698 0.930 . S
H707 C699 0.929 . S
H708 C716 0.929 . S
H709 C718 0.930 . S
H710 C720 0.930 . S
H711 C723 0.929 . S
H712 C726 0.930 . S
H713 C728 0.960 . S
H714 C728 0.960 . S
H715 C728 0.960 . S
C716 H708 0.929 . S
C716 C717 1.377 . S
C716 C718 1.384 . S
C717 C716 1.377 . S
C717 C723 1.390 . S
C718 H709 0.930 . S
C718 C716 1.384 . S
C718 C719 1.372 . S
C719 C718 1.372 . S
C719 C720 1.400 . S
C719 C724 1.490 . S
C720 H710 0.930 . S
C720 C719 1.400 . S
C720 C723 1.386 . S
H721 C737 0.930 . S
H722 C738 0.931 . S
C723 H711 0.929 . S
C723 C717 1.390 . S
C723 C720 1.386 . S
C724 C719 1.490 . S
C724 C726 1.395 . S
C724 C727 1.403 . S
H725 C731 0.930 . S
C726 H712 0.930 . S
C726 C724 1.395 . S
C726 C729 1.403 . S
C727 C724 1.403 . S
C727 C728 1.524 . S
C727 C731 1.400 . S
C728 H713 0.960 . S
C728 H714 0.960 . S
C728 H715 0.960 . S
C728 C727 1.524 . S
C729 C726 1.403 . S
C729 C730 1.392 . S
C729 C733 1.495 . S
C730 C729 1.392 . S
C730 C731 1.385 . S
C730 C732 1.478 . S
C731 H725 0.930 . S
C731 C727 1.400 . S
C731 C730 1.385 . S
C732 C730 1.478 . S
C732 C734 1.381 . S
C732 C738 1.383 . S
C733 C729 1.495 . S
C733 H739 0.959 . S
C733 H740 0.961 . S
C733 H741 0.960 . S
C734 C732 1.381 . S
C734 C735 1.394 . S
C734 H742 0.930 . S
C735 C734 1.394 . S
C735 C736 1.383 . S
C735 H743 0.929 . S
C736 C735 1.383 . S
C736 C737 1.377 . S
C737 H721 0.930 . S
C737 C736 1.377 . S
C737 C738 1.379 . S
C738 H722 0.931 . S
C738 C732 1.383 . S
C738 C737 1.379 . S
H739 C733 0.959 . S
H740 C733 0.961 . S
H741 C733 0.960 . S
H742 C734 0.930 . S
H743 C735 0.929 . S
H744 C752 0.929 . S
H745 C754 0.930 . S
H746 C756 0.930 . S
H747 C759 0.929 . S
H748 C762 0.930 . S
H749 C764 0.960 . S
H750 C764 0.960 . S
H751 C764 0.960 . S
C752 H744 0.929 . S
C752 C753 1.377 . S
C752 C754 1.384 . S
C753 C752 1.377 . S
C753 C759 1.390 . S
C754 H745 0.930 . S
C754 C752 1.384 . S
C754 C755 1.372 . S
C755 C754 1.372 . S
C755 C756 1.400 . S
C755 C760 1.490 . S
C756 H746 0.930 . S
C756 C755 1.400 . S
C756 C759 1.386 . S
H757 C773 0.930 . S
H758 C774 0.931 . S
C759 H747 0.929 . S
C759 C753 1.390 . S
C759 C756 1.386 . S
C760 C755 1.490 . S
C760 C762 1.395 1_455 S
C760 C763 1.403 . S
H761 C767 0.930 . S
C762 H748 0.930 . S
C762 C760 1.395 1_655 S
C762 C765 1.403 . S
C763 C760 1.403 . S
C763 C764 1.524 . S
C763 C767 1.400 . S
C764 H749 0.960 . S
C764 H750 0.960 . S
C764 H751 0.960 . S
C764 C763 1.524 . S
C765 C762 1.403 . S
C765 C766 1.392 . S
C765 C769 1.495 . S
C766 C765 1.392 . S
C766 C767 1.385 1_655 S
C766 C768 1.478 . S
C767 H761 0.930 . S
C767 C763 1.400 . S
C767 C766 1.385 1_455 S
C768 C766 1.478 . S
C768 C770 1.381 . S
C768 C774 1.383 . S
C769 C765 1.495 . S
C769 H775 0.959 . S
C769 H776 0.961 . S
C769 H777 0.960 . S
C770 C768 1.381 . S
C770 C771 1.394 . S
C770 H778 0.930 . S
C771 C770 1.394 . S
C771 C772 1.383 . S
C771 H779 0.929 . S
C772 C771 1.383 . S
C772 C773 1.377 . S
C773 H757 0.930 . S
C773 C772 1.377 . S
C773 C774 1.379 . S
C774 H758 0.931 . S
C774 C768 1.383 . S
C774 C773 1.379 . S
H775 C769 0.959 . S
H776 C769 0.961 . S
H777 C769 0.960 . S
H778 C770 0.930 . S
H779 C771 0.929 . S
H780 C788 0.929 . S
H781 C790 0.930 . S
H782 C792 0.930 . S
H783 C795 0.929 . S
H784 C798 0.929 1_554 S
H785 C800 0.960 . S
H786 C800 0.960 . S
H787 C800 0.960 . S
C788 H780 0.929 . S
C788 C789 1.377 . S
C788 C790 1.384 . S
C789 C788 1.377 . S
C789 C795 1.390 . S
C790 H781 0.930 . S
C790 C788 1.384 . S
C790 C791 1.372 . S
C791 C790 1.372 . S
C791 C792 1.400 . S
C791 C796 1.490 . S
C792 H782 0.930 . S
C792 C791 1.400 . S
C792 C795 1.386 . S
H793 C809 0.930 . S
H794 C810 0.931 . S
C795 H783 0.929 . S
C795 C789 1.390 . S
C795 C792 1.386 . S
C796 C791 1.490 . S
C796 C798 1.385 1_554 S
C796 C799 1.403 1_565 S
H797 C803 0.930 . S
C798 H784 0.929 1_556 S
C798 C796 1.385 1_556 S
C798 C801 1.414 . S
C799 C796 1.403 1_545 S
C799 C800 1.524 . S
C799 C803 1.400 1_554 S
C800 H785 0.960 . S
C800 H786 0.960 . S
C800 H787 0.960 . S
C800 C799 1.524 . S
C801 C798 1.414 . S
C801 C802 1.392 1_565 S
C801 C805 1.495 . S
C802 C801 1.392 1_545 S
C802 C803 1.385 . S
C802 C804 1.478 . S
C803 H797 0.930 . S
C803 C799 1.400 1_556 S
C803 C802 1.385 . S
C804 C802 1.478 . S
C804 C806 1.381 . S
C804 C810 1.383 . S
C805 C801 1.495 . S
C805 H811 0.959 . S
C805 H812 0.961 . S
C805 H813 0.960 . S
C806 C804 1.381 . S
C806 C807 1.394 . S
C806 H814 0.930 . S
C807 C806 1.394 . S
C807 C808 1.383 . S
C807 H815 0.929 . S
C808 C807 1.383 . S
C808 C809 1.377 . S
C809 H793 0.930 . S
C809 C808 1.377 . S
C809 C810 1.379 . S
C810 H794 0.931 . S
C810 C804 1.383 . S
C810 C809 1.379 . S
H811 C805 0.959 . S
H812 C805 0.961 . S
H813 C805 0.960 . S
H814 C806 0.930 . S
H815 C807 0.929 . S
H816 C824 0.929 . S
H817 C826 0.930 . S
H818 C828 0.930 . S
H819 C831 0.929 . S
H820 C834 0.930 . S
H821 C836 0.960 . S
H822 C836 0.960 . S
H823 C836 0.960 . S
C824 H816 0.929 . S
C824 C825 1.377 . S
C824 C826 1.384 . S
C825 C824 1.377 . S
C825 C831 1.390 . S
C826 H817 0.930 . S
C826 C824 1.384 . S
C826 C827 1.372 . S
C827 C826 1.372 . S
C827 C828 1.400 . S
C827 C832 1.490 . S
C828 H818 0.930 . S
C828 C827 1.400 . S
C828 C831 1.386 . S
H829 C845 0.930 . S
H830 C846 0.931 . S
C831 H819 0.929 . S
C831 C825 1.390 . S
C831 C828 1.386 . S
C832 C827 1.490 . S
C832 C834 1.395 . S
C832 C835 1.403 . S
H833 C839 0.930 . S
C834 H820 0.930 . S
C834 C832 1.395 . S
C834 C837 1.403 . S
C835 C832 1.403 . S
C835 C836 1.524 . S
C835 C839 1.400 . S
C836 H821 0.960 . S
C836 H822 0.960 . S
C836 H823 0.960 . S
C836 C835 1.524 . S
C837 C834 1.403 . S
C837 C838 1.392 . S
C837 C841 1.495 . S
C838 C837 1.392 . S
C838 C839 1.385 . S
C838 C840 1.478 . S
C839 H833 0.930 . S
C839 C835 1.400 . S
C839 C838 1.385 . S
C840 C838 1.478 . S
C840 C842 1.381 . S
C840 C846 1.383 . S
C841 C837 1.495 . S
C841 H847 0.959 . S
C841 H848 0.961 . S
C841 H849 0.960 . S
C842 C840 1.381 . S
C842 C843 1.394 . S
C842 H850 0.930 . S
C843 C842 1.394 . S
C843 C844 1.383 . S
C843 H851 0.929 . S
C844 C843 1.383 . S
C844 C845 1.377 . S
C845 H829 0.930 . S
C845 C844 1.377 . S
C845 C846 1.379 . S
C846 H830 0.931 . S
C846 C840 1.383 . S
C846 C845 1.379 . S
H847 C841 0.959 . S
H848 C841 0.961 . S
H849 C841 0.960 . S
H850 C842 0.930 . S
H851 C843 0.929 . S
H852 C860 0.929 . S
H853 C862 0.933 1_655 S
H854 C864 0.930 . S
H855 C867 0.929 . S
H856 C870 0.930 . S
H857 C872 0.960 . S
H858 C872 0.960 . S
H859 C872 0.960 . S
C860 H852 0.929 . S
C860 C861 1.377 . S
C860 C862 1.384 . S
C861 C860 1.377 . S
C861 C867 1.390 . S
C862 H853 0.933 1_455 S
C862 C860 1.384 . S
C862 C863 1.372 . S
C863 C862 1.372 . S
C863 C864 1.400 . S
C863 C868 1.490 . S
C864 H854 0.930 . S
C864 C863 1.400 . S
C864 C867 1.386 . S
H865 C881 0.930 . S
H866 C882 0.931 1_455 S
C867 H855 0.929 . S
C867 C861 1.390 . S
C867 C864 1.386 . S
C868 C863 1.490 . S
C868 C870 1.395 . S
C868 C871 1.403 . S
H869 C875 0.930 . S
C870 H856 0.930 . S
C870 C868 1.395 . S
C870 C873 1.403 1_455 S
C871 C868 1.403 . S
C871 C872 1.524 . S
C871 C875 1.400 1_455 S
C872 H857 0.960 . S
C872 H858 0.960 . S
C872 H859 0.960 . S
C872 C871 1.524 . S
C873 C870 1.403 1_655 S
C873 C874 1.392 . S
C873 C877 1.495 . S
C874 C873 1.392 . S
C874 C875 1.385 . S
C874 C876 1.478 . S
C875 H869 0.930 . S
C875 C871 1.400 1_655 S
C875 C874 1.385 . S
C876 C874 1.478 . S
C876 C878 1.381 . S
C876 C882 1.383 . S
C877 C873 1.495 . S
C877 H883 0.959 . S
C877 H884 0.961 . S
C877 H885 0.960 . S
C878 C876 1.381 . S
C878 C879 1.394 . S
C878 H886 0.930 . S
C879 C878 1.394 . S
C879 C880 1.383 . S
C879 H887 0.929 . S
C880 C879 1.383 . S
C880 C881 1.377 . S
C881 H865 0.930 . S
C881 C880 1.377 . S
C881 C882 1.379 . S
C882 H866 0.931 1_655 S
C882 C876 1.383 . S
C882 C881 1.379 . S
H883 C877 0.959 . S
H884 C877 0.961 . S
H885 C877 0.960 . S
H886 C878 0.930 . S
H887 C879 0.929 . S
H888 C896 0.929 . S
H889 C898 0.930 . S
H890 C900 0.930 . S
H891 C903 0.929 . S
H892 C906 0.930 . S
H893 C908 0.960 . S
H894 C908 0.960 . S
H895 C908 0.960 . S
C896 H888 0.929 . S
C896 C897 1.377 . S
C896 C898 1.384 . S
C897 C896 1.377 . S
C897 C903 1.390 . S
C898 H889 0.930 . S
C898 C896 1.384 . S
C898 C899 1.372 . S
C899 C898 1.372 . S
C899 C900 1.400 . S
C899 C904 1.490 . S
C900 H890 0.930 . S
C900 C899 1.400 . S
C900 C903 1.386 . S
H901 C917 0.930 . S
H902 C918 0.931 . S
C903 H891 0.929 . S
C903 C897 1.390 . S
C903 C900 1.386 . S
C904 C899 1.490 . S
C904 C906 1.395 . S
C904 C907 1.403 . S
H905 C911 0.930 . S
C906 H892 0.930 . S
C906 C904 1.395 . S
C906 C909 1.403 1_545 S
C907 C904 1.403 . S
C907 C908 1.524 . S
C907 C911 1.400 1_545 S
C908 H893 0.960 . S
C908 H894 0.960 . S
C908 H895 0.960 . S
C908 C907 1.524 . S
C909 C906 1.403 1_565 S
C909 C910 1.392 . S
C909 C913 1.495 . S
C910 C909 1.392 . S
C910 C911 1.385 . S
C910 C912 1.478 . S
C911 H905 0.930 . S
C911 C907 1.400 1_565 S
C911 C910 1.385 . S
C912 C910 1.478 . S
C912 C914 1.381 . S
C912 C918 1.383 . S
C913 C909 1.495 . S
C913 H919 0.959 . S
C913 H920 0.961 . S
C913 H921 0.960 . S
C914 C912 1.381 . S
C914 C915 1.394 . S
C914 H922 0.930 . S
C915 C914 1.394 . S
C915 C916 1.383 . S
C915 H923 0.929 . S
C916 C915 1.383 . S
C916 C917 1.377 . S
C917 H901 0.930 . S
C917 C916 1.377 . S
C917 C918 1.379 . S
C918 H902 0.931 . S
C918 C912 1.383 . S
C918 C917 1.379 . S
H919 C913 0.959 . S
H920 C913 0.961 . S
H921 C913 0.960 . S
H922 C914 0.930 . S
H923 C915 0.929 . S
H924 C932 0.929 . S
H925 C934 0.930 . S
H926 C936 0.930 . S
H927 C939 0.929 . S
H928 C942 0.930 . S
H929 C944 0.960 . S
H930 C944 0.960 . S
H931 C944 0.960 . S
C932 H924 0.929 . S
C932 C933 1.377 . S
C932 C934 1.384 . S
C933 C932 1.377 . S
C933 C939 1.390 . S
C934 H925 0.930 . S
C934 C932 1.384 . S
C934 C935 1.372 . S
C935 C934 1.372 . S
C935 C936 1.400 . S
C935 C940 1.490 . S
C936 H926 0.930 . S
C936 C935 1.400 . S
C936 C939 1.386 . S
H937 C953 0.930 . S
H938 C954 0.931 . S
C939 H927 0.929 . S
C939 C933 1.390 . S
C939 C936 1.386 . S
C940 C935 1.490 . S
C940 C942 1.395 . S
C940 C943 1.403 . S
H941 C947 0.930 . S
C942 H928 0.930 . S
C942 C940 1.395 . S
C942 C945 1.403 . S
C943 C940 1.403 . S
C943 C944 1.524 . S
C943 C947 1.400 . S
C944 H929 0.960 . S
C944 H930 0.960 . S
C944 H931 0.960 . S
C944 C943 1.524 . S
C945 C942 1.403 . S
C945 C946 1.392 . S
C945 C949 1.495 . S
C946 C945 1.392 . S
C946 C947 1.385 . S
C946 C948 1.478 . S
C947 H941 0.930 . S
C947 C943 1.400 . S
C947 C946 1.385 . S
C948 C946 1.478 . S
C948 C950 1.381 . S
C948 C954 1.383 . S
C949 C945 1.495 . S
C949 H955 0.959 . S
C949 H956 0.961 . S
C949 H957 0.960 . S
C950 C948 1.381 . S
C950 C951 1.394 . S
C950 H958 0.930 . S
C951 C950 1.394 . S
C951 C952 1.383 . S
C951 H959 0.929 . S
C952 C951 1.383 . S
C952 C953 1.377 . S
C953 H937 0.930 . S
C953 C952 1.377 . S
C953 C954 1.379 . S
C954 H938 0.931 . S
C954 C948 1.383 . S
C954 C953 1.379 . S
H955 C949 0.959 . S
H956 C949 0.961 . S
H957 C949 0.960 . S
H958 C950 0.930 . S
H959 C951 0.929 . S
H960 C968 0.929 . S
H961 C970 0.930 . S
H962 C972 0.930 . S
H963 C975 0.929 . S
H964 C978 0.930 . S
H965 C980 0.960 . S
H966 C980 0.960 . S
H967 C980 0.960 . S
C968 H960 0.929 . S
C968 C969 1.377 . S
C968 C970 1.384 . S
C969 C968 1.377 . S
C969 C975 1.390 . S
C970 H961 0.930 . S
C970 C968 1.384 . S
C970 C971 1.372 . S
C971 C970 1.372 . S
C971 C972 1.400 . S
C971 C976 1.490 . S
C972 H962 0.930 . S
C972 C971 1.400 . S
C972 C975 1.386 . S
H973 C989 0.930 . S
H974 C990 0.931 . S
C975 H963 0.929 . S
C975 C969 1.390 . S
C975 C972 1.386 . S
C976 C971 1.490 . S
C976 C978 1.395 . S
C976 C979 1.403 . S
H977 C983 0.930 . S
C978 H964 0.930 . S
C978 C976 1.395 . S
C978 C981 1.403 1_655 S
C979 C976 1.403 . S
C979 C980 1.524 . S
C979 C983 1.400 1_655 S
C980 H965 0.960 . S
C980 H966 0.960 . S
C980 H967 0.960 . S
C980 C979 1.524 . S
C981 C978 1.403 1_455 S
C981 C982 1.392 . S
C981 C985 1.495 . S
C982 C981 1.392 . S
C982 C983 1.385 . S
C982 C984 1.478 . S
C983 H977 0.930 . S
C983 C979 1.400 1_455 S
C983 C982 1.385 . S
C984 C982 1.478 . S
C984 C986 1.381 . S
C984 C990 1.383 . S
C985 C981 1.495 . S
C985 H991 0.959 1_556 S
C985 H992 0.960 1_556 S
C985 H993 0.959 1_556 S
C986 C984 1.381 . S
C986 C987 1.394 . S
C986 H994 0.930 . S
C987 C986 1.394 . S
C987 C988 1.383 . S
C987 H995 0.929 . S
C988 C987 1.383 . S
C988 C989 1.377 . S
C989 H973 0.930 . S
C989 C988 1.377 . S
C989 C990 1.379 . S
C990 H974 0.931 . S
C990 C984 1.383 . S
C990 C989 1.379 . S
H991 C985 0.959 1_554 S
H992 C985 0.960 1_554 S
H993 C985 0.959 1_554 S
H994 C986 0.930 . S
H995 C987 0.929 . S
H996 C1004 0.929 . S
H997 C1006 0.930 . S
H998 C1008 0.930 . S
H999 C1011 0.929 . S
H1000 C1014 0.930 . S
H1001 C1016 0.960 . S
H1002 C1016 0.960 . S
H1003 C1016 0.960 . S
C1004 H996 0.929 . S
C1004 C1005 1.377 . S
C1004 C1006 1.384 . S
C1005 C1004 1.377 . S
C1005 C1011 1.390 . S
C1006 H997 0.930 . S
C1006 C1004 1.384 . S
C1006 C1007 1.372 . S
C1007 C1006 1.372 . S
C1007 C1008 1.400 . S
C1007 C1012 1.490 . S
C1008 H998 0.930 . S
C1008 C1007 1.400 . S
C1008 C1011 1.386 . S
H1009 C1025 0.930 . S
H1010 C1026 0.931 . S
C1011 H999 0.929 . S
C1011 C1005 1.390 . S
C1011 C1008 1.386 . S
C1012 C1007 1.490 . S
C1012 C1014 1.395 1_455 S
C1012 C1015 1.403 . S
H1013 C1019 0.930 . S
C1014 H1000 0.930 . S
C1014 C1012 1.395 1_655 S
C1014 C1017 1.403 . S
C1015 C1012 1.403 . S
C1015 C1016 1.524 . S
C1015 C1019 1.400 . S
C1016 H1001 0.960 . S
C1016 H1002 0.960 . S
C1016 H1003 0.960 . S
C1016 C1015 1.524 . S
C1017 C1014 1.403 . S
C1017 C1018 1.392 . S
C1017 C1021 1.495 . S
C1018 C1017 1.392 . S
C1018 C1019 1.385 1_655 S
C1018 C1020 1.478 . S
C1019 H1013 0.930 . S
C1019 C1015 1.400 . S
C1019 C1018 1.385 1_455 S
C1020 C1018 1.478 . S
C1020 C1022 1.381 . S
C1020 C1026 1.383 . S
C1021 C1017 1.495 . S
C1021 H1027 0.959 . S
C1021 H1028 0.961 . S
C1021 H1029 0.960 . S
C1022 C1020 1.381 . S
C1022 C1023 1.394 . S
C1022 H1030 0.930 . S
C1023 C1022 1.394 . S
C1023 C1024 1.383 . S
C1023 H1031 0.929 . S
C1024 C1023 1.383 . S
C1024 C1025 1.377 . S
C1025 H1009 0.930 . S
C1025 C1024 1.377 . S
C1025 C1026 1.379 . S
C1026 H1010 0.931 . S
C1026 C1020 1.383 . S
C1026 C1025 1.379 . S
H1027 C1021 0.959 . S
H1028 C1021 0.961 . S
H1029 C1021 0.960 . S
H1030 C1022 0.930 . S
H1031 C1023 0.929 . S
H1032 C1040 0.929 . S
H1033 C1042 0.930 . S
H1034 C1044 0.930 . S
H1035 C1047 0.929 . S
H1036 C1050 0.930 . S
H1037 C1052 0.960 . S
H1038 C1052 0.960 . S
H1039 C1052 0.960 . S
C1040 H1032 0.929 . S
C1040 C1041 1.377 . S
C1040 C1042 1.384 . S
C1041 C1040 1.377 . S
C1041 C1047 1.390 . S
C1042 H1033 0.930 . S
C1042 C1040 1.384 . S
C1042 C1043 1.372 . S
C1043 C1042 1.372 . S
C1043 C1044 1.400 . S
C1043 C1048 1.490 . S
C1044 H1034 0.930 . S
C1044 C1043 1.400 . S
C1044 C1047 1.386 . S
H1045 C1061 0.930 . S
H1046 C1062 0.931 . S
C1047 H1035 0.929 . S
C1047 C1041 1.390 . S
C1047 C1044 1.386 . S
C1048 C1043 1.490 . S
C1048 C1050 1.395 1_565 S
C1048 C1051 1.403 . S
H1049 C1055 0.930 . S
C1050 H1036 0.930 . S
C1050 C1048 1.395 1_545 S
C1050 C1053 1.403 . S
C1051 C1048 1.403 . S
C1051 C1052 1.524 . S
C1051 C1055 1.400 . S
C1052 H1037 0.960 . S
C1052 H1038 0.960 . S
C1052 H1039 0.960 . S
C1052 C1051 1.524 . S
C1053 C1050 1.403 . S
C1053 C1054 1.392 . S
C1053 C1057 1.495 . S
C1054 C1053 1.392 . S
C1054 C1055 1.385 1_545 S
C1054 C1056 1.478 . S
C1055 H1049 0.930 . S
C1055 C1051 1.400 . S
C1055 C1054 1.385 1_565 S
C1056 C1054 1.478 . S
C1056 C1058 1.381 . S
C1056 C1062 1.383 . S
C1057 C1053 1.495 . S
C1057 H1063 0.959 . S
C1057 H1064 0.961 . S
C1057 H1065 0.960 . S
C1058 C1056 1.381 . S
C1058 C1059 1.394 . S
C1058 H1066 0.930 . S
C1059 C1058 1.394 . S
C1059 C1060 1.383 . S
C1059 H1067 0.929 . S
C1060 C1059 1.383 . S
C1060 C1061 1.377 . S
C1061 H1045 0.930 . S
C1061 C1060 1.377 . S
C1061 C1062 1.379 . S
C1062 H1046 0.931 . S
C1062 C1056 1.383 . S
C1062 C1061 1.379 . S
H1063 C1057 0.959 . S
H1064 C1057 0.961 . S
H1065 C1057 0.960 . S
H1066 C1058 0.930 . S
H1067 C1059 0.929 . S
H1068 C1076 0.929 . S
H1069 C1078 0.930 . S
H1070 C1080 0.930 . S
H1071 C1083 0.929 . S
H1072 C1086 0.930 . S
H1073 C1088 0.960 . S
H1074 C1088 0.960 . S
H1075 C1088 0.960 . S
C1076 H1068 0.929 . S
C1076 C1077 1.377 . S
C1076 C1078 1.384 . S
C1077 C1076 1.377 . S
C1077 C1083 1.390 . S
C1078 H1069 0.930 . S
C1078 C1076 1.384 . S
C1078 C1079 1.372 . S
C1079 C1078 1.372 . S
C1079 C1080 1.400 . S
C1079 C1084 1.490 . S
C1080 H1070 0.930 . S
C1080 C1079 1.400 . S
C1080 C1083 1.386 . S
H1081 C1097 0.930 . S
H1082 C1098 0.931 . S
C1083 H1071 0.929 . S
C1083 C1077 1.390 . S
C1083 C1080 1.386 . S
C1084 C1079 1.490 . S
C1084 C1086 1.395 . S
C1084 C1087 1.403 . S
H1085 C1091 0.930 . S
C1086 H1072 0.930 . S
C1086 C1084 1.395 . S
C1086 C1089 1.403 . S
C1087 C1084 1.403 . S
C1087 C1088 1.524 . S
C1087 C1091 1.400 . S
C1088 H1073 0.960 . S
C1088 H1074 0.960 . S
C1088 H1075 0.960 . S
C1088 C1087 1.524 . S
C1089 C1086 1.403 . S
C1089 C1090 1.392 . S
C1089 C1093 1.495 . S
C1090 C1089 1.392 . S
C1090 C1091 1.385 . S
C1090 C1092 1.478 . S
C1091 H1085 0.930 . S
C1091 C1087 1.400 . S
C1091 C1090 1.385 . S
C1092 C1090 1.478 . S
C1092 C1094 1.381 . S
C1092 C1098 1.383 . S
C1093 C1089 1.495 . S
C1093 H1099 0.959 . S
C1093 H1100 0.961 . S
C1093 H1101 0.960 . S
C1094 C1092 1.381 . S
C1094 C1095 1.394 . S
C1094 H1102 0.930 . S
C1095 C1094 1.394 . S
C1095 C1096 1.383 . S
C1095 H1103 0.929 . S
C1096 C1095 1.383 . S
C1096 C1097 1.377 . S
C1097 H1081 0.930 . S
C1097 C1096 1.377 . S
C1097 C1098 1.379 . S
C1098 H1082 0.931 . S
C1098 C1092 1.383 . S
C1098 C1097 1.379 . S
H1099 C1093 0.959 . S
H1100 C1093 0.961 . S
H1101 C1093 0.960 . S
H1102 C1094 0.930 . S
H1103 C1095 0.929 . S
H1104 C1112 0.929 . S
H1105 C1114 0.930 . S
H1106 C1116 0.930 . S
H1107 C1119 0.929 . S
H1108 C1122 0.930 . S
H1109 C1124 0.960 . S
H1110 C1124 0.960 . S
H1111 C1124 0.960 . S
C1112 H1104 0.929 . S
C1112 C1113 1.377 . S
C1112 C1114 1.384 . S
C1113 C1112 1.377 . S
C1113 C1119 1.390 . S
C1114 H1105 0.930 . S
C1114 C1112 1.384 . S
C1114 C1115 1.372 . S
C1115 C1114 1.372 . S
C1115 C1116 1.400 . S
C1115 C1120 1.490 . S
C1116 H1106 0.930 . S
C1116 C1115 1.400 . S
C1116 C1119 1.386 . S
H1117 C1133 0.930 . S
H1118 C1134 0.931 . S
C1119 H1107 0.929 . S
C1119 C1113 1.390 . S
C1119 C1116 1.386 . S
C1120 C1115 1.490 . S
C1120 C1122 1.395 . S
C1120 C1123 1.403 1_565 S
H1121 C1127 0.930 . S
C1122 H1108 0.930 . S
C1122 C1120 1.395 . S
C1122 C1125 1.403 . S
C1123 C1120 1.403 1_545 S
C1123 C1124 1.524 . S
C1123 C1127 1.400 . S
C1124 H1109 0.960 . S
C1124 H1110 0.960 . S
C1124 H1111 0.960 . S
C1124 C1123 1.524 . S
C1125 C1122 1.403 . S
C1125 C1126 1.392 1_565 S
C1125 C1129 1.495 . S
C1126 C1125 1.392 1_545 S
C1126 C1127 1.385 . S
C1126 C1128 1.478 . S
C1127 H1121 0.930 . S
C1127 C1123 1.400 . S
C1127 C1126 1.385 . S
C1128 C1126 1.478 . S
C1128 C1130 1.381 . S
C1128 C1134 1.383 . S
C1129 C1125 1.495 . S
C1129 H1135 0.959 . S
C1129 H1136 0.961 . S
C1129 H1137 0.960 . S
C1130 C1128 1.381 . S
C1130 C1131 1.394 . S
C1130 H1138 0.930 . S
C1131 C1130 1.394 . S
C1131 C1132 1.383 . S
C1131 H1139 0.929 . S
C1132 C1131 1.383 . S
C1132 C1133 1.377 . S
C1133 H1117 0.930 . S
C1133 C1132 1.377 . S
C1133 C1134 1.379 . S
C1134 H1118 0.931 . S
C1134 C1128 1.383 . S
C1134 C1133 1.379 . S
H1135 C1129 0.959 . S
H1136 C1129 0.961 . S
H1137 C1129 0.960 . S
H1138 C1130 0.930 . S
H1139 C1131 0.929 . S
H1140 C1148 0.929 . S
H1141 C1150 0.930 . S
H1142 C1152 0.930 . S
H1143 C1155 0.929 . S
H1144 C1158 0.930 . S
H1145 C1160 0.960 . S
H1146 C1160 0.960 . S
H1147 C1160 0.960 . S
C1148 H1140 0.929 . S
C1148 C1149 1.377 . S
C1148 C1150 1.384 . S
C1149 C1148 1.377 . S
C1149 C1155 1.390 . S
C1150 H1141 0.930 . S
C1150 C1148 1.384 . S
C1150 C1151 1.372 . S
C1151 C1150 1.372 . S
C1151 C1152 1.400 . S
C1151 C1156 1.490 . S
C1152 H1142 0.930 . S
C1152 C1151 1.400 . S
C1152 C1155 1.386 . S
H1153 C1169 0.930 . S
H1154 C1170 0.931 . S
C1155 H1143 0.929 . S
C1155 C1149 1.390 . S
C1155 C1152 1.386 . S
C1156 C1151 1.490 . S
C1156 C1158 1.395 . S
C1156 C1159 1.403 . S
H1157 C1163 0.930 . S
C1158 H1144 0.930 . S
C1158 C1156 1.395 . S
C1158 C1161 1.403 . S
C1159 C1156 1.403 . S
C1159 C1160 1.524 . S
C1159 C1163 1.400 . S
C1160 H1145 0.960 . S
C1160 H1146 0.960 . S
C1160 H1147 0.960 . S
C1160 C1159 1.524 . S
C1161 C1158 1.403 . S
C1161 C1162 1.392 . S
C1161 C1165 1.495 . S
C1162 C1161 1.392 . S
C1162 C1163 1.385 . S
C1162 C1164 1.478 . S
C1163 H1157 0.930 . S
C1163 C1159 1.400 . S
C1163 C1162 1.385 . S
C1164 C1162 1.478 . S
C1164 C1166 1.381 . S
C1164 C1170 1.383 . S
C1165 C1161 1.495 . S
C1165 H1171 0.959 . S
C1165 H1172 0.961 . S
C1165 H1173 0.960 . S
C1166 C1164 1.381 . S
C1166 C1167 1.394 . S
C1166 H1174 0.930 . S
C1167 C1166 1.394 . S
C1167 C1168 1.383 . S
C1167 H1175 0.929 . S
C1168 C1167 1.383 . S
C1168 C1169 1.377 . S
C1169 H1153 0.930 . S
C1169 C1168 1.377 . S
C1169 C1170 1.379 . S
C1170 H1154 0.931 . S
C1170 C1164 1.383 . S
C1170 C1169 1.379 . S
H1171 C1165 0.959 . S
H1172 C1165 0.961 . S
H1173 C1165 0.960 . S
H1174 C1166 0.930 . S
H1175 C1167 0.929 . S
H1176 C1184 0.929 . S
H1177 C1186 0.930 . S
H1178 C1188 0.930 . S
H1179 C1191 0.929 . S
H1180 C1194 0.930 . S
H1181 C1196 0.960 . S
H1182 C1196 0.960 . S
H1183 C1196 0.960 . S
C1184 H1176 0.929 . S
C1184 C1185 1.377 . S
C1184 C1186 1.384 . S
C1185 C1184 1.377 . S
C1185 C1191 1.390 . S
C1186 H1177 0.930 . S
C1186 C1184 1.384 . S
C1186 C1187 1.372 . S
C1187 C1186 1.372 . S
C1187 C1188 1.400 . S
C1187 C1192 1.490 . S
C1188 H1178 0.930 . S
C1188 C1187 1.400 . S
C1188 C1191 1.386 . S
H1189 C1205 0.930 . S
H1190 C1206 0.931 . S
C1191 H1179 0.929 . S
C1191 C1185 1.390 . S
C1191 C1188 1.386 . S
C1192 C1187 1.490 . S
C1192 C1194 1.395 . S
C1192 C1195 1.403 . S
H1193 C1199 0.930 . S
C1194 H1180 0.930 . S
C1194 C1192 1.395 . S
C1194 C1197 1.403 1_655 S
C1195 C1192 1.403 . S
C1195 C1196 1.524 . S
C1195 C1199 1.400 1_655 S
C1196 H1181 0.960 . S
C1196 H1182 0.960 . S
C1196 H1183 0.960 . S
C1196 C1195 1.524 . S
C1197 C1194 1.403 1_455 S
C1197 C1198 1.392 . S
C1197 C1201 1.495 . S
C1198 C1197 1.392 . S
C1198 C1199 1.385 . S
C1198 C1200 1.478 . S
C1199 H1193 0.930 . S
C1199 C1195 1.400 1_455 S
C1199 C1198 1.385 . S
C1200 C1198 1.478 . S
C1200 C1202 1.381 . S
C1200 C1206 1.383 . S
C1201 C1197 1.495 . S
C1201 H1207 0.959 1_455 S
C1201 H1208 0.961 . S
C1201 H1209 0.960 . S
C1202 C1200 1.381 . S
C1202 C1203 1.394 . S
C1202 H1210 0.930 . S
C1203 C1202 1.394 . S
C1203 C1204 1.383 . S
C1203 H1211 0.929 . S
C1204 C1203 1.383 . S
C1204 C1205 1.377 . S
C1205 H1189 0.930 . S
C1205 C1204 1.377 . S
C1205 C1206 1.379 . S
C1206 H1190 0.931 . S
C1206 C1200 1.383 . S
C1206 C1205 1.379 . S
H1207 C1201 0.959 1_655 S
H1208 C1201 0.961 . S
H1209 C1201 0.960 . S
H1210 C1202 0.930 . S
H1211 C1203 0.929 . S
H1212 C1220 0.929 . S
H1213 C1222 0.930 . S
H1214 C1224 0.930 . S
H1215 C1227 0.929 . S
H1216 C1230 0.930 . S
H1217 C1232 0.960 . S
H1218 C1232 0.960 . S
H1219 C1232 0.960 . S
C1220 H1212 0.929 . S
C1220 C1221 1.377 . S
C1220 C1222 1.384 . S
C1221 C1220 1.377 . S
C1221 C1227 1.390 . S
C1222 H1213 0.930 . S
C1222 C1220 1.384 . S
C1222 C1223 1.372 . S
C1223 C1222 1.372 . S
C1223 C1224 1.400 . S
C1223 C1228 1.490 . S
C1224 H1214 0.930 . S
C1224 C1223 1.400 . S
C1224 C1227 1.386 . S
H1225 C1241 0.930 . S
H1226 C1242 0.931 . S
C1227 H1215 0.929 . S
C1227 C1221 1.390 . S
C1227 C1224 1.386 . S
C1228 C1223 1.490 . S
C1228 C1230 1.395 1_545 S
C1228 C1231 1.403 . S
H1229 C1235 0.930 . S
C1230 H1216 0.930 . S
C1230 C1228 1.395 1_565 S
C1230 C1233 1.403 . S
C1231 C1228 1.403 . S
C1231 C1232 1.524 . S
C1231 C1235 1.400 . S
C1232 H1217 0.960 . S
C1232 H1218 0.960 . S
C1232 H1219 0.960 . S
C1232 C1231 1.524 . S
C1233 C1230 1.403 . S
C1233 C1234 1.392 . S
C1233 C1237 1.495 . S
C1234 C1233 1.392 . S
C1234 C1235 1.385 1_565 S
C1234 C1236 1.478 . S
C1235 H1229 0.930 . S
C1235 C1231 1.400 . S
C1235 C1234 1.385 1_545 S
C1236 C1234 1.478 . S
C1236 C1238 1.381 . S
C1236 C1242 1.383 . S
C1237 C1233 1.495 . S
C1237 H1243 0.959 . S
C1237 H1244 0.961 . S
C1237 H1245 0.960 . S
C1238 C1236 1.381 . S
C1238 C1239 1.394 . S
C1238 H1246 0.930 . S
C1239 C1238 1.394 . S
C1239 C1240 1.383 . S
C1239 H1247 0.929 . S
C1240 C1239 1.383 . S
C1240 C1241 1.377 . S
C1241 H1225 0.930 . S
C1241 C1240 1.377 . S
C1241 C1242 1.379 . S
C1242 H1226 0.931 . S
C1242 C1236 1.383 . S
C1242 C1241 1.379 . S
H1243 C1237 0.959 . S
H1244 C1237 0.961 . S
H1245 C1237 0.960 . S
H1246 C1238 0.930 . S
H1247 C1239 0.929 . S
H1248 C1256 0.929 . S
H1249 C1258 0.930 . S
H1250 C1260 0.930 . S
H1251 C1263 0.929 . S
H1252 C1266 0.930 . S
H1253 C1268 0.960 . S
H1254 C1268 0.960 . S
H1255 C1268 0.960 . S
C1256 H1248 0.929 . S
C1256 C1257 1.377 . S
C1256 C1258 1.384 . S
C1257 C1256 1.377 . S
C1257 C1263 1.390 . S
C1258 H1249 0.930 . S
C1258 C1256 1.384 . S
C1258 C1259 1.372 . S
C1259 C1258 1.372 . S
C1259 C1260 1.400 . S
C1259 C1264 1.490 . S
C1260 H1250 0.930 . S
C1260 C1259 1.400 . S
C1260 C1263 1.386 . S
H1261 C1277 0.930 . S
H1262 C1278 0.931 . S
C1263 H1251 0.929 . S
C1263 C1257 1.390 . S
C1263 C1260 1.386 . S
C1264 C1259 1.490 . S
C1264 C1266 1.395 . S
C1264 C1267 1.403 . S
H1265 C1271 0.930 . S
C1266 H1252 0.930 . S
C1266 C1264 1.395 . S
C1266 C1269 1.403 . S
C1267 C1264 1.403 . S
C1267 C1268 1.524 . S
C1267 C1271 1.400 . S
C1268 H1253 0.960 . S
C1268 H1254 0.960 . S
C1268 H1255 0.960 . S
C1268 C1267 1.524 . S
C1269 C1266 1.403 . S
C1269 C1270 1.392 . S
C1269 C1273 1.495 . S
C1270 C1269 1.392 . S
C1270 C1271 1.385 . S
C1270 C1272 1.478 . S
C1271 H1265 0.930 . S
C1271 C1267 1.400 . S
C1271 C1270 1.385 . S
C1272 C1270 1.478 . S
C1272 C1274 1.381 . S
C1272 C1278 1.383 . S
C1273 C1269 1.495 . S
C1273 H1279 0.959 . S
C1273 H1280 0.961 . S
C1273 H1281 0.960 . S
C1274 C1272 1.381 . S
C1274 C1275 1.394 . S
C1274 H1282 0.930 . S
C1275 C1274 1.394 . S
C1275 C1276 1.383 . S
C1275 H1283 0.929 . S
C1276 C1275 1.383 . S
C1276 C1277 1.377 . S
C1277 H1261 0.930 . S
C1277 C1276 1.377 . S
C1277 C1278 1.379 . S
C1278 H1262 0.931 . S
C1278 C1272 1.383 . S
C1278 C1277 1.379 . S
H1279 C1273 0.959 . S
H1280 C1273 0.961 . S
H1281 C1273 0.960 . S
H1282 C1274 0.930 . S
H1283 C1275 0.929 . S
H1284 C1292 0.929 . S
H1285 C1294 0.930 . S
H1286 C1296 0.930 . S
H1287 C1299 0.929 . S
H1288 C1302 0.930 . S
H1289 C1304 0.960 . S
H1290 C1304 0.960 . S
H1291 C1304 0.960 . S
C1292 H1284 0.929 . S
C1292 C1293 1.377 . S
C1292 C1294 1.384 . S
C1293 C1292 1.377 . S
C1293 C1299 1.390 . S
C1294 H1285 0.930 . S
C1294 C1292 1.384 . S
C1294 C1295 1.372 . S
C1295 C1294 1.372 . S
C1295 C1296 1.400 . S
C1295 C1300 1.490 . S
C1296 H1286 0.930 . S
C1296 C1295 1.400 . S
C1296 C1299 1.386 . S
H1297 C1313 0.930 . S
H1298 C1314 0.931 . S
C1299 H1287 0.929 . S
C1299 C1293 1.390 . S
C1299 C1296 1.386 . S
C1300 C1295 1.490 . S
C1300 C1302 1.395 1_455 S
C1300 C1303 1.403 . S
H1301 C1307 0.930 . S
C1302 H1288 0.930 . S
C1302 C1300 1.395 1_655 S
C1302 C1305 1.403 . S
C1303 C1300 1.403 . S
C1303 C1304 1.524 . S
C1303 C1307 1.400 . S
C1304 H1289 0.960 . S
C1304 H1290 0.960 . S
C1304 H1291 0.960 . S
C1304 C1303 1.524 . S
C1305 C1302 1.403 . S
C1305 C1306 1.392 . S
C1305 C1309 1.495 . S
C1306 C1305 1.392 . S
C1306 C1307 1.385 1_655 S
C1306 C1308 1.478 . S
C1307 H1301 0.930 . S
C1307 C1303 1.400 . S
C1307 C1306 1.385 1_455 S
C1308 C1306 1.478 . S
C1308 C1310 1.381 . S
C1308 C1314 1.383 . S
C1309 C1305 1.495 . S
C1309 H1315 0.959 . S
C1309 H1316 0.961 . S
C1309 H1317 0.960 . S
C1310 C1308 1.381 . S
C1310 C1311 1.394 . S
C1310 H1318 0.930 . S
C1311 C1310 1.394 . S
C1311 C1312 1.383 . S
C1311 H1319 0.929 . S
C1312 C1311 1.383 . S
C1312 C1313 1.377 . S
C1313 H1297 0.930 . S
C1313 C1312 1.377 . S
C1313 C1314 1.379 . S
C1314 H1298 0.931 . S
C1314 C1308 1.383 . S
C1314 C1313 1.379 . S
H1315 C1309 0.959 . S
H1316 C1309 0.961 . S
H1317 C1309 0.960 . S
H1318 C1310 0.930 . S
H1319 C1311 0.929 . S
H1320 C1328 0.929 . S
H1321 C1330 0.930 . S
H1322 C1332 0.930 . S
H1323 C1335 0.929 . S
H1324 C1338 0.930 . S
H1325 C1340 0.960 . S
H1326 C1340 0.960 . S
H1327 C1340 0.960 . S
C1328 H1320 0.929 . S
C1328 C1329 1.377 . S
C1328 C1330 1.384 . S
C1329 C1328 1.377 . S
C1329 C1335 1.390 . S
C1330 H1321 0.930 . S
C1330 C1328 1.384 . S
C1330 C1331 1.372 . S
C1331 C1330 1.372 . S
C1331 C1332 1.400 . S
C1331 C1336 1.490 . S
C1332 H1322 0.930 . S
C1332 C1331 1.400 . S
C1332 C1335 1.386 . S
H1333 C1349 0.930 . S
H1334 C1350 0.931 . S
C1335 H1323 0.929 . S
C1335 C1329 1.390 . S
C1335 C1332 1.386 . S
C1336 C1331 1.490 . S
C1336 C1338 1.395 . S
C1336 C1339 1.403 . S
H1337 C1343 0.930 . S
C1338 H1324 0.930 . S
C1338 C1336 1.395 . S
C1338 C1341 1.403 . S
C1339 C1336 1.403 . S
C1339 C1340 1.524 . S
C1339 C1343 1.400 . S
C1340 H1325 0.960 . S
C1340 H1326 0.960 . S
C1340 H1327 0.960 . S
C1340 C1339 1.524 . S
C1341 C1338 1.403 . S
C1341 C1342 1.392 . S
C1341 C1345 1.495 . S
C1342 C1341 1.392 . S
C1342 C1343 1.385 . S
C1342 C1344 1.478 . S
C1343 H1337 0.930 . S
C1343 C1339 1.400 . S
C1343 C1342 1.385 . S
C1344 C1342 1.478 . S
C1344 C1346 1.381 . S
C1344 C1350 1.383 . S
C1345 C1341 1.495 . S
C1345 H1351 0.959 . S
C1345 H1352 0.961 . S
C1345 H1353 0.960 . S
C1346 C1344 1.381 . S
C1346 C1347 1.394 . S
C1346 H1354 0.930 . S
C1347 C1346 1.394 . S
C1347 C1348 1.383 . S
C1347 H1355 0.929 . S
C1348 C1347 1.383 . S
C1348 C1349 1.377 . S
C1349 H1333 0.930 . S
C1349 C1348 1.377 . S
C1349 C1350 1.379 . S
C1350 H1334 0.931 . S
C1350 C1344 1.383 . S
C1350 C1349 1.379 . S
H1351 C1345 0.959 . S
H1352 C1345 0.961 . S
H1353 C1345 0.960 . S
H1354 C1346 0.930 . S
H1355 C1347 0.929 . S
H1356 C1364 0.929 . S
H1357 C1366 0.930 . S
H1358 C1368 0.930 . S
H1359 C1371 0.929 . S
H1360 C1374 0.930 . S
H1361 C1376 0.960 . S
H1362 C1376 0.960 . S
H1363 C1376 0.960 . S
C1364 H1356 0.929 . S
C1364 C1365 1.377 . S
C1364 C1366 1.384 . S
C1365 C1364 1.377 . S
C1365 C1371 1.390 . S
C1366 H1357 0.930 . S
C1366 C1364 1.384 . S
C1366 C1367 1.372 . S
C1367 C1366 1.372 . S
C1367 C1368 1.400 . S
C1367 C1372 1.490 . S
C1368 H1358 0.930 . S
C1368 C1367 1.400 . S
C1368 C1371 1.386 . S
H1369 C1385 0.930 . S
H1370 C1386 0.931 . S
C1371 H1359 0.929 . S
C1371 C1365 1.390 . S
C1371 C1368 1.386 . S
C1372 C1367 1.490 . S
C1372 C1374 1.395 . S
C1372 C1375 1.403 . S
H1373 C1379 0.930 . S
C1374 H1360 0.930 . S
C1374 C1372 1.395 . S
C1374 C1377 1.403 . S
C1375 C1372 1.403 . S
C1375 C1376 1.524 . S
C1375 C1379 1.400 . S
C1376 H1361 0.960 . S
C1376 H1362 0.960 . S
C1376 H1363 0.960 . S
C1376 C1375 1.524 . S
C1377 C1374 1.403 . S
C1377 C1378 1.392 . S
C1377 C1381 1.495 . S
C1378 C1377 1.392 . S
C1378 C1379 1.385 . S
C1378 C1380 1.478 . S
C1379 H1373 0.930 . S
C1379 C1375 1.400 . S
C1379 C1378 1.385 . S
C1380 C1378 1.478 . S
C1380 C1382 1.381 . S
C1380 C1386 1.383 . S
C1381 C1377 1.495 . S
C1381 H1387 0.959 . S
C1381 H1388 0.961 . S
C1381 H1389 0.960 . S
C1382 C1380 1.381 . S
C1382 C1383 1.394 . S
C1382 H1390 0.930 . S
C1383 C1382 1.394 . S
C1383 C1384 1.383 . S
C1383 H1391 0.929 . S
C1384 C1383 1.383 . S
C1384 C1385 1.377 . S
C1385 H1369 0.930 . S
C1385 C1384 1.377 . S
C1385 C1386 1.379 . S
C1386 H1370 0.931 . S
C1386 C1380 1.383 . S
C1386 C1385 1.379 . S
H1387 C1381 0.959 . S
H1388 C1381 0.961 . S
H1389 C1381 0.960 . S
H1390 C1382 0.930 . S
H1391 C1383 0.929 . S
H1392 C1400 0.929 . S
H1393 C1402 0.930 . S
H1394 C1404 0.930 . S
H1395 C1407 0.929 . S
H1396 C1410 0.930 . S
H1397 C1412 0.960 . S
H1398 C1412 0.960 . S
H1399 C1412 0.960 . S
C1400 H1392 0.929 . S
C1400 C1401 1.377 . S
C1400 C1402 1.384 . S
C1401 C1400 1.377 . S
C1401 C1407 1.390 . S
C1402 H1393 0.930 . S
C1402 C1400 1.384 . S
C1402 C1403 1.372 . S
C1403 C1402 1.372 . S
C1403 C1404 1.400 . S
C1403 C1408 1.490 . S
C1404 H1394 0.930 . S
C1404 C1403 1.400 . S
C1404 C1407 1.386 . S
H1405 C1421 0.930 . S
H1406 C1422 0.931 . S
C1407 H1395 0.929 . S
C1407 C1401 1.390 . S
C1407 C1404 1.386 . S
C1408 C1403 1.490 . S
C1408 C1410 1.395 . S
C1408 C1411 1.403 . S
H1409 C1415 0.930 . S
C1410 H1396 0.930 . S
C1410 C1408 1.395 . S
C1410 C1413 1.403 . S
C1411 C1408 1.403 . S
C1411 C1412 1.524 . S
C1411 C1415 1.400 . S
C1412 H1397 0.960 . S
C1412 H1398 0.960 . S
C1412 H1399 0.960 . S
C1412 C1411 1.524 . S
C1413 C1410 1.403 . S
C1413 C1414 1.392 . S
C1413 C1417 1.495 . S
C1414 C1413 1.392 . S
C1414 C1415 1.385 . S
C1414 C1416 1.478 . S
C1415 H1409 0.930 . S
C1415 C1411 1.400 . S
C1415 C1414 1.385 . S
C1416 C1414 1.478 . S
C1416 C1418 1.381 . S
C1416 C1422 1.383 . S
C1417 C1413 1.495 . S
C1417 H1423 0.959 . S
C1417 H1424 0.961 . S
C1417 H1425 0.960 . S
C1418 C1416 1.381 . S
C1418 C1419 1.394 . S
C1418 H1426 0.930 . S
C1419 C1418 1.394 . S
C1419 C1420 1.383 . S
C1419 H1427 0.929 . S
C1420 C1419 1.383 . S
C1420 C1421 1.377 . S
C1421 H1405 0.930 . S
C1421 C1420 1.377 . S
C1421 C1422 1.379 . S
C1422 H1406 0.931 . S
C1422 C1416 1.383 . S
C1422 C1421 1.379 . S
H1423 C1417 0.959 . S
H1424 C1417 0.961 . S
H1425 C1417 0.960 . S
H1426 C1418 0.930 . S
H1427 C1419 0.929 . S
H1428 C1436 0.929 . S
H1429 C1438 0.930 . S
H1430 C1440 0.930 . S
H1431 C1443 0.929 . S
H1432 C1446 0.930 . S
H1433 C1448 0.960 . S
H1434 C1448 0.960 . S
H1435 C1448 0.960 . S
C1436 H1428 0.929 . S
C1436 C1437 1.377 . S
C1436 C1438 1.384 . S
C1437 C1436 1.377 . S
C1437 C1443 1.390 . S
C1438 H1429 0.930 . S
C1438 C1436 1.384 . S
C1438 C1439 1.372 . S
C1439 C1438 1.372 . S
C1439 C1440 1.400 . S
C1439 C1444 1.490 . S
C1440 H1430 0.930 . S
C1440 C1439 1.400 . S
C1440 C1443 1.386 . S
H1441 C1457 0.930 . S
H1442 C1458 0.931 . S
C1443 H1431 0.929 . S
C1443 C1437 1.390 . S
C1443 C1440 1.386 . S
C1444 C1439 1.490 . S
C1444 C1446 1.395 . S
C1444 C1447 1.403 . S
H1445 C1451 0.930 . S
C1446 H1432 0.930 . S
C1446 C1444 1.395 . S
C1446 C1449 1.403 . S
C1447 C1444 1.403 . S
C1447 C1448 1.524 . S
C1447 C1451 1.400 . S
C1448 H1433 0.960 . S
C1448 H1434 0.960 . S
C1448 H1435 0.960 . S
C1448 C1447 1.524 . S
C1449 C1446 1.403 . S
C1449 C1450 1.392 . S
C1449 C1453 1.495 . S
C1450 C1449 1.392 . S
C1450 C1451 1.385 . S
C1450 C1452 1.478 . S
C1451 H1445 0.930 . S
C1451 C1447 1.400 . S
C1451 C1450 1.385 . S
C1452 C1450 1.478 . S
C1452 C1454 1.381 . S
C1452 C1458 1.383 . S
C1453 C1449 1.495 . S
C1453 H1459 0.959 . S
C1453 H1460 0.961 . S
C1453 H1461 0.960 . S
C1454 C1452 1.381 . S
C1454 C1455 1.394 . S
C1454 H1462 0.930 . S
C1455 C1454 1.394 . S
C1455 C1456 1.383 . S
C1455 H1463 0.929 . S
C1456 C1455 1.383 . S
C1456 C1457 1.377 . S
C1457 H1441 0.930 . S
C1457 C1456 1.377 . S
C1457 C1458 1.379 . S
C1458 H1442 0.931 . S
C1458 C1452 1.383 . S
C1458 C1457 1.379 . S
H1459 C1453 0.959 . S
H1460 C1453 0.961 . S
H1461 C1453 0.960 . S
H1462 C1454 0.930 . S
H1463 C1455 0.929 . S
H1464 C1472 0.929 . S
H1465 C1474 0.930 . S
H1466 C1476 0.930 . S
H1467 C1479 0.929 . S
H1468 C1482 0.930 . S
H1469 C1484 0.960 . S
H1470 C1484 0.960 . S
H1471 C1484 0.960 . S
C1472 H1464 0.929 . S
C1472 C1473 1.377 . S
C1472 C1474 1.384 . S
C1473 C1472 1.377 . S
C1473 C1479 1.390 . S
C1474 H1465 0.930 . S
C1474 C1472 1.384 . S
C1474 C1475 1.372 . S
C1475 C1474 1.372 . S
C1475 C1476 1.400 . S
C1475 C1480 1.490 . S
C1476 H1466 0.930 . S
C1476 C1475 1.400 . S
C1476 C1479 1.386 . S
H1477 C1493 0.930 . S
H1478 C1494 0.931 . S
C1479 H1467 0.929 . S
C1479 C1473 1.390 . S
C1479 C1476 1.386 . S
C1480 C1475 1.490 . S
C1480 C1482 1.395 . S
C1480 C1483 1.403 . S
H1481 C1487 0.930 . S
C1482 H1468 0.930 . S
C1482 C1480 1.395 . S
C1482 C1485 1.403 . S
C1483 C1480 1.403 . S
C1483 C1484 1.524 . S
C1483 C1487 1.400 . S
C1484 H1469 0.960 . S
C1484 H1470 0.960 . S
C1484 H1471 0.960 . S
C1484 C1483 1.524 . S
C1485 C1482 1.403 . S
C1485 C1486 1.392 . S
C1485 C1489 1.495 . S
C1486 C1485 1.392 . S
C1486 C1487 1.385 . S
C1486 C1488 1.478 . S
C1487 H1481 0.930 . S
C1487 C1483 1.400 . S
C1487 C1486 1.385 . S
C1488 C1486 1.478 . S
C1488 C1490 1.381 . S
C1488 C1494 1.383 . S
C1489 C1485 1.495 . S
C1489 H1495 0.959 . S
C1489 H1496 0.961 . S
C1489 H1497 0.960 . S
C1490 C1488 1.381 . S
C1490 C1491 1.394 . S
C1490 H1498 0.930 . S
C1491 C1490 1.394 . S
C1491 C1492 1.383 . S
C1491 H1499 0.929 . S
C1492 C1491 1.383 . S
C1492 C1493 1.377 . S
C1493 H1477 0.930 . S
C1493 C1492 1.377 . S
C1493 C1494 1.379 . S
C1494 H1478 0.931 . S
C1494 C1488 1.383 . S
C1494 C1493 1.379 . S
H1495 C1489 0.959 . S
H1496 C1489 0.961 . S
H1497 C1489 0.960 . S
H1498 C1490 0.930 . S
H1499 C1491 0.929 . S
H1500 C1508 0.929 . S
H1501 C1510 0.930 . S
H1502 C1512 0.930 . S
H1503 C1515 0.929 . S
H1504 C1518 0.930 . S
H1505 C1520 0.960 . S
H1506 C1520 0.960 . S
H1507 C1520 0.960 . S
C1508 H1500 0.929 . S
C1508 C1509 1.377 . S
C1508 C1510 1.384 . S
C1509 C1508 1.377 . S
C1509 C1515 1.390 . S
C1510 H1501 0.930 . S
C1510 C1508 1.384 . S
C1510 C1511 1.372 . S
C1511 C1510 1.372 . S
C1511 C1512 1.400 . S
C1511 C1516 1.490 . S
C1512 H1502 0.930 . S
C1512 C1511 1.400 . S
C1512 C1515 1.386 . S
H1513 C1529 0.930 . S
H1514 C1530 0.931 . S
C1515 H1503 0.929 . S
C1515 C1509 1.390 . S
C1515 C1512 1.386 . S
C1516 C1511 1.490 . S
C1516 C1518 1.395 . S
C1516 C1519 1.403 . S
H1517 C1523 0.930 . S
C1518 H1504 0.930 . S
C1518 C1516 1.395 . S
C1518 C1521 1.403 . S
C1519 C1516 1.403 . S
C1519 C1520 1.524 . S
C1519 C1523 1.400 . S
C1520 H1505 0.960 . S
C1520 H1506 0.960 . S
C1520 H1507 0.960 . S
C1520 C1519 1.524 . S
C1521 C1518 1.403 . S
C1521 C1522 1.392 . S
C1521 C1525 1.495 . S
C1522 C1521 1.392 . S
C1522 C1523 1.385 . S
C1522 C1524 1.478 . S
C1523 H1517 0.930 . S
C1523 C1519 1.400 . S
C1523 C1522 1.385 . S
C1524 C1522 1.478 . S
C1524 C1526 1.381 . S
C1524 C1530 1.383 . S
C1525 C1521 1.495 . S
C1525 H1531 0.959 . S
C1525 H1532 0.961 . S
C1525 H1533 0.960 . S
C1526 C1524 1.381 . S
C1526 C1527 1.394 . S
C1526 H1534 0.930 . S
C1527 C1526 1.394 . S
C1527 C1528 1.383 . S
C1527 H1535 0.929 . S
C1528 C1527 1.383 . S
C1528 C1529 1.377 . S
C1529 H1513 0.930 . S
C1529 C1528 1.377 . S
C1529 C1530 1.379 . S
C1530 H1514 0.931 . S
C1530 C1524 1.383 . S
C1530 C1529 1.379 . S
H1531 C1525 0.959 . S
H1532 C1525 0.961 . S
H1533 C1525 0.960 . S
H1534 C1526 0.930 . S
H1535 C1527 0.929 . S
C249 C8 1.131 . S
C268 C168 1.147 . S
C285 C28 1.127 . S
C304 C188 1.132 . S
C321 C48 1.135 . S
C340 C208 1.140 . S
C357 C228 1.131 . S
C376 C68 1.148 . S
C393 C88 1.127 . S
C412 C128 1.123 . S
C429 C148 1.132 . S
C448 C108 1.148 . S
C465 C201 0.527 . S
C484 C1 0.477 . S
C501 C221 0.545 . S
C520 C21 0.555 . S
C537 C41 0.552 . S
C556 C121 0.591 . S
C573 C141 0.540 . S
C592 C61 0.529 . S
C609 C161 0.552 . S
C628 C81 0.603 . S
C645 C101 0.541 . S
C664 C181 0.567 . S
C681 C159 2.055 . S
C700 C19 2.053 . S
C717 C179 2.052 . S
C736 C39 2.059 . S
C753 C199 2.056 . S
C772 C59 2.052 . S
C789 C79 2.057 . S
C808 C219 2.037 . S
C825 C99 2.051 . S
C844 C239 2.069 . S
C861 C119 2.051 . S
C880 C139 2.066 . S
C897 C9 1.455 . S
C916 C69 1.441 . S
C933 C29 1.447 . S
C952 C89 1.489 . S
C969 C49 1.440 . S
C988 C109 1.469 . S
C1005 C189 1.452 . S
C1024 C129 1.423 . S
C1041 C149 1.448 . S
C1060 C209 1.423 . S
C1077 C229 1.442 . S
C1096 C169 1.488 . S
C1113 C142 0.882 . S
C1132 C2 0.855 . S
C1149 C162 0.886 . S
C1168 C22 0.884 . S
C1185 C42 0.894 . S
C1204 C182 0.900 . S
C1221 C202 0.895 . S
C1240 C62 0.922 . S
C1257 C222 0.895 . S
C1276 C82 0.906 . S
C1293 C102 0.889 . S
C1312 C122 0.902 . S
C1329 C18 2.543 . S
C1348 C218 2.536 . S
C1365 C38 2.543 . S
C1384 C238 2.537 1_556 S
C1401 C58 2.541 1_554 S
C1420 C138 2.543 . S
C1437 C78 2.542 . S
C1456 C158 2.540 . S
C1473 C98 2.542 . S
C1492 C178 2.542 1_556 S
C1509 C198 2.543 . S
C1528 C118 2.535 1_554 S
