# Generated by pormake.
# Topology yfc, (5)-cn, num edge types: 1
# Building blocks:
#     Node 0, Type 0, BuildingBlock: BEQFEK_clean_sbu_0, # of connection points: 5
#     Node 1, Type 0, BuildingBlock: BEQFEK_clean_sbu_0, # of connection points: 5
#     Node 2, Type 0, BuildingBlock: BEQFEK_clean_sbu_0, # of connection points: 5
#     Node 3, Type 0, BuildingBlock: BEQFEK_clean_sbu_0, # of connection points: 5
#     Node 4, Type 0, BuildingBlock: BEQFEK_clean_sbu_0, # of connection points: 5
#     Node 5, Type 0, BuildingBlock: BEQFEK_clean_sbu_0, # of connection points: 5
#     Node 6, Type 0, BuildingBlock: BEQFEK_clean_sbu_0, # of connection points: 5
#     Node 7, Type 0, BuildingBlock: BEQFEK_clean_sbu_0, # of connection points: 5
#     Node 8, Type 0, BuildingBlock: BEQFEK_clean_sbu_0, # of connection points: 5
#     Node 9, Type 0, BuildingBlock: BEQFEK_clean_sbu_0, # of connection points: 5
#     Node 10, Type 0, BuildingBlock: BEQFEK_clean_sbu_0, # of connection points: 5
#     Node 11, Type 0, BuildingBlock: BEQFEK_clean_sbu_0, # of connection points: 5
#     Node 12, Type 0, BuildingBlock: BEQFEK_clean_sbu_0, # of connection points: 5
#     Node 13, Type 0, BuildingBlock: BEQFEK_clean_sbu_0, # of connection points: 5
#     Node 14, Type 0, BuildingBlock: BEQFEK_clean_sbu_0, # of connection points: 5
#     Node 15, Type 0, BuildingBlock: BEQFEK_clean_sbu_0, # of connection points: 5
#     Edge 16, Type (0, 0), BuildingBlock: AJUNOK_clean_linker_0, # of connection points: 2
#     Edge 17, Type (0, 0), BuildingBlock: AJUNOK_clean_linker_0, # of connection points: 2
#     Edge 18, Type (0, 0), BuildingBlock: AJUNOK_clean_linker_0, # of connection points: 2
#     Edge 19, Type (0, 0), BuildingBlock: AJUNOK_clean_linker_0, # of connection points: 2
#     Edge 20, Type (0, 0), BuildingBlock: AJUNOK_clean_linker_0, # of connection points: 2
#     Edge 21, Type (0, 0), BuildingBlock: AJUNOK_clean_linker_0, # of connection points: 2
#     Edge 22, Type (0, 0), BuildingBlock: AJUNOK_clean_linker_0, # of connection points: 2
#     Edge 23, Type (0, 0), BuildingBlock: AJUNOK_clean_linker_0, # of connection points: 2
#     Edge 24, Type (0, 0), BuildingBlock: AJUNOK_clean_linker_0, # of connection points: 2
#     Edge 25, Type (0, 0), BuildingBlock: AJUNOK_clean_linker_0, # of connection points: 2
#     Edge 26, Type (0, 0), BuildingBlock: AJUNOK_clean_linker_0, # of connection points: 2
#     Edge 27, Type (0, 0), BuildingBlock: AJUNOK_clean_linker_0, # of connection points: 2
#     Edge 28, Type (0, 0), BuildingBlock: AJUNOK_clean_linker_0, # of connection points: 2
#     Edge 29, Type (0, 0), BuildingBlock: AJUNOK_clean_linker_0, # of connection points: 2
#     Edge 30, Type (0, 0), BuildingBlock: AJUNOK_clean_linker_0, # of connection points: 2
#     Edge 31, Type (0, 0), BuildingBlock: AJUNOK_clean_linker_0, # of connection points: 2
#     Edge 32, Type (0, 0), BuildingBlock: AJUNOK_clean_linker_0, # of connection points: 2
#     Edge 33, Type (0, 0), BuildingBlock: AJUNOK_clean_linker_0, # of connection points: 2
#     Edge 34, Type (0, 0), BuildingBlock: AJUNOK_clean_linker_0, # of connection points: 2
#     Edge 35, Type (0, 0), BuildingBlock: AJUNOK_clean_linker_0, # of connection points: 2
#     Edge 36, Type (0, 0), BuildingBlock: AJUNOK_clean_linker_0, # of connection points: 2
#     Edge 37, Type (0, 0), BuildingBlock: AJUNOK_clean_linker_0, # of connection points: 2
#     Edge 38, Type (0, 0), BuildingBlock: AJUNOK_clean_linker_0, # of connection points: 2
#     Edge 39, Type (0, 0), BuildingBlock: AJUNOK_clean_linker_0, # of connection points: 2
#     Edge 40, Type (0, 0), BuildingBlock: AJUNOK_clean_linker_0, # of connection points: 2
#     Edge 41, Type (0, 0), BuildingBlock: AJUNOK_clean_linker_0, # of connection points: 2
#     Edge 42, Type (0, 0), BuildingBlock: AJUNOK_clean_linker_0, # of connection points: 2
#     Edge 43, Type (0, 0), BuildingBlock: AJUNOK_clean_linker_0, # of connection points: 2
#     Edge 44, Type (0, 0), BuildingBlock: AJUNOK_clean_linker_0, # of connection points: 2
#     Edge 45, Type (0, 0), BuildingBlock: AJUNOK_clean_linker_0, # of connection points: 2
#     Edge 46, Type (0, 0), BuildingBlock: AJUNOK_clean_linker_0, # of connection points: 2
#     Edge 47, Type (0, 0), BuildingBlock: AJUNOK_clean_linker_0, # of connection points: 2
#     Edge 48, Type (0, 0), BuildingBlock: AJUNOK_clean_linker_0, # of connection points: 2
#     Edge 49, Type (0, 0), BuildingBlock: AJUNOK_clean_linker_0, # of connection points: 2
#     Edge 50, Type (0, 0), BuildingBlock: AJUNOK_clean_linker_0, # of connection points: 2
#     Edge 51, Type (0, 0), BuildingBlock: AJUNOK_clean_linker_0, # of connection points: 2
#     Edge 52, Type (0, 0), BuildingBlock: AJUNOK_clean_linker_0, # of connection points: 2
#     Edge 53, Type (0, 0), BuildingBlock: AJUNOK_clean_linker_0, # of connection points: 2
#     Edge 54, Type (0, 0), BuildingBlock: AJUNOK_clean_linker_0, # of connection points: 2
#     Edge 55, Type (0, 0), BuildingBlock: AJUNOK_clean_linker_0, # of connection points: 2
# Relax obj value: 0.473
# Max RMSD: 0.191
# Mean RMSD: 0.191
data_MOF--net-yfc--node1-BEQFEK_clean_sbu_0--edge1-AJUNOK_clean_linker_0
_symmetry_space_group_name_H-M    P1
_symmetry_Int_Tables_number       1
_symmetry_cell_setting            triclinic
loop_
_symmetry_equiv_pos_as_xyz
'x, y, z'
_cell_length_a     36.095039
_cell_length_b     36.175531
_cell_length_c     35.304348
_cell_angle_alpha  89.789535
_cell_angle_beta   89.482105
_cell_angle_gamma 90.037924
loop_
_atom_site_label
_atom_site_type_symbol
_atom_site_fract_x
_atom_site_fract_y
_atom_site_fract_z
_atom_type_partial_charge
Co0 Co 0.76252 0.12672 0.17746 0.0
Co1 Co 0.72742 0.05381 0.20823 0.0
C2 C 0.68624 0.12503 0.21446 0.0
O3 O 0.71279 0.14131 0.19729 0.0
O4 O 0.68747 0.09037 0.22098 0.0
C5 C 0.75962 0.18248 0.12235 0.0
O6 O 0.72775 0.16651 0.11519 0.0
C7 C 0.6775 0.99242 0.23383 0.0
C8 C 0.71343 0.94393 0.22442 0.0
C9 C 0.67857 0.95409 0.23742 0.0
N10 N 0.71023 1.00423 0.21943 0.0
N11 N 0.73142 0.97496 0.21378 0.0
C12 C 0.64714 0.01774 0.2465 0.0
H13 H 0.65877 0.03855 0.26602 0.0
H14 H 0.63592 0.03261 0.22157 0.0
H15 H 0.62448 1.0027 0.26132 0.0
C16 C 0.77752 0.08173 0.11228 0.0
N17 N 0.7629 0.08516 0.14696 0.0
N18 N 0.74191 0.05664 0.15504 0.0
C19 C 0.73903 0.03598 0.1231 0.0
C20 C 0.7615 0.05163 0.09442 0.0
C21 C 0.80928 0.10496 0.09808 0.0
H22 H 0.8268 0.11358 0.12219 0.0
H23 H 0.79902 0.13033 0.08408 0.0
H24 H 0.82636 0.08934 0.0773 0.0
O25 O 0.79518 0.11808 0.2186 0.0
O26 O 0.77212 0.06588 0.24303 0.0
H27 H 0.72902 0.97789 0.1228 0.0
H28 H 0.70022 1.00393 0.09103 0.0
C29 C 0.71317 1.00395 0.11943 0.0
H30 H 0.69134 1.00499 0.14174 0.0
H31 H 0.75837 0.97619 0.20282 0.0
O32 O 0.78015 0.16916 0.14803 0.0
C33 C 0.79602 0.09225 0.2429 0.0
Co34 Co 0.39647 0.7627 0.67674 0.0
Co35 Co 0.46912 0.7264 0.70457 0.0
C36 C 0.39757 0.6859 0.7117 0.0
O37 O 0.38143 0.71255 0.69497 0.0
O38 O 0.43224 0.68708 0.71804 0.0
C39 C 0.341 0.76245 0.62174 0.0
O40 O 0.3563 0.73056 0.61328 0.0
C41 C 0.53039 0.67427 0.72354 0.0
C42 C 0.57903 0.71109 0.71917 0.0
C43 C 0.56876 0.67495 0.72719 0.0
N44 N 0.51863 0.70847 0.71405 0.0
N45 N 0.54797 0.73022 0.71148 0.0
C46 C 0.5056 0.64121 0.7264 0.0
H47 H 0.48536 0.64165 0.70294 0.0
H48 H 0.52161 0.61508 0.72513 0.0
H49 H 0.49 0.64228 0.75358 0.0
C50 C 0.44085 0.77863 0.61096 0.0
N51 N 0.43809 0.7639 0.6456 0.0
N52 N 0.46546 0.74099 0.65162 0.0
C53 C 0.48423 0.73698 0.61833 0.0
C54 C 0.46849 0.76036 0.59089 0.0
C55 C 0.42187 0.81401 0.59993 0.0
H56 H 0.42112 0.83297 0.62459 0.0
H57 H 0.39281 0.80896 0.59183 0.0
H58 H 0.43651 0.82767 0.57588 0.0
O59 O 0.40513 0.7938 0.71891 0.0
O60 O 0.45836 0.77098 0.74046 0.0
H61 H 0.5418 0.72531 0.61196 0.0
H62 H 0.51209 0.69603 0.58469 0.0
C63 C 0.5151 0.71009 0.61239 0.0
H64 H 0.51558 0.68934 0.63562 0.0
H65 H 0.5468 0.75823 0.70431 0.0
O66 O 0.35441 0.78165 0.64838 0.0
C67 C 0.43161 0.79439 0.74216 0.0
Co68 Co 0.78188 0.39193 0.15583 0.0
Co69 Co 0.80543 0.46372 0.19836 0.0
C70 C 0.8491 0.39232 0.20503 0.0
O71 O 0.82715 0.37641 0.18243 0.0
O72 O 0.84436 0.42621 0.21379 0.0
C73 C 0.79386 0.33307 0.1051 0.0
O74 O 0.82772 0.34643 0.10434 0.0
C75 C 0.85276 0.52383 0.22977 0.0
C76 C 0.81312 0.57022 0.2319 0.0
C77 C 0.84964 0.56109 0.23937 0.0
N78 N 0.81974 0.5119 0.21689 0.0
N79 N 0.7962 0.53981 0.21857 0.0
C80 C 0.88531 0.49895 0.23583 0.0
H81 H 0.87644 0.47477 0.25302 0.0
H82 H 0.89548 0.48865 0.20806 0.0
H83 H 0.90807 0.51291 0.25101 0.0
C84 C 0.77779 0.44173 0.09127 0.0
N85 N 0.78752 0.4351 0.12728 0.0
N86 N 0.79777 0.46606 0.14363 0.0
C87 C 0.79576 0.49355 0.11737 0.0
C88 C 0.78286 0.47887 0.08344 0.0
C89 C 0.76042 0.41351 0.06603 0.0
H90 H 0.73927 0.39757 0.08215 0.0
H91 H 0.78209 0.39418 0.05576 0.0
H92 H 0.74691 0.42625 0.04121 0.0
O93 O 0.74139 0.39854 0.19243 0.0
O94 O 0.75749 0.44841 0.22517 0.0
H95 H 0.7794 0.5456 0.14007 0.0
H96 H 0.80806 0.54886 0.09815 0.0
C97 C 0.80351 0.53337 0.125 0.0
H98 H 0.82821 0.53599 0.14325 0.0
H99 H 0.76849 0.53811 0.21053 0.0
O100 O 0.769 0.34985 0.12397 0.0
C101 C 0.73509 0.4218 0.21861 0.0
Co102 Co 0.13186 0.78572 0.65859 0.0
Co103 Co 0.05906 0.80637 0.70175 0.0
C104 C 0.12906 0.85212 0.70911 0.0
O105 O 0.14578 0.831 0.68597 0.0
O106 O 0.09506 0.84648 0.71771 0.0
C107 C 0.19117 0.79965 0.60773 0.0
O108 O 0.17791 0.83346 0.60843 0.0
C109 C 0.99493 0.85316 0.72327 0.0
C110 C 0.9547 0.81161 0.74386 0.0
C111 C 0.95921 0.84931 0.73807 0.0
N112 N 1.01053 0.81941 0.72051 0.0
N113 N 0.98628 0.79475 0.73298 0.0
C114 C 0.01335 0.8879 0.70985 0.0
H115 H 0.03358 0.88161 0.6869 0.0
H116 H 0.99256 0.9081 0.69958 0.0
H117 H 0.0286 0.90042 0.73376 0.0
C118 C 0.08236 0.78044 0.59435 0.0
N119 N 0.08867 0.79035 0.63033 0.0
N120 N 0.0572 0.79872 0.6473 0.0
C121 C 0.02957 0.79479 0.62178 0.0
C122 C 0.04481 0.78315 0.58734 0.0
C123 C 0.11135 0.7644 0.56861 0.0
H124 H 0.12769 0.74343 0.58417 0.0
H125 H 0.13029 0.78671 0.55891 0.0
H126 H 0.09919 0.75104 0.54349 0.0
O127 O 0.12625 0.74468 0.6948 0.0
O128 O 0.07563 0.75909 0.72805 0.0
H129 H 0.98139 0.7778 0.6527 0.0
H130 H 0.972 0.79513 0.60554 0.0
C131 C 0.98932 0.79876 0.63108 0.0
H132 H 0.98423 0.82646 0.64346 0.0
H133 H 0.99123 0.76633 0.73386 0.0
O134 O 0.17443 0.77435 0.62607 0.0
C135 C 0.10308 0.73765 0.72123 0.0
Co136 Co 0.73699 0.39244 0.86261 0.0
Co137 Co 0.71625 0.46489 0.8192 0.0
C138 C 0.67038 0.39459 0.81316 0.0
O139 O 0.69124 0.37813 0.83653 0.0
O140 O 0.67662 0.42814 0.80368 0.0
C141 C 0.72572 0.33242 0.91343 0.0
O142 O 0.69162 0.34503 0.91485 0.0
C143 C 0.66973 0.52658 0.78973 0.0
C144 C 0.7117 0.57026 0.78087 0.0
C145 C 0.67419 0.56296 0.77726 0.0
N146 N 0.70306 0.51331 0.80026 0.0
N147 N 0.72793 0.53965 0.7948 0.0
C148 C 0.63531 0.50353 0.78868 0.0
H149 H 0.64006 0.47968 0.76959 0.0
H150 H 0.62932 0.49241 0.81743 0.0
H151 H 0.61111 0.51914 0.77812 0.0
C152 C 0.74212 0.44219 0.92679 0.0
N153 N 0.73257 0.43576 0.89074 0.0
N154 N 0.72394 0.46705 0.87384 0.0
C155 C 0.72717 0.49463 0.89963 0.0
C156 C 0.73898 0.47961 0.93395 0.0
C157 C 0.75713 0.41321 0.95289 0.0
H158 H 0.77883 0.397 0.93801 0.0
H159 H 0.73441 0.39425 0.9615 0.0
H160 H 0.76932 0.42522 0.9787 0.0
O161 O 0.77738 0.39803 0.82559 0.0
O162 O 0.76377 0.44866 0.79259 0.0
H163 H 0.74546 0.54478 0.87368 0.0
H164 H 0.72002 0.55119 0.91744 0.0
C165 C 0.72173 0.5347 0.89102 0.0
H166 H 0.69609 0.53849 0.87436 0.0
H167 H 0.75611 0.53665 0.80041 0.0
O168 O 0.74994 0.35012 0.89441 0.0
C169 C 0.78489 0.42108 0.79937 0.0
Co170 Co 0.13149 0.73425 0.36462 0.0
Co171 Co 0.05855 0.71244 0.32364 0.0
C172 C 0.1289 0.66745 0.31464 0.0
O173 O 0.14555 0.68885 0.33727 0.0
O174 O 0.09482 0.67273 0.30681 0.0
C175 C 0.19133 0.72129 0.41378 0.0
O176 O 0.17726 0.6878 0.41511 0.0
C177 C 0.99576 0.66544 0.29945 0.0
C178 C 0.95216 0.70698 0.28934 0.0
C179 C 0.95903 0.66931 0.28855 0.0
N180 N 1.00985 0.69924 0.30635 0.0
N181 N 0.98361 0.72391 0.30003 0.0
C182 C 0.01652 0.63017 0.30543 0.0
H183 H 0.03332 0.62417 0.2797 0.0
H184 H 0.03564 0.63309 0.32969 0.0
H185 H 0.99727 0.60674 0.31069 0.0
C186 C 0.08253 0.73919 0.43033 0.0
N187 N 0.08861 0.72942 0.39415 0.0
N188 N 0.05715 0.72018 0.3782 0.0
C189 C 0.02982 0.72316 0.40471 0.0
C190 C 0.04519 0.7354 0.43858 0.0
C191 C 0.11157 0.75545 0.45535 0.0
H192 H 0.12808 0.77612 0.43923 0.0
H193 H 0.13033 0.73317 0.46509 0.0
H194 H 0.09939 0.76921 0.48045 0.0
O195 O 0.12521 0.77484 0.32827 0.0
O196 O 0.0744 0.75972 0.29661 0.0
H197 H 0.97937 0.74006 0.37894 0.0
H198 H 0.97322 0.71666 0.42388 0.0
C199 C 0.98961 0.71725 0.39712 0.0
H200 H 0.9858 0.69092 0.38163 0.0
H201 H 0.98707 0.75236 0.30343 0.0
O202 O 0.17446 0.74629 0.39547 0.0
C203 C 0.10173 0.78144 0.30249 0.0
Co204 Co 0.76122 0.12714 0.84598 0.0
Co205 Co 0.79705 0.05531 0.81448 0.0
C206 C 0.83805 0.12676 0.81003 0.0
O207 O 0.81105 0.14237 0.82695 0.0
O208 O 0.83706 0.09232 0.8026 0.0
C209 C 0.76386 0.18262 0.90106 0.0
O210 O 0.79689 0.16848 0.90667 0.0
C211 C 0.84605 0.9949 0.78537 0.0
C212 C 0.8144 0.94552 0.80319 0.0
C213 C 0.84684 0.95637 0.78498 0.0
N214 N 0.81474 1.00606 0.80315 0.0
N215 N 0.79601 0.97627 0.81356 0.0
C216 C 0.87331 0.02075 0.76717 0.0
H217 H 0.85837 0.04369 0.75306 0.0
H218 H 0.89121 0.03279 0.78935 0.0
H219 H 0.8909 1.00637 0.74594 0.0
C220 C 0.74641 0.08104 0.91057 0.0
N221 N 0.76081 0.08496 0.87583 0.0
N222 N 0.78253 0.05708 0.86775 0.0
C223 C 0.78612 0.03646 0.89981 0.0
C224 C 0.76332 0.05137 0.9285 0.0
C225 C 0.71445 0.1037 0.925 0.0
H226 H 0.69657 0.11214 0.90105 0.0
H227 H 0.72448 0.12916 0.93882 0.0
H228 H 0.69781 0.08773 0.94601 0.0
O229 O 0.72891 0.11923 0.80456 0.0
O230 O 0.752 0.06736 0.77985 0.0
H231 H 0.79828 0.9788 0.90112 0.0
H232 H 0.82638 1.00626 0.93204 0.0
C233 C 0.81319 1.00548 0.90377 0.0
H234 H 0.83476 1.0071 0.88122 0.0
H235 H 0.77064 0.97694 0.82801 0.0
O236 O 0.74309 0.16868 0.87602 0.0
C237 C 0.72805 0.09368 0.78016 0.0
Co238 Co 0.39788 0.756 0.34214 0.0
Co239 Co 0.46875 0.79428 0.311 0.0
C240 C 0.39695 0.83375 0.30797 0.0
O241 O 0.38204 0.80606 0.32446 0.0
O242 O 0.43147 0.83381 0.29995 0.0
C243 C 0.342 0.75718 0.39747 0.0
O244 O 0.35556 0.79041 0.40306 0.0
C245 C 0.53106 0.84627 0.29316 0.0
C246 C 0.57758 0.80709 0.28737 0.0
C247 C 0.56899 0.8444 0.28551 0.0
N248 N 0.5181 0.81168 0.29909 0.0
N249 N 0.54618 0.78853 0.29559 0.0
C250 C 0.50789 0.88032 0.29714 0.0
H251 H 0.4929 0.88525 0.27029 0.0
H252 H 0.48704 0.87642 0.3201 0.0
H253 H 0.52524 0.90482 0.30347 0.0
C254 C 0.44393 0.74187 0.40638 0.0
N255 N 0.44027 0.7556 0.37144 0.0
N256 N 0.46684 0.77923 0.36397 0.0
C257 C 0.48595 0.78456 0.39651 0.0
C258 C 0.4714 0.76132 0.42496 0.0
C259 C 0.42355 0.70823 0.4205 0.0
H260 H 0.41983 0.68846 0.39686 0.0
H261 H 0.39562 0.7155 0.43113 0.0
H262 H 0.43896 0.69467 0.44382 0.0
O263 O 0.40581 0.7249 0.29967 0.0
O264 O 0.45707 0.7501 0.27512 0.0
H265 H 0.54304 0.79925 0.39845 0.0
H266 H 0.51377 0.82584 0.42944 0.0
C267 C 0.51564 0.81295 0.40101 0.0
H268 H 0.51356 0.83442 0.3786 0.0
H269 H 0.5439 0.75991 0.29889 0.0
O270 O 0.3565 0.73675 0.37221 0.0
C271 C 0.43125 0.72562 0.27478 0.0
Co272 Co 0.27835 0.89569 0.86903 0.0
Co273 Co 0.30454 0.9678 0.82723 0.0
C274 C 0.35152 0.89789 0.82741 0.0
O275 O 0.3271 0.88166 0.84766 0.0
O276 O 0.34688 0.9315 0.81704 0.0
C277 C 0.28241 0.83424 0.92029 0.0
O278 O 0.31735 0.84383 0.92354 0.0
C279 C 0.35133 0.02968 0.79708 0.0
C280 C 0.31171 0.07606 0.79734 0.0
C281 C 0.34834 0.06734 0.78943 0.0
N282 N 0.31831 0.017 0.80977 0.0
N283 N 0.29473 0.04494 0.80948 0.0
C284 C 0.38312 1.00504 0.78743 0.0
H285 H 0.39378 0.99191 0.81361 0.0
H286 H 0.40574 0.01992 0.77238 0.0
H287 H 0.37268 0.98309 0.76856 0.0
C288 C 0.26948 0.94573 0.93293 0.0
N289 N 0.28021 0.93926 0.89705 0.0
N290 N 0.29218 0.97007 0.88117 0.0
C291 C 0.29051 0.99717 0.90769 0.0
C292 C 0.27548 0.98258 0.94106 0.0
C293 C 0.25372 0.91679 0.95894 0.0
H294 H 0.27604 0.89736 0.96706 0.0
H295 H 0.2417 0.92874 0.98512 0.0
H296 H 0.23185 0.90107 0.94413 0.0
O297 O 0.24169 0.90103 0.82907 0.0
O298 O 0.25928 0.951 0.79679 0.0
H299 H 0.30821 0.05008 0.92885 0.0
H300 H 0.3279 0.03699 0.88337 0.0
C301 C 0.30264 0.03623 0.90148 0.0
H302 H 0.28026 0.05158 0.88697 0.0
H303 H 0.26696 0.0428 0.8177 0.0
O304 O 0.26122 0.8538 0.89991 0.0
C305 C 0.23699 0.92388 0.80217 0.0
Co306 Co 0.62879 0.28198 0.35993 0.0
Co307 Co 0.55677 0.30094 0.31505 0.0
C308 C 0.62585 0.34876 0.3101 0.0
O309 O 0.64245 0.32848 0.33404 0.0
O310 O 0.59268 0.34151 0.30025 0.0
C311 C 0.68793 0.29145 0.41298 0.0
O312 O 0.67744 0.32621 0.41361 0.0
C313 C 0.49378 0.34755 0.29078 0.0
C314 C 0.45181 0.30574 0.27604 0.0
C315 C 0.45761 0.34356 0.27813 0.0
N316 N 0.50855 0.31371 0.29592 0.0
N317 N 0.4833 0.28888 0.28684 0.0
C318 C 0.51321 0.38278 0.30035 0.0
H319 H 0.53189 0.3783 0.32474 0.0
H320 H 0.49305 0.405 0.30715 0.0
H321 H 0.53032 0.39165 0.27567 0.0
C322 C 0.57673 0.27626 0.42335 0.0
N323 N 0.58423 0.28494 0.38707 0.0
N324 N 0.55335 0.29319 0.36942 0.0
C325 C 0.52497 0.29071 0.3948 0.0
C326 C 0.53903 0.27965 0.4297 0.0
C327 C 0.60514 0.263 0.45092 0.0
H328 H 0.62233 0.24113 0.43765 0.0
H329 H 0.62336 0.28641 0.45866 0.0
H330 H 0.59242 0.25166 0.47712 0.0
O331 O 0.62542 0.24229 0.32252 0.0
O332 O 0.57507 0.25427 0.28869 0.0
H333 H 0.47594 0.27523 0.36553 0.0
H334 H 0.46745 0.296 0.41134 0.0
C335 C 0.48517 0.29692 0.38548 0.0
H336 H 0.48206 0.32411 0.37124 0.0
H337 H 0.48739 0.26035 0.28856 0.0
O338 O 0.67013 0.26856 0.39294 0.0
C339 C 0.60339 0.23427 0.29591 0.0
Co340 Co 0.24226 0.62833 0.8598 0.0
Co341 Co 0.22126 0.55728 0.81431 0.0
C342 C 0.17496 0.62724 0.81122 0.0
O343 O 0.19592 0.64304 0.83492 0.0
O344 O 0.18135 0.59416 0.80048 0.0
C345 C 0.23288 0.68695 0.91315 0.0
O346 O 0.19779 0.6773 0.91264 0.0
C347 C 0.17292 0.49612 0.78917 0.0
C348 C 0.21337 0.45186 0.77714 0.0
C349 C 0.17579 0.45956 0.77765 0.0
N350 N 0.20724 0.50949 0.79507 0.0
N351 N 0.23127 0.4829 0.78752 0.0
C352 C 0.13813 0.51723 0.79719 0.0
H353 H 0.14144 0.53378 0.82335 0.0
H354 H 0.11396 0.49843 0.80033 0.0
H355 H 0.13298 0.53664 0.7734 0.0
C356 C 0.2471 0.57602 0.92245 0.0
N357 N 0.23838 0.58385 0.88641 0.0
N358 N 0.22937 0.55332 0.86855 0.0
C359 C 0.23148 0.52483 0.89358 0.0
C360 C 0.24314 0.53843 0.92839 0.0
C361 C 0.26053 0.60407 0.95029 0.0
H362 H 0.28342 0.62039 0.93741 0.0
H363 H 0.23749 0.62309 0.95752 0.0
H364 H 0.27052 0.59125 0.97679 0.0
O365 O 0.28178 0.62449 0.82157 0.0
O366 O 0.26817 0.57485 0.78726 0.0
H367 H 0.22371 0.46774 0.90993 0.0
H368 H 0.19758 0.48289 0.86905 0.0
C369 C 0.22434 0.48528 0.88406 0.0
H370 H 0.2466 0.47528 0.86483 0.0
H371 H 0.25991 0.48568 0.79026 0.0
O372 O 0.25619 0.66901 0.89336 0.0
C373 C 0.28898 0.60257 0.79443 0.0
Co374 Co 0.8956 0.24603 0.36972 0.0
Co375 Co 0.96674 0.21936 0.32642 0.0
C376 C 0.89692 0.17284 0.32991 0.0
O377 O 0.88082 0.19718 0.35004 0.0
O378 O 0.93024 0.17768 0.31846 0.0
C379 C 0.83537 0.24227 0.42297 0.0
O380 O 0.84477 0.20733 0.4262 0.0
C381 C 0.0275 0.16923 0.30143 0.0
C382 C 0.07267 0.20873 0.28904 0.0
C383 C 0.06422 0.17139 0.2894 0.0
N384 N 0.01476 0.20375 0.30769 0.0
N385 N 0.04196 0.22718 0.29996 0.0
C386 C 1.00564 0.13488 0.30934 0.0
H387 H 0.98999 0.13796 0.33634 0.0
H388 H 0.02385 0.11023 0.31097 0.0
H389 H 0.98533 0.13083 0.28631 0.0
C390 C 0.94757 0.25554 0.43163 0.0
N391 N 0.94004 0.24444 0.39629 0.0
N392 N 0.9705 0.23257 0.37957 0.0
C393 C 0.99853 0.23486 0.40482 0.0
C394 C 0.98483 0.24994 0.43843 0.0
C395 C 0.91933 0.27157 0.45824 0.0
H396 H 0.89997 0.24943 0.46749 0.0
H397 H 0.93202 0.28381 0.4837 0.0
H398 H 0.90326 0.29327 0.44345 0.0
O399 O 0.89996 0.28192 0.32826 0.0
O400 O 0.94927 0.2638 0.29502 0.0
H401 H 0.05047 0.24439 0.37729 0.0
H402 H 0.05408 0.22257 0.42318 0.0
C403 C 0.03767 0.22382 0.39676 0.0
H404 H 0.03819 0.19652 0.38256 0.0
H405 H 0.03971 0.25581 0.30271 0.0
O406 O 0.85446 0.26341 0.40166 0.0
C407 C 0.92208 0.28599 0.30036 0.0
Co408 Co 0.27731 0.62341 0.15125 0.0
Co409 Co 0.30457 0.55207 0.19319 0.0
C410 C 0.351 0.62212 0.19091 0.0
O411 O 0.32609 0.63786 0.17139 0.0
O412 O 0.34694 0.58853 0.20169 0.0
C413 C 0.28135 0.6843 0.09922 0.0
O414 O 0.31644 0.67511 0.09586 0.0
C415 C 0.35054 0.49063 0.225 0.0
C416 C 0.31141 0.4439 0.22273 0.0
C417 C 0.34746 0.45286 0.23238 0.0
N418 N 0.31815 0.50309 0.2111 0.0
N419 N 0.29481 0.47495 0.21031 0.0
C420 C 0.38187 0.51548 0.23518 0.0
H421 H 0.37041 0.53885 0.25171 0.0
H422 H 0.39493 0.52663 0.20896 0.0
H423 H 0.40292 0.50131 0.25267 0.0
C424 C 0.26815 0.57257 0.08836 0.0
N425 N 0.2792 0.57951 0.12382 0.0
N426 N 0.29199 0.54909 0.13956 0.0
C427 C 0.29078 0.52184 0.1132 0.0
C428 C 0.27502 0.53585 0.08023 0.0
C429 C 0.25112 0.6009 0.06281 0.0
H430 H 0.22958 0.61653 0.07858 0.0
H431 H 0.27287 0.62052 0.05317 0.0
H432 H 0.23832 0.58837 0.03755 0.0
O433 O 0.24087 0.61843 0.19203 0.0
O434 O 0.25941 0.56918 0.22453 0.0
H435 H 0.28192 0.46664 0.13258 0.0
H436 H 0.31147 0.47018 0.09152 0.0
C437 C 0.30426 0.48322 0.11903 0.0
H438 H 0.32881 0.48313 0.13768 0.0
H439 H 0.26751 0.47689 0.201 0.0
O440 O 0.26013 0.66488 0.12013 0.0
C441 C 0.23673 0.59592 0.2194 0.0
Co442 Co 0.89411 0.28009 0.66105 0.0
Co443 Co 0.96599 0.30234 0.70509 0.0
C444 C 0.8951 0.34751 0.70946 0.0
O445 O 0.87888 0.32651 0.68606 0.0
O446 O 0.92858 0.34149 0.71898 0.0
C447 C 0.83509 0.28797 0.60802 0.0
O448 O 0.84469 0.32301 0.60777 0.0
C449 C 0.02671 0.35139 0.73181 0.0
C450 C 0.07283 0.31184 0.7378 0.0
C451 C 0.06423 0.34908 0.74055 0.0
N452 N 0.01417 0.31726 0.72336 0.0
N453 N 0.04191 0.29379 0.72742 0.0
C454 C 1.00226 0.38468 0.73465 0.0
H455 H 0.97786 0.37795 0.75261 0.0
H456 H 0.9922 0.39224 0.70604 0.0
H457 H 0.01667 0.4085 0.7476 0.0
C458 C 0.94603 0.27542 0.59742 0.0
N459 N 0.93852 0.28412 0.63364 0.0
N460 N 0.9692 0.29397 0.65079 0.0
C461 C 0.99733 0.29273 0.62503 0.0
C462 C 0.98346 0.28051 0.59058 0.0
C463 C 0.91786 0.26122 0.57015 0.0
H464 H 0.90159 0.23867 0.58364 0.0
H465 H 0.89876 0.28398 0.56253 0.0
H466 H 0.93068 0.25056 0.54379 0.0
O467 O 0.89879 0.2412 0.69955 0.0
O468 O 0.94896 0.2556 0.73271 0.0
H469 H 0.04891 0.27905 0.65043 0.0
H470 H 0.0533 0.30478 0.60677 0.0
C471 C 0.03683 0.30172 0.63331 0.0
H472 H 0.03833 0.32763 0.64991 0.0
H473 H 0.03987 0.26542 0.7225 0.0
O474 O 0.85313 0.26526 0.62821 0.0
C475 C 0.92117 0.23456 0.72633 0.0
Co476 Co 0.24224 0.89057 0.16294 0.0
Co477 Co 0.21956 0.96181 0.20825 0.0
C478 C 0.17392 0.89129 0.21118 0.0
O479 O 0.19556 0.87547 0.18778 0.0
O480 O 0.17983 0.92449 0.22165 0.0
C481 C 0.23338 0.83205 0.10986 0.0
O482 O 0.19869 0.84299 0.10964 0.0
C483 C 0.17073 0.02205 0.23769 0.0
C484 C 0.21034 0.06826 0.24246 0.0
C485 C 0.17315 0.05947 0.2468 0.0
N486 N 0.20472 0.00979 0.22752 0.0
N487 N 0.22823 0.03758 0.23088 0.0
C488 C 0.13761 0.99741 0.24193 0.0
H489 H 0.14512 0.97287 0.25911 0.0
H490 H 0.12896 0.98764 0.21358 0.0
H491 H 0.1142 0.01156 0.25632 0.0
C492 C 0.2475 0.94264 0.10005 0.0
N493 N 0.23843 0.93499 0.13621 0.0
N494 N 0.22855 0.96552 0.15381 0.0
C495 C 0.23029 0.99375 0.12836 0.0
C496 C 0.24272 0.98003 0.09366 0.0
C497 C 0.26208 0.91466 0.0725 0.0
H498 H 0.2845 0.89838 0.08584 0.0
H499 H 0.23937 0.89561 0.0647 0.0
H500 H 0.27308 0.92757 0.04624 0.0
O501 O 0.281 0.89479 0.20118 0.0
O502 O 0.26621 0.94435 0.23539 0.0
H503 H 0.24491 0.04505 0.15368 0.0
H504 H 0.21848 0.04968 0.11083 0.0
C505 C 0.22179 0.03321 0.13718 0.0
H506 H 0.1961 0.0349 0.15456 0.0
H507 H 0.25651 0.03573 0.22476 0.0
O508 O 0.25668 0.84964 0.12963 0.0
C509 C 0.2874 0.91678 0.22835 0.0
Co510 Co 0.62625 0.24499 0.65166 0.0
Co511 Co 0.55455 0.21992 0.69507 0.0
C512 C 0.62423 0.1731 0.69461 0.0
O513 O 0.64056 0.19674 0.67357 0.0
O514 O 0.59072 0.17825 0.70533 0.0
C515 C 0.68718 0.23946 0.59947 0.0
O516 O 0.67705 0.20469 0.5968 0.0
C517 C 0.4923 0.17217 0.72179 0.0
C518 C 0.44936 0.21358 0.73537 0.0
C519 C 0.4563 0.17594 0.73551 0.0
N520 N 0.50618 0.20606 0.71429 0.0
N521 N 0.48026 0.23062 0.72254 0.0
C522 C 0.51229 0.13685 0.71373 0.0
H523 H 0.52992 0.12986 0.73825 0.0
H524 H 0.53037 0.14013 0.68836 0.0
H525 H 0.49245 0.11384 0.70929 0.0
C526 C 0.57494 0.25292 0.58883 0.0
N527 N 0.58212 0.24262 0.62457 0.0
N528 N 0.55143 0.23138 0.64142 0.0
C529 C 0.5236 0.23328 0.6159 0.0
C530 C 0.53771 0.24732 0.58187 0.0
C531 C 0.6033 0.26903 0.56227 0.0
H532 H 0.61965 0.29038 0.57715 0.0
H533 H 0.62239 0.24684 0.55281 0.0
H534 H 0.59058 0.28182 0.53702 0.0
O535 O 0.62159 0.2823 0.69145 0.0
O536 O 0.57185 0.26523 0.72468 0.0
H537 H 0.47197 0.2442 0.64343 0.0
H538 H 0.46772 0.22202 0.59789 0.0
C539 C 0.48422 0.22319 0.62425 0.0
H540 H 0.48312 0.19607 0.63898 0.0
H541 H 0.48363 0.25912 0.71927 0.0
O542 O 0.66794 0.26126 0.61973 0.0
C543 C 0.5991 0.28726 0.71884 0.0
C544 C 0.61301 0.92989 0.23972 0.0
C545 C 0.64985 0.92821 0.25242 0.0
C546 C 0.58652 0.90349 0.25141 0.0
C547 C 0.59591 0.87446 0.27626 0.0
H548 H 0.60491 0.95094 0.21954 0.0
H549 H 0.55896 0.90505 0.23969 0.0
S550 S 0.68806 0.85917 0.31939 0.0
N551 N 0.69387 0.89607 0.29233 0.0
N552 N 0.64436 0.84677 0.31437 0.0
C553 C 0.63248 0.87303 0.28967 0.0
C554 C 0.65934 0.89977 0.27774 0.0
C555 C 0.61188 0.59443 0.78124 0.0
C556 C 0.64621 0.58958 0.76262 0.0
C557 C 0.58641 0.62131 0.76902 0.0
C558 C 0.59449 0.64463 0.738 0.0
H559 H 0.60512 0.57825 0.80622 0.0
H560 H 0.5608 0.62472 0.78484 0.0
S561 S 0.68014 0.64283 0.67921 0.0
N562 N 0.6865 0.61005 0.71116 0.0
N563 N 0.63902 0.6607 0.68867 0.0
C564 C 0.62864 0.64001 0.71917 0.0
C565 C 0.65439 0.61254 0.73139 0.0
C566 C 0.94113 0.6128 0.25167 0.0
C567 C 0.93184 0.6403 0.27817 0.0
C568 C 0.91468 0.58694 0.23951 0.0
C569 C 0.87816 0.58711 0.25401 0.0
H570 H 0.96865 0.61208 0.23922 0.0
H571 H 0.92266 0.56749 0.21768 0.0
S572 S 0.84045 0.65272 0.32516 0.0
N573 N 0.88387 0.66593 0.31889 0.0
N574 N 0.83456 0.61688 0.297 0.0
C575 C 0.8688 0.61428 0.28088 0.0
C576 C 0.89552 0.64087 0.29279 0.0
C577 C 0.94074 0.91171 0.76397 0.0
C578 C 0.93085 0.87809 0.74673 0.0
C579 C 0.91364 0.93751 0.77531 0.0
C580 C 0.87563 0.93074 0.76972 0.0
H581 H 0.96945 0.91754 0.77021 0.0
H582 H 0.9225 0.96222 0.78989 0.0
S583 S 0.83536 0.84805 0.72372 0.0
N584 N 0.88043 0.8403 0.72323 0.0
N585 N 0.82979 0.88859 0.74433 0.0
C586 C 0.86554 0.89759 0.75184 0.0
C587 C 0.89302 0.87139 0.74039 0.0
C588 C 0.36789 0.11975 0.74716 0.0
C589 C 0.37703 0.09371 0.77529 0.0
C590 C 0.39387 0.14591 0.7341 0.0
C591 C 0.43005 0.14685 0.74849 0.0
H592 H 0.3404 0.11992 0.7351 0.0
H593 H 0.38561 0.16552 0.71251 0.0
S594 S 0.46653 0.08828 0.82599 0.0
N595 N 0.42379 0.07324 0.81988 0.0
N596 N 0.47284 0.12156 0.79444 0.0
C597 C 0.43941 0.12148 0.77706 0.0
C598 C 0.41284 0.09515 0.79072 0.0
C599 C 0.43969 0.40262 0.24525 0.0
C600 C 0.42999 0.37258 0.26875 0.0
C601 C 0.4131 0.42876 0.23395 0.0
C602 C 0.37592 0.42629 0.24632 0.0
H603 H 0.46774 0.40523 0.23441 0.0
H604 H 0.42158 0.45035 0.21441 0.0
S605 S 0.33685 0.35358 0.30953 0.0
N606 N 0.38091 0.34216 0.30452 0.0
N607 N 0.33124 0.3916 0.2842 0.0
C608 C 0.3661 0.39656 0.27022 0.0
C609 C 0.39304 0.36973 0.28128 0.0
C610 C 0.11705 0.37242 0.77922 0.0
C611 C 0.09098 0.37882 0.75049 0.0
C612 C 0.14406 0.3989 0.78814 0.0
C613 C 0.14582 0.43296 0.76893 0.0
H614 H 0.11669 0.34661 0.79488 0.0
H615 H 0.16372 0.3927 0.81028 0.0
S616 S 0.08739 0.46178 0.68835 0.0
N617 N 0.07145 0.42048 0.7002 0.0
N618 N 0.121 0.47086 0.71836 0.0
C619 C 0.12031 0.43968 0.73992 0.0
C620 C 0.09321 0.41245 0.73032 0.0
C621 C 0.12491 0.13908 0.29727 0.0
C622 C 0.09024 0.14106 0.27957 0.0
C623 C 0.15101 0.11201 0.28704 0.0
C624 C 0.14362 0.08602 0.25846 0.0
H625 H 0.13196 0.1587 0.31918 0.0
H626 H 0.17735 0.11158 0.30151 0.0
S627 S 0.05864 0.08281 0.20003 0.0
N628 N 0.05068 0.11646 0.23052 0.0
N629 N 0.10022 0.06664 0.21005 0.0
C630 C 0.10931 0.08836 0.23988 0.0
C631 C 0.0825 0.11559 0.25077 0.0
C632 C 0.6464 0.182 0.21449 0.0
C633 C 0.65658 0.14829 0.23174 0.0
C634 C 0.62511 0.20851 0.23407 0.0
C635 C 0.61384 0.20249 0.2718 0.0
H636 H 0.65667 0.1888 0.18638 0.0
H637 H 0.62016 0.23503 0.2207 0.0
S638 S 0.63071 0.11822 0.32906 0.0
N639 N 0.65112 0.10963 0.28799 0.0
N640 N 0.6121 0.1597 0.32481 0.0
C641 C 0.62185 0.16815 0.28851 0.0
C642 C 0.6429 0.14094 0.26846 0.0
C643 C 0.31312 0.6261 0.73256 0.0
C644 C 0.32029 0.6129 0.76925 0.0
C645 C 0.33949 0.64756 0.71273 0.0
C646 C 0.37418 0.65606 0.72864 0.0
H647 H 0.28588 0.62255 0.72044 0.0
H648 H 0.33183 0.65931 0.68563 0.0
S649 S 0.40762 0.62414 0.82235 0.0
N650 N 0.36524 0.60719 0.81953 0.0
N651 N 0.41521 0.64634 0.78206 0.0
C652 C 0.38269 0.64024 0.76402 0.0
C653 C 0.35559 0.61904 0.78441 0.0
C654 C 0.90239 0.35087 0.28699 0.0
C655 C 0.9133 0.31603 0.27306 0.0
C656 C 0.88478 0.37702 0.26373 0.0
C657 C 0.87641 0.36897 0.22578 0.0
H658 H 0.90571 0.35721 0.31675 0.0
H659 H 0.8751 0.40248 0.27646 0.0
S660 S 0.9025 0.28313 0.17455 0.0
N661 N 0.91761 0.27627 0.21804 0.0
N662 N 0.88375 0.32478 0.1744 0.0
C663 C 0.88941 0.33515 0.21085 0.0
C664 C 0.90803 0.30885 0.23444 0.0
C665 C 0.21269 0.90959 0.73754 0.0
C666 C 0.20582 0.91619 0.77615 0.0
C667 C 0.1863 0.89142 0.71506 0.0
C668 C 0.15184 0.87962 0.7302 0.0
H669 H 0.23969 0.91571 0.7254 0.0
H670 H 0.19388 0.88463 0.68614 0.0
S671 S 0.11876 0.89534 0.82866 0.0
N672 N 0.16095 0.91302 0.82767 0.0
N673 N 0.11114 0.87989 0.78546 0.0
C674 C 0.14352 0.88918 0.76792 0.0
C675 C 0.1706 0.9071 0.79089 0.0
C676 C 0.62054 0.35191 0.73017 0.0
C677 C 0.60748 0.3181 0.74512 0.0
C678 C 0.63752 0.37847 0.75324 0.0
C679 C 0.64304 0.37181 0.79208 0.0
H680 H 0.61943 0.35705 0.69994 0.0
H681 H 0.64908 0.40296 0.7399 0.0
S682 S 0.60999 0.28958 0.84592 0.0
N683 N 0.59766 0.28119 0.80183 0.0
N684 N 0.63044 0.33045 0.84517 0.0
C685 C 0.62771 0.33925 0.80785 0.0
C686 C 0.60971 0.31256 0.7844 0.0
C687 C 0.21282 0.61057 0.28454 0.0
C688 C 0.20572 0.60356 0.24618 0.0
C689 C 0.18645 0.62869 0.30754 0.0
C690 C 0.15178 0.64002 0.2932 0.0
H691 H 0.23996 0.60482 0.29602 0.0
H692 H 0.19418 0.63582 0.33619 0.0
S693 S 0.11811 0.62312 0.19576 0.0
N694 N 0.16045 0.60583 0.19582 0.0
N695 N 0.11069 0.63889 0.239 0.0
C696 C 0.14326 0.63005 0.25578 0.0
C697 C 0.17031 0.61218 0.23229 0.0
C698 C 0.90379 0.16871 0.73742 0.0
C699 C 0.91094 0.20399 0.75239 0.0
C700 C 0.88322 0.14226 0.75798 0.0
C701 C 0.86796 0.15059 0.79379 0.0
H702 H 0.91215 0.16236 0.70862 0.0
H703 H 0.87662 0.11635 0.74431 0.0
S704 S 0.88166 0.2379 0.84688 0.0
N705 N 0.90412 0.24466 0.80646 0.0
N706 N 0.86458 0.19559 0.84476 0.0
C707 C 0.87707 0.18493 0.81006 0.0
C708 C 0.89875 0.21148 0.78943 0.0
C709 C 0.3537 0.90073 0.23836 0.0
C710 C 0.31809 0.90647 0.25383 0.0
C711 C 0.38055 0.88011 0.25786 0.0
C712 C 0.37233 0.86338 0.29304 0.0
H713 H 0.36006 0.91027 0.20991 0.0
H714 H 0.40678 0.87471 0.24379 0.0
S715 S 0.28419 0.87302 0.34718 0.0
N716 N 0.27716 0.89668 0.30778 0.0
N717 N 0.32699 0.85709 0.34408 0.0
C718 C 0.3376 0.87103 0.30987 0.0
C719 C 0.31062 0.89274 0.29034 0.0
C720 C 0.40965 0.81265 0.8058 0.0
C721 C 0.42808 0.82258 0.77207 0.0
C722 C 0.3877 0.83837 0.82565 0.0
C723 C 0.38304 0.87501 0.81236 0.0
H724 H 0.40875 0.78392 0.81457 0.0
H725 H 0.37188 0.82847 0.84986 0.0
S726 S 0.43172 0.91605 0.72914 0.0
N727 N 0.44497 0.87239 0.72933 0.0
N728 N 0.40419 0.92078 0.7664 0.0
C729 C 0.40501 0.88614 0.78116 0.0
C730 C 0.4274 0.85992 0.76111 0.0
C731 C 0.70826 0.40878 0.28274 0.0
C732 C 0.70287 0.41429 0.24378 0.0
C733 C 0.68153 0.39024 0.30501 0.0
C734 C 0.64824 0.37704 0.28923 0.0
H735 H 0.73455 0.41586 0.29539 0.0
H736 H 0.68809 0.38413 0.33426 0.0
S737 S 0.61864 0.39049 0.1897 0.0
N738 N 0.66031 0.40926 0.19125 0.0
N739 N 0.60968 0.37548 0.23306 0.0
C740 C 0.64109 0.38588 0.25112 0.0
C741 C 0.66857 0.40413 0.22839 0.0
C742 C 0.12443 0.67258 0.73001 0.0
C743 C 0.11134 0.70569 0.74619 0.0
C744 C 0.14159 0.64524 0.75213 0.0
C745 C 0.14728 0.65047 0.79113 0.0
H746 H 0.12326 0.6687 0.69963 0.0
H747 H 0.15321 0.62136 0.73793 0.0
S748 S 0.11453 0.73051 0.84783 0.0
N749 N 0.10184 0.74045 0.80412 0.0
N750 N 0.13495 0.68971 0.84562 0.0
C751 C 0.13192 0.68228 0.80807 0.0
C752 C 0.11374 0.70974 0.78562 0.0
C753 C 0.88605 0.12278 0.28211 0.0
C754 C 0.8744 0.14145 0.31506 0.0
C755 C 0.86122 0.10115 0.26123 0.0
C756 C 0.82401 0.09683 0.27275 0.0
H757 H 0.91343 0.12763 0.27031 0.0
H758 H 0.87018 0.09091 0.23383 0.0
S759 S 0.78158 0.13309 0.36089 0.0
N760 N 0.82456 0.14876 0.36151 0.0
N761 N 0.77824 0.10829 0.32188 0.0
C762 C 0.81329 0.11145 0.30788 0.0
C763 C 0.8384 0.13375 0.32912 0.0
C764 C 0.40701 0.70862 0.21211 0.0
C765 C 0.42717 0.69824 0.24425 0.0
C766 C 0.38516 0.6828 0.19268 0.0
C767 C 0.38236 0.64558 0.20483 0.0
H768 H 0.40475 0.73758 0.20449 0.0
H769 H 0.36798 0.69297 0.1699 0.0
S770 S 0.43649 0.60341 0.2828 0.0
N771 N 0.44785 0.64761 0.28377 0.0
N772 N 0.40752 0.59894 0.24718 0.0
C773 C 0.40614 0.63418 0.23406 0.0
C774 C 0.42833 0.66055 0.25377 0.0
C775 C 0.81285 0.4081 0.7357 0.0
C776 C 0.81733 0.41266 0.7749 0.0
C777 C 0.83968 0.38938 0.71385 0.0
C778 C 0.87223 0.37517 0.73032 0.0
H779 H 0.78715 0.41625 0.72243 0.0
H780 H 0.83389 0.38415 0.68429 0.0
S781 S 0.89887 0.38446 0.83118 0.0
N782 N 0.858 0.40475 0.82866 0.0
N783 N 0.90868 0.37046 0.78778 0.0
C784 C 0.87834 0.38255 0.76889 0.0
C785 C 0.85078 0.401 0.79114 0.0
C786 C 0.12181 0.84676 0.29269 0.0
C787 C 0.10961 0.8132 0.27703 0.0
C788 C 0.13917 0.87393 0.27022 0.0
C789 C 0.14597 0.86807 0.23139 0.0
H790 H 0.11989 0.85112 0.323 0.0
H791 H 0.15014 0.89821 0.28408 0.0
S792 S 0.11569 0.78658 0.17593 0.0
N793 N 0.10201 0.77725 0.21972 0.0
N794 N 0.13552 0.82772 0.17753 0.0
C795 C 0.13142 0.83577 0.2149 0.0
C796 C 0.11302 0.80847 0.23771 0.0
C797 C 0.70863 0.11405 0.71635 0.0
C798 C 0.69901 0.09782 0.75126 0.0
C799 C 0.68298 0.13566 0.69625 0.0
C800 C 0.64677 0.14204 0.71043 0.0
H801 H 0.73717 0.11346 0.70657 0.0
H802 H 0.69264 0.14982 0.67093 0.0
S803 S 0.6065 0.09989 0.79759 0.0
N804 N 0.64976 0.0851 0.79656 0.0
N805 N 0.60153 0.12541 0.7591 0.0
C806 C 0.63579 0.12241 0.74318 0.0
C807 C 0.66193 0.1004 0.76349 0.0
C808 C 0.81507 0.26815 0.10197 0.0
C809 C 0.78706 0.29423 0.09533 0.0
C810 C 0.8063 0.23086 0.10727 0.0
C811 C 0.76939 0.21852 0.10546 0.0
H812 H 0.84328 0.27695 0.107 0.0
H813 H 0.82819 0.21212 0.11564 0.0
S814 S 0.68788 0.27467 0.07809 0.0
N815 N 0.72251 0.30448 0.07949 0.0
N816 N 0.70594 0.23404 0.08873 0.0
C817 C 0.74205 0.24349 0.09343 0.0
C818 C 0.75095 0.28157 0.08852 0.0
C819 C 0.29366 0.81057 0.60936 0.0
C820 C 0.30541 0.77371 0.60522 0.0
C821 C 0.25646 0.82015 0.60499 0.0
C822 C 0.22993 0.79301 0.59681 0.0
H823 H 0.31274 0.8316 0.61902 0.0
H824 H 0.24804 0.84805 0.61208 0.0
S825 S 0.24807 0.69507 0.57268 0.0
N826 N 0.28901 0.71181 0.58424 0.0
N827 N 0.21872 0.72987 0.57669 0.0
C828 C 0.24208 0.7573 0.58745 0.0
C829 C 0.28006 0.74759 0.59148 0.0
C830 C 0.78125 0.24553 0.92195 0.0
C831 C 0.75375 0.21852 0.9174 0.0
C832 C 0.77165 0.2828 0.9253 0.0
C833 C 0.7343 0.29402 0.92443 0.0
H834 H 0.8103 0.23842 0.91915 0.0
H835 H 0.7937 0.30313 0.9252 0.0
S836 S 0.65225 0.23219 0.92477 0.0
N837 N 0.68807 0.20408 0.92062 0.0
N838 N 0.6698 0.27426 0.9275 0.0
C839 C 0.70664 0.26665 0.92563 0.0
C840 C 0.71646 0.22874 0.92179 0.0
C841 C 0.28 0.77383 0.42303 0.0
C842 C 0.30619 0.74639 0.41434 0.0
C843 C 0.24255 0.7648 0.42741 0.0
C844 C 0.23032 0.72807 0.42358 0.0
H845 H 0.28775 0.80277 0.42282 0.0
H846 H 0.22272 0.78709 0.43051 0.0
S847 S 0.28981 0.64527 0.41171 0.0
N848 N 0.31885 0.68053 0.41007 0.0
N849 N 0.24834 0.6634 0.4186 0.0
C850 C 0.25698 0.69992 0.4204 0.0
C851 C 0.29507 0.70917 0.41558 0.0
C852 C 0.21882 0.75245 0.92812 0.0
C853 C 0.24412 0.72301 0.92848 0.0
C854 C 0.23127 0.78901 0.92981 0.0
C855 C 0.26936 0.79719 0.93206 0.0
H856 H 0.18972 0.74755 0.92278 0.0
H857 H 0.21118 0.81093 0.92608 0.0
S858 S 0.3451 0.72926 0.94563 0.0
N859 N 0.30758 0.70382 0.93993 0.0
N860 N 0.33113 0.77267 0.94329 0.0
C861 C 0.29418 0.76787 0.93812 0.0
C862 C 0.28148 0.73063 0.93619 0.0
C863 C 0.76862 0.22941 0.43392 0.0
C864 C 0.79811 0.25471 0.43447 0.0
C865 C 0.73207 0.24178 0.43092 0.0
C866 C 0.7239 0.2798 0.42867 0.0
H867 H 0.77386 0.19999 0.43192 0.0
H868 H 0.71044 0.22136 0.42724 0.0
S869 S 0.79077 0.35672 0.44051 0.0
N870 N 0.81649 0.319 0.44106 0.0
N871 N 0.74762 0.34241 0.43569 0.0
C872 C 0.75269 0.3052 0.43484 0.0
C873 C 0.78995 0.29256 0.43763 0.0
C874 C 0.29428 0.75079 0.08736 0.0
C875 C 0.26871 0.72151 0.08817 0.0
C876 C 0.28226 0.7874 0.0905 0.0
C877 C 0.24433 0.79584 0.09419 0.0
H878 H 0.32379 0.74539 0.08808 0.0
H879 H 0.30297 0.80892 0.09308 0.0
S880 S 0.16632 0.72952 0.08669 0.0
N881 N 0.2039 0.70358 0.08464 0.0
N882 N 0.18118 0.77253 0.09034 0.0
C883 C 0.21845 0.76721 0.08951 0.0
C884 C 0.23072 0.72989 0.08657 0.0
C885 C 0.73324 0.28956 0.58859 0.0
C886 C 0.72471 0.25157 0.58786 0.0
C887 C 0.76994 0.30172 0.59079 0.0
C888 C 0.79918 0.27622 0.59255 0.0
H889 H 0.71135 0.30995 0.59073 0.0
H890 H 0.77498 0.33096 0.5948 0.0
S891 S 0.79233 0.17472 0.58002 0.0
N892 N 0.74895 0.18919 0.58037 0.0
N893 N 0.81805 0.21217 0.58468 0.0
C894 C 0.79138 0.23865 0.58637 0.0
C895 C 0.754 0.22625 0.58388 0.0
C896 C 0.76485 0.08044 0.99178 0.0
C897 C 0.7648 0.04759 0.97073 0.0
C898 C 0.76029 0.08047 0.03078 0.0
C899 C 0.76059 0.04768 0.05219 0.0
H900 H 0.7679 0.10704 0.97806 0.0
H901 H 0.75687 0.10708 0.04416 0.0
S902 S 0.76344 0.95306 0.01194 0.0
N903 N 0.76389 0.98041 0.97428 0.0
N904 N 0.76256 0.9805 0.04931 0.0
C905 C 0.7623 0.01407 0.03208 0.0
C906 C 0.76363 0.01402 0.99118 0.0
C907 C 0.50565 0.76133 0.48802 0.0
C908 C 0.47268 0.7649 0.46715 0.0
C909 C 0.50479 0.75935 0.5282 0.0
C910 C 0.47085 0.75938 0.54845 0.0
H911 H 0.53202 0.75955 0.47329 0.0
H912 H 0.53067 0.75782 0.54337 0.0
S913 S 0.37697 0.76706 0.50651 0.0
N914 N 0.40584 0.7726 0.47055 0.0
N915 N 0.4036 0.75887 0.5432 0.0
C916 C 0.43798 0.76137 0.5273 0.0
C917 C 0.43908 0.76701 0.4875 0.0
C918 C 0.79876 0.49812 0.0176 0.0
C919 C 0.77255 0.49709 0.04727 0.0
C920 C 0.78753 0.4986 0.97953 0.0
C921 C 0.74972 0.4975 0.97001 0.0
H922 H 0.82788 0.49435 0.0237 0.0
H923 H 0.80841 0.49515 0.95759 0.0
S924 S 0.6706 0.50062 0.03727 0.0
N925 N 0.7075 0.50048 0.06463 0.0
N926 N 0.68642 0.50039 0.99321 0.0
C927 C 0.72351 0.50086 0.99936 0.0
C928 C 0.73494 0.5009 0.03805 0.0
C929 C 0.02477 0.78418 0.48371 0.0
C930 C 0.02747 0.74632 0.47498 0.0
C931 C 0.02477 0.79637 0.52153 0.0
C932 C 0.02697 0.77106 0.55173 0.0
H933 H 0.02717 0.80458 0.46128 0.0
H934 H 0.02722 0.82572 0.52694 0.0
S935 S 0.02828 0.66904 0.54392 0.0
N936 N 0.02765 0.68369 0.49954 0.0
N937 N 0.02675 0.70652 0.5705 0.0
C938 C 0.02498 0.73317 0.54336 0.0
C939 C 0.02547 0.72079 0.50493 0.0
C940 C 0.22282 1.00182 0.03032 0.0
C941 C 0.25105 0.99902 0.05731 0.0
C942 C 0.23129 1.00248 0.99137 0.0
C943 C 0.26819 0.99992 0.97837 0.0
H944 H 0.19411 0.99909 0.03909 0.0
H945 H 0.20876 1.00035 0.97142 0.0
S946 S 0.352 0.99882 0.03787 0.0
N947 N 0.31722 0.99962 0.06861 0.0
N948 N 0.33306 1.0 0.99545 0.0
C949 C 0.2966 1.00183 1.0051 0.0
C950 C 0.288 1.0016 0.04469 0.0
C951 C 0.51852 0.22654 0.51809 0.0
C952 C 0.5195 0.25486 0.5452 0.0
C953 C 0.51866 0.23487 0.47915 0.0
C954 C 0.52019 0.27173 0.4663 0.0
H955 H 0.52209 0.19804 0.52684 0.0
H956 H 0.52235 0.21246 0.45919 0.0
S957 S 0.51636 0.35545 0.52603 0.0
N958 N 0.51604 0.32081 0.55666 0.0
N959 N 0.51709 0.33643 0.48355 0.0
C960 C 0.51641 0.30002 0.49309 0.0
C961 C 0.51586 0.29155 0.53265 0.0
C962 C 0.29627 0.51765 0.01588 0.0
C963 C 0.26779 0.51814 0.04326 0.0
C964 C 0.28803 0.51801 0.97703 0.0
C965 C 0.2511 0.51927 0.96456 0.0
H966 H 0.32478 0.52144 0.02441 0.0
H967 H 0.31052 0.52209 0.9569 0.0
S968 S 0.16705 0.51389 0.02503 0.0
N969 N 0.20169 0.51372 0.05532 0.0
N970 N 0.18624 0.51524 0.98238 0.0
C971 C 0.22271 0.51491 0.99155 0.0
C972 C 0.23108 0.51413 0.03101 0.0
C973 C 1.005 0.2289 0.5019 0.0
C974 C 1.0032 0.25748 0.47494 0.0
C975 C 1.00472 0.23681 0.54086 0.0
C976 C 1.00227 0.27349 0.55385 0.0
H977 H 1.00207 0.20041 0.49305 0.0
H978 H 1.00164 0.2141 0.56074 0.0
S979 S 1.00417 0.35793 0.49449 0.0
N980 N 1.00523 0.32363 0.46372 0.0
N981 N 1.00391 0.33843 0.53689 0.0
C982 C 1.00542 0.30216 0.5272 0.0
C983 C 1.00611 0.29413 0.48762 0.0
loop_
_geom_bond_atom_site_label_1
_geom_bond_atom_site_label_2
_geom_bond_distance
_geom_bond_site_symmetry_2
_ccdc_geom_bond_type
Co0 O3 1.970 . S
Co0 N17 1.989 . S
Co0 O25 1.967 . S
Co0 O32 1.920 . S
Co1 O4 1.966 . S
Co1 N10 2.022 1_545 S
Co1 N18 1.993 . S
Co1 O26 1.941 . S
C2 O3 1.258 . S
C2 O4 1.263 . S
O3 Co0 1.970 . S
O3 C2 1.258 . S
O4 Co1 1.966 . S
O4 C2 1.263 . S
C5 O6 1.235 . S
C5 O32 1.289 . S
O6 C5 1.235 . S
C7 C9 1.400 . S
C7 N10 1.351 . S
C7 C12 1.501 1_565 S
C8 C9 1.387 . S
C8 N11 1.341 . S
C9 C7 1.400 . S
C9 C8 1.387 . S
N10 Co1 2.022 1_565 S
N10 C7 1.351 . S
N10 N11 1.365 . S
N11 C8 1.341 . S
N11 N10 1.365 . S
N11 H31 0.862 . S
C12 C7 1.501 1_545 S
C12 H13 0.961 . S
C12 H14 0.961 . S
C12 H15 0.962 . S
H13 C12 0.961 . S
H14 C12 0.961 . S
H15 C12 0.962 . S
C16 N17 1.342 . S
C16 C20 1.401 . S
C16 C21 1.499 . S
N17 Co0 1.989 . S
N17 C16 1.342 . S
N17 N18 1.388 . S
N18 Co1 1.993 . S
N18 N17 1.388 . S
N18 C19 1.346 . S
C19 N18 1.346 . S
C19 C20 1.396 . S
C19 C29 1.510 1_545 S
C20 C16 1.401 . S
C20 C19 1.396 . S
C21 C16 1.499 . S
C21 H22 0.959 . S
C21 H23 0.960 . S
C21 H24 0.961 . S
H22 C21 0.959 . S
H23 C21 0.960 . S
H24 C21 0.961 . S
O25 Co0 1.967 . S
O25 C33 1.258 . S
O26 Co1 1.941 . S
O26 C33 1.266 . S
H27 C29 0.959 . S
H28 C29 0.961 . S
C29 C19 1.510 1_565 S
C29 H27 0.959 . S
C29 H28 0.961 . S
C29 H30 0.960 . S
H30 C29 0.960 . S
H31 N11 0.862 . S
O32 Co0 1.920 . S
O32 C5 1.289 . S
C33 O25 1.258 . S
C33 O26 1.266 . S
Co34 O37 1.970 . S
Co34 N51 1.989 . S
Co34 O59 1.967 . S
Co34 O66 1.920 . S
Co35 O38 1.966 . S
Co35 N44 2.022 . S
Co35 N52 1.993 . S
Co35 O60 1.941 . S
C36 O37 1.258 . S
C36 O38 1.263 . S
O37 Co34 1.970 . S
O37 C36 1.258 . S
O38 Co35 1.966 . S
O38 C36 1.263 . S
C39 O40 1.235 . S
C39 O66 1.289 . S
O40 C39 1.235 . S
C41 C43 1.400 . S
C41 N44 1.351 . S
C41 C46 1.501 . S
C42 C43 1.387 . S
C42 N45 1.341 . S
C43 C41 1.400 . S
C43 C42 1.387 . S
N44 Co35 2.022 . S
N44 C41 1.351 . S
N44 N45 1.365 . S
N45 C42 1.341 . S
N45 N44 1.365 . S
N45 H65 0.862 . S
C46 C41 1.501 . S
C46 H47 0.961 . S
C46 H48 0.961 . S
C46 H49 0.960 . S
H47 C46 0.961 . S
H48 C46 0.961 . S
H49 C46 0.960 . S
C50 N51 1.342 . S
C50 C54 1.401 . S
C50 C55 1.499 . S
N51 Co34 1.989 . S
N51 C50 1.342 . S
N51 N52 1.388 . S
N52 Co35 1.993 . S
N52 N51 1.388 . S
N52 C53 1.346 . S
C53 N52 1.346 . S
C53 C54 1.396 . S
C53 C63 1.510 . S
C54 C50 1.401 . S
C54 C53 1.396 . S
C55 C50 1.499 . S
C55 H56 0.959 . S
C55 H57 0.960 . S
C55 H58 0.961 . S
H56 C55 0.959 . S
H57 C55 0.960 . S
H58 C55 0.961 . S
O59 Co34 1.967 . S
O59 C67 1.258 . S
O60 Co35 1.941 . S
O60 C67 1.266 . S
H61 C63 0.959 . S
H62 C63 0.961 . S
C63 C53 1.510 . S
C63 H61 0.959 . S
C63 H62 0.961 . S
C63 H64 0.960 . S
H64 C63 0.960 . S
H65 N45 0.862 . S
O66 Co34 1.920 . S
O66 C39 1.289 . S
C67 O59 1.258 . S
C67 O60 1.266 . S
Co68 O71 1.970 . S
Co68 N85 1.989 . S
Co68 O93 1.967 . S
Co68 O100 1.920 . S
Co69 O72 1.966 . S
Co69 N78 2.022 . S
Co69 N86 1.993 . S
Co69 O94 1.941 . S
C70 O71 1.258 . S
C70 O72 1.263 . S
O71 Co68 1.970 . S
O71 C70 1.258 . S
O72 Co69 1.966 . S
O72 C70 1.263 . S
C73 O74 1.235 . S
C73 O100 1.289 . S
O74 C73 1.235 . S
C75 C77 1.400 . S
C75 N78 1.351 . S
C75 C80 1.501 . S
C76 C77 1.387 . S
C76 N79 1.341 . S
C77 C75 1.400 . S
C77 C76 1.387 . S
N78 Co69 2.022 . S
N78 C75 1.351 . S
N78 N79 1.365 . S
N79 C76 1.341 . S
N79 N78 1.365 . S
N79 H99 0.862 . S
C80 C75 1.501 . S
C80 H81 0.961 . S
C80 H82 0.961 . S
C80 H83 0.960 . S
H81 C80 0.961 . S
H82 C80 0.961 . S
H83 C80 0.960 . S
C84 N85 1.342 . S
C84 C88 1.401 . S
C84 C89 1.499 . S
N85 Co68 1.989 . S
N85 C84 1.342 . S
N85 N86 1.388 . S
N86 Co69 1.993 . S
N86 N85 1.388 . S
N86 C87 1.346 . S
C87 N86 1.346 . S
C87 C88 1.396 . S
C87 C97 1.510 . S
C88 C84 1.401 . S
C88 C87 1.396 . S
C89 C84 1.499 . S
C89 H90 0.959 . S
C89 H91 0.960 . S
C89 H92 0.961 . S
H90 C89 0.959 . S
H91 C89 0.960 . S
H92 C89 0.961 . S
O93 Co68 1.967 . S
O93 C101 1.258 . S
O94 Co69 1.941 . S
O94 C101 1.266 . S
H95 C97 0.959 . S
H96 C97 0.961 . S
C97 C87 1.510 . S
C97 H95 0.959 . S
C97 H96 0.961 . S
C97 H98 0.960 . S
H98 C97 0.960 . S
H99 N79 0.862 . S
O100 Co68 1.920 . S
O100 C73 1.289 . S
C101 O93 1.258 . S
C101 O94 1.266 . S
Co102 O105 1.970 . S
Co102 N119 1.989 . S
Co102 O127 1.967 . S
Co102 O134 1.920 . S
Co103 O106 1.966 . S
Co103 N112 2.022 1_455 S
Co103 N120 1.993 . S
Co103 O128 1.941 . S
C104 O105 1.258 . S
C104 O106 1.263 . S
O105 Co102 1.970 . S
O105 C104 1.258 . S
O106 Co103 1.966 . S
O106 C104 1.263 . S
C107 O108 1.235 . S
C107 O134 1.289 . S
O108 C107 1.235 . S
C109 C111 1.400 . S
C109 N112 1.351 . S
C109 C114 1.501 1_655 S
C110 C111 1.387 . S
C110 N113 1.341 . S
C111 C109 1.400 . S
C111 C110 1.387 . S
N112 Co103 2.022 1_655 S
N112 C109 1.351 . S
N112 N113 1.365 . S
N113 C110 1.341 . S
N113 N112 1.365 . S
N113 H133 0.862 . S
C114 C109 1.501 1_455 S
C114 H115 0.961 . S
C114 H116 0.961 . S
C114 H117 0.962 . S
H115 C114 0.961 . S
H116 C114 0.961 . S
H117 C114 0.962 . S
C118 N119 1.342 . S
C118 C122 1.401 . S
C118 C123 1.499 . S
N119 Co102 1.989 . S
N119 C118 1.342 . S
N119 N120 1.388 . S
N120 Co103 1.993 . S
N120 N119 1.388 . S
N120 C121 1.346 . S
C121 N120 1.346 . S
C121 C122 1.396 . S
C121 C131 1.510 1_455 S
C122 C118 1.401 . S
C122 C121 1.396 . S
C123 C118 1.499 . S
C123 H124 0.959 . S
C123 H125 0.960 . S
C123 H126 0.961 . S
H124 C123 0.959 . S
H125 C123 0.960 . S
H126 C123 0.961 . S
O127 Co102 1.967 . S
O127 C135 1.258 . S
O128 Co103 1.941 . S
O128 C135 1.266 . S
H129 C131 0.959 . S
H130 C131 0.961 . S
C131 C121 1.510 1_655 S
C131 H129 0.959 . S
C131 H130 0.961 . S
C131 H132 0.960 . S
H132 C131 0.960 . S
H133 N113 0.862 . S
O134 Co102 1.920 . S
O134 C107 1.289 . S
C135 O127 1.258 . S
C135 O128 1.266 . S
Co136 O139 1.970 . S
Co136 N153 1.989 . S
Co136 O161 1.967 . S
Co136 O168 1.920 . S
Co137 O140 1.966 . S
Co137 N146 2.022 . S
Co137 N154 1.993 . S
Co137 O162 1.941 . S
C138 O139 1.258 . S
C138 O140 1.263 . S
O139 Co136 1.970 . S
O139 C138 1.258 . S
O140 Co137 1.966 . S
O140 C138 1.263 . S
C141 O142 1.235 . S
C141 O168 1.289 . S
O142 C141 1.235 . S
C143 C145 1.400 . S
C143 N146 1.351 . S
C143 C148 1.501 . S
C144 C145 1.387 . S
C144 N147 1.341 . S
C145 C143 1.400 . S
C145 C144 1.387 . S
N146 Co137 2.022 . S
N146 C143 1.351 . S
N146 N147 1.365 . S
N147 C144 1.341 . S
N147 N146 1.365 . S
N147 H167 0.862 . S
C148 C143 1.501 . S
C148 H149 0.961 . S
C148 H150 0.961 . S
C148 H151 0.960 . S
H149 C148 0.961 . S
H150 C148 0.961 . S
H151 C148 0.960 . S
C152 N153 1.342 . S
C152 C156 1.401 . S
C152 C157 1.499 . S
N153 Co136 1.989 . S
N153 C152 1.342 . S
N153 N154 1.388 . S
N154 Co137 1.993 . S
N154 N153 1.388 . S
N154 C155 1.346 . S
C155 N154 1.346 . S
C155 C156 1.396 . S
C155 C165 1.510 . S
C156 C152 1.401 . S
C156 C155 1.396 . S
C157 C152 1.499 . S
C157 H158 0.959 . S
C157 H159 0.960 . S
C157 H160 0.961 . S
H158 C157 0.959 . S
H159 C157 0.960 . S
H160 C157 0.961 . S
O161 Co136 1.967 . S
O161 C169 1.258 . S
O162 Co137 1.941 . S
O162 C169 1.266 . S
H163 C165 0.959 . S
H164 C165 0.961 . S
C165 C155 1.510 . S
C165 H163 0.959 . S
C165 H164 0.961 . S
C165 H166 0.960 . S
H166 C165 0.960 . S
H167 N147 0.862 . S
O168 Co136 1.920 . S
O168 C141 1.289 . S
C169 O161 1.258 . S
C169 O162 1.266 . S
Co170 O173 1.970 . S
Co170 N187 1.989 . S
Co170 O195 1.967 . S
Co170 O202 1.920 . S
Co171 O174 1.966 . S
Co171 N180 2.022 1_455 S
Co171 N188 1.993 . S
Co171 O196 1.941 . S
C172 O173 1.258 . S
C172 O174 1.263 . S
O173 Co170 1.970 . S
O173 C172 1.258 . S
O174 Co171 1.966 . S
O174 C172 1.263 . S
C175 O176 1.235 . S
C175 O202 1.289 . S
O176 C175 1.235 . S
C177 C179 1.400 . S
C177 N180 1.351 . S
C177 C182 1.501 1_655 S
C178 C179 1.387 . S
C178 N181 1.341 . S
C179 C177 1.400 . S
C179 C178 1.387 . S
N180 Co171 2.022 1_655 S
N180 C177 1.351 . S
N180 N181 1.365 . S
N181 C178 1.341 . S
N181 N180 1.365 . S
N181 H201 0.862 . S
C182 C177 1.501 1_455 S
C182 H183 0.961 . S
C182 H184 0.961 . S
C182 H185 0.962 . S
H183 C182 0.961 . S
H184 C182 0.961 . S
H185 C182 0.962 . S
C186 N187 1.342 . S
C186 C190 1.401 . S
C186 C191 1.499 . S
N187 Co170 1.989 . S
N187 C186 1.342 . S
N187 N188 1.388 . S
N188 Co171 1.993 . S
N188 N187 1.388 . S
N188 C189 1.346 . S
C189 N188 1.346 . S
C189 C190 1.396 . S
C189 C199 1.510 1_455 S
C190 C186 1.401 . S
C190 C189 1.396 . S
C191 C186 1.499 . S
C191 H192 0.959 . S
C191 H193 0.960 . S
C191 H194 0.961 . S
H192 C191 0.959 . S
H193 C191 0.960 . S
H194 C191 0.961 . S
O195 Co170 1.967 . S
O195 C203 1.258 . S
O196 Co171 1.941 . S
O196 C203 1.266 . S
H197 C199 0.959 . S
H198 C199 0.961 . S
C199 C189 1.510 1_655 S
C199 H197 0.959 . S
C199 H198 0.961 . S
C199 H200 0.960 . S
H200 C199 0.960 . S
H201 N181 0.862 . S
O202 Co170 1.920 . S
O202 C175 1.289 . S
C203 O195 1.258 . S
C203 O196 1.266 . S
Co204 O207 1.970 . S
Co204 N221 1.989 . S
Co204 O229 1.967 . S
Co204 O236 1.920 . S
Co205 O208 1.966 . S
Co205 N214 2.022 1_545 S
Co205 N222 1.993 . S
Co205 O230 1.941 . S
C206 O207 1.258 . S
C206 O208 1.263 . S
O207 Co204 1.970 . S
O207 C206 1.258 . S
O208 Co205 1.966 . S
O208 C206 1.263 . S
C209 O210 1.235 . S
C209 O236 1.289 . S
O210 C209 1.235 . S
C211 C213 1.400 . S
C211 N214 1.351 . S
C211 C216 1.501 1_565 S
C212 C213 1.387 . S
C212 N215 1.341 . S
C213 C211 1.400 . S
C213 C212 1.387 . S
N214 Co205 2.022 1_565 S
N214 C211 1.351 . S
N214 N215 1.365 . S
N215 C212 1.341 . S
N215 N214 1.365 . S
N215 H235 0.862 . S
C216 C211 1.501 1_545 S
C216 H217 0.961 . S
C216 H218 0.961 . S
C216 H219 0.962 . S
H217 C216 0.961 . S
H218 C216 0.961 . S
H219 C216 0.962 . S
C220 N221 1.342 . S
C220 C224 1.401 . S
C220 C225 1.499 . S
N221 Co204 1.989 . S
N221 C220 1.342 . S
N221 N222 1.388 . S
N222 Co205 1.993 . S
N222 N221 1.388 . S
N222 C223 1.346 . S
C223 N222 1.346 . S
C223 C224 1.396 . S
C223 C233 1.510 1_545 S
C224 C220 1.401 . S
C224 C223 1.396 . S
C225 C220 1.499 . S
C225 H226 0.959 . S
C225 H227 0.960 . S
C225 H228 0.961 . S
H226 C225 0.959 . S
H227 C225 0.960 . S
H228 C225 0.961 . S
O229 Co204 1.967 . S
O229 C237 1.258 . S
O230 Co205 1.941 . S
O230 C237 1.266 . S
H231 C233 0.959 . S
H232 C233 0.961 . S
C233 C223 1.510 1_565 S
C233 H231 0.959 . S
C233 H232 0.961 . S
C233 H234 0.960 . S
H234 C233 0.960 . S
H235 N215 0.862 . S
O236 Co204 1.920 . S
O236 C209 1.289 . S
C237 O229 1.258 . S
C237 O230 1.266 . S
Co238 O241 1.970 . S
Co238 N255 1.989 . S
Co238 O263 1.967 . S
Co238 O270 1.920 . S
Co239 O242 1.966 . S
Co239 N248 2.022 . S
Co239 N256 1.993 . S
Co239 O264 1.941 . S
C240 O241 1.258 . S
C240 O242 1.263 . S
O241 Co238 1.970 . S
O241 C240 1.258 . S
O242 Co239 1.966 . S
O242 C240 1.263 . S
C243 O244 1.235 . S
C243 O270 1.289 . S
O244 C243 1.235 . S
C245 C247 1.400 . S
C245 N248 1.351 . S
C245 C250 1.501 . S
C246 C247 1.387 . S
C246 N249 1.341 . S
C247 C245 1.400 . S
C247 C246 1.387 . S
N248 Co239 2.022 . S
N248 C245 1.351 . S
N248 N249 1.365 . S
N249 C246 1.341 . S
N249 N248 1.365 . S
N249 H269 0.862 . S
C250 C245 1.501 . S
C250 H251 0.961 . S
C250 H252 0.961 . S
C250 H253 0.960 . S
H251 C250 0.961 . S
H252 C250 0.961 . S
H253 C250 0.960 . S
C254 N255 1.342 . S
C254 C258 1.401 . S
C254 C259 1.499 . S
N255 Co238 1.989 . S
N255 C254 1.342 . S
N255 N256 1.388 . S
N256 Co239 1.993 . S
N256 N255 1.388 . S
N256 C257 1.346 . S
C257 N256 1.346 . S
C257 C258 1.396 . S
C257 C267 1.510 . S
C258 C254 1.401 . S
C258 C257 1.396 . S
C259 C254 1.499 . S
C259 H260 0.959 . S
C259 H261 0.960 . S
C259 H262 0.961 . S
H260 C259 0.959 . S
H261 C259 0.960 . S
H262 C259 0.961 . S
O263 Co238 1.967 . S
O263 C271 1.258 . S
O264 Co239 1.941 . S
O264 C271 1.266 . S
H265 C267 0.959 . S
H266 C267 0.961 . S
C267 C257 1.510 . S
C267 H265 0.959 . S
C267 H266 0.961 . S
C267 H268 0.960 . S
H268 C267 0.960 . S
H269 N249 0.862 . S
O270 Co238 1.920 . S
O270 C243 1.289 . S
C271 O263 1.258 . S
C271 O264 1.266 . S
Co272 O275 1.970 . S
Co272 N289 1.989 . S
Co272 O297 1.967 . S
Co272 O304 1.920 . S
Co273 O276 1.966 . S
Co273 N282 2.022 1_565 S
Co273 N290 1.993 . S
Co273 O298 1.941 . S
C274 O275 1.258 . S
C274 O276 1.263 . S
O275 Co272 1.970 . S
O275 C274 1.258 . S
O276 Co273 1.966 . S
O276 C274 1.263 . S
C277 O278 1.235 . S
C277 O304 1.289 . S
O278 C277 1.235 . S
C279 C281 1.400 . S
C279 N282 1.351 . S
C279 C284 1.501 1_545 S
C280 C281 1.387 . S
C280 N283 1.341 . S
C281 C279 1.400 . S
C281 C280 1.387 . S
N282 Co273 2.022 1_545 S
N282 C279 1.351 . S
N282 N283 1.365 . S
N283 C280 1.341 . S
N283 N282 1.365 . S
N283 H303 0.862 . S
C284 C279 1.501 1_565 S
C284 H285 0.961 . S
C284 H286 0.961 . S
C284 H287 0.962 . S
H285 C284 0.961 . S
H286 C284 0.961 . S
H287 C284 0.962 . S
C288 N289 1.342 . S
C288 C292 1.401 . S
C288 C293 1.499 . S
N289 Co272 1.989 . S
N289 C288 1.342 . S
N289 N290 1.388 . S
N290 Co273 1.993 . S
N290 N289 1.388 . S
N290 C291 1.346 . S
C291 N290 1.346 . S
C291 C292 1.396 . S
C291 C301 1.510 1_565 S
C292 C288 1.401 . S
C292 C291 1.396 . S
C293 C288 1.499 . S
C293 H294 0.959 . S
C293 H295 0.960 . S
C293 H296 0.961 . S
H294 C293 0.959 . S
H295 C293 0.960 . S
H296 C293 0.961 . S
O297 Co272 1.967 . S
O297 C305 1.258 . S
O298 Co273 1.941 . S
O298 C305 1.266 . S
H299 C301 0.959 . S
H300 C301 0.961 . S
C301 C291 1.510 1_545 S
C301 H299 0.959 . S
C301 H300 0.961 . S
C301 H302 0.960 . S
H302 C301 0.960 . S
H303 N283 0.862 . S
O304 Co272 1.920 . S
O304 C277 1.289 . S
C305 O297 1.258 . S
C305 O298 1.266 . S
Co306 O309 1.970 . S
Co306 N323 1.989 . S
Co306 O331 1.967 . S
Co306 O338 1.920 . S
Co307 O310 1.966 . S
Co307 N316 2.022 . S
Co307 N324 1.993 . S
Co307 O332 1.941 . S
C308 O309 1.258 . S
C308 O310 1.263 . S
O309 Co306 1.970 . S
O309 C308 1.258 . S
O310 Co307 1.966 . S
O310 C308 1.263 . S
C311 O312 1.235 . S
C311 O338 1.289 . S
O312 C311 1.235 . S
C313 C315 1.400 . S
C313 N316 1.351 . S
C313 C318 1.501 . S
C314 C315 1.387 . S
C314 N317 1.341 . S
C315 C313 1.400 . S
C315 C314 1.387 . S
N316 Co307 2.022 . S
N316 C313 1.351 . S
N316 N317 1.365 . S
N317 C314 1.341 . S
N317 N316 1.365 . S
N317 H337 0.862 . S
C318 C313 1.501 . S
C318 H319 0.961 . S
C318 H320 0.961 . S
C318 H321 0.960 . S
H319 C318 0.961 . S
H320 C318 0.961 . S
H321 C318 0.960 . S
C322 N323 1.342 . S
C322 C326 1.401 . S
C322 C327 1.499 . S
N323 Co306 1.989 . S
N323 C322 1.342 . S
N323 N324 1.388 . S
N324 Co307 1.993 . S
N324 N323 1.388 . S
N324 C325 1.346 . S
C325 N324 1.346 . S
C325 C326 1.396 . S
C325 C335 1.510 . S
C326 C322 1.401 . S
C326 C325 1.396 . S
C327 C322 1.499 . S
C327 H328 0.959 . S
C327 H329 0.960 . S
C327 H330 0.961 . S
H328 C327 0.959 . S
H329 C327 0.960 . S
H330 C327 0.961 . S
O331 Co306 1.967 . S
O331 C339 1.258 . S
O332 Co307 1.941 . S
O332 C339 1.266 . S
H333 C335 0.959 . S
H334 C335 0.961 . S
C335 C325 1.510 . S
C335 H333 0.959 . S
C335 H334 0.961 . S
C335 H336 0.960 . S
H336 C335 0.960 . S
H337 N317 0.862 . S
O338 Co306 1.920 . S
O338 C311 1.289 . S
C339 O331 1.258 . S
C339 O332 1.266 . S
Co340 O343 1.970 . S
Co340 N357 1.989 . S
Co340 O365 1.967 . S
Co340 O372 1.920 . S
Co341 O344 1.966 . S
Co341 N350 2.022 . S
Co341 N358 1.993 . S
Co341 O366 1.941 . S
C342 O343 1.258 . S
C342 O344 1.263 . S
O343 Co340 1.970 . S
O343 C342 1.258 . S
O344 Co341 1.966 . S
O344 C342 1.263 . S
C345 O346 1.235 . S
C345 O372 1.289 . S
O346 C345 1.235 . S
C347 C349 1.400 . S
C347 N350 1.351 . S
C347 C352 1.501 . S
C348 C349 1.387 . S
C348 N351 1.341 . S
C349 C347 1.400 . S
C349 C348 1.387 . S
N350 Co341 2.022 . S
N350 C347 1.351 . S
N350 N351 1.365 . S
N351 C348 1.341 . S
N351 N350 1.365 . S
N351 H371 0.862 . S
C352 C347 1.501 . S
C352 H353 0.961 . S
C352 H354 0.961 . S
C352 H355 0.960 . S
H353 C352 0.961 . S
H354 C352 0.961 . S
H355 C352 0.960 . S
C356 N357 1.342 . S
C356 C360 1.401 . S
C356 C361 1.499 . S
N357 Co340 1.989 . S
N357 C356 1.342 . S
N357 N358 1.388 . S
N358 Co341 1.993 . S
N358 N357 1.388 . S
N358 C359 1.346 . S
C359 N358 1.346 . S
C359 C360 1.396 . S
C359 C369 1.510 . S
C360 C356 1.401 . S
C360 C359 1.396 . S
C361 C356 1.499 . S
C361 H362 0.959 . S
C361 H363 0.960 . S
C361 H364 0.961 . S
H362 C361 0.959 . S
H363 C361 0.960 . S
H364 C361 0.961 . S
O365 Co340 1.967 . S
O365 C373 1.258 . S
O366 Co341 1.941 . S
O366 C373 1.266 . S
H367 C369 0.959 . S
H368 C369 0.961 . S
C369 C359 1.510 . S
C369 H367 0.959 . S
C369 H368 0.961 . S
C369 H370 0.960 . S
H370 C369 0.960 . S
H371 N351 0.862 . S
O372 Co340 1.920 . S
O372 C345 1.289 . S
C373 O365 1.258 . S
C373 O366 1.266 . S
Co374 O377 1.970 . S
Co374 N391 1.989 . S
Co374 O399 1.967 . S
Co374 O406 1.920 . S
Co375 O378 1.966 . S
Co375 N384 2.022 1_655 S
Co375 N392 1.993 . S
Co375 O400 1.941 . S
C376 O377 1.258 . S
C376 O378 1.263 . S
O377 Co374 1.970 . S
O377 C376 1.258 . S
O378 Co375 1.966 . S
O378 C376 1.263 . S
C379 O380 1.235 . S
C379 O406 1.289 . S
O380 C379 1.235 . S
C381 C383 1.400 . S
C381 N384 1.351 . S
C381 C386 1.501 1_455 S
C382 C383 1.387 . S
C382 N385 1.341 . S
C383 C381 1.400 . S
C383 C382 1.387 . S
N384 Co375 2.022 1_455 S
N384 C381 1.351 . S
N384 N385 1.365 . S
N385 C382 1.341 . S
N385 N384 1.365 . S
N385 H405 0.862 . S
C386 C381 1.501 1_655 S
C386 H387 0.961 . S
C386 H388 0.961 . S
C386 H389 0.962 . S
H387 C386 0.961 . S
H388 C386 0.961 . S
H389 C386 0.962 . S
C390 N391 1.342 . S
C390 C394 1.401 . S
C390 C395 1.499 . S
N391 Co374 1.989 . S
N391 C390 1.342 . S
N391 N392 1.388 . S
N392 Co375 1.993 . S
N392 N391 1.388 . S
N392 C393 1.346 . S
C393 N392 1.346 . S
C393 C394 1.396 . S
C393 C403 1.510 1_655 S
C394 C390 1.401 . S
C394 C393 1.396 . S
C395 C390 1.499 . S
C395 H396 0.959 . S
C395 H397 0.960 . S
C395 H398 0.961 . S
H396 C395 0.959 . S
H397 C395 0.960 . S
H398 C395 0.961 . S
O399 Co374 1.967 . S
O399 C407 1.258 . S
O400 Co375 1.941 . S
O400 C407 1.266 . S
H401 C403 0.959 . S
H402 C403 0.961 . S
C403 C393 1.510 1_455 S
C403 H401 0.959 . S
C403 H402 0.961 . S
C403 H404 0.960 . S
H404 C403 0.960 . S
H405 N385 0.862 . S
O406 Co374 1.920 . S
O406 C379 1.289 . S
C407 O399 1.258 . S
C407 O400 1.266 . S
Co408 O411 1.970 . S
Co408 N425 1.989 . S
Co408 O433 1.967 . S
Co408 O440 1.920 . S
Co409 O412 1.966 . S
Co409 N418 2.022 . S
Co409 N426 1.993 . S
Co409 O434 1.941 . S
C410 O411 1.258 . S
C410 O412 1.263 . S
O411 Co408 1.970 . S
O411 C410 1.258 . S
O412 Co409 1.966 . S
O412 C410 1.263 . S
C413 O414 1.235 . S
C413 O440 1.289 . S
O414 C413 1.235 . S
C415 C417 1.400 . S
C415 N418 1.351 . S
C415 C420 1.501 . S
C416 C417 1.387 . S
C416 N419 1.341 . S
C417 C415 1.400 . S
C417 C416 1.387 . S
N418 Co409 2.022 . S
N418 C415 1.351 . S
N418 N419 1.365 . S
N419 C416 1.341 . S
N419 N418 1.365 . S
N419 H439 0.862 . S
C420 C415 1.501 . S
C420 H421 0.961 . S
C420 H422 0.961 . S
C420 H423 0.960 . S
H421 C420 0.961 . S
H422 C420 0.961 . S
H423 C420 0.960 . S
C424 N425 1.342 . S
C424 C428 1.401 . S
C424 C429 1.499 . S
N425 Co408 1.989 . S
N425 C424 1.342 . S
N425 N426 1.388 . S
N426 Co409 1.993 . S
N426 N425 1.388 . S
N426 C427 1.346 . S
C427 N426 1.346 . S
C427 C428 1.396 . S
C427 C437 1.510 . S
C428 C424 1.401 . S
C428 C427 1.396 . S
C429 C424 1.499 . S
C429 H430 0.959 . S
C429 H431 0.960 . S
C429 H432 0.961 . S
H430 C429 0.959 . S
H431 C429 0.960 . S
H432 C429 0.961 . S
O433 Co408 1.967 . S
O433 C441 1.258 . S
O434 Co409 1.941 . S
O434 C441 1.266 . S
H435 C437 0.959 . S
H436 C437 0.961 . S
C437 C427 1.510 . S
C437 H435 0.959 . S
C437 H436 0.961 . S
C437 H438 0.960 . S
H438 C437 0.960 . S
H439 N419 0.862 . S
O440 Co408 1.920 . S
O440 C413 1.289 . S
C441 O433 1.258 . S
C441 O434 1.266 . S
Co442 O445 1.970 . S
Co442 N459 1.989 . S
Co442 O467 1.967 . S
Co442 O474 1.920 . S
Co443 O446 1.966 . S
Co443 N452 2.022 1_655 S
Co443 N460 1.993 . S
Co443 O468 1.941 . S
C444 O445 1.258 . S
C444 O446 1.263 . S
O445 Co442 1.970 . S
O445 C444 1.258 . S
O446 Co443 1.966 . S
O446 C444 1.263 . S
C447 O448 1.235 . S
C447 O474 1.289 . S
O448 C447 1.235 . S
C449 C451 1.400 . S
C449 N452 1.351 . S
C449 C454 1.501 1_455 S
C450 C451 1.387 . S
C450 N453 1.341 . S
C451 C449 1.400 . S
C451 C450 1.387 . S
N452 Co443 2.022 1_455 S
N452 C449 1.351 . S
N452 N453 1.365 . S
N453 C450 1.341 . S
N453 N452 1.365 . S
N453 H473 0.862 . S
C454 C449 1.501 1_655 S
C454 H455 0.961 . S
C454 H456 0.961 . S
C454 H457 0.962 . S
H455 C454 0.961 . S
H456 C454 0.961 . S
H457 C454 0.962 . S
C458 N459 1.342 . S
C458 C462 1.401 . S
C458 C463 1.499 . S
N459 Co442 1.989 . S
N459 C458 1.342 . S
N459 N460 1.388 . S
N460 Co443 1.993 . S
N460 N459 1.388 . S
N460 C461 1.346 . S
C461 N460 1.346 . S
C461 C462 1.396 . S
C461 C471 1.510 1_655 S
C462 C458 1.401 . S
C462 C461 1.396 . S
C463 C458 1.499 . S
C463 H464 0.959 . S
C463 H465 0.960 . S
C463 H466 0.961 . S
H464 C463 0.959 . S
H465 C463 0.960 . S
H466 C463 0.961 . S
O467 Co442 1.967 . S
O467 C475 1.258 . S
O468 Co443 1.941 . S
O468 C475 1.266 . S
H469 C471 0.959 . S
H470 C471 0.961 . S
C471 C461 1.510 1_455 S
C471 H469 0.959 . S
C471 H470 0.961 . S
C471 H472 0.960 . S
H472 C471 0.960 . S
H473 N453 0.862 . S
O474 Co442 1.920 . S
O474 C447 1.289 . S
C475 O467 1.258 . S
C475 O468 1.266 . S
Co476 O479 1.970 . S
Co476 N493 1.989 . S
Co476 O501 1.967 . S
Co476 O508 1.920 . S
Co477 O480 1.966 . S
Co477 N486 2.022 1_565 S
Co477 N494 1.993 . S
Co477 O502 1.941 . S
C478 O479 1.258 . S
C478 O480 1.263 . S
O479 Co476 1.970 . S
O479 C478 1.258 . S
O480 Co477 1.966 . S
O480 C478 1.263 . S
C481 O482 1.235 . S
C481 O508 1.289 . S
O482 C481 1.235 . S
C483 C485 1.400 . S
C483 N486 1.351 . S
C483 C488 1.501 1_545 S
C484 C485 1.387 . S
C484 N487 1.341 . S
C485 C483 1.400 . S
C485 C484 1.387 . S
N486 Co477 2.022 1_545 S
N486 C483 1.351 . S
N486 N487 1.365 . S
N487 C484 1.341 . S
N487 N486 1.365 . S
N487 H507 0.862 . S
C488 C483 1.501 1_565 S
C488 H489 0.961 . S
C488 H490 0.961 . S
C488 H491 0.962 . S
H489 C488 0.961 . S
H490 C488 0.961 . S
H491 C488 0.962 . S
C492 N493 1.342 . S
C492 C496 1.401 . S
C492 C497 1.499 . S
N493 Co476 1.989 . S
N493 C492 1.342 . S
N493 N494 1.388 . S
N494 Co477 1.993 . S
N494 N493 1.388 . S
N494 C495 1.346 . S
C495 N494 1.346 . S
C495 C496 1.396 . S
C495 C505 1.510 1_565 S
C496 C492 1.401 . S
C496 C495 1.396 . S
C497 C492 1.499 . S
C497 H498 0.959 . S
C497 H499 0.960 . S
C497 H500 0.961 . S
H498 C497 0.959 . S
H499 C497 0.960 . S
H500 C497 0.961 . S
O501 Co476 1.967 . S
O501 C509 1.258 . S
O502 Co477 1.941 . S
O502 C509 1.266 . S
H503 C505 0.959 . S
H504 C505 0.961 . S
C505 C495 1.510 1_545 S
C505 H503 0.959 . S
C505 H504 0.961 . S
C505 H506 0.960 . S
H506 C505 0.960 . S
H507 N487 0.862 . S
O508 Co476 1.920 . S
O508 C481 1.289 . S
C509 O501 1.258 . S
C509 O502 1.266 . S
Co510 O513 1.970 . S
Co510 N527 1.989 . S
Co510 O535 1.967 . S
Co510 O542 1.920 . S
Co511 O514 1.966 . S
Co511 N520 2.022 . S
Co511 N528 1.993 . S
Co511 O536 1.941 . S
C512 O513 1.258 . S
C512 O514 1.263 . S
O513 Co510 1.970 . S
O513 C512 1.258 . S
O514 Co511 1.966 . S
O514 C512 1.263 . S
C515 O516 1.235 . S
C515 O542 1.289 . S
O516 C515 1.235 . S
C517 C519 1.400 . S
C517 N520 1.351 . S
C517 C522 1.501 . S
C518 C519 1.387 . S
C518 N521 1.341 . S
C519 C517 1.400 . S
C519 C518 1.387 . S
N520 Co511 2.022 . S
N520 C517 1.351 . S
N520 N521 1.365 . S
N521 C518 1.341 . S
N521 N520 1.365 . S
N521 H541 0.862 . S
C522 C517 1.501 . S
C522 H523 0.961 . S
C522 H524 0.961 . S
C522 H525 0.960 . S
H523 C522 0.961 . S
H524 C522 0.961 . S
H525 C522 0.960 . S
C526 N527 1.342 . S
C526 C530 1.401 . S
C526 C531 1.499 . S
N527 Co510 1.989 . S
N527 C526 1.342 . S
N527 N528 1.388 . S
N528 Co511 1.993 . S
N528 N527 1.388 . S
N528 C529 1.346 . S
C529 N528 1.346 . S
C529 C530 1.396 . S
C529 C539 1.510 . S
C530 C526 1.401 . S
C530 C529 1.396 . S
C531 C526 1.499 . S
C531 H532 0.959 . S
C531 H533 0.960 . S
C531 H534 0.961 . S
H532 C531 0.959 . S
H533 C531 0.960 . S
H534 C531 0.961 . S
O535 Co510 1.967 . S
O535 C543 1.258 . S
O536 Co511 1.941 . S
O536 C543 1.266 . S
H537 C539 0.959 . S
H538 C539 0.961 . S
C539 C529 1.510 . S
C539 H537 0.959 . S
C539 H538 0.961 . S
C539 H540 0.960 . S
H540 C539 0.960 . S
H541 N521 0.862 . S
O542 Co510 1.920 . S
O542 C515 1.289 . S
C543 O535 1.258 . S
C543 O536 1.266 . S
C544 C545 1.369 . S
C544 C546 1.419 . S
C544 H548 0.930 . S
C545 C544 1.369 . S
C545 C554 1.429 . S
C546 C544 1.419 . S
C546 C547 1.363 . S
C546 H549 0.929 . S
C547 C546 1.363 . S
C547 C553 1.428 . S
H548 C544 0.930 . S
H549 C546 0.929 . S
S550 N551 1.613 . S
S550 N552 1.610 . S
N551 S550 1.613 . S
N551 C554 1.350 . S
N552 S550 1.610 . S
N552 C553 1.351 . S
C553 C547 1.428 . S
C553 N552 1.351 . S
C553 C554 1.434 . S
C554 C545 1.429 . S
C554 N551 1.350 . S
C554 C553 1.434 . S
C555 C556 1.369 . S
C555 C557 1.419 . S
C555 H559 0.930 . S
C556 C555 1.369 . S
C556 C565 1.429 . S
C557 C555 1.419 . S
C557 C558 1.363 . S
C557 H560 0.929 . S
C558 C557 1.363 . S
C558 C564 1.428 . S
H559 C555 0.930 . S
H560 C557 0.929 . S
S561 N562 1.613 . S
S561 N563 1.610 . S
N562 S561 1.613 . S
N562 C565 1.350 . S
N563 S561 1.610 . S
N563 C564 1.351 . S
C564 C558 1.428 . S
C564 N563 1.351 . S
C564 C565 1.434 . S
C565 C556 1.429 . S
C565 N562 1.350 . S
C565 C564 1.434 . S
C566 C567 1.369 . S
C566 C568 1.419 . S
C566 H570 0.930 . S
C567 C566 1.369 . S
C567 C576 1.429 . S
C568 C566 1.419 . S
C568 C569 1.363 . S
C568 H571 0.929 . S
C569 C568 1.363 . S
C569 C575 1.428 . S
H570 C566 0.930 . S
H571 C568 0.929 . S
S572 N573 1.613 . S
S572 N574 1.610 . S
N573 S572 1.613 . S
N573 C576 1.350 . S
N574 S572 1.610 . S
N574 C575 1.351 . S
C575 C569 1.428 . S
C575 N574 1.351 . S
C575 C576 1.434 . S
C576 C567 1.429 . S
C576 N573 1.350 . S
C576 C575 1.434 . S
C577 C578 1.369 . S
C577 C579 1.419 . S
C577 H581 0.930 . S
C578 C577 1.369 . S
C578 C587 1.429 . S
C579 C577 1.419 . S
C579 C580 1.363 . S
C579 H582 0.929 . S
C580 C579 1.363 . S
C580 C586 1.428 . S
H581 C577 0.930 . S
H582 C579 0.929 . S
S583 N584 1.613 . S
S583 N585 1.610 . S
N584 S583 1.613 . S
N584 C587 1.350 . S
N585 S583 1.610 . S
N585 C586 1.351 . S
C586 C580 1.428 . S
C586 N585 1.351 . S
C586 C587 1.434 . S
C587 C578 1.429 . S
C587 N584 1.350 . S
C587 C586 1.434 . S
C588 C589 1.369 . S
C588 C590 1.419 . S
C588 H592 0.930 . S
C589 C588 1.369 . S
C589 C598 1.429 . S
C590 C588 1.419 . S
C590 C591 1.363 . S
C590 H593 0.929 . S
C591 C590 1.363 . S
C591 C597 1.428 . S
H592 C588 0.930 . S
H593 C590 0.929 . S
S594 N595 1.613 . S
S594 N596 1.610 . S
N595 S594 1.613 . S
N595 C598 1.350 . S
N596 S594 1.610 . S
N596 C597 1.351 . S
C597 C591 1.428 . S
C597 N596 1.351 . S
C597 C598 1.434 . S
C598 C589 1.429 . S
C598 N595 1.350 . S
C598 C597 1.434 . S
C599 C600 1.369 . S
C599 C601 1.419 . S
C599 H603 0.930 . S
C600 C599 1.369 . S
C600 C609 1.429 . S
C601 C599 1.419 . S
C601 C602 1.363 . S
C601 H604 0.929 . S
C602 C601 1.363 . S
C602 C608 1.428 . S
H603 C599 0.930 . S
H604 C601 0.929 . S
S605 N606 1.613 . S
S605 N607 1.610 . S
N606 S605 1.613 . S
N606 C609 1.350 . S
N607 S605 1.610 . S
N607 C608 1.351 . S
C608 C602 1.428 . S
C608 N607 1.351 . S
C608 C609 1.434 . S
C609 C600 1.429 . S
C609 N606 1.350 . S
C609 C608 1.434 . S
C610 C611 1.369 . S
C610 C612 1.419 . S
C610 H614 0.930 . S
C611 C610 1.369 . S
C611 C620 1.429 . S
C612 C610 1.419 . S
C612 C613 1.363 . S
C612 H615 0.929 . S
C613 C612 1.363 . S
C613 C619 1.428 . S
H614 C610 0.930 . S
H615 C612 0.929 . S
S616 N617 1.613 . S
S616 N618 1.610 . S
N617 S616 1.613 . S
N617 C620 1.350 . S
N618 S616 1.610 . S
N618 C619 1.351 . S
C619 C613 1.428 . S
C619 N618 1.351 . S
C619 C620 1.434 . S
C620 C611 1.429 . S
C620 N617 1.350 . S
C620 C619 1.434 . S
C621 C622 1.369 . S
C621 C623 1.419 . S
C621 H625 0.930 . S
C622 C621 1.369 . S
C622 C631 1.429 . S
C623 C621 1.419 . S
C623 C624 1.363 . S
C623 H626 0.929 . S
C624 C623 1.363 . S
C624 C630 1.428 . S
H625 C621 0.930 . S
H626 C623 0.929 . S
S627 N628 1.613 . S
S627 N629 1.610 . S
N628 S627 1.613 . S
N628 C631 1.350 . S
N629 S627 1.610 . S
N629 C630 1.351 . S
C630 C624 1.428 . S
C630 N629 1.351 . S
C630 C631 1.434 . S
C631 C622 1.429 . S
C631 N628 1.350 . S
C631 C630 1.434 . S
C632 C633 1.369 . S
C632 C634 1.419 . S
C632 H636 0.930 . S
C633 C632 1.369 . S
C633 C642 1.429 . S
C634 C632 1.419 . S
C634 C635 1.363 . S
C634 H637 0.929 . S
C635 C634 1.363 . S
C635 C641 1.428 . S
H636 C632 0.930 . S
H637 C634 0.929 . S
S638 N639 1.613 . S
S638 N640 1.610 . S
N639 S638 1.613 . S
N639 C642 1.350 . S
N640 S638 1.610 . S
N640 C641 1.351 . S
C641 C635 1.428 . S
C641 N640 1.351 . S
C641 C642 1.434 . S
C642 C633 1.429 . S
C642 N639 1.350 . S
C642 C641 1.434 . S
C643 C644 1.369 . S
C643 C645 1.419 . S
C643 H647 0.930 . S
C644 C643 1.369 . S
C644 C653 1.429 . S
C645 C643 1.419 . S
C645 C646 1.363 . S
C645 H648 0.929 . S
C646 C645 1.363 . S
C646 C652 1.428 . S
H647 C643 0.930 . S
H648 C645 0.929 . S
S649 N650 1.613 . S
S649 N651 1.610 . S
N650 S649 1.613 . S
N650 C653 1.350 . S
N651 S649 1.610 . S
N651 C652 1.351 . S
C652 C646 1.428 . S
C652 N651 1.351 . S
C652 C653 1.434 . S
C653 C644 1.429 . S
C653 N650 1.350 . S
C653 C652 1.434 . S
C654 C655 1.369 . S
C654 C656 1.419 . S
C654 H658 0.930 . S
C655 C654 1.369 . S
C655 C664 1.429 . S
C656 C654 1.419 . S
C656 C657 1.363 . S
C656 H659 0.929 . S
C657 C656 1.363 . S
C657 C663 1.428 . S
H658 C654 0.930 . S
H659 C656 0.929 . S
S660 N661 1.613 . S
S660 N662 1.610 . S
N661 S660 1.613 . S
N661 C664 1.350 . S
N662 S660 1.610 . S
N662 C663 1.351 . S
C663 C657 1.428 . S
C663 N662 1.351 . S
C663 C664 1.434 . S
C664 C655 1.429 . S
C664 N661 1.350 . S
C664 C663 1.434 . S
C665 C666 1.369 . S
C665 C667 1.419 . S
C665 H669 0.930 . S
C666 C665 1.369 . S
C666 C675 1.429 . S
C667 C665 1.419 . S
C667 C668 1.363 . S
C667 H670 0.929 . S
C668 C667 1.363 . S
C668 C674 1.428 . S
H669 C665 0.930 . S
H670 C667 0.929 . S
S671 N672 1.613 . S
S671 N673 1.610 . S
N672 S671 1.613 . S
N672 C675 1.350 . S
N673 S671 1.610 . S
N673 C674 1.351 . S
C674 C668 1.428 . S
C674 N673 1.351 . S
C674 C675 1.434 . S
C675 C666 1.429 . S
C675 N672 1.350 . S
C675 C674 1.434 . S
C676 C677 1.369 . S
C676 C678 1.419 . S
C676 H680 0.930 . S
C677 C676 1.369 . S
C677 C686 1.429 . S
C678 C676 1.419 . S
C678 C679 1.363 . S
C678 H681 0.929 . S
C679 C678 1.363 . S
C679 C685 1.428 . S
H680 C676 0.930 . S
H681 C678 0.929 . S
S682 N683 1.613 . S
S682 N684 1.610 . S
N683 S682 1.613 . S
N683 C686 1.350 . S
N684 S682 1.610 . S
N684 C685 1.351 . S
C685 C679 1.428 . S
C685 N684 1.351 . S
C685 C686 1.434 . S
C686 C677 1.429 . S
C686 N683 1.350 . S
C686 C685 1.434 . S
C687 C688 1.369 . S
C687 C689 1.419 . S
C687 H691 0.930 . S
C688 C687 1.369 . S
C688 C697 1.429 . S
C689 C687 1.419 . S
C689 C690 1.363 . S
C689 H692 0.929 . S
C690 C689 1.363 . S
C690 C696 1.428 . S
H691 C687 0.930 . S
H692 C689 0.929 . S
S693 N694 1.613 . S
S693 N695 1.610 . S
N694 S693 1.613 . S
N694 C697 1.350 . S
N695 S693 1.610 . S
N695 C696 1.351 . S
C696 C690 1.428 . S
C696 N695 1.351 . S
C696 C697 1.434 . S
C697 C688 1.429 . S
C697 N694 1.350 . S
C697 C696 1.434 . S
C698 C699 1.369 . S
C698 C700 1.419 . S
C698 H702 0.930 . S
C699 C698 1.369 . S
C699 C708 1.429 . S
C700 C698 1.419 . S
C700 C701 1.363 . S
C700 H703 0.929 . S
C701 C700 1.363 . S
C701 C707 1.428 . S
H702 C698 0.930 . S
H703 C700 0.929 . S
S704 N705 1.613 . S
S704 N706 1.610 . S
N705 S704 1.613 . S
N705 C708 1.350 . S
N706 S704 1.610 . S
N706 C707 1.351 . S
C707 C701 1.428 . S
C707 N706 1.351 . S
C707 C708 1.434 . S
C708 C699 1.429 . S
C708 N705 1.350 . S
C708 C707 1.434 . S
C709 C710 1.369 . S
C709 C711 1.419 . S
C709 H713 0.930 . S
C710 C709 1.369 . S
C710 C719 1.429 . S
C711 C709 1.419 . S
C711 C712 1.363 . S
C711 H714 0.929 . S
C712 C711 1.363 . S
C712 C718 1.428 . S
H713 C709 0.930 . S
H714 C711 0.929 . S
S715 N716 1.613 . S
S715 N717 1.610 . S
N716 S715 1.613 . S
N716 C719 1.350 . S
N717 S715 1.610 . S
N717 C718 1.351 . S
C718 C712 1.428 . S
C718 N717 1.351 . S
C718 C719 1.434 . S
C719 C710 1.429 . S
C719 N716 1.350 . S
C719 C718 1.434 . S
C720 C721 1.369 . S
C720 C722 1.419 . S
C720 H724 0.930 . S
C721 C720 1.369 . S
C721 C730 1.429 . S
C722 C720 1.419 . S
C722 C723 1.363 . S
C722 H725 0.929 . S
C723 C722 1.363 . S
C723 C729 1.428 . S
H724 C720 0.930 . S
H725 C722 0.929 . S
S726 N727 1.613 . S
S726 N728 1.610 . S
N727 S726 1.613 . S
N727 C730 1.350 . S
N728 S726 1.610 . S
N728 C729 1.351 . S
C729 C723 1.428 . S
C729 N728 1.351 . S
C729 C730 1.434 . S
C730 C721 1.429 . S
C730 N727 1.350 . S
C730 C729 1.434 . S
C731 C732 1.369 . S
C731 C733 1.419 . S
C731 H735 0.930 . S
C732 C731 1.369 . S
C732 C741 1.429 . S
C733 C731 1.419 . S
C733 C734 1.363 . S
C733 H736 0.929 . S
C734 C733 1.363 . S
C734 C740 1.428 . S
H735 C731 0.930 . S
H736 C733 0.929 . S
S737 N738 1.613 . S
S737 N739 1.610 . S
N738 S737 1.613 . S
N738 C741 1.350 . S
N739 S737 1.610 . S
N739 C740 1.351 . S
C740 C734 1.428 . S
C740 N739 1.351 . S
C740 C741 1.434 . S
C741 C732 1.429 . S
C741 N738 1.350 . S
C741 C740 1.434 . S
C742 C743 1.369 . S
C742 C744 1.419 . S
C742 H746 0.930 . S
C743 C742 1.369 . S
C743 C752 1.429 . S
C744 C742 1.419 . S
C744 C745 1.363 . S
C744 H747 0.929 . S
C745 C744 1.363 . S
C745 C751 1.428 . S
H746 C742 0.930 . S
H747 C744 0.929 . S
S748 N749 1.613 . S
S748 N750 1.610 . S
N749 S748 1.613 . S
N749 C752 1.350 . S
N750 S748 1.610 . S
N750 C751 1.351 . S
C751 C745 1.428 . S
C751 N750 1.351 . S
C751 C752 1.434 . S
C752 C743 1.429 . S
C752 N749 1.350 . S
C752 C751 1.434 . S
C753 C754 1.369 . S
C753 C755 1.419 . S
C753 H757 0.930 . S
C754 C753 1.369 . S
C754 C763 1.429 . S
C755 C753 1.419 . S
C755 C756 1.363 . S
C755 H758 0.929 . S
C756 C755 1.363 . S
C756 C762 1.428 . S
H757 C753 0.930 . S
H758 C755 0.929 . S
S759 N760 1.613 . S
S759 N761 1.610 . S
N760 S759 1.613 . S
N760 C763 1.350 . S
N761 S759 1.610 . S
N761 C762 1.351 . S
C762 C756 1.428 . S
C762 N761 1.351 . S
C762 C763 1.434 . S
C763 C754 1.429 . S
C763 N760 1.350 . S
C763 C762 1.434 . S
C764 C765 1.369 . S
C764 C766 1.419 . S
C764 H768 0.930 . S
C765 C764 1.369 . S
C765 C774 1.429 . S
C766 C764 1.419 . S
C766 C767 1.363 . S
C766 H769 0.929 . S
C767 C766 1.363 . S
C767 C773 1.428 . S
H768 C764 0.930 . S
H769 C766 0.929 . S
S770 N771 1.613 . S
S770 N772 1.610 . S
N771 S770 1.613 . S
N771 C774 1.350 . S
N772 S770 1.610 . S
N772 C773 1.351 . S
C773 C767 1.428 . S
C773 N772 1.351 . S
C773 C774 1.434 . S
C774 C765 1.429 . S
C774 N771 1.350 . S
C774 C773 1.434 . S
C775 C776 1.369 . S
C775 C777 1.419 . S
C775 H779 0.930 . S
C776 C775 1.369 . S
C776 C785 1.429 . S
C777 C775 1.419 . S
C777 C778 1.363 . S
C777 H780 0.929 . S
C778 C777 1.363 . S
C778 C784 1.428 . S
H779 C775 0.930 . S
H780 C777 0.929 . S
S781 N782 1.613 . S
S781 N783 1.610 . S
N782 S781 1.613 . S
N782 C785 1.350 . S
N783 S781 1.610 . S
N783 C784 1.351 . S
C784 C778 1.428 . S
C784 N783 1.351 . S
C784 C785 1.434 . S
C785 C776 1.429 . S
C785 N782 1.350 . S
C785 C784 1.434 . S
C786 C787 1.369 . S
C786 C788 1.419 . S
C786 H790 0.930 . S
C787 C786 1.369 . S
C787 C796 1.429 . S
C788 C786 1.419 . S
C788 C789 1.363 . S
C788 H791 0.929 . S
C789 C788 1.363 . S
C789 C795 1.428 . S
H790 C786 0.930 . S
H791 C788 0.929 . S
S792 N793 1.613 . S
S792 N794 1.610 . S
N793 S792 1.613 . S
N793 C796 1.350 . S
N794 S792 1.610 . S
N794 C795 1.351 . S
C795 C789 1.428 . S
C795 N794 1.351 . S
C795 C796 1.434 . S
C796 C787 1.429 . S
C796 N793 1.350 . S
C796 C795 1.434 . S
C797 C798 1.369 . S
C797 C799 1.419 . S
C797 H801 0.930 . S
C798 C797 1.369 . S
C798 C807 1.429 . S
C799 C797 1.419 . S
C799 C800 1.363 . S
C799 H802 0.929 . S
C800 C799 1.363 . S
C800 C806 1.428 . S
H801 C797 0.930 . S
H802 C799 0.929 . S
S803 N804 1.613 . S
S803 N805 1.610 . S
N804 S803 1.613 . S
N804 C807 1.350 . S
N805 S803 1.610 . S
N805 C806 1.351 . S
C806 C800 1.428 . S
C806 N805 1.351 . S
C806 C807 1.434 . S
C807 C798 1.429 . S
C807 N804 1.350 . S
C807 C806 1.434 . S
C808 C809 1.369 . S
C808 C810 1.419 . S
C808 H812 0.930 . S
C809 C808 1.369 . S
C809 C818 1.429 . S
C810 C808 1.419 . S
C810 C811 1.363 . S
C810 H813 0.929 . S
C811 C810 1.363 . S
C811 C817 1.428 . S
H812 C808 0.930 . S
H813 C810 0.929 . S
S814 N815 1.613 . S
S814 N816 1.610 . S
N815 S814 1.613 . S
N815 C818 1.350 . S
N816 S814 1.610 . S
N816 C817 1.351 . S
C817 C811 1.428 . S
C817 N816 1.351 . S
C817 C818 1.434 . S
C818 C809 1.429 . S
C818 N815 1.350 . S
C818 C817 1.434 . S
C819 C820 1.369 . S
C819 C821 1.419 . S
C819 H823 0.930 . S
C820 C819 1.369 . S
C820 C829 1.429 . S
C821 C819 1.419 . S
C821 C822 1.363 . S
C821 H824 0.929 . S
C822 C821 1.363 . S
C822 C828 1.428 . S
H823 C819 0.930 . S
H824 C821 0.929 . S
S825 N826 1.613 . S
S825 N827 1.610 . S
N826 S825 1.613 . S
N826 C829 1.350 . S
N827 S825 1.610 . S
N827 C828 1.351 . S
C828 C822 1.428 . S
C828 N827 1.351 . S
C828 C829 1.434 . S
C829 C820 1.429 . S
C829 N826 1.350 . S
C829 C828 1.434 . S
C830 C831 1.369 . S
C830 C832 1.419 . S
C830 H834 0.930 . S
C831 C830 1.369 . S
C831 C840 1.429 . S
C832 C830 1.419 . S
C832 C833 1.363 . S
C832 H835 0.929 . S
C833 C832 1.363 . S
C833 C839 1.428 . S
H834 C830 0.930 . S
H835 C832 0.929 . S
S836 N837 1.613 . S
S836 N838 1.610 . S
N837 S836 1.613 . S
N837 C840 1.350 . S
N838 S836 1.610 . S
N838 C839 1.351 . S
C839 C833 1.428 . S
C839 N838 1.351 . S
C839 C840 1.434 . S
C840 C831 1.429 . S
C840 N837 1.350 . S
C840 C839 1.434 . S
C841 C842 1.369 . S
C841 C843 1.419 . S
C841 H845 0.930 . S
C842 C841 1.369 . S
C842 C851 1.429 . S
C843 C841 1.419 . S
C843 C844 1.363 . S
C843 H846 0.929 . S
C844 C843 1.363 . S
C844 C850 1.428 . S
H845 C841 0.930 . S
H846 C843 0.929 . S
S847 N848 1.613 . S
S847 N849 1.610 . S
N848 S847 1.613 . S
N848 C851 1.350 . S
N849 S847 1.610 . S
N849 C850 1.351 . S
C850 C844 1.428 . S
C850 N849 1.351 . S
C850 C851 1.434 . S
C851 C842 1.429 . S
C851 N848 1.350 . S
C851 C850 1.434 . S
C852 C853 1.369 . S
C852 C854 1.419 . S
C852 H856 0.930 . S
C853 C852 1.369 . S
C853 C862 1.429 . S
C854 C852 1.419 . S
C854 C855 1.363 . S
C854 H857 0.929 . S
C855 C854 1.363 . S
C855 C861 1.428 . S
H856 C852 0.930 . S
H857 C854 0.929 . S
S858 N859 1.613 . S
S858 N860 1.610 . S
N859 S858 1.613 . S
N859 C862 1.350 . S
N860 S858 1.610 . S
N860 C861 1.351 . S
C861 C855 1.428 . S
C861 N860 1.351 . S
C861 C862 1.434 . S
C862 C853 1.429 . S
C862 N859 1.350 . S
C862 C861 1.434 . S
C863 C864 1.369 . S
C863 C865 1.419 . S
C863 H867 0.930 . S
C864 C863 1.369 . S
C864 C873 1.429 . S
C865 C863 1.419 . S
C865 C866 1.363 . S
C865 H868 0.929 . S
C866 C865 1.363 . S
C866 C872 1.428 . S
H867 C863 0.930 . S
H868 C865 0.929 . S
S869 N870 1.613 . S
S869 N871 1.610 . S
N870 S869 1.613 . S
N870 C873 1.350 . S
N871 S869 1.610 . S
N871 C872 1.351 . S
C872 C866 1.428 . S
C872 N871 1.351 . S
C872 C873 1.434 . S
C873 C864 1.429 . S
C873 N870 1.350 . S
C873 C872 1.434 . S
C874 C875 1.369 . S
C874 C876 1.419 . S
C874 H878 0.930 . S
C875 C874 1.369 . S
C875 C884 1.429 . S
C876 C874 1.419 . S
C876 C877 1.363 . S
C876 H879 0.929 . S
C877 C876 1.363 . S
C877 C883 1.428 . S
H878 C874 0.930 . S
H879 C876 0.929 . S
S880 N881 1.613 . S
S880 N882 1.610 . S
N881 S880 1.613 . S
N881 C884 1.350 . S
N882 S880 1.610 . S
N882 C883 1.351 . S
C883 C877 1.428 . S
C883 N882 1.351 . S
C883 C884 1.434 . S
C884 C875 1.429 . S
C884 N881 1.350 . S
C884 C883 1.434 . S
C885 C886 1.369 . S
C885 C887 1.419 . S
C885 H889 0.930 . S
C886 C885 1.369 . S
C886 C895 1.429 . S
C887 C885 1.419 . S
C887 C888 1.363 . S
C887 H890 0.929 . S
C888 C887 1.363 . S
C888 C894 1.428 . S
H889 C885 0.930 . S
H890 C887 0.929 . S
S891 N892 1.613 . S
S891 N893 1.610 . S
N892 S891 1.613 . S
N892 C895 1.350 . S
N893 S891 1.610 . S
N893 C894 1.351 . S
C894 C888 1.428 . S
C894 N893 1.351 . S
C894 C895 1.434 . S
C895 C886 1.429 . S
C895 N892 1.350 . S
C895 C894 1.434 . S
C896 C897 1.369 . S
C896 C898 1.419 1_556 S
C896 H900 0.930 . S
C897 C896 1.369 . S
C897 C906 1.429 . S
C898 C896 1.419 1_554 S
C898 C899 1.363 . S
C898 H901 0.929 . S
C899 C898 1.363 . S
C899 C905 1.428 . S
H900 C896 0.930 . S
H901 C898 0.929 . S
S902 N903 1.613 . S
S902 N904 1.610 1_556 S
N903 S902 1.613 . S
N903 C906 1.350 1_565 S
N904 S902 1.610 1_554 S
N904 C905 1.351 1_565 S
C905 C899 1.428 . S
C905 N904 1.351 1_545 S
C905 C906 1.434 1_554 S
C906 C897 1.429 . S
C906 N903 1.350 1_545 S
C906 C905 1.434 1_556 S
C907 C908 1.369 . S
C907 C909 1.419 . S
C907 H911 0.930 . S
C908 C907 1.369 . S
C908 C917 1.429 . S
C909 C907 1.419 . S
C909 C910 1.363 . S
C909 H912 0.929 . S
C910 C909 1.363 . S
C910 C916 1.428 . S
H911 C907 0.930 . S
H912 C909 0.929 . S
S913 N914 1.613 . S
S913 N915 1.610 . S
N914 S913 1.613 . S
N914 C917 1.350 . S
N915 S913 1.610 . S
N915 C916 1.351 . S
C916 C910 1.428 . S
C916 N915 1.351 . S
C916 C917 1.434 . S
C917 C908 1.429 . S
C917 N914 1.350 . S
C917 C916 1.434 . S
C918 C919 1.369 . S
C918 C920 1.419 1_554 S
C918 H922 0.930 . S
C919 C918 1.369 . S
C919 C928 1.429 . S
C920 C918 1.419 1_556 S
C920 C921 1.363 . S
C920 H923 0.929 . S
C921 C920 1.363 . S
C921 C927 1.428 . S
H922 C918 0.930 . S
H923 C920 0.929 . S
S924 N925 1.613 . S
S924 N926 1.610 1_554 S
N925 S924 1.613 . S
N925 C928 1.350 . S
N926 S924 1.610 1_556 S
N926 C927 1.351 . S
C927 C921 1.428 . S
C927 N926 1.351 . S
C927 C928 1.434 1_556 S
C928 C919 1.429 . S
C928 N925 1.350 . S
C928 C927 1.434 1_554 S
C929 C930 1.369 . S
C929 C931 1.419 . S
C929 H933 0.930 . S
C930 C929 1.369 . S
C930 C939 1.429 . S
C931 C929 1.419 . S
C931 C932 1.363 . S
C931 H934 0.929 . S
C932 C931 1.363 . S
C932 C938 1.428 . S
H933 C929 0.930 . S
H934 C931 0.929 . S
S935 N936 1.613 . S
S935 N937 1.610 . S
N936 S935 1.613 . S
N936 C939 1.350 . S
N937 S935 1.610 . S
N937 C938 1.351 . S
C938 C932 1.428 . S
C938 N937 1.351 . S
C938 C939 1.434 . S
C939 C930 1.429 . S
C939 N936 1.350 . S
C939 C938 1.434 . S
C940 C941 1.369 . S
C940 C942 1.419 1_554 S
C940 H944 0.930 . S
C941 C940 1.369 . S
C941 C950 1.429 . S
C942 C940 1.419 1_556 S
C942 C943 1.363 . S
C942 H945 0.929 . S
C943 C942 1.363 . S
C943 C949 1.428 . S
H944 C940 0.930 . S
H945 C942 0.929 . S
S946 N947 1.613 . S
S946 N948 1.610 1_554 S
N947 S946 1.613 . S
N947 C950 1.350 1_545 S
N948 S946 1.610 1_556 S
N948 C949 1.351 1_545 S
C949 C943 1.428 . S
C949 N948 1.351 1_565 S
C949 C950 1.434 1_556 S
C950 C941 1.429 . S
C950 N947 1.350 1_565 S
C950 C949 1.434 1_554 S
C951 C952 1.369 . S
C951 C953 1.419 . S
C951 H955 0.930 . S
C952 C951 1.369 . S
C952 C961 1.429 . S
C953 C951 1.419 . S
C953 C954 1.363 . S
C953 H956 0.929 . S
C954 C953 1.363 . S
C954 C960 1.428 . S
H955 C951 0.930 . S
H956 C953 0.929 . S
S957 N958 1.613 . S
S957 N959 1.610 . S
N958 S957 1.613 . S
N958 C961 1.350 . S
N959 S957 1.610 . S
N959 C960 1.351 . S
C960 C954 1.428 . S
C960 N959 1.351 . S
C960 C961 1.434 . S
C961 C952 1.429 . S
C961 N958 1.350 . S
C961 C960 1.434 . S
C962 C963 1.369 . S
C962 C964 1.419 1_554 S
C962 H966 0.930 . S
C963 C962 1.369 . S
C963 C972 1.429 . S
C964 C962 1.419 1_556 S
C964 C965 1.363 . S
C964 H967 0.929 . S
C965 C964 1.363 . S
C965 C971 1.428 . S
H966 C962 0.930 . S
H967 C964 0.929 . S
S968 N969 1.613 . S
S968 N970 1.610 1_554 S
N969 S968 1.613 . S
N969 C972 1.350 . S
N970 S968 1.610 1_556 S
N970 C971 1.351 . S
C971 C965 1.428 . S
C971 N970 1.351 . S
C971 C972 1.434 1_556 S
C972 C963 1.429 . S
C972 N969 1.350 . S
C972 C971 1.434 1_554 S
C973 C974 1.369 . S
C973 C975 1.419 . S
C973 H977 0.930 . S
C974 C973 1.369 . S
C974 C983 1.429 . S
C975 C973 1.419 . S
C975 C976 1.363 . S
C975 H978 0.929 . S
C976 C975 1.363 . S
C976 C982 1.428 . S
H977 C973 0.930 . S
H978 C975 0.929 . S
S979 N980 1.613 . S
S979 N981 1.610 . S
N980 S979 1.613 . S
N980 C983 1.350 . S
N981 S979 1.610 . S
N981 C982 1.351 . S
C982 C976 1.428 . S
C982 N981 1.351 . S
C982 C983 1.434 . S
C983 C974 1.429 . S
C983 N980 1.350 . S
C983 C982 1.434 . S
C545 C9 1.885 . S
C547 C247 1.891 . S
C556 C145 1.887 . S
C558 C43 1.888 . S
C567 C179 1.893 . S
C569 C77 1.886 . S
C578 C111 1.890 . S
C580 C213 1.886 . S
C589 C281 1.893 . S
C591 C519 1.886 . S
C600 C315 1.886 . S
C602 C417 1.888 . S
C611 C451 1.892 . S
C613 C349 1.889 . S
C622 C383 1.889 . S
C624 C485 1.891 . S
C633 C2 1.569 . S
C635 C339 1.470 . S
C644 C373 1.474 . S
C646 C36 1.569 . S
C655 C407 1.469 . S
C657 C70 1.566 . S
C666 C305 1.468 . S
C668 C104 1.567 . S
C677 C543 1.473 . S
C679 C138 1.564 . S
C688 C441 1.478 . S
C690 C172 1.568 . S
C699 C475 1.481 . S
C701 C206 1.565 . S
C710 C509 1.478 . S
C712 C240 1.563 . S
C721 C67 1.481 . S
C723 C274 1.567 . S
C732 C101 1.480 . S
C734 C308 1.568 . S
C743 C135 1.468 . S
C745 C342 1.567 . S
C754 C376 1.562 . S
C756 C33 1.476 . S
C765 C271 1.481 . S
C767 C410 1.566 . S
C776 C169 1.479 . S
C778 C444 1.568 . S
C787 C203 1.473 . S
C789 C478 1.564 . S
C798 C237 1.481 . S
C800 C512 1.566 . S
C809 C73 0.881 . S
C811 C5 0.885 . S
C820 C39 0.884 . S
C822 C107 0.892 . S
C831 C209 0.894 . S
C833 C141 0.885 . S
C842 C243 0.882 . S
C844 C175 0.883 . S
C853 C345 0.889 . S
C855 C277 0.889 . S
C864 C379 0.895 . S
C866 C311 0.879 . S
C875 C413 0.890 . S
C877 C481 0.880 . S
C886 C515 0.883 . S
C888 C447 0.884 . S
C897 C224 1.524 . S
C899 C20 1.524 . S
C908 C258 1.519 . S
C910 C54 1.520 . S
C919 C88 1.522 . S
C921 C156 1.522 . S
C930 C190 1.523 . S
C932 C122 1.523 . S
C941 C496 1.525 . S
C943 C292 1.525 . S
C952 C530 1.522 . S
C954 C326 1.522 . S
C963 C428 1.525 . S
C965 C360 1.524 . S
C974 C394 1.521 . S
C976 C462 1.521 . S
