# Generated by pormake.
# Topology unh, (4)-cn, num edge types: 1
# Building blocks:
#     Node 0, Type 0, BuildingBlock: CEKHIL_clean_sbu_0, # of connection points: 4
#     Node 1, Type 0, BuildingBlock: CEKHIL_clean_sbu_0, # of connection points: 4
#     Node 2, Type 0, BuildingBlock: CEKHIL_clean_sbu_0, # of connection points: 4
#     Node 3, Type 0, BuildingBlock: CEKHIL_clean_sbu_0, # of connection points: 4
#     Node 4, Type 0, BuildingBlock: CEKHIL_clean_sbu_0, # of connection points: 4
#     Node 5, Type 0, BuildingBlock: CEKHIL_clean_sbu_0, # of connection points: 4
#     Edge 6, Type (0, 0), BuildingBlock: EZIPEK_clean_linker_0, # of connection points: 2
#     Edge 7, Type (0, 0), BuildingBlock: EZIPEK_clean_linker_0, # of connection points: 2
#     Edge 8, Type (0, 0), BuildingBlock: EZIPEK_clean_linker_0, # of connection points: 2
#     Edge 9, Type (0, 0), BuildingBlock: EZIPEK_clean_linker_0, # of connection points: 2
#     Edge 10, Type (0, 0), BuildingBlock: EZIPEK_clean_linker_0, # of connection points: 2
#     Edge 11, Type (0, 0), BuildingBlock: EZIPEK_clean_linker_0, # of connection points: 2
#     Edge 12, Type (0, 0), BuildingBlock: EZIPEK_clean_linker_0, # of connection points: 2
#     Edge 13, Type (0, 0), BuildingBlock: EZIPEK_clean_linker_0, # of connection points: 2
#     Edge 14, Type (0, 0), BuildingBlock: EZIPEK_clean_linker_0, # of connection points: 2
#     Edge 15, Type (0, 0), BuildingBlock: EZIPEK_clean_linker_0, # of connection points: 2
#     Edge 16, Type (0, 0), BuildingBlock: EZIPEK_clean_linker_0, # of connection points: 2
#     Edge 17, Type (0, 0), BuildingBlock: EZIPEK_clean_linker_0, # of connection points: 2
# Relax obj value: 0.073
# Max RMSD: 0.185
# Mean RMSD: 0.185
data_MOF--net-unh--node1-CEKHIL_clean_sbu_0--edge1-EZIPEK_clean_linker_0
_symmetry_space_group_name_H-M    P1
_symmetry_Int_Tables_number       1
_symmetry_cell_setting            triclinic
loop_
_symmetry_equiv_pos_as_xyz
'x, y, z'
_cell_length_a     30.571058
_cell_length_b     30.600784
_cell_length_c     16.089951
_cell_angle_alpha  89.920874
_cell_angle_beta   90.109775
_cell_angle_gamma 119.87238
loop_
_atom_site_label
_atom_site_type_symbol
_atom_site_fract_x
_atom_site_fract_y
_atom_site_fract_z
_atom_type_partial_charge
Co0 Co 0.12971 0.55847 0.136 0.0
O1 O 0.08522 0.51137 0.2175 0.0
O2 O 0.08145 0.5778 0.17142 0.0
C3 C 0.20144 0.56814 0.19357 0.0
O4 O 0.16937 0.61671 0.05522 0.0
Co5 Co 0.19526 0.53382 0.02127 0.0
O6 O 0.22882 0.60598 0.9921 0.0
C7 C 0.09073 0.50324 0.97147 0.0
C8 C 0.06424 0.53923 0.2211 0.0
C9 C 0.20789 0.6321 0.00721 0.0
O10 O 0.08356 0.51714 0.0431 0.0
O11 O 0.1327 0.50669 0.95037 0.0
O12 O 0.18013 0.59275 0.2216 0.0
O13 O 0.1767 0.53538 0.13599 0.0
Co14 Co 0.5789 0.12662 0.27525 0.0
O15 O 0.56998 0.07441 0.35175 0.0
O16 O 0.51057 0.09267 0.31692 0.0
C17 C 0.65219 0.18696 0.33105 0.0
O18 O 0.57361 0.17914 0.2038 0.0
Co19 Co 0.66538 0.17248 0.15291 0.0
O20 O 0.6424 0.2202 0.12388 0.0
C21 C 0.57555 0.0785 0.10628 0.0
C22 C 0.52425 0.06586 0.36092 0.0
C23 C 0.60051 0.21365 0.15074 0.0
O24 O 0.55781 0.0775 0.17911 0.0
O25 O 0.61853 0.11397 0.08279 0.0
O26 O 0.60891 0.17642 0.36197 0.0
O27 O 0.65087 0.15794 0.271 0.0
Co28 Co 0.45177 0.57809 0.4584 0.0
O29 O 0.49384 0.56446 0.5306 0.0
O30 O 0.4165 0.5077 0.49111 0.0
C31 C 0.46399 0.64834 0.52628 0.0
O32 O 0.39655 0.57923 0.38879 0.0
Co33 Co 0.49968 0.675 0.35231 0.0
O34 O 0.4295 0.65256 0.31865 0.0
C35 C 0.50772 0.58881 0.29466 0.0
C36 C 0.4562 0.51888 0.53588 0.0
C37 C 0.39232 0.61006 0.33931 0.0
O38 O 0.48011 0.56246 0.35601 0.0
O39 O 0.52324 0.63575 0.28529 0.0
O40 O 0.43123 0.60354 0.55148 0.0
O41 O 0.49191 0.64927 0.46496 0.0
Co42 Co 0.86927 0.43266 0.63457 0.0
O43 O 0.91869 0.48174 0.70817 0.0
O44 O 0.91326 0.409 0.67645 0.0
C45 C 0.80182 0.43258 0.69284 0.0
O46 O 0.82338 0.37269 0.56083 0.0
Co47 Co 0.80667 0.46191 0.51791 0.0
O48 O 0.76663 0.3883 0.4984 0.0
C49 C 0.91003 0.48683 0.47 0.0
C50 C 0.93495 0.45031 0.71996 0.0
C51 C 0.78428 0.35928 0.51457 0.0
O52 O 0.91431 0.4658 0.53631 0.0
O53 O 0.87156 0.49141 0.45298 0.0
O54 O 0.82067 0.40658 0.72456 0.0
O55 O 0.82714 0.46161 0.63151 0.0
Co56 Co 0.40775 0.86492 0.7675 0.0
O57 O 0.41127 0.91823 0.83622 0.0
O58 O 0.47394 0.90303 0.81606 0.0
C59 C 0.33457 0.80221 0.81964 0.0
O60 O 0.4197 0.81403 0.70578 0.0
Co61 Co 0.3246 0.81051 0.63796 0.0
O62 O 0.36131 0.7746 0.60641 0.0
C63 C 0.40499 0.91209 0.60158 0.0
C64 C 0.45709 0.92911 0.85402 0.0
C65 C 0.40086 0.78268 0.64539 0.0
O66 O 0.42891 0.91015 0.66618 0.0
O67 O 0.3594 0.87883 0.58553 0.0
O68 O 0.37712 0.8172 0.85755 0.0
O69 O 0.33608 0.82861 0.75535 0.0
Co70 Co 0.55079 0.42515 0.95382 0.0
O71 O 0.50625 0.43379 0.02734 0.0
O72 O 0.58 0.49563 0.98309 0.0
C73 C 0.55015 0.36003 0.02082 0.0
O74 O 0.60731 0.42834 0.88152 0.0
Co75 Co 0.50515 0.32535 0.85204 0.0
O76 O 0.5757 0.35384 0.81462 0.0
C77 C 0.4897 0.40691 0.79221 0.0
C78 C 0.54071 0.48091 0.03067 0.0
C79 C 0.6121 0.39746 0.83283 0.0
O80 O 0.51727 0.43495 0.85224 0.0
O81 O 0.47695 0.3605 0.78412 0.0
O82 O 0.57712 0.40573 0.04778 0.0
O83 O 0.51829 0.35438 0.96259 0.0
C84 C 0.0193 0.51005 0.90632 0.0
C85 C 0.04981 0.48705 0.90799 0.0
C86 C 0.00901 0.44326 0.77841 0.0
C87 C 0.97336 0.46009 0.78561 0.0
N88 N 0.93519 0.49354 0.87965 0.0
N89 N 0.06244 0.42002 0.85522 0.0
C90 C 0.97543 0.48848 0.85673 0.0
C91 C 0.04137 0.45001 0.84696 0.0
N92 N 0.03314 0.55413 0.94732 0.0
N93 N 0.01415 0.42321 0.70585 0.0
H94 H 0.08312 0.42093 0.90742 0.0
H95 H 0.05395 0.39007 0.81511 0.0
H96 H 0.99433 0.42107 0.6519 0.0
H97 H 0.04265 0.41441 0.69672 0.0
H98 H 0.01256 0.57286 0.9424 0.0
H99 H 0.06824 0.57561 0.97552 0.0
H100 H 0.93515 0.51181 0.93434 0.0
H101 H 0.8999 0.47359 0.85133 0.0
C102 C 0.46327 0.97293 0.9903 0.0
C103 C 0.48735 0.96676 0.91941 0.0
C104 C 0.56868 0.02345 0.98418 0.0
C105 C 0.54457 0.03782 0.04518 0.0
N106 N 0.46615 0.03366 0.08782 0.0
N107 N 0.56503 0.99817 0.84136 0.0
C108 C 0.49102 0.01482 0.04322 0.0
C109 C 0.54072 0.99551 0.9139 0.0
N110 N 0.41499 0.93774 0.01058 0.0
N111 N 0.61741 0.03426 0.99441 0.0
H112 H 0.54606 0.98213 0.78602 0.0
H113 H 0.6038 0.02185 0.83409 0.0
H114 H 0.6378 0.04996 0.04883 0.0
H115 H 0.63483 0.02121 0.9536 0.0
H116 H 0.39777 0.9397 0.06528 0.0
H117 H 0.39522 0.90336 0.97993 0.0
H118 H 0.42736 0.01929 0.0822 0.0
H119 H 0.48422 0.06709 0.12141 0.0
C120 C 0.49018 0.55345 0.15041 0.0
C121 C 0.51761 0.56269 0.22604 0.0
C122 C 0.56671 0.52686 0.16661 0.0
C123 C 0.53682 0.51431 0.09322 0.0
N124 N 0.46867 0.51248 0.01527 0.0
N125 N 0.57797 0.55431 0.31074 0.0
C126 C 0.49825 0.52693 0.08505 0.0
C127 C 0.55489 0.54842 0.23537 0.0
N128 N 0.45647 0.57024 0.14116 0.0
N129 N 0.60648 0.51822 0.17049 0.0
H130 H 0.57134 0.57139 0.36148 0.0
H131 H 0.60116 0.53947 0.32525 0.0
H132 H 0.61537 0.50091 0.12294 0.0
H133 H 0.63303 0.53126 0.21815 0.0
H134 H 0.43945 0.57008 0.08504 0.0
H135 H 0.44697 0.58683 0.18915 0.0
H136 H 0.43588 0.51456 0.00893 0.0
H137 H 0.47584 0.49621 0.96394 0.0
C138 C 0.94783 0.46353 0.3528 0.0
C139 C 0.94919 0.50134 0.4055 0.0
C140 C 0.02728 0.56463 0.33892 0.0
C141 C 0.02318 0.5276 0.28115 0.0
N142 N 0.97295 0.44496 0.22103 0.0
N143 N 0.98526 0.58901 0.44139 0.0
C144 C 0.98153 0.4779 0.28462 0.0
C145 C 0.98722 0.55236 0.39587 0.0
N146 N 0.91512 0.41374 0.36874 0.0
N147 N 0.07059 0.61034 0.34318 0.0
H148 H 0.95758 0.58105 0.48609 0.0
H149 H 0.00876 0.62738 0.43052 0.0
H150 H 0.10166 0.6204 0.30497 0.0
H151 H 0.07768 0.6366 0.38986 0.0
H152 H 0.91626 0.38452 0.33751 0.0
H153 H 0.88974 0.4014 0.41813 0.0
H154 H 0.94033 0.4099 0.21629 0.0
H155 H 0.99572 0.45473 0.16829 0.0
C156 C 0.49208 0.04087 0.50619 0.0
C157 C 0.48991 0.02787 0.42109 0.0
C158 C 0.43353 0.93912 0.45426 0.0
C159 C 0.43271 0.95231 0.53899 0.0
N160 N 0.45274 0.01693 0.64189 0.0
N161 N 0.45113 0.96724 0.31103 0.0
C162 C 0.45966 0.0036 0.56402 0.0
C163 C 0.45801 0.97783 0.39415 0.0
N164 N 0.52577 0.08862 0.53202 0.0
N165 N 0.414 0.88977 0.43167 0.0
H166 H 0.4694 0.99458 0.26525 0.0
H167 H 0.424 0.93244 0.28751 0.0
H168 H 0.39732 0.8598 0.4733 0.0
H169 H 0.41882 0.87863 0.37286 0.0
H170 H 0.53352 0.09875 0.59434 0.0
H171 H 0.54852 0.1175 0.49103 0.0
H172 H 0.46756 0.05416 0.66102 0.0
H173 H 0.42809 0.9909 0.68507 0.0
C174 C 0.443 0.44958 0.73936 0.0
C175 C 0.47646 0.43102 0.72412 0.0
C176 C 0.48628 0.45989 0.57914 0.0
C177 C 0.45756 0.48338 0.59709 0.0
N178 N 0.41122 0.5044 0.69494 0.0
N179 N 0.53541 0.42385 0.63317 0.0
C180 C 0.43624 0.47892 0.67725 0.0
C181 C 0.49921 0.43712 0.64468 0.0
N182 N 0.4169 0.43816 0.81254 0.0
N183 N 0.50081 0.45908 0.49909 0.0
H184 H 0.54667 0.40774 0.67962 0.0
H185 H 0.55742 0.43257 0.57981 0.0
H186 H 0.4921 0.47579 0.45001 0.0
H187 H 0.51739 0.43819 0.48001 0.0
H188 H 0.38821 0.44622 0.82456 0.0
H189 H 0.42119 0.41693 0.85929 0.0
H190 H 0.40059 0.50827 0.75469 0.0
H191 H 0.40342 0.52424 0.65022 0.0
C192 C 0.26096 0.53746 0.24146 0.0
C193 C 0.25083 0.57752 0.22728 0.0
C194 C 0.32788 0.6345 0.3029 0.0
C195 C 0.34208 0.59693 0.30512 0.0
N196 N 0.32622 0.51532 0.2571 0.0
N197 N 0.28461 0.66777 0.2229 0.0
C198 C 0.30986 0.54905 0.26885 0.0
C199 C 0.28719 0.62715 0.25172 0.0
N200 N 0.22378 0.48836 0.23333 0.0
N201 N 0.35207 0.67664 0.35137 0.0
H202 H 0.25833 0.66442 0.17853 0.0
H203 H 0.31269 0.70484 0.2344 0.0
H204 H 0.37993 0.68203 0.39434 0.0
H205 H 0.34005 0.70301 0.35598 0.0
H206 H 0.22883 0.45828 0.25037 0.0
H207 H 0.1865 0.47754 0.21925 0.0
H208 H 0.30547 0.48198 0.22372 0.0
H209 H 0.36247 0.52291 0.27244 0.0
C210 C 0.70302 0.22096 0.46124 0.0
C211 C 0.6992 0.22456 0.37376 0.0
C212 C 0.76242 0.31393 0.37806 0.0
C213 C 0.76281 0.31157 0.46643 0.0
N214 N 0.74827 0.26033 0.58857 0.0
N215 N 0.74056 0.26796 0.24819 0.0
C216 C 0.73813 0.26415 0.50705 0.0
C217 C 0.73401 0.26895 0.33177 0.0
N218 N 0.6721 0.17636 0.50039 0.0
N219 N 0.78812 0.35936 0.33829 0.0
H220 H 0.72266 0.23471 0.21445 0.0
H221 H 0.76815 0.29823 0.21458 0.0
H222 H 0.8124 0.39287 0.36884 0.0
H223 H 0.78355 0.36429 0.27544 0.0
H224 H 0.66772 0.17254 0.5646 0.0
H225 H 0.64953 0.1431 0.46766 0.0
H226 H 0.73419 0.22623 0.62005 0.0
H227 H 0.77507 0.29086 0.6227 0.0
C228 C 0.42156 0.71455 0.67161 0.0
C229 C 0.42618 0.75436 0.62064 0.0
C230 C 0.47523 0.7368 0.5187 0.0
C231 C 0.46509 0.69329 0.56526 0.0
N232 N 0.45201 0.6568 0.70181 0.0
N233 N 0.46703 0.81185 0.5073 0.0
C234 C 0.44563 0.68732 0.64698 0.0
C235 C 0.45594 0.76806 0.54731 0.0
N236 N 0.39233 0.70122 0.74154 0.0
N237 N 0.50432 0.74891 0.44912 0.0
H238 H 0.45512 0.83625 0.52928 0.0
H239 H 0.4902 0.82591 0.45547 0.0
H240 H 0.52921 0.73551 0.43961 0.0
H241 H 0.50684 0.77466 0.40448 0.0
H242 H 0.38286 0.66875 0.77563 0.0
H243 H 0.3744 0.7206 0.76232 0.0
H244 H 0.44236 0.65388 0.76443 0.0
H245 H 0.47272 0.63922 0.68655 0.0
C246 C 0.6953 0.45691 0.7614 0.0
C247 C 0.66256 0.41 0.80028 0.0
C248 C 0.71557 0.37694 0.75011 0.0
C249 C 0.75262 0.42558 0.72302 0.0
N250 N 0.7812 0.51502 0.71962 0.0
N251 N 0.65183 0.33087 0.85242 0.0
C252 C 0.74359 0.46666 0.73309 0.0
C253 C 0.67594 0.37178 0.80125 0.0
N254 N 0.67993 0.49128 0.74813 0.0
N255 N 0.71644 0.335 0.7238 0.0
H256 H 0.62416 0.32645 0.89474 0.0
H257 H 0.66368 0.30446 0.8595 0.0
H258 H 0.74189 0.33664 0.67945 0.0
H259 H 0.6877 0.29851 0.73722 0.0
H260 H 0.70071 0.52382 0.71287 0.0
H261 H 0.64434 0.48497 0.76492 0.0
H262 H 0.77744 0.5462 0.7339 0.0
H263 H 0.81766 0.52435 0.70256 0.0
C264 C 0.25921 0.71443 0.81985 0.0
C265 C 0.28717 0.76232 0.85784 0.0
C266 C 0.24747 0.72664 0.99219 0.0
C267 C 0.22469 0.67804 0.95598 0.0
N268 N 0.19153 0.6278 0.83262 0.0
N269 N 0.29374 0.81727 0.96931 0.0
C270 C 0.22482 0.67276 0.86856 0.0
C271 C 0.27648 0.76942 0.94083 0.0
N272 N 0.26743 0.70818 0.73872 0.0
N273 N 0.24301 0.73171 0.0755 0.0
H274 H 0.31278 0.84854 0.93049 0.0
H275 H 0.28499 0.8257 0.02743 0.0
H276 H 0.2185 0.70161 0.11287 0.0
H277 H 0.26403 0.76536 0.10773 0.0
H278 H 0.25391 0.67317 0.71049 0.0
H279 H 0.28914 0.73859 0.70032 0.0
H280 H 0.18667 0.62239 0.76866 0.0
H281 H 0.16493 0.59732 0.8674 0.0
C282 C 0.61147 0.33463 0.07348 0.0
C283 C 0.56115 0.32014 0.04966 0.0
C284 C 0.53584 0.23281 0.08686 0.0
C285 C 0.58436 0.24952 0.12184 0.0
N286 N 0.66266 0.31971 0.17049 0.0
N287 N 0.47285 0.25566 0.05158 0.0
C288 C 0.62034 0.3015 0.12217 0.0
C289 C 0.52241 0.26921 0.06114 0.0
N290 N 0.65152 0.3787 0.04608 0.0
N291 N 0.50328 0.18261 0.07504 0.0
H292 H 0.46088 0.28117 0.03686 0.0
H293 H 0.4434 0.21995 0.06703 0.0
H294 H 0.51221 0.15493 0.09068 0.0
H295 H 0.46953 0.16899 0.04228 0.0
H296 H 0.68885 0.38818 0.05713 0.0
H297 H 0.64812 0.4021 1.00271 0.0
H298 H 0.68792 0.35816 0.17738 0.0
H299 H 0.6691 0.29699 0.21129 0.0
loop_
_geom_bond_atom_site_label_1
_geom_bond_atom_site_label_2
_geom_bond_distance
_geom_bond_site_symmetry_2
_ccdc_geom_bond_type
Co0 O1 2.216 . S
Co0 O2 2.091 . S
Co0 O4 2.004 . S
Co0 O10 2.021 . S
Co0 O12 2.137 . S
Co0 O13 2.244 . S
O1 Co0 2.216 . S
O1 C8 1.247 . S
O2 Co0 2.091 . S
O2 C8 1.261 . S
C3 O12 1.247 . S
C3 O13 1.272 . S
O4 Co0 2.004 . S
O4 C9 1.259 1_554 S
Co5 O6 2.061 . S
Co5 O11 2.052 . S
Co5 O13 2.135 1_556 S
O6 Co5 2.061 . S
O6 C9 1.235 . S
C7 O10 1.238 1_556 S
C7 O11 1.241 . S
C8 O1 1.247 . S
C8 O2 1.261 . S
C9 O4 1.259 1_556 S
C9 O6 1.235 . S
O10 Co0 2.021 . S
O10 C7 1.238 1_554 S
O11 Co5 2.052 . S
O11 C7 1.241 . S
O12 Co0 2.137 . S
O12 C3 1.247 . S
O13 Co0 2.244 . S
O13 C3 1.272 . S
O13 Co5 2.135 1_554 S
Co14 O15 2.216 . S
Co14 O16 2.091 . S
Co14 O18 2.004 . S
Co14 O24 2.021 . S
Co14 O26 2.137 . S
Co14 O27 2.244 . S
O15 Co14 2.216 . S
O15 C22 1.247 . S
O16 Co14 2.091 . S
O16 C22 1.261 . S
C17 O26 1.247 . S
C17 O27 1.272 . S
O18 Co14 2.004 . S
O18 C23 1.259 . S
Co19 O20 2.061 . S
Co19 O25 2.052 . S
Co19 O27 2.135 . S
O20 Co19 2.061 . S
O20 C23 1.235 . S
C21 O24 1.238 . S
C21 O25 1.241 . S
C22 O15 1.247 . S
C22 O16 1.261 . S
C23 O18 1.259 . S
C23 O20 1.235 . S
O24 Co14 2.021 . S
O24 C21 1.238 . S
O25 Co19 2.052 . S
O25 C21 1.241 . S
O26 Co14 2.137 . S
O26 C17 1.247 . S
O27 Co14 2.244 . S
O27 C17 1.272 . S
O27 Co19 2.135 . S
Co28 O29 2.216 . S
Co28 O30 2.091 . S
Co28 O32 2.004 . S
Co28 O38 2.021 . S
Co28 O40 2.137 . S
Co28 O41 2.244 . S
O29 Co28 2.216 . S
O29 C36 1.247 . S
O30 Co28 2.091 . S
O30 C36 1.261 . S
C31 O40 1.247 . S
C31 O41 1.272 . S
O32 Co28 2.004 . S
O32 C37 1.259 . S
Co33 O34 2.061 . S
Co33 O39 2.052 . S
Co33 O41 2.135 . S
O34 Co33 2.061 . S
O34 C37 1.235 . S
C35 O38 1.238 . S
C35 O39 1.241 . S
C36 O29 1.247 . S
C36 O30 1.261 . S
C37 O32 1.259 . S
C37 O34 1.235 . S
O38 Co28 2.021 . S
O38 C35 1.238 . S
O39 Co33 2.052 . S
O39 C35 1.241 . S
O40 Co28 2.137 . S
O40 C31 1.247 . S
O41 Co28 2.244 . S
O41 C31 1.272 . S
O41 Co33 2.135 . S
Co42 O43 2.216 . S
Co42 O44 2.091 . S
Co42 O46 2.004 . S
Co42 O52 2.021 . S
Co42 O54 2.137 . S
Co42 O55 2.244 . S
O43 Co42 2.216 . S
O43 C50 1.247 . S
O44 Co42 2.091 . S
O44 C50 1.261 . S
C45 O54 1.247 . S
C45 O55 1.272 . S
O46 Co42 2.004 . S
O46 C51 1.259 . S
Co47 O48 2.061 . S
Co47 O53 2.052 . S
Co47 O55 2.135 . S
O48 Co47 2.061 . S
O48 C51 1.235 . S
C49 O52 1.238 . S
C49 O53 1.241 . S
C50 O43 1.247 . S
C50 O44 1.261 . S
C51 O46 1.259 . S
C51 O48 1.235 . S
O52 Co42 2.021 . S
O52 C49 1.238 . S
O53 Co47 2.052 . S
O53 C49 1.241 . S
O54 Co42 2.137 . S
O54 C45 1.247 . S
O55 Co42 2.244 . S
O55 C45 1.272 . S
O55 Co47 2.135 . S
Co56 O57 2.216 . S
Co56 O58 2.091 . S
Co56 O60 2.004 . S
Co56 O66 2.021 . S
Co56 O68 2.137 . S
Co56 O69 2.244 . S
O57 Co56 2.216 . S
O57 C64 1.247 . S
O58 Co56 2.091 . S
O58 C64 1.261 . S
C59 O68 1.247 . S
C59 O69 1.272 . S
O60 Co56 2.004 . S
O60 C65 1.259 . S
Co61 O62 2.061 . S
Co61 O67 2.052 . S
Co61 O69 2.135 . S
O62 Co61 2.061 . S
O62 C65 1.235 . S
C63 O66 1.238 . S
C63 O67 1.241 . S
C64 O57 1.247 . S
C64 O58 1.261 . S
C65 O60 1.259 . S
C65 O62 1.235 . S
O66 Co56 2.021 . S
O66 C63 1.238 . S
O67 Co61 2.052 . S
O67 C63 1.241 . S
O68 Co56 2.137 . S
O68 C59 1.247 . S
O69 Co56 2.244 . S
O69 C59 1.272 . S
O69 Co61 2.135 . S
Co70 O71 2.216 1_556 S
Co70 O72 2.091 1_556 S
Co70 O74 2.004 . S
Co70 O80 2.021 . S
Co70 O82 2.137 1_556 S
Co70 O83 2.244 . S
O71 Co70 2.216 1_554 S
O71 C78 1.247 . S
O72 Co70 2.091 1_554 S
O72 C78 1.261 . S
C73 O82 1.247 1_556 S
C73 O83 1.272 . S
O74 Co70 2.004 . S
O74 C79 1.259 . S
Co75 O76 2.061 . S
Co75 O81 2.052 . S
Co75 O83 2.135 . S
O76 Co75 2.061 . S
O76 C79 1.235 . S
C77 O80 1.238 . S
C77 O81 1.241 . S
C78 O71 1.247 . S
C78 O72 1.261 . S
C79 O74 1.259 . S
C79 O76 1.235 . S
O80 Co70 2.021 . S
O80 C77 1.238 . S
O81 Co75 2.052 . S
O81 C77 1.241 . S
O82 Co70 2.137 1_554 S
O82 C73 1.247 1_554 S
O83 Co70 2.244 . S
O83 C73 1.272 . S
O83 Co75 2.135 . S
C84 C85 1.363 . S
C84 C90 1.379 1_455 S
C84 N92 1.356 . S
C85 C84 1.363 . S
C85 C91 1.363 . S
C86 C87 1.363 . S
C86 C91 1.379 1_655 S
C86 N93 1.356 . S
C87 C86 1.363 . S
C87 C90 1.363 . S
N88 C90 1.356 . S
N88 H100 0.984 . S
N88 H101 0.985 . S
N89 C91 1.356 . S
N89 H94 0.984 . S
N89 H95 0.985 . S
C90 C84 1.379 1_655 S
C90 C87 1.363 . S
C90 N88 1.356 . S
C91 C85 1.363 . S
C91 C86 1.379 1_455 S
C91 N89 1.356 . S
N92 C84 1.356 . S
N92 H98 0.984 . S
N92 H99 0.984 . S
N93 C86 1.356 . S
N93 H96 0.984 . S
N93 H97 0.985 . S
H94 N89 0.984 . S
H95 N89 0.985 . S
H96 N93 0.984 . S
H97 N93 0.985 . S
H98 N92 0.984 . S
H99 N92 0.984 . S
H100 N88 0.984 . S
H101 N88 0.985 . S
C102 C103 1.363 . S
C102 C108 1.379 1_566 S
C102 N110 1.356 . S
C103 C102 1.363 . S
C103 C109 1.363 . S
C104 C105 1.363 . S
C104 C109 1.379 1_544 S
C104 N111 1.356 . S
C105 C104 1.363 . S
C105 C108 1.363 . S
N106 C108 1.356 . S
N106 H118 0.984 . S
N106 H119 0.985 . S
N107 C109 1.356 . S
N107 H112 0.984 . S
N107 H113 0.985 . S
C108 C102 1.379 1_544 S
C108 C105 1.363 . S
C108 N106 1.356 . S
C109 C103 1.363 . S
C109 C104 1.379 1_566 S
C109 N107 1.356 . S
N110 C102 1.356 . S
N110 H116 0.984 . S
N110 H117 0.984 . S
N111 C104 1.356 . S
N111 H114 0.984 . S
N111 H115 0.985 . S
H112 N107 0.984 . S
H113 N107 0.985 . S
H114 N111 0.984 . S
H115 N111 0.985 . S
H116 N110 0.984 . S
H117 N110 0.984 . S
H118 N106 0.984 . S
H119 N106 0.985 . S
C120 C121 1.363 . S
C120 C126 1.379 . S
C120 N128 1.356 . S
C121 C120 1.363 . S
C121 C127 1.363 . S
C122 C123 1.363 . S
C122 C127 1.379 . S
C122 N129 1.356 . S
C123 C122 1.363 . S
C123 C126 1.363 . S
N124 C126 1.356 . S
N124 H136 0.984 1_554 S
N124 H137 0.985 1_554 S
N125 C127 1.356 . S
N125 H130 0.984 . S
N125 H131 0.985 . S
C126 C120 1.379 . S
C126 C123 1.363 . S
C126 N124 1.356 . S
C127 C121 1.363 . S
C127 C122 1.379 . S
C127 N125 1.356 . S
N128 C120 1.356 . S
N128 H134 0.984 . S
N128 H135 0.984 . S
N129 C122 1.356 . S
N129 H132 0.984 . S
N129 H133 0.985 . S
H130 N125 0.984 . S
H131 N125 0.985 . S
H132 N129 0.984 . S
H133 N129 0.985 . S
H134 N128 0.984 . S
H135 N128 0.984 . S
H136 N124 0.984 1_556 S
H137 N124 0.985 1_556 S
C138 C139 1.363 . S
C138 C144 1.379 1_655 S
C138 N146 1.356 . S
C139 C138 1.363 . S
C139 C145 1.363 . S
C140 C141 1.363 . S
C140 C145 1.379 1_455 S
C140 N147 1.356 . S
C141 C140 1.363 . S
C141 C144 1.363 . S
N142 C144 1.356 . S
N142 H154 0.984 . S
N142 H155 0.985 . S
N143 C145 1.356 . S
N143 H148 0.984 . S
N143 H149 0.985 . S
C144 C138 1.379 1_455 S
C144 C141 1.363 . S
C144 N142 1.356 . S
C145 C139 1.363 . S
C145 C140 1.379 1_655 S
C145 N143 1.356 . S
N146 C138 1.356 . S
N146 H152 0.984 . S
N146 H153 0.984 . S
N147 C140 1.356 . S
N147 H150 0.984 . S
N147 H151 0.985 . S
H148 N143 0.984 . S
H149 N143 0.985 . S
H150 N147 0.984 . S
H151 N147 0.985 . S
H152 N146 0.984 . S
H153 N146 0.984 . S
H154 N142 0.984 . S
H155 N142 0.985 . S
C156 C157 1.363 . S
C156 C162 1.379 . S
C156 N164 1.356 . S
C157 C156 1.363 . S
C157 C163 1.363 1_545 S
C158 C159 1.363 . S
C158 C163 1.379 . S
C158 N165 1.356 . S
C159 C158 1.363 . S
C159 C162 1.363 1_565 S
N160 C162 1.355 1_565 S
N160 H172 0.983 1_565 S
N160 H173 0.988 . S
N161 C163 1.356 . S
N161 H166 0.984 1_565 S
N161 H167 0.985 . S
C162 C156 1.379 . S
C162 C159 1.363 1_545 S
C162 N160 1.355 1_545 S
C163 C157 1.363 1_565 S
C163 C158 1.379 . S
C163 N161 1.356 . S
N164 C156 1.356 . S
N164 H170 0.984 . S
N164 H171 0.984 . S
N165 C158 1.356 . S
N165 H168 0.984 . S
N165 H169 0.985 . S
H166 N161 0.984 1_545 S
H167 N161 0.985 . S
H168 N165 0.984 . S
H169 N165 0.985 . S
H170 N164 0.984 . S
H171 N164 0.984 . S
H172 N160 0.983 1_545 S
H173 N160 0.988 . S
C174 C175 1.363 . S
C174 C180 1.379 . S
C174 N182 1.356 . S
C175 C174 1.363 . S
C175 C181 1.363 . S
C176 C177 1.363 . S
C176 C181 1.379 . S
C176 N183 1.356 . S
C177 C176 1.363 . S
C177 C180 1.363 . S
N178 C180 1.356 . S
N178 H190 0.984 . S
N178 H191 0.985 . S
N179 C181 1.356 . S
N179 H184 0.984 . S
N179 H185 0.985 . S
C180 C174 1.379 . S
C180 C177 1.363 . S
C180 N178 1.356 . S
C181 C175 1.363 . S
C181 C176 1.379 . S
C181 N179 1.356 . S
N182 C174 1.356 . S
N182 H188 0.984 . S
N182 H189 0.984 . S
N183 C176 1.356 . S
N183 H186 0.984 . S
N183 H187 0.985 . S
H184 N179 0.984 . S
H185 N179 0.985 . S
H186 N183 0.984 . S
H187 N183 0.985 . S
H188 N182 0.984 . S
H189 N182 0.984 . S
H190 N178 0.984 . S
H191 N178 0.985 . S
C192 C193 1.363 . S
C192 C198 1.379 . S
C192 N200 1.356 . S
C193 C192 1.363 . S
C193 C199 1.363 . S
C194 C195 1.363 . S
C194 C199 1.379 . S
C194 N201 1.356 . S
C195 C194 1.363 . S
C195 C198 1.363 . S
N196 C198 1.356 . S
N196 H208 0.984 . S
N196 H209 0.985 . S
N197 C199 1.356 . S
N197 H202 0.984 . S
N197 H203 0.985 . S
C198 C192 1.379 . S
C198 C195 1.363 . S
C198 N196 1.356 . S
C199 C193 1.363 . S
C199 C194 1.379 . S
C199 N197 1.356 . S
N200 C192 1.356 . S
N200 H206 0.984 . S
N200 H207 0.984 . S
N201 C194 1.356 . S
N201 H204 0.984 . S
N201 H205 0.985 . S
H202 N197 0.984 . S
H203 N197 0.985 . S
H204 N201 0.984 . S
H205 N201 0.985 . S
H206 N200 0.984 . S
H207 N200 0.984 . S
H208 N196 0.984 . S
H209 N196 0.985 . S
C210 C211 1.363 . S
C210 C216 1.379 . S
C210 N218 1.356 . S
C211 C210 1.363 . S
C211 C217 1.363 . S
C212 C213 1.363 . S
C212 C217 1.379 . S
C212 N219 1.356 . S
C213 C212 1.363 . S
C213 C216 1.363 . S
N214 C216 1.356 . S
N214 H226 0.984 . S
N214 H227 0.985 . S
N215 C217 1.356 . S
N215 H220 0.984 . S
N215 H221 0.985 . S
C216 C210 1.379 . S
C216 C213 1.363 . S
C216 N214 1.356 . S
C217 C211 1.363 . S
C217 C212 1.379 . S
C217 N215 1.356 . S
N218 C210 1.356 . S
N218 H224 0.984 . S
N218 H225 0.984 . S
N219 C212 1.356 . S
N219 H222 0.984 . S
N219 H223 0.985 . S
H220 N215 0.984 . S
H221 N215 0.985 . S
H222 N219 0.984 . S
H223 N219 0.985 . S
H224 N218 0.984 . S
H225 N218 0.984 . S
H226 N214 0.984 . S
H227 N214 0.985 . S
C228 C229 1.363 . S
C228 C234 1.379 . S
C228 N236 1.356 . S
C229 C228 1.363 . S
C229 C235 1.363 . S
C230 C231 1.363 . S
C230 C235 1.379 . S
C230 N237 1.356 . S
C231 C230 1.363 . S
C231 C234 1.363 . S
N232 C234 1.356 . S
N232 H244 0.984 . S
N232 H245 0.985 . S
N233 C235 1.356 . S
N233 H238 0.984 . S
N233 H239 0.985 . S
C234 C228 1.379 . S
C234 C231 1.363 . S
C234 N232 1.356 . S
C235 C229 1.363 . S
C235 C230 1.379 . S
C235 N233 1.356 . S
N236 C228 1.356 . S
N236 H242 0.984 . S
N236 H243 0.984 . S
N237 C230 1.356 . S
N237 H240 0.984 . S
N237 H241 0.985 . S
H238 N233 0.984 . S
H239 N233 0.985 . S
H240 N237 0.984 . S
H241 N237 0.985 . S
H242 N236 0.984 . S
H243 N236 0.984 . S
H244 N232 0.984 . S
H245 N232 0.985 . S
C246 C247 1.363 . S
C246 C252 1.379 . S
C246 N254 1.356 . S
C247 C246 1.363 . S
C247 C253 1.363 . S
C248 C249 1.363 . S
C248 C253 1.379 . S
C248 N255 1.356 . S
C249 C248 1.363 . S
C249 C252 1.363 . S
N250 C252 1.356 . S
N250 H262 0.984 . S
N250 H263 0.985 . S
N251 C253 1.356 . S
N251 H256 0.984 . S
N251 H257 0.985 . S
C252 C246 1.379 . S
C252 C249 1.363 . S
C252 N250 1.356 . S
C253 C247 1.363 . S
C253 C248 1.379 . S
C253 N251 1.356 . S
N254 C246 1.356 . S
N254 H260 0.984 . S
N254 H261 0.984 . S
N255 C248 1.356 . S
N255 H258 0.984 . S
N255 H259 0.985 . S
H256 N251 0.984 . S
H257 N251 0.985 . S
H258 N255 0.984 . S
H259 N255 0.985 . S
H260 N254 0.984 . S
H261 N254 0.984 . S
H262 N250 0.984 . S
H263 N250 0.985 . S
C264 C265 1.363 . S
C264 C270 1.379 . S
C264 N272 1.356 . S
C265 C264 1.363 . S
C265 C271 1.363 . S
C266 C267 1.363 . S
C266 C271 1.379 . S
C266 N273 1.356 1_556 S
C267 C266 1.363 . S
C267 C270 1.363 . S
N268 C270 1.356 . S
N268 H280 0.984 . S
N268 H281 0.985 . S
N269 C271 1.356 . S
N269 H274 0.984 . S
N269 H275 0.985 1_556 S
C270 C264 1.379 . S
C270 C267 1.363 . S
C270 N268 1.356 . S
C271 C265 1.363 . S
C271 C266 1.379 . S
C271 N269 1.356 . S
N272 C264 1.356 . S
N272 H278 0.984 . S
N272 H279 0.984 . S
N273 C266 1.356 1_554 S
N273 H276 0.984 . S
N273 H277 0.985 . S
H274 N269 0.984 . S
H275 N269 0.985 1_554 S
H276 N273 0.984 . S
H277 N273 0.985 . S
H278 N272 0.984 . S
H279 N272 0.984 . S
H280 N268 0.984 . S
H281 N268 0.985 . S
C282 C283 1.363 . S
C282 C288 1.379 . S
C282 N290 1.356 . S
C283 C282 1.363 . S
C283 C289 1.363 . S
C284 C285 1.363 . S
C284 C289 1.379 . S
C284 N291 1.356 . S
C285 C284 1.363 . S
C285 C288 1.363 . S
N286 C288 1.356 . S
N286 H298 0.984 . S
N286 H299 0.985 . S
N287 C289 1.356 . S
N287 H292 0.984 1_554 S
N287 H293 0.985 . S
C288 C282 1.379 . S
C288 C285 1.363 . S
C288 N286 1.356 . S
C289 C283 1.363 . S
C289 C284 1.379 . S
C289 N287 1.356 . S
N290 C282 1.356 . S
N290 H296 0.984 . S
N290 H297 0.984 1_554 S
N291 C284 1.356 . S
N291 H294 0.984 . S
N291 H295 0.985 . S
H292 N287 0.984 1_556 S
H293 N287 0.985 . S
H294 N291 0.984 . S
H295 N291 0.985 . S
H296 N290 0.984 . S
H297 N290 0.984 1_556 S
H298 N286 0.984 . S
H299 N286 0.985 . S
C85 C7 1.368 . S
C87 C50 1.382 . S
C103 C64 1.382 . S
C105 C21 1.368 . S
C121 C35 1.368 . S
C123 C78 1.382 . S
C139 C49 1.368 . S
C141 C8 1.382 . S
C157 C22 1.382 . S
C159 C63 1.368 . S
C175 C77 1.368 . S
C177 C36 1.382 . S
C193 C3 1.330 . S
C195 C37 1.307 . S
C211 C17 1.330 . S
C213 C51 1.307 . S
C229 C65 1.306 . S
C231 C31 1.330 . S
C247 C79 1.307 . S
C249 C45 1.330 . S
C265 C59 1.330 . S
C267 C9 1.307 . S
C283 C73 1.330 1_554 S
C285 C23 1.306 . S
