# Generated by pormake.
# Topology snk, (6)-cn, num edge types: 1
# Building blocks:
#     Node 0, Type 0, BuildingBlock: CUKXOW_clean_sbu_0, # of connection points: 6
#     Node 1, Type 0, BuildingBlock: CUKXOW_clean_sbu_0, # of connection points: 6
#     Node 2, Type 0, BuildingBlock: CUKXOW_clean_sbu_0, # of connection points: 6
#     Node 3, Type 0, BuildingBlock: CUKXOW_clean_sbu_0, # of connection points: 6
#     Node 4, Type 0, BuildingBlock: CUKXOW_clean_sbu_0, # of connection points: 6
#     Node 5, Type 0, BuildingBlock: CUKXOW_clean_sbu_0, # of connection points: 6
#     Node 6, Type 0, BuildingBlock: CUKXOW_clean_sbu_0, # of connection points: 6
#     Node 7, Type 0, BuildingBlock: CUKXOW_clean_sbu_0, # of connection points: 6
#     Edge 8, Type (0, 0), BuildingBlock: XUDNAN_clean_linker_2, # of connection points: 2
#     Edge 9, Type (0, 0), BuildingBlock: XUDNAN_clean_linker_2, # of connection points: 2
#     Edge 10, Type (0, 0), BuildingBlock: XUDNAN_clean_linker_2, # of connection points: 2
#     Edge 11, Type (0, 0), BuildingBlock: XUDNAN_clean_linker_2, # of connection points: 2
#     Edge 12, Type (0, 0), BuildingBlock: XUDNAN_clean_linker_2, # of connection points: 2
#     Edge 13, Type (0, 0), BuildingBlock: XUDNAN_clean_linker_2, # of connection points: 2
#     Edge 14, Type (0, 0), BuildingBlock: XUDNAN_clean_linker_2, # of connection points: 2
#     Edge 15, Type (0, 0), BuildingBlock: XUDNAN_clean_linker_2, # of connection points: 2
#     Edge 16, Type (0, 0), BuildingBlock: XUDNAN_clean_linker_2, # of connection points: 2
#     Edge 17, Type (0, 0), BuildingBlock: XUDNAN_clean_linker_2, # of connection points: 2
#     Edge 18, Type (0, 0), BuildingBlock: XUDNAN_clean_linker_2, # of connection points: 2
#     Edge 19, Type (0, 0), BuildingBlock: XUDNAN_clean_linker_2, # of connection points: 2
#     Edge 20, Type (0, 0), BuildingBlock: XUDNAN_clean_linker_2, # of connection points: 2
#     Edge 21, Type (0, 0), BuildingBlock: XUDNAN_clean_linker_2, # of connection points: 2
#     Edge 22, Type (0, 0), BuildingBlock: XUDNAN_clean_linker_2, # of connection points: 2
#     Edge 23, Type (0, 0), BuildingBlock: XUDNAN_clean_linker_2, # of connection points: 2
#     Edge 24, Type (0, 0), BuildingBlock: XUDNAN_clean_linker_2, # of connection points: 2
#     Edge 25, Type (0, 0), BuildingBlock: XUDNAN_clean_linker_2, # of connection points: 2
#     Edge 26, Type (0, 0), BuildingBlock: XUDNAN_clean_linker_2, # of connection points: 2
#     Edge 27, Type (0, 0), BuildingBlock: XUDNAN_clean_linker_2, # of connection points: 2
#     Edge 28, Type (0, 0), BuildingBlock: XUDNAN_clean_linker_2, # of connection points: 2
#     Edge 29, Type (0, 0), BuildingBlock: XUDNAN_clean_linker_2, # of connection points: 2
#     Edge 30, Type (0, 0), BuildingBlock: XUDNAN_clean_linker_2, # of connection points: 2
#     Edge 31, Type (0, 0), BuildingBlock: XUDNAN_clean_linker_2, # of connection points: 2
# Relax obj value: 0.075
# Max RMSD: 0.180
# Mean RMSD: 0.129
data_MOF--net-snk--node1-CUKXOW_clean_sbu_0--edge1-XUDNAN_clean_linker_2
_symmetry_space_group_name_H-M    P1
_symmetry_Int_Tables_number       1
_symmetry_cell_setting            triclinic
loop_
_symmetry_equiv_pos_as_xyz
'x, y, z'
_cell_length_a     45.750828
_cell_length_b     45.798328
_cell_length_c     14.562702
_cell_angle_alpha  99.137152
_cell_angle_beta   99.161777
_cell_angle_gamma 90.676639
loop_
_atom_site_label
_atom_site_type_symbol
_atom_site_fract_x
_atom_site_fract_y
_atom_site_fract_z
_atom_type_partial_charge
Tb0 Tb 0.03065 0.03546 0.57859 0.0
C1 C 0.05629 0.97238 0.59229 0.0
Tb2 Tb 0.98676 0.9808 0.55967 0.0
O3 O 0.03869 0.04499 0.7371 0.0
O4 O 0.01163 0.01111 0.66374 0.0
O5 O 0.06125 0.99932 0.574 0.0
C6 C 0.95721 0.93632 0.60002 0.0
O7 O 0.02978 0.96262 0.60266 0.0
C8 C 0.99433 0.98952 0.38843 0.0
C9 C 0.96175 0.04503 0.55676 0.0
O10 O 0.98254 0.93453 0.57122 0.0
O11 O 0.94816 0.96325 0.60588 0.0
O12 O 0.97738 0.96897 0.40656 0.0
O13 O 0.0058 1.00429 0.46774 0.0
O14 O 0.95729 0.01789 0.57539 0.0
O15 O 0.98801 0.05541 0.5452 0.0
C16 C 0.06819 0.0734 0.53785 0.0
O17 O 0.05617 0.07726 0.61347 0.0
O18 O 0.05866 0.04865 0.48479 0.0
C19 C 0.02148 0.02325 0.74641 0.0
Tb20 Tb 0.23279 0.77673 0.7753 0.0
C21 C 0.30116 0.79829 0.83745 0.0
Tb22 Tb 0.2817 0.72901 0.80681 0.0
O23 O 0.22623 0.7869 0.9267 0.0
O24 O 0.25623 0.75773 0.88429 0.0
O25 O 0.27399 0.80541 0.80092 0.0
C26 C 0.32731 0.69992 0.88357 0.0
O27 O 0.30688 0.77123 0.8563 0.0
C28 C 0.2703 0.73452 0.6246 0.0
C29 C 0.21362 0.70708 0.75202 0.0
O30 O 0.32893 0.72377 0.84724 0.0
O31 O 0.29949 0.6919 0.87683 0.0
O32 O 0.28843 0.71628 0.66099 0.0
O33 O 0.25882 0.74816 0.69233 0.0
O34 O 0.24088 0.70187 0.79383 0.0
O35 O 0.20644 0.73375 0.72923 0.0
C36 C 0.19739 0.81582 0.69931 0.0
O37 O 0.1897 0.79741 0.75136 0.0
O38 O 0.22477 0.81172 0.68874 0.0
C39 C 0.24573 0.76862 0.95623 0.0
Tb40 Tb 0.48111 0.0259 1.02431 0.0
C41 C 0.46314 0.95769 0.96604 0.0
Tb42 Tb 0.5324 0.98071 0.9972 0.0
O43 O 0.47033 0.03096 0.87165 0.0
O44 O 0.50339 0.00556 0.91866 0.0
O45 O 0.45478 0.98405 1.0051 0.0
C46 C 0.57037 0.94519 0.91527 0.0
O47 O 0.4907 0.95338 0.94687 0.0
C48 C 0.5239 0.98885 0.17624 0.0
C49 C 0.55 0.04889 0.06901 0.0
O50 O 0.55001 0.93679 0.95926 0.0
O51 O 0.56924 0.97361 0.91698 0.0
O52 O 0.54365 0.97225 0.1414 0.0
O53 O 0.51044 1.00085 0.10918 0.0
O54 O 0.55885 0.02294 1.02921 0.0
O55 O 0.52218 0.05266 0.08423 0.0
C56 C 0.44915 0.07085 0.0885 0.0
O57 O 0.47239 0.07273 0.04919 0.0
O58 O 0.4434 0.04311 0.09211 0.0
C59 C 0.49093 0.01398 0.84481 0.0
Tb60 Tb 0.23645 0.224 0.25246 0.0
C61 C 0.30456 0.22128 0.23541 0.0
Tb62 Tb 0.27409 0.28324 0.27218 0.0
O63 O 0.22563 0.21334 0.09916 0.0
O64 O 0.25161 0.25071 0.16145 0.0
O65 O 0.28056 0.20723 0.24953 0.0
C66 C 0.29948 0.33186 0.24291 0.0
O67 O 0.30597 0.25019 0.2327 0.0
C68 C 0.2667 0.26946 0.43977 0.0
C69 C 0.20538 0.28594 0.2803 0.0
O70 O 0.31198 0.3137 0.29569 0.0
O71 O 0.27288 0.32225 0.20396 0.0
O72 O 0.282 0.29256 0.43068 0.0
O73 O 0.25808 0.25672 0.35684 0.0
O74 O 0.2295 0.29979 0.26567 0.0
O75 O 0.20397 0.25716 0.28548 0.0
C76 C 0.21758 0.17762 0.31464 0.0
O77 O 0.20278 0.18975 0.24753 0.0
O78 O 0.24273 0.1917 0.34682 0.0
C79 C 0.24008 0.23601 0.08194 0.0
Tb80 Tb 0.73238 0.27973 0.28986 0.0
C81 C 0.801 0.29677 0.3507 0.0
Tb82 Tb 0.77726 0.22821 0.31664 0.0
O83 O 0.72592 0.2895 0.4414 0.0
O84 O 0.75233 0.25722 0.3954 0.0
O85 O 0.77491 0.30514 0.30942 0.0
C86 C 0.81175 0.18903 0.39578 0.0
O87 O 0.80494 0.26931 0.3705 0.0
C88 C 0.76968 0.23737 0.13815 0.0
C89 C 0.70895 0.2109 0.24387 0.0
O90 O 0.82064 0.20921 0.35204 0.0
O91 O 0.78345 0.19112 0.39578 0.0
O92 O 0.78616 0.21753 0.17275 0.0
O93 O 0.75757 0.25067 0.20511 0.0
O94 O 0.73501 0.20192 0.28243 0.0
O95 O 0.70494 0.23892 0.23094 0.0
C96 C 0.69006 0.31431 0.22262 0.0
O97 O 0.68606 0.28859 0.24572 0.0
O98 O 0.71838 0.32086 0.23654 0.0
C99 C 0.74322 0.26917 0.46859 0.0
Tb100 Tb 0.7106 0.7191 0.69197 0.0
C101 C 0.77365 0.69279 0.68635 0.0
Tb102 Tb 0.7663 0.76112 0.70794 0.0
O103 O 0.69892 0.7115 0.53352 0.0
O104 O 0.7337 0.73827 0.60414 0.0
O105 O 0.74779 0.68976 0.71536 0.0
C106 C 0.811 0.78999 0.66581 0.0
O107 O 0.78195 0.71766 0.66073 0.0
C108 C 0.7586 0.75244 0.88003 0.0
C109 C 0.70422 0.78917 0.71619 0.0
O110 O 0.8123 0.76401 0.69016 0.0
O111 O 0.7845 0.79988 0.66508 0.0
O112 O 0.77945 0.76899 0.86163 0.0
O113 O 0.74329 0.74198 0.80089 0.0
O114 O 0.73133 0.79275 0.69709 0.0
O115 O 0.69295 0.7631 0.72554 0.0
C116 C 0.66877 0.69123 0.75408 0.0
O117 O 0.67015 0.71933 0.75177 0.0
O118 O 0.6903 0.67849 0.71679 0.0
C119 C 0.72079 0.72842 0.52218 0.0
Tb120 Tb 0.54303 0.53921 0.15819 0.0
C121 C 0.54749 0.47069 0.14262 0.0
Tb122 Tb 0.48678 0.50309 0.13329 0.0
O123 O 0.55515 0.53015 0.30326 0.0
O124 O 0.5111 0.53306 0.24539 0.0
O125 O 0.56069 0.4954 0.13064 0.0
C126 C 0.4383 0.47965 0.17223 0.0
O127 O 0.51947 0.46953 0.1558 0.0
C128 C 0.49887 0.50363 0.96232 0.0
C129 C 0.48192 0.56959 0.11505 0.0
O130 O 0.46502 0.47478 0.21091 0.0
O131 O 0.43902 0.49686 0.11033 0.0
O132 O 0.47682 0.48902 0.98173 0.0
O133 O 0.5142 0.51592 1.03963 0.0
O134 O 0.46919 0.54696 0.14119 0.0
O135 O 0.51039 0.57001 0.10716 0.0
C136 C 0.58685 0.57688 0.15309 0.0
O137 O 0.56617 0.58208 0.20414 0.0
O138 O 0.58282 0.55037 0.10493 0.0
C139 C 0.52807 0.52705 0.31655 0.0
Tb140 Tb 0.98169 0.52676 0.55939 0.0
C141 C 0.96096 0.4582 0.49483 0.0
Tb142 Tb 0.03013 0.47847 0.52853 0.0
O143 O 0.97196 0.53348 0.40802 0.0
O144 O 1.00153 0.504 0.45128 0.0
O145 O 0.95343 0.48526 0.5306 0.0
C146 C 0.0613 0.43471 0.45072 0.0
O147 O 0.98833 0.4526 0.47847 0.0
C148 C 0.02378 0.48887 0.71003 0.0
C149 C 0.05111 0.54673 0.58489 0.0
O150 O 0.03551 0.43201 0.47484 0.0
O151 O 0.06988 0.46256 0.46961 0.0
O152 O 0.04211 0.47086 0.67362 0.0
O153 O 0.01026 0.50062 0.64263 0.0
O154 O 0.05643 0.51977 0.54142 0.0
O155 O 0.02436 0.55357 0.60786 0.0
C156 C 0.94073 0.5609 0.63071 0.0
O157 O 0.95905 0.56886 0.57873 0.0
O158 O 0.94616 0.53404 0.64467 0.0
C159 C 0.99063 0.51434 0.37914 0.0
H160 H 0.08443 0.07759 0.37111 0.0
H161 H 0.10857 0.10658 0.67223 0.0
H162 H 0.15534 0.12946 0.64682 0.0
H163 H 0.15937 0.0629 0.31929 0.0
H164 H 0.15192 0.07698 0.20945 0.0
H165 H 0.12241 0.05988 0.25308 0.0
H166 H 0.09192 0.10728 0.24434 0.0
H167 H 0.1213 0.12406 0.19991 0.0
H168 H 0.10847 0.14254 0.30409 0.0
H169 H 0.19873 0.14876 0.58855 0.0
H170 H 0.23023 0.17399 0.50016 0.0
H171 H 0.17507 0.13566 0.23727 0.0
C172 C 0.09967 0.08875 0.43138 0.0
C173 C 0.09342 0.09044 0.52324 0.0
C174 C 0.11327 0.10544 0.60116 0.0
C175 C 0.13996 0.11794 0.58757 0.0
C176 C 0.14594 0.1152 0.49582 0.0
C177 C 0.12604 0.10162 0.4189 0.0
C178 C 0.13604 0.1046 0.32702 0.0
C179 C 0.14283 0.07429 0.27412 0.0
C180 C 0.11308 0.12059 0.2653 0.0
C181 C 0.16405 0.12322 0.36422 0.0
C182 C 0.17008 0.12793 0.46173 0.0
C183 C 0.19438 0.14518 0.51227 0.0
C184 C 0.21213 0.15928 0.46167 0.0
C185 C 0.20458 0.15666 0.36271 0.0
C186 C 0.18107 0.13768 0.31311 0.0
H187 H 0.05836 0.91993 0.66246 0.0
H188 H 0.11078 0.97851 0.53997 0.0
H189 H 0.15158 0.9437 0.54765 0.0
H190 H 0.11872 0.89861 0.82513 0.0
H191 H 0.10471 0.86101 0.81309 0.0
H192 H 0.07942 0.89021 0.79563 0.0
H193 H 0.05772 0.86187 0.62983 0.0
H194 H 0.08308 0.83266 0.64649 0.0
H195 H 0.08213 0.85111 0.54562 0.0
H196 H 0.18655 0.90213 0.5668 0.0
H197 H 0.21452 0.85882 0.60741 0.0
H198 H 0.14002 0.82797 0.72155 0.0
C199 C 0.07839 0.92548 0.63709 0.0
C200 C 0.08127 0.95201 0.60033 0.0
C201 C 0.10801 0.95844 0.56869 0.0
C202 C 0.13128 0.93871 0.57233 0.0
C203 C 0.12761 0.91269 0.60832 0.0
C204 C 0.10194 0.90617 0.64096 0.0
C205 C 0.10397 0.87716 0.679 0.0
C206 C 0.10157 0.88205 0.78447 0.0
C207 C 0.08032 0.85436 0.6218 0.0
C208 C 0.13483 0.86839 0.66292 0.0
C209 C 0.14797 0.88906 0.62122 0.0
C210 C 0.17649 0.88584 0.5996 0.0
C211 C 0.19217 0.86114 0.62269 0.0
C212 C 0.17943 0.8401 0.66758 0.0
C213 C 0.15027 0.84368 0.68699 0.0
H214 H 0.30498 0.86172 0.87183 0.0
H215 H 0.35858 0.78418 0.84037 0.0
H216 H 0.40341 0.81605 0.86717 0.0
H217 H 0.34977 0.9087 0.7606 0.0
H218 H 0.34664 0.94211 0.84196 0.0
H219 H 0.3176 0.91367 0.81781 0.0
H220 H 0.32266 0.91142 0.99584 0.0
H221 H 0.35171 0.93986 1.02048 0.0
H222 H 0.3583 0.90491 0.06071 0.0
H223 H 0.4433 0.85513 0.89436 0.0
H224 H 0.47626 0.8995 0.92869 0.0
H225 H 0.40042 0.95473 0.95266 0.0
C226 C 0.32614 0.85149 0.87024 0.0
C227 C 0.32768 0.81994 0.85376 0.0
C228 C 0.35618 0.80792 0.8533 0.0
C229 C 0.38209 0.82596 0.8682 0.0
C230 C 0.37993 0.85658 0.88479 0.0
C231 C 0.35282 0.86948 0.88675 0.0
C232 C 0.35762 0.90329 0.90922 0.0
C233 C 0.34197 0.9178 0.82753 0.0
C234 C 0.34693 0.9156 1.00209 0.0
C235 C 0.39146 0.90708 0.91904 0.0
C236 C 0.40358 0.87963 0.90368 0.0
C237 C 0.43403 0.87675 0.90682 0.0
C238 C 0.45271 0.90235 0.92631 0.0
C239 C 0.44145 0.93111 0.94383 0.0
C240 C 0.4101 0.9333 0.94019 0.0
H241 H 0.39373 0.07248 0.14307 0.0
H242 H 0.46659 0.1281 0.10296 0.0
H243 H 0.43856 0.17254 0.14322 0.0
H244 H 0.33628 0.11427 1.04062 0.0
H245 H 0.31148 0.10967 0.12225 0.0
H246 H 0.33801 0.08198 0.09753 0.0
H247 H 0.35903 0.08741 0.27571 0.0
H248 H 0.33244 0.11505 0.30098 0.0
H249 H 0.37143 0.12343 0.34077 0.0
H250 H 0.40199 0.2109 0.17807 0.0
H251 H 0.35903 0.24085 0.20817 0.0
H252 H 0.30936 0.16101 0.22587 0.0
C253 C 0.40385 0.09406 0.14428 0.0
C254 C 0.43234 0.09687 0.12013 0.0
C255 C 0.44477 0.12543 0.12123 0.0
C256 C 0.42906 0.15086 0.14415 0.0
C257 C 0.40086 0.14745 0.16604 0.0
C258 C 0.38833 0.11985 0.16681 0.0
C259 C 0.35712 0.12258 0.18926 0.0
C260 C 0.33439 0.10615 0.10753 0.0
C261 C 0.35488 0.11146 0.28222 0.0
C262 C 0.35403 0.15586 0.19922 0.0
C263 C 0.3796 0.16977 0.1861 0.0
C264 C 0.38187 0.20031 0.18924 0.0
C265 C 0.35729 0.21715 0.2062 0.0
C266 C 0.33074 0.20343 0.21963 0.0
C267 C 0.32931 0.17233 0.21641 0.0
H268 H 0.89993 0.9347 0.6251 0.0
H269 H 0.9772 0.88122 0.60911 0.0
H270 H 0.94774 0.83711 0.62364 0.0
H271 H 0.86902 0.8979 0.79273 0.0
H272 H 0.83139 0.90082 0.73619 0.0
H273 H 0.85923 0.92828 0.73032 0.0
H274 H 0.84652 0.91833 0.54771 0.0
H275 H 0.81893 0.89056 0.55294 0.0
H276 H 0.84824 0.88125 0.48537 0.0
H277 H 0.90991 0.7992 0.63596 0.0
H278 H 0.86571 0.76956 0.64945 0.0
H279 H 0.81326 0.84793 0.65056 0.0
C280 C 0.91066 0.91376 0.62601 0.0
C281 C 0.94058 0.91103 0.61642 0.0
C282 C 0.95411 0.88344 0.61661 0.0
C283 C 0.93764 0.85839 0.62469 0.0
C284 C 0.90789 0.86162 0.63197 0.0
C285 C 0.89453 0.88858 0.63302 0.0
C286 C 0.86203 0.88592 0.63858 0.0
C287 C 0.85502 0.90431 0.7299 0.0
C288 C 0.84281 0.89452 0.55091 0.0
C289 C 0.8592 0.85321 0.64013 0.0
C290 C 0.88589 0.8396 0.63663 0.0
C291 C 0.88884 0.8095 0.63867 0.0
C292 C 0.86374 0.79293 0.64605 0.0
C293 C 0.83641 0.8067 0.65052 0.0
C294 C 0.83399 0.83701 0.64637 0.0
H295 H 0.95829 0.09753 0.48654 0.0
H296 H 0.90653 0.03625 0.6012 0.0
H297 H 0.86321 0.0675 0.5785 0.0
H298 H 0.92609 0.16504 0.58649 0.0
H299 H 0.92653 0.18222 0.48358 0.0
H300 H 0.95389 0.15576 0.51285 0.0
H301 H 0.93872 0.12447 0.347 0.0
H302 H 0.91134 0.15081 0.3172 0.0
H303 H 0.90052 0.11232 0.30724 0.0
H304 H 0.82495 0.10487 0.53952 0.0
H305 H 0.79454 0.14484 0.48345 0.0
H306 H 0.87094 0.18132 0.3924 0.0
C307 C 0.93797 0.09078 0.50789 0.0
C308 C 0.93597 0.06441 0.54619 0.0
C309 C 0.90873 0.0563 0.57182 0.0
C310 C 0.88397 0.07396 0.55938 0.0
C311 C 0.88668 0.09968 0.52097 0.0
C312 C 0.91298 0.10805 0.49544 0.0
C313 C 0.90974 0.13615 0.45246 0.0
C314 C 0.93028 0.16128 0.51245 0.0
C315 C 0.91541 0.13059 0.3499 0.0
C316 C 0.87747 0.1422 0.45732 0.0
C317 C 0.8646 0.12099 0.49757 0.0
C318 C 0.83484 0.12164 0.50821 0.0
C319 C 0.81774 0.14441 0.47623 0.0
C320 C 0.83041 0.16614 0.43383 0.0
C321 C 0.86071 0.16507 0.42496 0.0
H322 H 0.70583 0.14811 0.21136 0.0
H323 H 0.65079 0.22476 0.21301 0.0
H324 H 0.6062 0.192 0.17103 0.0
H325 H 0.65939 0.1028 1.0089 0.0
H326 H 0.66469 0.06854 0.05443 0.0
H327 H 0.69304 0.09768 0.08684 0.0
H328 H 0.6914 0.09699 0.2631 0.0
H329 H 0.66301 0.06789 0.23123 0.0
H330 H 0.65663 0.10171 0.30606 0.0
H331 H 0.56681 0.15179 0.13416 0.0
H332 H 0.53502 0.10659 0.09379 0.0
H333 H 0.61299 0.05324 0.10408 0.0
C334 C 0.68439 0.15799 0.2029 0.0
C335 C 0.68228 0.18946 0.21608 0.0
C336 C 0.65353 0.20107 0.20335 0.0
C337 C 0.62782 0.18251 0.17961 0.0
C338 C 0.63062 0.15191 0.16721 0.0
C339 C 0.6581 0.13954 0.17735 0.0
C340 C 0.65431 0.10568 0.15712 0.0
C341 C 0.66872 0.09292 0.07174 0.0
C342 C 0.66711 0.09228 0.24459 0.0
C343 C 0.6205 0.10111 0.1348 0.0
C344 C 0.60751 0.12829 0.14214 0.0
C345 C 0.5768 0.13041 0.12774 0.0
C346 C 0.55881 0.10434 0.10497 0.0
C347 C 0.57106 0.07587 0.09519 0.0
C348 C 0.60262 0.07443 0.11018 0.0
H349 H 0.65285 0.79431 0.79313 0.0
H350 H 0.7149 0.84456 0.67651 0.0
H351 H 0.6864 0.88936 0.7095 0.0
H352 H 0.58635 0.83138 0.7079 0.0
H353 H 0.57056 0.83058 0.81329 0.0
H354 H 0.59496 0.80208 0.77602 0.0
H355 H 0.62871 0.81371 0.93894 0.0
H356 H 0.60447 0.84227 0.97667 0.0
H357 H 0.6433 0.85096 0.98212 0.0
H358 H 0.6519 0.92926 0.75946 0.0
H359 H 0.61445 0.9612 0.82501 0.0
H360 H 0.57533 0.88535 0.91131 0.0
C361 C 0.66029 0.81462 0.77334 0.0
C362 C 0.68612 0.81576 0.7316 0.0
C363 C 0.69522 0.843 0.70834 0.0
C364 C 0.67913 0.86861 0.7267 0.0
C365 C 0.65398 0.86676 0.76866 0.0
C366 C 0.6446 0.84047 0.79176 0.0
C367 C 0.61745 0.8447 0.83954 0.0
C368 C 0.59075 0.82608 0.78065 0.0
C369 C 0.62388 0.83749 0.94029 0.0
C370 C 0.61312 0.87751 0.8402 0.0
C371 C 0.63434 0.8898 0.79851 0.0
C372 C 0.63513 0.91985 0.79198 0.0
C373 C 0.61379 0.93782 0.82939 0.0
C374 C 0.59203 0.92575 0.8731 0.0
C375 C 0.59167 0.89516 0.87802 0.0
H376 H 0.62932 0.56894 0.04311 0.0
H377 H 0.58423 0.63628 0.2064 0.0
H378 H 0.60301 0.67421 0.12548 0.0
H379 H 0.69484 0.61913 1.02411 0.0
H380 H 0.6958 0.60044 0.90605 0.0
H381 H 0.68472 0.58024 0.99228 0.0
H382 H 0.63528 0.56361 0.87829 0.0
H383 H 0.64642 0.58415 0.79342 0.0
H384 H 0.61189 0.59167 0.83542 0.0
H385 H 0.61609 0.70156 1.00288 0.0
H386 H 0.63352 0.71998 0.86987 0.0
H387 H 0.67047 0.63473 0.78822 0.0
C388 C 0.62463 0.59188 0.06479 0.0
C389 C 0.60538 0.59989 0.13006 0.0
C390 C 0.59917 0.62992 0.15653 0.0
C391 C 0.60957 0.65155 0.1107 0.0
C392 C 0.6265 0.64257 1.04064 0.0
C393 C 0.63496 0.61368 1.02017 0.0
C394 C 0.6511 0.60931 0.93655 0.0
C395 C 0.68355 0.60185 0.96656 0.0
C396 C 0.63522 0.58575 0.85627 0.0
C397 C 0.64877 0.63974 0.90983 0.0
C398 C 0.63456 0.65862 0.97068 0.0
C399 C 0.62788 0.68723 0.95598 0.0
C400 C 0.6374 0.6973 0.87956 0.0
C401 C 0.65322 0.67863 0.81936 0.0
C402 C 0.65838 0.64937 0.83346 0.0
H403 H 0.69231 0.37379 0.20661 0.0
H404 H 0.63213 0.29763 0.1757 0.0
H405 H 0.58957 0.32889 0.1428 0.0
H406 H 0.64872 0.42499 0.32605 0.0
H407 H 0.65691 0.45567 0.26943 0.0
H408 H 0.6832 0.42705 0.28181 0.0
H409 H 0.68286 0.41804 0.10148 0.0
H410 H 0.65667 0.4468 0.08861 0.0
H411 H 0.64816 0.41016 1.02238 0.0
H412 H 0.55342 0.36839 0.12745 0.0
H413 H 0.5255 0.41396 0.12367 0.0
H414 H 0.60816 0.46543 0.16174 0.0
C415 C 0.67018 0.3637 0.19096 0.0
C416 C 0.66549 0.33327 0.19333 0.0
C417 C 0.63623 0.32087 0.17407 0.0
C418 C 0.61188 0.33844 0.1552 0.0
C419 C 0.61707 0.36844 0.1554 0.0
C420 C 0.64544 0.38104 0.17194 0.0
C421 C 0.6445 0.4142 0.17217 0.0
C422 C 0.6592 0.43149 0.26807 0.0
C423 C 0.6589 0.4228 0.09133 0.0
C424 C 0.61125 0.41822 0.15538 0.0
C425 C 0.59594 0.39145 0.14555 0.0
C426 C 0.56512 0.38947 0.13391 0.0
C427 C 0.54946 0.41554 0.13229 0.0
C428 C 0.56456 0.44332 0.14199 0.0
C429 C 0.59592 0.44453 0.153 0.0
H430 H 0.89758 0.45449 0.45626 0.0
H431 H 0.97496 0.40074 0.49084 0.0
H432 H 0.94291 0.35596 0.46021 0.0
H433 H 0.84944 0.40922 0.56201 0.0
H434 H 0.81646 0.41273 0.47905 0.0
H435 H 0.84503 0.44168 0.50618 0.0
H436 H 0.84846 0.43739 0.32911 0.0
H437 H 0.81991 0.40843 0.3015 0.0
H438 H 0.85524 0.402 0.26354 0.0
H439 H 0.90362 0.31616 0.4288 0.0
H440 H 0.85908 0.28335 0.39051 0.0
H441 H 0.80425 0.35942 0.36608 0.0
C442 C 0.90774 0.43331 0.45773 0.0
C443 C 0.93928 0.43168 0.47624 0.0
C444 C 0.95123 0.40317 0.47645 0.0
C445 C 0.93307 0.37731 0.45935 0.0
C446 C 0.90245 0.37955 0.44081 0.0
C447 C 0.88965 0.40669 0.43907 0.0
C448 C 0.85584 0.40201 0.41428 0.0
C449 C 0.8408 0.41733 0.49521 0.0
C450 C 0.84417 0.41312 0.32159 0.0
C451 C 0.85192 0.3682 0.40285 0.0
C452 C 0.87931 0.35597 0.41948 0.0
C453 C 0.88205 0.32551 0.41533 0.0
C454 C 0.85636 0.30692 0.39357 0.0
C455 C 0.82768 0.31831 0.37475 0.0
C456 C 0.82563 0.34966 0.37939 0.0
H457 H 0.82595 0.69044 0.61666 0.0
H458 H 0.77027 0.64035 0.75596 0.0
H459 H 0.80787 0.6019 0.76264 0.0
H460 H 0.85231 0.62823 0.47402 0.0
H461 H 0.88889 0.64476 0.48449 0.0
H462 H 0.85753 0.66793 0.49126 0.0
H463 H 0.88341 0.69577 0.65322 0.0
H464 H 0.91476 0.67252 0.64744 0.0
H465 H 0.89555 0.67518 0.74718 0.0
H466 H 0.85258 0.56913 0.75546 0.0
H467 H 0.89845 0.54364 0.72623 0.0
H468 H 0.92421 0.61551 0.59113 0.0
C469 C 0.82146 0.67138 0.64842 0.0
C470 C 0.79501 0.6685 0.68585 0.0
C471 C 0.79023 0.64307 0.72646 0.0
C472 C 0.81155 0.62117 0.73095 0.0
C473 C 0.83753 0.62499 0.6944 0.0
C474 C 0.84239 0.6494 0.65331 0.0
C475 C 0.87186 0.64828 0.61804 0.0
C476 C 0.86736 0.64723 0.51058 0.0
C477 C 0.89262 0.6745 0.66957 0.0
C478 C 0.88293 0.6193 0.64526 0.0
C479 C 0.86293 0.60625 0.6898 0.0
C480 C 0.86832 0.5792 0.72066 0.0
C481 C 0.89448 0.56493 0.70403 0.0
C482 C 0.91491 0.57764 0.65669 0.0
C483 C 0.90911 0.60535 0.62804 0.0
H484 H 0.35237 0.3549 0.33517 0.0
H485 H 0.27686 0.3717 0.1321 0.0
H486 H 0.3017 0.41833 0.11446 0.0
H487 H 0.3727 0.43443 0.44067 0.0
H488 H 0.41165 0.42722 0.45197 0.0
H489 H 0.38547 0.39872 0.46285 0.0
H490 H 0.40491 0.36309 0.33081 0.0
H491 H 0.43102 0.39133 0.31966 0.0
H492 H 0.40515 0.37445 0.2179 0.0
H493 H 0.3374 0.45774 0.10062 0.0
H494 H 0.38218 0.48603 0.0857 0.0
H495 H 0.43409 0.44311 0.29842 0.0
C496 C 0.34083 0.36876 0.28856 0.0
C497 C 0.31293 0.36006 0.23478 0.0
C498 C 0.29837 0.37832 0.17376 0.0
C499 C 0.31214 0.40486 0.16414 0.0
C500 C 0.34006 0.41265 0.2172 0.0
C501 C 0.35417 0.39517 0.27857 0.0
C502 C 0.38552 0.40623 0.31812 0.0
C503 C 0.38902 0.41732 0.42473 0.0
C504 C 0.40794 0.38237 0.29514 0.0
C505 C 0.38756 0.43152 0.26454 0.0
C506 C 0.36088 0.43545 0.2088 0.0
C507 C 0.35822 0.45541 0.14546 0.0
C508 C 0.38371 0.47119 0.13711 0.0
C509 C 0.41127 0.46643 0.19096 0.0
C510 C 0.41307 0.44717 0.25734 0.0
H511 H 0.42115 0.57119 0.0888 0.0
H512 H 0.50021 0.62332 0.07925 0.0
H513 H 0.46884 0.66289 1.02599 0.0
H514 H 0.37886 0.5894 0.88125 0.0
H515 H 0.34413 0.59075 0.92512 0.0
H516 H 0.37263 0.56734 0.96891 0.0
H517 H 0.37131 0.59307 0.13982 0.0
H518 H 0.34271 0.61653 0.09668 0.0
H519 H 0.37643 0.63274 0.16907 0.0
H520 H 0.42933 0.69567 0.96771 0.0
H521 H 0.38423 0.71981 0.9065 0.0
H522 H 0.3301 0.64653 0.95136 0.0
C523 C 0.43194 0.5911 0.07694 0.0
C524 C 0.46325 0.59422 0.08898 0.0
C525 C 0.47635 0.62044 0.07096 0.0
C526 C 0.4587 0.64306 1.04076 0.0
C527 C 0.42797 0.63911 1.02869 0.0
C528 C 0.41465 0.61382 0.04621 0.0
C529 C 0.3811 0.61461 1.02365 0.0
C530 C 0.36845 0.58901 0.94505 0.0
C531 C 0.36706 0.61422 0.11262 0.0
C532 C 0.37762 0.64425 0.9899 0.0
C533 C 0.40501 0.65799 0.99397 0.0
C534 C 0.4078 0.6852 0.96467 0.0
C535 C 0.382 0.6987 0.92986 0.0
C536 C 0.35367 0.68505 0.92428 0.0
C537 C 0.35145 0.65752 0.95531 0.0
H538 H 0.15007 0.70429 0.71012 0.0
H539 H 0.22644 0.64887 0.7354 0.0
H540 H 0.19357 0.6046 0.69783 0.0
H541 H 0.10296 0.65774 0.81543 0.0
H542 H 0.06917 0.66273 0.73795 0.0
H543 H 0.09823 0.6912 0.76496 0.0
H544 H 0.09922 0.68925 0.58722 0.0
H545 H 0.07014 0.6608 0.55969 0.0
H546 H 0.10456 0.65443 0.51568 0.0
H547 H 0.15379 0.56539 0.65541 0.0
H548 H 0.109 0.53319 0.61474 0.0
H549 H 0.05461 0.61035 0.61938 0.0
C550 C 0.15987 0.68284 0.70742 0.0
C551 C 0.19144 0.6807 0.72644 0.0
C552 C 0.20277 0.65183 0.72231 0.0
C553 C 0.18412 0.62621 0.70054 0.0
C554 C 0.15352 0.62901 0.68308 0.0
C555 C 0.14121 0.65648 0.68654 0.0
C556 C 0.1072 0.65239 0.66603 0.0
C557 C 0.09358 0.66689 0.75117 0.0
C558 C 0.09453 0.66498 0.57685 0.0
C559 C 0.1026 0.6185 0.65024 0.0
C560 C 0.12992 0.60579 0.6602 0.0
C561 C 0.13229 0.57516 0.64767 0.0
C562 C 0.1064 0.55689 0.62404 0.0
C563 C 0.07767 0.56865 0.61314 0.0
C564 C 0.07593 0.60026 0.62747 0.0
H565 H 0.20265 0.34672 0.31308 0.0
H566 H 0.14894 0.26593 0.28446 0.0
H567 H 0.10598 0.29567 0.31643 0.0
H568 H 0.17264 0.38599 0.50492 0.0
H569 H 0.17381 0.42138 0.46606 0.0
H570 H 0.19993 0.39394 0.43472 0.0
H571 H 0.18334 0.39692 0.25803 0.0
H572 H 0.15715 0.4244 0.28878 0.0
H573 H 0.14471 0.39108 0.20735 0.0
H574 H 0.06944 0.33368 0.35653 0.0
H575 H 0.04175 0.37749 0.40723 0.0
H576 H 0.11886 0.43427 0.41312 0.0
C577 C 0.18177 0.33522 0.31228 0.0
C578 C 0.17919 0.30387 0.29554 0.0
C579 C 0.15154 0.28983 0.2968 0.0
C580 C 0.12696 0.30656 0.31469 0.0
C581 C 0.13034 0.33734 0.33148 0.0
C582 C 0.15703 0.35159 0.33067 0.0
C583 C 0.155 0.38494 0.35521 0.0
C584 C 0.17663 0.39728 0.4456 0.0
C585 C 0.16037 0.40023 0.27239 0.0
C586 C 0.12305 0.3872 0.37089 0.0
C587 C 0.10925 0.35942 0.35601 0.0
C588 C 0.07997 0.35553 0.36796 0.0
C589 C 0.06443 0.38059 0.39682 0.0
C590 C 0.07813 0.40928 0.41391 0.0
C591 C 0.10778 0.41263 0.3999 0.0
H592 H 0.03888 0.05204 0.93119 0.0
H593 H 0.99063 0.97415 0.76554 0.0
H594 H 0.98002 0.95822 0.91117 0.0
H595 H 0.07157 0.01627 0.12725 0.0
H596 H 0.06797 0.04699 0.21815 0.0
H597 H 0.07233 0.05358 0.10224 0.0
H598 H 0.0242 0.08241 0.08891 0.0
H599 H 0.01997 0.07675 0.20582 0.0
H600 H 0.99043 0.06543 0.10826 0.0
H601 H 0.97449 0.95025 0.07041 0.0
H602 H 0.97267 0.95014 0.2366 0.0
H603 H 0.02396 0.03344 0.31171 0.0
C604 C 0.02607 0.03164 0.92591 0.0
C605 C 0.01539 0.01433 0.83623 0.0
C606 C 0.99878 0.98784 0.83257 0.0
C607 C 0.99275 0.97858 0.91526 0.0
C608 C 1.00345 0.99604 1.0021 0.0
C609 C 0.01969 0.02206 1.00865 0.0
C610 C 0.02822 0.03644 0.11217 0.0
C611 C 0.06204 0.03844 0.1416 0.0
C612 C 0.0149 0.06708 0.12981 0.0
C613 C 0.01402 0.01448 0.16244 0.0
C614 C 1.00006 0.99139 0.0964 0.0
C615 C 0.9853 0.96821 0.12262 0.0
C616 C 0.98443 0.96848 0.21821 0.0
C617 C 0.99813 0.99175 0.28896 0.0
C618 C 0.01337 0.01519 0.26032 0.0
H619 H 0.23752 0.77407 0.51518 0.0
H620 H 0.29561 0.69962 0.49751 0.0
H621 H 0.29559 0.7012 0.33126 0.0
H622 H 0.19377 0.75093 0.27743 0.0
H623 H 0.18995 0.78796 0.25093 0.0
H624 H 0.19376 0.78175 0.37138 0.0
H625 H 0.23879 0.8187 0.41673 0.0
H626 H 0.23524 0.82495 0.29637 0.0
H627 H 0.26982 0.81314 0.35436 0.0
H628 H 0.29227 0.71068 0.16904 0.0
H629 H 0.28202 0.72616 1.01298 0.0
H630 H 0.22433 0.79315 0.11991 0.0
C631 C 0.24999 0.75804 0.47597 0.0
C632 C 0.26669 0.73676 0.52133 0.0
C633 C 0.28269 0.71629 0.46633 0.0
C634 C 0.28292 0.71692 0.37087 0.0
C635 C 0.26684 0.73808 0.32857 0.0
C636 C 0.25034 0.75816 0.37819 0.0
C637 C 0.23492 0.77821 0.31216 0.0
C638 C 0.20108 0.77448 0.30241 0.0
C639 C 0.24531 0.81068 0.34701 0.0
C640 C 0.24561 0.76618 0.21923 0.0
C641 C 0.26417 0.74312 0.23149 0.0
C642 C 0.27754 0.72857 0.15818 0.0
C643 C 0.27162 0.7375 0.0694 0.0
C644 C 0.25227 0.76062 0.05317 0.0
C645 C 0.23915 0.77525 0.1297 0.0
H646 H 0.47161 0.04022 0.68724 0.0
H647 H 0.5246 0.9692 0.77924 0.0
H648 H 0.5371 0.95591 0.6196 0.0
H649 H 0.44251 1.00089 0.45 0.0
H650 H 0.44407 0.03301 0.39341 0.0
H651 H 0.43873 0.03723 0.51477 0.0
H652 H 0.48443 0.07337 0.56324 0.0
H653 H 0.48988 0.06926 0.44205 0.0
H654 H 0.51954 0.0618 0.53167 0.0
H655 H 0.5445 0.95029 0.4542 0.0
H656 H 0.54763 0.95197 0.28968 0.0
H657 H 0.48967 0.02654 0.29189 0.0
C658 C 0.48577 0.02181 0.67338 0.0
C659 C 0.49752 0.0059 0.74668 0.0
C660 C 0.5159 0.98203 0.72551 0.0
C661 C 0.5229 0.9742 0.63452 0.0
C662 C 0.51129 0.99038 0.56437 0.0
C663 C 0.49308 0.01368 0.58205 0.0
C664 C 0.48406 0.02739 0.4927 0.0
C665 C 0.45033 0.02445 0.46085 0.0
C666 C 0.49514 0.05989 0.50838 0.0
C667 C 0.50019 0.00817 0.42234 0.0
C668 C 0.51559 0.98701 0.46642 0.0
C669 C 0.53253 0.96672 0.41907 0.0
C670 C 0.53414 0.968 0.32477 0.0
C671 C 0.51898 0.9894 0.27625 0.0
C672 C 0.50145 0.00979 0.32604 0.0
H673 H 0.27853 0.27177 1.00527 0.0
H674 H 0.20039 0.21275 0.9323 0.0
H675 H 0.19896 0.21538 0.76527 0.0
H676 H 0.25564 0.31802 0.81988 0.0
H677 H 0.29254 0.32235 0.79406 0.0
H678 H 0.28728 0.31735 0.91075 0.0
H679 H 0.32103 0.27244 0.90148 0.0
H680 H 0.32621 0.27715 0.78453 0.0
H681 H 0.31232 0.24215 0.80488 0.0
H682 H 0.20606 0.22164 0.60464 0.0
H683 H 0.22066 0.23372 0.45873 0.0
H684 H 0.29402 0.28908 0.62459 0.0
C685 C 0.26089 0.25989 0.95413 0.0
C686 C 0.23951 0.24205 0.98318 0.0
C687 C 0.2171 0.22653 0.91308 0.0
C688 C 0.21602 0.22783 0.81724 0.0
C689 C 0.23748 0.24488 0.7904 0.0
C690 C 0.25942 0.26091 0.85621 0.0
C691 C 0.27989 0.27699 0.8056 0.0
C692 C 0.27877 0.31068 0.83429 0.0
C693 C 0.31176 0.26656 0.82532 0.0
C694 C 0.26608 0.26716 0.70211 0.0
C695 C 0.24163 0.24858 0.69572 0.0
C696 C 0.22522 0.23616 0.60869 0.0
C697 C 0.23386 0.24289 0.52576 0.0
C698 C 0.25875 0.26187 0.52936 0.0
C699 C 0.27495 0.27432 0.61924 0.0
H700 H 0.73119 0.27071 1.02193 0.0
H701 H 0.80732 0.21475 1.02587 0.0
H702 H 0.80865 0.21759 0.86089 0.0
H703 H 0.69625 0.23981 0.78418 0.0
H704 H 0.68367 0.27445 0.75144 0.0
H705 H 0.68843 0.26946 0.87316 0.0
H706 H 0.72369 0.31582 0.91977 0.0
H707 H 0.71897 0.32101 0.7982 0.0
H708 H 0.7556 0.31804 0.86243 0.0
H709 H 0.8023 0.2242 0.69474 0.0
H710 H 0.78844 0.23608 0.53452 0.0
H711 H 0.71652 0.2879 0.62569 0.0
C712 C 0.74823 0.25935 0.98807 0.0
C713 C 0.76914 0.24242 1.03835 0.0
C714 C 0.79089 0.22777 0.99029 0.0
C715 C 0.79196 0.22922 0.89577 0.0
C716 C 0.77112 0.24551 0.84784 0.0
C717 C 0.74967 0.26051 0.89162 0.0
C718 C 0.72992 0.27601 0.82066 0.0
C719 C 0.69765 0.26423 0.80654 0.0
C720 C 0.73218 0.30973 0.85216 0.0
C721 C 0.74364 0.26707 0.73138 0.0
C722 C 0.76741 0.24944 0.74953 0.0
C723 C 0.78367 0.23798 0.67947 0.0
C724 C 0.77552 0.24464 0.58818 0.0
C725 C 0.75126 0.26256 0.56666 0.0
C726 C 0.7352 0.27407 0.63979 0.0
H727 H 0.69138 0.71205 0.33588 0.0
H728 H 0.77152 0.75605 0.50223 0.0
H729 H 0.78879 0.76491 0.35705 0.0
H730 H 0.72507 0.67658 0.13852 0.0
H731 H 0.69551 0.68258 0.04679 0.0
H732 H 0.68754 0.67876 0.16174 0.0
H733 H 0.66251 0.72847 0.17558 0.0
H734 H 0.66991 0.73388 0.06136 0.0
H735 H 0.68247 0.76143 0.16313 0.0
H736 H 0.7981 0.76929 0.19837 0.0
H737 H 0.79898 0.77115 1.03235 0.0
H738 H 0.71271 0.72531 0.95527 0.0
C739 C 0.71258 0.72349 0.34139 0.0
C740 C 0.73015 0.73342 0.43143 0.0
C741 C 0.75763 0.74838 0.43513 0.0
C742 C 0.76768 0.75342 0.35261 0.0
C743 C 0.75004 0.74349 0.26555 0.0
C744 C 0.723 0.72894 0.2586 0.0
C745 C 0.70845 0.72148 0.15472 0.0
C746 C 0.70385 0.68785 0.12369 0.0
C747 C 0.67907 0.73723 0.13775 0.0
C748 C 0.73166 0.73401 0.10494 0.0
C749 C 0.75537 0.74645 0.17143 0.0
C750 C 0.77965 0.75966 0.1458 0.0
C751 C 0.77985 0.76058 0.05036 0.0
C752 C 0.75597 0.74847 0.97921 0.0
C753 C 0.73143 0.73471 1.00717 0.0
H754 H 0.54735 0.51496 0.87259 0.0
H755 H 0.45145 0.50469 0.82945 0.0
H756 H 0.44887 0.51016 0.66368 0.0
H757 H 0.55065 0.56899 0.71102 0.0
H758 H 0.58277 0.55329 0.6676 0.0
H759 H 0.57679 0.55019 0.78522 0.0
H760 H 0.58047 0.49342 0.74577 0.0
H761 H 0.58549 0.49639 0.62732 0.0
H762 H 0.55578 0.4731 0.64675 0.0
H763 H 0.45552 0.51614 0.50224 0.0
H764 H 0.47172 0.52164 0.35204 0.0
H765 H 0.56345 0.52565 0.48923 0.0
C766 C 0.5259 0.51428 0.8283 0.0
C767 C 0.49957 0.5095 0.86472 0.0
C768 C 0.47195 0.50826 0.80375 0.0
C769 C 0.47018 0.51139 0.70905 0.0
C770 C 0.49627 0.51554 0.67458 0.0
C771 C 0.52367 0.51693 0.73168 0.0
C772 C 0.54812 0.52062 0.67399 0.0
C773 C 0.56562 0.55005 0.7116 0.0
C774 C 0.56868 0.49431 0.67344 0.0
C775 C 0.53009 0.52091 0.57642 0.0
C776 C 0.50019 0.51816 0.57913 0.0
C777 C 0.4789 0.51819 0.49904 0.0
C778 C 0.48833 0.52119 0.41375 0.0
C779 C 0.51881 0.5237 0.40814 0.0
C780 C 0.53997 0.52353 0.49095 0.0
H781 H 0.98467 0.52205 0.82012 0.0
H782 H 0.05806 0.4626 0.83615 0.0
H783 H 0.05673 0.46278 1.00261 0.0
H784 H 0.00868 0.56546 0.05714 0.0
H785 H 0.97176 0.56988 0.08452 0.0
H786 H 0.9777 0.56583 0.96377 0.0
H787 H 0.94006 0.52136 0.91945 0.0
H788 H 0.93407 0.52518 1.0401 0.0
H789 H 0.94529 0.49037 0.98205 0.0
H790 H 0.04796 0.46691 0.16591 0.0
H791 H 0.03298 0.47775 0.32274 0.0
H792 H 0.9662 0.53573 0.21568 0.0
C793 C 1.00048 0.50926 0.85897 0.0
C794 C 0.02144 0.4922 0.81316 0.0
C795 C 0.04166 0.47582 0.8677 0.0
C796 C 0.04117 0.47568 0.96329 0.0
C797 C 0.02038 0.4922 1.00612 0.0
C798 C 1.00047 0.50895 0.9568 0.0
C799 C 0.98076 0.52474 1.02324 0.0
C800 C 0.98498 0.55849 1.03272 0.0
C801 C 0.9481 0.51482 0.98915 0.0
C802 C 0.9928 0.514 0.11605 0.0
C803 C 0.0156 0.49512 0.1035 0.0
C804 C 0.03022 0.48182 0.17694 0.0
C805 C 0.02157 0.48808 0.26609 0.0
C806 C 0.99859 0.50762 0.28231 0.0
C807 C 0.98395 0.52072 0.20576 0.0
loop_
_geom_bond_atom_site_label_1
_geom_bond_atom_site_label_2
_geom_bond_distance
_geom_bond_site_symmetry_2
_ccdc_geom_bond_type
Tb0 O3 2.453 . S
Tb0 O4 2.596 1_445 S
Tb0 O5 2.374 1_545 S
Tb0 O13 2.343 . S
Tb0 O15 2.353 1_455 S
Tb0 O17 2.427 . S
Tb0 O18 2.513 . S
C1 O5 1.251 . S
C1 O7 1.263 . S
Tb2 O4 2.343 . S
Tb2 O7 2.353 1_655 S
Tb2 O10 2.427 . S
Tb2 O11 2.513 . S
Tb2 O12 2.453 . S
Tb2 O13 2.596 1_665 S
Tb2 O14 2.374 1_565 S
O3 Tb0 2.453 . S
O3 C19 1.249 . S
O4 Tb0 2.596 1_665 S
O4 Tb2 2.343 . S
O4 C19 1.258 1_665 S
O5 Tb0 2.374 1_565 S
O5 C1 1.251 . S
C6 O10 1.275 . S
C6 O11 1.246 . S
O7 C1 1.263 . S
O7 Tb2 2.353 1_455 S
C8 O12 1.245 . S
C8 O13 1.259 1_665 S
C9 O14 1.250 . S
C9 O15 1.263 . S
O10 Tb2 2.427 . S
O10 C6 1.275 . S
O11 Tb2 2.513 . S
O11 C6 1.246 . S
O12 Tb2 2.453 . S
O12 C8 1.245 . S
O13 Tb0 2.343 . S
O13 Tb2 2.596 1_445 S
O13 C8 1.259 1_445 S
O14 Tb2 2.374 1_545 S
O14 C9 1.250 . S
O15 Tb0 2.353 1_655 S
O15 C9 1.263 . S
C16 O17 1.275 . S
C16 O18 1.246 . S
O17 Tb0 2.427 . S
O17 C16 1.275 . S
O18 Tb0 2.513 . S
O18 C16 1.246 . S
C19 O3 1.249 . S
C19 O4 1.258 1_445 S
Tb20 O23 2.453 . S
Tb20 O24 2.596 . S
Tb20 O25 2.374 . S
Tb20 O33 2.343 . S
Tb20 O35 2.353 . S
Tb20 O37 2.427 . S
Tb20 O38 2.513 . S
C21 O25 1.251 . S
C21 O27 1.263 . S
Tb22 O24 2.343 . S
Tb22 O27 2.353 . S
Tb22 O30 2.427 . S
Tb22 O31 2.513 . S
Tb22 O32 2.453 . S
Tb22 O33 2.596 . S
Tb22 O34 2.374 . S
O23 Tb20 2.453 . S
O23 C39 1.245 . S
O24 Tb20 2.596 . S
O24 Tb22 2.343 . S
O24 C39 1.259 . S
O25 Tb20 2.374 . S
O25 C21 1.251 . S
C26 O30 1.275 . S
C26 O31 1.246 . S
O27 C21 1.263 . S
O27 Tb22 2.353 . S
C28 O32 1.245 . S
C28 O33 1.259 . S
C29 O34 1.250 . S
C29 O35 1.263 . S
O30 Tb22 2.427 . S
O30 C26 1.275 . S
O31 Tb22 2.513 . S
O31 C26 1.246 . S
O32 Tb22 2.453 . S
O32 C28 1.245 . S
O33 Tb20 2.343 . S
O33 Tb22 2.596 . S
O33 C28 1.259 . S
O34 Tb22 2.374 . S
O34 C29 1.250 . S
O35 Tb20 2.353 . S
O35 C29 1.263 . S
C36 O37 1.275 . S
C36 O38 1.246 . S
O37 Tb20 2.427 . S
O37 C36 1.275 . S
O38 Tb20 2.513 . S
O38 C36 1.246 . S
C39 O23 1.245 . S
C39 O24 1.259 . S
Tb40 O43 2.453 . S
Tb40 O44 2.596 1_545 S
Tb40 O45 2.374 1_545 S
Tb40 O53 2.343 1_556 S
Tb40 O55 2.353 1_556 S
Tb40 O57 2.427 1_556 S
Tb40 O58 2.513 1_556 S
C41 O45 1.251 . S
C41 O47 1.263 . S
Tb42 O44 2.343 1_554 S
Tb42 O47 2.353 1_554 S
Tb42 O50 2.427 1_554 S
Tb42 O51 2.513 1_554 S
Tb42 O52 2.453 . S
Tb42 O53 2.596 1_565 S
Tb42 O54 2.374 1_565 S
O43 Tb40 2.453 . S
O43 C59 1.245 1_545 S
O44 Tb40 2.596 1_565 S
O44 Tb42 2.343 1_556 S
O44 C59 1.259 . S
O45 Tb40 2.374 1_565 S
O45 C41 1.251 . S
C46 O50 1.275 . S
C46 O51 1.246 . S
O47 C41 1.263 . S
O47 Tb42 2.353 1_556 S
C48 O52 1.245 1_545 S
C48 O53 1.259 . S
C49 O54 1.250 . S
C49 O55 1.263 . S
O50 Tb42 2.427 1_556 S
O50 C46 1.275 . S
O51 Tb42 2.513 1_556 S
O51 C46 1.246 . S
O52 Tb42 2.453 . S
O52 C48 1.245 1_565 S
O53 Tb40 2.343 1_554 S
O53 Tb42 2.596 1_545 S
O53 C48 1.259 . S
O54 Tb42 2.374 1_545 S
O54 C49 1.250 . S
O55 Tb40 2.353 1_554 S
O55 C49 1.263 . S
C56 O57 1.275 . S
C56 O58 1.246 . S
O57 Tb40 2.427 1_554 S
O57 C56 1.275 . S
O58 Tb40 2.513 1_554 S
O58 C56 1.246 . S
C59 O43 1.245 1_565 S
C59 O44 1.259 . S
Tb60 O63 2.453 . S
Tb60 O64 2.596 . S
Tb60 O65 2.374 . S
Tb60 O73 2.343 . S
Tb60 O75 2.353 . S
Tb60 O77 2.427 . S
Tb60 O78 2.513 . S
C61 O65 1.251 . S
C61 O67 1.263 . S
Tb62 O64 2.343 . S
Tb62 O67 2.353 . S
Tb62 O70 2.427 . S
Tb62 O71 2.513 . S
Tb62 O72 2.453 . S
Tb62 O73 2.596 . S
Tb62 O74 2.374 . S
O63 Tb60 2.453 . S
O63 C79 1.245 . S
O64 Tb60 2.596 . S
O64 Tb62 2.343 . S
O64 C79 1.259 . S
O65 Tb60 2.374 . S
O65 C61 1.251 . S
C66 O70 1.275 . S
C66 O71 1.246 . S
O67 C61 1.263 . S
O67 Tb62 2.353 . S
C68 O72 1.245 . S
C68 O73 1.259 . S
C69 O74 1.250 . S
C69 O75 1.263 . S
O70 Tb62 2.427 . S
O70 C66 1.275 . S
O71 Tb62 2.513 . S
O71 C66 1.246 . S
O72 Tb62 2.453 . S
O72 C68 1.245 . S
O73 Tb60 2.343 . S
O73 Tb62 2.596 . S
O73 C68 1.259 . S
O74 Tb62 2.374 . S
O74 C69 1.250 . S
O75 Tb60 2.353 . S
O75 C69 1.263 . S
C76 O77 1.275 . S
C76 O78 1.246 . S
O77 Tb60 2.427 . S
O77 C76 1.275 . S
O78 Tb60 2.513 . S
O78 C76 1.246 . S
C79 O63 1.245 . S
C79 O64 1.259 . S
Tb80 O83 2.453 . S
Tb80 O84 2.596 . S
Tb80 O85 2.374 . S
Tb80 O93 2.343 . S
Tb80 O95 2.353 . S
Tb80 O97 2.427 . S
Tb80 O98 2.513 . S
C81 O85 1.251 . S
C81 O87 1.263 . S
Tb82 O84 2.343 . S
Tb82 O87 2.353 . S
Tb82 O90 2.427 . S
Tb82 O91 2.513 . S
Tb82 O92 2.453 . S
Tb82 O93 2.596 . S
Tb82 O94 2.374 . S
O83 Tb80 2.453 . S
O83 C99 1.245 . S
O84 Tb80 2.596 . S
O84 Tb82 2.343 . S
O84 C99 1.259 . S
O85 Tb80 2.374 . S
O85 C81 1.251 . S
C86 O90 1.275 . S
C86 O91 1.246 . S
O87 C81 1.263 . S
O87 Tb82 2.353 . S
C88 O92 1.245 . S
C88 O93 1.259 . S
C89 O94 1.250 . S
C89 O95 1.263 . S
O90 Tb82 2.427 . S
O90 C86 1.275 . S
O91 Tb82 2.513 . S
O91 C86 1.246 . S
O92 Tb82 2.453 . S
O92 C88 1.245 . S
O93 Tb80 2.343 . S
O93 Tb82 2.596 . S
O93 C88 1.259 . S
O94 Tb82 2.374 . S
O94 C89 1.250 . S
O95 Tb80 2.353 . S
O95 C89 1.263 . S
C96 O97 1.275 . S
C96 O98 1.246 . S
O97 Tb80 2.427 . S
O97 C96 1.275 . S
O98 Tb80 2.513 . S
O98 C96 1.246 . S
C99 O83 1.245 . S
C99 O84 1.259 . S
Tb100 O103 2.453 . S
Tb100 O104 2.596 . S
Tb100 O105 2.374 . S
Tb100 O113 2.343 . S
Tb100 O115 2.353 . S
Tb100 O117 2.427 . S
Tb100 O118 2.513 . S
C101 O105 1.251 . S
C101 O107 1.263 . S
Tb102 O104 2.343 . S
Tb102 O107 2.353 . S
Tb102 O110 2.427 . S
Tb102 O111 2.513 . S
Tb102 O112 2.453 . S
Tb102 O113 2.596 . S
Tb102 O114 2.374 . S
O103 Tb100 2.453 . S
O103 C119 1.245 . S
O104 Tb100 2.596 . S
O104 Tb102 2.343 . S
O104 C119 1.259 . S
O105 Tb100 2.374 . S
O105 C101 1.251 . S
C106 O110 1.275 . S
C106 O111 1.246 . S
O107 C101 1.263 . S
O107 Tb102 2.353 . S
C108 O112 1.245 . S
C108 O113 1.259 . S
C109 O114 1.250 . S
C109 O115 1.263 . S
O110 Tb102 2.427 . S
O110 C106 1.275 . S
O111 Tb102 2.513 . S
O111 C106 1.246 . S
O112 Tb102 2.453 . S
O112 C108 1.245 . S
O113 Tb100 2.343 . S
O113 Tb102 2.596 . S
O113 C108 1.259 . S
O114 Tb102 2.374 . S
O114 C109 1.250 . S
O115 Tb100 2.353 . S
O115 C109 1.263 . S
C116 O117 1.275 . S
C116 O118 1.246 . S
O117 Tb100 2.427 . S
O117 C116 1.275 . S
O118 Tb100 2.513 . S
O118 C116 1.246 . S
C119 O103 1.245 . S
C119 O104 1.259 . S
Tb120 O123 2.453 . S
Tb120 O124 2.596 . S
Tb120 O125 2.374 . S
Tb120 O133 2.343 1_554 S
Tb120 O135 2.353 . S
Tb120 O137 2.427 1_554 S
Tb120 O138 2.513 1_554 S
C121 O125 1.251 . S
C121 O127 1.263 1_554 S
Tb122 O124 2.343 1_556 S
Tb122 O127 2.353 . S
Tb122 O130 2.427 1_556 S
Tb122 O131 2.513 1_556 S
Tb122 O132 2.453 . S
Tb122 O133 2.596 . S
Tb122 O134 2.374 . S
O123 Tb120 2.453 . S
O123 C139 1.245 . S
O124 Tb120 2.596 . S
O124 Tb122 2.343 1_554 S
O124 C139 1.259 . S
O125 Tb120 2.374 . S
O125 C121 1.251 . S
C126 O130 1.275 . S
C126 O131 1.246 . S
O127 C121 1.263 1_556 S
O127 Tb122 2.353 . S
C128 O132 1.245 . S
C128 O133 1.259 . S
C129 O134 1.250 . S
C129 O135 1.263 1_556 S
O130 Tb122 2.427 1_554 S
O130 C126 1.275 . S
O131 Tb122 2.513 1_554 S
O131 C126 1.246 . S
O132 Tb122 2.453 . S
O132 C128 1.245 . S
O133 Tb120 2.343 1_556 S
O133 Tb122 2.596 . S
O133 C128 1.259 . S
O134 Tb122 2.374 . S
O134 C129 1.250 . S
O135 Tb120 2.353 . S
O135 C129 1.263 1_554 S
C136 O137 1.275 . S
C136 O138 1.246 . S
O137 Tb120 2.427 1_556 S
O137 C136 1.275 . S
O138 Tb120 2.513 1_556 S
O138 C136 1.246 . S
C139 O123 1.245 . S
C139 O124 1.259 . S
Tb140 O143 2.453 . S
Tb140 O144 2.596 1_655 S
Tb140 O145 2.374 . S
Tb140 O153 2.343 . S
Tb140 O155 2.353 1_655 S
Tb140 O157 2.427 . S
Tb140 O158 2.513 . S
C141 O145 1.251 . S
C141 O147 1.263 . S
Tb142 O144 2.343 . S
Tb142 O147 2.353 1_455 S
Tb142 O150 2.427 . S
Tb142 O151 2.513 . S
Tb142 O152 2.453 . S
Tb142 O153 2.596 1_455 S
Tb142 O154 2.374 . S
O143 Tb140 2.453 . S
O143 C159 1.248 . S
O144 Tb140 2.596 1_455 S
O144 Tb142 2.343 . S
O144 C159 1.259 1_455 S
O145 Tb140 2.374 . S
O145 C141 1.251 . S
C146 O150 1.275 . S
C146 O151 1.246 . S
O147 C141 1.263 . S
O147 Tb142 2.353 1_655 S
C148 O152 1.252 . S
C148 O153 1.257 1_455 S
C149 O154 1.250 . S
C149 O155 1.263 . S
O150 Tb142 2.427 . S
O150 C146 1.275 . S
O151 Tb142 2.513 . S
O151 C146 1.246 . S
O152 Tb142 2.453 . S
O152 C148 1.252 . S
O153 Tb140 2.343 . S
O153 Tb142 2.596 1_655 S
O153 C148 1.257 1_655 S
O154 Tb142 2.374 . S
O154 C149 1.250 . S
O155 Tb140 2.353 1_455 S
O155 C149 1.263 . S
C156 O157 1.275 . S
C156 O158 1.246 . S
O157 Tb140 2.427 . S
O157 C156 1.275 . S
O158 Tb140 2.513 . S
O158 C156 1.246 . S
C159 O143 1.248 . S
C159 O144 1.259 1_655 S
H160 C172 0.930 . S
H161 C174 0.930 . S
H162 C175 0.930 . S
H163 C179 0.959 . S
H164 C179 0.959 . S
H165 C179 0.961 . S
H166 C180 0.960 . S
H167 C180 0.961 . S
H168 C180 0.959 . S
H169 C183 0.929 . S
H170 C184 0.931 . S
H171 C186 0.930 . S
C172 H160 0.930 . S
C172 C173 1.399 . S
C172 C177 1.399 . S
C173 C172 1.399 . S
C173 C174 1.376 . S
C174 H161 0.930 . S
C174 C173 1.376 . S
C174 C175 1.388 . S
C175 H162 0.930 . S
C175 C174 1.388 . S
C175 C176 1.390 . S
C176 C175 1.390 . S
C176 C177 1.394 . S
C176 C182 1.465 . S
C177 C172 1.399 . S
C177 C176 1.394 . S
C177 C178 1.516 . S
C178 C177 1.516 . S
C178 C179 1.502 . S
C178 C180 1.561 . S
C178 C181 1.526 . S
C179 H163 0.959 . S
C179 H164 0.959 . S
C179 H165 0.961 . S
C179 C178 1.502 . S
C180 H166 0.960 . S
C180 H167 0.961 . S
C180 H168 0.959 . S
C180 C178 1.561 . S
C181 C178 1.526 . S
C181 C182 1.396 . S
C181 C186 1.390 . S
C182 C176 1.465 . S
C182 C181 1.396 . S
C182 C183 1.399 . S
C183 H169 0.929 . S
C183 C182 1.399 . S
C183 C184 1.385 . S
C184 H170 0.931 . S
C184 C183 1.385 . S
C184 C185 1.389 . S
C185 C184 1.389 . S
C185 C186 1.387 . S
C186 H171 0.930 . S
C186 C181 1.390 . S
C186 C185 1.387 . S
H187 C199 0.930 . S
H188 C201 0.930 . S
H189 C202 0.930 . S
H190 C206 0.959 . S
H191 C206 0.959 . S
H192 C206 0.961 . S
H193 C207 0.960 . S
H194 C207 0.961 . S
H195 C207 0.959 . S
H196 C210 0.929 . S
H197 C211 0.931 . S
H198 C213 0.930 . S
C199 H187 0.930 . S
C199 C200 1.399 . S
C199 C204 1.399 . S
C200 C199 1.399 . S
C200 C201 1.376 . S
C201 H188 0.930 . S
C201 C200 1.376 . S
C201 C202 1.388 . S
C202 H189 0.930 . S
C202 C201 1.388 . S
C202 C203 1.390 . S
C203 C202 1.390 . S
C203 C204 1.394 . S
C203 C209 1.465 . S
C204 C199 1.399 . S
C204 C203 1.394 . S
C204 C205 1.516 . S
C205 C204 1.516 . S
C205 C206 1.502 . S
C205 C207 1.561 . S
C205 C208 1.526 . S
C206 H190 0.959 . S
C206 H191 0.959 . S
C206 H192 0.961 . S
C206 C205 1.502 . S
C207 H193 0.960 . S
C207 H194 0.961 . S
C207 H195 0.959 . S
C207 C205 1.561 . S
C208 C205 1.526 . S
C208 C209 1.396 . S
C208 C213 1.390 . S
C209 C203 1.465 . S
C209 C208 1.396 . S
C209 C210 1.399 . S
C210 H196 0.929 . S
C210 C209 1.399 . S
C210 C211 1.385 . S
C211 H197 0.931 . S
C211 C210 1.385 . S
C211 C212 1.389 . S
C212 C211 1.389 . S
C212 C213 1.387 . S
C213 H198 0.930 . S
C213 C208 1.390 . S
C213 C212 1.387 . S
H214 C226 0.930 . S
H215 C228 0.930 . S
H216 C229 0.930 . S
H217 C233 0.959 . S
H218 C233 0.959 1_554 S
H219 C233 0.961 . S
H220 C234 0.960 . S
H221 C234 0.961 . S
H222 C234 0.959 . S
H223 C237 0.929 . S
H224 C238 0.931 . S
H225 C240 0.930 . S
C226 H214 0.930 . S
C226 C227 1.399 . S
C226 C231 1.399 . S
C227 C226 1.399 . S
C227 C228 1.376 . S
C228 H215 0.930 . S
C228 C227 1.376 . S
C228 C229 1.388 . S
C229 H216 0.930 . S
C229 C228 1.388 . S
C229 C230 1.390 . S
C230 C229 1.390 . S
C230 C231 1.394 . S
C230 C236 1.465 . S
C231 C226 1.399 . S
C231 C230 1.394 . S
C231 C232 1.516 . S
C232 C231 1.516 . S
C232 C233 1.502 . S
C232 C234 1.561 1_556 S
C232 C235 1.526 . S
C233 H217 0.959 . S
C233 H218 0.959 1_556 S
C233 H219 0.961 . S
C233 C232 1.502 . S
C234 H220 0.960 . S
C234 H221 0.961 . S
C234 H222 0.959 . S
C234 C232 1.561 1_554 S
C235 C232 1.526 . S
C235 C236 1.396 . S
C235 C240 1.390 . S
C236 C230 1.465 . S
C236 C235 1.396 . S
C236 C237 1.399 . S
C237 H223 0.929 . S
C237 C236 1.399 . S
C237 C238 1.385 . S
C238 H224 0.931 . S
C238 C237 1.385 . S
C238 C239 1.389 . S
C239 C238 1.389 . S
C239 C240 1.387 . S
C240 H225 0.930 . S
C240 C235 1.390 . S
C240 C239 1.387 . S
H241 C253 0.930 . S
H242 C255 0.930 . S
H243 C256 0.930 1_556 S
H244 C260 0.959 . S
H245 C260 0.959 . S
H246 C260 0.961 . S
H247 C261 0.960 . S
H248 C261 0.961 . S
H249 C261 0.959 . S
H250 C264 0.929 . S
H251 C265 0.931 . S
H252 C267 0.930 . S
C253 H241 0.930 . S
C253 C254 1.399 . S
C253 C258 1.399 . S
C254 C253 1.399 . S
C254 C255 1.376 . S
C255 H242 0.930 . S
C255 C254 1.376 . S
C255 C256 1.388 . S
C256 H243 0.930 1_554 S
C256 C255 1.388 . S
C256 C257 1.390 . S
C257 C256 1.390 . S
C257 C258 1.394 . S
C257 C263 1.465 . S
C258 C253 1.399 . S
C258 C257 1.394 . S
C258 C259 1.516 . S
C259 C258 1.516 . S
C259 C260 1.502 . S
C259 C261 1.561 . S
C259 C262 1.526 . S
C260 H244 0.959 . S
C260 H245 0.959 . S
C260 H246 0.961 . S
C260 C259 1.502 . S
C261 H247 0.960 . S
C261 H248 0.961 . S
C261 H249 0.959 . S
C261 C259 1.561 . S
C262 C259 1.526 . S
C262 C263 1.396 . S
C262 C267 1.390 . S
C263 C257 1.465 . S
C263 C262 1.396 . S
C263 C264 1.399 . S
C264 H250 0.929 . S
C264 C263 1.399 . S
C264 C265 1.385 . S
C265 H251 0.931 . S
C265 C264 1.385 . S
C265 C266 1.389 . S
C266 C265 1.389 . S
C266 C267 1.387 . S
C267 H252 0.930 . S
C267 C262 1.390 . S
C267 C266 1.387 . S
H268 C280 0.930 . S
H269 C282 0.930 . S
H270 C283 0.930 . S
H271 C287 0.959 . S
H272 C287 0.959 . S
H273 C287 0.961 . S
H274 C288 0.960 . S
H275 C288 0.961 . S
H276 C288 0.959 . S
H277 C291 0.929 . S
H278 C292 0.931 . S
H279 C294 0.930 . S
C280 H268 0.930 . S
C280 C281 1.399 . S
C280 C285 1.399 . S
C281 C280 1.399 . S
C281 C282 1.376 . S
C282 H269 0.930 . S
C282 C281 1.376 . S
C282 C283 1.388 . S
C283 H270 0.930 . S
C283 C282 1.388 . S
C283 C284 1.390 . S
C284 C283 1.390 . S
C284 C285 1.394 . S
C284 C290 1.465 . S
C285 C280 1.399 . S
C285 C284 1.394 . S
C285 C286 1.516 . S
C286 C285 1.516 . S
C286 C287 1.502 . S
C286 C288 1.561 . S
C286 C289 1.526 . S
C287 H271 0.959 . S
C287 H272 0.959 . S
C287 H273 0.961 . S
C287 C286 1.502 . S
C288 H274 0.960 . S
C288 H275 0.961 . S
C288 H276 0.959 . S
C288 C286 1.561 . S
C289 C286 1.526 . S
C289 C290 1.396 . S
C289 C294 1.390 . S
C290 C284 1.465 . S
C290 C289 1.396 . S
C290 C291 1.399 . S
C291 H277 0.929 . S
C291 C290 1.399 . S
C291 C292 1.385 . S
C292 H278 0.931 . S
C292 C291 1.385 . S
C292 C293 1.389 . S
C293 C292 1.389 . S
C293 C294 1.387 . S
C294 H279 0.930 . S
C294 C289 1.390 . S
C294 C293 1.387 . S
H295 C307 0.930 . S
H296 C309 0.930 . S
H297 C310 0.930 . S
H298 C314 0.959 . S
H299 C314 0.959 . S
H300 C314 0.961 . S
H301 C315 0.960 . S
H302 C315 0.961 . S
H303 C315 0.959 . S
H304 C318 0.929 . S
H305 C319 0.931 . S
H306 C321 0.930 . S
C307 H295 0.930 . S
C307 C308 1.399 . S
C307 C312 1.399 . S
C308 C307 1.399 . S
C308 C309 1.376 . S
C309 H296 0.930 . S
C309 C308 1.376 . S
C309 C310 1.388 . S
C310 H297 0.930 . S
C310 C309 1.388 . S
C310 C311 1.390 . S
C311 C310 1.390 . S
C311 C312 1.394 . S
C311 C317 1.465 . S
C312 C307 1.399 . S
C312 C311 1.394 . S
C312 C313 1.516 . S
C313 C312 1.516 . S
C313 C314 1.502 . S
C313 C315 1.561 . S
C313 C316 1.526 . S
C314 H298 0.959 . S
C314 H299 0.959 . S
C314 H300 0.961 . S
C314 C313 1.502 . S
C315 H301 0.960 . S
C315 H302 0.961 . S
C315 H303 0.959 . S
C315 C313 1.561 . S
C316 C313 1.526 . S
C316 C317 1.396 . S
C316 C321 1.390 . S
C317 C311 1.465 . S
C317 C316 1.396 . S
C317 C318 1.399 . S
C318 H304 0.929 . S
C318 C317 1.399 . S
C318 C319 1.385 . S
C319 H305 0.931 . S
C319 C318 1.385 . S
C319 C320 1.389 . S
C320 C319 1.389 . S
C320 C321 1.387 . S
C321 H306 0.930 . S
C321 C316 1.390 . S
C321 C320 1.387 . S
H322 C334 0.930 . S
H323 C336 0.930 . S
H324 C337 0.930 1_556 S
H325 C341 0.959 . S
H326 C341 0.959 . S
H327 C341 0.961 . S
H328 C342 0.960 . S
H329 C342 0.961 . S
H330 C342 0.959 . S
H331 C345 0.929 1_556 S
H332 C346 0.931 1_556 S
H333 C348 0.930 . S
C334 H322 0.930 . S
C334 C335 1.399 . S
C334 C339 1.399 . S
C335 C334 1.399 . S
C335 C336 1.376 . S
C336 H323 0.930 . S
C336 C335 1.376 . S
C336 C337 1.388 . S
C337 H324 0.930 1_554 S
C337 C336 1.388 . S
C337 C338 1.390 . S
C338 C337 1.390 . S
C338 C339 1.394 . S
C338 C344 1.465 . S
C339 C334 1.399 . S
C339 C338 1.394 . S
C339 C340 1.516 . S
C340 C339 1.516 . S
C340 C341 1.502 . S
C340 C342 1.561 . S
C340 C343 1.526 . S
C341 H325 0.959 . S
C341 H326 0.959 . S
C341 H327 0.961 . S
C341 C340 1.502 . S
C342 H328 0.960 . S
C342 H329 0.961 . S
C342 H330 0.959 . S
C342 C340 1.561 . S
C343 C340 1.526 . S
C343 C344 1.396 . S
C343 C348 1.390 . S
C344 C338 1.465 . S
C344 C343 1.396 . S
C344 C345 1.399 . S
C345 H331 0.929 1_554 S
C345 C344 1.399 . S
C345 C346 1.385 . S
C346 H332 0.931 1_554 S
C346 C345 1.385 . S
C346 C347 1.389 . S
C347 C346 1.389 . S
C347 C348 1.387 . S
C348 H333 0.930 . S
C348 C343 1.390 . S
C348 C347 1.387 . S
H349 C361 0.930 . S
H350 C363 0.930 . S
H351 C364 0.930 . S
H352 C368 0.959 . S
H353 C368 0.959 1_554 S
H354 C368 0.961 1_554 S
H355 C369 0.960 . S
H356 C369 0.961 . S
H357 C369 0.959 1_556 S
H358 C372 0.929 . S
H359 C373 0.931 . S
H360 C375 0.930 . S
C361 H349 0.930 . S
C361 C362 1.399 . S
C361 C366 1.399 . S
C362 C361 1.399 . S
C362 C363 1.376 . S
C363 H350 0.930 . S
C363 C362 1.376 . S
C363 C364 1.388 . S
C364 H351 0.930 . S
C364 C363 1.388 . S
C364 C365 1.390 . S
C365 C364 1.390 . S
C365 C366 1.394 . S
C365 C371 1.465 . S
C366 C361 1.399 . S
C366 C365 1.394 . S
C366 C367 1.516 . S
C367 C366 1.516 . S
C367 C368 1.502 . S
C367 C369 1.561 1_556 S
C367 C370 1.526 . S
C368 H352 0.959 . S
C368 H353 0.959 1_556 S
C368 H354 0.961 1_556 S
C368 C367 1.502 . S
C369 H355 0.960 . S
C369 H356 0.961 . S
C369 H357 0.959 1_554 S
C369 C367 1.561 1_554 S
C370 C367 1.526 . S
C370 C371 1.396 . S
C370 C375 1.390 . S
C371 C365 1.465 . S
C371 C370 1.396 . S
C371 C372 1.399 . S
C372 H358 0.929 . S
C372 C371 1.399 . S
C372 C373 1.385 . S
C373 H359 0.931 . S
C373 C372 1.385 . S
C373 C374 1.389 . S
C374 C373 1.389 . S
C374 C375 1.387 . S
C375 H360 0.930 . S
C375 C370 1.390 . S
C375 C374 1.387 . S
H376 C388 0.930 . S
H377 C390 0.930 1_554 S
H378 C391 0.930 1_554 S
H379 C395 0.959 . S
H380 C395 0.959 . S
H381 C395 0.961 . S
H382 C396 0.960 . S
H383 C396 0.961 . S
H384 C396 0.959 . S
H385 C399 0.929 1_554 S
H386 C400 0.931 . S
H387 C402 0.930 . S
C388 H376 0.930 . S
C388 C389 1.399 . S
C388 C393 1.399 . S
C389 C388 1.399 . S
C389 C390 1.376 . S
C390 H377 0.930 1_556 S
C390 C389 1.376 . S
C390 C391 1.388 . S
C391 H378 0.930 1_556 S
C391 C390 1.388 . S
C391 C392 1.390 . S
C392 C391 1.390 . S
C392 C393 1.394 . S
C392 C398 1.465 . S
C393 C388 1.399 . S
C393 C392 1.394 . S
C393 C394 1.516 . S
C394 C393 1.516 . S
C394 C395 1.502 . S
C394 C396 1.561 . S
C394 C397 1.526 . S
C395 H379 0.959 . S
C395 H380 0.959 . S
C395 H381 0.961 . S
C395 C394 1.502 . S
C396 H382 0.960 . S
C396 H383 0.961 . S
C396 H384 0.959 . S
C396 C394 1.561 . S
C397 C394 1.526 . S
C397 C398 1.396 . S
C397 C402 1.390 . S
C398 C392 1.465 . S
C398 C397 1.396 . S
C398 C399 1.399 . S
C399 H385 0.929 1_556 S
C399 C398 1.399 . S
C399 C400 1.385 . S
C400 H386 0.931 . S
C400 C399 1.385 . S
C400 C401 1.389 . S
C401 C400 1.389 . S
C401 C402 1.387 . S
C402 H387 0.930 . S
C402 C397 1.390 . S
C402 C401 1.387 . S
H403 C415 0.930 . S
H404 C417 0.930 . S
H405 C418 0.930 . S
H406 C422 0.959 . S
H407 C422 0.959 1_556 S
H408 C422 0.961 . S
H409 C423 0.960 . S
H410 C423 0.961 . S
H411 C423 0.959 . S
H412 C426 0.929 . S
H413 C427 0.931 . S
H414 C429 0.930 1_556 S
C415 H403 0.930 . S
C415 C416 1.399 . S
C415 C420 1.399 . S
C416 C415 1.399 . S
C416 C417 1.376 . S
C417 H404 0.930 . S
C417 C416 1.376 . S
C417 C418 1.388 . S
C418 H405 0.930 . S
C418 C417 1.388 . S
C418 C419 1.390 . S
C419 C418 1.390 . S
C419 C420 1.394 . S
C419 C425 1.465 . S
C420 C415 1.399 . S
C420 C419 1.394 . S
C420 C421 1.516 . S
C421 C420 1.516 . S
C421 C422 1.502 . S
C421 C423 1.561 1_554 S
C421 C424 1.526 . S
C422 H406 0.959 . S
C422 H407 0.959 1_554 S
C422 H408 0.961 . S
C422 C421 1.502 . S
C423 H409 0.960 . S
C423 H410 0.961 . S
C423 H411 0.959 . S
C423 C421 1.561 1_556 S
C424 C421 1.526 . S
C424 C425 1.396 . S
C424 C429 1.390 . S
C425 C419 1.465 . S
C425 C424 1.396 . S
C425 C426 1.399 . S
C426 H412 0.929 . S
C426 C425 1.399 . S
C426 C427 1.385 . S
C427 H413 0.931 . S
C427 C426 1.385 . S
C427 C428 1.389 . S
C428 C427 1.389 . S
C428 C429 1.387 . S
C429 H414 0.930 1_554 S
C429 C424 1.390 . S
C429 C428 1.387 . S
H430 C442 0.930 . S
H431 C444 0.930 . S
H432 C445 0.930 . S
H433 C449 0.959 . S
H434 C449 0.959 . S
H435 C449 0.961 . S
H436 C450 0.960 . S
H437 C450 0.961 . S
H438 C450 0.959 . S
H439 C453 0.929 . S
H440 C454 0.931 . S
H441 C456 0.930 . S
C442 H430 0.930 . S
C442 C443 1.399 . S
C442 C447 1.399 . S
C443 C442 1.399 . S
C443 C444 1.376 . S
C444 H431 0.930 . S
C444 C443 1.376 . S
C444 C445 1.388 . S
C445 H432 0.930 . S
C445 C444 1.388 . S
C445 C446 1.390 . S
C446 C445 1.390 . S
C446 C447 1.394 . S
C446 C452 1.465 . S
C447 C442 1.399 . S
C447 C446 1.394 . S
C447 C448 1.516 . S
C448 C447 1.516 . S
C448 C449 1.502 . S
C448 C450 1.561 . S
C448 C451 1.526 . S
C449 H433 0.959 . S
C449 H434 0.959 . S
C449 H435 0.961 . S
C449 C448 1.502 . S
C450 H436 0.960 . S
C450 H437 0.961 . S
C450 H438 0.959 . S
C450 C448 1.561 . S
C451 C448 1.526 . S
C451 C452 1.396 . S
C451 C456 1.390 . S
C452 C446 1.465 . S
C452 C451 1.396 . S
C452 C453 1.399 . S
C453 H439 0.929 . S
C453 C452 1.399 . S
C453 C454 1.385 . S
C454 H440 0.931 . S
C454 C453 1.385 . S
C454 C455 1.389 . S
C455 C454 1.389 . S
C455 C456 1.387 . S
C456 H441 0.930 . S
C456 C451 1.390 . S
C456 C455 1.387 . S
H457 C469 0.930 . S
H458 C471 0.930 . S
H459 C472 0.930 . S
H460 C476 0.959 . S
H461 C476 0.959 . S
H462 C476 0.961 . S
H463 C477 0.960 . S
H464 C477 0.961 . S
H465 C477 0.959 . S
H466 C480 0.929 . S
H467 C481 0.931 . S
H468 C483 0.930 . S
C469 H457 0.930 . S
C469 C470 1.399 . S
C469 C474 1.399 . S
C470 C469 1.399 . S
C470 C471 1.376 . S
C471 H458 0.930 . S
C471 C470 1.376 . S
C471 C472 1.388 . S
C472 H459 0.930 . S
C472 C471 1.388 . S
C472 C473 1.390 . S
C473 C472 1.390 . S
C473 C474 1.394 . S
C473 C479 1.465 . S
C474 C469 1.399 . S
C474 C473 1.394 . S
C474 C475 1.516 . S
C475 C474 1.516 . S
C475 C476 1.502 . S
C475 C477 1.561 . S
C475 C478 1.526 . S
C476 H460 0.959 . S
C476 H461 0.959 . S
C476 H462 0.961 . S
C476 C475 1.502 . S
C477 H463 0.960 . S
C477 H464 0.961 . S
C477 H465 0.959 . S
C477 C475 1.561 . S
C478 C475 1.526 . S
C478 C479 1.396 . S
C478 C483 1.390 . S
C479 C473 1.465 . S
C479 C478 1.396 . S
C479 C480 1.399 . S
C480 H466 0.929 . S
C480 C479 1.399 . S
C480 C481 1.385 . S
C481 H467 0.931 . S
C481 C480 1.385 . S
C481 C482 1.389 . S
C482 C481 1.389 . S
C482 C483 1.387 . S
C483 H468 0.930 . S
C483 C478 1.390 . S
C483 C482 1.387 . S
H484 C496 0.930 . S
H485 C498 0.930 . S
H486 C499 0.924 1_556 S
H487 C503 0.959 . S
H488 C503 0.959 . S
H489 C503 0.961 . S
H490 C504 0.960 . S
H491 C504 0.961 . S
H492 C504 0.959 . S
H493 C507 0.929 1_556 S
H494 C508 0.931 1_556 S
H495 C510 0.930 . S
C496 H484 0.930 . S
C496 C497 1.399 . S
C496 C501 1.399 . S
C497 C496 1.399 . S
C497 C498 1.376 . S
C498 H485 0.930 . S
C498 C497 1.376 . S
C498 C499 1.388 . S
C499 H486 0.924 1_554 S
C499 C498 1.388 . S
C499 C500 1.390 . S
C500 C499 1.390 . S
C500 C501 1.394 . S
C500 C506 1.465 . S
C501 C496 1.399 . S
C501 C500 1.394 . S
C501 C502 1.516 . S
C502 C501 1.516 . S
C502 C503 1.502 . S
C502 C504 1.561 . S
C502 C505 1.526 . S
C503 H487 0.959 . S
C503 H488 0.959 . S
C503 H489 0.961 . S
C503 C502 1.502 . S
C504 H490 0.960 . S
C504 H491 0.961 . S
C504 H492 0.959 . S
C504 C502 1.561 . S
C505 C502 1.526 . S
C505 C506 1.396 . S
C505 C510 1.390 . S
C506 C500 1.465 . S
C506 C505 1.396 . S
C506 C507 1.399 . S
C507 H493 0.929 1_554 S
C507 C506 1.399 . S
C507 C508 1.385 . S
C508 H494 0.931 1_554 S
C508 C507 1.385 . S
C508 C509 1.389 . S
C509 C508 1.389 . S
C509 C510 1.387 . S
C510 H495 0.930 . S
C510 C505 1.390 . S
C510 C509 1.387 . S
H511 C523 0.930 1_554 S
H512 C525 0.930 . S
H513 C526 0.930 . S
H514 C530 0.959 . S
H515 C530 0.959 . S
H516 C530 0.961 . S
H517 C531 0.960 . S
H518 C531 0.961 . S
H519 C531 0.959 . S
H520 C534 0.929 . S
H521 C535 0.931 . S
H522 C537 0.922 1_554 S
C523 H511 0.930 1_556 S
C523 C524 1.399 . S
C523 C528 1.399 . S
C524 C523 1.399 . S
C524 C525 1.376 . S
C525 H512 0.930 . S
C525 C524 1.376 . S
C525 C526 1.388 . S
C526 H513 0.930 . S
C526 C525 1.388 . S
C526 C527 1.390 . S
C527 C526 1.390 . S
C527 C528 1.394 . S
C527 C533 1.465 . S
C528 C523 1.399 . S
C528 C527 1.394 . S
C528 C529 1.516 1_556 S
C529 C528 1.516 1_554 S
C529 C530 1.502 . S
C529 C531 1.561 . S
C529 C532 1.526 1_554 S
C530 H514 0.959 . S
C530 H515 0.959 . S
C530 H516 0.961 . S
C530 C529 1.502 . S
C531 H517 0.960 . S
C531 H518 0.961 . S
C531 H519 0.959 . S
C531 C529 1.561 . S
C532 C529 1.526 1_556 S
C532 C533 1.396 . S
C532 C537 1.390 . S
C533 C527 1.465 . S
C533 C532 1.396 . S
C533 C534 1.399 . S
C534 H520 0.929 . S
C534 C533 1.399 . S
C534 C535 1.385 . S
C535 H521 0.931 . S
C535 C534 1.385 . S
C535 C536 1.389 . S
C536 C535 1.389 . S
C536 C537 1.387 . S
C537 H522 0.922 1_556 S
C537 C532 1.390 . S
C537 C536 1.387 . S
H538 C550 0.930 . S
H539 C552 0.930 . S
H540 C553 0.930 . S
H541 C557 0.959 . S
H542 C557 0.959 . S
H543 C557 0.961 . S
H544 C558 0.960 . S
H545 C558 0.961 . S
H546 C558 0.959 . S
H547 C561 0.929 . S
H548 C562 0.931 . S
H549 C564 0.930 . S
C550 H538 0.930 . S
C550 C551 1.399 . S
C550 C555 1.399 . S
C551 C550 1.399 . S
C551 C552 1.376 . S
C552 H539 0.930 . S
C552 C551 1.376 . S
C552 C553 1.388 . S
C553 H540 0.930 . S
C553 C552 1.388 . S
C553 C554 1.390 . S
C554 C553 1.390 . S
C554 C555 1.394 . S
C554 C560 1.465 . S
C555 C550 1.399 . S
C555 C554 1.394 . S
C555 C556 1.516 . S
C556 C555 1.516 . S
C556 C557 1.502 . S
C556 C558 1.561 . S
C556 C559 1.526 . S
C557 H541 0.959 . S
C557 H542 0.959 . S
C557 H543 0.961 . S
C557 C556 1.502 . S
C558 H544 0.960 . S
C558 H545 0.961 . S
C558 H546 0.959 . S
C558 C556 1.561 . S
C559 C556 1.526 . S
C559 C560 1.396 . S
C559 C564 1.390 . S
C560 C554 1.465 . S
C560 C559 1.396 . S
C560 C561 1.399 . S
C561 H547 0.929 . S
C561 C560 1.399 . S
C561 C562 1.385 . S
C562 H548 0.931 . S
C562 C561 1.385 . S
C562 C563 1.389 . S
C563 C562 1.389 . S
C563 C564 1.387 . S
C564 H549 0.930 . S
C564 C559 1.390 . S
C564 C563 1.387 . S
H565 C577 0.930 . S
H566 C579 0.930 . S
H567 C580 0.930 . S
H568 C584 0.959 . S
H569 C584 0.959 . S
H570 C584 0.961 . S
H571 C585 0.960 . S
H572 C585 0.961 . S
H573 C585 0.959 . S
H574 C588 0.929 . S
H575 C589 0.931 . S
H576 C591 0.930 . S
C577 H565 0.930 . S
C577 C578 1.399 . S
C577 C582 1.399 . S
C578 C577 1.399 . S
C578 C579 1.376 . S
C579 H566 0.930 . S
C579 C578 1.376 . S
C579 C580 1.388 . S
C580 H567 0.930 . S
C580 C579 1.388 . S
C580 C581 1.390 . S
C581 C580 1.390 . S
C581 C582 1.394 . S
C581 C587 1.465 . S
C582 C577 1.399 . S
C582 C581 1.394 . S
C582 C583 1.516 . S
C583 C582 1.516 . S
C583 C584 1.502 . S
C583 C585 1.561 . S
C583 C586 1.526 . S
C584 H568 0.959 . S
C584 H569 0.959 . S
C584 H570 0.961 . S
C584 C583 1.502 . S
C585 H571 0.960 . S
C585 H572 0.961 . S
C585 H573 0.959 . S
C585 C583 1.561 . S
C586 C583 1.526 . S
C586 C587 1.396 . S
C586 C591 1.390 . S
C587 C581 1.465 . S
C587 C586 1.396 . S
C587 C588 1.399 . S
C588 H574 0.929 . S
C588 C587 1.399 . S
C588 C589 1.385 . S
C589 H575 0.931 . S
C589 C588 1.385 . S
C589 C590 1.389 . S
C590 C589 1.389 . S
C590 C591 1.387 . S
C591 H576 0.930 . S
C591 C586 1.390 . S
C591 C590 1.387 . S
H592 C604 0.930 . S
H593 C606 0.930 . S
H594 C607 0.930 . S
H595 C611 0.959 . S
H596 C611 0.959 . S
H597 C611 0.961 1_556 S
H598 C612 0.960 1_556 S
H599 C612 0.961 . S
H600 C612 0.959 1_655 S
H601 C615 0.929 . S
H602 C616 0.931 . S
H603 C618 0.930 . S
C604 H592 0.930 . S
C604 C605 1.399 1_445 S
C604 C609 1.399 . S
C605 C604 1.399 1_665 S
C605 C606 1.376 . S
C606 H593 0.930 . S
C606 C605 1.376 . S
C606 C607 1.388 . S
C607 H594 0.930 . S
C607 C606 1.388 . S
C607 C608 1.390 . S
C608 C607 1.390 . S
C608 C609 1.394 1_665 S
C608 C614 1.465 1_556 S
C609 C604 1.399 . S
C609 C608 1.394 1_445 S
C609 C610 1.516 1_556 S
C610 C609 1.516 1_554 S
C610 C611 1.502 . S
C610 C612 1.561 . S
C610 C613 1.526 . S
C611 H595 0.959 . S
C611 H596 0.959 . S
C611 H597 0.961 1_554 S
C611 C610 1.502 . S
C612 H598 0.960 1_554 S
C612 H599 0.961 . S
C612 H600 0.959 1_455 S
C612 C610 1.561 . S
C613 C610 1.526 . S
C613 C614 1.396 1_445 S
C613 C618 1.390 . S
C614 C608 1.465 1_554 S
C614 C613 1.396 1_665 S
C614 C615 1.399 . S
C615 H601 0.929 . S
C615 C614 1.399 . S
C615 C616 1.385 . S
C616 H602 0.931 . S
C616 C615 1.385 . S
C616 C617 1.377 1_665 S
C617 C616 1.377 1_445 S
C617 C618 1.398 . S
C618 H603 0.930 . S
C618 C613 1.390 . S
C618 C617 1.398 . S
H619 C631 0.930 . S
H620 C633 0.930 . S
H621 C634 0.930 . S
H622 C638 0.959 . S
H623 C638 0.959 . S
H624 C638 0.961 . S
H625 C639 0.960 . S
H626 C639 0.961 . S
H627 C639 0.959 . S
H628 C642 0.929 . S
H629 C643 0.931 . S
H630 C645 0.930 . S
C631 H619 0.930 . S
C631 C632 1.399 . S
C631 C636 1.399 . S
C632 C631 1.399 . S
C632 C633 1.376 . S
C633 H620 0.930 . S
C633 C632 1.376 . S
C633 C634 1.388 . S
C634 H621 0.930 . S
C634 C633 1.388 . S
C634 C635 1.390 . S
C635 C634 1.390 . S
C635 C636 1.394 . S
C635 C641 1.465 . S
C636 C631 1.399 . S
C636 C635 1.394 . S
C636 C637 1.516 . S
C637 C636 1.516 . S
C637 C638 1.502 . S
C637 C639 1.561 . S
C637 C640 1.526 . S
C638 H622 0.959 . S
C638 H623 0.959 . S
C638 H624 0.961 . S
C638 C637 1.502 . S
C639 H625 0.960 . S
C639 H626 0.961 . S
C639 H627 0.959 . S
C639 C637 1.561 . S
C640 C637 1.526 . S
C640 C641 1.396 . S
C640 C645 1.390 . S
C641 C635 1.465 . S
C641 C640 1.396 . S
C641 C642 1.399 . S
C642 H628 0.929 . S
C642 C641 1.399 . S
C642 C643 1.385 . S
C643 H629 0.931 . S
C643 C642 1.385 . S
C643 C644 1.389 . S
C644 C643 1.389 . S
C644 C645 1.387 . S
C645 H630 0.930 . S
C645 C640 1.390 . S
C645 C644 1.387 . S
H646 C658 0.930 . S
H647 C660 0.930 . S
H648 C661 0.930 . S
H649 C665 0.959 . S
H650 C665 0.959 . S
H651 C665 0.961 . S
H652 C666 0.960 . S
H653 C666 0.961 . S
H654 C666 0.959 . S
H655 C669 0.929 . S
H656 C670 0.931 . S
H657 C672 0.930 . S
C658 H646 0.930 . S
C658 C659 1.399 1_545 S
C658 C663 1.399 . S
C659 C658 1.399 1_565 S
C659 C660 1.376 . S
C660 H647 0.930 . S
C660 C659 1.376 . S
C660 C661 1.388 . S
C661 H648 0.930 . S
C661 C660 1.388 . S
C661 C662 1.390 . S
C662 C661 1.390 . S
C662 C663 1.394 1_565 S
C662 C668 1.465 . S
C663 C658 1.399 . S
C663 C662 1.394 1_545 S
C663 C664 1.516 . S
C664 C663 1.516 . S
C664 C665 1.502 . S
C664 C666 1.561 . S
C664 C667 1.526 . S
C665 H649 0.959 . S
C665 H650 0.959 . S
C665 H651 0.961 . S
C665 C664 1.502 . S
C666 H652 0.960 . S
C666 H653 0.961 . S
C666 H654 0.959 . S
C666 C664 1.561 . S
C667 C664 1.526 . S
C667 C668 1.396 1_545 S
C667 C672 1.390 . S
C668 C662 1.465 . S
C668 C667 1.396 1_565 S
C668 C669 1.399 . S
C669 H655 0.929 . S
C669 C668 1.399 . S
C669 C670 1.385 . S
C670 H656 0.931 . S
C670 C669 1.385 . S
C670 C671 1.389 1_565 S
C671 C670 1.389 1_545 S
C671 C672 1.387 . S
C672 H657 0.930 . S
C672 C667 1.390 . S
C672 C671 1.387 . S
H673 C685 0.930 . S
H674 C687 0.930 . S
H675 C688 0.930 . S
H676 C692 0.959 . S
H677 C692 0.959 . S
H678 C692 0.961 . S
H679 C693 0.960 . S
H680 C693 0.961 . S
H681 C693 0.959 . S
H682 C696 0.929 . S
H683 C697 0.931 . S
H684 C699 0.930 . S
C685 H673 0.930 . S
C685 C686 1.399 . S
C685 C690 1.399 . S
C686 C685 1.399 . S
C686 C687 1.376 . S
C687 H674 0.930 . S
C687 C686 1.376 . S
C687 C688 1.388 . S
C688 H675 0.930 . S
C688 C687 1.388 . S
C688 C689 1.390 . S
C689 C688 1.390 . S
C689 C690 1.394 . S
C689 C695 1.465 . S
C690 C685 1.399 . S
C690 C689 1.394 . S
C690 C691 1.516 . S
C691 C690 1.516 . S
C691 C692 1.502 . S
C691 C693 1.561 . S
C691 C694 1.526 . S
C692 H676 0.959 . S
C692 H677 0.959 . S
C692 H678 0.961 . S
C692 C691 1.502 . S
C693 H679 0.960 . S
C693 H680 0.961 . S
C693 H681 0.959 . S
C693 C691 1.561 . S
C694 C691 1.526 . S
C694 C695 1.396 . S
C694 C699 1.390 . S
C695 C689 1.465 . S
C695 C694 1.396 . S
C695 C696 1.399 . S
C696 H682 0.929 . S
C696 C695 1.399 . S
C696 C697 1.385 . S
C697 H683 0.931 . S
C697 C696 1.385 . S
C697 C698 1.389 . S
C698 C697 1.389 . S
C698 C699 1.387 . S
C699 H684 0.930 . S
C699 C694 1.390 . S
C699 C698 1.387 . S
H700 C712 0.930 . S
H701 C714 0.930 . S
H702 C715 0.930 . S
H703 C719 0.959 . S
H704 C719 0.959 . S
H705 C719 0.961 . S
H706 C720 0.960 . S
H707 C720 0.961 . S
H708 C720 0.959 . S
H709 C723 0.929 . S
H710 C724 0.931 . S
H711 C726 0.930 . S
C712 H700 0.930 . S
C712 C713 1.399 . S
C712 C717 1.399 . S
C713 C712 1.399 . S
C713 C714 1.376 . S
C714 H701 0.930 . S
C714 C713 1.376 . S
C714 C715 1.388 . S
C715 H702 0.930 . S
C715 C714 1.388 . S
C715 C716 1.390 . S
C716 C715 1.390 . S
C716 C717 1.394 . S
C716 C722 1.465 . S
C717 C712 1.399 . S
C717 C716 1.394 . S
C717 C718 1.516 . S
C718 C717 1.516 . S
C718 C719 1.502 . S
C718 C720 1.561 . S
C718 C721 1.526 . S
C719 H703 0.959 . S
C719 H704 0.959 . S
C719 H705 0.961 . S
C719 C718 1.502 . S
C720 H706 0.960 . S
C720 H707 0.961 . S
C720 H708 0.959 . S
C720 C718 1.561 . S
C721 C718 1.526 . S
C721 C722 1.396 . S
C721 C726 1.390 . S
C722 C716 1.465 . S
C722 C721 1.396 . S
C722 C723 1.399 . S
C723 H709 0.929 . S
C723 C722 1.399 . S
C723 C724 1.385 . S
C724 H710 0.931 . S
C724 C723 1.385 . S
C724 C725 1.389 . S
C725 C724 1.389 . S
C725 C726 1.387 . S
C726 H711 0.930 . S
C726 C721 1.390 . S
C726 C725 1.387 . S
H727 C739 0.930 . S
H728 C741 0.930 . S
H729 C742 0.930 . S
H730 C746 0.959 . S
H731 C746 0.959 . S
H732 C746 0.961 . S
H733 C747 0.960 . S
H734 C747 0.961 . S
H735 C747 0.959 . S
H736 C750 0.929 . S
H737 C751 0.931 . S
H738 C753 0.930 . S
C739 H727 0.930 . S
C739 C740 1.399 . S
C739 C744 1.399 . S
C740 C739 1.399 . S
C740 C741 1.376 . S
C741 H728 0.930 . S
C741 C740 1.376 . S
C741 C742 1.388 . S
C742 H729 0.930 . S
C742 C741 1.388 . S
C742 C743 1.390 . S
C743 C742 1.390 . S
C743 C744 1.394 . S
C743 C749 1.465 . S
C744 C739 1.399 . S
C744 C743 1.394 . S
C744 C745 1.516 . S
C745 C744 1.516 . S
C745 C746 1.502 . S
C745 C747 1.561 . S
C745 C748 1.526 . S
C746 H730 0.959 . S
C746 H731 0.959 . S
C746 H732 0.961 . S
C746 C745 1.502 . S
C747 H733 0.960 . S
C747 H734 0.961 . S
C747 H735 0.959 . S
C747 C745 1.561 . S
C748 C745 1.526 . S
C748 C749 1.396 . S
C748 C753 1.390 . S
C749 C743 1.465 . S
C749 C748 1.396 . S
C749 C750 1.399 . S
C750 H736 0.929 . S
C750 C749 1.399 . S
C750 C751 1.385 . S
C751 H737 0.931 . S
C751 C750 1.385 . S
C751 C752 1.389 . S
C752 C751 1.389 . S
C752 C753 1.387 . S
C753 H738 0.930 . S
C753 C748 1.390 . S
C753 C752 1.387 . S
H754 C766 0.930 . S
H755 C768 0.930 . S
H756 C769 0.930 . S
H757 C773 0.959 . S
H758 C773 0.959 . S
H759 C773 0.961 . S
H760 C774 0.960 . S
H761 C774 0.961 . S
H762 C774 0.959 . S
H763 C777 0.929 . S
H764 C778 0.931 . S
H765 C780 0.930 . S
C766 H754 0.930 . S
C766 C767 1.399 . S
C766 C771 1.399 . S
C767 C766 1.399 . S
C767 C768 1.376 . S
C768 H755 0.930 . S
C768 C767 1.376 . S
C768 C769 1.388 . S
C769 H756 0.930 . S
C769 C768 1.388 . S
C769 C770 1.390 . S
C770 C769 1.390 . S
C770 C771 1.394 . S
C770 C776 1.465 . S
C771 C766 1.399 . S
C771 C770 1.394 . S
C771 C772 1.516 . S
C772 C771 1.516 . S
C772 C773 1.502 . S
C772 C774 1.561 . S
C772 C775 1.526 . S
C773 H757 0.959 . S
C773 H758 0.959 . S
C773 H759 0.961 . S
C773 C772 1.502 . S
C774 H760 0.960 . S
C774 H761 0.961 . S
C774 H762 0.959 . S
C774 C772 1.561 . S
C775 C772 1.526 . S
C775 C776 1.396 . S
C775 C780 1.390 . S
C776 C770 1.465 . S
C776 C775 1.396 . S
C776 C777 1.399 . S
C777 H763 0.929 . S
C777 C776 1.399 . S
C777 C778 1.385 . S
C778 H764 0.931 . S
C778 C777 1.385 . S
C778 C779 1.389 . S
C779 C778 1.389 . S
C779 C780 1.387 . S
C780 H765 0.930 . S
C780 C775 1.390 . S
C780 C779 1.387 . S
H781 C793 0.930 . S
H782 C795 0.930 . S
H783 C796 0.930 . S
H784 C800 0.959 . S
H785 C800 0.959 . S
H786 C800 0.961 . S
H787 C801 0.960 . S
H788 C801 0.961 . S
H789 C801 0.959 1_655 S
H790 C804 0.929 . S
H791 C805 0.931 . S
H792 C807 0.930 . S
C793 H781 0.930 . S
C793 C794 1.399 1_455 S
C793 C798 1.399 . S
C794 C793 1.399 1_655 S
C794 C795 1.376 . S
C795 H782 0.930 . S
C795 C794 1.376 . S
C795 C796 1.388 . S
C796 H783 0.930 . S
C796 C795 1.388 . S
C796 C797 1.390 . S
C797 C796 1.390 . S
C797 C798 1.394 1_655 S
C797 C803 1.465 1_556 S
C798 C793 1.399 . S
C798 C797 1.394 1_455 S
C798 C799 1.516 1_556 S
C799 C798 1.516 1_554 S
C799 C800 1.502 . S
C799 C801 1.561 . S
C799 C802 1.526 . S
C800 H784 0.959 . S
C800 H785 0.959 . S
C800 H786 0.961 . S
C800 C799 1.502 . S
C801 H787 0.960 . S
C801 H788 0.961 . S
C801 H789 0.959 1_455 S
C801 C799 1.561 . S
C802 C799 1.526 . S
C802 C803 1.396 1_455 S
C802 C807 1.390 . S
C803 C797 1.465 1_554 S
C803 C802 1.396 1_655 S
C803 C804 1.399 . S
C804 H790 0.929 . S
C804 C803 1.399 . S
C804 C805 1.385 . S
C805 H791 0.931 . S
C805 C804 1.385 . S
C805 C806 1.385 1_655 S
C806 C805 1.385 1_455 S
C806 C807 1.391 . S
C807 H792 0.930 . S
C807 C802 1.390 . S
C807 C806 1.391 . S
C173 C16 1.148 . S
C185 C76 1.236 . S
C200 C1 1.517 . S
C212 C36 1.525 . S
C227 C21 1.829 . S
C239 C41 1.858 . S
C254 C56 1.443 . S
C266 C61 1.560 . S
C281 C6 1.232 . S
C293 C106 1.148 . S
C308 C9 1.510 . S
C320 C86 1.524 . S
C335 C89 1.858 . S
C347 C49 1.811 . S
C362 C109 1.512 . S
C374 C46 1.525 . S
C389 C136 1.157 . S
C401 C116 1.235 . S
C416 C96 1.469 . S
C428 C121 1.555 . S
C443 C141 1.815 . S
C455 C81 1.861 . S
C470 C101 1.549 . S
C482 C156 1.445 . S
C497 C66 1.238 . S
C509 C126 1.151 . S
C524 C129 1.560 . S
C536 C26 1.440 . S
C551 C29 1.809 . S
C563 C149 1.854 . S
C578 C69 1.559 . S
C590 C146 1.441 . S
C605 C19 1.922 1_665 S
C617 C8 1.857 1_445 S
C632 C28 1.874 . S
C644 C39 1.954 1_554 S
C659 C59 1.960 . S
C671 C48 1.873 . S
C686 C79 1.911 1_556 S
C698 C68 1.890 . S
C713 C88 1.873 1_556 S
C725 C99 1.956 . S
C740 C119 1.877 . S
C752 C108 1.901 1_554 S
C767 C128 1.880 . S
C779 C139 1.919 . S
C794 C148 1.908 1_655 S
C806 C159 1.934 1_455 S
