# Generated by pormake.
# Topology wmt, (6)-cn, num edge types: 1
# Building blocks:
#     Node 0, Type 0, BuildingBlock: VOLQOD_clean_sbu_1, # of connection points: 6
#     Node 1, Type 0, BuildingBlock: VOLQOD_clean_sbu_1, # of connection points: 6
#     Node 2, Type 0, BuildingBlock: VOLQOD_clean_sbu_1, # of connection points: 6
#     Node 3, Type 0, BuildingBlock: VOLQOD_clean_sbu_1, # of connection points: 6
#     Node 4, Type 0, BuildingBlock: VOLQOD_clean_sbu_1, # of connection points: 6
#     Node 5, Type 0, BuildingBlock: VOLQOD_clean_sbu_1, # of connection points: 6
#     Node 6, Type 0, BuildingBlock: VOLQOD_clean_sbu_1, # of connection points: 6
#     Node 7, Type 0, BuildingBlock: VOLQOD_clean_sbu_1, # of connection points: 6
#     Node 8, Type 0, BuildingBlock: VOLQOD_clean_sbu_1, # of connection points: 6
#     Node 9, Type 0, BuildingBlock: VOLQOD_clean_sbu_1, # of connection points: 6
#     Node 10, Type 0, BuildingBlock: VOLQOD_clean_sbu_1, # of connection points: 6
#     Node 11, Type 0, BuildingBlock: VOLQOD_clean_sbu_1, # of connection points: 6
#     Node 12, Type 0, BuildingBlock: VOLQOD_clean_sbu_1, # of connection points: 6
#     Node 13, Type 0, BuildingBlock: VOLQOD_clean_sbu_1, # of connection points: 6
#     Node 14, Type 0, BuildingBlock: VOLQOD_clean_sbu_1, # of connection points: 6
#     Node 15, Type 0, BuildingBlock: VOLQOD_clean_sbu_1, # of connection points: 6
#     Node 16, Type 0, BuildingBlock: VOLQOD_clean_sbu_1, # of connection points: 6
#     Node 17, Type 0, BuildingBlock: VOLQOD_clean_sbu_1, # of connection points: 6
#     Node 18, Type 0, BuildingBlock: VOLQOD_clean_sbu_1, # of connection points: 6
#     Node 19, Type 0, BuildingBlock: VOLQOD_clean_sbu_1, # of connection points: 6
#     Node 20, Type 0, BuildingBlock: VOLQOD_clean_sbu_1, # of connection points: 6
#     Node 21, Type 0, BuildingBlock: VOLQOD_clean_sbu_1, # of connection points: 6
#     Node 22, Type 0, BuildingBlock: VOLQOD_clean_sbu_1, # of connection points: 6
#     Node 23, Type 0, BuildingBlock: VOLQOD_clean_sbu_1, # of connection points: 6
#     Node 24, Type 0, BuildingBlock: VOLQOD_clean_sbu_1, # of connection points: 6
#     Node 25, Type 0, BuildingBlock: VOLQOD_clean_sbu_1, # of connection points: 6
#     Node 26, Type 0, BuildingBlock: VOLQOD_clean_sbu_1, # of connection points: 6
#     Node 27, Type 0, BuildingBlock: VOLQOD_clean_sbu_1, # of connection points: 6
#     Node 28, Type 0, BuildingBlock: VOLQOD_clean_sbu_1, # of connection points: 6
#     Node 29, Type 0, BuildingBlock: VOLQOD_clean_sbu_1, # of connection points: 6
#     Node 30, Type 0, BuildingBlock: VOLQOD_clean_sbu_1, # of connection points: 6
#     Node 31, Type 0, BuildingBlock: VOLQOD_clean_sbu_1, # of connection points: 6
#     Node 32, Type 0, BuildingBlock: VOLQOD_clean_sbu_1, # of connection points: 6
#     Node 33, Type 0, BuildingBlock: VOLQOD_clean_sbu_1, # of connection points: 6
#     Node 34, Type 0, BuildingBlock: VOLQOD_clean_sbu_1, # of connection points: 6
#     Node 35, Type 0, BuildingBlock: VOLQOD_clean_sbu_1, # of connection points: 6
#     Edge 36, Type (0, 0), None
#     Edge 37, Type (0, 0), None
#     Edge 38, Type (0, 0), None
#     Edge 39, Type (0, 0), None
#     Edge 40, Type (0, 0), None
#     Edge 41, Type (0, 0), None
#     Edge 42, Type (0, 0), None
#     Edge 43, Type (0, 0), None
#     Edge 44, Type (0, 0), None
#     Edge 45, Type (0, 0), None
#     Edge 46, Type (0, 0), None
#     Edge 47, Type (0, 0), None
#     Edge 48, Type (0, 0), None
#     Edge 49, Type (0, 0), None
#     Edge 50, Type (0, 0), None
#     Edge 51, Type (0, 0), None
#     Edge 52, Type (0, 0), None
#     Edge 53, Type (0, 0), None
#     Edge 54, Type (0, 0), None
#     Edge 55, Type (0, 0), None
#     Edge 56, Type (0, 0), None
#     Edge 57, Type (0, 0), None
#     Edge 58, Type (0, 0), None
#     Edge 59, Type (0, 0), None
#     Edge 60, Type (0, 0), None
#     Edge 61, Type (0, 0), None
#     Edge 62, Type (0, 0), None
#     Edge 63, Type (0, 0), None
#     Edge 64, Type (0, 0), None
#     Edge 65, Type (0, 0), None
#     Edge 66, Type (0, 0), None
#     Edge 67, Type (0, 0), None
#     Edge 68, Type (0, 0), None
#     Edge 69, Type (0, 0), None
#     Edge 70, Type (0, 0), None
#     Edge 71, Type (0, 0), None
#     Edge 72, Type (0, 0), None
#     Edge 73, Type (0, 0), None
#     Edge 74, Type (0, 0), None
#     Edge 75, Type (0, 0), None
#     Edge 76, Type (0, 0), None
#     Edge 77, Type (0, 0), None
#     Edge 78, Type (0, 0), None
#     Edge 79, Type (0, 0), None
#     Edge 80, Type (0, 0), None
#     Edge 81, Type (0, 0), None
#     Edge 82, Type (0, 0), None
#     Edge 83, Type (0, 0), None
#     Edge 84, Type (0, 0), None
#     Edge 85, Type (0, 0), None
#     Edge 86, Type (0, 0), None
#     Edge 87, Type (0, 0), None
#     Edge 88, Type (0, 0), None
#     Edge 89, Type (0, 0), None
#     Edge 90, Type (0, 0), None
#     Edge 91, Type (0, 0), None
#     Edge 92, Type (0, 0), None
#     Edge 93, Type (0, 0), None
#     Edge 94, Type (0, 0), None
#     Edge 95, Type (0, 0), None
#     Edge 96, Type (0, 0), None
#     Edge 97, Type (0, 0), None
#     Edge 98, Type (0, 0), None
#     Edge 99, Type (0, 0), None
#     Edge 100, Type (0, 0), None
#     Edge 101, Type (0, 0), None
#     Edge 102, Type (0, 0), None
#     Edge 103, Type (0, 0), None
#     Edge 104, Type (0, 0), None
#     Edge 105, Type (0, 0), None
#     Edge 106, Type (0, 0), None
#     Edge 107, Type (0, 0), None
#     Edge 108, Type (0, 0), None
#     Edge 109, Type (0, 0), None
#     Edge 110, Type (0, 0), None
#     Edge 111, Type (0, 0), None
#     Edge 112, Type (0, 0), None
#     Edge 113, Type (0, 0), None
#     Edge 114, Type (0, 0), None
#     Edge 115, Type (0, 0), None
#     Edge 116, Type (0, 0), None
#     Edge 117, Type (0, 0), None
#     Edge 118, Type (0, 0), None
#     Edge 119, Type (0, 0), None
#     Edge 120, Type (0, 0), None
#     Edge 121, Type (0, 0), None
#     Edge 122, Type (0, 0), None
#     Edge 123, Type (0, 0), None
#     Edge 124, Type (0, 0), None
#     Edge 125, Type (0, 0), None
#     Edge 126, Type (0, 0), None
#     Edge 127, Type (0, 0), None
#     Edge 128, Type (0, 0), None
#     Edge 129, Type (0, 0), None
#     Edge 130, Type (0, 0), None
#     Edge 131, Type (0, 0), None
#     Edge 132, Type (0, 0), None
#     Edge 133, Type (0, 0), None
#     Edge 134, Type (0, 0), None
#     Edge 135, Type (0, 0), None
#     Edge 136, Type (0, 0), None
#     Edge 137, Type (0, 0), None
#     Edge 138, Type (0, 0), None
#     Edge 139, Type (0, 0), None
#     Edge 140, Type (0, 0), None
#     Edge 141, Type (0, 0), None
#     Edge 142, Type (0, 0), None
#     Edge 143, Type (0, 0), None
# Relax obj value: 0.769
# Max RMSD: 0.284
# Mean RMSD: 0.284
data_MOF--net-wmt--node1-VOLQOD_clean_sbu_1--edge1-none
_symmetry_space_group_name_H-M    P1
_symmetry_Int_Tables_number       1
_symmetry_cell_setting            triclinic
loop_
_symmetry_equiv_pos_as_xyz
'x, y, z'
_cell_length_a     50.186176
_cell_length_b     50.185431
_cell_length_c     12.762137
_cell_angle_alpha  89.999576
_cell_angle_beta   90.002821
_cell_angle_gamma 120.00178
loop_
_atom_site_label
_atom_site_type_symbol
_atom_site_fract_x
_atom_site_fract_y
_atom_site_fract_z
_atom_type_partial_charge
O0 O 0.07163 0.52838 0.1672 0.0
Zn1 Zn 0.04148 0.51003 0.05181 0.0
O2 O 0.0327 0.46756 0.0291 0.0
Zn3 Zn -0.0118 0.43648 0.03197 0.0
Zn4 Zn 0.05122 0.45337 0.13003 0.0
Zn5 Zn 0.04975 0.47178 0.8916 0.0
O6 O 0.97377 0.42374 0.88766 0.0
O7 O 0.01576 0.4524 0.79152 0.0
O8 O 0.00163 0.50506 0.10572 0.0
O9 O 0.9671 0.45745 0.09654 0.0
O10 O 0.97529 0.39916 0.12028 0.0
O11 O 0.01682 0.4188 0.21901 0.0
O12 O 0.07772 0.43918 0.04101 0.0
O13 O 0.05584 0.53751 0.92025 0.0
O14 O 0.07137 0.4493 0.87535 0.0
O15 O 0.07849 0.51495 0.8433 0.0
C16 C 0.07499 0.51523 0.24736 0.0
C17 C -0.01269 0.43297 0.80004 0.0
C18 C -0.01182 0.39962 0.20616 0.0
C19 C 0.97787 0.48428 0.05984 0.0
C20 C 0.08184 0.43818 0.94126 0.0
C21 C 0.07306 0.53705 0.84765 0.0
O22 O 0.06928 0.48733 0.24404 0.0
O23 O 0.43526 0.53595 0.1673 0.0
Zn24 Zn 0.4536 0.52416 0.05188 0.0
O25 O 0.49606 0.55785 0.02917 0.0
Zn26 Zn 0.52714 0.54443 0.03204 0.0
Zn27 Zn 0.51026 0.59057 0.13007 0.0
Zn28 Zn 0.49184 0.57068 0.89167 0.0
O29 O 0.53988 0.54275 0.88774 0.0
O30 O 0.5112 0.55606 0.79159 0.0
O31 O 0.45857 0.48928 0.10576 0.0
O32 O 0.50618 0.50236 0.09659 0.0
O33 O 0.56446 0.56884 0.12037 0.0
O34 O 0.54483 0.59074 0.21908 0.0
O35 O 0.52445 0.63126 0.04101 0.0
O36 O 0.42611 0.51104 0.92032 0.0
O37 O 0.51433 0.61478 0.87537 0.0
O38 O 0.44867 0.55626 0.84342 0.0
C39 C 0.4484 0.55247 0.24743 0.0
C40 C 0.53064 0.54705 0.80011 0.0
C41 C 0.564 0.58128 0.20624 0.0
C42 C 0.47935 0.4863 0.05989 0.0
C43 C 0.52546 0.63637 0.94125 0.0
C44 C 0.42657 0.52872 0.84774 0.0
O45 O 0.4763 0.57467 0.24409 0.0
O46 O 0.42775 0.89207 0.1673 0.0
Zn47 Zn 0.43953 0.9222 0.05184 0.0
O48 O 0.40583 0.93095 0.02914 0.0
Zn49 Zn 0.41923 0.97545 0.03201 0.0
Zn50 Zn 0.37311 0.91243 0.13006 0.0
Zn51 Zn 0.39298 0.91389 0.89165 0.0
O52 O 0.42091 -0.01013 0.88771 0.0
O53 O 0.4076 0.94788 0.79157 0.0
O54 O 0.47441 0.96206 0.10569 0.0
O55 O 0.46131 -0.00343 0.09654 0.0
O56 O 0.39483 -0.01164 0.12034 0.0
O57 O 0.37295 0.94683 0.21907 0.0
O58 O 0.33242 0.88593 0.04103 0.0
O59 O 0.45264 0.90782 0.92029 0.0
O60 O 0.34888 0.89227 0.87538 0.0
O61 O 0.40742 0.88515 0.84336 0.0
C62 C 0.41122 0.88868 0.24741 0.0
C63 C 0.41661 0.97632 0.80009 0.0
C64 C 0.3824 0.97546 0.20622 0.0
C65 C 0.47738 -0.01418 0.05983 0.0
C66 C 0.32729 0.88181 0.94128 0.0
C67 C 0.43496 0.89059 0.8477 0.0
O68 O 0.38902 0.89436 0.24406 0.0
O69 O 0.52114 0.07889 0.33944 0.0
Zn70 Zn 0.5028 0.04875 0.45487 0.0
O71 O 0.46034 0.03998 0.47755 0.0
Zn72 Zn 0.42925 -0.00452 0.47469 0.0
Zn73 Zn 0.44614 0.05851 0.37664 0.0
Zn74 Zn 0.46455 0.05704 0.61505 0.0
O75 O 0.41652 0.98106 0.61899 0.0
O76 O 0.44518 0.02306 0.71513 0.0
O77 O 0.49782 0.0089 0.40099 0.0
O78 O 0.45021 0.97437 0.41015 0.0
O79 O 0.39193 0.98258 0.38638 0.0
O80 O 0.41157 0.02411 0.28763 0.0
O81 O 0.43195 0.08501 0.46568 0.0
O82 O 0.53028 0.06312 0.58643 0.0
O83 O 0.44207 0.07866 0.63133 0.0
O84 O 0.50773 0.08579 0.66335 0.0
C85 C 0.508 0.08227 0.25931 0.0
C86 C 0.42575 -0.00539 0.7066 0.0
C87 C 0.39239 -0.00452 0.30054 0.0
C88 C 0.47704 0.98513 0.44685 0.0
C89 C 0.43094 0.08912 0.56543 0.0
C90 C 0.52983 0.08035 0.65901 0.0
O91 O 0.48011 0.07657 0.26264 0.0
O92 O 0.88476 0.43493 0.3393 0.0
Zn93 Zn 0.9149 0.44672 0.45473 0.0
O94 O 0.92366 0.41302 0.47743 0.0
Zn95 Zn 0.96816 0.42644 0.47461 0.0
Zn96 Zn 0.90514 0.3803 0.37652 0.0
Zn97 Zn 0.9066 0.40019 0.61492 0.0
O98 O -0.01742 0.42813 0.61893 0.0
O99 O 0.94058 0.41481 0.71505 0.0
O100 O 0.95475 0.4816 0.40087 0.0
O101 O -0.01073 0.46851 0.41006 0.0
O102 O -0.01893 0.40203 0.38632 0.0
O103 O 0.93953 0.38013 0.28755 0.0
O104 O 0.87863 0.3396 0.46554 0.0
O105 O 0.90053 0.45984 0.58628 0.0
O106 O 0.88499 0.35609 0.63116 0.0
O107 O 0.87784 0.41461 0.66315 0.0
C108 C 0.88138 0.41841 0.25916 0.0
C109 C 0.96903 0.42382 0.70654 0.0
C110 C 0.96816 0.38958 0.30046 0.0
C111 C -0.02149 0.48458 0.44675 0.0
C112 C 0.87452 0.33449 0.56529 0.0
C113 C 0.88329 0.44215 0.65885 0.0
O114 O 0.88708 0.39621 0.2625 0.0
O115 O 0.52867 0.44254 0.33938 0.0
Zn116 Zn 0.51688 0.46088 0.45482 0.0
O117 O 0.55058 0.50334 0.47754 0.0
Zn118 Zn 0.53717 0.53443 0.4747 0.0
Zn119 Zn 0.5833 0.51754 0.37663 0.0
Zn120 Zn 0.56342 0.49912 0.61503 0.0
O121 O 0.53549 0.54716 0.61902 0.0
O122 O 0.5488 0.51848 0.71514 0.0
O123 O 0.48201 0.46586 0.40095 0.0
O124 O 0.4951 0.51348 0.41015 0.0
O125 O 0.56159 0.57175 0.3864 0.0
O126 O 0.58348 0.55211 0.28765 0.0
O127 O 0.62399 0.53171 0.46566 0.0
O128 O 0.50377 0.43339 0.58637 0.0
O129 O 0.60752 0.5216 0.63131 0.0
O130 O 0.54899 0.45594 0.66325 0.0
C131 C 0.54519 0.45568 0.25926 0.0
C132 C 0.53979 0.53792 0.70663 0.0
C133 C 0.57403 0.57129 0.30056 0.0
C134 C 0.47903 0.48664 0.44684 0.0
C135 C 0.62911 0.53272 0.56541 0.0
C136 C 0.52145 0.43384 0.65894 0.0
O137 O 0.56739 0.48357 0.26261 0.0
O138 O 0.88404 0.44237 0.83973 0.0
Zn139 Zn 0.91457 0.46067 0.95424 0.0
O140 O 0.92356 0.50322 0.97727 0.0
Zn141 Zn 0.96808 0.53419 0.97432 0.0
Zn142 Zn 0.90511 0.51752 0.87644 0.0
Zn143 Zn 0.90654 0.49899 0.11485 0.0
O144 O -0.01745 0.54683 0.11884 0.0
O145 O 0.94055 0.51822 0.21506 0.0
O146 O 0.95429 0.46546 0.89961 0.0
O147 O -0.01105 0.51308 0.9089 0.0
O148 O -0.01894 0.57158 0.88622 0.0
O149 O 0.93952 0.5521 0.78757 0.0
O150 O 0.87863 0.5317 0.96556 0.0
O151 O 0.90038 0.43329 0.08597 0.0
O152 O 0.88502 0.52158 0.13118 0.0
O153 O 0.87761 0.45577 0.1626 0.0
C154 C 0.88113 0.45565 0.75912 0.0
C155 C 0.96902 0.53759 0.20651 0.0
C156 C 0.96817 0.5712 0.80041 0.0
C157 C 0.9781 0.48621 0.94539 0.0
C158 C 0.87456 0.53272 0.06533 0.0
C159 C 0.88315 0.43373 0.15853 0.0
O160 O 0.88713 0.48364 0.76219 0.0
O161 O 0.52124 0.43437 0.83983 0.0
Zn162 Zn 0.50294 0.4466 0.95431 0.0
O163 O 0.4604 0.41305 0.97734 0.0
Zn164 Zn 0.42943 0.42661 0.97439 0.0
Zn165 Zn 0.44609 0.3803 0.87651 0.0
Zn166 Zn 0.46462 0.40026 0.11492 0.0
O167 O 0.41679 0.42844 0.11891 0.0
O168 O 0.44539 0.41504 0.21513 0.0
O169 O 0.49816 0.48154 0.89966 0.0
O170 O 0.45055 0.46858 0.90895 0.0
O171 O 0.39204 0.4022 0.88629 0.0
O172 O 0.41151 0.38013 0.78765 0.0
O173 O 0.43192 0.33963 0.96562 0.0
O174 O 0.53033 0.4598 0.08606 0.0
O175 O 0.44203 0.35615 0.13124 0.0
O176 O 0.50784 0.41454 0.16268 0.0
C177 C 0.50796 0.41818 0.75921 0.0
C178 C 0.42603 0.42415 0.20658 0.0
C179 C 0.39241 0.38968 0.80048 0.0
C180 C 0.47742 0.4846 0.94543 0.0
C181 C 0.43089 0.33454 0.06539 0.0
C182 C 0.52988 0.44212 0.15862 0.0
O183 O 0.47997 0.3962 0.76226 0.0
O184 O 0.52935 0.07967 0.83991 0.0
Zn185 Zn 0.5171 0.04912 0.95433 0.0
O186 O 0.55064 0.0401 0.97738 0.0
Zn187 Zn 0.53707 -0.00442 0.97439 0.0
Zn188 Zn 0.58339 0.05855 0.87656 0.0
Zn189 Zn 0.56343 0.05712 0.11497 0.0
O190 O 0.53522 0.9811 0.11891 0.0
O191 O 0.54865 0.0231 0.21515 0.0
O192 O 0.48215 0.00941 0.89962 0.0
O193 O 0.4951 0.97474 0.90889 0.0
O194 O 0.56147 0.98259 0.88631 0.0
O195 O 0.58356 0.02413 0.7877 0.0
O196 O 0.62405 0.08505 0.96569 0.0
O197 O 0.50389 0.06329 0.08609 0.0
O198 O 0.60754 0.07864 0.13131 0.0
O199 O 0.54914 0.08604 0.16277 0.0
C200 C 0.54551 0.08254 0.75926 0.0
C201 C 0.53953 -0.00537 0.20659 0.0
C202 C 0.574 -0.00452 0.80052 0.0
C203 C 0.47908 -0.01441 0.94538 0.0
C204 C 0.62915 0.08912 0.06546 0.0
C205 C 0.52157 0.08051 0.15868 0.0
O206 O 0.56749 0.07652 0.7623 0.0
O207 O 0.43516 0.89128 0.66681 0.0
Zn208 Zn 0.45346 0.92184 0.55238 0.0
O209 O 0.49602 0.93085 0.52935 0.0
Zn210 Zn 0.52697 0.97538 0.53231 0.0
Zn211 Zn 0.51033 0.9124 0.63017 0.0
Zn212 Zn 0.49179 0.91383 0.39176 0.0
O213 O 0.5396 -0.01015 0.38779 0.0
O214 O 0.51102 0.94784 0.29156 0.0
O215 O 0.45823 0.96155 0.60707 0.0
O216 O 0.50584 -0.00378 0.59779 0.0
O217 O 0.56437 -0.01163 0.62038 0.0
O218 O 0.54492 0.94682 0.71903 0.0
O219 O 0.5245 0.88592 0.54104 0.0
O220 O 0.42608 0.90766 0.42062 0.0
O221 O 0.51439 0.89232 0.37542 0.0
O222 O 0.44857 0.88489 0.344 0.0
C223 C 0.44846 0.88841 0.74746 0.0
C224 C 0.53038 0.97632 0.30011 0.0
C225 C 0.56401 0.97547 0.70615 0.0
C226 C 0.47897 0.98537 0.5613 0.0
C227 C 0.52552 0.88185 0.44126 0.0
C228 C 0.42653 0.89043 0.34806 0.0
O229 O 0.47645 0.89443 0.74443 0.0
O230 O 0.07236 0.53656 0.66676 0.0
Zn231 Zn 0.04181 0.52431 0.55231 0.0
O232 O 0.0328 0.55785 0.52927 0.0
Zn233 Zn -0.01173 0.54428 0.53223 0.0
Zn234 Zn 0.05124 0.59061 0.63012 0.0
Zn235 Zn 0.04982 0.57065 0.3917 0.0
O236 O 0.97379 0.54244 0.38771 0.0
O237 O 0.0158 0.55588 0.29149 0.0
O238 O 0.0021 0.48936 0.60698 0.0
O239 O 0.96743 0.5023 0.59768 0.0
O240 O 0.97528 0.56868 0.62029 0.0
O241 O 0.01683 0.59078 0.71895 0.0
O242 O 0.07774 0.63127 0.54103 0.0
O243 O 0.05599 0.51111 0.42056 0.0
O244 O 0.07134 0.61477 0.37539 0.0
O245 O 0.07874 0.55636 0.34388 0.0
C246 C 0.07524 0.55273 0.74741 0.0
C247 C -0.01267 0.54676 0.30004 0.0
C248 C -0.01182 0.58123 0.70605 0.0
C249 C -0.02172 0.48629 0.56121 0.0
C250 C 0.08181 0.63637 0.44126 0.0
C251 C 0.07321 0.52879 0.34798 0.0
O252 O 0.06922 0.57471 0.74437 0.0
O253 O 0.42708 0.52852 0.66686 0.0
Zn254 Zn 0.43932 0.51022 0.55239 0.0
O255 O 0.40578 0.46767 0.52935 0.0
Zn256 Zn 0.41935 0.43671 0.5323 0.0
Zn257 Zn 0.37303 0.45336 0.63018 0.0
Zn258 Zn 0.39299 0.4719 0.39177 0.0
O259 O 0.42118 0.42407 0.38778 0.0
O260 O 0.40776 0.45266 0.29155 0.0
O261 O 0.47427 0.50545 0.60708 0.0
O262 O 0.46132 0.45784 0.59777 0.0
O263 O 0.39494 0.39931 0.62036 0.0
O264 O 0.37285 0.41877 0.71902 0.0
O265 O 0.33237 0.43919 0.54107 0.0
O266 O 0.45253 0.53761 0.42064 0.0
O267 O 0.34888 0.4493 0.37545 0.0
O268 O 0.40727 0.51511 0.344 0.0
C269 C 0.4109 0.51523 0.74748 0.0
C270 C 0.41687 0.4333 0.30011 0.0
C271 C 0.38239 0.39967 0.70612 0.0
C272 C 0.47734 0.48471 0.56129 0.0
C273 C 0.32727 0.43817 0.4413 0.0
C274 C 0.43485 0.53715 0.34807 0.0
O275 O 0.38892 0.48724 0.74443 0.0
O276 O 0.73827 0.86169 0.50057 0.0
Zn277 Zn 0.70813 0.84335 0.38512 0.0
O278 O 0.69936 0.80089 0.36242 0.0
Zn279 Zn 0.65486 0.76981 0.36528 0.0
Zn280 Zn 0.71788 0.78669 0.46334 0.0
Zn281 Zn 0.71642 0.80511 0.22493 0.0
O282 O 0.64044 0.75707 0.22097 0.0
O283 O 0.68243 0.78574 0.12484 0.0
O284 O 0.66828 0.83838 0.43898 0.0
O285 O 0.63375 0.79077 0.42982 0.0
O286 O 0.64194 0.73249 0.45361 0.0
O287 O 0.68347 0.75212 0.55234 0.0
O288 O 0.74437 0.77249 0.37431 0.0
O289 O 0.72251 0.87084 0.25356 0.0
O290 O 0.73803 0.78262 0.20866 0.0
O291 O 0.74517 0.84828 0.17666 0.0
C292 C 0.74165 0.84855 0.58069 0.0
C293 C 0.65398 0.76631 0.13336 0.0
C294 C 0.65484 0.73295 0.53949 0.0
C295 C 0.64452 0.8176 0.39311 0.0
C296 C 0.74849 0.77149 0.27456 0.0
C297 C 0.73973 0.87038 0.18099 0.0
O298 O 0.73595 0.82066 0.57734 0.0
O299 O 0.10192 0.86927 0.50058 0.0
Zn300 Zn 0.12027 0.85747 0.38518 0.0
O301 O 0.16273 0.89117 0.36249 0.0
Zn302 Zn 0.19382 0.87775 0.36537 0.0
Zn303 Zn 0.17693 0.92389 0.4634 0.0
Zn304 Zn 0.15852 0.90401 0.22498 0.0
O305 O 0.20656 0.87607 0.22108 0.0
O306 O 0.17789 0.88939 0.12492 0.0
O307 O 0.12524 0.8226 0.43908 0.0
O308 O 0.17285 0.83568 0.42993 0.0
O309 O 0.23113 0.90216 0.4537 0.0
O310 O 0.2115 0.92405 0.55242 0.0
O311 O 0.19113 0.96458 0.37435 0.0
O312 O 0.09279 0.84436 0.25361 0.0
O313 O 0.18101 0.94811 0.20871 0.0
O314 O 0.11535 0.88958 0.17667 0.0
C315 C 0.11507 0.88579 0.58072 0.0
C316 C 0.19732 0.88038 0.13345 0.0
C317 C 0.23067 0.9146 0.53958 0.0
C318 C 0.14602 0.81962 0.39321 0.0
C319 C 0.19214 0.9697 0.2746 0.0
C320 C 0.09324 0.86204 0.18102 0.0
O321 O 0.14296 0.90798 0.5774 0.0
O322 O 0.09447 0.22544 0.50073 0.0
Zn323 Zn 0.10623 0.25555 0.38523 0.0
O324 O 0.07252 0.26429 0.36254 0.0
Zn325 Zn 0.08591 0.30879 0.36538 0.0
Zn326 Zn 0.03981 0.24577 0.46346 0.0
Zn327 Zn 0.05968 0.24723 0.22505 0.0
O328 O 0.08758 0.3232 0.22107 0.0
O329 O 0.0743 0.28121 0.12495 0.0
O330 O 0.14109 0.29541 0.43904 0.0
O331 O 0.12799 0.32993 0.42986 0.0
O332 O 0.0615 0.32168 0.45372 0.0
O333 O 0.03964 0.28016 0.55247 0.0
O334 O -0.00088 0.21929 0.37444 0.0
O335 O 0.11934 0.24116 0.25368 0.0
O336 O 0.01558 0.22562 0.20879 0.0
O337 O 0.07411 0.21848 0.17679 0.0
C338 C 0.07792 0.22201 0.5808 0.0
C339 C 0.08329 0.30965 0.13346 0.0
C340 C 0.04908 0.30879 0.53961 0.0
C341 C 0.14406 0.31917 0.39315 0.0
C342 C -0.00601 0.21518 0.27469 0.0
C343 C 0.10165 0.22393 0.18111 0.0
O344 O 0.0557 0.22768 0.57743 0.0
O345 O 0.1878 0.41219 0.67272 0.0
Zn346 Zn 0.16946 0.38207 0.78819 0.0
O347 O 0.127 0.37331 0.8109 0.0
Zn348 Zn 0.09591 0.32881 0.80806 0.0
Zn349 Zn 0.1128 0.39183 0.70998 0.0
Zn350 Zn 0.13121 0.39037 0.94839 0.0
O351 O 0.08319 0.31439 0.95236 0.0
O352 O 0.11186 0.35639 0.04849 0.0
O353 O 0.16448 0.34221 0.73436 0.0
O354 O 0.11687 0.30769 0.74353 0.0
O355 O 0.05859 0.31591 0.71978 0.0
O356 O 0.07824 0.35744 0.621 0.0
O357 O 0.09861 0.41833 0.79901 0.0
O358 O 0.19694 0.39646 0.91974 0.0
O359 O 0.10872 0.41198 0.96466 0.0
O360 O 0.17439 0.41913 -0.00336 0.0
C361 C 0.17466 0.41559 0.59261 0.0
C362 C 0.09242 0.32794 0.03997 0.0
C363 C 0.05906 0.32881 0.63391 0.0
C364 C 0.1437 0.31845 0.78023 0.0
C365 C 0.0976 0.42244 0.89876 0.0
C366 C 0.19649 0.41369 -0.00768 0.0
O367 O 0.14677 0.4099 0.59597 0.0
O368 O 0.55145 0.76831 0.67261 0.0
Zn369 Zn 0.58158 0.78009 0.78806 0.0
O370 O 0.59033 0.74638 0.81078 0.0
Zn371 Zn 0.63483 0.75978 0.80794 0.0
Zn372 Zn 0.5718 0.71366 0.70988 0.0
Zn373 Zn 0.57327 0.73356 0.94827 0.0
O374 O 0.64924 0.76146 0.95226 0.0
O375 O 0.60725 0.74818 0.04838 0.0
O376 O 0.62144 0.81495 0.7342 0.0
O377 O 0.65595 0.80186 0.7434 0.0
O378 O 0.64773 0.73536 0.71965 0.0
O379 O 0.60619 0.71348 0.62089 0.0
O380 O 0.5453 0.67298 0.79895 0.0
O381 O 0.56721 0.79321 0.91961 0.0
O382 O 0.55166 0.68946 0.96459 0.0
O383 O 0.54451 0.74798 -0.00352 0.0
C384 C 0.54806 0.75177 0.5925 0.0
C385 C 0.6357 0.75717 0.03987 0.0
C386 C 0.63482 0.72292 0.6338 0.0
C387 C 0.6452 0.81793 0.78009 0.0
C388 C 0.5412 0.66786 0.89871 0.0
C389 C 0.54997 0.77552 -0.00783 0.0
O390 O 0.55374 0.72956 0.59586 0.0
O391 O 0.19535 0.77586 0.67273 0.0
Zn392 Zn 0.18357 0.79421 0.78817 0.0
O393 O 0.21727 0.83667 0.81088 0.0
Zn394 Zn 0.20385 0.86776 0.80804 0.0
Zn395 Zn 0.24998 0.85086 0.70997 0.0
Zn396 Zn 0.23011 0.83245 0.94838 0.0
O397 O 0.20217 0.88048 0.95235 0.0
O398 O 0.21549 0.8518 0.04848 0.0
O399 O 0.14869 0.79919 0.73432 0.0
O400 O 0.16178 0.8468 0.74349 0.0
O401 O 0.22827 0.90508 0.71975 0.0
O402 O 0.25016 0.88544 0.62099 0.0
O403 O 0.29068 0.86505 0.79901 0.0
O404 O 0.17045 0.76672 0.91973 0.0
O405 O 0.27421 0.85494 0.96466 0.0
O406 O 0.21568 0.78927 -0.00339 0.0
C407 C 0.21187 0.789 0.59261 0.0
C408 C 0.20648 0.87124 0.03997 0.0
C409 C 0.24071 0.90461 0.63389 0.0
C410 C 0.14571 0.81997 0.78019 0.0
C411 C 0.2958 0.86606 0.89877 0.0
C412 C 0.18814 0.76717 -0.00771 0.0
O413 O 0.23408 0.81689 0.59596 0.0
O414 O 0.55069 0.77572 0.17306 0.0
Zn415 Zn 0.58122 0.79401 0.28754 0.0
O416 O 0.59024 0.83657 0.31058 0.0
Zn417 Zn 0.63476 0.86753 0.30762 0.0
Zn418 Zn 0.57179 0.85088 0.20976 0.0
Zn419 Zn 0.57322 0.83234 0.44816 0.0
O420 O 0.64923 0.88016 0.45214 0.0
O421 O 0.60723 0.85156 0.54837 0.0
O422 O 0.62094 0.79878 0.23289 0.0
O423 O 0.6556 0.8464 0.24217 0.0
O424 O 0.64775 0.90492 0.21953 0.0
O425 O 0.60621 0.88546 0.12089 0.0
O426 O 0.54532 0.86507 0.2989 0.0
O427 O 0.56704 0.76663 0.41929 0.0
O428 O 0.55172 0.85495 0.46452 0.0
O429 O 0.54427 0.78912 0.4959 0.0
C430 C 0.5478 0.78901 0.09244 0.0
C431 C 0.6357 0.87092 0.53981 0.0
C432 C 0.63487 0.90455 0.13372 0.0
C433 C 0.64475 0.81953 0.27866 0.0
C434 C 0.54125 0.86609 0.39868 0.0
C435 C 0.54981 0.76708 0.49184 0.0
O436 O 0.55381 0.817 0.0955 0.0
O437 O 0.18793 0.76769 0.17318 0.0
Zn438 Zn 0.16962 0.77992 0.28765 0.0
O439 O 0.12708 0.74637 0.31067 0.0
Zn440 Zn 0.09611 0.75993 0.30771 0.0
Zn441 Zn 0.11277 0.71362 0.20983 0.0
Zn442 Zn 0.1313 0.73358 0.44825 0.0
O443 O 0.08347 0.76176 0.45222 0.0
O444 O 0.11207 0.74836 0.54846 0.0
O445 O 0.16484 0.81486 0.23299 0.0
O446 O 0.11723 0.8019 0.24226 0.0
O447 O 0.05872 0.73552 0.2196 0.0
O448 O 0.07819 0.71346 0.12096 0.0
O449 O 0.09859 0.67296 0.29894 0.0
O450 O 0.19701 0.79313 0.41941 0.0
O451 O 0.1087 0.68946 0.46457 0.0
O452 O 0.17452 0.74787 0.49603 0.0
C453 C 0.17464 0.75151 0.09255 0.0
C454 C 0.0927 0.75746 0.5399 0.0
C455 C 0.05909 0.72301 0.13379 0.0
C456 C 0.14409 0.81792 0.27876 0.0
C457 C 0.09756 0.66786 0.3987 0.0
C458 C 0.19656 0.77544 0.49197 0.0
O459 O 0.14665 0.72952 0.0956 0.0
O460 O 0.196 0.413 0.17321 0.0
Zn461 Zn 0.18374 0.38244 0.28763 0.0
O462 O 0.21728 0.37342 0.31068 0.0
Zn463 Zn 0.20372 0.3289 0.30771 0.0
Zn464 Zn 0.25004 0.39187 0.20985 0.0
Zn465 Zn 0.23007 0.39044 0.44827 0.0
O466 O 0.20189 0.31442 0.45223 0.0
O467 O 0.21529 0.35642 0.54847 0.0
O468 O 0.14881 0.34273 0.2329 0.0
O469 O 0.16175 0.30806 0.24221 0.0
O470 O 0.22813 0.31592 0.21962 0.0
O471 O 0.25021 0.35746 0.12099 0.0
O472 O 0.29069 0.41835 0.29896 0.0
O473 O 0.17053 0.39661 0.41939 0.0
O474 O 0.27418 0.41195 0.46459 0.0
O475 O 0.21579 0.41938 0.49602 0.0
C476 C 0.21217 0.41587 0.09256 0.0
C477 C 0.20618 0.32795 0.53991 0.0
C478 C 0.24066 0.32881 0.13383 0.0
C479 C 0.14574 0.31892 0.2787 0.0
C480 C 0.29579 0.42243 0.39873 0.0
C481 C 0.18822 0.41384 0.49196 0.0
O482 O 0.23414 0.40985 0.0956 0.0
O483 O 0.10184 0.2246 0.00022 0.0
Zn484 Zn 0.12014 0.25516 0.88578 0.0
O485 O 0.16269 0.26418 0.86271 0.0
Zn486 Zn 0.19364 0.3087 0.86565 0.0
Zn487 Zn 0.17701 0.24573 0.96353 0.0
Zn488 Zn 0.15846 0.24715 0.72513 0.0
O489 O 0.20626 0.32317 0.72111 0.0
O490 O 0.17768 0.28117 0.62489 0.0
O491 O 0.1249 0.29487 0.94045 0.0
O492 O 0.17251 0.32954 0.93115 0.0
O493 O 0.23105 0.3217 0.95369 0.0
O494 O 0.2116 0.28015 0.05236 0.0
O495 O 0.19117 0.21924 0.87441 0.0
O496 O 0.09276 0.24098 0.75402 0.0
O497 O 0.18107 0.22565 0.70879 0.0
O498 O 0.11524 0.2182 0.67744 0.0
C499 C 0.11514 0.22174 0.08086 0.0
C500 C 0.19704 0.30964 0.63344 0.0
C501 C 0.23069 0.3088 0.03946 0.0
C502 C 0.14564 0.31868 0.89468 0.0
C503 C 0.1922 0.21517 0.77464 0.0
C504 C 0.09321 0.22375 0.68147 0.0
O505 O 0.14314 0.22776 0.07781 0.0
O506 O 0.73903 0.86988 9e-05 0.0
Zn507 Zn 0.70848 0.85763 0.88564 0.0
O508 O 0.69948 0.89117 0.86258 0.0
Zn509 Zn 0.65495 0.87761 0.86554 0.0
Zn510 Zn 0.71793 0.92393 0.96341 0.0
Zn511 Zn 0.7165 0.90397 0.72499 0.0
O512 O 0.64048 0.87578 0.72101 0.0
O513 O 0.68248 0.88918 0.62479 0.0
O514 O 0.66877 0.82269 0.94033 0.0
O515 O 0.63411 0.83564 0.93102 0.0
O516 O 0.64197 0.90202 0.95359 0.0
O517 O 0.68352 0.92411 0.05225 0.0
O518 O 0.74441 0.96458 0.87426 0.0
O519 O 0.72266 0.84443 0.75389 0.0
O520 O 0.73801 0.94808 0.70861 0.0
O521 O 0.74543 0.88968 0.67727 0.0
C522 C 0.74191 0.88605 0.08073 0.0
C523 C 0.65401 0.88008 0.63334 0.0
C524 C 0.65487 0.91457 0.03936 0.0
C525 C 0.64496 0.81962 0.89454 0.0
C526 C 0.74848 0.96968 0.77449 0.0
C527 C 0.73989 0.86211 0.68133 0.0
O528 O 0.7359 0.90803 0.07767 0.0
O529 O 0.09372 0.86184 0.00012 0.0
Zn530 Zn 0.10598 0.84354 0.88569 0.0
O531 O 0.07244 0.80098 0.86265 0.0
Zn532 Zn 0.08602 0.77003 0.86562 0.0
Zn533 Zn 0.03969 0.78667 0.96348 0.0
Zn534 Zn 0.05964 0.8052 0.72506 0.0
O535 O 0.08786 0.7574 0.7211 0.0
O536 O 0.07442 0.78596 0.62487 0.0
O537 O 0.14093 0.83878 0.9404 0.0
O538 O 0.12799 0.79117 0.93112 0.0
O539 O 0.06161 0.73263 0.95367 0.0
O540 O 0.03951 0.75208 0.05233 0.0
O541 O -0.00098 0.7725 0.87437 0.0
O542 O 0.11919 0.87092 0.75394 0.0
O543 O 0.01553 0.7826 0.70875 0.0
O544 O 0.07393 0.84842 0.67726 0.0
C545 C 0.07756 0.84854 0.08077 0.0
C546 C 0.08354 0.76661 0.63343 0.0
C547 C 0.04907 0.73299 0.03943 0.0
C548 C 0.144 0.81804 0.89464 0.0
C549 C -0.00607 0.77147 0.7746 0.0
C550 C 0.10151 0.87046 0.68135 0.0
O551 O 0.05559 0.82055 0.07774 0.0
O552 O 0.40494 0.19506 0.83399 0.0
Zn553 Zn 0.37482 0.17671 0.71854 0.0
O554 O 0.36606 0.13425 0.69584 0.0
Zn555 Zn 0.32156 0.10316 0.69869 0.0
Zn556 Zn 0.38458 0.12006 0.79675 0.0
Zn557 Zn 0.38312 0.13847 0.55834 0.0
O558 O 0.30714 0.09042 0.55438 0.0
O559 O 0.34913 0.11911 0.45825 0.0
O560 O 0.33496 0.17172 0.77238 0.0
O561 O 0.30044 0.12411 0.76321 0.0
O562 O 0.30866 0.06584 0.78702 0.0
O563 O 0.35019 0.08549 0.88575 0.0
O564 O 0.41108 0.10587 0.7077 0.0
O565 O 0.38919 0.2042 0.58698 0.0
O566 O 0.40473 0.11599 0.54206 0.0
O567 O 0.41187 0.18165 0.51009 0.0
C568 C 0.40834 0.18192 0.91411 0.0
C569 C 0.32069 0.09966 0.46676 0.0
C570 C 0.32155 0.06631 0.87291 0.0
C571 C 0.3112 0.15094 0.7265 0.0
C572 C 0.4152 0.10487 0.60795 0.0
C573 C 0.40642 0.20375 0.51441 0.0
O574 O 0.40265 0.15403 0.91076 0.0
O575 O 0.76863 0.20251 0.83467 0.0
Zn576 Zn 0.78696 0.19079 0.71905 0.0
O577 O 0.82937 0.22454 0.69611 0.0
Zn578 Zn 0.86054 0.21124 0.69859 0.0
Zn579 Zn 0.84356 0.25727 0.79687 0.0
Zn580 Zn 0.82495 0.23728 0.55867 0.0
O581 O 0.87313 0.20959 0.55392 0.0
O582 O 0.84404 0.22245 0.45804 0.0
O583 O 0.79205 0.15595 0.77257 0.0
O584 O 0.83969 0.16917 0.76323 0.0
O585 O 0.89788 0.23568 0.78695 0.0
O586 O 0.87813 0.25744 0.88576 0.0
O587 O 0.85775 0.29792 0.70765 0.0
O588 O 0.75949 0.17766 0.58753 0.0
O589 O 0.84758 0.28139 0.54206 0.0
O590 O 0.78164 0.22304 0.51199 0.0
C591 C 0.78178 0.21912 0.91462 0.0
C592 C 0.86364 0.21364 0.46637 0.0
C593 C 0.89733 0.24802 0.87296 0.0
C594 C 0.81286 0.15304 0.72662 0.0
C595 C 0.85875 0.303 0.60788 0.0
C596 C 0.75975 0.19538 0.51547 0.0
O597 O 0.80964 0.24138 0.91104 0.0
O598 O 0.76103 0.55868 0.83393 0.0
Zn599 Zn 0.77283 0.58882 0.7185 0.0
O600 O 0.73913 0.59758 0.6958 0.0
Zn601 Zn 0.75254 0.64208 0.69867 0.0
Zn602 Zn 0.70641 0.57906 0.79672 0.0
Zn603 Zn 0.72629 0.58053 0.5583 0.0
O604 O 0.75422 0.6565 0.55436 0.0
O605 O 0.74091 0.61451 0.45822 0.0
O606 O 0.8077 0.62867 0.77238 0.0
O607 O 0.79461 0.6632 0.76322 0.0
O608 O 0.72813 0.65499 0.78699 0.0
O609 O 0.70625 0.61346 0.88572 0.0
O610 O 0.66572 0.55257 0.70768 0.0
O611 O 0.78594 0.57445 0.58694 0.0
O612 O 0.68219 0.55891 0.54203 0.0
O613 O 0.74072 0.55178 0.51003 0.0
C614 C 0.74451 0.5553 0.91406 0.0
C615 C 0.74992 0.64296 0.46674 0.0
C616 C 0.7157 0.64209 0.87287 0.0
C617 C 0.81068 0.65243 0.72651 0.0
C618 C 0.6606 0.54846 0.60793 0.0
C619 C 0.76826 0.55722 0.51436 0.0
O620 O 0.72231 0.56099 0.91071 0.0
O621 O 0.85444 0.74552 0.00606 0.0
Zn622 Zn 0.8361 0.71538 0.12148 0.0
O623 O 0.79363 0.70662 0.14418 0.0
Zn624 Zn 0.76255 0.66211 0.14133 0.0
Zn625 Zn 0.77944 0.72514 0.04326 0.0
Zn626 Zn 0.79785 0.72367 0.28167 0.0
O627 O 0.74982 0.6477 0.28564 0.0
O628 O 0.7785 0.68969 0.38177 0.0
O629 O 0.83112 0.67553 0.06761 0.0
O630 O 0.78351 0.641 0.07678 0.0
O631 O 0.72523 0.64921 0.05303 0.0
O632 O 0.74487 0.69074 0.95427 0.0
O633 O 0.76525 0.75164 0.1323 0.0
O634 O 0.86358 0.72975 0.25304 0.0
O635 O 0.77537 0.74528 0.29795 0.0
O636 O 0.84103 0.75243 0.32993 0.0
C637 C 0.8413 0.7489 0.92592 0.0
C638 C 0.75906 0.66125 0.37325 0.0
C639 C 0.72569 0.66211 0.96718 0.0
C640 C 0.81034 0.65177 0.11348 0.0
C641 C 0.76424 0.75575 0.23205 0.0
C642 C 0.86313 0.74699 0.32561 0.0
O643 O 0.81341 0.7432 0.92925 0.0
O644 O 0.21813 0.10162 0.00604 0.0
Zn645 Zn 0.24826 0.11341 0.12148 0.0
O646 O 0.25703 0.07972 0.14419 0.0
Zn647 Zn 0.30153 0.09314 0.14135 0.0
Zn648 Zn 0.2385 0.047 0.04328 0.0
Zn649 Zn 0.23997 0.06688 0.28169 0.0
O650 O 0.31595 0.09483 0.28566 0.0
O651 O 0.27395 0.0815 0.38179 0.0
O652 O 0.28811 0.1483 0.06762 0.0
O653 O 0.32264 0.13521 0.07681 0.0
O654 O 0.31444 0.06873 0.05306 0.0
O655 O 0.2729 0.04682 0.9543 0.0
O656 O 0.212 0.00631 0.13233 0.0
O657 O 0.23389 0.12653 0.25304 0.0
O658 O 0.21835 0.02278 0.29798 0.0
O659 O 0.21122 0.0813 0.32994 0.0
C660 C 0.21475 0.0851 0.92592 0.0
C661 C 0.3024 0.09051 0.37327 0.0
C662 C 0.30153 0.05628 0.96721 0.0
C663 C 0.31187 0.15128 0.1135 0.0
C664 C 0.20789 0.00119 0.23208 0.0
C665 C 0.21666 0.10884 0.32561 0.0
O666 O 0.22044 0.0629 0.92926 0.0
O667 O 0.86314 0.10901 0.00747 0.0
Zn668 Zn 0.85055 0.12726 0.12122 0.0
O669 O 0.88395 0.16991 0.14424 0.0
Zn670 Zn 0.87016 0.2007 0.14082 0.0
Zn671 Zn 0.91672 0.1843 0.04335 0.0
Zn672 Zn 0.8968 0.16588 0.28195 0.0
O673 O 0.86822 0.21344 0.28509 0.0
O674 O 0.88214 0.18531 0.38163 0.0
O675 O 0.81553 0.1318 0.06576 0.0
O676 O 0.82824 0.17933 0.07495 0.0
O677 O 0.89451 0.23811 0.05286 0.0
O678 O 0.9169 0.21891 0.95448 0.0
O679 O 0.95739 0.19844 0.13242 0.0
O680 O 0.83731 0.09992 0.25312 0.0
O681 O 0.94091 0.18838 0.29809 0.0
O682 O 0.8824 0.12278 0.33098 0.0
C683 C 0.87897 0.12237 0.92631 0.0
C684 C 0.87278 0.20447 0.37286 0.0
C685 C 0.90723 0.23791 0.96733 0.0
C686 C 0.81234 0.15247 0.1116 0.0
C687 C 0.9625 0.19946 0.23218 0.0
C688 C 0.85492 0.10056 0.32628 0.0
O689 O 0.90079 0.15044 0.92905 0.0
O690 O 0.21736 0.10905 0.5065 0.0
Zn691 Zn 0.24791 0.12735 0.62095 0.0
O692 O 0.25692 0.1699 0.64399 0.0
Zn693 Zn 0.30144 0.20086 0.64103 0.0
Zn694 Zn 0.23847 0.18421 0.54317 0.0
Zn695 Zn 0.2399 0.16567 0.78158 0.0
O696 O 0.31592 0.2135 0.78555 0.0
O697 O 0.27392 0.1849 0.88178 0.0
O698 O 0.28762 0.13212 0.56627 0.0
O699 O 0.32229 0.17974 0.57556 0.0
O700 O 0.31443 0.23825 0.55294 0.0
O701 O 0.27289 0.21879 0.4543 0.0
O702 O 0.212 0.1984 0.63229 0.0
O703 O 0.23373 0.09997 0.75271 0.0
O704 O 0.2184 0.18828 0.79791 0.0
O705 O 0.21097 0.12246 0.82934 0.0
C706 C 0.21448 0.12234 0.42586 0.0
C707 C 0.30239 0.20427 0.87322 0.0
C708 C 0.30154 0.23789 0.46714 0.0
C709 C 0.31144 0.15287 0.61205 0.0
C710 C 0.20793 0.19942 0.73206 0.0
C711 C 0.21651 0.10042 0.82527 0.0
O712 O 0.22049 0.15033 0.42891 0.0
O713 O 0.85462 0.10093 0.50721 0.0
Zn714 Zn 0.83631 0.11324 0.62149 0.0
O715 O 0.79372 0.07975 0.6443 0.0
Zn716 Zn 0.76283 0.09341 0.64093 0.0
Zn717 Zn 0.7794 0.047 0.5433 0.0
Zn718 Zn 0.79773 0.06686 0.78195 0.0
O719 O 0.75003 0.09527 0.78508 0.0
O720 O 0.7782 0.08141 0.88156 0.0
O721 O 0.83165 0.14822 0.56648 0.0
O722 O 0.78406 0.13539 0.57557 0.0
O723 O 0.72546 0.06904 0.55285 0.0
O724 O 0.74482 0.04684 0.45432 0.0
O725 O 0.76522 0.0063 0.63224 0.0
O726 O 0.86372 0.12643 0.75327 0.0
O727 O 0.7753 0.02276 0.79792 0.0
O728 O 0.84081 0.08136 0.83139 0.0
C729 C 0.84134 0.08484 0.4264 0.0
C730 C 0.759 0.09071 0.87281 0.0
C731 C 0.72575 0.05643 0.46718 0.0
C732 C 0.81093 0.15134 0.61217 0.0
C733 C 0.76421 0.00117 0.73199 0.0
C734 C 0.86307 0.10881 0.82642 0.0
O735 O 0.81332 0.06291 0.42921 0.0
O736 O 0.86262 0.74627 0.5065 0.0
Zn737 Zn 0.85038 0.71573 0.62096 0.0
O738 O 0.88392 0.70672 0.644 0.0
Zn739 Zn 0.87036 0.6622 0.64103 0.0
Zn740 Zn 0.91667 0.72517 0.54317 0.0
Zn741 Zn 0.89672 0.72374 0.78158 0.0
O742 O 0.86853 0.64772 0.78555 0.0
O743 O 0.88194 0.68973 0.88178 0.0
O744 O 0.81543 0.67601 0.56629 0.0
O745 O 0.82839 0.64135 0.57557 0.0
O746 O 0.89476 0.64921 0.55293 0.0
O747 O 0.91684 0.69075 0.4543 0.0
O748 O 0.95734 0.75165 0.63227 0.0
O749 O 0.83718 0.72991 0.75271 0.0
O750 O 0.94083 0.74526 0.7979 0.0
O751 O 0.88243 0.75267 0.82937 0.0
C752 C 0.8788 0.74916 0.42587 0.0
C753 C 0.87283 0.66125 0.87322 0.0
C754 C 0.90728 0.6621 0.46713 0.0
C755 C 0.81237 0.6522 0.61206 0.0
C756 C 0.96244 0.75573 0.73204 0.0
C757 C 0.85486 0.74713 0.82529 0.0
O758 O 0.90078 0.74315 0.42892 0.0
O759 O 0.76846 0.55792 0.33347 0.0
Zn760 Zn 0.78676 0.58847 0.21902 0.0
O761 O 0.82931 0.59748 0.19598 0.0
Zn762 Zn 0.86027 0.642 0.19894 0.0
Zn763 Zn 0.84362 0.57903 0.29681 0.0
Zn764 Zn 0.82509 0.58046 0.05839 0.0
O765 O 0.8729 0.65648 0.05442 0.0
O766 O 0.84432 0.61447 0.95819 0.0
O767 O 0.79153 0.62818 0.27369 0.0
O768 O 0.83914 0.66285 0.26441 0.0
O769 O 0.89767 0.65499 0.287 0.0
O770 O 0.87821 0.61344 0.38566 0.0
O771 O 0.85779 0.55254 0.20768 0.0
O772 O 0.75938 0.57429 0.08726 0.0
O773 O 0.84768 0.55895 0.04206 0.0
O774 O 0.78187 0.55152 0.01063 0.0
C775 C 0.78175 0.55504 0.41411 0.0
C776 C 0.86368 0.64295 0.96675 0.0
C777 C 0.89731 0.64209 0.37277 0.0
C778 C 0.81227 0.652 0.22793 0.0
C779 C 0.85882 0.54847 0.10791 0.0
C780 C 0.75983 0.55706 0.0147 0.0
O781 O 0.80974 0.56105 0.41107 0.0
O782 O 0.40572 0.20325 0.33352 0.0
Zn783 Zn 0.37517 0.191 0.21906 0.0
O784 O 0.36616 0.22454 0.19601 0.0
Zn785 Zn 0.32163 0.21097 0.19895 0.0
Zn786 Zn 0.38461 0.2573 0.29684 0.0
Zn787 Zn 0.38318 0.23733 0.05843 0.0
O788 O 0.30716 0.20913 0.05442 0.0
O789 O 0.34917 0.22254 0.95821 0.0
O790 O 0.33546 0.15605 0.27373 0.0
O791 O 0.30079 0.16899 0.26443 0.0
O792 O 0.30864 0.23538 0.28701 0.0
O793 O 0.35019 0.25747 0.38568 0.0
O794 O 0.41109 0.29796 0.20773 0.0
O795 O 0.38935 0.17779 0.08731 0.0
O796 O 0.40469 0.28144 0.0421 0.0
O797 O 0.41212 0.22305 0.0107 0.0
C798 C 0.4086 0.21942 0.41416 0.0
C799 C 0.3207 0.21343 0.96676 0.0
C800 C 0.32154 0.24792 0.37278 0.0
C801 C 0.31164 0.15298 0.22795 0.0
C802 C 0.41516 0.30305 0.10796 0.0
C803 C 0.40658 0.19548 0.01476 0.0
O804 O 0.40259 0.2414 0.41111 0.0
O805 O 0.76149 0.19494 0.33493 0.0
Zn806 Zn 0.77297 0.17658 0.21879 0.0
O807 O 0.73913 0.13422 0.19603 0.0
Zn808 Zn 0.75233 0.10297 0.1984 0.0
Zn809 Zn 0.70642 0.1201 0.29687 0.0
Zn810 Zn 0.72635 0.13864 0.05866 0.0
O811 O 0.7539 0.09035 0.05383 0.0
O812 O 0.74107 0.11947 0.95803 0.0
O813 O 0.80777 0.17138 0.27187 0.0
O814 O 0.79444 0.12369 0.26254 0.0
O815 O 0.72785 0.06566 0.28681 0.0
O816 O 0.70625 0.08555 0.38582 0.0
O817 O 0.66574 0.10589 0.20779 0.0
O818 O 0.78605 0.20412 0.08739 0.0
O819 O 0.68224 0.11607 0.04219 0.0
O820 O 0.74067 0.18193 0.01168 0.0
C821 C 0.74465 0.18189 0.41451 0.0
C822 C 0.74983 0.09983 0.96632 0.0
C823 C 0.71558 0.06628 0.37288 0.0
C824 C 0.81063 0.15053 0.22605 0.0
C825 C 0.66064 0.10489 0.10804 0.0
C826 C 0.76831 0.20385 0.01539 0.0
O827 O 0.72229 0.15408 0.41086 0.0
loop_
_geom_bond_atom_site_label_1
_geom_bond_atom_site_label_2
_geom_bond_distance
_geom_bond_site_symmetry_2
_ccdc_geom_bond_type
O0 Zn1 1.953 . S
O0 C16 1.225 . S
Zn1 O0 1.953 . S
Zn1 O2 1.949 . S
Zn1 O8 1.919 . S
Zn1 O13 1.924 1_554 S
O2 Zn1 1.949 . S
O2 Zn3 1.923 . S
O2 Zn4 1.950 . S
O2 Zn5 1.945 1_554 S
Zn3 O2 1.923 . S
Zn3 O6 1.933 1_454 S
Zn3 O9 1.941 1_455 S
Zn3 O10 1.965 . S
Zn4 O2 1.950 . S
Zn4 O11 1.938 . S
Zn4 O12 1.906 . S
Zn4 O22 1.953 . S
Zn5 O2 1.945 1_556 S
Zn5 O7 1.932 . S
Zn5 O14 1.977 . S
Zn5 O15 1.910 . S
O6 Zn3 1.933 1_656 S
O6 C17 1.226 1_655 S
O7 Zn5 1.932 . S
O7 C17 1.307 . S
O8 Zn1 1.919 . S
O8 C19 1.253 1_455 S
O9 Zn3 1.941 1_655 S
O9 C19 1.283 . S
O10 Zn3 1.965 . S
O10 C18 1.303 . S
O11 Zn4 1.938 . S
O11 C18 1.247 . S
O12 Zn4 1.906 . S
O12 C20 1.304 1_554 S
O13 Zn1 1.924 1_556 S
O13 C21 1.311 . S
O14 Zn5 1.977 . S
O14 C20 1.272 . S
O15 Zn5 1.910 . S
O15 C21 1.231 . S
C16 O0 1.225 . S
C16 O22 1.298 . S
C17 O6 1.226 1_455 S
C17 O7 1.307 . S
C18 O10 1.303 . S
C18 O11 1.247 . S
C19 O8 1.253 1_655 S
C19 O9 1.283 . S
C20 O12 1.304 1_556 S
C20 O14 1.272 . S
C21 O13 1.311 . S
C21 O15 1.231 . S
O22 Zn4 1.953 . S
O22 C16 1.298 . S
O23 Zn24 1.953 . S
O23 C39 1.225 . S
Zn24 O23 1.953 . S
Zn24 O25 1.949 . S
Zn24 O31 1.919 . S
Zn24 O36 1.924 1_554 S
O25 Zn24 1.949 . S
O25 Zn26 1.923 . S
O25 Zn27 1.950 . S
O25 Zn28 1.945 1_554 S
Zn26 O25 1.923 . S
Zn26 O29 1.933 1_554 S
Zn26 O32 1.941 . S
Zn26 O33 1.965 . S
Zn27 O25 1.950 . S
Zn27 O34 1.938 . S
Zn27 O35 1.906 . S
Zn27 O45 1.953 . S
Zn28 O25 1.945 1_556 S
Zn28 O30 1.932 . S
Zn28 O37 1.977 . S
Zn28 O38 1.910 . S
O29 Zn26 1.933 1_556 S
O29 C40 1.226 . S
O30 Zn28 1.932 . S
O30 C40 1.307 . S
O31 Zn24 1.919 . S
O31 C42 1.253 . S
O32 Zn26 1.941 . S
O32 C42 1.283 . S
O33 Zn26 1.965 . S
O33 C41 1.303 . S
O34 Zn27 1.938 . S
O34 C41 1.247 . S
O35 Zn27 1.906 . S
O35 C43 1.304 1_554 S
O36 Zn24 1.924 1_556 S
O36 C44 1.311 . S
O37 Zn28 1.977 . S
O37 C43 1.272 . S
O38 Zn28 1.910 . S
O38 C44 1.231 . S
C39 O23 1.225 . S
C39 O45 1.298 . S
C40 O29 1.226 . S
C40 O30 1.307 . S
C41 O33 1.303 . S
C41 O34 1.247 . S
C42 O31 1.253 . S
C42 O32 1.283 . S
C43 O35 1.304 1_556 S
C43 O37 1.272 . S
C44 O36 1.311 . S
C44 O38 1.231 . S
O45 Zn27 1.953 . S
O45 C39 1.298 . S
O46 Zn47 1.953 . S
O46 C62 1.225 . S
Zn47 O46 1.953 . S
Zn47 O48 1.949 . S
Zn47 O54 1.919 . S
Zn47 O59 1.924 1_554 S
O48 Zn47 1.949 . S
O48 Zn49 1.923 . S
O48 Zn50 1.950 . S
O48 Zn51 1.945 1_554 S
Zn49 O48 1.923 . S
Zn49 O52 1.933 1_564 S
Zn49 O55 1.941 1_565 S
Zn49 O56 1.965 . S
Zn50 O48 1.950 . S
Zn50 O57 1.938 . S
Zn50 O58 1.906 . S
Zn50 O68 1.953 . S
Zn51 O48 1.945 1_556 S
Zn51 O53 1.932 . S
Zn51 O60 1.977 . S
Zn51 O61 1.910 . S
O52 Zn49 1.933 1_546 S
O52 C63 1.226 1_545 S
O53 Zn51 1.932 . S
O53 C63 1.307 . S
O54 Zn47 1.919 . S
O54 C65 1.253 1_565 S
O55 Zn49 1.941 1_545 S
O55 C65 1.283 . S
O56 Zn49 1.965 . S
O56 C64 1.303 . S
O57 Zn50 1.938 . S
O57 C64 1.247 . S
O58 Zn50 1.906 . S
O58 C66 1.304 1_554 S
O59 Zn47 1.924 1_556 S
O59 C67 1.311 . S
O60 Zn51 1.977 . S
O60 C66 1.272 . S
O61 Zn51 1.910 . S
O61 C67 1.231 . S
C62 O46 1.225 . S
C62 O68 1.298 . S
C63 O52 1.226 1_565 S
C63 O53 1.307 . S
C64 O56 1.303 . S
C64 O57 1.247 . S
C65 O54 1.253 1_545 S
C65 O55 1.283 . S
C66 O58 1.304 1_556 S
C66 O60 1.272 . S
C67 O59 1.311 . S
C67 O61 1.231 . S
O68 Zn50 1.953 . S
O68 C62 1.298 . S
O69 Zn70 1.953 . S
O69 C85 1.225 . S
Zn70 O69 1.953 . S
Zn70 O71 1.949 . S
Zn70 O77 1.919 . S
Zn70 O82 1.924 . S
O71 Zn70 1.949 . S
O71 Zn72 1.923 . S
O71 Zn73 1.950 . S
O71 Zn74 1.945 . S
Zn72 O71 1.923 . S
Zn72 O75 1.933 1_545 S
Zn72 O78 1.941 1_545 S
Zn72 O79 1.965 . S
Zn73 O71 1.950 . S
Zn73 O80 1.938 . S
Zn73 O81 1.906 . S
Zn73 O91 1.953 . S
Zn74 O71 1.945 . S
Zn74 O76 1.932 . S
Zn74 O83 1.977 . S
Zn74 O84 1.910 . S
O75 Zn72 1.933 1_565 S
O75 C86 1.226 1_565 S
O76 Zn74 1.932 . S
O76 C86 1.307 . S
O77 Zn70 1.919 . S
O77 C88 1.253 1_545 S
O78 Zn72 1.941 1_565 S
O78 C88 1.283 . S
O79 Zn72 1.965 . S
O79 C87 1.303 . S
O80 Zn73 1.938 . S
O80 C87 1.247 . S
O81 Zn73 1.906 . S
O81 C89 1.304 . S
O82 Zn70 1.924 . S
O82 C90 1.311 . S
O83 Zn74 1.977 . S
O83 C89 1.272 . S
O84 Zn74 1.910 . S
O84 C90 1.231 . S
C85 O69 1.225 . S
C85 O91 1.298 . S
C86 O75 1.226 1_545 S
C86 O76 1.307 . S
C87 O79 1.303 . S
C87 O80 1.247 . S
C88 O77 1.253 1_565 S
C88 O78 1.283 . S
C89 O81 1.304 . S
C89 O83 1.272 . S
C90 O82 1.311 . S
C90 O84 1.231 . S
O91 Zn73 1.953 . S
O91 C85 1.298 . S
O92 Zn93 1.953 . S
O92 C108 1.225 . S
Zn93 O92 1.953 . S
Zn93 O94 1.949 . S
Zn93 O100 1.919 . S
Zn93 O105 1.924 . S
O94 Zn93 1.949 . S
O94 Zn95 1.923 . S
O94 Zn96 1.950 . S
O94 Zn97 1.945 . S
Zn95 O94 1.923 . S
Zn95 O98 1.933 1_655 S
Zn95 O101 1.941 1_655 S
Zn95 O102 1.965 . S
Zn96 O94 1.950 . S
Zn96 O103 1.938 . S
Zn96 O104 1.906 . S
Zn96 O114 1.953 . S
Zn97 O94 1.945 . S
Zn97 O99 1.932 . S
Zn97 O106 1.977 . S
Zn97 O107 1.910 . S
O98 Zn95 1.933 1_455 S
O98 C109 1.226 1_455 S
O99 Zn97 1.932 . S
O99 C109 1.307 . S
O100 Zn93 1.919 . S
O100 C111 1.253 1_655 S
O101 Zn95 1.941 1_455 S
O101 C111 1.283 . S
O102 Zn95 1.965 . S
O102 C110 1.303 . S
O103 Zn96 1.938 . S
O103 C110 1.247 . S
O104 Zn96 1.906 . S
O104 C112 1.304 . S
O105 Zn93 1.924 . S
O105 C113 1.311 . S
O106 Zn97 1.977 . S
O106 C112 1.272 . S
O107 Zn97 1.910 . S
O107 C113 1.231 . S
C108 O92 1.225 . S
C108 O114 1.298 . S
C109 O98 1.226 1_655 S
C109 O99 1.307 . S
C110 O102 1.303 . S
C110 O103 1.247 . S
C111 O100 1.253 1_455 S
C111 O101 1.283 . S
C112 O104 1.304 . S
C112 O106 1.272 . S
C113 O105 1.311 . S
C113 O107 1.231 . S
O114 Zn96 1.953 . S
O114 C108 1.298 . S
O115 Zn116 1.953 . S
O115 C131 1.225 . S
Zn116 O115 1.953 . S
Zn116 O117 1.949 . S
Zn116 O123 1.919 . S
Zn116 O128 1.924 . S
O117 Zn116 1.949 . S
O117 Zn118 1.923 . S
O117 Zn119 1.950 . S
O117 Zn120 1.945 . S
Zn118 O117 1.923 . S
Zn118 O121 1.933 . S
Zn118 O124 1.941 . S
Zn118 O125 1.965 . S
Zn119 O117 1.950 . S
Zn119 O126 1.938 . S
Zn119 O127 1.906 . S
Zn119 O137 1.953 . S
Zn120 O117 1.945 . S
Zn120 O122 1.932 . S
Zn120 O129 1.977 . S
Zn120 O130 1.910 . S
O121 Zn118 1.933 . S
O121 C132 1.226 . S
O122 Zn120 1.932 . S
O122 C132 1.307 . S
O123 Zn116 1.919 . S
O123 C134 1.253 . S
O124 Zn118 1.941 . S
O124 C134 1.283 . S
O125 Zn118 1.965 . S
O125 C133 1.303 . S
O126 Zn119 1.938 . S
O126 C133 1.247 . S
O127 Zn119 1.906 . S
O127 C135 1.304 . S
O128 Zn116 1.924 . S
O128 C136 1.311 . S
O129 Zn120 1.977 . S
O129 C135 1.272 . S
O130 Zn120 1.910 . S
O130 C136 1.231 . S
C131 O115 1.225 . S
C131 O137 1.298 . S
C132 O121 1.226 . S
C132 O122 1.307 . S
C133 O125 1.303 . S
C133 O126 1.247 . S
C134 O123 1.253 . S
C134 O124 1.283 . S
C135 O127 1.304 . S
C135 O129 1.272 . S
C136 O128 1.311 . S
C136 O130 1.231 . S
O137 Zn119 1.953 . S
O137 C131 1.298 . S
O138 Zn139 1.948 1_556 S
O138 C154 1.225 . S
Zn139 O138 1.948 1_554 S
Zn139 O140 1.949 . S
Zn139 O146 1.919 . S
Zn139 O151 1.929 . S
O140 Zn139 1.949 . S
O140 Zn141 1.923 . S
O140 Zn142 1.950 1_554 S
O140 Zn143 1.945 . S
Zn141 O140 1.923 . S
Zn141 O144 1.933 1_655 S
Zn141 O147 1.941 1_654 S
Zn141 O148 1.965 1_554 S
Zn142 O140 1.950 1_556 S
Zn142 O149 1.938 . S
Zn142 O150 1.906 . S
Zn142 O160 1.953 . S
Zn143 O140 1.945 . S
Zn143 O145 1.932 . S
Zn143 O152 1.977 . S
Zn143 O153 1.910 . S
O144 Zn141 1.933 1_455 S
O144 C155 1.226 1_455 S
O145 Zn143 1.932 . S
O145 C155 1.307 . S
O146 Zn139 1.919 . S
O146 C157 1.253 1_655 S
O147 Zn141 1.941 1_456 S
O147 C157 1.283 1_556 S
O148 Zn141 1.965 1_556 S
O148 C156 1.303 . S
O149 Zn142 1.938 . S
O149 C156 1.247 . S
O150 Zn142 1.906 . S
O150 C158 1.304 1_556 S
O151 Zn139 1.929 . S
O151 C159 1.311 . S
O152 Zn143 1.977 . S
O152 C158 1.272 . S
O153 Zn143 1.910 . S
O153 C159 1.231 . S
C154 O138 1.225 . S
C154 O160 1.298 . S
C155 O144 1.226 1_655 S
C155 O145 1.307 . S
C156 O148 1.303 . S
C156 O149 1.247 . S
C157 O146 1.253 1_455 S
C157 O147 1.283 1_554 S
C158 O150 1.304 1_554 S
C158 O152 1.272 . S
C159 O151 1.311 . S
C159 O153 1.231 . S
O160 Zn142 1.953 . S
O160 C154 1.298 . S
O161 Zn162 1.948 1_556 S
O161 C177 1.225 . S
Zn162 O161 1.948 1_554 S
Zn162 O163 1.949 . S
Zn162 O169 1.919 . S
Zn162 O174 1.929 . S
O163 Zn162 1.949 . S
O163 Zn164 1.923 . S
O163 Zn165 1.950 1_554 S
O163 Zn166 1.945 . S
Zn164 O163 1.923 . S
Zn164 O167 1.933 . S
Zn164 O170 1.941 1_554 S
Zn164 O171 1.965 1_554 S
Zn165 O163 1.950 1_556 S
Zn165 O172 1.938 . S
Zn165 O173 1.906 . S
Zn165 O183 1.953 . S
Zn166 O163 1.945 . S
Zn166 O168 1.932 . S
Zn166 O175 1.977 . S
Zn166 O176 1.910 . S
O167 Zn164 1.933 . S
O167 C178 1.226 . S
O168 Zn166 1.932 . S
O168 C178 1.307 . S
O169 Zn162 1.919 . S
O169 C180 1.253 . S
O170 Zn164 1.941 1_556 S
O170 C180 1.283 1_556 S
O171 Zn164 1.965 1_556 S
O171 C179 1.303 . S
O172 Zn165 1.938 . S
O172 C179 1.247 . S
O173 Zn165 1.906 . S
O173 C181 1.304 1_556 S
O174 Zn162 1.929 . S
O174 C182 1.311 . S
O175 Zn166 1.977 . S
O175 C181 1.272 . S
O176 Zn166 1.910 . S
O176 C182 1.231 . S
C177 O161 1.225 . S
C177 O183 1.298 . S
C178 O167 1.226 . S
C178 O168 1.307 . S
C179 O171 1.303 . S
C179 O172 1.247 . S
C180 O169 1.253 . S
C180 O170 1.283 1_554 S
C181 O173 1.304 1_554 S
C181 O175 1.272 . S
C182 O174 1.311 . S
C182 O176 1.231 . S
O183 Zn165 1.953 . S
O183 C177 1.298 . S
O184 Zn185 1.948 1_556 S
O184 C200 1.225 . S
Zn185 O184 1.948 1_554 S
Zn185 O186 1.949 . S
Zn185 O192 1.919 . S
Zn185 O197 1.929 . S
O186 Zn185 1.949 . S
O186 Zn187 1.923 . S
O186 Zn188 1.950 1_554 S
O186 Zn189 1.945 . S
Zn187 O186 1.923 . S
Zn187 O190 1.933 1_545 S
Zn187 O193 1.941 1_544 S
Zn187 O194 1.965 1_554 S
Zn188 O186 1.950 1_556 S
Zn188 O195 1.938 . S
Zn188 O196 1.906 . S
Zn188 O206 1.953 . S
Zn189 O186 1.945 . S
Zn189 O191 1.932 . S
Zn189 O198 1.977 . S
Zn189 O199 1.910 . S
O190 Zn187 1.933 1_565 S
O190 C201 1.226 1_565 S
O191 Zn189 1.932 . S
O191 C201 1.307 . S
O192 Zn185 1.919 . S
O192 C203 1.253 1_545 S
O193 Zn187 1.941 1_566 S
O193 C203 1.283 1_556 S
O194 Zn187 1.965 1_556 S
O194 C202 1.303 . S
O195 Zn188 1.938 . S
O195 C202 1.247 . S
O196 Zn188 1.906 . S
O196 C204 1.304 1_556 S
O197 Zn185 1.929 . S
O197 C205 1.311 . S
O198 Zn189 1.977 . S
O198 C204 1.272 . S
O199 Zn189 1.910 . S
O199 C205 1.231 . S
C200 O184 1.225 . S
C200 O206 1.298 . S
C201 O190 1.226 1_545 S
C201 O191 1.307 . S
C202 O194 1.303 . S
C202 O195 1.247 . S
C203 O192 1.253 1_565 S
C203 O193 1.283 1_554 S
C204 O196 1.304 1_554 S
C204 O198 1.272 . S
C205 O197 1.311 . S
C205 O199 1.231 . S
O206 Zn188 1.953 . S
O206 C200 1.298 . S
O207 Zn208 1.953 . S
O207 C223 1.225 . S
Zn208 O207 1.953 . S
Zn208 O209 1.949 . S
Zn208 O215 1.919 . S
Zn208 O220 1.924 . S
O209 Zn208 1.949 . S
O209 Zn210 1.923 . S
O209 Zn211 1.950 . S
O209 Zn212 1.945 . S
Zn210 O209 1.923 . S
Zn210 O213 1.933 1_565 S
Zn210 O216 1.941 1_565 S
Zn210 O217 1.965 . S
Zn211 O209 1.950 . S
Zn211 O218 1.938 . S
Zn211 O219 1.906 . S
Zn211 O229 1.953 . S
Zn212 O209 1.945 . S
Zn212 O214 1.932 . S
Zn212 O221 1.977 . S
Zn212 O222 1.910 . S
O213 Zn210 1.933 1_545 S
O213 C224 1.226 1_545 S
O214 Zn212 1.932 . S
O214 C224 1.307 . S
O215 Zn208 1.919 . S
O215 C226 1.253 1_565 S
O216 Zn210 1.941 1_545 S
O216 C226 1.283 . S
O217 Zn210 1.965 . S
O217 C225 1.303 . S
O218 Zn211 1.938 . S
O218 C225 1.247 . S
O219 Zn211 1.906 . S
O219 C227 1.304 . S
O220 Zn208 1.924 . S
O220 C228 1.311 . S
O221 Zn212 1.977 . S
O221 C227 1.272 . S
O222 Zn212 1.910 . S
O222 C228 1.231 . S
C223 O207 1.225 . S
C223 O229 1.298 . S
C224 O213 1.226 1_565 S
C224 O214 1.307 . S
C225 O217 1.303 . S
C225 O218 1.247 . S
C226 O215 1.253 1_545 S
C226 O216 1.283 . S
C227 O219 1.304 . S
C227 O221 1.272 . S
C228 O220 1.311 . S
C228 O222 1.231 . S
O229 Zn211 1.953 . S
O229 C223 1.298 . S
O230 Zn231 1.953 . S
O230 C246 1.225 . S
Zn231 O230 1.953 . S
Zn231 O232 1.949 . S
Zn231 O238 1.919 . S
Zn231 O243 1.924 . S
O232 Zn231 1.949 . S
O232 Zn233 1.923 . S
O232 Zn234 1.950 . S
O232 Zn235 1.945 . S
Zn233 O232 1.923 . S
Zn233 O236 1.933 1_455 S
Zn233 O239 1.941 1_455 S
Zn233 O240 1.965 . S
Zn234 O232 1.950 . S
Zn234 O241 1.938 . S
Zn234 O242 1.906 . S
Zn234 O252 1.953 . S
Zn235 O232 1.945 . S
Zn235 O237 1.932 . S
Zn235 O244 1.977 . S
Zn235 O245 1.910 . S
O236 Zn233 1.933 1_655 S
O236 C247 1.226 1_655 S
O237 Zn235 1.932 . S
O237 C247 1.307 . S
O238 Zn231 1.919 . S
O238 C249 1.253 1_455 S
O239 Zn233 1.941 1_655 S
O239 C249 1.283 . S
O240 Zn233 1.965 . S
O240 C248 1.303 . S
O241 Zn234 1.938 . S
O241 C248 1.247 . S
O242 Zn234 1.906 . S
O242 C250 1.304 . S
O243 Zn231 1.924 . S
O243 C251 1.311 . S
O244 Zn235 1.977 . S
O244 C250 1.272 . S
O245 Zn235 1.910 . S
O245 C251 1.231 . S
C246 O230 1.225 . S
C246 O252 1.298 . S
C247 O236 1.226 1_455 S
C247 O237 1.307 . S
C248 O240 1.303 . S
C248 O241 1.247 . S
C249 O238 1.253 1_655 S
C249 O239 1.283 . S
C250 O242 1.304 . S
C250 O244 1.272 . S
C251 O243 1.311 . S
C251 O245 1.231 . S
O252 Zn234 1.953 . S
O252 C246 1.298 . S
O253 Zn254 1.953 . S
O253 C269 1.225 . S
Zn254 O253 1.953 . S
Zn254 O255 1.949 . S
Zn254 O261 1.919 . S
Zn254 O266 1.924 . S
O255 Zn254 1.949 . S
O255 Zn256 1.923 . S
O255 Zn257 1.950 . S
O255 Zn258 1.945 . S
Zn256 O255 1.923 . S
Zn256 O259 1.933 . S
Zn256 O262 1.941 . S
Zn256 O263 1.965 . S
Zn257 O255 1.950 . S
Zn257 O264 1.938 . S
Zn257 O265 1.906 . S
Zn257 O275 1.953 . S
Zn258 O255 1.945 . S
Zn258 O260 1.932 . S
Zn258 O267 1.977 . S
Zn258 O268 1.910 . S
O259 Zn256 1.933 . S
O259 C270 1.226 . S
O260 Zn258 1.932 . S
O260 C270 1.307 . S
O261 Zn254 1.919 . S
O261 C272 1.253 . S
O262 Zn256 1.941 . S
O262 C272 1.283 . S
O263 Zn256 1.965 . S
O263 C271 1.303 . S
O264 Zn257 1.938 . S
O264 C271 1.247 . S
O265 Zn257 1.906 . S
O265 C273 1.304 . S
O266 Zn254 1.924 . S
O266 C274 1.311 . S
O267 Zn258 1.977 . S
O267 C273 1.272 . S
O268 Zn258 1.910 . S
O268 C274 1.231 . S
C269 O253 1.225 . S
C269 O275 1.298 . S
C270 O259 1.226 . S
C270 O260 1.307 . S
C271 O263 1.303 . S
C271 O264 1.247 . S
C272 O261 1.253 . S
C272 O262 1.283 . S
C273 O265 1.304 . S
C273 O267 1.272 . S
C274 O266 1.311 . S
C274 O268 1.231 . S
O275 Zn257 1.953 . S
O275 C269 1.298 . S
O276 Zn277 1.953 . S
O276 C292 1.225 . S
Zn277 O276 1.953 . S
Zn277 O278 1.949 . S
Zn277 O284 1.919 . S
Zn277 O289 1.924 . S
O278 Zn277 1.949 . S
O278 Zn279 1.923 . S
O278 Zn280 1.950 . S
O278 Zn281 1.945 . S
Zn279 O278 1.923 . S
Zn279 O282 1.933 . S
Zn279 O285 1.941 . S
Zn279 O286 1.965 . S
Zn280 O278 1.950 . S
Zn280 O287 1.938 . S
Zn280 O288 1.906 . S
Zn280 O298 1.953 . S
Zn281 O278 1.945 . S
Zn281 O283 1.932 . S
Zn281 O290 1.977 . S
Zn281 O291 1.910 . S
O282 Zn279 1.933 . S
O282 C293 1.226 . S
O283 Zn281 1.932 . S
O283 C293 1.307 . S
O284 Zn277 1.919 . S
O284 C295 1.253 . S
O285 Zn279 1.941 . S
O285 C295 1.283 . S
O286 Zn279 1.965 . S
O286 C294 1.303 . S
O287 Zn280 1.938 . S
O287 C294 1.247 . S
O288 Zn280 1.906 . S
O288 C296 1.304 . S
O289 Zn277 1.924 . S
O289 C297 1.311 . S
O290 Zn281 1.977 . S
O290 C296 1.272 . S
O291 Zn281 1.910 . S
O291 C297 1.231 . S
C292 O276 1.225 . S
C292 O298 1.298 . S
C293 O282 1.226 . S
C293 O283 1.307 . S
C294 O286 1.303 . S
C294 O287 1.247 . S
C295 O284 1.253 . S
C295 O285 1.283 . S
C296 O288 1.304 . S
C296 O290 1.272 . S
C297 O289 1.311 . S
C297 O291 1.231 . S
O298 Zn280 1.953 . S
O298 C292 1.298 . S
O299 Zn300 1.953 . S
O299 C315 1.225 . S
Zn300 O299 1.953 . S
Zn300 O301 1.949 . S
Zn300 O307 1.919 . S
Zn300 O312 1.924 . S
O301 Zn300 1.949 . S
O301 Zn302 1.923 . S
O301 Zn303 1.950 . S
O301 Zn304 1.945 . S
Zn302 O301 1.923 . S
Zn302 O305 1.933 . S
Zn302 O308 1.941 . S
Zn302 O309 1.965 . S
Zn303 O301 1.950 . S
Zn303 O310 1.938 . S
Zn303 O311 1.906 . S
Zn303 O321 1.953 . S
Zn304 O301 1.945 . S
Zn304 O306 1.932 . S
Zn304 O313 1.977 . S
Zn304 O314 1.910 . S
O305 Zn302 1.933 . S
O305 C316 1.226 . S
O306 Zn304 1.932 . S
O306 C316 1.307 . S
O307 Zn300 1.919 . S
O307 C318 1.253 . S
O308 Zn302 1.941 . S
O308 C318 1.283 . S
O309 Zn302 1.965 . S
O309 C317 1.303 . S
O310 Zn303 1.938 . S
O310 C317 1.247 . S
O311 Zn303 1.906 . S
O311 C319 1.304 . S
O312 Zn300 1.924 . S
O312 C320 1.311 . S
O313 Zn304 1.977 . S
O313 C319 1.272 . S
O314 Zn304 1.910 . S
O314 C320 1.231 . S
C315 O299 1.225 . S
C315 O321 1.298 . S
C316 O305 1.226 . S
C316 O306 1.307 . S
C317 O309 1.303 . S
C317 O310 1.247 . S
C318 O307 1.253 . S
C318 O308 1.283 . S
C319 O311 1.304 . S
C319 O313 1.272 . S
C320 O312 1.311 . S
C320 O314 1.231 . S
O321 Zn303 1.953 . S
O321 C315 1.298 . S
O322 Zn323 1.953 . S
O322 C338 1.225 . S
Zn323 O322 1.953 . S
Zn323 O324 1.949 . S
Zn323 O330 1.919 . S
Zn323 O335 1.924 . S
O324 Zn323 1.949 . S
O324 Zn325 1.923 . S
O324 Zn326 1.950 . S
O324 Zn327 1.945 . S
Zn325 O324 1.923 . S
Zn325 O328 1.933 . S
Zn325 O331 1.941 . S
Zn325 O332 1.965 . S
Zn326 O324 1.950 . S
Zn326 O333 1.938 . S
Zn326 O334 1.906 . S
Zn326 O344 1.953 . S
Zn327 O324 1.945 . S
Zn327 O329 1.932 . S
Zn327 O336 1.977 . S
Zn327 O337 1.910 . S
O328 Zn325 1.933 . S
O328 C339 1.226 . S
O329 Zn327 1.932 . S
O329 C339 1.307 . S
O330 Zn323 1.919 . S
O330 C341 1.253 . S
O331 Zn325 1.941 . S
O331 C341 1.283 . S
O332 Zn325 1.965 . S
O332 C340 1.303 . S
O333 Zn326 1.938 . S
O333 C340 1.247 . S
O334 Zn326 1.906 . S
O334 C342 1.304 . S
O335 Zn323 1.924 . S
O335 C343 1.311 . S
O336 Zn327 1.977 . S
O336 C342 1.272 . S
O337 Zn327 1.910 . S
O337 C343 1.231 . S
C338 O322 1.225 . S
C338 O344 1.298 . S
C339 O328 1.226 . S
C339 O329 1.307 . S
C340 O332 1.303 . S
C340 O333 1.247 . S
C341 O330 1.253 . S
C341 O331 1.283 . S
C342 O334 1.304 . S
C342 O336 1.272 . S
C343 O335 1.311 . S
C343 O337 1.231 . S
O344 Zn326 1.953 . S
O344 C338 1.298 . S
O345 Zn346 1.953 . S
O345 C361 1.225 . S
Zn346 O345 1.953 . S
Zn346 O347 1.949 . S
Zn346 O353 1.919 . S
Zn346 O358 1.924 . S
O347 Zn346 1.949 . S
O347 Zn348 1.923 . S
O347 Zn349 1.950 . S
O347 Zn350 1.945 . S
Zn348 O347 1.923 . S
Zn348 O351 1.933 . S
Zn348 O354 1.941 . S
Zn348 O355 1.965 . S
Zn349 O347 1.950 . S
Zn349 O356 1.938 . S
Zn349 O357 1.906 . S
Zn349 O367 1.953 . S
Zn350 O347 1.945 . S
Zn350 O352 1.932 1_556 S
Zn350 O359 1.977 . S
Zn350 O360 1.910 1_556 S
O351 Zn348 1.933 . S
O351 C362 1.226 1_556 S
O352 Zn350 1.932 1_554 S
O352 C362 1.307 . S
O353 Zn346 1.919 . S
O353 C364 1.253 . S
O354 Zn348 1.941 . S
O354 C364 1.283 . S
O355 Zn348 1.965 . S
O355 C363 1.303 . S
O356 Zn349 1.938 . S
O356 C363 1.247 . S
O357 Zn349 1.906 . S
O357 C365 1.304 . S
O358 Zn346 1.924 . S
O358 C366 1.311 1_556 S
O359 Zn350 1.977 . S
O359 C365 1.272 . S
O360 Zn350 1.910 1_554 S
O360 C366 1.231 . S
C361 O345 1.225 . S
C361 O367 1.298 . S
C362 O351 1.226 1_554 S
C362 O352 1.307 . S
C363 O355 1.303 . S
C363 O356 1.247 . S
C364 O353 1.253 . S
C364 O354 1.283 . S
C365 O357 1.304 . S
C365 O359 1.272 . S
C366 O358 1.311 1_554 S
C366 O360 1.231 . S
O367 Zn349 1.953 . S
O367 C361 1.298 . S
O368 Zn369 1.953 . S
O368 C384 1.225 . S
Zn369 O368 1.953 . S
Zn369 O370 1.949 . S
Zn369 O376 1.919 . S
Zn369 O381 1.924 . S
O370 Zn369 1.949 . S
O370 Zn371 1.923 . S
O370 Zn372 1.950 . S
O370 Zn373 1.945 . S
Zn371 O370 1.923 . S
Zn371 O374 1.933 . S
Zn371 O377 1.941 . S
Zn371 O378 1.965 . S
Zn372 O370 1.950 . S
Zn372 O379 1.938 . S
Zn372 O380 1.906 . S
Zn372 O390 1.953 . S
Zn373 O370 1.945 . S
Zn373 O375 1.932 1_556 S
Zn373 O382 1.977 . S
Zn373 O383 1.910 1_556 S
O374 Zn371 1.933 . S
O374 C385 1.226 1_556 S
O375 Zn373 1.932 1_554 S
O375 C385 1.307 . S
O376 Zn369 1.919 . S
O376 C387 1.253 . S
O377 Zn371 1.941 . S
O377 C387 1.283 . S
O378 Zn371 1.965 . S
O378 C386 1.303 . S
O379 Zn372 1.938 . S
O379 C386 1.247 . S
O380 Zn372 1.906 . S
O380 C388 1.304 . S
O381 Zn369 1.924 . S
O381 C389 1.311 1_556 S
O382 Zn373 1.977 . S
O382 C388 1.272 . S
O383 Zn373 1.910 1_554 S
O383 C389 1.231 . S
C384 O368 1.225 . S
C384 O390 1.298 . S
C385 O374 1.226 1_554 S
C385 O375 1.307 . S
C386 O378 1.303 . S
C386 O379 1.247 . S
C387 O376 1.253 . S
C387 O377 1.283 . S
C388 O380 1.304 . S
C388 O382 1.272 . S
C389 O381 1.311 1_554 S
C389 O383 1.231 . S
O390 Zn372 1.953 . S
O390 C384 1.298 . S
O391 Zn392 1.953 . S
O391 C407 1.225 . S
Zn392 O391 1.953 . S
Zn392 O393 1.949 . S
Zn392 O399 1.919 . S
Zn392 O404 1.924 . S
O393 Zn392 1.949 . S
O393 Zn394 1.923 . S
O393 Zn395 1.950 . S
O393 Zn396 1.945 . S
Zn394 O393 1.923 . S
Zn394 O397 1.933 . S
Zn394 O400 1.941 . S
Zn394 O401 1.965 . S
Zn395 O393 1.950 . S
Zn395 O402 1.938 . S
Zn395 O403 1.906 . S
Zn395 O413 1.953 . S
Zn396 O393 1.945 . S
Zn396 O398 1.932 1_556 S
Zn396 O405 1.977 . S
Zn396 O406 1.910 1_556 S
O397 Zn394 1.933 . S
O397 C408 1.226 1_556 S
O398 Zn396 1.932 1_554 S
O398 C408 1.307 . S
O399 Zn392 1.919 . S
O399 C410 1.253 . S
O400 Zn394 1.941 . S
O400 C410 1.283 . S
O401 Zn394 1.965 . S
O401 C409 1.303 . S
O402 Zn395 1.938 . S
O402 C409 1.247 . S
O403 Zn395 1.906 . S
O403 C411 1.304 . S
O404 Zn392 1.924 . S
O404 C412 1.311 1_556 S
O405 Zn396 1.977 . S
O405 C411 1.272 . S
O406 Zn396 1.910 1_554 S
O406 C412 1.231 . S
C407 O391 1.225 . S
C407 O413 1.298 . S
C408 O397 1.226 1_554 S
C408 O398 1.307 . S
C409 O401 1.303 . S
C409 O402 1.247 . S
C410 O399 1.253 . S
C410 O400 1.283 . S
C411 O403 1.304 . S
C411 O405 1.272 . S
C412 O404 1.311 1_554 S
C412 O406 1.231 . S
O413 Zn395 1.953 . S
O413 C407 1.298 . S
O414 Zn415 1.953 . S
O414 C430 1.225 . S
Zn415 O414 1.953 . S
Zn415 O416 1.949 . S
Zn415 O422 1.919 . S
Zn415 O427 1.924 . S
O416 Zn415 1.949 . S
O416 Zn417 1.923 . S
O416 Zn418 1.950 . S
O416 Zn419 1.945 . S
Zn417 O416 1.923 . S
Zn417 O420 1.933 . S
Zn417 O423 1.941 . S
Zn417 O424 1.965 . S
Zn418 O416 1.950 . S
Zn418 O425 1.938 . S
Zn418 O426 1.906 . S
Zn418 O436 1.953 . S
Zn419 O416 1.945 . S
Zn419 O421 1.932 . S
Zn419 O428 1.977 . S
Zn419 O429 1.910 . S
O420 Zn417 1.933 . S
O420 C431 1.226 . S
O421 Zn419 1.932 . S
O421 C431 1.307 . S
O422 Zn415 1.919 . S
O422 C433 1.253 . S
O423 Zn417 1.941 . S
O423 C433 1.283 . S
O424 Zn417 1.965 . S
O424 C432 1.303 . S
O425 Zn418 1.938 . S
O425 C432 1.247 . S
O426 Zn418 1.906 . S
O426 C434 1.304 . S
O427 Zn415 1.924 . S
O427 C435 1.311 . S
O428 Zn419 1.977 . S
O428 C434 1.272 . S
O429 Zn419 1.910 . S
O429 C435 1.231 . S
C430 O414 1.225 . S
C430 O436 1.298 . S
C431 O420 1.226 . S
C431 O421 1.307 . S
C432 O424 1.303 . S
C432 O425 1.247 . S
C433 O422 1.253 . S
C433 O423 1.283 . S
C434 O426 1.304 . S
C434 O428 1.272 . S
C435 O427 1.311 . S
C435 O429 1.231 . S
O436 Zn418 1.953 . S
O436 C430 1.298 . S
O437 Zn438 1.953 . S
O437 C453 1.225 . S
Zn438 O437 1.953 . S
Zn438 O439 1.949 . S
Zn438 O445 1.919 . S
Zn438 O450 1.924 . S
O439 Zn438 1.949 . S
O439 Zn440 1.923 . S
O439 Zn441 1.950 . S
O439 Zn442 1.945 . S
Zn440 O439 1.923 . S
Zn440 O443 1.933 . S
Zn440 O446 1.941 . S
Zn440 O447 1.965 . S
Zn441 O439 1.950 . S
Zn441 O448 1.938 . S
Zn441 O449 1.906 . S
Zn441 O459 1.953 . S
Zn442 O439 1.945 . S
Zn442 O444 1.932 . S
Zn442 O451 1.977 . S
Zn442 O452 1.910 . S
O443 Zn440 1.933 . S
O443 C454 1.226 . S
O444 Zn442 1.932 . S
O444 C454 1.307 . S
O445 Zn438 1.919 . S
O445 C456 1.253 . S
O446 Zn440 1.941 . S
O446 C456 1.283 . S
O447 Zn440 1.965 . S
O447 C455 1.303 . S
O448 Zn441 1.938 . S
O448 C455 1.247 . S
O449 Zn441 1.906 . S
O449 C457 1.304 . S
O450 Zn438 1.924 . S
O450 C458 1.311 . S
O451 Zn442 1.977 . S
O451 C457 1.272 . S
O452 Zn442 1.910 . S
O452 C458 1.231 . S
C453 O437 1.225 . S
C453 O459 1.298 . S
C454 O443 1.226 . S
C454 O444 1.307 . S
C455 O447 1.303 . S
C455 O448 1.247 . S
C456 O445 1.253 . S
C456 O446 1.283 . S
C457 O449 1.304 . S
C457 O451 1.272 . S
C458 O450 1.311 . S
C458 O452 1.231 . S
O459 Zn441 1.953 . S
O459 C453 1.298 . S
O460 Zn461 1.953 . S
O460 C476 1.225 . S
Zn461 O460 1.953 . S
Zn461 O462 1.949 . S
Zn461 O468 1.919 . S
Zn461 O473 1.924 . S
O462 Zn461 1.949 . S
O462 Zn463 1.923 . S
O462 Zn464 1.950 . S
O462 Zn465 1.945 . S
Zn463 O462 1.923 . S
Zn463 O466 1.933 . S
Zn463 O469 1.941 . S
Zn463 O470 1.965 . S
Zn464 O462 1.950 . S
Zn464 O471 1.938 . S
Zn464 O472 1.906 . S
Zn464 O482 1.953 . S
Zn465 O462 1.945 . S
Zn465 O467 1.932 . S
Zn465 O474 1.977 . S
Zn465 O475 1.910 . S
O466 Zn463 1.933 . S
O466 C477 1.226 . S
O467 Zn465 1.932 . S
O467 C477 1.307 . S
O468 Zn461 1.919 . S
O468 C479 1.253 . S
O469 Zn463 1.941 . S
O469 C479 1.283 . S
O470 Zn463 1.965 . S
O470 C478 1.303 . S
O471 Zn464 1.938 . S
O471 C478 1.247 . S
O472 Zn464 1.906 . S
O472 C480 1.304 . S
O473 Zn461 1.924 . S
O473 C481 1.311 . S
O474 Zn465 1.977 . S
O474 C480 1.272 . S
O475 Zn465 1.910 . S
O475 C481 1.231 . S
C476 O460 1.225 . S
C476 O482 1.298 . S
C477 O466 1.226 . S
C477 O467 1.307 . S
C478 O470 1.303 . S
C478 O471 1.247 . S
C479 O468 1.253 . S
C479 O469 1.283 . S
C480 O472 1.304 . S
C480 O474 1.272 . S
C481 O473 1.311 . S
C481 O475 1.231 . S
O482 Zn464 1.953 . S
O482 C476 1.298 . S
O483 Zn484 1.950 1_554 S
O483 C499 1.228 . S
Zn484 O483 1.950 1_556 S
Zn484 O485 1.949 . S
Zn484 O491 1.919 . S
Zn484 O496 1.924 . S
O485 Zn484 1.949 . S
O485 Zn486 1.923 . S
O485 Zn487 1.950 . S
O485 Zn488 1.945 . S
Zn486 O485 1.923 . S
Zn486 O489 1.933 . S
Zn486 O492 1.941 . S
Zn486 O493 1.965 . S
Zn487 O485 1.950 . S
Zn487 O494 1.938 1_556 S
Zn487 O495 1.906 . S
Zn487 O505 1.953 1_556 S
Zn488 O485 1.945 . S
Zn488 O490 1.932 . S
Zn488 O497 1.977 . S
Zn488 O498 1.910 . S
O489 Zn486 1.933 . S
O489 C500 1.226 . S
O490 Zn488 1.932 . S
O490 C500 1.307 . S
O491 Zn484 1.919 . S
O491 C502 1.253 . S
O492 Zn486 1.941 . S
O492 C502 1.283 . S
O493 Zn486 1.965 . S
O493 C501 1.303 1_556 S
O494 Zn487 1.938 1_554 S
O494 C501 1.247 . S
O495 Zn487 1.906 . S
O495 C503 1.304 . S
O496 Zn484 1.924 . S
O496 C504 1.311 . S
O497 Zn488 1.977 . S
O497 C503 1.272 . S
O498 Zn488 1.910 . S
O498 C504 1.231 . S
C499 O483 1.228 . S
C499 O505 1.298 . S
C500 O489 1.226 . S
C500 O490 1.307 . S
C501 O493 1.303 1_554 S
C501 O494 1.247 . S
C502 O491 1.253 . S
C502 O492 1.283 . S
C503 O495 1.304 . S
C503 O497 1.272 . S
C504 O496 1.311 . S
C504 O498 1.231 . S
O505 Zn487 1.953 1_554 S
O505 C499 1.298 . S
O506 Zn507 1.950 1_554 S
O506 C522 1.228 . S
Zn507 O506 1.950 1_556 S
Zn507 O508 1.949 . S
Zn507 O514 1.919 . S
Zn507 O519 1.924 . S
O508 Zn507 1.949 . S
O508 Zn509 1.923 . S
O508 Zn510 1.950 . S
O508 Zn511 1.945 . S
Zn509 O508 1.923 . S
Zn509 O512 1.933 . S
Zn509 O515 1.941 . S
Zn509 O516 1.965 . S
Zn510 O508 1.950 . S
Zn510 O517 1.938 1_556 S
Zn510 O518 1.906 . S
Zn510 O528 1.953 1_556 S
Zn511 O508 1.945 . S
Zn511 O513 1.932 . S
Zn511 O520 1.977 . S
Zn511 O521 1.910 . S
O512 Zn509 1.933 . S
O512 C523 1.226 . S
O513 Zn511 1.932 . S
O513 C523 1.307 . S
O514 Zn507 1.919 . S
O514 C525 1.253 . S
O515 Zn509 1.941 . S
O515 C525 1.283 . S
O516 Zn509 1.965 . S
O516 C524 1.303 1_556 S
O517 Zn510 1.938 1_554 S
O517 C524 1.247 . S
O518 Zn510 1.906 . S
O518 C526 1.304 . S
O519 Zn507 1.924 . S
O519 C527 1.311 . S
O520 Zn511 1.977 . S
O520 C526 1.272 . S
O521 Zn511 1.910 . S
O521 C527 1.231 . S
C522 O506 1.228 . S
C522 O528 1.298 . S
C523 O512 1.226 . S
C523 O513 1.307 . S
C524 O516 1.303 1_554 S
C524 O517 1.247 . S
C525 O514 1.253 . S
C525 O515 1.283 . S
C526 O518 1.304 . S
C526 O520 1.272 . S
C527 O519 1.311 . S
C527 O521 1.231 . S
O528 Zn510 1.953 1_554 S
O528 C522 1.298 . S
O529 Zn530 1.948 1_554 S
O529 C545 1.229 . S
Zn530 O529 1.948 1_556 S
Zn530 O531 1.949 . S
Zn530 O537 1.919 . S
Zn530 O542 1.924 . S
O531 Zn530 1.949 . S
O531 Zn532 1.923 . S
O531 Zn533 1.950 . S
O531 Zn534 1.945 . S
Zn532 O531 1.923 . S
Zn532 O535 1.933 . S
Zn532 O538 1.941 . S
Zn532 O539 1.965 . S
Zn533 O531 1.950 . S
Zn533 O540 1.938 1_556 S
Zn533 O541 1.906 . S
Zn533 O551 1.953 1_556 S
Zn534 O531 1.945 . S
Zn534 O536 1.932 . S
Zn534 O543 1.977 . S
Zn534 O544 1.910 . S
O535 Zn532 1.933 . S
O535 C546 1.226 . S
O536 Zn534 1.932 . S
O536 C546 1.307 . S
O537 Zn530 1.919 . S
O537 C548 1.253 . S
O538 Zn532 1.941 . S
O538 C548 1.283 . S
O539 Zn532 1.965 . S
O539 C547 1.303 1_556 S
O540 Zn533 1.938 1_554 S
O540 C547 1.247 . S
O541 Zn533 1.906 . S
O541 C549 1.304 . S
O542 Zn530 1.924 . S
O542 C550 1.311 . S
O543 Zn534 1.977 . S
O543 C549 1.272 . S
O544 Zn534 1.910 . S
O544 C550 1.231 . S
C545 O529 1.229 . S
C545 O551 1.298 . S
C546 O535 1.226 . S
C546 O536 1.307 . S
C547 O539 1.303 1_554 S
C547 O540 1.247 . S
C548 O537 1.253 . S
C548 O538 1.283 . S
C549 O541 1.304 . S
C549 O543 1.272 . S
C550 O542 1.311 . S
C550 O544 1.231 . S
O551 Zn533 1.953 1_554 S
O551 C545 1.298 . S
O552 Zn553 1.953 . S
O552 C568 1.225 . S
Zn553 O552 1.953 . S
Zn553 O554 1.949 . S
Zn553 O560 1.919 . S
Zn553 O565 1.924 . S
O554 Zn553 1.949 . S
O554 Zn555 1.923 . S
O554 Zn556 1.950 . S
O554 Zn557 1.945 . S
Zn555 O554 1.923 . S
Zn555 O558 1.933 . S
Zn555 O561 1.941 . S
Zn555 O562 1.965 . S
Zn556 O554 1.950 . S
Zn556 O563 1.938 . S
Zn556 O564 1.906 . S
Zn556 O574 1.953 . S
Zn557 O554 1.945 . S
Zn557 O559 1.932 . S
Zn557 O566 1.977 . S
Zn557 O567 1.910 . S
O558 Zn555 1.933 . S
O558 C569 1.226 . S
O559 Zn557 1.932 . S
O559 C569 1.307 . S
O560 Zn553 1.919 . S
O560 C571 1.253 . S
O561 Zn555 1.941 . S
O561 C571 1.283 . S
O562 Zn555 1.965 . S
O562 C570 1.303 . S
O563 Zn556 1.938 . S
O563 C570 1.247 . S
O564 Zn556 1.906 . S
O564 C572 1.304 . S
O565 Zn553 1.924 . S
O565 C573 1.311 . S
O566 Zn557 1.977 . S
O566 C572 1.272 . S
O567 Zn557 1.910 . S
O567 C573 1.231 . S
C568 O552 1.225 . S
C568 O574 1.298 . S
C569 O558 1.226 . S
C569 O559 1.307 . S
C570 O562 1.303 . S
C570 O563 1.247 . S
C571 O560 1.253 . S
C571 O561 1.283 . S
C572 O564 1.304 . S
C572 O566 1.272 . S
C573 O565 1.311 . S
C573 O567 1.231 . S
O574 Zn556 1.953 . S
O574 C568 1.298 . S
O575 Zn576 1.953 . S
O575 C591 1.225 . S
Zn576 O575 1.953 . S
Zn576 O577 1.949 . S
Zn576 O583 1.919 . S
Zn576 O588 1.924 . S
O577 Zn576 1.949 . S
O577 Zn578 1.923 . S
O577 Zn579 1.950 . S
O577 Zn580 1.945 . S
Zn578 O577 1.923 . S
Zn578 O581 1.933 . S
Zn578 O584 1.941 . S
Zn578 O585 1.965 . S
Zn579 O577 1.950 . S
Zn579 O586 1.938 . S
Zn579 O587 1.906 . S
Zn579 O597 1.953 . S
Zn580 O577 1.945 . S
Zn580 O582 1.932 . S
Zn580 O589 1.977 . S
Zn580 O590 1.910 . S
O581 Zn578 1.933 . S
O581 C592 1.226 . S
O582 Zn580 1.932 . S
O582 C592 1.307 . S
O583 Zn576 1.919 . S
O583 C594 1.253 . S
O584 Zn578 1.941 . S
O584 C594 1.283 . S
O585 Zn578 1.965 . S
O585 C593 1.303 . S
O586 Zn579 1.938 . S
O586 C593 1.247 . S
O587 Zn579 1.906 . S
O587 C595 1.304 . S
O588 Zn576 1.924 . S
O588 C596 1.311 . S
O589 Zn580 1.977 . S
O589 C595 1.272 . S
O590 Zn580 1.910 . S
O590 C596 1.231 . S
C591 O575 1.225 . S
C591 O597 1.298 . S
C592 O581 1.226 . S
C592 O582 1.307 . S
C593 O585 1.303 . S
C593 O586 1.247 . S
C594 O583 1.253 . S
C594 O584 1.283 . S
C595 O587 1.304 . S
C595 O589 1.272 . S
C596 O588 1.311 . S
C596 O590 1.231 . S
O597 Zn579 1.953 . S
O597 C591 1.298 . S
O598 Zn599 1.953 . S
O598 C614 1.225 . S
Zn599 O598 1.953 . S
Zn599 O600 1.949 . S
Zn599 O606 1.919 . S
Zn599 O611 1.924 . S
O600 Zn599 1.949 . S
O600 Zn601 1.923 . S
O600 Zn602 1.950 . S
O600 Zn603 1.945 . S
Zn601 O600 1.923 . S
Zn601 O604 1.933 . S
Zn601 O607 1.941 . S
Zn601 O608 1.965 . S
Zn602 O600 1.950 . S
Zn602 O609 1.938 . S
Zn602 O610 1.906 . S
Zn602 O620 1.953 . S
Zn603 O600 1.945 . S
Zn603 O605 1.932 . S
Zn603 O612 1.977 . S
Zn603 O613 1.910 . S
O604 Zn601 1.933 . S
O604 C615 1.226 . S
O605 Zn603 1.932 . S
O605 C615 1.307 . S
O606 Zn599 1.919 . S
O606 C617 1.253 . S
O607 Zn601 1.941 . S
O607 C617 1.283 . S
O608 Zn601 1.965 . S
O608 C616 1.303 . S
O609 Zn602 1.938 . S
O609 C616 1.247 . S
O610 Zn602 1.906 . S
O610 C618 1.304 . S
O611 Zn599 1.924 . S
O611 C619 1.311 . S
O612 Zn603 1.977 . S
O612 C618 1.272 . S
O613 Zn603 1.910 . S
O613 C619 1.231 . S
C614 O598 1.225 . S
C614 O620 1.298 . S
C615 O604 1.226 . S
C615 O605 1.307 . S
C616 O608 1.303 . S
C616 O609 1.247 . S
C617 O606 1.253 . S
C617 O607 1.283 . S
C618 O610 1.304 . S
C618 O612 1.272 . S
C619 O611 1.311 . S
C619 O613 1.231 . S
O620 Zn602 1.953 . S
O620 C614 1.298 . S
O621 Zn622 1.953 . S
O621 C637 1.225 1_554 S
Zn622 O621 1.953 . S
Zn622 O623 1.949 . S
Zn622 O629 1.919 . S
Zn622 O634 1.924 . S
O623 Zn622 1.949 . S
O623 Zn624 1.923 . S
O623 Zn625 1.950 . S
O623 Zn626 1.945 . S
Zn624 O623 1.923 . S
Zn624 O627 1.933 . S
Zn624 O630 1.941 . S
Zn624 O631 1.965 . S
Zn625 O623 1.950 . S
Zn625 O632 1.938 1_554 S
Zn625 O633 1.906 . S
Zn625 O643 1.953 1_554 S
Zn626 O623 1.945 . S
Zn626 O628 1.932 . S
Zn626 O635 1.977 . S
Zn626 O636 1.910 . S
O627 Zn624 1.933 . S
O627 C638 1.226 . S
O628 Zn626 1.932 . S
O628 C638 1.307 . S
O629 Zn622 1.919 . S
O629 C640 1.253 . S
O630 Zn624 1.941 . S
O630 C640 1.283 . S
O631 Zn624 1.965 . S
O631 C639 1.303 1_554 S
O632 Zn625 1.938 1_556 S
O632 C639 1.247 . S
O633 Zn625 1.906 . S
O633 C641 1.304 . S
O634 Zn622 1.924 . S
O634 C642 1.311 . S
O635 Zn626 1.977 . S
O635 C641 1.272 . S
O636 Zn626 1.910 . S
O636 C642 1.231 . S
C637 O621 1.225 1_556 S
C637 O643 1.298 . S
C638 O627 1.226 . S
C638 O628 1.307 . S
C639 O631 1.303 1_556 S
C639 O632 1.247 . S
C640 O629 1.253 . S
C640 O630 1.283 . S
C641 O633 1.304 . S
C641 O635 1.272 . S
C642 O634 1.311 . S
C642 O636 1.231 . S
O643 Zn625 1.953 1_556 S
O643 C637 1.298 . S
O644 Zn645 1.953 . S
O644 C660 1.225 1_554 S
Zn645 O644 1.953 . S
Zn645 O646 1.949 . S
Zn645 O652 1.919 . S
Zn645 O657 1.924 . S
O646 Zn645 1.949 . S
O646 Zn647 1.923 . S
O646 Zn648 1.950 . S
O646 Zn649 1.945 . S
Zn647 O646 1.923 . S
Zn647 O650 1.933 . S
Zn647 O653 1.941 . S
Zn647 O654 1.965 . S
Zn648 O646 1.950 . S
Zn648 O655 1.938 1_554 S
Zn648 O656 1.906 . S
Zn648 O666 1.953 1_554 S
Zn649 O646 1.945 . S
Zn649 O651 1.932 . S
Zn649 O658 1.977 . S
Zn649 O659 1.910 . S
O650 Zn647 1.933 . S
O650 C661 1.226 . S
O651 Zn649 1.932 . S
O651 C661 1.307 . S
O652 Zn645 1.919 . S
O652 C663 1.253 . S
O653 Zn647 1.941 . S
O653 C663 1.283 . S
O654 Zn647 1.965 . S
O654 C662 1.303 1_554 S
O655 Zn648 1.938 1_556 S
O655 C662 1.247 . S
O656 Zn648 1.906 . S
O656 C664 1.304 . S
O657 Zn645 1.924 . S
O657 C665 1.311 . S
O658 Zn649 1.977 . S
O658 C664 1.272 . S
O659 Zn649 1.910 . S
O659 C665 1.231 . S
C660 O644 1.225 1_556 S
C660 O666 1.298 . S
C661 O650 1.226 . S
C661 O651 1.307 . S
C662 O654 1.303 1_556 S
C662 O655 1.247 . S
C663 O652 1.253 . S
C663 O653 1.283 . S
C664 O656 1.304 . S
C664 O658 1.272 . S
C665 O657 1.311 . S
C665 O659 1.231 . S
O666 Zn648 1.953 1_556 S
O666 C660 1.298 . S
O667 Zn668 1.953 . S
O667 C683 1.225 1_554 S
Zn668 O667 1.953 . S
Zn668 O669 1.949 . S
Zn668 O675 1.919 . S
Zn668 O680 1.924 . S
O669 Zn668 1.949 . S
O669 Zn670 1.923 . S
O669 Zn671 1.950 . S
O669 Zn672 1.945 . S
Zn670 O669 1.923 . S
Zn670 O673 1.933 . S
Zn670 O676 1.941 . S
Zn670 O677 1.965 . S
Zn671 O669 1.950 . S
Zn671 O678 1.938 1_554 S
Zn671 O679 1.906 . S
Zn671 O689 1.953 1_554 S
Zn672 O669 1.945 . S
Zn672 O674 1.932 . S
Zn672 O681 1.977 . S
Zn672 O682 1.910 . S
O673 Zn670 1.933 . S
O673 C684 1.226 . S
O674 Zn672 1.932 . S
O674 C684 1.307 . S
O675 Zn668 1.919 . S
O675 C686 1.253 . S
O676 Zn670 1.941 . S
O676 C686 1.283 . S
O677 Zn670 1.965 . S
O677 C685 1.303 1_554 S
O678 Zn671 1.938 1_556 S
O678 C685 1.247 . S
O679 Zn671 1.906 . S
O679 C687 1.304 . S
O680 Zn668 1.924 . S
O680 C688 1.311 . S
O681 Zn672 1.977 . S
O681 C687 1.272 . S
O682 Zn672 1.910 . S
O682 C688 1.231 . S
C683 O667 1.225 1_556 S
C683 O689 1.298 . S
C684 O673 1.226 . S
C684 O674 1.307 . S
C685 O677 1.303 1_556 S
C685 O678 1.247 . S
C686 O675 1.253 . S
C686 O676 1.283 . S
C687 O679 1.304 . S
C687 O681 1.272 . S
C688 O680 1.311 . S
C688 O682 1.231 . S
O689 Zn671 1.953 1_556 S
O689 C683 1.298 . S
O690 Zn691 1.953 . S
O690 C706 1.225 . S
Zn691 O690 1.953 . S
Zn691 O692 1.949 . S
Zn691 O698 1.919 . S
Zn691 O703 1.924 . S
O692 Zn691 1.949 . S
O692 Zn693 1.923 . S
O692 Zn694 1.950 . S
O692 Zn695 1.945 . S
Zn693 O692 1.923 . S
Zn693 O696 1.933 . S
Zn693 O699 1.941 . S
Zn693 O700 1.965 . S
Zn694 O692 1.950 . S
Zn694 O701 1.938 . S
Zn694 O702 1.906 . S
Zn694 O712 1.953 . S
Zn695 O692 1.945 . S
Zn695 O697 1.932 . S
Zn695 O704 1.977 . S
Zn695 O705 1.910 . S
O696 Zn693 1.933 . S
O696 C707 1.226 . S
O697 Zn695 1.932 . S
O697 C707 1.307 . S
O698 Zn691 1.919 . S
O698 C709 1.253 . S
O699 Zn693 1.941 . S
O699 C709 1.283 . S
O700 Zn693 1.965 . S
O700 C708 1.303 . S
O701 Zn694 1.938 . S
O701 C708 1.247 . S
O702 Zn694 1.906 . S
O702 C710 1.304 . S
O703 Zn691 1.924 . S
O703 C711 1.311 . S
O704 Zn695 1.977 . S
O704 C710 1.272 . S
O705 Zn695 1.910 . S
O705 C711 1.231 . S
C706 O690 1.225 . S
C706 O712 1.298 . S
C707 O696 1.226 . S
C707 O697 1.307 . S
C708 O700 1.303 . S
C708 O701 1.247 . S
C709 O698 1.253 . S
C709 O699 1.283 . S
C710 O702 1.304 . S
C710 O704 1.272 . S
C711 O703 1.311 . S
C711 O705 1.231 . S
O712 Zn694 1.953 . S
O712 C706 1.298 . S
O713 Zn714 1.953 . S
O713 C729 1.225 . S
Zn714 O713 1.953 . S
Zn714 O715 1.949 . S
Zn714 O721 1.919 . S
Zn714 O726 1.924 . S
O715 Zn714 1.949 . S
O715 Zn716 1.923 . S
O715 Zn717 1.950 . S
O715 Zn718 1.945 . S
Zn716 O715 1.923 . S
Zn716 O719 1.933 . S
Zn716 O722 1.941 . S
Zn716 O723 1.965 . S
Zn717 O715 1.950 . S
Zn717 O724 1.938 . S
Zn717 O725 1.906 . S
Zn717 O735 1.953 . S
Zn718 O715 1.945 . S
Zn718 O720 1.932 . S
Zn718 O727 1.977 . S
Zn718 O728 1.910 . S
O719 Zn716 1.933 . S
O719 C730 1.226 . S
O720 Zn718 1.932 . S
O720 C730 1.307 . S
O721 Zn714 1.919 . S
O721 C732 1.253 . S
O722 Zn716 1.941 . S
O722 C732 1.283 . S
O723 Zn716 1.965 . S
O723 C731 1.303 . S
O724 Zn717 1.938 . S
O724 C731 1.247 . S
O725 Zn717 1.906 . S
O725 C733 1.304 . S
O726 Zn714 1.924 . S
O726 C734 1.311 . S
O727 Zn718 1.977 . S
O727 C733 1.272 . S
O728 Zn718 1.910 . S
O728 C734 1.231 . S
C729 O713 1.225 . S
C729 O735 1.298 . S
C730 O719 1.226 . S
C730 O720 1.307 . S
C731 O723 1.303 . S
C731 O724 1.247 . S
C732 O721 1.253 . S
C732 O722 1.283 . S
C733 O725 1.304 . S
C733 O727 1.272 . S
C734 O726 1.311 . S
C734 O728 1.231 . S
O735 Zn717 1.953 . S
O735 C729 1.298 . S
O736 Zn737 1.953 . S
O736 C752 1.225 . S
Zn737 O736 1.953 . S
Zn737 O738 1.949 . S
Zn737 O744 1.919 . S
Zn737 O749 1.924 . S
O738 Zn737 1.949 . S
O738 Zn739 1.923 . S
O738 Zn740 1.950 . S
O738 Zn741 1.945 . S
Zn739 O738 1.923 . S
Zn739 O742 1.933 . S
Zn739 O745 1.941 . S
Zn739 O746 1.965 . S
Zn740 O738 1.950 . S
Zn740 O747 1.938 . S
Zn740 O748 1.906 . S
Zn740 O758 1.953 . S
Zn741 O738 1.945 . S
Zn741 O743 1.932 . S
Zn741 O750 1.977 . S
Zn741 O751 1.910 . S
O742 Zn739 1.933 . S
O742 C753 1.226 . S
O743 Zn741 1.932 . S
O743 C753 1.307 . S
O744 Zn737 1.919 . S
O744 C755 1.253 . S
O745 Zn739 1.941 . S
O745 C755 1.283 . S
O746 Zn739 1.965 . S
O746 C754 1.303 . S
O747 Zn740 1.938 . S
O747 C754 1.247 . S
O748 Zn740 1.906 . S
O748 C756 1.304 . S
O749 Zn737 1.924 . S
O749 C757 1.311 . S
O750 Zn741 1.977 . S
O750 C756 1.272 . S
O751 Zn741 1.910 . S
O751 C757 1.231 . S
C752 O736 1.225 . S
C752 O758 1.298 . S
C753 O742 1.226 . S
C753 O743 1.307 . S
C754 O746 1.303 . S
C754 O747 1.247 . S
C755 O744 1.253 . S
C755 O745 1.283 . S
C756 O748 1.304 . S
C756 O750 1.272 . S
C757 O749 1.311 . S
C757 O751 1.231 . S
O758 Zn740 1.953 . S
O758 C752 1.298 . S
O759 Zn760 1.953 . S
O759 C775 1.225 . S
Zn760 O759 1.953 . S
Zn760 O761 1.949 . S
Zn760 O767 1.919 . S
Zn760 O772 1.924 . S
O761 Zn760 1.949 . S
O761 Zn762 1.923 . S
O761 Zn763 1.950 . S
O761 Zn764 1.945 . S
Zn762 O761 1.923 . S
Zn762 O765 1.933 . S
Zn762 O768 1.941 . S
Zn762 O769 1.965 . S
Zn763 O761 1.950 . S
Zn763 O770 1.938 . S
Zn763 O771 1.906 . S
Zn763 O781 1.953 . S
Zn764 O761 1.945 . S
Zn764 O766 1.932 1_554 S
Zn764 O773 1.977 . S
Zn764 O774 1.910 1_554 S
O765 Zn762 1.933 . S
O765 C776 1.226 1_554 S
O766 Zn764 1.932 1_556 S
O766 C776 1.307 . S
O767 Zn760 1.919 . S
O767 C778 1.253 . S
O768 Zn762 1.941 . S
O768 C778 1.283 . S
O769 Zn762 1.965 . S
O769 C777 1.303 . S
O770 Zn763 1.938 . S
O770 C777 1.247 . S
O771 Zn763 1.906 . S
O771 C779 1.304 . S
O772 Zn760 1.924 . S
O772 C780 1.311 . S
O773 Zn764 1.977 . S
O773 C779 1.272 . S
O774 Zn764 1.910 1_556 S
O774 C780 1.231 1_556 S
C775 O759 1.225 . S
C775 O781 1.298 . S
C776 O765 1.226 1_556 S
C776 O766 1.307 . S
C777 O769 1.303 . S
C777 O770 1.247 . S
C778 O767 1.253 . S
C778 O768 1.283 . S
C779 O771 1.304 . S
C779 O773 1.272 . S
C780 O772 1.311 . S
C780 O774 1.231 1_554 S
O781 Zn763 1.953 . S
O781 C775 1.298 . S
O782 Zn783 1.953 . S
O782 C798 1.225 . S
Zn783 O782 1.953 . S
Zn783 O784 1.949 . S
Zn783 O790 1.919 . S
Zn783 O795 1.924 . S
O784 Zn783 1.949 . S
O784 Zn785 1.923 . S
O784 Zn786 1.950 . S
O784 Zn787 1.945 . S
Zn785 O784 1.923 . S
Zn785 O788 1.933 . S
Zn785 O791 1.941 . S
Zn785 O792 1.965 . S
Zn786 O784 1.950 . S
Zn786 O793 1.938 . S
Zn786 O794 1.906 . S
Zn786 O804 1.953 . S
Zn787 O784 1.945 . S
Zn787 O789 1.932 1_554 S
Zn787 O796 1.977 . S
Zn787 O797 1.910 1_554 S
O788 Zn785 1.933 . S
O788 C799 1.226 1_554 S
O789 Zn787 1.932 1_556 S
O789 C799 1.307 . S
O790 Zn783 1.919 . S
O790 C801 1.253 . S
O791 Zn785 1.941 . S
O791 C801 1.283 . S
O792 Zn785 1.965 . S
O792 C800 1.303 . S
O793 Zn786 1.938 . S
O793 C800 1.247 . S
O794 Zn786 1.906 . S
O794 C802 1.304 . S
O795 Zn783 1.924 . S
O795 C803 1.311 . S
O796 Zn787 1.977 . S
O796 C802 1.272 . S
O797 Zn787 1.910 1_556 S
O797 C803 1.231 1_556 S
C798 O782 1.225 . S
C798 O804 1.298 . S
C799 O788 1.226 1_556 S
C799 O789 1.307 . S
C800 O792 1.303 . S
C800 O793 1.247 . S
C801 O790 1.253 . S
C801 O791 1.283 . S
C802 O794 1.304 . S
C802 O796 1.272 . S
C803 O795 1.311 . S
C803 O797 1.231 1_554 S
O804 Zn786 1.953 . S
O804 C798 1.298 . S
O805 Zn806 1.953 . S
O805 C821 1.225 . S
Zn806 O805 1.953 . S
Zn806 O807 1.949 . S
Zn806 O813 1.919 . S
Zn806 O818 1.924 . S
O807 Zn806 1.949 . S
O807 Zn808 1.923 . S
O807 Zn809 1.950 . S
O807 Zn810 1.945 . S
Zn808 O807 1.923 . S
Zn808 O811 1.933 . S
Zn808 O814 1.941 . S
Zn808 O815 1.965 . S
Zn809 O807 1.950 . S
Zn809 O816 1.938 . S
Zn809 O817 1.906 . S
Zn809 O827 1.953 . S
Zn810 O807 1.945 . S
Zn810 O812 1.932 1_554 S
Zn810 O819 1.977 . S
Zn810 O820 1.910 1_554 S
O811 Zn808 1.933 . S
O811 C822 1.226 1_554 S
O812 Zn810 1.932 1_556 S
O812 C822 1.307 . S
O813 Zn806 1.919 . S
O813 C824 1.253 . S
O814 Zn808 1.941 . S
O814 C824 1.283 . S
O815 Zn808 1.965 . S
O815 C823 1.303 . S
O816 Zn809 1.938 . S
O816 C823 1.247 . S
O817 Zn809 1.906 . S
O817 C825 1.304 . S
O818 Zn806 1.924 . S
O818 C826 1.311 . S
O819 Zn810 1.977 . S
O819 C825 1.272 . S
O820 Zn810 1.910 1_556 S
O820 C826 1.231 1_556 S
C821 O805 1.225 . S
C821 O827 1.298 . S
C822 O811 1.226 1_556 S
C822 O812 1.307 . S
C823 O815 1.303 . S
C823 O816 1.247 . S
C824 O813 1.253 . S
C824 O814 1.283 . S
C825 O817 1.304 . S
C825 O819 1.272 . S
C826 O818 1.311 . S
C826 O820 1.231 1_554 S
O827 Zn809 1.953 . S
O827 C821 1.298 . S
C365 C20 1.081 . S
C388 C43 1.082 . S
C66 C411 1.082 . S
C89 C572 1.081 . S
C112 C595 1.081 . S
C135 C618 1.082 . S
C779 C158 1.081 . S
C802 C181 1.082 . S
C204 C825 1.081 . S
C434 C227 1.081 . S
C250 C457 1.082 . S
C273 C480 1.082 . S
C641 C296 1.080 . S
C319 C664 1.082 1_565 S
C687 C342 1.081 1_655 S
C710 C503 1.080 . S
C733 C526 1.081 1_545 S
C549 C756 1.082 1_455 S
C17 C109 1.446 1_455 S
C40 C132 1.446 . S
C63 C86 1.447 1_565 S
C155 C247 1.446 1_655 S
C178 C270 1.446 . S
C201 C224 1.446 1_545 S
C293 C385 1.446 . S
C408 C316 1.446 . S
C339 C362 1.446 . S
C431 C523 1.446 . S
C454 C546 1.446 . S
C500 C477 1.446 . S
C569 C661 1.446 . S
C684 C592 1.446 . S
C615 C638 1.446 . S
C707 C799 1.446 . S
C730 C822 1.446 . S
C753 C776 1.446 . S
C246 C21 1.857 . S
C44 C269 1.857 . S
C67 C223 1.857 . S
C90 C200 1.857 . S
C113 C154 1.857 . S
C177 C136 1.857 . S
C159 C108 1.857 . S
C131 C182 1.857 . S
C205 C85 1.857 . S
C228 C62 1.857 . S
C16 C251 1.857 . S
C39 C274 1.857 . S
C522 C297 1.857 . S
C545 C320 1.857 . S
C499 C343 1.857 . S
C476 C366 1.858 . S
C389 C430 1.857 . S
C453 C412 1.857 . S
C384 C435 1.858 . S
C458 C407 1.857 . S
C481 C361 1.857 . S
C338 C504 1.858 . S
C527 C292 1.857 . S
C550 C315 1.857 . S
C573 C798 1.858 . S
C596 C821 1.857 . S
C775 C619 1.857 . S
C752 C642 1.858 . S
C665 C706 1.857 . S
C729 C688 1.857 . S
C711 C660 1.857 . S
C683 C734 1.857 . S
C757 C637 1.857 . S
C780 C614 1.858 1_554 S
C568 C803 1.857 1_556 S
C591 C826 1.857 1_556 S
C18 C110 2.225 1_455 S
C133 C41 2.225 . S
C64 C87 2.225 1_565 S
C156 C248 2.225 1_655 S
C271 C179 2.225 . S
C202 C225 2.225 1_545 S
C386 C294 2.225 . S
C409 C317 2.225 . S
C363 C340 2.225 . S
C524 C432 2.225 . S
C455 C547 2.225 . S
C501 C478 2.225 . S
C662 C570 2.225 . S
C593 C685 2.225 . S
C616 C639 2.225 . S
C800 C708 2.225 . S
C731 C823 2.225 . S
C754 C777 2.225 . S
C19 C157 0.343 1_655 S
C42 C180 0.344 . S
C203 C65 0.344 1_565 S
C226 C88 0.343 1_545 S
C111 C249 0.343 1_455 S
C134 C272 0.344 . S
C433 C295 0.344 . S
C318 C456 0.344 . S
C479 C341 0.343 . S
C502 C364 0.344 . S
C525 C387 0.344 . S
C548 C410 0.344 . S
C709 C571 0.343 . S
C594 C732 0.344 . S
C755 C617 0.343 . S
C778 C640 0.343 . S
C801 C663 0.344 . S
C686 C824 0.344 . S
