# Generated by pormake.
# Topology umk, (4)-cn, num edge types: 1
# Building blocks:
#     Node 0, Type 0, BuildingBlock: ICAMEG_clean_sbu_1, # of connection points: 4
#     Node 1, Type 0, BuildingBlock: ICAMEG_clean_sbu_1, # of connection points: 4
#     Node 2, Type 0, BuildingBlock: ICAMEG_clean_sbu_1, # of connection points: 4
#     Node 3, Type 0, BuildingBlock: ICAMEG_clean_sbu_1, # of connection points: 4
#     Node 4, Type 0, BuildingBlock: ICAMEG_clean_sbu_1, # of connection points: 4
#     Node 5, Type 0, BuildingBlock: ICAMEG_clean_sbu_1, # of connection points: 4
#     Node 6, Type 0, BuildingBlock: ICAMEG_clean_sbu_1, # of connection points: 4
#     Node 7, Type 0, BuildingBlock: ICAMEG_clean_sbu_1, # of connection points: 4
#     Node 8, Type 0, BuildingBlock: ICAMEG_clean_sbu_1, # of connection points: 4
#     Node 9, Type 0, BuildingBlock: ICAMEG_clean_sbu_1, # of connection points: 4
#     Node 10, Type 0, BuildingBlock: ICAMEG_clean_sbu_1, # of connection points: 4
#     Node 11, Type 0, BuildingBlock: ICAMEG_clean_sbu_1, # of connection points: 4
#     Node 12, Type 0, BuildingBlock: ICAMEG_clean_sbu_1, # of connection points: 4
#     Node 13, Type 0, BuildingBlock: ICAMEG_clean_sbu_1, # of connection points: 4
#     Node 14, Type 0, BuildingBlock: ICAMEG_clean_sbu_1, # of connection points: 4
#     Node 15, Type 0, BuildingBlock: ICAMEG_clean_sbu_1, # of connection points: 4
#     Node 16, Type 0, BuildingBlock: ICAMEG_clean_sbu_1, # of connection points: 4
#     Node 17, Type 0, BuildingBlock: ICAMEG_clean_sbu_1, # of connection points: 4
#     Node 18, Type 0, BuildingBlock: ICAMEG_clean_sbu_1, # of connection points: 4
#     Node 19, Type 0, BuildingBlock: ICAMEG_clean_sbu_1, # of connection points: 4
#     Node 20, Type 0, BuildingBlock: ICAMEG_clean_sbu_1, # of connection points: 4
#     Node 21, Type 0, BuildingBlock: ICAMEG_clean_sbu_1, # of connection points: 4
#     Node 22, Type 0, BuildingBlock: ICAMEG_clean_sbu_1, # of connection points: 4
#     Node 23, Type 0, BuildingBlock: ICAMEG_clean_sbu_1, # of connection points: 4
#     Edge 24, Type (0, 0), BuildingBlock: ZUJKAS_clean_linker_0, # of connection points: 2
#     Edge 25, Type (0, 0), BuildingBlock: ZUJKAS_clean_linker_0, # of connection points: 2
#     Edge 26, Type (0, 0), BuildingBlock: ZUJKAS_clean_linker_0, # of connection points: 2
#     Edge 27, Type (0, 0), BuildingBlock: ZUJKAS_clean_linker_0, # of connection points: 2
#     Edge 28, Type (0, 0), BuildingBlock: ZUJKAS_clean_linker_0, # of connection points: 2
#     Edge 29, Type (0, 0), BuildingBlock: ZUJKAS_clean_linker_0, # of connection points: 2
#     Edge 30, Type (0, 0), BuildingBlock: ZUJKAS_clean_linker_0, # of connection points: 2
#     Edge 31, Type (0, 0), BuildingBlock: ZUJKAS_clean_linker_0, # of connection points: 2
#     Edge 32, Type (0, 0), BuildingBlock: ZUJKAS_clean_linker_0, # of connection points: 2
#     Edge 33, Type (0, 0), BuildingBlock: ZUJKAS_clean_linker_0, # of connection points: 2
#     Edge 34, Type (0, 0), BuildingBlock: ZUJKAS_clean_linker_0, # of connection points: 2
#     Edge 35, Type (0, 0), BuildingBlock: ZUJKAS_clean_linker_0, # of connection points: 2
#     Edge 36, Type (0, 0), BuildingBlock: ZUJKAS_clean_linker_0, # of connection points: 2
#     Edge 37, Type (0, 0), BuildingBlock: ZUJKAS_clean_linker_0, # of connection points: 2
#     Edge 38, Type (0, 0), BuildingBlock: ZUJKAS_clean_linker_0, # of connection points: 2
#     Edge 39, Type (0, 0), BuildingBlock: ZUJKAS_clean_linker_0, # of connection points: 2
#     Edge 40, Type (0, 0), BuildingBlock: ZUJKAS_clean_linker_0, # of connection points: 2
#     Edge 41, Type (0, 0), BuildingBlock: ZUJKAS_clean_linker_0, # of connection points: 2
#     Edge 42, Type (0, 0), BuildingBlock: ZUJKAS_clean_linker_0, # of connection points: 2
#     Edge 43, Type (0, 0), BuildingBlock: ZUJKAS_clean_linker_0, # of connection points: 2
#     Edge 44, Type (0, 0), BuildingBlock: ZUJKAS_clean_linker_0, # of connection points: 2
#     Edge 45, Type (0, 0), BuildingBlock: ZUJKAS_clean_linker_0, # of connection points: 2
#     Edge 46, Type (0, 0), BuildingBlock: ZUJKAS_clean_linker_0, # of connection points: 2
#     Edge 47, Type (0, 0), BuildingBlock: ZUJKAS_clean_linker_0, # of connection points: 2
#     Edge 48, Type (0, 0), BuildingBlock: ZUJKAS_clean_linker_0, # of connection points: 2
#     Edge 49, Type (0, 0), BuildingBlock: ZUJKAS_clean_linker_0, # of connection points: 2
#     Edge 50, Type (0, 0), BuildingBlock: ZUJKAS_clean_linker_0, # of connection points: 2
#     Edge 51, Type (0, 0), BuildingBlock: ZUJKAS_clean_linker_0, # of connection points: 2
#     Edge 52, Type (0, 0), BuildingBlock: ZUJKAS_clean_linker_0, # of connection points: 2
#     Edge 53, Type (0, 0), BuildingBlock: ZUJKAS_clean_linker_0, # of connection points: 2
#     Edge 54, Type (0, 0), BuildingBlock: ZUJKAS_clean_linker_0, # of connection points: 2
#     Edge 55, Type (0, 0), BuildingBlock: ZUJKAS_clean_linker_0, # of connection points: 2
#     Edge 56, Type (0, 0), BuildingBlock: ZUJKAS_clean_linker_0, # of connection points: 2
#     Edge 57, Type (0, 0), BuildingBlock: ZUJKAS_clean_linker_0, # of connection points: 2
#     Edge 58, Type (0, 0), BuildingBlock: ZUJKAS_clean_linker_0, # of connection points: 2
#     Edge 59, Type (0, 0), BuildingBlock: ZUJKAS_clean_linker_0, # of connection points: 2
#     Edge 60, Type (0, 0), BuildingBlock: ZUJKAS_clean_linker_0, # of connection points: 2
#     Edge 61, Type (0, 0), BuildingBlock: ZUJKAS_clean_linker_0, # of connection points: 2
#     Edge 62, Type (0, 0), BuildingBlock: ZUJKAS_clean_linker_0, # of connection points: 2
#     Edge 63, Type (0, 0), BuildingBlock: ZUJKAS_clean_linker_0, # of connection points: 2
#     Edge 64, Type (0, 0), BuildingBlock: ZUJKAS_clean_linker_0, # of connection points: 2
#     Edge 65, Type (0, 0), BuildingBlock: ZUJKAS_clean_linker_0, # of connection points: 2
#     Edge 66, Type (0, 0), BuildingBlock: ZUJKAS_clean_linker_0, # of connection points: 2
#     Edge 67, Type (0, 0), BuildingBlock: ZUJKAS_clean_linker_0, # of connection points: 2
#     Edge 68, Type (0, 0), BuildingBlock: ZUJKAS_clean_linker_0, # of connection points: 2
#     Edge 69, Type (0, 0), BuildingBlock: ZUJKAS_clean_linker_0, # of connection points: 2
#     Edge 70, Type (0, 0), BuildingBlock: ZUJKAS_clean_linker_0, # of connection points: 2
#     Edge 71, Type (0, 0), BuildingBlock: ZUJKAS_clean_linker_0, # of connection points: 2
# Relax obj value: 0.074
# Max RMSD: 0.108
# Mean RMSD: 0.108
data_MOF--net-umk--node1-ICAMEG_clean_sbu_1--edge1-ZUJKAS_clean_linker_0
_symmetry_space_group_name_H-M    P1
_symmetry_Int_Tables_number       1
_symmetry_cell_setting            triclinic
loop_
_symmetry_equiv_pos_as_xyz
'x, y, z'
_cell_length_a     88.281664
_cell_length_b     88.269374
_cell_length_c     62.133844
_cell_angle_alpha  90.034925
_cell_angle_beta   89.998454
_cell_angle_gamma 119.998
loop_
_atom_site_label
_atom_site_type_symbol
_atom_site_fract_x
_atom_site_fract_y
_atom_site_fract_z
_atom_type_partial_charge
Co0 Co 0.36091 0.48762 0.10743 0.0
Co1 Co 0.34006 0.46322 0.06246 0.0
O2 O 0.33978 0.47304 0.09062 0.0
C3 C 0.33984 0.46053 0.1404 0.0
O4 O 0.33801 0.44828 0.12688 0.0
C5 C 0.32038 0.48179 0.05261 0.0
O6 O 0.33333 0.49594 0.06123 0.0
O7 O 0.35825 0.48664 0.05153 0.0
O8 O 0.37441 0.49939 0.08092 0.0
H9 H 0.36826 0.45396 0.9974 0.0
H10 H 0.32771 0.48642 0.11859 0.0
O11 O 0.34801 0.47654 0.13473 0.0
H12 H 0.36941 0.54836 0.10251 0.0
H13 H 0.39436 0.5251 0.17077 0.0
H14 H 0.39845 0.49871 0.10261 0.0
H15 H 0.37869 0.52628 0.10074 0.0
H16 H 0.368 0.50712 0.1489 0.0
O17 O 0.32097 0.46764 0.05209 0.0
H18 H 0.36779 0.46603 0.03305 0.0
H19 H 0.31227 0.43962 0.03168 0.0
H20 H 0.42516 0.51672 0.12389 0.0
H21 H 0.3179 0.50811 0.12074 0.0
H22 H 0.42321 0.53006 0.15824 0.0
H23 H 0.33882 0.53932 0.11261 0.0
O24 O 0.36835 0.46974 0.10498 0.0
H25 H 0.2844 0.42139 0.10053 0.0
H26 H 0.33592 0.42751 0.06178 0.0
H27 H 0.31405 0.39867 0.07603 0.0
H28 H 0.28804 0.39547 0.09553 0.0
H29 H 0.30668 0.45003 0.08617 0.0
H30 H 0.31214 0.42738 0.99594 0.0
H31 H 0.34029 0.43448 0.97861 0.0
O32 O 0.35885 0.45823 0.07213 0.0
C33 C 0.37181 0.49888 0.0607 0.0
C34 C 0.35591 0.45072 0.00482 0.0
C35 C 0.32441 0.43583 0.00398 0.0
N36 N 0.34002 0.45343 0.0345 0.0
C37 C 0.35556 0.45748 0.02502 0.0
C38 C 0.32457 0.44283 0.0242 0.0
C39 C 0.34021 0.43981 0.99427 0.0
C40 C 0.33692 0.50001 0.11519 0.0
N41 N 0.35376 0.50508 0.10961 0.0
C42 C 0.33128 0.51221 0.11637 0.0
C43 C 0.34301 0.52972 0.11177 0.0
C44 C 0.36018 0.5348 0.10609 0.0
C45 C 0.36535 0.52222 0.10506 0.0
C46 C 0.39538 0.51939 0.15581 0.0
C47 C 0.39751 0.50455 0.11748 0.0
C48 C 0.3805 0.50916 0.14338 0.0
N49 N 0.38171 0.50197 0.12442 0.0
C50 C 0.41267 0.5147 0.12949 0.0
C51 C 0.41157 0.52217 0.14877 0.0
C52 C 0.36776 0.4602 0.08918 0.0
C53 C 0.29566 0.42261 0.09202 0.0
C54 C 0.32467 0.42624 0.07031 0.0
C55 C 0.31231 0.40987 0.0783 0.0
C56 C 0.29772 0.40808 0.08923 0.0
N57 N 0.32254 0.44043 0.07307 0.0
C58 C 0.30828 0.43878 0.08379 0.0
Co59 Co 0.87669 0.356 0.60599 0.0
Co60 Co 0.88081 0.33682 0.55956 0.0
O61 O 0.8707 0.33545 0.58813 0.0
C62 C 0.88458 0.33549 0.6379 0.0
O63 O 0.89544 0.3347 0.62411 0.0
C64 C 0.84233 0.31602 0.55162 0.0
O65 O 0.84051 0.32706 0.56403 0.0
O66 O 0.87516 0.35503 0.55 0.0
O67 O 0.87757 0.36992 0.58027 0.0
H68 H 0.91817 0.36774 0.49539 0.0
H69 H 0.84568 0.32198 0.61708 0.0
O70 O 0.87576 0.34274 0.63262 0.0
H71 H 0.82287 0.36199 0.60389 0.0
H72 H 0.87185 0.38701 0.67145 0.0
H73 H 0.90202 0.39396 0.60226 0.0
H74 H 0.85445 0.37251 0.60107 0.0
H75 H 0.86418 0.36142 0.6484 0.0
O76 O 0.85747 0.31798 0.54838 0.0
H77 H 0.90548 0.36576 0.53136 0.0
H78 H 0.87714 0.31032 0.527 0.0
H79 H 0.91 0.41993 0.62474 0.0
H80 H 0.814 0.31095 0.62029 0.0
H81 H 0.89487 0.41654 0.65962 0.0
H82 H 0.8024 0.331 0.6136 0.0
O83 O 0.90219 0.36447 0.60286 0.0
H84 H 0.86772 0.28011 0.59412 0.0
H85 H 0.91269 0.33326 0.55758 0.0
H86 H 0.92004 0.3112 0.57005 0.0
H87 H 0.89745 0.28436 0.58842 0.0
H88 H 0.86097 0.3026 0.58155 0.0
H89 H 0.88941 0.3117 0.49091 0.0
H90 H 0.91013 0.34057 0.47491 0.0
O91 O 0.90444 0.35546 0.5698 0.0
C92 C 0.8758 0.36799 0.55993 0.0
C93 C 0.90919 0.35508 0.50221 0.0
C94 C 0.89303 0.32363 0.49969 0.0
N95 N 0.89068 0.33795 0.53132 0.0
C96 C 0.902 0.35388 0.52259 0.0
C97 C 0.8861 0.32293 0.52011 0.0
C98 C 0.90466 0.33983 0.49072 0.0
C99 C 0.84074 0.33082 0.61434 0.0
N100 N 0.85191 0.34787 0.60893 0.0
C101 C 0.82279 0.32448 0.6161 0.0
C102 C 0.81629 0.33574 0.61231 0.0
C103 C 0.82776 0.35312 0.60683 0.0
C104 C 0.84563 0.35899 0.60519 0.0
C105 C 0.87852 0.38866 0.65627 0.0
C106 C 0.89531 0.3924 0.61736 0.0
C107 C 0.87426 0.37421 0.64317 0.0
N108 N 0.88256 0.37621 0.62393 0.0
C109 C 0.89991 0.40714 0.63005 0.0
C110 C 0.89143 0.40523 0.64962 0.0
C111 C 0.91125 0.36423 0.58697 0.0
C112 C 0.87766 0.29172 0.58609 0.0
C113 C 0.90281 0.32166 0.56563 0.0
C114 C 0.90703 0.30918 0.57261 0.0
C115 C 0.89435 0.29413 0.58291 0.0
N116 N 0.88639 0.31918 0.56876 0.0
C117 C 0.8739 0.30447 0.57888 0.0
Co118 Co 0.52728 0.87606 0.10947 0.0
Co119 Co 0.54887 0.87896 0.06197 0.0
O120 O 0.54112 0.86949 0.09103 0.0
C121 C 0.5561 0.88462 0.14127 0.0
O122 O 0.56758 0.89628 0.12798 0.0
C123 C 0.53129 0.84027 0.05511 0.0
O124 O 0.51885 0.83841 0.06827 0.0
O125 O 0.52466 0.87298 0.0536 0.0
O126 O 0.51362 0.87677 0.0843 0.0
H127 H 0.55277 0.91473 0.99714 0.0
H128 H 0.53006 0.8449 0.12047 0.0
O129 O 0.54017 0.87523 0.13563 0.0
H130 H 0.46703 0.8228 0.11017 0.0
H131 H 0.49355 0.87285 0.17635 0.0
H132 H 0.5151 0.90178 0.10616 0.0
H133 H 0.48836 0.85423 0.10633 0.0
H134 H 0.51049 0.86442 0.15262 0.0
O135 O 0.54416 0.85546 0.05118 0.0
H136 H 0.54339 0.90284 0.03371 0.0
H137 H 0.57072 0.87478 0.02843 0.0
H138 H 0.49807 0.9105 0.12931 0.0
H139 H 0.50915 0.81337 0.12472 0.0
H140 H 0.48717 0.896 0.1647 0.0
H141 H 0.47739 0.80213 0.11947 0.0
O142 O 0.54448 0.90145 0.10547 0.0
H143 H 0.59382 0.86692 0.09465 0.0
H144 H 0.58413 0.91088 0.05795 0.0
H145 H 0.61399 0.91863 0.06893 0.0
H146 H 0.619 0.89654 0.08737 0.0
H147 H 0.56414 0.85978 0.08354 0.0
H148 H 0.58028 0.88625 0.99173 0.0
H149 H 0.57135 0.90643 0.97589 0.0
O150 O 0.55408 0.90278 0.07167 0.0
C151 C 0.51289 0.87424 0.06405 0.0
C152 C 0.55679 0.90598 0.00389 0.0
C153 C 0.57221 0.88998 1.00084 0.0
N154 N 0.55659 0.88822 0.03324 0.0
C155 C 0.55155 0.89925 0.0246 0.0
C156 C 0.56672 0.8835 0.02161 0.0
C157 C 0.5672 0.90131 0.99196 0.0
C158 C 0.51624 0.84012 0.11836 0.0
N159 N 0.51044 0.8514 0.11317 0.0
C160 C 0.50447 0.82225 0.1207 0.0
C161 C 0.48666 0.81595 0.11772 0.0
C162 C 0.48084 0.82753 0.11248 0.0
C163 C 0.49299 0.84532 0.11024 0.0
C164 C 0.4982 0.87925 0.16096 0.0
C165 C 0.51032 0.89534 0.12148 0.0
C166 C 0.50784 0.87456 0.14747 0.0
N167 N 0.5137 0.88252 0.12795 0.0
C168 C 0.50072 0.90036 0.13455 0.0
C169 C 0.49462 0.89223 0.15441 0.0
C170 C 0.553 0.91007 0.08892 0.0
C171 C 0.59182 0.87664 0.08658 0.0
C172 C 0.58619 0.90122 0.06605 0.0
C173 C 0.60314 0.90567 0.07218 0.0
C174 C 0.60593 0.89327 0.08251 0.0
N175 N 0.57242 0.88487 0.07003 0.0
C176 C 0.57505 0.87266 0.0802 0.0
Co177 Co 0.65385 0.52332 0.6032 0.0
Co178 Co 0.67421 0.54592 0.55719 0.0
O179 O 0.67496 0.53712 0.58591 0.0
C180 C 0.67502 0.55041 0.63629 0.0
O181 O 0.67638 0.56271 0.62321 0.0
C182 C 0.69532 0.5284 0.55033 0.0
O183 O 0.68413 0.51547 0.56248 0.0
O184 O 0.65637 0.52195 0.54754 0.0
O185 O 0.63961 0.51148 0.57703 0.0
H186 H 0.64453 0.55208 0.49152 0.0
H187 H 0.6863 0.52314 0.6148 0.0
O188 O 0.66728 0.53449 0.6302 0.0
H189 H 0.64286 0.46163 0.59902 0.0
H190 H 0.62045 0.48743 0.66749 0.0
H191 H 0.61661 0.51375 0.5992 0.0
H192 H 0.6348 0.4846 0.59669 0.0
H193 H 0.64664 0.50425 0.64497 0.0
O194 O 0.69335 0.54155 0.54693 0.0
H195 H 0.64582 0.54142 0.52779 0.0
H196 H 0.70133 0.56883 0.5253 0.0
H197 H 0.59006 0.4969 0.62114 0.0
H198 H 0.69486 0.50054 0.61759 0.0
H199 H 0.59188 0.4836 0.65556 0.0
H200 H 0.67307 0.46955 0.60959 0.0
O201 O 0.64735 0.54179 0.60041 0.0
H202 H 0.72998 0.58973 0.59344 0.0
H203 H 0.6777 0.58132 0.55439 0.0
H204 H 0.69938 0.61078 0.56718 0.0
H205 H 0.72578 0.61514 0.58683 0.0
H206 H 0.70787 0.56045 0.5805 0.0
H207 H 0.70064 0.57965 0.48893 0.0
H208 H 0.67208 0.57134 0.47184 0.0
O209 O 0.65523 0.55088 0.56641 0.0
C210 C 0.6424 0.51078 0.55703 0.0
C211 C 0.65705 0.55583 0.49882 0.0
C212 C 0.68854 0.57129 0.49735 0.0
N213 N 0.67363 0.55459 0.5287 0.0
C214 C 0.65786 0.54987 0.51937 0.0
C215 C 0.68885 0.56508 0.51793 0.0
C216 C 0.67252 0.56662 0.48778 0.0
C217 C 0.6767 0.50965 0.61151 0.0
N218 N 0.66007 0.5052 0.60565 0.0
C219 C 0.68164 0.49693 0.61303 0.0
C220 C 0.66942 0.47954 0.6085 0.0
C221 C 0.65247 0.4751 0.60255 0.0
C222 C 0.648 0.48817 0.60118 0.0
C223 C 0.61948 0.49312 0.6525 0.0
C224 C 0.61749 0.5079 0.61408 0.0
C225 C 0.63427 0.50269 0.63969 0.0
N226 N 0.63313 0.50984 0.62068 0.0
C227 C 0.60242 0.49841 0.62647 0.0
C228 C 0.60345 0.49097 0.64579 0.0
C229 C 0.64723 0.55025 0.58383 0.0
C230 C 0.71856 0.58801 0.58486 0.0
C231 C 0.68911 0.58309 0.56299 0.0
C232 C 0.70137 0.59982 0.57015 0.0
C233 C 0.71618 0.60225 0.58116 0.0
N234 N 0.69156 0.56919 0.56662 0.0
C235 C 0.70603 0.57147 0.57744 0.0
Co236 Co 0.13295 0.64917 0.10533 0.0
Co237 Co 0.13111 0.67097 0.06055 0.0
O238 O 0.14061 0.67066 0.08886 0.0
C239 C 0.12832 0.67114 0.13812 0.0
O240 O 0.11856 0.6737 0.12431 0.0
C241 C 0.16948 0.69017 0.05173 0.0
O242 O 0.1702 0.67689 0.06011 0.0
O243 O 0.13632 0.65277 0.04967 0.0
O244 O 0.13035 0.63545 0.07861 0.0
H245 H 0.09467 0.64408 0.99439 0.0
H246 H 0.16596 0.6812 0.11704 0.0
O247 O 0.13541 0.66219 0.13274 0.0
H248 H 0.18292 0.63719 0.09955 0.0
H249 H 0.13478 0.61412 0.16817 0.0
H250 H 0.10493 0.61218 0.10028 0.0
H251 H 0.15201 0.62963 0.09788 0.0
H252 H 0.14452 0.64085 0.14657 0.0
O253 O 0.15494 0.68996 0.05097 0.0
H254 H 0.10649 0.64384 0.03029 0.0
H255 H 0.13635 0.69935 0.03016 0.0
H256 H 0.09485 0.58511 0.12128 0.0
H257 H 0.19702 0.68928 0.1191 0.0
H258 H 0.10982 0.58598 0.1555 0.0
H259 H 0.20567 0.6672 0.11026 0.0
O260 O 0.1081 0.64313 0.10282 0.0
H261 H 0.14494 0.72628 0.09959 0.0
H262 H 0.09989 0.67569 0.0591 0.0
H263 H 0.09305 0.69763 0.07343 0.0
H264 H 0.11568 0.72318 0.09381 0.0
H265 H 0.15118 0.70393 0.08512 0.0
H266 H 0.12497 0.70018 0.99419 0.0
H267 H 0.10391 0.6724 0.9761 0.0
O268 O 0.10694 0.65224 0.06945 0.0
C269 C 0.13355 0.6386 0.0586 0.0
C270 C 0.1038 0.65627 1.00213 0.0
C271 C 0.12082 0.68776 1.002 0.0
N272 N 0.12199 0.67156 0.03236 0.0
C273 C 0.1105 0.65622 0.02247 0.0
C274 C 0.12726 0.6872 0.02235 0.0
C275 C 0.109 0.67217 0.99187 0.0
C276 C 0.16962 0.67148 0.11336 0.0
N277 N 0.15719 0.65495 0.10746 0.0
C278 C 0.18723 0.67615 0.11447 0.0
C279 C 0.19207 0.66376 0.10948 0.0
C280 C 0.17932 0.64693 0.10346 0.0
C281 C 0.16184 0.64273 0.1025 0.0
C282 C 0.12818 0.61356 0.15326 0.0
C283 C 0.11159 0.61264 0.11507 0.0
C284 C 0.13362 0.62867 0.14098 0.0
N285 N 0.1254 0.62804 0.12208 0.0
C286 C 0.10578 0.59728 0.12693 0.0
C287 C 0.11418 0.59778 0.14614 0.0
C288 C 0.09955 0.64372 0.0866 0.0
C289 C 0.13499 0.71523 0.0907 0.0
C290 C 0.10979 0.68673 0.06801 0.0
C291 C 0.10585 0.69914 0.07605 0.0
C292 C 0.11856 0.71347 0.08747 0.0
N293 N 0.12595 0.68857 0.07121 0.0
C294 C 0.13846 0.70257 0.08241 0.0
Co295 Co 0.48795 0.13348 0.60715 0.0
Co296 Co 0.46481 0.13087 0.56129 0.0
O297 O 0.47374 0.14028 0.58999 0.0
C298 C 0.46019 0.12565 0.64017 0.0
O299 O 0.44822 0.11432 0.62706 0.0
C300 C 0.48362 0.16928 0.55274 0.0
O301 O 0.49752 0.17028 0.56183 0.0
O302 O 0.48855 0.13637 0.55126 0.0
O303 O 0.50056 0.13252 0.58106 0.0
H304 H 0.45753 0.0949 0.49531 0.0
H305 H 0.48605 0.16502 0.61886 0.0
O306 O 0.47607 0.13457 0.63413 0.0
H307 H 0.54854 0.18618 0.60541 0.0
H308 H 0.52369 0.13629 0.6718 0.0
H309 H 0.49955 0.10741 0.60216 0.0
H310 H 0.52677 0.15481 0.60227 0.0
H311 H 0.5062 0.14499 0.64951 0.0
O312 O 0.46949 0.15458 0.55152 0.0
H313 H 0.46853 0.10664 0.53157 0.0
H314 H 0.44214 0.13577 0.52974 0.0
H315 H 0.5171 0.09841 0.62386 0.0
H316 H 0.50742 0.19651 0.62237 0.0
H317 H 0.5293 0.11289 0.65896 0.0
H318 H 0.53891 0.20727 0.61556 0.0
O319 O 0.47037 0.10816 0.60348 0.0
H320 H 0.42177 0.14371 0.59803 0.0
H321 H 0.42918 0.09931 0.5587 0.0
H322 H 0.3999 0.09198 0.5717 0.0
H323 H 0.39605 0.11428 0.59148 0.0
H324 H 0.45085 0.15045 0.5849 0.0
H325 H 0.43096 0.12445 0.49338 0.0
H326 H 0.4386 0.10381 0.47597 0.0
O327 O 0.45962 0.10693 0.57034 0.0
C328 C 0.50058 0.13498 0.56085 0.0
C329 C 0.45407 0.10385 0.50275 0.0
C330 C 0.43918 0.12045 0.50166 0.0
N331 N 0.45588 0.12178 0.53282 0.0
C332 C 0.46022 0.1105 0.5233 0.0
C333 C 0.44558 0.12685 0.52223 0.0
C334 C 0.44346 0.10887 0.4919 0.0
C335 C 0.49976 0.16959 0.61603 0.0
N336 N 0.50516 0.15808 0.61043 0.0
C337 C 0.51178 0.18744 0.61798 0.0
C338 C 0.52944 0.19347 0.61413 0.0
C339 C 0.53486 0.18165 0.60842 0.0
C340 C 0.52246 0.1639 0.60661 0.0
C341 C 0.51847 0.1299 0.65652 0.0
C342 C 0.5049 0.11384 0.61735 0.0
C343 C 0.50852 0.13475 0.64384 0.0
N344 N 0.50195 0.12679 0.62447 0.0
C345 C 0.51479 0.10866 0.6296 0.0
C346 C 0.52162 0.11678 0.6493 0.0
C347 C 0.46126 0.0996 0.5872 0.0
C348 C 0.42327 0.1339 0.58939 0.0
C349 C 0.42763 0.10907 0.56737 0.0
C350 C 0.41101 0.10485 0.57465 0.0
C351 C 0.40885 0.11737 0.58573 0.0
N352 N 0.4417 0.12532 0.57097 0.0
C353 C 0.4397 0.13765 0.58187 0.0
Co354 Co 0.52524 0.65277 0.89753 0.0
Co355 Co 0.5482 0.67145 0.94431 0.0
O356 O 0.53976 0.67314 0.91569 0.0
C357 C 0.5538 0.67315 0.86565 0.0
O358 O 0.56535 0.6733 0.87912 0.0
C359 C 0.53082 0.69255 0.95229 0.0
O360 O 0.51799 0.6817 0.93974 0.0
O361 O 0.52419 0.65333 0.95352 0.0
O362 O 0.51196 0.63867 0.92303 0.0
H363 H 0.55371 0.63978 0.00831 0.0
H364 H 0.52857 0.68701 0.88687 0.0
O365 O 0.5378 0.66627 0.87111 0.0
H366 H 0.46558 0.64717 0.89916 0.0
H367 H 0.48979 0.6225 0.83154 0.0
H368 H 0.51234 0.61473 0.9008 0.0
H369 H 0.48648 0.63644 0.90199 0.0
H370 H 0.50767 0.64785 0.85496 0.0
O371 O 0.54386 0.69037 0.9556 0.0
H372 H 0.54338 0.64217 0.97227 0.0
H373 H 0.57094 0.69759 0.97726 0.0
H374 H 0.49437 0.589 0.87796 0.0
H375 H 0.5081 0.69826 0.88364 0.0
H376 H 0.48296 0.5928 0.84305 0.0
H377 H 0.47636 0.67829 0.88988 0.0
O378 O 0.54212 0.64411 0.90071 0.0
H379 H 0.59248 0.72824 0.91054 0.0
H380 H 0.58346 0.67462 0.94665 0.0
H381 H 0.61306 0.69657 0.93462 0.0
H382 H 0.61772 0.72364 0.91646 0.0
H383 H 0.56306 0.70586 0.92268 0.0
H384 H 0.58145 0.69579 0.01344 0.0
H385 H 0.57289 0.66673 0.02915 0.0
O386 O 0.55303 0.65272 0.93399 0.0
C387 C 0.51193 0.64046 0.94338 0.0
C388 C 0.55757 0.65252 1.00162 0.0
C389 C 0.57312 0.68396 0.0045 0.0
N390 N 0.55664 0.67 0.97262 0.0
C391 C 0.5518 0.65396 0.98119 0.0
C392 C 0.5671 0.68489 0.98403 0.0
C393 C 0.56832 0.66765 0.01331 0.0
C394 C 0.51475 0.6782 0.88941 0.0
N395 N 0.50873 0.66108 0.89459 0.0
C396 C 0.50324 0.68466 0.88765 0.0
C397 C 0.48544 0.67346 0.89118 0.0
C398 C 0.47938 0.656 0.89641 0.0
C399 C 0.49129 0.65001 0.89807 0.0
C400 C 0.49466 0.62067 0.84674 0.0
C401 C 0.50734 0.61648 0.88569 0.0
C402 C 0.50483 0.63498 0.86004 0.0
N403 N 0.51095 0.63276 0.8793 0.0
C404 C 0.49721 0.60186 0.8728 0.0
C405 C 0.49083 0.60401 0.85321 0.0
C406 C 0.55117 0.64408 0.91673 0.0
C407 C 0.59062 0.71652 0.91848 0.0
C408 C 0.58537 0.68632 0.93869 0.0
C409 C 0.60217 0.69873 0.93196 0.0
C410 C 0.60478 0.71392 0.92179 0.0
N411 N 0.57156 0.689 0.93545 0.0
C412 C 0.57401 0.70383 0.92545 0.0
Co413 Co 0.87818 0.52254 0.39706 0.0
Co414 Co 0.88237 0.54609 0.44328 0.0
O415 O 0.87227 0.53725 0.41474 0.0
C416 C 0.88604 0.5509 0.36512 0.0
O417 O 0.89685 0.56256 0.37894 0.0
C418 C 0.84391 0.52861 0.45098 0.0
O419 O 0.84207 0.51572 0.43863 0.0
O420 O 0.87659 0.52224 0.45302 0.0
O421 O 0.87898 0.50956 0.42292 0.0
H422 H 0.91958 0.55259 0.50767 0.0
H423 H 0.84727 0.52566 0.38572 0.0
O424 O 0.87732 0.53481 0.37034 0.0
H425 H 0.82419 0.46285 0.39939 0.0
H426 H 0.8732 0.48635 0.33189 0.0
H427 H 0.90337 0.50975 0.40107 0.0
H428 H 0.8558 0.48383 0.40222 0.0
H429 H 0.86564 0.50447 0.35473 0.0
O430 O 0.85907 0.54174 0.45432 0.0
H431 H 0.90691 0.54177 0.4717 0.0
H432 H 0.8788 0.56913 0.4756 0.0
H433 H 0.91123 0.49156 0.37881 0.0
H434 H 0.81557 0.5051 0.38248 0.0
H435 H 0.8961 0.47973 0.34394 0.0
H436 H 0.80384 0.47346 0.38942 0.0
O437 O 0.9037 0.5395 0.4002 0.0
H438 H 0.86961 0.58974 0.40817 0.0
H439 H 0.91435 0.58146 0.44518 0.0
H440 H 0.92186 0.61086 0.43249 0.0
H441 H 0.89938 0.61515 0.41388 0.0
H442 H 0.86271 0.56052 0.42098 0.0
H443 H 0.89105 0.58013 0.51167 0.0
H444 H 0.91165 0.57192 0.5279 0.0
O445 O 0.90597 0.55091 0.43317 0.0
C446 C 0.87716 0.50982 0.44324 0.0
C447 C 0.91066 0.55631 0.50074 0.0
C448 C 0.89463 0.57174 0.503 0.0
N449 N 0.89223 0.55492 0.47151 0.0
C450 C 0.90348 0.55026 0.48036 0.0
C451 C 0.8877 0.56544 0.48259 0.0
C452 C 0.90619 0.56713 0.5121 0.0
C453 C 0.84228 0.51188 0.38856 0.0
N454 N 0.85338 0.50595 0.39412 0.0
C455 C 0.82431 0.50032 0.38679 0.0
C456 C 0.81773 0.48257 0.39072 0.0
C457 C 0.82914 0.47661 0.39634 0.0
C458 C 0.84703 0.48856 0.39799 0.0
C459 C 0.87987 0.49141 0.34707 0.0
C460 C 0.89666 0.50457 0.38597 0.0
C461 C 0.87567 0.50171 0.36005 0.0
N462 N 0.88398 0.50806 0.37929 0.0
C463 C 0.9012 0.49431 0.37341 0.0
C464 C 0.89271 0.48769 0.35384 0.0
C465 C 0.91276 0.54882 0.41607 0.0
C466 C 0.8795 0.58805 0.41631 0.0
C467 C 0.90452 0.5832 0.43703 0.0
C468 C 0.90883 0.59989 0.42992 0.0
C469 C 0.89621 0.60229 0.41949 0.0
N470 N 0.88808 0.5693 0.4339 0.0
C471 C 0.87565 0.57154 0.42365 0.0
Co472 Co 0.36093 0.87475 0.90211 0.0
Co473 Co 0.33872 0.87696 0.94649 0.0
O474 O 0.33927 0.8674 0.91816 0.0
C475 C 0.33873 0.87881 0.86878 0.0
O476 O 0.3334 0.88607 0.8831 0.0
C477 C 0.31935 0.83856 0.95546 0.0
O478 O 0.33264 0.83769 0.94735 0.0
O479 O 0.35696 0.87197 0.95798 0.0
O480 O 0.37386 0.87644 0.92908 0.0
H481 H 0.36499 0.91361 0.01268 0.0
H482 H 0.32852 0.8425 0.88959 0.0
O483 O 0.34894 0.87319 0.87421 0.0
H484 H 0.37083 0.82336 0.90721 0.0
H485 H 0.39695 0.87254 0.84059 0.0
H486 H 0.39799 0.90209 0.90841 0.0
H487 H 0.37937 0.85452 0.90938 0.0
H488 H 0.36983 0.86311 0.86126 0.0
O489 O 0.3197 0.85317 0.95606 0.0
H490 H 0.36556 0.90171 0.97695 0.0
H491 H 0.31006 0.87178 0.97637 0.0
H492 H 0.42545 0.91184 0.88835 0.0
H493 H 0.31945 0.8112 0.887 0.0
H494 H 0.42503 0.89703 0.85417 0.0
H495 H 0.34067 0.80145 0.89591 0.0
O496 O 0.36752 0.89982 0.90485 0.0
H497 H 0.2835 0.86268 0.90696 0.0
H498 H 0.33396 0.90816 0.9472 0.0
H499 H 0.31202 0.91482 0.93246 0.0
H500 H 0.28654 0.89198 0.91221 0.0
H501 H 0.30585 0.85663 0.92181 0.0
H502 H 0.30889 0.88325 0.01217 0.0
H503 H 0.3365 0.90438 0.03053 0.0
O504 O 0.35744 0.90103 0.93762 0.0
C505 C 0.37088 0.87389 0.94918 0.0
C506 C 0.35287 0.90445 0.00482 0.0
C507 C 0.32139 0.88739 0.00454 0.0
N508 N 0.33786 0.88616 0.97453 0.0
C509 C 0.35311 0.8977 0.98457 0.0
C510 C 0.32213 0.88091 0.9843 0.0
C511 C 0.33688 0.89925 0.01483 0.0
C512 C 0.33786 0.83836 0.89333 0.0
N513 N 0.35446 0.85033 0.89957 0.0
C514 C 0.33263 0.82062 0.8919 0.0
C515 C 0.34454 0.81516 0.89693 0.0
C516 C 0.36146 0.82744 0.90328 0.0
C517 C 0.36621 0.84507 0.90455 0.0
C518 C 0.3973 0.87909 0.85547 0.0
C519 C 0.39772 0.89553 0.8936 0.0
C520 C 0.38198 0.87384 0.86721 0.0
N521 N 0.38234 0.882 0.88607 0.0
C522 C 0.4133 0.90113 0.88229 0.0
C523 C 0.41305 0.89282 0.8631 0.0
C524 C 0.36649 0.90838 0.9208 0.0
C525 C 0.29452 0.87273 0.9158 0.0
C526 C 0.32296 0.89817 0.93833 0.0
C527 C 0.31054 0.90201 0.93007 0.0
C528 C 0.29624 0.88918 0.91872 0.0
N529 N 0.32116 0.882 0.93542 0.0
C530 C 0.30718 0.86936 0.92431 0.0
Co531 Co 0.48681 0.35814 0.39952 0.0
Co532 Co 0.46341 0.33586 0.44421 0.0
O533 O 0.47315 0.33646 0.41574 0.0
C534 C 0.4602 0.33649 0.36651 0.0
O535 O 0.44788 0.33367 0.38045 0.0
C536 C 0.48266 0.31665 0.45281 0.0
O537 O 0.49675 0.33001 0.44472 0.0
O538 O 0.48685 0.35401 0.45509 0.0
O539 O 0.49795 0.37163 0.42637 0.0
H540 H 0.45411 0.36215 0.51113 0.0
H541 H 0.488 0.32635 0.38709 0.0
O542 O 0.47625 0.34538 0.37193 0.0
H543 H 0.54892 0.3705 0.40455 0.0
H544 H 0.52337 0.39396 0.33691 0.0
H545 H 0.49553 0.395 0.40527 0.0
H546 H 0.52543 0.37783 0.40678 0.0
H547 H 0.50659 0.36699 0.35816 0.0
O548 O 0.46831 0.31683 0.45336 0.0
H549 H 0.46601 0.36271 0.47503 0.0
H550 H 0.44041 0.3072 0.47438 0.0
H551 H 0.5123 0.42229 0.38461 0.0
H552 H 0.51113 0.3185 0.38447 0.0
H553 H 0.52637 0.42188 0.35016 0.0
H554 H 0.54183 0.34065 0.39329 0.0
O555 O 0.46788 0.36398 0.40245 0.0
H556 H 0.4219 0.28086 0.40468 0.0
H557 H 0.42745 0.33103 0.44618 0.0
H558 H 0.39863 0.30915 0.43186 0.0
H559 H 0.39571 0.28382 0.41098 0.0
H560 H 0.45052 0.30314 0.41914 0.0
H561 H 0.42837 0.30605 0.51055 0.0
H562 H 0.43514 0.33366 0.52913 0.0
O563 O 0.45789 0.35461 0.43584 0.0
C564 C 0.49813 0.3683 0.44629 0.0
C565 C 0.45102 0.35003 0.50318 0.0
C566 C 0.43659 0.31854 0.50286 0.0
N567 N 0.45381 0.33501 0.47255 0.0
C568 C 0.45768 0.35026 0.48271 0.0
C569 C 0.44349 0.31928 0.4824 0.0
C570 C 0.44039 0.33404 0.51327 0.0
C571 C 0.50136 0.3361 0.39078 0.0
N572 N 0.50537 0.35254 0.39697 0.0
C573 C 0.51439 0.33156 0.38934 0.0
C574 C 0.53161 0.34399 0.39431 0.0
C575 C 0.53559 0.36074 0.40064 0.0
C576 C 0.52222 0.3648 0.40192 0.0
C577 C 0.51734 0.39431 0.35192 0.0
C578 C 0.50171 0.39473 0.39037 0.0
C579 C 0.5078 0.37908 0.364 0.0
N580 N 0.50022 0.37945 0.38304 0.0
C581 C 0.51115 0.41022 0.37871 0.0
C582 C 0.51902 0.40998 0.35937 0.0
C583 C 0.45882 0.36321 0.41885 0.0
C584 C 0.42299 0.29182 0.41379 0.0
C585 C 0.4263 0.32008 0.43704 0.0
C586 C 0.40994 0.30771 0.42902 0.0
C587 C 0.40831 0.29349 0.41731 0.0
N588 N 0.44064 0.31832 0.43356 0.0
C589 C 0.43915 0.30444 0.42208 0.0
Co590 Co 0.13523 0.4857 0.89992 0.0
Co591 Co 0.13318 0.46197 0.94473 0.0
O592 O 0.14279 0.47181 0.91645 0.0
C593 C 0.13052 0.45906 0.86715 0.0
O594 O 0.12096 0.44678 0.8811 0.0
C595 C 0.17154 0.48103 0.95388 0.0
O596 O 0.17237 0.49509 0.94554 0.0
O597 O 0.13841 0.4854 0.95564 0.0
O598 O 0.1326 0.4968 0.92662 0.0
H599 H 0.09656 0.45246 0.01068 0.0
H600 H 0.16818 0.48655 0.88831 0.0
O601 O 0.13765 0.47512 0.87249 0.0
H602 H 0.18534 0.54755 0.90588 0.0
H603 H 0.13734 0.52271 0.83709 0.0
H604 H 0.10725 0.49474 0.90483 0.0
H605 H 0.15439 0.52428 0.90746 0.0
H606 H 0.14695 0.50564 0.85874 0.0
O607 O 0.15696 0.46672 0.95448 0.0
H608 H 0.10851 0.46453 0.97484 0.0
H609 H 0.13824 0.43875 0.97518 0.0
H610 H 0.0973 0.51182 0.88377 0.0
H611 H 0.19928 0.50945 0.88635 0.0
H612 H 0.11238 0.52595 0.84963 0.0
H613 H 0.20802 0.5402 0.89523 0.0
O614 O 0.11034 0.46694 0.90233 0.0
H615 H 0.14701 0.42043 0.90587 0.0
H616 H 0.1019 0.42609 0.946 0.0
H617 H 0.09503 0.39729 0.93167 0.0
H618 H 0.11769 0.39431 0.91148 0.0
H619 H 0.15328 0.44903 0.92033 0.0
H620 H 0.12673 0.42652 0.0111 0.0
H621 H 0.10567 0.43331 0.02905 0.0
O622 O 0.10907 0.45663 0.9357 0.0
C623 C 0.13565 0.49679 0.94667 0.0
C624 C 0.10569 0.44937 0.003 0.0
C625 C 0.12264 0.43483 0.00325 0.0
N626 N 0.12396 0.45225 0.97288 0.0
C627 C 0.11246 0.45613 0.98269 0.0
C628 C 0.12915 0.44183 0.98293 0.0
C629 C 0.11082 0.43864 0.01331 0.0
C630 C 0.17188 0.49993 0.89201 0.0
N631 N 0.15949 0.50409 0.89788 0.0
C632 C 0.18951 0.51283 0.89095 0.0
C633 C 0.19441 0.53007 0.89596 0.0
C634 C 0.18169 0.53421 0.90195 0.0
C635 C 0.16419 0.52096 0.90286 0.0
C636 C 0.13069 0.51666 0.85197 0.0
C637 C 0.11396 0.50096 0.89007 0.0
C638 C 0.13606 0.50695 0.86428 0.0
N639 N 0.12777 0.49934 0.88314 0.0
C640 C 0.10823 0.51056 0.87818 0.0
C641 C 0.11669 0.51847 0.85902 0.0
C642 C 0.10174 0.45782 0.91852 0.0
C643 C 0.13704 0.42155 0.91469 0.0
C644 C 0.11181 0.42492 0.93717 0.0
C645 C 0.10785 0.40856 0.92914 0.0
C646 C 0.12058 0.4069 0.91782 0.0
N647 N 0.128 0.43921 0.93407 0.0
C648 C 0.14053 0.43769 0.92297 0.0
Co649 Co 0.65224 0.13208 0.39836 0.0
Co650 Co 0.67278 0.12944 0.4447 0.0
O651 O 0.67339 0.13862 0.41555 0.0
C652 C 0.67784 0.13115 0.36617 0.0
O653 O 0.68966 0.13409 0.38088 0.0
C654 C 0.69389 0.16828 0.45078 0.0
O655 O 0.68317 0.17 0.43771 0.0
O656 O 0.65465 0.13517 0.45441 0.0
O657 O 0.63967 0.13309 0.42441 0.0
H658 H 0.64343 0.09391 0.51067 0.0
H659 H 0.6864 0.16251 0.38537 0.0
O660 O 0.66352 0.13048 0.37107 0.0
H661 H 0.64694 0.18629 0.39596 0.0
H662 H 0.61867 0.13381 0.33372 0.0
H663 H 0.61441 0.10764 0.40515 0.0
H664 H 0.6363 0.15489 0.40133 0.0
H665 H 0.64518 0.14235 0.3553 0.0
O666 O 0.69163 0.15313 0.45489 0.0
H667 H 0.64454 0.1055 0.47423 0.0
H668 H 0.70005 0.13425 0.47673 0.0
H669 H 0.58754 0.09886 0.38418 0.0
H670 H 0.69752 0.19392 0.37955 0.0
H671 H 0.58958 0.11198 0.34819 0.0
H672 H 0.67776 0.20604 0.38491 0.0
O673 O 0.64359 0.10676 0.40325 0.0
H674 H 0.72975 0.14257 0.41082 0.0
H675 H 0.67648 0.09765 0.44719 0.0
H676 H 0.69873 0.09038 0.43531 0.0
H677 H 0.72564 0.11295 0.41704 0.0
H678 H 0.70702 0.1492 0.42269 0.0
H679 H 0.69953 0.12307 0.51326 0.0
H680 H 0.67107 0.1027 0.53043 0.0
O681 O 0.6541 0.10545 0.43567 0.0
C682 C 0.64186 0.13501 0.44467 0.0
C683 C 0.65592 0.10274 0.50333 0.0
C684 C 0.6874 0.11912 0.5048 0.0
N685 N 0.67234 0.12044 0.47331 0.0
C686 C 0.65663 0.10931 0.48269 0.0
C687 C 0.68761 0.12544 0.48413 0.0
C688 C 0.67143 0.10769 0.51442 0.0
C689 C 0.67763 0.16757 0.38741 0.0
N690 N 0.66065 0.15677 0.39343 0.0
C691 C 0.68404 0.18543 0.38423 0.0
C692 C 0.67296 0.19223 0.38729 0.0
C693 C 0.65568 0.18116 0.39351 0.0
C694 C 0.64973 0.16338 0.39657 0.0
C695 C 0.61761 0.12804 0.34941 0.0
C696 C 0.61539 0.11349 0.38956 0.0
C697 C 0.63258 0.13279 0.36169 0.0
N698 N 0.63133 0.1256 0.38156 0.0
C699 C 0.60014 0.10844 0.37774 0.0
C700 C 0.60129 0.11579 0.35753 0.0
C701 C 0.64456 0.09817 0.41917 0.0
C702 C 0.71809 0.13263 0.41879 0.0
C703 C 0.68806 0.10749 0.43907 0.0
C704 C 0.70066 0.10332 0.43247 0.0
C705 C 0.71576 0.116 0.42225 0.0
N706 N 0.69043 0.12384 0.4356 0.0
C707 C 0.70521 0.13633 0.42562 0.0
Co708 Co 0.65314 0.52266 0.89821 0.0
Co709 Co 0.67316 0.54643 0.94392 0.0
O710 O 0.67394 0.53717 0.91556 0.0
C711 C 0.67339 0.5502 0.86518 0.0
O712 O 0.67392 0.56223 0.87812 0.0
C713 C 0.69276 0.52777 0.95343 0.0
O714 O 0.67992 0.51381 0.94434 0.0
O715 O 0.65485 0.5228 0.95418 0.0
O716 O 0.63935 0.51027 0.92429 0.0
H717 H 0.64384 0.55446 0.00871 0.0
H718 H 0.68679 0.52469 0.88748 0.0
O719 O 0.66634 0.53434 0.87129 0.0
H720 H 0.64566 0.46227 0.90165 0.0
H721 H 0.62105 0.4862 0.8336 0.0
H722 H 0.61536 0.51082 0.90239 0.0
H723 H 0.63583 0.48391 0.90379 0.0
H724 H 0.64696 0.50404 0.8562 0.0
O725 O 0.69215 0.54189 0.95441 0.0
H726 H 0.64492 0.54303 0.97285 0.0
H727 H 0.70041 0.56949 0.97557 0.0
H728 H 0.58908 0.49291 0.88039 0.0
H729 H 0.69715 0.50345 0.88497 0.0
H730 H 0.59183 0.48047 0.84571 0.0
H731 H 0.67652 0.47199 0.89214 0.0
O732 O 0.64521 0.54015 0.90106 0.0
H733 H 0.72937 0.58914 0.90757 0.0
H734 H 0.67709 0.58203 0.94538 0.0
H735 H 0.69911 0.61118 0.93211 0.0
H736 H 0.72551 0.61488 0.91309 0.0
H737 H 0.70694 0.56019 0.92095 0.0
H738 H 0.69993 0.58109 0.01153 0.0
H739 H 0.67149 0.57364 0.0283 0.0
O740 O 0.65444 0.55146 0.93407 0.0
C741 C 0.64157 0.51057 0.94458 0.0
C742 C 0.65632 0.55784 1.00155 0.0
C743 C 0.68779 0.57277 0.00314 0.0
N744 N 0.67271 0.55569 0.97207 0.0
C745 C 0.65701 0.55145 0.98123 0.0
C746 C 0.68799 0.56613 0.9828 0.0
C747 C 0.67183 0.56859 0.01254 0.0
C748 C 0.67771 0.511 0.89046 0.0
N749 N 0.66072 0.50554 0.89571 0.0
C750 C 0.68366 0.49904 0.88908 0.0
C751 C 0.67208 0.4814 0.89314 0.0
C752 C 0.65477 0.47594 0.89848 0.0
C753 C 0.64929 0.48826 0.89973 0.0
C754 C 0.61967 0.49152 0.8487 0.0
C755 C 0.61665 0.50536 0.88739 0.0
C756 C 0.63431 0.50167 0.86154 0.0
N757 N 0.63266 0.50837 0.88068 0.0
C758 C 0.60173 0.49527 0.87497 0.0
C759 C 0.60329 0.48831 0.8555 0.0
C760 C 0.64559 0.54951 0.91696 0.0
C761 C 0.71794 0.5877 0.91587 0.0
C762 C 0.6885 0.58352 0.93705 0.0
C763 C 0.70095 0.60006 0.92961 0.0
C764 C 0.71576 0.60214 0.91896 0.0
N765 N 0.69077 0.56943 0.93402 0.0
C766 C 0.70523 0.57135 0.92354 0.0
Co767 Co 0.13601 0.65074 0.39724 0.0
Co768 Co 0.13231 0.67131 0.44243 0.0
O769 O 0.14239 0.67175 0.41422 0.0
C770 C 0.12952 0.6718 0.36484 0.0
O771 O 0.11939 0.67369 0.37877 0.0
C772 C 0.17055 0.69096 0.4522 0.0
O773 O 0.17172 0.678 0.44359 0.0
O774 O 0.13755 0.65307 0.45317 0.0
O775 O 0.13464 0.63725 0.42359 0.0
H776 H 0.0949 0.64278 0.5074 0.0
H777 H 0.16764 0.68423 0.38605 0.0
O778 O 0.13743 0.66361 0.37009 0.0
H779 H 0.18886 0.64319 0.40129 0.0
H780 H 0.14025 0.61781 0.33345 0.0
H781 H 0.11001 0.61304 0.40199 0.0
H782 H 0.15741 0.63343 0.40337 0.0
H783 H 0.14839 0.64402 0.35551 0.0
O784 O 0.15582 0.69037 0.45282 0.0
H785 H 0.10743 0.64343 0.47169 0.0
H786 H 0.13652 0.69895 0.47347 0.0
H787 H 0.10156 0.58647 0.38053 0.0
H788 H 0.19922 0.69452 0.3836 0.0
H789 H 0.11673 0.58876 0.34598 0.0
H790 H 0.21001 0.67393 0.39131 0.0
O791 O 0.11063 0.64293 0.39994 0.0
H792 H 0.14601 0.72712 0.40485 0.0
H793 H 0.10072 0.67537 0.44332 0.0
H794 H 0.09368 0.69726 0.42932 0.0
H795 H 0.11643 0.72339 0.40997 0.0
H796 H 0.15245 0.70482 0.41896 0.0
H797 H 0.12442 0.6989 0.50927 0.0
H798 H 0.10339 0.67067 0.52643 0.0
O799 O 0.10857 0.65255 0.4327 0.0
C800 C 0.13652 0.63968 0.44386 0.0
C801 C 0.10401 0.65517 0.50006 0.0
C802 C 0.12059 0.68667 0.50113 0.0
N803 N 0.12259 0.67121 0.47045 0.0
C804 C 0.11111 0.65562 0.47983 0.0
C805 C 0.12743 0.68661 0.48088 0.0
C806 C 0.10879 0.67082 0.51074 0.0
C807 C 0.17224 0.67517 0.38927 0.0
N808 N 0.16069 0.65824 0.39478 0.0
C809 C 0.19013 0.68108 0.38792 0.0
C810 C 0.19618 0.66953 0.39228 0.0
C811 C 0.18432 0.65228 0.39789 0.0
C812 C 0.16652 0.64684 0.3991 0.0
C813 C 0.13357 0.61664 0.34849 0.0
C814 C 0.11674 0.61413 0.38704 0.0
C815 C 0.13809 0.63144 0.36103 0.0
N816 N 0.12976 0.63005 0.38009 0.0
C817 C 0.11187 0.59905 0.37493 0.0
C818 C 0.12037 0.60034 0.35554 0.0
C819 C 0.10166 0.64354 0.4157 0.0
C820 C 0.136 0.71582 0.4133 0.0
C821 C 0.11067 0.68667 0.43485 0.0
C822 C 0.10662 0.69905 0.42701 0.0
C823 C 0.11939 0.7137 0.41616 0.0
N824 N 0.127 0.68886 0.43203 0.0
C825 C 0.13959 0.70318 0.42138 0.0
Co826 Co 0.4869 0.13113 0.90237 0.0
Co827 Co 0.46413 0.12882 0.94828 0.0
O828 O 0.47299 0.13835 0.91958 0.0
C829 C 0.45982 0.12499 0.86916 0.0
O830 O 0.44754 0.11387 0.88213 0.0
C831 C 0.48168 0.16745 0.95512 0.0
O832 O 0.49471 0.1691 0.94322 0.0
O833 O 0.48808 0.13495 0.95802 0.0
O834 O 0.49875 0.12883 0.92857 0.0
H835 H 0.45781 0.09299 0.014 0.0
H836 H 0.4869 0.16367 0.89074 0.0
O837 O 0.47571 0.13332 0.87534 0.0
H838 H 0.54845 0.18203 0.90659 0.0
H839 H 0.52285 0.13371 0.83806 0.0
H840 H 0.49671 0.10364 0.90646 0.0
H841 H 0.5256 0.15096 0.90891 0.0
H842 H 0.50593 0.143 0.86057 0.0
O843 O 0.46847 0.15235 0.95846 0.0
H844 H 0.46855 0.10492 0.97774 0.0
H845 H 0.44118 0.13308 0.98008 0.0
H846 H 0.51366 0.09404 0.88454 0.0
H847 H 0.50938 0.19487 0.88799 0.0
H848 H 0.52687 0.10911 0.85006 0.0
H849 H 0.5404 0.20423 0.89602 0.0
O850 O 0.46853 0.10612 0.90517 0.0
H851 H 0.4204 0.14075 0.9118 0.0
H852 H 0.42873 0.09691 0.95104 0.0
H853 H 0.3993 0.08912 0.93814 0.0
H854 H 0.39498 0.11114 0.9184 0.0
H855 H 0.44965 0.14793 0.92483 0.0
H856 H 0.43028 0.12159 0.01643 0.0
H857 H 0.43854 0.10133 0.03359 0.0
O858 O 0.45919 0.10485 0.93908 0.0
C859 C 0.49935 0.13227 0.94858 0.0
C860 C 0.45408 0.10177 0.00667 0.0
C861 C 0.43865 0.11784 0.00805 0.0
N862 N 0.45541 0.11959 0.97676 0.0
C863 C 0.46009 0.10853 0.98613 0.0
C864 C 0.4449 0.12434 0.98748 0.0
C865 C 0.44328 0.10647 0.01766 0.0
C866 C 0.5004 0.16763 0.89405 0.0
N867 N 0.50493 0.15551 0.89992 0.0
C868 C 0.51306 0.18532 0.89255 0.0
C869 C 0.53046 0.19056 0.8971 0.0
C870 C 0.53498 0.17812 0.90305 0.0
C871 C 0.52197 0.16055 0.9044 0.0
C872 C 0.5172 0.12707 0.85308 0.0
C873 C 0.50253 0.11036 0.89156 0.0
C874 C 0.50758 0.13225 0.86589 0.0
N875 N 0.50047 0.12398 0.88492 0.0
C876 C 0.51206 0.10482 0.87918 0.0
C877 C 0.51945 0.11327 0.85983 0.0
C878 C 0.45997 0.09752 0.92168 0.0
C879 C 0.42211 0.13105 0.92042 0.0
C880 C 0.42698 0.10654 0.94239 0.0
C881 C 0.41027 0.10207 0.93517 0.0
C882 C 0.40786 0.11443 0.92411 0.0
N883 N 0.44088 0.12289 0.93876 0.0
C884 C 0.43863 0.13506 0.92789 0.0
Co885 Co 0.35964 0.4861 0.40157 0.0
Co886 Co 0.33672 0.4621 0.44558 0.0
O887 O 0.33773 0.47232 0.41731 0.0
C888 C 0.33811 0.46019 0.36786 0.0
O889 O 0.33483 0.44759 0.38157 0.0
C890 C 0.31752 0.48135 0.45426 0.0
O891 O 0.33104 0.49552 0.44657 0.0
O892 O 0.35478 0.48534 0.45708 0.0
O893 O 0.37284 0.49666 0.42877 0.0
H894 H 0.36202 0.45152 0.5125 0.0
H895 H 0.32823 0.48792 0.38898 0.0
O896 O 0.3472 0.47613 0.37365 0.0
H897 H 0.37261 0.54833 0.40824 0.0
H898 H 0.39649 0.52359 0.34012 0.0
H899 H 0.3963 0.49434 0.40779 0.0
H900 H 0.37959 0.52457 0.4099 0.0
H901 H 0.36921 0.50664 0.36076 0.0
O902 O 0.31763 0.46695 0.45462 0.0
H903 H 0.36311 0.46407 0.47668 0.0
H904 H 0.30764 0.4387 0.47501 0.0
H905 H 0.4239 0.51127 0.38776 0.0
H906 H 0.32074 0.51132 0.38691 0.0
H907 H 0.42411 0.52605 0.35366 0.0
H908 H 0.34301 0.54178 0.39664 0.0
O909 O 0.36516 0.46693 0.40405 0.0
H910 H 0.28219 0.42137 0.40471 0.0
H911 H 0.33172 0.42604 0.44677 0.0
H912 H 0.30997 0.39749 0.43165 0.0
H913 H 0.28496 0.39502 0.41048 0.0
H914 H 0.30434 0.44972 0.41996 0.0
H915 H 0.30595 0.42601 0.51089 0.0
H916 H 0.33328 0.43234 0.52984 0.0
O917 O 0.35551 0.45659 0.43726 0.0
C918 C 0.36925 0.49664 0.44864 0.0
C919 C 0.35002 0.44862 0.50438 0.0
C920 C 0.31855 0.43432 0.50349 0.0
N921 N 0.33546 0.45202 0.47371 0.0
C922 C 0.35055 0.45566 0.48407 0.0
C923 C 0.31959 0.44158 0.4832 0.0
C924 C 0.33389 0.43788 0.51411 0.0
C925 C 0.33803 0.50117 0.39306 0.0
N926 N 0.35434 0.50489 0.39945 0.0
C927 C 0.3337 0.51435 0.39193 0.0
C928 C 0.34619 0.53143 0.39742 0.0
C929 C 0.3628 0.53512 0.40394 0.0
C930 C 0.36666 0.5216 0.40489 0.0
C931 C 0.39658 0.51725 0.35499 0.0
C932 C 0.39631 0.50082 0.39304 0.0
C933 C 0.38116 0.5076 0.36672 0.0
N934 N 0.38119 0.49963 0.38556 0.0
C935 C 0.41197 0.51035 0.38174 0.0
C936 C 0.41207 0.51862 0.36259 0.0
C937 C 0.36419 0.45764 0.42029 0.0
C938 C 0.29301 0.42227 0.41394 0.0
C939 C 0.32092 0.42509 0.43751 0.0
C940 C 0.30862 0.40888 0.42904 0.0
C941 C 0.29458 0.4075 0.41717 0.0
N942 N 0.31926 0.43952 0.43431 0.0
C943 C 0.30555 0.43827 0.42268 0.0
Co944 Co 0.87871 0.35808 0.89704 0.0
Co945 Co 0.88155 0.33782 0.94299 0.0
O946 O 0.87199 0.33717 0.91436 0.0
C947 C 0.8861 0.33735 0.8649 0.0
O948 O 0.89681 0.33628 0.87868 0.0
C949 C 0.84313 0.31795 0.95186 0.0
O950 O 0.84191 0.33077 0.94291 0.0
O951 O 0.87595 0.35602 0.95294 0.0
O952 O 0.8797 0.37179 0.92308 0.0
H953 H 0.91762 0.36689 0.00877 0.0
H954 H 0.84718 0.32456 0.88561 0.0
O955 O 0.87761 0.34495 0.87018 0.0
H956 H 0.82597 0.36591 0.89876 0.0
H957 H 0.87566 0.39063 0.83215 0.0
H958 H 0.90471 0.39579 0.90176 0.0
H959 H 0.85736 0.37556 0.9018 0.0
H960 H 0.86709 0.36455 0.85462 0.0
O961 O 0.85792 0.31871 0.95292 0.0
H962 H 0.90575 0.36595 0.97253 0.0
H963 H 0.87693 0.31042 0.97466 0.0
H964 H 0.91359 0.42222 0.87988 0.0
H965 H 0.81567 0.31438 0.8822 0.0
H966 H 0.89902 0.41973 0.8448 0.0
H967 H 0.80489 0.33512 0.88886 0.0
O968 O 0.90404 0.36584 0.90056 0.0
H969 H 0.86891 0.28191 0.90642 0.0
H970 H 0.91323 0.33394 0.9455 0.0
H971 H 0.92068 0.31208 0.93249 0.0
H972 H 0.89842 0.28581 0.91283 0.0
H973 H 0.86205 0.30419 0.91955 0.0
H974 H 0.88837 0.31078 0.01099 0.0
H975 H 0.90892 0.33916 0.02824 0.0
O976 O 0.90544 0.3566 0.93379 0.0
C977 C 0.87727 0.3694 0.9433 0.0
C978 C 0.90871 0.35444 1.00139 0.0
C979 C 0.89228 0.32295 1.00265 0.0
N980 N 0.89076 0.33815 0.97144 0.0
C981 C 0.90199 0.35382 0.98086 0.0
C982 C 0.88581 0.32283 0.9821 0.0
C983 C 0.90381 0.33888 0.01232 0.0
C984 C 0.84259 0.33369 0.88837 0.0
N985 N 0.8541 0.35065 0.89384 0.0
C986 C 0.82474 0.32784 0.88649 0.0
C987 C 0.81869 0.33947 0.89025 0.0
C988 C 0.83051 0.35675 0.89582 0.0
C989 C 0.84827 0.36213 0.89758 0.0
C990 C 0.88209 0.39188 0.84742 0.0
C991 C 0.89825 0.39461 0.88657 0.0
C992 C 0.87732 0.37716 0.8602 0.0
N993 N 0.88531 0.37867 0.87956 0.0
C994 C 0.90336 0.40962 0.87422 0.0
C995 C 0.89519 0.40821 0.85453 0.0
C996 C 0.91269 0.36539 0.91679 0.0
C997 C 0.8787 0.29328 0.915 0.0
C998 C 0.90349 0.32259 0.93689 0.0
C999 C 0.90777 0.31022 0.92961 0.0
C1000 C 0.89527 0.29549 0.91859 0.0
N1001 N 0.88719 0.32031 0.93336 0.0
C1002 C 0.87488 0.30591 0.92254 0.0
Co1003 Co 0.52359 0.87478 0.39985 0.0
Co1004 Co 0.5465 0.87845 0.44645 0.0
O1005 O 0.53807 0.86868 0.41768 0.0
C1006 C 0.55238 0.88321 0.36833 0.0
O1007 O 0.56379 0.89409 0.38232 0.0
C1008 C 0.5291 0.83989 0.45361 0.0
O1009 O 0.51632 0.83805 0.44106 0.0
O1010 O 0.52249 0.87244 0.45577 0.0
O1011 O 0.51025 0.87526 0.42554 0.0
H1012 H 0.55195 0.9148 0.51137 0.0
H1013 H 0.52687 0.844 0.38821 0.0
O1014 O 0.53625 0.87423 0.37329 0.0
H1015 H 0.4639 0.82076 0.40075 0.0
H1016 H 0.48831 0.87053 0.33408 0.0
H1017 H 0.51069 0.89988 0.40393 0.0
H1018 H 0.48483 0.85233 0.40425 0.0
H1019 H 0.50614 0.86274 0.35711 0.0
O1020 O 0.54213 0.85507 0.45717 0.0
H1021 H 0.54164 0.90253 0.47512 0.0
H1022 H 0.56923 0.87465 0.47902 0.0
H1023 H 0.49279 0.90797 0.38148 0.0
H1024 H 0.50637 0.81234 0.38432 0.0
H1025 H 0.48146 0.89325 0.34628 0.0
H1026 H 0.47464 0.80052 0.39068 0.0
O1027 O 0.54047 0.90026 0.40352 0.0
H1028 H 0.59076 0.86635 0.41175 0.0
H1029 H 0.58178 0.9105 0.44921 0.0
H1030 H 0.61137 0.91829 0.43697 0.0
H1031 H 0.61601 0.89611 0.41814 0.0
H1032 H 0.56135 0.85917 0.42411 0.0
H1033 H 0.57972 0.8865 0.51538 0.0
H1034 H 0.57113 0.90678 0.53175 0.0
O1035 O 0.55135 0.90214 0.43671 0.0
C1036 C 0.51022 0.87315 0.44583 0.0
C1037 C 0.55583 0.90602 0.50439 0.0
C1038 C 0.57139 0.89011 0.50664 0.0
N1039 N 0.55493 0.88799 0.47491 0.0
C1040 C 0.55007 0.89907 0.48385 0.0
C1041 C 0.56538 0.88342 0.48607 0.0
C1042 C 0.56657 0.9015 0.51582 0.0
C1043 C 0.51306 0.83897 0.3908 0.0
N1044 N 0.50706 0.85001 0.3964 0.0
C1045 C 0.50152 0.82103 0.38866 0.0
C1046 C 0.48373 0.8144 0.39227 0.0
C1047 C 0.4777 0.82575 0.39794 0.0
C1048 C 0.48962 0.84361 0.39997 0.0
C1049 C 0.49314 0.87701 0.34941 0.0
C1050 C 0.50573 0.89334 0.38869 0.0
C1051 C 0.50328 0.87269 0.3625 0.0
N1052 N 0.50935 0.88076 0.38192 0.0
C1053 C 0.49563 0.89801 0.37602 0.0
C1054 C 0.4893 0.88976 0.35626 0.0
C1055 C 0.54952 0.90914 0.41966 0.0
C1056 C 0.58891 0.87611 0.41999 0.0
C1057 C 0.58368 0.9008 0.44096 0.0
C1058 C 0.60047 0.90527 0.43411 0.0
C1059 C 0.60307 0.89282 0.42355 0.0
N1060 N 0.56986 0.88437 0.43745 0.0
C1061 C 0.5723 0.87211 0.42708 0.0
Co1062 Co 0.48804 0.35696 0.10748 0.0
Co1063 Co 0.46495 0.33787 0.06092 0.0
O1064 O 0.47356 0.33643 0.08954 0.0
C1065 C 0.45968 0.3363 0.13946 0.0
O1066 O 0.44798 0.33576 0.12595 0.0
C1067 C 0.48239 0.31679 0.0533 0.0
O1068 O 0.49514 0.32765 0.06594 0.0
O1069 O 0.48888 0.35601 0.05151 0.0
O1070 O 0.50109 0.37099 0.08182 0.0
H1071 H 0.45896 0.369 0.99666 0.0
H1072 H 0.48518 0.32298 0.11845 0.0
O1073 O 0.47572 0.34355 0.13402 0.0
H1074 H 0.54798 0.36325 0.10549 0.0
H1075 H 0.52371 0.38787 0.17308 0.0
H1076 H 0.50053 0.3949 0.10391 0.0
H1077 H 0.52681 0.37363 0.10266 0.0
H1078 H 0.50589 0.36232 0.14993 0.0
O1079 O 0.46937 0.31897 0.04979 0.0
H1080 H 0.46949 0.36691 0.03271 0.0
H1081 H 0.44216 0.31147 0.02825 0.0
H1082 H 0.51841 0.42083 0.12649 0.0
H1083 H 0.50594 0.31208 0.12171 0.0
H1084 H 0.53013 0.4174 0.16136 0.0
H1085 H 0.53758 0.33227 0.11512 0.0
O1086 O 0.47093 0.36534 0.10434 0.0
H1087 H 0.42103 0.28123 0.09533 0.0
H1088 H 0.42959 0.33449 0.05867 0.0
H1089 H 0.40009 0.3125 0.07097 0.0
H1090 H 0.39566 0.28562 0.0894 0.0
H1091 H 0.45035 0.30364 0.08292 0.0
H1092 H 0.43146 0.31296 0.99208 0.0
H1093 H 0.4398 0.34189 0.9761 0.0
O1094 O 0.46004 0.3566 0.07109 0.0
C1095 C 0.50109 0.36903 0.0615 0.0
C1096 C 0.45519 0.35632 0.00348 0.0
C1097 C 0.43978 0.32487 1.0009 0.0
N1098 N 0.45635 0.33909 0.03262 0.0
C1099 C 0.46108 0.35505 0.0239 0.0
C1100 C 0.44591 0.32411 0.02136 0.0
C1101 C 0.44446 0.3411 0.99194 0.0
C1102 C 0.49895 0.33188 0.11577 0.0
N1103 N 0.50477 0.34892 0.11039 0.0
C1104 C 0.51064 0.32562 0.11755 0.0
C1105 C 0.52838 0.33695 0.11381 0.0
C1106 C 0.53422 0.35432 0.10839 0.0
C1107 C 0.52216 0.36012 0.10672 0.0
C1108 C 0.5187 0.38954 0.15791 0.0
C1109 C 0.50566 0.39332 0.119 0.0
C1110 C 0.50857 0.37511 0.14474 0.0
N1111 N 0.50227 0.37713 0.12551 0.0
C1112 C 0.51574 0.40804 0.13175 0.0
C1113 C 0.5223 0.40611 0.15132 0.0
C1114 C 0.46184 0.36526 0.08831 0.0
C1115 C 0.42278 0.29287 0.08727 0.0
C1116 C 0.42779 0.32286 0.06675 0.0
C1117 C 0.41104 0.31044 0.07363 0.0
C1118 C 0.40856 0.29535 0.08396 0.0
N1119 N 0.44166 0.3203 0.06999 0.0
C1120 C 0.43934 0.30557 0.08015 0.0
Co1121 Co 0.1344 0.48621 0.60833 0.0
Co1122 Co 0.13105 0.46274 0.56251 0.0
O1123 O 0.14101 0.47198 0.5909 0.0
C1124 C 0.12818 0.45849 0.64047 0.0
O1125 O 0.11758 0.44648 0.62682 0.0
C1126 C 0.16932 0.4816 0.55305 0.0
O1127 O 0.17039 0.49552 0.56221 0.0
O1128 O 0.13626 0.48636 0.5524 0.0
O1129 O 0.13278 0.49853 0.58232 0.0
H1130 H 0.09382 0.45473 0.4976 0.0
H1131 H 0.16635 0.48475 0.61898 0.0
O1132 O 0.13613 0.47458 0.63515 0.0
H1133 H 0.18667 0.54702 0.60505 0.0
H1134 H 0.13818 0.52235 0.67302 0.0
H1135 H 0.10798 0.49742 0.60427 0.0
H1136 H 0.15532 0.525 0.60289 0.0
H1137 H 0.14664 0.50483 0.65037 0.0
O1138 O 0.15462 0.46745 0.55205 0.0
H1139 H 0.1062 0.46608 0.53353 0.0
H1140 H 0.13547 0.43986 0.53079 0.0
H1141 H 0.09921 0.51499 0.62634 0.0
H1142 H 0.19783 0.50636 0.62151 0.0
H1143 H 0.11435 0.52759 0.66099 0.0
H1144 H 0.20818 0.53774 0.61445 0.0
O1145 O 0.10909 0.4684 0.6055 0.0
H1146 H 0.14482 0.4202 0.59881 0.0
H1147 H 0.09955 0.42703 0.56084 0.0
H1148 H 0.09258 0.39791 0.57405 0.0
H1149 H 0.11532 0.39435 0.59315 0.0
H1150 H 0.15119 0.44913 0.58548 0.0
H1151 H 0.12352 0.42835 0.49475 0.0
H1152 H 0.10248 0.43572 0.47796 0.0
O1153 O 0.10723 0.45751 0.57229 0.0
C1154 C 0.13492 0.49842 0.56205 0.0
C1155 C 0.10294 0.45139 0.50477 0.0
C1156 C 0.11962 0.43659 0.50316 0.0
N1157 N 0.12144 0.45354 0.5343 0.0
C1158 C 0.10995 0.45773 0.52513 0.0
C1159 C 0.12638 0.44319 0.52355 0.0
C1160 C 0.10782 0.44073 0.49375 0.0
C1161 C 0.17074 0.49841 0.61606 0.0
N1162 N 0.159 0.50361 0.61086 0.0
C1163 C 0.18859 0.51057 0.61744 0.0
C1164 C 0.19439 0.52817 0.61345 0.0
C1165 C 0.18233 0.53338 0.60816 0.0
C1166 C 0.16459 0.52085 0.6069 0.0
C1167 C 0.13151 0.51696 0.65794 0.0
C1168 C 0.1147 0.50294 0.61927 0.0
C1169 C 0.13621 0.50699 0.64506 0.0
N1170 N 0.12789 0.50021 0.62594 0.0
C1171 C 0.10965 0.51284 0.63172 0.0
C1172 C 0.11814 0.5199 0.65117 0.0
C1173 C 0.10021 0.45915 0.58947 0.0
C1174 C 0.13482 0.42158 0.59047 0.0
C1175 C 0.1095 0.42561 0.5692 0.0
C1176 C 0.10549 0.40907 0.5766 0.0
C1177 C 0.11826 0.40709 0.58731 0.0
N1178 N 0.12579 0.43975 0.57231 0.0
C1179 C 0.13836 0.43791 0.58283 0.0
Co1180 Co 0.6554 0.13306 0.10435 0.0
Co1181 Co 0.67579 0.13019 0.05874 0.0
O1182 O 0.67635 0.1401 0.08705 0.0
C1183 C 0.67651 0.12731 0.13762 0.0
O1184 O 0.67661 0.11524 0.12535 0.0
C1185 C 0.69514 0.16847 0.04943 0.0
O1186 O 0.68214 0.16939 0.05836 0.0
O1187 O 0.65752 0.13556 0.0486 0.0
O1188 O 0.64102 0.13029 0.07821 0.0
H1189 H 0.64689 0.09307 0.99363 0.0
H1190 H 0.68809 0.16595 0.11462 0.0
O1191 O 0.66922 0.13584 0.13122 0.0
H1192 H 0.64435 0.18365 0.09903 0.0
H1193 H 0.6226 0.13652 0.16871 0.0
H1194 H 0.61809 0.10547 0.1009 0.0
H1195 H 0.63624 0.15257 0.09771 0.0
H1196 H 0.64861 0.14549 0.14595 0.0
O1197 O 0.69473 0.15382 0.04848 0.0
H1198 H 0.64775 0.10539 0.02956 0.0
H1199 H 0.70324 0.13474 0.02721 0.0
H1200 H 0.59173 0.09616 0.12309 0.0
H1201 H 0.69672 0.19718 0.11631 0.0
H1202 H 0.59388 0.11173 0.15727 0.0
H1203 H 0.67478 0.2062 0.10842 0.0
O1204 O 0.64878 0.10801 0.10202 0.0
H1205 H 0.73188 0.14377 0.09552 0.0
H1206 H 0.67998 0.09867 0.057 0.0
H1207 H 0.70204 0.09163 0.07035 0.0
H1208 H 0.72825 0.11429 0.08972 0.0
H1209 H 0.7094 0.1502 0.08205 0.0
H1210 H 0.70298 0.12286 0.99118 0.0
H1211 H 0.67465 0.1018 0.9742 0.0
O1212 O 0.65708 0.10623 0.06837 0.0
C1213 C 0.64366 0.13312 0.05807 0.0
C1214 C 0.65931 0.10219 1.00089 0.0
C1215 C 0.69079 0.11893 0.9995 0.0
N1216 N 0.67552 0.12067 0.03052 0.0
C1217 C 0.65988 0.10918 0.02124 0.0
C1218 C 0.69086 0.12565 0.01988 0.0
C1219 C 0.6749 0.10711 0.98998 0.0
C1220 C 0.67843 0.16977 0.11136 0.0
N1221 N 0.66166 0.15745 0.10619 0.0
C1222 C 0.68341 0.18747 0.11226 0.0
C1223 C 0.6711 0.19252 0.1078 0.0
C1224 C 0.65402 0.17988 0.10252 0.0
C1225 C 0.64952 0.16231 0.10176 0.0
C1226 C 0.62148 0.12966 0.15382 0.0
C1227 C 0.61911 0.11239 0.11567 0.0
C1228 C 0.63617 0.13466 0.14088 0.0
N1229 N 0.63483 0.12612 0.12201 0.0
C1230 C 0.60415 0.10703 0.12821 0.0
C1231 C 0.60537 0.11576 0.14739 0.0
C1232 C 0.64888 0.09916 0.08582 0.0
C1233 C 0.72054 0.1338 0.08706 0.0
C1234 C 0.69131 0.10858 0.06548 0.0
C1235 C 0.70378 0.10453 0.07296 0.0
C1236 C 0.71848 0.11725 0.08382 0.0
N1237 N 0.69344 0.12486 0.06867 0.0
C1238 C 0.7078 0.13739 0.07934 0.0
Co1239 Co 0.5252 0.65059 0.60655 0.0
Co1240 Co 0.5472 0.6709 0.56016 0.0
O1241 O 0.53878 0.67168 0.58913 0.0
C1242 C 0.55296 0.67223 0.63861 0.0
O1243 O 0.56493 0.67394 0.62471 0.0
C1244 C 0.5296 0.69201 0.55384 0.0
O1245 O 0.51681 0.68088 0.56621 0.0
O1246 O 0.5231 0.65306 0.55096 0.0
O1247 O 0.51289 0.63636 0.58053 0.0
H1248 H 0.55242 0.64108 0.494 0.0
H1249 H 0.52534 0.68314 0.61857 0.0
O1250 O 0.53684 0.66403 0.63339 0.0
H1251 H 0.46355 0.63983 0.60413 0.0
H1252 H 0.49021 0.61729 0.67143 0.0
H1253 H 0.51539 0.61331 0.60226 0.0
H1254 H 0.48638 0.63165 0.60101 0.0
H1255 H 0.5068 0.64348 0.64881 0.0
O1256 O 0.54272 0.69002 0.55021 0.0
H1257 H 0.54225 0.64244 0.53056 0.0
H1258 H 0.56972 0.69796 0.528 0.0
H1259 H 0.49877 0.58677 0.62429 0.0
H1260 H 0.50289 0.69183 0.62214 0.0
H1261 H 0.48604 0.58867 0.65915 0.0
H1262 H 0.47175 0.67011 0.61482 0.0
O1263 O 0.54357 0.64401 0.60313 0.0
H1264 H 0.59148 0.7267 0.59592 0.0
H1265 H 0.58255 0.67436 0.55648 0.0
H1266 H 0.61217 0.69605 0.56879 0.0
H1267 H 0.61679 0.72247 0.58863 0.0
H1268 H 0.56204 0.70459 0.58346 0.0
H1269 H 0.58005 0.6972 0.49135 0.0
H1270 H 0.57146 0.66861 0.47415 0.0
O1271 O 0.55227 0.65193 0.56902 0.0
C1272 C 0.51195 0.63916 0.56059 0.0
C1273 C 0.55629 0.65362 0.50135 0.0
C1274 C 0.57178 0.68512 0.49984 0.0
N1275 N 0.55548 0.67026 0.53145 0.0
C1276 C 0.55061 0.65447 0.52206 0.0
C1277 C 0.56585 0.68547 0.52058 0.0
C1278 C 0.56696 0.66907 0.49021 0.0
C1279 C 0.51179 0.67357 0.61558 0.0
N1280 N 0.50718 0.6569 0.60965 0.0
C1281 C 0.49915 0.67859 0.61753 0.0
C1282 C 0.48168 0.6664 0.61338 0.0
C1283 C 0.47708 0.64942 0.60737 0.0
C1284 C 0.49007 0.64487 0.60556 0.0
C1285 C 0.49566 0.61629 0.65625 0.0
C1286 C 0.50979 0.61422 0.61734 0.0
C1287 C 0.50509 0.63108 0.64338 0.0
N1288 N 0.51193 0.6299 0.62413 0.0
C1289 C 0.50044 0.59916 0.62977 0.0
C1290 C 0.49332 0.60023 0.64934 0.0
C1291 C 0.55185 0.64392 0.58635 0.0
C1292 C 0.58964 0.71527 0.58725 0.0
C1293 C 0.58444 0.68579 0.56517 0.0
C1294 C 0.60125 0.69805 0.57205 0.0
C1295 C 0.60383 0.71287 0.58317 0.0
N1296 N 0.57059 0.68825 0.56919 0.0
C1297 C 0.57302 0.70274 0.5801 0.0
Co1298 Co 0.87643 0.52245 0.10634 0.0
Co1299 Co 0.87939 0.54543 0.06018 0.0
O1300 O 0.86981 0.53663 0.08884 0.0
C1301 C 0.88418 0.55081 0.13826 0.0
O1302 O 0.89491 0.56246 0.12438 0.0
C1303 C 0.84097 0.52672 0.05132 0.0
O1304 O 0.83984 0.51276 0.06041 0.0
O1305 O 0.87394 0.52163 0.05038 0.0
O1306 O 0.87731 0.50956 0.08044 0.0
H1307 H 0.91567 0.55238 0.99467 0.0
H1308 H 0.84507 0.52477 0.11765 0.0
O1309 O 0.87549 0.53469 0.13309 0.0
H1310 H 0.82341 0.46206 0.10506 0.0
H1311 H 0.87322 0.48712 0.17158 0.0
H1312 H 0.90224 0.51047 0.10183 0.0
H1313 H 0.85484 0.48361 0.1019 0.0
H1314 H 0.86479 0.50463 0.1489 0.0
O1315 O 0.85573 0.54078 0.05012 0.0
H1316 H 0.90375 0.54154 0.03089 0.0
H1317 H 0.87471 0.56801 0.02827 0.0
H1318 H 0.91096 0.49289 0.12391 0.0
H1319 H 0.81353 0.50364 0.12118 0.0
H1320 H 0.89642 0.48109 0.15907 0.0
H1321 H 0.80251 0.47204 0.1148 0.0
O1322 O 0.90179 0.53987 0.10272 0.0
H1323 H 0.86648 0.5887 0.09623 0.0
H1324 H 0.911 0.58102 0.05764 0.0
H1325 H 0.91834 0.61036 0.07045 0.0
H1326 H 0.89597 0.61435 0.08985 0.0
H1327 H 0.85974 0.55954 0.08331 0.0
H1328 H 0.88622 0.57902 0.99195 0.0
H1329 H 0.90691 0.57126 0.97495 0.0
O1330 O 0.90329 0.55066 0.06955 0.0
C1331 C 0.87513 0.50955 0.06017 0.0
C1332 C 0.90671 0.55589 1.00193 0.0
C1333 C 0.89015 0.57082 1.00039 0.0
N1334 N 0.88864 0.55423 0.03174 0.0
C1335 C 0.89994 0.54983 0.02246 0.0
C1336 C 0.88365 0.56451 0.02094 0.0
C1337 C 0.90177 0.56647 0.99087 0.0
C1338 C 0.84038 0.51102 0.11501 0.0
N1339 N 0.85179 0.50542 0.10963 0.0
C1340 C 0.82251 0.49912 0.11696 0.0
C1341 C 0.81633 0.4814 0.11336 0.0
C1342 C 0.82805 0.47579 0.10788 0.0
C1343 C 0.84583 0.48806 0.10605 0.0
C1344 C 0.87964 0.49217 0.15627 0.0
C1345 C 0.89577 0.5053 0.11705 0.0
C1346 C 0.87495 0.50213 0.14338 0.0
N1347 N 0.88293 0.50847 0.12399 0.0
C1348 C 0.9008 0.49539 0.12951 0.0
C1349 C 0.89265 0.48878 0.14924 0.0
C1350 C 0.91049 0.54902 0.08656 0.0
C1351 C 0.87632 0.58713 0.08775 0.0
C1352 C 0.90122 0.58263 0.06614 0.0
C1353 C 0.90543 0.59929 0.07331 0.0
C1354 C 0.89288 0.60152 0.08419 0.0
N1355 N 0.88493 0.56859 0.06965 0.0
C1356 C 0.87256 0.57067 0.08034 0.0
Co1357 Co 0.35627 0.87637 0.60492 0.0
Co1358 Co 0.33749 0.87972 0.55749 0.0
O1359 O 0.33602 0.87079 0.58676 0.0
C1360 C 0.34991 0.89137 0.64391 0.0
O1361 O 0.36528 0.90507 0.63995 0.0
C1362 C 0.31757 0.8411 0.5503 0.0
O1363 O 0.32992 0.84006 0.56081 0.0
O1364 O 0.35582 0.87382 0.5491 0.0
O1365 O 0.3693 0.87435 0.57995 0.0
H1366 H 0.36838 0.91446 0.49162 0.0
H1367 H 0.32117 0.84804 0.618 0.0
O1368 O 0.34349 0.87851 0.63073 0.0
H1369 H 0.35667 0.81956 0.60918 0.0
H1370 H 0.38628 0.87167 0.67155 0.0
H1371 H 0.39458 0.89953 0.60043 0.0
H1372 H 0.36969 0.85128 0.60327 0.0
H1373 H 0.36091 0.86475 0.64844 0.0
O1374 O 0.31857 0.85591 0.54774 0.0
H1375 H 0.36642 0.90331 0.52852 0.0
H1376 H 0.31099 0.87451 0.52411 0.0
H1377 H 0.42032 0.90678 0.623 0.0
H1378 H 0.30767 0.8163 0.62429 0.0
H1379 H 0.41625 0.89281 0.65885 0.0
H1380 H 0.32545 0.80185 0.61983 0.0
O1381 O 0.36655 0.90185 0.59879 0.0
H1382 H 0.28049 0.8679 0.59002 0.0
H1383 H 0.33396 0.91146 0.55267 0.0
H1384 H 0.31172 0.9192 0.5631 0.0
H1385 H 0.28472 0.89731 0.58185 0.0
H1386 H 0.30315 0.86077 0.57949 0.0
H1387 H 0.31236 0.88523 0.48711 0.0
H1388 H 0.34121 0.90541 0.47066 0.0
O1389 O 0.35611 0.9037 0.56654 0.0
C1390 C 0.36787 0.87304 0.55954 0.0
C1391 C 0.35573 0.90572 0.49864 0.0
C1392 C 0.32429 0.88929 0.49609 0.0
N1393 N 0.33861 0.88837 0.5285 0.0
C1394 C 0.35454 0.8994 0.51954 0.0
C1395 C 0.3236 0.88323 0.51703 0.0
C1396 C 0.34048 0.90062 0.48688 0.0
C1397 C 0.32904 0.84187 0.61624 0.0
N1398 N 0.34623 0.85153 0.61042 0.0
C1399 C 0.3213 0.82389 0.61973 0.0
C1400 C 0.33128 0.81578 0.61719 0.0
C1401 C 0.34879 0.82571 0.6112 0.0
C1402 C 0.35608 0.84366 0.60782 0.0
C1403 C 0.38823 0.87782 0.65595 0.0
C1404 C 0.39271 0.89336 0.61599 0.0
C1405 C 0.37392 0.87395 0.64279 0.0
N1406 N 0.37627 0.88169 0.62307 0.0
C1407 C 0.40733 0.89753 0.6287 0.0
C1408 C 0.40504 0.88969 0.64882 0.0
C1409 C 0.36587 0.91069 0.58295 0.0
C1410 C 0.29218 0.87754 0.58183 0.0
C1411 C 0.3223 0.9019 0.56094 0.0
C1412 C 0.30972 0.90634 0.56674 0.0
C1413 C 0.29457 0.89405 0.57725 0.0
N1414 N 0.31983 0.88566 0.56541 0.0
C1415 C 0.30504 0.87356 0.57577 0.0
H1416 H 0.32757 0.42914 0.16154 0.0
H1417 H 0.32102 0.42348 0.20008 0.0
H1418 H 0.33297 0.47678 0.2091 0.0
H1419 H 0.33926 0.48246 0.17089 0.0
H1420 H 0.34436 0.44022 0.23316 0.0
H1421 H 0.28766 0.45011 0.24241 0.0
H1422 H 0.29473 0.44666 0.2165 0.0
H1423 H 0.30539 0.46806 0.22864 0.0
C1424 C 0.32847 0.43954 0.17167 0.0
C1425 C 0.33396 0.45625 0.16309 0.0
C1426 C 0.32476 0.4363 0.1937 0.0
C1427 C 0.32625 0.44963 0.20745 0.0
C1428 C 0.33131 0.46616 0.19878 0.0
H1429 H 0.34075 0.48302 0.33652 0.0
H1430 H 0.33529 0.47737 0.29807 0.0
C1431 C 0.33505 0.46942 0.17688 0.0
C1432 C 0.32411 0.44697 0.23113 0.0
H1433 H 0.30446 0.45362 0.27464 0.0
C1434 C 0.33536 0.44276 0.24223 0.0
C1435 C 0.31236 0.45027 0.24297 0.0
C1436 C 0.29923 0.45385 0.23199 0.0
C1437 C 0.33599 0.44288 0.26485 0.0
C1438 C 0.32487 0.44709 0.27666 0.0
C1439 C 0.31302 0.45046 0.26557 0.0
C1440 C 0.3266 0.44977 0.30034 0.0
C1441 C 0.34924 0.43951 0.27592 0.0
C1442 C 0.32309 0.436 0.31452 0.0
C1443 C 0.32619 0.43918 0.33665 0.0
C1444 C 0.33288 0.45619 0.34493 0.0
C1445 C 0.3357 0.46977 0.33072 0.0
C1446 C 0.33255 0.46657 0.3087 0.0
H1447 H 0.35874 0.43925 0.2644 0.0
H1448 H 0.35658 0.4497 0.28825 0.0
H1449 H 0.34236 0.42667 0.2842 0.0
H1450 H 0.31824 0.42287 0.30842 0.0
H1451 H 0.32382 0.42842 0.34714 0.0
H1452 H 0.8618 0.33316 0.66911 0.0
H1453 H 0.86282 0.32793 0.70743 0.0
H1454 H 0.90659 0.31993 0.69692 0.0
H1455 H 0.90587 0.32546 0.65831 0.0
H1456 H 0.86059 0.29971 0.73093 0.0
H1457 H 0.92546 0.35998 0.74105 0.0
H1458 H 0.91253 0.35574 0.71697 0.0
H1459 H 0.92428 0.34432 0.72164 0.0
C1460 C 0.87159 0.33015 0.67483 0.0
C1461 C 0.88389 0.32993 0.66061 0.0
C1462 C 0.87211 0.32711 0.69679 0.0
C1463 C 0.88496 0.32383 0.70512 0.0
C1464 C 0.89676 0.32275 0.69089 0.0
H1465 H 0.90752 0.32775 0.84405 0.0
H1466 H 0.90739 0.32134 0.80556 0.0
C1467 C 0.89624 0.32579 0.6688 0.0
C1468 C 0.88628 0.32243 0.72882 0.0
H1469 H 0.91145 0.3444 0.7723 0.0
C1470 C 0.87181 0.30934 0.73997 0.0
C1471 C 0.90095 0.33498 0.74062 0.0
C1472 C 0.91667 0.34965 0.72957 0.0
C1473 C 0.87138 0.30879 0.76258 0.0
C1474 C 0.88568 0.32183 0.77437 0.0
C1475 C 0.9005 0.3344 0.76324 0.0
C1476 C 0.8848 0.32382 0.79803 0.0
C1477 C 0.85547 0.2944 0.77364 0.0
C1478 C 0.87212 0.32727 0.80659 0.0
C1479 C 0.87219 0.33097 0.82845 0.0
C1480 C 0.885 0.33139 0.84231 0.0
C1481 C 0.89742 0.32744 0.83386 0.0
C1482 C 0.89739 0.32382 0.81186 0.0
H1483 H 0.84861 0.28264 0.7632 0.0
H1484 H 0.85903 0.29057 0.78902 0.0
H1485 H 0.84618 0.29908 0.77722 0.0
H1486 H 0.86251 0.32772 0.79619 0.0
H1487 H 0.86244 0.33397 0.83437 0.0
H1488 H 0.53304 0.85945 0.33734 0.0
H1489 H 0.53991 0.86014 0.29925 0.0
H1490 H 0.59019 0.90616 0.30969 0.0
H1491 H 0.58335 0.90564 0.34808 0.0
H1492 H 0.57084 0.90958 0.27622 0.0
H1493 H 0.57283 0.84831 0.26656 0.0
H1494 H 0.55353 0.84499 0.28032 0.0
H1495 H 0.57465 0.85836 0.29249 0.0
C1496 C 0.5457 0.86958 0.33168 0.0
C1497 C 0.55764 0.88251 0.34581 0.0
C1498 C 0.54966 0.86988 0.30986 0.0
C1499 C 0.56566 0.88306 0.30163 0.0
C1500 C 0.57782 0.89578 0.31574 0.0
H1501 H 0.5867 0.90671 0.16265 0.0
H1502 H 0.59239 0.90707 0.20137 0.0
C1503 C 0.5739 0.89544 0.33768 0.0
C1504 C 0.56882 0.88429 0.27801 0.0
H1505 H 0.56774 0.86026 0.23432 0.0
C1506 C 0.57055 0.89898 0.26705 0.0
C1507 C 0.5684 0.87044 0.26608 0.0
C1508 C 0.56743 0.85471 0.27698 0.0
C1509 C 0.57076 0.8997 0.24443 0.0
C1510 C 0.56955 0.88547 0.23246 0.0
C1511 C 0.56865 0.87115 0.24347 0.0
C1512 C 0.5673 0.88439 0.20868 0.0
C1513 C 0.5712 0.9152 0.23356 0.0
C1514 C 0.55169 0.87108 0.19978 0.0
C1515 C 0.54847 0.87075 0.17773 0.0
C1516 C 0.56082 0.88373 0.164 0.0
C1517 C 0.57687 0.89656 0.17275 0.0
C1518 C 0.58009 0.89687 0.19491 0.0
H1519 H 0.56881 0.92342 0.24507 0.0
H1520 H 0.58425 0.92348 0.22617 0.0
H1521 H 0.56124 0.91082 0.22057 0.0
H1522 H 0.54166 0.86126 0.21004 0.0
H1523 H 0.53601 0.86058 0.17158 0.0
H1524 H 0.6807 0.57975 0.84216 0.0
H1525 H 0.6848 0.5838 0.80303 0.0
H1526 H 0.68216 0.53386 0.79748 0.0
H1527 H 0.67797 0.52963 0.83626 0.0
H1528 H 0.7097 0.58182 0.77201 0.0
H1529 H 0.64049 0.52985 0.76102 0.0
H1530 H 0.64896 0.54069 0.78648 0.0
H1531 H 0.65306 0.52364 0.7778 0.0
C1532 C 0.68132 0.56979 0.83265 0.0
C1533 C 0.67877 0.55426 0.84231 0.0
C1534 C 0.68366 0.57213 0.81031 0.0
C1535 C 0.68348 0.55899 0.79736 0.0
C1536 C 0.68206 0.54403 0.80716 0.0
H1537 H 0.67729 0.52884 0.66584 0.0
H1538 H 0.68126 0.53319 0.70462 0.0
C1539 C 0.67969 0.54166 0.82936 0.0
C1540 C 0.68339 0.56007 0.77353 0.0
H1541 H 0.65827 0.53903 0.72974 0.0
C1542 C 0.69843 0.57261 0.7627 0.0
C1543 C 0.6686 0.54811 0.76148 0.0
C1544 C 0.65179 0.5349 0.77224 0.0
C1545 C 0.69931 0.57295 0.74004 0.0
C1546 C 0.68471 0.56056 0.72805 0.0
C1547 C 0.66952 0.54842 0.73895 0.0
C1548 C 0.68489 0.55931 0.70422 0.0
C1549 C 0.71602 0.58609 0.72911 0.0
C1550 C 0.68601 0.57273 0.69097 0.0
C1551 C 0.68377 0.57029 0.66863 0.0
C1552 C 0.68022 0.55433 0.65923 0.0
C1553 C 0.6799 0.54126 0.67251 0.0
C1554 C 0.68217 0.54372 0.69472 0.0
H1555 H 0.72712 0.59243 0.74061 0.0
H1556 H 0.71953 0.57976 0.71611 0.0
H1557 H 0.71411 0.59644 0.72167 0.0
H1558 H 0.68782 0.58476 0.69798 0.0
H1559 H 0.684 0.58058 0.65889 0.0
H1560 H 0.11044 0.68465 0.34481 0.0
H1561 H 0.11031 0.69083 0.30629 0.0
H1562 H 0.15051 0.67757 0.29514 0.0
H1563 H 0.15096 0.6717 0.33334 0.0
H1564 H 0.15586 0.7072 0.27227 0.0
H1565 H 0.0881 0.65136 0.26155 0.0
H1566 H 0.09102 0.66755 0.2812 0.0
H1567 H 0.10065 0.65408 0.28562 0.0
C1568 C 0.1194 0.68327 0.33418 0.0
C1569 C 0.13057 0.6775 0.34215 0.0
C1570 C 0.11923 0.68669 0.31216 0.0
C1571 C 0.13019 0.68436 0.29779 0.0
C1572 C 0.14189 0.67939 0.3059 0.0
H1573 H 0.15046 0.67143 0.16891 0.0
H1574 H 0.15093 0.67792 0.2071 0.0
C1575 C 0.14207 0.67598 0.32779 0.0
C1576 C 0.12915 0.68623 0.27415 0.0
H1577 H 0.10321 0.66627 0.23046 0.0
C1578 C 0.14427 0.69842 0.26314 0.0
C1579 C 0.11399 0.67479 0.26224 0.0
C1580 C 0.09752 0.6611 0.27314 0.0
C1581 C 0.14484 0.69907 0.24055 0.0
C1582 C 0.12999 0.68704 0.22864 0.0
C1583 C 0.11458 0.67548 0.23963 0.0
C1584 C 0.13072 0.68491 0.20502 0.0
C1585 C 0.16147 0.7124 0.22961 0.0
C1586 C 0.11911 0.68659 0.19107 0.0
C1587 C 0.11879 0.68285 0.16908 0.0
C1588 C 0.12989 0.67711 0.16075 0.0
C1589 C 0.14174 0.67583 0.17473 0.0
C1590 C 0.14212 0.67966 0.1966 0.0
H1591 H 0.16926 0.72391 0.24016 0.0
H1592 H 0.16959 0.70637 0.22596 0.0
H1593 H 0.15864 0.71696 0.21427 0.0
H1594 H 0.11009 0.69047 0.19728 0.0
H1595 H 0.10945 0.68388 0.15878 0.0
H1596 H 0.43009 0.10324 0.84616 0.0
H1597 H 0.42619 0.10304 0.80699 0.0
H1598 H 0.47689 0.14936 0.80123 0.0
H1599 H 0.48098 0.1496 0.84007 0.0
H1600 H 0.42843 0.12902 0.77566 0.0
H1601 H 0.4803 0.11163 0.76516 0.0
H1602 H 0.46983 0.10989 0.79073 0.0
H1603 H 0.48688 0.13079 0.78134 0.0
C1604 C 0.44027 0.11356 0.83658 0.0
C1605 C 0.45595 0.1263 0.84622 0.0
C1606 C 0.43802 0.11341 0.81421 0.0
C1607 C 0.4514 0.12599 0.80119 0.0
C1608 C 0.46653 0.13934 0.81094 0.0
H1609 H 0.48107 0.14995 0.66977 0.0
H1610 H 0.47656 0.14947 0.7085 0.0
C1611 C 0.46883 0.13947 0.83318 0.0
C1612 C 0.45029 0.12462 0.77736 0.0
H1613 H 0.47127 0.12025 0.7337 0.0
C1614 C 0.43765 0.12692 0.76643 0.0
C1615 C 0.46224 0.12171 0.76539 0.0
C1616 C 0.47548 0.11819 0.77622 0.0
C1617 C 0.43723 0.12721 0.74376 0.0
C1618 C 0.44964 0.12499 0.73186 0.0
C1619 C 0.46186 0.12211 0.74285 0.0
C1620 C 0.4509 0.12635 0.70804 0.0
C1621 C 0.42397 0.13052 0.73267 0.0
C1622 C 0.43777 0.11368 0.69478 0.0
C1623 C 0.4403 0.11391 0.67246 0.0
C1624 C 0.45607 0.12672 0.6631 0.0
C1625 C 0.46881 0.13981 0.67639 0.0
C1626 C 0.46626 0.13958 0.69858 0.0
H1627 H 0.41724 0.13487 0.74413 0.0
H1628 H 0.43034 0.1406 0.71995 0.0
H1629 H 0.41395 0.11828 0.72482 0.0
H1630 H 0.42591 0.10321 0.70178 0.0
H1631 H 0.43027 0.1036 0.66271 0.0
H1632 H 0.58456 0.68367 0.65892 0.0
H1633 H 0.59082 0.68962 0.69748 0.0
H1634 H 0.53825 0.67931 0.70813 0.0
H1635 H 0.53192 0.67351 0.66984 0.0
H1636 H 0.56474 0.70911 0.731 0.0
H1637 H 0.57019 0.64939 0.74229 0.0
H1638 H 0.58396 0.66474 0.72215 0.0
H1639 H 0.56069 0.65287 0.71841 0.0
C1640 C 0.57441 0.68291 0.66943 0.0
C1641 C 0.55769 0.67796 0.66129 0.0
C1642 C 0.57798 0.68621 0.69148 0.0
C1643 C 0.56491 0.68465 0.70572 0.0
C1644 C 0.54851 0.68053 0.69746 0.0
H1645 H 0.53382 0.67732 0.83541 0.0
H1646 H 0.53981 0.68307 0.79715 0.0
C1647 C 0.54491 0.67717 0.67553 0.0
C1648 C 0.56779 0.68642 0.72936 0.0
H1649 H 0.57154 0.6652 0.77324 0.0
C1650 C 0.56646 0.69965 0.74023 0.0
C1651 C 0.57012 0.67412 0.74139 0.0
C1652 C 0.57122 0.65938 0.73059 0.0
C1653 C 0.56688 0.70061 0.76283 0.0
C1654 C 0.56829 0.68777 0.7749 0.0
C1655 C 0.57046 0.67504 0.764 0.0
C1656 C 0.5657 0.68616 0.79862 0.0
C1657 C 0.56556 0.71525 0.77355 0.0
C1658 C 0.57821 0.68583 0.81232 0.0
C1659 C 0.57477 0.68243 0.83437 0.0
C1660 C 0.55865 0.67906 0.84305 0.0
C1661 C 0.54638 0.67987 0.82934 0.0
C1662 C 0.54984 0.68331 0.80741 0.0
H1663 H 0.57065 0.7269 0.76293 0.0
H1664 H 0.55162 0.7108 0.77695 0.0
H1665 H 0.57289 0.71916 0.78898 0.0
H1666 H 0.59048 0.68785 0.80586 0.0
H1667 H 0.58446 0.6818 0.84443 0.0
H1668 H 0.86297 0.5305 0.3341 0.0
H1669 H 0.8635 0.5369 0.29589 0.0
H1670 H 0.9074 0.58864 0.30621 0.0
H1671 H 0.90715 0.58225 0.34471 0.0
H1672 H 0.86103 0.5633 0.27318 0.0
H1673 H 0.92548 0.56737 0.26091 0.0
H1674 H 0.91283 0.55849 0.28515 0.0
H1675 H 0.92462 0.58171 0.28083 0.0
C1676 C 0.87269 0.54332 0.32836 0.0
C1677 C 0.88515 0.5558 0.34249 0.0
C1678 C 0.87293 0.54697 0.30647 0.0
C1679 C 0.88565 0.56314 0.29811 0.0
C1680 C 0.89765 0.57596 0.31226 0.0
H1681 H 0.90618 0.58176 0.15888 0.0
H1682 H 0.90671 0.58812 0.19744 0.0
C1683 C 0.8974 0.57233 0.33428 0.0
C1684 C 0.88663 0.56597 0.27445 0.0
H1685 H 0.91097 0.56901 0.23019 0.0
C1686 C 0.87205 0.56479 0.26379 0.0
C1687 C 0.90104 0.56798 0.2622 0.0
C1688 C 0.91687 0.56885 0.27274 0.0
C1689 C 0.87126 0.56499 0.2412 0.0
C1690 C 0.88528 0.56609 0.22894 0.0
C1691 C 0.90023 0.56816 0.2396 0.0
C1692 C 0.88398 0.56324 0.20527 0.0
C1693 C 0.85526 0.5637 0.23068 0.0
C1694 C 0.87099 0.5472 0.19684 0.0
C1695 C 0.87068 0.54353 0.17494 0.0
C1696 C 0.88341 0.55578 0.16089 0.0
C1697 C 0.89612 0.57208 0.16921 0.0
C1698 C 0.89648 0.57572 0.19125 0.0
H1699 H 0.84873 0.56876 0.24143 0.0
H1700 H 0.85862 0.57107 0.21529 0.0
H1701 H 0.84575 0.54977 0.22721 0.0
H1702 H 0.86144 0.53722 0.20737 0.0
H1703 H 0.86071 0.53083 0.16913 0.0
H1704 H 0.36361 0.91397 0.6776 0.0
H1705 H 0.35365 0.90922 0.71467 0.0
H1706 H 0.30807 0.86051 0.69671 0.0
H1707 H 0.31852 0.86478 0.65938 0.0
H1708 H 0.32652 0.90527 0.73659 0.0
H1709 H 0.32849 0.84331 0.741 0.0
H1710 H 0.33642 0.8575 0.71792 0.0
H1711 H 0.3133 0.84333 0.72185 0.0
C1712 C 0.35137 0.90228 0.68137 0.0
C1713 C 0.34202 0.88961 0.66552 0.0
C1714 C 0.34563 0.89961 0.70268 0.0
C1715 C 0.33031 0.8843 0.7087 0.0
C1716 C 0.32022 0.87218 0.69263 0.0
H1717 H 0.31194 0.88185 0.85022 0.0
H1718 H 0.30555 0.88121 0.81157 0.0
C1719 C 0.32612 0.87471 0.67125 0.0
C1720 C 0.32594 0.88081 0.73201 0.0
H1721 H 0.32308 0.85369 0.77294 0.0
C1722 C 0.32555 0.89388 0.74455 0.0
C1723 C 0.32471 0.86596 0.74242 0.0
C1724 C 0.32588 0.85178 0.73019 0.0
C1725 C 0.32516 0.89311 0.76717 0.0
C1726 C 0.3245 0.87852 0.77757 0.0
C1727 C 0.32362 0.86488 0.76497 0.0
C1728 C 0.32734 0.87821 0.80118 0.0
C1729 C 0.32668 0.90849 0.77965 0.0
C1730 C 0.34131 0.87619 0.80829 0.0
C1731 C 0.3447 0.87615 0.83017 0.0
C1732 C 0.33433 0.87833 0.84566 0.0
C1733 C 0.32024 0.88028 0.83866 0.0
C1734 C 0.31665 0.88002 0.81658 0.0
H1735 H 0.33064 0.9201 0.76923 0.0
H1736 H 0.31381 0.90486 0.78687 0.0
H1737 H 0.33637 0.91223 0.79287 0.0
H1738 H 0.34983 0.87486 0.79683 0.0
H1739 H 0.35574 0.87475 0.83489 0.0
H1740 H 0.48217 0.33735 0.33504 0.0
H1741 H 0.47602 0.33155 0.2967 0.0
H1742 H 0.42235 0.31755 0.30761 0.0
H1743 H 0.4284 0.32342 0.34621 0.0
H1744 H 0.45015 0.30053 0.27394 0.0
H1745 H 0.44123 0.35825 0.26291 0.0
H1746 H 0.45156 0.35558 0.28654 0.0
H1747 H 0.42829 0.34265 0.28331 0.0
C1748 C 0.46899 0.33289 0.32939 0.0
C1749 C 0.45581 0.331 0.34371 0.0
C1750 C 0.4655 0.32954 0.30744 0.0
C1751 C 0.4488 0.32434 0.29927 0.0
C1752 C 0.43539 0.32177 0.31357 0.0
H1753 H 0.42874 0.32658 0.16061 0.0
H1754 H 0.42277 0.32029 0.19915 0.0
C1755 C 0.43885 0.32504 0.33563 0.0
C1756 C 0.44589 0.32248 0.27565 0.0
H1757 H 0.44089 0.34298 0.23188 0.0
C1758 C 0.44788 0.30965 0.26474 0.0
C1759 C 0.44283 0.33433 0.26369 0.0
C1760 C 0.44094 0.34858 0.27458 0.0
C1761 C 0.44743 0.3087 0.24215 0.0
C1762 C 0.44534 0.32116 0.23013 0.0
C1763 C 0.4425 0.33344 0.24108 0.0
C1764 C 0.44795 0.32292 0.20642 0.0
C1765 C 0.44945 0.29449 0.23138 0.0
C1766 C 0.46402 0.32639 0.19766 0.0
C1767 C 0.46745 0.32996 0.17576 0.0
C1768 C 0.45494 0.3303 0.16204 0.0
C1769 C 0.43862 0.32633 0.17068 0.0
C1770 C 0.43521 0.32278 0.19271 0.0
H1771 H 0.44471 0.28284 0.24195 0.0
H1772 H 0.44219 0.29039 0.21591 0.0
H1773 H 0.46351 0.29944 0.22808 0.0
H1774 H 0.47423 0.32701 0.20793 0.0
H1775 H 0.48017 0.33297 0.16972 0.0
H1776 H 0.15144 0.47967 0.67079 0.0
H1777 H 0.15207 0.47366 0.70888 0.0
H1778 H 0.10924 0.4211 0.69979 0.0
H1779 H 0.10835 0.42711 0.66136 0.0
H1780 H 0.10368 0.43847 0.73302 0.0
H1781 H 0.16913 0.44546 0.74188 0.0
H1782 H 0.17018 0.46383 0.72814 0.0
H1783 H 0.15863 0.44244 0.71602 0.0
C1784 C 0.1423 0.46671 0.67674 0.0
C1785 C 0.1298 0.45387 0.66298 0.0
C1786 C 0.14278 0.46325 0.69856 0.0
C1787 C 0.13089 0.44684 0.70718 0.0
C1788 C 0.11865 0.43381 0.69344 0.0
H1789 H 0.11222 0.42707 0.84712 0.0
H1790 H 0.11194 0.4209 0.80854 0.0
C1791 C 0.11818 0.43725 0.67148 0.0
C1792 C 0.13033 0.4441 0.73084 0.0
H1793 H 0.15652 0.44992 0.77419 0.0
C1794 C 0.11509 0.44055 0.74203 0.0
C1795 C 0.14523 0.44682 0.74259 0.0
C1796 C 0.16165 0.44967 0.73151 0.0
C1797 C 0.11472 0.44082 0.76465 0.0
C1798 C 0.12993 0.4445 0.77636 0.0
C1799 C 0.14489 0.44716 0.76518 0.0
C1800 C 0.13114 0.44747 0.79997 0.0
C1801 C 0.0984 0.43822 0.7758 0.0
C1802 C 0.14247 0.46427 0.80802 0.0
C1803 C 0.14269 0.46782 0.82996 0.0
C1804 C 0.13164 0.45461 0.84439 0.0
C1805 C 0.12086 0.43756 0.83644 0.0
C1806 C 0.1206 0.43403 0.8144 0.0
H1807 H 0.08876 0.43824 0.76432 0.0
H1808 H 0.09209 0.42547 0.78433 0.0
H1809 H 0.10172 0.44865 0.78795 0.0
H1810 H 0.15075 0.47482 0.79719 0.0
H1811 H 0.15125 0.48108 0.8355 0.0
H1812 H 0.7094 0.14622 0.34486 0.0
H1813 H 0.71379 0.14717 0.30564 0.0
H1814 H 0.65826 0.11355 0.29665 0.0
H1815 H 0.65376 0.11312 0.33539 0.0
H1816 H 0.70659 0.12331 0.27321 0.0
H1817 H 0.66741 0.15569 0.26173 0.0
H1818 H 0.67441 0.1529 0.28796 0.0
H1819 H 0.65516 0.13529 0.27563 0.0
C1820 C 0.69819 0.13889 0.33446 0.0
C1821 C 0.68122 0.12982 0.34312 0.0
C1822 C 0.7007 0.13946 0.31209 0.0
C1823 C 0.68629 0.13084 0.29816 0.0
C1824 C 0.66952 0.12078 0.30699 0.0
H1825 H 0.67799 0.1032 0.16379 0.0
H1826 H 0.68328 0.10556 0.20259 0.0
C1827 C 0.66698 0.12045 0.32917 0.0
C1828 C 0.68842 0.13284 0.2744 0.0
H1829 H 0.67237 0.14314 0.23031 0.0
C1830 C 0.69929 0.12784 0.2638 0.0
C1831 C 0.67926 0.13919 0.26211 0.0
C1832 C 0.66857 0.14626 0.27247 0.0
C1833 C 0.70061 0.12828 0.24118 0.0
C1834 C 0.6904 0.1334 0.22885 0.0
C1835 C 0.6801 0.13904 0.23959 0.0
C1836 C 0.68962 0.13261 0.20486 0.0
C1837 C 0.71305 0.12342 0.23085 0.0
C1838 C 0.69128 0.14693 0.19302 0.0
C1839 C 0.68776 0.14543 0.17096 0.0
C1840 C 0.68277 0.12964 0.16012 0.0
C1841 C 0.68203 0.1156 0.17166 0.0
C1842 C 0.68518 0.11699 0.19387 0.0
H1843 H 0.72406 0.12612 0.24183 0.0
H1844 H 0.70598 0.10919 0.2273 0.0
H1845 H 0.71851 0.13067 0.21559 0.0
H1846 H 0.69469 0.15914 0.20103 0.0
H1847 H 0.68846 0.15648 0.16247 0.0
H1848 H 0.17531 0.45377 0.96833 0.0
H1849 H 0.20113 0.45504 0.98471 0.0
H1850 H 0.22959 0.51108 0.97731 0.0
H1851 H 0.20383 0.50997 0.96079 0.0
H1852 H 0.23667 0.47049 0.9661 0.0
H1853 H 0.23437 0.50185 0.04279 0.0
H1854 H 0.21558 0.49058 0.02534 0.0
H1855 H 0.23304 0.51194 0.01824 0.0
C1856 C 0.18705 0.46639 0.97015 0.0
C1857 C 0.18743 0.48179 0.96328 0.0
C1858 C 0.20181 0.46708 0.97951 0.0
C1859 C 0.21724 0.48316 0.98247 0.0
C1860 C 0.21776 0.49854 0.97545 0.0
H1861 H 0.31648 0.51037 0.04537 0.0
H1862 H 0.29195 0.51102 0.02784 0.0
C1863 C 0.20303 0.49787 0.9659 0.0
C1864 C 0.23278 0.48375 0.99272 0.0
H1865 H 0.258 0.49682 0.03818 0.0
C1866 C 0.24135 0.47624 0.98186 0.0
C1867 C 0.23894 0.49137 0.01321 0.0
C1868 C 0.23 0.49932 0.02574 0.0
C1869 C 0.256 0.47626 0.99084 0.0
C1870 C 0.26196 0.48351 0.0116 0.0
C1871 C 0.25346 0.4912 0.02234 0.0
C1872 C 0.27682 0.48306 0.02252 0.0
C1873 C 0.26517 0.46884 0.97772 0.0
C1874 C 0.27642 0.46712 0.02584 0.0
C1875 C 0.29049 0.46672 0.03569 0.0
C1876 C 0.30522 0.48225 0.0428 0.0
C1877 C 0.30539 0.49816 0.04005 0.0
C1878 C 0.29135 0.49856 0.03002 0.0
H1879 H 0.26265 0.46904 0.96022 0.0
H1880 H 0.27952 0.47623 0.98045 0.0
H1881 H 0.26015 0.45501 0.98243 0.0
H1882 H 0.26518 0.45492 0.02085 0.0
H1883 H 0.28978 0.4542 0.03775 0.0
H1884 H 0.71133 0.16926 0.48749 0.0
H1885 H 0.7355 0.19466 0.50484 0.0
H1886 H 0.73483 0.22786 0.45434 0.0
H1887 H 0.70995 0.20252 0.43753 0.0
H1888 H 0.76691 0.21533 0.49357 0.0
H1889 H 0.73642 0.25638 0.50419 0.0
H1890 H 0.72405 0.23389 0.49562 0.0
H1891 H 0.73671 0.25093 0.47647 0.0
C1892 C 0.71623 0.182 0.48015 0.0
C1893 C 0.70862 0.18387 0.46118 0.0
C1894 C 0.7301 0.19656 0.4901 0.0
C1895 C 0.73693 0.21338 0.48123 0.0
C1896 C 0.72953 0.21522 0.46202 0.0
H1897 H 0.84163 0.29756 0.51596 0.0
H1898 H 0.81624 0.27324 0.49873 0.0
C1899 C 0.71537 0.20067 0.45228 0.0
C1900 C 0.75217 0.22872 0.49172 0.0
H1901 H 0.76725 0.27048 0.50984 0.0
C1902 C 0.76688 0.22733 0.49723 0.0
C1903 C 0.75219 0.24438 0.49692 0.0
C1904 C 0.73642 0.24644 0.49321 0.0
C1905 C 0.78152 0.24103 0.50754 0.0
C1906 C 0.78192 0.25703 0.51172 0.0
C1907 C 0.76715 0.25838 0.50643 0.0
C1908 C 0.79741 0.2724 0.52176 0.0
C1909 C 0.79613 0.2379 0.51443 0.0
C1910 C 0.79537 0.28077 0.5399 0.0
C1911 C 0.80988 0.29507 0.54946 0.0
C1912 C 0.8268 0.3012 0.54124 0.0
C1913 C 0.82881 0.29299 0.52293 0.0
C1914 C 0.81427 0.27895 0.51313 0.0
H1915 H 0.79135 0.22374 0.51677 0.0
H1916 H 0.80627 0.24266 0.50166 0.0
H1917 H 0.80228 0.24486 0.52965 0.0
H1918 H 0.78254 0.27611 0.54686 0.0
H1919 H 0.80788 0.30111 0.56353 0.0
H1920 H 0.54782 0.83958 0.01828 0.0
H1921 H 0.54643 0.81426 1.00044 0.0
H1922 H 0.51236 0.78066 0.05053 0.0
H1923 H 0.51298 0.80591 0.06783 0.0
H1924 H 0.55693 0.79326 0.01115 0.0
H1925 H 0.48537 0.7528 1.00036 0.0
H1926 H 0.49564 0.77521 0.00928 0.0
H1927 H 0.49106 0.75792 0.02814 0.0
C1928 C 0.53991 0.82677 0.02542 0.0
C1929 C 0.53041 0.82476 0.04442 0.0
C1930 C 0.53913 0.81226 0.01519 0.0
C1931 C 0.52903 0.79535 0.0238 0.0
C1932 C 0.51979 0.79338 0.04305 0.0
H1933 H 0.54866 0.71082 0.98802 0.0
H1934 H 0.54786 0.73521 0.00541 0.0
C1935 C 0.52027 0.80788 0.05307 0.0
C1936 C 0.52881 0.78005 0.01301 0.0
H1937 H 0.50188 0.73847 0.99449 0.0
C1938 C 0.54485 0.78134 0.0074 0.0
C1939 C 0.5131 0.7645 0.00767 0.0
C1940 C 0.49534 0.76258 0.01146 0.0
C1941 C 0.54566 0.76764 0.9969 0.0
C1942 C 0.53 0.75173 0.99263 0.0
C1943 C 0.51393 0.7505 0.99798 0.0
C1944 C 0.52998 0.73633 0.98245 0.0
C1945 C 0.56334 0.77066 0.98996 0.0
C1946 C 0.51953 0.72809 0.96428 0.0
C1947 C 0.51961 0.71374 0.95462 0.0
C1948 C 0.53027 0.70743 0.96277 0.0
C1949 C 0.54051 0.71552 0.98111 0.0
C1950 C 0.54017 0.72961 0.99099 0.0
H1951 H 0.57281 0.78481 0.9877 0.0
H1952 H 0.56867 0.76577 1.00264 0.0
H1953 H 0.56248 0.76375 0.97467 0.0
H1954 H 0.51145 0.73288 0.95738 0.0
H1955 H 0.51155 0.7078 0.94053 0.0
H1956 H 0.71358 0.54583 0.5145 0.0
H1957 H 0.73781 0.54463 0.49725 0.0
H1958 H 0.73574 0.50915 0.54646 0.0
H1959 H 0.71079 0.50957 0.56307 0.0
H1960 H 0.76891 0.55452 0.50886 0.0
H1961 H 0.73746 0.48316 0.49578 0.0
H1962 H 0.72531 0.49342 0.50468 0.0
H1963 H 0.73748 0.48825 0.5237 0.0
C1964 C 0.7182 0.53766 0.52156 0.0
C1965 C 0.71017 0.5277 0.54009 0.0
C1966 C 0.7321 0.53698 0.51168 0.0
C1967 C 0.73853 0.52653 0.52021 0.0
C1968 C 0.73074 0.51685 0.53902 0.0
H1969 H 0.84308 0.546 0.48692 0.0
H1970 H 0.81768 0.54512 0.50383 0.0
C1971 C 0.71654 0.51722 0.54866 0.0
C1972 C 0.75375 0.52637 0.50978 0.0
H1973 H 0.76843 0.49953 0.49107 0.0
C1974 C 0.7687 0.54245 0.50485 0.0
C1975 C 0.75354 0.51069 0.50411 0.0
C1976 C 0.73751 0.49293 0.50713 0.0
C1977 C 0.78336 0.54333 0.49469 0.0
C1978 C 0.78353 0.52767 0.49011 0.0
C1979 C 0.76851 0.51157 0.4948 0.0
C1980 C 0.79901 0.52768 0.48024 0.0
C1981 C 0.79826 0.56109 0.4884 0.0
C1982 C 0.79704 0.51748 0.4619 0.0
C1983 C 0.81154 0.51756 0.45254 0.0
C1984 C 0.82839 0.52802 0.46117 0.0
C1985 C 0.83032 0.53802 0.47966 0.0
C1986 C 0.81579 0.53764 0.48927 0.0
H1987 H 0.79372 0.57068 0.4862 0.0
H1988 H 0.80819 0.56611 0.50142 0.0
H1989 H 0.80459 0.56047 0.47325 0.0
H1990 H 0.78428 0.50958 0.45464 0.0
H1991 H 0.80961 0.50969 0.43832 0.0
H1992 H 0.3156 0.80609 0.96235 0.0
H1993 H 0.29049 0.78032 0.97826 0.0
H1994 H 0.26336 0.80929 0.98505 0.0
H1995 H 0.28832 0.83507 0.9693 0.0
H1996 H 0.27457 0.77847 0.02073 0.0
H1997 H 0.22824 0.76328 0.95278 0.0
H1998 H 0.25165 0.77665 0.94961 0.0
H1999 H 0.23942 0.78566 0.96171 0.0
C2000 C 0.30426 0.80697 0.96712 0.0
C2001 C 0.30401 0.82268 0.96449 0.0
C2002 C 0.28993 0.79223 0.97626 0.0
C2003 C 0.27498 0.79283 0.98266 0.0
C2004 C 0.27466 0.80845 0.97998 0.0
H2005 H 0.17347 0.72128 0.03732 0.0
H2006 H 0.19942 0.74584 0.02134 0.0
C2007 C 0.289 0.82321 0.97103 0.0
C2008 C 0.25983 0.77728 0.99259 0.0
H2009 H 0.21653 0.74759 0.98514 0.0
C2010 C 0.26189 0.77161 0.01292 0.0
C2011 C 0.24329 0.76844 0.98243 0.0
C2012 C 0.24045 0.77367 0.96035 0.0
C2013 C 0.24774 0.75764 0.02362 0.0
C2014 C 0.23114 0.74875 0.01346 0.0
C2015 C 0.22918 0.75435 0.99299 0.0
C2016 C 0.21555 0.73383 0.02384 0.0
C2017 C 0.25061 0.75297 0.04603 0.0
C2018 C 0.21582 0.71875 0.03055 0.0
C2019 C 0.201 0.7047 0.03992 0.0
C2020 C 0.18546 0.70529 0.04249 0.0
C2021 C 0.18519 0.72035 0.03563 0.0
C2022 C 0.20004 0.73443 0.02643 0.0
H2023 H 0.26224 0.764 0.05379 0.0
H2024 H 0.23903 0.74924 0.05641 0.0
H2025 H 0.25287 0.74171 0.04513 0.0
H2026 H 0.22742 0.71771 0.02824 0.0
H2027 H 0.20164 0.69327 0.04483 0.0
H2028 H 0.45647 0.17256 0.53687 0.0
H2029 H 0.45769 0.19827 0.52024 0.0
H2030 H 0.51345 0.22754 0.53015 0.0
H2031 H 0.51239 0.20188 0.54694 0.0
H2032 H 0.47217 0.23365 0.53939 0.0
H2033 H 0.50569 0.23249 0.46406 0.0
H2034 H 0.49415 0.2135 0.48112 0.0
H2035 H 0.51516 0.23108 0.4891 0.0
C2036 C 0.46902 0.18445 0.53555 0.0
C2037 C 0.48436 0.1851 0.5432 0.0
C2038 C 0.46968 0.19915 0.52604 0.0
C2039 C 0.48568 0.21476 0.52373 0.0
C2040 C 0.50099 0.21555 0.53152 0.0
H2041 H 0.51171 0.31371 0.46082 0.0
H2042 H 0.51286 0.28948 0.47848 0.0
C2043 C 0.50034 0.20089 0.54122 0.0
C2044 C 0.48622 0.23021 0.51335 0.0
H2045 H 0.4997 0.25553 0.46803 0.0
C2046 C 0.47819 0.23846 0.52379 0.0
C2047 C 0.4942 0.23654 0.49308 0.0
C2048 C 0.50272 0.22794 0.48101 0.0
C2049 C 0.478 0.25292 0.51459 0.0
C2050 C 0.48558 0.25901 0.49402 0.0
C2051 C 0.49382 0.25088 0.48372 0.0
C2052 C 0.48485 0.2736 0.48283 0.0
C2053 C 0.46998 0.26174 0.52727 0.0
C2054 C 0.46873 0.27264 0.47887 0.0
C2055 C 0.46804 0.28651 0.46894 0.0
C2056 C 0.48346 0.30161 0.46238 0.0
C2057 C 0.49958 0.30232 0.46569 0.0
C2058 C 0.50026 0.28847 0.47581 0.0
H2059 H 0.46992 0.25925 0.5448 0.0
H2060 H 0.47713 0.2761 0.52457 0.0
H2061 H 0.45621 0.25642 0.52211 0.0
H2062 H 0.45661 0.26113 0.48349 0.0
H2063 H 0.45537 0.2854 0.46644 0.0
H2064 H 0.8378 0.55417 0.03633 0.0
H2065 H 0.81214 0.55337 0.0203 0.0
H2066 H 0.78292 0.49733 0.02804 0.0
H2067 H 0.80841 0.49809 0.04474 0.0
H2068 H 0.79474 0.53825 0.98447 0.0
H2069 H 0.74895 0.50997 0.05317 0.0
H2070 H 0.77205 0.51781 0.05577 0.0
H2071 H 0.75772 0.4965 0.04459 0.0
C2072 C 0.82588 0.54166 0.0348 0.0
C2073 C 0.82518 0.52619 0.04195 0.0
C2074 C 0.81119 0.54123 0.02558 0.0
C2075 C 0.79542 0.52533 0.02321 0.0
C2076 C 0.79473 0.50983 0.03018 0.0
H2077 H 0.69658 0.49905 0.95974 0.0
H2078 H 0.72139 0.49817 0.9762 0.0
C2079 C 0.80938 0.51027 0.03961 0.0
C2080 C 0.77999 0.52502 0.01281 0.0
H2081 H 0.73674 0.51217 0.01999 0.0
C2082 C 0.7821 0.5326 0.99233 0.0
C2083 C 0.76341 0.51765 0.02297 0.0
C2084 C 0.76039 0.51018 0.04541 0.0
C2085 C 0.76816 0.53291 0.98174 0.0
C2086 C 0.75163 0.5255 0.99185 0.0
C2087 C 0.74942 0.51777 0.01221 0.0
C2088 C 0.73662 0.52605 0.98175 0.0
C2089 C 0.77115 0.54103 0.95967 0.0
C2090 C 0.73689 0.54201 0.97953 0.0
C2091 C 0.7227 0.54256 0.97029 0.0
C2092 C 0.70793 0.52715 0.96295 0.0
C2093 C 0.70774 0.51118 0.96514 0.0
C2094 C 0.72189 0.51063 0.97458 0.0
H2095 H 0.78352 0.54311 0.95234 0.0
H2096 H 0.76011 0.53266 0.94877 0.0
H2097 H 0.77185 0.55391 0.96095 0.0
H2098 H 0.74804 0.55405 0.98514 0.0
H2099 H 0.72332 0.55509 0.9689 0.0
H2100 H 0.17378 0.72188 0.4661 0.0
H2101 H 0.19929 0.74678 0.48233 0.0
H2102 H 0.22814 0.71939 0.47707 0.0
H2103 H 0.20282 0.69462 0.46016 0.0
H2104 H 0.21596 0.74931 0.51886 0.0
H2105 H 0.26288 0.76555 0.45164 0.0
H2106 H 0.23979 0.75043 0.44858 0.0
H2107 H 0.25376 0.74341 0.46074 0.0
C2108 C 0.18559 0.72118 0.46822 0.0
C2109 C 0.18624 0.70624 0.4617 0.0
C2110 C 0.20019 0.73546 0.47756 0.0
C2111 C 0.21582 0.73518 0.48067 0.0
C2112 C 0.21646 0.7202 0.47434 0.0
H2113 H 0.31336 0.80818 0.54661 0.0
H2114 H 0.28877 0.78218 0.53026 0.0
C2115 C 0.20189 0.70596 0.46479 0.0
C2116 C 0.23115 0.75033 0.49117 0.0
H2117 H 0.27458 0.78039 0.48475 0.0
C2118 C 0.22874 0.75611 0.51131 0.0
C2119 C 0.2479 0.75929 0.48142 0.0
C2120 C 0.25124 0.75448 0.45932 0.0
C2121 C 0.24256 0.77045 0.52193 0.0
C2122 C 0.25925 0.77931 0.51221 0.0
C2123 C 0.26177 0.77349 0.49222 0.0
C2124 C 0.27411 0.79502 0.52228 0.0
C2125 C 0.23927 0.77601 0.54358 0.0
C2126 C 0.27406 0.81088 0.5231 0.0
C2127 C 0.28812 0.82578 0.53227 0.0
C2128 C 0.30252 0.82513 0.54093 0.0
C2129 C 0.30248 0.80916 0.54017 0.0
C2130 C 0.28846 0.79429 0.53079 0.0
H2131 H 0.22662 0.76601 0.55066 0.0
H2132 H 0.24998 0.77852 0.55496 0.0
H2133 H 0.23899 0.78837 0.54173 0.0
H2134 H 0.26318 0.81177 0.51648 0.0
H2135 H 0.28768 0.83783 0.53256 0.0
H2136 H 0.46374 0.16865 0.99028 0.0
H2137 H 0.46467 0.19425 0.00664 0.0
H2138 H 0.5013 0.22726 0.95814 0.0
H2139 H 0.50111 0.2017 0.94238 0.0
H2140 H 0.51089 0.24317 0.99458 0.0
H2141 H 0.44004 0.21882 0.98772 0.0
H2142 H 0.44404 0.20415 0.00335 0.0
H2143 H 0.45018 0.20767 0.97533 0.0
C2144 C 0.47196 0.18135 0.98304 0.0
C2145 C 0.48226 0.18311 0.96491 0.0
C2146 C 0.47237 0.19602 0.99233 0.0
C2147 C 0.48266 0.21275 0.98335 0.0
C2148 C 0.49314 0.21454 0.96536 0.0
H2149 H 0.46536 0.29903 0.01695 0.0
H2150 H 0.46647 0.27477 0.99956 0.0
C2151 C 0.49301 0.1999 0.95632 0.0
C2152 C 0.48277 0.22838 0.99293 0.0
H2153 H 0.45607 0.24348 0.01073 0.0
C2154 C 0.49889 0.24327 0.99793 0.0
C2155 C 0.46717 0.22879 0.99702 0.0
C2156 C 0.44942 0.21407 0.99034 0.0
C2157 C 0.49984 0.25831 0.00714 0.0
C2158 C 0.4842 0.25832 0.01238 0.0
C2159 C 0.4681 0.24353 0.00707 0.0
C2160 C 0.48412 0.27359 0.02284 0.0
C2161 C 0.51767 0.27418 0.01052 0.0
C2162 C 0.49358 0.28113 0.04188 0.0
C2163 C 0.49327 0.29533 0.0516 0.0
C2164 C 0.48307 0.30198 0.04288 0.0
C2165 C 0.47333 0.29421 0.02412 0.0
C2166 C 0.47395 0.28029 0.01416 0.0
H2167 H 0.52749 0.27416 0.99936 0.0
H2168 H 0.51738 0.2865 0.00808 0.0
H2169 H 0.52211 0.27404 0.02718 0.0
H2170 H 0.50104 0.27591 0.04944 0.0
H2171 H 0.50073 0.30086 0.06621 0.0
H2172 H 0.17253 0.45442 0.53705 0.0
H2173 H 0.19819 0.45555 0.52054 0.0
H2174 H 0.22731 0.51146 0.52966 0.0
H2175 H 0.20182 0.51037 0.5468 0.0
H2176 H 0.2156 0.47155 0.48477 0.0
H2177 H 0.26121 0.49822 0.55395 0.0
H2178 H 0.23808 0.49023 0.5566 0.0
H2179 H 0.25237 0.51178 0.5461 0.0
C2180 C 0.18442 0.46697 0.53572 0.0
C2181 C 0.1851 0.48231 0.54338 0.0
C2182 C 0.19911 0.46759 0.52622 0.0
C2183 C 0.21485 0.48355 0.5241 0.0
C2184 C 0.21552 0.49891 0.53158 0.0
H2185 H 0.31447 0.51034 0.46218 0.0
H2186 H 0.28963 0.51132 0.4784 0.0
C2187 C 0.20086 0.49829 0.54127 0.0
C2188 C 0.23028 0.48406 0.51345 0.0
H2189 H 0.27341 0.49647 0.52059 0.0
C2190 C 0.22821 0.47696 0.49267 0.0
C2191 C 0.24681 0.49113 0.52368 0.0
C2192 C 0.24975 0.49812 0.54638 0.0
C2193 C 0.24214 0.47681 0.48186 0.0
C2194 C 0.25861 0.48386 0.49209 0.0
C2195 C 0.26079 0.49114 0.51273 0.0
C2196 C 0.27357 0.48327 0.48187 0.0
C2197 C 0.2392 0.46925 0.45946 0.0
C2198 C 0.27284 0.46719 0.47853 0.0
C2199 C 0.28703 0.46658 0.4694 0.0
C2200 C 0.30228 0.48206 0.46332 0.0
C2201 C 0.30293 0.49817 0.46657 0.0
C2202 C 0.28876 0.49876 0.47589 0.0
H2203 H 0.22713 0.4679 0.45205 0.0
H2204 H 0.25051 0.47756 0.4489 0.0
H2205 H 0.23786 0.45607 0.46022 0.0
H2206 H 0.26134 0.45509 0.48325 0.0
H2207 H 0.28605 0.45395 0.46719 0.0
H2208 H 0.81051 0.31384 0.95865 0.0
H2209 H 0.78527 0.28918 0.97593 0.0
H2210 H 0.81481 0.26267 0.9833 0.0
H2211 H 0.84017 0.28739 0.96669 0.0
H2212 H 0.76573 0.25525 0.96551 0.0
H2213 H 0.79779 0.25996 0.04373 0.0
H2214 H 0.80751 0.27686 0.02356 0.0
H2215 H 0.80951 0.25757 0.02167 0.0
C2216 C 0.81165 0.30278 0.964 0.0
C2217 C 0.82746 0.30272 0.96146 0.0
C2218 C 0.79719 0.28867 0.97389 0.0
C2219 C 0.7982 0.27418 0.98143 0.0
C2220 C 0.81381 0.27388 0.97829 0.0
H2221 H 0.72592 0.17214 0.03412 0.0
H2222 H 0.75044 0.19807 0.01786 0.0
C2223 C 0.8283 0.28802 0.9686 0.0
C2224 C 0.78288 0.25925 0.99222 0.0
H2225 H 0.77053 0.23381 0.03755 0.0
C2226 C 0.76676 0.25069 0.98135 0.0
C2227 C 0.78412 0.25327 0.01298 0.0
C2228 C 0.80061 0.2625 0.02626 0.0
C2229 C 0.75208 0.23609 0.99034 0.0
C2230 C 0.7535 0.22988 0.0108 0.0
C2231 C 0.76951 0.23852 0.0218 0.0
C2232 C 0.73857 0.21426 0.0209 0.0
C2233 C 0.73524 0.22709 0.97772 0.0
C2234 C 0.72381 0.2148 0.02829 0.0
C2235 C 0.70979 0.20002 0.03777 0.0
C2236 C 0.7102 0.18435 0.03995 0.0
C2237 C 0.72509 0.18393 0.03265 0.0
C2238 C 0.73915 0.19876 0.02336 0.0
H2239 H 0.73705 0.2317 0.96077 0.0
H2240 H 0.7298 0.21271 0.97778 0.0
H2241 H 0.72549 0.22979 0.9854 0.0
H2242 H 0.72317 0.22669 0.02677 0.0
H2243 H 0.69857 0.20084 0.04322 0.0
H2244 H 0.5464 0.83911 0.48963 0.0
H2245 H 0.54554 0.81376 0.50661 0.0
H2246 H 0.51013 0.78025 0.4574 0.0
H2247 H 0.51024 0.80556 0.44096 0.0
H2248 H 0.50009 0.76447 0.49405 0.0
H2249 H 0.57124 0.7899 0.48884 0.0
H2250 H 0.56667 0.80443 0.50398 0.0
H2251 H 0.56094 0.80066 0.47584 0.0
C2252 C 0.53845 0.82635 0.48238 0.0
C2253 C 0.52849 0.82438 0.46383 0.0
C2254 C 0.53808 0.81184 0.49202 0.0
C2255 C 0.52817 0.79505 0.48301 0.0
C2256 C 0.51799 0.79303 0.46464 0.0
H2257 H 0.54672 0.71001 0.51773 0.0
H2258 H 0.5453 0.73404 0.5003 0.0
C2259 C 0.51807 0.80752 0.45522 0.0
C2260 C 0.52822 0.77962 0.49292 0.0
H2261 H 0.55521 0.76521 0.51171 0.0
C2262 C 0.51216 0.76461 0.49775 0.0
C2263 C 0.54391 0.77952 0.49747 0.0
C2264 C 0.56164 0.79442 0.49104 0.0
C2265 C 0.51136 0.74971 0.5072 0.0
C2266 C 0.52707 0.75 0.51283 0.0
C2267 C 0.54311 0.76495 0.50774 0.0
C2268 C 0.52732 0.73487 0.52336 0.0
C2269 C 0.49363 0.73368 0.51041 0.0
C2270 C 0.51778 0.7272 0.5423 0.0
C2271 C 0.51828 0.71312 0.55207 0.0
C2272 C 0.52875 0.70674 0.54349 0.0
C2273 C 0.53856 0.71463 0.52482 0.0
C2274 C 0.53776 0.72842 0.51482 0.0
H2275 H 0.48379 0.73354 0.49912 0.0
H2276 H 0.49414 0.72148 0.50804 0.0
H2277 H 0.48903 0.73374 0.52701 0.0
H2278 H 0.51009 0.73222 0.54973 0.0
H2279 H 0.51074 0.70746 0.56658 0.0
H2280 H 0.37031 0.43905 0.05877 0.0
H2281 H 0.38697 0.42385 0.06071 0.0
H2282 H 0.4053 0.44514 0.12403 0.0
H2283 H 0.38849 0.46033 0.1224 0.0
H2284 H 0.42306 0.43815 0.06598 0.0
H2285 H 0.38647 0.39261 0.13284 0.0
H2286 H 0.37809 0.40459 0.11834 0.0
H2287 H 0.3947 0.41538 0.13849 0.0
C2288 C 0.37779 0.44048 0.07321 0.0
C2289 C 0.37793 0.4509 0.09049 0.0
C2290 C 0.38735 0.43177 0.07425 0.0
C2291 C 0.39722 0.43314 0.09262 0.0
C2292 C 0.39752 0.4436 0.10986 0.0
H2293 H 0.46176 0.38571 0.12179 0.0
H2294 H 0.44693 0.4029 0.12333 0.0
C2295 C 0.38795 0.45236 0.10883 0.0
C2296 C 0.40748 0.42394 0.09334 0.0
H2297 H 0.4113 0.39201 0.11974 0.0
C2298 C 0.42049 0.42807 0.07774 0.0
C2299 C 0.4042 0.41085 0.10877 0.0
C2300 C 0.39002 0.40544 0.12548 0.0
C2301 C 0.43029 0.41949 0.07713 0.0
C2302 C 0.42677 0.40615 0.09228 0.0
C2303 C 0.41399 0.40223 0.10813 0.0
C2304 C 0.43579 0.3957 0.09141 0.0
C2305 C 0.44446 0.42496 0.06039 0.0
C2306 C 0.43427 0.38572 0.07309 0.0
C2307 C 0.44272 0.37591 0.07212 0.0
C2308 C 0.45283 0.37571 0.08955 0.0
C2309 C 0.45415 0.38556 0.10803 0.0
C2310 C 0.44566 0.39539 0.10897 0.0
H2311 H 0.44892 0.4384 0.05439 0.0
H2312 H 0.45591 0.42447 0.06692 0.0
H2313 H 0.43925 0.41589 0.04647 0.0
H2314 H 0.42643 0.38543 0.05952 0.0
H2315 H 0.44128 0.36847 0.05764 0.0
H2316 H 0.0767 0.43826 0.55877 0.0
H2317 H 0.04484 0.42285 0.56056 0.0
H2318 H 0.04743 0.4429 0.62456 0.0
H2319 H 0.07943 0.45862 0.62288 0.0
H2320 H 0.02281 0.39728 0.58939 0.0
H2321 H 0.01401 0.45529 0.59404 0.0
H2322 H 0.03448 0.45689 0.5863 0.0
H2323 H 0.0282 0.45446 0.61415 0.0
C2324 C 0.07057 0.4395 0.57325 0.0
C2325 C 0.08075 0.44977 0.59067 0.0
C2326 C 0.0523 0.43063 0.57424 0.0
C2327 C 0.0437 0.43187 0.59257 0.0
C2328 C 0.05375 0.44201 0.61007 0.0
H2329 H 0.9316 0.3844 0.62071 0.0
H2330 H 0.9636 0.40052 0.62312 0.0
C2331 C 0.07208 0.45091 0.60912 0.0
C2332 C 0.02422 0.42218 0.5934 0.0
H2333 H 0.98851 0.42753 0.59712 0.0
C2334 C 0.01532 0.40391 0.59109 0.0
C2335 C 0.01442 0.43081 0.59572 0.0
C2336 C 0.02321 0.45045 0.59752 0.0
C2337 C 0.99695 0.39403 0.59104 0.0
C2338 C 0.98714 0.40267 0.59294 0.0
C2339 C 0.99602 0.42092 0.59565 0.0
C2340 C 0.9677 0.39304 0.59144 0.0
C2341 C 0.9882 0.37439 0.58917 0.0
C2342 C 0.95934 0.38373 0.57269 0.0
C2343 C 0.94109 0.37449 0.57124 0.0
C2344 C 0.93069 0.37442 0.58849 0.0
C2345 C 0.93913 0.38406 0.60714 0.0
C2346 C 0.95744 0.39331 0.60855 0.0
H2347 H 0.99713 0.36953 0.59404 0.0
H2348 H 0.97622 0.36786 0.59924 0.0
H2349 H 0.98438 0.37052 0.57216 0.0
H2350 H 0.96697 0.38364 0.55907 0.0
H2351 H 0.93515 0.3674 0.55653 0.0
H2352 H 0.55485 0.93152 0.1223 0.0
H2353 H 0.57022 0.96359 0.12283 0.0
H2354 H 0.58775 0.96483 0.05777 0.0
H2355 H 0.57234 0.93298 0.05691 0.0
H2356 H 0.60578 0.98761 0.11694 0.0
H2357 H 0.56621 0.99619 0.05402 0.0
H2358 H 0.55931 0.97544 0.06695 0.0
H2359 H 0.57511 0.9828 0.04552 0.0
C2360 C 0.5619 0.9386 0.10805 0.0
C2361 C 0.56224 0.92956 0.08953 0.0
C2362 C 0.57071 0.95695 0.1084 0.0
C2363 C 0.57991 0.96664 0.09022 0.0
C2364 C 0.58042 0.95767 0.07183 0.0
H2365 H 0.6453 0.07538 0.05484 0.0
H2366 H 0.62864 0.04347 0.05699 0.0
C2367 C 0.57166 0.93938 0.07145 0.0
C2368 C 0.58934 0.98613 0.0905 0.0
H2369 H 0.59275 0.0217 0.06414 0.0
C2370 C 0.60283 0.99508 0.10554 0.0
C2371 C 0.58551 0.99589 0.0756 0.0
C2372 C 0.57064 0.98711 0.05974 0.0
C2373 C 0.61293 0.01347 0.10563 0.0
C2374 C 0.60927 0.0232 0.0905 0.0
C2375 C 0.59562 0.01425 0.07567 0.0
C2376 C 0.61958 0.04267 0.08955 0.0
C2377 C 0.62781 0.0223 0.12148 0.0
C2378 C 0.61993 0.05289 0.10707 0.0
C2379 C 0.62947 0.0712 0.10592 0.0
C2380 C 0.63883 0.0797 0.08716 0.0
C2381 C 0.63834 0.06937 0.06959 0.0
C2382 C 0.62878 0.05108 0.07076 0.0
H2383 H 0.63158 0.01302 0.12828 0.0
H2384 H 0.63946 0.0333 0.11377 0.0
H2385 H 0.62371 0.02766 0.13499 0.0
H2386 H 0.61265 0.04672 0.12158 0.0
H2387 H 0.62942 0.07867 0.11973 0.0
H2388 H 0.62805 0.55221 0.6175 0.0
H2389 H 0.61134 0.56749 0.61846 0.0
H2390 H 0.62702 0.58509 0.5533 0.0
H2391 H 0.64357 0.56974 0.55201 0.0
H2392 H 0.6228 0.60309 0.61263 0.0
H2393 H 0.57386 0.56299 0.55056 0.0
H2394 H 0.58796 0.55625 0.5632 0.0
H2395 H 0.59612 0.57211 0.54184 0.0
C2396 C 0.62793 0.55928 0.60332 0.0
C2397 C 0.63716 0.55964 0.58464 0.0
C2398 C 0.61836 0.56803 0.60392 0.0
C2399 C 0.61769 0.57722 0.58584 0.0
C2400 C 0.62704 0.57779 0.56729 0.0
H2401 H 0.57107 0.64045 0.55401 0.0
H2402 H 0.58693 0.62438 0.55483 0.0
C2403 C 0.6366 0.56906 0.56665 0.0
C2404 C 0.60749 0.58648 0.58648 0.0
H2405 H 0.57419 0.58891 0.56173 0.0
C2406 C 0.61209 0.59992 0.60162 0.0
C2407 C 0.59351 0.58234 0.57209 0.0
C2408 C 0.58743 0.56753 0.55613 0.0
C2409 C 0.60341 0.60963 0.60236 0.0
C2410 C 0.58953 0.60558 0.58783 0.0
C2411 C 0.58484 0.59204 0.57283 0.0
C2412 C 0.57989 0.61542 0.58764 0.0
C2413 C 0.60951 0.62447 0.61827 0.0
C2414 C 0.57045 0.61559 0.60575 0.0
C2415 C 0.56136 0.62482 0.60538 0.0
C2416 C 0.56142 0.63402 0.58682 0.0
C2417 C 0.57075 0.63363 0.56863 0.0
C2418 C 0.57983 0.6244 0.56904 0.0
H2419 H 0.62287 0.62866 0.62437 0.0
H2420 H 0.60951 0.63593 0.6109 0.0
H2421 H 0.60047 0.62012 0.63224 0.0
H2422 H 0.56999 0.60846 0.62014 0.0
H2423 H 0.55423 0.6247 0.61964 0.0
H2424 H 0.93166 0.5498 0.11961 0.0
H2425 H 0.9637 0.56596 0.12097 0.0
H2426 H 0.96548 0.58551 0.05692 0.0
H2427 H 0.93363 0.56965 0.05542 0.0
H2428 H 0.98806 0.56374 0.09399 0.0
H2429 H 0.99624 0.63021 0.09095 0.0
H2430 H 0.97552 0.61096 0.09682 0.0
H2431 H 0.98308 0.61617 0.06949 0.0
C2432 C 0.93885 0.55758 0.10582 0.0
C2433 C 0.92996 0.55849 0.08748 0.0
C2434 C 0.95718 0.5668 0.10663 0.0
C2435 C 0.96701 0.57721 0.0892 0.0
C2436 C 0.9582 0.5779 0.07076 0.0
H2437 H 0.07634 0.6416 0.05567 0.0
H2438 H 0.04441 0.62518 0.05711 0.0
C2439 C 0.93992 0.56871 0.06991 0.0
C2440 C 0.98648 0.58713 0.09005 0.0
H2441 H 0.02194 0.62827 0.08586 0.0
C2442 C 0.99548 0.57786 0.0924 0.0
C2443 C 0.99616 0.60556 0.08794 0.0
C2444 C 0.98728 0.61635 0.08636 0.0
C2445 C 0.01387 0.58646 0.09207 0.0
C2446 C 0.02355 0.60488 0.0897 0.0
C2447 C 0.01454 0.61416 0.0876 0.0
C2448 C 0.04303 0.61478 0.08902 0.0
C2449 C 0.02277 0.57569 0.09358 0.0
C2450 C 0.05294 0.6146 0.1066 0.0
C2451 C 0.07125 0.62399 0.10585 0.0
C2452 C 0.08008 0.63387 0.08753 0.0
C2453 C 0.07007 0.63416 0.07005 0.0
C2454 C 0.05177 0.62477 0.07083 0.0
H2455 H 0.01365 0.56169 0.08984 0.0
H2456 H 0.03409 0.5807 0.08241 0.0
H2457 H 0.02769 0.57649 0.11021 0.0
H2458 H 0.04651 0.60729 0.12099 0.0
H2459 H 0.07847 0.62348 0.11967 0.0
H2460 H 0.4617 0.07812 0.61906 0.0
H2461 H 0.44685 0.04608 0.61905 0.0
H2462 H 0.42504 0.04494 0.55659 0.0
H2463 H 0.43996 0.07677 0.55623 0.0
H2464 H 0.41146 0.0216 0.6163 0.0
H2465 H 0.44689 0.01445 0.54699 0.0
H2466 H 0.45427 0.03508 0.56053 0.0
H2467 H 0.43699 0.02743 0.54091 0.0
C2468 C 0.45379 0.07107 0.60528 0.0
C2469 C 0.45214 0.08013 0.58761 0.0
C2470 C 0.4453 0.05273 0.60531 0.0
C2471 C 0.43508 0.04309 0.58765 0.0
C2472 C 0.43319 0.05207 0.57018 0.0
H2473 H 0.36734 0.93456 0.55347 0.0
H2474 H 0.38445 0.96645 0.5555 0.0
C2475 C 0.44167 0.07034 0.57009 0.0
C2476 C 0.426 0.02362 0.58759 0.0
H2477 H 0.42126 0.98856 0.5586 0.0
C2478 C 0.41373 0.01437 0.60381 0.0
C2479 C 0.42896 0.01417 0.57129 0.0
C2480 C 0.44261 0.02327 0.55406 0.0
C2481 C 0.40393 0.99598 0.60377 0.0
C2482 C 0.40666 0.98655 0.58724 0.0
C2483 C 0.41912 0.99579 0.57121 0.0
C2484 C 0.3965 0.96712 0.58606 0.0
C2485 C 0.39035 0.98678 0.62105 0.0
C2486 C 0.39781 0.95685 0.60238 0.0
C2487 C 0.38805 0.93856 0.60128 0.0
C2488 C 0.37674 0.93012 0.5838 0.0
C2489 C 0.37577 0.94051 0.56726 0.0
C2490 C 0.38557 0.95879 0.56836 0.0
H2491 H 0.38709 0.99586 0.62956 0.0
H2492 H 0.37816 0.97588 0.61411 0.0
H2493 H 0.39546 0.98118 0.63309 0.0
H2494 H 0.40644 0.96298 0.61596 0.0
H2495 H 0.38938 0.93107 0.61417 0.0
H2496 H 0.57155 0.64056 0.94739 0.0
H2497 H 0.58654 0.62373 0.94523 0.0
H2498 H 0.56608 0.60662 0.88131 0.0
H2499 H 0.55115 0.62367 0.88314 0.0
H2500 H 0.57256 0.58804 0.93934 0.0
H2501 H 0.61842 0.62517 0.87299 0.0
H2502 H 0.60622 0.63335 0.8874 0.0
H2503 H 0.59569 0.61686 0.86704 0.0
C2504 C 0.57025 0.63332 0.93277 0.0
C2505 C 0.56017 0.63362 0.91537 0.0
C2506 C 0.57884 0.62365 0.9316 0.0
C2507 C 0.57767 0.61409 0.91301 0.0
C2508 C 0.56749 0.61417 0.89567 0.0
H2509 H 0.62504 0.54948 0.88358 0.0
H2510 H 0.60785 0.56431 0.88207 0.0
C2511 C 0.55886 0.62387 0.8968 0.0
C2512 C 0.58685 0.6038 0.91213 0.0
H2513 H 0.61893 0.60021 0.88575 0.0
C2514 C 0.58269 0.5907 0.9276 0.0
C2515 C 0.60002 0.6072 0.89675 0.0
C2516 C 0.60551 0.6215 0.88019 0.0
C2517 C 0.59132 0.58095 0.92816 0.0
C2518 C 0.60473 0.58459 0.91307 0.0
C2519 C 0.60867 0.59744 0.89732 0.0
C2520 C 0.61521 0.57561 0.9139 0.0
C2521 C 0.58587 0.56673 0.94482 0.0
C2522 C 0.62529 0.57724 0.93215 0.0
C2523 C 0.63512 0.56881 0.93309 0.0
C2524 C 0.63522 0.5586 0.91571 0.0
C2525 C 0.62527 0.55718 0.8973 0.0
C2526 C 0.61544 0.56566 0.89638 0.0
H2527 H 0.57246 0.56226 0.95091 0.0
H2528 H 0.58632 0.55528 0.93816 0.0
H2529 H 0.59499 0.57187 0.95869 0.0
H2530 H 0.62563 0.58514 0.94569 0.0
H2531 H 0.64265 0.57033 0.94751 0.0
H2532 H 0.93311 0.5486 0.38259 0.0
H2533 H 0.96509 0.56416 0.38038 0.0
H2534 H 0.96849 0.58514 0.44399 0.0
H2535 H 0.93666 0.56986 0.44634 0.0
H2536 H 0.99001 0.61031 0.41404 0.0
H2537 H 0.99903 0.55237 0.41109 0.0
H2538 H 0.98441 0.55271 0.39121 0.0
H2539 H 0.97869 0.55088 0.41921 0.0
C2540 C 0.94064 0.55646 0.39617 0.0
C2541 C 0.93221 0.55792 0.41465 0.0
C2542 C 0.95895 0.56528 0.39491 0.0
C2543 C 0.96922 0.57566 0.41213 0.0
C2544 C 0.96086 0.57717 0.43053 0.0
H2545 H 0.07798 0.6412 0.44596 0.0
H2546 H 0.04616 0.62488 0.4438 0.0
C2547 C 0.9426 0.56838 0.43183 0.0
C2548 C 0.98867 0.58538 0.41089 0.0
H2549 H 0.02442 0.58011 0.40725 0.0
C2550 C 0.99753 0.6037 0.41254 0.0
C2551 C 0.99849 0.57677 0.40881 0.0
C2552 C 0.98973 0.55709 0.40765 0.0
C2553 C 0.01589 0.61363 0.4122 0.0
C2554 C 0.02573 0.60501 0.41059 0.0
C2555 C 0.01689 0.58671 0.40851 0.0
C2556 C 0.04519 0.61472 0.41183 0.0
C2557 C 0.02459 0.6333 0.41336 0.0
C2558 C 0.05532 0.61406 0.39481 0.0
C2559 C 0.07364 0.62336 0.39601 0.0
C2560 C 0.08221 0.63342 0.41434 0.0
C2561 C 0.07194 0.63377 0.43149 0.0
C2562 C 0.05368 0.62449 0.43026 0.0
H2563 H 0.01558 0.63799 0.40822 0.0
H2564 H 0.02853 0.63758 0.43024 0.0
H2565 H 0.03648 0.63964 0.40313 0.0
H2566 H 0.04905 0.6065 0.38049 0.0
H2567 H 0.08107 0.62268 0.38253 0.0
H2568 H 0.45904 0.07651 0.88841 0.0
H2569 H 0.4437 0.04455 0.88717 0.0
H2570 H 0.42419 0.04229 0.95138 0.0
H2571 H 0.43968 0.07421 0.95298 0.0
H2572 H 0.43736 0.02004 0.94573 0.0
H2573 H 0.39146 0.01127 0.8795 0.0
H2574 H 0.41411 0.02536 0.87298 0.0
H2575 H 0.40407 0.0318 0.89347 0.0
C2576 C 0.45143 0.06926 0.90227 0.0
C2577 C 0.45055 0.07804 0.92075 0.0
C2578 C 0.44257 0.05094 0.90146 0.0
C2579 C 0.43253 0.04097 0.91904 0.0
C2580 C 0.43176 0.04968 0.93757 0.0
H2581 H 0.36809 0.93133 0.95172 0.0
H2582 H 0.38443 0.96321 0.95076 0.0
C2583 C 0.44063 0.06798 0.93842 0.0
C2584 C 0.42316 0.02149 0.91839 0.0
H2585 H 0.39152 0.98582 0.89152 0.0
C2586 C 0.42731 0.01257 0.9339 0.0
C2587 C 0.41008 0.01171 0.90291 0.0
C2588 C 0.40451 0.02048 0.88638 0.0
C2589 C 0.41886 0.99419 0.93427 0.0
C2590 C 0.40567 0.98441 0.91892 0.0
C2591 C 0.40165 0.99332 0.90325 0.0
C2592 C 0.3956 0.96494 0.91925 0.0
C2593 C 0.42431 0.98541 0.95091 0.0
C2594 C 0.39604 0.95522 0.9016 0.0
C2595 C 0.38661 0.93688 0.90202 0.0
C2596 C 0.3764 0.92787 0.92006 0.0
C2597 C 0.37583 0.93772 0.93757 0.0
C2598 C 0.38527 0.95601 0.93713 0.0
H2599 H 0.43752 0.9945 0.95749 0.0
H2600 H 0.41488 0.98094 0.96448 0.0
H2601 H 0.42435 0.97381 0.94405 0.0
H2602 H 0.40384 0.96183 0.88757 0.0
H2603 H 0.38737 0.92978 0.88822 0.0
H2604 H 0.38461 0.45649 0.38766 0.0
H2605 H 0.40023 0.44012 0.38669 0.0
H2606 H 0.38148 0.42029 0.4504 0.0
H2607 H 0.36565 0.43638 0.45147 0.0
H2608 H 0.42635 0.44245 0.41387 0.0
H2609 H 0.3684 0.37573 0.41672 0.0
H2610 H 0.36674 0.39487 0.41082 0.0
H2611 H 0.36916 0.38974 0.43816 0.0
C2612 C 0.3837 0.44858 0.40144 0.0
C2613 C 0.37372 0.4477 0.41958 0.0
C2614 C 0.39268 0.43924 0.40086 0.0
C2615 C 0.39181 0.42873 0.41832 0.0
C2616 C 0.38203 0.42798 0.43653 0.0
H2617 H 0.43787 0.36486 0.45031 0.0
H2618 H 0.42206 0.381 0.44963 0.0
C2619 C 0.37305 0.4373 0.43715 0.0
C2620 C 0.40147 0.41893 0.41771 0.0
H2621 H 0.39614 0.3779 0.42135 0.0
C2622 C 0.41974 0.42833 0.41536 0.0
C2623 C 0.39284 0.40049 0.41969 0.0
C2624 C 0.37319 0.38957 0.42129 0.0
C2625 C 0.42965 0.41985 0.41544 0.0
C2626 C 0.42103 0.40142 0.41755 0.0
C2627 C 0.40275 0.39202 0.41978 0.0
C2628 C 0.43073 0.39166 0.41774 0.0
C2629 C 0.4493 0.43076 0.41386 0.0
C2630 C 0.44073 0.39208 0.39993 0.0
C2631 C 0.44983 0.38286 0.40024 0.0
C2632 C 0.44904 0.3729 0.41835 0.0
C2633 C 0.43884 0.37237 0.43608 0.0
C2634 C 0.42975 0.38159 0.43573 0.0
H2635 H 0.45409 0.4447 0.41785 0.0
H2636 H 0.45571 0.4257 0.42479 0.0
H2637 H 0.45339 0.43017 0.39714 0.0
H2638 H 0.44141 0.39947 0.38569 0.0
H2639 H 0.45747 0.38354 0.38625 0.0
H2640 H 0.08078 0.45727 0.88546 0.0
H2641 H 0.04881 0.44228 0.8844 0.0
H2642 H 0.0465 0.42186 0.94806 0.0
H2643 H 0.07841 0.43691 0.94944 0.0
H2644 H 0.0242 0.40659 0.88821 0.0
H2645 H 0.01616 0.44464 0.9538 0.0
H2646 H 0.03692 0.45156 0.94089 0.0
H2647 H 0.02899 0.43485 0.96124 0.0
C2648 C 0.07351 0.44961 0.89928 0.0
C2649 C 0.08227 0.4484 0.91758 0.0
C2650 C 0.0552 0.44104 0.89862 0.0
C2651 C 0.04524 0.43117 0.91628 0.0
C2652 C 0.0539 0.4297 0.93442 0.0
H2653 H 0.93572 0.36785 0.94806 0.0
H2654 H 0.96759 0.38387 0.94676 0.0
C2655 C 0.07219 0.43825 0.93511 0.0
C2656 C 0.02579 0.42222 0.91564 0.0
H2657 H 0.99033 0.41944 0.94158 0.0
C2658 C 0.01679 0.40948 0.89977 0.0
C2659 C 0.01611 0.42601 0.93072 0.0
C2660 C 0.02501 0.44012 0.94751 0.0
C2661 C 0.99839 0.40007 0.89897 0.0
C2662 C 0.98871 0.40372 0.91422 0.0
C2663 C 0.99773 0.41661 0.92992 0.0
C2664 C 0.96923 0.39397 0.91462 0.0
C2665 C 0.98946 0.38592 0.88224 0.0
C2666 C 0.95946 0.39444 0.89705 0.0
C2667 C 0.94112 0.38523 0.89769 0.0
C2668 C 0.93217 0.3754 0.91598 0.0
C2669 C 0.94207 0.37517 0.93364 0.0
C2670 C 0.96035 0.38437 0.93297 0.0
H2671 H 0.9985 0.38188 0.87527 0.0
H2672 H 0.978 0.37422 0.8892 0.0
H2673 H 0.98475 0.39089 0.86895 0.0
H2674 H 0.96601 0.40206 0.88289 0.0
H2675 H 0.93398 0.38583 0.88385 0.0
H2676 H 0.57007 0.93264 0.45057 0.0
H2677 H 0.58535 0.9645 0.44886 0.0
H2678 H 0.5653 0.96192 0.3849 0.0
H2679 H 0.54975 0.92991 0.38645 0.0
H2680 H 0.61094 0.98643 0.41953 0.0
H2681 H 0.55304 0.99543 0.41594 0.0
H2682 H 0.55147 0.975 0.42379 0.0
H2683 H 0.55358 0.98104 0.39588 0.0
C2684 C 0.5688 0.93877 0.43611 0.0
C2685 C 0.5586 0.9286 0.41864 0.0
C2686 C 0.57759 0.95704 0.43519 0.0
C2687 C 0.57633 0.96564 0.41687 0.0
C2688 C 0.56621 0.95559 0.39937 0.0
H2689 H 0.6232 0.07705 0.38675 0.0
H2690 H 0.60693 0.04504 0.3855 0.0
C2691 C 0.5574 0.93726 0.40025 0.0
C2692 C 0.58605 0.9851 0.41602 0.0
H2693 H 0.5808 0.02086 0.41233 0.0
C2694 C 0.60435 0.99396 0.41797 0.0
C2695 C 0.57745 0.99493 0.41387 0.0
C2696 C 0.55779 0.98617 0.41243 0.0
C2697 C 0.61428 0.01232 0.41776 0.0
C2698 C 0.60567 0.02217 0.41599 0.0
C2699 C 0.58739 0.01332 0.41372 0.0
C2700 C 0.6154 0.04164 0.41689 0.0
C2701 C 0.63394 0.02101 0.41912 0.0
C2702 C 0.62534 0.05042 0.43512 0.0
C2703 C 0.6347 0.06871 0.43589 0.0
C2704 C 0.63425 0.0787 0.41848 0.0
C2705 C 0.62396 0.06984 0.40041 0.0
C2706 C 0.61462 0.05152 0.39967 0.0
H2707 H 0.63866 0.01197 0.41419 0.0
H2708 H 0.64035 0.03286 0.40882 0.0
H2709 H 0.63812 0.02502 0.43601 0.0
H2710 H 0.62582 0.04311 0.44883 0.0
H2711 H 0.64229 0.07499 0.45018 0.0
H2712 H 0.48258 0.61232 0.927 0.0
H2713 H 0.45816 0.58905 0.94654 0.0
H2714 H 0.48269 0.61302 0.00679 0.0
H2715 H 0.5072 0.63676 0.98731 0.0
H2716 H 0.45847 0.56553 0.97447 0.0
H2717 H 0.43339 0.60452 0.01526 0.0
H2718 H 0.44893 0.61313 0.99343 0.0
H2719 H 0.45613 0.61221 0.02023 0.0
C2720 C 0.4828 0.61284 0.94442 0.0
C2721 C 0.49688 0.62658 0.95555 0.0
C2722 C 0.46878 0.59944 0.95557 0.0
C2723 C 0.46844 0.59938 0.97812 0.0
C2724 C 0.48247 0.61299 0.98937 0.0
H2725 H 0.40178 0.5274 0.07503 0.0
H2726 H 0.42435 0.55122 0.05403 0.0
C2727 C 0.49652 0.62652 0.9782 0.0
C2728 C 0.45368 0.58467 0.98969 0.0
H2729 H 0.42112 0.57486 0.0262 0.0
C2730 C 0.45023 0.56755 0.98568 0.0
C2731 C 0.4429 0.58732 0.00425 0.0
C2732 C 0.44538 0.60526 0.00843 0.0
C2733 C 0.43657 0.55308 0.9962 0.0
C2734 C 0.42593 0.55577 0.01093 0.0
C2735 C 0.42928 0.57285 0.01484 0.0
C2736 C 0.41183 0.54113 0.02332 0.0
C2737 C 0.43394 0.53509 0.99195 0.0
C2738 C 0.39712 0.52754 0.01302 0.0
C2739 C 0.38403 0.51377 0.02504 0.0
C2740 C 0.38541 0.51339 0.04758 0.0
C2741 C 0.40016 0.52716 0.05774 0.0
C2742 C 0.41314 0.54087 0.04576 0.0
H2743 H 0.44535 0.53566 0.98363 0.0
H2744 H 0.43163 0.52773 0.00723 0.0
H2745 H 0.42226 0.5277 0.98157 0.0
H2746 H 0.39575 0.52763 0.99571 0.0
H2747 H 0.37287 0.50343 0.01667 0.0
H2748 H 0.87533 0.39666 0.57579 0.0
H2749 H 0.87425 0.4198 0.55583 0.0
H2750 H 0.87336 0.39456 0.49603 0.0
H2751 H 0.87412 0.37098 0.51595 0.0
H2752 H 0.89803 0.44252 0.52664 0.0
H2753 H 0.83269 0.40372 0.4886 0.0
H2754 H 0.83984 0.39542 0.51056 0.0
H2755 H 0.84733 0.39552 0.48363 0.0
C2756 C 0.87473 0.39584 0.55839 0.0
C2757 C 0.87469 0.3818 0.54751 0.0
C2758 C 0.87416 0.40916 0.547 0.0
C2759 C 0.8735 0.40883 0.52446 0.0
C2760 C 0.8735 0.3949 0.51346 0.0
H2761 H 0.8767 0.48056 0.42778 0.0
H2762 H 0.87556 0.45646 0.44811 0.0
C2763 C 0.87402 0.38147 0.52487 0.0
C2764 C 0.87349 0.42345 0.51264 0.0
H2765 H 0.84998 0.43321 0.47725 0.0
C2766 C 0.88749 0.4405 0.51592 0.0
C2767 C 0.8597 0.42079 0.49869 0.0
C2768 C 0.84395 0.40291 0.49526 0.0
C2769 C 0.88824 0.45492 0.50533 0.0
C2770 C 0.87449 0.45226 0.49133 0.0
C2771 C 0.86048 0.43522 0.48805 0.0
C2772 C 0.87474 0.4669 0.47929 0.0
C2773 C 0.90396 0.47283 0.5088 0.0
C2774 C 0.87442 0.48074 0.49007 0.0
C2775 C 0.87505 0.49465 0.47846 0.0
C2776 C 0.87595 0.49494 0.45584 0.0
C2777 C 0.87601 0.48087 0.44516 0.0
C2778 C 0.87534 0.46701 0.45675 0.0
H2779 H 0.91506 0.4721 0.51613 0.0
H2780 H 0.9084 0.48008 0.49336 0.0
H2781 H 0.90036 0.48043 0.5198 0.0
H2782 H 0.87369 0.48077 0.50747 0.0
H2783 H 0.87494 0.50521 0.48722 0.0
H2784 H 0.40099 0.87568 0.93505 0.0
H2785 H 0.42363 0.8747 0.95599 0.0
H2786 H 0.39536 0.87029 0.01443 0.0
H2787 H 0.37207 0.87078 0.99334 0.0
H2788 H 0.44463 0.89733 0.98636 0.0
H2789 H 0.40596 0.83068 0.0212 0.0
H2790 H 0.3979 0.83821 0.99939 0.0
H2791 H 0.39742 0.84499 0.02655 0.0
C2792 C 0.39935 0.87432 0.95233 0.0
C2793 C 0.38452 0.87316 0.96245 0.0
C2794 C 0.41243 0.87382 0.96431 0.0
C2795 C 0.41114 0.87221 0.98675 0.0
C2796 C 0.39646 0.87117 0.99706 0.0
H2797 H 0.48429 0.87404 0.08133 0.0
H2798 H 0.45973 0.87326 0.06251 0.0
C2799 C 0.3832 0.87155 0.985 0.0
C2800 C 0.42559 0.8722 0.99905 0.0
H2801 H 0.43542 0.84761 0.03253 0.0
C2802 C 0.44261 0.88644 0.99644 0.0
C2803 C 0.42295 0.85798 0.01218 0.0
C2804 C 0.40511 0.84201 0.01491 0.0
C2805 C 0.45702 0.88687 0.00659 0.0
C2806 C 0.4544 0.87261 0.01955 0.0
C2807 C 0.43738 0.85848 0.02246 0.0
C2808 C 0.46914 0.87238 0.0307 0.0
C2809 C 0.47494 0.9027 0.00362 0.0
C2810 C 0.48252 0.87188 0.01903 0.0
C2811 C 0.49666 0.87223 0.02975 0.0
C2812 C 0.49766 0.8731 0.05237 0.0
C2813 C 0.48403 0.87334 0.06393 0.0
C2814 C 0.46992 0.87289 0.05321 0.0
H2815 H 0.47423 0.914 0.99695 0.0
H2816 H 0.48212 0.90666 0.01915 0.0
H2817 H 0.48258 0.89942 0.99227 0.0
H2818 H 0.48205 0.87128 1.00161 0.0
H2819 H 0.50688 0.87203 0.02033 0.0
H2820 H 0.51687 0.3642 0.47863 0.0
H2821 H 0.54238 0.38742 0.49747 0.0
H2822 H 0.53631 0.42639 0.46266 0.0
H2823 H 0.51165 0.40329 0.443 0.0
H2824 H 0.56855 0.43544 0.4625 0.0
H2825 H 0.54549 0.41725 0.54646 0.0
H2826 H 0.54651 0.40005 0.5324 0.0
H2827 H 0.53139 0.40691 0.52369 0.0
C2828 C 0.52092 0.37775 0.47527 0.0
C2829 C 0.51229 0.38199 0.45946 0.0
C2830 C 0.53544 0.39103 0.4861 0.0
C2831 C 0.5412 0.40875 0.4818 0.0
C2832 C 0.53224 0.41288 0.46629 0.0
H2833 H 0.60747 0.49635 0.56286 0.0
H2834 H 0.58392 0.47179 0.54363 0.0
C2835 C 0.51808 0.39966 0.45511 0.0
C2836 C 0.55686 0.42314 0.49269 0.0
H2837 H 0.57499 0.43957 0.54183 0.0
C2838 C 0.5699 0.43637 0.47987 0.0
C2839 C 0.55865 0.42449 0.51537 0.0
C2840 C 0.54468 0.41152 0.53028 0.0
C2841 C 0.58437 0.45103 0.489 0.0
C2842 C 0.58639 0.45216 0.51166 0.0
C2843 C 0.57355 0.43873 0.52446 0.0
C2844 C 0.60104 0.46756 0.52261 0.0
C2845 C 0.59687 0.46546 0.47421 0.0
C2846 C 0.61864 0.4736 0.51719 0.0
C2847 C 0.63218 0.48806 0.52782 0.0
C2848 C 0.62836 0.49635 0.54453 0.0
C2849 C 0.61081 0.49019 0.55008 0.0
C2850 C 0.59732 0.47609 0.53913 0.0
H2851 H 0.59067 0.46506 0.4585 0.0
H2852 H 0.60159 0.47854 0.48153 0.0
H2853 H 0.60831 0.4638 0.47095 0.0
H2854 H 0.62196 0.46698 0.50501 0.0
H2855 H 0.64562 0.4924 0.52347 0.0
H2856 H 0.15759 0.51525 0.97991 0.0
H2857 H 0.15912 0.54041 0.99885 0.0
H2858 H 0.11493 0.53443 0.96212 0.0
H2859 H 0.11412 0.51014 0.94242 0.0
H2860 H 0.13795 0.56679 0.963 0.0
H2861 H 0.13069 0.54235 0.04663 0.0
H2862 H 0.1494 0.54378 0.03338 0.0
H2863 H 0.12774 0.52867 0.02366 0.0
C2864 C 0.14811 0.51925 0.97614 0.0
C2865 C 0.13571 0.51077 0.95979 0.0
C2866 C 0.14892 0.53357 0.98702 0.0
C2867 C 0.13696 0.53924 0.98221 0.0
C2868 C 0.12435 0.53043 0.96615 0.0
H2869 H 0.11257 0.60359 0.06274 0.0
H2870 H 0.11407 0.58045 0.0431 0.0
C2871 C 0.12384 0.51648 0.95494 0.0
C2872 C 0.13774 0.55465 0.99318 0.0
H2873 H 0.13762 0.5718 0.0424 0.0
C2874 C 0.13779 0.56782 0.98039 0.0
C2875 C 0.13742 0.55603 0.01586 0.0
C2876 C 0.13613 0.54187 0.03067 0.0
C2877 C 0.13714 0.58205 0.98954 0.0
C2878 C 0.13726 0.58365 0.01223 0.0
C2879 C 0.1376 0.57068 0.02502 0.0
C2880 C 0.13603 0.59804 0.02317 0.0
C2881 C 0.13554 0.59472 0.97471 0.0
C2882 C 0.14772 0.61575 0.01843 0.0
C2883 C 0.1465 0.62905 0.02926 0.0
C2884 C 0.13396 0.62485 0.0455 0.0
C2885 C 0.12237 0.60719 0.05029 0.0
C2886 C 0.12329 0.59395 0.03913 0.0
H2887 H 0.13026 0.58876 0.95872 0.0
H2888 H 0.12688 0.59923 0.98164 0.0
H2889 H 0.14869 0.60628 0.97209 0.0
H2890 H 0.15802 0.61934 0.0067 0.0
H2891 H 0.15578 0.64259 0.02554 0.0
H2892 H 0.52908 0.1341 0.57636 0.0
H2893 H 0.55342 0.13562 0.55634 0.0
H2894 H 0.53036 0.13938 0.49687 0.0
H2895 H 0.50586 0.13824 0.51692 0.0
H2896 H 0.55263 0.113 0.52587 0.0
H2897 H 0.58051 0.17982 0.49174 0.0
H2898 H 0.56461 0.17197 0.51322 0.0
H2899 H 0.55776 0.16551 0.48588 0.0
C2900 C 0.52914 0.13541 0.55903 0.0
C2901 C 0.51547 0.13617 0.5483 0.0
C2902 C 0.54313 0.13624 0.5476 0.0
C2903 C 0.54386 0.13784 0.52515 0.0
C2904 C 0.53025 0.13852 0.51425 0.0
H2905 H 0.61387 0.13687 0.42909 0.0
H2906 H 0.59088 0.13802 0.44928 0.0
C2907 C 0.51621 0.13777 0.52573 0.0
C2908 C 0.55864 0.13814 0.51332 0.0
H2909 H 0.59292 0.16287 0.47975 0.0
C2910 C 0.56148 0.12394 0.51585 0.0
C2911 C 0.5702 0.15244 0.5003 0.0
C2912 C 0.56827 0.16839 0.49772 0.0
C2913 C 0.5754 0.12352 0.50547 0.0
C2914 C 0.58693 0.1378 0.49244 0.0
C2915 C 0.58409 0.15199 0.48986 0.0
C2916 C 0.60153 0.13785 0.48054 0.0
C2917 C 0.5774 0.10761 0.50811 0.0
C2918 C 0.61539 0.13767 0.49143 0.0
C2919 C 0.62872 0.13704 0.4799 0.0
C2920 C 0.62841 0.13662 0.45725 0.0
C2921 C 0.61464 0.13718 0.44649 0.0
C2922 C 0.60142 0.13785 0.458 0.0
H2923 H 0.5654 0.09631 0.51482 0.0
H2924 H 0.58047 0.10369 0.49246 0.0
H2925 H 0.58837 0.11075 0.51932 0.0
H2926 H 0.61585 0.13792 0.50885 0.0
H2927 H 0.6391 0.13665 0.48872 0.0
H2928 H 0.50581 0.37227 0.01754 0.0
H2929 H 0.53035 0.39586 0.9978 0.0
H2930 H 0.55445 0.42085 0.05778 0.0
H2931 H 0.53025 0.39756 0.07758 0.0
H2932 H 0.54178 0.43253 1.00026 0.0
H2933 H 0.59413 0.41881 0.02523 0.0
H2934 H 0.57116 0.40286 0.02768 0.0
H2935 H 0.58151 0.42026 0.04699 0.0
C2936 C 0.51641 0.3827 0.02654 0.0
C2937 C 0.51605 0.38288 0.04919 0.0
C2938 C 0.5304 0.39617 0.01523 0.0
C2939 C 0.54435 0.40995 0.02635 0.0
C2940 C 0.54402 0.41017 0.04889 0.0
H2941 H 0.63915 0.50599 0.98864 0.0
H2942 H 0.61555 0.48185 0.00891 0.0
C2943 C 0.53007 0.39681 0.06018 0.0
C2944 C 0.55891 0.42457 0.01451 0.0
H2945 H 0.6032 0.44568 0.00711 0.0
C2946 C 0.55519 0.43535 1.00162 0.0
C2947 C 0.57642 0.42833 0.01654 0.0
C2948 C 0.5811 0.41689 0.02971 0.0
C2949 C 0.56854 0.44994 0.99093 0.0
C2950 C 0.58606 0.45362 0.99279 0.0
C2951 C 0.58979 0.44288 0.00575 0.0
C2952 C 0.60054 0.46816 0.9807 0.0
C2953 C 0.5638 0.46148 0.97808 0.0
C2954 C 0.6001 0.46828 0.95817 0.0
C2955 C 0.61344 0.482 0.9466 0.0
C2956 C 0.62773 0.49589 0.95727 0.0
C2957 C 0.62836 0.49555 0.97989 0.0
C2958 C 0.61489 0.48177 0.9915 0.0
H2959 H 0.55111 0.46 0.98336 0.0
H2960 H 0.57405 0.47546 0.97952 0.0
H2961 H 0.56255 0.45772 0.96085 0.0
H2962 H 0.58938 0.45773 0.94946 0.0
H2963 H 0.61245 0.48167 0.92922 0.0
H2964 H 0.1366 0.61054 0.42913 0.0
H2965 H 0.1372 0.58755 0.44996 0.0
H2966 H 0.13884 0.61422 0.50881 0.0
H2967 H 0.1382 0.63754 0.48801 0.0
H2968 H 0.16272 0.59022 0.48033 0.0
H2969 H 0.09661 0.56394 0.51644 0.0
H2970 H 0.10373 0.57834 0.49342 0.0
H2971 H 0.11134 0.58701 0.51987 0.0
C2972 C 0.13715 0.61168 0.4465 0.0
C2973 C 0.13734 0.62599 0.45686 0.0
C2974 C 0.1375 0.59845 0.45838 0.0
C2975 C 0.1379 0.59909 0.4809 0.0
C2976 C 0.1383 0.61339 0.49141 0.0
H2977 H 0.13391 0.52687 0.57756 0.0
H2978 H 0.13538 0.55119 0.55751 0.0
C2979 C 0.13802 0.62674 0.47949 0.0
C2980 C 0.1378 0.58463 0.49317 0.0
H2981 H 0.11299 0.55079 0.52719 0.0
C2982 C 0.15187 0.58159 0.49061 0.0
C2983 C 0.12359 0.57337 0.50647 0.0
C2984 C 0.10786 0.57566 0.50917 0.0
C2985 C 0.15223 0.56774 0.50126 0.0
C2986 C 0.13795 0.55638 0.51445 0.0
C2987 C 0.1239 0.55947 0.51703 0.0
C2988 C 0.1375 0.54155 0.52631 0.0
C2989 C 0.16807 0.56562 0.49868 0.0
C2990 C 0.1381 0.52789 0.51542 0.0
C2991 C 0.13738 0.51387 0.52691 0.0
C2992 C 0.13589 0.5132 0.54948 0.0
C2993 C 0.13515 0.52689 0.56022 0.0
C2994 C 0.13594 0.54085 0.54877 0.0
H2995 H 0.17958 0.57782 0.49273 0.0
H2996 H 0.1716 0.5619 0.51417 0.0
H2997 H 0.16511 0.55511 0.48681 0.0
H2998 H 0.13891 0.52795 0.49803 0.0
H2999 H 0.13784 0.50351 0.5181 0.0
H3000 H 0.60875 0.11216 0.06334 0.0
H3001 H 0.58518 0.11311 0.04404 0.0
H3002 H 0.62326 0.15665 0.00635 0.0
H3003 H 0.64692 0.1549 0.02481 0.0
H3004 H 0.57596 0.13606 0.04289 0.0
H3005 H 0.59239 0.12816 0.95916 0.0
H3006 H 0.60328 0.12532 0.982 0.0
H3007 H 0.60989 0.14693 0.97204 0.0
C3008 C 0.61207 0.12176 0.0507 0.0
C3009 C 0.62963 0.13335 0.0454 0.0
C3010 C 0.59859 0.12236 0.03972 0.0
C3011 C 0.60232 0.1348 0.02346 0.0
C3012 C 0.61994 0.14655 0.0183 0.0
H3013 H 0.5181 0.15451 0.98143 0.0
H3014 H 0.54367 0.15656 0.9998 0.0
C3015 C 0.63347 0.14563 0.02892 0.0
C3016 C 0.58768 0.13565 0.01262 0.0
H3017 H 0.5703 0.13571 0.96354 0.0
C3018 C 0.5747 0.13589 0.02551 0.0
C3019 C 0.58587 0.13529 0.98995 0.0
C3020 C 0.5985 0.13373 0.975 0.0
C3021 C 0.55986 0.1354 0.01649 0.0
C3022 C 0.5583 0.13555 0.99381 0.0
C3023 C 0.57147 0.13569 0.98092 0.0
C3024 C 0.54274 0.13457 0.98299 0.0
C3025 C 0.54572 0.13395 0.03145 0.0
C3026 C 0.53396 0.12194 0.96692 0.0
C3027 C 0.51978 0.12117 0.95599 0.0
C3028 C 0.51379 0.13277 0.96114 0.0
C3029 C 0.52231 0.14524 0.97742 0.0
C3030 C 0.53686 0.14633 0.988 0.0
H3031 H 0.54636 0.12855 0.04736 0.0
H3032 H 0.54751 0.14716 0.03423 0.0
H3033 H 0.5325 0.12545 0.02455 0.0
H3034 H 0.53813 0.11267 0.96273 0.0
H3035 H 0.51343 0.1114 0.94352 0.0
H3036 H 0.4942 0.64296 0.52673 0.0
H3037 H 0.4681 0.61981 0.50869 0.0
H3038 H 0.4709 0.58106 0.54817 0.0
H3039 H 0.49617 0.60412 0.56694 0.0
H3040 H 0.46184 0.59383 0.48496 0.0
H3041 H 0.42123 0.56587 0.55735 0.0
H3042 H 0.44178 0.58614 0.55816 0.0
H3043 H 0.44118 0.56545 0.5603 0.0
C3044 C 0.48916 0.62948 0.53153 0.0
C3045 C 0.49707 0.62534 0.54838 0.0
C3046 C 0.47423 0.61626 0.52128 0.0
C3047 C 0.46711 0.59865 0.52749 0.0
C3048 C 0.47557 0.59453 0.54367 0.0
H3049 H 0.40426 0.50997 0.44628 0.0
H3050 H 0.4271 0.53487 0.4659 0.0
C3051 C 0.49017 0.60773 0.55424 0.0
C3052 C 0.4513 0.58449 0.51659 0.0
H3053 H 0.41256 0.547 0.52617 0.0
C3054 C 0.45097 0.58374 0.49401 0.0
C3055 C 0.43677 0.5715 0.52823 0.0
C3056 C 0.43517 0.57241 0.55232 0.0
C3057 C 0.437 0.57003 0.48285 0.0
C3058 C 0.4233 0.55617 0.49458 0.0
C3059 C 0.42321 0.55734 0.51711 0.0
C3060 C 0.40923 0.54023 0.48381 0.0
C3061 C 0.43704 0.57078 0.45857 0.0
C3062 C 0.39146 0.53404 0.48839 0.0
C3063 C 0.37832 0.51931 0.47771 0.0
C3064 C 0.38276 0.51071 0.46207 0.0
C3065 C 0.40049 0.51653 0.45805 0.0
C3066 C 0.41356 0.53091 0.46908 0.0
H3067 H 0.44425 0.58451 0.45276 0.0
H3068 H 0.44382 0.56403 0.45207 0.0
H3069 H 0.42356 0.5644 0.45195 0.0
H3070 H 0.38774 0.54085 0.49986 0.0
H3071 H 0.36473 0.5151 0.48102 0.0
H3072 H 0.87435 0.37158 0.98727 0.0
H3073 H 0.87275 0.39472 0.00735 0.0
H3074 H 0.87606 0.42136 0.94792 0.0
H3075 H 0.87767 0.39858 0.9278 0.0
H3076 H 0.89813 0.43175 0.00659 0.0
H3077 H 0.83281 0.41805 0.9783 0.0
H3078 H 0.84004 0.40224 0.97621 0.0
H3079 H 0.84764 0.41995 0.95729 0.0
C3080 C 0.87461 0.3823 0.97846 0.0
C3081 C 0.876 0.38308 0.95587 0.0
C3082 C 0.87371 0.39551 0.98996 0.0
C3083 C 0.874 0.4096 0.97908 0.0
C3084 C 0.87545 0.41044 0.95661 0.0
H3085 H 0.87354 0.50484 0.01613 0.0
H3086 H 0.8734 0.48072 0.99625 0.0
C3087 C 0.87644 0.39736 0.94514 0.0
C3088 C 0.87349 0.42388 0.9911 0.0
H3089 H 0.84989 0.44469 0.99729 0.0
C3090 C 0.88752 0.4345 0.00471 0.0
C3091 C 0.85974 0.42757 0.98839 0.0
C3092 C 0.84411 0.41629 0.9744 0.0
C3093 C 0.88834 0.44891 0.01542 0.0
C3094 C 0.87453 0.45256 0.01284 0.0
C3095 C 0.86049 0.44192 0.99921 0.0
C3096 C 0.87419 0.46701 0.02472 0.0
C3097 C 0.90421 0.46036 0.029 0.0
C3098 C 0.87428 0.46711 0.04727 0.0
C3099 C 0.87444 0.48083 0.05862 0.0
C3100 C 0.87426 0.49474 0.04771 0.0
C3101 C 0.87369 0.49439 0.02506 0.0
C3102 C 0.87362 0.48061 0.01368 0.0
H3103 H 0.91561 0.459 0.02428 0.0
H3104 H 0.90793 0.47434 0.02767 0.0
H3105 H 0.9012 0.45639 0.04611 0.0
H3106 H 0.87429 0.45656 0.05615 0.0
H3107 H 0.87479 0.48051 0.07602 0.0
H3108 H 0.48154 0.87369 0.43009 0.0
H3109 H 0.45721 0.87233 0.45013 0.0
H3110 H 0.47991 0.86794 0.50956 0.0
H3111 H 0.50461 0.8695 0.48963 0.0
H3112 H 0.43297 0.84635 0.47729 0.0
H3113 H 0.47203 0.90926 0.52082 0.0
H3114 H 0.48047 0.9032 0.49796 0.0
H3115 H 0.47959 0.89391 0.52397 0.0
C3116 C 0.48145 0.87241 0.44743 0.0
C3117 C 0.49516 0.87176 0.45822 0.0
C3118 C 0.46746 0.87162 0.45886 0.0
C3119 C 0.46683 0.87025 0.48135 0.0
C3120 C 0.48029 0.8693 0.49222 0.0
H3121 H 0.3945 0.86935 0.57631 0.0
H3122 H 0.4176 0.8676 0.55708 0.0
C3123 C 0.49435 0.87009 0.48078 0.0
C3124 C 0.45205 0.86989 0.49324 0.0
H3125 H 0.44211 0.89242 0.52995 0.0
C3126 C 0.43495 0.85641 0.48881 0.0
C3127 C 0.45466 0.88307 0.5082 0.0
C3128 C 0.47265 0.89828 0.51294 0.0
C3129 C 0.42041 0.85563 0.49914 0.0
C3130 C 0.42302 0.86886 0.51403 0.0
C3131 C 0.44013 0.88229 0.51852 0.0
C3132 C 0.40826 0.86897 0.52538 0.0
C3133 C 0.40242 0.84048 0.49434 0.0
C3134 C 0.39524 0.8703 0.51394 0.0
C3135 C 0.38185 0.87124 0.52492 0.0
C3136 C 0.38133 0.871 0.54757 0.0
C3137 C 0.39437 0.86953 0.55889 0.0
C3138 C 0.40766 0.86856 0.54792 0.0
H3139 H 0.40303 0.82931 0.48702 0.0
H3140 H 0.39436 0.83588 0.50919 0.0
H3141 H 0.39574 0.84478 0.48278 0.0
H3142 H 0.39563 0.871 0.49654 0.0
H3143 H 0.37215 0.87251 0.51567 0.0
loop_
_geom_bond_atom_site_label_1
_geom_bond_atom_site_label_2
_geom_bond_distance
_geom_bond_site_symmetry_2
_ccdc_geom_bond_type
Co0 O2 2.143 . S
Co0 O8 2.074 . S
Co0 O11 2.093 . S
Co0 O24 2.097 . S
Co0 N41 2.151 . S
Co0 N49 2.214 . S
Co1 O2 2.160 . S
Co1 O7 2.058 . S
Co1 O17 2.057 . S
Co1 O32 2.037 . S
Co1 N36 2.145 . S
Co1 N57 2.257 . S
O2 Co0 2.143 . S
O2 Co1 2.160 . S
C3 O4 1.278 . S
C3 O11 1.224 . S
O4 C3 1.278 . S
C5 O6 1.245 . S
C5 O17 1.232 . S
O6 C5 1.245 . S
O7 Co1 2.058 . S
O7 C33 1.269 . S
O8 Co0 2.074 . S
O8 C33 1.257 . S
H9 C34 0.930 . S
H10 C40 0.930 . S
O11 Co0 2.093 . S
O11 C3 1.224 . S
H12 C44 0.929 . S
H13 C46 0.930 . S
H14 C47 0.930 . S
H15 C45 0.929 . S
H16 C48 0.928 . S
O17 Co1 2.057 . S
O17 C5 1.232 . S
H18 C37 0.929 . S
H19 C38 0.929 . S
H20 C50 0.931 . S
H21 C42 0.929 . S
H22 C51 0.930 . S
H23 C43 0.931 . S
O24 Co0 2.097 . S
O24 C52 1.214 . S
H25 C53 0.929 . S
H26 C54 0.929 . S
H27 C55 0.930 . S
H28 C56 0.929 . S
H29 C58 0.930 . S
H30 C35 0.930 . S
H31 C39 0.930 . S
O32 Co1 2.037 . S
O32 C52 1.234 . S
C33 O7 1.269 . S
C33 O8 1.257 . S
C34 H9 0.930 . S
C34 C37 1.388 1_556 S
C34 C39 1.418 . S
C35 H30 0.930 . S
C35 C38 1.404 1_556 S
C35 C39 1.353 . S
N36 Co1 2.145 . S
N36 C37 1.397 . S
N36 C38 1.334 . S
C37 H18 0.929 . S
C37 C34 1.388 1_554 S
C37 N36 1.397 . S
C38 H19 0.929 . S
C38 C35 1.404 1_554 S
C38 N36 1.334 . S
C39 H31 0.930 . S
C39 C34 1.418 . S
C39 C35 1.353 . S
C40 H10 0.930 . S
C40 N41 1.330 . S
C40 C42 1.446 . S
N41 Co0 2.151 . S
N41 C40 1.330 . S
N41 C45 1.418 . S
C42 H21 0.929 . S
C42 C40 1.446 . S
C42 C43 1.332 . S
C43 H23 0.931 . S
C43 C42 1.332 . S
C43 C44 1.267 . S
C44 H12 0.929 . S
C44 C43 1.267 . S
C44 C45 1.251 . S
C45 H15 0.929 . S
C45 N41 1.418 . S
C45 C44 1.251 . S
C46 H13 0.930 . S
C46 C48 1.406 . S
C46 C51 1.261 . S
C47 H14 0.930 . S
C47 N49 1.325 . S
C47 C50 1.357 . S
C48 H16 0.928 . S
C48 C46 1.406 . S
C48 N49 1.261 . S
N49 Co0 2.214 . S
N49 C47 1.325 . S
N49 C48 1.261 . S
C50 H20 0.931 . S
C50 C47 1.357 . S
C50 C51 1.312 . S
C51 H22 0.930 . S
C51 C46 1.261 . S
C51 C50 1.312 . S
C52 O24 1.214 . S
C52 O32 1.234 . S
C53 H25 0.929 . S
C53 C56 1.391 . S
C53 C58 1.391 . S
C54 H26 0.929 . S
C54 C55 1.390 . S
C54 N57 1.391 . S
C55 H27 0.930 . S
C55 C54 1.390 . S
C55 C56 1.392 . S
C56 H28 0.929 . S
C56 C53 1.391 . S
C56 C55 1.392 . S
N57 Co1 2.257 . S
N57 C54 1.391 . S
N57 C58 1.388 . S
C58 H29 0.930 . S
C58 C53 1.391 . S
C58 N57 1.388 . S
Co59 O61 2.143 . S
Co59 O67 2.074 . S
Co59 O70 2.093 . S
Co59 O83 2.097 . S
Co59 N100 2.151 . S
Co59 N108 2.214 . S
Co60 O61 2.160 . S
Co60 O66 2.058 . S
Co60 O76 2.057 . S
Co60 O91 2.037 . S
Co60 N95 2.145 . S
Co60 N116 2.257 . S
O61 Co59 2.143 . S
O61 Co60 2.160 . S
C62 O63 1.278 . S
C62 O70 1.224 . S
O63 C62 1.278 . S
C64 O65 1.245 . S
C64 O76 1.232 . S
O65 C64 1.245 . S
O66 Co60 2.058 . S
O66 C92 1.269 . S
O67 Co59 2.074 . S
O67 C92 1.257 . S
H68 C93 0.930 . S
H69 C99 0.930 . S
O70 Co59 2.093 . S
O70 C62 1.224 . S
H71 C103 0.929 . S
H72 C105 0.930 . S
H73 C106 0.930 . S
H74 C104 0.929 . S
H75 C107 0.928 . S
O76 Co60 2.057 . S
O76 C64 1.232 . S
H77 C96 0.929 . S
H78 C97 0.929 . S
H79 C109 0.931 . S
H80 C101 0.929 . S
H81 C110 0.930 . S
H82 C102 0.931 . S
O83 Co59 2.097 . S
O83 C111 1.214 . S
H84 C112 0.929 . S
H85 C113 0.929 . S
H86 C114 0.930 . S
H87 C115 0.929 . S
H88 C117 0.930 . S
H89 C94 0.930 . S
H90 C98 0.930 . S
O91 Co60 2.037 . S
O91 C111 1.234 . S
C92 O66 1.269 . S
C92 O67 1.257 . S
C93 H68 0.930 . S
C93 C96 1.388 . S
C93 C98 1.418 . S
C94 H89 0.930 . S
C94 C97 1.404 . S
C94 C98 1.353 . S
N95 Co60 2.145 . S
N95 C96 1.397 . S
N95 C97 1.334 . S
C96 H77 0.929 . S
C96 C93 1.388 . S
C96 N95 1.397 . S
C97 H78 0.929 . S
C97 C94 1.404 . S
C97 N95 1.334 . S
C98 H90 0.930 . S
C98 C93 1.418 . S
C98 C94 1.353 . S
C99 H69 0.930 . S
C99 N100 1.330 . S
C99 C101 1.446 . S
N100 Co59 2.151 . S
N100 C99 1.330 . S
N100 C104 1.418 . S
C101 H80 0.929 . S
C101 C99 1.446 . S
C101 C102 1.332 . S
C102 H82 0.931 . S
C102 C101 1.332 . S
C102 C103 1.267 . S
C103 H71 0.929 . S
C103 C102 1.267 . S
C103 C104 1.251 . S
C104 H74 0.929 . S
C104 N100 1.418 . S
C104 C103 1.251 . S
C105 H72 0.930 . S
C105 C107 1.406 . S
C105 C110 1.261 . S
C106 H73 0.930 . S
C106 N108 1.325 . S
C106 C109 1.357 . S
C107 H75 0.928 . S
C107 C105 1.406 . S
C107 N108 1.261 . S
N108 Co59 2.214 . S
N108 C106 1.325 . S
N108 C107 1.261 . S
C109 H79 0.931 . S
C109 C106 1.357 . S
C109 C110 1.312 . S
C110 H81 0.930 . S
C110 C105 1.261 . S
C110 C109 1.312 . S
C111 O83 1.214 . S
C111 O91 1.234 . S
C112 H84 0.929 . S
C112 C115 1.391 . S
C112 C117 1.391 . S
C113 H85 0.929 . S
C113 C114 1.390 . S
C113 N116 1.391 . S
C114 H86 0.930 . S
C114 C113 1.390 . S
C114 C115 1.392 . S
C115 H87 0.929 . S
C115 C112 1.391 . S
C115 C114 1.392 . S
N116 Co60 2.257 . S
N116 C113 1.391 . S
N116 C117 1.388 . S
C117 H88 0.930 . S
C117 C112 1.391 . S
C117 N116 1.388 . S
Co118 O120 2.143 . S
Co118 O126 2.074 . S
Co118 O129 2.093 . S
Co118 O142 2.097 . S
Co118 N159 2.151 . S
Co118 N167 2.214 . S
Co119 O120 2.160 . S
Co119 O125 2.058 . S
Co119 O135 2.057 . S
Co119 O150 2.037 . S
Co119 N154 2.145 . S
Co119 N175 2.257 . S
O120 Co118 2.143 . S
O120 Co119 2.160 . S
C121 O122 1.278 . S
C121 O129 1.224 . S
O122 C121 1.278 . S
C123 O124 1.245 . S
C123 O135 1.232 . S
O124 C123 1.245 . S
O125 Co119 2.058 . S
O125 C151 1.269 . S
O126 Co118 2.074 . S
O126 C151 1.257 . S
H127 C152 0.930 . S
H128 C158 0.930 . S
O129 Co118 2.093 . S
O129 C121 1.224 . S
H130 C162 0.929 . S
H131 C164 0.930 . S
H132 C165 0.930 . S
H133 C163 0.929 . S
H134 C166 0.928 . S
O135 Co119 2.057 . S
O135 C123 1.232 . S
H136 C155 0.929 . S
H137 C156 0.929 . S
H138 C168 0.931 . S
H139 C160 0.929 . S
H140 C169 0.930 . S
H141 C161 0.931 . S
O142 Co118 2.097 . S
O142 C170 1.214 . S
H143 C171 0.929 . S
H144 C172 0.929 . S
H145 C173 0.930 . S
H146 C174 0.929 . S
H147 C176 0.930 . S
H148 C153 0.930 . S
H149 C157 0.930 . S
O150 Co119 2.037 . S
O150 C170 1.234 . S
C151 O125 1.269 . S
C151 O126 1.257 . S
C152 H127 0.930 . S
C152 C155 1.388 1_556 S
C152 C157 1.418 . S
C153 H148 0.930 . S
C153 C156 1.404 1_556 S
C153 C157 1.353 . S
N154 Co119 2.145 . S
N154 C155 1.397 . S
N154 C156 1.334 . S
C155 H136 0.929 . S
C155 C152 1.388 1_554 S
C155 N154 1.397 . S
C156 H137 0.929 . S
C156 C153 1.404 1_554 S
C156 N154 1.334 . S
C157 H149 0.930 . S
C157 C152 1.418 . S
C157 C153 1.353 . S
C158 H128 0.930 . S
C158 N159 1.330 . S
C158 C160 1.446 . S
N159 Co118 2.151 . S
N159 C158 1.330 . S
N159 C163 1.418 . S
C160 H139 0.929 . S
C160 C158 1.446 . S
C160 C161 1.332 . S
C161 H141 0.931 . S
C161 C160 1.332 . S
C161 C162 1.267 . S
C162 H130 0.929 . S
C162 C161 1.267 . S
C162 C163 1.251 . S
C163 H133 0.929 . S
C163 N159 1.418 . S
C163 C162 1.251 . S
C164 H131 0.930 . S
C164 C166 1.406 . S
C164 C169 1.261 . S
C165 H132 0.930 . S
C165 N167 1.325 . S
C165 C168 1.357 . S
C166 H134 0.928 . S
C166 C164 1.406 . S
C166 N167 1.261 . S
N167 Co118 2.214 . S
N167 C165 1.325 . S
N167 C166 1.261 . S
C168 H138 0.931 . S
C168 C165 1.357 . S
C168 C169 1.312 . S
C169 H140 0.930 . S
C169 C164 1.261 . S
C169 C168 1.312 . S
C170 O142 1.214 . S
C170 O150 1.234 . S
C171 H143 0.929 . S
C171 C174 1.391 . S
C171 C176 1.391 . S
C172 H144 0.929 . S
C172 C173 1.390 . S
C172 N175 1.391 . S
C173 H145 0.930 . S
C173 C172 1.390 . S
C173 C174 1.392 . S
C174 H146 0.929 . S
C174 C171 1.391 . S
C174 C173 1.392 . S
N175 Co119 2.257 . S
N175 C172 1.391 . S
N175 C176 1.388 . S
C176 H147 0.930 . S
C176 C171 1.391 . S
C176 N175 1.388 . S
Co177 O179 2.143 . S
Co177 O185 2.074 . S
Co177 O188 2.093 . S
Co177 O201 2.097 . S
Co177 N218 2.151 . S
Co177 N226 2.214 . S
Co178 O179 2.160 . S
Co178 O184 2.058 . S
Co178 O194 2.057 . S
Co178 O209 2.037 . S
Co178 N213 2.145 . S
Co178 N234 2.257 . S
O179 Co177 2.143 . S
O179 Co178 2.160 . S
C180 O181 1.278 . S
C180 O188 1.224 . S
O181 C180 1.278 . S
C182 O183 1.245 . S
C182 O194 1.232 . S
O183 C182 1.245 . S
O184 Co178 2.058 . S
O184 C210 1.269 . S
O185 Co177 2.074 . S
O185 C210 1.257 . S
H186 C211 0.930 . S
H187 C217 0.930 . S
O188 Co177 2.093 . S
O188 C180 1.224 . S
H189 C221 0.929 . S
H190 C223 0.930 . S
H191 C224 0.930 . S
H192 C222 0.929 . S
H193 C225 0.928 . S
O194 Co178 2.057 . S
O194 C182 1.232 . S
H195 C214 0.929 . S
H196 C215 0.929 . S
H197 C227 0.931 . S
H198 C219 0.929 . S
H199 C228 0.930 . S
H200 C220 0.931 . S
O201 Co177 2.097 . S
O201 C229 1.214 . S
H202 C230 0.929 . S
H203 C231 0.929 . S
H204 C232 0.930 . S
H205 C233 0.929 . S
H206 C235 0.930 . S
H207 C212 0.930 . S
H208 C216 0.930 . S
O209 Co178 2.037 . S
O209 C229 1.234 . S
C210 O184 1.269 . S
C210 O185 1.257 . S
C211 H186 0.930 . S
C211 C214 1.388 . S
C211 C216 1.418 . S
C212 H207 0.930 . S
C212 C215 1.404 . S
C212 C216 1.353 . S
N213 Co178 2.145 . S
N213 C214 1.397 . S
N213 C215 1.334 . S
C214 H195 0.929 . S
C214 C211 1.388 . S
C214 N213 1.397 . S
C215 H196 0.929 . S
C215 C212 1.404 . S
C215 N213 1.334 . S
C216 H208 0.930 . S
C216 C211 1.418 . S
C216 C212 1.353 . S
C217 H187 0.930 . S
C217 N218 1.330 . S
C217 C219 1.446 . S
N218 Co177 2.151 . S
N218 C217 1.330 . S
N218 C222 1.418 . S
C219 H198 0.929 . S
C219 C217 1.446 . S
C219 C220 1.332 . S
C220 H200 0.931 . S
C220 C219 1.332 . S
C220 C221 1.267 . S
C221 H189 0.929 . S
C221 C220 1.267 . S
C221 C222 1.251 . S
C222 H192 0.929 . S
C222 N218 1.418 . S
C222 C221 1.251 . S
C223 H190 0.930 . S
C223 C225 1.406 . S
C223 C228 1.261 . S
C224 H191 0.930 . S
C224 N226 1.325 . S
C224 C227 1.357 . S
C225 H193 0.928 . S
C225 C223 1.406 . S
C225 N226 1.261 . S
N226 Co177 2.214 . S
N226 C224 1.325 . S
N226 C225 1.261 . S
C227 H197 0.931 . S
C227 C224 1.357 . S
C227 C228 1.312 . S
C228 H199 0.930 . S
C228 C223 1.261 . S
C228 C227 1.312 . S
C229 O201 1.214 . S
C229 O209 1.234 . S
C230 H202 0.929 . S
C230 C233 1.391 . S
C230 C235 1.391 . S
C231 H203 0.929 . S
C231 C232 1.390 . S
C231 N234 1.391 . S
C232 H204 0.930 . S
C232 C231 1.390 . S
C232 C233 1.392 . S
C233 H205 0.929 . S
C233 C230 1.391 . S
C233 C232 1.392 . S
N234 Co178 2.257 . S
N234 C231 1.391 . S
N234 C235 1.388 . S
C235 H206 0.930 . S
C235 C230 1.391 . S
C235 N234 1.388 . S
Co236 O238 2.143 . S
Co236 O244 2.074 . S
Co236 O247 2.093 . S
Co236 O260 2.097 . S
Co236 N277 2.151 . S
Co236 N285 2.214 . S
Co237 O238 2.160 . S
Co237 O243 2.058 . S
Co237 O253 2.057 . S
Co237 O268 2.037 . S
Co237 N272 2.145 . S
Co237 N293 2.257 . S
O238 Co236 2.143 . S
O238 Co237 2.160 . S
C239 O240 1.278 . S
C239 O247 1.224 . S
O240 C239 1.278 . S
C241 O242 1.245 . S
C241 O253 1.232 . S
O242 C241 1.245 . S
O243 Co237 2.058 . S
O243 C269 1.269 . S
O244 Co236 2.074 . S
O244 C269 1.257 . S
H245 C270 0.930 . S
H246 C276 0.930 . S
O247 Co236 2.093 . S
O247 C239 1.224 . S
H248 C280 0.929 . S
H249 C282 0.930 . S
H250 C283 0.930 . S
H251 C281 0.929 . S
H252 C284 0.928 . S
O253 Co237 2.057 . S
O253 C241 1.232 . S
H254 C273 0.929 . S
H255 C274 0.929 . S
H256 C286 0.931 . S
H257 C278 0.929 . S
H258 C287 0.930 . S
H259 C279 0.931 . S
O260 Co236 2.097 . S
O260 C288 1.214 . S
H261 C289 0.929 . S
H262 C290 0.929 . S
H263 C291 0.930 . S
H264 C292 0.929 . S
H265 C294 0.930 . S
H266 C271 0.930 . S
H267 C275 0.930 . S
O268 Co237 2.037 . S
O268 C288 1.234 . S
C269 O243 1.269 . S
C269 O244 1.257 . S
C270 H245 0.930 . S
C270 C273 1.388 1_556 S
C270 C275 1.418 . S
C271 H266 0.930 . S
C271 C274 1.404 1_556 S
C271 C275 1.353 . S
N272 Co237 2.145 . S
N272 C273 1.397 . S
N272 C274 1.334 . S
C273 H254 0.929 . S
C273 C270 1.388 1_554 S
C273 N272 1.397 . S
C274 H255 0.929 . S
C274 C271 1.404 1_554 S
C274 N272 1.334 . S
C275 H267 0.930 . S
C275 C270 1.418 . S
C275 C271 1.353 . S
C276 H246 0.930 . S
C276 N277 1.330 . S
C276 C278 1.446 . S
N277 Co236 2.151 . S
N277 C276 1.330 . S
N277 C281 1.418 . S
C278 H257 0.929 . S
C278 C276 1.446 . S
C278 C279 1.332 . S
C279 H259 0.931 . S
C279 C278 1.332 . S
C279 C280 1.267 . S
C280 H248 0.929 . S
C280 C279 1.267 . S
C280 C281 1.251 . S
C281 H251 0.929 . S
C281 N277 1.418 . S
C281 C280 1.251 . S
C282 H249 0.930 . S
C282 C284 1.406 . S
C282 C287 1.261 . S
C283 H250 0.930 . S
C283 N285 1.325 . S
C283 C286 1.357 . S
C284 H252 0.928 . S
C284 C282 1.406 . S
C284 N285 1.261 . S
N285 Co236 2.214 . S
N285 C283 1.325 . S
N285 C284 1.261 . S
C286 H256 0.931 . S
C286 C283 1.357 . S
C286 C287 1.312 . S
C287 H258 0.930 . S
C287 C282 1.261 . S
C287 C286 1.312 . S
C288 O260 1.214 . S
C288 O268 1.234 . S
C289 H261 0.929 . S
C289 C292 1.391 . S
C289 C294 1.391 . S
C290 H262 0.929 . S
C290 C291 1.390 . S
C290 N293 1.391 . S
C291 H263 0.930 . S
C291 C290 1.390 . S
C291 C292 1.392 . S
C292 H264 0.929 . S
C292 C289 1.391 . S
C292 C291 1.392 . S
N293 Co237 2.257 . S
N293 C290 1.391 . S
N293 C294 1.388 . S
C294 H265 0.930 . S
C294 C289 1.391 . S
C294 N293 1.388 . S
Co295 O297 2.143 . S
Co295 O303 2.074 . S
Co295 O306 2.093 . S
Co295 O319 2.097 . S
Co295 N336 2.151 . S
Co295 N344 2.214 . S
Co296 O297 2.160 . S
Co296 O302 2.058 . S
Co296 O312 2.057 . S
Co296 O327 2.037 . S
Co296 N331 2.145 . S
Co296 N352 2.257 . S
O297 Co295 2.143 . S
O297 Co296 2.160 . S
C298 O299 1.278 . S
C298 O306 1.224 . S
O299 C298 1.278 . S
C300 O301 1.245 . S
C300 O312 1.232 . S
O301 C300 1.245 . S
O302 Co296 2.058 . S
O302 C328 1.269 . S
O303 Co295 2.074 . S
O303 C328 1.257 . S
H304 C329 0.930 . S
H305 C335 0.930 . S
O306 Co295 2.093 . S
O306 C298 1.224 . S
H307 C339 0.929 . S
H308 C341 0.930 . S
H309 C342 0.930 . S
H310 C340 0.929 . S
H311 C343 0.928 . S
O312 Co296 2.057 . S
O312 C300 1.232 . S
H313 C332 0.929 . S
H314 C333 0.929 . S
H315 C345 0.931 . S
H316 C337 0.929 . S
H317 C346 0.930 . S
H318 C338 0.931 . S
O319 Co295 2.097 . S
O319 C347 1.214 . S
H320 C348 0.929 . S
H321 C349 0.929 . S
H322 C350 0.930 . S
H323 C351 0.929 . S
H324 C353 0.930 . S
H325 C330 0.930 . S
H326 C334 0.930 . S
O327 Co296 2.037 . S
O327 C347 1.234 . S
C328 O302 1.269 . S
C328 O303 1.257 . S
C329 H304 0.930 . S
C329 C332 1.388 . S
C329 C334 1.418 . S
C330 H325 0.930 . S
C330 C333 1.404 . S
C330 C334 1.353 . S
N331 Co296 2.145 . S
N331 C332 1.397 . S
N331 C333 1.334 . S
C332 H313 0.929 . S
C332 C329 1.388 . S
C332 N331 1.397 . S
C333 H314 0.929 . S
C333 C330 1.404 . S
C333 N331 1.334 . S
C334 H326 0.930 . S
C334 C329 1.418 . S
C334 C330 1.353 . S
C335 H305 0.930 . S
C335 N336 1.330 . S
C335 C337 1.446 . S
N336 Co295 2.151 . S
N336 C335 1.330 . S
N336 C340 1.418 . S
C337 H316 0.929 . S
C337 C335 1.446 . S
C337 C338 1.332 . S
C338 H318 0.931 . S
C338 C337 1.332 . S
C338 C339 1.267 . S
C339 H307 0.929 . S
C339 C338 1.267 . S
C339 C340 1.251 . S
C340 H310 0.929 . S
C340 N336 1.418 . S
C340 C339 1.251 . S
C341 H308 0.930 . S
C341 C343 1.406 . S
C341 C346 1.261 . S
C342 H309 0.930 . S
C342 N344 1.325 . S
C342 C345 1.357 . S
C343 H311 0.928 . S
C343 C341 1.406 . S
C343 N344 1.261 . S
N344 Co295 2.214 . S
N344 C342 1.325 . S
N344 C343 1.261 . S
C345 H315 0.931 . S
C345 C342 1.357 . S
C345 C346 1.312 . S
C346 H317 0.930 . S
C346 C341 1.261 . S
C346 C345 1.312 . S
C347 O319 1.214 . S
C347 O327 1.234 . S
C348 H320 0.929 . S
C348 C351 1.391 . S
C348 C353 1.391 . S
C349 H321 0.929 . S
C349 C350 1.390 . S
C349 N352 1.391 . S
C350 H322 0.930 . S
C350 C349 1.390 . S
C350 C351 1.392 . S
C351 H323 0.929 . S
C351 C348 1.391 . S
C351 C350 1.392 . S
N352 Co296 2.257 . S
N352 C349 1.391 . S
N352 C353 1.388 . S
C353 H324 0.930 . S
C353 C348 1.391 . S
C353 N352 1.388 . S
Co354 O356 2.143 . S
Co354 O362 2.074 . S
Co354 O365 2.093 . S
Co354 O378 2.097 . S
Co354 N395 2.151 . S
Co354 N403 2.214 . S
Co355 O356 2.160 . S
Co355 O361 2.058 . S
Co355 O371 2.057 . S
Co355 O386 2.037 . S
Co355 N390 2.145 . S
Co355 N411 2.257 . S
O356 Co354 2.143 . S
O356 Co355 2.160 . S
C357 O358 1.278 . S
C357 O365 1.224 . S
O358 C357 1.278 . S
C359 O360 1.245 . S
C359 O371 1.232 . S
O360 C359 1.245 . S
O361 Co355 2.058 . S
O361 C387 1.269 . S
O362 Co354 2.074 . S
O362 C387 1.257 . S
H363 C388 0.930 . S
H364 C394 0.930 . S
O365 Co354 2.093 . S
O365 C357 1.224 . S
H366 C398 0.929 . S
H367 C400 0.930 . S
H368 C401 0.930 . S
H369 C399 0.929 . S
H370 C402 0.928 . S
O371 Co355 2.057 . S
O371 C359 1.232 . S
H372 C391 0.929 . S
H373 C392 0.929 . S
H374 C404 0.931 . S
H375 C396 0.929 . S
H376 C405 0.930 . S
H377 C397 0.931 . S
O378 Co354 2.097 . S
O378 C406 1.214 . S
H379 C407 0.929 . S
H380 C408 0.929 . S
H381 C409 0.930 . S
H382 C410 0.929 . S
H383 C412 0.930 . S
H384 C389 0.930 . S
H385 C393 0.930 . S
O386 Co355 2.037 . S
O386 C406 1.234 . S
C387 O361 1.269 . S
C387 O362 1.257 . S
C388 H363 0.930 . S
C388 C391 1.388 1_554 S
C388 C393 1.418 . S
C389 H384 0.930 . S
C389 C392 1.404 1_554 S
C389 C393 1.353 . S
N390 Co355 2.145 . S
N390 C391 1.397 . S
N390 C392 1.334 . S
C391 H372 0.929 . S
C391 C388 1.388 1_556 S
C391 N390 1.397 . S
C392 H373 0.929 . S
C392 C389 1.404 1_556 S
C392 N390 1.334 . S
C393 H385 0.930 . S
C393 C388 1.418 . S
C393 C389 1.353 . S
C394 H364 0.930 . S
C394 N395 1.330 . S
C394 C396 1.446 . S
N395 Co354 2.151 . S
N395 C394 1.330 . S
N395 C399 1.418 . S
C396 H375 0.929 . S
C396 C394 1.446 . S
C396 C397 1.332 . S
C397 H377 0.931 . S
C397 C396 1.332 . S
C397 C398 1.267 . S
C398 H366 0.929 . S
C398 C397 1.267 . S
C398 C399 1.251 . S
C399 H369 0.929 . S
C399 N395 1.418 . S
C399 C398 1.251 . S
C400 H367 0.930 . S
C400 C402 1.406 . S
C400 C405 1.261 . S
C401 H368 0.930 . S
C401 N403 1.325 . S
C401 C404 1.357 . S
C402 H370 0.928 . S
C402 C400 1.406 . S
C402 N403 1.261 . S
N403 Co354 2.214 . S
N403 C401 1.325 . S
N403 C402 1.261 . S
C404 H374 0.931 . S
C404 C401 1.357 . S
C404 C405 1.312 . S
C405 H376 0.930 . S
C405 C400 1.261 . S
C405 C404 1.312 . S
C406 O378 1.214 . S
C406 O386 1.234 . S
C407 H379 0.929 . S
C407 C410 1.391 . S
C407 C412 1.391 . S
C408 H380 0.929 . S
C408 C409 1.390 . S
C408 N411 1.391 . S
C409 H381 0.930 . S
C409 C408 1.390 . S
C409 C410 1.392 . S
C410 H382 0.929 . S
C410 C407 1.391 . S
C410 C409 1.392 . S
N411 Co355 2.257 . S
N411 C408 1.391 . S
N411 C412 1.388 . S
C412 H383 0.930 . S
C412 C407 1.391 . S
C412 N411 1.388 . S
Co413 O415 2.143 . S
Co413 O421 2.074 . S
Co413 O424 2.093 . S
Co413 O437 2.097 . S
Co413 N454 2.151 . S
Co413 N462 2.214 . S
Co414 O415 2.160 . S
Co414 O420 2.058 . S
Co414 O430 2.057 . S
Co414 O445 2.037 . S
Co414 N449 2.145 . S
Co414 N470 2.257 . S
O415 Co413 2.143 . S
O415 Co414 2.160 . S
C416 O417 1.278 . S
C416 O424 1.224 . S
O417 C416 1.278 . S
C418 O419 1.245 . S
C418 O430 1.232 . S
O419 C418 1.245 . S
O420 Co414 2.058 . S
O420 C446 1.269 . S
O421 Co413 2.074 . S
O421 C446 1.257 . S
H422 C447 0.930 . S
H423 C453 0.930 . S
O424 Co413 2.093 . S
O424 C416 1.224 . S
H425 C457 0.929 . S
H426 C459 0.930 . S
H427 C460 0.930 . S
H428 C458 0.929 . S
H429 C461 0.928 . S
O430 Co414 2.057 . S
O430 C418 1.232 . S
H431 C450 0.929 . S
H432 C451 0.929 . S
H433 C463 0.931 . S
H434 C455 0.929 . S
H435 C464 0.930 . S
H436 C456 0.931 . S
O437 Co413 2.097 . S
O437 C465 1.214 . S
H438 C466 0.929 . S
H439 C467 0.929 . S
H440 C468 0.930 . S
H441 C469 0.929 . S
H442 C471 0.930 . S
H443 C448 0.930 . S
H444 C452 0.930 . S
O445 Co414 2.037 . S
O445 C465 1.234 . S
C446 O420 1.269 . S
C446 O421 1.257 . S
C447 H422 0.930 . S
C447 C450 1.388 . S
C447 C452 1.418 . S
C448 H443 0.930 . S
C448 C451 1.404 . S
C448 C452 1.353 . S
N449 Co414 2.145 . S
N449 C450 1.397 . S
N449 C451 1.334 . S
C450 H431 0.929 . S
C450 C447 1.388 . S
C450 N449 1.397 . S
C451 H432 0.929 . S
C451 C448 1.404 . S
C451 N449 1.334 . S
C452 H444 0.930 . S
C452 C447 1.418 . S
C452 C448 1.353 . S
C453 H423 0.930 . S
C453 N454 1.330 . S
C453 C455 1.446 . S
N454 Co413 2.151 . S
N454 C453 1.330 . S
N454 C458 1.418 . S
C455 H434 0.929 . S
C455 C453 1.446 . S
C455 C456 1.332 . S
C456 H436 0.931 . S
C456 C455 1.332 . S
C456 C457 1.267 . S
C457 H425 0.929 . S
C457 C456 1.267 . S
C457 C458 1.251 . S
C458 H428 0.929 . S
C458 N454 1.418 . S
C458 C457 1.251 . S
C459 H426 0.930 . S
C459 C461 1.406 . S
C459 C464 1.261 . S
C460 H427 0.930 . S
C460 N462 1.325 . S
C460 C463 1.357 . S
C461 H429 0.928 . S
C461 C459 1.406 . S
C461 N462 1.261 . S
N462 Co413 2.214 . S
N462 C460 1.325 . S
N462 C461 1.261 . S
C463 H433 0.931 . S
C463 C460 1.357 . S
C463 C464 1.312 . S
C464 H435 0.930 . S
C464 C459 1.261 . S
C464 C463 1.312 . S
C465 O437 1.214 . S
C465 O445 1.234 . S
C466 H438 0.929 . S
C466 C469 1.391 . S
C466 C471 1.391 . S
C467 H439 0.929 . S
C467 C468 1.390 . S
C467 N470 1.391 . S
C468 H440 0.930 . S
C468 C467 1.390 . S
C468 C469 1.392 . S
C469 H441 0.929 . S
C469 C466 1.391 . S
C469 C468 1.392 . S
N470 Co414 2.257 . S
N470 C467 1.391 . S
N470 C471 1.388 . S
C471 H442 0.930 . S
C471 C466 1.391 . S
C471 N470 1.388 . S
Co472 O474 2.143 . S
Co472 O480 2.074 . S
Co472 O483 2.093 . S
Co472 O496 2.097 . S
Co472 N513 2.151 . S
Co472 N521 2.214 . S
Co473 O474 2.160 . S
Co473 O479 2.058 . S
Co473 O489 2.057 . S
Co473 O504 2.037 . S
Co473 N508 2.145 . S
Co473 N529 2.257 . S
O474 Co472 2.143 . S
O474 Co473 2.160 . S
C475 O476 1.278 . S
C475 O483 1.224 . S
O476 C475 1.278 . S
C477 O478 1.245 . S
C477 O489 1.232 . S
O478 C477 1.245 . S
O479 Co473 2.058 . S
O479 C505 1.269 . S
O480 Co472 2.074 . S
O480 C505 1.257 . S
H481 C506 0.930 . S
H482 C512 0.930 . S
O483 Co472 2.093 . S
O483 C475 1.224 . S
H484 C516 0.929 . S
H485 C518 0.930 . S
H486 C519 0.930 . S
H487 C517 0.929 . S
H488 C520 0.928 . S
O489 Co473 2.057 . S
O489 C477 1.232 . S
H490 C509 0.929 . S
H491 C510 0.929 . S
H492 C522 0.931 . S
H493 C514 0.929 . S
H494 C523 0.930 . S
H495 C515 0.931 . S
O496 Co472 2.097 . S
O496 C524 1.214 . S
H497 C525 0.929 . S
H498 C526 0.929 . S
H499 C527 0.930 . S
H500 C528 0.929 . S
H501 C530 0.930 . S
H502 C507 0.930 . S
H503 C511 0.930 . S
O504 Co473 2.037 . S
O504 C524 1.234 . S
C505 O479 1.269 . S
C505 O480 1.257 . S
C506 H481 0.930 . S
C506 C509 1.388 1_554 S
C506 C511 1.418 . S
C507 H502 0.930 . S
C507 C510 1.404 1_554 S
C507 C511 1.353 . S
N508 Co473 2.145 . S
N508 C509 1.397 . S
N508 C510 1.334 . S
C509 H490 0.929 . S
C509 C506 1.388 1_556 S
C509 N508 1.397 . S
C510 H491 0.929 . S
C510 C507 1.404 1_556 S
C510 N508 1.334 . S
C511 H503 0.930 . S
C511 C506 1.418 . S
C511 C507 1.353 . S
C512 H482 0.930 . S
C512 N513 1.330 . S
C512 C514 1.446 . S
N513 Co472 2.151 . S
N513 C512 1.330 . S
N513 C517 1.418 . S
C514 H493 0.929 . S
C514 C512 1.446 . S
C514 C515 1.332 . S
C515 H495 0.931 . S
C515 C514 1.332 . S
C515 C516 1.267 . S
C516 H484 0.929 . S
C516 C515 1.267 . S
C516 C517 1.251 . S
C517 H487 0.929 . S
C517 N513 1.418 . S
C517 C516 1.251 . S
C518 H485 0.930 . S
C518 C520 1.406 . S
C518 C523 1.261 . S
C519 H486 0.930 . S
C519 N521 1.325 . S
C519 C522 1.357 . S
C520 H488 0.928 . S
C520 C518 1.406 . S
C520 N521 1.261 . S
N521 Co472 2.214 . S
N521 C519 1.325 . S
N521 C520 1.261 . S
C522 H492 0.931 . S
C522 C519 1.357 . S
C522 C523 1.312 . S
C523 H494 0.930 . S
C523 C518 1.261 . S
C523 C522 1.312 . S
C524 O496 1.214 . S
C524 O504 1.234 . S
C525 H497 0.929 . S
C525 C528 1.391 . S
C525 C530 1.391 . S
C526 H498 0.929 . S
C526 C527 1.390 . S
C526 N529 1.391 . S
C527 H499 0.930 . S
C527 C526 1.390 . S
C527 C528 1.392 . S
C528 H500 0.929 . S
C528 C525 1.391 . S
C528 C527 1.392 . S
N529 Co473 2.257 . S
N529 C526 1.391 . S
N529 C530 1.388 . S
C530 H501 0.930 . S
C530 C525 1.391 . S
C530 N529 1.388 . S
Co531 O533 2.143 . S
Co531 O539 2.074 . S
Co531 O542 2.093 . S
Co531 O555 2.097 . S
Co531 N572 2.151 . S
Co531 N580 2.214 . S
Co532 O533 2.160 . S
Co532 O538 2.058 . S
Co532 O548 2.057 . S
Co532 O563 2.037 . S
Co532 N567 2.145 . S
Co532 N588 2.257 . S
O533 Co531 2.143 . S
O533 Co532 2.160 . S
C534 O535 1.278 . S
C534 O542 1.224 . S
O535 C534 1.278 . S
C536 O537 1.245 . S
C536 O548 1.232 . S
O537 C536 1.245 . S
O538 Co532 2.058 . S
O538 C564 1.269 . S
O539 Co531 2.074 . S
O539 C564 1.257 . S
H540 C565 0.930 . S
H541 C571 0.930 . S
O542 Co531 2.093 . S
O542 C534 1.224 . S
H543 C575 0.929 . S
H544 C577 0.930 . S
H545 C578 0.930 . S
H546 C576 0.929 . S
H547 C579 0.928 . S
O548 Co532 2.057 . S
O548 C536 1.232 . S
H549 C568 0.929 . S
H550 C569 0.929 . S
H551 C581 0.931 . S
H552 C573 0.929 . S
H553 C582 0.930 . S
H554 C574 0.931 . S
O555 Co531 2.097 . S
O555 C583 1.214 . S
H556 C584 0.929 . S
H557 C585 0.929 . S
H558 C586 0.930 . S
H559 C587 0.929 . S
H560 C589 0.930 . S
H561 C566 0.930 . S
H562 C570 0.930 . S
O563 Co532 2.037 . S
O563 C583 1.234 . S
C564 O538 1.269 . S
C564 O539 1.257 . S
C565 H540 0.930 . S
C565 C568 1.388 . S
C565 C570 1.418 . S
C566 H561 0.930 . S
C566 C569 1.404 . S
C566 C570 1.353 . S
N567 Co532 2.145 . S
N567 C568 1.397 . S
N567 C569 1.334 . S
C568 H549 0.929 . S
C568 C565 1.388 . S
C568 N567 1.397 . S
C569 H550 0.929 . S
C569 C566 1.404 . S
C569 N567 1.334 . S
C570 H562 0.930 . S
C570 C565 1.418 . S
C570 C566 1.353 . S
C571 H541 0.930 . S
C571 N572 1.330 . S
C571 C573 1.446 . S
N572 Co531 2.151 . S
N572 C571 1.330 . S
N572 C576 1.418 . S
C573 H552 0.929 . S
C573 C571 1.446 . S
C573 C574 1.332 . S
C574 H554 0.931 . S
C574 C573 1.332 . S
C574 C575 1.267 . S
C575 H543 0.929 . S
C575 C574 1.267 . S
C575 C576 1.251 . S
C576 H546 0.929 . S
C576 N572 1.418 . S
C576 C575 1.251 . S
C577 H544 0.930 . S
C577 C579 1.406 . S
C577 C582 1.261 . S
C578 H545 0.930 . S
C578 N580 1.325 . S
C578 C581 1.357 . S
C579 H547 0.928 . S
C579 C577 1.406 . S
C579 N580 1.261 . S
N580 Co531 2.214 . S
N580 C578 1.325 . S
N580 C579 1.261 . S
C581 H551 0.931 . S
C581 C578 1.357 . S
C581 C582 1.312 . S
C582 H553 0.930 . S
C582 C577 1.261 . S
C582 C581 1.312 . S
C583 O555 1.214 . S
C583 O563 1.234 . S
C584 H556 0.929 . S
C584 C587 1.391 . S
C584 C589 1.391 . S
C585 H557 0.929 . S
C585 C586 1.390 . S
C585 N588 1.391 . S
C586 H558 0.930 . S
C586 C585 1.390 . S
C586 C587 1.392 . S
C587 H559 0.929 . S
C587 C584 1.391 . S
C587 C586 1.392 . S
N588 Co532 2.257 . S
N588 C585 1.391 . S
N588 C589 1.388 . S
C589 H560 0.930 . S
C589 C584 1.391 . S
C589 N588 1.388 . S
Co590 O592 2.143 . S
Co590 O598 2.074 . S
Co590 O601 2.093 . S
Co590 O614 2.097 . S
Co590 N631 2.151 . S
Co590 N639 2.214 . S
Co591 O592 2.160 . S
Co591 O597 2.058 . S
Co591 O607 2.057 . S
Co591 O622 2.037 . S
Co591 N626 2.145 . S
Co591 N647 2.257 . S
O592 Co590 2.143 . S
O592 Co591 2.160 . S
C593 O594 1.278 . S
C593 O601 1.224 . S
O594 C593 1.278 . S
C595 O596 1.245 . S
C595 O607 1.232 . S
O596 C595 1.245 . S
O597 Co591 2.058 . S
O597 C623 1.269 . S
O598 Co590 2.074 . S
O598 C623 1.257 . S
H599 C624 0.930 . S
H600 C630 0.930 . S
O601 Co590 2.093 . S
O601 C593 1.224 . S
H602 C634 0.929 . S
H603 C636 0.930 . S
H604 C637 0.930 . S
H605 C635 0.929 . S
H606 C638 0.928 . S
O607 Co591 2.057 . S
O607 C595 1.232 . S
H608 C627 0.929 . S
H609 C628 0.929 . S
H610 C640 0.931 . S
H611 C632 0.929 . S
H612 C641 0.930 . S
H613 C633 0.931 . S
O614 Co590 2.097 . S
O614 C642 1.214 . S
H615 C643 0.929 . S
H616 C644 0.929 . S
H617 C645 0.930 . S
H618 C646 0.929 . S
H619 C648 0.930 . S
H620 C625 0.930 . S
H621 C629 0.930 . S
O622 Co591 2.037 . S
O622 C642 1.234 . S
C623 O597 1.269 . S
C623 O598 1.257 . S
C624 H599 0.930 . S
C624 C627 1.388 1_554 S
C624 C629 1.418 . S
C625 H620 0.930 . S
C625 C628 1.404 1_554 S
C625 C629 1.353 . S
N626 Co591 2.145 . S
N626 C627 1.397 . S
N626 C628 1.334 . S
C627 H608 0.929 . S
C627 C624 1.388 1_556 S
C627 N626 1.397 . S
C628 H609 0.929 . S
C628 C625 1.404 1_556 S
C628 N626 1.334 . S
C629 H621 0.930 . S
C629 C624 1.418 . S
C629 C625 1.353 . S
C630 H600 0.930 . S
C630 N631 1.330 . S
C630 C632 1.446 . S
N631 Co590 2.151 . S
N631 C630 1.330 . S
N631 C635 1.418 . S
C632 H611 0.929 . S
C632 C630 1.446 . S
C632 C633 1.332 . S
C633 H613 0.931 . S
C633 C632 1.332 . S
C633 C634 1.267 . S
C634 H602 0.929 . S
C634 C633 1.267 . S
C634 C635 1.251 . S
C635 H605 0.929 . S
C635 N631 1.418 . S
C635 C634 1.251 . S
C636 H603 0.930 . S
C636 C638 1.406 . S
C636 C641 1.261 . S
C637 H604 0.930 . S
C637 N639 1.325 . S
C637 C640 1.357 . S
C638 H606 0.928 . S
C638 C636 1.406 . S
C638 N639 1.261 . S
N639 Co590 2.214 . S
N639 C637 1.325 . S
N639 C638 1.261 . S
C640 H610 0.931 . S
C640 C637 1.357 . S
C640 C641 1.312 . S
C641 H612 0.930 . S
C641 C636 1.261 . S
C641 C640 1.312 . S
C642 O614 1.214 . S
C642 O622 1.234 . S
C643 H615 0.929 . S
C643 C646 1.391 . S
C643 C648 1.391 . S
C644 H616 0.929 . S
C644 C645 1.390 . S
C644 N647 1.391 . S
C645 H617 0.930 . S
C645 C644 1.390 . S
C645 C646 1.392 . S
C646 H618 0.929 . S
C646 C643 1.391 . S
C646 C645 1.392 . S
N647 Co591 2.257 . S
N647 C644 1.391 . S
N647 C648 1.388 . S
C648 H619 0.930 . S
C648 C643 1.391 . S
C648 N647 1.388 . S
Co649 O651 2.143 . S
Co649 O657 2.074 . S
Co649 O660 2.093 . S
Co649 O673 2.097 . S
Co649 N690 2.151 . S
Co649 N698 2.214 . S
Co650 O651 2.160 . S
Co650 O656 2.058 . S
Co650 O666 2.057 . S
Co650 O681 2.037 . S
Co650 N685 2.145 . S
Co650 N706 2.257 . S
O651 Co649 2.143 . S
O651 Co650 2.160 . S
C652 O653 1.278 . S
C652 O660 1.224 . S
O653 C652 1.278 . S
C654 O655 1.245 . S
C654 O666 1.232 . S
O655 C654 1.245 . S
O656 Co650 2.058 . S
O656 C682 1.269 . S
O657 Co649 2.074 . S
O657 C682 1.257 . S
H658 C683 0.930 . S
H659 C689 0.930 . S
O660 Co649 2.093 . S
O660 C652 1.224 . S
H661 C693 0.929 . S
H662 C695 0.930 . S
H663 C696 0.930 . S
H664 C694 0.929 . S
H665 C697 0.928 . S
O666 Co650 2.057 . S
O666 C654 1.232 . S
H667 C686 0.929 . S
H668 C687 0.929 . S
H669 C699 0.931 . S
H670 C691 0.929 . S
H671 C700 0.930 . S
H672 C692 0.931 . S
O673 Co649 2.097 . S
O673 C701 1.214 . S
H674 C702 0.929 . S
H675 C703 0.929 . S
H676 C704 0.930 . S
H677 C705 0.929 . S
H678 C707 0.930 . S
H679 C684 0.930 . S
H680 C688 0.930 . S
O681 Co650 2.037 . S
O681 C701 1.234 . S
C682 O656 1.269 . S
C682 O657 1.257 . S
C683 H658 0.930 . S
C683 C686 1.388 . S
C683 C688 1.418 . S
C684 H679 0.930 . S
C684 C687 1.404 . S
C684 C688 1.353 . S
N685 Co650 2.145 . S
N685 C686 1.397 . S
N685 C687 1.334 . S
C686 H667 0.929 . S
C686 C683 1.388 . S
C686 N685 1.397 . S
C687 H668 0.929 . S
C687 C684 1.404 . S
C687 N685 1.334 . S
C688 H680 0.930 . S
C688 C683 1.418 . S
C688 C684 1.353 . S
C689 H659 0.930 . S
C689 N690 1.330 . S
C689 C691 1.446 . S
N690 Co649 2.151 . S
N690 C689 1.330 . S
N690 C694 1.418 . S
C691 H670 0.929 . S
C691 C689 1.446 . S
C691 C692 1.332 . S
C692 H672 0.931 . S
C692 C691 1.332 . S
C692 C693 1.267 . S
C693 H661 0.929 . S
C693 C692 1.267 . S
C693 C694 1.251 . S
C694 H664 0.929 . S
C694 N690 1.418 . S
C694 C693 1.251 . S
C695 H662 0.930 . S
C695 C697 1.406 . S
C695 C700 1.261 . S
C696 H663 0.930 . S
C696 N698 1.325 . S
C696 C699 1.357 . S
C697 H665 0.928 . S
C697 C695 1.406 . S
C697 N698 1.261 . S
N698 Co649 2.214 . S
N698 C696 1.325 . S
N698 C697 1.261 . S
C699 H669 0.931 . S
C699 C696 1.357 . S
C699 C700 1.312 . S
C700 H671 0.930 . S
C700 C695 1.261 . S
C700 C699 1.312 . S
C701 O673 1.214 . S
C701 O681 1.234 . S
C702 H674 0.929 . S
C702 C705 1.391 . S
C702 C707 1.391 . S
C703 H675 0.929 . S
C703 C704 1.390 . S
C703 N706 1.391 . S
C704 H676 0.930 . S
C704 C703 1.390 . S
C704 C705 1.392 . S
C705 H677 0.929 . S
C705 C702 1.391 . S
C705 C704 1.392 . S
N706 Co650 2.257 . S
N706 C703 1.391 . S
N706 C707 1.388 . S
C707 H678 0.930 . S
C707 C702 1.391 . S
C707 N706 1.388 . S
Co708 O710 2.143 . S
Co708 O716 2.074 . S
Co708 O719 2.093 . S
Co708 O732 2.097 . S
Co708 N749 2.151 . S
Co708 N757 2.214 . S
Co709 O710 2.160 . S
Co709 O715 2.058 . S
Co709 O725 2.057 . S
Co709 O740 2.037 . S
Co709 N744 2.145 . S
Co709 N765 2.257 . S
O710 Co708 2.143 . S
O710 Co709 2.160 . S
C711 O712 1.278 . S
C711 O719 1.224 . S
O712 C711 1.278 . S
C713 O714 1.245 . S
C713 O725 1.232 . S
O714 C713 1.245 . S
O715 Co709 2.058 . S
O715 C741 1.269 . S
O716 Co708 2.074 . S
O716 C741 1.257 . S
H717 C742 0.930 . S
H718 C748 0.930 . S
O719 Co708 2.093 . S
O719 C711 1.224 . S
H720 C752 0.929 . S
H721 C754 0.930 . S
H722 C755 0.930 . S
H723 C753 0.929 . S
H724 C756 0.928 . S
O725 Co709 2.057 . S
O725 C713 1.232 . S
H726 C745 0.929 . S
H727 C746 0.929 . S
H728 C758 0.931 . S
H729 C750 0.929 . S
H730 C759 0.930 . S
H731 C751 0.931 . S
O732 Co708 2.097 . S
O732 C760 1.214 . S
H733 C761 0.929 . S
H734 C762 0.929 . S
H735 C763 0.930 . S
H736 C764 0.929 . S
H737 C766 0.930 . S
H738 C743 0.930 . S
H739 C747 0.930 . S
O740 Co709 2.037 . S
O740 C760 1.234 . S
C741 O715 1.269 . S
C741 O716 1.257 . S
C742 H717 0.930 . S
C742 C745 1.388 1_554 S
C742 C747 1.418 . S
C743 H738 0.930 . S
C743 C746 1.404 1_554 S
C743 C747 1.353 . S
N744 Co709 2.145 . S
N744 C745 1.397 . S
N744 C746 1.334 . S
C745 H726 0.929 . S
C745 C742 1.388 1_556 S
C745 N744 1.397 . S
C746 H727 0.929 . S
C746 C743 1.404 1_556 S
C746 N744 1.334 . S
C747 H739 0.930 . S
C747 C742 1.418 . S
C747 C743 1.353 . S
C748 H718 0.930 . S
C748 N749 1.330 . S
C748 C750 1.446 . S
N749 Co708 2.151 . S
N749 C748 1.330 . S
N749 C753 1.418 . S
C750 H729 0.929 . S
C750 C748 1.446 . S
C750 C751 1.332 . S
C751 H731 0.931 . S
C751 C750 1.332 . S
C751 C752 1.267 . S
C752 H720 0.929 . S
C752 C751 1.267 . S
C752 C753 1.251 . S
C753 H723 0.929 . S
C753 N749 1.418 . S
C753 C752 1.251 . S
C754 H721 0.930 . S
C754 C756 1.406 . S
C754 C759 1.261 . S
C755 H722 0.930 . S
C755 N757 1.325 . S
C755 C758 1.357 . S
C756 H724 0.928 . S
C756 C754 1.406 . S
C756 N757 1.261 . S
N757 Co708 2.214 . S
N757 C755 1.325 . S
N757 C756 1.261 . S
C758 H728 0.931 . S
C758 C755 1.357 . S
C758 C759 1.312 . S
C759 H730 0.930 . S
C759 C754 1.261 . S
C759 C758 1.312 . S
C760 O732 1.214 . S
C760 O740 1.234 . S
C761 H733 0.929 . S
C761 C764 1.391 . S
C761 C766 1.391 . S
C762 H734 0.929 . S
C762 C763 1.390 . S
C762 N765 1.391 . S
C763 H735 0.930 . S
C763 C762 1.390 . S
C763 C764 1.392 . S
C764 H736 0.929 . S
C764 C761 1.391 . S
C764 C763 1.392 . S
N765 Co709 2.257 . S
N765 C762 1.391 . S
N765 C766 1.388 . S
C766 H737 0.930 . S
C766 C761 1.391 . S
C766 N765 1.388 . S
Co767 O769 2.143 . S
Co767 O775 2.074 . S
Co767 O778 2.093 . S
Co767 O791 2.097 . S
Co767 N808 2.151 . S
Co767 N816 2.214 . S
Co768 O769 2.160 . S
Co768 O774 2.058 . S
Co768 O784 2.057 . S
Co768 O799 2.037 . S
Co768 N803 2.145 . S
Co768 N824 2.257 . S
O769 Co767 2.143 . S
O769 Co768 2.160 . S
C770 O771 1.278 . S
C770 O778 1.224 . S
O771 C770 1.278 . S
C772 O773 1.245 . S
C772 O784 1.232 . S
O773 C772 1.245 . S
O774 Co768 2.058 . S
O774 C800 1.269 . S
O775 Co767 2.074 . S
O775 C800 1.257 . S
H776 C801 0.930 . S
H777 C807 0.930 . S
O778 Co767 2.093 . S
O778 C770 1.224 . S
H779 C811 0.929 . S
H780 C813 0.930 . S
H781 C814 0.930 . S
H782 C812 0.929 . S
H783 C815 0.928 . S
O784 Co768 2.057 . S
O784 C772 1.232 . S
H785 C804 0.929 . S
H786 C805 0.929 . S
H787 C817 0.931 . S
H788 C809 0.929 . S
H789 C818 0.930 . S
H790 C810 0.931 . S
O791 Co767 2.097 . S
O791 C819 1.214 . S
H792 C820 0.929 . S
H793 C821 0.929 . S
H794 C822 0.930 . S
H795 C823 0.929 . S
H796 C825 0.930 . S
H797 C802 0.930 . S
H798 C806 0.930 . S
O799 Co768 2.037 . S
O799 C819 1.234 . S
C800 O774 1.269 . S
C800 O775 1.257 . S
C801 H776 0.930 . S
C801 C804 1.388 . S
C801 C806 1.418 . S
C802 H797 0.930 . S
C802 C805 1.404 . S
C802 C806 1.353 . S
N803 Co768 2.145 . S
N803 C804 1.397 . S
N803 C805 1.334 . S
C804 H785 0.929 . S
C804 C801 1.388 . S
C804 N803 1.397 . S
C805 H786 0.929 . S
C805 C802 1.404 . S
C805 N803 1.334 . S
C806 H798 0.930 . S
C806 C801 1.418 . S
C806 C802 1.353 . S
C807 H777 0.930 . S
C807 N808 1.330 . S
C807 C809 1.446 . S
N808 Co767 2.151 . S
N808 C807 1.330 . S
N808 C812 1.418 . S
C809 H788 0.929 . S
C809 C807 1.446 . S
C809 C810 1.332 . S
C810 H790 0.931 . S
C810 C809 1.332 . S
C810 C811 1.267 . S
C811 H779 0.929 . S
C811 C810 1.267 . S
C811 C812 1.251 . S
C812 H782 0.929 . S
C812 N808 1.418 . S
C812 C811 1.251 . S
C813 H780 0.930 . S
C813 C815 1.406 . S
C813 C818 1.261 . S
C814 H781 0.930 . S
C814 N816 1.325 . S
C814 C817 1.357 . S
C815 H783 0.928 . S
C815 C813 1.406 . S
C815 N816 1.261 . S
N816 Co767 2.214 . S
N816 C814 1.325 . S
N816 C815 1.261 . S
C817 H787 0.931 . S
C817 C814 1.357 . S
C817 C818 1.312 . S
C818 H789 0.930 . S
C818 C813 1.261 . S
C818 C817 1.312 . S
C819 O791 1.214 . S
C819 O799 1.234 . S
C820 H792 0.929 . S
C820 C823 1.391 . S
C820 C825 1.391 . S
C821 H793 0.929 . S
C821 C822 1.390 . S
C821 N824 1.391 . S
C822 H794 0.930 . S
C822 C821 1.390 . S
C822 C823 1.392 . S
C823 H795 0.929 . S
C823 C820 1.391 . S
C823 C822 1.392 . S
N824 Co768 2.257 . S
N824 C821 1.391 . S
N824 C825 1.388 . S
C825 H796 0.930 . S
C825 C820 1.391 . S
C825 N824 1.388 . S
Co826 O828 2.143 . S
Co826 O834 2.074 . S
Co826 O837 2.093 . S
Co826 O850 2.097 . S
Co826 N867 2.151 . S
Co826 N875 2.214 . S
Co827 O828 2.160 . S
Co827 O833 2.058 . S
Co827 O843 2.057 . S
Co827 O858 2.037 . S
Co827 N862 2.145 . S
Co827 N883 2.257 . S
O828 Co826 2.143 . S
O828 Co827 2.160 . S
C829 O830 1.278 . S
C829 O837 1.224 . S
O830 C829 1.278 . S
C831 O832 1.245 . S
C831 O843 1.232 . S
O832 C831 1.245 . S
O833 Co827 2.058 . S
O833 C859 1.269 . S
O834 Co826 2.074 . S
O834 C859 1.257 . S
H835 C860 0.930 . S
H836 C866 0.930 . S
O837 Co826 2.093 . S
O837 C829 1.224 . S
H838 C870 0.929 . S
H839 C872 0.930 . S
H840 C873 0.930 . S
H841 C871 0.929 . S
H842 C874 0.928 . S
O843 Co827 2.057 . S
O843 C831 1.232 . S
H844 C863 0.929 . S
H845 C864 0.929 . S
H846 C876 0.931 . S
H847 C868 0.929 . S
H848 C877 0.930 . S
H849 C869 0.931 . S
O850 Co826 2.097 . S
O850 C878 1.214 . S
H851 C879 0.929 . S
H852 C880 0.929 . S
H853 C881 0.930 . S
H854 C882 0.929 . S
H855 C884 0.930 . S
H856 C861 0.930 . S
H857 C865 0.930 . S
O858 Co827 2.037 . S
O858 C878 1.234 . S
C859 O833 1.269 . S
C859 O834 1.257 . S
C860 H835 0.930 . S
C860 C863 1.388 1_554 S
C860 C865 1.418 . S
C861 H856 0.930 . S
C861 C864 1.404 1_554 S
C861 C865 1.353 . S
N862 Co827 2.145 . S
N862 C863 1.397 . S
N862 C864 1.334 . S
C863 H844 0.929 . S
C863 C860 1.388 1_556 S
C863 N862 1.397 . S
C864 H845 0.929 . S
C864 C861 1.404 1_556 S
C864 N862 1.334 . S
C865 H857 0.930 . S
C865 C860 1.418 . S
C865 C861 1.353 . S
C866 H836 0.930 . S
C866 N867 1.330 . S
C866 C868 1.446 . S
N867 Co826 2.151 . S
N867 C866 1.330 . S
N867 C871 1.418 . S
C868 H847 0.929 . S
C868 C866 1.446 . S
C868 C869 1.332 . S
C869 H849 0.931 . S
C869 C868 1.332 . S
C869 C870 1.267 . S
C870 H838 0.929 . S
C870 C869 1.267 . S
C870 C871 1.251 . S
C871 H841 0.929 . S
C871 N867 1.418 . S
C871 C870 1.251 . S
C872 H839 0.930 . S
C872 C874 1.406 . S
C872 C877 1.261 . S
C873 H840 0.930 . S
C873 N875 1.325 . S
C873 C876 1.357 . S
C874 H842 0.928 . S
C874 C872 1.406 . S
C874 N875 1.261 . S
N875 Co826 2.214 . S
N875 C873 1.325 . S
N875 C874 1.261 . S
C876 H846 0.931 . S
C876 C873 1.357 . S
C876 C877 1.312 . S
C877 H848 0.930 . S
C877 C872 1.261 . S
C877 C876 1.312 . S
C878 O850 1.214 . S
C878 O858 1.234 . S
C879 H851 0.929 . S
C879 C882 1.391 . S
C879 C884 1.391 . S
C880 H852 0.929 . S
C880 C881 1.390 . S
C880 N883 1.391 . S
C881 H853 0.930 . S
C881 C880 1.390 . S
C881 C882 1.392 . S
C882 H854 0.929 . S
C882 C879 1.391 . S
C882 C881 1.392 . S
N883 Co827 2.257 . S
N883 C880 1.391 . S
N883 C884 1.388 . S
C884 H855 0.930 . S
C884 C879 1.391 . S
C884 N883 1.388 . S
Co885 O887 2.143 . S
Co885 O893 2.074 . S
Co885 O896 2.093 . S
Co885 O909 2.097 . S
Co885 N926 2.151 . S
Co885 N934 2.214 . S
Co886 O887 2.160 . S
Co886 O892 2.058 . S
Co886 O902 2.057 . S
Co886 O917 2.037 . S
Co886 N921 2.145 . S
Co886 N942 2.257 . S
O887 Co885 2.143 . S
O887 Co886 2.160 . S
C888 O889 1.278 . S
C888 O896 1.224 . S
O889 C888 1.278 . S
C890 O891 1.245 . S
C890 O902 1.232 . S
O891 C890 1.245 . S
O892 Co886 2.058 . S
O892 C918 1.269 . S
O893 Co885 2.074 . S
O893 C918 1.257 . S
H894 C919 0.930 . S
H895 C925 0.930 . S
O896 Co885 2.093 . S
O896 C888 1.224 . S
H897 C929 0.929 . S
H898 C931 0.930 . S
H899 C932 0.930 . S
H900 C930 0.929 . S
H901 C933 0.928 . S
O902 Co886 2.057 . S
O902 C890 1.232 . S
H903 C922 0.929 . S
H904 C923 0.929 . S
H905 C935 0.931 . S
H906 C927 0.929 . S
H907 C936 0.930 . S
H908 C928 0.931 . S
O909 Co885 2.097 . S
O909 C937 1.214 . S
H910 C938 0.929 . S
H911 C939 0.929 . S
H912 C940 0.930 . S
H913 C941 0.929 . S
H914 C943 0.930 . S
H915 C920 0.930 . S
H916 C924 0.930 . S
O917 Co886 2.037 . S
O917 C937 1.234 . S
C918 O892 1.269 . S
C918 O893 1.257 . S
C919 H894 0.930 . S
C919 C922 1.388 . S
C919 C924 1.418 . S
C920 H915 0.930 . S
C920 C923 1.404 . S
C920 C924 1.353 . S
N921 Co886 2.145 . S
N921 C922 1.397 . S
N921 C923 1.334 . S
C922 H903 0.929 . S
C922 C919 1.388 . S
C922 N921 1.397 . S
C923 H904 0.929 . S
C923 C920 1.404 . S
C923 N921 1.334 . S
C924 H916 0.930 . S
C924 C919 1.418 . S
C924 C920 1.353 . S
C925 H895 0.930 . S
C925 N926 1.330 . S
C925 C927 1.446 . S
N926 Co885 2.151 . S
N926 C925 1.330 . S
N926 C930 1.418 . S
C927 H906 0.929 . S
C927 C925 1.446 . S
C927 C928 1.332 . S
C928 H908 0.931 . S
C928 C927 1.332 . S
C928 C929 1.267 . S
C929 H897 0.929 . S
C929 C928 1.267 . S
C929 C930 1.251 . S
C930 H900 0.929 . S
C930 N926 1.418 . S
C930 C929 1.251 . S
C931 H898 0.930 . S
C931 C933 1.406 . S
C931 C936 1.261 . S
C932 H899 0.930 . S
C932 N934 1.325 . S
C932 C935 1.357 . S
C933 H901 0.928 . S
C933 C931 1.406 . S
C933 N934 1.261 . S
N934 Co885 2.214 . S
N934 C932 1.325 . S
N934 C933 1.261 . S
C935 H905 0.931 . S
C935 C932 1.357 . S
C935 C936 1.312 . S
C936 H907 0.930 . S
C936 C931 1.261 . S
C936 C935 1.312 . S
C937 O909 1.214 . S
C937 O917 1.234 . S
C938 H910 0.929 . S
C938 C941 1.391 . S
C938 C943 1.391 . S
C939 H911 0.929 . S
C939 C940 1.390 . S
C939 N942 1.391 . S
C940 H912 0.930 . S
C940 C939 1.390 . S
C940 C941 1.392 . S
C941 H913 0.929 . S
C941 C938 1.391 . S
C941 C940 1.392 . S
N942 Co886 2.257 . S
N942 C939 1.391 . S
N942 C943 1.388 . S
C943 H914 0.930 . S
C943 C938 1.391 . S
C943 N942 1.388 . S
Co944 O946 2.143 . S
Co944 O952 2.074 . S
Co944 O955 2.093 . S
Co944 O968 2.097 . S
Co944 N985 2.151 . S
Co944 N993 2.214 . S
Co945 O946 2.160 . S
Co945 O951 2.058 . S
Co945 O961 2.057 . S
Co945 O976 2.037 . S
Co945 N980 2.145 . S
Co945 N1001 2.257 . S
O946 Co944 2.143 . S
O946 Co945 2.160 . S
C947 O948 1.278 . S
C947 O955 1.224 . S
O948 C947 1.278 . S
C949 O950 1.245 . S
C949 O961 1.232 . S
O950 C949 1.245 . S
O951 Co945 2.058 . S
O951 C977 1.269 . S
O952 Co944 2.074 . S
O952 C977 1.257 . S
H953 C978 0.930 . S
H954 C984 0.930 . S
O955 Co944 2.093 . S
O955 C947 1.224 . S
H956 C988 0.929 . S
H957 C990 0.930 . S
H958 C991 0.930 . S
H959 C989 0.929 . S
H960 C992 0.928 . S
O961 Co945 2.057 . S
O961 C949 1.232 . S
H962 C981 0.929 . S
H963 C982 0.929 . S
H964 C994 0.931 . S
H965 C986 0.929 . S
H966 C995 0.930 . S
H967 C987 0.931 . S
O968 Co944 2.097 . S
O968 C996 1.214 . S
H969 C997 0.929 . S
H970 C998 0.929 . S
H971 C999 0.930 . S
H972 C1000 0.929 . S
H973 C1002 0.930 . S
H974 C979 0.930 . S
H975 C983 0.930 . S
O976 Co945 2.037 . S
O976 C996 1.234 . S
C977 O951 1.269 . S
C977 O952 1.257 . S
C978 H953 0.930 . S
C978 C981 1.388 1_554 S
C978 C983 1.418 . S
C979 H974 0.930 . S
C979 C982 1.404 1_554 S
C979 C983 1.353 . S
N980 Co945 2.145 . S
N980 C981 1.397 . S
N980 C982 1.334 . S
C981 H962 0.929 . S
C981 C978 1.388 1_556 S
C981 N980 1.397 . S
C982 H963 0.929 . S
C982 C979 1.404 1_556 S
C982 N980 1.334 . S
C983 H975 0.930 . S
C983 C978 1.418 . S
C983 C979 1.353 . S
C984 H954 0.930 . S
C984 N985 1.330 . S
C984 C986 1.446 . S
N985 Co944 2.151 . S
N985 C984 1.330 . S
N985 C989 1.418 . S
C986 H965 0.929 . S
C986 C984 1.446 . S
C986 C987 1.332 . S
C987 H967 0.931 . S
C987 C986 1.332 . S
C987 C988 1.267 . S
C988 H956 0.929 . S
C988 C987 1.267 . S
C988 C989 1.251 . S
C989 H959 0.929 . S
C989 N985 1.418 . S
C989 C988 1.251 . S
C990 H957 0.930 . S
C990 C992 1.406 . S
C990 C995 1.261 . S
C991 H958 0.930 . S
C991 N993 1.325 . S
C991 C994 1.357 . S
C992 H960 0.928 . S
C992 C990 1.406 . S
C992 N993 1.261 . S
N993 Co944 2.214 . S
N993 C991 1.325 . S
N993 C992 1.261 . S
C994 H964 0.931 . S
C994 C991 1.357 . S
C994 C995 1.312 . S
C995 H966 0.930 . S
C995 C990 1.261 . S
C995 C994 1.312 . S
C996 O968 1.214 . S
C996 O976 1.234 . S
C997 H969 0.929 . S
C997 C1000 1.391 . S
C997 C1002 1.391 . S
C998 H970 0.929 . S
C998 C999 1.390 . S
C998 N1001 1.391 . S
C999 H971 0.930 . S
C999 C998 1.390 . S
C999 C1000 1.392 . S
C1000 H972 0.929 . S
C1000 C997 1.391 . S
C1000 C999 1.392 . S
N1001 Co945 2.257 . S
N1001 C998 1.391 . S
N1001 C1002 1.388 . S
C1002 H973 0.930 . S
C1002 C997 1.391 . S
C1002 N1001 1.388 . S
Co1003 O1005 2.143 . S
Co1003 O1011 2.074 . S
Co1003 O1014 2.093 . S
Co1003 O1027 2.097 . S
Co1003 N1044 2.151 . S
Co1003 N1052 2.214 . S
Co1004 O1005 2.160 . S
Co1004 O1010 2.058 . S
Co1004 O1020 2.057 . S
Co1004 O1035 2.037 . S
Co1004 N1039 2.145 . S
Co1004 N1060 2.257 . S
O1005 Co1003 2.143 . S
O1005 Co1004 2.160 . S
C1006 O1007 1.278 . S
C1006 O1014 1.224 . S
O1007 C1006 1.278 . S
C1008 O1009 1.245 . S
C1008 O1020 1.232 . S
O1009 C1008 1.245 . S
O1010 Co1004 2.058 . S
O1010 C1036 1.269 . S
O1011 Co1003 2.074 . S
O1011 C1036 1.257 . S
H1012 C1037 0.930 . S
H1013 C1043 0.930 . S
O1014 Co1003 2.093 . S
O1014 C1006 1.224 . S
H1015 C1047 0.929 . S
H1016 C1049 0.930 . S
H1017 C1050 0.930 . S
H1018 C1048 0.929 . S
H1019 C1051 0.928 . S
O1020 Co1004 2.057 . S
O1020 C1008 1.232 . S
H1021 C1040 0.929 . S
H1022 C1041 0.929 . S
H1023 C1053 0.931 . S
H1024 C1045 0.929 . S
H1025 C1054 0.930 . S
H1026 C1046 0.931 . S
O1027 Co1003 2.097 . S
O1027 C1055 1.214 . S
H1028 C1056 0.929 . S
H1029 C1057 0.929 . S
H1030 C1058 0.930 . S
H1031 C1059 0.929 . S
H1032 C1061 0.930 . S
H1033 C1038 0.930 . S
H1034 C1042 0.930 . S
O1035 Co1004 2.037 . S
O1035 C1055 1.234 . S
C1036 O1010 1.269 . S
C1036 O1011 1.257 . S
C1037 H1012 0.930 . S
C1037 C1040 1.388 . S
C1037 C1042 1.418 . S
C1038 H1033 0.930 . S
C1038 C1041 1.404 . S
C1038 C1042 1.353 . S
N1039 Co1004 2.145 . S
N1039 C1040 1.397 . S
N1039 C1041 1.334 . S
C1040 H1021 0.929 . S
C1040 C1037 1.388 . S
C1040 N1039 1.397 . S
C1041 H1022 0.929 . S
C1041 C1038 1.404 . S
C1041 N1039 1.334 . S
C1042 H1034 0.930 . S
C1042 C1037 1.418 . S
C1042 C1038 1.353 . S
C1043 H1013 0.930 . S
C1043 N1044 1.330 . S
C1043 C1045 1.446 . S
N1044 Co1003 2.151 . S
N1044 C1043 1.330 . S
N1044 C1048 1.418 . S
C1045 H1024 0.929 . S
C1045 C1043 1.446 . S
C1045 C1046 1.332 . S
C1046 H1026 0.931 . S
C1046 C1045 1.332 . S
C1046 C1047 1.267 . S
C1047 H1015 0.929 . S
C1047 C1046 1.267 . S
C1047 C1048 1.251 . S
C1048 H1018 0.929 . S
C1048 N1044 1.418 . S
C1048 C1047 1.251 . S
C1049 H1016 0.930 . S
C1049 C1051 1.406 . S
C1049 C1054 1.261 . S
C1050 H1017 0.930 . S
C1050 N1052 1.325 . S
C1050 C1053 1.357 . S
C1051 H1019 0.928 . S
C1051 C1049 1.406 . S
C1051 N1052 1.261 . S
N1052 Co1003 2.214 . S
N1052 C1050 1.325 . S
N1052 C1051 1.261 . S
C1053 H1023 0.931 . S
C1053 C1050 1.357 . S
C1053 C1054 1.312 . S
C1054 H1025 0.930 . S
C1054 C1049 1.261 . S
C1054 C1053 1.312 . S
C1055 O1027 1.214 . S
C1055 O1035 1.234 . S
C1056 H1028 0.929 . S
C1056 C1059 1.391 . S
C1056 C1061 1.391 . S
C1057 H1029 0.929 . S
C1057 C1058 1.390 . S
C1057 N1060 1.391 . S
C1058 H1030 0.930 . S
C1058 C1057 1.390 . S
C1058 C1059 1.392 . S
C1059 H1031 0.929 . S
C1059 C1056 1.391 . S
C1059 C1058 1.392 . S
N1060 Co1004 2.257 . S
N1060 C1057 1.391 . S
N1060 C1061 1.388 . S
C1061 H1032 0.930 . S
C1061 C1056 1.391 . S
C1061 N1060 1.388 . S
Co1062 O1064 2.143 . S
Co1062 O1070 2.074 . S
Co1062 O1073 2.093 . S
Co1062 O1086 2.097 . S
Co1062 N1103 2.151 . S
Co1062 N1111 2.214 . S
Co1063 O1064 2.160 . S
Co1063 O1069 2.058 . S
Co1063 O1079 2.057 . S
Co1063 O1094 2.037 . S
Co1063 N1098 2.145 . S
Co1063 N1119 2.257 . S
O1064 Co1062 2.143 . S
O1064 Co1063 2.160 . S
C1065 O1066 1.278 . S
C1065 O1073 1.224 . S
O1066 C1065 1.278 . S
C1067 O1068 1.245 . S
C1067 O1079 1.232 . S
O1068 C1067 1.245 . S
O1069 Co1063 2.058 . S
O1069 C1095 1.269 . S
O1070 Co1062 2.074 . S
O1070 C1095 1.257 . S
H1071 C1096 0.930 . S
H1072 C1102 0.930 . S
O1073 Co1062 2.093 . S
O1073 C1065 1.224 . S
H1074 C1106 0.929 . S
H1075 C1108 0.930 . S
H1076 C1109 0.930 . S
H1077 C1107 0.929 . S
H1078 C1110 0.928 . S
O1079 Co1063 2.057 . S
O1079 C1067 1.232 . S
H1080 C1099 0.929 . S
H1081 C1100 0.929 . S
H1082 C1112 0.931 . S
H1083 C1104 0.929 . S
H1084 C1113 0.930 . S
H1085 C1105 0.931 . S
O1086 Co1062 2.097 . S
O1086 C1114 1.214 . S
H1087 C1115 0.929 . S
H1088 C1116 0.929 . S
H1089 C1117 0.930 . S
H1090 C1118 0.929 . S
H1091 C1120 0.930 . S
H1092 C1097 0.930 . S
H1093 C1101 0.930 . S
O1094 Co1063 2.037 . S
O1094 C1114 1.234 . S
C1095 O1069 1.269 . S
C1095 O1070 1.257 . S
C1096 H1071 0.930 . S
C1096 C1099 1.388 1_556 S
C1096 C1101 1.418 . S
C1097 H1092 0.930 . S
C1097 C1100 1.404 1_556 S
C1097 C1101 1.353 . S
N1098 Co1063 2.145 . S
N1098 C1099 1.397 . S
N1098 C1100 1.334 . S
C1099 H1080 0.929 . S
C1099 C1096 1.388 1_554 S
C1099 N1098 1.397 . S
C1100 H1081 0.929 . S
C1100 C1097 1.404 1_554 S
C1100 N1098 1.334 . S
C1101 H1093 0.930 . S
C1101 C1096 1.418 . S
C1101 C1097 1.353 . S
C1102 H1072 0.930 . S
C1102 N1103 1.330 . S
C1102 C1104 1.446 . S
N1103 Co1062 2.151 . S
N1103 C1102 1.330 . S
N1103 C1107 1.418 . S
C1104 H1083 0.929 . S
C1104 C1102 1.446 . S
C1104 C1105 1.332 . S
C1105 H1085 0.931 . S
C1105 C1104 1.332 . S
C1105 C1106 1.267 . S
C1106 H1074 0.929 . S
C1106 C1105 1.267 . S
C1106 C1107 1.251 . S
C1107 H1077 0.929 . S
C1107 N1103 1.418 . S
C1107 C1106 1.251 . S
C1108 H1075 0.930 . S
C1108 C1110 1.406 . S
C1108 C1113 1.261 . S
C1109 H1076 0.930 . S
C1109 N1111 1.325 . S
C1109 C1112 1.357 . S
C1110 H1078 0.928 . S
C1110 C1108 1.406 . S
C1110 N1111 1.261 . S
N1111 Co1062 2.214 . S
N1111 C1109 1.325 . S
N1111 C1110 1.261 . S
C1112 H1082 0.931 . S
C1112 C1109 1.357 . S
C1112 C1113 1.312 . S
C1113 H1084 0.930 . S
C1113 C1108 1.261 . S
C1113 C1112 1.312 . S
C1114 O1086 1.214 . S
C1114 O1094 1.234 . S
C1115 H1087 0.929 . S
C1115 C1118 1.391 . S
C1115 C1120 1.391 . S
C1116 H1088 0.929 . S
C1116 C1117 1.390 . S
C1116 N1119 1.391 . S
C1117 H1089 0.930 . S
C1117 C1116 1.390 . S
C1117 C1118 1.392 . S
C1118 H1090 0.929 . S
C1118 C1115 1.391 . S
C1118 C1117 1.392 . S
N1119 Co1063 2.257 . S
N1119 C1116 1.391 . S
N1119 C1120 1.388 . S
C1120 H1091 0.930 . S
C1120 C1115 1.391 . S
C1120 N1119 1.388 . S
Co1121 O1123 2.143 . S
Co1121 O1129 2.074 . S
Co1121 O1132 2.093 . S
Co1121 O1145 2.097 . S
Co1121 N1162 2.151 . S
Co1121 N1170 2.214 . S
Co1122 O1123 2.160 . S
Co1122 O1128 2.058 . S
Co1122 O1138 2.057 . S
Co1122 O1153 2.037 . S
Co1122 N1157 2.145 . S
Co1122 N1178 2.257 . S
O1123 Co1121 2.143 . S
O1123 Co1122 2.160 . S
C1124 O1125 1.278 . S
C1124 O1132 1.224 . S
O1125 C1124 1.278 . S
C1126 O1127 1.245 . S
C1126 O1138 1.232 . S
O1127 C1126 1.245 . S
O1128 Co1122 2.058 . S
O1128 C1154 1.269 . S
O1129 Co1121 2.074 . S
O1129 C1154 1.257 . S
H1130 C1155 0.930 . S
H1131 C1161 0.930 . S
O1132 Co1121 2.093 . S
O1132 C1124 1.224 . S
H1133 C1165 0.929 . S
H1134 C1167 0.930 . S
H1135 C1168 0.930 . S
H1136 C1166 0.929 . S
H1137 C1169 0.928 . S
O1138 Co1122 2.057 . S
O1138 C1126 1.232 . S
H1139 C1158 0.929 . S
H1140 C1159 0.929 . S
H1141 C1171 0.931 . S
H1142 C1163 0.929 . S
H1143 C1172 0.930 . S
H1144 C1164 0.931 . S
O1145 Co1121 2.097 . S
O1145 C1173 1.214 . S
H1146 C1174 0.929 . S
H1147 C1175 0.929 . S
H1148 C1176 0.930 . S
H1149 C1177 0.929 . S
H1150 C1179 0.930 . S
H1151 C1156 0.930 . S
H1152 C1160 0.930 . S
O1153 Co1122 2.037 . S
O1153 C1173 1.234 . S
C1154 O1128 1.269 . S
C1154 O1129 1.257 . S
C1155 H1130 0.930 . S
C1155 C1158 1.388 . S
C1155 C1160 1.418 . S
C1156 H1151 0.930 . S
C1156 C1159 1.404 . S
C1156 C1160 1.353 . S
N1157 Co1122 2.145 . S
N1157 C1158 1.397 . S
N1157 C1159 1.334 . S
C1158 H1139 0.929 . S
C1158 C1155 1.388 . S
C1158 N1157 1.397 . S
C1159 H1140 0.929 . S
C1159 C1156 1.404 . S
C1159 N1157 1.334 . S
C1160 H1152 0.930 . S
C1160 C1155 1.418 . S
C1160 C1156 1.353 . S
C1161 H1131 0.930 . S
C1161 N1162 1.330 . S
C1161 C1163 1.446 . S
N1162 Co1121 2.151 . S
N1162 C1161 1.330 . S
N1162 C1166 1.418 . S
C1163 H1142 0.929 . S
C1163 C1161 1.446 . S
C1163 C1164 1.332 . S
C1164 H1144 0.931 . S
C1164 C1163 1.332 . S
C1164 C1165 1.267 . S
C1165 H1133 0.929 . S
C1165 C1164 1.267 . S
C1165 C1166 1.251 . S
C1166 H1136 0.929 . S
C1166 N1162 1.418 . S
C1166 C1165 1.251 . S
C1167 H1134 0.930 . S
C1167 C1169 1.406 . S
C1167 C1172 1.261 . S
C1168 H1135 0.930 . S
C1168 N1170 1.325 . S
C1168 C1171 1.357 . S
C1169 H1137 0.928 . S
C1169 C1167 1.406 . S
C1169 N1170 1.261 . S
N1170 Co1121 2.214 . S
N1170 C1168 1.325 . S
N1170 C1169 1.261 . S
C1171 H1141 0.931 . S
C1171 C1168 1.357 . S
C1171 C1172 1.312 . S
C1172 H1143 0.930 . S
C1172 C1167 1.261 . S
C1172 C1171 1.312 . S
C1173 O1145 1.214 . S
C1173 O1153 1.234 . S
C1174 H1146 0.929 . S
C1174 C1177 1.391 . S
C1174 C1179 1.391 . S
C1175 H1147 0.929 . S
C1175 C1176 1.390 . S
C1175 N1178 1.391 . S
C1176 H1148 0.930 . S
C1176 C1175 1.390 . S
C1176 C1177 1.392 . S
C1177 H1149 0.929 . S
C1177 C1174 1.391 . S
C1177 C1176 1.392 . S
N1178 Co1122 2.257 . S
N1178 C1175 1.391 . S
N1178 C1179 1.388 . S
C1179 H1150 0.930 . S
C1179 C1174 1.391 . S
C1179 N1178 1.388 . S
Co1180 O1182 2.143 . S
Co1180 O1188 2.074 . S
Co1180 O1191 2.093 . S
Co1180 O1204 2.097 . S
Co1180 N1221 2.151 . S
Co1180 N1229 2.214 . S
Co1181 O1182 2.160 . S
Co1181 O1187 2.058 . S
Co1181 O1197 2.057 . S
Co1181 O1212 2.037 . S
Co1181 N1216 2.145 . S
Co1181 N1237 2.257 . S
O1182 Co1180 2.143 . S
O1182 Co1181 2.160 . S
C1183 O1184 1.278 . S
C1183 O1191 1.224 . S
O1184 C1183 1.278 . S
C1185 O1186 1.245 . S
C1185 O1197 1.232 . S
O1186 C1185 1.245 . S
O1187 Co1181 2.058 . S
O1187 C1213 1.269 . S
O1188 Co1180 2.074 . S
O1188 C1213 1.257 . S
H1189 C1214 0.930 . S
H1190 C1220 0.930 . S
O1191 Co1180 2.093 . S
O1191 C1183 1.224 . S
H1192 C1224 0.929 . S
H1193 C1226 0.930 . S
H1194 C1227 0.930 . S
H1195 C1225 0.929 . S
H1196 C1228 0.928 . S
O1197 Co1181 2.057 . S
O1197 C1185 1.232 . S
H1198 C1217 0.929 . S
H1199 C1218 0.929 . S
H1200 C1230 0.931 . S
H1201 C1222 0.929 . S
H1202 C1231 0.930 . S
H1203 C1223 0.931 . S
O1204 Co1180 2.097 . S
O1204 C1232 1.214 . S
H1205 C1233 0.929 . S
H1206 C1234 0.929 . S
H1207 C1235 0.930 . S
H1208 C1236 0.929 . S
H1209 C1238 0.930 . S
H1210 C1215 0.930 . S
H1211 C1219 0.930 . S
O1212 Co1181 2.037 . S
O1212 C1232 1.234 . S
C1213 O1187 1.269 . S
C1213 O1188 1.257 . S
C1214 H1189 0.930 . S
C1214 C1217 1.388 1_556 S
C1214 C1219 1.418 . S
C1215 H1210 0.930 . S
C1215 C1218 1.404 1_556 S
C1215 C1219 1.353 . S
N1216 Co1181 2.145 . S
N1216 C1217 1.397 . S
N1216 C1218 1.334 . S
C1217 H1198 0.929 . S
C1217 C1214 1.388 1_554 S
C1217 N1216 1.397 . S
C1218 H1199 0.929 . S
C1218 C1215 1.404 1_554 S
C1218 N1216 1.334 . S
C1219 H1211 0.930 . S
C1219 C1214 1.418 . S
C1219 C1215 1.353 . S
C1220 H1190 0.930 . S
C1220 N1221 1.330 . S
C1220 C1222 1.446 . S
N1221 Co1180 2.151 . S
N1221 C1220 1.330 . S
N1221 C1225 1.418 . S
C1222 H1201 0.929 . S
C1222 C1220 1.446 . S
C1222 C1223 1.332 . S
C1223 H1203 0.931 . S
C1223 C1222 1.332 . S
C1223 C1224 1.267 . S
C1224 H1192 0.929 . S
C1224 C1223 1.267 . S
C1224 C1225 1.251 . S
C1225 H1195 0.929 . S
C1225 N1221 1.418 . S
C1225 C1224 1.251 . S
C1226 H1193 0.930 . S
C1226 C1228 1.406 . S
C1226 C1231 1.261 . S
C1227 H1194 0.930 . S
C1227 N1229 1.325 . S
C1227 C1230 1.357 . S
C1228 H1196 0.928 . S
C1228 C1226 1.406 . S
C1228 N1229 1.261 . S
N1229 Co1180 2.214 . S
N1229 C1227 1.325 . S
N1229 C1228 1.261 . S
C1230 H1200 0.931 . S
C1230 C1227 1.357 . S
C1230 C1231 1.312 . S
C1231 H1202 0.930 . S
C1231 C1226 1.261 . S
C1231 C1230 1.312 . S
C1232 O1204 1.214 . S
C1232 O1212 1.234 . S
C1233 H1205 0.929 . S
C1233 C1236 1.391 . S
C1233 C1238 1.391 . S
C1234 H1206 0.929 . S
C1234 C1235 1.390 . S
C1234 N1237 1.391 . S
C1235 H1207 0.930 . S
C1235 C1234 1.390 . S
C1235 C1236 1.392 . S
C1236 H1208 0.929 . S
C1236 C1233 1.391 . S
C1236 C1235 1.392 . S
N1237 Co1181 2.257 . S
N1237 C1234 1.391 . S
N1237 C1238 1.388 . S
C1238 H1209 0.930 . S
C1238 C1233 1.391 . S
C1238 N1237 1.388 . S
Co1239 O1241 2.143 . S
Co1239 O1247 2.074 . S
Co1239 O1250 2.093 . S
Co1239 O1263 2.097 . S
Co1239 N1280 2.151 . S
Co1239 N1288 2.214 . S
Co1240 O1241 2.160 . S
Co1240 O1246 2.058 . S
Co1240 O1256 2.057 . S
Co1240 O1271 2.037 . S
Co1240 N1275 2.145 . S
Co1240 N1296 2.257 . S
O1241 Co1239 2.143 . S
O1241 Co1240 2.160 . S
C1242 O1243 1.278 . S
C1242 O1250 1.224 . S
O1243 C1242 1.278 . S
C1244 O1245 1.245 . S
C1244 O1256 1.232 . S
O1245 C1244 1.245 . S
O1246 Co1240 2.058 . S
O1246 C1272 1.269 . S
O1247 Co1239 2.074 . S
O1247 C1272 1.257 . S
H1248 C1273 0.930 . S
H1249 C1279 0.930 . S
O1250 Co1239 2.093 . S
O1250 C1242 1.224 . S
H1251 C1283 0.929 . S
H1252 C1285 0.930 . S
H1253 C1286 0.930 . S
H1254 C1284 0.929 . S
H1255 C1287 0.928 . S
O1256 Co1240 2.057 . S
O1256 C1244 1.232 . S
H1257 C1276 0.929 . S
H1258 C1277 0.929 . S
H1259 C1289 0.931 . S
H1260 C1281 0.929 . S
H1261 C1290 0.930 . S
H1262 C1282 0.931 . S
O1263 Co1239 2.097 . S
O1263 C1291 1.214 . S
H1264 C1292 0.929 . S
H1265 C1293 0.929 . S
H1266 C1294 0.930 . S
H1267 C1295 0.929 . S
H1268 C1297 0.930 . S
H1269 C1274 0.930 . S
H1270 C1278 0.930 . S
O1271 Co1240 2.037 . S
O1271 C1291 1.234 . S
C1272 O1246 1.269 . S
C1272 O1247 1.257 . S
C1273 H1248 0.930 . S
C1273 C1276 1.388 . S
C1273 C1278 1.418 . S
C1274 H1269 0.930 . S
C1274 C1277 1.404 . S
C1274 C1278 1.353 . S
N1275 Co1240 2.145 . S
N1275 C1276 1.397 . S
N1275 C1277 1.334 . S
C1276 H1257 0.929 . S
C1276 C1273 1.388 . S
C1276 N1275 1.397 . S
C1277 H1258 0.929 . S
C1277 C1274 1.404 . S
C1277 N1275 1.334 . S
C1278 H1270 0.930 . S
C1278 C1273 1.418 . S
C1278 C1274 1.353 . S
C1279 H1249 0.930 . S
C1279 N1280 1.330 . S
C1279 C1281 1.446 . S
N1280 Co1239 2.151 . S
N1280 C1279 1.330 . S
N1280 C1284 1.418 . S
C1281 H1260 0.929 . S
C1281 C1279 1.446 . S
C1281 C1282 1.332 . S
C1282 H1262 0.931 . S
C1282 C1281 1.332 . S
C1282 C1283 1.267 . S
C1283 H1251 0.929 . S
C1283 C1282 1.267 . S
C1283 C1284 1.251 . S
C1284 H1254 0.929 . S
C1284 N1280 1.418 . S
C1284 C1283 1.251 . S
C1285 H1252 0.930 . S
C1285 C1287 1.406 . S
C1285 C1290 1.261 . S
C1286 H1253 0.930 . S
C1286 N1288 1.325 . S
C1286 C1289 1.357 . S
C1287 H1255 0.928 . S
C1287 C1285 1.406 . S
C1287 N1288 1.261 . S
N1288 Co1239 2.214 . S
N1288 C1286 1.325 . S
N1288 C1287 1.261 . S
C1289 H1259 0.931 . S
C1289 C1286 1.357 . S
C1289 C1290 1.312 . S
C1290 H1261 0.930 . S
C1290 C1285 1.261 . S
C1290 C1289 1.312 . S
C1291 O1263 1.214 . S
C1291 O1271 1.234 . S
C1292 H1264 0.929 . S
C1292 C1295 1.391 . S
C1292 C1297 1.391 . S
C1293 H1265 0.929 . S
C1293 C1294 1.390 . S
C1293 N1296 1.391 . S
C1294 H1266 0.930 . S
C1294 C1293 1.390 . S
C1294 C1295 1.392 . S
C1295 H1267 0.929 . S
C1295 C1292 1.391 . S
C1295 C1294 1.392 . S
N1296 Co1240 2.257 . S
N1296 C1293 1.391 . S
N1296 C1297 1.388 . S
C1297 H1268 0.930 . S
C1297 C1292 1.391 . S
C1297 N1296 1.388 . S
Co1298 O1300 2.143 . S
Co1298 O1306 2.074 . S
Co1298 O1309 2.093 . S
Co1298 O1322 2.097 . S
Co1298 N1339 2.151 . S
Co1298 N1347 2.214 . S
Co1299 O1300 2.160 . S
Co1299 O1305 2.058 . S
Co1299 O1315 2.057 . S
Co1299 O1330 2.037 . S
Co1299 N1334 2.145 . S
Co1299 N1355 2.257 . S
O1300 Co1298 2.143 . S
O1300 Co1299 2.160 . S
C1301 O1302 1.278 . S
C1301 O1309 1.224 . S
O1302 C1301 1.278 . S
C1303 O1304 1.245 . S
C1303 O1315 1.232 . S
O1304 C1303 1.245 . S
O1305 Co1299 2.058 . S
O1305 C1331 1.269 . S
O1306 Co1298 2.074 . S
O1306 C1331 1.257 . S
H1307 C1332 0.930 . S
H1308 C1338 0.930 . S
O1309 Co1298 2.093 . S
O1309 C1301 1.224 . S
H1310 C1342 0.929 . S
H1311 C1344 0.930 . S
H1312 C1345 0.930 . S
H1313 C1343 0.929 . S
H1314 C1346 0.928 . S
O1315 Co1299 2.057 . S
O1315 C1303 1.232 . S
H1316 C1335 0.929 . S
H1317 C1336 0.929 . S
H1318 C1348 0.931 . S
H1319 C1340 0.929 . S
H1320 C1349 0.930 . S
H1321 C1341 0.931 . S
O1322 Co1298 2.097 . S
O1322 C1350 1.214 . S
H1323 C1351 0.929 . S
H1324 C1352 0.929 . S
H1325 C1353 0.930 . S
H1326 C1354 0.929 . S
H1327 C1356 0.930 . S
H1328 C1333 0.930 . S
H1329 C1337 0.930 . S
O1330 Co1299 2.037 . S
O1330 C1350 1.234 . S
C1331 O1305 1.269 . S
C1331 O1306 1.257 . S
C1332 H1307 0.930 . S
C1332 C1335 1.388 1_556 S
C1332 C1337 1.418 . S
C1333 H1328 0.930 . S
C1333 C1336 1.404 1_556 S
C1333 C1337 1.353 . S
N1334 Co1299 2.145 . S
N1334 C1335 1.397 . S
N1334 C1336 1.334 . S
C1335 H1316 0.929 . S
C1335 C1332 1.388 1_554 S
C1335 N1334 1.397 . S
C1336 H1317 0.929 . S
C1336 C1333 1.404 1_554 S
C1336 N1334 1.334 . S
C1337 H1329 0.930 . S
C1337 C1332 1.418 . S
C1337 C1333 1.353 . S
C1338 H1308 0.930 . S
C1338 N1339 1.330 . S
C1338 C1340 1.446 . S
N1339 Co1298 2.151 . S
N1339 C1338 1.330 . S
N1339 C1343 1.418 . S
C1340 H1319 0.929 . S
C1340 C1338 1.446 . S
C1340 C1341 1.332 . S
C1341 H1321 0.931 . S
C1341 C1340 1.332 . S
C1341 C1342 1.267 . S
C1342 H1310 0.929 . S
C1342 C1341 1.267 . S
C1342 C1343 1.251 . S
C1343 H1313 0.929 . S
C1343 N1339 1.418 . S
C1343 C1342 1.251 . S
C1344 H1311 0.930 . S
C1344 C1346 1.406 . S
C1344 C1349 1.261 . S
C1345 H1312 0.930 . S
C1345 N1347 1.325 . S
C1345 C1348 1.357 . S
C1346 H1314 0.928 . S
C1346 C1344 1.406 . S
C1346 N1347 1.261 . S
N1347 Co1298 2.214 . S
N1347 C1345 1.325 . S
N1347 C1346 1.261 . S
C1348 H1318 0.931 . S
C1348 C1345 1.357 . S
C1348 C1349 1.312 . S
C1349 H1320 0.930 . S
C1349 C1344 1.261 . S
C1349 C1348 1.312 . S
C1350 O1322 1.214 . S
C1350 O1330 1.234 . S
C1351 H1323 0.929 . S
C1351 C1354 1.391 . S
C1351 C1356 1.391 . S
C1352 H1324 0.929 . S
C1352 C1353 1.390 . S
C1352 N1355 1.391 . S
C1353 H1325 0.930 . S
C1353 C1352 1.390 . S
C1353 C1354 1.392 . S
C1354 H1326 0.929 . S
C1354 C1351 1.391 . S
C1354 C1353 1.392 . S
N1355 Co1299 2.257 . S
N1355 C1352 1.391 . S
N1355 C1356 1.388 . S
C1356 H1327 0.930 . S
C1356 C1351 1.391 . S
C1356 N1355 1.388 . S
Co1357 O1359 2.143 . S
Co1357 O1365 2.074 . S
Co1357 O1368 2.093 . S
Co1357 O1381 2.097 . S
Co1357 N1398 2.151 . S
Co1357 N1406 2.214 . S
Co1358 O1359 2.160 . S
Co1358 O1364 2.058 . S
Co1358 O1374 2.057 . S
Co1358 O1389 2.037 . S
Co1358 N1393 2.145 . S
Co1358 N1414 2.257 . S
O1359 Co1357 2.143 . S
O1359 Co1358 2.160 . S
C1360 O1361 1.278 . S
C1360 O1368 1.224 . S
O1361 C1360 1.278 . S
C1362 O1363 1.245 . S
C1362 O1374 1.232 . S
O1363 C1362 1.245 . S
O1364 Co1358 2.058 . S
O1364 C1390 1.269 . S
O1365 Co1357 2.074 . S
O1365 C1390 1.257 . S
H1366 C1391 0.930 . S
H1367 C1397 0.930 . S
O1368 Co1357 2.093 . S
O1368 C1360 1.224 . S
H1369 C1401 0.929 . S
H1370 C1403 0.930 . S
H1371 C1404 0.930 . S
H1372 C1402 0.929 . S
H1373 C1405 0.928 . S
O1374 Co1358 2.057 . S
O1374 C1362 1.232 . S
H1375 C1394 0.929 . S
H1376 C1395 0.929 . S
H1377 C1407 0.931 . S
H1378 C1399 0.929 . S
H1379 C1408 0.930 . S
H1380 C1400 0.931 . S
O1381 Co1357 2.097 . S
O1381 C1409 1.214 . S
H1382 C1410 0.929 . S
H1383 C1411 0.929 . S
H1384 C1412 0.930 . S
H1385 C1413 0.929 . S
H1386 C1415 0.930 . S
H1387 C1392 0.930 . S
H1388 C1396 0.930 . S
O1389 Co1358 2.037 . S
O1389 C1409 1.234 . S
C1390 O1364 1.269 . S
C1390 O1365 1.257 . S
C1391 H1366 0.930 . S
C1391 C1394 1.388 . S
C1391 C1396 1.418 . S
C1392 H1387 0.930 . S
C1392 C1395 1.404 . S
C1392 C1396 1.353 . S
N1393 Co1358 2.145 . S
N1393 C1394 1.397 . S
N1393 C1395 1.334 . S
C1394 H1375 0.929 . S
C1394 C1391 1.388 . S
C1394 N1393 1.397 . S
C1395 H1376 0.929 . S
C1395 C1392 1.404 . S
C1395 N1393 1.334 . S
C1396 H1388 0.930 . S
C1396 C1391 1.418 . S
C1396 C1392 1.353 . S
C1397 H1367 0.930 . S
C1397 N1398 1.330 . S
C1397 C1399 1.446 . S
N1398 Co1357 2.151 . S
N1398 C1397 1.330 . S
N1398 C1402 1.418 . S
C1399 H1378 0.929 . S
C1399 C1397 1.446 . S
C1399 C1400 1.332 . S
C1400 H1380 0.931 . S
C1400 C1399 1.332 . S
C1400 C1401 1.267 . S
C1401 H1369 0.929 . S
C1401 C1400 1.267 . S
C1401 C1402 1.251 . S
C1402 H1372 0.929 . S
C1402 N1398 1.418 . S
C1402 C1401 1.251 . S
C1403 H1370 0.930 . S
C1403 C1405 1.406 . S
C1403 C1408 1.261 . S
C1404 H1371 0.930 . S
C1404 N1406 1.325 . S
C1404 C1407 1.357 . S
C1405 H1373 0.928 . S
C1405 C1403 1.406 . S
C1405 N1406 1.261 . S
N1406 Co1357 2.214 . S
N1406 C1404 1.325 . S
N1406 C1405 1.261 . S
C1407 H1377 0.931 . S
C1407 C1404 1.357 . S
C1407 C1408 1.312 . S
C1408 H1379 0.930 . S
C1408 C1403 1.261 . S
C1408 C1407 1.312 . S
C1409 O1381 1.214 . S
C1409 O1389 1.234 . S
C1410 H1382 0.929 . S
C1410 C1413 1.391 . S
C1410 C1415 1.391 . S
C1411 H1383 0.929 . S
C1411 C1412 1.390 . S
C1411 N1414 1.391 . S
C1412 H1384 0.930 . S
C1412 C1411 1.390 . S
C1412 C1413 1.392 . S
C1413 H1385 0.929 . S
C1413 C1410 1.391 . S
C1413 C1412 1.392 . S
N1414 Co1358 2.257 . S
N1414 C1411 1.391 . S
N1414 C1415 1.388 . S
C1415 H1386 0.930 . S
C1415 C1410 1.391 . S
C1415 N1414 1.388 . S
H1416 C1424 0.929 . S
H1417 C1426 0.930 . S
H1418 C1428 0.930 . S
H1419 C1431 0.929 . S
H1420 C1434 0.930 . S
H1421 C1436 0.960 . S
H1422 C1436 0.960 . S
H1423 C1436 0.960 . S
C1424 H1416 0.929 . S
C1424 C1425 1.377 . S
C1424 C1426 1.384 . S
C1425 C1424 1.377 . S
C1425 C1431 1.390 . S
C1426 H1417 0.930 . S
C1426 C1424 1.384 . S
C1426 C1427 1.372 . S
C1427 C1426 1.372 . S
C1427 C1428 1.400 . S
C1427 C1432 1.490 . S
C1428 H1418 0.930 . S
C1428 C1427 1.400 . S
C1428 C1431 1.386 . S
H1429 C1445 0.930 . S
H1430 C1446 0.931 . S
C1431 H1419 0.929 . S
C1431 C1425 1.390 . S
C1431 C1428 1.386 . S
C1432 C1427 1.490 . S
C1432 C1434 1.395 . S
C1432 C1435 1.403 . S
H1433 C1439 0.930 . S
C1434 H1420 0.930 . S
C1434 C1432 1.395 . S
C1434 C1437 1.403 . S
C1435 C1432 1.403 . S
C1435 C1436 1.524 . S
C1435 C1439 1.400 . S
C1436 H1421 0.960 . S
C1436 H1422 0.960 . S
C1436 H1423 0.960 . S
C1436 C1435 1.524 . S
C1437 C1434 1.403 . S
C1437 C1438 1.392 . S
C1437 C1441 1.495 . S
C1438 C1437 1.392 . S
C1438 C1439 1.385 . S
C1438 C1440 1.478 . S
C1439 H1433 0.930 . S
C1439 C1435 1.400 . S
C1439 C1438 1.385 . S
C1440 C1438 1.478 . S
C1440 C1442 1.381 . S
C1440 C1446 1.383 . S
C1441 C1437 1.495 . S
C1441 H1447 0.959 . S
C1441 H1448 0.961 . S
C1441 H1449 0.960 . S
C1442 C1440 1.381 . S
C1442 C1443 1.394 . S
C1442 H1450 0.930 . S
C1443 C1442 1.394 . S
C1443 C1444 1.383 . S
C1443 H1451 0.929 . S
C1444 C1443 1.383 . S
C1444 C1445 1.377 . S
C1445 H1429 0.930 . S
C1445 C1444 1.377 . S
C1445 C1446 1.379 . S
C1446 H1430 0.931 . S
C1446 C1440 1.383 . S
C1446 C1445 1.379 . S
H1447 C1441 0.959 . S
H1448 C1441 0.961 . S
H1449 C1441 0.960 . S
H1450 C1442 0.930 . S
H1451 C1443 0.929 . S
H1452 C1460 0.929 . S
H1453 C1462 0.930 . S
H1454 C1464 0.930 . S
H1455 C1467 0.929 . S
H1456 C1470 0.930 . S
H1457 C1472 0.960 . S
H1458 C1472 0.960 . S
H1459 C1472 0.960 . S
C1460 H1452 0.929 . S
C1460 C1461 1.377 . S
C1460 C1462 1.384 . S
C1461 C1460 1.377 . S
C1461 C1467 1.390 . S
C1462 H1453 0.930 . S
C1462 C1460 1.384 . S
C1462 C1463 1.372 . S
C1463 C1462 1.372 . S
C1463 C1464 1.400 . S
C1463 C1468 1.490 . S
C1464 H1454 0.930 . S
C1464 C1463 1.400 . S
C1464 C1467 1.386 . S
H1465 C1481 0.930 . S
H1466 C1482 0.931 . S
C1467 H1455 0.929 . S
C1467 C1461 1.390 . S
C1467 C1464 1.386 . S
C1468 C1463 1.490 . S
C1468 C1470 1.395 . S
C1468 C1471 1.403 . S
H1469 C1475 0.930 . S
C1470 H1456 0.930 . S
C1470 C1468 1.395 . S
C1470 C1473 1.403 . S
C1471 C1468 1.403 . S
C1471 C1472 1.524 . S
C1471 C1475 1.400 . S
C1472 H1457 0.960 . S
C1472 H1458 0.960 . S
C1472 H1459 0.960 . S
C1472 C1471 1.524 . S
C1473 C1470 1.403 . S
C1473 C1474 1.392 . S
C1473 C1477 1.495 . S
C1474 C1473 1.392 . S
C1474 C1475 1.385 . S
C1474 C1476 1.478 . S
C1475 H1469 0.930 . S
C1475 C1471 1.400 . S
C1475 C1474 1.385 . S
C1476 C1474 1.478 . S
C1476 C1478 1.381 . S
C1476 C1482 1.383 . S
C1477 C1473 1.495 . S
C1477 H1483 0.959 . S
C1477 H1484 0.961 . S
C1477 H1485 0.960 . S
C1478 C1476 1.381 . S
C1478 C1479 1.394 . S
C1478 H1486 0.930 . S
C1479 C1478 1.394 . S
C1479 C1480 1.383 . S
C1479 H1487 0.929 . S
C1480 C1479 1.383 . S
C1480 C1481 1.377 . S
C1481 H1465 0.930 . S
C1481 C1480 1.377 . S
C1481 C1482 1.379 . S
C1482 H1466 0.931 . S
C1482 C1476 1.383 . S
C1482 C1481 1.379 . S
H1483 C1477 0.959 . S
H1484 C1477 0.961 . S
H1485 C1477 0.960 . S
H1486 C1478 0.930 . S
H1487 C1479 0.929 . S
H1488 C1496 0.929 . S
H1489 C1498 0.930 . S
H1490 C1500 0.930 . S
H1491 C1503 0.929 . S
H1492 C1506 0.930 . S
H1493 C1508 0.960 . S
H1494 C1508 0.960 . S
H1495 C1508 0.960 . S
C1496 H1488 0.929 . S
C1496 C1497 1.377 . S
C1496 C1498 1.384 . S
C1497 C1496 1.377 . S
C1497 C1503 1.390 . S
C1498 H1489 0.930 . S
C1498 C1496 1.384 . S
C1498 C1499 1.372 . S
C1499 C1498 1.372 . S
C1499 C1500 1.400 . S
C1499 C1504 1.490 . S
C1500 H1490 0.930 . S
C1500 C1499 1.400 . S
C1500 C1503 1.386 . S
H1501 C1517 0.930 . S
H1502 C1518 0.931 . S
C1503 H1491 0.929 . S
C1503 C1497 1.390 . S
C1503 C1500 1.386 . S
C1504 C1499 1.490 . S
C1504 C1506 1.395 . S
C1504 C1507 1.403 . S
H1505 C1511 0.930 . S
C1506 H1492 0.930 . S
C1506 C1504 1.395 . S
C1506 C1509 1.403 . S
C1507 C1504 1.403 . S
C1507 C1508 1.524 . S
C1507 C1511 1.400 . S
C1508 H1493 0.960 . S
C1508 H1494 0.960 . S
C1508 H1495 0.960 . S
C1508 C1507 1.524 . S
C1509 C1506 1.403 . S
C1509 C1510 1.392 . S
C1509 C1513 1.495 . S
C1510 C1509 1.392 . S
C1510 C1511 1.385 . S
C1510 C1512 1.478 . S
C1511 H1505 0.930 . S
C1511 C1507 1.400 . S
C1511 C1510 1.385 . S
C1512 C1510 1.478 . S
C1512 C1514 1.381 . S
C1512 C1518 1.383 . S
C1513 C1509 1.495 . S
C1513 H1519 0.959 . S
C1513 H1520 0.961 . S
C1513 H1521 0.960 . S
C1514 C1512 1.381 . S
C1514 C1515 1.394 . S
C1514 H1522 0.930 . S
C1515 C1514 1.394 . S
C1515 C1516 1.383 . S
C1515 H1523 0.929 . S
C1516 C1515 1.383 . S
C1516 C1517 1.377 . S
C1517 H1501 0.930 . S
C1517 C1516 1.377 . S
C1517 C1518 1.379 . S
C1518 H1502 0.931 . S
C1518 C1512 1.383 . S
C1518 C1517 1.379 . S
H1519 C1513 0.959 . S
H1520 C1513 0.961 . S
H1521 C1513 0.960 . S
H1522 C1514 0.930 . S
H1523 C1515 0.929 . S
H1524 C1532 0.929 . S
H1525 C1534 0.930 . S
H1526 C1536 0.930 . S
H1527 C1539 0.929 . S
H1528 C1542 0.930 . S
H1529 C1544 0.960 . S
H1530 C1544 0.960 . S
H1531 C1544 0.960 . S
C1532 H1524 0.929 . S
C1532 C1533 1.377 . S
C1532 C1534 1.384 . S
C1533 C1532 1.377 . S
C1533 C1539 1.390 . S
C1534 H1525 0.930 . S
C1534 C1532 1.384 . S
C1534 C1535 1.372 . S
C1535 C1534 1.372 . S
C1535 C1536 1.400 . S
C1535 C1540 1.490 . S
C1536 H1526 0.930 . S
C1536 C1535 1.400 . S
C1536 C1539 1.386 . S
H1537 C1553 0.930 . S
H1538 C1554 0.931 . S
C1539 H1527 0.929 . S
C1539 C1533 1.390 . S
C1539 C1536 1.386 . S
C1540 C1535 1.490 . S
C1540 C1542 1.395 . S
C1540 C1543 1.403 . S
H1541 C1547 0.930 . S
C1542 H1528 0.930 . S
C1542 C1540 1.395 . S
C1542 C1545 1.403 . S
C1543 C1540 1.403 . S
C1543 C1544 1.524 . S
C1543 C1547 1.400 . S
C1544 H1529 0.960 . S
C1544 H1530 0.960 . S
C1544 H1531 0.960 . S
C1544 C1543 1.524 . S
C1545 C1542 1.403 . S
C1545 C1546 1.392 . S
C1545 C1549 1.495 . S
C1546 C1545 1.392 . S
C1546 C1547 1.385 . S
C1546 C1548 1.478 . S
C1547 H1541 0.930 . S
C1547 C1543 1.400 . S
C1547 C1546 1.385 . S
C1548 C1546 1.478 . S
C1548 C1550 1.381 . S
C1548 C1554 1.383 . S
C1549 C1545 1.495 . S
C1549 H1555 0.959 . S
C1549 H1556 0.961 . S
C1549 H1557 0.960 . S
C1550 C1548 1.381 . S
C1550 C1551 1.394 . S
C1550 H1558 0.930 . S
C1551 C1550 1.394 . S
C1551 C1552 1.383 . S
C1551 H1559 0.929 . S
C1552 C1551 1.383 . S
C1552 C1553 1.377 . S
C1553 H1537 0.930 . S
C1553 C1552 1.377 . S
C1553 C1554 1.379 . S
C1554 H1538 0.931 . S
C1554 C1548 1.383 . S
C1554 C1553 1.379 . S
H1555 C1549 0.959 . S
H1556 C1549 0.961 . S
H1557 C1549 0.960 . S
H1558 C1550 0.930 . S
H1559 C1551 0.929 . S
H1560 C1568 0.929 . S
H1561 C1570 0.930 . S
H1562 C1572 0.930 . S
H1563 C1575 0.929 . S
H1564 C1578 0.930 . S
H1565 C1580 0.960 . S
H1566 C1580 0.960 . S
H1567 C1580 0.960 . S
C1568 H1560 0.929 . S
C1568 C1569 1.377 . S
C1568 C1570 1.384 . S
C1569 C1568 1.377 . S
C1569 C1575 1.390 . S
C1570 H1561 0.930 . S
C1570 C1568 1.384 . S
C1570 C1571 1.372 . S
C1571 C1570 1.372 . S
C1571 C1572 1.400 . S
C1571 C1576 1.490 . S
C1572 H1562 0.930 . S
C1572 C1571 1.400 . S
C1572 C1575 1.386 . S
H1573 C1589 0.930 . S
H1574 C1590 0.931 . S
C1575 H1563 0.929 . S
C1575 C1569 1.390 . S
C1575 C1572 1.386 . S
C1576 C1571 1.490 . S
C1576 C1578 1.395 . S
C1576 C1579 1.403 . S
H1577 C1583 0.930 . S
C1578 H1564 0.930 . S
C1578 C1576 1.395 . S
C1578 C1581 1.403 . S
C1579 C1576 1.403 . S
C1579 C1580 1.524 . S
C1579 C1583 1.400 . S
C1580 H1565 0.960 . S
C1580 H1566 0.960 . S
C1580 H1567 0.960 . S
C1580 C1579 1.524 . S
C1581 C1578 1.403 . S
C1581 C1582 1.392 . S
C1581 C1585 1.495 . S
C1582 C1581 1.392 . S
C1582 C1583 1.385 . S
C1582 C1584 1.478 . S
C1583 H1577 0.930 . S
C1583 C1579 1.400 . S
C1583 C1582 1.385 . S
C1584 C1582 1.478 . S
C1584 C1586 1.381 . S
C1584 C1590 1.383 . S
C1585 C1581 1.495 . S
C1585 H1591 0.959 . S
C1585 H1592 0.961 . S
C1585 H1593 0.960 . S
C1586 C1584 1.381 . S
C1586 C1587 1.394 . S
C1586 H1594 0.930 . S
C1587 C1586 1.394 . S
C1587 C1588 1.383 . S
C1587 H1595 0.929 . S
C1588 C1587 1.383 . S
C1588 C1589 1.377 . S
C1589 H1573 0.930 . S
C1589 C1588 1.377 . S
C1589 C1590 1.379 . S
C1590 H1574 0.931 . S
C1590 C1584 1.383 . S
C1590 C1589 1.379 . S
H1591 C1585 0.959 . S
H1592 C1585 0.961 . S
H1593 C1585 0.960 . S
H1594 C1586 0.930 . S
H1595 C1587 0.929 . S
H1596 C1604 0.929 . S
H1597 C1606 0.930 . S
H1598 C1608 0.930 . S
H1599 C1611 0.929 . S
H1600 C1614 0.930 . S
H1601 C1616 0.960 . S
H1602 C1616 0.960 . S
H1603 C1616 0.960 . S
C1604 H1596 0.929 . S
C1604 C1605 1.377 . S
C1604 C1606 1.384 . S
C1605 C1604 1.377 . S
C1605 C1611 1.390 . S
C1606 H1597 0.930 . S
C1606 C1604 1.384 . S
C1606 C1607 1.372 . S
C1607 C1606 1.372 . S
C1607 C1608 1.400 . S
C1607 C1612 1.490 . S
C1608 H1598 0.930 . S
C1608 C1607 1.400 . S
C1608 C1611 1.386 . S
H1609 C1625 0.930 . S
H1610 C1626 0.931 . S
C1611 H1599 0.929 . S
C1611 C1605 1.390 . S
C1611 C1608 1.386 . S
C1612 C1607 1.490 . S
C1612 C1614 1.395 . S
C1612 C1615 1.403 . S
H1613 C1619 0.930 . S
C1614 H1600 0.930 . S
C1614 C1612 1.395 . S
C1614 C1617 1.403 . S
C1615 C1612 1.403 . S
C1615 C1616 1.524 . S
C1615 C1619 1.400 . S
C1616 H1601 0.960 . S
C1616 H1602 0.960 . S
C1616 H1603 0.960 . S
C1616 C1615 1.524 . S
C1617 C1614 1.403 . S
C1617 C1618 1.392 . S
C1617 C1621 1.495 . S
C1618 C1617 1.392 . S
C1618 C1619 1.385 . S
C1618 C1620 1.478 . S
C1619 H1613 0.930 . S
C1619 C1615 1.400 . S
C1619 C1618 1.385 . S
C1620 C1618 1.478 . S
C1620 C1622 1.381 . S
C1620 C1626 1.383 . S
C1621 C1617 1.495 . S
C1621 H1627 0.959 . S
C1621 H1628 0.961 . S
C1621 H1629 0.960 . S
C1622 C1620 1.381 . S
C1622 C1623 1.394 . S
C1622 H1630 0.930 . S
C1623 C1622 1.394 . S
C1623 C1624 1.383 . S
C1623 H1631 0.929 . S
C1624 C1623 1.383 . S
C1624 C1625 1.377 . S
C1625 H1609 0.930 . S
C1625 C1624 1.377 . S
C1625 C1626 1.379 . S
C1626 H1610 0.931 . S
C1626 C1620 1.383 . S
C1626 C1625 1.379 . S
H1627 C1621 0.959 . S
H1628 C1621 0.961 . S
H1629 C1621 0.960 . S
H1630 C1622 0.930 . S
H1631 C1623 0.929 . S
H1632 C1640 0.929 . S
H1633 C1642 0.930 . S
H1634 C1644 0.930 . S
H1635 C1647 0.929 . S
H1636 C1650 0.930 . S
H1637 C1652 0.960 . S
H1638 C1652 0.960 . S
H1639 C1652 0.960 . S
C1640 H1632 0.929 . S
C1640 C1641 1.377 . S
C1640 C1642 1.384 . S
C1641 C1640 1.377 . S
C1641 C1647 1.390 . S
C1642 H1633 0.930 . S
C1642 C1640 1.384 . S
C1642 C1643 1.372 . S
C1643 C1642 1.372 . S
C1643 C1644 1.400 . S
C1643 C1648 1.490 . S
C1644 H1634 0.930 . S
C1644 C1643 1.400 . S
C1644 C1647 1.386 . S
H1645 C1661 0.930 . S
H1646 C1662 0.931 . S
C1647 H1635 0.929 . S
C1647 C1641 1.390 . S
C1647 C1644 1.386 . S
C1648 C1643 1.490 . S
C1648 C1650 1.395 . S
C1648 C1651 1.403 . S
H1649 C1655 0.930 . S
C1650 H1636 0.930 . S
C1650 C1648 1.395 . S
C1650 C1653 1.403 . S
C1651 C1648 1.403 . S
C1651 C1652 1.524 . S
C1651 C1655 1.400 . S
C1652 H1637 0.960 . S
C1652 H1638 0.960 . S
C1652 H1639 0.960 . S
C1652 C1651 1.524 . S
C1653 C1650 1.403 . S
C1653 C1654 1.392 . S
C1653 C1657 1.495 . S
C1654 C1653 1.392 . S
C1654 C1655 1.385 . S
C1654 C1656 1.478 . S
C1655 H1649 0.930 . S
C1655 C1651 1.400 . S
C1655 C1654 1.385 . S
C1656 C1654 1.478 . S
C1656 C1658 1.381 . S
C1656 C1662 1.383 . S
C1657 C1653 1.495 . S
C1657 H1663 0.959 . S
C1657 H1664 0.961 . S
C1657 H1665 0.960 . S
C1658 C1656 1.381 . S
C1658 C1659 1.394 . S
C1658 H1666 0.930 . S
C1659 C1658 1.394 . S
C1659 C1660 1.383 . S
C1659 H1667 0.929 . S
C1660 C1659 1.383 . S
C1660 C1661 1.377 . S
C1661 H1645 0.930 . S
C1661 C1660 1.377 . S
C1661 C1662 1.379 . S
C1662 H1646 0.931 . S
C1662 C1656 1.383 . S
C1662 C1661 1.379 . S
H1663 C1657 0.959 . S
H1664 C1657 0.961 . S
H1665 C1657 0.960 . S
H1666 C1658 0.930 . S
H1667 C1659 0.929 . S
H1668 C1676 0.929 . S
H1669 C1678 0.930 . S
H1670 C1680 0.930 . S
H1671 C1683 0.929 . S
H1672 C1686 0.930 . S
H1673 C1688 0.960 . S
H1674 C1688 0.960 . S
H1675 C1688 0.960 . S
C1676 H1668 0.929 . S
C1676 C1677 1.377 . S
C1676 C1678 1.384 . S
C1677 C1676 1.377 . S
C1677 C1683 1.390 . S
C1678 H1669 0.930 . S
C1678 C1676 1.384 . S
C1678 C1679 1.372 . S
C1679 C1678 1.372 . S
C1679 C1680 1.400 . S
C1679 C1684 1.490 . S
C1680 H1670 0.930 . S
C1680 C1679 1.400 . S
C1680 C1683 1.386 . S
H1681 C1697 0.930 . S
H1682 C1698 0.931 . S
C1683 H1671 0.929 . S
C1683 C1677 1.390 . S
C1683 C1680 1.386 . S
C1684 C1679 1.490 . S
C1684 C1686 1.395 . S
C1684 C1687 1.403 . S
H1685 C1691 0.930 . S
C1686 H1672 0.930 . S
C1686 C1684 1.395 . S
C1686 C1689 1.403 . S
C1687 C1684 1.403 . S
C1687 C1688 1.524 . S
C1687 C1691 1.400 . S
C1688 H1673 0.960 . S
C1688 H1674 0.960 . S
C1688 H1675 0.960 . S
C1688 C1687 1.524 . S
C1689 C1686 1.403 . S
C1689 C1690 1.392 . S
C1689 C1693 1.495 . S
C1690 C1689 1.392 . S
C1690 C1691 1.385 . S
C1690 C1692 1.478 . S
C1691 H1685 0.930 . S
C1691 C1687 1.400 . S
C1691 C1690 1.385 . S
C1692 C1690 1.478 . S
C1692 C1694 1.381 . S
C1692 C1698 1.383 . S
C1693 C1689 1.495 . S
C1693 H1699 0.959 . S
C1693 H1700 0.961 . S
C1693 H1701 0.960 . S
C1694 C1692 1.381 . S
C1694 C1695 1.394 . S
C1694 H1702 0.930 . S
C1695 C1694 1.394 . S
C1695 C1696 1.383 . S
C1695 H1703 0.929 . S
C1696 C1695 1.383 . S
C1696 C1697 1.377 . S
C1697 H1681 0.930 . S
C1697 C1696 1.377 . S
C1697 C1698 1.379 . S
C1698 H1682 0.931 . S
C1698 C1692 1.383 . S
C1698 C1697 1.379 . S
H1699 C1693 0.959 . S
H1700 C1693 0.961 . S
H1701 C1693 0.960 . S
H1702 C1694 0.930 . S
H1703 C1695 0.929 . S
H1704 C1712 0.929 . S
H1705 C1714 0.930 . S
H1706 C1716 0.930 . S
H1707 C1719 0.929 . S
H1708 C1722 0.930 . S
H1709 C1724 0.960 . S
H1710 C1724 0.960 . S
H1711 C1724 0.960 . S
C1712 H1704 0.929 . S
C1712 C1713 1.377 . S
C1712 C1714 1.384 . S
C1713 C1712 1.377 . S
C1713 C1719 1.390 . S
C1714 H1705 0.930 . S
C1714 C1712 1.384 . S
C1714 C1715 1.372 . S
C1715 C1714 1.372 . S
C1715 C1716 1.400 . S
C1715 C1720 1.490 . S
C1716 H1706 0.930 . S
C1716 C1715 1.400 . S
C1716 C1719 1.386 . S
H1717 C1733 0.930 . S
H1718 C1734 0.931 . S
C1719 H1707 0.929 . S
C1719 C1713 1.390 . S
C1719 C1716 1.386 . S
C1720 C1715 1.490 . S
C1720 C1722 1.395 . S
C1720 C1723 1.403 . S
H1721 C1727 0.930 . S
C1722 H1708 0.930 . S
C1722 C1720 1.395 . S
C1722 C1725 1.403 . S
C1723 C1720 1.403 . S
C1723 C1724 1.524 . S
C1723 C1727 1.400 . S
C1724 H1709 0.960 . S
C1724 H1710 0.960 . S
C1724 H1711 0.960 . S
C1724 C1723 1.524 . S
C1725 C1722 1.403 . S
C1725 C1726 1.392 . S
C1725 C1729 1.495 . S
C1726 C1725 1.392 . S
C1726 C1727 1.385 . S
C1726 C1728 1.478 . S
C1727 H1721 0.930 . S
C1727 C1723 1.400 . S
C1727 C1726 1.385 . S
C1728 C1726 1.478 . S
C1728 C1730 1.381 . S
C1728 C1734 1.383 . S
C1729 C1725 1.495 . S
C1729 H1735 0.959 . S
C1729 H1736 0.961 . S
C1729 H1737 0.960 . S
C1730 C1728 1.381 . S
C1730 C1731 1.394 . S
C1730 H1738 0.930 . S
C1731 C1730 1.394 . S
C1731 C1732 1.383 . S
C1731 H1739 0.929 . S
C1732 C1731 1.383 . S
C1732 C1733 1.377 . S
C1733 H1717 0.930 . S
C1733 C1732 1.377 . S
C1733 C1734 1.379 . S
C1734 H1718 0.931 . S
C1734 C1728 1.383 . S
C1734 C1733 1.379 . S
H1735 C1729 0.959 . S
H1736 C1729 0.961 . S
H1737 C1729 0.960 . S
H1738 C1730 0.930 . S
H1739 C1731 0.929 . S
H1740 C1748 0.929 . S
H1741 C1750 0.930 . S
H1742 C1752 0.930 . S
H1743 C1755 0.929 . S
H1744 C1758 0.930 . S
H1745 C1760 0.960 . S
H1746 C1760 0.960 . S
H1747 C1760 0.960 . S
C1748 H1740 0.929 . S
C1748 C1749 1.377 . S
C1748 C1750 1.384 . S
C1749 C1748 1.377 . S
C1749 C1755 1.390 . S
C1750 H1741 0.930 . S
C1750 C1748 1.384 . S
C1750 C1751 1.372 . S
C1751 C1750 1.372 . S
C1751 C1752 1.400 . S
C1751 C1756 1.490 . S
C1752 H1742 0.930 . S
C1752 C1751 1.400 . S
C1752 C1755 1.386 . S
H1753 C1769 0.930 . S
H1754 C1770 0.931 . S
C1755 H1743 0.929 . S
C1755 C1749 1.390 . S
C1755 C1752 1.386 . S
C1756 C1751 1.490 . S
C1756 C1758 1.395 . S
C1756 C1759 1.403 . S
H1757 C1763 0.930 . S
C1758 H1744 0.930 . S
C1758 C1756 1.395 . S
C1758 C1761 1.403 . S
C1759 C1756 1.403 . S
C1759 C1760 1.524 . S
C1759 C1763 1.400 . S
C1760 H1745 0.960 . S
C1760 H1746 0.960 . S
C1760 H1747 0.960 . S
C1760 C1759 1.524 . S
C1761 C1758 1.403 . S
C1761 C1762 1.392 . S
C1761 C1765 1.495 . S
C1762 C1761 1.392 . S
C1762 C1763 1.385 . S
C1762 C1764 1.478 . S
C1763 H1757 0.930 . S
C1763 C1759 1.400 . S
C1763 C1762 1.385 . S
C1764 C1762 1.478 . S
C1764 C1766 1.381 . S
C1764 C1770 1.383 . S
C1765 C1761 1.495 . S
C1765 H1771 0.959 . S
C1765 H1772 0.961 . S
C1765 H1773 0.960 . S
C1766 C1764 1.381 . S
C1766 C1767 1.394 . S
C1766 H1774 0.930 . S
C1767 C1766 1.394 . S
C1767 C1768 1.383 . S
C1767 H1775 0.929 . S
C1768 C1767 1.383 . S
C1768 C1769 1.377 . S
C1769 H1753 0.930 . S
C1769 C1768 1.377 . S
C1769 C1770 1.379 . S
C1770 H1754 0.931 . S
C1770 C1764 1.383 . S
C1770 C1769 1.379 . S
H1771 C1765 0.959 . S
H1772 C1765 0.961 . S
H1773 C1765 0.960 . S
H1774 C1766 0.930 . S
H1775 C1767 0.929 . S
H1776 C1784 0.929 . S
H1777 C1786 0.930 . S
H1778 C1788 0.930 . S
H1779 C1791 0.929 . S
H1780 C1794 0.930 . S
H1781 C1796 0.960 . S
H1782 C1796 0.960 . S
H1783 C1796 0.960 . S
C1784 H1776 0.929 . S
C1784 C1785 1.377 . S
C1784 C1786 1.384 . S
C1785 C1784 1.377 . S
C1785 C1791 1.390 . S
C1786 H1777 0.930 . S
C1786 C1784 1.384 . S
C1786 C1787 1.372 . S
C1787 C1786 1.372 . S
C1787 C1788 1.400 . S
C1787 C1792 1.490 . S
C1788 H1778 0.930 . S
C1788 C1787 1.400 . S
C1788 C1791 1.386 . S
H1789 C1805 0.930 . S
H1790 C1806 0.931 . S
C1791 H1779 0.929 . S
C1791 C1785 1.390 . S
C1791 C1788 1.386 . S
C1792 C1787 1.490 . S
C1792 C1794 1.395 . S
C1792 C1795 1.403 . S
H1793 C1799 0.930 . S
C1794 H1780 0.930 . S
C1794 C1792 1.395 . S
C1794 C1797 1.403 . S
C1795 C1792 1.403 . S
C1795 C1796 1.524 . S
C1795 C1799 1.400 . S
C1796 H1781 0.960 . S
C1796 H1782 0.960 . S
C1796 H1783 0.960 . S
C1796 C1795 1.524 . S
C1797 C1794 1.403 . S
C1797 C1798 1.392 . S
C1797 C1801 1.495 . S
C1798 C1797 1.392 . S
C1798 C1799 1.385 . S
C1798 C1800 1.478 . S
C1799 H1793 0.930 . S
C1799 C1795 1.400 . S
C1799 C1798 1.385 . S
C1800 C1798 1.478 . S
C1800 C1802 1.381 . S
C1800 C1806 1.383 . S
C1801 C1797 1.495 . S
C1801 H1807 0.959 . S
C1801 H1808 0.961 . S
C1801 H1809 0.960 . S
C1802 C1800 1.381 . S
C1802 C1803 1.394 . S
C1802 H1810 0.930 . S
C1803 C1802 1.394 . S
C1803 C1804 1.383 . S
C1803 H1811 0.929 . S
C1804 C1803 1.383 . S
C1804 C1805 1.377 . S
C1805 H1789 0.930 . S
C1805 C1804 1.377 . S
C1805 C1806 1.379 . S
C1806 H1790 0.931 . S
C1806 C1800 1.383 . S
C1806 C1805 1.379 . S
H1807 C1801 0.959 . S
H1808 C1801 0.961 . S
H1809 C1801 0.960 . S
H1810 C1802 0.930 . S
H1811 C1803 0.929 . S
H1812 C1820 0.929 . S
H1813 C1822 0.930 . S
H1814 C1824 0.930 . S
H1815 C1827 0.929 . S
H1816 C1830 0.930 . S
H1817 C1832 0.960 . S
H1818 C1832 0.960 . S
H1819 C1832 0.960 . S
C1820 H1812 0.929 . S
C1820 C1821 1.377 . S
C1820 C1822 1.384 . S
C1821 C1820 1.377 . S
C1821 C1827 1.390 . S
C1822 H1813 0.930 . S
C1822 C1820 1.384 . S
C1822 C1823 1.372 . S
C1823 C1822 1.372 . S
C1823 C1824 1.400 . S
C1823 C1828 1.490 . S
C1824 H1814 0.930 . S
C1824 C1823 1.400 . S
C1824 C1827 1.386 . S
H1825 C1841 0.930 . S
H1826 C1842 0.931 . S
C1827 H1815 0.929 . S
C1827 C1821 1.390 . S
C1827 C1824 1.386 . S
C1828 C1823 1.490 . S
C1828 C1830 1.395 . S
C1828 C1831 1.403 . S
H1829 C1835 0.930 . S
C1830 H1816 0.930 . S
C1830 C1828 1.395 . S
C1830 C1833 1.403 . S
C1831 C1828 1.403 . S
C1831 C1832 1.524 . S
C1831 C1835 1.400 . S
C1832 H1817 0.960 . S
C1832 H1818 0.960 . S
C1832 H1819 0.960 . S
C1832 C1831 1.524 . S
C1833 C1830 1.403 . S
C1833 C1834 1.392 . S
C1833 C1837 1.495 . S
C1834 C1833 1.392 . S
C1834 C1835 1.385 . S
C1834 C1836 1.478 . S
C1835 H1829 0.930 . S
C1835 C1831 1.400 . S
C1835 C1834 1.385 . S
C1836 C1834 1.478 . S
C1836 C1838 1.381 . S
C1836 C1842 1.383 . S
C1837 C1833 1.495 . S
C1837 H1843 0.959 . S
C1837 H1844 0.961 . S
C1837 H1845 0.960 . S
C1838 C1836 1.381 . S
C1838 C1839 1.394 . S
C1838 H1846 0.930 . S
C1839 C1838 1.394 . S
C1839 C1840 1.383 . S
C1839 H1847 0.929 . S
C1840 C1839 1.383 . S
C1840 C1841 1.377 . S
C1841 H1825 0.930 . S
C1841 C1840 1.377 . S
C1841 C1842 1.379 . S
C1842 H1826 0.931 . S
C1842 C1836 1.383 . S
C1842 C1841 1.379 . S
H1843 C1837 0.959 . S
H1844 C1837 0.961 . S
H1845 C1837 0.960 . S
H1846 C1838 0.930 . S
H1847 C1839 0.929 . S
H1848 C1856 0.929 . S
H1849 C1858 0.930 . S
H1850 C1860 0.930 . S
H1851 C1863 0.929 . S
H1852 C1866 0.930 . S
H1853 C1868 0.960 . S
H1854 C1868 0.960 . S
H1855 C1868 0.960 . S
C1856 H1848 0.929 . S
C1856 C1857 1.377 . S
C1856 C1858 1.384 . S
C1857 C1856 1.377 . S
C1857 C1863 1.390 . S
C1858 H1849 0.930 . S
C1858 C1856 1.384 . S
C1858 C1859 1.372 . S
C1859 C1858 1.372 . S
C1859 C1860 1.400 . S
C1859 C1864 1.490 . S
C1860 H1850 0.930 . S
C1860 C1859 1.400 . S
C1860 C1863 1.386 . S
H1861 C1877 0.930 . S
H1862 C1878 0.931 . S
C1863 H1851 0.929 . S
C1863 C1857 1.390 . S
C1863 C1860 1.386 . S
C1864 C1859 1.490 . S
C1864 C1866 1.395 . S
C1864 C1867 1.403 1_556 S
H1865 C1871 0.930 . S
C1866 H1852 0.930 . S
C1866 C1864 1.395 . S
C1866 C1869 1.403 . S
C1867 C1864 1.403 1_554 S
C1867 C1868 1.524 . S
C1867 C1871 1.400 . S
C1868 H1853 0.960 . S
C1868 H1854 0.960 . S
C1868 H1855 0.960 . S
C1868 C1867 1.524 . S
C1869 C1866 1.403 . S
C1869 C1870 1.392 1_556 S
C1869 C1873 1.495 . S
C1870 C1869 1.392 1_554 S
C1870 C1871 1.385 . S
C1870 C1872 1.478 . S
C1871 H1865 0.930 . S
C1871 C1867 1.400 . S
C1871 C1870 1.385 . S
C1872 C1870 1.478 . S
C1872 C1874 1.381 . S
C1872 C1878 1.383 . S
C1873 C1869 1.495 . S
C1873 H1879 0.959 . S
C1873 H1880 0.961 . S
C1873 H1881 0.960 . S
C1874 C1872 1.381 . S
C1874 C1875 1.394 . S
C1874 H1882 0.930 . S
C1875 C1874 1.394 . S
C1875 C1876 1.383 . S
C1875 H1883 0.929 . S
C1876 C1875 1.383 . S
C1876 C1877 1.377 . S
C1877 H1861 0.930 . S
C1877 C1876 1.377 . S
C1877 C1878 1.379 . S
C1878 H1862 0.931 . S
C1878 C1872 1.383 . S
C1878 C1877 1.379 . S
H1879 C1873 0.959 . S
H1880 C1873 0.961 . S
H1881 C1873 0.960 . S
H1882 C1874 0.930 . S
H1883 C1875 0.929 . S
H1884 C1892 0.929 . S
H1885 C1894 0.930 . S
H1886 C1896 0.930 . S
H1887 C1899 0.929 . S
H1888 C1902 0.930 . S
H1889 C1904 0.960 . S
H1890 C1904 0.960 . S
H1891 C1904 0.960 . S
C1892 H1884 0.929 . S
C1892 C1893 1.377 . S
C1892 C1894 1.384 . S
C1893 C1892 1.377 . S
C1893 C1899 1.390 . S
C1894 H1885 0.930 . S
C1894 C1892 1.384 . S
C1894 C1895 1.372 . S
C1895 C1894 1.372 . S
C1895 C1896 1.400 . S
C1895 C1900 1.490 . S
C1896 H1886 0.930 . S
C1896 C1895 1.400 . S
C1896 C1899 1.386 . S
H1897 C1913 0.930 . S
H1898 C1914 0.931 . S
C1899 H1887 0.929 . S
C1899 C1893 1.390 . S
C1899 C1896 1.386 . S
C1900 C1895 1.490 . S
C1900 C1902 1.395 . S
C1900 C1903 1.403 . S
H1901 C1907 0.930 . S
C1902 H1888 0.930 . S
C1902 C1900 1.395 . S
C1902 C1905 1.403 . S
C1903 C1900 1.403 . S
C1903 C1904 1.524 . S
C1903 C1907 1.400 . S
C1904 H1889 0.960 . S
C1904 H1890 0.960 . S
C1904 H1891 0.960 . S
C1904 C1903 1.524 . S
C1905 C1902 1.403 . S
C1905 C1906 1.392 . S
C1905 C1909 1.495 . S
C1906 C1905 1.392 . S
C1906 C1907 1.385 . S
C1906 C1908 1.478 . S
C1907 H1901 0.930 . S
C1907 C1903 1.400 . S
C1907 C1906 1.385 . S
C1908 C1906 1.478 . S
C1908 C1910 1.381 . S
C1908 C1914 1.383 . S
C1909 C1905 1.495 . S
C1909 H1915 0.959 . S
C1909 H1916 0.961 . S
C1909 H1917 0.960 . S
C1910 C1908 1.381 . S
C1910 C1911 1.394 . S
C1910 H1918 0.930 . S
C1911 C1910 1.394 . S
C1911 C1912 1.383 . S
C1911 H1919 0.929 . S
C1912 C1911 1.383 . S
C1912 C1913 1.377 . S
C1913 H1897 0.930 . S
C1913 C1912 1.377 . S
C1913 C1914 1.379 . S
C1914 H1898 0.931 . S
C1914 C1908 1.383 . S
C1914 C1913 1.379 . S
H1915 C1909 0.959 . S
H1916 C1909 0.961 . S
H1917 C1909 0.960 . S
H1918 C1910 0.930 . S
H1919 C1911 0.929 . S
H1920 C1928 0.929 . S
H1921 C1930 0.930 . S
H1922 C1932 0.930 . S
H1923 C1935 0.929 . S
H1924 C1938 0.930 . S
H1925 C1940 0.960 . S
H1926 C1940 0.960 . S
H1927 C1940 0.960 . S
C1928 H1920 0.929 . S
C1928 C1929 1.377 . S
C1928 C1930 1.384 . S
C1929 C1928 1.377 . S
C1929 C1935 1.390 . S
C1930 H1921 0.930 . S
C1930 C1928 1.384 . S
C1930 C1931 1.372 . S
C1931 C1930 1.372 . S
C1931 C1932 1.400 . S
C1931 C1936 1.490 . S
C1932 H1922 0.930 . S
C1932 C1931 1.400 . S
C1932 C1935 1.386 . S
H1933 C1949 0.930 . S
H1934 C1950 0.931 . S
C1935 H1923 0.929 . S
C1935 C1929 1.390 . S
C1935 C1932 1.386 . S
C1936 C1931 1.490 . S
C1936 C1938 1.395 1_554 S
C1936 C1939 1.403 . S
H1937 C1943 0.930 . S
C1938 H1924 0.930 . S
C1938 C1936 1.395 1_556 S
C1938 C1941 1.403 . S
C1939 C1936 1.403 . S
C1939 C1940 1.524 . S
C1939 C1943 1.400 . S
C1940 H1925 0.960 . S
C1940 H1926 0.960 . S
C1940 H1927 0.960 . S
C1940 C1939 1.524 . S
C1941 C1938 1.403 . S
C1941 C1942 1.392 . S
C1941 C1945 1.495 . S
C1942 C1941 1.392 . S
C1942 C1943 1.385 1_556 S
C1942 C1944 1.478 . S
C1943 H1937 0.930 . S
C1943 C1939 1.400 . S
C1943 C1942 1.385 1_554 S
C1944 C1942 1.478 . S
C1944 C1946 1.381 . S
C1944 C1950 1.383 . S
C1945 C1941 1.495 . S
C1945 H1951 0.959 . S
C1945 H1952 0.961 . S
C1945 H1953 0.960 . S
C1946 C1944 1.381 . S
C1946 C1947 1.394 . S
C1946 H1954 0.930 . S
C1947 C1946 1.394 . S
C1947 C1948 1.383 . S
C1947 H1955 0.929 . S
C1948 C1947 1.383 . S
C1948 C1949 1.377 . S
C1949 H1933 0.930 . S
C1949 C1948 1.377 . S
C1949 C1950 1.379 . S
C1950 H1934 0.931 . S
C1950 C1944 1.383 . S
C1950 C1949 1.379 . S
H1951 C1945 0.959 . S
H1952 C1945 0.961 . S
H1953 C1945 0.960 . S
H1954 C1946 0.930 . S
H1955 C1947 0.929 . S
H1956 C1964 0.929 . S
H1957 C1966 0.930 . S
H1958 C1968 0.930 . S
H1959 C1971 0.929 . S
H1960 C1974 0.930 . S
H1961 C1976 0.960 . S
H1962 C1976 0.960 . S
H1963 C1976 0.960 . S
C1964 H1956 0.929 . S
C1964 C1965 1.377 . S
C1964 C1966 1.384 . S
C1965 C1964 1.377 . S
C1965 C1971 1.390 . S
C1966 H1957 0.930 . S
C1966 C1964 1.384 . S
C1966 C1967 1.372 . S
C1967 C1966 1.372 . S
C1967 C1968 1.400 . S
C1967 C1972 1.490 . S
C1968 H1958 0.930 . S
C1968 C1967 1.400 . S
C1968 C1971 1.386 . S
H1969 C1985 0.930 . S
H1970 C1986 0.931 . S
C1971 H1959 0.929 . S
C1971 C1965 1.390 . S
C1971 C1968 1.386 . S
C1972 C1967 1.490 . S
C1972 C1974 1.395 . S
C1972 C1975 1.403 . S
H1973 C1979 0.930 . S
C1974 H1960 0.930 . S
C1974 C1972 1.395 . S
C1974 C1977 1.403 . S
C1975 C1972 1.403 . S
C1975 C1976 1.524 . S
C1975 C1979 1.400 . S
C1976 H1961 0.960 . S
C1976 H1962 0.960 . S
C1976 H1963 0.960 . S
C1976 C1975 1.524 . S
C1977 C1974 1.403 . S
C1977 C1978 1.392 . S
C1977 C1981 1.495 . S
C1978 C1977 1.392 . S
C1978 C1979 1.385 . S
C1978 C1980 1.478 . S
C1979 H1973 0.930 . S
C1979 C1975 1.400 . S
C1979 C1978 1.385 . S
C1980 C1978 1.478 . S
C1980 C1982 1.381 . S
C1980 C1986 1.383 . S
C1981 C1977 1.495 . S
C1981 H1987 0.959 . S
C1981 H1988 0.961 . S
C1981 H1989 0.960 . S
C1982 C1980 1.381 . S
C1982 C1983 1.394 . S
C1982 H1990 0.930 . S
C1983 C1982 1.394 . S
C1983 C1984 1.383 . S
C1983 H1991 0.929 . S
C1984 C1983 1.383 . S
C1984 C1985 1.377 . S
C1985 H1969 0.930 . S
C1985 C1984 1.377 . S
C1985 C1986 1.379 . S
C1986 H1970 0.931 . S
C1986 C1980 1.383 . S
C1986 C1985 1.379 . S
H1987 C1981 0.959 . S
H1988 C1981 0.961 . S
H1989 C1981 0.960 . S
H1990 C1982 0.930 . S
H1991 C1983 0.929 . S
H1992 C2000 0.929 . S
H1993 C2002 0.930 . S
H1994 C2004 0.930 . S
H1995 C2007 0.929 . S
H1996 C2010 0.930 . S
H1997 C2012 0.960 . S
H1998 C2012 0.960 . S
H1999 C2012 0.960 . S
C2000 H1992 0.929 . S
C2000 C2001 1.377 . S
C2000 C2002 1.384 . S
C2001 C2000 1.377 . S
C2001 C2007 1.390 . S
C2002 H1993 0.930 . S
C2002 C2000 1.384 . S
C2002 C2003 1.372 . S
C2003 C2002 1.372 . S
C2003 C2004 1.400 . S
C2003 C2008 1.490 . S
C2004 H1994 0.930 . S
C2004 C2003 1.400 . S
C2004 C2007 1.386 . S
H2005 C2021 0.930 . S
H2006 C2022 0.931 . S
C2007 H1995 0.929 . S
C2007 C2001 1.390 . S
C2007 C2004 1.386 . S
C2008 C2003 1.490 . S
C2008 C2010 1.395 1_556 S
C2008 C2011 1.403 . S
H2009 C2015 0.930 . S
C2010 H1996 0.930 . S
C2010 C2008 1.395 1_554 S
C2010 C2013 1.403 . S
C2011 C2008 1.403 . S
C2011 C2012 1.524 . S
C2011 C2015 1.407 . S
C2012 H1997 0.960 . S
C2012 H1998 0.960 . S
C2012 H1999 0.960 . S
C2012 C2011 1.524 . S
C2013 C2010 1.403 . S
C2013 C2014 1.392 . S
C2013 C2017 1.495 . S
C2014 C2013 1.392 . S
C2014 C2015 1.378 1_554 S
C2014 C2016 1.478 . S
C2015 H2009 0.930 . S
C2015 C2011 1.407 . S
C2015 C2014 1.378 1_556 S
C2016 C2014 1.478 . S
C2016 C2018 1.381 . S
C2016 C2022 1.383 . S
C2017 C2013 1.495 . S
C2017 H2023 0.959 . S
C2017 H2024 0.961 . S
C2017 H2025 0.960 . S
C2018 C2016 1.381 . S
C2018 C2019 1.394 . S
C2018 H2026 0.930 . S
C2019 C2018 1.394 . S
C2019 C2020 1.383 . S
C2019 H2027 0.929 . S
C2020 C2019 1.383 . S
C2020 C2021 1.377 . S
C2021 H2005 0.930 . S
C2021 C2020 1.377 . S
C2021 C2022 1.379 . S
C2022 H2006 0.931 . S
C2022 C2016 1.383 . S
C2022 C2021 1.379 . S
H2023 C2017 0.959 . S
H2024 C2017 0.961 . S
H2025 C2017 0.960 . S
H2026 C2018 0.930 . S
H2027 C2019 0.929 . S
H2028 C2036 0.929 . S
H2029 C2038 0.930 . S
H2030 C2040 0.930 . S
H2031 C2043 0.929 . S
H2032 C2046 0.930 . S
H2033 C2048 0.960 . S
H2034 C2048 0.960 . S
H2035 C2048 0.960 . S
C2036 H2028 0.929 . S
C2036 C2037 1.377 . S
C2036 C2038 1.384 . S
C2037 C2036 1.377 . S
C2037 C2043 1.390 . S
C2038 H2029 0.930 . S
C2038 C2036 1.384 . S
C2038 C2039 1.372 . S
C2039 C2038 1.372 . S
C2039 C2040 1.400 . S
C2039 C2044 1.490 . S
C2040 H2030 0.930 . S
C2040 C2039 1.400 . S
C2040 C2043 1.386 . S
H2041 C2057 0.930 . S
H2042 C2058 0.931 . S
C2043 H2031 0.929 . S
C2043 C2037 1.390 . S
C2043 C2040 1.386 . S
C2044 C2039 1.490 . S
C2044 C2046 1.395 . S
C2044 C2047 1.403 . S
H2045 C2051 0.930 . S
C2046 H2032 0.930 . S
C2046 C2044 1.395 . S
C2046 C2049 1.403 . S
C2047 C2044 1.403 . S
C2047 C2048 1.524 . S
C2047 C2051 1.400 . S
C2048 H2033 0.960 . S
C2048 H2034 0.960 . S
C2048 H2035 0.960 . S
C2048 C2047 1.524 . S
C2049 C2046 1.403 . S
C2049 C2050 1.392 . S
C2049 C2053 1.495 . S
C2050 C2049 1.392 . S
C2050 C2051 1.385 . S
C2050 C2052 1.478 . S
C2051 H2045 0.930 . S
C2051 C2047 1.400 . S
C2051 C2050 1.385 . S
C2052 C2050 1.478 . S
C2052 C2054 1.381 . S
C2052 C2058 1.383 . S
C2053 C2049 1.495 . S
C2053 H2059 0.959 . S
C2053 H2060 0.961 . S
C2053 H2061 0.960 . S
C2054 C2052 1.381 . S
C2054 C2055 1.394 . S
C2054 H2062 0.930 . S
C2055 C2054 1.394 . S
C2055 C2056 1.383 . S
C2055 H2063 0.929 . S
C2056 C2055 1.383 . S
C2056 C2057 1.377 . S
C2057 H2041 0.930 . S
C2057 C2056 1.377 . S
C2057 C2058 1.379 . S
C2058 H2042 0.931 . S
C2058 C2052 1.383 . S
C2058 C2057 1.379 . S
H2059 C2053 0.959 . S
H2060 C2053 0.961 . S
H2061 C2053 0.960 . S
H2062 C2054 0.930 . S
H2063 C2055 0.929 . S
H2064 C2072 0.929 . S
H2065 C2074 0.930 . S
H2066 C2076 0.930 . S
H2067 C2079 0.929 . S
H2068 C2082 0.930 . S
H2069 C2084 0.960 . S
H2070 C2084 0.960 . S
H2071 C2084 0.960 . S
C2072 H2064 0.929 . S
C2072 C2073 1.377 . S
C2072 C2074 1.384 . S
C2073 C2072 1.377 . S
C2073 C2079 1.390 . S
C2074 H2065 0.930 . S
C2074 C2072 1.384 . S
C2074 C2075 1.372 . S
C2075 C2074 1.372 . S
C2075 C2076 1.400 . S
C2075 C2080 1.490 . S
C2076 H2066 0.930 . S
C2076 C2075 1.400 . S
C2076 C2079 1.386 . S
H2077 C2093 0.930 . S
H2078 C2094 0.931 . S
C2079 H2067 0.929 . S
C2079 C2073 1.390 . S
C2079 C2076 1.386 . S
C2080 C2075 1.490 . S
C2080 C2082 1.395 1_554 S
C2080 C2083 1.403 . S
H2081 C2087 0.930 . S
C2082 H2068 0.930 . S
C2082 C2080 1.395 1_556 S
C2082 C2085 1.403 . S
C2083 C2080 1.403 . S
C2083 C2084 1.524 . S
C2083 C2087 1.400 . S
C2084 H2069 0.960 . S
C2084 H2070 0.960 . S
C2084 H2071 0.960 . S
C2084 C2083 1.524 . S
C2085 C2082 1.403 . S
C2085 C2086 1.392 . S
C2085 C2089 1.495 . S
C2086 C2085 1.392 . S
C2086 C2087 1.385 1_556 S
C2086 C2088 1.478 . S
C2087 H2081 0.930 . S
C2087 C2083 1.400 . S
C2087 C2086 1.385 1_554 S
C2088 C2086 1.478 . S
C2088 C2090 1.381 . S
C2088 C2094 1.383 . S
C2089 C2085 1.495 . S
C2089 H2095 0.959 . S
C2089 H2096 0.961 . S
C2089 H2097 0.960 . S
C2090 C2088 1.381 . S
C2090 C2091 1.394 . S
C2090 H2098 0.930 . S
C2091 C2090 1.394 . S
C2091 C2092 1.383 . S
C2091 H2099 0.929 . S
C2092 C2091 1.383 . S
C2092 C2093 1.377 . S
C2093 H2077 0.930 . S
C2093 C2092 1.377 . S
C2093 C2094 1.379 . S
C2094 H2078 0.931 . S
C2094 C2088 1.383 . S
C2094 C2093 1.379 . S
H2095 C2089 0.959 . S
H2096 C2089 0.961 . S
H2097 C2089 0.960 . S
H2098 C2090 0.930 . S
H2099 C2091 0.929 . S
H2100 C2108 0.929 . S
H2101 C2110 0.930 . S
H2102 C2112 0.930 . S
H2103 C2115 0.929 . S
H2104 C2118 0.930 . S
H2105 C2120 0.960 . S
H2106 C2120 0.960 . S
H2107 C2120 0.960 . S
C2108 H2100 0.929 . S
C2108 C2109 1.377 . S
C2108 C2110 1.384 . S
C2109 C2108 1.377 . S
C2109 C2115 1.390 . S
C2110 H2101 0.930 . S
C2110 C2108 1.384 . S
C2110 C2111 1.372 . S
C2111 C2110 1.372 . S
C2111 C2112 1.400 . S
C2111 C2116 1.490 . S
C2112 H2102 0.930 . S
C2112 C2111 1.400 . S
C2112 C2115 1.386 . S
H2113 C2129 0.930 . S
H2114 C2130 0.931 . S
C2115 H2103 0.929 . S
C2115 C2109 1.390 . S
C2115 C2112 1.386 . S
C2116 C2111 1.490 . S
C2116 C2118 1.395 . S
C2116 C2119 1.403 . S
H2117 C2123 0.930 . S
C2118 H2104 0.930 . S
C2118 C2116 1.395 . S
C2118 C2121 1.403 . S
C2119 C2116 1.403 . S
C2119 C2120 1.524 . S
C2119 C2123 1.400 . S
C2120 H2105 0.960 . S
C2120 H2106 0.960 . S
C2120 H2107 0.960 . S
C2120 C2119 1.524 . S
C2121 C2118 1.403 . S
C2121 C2122 1.392 . S
C2121 C2125 1.495 . S
C2122 C2121 1.392 . S
C2122 C2123 1.385 . S
C2122 C2124 1.478 . S
C2123 H2117 0.930 . S
C2123 C2119 1.400 . S
C2123 C2122 1.385 . S
C2124 C2122 1.478 . S
C2124 C2126 1.381 . S
C2124 C2130 1.383 . S
C2125 C2121 1.495 . S
C2125 H2131 0.959 . S
C2125 H2132 0.961 . S
C2125 H2133 0.960 . S
C2126 C2124 1.381 . S
C2126 C2127 1.394 . S
C2126 H2134 0.930 . S
C2127 C2126 1.394 . S
C2127 C2128 1.383 . S
C2127 H2135 0.929 . S
C2128 C2127 1.383 . S
C2128 C2129 1.377 . S
C2129 H2113 0.930 . S
C2129 C2128 1.377 . S
C2129 C2130 1.379 . S
C2130 H2114 0.931 . S
C2130 C2124 1.383 . S
C2130 C2129 1.379 . S
H2131 C2125 0.959 . S
H2132 C2125 0.961 . S
H2133 C2125 0.960 . S
H2134 C2126 0.930 . S
H2135 C2127 0.929 . S
H2136 C2144 0.929 . S
H2137 C2146 0.930 . S
H2138 C2148 0.930 . S
H2139 C2151 0.929 . S
H2140 C2154 0.930 . S
H2141 C2156 0.960 . S
H2142 C2156 0.960 . S
H2143 C2156 0.960 1_556 S
C2144 H2136 0.929 . S
C2144 C2145 1.377 . S
C2144 C2146 1.384 . S
C2145 C2144 1.377 . S
C2145 C2151 1.390 . S
C2146 H2137 0.930 . S
C2146 C2144 1.384 . S
C2146 C2147 1.372 . S
C2147 C2146 1.372 . S
C2147 C2148 1.400 . S
C2147 C2152 1.490 . S
C2148 H2138 0.930 . S
C2148 C2147 1.400 . S
C2148 C2151 1.386 . S
H2149 C2165 0.930 . S
H2150 C2166 0.931 . S
C2151 H2139 0.929 . S
C2151 C2145 1.390 . S
C2151 C2148 1.386 . S
C2152 C2147 1.490 . S
C2152 C2154 1.395 . S
C2152 C2155 1.403 1_556 S
H2153 C2159 0.930 . S
C2154 H2140 0.930 . S
C2154 C2152 1.395 . S
C2154 C2157 1.403 . S
C2155 C2152 1.403 1_554 S
C2155 C2156 1.524 . S
C2155 C2159 1.400 . S
C2156 H2141 0.960 . S
C2156 H2142 0.960 . S
C2156 H2143 0.960 1_554 S
C2156 C2155 1.524 . S
C2157 C2154 1.403 . S
C2157 C2158 1.392 1_556 S
C2157 C2161 1.495 . S
C2158 C2157 1.392 1_554 S
C2158 C2159 1.385 . S
C2158 C2160 1.478 . S
C2159 H2153 0.930 . S
C2159 C2155 1.400 . S
C2159 C2158 1.385 . S
C2160 C2158 1.478 . S
C2160 C2162 1.381 . S
C2160 C2166 1.383 . S
C2161 C2157 1.495 . S
C2161 H2167 0.959 . S
C2161 H2168 0.961 . S
C2161 H2169 0.960 1_556 S
C2162 C2160 1.381 . S
C2162 C2163 1.394 . S
C2162 H2170 0.930 . S
C2163 C2162 1.394 . S
C2163 C2164 1.383 . S
C2163 H2171 0.929 . S
C2164 C2163 1.383 . S
C2164 C2165 1.377 . S
C2165 H2149 0.930 . S
C2165 C2164 1.377 . S
C2165 C2166 1.379 . S
C2166 H2150 0.931 . S
C2166 C2160 1.383 . S
C2166 C2165 1.379 . S
H2167 C2161 0.959 . S
H2168 C2161 0.961 . S
H2169 C2161 0.960 1_554 S
H2170 C2162 0.930 . S
H2171 C2163 0.929 . S
H2172 C2180 0.929 . S
H2173 C2182 0.930 . S
H2174 C2184 0.930 . S
H2175 C2187 0.929 . S
H2176 C2190 0.930 . S
H2177 C2192 0.960 . S
H2178 C2192 0.960 . S
H2179 C2192 0.960 . S
C2180 H2172 0.929 . S
C2180 C2181 1.377 . S
C2180 C2182 1.384 . S
C2181 C2180 1.377 . S
C2181 C2187 1.390 . S
C2182 H2173 0.930 . S
C2182 C2180 1.384 . S
C2182 C2183 1.372 . S
C2183 C2182 1.372 . S
C2183 C2184 1.400 . S
C2183 C2188 1.490 . S
C2184 H2174 0.930 . S
C2184 C2183 1.400 . S
C2184 C2187 1.386 . S
H2185 C2201 0.930 . S
H2186 C2202 0.931 . S
C2187 H2175 0.929 . S
C2187 C2181 1.390 . S
C2187 C2184 1.386 . S
C2188 C2183 1.490 . S
C2188 C2190 1.395 . S
C2188 C2191 1.403 . S
H2189 C2195 0.930 . S
C2190 H2176 0.930 . S
C2190 C2188 1.395 . S
C2190 C2193 1.403 . S
C2191 C2188 1.403 . S
C2191 C2192 1.524 . S
C2191 C2195 1.400 . S
C2192 H2177 0.960 . S
C2192 H2178 0.960 . S
C2192 H2179 0.960 . S
C2192 C2191 1.524 . S
C2193 C2190 1.403 . S
C2193 C2194 1.392 . S
C2193 C2197 1.495 . S
C2194 C2193 1.392 . S
C2194 C2195 1.385 . S
C2194 C2196 1.478 . S
C2195 H2189 0.930 . S
C2195 C2191 1.400 . S
C2195 C2194 1.385 . S
C2196 C2194 1.478 . S
C2196 C2198 1.381 . S
C2196 C2202 1.383 . S
C2197 C2193 1.495 . S
C2197 H2203 0.959 . S
C2197 H2204 0.961 . S
C2197 H2205 0.960 . S
C2198 C2196 1.381 . S
C2198 C2199 1.394 . S
C2198 H2206 0.930 . S
C2199 C2198 1.394 . S
C2199 C2200 1.383 . S
C2199 H2207 0.929 . S
C2200 C2199 1.383 . S
C2200 C2201 1.377 . S
C2201 H2185 0.930 . S
C2201 C2200 1.377 . S
C2201 C2202 1.379 . S
C2202 H2186 0.931 . S
C2202 C2196 1.383 . S
C2202 C2201 1.379 . S
H2203 C2197 0.959 . S
H2204 C2197 0.961 . S
H2205 C2197 0.960 . S
H2206 C2198 0.930 . S
H2207 C2199 0.929 . S
H2208 C2216 0.929 . S
H2209 C2218 0.930 . S
H2210 C2220 0.930 . S
H2211 C2223 0.929 . S
H2212 C2226 0.930 . S
H2213 C2228 0.960 . S
H2214 C2228 0.960 . S
H2215 C2228 0.960 . S
C2216 H2208 0.929 . S
C2216 C2217 1.377 . S
C2216 C2218 1.384 . S
C2217 C2216 1.377 . S
C2217 C2223 1.390 . S
C2218 H2209 0.930 . S
C2218 C2216 1.384 . S
C2218 C2219 1.372 . S
C2219 C2218 1.372 . S
C2219 C2220 1.400 . S
C2219 C2224 1.490 . S
C2220 H2210 0.930 . S
C2220 C2219 1.400 . S
C2220 C2223 1.386 . S
H2221 C2237 0.930 . S
H2222 C2238 0.931 . S
C2223 H2211 0.929 . S
C2223 C2217 1.390 . S
C2223 C2220 1.386 . S
C2224 C2219 1.490 . S
C2224 C2226 1.395 . S
C2224 C2227 1.403 1_556 S
H2225 C2231 0.930 . S
C2226 H2212 0.930 . S
C2226 C2224 1.395 . S
C2226 C2229 1.403 . S
C2227 C2224 1.403 1_554 S
C2227 C2228 1.524 . S
C2227 C2231 1.400 . S
C2228 H2213 0.960 . S
C2228 H2214 0.960 . S
C2228 H2215 0.960 . S
C2228 C2227 1.524 . S
C2229 C2226 1.403 . S
C2229 C2230 1.392 1_556 S
C2229 C2233 1.495 . S
C2230 C2229 1.392 1_554 S
C2230 C2231 1.385 . S
C2230 C2232 1.478 . S
C2231 H2225 0.930 . S
C2231 C2227 1.400 . S
C2231 C2230 1.385 . S
C2232 C2230 1.478 . S
C2232 C2234 1.381 . S
C2232 C2238 1.383 . S
C2233 C2229 1.495 . S
C2233 H2239 0.959 . S
C2233 H2240 0.961 . S
C2233 H2241 0.960 . S
C2234 C2232 1.381 . S
C2234 C2235 1.394 . S
C2234 H2242 0.930 . S
C2235 C2234 1.394 . S
C2235 C2236 1.383 . S
C2235 H2243 0.929 . S
C2236 C2235 1.383 . S
C2236 C2237 1.377 . S
C2237 H2221 0.930 . S
C2237 C2236 1.377 . S
C2237 C2238 1.379 . S
C2238 H2222 0.931 . S
C2238 C2232 1.383 . S
C2238 C2237 1.379 . S
H2239 C2233 0.959 . S
H2240 C2233 0.961 . S
H2241 C2233 0.960 . S
H2242 C2234 0.930 . S
H2243 C2235 0.929 . S
H2244 C2252 0.929 . S
H2245 C2254 0.930 . S
H2246 C2256 0.930 . S
H2247 C2259 0.929 . S
H2248 C2262 0.930 . S
H2249 C2264 0.960 . S
H2250 C2264 0.960 . S
H2251 C2264 0.960 . S
C2252 H2244 0.929 . S
C2252 C2253 1.377 . S
C2252 C2254 1.384 . S
C2253 C2252 1.377 . S
C2253 C2259 1.390 . S
C2254 H2245 0.930 . S
C2254 C2252 1.384 . S
C2254 C2255 1.372 . S
C2255 C2254 1.372 . S
C2255 C2256 1.400 . S
C2255 C2260 1.490 . S
C2256 H2246 0.930 . S
C2256 C2255 1.400 . S
C2256 C2259 1.386 . S
H2257 C2273 0.930 . S
H2258 C2274 0.931 . S
C2259 H2247 0.929 . S
C2259 C2253 1.390 . S
C2259 C2256 1.386 . S
C2260 C2255 1.490 . S
C2260 C2262 1.395 . S
C2260 C2263 1.403 . S
H2261 C2267 0.930 . S
C2262 H2248 0.930 . S
C2262 C2260 1.395 . S
C2262 C2265 1.403 . S
C2263 C2260 1.403 . S
C2263 C2264 1.524 . S
C2263 C2267 1.400 . S
C2264 H2249 0.960 . S
C2264 H2250 0.960 . S
C2264 H2251 0.960 . S
C2264 C2263 1.524 . S
C2265 C2262 1.403 . S
C2265 C2266 1.392 . S
C2265 C2269 1.495 . S
C2266 C2265 1.392 . S
C2266 C2267 1.385 . S
C2266 C2268 1.478 . S
C2267 H2261 0.930 . S
C2267 C2263 1.400 . S
C2267 C2266 1.385 . S
C2268 C2266 1.478 . S
C2268 C2270 1.381 . S
C2268 C2274 1.383 . S
C2269 C2265 1.495 . S
C2269 H2275 0.959 . S
C2269 H2276 0.961 . S
C2269 H2277 0.960 . S
C2270 C2268 1.381 . S
C2270 C2271 1.394 . S
C2270 H2278 0.930 . S
C2271 C2270 1.394 . S
C2271 C2272 1.383 . S
C2271 H2279 0.929 . S
C2272 C2271 1.383 . S
C2272 C2273 1.377 . S
C2273 H2257 0.930 . S
C2273 C2272 1.377 . S
C2273 C2274 1.379 . S
C2274 H2258 0.931 . S
C2274 C2268 1.383 . S
C2274 C2273 1.379 . S
H2275 C2269 0.959 . S
H2276 C2269 0.961 . S
H2277 C2269 0.960 . S
H2278 C2270 0.930 . S
H2279 C2271 0.929 . S
H2280 C2288 0.929 . S
H2281 C2290 0.930 . S
H2282 C2292 0.930 . S
H2283 C2295 0.929 . S
H2284 C2298 0.930 . S
H2285 C2300 0.960 . S
H2286 C2300 0.960 . S
H2287 C2300 0.960 . S
C2288 H2280 0.929 . S
C2288 C2289 1.377 . S
C2288 C2290 1.384 . S
C2289 C2288 1.377 . S
C2289 C2295 1.390 . S
C2290 H2281 0.930 . S
C2290 C2288 1.384 . S
C2290 C2291 1.372 . S
C2291 C2290 1.372 . S
C2291 C2292 1.400 . S
C2291 C2296 1.490 . S
C2292 H2282 0.930 . S
C2292 C2291 1.400 . S
C2292 C2295 1.386 . S
H2293 C2309 0.930 . S
H2294 C2310 0.931 . S
C2295 H2283 0.929 . S
C2295 C2289 1.390 . S
C2295 C2292 1.386 . S
C2296 C2291 1.490 . S
C2296 C2298 1.395 . S
C2296 C2299 1.403 . S
H2297 C2303 0.930 . S
C2298 H2284 0.930 . S
C2298 C2296 1.395 . S
C2298 C2301 1.403 . S
C2299 C2296 1.403 . S
C2299 C2300 1.524 . S
C2299 C2303 1.400 . S
C2300 H2285 0.960 . S
C2300 H2286 0.960 . S
C2300 H2287 0.960 . S
C2300 C2299 1.524 . S
C2301 C2298 1.403 . S
C2301 C2302 1.392 . S
C2301 C2305 1.495 . S
C2302 C2301 1.392 . S
C2302 C2303 1.385 . S
C2302 C2304 1.478 . S
C2303 H2297 0.930 . S
C2303 C2299 1.400 . S
C2303 C2302 1.385 . S
C2304 C2302 1.478 . S
C2304 C2306 1.381 . S
C2304 C2310 1.383 . S
C2305 C2301 1.495 . S
C2305 H2311 0.959 . S
C2305 H2312 0.961 . S
C2305 H2313 0.960 . S
C2306 C2304 1.381 . S
C2306 C2307 1.394 . S
C2306 H2314 0.930 . S
C2307 C2306 1.394 . S
C2307 C2308 1.383 . S
C2307 H2315 0.929 . S
C2308 C2307 1.383 . S
C2308 C2309 1.377 . S
C2309 H2293 0.930 . S
C2309 C2308 1.377 . S
C2309 C2310 1.379 . S
C2310 H2294 0.931 . S
C2310 C2304 1.383 . S
C2310 C2309 1.379 . S
H2311 C2305 0.959 . S
H2312 C2305 0.961 . S
H2313 C2305 0.960 . S
H2314 C2306 0.930 . S
H2315 C2307 0.929 . S
H2316 C2324 0.929 . S
H2317 C2326 0.930 . S
H2318 C2328 0.930 . S
H2319 C2331 0.929 . S
H2320 C2334 0.930 . S
H2321 C2336 0.960 . S
H2322 C2336 0.960 . S
H2323 C2336 0.960 . S
C2324 H2316 0.929 . S
C2324 C2325 1.377 . S
C2324 C2326 1.384 . S
C2325 C2324 1.377 . S
C2325 C2331 1.390 . S
C2326 H2317 0.930 . S
C2326 C2324 1.384 . S
C2326 C2327 1.372 . S
C2327 C2326 1.372 . S
C2327 C2328 1.400 . S
C2327 C2332 1.490 . S
C2328 H2318 0.930 . S
C2328 C2327 1.400 . S
C2328 C2331 1.386 . S
H2329 C2345 0.930 . S
H2330 C2346 0.931 . S
C2331 H2319 0.929 . S
C2331 C2325 1.390 . S
C2331 C2328 1.386 . S
C2332 C2327 1.490 . S
C2332 C2334 1.395 . S
C2332 C2335 1.403 . S
H2333 C2339 0.930 . S
C2334 H2320 0.930 . S
C2334 C2332 1.395 . S
C2334 C2337 1.403 1_455 S
C2335 C2332 1.403 . S
C2335 C2336 1.524 . S
C2335 C2339 1.400 1_455 S
C2336 H2321 0.960 . S
C2336 H2322 0.960 . S
C2336 H2323 0.960 . S
C2336 C2335 1.524 . S
C2337 C2334 1.403 1_655 S
C2337 C2338 1.392 . S
C2337 C2341 1.495 . S
C2338 C2337 1.392 . S
C2338 C2339 1.385 . S
C2338 C2340 1.478 . S
C2339 H2333 0.930 . S
C2339 C2335 1.400 1_655 S
C2339 C2338 1.385 . S
C2340 C2338 1.478 . S
C2340 C2342 1.381 . S
C2340 C2346 1.383 . S
C2341 C2337 1.495 . S
C2341 H2347 0.959 . S
C2341 H2348 0.961 . S
C2341 H2349 0.960 . S
C2342 C2340 1.381 . S
C2342 C2343 1.394 . S
C2342 H2350 0.930 . S
C2343 C2342 1.394 . S
C2343 C2344 1.383 . S
C2343 H2351 0.929 . S
C2344 C2343 1.383 . S
C2344 C2345 1.377 . S
C2345 H2329 0.930 . S
C2345 C2344 1.377 . S
C2345 C2346 1.379 . S
C2346 H2330 0.931 . S
C2346 C2340 1.383 . S
C2346 C2345 1.379 . S
H2347 C2341 0.959 . S
H2348 C2341 0.961 . S
H2349 C2341 0.960 . S
H2350 C2342 0.930 . S
H2351 C2343 0.929 . S
H2352 C2360 0.929 . S
H2353 C2362 0.930 . S
H2354 C2364 0.930 . S
H2355 C2367 0.929 . S
H2356 C2370 0.930 . S
H2357 C2372 0.960 . S
H2358 C2372 0.960 . S
H2359 C2372 0.960 . S
C2360 H2352 0.929 . S
C2360 C2361 1.377 . S
C2360 C2362 1.384 . S
C2361 C2360 1.377 . S
C2361 C2367 1.390 . S
C2362 H2353 0.930 . S
C2362 C2360 1.384 . S
C2362 C2363 1.372 . S
C2363 C2362 1.372 . S
C2363 C2364 1.400 . S
C2363 C2368 1.490 . S
C2364 H2354 0.930 . S
C2364 C2363 1.400 . S
C2364 C2367 1.386 . S
H2365 C2381 0.930 . S
H2366 C2382 0.931 . S
C2367 H2355 0.929 . S
C2367 C2361 1.390 . S
C2367 C2364 1.386 . S
C2368 C2363 1.490 . S
C2368 C2370 1.395 . S
C2368 C2371 1.403 . S
H2369 C2375 0.930 . S
C2370 H2356 0.930 . S
C2370 C2368 1.395 . S
C2370 C2373 1.403 1_565 S
C2371 C2368 1.403 . S
C2371 C2372 1.524 . S
C2371 C2375 1.400 1_565 S
C2372 H2357 0.960 . S
C2372 H2358 0.960 . S
C2372 H2359 0.960 . S
C2372 C2371 1.524 . S
C2373 C2370 1.403 1_545 S
C2373 C2374 1.392 . S
C2373 C2377 1.495 . S
C2374 C2373 1.392 . S
C2374 C2375 1.385 . S
C2374 C2376 1.478 . S
C2375 H2369 0.930 . S
C2375 C2371 1.400 1_545 S
C2375 C2374 1.385 . S
C2376 C2374 1.478 . S
C2376 C2378 1.381 . S
C2376 C2382 1.383 . S
C2377 C2373 1.495 . S
C2377 H2383 0.959 . S
C2377 H2384 0.961 . S
C2377 H2385 0.960 . S
C2378 C2376 1.381 . S
C2378 C2379 1.394 . S
C2378 H2386 0.930 . S
C2379 C2378 1.394 . S
C2379 C2380 1.383 . S
C2379 H2387 0.929 . S
C2380 C2379 1.383 . S
C2380 C2381 1.377 . S
C2381 H2365 0.930 . S
C2381 C2380 1.377 . S
C2381 C2382 1.379 . S
C2382 H2366 0.931 . S
C2382 C2376 1.383 . S
C2382 C2381 1.379 . S
H2383 C2377 0.959 . S
H2384 C2377 0.961 . S
H2385 C2377 0.960 . S
H2386 C2378 0.930 . S
H2387 C2379 0.929 . S
H2388 C2396 0.929 . S
H2389 C2398 0.930 . S
H2390 C2400 0.930 . S
H2391 C2403 0.929 . S
H2392 C2406 0.930 . S
H2393 C2408 0.960 . S
H2394 C2408 0.960 . S
H2395 C2408 0.960 . S
C2396 H2388 0.929 . S
C2396 C2397 1.377 . S
C2396 C2398 1.384 . S
C2397 C2396 1.377 . S
C2397 C2403 1.390 . S
C2398 H2389 0.930 . S
C2398 C2396 1.384 . S
C2398 C2399 1.372 . S
C2399 C2398 1.372 . S
C2399 C2400 1.400 . S
C2399 C2404 1.490 . S
C2400 H2390 0.930 . S
C2400 C2399 1.400 . S
C2400 C2403 1.386 . S
H2401 C2417 0.930 . S
H2402 C2418 0.931 . S
C2403 H2391 0.929 . S
C2403 C2397 1.390 . S
C2403 C2400 1.386 . S
C2404 C2399 1.490 . S
C2404 C2406 1.395 . S
C2404 C2407 1.403 . S
H2405 C2411 0.930 . S
C2406 H2392 0.930 . S
C2406 C2404 1.395 . S
C2406 C2409 1.403 . S
C2407 C2404 1.403 . S
C2407 C2408 1.524 . S
C2407 C2411 1.400 . S
C2408 H2393 0.960 . S
C2408 H2394 0.960 . S
C2408 H2395 0.960 . S
C2408 C2407 1.524 . S
C2409 C2406 1.403 . S
C2409 C2410 1.392 . S
C2409 C2413 1.495 . S
C2410 C2409 1.392 . S
C2410 C2411 1.385 . S
C2410 C2412 1.478 . S
C2411 H2405 0.930 . S
C2411 C2407 1.400 . S
C2411 C2410 1.385 . S
C2412 C2410 1.478 . S
C2412 C2414 1.381 . S
C2412 C2418 1.383 . S
C2413 C2409 1.495 . S
C2413 H2419 0.959 . S
C2413 H2420 0.961 . S
C2413 H2421 0.960 . S
C2414 C2412 1.381 . S
C2414 C2415 1.394 . S
C2414 H2422 0.930 . S
C2415 C2414 1.394 . S
C2415 C2416 1.383 . S
C2415 H2423 0.929 . S
C2416 C2415 1.383 . S
C2416 C2417 1.377 . S
C2417 H2401 0.930 . S
C2417 C2416 1.377 . S
C2417 C2418 1.379 . S
C2418 H2402 0.931 . S
C2418 C2412 1.383 . S
C2418 C2417 1.379 . S
H2419 C2413 0.959 . S
H2420 C2413 0.961 . S
H2421 C2413 0.960 . S
H2422 C2414 0.930 . S
H2423 C2415 0.929 . S
H2424 C2432 0.929 . S
H2425 C2434 0.930 . S
H2426 C2436 0.930 . S
H2427 C2439 0.929 . S
H2428 C2442 0.930 . S
H2429 C2444 0.960 . S
H2430 C2444 0.960 . S
H2431 C2444 0.960 . S
C2432 H2424 0.929 . S
C2432 C2433 1.377 . S
C2432 C2434 1.384 . S
C2433 C2432 1.377 . S
C2433 C2439 1.390 . S
C2434 H2425 0.930 . S
C2434 C2432 1.384 . S
C2434 C2435 1.372 . S
C2435 C2434 1.372 . S
C2435 C2436 1.400 . S
C2435 C2440 1.490 . S
C2436 H2426 0.930 . S
C2436 C2435 1.400 . S
C2436 C2439 1.386 . S
H2437 C2453 0.930 . S
H2438 C2454 0.931 . S
C2439 H2427 0.929 . S
C2439 C2433 1.390 . S
C2439 C2436 1.386 . S
C2440 C2435 1.490 . S
C2440 C2442 1.395 . S
C2440 C2443 1.403 . S
H2441 C2447 0.930 . S
C2442 H2428 0.930 . S
C2442 C2440 1.395 . S
C2442 C2445 1.403 1_655 S
C2443 C2440 1.403 . S
C2443 C2444 1.524 . S
C2443 C2447 1.400 1_655 S
C2444 H2429 0.960 . S
C2444 H2430 0.960 . S
C2444 H2431 0.960 . S
C2444 C2443 1.524 . S
C2445 C2442 1.403 1_455 S
C2445 C2446 1.392 . S
C2445 C2449 1.495 . S
C2446 C2445 1.392 . S
C2446 C2447 1.385 . S
C2446 C2448 1.478 . S
C2447 H2441 0.930 . S
C2447 C2443 1.400 1_455 S
C2447 C2446 1.385 . S
C2448 C2446 1.478 . S
C2448 C2450 1.381 . S
C2448 C2454 1.383 . S
C2449 C2445 1.495 . S
C2449 H2455 0.959 . S
C2449 H2456 0.961 . S
C2449 H2457 0.960 . S
C2450 C2448 1.381 . S
C2450 C2451 1.394 . S
C2450 H2458 0.930 . S
C2451 C2450 1.394 . S
C2451 C2452 1.383 . S
C2451 H2459 0.929 . S
C2452 C2451 1.383 . S
C2452 C2453 1.377 . S
C2453 H2437 0.930 . S
C2453 C2452 1.377 . S
C2453 C2454 1.379 . S
C2454 H2438 0.931 . S
C2454 C2448 1.383 . S
C2454 C2453 1.379 . S
H2455 C2449 0.959 . S
H2456 C2449 0.961 . S
H2457 C2449 0.960 . S
H2458 C2450 0.930 . S
H2459 C2451 0.929 . S
H2460 C2468 0.929 . S
H2461 C2470 0.930 . S
H2462 C2472 0.930 . S
H2463 C2475 0.929 . S
H2464 C2478 0.930 . S
H2465 C2480 0.960 . S
H2466 C2480 0.960 . S
H2467 C2480 0.960 . S
C2468 H2460 0.929 . S
C2468 C2469 1.377 . S
C2468 C2470 1.384 . S
C2469 C2468 1.377 . S
C2469 C2475 1.390 . S
C2470 H2461 0.930 . S
C2470 C2468 1.384 . S
C2470 C2471 1.372 . S
C2471 C2470 1.372 . S
C2471 C2472 1.400 . S
C2471 C2476 1.490 . S
C2472 H2462 0.930 . S
C2472 C2471 1.400 . S
C2472 C2475 1.386 . S
H2473 C2489 0.930 . S
H2474 C2490 0.931 . S
C2475 H2463 0.929 . S
C2475 C2469 1.390 . S
C2475 C2472 1.386 . S
C2476 C2471 1.490 . S
C2476 C2478 1.395 . S
C2476 C2479 1.403 . S
H2477 C2483 0.930 . S
C2478 H2464 0.930 . S
C2478 C2476 1.395 . S
C2478 C2481 1.403 1_545 S
C2479 C2476 1.403 . S
C2479 C2480 1.524 . S
C2479 C2483 1.400 1_545 S
C2480 H2465 0.960 . S
C2480 H2466 0.960 . S
C2480 H2467 0.960 . S
C2480 C2479 1.524 . S
C2481 C2478 1.403 1_565 S
C2481 C2482 1.392 . S
C2481 C2485 1.495 . S
C2482 C2481 1.392 . S
C2482 C2483 1.385 . S
C2482 C2484 1.478 . S
C2483 H2477 0.930 . S
C2483 C2479 1.400 1_565 S
C2483 C2482 1.385 . S
C2484 C2482 1.478 . S
C2484 C2486 1.381 . S
C2484 C2490 1.383 . S
C2485 C2481 1.495 . S
C2485 H2491 0.959 . S
C2485 H2492 0.961 . S
C2485 H2493 0.960 . S
C2486 C2484 1.381 . S
C2486 C2487 1.394 . S
C2486 H2494 0.930 . S
C2487 C2486 1.394 . S
C2487 C2488 1.383 . S
C2487 H2495 0.929 . S
C2488 C2487 1.383 . S
C2488 C2489 1.377 . S
C2489 H2473 0.930 . S
C2489 C2488 1.377 . S
C2489 C2490 1.379 . S
C2490 H2474 0.931 . S
C2490 C2484 1.383 . S
C2490 C2489 1.379 . S
H2491 C2485 0.959 . S
H2492 C2485 0.961 . S
H2493 C2485 0.960 . S
H2494 C2486 0.930 . S
H2495 C2487 0.929 . S
H2496 C2504 0.929 . S
H2497 C2506 0.930 . S
H2498 C2508 0.930 . S
H2499 C2511 0.929 . S
H2500 C2514 0.930 . S
H2501 C2516 0.960 . S
H2502 C2516 0.960 . S
H2503 C2516 0.960 . S
C2504 H2496 0.929 . S
C2504 C2505 1.377 . S
C2504 C2506 1.384 . S
C2505 C2504 1.377 . S
C2505 C2511 1.390 . S
C2506 H2497 0.930 . S
C2506 C2504 1.384 . S
C2506 C2507 1.372 . S
C2507 C2506 1.372 . S
C2507 C2508 1.400 . S
C2507 C2512 1.490 . S
C2508 H2498 0.930 . S
C2508 C2507 1.400 . S
C2508 C2511 1.386 . S
H2509 C2525 0.930 . S
H2510 C2526 0.931 . S
C2511 H2499 0.929 . S
C2511 C2505 1.390 . S
C2511 C2508 1.386 . S
C2512 C2507 1.490 . S
C2512 C2514 1.395 . S
C2512 C2515 1.403 . S
H2513 C2519 0.930 . S
C2514 H2500 0.930 . S
C2514 C2512 1.395 . S
C2514 C2517 1.403 . S
C2515 C2512 1.403 . S
C2515 C2516 1.524 . S
C2515 C2519 1.400 . S
C2516 H2501 0.960 . S
C2516 H2502 0.960 . S
C2516 H2503 0.960 . S
C2516 C2515 1.524 . S
C2517 C2514 1.403 . S
C2517 C2518 1.392 . S
C2517 C2521 1.495 . S
C2518 C2517 1.392 . S
C2518 C2519 1.385 . S
C2518 C2520 1.478 . S
C2519 H2513 0.930 . S
C2519 C2515 1.400 . S
C2519 C2518 1.385 . S
C2520 C2518 1.478 . S
C2520 C2522 1.381 . S
C2520 C2526 1.383 . S
C2521 C2517 1.495 . S
C2521 H2527 0.959 . S
C2521 H2528 0.961 . S
C2521 H2529 0.960 . S
C2522 C2520 1.381 . S
C2522 C2523 1.394 . S
C2522 H2530 0.930 . S
C2523 C2522 1.394 . S
C2523 C2524 1.383 . S
C2523 H2531 0.929 . S
C2524 C2523 1.383 . S
C2524 C2525 1.377 . S
C2525 H2509 0.930 . S
C2525 C2524 1.377 . S
C2525 C2526 1.379 . S
C2526 H2510 0.931 . S
C2526 C2520 1.383 . S
C2526 C2525 1.379 . S
H2527 C2521 0.959 . S
H2528 C2521 0.961 . S
H2529 C2521 0.960 . S
H2530 C2522 0.930 . S
H2531 C2523 0.929 . S
H2532 C2540 0.929 . S
H2533 C2542 0.930 . S
H2534 C2544 0.930 . S
H2535 C2547 0.929 . S
H2536 C2550 0.930 . S
H2537 C2552 0.960 . S
H2538 C2552 0.960 . S
H2539 C2552 0.960 . S
C2540 H2532 0.929 . S
C2540 C2541 1.377 . S
C2540 C2542 1.384 . S
C2541 C2540 1.377 . S
C2541 C2547 1.390 . S
C2542 H2533 0.930 . S
C2542 C2540 1.384 . S
C2542 C2543 1.372 . S
C2543 C2542 1.372 . S
C2543 C2544 1.400 . S
C2543 C2548 1.490 . S
C2544 H2534 0.930 . S
C2544 C2543 1.400 . S
C2544 C2547 1.386 . S
H2545 C2561 0.930 . S
H2546 C2562 0.931 . S
C2547 H2535 0.929 . S
C2547 C2541 1.390 . S
C2547 C2544 1.386 . S
C2548 C2543 1.490 . S
C2548 C2550 1.395 . S
C2548 C2551 1.403 . S
H2549 C2555 0.930 . S
C2550 H2536 0.930 . S
C2550 C2548 1.395 . S
C2550 C2553 1.403 1_655 S
C2551 C2548 1.403 . S
C2551 C2552 1.524 . S
C2551 C2555 1.400 1_655 S
C2552 H2537 0.960 . S
C2552 H2538 0.960 . S
C2552 H2539 0.960 . S
C2552 C2551 1.524 . S
C2553 C2550 1.403 1_455 S
C2553 C2554 1.392 . S
C2553 C2557 1.495 . S
C2554 C2553 1.392 . S
C2554 C2555 1.385 . S
C2554 C2556 1.478 . S
C2555 H2549 0.930 . S
C2555 C2551 1.400 1_455 S
C2555 C2554 1.385 . S
C2556 C2554 1.478 . S
C2556 C2558 1.381 . S
C2556 C2562 1.383 . S
C2557 C2553 1.495 . S
C2557 H2563 0.959 . S
C2557 H2564 0.961 . S
C2557 H2565 0.960 . S
C2558 C2556 1.381 . S
C2558 C2559 1.394 . S
C2558 H2566 0.930 . S
C2559 C2558 1.394 . S
C2559 C2560 1.383 . S
C2559 H2567 0.929 . S
C2560 C2559 1.383 . S
C2560 C2561 1.377 . S
C2561 H2545 0.930 . S
C2561 C2560 1.377 . S
C2561 C2562 1.379 . S
C2562 H2546 0.931 . S
C2562 C2556 1.383 . S
C2562 C2561 1.379 . S
H2563 C2557 0.959 . S
H2564 C2557 0.961 . S
H2565 C2557 0.960 . S
H2566 C2558 0.930 . S
H2567 C2559 0.929 . S
H2568 C2576 0.929 . S
H2569 C2578 0.930 . S
H2570 C2580 0.930 . S
H2571 C2583 0.929 . S
H2572 C2586 0.930 . S
H2573 C2588 0.960 . S
H2574 C2588 0.960 . S
H2575 C2588 0.960 . S
C2576 H2568 0.929 . S
C2576 C2577 1.377 . S
C2576 C2578 1.384 . S
C2577 C2576 1.377 . S
C2577 C2583 1.390 . S
C2578 H2569 0.930 . S
C2578 C2576 1.384 . S
C2578 C2579 1.372 . S
C2579 C2578 1.372 . S
C2579 C2580 1.400 . S
C2579 C2584 1.490 . S
C2580 H2570 0.930 . S
C2580 C2579 1.400 . S
C2580 C2583 1.386 . S
H2581 C2597 0.930 . S
H2582 C2598 0.931 . S
C2583 H2571 0.929 . S
C2583 C2577 1.390 . S
C2583 C2580 1.386 . S
C2584 C2579 1.490 . S
C2584 C2586 1.395 . S
C2584 C2587 1.403 . S
H2585 C2591 0.930 . S
C2586 H2572 0.930 . S
C2586 C2584 1.395 . S
C2586 C2589 1.403 1_545 S
C2587 C2584 1.403 . S
C2587 C2588 1.524 . S
C2587 C2591 1.400 1_545 S
C2588 H2573 0.960 . S
C2588 H2574 0.960 . S
C2588 H2575 0.960 . S
C2588 C2587 1.524 . S
C2589 C2586 1.403 1_565 S
C2589 C2590 1.392 . S
C2589 C2593 1.495 . S
C2590 C2589 1.392 . S
C2590 C2591 1.385 . S
C2590 C2592 1.478 . S
C2591 H2585 0.930 . S
C2591 C2587 1.400 1_565 S
C2591 C2590 1.385 . S
C2592 C2590 1.478 . S
C2592 C2594 1.381 . S
C2592 C2598 1.383 . S
C2593 C2589 1.495 . S
C2593 H2599 0.959 . S
C2593 H2600 0.961 . S
C2593 H2601 0.960 . S
C2594 C2592 1.381 . S
C2594 C2595 1.394 . S
C2594 H2602 0.930 . S
C2595 C2594 1.394 . S
C2595 C2596 1.383 . S
C2595 H2603 0.929 . S
C2596 C2595 1.383 . S
C2596 C2597 1.377 . S
C2597 H2581 0.930 . S
C2597 C2596 1.377 . S
C2597 C2598 1.379 . S
C2598 H2582 0.931 . S
C2598 C2592 1.383 . S
C2598 C2597 1.379 . S
H2599 C2593 0.959 . S
H2600 C2593 0.961 . S
H2601 C2593 0.960 . S
H2602 C2594 0.930 . S
H2603 C2595 0.929 . S
H2604 C2612 0.929 . S
H2605 C2614 0.930 . S
H2606 C2616 0.930 . S
H2607 C2619 0.929 . S
H2608 C2622 0.930 . S
H2609 C2624 0.960 . S
H2610 C2624 0.960 . S
H2611 C2624 0.960 . S
C2612 H2604 0.929 . S
C2612 C2613 1.377 . S
C2612 C2614 1.384 . S
C2613 C2612 1.377 . S
C2613 C2619 1.390 . S
C2614 H2605 0.930 . S
C2614 C2612 1.384 . S
C2614 C2615 1.372 . S
C2615 C2614 1.372 . S
C2615 C2616 1.400 . S
C2615 C2620 1.490 . S
C2616 H2606 0.930 . S
C2616 C2615 1.400 . S
C2616 C2619 1.386 . S
H2617 C2633 0.930 . S
H2618 C2634 0.931 . S
C2619 H2607 0.929 . S
C2619 C2613 1.390 . S
C2619 C2616 1.386 . S
C2620 C2615 1.490 . S
C2620 C2622 1.395 . S
C2620 C2623 1.403 . S
H2621 C2627 0.930 . S
C2622 H2608 0.930 . S
C2622 C2620 1.395 . S
C2622 C2625 1.403 . S
C2623 C2620 1.403 . S
C2623 C2624 1.524 . S
C2623 C2627 1.400 . S
C2624 H2609 0.960 . S
C2624 H2610 0.960 . S
C2624 H2611 0.960 . S
C2624 C2623 1.524 . S
C2625 C2622 1.403 . S
C2625 C2626 1.392 . S
C2625 C2629 1.495 . S
C2626 C2625 1.392 . S
C2626 C2627 1.385 . S
C2626 C2628 1.478 . S
C2627 H2621 0.930 . S
C2627 C2623 1.400 . S
C2627 C2626 1.385 . S
C2628 C2626 1.478 . S
C2628 C2630 1.381 . S
C2628 C2634 1.383 . S
C2629 C2625 1.495 . S
C2629 H2635 0.959 . S
C2629 H2636 0.961 . S
C2629 H2637 0.960 . S
C2630 C2628 1.381 . S
C2630 C2631 1.394 . S
C2630 H2638 0.930 . S
C2631 C2630 1.394 . S
C2631 C2632 1.383 . S
C2631 H2639 0.929 . S
C2632 C2631 1.383 . S
C2632 C2633 1.377 . S
C2633 H2617 0.930 . S
C2633 C2632 1.377 . S
C2633 C2634 1.379 . S
C2634 H2618 0.931 . S
C2634 C2628 1.383 . S
C2634 C2633 1.379 . S
H2635 C2629 0.959 . S
H2636 C2629 0.961 . S
H2637 C2629 0.960 . S
H2638 C2630 0.930 . S
H2639 C2631 0.929 . S
H2640 C2648 0.929 . S
H2641 C2650 0.930 . S
H2642 C2652 0.930 . S
H2643 C2655 0.929 . S
H2644 C2658 0.930 . S
H2645 C2660 0.960 . S
H2646 C2660 0.960 . S
H2647 C2660 0.960 . S
C2648 H2640 0.929 . S
C2648 C2649 1.377 . S
C2648 C2650 1.384 . S
C2649 C2648 1.377 . S
C2649 C2655 1.390 . S
C2650 H2641 0.930 . S
C2650 C2648 1.384 . S
C2650 C2651 1.372 . S
C2651 C2650 1.372 . S
C2651 C2652 1.400 . S
C2651 C2656 1.490 . S
C2652 H2642 0.930 . S
C2652 C2651 1.400 . S
C2652 C2655 1.386 . S
H2653 C2669 0.930 . S
H2654 C2670 0.931 . S
C2655 H2643 0.929 . S
C2655 C2649 1.390 . S
C2655 C2652 1.386 . S
C2656 C2651 1.490 . S
C2656 C2658 1.395 . S
C2656 C2659 1.403 . S
H2657 C2663 0.930 . S
C2658 H2644 0.930 . S
C2658 C2656 1.395 . S
C2658 C2661 1.403 1_455 S
C2659 C2656 1.403 . S
C2659 C2660 1.524 . S
C2659 C2663 1.400 1_455 S
C2660 H2645 0.960 . S
C2660 H2646 0.960 . S
C2660 H2647 0.960 . S
C2660 C2659 1.524 . S
C2661 C2658 1.403 1_655 S
C2661 C2662 1.392 . S
C2661 C2665 1.495 . S
C2662 C2661 1.392 . S
C2662 C2663 1.385 . S
C2662 C2664 1.478 . S
C2663 H2657 0.930 . S
C2663 C2659 1.400 1_655 S
C2663 C2662 1.385 . S
C2664 C2662 1.478 . S
C2664 C2666 1.381 . S
C2664 C2670 1.383 . S
C2665 C2661 1.495 . S
C2665 H2671 0.959 . S
C2665 H2672 0.961 . S
C2665 H2673 0.960 . S
C2666 C2664 1.381 . S
C2666 C2667 1.394 . S
C2666 H2674 0.930 . S
C2667 C2666 1.394 . S
C2667 C2668 1.383 . S
C2667 H2675 0.929 . S
C2668 C2667 1.383 . S
C2668 C2669 1.377 . S
C2669 H2653 0.930 . S
C2669 C2668 1.377 . S
C2669 C2670 1.379 . S
C2670 H2654 0.931 . S
C2670 C2664 1.383 . S
C2670 C2669 1.379 . S
H2671 C2665 0.959 . S
H2672 C2665 0.961 . S
H2673 C2665 0.960 . S
H2674 C2666 0.930 . S
H2675 C2667 0.929 . S
H2676 C2684 0.929 . S
H2677 C2686 0.930 . S
H2678 C2688 0.930 . S
H2679 C2691 0.929 . S
H2680 C2694 0.930 . S
H2681 C2696 0.960 . S
H2682 C2696 0.960 . S
H2683 C2696 0.960 . S
C2684 H2676 0.929 . S
C2684 C2685 1.377 . S
C2684 C2686 1.384 . S
C2685 C2684 1.377 . S
C2685 C2691 1.390 . S
C2686 H2677 0.930 . S
C2686 C2684 1.384 . S
C2686 C2687 1.372 . S
C2687 C2686 1.372 . S
C2687 C2688 1.400 . S
C2687 C2692 1.490 . S
C2688 H2678 0.930 . S
C2688 C2687 1.400 . S
C2688 C2691 1.386 . S
H2689 C2705 0.930 . S
H2690 C2706 0.931 . S
C2691 H2679 0.929 . S
C2691 C2685 1.390 . S
C2691 C2688 1.386 . S
C2692 C2687 1.490 . S
C2692 C2694 1.395 . S
C2692 C2695 1.403 . S
H2693 C2699 0.930 . S
C2694 H2680 0.930 . S
C2694 C2692 1.395 . S
C2694 C2697 1.403 1_565 S
C2695 C2692 1.403 . S
C2695 C2696 1.524 . S
C2695 C2699 1.400 1_565 S
C2696 H2681 0.960 . S
C2696 H2682 0.960 . S
C2696 H2683 0.960 . S
C2696 C2695 1.524 . S
C2697 C2694 1.403 1_545 S
C2697 C2698 1.392 . S
C2697 C2701 1.495 . S
C2698 C2697 1.392 . S
C2698 C2699 1.385 . S
C2698 C2700 1.478 . S
C2699 H2693 0.930 . S
C2699 C2695 1.400 1_545 S
C2699 C2698 1.385 . S
C2700 C2698 1.478 . S
C2700 C2702 1.381 . S
C2700 C2706 1.383 . S
C2701 C2697 1.495 . S
C2701 H2707 0.959 . S
C2701 H2708 0.961 . S
C2701 H2709 0.960 . S
C2702 C2700 1.381 . S
C2702 C2703 1.394 . S
C2702 H2710 0.930 . S
C2703 C2702 1.394 . S
C2703 C2704 1.383 . S
C2703 H2711 0.929 . S
C2704 C2703 1.383 . S
C2704 C2705 1.377 . S
C2705 H2689 0.930 . S
C2705 C2704 1.377 . S
C2705 C2706 1.379 . S
C2706 H2690 0.931 . S
C2706 C2700 1.383 . S
C2706 C2705 1.379 . S
H2707 C2701 0.959 . S
H2708 C2701 0.961 . S
H2709 C2701 0.960 . S
H2710 C2702 0.930 . S
H2711 C2703 0.929 . S
H2712 C2720 0.929 . S
H2713 C2722 0.930 . S
H2714 C2724 0.930 . S
H2715 C2727 0.929 . S
H2716 C2730 0.930 . S
H2717 C2732 0.960 . S
H2718 C2732 0.960 . S
H2719 C2732 0.960 . S
C2720 H2712 0.929 . S
C2720 C2721 1.377 . S
C2720 C2722 1.384 . S
C2721 C2720 1.377 . S
C2721 C2727 1.390 . S
C2722 H2713 0.930 . S
C2722 C2720 1.384 . S
C2722 C2723 1.372 . S
C2723 C2722 1.372 . S
C2723 C2724 1.400 . S
C2723 C2728 1.490 . S
C2724 H2714 0.930 . S
C2724 C2723 1.400 . S
C2724 C2727 1.386 . S
H2725 C2741 0.930 . S
H2726 C2742 0.931 . S
C2727 H2715 0.929 . S
C2727 C2721 1.390 . S
C2727 C2724 1.386 . S
C2728 C2723 1.490 . S
C2728 C2730 1.395 . S
C2728 C2731 1.403 1_556 S
H2729 C2735 0.930 . S
C2730 H2716 0.930 . S
C2730 C2728 1.395 . S
C2730 C2733 1.403 . S
C2731 C2728 1.403 1_554 S
C2731 C2732 1.524 . S
C2731 C2735 1.400 . S
C2732 H2717 0.960 . S
C2732 H2718 0.960 . S
C2732 H2719 0.960 . S
C2732 C2731 1.524 . S
C2733 C2730 1.403 . S
C2733 C2734 1.392 1_556 S
C2733 C2737 1.495 . S
C2734 C2733 1.392 1_554 S
C2734 C2735 1.385 . S
C2734 C2736 1.478 . S
C2735 H2729 0.930 . S
C2735 C2731 1.400 . S
C2735 C2734 1.385 . S
C2736 C2734 1.478 . S
C2736 C2738 1.381 . S
C2736 C2742 1.383 . S
C2737 C2733 1.495 . S
C2737 H2743 0.959 . S
C2737 H2744 0.961 . S
C2737 H2745 0.960 . S
C2738 C2736 1.381 . S
C2738 C2739 1.394 . S
C2738 H2746 0.930 . S
C2739 C2738 1.394 . S
C2739 C2740 1.383 . S
C2739 H2747 0.929 . S
C2740 C2739 1.383 . S
C2740 C2741 1.377 . S
C2741 H2725 0.930 . S
C2741 C2740 1.377 . S
C2741 C2742 1.379 . S
C2742 H2726 0.931 . S
C2742 C2736 1.383 . S
C2742 C2741 1.379 . S
H2743 C2737 0.959 . S
H2744 C2737 0.961 . S
H2745 C2737 0.960 . S
H2746 C2738 0.930 . S
H2747 C2739 0.929 . S
H2748 C2756 0.929 . S
H2749 C2758 0.930 . S
H2750 C2760 0.930 . S
H2751 C2763 0.929 . S
H2752 C2766 0.930 . S
H2753 C2768 0.960 . S
H2754 C2768 0.960 . S
H2755 C2768 0.960 . S
C2756 H2748 0.929 . S
C2756 C2757 1.377 . S
C2756 C2758 1.384 . S
C2757 C2756 1.377 . S
C2757 C2763 1.390 . S
C2758 H2749 0.930 . S
C2758 C2756 1.384 . S
C2758 C2759 1.372 . S
C2759 C2758 1.372 . S
C2759 C2760 1.400 . S
C2759 C2764 1.490 . S
C2760 H2750 0.930 . S
C2760 C2759 1.400 . S
C2760 C2763 1.386 . S
H2761 C2777 0.930 . S
H2762 C2778 0.931 . S
C2763 H2751 0.929 . S
C2763 C2757 1.390 . S
C2763 C2760 1.386 . S
C2764 C2759 1.490 . S
C2764 C2766 1.395 . S
C2764 C2767 1.403 . S
H2765 C2771 0.930 . S
C2766 H2752 0.930 . S
C2766 C2764 1.395 . S
C2766 C2769 1.403 . S
C2767 C2764 1.403 . S
C2767 C2768 1.524 . S
C2767 C2771 1.400 . S
C2768 H2753 0.960 . S
C2768 H2754 0.960 . S
C2768 H2755 0.960 . S
C2768 C2767 1.524 . S
C2769 C2766 1.403 . S
C2769 C2770 1.392 . S
C2769 C2773 1.495 . S
C2770 C2769 1.392 . S
C2770 C2771 1.385 . S
C2770 C2772 1.478 . S
C2771 H2765 0.930 . S
C2771 C2767 1.400 . S
C2771 C2770 1.385 . S
C2772 C2770 1.478 . S
C2772 C2774 1.381 . S
C2772 C2778 1.383 . S
C2773 C2769 1.495 . S
C2773 H2779 0.959 . S
C2773 H2780 0.961 . S
C2773 H2781 0.960 . S
C2774 C2772 1.381 . S
C2774 C2775 1.394 . S
C2774 H2782 0.930 . S
C2775 C2774 1.394 . S
C2775 C2776 1.383 . S
C2775 H2783 0.929 . S
C2776 C2775 1.383 . S
C2776 C2777 1.377 . S
C2777 H2761 0.930 . S
C2777 C2776 1.377 . S
C2777 C2778 1.379 . S
C2778 H2762 0.931 . S
C2778 C2772 1.383 . S
C2778 C2777 1.379 . S
H2779 C2773 0.959 . S
H2780 C2773 0.961 . S
H2781 C2773 0.960 . S
H2782 C2774 0.930 . S
H2783 C2775 0.929 . S
H2784 C2792 0.929 . S
H2785 C2794 0.930 . S
H2786 C2796 0.930 . S
H2787 C2799 0.929 . S
H2788 C2802 0.930 . S
H2789 C2804 0.960 . S
H2790 C2804 0.960 . S
H2791 C2804 0.960 . S
C2792 H2784 0.929 . S
C2792 C2793 1.377 . S
C2792 C2794 1.384 . S
C2793 C2792 1.377 . S
C2793 C2799 1.390 . S
C2794 H2785 0.930 . S
C2794 C2792 1.384 . S
C2794 C2795 1.372 . S
C2795 C2794 1.372 . S
C2795 C2796 1.400 . S
C2795 C2800 1.490 . S
C2796 H2786 0.930 . S
C2796 C2795 1.400 . S
C2796 C2799 1.386 . S
H2797 C2813 0.930 . S
H2798 C2814 0.931 . S
C2799 H2787 0.929 . S
C2799 C2793 1.390 . S
C2799 C2796 1.386 . S
C2800 C2795 1.490 . S
C2800 C2802 1.395 . S
C2800 C2803 1.403 1_556 S
H2801 C2807 0.930 . S
C2802 H2788 0.930 . S
C2802 C2800 1.395 . S
C2802 C2805 1.403 . S
C2803 C2800 1.403 1_554 S
C2803 C2804 1.524 . S
C2803 C2807 1.400 . S
C2804 H2789 0.960 . S
C2804 H2790 0.960 . S
C2804 H2791 0.960 . S
C2804 C2803 1.524 . S
C2805 C2802 1.403 . S
C2805 C2806 1.392 1_556 S
C2805 C2809 1.495 . S
C2806 C2805 1.392 1_554 S
C2806 C2807 1.385 . S
C2806 C2808 1.478 . S
C2807 H2801 0.930 . S
C2807 C2803 1.400 . S
C2807 C2806 1.385 . S
C2808 C2806 1.478 . S
C2808 C2810 1.381 . S
C2808 C2814 1.383 . S
C2809 C2805 1.495 . S
C2809 H2815 0.959 . S
C2809 H2816 0.961 . S
C2809 H2817 0.960 . S
C2810 C2808 1.381 . S
C2810 C2811 1.394 . S
C2810 H2818 0.930 . S
C2811 C2810 1.394 . S
C2811 C2812 1.383 . S
C2811 H2819 0.929 . S
C2812 C2811 1.383 . S
C2812 C2813 1.377 . S
C2813 H2797 0.930 . S
C2813 C2812 1.377 . S
C2813 C2814 1.379 . S
C2814 H2798 0.931 . S
C2814 C2808 1.383 . S
C2814 C2813 1.379 . S
H2815 C2809 0.959 . S
H2816 C2809 0.961 . S
H2817 C2809 0.960 . S
H2818 C2810 0.930 . S
H2819 C2811 0.929 . S
H2820 C2828 0.929 . S
H2821 C2830 0.930 . S
H2822 C2832 0.930 . S
H2823 C2835 0.929 . S
H2824 C2838 0.930 . S
H2825 C2840 0.960 . S
H2826 C2840 0.960 . S
H2827 C2840 0.960 . S
C2828 H2820 0.929 . S
C2828 C2829 1.377 . S
C2828 C2830 1.384 . S
C2829 C2828 1.377 . S
C2829 C2835 1.390 . S
C2830 H2821 0.930 . S
C2830 C2828 1.384 . S
C2830 C2831 1.372 . S
C2831 C2830 1.372 . S
C2831 C2832 1.400 . S
C2831 C2836 1.490 . S
C2832 H2822 0.930 . S
C2832 C2831 1.400 . S
C2832 C2835 1.386 . S
H2833 C2849 0.930 . S
H2834 C2850 0.931 . S
C2835 H2823 0.929 . S
C2835 C2829 1.390 . S
C2835 C2832 1.386 . S
C2836 C2831 1.490 . S
C2836 C2838 1.395 . S
C2836 C2839 1.403 . S
H2837 C2843 0.930 . S
C2838 H2824 0.930 . S
C2838 C2836 1.395 . S
C2838 C2841 1.403 . S
C2839 C2836 1.403 . S
C2839 C2840 1.524 . S
C2839 C2843 1.400 . S
C2840 H2825 0.960 . S
C2840 H2826 0.960 . S
C2840 H2827 0.960 . S
C2840 C2839 1.524 . S
C2841 C2838 1.403 . S
C2841 C2842 1.392 . S
C2841 C2845 1.495 . S
C2842 C2841 1.392 . S
C2842 C2843 1.385 . S
C2842 C2844 1.478 . S
C2843 H2837 0.930 . S
C2843 C2839 1.400 . S
C2843 C2842 1.385 . S
C2844 C2842 1.478 . S
C2844 C2846 1.381 . S
C2844 C2850 1.383 . S
C2845 C2841 1.495 . S
C2845 H2851 0.959 . S
C2845 H2852 0.961 . S
C2845 H2853 0.960 . S
C2846 C2844 1.381 . S
C2846 C2847 1.394 . S
C2846 H2854 0.930 . S
C2847 C2846 1.394 . S
C2847 C2848 1.383 . S
C2847 H2855 0.929 . S
C2848 C2847 1.383 . S
C2848 C2849 1.377 . S
C2849 H2833 0.930 . S
C2849 C2848 1.377 . S
C2849 C2850 1.379 . S
C2850 H2834 0.931 . S
C2850 C2844 1.383 . S
C2850 C2849 1.379 . S
H2851 C2845 0.959 . S
H2852 C2845 0.961 . S
H2853 C2845 0.960 . S
H2854 C2846 0.930 . S
H2855 C2847 0.929 . S
H2856 C2864 0.929 . S
H2857 C2866 0.930 . S
H2858 C2868 0.930 . S
H2859 C2871 0.929 . S
H2860 C2874 0.930 . S
H2861 C2876 0.960 . S
H2862 C2876 0.960 . S
H2863 C2876 0.960 . S
C2864 H2856 0.929 . S
C2864 C2865 1.377 . S
C2864 C2866 1.384 . S
C2865 C2864 1.377 . S
C2865 C2871 1.390 . S
C2866 H2857 0.930 . S
C2866 C2864 1.384 . S
C2866 C2867 1.372 . S
C2867 C2866 1.372 . S
C2867 C2868 1.400 . S
C2867 C2872 1.490 . S
C2868 H2858 0.930 . S
C2868 C2867 1.400 . S
C2868 C2871 1.386 . S
H2869 C2885 0.930 . S
H2870 C2886 0.931 . S
C2871 H2859 0.929 . S
C2871 C2865 1.390 . S
C2871 C2868 1.386 . S
C2872 C2867 1.490 . S
C2872 C2874 1.395 . S
C2872 C2875 1.403 1_556 S
H2873 C2879 0.930 . S
C2874 H2860 0.930 . S
C2874 C2872 1.395 . S
C2874 C2877 1.403 . S
C2875 C2872 1.403 1_554 S
C2875 C2876 1.524 . S
C2875 C2879 1.400 . S
C2876 H2861 0.960 . S
C2876 H2862 0.960 . S
C2876 H2863 0.960 . S
C2876 C2875 1.524 . S
C2877 C2874 1.403 . S
C2877 C2878 1.392 1_556 S
C2877 C2881 1.495 . S
C2878 C2877 1.392 1_554 S
C2878 C2879 1.385 . S
C2878 C2880 1.478 . S
C2879 H2873 0.930 . S
C2879 C2875 1.400 . S
C2879 C2878 1.385 . S
C2880 C2878 1.478 . S
C2880 C2882 1.381 . S
C2880 C2886 1.383 . S
C2881 C2877 1.495 . S
C2881 H2887 0.959 . S
C2881 H2888 0.961 . S
C2881 H2889 0.960 . S
C2882 C2880 1.381 . S
C2882 C2883 1.394 . S
C2882 H2890 0.930 . S
C2883 C2882 1.394 . S
C2883 C2884 1.383 . S
C2883 H2891 0.929 . S
C2884 C2883 1.383 . S
C2884 C2885 1.377 . S
C2885 H2869 0.930 . S
C2885 C2884 1.377 . S
C2885 C2886 1.379 . S
C2886 H2870 0.931 . S
C2886 C2880 1.383 . S
C2886 C2885 1.379 . S
H2887 C2881 0.959 . S
H2888 C2881 0.961 . S
H2889 C2881 0.960 . S
H2890 C2882 0.930 . S
H2891 C2883 0.929 . S
H2892 C2900 0.929 . S
H2893 C2902 0.930 . S
H2894 C2904 0.930 . S
H2895 C2907 0.929 . S
H2896 C2910 0.930 . S
H2897 C2912 0.960 . S
H2898 C2912 0.960 . S
H2899 C2912 0.960 . S
C2900 H2892 0.929 . S
C2900 C2901 1.377 . S
C2900 C2902 1.384 . S
C2901 C2900 1.377 . S
C2901 C2907 1.390 . S
C2902 H2893 0.930 . S
C2902 C2900 1.384 . S
C2902 C2903 1.372 . S
C2903 C2902 1.372 . S
C2903 C2904 1.400 . S
C2903 C2908 1.490 . S
C2904 H2894 0.930 . S
C2904 C2903 1.400 . S
C2904 C2907 1.386 . S
H2905 C2921 0.930 . S
H2906 C2922 0.931 . S
C2907 H2895 0.929 . S
C2907 C2901 1.390 . S
C2907 C2904 1.386 . S
C2908 C2903 1.490 . S
C2908 C2910 1.395 . S
C2908 C2911 1.403 . S
H2909 C2915 0.930 . S
C2910 H2896 0.930 . S
C2910 C2908 1.395 . S
C2910 C2913 1.403 . S
C2911 C2908 1.403 . S
C2911 C2912 1.524 . S
C2911 C2915 1.400 . S
C2912 H2897 0.960 . S
C2912 H2898 0.960 . S
C2912 H2899 0.960 . S
C2912 C2911 1.524 . S
C2913 C2910 1.403 . S
C2913 C2914 1.392 . S
C2913 C2917 1.495 . S
C2914 C2913 1.392 . S
C2914 C2915 1.385 . S
C2914 C2916 1.478 . S
C2915 H2909 0.930 . S
C2915 C2911 1.400 . S
C2915 C2914 1.385 . S
C2916 C2914 1.478 . S
C2916 C2918 1.381 . S
C2916 C2922 1.383 . S
C2917 C2913 1.495 . S
C2917 H2923 0.959 . S
C2917 H2924 0.961 . S
C2917 H2925 0.960 . S
C2918 C2916 1.381 . S
C2918 C2919 1.394 . S
C2918 H2926 0.930 . S
C2919 C2918 1.394 . S
C2919 C2920 1.383 . S
C2919 H2927 0.929 . S
C2920 C2919 1.383 . S
C2920 C2921 1.377 . S
C2921 H2905 0.930 . S
C2921 C2920 1.377 . S
C2921 C2922 1.379 . S
C2922 H2906 0.931 . S
C2922 C2916 1.383 . S
C2922 C2921 1.379 . S
H2923 C2917 0.959 . S
H2924 C2917 0.961 . S
H2925 C2917 0.960 . S
H2926 C2918 0.930 . S
H2927 C2919 0.929 . S
H2928 C2936 0.929 . S
H2929 C2938 0.930 1_556 S
H2930 C2940 0.930 . S
H2931 C2943 0.929 . S
H2932 C2946 0.930 . S
H2933 C2948 0.960 . S
H2934 C2948 0.960 . S
H2935 C2948 0.960 . S
C2936 H2928 0.929 . S
C2936 C2937 1.377 . S
C2936 C2938 1.384 . S
C2937 C2936 1.377 . S
C2937 C2943 1.390 . S
C2938 H2929 0.930 1_554 S
C2938 C2936 1.384 . S
C2938 C2939 1.372 . S
C2939 C2938 1.372 . S
C2939 C2940 1.400 . S
C2939 C2944 1.490 . S
C2940 H2930 0.930 . S
C2940 C2939 1.400 . S
C2940 C2943 1.386 . S
H2941 C2957 0.930 . S
H2942 C2958 0.962 . S
C2943 H2931 0.929 . S
C2943 C2937 1.390 . S
C2943 C2940 1.386 . S
C2944 C2939 1.490 . S
C2944 C2946 1.395 1_554 S
C2944 C2947 1.403 . S
H2945 C2951 0.930 . S
C2946 H2932 0.930 . S
C2946 C2944 1.395 1_556 S
C2946 C2949 1.403 . S
C2947 C2944 1.403 . S
C2947 C2948 1.524 . S
C2947 C2951 1.400 . S
C2948 H2933 0.960 . S
C2948 H2934 0.960 . S
C2948 H2935 0.960 . S
C2948 C2947 1.524 . S
C2949 C2946 1.403 . S
C2949 C2950 1.392 . S
C2949 C2953 1.495 . S
C2950 C2949 1.392 . S
C2950 C2951 1.385 1_556 S
C2950 C2952 1.478 . S
C2951 H2945 0.930 . S
C2951 C2947 1.400 . S
C2951 C2950 1.385 1_554 S
C2952 C2950 1.478 . S
C2952 C2954 1.381 . S
C2952 C2958 1.383 . S
C2953 C2949 1.495 . S
C2953 H2959 0.959 . S
C2953 H2960 0.961 . S
C2953 H2961 0.960 . S
C2954 C2952 1.381 . S
C2954 C2955 1.394 . S
C2954 H2962 0.930 . S
C2955 C2954 1.394 . S
C2955 C2956 1.383 . S
C2955 H2963 0.929 . S
C2956 C2955 1.383 . S
C2956 C2957 1.377 . S
C2957 H2941 0.930 . S
C2957 C2956 1.377 . S
C2957 C2958 1.379 . S
C2958 H2942 0.962 . S
C2958 C2952 1.383 . S
C2958 C2957 1.379 . S
H2959 C2953 0.959 . S
H2960 C2953 0.961 . S
H2961 C2953 0.960 . S
H2962 C2954 0.930 . S
H2963 C2955 0.929 . S
H2964 C2972 0.929 . S
H2965 C2974 0.930 . S
H2966 C2976 0.930 . S
H2967 C2979 0.929 . S
H2968 C2982 0.930 . S
H2969 C2984 0.960 . S
H2970 C2984 0.960 . S
H2971 C2984 0.960 . S
C2972 H2964 0.929 . S
C2972 C2973 1.377 . S
C2972 C2974 1.384 . S
C2973 C2972 1.377 . S
C2973 C2979 1.390 . S
C2974 H2965 0.930 . S
C2974 C2972 1.384 . S
C2974 C2975 1.372 . S
C2975 C2974 1.372 . S
C2975 C2976 1.400 . S
C2975 C2980 1.490 . S
C2976 H2966 0.930 . S
C2976 C2975 1.400 . S
C2976 C2979 1.386 . S
H2977 C2993 0.930 . S
H2978 C2994 0.931 . S
C2979 H2967 0.929 . S
C2979 C2973 1.390 . S
C2979 C2976 1.386 . S
C2980 C2975 1.490 . S
C2980 C2982 1.395 . S
C2980 C2983 1.403 . S
H2981 C2987 0.930 . S
C2982 H2968 0.930 . S
C2982 C2980 1.395 . S
C2982 C2985 1.403 . S
C2983 C2980 1.403 . S
C2983 C2984 1.524 . S
C2983 C2987 1.400 . S
C2984 H2969 0.960 . S
C2984 H2970 0.960 . S
C2984 H2971 0.960 . S
C2984 C2983 1.524 . S
C2985 C2982 1.403 . S
C2985 C2986 1.392 . S
C2985 C2989 1.495 . S
C2986 C2985 1.392 . S
C2986 C2987 1.385 . S
C2986 C2988 1.478 . S
C2987 H2981 0.930 . S
C2987 C2983 1.400 . S
C2987 C2986 1.385 . S
C2988 C2986 1.478 . S
C2988 C2990 1.381 . S
C2988 C2994 1.383 . S
C2989 C2985 1.495 . S
C2989 H2995 0.959 . S
C2989 H2996 0.961 . S
C2989 H2997 0.960 . S
C2990 C2988 1.381 . S
C2990 C2991 1.394 . S
C2990 H2998 0.930 . S
C2991 C2990 1.394 . S
C2991 C2992 1.383 . S
C2991 H2999 0.929 . S
C2992 C2991 1.383 . S
C2992 C2993 1.377 . S
C2993 H2977 0.930 . S
C2993 C2992 1.377 . S
C2993 C2994 1.379 . S
C2994 H2978 0.931 . S
C2994 C2988 1.383 . S
C2994 C2993 1.379 . S
H2995 C2989 0.959 . S
H2996 C2989 0.961 . S
H2997 C2989 0.960 . S
H2998 C2990 0.930 . S
H2999 C2991 0.929 . S
H3000 C3008 0.929 . S
H3001 C3010 0.930 . S
H3002 C3012 0.930 . S
H3003 C3015 0.929 . S
H3004 C3018 0.930 . S
H3005 C3020 0.960 . S
H3006 C3020 0.960 . S
H3007 C3020 0.960 . S
C3008 H3000 0.929 . S
C3008 C3009 1.377 . S
C3008 C3010 1.384 . S
C3009 C3008 1.377 . S
C3009 C3015 1.390 . S
C3010 H3001 0.930 . S
C3010 C3008 1.384 . S
C3010 C3011 1.372 . S
C3011 C3010 1.372 . S
C3011 C3012 1.400 . S
C3011 C3016 1.490 . S
C3012 H3002 0.930 . S
C3012 C3011 1.400 . S
C3012 C3015 1.386 . S
H3013 C3029 0.930 . S
H3014 C3030 0.931 . S
C3015 H3003 0.929 . S
C3015 C3009 1.390 . S
C3015 C3012 1.386 . S
C3016 C3011 1.490 . S
C3016 C3018 1.395 . S
C3016 C3019 1.403 1_554 S
H3017 C3023 0.930 . S
C3018 H3004 0.930 . S
C3018 C3016 1.395 . S
C3018 C3021 1.403 . S
C3019 C3016 1.403 1_556 S
C3019 C3020 1.524 . S
C3019 C3023 1.400 . S
C3020 H3005 0.960 . S
C3020 H3006 0.960 . S
C3020 H3007 0.960 . S
C3020 C3019 1.524 . S
C3021 C3018 1.403 . S
C3021 C3022 1.392 1_554 S
C3021 C3025 1.495 . S
C3022 C3021 1.392 1_556 S
C3022 C3023 1.385 . S
C3022 C3024 1.478 . S
C3023 H3017 0.930 . S
C3023 C3019 1.400 . S
C3023 C3022 1.385 . S
C3024 C3022 1.478 . S
C3024 C3026 1.381 . S
C3024 C3030 1.383 . S
C3025 C3021 1.495 . S
C3025 H3031 0.959 . S
C3025 H3032 0.961 . S
C3025 H3033 0.960 . S
C3026 C3024 1.381 . S
C3026 C3027 1.394 . S
C3026 H3034 0.930 . S
C3027 C3026 1.394 . S
C3027 C3028 1.383 . S
C3027 H3035 0.929 . S
C3028 C3027 1.383 . S
C3028 C3029 1.377 . S
C3029 H3013 0.930 . S
C3029 C3028 1.377 . S
C3029 C3030 1.379 . S
C3030 H3014 0.931 . S
C3030 C3024 1.383 . S
C3030 C3029 1.379 . S
H3031 C3025 0.959 . S
H3032 C3025 0.961 . S
H3033 C3025 0.960 . S
H3034 C3026 0.930 . S
H3035 C3027 0.929 . S
H3036 C3044 0.929 . S
H3037 C3046 0.930 . S
H3038 C3048 0.930 . S
H3039 C3051 0.929 . S
H3040 C3054 0.930 . S
H3041 C3056 0.960 . S
H3042 C3056 0.960 . S
H3043 C3056 0.960 . S
C3044 H3036 0.929 . S
C3044 C3045 1.377 . S
C3044 C3046 1.384 . S
C3045 C3044 1.377 . S
C3045 C3051 1.390 . S
C3046 H3037 0.930 . S
C3046 C3044 1.384 . S
C3046 C3047 1.372 . S
C3047 C3046 1.372 . S
C3047 C3048 1.400 . S
C3047 C3052 1.490 . S
C3048 H3038 0.930 . S
C3048 C3047 1.400 . S
C3048 C3051 1.386 . S
H3049 C3065 0.930 . S
H3050 C3066 0.931 . S
C3051 H3039 0.929 . S
C3051 C3045 1.390 . S
C3051 C3048 1.386 . S
C3052 C3047 1.490 . S
C3052 C3054 1.395 . S
C3052 C3055 1.403 . S
H3053 C3059 0.930 . S
C3054 H3040 0.930 . S
C3054 C3052 1.395 . S
C3054 C3057 1.403 . S
C3055 C3052 1.403 . S
C3055 C3056 1.524 . S
C3055 C3059 1.400 . S
C3056 H3041 0.960 . S
C3056 H3042 0.960 . S
C3056 H3043 0.960 . S
C3056 C3055 1.524 . S
C3057 C3054 1.403 . S
C3057 C3058 1.392 . S
C3057 C3061 1.495 . S
C3058 C3057 1.392 . S
C3058 C3059 1.385 . S
C3058 C3060 1.478 . S
C3059 H3053 0.930 . S
C3059 C3055 1.400 . S
C3059 C3058 1.385 . S
C3060 C3058 1.478 . S
C3060 C3062 1.381 . S
C3060 C3066 1.383 . S
C3061 C3057 1.495 . S
C3061 H3067 0.959 . S
C3061 H3068 0.961 . S
C3061 H3069 0.960 . S
C3062 C3060 1.381 . S
C3062 C3063 1.394 . S
C3062 H3070 0.930 . S
C3063 C3062 1.394 . S
C3063 C3064 1.383 . S
C3063 H3071 0.929 . S
C3064 C3063 1.383 . S
C3064 C3065 1.377 . S
C3065 H3049 0.930 . S
C3065 C3064 1.377 . S
C3065 C3066 1.379 . S
C3066 H3050 0.931 . S
C3066 C3060 1.383 . S
C3066 C3065 1.379 . S
H3067 C3061 0.959 . S
H3068 C3061 0.961 . S
H3069 C3061 0.960 . S
H3070 C3062 0.930 . S
H3071 C3063 0.929 . S
H3072 C3080 0.929 . S
H3073 C3082 0.930 1_554 S
H3074 C3084 0.930 . S
H3075 C3087 0.929 . S
H3076 C3090 0.930 . S
H3077 C3092 0.960 . S
H3078 C3092 0.960 . S
H3079 C3092 0.960 . S
C3080 H3072 0.929 . S
C3080 C3081 1.377 . S
C3080 C3082 1.384 . S
C3081 C3080 1.377 . S
C3081 C3087 1.390 . S
C3082 H3073 0.930 1_556 S
C3082 C3080 1.384 . S
C3082 C3083 1.372 . S
C3083 C3082 1.372 . S
C3083 C3084 1.400 . S
C3083 C3088 1.490 . S
C3084 H3074 0.930 . S
C3084 C3083 1.400 . S
C3084 C3087 1.386 . S
H3085 C3101 0.930 . S
H3086 C3102 0.931 . S
C3087 H3075 0.929 . S
C3087 C3081 1.390 . S
C3087 C3084 1.386 . S
C3088 C3083 1.490 . S
C3088 C3090 1.395 1_556 S
C3088 C3091 1.403 . S
H3089 C3095 0.930 . S
C3090 H3076 0.930 . S
C3090 C3088 1.395 1_554 S
C3090 C3093 1.403 . S
C3091 C3088 1.403 . S
C3091 C3092 1.524 . S
C3091 C3095 1.400 . S
C3092 H3077 0.960 . S
C3092 H3078 0.960 . S
C3092 H3079 0.960 . S
C3092 C3091 1.524 . S
C3093 C3090 1.403 . S
C3093 C3094 1.392 . S
C3093 C3097 1.495 . S
C3094 C3093 1.392 . S
C3094 C3095 1.385 1_554 S
C3094 C3096 1.478 . S
C3095 H3089 0.930 . S
C3095 C3091 1.400 . S
C3095 C3094 1.385 1_556 S
C3096 C3094 1.478 . S
C3096 C3098 1.381 . S
C3096 C3102 1.383 . S
C3097 C3093 1.495 . S
C3097 H3103 0.959 . S
C3097 H3104 0.961 . S
C3097 H3105 0.960 . S
C3098 C3096 1.381 . S
C3098 C3099 1.394 . S
C3098 H3106 0.930 . S
C3099 C3098 1.394 . S
C3099 C3100 1.383 . S
C3099 H3107 0.929 . S
C3100 C3099 1.383 . S
C3100 C3101 1.377 . S
C3101 H3085 0.930 . S
C3101 C3100 1.377 . S
C3101 C3102 1.379 . S
C3102 H3086 0.931 . S
C3102 C3096 1.383 . S
C3102 C3101 1.379 . S
H3103 C3097 0.959 . S
H3104 C3097 0.961 . S
H3105 C3097 0.960 . S
H3106 C3098 0.930 . S
H3107 C3099 0.929 . S
H3108 C3116 0.929 . S
H3109 C3118 0.930 . S
H3110 C3120 0.930 . S
H3111 C3123 0.929 . S
H3112 C3126 0.930 . S
H3113 C3128 0.960 . S
H3114 C3128 0.960 . S
H3115 C3128 0.960 . S
C3116 H3108 0.929 . S
C3116 C3117 1.377 . S
C3116 C3118 1.384 . S
C3117 C3116 1.377 . S
C3117 C3123 1.390 . S
C3118 H3109 0.930 . S
C3118 C3116 1.384 . S
C3118 C3119 1.372 . S
C3119 C3118 1.372 . S
C3119 C3120 1.400 . S
C3119 C3124 1.490 . S
C3120 H3110 0.930 . S
C3120 C3119 1.400 . S
C3120 C3123 1.386 . S
H3121 C3137 0.930 . S
H3122 C3138 0.931 . S
C3123 H3111 0.929 . S
C3123 C3117 1.390 . S
C3123 C3120 1.386 . S
C3124 C3119 1.490 . S
C3124 C3126 1.395 . S
C3124 C3127 1.403 . S
H3125 C3131 0.930 . S
C3126 H3112 0.930 . S
C3126 C3124 1.395 . S
C3126 C3129 1.403 . S
C3127 C3124 1.403 . S
C3127 C3128 1.524 . S
C3127 C3131 1.400 . S
C3128 H3113 0.960 . S
C3128 H3114 0.960 . S
C3128 H3115 0.960 . S
C3128 C3127 1.524 . S
C3129 C3126 1.403 . S
C3129 C3130 1.392 . S
C3129 C3133 1.495 . S
C3130 C3129 1.392 . S
C3130 C3131 1.385 . S
C3130 C3132 1.478 . S
C3131 H3125 0.930 . S
C3131 C3127 1.400 . S
C3131 C3130 1.385 . S
C3132 C3130 1.478 . S
C3132 C3134 1.381 . S
C3132 C3138 1.383 . S
C3133 C3129 1.495 . S
C3133 H3139 0.959 . S
C3133 H3140 0.961 . S
C3133 H3141 0.960 . S
C3134 C3132 1.381 . S
C3134 C3135 1.394 . S
C3134 H3142 0.930 . S
C3135 C3134 1.394 . S
C3135 C3136 1.383 . S
C3135 H3143 0.929 . S
C3136 C3135 1.383 . S
C3136 C3137 1.377 . S
C3137 H3121 0.930 . S
C3137 C3136 1.377 . S
C3137 C3138 1.379 . S
C3138 H3122 0.931 . S
C3138 C3132 1.383 . S
C3138 C3137 1.379 . S
H3139 C3133 0.959 . S
H3140 C3133 0.961 . S
H3141 C3133 0.960 . S
H3142 C3134 0.930 . S
H3143 C3135 0.929 . S
C1425 C3 1.568 . S
C1444 C888 1.578 . S
C1461 C62 1.566 . S
C1480 C947 1.581 . S
C1497 C1006 1.565 . S
C1516 C121 1.552 . S
C1533 C711 1.564 . S
C1552 C180 1.580 . S
C1569 C770 1.570 . S
C1588 C239 1.562 . S
C1605 C829 1.564 . S
C1624 C298 1.581 . S
C1641 C1242 1.569 . S
C1660 C357 1.571 . S
C1677 C416 1.563 . S
C1696 C1301 1.571 . S
C1713 C1360 1.563 . S
C1732 C475 1.572 . S
C1749 C534 1.566 . S
C1768 C1065 1.581 . S
C1785 C1124 1.564 . S
C1804 C593 1.558 . S
C1821 C652 1.566 . S
C1840 C1183 1.581 . S
C1857 C595 1.529 . S
C1876 C5 1.516 . S
C1893 C654 1.527 . S
C1912 C64 1.528 . S
C1929 C123 1.528 . S
C1948 C359 1.536 . S
C1965 C182 1.527 . S
C1984 C418 1.529 . S
C2001 C477 1.531 . S
C2020 C241 1.528 . S
C2037 C300 1.528 . S
C2056 C536 1.522 . S
C2073 C1303 1.531 . S
C2092 C713 1.536 . S
C2109 C772 1.531 . S
C2128 C1362 1.536 . S
C2145 C831 1.527 . S
C2164 C1067 1.518 . S
C2181 C1126 1.531 . S
C2200 C890 1.536 . S
C2217 C949 1.527 . S
C2236 C1185 1.516 . S
C2253 C1008 1.529 . S
C2272 C1244 1.530 . S
C2289 C52 1.514 . S
C2308 C1114 1.514 . S
C2325 C1173 1.515 . S
C2344 C111 1.507 . S
C2361 C170 1.513 . S
C2380 C1232 1.507 . S
C2397 C229 1.513 . S
C2416 C1291 1.508 . S
C2433 C1350 1.513 . S
C2452 C288 1.510 . S
C2469 C347 1.514 . S
C2488 C1409 1.506 . S
C2505 C406 1.513 . S
C2524 C760 1.515 . S
C2541 C465 1.513 . S
C2560 C819 1.509 . S
C2577 C878 1.513 . S
C2596 C524 1.515 . S
C2613 C937 1.514 . S
C2632 C583 1.505 . S
C2649 C642 1.514 . S
C2668 C996 1.505 . S
C2685 C1055 1.513 . S
C2704 C701 1.515 . S
C2721 C387 1.567 . S
C2740 C33 1.572 . S
C2757 C92 1.564 . S
C2776 C446 1.557 . S
C2793 C505 1.567 . S
C2812 C151 1.571 . S
C2829 C564 1.568 . S
C2848 C210 1.571 . S
C2865 C623 1.567 . S
C2884 C269 1.571 . S
C2901 C328 1.566 . S
C2920 C682 1.570 . S
C2937 C1095 1.566 . S
C2956 C741 1.555 . S
C2973 C800 1.564 . S
C2992 C1154 1.560 . S
C3009 C1213 1.566 . S
C3028 C859 1.571 . S
C3045 C1272 1.565 . S
C3064 C918 1.554 . S
C3081 C977 1.566 . S
C3100 C1331 1.554 . S
C3117 C1036 1.566 . S
C3136 C1390 1.571 . S
