# Generated by pormake.
# Topology vbv, (6)-cn, num edge types: 1
# Building blocks:
#     Node 0, Type 0, BuildingBlock: OJICUG_clean_sbu_0, # of connection points: 6
#     Node 1, Type 0, BuildingBlock: OJICUG_clean_sbu_0, # of connection points: 6
#     Node 2, Type 0, BuildingBlock: OJICUG_clean_sbu_0, # of connection points: 6
#     Node 3, Type 0, BuildingBlock: OJICUG_clean_sbu_0, # of connection points: 6
#     Node 4, Type 0, BuildingBlock: OJICUG_clean_sbu_0, # of connection points: 6
#     Node 5, Type 0, BuildingBlock: OJICUG_clean_sbu_0, # of connection points: 6
#     Node 6, Type 0, BuildingBlock: OJICUG_clean_sbu_0, # of connection points: 6
#     Node 7, Type 0, BuildingBlock: OJICUG_clean_sbu_0, # of connection points: 6
#     Node 8, Type 0, BuildingBlock: OJICUG_clean_sbu_0, # of connection points: 6
#     Node 9, Type 0, BuildingBlock: OJICUG_clean_sbu_0, # of connection points: 6
#     Node 10, Type 0, BuildingBlock: OJICUG_clean_sbu_0, # of connection points: 6
#     Node 11, Type 0, BuildingBlock: OJICUG_clean_sbu_0, # of connection points: 6
#     Node 12, Type 0, BuildingBlock: OJICUG_clean_sbu_0, # of connection points: 6
#     Node 13, Type 0, BuildingBlock: OJICUG_clean_sbu_0, # of connection points: 6
#     Node 14, Type 0, BuildingBlock: OJICUG_clean_sbu_0, # of connection points: 6
#     Node 15, Type 0, BuildingBlock: OJICUG_clean_sbu_0, # of connection points: 6
#     Edge 16, Type (0, 0), BuildingBlock: ZUJKAS_clean_linker_0, # of connection points: 2
#     Edge 17, Type (0, 0), BuildingBlock: ZUJKAS_clean_linker_0, # of connection points: 2
#     Edge 18, Type (0, 0), BuildingBlock: ZUJKAS_clean_linker_0, # of connection points: 2
#     Edge 19, Type (0, 0), BuildingBlock: ZUJKAS_clean_linker_0, # of connection points: 2
#     Edge 20, Type (0, 0), BuildingBlock: ZUJKAS_clean_linker_0, # of connection points: 2
#     Edge 21, Type (0, 0), BuildingBlock: ZUJKAS_clean_linker_0, # of connection points: 2
#     Edge 22, Type (0, 0), BuildingBlock: ZUJKAS_clean_linker_0, # of connection points: 2
#     Edge 23, Type (0, 0), BuildingBlock: ZUJKAS_clean_linker_0, # of connection points: 2
#     Edge 24, Type (0, 0), BuildingBlock: ZUJKAS_clean_linker_0, # of connection points: 2
#     Edge 25, Type (0, 0), BuildingBlock: ZUJKAS_clean_linker_0, # of connection points: 2
#     Edge 26, Type (0, 0), BuildingBlock: ZUJKAS_clean_linker_0, # of connection points: 2
#     Edge 27, Type (0, 0), BuildingBlock: ZUJKAS_clean_linker_0, # of connection points: 2
#     Edge 28, Type (0, 0), BuildingBlock: ZUJKAS_clean_linker_0, # of connection points: 2
#     Edge 29, Type (0, 0), BuildingBlock: ZUJKAS_clean_linker_0, # of connection points: 2
#     Edge 30, Type (0, 0), BuildingBlock: ZUJKAS_clean_linker_0, # of connection points: 2
#     Edge 31, Type (0, 0), BuildingBlock: ZUJKAS_clean_linker_0, # of connection points: 2
#     Edge 32, Type (0, 0), BuildingBlock: ZUJKAS_clean_linker_0, # of connection points: 2
#     Edge 33, Type (0, 0), BuildingBlock: ZUJKAS_clean_linker_0, # of connection points: 2
#     Edge 34, Type (0, 0), BuildingBlock: ZUJKAS_clean_linker_0, # of connection points: 2
#     Edge 35, Type (0, 0), BuildingBlock: ZUJKAS_clean_linker_0, # of connection points: 2
#     Edge 36, Type (0, 0), BuildingBlock: ZUJKAS_clean_linker_0, # of connection points: 2
#     Edge 37, Type (0, 0), BuildingBlock: ZUJKAS_clean_linker_0, # of connection points: 2
#     Edge 38, Type (0, 0), BuildingBlock: ZUJKAS_clean_linker_0, # of connection points: 2
#     Edge 39, Type (0, 0), BuildingBlock: ZUJKAS_clean_linker_0, # of connection points: 2
#     Edge 40, Type (0, 0), BuildingBlock: ZUJKAS_clean_linker_0, # of connection points: 2
#     Edge 41, Type (0, 0), BuildingBlock: ZUJKAS_clean_linker_0, # of connection points: 2
#     Edge 42, Type (0, 0), BuildingBlock: ZUJKAS_clean_linker_0, # of connection points: 2
#     Edge 43, Type (0, 0), BuildingBlock: ZUJKAS_clean_linker_0, # of connection points: 2
#     Edge 44, Type (0, 0), BuildingBlock: ZUJKAS_clean_linker_0, # of connection points: 2
#     Edge 45, Type (0, 0), BuildingBlock: ZUJKAS_clean_linker_0, # of connection points: 2
#     Edge 46, Type (0, 0), BuildingBlock: ZUJKAS_clean_linker_0, # of connection points: 2
#     Edge 47, Type (0, 0), BuildingBlock: ZUJKAS_clean_linker_0, # of connection points: 2
#     Edge 48, Type (0, 0), BuildingBlock: ZUJKAS_clean_linker_0, # of connection points: 2
#     Edge 49, Type (0, 0), BuildingBlock: ZUJKAS_clean_linker_0, # of connection points: 2
#     Edge 50, Type (0, 0), BuildingBlock: ZUJKAS_clean_linker_0, # of connection points: 2
#     Edge 51, Type (0, 0), BuildingBlock: ZUJKAS_clean_linker_0, # of connection points: 2
#     Edge 52, Type (0, 0), BuildingBlock: ZUJKAS_clean_linker_0, # of connection points: 2
#     Edge 53, Type (0, 0), BuildingBlock: ZUJKAS_clean_linker_0, # of connection points: 2
#     Edge 54, Type (0, 0), BuildingBlock: ZUJKAS_clean_linker_0, # of connection points: 2
#     Edge 55, Type (0, 0), BuildingBlock: ZUJKAS_clean_linker_0, # of connection points: 2
#     Edge 56, Type (0, 0), BuildingBlock: ZUJKAS_clean_linker_0, # of connection points: 2
#     Edge 57, Type (0, 0), BuildingBlock: ZUJKAS_clean_linker_0, # of connection points: 2
#     Edge 58, Type (0, 0), BuildingBlock: ZUJKAS_clean_linker_0, # of connection points: 2
#     Edge 59, Type (0, 0), BuildingBlock: ZUJKAS_clean_linker_0, # of connection points: 2
#     Edge 60, Type (0, 0), BuildingBlock: ZUJKAS_clean_linker_0, # of connection points: 2
#     Edge 61, Type (0, 0), BuildingBlock: ZUJKAS_clean_linker_0, # of connection points: 2
#     Edge 62, Type (0, 0), BuildingBlock: ZUJKAS_clean_linker_0, # of connection points: 2
#     Edge 63, Type (0, 0), BuildingBlock: ZUJKAS_clean_linker_0, # of connection points: 2
# Relax obj value: 0.217
# Max RMSD: 0.236
# Mean RMSD: 0.236
data_MOF--net-vbv--node1-OJICUG_clean_sbu_0--edge1-ZUJKAS_clean_linker_0
_symmetry_space_group_name_H-M    P1
_symmetry_Int_Tables_number       1
_symmetry_cell_setting            triclinic
loop_
_symmetry_equiv_pos_as_xyz
'x, y, z'
_cell_length_a     70.809172
_cell_length_b     36.27873
_cell_length_c     59.977105
_cell_angle_alpha  90.013926
_cell_angle_beta   89.992367
_cell_angle_gamma 90.000373
loop_
_atom_site_label
_atom_site_type_symbol
_atom_site_fract_x
_atom_site_fract_y
_atom_site_fract_z
_atom_type_partial_charge
Sc0 Sc 0.12044 0.38908 0.10175 0.0
Sc1 Sc 0.15207 0.31534 0.09742 0.0
Sc2 Sc 0.12288 0.33711 0.05235 0.0
O3 O 0.1318 0.34723 0.08377 0.0
C4 C 0.0846 0.35236 0.07923 0.0
C5 C 0.12513 0.32506 0.13832 0.0
C6 C 0.12911 0.25566 0.06875 0.0
C7 C 0.16348 0.39643 0.11421 0.0
C8 C 0.12181 0.42395 0.05253 0.0
C9 C 0.16765 0.32653 0.0488 0.0
O10 O 0.09238 0.36786 0.09594 0.0
O11 O 0.13507 0.30417 0.12605 0.0
O12 O 0.11961 0.27937 0.05804 0.0
O13 O 0.14805 0.41199 0.10865 0.0
O14 O 0.12509 0.39352 0.04291 0.0
O15 O 0.1703 0.32429 0.0697 0.0
O16 O 0.11862 0.42633 0.07338 0.0
O17 O 0.1657 0.36162 0.11345 0.0
O18 O 0.15132 0.32884 0.03998 0.0
O19 O 0.12061 0.35776 0.13267 0.0
O20 O 0.09366 0.34327 0.06172 0.0
O21 O 0.14192 0.26451 0.08262 0.0
Sc22 Sc 0.37461 0.664 0.05427 0.0
Sc23 Sc 0.34627 0.69097 0.0995 0.0
Sc24 Sc 0.37696 0.6151 0.10509 0.0
O25 O 0.36595 0.65666 0.08627 0.0
C26 C 0.37499 0.57671 0.05697 0.0
C27 C 0.33042 0.6776 0.05044 0.0
C28 C 0.33314 0.61111 0.11681 0.0
C29 C 0.3702 0.74748 0.07019 0.0
C30 C 0.41302 0.64992 0.08102 0.0
C31 C 0.37303 0.67988 0.14125 0.0
O32 O 0.37378 0.60678 0.04637 0.0
O33 O 0.32864 0.68622 0.07084 0.0
O34 O 0.34907 0.59532 0.11408 0.0
O35 O 0.37671 0.7224 0.05765 0.0
O36 O 0.40546 0.63303 0.0974 0.0
O37 O 0.36177 0.69915 0.12966 0.0
O38 O 0.40372 0.66083 0.0641 0.0
O39 O 0.35913 0.74072 0.08641 0.0
O40 O 0.37901 0.64849 0.13495 0.0
O41 O 0.34614 0.66883 0.04162 0.0
O42 O 0.3765 0.57523 0.07808 0.0
O43 O 0.33068 0.64541 0.11341 0.0
Sc44 Sc 0.62123 0.60856 0.39304 0.0
Sc45 Sc 0.65398 0.6789 0.40179 0.0
Sc46 Sc 0.62079 0.65965 0.44268 0.0
O47 O 0.63198 0.64881 0.41253 0.0
C48 C 0.5844 0.64546 0.41256 0.0
C49 C 0.62916 0.67488 0.35885 0.0
C50 C 0.63007 0.73969 0.42858 0.0
C51 C 0.66453 0.59844 0.38371 0.0
C52 C 0.61953 0.57313 0.44219 0.0
C53 C 0.66533 0.66739 0.4511 0.0
O54 O 0.59325 0.63124 0.39623 0.0
O55 O 0.63875 0.69409 0.37249 0.0
O56 O 0.61777 0.7171 0.43558 0.0
O57 O 0.64867 0.58378 0.38826 0.0
O58 O 0.6227 0.6033 0.45221 0.0
O59 O 0.66988 0.66483 0.43068 0.0
O60 O 0.61718 0.57106 0.42111 0.0
O61 O 0.66729 0.63302 0.385 0.0
O62 O 0.64824 0.66931 0.45767 0.0
O63 O 0.624 0.64182 0.36295 0.0
O64 O 0.59224 0.65265 0.43113 0.0
O65 O 0.64468 0.72943 0.41789 0.0
Sc66 Sc 0.87667 0.38241 0.39575 0.0
Sc67 Sc 0.84774 0.30402 0.39635 0.0
Sc68 Sc 0.87329 0.32807 0.44416 0.0
O69 O 0.86586 0.3382 0.41216 0.0
C70 C 0.91235 0.3482 0.42011 0.0
C71 C 0.87606 0.32064 0.35743 0.0
C72 C 0.87151 0.24655 0.42556 0.0
C73 C 0.83397 0.3846 0.38092 0.0
C74 C 0.87143 0.41496 0.44522 0.0
C75 C 0.82905 0.31044 0.44403 0.0
O76 O 0.90496 0.36426 0.40334 0.0
O77 O 0.86615 0.29789 0.36842 0.0
O78 O 0.87849 0.27099 0.4382 0.0
O79 O 0.84876 0.40174 0.38717 0.0
O80 O 0.86893 0.38376 0.45419 0.0
O81 O 0.82796 0.3071 0.42301 0.0
O82 O 0.87559 0.4186 0.42468 0.0
O83 O 0.83274 0.34956 0.38117 0.0
O84 O 0.84451 0.31647 0.45428 0.0
O85 O 0.87936 0.35326 0.36424 0.0
O86 O 0.90276 0.33736 0.43686 0.0
O87 O 0.85973 0.25399 0.4102 0.0
Sc88 Sc 0.87792 0.61404 0.89195 0.0
Sc89 Sc 0.84597 0.68763 0.89822 0.0
Sc90 Sc 0.87542 0.66257 0.9429 0.0
O91 O 0.86644 0.65473 0.91105 0.0
C92 C 0.8769 0.57533 0.93999 0.0
C93 C 0.8342 0.60734 0.88031 0.0
C94 C 0.83092 0.67275 0.94732 0.0
C95 C 0.87288 0.67952 0.85643 0.0
C96 C 0.91374 0.65046 0.91564 0.0
C97 C 0.86911 0.7456 0.92756 0.0
O98 O 0.8783 0.57405 0.91886 0.0
O99 O 0.83128 0.6415 0.88365 0.0
O100 O 0.847 0.66636 0.956 0.0
O101 O 0.87919 0.64817 0.86234 0.0
O102 O 0.90449 0.66069 0.93274 0.0
O103 O 0.85751 0.73811 0.91201 0.0
O104 O 0.90621 0.63345 0.89929 0.0
O105 O 0.86141 0.69801 0.86822 0.0
O106 O 0.87687 0.72102 0.93944 0.0
O107 O 0.85032 0.59242 0.88319 0.0
O108 O 0.8753 0.60524 0.95071 0.0
O109 O 0.8286 0.68022 0.92684 0.0
Sc110 Sc 0.6216 0.38678 0.89536 0.0
Sc111 Sc 0.65204 0.31087 0.89869 0.0
Sc112 Sc 0.62368 0.33371 0.94439 0.0
O113 O 0.63244 0.34383 0.91287 0.0
C114 C 0.62431 0.42066 0.94477 0.0
C115 C 0.66474 0.39158 0.88243 0.0
C116 C 0.66823 0.31997 0.94724 0.0
C117 C 0.62472 0.32321 0.85826 0.0
C118 C 0.58537 0.35202 0.9183 0.0
C119 C 0.62825 0.25215 0.92717 0.0
O120 O 0.62103 0.42373 0.92397 0.0
O121 O 0.66653 0.35667 0.88317 0.0
O122 O 0.65207 0.32357 0.95633 0.0
O123 O 0.62059 0.35591 0.86431 0.0
O124 O 0.59448 0.34172 0.93552 0.0
O125 O 0.64096 0.26039 0.91302 0.0
O126 O 0.59321 0.36757 0.90165 0.0
O127 O 0.63474 0.30174 0.87006 0.0
O128 O 0.61947 0.27628 0.9384 0.0
O129 O 0.6495 0.40787 0.88794 0.0
O130 O 0.62688 0.38978 0.95415 0.0
O131 O 0.67061 0.31758 0.92632 0.0
Sc132 Sc 0.37163 0.33356 0.55565 0.0
Sc133 Sc 0.3453 0.30749 0.60264 0.0
Sc134 Sc 0.37604 0.38375 0.60577 0.0
O135 O 0.36431 0.34164 0.58801 0.0
C136 C 0.41103 0.34701 0.58064 0.0
C137 C 0.36827 0.25058 0.57295 0.0
C138 C 0.37318 0.32051 0.64306 0.0
C139 C 0.32751 0.3186 0.55434 0.0
C140 C 0.3726 0.42092 0.5573 0.0
C141 C 0.33255 0.38822 0.61912 0.0
O142 O 0.40116 0.33653 0.56404 0.0
O143 O 0.3579 0.25754 0.58974 0.0
O144 O 0.37886 0.35176 0.63618 0.0
O145 O 0.34258 0.32906 0.54465 0.0
O146 O 0.37536 0.42282 0.57823 0.0
O147 O 0.33011 0.3537 0.61646 0.0
O148 O 0.3704 0.39054 0.54727 0.0
O149 O 0.32681 0.30991 0.57479 0.0
O150 O 0.34834 0.40412 0.6154 0.0
O151 O 0.37397 0.27516 0.55953 0.0
O152 O 0.4041 0.36449 0.59721 0.0
O153 O 0.36171 0.30076 0.63212 0.0
Sc154 Sc 0.12244 0.61763 0.60203 0.0
Sc155 Sc 0.15582 0.68894 0.60072 0.0
Sc156 Sc 0.12961 0.66848 0.55286 0.0
O157 O 0.13596 0.65832 0.58513 0.0
C158 C 0.1262 0.58169 0.5533 0.0
C159 C 0.16455 0.607 0.61808 0.0
C160 C 0.17462 0.67537 0.55381 0.0
C161 C 0.12593 0.68143 0.63892 0.0
C162 C 0.08926 0.65784 0.57613 0.0
C163 C 0.13612 0.74982 0.56991 0.0
O164 O 0.12174 0.58011 0.57384 0.0
O165 O 0.16755 0.6416 0.61766 0.0
O166 O 0.15902 0.67334 0.54329 0.0
O167 O 0.12104 0.6492 0.63277 0.0
O168 O 0.09982 0.6661 0.55969 0.0
O169 O 0.14761 0.74058 0.5852 0.0
O170 O 0.09526 0.64087 0.59335 0.0
O171 O 0.13724 0.70132 0.62775 0.0
O172 O 0.12746 0.72661 0.5579 0.0
O173 O 0.14908 0.59275 0.61146 0.0
O174 O 0.13077 0.61158 0.54379 0.0
O175 O 0.17569 0.67885 0.57482 0.0
Sc176 Sc 0.62201 0.8861 0.10345 0.0
Sc177 Sc 0.65335 0.81164 0.10015 0.0
Sc178 Sc 0.62493 0.83336 0.05433 0.0
O179 O 0.63346 0.84377 0.0859 0.0
C180 C 0.58636 0.84914 0.08057 0.0
C181 C 0.62608 0.82309 0.14067 0.0
C182 C 0.63018 0.752 0.07175 0.0
C183 C 0.66507 0.89309 0.11616 0.0
C184 C 0.62422 0.92025 0.05406 0.0
C185 C 0.66963 0.82115 0.05163 0.0
O186 O 0.59398 0.86502 0.09726 0.0
O187 O 0.63619 0.80195 0.12879 0.0
O188 O 0.62139 0.77578 0.06027 0.0
O189 O 0.6496 0.90865 0.11077 0.0
O190 O 0.62744 0.88964 0.04463 0.0
O191 O 0.67188 0.81871 0.07256 0.0
O192 O 0.62077 0.92294 0.07484 0.0
O193 O 0.66732 0.85827 0.11543 0.0
O194 O 0.6535 0.82444 0.04242 0.0
O195 O 0.62159 0.8556 0.13464 0.0
O196 O 0.59558 0.83984 0.06322 0.0
O197 O 0.64272 0.76064 0.08602 0.0
Sc198 Sc 0.87448 0.16329 0.05506 0.0
Sc199 Sc 0.84594 0.18597 0.10009 0.0
Sc200 Sc 0.87755 0.11287 0.10473 0.0
O201 O 0.86601 0.15388 0.08654 0.0
C202 C 0.87494 0.07674 0.05585 0.0
C203 C 0.82948 0.17296 0.05271 0.0
C204 C 0.83506 0.10617 0.11862 0.0
C205 C 0.8681 0.24447 0.06978 0.0
C206 C 0.91309 0.14819 0.08112 0.0
C207 C 0.87407 0.17955 0.13965 0.0
O208 O 0.87112 0.10689 0.04617 0.0
O209 O 0.82702 0.17306 0.07368 0.0
O210 O 0.85 0.09016 0.11188 0.0
O211 O 0.87886 0.22073 0.06092 0.0
O212 O 0.90545 0.13427 0.09841 0.0
O213 O 0.86434 0.2001 0.12692 0.0
O214 O 0.90387 0.1555 0.06343 0.0
O215 O 0.85457 0.2357 0.08268 0.0
O216 O 0.87751 0.14576 0.13524 0.0
O217 O 0.84578 0.17312 0.04363 0.0
O218 O 0.87914 0.07494 0.07651 0.0
O219 O 0.83341 0.14112 0.11878 0.0
Sc220 Sc 0.12156 0.11567 0.39333 0.0
Sc221 Sc 0.1518 0.1906 0.39928 0.0
Sc222 Sc 0.12071 0.169 0.44197 0.0
O223 O 0.13138 0.15816 0.41155 0.0
C224 C 0.08409 0.14704 0.41437 0.0
C225 C 0.12611 0.18047 0.35739 0.0
C226 C 0.1257 0.24884 0.42557 0.0
C227 C 0.16491 0.11074 0.38258 0.0
C228 C 0.1236 0.083 0.44327 0.0
C229 C 0.1647 0.18712 0.44799 0.0
O230 O 0.09295 0.1351 0.39739 0.0
O231 O 0.13528 0.20176 0.37027 0.0
O232 O 0.11436 0.22475 0.43308 0.0
O233 O 0.14967 0.09441 0.38791 0.0
O234 O 0.1262 0.11391 0.45279 0.0
O235 O 0.16902 0.18082 0.42783 0.0
O236 O 0.12004 0.07978 0.42247 0.0
O237 O 0.16652 0.14569 0.38302 0.0
O238 O 0.14773 0.18715 0.45503 0.0
O239 O 0.12226 0.14707 0.36234 0.0
O240 O 0.09228 0.15445 0.4327 0.0
O241 O 0.14056 0.2402 0.41476 0.0
Sc242 Sc 0.37794 0.88675 0.39413 0.0
Sc243 Sc 0.34619 0.81338 0.40259 0.0
Sc244 Sc 0.37856 0.8369 0.44471 0.0
O245 O 0.36756 0.8457 0.41384 0.0
C246 C 0.41508 0.85009 0.41459 0.0
C247 C 0.37127 0.82097 0.35916 0.0
C248 C 0.37024 0.75417 0.43011 0.0
C249 C 0.3338 0.89351 0.38509 0.0
C250 C 0.37991 0.92443 0.44229 0.0
C251 C 0.33439 0.8283 0.45293 0.0
O252 O 0.40663 0.86838 0.39946 0.0
O253 O 0.36002 0.80282 0.37146 0.0
O254 O 0.37918 0.77829 0.44116 0.0
O255 O 0.35006 0.90822 0.38687 0.0
O256 O 0.37958 0.89413 0.45276 0.0
O257 O 0.33065 0.82135 0.43265 0.0
O258 O 0.37933 0.92647 0.42113 0.0
O259 O 0.3309 0.85955 0.38902 0.0
O260 O 0.35104 0.83388 0.46019 0.0
O261 O 0.37804 0.85216 0.36471 0.0
O262 O 0.40684 0.83806 0.43196 0.0
O263 O 0.35791 0.76247 0.41553 0.0
Sc264 Sc 0.37747 0.11411 0.89462 0.0
Sc265 Sc 0.34415 0.18498 0.8984 0.0
Sc266 Sc 0.37343 0.16613 0.94361 0.0
O267 O 0.36505 0.155 0.91221 0.0
C268 C 0.37489 0.07959 0.94388 0.0
C269 C 0.33485 0.10356 0.88093 0.0
C270 C 0.32841 0.17425 0.94644 0.0
C271 C 0.37222 0.1786 0.85834 0.0
C272 C 0.41237 0.15214 0.91804 0.0
C273 C 0.36597 0.24624 0.92721 0.0
O274 O 0.37932 0.07729 0.9233 0.0
O275 O 0.33202 0.13819 0.88135 0.0
O276 O 0.34479 0.17523 0.95524 0.0
O277 O 0.37747 0.14623 0.86393 0.0
O278 O 0.40295 0.15967 0.93553 0.0
O279 O 0.35259 0.23622 0.91439 0.0
O280 O 0.40502 0.13716 0.90093 0.0
O281 O 0.36138 0.19828 0.87032 0.0
O282 O 0.37689 0.22348 0.93673 0.0
O283 O 0.3504 0.08916 0.88712 0.0
O284 O 0.37072 0.10986 0.95323 0.0
O285 O 0.32577 0.1731 0.92553 0.0
Sc286 Sc 0.1214 0.88883 0.89275 0.0
Sc287 Sc 0.15104 0.81188 0.89527 0.0
Sc288 Sc 0.12447 0.83676 0.94197 0.0
O289 O 0.13236 0.84591 0.9101 0.0
C290 C 0.12537 0.92339 0.94188 0.0
C291 C 0.16422 0.89228 0.87893 0.0
C292 C 0.16896 0.82078 0.94296 0.0
C293 C 0.12295 0.82513 0.85592 0.0
C294 C 0.08568 0.85448 0.91673 0.0
C295 C 0.12732 0.75482 0.92493 0.0
O296 O 0.12107 0.92591 0.92131 0.0
O297 O 0.16549 0.85721 0.879 0.0
O298 O 0.15315 0.82546 0.95275 0.0
O299 O 0.11999 0.85851 0.86149 0.0
O300 O 0.09506 0.84584 0.93411 0.0
O301 O 0.13979 0.76207 0.91029 0.0
O302 O 0.09321 0.86917 0.89959 0.0
O303 O 0.1325 0.80301 0.86776 0.0
O304 O 0.11932 0.77957 0.93644 0.0
O305 O 0.14933 0.90919 0.8851 0.0
O306 O 0.12868 0.8928 0.95125 0.0
O307 O 0.17059 0.81796 0.92195 0.0
Sc308 Sc 0.86791 0.82937 0.55233 0.0
Sc309 Sc 0.84054 0.8108 0.5997 0.0
Sc310 Sc 0.87516 0.88074 0.60154 0.0
O311 O 0.8612 0.84036 0.58451 0.0
C312 C 0.90791 0.83652 0.57666 0.0
C313 C 0.85982 0.74822 0.57012 0.0
C314 C 0.86978 0.81853 0.63919 0.0
C315 C 0.82313 0.82568 0.55162 0.0
C316 C 0.87331 0.91624 0.55265 0.0
C317 C 0.83245 0.89367 0.61619 0.0
O318 O 0.89726 0.82653 0.5607 0.0
O319 O 0.84961 0.75789 0.58655 0.0
O320 O 0.87662 0.84876 0.63207 0.0
O321 O 0.83882 0.8299 0.54159 0.0
O322 O 0.87597 0.91873 0.57357 0.0
O323 O 0.82842 0.85965 0.61418 0.0
O324 O 0.86975 0.88592 0.5431 0.0
O325 O 0.82179 0.8187 0.57229 0.0
O326 O 0.84872 0.90664 0.61143 0.0
O327 O 0.86724 0.77118 0.55686 0.0
O328 O 0.90232 0.85681 0.59275 0.0
O329 O 0.85732 0.80048 0.62861 0.0
Sc330 Sc 0.61982 0.11006 0.60589 0.0
Sc331 Sc 0.64913 0.18724 0.59956 0.0
Sc332 Sc 0.6209 0.1584 0.55485 0.0
O333 O 0.62997 0.1518 0.58667 0.0
C334 C 0.62142 0.07134 0.55778 0.0
C335 C 0.66332 0.10858 0.61776 0.0
C336 C 0.66526 0.17288 0.55104 0.0
C337 C 0.62242 0.17675 0.64085 0.0
C338 C 0.58304 0.14301 0.58255 0.0
C339 C 0.62477 0.24209 0.56941 0.0
O340 O 0.61949 0.07011 0.57885 0.0
O341 O 0.66468 0.1434 0.61563 0.0
O342 O 0.64932 0.16569 0.54216 0.0
O343 O 0.6186 0.14342 0.63597 0.0
O344 O 0.59188 0.15276 0.56501 0.0
O345 O 0.63683 0.23595 0.58465 0.0
O346 O 0.5911 0.12774 0.5992 0.0
O347 O 0.63218 0.19747 0.62832 0.0
O348 O 0.6173 0.21655 0.55805 0.0
O349 O 0.64811 0.0911 0.61359 0.0
O350 O 0.62303 0.10128 0.54712 0.0
O351 O 0.66733 0.18006 0.57162 0.0
H352 H 0.09918 0.22447 0.0472 0.0
H353 H 0.0983 0.16421 0.02919 0.0
H354 H 0.15301 0.13836 0.05661 0.0
H355 H 0.1541 0.19888 0.07466 0.0
H356 H 0.15041 0.1325 0.0095 0.0
H357 H 0.09211 0.05749 0.05152 0.0
H358 H 0.08613 0.10343 0.04285 0.0
H359 H 0.10381 0.09669 0.06396 0.0
C360 C 0.11084 0.20565 0.04989 0.0
C361 C 0.12677 0.21657 0.06227 0.0
C362 C 0.11027 0.17114 0.03964 0.0
C363 C 0.12557 0.14686 0.04162 0.0
C364 C 0.14104 0.15676 0.05496 0.0
H365 H 0.13228 0.9272 0.98659 0.0
H366 H 0.13284 0.98162 0.01027 0.0
C367 C 0.14158 0.19125 0.06537 0.0
C368 C 0.12622 0.11308 0.02783 0.0
H369 H 0.10287 0.03283 0.01689 0.0
C370 C 0.14013 0.11053 0.01121 0.0
C371 C 0.11277 0.08457 0.03014 0.0
C372 C 0.09795 0.08539 0.0482 0.0
C373 C 0.14073 0.08043 0.99654 0.0
C374 C 0.12695 0.05246 0.99843 0.0
C375 C 0.11327 0.05463 0.01534 0.0
C376 C 0.12689 0.01992 0.98358 0.0
C377 C 0.1562 0.07858 0.97927 0.0
C378 C 0.12332 0.02347 0.96065 0.0
C379 C 0.12295 0.99226 0.94691 0.0
C380 C 0.12614 0.95701 0.95594 0.0
C381 C 0.12978 0.95382 0.97896 0.0
C382 C 0.13008 0.9849 0.9926 0.0
H383 H 0.16787 0.09812 0.98299 0.0
H384 H 0.1621 0.05027 0.9782 0.0
H385 H 0.15027 0.08576 0.96271 0.0
H386 H 0.1206 0.05033 0.95344 0.0
H387 H 0.12006 0.99573 0.9293 0.0
H388 H 0.35826 0.07114 0.98451 0.0
H389 H 0.35908 0.01736 0.00886 0.0
H390 H 0.39205 0.95835 0.96012 0.0
H391 H 0.39129 0.01227 0.93534 0.0
H392 H 0.34684 0.94026 0.99557 0.0
H393 H 0.42164 0.95464 0.02288 0.0
H394 H 0.4081 0.99312 0.01234 0.0
H395 H 0.41666 0.95856 0.99352 0.0
C396 C 0.36572 0.04679 0.97887 0.0
C397 C 0.3748 0.04607 0.95797 0.0
C398 C 0.36614 0.01611 0.99284 0.0
C399 C 0.37579 0.98423 0.98635 0.0
C400 C 0.3847 0.98301 0.96545 0.0
H401 H 0.39684 0.77167 0.04087 0.0
H402 H 0.39857 0.83199 0.02336 0.0
C403 C 0.38415 0.01369 0.95129 0.0
C404 C 0.37617 0.95206 0.00141 0.0
H405 H 0.40493 0.90253 0.03582 0.0
C406 C 0.35948 0.93198 0.00448 0.0
C407 C 0.3927 0.9417 0.01296 0.0
C408 C 0.41083 0.96313 0.01047 0.0
C409 C 0.359 0.90086 0.01834 0.0
C410 C 0.37557 0.89033 0.02996 0.0
C411 C 0.39221 0.91088 0.0271 0.0
C412 C 0.37633 0.85605 0.04337 0.0
C413 C 0.34097 0.87871 0.01964 0.0
C414 C 0.36393 0.85007 0.06131 0.0
C415 C 0.36275 0.81526 0.07131 0.0
C416 C 0.37408 0.78609 0.06359 0.0
C417 C 0.38766 0.7933 0.047 0.0
C418 C 0.38873 0.82787 0.03697 0.0
H419 H 0.3311 0.88561 0.00586 0.0
H420 H 0.34399 0.84869 0.01901 0.0
H421 H 0.33372 0.88478 0.03562 0.0
H422 H 0.3546 0.87183 0.06692 0.0
H423 H 0.35227 0.81074 0.08417 0.0
H424 H 0.61078 0.06329 0.51463 0.0
H425 H 0.61157 0.00777 0.49188 0.0
H426 H 0.63366 0.94623 0.54765 0.0
H427 H 0.63215 0.00182 0.57094 0.0
H428 H 0.64029 0.96817 0.47895 0.0
H429 H 0.59206 0.8792 0.52796 0.0
H430 H 0.5946 0.92782 0.53344 0.0
H431 H 0.61177 0.89557 0.54393 0.0
C432 C 0.61568 0.03788 0.52215 0.0
C433 C 0.62138 0.03688 0.54461 0.0
C434 C 0.61614 0.00614 0.50909 0.0
C435 C 0.62249 0.97268 0.51806 0.0
C436 C 0.62826 0.97151 0.54049 0.0
H437 H 0.65897 0.78714 0.43712 0.0
H438 H 0.65715 0.84527 0.45747 0.0
C439 C 0.62749 0.00329 0.55376 0.0
C440 C 0.62354 0.93962 0.50349 0.0
H441 H 0.60895 0.85038 0.49852 0.0
C442 C 0.63335 0.94244 0.48319 0.0
C443 C 0.61426 0.90624 0.50883 0.0
C444 C 0.60242 0.90205 0.52961 0.0
C445 C 0.63419 0.91289 0.46812 0.0
C446 C 0.62552 0.87906 0.47386 0.0
C447 C 0.61566 0.87626 0.49413 0.0
C448 C 0.62659 0.84597 0.45932 0.0
C449 C 0.64393 0.91865 0.44601 0.0
C450 C 0.61005 0.82683 0.45356 0.0
C451 C 0.61109 0.79318 0.4423 0.0
C452 C 0.62869 0.77822 0.43636 0.0
C453 C 0.64518 0.79831 0.44109 0.0
C454 C 0.64416 0.83163 0.45273 0.0
H455 H 0.64402 0.94823 0.4412 0.0
H456 H 0.65884 0.90953 0.44738 0.0
H457 H 0.63701 0.90265 0.43252 0.0
H458 H 0.59633 0.83735 0.45843 0.0
H459 H 0.59815 0.77824 0.43892 0.0
H460 H 0.87638 0.98893 0.56555 0.0
H461 H 0.8779 0.04324 0.54119 0.0
H462 H 0.87463 0.97301 0.48333 0.0
H463 H 0.87321 0.91894 0.50723 0.0
H464 H 0.90318 0.02872 0.48111 0.0
H465 H 0.83241 0.08328 0.50422 0.0
H466 H 0.84811 0.07375 0.52707 0.0
H467 H 0.83955 0.03651 0.51014 0.0
C468 C 0.87601 0.98507 0.54765 0.0
C469 C 0.87455 0.94955 0.5384 0.0
C470 C 0.87681 0.01609 0.53378 0.0
C471 C 0.8762 0.01202 0.5105 0.0
C472 C 0.87508 0.97668 0.50125 0.0
H473 H 0.85016 0.18569 0.4158 0.0
H474 H 0.85264 0.12503 0.43347 0.0
C475 C 0.87419 0.94581 0.51502 0.0
C476 C 0.87652 0.04443 0.49556 0.0
H477 H 0.85092 0.11975 0.47999 0.0
C478 C 0.89178 0.04868 0.48082 0.0
C479 C 0.86144 0.0699 0.49499 0.0
C480 C 0.84434 0.06565 0.50979 0.0
C481 C 0.89251 0.07828 0.46577 0.0
C482 C 0.87767 0.1043 0.46563 0.0
C483 C 0.86226 0.09965 0.48011 0.0
C484 C 0.87821 0.13786 0.45163 0.0
C485 C 0.90908 0.08131 0.45006 0.0
C486 C 0.89213 0.16459 0.45541 0.0
C487 C 0.89078 0.19915 0.44535 0.0
C488 C 0.8754 0.20768 0.43141 0.0
C489 C 0.86222 0.17994 0.42635 0.0
C490 C 0.86355 0.14535 0.43654 0.0
H491 H 0.91626 0.05434 0.44779 0.0
H492 H 0.90456 0.09175 0.4335 0.0
H493 H 0.91951 0.10098 0.45707 0.0
H494 H 0.90342 0.15958 0.46722 0.0
H495 H 0.90121 0.21988 0.44952 0.0
H496 H 0.88117 0.00483 0.0689 0.0
H497 H 0.88152 0.94982 0.04501 0.0
H498 H 0.86875 0.01713 0.98775 0.0
H499 H 0.86841 0.07183 0.01112 0.0
H500 H 0.85147 0.92311 0.01624 0.0
H501 H 0.91662 0.95853 0.96933 0.0
H502 H 0.91064 0.97962 0.99569 0.0
H503 H 0.89927 0.99462 0.9705 0.0
C504 C 0.87847 0.00791 0.05123 0.0
C505 C 0.87487 0.04285 0.04198 0.0
C506 C 0.87867 0.9765 0.03762 0.0
C507 C 0.87546 0.97963 0.01459 0.0
C508 C 0.87161 0.01427 0.00541 0.0
H509 H 0.84539 0.80449 0.92163 0.0
H510 H 0.84728 0.86406 0.94089 0.0
C511 C 0.87134 0.04551 0.01891 0.0
C512 C 0.87571 0.94676 1e-05 0.0
H513 H 0.89837 0.90866 0.95533 0.0
C514 C 0.86174 0.91982 0.00297 0.0
C515 C 0.88919 0.94264 0.98278 0.0
C516 C 0.9049 0.97019 0.97943 0.0
C517 C 0.86075 0.88895 0.98891 0.0
C518 C 0.87395 0.88529 0.97133 0.0
C519 C 0.88809 0.91196 0.96859 0.0
C520 C 0.87408 0.85243 0.95673 0.0
C521 C 0.84582 0.86012 0.99324 0.0
C522 C 0.88903 0.82728 0.95831 0.0
C523 C 0.88804 0.79347 0.94731 0.0
C524 C 0.87211 0.7843 0.93443 0.0
C525 C 0.85785 0.8108 0.93139 0.0
C526 C 0.85882 0.84464 0.94255 0.0
H527 H 0.83916 0.86353 0.00989 0.0
H528 H 0.8346 0.86241 0.9804 0.0
H529 H 0.85195 0.832 0.99216 0.0
H530 H 0.901 0.83296 0.96902 0.0
H531 H 0.89932 0.77373 0.94982 0.0
H532 H 0.65201 0.1937 0.9202 0.0
H533 H 0.65021 0.13316 0.93813 0.0
H534 H 0.59656 0.16246 0.96716 0.0
H535 H 0.59812 0.22272 0.94925 0.0
H536 H 0.64869 0.12767 0.98512 0.0
H537 H 0.58805 0.05608 0.94564 0.0
H538 H 0.59996 0.09455 0.93268 0.0
H539 H 0.58302 0.10236 0.95449 0.0
C540 C 0.63954 0.18682 0.9298 0.0
C541 C 0.62526 0.21311 0.93341 0.0
C542 C 0.6386 0.15232 0.94014 0.0
C543 C 0.62325 0.14337 0.95393 0.0
C544 C 0.60841 0.16862 0.95636 0.0
H545 H 0.6197 0.99272 0.06679 0.0
H546 H 0.61956 0.04723 0.04259 0.0
C547 C 0.60938 0.20314 0.94617 0.0
C548 C 0.62369 0.10966 0.96781 0.0
H549 H 0.59939 0.03093 0.97987 0.0
C550 C 0.63801 0.10634 0.98387 0.0
C551 C 0.60972 0.08199 0.96613 0.0
C552 C 0.5944 0.08363 0.94868 0.0
C553 C 0.63857 0.07629 0.99857 0.0
C554 C 0.6243 0.04914 0.9973 0.0
C555 C 0.61017 0.0521 0.98097 0.0
C556 C 0.62426 0.01656 0.01213 0.0
C557 C 0.65451 0.07358 0.01518 0.0
C558 C 0.62667 0.98141 0.00295 0.0
C559 C 0.62674 0.95037 0.01664 0.0
C560 C 0.62426 0.95375 0.03986 0.0
C561 C 0.6217 0.9891 0.04903 0.0
C562 C 0.62169 0.02027 0.03524 0.0
H563 H 0.66637 0.09235 0.01091 0.0
H564 H 0.64921 0.08124 0.03196 0.0
H565 H 0.65998 0.04493 0.01608 0.0
H566 H 0.62864 0.978 0.98515 0.0
H567 H 0.62869 0.92366 0.0089 0.0
H568 H 0.36429 0.99199 0.43347 0.0
H569 H 0.36404 0.04597 0.4581 0.0
H570 H 0.39845 0.98725 0.50572 0.0
H571 H 0.39793 0.93297 0.48176 0.0
H572 H 0.37095 0.01928 0.52643 0.0
H573 H 0.40346 0.12157 0.46976 0.0
H574 H 0.38256 0.10163 0.45799 0.0
H575 H 0.40288 0.07305 0.46332 0.0
C576 C 0.37197 0.9909 0.44907 0.0
C577 C 0.38112 0.95839 0.45573 0.0
C578 C 0.37191 0.02177 0.4631 0.0
C579 C 0.38146 0.02089 0.48367 0.0
C580 C 0.39095 0.98862 0.49 0.0
H581 H 0.4013 0.22288 0.55738 0.0
H582 H 0.40586 0.16347 0.53888 0.0
C583 C 0.39068 0.95765 0.47626 0.0
C584 C 0.38093 0.0528 0.49917 0.0
H585 H 0.38888 0.14529 0.50261 0.0
C586 C 0.37504 0.04679 0.52127 0.0
C587 C 0.38656 0.08858 0.4926 0.0
C588 C 0.39441 0.09655 0.4697 0.0
C589 C 0.37438 0.07562 0.53686 0.0
C590 C 0.37907 0.11175 0.52995 0.0
C591 C 0.38519 0.11764 0.50794 0.0
C592 C 0.37735 0.14422 0.54491 0.0
C593 C 0.36902 0.06678 0.56062 0.0
C594 C 0.36008 0.15255 0.55533 0.0
C595 C 0.35766 0.18606 0.5665 0.0
C596 C 0.37229 0.21212 0.56684 0.0
C597 C 0.38983 0.20308 0.55739 0.0
C598 C 0.39239 0.16928 0.54671 0.0
H599 H 0.37248 0.03775 0.56486 0.0
H600 H 0.37633 0.08519 0.57263 0.0
H601 H 0.35355 0.0703 0.56267 0.0
H602 H 0.3481 0.13421 0.55372 0.0
H603 H 0.34389 0.19277 0.57328 0.0
H604 H 0.10401 0.78651 0.55894 0.0
H605 H 0.10184 0.8465 0.54047 0.0
H606 H 0.1623 0.85912 0.54563 0.0
H607 H 0.16431 0.80014 0.56538 0.0
H608 H 0.14642 0.92337 0.54954 0.0
H609 H 0.11485 0.8542 0.47629 0.0
H610 H 0.10036 0.84887 0.50056 0.0
H611 H 0.12367 0.82885 0.49991 0.0
C612 C 0.11674 0.80266 0.55666 0.0
C613 C 0.13432 0.78883 0.5635 0.0
C614 C 0.11554 0.83664 0.54582 0.0
C615 C 0.13199 0.85666 0.54084 0.0
C616 C 0.14943 0.84401 0.54905 0.0
H617 H 0.13545 0.01416 0.431 0.0
H618 H 0.13873 0.95981 0.45494 0.0
C619 C 0.15057 0.81044 0.56045 0.0
C620 C 0.13116 0.88961 0.52614 0.0
H621 H 0.11483 0.91973 0.47576 0.0
C622 C 0.13959 0.92253 0.53336 0.0
C623 C 0.12274 0.88831 0.5047 0.0
C624 C 0.1151 0.85305 0.4948 0.0
C625 C 0.1395 0.95432 0.51999 0.0
C626 C 0.13 0.95364 0.49918 0.0
C627 C 0.12189 0.92052 0.49181 0.0
C628 C 0.12829 0.98681 0.48475 0.0
C629 C 0.15007 0.98787 0.52812 0.0
C630 C 0.12104 0.01991 0.49335 0.0
C631 C 0.11957 0.05109 0.47982 0.0
C632 C 0.12473 0.04952 0.45721 0.0
C633 C 0.13133 0.01609 0.44835 0.0
C634 C 0.13323 0.98509 0.46205 0.0
H635 H 0.16162 0.98012 0.53974 0.0
H636 H 0.15626 0.00368 0.51406 0.0
H637 H 0.14021 0.00608 0.53736 0.0
H638 H 0.11642 0.02166 0.51052 0.0
H639 H 0.11416 0.07637 0.48701 0.0
H640 H 0.62046 0.49345 0.9324 0.0
H641 H 0.62104 0.54764 0.95688 0.0
H642 H 0.63001 0.47736 0.01385 0.0
H643 H 0.62935 0.42336 0.98985 0.0
H644 H 0.60126 0.53055 0.01982 0.0
H645 H 0.66817 0.59152 0.98831 0.0
H646 H 0.65081 0.58119 0.96735 0.0
H647 H 0.6615 0.54433 0.98283 0.0
C648 C 0.62261 0.48955 0.95012 0.0
C649 C 0.6249 0.45399 0.95909 0.0
C650 C 0.62301 0.52052 0.96406 0.0
C651 C 0.62573 0.51641 0.98712 0.0
C652 C 0.62793 0.48108 0.99609 0.0
H653 H 0.65432 0.69411 0.07858 0.0
H654 H 0.65258 0.63328 0.06097 0.0
C655 C 0.62758 0.45023 0.98226 0.0
C656 C 0.62605 0.54875 0.00214 0.0
H657 H 0.65068 0.62701 0.01425 0.0
C658 C 0.61208 0.55163 0.01867 0.0
C659 C 0.64038 0.57576 0.0008 0.0
C660 C 0.65619 0.57306 0.98401 0.0
C661 C 0.61181 0.58139 0.03362 0.0
C662 C 0.62579 0.60903 0.03181 0.0
C663 C 0.63999 0.60571 0.01559 0.0
C664 C 0.62538 0.64284 0.04559 0.0
C665 C 0.59665 0.58294 0.05126 0.0
C666 C 0.6104 0.6678 0.0433 0.0
C667 C 0.61134 0.70245 0.05332 0.0
C668 C 0.62733 0.71285 0.06575 0.0
C669 C 0.64177 0.68687 0.06924 0.0
C670 C 0.64086 0.65221 0.05908 0.0
H671 H 0.5905 0.55528 0.0545 0.0
H672 H 0.60229 0.59419 0.06715 0.0
H673 H 0.58511 0.6013 0.04551 0.0
H674 H 0.59845 0.66132 0.03273 0.0
H675 H 0.59996 0.7218 0.05036 0.0
H676 H 0.83975 0.29435 0.06412 0.0
H677 H 0.84136 0.35177 0.04287 0.0
H678 H 0.90168 0.33877 0.03621 0.0
H679 H 0.9 0.2804 0.05652 0.0
H680 H 0.85786 0.41609 0.04589 0.0
H681 H 0.88678 0.3439 0.9721 0.0
H682 H 0.87839 0.31955 0.99635 0.0
H683 H 0.9018 0.33902 0.99597 0.0
C684 C 0.85341 0.30413 0.05851 0.0
C685 C 0.86973 0.28279 0.06177 0.0
C686 C 0.8543 0.33684 0.04624 0.0
C687 C 0.87155 0.34893 0.03728 0.0
C688 C 0.88811 0.32925 0.04221 0.0
H689 H 0.8901 0.56595 0.98204 0.0
H690 H 0.88867 0.5106 0.00499 0.0
C691 C 0.88717 0.29617 0.05406 0.0
C692 C 0.87208 0.38128 0.02214 0.0
H693 H 0.88685 0.40952 0.97068 0.0
C694 C 0.86412 0.4146 0.02941 0.0
C695 C 0.87977 0.3791 0.00035 0.0
C696 C 0.88696 0.34336 0.99063 0.0
C697 C 0.86405 0.446 0.01576 0.0
C698 C 0.87285 0.44444 0.99455 0.0
C699 C 0.88038 0.41089 0.98706 0.0
C700 C 0.87458 0.47739 0.98002 0.0
C701 C 0.85417 0.48021 0.02408 0.0
C702 C 0.86818 0.47657 0.95782 0.0
C703 C 0.86948 0.50803 0.94438 0.0
C704 C 0.87701 0.54085 0.95306 0.0
C705 C 0.88392 0.5412 0.97503 0.0
C706 C 0.88296 0.50967 0.98825 0.0
H707 H 0.843 0.4733 0.03641 0.0
H708 H 0.86457 0.49831 0.03254 0.0
H709 H 0.8476 0.49585 0.01018 0.0
H710 H 0.86185 0.45181 0.95104 0.0
H711 H 0.86404 0.50705 0.92752 0.0
H712 H 0.1329 0.57552 0.50857 0.0
H713 H 0.13124 0.52034 0.48553 0.0
H714 H 0.11654 0.45554 0.5432 0.0
H715 H 0.11824 0.51079 0.56666 0.0
H716 H 0.14555 0.42482 0.51553 0.0
H717 H 0.08232 0.46606 0.46679 0.0
H718 H 0.10078 0.50001 0.46763 0.0
H719 H 0.08867 0.48766 0.49287 0.0
C720 C 0.12929 0.54962 0.51648 0.0
C721 C 0.12561 0.54771 0.53953 0.0
C722 C 0.12824 0.51813 0.50319 0.0
C723 C 0.12346 0.48407 0.5126 0.0
C724 C 0.1201 0.48173 0.53563 0.0
H725 H 0.09525 0.27903 0.44706 0.0
H726 H 0.09432 0.33789 0.46682 0.0
C727 C 0.12109 0.51332 0.54899 0.0
C728 C 0.12242 0.4508 0.49838 0.0
H729 H 0.0992 0.41361 0.4538 0.0
C730 C 0.13539 0.42226 0.50209 0.0
C731 C 0.10903 0.44753 0.48098 0.0
C732 C 0.09428 0.47677 0.47688 0.0
C733 C 0.13556 0.39071 0.48856 0.0
C734 C 0.12255 0.38795 0.47072 0.0
C735 C 0.10933 0.41614 0.46729 0.0
C736 C 0.12209 0.35517 0.45606 0.0
C737 C 0.14949 0.36033 0.49364 0.0
C738 C 0.13763 0.34635 0.44259 0.0
C739 C 0.13822 0.31277 0.4312 0.0
C740 C 0.12325 0.28744 0.43314 0.0
C741 C 0.10709 0.29772 0.44532 0.0
C742 C 0.10652 0.33134 0.45666 0.0
H743 H 0.15557 0.36307 0.51064 0.0
H744 H 0.14268 0.33285 0.49219 0.0
H745 H 0.16127 0.36149 0.48146 0.0
H746 H 0.14964 0.36479 0.44163 0.0
H747 H 0.15087 0.30587 0.42194 0.0
H748 H 0.37673 0.49317 0.57094 0.0
H749 H 0.37671 0.54848 0.54736 0.0
H750 H 0.36754 0.481 0.48919 0.0
H751 H 0.36765 0.42597 0.51229 0.0
H752 H 0.39681 0.5329 0.48423 0.0
H753 H 0.33059 0.59631 0.51607 0.0
H754 H 0.34777 0.58437 0.53694 0.0
H755 H 0.33657 0.54861 0.52101 0.0
C756 C 0.37463 0.49013 0.55315 0.0
C757 C 0.37219 0.45502 0.54359 0.0
C758 C 0.37455 0.52176 0.53972 0.0
C759 C 0.37197 0.51879 0.51655 0.0
C760 C 0.36954 0.48389 0.50702 0.0
H761 H 0.3455 0.69682 0.42436 0.0
H762 H 0.34654 0.63685 0.44313 0.0
C763 C 0.36958 0.45242 0.52034 0.0
C764 C 0.37218 0.55174 0.50196 0.0
H765 H 0.34839 0.63122 0.49018 0.0
C766 C 0.38623 0.55442 0.48551 0.0
C767 C 0.35817 0.5794 0.50344 0.0
C768 C 0.3423 0.57707 0.52017 0.0
C769 C 0.38683 0.58438 0.47071 0.0
C770 C 0.37312 0.61252 0.47257 0.0
C771 C 0.35889 0.60956 0.48879 0.0
C772 C 0.37372 0.64618 0.4586 0.0
C773 C 0.40202 0.58552 0.45309 0.0
C774 C 0.38889 0.67079 0.46062 0.0
C775 C 0.38836 0.70495 0.44992 0.0
C776 C 0.3726 0.71525 0.43704 0.0
C777 C 0.35791 0.68964 0.43399 0.0
C778 C 0.35841 0.65549 0.44484 0.0
H779 H 0.40809 0.55776 0.44995 0.0
H780 H 0.39643 0.59667 0.43716 0.0
H781 H 0.41361 0.60382 0.45878 0.0
H782 H 0.40073 0.66438 0.47137 0.0
H783 H 0.39991 0.72401 0.45263 0.0
H784 H 0.39751 0.2846 0.93891 0.0
H785 H 0.3986 0.34316 0.9591 0.0
H786 H 0.33797 0.35213 0.95423 0.0
H787 H 0.33692 0.29446 0.9331 0.0
H788 H 0.35344 0.41784 0.95118 0.0
H789 H 0.38465 0.34583 0.02368 0.0
H790 H 0.39929 0.34206 -0.00058 0.0
H791 H 0.37612 0.32151 -0.00052 0.0
C792 C 0.38448 0.2996 0.94167 0.0
C793 C 0.36713 0.28496 0.93456 0.0
C794 C 0.38508 0.33277 0.95345 0.0
C795 C 0.36829 0.35128 0.95893 0.0
C796 C 0.35109 0.33808 0.95043 0.0
H797 H 0.36231 0.50836 0.06973 0.0
H798 H 0.35939 0.45329 0.04614 0.0
C799 C 0.35051 0.30526 0.93822 0.0
C800 C 0.36858 0.38336 0.97429 0.0
H801 H 0.38411 0.41147 0.02547 0.0
C802 C 0.36007 0.41639 0.96747 0.0
C803 C 0.37671 0.38117 0.99585 0.0
C804 C 0.38451 0.34562 0.00515 0.0
C805 C 0.35996 0.4476 0.9813 0.0
C806 C 0.36926 0.44614 0.00221 0.0
C807 C 0.37726 0.41279 0.00931 0.0
C808 C 0.37122 0.47908 0.0167 0.0
C809 C 0.34958 0.48156 0.97346 0.0
C810 C 0.37933 0.51143 0.00822 0.0
C811 C 0.38074 0.54283 0.02149 0.0
C812 C 0.37453 0.54235 0.04376 0.0
C813 C 0.36721 0.50949 0.05263 0.0
C814 C 0.36549 0.47812 0.03916 0.0
H815 H 0.33814 0.47435 0.96155 0.0
H816 H 0.34329 0.49692 0.98764 0.0
H817 H 0.3596 0.5 0.96464 0.0
H818 H 0.38453 0.51248 0.99125 0.0
H819 H 0.38674 0.56759 0.01429 0.0
H820 H 0.11656 0.49608 0.06553 0.0
H821 H 0.11546 0.55073 0.04145 0.0
H822 H 0.12507 0.48235 0.98377 0.0
H823 H 0.1261 0.42792 0.00737 0.0
H824 H 0.14424 0.57618 0.01176 0.0
H825 H 0.07775 0.5429 0.96702 0.0
H826 H 0.08433 0.52113 0.99297 0.0
H827 H 0.09486 0.50632 0.96722 0.0
C828 C 0.11838 0.49267 0.04772 0.0
C829 C 0.12134 0.45753 0.03843 0.0
C830 C 0.11774 0.52388 0.03401 0.0
C831 C 0.11987 0.52038 0.01083 0.0
C832 C 0.12301 0.48551 0.00156 0.0
H833 H 0.14994 0.69465 0.91789 0.0
H834 H 0.14739 0.63482 0.9366 0.0
C835 C 0.12371 0.45443 0.01518 0.0
C836 C 0.11951 0.5532 0.99623 0.0
H837 H 0.09614 0.59213 0.95233 0.0
C838 C 0.1337 0.57978 0.99881 0.0
C839 C 0.10567 0.55777 0.97944 0.0
C840 C 0.08967 0.53071 0.97655 0.0
C841 C 0.1346 0.61069 0.98482 0.0
C842 C 0.12107 0.61475 0.96763 0.0
C843 C 0.10667 0.58849 0.96527 0.0
C844 C 0.12098 0.64757 0.95303 0.0
C845 C 0.1498 0.63912 0.9888 0.0
C846 C 0.10639 0.67343 0.95504 0.0
C847 C 0.10775 0.70745 0.94434 0.0
C848 C 0.12371 0.71611 0.93137 0.0
C849 C 0.1375 0.68885 0.92779 0.0
C850 C 0.13615 0.6548 0.93861 0.0
H851 H 0.15667 0.63561 0.00532 0.0
H852 H 0.16082 0.63642 0.97575 0.0
H853 H 0.14388 0.66742 0.98779 0.0
H854 H 0.09449 0.66816 0.96594 0.0
H855 H 0.09678 0.72772 0.94722 0.0
H856 H 0.88962 0.71652 0.54925 0.0
H857 H 0.8907 0.65559 0.53211 0.0
H858 H 0.83614 0.63004 0.56011 0.0
H859 H 0.8349 0.69152 0.57732 0.0
H860 H 0.8871 0.58196 0.5483 0.0
H861 H 0.82891 0.62369 0.49119 0.0
H862 H 0.84166 0.65652 0.50806 0.0
H863 H 0.8242 0.62723 0.52058 0.0
C864 C 0.878 0.69768 0.55216 0.0
C865 C 0.86208 0.70887 0.56442 0.0
C866 C 0.87866 0.66287 0.54236 0.0
C867 C 0.86335 0.63868 0.54449 0.0
C868 C 0.84797 0.64865 0.55803 0.0
H869 H 0.86276 0.41686 0.48958 0.0
H870 H 0.86038 0.47044 0.51383 0.0
C871 C 0.84736 0.68355 0.56803 0.0
C872 C 0.86311 0.60449 0.53103 0.0
H873 H 0.84215 0.56488 0.48565 0.0
C874 C 0.87717 0.57797 0.53474 0.0
C875 C 0.85036 0.59989 0.51307 0.0
C876 C 0.83549 0.62838 0.50776 0.0
C877 C 0.87886 0.54692 0.52092 0.0
C878 C 0.86603 0.5422 0.50307 0.0
C879 C 0.85193 0.56863 0.49939 0.0
C880 C 0.86706 0.50992 0.48802 0.0
C881 C 0.89469 0.51996 0.52513 0.0
C882 C 0.87113 0.51446 0.46527 0.0
C883 C 0.87247 0.48376 0.45119 0.0
C884 C 0.86964 0.44802 0.45966 0.0
C885 C 0.86518 0.44385 0.48243 0.0
C886 C 0.86388 0.47446 0.49641 0.0
H887 H 0.90583 0.53189 0.53601 0.0
H888 H 0.88893 0.49515 0.53355 0.0
H889 H 0.90127 0.51104 0.5092 0.0
H890 H 0.87351 0.54174 0.45848 0.0
H891 H 0.87584 0.48802 0.43377 0.0
H892 H 0.61901 0.56917 0.48755 0.0
H893 H 0.61819 0.51441 0.51086 0.0
H894 H 0.61653 0.44566 0.45225 0.0
H895 H 0.6175 0.5007 0.42846 0.0
H896 H 0.59069 0.45734 0.5124 0.0
H897 H 0.66227 0.40715 0.4891 0.0
H898 H 0.65444 0.45358 0.48344 0.0
H899 H 0.64648 0.41614 0.46626 0.0
C900 C 0.6185 0.54249 0.47947 0.0
C901 C 0.61846 0.53938 0.45605 0.0
C902 C 0.61796 0.51121 0.49289 0.0
C903 C 0.61748 0.4761 0.48327 0.0
C904 C 0.61713 0.47264 0.45995 0.0
H905 H 0.59527 0.26659 0.54425 0.0
H906 H 0.59249 0.32625 0.5259 0.0
C907 C 0.6176 0.50408 0.44641 0.0
C908 C 0.61758 0.44333 0.49789 0.0
H909 H 0.64429 0.36929 0.51311 0.0
C910 C 0.60238 0.43801 0.51258 0.0
C911 C 0.63304 0.41872 0.49833 0.0
C912 C 0.65009 0.42417 0.4836 0.0
C913 C 0.60209 0.40823 0.52749 0.0
C914 C 0.61733 0.38307 0.52752 0.0
C915 C 0.63264 0.38873 0.51306 0.0
C916 C 0.61732 0.34951 0.54149 0.0
C917 C 0.58561 0.40413 0.54324 0.0
C918 C 0.63203 0.34307 0.5567 0.0
C919 C 0.6337 0.30885 0.56725 0.0
C920 C 0.62082 0.28043 0.56246 0.0
C921 C 0.60548 0.28783 0.54823 0.0
C922 C 0.60379 0.32202 0.5378 0.0
H923 H 0.57798 0.43062 0.54554 0.0
H924 H 0.5755 0.38381 0.53624 0.0
H925 H 0.59033 0.39396 0.55979 0.0
H926 H 0.64264 0.36401 0.5597 0.0
H927 H 0.64571 0.304 0.57804 0.0
H928 H 0.12012 0.25229 0.34665 0.0
H929 H 0.11354 0.27807 0.30993 0.0
H930 H 0.11309 0.1686 0.28178 0.0
H931 H 0.11908 0.14245 0.31876 0.0
H932 H 0.13689 0.27314 0.27578 0.0
H933 H 0.06807 0.21326 0.25103 0.0
H934 H 0.07666 0.21163 0.27936 0.0
H935 H 0.08492 0.17882 0.25906 0.0
C936 C 0.11833 0.23362 0.33271 0.0
C937 C 0.12025 0.19534 0.33554 0.0
C938 C 0.11451 0.24841 0.31175 0.0
C939 C 0.11265 0.2253 0.29313 0.0
C940 C 0.114 0.18694 0.29599 0.0
H941 H 0.12629 0.25394 0.15311 0.0
H942 H 0.12048 0.23165 0.19088 0.0
C943 C 0.11757 0.17203 0.31709 0.0
C944 C 0.11145 0.24171 0.27054 0.0
H945 H 0.08659 0.24042 0.22172 0.0
C946 C 0.12572 0.2664 0.2641 0.0
C947 C 0.0969 0.23279 0.25529 0.0
C948 C 0.08067 0.20796 0.26159 0.0
C949 C 0.12615 0.2816 0.24266 0.0
C950 C 0.11189 0.272 0.22727 0.0
C951 C 0.09745 0.24774 0.23369 0.0
C952 C 0.1127 0.28503 0.20399 0.0
C953 C 0.14223 0.30686 0.23631 0.0
C954 C 0.10974 0.3223 0.19884 0.0
C955 C 0.11305 0.33524 0.17723 0.0
C956 C 0.11949 0.31107 0.16053 0.0
C957 C 0.12156 0.27341 0.16562 0.0
C958 C 0.11813 0.26052 0.18715 0.0
H959 H 0.1535 0.30747 0.24919 0.0
H960 H 0.14854 0.29806 0.22022 0.0
H961 H 0.13676 0.3353 0.23414 0.0
H962 H 0.10547 0.34153 0.21171 0.0
H963 H 0.11126 0.36436 0.17385 0.0
H964 H 0.35781 0.73808 0.16359 0.0
H965 H 0.36583 0.76056 0.20048 0.0
H966 H 0.40946 0.67808 0.20607 0.0
H967 H 0.40108 0.65439 0.16906 0.0
H968 H 0.38909 0.68 0.24267 0.0
H969 H 0.40821 0.82299 0.22238 0.0
H970 H 0.38546 0.81315 0.21078 0.0
H971 H 0.40589 0.788 0.20115 0.0
C972 C 0.36928 0.72487 0.17246 0.0
C973 C 0.37882 0.69443 0.1633 0.0
C974 C 0.37399 0.73806 0.19354 0.0
C975 C 0.38859 0.72169 0.20584 0.0
C976 C 0.39828 0.69142 0.19675 0.0
H977 H 0.40277 0.8358 0.33416 0.0
H978 H 0.41148 0.80858 0.29819 0.0
C979 C 0.39345 0.67788 0.17564 0.0
C980 C 0.39235 0.73453 0.2289 0.0
H981 H 0.39524 0.81324 0.25978 0.0
C982 C 0.39089 0.70905 0.24641 0.0
C983 C 0.3953 0.77222 0.2339 0.0
C984 C 0.39903 0.8005 0.21599 0.0
C985 C 0.39062 0.72068 0.26872 0.0
C986 C 0.39117 0.75889 0.27354 0.0
C987 C 0.39433 0.784 0.25613 0.0
C988 C 0.38677 0.77357 0.29604 0.0
C989 C 0.38941 0.69187 0.2868 0.0
C990 C 0.3699 0.76333 0.30668 0.0
C991 C 0.36503 0.77844 0.32726 0.0
C992 C 0.37668 0.80491 0.33742 0.0
C993 C 0.39346 0.81559 0.32667 0.0
C994 C 0.39849 0.79996 0.30618 0.0
H995 H 0.39662 0.66606 0.28161 0.0
H996 H 0.39583 0.70164 0.30262 0.0
H997 H 0.37436 0.68502 0.28988 0.0
H998 H 0.36024 0.74415 0.29884 0.0
H999 H 0.3519 0.76997 0.33498 0.0
H1000 H 0.61387 0.86368 0.17651 0.0
H1001 H 0.60876 0.8414 0.21467 0.0
H1002 H 0.62029 0.73025 0.19329 0.0
H1003 H 0.62551 0.75198 0.15527 0.0
H1004 H 0.58546 0.75289 0.22864 0.0
H1005 H 0.66049 0.79051 0.24582 0.0
H1006 H 0.64575 0.82077 0.22948 0.0
H1007 H 0.65298 0.7773 0.21818 0.0
C1008 C 0.61495 0.83441 0.17984 0.0
C1009 C 0.62035 0.80966 0.16294 0.0
C1010 C 0.61199 0.82179 0.2016 0.0
C1011 C 0.61418 0.78429 0.20661 0.0
C1012 C 0.61849 0.75928 0.1896 0.0
H1013 H 0.61588 0.64077 0.32108 0.0
H1014 H 0.60992 0.66909 0.28472 0.0
C1015 C 0.62158 0.77184 0.16795 0.0
C1016 C 0.61428 0.77152 0.22991 0.0
H1017 H 0.64393 0.75987 0.27406 0.0
C1018 C 0.59813 0.75465 0.23874 0.0
C1019 C 0.63089 0.77392 0.24283 0.0
C1020 C 0.64861 0.79152 0.23375 0.0
C1021 C 0.59821 0.73981 0.26038 0.0
C1022 C 0.61503 0.7413 0.27311 0.0
C1023 C 0.63105 0.75877 0.26428 0.0
C1024 C 0.61664 0.72452 0.29551 0.0
C1025 C 0.58032 0.72299 0.26947 0.0
C1026 C 0.62257 0.7462 0.31355 0.0
C1027 C 0.62627 0.73007 0.33417 0.0
C1028 C 0.62411 0.69185 0.33722 0.0
C1029 C 0.61763 0.67028 0.3193 0.0
C1030 C 0.61406 0.68647 0.29856 0.0
H1031 H 0.56764 0.73347 0.26059 0.0
H1032 H 0.58085 0.69265 0.26717 0.0
H1033 H 0.57874 0.7288 0.28755 0.0
H1034 H 0.6247 0.77559 0.31153 0.0
H1035 H 0.63106 0.7476 0.34766 0.0
H1036 H 0.88032 0.252 0.14864 0.0
H1037 H 0.8884 0.27975 0.18443 0.0
H1038 H 0.89065 0.17175 0.21444 0.0
H1039 H 0.88315 0.14366 0.1784 0.0
H1040 H 0.86644 0.27616 0.21971 0.0
H1041 H 0.93622 0.21888 0.24241 0.0
H1042 H 0.92677 0.2157 0.21451 0.0
H1043 H 0.91956 0.18337 0.23565 0.0
C1044 C 0.88284 0.23409 0.16278 0.0
C1045 C 0.88095 0.19565 0.16078 0.0
C1046 C 0.88754 0.25 0.1832 0.0
C1047 C 0.89031 0.22788 0.20209 0.0
C1048 C 0.88905 0.18936 0.19999 0.0
H1049 H 0.87826 0.25058 0.34119 0.0
H1050 H 0.88525 0.23164 0.30307 0.0
C1051 C 0.88461 0.17333 0.17943 0.0
C1052 C 0.89215 0.24532 0.22434 0.0
H1053 H 0.91781 0.2445 0.27257 0.0
C1054 C 0.87789 0.26979 0.23109 0.0
C1055 C 0.90707 0.23695 0.2392 0.0
C1056 C 0.92337 0.21257 0.23249 0.0
C1057 C 0.87766 0.28482 0.25259 0.0
C1058 C 0.89216 0.27535 0.26771 0.0
C1059 C 0.90675 0.25174 0.26085 0.0
C1060 C 0.89116 0.28676 0.29131 0.0
C1061 C 0.86139 0.30933 0.25936 0.0
C1062 C 0.89278 0.32397 0.29742 0.0
C1063 C 0.88876 0.33501 0.31927 0.0
C1064 C 0.88295 0.30895 0.33523 0.0
C1065 C 0.88244 0.27145 0.32925 0.0
C1066 C 0.88655 0.26048 0.30751 0.0
H1067 H 0.84998 0.30975 0.24666 0.0
H1068 H 0.85533 0.3 0.27548 0.0
H1069 H 0.86658 0.33794 0.26164 0.0
H1070 H 0.89645 0.34458 0.28509 0.0
H1071 H 0.88938 0.36407 0.32336 0.0
H1072 H 0.90082 0.8389 0.66392 0.0
H1073 H 0.9106 0.81417 0.70021 0.0
H1074 H 0.86238 0.74148 0.7001 0.0
H1075 H 0.85291 0.76494 0.66391 0.0
H1076 H 0.89329 0.81671 0.73893 0.0
H1077 H 0.90258 0.67042 0.71767 0.0
H1078 H 0.9006 0.70562 0.69653 0.0
H1079 H 0.87972 0.68504 0.70849 0.0
C1080 C 0.89244 0.81737 0.67157 0.0
C1081 C 0.87615 0.80375 0.66094 0.0
C1082 C 0.89807 0.8032 0.69225 0.0
C1083 C 0.88751 0.77525 0.70262 0.0
C1084 C 0.87117 0.762 0.69209 0.0
H1085 H 0.85603 0.73527 0.83347 0.0
H1086 H 0.86449 0.75949 0.79707 0.0
C1087 C 0.86566 0.77578 0.67143 0.0
C1088 C 0.89237 0.76177 0.72524 0.0
H1089 H 0.89302 0.683 0.75623 0.0
C1090 C 0.8937 0.78746 0.74266 0.0
C1091 C 0.89354 0.72368 0.73017 0.0
C1092 C 0.89426 0.69472 0.71213 0.0
C1093 C 0.8944 0.776 0.76498 0.0
C1094 C 0.89307 0.73794 0.76997 0.0
C1095 C 0.89356 0.71224 0.75249 0.0
C1096 C 0.88901 0.72448 0.79283 0.0
C1097 C 0.89605 0.80493 0.78296 0.0
C1098 C 0.89956 0.6957 0.80234 0.0
C1099 C 0.89446 0.68108 0.8231 0.0
C1100 C 0.87875 0.6951 0.83469 0.0
C1101 C 0.86834 0.72409 0.82515 0.0
C1102 C 0.87329 0.73829 0.80438 0.0
H1103 H 0.90443 0.82888 0.777 0.0
H1104 H 0.88175 0.81522 0.78728 0.0
H1105 H 0.9028 0.79378 0.79824 0.0
H1106 H 0.91161 0.68431 0.79362 0.0
H1107 H 0.9028 0.65882 0.83002 0.0
H1108 H 0.62538 0.25246 0.84281 0.0
H1109 H 0.61816 0.23094 0.80524 0.0
H1110 H 0.60241 0.34123 0.78604 0.0
H1111 H 0.60965 0.3633 0.82372 0.0
H1112 H 0.58364 0.23901 0.77645 0.0
H1113 H 0.64855 0.30943 0.74556 0.0
H1114 H 0.64475 0.30004 0.77477 0.0
H1115 H 0.63199 0.33652 0.76135 0.0
C1116 C 0.62021 0.27219 0.83071 0.0
C1117 C 0.61837 0.30976 0.83619 0.0
C1118 C 0.61597 0.25974 0.8093 0.0
C1119 C 0.60992 0.28457 0.79293 0.0
C1120 C 0.60718 0.32174 0.79851 0.0
H1121 H 0.61493 0.24852 0.65018 0.0
H1122 H 0.60789 0.27565 0.68646 0.0
C1123 C 0.61132 0.33427 0.82003 0.0
C1124 C 0.60827 0.27191 0.76962 0.0
H1125 H 0.63159 0.27385 0.71997 0.0
C1126 C 0.59396 0.24687 0.76395 0.0
C1127 C 0.62181 0.28222 0.75351 0.0
C1128 C 0.63775 0.30835 0.75899 0.0
C1129 C 0.5929 0.23161 0.74245 0.0
C1130 C 0.60684 0.24101 0.72652 0.0
C1131 C 0.62088 0.26671 0.73216 0.0
C1132 C 0.60784 0.22367 0.70416 0.0
C1133 C 0.57686 0.20577 0.73703 0.0
C1134 C 0.60971 0.18526 0.70193 0.0
C1135 C 0.61349 0.16959 0.68108 0.0
C1136 C 0.61591 0.1922 0.66228 0.0
C1137 C 0.61335 0.23045 0.66444 0.0
C1138 C 0.60927 0.24598 0.68514 0.0
H1139 H 0.56441 0.21111 0.74785 0.0
H1140 H 0.57246 0.20834 0.71933 0.0
H1141 H 0.58148 0.17697 0.74002 0.0
H1142 H 0.60915 0.16754 0.71643 0.0
H1143 H 0.61551 0.14005 0.6799 0.0
H1144 H 0.4031 0.3444 0.66871 0.0
H1145 H 0.41312 0.31996 0.70504 0.0
H1146 H 0.36734 0.24153 0.70319 0.0
H1147 H 0.3577 0.26468 0.66707 0.0
H1148 H 0.39536 0.31909 0.74347 0.0
H1149 H 0.40925 0.17487 0.72113 0.0
H1150 H 0.40667 0.21033 0.70023 0.0
H1151 H 0.38621 0.18681 0.71121 0.0
C1152 C 0.39532 0.3217 0.676 0.0
C1153 C 0.37968 0.30634 0.6649 0.0
C1154 C 0.4011 0.30768 0.6967 0.0
C1155 C 0.39132 0.27816 0.70656 0.0
C1156 C 0.3756 0.26328 0.69557 0.0
H1157 H 0.35564 0.23348 0.83453 0.0
H1158 H 0.36546 0.25878 0.79889 0.0
C1159 C 0.36996 0.27689 0.67494 0.0
C1160 C 0.39618 0.26458 0.72916 0.0
H1161 H 0.39743 0.18494 0.75929 0.0
C1162 C 0.39633 0.2898 0.7469 0.0
C1163 C 0.39814 0.22649 0.73375 0.0
C1164 C 0.4003 0.19822 0.71547 0.0
C1165 C 0.3964 0.27767 0.76911 0.0
C1166 C 0.39561 0.23937 0.77361 0.0
C1167 C 0.39748 0.21431 0.75592 0.0
C1168 C 0.39054 0.22489 0.79598 0.0
C1169 C 0.39677 0.30612 0.78745 0.0
C1170 C 0.40087 0.19614 0.80588 0.0
C1171 C 0.39495 0.1808 0.82614 0.0
C1172 C 0.37866 0.19414 0.83685 0.0
C1173 C 0.3684 0.2229 0.82689 0.0
C1174 C 0.37414 0.23775 0.80657 0.0
H1175 H 0.40514 0.3306 0.78231 0.0
H1176 H 0.38216 0.31568 0.79082 0.0
H1177 H 0.40287 0.29487 0.80309 0.0
H1178 H 0.41344 0.18543 0.79787 0.0
H1179 H 0.40317 0.15873 0.83346 0.0
H1180 H 0.11775 0.86377 0.81723 0.0
H1181 H 0.1108 0.83809 0.78036 0.0
H1182 H 0.10463 0.72996 0.80947 0.0
H1183 H 0.11231 0.7552 0.84608 0.0
H1184 H 0.12927 0.72894 0.77702 0.0
H1185 H 0.06555 0.80161 0.74678 0.0
H1186 H 0.08362 0.83309 0.7555 0.0
H1187 H 0.07282 0.80287 0.77563 0.0
C1188 C 0.11449 0.83469 0.81578 0.0
C1189 C 0.11577 0.81137 0.8344 0.0
C1190 C 0.11037 0.82007 0.79474 0.0
C1191 C 0.10701 0.78211 0.79217 0.0
C1192 C 0.10717 0.7593 0.81105 0.0
H1193 H 0.10752 0.64397 0.67222 0.0
H1194 H 0.09948 0.6671 0.70943 0.0
C1195 C 0.11161 0.77373 0.83193 0.0
C1196 C 0.10601 0.76531 0.76967 0.0
H1197 H 0.08459 0.77147 0.71878 0.0
C1198 C 0.11924 0.73778 0.76444 0.0
C1199 C 0.093 0.77698 0.75322 0.0
C1200 C 0.07783 0.805 0.75813 0.0
C1201 C 0.12027 0.72254 0.74305 0.0
C1202 C 0.10767 0.73502 0.72644 0.0
C1203 C 0.09417 0.76196 0.73166 0.0
C1204 C 0.10958 0.7224 0.70317 0.0
C1205 C 0.13536 0.69428 0.73807 0.0
C1206 C 0.11735 0.74623 0.68728 0.0
C1207 C 0.12206 0.73316 0.66613 0.0
C1208 C 0.11898 0.69598 0.66047 0.0
C1209 C 0.11018 0.67267 0.67608 0.0
C1210 C 0.10556 0.6858 0.69731 0.0
H1211 H 0.14564 0.69143 0.75195 0.0
H1212 H 0.12864 0.66705 0.73523 0.0
H1213 H 0.14316 0.70183 0.72267 0.0
H1214 H 0.12056 0.77457 0.69157 0.0
H1215 H 0.1286 0.752 0.65444 0.0
H1216 H 0.19849 0.37258 0.12699 0.0
H1217 H 0.227 0.40916 0.1322 0.0
H1218 H 0.19546 0.5086 0.11961 0.0
H1219 H 0.16665 0.47217 0.11431 0.0
H1220 H 0.24206 0.45556 0.0981 0.0
H1221 H 0.22728 0.53287 0.17619 0.0
H1222 H 0.2147 0.49134 0.16867 0.0
H1223 H 0.20904 0.53422 0.15533 0.0
C1224 C 0.19744 0.40227 0.12563 0.0
C1225 C 0.18018 0.41935 0.12014 0.0
C1226 C 0.21382 0.42314 0.12862 0.0
C1227 C 0.21335 0.46157 0.12642 0.0
C1228 C 0.19608 0.47897 0.1217 0.0
H1229 H 0.29654 0.63447 0.12072 0.0
H1230 H 0.26824 0.59692 0.12456 0.0
C1231 C 0.17962 0.45807 0.11862 0.0
C1232 C 0.23123 0.48289 0.12726 0.0
H1233 H 0.25477 0.54984 0.15609 0.0
C1234 C 0.24492 0.47601 0.11086 0.0
C1235 C 0.23484 0.50965 0.14385 0.0
C1236 C 0.22079 0.51741 0.16215 0.0
C1237 C 0.26197 0.49575 0.11026 0.0
C1238 C 0.26568 0.52245 0.12693 0.0
C1239 C 0.252 0.52919 0.14343 0.0
C1240 C 0.28321 0.54508 0.12672 0.0
C1241 C 0.27552 0.48871 0.09129 0.0
C1242 C 0.30117 0.5286 0.12737 0.0
C1243 C 0.31751 0.55005 0.12499 0.0
C1244 C 0.31621 0.58848 0.12218 0.0
C1245 C 0.29819 0.60498 0.12275 0.0
C1246 C 0.28191 0.58353 0.12498 0.0
H1247 H 0.2685 0.47466 0.07707 0.0
H1248 H 0.28181 0.51486 0.08517 0.0
H1249 H 0.28713 0.47066 0.09721 0.0
H1250 H 0.30254 0.49904 0.12926 0.0
H1251 H 0.33111 0.53638 0.1248 0.0
H1252 H 0.66535 0.52308 0.37802 0.0
H1253 H 0.69319 0.48411 0.37236 0.0
H1254 H 0.72875 0.58059 0.37204 0.0
H1255 H 0.70115 0.61969 0.37704 0.0
H1256 H 0.73962 0.5314 0.34045 0.0
H1257 H 0.73007 0.46078 0.42187 0.0
H1258 H 0.71032 0.4565 0.4033 0.0
H1259 H 0.71665 0.50104 0.41415 0.0
C1260 C 0.67907 0.53605 0.37653 0.0
C1261 C 0.68095 0.57457 0.37819 0.0
C1262 C 0.695 0.51369 0.37345 0.0
C1263 C 0.71312 0.52937 0.37227 0.0
C1264 C 0.71494 0.56783 0.37302 0.0
H1265 H 0.82963 0.45992 0.37886 0.0
H1266 H 0.80016 0.49428 0.37403 0.0
C1267 C 0.69907 0.59017 0.37592 0.0
C1268 C 0.73034 0.50602 0.37102 0.0
H1269 H 0.75541 0.4407 0.39943 0.0
C1270 C 0.74305 0.51148 0.35331 0.0
C1271 C 0.73487 0.48019 0.38789 0.0
C1272 C 0.72238 0.47442 0.40799 0.0
C1273 C 0.76012 0.49182 0.35203 0.0
C1274 C 0.76465 0.46623 0.36895 0.0
C1275 C 0.75184 0.4603 0.38644 0.0
C1276 C 0.78279 0.44583 0.36928 0.0
C1277 C 0.77317 0.4984 0.33256 0.0
C1278 C 0.78282 0.40726 0.36806 0.0
C1279 C 0.79961 0.38754 0.37076 0.0
C1280 C 0.81675 0.40598 0.37503 0.0
C1281 C 0.81676 0.44478 0.37554 0.0
C1282 C 0.79992 0.4645 0.37271 0.0
H1283 H 0.76585 0.51247 0.31856 0.0
H1284 H 0.78508 0.51611 0.33802 0.0
H1285 H 0.77915 0.47198 0.3264 0.0
H1286 H 0.76974 0.39235 0.36552 0.0
H1287 H 0.79897 0.35773 0.37027 0.0
H1288 H 0.79746 0.62919 0.87521 0.0
H1289 H 0.76958 0.59055 0.87126 0.0
H1290 H 0.8048 0.4937 0.86874 0.0
H1291 H 0.83296 0.5322 0.87333 0.0
H1292 H 0.75707 0.54208 0.84009 0.0
H1293 H 0.77 0.46969 0.92024 0.0
H1294 H 0.78316 0.51 0.91201 0.0
H1295 H 0.78893 0.46562 0.90049 0.0
C1296 C 0.79941 0.5997 0.87364 0.0
C1297 C 0.81756 0.58387 0.87486 0.0
C1298 C 0.78337 0.57761 0.87135 0.0
C1299 C 0.78501 0.53914 0.87018 0.0
C1300 C 0.80313 0.52327 0.87018 0.0
H1301 H 0.69993 0.36631 0.87124 0.0
H1302 H 0.72874 0.40204 0.86604 0.0
C1303 C 0.81925 0.54538 0.87262 0.0
C1304 C 0.76766 0.51597 0.86982 0.0
H1305 H 0.7438 0.44989 0.8991 0.0
C1306 C 0.75419 0.52186 0.85297 0.0
C1307 C 0.7638 0.48977 0.88673 0.0
C1308 C 0.77713 0.48354 0.90602 0.0
C1309 C 0.73708 0.50214 0.85249 0.0
C1310 C 0.73327 0.47606 0.86941 0.0
C1311 C 0.74679 0.46985 0.8861 0.0
C1312 C 0.71528 0.45502 0.87038 0.0
C1313 C 0.72328 0.50908 0.83381 0.0
C1314 C 0.69802 0.47298 0.87433 0.0
C1315 C 0.6814 0.45258 0.87739 0.0
C1316 C 0.68174 0.41379 0.87662 0.0
C1317 C 0.69902 0.39609 0.87196 0.0
C1318 C 0.71558 0.41646 0.869 0.0
H1319 H 0.73004 0.52348 0.81954 0.0
H1320 H 0.71708 0.48279 0.82778 0.0
H1321 H 0.71159 0.52665 0.84006 0.0
H1322 H 0.69751 0.50272 0.8758 0.0
H1323 H 0.66842 0.46719 0.88105 0.0
H1324 H 0.16596 0.53104 0.61853 0.0
H1325 H 0.19383 0.49218 0.62429 0.0
H1326 H 0.22759 0.58903 0.63646 0.0
H1327 H 0.19994 0.62781 0.6314 0.0
H1328 H 0.22509 0.49242 0.59913 0.0
H1329 H 0.2458 0.524 0.68597 0.0
H1330 H 0.22301 0.53648 0.6748 0.0
H1331 H 0.24336 0.56497 0.66951 0.0
C1332 C 0.17921 0.54404 0.62296 0.0
C1333 C 0.1806 0.58266 0.62452 0.0
C1334 C 0.19517 0.52176 0.62617 0.0
C1335 C 0.21282 0.53758 0.6311 0.0
C1336 C 0.2141 0.57599 0.63326 0.0
H1337 H 0.32937 0.46395 0.62155 0.0
H1338 H 0.30028 0.49998 0.62613 0.0
C1339 C 0.1982 0.59822 0.63018 0.0
C1340 C 0.2302 0.51448 0.63193 0.0
H1341 H 0.26957 0.49568 0.66304 0.0
C1342 C 0.23467 0.49282 0.61324 0.0
C1343 C 0.24282 0.51509 0.65028 0.0
C1344 C 0.23842 0.5361 0.67135 0.0
C1345 C 0.25155 0.47255 0.61217 0.0
C1346 C 0.26429 0.47379 0.6303 0.0
C1347 C 0.25982 0.49508 0.64909 0.0
C1348 C 0.28216 0.45243 0.62998 0.0
C1349 C 0.25585 0.45046 0.59146 0.0
C1350 C 0.28164 0.4139 0.63132 0.0
C1351 C 0.29816 0.39328 0.62883 0.0
C1352 C 0.31564 0.41073 0.62487 0.0
C1353 C 0.31622 0.44954 0.62456 0.0
C1354 C 0.29961 0.47019 0.62715 0.0
H1355 H 0.24622 0.45745 0.57746 0.0
H1356 H 0.27065 0.45516 0.58602 0.0
H1357 H 0.25426 0.42066 0.5952 0.0
H1358 H 0.26833 0.39971 0.63371 0.0
H1359 H 0.29708 0.36352 0.62933 0.0
H1360 H 0.8002 0.13112 0.13131 0.0
H1361 H 0.7713 0.09541 0.13589 0.0
H1362 H 0.80216 0.99506 0.1236 0.0
H1363 H 0.83133 0.03058 0.11886 0.0
H1364 H 0.757 0.04854 0.10038 0.0
H1365 H 0.76855 0.97267 0.17975 0.0
H1366 H 0.78122 0.0144 0.17283 0.0
H1367 H 0.78762 0.97157 0.15991 0.0
C1368 C 0.80102 0.1014 0.12995 0.0
C1369 C 0.81819 0.0838 0.12463 0.0
C1370 C 0.78442 0.08104 0.13256 0.0
C1371 C 0.7846 0.04263 0.13019 0.0
C1372 C 0.80177 0.02469 0.12578 0.0
H1373 H 0.70148 0.87017 0.12252 0.0
H1374 H 0.72957 0.90801 0.1273 0.0
C1375 C 0.81843 0.04507 0.12303 0.0
C1376 C 0.76654 0.02186 0.13035 0.0
H1377 H 0.74167 0.95599 0.15848 0.0
C1378 C 0.75355 0.02848 0.11316 0.0
C1379 C 0.76219 0.99563 0.14697 0.0
C1380 C 0.77552 0.98817 0.16605 0.0
C1381 C 0.7365 0.00884 0.11176 0.0
C1382 C 0.73204 0.98259 0.12844 0.0
C1383 C 0.74501 0.97626 0.14579 0.0
C1384 C 0.71454 0.95992 0.12742 0.0
C1385 C 0.7238 0.01542 0.09194 0.0
C1386 C 0.69658 0.97636 0.12655 0.0
C1387 C 0.68037 0.95473 0.12358 0.0
C1388 C 0.68179 0.91615 0.12177 0.0
C1389 C 0.69975 0.89975 0.1238 0.0
C1390 C 0.7159 0.92138 0.12656 0.0
H1391 H 0.73148 0.02886 0.07798 0.0
H1392 H 0.71766 0.98917 0.08576 0.0
H1393 H 0.71205 0.0339 0.09693 0.0
H1394 H 0.69511 0.006 0.12778 0.0
H1395 H 0.66679 0.9683 0.12229 0.0
H1396 H 0.20013 0.1359 0.37132 0.0
H1397 H 0.22903 0.10009 0.36682 0.0
H1398 H 0.19786 -0.0003 0.37787 0.0
H1399 H 0.16873 0.03525 0.38234 0.0
H1400 H 0.24422 0.05454 0.40024 0.0
H1401 H 0.23038 0.97558 0.32267 0.0
H1402 H 0.21712 0.01628 0.33018 0.0
H1403 H 0.21197 0.97286 0.34323 0.0
C1404 C 0.19927 0.10616 0.37246 0.0
C1405 C 0.182 0.08853 0.37724 0.0
C1406 C 0.21587 0.08574 0.3699 0.0
C1407 C 0.2156 0.04723 0.37183 0.0
C1408 C 0.19834 0.02936 0.37593 0.0
H1409 H 0.29679 0.87232 0.38224 0.0
H1410 H 0.26909 0.91129 0.37748 0.0
C1411 C 0.1817 0.04979 0.37857 0.0
C1412 C 0.23358 0.02616 0.37134 0.0
H1413 H 0.25702 0.95723 0.34414 0.0
C1414 C 0.24712 0.0335 0.38785 0.0
C1415 C 0.23728 0.99865 0.35522 0.0
C1416 C 0.22351 0.99048 0.33668 0.0
C1417 C 0.26401 0.01332 0.38912 0.0
C1418 C 0.26769 0.98557 0.37308 0.0
C1419 C 0.25425 0.97859 0.35637 0.0
C1420 C 0.28487 0.96205 0.37422 0.0
C1421 C 0.2774 0.02092 0.40816 0.0
C1422 C 0.30307 0.97743 0.37337 0.0
C1423 C 0.31907 0.95517 0.37625 0.0
C1424 C 0.31716 0.91699 0.3798 0.0
C1425 C 0.29889 0.90157 0.37963 0.0
C1426 C 0.28297 0.92383 0.37687 0.0
H1427 H 0.27042 0.03641 0.42186 0.0
H1428 H 0.28317 0.99485 0.41508 0.0
H1429 H 0.28938 0.03778 0.40202 0.0
H1430 H 0.30491 0.00677 0.37083 0.0
H1431 H 0.33288 0.968 0.37612 0.0
H1432 H 0.16821 0.96762 0.8763 0.0
H1433 H 0.1975 0.00255 0.87155 0.0
H1434 H 0.22873 0.901 0.86553 0.0
H1435 H 0.19963 0.86597 0.86967 0.0
H1436 H 0.22739 0.00113 0.89915 0.0
H1437 H 0.25115 0.95899 0.81493 0.0
H1438 H 0.22752 0.95028 0.82491 0.0
H1439 H 0.24667 0.92042 0.83286 0.0
C1440 C 0.18124 0.95269 0.8735 0.0
C1441 C 0.18146 0.91389 0.87332 0.0
C1442 C 0.19801 0.97273 0.87084 0.0
C1443 C 0.21534 0.95447 0.8679 0.0
C1444 C 0.21553 0.91582 0.8672 0.0
H1445 H 0.33197 0.0279 0.88411 0.0
H1446 H 0.30335 0.99047 0.87935 0.0
C1447 C 0.1988 0.89578 0.86972 0.0
C1448 C 0.23336 0.97563 0.86748 0.0
H1449 H 0.27404 0.98952 0.83779 0.0
C1450 C 0.23749 0.99877 0.88562 0.0
C1451 C 0.24664 0.97244 0.8499 0.0
C1452 C 0.24272 0.94947 0.82945 0.0
C1453 C 0.25455 0.01838 0.88679 0.0
C1454 C 0.26786 0.01488 0.86936 0.0
C1455 C 0.26383 0.99184 0.8512 0.0
C1456 C 0.28568 0.03629 0.86957 0.0
C1457 C 0.25838 0.04259 0.90675 0.0
C1458 C 0.28527 0.07413 0.86502 0.0
C1459 C 0.30152 0.09552 0.86761 0.0
C1460 C 0.31858 0.07953 0.87492 0.0
C1461 C 0.31914 0.04116 0.87844 0.0
C1462 C 0.3028 0.01972 0.87577 0.0
H1463 H 0.24787 0.03836 0.92026 0.0
H1464 H 0.27272 0.03707 0.91346 0.0
H1465 H 0.25789 0.07195 0.90157 0.0
H1466 H 0.27219 0.08735 0.86012 0.0
H1467 H 0.30049 0.12488 0.86461 0.0
H1468 H 0.83193 0.96981 0.61596 0.0
H1469 H 0.80451 0.01003 0.62182 0.0
H1470 H 0.76985 0.91483 0.63514 0.0
H1471 H 0.79697 0.87484 0.62998 0.0
H1472 H 0.77265 0.01065 0.5973 0.0
H1473 H 0.75316 0.98129 0.68471 0.0
H1474 H 0.77569 0.96802 0.67314 0.0
H1475 H 0.75512 0.93972 0.66872 0.0
C1476 C 0.81858 0.95751 0.62067 0.0
C1477 C 0.81676 0.91899 0.6225 0.0
C1478 C 0.80288 0.98054 0.62392 0.0
C1479 C 0.78511 0.96555 0.62925 0.0
C1480 C 0.78343 0.92725 0.63164 0.0
H1481 H 0.66823 0.03336 0.62121 0.0
H1482 H 0.69813 -4e-05 0.62568 0.0
C1483 C 0.79904 0.90432 0.62847 0.0
C1484 C 0.76794 0.98921 0.63031 0.0
H1485 H 0.72874 0.00785 0.66176 0.0
C1486 C 0.76322 0.01046 0.61154 0.0
C1487 C 0.75552 0.98892 0.64887 0.0
C1488 C 0.76023 0.96855 0.67007 0.0
C1489 C 0.74619 0.03029 0.61051 0.0
C1490 C 0.73356 0.02903 0.62876 0.0
C1491 C 0.73838 0.00845 0.64771 0.0
C1492 C 0.71529 0.04907 0.62829 0.0
C1493 C 0.74154 0.05168 0.58964 0.0
C1494 C 0.71501 0.08766 0.62895 0.0
C1495 C 0.698 0.10681 0.62654 0.0
C1496 C 0.68085 0.08778 0.62334 0.0
C1497 C 0.68111 0.04897 0.62363 0.0
C1498 C 0.69819 0.02981 0.62615 0.0
H1499 H 0.75124 0.0449 0.57567 0.0
H1500 H 0.7268 0.04605 0.5843 0.0
H1501 H 0.74271 0.08163 0.59315 0.0
H1502 H 0.72803 0.10302 0.63081 0.0
H1503 H 0.69845 0.13665 0.62651 0.0
H1504 H 0.32717 0.20415 0.98824 0.0
H1505 H 0.29911 0.22861 0.00687 0.0
H1506 H 0.26396 0.18458 0.95451 0.0
H1507 H 0.29177 0.15959 0.936 0.0
H1508 H 0.27733 0.2813 0.9843 0.0
H1509 H 0.23338 0.16238 0.01063 0.0
H1510 H 0.25827 0.15814 0.00458 0.0
H1511 H 0.24134 0.15969 0.98226 0.0
C1512 C 0.31341 0.1985 0.98113 0.0
C1513 C 0.31166 0.18036 0.96053 0.0
C1514 C 0.29743 0.21267 0.99172 0.0
C1515 C 0.27954 0.20839 0.982 0.0
C1516 C 0.27763 0.18776 0.9624 0.0
H1517 H 0.16852 0.29898 0.00643 0.0
H1518 H 0.19642 0.27509 0.98713 0.0
C1519 C 0.29356 0.17369 0.95178 0.0
C1520 C 0.26332 0.22954 0.9905 0.0
H1521 H 0.21822 0.22099 0.00955 0.0
C1522 C 0.26444 0.26817 0.99002 0.0
C1523 C 0.24651 0.21221 0.99757 0.0
C1524 C 0.2448 0.17081 -0.00099 0.0
C1525 C 0.24905 0.29006 0.99628 0.0
C1526 C 0.23226 0.27272 0.00337 0.0
C1527 C 0.23111 0.2341 0.0038 0.0
C1528 C 0.21617 0.29384 0.01222 0.0
C1529 C 0.25077 0.33146 0.995 0.0
C1530 C 0.21825 0.31342 0.03219 0.0
C1531 C 0.20242 0.32704 0.04321 0.0
C1532 C 0.18426 0.32107 0.03445 0.0
C1533 C 0.18234 0.3041 0.01351 0.0
C1534 C 0.19822 0.29028 0.00255 0.0
H1535 H 0.26227 0.34001 0.98351 0.0
H1536 H 0.23732 0.34415 0.98934 0.0
H1537 H 0.25409 0.34244 0.01182 0.0
H1538 H 0.23197 0.31602 0.04003 0.0
H1539 H 0.20432 0.34022 0.05927 0.0
H1540 H 0.2939 0.67091 0.06336 0.0
H1541 H 0.2662 0.69242 0.04313 0.0
H1542 H 0.3009 0.71651 0.98583 0.0
H1543 H 0.32891 0.69523 0.00616 0.0
H1544 H 0.28049 0.77715 0.00324 0.0
H1545 H 0.2339 0.65589 0.99096 0.0
H1546 H 0.24274 0.66046 0.01887 0.0
H1547 H 0.2589 0.65163 0.99638 0.0
C1548 C 0.29557 0.67983 0.04623 0.0
C1549 C 0.31355 0.68177 0.03636 0.0
C1550 C 0.27971 0.69188 0.03466 0.0
C1551 C 0.28155 0.7059 0.01302 0.0
C1552 C 0.29927 0.70557 0.00253 0.0
H1553 H 0.20541 0.82679 0.92922 0.0
H1554 H 0.23323 0.80242 0.94791 0.0
C1555 C 0.3152 0.69325 0.01409 0.0
C1556 C 0.26551 0.72545 0.00281 0.0
H1557 H 0.21959 0.7151 0.98704 0.0
C1558 C 0.26722 0.76358 -0.00057 0.0
C1559 C 0.2482 0.70765 0.99829 0.0
C1560 C 0.24582 0.66658 0.00112 0.0
C1561 C 0.2519 0.78462 0.99197 0.0
C1562 C 0.23457 0.76683 0.98749 0.0
C1563 C 0.23288 0.72866 0.99077 0.0
C1564 C 0.21833 0.78671 0.97794 0.0
C1565 C 0.25427 0.82574 0.9894 0.0
C1566 C 0.20079 0.78648 0.98884 0.0
C1567 C 0.18476 0.80028 0.97813 0.0
C1568 C 0.18609 0.814 0.95628 0.0
C1569 C 0.20392 0.81619 0.94602 0.0
C1570 C 0.21987 0.8025 0.95672 0.0
H1571 H 0.26619 0.83628 -0.00037 0.0
H1572 H 0.25736 0.83218 0.97169 0.0
H1573 H 0.24119 0.84063 0.99425 0.0
H1574 H 0.19938 0.77426 0.00523 0.0
H1575 H 0.17121 0.79807 0.98641 0.0
H1576 H 0.70281 0.65287 0.4461 0.0
H1577 H 0.72848 0.68315 0.4661 0.0
H1578 H 0.68833 0.73237 0.51122 0.0
H1579 H 0.66246 0.70219 0.49135 0.0
H1580 H 0.72605 0.76482 0.46743 0.0
H1581 H 0.73459 0.69883 0.55075 0.0
H1582 H 0.7248 0.6744 0.52716 0.0
H1583 H 0.71098 0.70861 0.54127 0.0
C1584 C 0.69947 0.66916 0.46072 0.0
C1585 C 0.68062 0.67565 0.46696 0.0
C1586 C 0.71413 0.68646 0.47206 0.0
C1587 C 0.71017 0.71014 0.48989 0.0
C1588 C 0.69157 0.71396 0.49752 0.0
H1589 H 0.78793 0.84397 0.56562 0.0
H1590 H 0.75831 0.82415 0.54857 0.0
C1591 C 0.67684 0.69658 0.48619 0.0
C1592 C 0.7251 0.73453 0.49832 0.0
H1593 H 0.75351 0.75057 0.54296 0.0
C1594 C 0.73206 0.7619 0.48397 0.0
C1595 C 0.73256 0.73077 0.51996 0.0
C1596 C 0.72549 0.7015 0.53575 0.0
C1597 C 0.74668 0.78542 0.49063 0.0
C1598 C 0.75464 0.78083 0.51201 0.0
C1599 C 0.74728 0.75408 0.52658 0.0
C1600 C 0.77158 0.8012 0.51919 0.0
C1601 C 0.75344 0.81484 0.47476 0.0
C1602 C 0.78868 0.79655 0.50768 0.0
C1603 C 0.80561 0.80822 0.51726 0.0
C1604 C 0.80558 0.82397 0.53863 0.0
C1605 C 0.7883 0.83155 0.54919 0.0
C1606 C 0.7714 0.82025 0.53951 0.0
H1607 H 0.74223 0.82261 0.46268 0.0
H1608 H 0.75806 0.83994 0.48385 0.0
H1609 H 0.76564 0.80411 0.46511 0.0
H1610 H 0.78914 0.78134 0.49215 0.0
H1611 H 0.81877 0.80184 0.50888 0.0
H1612 H 0.82604 0.28837 0.48757 0.0
H1613 H 0.79761 0.26419 0.50576 0.0
H1614 H 0.76477 0.29032 0.44731 0.0
H1615 H 0.79287 0.31493 0.42917 0.0
H1616 H 0.74648 0.30549 0.48841 0.0
H1617 H 0.77624 0.16373 0.48413 0.0
H1618 H 0.79068 0.19728 0.49812 0.0
H1619 H 0.78617 0.2019 0.46879 0.0
C1620 C 0.81268 0.28977 0.47883 0.0
C1621 C 0.81171 0.30299 0.45684 0.0
C1622 C 0.79653 0.27564 0.48913 0.0
C1623 C 0.77931 0.27472 0.47758 0.0
C1624 C 0.77803 0.29047 0.45634 0.0
H1625 H 0.66669 0.19034 0.50666 0.0
H1626 H 0.69469 0.21129 0.48617 0.0
C1627 C 0.7941 0.30446 0.44602 0.0
C1628 C 0.76279 0.25551 0.48692 0.0
H1629 H 0.74653 0.17043 0.50169 0.0
C1630 C 0.74642 0.27597 0.49129 0.0
C1631 C 0.76284 0.21694 0.49036 0.0
C1632 C 0.77985 0.19351 0.48495 0.0
C1633 C 0.73014 0.25896 0.49964 0.0
C1634 C 0.73022 0.22041 0.50321 0.0
C1635 C 0.74655 0.19991 0.49868 0.0
C1636 C 0.714 0.20159 0.51352 0.0
C1637 C 0.71319 0.28249 0.50519 0.0
C1638 C 0.71595 0.18712 0.53503 0.0
C1639 C 0.70012 0.17499 0.54664 0.0
C1640 C 0.6821 0.17709 0.53687 0.0
C1641 C 0.6804 0.18852 0.51458 0.0
C1642 C 0.69632 0.20078 0.50296 0.0
H1643 H 0.71673 0.31233 0.50551 0.0
H1644 H 0.70209 0.27813 0.4924 0.0
H1645 H 0.70723 0.27468 0.52165 0.0
H1646 H 0.72954 0.18722 0.54332 0.0
H1647 H 0.70187 0.16582 0.56371 0.0
H1648 H 0.79468 0.65736 0.9363 0.0
H1649 H 0.76653 0.6806 0.9552 0.0
H1650 H 0.80115 0.7218 0.00886 0.0
H1651 H 0.82947 0.69823 0.99011 0.0
H1652 H 0.76366 0.69131 0.02114 0.0
H1653 H 0.76202 0.79591 0.95334 0.0
H1654 H 0.76251 0.74868 0.94429 0.0
H1655 H 0.78246 0.76757 0.95885 0.0
C1656 C 0.79622 0.67038 0.95247 0.0
C1657 C 0.81421 0.67654 0.96165 0.0
C1658 C 0.78018 0.68374 0.96315 0.0
C1659 C 0.78195 0.70366 0.98302 0.0
C1660 C 0.79964 0.70669 0.99338 0.0
H1661 H 0.70619 0.83395 0.06292 0.0
H1662 H 0.73404 0.80813 0.04471 0.0
C1663 C 0.81575 0.69304 0.98275 0.0
C1664 C 0.76571 0.72463 0.99159 0.0
H1665 H 0.73668 0.79685 0.97905 0.0
C1666 C 0.75776 0.71443 0.01203 0.0
C1667 C 0.7582 0.75482 0.97956 0.0
C1668 C 0.76679 0.76771 0.95787 0.0
C1669 C 0.74213 0.73336 0.02064 0.0
C1670 C 0.73462 0.76351 0.00858 0.0
C1671 C 0.74257 0.7737 0.98815 0.0
C1672 C 0.71846 0.78469 0.01715 0.0
C1673 C 0.73358 0.72066 0.04238 0.0
C1674 C 0.70077 0.78205 0.00674 0.0
C1675 C 0.68481 0.79704 0.017 0.0
C1676 C 0.68646 0.81463 0.03778 0.0
C1677 C 0.70449 0.82007 0.04704 0.0
C1678 C 0.72038 0.80524 0.03676 0.0
H1679 H 0.73841 0.69256 0.04703 0.0
H1680 H 0.73782 0.7399 0.05587 0.0
H1681 H 0.71792 0.72069 0.0414 0.0
H1682 H 0.69916 0.7665 0.99143 0.0
H1683 H 0.67109 0.79241 0.00952 0.0
H1684 H 0.66917 0.292 0.98949 0.0
H1685 H 0.69698 0.26728 0.00851 0.0
H1686 H 0.73261 0.30778 0.95555 0.0
H1687 H 0.70493 0.3321 0.9363 0.0
H1688 H 0.73514 0.23179 0.96278 0.0
H1689 H 0.74255 0.31051 0.04181 0.0
H1690 H 0.71927 0.2929 0.03648 0.0
H1691 H 0.72905 0.32744 0.0184 0.0
C1692 C 0.68299 0.29671 0.98229 0.0
C1693 C 0.68491 0.31358 0.96133 0.0
C1694 C 0.69885 0.28257 0.99316 0.0
C1695 C 0.71676 0.2857 0.98334 0.0
C1696 C 0.71884 0.30502 0.96328 0.0
H1697 H 0.82768 0.20122 0.01054 0.0
H1698 H 0.7993 0.22386 0.99184 0.0
C1699 C 0.70304 0.31891 0.95236 0.0
C1700 C 0.73293 0.26512 0.99244 0.0
H1701 H 0.76129 0.25667 0.03798 0.0
C1702 C 0.74094 0.23728 0.97919 0.0
C1703 C 0.74026 0.27229 0.01387 0.0
C1704 C 0.73247 0.30261 0.02844 0.0
C1705 C 0.75614 0.21616 0.9869 0.0
C1706 C 0.76352 0.22345 0.00828 0.0
C1707 C 0.75544 0.25112 0.02159 0.0
C1708 C 0.78006 0.20367 0.01709 0.0
C1709 C 0.764 0.18596 0.97231 0.0
C1710 C 0.77847 0.18395 0.03706 0.0
C1711 C 0.79461 0.17114 0.04779 0.0
C1712 C 0.81258 0.17809 0.03875 0.0
C1713 C 0.81402 0.19531 0.01784 0.0
C1714 C 0.79783 0.20826 0.00714 0.0
H1715 H 0.75389 0.17784 0.95902 0.0
H1716 H 0.77712 0.19589 0.96416 0.0
H1717 H 0.76759 0.16122 0.98235 0.0
H1718 H 0.76482 0.1801 0.04489 0.0
H1719 H 0.79306 0.15761 0.0638 0.0
H1720 H 0.31587 0.35614 0.5168 0.0
H1721 H 0.2854 0.34881 0.4974 0.0
H1722 H 0.27004 0.26241 0.54343 0.0
H1723 H 0.29965 0.27026 0.56297 0.0
H1724 H 0.27059 0.29156 0.47611 0.0
H1725 H 0.22352 0.32408 0.54609 0.0
H1726 H 0.24839 0.33505 0.54674 0.0
H1727 H 0.24011 0.29017 0.55534 0.0
C1728 C 0.30586 0.33582 0.52274 0.0
C1729 C 0.30994 0.31419 0.54156 0.0
C1730 C 0.2885 0.33179 0.51177 0.0
C1731 C 0.2752 0.30601 0.51952 0.0
C1732 C 0.27969 0.28363 0.53778 0.0
H1733 H 0.20096 0.16401 0.4528 0.0
H1734 H 0.22682 0.19882 0.46982 0.0
C1735 C 0.29673 0.28793 0.54881 0.0
C1736 C 0.2571 0.29973 0.50794 0.0
H1737 H 0.21144 0.27756 0.51969 0.0
C1738 C 0.2575 0.28943 0.48543 0.0
C1739 C 0.23986 0.29817 0.51985 0.0
C1740 C 0.23794 0.31295 0.54326 0.0
C1741 C 0.24155 0.27414 0.47517 0.0
C1742 C 0.22515 0.26756 0.48812 0.0
C1743 C 0.22421 0.28131 0.50995 0.0
C1744 C 0.20926 0.24498 0.47976 0.0
C1745 C 0.24263 0.26472 0.45069 0.0
C1746 C 0.19062 0.25781 0.48149 0.0
C1747 C 0.17577 0.23706 0.47281 0.0
C1748 C 0.17941 0.20349 0.46197 0.0
C1749 C 0.1979 0.1898 0.46116 0.0
C1750 C 0.21267 0.21005 0.47044 0.0
H1751 H 0.25229 0.28386 0.4418 0.0
H1752 H 0.24843 0.23649 0.44873 0.0
H1753 H 0.22854 0.26595 0.44262 0.0
H1754 H 0.18761 0.28447 0.48884 0.0
H1755 H 0.16162 0.24845 0.47322 0.0
H1756 H 0.33609 0.80078 0.49516 0.0
H1757 H 0.30937 0.77408 0.51554 0.0
H1758 H 0.27095 0.81739 0.46632 0.0
H1759 H 0.29747 0.84394 0.44584 0.0
H1760 H 0.26944 0.80284 0.52999 0.0
H1761 H 0.27246 0.69859 0.46197 0.0
H1762 H 0.29209 0.72844 0.4686 0.0
H1763 H 0.27221 0.74613 0.45342 0.0
C1764 C 0.32189 0.80595 0.48924 0.0
C1765 C 0.31878 0.82385 0.4688 0.0
C1766 C 0.3067 0.79052 0.5008 0.0
C1767 C 0.28841 0.79326 0.49204 0.0
C1768 C 0.28508 0.81476 0.47307 0.0
H1769 H 0.17921 0.70135 0.51144 0.0
H1770 H 0.2087 0.72502 0.49569 0.0
C1771 C 0.3002 0.82994 0.46147 0.0
C1772 C 0.27323 0.76967 0.50064 0.0
H1773 H 0.24659 0.69466 0.4869 0.0
C1774 C 0.26451 0.77899 0.52078 0.0
C1775 C 0.26703 0.73859 0.48842 0.0
C1776 C 0.27648 0.72702 0.46696 0.0
C1777 C 0.24913 0.75856 0.52871 0.0
C1778 C 0.24269 0.72785 0.51626 0.0
C1779 C 0.25167 0.71817 0.49633 0.0
C1780 C 0.22601 0.70675 0.52328 0.0
C1781 C 0.23946 0.77067 0.54992 0.0
C1782 C 0.22639 0.68668 0.54319 0.0
C1783 C 0.20966 0.67315 0.55219 0.0
C1784 C 0.19236 0.67947 0.54131 0.0
C1785 C 0.19233 0.69613 0.52017 0.0
C1786 C 0.20912 0.70982 0.51123 0.0
H1787 H 0.24391 0.79875 0.55514 0.0
H1788 H 0.22388 0.77043 0.54783 0.0
H1789 H 0.24308 0.75119 0.56353 0.0
H1790 H 0.23944 0.68348 0.55243 0.0
H1791 H 0.2101 0.65989 0.56837 0.0
H1792 H 0.06096 0.33239 0.0454 0.0
H1793 H 0.03094 0.29989 0.04866 0.0
H1794 H 0.03353 0.3094 0.12025 0.0
H1795 H 0.06375 0.34195 0.1172 0.0
H1796 H 0.02874 0.23592 0.10351 0.0
H1797 H 0.97724 0.33314 0.06619 0.0
H1798 H 0.9981 0.32629 0.04966 0.0
H1799 H -1e-05 0.34775 0.07659 0.0
C1800 C 0.05496 0.32838 0.06184 0.0
C1801 C 0.06478 0.33973 0.08104 0.0
C1802 C 0.03776 0.30988 0.06365 0.0
C1803 C 0.03001 0.3024 0.08468 0.0
C1804 C 0.03929 0.31508 0.10387 0.0
H1805 H 0.93419 0.16096 0.11862 0.0
H1806 H 0.96355 0.1962 0.12086 0.0
C1807 C 0.05648 0.33389 0.10207 0.0
C1808 C 0.01318 0.27843 0.08648 0.0
H1809 H 0.96739 0.27052 0.06959 0.0
C1810 C 0.01523 0.24357 0.09638 0.0
C1811 C 0.99566 0.28851 0.07704 0.0
C1812 C 0.9925 0.32609 0.06694 0.0
C1813 C 0.00038 0.2179 0.09629 0.0
C1814 C 0.98298 0.2277 0.08637 0.0
C1815 C 0.98081 0.26294 0.07701 0.0
C1816 C 0.9668 0.20189 0.08515 0.0
C1817 C 0.00365 0.18011 0.10604 0.0
C1818 C 0.95907 0.19281 0.06433 0.0
C1819 C 0.94226 0.17287 0.06298 0.0
C1820 C 0.9328 0.16166 0.08245 0.0
C1821 C 0.94119 0.16883 0.10328 0.0
C1822 C 0.95799 0.18902 0.10461 0.0
H1823 H 0.01894 0.17394 0.1079 0.0
H1824 H 0.99708 0.17873 0.12282 0.0
H1825 H 0.99711 0.15845 0.09548 0.0
H1826 H 0.96569 0.20238 0.04911 0.0
H1827 H 0.93624 0.16773 0.04667 0.0
H1828 H 0.43402 0.66075 0.11888 0.0
H1829 H 0.46362 0.69555 0.12166 0.0
H1830 H 0.46619 0.70316 0.04999 0.0
H1831 H 0.43662 0.66896 0.04703 0.0
H1832 H 0.50069 0.688 0.1035 0.0
H1833 H 0.46377 0.81132 0.07059 0.0
H1834 H 0.45132 0.77084 0.08008 0.0
H1835 H 0.46184 0.77171 0.05279 0.0
C1836 C 0.44115 0.66899 0.1037 0.0
C1837 C 0.43285 0.66249 0.08274 0.0
C1838 C 0.45798 0.68908 0.10533 0.0
C1839 C 0.46674 0.70281 0.08605 0.0
C1840 C 0.45935 0.69364 0.06509 0.0
H1841 H 0.56308 0.82683 0.04685 0.0
H1842 H 0.5331 0.79405 0.05042 0.0
C1843 C 0.44252 0.67385 0.06343 0.0
C1844 C 0.48297 0.72844 0.08767 0.0
H1845 H 0.49737 0.81485 0.07268 0.0
C1846 C 0.49994 0.71588 0.09703 0.0
C1847 C 0.48185 0.76493 0.07938 0.0
C1848 C 0.46366 0.78069 0.07034 0.0
C1849 C 0.51611 0.73833 0.09736 0.0
C1850 C 0.51513 0.77431 0.08832 0.0
C1851 C 0.49803 0.78722 0.07956 0.0
C1852 C 0.53209 0.79791 0.08638 0.0
C1853 C 0.53432 0.723 0.10654 0.0
C1854 C 0.541 0.81225 0.10538 0.0
C1855 C 0.55809 0.83134 0.10341 0.0
C1856 C 0.56658 0.83613 0.08238 0.0
C1857 C 0.55699 0.82349 0.0633 0.0
C1858 C 0.53988 0.80469 0.06529 0.0
H1859 H 0.5334 0.69293 0.10987 0.0
H1860 H 0.54612 0.72807 0.09471 0.0
H1861 H 0.53778 0.73721 0.12241 0.0
H1862 H 0.53502 0.80767 0.12178 0.0
H1863 H 0.56511 0.84056 0.11845 0.0
H1864 H 0.43391 0.84417 0.37482 0.0
H1865 H 0.46403 0.81251 0.3684 0.0
H1866 H 0.47038 0.79606 0.4392 0.0
H1867 H 0.4405 0.82766 0.44581 0.0
H1868 H 0.5045 0.81736 0.415 0.0
H1869 H 0.46617 0.69781 0.37795 0.0
H1870 H 0.46183 0.74284 0.36644 0.0
H1871 H 0.45421 0.73253 0.39426 0.0
C1872 C 0.44196 0.83465 0.38905 0.0
C1873 C 0.43477 0.83813 0.41083 0.0
C1874 C 0.45906 0.81629 0.38532 0.0
C1875 C 0.46917 0.80146 0.40331 0.0
C1876 C 0.46267 0.80715 0.42511 0.0
H1877 H 0.55883 0.66524 0.44437 0.0
H1878 H 0.53045 0.70225 0.43894 0.0
C1879 C 0.44559 0.8252 0.42885 0.0
C1880 C 0.48588 0.77785 0.39975 0.0
H1881 H 0.49864 0.69052 0.38464 0.0
C1882 C 0.50332 0.78984 0.40805 0.0
C1883 C 0.4842 0.742 0.39065 0.0
C1884 C 0.46561 0.72772 0.38188 0.0
C1885 C 0.51905 0.76643 0.40818 0.0
C1886 C 0.51711 0.72992 0.40021 0.0
C1887 C 0.49995 0.71848 0.39087 0.0
C1888 C 0.53247 0.70281 0.40296 0.0
C1889 C 0.53752 0.78065 0.41732 0.0
C1890 C 0.54224 0.68904 0.38442 0.0
C1891 C 0.55845 0.66755 0.38744 0.0
C1892 C 0.56505 0.65969 0.40907 0.0
C1893 C 0.55427 0.67113 0.42751 0.0
C1894 C 0.5381 0.69244 0.42445 0.0
H1895 H 0.53808 0.81125 0.41716 0.0
H1896 H 0.53913 0.77135 0.43485 0.0
H1897 H 0.54966 0.76979 0.40759 0.0
H1898 H 0.53793 0.69653 0.36769 0.0
H1899 H 0.56646 0.65922 0.37289 0.0
H1900 H 0.05847 0.15679 0.44776 0.0
H1901 H 0.02831 0.18895 0.44528 0.0
H1902 H 0.03446 0.19669 0.37391 0.0
H1903 H 0.06484 0.16453 0.37623 0.0
H1904 H 0.02876 0.26516 0.3961 0.0
H1905 H 0.97555 0.16162 0.422 0.0
H1906 H 0.99552 0.16422 0.44036 0.0
H1907 H 0.99876 0.149 0.41208 0.0
C1908 C 0.05319 0.16439 0.43145 0.0
C1909 C 0.06407 0.15816 0.4122 0.0
C1910 C 0.0359 0.1827 0.43006 0.0
C1911 C 0.02914 0.19508 0.40941 0.0
C1912 C 0.03944 0.18719 0.38999 0.0
H1913 H 0.93482 0.34444 0.38297 0.0
H1914 H 0.96427 0.30991 0.37921 0.0
C1915 C 0.05671 0.16856 0.39134 0.0
C1916 C 0.01242 0.21956 0.40862 0.0
H1917 H 0.96611 0.22481 0.42385 0.0
C1918 C 0.01497 0.25629 0.40185 0.0
C1919 C 0.99453 0.20789 0.41626 0.0
C1920 C 0.99083 0.16844 0.4229 0.0
C1921 C 0.00024 0.28211 0.40341 0.0
C1922 C 0.98248 0.27064 0.41162 0.0
C1923 C 0.97982 0.23363 0.41777 0.0
C1924 C 0.96638 0.29638 0.41425 0.0
C1925 C 0.004 0.32167 0.39707 0.0
C1926 C 0.95803 0.30096 0.43528 0.0
C1927 C 0.94117 0.32055 0.4375 0.0
C1928 C 0.93227 0.33584 0.41868 0.0
C1929 C 0.94135 0.33332 0.39785 0.0
C1930 C 0.95821 0.31353 0.39564 0.0
H1931 H 0.01937 0.32776 0.39634 0.0
H1932 H 0.99793 0.32711 0.38034 0.0
H1933 H 0.99727 0.34087 0.4091 0.0
H1934 H 0.96417 0.28805 0.44987 0.0
H1935 H 0.93462 0.32203 0.4538 0.0
H1936 H 0.93731 0.67072 0.94942 0.0
H1937 H 0.96714 0.70404 0.94618 0.0
H1938 H 0.96458 0.69463 0.87459 0.0
H1939 H 0.93457 0.66118 0.87763 0.0
H1940 H 0.00275 0.68587 0.92346 0.0
H1941 H 0.96558 0.80841 0.88868 0.0
H1942 H 0.95318 0.77194 0.90303 0.0
H1943 H 0.96164 0.76476 0.87518 0.0
C1944 C 0.94324 0.67508 0.93298 0.0
C1945 C 0.9335 0.66349 0.91377 0.0
C1946 C 0.96028 0.69417 0.93117 0.0
C1947 C 0.96784 0.70233 0.91015 0.0
C1948 C 0.95879 0.68897 0.89096 0.0
H1949 H 0.06404 0.84469 0.87927 0.0
H1950 H 0.03483 0.80888 0.87652 0.0
C1951 C 0.94176 0.66955 0.89275 0.0
C1952 C 0.98461 0.72653 0.90856 0.0
H1953 H 0.99824 0.8141 0.89508 0.0
C1954 C 0.00183 0.71381 0.91711 0.0
C1955 C 0.98329 0.76294 0.90025 0.0
C1956 C 0.96494 0.77813 0.89136 0.0
C1957 C 0.0178 0.73667 0.91776 0.0
C1958 C 0.01633 0.77353 0.91017 0.0
C1959 C -0.00075 0.78595 0.90104 0.0
C1960 C 0.03239 0.79958 0.91202 0.0
C1961 C 0.03614 0.72107 0.92647 0.0
C1962 C 0.04005 0.80794 0.93298 0.0
C1963 C 0.05669 0.82837 0.93464 0.0
C1964 C 0.06592 0.84114 0.91535 0.0
C1965 C 0.05731 0.83535 0.89448 0.0
C1966 C 0.04067 0.81468 0.89284 0.0
H1967 H 0.0363 0.69047 0.92569 0.0
H1968 H 0.04838 0.73179 0.91688 0.0
H1969 H 0.03792 0.72926 0.94418 0.0
H1970 H 0.03356 0.79738 0.94804 0.0
H1971 H 0.06281 0.83263 0.951 0.0
H1972 H 0.56417 0.34258 0.88053 0.0
H1973 H 0.53354 0.31147 0.87777 0.0
H1974 H 0.53111 0.30287 0.94941 0.0
H1975 H 0.56158 0.33386 0.95236 0.0
H1976 H 0.52824 0.23812 0.89519 0.0
H1977 H 0.47756 0.33795 0.93168 0.0
H1978 H 0.50035 0.3516 0.92091 0.0
H1979 H 0.4985 0.33094 0.94805 0.0
C1980 C 0.55686 0.33507 0.89573 0.0
C1981 C 0.56533 0.34065 0.91668 0.0
C1982 C 0.53943 0.31708 0.8941 0.0
C1983 C 0.53007 0.30501 0.91338 0.0
C1984 C 0.53799 0.31237 0.93434 0.0
H1985 H 0.43507 0.17412 0.95239 0.0
H1986 H 0.46452 0.20876 0.94972 0.0
C1987 C 0.55545 0.33001 0.93598 0.0
C1988 C 0.51301 0.2816 0.91176 0.0
H1989 H 0.46712 0.27569 0.92859 0.0
C1990 C 0.51477 0.24642 0.90221 0.0
C1991 C 0.49557 0.29251 0.92107 0.0
C1992 C 0.49276 0.33044 0.93084 0.0
C1993 C 0.4997 0.22124 0.90252 0.0
C1994 C 0.48236 0.23189 0.91227 0.0
C1995 C 0.48049 0.26746 0.92128 0.0
C1996 C 0.46596 0.20659 0.91372 0.0
C1997 C 0.50272 0.18305 0.8932 0.0
C1998 C 0.45728 0.19289 0.89437 0.0
C1999 C 0.4405 0.17267 0.89584 0.0
C2000 C 0.43197 0.16629 0.91669 0.0
C2001 C 0.44121 0.17859 0.93607 0.0
C2002 C 0.45802 0.19854 0.93458 0.0
H2003 H 0.51796 0.17627 0.89166 0.0
H2004 H 0.49585 0.16193 0.90387 0.0
H2005 H 0.49634 0.18144 0.87633 0.0
H2006 H 0.46298 0.19929 0.87807 0.0
H2007 H 0.43366 0.16399 0.88057 0.0
H2008 H 0.55869 0.16017 0.54886 0.0
H2009 H 0.52867 0.19287 0.55206 0.0
H2010 H 0.53237 0.18752 0.62373 0.0
H2011 H 0.56256 0.15475 0.62073 0.0
H2012 H 0.49341 0.17607 0.57574 0.0
H2013 H 0.53098 0.30032 0.60758 0.0
H2014 H 0.5432 0.26308 0.59376 0.0
H2015 H 0.53509 0.25747 0.62189 0.0
C2016 C 0.55296 0.16523 0.56533 0.0
C2017 C 0.5631 0.15506 0.58454 0.0
C2018 C 0.53581 0.18398 0.56711 0.0
C2019 C 0.52852 0.19319 0.58811 0.0
C2020 C 0.53793 0.18107 0.60736 0.0
H2021 H 0.43309 0.33883 0.61792 0.0
H2022 H 0.46206 0.30227 0.62097 0.0
C2023 C 0.55508 0.16201 0.6056 0.0
C2024 C 0.51173 0.21743 0.58959 0.0
H2025 H 0.49823 0.30561 0.60182 0.0
C2026 C 0.4944 0.2043 0.5816 0.0
C2027 C 0.51313 0.25424 0.59725 0.0
C2028 C 0.53159 0.26991 0.60551 0.0
C2029 C 0.4784 0.22711 0.58087 0.0
C2030 C 0.47993 0.26433 0.58779 0.0
C2031 C 0.49715 0.27717 0.59638 0.0
C2032 C 0.46388 0.29038 0.58569 0.0
C2033 C 0.45995 0.21105 0.57279 0.0
C2034 C 0.45593 0.29748 0.56471 0.0
C2035 C 0.43943 0.31833 0.56289 0.0
C2036 C 0.43064 0.33286 0.58201 0.0
C2037 C 0.43951 0.32818 0.60284 0.0
C2038 C 0.456 0.30707 0.60465 0.0
H2039 H 0.45978 0.18052 0.57429 0.0
H2040 H 0.44781 0.22243 0.58228 0.0
H2041 H 0.45801 0.21807 0.55493 0.0
H2042 H 0.46211 0.28574 0.54979 0.0
H2043 H 0.4331 0.32168 0.54657 0.0
H2044 H 0.05898 0.63739 0.60226 0.0
H2045 H 0.02754 0.66599 0.6031 0.0
H2046 H 0.04491 0.74255 0.55203 0.0
H2047 H 0.07571 0.71349 0.5504 0.0
H2048 H 0.01669 0.73429 0.61332 0.0
H2049 H 0.99672 0.70691 0.52587 0.0
H2050 H 0.01695 0.6855 0.53869 0.0
H2051 H 0.01867 0.73133 0.52723 0.0
C2052 C 0.05594 0.65989 0.59095 0.0
C2053 C 0.06976 0.67264 0.57598 0.0
C2054 C 0.03803 0.67633 0.59152 0.0
C2055 C 0.03372 0.70595 0.57728 0.0
C2056 C 0.04762 0.71898 0.56263 0.0
H2057 H 0.94079 0.86386 0.59512 0.0
H2058 H 0.97174 0.83307 0.59622 0.0
C2059 C 0.06531 0.70227 0.56177 0.0
C2060 C 0.01496 0.72417 0.57799 0.0
H2061 H 0.97906 0.75378 0.54464 0.0
C2062 C 0.00832 0.73821 0.59837 0.0
C2063 C 0.00394 0.72895 0.55852 0.0
C2064 C 0.00935 0.712 0.53642 0.0
C2065 C 0.99109 0.75737 0.59974 0.0
C2066 C 0.98057 0.76377 0.58003 0.0
C2067 C 0.98719 0.74938 0.55973 0.0
C2068 C 0.96205 0.78309 0.58 0.0
C2069 C 0.98418 0.76968 0.62234 0.0
C2070 C 0.9465 0.76589 0.56994 0.0
C2071 C 0.92918 0.78384 0.56862 0.0
C2072 C 0.92682 0.81932 0.57764 0.0
C2073 C 0.94225 0.83655 0.58804 0.0
C2074 C 0.95985 0.81878 0.58888 0.0
H2075 H 0.99084 0.75353 0.63598 0.0
H2076 H 0.98795 0.79907 0.62487 0.0
H2077 H 0.96861 0.76689 0.62374 0.0
H2078 H 0.94774 0.73837 0.56306 0.0
H2079 H 0.91749 0.76947 0.56085 0.0
loop_
_geom_bond_atom_site_label_1
_geom_bond_atom_site_label_2
_geom_bond_distance
_geom_bond_site_symmetry_2
_ccdc_geom_bond_type
Sc0 O3 2.025 . S
Sc0 O10 2.105 . S
Sc0 O13 2.105 . S
Sc0 O16 2.105 . S
Sc0 O19 2.105 . S
Sc1 O3 2.025 . S
Sc1 O11 2.105 . S
Sc1 O15 2.105 . S
Sc1 O17 2.105 . S
Sc1 O21 2.105 . S
Sc2 O3 2.025 . S
Sc2 O12 2.105 . S
Sc2 O14 2.105 . S
Sc2 O18 2.105 . S
Sc2 O20 2.105 . S
O3 Sc0 2.025 . S
O3 Sc1 2.025 . S
O3 Sc2 2.025 . S
C4 O10 1.268 . S
C4 O20 1.268 . S
C5 O11 1.268 . S
C5 O19 1.268 . S
C6 O12 1.268 . S
C6 O21 1.268 . S
C7 O13 1.268 . S
C7 O17 1.268 . S
C8 O14 1.268 . S
C8 O16 1.268 . S
C9 O15 1.268 . S
C9 O18 1.268 . S
O10 Sc0 2.105 . S
O10 C4 1.268 . S
O11 Sc1 2.105 . S
O11 C5 1.268 . S
O12 Sc2 2.105 . S
O12 C6 1.268 . S
O13 Sc0 2.105 . S
O13 C7 1.268 . S
O14 Sc2 2.105 . S
O14 C8 1.268 . S
O15 Sc1 2.105 . S
O15 C9 1.268 . S
O16 Sc0 2.105 . S
O16 C8 1.268 . S
O17 Sc1 2.105 . S
O17 C7 1.268 . S
O18 Sc2 2.105 . S
O18 C9 1.268 . S
O19 Sc0 2.105 . S
O19 C5 1.268 . S
O20 Sc2 2.105 . S
O20 C4 1.268 . S
O21 Sc1 2.105 . S
O21 C6 1.268 . S
Sc22 O25 2.025 . S
Sc22 O32 2.105 . S
Sc22 O35 2.105 . S
Sc22 O38 2.105 . S
Sc22 O41 2.105 . S
Sc23 O25 2.025 . S
Sc23 O33 2.105 . S
Sc23 O37 2.105 . S
Sc23 O39 2.105 . S
Sc23 O43 2.105 . S
Sc24 O25 2.025 . S
Sc24 O34 2.105 . S
Sc24 O36 2.105 . S
Sc24 O40 2.105 . S
Sc24 O42 2.105 . S
O25 Sc22 2.025 . S
O25 Sc23 2.025 . S
O25 Sc24 2.025 . S
C26 O32 1.268 . S
C26 O42 1.268 . S
C27 O33 1.268 . S
C27 O41 1.268 . S
C28 O34 1.268 . S
C28 O43 1.268 . S
C29 O35 1.268 . S
C29 O39 1.268 . S
C30 O36 1.268 . S
C30 O38 1.268 . S
C31 O37 1.268 . S
C31 O40 1.268 . S
O32 Sc22 2.105 . S
O32 C26 1.268 . S
O33 Sc23 2.105 . S
O33 C27 1.268 . S
O34 Sc24 2.105 . S
O34 C28 1.268 . S
O35 Sc22 2.105 . S
O35 C29 1.268 . S
O36 Sc24 2.105 . S
O36 C30 1.268 . S
O37 Sc23 2.105 . S
O37 C31 1.268 . S
O38 Sc22 2.105 . S
O38 C30 1.268 . S
O39 Sc23 2.105 . S
O39 C29 1.268 . S
O40 Sc24 2.105 . S
O40 C31 1.268 . S
O41 Sc22 2.105 . S
O41 C27 1.268 . S
O42 Sc24 2.105 . S
O42 C26 1.268 . S
O43 Sc23 2.105 . S
O43 C28 1.268 . S
Sc44 O47 2.025 . S
Sc44 O54 2.105 . S
Sc44 O57 2.105 . S
Sc44 O60 2.105 . S
Sc44 O63 2.105 . S
Sc45 O47 2.025 . S
Sc45 O55 2.105 . S
Sc45 O59 2.105 . S
Sc45 O61 2.105 . S
Sc45 O65 2.105 . S
Sc46 O47 2.025 . S
Sc46 O56 2.105 . S
Sc46 O58 2.105 . S
Sc46 O62 2.105 . S
Sc46 O64 2.105 . S
O47 Sc44 2.025 . S
O47 Sc45 2.025 . S
O47 Sc46 2.025 . S
C48 O54 1.268 . S
C48 O64 1.268 . S
C49 O55 1.268 . S
C49 O63 1.268 . S
C50 O56 1.268 . S
C50 O65 1.268 . S
C51 O57 1.268 . S
C51 O61 1.268 . S
C52 O58 1.268 . S
C52 O60 1.268 . S
C53 O59 1.268 . S
C53 O62 1.268 . S
O54 Sc44 2.105 . S
O54 C48 1.268 . S
O55 Sc45 2.105 . S
O55 C49 1.268 . S
O56 Sc46 2.105 . S
O56 C50 1.268 . S
O57 Sc44 2.105 . S
O57 C51 1.268 . S
O58 Sc46 2.105 . S
O58 C52 1.268 . S
O59 Sc45 2.105 . S
O59 C53 1.268 . S
O60 Sc44 2.105 . S
O60 C52 1.268 . S
O61 Sc45 2.105 . S
O61 C51 1.268 . S
O62 Sc46 2.105 . S
O62 C53 1.268 . S
O63 Sc44 2.105 . S
O63 C49 1.268 . S
O64 Sc46 2.105 . S
O64 C48 1.268 . S
O65 Sc45 2.105 . S
O65 C50 1.268 . S
Sc66 O69 2.025 . S
Sc66 O76 2.105 . S
Sc66 O79 2.105 . S
Sc66 O82 2.105 . S
Sc66 O85 2.105 . S
Sc67 O69 2.025 . S
Sc67 O77 2.105 . S
Sc67 O81 2.105 . S
Sc67 O83 2.105 . S
Sc67 O87 2.105 . S
Sc68 O69 2.025 . S
Sc68 O78 2.105 . S
Sc68 O80 2.105 . S
Sc68 O84 2.105 . S
Sc68 O86 2.105 . S
O69 Sc66 2.025 . S
O69 Sc67 2.025 . S
O69 Sc68 2.025 . S
C70 O76 1.268 . S
C70 O86 1.268 . S
C71 O77 1.268 . S
C71 O85 1.268 . S
C72 O78 1.268 . S
C72 O87 1.268 . S
C73 O79 1.268 . S
C73 O83 1.268 . S
C74 O80 1.268 . S
C74 O82 1.268 . S
C75 O81 1.268 . S
C75 O84 1.268 . S
O76 Sc66 2.105 . S
O76 C70 1.268 . S
O77 Sc67 2.105 . S
O77 C71 1.268 . S
O78 Sc68 2.105 . S
O78 C72 1.268 . S
O79 Sc66 2.105 . S
O79 C73 1.268 . S
O80 Sc68 2.105 . S
O80 C74 1.268 . S
O81 Sc67 2.105 . S
O81 C75 1.268 . S
O82 Sc66 2.105 . S
O82 C74 1.268 . S
O83 Sc67 2.105 . S
O83 C73 1.268 . S
O84 Sc68 2.105 . S
O84 C75 1.268 . S
O85 Sc66 2.105 . S
O85 C71 1.268 . S
O86 Sc68 2.105 . S
O86 C70 1.268 . S
O87 Sc67 2.105 . S
O87 C72 1.268 . S
Sc88 O91 2.025 . S
Sc88 O98 2.105 . S
Sc88 O101 2.105 . S
Sc88 O104 2.105 . S
Sc88 O107 2.105 . S
Sc89 O91 2.025 . S
Sc89 O99 2.105 . S
Sc89 O103 2.105 . S
Sc89 O105 2.105 . S
Sc89 O109 2.105 . S
Sc90 O91 2.025 . S
Sc90 O100 2.105 . S
Sc90 O102 2.105 . S
Sc90 O106 2.105 . S
Sc90 O108 2.105 . S
O91 Sc88 2.025 . S
O91 Sc89 2.025 . S
O91 Sc90 2.025 . S
C92 O98 1.268 . S
C92 O108 1.268 . S
C93 O99 1.268 . S
C93 O107 1.268 . S
C94 O100 1.268 . S
C94 O109 1.268 . S
C95 O101 1.268 . S
C95 O105 1.268 . S
C96 O102 1.268 . S
C96 O104 1.268 . S
C97 O103 1.268 . S
C97 O106 1.268 . S
O98 Sc88 2.105 . S
O98 C92 1.268 . S
O99 Sc89 2.105 . S
O99 C93 1.268 . S
O100 Sc90 2.105 . S
O100 C94 1.268 . S
O101 Sc88 2.105 . S
O101 C95 1.268 . S
O102 Sc90 2.105 . S
O102 C96 1.268 . S
O103 Sc89 2.105 . S
O103 C97 1.268 . S
O104 Sc88 2.105 . S
O104 C96 1.268 . S
O105 Sc89 2.105 . S
O105 C95 1.268 . S
O106 Sc90 2.105 . S
O106 C97 1.268 . S
O107 Sc88 2.105 . S
O107 C93 1.268 . S
O108 Sc90 2.105 . S
O108 C92 1.268 . S
O109 Sc89 2.105 . S
O109 C94 1.268 . S
Sc110 O113 2.025 . S
Sc110 O120 2.105 . S
Sc110 O123 2.105 . S
Sc110 O126 2.105 . S
Sc110 O129 2.105 . S
Sc111 O113 2.025 . S
Sc111 O121 2.105 . S
Sc111 O125 2.105 . S
Sc111 O127 2.105 . S
Sc111 O131 2.105 . S
Sc112 O113 2.025 . S
Sc112 O122 2.105 . S
Sc112 O124 2.105 . S
Sc112 O128 2.105 . S
Sc112 O130 2.105 . S
O113 Sc110 2.025 . S
O113 Sc111 2.025 . S
O113 Sc112 2.025 . S
C114 O120 1.268 . S
C114 O130 1.268 . S
C115 O121 1.268 . S
C115 O129 1.268 . S
C116 O122 1.268 . S
C116 O131 1.268 . S
C117 O123 1.268 . S
C117 O127 1.268 . S
C118 O124 1.268 . S
C118 O126 1.268 . S
C119 O125 1.268 . S
C119 O128 1.268 . S
O120 Sc110 2.105 . S
O120 C114 1.268 . S
O121 Sc111 2.105 . S
O121 C115 1.268 . S
O122 Sc112 2.105 . S
O122 C116 1.268 . S
O123 Sc110 2.105 . S
O123 C117 1.268 . S
O124 Sc112 2.105 . S
O124 C118 1.268 . S
O125 Sc111 2.105 . S
O125 C119 1.268 . S
O126 Sc110 2.105 . S
O126 C118 1.268 . S
O127 Sc111 2.105 . S
O127 C117 1.268 . S
O128 Sc112 2.105 . S
O128 C119 1.268 . S
O129 Sc110 2.105 . S
O129 C115 1.268 . S
O130 Sc112 2.105 . S
O130 C114 1.268 . S
O131 Sc111 2.105 . S
O131 C116 1.268 . S
Sc132 O135 2.025 . S
Sc132 O142 2.105 . S
Sc132 O145 2.105 . S
Sc132 O148 2.105 . S
Sc132 O151 2.105 . S
Sc133 O135 2.025 . S
Sc133 O143 2.105 . S
Sc133 O147 2.105 . S
Sc133 O149 2.105 . S
Sc133 O153 2.105 . S
Sc134 O135 2.025 . S
Sc134 O144 2.105 . S
Sc134 O146 2.105 . S
Sc134 O150 2.105 . S
Sc134 O152 2.105 . S
O135 Sc132 2.025 . S
O135 Sc133 2.025 . S
O135 Sc134 2.025 . S
C136 O142 1.268 . S
C136 O152 1.268 . S
C137 O143 1.268 . S
C137 O151 1.268 . S
C138 O144 1.268 . S
C138 O153 1.268 . S
C139 O145 1.268 . S
C139 O149 1.268 . S
C140 O146 1.268 . S
C140 O148 1.268 . S
C141 O147 1.268 . S
C141 O150 1.268 . S
O142 Sc132 2.105 . S
O142 C136 1.268 . S
O143 Sc133 2.105 . S
O143 C137 1.268 . S
O144 Sc134 2.105 . S
O144 C138 1.268 . S
O145 Sc132 2.105 . S
O145 C139 1.268 . S
O146 Sc134 2.105 . S
O146 C140 1.268 . S
O147 Sc133 2.105 . S
O147 C141 1.268 . S
O148 Sc132 2.105 . S
O148 C140 1.268 . S
O149 Sc133 2.105 . S
O149 C139 1.268 . S
O150 Sc134 2.105 . S
O150 C141 1.268 . S
O151 Sc132 2.105 . S
O151 C137 1.268 . S
O152 Sc134 2.105 . S
O152 C136 1.268 . S
O153 Sc133 2.105 . S
O153 C138 1.268 . S
Sc154 O157 2.025 . S
Sc154 O164 2.105 . S
Sc154 O167 2.105 . S
Sc154 O170 2.105 . S
Sc154 O173 2.105 . S
Sc155 O157 2.025 . S
Sc155 O165 2.105 . S
Sc155 O169 2.105 . S
Sc155 O171 2.105 . S
Sc155 O175 2.105 . S
Sc156 O157 2.025 . S
Sc156 O166 2.105 . S
Sc156 O168 2.105 . S
Sc156 O172 2.105 . S
Sc156 O174 2.105 . S
O157 Sc154 2.025 . S
O157 Sc155 2.025 . S
O157 Sc156 2.025 . S
C158 O164 1.268 . S
C158 O174 1.268 . S
C159 O165 1.268 . S
C159 O173 1.268 . S
C160 O166 1.268 . S
C160 O175 1.268 . S
C161 O167 1.268 . S
C161 O171 1.268 . S
C162 O168 1.268 . S
C162 O170 1.268 . S
C163 O169 1.268 . S
C163 O172 1.268 . S
O164 Sc154 2.105 . S
O164 C158 1.268 . S
O165 Sc155 2.105 . S
O165 C159 1.268 . S
O166 Sc156 2.105 . S
O166 C160 1.268 . S
O167 Sc154 2.105 . S
O167 C161 1.268 . S
O168 Sc156 2.105 . S
O168 C162 1.268 . S
O169 Sc155 2.105 . S
O169 C163 1.268 . S
O170 Sc154 2.105 . S
O170 C162 1.268 . S
O171 Sc155 2.105 . S
O171 C161 1.268 . S
O172 Sc156 2.105 . S
O172 C163 1.268 . S
O173 Sc154 2.105 . S
O173 C159 1.268 . S
O174 Sc156 2.105 . S
O174 C158 1.268 . S
O175 Sc155 2.105 . S
O175 C160 1.268 . S
Sc176 O179 2.025 . S
Sc176 O186 2.105 . S
Sc176 O189 2.105 . S
Sc176 O192 2.105 . S
Sc176 O195 2.105 . S
Sc177 O179 2.025 . S
Sc177 O187 2.105 . S
Sc177 O191 2.105 . S
Sc177 O193 2.105 . S
Sc177 O197 2.105 . S
Sc178 O179 2.025 . S
Sc178 O188 2.105 . S
Sc178 O190 2.105 . S
Sc178 O194 2.105 . S
Sc178 O196 2.105 . S
O179 Sc176 2.025 . S
O179 Sc177 2.025 . S
O179 Sc178 2.025 . S
C180 O186 1.268 . S
C180 O196 1.268 . S
C181 O187 1.268 . S
C181 O195 1.268 . S
C182 O188 1.268 . S
C182 O197 1.268 . S
C183 O189 1.268 . S
C183 O193 1.268 . S
C184 O190 1.268 . S
C184 O192 1.268 . S
C185 O191 1.268 . S
C185 O194 1.268 . S
O186 Sc176 2.105 . S
O186 C180 1.268 . S
O187 Sc177 2.105 . S
O187 C181 1.268 . S
O188 Sc178 2.105 . S
O188 C182 1.268 . S
O189 Sc176 2.105 . S
O189 C183 1.268 . S
O190 Sc178 2.105 . S
O190 C184 1.268 . S
O191 Sc177 2.105 . S
O191 C185 1.268 . S
O192 Sc176 2.105 . S
O192 C184 1.268 . S
O193 Sc177 2.105 . S
O193 C183 1.268 . S
O194 Sc178 2.105 . S
O194 C185 1.268 . S
O195 Sc176 2.105 . S
O195 C181 1.268 . S
O196 Sc178 2.105 . S
O196 C180 1.268 . S
O197 Sc177 2.105 . S
O197 C182 1.268 . S
Sc198 O201 2.025 . S
Sc198 O208 2.105 . S
Sc198 O211 2.105 . S
Sc198 O214 2.105 . S
Sc198 O217 2.105 . S
Sc199 O201 2.025 . S
Sc199 O209 2.105 . S
Sc199 O213 2.105 . S
Sc199 O215 2.105 . S
Sc199 O219 2.105 . S
Sc200 O201 2.025 . S
Sc200 O210 2.105 . S
Sc200 O212 2.105 . S
Sc200 O216 2.105 . S
Sc200 O218 2.105 . S
O201 Sc198 2.025 . S
O201 Sc199 2.025 . S
O201 Sc200 2.025 . S
C202 O208 1.268 . S
C202 O218 1.268 . S
C203 O209 1.268 . S
C203 O217 1.268 . S
C204 O210 1.268 . S
C204 O219 1.268 . S
C205 O211 1.268 . S
C205 O215 1.268 . S
C206 O212 1.268 . S
C206 O214 1.268 . S
C207 O213 1.268 . S
C207 O216 1.268 . S
O208 Sc198 2.105 . S
O208 C202 1.268 . S
O209 Sc199 2.105 . S
O209 C203 1.268 . S
O210 Sc200 2.105 . S
O210 C204 1.268 . S
O211 Sc198 2.105 . S
O211 C205 1.268 . S
O212 Sc200 2.105 . S
O212 C206 1.268 . S
O213 Sc199 2.105 . S
O213 C207 1.268 . S
O214 Sc198 2.105 . S
O214 C206 1.268 . S
O215 Sc199 2.105 . S
O215 C205 1.268 . S
O216 Sc200 2.105 . S
O216 C207 1.268 . S
O217 Sc198 2.105 . S
O217 C203 1.268 . S
O218 Sc200 2.105 . S
O218 C202 1.268 . S
O219 Sc199 2.105 . S
O219 C204 1.268 . S
Sc220 O223 2.025 . S
Sc220 O230 2.105 . S
Sc220 O233 2.105 . S
Sc220 O236 2.105 . S
Sc220 O239 2.105 . S
Sc221 O223 2.025 . S
Sc221 O231 2.105 . S
Sc221 O235 2.105 . S
Sc221 O237 2.105 . S
Sc221 O241 2.105 . S
Sc222 O223 2.025 . S
Sc222 O232 2.105 . S
Sc222 O234 2.105 . S
Sc222 O238 2.105 . S
Sc222 O240 2.105 . S
O223 Sc220 2.025 . S
O223 Sc221 2.025 . S
O223 Sc222 2.025 . S
C224 O230 1.268 . S
C224 O240 1.268 . S
C225 O231 1.268 . S
C225 O239 1.268 . S
C226 O232 1.268 . S
C226 O241 1.268 . S
C227 O233 1.268 . S
C227 O237 1.268 . S
C228 O234 1.268 . S
C228 O236 1.268 . S
C229 O235 1.268 . S
C229 O238 1.268 . S
O230 Sc220 2.105 . S
O230 C224 1.268 . S
O231 Sc221 2.105 . S
O231 C225 1.268 . S
O232 Sc222 2.105 . S
O232 C226 1.268 . S
O233 Sc220 2.105 . S
O233 C227 1.268 . S
O234 Sc222 2.105 . S
O234 C228 1.268 . S
O235 Sc221 2.105 . S
O235 C229 1.268 . S
O236 Sc220 2.105 . S
O236 C228 1.268 . S
O237 Sc221 2.105 . S
O237 C227 1.268 . S
O238 Sc222 2.105 . S
O238 C229 1.268 . S
O239 Sc220 2.105 . S
O239 C225 1.268 . S
O240 Sc222 2.105 . S
O240 C224 1.268 . S
O241 Sc221 2.105 . S
O241 C226 1.268 . S
Sc242 O245 2.025 . S
Sc242 O252 2.105 . S
Sc242 O255 2.105 . S
Sc242 O258 2.105 . S
Sc242 O261 2.105 . S
Sc243 O245 2.025 . S
Sc243 O253 2.105 . S
Sc243 O257 2.105 . S
Sc243 O259 2.105 . S
Sc243 O263 2.105 . S
Sc244 O245 2.025 . S
Sc244 O254 2.105 . S
Sc244 O256 2.105 . S
Sc244 O260 2.105 . S
Sc244 O262 2.105 . S
O245 Sc242 2.025 . S
O245 Sc243 2.025 . S
O245 Sc244 2.025 . S
C246 O252 1.268 . S
C246 O262 1.268 . S
C247 O253 1.268 . S
C247 O261 1.268 . S
C248 O254 1.268 . S
C248 O263 1.268 . S
C249 O255 1.268 . S
C249 O259 1.268 . S
C250 O256 1.268 . S
C250 O258 1.268 . S
C251 O257 1.268 . S
C251 O260 1.268 . S
O252 Sc242 2.105 . S
O252 C246 1.268 . S
O253 Sc243 2.105 . S
O253 C247 1.268 . S
O254 Sc244 2.105 . S
O254 C248 1.268 . S
O255 Sc242 2.105 . S
O255 C249 1.268 . S
O256 Sc244 2.105 . S
O256 C250 1.268 . S
O257 Sc243 2.105 . S
O257 C251 1.268 . S
O258 Sc242 2.105 . S
O258 C250 1.268 . S
O259 Sc243 2.105 . S
O259 C249 1.268 . S
O260 Sc244 2.105 . S
O260 C251 1.268 . S
O261 Sc242 2.105 . S
O261 C247 1.268 . S
O262 Sc244 2.105 . S
O262 C246 1.268 . S
O263 Sc243 2.105 . S
O263 C248 1.268 . S
Sc264 O267 2.025 . S
Sc264 O274 2.105 . S
Sc264 O277 2.105 . S
Sc264 O280 2.105 . S
Sc264 O283 2.105 . S
Sc265 O267 2.025 . S
Sc265 O275 2.105 . S
Sc265 O279 2.105 . S
Sc265 O281 2.105 . S
Sc265 O285 2.105 . S
Sc266 O267 2.025 . S
Sc266 O276 2.105 . S
Sc266 O278 2.105 . S
Sc266 O282 2.105 . S
Sc266 O284 2.105 . S
O267 Sc264 2.025 . S
O267 Sc265 2.025 . S
O267 Sc266 2.025 . S
C268 O274 1.268 . S
C268 O284 1.268 . S
C269 O275 1.268 . S
C269 O283 1.268 . S
C270 O276 1.268 . S
C270 O285 1.268 . S
C271 O277 1.268 . S
C271 O281 1.268 . S
C272 O278 1.268 . S
C272 O280 1.268 . S
C273 O279 1.268 . S
C273 O282 1.268 . S
O274 Sc264 2.105 . S
O274 C268 1.268 . S
O275 Sc265 2.105 . S
O275 C269 1.268 . S
O276 Sc266 2.105 . S
O276 C270 1.268 . S
O277 Sc264 2.105 . S
O277 C271 1.268 . S
O278 Sc266 2.105 . S
O278 C272 1.268 . S
O279 Sc265 2.105 . S
O279 C273 1.268 . S
O280 Sc264 2.105 . S
O280 C272 1.268 . S
O281 Sc265 2.105 . S
O281 C271 1.268 . S
O282 Sc266 2.105 . S
O282 C273 1.268 . S
O283 Sc264 2.105 . S
O283 C269 1.268 . S
O284 Sc266 2.105 . S
O284 C268 1.268 . S
O285 Sc265 2.105 . S
O285 C270 1.268 . S
Sc286 O289 2.025 . S
Sc286 O296 2.105 . S
Sc286 O299 2.105 . S
Sc286 O302 2.105 . S
Sc286 O305 2.105 . S
Sc287 O289 2.025 . S
Sc287 O297 2.105 . S
Sc287 O301 2.105 . S
Sc287 O303 2.105 . S
Sc287 O307 2.105 . S
Sc288 O289 2.025 . S
Sc288 O298 2.105 . S
Sc288 O300 2.105 . S
Sc288 O304 2.105 . S
Sc288 O306 2.105 . S
O289 Sc286 2.025 . S
O289 Sc287 2.025 . S
O289 Sc288 2.025 . S
C290 O296 1.268 . S
C290 O306 1.268 . S
C291 O297 1.268 . S
C291 O305 1.268 . S
C292 O298 1.268 . S
C292 O307 1.268 . S
C293 O299 1.268 . S
C293 O303 1.268 . S
C294 O300 1.268 . S
C294 O302 1.268 . S
C295 O301 1.268 . S
C295 O304 1.268 . S
O296 Sc286 2.105 . S
O296 C290 1.268 . S
O297 Sc287 2.105 . S
O297 C291 1.268 . S
O298 Sc288 2.105 . S
O298 C292 1.268 . S
O299 Sc286 2.105 . S
O299 C293 1.268 . S
O300 Sc288 2.105 . S
O300 C294 1.268 . S
O301 Sc287 2.105 . S
O301 C295 1.268 . S
O302 Sc286 2.105 . S
O302 C294 1.268 . S
O303 Sc287 2.105 . S
O303 C293 1.268 . S
O304 Sc288 2.105 . S
O304 C295 1.268 . S
O305 Sc286 2.105 . S
O305 C291 1.268 . S
O306 Sc288 2.105 . S
O306 C290 1.268 . S
O307 Sc287 2.105 . S
O307 C292 1.268 . S
Sc308 O311 2.025 . S
Sc308 O318 2.105 . S
Sc308 O321 2.105 . S
Sc308 O324 2.105 . S
Sc308 O327 2.105 . S
Sc309 O311 2.025 . S
Sc309 O319 2.105 . S
Sc309 O323 2.105 . S
Sc309 O325 2.105 . S
Sc309 O329 2.105 . S
Sc310 O311 2.025 . S
Sc310 O320 2.105 . S
Sc310 O322 2.105 . S
Sc310 O326 2.105 . S
Sc310 O328 2.105 . S
O311 Sc308 2.025 . S
O311 Sc309 2.025 . S
O311 Sc310 2.025 . S
C312 O318 1.268 . S
C312 O328 1.268 . S
C313 O319 1.268 . S
C313 O327 1.268 . S
C314 O320 1.268 . S
C314 O329 1.268 . S
C315 O321 1.268 . S
C315 O325 1.268 . S
C316 O322 1.268 . S
C316 O324 1.268 . S
C317 O323 1.268 . S
C317 O326 1.268 . S
O318 Sc308 2.105 . S
O318 C312 1.268 . S
O319 Sc309 2.105 . S
O319 C313 1.268 . S
O320 Sc310 2.105 . S
O320 C314 1.268 . S
O321 Sc308 2.105 . S
O321 C315 1.268 . S
O322 Sc310 2.105 . S
O322 C316 1.268 . S
O323 Sc309 2.105 . S
O323 C317 1.268 . S
O324 Sc308 2.105 . S
O324 C316 1.268 . S
O325 Sc309 2.105 . S
O325 C315 1.268 . S
O326 Sc310 2.105 . S
O326 C317 1.268 . S
O327 Sc308 2.105 . S
O327 C313 1.268 . S
O328 Sc310 2.105 . S
O328 C312 1.268 . S
O329 Sc309 2.105 . S
O329 C314 1.268 . S
Sc330 O333 2.025 . S
Sc330 O340 2.105 . S
Sc330 O343 2.105 . S
Sc330 O346 2.105 . S
Sc330 O349 2.105 . S
Sc331 O333 2.025 . S
Sc331 O341 2.105 . S
Sc331 O345 2.105 . S
Sc331 O347 2.105 . S
Sc331 O351 2.105 . S
Sc332 O333 2.025 . S
Sc332 O342 2.105 . S
Sc332 O344 2.105 . S
Sc332 O348 2.105 . S
Sc332 O350 2.105 . S
O333 Sc330 2.025 . S
O333 Sc331 2.025 . S
O333 Sc332 2.025 . S
C334 O340 1.268 . S
C334 O350 1.268 . S
C335 O341 1.268 . S
C335 O349 1.268 . S
C336 O342 1.268 . S
C336 O351 1.268 . S
C337 O343 1.268 . S
C337 O347 1.268 . S
C338 O344 1.268 . S
C338 O346 1.268 . S
C339 O345 1.268 . S
C339 O348 1.268 . S
O340 Sc330 2.105 . S
O340 C334 1.268 . S
O341 Sc331 2.105 . S
O341 C335 1.268 . S
O342 Sc332 2.105 . S
O342 C336 1.268 . S
O343 Sc330 2.105 . S
O343 C337 1.268 . S
O344 Sc332 2.105 . S
O344 C338 1.268 . S
O345 Sc331 2.105 . S
O345 C339 1.268 . S
O346 Sc330 2.105 . S
O346 C338 1.268 . S
O347 Sc331 2.105 . S
O347 C337 1.268 . S
O348 Sc332 2.105 . S
O348 C339 1.268 . S
O349 Sc330 2.105 . S
O349 C335 1.268 . S
O350 Sc332 2.105 . S
O350 C334 1.268 . S
O351 Sc331 2.105 . S
O351 C336 1.268 . S
H352 C360 0.929 . S
H353 C362 0.930 . S
H354 C364 0.930 . S
H355 C367 0.929 . S
H356 C370 0.930 . S
H357 C372 0.960 . S
H358 C372 0.960 . S
H359 C372 0.960 . S
C360 H352 0.929 . S
C360 C361 1.377 . S
C360 C362 1.384 . S
C361 C360 1.377 . S
C361 C367 1.390 . S
C362 H353 0.930 . S
C362 C360 1.384 . S
C362 C363 1.372 . S
C363 C362 1.372 . S
C363 C364 1.400 . S
C363 C368 1.490 . S
C364 H354 0.930 . S
C364 C363 1.400 . S
C364 C367 1.386 . S
H365 C381 0.930 . S
H366 C382 0.931 1_554 S
C367 H355 0.929 . S
C367 C361 1.390 . S
C367 C364 1.386 . S
C368 C363 1.490 . S
C368 C370 1.395 . S
C368 C371 1.403 . S
H369 C375 0.930 1_556 S
C370 H356 0.930 . S
C370 C368 1.395 . S
C370 C373 1.403 . S
C371 C368 1.403 . S
C371 C372 1.524 . S
C371 C375 1.400 . S
C372 H357 0.960 . S
C372 H358 0.960 . S
C372 H359 0.960 . S
C372 C371 1.524 . S
C373 C370 1.403 . S
C373 C374 1.392 . S
C373 C377 1.495 . S
C374 C373 1.392 . S
C374 C375 1.385 . S
C374 C376 1.478 1_544 S
C375 H369 0.930 1_554 S
C375 C371 1.400 . S
C375 C374 1.385 . S
C376 C374 1.478 1_566 S
C376 C378 1.381 . S
C376 C382 1.383 . S
C377 C373 1.495 . S
C377 H383 0.959 . S
C377 H384 0.961 1_545 S
C377 H385 1.001 1_545 S
C378 C376 1.381 . S
C378 C379 1.394 . S
C378 H386 0.930 . S
C379 C378 1.394 . S
C379 C380 1.383 . S
C379 H387 0.929 . S
C380 C379 1.383 . S
C380 C381 1.377 . S
C381 H365 0.930 . S
C381 C380 1.377 . S
C381 C382 1.379 . S
C382 H366 0.931 1_556 S
C382 C376 1.383 . S
C382 C381 1.379 . S
H383 C377 0.959 . S
H384 C377 0.961 1_565 S
H385 C377 1.001 1_565 S
H386 C378 0.930 . S
H387 C379 0.929 . S
H388 C396 0.929 . S
H389 C398 0.914 1_554 S
H390 C400 0.930 1_565 S
H391 C403 0.929 . S
H392 C406 0.930 . S
H393 C408 0.960 . S
H394 C408 0.960 . S
H395 C408 0.960 . S
C396 H388 0.929 . S
C396 C397 1.377 . S
C396 C398 1.393 . S
C397 C396 1.377 . S
C397 C403 1.390 . S
C398 H389 0.914 1_556 S
C398 C396 1.393 . S
C398 C399 1.379 . S
C399 C398 1.379 . S
C399 C400 1.400 . S
C399 C404 1.490 1_546 S
C400 H390 0.930 1_545 S
C400 C399 1.400 . S
C400 C403 1.386 . S
H401 C417 0.930 . S
H402 C418 0.931 . S
C403 H391 0.929 . S
C403 C397 1.390 . S
C403 C400 1.386 . S
C404 C399 1.490 1_564 S
C404 C406 1.395 . S
C404 C407 1.403 . S
H405 C411 0.930 . S
C406 H392 0.930 . S
C406 C404 1.395 . S
C406 C409 1.403 . S
C407 C404 1.403 . S
C407 C408 1.524 1_554 S
C407 C411 1.400 . S
C408 H393 0.960 . S
C408 H394 0.960 . S
C408 H395 0.960 . S
C408 C407 1.524 1_556 S
C409 C406 1.403 . S
C409 C410 1.392 . S
C409 C413 1.495 . S
C410 C409 1.392 . S
C410 C411 1.385 . S
C410 C412 1.478 . S
C411 H405 0.930 . S
C411 C407 1.400 . S
C411 C410 1.385 . S
C412 C410 1.478 . S
C412 C414 1.381 . S
C412 C418 1.383 . S
C413 C409 1.495 . S
C413 H419 0.959 . S
C413 H420 0.961 . S
C413 H421 0.960 . S
C414 C412 1.381 . S
C414 C415 1.394 . S
C414 H422 0.930 . S
C415 C414 1.394 . S
C415 C416 1.383 . S
C415 H423 0.929 . S
C416 C415 1.383 . S
C416 C417 1.377 . S
C417 H401 0.930 . S
C417 C416 1.377 . S
C417 C418 1.379 . S
C418 H402 0.931 . S
C418 C412 1.383 . S
C418 C417 1.379 . S
H419 C413 0.959 . S
H420 C413 0.961 . S
H421 C413 0.960 . S
H422 C414 0.930 . S
H423 C415 0.929 . S
H424 C432 0.929 . S
H425 C434 0.930 . S
H426 C436 0.930 . S
H427 C439 0.929 . S
H428 C442 0.930 1_545 S
H429 C444 0.960 . S
H430 C444 0.960 . S
H431 C444 0.960 . S
C432 H424 0.929 . S
C432 C433 1.377 . S
C432 C434 1.384 . S
C433 C432 1.377 . S
C433 C439 1.390 . S
C434 H425 0.930 . S
C434 C432 1.384 . S
C434 C435 1.372 . S
C435 C434 1.372 . S
C435 C436 1.400 . S
C435 C440 1.490 1_545 S
C436 H426 0.930 . S
C436 C435 1.400 . S
C436 C439 1.386 . S
H437 C453 0.930 . S
H438 C454 0.931 . S
C439 H427 0.929 . S
C439 C433 1.390 . S
C439 C436 1.386 . S
C440 C435 1.490 1_565 S
C440 C442 1.395 . S
C440 C443 1.403 . S
H441 C447 0.930 . S
C442 H428 0.930 1_565 S
C442 C440 1.395 . S
C442 C445 1.403 . S
C443 C440 1.403 . S
C443 C444 1.524 . S
C443 C447 1.400 . S
C444 H429 0.960 . S
C444 H430 0.960 . S
C444 H431 0.960 . S
C444 C443 1.524 . S
C445 C442 1.403 . S
C445 C446 1.392 . S
C445 C449 1.495 . S
C446 C445 1.392 . S
C446 C447 1.385 . S
C446 C448 1.478 . S
C447 H441 0.930 . S
C447 C443 1.400 . S
C447 C446 1.385 . S
C448 C446 1.478 . S
C448 C450 1.381 . S
C448 C454 1.383 . S
C449 C445 1.495 . S
C449 H455 0.959 . S
C449 H456 0.961 . S
C449 H457 0.960 . S
C450 C448 1.381 . S
C450 C451 1.394 . S
C450 H458 0.930 . S
C451 C450 1.394 . S
C451 C452 1.383 . S
C451 H459 0.929 . S
C452 C451 1.383 . S
C452 C453 1.377 . S
C453 H437 0.930 . S
C453 C452 1.377 . S
C453 C454 1.379 . S
C454 H438 0.931 . S
C454 C448 1.383 . S
C454 C453 1.379 . S
H455 C449 0.959 . S
H456 C449 0.961 . S
H457 C449 0.960 . S
H458 C450 0.930 . S
H459 C451 0.929 . S
H460 C468 0.929 . S
H461 C470 0.930 1_545 S
H462 C472 0.930 . S
H463 C475 0.929 . S
H464 C478 0.930 . S
H465 C480 0.960 1_545 S
H466 C480 0.960 . S
H467 C480 0.960 . S
C468 H460 0.929 . S
C468 C469 1.377 . S
C468 C470 1.384 . S
C469 C468 1.377 . S
C469 C475 1.390 . S
C470 H461 0.930 1_565 S
C470 C468 1.384 . S
C470 C471 1.372 . S
C471 C470 1.372 . S
C471 C472 1.400 . S
C471 C476 1.490 1_565 S
C472 H462 0.930 . S
C472 C471 1.400 . S
C472 C475 1.386 . S
H473 C489 0.930 . S
H474 C490 0.931 . S
C475 H463 0.929 . S
C475 C469 1.390 . S
C475 C472 1.386 . S
C476 C471 1.490 1_545 S
C476 C478 1.395 . S
C476 C479 1.403 . S
H477 C483 0.930 . S
C478 H464 0.930 . S
C478 C476 1.395 . S
C478 C481 1.403 . S
C479 C476 1.403 . S
C479 C480 1.524 1_545 S
C479 C483 1.400 . S
C480 H465 0.960 1_565 S
C480 H466 0.960 . S
C480 H467 0.960 . S
C480 C479 1.524 1_565 S
C481 C478 1.403 . S
C481 C482 1.392 . S
C481 C485 1.495 . S
C482 C481 1.392 . S
C482 C483 1.385 . S
C482 C484 1.478 . S
C483 H477 0.930 . S
C483 C479 1.400 . S
C483 C482 1.385 . S
C484 C482 1.478 . S
C484 C486 1.381 . S
C484 C490 1.383 . S
C485 C481 1.495 . S
C485 H491 0.959 . S
C485 H492 0.961 . S
C485 H493 0.960 . S
C486 C484 1.381 . S
C486 C487 1.394 . S
C486 H494 0.930 . S
C487 C486 1.394 . S
C487 C488 1.383 . S
C487 H495 0.929 . S
C488 C487 1.383 . S
C488 C489 1.377 . S
C489 H473 0.930 . S
C489 C488 1.377 . S
C489 C490 1.379 . S
C490 H474 0.931 . S
C490 C484 1.383 . S
C490 C489 1.379 . S
H491 C485 0.959 . S
H492 C485 0.961 . S
H493 C485 0.960 . S
H494 C486 0.930 . S
H495 C487 0.929 . S
H496 C504 0.929 . S
H497 C506 0.930 . S
H498 C508 0.930 1_556 S
H499 C511 0.929 . S
H500 C514 0.930 . S
H501 C516 0.960 . S
H502 C516 0.960 . S
H503 C516 0.960 . S
C504 H496 0.929 . S
C504 C505 1.377 . S
C504 C506 1.384 . S
C505 C504 1.377 . S
C505 C511 1.390 . S
C506 H497 0.930 . S
C506 C504 1.384 . S
C506 C507 1.372 . S
C507 C506 1.372 . S
C507 C508 1.400 . S
C507 C512 1.478 1_544 S
C508 H498 0.930 1_554 S
C508 C507 1.400 . S
C508 C511 1.386 . S
H509 C525 0.930 . S
H510 C526 0.931 . S
C511 H499 0.929 . S
C511 C505 1.390 . S
C511 C508 1.386 . S
C512 C507 1.478 1_566 S
C512 C514 1.384 1_556 S
C512 C515 1.425 . S
H513 C519 0.930 . S
C514 H500 0.930 . S
C514 C512 1.384 1_554 S
C514 C517 1.391 1_554 S
C515 C512 1.425 . S
C515 C516 1.524 1_565 S
C515 C519 1.400 . S
C516 H501 0.960 . S
C516 H502 0.960 . S
C516 H503 0.960 . S
C516 C515 1.524 1_545 S
C517 C514 1.391 1_556 S
C517 C518 1.418 . S
C517 C521 1.482 1_556 S
C518 C517 1.418 . S
C518 C519 1.385 . S
C518 C520 1.478 . S
C519 H513 0.930 . S
C519 C515 1.400 . S
C519 C518 1.385 . S
C520 C518 1.478 . S
C520 C522 1.381 . S
C520 C526 1.383 . S
C521 C517 1.482 1_554 S
C521 H527 0.959 . S
C521 H528 0.961 . S
C521 H529 0.960 . S
C522 C520 1.381 . S
C522 C523 1.394 . S
C522 H530 0.930 . S
C523 C522 1.394 . S
C523 C524 1.383 . S
C523 H531 0.929 . S
C524 C523 1.383 . S
C524 C525 1.377 . S
C525 H509 0.930 . S
C525 C524 1.377 . S
C525 C526 1.379 . S
C526 H510 0.931 . S
C526 C520 1.383 . S
C526 C525 1.379 . S
H527 C521 0.959 . S
H528 C521 0.961 . S
H529 C521 0.960 . S
H530 C522 0.930 . S
H531 C523 0.929 . S
H532 C540 0.929 . S
H533 C542 0.930 . S
H534 C544 0.930 . S
H535 C547 0.929 . S
H536 C550 0.930 . S
H537 C552 0.960 . S
H538 C552 0.960 . S
H539 C552 0.960 . S
C540 H532 0.929 . S
C540 C541 1.377 . S
C540 C542 1.384 . S
C541 C540 1.377 . S
C541 C547 1.390 . S
C542 H533 0.930 . S
C542 C540 1.384 . S
C542 C543 1.372 . S
C543 C542 1.372 . S
C543 C544 1.400 . S
C543 C548 1.490 . S
C544 H534 0.930 . S
C544 C543 1.400 . S
C544 C547 1.386 . S
H545 C561 0.930 . S
H546 C562 0.931 . S
C547 H535 0.929 . S
C547 C541 1.390 . S
C547 C544 1.386 . S
C548 C543 1.490 . S
C548 C550 1.395 . S
C548 C551 1.403 . S
H549 C555 0.930 . S
C550 H536 0.930 . S
C550 C548 1.395 . S
C550 C553 1.403 1_556 S
C551 C548 1.403 . S
C551 C552 1.524 . S
C551 C555 1.400 . S
C552 H537 0.960 . S
C552 H538 0.960 . S
C552 H539 0.960 . S
C552 C551 1.524 . S
C553 C550 1.403 1_554 S
C553 C554 1.394 . S
C553 C557 1.495 . S
C554 C553 1.394 . S
C554 C555 1.377 1_554 S
C554 C556 1.484 1_545 S
C555 H549 0.930 . S
C555 C551 1.400 . S
C555 C554 1.377 1_556 S
C556 C554 1.484 1_565 S
C556 C558 1.381 . S
C556 C562 1.383 . S
C557 C553 1.495 . S
C557 H563 0.959 . S
C557 H564 0.961 . S
C557 H565 0.960 . S
C558 C556 1.381 . S
C558 C559 1.394 . S
C558 H566 0.930 . S
C559 C558 1.394 . S
C559 C560 1.383 . S
C559 H567 0.929 . S
C560 C559 1.383 . S
C560 C561 1.377 . S
C561 H545 0.930 . S
C561 C560 1.377 . S
C561 C562 1.379 . S
C562 H546 0.931 . S
C562 C556 1.383 . S
C562 C561 1.379 . S
H563 C557 0.959 . S
H564 C557 0.961 . S
H565 C557 0.960 . S
H566 C558 0.930 . S
H567 C559 0.929 . S
H568 C576 0.929 . S
H569 C578 0.930 . S
H570 C580 0.930 . S
H571 C583 0.929 . S
H572 C586 0.930 . S
H573 C588 0.960 . S
H574 C588 0.960 . S
H575 C588 0.960 . S
C576 H568 0.929 . S
C576 C577 1.377 . S
C576 C578 1.384 . S
C577 C576 1.377 . S
C577 C583 1.390 . S
C578 H569 0.930 . S
C578 C576 1.384 . S
C578 C579 1.372 . S
C579 C578 1.372 . S
C579 C580 1.400 . S
C579 C584 1.490 1_565 S
C580 H570 0.930 . S
C580 C579 1.400 . S
C580 C583 1.386 . S
H581 C597 0.930 . S
H582 C598 0.931 . S
C583 H571 0.929 . S
C583 C577 1.390 . S
C583 C580 1.386 . S
C584 C579 1.490 1_545 S
C584 C586 1.395 . S
C584 C587 1.403 . S
H585 C591 0.930 . S
C586 H572 0.930 . S
C586 C584 1.395 . S
C586 C589 1.403 . S
C587 C584 1.403 . S
C587 C588 1.524 . S
C587 C591 1.400 . S
C588 H573 0.960 . S
C588 H574 0.960 . S
C588 H575 0.960 . S
C588 C587 1.524 . S
C589 C586 1.403 . S
C589 C590 1.392 . S
C589 C593 1.495 . S
C590 C589 1.392 . S
C590 C591 1.385 . S
C590 C592 1.478 . S
C591 H585 0.930 . S
C591 C587 1.400 . S
C591 C590 1.385 . S
C592 C590 1.478 . S
C592 C594 1.381 . S
C592 C598 1.383 . S
C593 C589 1.495 . S
C593 H599 0.959 . S
C593 H600 0.961 . S
C593 H601 0.960 . S
C594 C592 1.381 . S
C594 C595 1.394 . S
C594 H602 0.930 . S
C595 C594 1.394 . S
C595 C596 1.383 . S
C595 H603 0.929 . S
C596 C595 1.383 . S
C596 C597 1.377 . S
C597 H581 0.930 . S
C597 C596 1.377 . S
C597 C598 1.379 . S
C598 H582 0.931 . S
C598 C592 1.383 . S
C598 C597 1.379 . S
H599 C593 0.959 . S
H600 C593 0.961 . S
H601 C593 0.960 . S
H602 C594 0.930 . S
H603 C595 0.929 . S
H604 C612 0.929 . S
H605 C614 0.930 . S
H606 C616 0.930 . S
H607 C619 0.929 . S
H608 C622 0.930 . S
H609 C624 0.960 . S
H610 C624 0.960 . S
H611 C624 0.960 . S
C612 H604 0.929 . S
C612 C613 1.377 . S
C612 C614 1.384 . S
C613 C612 1.377 . S
C613 C619 1.390 . S
C614 H605 0.930 . S
C614 C612 1.384 . S
C614 C615 1.372 . S
C615 C614 1.372 . S
C615 C616 1.400 . S
C615 C620 1.490 . S
C616 H606 0.930 . S
C616 C615 1.400 . S
C616 C619 1.386 . S
H617 C633 0.930 . S
H618 C634 0.931 . S
C619 H607 0.929 . S
C619 C613 1.390 . S
C619 C616 1.386 . S
C620 C615 1.490 . S
C620 C622 1.395 . S
C620 C623 1.403 . S
H621 C627 0.930 . S
C622 H608 0.930 . S
C622 C620 1.395 . S
C622 C625 1.403 . S
C623 C620 1.403 . S
C623 C624 1.524 . S
C623 C627 1.400 . S
C624 H609 0.960 . S
C624 H610 0.960 . S
C624 H611 0.960 . S
C624 C623 1.524 . S
C625 C622 1.403 . S
C625 C626 1.392 . S
C625 C629 1.495 1_565 S
C626 C625 1.392 . S
C626 C627 1.385 . S
C626 C628 1.478 1_565 S
C627 H621 0.930 . S
C627 C623 1.400 . S
C627 C626 1.385 . S
C628 C626 1.478 1_545 S
C628 C630 1.381 . S
C628 C634 1.383 . S
C629 C625 1.495 1_545 S
C629 H635 0.959 . S
C629 H636 0.961 . S
C629 H637 0.960 . S
C630 C628 1.381 . S
C630 C631 1.394 . S
C630 H638 0.930 . S
C631 C630 1.394 . S
C631 C632 1.383 . S
C631 H639 0.929 . S
C632 C631 1.383 . S
C632 C633 1.377 . S
C633 H617 0.930 . S
C633 C632 1.377 . S
C633 C634 1.379 . S
C634 H618 0.931 . S
C634 C628 1.383 . S
C634 C633 1.379 . S
H635 C629 0.959 . S
H636 C629 0.961 . S
H637 C629 0.960 . S
H638 C630 0.930 . S
H639 C631 0.929 . S
H640 C648 0.929 . S
H641 C650 0.930 . S
H642 C652 0.930 1_554 S
H643 C655 0.929 . S
H644 C658 0.930 . S
H645 C660 0.960 . S
H646 C660 0.960 . S
H647 C660 0.960 . S
C648 H640 0.929 . S
C648 C649 1.377 . S
C648 C650 1.384 . S
C649 C648 1.377 . S
C649 C655 1.390 . S
C650 H641 0.930 . S
C650 C648 1.384 . S
C650 C651 1.372 . S
C651 C650 1.372 . S
C651 C652 1.400 . S
C651 C656 1.481 1_556 S
C652 H642 0.930 1_556 S
C652 C651 1.400 . S
C652 C655 1.386 . S
H653 C669 0.930 . S
H654 C670 0.931 . S
C655 H643 0.929 . S
C655 C649 1.390 . S
C655 C652 1.386 . S
C656 C651 1.481 1_554 S
C656 C658 1.391 1_554 S
C656 C659 1.415 . S
H657 C663 0.930 . S
C658 H644 0.930 . S
C658 C656 1.391 1_556 S
C658 C661 1.403 1_556 S
C659 C656 1.415 . S
C659 C660 1.524 . S
C659 C663 1.400 . S
C660 H645 0.960 . S
C660 H646 0.960 . S
C660 H647 0.960 . S
C660 C659 1.524 . S
C661 C658 1.403 1_554 S
C661 C662 1.392 . S
C661 C665 1.495 . S
C662 C661 1.392 . S
C662 C663 1.385 . S
C662 C664 1.478 . S
C663 H657 0.930 . S
C663 C659 1.400 . S
C663 C662 1.385 . S
C664 C662 1.478 . S
C664 C666 1.381 . S
C664 C670 1.383 . S
C665 C661 1.495 . S
C665 H671 0.959 1_554 S
C665 H672 0.961 . S
C665 H673 0.960 1_554 S
C666 C664 1.381 . S
C666 C667 1.394 . S
C666 H674 0.930 . S
C667 C666 1.394 . S
C667 C668 1.383 . S
C667 H675 0.929 . S
C668 C667 1.383 . S
C668 C669 1.377 . S
C669 H653 0.930 . S
C669 C668 1.377 . S
C669 C670 1.379 . S
C670 H654 0.931 . S
C670 C664 1.383 . S
C670 C669 1.379 . S
H671 C665 0.959 1_556 S
H672 C665 0.961 . S
H673 C665 0.960 1_556 S
H674 C666 0.930 . S
H675 C667 0.929 . S
H676 C684 0.929 . S
H677 C686 0.930 . S
H678 C688 0.930 . S
H679 C691 0.929 . S
H680 C694 0.930 . S
H681 C696 0.963 1_556 S
H682 C696 0.960 . S
H683 C696 0.960 . S
C684 H676 0.929 . S
C684 C685 1.377 . S
C684 C686 1.384 . S
C685 C684 1.377 . S
C685 C691 1.390 . S
C686 H677 0.930 . S
C686 C684 1.384 . S
C686 C687 1.372 . S
C687 C686 1.372 . S
C687 C688 1.400 . S
C687 C692 1.490 . S
C688 H678 0.930 . S
C688 C687 1.400 . S
C688 C691 1.386 . S
H689 C705 0.930 . S
H690 C706 0.931 1_554 S
C691 H679 0.929 . S
C691 C685 1.390 . S
C691 C688 1.386 . S
C692 C687 1.490 . S
C692 C694 1.395 . S
C692 C695 1.403 . S
H693 C699 0.930 1_556 S
C694 H680 0.930 . S
C694 C692 1.395 . S
C694 C697 1.403 . S
C695 C692 1.403 . S
C695 C696 1.524 . S
C695 C699 1.400 . S
C696 H681 0.963 1_554 S
C696 H682 0.960 . S
C696 H683 0.960 . S
C696 C695 1.524 . S
C697 C694 1.403 . S
C697 C698 1.392 . S
C697 C701 1.495 . S
C698 C697 1.392 . S
C698 C699 1.385 . S
C698 C700 1.478 1_554 S
C699 H693 0.930 1_554 S
C699 C695 1.400 . S
C699 C698 1.385 . S
C700 C698 1.478 1_556 S
C700 C702 1.381 . S
C700 C706 1.383 . S
C701 C697 1.495 . S
C701 H707 0.959 . S
C701 H708 0.961 . S
C701 H709 0.960 . S
C702 C700 1.381 . S
C702 C703 1.394 . S
C702 H710 0.930 . S
C703 C702 1.394 . S
C703 C704 1.383 . S
C703 H711 0.929 . S
C704 C703 1.383 . S
C704 C705 1.377 . S
C705 H689 0.930 . S
C705 C704 1.377 . S
C705 C706 1.379 . S
C706 H690 0.931 1_556 S
C706 C700 1.383 . S
C706 C705 1.379 . S
H707 C701 0.959 . S
H708 C701 0.961 . S
H709 C701 0.960 . S
H710 C702 0.930 . S
H711 C703 0.929 . S
H712 C720 0.929 . S
H713 C722 0.930 . S
H714 C724 0.930 . S
H715 C727 0.929 . S
H716 C730 0.930 . S
H717 C732 0.960 . S
H718 C732 0.960 . S
H719 C732 0.960 . S
C720 H712 0.929 . S
C720 C721 1.377 . S
C720 C722 1.384 . S
C721 C720 1.377 . S
C721 C727 1.390 . S
C722 H713 0.930 . S
C722 C720 1.384 . S
C722 C723 1.372 . S
C723 C722 1.372 . S
C723 C724 1.400 . S
C723 C728 1.490 . S
C724 H714 0.930 . S
C724 C723 1.400 . S
C724 C727 1.386 . S
H725 C741 0.930 . S
H726 C742 0.931 . S
C727 H715 0.929 . S
C727 C721 1.390 . S
C727 C724 1.386 . S
C728 C723 1.490 . S
C728 C730 1.395 . S
C728 C731 1.403 . S
H729 C735 0.930 . S
C730 H716 0.930 . S
C730 C728 1.395 . S
C730 C733 1.403 . S
C731 C728 1.403 . S
C731 C732 1.524 . S
C731 C735 1.400 . S
C732 H717 0.960 . S
C732 H718 0.960 . S
C732 H719 0.960 . S
C732 C731 1.524 . S
C733 C730 1.403 . S
C733 C734 1.392 . S
C733 C737 1.495 . S
C734 C733 1.392 . S
C734 C735 1.385 . S
C734 C736 1.478 . S
C735 H729 0.930 . S
C735 C731 1.400 . S
C735 C734 1.385 . S
C736 C734 1.478 . S
C736 C738 1.381 . S
C736 C742 1.383 . S
C737 C733 1.495 . S
C737 H743 0.959 . S
C737 H744 0.961 . S
C737 H745 0.960 . S
C738 C736 1.381 . S
C738 C739 1.394 . S
C738 H746 0.930 . S
C739 C738 1.394 . S
C739 C740 1.383 . S
C739 H747 0.929 . S
C740 C739 1.383 . S
C740 C741 1.377 . S
C741 H725 0.930 . S
C741 C740 1.377 . S
C741 C742 1.379 . S
C742 H726 0.931 . S
C742 C736 1.383 . S
C742 C741 1.379 . S
H743 C737 0.959 . S
H744 C737 0.961 . S
H745 C737 0.960 . S
H746 C738 0.930 . S
H747 C739 0.929 . S
H748 C756 0.929 . S
H749 C758 0.930 . S
H750 C760 0.930 . S
H751 C763 0.929 . S
H752 C766 0.930 . S
H753 C768 0.960 . S
H754 C768 0.960 . S
H755 C768 0.960 . S
C756 H748 0.929 . S
C756 C757 1.377 . S
C756 C758 1.384 . S
C757 C756 1.377 . S
C757 C763 1.390 . S
C758 H749 0.930 . S
C758 C756 1.384 . S
C758 C759 1.372 . S
C759 C758 1.372 . S
C759 C760 1.400 . S
C759 C764 1.490 . S
C760 H750 0.930 . S
C760 C759 1.400 . S
C760 C763 1.386 . S
H761 C777 0.930 . S
H762 C778 0.931 . S
C763 H751 0.929 . S
C763 C757 1.390 . S
C763 C760 1.386 . S
C764 C759 1.490 . S
C764 C766 1.395 . S
C764 C767 1.403 . S
H765 C771 0.930 . S
C766 H752 0.930 . S
C766 C764 1.395 . S
C766 C769 1.403 . S
C767 C764 1.403 . S
C767 C768 1.524 . S
C767 C771 1.400 . S
C768 H753 0.960 . S
C768 H754 0.960 . S
C768 H755 0.960 . S
C768 C767 1.524 . S
C769 C766 1.403 . S
C769 C770 1.392 . S
C769 C773 1.495 . S
C770 C769 1.392 . S
C770 C771 1.385 . S
C770 C772 1.478 . S
C771 H765 0.930 . S
C771 C767 1.400 . S
C771 C770 1.385 . S
C772 C770 1.478 . S
C772 C774 1.381 . S
C772 C778 1.383 . S
C773 C769 1.495 . S
C773 H779 0.959 . S
C773 H780 0.961 . S
C773 H781 0.960 . S
C774 C772 1.381 . S
C774 C775 1.394 . S
C774 H782 0.930 . S
C775 C774 1.394 . S
C775 C776 1.383 . S
C775 H783 0.929 . S
C776 C775 1.383 . S
C776 C777 1.377 . S
C777 H761 0.930 . S
C777 C776 1.377 . S
C777 C778 1.379 . S
C778 H762 0.931 . S
C778 C772 1.383 . S
C778 C777 1.379 . S
H779 C773 0.959 . S
H780 C773 0.961 . S
H781 C773 0.960 . S
H782 C774 0.930 . S
H783 C775 0.929 . S
H784 C792 0.929 . S
H785 C794 0.930 . S
H786 C796 0.930 . S
H787 C799 0.929 . S
H788 C802 0.930 . S
H789 C804 0.960 . S
H790 C804 0.960 . S
H791 C804 0.960 . S
C792 H784 0.929 . S
C792 C793 1.377 . S
C792 C794 1.384 . S
C793 C792 1.377 . S
C793 C799 1.390 . S
C794 H785 0.930 . S
C794 C792 1.384 . S
C794 C795 1.372 . S
C795 C794 1.372 . S
C795 C796 1.400 . S
C795 C800 1.490 . S
C796 H786 0.930 . S
C796 C795 1.400 . S
C796 C799 1.386 . S
H797 C813 0.930 . S
H798 C814 0.931 . S
C799 H787 0.929 . S
C799 C793 1.390 . S
C799 C796 1.386 . S
C800 C795 1.490 . S
C800 C802 1.395 . S
C800 C803 1.403 . S
H801 C807 0.930 . S
C802 H788 0.930 . S
C802 C800 1.395 . S
C802 C805 1.403 . S
C803 C800 1.403 . S
C803 C804 1.524 1_556 S
C803 C807 1.400 1_556 S
C804 H789 0.960 . S
C804 H790 0.960 . S
C804 H791 0.960 . S
C804 C803 1.524 1_554 S
C805 C802 1.403 . S
C805 C806 1.392 . S
C805 C809 1.495 . S
C806 C805 1.392 . S
C806 C807 1.385 1_556 S
C806 C808 1.478 1_556 S
C807 H801 0.930 . S
C807 C803 1.400 1_554 S
C807 C806 1.385 1_554 S
C808 C806 1.478 1_554 S
C808 C810 1.381 . S
C808 C814 1.383 . S
C809 C805 1.495 . S
C809 H815 0.959 . S
C809 H816 0.961 . S
C809 H817 0.960 . S
C810 C808 1.381 . S
C810 C811 1.394 . S
C810 H818 0.930 . S
C811 C810 1.394 . S
C811 C812 1.383 . S
C811 H819 0.929 . S
C812 C811 1.383 . S
C812 C813 1.377 . S
C813 H797 0.930 . S
C813 C812 1.377 . S
C813 C814 1.379 . S
C814 H798 0.931 . S
C814 C808 1.383 . S
C814 C813 1.379 . S
H815 C809 0.959 . S
H816 C809 0.961 . S
H817 C809 0.960 . S
H818 C810 0.930 . S
H819 C811 0.929 . S
H820 C828 0.929 . S
H821 C830 0.930 . S
H822 C832 0.930 1_556 S
H823 C835 0.929 . S
H824 C838 0.930 . S
H825 C840 0.960 . S
H826 C840 0.960 . S
H827 C840 0.960 . S
C828 H820 0.929 . S
C828 C829 1.377 . S
C828 C830 1.384 . S
C829 C828 1.377 . S
C829 C835 1.390 . S
C830 H821 0.930 . S
C830 C828 1.384 . S
C830 C831 1.372 . S
C831 C830 1.372 . S
C831 C832 1.400 . S
C831 C836 1.474 1_554 S
C832 H822 0.930 1_554 S
C832 C831 1.400 . S
C832 C835 1.386 . S
H833 C849 0.930 . S
H834 C850 0.931 . S
C835 H823 0.929 . S
C835 C829 1.390 . S
C835 C832 1.386 . S
C836 C831 1.474 1_556 S
C836 C838 1.378 1_556 S
C836 C839 1.435 . S
H837 C843 0.930 . S
C838 H824 0.930 . S
C838 C836 1.378 1_554 S
C838 C841 1.413 . S
C839 C836 1.435 . S
C839 C840 1.524 . S
C839 C843 1.400 . S
C840 H825 0.960 . S
C840 H826 0.960 . S
C840 H827 0.960 . S
C840 C839 1.524 . S
C841 C838 1.413 . S
C841 C842 1.372 1_554 S
C841 C845 1.506 . S
C842 C841 1.372 1_556 S
C842 C843 1.385 . S
C842 C844 1.478 . S
C843 H837 0.930 . S
C843 C839 1.400 . S
C843 C842 1.385 . S
C844 C842 1.478 . S
C844 C846 1.381 . S
C844 C850 1.383 . S
C845 C841 1.506 . S
C845 H851 0.959 . S
C845 H852 0.961 . S
C845 H853 0.960 . S
C846 C844 1.381 . S
C846 C847 1.394 . S
C846 H854 0.930 . S
C847 C846 1.394 . S
C847 C848 1.383 . S
C847 H855 0.929 . S
C848 C847 1.383 . S
C848 C849 1.377 . S
C849 H833 0.930 . S
C849 C848 1.377 . S
C849 C850 1.379 . S
C850 H834 0.931 . S
C850 C844 1.383 . S
C850 C849 1.379 . S
H851 C845 0.959 . S
H852 C845 0.961 . S
H853 C845 0.960 . S
H854 C846 0.930 . S
H855 C847 0.929 . S
H856 C864 0.929 . S
H857 C866 0.930 . S
H858 C868 0.930 . S
H859 C871 0.929 . S
H860 C874 0.930 . S
H861 C876 0.960 . S
H862 C876 0.960 . S
H863 C876 0.960 . S
C864 H856 0.929 . S
C864 C865 1.377 . S
C864 C866 1.384 . S
C865 C864 1.377 . S
C865 C871 1.390 . S
C866 H857 0.930 . S
C866 C864 1.384 . S
C866 C867 1.372 . S
C867 C866 1.372 . S
C867 C868 1.400 . S
C867 C872 1.490 . S
C868 H858 0.930 . S
C868 C867 1.400 . S
C868 C871 1.386 . S
H869 C885 0.930 . S
H870 C886 0.931 . S
C871 H859 0.929 . S
C871 C865 1.390 . S
C871 C868 1.386 . S
C872 C867 1.490 . S
C872 C874 1.395 . S
C872 C875 1.403 . S
H873 C879 0.930 . S
C874 H860 0.930 . S
C874 C872 1.395 . S
C874 C877 1.403 . S
C875 C872 1.403 . S
C875 C876 1.524 . S
C875 C879 1.400 . S
C876 H861 0.960 . S
C876 H862 0.960 . S
C876 H863 0.960 . S
C876 C875 1.524 . S
C877 C874 1.403 . S
C877 C878 1.392 . S
C877 C881 1.495 . S
C878 C877 1.392 . S
C878 C879 1.385 . S
C878 C880 1.478 . S
C879 H873 0.930 . S
C879 C875 1.400 . S
C879 C878 1.385 . S
C880 C878 1.478 . S
C880 C882 1.381 . S
C880 C886 1.383 . S
C881 C877 1.495 . S
C881 H887 0.959 . S
C881 H888 0.961 . S
C881 H889 0.960 . S
C882 C880 1.381 . S
C882 C883 1.394 . S
C882 H890 0.930 . S
C883 C882 1.394 . S
C883 C884 1.383 . S
C883 H891 0.929 . S
C884 C883 1.383 . S
C884 C885 1.377 . S
C885 H869 0.930 . S
C885 C884 1.377 . S
C885 C886 1.379 . S
C886 H870 0.931 . S
C886 C880 1.383 . S
C886 C885 1.379 . S
H887 C881 0.959 . S
H888 C881 0.961 . S
H889 C881 0.960 . S
H890 C882 0.930 . S
H891 C883 0.929 . S
H892 C900 0.929 . S
H893 C902 0.930 . S
H894 C904 0.930 . S
H895 C907 0.929 . S
H896 C910 0.930 . S
H897 C912 0.960 . S
H898 C912 0.960 . S
H899 C912 0.960 . S
C900 H892 0.929 . S
C900 C901 1.377 . S
C900 C902 1.384 . S
C901 C900 1.377 . S
C901 C907 1.390 . S
C902 H893 0.930 . S
C902 C900 1.384 . S
C902 C903 1.372 . S
C903 C902 1.372 . S
C903 C904 1.400 . S
C903 C908 1.490 . S
C904 H894 0.930 . S
C904 C903 1.400 . S
C904 C907 1.386 . S
H905 C921 0.930 . S
H906 C922 0.931 . S
C907 H895 0.929 . S
C907 C901 1.390 . S
C907 C904 1.386 . S
C908 C903 1.490 . S
C908 C910 1.395 . S
C908 C911 1.403 . S
H909 C915 0.930 . S
C910 H896 0.930 . S
C910 C908 1.395 . S
C910 C913 1.403 . S
C911 C908 1.403 . S
C911 C912 1.524 . S
C911 C915 1.400 . S
C912 H897 0.960 . S
C912 H898 0.960 . S
C912 H899 0.960 . S
C912 C911 1.524 . S
C913 C910 1.403 . S
C913 C914 1.392 . S
C913 C917 1.495 . S
C914 C913 1.392 . S
C914 C915 1.385 . S
C914 C916 1.478 . S
C915 H909 0.930 . S
C915 C911 1.400 . S
C915 C914 1.385 . S
C916 C914 1.478 . S
C916 C918 1.381 . S
C916 C922 1.383 . S
C917 C913 1.495 . S
C917 H923 0.959 . S
C917 H924 0.961 . S
C917 H925 0.960 . S
C918 C916 1.381 . S
C918 C919 1.394 . S
C918 H926 0.930 . S
C919 C918 1.394 . S
C919 C920 1.383 . S
C919 H927 0.929 . S
C920 C919 1.383 . S
C920 C921 1.377 . S
C921 H905 0.930 . S
C921 C920 1.377 . S
C921 C922 1.379 . S
C922 H906 0.931 . S
C922 C916 1.383 . S
C922 C921 1.379 . S
H923 C917 0.959 . S
H924 C917 0.961 . S
H925 C917 0.960 . S
H926 C918 0.930 . S
H927 C919 0.929 . S
H928 C936 0.929 . S
H929 C938 0.930 . S
H930 C940 0.930 . S
H931 C943 0.929 . S
H932 C946 0.930 . S
H933 C948 0.960 . S
H934 C948 0.960 . S
H935 C948 0.960 . S
C936 H928 0.929 . S
C936 C937 1.377 . S
C936 C938 1.384 . S
C937 C936 1.377 . S
C937 C943 1.390 . S
C938 H929 0.930 . S
C938 C936 1.384 . S
C938 C939 1.372 . S
C939 C938 1.372 . S
C939 C940 1.400 . S
C939 C944 1.490 . S
C940 H930 0.930 . S
C940 C939 1.400 . S
C940 C943 1.386 . S
H941 C957 0.930 . S
H942 C958 0.931 . S
C943 H931 0.929 . S
C943 C937 1.390 . S
C943 C940 1.386 . S
C944 C939 1.490 . S
C944 C946 1.395 . S
C944 C947 1.403 . S
H945 C951 0.930 . S
C946 H932 0.930 . S
C946 C944 1.395 . S
C946 C949 1.403 . S
C947 C944 1.403 . S
C947 C948 1.524 . S
C947 C951 1.400 . S
C948 H933 0.960 . S
C948 H934 0.960 . S
C948 H935 0.960 . S
C948 C947 1.524 . S
C949 C946 1.403 . S
C949 C950 1.392 . S
C949 C953 1.495 . S
C950 C949 1.392 . S
C950 C951 1.385 . S
C950 C952 1.478 . S
C951 H945 0.930 . S
C951 C947 1.400 . S
C951 C950 1.385 . S
C952 C950 1.478 . S
C952 C954 1.381 . S
C952 C958 1.383 . S
C953 C949 1.495 . S
C953 H959 0.959 . S
C953 H960 0.961 . S
C953 H961 0.960 . S
C954 C952 1.381 . S
C954 C955 1.394 . S
C954 H962 0.930 . S
C955 C954 1.394 . S
C955 C956 1.383 . S
C955 H963 0.929 . S
C956 C955 1.383 . S
C956 C957 1.377 . S
C957 H941 0.930 . S
C957 C956 1.377 . S
C957 C958 1.379 . S
C958 H942 0.931 . S
C958 C952 1.383 . S
C958 C957 1.379 . S
H959 C953 0.959 . S
H960 C953 0.961 . S
H961 C953 0.960 . S
H962 C954 0.930 . S
H963 C955 0.929 . S
H964 C972 0.929 . S
H965 C974 0.930 . S
H966 C976 0.930 . S
H967 C979 0.929 . S
H968 C982 0.930 . S
H969 C984 0.960 . S
H970 C984 0.960 . S
H971 C984 0.960 . S
C972 H964 0.929 . S
C972 C973 1.377 . S
C972 C974 1.384 . S
C973 C972 1.377 . S
C973 C979 1.390 . S
C974 H965 0.930 . S
C974 C972 1.384 . S
C974 C975 1.372 . S
C975 C974 1.372 . S
C975 C976 1.400 . S
C975 C980 1.490 . S
C976 H966 0.930 . S
C976 C975 1.400 . S
C976 C979 1.386 . S
H977 C993 0.930 . S
H978 C994 0.931 . S
C979 H967 0.929 . S
C979 C973 1.390 . S
C979 C976 1.386 . S
C980 C975 1.490 . S
C980 C982 1.395 . S
C980 C983 1.403 . S
H981 C987 0.930 . S
C982 H968 0.930 . S
C982 C980 1.395 . S
C982 C985 1.403 . S
C983 C980 1.403 . S
C983 C984 1.524 . S
C983 C987 1.400 . S
C984 H969 0.960 . S
C984 H970 0.960 . S
C984 H971 0.960 . S
C984 C983 1.524 . S
C985 C982 1.403 . S
C985 C986 1.392 . S
C985 C989 1.495 . S
C986 C985 1.392 . S
C986 C987 1.385 . S
C986 C988 1.478 . S
C987 H981 0.930 . S
C987 C983 1.400 . S
C987 C986 1.385 . S
C988 C986 1.478 . S
C988 C990 1.381 . S
C988 C994 1.383 . S
C989 C985 1.495 . S
C989 H995 0.959 . S
C989 H996 0.961 . S
C989 H997 0.960 . S
C990 C988 1.381 . S
C990 C991 1.394 . S
C990 H998 0.930 . S
C991 C990 1.394 . S
C991 C992 1.383 . S
C991 H999 0.929 . S
C992 C991 1.383 . S
C992 C993 1.377 . S
C993 H977 0.930 . S
C993 C992 1.377 . S
C993 C994 1.379 . S
C994 H978 0.931 . S
C994 C988 1.383 . S
C994 C993 1.379 . S
H995 C989 0.959 . S
H996 C989 0.961 . S
H997 C989 0.960 . S
H998 C990 0.930 . S
H999 C991 0.929 . S
H1000 C1008 0.929 . S
H1001 C1010 0.930 . S
H1002 C1012 0.930 . S
H1003 C1015 0.929 . S
H1004 C1018 0.930 . S
H1005 C1020 0.960 . S
H1006 C1020 0.960 . S
H1007 C1020 0.960 . S
C1008 H1000 0.929 . S
C1008 C1009 1.377 . S
C1008 C1010 1.384 . S
C1009 C1008 1.377 . S
C1009 C1015 1.390 . S
C1010 H1001 0.930 . S
C1010 C1008 1.384 . S
C1010 C1011 1.372 . S
C1011 C1010 1.372 . S
C1011 C1012 1.400 . S
C1011 C1016 1.490 . S
C1012 H1002 0.930 . S
C1012 C1011 1.400 . S
C1012 C1015 1.386 . S
H1013 C1029 0.930 . S
H1014 C1030 0.931 . S
C1015 H1003 0.929 . S
C1015 C1009 1.390 . S
C1015 C1012 1.386 . S
C1016 C1011 1.490 . S
C1016 C1018 1.395 . S
C1016 C1019 1.403 . S
H1017 C1023 0.930 . S
C1018 H1004 0.930 . S
C1018 C1016 1.395 . S
C1018 C1021 1.403 . S
C1019 C1016 1.403 . S
C1019 C1020 1.524 . S
C1019 C1023 1.400 . S
C1020 H1005 0.960 . S
C1020 H1006 0.960 . S
C1020 H1007 0.960 . S
C1020 C1019 1.524 . S
C1021 C1018 1.403 . S
C1021 C1022 1.392 . S
C1021 C1025 1.495 . S
C1022 C1021 1.392 . S
C1022 C1023 1.385 . S
C1022 C1024 1.478 . S
C1023 H1017 0.930 . S
C1023 C1019 1.400 . S
C1023 C1022 1.385 . S
C1024 C1022 1.478 . S
C1024 C1026 1.381 . S
C1024 C1030 1.383 . S
C1025 C1021 1.495 . S
C1025 H1031 0.959 . S
C1025 H1032 0.961 . S
C1025 H1033 0.960 . S
C1026 C1024 1.381 . S
C1026 C1027 1.394 . S
C1026 H1034 0.930 . S
C1027 C1026 1.394 . S
C1027 C1028 1.383 . S
C1027 H1035 0.929 . S
C1028 C1027 1.383 . S
C1028 C1029 1.377 . S
C1029 H1013 0.930 . S
C1029 C1028 1.377 . S
C1029 C1030 1.379 . S
C1030 H1014 0.931 . S
C1030 C1024 1.383 . S
C1030 C1029 1.379 . S
H1031 C1025 0.959 . S
H1032 C1025 0.961 . S
H1033 C1025 0.960 . S
H1034 C1026 0.930 . S
H1035 C1027 0.929 . S
H1036 C1044 0.929 . S
H1037 C1046 0.930 . S
H1038 C1048 0.930 . S
H1039 C1051 0.929 . S
H1040 C1054 0.930 . S
H1041 C1056 0.960 . S
H1042 C1056 0.960 . S
H1043 C1056 0.960 . S
C1044 H1036 0.929 . S
C1044 C1045 1.377 . S
C1044 C1046 1.384 . S
C1045 C1044 1.377 . S
C1045 C1051 1.390 . S
C1046 H1037 0.930 . S
C1046 C1044 1.384 . S
C1046 C1047 1.372 . S
C1047 C1046 1.372 . S
C1047 C1048 1.400 . S
C1047 C1052 1.490 . S
C1048 H1038 0.930 . S
C1048 C1047 1.400 . S
C1048 C1051 1.386 . S
H1049 C1065 0.930 . S
H1050 C1066 0.931 . S
C1051 H1039 0.929 . S
C1051 C1045 1.390 . S
C1051 C1048 1.386 . S
C1052 C1047 1.490 . S
C1052 C1054 1.395 . S
C1052 C1055 1.403 . S
H1053 C1059 0.930 . S
C1054 H1040 0.930 . S
C1054 C1052 1.395 . S
C1054 C1057 1.403 . S
C1055 C1052 1.403 . S
C1055 C1056 1.524 . S
C1055 C1059 1.400 . S
C1056 H1041 0.960 . S
C1056 H1042 0.960 . S
C1056 H1043 0.960 . S
C1056 C1055 1.524 . S
C1057 C1054 1.403 . S
C1057 C1058 1.392 . S
C1057 C1061 1.495 . S
C1058 C1057 1.392 . S
C1058 C1059 1.385 . S
C1058 C1060 1.478 . S
C1059 H1053 0.930 . S
C1059 C1055 1.400 . S
C1059 C1058 1.385 . S
C1060 C1058 1.478 . S
C1060 C1062 1.381 . S
C1060 C1066 1.383 . S
C1061 C1057 1.495 . S
C1061 H1067 0.959 . S
C1061 H1068 0.961 . S
C1061 H1069 0.960 . S
C1062 C1060 1.381 . S
C1062 C1063 1.394 . S
C1062 H1070 0.930 . S
C1063 C1062 1.394 . S
C1063 C1064 1.383 . S
C1063 H1071 0.929 . S
C1064 C1063 1.383 . S
C1064 C1065 1.377 . S
C1065 H1049 0.930 . S
C1065 C1064 1.377 . S
C1065 C1066 1.379 . S
C1066 H1050 0.931 . S
C1066 C1060 1.383 . S
C1066 C1065 1.379 . S
H1067 C1061 0.959 . S
H1068 C1061 0.961 . S
H1069 C1061 0.960 . S
H1070 C1062 0.930 . S
H1071 C1063 0.929 . S
H1072 C1080 0.929 . S
H1073 C1082 0.930 . S
H1074 C1084 0.930 . S
H1075 C1087 0.929 . S
H1076 C1090 0.930 . S
H1077 C1092 0.960 . S
H1078 C1092 0.960 . S
H1079 C1092 0.960 . S
C1080 H1072 0.929 . S
C1080 C1081 1.377 . S
C1080 C1082 1.384 . S
C1081 C1080 1.377 . S
C1081 C1087 1.390 . S
C1082 H1073 0.930 . S
C1082 C1080 1.384 . S
C1082 C1083 1.372 . S
C1083 C1082 1.372 . S
C1083 C1084 1.400 . S
C1083 C1088 1.490 . S
C1084 H1074 0.930 . S
C1084 C1083 1.400 . S
C1084 C1087 1.386 . S
H1085 C1101 0.930 . S
H1086 C1102 0.931 . S
C1087 H1075 0.929 . S
C1087 C1081 1.390 . S
C1087 C1084 1.386 . S
C1088 C1083 1.490 . S
C1088 C1090 1.395 . S
C1088 C1091 1.403 . S
H1089 C1095 0.930 . S
C1090 H1076 0.930 . S
C1090 C1088 1.395 . S
C1090 C1093 1.403 . S
C1091 C1088 1.403 . S
C1091 C1092 1.524 . S
C1091 C1095 1.400 . S
C1092 H1077 0.960 . S
C1092 H1078 0.960 . S
C1092 H1079 0.960 . S
C1092 C1091 1.524 . S
C1093 C1090 1.403 . S
C1093 C1094 1.392 . S
C1093 C1097 1.495 . S
C1094 C1093 1.392 . S
C1094 C1095 1.385 . S
C1094 C1096 1.478 . S
C1095 H1089 0.930 . S
C1095 C1091 1.400 . S
C1095 C1094 1.385 . S
C1096 C1094 1.478 . S
C1096 C1098 1.381 . S
C1096 C1102 1.383 . S
C1097 C1093 1.495 . S
C1097 H1103 0.959 . S
C1097 H1104 0.961 . S
C1097 H1105 0.960 . S
C1098 C1096 1.381 . S
C1098 C1099 1.394 . S
C1098 H1106 0.930 . S
C1099 C1098 1.394 . S
C1099 C1100 1.383 . S
C1099 H1107 0.929 . S
C1100 C1099 1.383 . S
C1100 C1101 1.377 . S
C1101 H1085 0.930 . S
C1101 C1100 1.377 . S
C1101 C1102 1.379 . S
C1102 H1086 0.931 . S
C1102 C1096 1.383 . S
C1102 C1101 1.379 . S
H1103 C1097 0.959 . S
H1104 C1097 0.961 . S
H1105 C1097 0.960 . S
H1106 C1098 0.930 . S
H1107 C1099 0.929 . S
H1108 C1116 0.929 . S
H1109 C1118 0.930 . S
H1110 C1120 0.930 . S
H1111 C1123 0.929 . S
H1112 C1126 0.930 . S
H1113 C1128 0.960 . S
H1114 C1128 0.960 . S
H1115 C1128 0.960 . S
C1116 H1108 0.929 . S
C1116 C1117 1.377 . S
C1116 C1118 1.384 . S
C1117 C1116 1.377 . S
C1117 C1123 1.390 . S
C1118 H1109 0.930 . S
C1118 C1116 1.384 . S
C1118 C1119 1.372 . S
C1119 C1118 1.372 . S
C1119 C1120 1.400 . S
C1119 C1124 1.490 . S
C1120 H1110 0.930 . S
C1120 C1119 1.400 . S
C1120 C1123 1.386 . S
H1121 C1137 0.930 . S
H1122 C1138 0.931 . S
C1123 H1111 0.929 . S
C1123 C1117 1.390 . S
C1123 C1120 1.386 . S
C1124 C1119 1.490 . S
C1124 C1126 1.395 . S
C1124 C1127 1.403 . S
H1125 C1131 0.930 . S
C1126 H1112 0.930 . S
C1126 C1124 1.395 . S
C1126 C1129 1.403 . S
C1127 C1124 1.403 . S
C1127 C1128 1.524 . S
C1127 C1131 1.400 . S
C1128 H1113 0.960 . S
C1128 H1114 0.960 . S
C1128 H1115 0.960 . S
C1128 C1127 1.524 . S
C1129 C1126 1.403 . S
C1129 C1130 1.392 . S
C1129 C1133 1.495 . S
C1130 C1129 1.392 . S
C1130 C1131 1.385 . S
C1130 C1132 1.478 . S
C1131 H1125 0.930 . S
C1131 C1127 1.400 . S
C1131 C1130 1.385 . S
C1132 C1130 1.478 . S
C1132 C1134 1.381 . S
C1132 C1138 1.383 . S
C1133 C1129 1.495 . S
C1133 H1139 0.959 . S
C1133 H1140 0.961 . S
C1133 H1141 0.960 . S
C1134 C1132 1.381 . S
C1134 C1135 1.394 . S
C1134 H1142 0.930 . S
C1135 C1134 1.394 . S
C1135 C1136 1.383 . S
C1135 H1143 0.929 . S
C1136 C1135 1.383 . S
C1136 C1137 1.377 . S
C1137 H1121 0.930 . S
C1137 C1136 1.377 . S
C1137 C1138 1.379 . S
C1138 H1122 0.931 . S
C1138 C1132 1.383 . S
C1138 C1137 1.379 . S
H1139 C1133 0.959 . S
H1140 C1133 0.961 . S
H1141 C1133 0.960 . S
H1142 C1134 0.930 . S
H1143 C1135 0.929 . S
H1144 C1152 0.929 . S
H1145 C1154 0.930 . S
H1146 C1156 0.930 . S
H1147 C1159 0.929 . S
H1148 C1162 0.930 . S
H1149 C1164 0.960 . S
H1150 C1164 0.960 . S
H1151 C1164 0.960 . S
C1152 H1144 0.929 . S
C1152 C1153 1.377 . S
C1152 C1154 1.384 . S
C1153 C1152 1.377 . S
C1153 C1159 1.390 . S
C1154 H1145 0.930 . S
C1154 C1152 1.384 . S
C1154 C1155 1.372 . S
C1155 C1154 1.372 . S
C1155 C1156 1.400 . S
C1155 C1160 1.490 . S
C1156 H1146 0.930 . S
C1156 C1155 1.400 . S
C1156 C1159 1.386 . S
H1157 C1173 0.930 . S
H1158 C1174 0.931 . S
C1159 H1147 0.929 . S
C1159 C1153 1.390 . S
C1159 C1156 1.386 . S
C1160 C1155 1.490 . S
C1160 C1162 1.395 . S
C1160 C1163 1.403 . S
H1161 C1167 0.930 . S
C1162 H1148 0.930 . S
C1162 C1160 1.395 . S
C1162 C1165 1.403 . S
C1163 C1160 1.403 . S
C1163 C1164 1.524 . S
C1163 C1167 1.400 . S
C1164 H1149 0.960 . S
C1164 H1150 0.960 . S
C1164 H1151 0.960 . S
C1164 C1163 1.524 . S
C1165 C1162 1.403 . S
C1165 C1166 1.392 . S
C1165 C1169 1.495 . S
C1166 C1165 1.392 . S
C1166 C1167 1.385 . S
C1166 C1168 1.478 . S
C1167 H1161 0.930 . S
C1167 C1163 1.400 . S
C1167 C1166 1.385 . S
C1168 C1166 1.478 . S
C1168 C1170 1.381 . S
C1168 C1174 1.383 . S
C1169 C1165 1.495 . S
C1169 H1175 0.959 . S
C1169 H1176 0.961 . S
C1169 H1177 0.960 . S
C1170 C1168 1.381 . S
C1170 C1171 1.394 . S
C1170 H1178 0.930 . S
C1171 C1170 1.394 . S
C1171 C1172 1.383 . S
C1171 H1179 0.929 . S
C1172 C1171 1.383 . S
C1172 C1173 1.377 . S
C1173 H1157 0.930 . S
C1173 C1172 1.377 . S
C1173 C1174 1.379 . S
C1174 H1158 0.931 . S
C1174 C1168 1.383 . S
C1174 C1173 1.379 . S
H1175 C1169 0.959 . S
H1176 C1169 0.961 . S
H1177 C1169 0.960 . S
H1178 C1170 0.930 . S
H1179 C1171 0.929 . S
H1180 C1188 0.929 . S
H1181 C1190 0.930 . S
H1182 C1192 0.930 . S
H1183 C1195 0.929 . S
H1184 C1198 0.930 . S
H1185 C1200 0.960 . S
H1186 C1200 0.960 . S
H1187 C1200 0.960 . S
C1188 H1180 0.929 . S
C1188 C1189 1.377 . S
C1188 C1190 1.384 . S
C1189 C1188 1.377 . S
C1189 C1195 1.390 . S
C1190 H1181 0.930 . S
C1190 C1188 1.384 . S
C1190 C1191 1.372 . S
C1191 C1190 1.372 . S
C1191 C1192 1.400 . S
C1191 C1196 1.490 . S
C1192 H1182 0.930 . S
C1192 C1191 1.400 . S
C1192 C1195 1.386 . S
H1193 C1209 0.930 . S
H1194 C1210 0.931 . S
C1195 H1183 0.929 . S
C1195 C1189 1.390 . S
C1195 C1192 1.386 . S
C1196 C1191 1.490 . S
C1196 C1198 1.395 . S
C1196 C1199 1.403 . S
H1197 C1203 0.930 . S
C1198 H1184 0.930 . S
C1198 C1196 1.395 . S
C1198 C1201 1.403 . S
C1199 C1196 1.403 . S
C1199 C1200 1.524 . S
C1199 C1203 1.400 . S
C1200 H1185 0.960 . S
C1200 H1186 0.960 . S
C1200 H1187 0.960 . S
C1200 C1199 1.524 . S
C1201 C1198 1.403 . S
C1201 C1202 1.392 . S
C1201 C1205 1.495 . S
C1202 C1201 1.392 . S
C1202 C1203 1.385 . S
C1202 C1204 1.478 . S
C1203 H1197 0.930 . S
C1203 C1199 1.400 . S
C1203 C1202 1.385 . S
C1204 C1202 1.478 . S
C1204 C1206 1.381 . S
C1204 C1210 1.383 . S
C1205 C1201 1.495 . S
C1205 H1211 0.959 . S
C1205 H1212 0.961 . S
C1205 H1213 0.960 . S
C1206 C1204 1.381 . S
C1206 C1207 1.394 . S
C1206 H1214 0.930 . S
C1207 C1206 1.394 . S
C1207 C1208 1.383 . S
C1207 H1215 0.929 . S
C1208 C1207 1.383 . S
C1208 C1209 1.377 . S
C1209 H1193 0.930 . S
C1209 C1208 1.377 . S
C1209 C1210 1.379 . S
C1210 H1194 0.931 . S
C1210 C1204 1.383 . S
C1210 C1209 1.379 . S
H1211 C1205 0.959 . S
H1212 C1205 0.961 . S
H1213 C1205 0.960 . S
H1214 C1206 0.930 . S
H1215 C1207 0.929 . S
H1216 C1224 0.929 . S
H1217 C1226 0.930 . S
H1218 C1228 0.930 . S
H1219 C1231 0.929 . S
H1220 C1234 0.930 . S
H1221 C1236 0.960 . S
H1222 C1236 0.960 . S
H1223 C1236 0.960 . S
C1224 H1216 0.929 . S
C1224 C1225 1.377 . S
C1224 C1226 1.384 . S
C1225 C1224 1.377 . S
C1225 C1231 1.390 . S
C1226 H1217 0.930 . S
C1226 C1224 1.384 . S
C1226 C1227 1.372 . S
C1227 C1226 1.372 . S
C1227 C1228 1.400 . S
C1227 C1232 1.490 . S
C1228 H1218 0.930 . S
C1228 C1227 1.400 . S
C1228 C1231 1.386 . S
H1229 C1245 0.930 . S
H1230 C1246 0.931 . S
C1231 H1219 0.929 . S
C1231 C1225 1.390 . S
C1231 C1228 1.386 . S
C1232 C1227 1.490 . S
C1232 C1234 1.395 . S
C1232 C1235 1.403 . S
H1233 C1239 0.930 . S
C1234 H1220 0.930 . S
C1234 C1232 1.395 . S
C1234 C1237 1.403 . S
C1235 C1232 1.403 . S
C1235 C1236 1.524 . S
C1235 C1239 1.400 . S
C1236 H1221 0.960 . S
C1236 H1222 0.960 . S
C1236 H1223 0.960 . S
C1236 C1235 1.524 . S
C1237 C1234 1.403 . S
C1237 C1238 1.392 . S
C1237 C1241 1.495 . S
C1238 C1237 1.392 . S
C1238 C1239 1.385 . S
C1238 C1240 1.478 . S
C1239 H1233 0.930 . S
C1239 C1235 1.400 . S
C1239 C1238 1.385 . S
C1240 C1238 1.478 . S
C1240 C1242 1.381 . S
C1240 C1246 1.383 . S
C1241 C1237 1.495 . S
C1241 H1247 0.959 . S
C1241 H1248 0.961 . S
C1241 H1249 0.960 . S
C1242 C1240 1.381 . S
C1242 C1243 1.394 . S
C1242 H1250 0.930 . S
C1243 C1242 1.394 . S
C1243 C1244 1.383 . S
C1243 H1251 0.929 . S
C1244 C1243 1.383 . S
C1244 C1245 1.377 . S
C1245 H1229 0.930 . S
C1245 C1244 1.377 . S
C1245 C1246 1.379 . S
C1246 H1230 0.931 . S
C1246 C1240 1.383 . S
C1246 C1245 1.379 . S
H1247 C1241 0.959 . S
H1248 C1241 0.961 . S
H1249 C1241 0.960 . S
H1250 C1242 0.930 . S
H1251 C1243 0.929 . S
H1252 C1260 0.929 . S
H1253 C1262 0.930 . S
H1254 C1264 0.930 . S
H1255 C1267 0.929 . S
H1256 C1270 0.930 . S
H1257 C1272 0.960 . S
H1258 C1272 0.960 . S
H1259 C1272 0.960 . S
C1260 H1252 0.929 . S
C1260 C1261 1.377 . S
C1260 C1262 1.384 . S
C1261 C1260 1.377 . S
C1261 C1267 1.390 . S
C1262 H1253 0.930 . S
C1262 C1260 1.384 . S
C1262 C1263 1.372 . S
C1263 C1262 1.372 . S
C1263 C1264 1.400 . S
C1263 C1268 1.490 . S
C1264 H1254 0.930 . S
C1264 C1263 1.400 . S
C1264 C1267 1.386 . S
H1265 C1281 0.930 . S
H1266 C1282 0.931 . S
C1267 H1255 0.929 . S
C1267 C1261 1.390 . S
C1267 C1264 1.386 . S
C1268 C1263 1.490 . S
C1268 C1270 1.395 . S
C1268 C1271 1.403 . S
H1269 C1275 0.930 . S
C1270 H1256 0.930 . S
C1270 C1268 1.395 . S
C1270 C1273 1.403 . S
C1271 C1268 1.403 . S
C1271 C1272 1.524 . S
C1271 C1275 1.400 . S
C1272 H1257 0.960 . S
C1272 H1258 0.960 . S
C1272 H1259 0.960 . S
C1272 C1271 1.524 . S
C1273 C1270 1.403 . S
C1273 C1274 1.392 . S
C1273 C1277 1.495 . S
C1274 C1273 1.392 . S
C1274 C1275 1.385 . S
C1274 C1276 1.478 . S
C1275 H1269 0.930 . S
C1275 C1271 1.400 . S
C1275 C1274 1.385 . S
C1276 C1274 1.478 . S
C1276 C1278 1.381 . S
C1276 C1282 1.383 . S
C1277 C1273 1.495 . S
C1277 H1283 0.959 . S
C1277 H1284 0.961 . S
C1277 H1285 0.960 . S
C1278 C1276 1.381 . S
C1278 C1279 1.394 . S
C1278 H1286 0.930 . S
C1279 C1278 1.394 . S
C1279 C1280 1.383 . S
C1279 H1287 0.929 . S
C1280 C1279 1.383 . S
C1280 C1281 1.377 . S
C1281 H1265 0.930 . S
C1281 C1280 1.377 . S
C1281 C1282 1.379 . S
C1282 H1266 0.931 . S
C1282 C1276 1.383 . S
C1282 C1281 1.379 . S
H1283 C1277 0.959 . S
H1284 C1277 0.961 . S
H1285 C1277 0.960 . S
H1286 C1278 0.930 . S
H1287 C1279 0.929 . S
H1288 C1296 0.929 . S
H1289 C1298 0.930 . S
H1290 C1300 0.930 . S
H1291 C1303 0.929 . S
H1292 C1306 0.930 . S
H1293 C1308 0.960 . S
H1294 C1308 0.960 . S
H1295 C1308 0.960 . S
C1296 H1288 0.929 . S
C1296 C1297 1.377 . S
C1296 C1298 1.384 . S
C1297 C1296 1.377 . S
C1297 C1303 1.390 . S
C1298 H1289 0.930 . S
C1298 C1296 1.384 . S
C1298 C1299 1.372 . S
C1299 C1298 1.372 . S
C1299 C1300 1.400 . S
C1299 C1304 1.490 . S
C1300 H1290 0.930 . S
C1300 C1299 1.400 . S
C1300 C1303 1.386 . S
H1301 C1317 0.930 . S
H1302 C1318 0.931 . S
C1303 H1291 0.929 . S
C1303 C1297 1.390 . S
C1303 C1300 1.386 . S
C1304 C1299 1.490 . S
C1304 C1306 1.395 . S
C1304 C1307 1.403 . S
H1305 C1311 0.930 . S
C1306 H1292 0.930 . S
C1306 C1304 1.395 . S
C1306 C1309 1.403 . S
C1307 C1304 1.403 . S
C1307 C1308 1.524 . S
C1307 C1311 1.400 . S
C1308 H1293 0.960 . S
C1308 H1294 0.960 . S
C1308 H1295 0.960 . S
C1308 C1307 1.524 . S
C1309 C1306 1.403 . S
C1309 C1310 1.392 . S
C1309 C1313 1.495 . S
C1310 C1309 1.392 . S
C1310 C1311 1.385 . S
C1310 C1312 1.478 . S
C1311 H1305 0.930 . S
C1311 C1307 1.400 . S
C1311 C1310 1.385 . S
C1312 C1310 1.478 . S
C1312 C1314 1.381 . S
C1312 C1318 1.383 . S
C1313 C1309 1.495 . S
C1313 H1319 0.959 . S
C1313 H1320 0.961 . S
C1313 H1321 0.960 . S
C1314 C1312 1.381 . S
C1314 C1315 1.394 . S
C1314 H1322 0.930 . S
C1315 C1314 1.394 . S
C1315 C1316 1.383 . S
C1315 H1323 0.929 . S
C1316 C1315 1.383 . S
C1316 C1317 1.377 . S
C1317 H1301 0.930 . S
C1317 C1316 1.377 . S
C1317 C1318 1.379 . S
C1318 H1302 0.931 . S
C1318 C1312 1.383 . S
C1318 C1317 1.379 . S
H1319 C1313 0.959 . S
H1320 C1313 0.961 . S
H1321 C1313 0.960 . S
H1322 C1314 0.930 . S
H1323 C1315 0.929 . S
H1324 C1332 0.929 . S
H1325 C1334 0.930 . S
H1326 C1336 0.930 . S
H1327 C1339 0.929 . S
H1328 C1342 0.930 . S
H1329 C1344 0.960 . S
H1330 C1344 0.960 . S
H1331 C1344 0.960 . S
C1332 H1324 0.929 . S
C1332 C1333 1.377 . S
C1332 C1334 1.384 . S
C1333 C1332 1.377 . S
C1333 C1339 1.390 . S
C1334 H1325 0.930 . S
C1334 C1332 1.384 . S
C1334 C1335 1.372 . S
C1335 C1334 1.372 . S
C1335 C1336 1.400 . S
C1335 C1340 1.490 . S
C1336 H1326 0.930 . S
C1336 C1335 1.400 . S
C1336 C1339 1.386 . S
H1337 C1353 0.930 . S
H1338 C1354 0.931 . S
C1339 H1327 0.929 . S
C1339 C1333 1.390 . S
C1339 C1336 1.386 . S
C1340 C1335 1.490 . S
C1340 C1342 1.395 . S
C1340 C1343 1.403 . S
H1341 C1347 0.930 . S
C1342 H1328 0.930 . S
C1342 C1340 1.395 . S
C1342 C1345 1.403 . S
C1343 C1340 1.403 . S
C1343 C1344 1.524 . S
C1343 C1347 1.400 . S
C1344 H1329 0.960 . S
C1344 H1330 0.960 . S
C1344 H1331 0.960 . S
C1344 C1343 1.524 . S
C1345 C1342 1.403 . S
C1345 C1346 1.392 . S
C1345 C1349 1.495 . S
C1346 C1345 1.392 . S
C1346 C1347 1.385 . S
C1346 C1348 1.478 . S
C1347 H1341 0.930 . S
C1347 C1343 1.400 . S
C1347 C1346 1.385 . S
C1348 C1346 1.478 . S
C1348 C1350 1.381 . S
C1348 C1354 1.383 . S
C1349 C1345 1.495 . S
C1349 H1355 0.959 . S
C1349 H1356 0.961 . S
C1349 H1357 0.960 . S
C1350 C1348 1.381 . S
C1350 C1351 1.394 . S
C1350 H1358 0.930 . S
C1351 C1350 1.394 . S
C1351 C1352 1.383 . S
C1351 H1359 0.929 . S
C1352 C1351 1.383 . S
C1352 C1353 1.377 . S
C1353 H1337 0.930 . S
C1353 C1352 1.377 . S
C1353 C1354 1.379 . S
C1354 H1338 0.931 . S
C1354 C1348 1.383 . S
C1354 C1353 1.379 . S
H1355 C1349 0.959 . S
H1356 C1349 0.961 . S
H1357 C1349 0.960 . S
H1358 C1350 0.930 . S
H1359 C1351 0.929 . S
H1360 C1368 0.929 . S
H1361 C1370 0.930 . S
H1362 C1372 0.930 . S
H1363 C1375 0.929 . S
H1364 C1378 0.930 . S
H1365 C1380 0.960 . S
H1366 C1380 0.960 . S
H1367 C1380 0.960 . S
C1368 H1360 0.929 . S
C1368 C1369 1.377 . S
C1368 C1370 1.384 . S
C1369 C1368 1.377 . S
C1369 C1375 1.390 . S
C1370 H1361 0.930 . S
C1370 C1368 1.384 . S
C1370 C1371 1.372 . S
C1371 C1370 1.372 . S
C1371 C1372 1.400 . S
C1371 C1376 1.490 . S
C1372 H1362 0.930 . S
C1372 C1371 1.400 . S
C1372 C1375 1.386 . S
H1373 C1389 0.930 . S
H1374 C1390 0.931 . S
C1375 H1363 0.929 . S
C1375 C1369 1.390 . S
C1375 C1372 1.386 . S
C1376 C1371 1.490 . S
C1376 C1378 1.395 . S
C1376 C1379 1.403 1_545 S
H1377 C1383 0.930 . S
C1378 H1364 0.930 . S
C1378 C1376 1.395 . S
C1378 C1381 1.403 . S
C1379 C1376 1.403 1_565 S
C1379 C1380 1.524 . S
C1379 C1383 1.400 . S
C1380 H1365 0.960 . S
C1380 H1366 0.960 . S
C1380 H1367 0.960 . S
C1380 C1379 1.524 . S
C1381 C1378 1.403 . S
C1381 C1382 1.392 1_545 S
C1381 C1385 1.495 . S
C1382 C1381 1.392 1_565 S
C1382 C1383 1.385 . S
C1382 C1384 1.478 . S
C1383 H1377 0.930 . S
C1383 C1379 1.400 . S
C1383 C1382 1.385 . S
C1384 C1382 1.478 . S
C1384 C1386 1.381 . S
C1384 C1390 1.383 . S
C1385 C1381 1.495 . S
C1385 H1391 0.959 . S
C1385 H1392 0.961 . S
C1385 H1393 0.960 . S
C1386 C1384 1.381 . S
C1386 C1387 1.394 . S
C1386 H1394 0.930 . S
C1387 C1386 1.394 . S
C1387 C1388 1.383 . S
C1387 H1395 0.929 . S
C1388 C1387 1.383 . S
C1388 C1389 1.377 . S
C1389 H1373 0.930 . S
C1389 C1388 1.377 . S
C1389 C1390 1.379 . S
C1390 H1374 0.931 . S
C1390 C1384 1.383 . S
C1390 C1389 1.379 . S
H1391 C1385 0.959 . S
H1392 C1385 0.961 . S
H1393 C1385 0.960 . S
H1394 C1386 0.930 . S
H1395 C1387 0.929 . S
H1396 C1404 0.929 . S
H1397 C1406 0.930 . S
H1398 C1408 0.930 . S
H1399 C1411 0.929 . S
H1400 C1414 0.930 . S
H1401 C1416 0.960 . S
H1402 C1416 0.960 . S
H1403 C1416 0.960 . S
C1404 H1396 0.929 . S
C1404 C1405 1.377 . S
C1404 C1406 1.384 . S
C1405 C1404 1.377 . S
C1405 C1411 1.390 . S
C1406 H1397 0.930 . S
C1406 C1404 1.384 . S
C1406 C1407 1.372 . S
C1407 C1406 1.372 . S
C1407 C1408 1.400 . S
C1407 C1412 1.490 . S
C1408 H1398 0.930 . S
C1408 C1407 1.400 . S
C1408 C1411 1.386 . S
H1409 C1425 0.930 . S
H1410 C1426 0.931 . S
C1411 H1399 0.929 . S
C1411 C1405 1.390 . S
C1411 C1408 1.386 . S
C1412 C1407 1.490 . S
C1412 C1414 1.395 . S
C1412 C1415 1.403 1_545 S
H1413 C1419 0.930 . S
C1414 H1400 0.930 . S
C1414 C1412 1.395 . S
C1414 C1417 1.403 . S
C1415 C1412 1.403 1_565 S
C1415 C1416 1.524 . S
C1415 C1419 1.400 . S
C1416 H1401 0.960 . S
C1416 H1402 0.960 . S
C1416 H1403 0.960 . S
C1416 C1415 1.524 . S
C1417 C1414 1.403 . S
C1417 C1418 1.392 1_545 S
C1417 C1421 1.495 . S
C1418 C1417 1.392 1_565 S
C1418 C1419 1.385 . S
C1418 C1420 1.478 . S
C1419 H1413 0.930 . S
C1419 C1415 1.400 . S
C1419 C1418 1.385 . S
C1420 C1418 1.478 . S
C1420 C1422 1.381 . S
C1420 C1426 1.383 . S
C1421 C1417 1.495 . S
C1421 H1427 0.959 . S
C1421 H1428 0.961 . S
C1421 H1429 0.960 . S
C1422 C1420 1.381 . S
C1422 C1423 1.394 . S
C1422 H1430 0.930 . S
C1423 C1422 1.394 . S
C1423 C1424 1.383 . S
C1423 H1431 0.929 . S
C1424 C1423 1.383 . S
C1424 C1425 1.377 . S
C1425 H1409 0.930 . S
C1425 C1424 1.377 . S
C1425 C1426 1.379 . S
C1426 H1410 0.931 . S
C1426 C1420 1.383 . S
C1426 C1425 1.379 . S
H1427 C1421 0.959 . S
H1428 C1421 0.961 . S
H1429 C1421 0.960 . S
H1430 C1422 0.930 . S
H1431 C1423 0.929 . S
H1432 C1440 0.929 . S
H1433 C1442 0.930 . S
H1434 C1444 0.930 . S
H1435 C1447 0.929 . S
H1436 C1450 0.930 . S
H1437 C1452 0.960 . S
H1438 C1452 0.960 . S
H1439 C1452 0.960 . S
C1440 H1432 0.929 . S
C1440 C1441 1.377 . S
C1440 C1442 1.384 . S
C1441 C1440 1.377 . S
C1441 C1447 1.390 . S
C1442 H1433 0.930 . S
C1442 C1440 1.384 . S
C1442 C1443 1.372 . S
C1443 C1442 1.372 . S
C1443 C1444 1.400 . S
C1443 C1448 1.490 . S
C1444 H1434 0.930 . S
C1444 C1443 1.400 . S
C1444 C1447 1.386 . S
H1445 C1461 0.930 . S
H1446 C1462 0.931 . S
C1447 H1435 0.929 . S
C1447 C1441 1.390 . S
C1447 C1444 1.386 . S
C1448 C1443 1.490 . S
C1448 C1450 1.395 1_565 S
C1448 C1451 1.403 . S
H1449 C1455 0.930 . S
C1450 H1436 0.930 . S
C1450 C1448 1.395 1_545 S
C1450 C1453 1.403 . S
C1451 C1448 1.403 . S
C1451 C1452 1.524 . S
C1451 C1455 1.400 . S
C1452 H1437 0.960 . S
C1452 H1438 0.960 . S
C1452 H1439 0.960 . S
C1452 C1451 1.524 . S
C1453 C1450 1.403 . S
C1453 C1454 1.392 . S
C1453 C1457 1.495 . S
C1454 C1453 1.392 . S
C1454 C1455 1.385 1_545 S
C1454 C1456 1.478 . S
C1455 H1449 0.930 . S
C1455 C1451 1.400 . S
C1455 C1454 1.385 1_565 S
C1456 C1454 1.478 . S
C1456 C1458 1.381 . S
C1456 C1462 1.383 . S
C1457 C1453 1.495 . S
C1457 H1463 0.959 . S
C1457 H1464 0.961 . S
C1457 H1465 0.960 . S
C1458 C1456 1.381 . S
C1458 C1459 1.394 . S
C1458 H1466 0.930 . S
C1459 C1458 1.394 . S
C1459 C1460 1.383 . S
C1459 H1467 0.929 . S
C1460 C1459 1.383 . S
C1460 C1461 1.377 . S
C1461 H1445 0.930 . S
C1461 C1460 1.377 . S
C1461 C1462 1.379 . S
C1462 H1446 0.931 . S
C1462 C1456 1.383 . S
C1462 C1461 1.379 . S
H1463 C1457 0.959 . S
H1464 C1457 0.961 . S
H1465 C1457 0.960 . S
H1466 C1458 0.930 . S
H1467 C1459 0.929 . S
H1468 C1476 0.929 . S
H1469 C1478 0.930 . S
H1470 C1480 0.930 . S
H1471 C1483 0.929 . S
H1472 C1486 0.930 . S
H1473 C1488 0.960 . S
H1474 C1488 0.960 . S
H1475 C1488 0.960 . S
C1476 H1468 0.929 . S
C1476 C1477 1.377 . S
C1476 C1478 1.384 . S
C1477 C1476 1.377 . S
C1477 C1483 1.390 . S
C1478 H1469 0.930 . S
C1478 C1476 1.384 . S
C1478 C1479 1.372 . S
C1479 C1478 1.372 . S
C1479 C1480 1.400 . S
C1479 C1484 1.490 . S
C1480 H1470 0.930 . S
C1480 C1479 1.400 . S
C1480 C1483 1.386 . S
H1481 C1497 0.930 . S
H1482 C1498 0.931 . S
C1483 H1471 0.929 . S
C1483 C1477 1.390 . S
C1483 C1480 1.386 . S
C1484 C1479 1.490 . S
C1484 C1486 1.395 1_565 S
C1484 C1487 1.403 . S
H1485 C1491 0.930 . S
C1486 H1472 0.930 . S
C1486 C1484 1.395 1_545 S
C1486 C1489 1.403 . S
C1487 C1484 1.403 . S
C1487 C1488 1.524 . S
C1487 C1491 1.400 . S
C1488 H1473 0.960 . S
C1488 H1474 0.960 . S
C1488 H1475 0.960 . S
C1488 C1487 1.524 . S
C1489 C1486 1.403 . S
C1489 C1490 1.392 . S
C1489 C1493 1.495 . S
C1490 C1489 1.392 . S
C1490 C1491 1.385 1_545 S
C1490 C1492 1.478 . S
C1491 H1485 0.930 . S
C1491 C1487 1.400 . S
C1491 C1490 1.385 1_565 S
C1492 C1490 1.478 . S
C1492 C1494 1.381 . S
C1492 C1498 1.383 . S
C1493 C1489 1.495 . S
C1493 H1499 0.959 . S
C1493 H1500 0.961 . S
C1493 H1501 0.960 . S
C1494 C1492 1.381 . S
C1494 C1495 1.394 . S
C1494 H1502 0.930 . S
C1495 C1494 1.394 . S
C1495 C1496 1.383 . S
C1495 H1503 0.929 . S
C1496 C1495 1.383 . S
C1496 C1497 1.377 . S
C1497 H1481 0.930 . S
C1497 C1496 1.377 . S
C1497 C1498 1.379 . S
C1498 H1482 0.931 . S
C1498 C1492 1.383 . S
C1498 C1497 1.379 . S
H1499 C1493 0.959 . S
H1500 C1493 0.961 . S
H1501 C1493 0.960 . S
H1502 C1494 0.930 . S
H1503 C1495 0.929 . S
H1504 C1512 0.929 . S
H1505 C1514 0.930 1_554 S
H1506 C1516 0.930 . S
H1507 C1519 0.929 . S
H1508 C1522 0.934 . S
H1509 C1524 0.960 . S
H1510 C1524 0.983 . S
H1511 C1524 0.960 . S
C1512 H1504 0.929 . S
C1512 C1513 1.377 . S
C1512 C1514 1.384 . S
C1513 C1512 1.377 . S
C1513 C1519 1.390 . S
C1514 H1505 0.930 1_556 S
C1514 C1512 1.384 . S
C1514 C1515 1.372 . S
C1515 C1514 1.372 . S
C1515 C1516 1.400 . S
C1515 C1520 1.490 . S
C1516 H1506 0.930 . S
C1516 C1515 1.400 . S
C1516 C1519 1.386 . S
H1517 C1533 0.930 . S
H1518 C1534 0.931 1_556 S
C1519 H1507 0.929 . S
C1519 C1513 1.390 . S
C1519 C1516 1.386 . S
C1520 C1515 1.490 . S
C1520 C1522 1.405 . S
C1520 C1523 1.403 . S
H1521 C1527 0.930 . S
C1522 H1508 0.934 . S
C1522 C1520 1.405 . S
C1522 C1525 1.391 1_556 S
C1523 C1520 1.403 . S
C1523 C1524 1.524 . S
C1523 C1527 1.400 1_556 S
C1524 H1509 0.960 . S
C1524 H1510 0.983 . S
C1524 H1511 0.960 . S
C1524 C1523 1.524 . S
C1525 C1522 1.391 1_554 S
C1525 C1526 1.392 . S
C1525 C1529 1.495 . S
C1526 C1525 1.392 . S
C1526 C1527 1.385 . S
C1526 C1528 1.478 . S
C1527 H1521 0.930 . S
C1527 C1523 1.400 1_554 S
C1527 C1526 1.385 . S
C1528 C1526 1.478 . S
C1528 C1530 1.381 . S
C1528 C1534 1.383 . S
C1529 C1525 1.495 . S
C1529 H1535 0.959 . S
C1529 H1536 0.961 . S
C1529 H1537 0.960 . S
C1530 C1528 1.381 . S
C1530 C1531 1.394 . S
C1530 H1538 0.930 . S
C1531 C1530 1.394 . S
C1531 C1532 1.383 . S
C1531 H1539 0.929 . S
C1532 C1531 1.383 . S
C1532 C1533 1.377 . S
C1533 H1517 0.930 . S
C1533 C1532 1.377 . S
C1533 C1534 1.379 . S
C1534 H1518 0.931 1_554 S
C1534 C1528 1.383 . S
C1534 C1533 1.379 . S
H1535 C1529 0.959 . S
H1536 C1529 0.961 . S
H1537 C1529 0.960 . S
H1538 C1530 0.930 . S
H1539 C1531 0.929 . S
H1540 C1548 0.929 . S
H1541 C1550 0.930 . S
H1542 C1552 0.930 1_556 S
H1543 C1555 0.929 . S
H1544 C1558 0.930 . S
H1545 C1560 0.960 . S
H1546 C1560 0.960 . S
H1547 C1560 0.960 . S
C1548 H1540 0.929 . S
C1548 C1549 1.377 . S
C1548 C1550 1.384 . S
C1549 C1548 1.377 . S
C1549 C1555 1.390 . S
C1550 H1541 0.930 . S
C1550 C1548 1.384 . S
C1550 C1551 1.372 . S
C1551 C1550 1.372 . S
C1551 C1552 1.400 . S
C1551 C1556 1.490 . S
C1552 H1542 0.930 1_554 S
C1552 C1551 1.400 . S
C1552 C1555 1.386 . S
H1553 C1569 0.930 . S
H1554 C1570 0.931 . S
C1555 H1543 0.929 . S
C1555 C1549 1.390 . S
C1555 C1552 1.386 . S
C1556 C1551 1.490 . S
C1556 C1558 1.395 . S
C1556 C1559 1.403 . S
H1557 C1563 0.930 . S
C1558 H1544 0.930 . S
C1558 C1556 1.395 . S
C1558 C1561 1.403 1_554 S
C1559 C1556 1.403 . S
C1559 C1560 1.524 . S
C1559 C1563 1.400 1_554 S
C1560 H1545 0.960 . S
C1560 H1546 0.960 . S
C1560 H1547 0.960 . S
C1560 C1559 1.524 . S
C1561 C1558 1.403 1_556 S
C1561 C1562 1.392 . S
C1561 C1565 1.495 . S
C1562 C1561 1.392 . S
C1562 C1563 1.385 . S
C1562 C1564 1.478 . S
C1563 H1557 0.930 . S
C1563 C1559 1.400 1_556 S
C1563 C1562 1.385 . S
C1564 C1562 1.478 . S
C1564 C1566 1.381 . S
C1564 C1570 1.383 . S
C1565 C1561 1.495 . S
C1565 H1571 0.959 . S
C1565 H1572 0.961 . S
C1565 H1573 0.960 1_556 S
C1566 C1564 1.381 . S
C1566 C1567 1.394 . S
C1566 H1574 0.930 1_556 S
C1567 C1566 1.394 . S
C1567 C1568 1.383 . S
C1567 H1575 0.929 . S
C1568 C1567 1.383 . S
C1568 C1569 1.377 . S
C1569 H1553 0.930 . S
C1569 C1568 1.377 . S
C1569 C1570 1.379 . S
C1570 H1554 0.931 . S
C1570 C1564 1.383 . S
C1570 C1569 1.379 . S
H1571 C1565 0.959 . S
H1572 C1565 0.961 . S
H1573 C1565 0.960 1_554 S
H1574 C1566 0.930 1_554 S
H1575 C1567 0.929 . S
H1576 C1584 0.929 . S
H1577 C1586 0.930 . S
H1578 C1588 0.930 . S
H1579 C1591 0.929 . S
H1580 C1594 0.930 . S
H1581 C1596 0.960 . S
H1582 C1596 0.960 . S
H1583 C1596 0.960 . S
C1584 H1576 0.929 . S
C1584 C1585 1.377 . S
C1584 C1586 1.384 . S
C1585 C1584 1.377 . S
C1585 C1591 1.390 . S
C1586 H1577 0.930 . S
C1586 C1584 1.384 . S
C1586 C1587 1.372 . S
C1587 C1586 1.372 . S
C1587 C1588 1.400 . S
C1587 C1592 1.490 . S
C1588 H1578 0.930 . S
C1588 C1587 1.400 . S
C1588 C1591 1.386 . S
H1589 C1605 0.930 . S
H1590 C1606 0.931 . S
C1591 H1579 0.929 . S
C1591 C1585 1.390 . S
C1591 C1588 1.386 . S
C1592 C1587 1.490 . S
C1592 C1594 1.395 . S
C1592 C1595 1.403 . S
H1593 C1599 0.930 . S
C1594 H1580 0.930 . S
C1594 C1592 1.395 . S
C1594 C1597 1.403 . S
C1595 C1592 1.403 . S
C1595 C1596 1.524 . S
C1595 C1599 1.400 . S
C1596 H1581 0.960 . S
C1596 H1582 0.960 . S
C1596 H1583 0.960 . S
C1596 C1595 1.524 . S
C1597 C1594 1.403 . S
C1597 C1598 1.392 . S
C1597 C1601 1.495 . S
C1598 C1597 1.392 . S
C1598 C1599 1.385 . S
C1598 C1600 1.478 . S
C1599 H1593 0.930 . S
C1599 C1595 1.400 . S
C1599 C1598 1.385 . S
C1600 C1598 1.478 . S
C1600 C1602 1.381 . S
C1600 C1606 1.383 . S
C1601 C1597 1.495 . S
C1601 H1607 0.959 . S
C1601 H1608 0.961 . S
C1601 H1609 0.960 . S
C1602 C1600 1.381 . S
C1602 C1603 1.394 . S
C1602 H1610 0.930 . S
C1603 C1602 1.394 . S
C1603 C1604 1.383 . S
C1603 H1611 0.929 . S
C1604 C1603 1.383 . S
C1604 C1605 1.377 . S
C1605 H1589 0.930 . S
C1605 C1604 1.377 . S
C1605 C1606 1.379 . S
C1606 H1590 0.931 . S
C1606 C1600 1.383 . S
C1606 C1605 1.379 . S
H1607 C1601 0.959 . S
H1608 C1601 0.961 . S
H1609 C1601 0.960 . S
H1610 C1602 0.930 . S
H1611 C1603 0.929 . S
H1612 C1620 0.929 . S
H1613 C1622 0.930 . S
H1614 C1624 0.930 . S
H1615 C1627 0.929 . S
H1616 C1630 0.930 . S
H1617 C1632 0.960 . S
H1618 C1632 0.960 . S
H1619 C1632 0.960 . S
C1620 H1612 0.929 . S
C1620 C1621 1.377 . S
C1620 C1622 1.384 . S
C1621 C1620 1.377 . S
C1621 C1627 1.390 . S
C1622 H1613 0.930 . S
C1622 C1620 1.384 . S
C1622 C1623 1.372 . S
C1623 C1622 1.372 . S
C1623 C1624 1.400 . S
C1623 C1628 1.490 . S
C1624 H1614 0.930 . S
C1624 C1623 1.400 . S
C1624 C1627 1.386 . S
H1625 C1641 0.930 . S
H1626 C1642 0.931 . S
C1627 H1615 0.929 . S
C1627 C1621 1.390 . S
C1627 C1624 1.386 . S
C1628 C1623 1.490 . S
C1628 C1630 1.395 . S
C1628 C1631 1.403 . S
H1629 C1635 0.930 . S
C1630 H1616 0.930 . S
C1630 C1628 1.395 . S
C1630 C1633 1.403 . S
C1631 C1628 1.403 . S
C1631 C1632 1.524 . S
C1631 C1635 1.400 . S
C1632 H1617 0.960 . S
C1632 H1618 0.960 . S
C1632 H1619 0.960 . S
C1632 C1631 1.524 . S
C1633 C1630 1.403 . S
C1633 C1634 1.392 . S
C1633 C1637 1.495 . S
C1634 C1633 1.392 . S
C1634 C1635 1.385 . S
C1634 C1636 1.478 . S
C1635 H1629 0.930 . S
C1635 C1631 1.400 . S
C1635 C1634 1.385 . S
C1636 C1634 1.478 . S
C1636 C1638 1.381 . S
C1636 C1642 1.383 . S
C1637 C1633 1.495 . S
C1637 H1643 0.959 . S
C1637 H1644 0.961 . S
C1637 H1645 0.960 . S
C1638 C1636 1.381 . S
C1638 C1639 1.394 . S
C1638 H1646 0.930 . S
C1639 C1638 1.394 . S
C1639 C1640 1.383 . S
C1639 H1647 0.929 . S
C1640 C1639 1.383 . S
C1640 C1641 1.377 . S
C1641 H1625 0.930 . S
C1641 C1640 1.377 . S
C1641 C1642 1.379 . S
C1642 H1626 0.931 . S
C1642 C1636 1.383 . S
C1642 C1641 1.379 . S
H1643 C1637 0.959 . S
H1644 C1637 0.961 . S
H1645 C1637 0.960 . S
H1646 C1638 0.930 . S
H1647 C1639 0.929 . S
H1648 C1656 0.929 . S
H1649 C1658 0.909 1_554 S
H1650 C1660 0.930 . S
H1651 C1663 0.929 . S
H1652 C1666 0.930 . S
H1653 C1668 0.960 . S
H1654 C1668 0.960 . S
H1655 C1668 0.960 . S
C1656 H1648 0.929 . S
C1656 C1657 1.377 . S
C1656 C1658 1.384 . S
C1657 C1656 1.377 . S
C1657 C1663 1.390 . S
C1658 H1649 0.909 1_556 S
C1658 C1656 1.384 . S
C1658 C1659 1.372 . S
C1659 C1658 1.372 . S
C1659 C1660 1.400 . S
C1659 C1664 1.490 . S
C1660 H1650 0.930 . S
C1660 C1659 1.400 . S
C1660 C1663 1.386 . S
H1661 C1677 0.930 . S
H1662 C1678 0.931 . S
C1663 H1651 0.929 . S
C1663 C1657 1.390 . S
C1663 C1660 1.386 . S
C1664 C1659 1.490 . S
C1664 C1666 1.395 1_556 S
C1664 C1667 1.403 . S
H1665 C1671 0.930 . S
C1666 H1652 0.930 . S
C1666 C1664 1.395 1_554 S
C1666 C1669 1.403 . S
C1667 C1664 1.403 . S
C1667 C1668 1.524 . S
C1667 C1671 1.400 . S
C1668 H1653 0.960 . S
C1668 H1654 0.960 . S
C1668 H1655 0.960 . S
C1668 C1667 1.524 . S
C1669 C1666 1.403 . S
C1669 C1670 1.392 . S
C1669 C1673 1.495 . S
C1670 C1669 1.392 . S
C1670 C1671 1.385 1_554 S
C1670 C1672 1.478 . S
C1671 H1665 0.930 . S
C1671 C1667 1.400 . S
C1671 C1670 1.385 1_556 S
C1672 C1670 1.478 . S
C1672 C1674 1.381 . S
C1672 C1678 1.383 . S
C1673 C1669 1.495 . S
C1673 H1679 0.959 . S
C1673 H1680 0.961 . S
C1673 H1681 0.960 . S
C1674 C1672 1.381 . S
C1674 C1675 1.394 . S
C1674 H1682 0.930 . S
C1675 C1674 1.394 . S
C1675 C1676 1.383 . S
C1675 H1683 0.929 . S
C1676 C1675 1.383 . S
C1676 C1677 1.377 . S
C1677 H1661 0.930 . S
C1677 C1676 1.377 . S
C1677 C1678 1.379 . S
C1678 H1662 0.931 . S
C1678 C1672 1.383 . S
C1678 C1677 1.379 . S
H1679 C1673 0.959 . S
H1680 C1673 0.961 . S
H1681 C1673 0.960 . S
H1682 C1674 0.930 . S
H1683 C1675 0.929 . S
H1684 C1692 0.929 . S
H1685 C1694 0.930 . S
H1686 C1696 0.930 . S
H1687 C1699 0.929 . S
H1688 C1702 0.930 . S
H1689 C1704 0.960 . S
H1690 C1704 0.960 . S
H1691 C1704 0.960 . S
C1692 H1684 0.929 . S
C1692 C1693 1.377 . S
C1692 C1694 1.384 . S
C1693 C1692 1.377 . S
C1693 C1699 1.390 . S
C1694 H1685 0.930 . S
C1694 C1692 1.384 . S
C1694 C1695 1.372 . S
C1695 C1694 1.372 . S
C1695 C1696 1.400 . S
C1695 C1700 1.490 . S
C1696 H1686 0.930 . S
C1696 C1695 1.400 . S
C1696 C1699 1.386 . S
H1697 C1713 0.930 . S
H1698 C1714 0.931 . S
C1699 H1687 0.929 . S
C1699 C1693 1.390 . S
C1699 C1696 1.386 . S
C1700 C1695 1.490 . S
C1700 C1702 1.395 . S
C1700 C1703 1.403 1_556 S
H1701 C1707 0.930 . S
C1702 H1688 0.930 . S
C1702 C1700 1.395 . S
C1702 C1705 1.403 . S
C1703 C1700 1.403 1_554 S
C1703 C1704 1.524 . S
C1703 C1707 1.400 . S
C1704 H1689 0.960 . S
C1704 H1690 0.960 . S
C1704 H1691 0.960 . S
C1704 C1703 1.524 . S
C1705 C1702 1.403 . S
C1705 C1706 1.392 1_556 S
C1705 C1709 1.495 . S
C1706 C1705 1.392 1_554 S
C1706 C1707 1.385 . S
C1706 C1708 1.478 . S
C1707 H1701 0.930 . S
C1707 C1703 1.400 . S
C1707 C1706 1.385 . S
C1708 C1706 1.478 . S
C1708 C1710 1.381 . S
C1708 C1714 1.383 . S
C1709 C1705 1.495 . S
C1709 H1715 0.959 . S
C1709 H1716 0.961 . S
C1709 H1717 0.960 . S
C1710 C1708 1.381 . S
C1710 C1711 1.394 . S
C1710 H1718 0.930 . S
C1711 C1710 1.394 . S
C1711 C1712 1.383 . S
C1711 H1719 0.929 . S
C1712 C1711 1.383 . S
C1712 C1713 1.377 . S
C1713 H1697 0.930 . S
C1713 C1712 1.377 . S
C1713 C1714 1.379 . S
C1714 H1698 0.931 . S
C1714 C1708 1.383 . S
C1714 C1713 1.379 . S
H1715 C1709 0.959 . S
H1716 C1709 0.961 . S
H1717 C1709 0.960 . S
H1718 C1710 0.930 . S
H1719 C1711 0.929 . S
H1720 C1728 0.929 . S
H1721 C1730 0.930 . S
H1722 C1732 0.930 . S
H1723 C1735 0.929 . S
H1724 C1738 0.930 . S
H1725 C1740 0.960 . S
H1726 C1740 0.960 . S
H1727 C1740 0.960 . S
C1728 H1720 0.929 . S
C1728 C1729 1.377 . S
C1728 C1730 1.384 . S
C1729 C1728 1.377 . S
C1729 C1735 1.390 . S
C1730 H1721 0.930 . S
C1730 C1728 1.384 . S
C1730 C1731 1.372 . S
C1731 C1730 1.372 . S
C1731 C1732 1.400 . S
C1731 C1736 1.490 . S
C1732 H1722 0.930 . S
C1732 C1731 1.400 . S
C1732 C1735 1.386 . S
H1733 C1749 0.930 . S
H1734 C1750 0.931 . S
C1735 H1723 0.929 . S
C1735 C1729 1.390 . S
C1735 C1732 1.386 . S
C1736 C1731 1.490 . S
C1736 C1738 1.395 . S
C1736 C1739 1.403 . S
H1737 C1743 0.930 . S
C1738 H1724 0.930 . S
C1738 C1736 1.395 . S
C1738 C1741 1.403 . S
C1739 C1736 1.403 . S
C1739 C1740 1.524 . S
C1739 C1743 1.400 . S
C1740 H1725 0.960 . S
C1740 H1726 0.960 . S
C1740 H1727 0.960 . S
C1740 C1739 1.524 . S
C1741 C1738 1.403 . S
C1741 C1742 1.392 . S
C1741 C1745 1.495 . S
C1742 C1741 1.392 . S
C1742 C1743 1.385 . S
C1742 C1744 1.478 . S
C1743 H1737 0.930 . S
C1743 C1739 1.400 . S
C1743 C1742 1.385 . S
C1744 C1742 1.478 . S
C1744 C1746 1.381 . S
C1744 C1750 1.383 . S
C1745 C1741 1.495 . S
C1745 H1751 0.959 . S
C1745 H1752 0.961 . S
C1745 H1753 0.960 . S
C1746 C1744 1.381 . S
C1746 C1747 1.394 . S
C1746 H1754 0.930 . S
C1747 C1746 1.394 . S
C1747 C1748 1.383 . S
C1747 H1755 0.929 . S
C1748 C1747 1.383 . S
C1748 C1749 1.377 . S
C1749 H1733 0.930 . S
C1749 C1748 1.377 . S
C1749 C1750 1.379 . S
C1750 H1734 0.931 . S
C1750 C1744 1.383 . S
C1750 C1749 1.379 . S
H1751 C1745 0.959 . S
H1752 C1745 0.961 . S
H1753 C1745 0.960 . S
H1754 C1746 0.930 . S
H1755 C1747 0.929 . S
H1756 C1764 0.929 . S
H1757 C1766 0.930 . S
H1758 C1768 0.930 . S
H1759 C1771 0.929 . S
H1760 C1774 0.930 . S
H1761 C1776 0.960 . S
H1762 C1776 0.960 . S
H1763 C1776 0.960 . S
C1764 H1756 0.929 . S
C1764 C1765 1.377 . S
C1764 C1766 1.384 . S
C1765 C1764 1.377 . S
C1765 C1771 1.390 . S
C1766 H1757 0.930 . S
C1766 C1764 1.384 . S
C1766 C1767 1.372 . S
C1767 C1766 1.372 . S
C1767 C1768 1.400 . S
C1767 C1772 1.490 . S
C1768 H1758 0.930 . S
C1768 C1767 1.400 . S
C1768 C1771 1.386 . S
H1769 C1785 0.930 . S
H1770 C1786 0.931 . S
C1771 H1759 0.929 . S
C1771 C1765 1.390 . S
C1771 C1768 1.386 . S
C1772 C1767 1.490 . S
C1772 C1774 1.395 . S
C1772 C1775 1.403 . S
H1773 C1779 0.930 . S
C1774 H1760 0.930 . S
C1774 C1772 1.395 . S
C1774 C1777 1.403 . S
C1775 C1772 1.403 . S
C1775 C1776 1.524 . S
C1775 C1779 1.400 . S
C1776 H1761 0.960 . S
C1776 H1762 0.960 . S
C1776 H1763 0.960 . S
C1776 C1775 1.524 . S
C1777 C1774 1.403 . S
C1777 C1778 1.392 . S
C1777 C1781 1.495 . S
C1778 C1777 1.392 . S
C1778 C1779 1.385 . S
C1778 C1780 1.478 . S
C1779 H1773 0.930 . S
C1779 C1775 1.400 . S
C1779 C1778 1.385 . S
C1780 C1778 1.478 . S
C1780 C1782 1.381 . S
C1780 C1786 1.383 . S
C1781 C1777 1.495 . S
C1781 H1787 0.959 . S
C1781 H1788 0.961 . S
C1781 H1789 0.960 . S
C1782 C1780 1.381 . S
C1782 C1783 1.394 . S
C1782 H1790 0.930 . S
C1783 C1782 1.394 . S
C1783 C1784 1.383 . S
C1783 H1791 0.929 . S
C1784 C1783 1.383 . S
C1784 C1785 1.377 . S
C1785 H1769 0.930 . S
C1785 C1784 1.377 . S
C1785 C1786 1.379 . S
C1786 H1770 0.931 . S
C1786 C1780 1.383 . S
C1786 C1785 1.379 . S
H1787 C1781 0.959 . S
H1788 C1781 0.961 . S
H1789 C1781 0.960 . S
H1790 C1782 0.930 . S
H1791 C1783 0.929 . S
H1792 C1800 0.929 . S
H1793 C1802 0.930 . S
H1794 C1804 0.930 . S
H1795 C1807 0.929 . S
H1796 C1810 0.930 . S
H1797 C1812 0.960 1_655 S
H1798 C1812 0.960 . S
H1799 C1812 0.960 . S
C1800 H1792 0.929 . S
C1800 C1801 1.377 . S
C1800 C1802 1.384 . S
C1801 C1800 1.377 . S
C1801 C1807 1.390 . S
C1802 H1793 0.930 . S
C1802 C1800 1.384 . S
C1802 C1803 1.372 . S
C1803 C1802 1.372 . S
C1803 C1804 1.400 . S
C1803 C1808 1.490 . S
C1804 H1794 0.930 . S
C1804 C1803 1.400 . S
C1804 C1807 1.386 . S
H1805 C1821 0.930 . S
H1806 C1822 0.931 . S
C1807 H1795 0.929 . S
C1807 C1801 1.390 . S
C1807 C1804 1.386 . S
C1808 C1803 1.490 . S
C1808 C1810 1.395 . S
C1808 C1811 1.403 . S
H1809 C1815 0.930 . S
C1810 H1796 0.930 . S
C1810 C1808 1.395 . S
C1810 C1813 1.403 1_455 S
C1811 C1808 1.403 . S
C1811 C1812 1.524 . S
C1811 C1815 1.400 1_455 S
C1812 H1797 0.960 1_455 S
C1812 H1798 0.960 . S
C1812 H1799 0.960 . S
C1812 C1811 1.524 . S
C1813 C1810 1.403 1_655 S
C1813 C1814 1.392 . S
C1813 C1817 1.495 . S
C1814 C1813 1.392 . S
C1814 C1815 1.385 . S
C1814 C1816 1.478 . S
C1815 H1809 0.930 . S
C1815 C1811 1.400 1_655 S
C1815 C1814 1.385 . S
C1816 C1814 1.478 . S
C1816 C1818 1.381 . S
C1816 C1822 1.383 . S
C1817 C1813 1.495 . S
C1817 H1823 0.959 1_655 S
C1817 H1824 0.961 . S
C1817 H1825 0.960 . S
C1818 C1816 1.381 . S
C1818 C1819 1.394 . S
C1818 H1826 0.930 . S
C1819 C1818 1.394 . S
C1819 C1820 1.383 . S
C1819 H1827 0.929 . S
C1820 C1819 1.383 . S
C1820 C1821 1.377 . S
C1821 H1805 0.930 . S
C1821 C1820 1.377 . S
C1821 C1822 1.379 . S
C1822 H1806 0.931 . S
C1822 C1816 1.383 . S
C1822 C1821 1.379 . S
H1823 C1817 0.959 1_455 S
H1824 C1817 0.961 . S
H1825 C1817 0.960 . S
H1826 C1818 0.930 . S
H1827 C1819 0.929 . S
H1828 C1836 0.929 . S
H1829 C1838 0.930 . S
H1830 C1840 0.930 . S
H1831 C1843 0.929 . S
H1832 C1846 0.930 . S
H1833 C1848 0.960 . S
H1834 C1848 0.960 . S
H1835 C1848 0.960 . S
C1836 H1828 0.929 . S
C1836 C1837 1.377 . S
C1836 C1838 1.384 . S
C1837 C1836 1.377 . S
C1837 C1843 1.390 . S
C1838 H1829 0.930 . S
C1838 C1836 1.384 . S
C1838 C1839 1.372 . S
C1839 C1838 1.372 . S
C1839 C1840 1.400 . S
C1839 C1844 1.490 . S
C1840 H1830 0.930 . S
C1840 C1839 1.400 . S
C1840 C1843 1.386 . S
H1841 C1857 0.930 . S
H1842 C1858 0.931 . S
C1843 H1831 0.929 . S
C1843 C1837 1.390 . S
C1843 C1840 1.386 . S
C1844 C1839 1.490 . S
C1844 C1846 1.395 . S
C1844 C1847 1.403 . S
H1845 C1851 0.930 . S
C1846 H1832 0.930 . S
C1846 C1844 1.395 . S
C1846 C1849 1.403 . S
C1847 C1844 1.403 . S
C1847 C1848 1.524 . S
C1847 C1851 1.400 . S
C1848 H1833 0.960 . S
C1848 H1834 0.960 . S
C1848 H1835 0.960 . S
C1848 C1847 1.524 . S
C1849 C1846 1.403 . S
C1849 C1850 1.392 . S
C1849 C1853 1.495 . S
C1850 C1849 1.392 . S
C1850 C1851 1.385 . S
C1850 C1852 1.478 . S
C1851 H1845 0.930 . S
C1851 C1847 1.400 . S
C1851 C1850 1.385 . S
C1852 C1850 1.478 . S
C1852 C1854 1.381 . S
C1852 C1858 1.383 . S
C1853 C1849 1.495 . S
C1853 H1859 0.959 . S
C1853 H1860 0.961 . S
C1853 H1861 0.960 . S
C1854 C1852 1.381 . S
C1854 C1855 1.394 . S
C1854 H1862 0.930 . S
C1855 C1854 1.394 . S
C1855 C1856 1.383 . S
C1855 H1863 0.929 . S
C1856 C1855 1.383 . S
C1856 C1857 1.377 . S
C1857 H1841 0.930 . S
C1857 C1856 1.377 . S
C1857 C1858 1.379 . S
C1858 H1842 0.931 . S
C1858 C1852 1.383 . S
C1858 C1857 1.379 . S
H1859 C1853 0.959 . S
H1860 C1853 0.961 . S
H1861 C1853 0.960 . S
H1862 C1854 0.930 . S
H1863 C1855 0.929 . S
H1864 C1872 0.929 . S
H1865 C1874 0.930 . S
H1866 C1876 0.930 . S
H1867 C1879 0.929 . S
H1868 C1882 0.930 . S
H1869 C1884 0.960 . S
H1870 C1884 0.960 . S
H1871 C1884 0.960 . S
C1872 H1864 0.929 . S
C1872 C1873 1.377 . S
C1872 C1874 1.384 . S
C1873 C1872 1.377 . S
C1873 C1879 1.390 . S
C1874 H1865 0.930 . S
C1874 C1872 1.384 . S
C1874 C1875 1.372 . S
C1875 C1874 1.372 . S
C1875 C1876 1.400 . S
C1875 C1880 1.490 . S
C1876 H1866 0.930 . S
C1876 C1875 1.400 . S
C1876 C1879 1.386 . S
H1877 C1893 0.930 . S
H1878 C1894 0.931 . S
C1879 H1867 0.929 . S
C1879 C1873 1.390 . S
C1879 C1876 1.386 . S
C1880 C1875 1.490 . S
C1880 C1882 1.395 . S
C1880 C1883 1.403 . S
H1881 C1887 0.930 . S
C1882 H1868 0.930 . S
C1882 C1880 1.395 . S
C1882 C1885 1.403 . S
C1883 C1880 1.403 . S
C1883 C1884 1.524 . S
C1883 C1887 1.400 . S
C1884 H1869 0.960 . S
C1884 H1870 0.960 . S
C1884 H1871 0.960 . S
C1884 C1883 1.524 . S
C1885 C1882 1.403 . S
C1885 C1886 1.392 . S
C1885 C1889 1.495 . S
C1886 C1885 1.392 . S
C1886 C1887 1.385 . S
C1886 C1888 1.478 . S
C1887 H1881 0.930 . S
C1887 C1883 1.400 . S
C1887 C1886 1.385 . S
C1888 C1886 1.478 . S
C1888 C1890 1.381 . S
C1888 C1894 1.383 . S
C1889 C1885 1.495 . S
C1889 H1895 0.959 . S
C1889 H1896 0.961 . S
C1889 H1897 0.960 . S
C1890 C1888 1.381 . S
C1890 C1891 1.394 . S
C1890 H1898 0.930 . S
C1891 C1890 1.394 . S
C1891 C1892 1.383 . S
C1891 H1899 0.929 . S
C1892 C1891 1.383 . S
C1892 C1893 1.377 . S
C1893 H1877 0.930 . S
C1893 C1892 1.377 . S
C1893 C1894 1.379 . S
C1894 H1878 0.931 . S
C1894 C1888 1.383 . S
C1894 C1893 1.379 . S
H1895 C1889 0.959 . S
H1896 C1889 0.961 . S
H1897 C1889 0.960 . S
H1898 C1890 0.930 . S
H1899 C1891 0.929 . S
H1900 C1908 0.929 . S
H1901 C1910 0.930 . S
H1902 C1912 0.930 . S
H1903 C1915 0.929 . S
H1904 C1918 0.930 . S
H1905 C1920 0.960 1_655 S
H1906 C1920 0.960 . S
H1907 C1920 0.960 . S
C1908 H1900 0.929 . S
C1908 C1909 1.377 . S
C1908 C1910 1.384 . S
C1909 C1908 1.377 . S
C1909 C1915 1.390 . S
C1910 H1901 0.930 . S
C1910 C1908 1.384 . S
C1910 C1911 1.372 . S
C1911 C1910 1.372 . S
C1911 C1912 1.400 . S
C1911 C1916 1.490 . S
C1912 H1902 0.930 . S
C1912 C1911 1.400 . S
C1912 C1915 1.386 . S
H1913 C1929 0.930 . S
H1914 C1930 0.931 . S
C1915 H1903 0.929 . S
C1915 C1909 1.390 . S
C1915 C1912 1.386 . S
C1916 C1911 1.490 . S
C1916 C1918 1.395 . S
C1916 C1919 1.403 . S
H1917 C1923 0.930 . S
C1918 H1904 0.930 . S
C1918 C1916 1.395 . S
C1918 C1921 1.403 1_455 S
C1919 C1916 1.403 . S
C1919 C1920 1.524 . S
C1919 C1923 1.400 1_455 S
C1920 H1905 0.960 1_455 S
C1920 H1906 0.960 . S
C1920 H1907 0.960 . S
C1920 C1919 1.524 . S
C1921 C1918 1.403 1_655 S
C1921 C1922 1.392 . S
C1921 C1925 1.495 . S
C1922 C1921 1.392 . S
C1922 C1923 1.385 . S
C1922 C1924 1.478 . S
C1923 H1917 0.930 . S
C1923 C1919 1.400 1_655 S
C1923 C1922 1.385 . S
C1924 C1922 1.478 . S
C1924 C1926 1.381 . S
C1924 C1930 1.383 . S
C1925 C1921 1.495 . S
C1925 H1931 0.959 1_655 S
C1925 H1932 0.961 . S
C1925 H1933 0.960 . S
C1926 C1924 1.381 . S
C1926 C1927 1.394 . S
C1926 H1934 0.930 . S
C1927 C1926 1.394 . S
C1927 C1928 1.383 . S
C1927 H1935 0.929 . S
C1928 C1927 1.383 . S
C1928 C1929 1.377 . S
C1929 H1913 0.930 . S
C1929 C1928 1.377 . S
C1929 C1930 1.379 . S
C1930 H1914 0.931 . S
C1930 C1924 1.383 . S
C1930 C1929 1.379 . S
H1931 C1925 0.959 1_455 S
H1932 C1925 0.961 . S
H1933 C1925 0.960 . S
H1934 C1926 0.930 . S
H1935 C1927 0.929 . S
H1936 C1944 0.929 . S
H1937 C1946 0.930 . S
H1938 C1948 0.930 . S
H1939 C1951 0.929 . S
H1940 C1954 0.930 . S
H1941 C1956 0.960 . S
H1942 C1956 0.960 . S
H1943 C1956 0.960 . S
C1944 H1936 0.929 . S
C1944 C1945 1.377 . S
C1944 C1946 1.384 . S
C1945 C1944 1.377 . S
C1945 C1951 1.390 . S
C1946 H1937 0.930 . S
C1946 C1944 1.384 . S
C1946 C1947 1.372 . S
C1947 C1946 1.372 . S
C1947 C1948 1.400 . S
C1947 C1952 1.490 . S
C1948 H1938 0.930 . S
C1948 C1947 1.400 . S
C1948 C1951 1.386 . S
H1949 C1965 0.930 . S
H1950 C1966 0.931 . S
C1951 H1939 0.929 . S
C1951 C1945 1.390 . S
C1951 C1948 1.386 . S
C1952 C1947 1.490 . S
C1952 C1954 1.395 . S
C1952 C1955 1.403 . S
H1953 C1959 0.930 . S
C1954 H1940 0.930 . S
C1954 C1952 1.395 . S
C1954 C1957 1.403 1_655 S
C1955 C1952 1.403 . S
C1955 C1956 1.524 . S
C1955 C1959 1.400 1_655 S
C1956 H1941 0.960 . S
C1956 H1942 0.960 . S
C1956 H1943 0.960 . S
C1956 C1955 1.524 . S
C1957 C1954 1.403 1_455 S
C1957 C1958 1.392 . S
C1957 C1961 1.495 . S
C1958 C1957 1.392 . S
C1958 C1959 1.385 . S
C1958 C1960 1.478 . S
C1959 H1953 0.930 . S
C1959 C1955 1.400 1_455 S
C1959 C1958 1.385 . S
C1960 C1958 1.478 . S
C1960 C1962 1.381 . S
C1960 C1966 1.383 . S
C1961 C1957 1.495 . S
C1961 H1967 0.959 . S
C1961 H1968 0.961 . S
C1961 H1969 0.960 . S
C1962 C1960 1.381 . S
C1962 C1963 1.394 . S
C1962 H1970 0.930 . S
C1963 C1962 1.394 . S
C1963 C1964 1.383 . S
C1963 H1971 0.929 . S
C1964 C1963 1.383 . S
C1964 C1965 1.377 . S
C1965 H1949 0.930 . S
C1965 C1964 1.377 . S
C1965 C1966 1.379 . S
C1966 H1950 0.931 . S
C1966 C1960 1.383 . S
C1966 C1965 1.379 . S
H1967 C1961 0.959 . S
H1968 C1961 0.961 . S
H1969 C1961 0.960 . S
H1970 C1962 0.930 . S
H1971 C1963 0.929 . S
H1972 C1980 0.929 . S
H1973 C1982 0.930 . S
H1974 C1984 0.930 . S
H1975 C1987 0.929 . S
H1976 C1990 0.930 . S
H1977 C1992 0.960 . S
H1978 C1992 0.960 . S
H1979 C1992 0.960 . S
C1980 H1972 0.929 . S
C1980 C1981 1.377 . S
C1980 C1982 1.384 . S
C1981 C1980 1.377 . S
C1981 C1987 1.390 . S
C1982 H1973 0.930 . S
C1982 C1980 1.384 . S
C1982 C1983 1.372 . S
C1983 C1982 1.372 . S
C1983 C1984 1.400 . S
C1983 C1988 1.490 . S
C1984 H1974 0.930 . S
C1984 C1983 1.400 . S
C1984 C1987 1.386 . S
H1985 C2001 0.930 . S
H1986 C2002 0.931 . S
C1987 H1975 0.929 . S
C1987 C1981 1.390 . S
C1987 C1984 1.386 . S
C1988 C1983 1.490 . S
C1988 C1990 1.395 . S
C1988 C1991 1.403 . S
H1989 C1995 0.930 . S
C1990 H1976 0.930 . S
C1990 C1988 1.395 . S
C1990 C1993 1.403 . S
C1991 C1988 1.403 . S
C1991 C1992 1.524 . S
C1991 C1995 1.400 . S
C1992 H1977 0.960 . S
C1992 H1978 0.960 . S
C1992 H1979 0.960 . S
C1992 C1991 1.524 . S
C1993 C1990 1.403 . S
C1993 C1994 1.392 . S
C1993 C1997 1.495 . S
C1994 C1993 1.392 . S
C1994 C1995 1.385 . S
C1994 C1996 1.478 . S
C1995 H1989 0.930 . S
C1995 C1991 1.400 . S
C1995 C1994 1.385 . S
C1996 C1994 1.478 . S
C1996 C1998 1.381 . S
C1996 C2002 1.383 . S
C1997 C1993 1.495 . S
C1997 H2003 0.959 . S
C1997 H2004 0.961 . S
C1997 H2005 0.960 . S
C1998 C1996 1.381 . S
C1998 C1999 1.394 . S
C1998 H2006 0.930 . S
C1999 C1998 1.394 . S
C1999 C2000 1.383 . S
C1999 H2007 0.929 . S
C2000 C1999 1.383 . S
C2000 C2001 1.377 . S
C2001 H1985 0.930 . S
C2001 C2000 1.377 . S
C2001 C2002 1.379 . S
C2002 H1986 0.931 . S
C2002 C1996 1.383 . S
C2002 C2001 1.379 . S
H2003 C1997 0.959 . S
H2004 C1997 0.961 . S
H2005 C1997 0.960 . S
H2006 C1998 0.930 . S
H2007 C1999 0.929 . S
H2008 C2016 0.929 . S
H2009 C2018 0.930 . S
H2010 C2020 0.930 . S
H2011 C2023 0.929 . S
H2012 C2026 0.930 . S
H2013 C2028 0.960 . S
H2014 C2028 0.960 . S
H2015 C2028 0.960 . S
C2016 H2008 0.929 . S
C2016 C2017 1.377 . S
C2016 C2018 1.384 . S
C2017 C2016 1.377 . S
C2017 C2023 1.390 . S
C2018 H2009 0.930 . S
C2018 C2016 1.384 . S
C2018 C2019 1.372 . S
C2019 C2018 1.372 . S
C2019 C2020 1.400 . S
C2019 C2024 1.490 . S
C2020 H2010 0.930 . S
C2020 C2019 1.400 . S
C2020 C2023 1.386 . S
H2021 C2037 0.930 . S
H2022 C2038 0.931 . S
C2023 H2011 0.929 . S
C2023 C2017 1.390 . S
C2023 C2020 1.386 . S
C2024 C2019 1.490 . S
C2024 C2026 1.395 . S
C2024 C2027 1.403 . S
H2025 C2031 0.930 . S
C2026 H2012 0.930 . S
C2026 C2024 1.395 . S
C2026 C2029 1.403 . S
C2027 C2024 1.403 . S
C2027 C2028 1.524 . S
C2027 C2031 1.400 . S
C2028 H2013 0.960 . S
C2028 H2014 0.960 . S
C2028 H2015 0.960 . S
C2028 C2027 1.524 . S
C2029 C2026 1.403 . S
C2029 C2030 1.392 . S
C2029 C2033 1.495 . S
C2030 C2029 1.392 . S
C2030 C2031 1.385 . S
C2030 C2032 1.478 . S
C2031 H2025 0.930 . S
C2031 C2027 1.400 . S
C2031 C2030 1.385 . S
C2032 C2030 1.478 . S
C2032 C2034 1.381 . S
C2032 C2038 1.383 . S
C2033 C2029 1.495 . S
C2033 H2039 0.959 . S
C2033 H2040 0.961 . S
C2033 H2041 0.960 . S
C2034 C2032 1.381 . S
C2034 C2035 1.394 . S
C2034 H2042 0.930 . S
C2035 C2034 1.394 . S
C2035 C2036 1.383 . S
C2035 H2043 0.929 . S
C2036 C2035 1.383 . S
C2036 C2037 1.377 . S
C2037 H2021 0.930 . S
C2037 C2036 1.377 . S
C2037 C2038 1.379 . S
C2038 H2022 0.931 . S
C2038 C2032 1.383 . S
C2038 C2037 1.379 . S
H2039 C2033 0.959 . S
H2040 C2033 0.961 . S
H2041 C2033 0.960 . S
H2042 C2034 0.930 . S
H2043 C2035 0.929 . S
H2044 C2052 0.929 . S
H2045 C2054 0.930 . S
H2046 C2056 0.930 . S
H2047 C2059 0.929 . S
H2048 C2062 0.930 . S
H2049 C2064 0.960 . S
H2050 C2064 0.960 . S
H2051 C2064 0.960 . S
C2052 H2044 0.929 . S
C2052 C2053 1.377 . S
C2052 C2054 1.384 . S
C2053 C2052 1.377 . S
C2053 C2059 1.390 . S
C2054 H2045 0.930 . S
C2054 C2052 1.384 . S
C2054 C2055 1.372 . S
C2055 C2054 1.372 . S
C2055 C2056 1.400 . S
C2055 C2060 1.490 . S
C2056 H2046 0.930 . S
C2056 C2055 1.400 . S
C2056 C2059 1.386 . S
H2057 C2073 0.930 . S
H2058 C2074 0.931 . S
C2059 H2047 0.929 . S
C2059 C2053 1.390 . S
C2059 C2056 1.386 . S
C2060 C2055 1.490 . S
C2060 C2062 1.395 . S
C2060 C2063 1.403 . S
H2061 C2067 0.930 . S
C2062 H2048 0.930 . S
C2062 C2060 1.395 . S
C2062 C2065 1.403 1_455 S
C2063 C2060 1.403 . S
C2063 C2064 1.524 . S
C2063 C2067 1.400 1_455 S
C2064 H2049 0.960 . S
C2064 H2050 0.960 . S
C2064 H2051 0.960 . S
C2064 C2063 1.524 . S
C2065 C2062 1.403 1_655 S
C2065 C2066 1.392 . S
C2065 C2069 1.495 . S
C2066 C2065 1.392 . S
C2066 C2067 1.385 . S
C2066 C2068 1.478 . S
C2067 H2061 0.930 . S
C2067 C2063 1.400 1_655 S
C2067 C2066 1.385 . S
C2068 C2066 1.478 . S
C2068 C2070 1.381 . S
C2068 C2074 1.383 . S
C2069 C2065 1.495 . S
C2069 H2075 0.959 . S
C2069 H2076 0.961 . S
C2069 H2077 0.960 . S
C2070 C2068 1.381 . S
C2070 C2071 1.394 . S
C2070 H2078 0.930 . S
C2071 C2070 1.394 . S
C2071 C2072 1.383 . S
C2071 H2079 0.929 . S
C2072 C2071 1.383 . S
C2072 C2073 1.377 . S
C2073 H2057 0.930 . S
C2073 C2072 1.377 . S
C2073 C2074 1.379 . S
C2074 H2058 0.931 . S
C2074 C2068 1.383 . S
C2074 C2073 1.379 . S
H2075 C2069 0.959 . S
H2076 C2069 0.961 . S
H2077 C2069 0.960 . S
H2078 C2070 0.930 . S
H2079 C2071 0.929 . S
C361 C6 1.381 . S
C380 C290 1.482 . S
C397 C268 1.479 . S
C416 C29 1.381 . S
C433 C334 1.479 . S
C452 C50 1.406 . S
C469 C316 1.481 . S
C488 C72 1.382 . S
C505 C202 1.479 . S
C524 C97 1.348 . S
C541 C119 1.393 . S
C560 C184 1.480 . S
C577 C250 1.479 . S
C596 C137 1.373 . S
C613 C163 1.392 . S
C632 C228 1.481 . S
C649 C114 1.481 . S
C668 C182 1.382 . S
C685 C205 1.380 . S
C704 C92 1.482 . S
C721 C158 1.481 . S
C740 C226 1.348 . S
C757 C140 1.481 . S
C776 C248 1.389 . S
C793 C273 1.387 . S
C812 C26 1.478 . S
C829 C8 1.479 . S
C848 C295 1.349 . S
C865 C313 1.383 . S
C884 C74 1.475 . S
C901 C52 1.481 . S
C920 C339 1.400 . S
C937 C225 1.484 . S
C956 C5 1.460 . S
C973 C31 1.485 . S
C992 C247 1.479 . S
C1009 C181 1.478 . S
C1028 C49 1.494 . S
C1045 C207 1.485 . S
C1064 C71 1.457 . S
C1081 C314 1.487 . S
C1100 C95 1.495 . S
C1117 C117 1.478 . S
C1136 C337 1.470 . S
C1153 C138 1.487 . S
C1172 C271 1.493 . S
C1189 C293 1.478 . S
C1208 C161 1.455 . S
C1225 C7 1.634 . S
C1244 C28 1.628 . S
C1261 C51 1.634 . S
C1280 C73 1.633 . S
C1297 C93 1.633 . S
C1316 C115 1.630 . S
C1333 C159 1.635 . S
C1352 C141 1.628 . S
C1369 C204 1.634 . S
C1388 C183 1.631 . S
C1405 C227 1.635 . S
C1424 C249 1.630 . S
C1441 C291 1.635 . S
C1460 C269 1.630 . S
C1477 C317 1.635 . S
C1496 C335 1.630 . S
C1513 C270 0.535 . S
C1532 C9 0.583 . S
C1549 C27 0.513 . S
C1568 C292 0.580 . S
C1585 C53 0.534 . S
C1604 C315 0.527 . S
C1621 C75 0.520 . S
C1640 C336 0.450 . S
C1657 C94 0.528 . S
C1676 C185 0.484 . S
C1693 C116 0.515 . S
C1712 C203 0.587 . S
C1729 C139 0.534 . S
C1748 C229 0.534 . S
C1765 C251 0.502 . S
C1784 C160 0.522 . S
C1801 C4 1.447 . S
C1820 C206 1.452 . S
C1837 C30 1.451 . S
C1856 C180 1.453 . S
C1873 C246 1.451 . S
C1892 C48 1.445 . S
C1909 C224 1.447 . S
C1928 C70 1.445 . S
C1945 C96 1.450 . S
C1964 C294 1.437 . S
C1981 C118 1.451 . S
C2000 C272 1.443 . S
C2017 C338 1.448 . S
C2036 C136 1.446 . S
C2053 C162 1.447 . S
C2072 C312 1.457 . S
