# Generated by pormake.
# Topology sra, (4)-cn, num edge types: 1
# Building blocks:
#     Node 0, Type 0, BuildingBlock: QUQFOY_clean_sbu_3, # of connection points: 4
#     Node 1, Type 0, BuildingBlock: QUQFOY_clean_sbu_3, # of connection points: 4
#     Node 2, Type 0, BuildingBlock: QUQFOY_clean_sbu_3, # of connection points: 4
#     Node 3, Type 0, BuildingBlock: QUQFOY_clean_sbu_3, # of connection points: 4
#     Node 4, Type 0, BuildingBlock: QUQFOY_clean_sbu_3, # of connection points: 4
#     Node 5, Type 0, BuildingBlock: QUQFOY_clean_sbu_3, # of connection points: 4
#     Node 6, Type 0, BuildingBlock: QUQFOY_clean_sbu_3, # of connection points: 4
#     Node 7, Type 0, BuildingBlock: QUQFOY_clean_sbu_3, # of connection points: 4
#     Edge 8, Type (0, 0), BuildingBlock: XUDNAN_clean_linker_2, # of connection points: 2
#     Edge 9, Type (0, 0), BuildingBlock: XUDNAN_clean_linker_2, # of connection points: 2
#     Edge 10, Type (0, 0), BuildingBlock: XUDNAN_clean_linker_2, # of connection points: 2
#     Edge 11, Type (0, 0), BuildingBlock: XUDNAN_clean_linker_2, # of connection points: 2
#     Edge 12, Type (0, 0), BuildingBlock: XUDNAN_clean_linker_2, # of connection points: 2
#     Edge 13, Type (0, 0), BuildingBlock: XUDNAN_clean_linker_2, # of connection points: 2
#     Edge 14, Type (0, 0), BuildingBlock: XUDNAN_clean_linker_2, # of connection points: 2
#     Edge 15, Type (0, 0), BuildingBlock: XUDNAN_clean_linker_2, # of connection points: 2
#     Edge 16, Type (0, 0), BuildingBlock: XUDNAN_clean_linker_2, # of connection points: 2
#     Edge 17, Type (0, 0), BuildingBlock: XUDNAN_clean_linker_2, # of connection points: 2
#     Edge 18, Type (0, 0), BuildingBlock: XUDNAN_clean_linker_2, # of connection points: 2
#     Edge 19, Type (0, 0), BuildingBlock: XUDNAN_clean_linker_2, # of connection points: 2
#     Edge 20, Type (0, 0), BuildingBlock: XUDNAN_clean_linker_2, # of connection points: 2
#     Edge 21, Type (0, 0), BuildingBlock: XUDNAN_clean_linker_2, # of connection points: 2
#     Edge 22, Type (0, 0), BuildingBlock: XUDNAN_clean_linker_2, # of connection points: 2
#     Edge 23, Type (0, 0), BuildingBlock: XUDNAN_clean_linker_2, # of connection points: 2
# Relax obj value: 0.028
# Max RMSD: 0.061
# Mean RMSD: 0.061
data_MOF--net-sra--node1-QUQFOY_clean_sbu_3--edge1-XUDNAN_clean_linker_2
_symmetry_space_group_name_H-M    P1
_symmetry_Int_Tables_number       1
_symmetry_cell_setting            triclinic
loop_
_symmetry_equiv_pos_as_xyz
'x, y, z'
_cell_length_a     28.410783
_cell_length_b     54.447022
_cell_length_c     33.530845
_cell_angle_alpha  90.057876
_cell_angle_beta   89.97362
_cell_angle_gamma 89.779852
loop_
_atom_site_label
_atom_site_type_symbol
_atom_site_fract_x
_atom_site_fract_y
_atom_site_fract_z
_atom_type_partial_charge
C0 C 0.09675 0.08446 0.21757 0.0
O1 O 0.07183 0.09253 0.24618 0.0
Cd2 Cd -0.00441 0.11029 0.23128 0.0
O3 O 0.08154 0.08538 0.18201 0.0
Cd4 Cd 0.01598 0.09628 0.1393 0.0
C5 C 0.02546 0.15607 0.1643 0.0
O6 O 0.95445 0.08397 0.18549 0.0
O7 O 0.93268 0.10213 0.1309 0.0
O8 O 0.02972 0.05684 0.10922 0.0
C9 C 0.92133 0.09179 0.16336 0.0
O10 O 0.0116 0.1493 0.19871 0.0
C11 C 0.03601 0.06466 0.07403 0.0
O12 O 0.03228 0.14043 0.13656 0.0
O13 O 0.03302 0.08775 0.0687 0.0
C14 C 0.88045 0.38796 0.21107 0.0
O15 O 0.90144 0.38311 0.24359 0.0
Cd16 Cd -0.01425 0.37832 0.2487 0.0
O17 O 0.90384 0.39208 0.17944 0.0
Cd18 Cd -0.01445 0.39534 0.15609 0.0
C19 C 0.0043 0.33501 0.17474 0.0
O20 O 0.02235 0.41208 0.21591 0.0
O21 O 0.06876 0.39997 0.16861 0.0
O22 O 0.96915 0.43371 0.12229 0.0
C23 C 0.06409 0.40946 0.20294 0.0
O24 O 0.00376 0.34096 0.21152 0.0
C25 C 0.97697 0.42549 0.08748 0.0
O26 O -0.00357 0.35096 0.14773 0.0
O27 O -0.01157 0.40297 0.08444 0.0
C28 C 0.04448 0.88444 0.75002 0.0
O29 O 0.01064 0.87873 0.72713 0.0
Cd30 Cd 0.93558 0.8694 0.75653 0.0
O31 O 0.03738 0.88806 0.78704 0.0
Cd32 Cd 0.97777 0.89122 0.83981 0.0
C33 C 0.97435 0.82988 0.83216 0.0
O34 O 0.91405 0.90367 0.79703 0.0
O35 O 0.89412 0.89411 0.8572 0.0
O36 O 0.01423 0.93061 0.84832 0.0
C37 C 0.88181 0.90158 0.82293 0.0
O38 O 0.95543 0.83419 0.79841 0.0
C39 C 0.01786 0.92954 0.88595 0.0
O40 O -0.01281 0.84739 0.85492 0.0
O41 O 0.00355 0.91 0.90281 0.0
C42 C -0.0148 0.59768 0.7535 0.0
O43 O 0.01838 0.60375 0.73018 0.0
Cd44 Cd 0.09271 0.61502 0.75866 0.0
O45 O -0.00712 0.59471 0.79058 0.0
Cd46 Cd 0.05418 0.59343 0.84232 0.0
C47 C 0.05269 0.65465 0.83356 0.0
O48 O 0.11773 0.58125 0.79883 0.0
O49 O 0.13838 0.5921 0.85829 0.0
O50 O 0.02163 0.55335 0.85249 0.0
C51 C 0.1503 0.58402 0.82424 0.0
O52 O 0.07087 0.65039 0.79949 0.0
C53 C 0.01746 0.55491 0.89004 0.0
O54 O 0.04217 0.63714 0.85709 0.0
O55 O 0.02982 0.57505 0.90621 0.0
C56 C 0.64523 0.58822 0.70932 0.0
O57 O 0.62468 0.59313 0.74205 0.0
Cd58 Cd 0.54148 0.60108 0.74694 0.0
O59 O 0.62163 0.58557 0.67739 0.0
Cd60 Cd 0.54002 0.5853 0.65335 0.0
C61 C 0.53096 0.64597 0.67418 0.0
O62 O 0.50136 0.56921 0.71248 0.0
O63 O 0.45617 0.58351 0.66601 0.0
O64 O 0.55322 0.54643 0.62015 0.0
C65 C 0.45996 0.57342 0.69995 0.0
O66 O 0.53018 0.6394 0.71065 0.0
C67 C 0.54638 0.55451 0.58515 0.0
O68 O 0.53628 0.63017 0.64641 0.0
O69 O 0.53681 0.57723 0.5816 0.0
C70 C 0.38505 0.88508 0.70622 0.0
O71 O 0.40471 0.87993 0.7392 0.0
Cd72 Cd 0.48729 0.87109 0.74573 0.0
O73 O 0.40939 0.88733 0.67459 0.0
Cd74 Cd 0.49223 0.88611 0.65331 0.0
C75 C 0.49863 0.8255 0.67457 0.0
O76 O 0.52925 0.90308 0.71291 0.0
O77 O 0.57546 0.88744 0.66824 0.0
O78 O 0.48153 0.92423 0.61724 0.0
C79 C 0.57091 0.89868 0.70116 0.0
O80 O 0.49882 0.83216 0.71101 0.0
C81 C 0.49178 0.91537 0.5833 0.0
O82 O 0.49442 0.84129 0.64675 0.0
O83 O 0.50161 0.8926 0.58173 0.0
C84 C 0.53927 0.37893 0.25403 0.0
O85 O 0.5055 0.37429 0.23044 0.0
Cd86 Cd 0.42834 0.36634 0.25708 0.0
O87 O 0.53164 0.38211 0.29108 0.0
Cd88 Cd 0.46913 0.38553 0.34157 0.0
C89 C 0.45914 0.32447 0.33176 0.0
O90 O 0.40689 0.40028 0.29821 0.0
O91 O 0.38556 0.38891 0.35733 0.0
O92 O 0.50534 0.42466 0.35206 0.0
C93 C 0.37429 0.39798 0.32382 0.0
O94 O 0.44118 0.33 0.29809 0.0
C95 C 0.50834 0.42324 0.3897 0.0
O96 O 0.4745 0.34116 0.35505 0.0
O97 O 0.49405 0.40345 0.40583 0.0
C98 C 0.4315 0.08455 0.25806 0.0
O99 O 0.45612 0.09241 0.22918 0.0
Cd100 Cd 0.53216 0.1097 0.23788 0.0
O101 O 0.44833 0.08277 0.29317 0.0
Cd102 Cd 0.52391 0.08586 0.32977 0.0
C103 C 0.51009 0.14706 0.3216 0.0
O104 O 0.57048 0.078 0.27255 0.0
O105 O 0.611 0.0883 0.32411 0.0
O106 O 0.50757 0.04379 0.34395 0.0
C107 C 0.61039 0.08213 0.2876 0.0
O108 O 0.51738 0.14333 0.28454 0.0
C109 C 0.51265 0.04504 0.38142 0.0
O110 O 0.51023 0.12936 0.34652 0.0
O111 O 0.52251 0.066 0.39607 0.0
H112 H 0.01533 0.29626 0.22543 0.0
H113 H 0.01315 0.3149 0.09957 0.0
H114 H 0.02546 0.27107 0.08257 0.0
H115 H 0.10385 0.24769 0.21954 0.0
H116 H 0.07454 0.22923 0.25652 0.0
H117 H 0.06969 0.26221 0.25833 0.0
H118 H 0.97865 0.25888 0.25706 0.0
H119 H 0.98322 0.22595 0.25532 0.0
H120 H 0.95064 0.24208 0.21732 0.0
H121 H 0.03371 0.2244 0.0799 0.0
H122 H 0.03336 0.1795 0.09181 0.0
H123 H 0.02908 0.19276 0.21943 0.0
C124 C 0.01799 0.29129 0.19423 0.0
C125 C 0.0134 0.30906 0.16384 0.0
C126 C 0.01663 0.30161 0.1234 0.0
C127 C 0.0238 0.27678 0.11346 0.0
C128 C 0.02777 0.25973 0.14431 0.0
C129 C 0.02494 0.26675 0.18386 0.0
C130 C 0.0274 0.24492 0.21153 0.0
C131 C 0.0715 0.24609 0.23803 0.0
C132 C 0.98229 0.24284 0.23677 0.0
C133 C 0.03104 0.22437 0.18142 0.0
C134 C 0.03185 0.23317 0.14279 0.0
C135 C 0.03345 0.21734 0.11006 0.0
C136 C 0.03334 0.19189 0.1171 0.0
C137 C 0.0311 0.18263 0.15654 0.0
C138 C 0.03079 0.19921 0.18892 0.0
H139 H -0.01662 0.7916 0.78109 0.0
H140 H -0.00996 0.80996 0.90686 0.0
H141 H 0.00888 0.7664 0.92245 0.0
H142 H 0.93231 0.7317 0.79046 0.0
H143 H 0.96705 0.71908 0.75032 0.0
H144 H 0.95164 0.75119 0.75027 0.0
H145 H 0.03997 0.76261 0.74473 0.0
H146 H 0.05566 0.73056 0.74487 0.0
H147 H 0.08092 0.75101 0.78127 0.0
H148 H 0.02587 0.71962 0.92305 0.0
H149 H 0.04522 0.67597 0.90815 0.0
H150 H 0.03182 0.69107 0.78171 0.0
C151 C -0.0118 0.78651 0.81204 0.0
C152 C -0.01536 0.80407 0.84284 0.0
C153 C -0.00763 0.79671 0.88283 0.0
C154 C 0.00296 0.77204 0.89192 0.0
C155 C 0.00628 0.75519 0.86059 0.0
C156 C -0.0005 0.7623 0.82144 0.0
C157 C 0.00722 0.74133 0.79274 0.0
C158 C 0.96185 0.73548 0.7696 0.0
C159 C 0.0484 0.74671 0.76424 0.0
C160 C 0.01945 0.72113 0.82169 0.0
C161 C 0.01821 0.72919 0.86078 0.0
C162 C 0.02725 0.71323 0.8925 0.0
C163 C 0.03811 0.68852 0.88383 0.0
C164 C 0.04062 0.6803 0.8438 0.0
C165 C 0.03099 0.6969 0.8126 0.0
H166 H 0.52228 0.6839 0.7269 0.0
H167 H 0.52843 0.66798 0.60008 0.0
H168 H 0.52034 0.71241 0.58555 0.0
H169 H 0.4364 0.73199 0.7216 0.0
H170 H 0.46351 0.74981 0.76061 0.0
H171 H 0.46947 0.71688 0.7604 0.0
H172 H 0.56036 0.72108 0.76191 0.0
H173 H 0.55468 0.75402 0.76209 0.0
H174 H 0.58936 0.73904 0.7241 0.0
H175 H 0.51157 0.75922 0.58568 0.0
H176 H 0.5036 0.80362 0.60043 0.0
H177 H 0.50392 0.78739 0.7272 0.0
C178 C 0.52188 0.68962 0.69598 0.0
C179 C 0.52596 0.67241 0.66462 0.0
C180 C 0.52535 0.68083 0.62463 0.0
C181 C 0.52075 0.70601 0.61609 0.0
C182 C 0.51685 0.72245 0.64788 0.0
C183 C 0.51742 0.7145 0.687 0.0
C184 C 0.51302 0.73565 0.71597 0.0
C185 C 0.46791 0.73344 0.74111 0.0
C186 C 0.55698 0.73755 0.74257 0.0
C187 C 0.50993 0.75685 0.68712 0.0
C188 C 0.5121 0.749 0.64796 0.0
C189 C 0.50984 0.76553 0.61626 0.0
C190 C 0.5053 0.79071 0.62493 0.0
C191 C 0.50317 0.79904 0.66497 0.0
C192 C 0.50551 0.78174 0.69625 0.0
H193 H 0.44138 0.28556 0.28328 0.0
H194 H 0.49046 0.30357 0.4023 0.0
H195 H 0.50365 0.25922 0.41558 0.0
H196 H 0.38301 0.22814 0.3074 0.0
H197 H 0.40147 0.21395 0.26136 0.0
H198 H 0.39178 0.24664 0.26349 0.0
H199 H 0.47651 0.25398 0.23733 0.0
H200 H 0.4865 0.22138 0.23522 0.0
H201 H 0.52566 0.24061 0.26361 0.0
H202 H 0.51448 0.21202 0.41367 0.0
H203 H 0.52582 0.16812 0.39543 0.0
H204 H 0.47225 0.18346 0.27694 0.0
C205 C 0.4542 0.28033 0.31248 0.0
C206 C 0.46456 0.29809 0.34186 0.0
C207 C 0.48203 0.29028 0.37937 0.0
C208 C 0.48952 0.26514 0.38719 0.0
C209 C 0.47945 0.24816 0.35714 0.0
C210 C 0.46223 0.25559 0.32053 0.0
C211 C 0.4571 0.23432 0.292 0.0
C212 C 0.40526 0.23055 0.2804 0.0
C213 C 0.48831 0.23779 0.25488 0.0
C214 C 0.47485 0.21366 0.3179 0.0
C215 C 0.48698 0.22172 0.35561 0.0
C216 C 0.50493 0.20557 0.38424 0.0
C217 C 0.51116 0.18071 0.3737 0.0
C218 C 0.50023 0.17249 0.33471 0.0
C219 C 0.48133 0.18922 0.30689 0.0
H220 H 0.35448 0.09373 0.30427 0.0
H221 H 0.39955 0.05901 0.19423 0.0
H222 H 0.31715 0.04828 0.17891 0.0
H223 H 0.25101 0.05288 0.32601 0.0
H224 H 0.21568 0.07841 0.34298 0.0
H225 H 0.27864 0.07879 0.34982 0.0
H226 H 0.28325 0.12039 0.31251 0.0
H227 H 0.22053 0.12015 0.30571 0.0
H228 H 0.2588 0.12286 0.26305 0.0
H229 H 0.23162 0.04574 0.17131 0.0
H230 H 0.14711 0.05514 0.16778 0.0
H231 H 0.15544 0.09358 0.28106 0.0
C232 C 0.34687 0.08324 0.27759 0.0
C233 C 0.38294 0.07684 0.25058 0.0
C234 C 0.37208 0.06391 0.21524 0.0
C235 C 0.32557 0.05755 0.20655 0.0
C236 C 0.2905 0.0645 0.23338 0.0
C237 C 0.30041 0.07725 0.26803 0.0
C238 C 0.25568 0.08578 0.28855 0.0
C239 C 0.24992 0.07321 0.32926 0.0
C240 C 0.25451 0.11396 0.29266 0.0
C241 C 0.21924 0.07675 0.25907 0.0
C242 C 0.24018 0.0639 0.22815 0.0
C243 C 0.21466 0.05545 0.19559 0.0
C244 C 0.1667 0.061 0.1938 0.0
C245 C 0.14485 0.07513 0.22415 0.0
C246 C 0.17114 0.0824 0.25783 0.0
H247 H 0.62007 0.38014 0.29803 0.0
H248 H 0.56879 0.38173 0.17607 0.0
H249 H 0.65073 0.38521 0.15174 0.0
H250 H 0.71412 0.42326 0.28571 0.0
H251 H 0.75364 0.40692 0.3184 0.0
H252 H 0.691 0.40503 0.32601 0.0
H253 H 0.69563 0.35753 0.32176 0.0
H254 H 0.75828 0.35927 0.31421 0.0
H255 H 0.72203 0.34331 0.27858 0.0
H256 H 0.73828 0.38892 0.14111 0.0
H257 H 0.82494 0.3905 0.14446 0.0
H258 H 0.81822 0.38535 0.2736 0.0
C259 C 0.62591 0.38132 0.26617 0.0
C260 C 0.588 0.3808 0.23892 0.0
C261 C 0.5973 0.38211 0.19747 0.0
C262 C 0.64367 0.38415 0.18341 0.0
C263 C 0.68017 0.38468 0.21118 0.0
C264 C 0.67179 0.38315 0.25167 0.0
C265 C 0.71713 0.38349 0.27532 0.0
C266 C 0.71907 0.40602 0.30298 0.0
C267 C 0.72364 0.35947 0.29884 0.0
C268 C 0.75248 0.38549 0.24179 0.0
C269 C 0.73048 0.3863 0.20505 0.0
C270 C 0.75589 0.38825 0.1697 0.0
C271 C 0.80511 0.38919 0.17196 0.0
C272 C 0.82843 0.38801 0.20932 0.0
C273 C 0.80153 0.38623 0.2446 0.0
H274 H 0.12527 0.88744 0.79339 0.0
H275 H 0.07337 0.88553 0.67163 0.0
H276 H 0.15533 0.88783 0.64678 0.0
H277 H 0.22235 0.92916 0.77698 0.0
H278 H 0.26056 0.91311 0.81112 0.0
H279 H 0.19782 0.9129 0.81889 0.0
H280 H 0.19861 0.86528 0.81911 0.0
H281 H 0.26128 0.86532 0.81135 0.0
H282 H 0.2236 0.84899 0.77728 0.0
H283 H 0.24339 0.88934 0.63575 0.0
H284 H 0.33017 0.88786 0.63914 0.0
H285 H 0.32287 0.88755 0.76851 0.0
C286 C 0.13092 0.88779 0.76144 0.0
C287 C 0.09291 0.88648 0.7344 0.0
C288 C 0.102 0.88658 0.69287 0.0
C289 C 0.14836 0.88796 0.67851 0.0
C290 C 0.185 0.88911 0.70612 0.0
C291 C 0.17671 0.88893 0.74671 0.0
C292 C 0.22203 0.88906 0.77029 0.0
C293 C 0.2259 0.91245 0.79581 0.0
C294 C 0.22663 0.86578 0.796 0.0
C295 C 0.25735 0.8891 0.73662 0.0
C296 C 0.23539 0.8894 0.69984 0.0
C297 C 0.26094 0.88917 0.66439 0.0
C298 C 0.31021 0.88836 0.66665 0.0
C299 C 0.33331 0.88754 0.70412 0.0
C300 C 0.30632 0.88813 0.73944 0.0
H301 H 0.70707 0.58833 0.77208 0.0
H302 H 0.70082 0.58513 0.64274 0.0
H303 H 0.78755 0.5856 0.6397 0.0
H304 H 0.80213 0.62936 0.77891 0.0
H305 H 0.82848 0.61475 0.82169 0.0
H306 H 0.76598 0.61271 0.81377 0.0
H307 H 0.77122 0.56517 0.81602 0.0
H308 H 0.83379 0.56707 0.82412 0.0
H309 H 0.81122 0.54936 0.78296 0.0
H310 H 0.87499 0.58949 0.65069 0.0
H311 H 0.95652 0.59433 0.67535 0.0
H312 H 0.90462 0.59378 0.79719 0.0
C313 C 0.72388 0.58747 0.74311 0.0
C314 C 0.69713 0.58672 0.70768 0.0
C315 C 0.72056 0.58564 0.67035 0.0
C316 C 0.76982 0.58592 0.66827 0.0
C317 C 0.7951 0.58705 0.70377 0.0
C318 C 0.77293 0.58756 0.74049 0.0
C319 C 0.80811 0.58926 0.77416 0.0
C320 C 0.80072 0.61293 0.79855 0.0
C321 C 0.80595 0.56635 0.80088 0.0
C322 C 0.85345 0.59007 0.75062 0.0
C323 C 0.84533 0.58877 0.71008 0.0
C324 C 0.88187 0.59024 0.68241 0.0
C325 C 0.92798 0.59306 0.69666 0.0
C326 C 0.93696 0.59427 0.73816 0.0
C327 C 0.89906 0.59263 0.76529 0.0
H328 H 0.66243 0.90029 0.67754 0.0
H329 H 0.57242 0.90855 0.78129 0.0
H330 H 0.64285 0.91334 0.82398 0.0
H331 H 0.74934 0.86476 0.72205 0.0
H332 H 0.79794 0.87877 0.69619 0.0
H333 H 0.74056 0.87835 0.67359 0.0
H334 H 0.74238 0.92575 0.66638 0.0
H335 H 0.80001 0.92632 0.68879 0.0
H336 H 0.75299 0.94453 0.70975 0.0
H337 H 0.72332 0.91223 0.85588 0.0
H338 H 0.8075 0.9082 0.87388 0.0
H339 H 0.84377 0.90268 0.74848 0.0
C340 C 0.65751 0.90348 0.70917 0.0
C341 C 0.61216 0.904 0.72623 0.0
C342 C 0.60699 0.90821 0.76768 0.0
C343 C 0.64673 0.91093 0.79211 0.0
C344 C 0.69109 0.9098 0.7744 0.0
C345 C 0.69661 0.90654 0.73377 0.0
C346 C 0.74796 0.90507 0.72219 0.0
C347 C 0.7596 0.88027 0.70236 0.0
C348 C 0.76163 0.92671 0.69519 0.0
C349 C 0.77054 0.90722 0.7628 0.0
C350 C 0.73726 0.90999 0.79258 0.0
C351 C 0.74975 0.91053 0.83277 0.0
C352 C 0.79751 0.90813 0.84271 0.0
C353 C 0.83198 0.90538 0.81252 0.0
C354 C 0.81822 0.90521 0.77213 0.0
H355 H 0.36799 0.57371 0.67716 0.0
H356 H 0.45826 0.56665 0.78089 0.0
H357 H 0.38802 0.56608 0.82451 0.0
H358 H 0.28633 0.61397 0.71867 0.0
H359 H 0.23565 0.60067 0.69476 0.0
H360 H 0.29261 0.59822 0.67163 0.0
H361 H 0.28483 0.55081 0.6693 0.0
H362 H 0.22757 0.55312 0.69216 0.0
H363 H 0.2725 0.5342 0.71458 0.0
H364 H 0.30829 0.5711 0.85688 0.0
H365 H 0.22481 0.57798 0.87514 0.0
H366 H 0.18753 0.57993 0.7497 0.0
C367 C 0.37296 0.57164 0.709 0.0
C368 C 0.41842 0.57025 0.72573 0.0
C369 C 0.42362 0.56759 0.76751 0.0
C370 C 0.38398 0.56731 0.79248 0.0
C371 C 0.3396 0.5693 0.77505 0.0
C372 C 0.3339 0.57103 0.73421 0.0
C373 C 0.28266 0.5738 0.72293 0.0
C374 C 0.27382 0.59811 0.70071 0.0
C375 C 0.26591 0.55166 0.69829 0.0
C376 C 0.26044 0.57405 0.76386 0.0
C377 C 0.29377 0.57143 0.79359 0.0
C378 C 0.28178 0.57274 0.83386 0.0
C379 C 0.23442 0.57676 0.84394 0.0
C380 C 0.19985 0.57926 0.81381 0.0
C381 C 0.21314 0.57769 0.77336 0.0
H382 H 0.70277 0.08218 0.31163 0.0
H383 H 0.61333 0.08292 0.20662 0.0
H384 H 0.68349 0.08447 0.16358 0.0
H385 H 0.7903 0.12328 0.27512 0.0
H386 H 0.83911 0.10694 0.29707 0.0
H387 H 0.78184 0.10559 0.31995 0.0
H388 H 0.78402 0.05804 0.31615 0.0
H389 H 0.84133 0.05925 0.29324 0.0
H390 H 0.79402 0.04325 0.26875 0.0
H391 H 0.76204 0.08828 0.13211 0.0
H392 H 0.84584 0.09173 0.11362 0.0
H393 H 0.88511 0.0862 0.23839 0.0
C394 C 0.69808 0.08263 0.27958 0.0
C395 C 0.65276 0.08251 0.26241 0.0
C396 C 0.64783 0.08294 0.22037 0.0
C397 C 0.6874 0.08386 0.19566 0.0
C398 C 0.73158 0.08402 0.21347 0.0
C399 C 0.73729 0.08319 0.25438 0.0
C400 C 0.78888 0.08341 0.26566 0.0
C401 C 0.80071 0.10616 0.29094 0.0
C402 C 0.80287 0.05956 0.28722 0.0
C403 C 0.8111 0.08484 0.22469 0.0
C404 C 0.77732 0.08529 0.19507 0.0
C405 C 0.78893 0.08768 0.15494 0.0
C406 C 0.8365 0.0897 0.14476 0.0
C407 C 0.87168 0.08902 0.1746 0.0
C408 C 0.85882 0.08639 0.21501 0.0
H409 H 0.15558 0.412 0.17933 0.0
H410 H 0.06617 0.41525 0.28415 0.0
H411 H 0.1369 0.41637 0.32715 0.0
H412 H 0.23873 0.3722 0.21705 0.0
H413 H 0.28882 0.3865 0.19379 0.0
H414 H 0.23161 0.38916 0.17128 0.0
H415 H 0.23806 0.43664 0.17247 0.0
H416 H 0.29562 0.43413 0.1947 0.0
H417 H 0.25043 0.4521 0.21884 0.0
H418 H 0.21703 0.41135 0.35846 0.0
H419 H 0.30046 0.40357 0.37555 0.0
H420 H 0.33678 0.40514 0.24988 0.0
C421 C 0.15086 0.41347 0.2113 0.0
C422 C 0.10553 0.41353 0.2285 0.0
C423 C 0.10068 0.41536 0.27042 0.0
C424 C 0.14061 0.41597 0.29503 0.0
C425 C 0.1849 0.41515 0.27712 0.0
C426 C 0.19019 0.41435 0.23616 0.0
C427 C 0.2414 0.41225 0.2243 0.0
C428 C 0.25065 0.38862 0.2002 0.0
C429 C 0.25731 0.43515 0.20122 0.0
C430 C 0.26408 0.41107 0.265 0.0
C431 C 0.231 0.4129 0.29513 0.0
C432 C 0.24334 0.41039 0.33515 0.0
C433 C 0.29069 0.40585 0.34455 0.0
C434 C 0.32499 0.40397 0.31404 0.0
C435 C 0.31143 0.40691 0.27387 0.0
H436 H 0.02983 0.01482 0.0766 0.0
H437 H 0.06046 0.0754 -0.00321 0.0
H438 H 0.06974 0.04601 0.94096 0.0
H439 H 0.10862 0.96875 0.02946 0.0
H440 H 0.06706 0.9443 0.03736 0.0
H441 H 0.06967 0.96965 0.0719 0.0
H442 H 0.98065 0.97796 0.06119 0.0
H443 H 0.97778 0.95271 0.02673 0.0
H444 H 0.95882 0.98287 0.01134 0.0
H445 H 0.06809 0.0107 0.8932 0.0
H446 H 0.05142 0.97265 0.85606 0.0
H447 H 0.02003 0.93529 0.9672 0.0
C448 C 0.03947 0.0219 0.04756 0.0
C449 C 0.04473 0.04736 0.04097 0.0
C450 C 0.05644 0.05594 0.00243 0.0
C451 C 0.06204 0.03939 0.97066 0.0
C452 C 0.05588 0.0144 0.97811 0.0
C453 C 0.04482 0.0057 0.01562 0.0
C454 C 0.03551 0.97836 0.01509 0.0
C455 C 0.07243 0.96445 0.03993 0.0
C456 C -0.01479 0.97266 0.02941 0.0
C457 C 0.04137 0.97312 0.97109 0.0
C458 C 0.05406 -0.00595 0.95041 0.0
C459 C 0.05874 -0.00586 0.90911 0.0
C460 C 0.04909 0.97242 0.8883 0.0
C461 C 0.03444 0.95101 0.9088 0.0
C462 C 0.03165 0.95128 0.95079 0.0
H463 H 0.00625 0.55158 0.97135 0.0
H464 H -0.00602 0.50973 0.86154 0.0
H465 H 0.97568 0.47259 0.90023 0.0
H466 H 0.06336 0.50658 0.02667 0.0
H467 H 0.03348 0.51283 0.07304 0.0
H468 H 0.04048 0.53688 0.03682 0.0
H469 H 0.95026 0.54412 0.0361 0.0
H470 H 0.94299 0.52014 0.07259 0.0
H471 H 0.91145 0.51875 0.02601 0.0
H472 H 0.96874 0.4391 0.95036 0.0
H473 H 0.96839 0.4119 0.00936 0.0
H474 H 0.98162 0.47552 0.08656 0.0
C475 C -0.00122 0.53471 0.95546 0.0
C476 C 0.00159 0.53355 0.91347 0.0
C477 C -0.00801 0.51108 0.89372 0.0
C478 C 0.98148 0.48986 0.91541 0.0
C479 C 0.9801 0.49147 0.95678 0.0
C480 C -0.01215 0.51335 0.97666 0.0
C481 C -0.01341 0.50974 0.0214 0.0
C482 C 0.03379 0.51692 0.04059 0.0
C483 C 0.94536 0.52404 0.04012 0.0
C484 C 0.97854 0.4823 0.02345 0.0
C485 C 0.9747 0.47213 0.98585 0.0
C486 C 0.97075 0.44687 0.98003 0.0
C487 C 0.97081 0.43157 0.01362 0.0
C488 C 0.9745 0.44166 0.05238 0.0
C489 C 0.97785 0.46736 0.05726 0.0
H490 H 0.51538 0.42741 0.47131 0.0
H491 H 0.53637 0.4676 0.36095 0.0
H492 H 0.55387 0.50503 0.39924 0.0
H493 H 0.4571 0.47388 0.52277 0.0
H494 H 0.48387 0.46794 0.57054 0.0
H495 H 0.4779 0.44346 0.53485 0.0
H496 H 0.56767 0.43507 0.53812 0.0
H497 H 0.57389 0.45942 0.57415 0.0
H498 H 0.60824 0.45981 0.52895 0.0
H499 H 0.55914 0.53916 0.44862 0.0
H500 H 0.55832 0.56707 0.50687 0.0
H501 H 0.53763 0.50464 0.58521 0.0
C502 C 0.52465 0.44395 0.45526 0.0
C503 C 0.52445 0.44457 0.41317 0.0
C504 C 0.53633 0.46665 0.39321 0.0
C505 C 0.54637 0.48804 0.41466 0.0
C506 C 0.545 0.48701 0.45608 0.0
C507 C 0.53516 0.46548 0.47625 0.0
C508 C 0.53393 0.46969 0.52087 0.0
C509 C 0.48531 0.46337 0.53825 0.0
C510 C 0.57329 0.45514 0.54175 0.0
C511 C 0.54315 0.49705 0.52244 0.0
C512 C 0.54951 0.50668 0.48474 0.0
C513 C 0.55513 0.5318 0.47839 0.0
C514 C 0.55437 0.54751 0.51154 0.0
C515 C 0.54839 0.53795 0.55042 0.0
C516 C 0.54311 0.51239 0.55584 0.0
H517 H 0.49295 0.96554 0.58071 0.0
H518 H 0.49464 0.90062 0.5054 0.0
H519 H 0.49849 0.92704 0.44562 0.0
H520 H 0.42255 0.00406 0.51625 0.0
H521 H 0.45555 0.03147 0.52712 0.0
H522 H 0.45113 0.0075 0.56391 0.0
H523 H 0.54212 0.00505 0.568 0.0
H524 H 0.54684 0.02897 0.53119 0.0
H525 H 0.57574 -0.00014 0.52314 0.0
H526 H 0.5019 0.96017 0.39459 0.0
H527 H 0.50807 -0.00205 0.35479 0.0
H528 H 0.50738 0.04158 0.46332 0.0
C529 C 0.49375 0.95689 0.55161 0.0
C530 C 0.49319 0.93106 0.54755 0.0
C531 C 0.49497 0.92039 0.50908 0.0
C532 C 0.49707 0.93523 0.47502 0.0
C533 C 0.49776 0.96062 0.48009 0.0
C534 C 0.49642 0.9714 0.51737 0.0
C535 C 0.4992 -0.00087 0.51458 0.0
C536 C 0.45443 0.01125 0.53146 0.0
C537 C 0.54362 0.00881 0.53546 0.0
C538 C 0.5023 0.00227 0.46982 0.0
C539 C 0.50106 0.97981 0.45057 0.0
C540 C 0.50299 0.97786 0.40927 0.0
C541 C 0.50642 -0.00054 0.38697 0.0
C542 C 0.50828 0.02271 0.406 0.0
C543 C 0.50621 0.02408 0.448 0.0
loop_
_geom_bond_atom_site_label_1
_geom_bond_atom_site_label_2
_geom_bond_distance
_geom_bond_site_symmetry_2
_ccdc_geom_bond_type
C0 O1 1.306 . S
C0 O3 1.160 . S
O1 C0 1.306 . S
O1 Cd2 2.228 . S
Cd2 O1 2.228 . S
Cd2 O6 2.273 1_455 S
Cd2 O10 2.277 . S
O3 C0 1.160 . S
O3 Cd4 2.203 . S
Cd4 O3 2.203 . S
Cd4 O6 2.411 1_455 S
Cd4 O7 2.333 1_455 S
Cd4 O8 2.352 . S
Cd4 O12 2.277 . S
Cd4 O13 2.356 . S
C5 O10 1.209 . S
C5 O12 1.226 . S
O6 Cd2 2.273 1_655 S
O6 Cd4 2.411 1_655 S
O6 C9 1.320 . S
O7 Cd4 2.333 1_655 S
O7 C9 1.214 . S
O8 Cd4 2.352 . S
O8 C11 1.258 . S
C9 O6 1.320 . S
C9 O7 1.214 . S
O10 Cd2 2.277 . S
O10 C5 1.209 . S
C11 O8 1.258 . S
C11 O13 1.282 . S
O12 Cd4 2.277 . S
O12 C5 1.226 . S
O13 Cd4 2.356 . S
O13 C11 1.282 . S
C14 O15 1.306 . S
C14 O17 1.160 . S
O15 C14 1.306 . S
O15 Cd16 2.228 1_655 S
Cd16 O15 2.228 1_455 S
Cd16 O20 2.273 . S
Cd16 O24 2.277 . S
O17 C14 1.160 . S
O17 Cd18 2.203 1_655 S
Cd18 O17 2.203 1_455 S
Cd18 O20 2.411 . S
Cd18 O21 2.333 . S
Cd18 O22 2.352 . S
Cd18 O26 2.277 . S
Cd18 O27 2.356 . S
C19 O24 1.209 . S
C19 O26 1.226 . S
O20 Cd16 2.273 . S
O20 Cd18 2.411 . S
O20 C23 1.320 . S
O21 Cd18 2.333 . S
O21 C23 1.214 . S
O22 Cd18 2.352 . S
O22 C25 1.258 . S
C23 O20 1.320 . S
C23 O21 1.214 . S
O24 Cd16 2.277 . S
O24 C19 1.209 . S
C25 O22 1.258 . S
C25 O27 1.282 . S
O26 Cd18 2.277 . S
O26 C19 1.226 . S
O27 Cd18 2.356 . S
O27 C25 1.282 . S
C28 O29 1.306 . S
C28 O31 1.160 . S
O29 C28 1.306 . S
O29 Cd30 2.228 . S
Cd30 O29 2.228 . S
Cd30 O34 2.273 1_455 S
Cd30 O38 2.277 . S
O31 C28 1.160 . S
O31 Cd32 2.203 . S
Cd32 O31 2.203 . S
Cd32 O34 2.411 1_455 S
Cd32 O35 2.333 1_455 S
Cd32 O36 2.352 . S
Cd32 O40 2.277 . S
Cd32 O41 2.356 . S
C33 O38 1.209 . S
C33 O40 1.226 . S
O34 Cd30 2.273 1_655 S
O34 Cd32 2.411 1_655 S
O34 C37 1.320 . S
O35 Cd32 2.333 1_655 S
O35 C37 1.214 . S
O36 Cd32 2.352 . S
O36 C39 1.258 . S
C37 O34 1.320 . S
C37 O35 1.214 . S
O38 Cd30 2.277 . S
O38 C33 1.209 . S
C39 O36 1.258 . S
C39 O41 1.282 . S
O40 Cd32 2.277 . S
O40 C33 1.226 . S
O41 Cd32 2.356 . S
O41 C39 1.282 . S
C42 O43 1.306 . S
C42 O45 1.160 . S
O43 C42 1.306 . S
O43 Cd44 2.228 1_655 S
Cd44 O43 2.228 1_455 S
Cd44 O48 2.273 . S
Cd44 O52 2.277 . S
O45 C42 1.160 . S
O45 Cd46 2.203 1_655 S
Cd46 O45 2.203 1_455 S
Cd46 O48 2.411 . S
Cd46 O49 2.333 . S
Cd46 O50 2.352 . S
Cd46 O54 2.277 . S
Cd46 O55 2.356 . S
C47 O52 1.209 . S
C47 O54 1.226 . S
O48 Cd44 2.273 . S
O48 Cd46 2.411 . S
O48 C51 1.320 . S
O49 Cd46 2.333 . S
O49 C51 1.214 . S
O50 Cd46 2.352 . S
O50 C53 1.258 . S
C51 O48 1.320 . S
C51 O49 1.214 . S
O52 Cd44 2.277 . S
O52 C47 1.209 . S
C53 O50 1.258 . S
C53 O55 1.282 . S
O54 Cd46 2.277 . S
O54 C47 1.226 . S
O55 Cd46 2.356 . S
O55 C53 1.282 . S
C56 O57 1.306 . S
C56 O59 1.160 . S
O57 C56 1.306 . S
O57 Cd58 2.228 . S
Cd58 O57 2.228 . S
Cd58 O62 2.273 . S
Cd58 O66 2.277 . S
O59 C56 1.160 . S
O59 Cd60 2.203 . S
Cd60 O59 2.203 . S
Cd60 O62 2.411 . S
Cd60 O63 2.333 . S
Cd60 O64 2.352 . S
Cd60 O68 2.277 . S
Cd60 O69 2.356 . S
C61 O66 1.209 . S
C61 O68 1.226 . S
O62 Cd58 2.273 . S
O62 Cd60 2.411 . S
O62 C65 1.320 . S
O63 Cd60 2.333 . S
O63 C65 1.214 . S
O64 Cd60 2.352 . S
O64 C67 1.258 . S
C65 O62 1.320 . S
C65 O63 1.214 . S
O66 Cd58 2.277 . S
O66 C61 1.209 . S
C67 O64 1.258 . S
C67 O69 1.282 . S
O68 Cd60 2.277 . S
O68 C61 1.226 . S
O69 Cd60 2.356 . S
O69 C67 1.282 . S
C70 O71 1.306 . S
C70 O73 1.160 . S
O71 C70 1.306 . S
O71 Cd72 2.228 . S
Cd72 O71 2.228 . S
Cd72 O76 2.273 . S
Cd72 O80 2.277 . S
O73 C70 1.160 . S
O73 Cd74 2.203 . S
Cd74 O73 2.203 . S
Cd74 O76 2.411 . S
Cd74 O77 2.333 . S
Cd74 O78 2.352 . S
Cd74 O82 2.277 . S
Cd74 O83 2.356 . S
C75 O80 1.209 . S
C75 O82 1.226 . S
O76 Cd72 2.273 . S
O76 Cd74 2.411 . S
O76 C79 1.320 . S
O77 Cd74 2.333 . S
O77 C79 1.214 . S
O78 Cd74 2.352 . S
O78 C81 1.258 . S
C79 O76 1.320 . S
C79 O77 1.214 . S
O80 Cd72 2.277 . S
O80 C75 1.209 . S
C81 O78 1.258 . S
C81 O83 1.282 . S
O82 Cd74 2.277 . S
O82 C75 1.226 . S
O83 Cd74 2.356 . S
O83 C81 1.282 . S
C84 O85 1.306 . S
C84 O87 1.160 . S
O85 C84 1.306 . S
O85 Cd86 2.228 . S
Cd86 O85 2.228 . S
Cd86 O90 2.273 . S
Cd86 O94 2.277 . S
O87 C84 1.160 . S
O87 Cd88 2.203 . S
Cd88 O87 2.203 . S
Cd88 O90 2.411 . S
Cd88 O91 2.333 . S
Cd88 O92 2.352 . S
Cd88 O96 2.277 . S
Cd88 O97 2.356 . S
C89 O94 1.209 . S
C89 O96 1.226 . S
O90 Cd86 2.273 . S
O90 Cd88 2.411 . S
O90 C93 1.320 . S
O91 Cd88 2.333 . S
O91 C93 1.214 . S
O92 Cd88 2.352 . S
O92 C95 1.258 . S
C93 O90 1.320 . S
C93 O91 1.214 . S
O94 Cd86 2.277 . S
O94 C89 1.209 . S
C95 O92 1.258 . S
C95 O97 1.282 . S
O96 Cd88 2.277 . S
O96 C89 1.226 . S
O97 Cd88 2.356 . S
O97 C95 1.282 . S
C98 O99 1.306 . S
C98 O101 1.160 . S
O99 C98 1.306 . S
O99 Cd100 2.228 . S
Cd100 O99 2.228 . S
Cd100 O104 2.273 . S
Cd100 O108 2.277 . S
O101 C98 1.160 . S
O101 Cd102 2.203 . S
Cd102 O101 2.203 . S
Cd102 O104 2.411 . S
Cd102 O105 2.333 . S
Cd102 O106 2.352 . S
Cd102 O110 2.277 . S
Cd102 O111 2.356 . S
C103 O108 1.209 . S
C103 O110 1.226 . S
O104 Cd100 2.273 . S
O104 Cd102 2.411 . S
O104 C107 1.320 . S
O105 Cd102 2.333 . S
O105 C107 1.214 . S
O106 Cd102 2.352 . S
O106 C109 1.258 . S
C107 O104 1.320 . S
C107 O105 1.214 . S
O108 Cd100 2.277 . S
O108 C103 1.209 . S
C109 O106 1.258 . S
C109 O111 1.282 . S
O110 Cd102 2.277 . S
O110 C103 1.226 . S
O111 Cd102 2.356 . S
O111 C109 1.282 . S
H112 C124 0.930 . S
H113 C126 0.930 1_655 S
H114 C127 0.930 . S
H115 C131 0.959 . S
H116 C131 0.959 . S
H117 C131 0.961 . S
H118 C132 0.961 . S
H119 C132 0.962 . S
H120 C132 0.951 1_655 S
H121 C135 0.929 . S
H122 C136 0.931 1_655 S
H123 C138 0.930 . S
C124 H112 0.930 . S
C124 C125 1.399 . S
C124 C129 1.399 . S
C125 C124 1.399 . S
C125 C126 1.376 . S
C126 H113 0.930 1_455 S
C126 C125 1.376 . S
C126 C127 1.388 1_455 S
C127 H114 0.930 . S
C127 C126 1.388 1_655 S
C127 C128 1.390 1_655 S
C128 C127 1.390 1_455 S
C128 C129 1.394 . S
C128 C134 1.465 . S
C129 C124 1.399 . S
C129 C128 1.394 . S
C129 C130 1.516 . S
C130 C129 1.516 . S
C130 C131 1.502 . S
C130 C132 1.567 . S
C130 C133 1.526 . S
C131 H115 0.959 . S
C131 H116 0.959 . S
C131 H117 0.961 . S
C131 C130 1.502 . S
C132 H118 0.961 . S
C132 H119 0.962 . S
C132 H120 0.951 1_455 S
C132 C130 1.567 . S
C133 C130 1.526 . S
C133 C134 1.396 . S
C133 C138 1.390 . S
C134 C128 1.465 . S
C134 C133 1.396 . S
C134 C135 1.399 1_455 S
C135 H121 0.929 . S
C135 C134 1.399 1_655 S
C135 C136 1.385 1_655 S
C136 H122 0.931 1_455 S
C136 C135 1.385 1_455 S
C136 C137 1.389 . S
C137 C136 1.389 . S
C137 C138 1.387 . S
C138 H123 0.930 . S
C138 C133 1.390 . S
C138 C137 1.387 . S
H139 C151 0.926 1_655 S
H140 C153 0.930 . S
H141 C154 0.930 . S
H142 C158 0.959 . S
H143 C158 0.959 . S
H144 C158 0.961 . S
H145 C159 0.960 . S
H146 C159 0.961 . S
H147 C159 0.959 . S
H148 C162 0.929 . S
H149 C163 0.931 . S
H150 C165 0.930 . S
C151 H139 0.926 1_455 S
C151 C152 1.399 . S
C151 C156 1.399 . S
C152 C151 1.399 . S
C152 C153 1.376 . S
C153 H140 0.930 . S
C153 C152 1.376 . S
C153 C154 1.388 . S
C154 H141 0.930 . S
C154 C153 1.388 . S
C154 C155 1.390 . S
C155 C154 1.390 . S
C155 C156 1.394 . S
C155 C161 1.465 . S
C156 C151 1.399 . S
C156 C155 1.394 . S
C156 C157 1.516 . S
C157 C156 1.516 . S
C157 C158 1.502 1_455 S
C157 C159 1.561 . S
C157 C160 1.526 . S
C158 H142 0.959 . S
C158 H143 0.959 . S
C158 H144 0.961 . S
C158 C157 1.502 1_655 S
C159 H145 0.960 . S
C159 H146 0.961 . S
C159 H147 0.959 . S
C159 C157 1.561 . S
C160 C157 1.526 . S
C160 C161 1.396 . S
C160 C165 1.390 . S
C161 C155 1.465 . S
C161 C160 1.396 . S
C161 C162 1.399 . S
C162 H148 0.929 . S
C162 C161 1.399 . S
C162 C163 1.385 . S
C163 H149 0.931 . S
C163 C162 1.385 . S
C163 C164 1.389 . S
C164 C163 1.389 . S
C164 C165 1.387 . S
C165 H150 0.930 . S
C165 C160 1.390 . S
C165 C164 1.387 . S
H166 C178 0.930 . S
H167 C180 0.930 . S
H168 C181 0.930 . S
H169 C185 0.959 . S
H170 C185 0.959 . S
H171 C185 0.961 . S
H172 C186 0.960 . S
H173 C186 0.961 . S
H174 C186 0.959 . S
H175 C189 0.929 . S
H176 C190 0.931 . S
H177 C192 0.930 . S
C178 H166 0.930 . S
C178 C179 1.399 . S
C178 C183 1.399 . S
C179 C178 1.399 . S
C179 C180 1.376 . S
C180 H167 0.930 . S
C180 C179 1.376 . S
C180 C181 1.388 . S
C181 H168 0.930 . S
C181 C180 1.388 . S
C181 C182 1.390 . S
C182 C181 1.390 . S
C182 C183 1.394 . S
C182 C188 1.465 . S
C183 C178 1.399 . S
C183 C182 1.394 . S
C183 C184 1.516 . S
C184 C183 1.516 . S
C184 C185 1.502 . S
C184 C186 1.561 . S
C184 C187 1.526 . S
C185 H169 0.959 . S
C185 H170 0.959 . S
C185 H171 0.961 . S
C185 C184 1.502 . S
C186 H172 0.960 . S
C186 H173 0.961 . S
C186 H174 0.959 . S
C186 C184 1.561 . S
C187 C184 1.526 . S
C187 C188 1.396 . S
C187 C192 1.390 . S
C188 C182 1.465 . S
C188 C187 1.396 . S
C188 C189 1.399 . S
C189 H175 0.929 . S
C189 C188 1.399 . S
C189 C190 1.385 . S
C190 H176 0.931 . S
C190 C189 1.385 . S
C190 C191 1.389 . S
C191 C190 1.389 . S
C191 C192 1.387 . S
C192 H177 0.930 . S
C192 C187 1.390 . S
C192 C191 1.387 . S
H193 C205 0.930 . S
H194 C207 0.930 . S
H195 C208 0.930 . S
H196 C212 0.959 . S
H197 C212 0.959 . S
H198 C212 0.961 . S
H199 C213 0.960 . S
H200 C213 0.961 . S
H201 C213 0.959 . S
H202 C216 0.929 . S
H203 C217 0.931 . S
H204 C219 0.930 . S
C205 H193 0.930 . S
C205 C206 1.399 . S
C205 C210 1.399 . S
C206 C205 1.399 . S
C206 C207 1.376 . S
C207 H194 0.930 . S
C207 C206 1.376 . S
C207 C208 1.388 . S
C208 H195 0.930 . S
C208 C207 1.388 . S
C208 C209 1.390 . S
C209 C208 1.390 . S
C209 C210 1.394 . S
C209 C215 1.465 . S
C210 C205 1.399 . S
C210 C209 1.394 . S
C210 C211 1.516 . S
C211 C210 1.516 . S
C211 C212 1.502 . S
C211 C213 1.561 . S
C211 C214 1.526 . S
C212 H196 0.959 . S
C212 H197 0.959 . S
C212 H198 0.961 . S
C212 C211 1.502 . S
C213 H199 0.960 . S
C213 H200 0.961 . S
C213 H201 0.959 . S
C213 C211 1.561 . S
C214 C211 1.526 . S
C214 C215 1.396 . S
C214 C219 1.390 . S
C215 C209 1.465 . S
C215 C214 1.396 . S
C215 C216 1.399 . S
C216 H202 0.929 . S
C216 C215 1.399 . S
C216 C217 1.385 . S
C217 H203 0.931 . S
C217 C216 1.385 . S
C217 C218 1.389 . S
C218 C217 1.389 . S
C218 C219 1.387 . S
C219 H204 0.930 . S
C219 C214 1.390 . S
C219 C218 1.387 . S
H220 C232 0.930 . S
H221 C234 0.930 . S
H222 C235 0.930 . S
H223 C239 0.959 . S
H224 C239 0.959 . S
H225 C239 0.961 . S
H226 C240 0.960 . S
H227 C240 0.961 . S
H228 C240 0.959 . S
H229 C243 0.929 . S
H230 C244 0.931 . S
H231 C246 0.930 . S
C232 H220 0.930 . S
C232 C233 1.399 . S
C232 C237 1.399 . S
C233 C232 1.399 . S
C233 C234 1.376 . S
C234 H221 0.930 . S
C234 C233 1.376 . S
C234 C235 1.388 . S
C235 H222 0.930 . S
C235 C234 1.388 . S
C235 C236 1.390 . S
C236 C235 1.390 . S
C236 C237 1.394 . S
C236 C242 1.465 . S
C237 C232 1.399 . S
C237 C236 1.394 . S
C237 C238 1.516 . S
C238 C237 1.516 . S
C238 C239 1.502 . S
C238 C240 1.561 . S
C238 C241 1.526 . S
C239 H223 0.959 . S
C239 H224 0.959 . S
C239 H225 0.961 . S
C239 C238 1.502 . S
C240 H226 0.960 . S
C240 H227 0.961 . S
C240 H228 0.959 . S
C240 C238 1.561 . S
C241 C238 1.526 . S
C241 C242 1.396 . S
C241 C246 1.390 . S
C242 C236 1.465 . S
C242 C241 1.396 . S
C242 C243 1.399 . S
C243 H229 0.929 . S
C243 C242 1.399 . S
C243 C244 1.385 . S
C244 H230 0.931 . S
C244 C243 1.385 . S
C244 C245 1.389 . S
C245 C244 1.389 . S
C245 C246 1.387 . S
C246 H231 0.930 . S
C246 C241 1.390 . S
C246 C245 1.387 . S
H247 C259 0.930 . S
H248 C261 0.930 . S
H249 C262 0.930 . S
H250 C266 0.959 . S
H251 C266 0.959 . S
H252 C266 0.961 . S
H253 C267 0.960 . S
H254 C267 0.961 . S
H255 C267 0.959 . S
H256 C270 0.929 . S
H257 C271 0.931 . S
H258 C273 0.930 . S
C259 H247 0.930 . S
C259 C260 1.399 . S
C259 C264 1.399 . S
C260 C259 1.399 . S
C260 C261 1.376 . S
C261 H248 0.930 . S
C261 C260 1.376 . S
C261 C262 1.388 . S
C262 H249 0.930 . S
C262 C261 1.388 . S
C262 C263 1.390 . S
C263 C262 1.390 . S
C263 C264 1.394 . S
C263 C269 1.465 . S
C264 C259 1.399 . S
C264 C263 1.394 . S
C264 C265 1.516 . S
C265 C264 1.516 . S
C265 C266 1.502 . S
C265 C267 1.561 . S
C265 C268 1.526 . S
C266 H250 0.959 . S
C266 H251 0.959 . S
C266 H252 0.961 . S
C266 C265 1.502 . S
C267 H253 0.960 . S
C267 H254 0.961 . S
C267 H255 0.959 . S
C267 C265 1.561 . S
C268 C265 1.526 . S
C268 C269 1.396 . S
C268 C273 1.390 . S
C269 C263 1.465 . S
C269 C268 1.396 . S
C269 C270 1.399 . S
C270 H256 0.929 . S
C270 C269 1.399 . S
C270 C271 1.385 . S
C271 H257 0.931 . S
C271 C270 1.385 . S
C271 C272 1.389 . S
C272 C271 1.389 . S
C272 C273 1.387 . S
C273 H258 0.930 . S
C273 C268 1.390 . S
C273 C272 1.387 . S
H274 C286 0.930 . S
H275 C288 0.930 . S
H276 C289 0.930 . S
H277 C293 0.959 . S
H278 C293 0.959 . S
H279 C293 0.961 . S
H280 C294 0.960 . S
H281 C294 0.961 . S
H282 C294 0.959 . S
H283 C297 0.929 . S
H284 C298 0.931 . S
H285 C300 0.930 . S
C286 H274 0.930 . S
C286 C287 1.399 . S
C286 C291 1.399 . S
C287 C286 1.399 . S
C287 C288 1.376 . S
C288 H275 0.930 . S
C288 C287 1.376 . S
C288 C289 1.388 . S
C289 H276 0.930 . S
C289 C288 1.388 . S
C289 C290 1.390 . S
C290 C289 1.390 . S
C290 C291 1.394 . S
C290 C296 1.465 . S
C291 C286 1.399 . S
C291 C290 1.394 . S
C291 C292 1.516 . S
C292 C291 1.516 . S
C292 C293 1.502 . S
C292 C294 1.561 . S
C292 C295 1.526 . S
C293 H277 0.959 . S
C293 H278 0.959 . S
C293 H279 0.961 . S
C293 C292 1.502 . S
C294 H280 0.960 . S
C294 H281 0.961 . S
C294 H282 0.959 . S
C294 C292 1.561 . S
C295 C292 1.526 . S
C295 C296 1.396 . S
C295 C300 1.390 . S
C296 C290 1.465 . S
C296 C295 1.396 . S
C296 C297 1.399 . S
C297 H283 0.929 . S
C297 C296 1.399 . S
C297 C298 1.385 . S
C298 H284 0.931 . S
C298 C297 1.385 . S
C298 C299 1.389 . S
C299 C298 1.389 . S
C299 C300 1.387 . S
C300 H285 0.930 . S
C300 C295 1.390 . S
C300 C299 1.387 . S
H301 C313 0.930 . S
H302 C315 0.930 . S
H303 C316 0.930 . S
H304 C320 0.959 . S
H305 C320 0.959 . S
H306 C320 0.961 . S
H307 C321 0.960 . S
H308 C321 0.961 . S
H309 C321 0.959 . S
H310 C324 0.929 . S
H311 C325 0.931 . S
H312 C327 0.930 . S
C313 H301 0.930 . S
C313 C314 1.399 . S
C313 C318 1.399 . S
C314 C313 1.399 . S
C314 C315 1.376 . S
C315 H302 0.930 . S
C315 C314 1.376 . S
C315 C316 1.388 . S
C316 H303 0.930 . S
C316 C315 1.388 . S
C316 C317 1.390 . S
C317 C316 1.390 . S
C317 C318 1.394 . S
C317 C323 1.465 . S
C318 C313 1.399 . S
C318 C317 1.394 . S
C318 C319 1.516 . S
C319 C318 1.516 . S
C319 C320 1.502 . S
C319 C321 1.561 . S
C319 C322 1.526 . S
C320 H304 0.959 . S
C320 H305 0.959 . S
C320 H306 0.961 . S
C320 C319 1.502 . S
C321 H307 0.960 . S
C321 H308 0.961 . S
C321 H309 0.959 . S
C321 C319 1.561 . S
C322 C319 1.526 . S
C322 C323 1.396 . S
C322 C327 1.390 . S
C323 C317 1.465 . S
C323 C322 1.396 . S
C323 C324 1.399 . S
C324 H310 0.929 . S
C324 C323 1.399 . S
C324 C325 1.385 . S
C325 H311 0.931 . S
C325 C324 1.385 . S
C325 C326 1.389 . S
C326 C325 1.389 . S
C326 C327 1.387 . S
C327 H312 0.930 . S
C327 C322 1.390 . S
C327 C326 1.387 . S
H328 C340 0.930 . S
H329 C342 0.930 . S
H330 C343 0.930 . S
H331 C347 0.959 . S
H332 C347 0.959 . S
H333 C347 0.961 . S
H334 C348 0.960 . S
H335 C348 0.961 . S
H336 C348 0.959 . S
H337 C351 0.929 . S
H338 C352 0.931 . S
H339 C354 0.930 . S
C340 H328 0.930 . S
C340 C341 1.399 . S
C340 C345 1.399 . S
C341 C340 1.399 . S
C341 C342 1.376 . S
C342 H329 0.930 . S
C342 C341 1.376 . S
C342 C343 1.388 . S
C343 H330 0.930 . S
C343 C342 1.388 . S
C343 C344 1.390 . S
C344 C343 1.390 . S
C344 C345 1.394 . S
C344 C350 1.465 . S
C345 C340 1.399 . S
C345 C344 1.394 . S
C345 C346 1.516 . S
C346 C345 1.516 . S
C346 C347 1.502 . S
C346 C348 1.561 . S
C346 C349 1.526 . S
C347 H331 0.959 . S
C347 H332 0.959 . S
C347 H333 0.961 . S
C347 C346 1.502 . S
C348 H334 0.960 . S
C348 H335 0.961 . S
C348 H336 0.959 . S
C348 C346 1.561 . S
C349 C346 1.526 . S
C349 C350 1.396 . S
C349 C354 1.390 . S
C350 C344 1.465 . S
C350 C349 1.396 . S
C350 C351 1.399 . S
C351 H337 0.929 . S
C351 C350 1.399 . S
C351 C352 1.385 . S
C352 H338 0.931 . S
C352 C351 1.385 . S
C352 C353 1.389 . S
C353 C352 1.389 . S
C353 C354 1.387 . S
C354 H339 0.930 . S
C354 C349 1.390 . S
C354 C353 1.387 . S
H355 C367 0.930 . S
H356 C369 0.930 . S
H357 C370 0.930 . S
H358 C374 0.959 . S
H359 C374 0.959 . S
H360 C374 0.961 . S
H361 C375 0.960 . S
H362 C375 0.961 . S
H363 C375 0.959 . S
H364 C378 0.929 . S
H365 C379 0.931 . S
H366 C381 0.930 . S
C367 H355 0.930 . S
C367 C368 1.399 . S
C367 C372 1.399 . S
C368 C367 1.399 . S
C368 C369 1.376 . S
C369 H356 0.930 . S
C369 C368 1.376 . S
C369 C370 1.388 . S
C370 H357 0.930 . S
C370 C369 1.388 . S
C370 C371 1.390 . S
C371 C370 1.390 . S
C371 C372 1.394 . S
C371 C377 1.465 . S
C372 C367 1.399 . S
C372 C371 1.394 . S
C372 C373 1.516 . S
C373 C372 1.516 . S
C373 C374 1.502 . S
C373 C375 1.561 . S
C373 C376 1.526 . S
C374 H358 0.959 . S
C374 H359 0.959 . S
C374 H360 0.961 . S
C374 C373 1.502 . S
C375 H361 0.960 . S
C375 H362 0.961 . S
C375 H363 0.959 . S
C375 C373 1.561 . S
C376 C373 1.526 . S
C376 C377 1.396 . S
C376 C381 1.390 . S
C377 C371 1.465 . S
C377 C376 1.396 . S
C377 C378 1.399 . S
C378 H364 0.929 . S
C378 C377 1.399 . S
C378 C379 1.385 . S
C379 H365 0.931 . S
C379 C378 1.385 . S
C379 C380 1.389 . S
C380 C379 1.389 . S
C380 C381 1.387 . S
C381 H366 0.930 . S
C381 C376 1.390 . S
C381 C380 1.387 . S
H382 C394 0.930 . S
H383 C396 0.930 . S
H384 C397 0.930 . S
H385 C401 0.959 . S
H386 C401 0.959 . S
H387 C401 0.961 . S
H388 C402 0.960 . S
H389 C402 0.961 . S
H390 C402 0.959 . S
H391 C405 0.929 . S
H392 C406 0.931 . S
H393 C408 0.930 . S
C394 H382 0.930 . S
C394 C395 1.399 . S
C394 C399 1.399 . S
C395 C394 1.399 . S
C395 C396 1.376 . S
C396 H383 0.930 . S
C396 C395 1.376 . S
C396 C397 1.388 . S
C397 H384 0.930 . S
C397 C396 1.388 . S
C397 C398 1.390 . S
C398 C397 1.390 . S
C398 C399 1.394 . S
C398 C404 1.465 . S
C399 C394 1.399 . S
C399 C398 1.394 . S
C399 C400 1.516 . S
C400 C399 1.516 . S
C400 C401 1.502 . S
C400 C402 1.561 . S
C400 C403 1.526 . S
C401 H385 0.959 . S
C401 H386 0.959 . S
C401 H387 0.961 . S
C401 C400 1.502 . S
C402 H388 0.960 . S
C402 H389 0.961 . S
C402 H390 0.959 . S
C402 C400 1.561 . S
C403 C400 1.526 . S
C403 C404 1.396 . S
C403 C408 1.390 . S
C404 C398 1.465 . S
C404 C403 1.396 . S
C404 C405 1.399 . S
C405 H391 0.929 . S
C405 C404 1.399 . S
C405 C406 1.385 . S
C406 H392 0.931 . S
C406 C405 1.385 . S
C406 C407 1.389 . S
C407 C406 1.389 . S
C407 C408 1.387 . S
C408 H393 0.930 . S
C408 C403 1.390 . S
C408 C407 1.387 . S
H409 C421 0.930 . S
H410 C423 0.930 . S
H411 C424 0.930 . S
H412 C428 0.959 . S
H413 C428 0.959 . S
H414 C428 0.961 . S
H415 C429 0.960 . S
H416 C429 0.961 . S
H417 C429 0.959 . S
H418 C432 0.929 . S
H419 C433 0.931 . S
H420 C435 0.930 . S
C421 H409 0.930 . S
C421 C422 1.399 . S
C421 C426 1.399 . S
C422 C421 1.399 . S
C422 C423 1.376 . S
C423 H410 0.930 . S
C423 C422 1.376 . S
C423 C424 1.388 . S
C424 H411 0.930 . S
C424 C423 1.388 . S
C424 C425 1.390 . S
C425 C424 1.390 . S
C425 C426 1.394 . S
C425 C431 1.465 . S
C426 C421 1.399 . S
C426 C425 1.394 . S
C426 C427 1.516 . S
C427 C426 1.516 . S
C427 C428 1.502 . S
C427 C429 1.561 . S
C427 C430 1.526 . S
C428 H412 0.959 . S
C428 H413 0.959 . S
C428 H414 0.961 . S
C428 C427 1.502 . S
C429 H415 0.960 . S
C429 H416 0.961 . S
C429 H417 0.959 . S
C429 C427 1.561 . S
C430 C427 1.526 . S
C430 C431 1.396 . S
C430 C435 1.390 . S
C431 C425 1.465 . S
C431 C430 1.396 . S
C431 C432 1.399 . S
C432 H418 0.929 . S
C432 C431 1.399 . S
C432 C433 1.385 . S
C433 H419 0.931 . S
C433 C432 1.385 . S
C433 C434 1.389 . S
C434 C433 1.389 . S
C434 C435 1.387 . S
C435 H420 0.930 . S
C435 C430 1.390 . S
C435 C434 1.387 . S
H436 C448 0.930 . S
H437 C450 0.930 . S
H438 C451 0.930 . S
H439 C455 0.959 . S
H440 C455 0.959 . S
H441 C455 0.961 . S
H442 C456 0.960 . S
H443 C456 0.961 . S
H444 C456 0.959 . S
H445 C459 0.929 1_545 S
H446 C460 0.930 . S
H447 C462 0.930 . S
C448 H436 0.930 . S
C448 C449 1.399 . S
C448 C453 1.399 . S
C449 C448 1.399 . S
C449 C450 1.376 1_455 S
C450 H437 0.930 . S
C450 C449 1.376 1_655 S
C450 C451 1.388 1_554 S
C451 H438 0.930 . S
C451 C450 1.388 1_556 S
C451 C452 1.390 1_656 S
C452 C451 1.390 1_454 S
C452 C453 1.394 . S
C452 C458 1.465 1_544 S
C453 C448 1.399 . S
C453 C452 1.394 . S
C453 C454 1.516 1_545 S
C454 C453 1.516 1_565 S
C454 C455 1.502 . S
C454 C456 1.561 1_455 S
C454 C457 1.526 1_554 S
C455 H439 0.959 . S
C455 H440 0.959 . S
C455 H441 0.961 . S
C455 C454 1.502 . S
C456 H442 0.960 . S
C456 H443 0.961 . S
C456 H444 0.959 . S
C456 C454 1.561 1_655 S
C457 C454 1.526 1_556 S
C457 C458 1.396 . S
C457 C462 1.390 . S
C458 C452 1.465 1_566 S
C458 C457 1.396 . S
C458 C459 1.399 1_455 S
C459 H445 0.929 1_565 S
C459 C458 1.399 1_655 S
C459 C460 1.385 . S
C460 H446 0.930 . S
C460 C459 1.385 . S
C460 C461 1.390 1_655 S
C461 C460 1.390 1_455 S
C461 C462 1.387 . S
C462 H447 0.930 . S
C462 C457 1.390 . S
C462 C461 1.387 . S
H463 C475 0.930 . S
H464 C477 0.930 1_655 S
H465 C478 0.930 . S
H466 C482 0.959 . S
H467 C482 0.959 . S
H468 C482 0.961 . S
H469 C483 0.960 . S
H470 C483 0.961 . S
H471 C483 0.959 1_655 S
H472 C486 0.941 . S
H473 C487 0.931 1_655 S
H474 C489 0.930 . S
C475 H463 0.930 . S
C475 C476 1.399 . S
C475 C480 1.399 . S
C476 C475 1.399 . S
C476 C477 1.376 . S
C477 H464 0.930 1_455 S
C477 C476 1.376 . S
C477 C478 1.388 1_455 S
C478 H465 0.930 . S
C478 C477 1.388 1_655 S
C478 C479 1.390 1_655 S
C479 C478 1.390 1_455 S
C479 C480 1.394 . S
C479 C485 1.465 1_556 S
C480 C475 1.399 . S
C480 C479 1.394 . S
C480 C481 1.516 1_556 S
C481 C480 1.516 1_554 S
C481 C482 1.502 . S
C481 C483 1.561 . S
C481 C484 1.526 . S
C482 H466 0.959 . S
C482 H467 0.959 . S
C482 H468 0.961 . S
C482 C481 1.502 . S
C483 H469 0.960 . S
C483 H470 0.961 . S
C483 H471 0.959 1_455 S
C483 C481 1.561 . S
C484 C481 1.526 . S
C484 C485 1.396 . S
C484 C489 1.390 . S
C485 C479 1.465 1_554 S
C485 C484 1.396 . S
C485 C486 1.398 1_454 S
C486 H472 0.941 . S
C486 C485 1.398 1_656 S
C486 C487 1.374 1_656 S
C487 H473 0.931 1_455 S
C487 C486 1.374 1_454 S
C487 C488 1.389 . S
C488 C487 1.389 . S
C488 C489 1.387 . S
C489 H474 0.930 . S
C489 C484 1.390 . S
C489 C488 1.387 . S
H490 C502 0.930 . S
H491 C504 0.930 . S
H492 C505 0.930 . S
H493 C509 0.959 . S
H494 C509 0.959 . S
H495 C509 0.961 . S
H496 C510 0.960 . S
H497 C510 0.961 . S
H498 C510 0.959 . S
H499 C513 0.929 . S
H500 C514 0.931 . S
H501 C516 0.930 . S
C502 H490 0.930 . S
C502 C503 1.399 . S
C502 C507 1.399 . S
C503 C502 1.399 . S
C503 C504 1.376 . S
C504 H491 0.930 . S
C504 C503 1.376 . S
C504 C505 1.388 . S
C505 H492 0.930 . S
C505 C504 1.388 . S
C505 C506 1.390 . S
C506 C505 1.390 . S
C506 C507 1.394 . S
C506 C512 1.465 . S
C507 C502 1.399 . S
C507 C506 1.394 . S
C507 C508 1.516 . S
C508 C507 1.516 . S
C508 C509 1.502 . S
C508 C510 1.561 . S
C508 C511 1.526 . S
C509 H493 0.959 . S
C509 H494 0.959 . S
C509 H495 0.961 . S
C509 C508 1.502 . S
C510 H496 0.960 . S
C510 H497 0.961 . S
C510 H498 0.959 . S
C510 C508 1.561 . S
C511 C508 1.526 . S
C511 C512 1.396 . S
C511 C516 1.390 . S
C512 C506 1.465 . S
C512 C511 1.396 . S
C512 C513 1.399 . S
C513 H499 0.929 . S
C513 C512 1.399 . S
C513 C514 1.385 . S
C514 H500 0.931 . S
C514 C513 1.385 . S
C514 C515 1.389 . S
C515 C514 1.389 . S
C515 C516 1.387 . S
C516 H501 0.930 . S
C516 C511 1.390 . S
C516 C515 1.387 . S
H517 C529 0.930 . S
H518 C531 0.930 . S
H519 C532 0.930 . S
H520 C536 0.959 . S
H521 C536 0.959 . S
H522 C536 0.961 . S
H523 C537 0.960 . S
H524 C537 0.961 . S
H525 C537 0.959 . S
H526 C540 0.929 1_565 S
H527 C541 0.931 . S
H528 C543 0.930 . S
C529 H517 0.930 . S
C529 C530 1.399 . S
C529 C534 1.399 . S
C530 C529 1.399 . S
C530 C531 1.376 . S
C531 H518 0.930 . S
C531 C530 1.376 . S
C531 C532 1.388 . S
C532 H519 0.930 . S
C532 C531 1.388 . S
C532 C533 1.390 . S
C533 C532 1.390 . S
C533 C534 1.394 . S
C533 C539 1.465 1_565 S
C534 C529 1.399 . S
C534 C533 1.394 . S
C534 C535 1.516 1_565 S
C535 C534 1.516 1_545 S
C535 C536 1.502 . S
C535 C537 1.561 . S
C535 C538 1.526 . S
C536 H520 0.959 . S
C536 H521 0.959 . S
C536 H522 0.961 . S
C536 C535 1.502 . S
C537 H523 0.960 . S
C537 H524 0.961 . S
C537 H525 0.959 . S
C537 C535 1.561 . S
C538 C535 1.526 . S
C538 C539 1.396 . S
C538 C543 1.390 . S
C539 C533 1.465 1_545 S
C539 C538 1.396 . S
C539 C540 1.399 . S
C540 H526 0.929 1_545 S
C540 C539 1.399 . S
C540 C541 1.385 . S
C541 H527 0.931 . S
C541 C540 1.385 . S
C541 C542 1.389 . S
C542 C541 1.389 . S
C542 C543 1.387 . S
C543 H528 0.930 . S
C543 C538 1.390 . S
C543 C542 1.387 . S
C125 C19 1.442 . S
C137 C5 1.444 . S
C152 C33 1.442 . S
C164 C47 1.444 . S
C179 C61 1.443 . S
C191 C75 1.445 . S
C206 C89 1.442 . S
C218 C103 1.444 . S
C233 C98 1.422 . S
C245 C0 1.430 . S
C260 C84 1.424 . S
C272 C14 1.431 . S
C287 C28 1.425 . S
C299 C70 1.431 . S
C314 C56 1.427 . S
C326 C42 1.415 . S
C341 C79 1.425 . S
C353 C37 1.399 . S
C368 C65 1.407 . S
C380 C51 1.419 . S
C395 C107 1.426 . S
C407 C9 1.395 . S
C422 C23 1.417 . S
C434 C93 1.399 . S
C449 C11 1.372 . S
C461 C39 1.384 . S
C476 C53 1.386 . S
C488 C25 1.376 . S
C503 C95 1.386 . S
C515 C67 1.375 . S
C530 C81 1.373 . S
C542 C109 1.381 . S
