# Generated by pormake.
# Topology gis, (4)-cn, num edge types: 1
# Building blocks:
#     Node 0, Type 0, BuildingBlock: UXUYUI_clean_sbu_0, # of connection points: 4
#     Node 1, Type 0, BuildingBlock: UXUYUI_clean_sbu_0, # of connection points: 4
#     Node 2, Type 0, BuildingBlock: UXUYUI_clean_sbu_0, # of connection points: 4
#     Node 3, Type 0, BuildingBlock: UXUYUI_clean_sbu_0, # of connection points: 4
#     Node 4, Type 0, BuildingBlock: UXUYUI_clean_sbu_0, # of connection points: 4
#     Node 5, Type 0, BuildingBlock: UXUYUI_clean_sbu_0, # of connection points: 4
#     Node 6, Type 0, BuildingBlock: UXUYUI_clean_sbu_0, # of connection points: 4
#     Node 7, Type 0, BuildingBlock: UXUYUI_clean_sbu_0, # of connection points: 4
#     Node 8, Type 0, BuildingBlock: UXUYUI_clean_sbu_0, # of connection points: 4
#     Node 9, Type 0, BuildingBlock: UXUYUI_clean_sbu_0, # of connection points: 4
#     Node 10, Type 0, BuildingBlock: UXUYUI_clean_sbu_0, # of connection points: 4
#     Node 11, Type 0, BuildingBlock: UXUYUI_clean_sbu_0, # of connection points: 4
#     Node 12, Type 0, BuildingBlock: UXUYUI_clean_sbu_0, # of connection points: 4
#     Node 13, Type 0, BuildingBlock: UXUYUI_clean_sbu_0, # of connection points: 4
#     Node 14, Type 0, BuildingBlock: UXUYUI_clean_sbu_0, # of connection points: 4
#     Node 15, Type 0, BuildingBlock: UXUYUI_clean_sbu_0, # of connection points: 4
#     Edge 16, Type (0, 0), BuildingBlock: MIFKUJ_clean_linker_0, # of connection points: 2
#     Edge 17, Type (0, 0), BuildingBlock: MIFKUJ_clean_linker_0, # of connection points: 2
#     Edge 18, Type (0, 0), BuildingBlock: MIFKUJ_clean_linker_0, # of connection points: 2
#     Edge 19, Type (0, 0), BuildingBlock: MIFKUJ_clean_linker_0, # of connection points: 2
#     Edge 20, Type (0, 0), BuildingBlock: MIFKUJ_clean_linker_0, # of connection points: 2
#     Edge 21, Type (0, 0), BuildingBlock: MIFKUJ_clean_linker_0, # of connection points: 2
#     Edge 22, Type (0, 0), BuildingBlock: MIFKUJ_clean_linker_0, # of connection points: 2
#     Edge 23, Type (0, 0), BuildingBlock: MIFKUJ_clean_linker_0, # of connection points: 2
#     Edge 24, Type (0, 0), BuildingBlock: MIFKUJ_clean_linker_0, # of connection points: 2
#     Edge 25, Type (0, 0), BuildingBlock: MIFKUJ_clean_linker_0, # of connection points: 2
#     Edge 26, Type (0, 0), BuildingBlock: MIFKUJ_clean_linker_0, # of connection points: 2
#     Edge 27, Type (0, 0), BuildingBlock: MIFKUJ_clean_linker_0, # of connection points: 2
#     Edge 28, Type (0, 0), BuildingBlock: MIFKUJ_clean_linker_0, # of connection points: 2
#     Edge 29, Type (0, 0), BuildingBlock: MIFKUJ_clean_linker_0, # of connection points: 2
#     Edge 30, Type (0, 0), BuildingBlock: MIFKUJ_clean_linker_0, # of connection points: 2
#     Edge 31, Type (0, 0), BuildingBlock: MIFKUJ_clean_linker_0, # of connection points: 2
#     Edge 32, Type (0, 0), BuildingBlock: MIFKUJ_clean_linker_0, # of connection points: 2
#     Edge 33, Type (0, 0), BuildingBlock: MIFKUJ_clean_linker_0, # of connection points: 2
#     Edge 34, Type (0, 0), BuildingBlock: MIFKUJ_clean_linker_0, # of connection points: 2
#     Edge 35, Type (0, 0), BuildingBlock: MIFKUJ_clean_linker_0, # of connection points: 2
#     Edge 36, Type (0, 0), BuildingBlock: MIFKUJ_clean_linker_0, # of connection points: 2
#     Edge 37, Type (0, 0), BuildingBlock: MIFKUJ_clean_linker_0, # of connection points: 2
#     Edge 38, Type (0, 0), BuildingBlock: MIFKUJ_clean_linker_0, # of connection points: 2
#     Edge 39, Type (0, 0), BuildingBlock: MIFKUJ_clean_linker_0, # of connection points: 2
#     Edge 40, Type (0, 0), BuildingBlock: MIFKUJ_clean_linker_0, # of connection points: 2
#     Edge 41, Type (0, 0), BuildingBlock: MIFKUJ_clean_linker_0, # of connection points: 2
#     Edge 42, Type (0, 0), BuildingBlock: MIFKUJ_clean_linker_0, # of connection points: 2
#     Edge 43, Type (0, 0), BuildingBlock: MIFKUJ_clean_linker_0, # of connection points: 2
#     Edge 44, Type (0, 0), BuildingBlock: MIFKUJ_clean_linker_0, # of connection points: 2
#     Edge 45, Type (0, 0), BuildingBlock: MIFKUJ_clean_linker_0, # of connection points: 2
#     Edge 46, Type (0, 0), BuildingBlock: MIFKUJ_clean_linker_0, # of connection points: 2
#     Edge 47, Type (0, 0), BuildingBlock: MIFKUJ_clean_linker_0, # of connection points: 2
# Relax obj value: 0.245
# Max RMSD: 0.177
# Mean RMSD: 0.176
data_MOF--net-gis--node1-UXUYUI_clean_sbu_0--edge1-MIFKUJ_clean_linker_0
_symmetry_space_group_name_H-M    P1
_symmetry_Int_Tables_number       1
_symmetry_cell_setting            triclinic
loop_
_symmetry_equiv_pos_as_xyz
'x, y, z'
_cell_length_a     80.466272
_cell_length_b     80.485067
_cell_length_c     85.681145
_cell_angle_alpha  90.000895
_cell_angle_beta   89.996985
_cell_angle_gamma 89.991947
loop_
_atom_site_label
_atom_site_type_symbol
_atom_site_fract_x
_atom_site_fract_y
_atom_site_fract_z
_atom_type_partial_charge
Li0 Li 0.16847 0.60178 0.12121 0.0
Li1 Li 0.17279 0.57569 0.13682 0.0
Li2 Li 0.17474 0.57585 0.10933 0.0
Li3 Li 0.14796 0.57875 0.12038 0.0
C4 C 0.20382 0.58729 0.11692 0.0
N5 N 0.23354 0.58402 0.1011 0.0
C6 C 0.21402 0.57354 0.11965 0.0
C7 C 0.20878 0.59945 0.10625 0.0
C8 C 0.22898 0.57209 0.11149 0.0
C9 C 0.22385 0.59756 0.09835 0.0
C10 C 0.14967 0.6009 0.15123 0.0
C11 C 0.12957 0.60619 0.17152 0.0
N12 N 0.13961 0.61824 0.17742 0.0
C13 C 0.1598 0.61332 0.15751 0.0
C14 C 0.13443 0.59729 0.15829 0.0
C15 C 0.15449 0.62195 0.17075 0.0
C16 C 0.15793 0.63376 0.11391 0.0
N17 N 0.17053 0.62509 0.12058 0.0
C18 C 0.18529 0.65011 0.12619 0.0
C19 C 0.18413 0.63281 0.12655 0.0
C20 C 0.17239 0.65949 0.11946 0.0
C21 C 0.15863 0.65105 0.11316 0.0
H22 H 0.14733 0.62721 0.10918 0.0
H23 H 0.19396 0.62552 0.13177 0.0
C24 C 0.18951 0.55162 0.15436 0.0
N25 N 0.18136 0.56637 0.15553 0.0
C26 C 0.19645 0.54422 0.16758 0.0
C27 C 0.1862 0.5672 0.18299 0.0
C28 C 0.17952 0.57415 0.16949 0.0
C29 C 0.19489 0.55209 0.18212 0.0
H30 H 0.1907 0.54565 0.1431 0.0
H31 H 0.17308 0.58584 0.17019 0.0
C32 C 0.14979 0.58709 0.08926 0.0
N33 N 0.13441 0.57757 0.06186 0.0
C34 C 0.14657 0.5703 0.08635 0.0
C35 C 0.1452 0.59902 0.07823 0.0
C36 C 0.13878 0.56574 0.07243 0.0
C37 C 0.13743 0.59396 0.06445 0.0
C38 C 0.15528 0.54697 0.13068 0.0
C39 C 0.15586 0.53046 0.12566 0.0
C40 C 0.14667 0.55098 0.14435 0.0
C41 C 0.14777 0.51823 0.13439 0.0
C42 C 0.13876 0.5384 0.15275 0.0
N43 N 0.13946 0.52242 0.14764 0.0
C44 C 0.19081 0.55018 0.0931 0.0
C45 C 0.18973 0.57585 0.07954 0.0
C46 C 0.19847 0.54255 0.08038 0.0
N47 N 0.18643 0.56644 0.09233 0.0
C48 C 0.19743 0.56876 0.06657 0.0
C49 C 0.20163 0.55181 0.06678 0.0
H50 H 0.18801 0.54306 0.10347 0.0
H51 H 0.18612 0.58879 0.07933 0.0
C52 C 0.11496 0.58853 0.12182 0.0
N53 N 0.1247 0.57506 0.11911 0.0
C54 C 0.09772 0.58693 0.12214 0.0
C55 C 0.1008 0.55771 0.11626 0.0
C56 C 0.11802 0.55989 0.11602 0.0
C57 C 0.09041 0.57131 0.11957 0.0
H58 H 0.12066 0.60048 0.124 0.0
H59 H 0.12601 0.54943 0.11358 0.0
O60 O 0.18894 0.58874 0.1245 0.0
O61 O 0.15452 0.59246 0.13812 0.0
O62 O 0.15749 0.59193 0.10276 0.0
O63 O 0.16314 0.55902 0.12214 0.0
H64 H 0.21033 0.56401 0.12784 0.0
H65 H 0.20096 0.61011 0.10393 0.0
H66 H 0.23695 0.56146 0.1134 0.0
H67 H 0.2278 0.60681 0.08998 0.0
H68 H 0.11781 0.60352 0.17709 0.0
H69 H 0.17177 0.61605 0.15242 0.0
H70 H 0.12645 0.58766 0.15364 0.0
H71 H 0.16224 0.63155 0.17577 0.0
H72 H 0.19601 0.65606 0.13137 0.0
H73 H 0.14854 0.65771 0.1076 0.0
H74 H 0.20299 0.53252 0.16644 0.0
H75 H 0.18499 0.57386 0.19392 0.0
H76 H 0.15008 0.56085 0.09468 0.0
H77 H 0.14765 0.61207 0.08031 0.0
H78 H 0.13622 0.5528 0.07002 0.0
H79 H 0.13381 0.60307 0.05581 0.0
H80 H 0.16244 0.52715 0.11509 0.0
H81 H 0.1461 0.56363 0.14847 0.0
H82 H 0.1481 0.50541 0.13062 0.0
H83 H 0.13206 0.54134 0.16334 0.0
H84 H 0.20121 0.5294 0.08097 0.0
H85 H 0.19979 0.57637 0.05639 0.0
H86 H 0.09019 0.59783 0.12439 0.0
H87 H 0.09572 0.54544 0.11426 0.0
Li88 Li 0.64517 0.92053 0.37642 0.0
Li89 Li 0.67146 0.92381 0.39176 0.0
Li90 Li 0.67131 0.92477 0.36428 0.0
Li91 Li 0.66673 0.89863 0.37616 0.0
C92 C 0.66225 0.95484 0.37121 0.0
N93 N 0.66826 0.98392 0.35506 0.0
C94 C 0.6768 0.96385 0.37397 0.0
C95 C 0.6507 0.96066 0.36033 0.0
C96 C 0.67963 0.97851 0.36565 0.0
C97 C 0.65398 0.97539 0.35227 0.0
C98 C 0.64408 0.90437 0.40693 0.0
C99 C 0.63442 0.887 0.42799 0.0
N100 N 0.62441 0.89954 0.43297 0.0
C101 C 0.63369 0.91708 0.41224 0.0
C102 C 0.64445 0.88919 0.41484 0.0
C103 C 0.62385 0.91441 0.42543 0.0
C104 C 0.61255 0.91158 0.36969 0.0
N105 N 0.62202 0.92414 0.37543 0.0
C106 C 0.59815 0.9415 0.37832 0.0
C107 C 0.61524 0.93891 0.37974 0.0
C108 C 0.58805 0.9288 0.37227 0.0
C109 C 0.59544 0.91365 0.36799 0.0
H110 H 0.61836 0.89998 0.36635 0.0
H111 H 0.62314 0.9487 0.3842 0.0
C112 C 0.69752 0.93851 0.40811 0.0
N113 N 0.68179 0.93264 0.4099 0.0
C114 C 0.70593 0.94561 0.42067 0.0
C115 C 0.68177 0.94054 0.43674 0.0
C116 C 0.6739 0.93341 0.42389 0.0
C117 C 0.69798 0.94686 0.43522 0.0
H118 H 0.7035 0.93781 0.39682 0.0
H119 H 0.66142 0.92878 0.42509 0.0
C120 C 0.6584 0.89988 0.34504 0.0
N121 N 0.66668 0.88288 0.31812 0.0
C122 C 0.67499 0.8959 0.34192 0.0
C123 C 0.64604 0.89521 0.33448 0.0
C124 C 0.67892 0.88732 0.32824 0.0
C125 C 0.65047 0.88662 0.32093 0.0
C126 C 0.6988 0.9041 0.38624 0.0
C127 C 0.71542 0.90366 0.38152 0.0
C128 C 0.69404 0.89596 0.39996 0.0
C129 C 0.72701 0.89507 0.39059 0.0
C130 C 0.706 0.88751 0.4087 0.0
N131 N 0.7221 0.88724 0.40388 0.0
C132 C 0.69793 0.93809 0.34716 0.0
C133 C 0.67188 0.93884 0.33422 0.0
C134 C 0.70587 0.9444 0.33397 0.0
N135 N 0.68132 0.93518 0.3469 0.0
C136 C 0.67927 0.9453 0.32082 0.0
C137 C 0.69656 0.94776 0.32045 0.0
H138 H 0.70506 0.93503 0.35746 0.0
H139 H 0.65867 0.93639 0.33442 0.0
C140 C 0.65547 0.86592 0.37822 0.0
N141 N 0.66923 0.87517 0.37524 0.0
C142 C 0.65633 0.8486 0.37793 0.0
C143 C 0.6855 0.85068 0.37142 0.0
C144 C 0.68402 0.86795 0.37165 0.0
C145 C 0.67153 0.8408 0.37462 0.0
H146 H 0.64383 0.87204 0.38088 0.0
H147 H 0.69469 0.87555 0.36891 0.0
O148 O 0.65943 0.94028 0.37899 0.0
O149 O 0.65359 0.90657 0.39387 0.0
O150 O 0.65417 0.90838 0.3583 0.0
O151 O 0.6874 0.91251 0.37737 0.0
H152 H 0.68588 0.95948 0.38232 0.0
H153 H 0.63944 0.95376 0.35796 0.0
H154 H 0.69089 0.98556 0.36759 0.0
H155 H 0.6452 0.97999 0.34374 0.0
H156 H 0.6346 0.87532 0.43424 0.0
H157 H 0.63347 0.92899 0.40641 0.0
H158 H 0.65243 0.87921 0.41088 0.0
H159 H 0.6158 0.92417 0.42971 0.0
H160 H 0.59294 0.95339 0.38164 0.0
H161 H 0.58806 0.90347 0.36349 0.0
H162 H 0.71846 0.95016 0.41898 0.0
H163 H 0.675 0.94153 0.44763 0.0
H164 H 0.68477 0.89945 0.34989 0.0
H165 H 0.63314 0.89822 0.33672 0.0
H166 H 0.69171 0.88419 0.32567 0.0
H167 H 0.64102 0.88292 0.31265 0.0
H168 H 0.71931 0.90987 0.37093 0.0
H169 H 0.6813 0.89613 0.40387 0.0
H170 H 0.73991 0.89462 0.38706 0.0
H171 H 0.70249 0.88117 0.41933 0.0
H172 H 0.71925 0.94584 0.33414 0.0
H173 H 0.6716 0.9479 0.31073 0.0
H174 H 0.6453 0.84139 0.38051 0.0
H175 H 0.69737 0.84509 0.36858 0.0
Li176 Li 0.32835 0.4244 0.60871 0.0
Li177 Li 0.35214 0.41941 0.62589 0.0
Li178 Li 0.33107 0.39686 0.62106 0.0
Li179 Li 0.32495 0.42106 0.63744 0.0
C180 C 0.35066 0.40386 0.59122 0.0
N181 N 0.35952 0.39543 0.56107 0.0
C182 C 0.36483 0.4108 0.58439 0.0
C183 C 0.3412 0.39237 0.58282 0.0
C184 C 0.36904 0.40646 0.5691 0.0
C185 C 0.34583 0.38834 0.56757 0.0
C186 C 0.34676 0.45219 0.62822 0.0
C187 C 0.36493 0.46821 0.6448 0.0
N188 N 0.36745 0.47913 0.63292 0.0
C189 C 0.3494 0.46365 0.61622 0.0
C190 C 0.35445 0.45455 0.64267 0.0
C191 C 0.35995 0.47717 0.61881 0.0
C192 C 0.30456 0.44066 0.59003 0.0
N193 N 0.32087 0.43636 0.59106 0.0
C194 C 0.32712 0.45131 0.56777 0.0
C195 C 0.33213 0.44148 0.58029 0.0
C196 C 0.31037 0.45598 0.5664 0.0
C197 C 0.29897 0.45039 0.57761 0.0
H198 H 0.29596 0.43683 0.59903 0.0
H199 H 0.34509 0.43839 0.58168 0.0
C200 C 0.38354 0.41369 0.63902 0.0
N201 N 0.37522 0.42328 0.62856 0.0
C202 C 0.40072 0.41526 0.64068 0.0
C203 C 0.40038 0.43687 0.62107 0.0
C204 C 0.38325 0.4347 0.61962 0.0
C205 C 0.40932 0.42692 0.63156 0.0
H206 H 0.37687 0.40456 0.64584 0.0
H207 H 0.37641 0.44188 0.61112 0.0
C208 C 0.29737 0.40442 0.61404 0.0
N209 N 0.26938 0.3899 0.60128 0.0
C210 C 0.28349 0.40122 0.62338 0.0
C211 C 0.29693 0.40042 0.59817 0.0
C212 C 0.26948 0.39382 0.61672 0.0
C213 C 0.28269 0.39304 0.59195 0.0
C214 C 0.34 0.39915 0.65615 0.0
C215 C 0.3312 0.38474 0.65997 0.0
C216 C 0.34664 0.40903 0.66802 0.0
C217 C 0.32894 0.38061 0.67567 0.0
C218 C 0.34409 0.40449 0.68357 0.0
N219 N 0.33536 0.3905 0.68704 0.0
C220 C 0.3432 0.36531 0.61511 0.0
C221 C 0.31415 0.36539 0.61976 0.0
C222 C 0.34313 0.3481 0.61325 0.0
N223 N 0.32886 0.37357 0.61828 0.0
C224 C 0.31348 0.34818 0.61784 0.0
C225 C 0.32812 0.33933 0.61464 0.0
H226 H 0.35473 0.37215 0.61411 0.0
H227 H 0.303 0.37211 0.6227 0.0
C228 C 0.31265 0.44485 0.65866 0.0
N229 N 0.31242 0.42848 0.65478 0.0
C230 C 0.30299 0.45067 0.67104 0.0
C231 C 0.29307 0.42265 0.67515 0.0
C232 C 0.30282 0.41741 0.66264 0.0
C233 C 0.29299 0.43951 0.67944 0.0
H234 H 0.32009 0.45345 0.65198 0.0
H235 H 0.30262 0.40453 0.6591 0.0
O236 O 0.34647 0.40787 0.60624 0.0
O237 O 0.33659 0.43881 0.62585 0.0
O238 O 0.31121 0.41159 0.62042 0.0
O239 O 0.34221 0.40348 0.64086 0.0
H240 H 0.37243 0.41954 0.59077 0.0
H241 H 0.3305 0.38646 0.58804 0.0
H242 H 0.37989 0.41185 0.56364 0.0
H243 H 0.33858 0.3795 0.56092 0.0
H244 H 0.37105 0.47012 0.65589 0.0
H245 H 0.34343 0.46212 0.60501 0.0
H246 H 0.35243 0.44588 0.65211 0.0
H247 H 0.36218 0.48609 0.6096 0.0
H248 H 0.33629 0.45536 0.55932 0.0
H249 H 0.286 0.45394 0.57706 0.0
H250 H 0.40723 0.40737 0.6489 0.0
H251 H 0.40665 0.44579 0.61366 0.0
H252 H 0.28356 0.40435 0.63565 0.0
H253 H 0.30738 0.40317 0.5907 0.0
H254 H 0.25868 0.3912 0.62383 0.0
H255 H 0.28219 0.38987 0.57969 0.0
H256 H 0.32603 0.37692 0.65093 0.0
H257 H 0.35366 0.42009 0.66526 0.0
H258 H 0.32206 0.36956 0.6788 0.0
H259 H 0.34908 0.41207 0.69288 0.0
H260 H 0.35467 0.34171 0.61071 0.0
H261 H 0.30171 0.34181 0.61925 0.0
H262 H 0.30311 0.4638 0.67377 0.0
H263 H 0.28573 0.41356 0.68141 0.0
Li264 Li 0.83062 0.10269 0.87352 0.0
Li265 Li 0.82496 0.07707 0.85968 0.0
Li266 Li 0.8295 0.07733 0.88769 0.0
Li267 Li 0.85244 0.08179 0.86999 0.0
C268 C 0.79839 0.09792 0.8803 0.0
N269 N 0.77287 0.11908 0.88877 0.0
C270 C 0.78403 0.09894 0.87117 0.0
C271 C 0.79963 0.10747 0.89387 0.0
C272 C 0.77129 0.10975 0.87562 0.0
C273 C 0.78665 0.11816 0.89791 0.0
C274 C 0.84729 0.09147 0.83933 0.0
C275 C 0.85885 0.07205 0.82084 0.0
N276 N 0.86064 0.0846 0.81033 0.0
C277 C 0.84923 0.10416 0.82836 0.0
C278 C 0.85213 0.07527 0.83556 0.0
C279 C 0.85601 0.10044 0.81376 0.0
C280 C 0.83576 0.13531 0.88382 0.0
N281 N 0.82646 0.12582 0.87406 0.0
C282 C 0.81124 0.14961 0.86549 0.0
C283 C 0.81448 0.13258 0.86486 0.0
C284 C 0.82063 0.15978 0.87552 0.0
C285 C 0.83308 0.15239 0.88472 0.0
H286 H 0.84535 0.12961 0.89085 0.0
H287 H 0.80736 0.1247 0.85711 0.0
C288 C 0.81416 0.05258 0.83726 0.0
N289 N 0.81284 0.06846 0.84259 0.0
C290 C 0.80433 0.04724 0.82479 0.0
C291 C 0.79258 0.07486 0.82323 0.0
C292 C 0.80266 0.07965 0.83562 0.0
C293 C 0.79317 0.05841 0.81782 0.0
H294 H 0.82279 0.04405 0.84264 0.0
H295 H 0.80239 0.09235 0.83976 0.0
C296 C 0.85328 0.09343 0.90368 0.0
N297 N 0.86579 0.09038 0.93359 0.0
C298 C 0.8671 0.08335 0.90654 0.0
C299 C 0.84598 0.10215 0.91602 0.0
C300 C 0.8732 0.08193 0.92174 0.0
C301 C 0.85243 0.10038 0.93106 0.0
C302 C 0.83121 0.04631 0.87386 0.0
C303 C 0.81397 0.04554 0.87586 0.0
C304 C 0.84049 0.03163 0.87386 0.0
C305 C 0.80632 0.03009 0.87775 0.0
C306 C 0.83238 0.01642 0.87578 0.0
N307 N 0.8156 0.01597 0.87767 0.0
C308 C 0.80761 0.06848 0.91243 0.0
C309 C 0.83483 0.05731 0.91393 0.0
C310 C 0.80313 0.06046 0.92624 0.0
N311 N 0.82331 0.06696 0.90672 0.0
C312 C 0.83098 0.04928 0.92787 0.0
C313 C 0.81497 0.05087 0.93418 0.0
H314 H 0.79848 0.0757 0.90619 0.0
H315 H 0.84697 0.0557 0.90875 0.0
C316 C 0.8848 0.09316 0.8659 0.0
N317 N 0.87541 0.07915 0.8664 0.0
C318 C 0.902 0.09204 0.86429 0.0
C319 C 0.89946 0.0621 0.86335 0.0
C320 C 0.88228 0.06381 0.865 0.0
C321 C 0.90957 0.07634 0.86321 0.0
H322 H 0.87889 0.10517 0.86702 0.0
H323 H 0.87445 0.05292 0.86547 0.0
O324 O 0.81114 0.08761 0.87599 0.0
O325 O 0.84059 0.09497 0.85363 0.0
O326 O 0.84702 0.09489 0.88887 0.0
O327 O 0.83911 0.06128 0.87226 0.0
H328 H 0.78265 0.0914 0.86082 0.0
H329 H 0.81057 0.10671 0.90112 0.0
H330 H 0.76014 0.1107 0.86862 0.0
H331 H 0.78754 0.12572 0.90832 0.0
H332 H 0.86264 0.05958 0.81776 0.0
H333 H 0.84551 0.11675 0.8311 0.0
H334 H 0.85069 0.06527 0.84386 0.0
H335 H 0.85758 0.11014 0.80515 0.0
H336 H 0.80142 0.1547 0.85831 0.0
H337 H 0.84088 0.15975 0.89234 0.0
H338 H 0.80524 0.0345 0.82082 0.0
H339 H 0.78451 0.08398 0.81784 0.0
H340 H 0.87291 0.07646 0.8972 0.0
H341 H 0.83547 0.11024 0.91403 0.0
H342 H 0.8838 0.07406 0.92413 0.0
H343 H 0.84684 0.10699 0.94072 0.0
H344 H 0.80651 0.05669 0.87594 0.0
H345 H 0.85385 0.03197 0.87245 0.0
H346 H 0.793 0.02933 0.87929 0.0
H347 H 0.83942 0.00497 0.8758 0.0
H348 H 0.79062 0.06183 0.93073 0.0
H349 H 0.84031 0.04165 0.9335 0.0
H350 H 0.90931 0.10333 0.864 0.0
H351 H 0.9048 0.04977 0.86272 0.0
Li352 Li 0.14778 0.41908 0.87481 0.0
Li353 Li 0.17308 0.42309 0.89029 0.0
Li354 Li 0.17417 0.42222 0.8619 0.0
Li355 Li 0.16888 0.39726 0.87726 0.0
C356 C 0.15255 0.45194 0.87578 0.0
N357 N 0.1307 0.47838 0.87738 0.0
C358 C 0.15052 0.46065 0.88977 0.0
C359 C 0.14356 0.45676 0.86258 0.0
C360 C 0.1394 0.47397 0.89035 0.0
C361 C 0.13253 0.47013 0.86364 0.0
C362 C 0.14933 0.39311 0.90098 0.0
C363 C 0.15393 0.36953 0.91782 0.0
N364 N 0.13872 0.36348 0.91387 0.0
C365 C 0.13372 0.38669 0.89713 0.0
C366 C 0.15951 0.38451 0.91145 0.0
C367 C 0.12858 0.37169 0.90377 0.0
C368 C 0.11566 0.41608 0.86198 0.0
N369 N 0.12457 0.42325 0.87364 0.0
C370 C 0.10003 0.43562 0.88418 0.0
C371 C 0.1171 0.43266 0.88478 0.0
C372 C 0.09041 0.42835 0.87228 0.0
C373 C 0.0985 0.41842 0.8611 0.0
H374 H 0.12183 0.40825 0.85353 0.0
H375 H 0.12441 0.43783 0.89418 0.0
C376 C 0.19193 0.44709 0.90642 0.0
N377 N 0.18177 0.43373 0.90821 0.0
C378 C 0.19814 0.45537 0.91948 0.0
C379 C 0.1832 0.43603 0.93592 0.0
C380 C 0.17735 0.42809 0.92255 0.0
C381 C 0.19363 0.44994 0.93446 0.0
H382 H 0.19501 0.45143 0.89483 0.0
H383 H 0.16908 0.41759 0.92361 0.0
C384 C 0.15767 0.40245 0.84266 0.0
N385 N 0.16024 0.39827 0.81074 0.0
C386 C 0.16625 0.38881 0.83656 0.0
C387 C 0.15028 0.41388 0.83253 0.0
C388 C 0.16743 0.38693 0.82039 0.0
C389 C 0.15177 0.41158 0.81643 0.0
C390 C 0.2039 0.4153 0.88345 0.0
C391 C 0.21411 0.42699 0.87612 0.0
C392 C 0.20865 0.40862 0.89784 0.0
C393 C 0.22888 0.43187 0.88337 0.0
C394 C 0.22349 0.41385 0.90472 0.0
N395 N 0.23322 0.42526 0.8974 0.0
C396 C 0.18283 0.44668 0.83949 0.0
C397 C 0.19441 0.4199 0.8355 0.0
C398 C 0.19026 0.45252 0.82583 0.0
N399 N 0.18484 0.43057 0.84388 0.0
C400 C 0.20181 0.42512 0.82165 0.0
C401 C 0.19964 0.44157 0.81664 0.0
H402 H 0.17541 0.45496 0.84655 0.0
H403 H 0.19613 0.40729 0.83952 0.0
C404 C 0.15964 0.36415 0.87218 0.0
N405 N 0.17185 0.37389 0.87816 0.0
C406 C 0.16097 0.34689 0.87288 0.0
C407 C 0.18738 0.35003 0.88601 0.0
C408 C 0.18562 0.36724 0.88488 0.0
C409 C 0.17494 0.33958 0.87997 0.0
H410 H 0.14884 0.36983 0.86687 0.0
H411 H 0.19513 0.37528 0.88953 0.0
O412 O 0.16329 0.4388 0.87501 0.0
O413 O 0.15478 0.40752 0.89424 0.0
O414 O 0.15664 0.40468 0.85846 0.0
O415 O 0.18928 0.41053 0.87663 0.0
H416 H 0.15733 0.45708 0.90012 0.0
H417 H 0.14496 0.45016 0.85167 0.0
H418 H 0.13765 0.48077 0.90111 0.0
H419 H 0.12542 0.47392 0.85353 0.0
H420 H 0.16173 0.36267 0.92582 0.0
H421 H 0.12572 0.39311 0.88898 0.0
H422 H 0.17172 0.38917 0.91439 0.0
H423 H 0.11657 0.36653 0.90084 0.0
H424 H 0.09448 0.44351 0.89297 0.0
H425 H 0.09165 0.41216 0.85196 0.0
H426 H 0.20593 0.46621 0.91787 0.0
H427 H 0.1795 0.43142 0.94728 0.0
H428 H 0.17216 0.37991 0.84422 0.0
H429 H 0.14359 0.42449 0.83705 0.0
H430 H 0.17412 0.3765 0.8155 0.0
H431 H 0.1462 0.42039 0.80845 0.0
H432 H 0.21063 0.43235 0.86502 0.0
H433 H 0.20078 0.39977 0.90381 0.0
H434 H 0.23687 0.44094 0.87786 0.0
H435 H 0.22724 0.40889 0.91592 0.0
H436 H 0.18844 0.46532 0.82231 0.0
H437 H 0.20923 0.41643 0.81497 0.0
H438 H 0.1512 0.3394 0.86779 0.0
H439 H 0.19825 0.34501 0.89177 0.0
Li440 Li 0.82499 0.92076 0.11179 0.0
Li441 Li 0.85058 0.9163 0.1265 0.0
Li442 Li 0.83008 0.89422 0.12317 0.0
Li443 Li 0.82449 0.91802 0.13996 0.0
C444 C 0.8492 0.89226 0.09869 0.0
N445 N 0.86048 0.86416 0.08348 0.0
C446 C 0.86544 0.88664 0.10108 0.0
C447 C 0.83872 0.88364 0.0885 0.0
C448 C 0.87091 0.87241 0.09328 0.0
C449 C 0.84465 0.86943 0.08095 0.0
C450 C 0.8457 0.94869 0.12796 0.0
C451 C 0.86567 0.96574 0.14152 0.0
N452 N 0.86809 0.97471 0.12826 0.0
C453 C 0.84836 0.95809 0.11447 0.0
C454 C 0.85437 0.95257 0.14161 0.0
C455 C 0.85974 0.9712 0.11486 0.0
C456 C 0.80783 0.94735 0.09846 0.0
N457 N 0.81551 0.93276 0.09505 0.0
C458 C 0.8112 0.93694 0.06779 0.0
C459 C 0.81711 0.9273 0.08013 0.0
C460 C 0.80384 0.9524 0.07093 0.0
C461 C 0.80192 0.95748 0.08649 0.0
H462 H 0.8068 0.95135 0.11047 0.0
H463 H 0.82341 0.91572 0.07778 0.0
C464 C 0.88293 0.91467 0.13922 0.0
N465 N 0.87365 0.921 0.12739 0.0
C466 C 0.90003 0.91747 0.1397 0.0
C467 C 0.89766 0.93342 0.1159 0.0
C468 C 0.88065 0.93007 0.11575 0.0
C469 C 0.90766 0.92697 0.12792 0.0
H470 H 0.87709 0.90715 0.14811 0.0
H471 H 0.87303 0.93462 0.10628 0.0
C472 C 0.79481 0.91186 0.11807 0.0
N473 N 0.76574 0.92242 0.10406 0.0
C474 C 0.78498 0.92397 0.12524 0.0
C475 C 0.78983 0.90508 0.10379 0.0
C476 C 0.77032 0.92914 0.11797 0.0
C477 C 0.77511 0.9106 0.09689 0.0
C478 C 0.84092 0.89711 0.15779 0.0
C479 C 0.83246 0.88281 0.16255 0.0
C480 C 0.84769 0.90777 0.16898 0.0
C481 C 0.8308 0.87949 0.17848 0.0
C482 C 0.84574 0.90403 0.1848 0.0
N483 N 0.83741 0.89009 0.18918 0.0
C484 C 0.84124 0.86146 0.12502 0.0
C485 C 0.81343 0.86388 0.11616 0.0
C486 C 0.84055 0.84422 0.1237 0.0
N487 N 0.82784 0.87087 0.12119 0.0
C488 C 0.8122 0.84665 0.11463 0.0
C489 C 0.8259 0.83658 0.11841 0.0
H490 H 0.85247 0.86741 0.12914 0.0
H491 H 0.80293 0.87166 0.11333 0.0
C492 C 0.81444 0.94092 0.16332 0.0
N493 N 0.81328 0.925 0.15817 0.0
C494 C 0.80515 0.94612 0.17619 0.0
C495 C 0.7938 0.91837 0.17817 0.0
C496 C 0.80317 0.91378 0.16522 0.0
C497 C 0.79455 0.93479 0.18371 0.0
H498 H 0.82226 0.94969 0.15722 0.0
H499 H 0.80222 0.90131 0.16061 0.0
O500 O 0.84348 0.90595 0.1065 0.0
O501 O 0.83476 0.93567 0.12777 0.0
O502 O 0.8094 0.90691 0.12482 0.0
O503 O 0.84245 0.90072 0.14226 0.0
H504 H 0.8737 0.89309 0.10898 0.0
H505 H 0.82604 0.88765 0.08668 0.0
H506 H 0.88342 0.86788 0.09507 0.0
H507 H 0.83663 0.86255 0.07315 0.0
H508 H 0.87253 0.96882 0.15198 0.0
H509 H 0.8419 0.95519 0.10375 0.0
H510 H 0.85252 0.94538 0.15213 0.0
H511 H 0.86198 0.97853 0.10449 0.0
H512 H 0.81313 0.93274 0.05592 0.0
H513 H 0.79629 0.96933 0.08932 0.0
H514 H 0.90722 0.91188 0.14899 0.0
H515 H 0.90287 0.94097 0.10665 0.0
H516 H 0.78868 0.92946 0.13622 0.0
H517 H 0.79742 0.89589 0.09795 0.0
H518 H 0.76262 0.93854 0.12337 0.0
H519 H 0.77118 0.90556 0.08578 0.0
H520 H 0.82704 0.87448 0.15406 0.0
H521 H 0.85426 0.91889 0.1655 0.0
H522 H 0.82421 0.86852 0.18234 0.0
H523 H 0.85084 0.91222 0.19359 0.0
H524 H 0.85131 0.83696 0.12703 0.0
H525 H 0.80071 0.8413 0.11038 0.0
H526 H 0.80593 0.95895 0.17992 0.0
H527 H 0.786 0.90915 0.18373 0.0
Li528 Li 0.33275 0.60053 0.36976 0.0
Li529 Li 0.32638 0.57583 0.35605 0.0
Li530 Li 0.33003 0.57559 0.38424 0.0
Li531 Li 0.35478 0.5798 0.36696 0.0
C532 C 0.29959 0.5973 0.37244 0.0
N533 N 0.27315 0.61918 0.37333 0.0
C534 C 0.28916 0.599 0.35948 0.0
C535 C 0.29649 0.60663 0.38589 0.0
C536 C 0.27587 0.61014 0.36016 0.0
C537 C 0.28309 0.61767 0.38609 0.0
C538 C 0.34331 0.60646 0.34146 0.0
C539 C 0.35621 0.63232 0.33406 0.0
N540 N 0.34277 0.636 0.32506 0.0
C541 C 0.32964 0.61047 0.33212 0.0
C542 C 0.35674 0.61742 0.3424 0.0
C543 C 0.32961 0.62547 0.32391 0.0
C544 C 0.34167 0.63231 0.37971 0.0
N545 N 0.33015 0.62421 0.37094 0.0
C546 C 0.31672 0.6499 0.36477 0.0
C547 C 0.31797 0.63267 0.36329 0.0
C548 C 0.32838 0.65849 0.37387 0.0
C549 C 0.34105 0.64953 0.3813 0.0
H550 H 0.35145 0.6254 0.3854 0.0
H551 H 0.3093 0.62614 0.35593 0.0
C552 C 0.29986 0.5577 0.34396 0.0
N553 N 0.31407 0.5657 0.33988 0.0
C554 C 0.28978 0.55064 0.33252 0.0
C555 C 0.30939 0.55986 0.31295 0.0
C556 C 0.31917 0.56664 0.3248 0.0
C557 C 0.29432 0.55197 0.31674 0.0
H558 H 0.29624 0.55708 0.3561 0.0
H559 H 0.33062 0.57299 0.32197 0.0
C560 C 0.35217 0.59231 0.40114 0.0
N561 N 0.3599 0.59145 0.43254 0.0
C562 C 0.36608 0.58348 0.40632 0.0
C563 C 0.34229 0.60083 0.4119 0.0
C564 C 0.36976 0.58317 0.42225 0.0
C565 C 0.34637 0.6002 0.42773 0.0
C566 C 0.33533 0.54511 0.36307 0.0
C567 C 0.32328 0.53559 0.3707 0.0
C568 C 0.34194 0.5396 0.3489 0.0
C569 C 0.318 0.52068 0.36397 0.0
C570 C 0.3363 0.52464 0.34254 0.0
N571 N 0.32455 0.51558 0.35014 0.0
C572 C 0.30677 0.56777 0.40768 0.0
C573 C 0.33363 0.55627 0.41136 0.0
C574 C 0.30119 0.56054 0.42151 0.0
N575 N 0.32278 0.56567 0.40302 0.0
C576 C 0.32864 0.54898 0.42534 0.0
C577 C 0.31224 0.55113 0.43058 0.0
H578 H 0.2983 0.57496 0.40062 0.0
H579 H 0.34614 0.55441 0.4071 0.0
C580 C 0.38788 0.58947 0.36859 0.0
N581 N 0.37791 0.57639 0.36503 0.0
C582 C 0.40511 0.58766 0.36835 0.0
C583 C 0.40149 0.559 0.36056 0.0
C584 C 0.38429 0.56134 0.36105 0.0
C585 C 0.41211 0.57224 0.36439 0.0
H586 H 0.3824 0.60122 0.37191 0.0
H587 H 0.37605 0.55109 0.35854 0.0
O588 O 0.31257 0.58633 0.37204 0.0
O589 O 0.34342 0.59199 0.34982 0.0
O590 O 0.34822 0.59259 0.38562 0.0
O591 O 0.34035 0.55993 0.36928 0.0
H592 H 0.29139 0.59193 0.34895 0.0
H593 H 0.30441 0.60543 0.39602 0.0
H594 H 0.26774 0.61164 0.3502 0.0
H595 H 0.28061 0.62503 0.39639 0.0
H596 H 0.36647 0.64097 0.33475 0.0
H597 H 0.31905 0.60222 0.33142 0.0
H598 H 0.36738 0.61452 0.34962 0.0
H599 H 0.31908 0.62878 0.31672 0.0
H600 H 0.30695 0.65646 0.35864 0.0
H601 H 0.35027 0.65577 0.38841 0.0
H602 H 0.27842 0.54444 0.336 0.0
H603 H 0.31329 0.56135 0.30094 0.0
H604 H 0.37382 0.57675 0.39816 0.0
H605 H 0.33156 0.60781 0.40806 0.0
H606 H 0.38042 0.5763 0.42644 0.0
H607 H 0.33878 0.60666 0.4362 0.0
H608 H 0.31796 0.53972 0.38162 0.0
H609 H 0.35109 0.54695 0.34274 0.0
H610 H 0.30865 0.51321 0.3697 0.0
H611 H 0.34121 0.52028 0.33152 0.0
H612 H 0.28844 0.56243 0.42517 0.0
H613 H 0.33742 0.54151 0.43187 0.0
H614 H 0.41287 0.59822 0.37124 0.0
H615 H 0.4064 0.54687 0.35764 0.0
Li616 Li 0.66719 0.10117 0.61586 0.0
Li617 Li 0.67198 0.07698 0.63386 0.0
Li618 Li 0.67197 0.07387 0.60642 0.0
Li619 Li 0.64606 0.07901 0.61849 0.0
C620 C 0.70214 0.08381 0.61221 0.0
N621 N 0.73128 0.07487 0.59737 0.0
C622 C 0.71216 0.07127 0.61843 0.0
C623 C 0.707 0.09191 0.59851 0.0
C624 C 0.72684 0.06691 0.61073 0.0
C625 C 0.72176 0.08718 0.59116 0.0
C626 C 0.65015 0.1049 0.64623 0.0
C627 C 0.63081 0.11444 0.66578 0.0
N628 N 0.64151 0.12685 0.66967 0.0
C629 C 0.66096 0.11774 0.65043 0.0
C630 C 0.63494 0.10323 0.65396 0.0
C631 C 0.65636 0.12871 0.66231 0.0
C632 C 0.65574 0.1338 0.61344 0.0
N633 N 0.66972 0.12436 0.61353 0.0
C634 C 0.68684 0.14851 0.61177 0.0
C635 C 0.68509 0.13129 0.61274 0.0
C636 C 0.67262 0.15869 0.61188 0.0
C637 C 0.65691 0.15107 0.6127 0.0
H638 H 0.6437 0.12789 0.6143 0.0
H639 H 0.696 0.12347 0.61308 0.0
C640 C 0.68702 0.05404 0.65425 0.0
N641 N 0.68147 0.06995 0.65302 0.0
C642 C 0.69421 0.04846 0.66811 0.0
C643 C 0.68999 0.07581 0.6791 0.0
C644 C 0.68288 0.08082 0.66505 0.0
C645 C 0.69576 0.05942 0.68077 0.0
H646 H 0.68597 0.0457 0.6444 0.0
H647 H 0.67873 0.09346 0.66372 0.0
C648 C 0.64594 0.08353 0.58674 0.0
N649 N 0.62797 0.07126 0.56179 0.0
C650 C 0.64234 0.06656 0.58578 0.0
C651 C 0.64039 0.09425 0.57502 0.0
C652 C 0.63324 0.06061 0.57308 0.0
C653 C 0.63133 0.08781 0.5625 0.0
C654 C 0.65318 0.04837 0.63171 0.0
C655 C 0.65327 0.03134 0.62855 0.0
C656 C 0.64538 0.05424 0.64522 0.0
C657 C 0.64551 0.02044 0.63894 0.0
C658 C 0.63776 0.04295 0.65532 0.0
N659 N 0.63798 0.02642 0.652 0.0
C660 C 0.68923 0.04676 0.59395 0.0
C661 C 0.68404 0.06838 0.57577 0.0
C662 C 0.69753 0.03753 0.5826 0.0
N663 N 0.68268 0.06183 0.59033 0.0
C664 C 0.69215 0.05953 0.56404 0.0
C665 C 0.69896 0.04384 0.56737 0.0
H666 H 0.68808 0.042 0.6057 0.0
H667 H 0.67885 0.08049 0.5733 0.0
C668 C 0.61342 0.09015 0.61914 0.0
N669 N 0.62265 0.07602 0.61859 0.0
C670 C 0.59612 0.08929 0.61943 0.0
C671 C 0.5981 0.05932 0.61843 0.0
C672 C 0.61538 0.06078 0.61796 0.0
C673 C 0.58828 0.07371 0.61921 0.0
H674 H 0.61957 0.1021 0.61945 0.0
H675 H 0.62294 0.04974 0.61704 0.0
O676 O 0.68753 0.08796 0.61937 0.0
O677 O 0.65423 0.09422 0.63441 0.0
O678 O 0.65475 0.08977 0.59909 0.0
O679 O 0.66078 0.05908 0.62156 0.0
H680 H 0.70858 0.06488 0.629 0.0
H681 H 0.69928 0.1015 0.59344 0.0
H682 H 0.73467 0.05716 0.61536 0.0
H683 H 0.72559 0.09322 0.58048 0.0
H684 H 0.61908 0.11328 0.67186 0.0
H685 H 0.67286 0.11912 0.6447 0.0
H686 H 0.62643 0.09335 0.65088 0.0
H687 H 0.66462 0.13869 0.66569 0.0
H688 H 0.69919 0.15376 0.61097 0.0
H689 H 0.64561 0.15836 0.61315 0.0
H690 H 0.69847 0.03573 0.66892 0.0
H691 H 0.69132 0.0848 0.68842 0.0
H692 H 0.64651 0.05805 0.59471 0.0
H693 H 0.64305 0.10742 0.57562 0.0
H694 H 0.63037 0.04751 0.57219 0.0
H695 H 0.62695 0.09597 0.55334 0.0
H696 H 0.65926 0.0266 0.61815 0.0
H697 H 0.6452 0.06732 0.64793 0.0
H698 H 0.64547 0.00723 0.63663 0.0
H699 H 0.63168 0.04732 0.6658 0.0
H700 H 0.70277 0.02559 0.58572 0.0
H701 H 0.69272 0.06478 0.55241 0.0
H702 H 0.58894 0.10066 0.62008 0.0
H703 H 0.59247 0.04711 0.61798 0.0
Li704 Li 0.82798 0.41927 0.85993 0.0
Li705 Li 0.82938 0.42143 0.88815 0.0
Li706 Li 0.85524 0.41588 0.87271 0.0
Li707 Li 0.83405 0.3943 0.87691 0.0
C708 C 0.84379 0.45002 0.86435 0.0
N709 N 0.85056 0.4788 0.84797 0.0
C710 C 0.83619 0.46496 0.86861 0.0
C711 C 0.85499 0.44976 0.8519 0.0
C712 C 0.83972 0.47937 0.86014 0.0
C713 C 0.85821 0.46443 0.84373 0.0
C714 C 0.7988 0.40956 0.88303 0.0
C715 C 0.78064 0.40269 0.90446 0.0
N716 N 0.76893 0.41314 0.89857 0.0
C717 C 0.78654 0.4201 0.87709 0.0
C718 C 0.79579 0.40065 0.89674 0.0
C719 C 0.77154 0.42179 0.88515 0.0
C720 C 0.81434 0.41595 0.83008 0.0
N721 N 0.81627 0.42668 0.84217 0.0
C722 C 0.79862 0.44661 0.82986 0.0
C723 C 0.80874 0.44179 0.84229 0.0
C724 C 0.79612 0.43565 0.81734 0.0
C725 C 0.80435 0.42025 0.81742 0.0
H726 H 0.82018 0.40386 0.83048 0.0
H727 H 0.81 0.44982 0.85231 0.0
C728 C 0.82522 0.43042 0.91986 0.0
N729 N 0.82007 0.43331 0.90502 0.0
C730 C 0.81852 0.43954 0.93219 0.0
C731 C 0.80121 0.45426 0.91371 0.0
C732 C 0.80836 0.44497 0.90174 0.0
C733 C 0.8064 0.45172 0.92919 0.0
H734 H 0.83474 0.42125 0.92208 0.0
H735 H 0.80467 0.44712 0.88978 0.0
C736 C 0.85376 0.39573 0.84467 0.0
N737 N 0.87238 0.38446 0.81971 0.0
C738 C 0.86001 0.37952 0.84462 0.0
C739 C 0.85676 0.40611 0.83189 0.0
C740 C 0.86946 0.37408 0.83193 0.0
C741 C 0.86626 0.40021 0.81942 0.0
C742 C 0.85385 0.39417 0.90289 0.0
C743 C 0.87054 0.38937 0.90221 0.0
C744 C 0.84333 0.38691 0.91393 0.0
C745 C 0.87635 0.37717 0.91245 0.0
C746 C 0.84961 0.37473 0.92394 0.0
N747 N 0.86584 0.37015 0.923 0.0
C748 C 0.88429 0.43459 0.87745 0.0
C749 C 0.88878 0.40916 0.86415 0.0
C750 C 0.90125 0.43825 0.87687 0.0
N751 N 0.87842 0.42027 0.87108 0.0
C752 C 0.90577 0.41239 0.86318 0.0
C753 C 0.9122 0.42707 0.86963 0.0
H754 H 0.87579 0.44312 0.88306 0.0
H755 H 0.88397 0.39763 0.85966 0.0
C756 C 0.81452 0.36553 0.87579 0.0
N757 N 0.83014 0.37109 0.87886 0.0
C758 C 0.81094 0.34858 0.87645 0.0
C759 C 0.83954 0.34339 0.8836 0.0
C760 C 0.84263 0.36041 0.88256 0.0
C761 C 0.82355 0.33732 0.88043 0.0
H762 H 0.80489 0.37426 0.87261 0.0
H763 H 0.85506 0.36502 0.88439 0.0
O764 O 0.84042 0.4358 0.87252 0.0
O765 O 0.81366 0.40792 0.87543 0.0
O766 O 0.84443 0.40121 0.85699 0.0
O767 O 0.84795 0.40609 0.89295 0.0
H768 H 0.8276 0.46542 0.87831 0.0
H769 H 0.86126 0.43841 0.84867 0.0
H770 H 0.83385 0.491 0.86325 0.0
H771 H 0.86684 0.46439 0.83405 0.0
H772 H 0.77818 0.39594 0.91513 0.0
H773 H 0.78862 0.427 0.86644 0.0
H774 H 0.80506 0.39227 0.90136 0.0
H775 H 0.76197 0.43 0.88075 0.0
H776 H 0.79227 0.45847 0.83037 0.0
H777 H 0.80285 0.41149 0.80793 0.0
H778 H 0.82319 0.43741 0.94388 0.0
H779 H 0.79182 0.46339 0.91085 0.0
H780 H 0.85771 0.37127 0.85433 0.0
H781 H 0.85166 0.41852 0.8315 0.0
H782 H 0.87447 0.36161 0.8318 0.0
H783 H 0.86871 0.40813 0.80948 0.0
H784 H 0.8789 0.39494 0.89384 0.0
H785 H 0.83044 0.3906 0.91474 0.0
H786 H 0.88921 0.37328 0.912 0.0
H787 H 0.84157 0.36894 0.93248 0.0
H788 H 0.90574 0.44971 0.88199 0.0
H789 H 0.91386 0.40327 0.85781 0.0
H790 H 0.79847 0.34432 0.8739 0.0
H791 H 0.84966 0.33501 0.88638 0.0
Li792 Li 0.33251 0.10327 0.62053 0.0
Li793 Li 0.35273 0.08091 0.62307 0.0
Li794 Li 0.32702 0.077 0.60835 0.0
Li795 Li 0.3269 0.07881 0.63656 0.0
C796 C 0.35075 0.10532 0.59502 0.0
N797 N 0.36115 0.13286 0.57842 0.0
C798 C 0.36688 0.11144 0.59696 0.0
C799 C 0.33996 0.11314 0.58457 0.0
C800 C 0.3719 0.12538 0.58846 0.0
C801 C 0.34543 0.12708 0.57632 0.0
C802 C 0.34223 0.09929 0.65491 0.0
C803 C 0.3447 0.09157 0.68202 0.0
N804 N 0.33614 0.10547 0.68612 0.0
C805 C 0.33347 0.11351 0.65939 0.0
C806 C 0.34794 0.08824 0.66631 0.0
C807 C 0.33053 0.11642 0.67523 0.0
C808 C 0.31564 0.13402 0.6158 0.0
N809 N 0.33048 0.12669 0.61893 0.0
C810 C 0.34403 0.15305 0.61977 0.0
C811 C 0.34448 0.1358 0.62114 0.0
C812 C 0.32892 0.16106 0.61642 0.0
C813 C 0.31456 0.15129 0.6145 0.0
H814 H 0.30463 0.1265 0.61444 0.0
H815 H 0.35606 0.12962 0.62387 0.0
C816 C 0.38332 0.07131 0.60999 0.0
N817 N 0.37584 0.07623 0.62345 0.0
C818 C 0.40046 0.06873 0.60957 0.0
C819 C 0.40178 0.07586 0.63696 0.0
C820 C 0.38464 0.07846 0.63682 0.0
C821 C 0.40991 0.07115 0.62315 0.0
H822 H 0.37597 0.06971 0.59952 0.0
H823 H 0.37841 0.08258 0.64728 0.0
C824 C 0.29682 0.08749 0.61509 0.0
N825 N 0.26672 0.08075 0.6009 0.0
C826 C 0.28567 0.07637 0.62197 0.0
C827 C 0.29262 0.09525 0.60104 0.0
C828 C 0.27052 0.07312 0.61461 0.0
C829 C 0.27736 0.09165 0.59403 0.0
C830 C 0.3485 0.04907 0.62197 0.0
C831 C 0.35096 0.04172 0.60737 0.0
C832 C 0.35811 0.04396 0.63468 0.0
C833 C 0.36305 0.02939 0.60573 0.0
C834 C 0.37011 0.03162 0.63255 0.0
N835 N 0.37231 0.02465 0.61824 0.0
C836 C 0.32112 0.06948 0.57646 0.0
C837 C 0.30632 0.05324 0.59489 0.0
C838 C 0.31435 0.06032 0.56417 0.0
N839 N 0.31704 0.06574 0.59142 0.0
C840 C 0.29907 0.04393 0.58299 0.0
C841 C 0.30326 0.04723 0.56737 0.0
H842 H 0.32998 0.07924 0.57408 0.0
H843 H 0.30359 0.05036 0.60694 0.0
C844 C 0.30407 0.08104 0.66108 0.0
N845 N 0.31577 0.07104 0.65457 0.0
C846 C 0.29503 0.07561 0.67397 0.0
C847 C 0.31041 0.04978 0.67333 0.0
C848 C 0.31906 0.05566 0.66034 0.0
C849 C 0.29813 0.05977 0.6802 0.0
H850 H 0.30167 0.09316 0.65612 0.0
H851 H 0.32826 0.0479 0.65477 0.0
O852 O 0.3455 0.09186 0.60344 0.0
O853 O 0.34492 0.09603 0.63944 0.0
O854 O 0.31183 0.09066 0.62199 0.0
O855 O 0.33699 0.06145 0.62374 0.0
H856 H 0.37537 0.10566 0.6051 0.0
H857 H 0.32743 0.10861 0.58296 0.0
H858 H 0.38431 0.13031 0.58991 0.0
H859 H 0.33717 0.13331 0.56827 0.0
H860 H 0.34892 0.08306 0.69095 0.0
H861 H 0.32885 0.12214 0.65075 0.0
H862 H 0.35449 0.07703 0.66305 0.0
H863 H 0.32372 0.12734 0.67886 0.0
H864 H 0.35546 0.15998 0.62115 0.0
H865 H 0.30258 0.15692 0.61224 0.0
H866 H 0.40628 0.06502 0.59872 0.0
H867 H 0.40868 0.07806 0.64762 0.0
H868 H 0.28875 0.07013 0.63277 0.0
H869 H 0.30112 0.10382 0.5955 0.0
H870 H 0.26181 0.06448 0.61977 0.0
H871 H 0.274 0.09748 0.5831 0.0
H872 H 0.34374 0.04559 0.59737 0.0
H873 H 0.35657 0.0497 0.64601 0.0
H874 H 0.36513 0.02363 0.59448 0.0
H875 H 0.37773 0.02764 0.64226 0.0
H876 H 0.31826 0.06308 0.55237 0.0
H877 H 0.29048 0.03411 0.58603 0.0
H878 H 0.28578 0.08375 0.67907 0.0
H879 H 0.31303 0.03745 0.67774 0.0
Li880 Li 0.66795 0.60447 0.37278 0.0
Li881 Li 0.64712 0.58258 0.37073 0.0
Li882 Li 0.67258 0.57857 0.38582 0.0
Li883 Li 0.67314 0.57933 0.35759 0.0
C884 C 0.64933 0.60803 0.39787 0.0
N885 N 0.63924 0.63652 0.41319 0.0
C886 C 0.63301 0.61376 0.39627 0.0
C887 C 0.66048 0.61675 0.40732 0.0
C888 C 0.62816 0.62819 0.40411 0.0
C889 C 0.65516 0.63115 0.41493 0.0
C890 C 0.6585 0.59946 0.33844 0.0
C891 C 0.65597 0.59084 0.31158 0.0
N892 N 0.66512 0.60423 0.30711 0.0
C893 C 0.66786 0.61315 0.33358 0.0
C894 C 0.65246 0.58823 0.32735 0.0
C895 C 0.67106 0.61534 0.31769 0.0
C896 C 0.68572 0.63498 0.37565 0.0
N897 N 0.67059 0.6279 0.37338 0.0
C898 C 0.65775 0.65455 0.37136 0.0
C899 C 0.65676 0.63726 0.37108 0.0
C900 C 0.6732 0.66231 0.3737 0.0
C901 C 0.68732 0.65227 0.37584 0.0
H902 H 0.69657 0.62722 0.37711 0.0
H903 H 0.64494 0.63126 0.36904 0.0
C904 C 0.61615 0.57277 0.38315 0.0
N905 N 0.62392 0.57827 0.37004 0.0
C906 C 0.59911 0.56958 0.38298 0.0
C907 C 0.59841 0.57776 0.35583 0.0
C908 C 0.61545 0.58086 0.35654 0.0
C909 C 0.59002 0.5721 0.36918 0.0
H910 H 0.62323 0.57093 0.39374 0.0
H911 H 0.62189 0.58546 0.34638 0.0
C912 C 0.70291 0.58717 0.37925 0.0
N913 N 0.73195 0.57836 0.39434 0.0
C914 C 0.71267 0.57416 0.37351 0.0
C915 C 0.70795 0.59573 0.39263 0.0
C916 C 0.72731 0.5699 0.38131 0.0
C917 C 0.72265 0.59107 0.40011 0.0
C918 C 0.65064 0.55059 0.37255 0.0
C919 C 0.64769 0.54358 0.38722 0.0
C920 C 0.64121 0.5454 0.35973 0.0
C921 C 0.63538 0.53146 0.38881 0.0
C922 C 0.62897 0.53329 0.36182 0.0
N923 N 0.62634 0.52662 0.37619 0.0
C924 C 0.6804 0.5736 0.41792 0.0
C925 C 0.68992 0.55294 0.40031 0.0
C926 C 0.68648 0.56454 0.43058 0.0
N927 N 0.68207 0.56758 0.40319 0.0
C928 C 0.6961 0.54345 0.4126 0.0
C929 C 0.69415 0.5491 0.42799 0.0
H930 H 0.67392 0.58516 0.41987 0.0
H931 H 0.69094 0.54845 0.38845 0.0
C932 C 0.69654 0.58036 0.33359 0.0
N933 N 0.6843 0.57085 0.33985 0.0
C934 C 0.70538 0.57475 0.32064 0.0
C935 C 0.68878 0.54969 0.32078 0.0
C936 C 0.68035 0.55573 0.33384 0.0
C937 C 0.70152 0.55924 0.31409 0.0
H938 H 0.69943 0.5923 0.33871 0.0
H939 H 0.67073 0.54835 0.3392 0.0
O940 O 0.65439 0.59406 0.39011 0.0
O941 O 0.65559 0.59685 0.35399 0.0
O942 O 0.68834 0.59128 0.37198 0.0
O943 O 0.66241 0.56272 0.37079 0.0
H944 H 0.62424 0.60726 0.38892 0.0
H945 H 0.6732 0.61261 0.40857 0.0
H946 H 0.61559 0.6328 0.40292 0.0
H947 H 0.6637 0.63808 0.42219 0.0
H948 H 0.6515 0.58217 0.30289 0.0
H949 H 0.67275 0.6219 0.34198 0.0
H950 H 0.64543 0.57742 0.33092 0.0
H951 H 0.67834 0.62585 0.31376 0.0
H952 H 0.64647 0.66171 0.36987 0.0
H953 H 0.69954 0.65767 0.37737 0.0
H954 H 0.59312 0.56513 0.3935 0.0
H955 H 0.59181 0.58014 0.34504 0.0
H956 H 0.70889 0.56727 0.36327 0.0
H957 H 0.70048 0.60573 0.39731 0.0
H958 H 0.73495 0.55981 0.37704 0.0
H959 H 0.72665 0.59753 0.41052 0.0
H960 H 0.65467 0.54757 0.39732 0.0
H961 H 0.64306 0.55092 0.34835 0.0
H962 H 0.63294 0.52597 0.40011 0.0
H963 H 0.62151 0.52926 0.35202 0.0
H964 H 0.68449 0.56918 0.4423 0.0
H965 H 0.70199 0.53163 0.41014 0.0
H966 H 0.71499 0.58256 0.31568 0.0
H967 H 0.68555 0.53761 0.3161 0.0
Li968 Li 0.16807 0.92236 0.10729 0.0
Li969 Li 0.16875 0.91987 0.13467 0.0
Li970 Li 0.16305 0.89538 0.11853 0.0
Li971 Li 0.14228 0.9193 0.12127 0.0
C972 C 0.19847 0.90356 0.11444 0.0
N973 N 0.22919 0.89278 0.10412 0.0
C974 C 0.21301 0.91048 0.12056 0.0
C975 C 0.19958 0.89102 0.10319 0.0
C976 C 0.22841 0.90491 0.11515 0.0
C977 C 0.21521 0.88578 0.09809 0.0
C978 C 0.16698 0.95232 0.12396 0.0
C979 C 0.16823 0.98213 0.12658 0.0
N980 N 0.1851 0.98139 0.126 0.0
C981 C 0.18433 0.95187 0.12338 0.0
C982 C 0.15884 0.96756 0.12556 0.0
C983 C 0.19327 0.96669 0.12444 0.0
C984 C 0.16915 0.94826 0.08594 0.0
N985 N 0.17734 0.93412 0.08991 0.0
C986 C 0.19777 0.9391 0.07018 0.0
C987 C 0.1913 0.92929 0.08218 0.0
C988 C 0.18981 0.95402 0.06623 0.0
C989 C 0.17522 0.95847 0.07414 0.0
H990 H 0.15788 0.95167 0.09202 0.0
H991 H 0.19752 0.91794 0.08528 0.0
C992 C 0.19069 0.91472 0.15896 0.0
N993 N 0.17947 0.92586 0.15346 0.0
C994 C 0.1987 0.91756 0.17309 0.0
C995 C 0.18376 0.94354 0.17547 0.0
C996 C 0.17582 0.94006 0.16135 0.0
C997 C 0.19523 0.9321 0.18152 0.0
H998 H 0.1932 0.90348 0.15244 0.0
H999 H 0.16659 0.94854 0.15683 0.0
C1000 C 0.14849 0.9092 0.08649 0.0
N1001 N 0.14741 0.91489 0.05472 0.0
C1002 C 0.13808 0.92152 0.08044 0.0
C1003 C 0.15818 0.89963 0.07638 0.0
C1004 C 0.13775 0.92424 0.06434 0.0
C1005 C 0.15751 0.90274 0.06035 0.0
C1006 C 0.14928 0.90269 0.15303 0.0
C1007 C 0.15693 0.88985 0.16132 0.0
C1008 C 0.14089 0.91525 0.16108 0.0
C1009 C 0.15616 0.88986 0.17762 0.0
C1010 C 0.14041 0.91481 0.17738 0.0
N1011 N 0.148 0.90224 0.18524 0.0
C1012 C 0.17731 0.86468 0.12597 0.0
C1013 C 0.1551 0.86328 0.10781 0.0
C1014 C 0.17924 0.84747 0.1255 0.0
N1015 N 0.16538 0.87215 0.11721 0.0
C1016 C 0.15652 0.84602 0.10705 0.0
C1017 C 0.16868 0.83791 0.11603 0.0
H1018 H 0.18526 0.87213 0.13337 0.0
H1019 H 0.14574 0.86963 0.10098 0.0
C1020 C 0.11315 0.9385 0.11673 0.0
N1021 N 0.11946 0.92427 0.12286 0.0
C1022 C 0.09614 0.9418 0.11779 0.0
C1023 C 0.09267 0.91598 0.13189 0.0
C1024 C 0.10966 0.91308 0.13036 0.0
C1025 C 0.08571 0.93043 0.12547 0.0
H1026 H 0.12132 0.94721 0.11093 0.0
H1027 H 0.11507 0.90185 0.13508 0.0
O1028 O 0.18332 0.90853 0.11998 0.0
O1029 O 0.15788 0.93801 0.12278 0.0
O1030 O 0.14931 0.90667 0.10226 0.0
O1031 O 0.15036 0.90323 0.13712 0.0
H1032 H 0.21242 0.92001 0.12946 0.0
H1033 H 0.18851 0.88546 0.09835 0.0
H1034 H 0.23976 0.91018 0.11977 0.0
H1035 H 0.21623 0.87614 0.08934 0.0
H1036 H 0.16209 0.99401 0.12782 0.0
H1037 H 0.19083 0.94023 0.12205 0.0
H1038 H 0.1454 0.96812 0.12598 0.0
H1039 H 0.20671 0.96651 0.12399 0.0
H1040 H 0.20901 0.93521 0.06427 0.0
H1041 H 0.16847 0.96968 0.07115 0.0
H1042 H 0.20758 0.90852 0.17738 0.0
H1043 H 0.18072 0.95481 0.18176 0.0
H1044 H 0.13051 0.92903 0.08811 0.0
H1045 H 0.16618 0.88995 0.08086 0.0
H1046 H 0.12986 0.93383 0.05951 0.0
H1047 H 0.16502 0.89549 0.05239 0.0
H1048 H 0.16352 0.88007 0.15525 0.0
H1049 H 0.13504 0.92536 0.15482 0.0
H1050 H 0.1621 0.88005 0.1842 0.0
H1051 H 0.13406 0.92451 0.18377 0.0
H1052 H 0.18864 0.84168 0.13274 0.0
H1053 H 0.14825 0.83909 0.0995 0.0
H1054 H 0.09119 0.95311 0.11276 0.0
H1055 H 0.08498 0.90683 0.13772 0.0
Li1056 Li 0.83512 0.60104 0.12074 0.0
Li1057 Li 0.85515 0.57938 0.12394 0.0
Li1058 Li 0.83083 0.57389 0.10752 0.0
Li1059 Li 0.82921 0.57542 0.13565 0.0
C1060 C 0.86266 0.58879 0.09544 0.0
N1061 N 0.89191 0.58424 0.0791 0.0
C1062 C 0.86716 0.57295 0.09024 0.0
C1063 C 0.87303 0.60232 0.09232 0.0
C1064 C 0.882 0.5709 0.082 0.0
C1065 C 0.88777 0.59976 0.08404 0.0
C1066 C 0.85804 0.59952 0.14897 0.0
C1067 C 0.87888 0.59625 0.16898 0.0
N1068 N 0.88451 0.61186 0.16596 0.0
C1069 C 0.86391 0.6156 0.14619 0.0
C1070 C 0.86546 0.58983 0.16058 0.0
C1071 C 0.87735 0.62158 0.15486 0.0
C1072 C 0.82355 0.6322 0.13096 0.0
N1073 N 0.83107 0.62407 0.11898 0.0
C1074 C 0.83412 0.64934 0.1047 0.0
C1075 C 0.83613 0.63218 0.10592 0.0
C1076 C 0.82677 0.65817 0.11704 0.0
C1077 C 0.82124 0.64937 0.13022 0.0
H1078 H 0.81968 0.62535 0.14119 0.0
H1079 H 0.84182 0.62532 0.09649 0.0
C1080 C 0.88451 0.55979 0.12643 0.0
N1081 N 0.87858 0.5756 0.12581 0.0
C1082 C 0.9016 0.55688 0.12718 0.0
C1083 C 0.90615 0.58656 0.12664 0.0
C1084 C 0.88902 0.58887 0.12575 0.0
C1085 C 0.91263 0.5704 0.12734 0.0
H1086 H 0.87599 0.54942 0.12609 0.0
H1087 H 0.88409 0.60128 0.12465 0.0
C1088 C 0.80267 0.59372 0.11119 0.0
N1089 N 0.77824 0.60787 0.09284 0.0
C1090 C 0.78612 0.59358 0.11613 0.0
C1091 C 0.8068 0.60102 0.09691 0.0
C1092 C 0.77395 0.60081 0.10669 0.0
C1093 C 0.79427 0.60812 0.0878 0.0
C1094 C 0.83985 0.54465 0.13105 0.0
C1095 C 0.83043 0.53153 0.12507 0.0
C1096 C 0.84738 0.54303 0.14567 0.0
C1097 C 0.82838 0.51714 0.13399 0.0
C1098 C 0.84502 0.52846 0.15424 0.0
N1099 N 0.83562 0.51593 0.14828 0.0
C1100 C 0.82672 0.56829 0.07522 0.0
C1101 C 0.80816 0.55358 0.09168 0.0
C1102 C 0.81948 0.56124 0.06201 0.0
N1103 N 0.82118 0.56411 0.08966 0.0
C1104 C 0.80058 0.54617 0.07878 0.0
C1105 C 0.80634 0.54989 0.06371 0.0
H1106 H 0.83673 0.57712 0.07393 0.0
H1107 H 0.80367 0.55096 0.10332 0.0
C1108 C 0.82016 0.57293 0.16728 0.0
N1109 N 0.81714 0.5669 0.15277 0.0
C1110 C 0.81092 0.56724 0.17997 0.0
C1111 C 0.79588 0.54901 0.16253 0.0
C1112 C 0.80525 0.55524 0.15015 0.0
C1113 C 0.79853 0.55514 0.1777 0.0
H1114 H 0.82951 0.5824 0.16895 0.0
H1115 H 0.80301 0.55085 0.13841 0.0
O1116 O 0.8484 0.59091 0.10392 0.0
O1117 O 0.84489 0.59343 0.1406 0.0
O1118 O 0.81467 0.58661 0.12032 0.0
O1119 O 0.84182 0.55894 0.12259 0.0
H1120 H 0.85937 0.56231 0.09272 0.0
H1121 H 0.86988 0.61462 0.09646 0.0
H1122 H 0.88567 0.5587 0.07798 0.0
H1123 H 0.89596 0.61009 0.0816 0.0
H1124 H 0.8848 0.58884 0.17792 0.0
H1125 H 0.85837 0.6233 0.13727 0.0
H1126 H 0.86092 0.57749 0.16311 0.0
H1127 H 0.88211 0.63394 0.15272 0.0
H1128 H 0.83831 0.65563 0.09425 0.0
H1129 H 0.81565 0.65575 0.14004 0.0
H1130 H 0.90615 0.54422 0.12766 0.0
H1131 H 0.91426 0.59729 0.12636 0.0
H1132 H 0.78273 0.58792 0.12715 0.0
H1133 H 0.81951 0.60118 0.09285 0.0
H1134 H 0.76109 0.6008 0.11037 0.0
H1135 H 0.79729 0.61382 0.07673 0.0
H1136 H 0.82479 0.53241 0.11366 0.0
H1137 H 0.85489 0.55295 0.15036 0.0
H1138 H 0.82103 0.50693 0.12953 0.0
H1139 H 0.85066 0.52711 0.16563 0.0
H1140 H 0.82439 0.56437 0.05061 0.0
H1141 H 0.79032 0.53768 0.08057 0.0
H1142 H 0.81317 0.57264 0.19135 0.0
H1143 H 0.78662 0.53958 0.16021 0.0
Li1144 Li 0.14519 0.08176 0.87094 0.0
Li1145 Li 0.16593 0.10393 0.8729 0.0
Li1146 Li 0.17156 0.07704 0.85844 0.0
Li1147 Li 0.17102 0.07753 0.88683 0.0
C1148 C 0.14207 0.09888 0.84441 0.0
N1149 N 0.11482 0.10656 0.82617 0.0
C1150 C 0.1348 0.11461 0.84535 0.0
C1151 C 0.13567 0.08714 0.83401 0.0
C1152 C 0.12098 0.11824 0.83608 0.0
C1153 C 0.12183 0.09124 0.82494 0.0
C1154 C 0.15064 0.10342 0.90292 0.0
C1155 C 0.16228 0.11844 0.92468 0.0
N1156 N 0.14672 0.12305 0.92913 0.0
C1157 C 0.13475 0.10816 0.90779 0.0
C1158 C 0.16451 0.10849 0.9115 0.0
C1159 C 0.13303 0.11814 0.92103 0.0
C1160 C 0.11533 0.063 0.86793 0.0
N1161 N 0.12191 0.07841 0.86987 0.0
C1162 C 0.09489 0.09062 0.87007 0.0
C1163 C 0.1121 0.09208 0.87106 0.0
C1164 C 0.08766 0.07488 0.86802 0.0
C1165 C 0.09812 0.06093 0.86694 0.0
H1166 H 0.1234 0.05231 0.86725 0.0
H1167 H 0.1177 0.10417 0.8727 0.0
C1168 C 0.18268 0.13438 0.86721 0.0
N1169 N 0.16886 0.12732 0.87346 0.0
C1170 C 0.18489 0.1516 0.86785 0.0
C1171 C 0.15854 0.15387 0.88123 0.0
C1172 C 0.15677 0.1367 0.88015 0.0
C1173 C 0.17274 0.1616 0.87502 0.0
H1174 H 0.19198 0.12663 0.86172 0.0
H1175 H 0.14566 0.13087 0.88458 0.0
C1176 C 0.16128 0.04607 0.86693 0.0
N1177 N 0.16543 0.01443 0.855 0.0
C1178 C 0.17085 0.03439 0.875 0.0
C1179 C 0.15365 0.04158 0.85289 0.0
C1180 C 0.17284 0.01848 0.86876 0.0
C1181 C 0.15595 0.02555 0.84702 0.0
C1182 C 0.20218 0.09175 0.87789 0.0
C1183 C 0.21466 0.08098 0.87273 0.0
C1184 C 0.20627 0.1048 0.88795 0.0
C1185 C 0.23092 0.08314 0.87808 0.0
C1186 C 0.22268 0.10657 0.89303 0.0
N1187 N 0.23455 0.09577 0.88805 0.0
C1188 C 0.18075 0.07531 0.82695 0.0
C1189 C 0.1923 0.05399 0.84265 0.0
C1190 C 0.18916 0.06933 0.81388 0.0
N1191 N 0.18252 0.06764 0.84097 0.0
C1192 C 0.20075 0.04743 0.82984 0.0
C1193 C 0.19941 0.05523 0.81522 0.0
H1194 H 0.1731 0.08631 0.82601 0.0
H1195 H 0.19377 0.04832 0.85398 0.0
C1196 C 0.17083 0.06831 0.91842 0.0
N1197 N 0.18008 0.06788 0.90516 0.0
C1198 C 0.17691 0.06134 0.93216 0.0
C1199 C 0.20166 0.05293 0.91824 0.0
C1200 C 0.19516 0.06024 0.90478 0.0
C1201 C 0.19251 0.05353 0.93216 0.0
H1202 H 0.15861 0.07386 0.9183 0.0
H1203 H 0.20197 0.05947 0.89396 0.0
O1204 O 0.15543 0.09501 0.85359 0.0
O1205 O 0.15254 0.09379 0.88986 0.0
O1206 O 0.15929 0.06174 0.87284 0.0
O1207 O 0.18622 0.08989 0.87263 0.0
H1208 H 0.13966 0.12388 0.85326 0.0
H1209 H 0.1413 0.07501 0.83295 0.0
H1210 H 0.11515 0.13032 0.83678 0.0
H1211 H 0.11667 0.08223 0.81691 0.0
H1212 H 0.17292 0.12245 0.93142 0.0
H1213 H 0.12386 0.10422 0.90139 0.0
H1214 H 0.17682 0.10456 0.90815 0.0
H1215 H 0.12082 0.12197 0.92488 0.0
H1216 H 0.08733 0.10173 0.87076 0.0
H1217 H 0.09307 0.04855 0.86559 0.0
H1218 H 0.19589 0.15699 0.86262 0.0
H1219 H 0.14891 0.16095 0.88703 0.0
H1220 H 0.1767 0.03758 0.88595 0.0
H1221 H 0.14611 0.0504 0.84656 0.0
H1222 H 0.18027 0.00935 0.87485 0.0
H1223 H 0.1502 0.02196 0.83612 0.0
H1224 H 0.21181 0.07096 0.86479 0.0
H1225 H 0.19697 0.11362 0.89167 0.0
H1226 H 0.24064 0.07479 0.87428 0.0
H1227 H 0.22598 0.11658 0.90086 0.0
H1228 H 0.18803 0.07602 0.80297 0.0
H1229 H 0.20836 0.03648 0.83144 0.0
H1230 H 0.16927 0.06164 0.94257 0.0
H1231 H 0.21365 0.04685 0.91775 0.0
Li1232 Li 0.67083 0.4218 0.60987 0.0
Li1233 Li 0.67086 0.41984 0.63722 0.0
Li1234 Li 0.66731 0.39469 0.62144 0.0
Li1235 Li 0.6448 0.41702 0.62342 0.0
C1236 C 0.70204 0.40523 0.61735 0.0
N1237 N 0.73313 0.3971 0.60598 0.0
C1238 C 0.71619 0.41313 0.62322 0.0
C1239 C 0.70373 0.39306 0.60581 0.0
C1240 C 0.7318 0.40889 0.61728 0.0
C1241 C 0.71955 0.38916 0.60018 0.0
C1242 C 0.66704 0.45183 0.62548 0.0
C1243 C 0.66616 0.48173 0.62714 0.0
N1244 N 0.68306 0.48215 0.62706 0.0
C1245 C 0.6844 0.45256 0.62539 0.0
C1246 C 0.65784 0.46652 0.62634 0.0
C1247 C 0.69226 0.468 0.6262 0.0
C1248 C 0.66774 0.44367 0.58529 0.0
N1249 N 0.67922 0.43377 0.59227 0.0
C1250 C 0.6997 0.44163 0.57344 0.0
C1251 C 0.69507 0.4328 0.58679 0.0
C1252 C 0.68781 0.45128 0.56566 0.0
C1253 C 0.6717 0.45238 0.57176 0.0
H1254 H 0.65536 0.44457 0.59013 0.0
H1255 H 0.70415 0.42517 0.59259 0.0
C1256 C 0.69284 0.41778 0.66209 0.0
N1257 N 0.68048 0.4273 0.65609 0.0
C1258 C 0.70015 0.42201 0.67627 0.0
C1259 C 0.68206 0.44599 0.67768 0.0
C1260 C 0.67494 0.44116 0.66353 0.0
C1261 C 0.69473 0.43626 0.68424 0.0
H1262 H 0.69686 0.40676 0.65592 0.0
H1263 H 0.66487 0.44833 0.65859 0.0
C1264 C 0.65094 0.4069 0.58913 0.0
N1265 N 0.64642 0.41165 0.55746 0.0
C1266 C 0.6368 0.41513 0.58364 0.0
C1267 C 0.66264 0.40085 0.57849 0.0
C1268 C 0.63477 0.41746 0.56759 0.0
C1269 C 0.66018 0.40346 0.56253 0.0
C1270 C 0.65154 0.40253 0.65557 0.0
C1271 C 0.65988 0.39129 0.66523 0.0
C1272 C 0.6414 0.41476 0.66219 0.0
C1273 C 0.65802 0.39256 0.6814 0.0
C1274 C 0.63986 0.41559 0.67841 0.0
N1275 N 0.64815 0.40458 0.6876 0.0
C1276 C 0.67977 0.36322 0.63051 0.0
C1277 C 0.66347 0.36359 0.60746 0.0
C1278 C 0.68149 0.34598 0.62951 0.0
N1279 N 0.67069 0.37155 0.61968 0.0
C1280 C 0.66504 0.34643 0.60589 0.0
C1281 C 0.67392 0.33731 0.61714 0.0
H1282 H 0.68549 0.36995 0.64002 0.0
H1283 H 0.65639 0.37057 0.59899 0.0
C1284 C 0.61469 0.43489 0.61989 0.0
N1285 N 0.62165 0.42025 0.62429 0.0
C1286 C 0.59746 0.43697 0.62058 0.0
C1287 C 0.59508 0.40893 0.63052 0.0
C1288 C 0.6123 0.40739 0.62956 0.0
C1289 C 0.58741 0.42384 0.6259 0.0
H1290 H 0.62251 0.44487 0.6157 0.0
H1291 H 0.61827 0.39593 0.63307 0.0
O1292 O 0.68672 0.40917 0.62317 0.0
O1293 O 0.659 0.43688 0.62464 0.0
O1294 O 0.65329 0.40482 0.60483 0.0
O1295 O 0.65366 0.40191 0.63975 0.0
H1296 H 0.71514 0.42246 0.63227 0.0
H1297 H 0.69298 0.3867 0.60124 0.0
H1298 H 0.74284 0.41495 0.62168 0.0
H1299 H 0.72102 0.37981 0.59122 0.0
H1300 H 0.65919 0.4932 0.62783 0.0
H1301 H 0.69173 0.44136 0.62469 0.0
H1302 H 0.64439 0.46617 0.62641 0.0
H1303 H 0.70569 0.46874 0.62615 0.0
H1304 H 0.71227 0.44061 0.56902 0.0
H1305 H 0.6623 0.45993 0.56612 0.0
H1306 H 0.70999 0.41428 0.68093 0.0
H1307 H 0.67747 0.45697 0.6836 0.0
H1308 H 0.62757 0.41981 0.59167 0.0
H1309 H 0.6736 0.39438 0.58249 0.0
H1310 H 0.62395 0.42391 0.56319 0.0
H1311 H 0.66922 0.39898 0.55419 0.0
H1312 H 0.66783 0.38182 0.6603 0.0
H1313 H 0.63501 0.42367 0.65488 0.0
H1314 H 0.66448 0.38401 0.68903 0.0
H1315 H 0.63215 0.42505 0.68369 0.0
H1316 H 0.68833 0.33951 0.63854 0.0
H1317 H 0.6593 0.34039 0.59598 0.0
H1318 H 0.59208 0.4486 0.61674 0.0
H1319 H 0.58787 0.3986 0.63495 0.0
Li1320 Li 0.32613 0.919 0.36285 0.0
Li1321 Li 0.32812 0.92084 0.39097 0.0
Li1322 Li 0.35389 0.91734 0.375 0.0
Li1323 Li 0.33435 0.89438 0.37936 0.0
C1324 C 0.34061 0.95077 0.36733 0.0
N1325 N 0.34629 0.98002 0.35131 0.0
C1326 C 0.33295 0.96549 0.37214 0.0
C1327 C 0.35133 0.95098 0.35451 0.0
C1328 C 0.33593 0.98014 0.36385 0.0
C1329 C 0.35401 0.96587 0.34653 0.0
C1330 C 0.29804 0.90859 0.3858 0.0
C1331 C 0.27921 0.90237 0.40691 0.0
N1332 N 0.26809 0.91339 0.40091 0.0
C1333 C 0.28637 0.91973 0.37977 0.0
C1334 C 0.29439 0.89972 0.3994 0.0
C1335 C 0.27132 0.92202 0.38761 0.0
C1336 C 0.31026 0.91278 0.33492 0.0
N1337 N 0.31373 0.92522 0.3451 0.0
C1338 C 0.2976 0.94442 0.33018 0.0
C1339 C 0.30764 0.94083 0.34304 0.0
C1340 C 0.29367 0.93174 0.31956 0.0
C1341 C 0.30027 0.91579 0.32196 0.0
H1342 H 0.3151 0.90044 0.33701 0.0
H1343 H 0.31015 0.95037 0.35156 0.0
C1344 C 0.32284 0.92711 0.42303 0.0
N1345 N 0.31842 0.93161 0.40834 0.0
C1346 C 0.31564 0.93495 0.43587 0.0
C1347 C 0.29946 0.95189 0.41818 0.0
C1348 C 0.30701 0.94374 0.40569 0.0
C1349 C 0.30381 0.94755 0.43351 0.0
H1350 H 0.33211 0.91759 0.42479 0.0
H1351 H 0.30377 0.94705 0.39385 0.0
C1352 C 0.35229 0.89817 0.3461 0.0
N1353 N 0.36908 0.88967 0.31909 0.0
C1354 C 0.36004 0.88268 0.34482 0.0
C1355 C 0.35281 0.90919 0.33349 0.0
C1356 C 0.36855 0.87866 0.33112 0.0
C1357 C 0.36142 0.9047 0.31998 0.0
C1358 C 0.35403 0.89476 0.40489 0.0
C1359 C 0.37108 0.89144 0.4051 0.0
C1360 C 0.3434 0.88578 0.41466 0.0
C1361 C 0.37719 0.87899 0.41491 0.0
C1362 C 0.34998 0.87342 0.42429 0.0
N1363 N 0.36659 0.8703 0.42421 0.0
C1364 C 0.38284 0.93756 0.37682 0.0
C1365 C 0.38696 0.91031 0.36706 0.0
C1366 C 0.39974 0.94111 0.37509 0.0
N1367 N 0.37681 0.92241 0.37265 0.0
C1368 C 0.40388 0.91333 0.3651 0.0
C1369 C 0.41047 0.92891 0.36909 0.0
H1370 H 0.37452 0.94686 0.38151 0.0
H1371 H 0.38199 0.89818 0.36444 0.0
C1372 C 0.31758 0.86363 0.3799 0.0
N1373 N 0.33276 0.87091 0.38105 0.0
C1374 C 0.31609 0.84635 0.38058 0.0
C1375 C 0.34587 0.84446 0.38385 0.0
C1376 C 0.34679 0.86172 0.38287 0.0
C1377 C 0.33037 0.8365 0.38255 0.0
H1378 H 0.30665 0.87123 0.3782 0.0
H1379 H 0.35875 0.86778 0.38344 0.0
O1380 O 0.33775 0.93632 0.37532 0.0
O1381 O 0.31296 0.90639 0.37844 0.0
O1382 O 0.34376 0.90222 0.35941 0.0
O1383 O 0.34783 0.90683 0.39526 0.0
H1384 H 0.32475 0.96561 0.38214 0.0
H1385 H 0.35771 0.93984 0.35089 0.0
H1386 H 0.33001 0.99161 0.36739 0.0
H1387 H 0.36227 0.9662 0.33658 0.0
H1388 H 0.27626 0.89567 0.4175 0.0
H1389 H 0.28897 0.92666 0.36924 0.0
H1390 H 0.3032 0.89092 0.40413 0.0
H1391 H 0.26222 0.9307 0.38313 0.0
H1392 H 0.29256 0.95681 0.32883 0.0
H1393 H 0.29768 0.90571 0.31394 0.0
H1394 H 0.31963 0.93148 0.44749 0.0
H1395 H 0.29035 0.96148 0.41586 0.0
H1396 H 0.35962 0.8739 0.35434 0.0
H1397 H 0.34645 0.921 0.33399 0.0
H1398 H 0.37472 0.86677 0.33004 0.0
H1399 H 0.36194 0.91314 0.31016 0.0
H1400 H 0.37952 0.89837 0.39775 0.0
H1401 H 0.3302 0.88823 0.41469 0.0
H1402 H 0.39034 0.87624 0.41514 0.0
H1403 H 0.34188 0.8663 0.43182 0.0
H1404 H 0.40433 0.95328 0.37833 0.0
H1405 H 0.41178 0.90342 0.36084 0.0
H1406 H 0.30392 0.84081 0.37922 0.0
H1407 H 0.35721 0.83747 0.3856 0.0
H1408 H 0.19696 0.8191 0.11449 0.0
H1409 H 0.19909 0.78873 0.11517 0.0
H1410 H 0.14569 0.78502 0.11787 0.0
H1411 H 0.14348 0.81532 0.11744 0.0
H1412 H 0.16187 0.76541 0.13961 0.0
H1413 H 0.165 0.77705 0.08426 0.0
H1414 H 0.17671 0.79045 0.06082 0.0
H1415 H 0.2241 0.76795 0.07003 0.0
H1416 H 0.21272 0.75459 0.09365 0.0
H1417 H 0.14679 0.68142 0.1238 0.0
H1418 H 0.14784 0.71163 0.12309 0.0
H1419 H 0.2007 0.70977 0.11478 0.0
H1420 H 0.1996 0.67941 0.11455 0.0
H1421 H 0.18712 0.73242 0.09681 0.0
H1422 H 0.18471 0.71977 0.15105 0.0
H1423 H 0.17412 0.70652 0.17501 0.0
H1424 H 0.12719 0.73113 0.16905 0.0
H1425 H 0.13742 0.74435 0.14492 0.0
C1426 C 0.18569 0.81179 0.11526 0.0
C1427 C 0.17005 0.81956 0.11588 0.0
C1428 C 0.18692 0.79448 0.11555 0.0
C1429 C 0.17254 0.78467 0.11648 0.0
C1430 C 0.15693 0.7924 0.11712 0.0
C1431 C 0.15568 0.80968 0.11674 0.0
C1432 C 0.17368 0.76635 0.11709 0.0
C1433 C 0.16722 0.75815 0.13019 0.0
C1434 C 0.18124 0.757 0.10505 0.0
C1435 C 0.18806 0.76497 0.09081 0.0
C1436 C 0.17795 0.77507 0.08136 0.0
C1437 C 0.18452 0.78264 0.06803 0.0
C1438 C 0.20115 0.78009 0.06397 0.0
C1439 C 0.21123 0.76993 0.0732 0.0
C1440 C 0.20472 0.76235 0.08655 0.0
C1441 C 0.15863 0.68738 0.12161 0.0
C1442 C 0.17312 0.67794 0.11923 0.0
C1443 C 0.15924 0.7047 0.12142 0.0
C1444 C 0.1744 0.71298 0.11916 0.0
C1445 C 0.18888 0.70363 0.11665 0.0
C1446 C 0.18825 0.68628 0.11668 0.0
C1447 C 0.17501 0.73139 0.11924 0.0
C1448 C 0.18185 0.73963 0.1063 0.0
C1449 C 0.16798 0.74082 0.13154 0.0
C1450 C 0.1618 0.73295 0.1461 0.0
C1451 C 0.17209 0.72227 0.15478 0.0
C1452 C 0.16616 0.71477 0.16841 0.0
C1453 C 0.14998 0.71795 0.17353 0.0
C1454 C 0.13972 0.72866 0.16506 0.0
C1455 C 0.14558 0.73618 0.15141 0.0
H1456 H 0.14541 0.71214 0.18408 0.0
H1457 H 0.20621 0.78596 0.05364 0.0
H1458 H 0.43113 0.94441 0.38983 0.0
H1459 H 0.46133 0.94724 0.38815 0.0
H1460 H 0.46085 0.92318 0.34315 0.0
H1461 H 0.43065 0.92031 0.34476 0.0
H1462 H 0.48304 0.90923 0.36195 0.0
H1463 H 0.46946 0.96462 0.34656 0.0
H1464 H 0.45585 0.99198 0.34855 0.0
H1465 H 0.48083 0.00114 0.39199 0.0
H1466 H 0.49442 0.97372 0.39038 0.0
H1467 H 0.56867 0.92013 0.34742 0.0
H1468 H 0.53851 0.92276 0.34499 0.0
H1469 H 0.53626 0.94562 0.39049 0.0
H1470 H 0.56647 0.94309 0.39296 0.0
H1471 H 0.51553 0.96093 0.36996 0.0
H1472 H 0.52751 0.90474 0.386 0.0
H1473 H 0.54107 0.87735 0.38396 0.0
H1474 H 0.51876 0.86978 0.33899 0.0
H1475 H 0.50525 0.89725 0.34067 0.0
C1476 C 0.43742 0.94003 0.37944 0.0
C1477 C 0.42854 0.93206 0.36746 0.0
C1478 C 0.45468 0.94166 0.3785 0.0
C1479 C 0.46333 0.93549 0.36549 0.0
C1480 C 0.45442 0.92798 0.35331 0.0
C1481 C 0.43719 0.9263 0.35427 0.0
C1482 C 0.48174 0.93576 0.36511 0.0
C1483 C 0.49014 0.92059 0.36341 0.0
C1484 C 0.49099 0.95052 0.36741 0.0
C1485 C 0.48285 0.96704 0.36841 0.0
C1486 C 0.47195 0.97241 0.35661 0.0
C1487 C 0.46426 0.98794 0.35765 0.0
C1488 C 0.46744 0.99828 0.37041 0.0
C1489 C 0.47836 0.99312 0.38213 0.0
C1490 C 0.48608 0.97758 0.38114 0.0
C1491 C 0.56174 0.9257 0.35691 0.0
C1492 C 0.5699 0.93124 0.37045 0.0
C1493 C 0.54453 0.92724 0.35549 0.0
C1494 C 0.53514 0.93417 0.36766 0.0
C1495 C 0.54329 0.94024 0.38097 0.0
C1496 C 0.56053 0.93878 0.38236 0.0
C1497 C 0.51675 0.93441 0.36682 0.0
C1498 C 0.50839 0.94962 0.36835 0.0
C1499 C 0.50749 0.91969 0.36436 0.0
C1500 C 0.51551 0.90312 0.36339 0.0
C1501 C 0.52559 0.89729 0.37563 0.0
C1502 C 0.53326 0.88174 0.37454 0.0
C1503 C 0.53081 0.87185 0.36134 0.0
C1504 C 0.52066 0.87747 0.3492 0.0
C1505 C 0.51299 0.89302 0.35022 0.0
H1506 H 0.53676 0.85982 0.36052 0.0
H1507 H 0.46147 0.0103 0.3712 0.0
H1508 H 0.34912 0.31719 0.62834 0.0
H1509 H 0.34857 0.28694 0.62644 0.0
H1510 H 0.30609 0.2898 0.59578 0.0
H1511 H 0.30639 0.32017 0.59797 0.0
H1512 H 0.30138 0.26629 0.61618 0.0
H1513 H 0.34559 0.28031 0.58187 0.0
H1514 H 0.37148 0.29393 0.57333 0.0
H1515 H 0.39869 0.26827 0.60908 0.0
H1516 H 0.37291 0.25467 0.61799 0.0
H1517 H 0.31028 0.17979 0.5961 0.0
H1518 H 0.30925 0.2101 0.59405 0.0
H1519 H 0.34517 0.21429 0.63117 0.0
H1520 H 0.34585 0.18411 0.63376 0.0
H1521 H 0.35237 0.23394 0.60443 0.0
H1522 H 0.30651 0.2216 0.63933 0.0
H1523 H 0.28027 0.20779 0.64659 0.0
H1524 H 0.25585 0.23019 0.6073 0.0
H1525 H 0.28204 0.24395 0.59969 0.0
C1526 C 0.33977 0.31137 0.62108 0.0
C1527 C 0.32786 0.321 0.61322 0.0
C1528 C 0.33947 0.29408 0.61996 0.0
C1529 C 0.32747 0.28609 0.61073 0.0
C1530 C 0.3155 0.29569 0.60293 0.0
C1531 C 0.31566 0.31301 0.6042 0.0
C1532 C 0.32722 0.26769 0.60962 0.0
C1533 C 0.31247 0.25924 0.61332 0.0
C1534 C 0.34171 0.25845 0.60602 0.0
C1535 C 0.35727 0.26656 0.60067 0.0
C1536 C 0.35707 0.27766 0.58799 0.0
C1537 C 0.37173 0.28536 0.58307 0.0
C1538 C 0.38671 0.282 0.59068 0.0
C1539 C 0.38707 0.27088 0.6032 0.0
C1540 C 0.37244 0.26315 0.60818 0.0
C1541 C 0.3178 0.18714 0.60399 0.0
C1542 C 0.32817 0.17947 0.61509 0.0
C1543 C 0.31727 0.20445 0.60271 0.0
C1544 C 0.32714 0.21437 0.61246 0.0
C1545 C 0.33755 0.2068 0.62348 0.0
C1546 C 0.33797 0.18954 0.62487 0.0
C1547 C 0.32668 0.23268 0.61128 0.0
C1548 C 0.34129 0.24107 0.60711 0.0
C1549 C 0.31202 0.24184 0.61422 0.0
C1550 C 0.29627 0.23364 0.61884 0.0
C1551 C 0.29559 0.22346 0.63216 0.0
C1552 C 0.28071 0.21567 0.63636 0.0
C1553 C 0.26641 0.21807 0.62738 0.0
C1554 C 0.26695 0.22832 0.61422 0.0
C1555 C 0.2818 0.23612 0.60997 0.0
H1556 H 0.25491 0.21203 0.63065 0.0
H1557 H 0.39805 0.28797 0.58685 0.0
H1558 H 0.06951 0.05463 0.84871 0.0
H1559 H 0.03923 0.05216 0.84723 0.0
H1560 H 0.03417 0.08897 0.88352 0.0
H1561 H 0.06432 0.091 0.88553 0.0
H1562 H 0.01344 0.06384 0.88833 0.0
H1563 H 0.02878 0.09856 0.84459 0.0
H1564 H 0.04373 0.10524 0.82026 0.0
H1565 H 0.02114 0.06337 0.79757 0.0
H1566 H 0.00622 0.05632 0.82184 0.0
H1567 H 0.93225 0.09382 0.88021 0.0
H1568 H 0.96243 0.09105 0.87993 0.0
H1569 H 0.95872 0.0524 0.84522 0.0
H1570 H 0.92838 0.05542 0.84512 0.0
H1571 H 0.98365 0.07483 0.83867 0.0
H1572 H 0.96624 0.04182 0.88203 0.0
H1573 H 0.951 0.03578 0.90633 0.0
H1574 H 0.97737 0.07485 0.9298 0.0
H1575 H 0.99261 0.08129 0.90556 0.0
C1576 C 0.06194 0.06205 0.8565 0.0
C1577 C 0.06933 0.07309 0.86718 0.0
C1578 C 0.04465 0.06074 0.85553 0.0
C1579 C 0.03445 0.07054 0.86513 0.0
C1580 C 0.0418 0.08133 0.87597 0.0
C1581 C 0.05905 0.0826 0.87699 0.0
C1582 C 0.01609 0.06973 0.86393 0.0
C1583 C 0.00693 0.06636 0.87749 0.0
C1584 C 0.00762 0.07253 0.84968 0.0
C1585 C 0.01653 0.0768 0.83508 0.0
C1586 C 0.0271 0.0907 0.83445 0.0
C1587 C 0.03555 0.09457 0.82066 0.0
C1588 C 0.03343 0.08471 0.80739 0.0
C1589 C 0.0228 0.07098 0.80786 0.0
C1590 C 0.01434 0.06705 0.82163 0.0
C1591 C 0.93784 0.08487 0.87236 0.0
C1592 C 0.92793 0.07484 0.86268 0.0
C1593 C 0.95508 0.08318 0.87233 0.0
C1594 C 0.96277 0.07136 0.86271 0.0
C1595 C 0.95299 0.06153 0.85279 0.0
C1596 C 0.93568 0.06319 0.85283 0.0
C1597 C 0.98105 0.06934 0.86315 0.0
C1598 C 0.99018 0.07212 0.84945 0.0
C1599 C 0.98952 0.06605 0.87728 0.0
C1600 C 0.98049 0.06211 0.89194 0.0
C1601 C 0.96872 0.0492 0.89234 0.0
C1602 C 0.96008 0.04569 0.90611 0.0
C1603 C 0.96319 0.05494 0.9196 0.0
C1604 C 0.97497 0.0677 0.91935 0.0
C1605 C 0.98363 0.07126 0.9056 0.0
H1606 H 0.95649 0.05222 0.93025 0.0
H1607 H 0.03998 0.08772 0.79673 0.0
H1608 H 0.15019 0.31684 0.8851 0.0
H1609 H 0.15246 0.28671 0.88561 0.0
H1610 H 0.20548 0.29037 0.87883 0.0
H1611 H 0.20315 0.32057 0.87718 0.0
H1612 H 0.19429 0.26719 0.86119 0.0
H1613 H 0.1878 0.2795 0.9149 0.0
H1614 H 0.17562 0.29224 0.93843 0.0
H1615 H 0.12975 0.26645 0.93015 0.0
H1616 H 0.14157 0.25373 0.90643 0.0
H1617 H 0.20145 0.17953 0.87962 0.0
H1618 H 0.20433 0.20974 0.8816 0.0
H1619 H 0.15148 0.21538 0.87537 0.0
H1620 H 0.1485 0.1854 0.87259 0.0
H1621 H 0.16615 0.23335 0.90175 0.0
H1622 H 0.17368 0.22344 0.84606 0.0
H1623 H 0.18751 0.21038 0.82349 0.0
H1624 H 0.23417 0.23148 0.83761 0.0
H1625 H 0.22063 0.24447 0.86041 0.0
C1626 C 0.16233 0.31128 0.88354 0.0
C1627 C 0.17648 0.3212 0.88104 0.0
C1628 C 0.16365 0.29401 0.8841 0.0
C1629 C 0.17919 0.28624 0.88254 0.0
C1630 C 0.19337 0.29608 0.88015 0.0
C1631 C 0.19203 0.31337 0.87937 0.0
C1632 C 0.18044 0.26784 0.88275 0.0
C1633 C 0.18841 0.25983 0.87025 0.0
C1634 C 0.17273 0.25815 0.89452 0.0
C1635 C 0.16555 0.26575 0.90881 0.0
C1636 C 0.17507 0.27663 0.91803 0.0
C1637 C 0.16824 0.28384 0.93141 0.0
C1638 C 0.15191 0.28018 0.93577 0.0
C1639 C 0.1424 0.26928 0.92676 0.0
C1640 C 0.14916 0.26205 0.91335 0.0
C1641 C 0.19045 0.18718 0.87842 0.0
C1642 C 0.17472 0.17996 0.876 0.0
C1643 C 0.19213 0.20443 0.87969 0.0
C1644 C 0.17809 0.2147 0.87871 0.0
C1645 C 0.16242 0.20759 0.87631 0.0
C1646 C 0.16075 0.19042 0.87481 0.0
C1647 C 0.17962 0.23292 0.88007 0.0
C1648 C 0.1722 0.24082 0.89287 0.0
C1649 C 0.1881 0.24248 0.86877 0.0
C1650 C 0.19619 0.23475 0.85503 0.0
C1651 C 0.18692 0.22516 0.84443 0.0
C1652 C 0.1947 0.2178 0.83158 0.0
C1653 C 0.21172 0.22005 0.82915 0.0
C1654 C 0.22099 0.22972 0.83953 0.0
C1655 C 0.21327 0.23708 0.85241 0.0
H1656 H 0.21772 0.21435 0.81919 0.0
H1657 H 0.14664 0.28577 0.94614 0.0
H1658 H 0.92843 0.93138 0.15307 0.0
H1659 H 0.95861 0.9339 0.1529 0.0
H1660 H 0.95856 0.93211 0.10257 0.0
H1661 H 0.92856 0.9283 0.10265 0.0
H1662 H 0.98157 0.91309 0.11267 0.0
H1663 H 0.96548 0.96905 0.1244 0.0
H1664 H 0.95102 0.99134 0.13873 0.0
H1665 H 0.97702 0.97803 0.18067 0.0
H1666 H 0.99148 0.9555 0.16663 0.0
H1667 H 0.06486 0.93898 0.10174 0.0
H1668 H 0.03447 0.94086 0.10262 0.0
H1669 H 0.03529 0.92989 0.15189 0.0
H1670 H 0.0657 0.9279 0.15106 0.0
H1671 H 0.01233 0.95614 0.14241 0.0
H1672 H 0.0276 0.89957 0.13007 0.0
H1673 H 0.04232 0.87794 0.11509 0.0
H1674 H 0.01768 0.89371 0.07318 0.0
H1675 H 0.003 0.91562 0.08789 0.0
C1676 C 0.93482 0.93136 0.14195 0.0
C1677 C 0.92597 0.92961 0.12787 0.0
C1678 C 0.9521 0.93308 0.14187 0.0
C1679 C 0.96088 0.93345 0.12771 0.0
C1680 C 0.95207 0.93192 0.11365 0.0
C1681 C 0.93484 0.92994 0.11372 0.0
C1682 C 0.97929 0.93463 0.12752 0.0
C1683 C 0.98822 0.9227 0.11898 0.0
C1684 C 0.98808 0.94691 0.13603 0.0
C1685 C 0.97945 0.96049 0.14449 0.0
C1686 C 0.96802 0.9708 0.1367 0.0
C1687 C 0.95984 0.98349 0.14477 0.0
C1688 C 0.96307 0.98608 0.16061 0.0
C1689 C 0.97452 0.976 0.1684 0.0
C1690 C 0.98273 0.96328 0.16039 0.0
C1691 C 0.05856 0.93725 0.1128 0.0
C1692 C 0.06757 0.93321 0.12632 0.0
C1693 C 0.04125 0.93826 0.11327 0.0
C1694 C 0.03271 0.93542 0.1273 0.0
C1695 C 0.0417 0.93213 0.14097 0.0
C1696 C 0.05901 0.9309 0.14046 0.0
C1697 C 0.01436 0.93475 0.12747 0.0
C1698 C 0.00554 0.94667 0.13605 0.0
C1699 C 0.00562 0.92258 0.11888 0.0
C1700 C 0.01435 0.90934 0.11005 0.0
C1701 C 0.02544 0.89852 0.11764 0.0
C1702 C 0.03375 0.8862 0.1092 0.0
C1703 C 0.03097 0.88448 0.09318 0.0
C1704 C 0.01984 0.89507 0.08558 0.0
C1705 C 0.01151 0.90744 0.09396 0.0
H1706 H 0.03742 0.87493 0.08667 0.0
H1707 H 0.95672 0.99591 0.16683 0.0
H1708 H 0.35335 0.68079 0.36964 0.0
H1709 H 0.35212 0.71094 0.3727 0.0
H1710 H 0.30027 0.70745 0.38529 0.0
H1711 H 0.30137 0.67724 0.38167 0.0
H1712 H 0.30417 0.73254 0.36699 0.0
H1713 H 0.33147 0.7145 0.41304 0.0
H1714 H 0.35195 0.69939 0.42905 0.0
H1715 H 0.39165 0.72659 0.40743 0.0
H1716 H 0.37143 0.74171 0.39111 0.0
H1717 H 0.30572 0.81708 0.39531 0.0
H1718 H 0.30376 0.78674 0.39514 0.0
H1719 H 0.35062 0.78374 0.37092 0.0
H1720 H 0.35237 0.81397 0.37034 0.0
H1721 H 0.34716 0.76212 0.39785 0.0
H1722 H 0.31798 0.77856 0.35052 0.0
H1723 H 0.29632 0.79383 0.33606 0.0
H1724 H 0.25842 0.76959 0.36301 0.0
H1725 H 0.27989 0.75435 0.37779 0.0
C1726 C 0.34172 0.68648 0.3731 0.0
C1727 C 0.32748 0.67675 0.37551 0.0
C1728 C 0.34103 0.70369 0.37493 0.0
C1729 C 0.32619 0.71145 0.37957 0.0
C1730 C 0.31187 0.70174 0.38177 0.0
C1731 C 0.3125 0.68452 0.37969 0.0
C1732 C 0.32563 0.72973 0.38184 0.0
C1733 C 0.3134 0.73895 0.37398 0.0
C1734 C 0.33769 0.73818 0.39092 0.0
C1735 C 0.34993 0.72915 0.40075 0.0
C1736 C 0.34458 0.71718 0.41161 0.0
C1737 C 0.35614 0.70862 0.42076 0.0
C1738 C 0.37309 0.712 0.41924 0.0
C1739 C 0.37851 0.72398 0.40859 0.0
C1740 C 0.36701 0.73256 0.3994 0.0
C1741 C 0.31552 0.81001 0.38977 0.0
C1742 C 0.32922 0.81804 0.38285 0.0
C1743 C 0.31442 0.79267 0.38979 0.0
C1744 C 0.32706 0.78308 0.38303 0.0
C1745 C 0.34081 0.79098 0.3763 0.0
C1746 C 0.34182 0.80828 0.37607 0.0
C1747 C 0.32597 0.76476 0.38275 0.0
C1748 C 0.33786 0.7556 0.39102 0.0
C1749 C 0.31342 0.75637 0.37433 0.0
C1750 C 0.30054 0.76546 0.36537 0.0
C1751 C 0.30503 0.7766 0.35346 0.0
C1752 C 0.29279 0.78523 0.34518 0.0
C1753 C 0.27601 0.78273 0.34865 0.0
C1754 C 0.27143 0.77155 0.36036 0.0
C1755 C 0.28362 0.7629 0.36868 0.0
H1756 H 0.26655 0.78941 0.34223 0.0
H1757 H 0.38202 0.70536 0.42633 0.0
H1758 H 0.56947 0.05384 0.63801 0.0
H1759 H 0.53912 0.05236 0.63936 0.0
H1760 H 0.53549 0.08914 0.60284 0.0
H1761 H 0.56581 0.09099 0.60181 0.0
H1762 H 0.51436 0.09614 0.6247 0.0
H1763 H 0.52857 0.04639 0.59657 0.0
H1764 H 0.54297 0.01974 0.59222 0.0
H1765 H 0.52046 -0.00039 0.63353 0.0
H1766 H 0.50609 0.02623 0.63825 0.0
H1767 H 0.43102 0.08417 0.60155 0.0
H1768 H 0.46141 0.08334 0.60164 0.0
H1769 H 0.46062 0.05434 0.64396 0.0
H1770 H 0.43012 0.05511 0.64394 0.0
H1771 H 0.48363 0.04285 0.62064 0.0
H1772 H 0.46867 0.09281 0.64787 0.0
H1773 H 0.45395 0.11941 0.6514 0.0
H1774 H 0.47779 0.13906 0.61055 0.0
H1775 H 0.49248 0.11247 0.60663 0.0
C1776 C 0.56216 0.06151 0.63021 0.0
C1777 C 0.56994 0.0725 0.61978 0.0
C1778 C 0.54484 0.06064 0.63096 0.0
C1779 C 0.535 0.07048 0.62105 0.0
C1780 C 0.54281 0.08145 0.61062 0.0
C1781 C 0.56011 0.0825 0.61003 0.0
C1782 C 0.51659 0.06963 0.6217 0.0
C1783 C 0.50767 0.08449 0.6236 0.0
C1784 C 0.50782 0.05439 0.6207 0.0
C1785 C 0.51638 0.03836 0.61784 0.0
C1786 C 0.52678 0.03632 0.60479 0.0
C1787 C 0.53493 0.02122 0.60225 0.0
C1788 C 0.53267 0.00801 0.61261 0.0
C1789 C 0.52222 0.00986 0.62552 0.0
C1790 C 0.51406 0.02495 0.62813 0.0
C1791 C 0.43731 0.07743 0.61076 0.0
C1792 C 0.42824 0.06971 0.62275 0.0
C1793 C 0.45465 0.07706 0.61085 0.0
C1794 C 0.4632 0.06889 0.62287 0.0
C1795 C 0.4542 0.06073 0.63461 0.0
C1796 C 0.43683 0.06125 0.63463 0.0
C1797 C 0.48156 0.06935 0.62336 0.0
C1798 C 0.49041 0.05444 0.62174 0.0
C1799 C 0.49028 0.08454 0.6245 0.0
C1800 C 0.48155 0.10059 0.62688 0.0
C1801 C 0.47067 0.10275 0.63956 0.0
C1802 C 0.46235 0.11784 0.64165 0.0
C1803 C 0.4649 0.1309 0.63118 0.0
C1804 C 0.47581 0.12892 0.61863 0.0
C1805 C 0.48415 0.11385 0.61648 0.0
H1806 H 0.45845 0.14258 0.63282 0.0
H1807 H 0.53899 0.99633 0.61063 0.0
H1808 H 0.82198 0.18017 0.90114 0.0
H1809 H 0.81954 0.21032 0.90182 0.0
H1810 H 0.80947 0.21092 0.85236 0.0
H1811 H 0.81295 0.18082 0.85138 0.0
H1812 H 0.83115 0.23342 0.85869 0.0
H1813 H 0.77874 0.21884 0.88055 0.0
H1814 H 0.7592 0.20464 0.89825 0.0
H1815 H 0.78192 0.22847 0.93768 0.0
H1816 H 0.80176 0.24264 0.92023 0.0
H1817 H 0.80841 0.31888 0.8579 0.0
H1818 H 0.80486 0.28863 0.85731 0.0
H1819 H 0.82776 0.28484 0.90268 0.0
H1820 H 0.83151 0.3151 0.90327 0.0
H1821 H 0.79767 0.26443 0.89765 0.0
H1822 H 0.85127 0.27727 0.87479 0.0
H1823 H 0.86979 0.29182 0.85638 0.0
H1824 H 0.84283 0.27123 0.8177 0.0
H1825 H 0.82397 0.25676 0.8359 0.0
C1826 C 0.81934 0.18669 0.89037 0.0
C1827 C 0.81777 0.17803 0.87618 0.0
C1828 C 0.81769 0.20395 0.89083 0.0
C1829 C 0.81411 0.2129 0.87718 0.0
C1830 C 0.81218 0.20427 0.86306 0.0
C1831 C 0.81402 0.18702 0.86255 0.0
C1832 C 0.81342 0.23133 0.87747 0.0
C1833 C 0.82356 0.24016 0.86703 0.0
C1834 C 0.80376 0.24018 0.88853 0.0
C1835 C 0.79184 0.23169 0.89908 0.0
C1836 C 0.77966 0.22095 0.893 0.0
C1837 C 0.76851 0.21293 0.90299 0.0
C1838 C 0.76934 0.21562 0.91908 0.0
C1839 C 0.7813 0.22638 0.92521 0.0
C1840 C 0.79249 0.23443 0.91528 0.0
C1841 C 0.81247 0.31159 0.86783 0.0
C1842 C 0.82028 0.31925 0.88061 0.0
C1843 C 0.81048 0.29437 0.86746 0.0
C1844 C 0.81609 0.28459 0.87993 0.0
C1845 C 0.82333 0.29224 0.89297 0.0
C1846 C 0.82556 0.30945 0.89325 0.0
C1847 C 0.81539 0.26628 0.87894 0.0
C1848 C 0.80506 0.25757 0.88925 0.0
C1849 C 0.8247 0.25751 0.86765 0.0
C1850 C 0.8361 0.2661 0.8567 0.0
C1851 C 0.8492 0.27597 0.86236 0.0
C1852 C 0.85977 0.28418 0.85196 0.0
C1853 C 0.85746 0.2825 0.83588 0.0
C1854 C 0.84459 0.27255 0.83016 0.0
C1855 C 0.83396 0.26434 0.84051 0.0
H1856 H 0.86566 0.28886 0.82785 0.0
H1857 H 0.7607 0.20939 0.92679 0.0
H1858 H 0.65624 0.68444 0.35533 0.0
H1859 H 0.65765 0.71462 0.35587 0.0
H1860 H 0.6952 0.71235 0.39175 0.0
H1861 H 0.6931 0.68205 0.39201 0.0
H1862 H 0.67394 0.73552 0.39866 0.0
H1863 H 0.70478 0.72191 0.35305 0.0
H1864 H 0.71057 0.70841 0.32781 0.0
H1865 H 0.66906 0.7337 0.30715 0.0
H1866 H 0.66286 0.74719 0.33234 0.0
H1867 H 0.69509 0.82154 0.38868 0.0
H1868 H 0.69699 0.79112 0.38863 0.0
H1869 H 0.65287 0.78838 0.36017 0.0
H1870 H 0.65087 0.81877 0.36022 0.0
H1871 H 0.67988 0.76806 0.34978 0.0
H1872 H 0.64899 0.7805 0.39686 0.0
H1873 H 0.64466 0.79422 0.42227 0.0
H1874 H 0.68887 0.77121 0.44017 0.0
H1875 H 0.6936 0.75754 0.41477 0.0
C1876 C 0.66467 0.69031 0.36349 0.0
C1877 C 0.67453 0.68075 0.37366 0.0
C1878 C 0.66564 0.70761 0.36361 0.0
C1879 C 0.67674 0.71578 0.37365 0.0
C1880 C 0.68661 0.70632 0.38383 0.0
C1881 C 0.68551 0.68898 0.38385 0.0
C1882 C 0.67767 0.7342 0.37376 0.0
C1883 C 0.67555 0.7426 0.38799 0.0
C1884 C 0.67957 0.74351 0.35983 0.0
C1885 C 0.68328 0.73546 0.34463 0.0
C1886 C 0.69681 0.72451 0.34316 0.0
C1887 C 0.70018 0.71687 0.32885 0.0
C1888 C 0.69017 0.72017 0.31589 0.0
C1889 C 0.67679 0.73115 0.31721 0.0
C1890 C 0.67336 0.73881 0.33149 0.0
C1891 C 0.68586 0.81443 0.38236 0.0
C1892 C 0.67281 0.82246 0.37448 0.0
C1893 C 0.68692 0.7971 0.3824 0.0
C1894 C 0.67503 0.78757 0.37444 0.0
C1895 C 0.66214 0.79556 0.36638 0.0
C1896 C 0.66096 0.81287 0.3665 0.0
C1897 C 0.67594 0.76922 0.37459 0.0
C1898 C 0.67843 0.76089 0.36042 0.0
C1899 C 0.67463 0.76 0.38858 0.0
C1900 C 0.67175 0.76815 0.40386 0.0
C1901 C 0.65787 0.77849 0.40617 0.0
C1902 C 0.65533 0.78623 0.42058 0.0
C1903 C 0.66651 0.78363 0.43281 0.0
C1904 C 0.68024 0.77324 0.43067 0.0
C1905 C 0.68285 0.76548 0.41628 0.0
H1906 H 0.66452 0.78962 0.44396 0.0
H1907 H 0.6928 0.71424 0.30483 0.0
H1908 H 0.85043 0.68009 0.10732 0.0
H1909 H 0.84885 0.71039 0.10703 0.0
H1910 H 0.79898 0.70816 0.12538 0.0
H1911 H 0.80036 0.67771 0.12543 0.0
H1912 H 0.80234 0.73123 0.10144 0.0
H1913 H 0.82939 0.7173 0.14938 0.0
H1914 H 0.85011 0.70348 0.16614 0.0
H1915 H 0.88949 0.72863 0.14195 0.0
H1916 H 0.86901 0.74242 0.12488 0.0
H1917 H 0.79974 0.81632 0.12601 0.0
H1918 H 0.79866 0.78598 0.12475 0.0
H1919 H 0.84879 0.78493 0.10694 0.0
H1920 H 0.84987 0.81525 0.10784 0.0
H1921 H 0.84425 0.76344 0.13129 0.0
H1922 H 0.81703 0.7771 0.08308 0.0
H1923 H 0.79619 0.79086 0.06641 0.0
H1924 H 0.75694 0.76636 0.09137 0.0
H1925 H 0.77755 0.75262 0.10835 0.0
C1926 C 0.83904 0.68603 0.11111 0.0
C1927 C 0.82551 0.67653 0.11642 0.0
C1928 C 0.83821 0.70334 0.11105 0.0
C1929 C 0.82386 0.71148 0.11633 0.0
C1930 C 0.81017 0.70207 0.1213 0.0
C1931 C 0.81103 0.68472 0.12143 0.0
C1932 C 0.82337 0.72985 0.11694 0.0
C1933 C 0.81134 0.7383 0.10814 0.0
C1934 C 0.8353 0.73901 0.12548 0.0
C1935 C 0.84767 0.73077 0.13575 0.0
C1936 C 0.84248 0.71978 0.14755 0.0
C1937 C 0.85418 0.71197 0.15712 0.0
C1938 C 0.87111 0.71514 0.15509 0.0
C1939 C 0.87637 0.72617 0.1435 0.0
C1940 C 0.86472 0.734 0.13388 0.0
C1941 C 0.81044 0.80966 0.12158 0.0
C1942 C 0.82491 0.81821 0.11707 0.0
C1943 C 0.80981 0.79232 0.12092 0.0
C1944 C 0.82363 0.78324 0.11571 0.0
C1945 C 0.83802 0.79173 0.11106 0.0
C1946 C 0.83864 0.80904 0.11165 0.0
C1947 C 0.82334 0.76486 0.11564 0.0
C1948 C 0.83522 0.75639 0.1246 0.0
C1949 C 0.81124 0.75572 0.10729 0.0
C1950 C 0.79883 0.76397 0.0971 0.0
C1951 C 0.80395 0.77476 0.08511 0.0
C1952 C 0.79218 0.78254 0.07559 0.0
C1953 C 0.77525 0.77953 0.07786 0.0
C1954 C 0.77006 0.7687 0.08964 0.0
C1955 C 0.78178 0.76091 0.09921 0.0
H1956 H 0.76616 0.78555 0.07047 0.0
H1957 H 0.88015 0.70909 0.16251 0.0
H1958 H 0.70016 0.31692 0.62469 0.0
H1959 H 0.70104 0.28661 0.6238 0.0
H1960 H 0.65097 0.28568 0.60579 0.0
H1961 H 0.64959 0.31582 0.60761 0.0
H1962 H 0.65384 0.26325 0.627 0.0
H1963 H 0.68626 0.27883 0.58237 0.0
H1964 H 0.7087 0.29315 0.56812 0.0
H1965 H 0.74522 0.26774 0.59578 0.0
H1966 H 0.72298 0.25342 0.61035 0.0
H1967 H 0.65233 0.18112 0.59709 0.0
H1968 H 0.65384 0.21141 0.59804 0.0
H1969 H 0.69812 0.20842 0.62621 0.0
H1970 H 0.69636 0.17811 0.62595 0.0
H1971 H 0.69914 0.23235 0.60049 0.0
H1972 H 0.66547 0.21639 0.64459 0.0
H1973 H 0.64235 0.20167 0.65745 0.0
H1974 H 0.60725 0.22783 0.62878 0.0
H1975 H 0.63021 0.24252 0.61558 0.0
C1976 C 0.68927 0.31027 0.62069 0.0
C1977 C 0.67482 0.31888 0.61617 0.0
C1978 C 0.68988 0.29293 0.61999 0.0
C1979 C 0.67616 0.28385 0.61451 0.0
C1980 C 0.66174 0.2924 0.61 0.0
C1981 C 0.66105 0.30969 0.61088 0.0
C1982 C 0.67657 0.26543 0.61381 0.0
C1983 C 0.66366 0.25655 0.62102 0.0
C1984 C 0.68955 0.25661 0.6063 0.0
C1985 C 0.70295 0.26519 0.59756 0.0
C1986 C 0.69907 0.27639 0.5855 0.0
C1987 C 0.71176 0.28449 0.57735 0.0
C1988 C 0.72838 0.28139 0.58107 0.0
C1989 C 0.73234 0.27015 0.59293 0.0
C1990 C 0.7197 0.26203 0.60113 0.0
C1991 C 0.66232 0.18685 0.60362 0.0
C1992 C 0.67415 0.17711 0.61155 0.0
C1993 C 0.66323 0.20416 0.60403 0.0
C1994 C 0.67605 0.21207 0.61225 0.0
C1995 C 0.68818 0.20248 0.61975 0.0
C1996 C 0.68718 0.18515 0.61952 0.0
C1997 C 0.67635 0.23037 0.6135 0.0
C1998 C 0.68938 0.23916 0.60645 0.0
C1999 C 0.66339 0.23915 0.62097 0.0
C2000 C 0.64957 0.23043 0.62899 0.0
C2001 C 0.65283 0.2189 0.64094 0.0
C2002 C 0.63975 0.21058 0.6483 0.0
C2003 C 0.62334 0.21378 0.6439 0.0
C2004 C 0.61997 0.22535 0.63216 0.0
C2005 C 0.63301 0.23368 0.62474 0.0
H2006 H 0.61323 0.20733 0.64962 0.0
H2007 H 0.73818 0.28767 0.57475 0.0
H2008 H 0.0701 0.43049 0.84651 0.0
H2009 H 0.03991 0.43228 0.84593 0.0
H2010 H 0.03881 0.43445 0.89624 0.0
H2011 H 0.06885 0.43121 0.897 0.0
H2012 H 0.01645 0.41442 0.88733 0.0
H2013 H 0.03141 0.46944 0.87129 0.0
H2014 H 0.04565 0.49071 0.85546 0.0
H2015 H 0.02109 0.47282 0.81427 0.0
H2016 H 0.00686 0.4513 0.82982 0.0
H2017 H 0.93185 0.43745 0.89368 0.0
H2018 H 0.96215 0.44037 0.89375 0.0
H2019 H 0.96374 0.42657 0.84514 0.0
H2020 H 0.93341 0.4237 0.84495 0.0
H2021 H 0.9854 0.4535 0.85334 0.0
H2022 H 0.97137 0.39788 0.8701 0.0
H2023 H 0.9568 0.37738 0.88654 0.0
H2024 H 0.97972 0.39791 0.92748 0.0
H2025 H 0.99423 0.41871 0.91129 0.0
C2026 C 0.06347 0.43116 0.85749 0.0
C2027 C 0.07204 0.43065 0.87181 0.0
C2028 C 0.04616 0.43249 0.85712 0.0
C2029 C 0.03704 0.43378 0.87103 0.0
C2030 C 0.04555 0.43354 0.88533 0.0
C2031 C 0.06282 0.43189 0.88573 0.0
C2032 C 0.01858 0.43451 0.87078 0.0
C2033 C 0.00972 0.4232 0.88009 0.0
C2034 C 0.00969 0.44568 0.86108 0.0
C2035 C 0.01818 0.45866 0.8517 0.0
C2036 C 0.02913 0.46997 0.85884 0.0
C2037 C 0.03719 0.48208 0.84992 0.0
C2038 C 0.0343 0.48309 0.83387 0.0
C2039 C 0.02332 0.47201 0.8267 0.0
C2040 C 0.01524 0.45987 0.83557 0.0
C2041 C 0.93864 0.43532 0.88294 0.0
C2042 C 0.93032 0.43026 0.86933 0.0
C2043 C 0.95592 0.43692 0.88302 0.0
C2044 C 0.96514 0.43356 0.86948 0.0
C2045 C 0.95682 0.4292 0.8557 0.0
C2046 C 0.93955 0.42745 0.85564 0.0
C2047 C 0.98351 0.43356 0.86996 0.0
C2048 C 0.99226 0.44489 0.86065 0.0
C2049 C 0.99234 0.42255 0.87978 0.0
C2050 C 0.98375 0.40995 0.8895 0.0
C2051 C 0.9732 0.3981 0.88262 0.0
C2052 C 0.96497 0.38642 0.89189 0.0
C2053 C 0.9673 0.38637 0.90805 0.0
C2054 C 0.9779 0.39798 0.91497 0.0
C2055 C 0.98614 0.40971 0.90575 0.0
H2056 H 0.96092 0.37731 0.91521 0.0
H2057 H 0.04055 0.49247 0.82698 0.0
H2058 H 0.57173 0.5568 0.34642 0.0
H2059 H 0.54149 0.55383 0.34519 0.0
H2060 H 0.53695 0.57844 0.38973 0.0
H2061 H 0.56715 0.58135 0.39107 0.0
H2062 H 0.5162 0.55258 0.38802 0.0
H2063 H 0.53046 0.59925 0.35536 0.0
H2064 H 0.54513 0.61344 0.33389 0.0
H2065 H 0.52338 0.57978 0.30081 0.0
H2066 H 0.50875 0.56524 0.32213 0.0
H2067 H 0.43396 0.58302 0.38652 0.0
H2068 H 0.46415 0.57988 0.38672 0.0
H2069 H 0.46183 0.55295 0.34325 0.0
H2070 H 0.43154 0.5563 0.34283 0.0
H2071 H 0.48591 0.57716 0.34315 0.0
H2072 H 0.46946 0.53218 0.37606 0.0
H2073 H 0.45455 0.51872 0.39778 0.0
H2074 H 0.48012 0.54982 0.43065 0.0
H2075 H 0.49502 0.56365 0.40911 0.0
C2076 C 0.56427 0.56158 0.35594 0.0
C2077 C 0.57179 0.5694 0.3688 0.0
C2078 C 0.54701 0.55986 0.35523 0.0
C2079 C 0.53696 0.56612 0.36727 0.0
C2080 C 0.54448 0.5735 0.38032 0.0
C2081 C 0.56173 0.57513 0.38108 0.0
C2082 C 0.51858 0.56548 0.3661 0.0
C2083 C 0.50956 0.55806 0.37827 0.0
C2084 C 0.50995 0.57227 0.35319 0.0
C2085 C 0.51867 0.58105 0.34036 0.0
C2086 C 0.52891 0.5948 0.34352 0.0
C2087 C 0.5372 0.60292 0.33138 0.0
C2088 C 0.53523 0.59749 0.316 0.0
C2089 C 0.52492 0.58395 0.31273 0.0
C2090 C 0.51662 0.57578 0.32484 0.0
C2091 C 0.43987 0.57648 0.37696 0.0
C2092 C 0.43039 0.56994 0.36463 0.0
C2093 C 0.4571 0.57457 0.37717 0.0
C2094 C 0.46519 0.56604 0.36508 0.0
C2095 C 0.45579 0.5595 0.35272 0.0
C2096 C 0.43851 0.56134 0.35255 0.0
C2097 C 0.48353 0.56448 0.36517 0.0
C2098 C 0.49254 0.57149 0.35281 0.0
C2099 C 0.49214 0.5574 0.37794 0.0
C2100 C 0.48327 0.54905 0.39095 0.0
C2101 C 0.47181 0.53624 0.38791 0.0
C2102 C 0.46338 0.52853 0.4002 0.0
C2103 C 0.46636 0.53343 0.41559 0.0
C2104 C 0.47782 0.54604 0.41873 0.0
C2105 C 0.48628 0.55381 0.40648 0.0
H2106 H 0.45981 0.52744 0.42508 0.0
H2107 H 0.54165 0.60379 0.30661 0.0
H2108 H 0.56912 0.45101 0.63486 0.0
H2109 H 0.53885 0.45352 0.63595 0.0
H2110 H 0.53396 0.40289 0.62004 0.0
H2111 H 0.5641 0.40054 0.61823 0.0
H2112 H 0.51263 0.42192 0.60536 0.0
H2113 H 0.52884 0.41378 0.65877 0.0
H2114 H 0.54411 0.41974 0.68308 0.0
H2115 H 0.52185 0.46818 0.68524 0.0
H2116 H 0.5066 0.46259 0.66081 0.0
H2117 H 0.43138 0.40142 0.62988 0.0
H2118 H 0.46175 0.40313 0.6293 0.0
H2119 H 0.459 0.4564 0.63413 0.0
H2120 H 0.42849 0.45478 0.63454 0.0
H2121 H 0.48377 0.43863 0.6541 0.0
H2122 H 0.46629 0.44513 0.60073 0.0
H2123 H 0.4505 0.43754 0.57713 0.0
H2124 H 0.47506 0.39019 0.57575 0.0
H2125 H 0.49081 0.3974 0.59952 0.0
C2126 C 0.5616 0.44048 0.63142 0.0
C2127 C 0.56905 0.42554 0.62653 0.0
C2128 C 0.5443 0.44187 0.63222 0.0
C2129 C 0.53415 0.42832 0.62827 0.0
C2130 C 0.54155 0.41349 0.6232 0.0
C2131 C 0.5588 0.41211 0.62232 0.0
C2132 C 0.51579 0.4295 0.62931 0.0
C2133 C 0.50636 0.42545 0.61607 0.0
C2134 C 0.50757 0.43444 0.64319 0.0
C2135 C 0.51674 0.43784 0.65786 0.0
C2136 C 0.52731 0.42576 0.66435 0.0
C2137 C 0.53594 0.42906 0.67817 0.0
C2138 C 0.53399 0.44435 0.68567 0.0
C2139 C 0.52337 0.45636 0.6794 0.0
C2140 C 0.51473 0.45313 0.66557 0.0
C2141 C 0.43726 0.41347 0.63101 0.0
C2142 C 0.42765 0.42797 0.63225 0.0
C2143 C 0.45456 0.41443 0.63061 0.0
C2144 C 0.46252 0.42989 0.63161 0.0
C2145 C 0.45301 0.44437 0.63335 0.0
C2146 C 0.43565 0.44344 0.6335 0.0
C2147 C 0.48079 0.43084 0.63024 0.0
C2148 C 0.49014 0.43527 0.64339 0.0
C2149 C 0.48896 0.42607 0.61635 0.0
C2150 C 0.47961 0.42174 0.60199 0.0
C2151 C 0.46821 0.43304 0.59548 0.0
C2152 C 0.45929 0.42882 0.58205 0.0
C2153 C 0.46174 0.41338 0.57497 0.0
C2154 C 0.47316 0.40214 0.58127 0.0
C2155 C 0.4821 0.40629 0.59471 0.0
H2156 H 0.45483 0.41013 0.56457 0.0
H2157 H 0.54068 0.44688 0.69638 0.0
H2158 H 0.06927 0.58546 0.14071 0.0
H2159 H 0.03916 0.58254 0.14226 0.0
H2160 H 0.03998 0.54897 0.10301 0.0
H2161 H 0.07012 0.5524 0.10095 0.0
H2162 H 0.01575 0.57102 0.09985 0.0
H2163 H 0.03388 0.53465 0.14037 0.0
H2164 H 0.04949 0.52625 0.16385 0.0
H2165 H 0.02422 0.56351 0.19075 0.0
H2166 H 0.00862 0.5723 0.16738 0.0
H2167 H 0.93093 0.54859 0.10997 0.0
H2168 H 0.96126 0.54585 0.10927 0.0
H2169 H 0.96567 0.5837 0.14466 0.0
H2170 H 0.93538 0.5864 0.14552 0.0
H2171 H 0.98713 0.55674 0.14938 0.0
H2172 H 0.97087 0.59433 0.10818 0.0
H2173 H 0.95514 0.60251 0.08471 0.0
H2174 H 0.97703 0.56221 0.05909 0.0
H2175 H 0.9927 0.55364 0.0825 0.0
C2176 C 0.06305 0.57757 0.13231 0.0
C2177 C 0.07211 0.5692 0.12067 0.0
C2178 C 0.04585 0.57573 0.13334 0.0
C2179 C 0.03734 0.56534 0.1229 0.0
C2180 C 0.04631 0.55698 0.11125 0.0
C2181 C 0.06355 0.55886 0.11016 0.0
C2182 C 0.01901 0.5637 0.12386 0.0
C2183 C 0.00952 0.56758 0.11061 0.0
C2184 C 0.01085 0.5595 0.13797 0.0
C2185 C 0.02018 0.55422 0.15208 0.0
C2186 C 0.03174 0.54114 0.15126 0.0
C2187 C 0.04057 0.53629 0.16456 0.0
C2188 C 0.03787 0.54437 0.17877 0.0
C2189 C 0.02631 0.55728 0.17972 0.0
C2190 C 0.01745 0.56218 0.16646 0.0
C2191 C 0.93837 0.55613 0.11777 0.0
C2192 C 0.93084 0.56778 0.12774 0.0
C2193 C 0.95566 0.55462 0.11729 0.0
C2194 C 0.96567 0.56468 0.12682 0.0
C2195 C 0.95815 0.57585 0.13721 0.0
C2196 C 0.94088 0.57746 0.13761 0.0
C2197 C 0.98399 0.5642 0.12544 0.0
C2198 C 0.99343 0.55997 0.13861 0.0
C2199 C 0.99212 0.56801 0.11125 0.0
C2200 C 0.9828 0.57323 0.09714 0.0
C2201 C 0.97222 0.58713 0.09758 0.0
C2202 C 0.96333 0.59185 0.08428 0.0
C2203 C 0.96505 0.58285 0.07043 0.0
C2204 C 0.97569 0.56915 0.06983 0.0
C2205 C 0.98458 0.56435 0.08311 0.0
H2206 H 0.95816 0.58653 0.06014 0.0
H2207 H 0.04472 0.5406 0.18905 0.0
H2208 H 0.19109 0.55665 0.03688 0.0
H2209 H 0.19733 0.53962 0.01415 0.0
H2210 H 0.23169 0.51052 0.04146 0.0
H2211 H 0.22564 0.52771 0.06436 0.0
H2212 H 0.22392 0.52939 0.9966 0.0
H2213 H 0.22297 0.46971 0.03293 0.0
H2214 H 0.21357 0.45986 0.05877 0.0
H2215 H 0.17464 0.49637 0.05883 0.0
H2216 H 0.18365 0.50623 0.03292 0.0
H2217 H 0.2245 0.46248 0.94116 0.0
H2218 H 0.23251 0.47919 0.9639 0.0
H2219 H 0.18249 0.47547 0.98175 0.0
H2220 H 0.17452 0.45876 0.95927 0.0
H2221 H 0.20401 0.47166 0.00464 0.0
H2222 H 0.19639 0.50986 0.96119 0.0
H2223 H 0.20252 0.52089 0.93495 0.0
H2224 H 0.25332 0.52913 0.94821 0.0
H2225 H 0.24752 0.51795 0.97448 0.0
C2226 C 0.20039 0.547 0.03798 0.0
C2227 C 0.20771 0.54339 0.05249 0.0
C2228 C 0.20395 0.53727 0.02494 0.0
C2229 C 0.21481 0.52371 0.02619 0.0
C2230 C 0.22314 0.52084 0.04033 0.0
C2231 C 0.21958 0.53059 0.0534 0.0
C2232 C 0.21542 0.51139 0.0134 0.0
C2233 C 0.21986 0.51668 -0.00164 0.0
C2234 C 0.20988 0.49489 0.0157 0.0
C2235 C 0.20413 0.48883 0.03112 0.0
C2236 C 0.21238 0.47558 0.03846 0.0
C2237 C 0.20711 0.47 0.0531 0.0
C2238 C 0.19356 0.47753 0.06046 0.0
C2239 C 0.18517 0.49059 0.05315 0.0
C2240 C 0.19035 0.49617 0.03849 0.0
C2241 C 0.21527 0.46522 0.94999 0.0
C2242 C 0.19889 0.45933 0.94847 0.0
C2243 C 0.21985 0.47473 0.96296 0.0
C2244 C 0.20807 0.47865 0.97447 0.0
C2245 C 0.19182 0.47249 0.97308 0.0
C2246 C 0.18728 0.46292 0.96023 0.0
C2247 C 0.21218 0.48972 0.98772 0.0
C2248 C 0.20863 0.48419 0.00289 0.0
C2249 C 0.21812 0.5061 0.98545 0.0
C2250 C 0.22157 0.5129 0.96971 0.0
C2251 C 0.20889 0.51392 0.95846 0.0
C2252 C 0.2123 0.52021 0.9436 0.0
C2253 C 0.22831 0.52566 0.9399 0.0
C2254 C 0.24093 0.52487 0.95108 0.0
C2255 C 0.23759 0.51857 0.96595 0.0
H2256 H 0.23093 0.53053 0.92838 0.0
H2257 H 0.18953 0.47321 0.07181 0.0
H2258 H 0.68934 0.93608 0.29139 0.0
H2259 H 0.70588 0.93907 0.2678 0.0
H2260 H 0.74019 0.97095 0.29223 0.0
H2261 H 0.7233 0.96852 0.31596 0.0
H2262 H 0.73487 0.97972 0.25972 0.0
H2263 H 0.75019 0.9333 0.29149 0.0
H2264 H 0.74484 0.90841 0.3075 0.0
H2265 H 0.72375 0.88365 0.26778 0.0
H2266 H 0.72869 0.90852 0.25159 0.0
H2267 H 0.80279 0.95573 0.20784 0.0
H2268 H 0.78582 0.96273 0.23067 0.0
H2269 H 0.74597 0.93238 0.21281 0.0
H2270 H 0.7625 0.92579 0.18979 0.0
H2271 H 0.75654 0.92456 0.24357 0.0
H2272 H 0.74097 0.97184 0.21203 0.0
H2273 H 0.74635 0.99704 0.19647 0.0
H2274 H 0.76914 0.02029 0.23617 0.0
H2275 H 0.76411 0.99511 0.25191 0.0
C2276 C 0.70005 0.94422 0.29168 0.0
C2277 C 0.70509 0.95194 0.30562 0.0
C2278 C 0.70955 0.94582 0.27819 0.0
C2279 C 0.72434 0.95501 0.2784 0.0
C2280 C 0.72882 0.96376 0.29191 0.0
C2281 C 0.71926 0.9622 0.30546 0.0
C2282 C 0.73598 0.95361 0.26516 0.0
C2283 C 0.73984 0.96774 0.25628 0.0
C2284 C 0.7424 0.93794 0.26075 0.0
C2285 C 0.73968 0.92283 0.27036 0.0
C2286 C 0.7443 0.92259 0.28619 0.0
C2287 C 0.74135 0.90849 0.2953 0.0
C2288 C 0.73393 0.89447 0.28867 0.0
C2289 C 0.72948 0.89452 0.2729 0.0
C2290 C 0.73236 0.90862 0.26375 0.0
C2291 C 0.7903 0.95081 0.20862 0.0
C2292 C 0.78408 0.94001 0.19709 0.0
C2293 C 0.78065 0.9548 0.22168 0.0
C2294 C 0.76471 0.94801 0.22338 0.0
C2295 C 0.75831 0.93765 0.2117 0.0
C2296 C 0.76783 0.93379 0.19863 0.0
C2297 C 0.75507 0.95057 0.23782 0.0
C2298 C 0.75169 0.9366 0.24703 0.0
C2299 C 0.7493 0.96639 0.24255 0.0
C2300 C 0.75236 0.98151 0.23309 0.0
C2301 C 0.7473 0.98225 0.21739 0.0
C2302 C 0.75024 0.99655 0.20855 0.0
C2303 C 0.75813 0.01023 0.21531 0.0
C2304 C 0.76306 0.00966 0.23094 0.0
C2305 C 0.76016 0.99539 0.23983 0.0
H2306 H 0.76039 0.0213 0.20845 0.0
H2307 H 0.73165 0.88356 0.29574 0.0
H2308 H 0.32565 0.48422 0.55664 0.0
H2309 H 0.31805 0.50188 0.53466 0.0
H2310 H 0.27536 0.47094 0.52549 0.0
H2311 H 0.28312 0.45294 0.54746 0.0
H2312 H 0.29357 0.47648 0.49944 0.0
H2313 H 0.26902 0.50971 0.53842 0.0
H2314 H 0.26655 0.52438 0.56356 0.0
H2315 H 0.30744 0.556 0.55114 0.0
H2316 H 0.31035 0.54136 0.52602 0.0
H2317 H 0.28383 0.53339 0.43589 0.0
H2318 H 0.27588 0.51895 0.45998 0.0
H2319 H 0.32036 0.53699 0.48243 0.0
H2320 H 0.32826 0.55152 0.45851 0.0
H2321 H 0.29237 0.53808 0.5018 0.0
H2322 H 0.32036 0.49961 0.46623 0.0
H2323 H 0.3232 0.48458 0.44129 0.0
H2324 H 0.27501 0.46272 0.4478 0.0
H2325 H 0.27181 0.47782 0.4727 0.0
C2326 C 0.31462 0.48119 0.54996 0.0
C2327 C 0.30505 0.46715 0.55365 0.0
C2328 C 0.31017 0.49141 0.53754 0.0
C2329 C 0.29602 0.48784 0.52858 0.0
C2330 C 0.28625 0.47396 0.53236 0.0
C2331 C 0.29066 0.46375 0.54489 0.0
C2332 C 0.2925 0.49789 0.51452 0.0
C2333 C 0.29279 0.48993 0.49996 0.0
C2334 C 0.29162 0.51544 0.51523 0.0
C2335 C 0.28993 0.52437 0.53033 0.0
C2336 C 0.27757 0.51972 0.54108 0.0
C2337 C 0.27608 0.52804 0.55533 0.0
C2338 C 0.28684 0.5411 0.55895 0.0
C2339 C 0.2991 0.54588 0.54832 0.0
C2340 C 0.30066 0.53759 0.53405 0.0
C2341 C 0.29175 0.53447 0.44606 0.0
C2342 C 0.30673 0.54342 0.44534 0.0
C2343 C 0.28722 0.52621 0.45976 0.0
C2344 C 0.29759 0.52687 0.47291 0.0
C2345 C 0.31218 0.53637 0.4724 0.0
C2346 C 0.31676 0.54452 0.45871 0.0
C2347 C 0.29414 0.51666 0.48686 0.0
C2348 C 0.29256 0.52461 0.50135 0.0
C2349 C 0.29378 0.49911 0.48611 0.0
C2350 C 0.29575 0.49 0.4712 0.0
C2351 C 0.31031 0.49171 0.46227 0.0
C2352 C 0.312 0.48316 0.44816 0.0
C2353 C 0.29927 0.47274 0.44293 0.0
C2354 C 0.28484 0.47082 0.45184 0.0
C2355 C 0.28309 0.47937 0.46595 0.0
H2356 H 0.3006 0.46613 0.43201 0.0
H2357 H 0.28567 0.54753 0.56999 0.0
H2358 H 0.7237 0.04028 0.68415 0.0
H2359 H 0.7391 0.03484 0.70825 0.0
H2360 H 0.7021 0.06168 0.73452 0.0
H2361 H 0.68644 0.06686 0.7106 0.0
H2362 H 0.73417 0.07379 0.73807 0.0
H2363 H 0.70543 0.02142 0.73957 0.0
H2364 H 0.69619 0.99436 0.72925 0.0
H2365 H 0.74695 0.9786 0.72485 0.0
H2366 H 0.75652 0.00568 0.73494 0.0
H2367 H 0.76028 0.06511 0.81436 0.0
H2368 H 0.7431 0.06017 0.79135 0.0
H2369 H 0.78398 0.035 0.76895 0.0
H2370 H 0.80138 0.04001 0.79202 0.0
H2371 H 0.75142 0.02069 0.7627 0.0
H2372 H 0.78035 0.07263 0.7603 0.0
H2373 H 0.79019 0.09955 0.77045 0.0
H2374 H 0.73975 0.11613 0.7755 0.0
H2375 H 0.7296 0.08917 0.76563 0.0
C2376 C 0.71861 0.04464 0.69511 0.0
C2377 C 0.70397 0.05419 0.69546 0.0
C2378 C 0.72744 0.04153 0.70885 0.0
C2379 C 0.72173 0.04792 0.7231 0.0
C2380 C 0.70671 0.05673 0.72359 0.0
C2381 C 0.69786 0.05977 0.70991 0.0
C2382 C 0.73225 0.04711 0.7372 0.0
C2383 C 0.73774 0.06218 0.74356 0.0
C2384 C 0.73741 0.03192 0.74395 0.0
C2385 C 0.73169 0.01565 0.73785 0.0
C2386 C 0.71463 0.01225 0.73625 0.0
C2387 C 0.70933 0.9969 0.73048 0.0
C2388 C 0.72098 0.98479 0.72635 0.0
C2389 C 0.73795 0.988 0.72803 0.0
C2390 C 0.74331 0.00335 0.73379 0.0
C2391 C 0.76557 0.05837 0.8046 0.0
C2392 C 0.78224 0.05321 0.80483 0.0
C2393 C 0.75572 0.05546 0.79153 0.0
C2394 C 0.76238 0.04742 0.77844 0.0
C2395 C 0.77865 0.04121 0.77899 0.0
C2396 C 0.78856 0.0441 0.79214 0.0
C2397 C 0.75292 0.04739 0.76368 0.0
C2398 C 0.7478 0.03225 0.75715 0.0
C2399 C 0.74816 0.06252 0.75659 0.0
C2400 C 0.75421 0.07882 0.76237 0.0
C2401 C 0.77135 0.08196 0.7637 0.0
C2402 C 0.77699 0.09723 0.76938 0.0
C2403 C 0.7656 0.10953 0.77365 0.0
C2404 C 0.74856 0.10659 0.77221 0.0
C2405 C 0.74285 0.09132 0.76656 0.0
H2406 H 0.76999 0.12135 0.77805 0.0
H2407 H 0.71685 0.97291 0.72189 0.0
H2408 H 0.79948 0.48501 0.92814 0.0
H2409 H 0.79217 0.50315 0.94984 0.0
H2410 H 0.7925 0.46115 0.98111 0.0
H2411 H 0.79896 0.44271 0.95927 0.0
H2412 H 0.7686 0.48355 0.98932 0.0
H2413 H 0.82705 0.48419 0.97638 0.0
H2414 H 0.85112 0.48762 0.95886 0.0
H2415 H 0.8368 0.53811 0.94982 0.0
H2416 H 0.81249 0.53489 0.96714 0.0
H2417 H 0.79859 0.51704 0.06067 0.0
H2418 H 0.79122 0.50231 0.03676 0.0
H2419 H 0.79134 0.54864 0.01142 0.0
H2420 H 0.79866 0.56349 0.03536 0.0
H2421 H 0.81175 0.52645 -0.00136 0.0
H2422 H 0.75546 0.52651 0.01579 0.0
H2423 H 0.73222 0.52242 0.03414 0.0
H2424 H 0.7431 0.47026 0.03645 0.0
H2425 H 0.76656 0.47406 0.01828 0.0
C2426 C 0.79752 0.47951 0.93952 0.0
C2427 C 0.80004 0.46241 0.94199 0.0
C2428 C 0.79345 0.48994 0.95194 0.0
C2429 C 0.79211 0.48353 0.96711 0.0
C2430 C 0.79357 0.46635 0.96949 0.0
C2431 C 0.79749 0.45587 0.95703 0.0
C2432 C 0.79104 0.49486 0.98068 0.0
C2433 C 0.77803 0.49291 0.99143 0.0
C2434 C 0.8032 0.50726 0.98323 0.0
C2435 C 0.81786 0.50924 0.9729 0.0
C2436 C 0.82897 0.49598 0.97056 0.0
C2437 C 0.84266 0.49789 0.96068 0.0
C2438 C 0.84546 0.51306 0.95319 0.0
C2439 C 0.8346 0.52636 0.95561 0.0
C2440 C 0.82086 0.5245 0.96545 0.0
C2441 C 0.79657 0.52416 0.05011 0.0
C2442 C 0.79938 0.54139 0.04984 0.0
C2443 C 0.79232 0.51572 0.03645 0.0
C2444 C 0.79069 0.5244 0.02232 0.0
C2445 C 0.79257 0.54173 0.02221 0.0
C2446 C 0.79685 0.55016 0.03586 0.0
C2447 C 0.78934 0.51516 0.00744 0.0
C2448 C 0.80205 0.51739 0.99644 0.0
C2449 C 0.77699 0.50296 0.00481 0.0
C2450 C 0.76286 0.5006 0.01574 0.0
C2451 C 0.75299 0.51419 0.0203 0.0
C2452 C 0.73975 0.51192 0.03065 0.0
C2453 C 0.7362 0.4961 0.03648 0.0
C2454 C 0.74587 0.4825 0.03193 0.0
C2455 C 0.75912 0.48471 0.02159 0.0
H2456 H 0.72595 0.49436 0.04449 0.0
H2457 H 0.85607 0.51451 0.94555 0.0
H2458 H 0.23113 0.0427 0.81541 0.0
H2459 H 0.24857 0.0362 0.79301 0.0
H2460 H 0.20841 0.04918 0.76196 0.0
H2461 H 0.19046 0.0546 0.78432 0.0
H2462 H 0.22585 0.02441 0.7499 0.0
H2463 H 0.23837 0.07779 0.7731 0.0
H2464 H 0.24637 0.0966 0.79456 0.0
H2465 H 0.29245 0.07032 0.80005 0.0
H2466 H 0.28461 0.05122 0.77874 0.0
H2467 H 0.26465 0.06147 0.68459 0.0
H2468 H 0.24903 0.05372 0.70795 0.0
H2469 H 0.29426 0.03678 0.72981 0.0
H2470 H 0.31002 0.04469 0.70647 0.0
H2471 H 0.27688 0.05894 0.74771 0.0
H2472 H 0.26546 0.00884 0.72015 0.0
H2473 H 0.25684 0.99161 0.69778 0.0
H2474 H 0.2081 0.01326 0.69929 0.0
H2475 H 0.21648 0.03081 0.72152 0.0
C2476 C 0.22578 0.0437 0.80386 0.0
C2477 C 0.20942 0.04944 0.8017 0.0
C2478 C 0.23586 0.04013 0.79104 0.0
C2479 C 0.22991 0.04259 0.77582 0.0
C2480 C 0.2133 0.04732 0.77361 0.0
C2481 C 0.20312 0.05064 0.78642 0.0
C2482 C 0.24133 0.04183 0.76227 0.0
C2483 C 0.23699 0.03197 0.74938 0.0
C2484 C 0.25606 0.05144 0.76174 0.0
C2485 C 0.26082 0.06297 0.77447 0.0
C2486 C 0.25016 0.07596 0.77896 0.0
C2487 C 0.25466 0.08668 0.79108 0.0
C2488 C 0.26988 0.08462 0.7987 0.0
C2489 C 0.28065 0.07187 0.79417 0.0
C2490 C 0.27618 0.0611 0.78207 0.0
C2491 C 0.27124 0.05598 0.69434 0.0
C2492 C 0.28855 0.05378 0.6938 0.0
C2493 C 0.26229 0.05139 0.70759 0.0
C2494 C 0.27049 0.04454 0.72053 0.0
C2495 C 0.28772 0.04195 0.71989 0.0
C2496 C 0.29668 0.04642 0.70657 0.0
C2497 C 0.26125 0.04177 0.73521 0.0
C2498 C 0.26596 0.05105 0.74832 0.0
C2499 C 0.24678 0.03181 0.73582 0.0
C2500 C 0.24165 0.02123 0.72247 0.0
C2501 C 0.25294 0.01003 0.71565 0.0
C2502 C 0.24809 0.00018 0.703 0.0
C2503 C 0.23194 0.00136 0.6971 0.0
C2504 C 0.2206 0.01236 0.70387 0.0
C2505 C 0.22539 0.02224 0.71651 0.0
H2506 H 0.22821 0.99373 0.68731 0.0
H2507 H 0.27335 0.09293 0.80808 0.0
H2508 H 0.6871 0.51629 0.43125 0.0
H2509 H 0.69056 0.49919 0.45456 0.0
H2510 H 0.714 0.54019 0.47829 0.0
H2511 H 0.71056 0.55751 0.45489 0.0
H2512 H 0.72788 0.50433 0.48339 0.0
H2513 H 0.67828 0.53888 0.48628 0.0
H2514 H 0.65252 0.55057 0.47519 0.0
H2515 H 0.63286 0.50139 0.46912 0.0
H2516 H 0.65865 0.48941 0.47994 0.0
H2517 H 0.71188 0.47458 0.56098 0.0
H2518 H 0.71675 0.49082 0.53718 0.0
H2519 H 0.67814 0.46314 0.51369 0.0
H2520 H 0.6728 0.44755 0.53766 0.0
H2521 H 0.67343 0.49385 0.50877 0.0
H2522 H 0.72141 0.45855 0.50587 0.0
H2523 H 0.74725 0.44542 0.51521 0.0
H2524 H 0.77007 0.49338 0.51985 0.0
H2525 H 0.74428 0.50683 0.51073 0.0
C2526 C 0.69341 0.52155 0.44126 0.0
C2527 C 0.6985 0.53825 0.44131 0.0
C2528 C 0.69535 0.51177 0.45456 0.0
C2529 C 0.7025 0.51849 0.46807 0.0
C2530 C 0.70854 0.53482 0.4679 0.0
C2531 C 0.70643 0.54471 0.45462 0.0
C2532 C 0.70159 0.5091 0.48281 0.0
C2533 C 0.71606 0.50217 0.48915 0.0
C2534 C 0.68608 0.50606 0.48997 0.0
C2535 C 0.67044 0.51326 0.48377 0.0
C2536 C 0.66851 0.53056 0.48246 0.0
C2537 C 0.65391 0.53724 0.47624 0.0
C2538 C 0.64108 0.52672 0.47142 0.0
C2539 C 0.64282 0.50951 0.47285 0.0
C2540 C 0.65742 0.50278 0.47903 0.0
C2541 C 0.70461 0.47192 0.55063 0.0
C2542 C 0.69194 0.45996 0.55105 0.0
C2543 C 0.70744 0.48111 0.53704 0.0
C2544 C 0.69788 0.47814 0.52358 0.0
C2545 C 0.6856 0.46573 0.52393 0.0
C2546 C 0.68257 0.45682 0.53758 0.0
C2547 C 0.69974 0.48864 0.50945 0.0
C2548 C 0.68536 0.49592 0.50319 0.0
C2549 C 0.71533 0.49176 0.50231 0.0
C2550 C 0.73085 0.4837 0.50778 0.0
C2551 C 0.73189 0.46631 0.509 0.0
C2552 C 0.74654 0.45881 0.51423 0.0
C2553 C 0.76028 0.46856 0.51816 0.0
C2554 C 0.75941 0.48584 0.51683 0.0
C2555 C 0.74479 0.49341 0.51162 0.0
H2556 H 0.77161 0.46273 0.52221 0.0
H2557 H 0.62978 0.53191 0.4666 0.0
H2558 H 0.26812 0.91231 0.3097 0.0
H2559 H 0.25093 0.91603 0.28651 0.0
H2560 H 0.27625 0.96198 0.27622 0.0
H2561 H 0.29366 0.95828 0.29951 0.0
H2562 H 0.24127 0.96306 0.2708 0.0
H2563 H 0.28839 0.92971 0.25724 0.0
H2564 H 0.30841 0.90679 0.26058 0.0
H2565 H 0.26888 0.87123 0.25643 0.0
H2566 H 0.24857 0.89396 0.25331 0.0
H2567 H 0.21193 0.95987 0.19096 0.0
H2568 H 0.22813 0.96329 0.21503 0.0
H2569 H 0.21294 0.91439 0.23006 0.0
H2570 H 0.19716 0.91083 0.20595 0.0
H2571 H 0.24534 0.91757 0.23189 0.0
H2572 H 0.19793 0.95097 0.24694 0.0
H2573 H 0.17782 0.97389 0.24405 0.0
H2574 H 0.21766 0.00936 0.24526 0.0
H2575 H 0.23803 0.98662 0.24796 0.0
C2576 C 0.27004 0.92321 0.30251 0.0
C2577 C 0.28241 0.93486 0.30623 0.0
C2578 C 0.26016 0.92537 0.28934 0.0
C2579 C 0.26253 0.93915 0.27958 0.0
C2580 C 0.27429 0.95126 0.28363 0.0
C2581 C 0.2842 0.94912 0.29689 0.0
C2582 C 0.2534 0.94013 0.26466 0.0
C2583 C 0.24229 0.95328 0.26214 0.0
C2584 C 0.25473 0.92727 0.25349 0.0
C2585 C 0.26695 0.91355 0.25515 0.0
C2586 C 0.28395 0.91701 0.25714 0.0
C2587 C 0.29535 0.90405 0.25898 0.0
C2588 C 0.28991 0.88756 0.25874 0.0
C2589 C 0.27307 0.88401 0.25662 0.0
C2590 C 0.26161 0.89692 0.2548 0.0
C2591 C 0.2119 0.95 0.19956 0.0
C2592 C 0.20348 0.93503 0.19663 0.0
C2593 C 0.2211 0.95196 0.21329 0.0
C2594 C 0.22173 0.93909 0.22434 0.0
C2595 C 0.21273 0.92443 0.22164 0.0
C2596 C 0.20374 0.92239 0.20789 0.0
C2597 C 0.23264 0.94018 0.2382 0.0
C2598 C 0.24429 0.92744 0.24046 0.0
C2599 C 0.23176 0.95342 0.24906 0.0
C2600 C 0.21951 0.96708 0.24748 0.0
C2601 C 0.20241 0.96364 0.24646 0.0
C2602 C 0.19096 0.97661 0.24488 0.0
C2603 C 0.19646 0.99307 0.24442 0.0
C2604 C 0.21342 0.9966 0.24559 0.0
C2605 C 0.22491 0.98368 0.24715 0.0
H2606 H 0.18758 0.00309 0.2432 0.0
H2607 H 0.29876 0.87755 0.26018 0.0
H2608 H 0.69583 0.01047 0.56249 0.0
H2609 H 0.70547 0.9945 0.54014 0.0
H2610 H 0.72858 0.03836 0.52102 0.0
H2611 H 0.71921 0.05446 0.5436 0.0
H2612 H 0.70727 0.02415 0.50089 0.0
H2613 H 0.75269 0.00584 0.53149 0.0
H2614 H 0.76708 0.9949 0.55471 0.0
H2615 H 0.73977 0.94925 0.551 0.0
H2616 H 0.72502 0.95999 0.52789 0.0
H2617 H 0.71746 0.9748 0.43429 0.0
H2618 H 0.72736 0.99116 0.45638 0.0
H2619 H 0.70586 0.95563 0.48821 0.0
H2620 H 0.69678 0.93868 0.46623 0.0
H2621 H 0.73371 0.96846 0.50032 0.0
H2622 H 0.68376 0.98965 0.47508 0.0
H2623 H 0.66772 0.00039 0.4527 0.0
H2624 H 0.70242 0.04053 0.44745 0.0
H2625 H 0.71878 0.02989 0.46969 0.0
C2626 C 0.7034 0.01665 0.5538 0.0
C2627 C 0.70664 0.03378 0.55478 0.0
C2628 C 0.70893 0.00747 0.54102 0.0
C2629 C 0.71786 0.01522 0.52898 0.0
C2630 C 0.72175 0.03216 0.53022 0.0
C2631 C 0.71626 0.04135 0.54305 0.0
C2632 C 0.72097 0.0061 0.51428 0.0
C2633 C 0.71352 0.0122 0.50065 0.0
C2634 C 0.72881 0.99036 0.51408 0.0
C2635 C 0.73769 0.98377 0.52797 0.0
C2636 C 0.74966 0.99351 0.53568 0.0
C2637 C 0.7579 0.98733 0.54882 0.0
C2638 C 0.75433 0.97139 0.55434 0.0
C2639 C 0.74253 0.96159 0.54671 0.0
C2640 C 0.73425 0.96771 0.53357 0.0
C2641 C 0.71529 0.97016 0.44598 0.0
C2642 C 0.70604 0.95556 0.44849 0.0
C2643 C 0.72087 0.97961 0.45859 0.0
C2644 C 0.71703 0.9748 0.47392 0.0
C2645 C 0.70888 0.95964 0.47648 0.0
C2646 C 0.70348 0.95008 0.46388 0.0
C2647 C 0.71956 0.98633 0.48717 0.0
C2648 C 0.72799 0.98066 0.50048 0.0
C2649 C 0.71246 0.00243 0.48719 0.0
C2650 C 0.70259 0.00887 0.47389 0.0
C2651 C 0.68802 0.0007 0.46907 0.0
C2652 C 0.67887 0.00678 0.45643 0.0
C2653 C 0.68408 0.0211 0.44862 0.0
C2654 C 0.69843 0.02942 0.45348 0.0
C2655 C 0.70764 0.02337 0.4661 0.0
H2656 H 0.67698 0.02579 0.43884 0.0
H2657 H 0.76072 0.96663 0.56451 0.0
H2658 H 0.26148 0.42953 0.68671 0.0
H2659 H 0.24495 0.43737 0.7093 0.0
H2660 H 0.28347 0.47125 0.72401 0.0
H2661 H 0.30055 0.46272 0.7018 0.0
H2662 H 0.27422 0.45337 0.74746 0.0
H2663 H 0.24509 0.48564 0.71058 0.0
H2664 H 0.2309 0.49239 0.68589 0.0
H2665 H 0.19339 0.45594 0.69577 0.0
H2666 H 0.20748 0.44877 0.72042 0.0
H2667 H 0.2195 0.46858 0.8118 0.0
H2668 H 0.23431 0.47588 0.78765 0.0
H2669 H 0.21145 0.43429 0.76424 0.0
H2670 H 0.1968 0.42691 0.78829 0.0
H2671 H 0.21352 0.46413 0.74578 0.0
H2672 H 0.24759 0.42853 0.7795 0.0
H2673 H 0.26202 0.42225 0.8042 0.0
H2674 H 0.29048 0.46715 0.7999 0.0
H2675 H 0.27602 0.4738 0.77525 0.0
C2676 C 0.26649 0.43861 0.69476 0.0
C2677 C 0.28242 0.44537 0.69252 0.0
C2678 C 0.25688 0.44332 0.70755 0.0
C2679 C 0.26284 0.45512 0.71824 0.0
C2680 C 0.27857 0.46221 0.71585 0.0
C2681 C 0.28828 0.45739 0.7031 0.0
C2682 C 0.25323 0.45871 0.73261 0.0
C2683 C 0.26105 0.45622 0.74707 0.0
C2684 C 0.23601 0.46234 0.73216 0.0
C2685 C 0.22741 0.46662 0.71735 0.0
C2686 C 0.23387 0.47898 0.70745 0.0
C2687 C 0.22584 0.48289 0.69346 0.0
C2688 C 0.21126 0.47459 0.68926 0.0
C2689 C 0.20468 0.46237 0.69905 0.0
C2690 C 0.21267 0.4584 0.71305 0.0
C2691 C 0.21746 0.46122 0.80139 0.0
C2692 C 0.20719 0.44711 0.80185 0.0
C2693 C 0.22589 0.46537 0.78767 0.0
C2694 C 0.22396 0.45558 0.77424 0.0
C2695 C 0.21302 0.44202 0.77449 0.0
C2696 C 0.2048 0.43774 0.78822 0.0
C2697 C 0.23447 0.45823 0.76035 0.0
C2698 C 0.22681 0.46185 0.74606 0.0
C2699 C 0.25185 0.45583 0.76094 0.0
C2700 C 0.26059 0.45177 0.77567 0.0
C2701 C 0.25683 0.43713 0.7839 0.0
C2702 C 0.26502 0.43349 0.79787 0.0
C2703 C 0.27712 0.44432 0.80364 0.0
C2704 C 0.28108 0.45879 0.79543 0.0
C2705 C 0.27289 0.4625 0.78146 0.0
H2706 H 0.28346 0.44148 0.81446 0.0
H2707 H 0.20506 0.47764 0.67842 0.0
H2708 H 0.83231 0.05114 0.96136 0.0
H2709 H 0.8265 0.03525 0.98503 0.0
H2710 H 0.78238 0.01499 0.96361 0.0
H2711 H 0.78797 0.03128 0.93997 0.0
H2712 H 0.77684 0.02115 0.9938 0.0
H2713 H 0.81797 0.99258 0.96434 0.0
H2714 H 0.84389 0.98914 0.94935 0.0
H2715 H 0.87249 0.00231 0.98981 0.0
H2716 H 0.84671 0.00608 0.00499 0.0
H2717 H 0.78655 0.94574 0.04415 0.0
H2718 H 0.78388 0.96386 0.02118 0.0
H2719 H 0.81047 0.00256 0.04538 0.0
H2720 H 0.81296 0.98472 0.06837 0.0
H2721 H 0.82272 0.98526 0.01286 0.0
H2722 H 0.77923 0.01535 0.04133 0.0
H2723 H 0.75243 0.01679 0.05522 0.0
H2724 H 0.72739 0.99736 0.0149 0.0
H2725 H 0.75412 0.99556 0.00085 0.0
C2726 C 0.82133 0.04336 0.96176 0.0
C2727 C 0.81068 0.04225 0.94884 0.0
C2728 C 0.81802 0.0343 0.97525 0.0
C2729 C 0.8042 0.02367 0.97594 0.0
C2730 C 0.79314 0.02307 0.96329 0.0
C2731 C 0.79634 0.03234 0.94982 0.0
C2732 C 0.80187 0.01264 0.98958 0.0
C2733 C 0.78681 0.01317 0.99786 0.0
C2734 C 0.81483 0.00212 0.99482 0.0
C2735 C 0.83039 -0.00025 0.98577 0.0
C2736 C 0.82978 0.99486 0.97001 0.0
C2737 C 0.84445 0.99284 0.96149 0.0
C2738 C 0.85983 0.99554 0.96861 0.0
C2739 C 0.86057 0.00024 0.9843 0.0
C2740 C 0.84593 0.00231 0.99288 0.0
C2741 C 0.79148 0.95825 0.04464 0.0
C2742 C 0.79994 0.96387 0.05798 0.0
C2743 C 0.78988 0.96857 0.0316 0.0
C2744 C 0.79688 0.98451 0.03174 0.0
C2745 C 0.80482 0.99034 0.04521 0.0
C2746 C 0.80619 0.98017 0.05831 0.0
C2747 C 0.79798 0.99423 0.01725 0.0
C2748 C 0.81279 0.99326 0.00873 0.0
C2749 C 0.78471 0.00404 0.01168 0.0
C2750 C 0.76869 0.00509 0.02013 0.0
C2751 C 0.76805 0.01117 0.0355 0.0
C2752 C 0.75286 0.01211 0.04338 0.0
C2753 C 0.73823 0.0071 0.03597 0.0
C2754 C 0.73874 0.00119 0.02064 0.0
C2755 C 0.7539 0.00022 0.01272 0.0
H2756 H 0.72648 0.00785 0.04209 0.0
H2757 H 0.87117 0.99397 0.96199 0.0
H2758 H 0.18225 0.55005 0.21164 0.0
H2759 H 0.19759 0.54388 0.23558 0.0
H2760 H 0.24134 0.53268 0.20847 0.0
H2761 H 0.22613 0.53899 0.18446 0.0
H2762 H 0.23758 0.51242 0.23599 0.0
H2763 H 0.23774 0.57 0.22002 0.0
H2764 H 0.22443 0.59614 0.21172 0.0
H2765 H 0.19715 0.59804 0.25477 0.0
H2766 H 0.21009 0.57172 0.26319 0.0
H2767 H 0.30204 0.53662 0.28903 0.0
H2768 H 0.28327 0.53097 0.26722 0.0
H2769 H 0.24185 0.54867 0.29454 0.0
H2770 H 0.26055 0.55499 0.31608 0.0
H2771 H 0.24333 0.56395 0.26737 0.0
H2772 H 0.24563 0.50752 0.28464 0.0
H2773 H 0.25898 0.4813 0.29264 0.0
H2774 H 0.282 0.4771 0.24761 0.0
H2775 H 0.26898 0.50344 0.2394 0.0
C2776 C 0.19506 0.54602 0.21077 0.0
C2777 C 0.20309 0.5453 0.19622 0.0
C2778 C 0.20375 0.54238 0.22442 0.0
C2779 C 0.22062 0.53805 0.22375 0.0
C2780 C 0.2283 0.53596 0.20919 0.0
C2781 C 0.2196 0.5396 0.1955 0.0
C2782 C 0.23076 0.53818 0.23812 0.0
C2783 C 0.23897 0.52366 0.24286 0.0
C2784 C 0.23233 0.55284 0.24708 0.0
C2785 C 0.22473 0.5688 0.24215 0.0
C2786 C 0.2288 0.57592 0.22766 0.0
C2787 C 0.22133 0.59078 0.22294 0.0
C2788 C 0.20991 0.59872 0.23269 0.0
C2789 C 0.20597 0.59185 0.24721 0.0
C2790 C 0.21337 0.57697 0.25196 0.0
C2791 C 0.28892 0.5392 0.29042 0.0
C2792 C 0.28282 0.54637 0.30426 0.0
C2793 C 0.27818 0.53577 0.27802 0.0
C2794 C 0.26115 0.53932 0.2793 0.0
C2795 C 0.25494 0.54579 0.29333 0.0
C2796 C 0.26566 0.54928 0.30569 0.0
C2797 C 0.25012 0.5381 0.26551 0.0
C2798 C 0.24184 0.55256 0.26073 0.0
C2799 C 0.24858 0.52339 0.25656 0.0
C2800 C 0.25644 0.50755 0.26146 0.0
C2801 C 0.25366 0.50109 0.27649 0.0
C2802 C 0.26114 0.48619 0.28105 0.0
C2803 C 0.27136 0.47756 0.27065 0.0
C2804 C 0.27409 0.48381 0.25566 0.0
C2805 C 0.26665 0.49872 0.25104 0.0
H2806 H 0.27714 0.46602 0.27421 0.0
H2807 H 0.20414 0.61023 0.22902 0.0
H2808 H 0.29432 0.05615 0.53759 0.0
H2809 H 0.28793 0.03768 0.51582 0.0
H2810 H 0.29109 0.99534 0.54658 0.0
H2811 H 0.29851 0.01356 0.56814 0.0
H2812 H 0.30946 0.99042 0.52251 0.0
H2813 H 0.25358 0.00817 0.52958 0.0
H2814 H 0.23052 0.02802 0.53298 0.0
H2815 H 0.2407 0.04904 0.48793 0.0
H2816 H 0.26398 0.02948 0.48434 0.0
H2817 H 0.29336 0.9349 0.46148 0.0
H2818 H 0.28629 0.95053 0.48505 0.0
H2819 H 0.29153 0.9965 0.45966 0.0
H2820 H 0.29879 0.98101 0.43611 0.0
H2821 H 0.26569 0.99725 0.48223 0.0
H2822 H 0.324 0.98222 0.47767 0.0
H2823 H 0.34696 0.96225 0.4742 0.0
H2824 H 0.33147 0.93597 0.51532 0.0
H2825 H 0.30824 0.95565 0.51888 0.0
C2826 C 0.29361 0.04291 0.53974 0.0
C2827 C 0.29709 0.03636 0.55461 0.0
C2828 C 0.28969 0.03238 0.52732 0.0
C2829 C 0.28889 0.01512 0.52959 0.0
C2830 C 0.29158 0.00862 0.54457 0.0
C2831 C 0.2957 0.01911 0.55693 0.0
C2832 C 0.28723 0.00375 0.51607 0.0
C2833 C 0.29962 0.99169 0.51394 0.0
C2834 C 0.27463 0.00562 0.50465 0.0
C2835 C 0.26062 0.01742 0.50675 0.0
C2836 C 0.25099 0.01711 0.52045 0.0
C2837 C 0.23786 0.0283 0.5224 0.0
C2838 C 0.23417 0.0398 0.51069 0.0
C2839 C 0.24358 0.04012 0.49699 0.0
C2840 C 0.25673 0.02897 0.49498 0.0
C2841 C 0.29281 0.94833 0.46087 0.0
C2842 C 0.2969 0.95674 0.44702 0.0
C2843 C 0.28864 0.95722 0.4743 0.0
C2844 C 0.28859 0.97464 0.47408 0.0
C2845 C 0.29145 0.98304 0.46001 0.0
C2846 C 0.29562 0.97417 0.44657 0.0
C2847 C 0.28789 0.98412 0.48883 0.0
C2848 C 0.27523 0.99585 0.49107 0.0
C2849 C 0.30019 0.98196 0.50044 0.0
C2850 C 0.31429 0.97028 0.49844 0.0
C2851 C 0.32543 0.97211 0.48591 0.0
C2852 C 0.33849 0.96085 0.48393 0.0
C2853 C 0.34064 0.94782 0.49451 0.0
C2854 C 0.32976 0.94605 0.50712 0.0
C2855 C 0.31665 0.95725 0.50912 0.0
H2856 H 0.35076 0.93911 0.49296 0.0
H2857 H 0.224 0.04845 0.51223 0.0
H2858 H 0.80762 0.55034 0.20824 0.0
H2859 H 0.78948 0.54502 0.2304 0.0
H2860 H 0.74739 0.54117 0.19938 0.0
H2861 H 0.76525 0.54772 0.17726 0.0
H2862 H 0.73986 0.5606 0.22167 0.0
H2863 H 0.76371 0.50674 0.2202 0.0
H2864 H 0.78585 0.48562 0.21881 0.0
H2865 H 0.80606 0.50313 0.26217 0.0
H2866 H 0.78418 0.52452 0.26373 0.0
H2867 H 0.6886 0.54567 0.28752 0.0
H2868 H 0.70362 0.53841 0.26357 0.0
H2869 H 0.7499 0.55224 0.28541 0.0
H2870 H 0.735 0.55937 0.30939 0.0
H2871 H 0.75225 0.52342 0.26637 0.0
H2872 H 0.73062 0.58 0.26453 0.0
H2873 H 0.70807 0.60072 0.26581 0.0
H2874 H 0.68305 0.57654 0.22781 0.0
H2875 H 0.70536 0.55552 0.22648 0.0
C2876 C 0.79451 0.54839 0.2061 0.0
C2877 C 0.78791 0.54966 0.19094 0.0
C2878 C 0.78417 0.54503 0.21879 0.0
C2879 C 0.76707 0.54249 0.21657 0.0
C2880 C 0.76056 0.54304 0.20139 0.0
C2881 C 0.77084 0.54664 0.18871 0.0
C2882 C 0.7558 0.54105 0.23023 0.0
C2883 C 0.74236 0.55213 0.23123 0.0
C2884 C 0.75915 0.5302 0.24287 0.0
C2885 C 0.77233 0.51731 0.24203 0.0
C2886 C 0.77294 0.50617 0.22939 0.0
C2887 C 0.78543 0.49413 0.22858 0.0
C2888 C 0.79737 0.49305 0.24038 0.0
C2889 C 0.7968 0.50398 0.25304 0.0
C2890 C 0.78434 0.51605 0.2539 0.0
C2891 C 0.70201 0.54684 0.28729 0.0
C2892 C 0.71065 0.55325 0.30021 0.0
C2893 C 0.71054 0.54272 0.27363 0.0
C2894 C 0.72782 0.5449 0.27274 0.0
C2895 C 0.73656 0.55045 0.2859 0.0
C2896 C 0.72803 0.55468 0.29951 0.0
C2897 C 0.73666 0.54309 0.25773 0.0
C2898 C 0.74962 0.53151 0.25655 0.0
C2899 C 0.73282 0.55335 0.24484 0.0
C2900 C 0.71953 0.56609 0.24553 0.0
C2901 C 0.72024 0.57904 0.25653 0.0
C2902 C 0.70752 0.59084 0.25726 0.0
C2903 C 0.69411 0.58992 0.24693 0.0
C2904 C 0.69343 0.57722 0.23582 0.0
C2905 C 0.7061 0.56536 0.23508 0.0
H2906 H 0.68427 0.59907 0.24751 0.0
H2907 H 0.80703 0.48372 0.23973 0.0
H2908 H 0.19363 0.98759 0.06709 0.0
H2909 H 0.20052 0.00597 0.04532 0.0
H2910 H 0.20763 0.96341 0.01546 0.0
H2911 H 0.20077 0.94491 0.03726 0.0
H2912 H 0.22994 0.98996 0.00901 0.0
H2913 H 0.17117 0.98018 0.0159 0.0
H2914 H 0.1452 0.97915 0.03113 0.0
H2915 H 0.1492 0.03136 0.04075 0.0
H2916 H 0.17538 0.03263 0.02578 0.0
H2917 H 0.20572 0.02244 0.93482 0.0
H2918 H 0.21168 0.00731 0.95892 0.0
H2919 H 0.19885 0.05079 0.98585 0.0
H2920 H 0.1927 0.06589 0.96177 0.0
H2921 H 0.18143 0.02494 0.99485 0.0
H2922 H 0.2389 0.03533 0.98508 0.0
H2923 H 0.26483 0.03601 0.96978 0.0
H2924 H 0.2634 0.98292 0.96502 0.0
H2925 H 0.23731 0.98193 0.98011 0.0
C2926 C 0.19687 0.98216 0.05593 0.0
C2927 C 0.19638 0.96487 0.05375 0.0
C2928 C 0.20091 0.99264 0.04357 0.0
C2929 C 0.20434 0.98602 0.02877 0.0
C2930 C 0.20504 0.96872 0.02682 0.0
C2931 C 0.20107 0.95819 0.03924 0.0
C2932 C 0.20496 0.99708 0.01503 0.0
C2933 C 0.21935 0.99757 0.0058 0.0
C2934 C 0.19119 0.00715 0.01107 0.0
C2935 C 0.17532 0.00646 0.01987 0.0
C2936 C 0.16657 0.99141 0.02136 0.0
C2937 C 0.15181 0.99078 0.02994 0.0
C2938 C 0.14557 0.00517 0.03694 0.0
C2939 C 0.15406 0.02022 0.03534 0.0
C2940 C 0.16886 0.0209 0.02681 0.0
C2941 C 0.2046 0.02888 0.94587 0.0
C2942 C 0.1986 0.04527 0.94647 0.0
C2943 C 0.20805 0.02025 0.95963 0.0
C2944 C 0.20575 0.02794 0.97418 0.0
C2945 C 0.20067 0.04461 0.97474 0.0
C2946 C 0.1971 0.0532 0.96101 0.0
C2947 C 0.2065 0.01804 0.98873 0.0
C2948 C 0.19221 0.01761 -0.0019 0.0
C2949 C 0.22035 0.00804 0.9927 0.0
C2950 C 0.23605 0.00858 0.98363 0.0
C2951 C 0.24403 0.02381 0.98066 0.0
C2952 C 0.25878 0.02425 0.97205 0.0
C2953 C 0.26574 0.00952 0.96641 0.0
C2954 C 0.25798 0.99432 0.96939 0.0
C2955 C 0.24322 0.99381 0.97799 0.0
H2956 H 0.27716 0.00989 0.95974 0.0
H2957 H 0.13414 0.00466 0.04358 0.0
H2958 H 0.69991 0.4159 0.70902 0.0
H2959 H 0.71427 0.42243 0.73335 0.0
H2960 H 0.72088 0.4731 0.7181 0.0
H2961 H 0.70651 0.46654 0.69354 0.0
H2962 H 0.74997 0.45857 0.72835 0.0
H2963 H 0.69548 0.46643 0.74769 0.0
H2964 H 0.66583 0.4602 0.75192 0.0
H2965 H 0.67888 0.41544 0.77628 0.0
H2966 H 0.70861 0.42125 0.772 0.0
H2967 H 0.79214 0.46539 0.80211 0.0
H2968 H 0.77231 0.47181 0.7812 0.0
H2969 H 0.75365 0.4216 0.78327 0.0
H2970 H 0.773 0.41527 0.80432 0.0
H2971 H 0.72862 0.44403 0.78093 0.0
H2972 H 0.78204 0.43327 0.75592 0.0
H2973 H 0.81177 0.43864 0.75104 0.0
H2974 H 0.80039 0.48859 0.737 0.0
H2975 H 0.77059 0.48355 0.742 0.0
C2976 C 0.70433 0.42846 0.7109 0.0
C2977 C 0.70222 0.4407 0.69941 0.0
C2978 C 0.71238 0.43222 0.72485 0.0
C2979 C 0.71848 0.44829 0.72756 0.0
C2980 C 0.71615 0.46066 0.71623 0.0
C2981 C 0.70792 0.45692 0.70228 0.0
C2982 C 0.72842 0.45154 0.74175 0.0
C2983 C 0.7452 0.45586 0.73992 0.0
C2984 C 0.7222 0.44783 0.75678 0.0
C2985 C 0.70431 0.44426 0.75946 0.0
C2986 C 0.69204 0.4552 0.75386 0.0
C2987 C 0.67521 0.45175 0.75628 0.0
C2988 C 0.67048 0.43743 0.76435 0.0
C2989 C 0.68257 0.42654 0.77004 0.0
C2990 C 0.69942 0.42992 0.76764 0.0
C2991 C 0.78369 0.45579 0.79817 0.0
C2992 C 0.78423 0.43977 0.80472 0.0
C2993 C 0.77244 0.45945 0.78621 0.0
C2994 C 0.76159 0.44714 0.78066 0.0
C2995 C 0.7619 0.43128 0.78741 0.0
C2996 C 0.77311 0.42762 0.7993 0.0
C2997 C 0.75027 0.45032 0.76739 0.0
C2998 C 0.73324 0.44723 0.76942 0.0
C2999 C 0.75626 0.45511 0.75254 0.0
C3000 C 0.77414 0.45811 0.74953 0.0
C3001 C 0.7859 0.44544 0.75192 0.0
C3002 C 0.80275 0.44841 0.74911 0.0
C3003 C 0.80797 0.46397 0.74377 0.0
C3004 C 0.79634 0.47656 0.74118 0.0
C3005 C 0.77947 0.47366 0.744 0.0
H3006 H 0.82102 0.46624 0.74159 0.0
H3007 H 0.65744 0.43478 0.76621 0.0
loop_
_geom_bond_atom_site_label_1
_geom_bond_atom_site_label_2
_geom_bond_distance
_geom_bond_site_symmetry_2
_ccdc_geom_bond_type
Li0 N17 1.990 . S
Li0 O60 1.956 . S
Li0 O61 1.970 . S
Li0 O62 1.961 . S
Li1 N25 1.990 . S
Li1 O60 1.970 . S
Li1 O61 1.956 . S
Li1 O63 1.961 . S
Li2 N47 1.990 . S
Li2 O60 1.961 . S
Li2 O62 1.956 . S
Li2 O63 1.970 . S
Li3 N53 1.990 . S
Li3 O61 1.961 . S
Li3 O62 1.970 . S
Li3 O63 1.956 . S
C4 C6 1.348 . S
C4 C7 1.356 . S
C4 O60 1.325 . S
N5 C8 1.314 . S
N5 C9 1.279 . S
C6 C4 1.348 . S
C6 C8 1.353 . S
C6 H64 0.929 . S
C7 C4 1.356 . S
C7 C9 1.358 . S
C7 H65 0.930 . S
C8 N5 1.314 . S
C8 C6 1.353 . S
C8 H66 0.930 . S
C9 N5 1.279 . S
C9 C7 1.358 . S
C9 H67 0.930 . S
C10 C13 1.348 . S
C10 C14 1.356 . S
C10 O61 1.325 . S
C11 N12 1.279 . S
C11 C14 1.358 . S
C11 H68 0.930 . S
N12 C11 1.279 . S
N12 C15 1.314 . S
C13 C10 1.348 . S
C13 C15 1.353 . S
C13 H69 0.929 . S
C14 C10 1.356 . S
C14 C11 1.358 . S
C14 H70 0.930 . S
C15 N12 1.314 . S
C15 C13 1.353 . S
C15 H71 0.930 . S
C16 N17 1.314 . S
C16 C21 1.353 . S
C16 H22 0.930 . S
N17 Li0 1.990 . S
N17 C16 1.314 . S
N17 C19 1.279 . S
C18 C19 1.358 . S
C18 C20 1.356 . S
C18 H72 0.930 . S
C19 N17 1.279 . S
C19 C18 1.358 . S
C19 H23 0.930 . S
C20 C18 1.356 . S
C20 C21 1.348 . S
C21 C16 1.353 . S
C21 C20 1.348 . S
C21 H73 0.929 . S
H22 C16 0.930 . S
H23 C19 0.930 . S
C24 N25 1.314 . S
C24 C26 1.353 . S
C24 H30 0.930 . S
N25 Li1 1.990 . S
N25 C24 1.314 . S
N25 C28 1.279 . S
C26 C24 1.353 . S
C26 C29 1.348 . S
C26 H74 0.929 . S
C27 C28 1.358 . S
C27 C29 1.356 . S
C27 H75 0.930 . S
C28 N25 1.279 . S
C28 C27 1.358 . S
C28 H31 0.930 . S
C29 C26 1.348 . S
C29 C27 1.356 . S
H30 C24 0.930 . S
H31 C28 0.930 . S
C32 C34 1.348 . S
C32 C35 1.356 . S
C32 O62 1.325 . S
N33 C36 1.314 . S
N33 C37 1.279 . S
C34 C32 1.348 . S
C34 C36 1.353 . S
C34 H76 0.929 . S
C35 C32 1.356 . S
C35 C37 1.358 . S
C35 H77 0.930 . S
C36 N33 1.314 . S
C36 C34 1.353 . S
C36 H78 0.930 . S
C37 N33 1.279 . S
C37 C35 1.358 . S
C37 H79 0.930 . S
C38 C39 1.348 . S
C38 C40 1.356 . S
C38 O63 1.325 . S
C39 C38 1.348 . S
C39 C41 1.353 . S
C39 H80 0.929 . S
C40 C38 1.356 . S
C40 C42 1.358 . S
C40 H81 0.930 . S
C41 C39 1.353 . S
C41 N43 1.314 . S
C41 H82 0.930 . S
C42 C40 1.358 . S
C42 N43 1.279 . S
C42 H83 0.930 . S
N43 C41 1.314 . S
N43 C42 1.279 . S
C44 C46 1.353 . S
C44 N47 1.314 . S
C44 H50 0.930 . S
C45 N47 1.279 . S
C45 C48 1.358 . S
C45 H51 0.930 . S
C46 C44 1.353 . S
C46 C49 1.348 . S
C46 H84 0.929 . S
N47 Li2 1.990 . S
N47 C44 1.314 . S
N47 C45 1.279 . S
C48 C45 1.358 . S
C48 C49 1.356 . S
C48 H85 0.930 . S
C49 C46 1.348 . S
C49 C48 1.356 . S
H50 C44 0.930 . S
H51 C45 0.930 . S
C52 N53 1.314 . S
C52 C54 1.353 . S
C52 H58 0.930 . S
N53 Li3 1.990 . S
N53 C52 1.314 . S
N53 C56 1.279 . S
C54 C52 1.353 . S
C54 C57 1.348 . S
C54 H86 0.929 . S
C55 C56 1.358 . S
C55 C57 1.356 . S
C55 H87 0.930 . S
C56 N53 1.279 . S
C56 C55 1.358 . S
C56 H59 0.930 . S
C57 C54 1.348 . S
C57 C55 1.356 . S
H58 C52 0.930 . S
H59 C56 0.930 . S
O60 Li0 1.956 . S
O60 Li1 1.970 . S
O60 Li2 1.961 . S
O60 C4 1.325 . S
O61 Li0 1.970 . S
O61 Li1 1.956 . S
O61 Li3 1.961 . S
O61 C10 1.325 . S
O62 Li0 1.961 . S
O62 Li2 1.956 . S
O62 Li3 1.970 . S
O62 C32 1.325 . S
O63 Li1 1.961 . S
O63 Li2 1.970 . S
O63 Li3 1.956 . S
O63 C38 1.325 . S
H64 C6 0.929 . S
H65 C7 0.930 . S
H66 C8 0.930 . S
H67 C9 0.930 . S
H68 C11 0.930 . S
H69 C13 0.929 . S
H70 C14 0.930 . S
H71 C15 0.930 . S
H72 C18 0.930 . S
H73 C21 0.929 . S
H74 C26 0.929 . S
H75 C27 0.930 . S
H76 C34 0.929 . S
H77 C35 0.930 . S
H78 C36 0.930 . S
H79 C37 0.930 . S
H80 C39 0.929 . S
H81 C40 0.930 . S
H82 C41 0.930 . S
H83 C42 0.930 . S
H84 C46 0.929 . S
H85 C48 0.930 . S
H86 C54 0.929 . S
H87 C55 0.930 . S
Li88 N105 1.990 . S
Li88 O148 1.956 . S
Li88 O149 1.970 . S
Li88 O150 1.961 . S
Li89 N113 1.990 . S
Li89 O148 1.970 . S
Li89 O149 1.956 . S
Li89 O151 1.961 . S
Li90 N135 1.990 . S
Li90 O148 1.961 . S
Li90 O150 1.956 . S
Li90 O151 1.970 . S
Li91 N141 1.990 . S
Li91 O149 1.961 . S
Li91 O150 1.970 . S
Li91 O151 1.956 . S
C92 C94 1.348 . S
C92 C95 1.356 . S
C92 O148 1.325 . S
N93 C96 1.314 . S
N93 C97 1.279 . S
C94 C92 1.348 . S
C94 C96 1.353 . S
C94 H152 0.929 . S
C95 C92 1.356 . S
C95 C97 1.358 . S
C95 H153 0.930 . S
C96 N93 1.314 . S
C96 C94 1.353 . S
C96 H154 0.930 . S
C97 N93 1.279 . S
C97 C95 1.358 . S
C97 H155 0.930 . S
C98 C101 1.348 . S
C98 C102 1.356 . S
C98 O149 1.325 . S
C99 N100 1.279 . S
C99 C102 1.358 . S
C99 H156 0.930 . S
N100 C99 1.279 . S
N100 C103 1.314 . S
C101 C98 1.348 . S
C101 C103 1.353 . S
C101 H157 0.929 . S
C102 C98 1.356 . S
C102 C99 1.358 . S
C102 H158 0.930 . S
C103 N100 1.314 . S
C103 C101 1.353 . S
C103 H159 0.930 . S
C104 N105 1.314 . S
C104 C109 1.353 . S
C104 H110 0.930 . S
N105 Li88 1.990 . S
N105 C104 1.314 . S
N105 C107 1.279 . S
C106 C107 1.358 . S
C106 C108 1.356 . S
C106 H160 0.930 . S
C107 N105 1.279 . S
C107 C106 1.358 . S
C107 H111 0.930 . S
C108 C106 1.356 . S
C108 C109 1.348 . S
C109 C104 1.353 . S
C109 C108 1.348 . S
C109 H161 0.929 . S
H110 C104 0.930 . S
H111 C107 0.930 . S
C112 N113 1.314 . S
C112 C114 1.353 . S
C112 H118 0.930 . S
N113 Li89 1.990 . S
N113 C112 1.314 . S
N113 C116 1.279 . S
C114 C112 1.353 . S
C114 C117 1.348 . S
C114 H162 0.929 . S
C115 C116 1.358 . S
C115 C117 1.356 . S
C115 H163 0.930 . S
C116 N113 1.279 . S
C116 C115 1.358 . S
C116 H119 0.930 . S
C117 C114 1.348 . S
C117 C115 1.356 . S
H118 C112 0.930 . S
H119 C116 0.930 . S
C120 C122 1.348 . S
C120 C123 1.356 . S
C120 O150 1.325 . S
N121 C124 1.314 . S
N121 C125 1.279 . S
C122 C120 1.348 . S
C122 C124 1.353 . S
C122 H164 0.929 . S
C123 C120 1.356 . S
C123 C125 1.358 . S
C123 H165 0.930 . S
C124 N121 1.314 . S
C124 C122 1.353 . S
C124 H166 0.930 . S
C125 N121 1.279 . S
C125 C123 1.358 . S
C125 H167 0.930 . S
C126 C127 1.348 . S
C126 C128 1.356 . S
C126 O151 1.325 . S
C127 C126 1.348 . S
C127 C129 1.353 . S
C127 H168 0.929 . S
C128 C126 1.356 . S
C128 C130 1.358 . S
C128 H169 0.930 . S
C129 C127 1.353 . S
C129 N131 1.314 . S
C129 H170 0.930 . S
C130 C128 1.358 . S
C130 N131 1.279 . S
C130 H171 0.930 . S
N131 C129 1.314 . S
N131 C130 1.279 . S
C132 C134 1.353 . S
C132 N135 1.314 . S
C132 H138 0.930 . S
C133 N135 1.279 . S
C133 C136 1.358 . S
C133 H139 0.930 . S
C134 C132 1.353 . S
C134 C137 1.348 . S
C134 H172 0.929 . S
N135 Li90 1.990 . S
N135 C132 1.314 . S
N135 C133 1.279 . S
C136 C133 1.358 . S
C136 C137 1.356 . S
C136 H173 0.930 . S
C137 C134 1.348 . S
C137 C136 1.356 . S
H138 C132 0.930 . S
H139 C133 0.930 . S
C140 N141 1.314 . S
C140 C142 1.353 . S
C140 H146 0.930 . S
N141 Li91 1.990 . S
N141 C140 1.314 . S
N141 C144 1.279 . S
C142 C140 1.353 . S
C142 C145 1.348 . S
C142 H174 0.929 . S
C143 C144 1.358 . S
C143 C145 1.356 . S
C143 H175 0.930 . S
C144 N141 1.279 . S
C144 C143 1.358 . S
C144 H147 0.930 . S
C145 C142 1.348 . S
C145 C143 1.356 . S
H146 C140 0.930 . S
H147 C144 0.930 . S
O148 Li88 1.956 . S
O148 Li89 1.970 . S
O148 Li90 1.961 . S
O148 C92 1.325 . S
O149 Li88 1.970 . S
O149 Li89 1.956 . S
O149 Li91 1.961 . S
O149 C98 1.325 . S
O150 Li88 1.961 . S
O150 Li90 1.956 . S
O150 Li91 1.970 . S
O150 C120 1.325 . S
O151 Li89 1.961 . S
O151 Li90 1.970 . S
O151 Li91 1.956 . S
O151 C126 1.325 . S
H152 C94 0.929 . S
H153 C95 0.930 . S
H154 C96 0.930 . S
H155 C97 0.930 . S
H156 C99 0.930 . S
H157 C101 0.929 . S
H158 C102 0.930 . S
H159 C103 0.930 . S
H160 C106 0.930 . S
H161 C109 0.929 . S
H162 C114 0.929 . S
H163 C115 0.930 . S
H164 C122 0.929 . S
H165 C123 0.930 . S
H166 C124 0.930 . S
H167 C125 0.930 . S
H168 C127 0.929 . S
H169 C128 0.930 . S
H170 C129 0.930 . S
H171 C130 0.930 . S
H172 C134 0.929 . S
H173 C136 0.930 . S
H174 C142 0.929 . S
H175 C143 0.930 . S
Li176 N193 1.990 . S
Li176 O236 1.956 . S
Li176 O237 1.970 . S
Li176 O238 1.961 . S
Li177 N201 1.990 . S
Li177 O236 1.970 . S
Li177 O237 1.956 . S
Li177 O239 1.961 . S
Li178 N223 1.990 . S
Li178 O236 1.961 . S
Li178 O238 1.956 . S
Li178 O239 1.970 . S
Li179 N229 1.990 . S
Li179 O237 1.961 . S
Li179 O238 1.970 . S
Li179 O239 1.956 . S
C180 C182 1.348 . S
C180 C183 1.356 . S
C180 O236 1.325 . S
N181 C184 1.314 . S
N181 C185 1.279 . S
C182 C180 1.348 . S
C182 C184 1.353 . S
C182 H240 0.929 . S
C183 C180 1.356 . S
C183 C185 1.358 . S
C183 H241 0.930 . S
C184 N181 1.314 . S
C184 C182 1.353 . S
C184 H242 0.930 . S
C185 N181 1.279 . S
C185 C183 1.358 . S
C185 H243 0.930 . S
C186 C189 1.348 . S
C186 C190 1.356 . S
C186 O237 1.325 . S
C187 N188 1.279 . S
C187 C190 1.358 . S
C187 H244 0.930 . S
N188 C187 1.279 . S
N188 C191 1.314 . S
C189 C186 1.348 . S
C189 C191 1.353 . S
C189 H245 0.929 . S
C190 C186 1.356 . S
C190 C187 1.358 . S
C190 H246 0.930 . S
C191 N188 1.314 . S
C191 C189 1.353 . S
C191 H247 0.930 . S
C192 N193 1.314 . S
C192 C197 1.353 . S
C192 H198 0.930 . S
N193 Li176 1.990 . S
N193 C192 1.314 . S
N193 C195 1.279 . S
C194 C195 1.358 . S
C194 C196 1.356 . S
C194 H248 0.930 . S
C195 N193 1.279 . S
C195 C194 1.358 . S
C195 H199 0.930 . S
C196 C194 1.356 . S
C196 C197 1.348 . S
C197 C192 1.353 . S
C197 C196 1.348 . S
C197 H249 0.929 . S
H198 C192 0.930 . S
H199 C195 0.930 . S
C200 N201 1.314 . S
C200 C202 1.353 . S
C200 H206 0.930 . S
N201 Li177 1.990 . S
N201 C200 1.314 . S
N201 C204 1.279 . S
C202 C200 1.353 . S
C202 C205 1.348 . S
C202 H250 0.929 . S
C203 C204 1.358 . S
C203 C205 1.356 . S
C203 H251 0.930 . S
C204 N201 1.279 . S
C204 C203 1.358 . S
C204 H207 0.930 . S
C205 C202 1.348 . S
C205 C203 1.356 . S
H206 C200 0.930 . S
H207 C204 0.930 . S
C208 C210 1.348 . S
C208 C211 1.356 . S
C208 O238 1.325 . S
N209 C212 1.314 . S
N209 C213 1.279 . S
C210 C208 1.348 . S
C210 C212 1.353 . S
C210 H252 0.929 . S
C211 C208 1.356 . S
C211 C213 1.358 . S
C211 H253 0.930 . S
C212 N209 1.314 . S
C212 C210 1.353 . S
C212 H254 0.930 . S
C213 N209 1.279 . S
C213 C211 1.358 . S
C213 H255 0.930 . S
C214 C215 1.348 . S
C214 C216 1.356 . S
C214 O239 1.325 . S
C215 C214 1.348 . S
C215 C217 1.353 . S
C215 H256 0.929 . S
C216 C214 1.356 . S
C216 C218 1.358 . S
C216 H257 0.930 . S
C217 C215 1.353 . S
C217 N219 1.314 . S
C217 H258 0.930 . S
C218 C216 1.358 . S
C218 N219 1.279 . S
C218 H259 0.930 . S
N219 C217 1.314 . S
N219 C218 1.279 . S
C220 C222 1.353 . S
C220 N223 1.314 . S
C220 H226 0.930 . S
C221 N223 1.279 . S
C221 C224 1.358 . S
C221 H227 0.930 . S
C222 C220 1.353 . S
C222 C225 1.348 . S
C222 H260 0.929 . S
N223 Li178 1.990 . S
N223 C220 1.314 . S
N223 C221 1.279 . S
C224 C221 1.358 . S
C224 C225 1.356 . S
C224 H261 0.930 . S
C225 C222 1.348 . S
C225 C224 1.356 . S
H226 C220 0.930 . S
H227 C221 0.930 . S
C228 N229 1.314 . S
C228 C230 1.353 . S
C228 H234 0.930 . S
N229 Li179 1.990 . S
N229 C228 1.314 . S
N229 C232 1.279 . S
C230 C228 1.353 . S
C230 C233 1.348 . S
C230 H262 0.929 . S
C231 C232 1.358 . S
C231 C233 1.356 . S
C231 H263 0.930 . S
C232 N229 1.279 . S
C232 C231 1.358 . S
C232 H235 0.930 . S
C233 C230 1.348 . S
C233 C231 1.356 . S
H234 C228 0.930 . S
H235 C232 0.930 . S
O236 Li176 1.956 . S
O236 Li177 1.970 . S
O236 Li178 1.961 . S
O236 C180 1.325 . S
O237 Li176 1.970 . S
O237 Li177 1.956 . S
O237 Li179 1.961 . S
O237 C186 1.325 . S
O238 Li176 1.961 . S
O238 Li178 1.956 . S
O238 Li179 1.970 . S
O238 C208 1.325 . S
O239 Li177 1.961 . S
O239 Li178 1.970 . S
O239 Li179 1.956 . S
O239 C214 1.325 . S
H240 C182 0.929 . S
H241 C183 0.930 . S
H242 C184 0.930 . S
H243 C185 0.930 . S
H244 C187 0.930 . S
H245 C189 0.929 . S
H246 C190 0.930 . S
H247 C191 0.930 . S
H248 C194 0.930 . S
H249 C197 0.929 . S
H250 C202 0.929 . S
H251 C203 0.930 . S
H252 C210 0.929 . S
H253 C211 0.930 . S
H254 C212 0.930 . S
H255 C213 0.930 . S
H256 C215 0.929 . S
H257 C216 0.930 . S
H258 C217 0.930 . S
H259 C218 0.930 . S
H260 C222 0.929 . S
H261 C224 0.930 . S
H262 C230 0.929 . S
H263 C231 0.930 . S
Li264 N281 1.990 . S
Li264 O324 1.956 . S
Li264 O325 1.970 . S
Li264 O326 1.961 . S
Li265 N289 1.990 . S
Li265 O324 1.970 . S
Li265 O325 1.956 . S
Li265 O327 1.961 . S
Li266 N311 1.990 . S
Li266 O324 1.961 . S
Li266 O326 1.956 . S
Li266 O327 1.970 . S
Li267 N317 1.990 . S
Li267 O325 1.961 . S
Li267 O326 1.970 . S
Li267 O327 1.956 . S
C268 C270 1.348 . S
C268 C271 1.356 . S
C268 O324 1.325 . S
N269 C272 1.314 . S
N269 C273 1.279 . S
C270 C268 1.348 . S
C270 C272 1.353 . S
C270 H328 0.929 . S
C271 C268 1.356 . S
C271 C273 1.358 . S
C271 H329 0.930 . S
C272 N269 1.314 . S
C272 C270 1.353 . S
C272 H330 0.930 . S
C273 N269 1.279 . S
C273 C271 1.358 . S
C273 H331 0.930 . S
C274 C277 1.348 . S
C274 C278 1.356 . S
C274 O325 1.325 . S
C275 N276 1.279 . S
C275 C278 1.358 . S
C275 H332 0.930 . S
N276 C275 1.279 . S
N276 C279 1.314 . S
C277 C274 1.348 . S
C277 C279 1.353 . S
C277 H333 0.929 . S
C278 C274 1.356 . S
C278 C275 1.358 . S
C278 H334 0.930 . S
C279 N276 1.314 . S
C279 C277 1.353 . S
C279 H335 0.930 . S
C280 N281 1.314 . S
C280 C285 1.353 . S
C280 H286 0.930 . S
N281 Li264 1.990 . S
N281 C280 1.314 . S
N281 C283 1.279 . S
C282 C283 1.358 . S
C282 C284 1.356 . S
C282 H336 0.930 . S
C283 N281 1.279 . S
C283 C282 1.358 . S
C283 H287 0.930 . S
C284 C282 1.356 . S
C284 C285 1.348 . S
C285 C280 1.353 . S
C285 C284 1.348 . S
C285 H337 0.929 . S
H286 C280 0.930 . S
H287 C283 0.930 . S
C288 N289 1.314 . S
C288 C290 1.353 . S
C288 H294 0.930 . S
N289 Li265 1.990 . S
N289 C288 1.314 . S
N289 C292 1.279 . S
C290 C288 1.353 . S
C290 C293 1.348 . S
C290 H338 0.929 . S
C291 C292 1.358 . S
C291 C293 1.356 . S
C291 H339 0.930 . S
C292 N289 1.279 . S
C292 C291 1.358 . S
C292 H295 0.930 . S
C293 C290 1.348 . S
C293 C291 1.356 . S
H294 C288 0.930 . S
H295 C292 0.930 . S
C296 C298 1.348 . S
C296 C299 1.356 . S
C296 O326 1.325 . S
N297 C300 1.314 . S
N297 C301 1.279 . S
C298 C296 1.348 . S
C298 C300 1.353 . S
C298 H340 0.929 . S
C299 C296 1.356 . S
C299 C301 1.358 . S
C299 H341 0.930 . S
C300 N297 1.314 . S
C300 C298 1.353 . S
C300 H342 0.930 . S
C301 N297 1.279 . S
C301 C299 1.358 . S
C301 H343 0.930 . S
C302 C303 1.348 . S
C302 C304 1.356 . S
C302 O327 1.325 . S
C303 C302 1.348 . S
C303 C305 1.353 . S
C303 H344 0.929 . S
C304 C302 1.356 . S
C304 C306 1.358 . S
C304 H345 0.930 . S
C305 C303 1.353 . S
C305 N307 1.314 . S
C305 H346 0.930 . S
C306 C304 1.358 . S
C306 N307 1.279 . S
C306 H347 0.930 . S
N307 C305 1.314 . S
N307 C306 1.279 . S
C308 C310 1.353 . S
C308 N311 1.314 . S
C308 H314 0.930 . S
C309 N311 1.279 . S
C309 C312 1.358 . S
C309 H315 0.930 . S
C310 C308 1.353 . S
C310 C313 1.348 . S
C310 H348 0.929 . S
N311 Li266 1.990 . S
N311 C308 1.314 . S
N311 C309 1.279 . S
C312 C309 1.358 . S
C312 C313 1.356 . S
C312 H349 0.930 . S
C313 C310 1.348 . S
C313 C312 1.356 . S
H314 C308 0.930 . S
H315 C309 0.930 . S
C316 N317 1.314 . S
C316 C318 1.353 . S
C316 H322 0.930 . S
N317 Li267 1.990 . S
N317 C316 1.314 . S
N317 C320 1.279 . S
C318 C316 1.353 . S
C318 C321 1.348 . S
C318 H350 0.929 . S
C319 C320 1.358 . S
C319 C321 1.356 . S
C319 H351 0.930 . S
C320 N317 1.279 . S
C320 C319 1.358 . S
C320 H323 0.930 . S
C321 C318 1.348 . S
C321 C319 1.356 . S
H322 C316 0.930 . S
H323 C320 0.930 . S
O324 Li264 1.956 . S
O324 Li265 1.970 . S
O324 Li266 1.961 . S
O324 C268 1.325 . S
O325 Li264 1.970 . S
O325 Li265 1.956 . S
O325 Li267 1.961 . S
O325 C274 1.325 . S
O326 Li264 1.961 . S
O326 Li266 1.956 . S
O326 Li267 1.970 . S
O326 C296 1.325 . S
O327 Li265 1.961 . S
O327 Li266 1.970 . S
O327 Li267 1.956 . S
O327 C302 1.325 . S
H328 C270 0.929 . S
H329 C271 0.930 . S
H330 C272 0.930 . S
H331 C273 0.930 . S
H332 C275 0.930 . S
H333 C277 0.929 . S
H334 C278 0.930 . S
H335 C279 0.930 . S
H336 C282 0.930 . S
H337 C285 0.929 . S
H338 C290 0.929 . S
H339 C291 0.930 . S
H340 C298 0.929 . S
H341 C299 0.930 . S
H342 C300 0.930 . S
H343 C301 0.930 . S
H344 C303 0.929 . S
H345 C304 0.930 . S
H346 C305 0.930 . S
H347 C306 0.930 . S
H348 C310 0.929 . S
H349 C312 0.930 . S
H350 C318 0.929 . S
H351 C319 0.930 . S
Li352 N369 1.990 . S
Li352 O412 1.956 . S
Li352 O413 1.970 . S
Li352 O414 1.961 . S
Li353 N377 1.990 . S
Li353 O412 1.970 . S
Li353 O413 1.956 . S
Li353 O415 1.961 . S
Li354 N399 1.990 . S
Li354 O412 1.961 . S
Li354 O414 1.956 . S
Li354 O415 1.970 . S
Li355 N405 1.990 . S
Li355 O413 1.961 . S
Li355 O414 1.970 . S
Li355 O415 1.956 . S
C356 C358 1.348 . S
C356 C359 1.356 . S
C356 O412 1.325 . S
N357 C360 1.314 . S
N357 C361 1.279 . S
C358 C356 1.348 . S
C358 C360 1.353 . S
C358 H416 0.929 . S
C359 C356 1.356 . S
C359 C361 1.358 . S
C359 H417 0.930 . S
C360 N357 1.314 . S
C360 C358 1.353 . S
C360 H418 0.930 . S
C361 N357 1.279 . S
C361 C359 1.358 . S
C361 H419 0.930 . S
C362 C365 1.348 . S
C362 C366 1.356 . S
C362 O413 1.325 . S
C363 N364 1.279 . S
C363 C366 1.358 . S
C363 H420 0.930 . S
N364 C363 1.279 . S
N364 C367 1.314 . S
C365 C362 1.348 . S
C365 C367 1.353 . S
C365 H421 0.929 . S
C366 C362 1.356 . S
C366 C363 1.358 . S
C366 H422 0.930 . S
C367 N364 1.314 . S
C367 C365 1.353 . S
C367 H423 0.930 . S
C368 N369 1.314 . S
C368 C373 1.353 . S
C368 H374 0.930 . S
N369 Li352 1.990 . S
N369 C368 1.314 . S
N369 C371 1.279 . S
C370 C371 1.358 . S
C370 C372 1.356 . S
C370 H424 0.930 . S
C371 N369 1.279 . S
C371 C370 1.358 . S
C371 H375 0.930 . S
C372 C370 1.356 . S
C372 C373 1.348 . S
C373 C368 1.353 . S
C373 C372 1.348 . S
C373 H425 0.929 . S
H374 C368 0.930 . S
H375 C371 0.930 . S
C376 N377 1.314 . S
C376 C378 1.353 . S
C376 H382 0.930 . S
N377 Li353 1.990 . S
N377 C376 1.314 . S
N377 C380 1.279 . S
C378 C376 1.353 . S
C378 C381 1.348 . S
C378 H426 0.929 . S
C379 C380 1.358 . S
C379 C381 1.356 . S
C379 H427 0.930 . S
C380 N377 1.279 . S
C380 C379 1.358 . S
C380 H383 0.930 . S
C381 C378 1.348 . S
C381 C379 1.356 . S
H382 C376 0.930 . S
H383 C380 0.930 . S
C384 C386 1.348 . S
C384 C387 1.356 . S
C384 O414 1.325 . S
N385 C388 1.314 . S
N385 C389 1.279 . S
C386 C384 1.348 . S
C386 C388 1.353 . S
C386 H428 0.929 . S
C387 C384 1.356 . S
C387 C389 1.358 . S
C387 H429 0.930 . S
C388 N385 1.314 . S
C388 C386 1.353 . S
C388 H430 0.930 . S
C389 N385 1.279 . S
C389 C387 1.358 . S
C389 H431 0.930 . S
C390 C391 1.348 . S
C390 C392 1.356 . S
C390 O415 1.325 . S
C391 C390 1.348 . S
C391 C393 1.353 . S
C391 H432 0.929 . S
C392 C390 1.356 . S
C392 C394 1.358 . S
C392 H433 0.930 . S
C393 C391 1.353 . S
C393 N395 1.314 . S
C393 H434 0.930 . S
C394 C392 1.358 . S
C394 N395 1.279 . S
C394 H435 0.930 . S
N395 C393 1.314 . S
N395 C394 1.279 . S
C396 C398 1.353 . S
C396 N399 1.314 . S
C396 H402 0.930 . S
C397 N399 1.279 . S
C397 C400 1.358 . S
C397 H403 0.930 . S
C398 C396 1.353 . S
C398 C401 1.348 . S
C398 H436 0.929 . S
N399 Li354 1.990 . S
N399 C396 1.314 . S
N399 C397 1.279 . S
C400 C397 1.358 . S
C400 C401 1.356 . S
C400 H437 0.930 . S
C401 C398 1.348 . S
C401 C400 1.356 . S
H402 C396 0.930 . S
H403 C397 0.930 . S
C404 N405 1.314 . S
C404 C406 1.353 . S
C404 H410 0.930 . S
N405 Li355 1.990 . S
N405 C404 1.314 . S
N405 C408 1.279 . S
C406 C404 1.353 . S
C406 C409 1.348 . S
C406 H438 0.929 . S
C407 C408 1.358 . S
C407 C409 1.356 . S
C407 H439 0.930 . S
C408 N405 1.279 . S
C408 C407 1.358 . S
C408 H411 0.930 . S
C409 C406 1.348 . S
C409 C407 1.356 . S
H410 C404 0.930 . S
H411 C408 0.930 . S
O412 Li352 1.956 . S
O412 Li353 1.970 . S
O412 Li354 1.961 . S
O412 C356 1.325 . S
O413 Li352 1.970 . S
O413 Li353 1.956 . S
O413 Li355 1.961 . S
O413 C362 1.325 . S
O414 Li352 1.961 . S
O414 Li354 1.956 . S
O414 Li355 1.970 . S
O414 C384 1.325 . S
O415 Li353 1.961 . S
O415 Li354 1.970 . S
O415 Li355 1.956 . S
O415 C390 1.325 . S
H416 C358 0.929 . S
H417 C359 0.930 . S
H418 C360 0.930 . S
H419 C361 0.930 . S
H420 C363 0.930 . S
H421 C365 0.929 . S
H422 C366 0.930 . S
H423 C367 0.930 . S
H424 C370 0.930 . S
H425 C373 0.929 . S
H426 C378 0.929 . S
H427 C379 0.930 . S
H428 C386 0.929 . S
H429 C387 0.930 . S
H430 C388 0.930 . S
H431 C389 0.930 . S
H432 C391 0.929 . S
H433 C392 0.930 . S
H434 C393 0.930 . S
H435 C394 0.930 . S
H436 C398 0.929 . S
H437 C400 0.930 . S
H438 C406 0.929 . S
H439 C407 0.930 . S
Li440 N457 1.990 . S
Li440 O500 1.956 . S
Li440 O501 1.970 . S
Li440 O502 1.961 . S
Li441 N465 1.990 . S
Li441 O500 1.970 . S
Li441 O501 1.956 . S
Li441 O503 1.961 . S
Li442 N487 1.990 . S
Li442 O500 1.961 . S
Li442 O502 1.956 . S
Li442 O503 1.970 . S
Li443 N493 1.990 . S
Li443 O501 1.961 . S
Li443 O502 1.970 . S
Li443 O503 1.956 . S
C444 C446 1.348 . S
C444 C447 1.356 . S
C444 O500 1.325 . S
N445 C448 1.314 . S
N445 C449 1.279 . S
C446 C444 1.348 . S
C446 C448 1.353 . S
C446 H504 0.929 . S
C447 C444 1.356 . S
C447 C449 1.358 . S
C447 H505 0.930 . S
C448 N445 1.314 . S
C448 C446 1.353 . S
C448 H506 0.930 . S
C449 N445 1.279 . S
C449 C447 1.358 . S
C449 H507 0.930 . S
C450 C453 1.348 . S
C450 C454 1.356 . S
C450 O501 1.325 . S
C451 N452 1.279 . S
C451 C454 1.358 . S
C451 H508 0.930 . S
N452 C451 1.279 . S
N452 C455 1.314 . S
C453 C450 1.348 . S
C453 C455 1.353 . S
C453 H509 0.929 . S
C454 C450 1.356 . S
C454 C451 1.358 . S
C454 H510 0.930 . S
C455 N452 1.314 . S
C455 C453 1.353 . S
C455 H511 0.930 . S
C456 N457 1.314 . S
C456 C461 1.353 . S
C456 H462 0.930 . S
N457 Li440 1.990 . S
N457 C456 1.314 . S
N457 C459 1.279 . S
C458 C459 1.358 . S
C458 C460 1.356 . S
C458 H512 0.930 . S
C459 N457 1.279 . S
C459 C458 1.358 . S
C459 H463 0.930 . S
C460 C458 1.356 . S
C460 C461 1.348 . S
C461 C456 1.353 . S
C461 C460 1.348 . S
C461 H513 0.929 . S
H462 C456 0.930 . S
H463 C459 0.930 . S
C464 N465 1.314 . S
C464 C466 1.353 . S
C464 H470 0.930 . S
N465 Li441 1.990 . S
N465 C464 1.314 . S
N465 C468 1.279 . S
C466 C464 1.353 . S
C466 C469 1.348 . S
C466 H514 0.929 . S
C467 C468 1.358 . S
C467 C469 1.356 . S
C467 H515 0.930 . S
C468 N465 1.279 . S
C468 C467 1.358 . S
C468 H471 0.930 . S
C469 C466 1.348 . S
C469 C467 1.356 . S
H470 C464 0.930 . S
H471 C468 0.930 . S
C472 C474 1.348 . S
C472 C475 1.356 . S
C472 O502 1.325 . S
N473 C476 1.314 . S
N473 C477 1.279 . S
C474 C472 1.348 . S
C474 C476 1.353 . S
C474 H516 0.929 . S
C475 C472 1.356 . S
C475 C477 1.358 . S
C475 H517 0.930 . S
C476 N473 1.314 . S
C476 C474 1.353 . S
C476 H518 0.930 . S
C477 N473 1.279 . S
C477 C475 1.358 . S
C477 H519 0.930 . S
C478 C479 1.348 . S
C478 C480 1.356 . S
C478 O503 1.325 . S
C479 C478 1.348 . S
C479 C481 1.353 . S
C479 H520 0.929 . S
C480 C478 1.356 . S
C480 C482 1.358 . S
C480 H521 0.930 . S
C481 C479 1.353 . S
C481 N483 1.314 . S
C481 H522 0.930 . S
C482 C480 1.358 . S
C482 N483 1.279 . S
C482 H523 0.930 . S
N483 C481 1.314 . S
N483 C482 1.279 . S
C484 C486 1.353 . S
C484 N487 1.314 . S
C484 H490 0.930 . S
C485 N487 1.279 . S
C485 C488 1.358 . S
C485 H491 0.930 . S
C486 C484 1.353 . S
C486 C489 1.348 . S
C486 H524 0.929 . S
N487 Li442 1.990 . S
N487 C484 1.314 . S
N487 C485 1.279 . S
C488 C485 1.358 . S
C488 C489 1.356 . S
C488 H525 0.930 . S
C489 C486 1.348 . S
C489 C488 1.356 . S
H490 C484 0.930 . S
H491 C485 0.930 . S
C492 N493 1.314 . S
C492 C494 1.353 . S
C492 H498 0.930 . S
N493 Li443 1.990 . S
N493 C492 1.314 . S
N493 C496 1.279 . S
C494 C492 1.353 . S
C494 C497 1.348 . S
C494 H526 0.929 . S
C495 C496 1.358 . S
C495 C497 1.356 . S
C495 H527 0.930 . S
C496 N493 1.279 . S
C496 C495 1.358 . S
C496 H499 0.930 . S
C497 C494 1.348 . S
C497 C495 1.356 . S
H498 C492 0.930 . S
H499 C496 0.930 . S
O500 Li440 1.956 . S
O500 Li441 1.970 . S
O500 Li442 1.961 . S
O500 C444 1.325 . S
O501 Li440 1.970 . S
O501 Li441 1.956 . S
O501 Li443 1.961 . S
O501 C450 1.325 . S
O502 Li440 1.961 . S
O502 Li442 1.956 . S
O502 Li443 1.970 . S
O502 C472 1.325 . S
O503 Li441 1.961 . S
O503 Li442 1.970 . S
O503 Li443 1.956 . S
O503 C478 1.325 . S
H504 C446 0.929 . S
H505 C447 0.930 . S
H506 C448 0.930 . S
H507 C449 0.930 . S
H508 C451 0.930 . S
H509 C453 0.929 . S
H510 C454 0.930 . S
H511 C455 0.930 . S
H512 C458 0.930 . S
H513 C461 0.929 . S
H514 C466 0.929 . S
H515 C467 0.930 . S
H516 C474 0.929 . S
H517 C475 0.930 . S
H518 C476 0.930 . S
H519 C477 0.930 . S
H520 C479 0.929 . S
H521 C480 0.930 . S
H522 C481 0.930 . S
H523 C482 0.930 . S
H524 C486 0.929 . S
H525 C488 0.930 . S
H526 C494 0.929 . S
H527 C495 0.930 . S
Li528 N545 1.990 . S
Li528 O588 1.956 . S
Li528 O589 1.970 . S
Li528 O590 1.961 . S
Li529 N553 1.990 . S
Li529 O588 1.970 . S
Li529 O589 1.956 . S
Li529 O591 1.961 . S
Li530 N575 1.990 . S
Li530 O588 1.961 . S
Li530 O590 1.956 . S
Li530 O591 1.970 . S
Li531 N581 1.990 . S
Li531 O589 1.961 . S
Li531 O590 1.970 . S
Li531 O591 1.956 . S
C532 C534 1.348 . S
C532 C535 1.356 . S
C532 O588 1.325 . S
N533 C536 1.314 . S
N533 C537 1.279 . S
C534 C532 1.348 . S
C534 C536 1.353 . S
C534 H592 0.929 . S
C535 C532 1.356 . S
C535 C537 1.358 . S
C535 H593 0.930 . S
C536 N533 1.314 . S
C536 C534 1.353 . S
C536 H594 0.930 . S
C537 N533 1.279 . S
C537 C535 1.358 . S
C537 H595 0.930 . S
C538 C541 1.348 . S
C538 C542 1.356 . S
C538 O589 1.325 . S
C539 N540 1.279 . S
C539 C542 1.358 . S
C539 H596 0.930 . S
N540 C539 1.279 . S
N540 C543 1.314 . S
C541 C538 1.348 . S
C541 C543 1.353 . S
C541 H597 0.929 . S
C542 C538 1.356 . S
C542 C539 1.358 . S
C542 H598 0.930 . S
C543 N540 1.314 . S
C543 C541 1.353 . S
C543 H599 0.930 . S
C544 N545 1.314 . S
C544 C549 1.353 . S
C544 H550 0.930 . S
N545 Li528 1.990 . S
N545 C544 1.314 . S
N545 C547 1.279 . S
C546 C547 1.358 . S
C546 C548 1.356 . S
C546 H600 0.930 . S
C547 N545 1.279 . S
C547 C546 1.358 . S
C547 H551 0.930 . S
C548 C546 1.356 . S
C548 C549 1.348 . S
C549 C544 1.353 . S
C549 C548 1.348 . S
C549 H601 0.929 . S
H550 C544 0.930 . S
H551 C547 0.930 . S
C552 N553 1.314 . S
C552 C554 1.353 . S
C552 H558 0.930 . S
N553 Li529 1.990 . S
N553 C552 1.314 . S
N553 C556 1.279 . S
C554 C552 1.353 . S
C554 C557 1.348 . S
C554 H602 0.929 . S
C555 C556 1.358 . S
C555 C557 1.356 . S
C555 H603 0.930 . S
C556 N553 1.279 . S
C556 C555 1.358 . S
C556 H559 0.930 . S
C557 C554 1.348 . S
C557 C555 1.356 . S
H558 C552 0.930 . S
H559 C556 0.930 . S
C560 C562 1.348 . S
C560 C563 1.356 . S
C560 O590 1.325 . S
N561 C564 1.314 . S
N561 C565 1.279 . S
C562 C560 1.348 . S
C562 C564 1.353 . S
C562 H604 0.929 . S
C563 C560 1.356 . S
C563 C565 1.358 . S
C563 H605 0.930 . S
C564 N561 1.314 . S
C564 C562 1.353 . S
C564 H606 0.930 . S
C565 N561 1.279 . S
C565 C563 1.358 . S
C565 H607 0.930 . S
C566 C567 1.348 . S
C566 C568 1.356 . S
C566 O591 1.325 . S
C567 C566 1.348 . S
C567 C569 1.353 . S
C567 H608 0.929 . S
C568 C566 1.356 . S
C568 C570 1.358 . S
C568 H609 0.930 . S
C569 C567 1.353 . S
C569 N571 1.314 . S
C569 H610 0.930 . S
C570 C568 1.358 . S
C570 N571 1.279 . S
C570 H611 0.930 . S
N571 C569 1.314 . S
N571 C570 1.279 . S
C572 C574 1.353 . S
C572 N575 1.314 . S
C572 H578 0.930 . S
C573 N575 1.279 . S
C573 C576 1.358 . S
C573 H579 0.930 . S
C574 C572 1.353 . S
C574 C577 1.348 . S
C574 H612 0.929 . S
N575 Li530 1.990 . S
N575 C572 1.314 . S
N575 C573 1.279 . S
C576 C573 1.358 . S
C576 C577 1.356 . S
C576 H613 0.930 . S
C577 C574 1.348 . S
C577 C576 1.356 . S
H578 C572 0.930 . S
H579 C573 0.930 . S
C580 N581 1.314 . S
C580 C582 1.353 . S
C580 H586 0.930 . S
N581 Li531 1.990 . S
N581 C580 1.314 . S
N581 C584 1.279 . S
C582 C580 1.353 . S
C582 C585 1.348 . S
C582 H614 0.929 . S
C583 C584 1.358 . S
C583 C585 1.356 . S
C583 H615 0.930 . S
C584 N581 1.279 . S
C584 C583 1.358 . S
C584 H587 0.930 . S
C585 C582 1.348 . S
C585 C583 1.356 . S
H586 C580 0.930 . S
H587 C584 0.930 . S
O588 Li528 1.956 . S
O588 Li529 1.970 . S
O588 Li530 1.961 . S
O588 C532 1.325 . S
O589 Li528 1.970 . S
O589 Li529 1.956 . S
O589 Li531 1.961 . S
O589 C538 1.325 . S
O590 Li528 1.961 . S
O590 Li530 1.956 . S
O590 Li531 1.970 . S
O590 C560 1.325 . S
O591 Li529 1.961 . S
O591 Li530 1.970 . S
O591 Li531 1.956 . S
O591 C566 1.325 . S
H592 C534 0.929 . S
H593 C535 0.930 . S
H594 C536 0.930 . S
H595 C537 0.930 . S
H596 C539 0.930 . S
H597 C541 0.929 . S
H598 C542 0.930 . S
H599 C543 0.930 . S
H600 C546 0.930 . S
H601 C549 0.929 . S
H602 C554 0.929 . S
H603 C555 0.930 . S
H604 C562 0.929 . S
H605 C563 0.930 . S
H606 C564 0.930 . S
H607 C565 0.930 . S
H608 C567 0.929 . S
H609 C568 0.930 . S
H610 C569 0.930 . S
H611 C570 0.930 . S
H612 C574 0.929 . S
H613 C576 0.930 . S
H614 C582 0.929 . S
H615 C583 0.930 . S
Li616 N633 1.990 . S
Li616 O676 1.956 . S
Li616 O677 1.970 . S
Li616 O678 1.961 . S
Li617 N641 1.990 . S
Li617 O676 1.970 . S
Li617 O677 1.956 . S
Li617 O679 1.961 . S
Li618 N663 1.990 . S
Li618 O676 1.961 . S
Li618 O678 1.956 . S
Li618 O679 1.970 . S
Li619 N669 1.990 . S
Li619 O677 1.961 . S
Li619 O678 1.970 . S
Li619 O679 1.956 . S
C620 C622 1.348 . S
C620 C623 1.356 . S
C620 O676 1.325 . S
N621 C624 1.314 . S
N621 C625 1.279 . S
C622 C620 1.348 . S
C622 C624 1.353 . S
C622 H680 0.929 . S
C623 C620 1.356 . S
C623 C625 1.358 . S
C623 H681 0.930 . S
C624 N621 1.314 . S
C624 C622 1.353 . S
C624 H682 0.930 . S
C625 N621 1.279 . S
C625 C623 1.358 . S
C625 H683 0.930 . S
C626 C629 1.348 . S
C626 C630 1.356 . S
C626 O677 1.325 . S
C627 N628 1.279 . S
C627 C630 1.358 . S
C627 H684 0.930 . S
N628 C627 1.279 . S
N628 C631 1.314 . S
C629 C626 1.348 . S
C629 C631 1.353 . S
C629 H685 0.929 . S
C630 C626 1.356 . S
C630 C627 1.358 . S
C630 H686 0.930 . S
C631 N628 1.314 . S
C631 C629 1.353 . S
C631 H687 0.930 . S
C632 N633 1.314 . S
C632 C637 1.353 . S
C632 H638 0.930 . S
N633 Li616 1.990 . S
N633 C632 1.314 . S
N633 C635 1.279 . S
C634 C635 1.358 . S
C634 C636 1.356 . S
C634 H688 0.930 . S
C635 N633 1.279 . S
C635 C634 1.358 . S
C635 H639 0.930 . S
C636 C634 1.356 . S
C636 C637 1.348 . S
C637 C632 1.353 . S
C637 C636 1.348 . S
C637 H689 0.929 . S
H638 C632 0.930 . S
H639 C635 0.930 . S
C640 N641 1.314 . S
C640 C642 1.353 . S
C640 H646 0.930 . S
N641 Li617 1.990 . S
N641 C640 1.314 . S
N641 C644 1.279 . S
C642 C640 1.353 . S
C642 C645 1.348 . S
C642 H690 0.929 . S
C643 C644 1.358 . S
C643 C645 1.356 . S
C643 H691 0.930 . S
C644 N641 1.279 . S
C644 C643 1.358 . S
C644 H647 0.930 . S
C645 C642 1.348 . S
C645 C643 1.356 . S
H646 C640 0.930 . S
H647 C644 0.930 . S
C648 C650 1.348 . S
C648 C651 1.356 . S
C648 O678 1.325 . S
N649 C652 1.314 . S
N649 C653 1.279 . S
C650 C648 1.348 . S
C650 C652 1.353 . S
C650 H692 0.929 . S
C651 C648 1.356 . S
C651 C653 1.358 . S
C651 H693 0.930 . S
C652 N649 1.314 . S
C652 C650 1.353 . S
C652 H694 0.930 . S
C653 N649 1.279 . S
C653 C651 1.358 . S
C653 H695 0.930 . S
C654 C655 1.348 . S
C654 C656 1.356 . S
C654 O679 1.325 . S
C655 C654 1.348 . S
C655 C657 1.353 . S
C655 H696 0.929 . S
C656 C654 1.356 . S
C656 C658 1.358 . S
C656 H697 0.930 . S
C657 C655 1.353 . S
C657 N659 1.314 . S
C657 H698 0.930 . S
C658 C656 1.358 . S
C658 N659 1.279 . S
C658 H699 0.930 . S
N659 C657 1.314 . S
N659 C658 1.279 . S
C660 C662 1.353 . S
C660 N663 1.314 . S
C660 H666 0.930 . S
C661 N663 1.279 . S
C661 C664 1.358 . S
C661 H667 0.930 . S
C662 C660 1.353 . S
C662 C665 1.348 . S
C662 H700 0.929 . S
N663 Li618 1.990 . S
N663 C660 1.314 . S
N663 C661 1.279 . S
C664 C661 1.358 . S
C664 C665 1.356 . S
C664 H701 0.930 . S
C665 C662 1.348 . S
C665 C664 1.356 . S
H666 C660 0.930 . S
H667 C661 0.930 . S
C668 N669 1.314 . S
C668 C670 1.353 . S
C668 H674 0.930 . S
N669 Li619 1.990 . S
N669 C668 1.314 . S
N669 C672 1.279 . S
C670 C668 1.353 . S
C670 C673 1.348 . S
C670 H702 0.929 . S
C671 C672 1.358 . S
C671 C673 1.356 . S
C671 H703 0.930 . S
C672 N669 1.279 . S
C672 C671 1.358 . S
C672 H675 0.930 . S
C673 C670 1.348 . S
C673 C671 1.356 . S
H674 C668 0.930 . S
H675 C672 0.930 . S
O676 Li616 1.956 . S
O676 Li617 1.970 . S
O676 Li618 1.961 . S
O676 C620 1.325 . S
O677 Li616 1.970 . S
O677 Li617 1.956 . S
O677 Li619 1.961 . S
O677 C626 1.325 . S
O678 Li616 1.961 . S
O678 Li618 1.956 . S
O678 Li619 1.970 . S
O678 C648 1.325 . S
O679 Li617 1.961 . S
O679 Li618 1.970 . S
O679 Li619 1.956 . S
O679 C654 1.325 . S
H680 C622 0.929 . S
H681 C623 0.930 . S
H682 C624 0.930 . S
H683 C625 0.930 . S
H684 C627 0.930 . S
H685 C629 0.929 . S
H686 C630 0.930 . S
H687 C631 0.930 . S
H688 C634 0.930 . S
H689 C637 0.929 . S
H690 C642 0.929 . S
H691 C643 0.930 . S
H692 C650 0.929 . S
H693 C651 0.930 . S
H694 C652 0.930 . S
H695 C653 0.930 . S
H696 C655 0.929 . S
H697 C656 0.930 . S
H698 C657 0.930 . S
H699 C658 0.930 . S
H700 C662 0.929 . S
H701 C664 0.930 . S
H702 C670 0.929 . S
H703 C671 0.930 . S
Li704 N721 1.990 . S
Li704 O764 1.956 . S
Li704 O765 1.970 . S
Li704 O766 1.961 . S
Li705 N729 1.990 . S
Li705 O764 1.970 . S
Li705 O765 1.956 . S
Li705 O767 1.961 . S
Li706 N751 1.990 . S
Li706 O764 1.961 . S
Li706 O766 1.956 . S
Li706 O767 1.970 . S
Li707 N757 1.990 . S
Li707 O765 1.961 . S
Li707 O766 1.970 . S
Li707 O767 1.956 . S
C708 C710 1.348 . S
C708 C711 1.356 . S
C708 O764 1.325 . S
N709 C712 1.314 . S
N709 C713 1.279 . S
C710 C708 1.348 . S
C710 C712 1.353 . S
C710 H768 0.929 . S
C711 C708 1.356 . S
C711 C713 1.358 . S
C711 H769 0.930 . S
C712 N709 1.314 . S
C712 C710 1.353 . S
C712 H770 0.930 . S
C713 N709 1.279 . S
C713 C711 1.358 . S
C713 H771 0.930 . S
C714 C717 1.348 . S
C714 C718 1.356 . S
C714 O765 1.325 . S
C715 N716 1.279 . S
C715 C718 1.358 . S
C715 H772 0.930 . S
N716 C715 1.279 . S
N716 C719 1.314 . S
C717 C714 1.348 . S
C717 C719 1.353 . S
C717 H773 0.929 . S
C718 C714 1.356 . S
C718 C715 1.358 . S
C718 H774 0.930 . S
C719 N716 1.314 . S
C719 C717 1.353 . S
C719 H775 0.930 . S
C720 N721 1.314 . S
C720 C725 1.353 . S
C720 H726 0.930 . S
N721 Li704 1.990 . S
N721 C720 1.314 . S
N721 C723 1.279 . S
C722 C723 1.358 . S
C722 C724 1.356 . S
C722 H776 0.930 . S
C723 N721 1.279 . S
C723 C722 1.358 . S
C723 H727 0.930 . S
C724 C722 1.356 . S
C724 C725 1.348 . S
C725 C720 1.353 . S
C725 C724 1.348 . S
C725 H777 0.929 . S
H726 C720 0.930 . S
H727 C723 0.930 . S
C728 N729 1.314 . S
C728 C730 1.353 . S
C728 H734 0.930 . S
N729 Li705 1.990 . S
N729 C728 1.314 . S
N729 C732 1.279 . S
C730 C728 1.353 . S
C730 C733 1.348 . S
C730 H778 0.929 . S
C731 C732 1.358 . S
C731 C733 1.356 . S
C731 H779 0.930 . S
C732 N729 1.279 . S
C732 C731 1.358 . S
C732 H735 0.930 . S
C733 C730 1.348 . S
C733 C731 1.356 . S
H734 C728 0.930 . S
H735 C732 0.930 . S
C736 C738 1.348 . S
C736 C739 1.356 . S
C736 O766 1.325 . S
N737 C740 1.314 . S
N737 C741 1.279 . S
C738 C736 1.348 . S
C738 C740 1.353 . S
C738 H780 0.929 . S
C739 C736 1.356 . S
C739 C741 1.358 . S
C739 H781 0.930 . S
C740 N737 1.314 . S
C740 C738 1.353 . S
C740 H782 0.930 . S
C741 N737 1.279 . S
C741 C739 1.358 . S
C741 H783 0.930 . S
C742 C743 1.348 . S
C742 C744 1.356 . S
C742 O767 1.325 . S
C743 C742 1.348 . S
C743 C745 1.353 . S
C743 H784 0.929 . S
C744 C742 1.356 . S
C744 C746 1.358 . S
C744 H785 0.930 . S
C745 C743 1.353 . S
C745 N747 1.314 . S
C745 H786 0.930 . S
C746 C744 1.358 . S
C746 N747 1.279 . S
C746 H787 0.930 . S
N747 C745 1.314 . S
N747 C746 1.279 . S
C748 C750 1.353 . S
C748 N751 1.314 . S
C748 H754 0.930 . S
C749 N751 1.279 . S
C749 C752 1.358 . S
C749 H755 0.930 . S
C750 C748 1.353 . S
C750 C753 1.348 . S
C750 H788 0.929 . S
N751 Li706 1.990 . S
N751 C748 1.314 . S
N751 C749 1.279 . S
C752 C749 1.358 . S
C752 C753 1.356 . S
C752 H789 0.930 . S
C753 C750 1.348 . S
C753 C752 1.356 . S
H754 C748 0.930 . S
H755 C749 0.930 . S
C756 N757 1.314 . S
C756 C758 1.353 . S
C756 H762 0.930 . S
N757 Li707 1.990 . S
N757 C756 1.314 . S
N757 C760 1.279 . S
C758 C756 1.353 . S
C758 C761 1.348 . S
C758 H790 0.929 . S
C759 C760 1.358 . S
C759 C761 1.356 . S
C759 H791 0.930 . S
C760 N757 1.279 . S
C760 C759 1.358 . S
C760 H763 0.930 . S
C761 C758 1.348 . S
C761 C759 1.356 . S
H762 C756 0.930 . S
H763 C760 0.930 . S
O764 Li704 1.956 . S
O764 Li705 1.970 . S
O764 Li706 1.961 . S
O764 C708 1.325 . S
O765 Li704 1.970 . S
O765 Li705 1.956 . S
O765 Li707 1.961 . S
O765 C714 1.325 . S
O766 Li704 1.961 . S
O766 Li706 1.956 . S
O766 Li707 1.970 . S
O766 C736 1.325 . S
O767 Li705 1.961 . S
O767 Li706 1.970 . S
O767 Li707 1.956 . S
O767 C742 1.325 . S
H768 C710 0.929 . S
H769 C711 0.930 . S
H770 C712 0.930 . S
H771 C713 0.930 . S
H772 C715 0.930 . S
H773 C717 0.929 . S
H774 C718 0.930 . S
H775 C719 0.930 . S
H776 C722 0.930 . S
H777 C725 0.929 . S
H778 C730 0.929 . S
H779 C731 0.930 . S
H780 C738 0.929 . S
H781 C739 0.930 . S
H782 C740 0.930 . S
H783 C741 0.930 . S
H784 C743 0.929 . S
H785 C744 0.930 . S
H786 C745 0.930 . S
H787 C746 0.930 . S
H788 C750 0.929 . S
H789 C752 0.930 . S
H790 C758 0.929 . S
H791 C759 0.930 . S
Li792 N809 1.990 . S
Li792 O852 1.956 . S
Li792 O853 1.970 . S
Li792 O854 1.961 . S
Li793 N817 1.990 . S
Li793 O852 1.970 . S
Li793 O853 1.956 . S
Li793 O855 1.961 . S
Li794 N839 1.990 . S
Li794 O852 1.961 . S
Li794 O854 1.956 . S
Li794 O855 1.970 . S
Li795 N845 1.990 . S
Li795 O853 1.961 . S
Li795 O854 1.970 . S
Li795 O855 1.956 . S
C796 C798 1.348 . S
C796 C799 1.356 . S
C796 O852 1.325 . S
N797 C800 1.314 . S
N797 C801 1.279 . S
C798 C796 1.348 . S
C798 C800 1.353 . S
C798 H856 0.929 . S
C799 C796 1.356 . S
C799 C801 1.358 . S
C799 H857 0.930 . S
C800 N797 1.314 . S
C800 C798 1.353 . S
C800 H858 0.930 . S
C801 N797 1.279 . S
C801 C799 1.358 . S
C801 H859 0.930 . S
C802 C805 1.348 . S
C802 C806 1.356 . S
C802 O853 1.325 . S
C803 N804 1.279 . S
C803 C806 1.358 . S
C803 H860 0.930 . S
N804 C803 1.279 . S
N804 C807 1.314 . S
C805 C802 1.348 . S
C805 C807 1.353 . S
C805 H861 0.929 . S
C806 C802 1.356 . S
C806 C803 1.358 . S
C806 H862 0.930 . S
C807 N804 1.314 . S
C807 C805 1.353 . S
C807 H863 0.930 . S
C808 N809 1.314 . S
C808 C813 1.353 . S
C808 H814 0.930 . S
N809 Li792 1.990 . S
N809 C808 1.314 . S
N809 C811 1.279 . S
C810 C811 1.358 . S
C810 C812 1.356 . S
C810 H864 0.930 . S
C811 N809 1.279 . S
C811 C810 1.358 . S
C811 H815 0.930 . S
C812 C810 1.356 . S
C812 C813 1.348 . S
C813 C808 1.353 . S
C813 C812 1.348 . S
C813 H865 0.929 . S
H814 C808 0.930 . S
H815 C811 0.930 . S
C816 N817 1.314 . S
C816 C818 1.353 . S
C816 H822 0.930 . S
N817 Li793 1.990 . S
N817 C816 1.314 . S
N817 C820 1.279 . S
C818 C816 1.353 . S
C818 C821 1.348 . S
C818 H866 0.929 . S
C819 C820 1.358 . S
C819 C821 1.356 . S
C819 H867 0.930 . S
C820 N817 1.279 . S
C820 C819 1.358 . S
C820 H823 0.930 . S
C821 C818 1.348 . S
C821 C819 1.356 . S
H822 C816 0.930 . S
H823 C820 0.930 . S
C824 C826 1.348 . S
C824 C827 1.356 . S
C824 O854 1.325 . S
N825 C828 1.314 . S
N825 C829 1.279 . S
C826 C824 1.348 . S
C826 C828 1.353 . S
C826 H868 0.929 . S
C827 C824 1.356 . S
C827 C829 1.358 . S
C827 H869 0.930 . S
C828 N825 1.314 . S
C828 C826 1.353 . S
C828 H870 0.930 . S
C829 N825 1.279 . S
C829 C827 1.358 . S
C829 H871 0.930 . S
C830 C831 1.348 . S
C830 C832 1.356 . S
C830 O855 1.325 . S
C831 C830 1.348 . S
C831 C833 1.353 . S
C831 H872 0.929 . S
C832 C830 1.356 . S
C832 C834 1.358 . S
C832 H873 0.930 . S
C833 C831 1.353 . S
C833 N835 1.314 . S
C833 H874 0.930 . S
C834 C832 1.358 . S
C834 N835 1.279 . S
C834 H875 0.930 . S
N835 C833 1.314 . S
N835 C834 1.279 . S
C836 C838 1.353 . S
C836 N839 1.314 . S
C836 H842 0.930 . S
C837 N839 1.279 . S
C837 C840 1.358 . S
C837 H843 0.930 . S
C838 C836 1.353 . S
C838 C841 1.348 . S
C838 H876 0.929 . S
N839 Li794 1.990 . S
N839 C836 1.314 . S
N839 C837 1.279 . S
C840 C837 1.358 . S
C840 C841 1.356 . S
C840 H877 0.930 . S
C841 C838 1.348 . S
C841 C840 1.356 . S
H842 C836 0.930 . S
H843 C837 0.930 . S
C844 N845 1.314 . S
C844 C846 1.353 . S
C844 H850 0.930 . S
N845 Li795 1.990 . S
N845 C844 1.314 . S
N845 C848 1.279 . S
C846 C844 1.353 . S
C846 C849 1.348 . S
C846 H878 0.929 . S
C847 C848 1.358 . S
C847 C849 1.356 . S
C847 H879 0.930 . S
C848 N845 1.279 . S
C848 C847 1.358 . S
C848 H851 0.930 . S
C849 C846 1.348 . S
C849 C847 1.356 . S
H850 C844 0.930 . S
H851 C848 0.930 . S
O852 Li792 1.956 . S
O852 Li793 1.970 . S
O852 Li794 1.961 . S
O852 C796 1.325 . S
O853 Li792 1.970 . S
O853 Li793 1.956 . S
O853 Li795 1.961 . S
O853 C802 1.325 . S
O854 Li792 1.961 . S
O854 Li794 1.956 . S
O854 Li795 1.970 . S
O854 C824 1.325 . S
O855 Li793 1.961 . S
O855 Li794 1.970 . S
O855 Li795 1.956 . S
O855 C830 1.325 . S
H856 C798 0.929 . S
H857 C799 0.930 . S
H858 C800 0.930 . S
H859 C801 0.930 . S
H860 C803 0.930 . S
H861 C805 0.929 . S
H862 C806 0.930 . S
H863 C807 0.930 . S
H864 C810 0.930 . S
H865 C813 0.929 . S
H866 C818 0.929 . S
H867 C819 0.930 . S
H868 C826 0.929 . S
H869 C827 0.930 . S
H870 C828 0.930 . S
H871 C829 0.930 . S
H872 C831 0.929 . S
H873 C832 0.930 . S
H874 C833 0.930 . S
H875 C834 0.930 . S
H876 C838 0.929 . S
H877 C840 0.930 . S
H878 C846 0.929 . S
H879 C847 0.930 . S
Li880 N897 1.990 . S
Li880 O940 1.956 . S
Li880 O941 1.970 . S
Li880 O942 1.961 . S
Li881 N905 1.990 . S
Li881 O940 1.970 . S
Li881 O941 1.956 . S
Li881 O943 1.961 . S
Li882 N927 1.990 . S
Li882 O940 1.961 . S
Li882 O942 1.956 . S
Li882 O943 1.970 . S
Li883 N933 1.990 . S
Li883 O941 1.961 . S
Li883 O942 1.970 . S
Li883 O943 1.956 . S
C884 C886 1.348 . S
C884 C887 1.356 . S
C884 O940 1.325 . S
N885 C888 1.314 . S
N885 C889 1.279 . S
C886 C884 1.348 . S
C886 C888 1.353 . S
C886 H944 0.929 . S
C887 C884 1.356 . S
C887 C889 1.358 . S
C887 H945 0.930 . S
C888 N885 1.314 . S
C888 C886 1.353 . S
C888 H946 0.930 . S
C889 N885 1.279 . S
C889 C887 1.358 . S
C889 H947 0.930 . S
C890 C893 1.348 . S
C890 C894 1.356 . S
C890 O941 1.325 . S
C891 N892 1.279 . S
C891 C894 1.358 . S
C891 H948 0.930 . S
N892 C891 1.279 . S
N892 C895 1.314 . S
C893 C890 1.348 . S
C893 C895 1.353 . S
C893 H949 0.929 . S
C894 C890 1.356 . S
C894 C891 1.358 . S
C894 H950 0.930 . S
C895 N892 1.314 . S
C895 C893 1.353 . S
C895 H951 0.930 . S
C896 N897 1.314 . S
C896 C901 1.353 . S
C896 H902 0.930 . S
N897 Li880 1.990 . S
N897 C896 1.314 . S
N897 C899 1.279 . S
C898 C899 1.358 . S
C898 C900 1.356 . S
C898 H952 0.930 . S
C899 N897 1.279 . S
C899 C898 1.358 . S
C899 H903 0.930 . S
C900 C898 1.356 . S
C900 C901 1.348 . S
C901 C896 1.353 . S
C901 C900 1.348 . S
C901 H953 0.929 . S
H902 C896 0.930 . S
H903 C899 0.930 . S
C904 N905 1.314 . S
C904 C906 1.353 . S
C904 H910 0.930 . S
N905 Li881 1.990 . S
N905 C904 1.314 . S
N905 C908 1.279 . S
C906 C904 1.353 . S
C906 C909 1.348 . S
C906 H954 0.929 . S
C907 C908 1.358 . S
C907 C909 1.356 . S
C907 H955 0.930 . S
C908 N905 1.279 . S
C908 C907 1.358 . S
C908 H911 0.930 . S
C909 C906 1.348 . S
C909 C907 1.356 . S
H910 C904 0.930 . S
H911 C908 0.930 . S
C912 C914 1.348 . S
C912 C915 1.356 . S
C912 O942 1.325 . S
N913 C916 1.314 . S
N913 C917 1.279 . S
C914 C912 1.348 . S
C914 C916 1.353 . S
C914 H956 0.929 . S
C915 C912 1.356 . S
C915 C917 1.358 . S
C915 H957 0.930 . S
C916 N913 1.314 . S
C916 C914 1.353 . S
C916 H958 0.930 . S
C917 N913 1.279 . S
C917 C915 1.358 . S
C917 H959 0.930 . S
C918 C919 1.348 . S
C918 C920 1.356 . S
C918 O943 1.325 . S
C919 C918 1.348 . S
C919 C921 1.353 . S
C919 H960 0.929 . S
C920 C918 1.356 . S
C920 C922 1.358 . S
C920 H961 0.930 . S
C921 C919 1.353 . S
C921 N923 1.314 . S
C921 H962 0.930 . S
C922 C920 1.358 . S
C922 N923 1.279 . S
C922 H963 0.930 . S
N923 C921 1.314 . S
N923 C922 1.279 . S
C924 C926 1.353 . S
C924 N927 1.314 . S
C924 H930 0.930 . S
C925 N927 1.279 . S
C925 C928 1.358 . S
C925 H931 0.930 . S
C926 C924 1.353 . S
C926 C929 1.348 . S
C926 H964 0.929 . S
N927 Li882 1.990 . S
N927 C924 1.314 . S
N927 C925 1.279 . S
C928 C925 1.358 . S
C928 C929 1.356 . S
C928 H965 0.930 . S
C929 C926 1.348 . S
C929 C928 1.356 . S
H930 C924 0.930 . S
H931 C925 0.930 . S
C932 N933 1.314 . S
C932 C934 1.353 . S
C932 H938 0.930 . S
N933 Li883 1.990 . S
N933 C932 1.314 . S
N933 C936 1.279 . S
C934 C932 1.353 . S
C934 C937 1.348 . S
C934 H966 0.929 . S
C935 C936 1.358 . S
C935 C937 1.356 . S
C935 H967 0.930 . S
C936 N933 1.279 . S
C936 C935 1.358 . S
C936 H939 0.930 . S
C937 C934 1.348 . S
C937 C935 1.356 . S
H938 C932 0.930 . S
H939 C936 0.930 . S
O940 Li880 1.956 . S
O940 Li881 1.970 . S
O940 Li882 1.961 . S
O940 C884 1.325 . S
O941 Li880 1.970 . S
O941 Li881 1.956 . S
O941 Li883 1.961 . S
O941 C890 1.325 . S
O942 Li880 1.961 . S
O942 Li882 1.956 . S
O942 Li883 1.970 . S
O942 C912 1.325 . S
O943 Li881 1.961 . S
O943 Li882 1.970 . S
O943 Li883 1.956 . S
O943 C918 1.325 . S
H944 C886 0.929 . S
H945 C887 0.930 . S
H946 C888 0.930 . S
H947 C889 0.930 . S
H948 C891 0.930 . S
H949 C893 0.929 . S
H950 C894 0.930 . S
H951 C895 0.930 . S
H952 C898 0.930 . S
H953 C901 0.929 . S
H954 C906 0.929 . S
H955 C907 0.930 . S
H956 C914 0.929 . S
H957 C915 0.930 . S
H958 C916 0.930 . S
H959 C917 0.930 . S
H960 C919 0.929 . S
H961 C920 0.930 . S
H962 C921 0.930 . S
H963 C922 0.930 . S
H964 C926 0.929 . S
H965 C928 0.930 . S
H966 C934 0.929 . S
H967 C935 0.930 . S
Li968 N985 1.990 . S
Li968 O1028 1.956 . S
Li968 O1029 1.970 . S
Li968 O1030 1.961 . S
Li969 N993 1.990 . S
Li969 O1028 1.970 . S
Li969 O1029 1.956 . S
Li969 O1031 1.961 . S
Li970 N1015 1.990 . S
Li970 O1028 1.961 . S
Li970 O1030 1.956 . S
Li970 O1031 1.970 . S
Li971 N1021 1.990 . S
Li971 O1029 1.961 . S
Li971 O1030 1.970 . S
Li971 O1031 1.956 . S
C972 C974 1.348 . S
C972 C975 1.356 . S
C972 O1028 1.325 . S
N973 C976 1.314 . S
N973 C977 1.279 . S
C974 C972 1.348 . S
C974 C976 1.353 . S
C974 H1032 0.929 . S
C975 C972 1.356 . S
C975 C977 1.358 . S
C975 H1033 0.930 . S
C976 N973 1.314 . S
C976 C974 1.353 . S
C976 H1034 0.930 . S
C977 N973 1.279 . S
C977 C975 1.358 . S
C977 H1035 0.930 . S
C978 C981 1.348 . S
C978 C982 1.356 . S
C978 O1029 1.325 . S
C979 N980 1.279 . S
C979 C982 1.358 . S
C979 H1036 0.930 . S
N980 C979 1.279 . S
N980 C983 1.314 . S
C981 C978 1.348 . S
C981 C983 1.353 . S
C981 H1037 0.929 . S
C982 C978 1.356 . S
C982 C979 1.358 . S
C982 H1038 0.930 . S
C983 N980 1.314 . S
C983 C981 1.353 . S
C983 H1039 0.930 . S
C984 N985 1.314 . S
C984 C989 1.353 . S
C984 H990 0.930 . S
N985 Li968 1.990 . S
N985 C984 1.314 . S
N985 C987 1.279 . S
C986 C987 1.358 . S
C986 C988 1.356 . S
C986 H1040 0.930 . S
C987 N985 1.279 . S
C987 C986 1.358 . S
C987 H991 0.930 . S
C988 C986 1.356 . S
C988 C989 1.348 . S
C989 C984 1.353 . S
C989 C988 1.348 . S
C989 H1041 0.929 . S
H990 C984 0.930 . S
H991 C987 0.930 . S
C992 N993 1.314 . S
C992 C994 1.353 . S
C992 H998 0.930 . S
N993 Li969 1.990 . S
N993 C992 1.314 . S
N993 C996 1.279 . S
C994 C992 1.353 . S
C994 C997 1.348 . S
C994 H1042 0.929 . S
C995 C996 1.358 . S
C995 C997 1.356 . S
C995 H1043 0.930 . S
C996 N993 1.279 . S
C996 C995 1.358 . S
C996 H999 0.930 . S
C997 C994 1.348 . S
C997 C995 1.356 . S
H998 C992 0.930 . S
H999 C996 0.930 . S
C1000 C1002 1.348 . S
C1000 C1003 1.356 . S
C1000 O1030 1.325 . S
N1001 C1004 1.314 . S
N1001 C1005 1.279 . S
C1002 C1000 1.348 . S
C1002 C1004 1.353 . S
C1002 H1044 0.929 . S
C1003 C1000 1.356 . S
C1003 C1005 1.358 . S
C1003 H1045 0.930 . S
C1004 N1001 1.314 . S
C1004 C1002 1.353 . S
C1004 H1046 0.930 . S
C1005 N1001 1.279 . S
C1005 C1003 1.358 . S
C1005 H1047 0.930 . S
C1006 C1007 1.348 . S
C1006 C1008 1.356 . S
C1006 O1031 1.325 . S
C1007 C1006 1.348 . S
C1007 C1009 1.353 . S
C1007 H1048 0.929 . S
C1008 C1006 1.356 . S
C1008 C1010 1.358 . S
C1008 H1049 0.930 . S
C1009 C1007 1.353 . S
C1009 N1011 1.314 . S
C1009 H1050 0.930 . S
C1010 C1008 1.358 . S
C1010 N1011 1.279 . S
C1010 H1051 0.930 . S
N1011 C1009 1.314 . S
N1011 C1010 1.279 . S
C1012 C1014 1.353 . S
C1012 N1015 1.314 . S
C1012 H1018 0.930 . S
C1013 N1015 1.279 . S
C1013 C1016 1.358 . S
C1013 H1019 0.930 . S
C1014 C1012 1.353 . S
C1014 C1017 1.348 . S
C1014 H1052 0.929 . S
N1015 Li970 1.990 . S
N1015 C1012 1.314 . S
N1015 C1013 1.279 . S
C1016 C1013 1.358 . S
C1016 C1017 1.356 . S
C1016 H1053 0.930 . S
C1017 C1014 1.348 . S
C1017 C1016 1.356 . S
H1018 C1012 0.930 . S
H1019 C1013 0.930 . S
C1020 N1021 1.314 . S
C1020 C1022 1.353 . S
C1020 H1026 0.930 . S
N1021 Li971 1.990 . S
N1021 C1020 1.314 . S
N1021 C1024 1.279 . S
C1022 C1020 1.353 . S
C1022 C1025 1.348 . S
C1022 H1054 0.929 . S
C1023 C1024 1.358 . S
C1023 C1025 1.356 . S
C1023 H1055 0.930 . S
C1024 N1021 1.279 . S
C1024 C1023 1.358 . S
C1024 H1027 0.930 . S
C1025 C1022 1.348 . S
C1025 C1023 1.356 . S
H1026 C1020 0.930 . S
H1027 C1024 0.930 . S
O1028 Li968 1.956 . S
O1028 Li969 1.970 . S
O1028 Li970 1.961 . S
O1028 C972 1.325 . S
O1029 Li968 1.970 . S
O1029 Li969 1.956 . S
O1029 Li971 1.961 . S
O1029 C978 1.325 . S
O1030 Li968 1.961 . S
O1030 Li970 1.956 . S
O1030 Li971 1.970 . S
O1030 C1000 1.325 . S
O1031 Li969 1.961 . S
O1031 Li970 1.970 . S
O1031 Li971 1.956 . S
O1031 C1006 1.325 . S
H1032 C974 0.929 . S
H1033 C975 0.930 . S
H1034 C976 0.930 . S
H1035 C977 0.930 . S
H1036 C979 0.930 . S
H1037 C981 0.929 . S
H1038 C982 0.930 . S
H1039 C983 0.930 . S
H1040 C986 0.930 . S
H1041 C989 0.929 . S
H1042 C994 0.929 . S
H1043 C995 0.930 . S
H1044 C1002 0.929 . S
H1045 C1003 0.930 . S
H1046 C1004 0.930 . S
H1047 C1005 0.930 . S
H1048 C1007 0.929 . S
H1049 C1008 0.930 . S
H1050 C1009 0.930 . S
H1051 C1010 0.930 . S
H1052 C1014 0.929 . S
H1053 C1016 0.930 . S
H1054 C1022 0.929 . S
H1055 C1023 0.930 . S
Li1056 N1073 1.990 . S
Li1056 O1116 1.956 . S
Li1056 O1117 1.970 . S
Li1056 O1118 1.961 . S
Li1057 N1081 1.990 . S
Li1057 O1116 1.970 . S
Li1057 O1117 1.956 . S
Li1057 O1119 1.961 . S
Li1058 N1103 1.990 . S
Li1058 O1116 1.961 . S
Li1058 O1118 1.956 . S
Li1058 O1119 1.970 . S
Li1059 N1109 1.990 . S
Li1059 O1117 1.961 . S
Li1059 O1118 1.970 . S
Li1059 O1119 1.956 . S
C1060 C1062 1.348 . S
C1060 C1063 1.356 . S
C1060 O1116 1.325 . S
N1061 C1064 1.314 . S
N1061 C1065 1.279 . S
C1062 C1060 1.348 . S
C1062 C1064 1.353 . S
C1062 H1120 0.929 . S
C1063 C1060 1.356 . S
C1063 C1065 1.358 . S
C1063 H1121 0.930 . S
C1064 N1061 1.314 . S
C1064 C1062 1.353 . S
C1064 H1122 0.930 . S
C1065 N1061 1.279 . S
C1065 C1063 1.358 . S
C1065 H1123 0.930 . S
C1066 C1069 1.348 . S
C1066 C1070 1.356 . S
C1066 O1117 1.325 . S
C1067 N1068 1.279 . S
C1067 C1070 1.358 . S
C1067 H1124 0.930 . S
N1068 C1067 1.279 . S
N1068 C1071 1.314 . S
C1069 C1066 1.348 . S
C1069 C1071 1.353 . S
C1069 H1125 0.929 . S
C1070 C1066 1.356 . S
C1070 C1067 1.358 . S
C1070 H1126 0.930 . S
C1071 N1068 1.314 . S
C1071 C1069 1.353 . S
C1071 H1127 0.930 . S
C1072 N1073 1.314 . S
C1072 C1077 1.353 . S
C1072 H1078 0.930 . S
N1073 Li1056 1.990 . S
N1073 C1072 1.314 . S
N1073 C1075 1.279 . S
C1074 C1075 1.358 . S
C1074 C1076 1.356 . S
C1074 H1128 0.930 . S
C1075 N1073 1.279 . S
C1075 C1074 1.358 . S
C1075 H1079 0.930 . S
C1076 C1074 1.356 . S
C1076 C1077 1.348 . S
C1077 C1072 1.353 . S
C1077 C1076 1.348 . S
C1077 H1129 0.929 . S
H1078 C1072 0.930 . S
H1079 C1075 0.930 . S
C1080 N1081 1.314 . S
C1080 C1082 1.353 . S
C1080 H1086 0.930 . S
N1081 Li1057 1.990 . S
N1081 C1080 1.314 . S
N1081 C1084 1.279 . S
C1082 C1080 1.353 . S
C1082 C1085 1.348 . S
C1082 H1130 0.929 . S
C1083 C1084 1.358 . S
C1083 C1085 1.356 . S
C1083 H1131 0.930 . S
C1084 N1081 1.279 . S
C1084 C1083 1.358 . S
C1084 H1087 0.930 . S
C1085 C1082 1.348 . S
C1085 C1083 1.356 . S
H1086 C1080 0.930 . S
H1087 C1084 0.930 . S
C1088 C1090 1.348 . S
C1088 C1091 1.356 . S
C1088 O1118 1.325 . S
N1089 C1092 1.314 . S
N1089 C1093 1.279 . S
C1090 C1088 1.348 . S
C1090 C1092 1.353 . S
C1090 H1132 0.929 . S
C1091 C1088 1.356 . S
C1091 C1093 1.358 . S
C1091 H1133 0.930 . S
C1092 N1089 1.314 . S
C1092 C1090 1.353 . S
C1092 H1134 0.930 . S
C1093 N1089 1.279 . S
C1093 C1091 1.358 . S
C1093 H1135 0.930 . S
C1094 C1095 1.348 . S
C1094 C1096 1.356 . S
C1094 O1119 1.325 . S
C1095 C1094 1.348 . S
C1095 C1097 1.353 . S
C1095 H1136 0.929 . S
C1096 C1094 1.356 . S
C1096 C1098 1.358 . S
C1096 H1137 0.930 . S
C1097 C1095 1.353 . S
C1097 N1099 1.314 . S
C1097 H1138 0.930 . S
C1098 C1096 1.358 . S
C1098 N1099 1.279 . S
C1098 H1139 0.930 . S
N1099 C1097 1.314 . S
N1099 C1098 1.279 . S
C1100 C1102 1.353 . S
C1100 N1103 1.314 . S
C1100 H1106 0.930 . S
C1101 N1103 1.279 . S
C1101 C1104 1.358 . S
C1101 H1107 0.930 . S
C1102 C1100 1.353 . S
C1102 C1105 1.348 . S
C1102 H1140 0.929 . S
N1103 Li1058 1.990 . S
N1103 C1100 1.314 . S
N1103 C1101 1.279 . S
C1104 C1101 1.358 . S
C1104 C1105 1.356 . S
C1104 H1141 0.930 . S
C1105 C1102 1.348 . S
C1105 C1104 1.356 . S
H1106 C1100 0.930 . S
H1107 C1101 0.930 . S
C1108 N1109 1.314 . S
C1108 C1110 1.353 . S
C1108 H1114 0.930 . S
N1109 Li1059 1.990 . S
N1109 C1108 1.314 . S
N1109 C1112 1.279 . S
C1110 C1108 1.353 . S
C1110 C1113 1.348 . S
C1110 H1142 0.929 . S
C1111 C1112 1.358 . S
C1111 C1113 1.356 . S
C1111 H1143 0.930 . S
C1112 N1109 1.279 . S
C1112 C1111 1.358 . S
C1112 H1115 0.930 . S
C1113 C1110 1.348 . S
C1113 C1111 1.356 . S
H1114 C1108 0.930 . S
H1115 C1112 0.930 . S
O1116 Li1056 1.956 . S
O1116 Li1057 1.970 . S
O1116 Li1058 1.961 . S
O1116 C1060 1.325 . S
O1117 Li1056 1.970 . S
O1117 Li1057 1.956 . S
O1117 Li1059 1.961 . S
O1117 C1066 1.325 . S
O1118 Li1056 1.961 . S
O1118 Li1058 1.956 . S
O1118 Li1059 1.970 . S
O1118 C1088 1.325 . S
O1119 Li1057 1.961 . S
O1119 Li1058 1.970 . S
O1119 Li1059 1.956 . S
O1119 C1094 1.325 . S
H1120 C1062 0.929 . S
H1121 C1063 0.930 . S
H1122 C1064 0.930 . S
H1123 C1065 0.930 . S
H1124 C1067 0.930 . S
H1125 C1069 0.929 . S
H1126 C1070 0.930 . S
H1127 C1071 0.930 . S
H1128 C1074 0.930 . S
H1129 C1077 0.929 . S
H1130 C1082 0.929 . S
H1131 C1083 0.930 . S
H1132 C1090 0.929 . S
H1133 C1091 0.930 . S
H1134 C1092 0.930 . S
H1135 C1093 0.930 . S
H1136 C1095 0.929 . S
H1137 C1096 0.930 . S
H1138 C1097 0.930 . S
H1139 C1098 0.930 . S
H1140 C1102 0.929 . S
H1141 C1104 0.930 . S
H1142 C1110 0.929 . S
H1143 C1111 0.930 . S
Li1144 N1161 1.990 . S
Li1144 O1204 1.956 . S
Li1144 O1205 1.970 . S
Li1144 O1206 1.961 . S
Li1145 N1169 1.990 . S
Li1145 O1204 1.970 . S
Li1145 O1205 1.956 . S
Li1145 O1207 1.961 . S
Li1146 N1191 1.990 . S
Li1146 O1204 1.961 . S
Li1146 O1206 1.956 . S
Li1146 O1207 1.970 . S
Li1147 N1197 1.990 . S
Li1147 O1205 1.961 . S
Li1147 O1206 1.970 . S
Li1147 O1207 1.956 . S
C1148 C1150 1.348 . S
C1148 C1151 1.356 . S
C1148 O1204 1.325 . S
N1149 C1152 1.314 . S
N1149 C1153 1.279 . S
C1150 C1148 1.348 . S
C1150 C1152 1.353 . S
C1150 H1208 0.929 . S
C1151 C1148 1.356 . S
C1151 C1153 1.358 . S
C1151 H1209 0.930 . S
C1152 N1149 1.314 . S
C1152 C1150 1.353 . S
C1152 H1210 0.930 . S
C1153 N1149 1.279 . S
C1153 C1151 1.358 . S
C1153 H1211 0.930 . S
C1154 C1157 1.348 . S
C1154 C1158 1.356 . S
C1154 O1205 1.325 . S
C1155 N1156 1.279 . S
C1155 C1158 1.358 . S
C1155 H1212 0.930 . S
N1156 C1155 1.279 . S
N1156 C1159 1.314 . S
C1157 C1154 1.348 . S
C1157 C1159 1.353 . S
C1157 H1213 0.929 . S
C1158 C1154 1.356 . S
C1158 C1155 1.358 . S
C1158 H1214 0.930 . S
C1159 N1156 1.314 . S
C1159 C1157 1.353 . S
C1159 H1215 0.930 . S
C1160 N1161 1.314 . S
C1160 C1165 1.353 . S
C1160 H1166 0.930 . S
N1161 Li1144 1.990 . S
N1161 C1160 1.314 . S
N1161 C1163 1.279 . S
C1162 C1163 1.358 . S
C1162 C1164 1.356 . S
C1162 H1216 0.930 . S
C1163 N1161 1.279 . S
C1163 C1162 1.358 . S
C1163 H1167 0.930 . S
C1164 C1162 1.356 . S
C1164 C1165 1.348 . S
C1165 C1160 1.353 . S
C1165 C1164 1.348 . S
C1165 H1217 0.929 . S
H1166 C1160 0.930 . S
H1167 C1163 0.930 . S
C1168 N1169 1.314 . S
C1168 C1170 1.353 . S
C1168 H1174 0.930 . S
N1169 Li1145 1.990 . S
N1169 C1168 1.314 . S
N1169 C1172 1.279 . S
C1170 C1168 1.353 . S
C1170 C1173 1.348 . S
C1170 H1218 0.929 . S
C1171 C1172 1.358 . S
C1171 C1173 1.356 . S
C1171 H1219 0.930 . S
C1172 N1169 1.279 . S
C1172 C1171 1.358 . S
C1172 H1175 0.930 . S
C1173 C1170 1.348 . S
C1173 C1171 1.356 . S
H1174 C1168 0.930 . S
H1175 C1172 0.930 . S
C1176 C1178 1.348 . S
C1176 C1179 1.356 . S
C1176 O1206 1.325 . S
N1177 C1180 1.314 . S
N1177 C1181 1.279 . S
C1178 C1176 1.348 . S
C1178 C1180 1.353 . S
C1178 H1220 0.929 . S
C1179 C1176 1.356 . S
C1179 C1181 1.358 . S
C1179 H1221 0.930 . S
C1180 N1177 1.314 . S
C1180 C1178 1.353 . S
C1180 H1222 0.930 . S
C1181 N1177 1.279 . S
C1181 C1179 1.358 . S
C1181 H1223 0.930 . S
C1182 C1183 1.348 . S
C1182 C1184 1.356 . S
C1182 O1207 1.325 . S
C1183 C1182 1.348 . S
C1183 C1185 1.353 . S
C1183 H1224 0.929 . S
C1184 C1182 1.356 . S
C1184 C1186 1.358 . S
C1184 H1225 0.930 . S
C1185 C1183 1.353 . S
C1185 N1187 1.314 . S
C1185 H1226 0.930 . S
C1186 C1184 1.358 . S
C1186 N1187 1.279 . S
C1186 H1227 0.930 . S
N1187 C1185 1.314 . S
N1187 C1186 1.279 . S
C1188 C1190 1.353 . S
C1188 N1191 1.314 . S
C1188 H1194 0.930 . S
C1189 N1191 1.279 . S
C1189 C1192 1.358 . S
C1189 H1195 0.930 . S
C1190 C1188 1.353 . S
C1190 C1193 1.348 . S
C1190 H1228 0.929 . S
N1191 Li1146 1.990 . S
N1191 C1188 1.314 . S
N1191 C1189 1.279 . S
C1192 C1189 1.358 . S
C1192 C1193 1.356 . S
C1192 H1229 0.930 . S
C1193 C1190 1.348 . S
C1193 C1192 1.356 . S
H1194 C1188 0.930 . S
H1195 C1189 0.930 . S
C1196 N1197 1.314 . S
C1196 C1198 1.353 . S
C1196 H1202 0.930 . S
N1197 Li1147 1.990 . S
N1197 C1196 1.314 . S
N1197 C1200 1.279 . S
C1198 C1196 1.353 . S
C1198 C1201 1.348 . S
C1198 H1230 0.929 . S
C1199 C1200 1.358 . S
C1199 C1201 1.356 . S
C1199 H1231 0.930 . S
C1200 N1197 1.279 . S
C1200 C1199 1.358 . S
C1200 H1203 0.930 . S
C1201 C1198 1.348 . S
C1201 C1199 1.356 . S
H1202 C1196 0.930 . S
H1203 C1200 0.930 . S
O1204 Li1144 1.956 . S
O1204 Li1145 1.970 . S
O1204 Li1146 1.961 . S
O1204 C1148 1.325 . S
O1205 Li1144 1.970 . S
O1205 Li1145 1.956 . S
O1205 Li1147 1.961 . S
O1205 C1154 1.325 . S
O1206 Li1144 1.961 . S
O1206 Li1146 1.956 . S
O1206 Li1147 1.970 . S
O1206 C1176 1.325 . S
O1207 Li1145 1.961 . S
O1207 Li1146 1.970 . S
O1207 Li1147 1.956 . S
O1207 C1182 1.325 . S
H1208 C1150 0.929 . S
H1209 C1151 0.930 . S
H1210 C1152 0.930 . S
H1211 C1153 0.930 . S
H1212 C1155 0.930 . S
H1213 C1157 0.929 . S
H1214 C1158 0.930 . S
H1215 C1159 0.930 . S
H1216 C1162 0.930 . S
H1217 C1165 0.929 . S
H1218 C1170 0.929 . S
H1219 C1171 0.930 . S
H1220 C1178 0.929 . S
H1221 C1179 0.930 . S
H1222 C1180 0.930 . S
H1223 C1181 0.930 . S
H1224 C1183 0.929 . S
H1225 C1184 0.930 . S
H1226 C1185 0.930 . S
H1227 C1186 0.930 . S
H1228 C1190 0.929 . S
H1229 C1192 0.930 . S
H1230 C1198 0.929 . S
H1231 C1199 0.930 . S
Li1232 N1249 1.990 . S
Li1232 O1292 1.956 . S
Li1232 O1293 1.970 . S
Li1232 O1294 1.961 . S
Li1233 N1257 1.990 . S
Li1233 O1292 1.970 . S
Li1233 O1293 1.956 . S
Li1233 O1295 1.961 . S
Li1234 N1279 1.990 . S
Li1234 O1292 1.961 . S
Li1234 O1294 1.956 . S
Li1234 O1295 1.970 . S
Li1235 N1285 1.990 . S
Li1235 O1293 1.961 . S
Li1235 O1294 1.970 . S
Li1235 O1295 1.956 . S
C1236 C1238 1.348 . S
C1236 C1239 1.356 . S
C1236 O1292 1.325 . S
N1237 C1240 1.314 . S
N1237 C1241 1.279 . S
C1238 C1236 1.348 . S
C1238 C1240 1.353 . S
C1238 H1296 0.929 . S
C1239 C1236 1.356 . S
C1239 C1241 1.358 . S
C1239 H1297 0.930 . S
C1240 N1237 1.314 . S
C1240 C1238 1.353 . S
C1240 H1298 0.930 . S
C1241 N1237 1.279 . S
C1241 C1239 1.358 . S
C1241 H1299 0.930 . S
C1242 C1245 1.348 . S
C1242 C1246 1.356 . S
C1242 O1293 1.325 . S
C1243 N1244 1.279 . S
C1243 C1246 1.358 . S
C1243 H1300 0.930 . S
N1244 C1243 1.279 . S
N1244 C1247 1.314 . S
C1245 C1242 1.348 . S
C1245 C1247 1.353 . S
C1245 H1301 0.929 . S
C1246 C1242 1.356 . S
C1246 C1243 1.358 . S
C1246 H1302 0.930 . S
C1247 N1244 1.314 . S
C1247 C1245 1.353 . S
C1247 H1303 0.930 . S
C1248 N1249 1.314 . S
C1248 C1253 1.353 . S
C1248 H1254 0.930 . S
N1249 Li1232 1.990 . S
N1249 C1248 1.314 . S
N1249 C1251 1.279 . S
C1250 C1251 1.358 . S
C1250 C1252 1.356 . S
C1250 H1304 0.930 . S
C1251 N1249 1.279 . S
C1251 C1250 1.358 . S
C1251 H1255 0.930 . S
C1252 C1250 1.356 . S
C1252 C1253 1.348 . S
C1253 C1248 1.353 . S
C1253 C1252 1.348 . S
C1253 H1305 0.929 . S
H1254 C1248 0.930 . S
H1255 C1251 0.930 . S
C1256 N1257 1.314 . S
C1256 C1258 1.353 . S
C1256 H1262 0.930 . S
N1257 Li1233 1.990 . S
N1257 C1256 1.314 . S
N1257 C1260 1.279 . S
C1258 C1256 1.353 . S
C1258 C1261 1.348 . S
C1258 H1306 0.929 . S
C1259 C1260 1.358 . S
C1259 C1261 1.356 . S
C1259 H1307 0.930 . S
C1260 N1257 1.279 . S
C1260 C1259 1.358 . S
C1260 H1263 0.930 . S
C1261 C1258 1.348 . S
C1261 C1259 1.356 . S
H1262 C1256 0.930 . S
H1263 C1260 0.930 . S
C1264 C1266 1.348 . S
C1264 C1267 1.356 . S
C1264 O1294 1.325 . S
N1265 C1268 1.314 . S
N1265 C1269 1.279 . S
C1266 C1264 1.348 . S
C1266 C1268 1.353 . S
C1266 H1308 0.929 . S
C1267 C1264 1.356 . S
C1267 C1269 1.358 . S
C1267 H1309 0.930 . S
C1268 N1265 1.314 . S
C1268 C1266 1.353 . S
C1268 H1310 0.930 . S
C1269 N1265 1.279 . S
C1269 C1267 1.358 . S
C1269 H1311 0.930 . S
C1270 C1271 1.348 . S
C1270 C1272 1.356 . S
C1270 O1295 1.325 . S
C1271 C1270 1.348 . S
C1271 C1273 1.353 . S
C1271 H1312 0.929 . S
C1272 C1270 1.356 . S
C1272 C1274 1.358 . S
C1272 H1313 0.930 . S
C1273 C1271 1.353 . S
C1273 N1275 1.314 . S
C1273 H1314 0.930 . S
C1274 C1272 1.358 . S
C1274 N1275 1.279 . S
C1274 H1315 0.930 . S
N1275 C1273 1.314 . S
N1275 C1274 1.279 . S
C1276 C1278 1.353 . S
C1276 N1279 1.314 . S
C1276 H1282 0.930 . S
C1277 N1279 1.279 . S
C1277 C1280 1.358 . S
C1277 H1283 0.930 . S
C1278 C1276 1.353 . S
C1278 C1281 1.348 . S
C1278 H1316 0.929 . S
N1279 Li1234 1.990 . S
N1279 C1276 1.314 . S
N1279 C1277 1.279 . S
C1280 C1277 1.358 . S
C1280 C1281 1.356 . S
C1280 H1317 0.930 . S
C1281 C1278 1.348 . S
C1281 C1280 1.356 . S
H1282 C1276 0.930 . S
H1283 C1277 0.930 . S
C1284 N1285 1.314 . S
C1284 C1286 1.353 . S
C1284 H1290 0.930 . S
N1285 Li1235 1.990 . S
N1285 C1284 1.314 . S
N1285 C1288 1.279 . S
C1286 C1284 1.353 . S
C1286 C1289 1.348 . S
C1286 H1318 0.929 . S
C1287 C1288 1.358 . S
C1287 C1289 1.356 . S
C1287 H1319 0.930 . S
C1288 N1285 1.279 . S
C1288 C1287 1.358 . S
C1288 H1291 0.930 . S
C1289 C1286 1.348 . S
C1289 C1287 1.356 . S
H1290 C1284 0.930 . S
H1291 C1288 0.930 . S
O1292 Li1232 1.956 . S
O1292 Li1233 1.970 . S
O1292 Li1234 1.961 . S
O1292 C1236 1.325 . S
O1293 Li1232 1.970 . S
O1293 Li1233 1.956 . S
O1293 Li1235 1.961 . S
O1293 C1242 1.325 . S
O1294 Li1232 1.961 . S
O1294 Li1234 1.956 . S
O1294 Li1235 1.970 . S
O1294 C1264 1.325 . S
O1295 Li1233 1.961 . S
O1295 Li1234 1.970 . S
O1295 Li1235 1.956 . S
O1295 C1270 1.325 . S
H1296 C1238 0.929 . S
H1297 C1239 0.930 . S
H1298 C1240 0.930 . S
H1299 C1241 0.930 . S
H1300 C1243 0.930 . S
H1301 C1245 0.929 . S
H1302 C1246 0.930 . S
H1303 C1247 0.930 . S
H1304 C1250 0.930 . S
H1305 C1253 0.929 . S
H1306 C1258 0.929 . S
H1307 C1259 0.930 . S
H1308 C1266 0.929 . S
H1309 C1267 0.930 . S
H1310 C1268 0.930 . S
H1311 C1269 0.930 . S
H1312 C1271 0.929 . S
H1313 C1272 0.930 . S
H1314 C1273 0.930 . S
H1315 C1274 0.930 . S
H1316 C1278 0.929 . S
H1317 C1280 0.930 . S
H1318 C1286 0.929 . S
H1319 C1287 0.930 . S
Li1320 N1337 1.990 . S
Li1320 O1380 1.956 . S
Li1320 O1381 1.970 . S
Li1320 O1382 1.961 . S
Li1321 N1345 1.990 . S
Li1321 O1380 1.970 . S
Li1321 O1381 1.956 . S
Li1321 O1383 1.961 . S
Li1322 N1367 1.990 . S
Li1322 O1380 1.961 . S
Li1322 O1382 1.956 . S
Li1322 O1383 1.970 . S
Li1323 N1373 1.990 . S
Li1323 O1381 1.961 . S
Li1323 O1382 1.970 . S
Li1323 O1383 1.956 . S
C1324 C1326 1.348 . S
C1324 C1327 1.356 . S
C1324 O1380 1.325 . S
N1325 C1328 1.314 . S
N1325 C1329 1.279 . S
C1326 C1324 1.348 . S
C1326 C1328 1.353 . S
C1326 H1384 0.929 . S
C1327 C1324 1.356 . S
C1327 C1329 1.358 . S
C1327 H1385 0.930 . S
C1328 N1325 1.314 . S
C1328 C1326 1.353 . S
C1328 H1386 0.930 . S
C1329 N1325 1.279 . S
C1329 C1327 1.358 . S
C1329 H1387 0.930 . S
C1330 C1333 1.348 . S
C1330 C1334 1.356 . S
C1330 O1381 1.325 . S
C1331 N1332 1.279 . S
C1331 C1334 1.358 . S
C1331 H1388 0.930 . S
N1332 C1331 1.279 . S
N1332 C1335 1.314 . S
C1333 C1330 1.348 . S
C1333 C1335 1.353 . S
C1333 H1389 0.929 . S
C1334 C1330 1.356 . S
C1334 C1331 1.358 . S
C1334 H1390 0.930 . S
C1335 N1332 1.314 . S
C1335 C1333 1.353 . S
C1335 H1391 0.930 . S
C1336 N1337 1.314 . S
C1336 C1341 1.353 . S
C1336 H1342 0.930 . S
N1337 Li1320 1.990 . S
N1337 C1336 1.314 . S
N1337 C1339 1.279 . S
C1338 C1339 1.358 . S
C1338 C1340 1.356 . S
C1338 H1392 0.930 . S
C1339 N1337 1.279 . S
C1339 C1338 1.358 . S
C1339 H1343 0.930 . S
C1340 C1338 1.356 . S
C1340 C1341 1.348 . S
C1341 C1336 1.353 . S
C1341 C1340 1.348 . S
C1341 H1393 0.929 . S
H1342 C1336 0.930 . S
H1343 C1339 0.930 . S
C1344 N1345 1.314 . S
C1344 C1346 1.353 . S
C1344 H1350 0.930 . S
N1345 Li1321 1.990 . S
N1345 C1344 1.314 . S
N1345 C1348 1.279 . S
C1346 C1344 1.353 . S
C1346 C1349 1.348 . S
C1346 H1394 0.929 . S
C1347 C1348 1.358 . S
C1347 C1349 1.356 . S
C1347 H1395 0.930 . S
C1348 N1345 1.279 . S
C1348 C1347 1.358 . S
C1348 H1351 0.930 . S
C1349 C1346 1.348 . S
C1349 C1347 1.356 . S
H1350 C1344 0.930 . S
H1351 C1348 0.930 . S
C1352 C1354 1.348 . S
C1352 C1355 1.356 . S
C1352 O1382 1.325 . S
N1353 C1356 1.314 . S
N1353 C1357 1.279 . S
C1354 C1352 1.348 . S
C1354 C1356 1.353 . S
C1354 H1396 0.929 . S
C1355 C1352 1.356 . S
C1355 C1357 1.358 . S
C1355 H1397 0.930 . S
C1356 N1353 1.314 . S
C1356 C1354 1.353 . S
C1356 H1398 0.930 . S
C1357 N1353 1.279 . S
C1357 C1355 1.358 . S
C1357 H1399 0.930 . S
C1358 C1359 1.348 . S
C1358 C1360 1.356 . S
C1358 O1383 1.325 . S
C1359 C1358 1.348 . S
C1359 C1361 1.353 . S
C1359 H1400 0.929 . S
C1360 C1358 1.356 . S
C1360 C1362 1.358 . S
C1360 H1401 0.930 . S
C1361 C1359 1.353 . S
C1361 N1363 1.314 . S
C1361 H1402 0.930 . S
C1362 C1360 1.358 . S
C1362 N1363 1.279 . S
C1362 H1403 0.930 . S
N1363 C1361 1.314 . S
N1363 C1362 1.279 . S
C1364 C1366 1.353 . S
C1364 N1367 1.314 . S
C1364 H1370 0.930 . S
C1365 N1367 1.279 . S
C1365 C1368 1.358 . S
C1365 H1371 0.930 . S
C1366 C1364 1.353 . S
C1366 C1369 1.348 . S
C1366 H1404 0.929 . S
N1367 Li1322 1.990 . S
N1367 C1364 1.314 . S
N1367 C1365 1.279 . S
C1368 C1365 1.358 . S
C1368 C1369 1.356 . S
C1368 H1405 0.930 . S
C1369 C1366 1.348 . S
C1369 C1368 1.356 . S
H1370 C1364 0.930 . S
H1371 C1365 0.930 . S
C1372 N1373 1.314 . S
C1372 C1374 1.353 . S
C1372 H1378 0.930 . S
N1373 Li1323 1.990 . S
N1373 C1372 1.314 . S
N1373 C1376 1.279 . S
C1374 C1372 1.353 . S
C1374 C1377 1.348 . S
C1374 H1406 0.929 . S
C1375 C1376 1.358 . S
C1375 C1377 1.356 . S
C1375 H1407 0.930 . S
C1376 N1373 1.279 . S
C1376 C1375 1.358 . S
C1376 H1379 0.930 . S
C1377 C1374 1.348 . S
C1377 C1375 1.356 . S
H1378 C1372 0.930 . S
H1379 C1376 0.930 . S
O1380 Li1320 1.956 . S
O1380 Li1321 1.970 . S
O1380 Li1322 1.961 . S
O1380 C1324 1.325 . S
O1381 Li1320 1.970 . S
O1381 Li1321 1.956 . S
O1381 Li1323 1.961 . S
O1381 C1330 1.325 . S
O1382 Li1320 1.961 . S
O1382 Li1322 1.956 . S
O1382 Li1323 1.970 . S
O1382 C1352 1.325 . S
O1383 Li1321 1.961 . S
O1383 Li1322 1.970 . S
O1383 Li1323 1.956 . S
O1383 C1358 1.325 . S
H1384 C1326 0.929 . S
H1385 C1327 0.930 . S
H1386 C1328 0.930 . S
H1387 C1329 0.930 . S
H1388 C1331 0.930 . S
H1389 C1333 0.929 . S
H1390 C1334 0.930 . S
H1391 C1335 0.930 . S
H1392 C1338 0.930 . S
H1393 C1341 0.929 . S
H1394 C1346 0.929 . S
H1395 C1347 0.930 . S
H1396 C1354 0.929 . S
H1397 C1355 0.930 . S
H1398 C1356 0.930 . S
H1399 C1357 0.930 . S
H1400 C1359 0.929 . S
H1401 C1360 0.930 . S
H1402 C1361 0.930 . S
H1403 C1362 0.930 . S
H1404 C1366 0.929 . S
H1405 C1368 0.930 . S
H1406 C1374 0.929 . S
H1407 C1375 0.930 . S
H1408 C1426 0.951 . S
H1409 C1428 0.951 . S
H1410 C1430 0.950 . S
H1411 C1431 0.950 . S
H1412 C1433 0.950 . S
H1413 C1436 0.950 . S
H1414 C1437 0.950 . S
H1415 C1439 0.950 . S
H1416 C1440 0.950 . S
H1417 C1441 0.951 . S
H1418 C1443 0.951 . S
H1419 C1445 0.950 . S
H1420 C1446 0.950 . S
H1421 C1448 0.950 . S
H1422 C1451 0.950 . S
H1423 C1452 0.950 . S
H1424 C1454 0.950 . S
H1425 C1455 0.950 . S
C1426 H1408 0.951 . S
C1426 C1427 1.366 . S
C1426 C1428 1.388 . S
C1427 C1426 1.366 . S
C1427 C1431 1.385 . S
C1428 H1409 0.951 . S
C1428 C1426 1.388 . S
C1428 C1429 1.366 . S
C1429 C1428 1.366 . S
C1429 C1430 1.414 . S
C1429 C1432 1.499 . S
C1430 H1410 0.950 . S
C1430 C1429 1.414 . S
C1430 C1431 1.374 . S
C1431 H1411 0.950 . S
C1431 C1427 1.385 . S
C1431 C1430 1.374 . S
C1432 C1429 1.499 . S
C1432 C1433 1.373 . S
C1432 C1434 1.389 . S
C1433 H1412 0.950 . S
C1433 C1432 1.373 . S
C1433 C1449 1.377 . S
C1434 C1432 1.389 . S
C1434 C1435 1.524 . S
C1434 C1448 1.377 . S
C1435 C1434 1.524 . S
C1435 C1436 1.397 . S
C1435 C1440 1.363 . S
C1436 H1413 0.950 . S
C1436 C1435 1.397 . S
C1436 C1437 1.334 . S
C1437 H1414 0.950 . S
C1437 C1436 1.334 . S
C1437 C1438 1.287 . S
C1438 C1437 1.287 . S
C1438 C1439 1.524 . S
C1438 H1457 0.913 . S
C1439 H1415 0.950 . S
C1439 C1438 1.524 . S
C1439 C1440 1.415 . S
C1440 H1416 0.950 . S
C1440 C1435 1.363 . S
C1440 C1439 1.415 . S
C1441 H1417 0.951 . S
C1441 C1442 1.366 . S
C1441 C1443 1.388 . S
C1442 C1441 1.366 . S
C1442 C1446 1.385 . S
C1443 H1418 0.951 . S
C1443 C1441 1.388 . S
C1443 C1444 1.366 . S
C1444 C1443 1.366 . S
C1444 C1445 1.414 . S
C1444 C1447 1.499 . S
C1445 H1419 0.950 . S
C1445 C1444 1.414 . S
C1445 C1446 1.374 . S
C1446 H1420 0.950 . S
C1446 C1442 1.385 . S
C1446 C1445 1.374 . S
C1447 C1444 1.499 . S
C1447 C1448 1.373 . S
C1447 C1449 1.389 . S
C1448 H1421 0.950 . S
C1448 C1434 1.377 . S
C1448 C1447 1.373 . S
C1449 C1433 1.377 . S
C1449 C1447 1.389 . S
C1449 C1450 1.524 . S
C1450 C1449 1.524 . S
C1450 C1451 1.397 . S
C1450 C1455 1.363 . S
C1451 H1422 0.950 . S
C1451 C1450 1.397 . S
C1451 C1452 1.334 . S
C1452 H1423 0.950 . S
C1452 C1451 1.334 . S
C1452 C1453 1.287 . S
C1453 C1452 1.287 . S
C1453 C1454 1.524 . S
C1453 H1456 0.999 . S
C1454 H1424 0.950 . S
C1454 C1453 1.524 . S
C1454 C1455 1.415 . S
C1455 H1425 0.950 . S
C1455 C1450 1.363 . S
C1455 C1454 1.415 . S
H1456 C1453 0.999 . S
H1457 C1438 0.913 . S
H1458 C1476 0.951 . S
H1459 C1478 0.951 . S
H1460 C1480 0.950 . S
H1461 C1481 0.950 . S
H1462 C1483 0.950 . S
H1463 C1486 0.950 . S
H1464 C1487 0.950 . S
H1465 C1489 0.950 . S
H1466 C1490 0.950 . S
H1467 C1491 0.951 . S
H1468 C1493 0.951 . S
H1469 C1495 0.950 . S
H1470 C1496 0.950 . S
H1471 C1498 0.950 . S
H1472 C1501 0.950 . S
H1473 C1502 0.950 . S
H1474 C1504 0.950 . S
H1475 C1505 0.950 . S
C1476 H1458 0.951 . S
C1476 C1477 1.366 . S
C1476 C1478 1.388 . S
C1477 C1476 1.366 . S
C1477 C1481 1.385 . S
C1478 H1459 0.951 . S
C1478 C1476 1.388 . S
C1478 C1479 1.366 . S
C1479 C1478 1.366 . S
C1479 C1480 1.414 . S
C1479 C1482 1.499 . S
C1480 H1460 0.950 . S
C1480 C1479 1.414 . S
C1480 C1481 1.374 . S
C1481 H1461 0.950 . S
C1481 C1477 1.385 . S
C1481 C1480 1.374 . S
C1482 C1479 1.499 . S
C1482 C1483 1.373 . S
C1482 C1484 1.389 . S
C1483 H1462 0.950 . S
C1483 C1482 1.373 . S
C1483 C1499 1.377 . S
C1484 C1482 1.389 . S
C1484 C1485 1.524 . S
C1484 C1498 1.377 . S
C1485 C1484 1.524 . S
C1485 C1486 1.397 . S
C1485 C1490 1.363 . S
C1486 H1463 0.950 . S
C1486 C1485 1.397 . S
C1486 C1487 1.334 . S
C1487 H1464 0.950 . S
C1487 C1486 1.334 . S
C1487 C1488 1.287 . S
C1488 C1487 1.287 . S
C1488 C1489 1.524 . S
C1488 H1507 0.913 1_565 S
C1489 H1465 0.950 . S
C1489 C1488 1.524 . S
C1489 C1490 1.415 . S
C1490 H1466 0.950 . S
C1490 C1485 1.363 . S
C1490 C1489 1.415 . S
C1491 H1467 0.951 . S
C1491 C1492 1.366 . S
C1491 C1493 1.388 . S
C1492 C1491 1.366 . S
C1492 C1496 1.385 . S
C1493 H1468 0.951 . S
C1493 C1491 1.388 . S
C1493 C1494 1.366 . S
C1494 C1493 1.366 . S
C1494 C1495 1.414 . S
C1494 C1497 1.499 . S
C1495 H1469 0.950 . S
C1495 C1494 1.414 . S
C1495 C1496 1.374 . S
C1496 H1470 0.950 . S
C1496 C1492 1.385 . S
C1496 C1495 1.374 . S
C1497 C1494 1.499 . S
C1497 C1498 1.373 . S
C1497 C1499 1.389 . S
C1498 H1471 0.950 . S
C1498 C1484 1.377 . S
C1498 C1497 1.373 . S
C1499 C1483 1.377 . S
C1499 C1497 1.389 . S
C1499 C1500 1.524 . S
C1500 C1499 1.524 . S
C1500 C1501 1.397 . S
C1500 C1505 1.363 . S
C1501 H1472 0.950 . S
C1501 C1500 1.397 . S
C1501 C1502 1.334 . S
C1502 H1473 0.950 . S
C1502 C1501 1.334 . S
C1502 C1503 1.287 . S
C1503 C1502 1.287 . S
C1503 C1504 1.524 . S
C1503 H1506 0.999 . S
C1504 H1474 0.950 . S
C1504 C1503 1.524 . S
C1504 C1505 1.415 . S
C1505 H1475 0.950 . S
C1505 C1500 1.363 . S
C1505 C1504 1.415 . S
H1506 C1503 0.999 . S
H1507 C1488 0.913 1_545 S
H1508 C1526 0.951 . S
H1509 C1528 0.951 . S
H1510 C1530 0.950 . S
H1511 C1531 0.950 . S
H1512 C1533 0.950 . S
H1513 C1536 0.950 . S
H1514 C1537 0.950 . S
H1515 C1539 0.950 . S
H1516 C1540 0.950 . S
H1517 C1541 0.951 . S
H1518 C1543 0.951 . S
H1519 C1545 0.950 . S
H1520 C1546 0.950 . S
H1521 C1548 0.950 . S
H1522 C1551 0.950 . S
H1523 C1552 0.950 . S
H1524 C1554 0.950 . S
H1525 C1555 0.950 . S
C1526 H1508 0.951 . S
C1526 C1527 1.366 . S
C1526 C1528 1.388 . S
C1527 C1526 1.366 . S
C1527 C1531 1.385 . S
C1528 H1509 0.951 . S
C1528 C1526 1.388 . S
C1528 C1529 1.366 . S
C1529 C1528 1.366 . S
C1529 C1530 1.414 . S
C1529 C1532 1.499 . S
C1530 H1510 0.950 . S
C1530 C1529 1.414 . S
C1530 C1531 1.374 . S
C1531 H1511 0.950 . S
C1531 C1527 1.385 . S
C1531 C1530 1.374 . S
C1532 C1529 1.499 . S
C1532 C1533 1.373 . S
C1532 C1534 1.389 . S
C1533 H1512 0.950 . S
C1533 C1532 1.373 . S
C1533 C1549 1.377 . S
C1534 C1532 1.389 . S
C1534 C1535 1.524 . S
C1534 C1548 1.377 . S
C1535 C1534 1.524 . S
C1535 C1536 1.397 . S
C1535 C1540 1.363 . S
C1536 H1513 0.950 . S
C1536 C1535 1.397 . S
C1536 C1537 1.334 . S
C1537 H1514 0.950 . S
C1537 C1536 1.334 . S
C1537 C1538 1.287 . S
C1538 C1537 1.287 . S
C1538 C1539 1.524 . S
C1538 H1557 0.913 . S
C1539 H1515 0.950 . S
C1539 C1538 1.524 . S
C1539 C1540 1.415 . S
C1540 H1516 0.950 . S
C1540 C1535 1.363 . S
C1540 C1539 1.415 . S
C1541 H1517 0.951 . S
C1541 C1542 1.366 . S
C1541 C1543 1.388 . S
C1542 C1541 1.366 . S
C1542 C1546 1.385 . S
C1543 H1518 0.951 . S
C1543 C1541 1.388 . S
C1543 C1544 1.366 . S
C1544 C1543 1.366 . S
C1544 C1545 1.414 . S
C1544 C1547 1.499 . S
C1545 H1519 0.950 . S
C1545 C1544 1.414 . S
C1545 C1546 1.374 . S
C1546 H1520 0.950 . S
C1546 C1542 1.385 . S
C1546 C1545 1.374 . S
C1547 C1544 1.499 . S
C1547 C1548 1.373 . S
C1547 C1549 1.389 . S
C1548 H1521 0.950 . S
C1548 C1534 1.377 . S
C1548 C1547 1.373 . S
C1549 C1533 1.377 . S
C1549 C1547 1.389 . S
C1549 C1550 1.524 . S
C1550 C1549 1.524 . S
C1550 C1551 1.397 . S
C1550 C1555 1.363 . S
C1551 H1522 0.950 . S
C1551 C1550 1.397 . S
C1551 C1552 1.334 . S
C1552 H1523 0.950 . S
C1552 C1551 1.334 . S
C1552 C1553 1.287 . S
C1553 C1552 1.287 . S
C1553 C1554 1.524 . S
C1553 H1556 0.999 . S
C1554 H1524 0.950 . S
C1554 C1553 1.524 . S
C1554 C1555 1.415 . S
C1555 H1525 0.950 . S
C1555 C1550 1.363 . S
C1555 C1554 1.415 . S
H1556 C1553 0.999 . S
H1557 C1538 0.913 . S
H1558 C1576 0.951 . S
H1559 C1578 0.951 . S
H1560 C1580 0.950 . S
H1561 C1581 0.950 . S
H1562 C1583 0.950 . S
H1563 C1586 0.950 . S
H1564 C1587 0.950 . S
H1565 C1589 0.950 . S
H1566 C1590 0.950 . S
H1567 C1591 0.951 . S
H1568 C1593 0.951 . S
H1569 C1595 0.950 . S
H1570 C1596 0.950 . S
H1571 C1598 0.950 . S
H1572 C1601 0.950 . S
H1573 C1602 0.950 . S
H1574 C1604 0.950 . S
H1575 C1605 0.950 . S
C1576 H1558 0.951 . S
C1576 C1577 1.366 . S
C1576 C1578 1.388 . S
C1577 C1576 1.366 . S
C1577 C1581 1.385 . S
C1578 H1559 0.951 . S
C1578 C1576 1.388 . S
C1578 C1579 1.366 . S
C1579 C1578 1.366 . S
C1579 C1580 1.414 . S
C1579 C1582 1.499 . S
C1580 H1560 0.950 . S
C1580 C1579 1.414 . S
C1580 C1581 1.374 . S
C1581 H1561 0.950 . S
C1581 C1577 1.385 . S
C1581 C1580 1.374 . S
C1582 C1579 1.499 . S
C1582 C1583 1.373 . S
C1582 C1584 1.389 . S
C1583 H1562 0.950 . S
C1583 C1582 1.373 . S
C1583 C1599 1.377 1_455 S
C1584 C1582 1.389 . S
C1584 C1585 1.524 . S
C1584 C1598 1.377 1_455 S
C1585 C1584 1.524 . S
C1585 C1586 1.397 . S
C1585 C1590 1.363 . S
C1586 H1563 0.950 . S
C1586 C1585 1.397 . S
C1586 C1587 1.334 . S
C1587 H1564 0.950 . S
C1587 C1586 1.334 . S
C1587 C1588 1.287 . S
C1588 C1587 1.287 . S
C1588 C1589 1.524 . S
C1588 H1607 0.913 . S
C1589 H1565 0.950 . S
C1589 C1588 1.524 . S
C1589 C1590 1.415 . S
C1590 H1566 0.950 . S
C1590 C1585 1.363 . S
C1590 C1589 1.415 . S
C1591 H1567 0.951 . S
C1591 C1592 1.366 . S
C1591 C1593 1.388 . S
C1592 C1591 1.366 . S
C1592 C1596 1.385 . S
C1593 H1568 0.951 . S
C1593 C1591 1.388 . S
C1593 C1594 1.366 . S
C1594 C1593 1.366 . S
C1594 C1595 1.414 . S
C1594 C1597 1.499 . S
C1595 H1569 0.950 . S
C1595 C1594 1.414 . S
C1595 C1596 1.374 . S
C1596 H1570 0.950 . S
C1596 C1592 1.385 . S
C1596 C1595 1.374 . S
C1597 C1594 1.499 . S
C1597 C1598 1.373 . S
C1597 C1599 1.389 . S
C1598 H1571 0.950 . S
C1598 C1584 1.377 1_655 S
C1598 C1597 1.373 . S
C1599 C1583 1.377 1_655 S
C1599 C1597 1.389 . S
C1599 C1600 1.524 . S
C1600 C1599 1.524 . S
C1600 C1601 1.397 . S
C1600 C1605 1.363 . S
C1601 H1572 0.950 . S
C1601 C1600 1.397 . S
C1601 C1602 1.334 . S
C1602 H1573 0.950 . S
C1602 C1601 1.334 . S
C1602 C1603 1.287 . S
C1603 C1602 1.287 . S
C1603 C1604 1.524 . S
C1603 H1606 0.999 . S
C1604 H1574 0.950 . S
C1604 C1603 1.524 . S
C1604 C1605 1.415 . S
C1605 H1575 0.950 . S
C1605 C1600 1.363 . S
C1605 C1604 1.415 . S
H1606 C1603 0.999 . S
H1607 C1588 0.913 . S
H1608 C1626 0.951 . S
H1609 C1628 0.951 . S
H1610 C1630 0.950 . S
H1611 C1631 0.950 . S
H1612 C1633 0.950 . S
H1613 C1636 0.950 . S
H1614 C1637 0.950 . S
H1615 C1639 0.950 . S
H1616 C1640 0.950 . S
H1617 C1641 0.951 . S
H1618 C1643 0.951 . S
H1619 C1645 0.950 . S
H1620 C1646 0.950 . S
H1621 C1648 0.950 . S
H1622 C1651 0.950 . S
H1623 C1652 0.950 . S
H1624 C1654 0.950 . S
H1625 C1655 0.950 . S
C1626 H1608 0.951 . S
C1626 C1627 1.366 . S
C1626 C1628 1.388 . S
C1627 C1626 1.366 . S
C1627 C1631 1.385 . S
C1628 H1609 0.951 . S
C1628 C1626 1.388 . S
C1628 C1629 1.366 . S
C1629 C1628 1.366 . S
C1629 C1630 1.414 . S
C1629 C1632 1.499 . S
C1630 H1610 0.950 . S
C1630 C1629 1.414 . S
C1630 C1631 1.374 . S
C1631 H1611 0.950 . S
C1631 C1627 1.385 . S
C1631 C1630 1.374 . S
C1632 C1629 1.499 . S
C1632 C1633 1.373 . S
C1632 C1634 1.389 . S
C1633 H1612 0.950 . S
C1633 C1632 1.373 . S
C1633 C1649 1.377 . S
C1634 C1632 1.389 . S
C1634 C1635 1.524 . S
C1634 C1648 1.377 . S
C1635 C1634 1.524 . S
C1635 C1636 1.397 . S
C1635 C1640 1.363 . S
C1636 H1613 0.950 . S
C1636 C1635 1.397 . S
C1636 C1637 1.334 . S
C1637 H1614 0.950 . S
C1637 C1636 1.334 . S
C1637 C1638 1.287 . S
C1638 C1637 1.287 . S
C1638 C1639 1.524 . S
C1638 H1657 0.913 . S
C1639 H1615 0.950 . S
C1639 C1638 1.524 . S
C1639 C1640 1.415 . S
C1640 H1616 0.950 . S
C1640 C1635 1.363 . S
C1640 C1639 1.415 . S
C1641 H1617 0.951 . S
C1641 C1642 1.366 . S
C1641 C1643 1.388 . S
C1642 C1641 1.366 . S
C1642 C1646 1.385 . S
C1643 H1618 0.951 . S
C1643 C1641 1.388 . S
C1643 C1644 1.366 . S
C1644 C1643 1.366 . S
C1644 C1645 1.414 . S
C1644 C1647 1.499 . S
C1645 H1619 0.950 . S
C1645 C1644 1.414 . S
C1645 C1646 1.374 . S
C1646 H1620 0.950 . S
C1646 C1642 1.385 . S
C1646 C1645 1.374 . S
C1647 C1644 1.499 . S
C1647 C1648 1.373 . S
C1647 C1649 1.389 . S
C1648 H1621 0.950 . S
C1648 C1634 1.377 . S
C1648 C1647 1.373 . S
C1649 C1633 1.377 . S
C1649 C1647 1.389 . S
C1649 C1650 1.524 . S
C1650 C1649 1.524 . S
C1650 C1651 1.397 . S
C1650 C1655 1.363 . S
C1651 H1622 0.950 . S
C1651 C1650 1.397 . S
C1651 C1652 1.334 . S
C1652 H1623 0.950 . S
C1652 C1651 1.334 . S
C1652 C1653 1.287 . S
C1653 C1652 1.287 . S
C1653 C1654 1.524 . S
C1653 H1656 0.999 . S
C1654 H1624 0.950 . S
C1654 C1653 1.524 . S
C1654 C1655 1.415 . S
C1655 H1625 0.950 . S
C1655 C1650 1.363 . S
C1655 C1654 1.415 . S
H1656 C1653 0.999 . S
H1657 C1638 0.913 . S
H1658 C1676 0.951 . S
H1659 C1678 0.951 . S
H1660 C1680 0.950 . S
H1661 C1681 0.950 . S
H1662 C1683 0.950 . S
H1663 C1686 0.950 . S
H1664 C1687 0.950 . S
H1665 C1689 0.950 . S
H1666 C1690 0.950 . S
H1667 C1691 0.951 . S
H1668 C1693 0.951 . S
H1669 C1695 0.950 . S
H1670 C1696 0.950 . S
H1671 C1698 0.950 . S
H1672 C1701 0.950 . S
H1673 C1702 0.950 . S
H1674 C1704 0.950 . S
H1675 C1705 0.950 . S
C1676 H1658 0.951 . S
C1676 C1677 1.366 . S
C1676 C1678 1.388 . S
C1677 C1676 1.366 . S
C1677 C1681 1.385 . S
C1678 H1659 0.951 . S
C1678 C1676 1.388 . S
C1678 C1679 1.366 . S
C1679 C1678 1.366 . S
C1679 C1680 1.414 . S
C1679 C1682 1.499 . S
C1680 H1660 0.950 . S
C1680 C1679 1.414 . S
C1680 C1681 1.374 . S
C1681 H1661 0.950 . S
C1681 C1677 1.385 . S
C1681 C1680 1.374 . S
C1682 C1679 1.499 . S
C1682 C1683 1.373 . S
C1682 C1684 1.389 . S
C1683 H1662 0.950 . S
C1683 C1682 1.373 . S
C1683 C1699 1.377 1_655 S
C1684 C1682 1.389 . S
C1684 C1685 1.524 . S
C1684 C1698 1.377 1_655 S
C1685 C1684 1.524 . S
C1685 C1686 1.397 . S
C1685 C1690 1.363 . S
C1686 H1663 0.950 . S
C1686 C1685 1.397 . S
C1686 C1687 1.334 . S
C1687 H1664 0.950 . S
C1687 C1686 1.334 . S
C1687 C1688 1.287 . S
C1688 C1687 1.287 . S
C1688 C1689 1.524 . S
C1688 H1707 0.913 . S
C1689 H1665 0.950 . S
C1689 C1688 1.524 . S
C1689 C1690 1.415 . S
C1690 H1666 0.950 . S
C1690 C1685 1.363 . S
C1690 C1689 1.415 . S
C1691 H1667 0.951 . S
C1691 C1692 1.366 . S
C1691 C1693 1.388 . S
C1692 C1691 1.366 . S
C1692 C1696 1.385 . S
C1693 H1668 0.951 . S
C1693 C1691 1.388 . S
C1693 C1694 1.366 . S
C1694 C1693 1.366 . S
C1694 C1695 1.414 . S
C1694 C1697 1.499 . S
C1695 H1669 0.950 . S
C1695 C1694 1.414 . S
C1695 C1696 1.374 . S
C1696 H1670 0.950 . S
C1696 C1692 1.385 . S
C1696 C1695 1.374 . S
C1697 C1694 1.499 . S
C1697 C1698 1.373 . S
C1697 C1699 1.389 . S
C1698 H1671 0.950 . S
C1698 C1684 1.377 1_455 S
C1698 C1697 1.373 . S
C1699 C1683 1.377 1_455 S
C1699 C1697 1.389 . S
C1699 C1700 1.524 . S
C1700 C1699 1.524 . S
C1700 C1701 1.397 . S
C1700 C1705 1.363 . S
C1701 H1672 0.950 . S
C1701 C1700 1.397 . S
C1701 C1702 1.334 . S
C1702 H1673 0.950 . S
C1702 C1701 1.334 . S
C1702 C1703 1.287 . S
C1703 C1702 1.287 . S
C1703 C1704 1.524 . S
C1703 H1706 0.999 . S
C1704 H1674 0.950 . S
C1704 C1703 1.524 . S
C1704 C1705 1.415 . S
C1705 H1675 0.950 . S
C1705 C1700 1.363 . S
C1705 C1704 1.415 . S
H1706 C1703 0.999 . S
H1707 C1688 0.913 . S
H1708 C1726 0.951 . S
H1709 C1728 0.951 . S
H1710 C1730 0.950 . S
H1711 C1731 0.950 . S
H1712 C1733 0.950 . S
H1713 C1736 0.950 . S
H1714 C1737 0.950 . S
H1715 C1739 0.950 . S
H1716 C1740 0.950 . S
H1717 C1741 0.951 . S
H1718 C1743 0.951 . S
H1719 C1745 0.950 . S
H1720 C1746 0.950 . S
H1721 C1748 0.950 . S
H1722 C1751 0.950 . S
H1723 C1752 0.950 . S
H1724 C1754 0.950 . S
H1725 C1755 0.950 . S
C1726 H1708 0.951 . S
C1726 C1727 1.366 . S
C1726 C1728 1.388 . S
C1727 C1726 1.366 . S
C1727 C1731 1.385 . S
C1728 H1709 0.951 . S
C1728 C1726 1.388 . S
C1728 C1729 1.366 . S
C1729 C1728 1.366 . S
C1729 C1730 1.414 . S
C1729 C1732 1.499 . S
C1730 H1710 0.950 . S
C1730 C1729 1.414 . S
C1730 C1731 1.374 . S
C1731 H1711 0.950 . S
C1731 C1727 1.385 . S
C1731 C1730 1.374 . S
C1732 C1729 1.499 . S
C1732 C1733 1.373 . S
C1732 C1734 1.389 . S
C1733 H1712 0.950 . S
C1733 C1732 1.373 . S
C1733 C1749 1.377 . S
C1734 C1732 1.389 . S
C1734 C1735 1.524 . S
C1734 C1748 1.377 . S
C1735 C1734 1.524 . S
C1735 C1736 1.397 . S
C1735 C1740 1.363 . S
C1736 H1713 0.950 . S
C1736 C1735 1.397 . S
C1736 C1737 1.334 . S
C1737 H1714 0.950 . S
C1737 C1736 1.334 . S
C1737 C1738 1.287 . S
C1738 C1737 1.287 . S
C1738 C1739 1.524 . S
C1738 H1757 0.913 . S
C1739 H1715 0.950 . S
C1739 C1738 1.524 . S
C1739 C1740 1.415 . S
C1740 H1716 0.950 . S
C1740 C1735 1.363 . S
C1740 C1739 1.415 . S
C1741 H1717 0.951 . S
C1741 C1742 1.366 . S
C1741 C1743 1.388 . S
C1742 C1741 1.366 . S
C1742 C1746 1.385 . S
C1743 H1718 0.951 . S
C1743 C1741 1.388 . S
C1743 C1744 1.366 . S
C1744 C1743 1.366 . S
C1744 C1745 1.414 . S
C1744 C1747 1.499 . S
C1745 H1719 0.950 . S
C1745 C1744 1.414 . S
C1745 C1746 1.374 . S
C1746 H1720 0.950 . S
C1746 C1742 1.385 . S
C1746 C1745 1.374 . S
C1747 C1744 1.499 . S
C1747 C1748 1.373 . S
C1747 C1749 1.389 . S
C1748 H1721 0.950 . S
C1748 C1734 1.377 . S
C1748 C1747 1.373 . S
C1749 C1733 1.377 . S
C1749 C1747 1.389 . S
C1749 C1750 1.524 . S
C1750 C1749 1.524 . S
C1750 C1751 1.397 . S
C1750 C1755 1.363 . S
C1751 H1722 0.950 . S
C1751 C1750 1.397 . S
C1751 C1752 1.334 . S
C1752 H1723 0.950 . S
C1752 C1751 1.334 . S
C1752 C1753 1.287 . S
C1753 C1752 1.287 . S
C1753 C1754 1.524 . S
C1753 H1756 0.999 . S
C1754 H1724 0.950 . S
C1754 C1753 1.524 . S
C1754 C1755 1.415 . S
C1755 H1725 0.950 . S
C1755 C1750 1.363 . S
C1755 C1754 1.415 . S
H1756 C1753 0.999 . S
H1757 C1738 0.913 . S
H1758 C1776 0.951 . S
H1759 C1778 0.951 . S
H1760 C1780 0.950 . S
H1761 C1781 0.950 . S
H1762 C1783 0.950 . S
H1763 C1786 0.950 . S
H1764 C1787 0.950 . S
H1765 C1789 0.950 . S
H1766 C1790 0.950 . S
H1767 C1791 0.951 . S
H1768 C1793 0.951 . S
H1769 C1795 0.950 . S
H1770 C1796 0.950 . S
H1771 C1798 0.950 . S
H1772 C1801 0.950 . S
H1773 C1802 0.950 . S
H1774 C1804 0.950 . S
H1775 C1805 0.950 . S
C1776 H1758 0.951 . S
C1776 C1777 1.366 . S
C1776 C1778 1.388 . S
C1777 C1776 1.366 . S
C1777 C1781 1.385 . S
C1778 H1759 0.951 . S
C1778 C1776 1.388 . S
C1778 C1779 1.366 . S
C1779 C1778 1.366 . S
C1779 C1780 1.414 . S
C1779 C1782 1.499 . S
C1780 H1760 0.950 . S
C1780 C1779 1.414 . S
C1780 C1781 1.374 . S
C1781 H1761 0.950 . S
C1781 C1777 1.385 . S
C1781 C1780 1.374 . S
C1782 C1779 1.499 . S
C1782 C1783 1.373 . S
C1782 C1784 1.389 . S
C1783 H1762 0.950 . S
C1783 C1782 1.373 . S
C1783 C1799 1.377 . S
C1784 C1782 1.389 . S
C1784 C1785 1.524 . S
C1784 C1798 1.377 . S
C1785 C1784 1.524 . S
C1785 C1786 1.397 . S
C1785 C1790 1.363 . S
C1786 H1763 0.950 . S
C1786 C1785 1.397 . S
C1786 C1787 1.334 . S
C1787 H1764 0.950 . S
C1787 C1786 1.334 . S
C1787 C1788 1.287 . S
C1788 C1787 1.287 . S
C1788 C1789 1.524 . S
C1788 H1807 0.913 1_545 S
C1789 H1765 0.950 . S
C1789 C1788 1.524 . S
C1789 C1790 1.415 . S
C1790 H1766 0.950 . S
C1790 C1785 1.363 . S
C1790 C1789 1.415 . S
C1791 H1767 0.951 . S
C1791 C1792 1.366 . S
C1791 C1793 1.388 . S
C1792 C1791 1.366 . S
C1792 C1796 1.385 . S
C1793 H1768 0.951 . S
C1793 C1791 1.388 . S
C1793 C1794 1.366 . S
C1794 C1793 1.366 . S
C1794 C1795 1.414 . S
C1794 C1797 1.499 . S
C1795 H1769 0.950 . S
C1795 C1794 1.414 . S
C1795 C1796 1.374 . S
C1796 H1770 0.950 . S
C1796 C1792 1.385 . S
C1796 C1795 1.374 . S
C1797 C1794 1.499 . S
C1797 C1798 1.373 . S
C1797 C1799 1.389 . S
C1798 H1771 0.950 . S
C1798 C1784 1.377 . S
C1798 C1797 1.373 . S
C1799 C1783 1.377 . S
C1799 C1797 1.389 . S
C1799 C1800 1.524 . S
C1800 C1799 1.524 . S
C1800 C1801 1.397 . S
C1800 C1805 1.363 . S
C1801 H1772 0.950 . S
C1801 C1800 1.397 . S
C1801 C1802 1.334 . S
C1802 H1773 0.950 . S
C1802 C1801 1.334 . S
C1802 C1803 1.287 . S
C1803 C1802 1.287 . S
C1803 C1804 1.524 . S
C1803 H1806 0.999 . S
C1804 H1774 0.950 . S
C1804 C1803 1.524 . S
C1804 C1805 1.415 . S
C1805 H1775 0.950 . S
C1805 C1800 1.363 . S
C1805 C1804 1.415 . S
H1806 C1803 0.999 . S
H1807 C1788 0.913 1_565 S
H1808 C1826 0.951 . S
H1809 C1828 0.951 . S
H1810 C1830 0.950 . S
H1811 C1831 0.950 . S
H1812 C1833 0.950 . S
H1813 C1836 0.950 . S
H1814 C1837 0.950 . S
H1815 C1839 0.950 . S
H1816 C1840 0.950 . S
H1817 C1841 0.951 . S
H1818 C1843 0.951 . S
H1819 C1845 0.950 . S
H1820 C1846 0.950 . S
H1821 C1848 0.950 . S
H1822 C1851 0.950 . S
H1823 C1852 0.950 . S
H1824 C1854 0.950 . S
H1825 C1855 0.950 . S
C1826 H1808 0.951 . S
C1826 C1827 1.366 . S
C1826 C1828 1.388 . S
C1827 C1826 1.366 . S
C1827 C1831 1.385 . S
C1828 H1809 0.951 . S
C1828 C1826 1.388 . S
C1828 C1829 1.366 . S
C1829 C1828 1.366 . S
C1829 C1830 1.414 . S
C1829 C1832 1.499 . S
C1830 H1810 0.950 . S
C1830 C1829 1.414 . S
C1830 C1831 1.374 . S
C1831 H1811 0.950 . S
C1831 C1827 1.385 . S
C1831 C1830 1.374 . S
C1832 C1829 1.499 . S
C1832 C1833 1.373 . S
C1832 C1834 1.389 . S
C1833 H1812 0.950 . S
C1833 C1832 1.373 . S
C1833 C1849 1.377 . S
C1834 C1832 1.389 . S
C1834 C1835 1.524 . S
C1834 C1848 1.377 . S
C1835 C1834 1.524 . S
C1835 C1836 1.397 . S
C1835 C1840 1.363 . S
C1836 H1813 0.950 . S
C1836 C1835 1.397 . S
C1836 C1837 1.334 . S
C1837 H1814 0.950 . S
C1837 C1836 1.334 . S
C1837 C1838 1.287 . S
C1838 C1837 1.287 . S
C1838 C1839 1.524 . S
C1838 H1857 0.913 . S
C1839 H1815 0.950 . S
C1839 C1838 1.524 . S
C1839 C1840 1.415 . S
C1840 H1816 0.950 . S
C1840 C1835 1.363 . S
C1840 C1839 1.415 . S
C1841 H1817 0.951 . S
C1841 C1842 1.366 . S
C1841 C1843 1.388 . S
C1842 C1841 1.366 . S
C1842 C1846 1.385 . S
C1843 H1818 0.951 . S
C1843 C1841 1.388 . S
C1843 C1844 1.366 . S
C1844 C1843 1.366 . S
C1844 C1845 1.414 . S
C1844 C1847 1.499 . S
C1845 H1819 0.950 . S
C1845 C1844 1.414 . S
C1845 C1846 1.374 . S
C1846 H1820 0.950 . S
C1846 C1842 1.385 . S
C1846 C1845 1.374 . S
C1847 C1844 1.499 . S
C1847 C1848 1.373 . S
C1847 C1849 1.389 . S
C1848 H1821 0.950 . S
C1848 C1834 1.377 . S
C1848 C1847 1.373 . S
C1849 C1833 1.377 . S
C1849 C1847 1.389 . S
C1849 C1850 1.524 . S
C1850 C1849 1.524 . S
C1850 C1851 1.397 . S
C1850 C1855 1.363 . S
C1851 H1822 0.950 . S
C1851 C1850 1.397 . S
C1851 C1852 1.334 . S
C1852 H1823 0.950 . S
C1852 C1851 1.334 . S
C1852 C1853 1.287 . S
C1853 C1852 1.287 . S
C1853 C1854 1.524 . S
C1853 H1856 0.999 . S
C1854 H1824 0.950 . S
C1854 C1853 1.524 . S
C1854 C1855 1.415 . S
C1855 H1825 0.950 . S
C1855 C1850 1.363 . S
C1855 C1854 1.415 . S
H1856 C1853 0.999 . S
H1857 C1838 0.913 . S
H1858 C1876 0.951 . S
H1859 C1878 0.951 . S
H1860 C1880 0.950 . S
H1861 C1881 0.950 . S
H1862 C1883 0.950 . S
H1863 C1886 0.950 . S
H1864 C1887 0.950 . S
H1865 C1889 0.950 . S
H1866 C1890 0.950 . S
H1867 C1891 0.951 . S
H1868 C1893 0.951 . S
H1869 C1895 0.950 . S
H1870 C1896 0.950 . S
H1871 C1898 0.950 . S
H1872 C1901 0.950 . S
H1873 C1902 0.950 . S
H1874 C1904 0.950 . S
H1875 C1905 0.950 . S
C1876 H1858 0.951 . S
C1876 C1877 1.366 . S
C1876 C1878 1.388 . S
C1877 C1876 1.366 . S
C1877 C1881 1.385 . S
C1878 H1859 0.951 . S
C1878 C1876 1.388 . S
C1878 C1879 1.366 . S
C1879 C1878 1.366 . S
C1879 C1880 1.414 . S
C1879 C1882 1.499 . S
C1880 H1860 0.950 . S
C1880 C1879 1.414 . S
C1880 C1881 1.374 . S
C1881 H1861 0.950 . S
C1881 C1877 1.385 . S
C1881 C1880 1.374 . S
C1882 C1879 1.499 . S
C1882 C1883 1.373 . S
C1882 C1884 1.389 . S
C1883 H1862 0.950 . S
C1883 C1882 1.373 . S
C1883 C1899 1.377 . S
C1884 C1882 1.389 . S
C1884 C1885 1.524 . S
C1884 C1898 1.377 . S
C1885 C1884 1.524 . S
C1885 C1886 1.397 . S
C1885 C1890 1.363 . S
C1886 H1863 0.950 . S
C1886 C1885 1.397 . S
C1886 C1887 1.334 . S
C1887 H1864 0.950 . S
C1887 C1886 1.334 . S
C1887 C1888 1.287 . S
C1888 C1887 1.287 . S
C1888 C1889 1.524 . S
C1888 H1907 0.913 . S
C1889 H1865 0.950 . S
C1889 C1888 1.524 . S
C1889 C1890 1.415 . S
C1890 H1866 0.950 . S
C1890 C1885 1.363 . S
C1890 C1889 1.415 . S
C1891 H1867 0.951 . S
C1891 C1892 1.366 . S
C1891 C1893 1.388 . S
C1892 C1891 1.366 . S
C1892 C1896 1.385 . S
C1893 H1868 0.951 . S
C1893 C1891 1.388 . S
C1893 C1894 1.366 . S
C1894 C1893 1.366 . S
C1894 C1895 1.414 . S
C1894 C1897 1.499 . S
C1895 H1869 0.950 . S
C1895 C1894 1.414 . S
C1895 C1896 1.374 . S
C1896 H1870 0.950 . S
C1896 C1892 1.385 . S
C1896 C1895 1.374 . S
C1897 C1894 1.499 . S
C1897 C1898 1.373 . S
C1897 C1899 1.389 . S
C1898 H1871 0.950 . S
C1898 C1884 1.377 . S
C1898 C1897 1.373 . S
C1899 C1883 1.377 . S
C1899 C1897 1.389 . S
C1899 C1900 1.524 . S
C1900 C1899 1.524 . S
C1900 C1901 1.397 . S
C1900 C1905 1.363 . S
C1901 H1872 0.950 . S
C1901 C1900 1.397 . S
C1901 C1902 1.334 . S
C1902 H1873 0.950 . S
C1902 C1901 1.334 . S
C1902 C1903 1.287 . S
C1903 C1902 1.287 . S
C1903 C1904 1.524 . S
C1903 H1906 0.999 . S
C1904 H1874 0.950 . S
C1904 C1903 1.524 . S
C1904 C1905 1.415 . S
C1905 H1875 0.950 . S
C1905 C1900 1.363 . S
C1905 C1904 1.415 . S
H1906 C1903 0.999 . S
H1907 C1888 0.913 . S
H1908 C1926 0.951 . S
H1909 C1928 0.951 . S
H1910 C1930 0.950 . S
H1911 C1931 0.950 . S
H1912 C1933 0.950 . S
H1913 C1936 0.950 . S
H1914 C1937 0.950 . S
H1915 C1939 0.950 . S
H1916 C1940 0.950 . S
H1917 C1941 0.951 . S
H1918 C1943 0.951 . S
H1919 C1945 0.950 . S
H1920 C1946 0.950 . S
H1921 C1948 0.950 . S
H1922 C1951 0.950 . S
H1923 C1952 0.950 . S
H1924 C1954 0.950 . S
H1925 C1955 0.950 . S
C1926 H1908 0.951 . S
C1926 C1927 1.366 . S
C1926 C1928 1.388 . S
C1927 C1926 1.366 . S
C1927 C1931 1.385 . S
C1928 H1909 0.951 . S
C1928 C1926 1.388 . S
C1928 C1929 1.366 . S
C1929 C1928 1.366 . S
C1929 C1930 1.414 . S
C1929 C1932 1.499 . S
C1930 H1910 0.950 . S
C1930 C1929 1.414 . S
C1930 C1931 1.374 . S
C1931 H1911 0.950 . S
C1931 C1927 1.385 . S
C1931 C1930 1.374 . S
C1932 C1929 1.499 . S
C1932 C1933 1.373 . S
C1932 C1934 1.389 . S
C1933 H1912 0.950 . S
C1933 C1932 1.373 . S
C1933 C1949 1.377 . S
C1934 C1932 1.389 . S
C1934 C1935 1.524 . S
C1934 C1948 1.377 . S
C1935 C1934 1.524 . S
C1935 C1936 1.397 . S
C1935 C1940 1.363 . S
C1936 H1913 0.950 . S
C1936 C1935 1.397 . S
C1936 C1937 1.334 . S
C1937 H1914 0.950 . S
C1937 C1936 1.334 . S
C1937 C1938 1.287 . S
C1938 C1937 1.287 . S
C1938 C1939 1.524 . S
C1938 H1957 0.913 . S
C1939 H1915 0.950 . S
C1939 C1938 1.524 . S
C1939 C1940 1.415 . S
C1940 H1916 0.950 . S
C1940 C1935 1.363 . S
C1940 C1939 1.415 . S
C1941 H1917 0.951 . S
C1941 C1942 1.366 . S
C1941 C1943 1.388 . S
C1942 C1941 1.366 . S
C1942 C1946 1.385 . S
C1943 H1918 0.951 . S
C1943 C1941 1.388 . S
C1943 C1944 1.366 . S
C1944 C1943 1.366 . S
C1944 C1945 1.414 . S
C1944 C1947 1.499 . S
C1945 H1919 0.950 . S
C1945 C1944 1.414 . S
C1945 C1946 1.374 . S
C1946 H1920 0.950 . S
C1946 C1942 1.385 . S
C1946 C1945 1.374 . S
C1947 C1944 1.499 . S
C1947 C1948 1.373 . S
C1947 C1949 1.389 . S
C1948 H1921 0.950 . S
C1948 C1934 1.377 . S
C1948 C1947 1.373 . S
C1949 C1933 1.377 . S
C1949 C1947 1.389 . S
C1949 C1950 1.524 . S
C1950 C1949 1.524 . S
C1950 C1951 1.397 . S
C1950 C1955 1.363 . S
C1951 H1922 0.950 . S
C1951 C1950 1.397 . S
C1951 C1952 1.334 . S
C1952 H1923 0.950 . S
C1952 C1951 1.334 . S
C1952 C1953 1.287 . S
C1953 C1952 1.287 . S
C1953 C1954 1.524 . S
C1953 H1956 0.999 . S
C1954 H1924 0.950 . S
C1954 C1953 1.524 . S
C1954 C1955 1.415 . S
C1955 H1925 0.950 . S
C1955 C1950 1.363 . S
C1955 C1954 1.415 . S
H1956 C1953 0.999 . S
H1957 C1938 0.913 . S
H1958 C1976 0.951 . S
H1959 C1978 0.951 . S
H1960 C1980 0.950 . S
H1961 C1981 0.950 . S
H1962 C1983 0.950 . S
H1963 C1986 0.950 . S
H1964 C1987 0.950 . S
H1965 C1989 0.950 . S
H1966 C1990 0.950 . S
H1967 C1991 0.951 . S
H1968 C1993 0.951 . S
H1969 C1995 0.950 . S
H1970 C1996 0.950 . S
H1971 C1998 0.950 . S
H1972 C2001 0.950 . S
H1973 C2002 0.950 . S
H1974 C2004 0.950 . S
H1975 C2005 0.950 . S
C1976 H1958 0.951 . S
C1976 C1977 1.366 . S
C1976 C1978 1.388 . S
C1977 C1976 1.366 . S
C1977 C1981 1.385 . S
C1978 H1959 0.951 . S
C1978 C1976 1.388 . S
C1978 C1979 1.366 . S
C1979 C1978 1.366 . S
C1979 C1980 1.414 . S
C1979 C1982 1.499 . S
C1980 H1960 0.950 . S
C1980 C1979 1.414 . S
C1980 C1981 1.374 . S
C1981 H1961 0.950 . S
C1981 C1977 1.385 . S
C1981 C1980 1.374 . S
C1982 C1979 1.499 . S
C1982 C1983 1.373 . S
C1982 C1984 1.389 . S
C1983 H1962 0.950 . S
C1983 C1982 1.373 . S
C1983 C1999 1.377 . S
C1984 C1982 1.389 . S
C1984 C1985 1.524 . S
C1984 C1998 1.377 . S
C1985 C1984 1.524 . S
C1985 C1986 1.397 . S
C1985 C1990 1.363 . S
C1986 H1963 0.950 . S
C1986 C1985 1.397 . S
C1986 C1987 1.334 . S
C1987 H1964 0.950 . S
C1987 C1986 1.334 . S
C1987 C1988 1.287 . S
C1988 C1987 1.287 . S
C1988 C1989 1.524 . S
C1988 H2007 0.913 . S
C1989 H1965 0.950 . S
C1989 C1988 1.524 . S
C1989 C1990 1.415 . S
C1990 H1966 0.950 . S
C1990 C1985 1.363 . S
C1990 C1989 1.415 . S
C1991 H1967 0.951 . S
C1991 C1992 1.366 . S
C1991 C1993 1.388 . S
C1992 C1991 1.366 . S
C1992 C1996 1.385 . S
C1993 H1968 0.951 . S
C1993 C1991 1.388 . S
C1993 C1994 1.366 . S
C1994 C1993 1.366 . S
C1994 C1995 1.414 . S
C1994 C1997 1.499 . S
C1995 H1969 0.950 . S
C1995 C1994 1.414 . S
C1995 C1996 1.374 . S
C1996 H1970 0.950 . S
C1996 C1992 1.385 . S
C1996 C1995 1.374 . S
C1997 C1994 1.499 . S
C1997 C1998 1.373 . S
C1997 C1999 1.389 . S
C1998 H1971 0.950 . S
C1998 C1984 1.377 . S
C1998 C1997 1.373 . S
C1999 C1983 1.377 . S
C1999 C1997 1.389 . S
C1999 C2000 1.524 . S
C2000 C1999 1.524 . S
C2000 C2001 1.397 . S
C2000 C2005 1.363 . S
C2001 H1972 0.950 . S
C2001 C2000 1.397 . S
C2001 C2002 1.334 . S
C2002 H1973 0.950 . S
C2002 C2001 1.334 . S
C2002 C2003 1.287 . S
C2003 C2002 1.287 . S
C2003 C2004 1.524 . S
C2003 H2006 0.999 . S
C2004 H1974 0.950 . S
C2004 C2003 1.524 . S
C2004 C2005 1.415 . S
C2005 H1975 0.950 . S
C2005 C2000 1.363 . S
C2005 C2004 1.415 . S
H2006 C2003 0.999 . S
H2007 C1988 0.913 . S
H2008 C2026 0.951 . S
H2009 C2028 0.951 . S
H2010 C2030 0.950 . S
H2011 C2031 0.950 . S
H2012 C2033 0.950 . S
H2013 C2036 0.950 . S
H2014 C2037 0.950 . S
H2015 C2039 0.950 . S
H2016 C2040 0.950 . S
H2017 C2041 0.951 . S
H2018 C2043 0.951 . S
H2019 C2045 0.950 . S
H2020 C2046 0.950 . S
H2021 C2048 0.950 . S
H2022 C2051 0.950 . S
H2023 C2052 0.950 . S
H2024 C2054 0.950 . S
H2025 C2055 0.950 . S
C2026 H2008 0.951 . S
C2026 C2027 1.366 . S
C2026 C2028 1.388 . S
C2027 C2026 1.366 . S
C2027 C2031 1.385 . S
C2028 H2009 0.951 . S
C2028 C2026 1.388 . S
C2028 C2029 1.366 . S
C2029 C2028 1.366 . S
C2029 C2030 1.414 . S
C2029 C2032 1.499 . S
C2030 H2010 0.950 . S
C2030 C2029 1.414 . S
C2030 C2031 1.374 . S
C2031 H2011 0.950 . S
C2031 C2027 1.385 . S
C2031 C2030 1.374 . S
C2032 C2029 1.499 . S
C2032 C2033 1.373 . S
C2032 C2034 1.389 . S
C2033 H2012 0.950 . S
C2033 C2032 1.373 . S
C2033 C2049 1.377 1_455 S
C2034 C2032 1.389 . S
C2034 C2035 1.524 . S
C2034 C2048 1.377 1_455 S
C2035 C2034 1.524 . S
C2035 C2036 1.397 . S
C2035 C2040 1.363 . S
C2036 H2013 0.950 . S
C2036 C2035 1.397 . S
C2036 C2037 1.334 . S
C2037 H2014 0.950 . S
C2037 C2036 1.334 . S
C2037 C2038 1.287 . S
C2038 C2037 1.287 . S
C2038 C2039 1.524 . S
C2038 H2057 0.913 . S
C2039 H2015 0.950 . S
C2039 C2038 1.524 . S
C2039 C2040 1.415 . S
C2040 H2016 0.950 . S
C2040 C2035 1.363 . S
C2040 C2039 1.415 . S
C2041 H2017 0.951 . S
C2041 C2042 1.366 . S
C2041 C2043 1.388 . S
C2042 C2041 1.366 . S
C2042 C2046 1.385 . S
C2043 H2018 0.951 . S
C2043 C2041 1.388 . S
C2043 C2044 1.366 . S
C2044 C2043 1.366 . S
C2044 C2045 1.414 . S
C2044 C2047 1.499 . S
C2045 H2019 0.950 . S
C2045 C2044 1.414 . S
C2045 C2046 1.374 . S
C2046 H2020 0.950 . S
C2046 C2042 1.385 . S
C2046 C2045 1.374 . S
C2047 C2044 1.499 . S
C2047 C2048 1.373 . S
C2047 C2049 1.389 . S
C2048 H2021 0.950 . S
C2048 C2034 1.377 1_655 S
C2048 C2047 1.373 . S
C2049 C2033 1.377 1_655 S
C2049 C2047 1.389 . S
C2049 C2050 1.524 . S
C2050 C2049 1.524 . S
C2050 C2051 1.397 . S
C2050 C2055 1.363 . S
C2051 H2022 0.950 . S
C2051 C2050 1.397 . S
C2051 C2052 1.334 . S
C2052 H2023 0.950 . S
C2052 C2051 1.334 . S
C2052 C2053 1.287 . S
C2053 C2052 1.287 . S
C2053 C2054 1.524 . S
C2053 H2056 0.999 . S
C2054 H2024 0.950 . S
C2054 C2053 1.524 . S
C2054 C2055 1.415 . S
C2055 H2025 0.950 . S
C2055 C2050 1.363 . S
C2055 C2054 1.415 . S
H2056 C2053 0.999 . S
H2057 C2038 0.913 . S
H2058 C2076 0.951 . S
H2059 C2078 0.951 . S
H2060 C2080 0.950 . S
H2061 C2081 0.950 . S
H2062 C2083 0.950 . S
H2063 C2086 0.950 . S
H2064 C2087 0.950 . S
H2065 C2089 0.950 . S
H2066 C2090 0.950 . S
H2067 C2091 0.951 . S
H2068 C2093 0.951 . S
H2069 C2095 0.950 . S
H2070 C2096 0.950 . S
H2071 C2098 0.950 . S
H2072 C2101 0.950 . S
H2073 C2102 0.950 . S
H2074 C2104 0.950 . S
H2075 C2105 0.950 . S
C2076 H2058 0.951 . S
C2076 C2077 1.366 . S
C2076 C2078 1.388 . S
C2077 C2076 1.366 . S
C2077 C2081 1.385 . S
C2078 H2059 0.951 . S
C2078 C2076 1.388 . S
C2078 C2079 1.366 . S
C2079 C2078 1.366 . S
C2079 C2080 1.414 . S
C2079 C2082 1.499 . S
C2080 H2060 0.950 . S
C2080 C2079 1.414 . S
C2080 C2081 1.374 . S
C2081 H2061 0.950 . S
C2081 C2077 1.385 . S
C2081 C2080 1.374 . S
C2082 C2079 1.499 . S
C2082 C2083 1.373 . S
C2082 C2084 1.389 . S
C2083 H2062 0.950 . S
C2083 C2082 1.373 . S
C2083 C2099 1.377 . S
C2084 C2082 1.389 . S
C2084 C2085 1.524 . S
C2084 C2098 1.377 . S
C2085 C2084 1.524 . S
C2085 C2086 1.397 . S
C2085 C2090 1.363 . S
C2086 H2063 0.950 . S
C2086 C2085 1.397 . S
C2086 C2087 1.334 . S
C2087 H2064 0.950 . S
C2087 C2086 1.334 . S
C2087 C2088 1.287 . S
C2088 C2087 1.287 . S
C2088 C2089 1.524 . S
C2088 H2107 0.913 . S
C2089 H2065 0.950 . S
C2089 C2088 1.524 . S
C2089 C2090 1.415 . S
C2090 H2066 0.950 . S
C2090 C2085 1.363 . S
C2090 C2089 1.415 . S
C2091 H2067 0.951 . S
C2091 C2092 1.366 . S
C2091 C2093 1.388 . S
C2092 C2091 1.366 . S
C2092 C2096 1.385 . S
C2093 H2068 0.951 . S
C2093 C2091 1.388 . S
C2093 C2094 1.366 . S
C2094 C2093 1.366 . S
C2094 C2095 1.414 . S
C2094 C2097 1.499 . S
C2095 H2069 0.950 . S
C2095 C2094 1.414 . S
C2095 C2096 1.374 . S
C2096 H2070 0.950 . S
C2096 C2092 1.385 . S
C2096 C2095 1.374 . S
C2097 C2094 1.499 . S
C2097 C2098 1.373 . S
C2097 C2099 1.389 . S
C2098 H2071 0.950 . S
C2098 C2084 1.377 . S
C2098 C2097 1.373 . S
C2099 C2083 1.377 . S
C2099 C2097 1.389 . S
C2099 C2100 1.524 . S
C2100 C2099 1.524 . S
C2100 C2101 1.397 . S
C2100 C2105 1.363 . S
C2101 H2072 0.950 . S
C2101 C2100 1.397 . S
C2101 C2102 1.334 . S
C2102 H2073 0.950 . S
C2102 C2101 1.334 . S
C2102 C2103 1.287 . S
C2103 C2102 1.287 . S
C2103 C2104 1.524 . S
C2103 H2106 0.999 . S
C2104 H2074 0.950 . S
C2104 C2103 1.524 . S
C2104 C2105 1.415 . S
C2105 H2075 0.950 . S
C2105 C2100 1.363 . S
C2105 C2104 1.415 . S
H2106 C2103 0.999 . S
H2107 C2088 0.913 . S
H2108 C2126 0.951 . S
H2109 C2128 0.951 . S
H2110 C2130 0.950 . S
H2111 C2131 0.950 . S
H2112 C2133 0.950 . S
H2113 C2136 0.950 . S
H2114 C2137 0.950 . S
H2115 C2139 0.950 . S
H2116 C2140 0.950 . S
H2117 C2141 0.951 . S
H2118 C2143 0.951 . S
H2119 C2145 0.950 . S
H2120 C2146 0.950 . S
H2121 C2148 0.950 . S
H2122 C2151 0.950 . S
H2123 C2152 0.950 . S
H2124 C2154 0.950 . S
H2125 C2155 0.950 . S
C2126 H2108 0.951 . S
C2126 C2127 1.366 . S
C2126 C2128 1.388 . S
C2127 C2126 1.366 . S
C2127 C2131 1.385 . S
C2128 H2109 0.951 . S
C2128 C2126 1.388 . S
C2128 C2129 1.366 . S
C2129 C2128 1.366 . S
C2129 C2130 1.414 . S
C2129 C2132 1.499 . S
C2130 H2110 0.950 . S
C2130 C2129 1.414 . S
C2130 C2131 1.374 . S
C2131 H2111 0.950 . S
C2131 C2127 1.385 . S
C2131 C2130 1.374 . S
C2132 C2129 1.499 . S
C2132 C2133 1.373 . S
C2132 C2134 1.389 . S
C2133 H2112 0.950 . S
C2133 C2132 1.373 . S
C2133 C2149 1.377 . S
C2134 C2132 1.389 . S
C2134 C2135 1.524 . S
C2134 C2148 1.377 . S
C2135 C2134 1.524 . S
C2135 C2136 1.397 . S
C2135 C2140 1.363 . S
C2136 H2113 0.950 . S
C2136 C2135 1.397 . S
C2136 C2137 1.334 . S
C2137 H2114 0.950 . S
C2137 C2136 1.334 . S
C2137 C2138 1.287 . S
C2138 C2137 1.287 . S
C2138 C2139 1.524 . S
C2138 H2157 0.913 . S
C2139 H2115 0.950 . S
C2139 C2138 1.524 . S
C2139 C2140 1.415 . S
C2140 H2116 0.950 . S
C2140 C2135 1.363 . S
C2140 C2139 1.415 . S
C2141 H2117 0.951 . S
C2141 C2142 1.366 . S
C2141 C2143 1.388 . S
C2142 C2141 1.366 . S
C2142 C2146 1.385 . S
C2143 H2118 0.951 . S
C2143 C2141 1.388 . S
C2143 C2144 1.366 . S
C2144 C2143 1.366 . S
C2144 C2145 1.414 . S
C2144 C2147 1.499 . S
C2145 H2119 0.950 . S
C2145 C2144 1.414 . S
C2145 C2146 1.374 . S
C2146 H2120 0.950 . S
C2146 C2142 1.385 . S
C2146 C2145 1.374 . S
C2147 C2144 1.499 . S
C2147 C2148 1.373 . S
C2147 C2149 1.389 . S
C2148 H2121 0.950 . S
C2148 C2134 1.377 . S
C2148 C2147 1.373 . S
C2149 C2133 1.377 . S
C2149 C2147 1.389 . S
C2149 C2150 1.524 . S
C2150 C2149 1.524 . S
C2150 C2151 1.397 . S
C2150 C2155 1.363 . S
C2151 H2122 0.950 . S
C2151 C2150 1.397 . S
C2151 C2152 1.334 . S
C2152 H2123 0.950 . S
C2152 C2151 1.334 . S
C2152 C2153 1.287 . S
C2153 C2152 1.287 . S
C2153 C2154 1.524 . S
C2153 H2156 0.999 . S
C2154 H2124 0.950 . S
C2154 C2153 1.524 . S
C2154 C2155 1.415 . S
C2155 H2125 0.950 . S
C2155 C2150 1.363 . S
C2155 C2154 1.415 . S
H2156 C2153 0.999 . S
H2157 C2138 0.913 . S
H2158 C2176 0.951 . S
H2159 C2178 0.951 . S
H2160 C2180 0.950 . S
H2161 C2181 0.950 . S
H2162 C2183 0.950 . S
H2163 C2186 0.950 . S
H2164 C2187 0.950 . S
H2165 C2189 0.950 . S
H2166 C2190 0.950 . S
H2167 C2191 0.951 . S
H2168 C2193 0.951 . S
H2169 C2195 0.950 . S
H2170 C2196 0.950 . S
H2171 C2198 0.950 . S
H2172 C2201 0.950 . S
H2173 C2202 0.950 . S
H2174 C2204 0.950 . S
H2175 C2205 0.950 . S
C2176 H2158 0.951 . S
C2176 C2177 1.366 . S
C2176 C2178 1.388 . S
C2177 C2176 1.366 . S
C2177 C2181 1.385 . S
C2178 H2159 0.951 . S
C2178 C2176 1.388 . S
C2178 C2179 1.366 . S
C2179 C2178 1.366 . S
C2179 C2180 1.414 . S
C2179 C2182 1.499 . S
C2180 H2160 0.950 . S
C2180 C2179 1.414 . S
C2180 C2181 1.374 . S
C2181 H2161 0.950 . S
C2181 C2177 1.385 . S
C2181 C2180 1.374 . S
C2182 C2179 1.499 . S
C2182 C2183 1.373 . S
C2182 C2184 1.389 . S
C2183 H2162 0.950 . S
C2183 C2182 1.373 . S
C2183 C2199 1.377 1_455 S
C2184 C2182 1.389 . S
C2184 C2185 1.524 . S
C2184 C2198 1.377 1_455 S
C2185 C2184 1.524 . S
C2185 C2186 1.397 . S
C2185 C2190 1.363 . S
C2186 H2163 0.950 . S
C2186 C2185 1.397 . S
C2186 C2187 1.334 . S
C2187 H2164 0.950 . S
C2187 C2186 1.334 . S
C2187 C2188 1.287 . S
C2188 C2187 1.287 . S
C2188 C2189 1.524 . S
C2188 H2207 0.913 . S
C2189 H2165 0.950 . S
C2189 C2188 1.524 . S
C2189 C2190 1.415 . S
C2190 H2166 0.950 . S
C2190 C2185 1.363 . S
C2190 C2189 1.415 . S
C2191 H2167 0.951 . S
C2191 C2192 1.366 . S
C2191 C2193 1.388 . S
C2192 C2191 1.366 . S
C2192 C2196 1.385 . S
C2193 H2168 0.951 . S
C2193 C2191 1.388 . S
C2193 C2194 1.366 . S
C2194 C2193 1.366 . S
C2194 C2195 1.414 . S
C2194 C2197 1.499 . S
C2195 H2169 0.950 . S
C2195 C2194 1.414 . S
C2195 C2196 1.374 . S
C2196 H2170 0.950 . S
C2196 C2192 1.385 . S
C2196 C2195 1.374 . S
C2197 C2194 1.499 . S
C2197 C2198 1.373 . S
C2197 C2199 1.389 . S
C2198 H2171 0.950 . S
C2198 C2184 1.377 1_655 S
C2198 C2197 1.373 . S
C2199 C2183 1.377 1_655 S
C2199 C2197 1.389 . S
C2199 C2200 1.524 . S
C2200 C2199 1.524 . S
C2200 C2201 1.397 . S
C2200 C2205 1.363 . S
C2201 H2172 0.950 . S
C2201 C2200 1.397 . S
C2201 C2202 1.334 . S
C2202 H2173 0.950 . S
C2202 C2201 1.334 . S
C2202 C2203 1.287 . S
C2203 C2202 1.287 . S
C2203 C2204 1.524 . S
C2203 H2206 0.999 . S
C2204 H2174 0.950 . S
C2204 C2203 1.524 . S
C2204 C2205 1.415 . S
C2205 H2175 0.950 . S
C2205 C2200 1.363 . S
C2205 C2204 1.415 . S
H2206 C2203 0.999 . S
H2207 C2188 0.913 . S
H2208 C2226 0.951 . S
H2209 C2228 0.951 . S
H2210 C2230 0.950 . S
H2211 C2231 0.950 . S
H2212 C2233 0.950 . S
H2213 C2236 0.950 . S
H2214 C2237 0.950 . S
H2215 C2239 0.950 . S
H2216 C2240 0.950 . S
H2217 C2241 0.951 . S
H2218 C2243 0.951 . S
H2219 C2245 0.950 . S
H2220 C2246 0.950 . S
H2221 C2248 0.950 . S
H2222 C2251 0.950 . S
H2223 C2252 0.950 . S
H2224 C2254 0.950 . S
H2225 C2255 0.950 . S
C2226 H2208 0.951 . S
C2226 C2227 1.366 . S
C2226 C2228 1.388 . S
C2227 C2226 1.366 . S
C2227 C2231 1.385 . S
C2228 H2209 0.951 . S
C2228 C2226 1.388 . S
C2228 C2229 1.366 . S
C2229 C2228 1.366 . S
C2229 C2230 1.414 . S
C2229 C2232 1.499 . S
C2230 H2210 0.950 . S
C2230 C2229 1.414 . S
C2230 C2231 1.374 . S
C2231 H2211 0.950 . S
C2231 C2227 1.385 . S
C2231 C2230 1.374 . S
C2232 C2229 1.499 . S
C2232 C2233 1.373 . S
C2232 C2234 1.389 . S
C2233 H2212 0.950 . S
C2233 C2232 1.373 . S
C2233 C2249 1.377 1_554 S
C2234 C2232 1.389 . S
C2234 C2235 1.524 . S
C2234 C2248 1.377 1_554 S
C2235 C2234 1.524 . S
C2235 C2236 1.397 . S
C2235 C2240 1.363 . S
C2236 H2213 0.950 . S
C2236 C2235 1.397 . S
C2236 C2237 1.334 . S
C2237 H2214 0.950 . S
C2237 C2236 1.334 . S
C2237 C2238 1.287 . S
C2238 C2237 1.287 . S
C2238 C2239 1.524 . S
C2238 H2257 0.913 . S
C2239 H2215 0.950 . S
C2239 C2238 1.524 . S
C2239 C2240 1.415 . S
C2240 H2216 0.950 . S
C2240 C2235 1.363 . S
C2240 C2239 1.415 . S
C2241 H2217 0.951 . S
C2241 C2242 1.366 . S
C2241 C2243 1.388 . S
C2242 C2241 1.366 . S
C2242 C2246 1.385 . S
C2243 H2218 0.951 . S
C2243 C2241 1.388 . S
C2243 C2244 1.366 . S
C2244 C2243 1.366 . S
C2244 C2245 1.414 . S
C2244 C2247 1.499 . S
C2245 H2219 0.950 . S
C2245 C2244 1.414 . S
C2245 C2246 1.374 . S
C2246 H2220 0.950 . S
C2246 C2242 1.385 . S
C2246 C2245 1.374 . S
C2247 C2244 1.499 . S
C2247 C2248 1.373 . S
C2247 C2249 1.389 . S
C2248 H2221 0.950 . S
C2248 C2234 1.377 1_556 S
C2248 C2247 1.373 . S
C2249 C2233 1.377 1_556 S
C2249 C2247 1.389 . S
C2249 C2250 1.524 . S
C2250 C2249 1.524 . S
C2250 C2251 1.397 . S
C2250 C2255 1.363 . S
C2251 H2222 0.950 . S
C2251 C2250 1.397 . S
C2251 C2252 1.334 . S
C2252 H2223 0.950 . S
C2252 C2251 1.334 . S
C2252 C2253 1.287 . S
C2253 C2252 1.287 . S
C2253 C2254 1.524 . S
C2253 H2256 0.999 . S
C2254 H2224 0.950 . S
C2254 C2253 1.524 . S
C2254 C2255 1.415 . S
C2255 H2225 0.950 . S
C2255 C2250 1.363 . S
C2255 C2254 1.415 . S
H2256 C2253 0.999 . S
H2257 C2238 0.913 . S
H2258 C2276 0.951 . S
H2259 C2278 0.951 . S
H2260 C2280 0.950 . S
H2261 C2281 0.950 . S
H2262 C2283 0.950 . S
H2263 C2286 0.950 . S
H2264 C2287 0.950 . S
H2265 C2289 0.950 . S
H2266 C2290 0.950 . S
H2267 C2291 0.951 . S
H2268 C2293 0.951 . S
H2269 C2295 0.950 . S
H2270 C2296 0.950 . S
H2271 C2298 0.950 . S
H2272 C2301 0.950 . S
H2273 C2302 0.950 . S
H2274 C2304 0.950 1_545 S
H2275 C2305 0.950 . S
C2276 H2258 0.951 . S
C2276 C2277 1.366 . S
C2276 C2278 1.388 . S
C2277 C2276 1.366 . S
C2277 C2281 1.385 . S
C2278 H2259 0.951 . S
C2278 C2276 1.388 . S
C2278 C2279 1.366 . S
C2279 C2278 1.366 . S
C2279 C2280 1.414 . S
C2279 C2282 1.499 . S
C2280 H2260 0.950 . S
C2280 C2279 1.414 . S
C2280 C2281 1.374 . S
C2281 H2261 0.950 . S
C2281 C2277 1.385 . S
C2281 C2280 1.374 . S
C2282 C2279 1.499 . S
C2282 C2283 1.373 . S
C2282 C2284 1.389 . S
C2283 H2262 0.950 . S
C2283 C2282 1.373 . S
C2283 C2299 1.377 . S
C2284 C2282 1.389 . S
C2284 C2285 1.524 . S
C2284 C2298 1.377 . S
C2285 C2284 1.524 . S
C2285 C2286 1.397 . S
C2285 C2290 1.363 . S
C2286 H2263 0.950 . S
C2286 C2285 1.397 . S
C2286 C2287 1.334 . S
C2287 H2264 0.950 . S
C2287 C2286 1.334 . S
C2287 C2288 1.287 . S
C2288 C2287 1.287 . S
C2288 C2289 1.524 . S
C2288 H2307 0.913 . S
C2289 H2265 0.950 . S
C2289 C2288 1.524 . S
C2289 C2290 1.415 . S
C2290 H2266 0.950 . S
C2290 C2285 1.363 . S
C2290 C2289 1.415 . S
C2291 H2267 0.951 . S
C2291 C2292 1.366 . S
C2291 C2293 1.388 . S
C2292 C2291 1.366 . S
C2292 C2296 1.385 . S
C2293 H2268 0.951 . S
C2293 C2291 1.388 . S
C2293 C2294 1.366 . S
C2294 C2293 1.366 . S
C2294 C2295 1.414 . S
C2294 C2297 1.499 . S
C2295 H2269 0.950 . S
C2295 C2294 1.414 . S
C2295 C2296 1.374 . S
C2296 H2270 0.950 . S
C2296 C2292 1.385 . S
C2296 C2295 1.374 . S
C2297 C2294 1.499 . S
C2297 C2298 1.373 . S
C2297 C2299 1.389 . S
C2298 H2271 0.950 . S
C2298 C2284 1.377 . S
C2298 C2297 1.373 . S
C2299 C2283 1.377 . S
C2299 C2297 1.389 . S
C2299 C2300 1.524 . S
C2300 C2299 1.524 . S
C2300 C2301 1.397 . S
C2300 C2305 1.363 . S
C2301 H2272 0.950 . S
C2301 C2300 1.397 . S
C2301 C2302 1.334 . S
C2302 H2273 0.950 . S
C2302 C2301 1.334 . S
C2302 C2303 1.287 . S
C2303 C2302 1.287 . S
C2303 C2304 1.524 . S
C2303 H2306 1.020 . S
C2304 H2274 0.950 1_565 S
C2304 C2303 1.524 . S
C2304 C2305 1.415 . S
C2305 H2275 0.950 . S
C2305 C2300 1.363 . S
C2305 C2304 1.415 . S
H2306 C2303 1.020 . S
H2307 C2288 0.913 . S
H2308 C2326 0.951 . S
H2309 C2328 0.951 . S
H2310 C2330 0.950 . S
H2311 C2331 0.950 . S
H2312 C2333 0.950 . S
H2313 C2336 0.950 . S
H2314 C2337 0.950 . S
H2315 C2339 0.950 . S
H2316 C2340 0.950 . S
H2317 C2341 0.951 . S
H2318 C2343 0.951 . S
H2319 C2345 0.950 . S
H2320 C2346 0.950 . S
H2321 C2348 0.950 . S
H2322 C2351 0.950 . S
H2323 C2352 0.950 . S
H2324 C2354 0.950 . S
H2325 C2355 0.950 . S
C2326 H2308 0.951 . S
C2326 C2327 1.366 . S
C2326 C2328 1.388 . S
C2327 C2326 1.366 . S
C2327 C2331 1.385 . S
C2328 H2309 0.951 . S
C2328 C2326 1.388 . S
C2328 C2329 1.366 . S
C2329 C2328 1.366 . S
C2329 C2330 1.414 . S
C2329 C2332 1.499 . S
C2330 H2310 0.950 . S
C2330 C2329 1.414 . S
C2330 C2331 1.374 . S
C2331 H2311 0.950 . S
C2331 C2327 1.385 . S
C2331 C2330 1.374 . S
C2332 C2329 1.499 . S
C2332 C2333 1.373 . S
C2332 C2334 1.389 . S
C2333 H2312 0.950 . S
C2333 C2332 1.373 . S
C2333 C2349 1.377 . S
C2334 C2332 1.389 . S
C2334 C2335 1.524 . S
C2334 C2348 1.377 . S
C2335 C2334 1.524 . S
C2335 C2336 1.397 . S
C2335 C2340 1.363 . S
C2336 H2313 0.950 . S
C2336 C2335 1.397 . S
C2336 C2337 1.334 . S
C2337 H2314 0.950 . S
C2337 C2336 1.334 . S
C2337 C2338 1.287 . S
C2338 C2337 1.287 . S
C2338 C2339 1.524 . S
C2338 H2357 0.913 . S
C2339 H2315 0.950 . S
C2339 C2338 1.524 . S
C2339 C2340 1.415 . S
C2340 H2316 0.950 . S
C2340 C2335 1.363 . S
C2340 C2339 1.415 . S
C2341 H2317 0.951 . S
C2341 C2342 1.366 . S
C2341 C2343 1.388 . S
C2342 C2341 1.366 . S
C2342 C2346 1.385 . S
C2343 H2318 0.951 . S
C2343 C2341 1.388 . S
C2343 C2344 1.366 . S
C2344 C2343 1.366 . S
C2344 C2345 1.414 . S
C2344 C2347 1.499 . S
C2345 H2319 0.950 . S
C2345 C2344 1.414 . S
C2345 C2346 1.374 . S
C2346 H2320 0.950 . S
C2346 C2342 1.385 . S
C2346 C2345 1.374 . S
C2347 C2344 1.499 . S
C2347 C2348 1.373 . S
C2347 C2349 1.389 . S
C2348 H2321 0.950 . S
C2348 C2334 1.377 . S
C2348 C2347 1.373 . S
C2349 C2333 1.377 . S
C2349 C2347 1.389 . S
C2349 C2350 1.524 . S
C2350 C2349 1.524 . S
C2350 C2351 1.397 . S
C2350 C2355 1.363 . S
C2351 H2322 0.950 . S
C2351 C2350 1.397 . S
C2351 C2352 1.334 . S
C2352 H2323 0.950 . S
C2352 C2351 1.334 . S
C2352 C2353 1.287 . S
C2353 C2352 1.287 . S
C2353 C2354 1.524 . S
C2353 H2356 0.999 . S
C2354 H2324 0.950 . S
C2354 C2353 1.524 . S
C2354 C2355 1.415 . S
C2355 H2325 0.950 . S
C2355 C2350 1.363 . S
C2355 C2354 1.415 . S
H2356 C2353 0.999 . S
H2357 C2338 0.913 . S
H2358 C2376 0.951 . S
H2359 C2378 0.951 . S
H2360 C2380 0.950 . S
H2361 C2381 0.950 . S
H2362 C2383 0.950 . S
H2363 C2386 0.950 . S
H2364 C2387 0.950 . S
H2365 C2389 0.950 . S
H2366 C2390 0.950 . S
H2367 C2391 0.951 . S
H2368 C2393 0.951 . S
H2369 C2395 0.950 . S
H2370 C2396 0.950 . S
H2371 C2398 0.950 . S
H2372 C2401 0.950 . S
H2373 C2402 0.950 . S
H2374 C2404 0.950 . S
H2375 C2405 0.950 . S
C2376 H2358 0.951 . S
C2376 C2377 1.366 . S
C2376 C2378 1.388 . S
C2377 C2376 1.366 . S
C2377 C2381 1.385 . S
C2378 H2359 0.951 . S
C2378 C2376 1.388 . S
C2378 C2379 1.366 . S
C2379 C2378 1.366 . S
C2379 C2380 1.414 . S
C2379 C2382 1.499 . S
C2380 H2360 0.950 . S
C2380 C2379 1.414 . S
C2380 C2381 1.374 . S
C2381 H2361 0.950 . S
C2381 C2377 1.385 . S
C2381 C2380 1.374 . S
C2382 C2379 1.499 . S
C2382 C2383 1.373 . S
C2382 C2384 1.389 . S
C2383 H2362 0.950 . S
C2383 C2382 1.373 . S
C2383 C2399 1.377 . S
C2384 C2382 1.389 . S
C2384 C2385 1.524 . S
C2384 C2398 1.377 . S
C2385 C2384 1.524 . S
C2385 C2386 1.397 . S
C2385 C2390 1.363 . S
C2386 H2363 0.950 . S
C2386 C2385 1.397 . S
C2386 C2387 1.334 . S
C2387 H2364 0.950 . S
C2387 C2386 1.334 . S
C2387 C2388 1.316 . S
C2388 C2387 1.316 . S
C2388 C2389 1.519 1_545 S
C2388 H2407 0.886 1_545 S
C2389 H2365 0.950 . S
C2389 C2388 1.519 1_565 S
C2389 C2390 1.415 1_565 S
C2390 H2366 0.950 . S
C2390 C2385 1.363 . S
C2390 C2389 1.415 1_545 S
C2391 H2367 0.951 . S
C2391 C2392 1.366 . S
C2391 C2393 1.388 . S
C2392 C2391 1.366 . S
C2392 C2396 1.385 . S
C2393 H2368 0.951 . S
C2393 C2391 1.388 . S
C2393 C2394 1.366 . S
C2394 C2393 1.366 . S
C2394 C2395 1.414 . S
C2394 C2397 1.499 . S
C2395 H2369 0.950 . S
C2395 C2394 1.414 . S
C2395 C2396 1.374 . S
C2396 H2370 0.950 . S
C2396 C2392 1.385 . S
C2396 C2395 1.374 . S
C2397 C2394 1.499 . S
C2397 C2398 1.373 . S
C2397 C2399 1.389 . S
C2398 H2371 0.950 . S
C2398 C2384 1.377 . S
C2398 C2397 1.373 . S
C2399 C2383 1.377 . S
C2399 C2397 1.389 . S
C2399 C2400 1.524 . S
C2400 C2399 1.524 . S
C2400 C2401 1.397 . S
C2400 C2405 1.363 . S
C2401 H2372 0.950 . S
C2401 C2400 1.397 . S
C2401 C2402 1.334 . S
C2402 H2373 0.950 . S
C2402 C2401 1.334 . S
C2402 C2403 1.287 . S
C2403 C2402 1.287 . S
C2403 C2404 1.524 . S
C2403 H2406 0.999 . S
C2404 H2374 0.950 . S
C2404 C2403 1.524 . S
C2404 C2405 1.415 . S
C2405 H2375 0.950 . S
C2405 C2400 1.363 . S
C2405 C2404 1.415 . S
H2406 C2403 0.999 . S
H2407 C2388 0.886 1_565 S
H2408 C2426 0.951 . S
H2409 C2428 0.951 . S
H2410 C2430 0.950 . S
H2411 C2431 0.950 . S
H2412 C2433 0.950 . S
H2413 C2436 0.950 . S
H2414 C2437 0.950 . S
H2415 C2439 0.950 . S
H2416 C2440 0.950 . S
H2417 C2441 0.951 . S
H2418 C2443 0.951 . S
H2419 C2445 0.950 . S
H2420 C2446 0.950 . S
H2421 C2448 0.950 . S
H2422 C2451 0.950 . S
H2423 C2452 0.950 . S
H2424 C2454 0.950 . S
H2425 C2455 0.950 . S
C2426 H2408 0.951 . S
C2426 C2427 1.366 . S
C2426 C2428 1.388 . S
C2427 C2426 1.366 . S
C2427 C2431 1.385 . S
C2428 H2409 0.951 . S
C2428 C2426 1.388 . S
C2428 C2429 1.366 . S
C2429 C2428 1.366 . S
C2429 C2430 1.414 . S
C2429 C2432 1.499 . S
C2430 H2410 0.950 . S
C2430 C2429 1.414 . S
C2430 C2431 1.374 . S
C2431 H2411 0.950 . S
C2431 C2427 1.385 . S
C2431 C2430 1.374 . S
C2432 C2429 1.499 . S
C2432 C2433 1.373 . S
C2432 C2434 1.389 . S
C2433 H2412 0.950 . S
C2433 C2432 1.373 . S
C2433 C2449 1.377 1_556 S
C2434 C2432 1.389 . S
C2434 C2435 1.524 . S
C2434 C2448 1.377 1_556 S
C2435 C2434 1.524 . S
C2435 C2436 1.397 . S
C2435 C2440 1.363 . S
C2436 H2413 0.950 . S
C2436 C2435 1.397 . S
C2436 C2437 1.334 . S
C2437 H2414 0.950 . S
C2437 C2436 1.334 . S
C2437 C2438 1.287 . S
C2438 C2437 1.287 . S
C2438 C2439 1.524 . S
C2438 H2457 0.913 . S
C2439 H2415 0.950 . S
C2439 C2438 1.524 . S
C2439 C2440 1.415 . S
C2440 H2416 0.950 . S
C2440 C2435 1.363 . S
C2440 C2439 1.415 . S
C2441 H2417 0.951 . S
C2441 C2442 1.366 . S
C2441 C2443 1.388 . S
C2442 C2441 1.366 . S
C2442 C2446 1.385 . S
C2443 H2418 0.951 . S
C2443 C2441 1.388 . S
C2443 C2444 1.366 . S
C2444 C2443 1.366 . S
C2444 C2445 1.414 . S
C2444 C2447 1.499 . S
C2445 H2419 0.950 . S
C2445 C2444 1.414 . S
C2445 C2446 1.374 . S
C2446 H2420 0.950 . S
C2446 C2442 1.385 . S
C2446 C2445 1.374 . S
C2447 C2444 1.499 . S
C2447 C2448 1.373 . S
C2447 C2449 1.389 . S
C2448 H2421 0.950 . S
C2448 C2434 1.377 1_554 S
C2448 C2447 1.373 . S
C2449 C2433 1.377 1_554 S
C2449 C2447 1.389 . S
C2449 C2450 1.524 . S
C2450 C2449 1.524 . S
C2450 C2451 1.397 . S
C2450 C2455 1.363 . S
C2451 H2422 0.950 . S
C2451 C2450 1.397 . S
C2451 C2452 1.334 . S
C2452 H2423 0.950 . S
C2452 C2451 1.334 . S
C2452 C2453 1.287 . S
C2453 C2452 1.287 . S
C2453 C2454 1.524 . S
C2453 H2456 0.999 . S
C2454 H2424 0.950 . S
C2454 C2453 1.524 . S
C2454 C2455 1.415 . S
C2455 H2425 0.950 . S
C2455 C2450 1.363 . S
C2455 C2454 1.415 . S
H2456 C2453 0.999 . S
H2457 C2438 0.913 . S
H2458 C2476 0.951 . S
H2459 C2478 0.951 . S
H2460 C2480 0.950 . S
H2461 C2481 0.950 . S
H2462 C2483 0.950 . S
H2463 C2486 0.950 . S
H2464 C2487 0.950 . S
H2465 C2489 0.950 . S
H2466 C2490 0.950 . S
H2467 C2491 0.951 . S
H2468 C2493 0.951 . S
H2469 C2495 0.950 . S
H2470 C2496 0.950 . S
H2471 C2498 0.950 . S
H2472 C2501 0.950 . S
H2473 C2502 0.950 . S
H2474 C2504 0.950 . S
H2475 C2505 0.950 . S
C2476 H2458 0.951 . S
C2476 C2477 1.366 . S
C2476 C2478 1.388 . S
C2477 C2476 1.366 . S
C2477 C2481 1.385 . S
C2478 H2459 0.951 . S
C2478 C2476 1.388 . S
C2478 C2479 1.366 . S
C2479 C2478 1.366 . S
C2479 C2480 1.414 . S
C2479 C2482 1.499 . S
C2480 H2460 0.950 . S
C2480 C2479 1.414 . S
C2480 C2481 1.374 . S
C2481 H2461 0.950 . S
C2481 C2477 1.385 . S
C2481 C2480 1.374 . S
C2482 C2479 1.499 . S
C2482 C2483 1.373 . S
C2482 C2484 1.389 . S
C2483 H2462 0.950 . S
C2483 C2482 1.373 . S
C2483 C2499 1.377 . S
C2484 C2482 1.389 . S
C2484 C2485 1.524 . S
C2484 C2498 1.377 . S
C2485 C2484 1.524 . S
C2485 C2486 1.397 . S
C2485 C2490 1.363 . S
C2486 H2463 0.950 . S
C2486 C2485 1.397 . S
C2486 C2487 1.334 . S
C2487 H2464 0.950 . S
C2487 C2486 1.334 . S
C2487 C2488 1.287 . S
C2488 C2487 1.287 . S
C2488 C2489 1.524 . S
C2488 H2507 0.913 . S
C2489 H2465 0.950 . S
C2489 C2488 1.524 . S
C2489 C2490 1.415 . S
C2490 H2466 0.950 . S
C2490 C2485 1.363 . S
C2490 C2489 1.415 . S
C2491 H2467 0.951 . S
C2491 C2492 1.366 . S
C2491 C2493 1.388 . S
C2492 C2491 1.366 . S
C2492 C2496 1.385 . S
C2493 H2468 0.951 . S
C2493 C2491 1.388 . S
C2493 C2494 1.366 . S
C2494 C2493 1.366 . S
C2494 C2495 1.414 . S
C2494 C2497 1.499 . S
C2495 H2469 0.950 . S
C2495 C2494 1.414 . S
C2495 C2496 1.374 . S
C2496 H2470 0.950 . S
C2496 C2492 1.385 . S
C2496 C2495 1.374 . S
C2497 C2494 1.499 . S
C2497 C2498 1.373 . S
C2497 C2499 1.389 . S
C2498 H2471 0.950 . S
C2498 C2484 1.377 . S
C2498 C2497 1.373 . S
C2499 C2483 1.377 . S
C2499 C2497 1.389 . S
C2499 C2500 1.524 . S
C2500 C2499 1.524 . S
C2500 C2501 1.397 . S
C2500 C2505 1.363 . S
C2501 H2472 0.950 . S
C2501 C2500 1.397 . S
C2501 C2502 1.334 . S
C2502 H2473 0.950 . S
C2502 C2501 1.334 . S
C2502 C2503 1.287 . S
C2503 C2502 1.287 . S
C2503 C2504 1.524 . S
C2503 H2506 0.999 . S
C2504 H2474 0.950 . S
C2504 C2503 1.524 . S
C2504 C2505 1.415 . S
C2505 H2475 0.950 . S
C2505 C2500 1.363 . S
C2505 C2504 1.415 . S
H2506 C2503 0.999 . S
H2507 C2488 0.913 . S
H2508 C2526 0.951 . S
H2509 C2528 0.951 . S
H2510 C2530 0.950 . S
H2511 C2531 0.950 . S
H2512 C2533 0.950 . S
H2513 C2536 0.950 . S
H2514 C2537 0.950 . S
H2515 C2539 0.950 . S
H2516 C2540 0.950 . S
H2517 C2541 0.951 . S
H2518 C2543 0.951 . S
H2519 C2545 0.950 . S
H2520 C2546 0.950 . S
H2521 C2548 0.950 . S
H2522 C2551 0.950 . S
H2523 C2552 0.950 . S
H2524 C2554 0.950 . S
H2525 C2555 0.950 . S
C2526 H2508 0.951 . S
C2526 C2527 1.366 . S
C2526 C2528 1.388 . S
C2527 C2526 1.366 . S
C2527 C2531 1.385 . S
C2528 H2509 0.951 . S
C2528 C2526 1.388 . S
C2528 C2529 1.366 . S
C2529 C2528 1.366 . S
C2529 C2530 1.414 . S
C2529 C2532 1.499 . S
C2530 H2510 0.950 . S
C2530 C2529 1.414 . S
C2530 C2531 1.374 . S
C2531 H2511 0.950 . S
C2531 C2527 1.385 . S
C2531 C2530 1.374 . S
C2532 C2529 1.499 . S
C2532 C2533 1.373 . S
C2532 C2534 1.389 . S
C2533 H2512 0.950 . S
C2533 C2532 1.373 . S
C2533 C2549 1.377 . S
C2534 C2532 1.389 . S
C2534 C2535 1.524 . S
C2534 C2548 1.377 . S
C2535 C2534 1.524 . S
C2535 C2536 1.397 . S
C2535 C2540 1.363 . S
C2536 H2513 0.950 . S
C2536 C2535 1.397 . S
C2536 C2537 1.334 . S
C2537 H2514 0.950 . S
C2537 C2536 1.334 . S
C2537 C2538 1.287 . S
C2538 C2537 1.287 . S
C2538 C2539 1.524 . S
C2538 H2557 0.913 . S
C2539 H2515 0.950 . S
C2539 C2538 1.524 . S
C2539 C2540 1.415 . S
C2540 H2516 0.950 . S
C2540 C2535 1.363 . S
C2540 C2539 1.415 . S
C2541 H2517 0.951 . S
C2541 C2542 1.366 . S
C2541 C2543 1.388 . S
C2542 C2541 1.366 . S
C2542 C2546 1.385 . S
C2543 H2518 0.951 . S
C2543 C2541 1.388 . S
C2543 C2544 1.366 . S
C2544 C2543 1.366 . S
C2544 C2545 1.414 . S
C2544 C2547 1.499 . S
C2545 H2519 0.950 . S
C2545 C2544 1.414 . S
C2545 C2546 1.374 . S
C2546 H2520 0.950 . S
C2546 C2542 1.385 . S
C2546 C2545 1.374 . S
C2547 C2544 1.499 . S
C2547 C2548 1.373 . S
C2547 C2549 1.389 . S
C2548 H2521 0.950 . S
C2548 C2534 1.377 . S
C2548 C2547 1.373 . S
C2549 C2533 1.377 . S
C2549 C2547 1.389 . S
C2549 C2550 1.524 . S
C2550 C2549 1.524 . S
C2550 C2551 1.397 . S
C2550 C2555 1.363 . S
C2551 H2522 0.950 . S
C2551 C2550 1.397 . S
C2551 C2552 1.334 . S
C2552 H2523 0.950 . S
C2552 C2551 1.334 . S
C2552 C2553 1.287 . S
C2553 C2552 1.287 . S
C2553 C2554 1.524 . S
C2553 H2556 0.999 . S
C2554 H2524 0.950 . S
C2554 C2553 1.524 . S
C2554 C2555 1.415 . S
C2555 H2525 0.950 . S
C2555 C2550 1.363 . S
C2555 C2554 1.415 . S
H2556 C2553 0.999 . S
H2557 C2538 0.913 . S
H2558 C2576 0.951 . S
H2559 C2578 0.951 . S
H2560 C2580 0.950 . S
H2561 C2581 0.950 . S
H2562 C2583 0.950 . S
H2563 C2586 0.950 . S
H2564 C2587 0.950 . S
H2565 C2589 0.950 . S
H2566 C2590 0.950 . S
H2567 C2591 0.951 . S
H2568 C2593 0.951 . S
H2569 C2595 0.950 . S
H2570 C2596 0.950 . S
H2571 C2598 0.950 . S
H2572 C2601 0.950 . S
H2573 C2602 0.950 . S
H2574 C2604 0.969 . S
H2575 C2605 0.950 . S
C2576 H2558 0.951 . S
C2576 C2577 1.366 . S
C2576 C2578 1.388 . S
C2577 C2576 1.366 . S
C2577 C2581 1.385 . S
C2578 H2559 0.951 . S
C2578 C2576 1.388 . S
C2578 C2579 1.366 . S
C2579 C2578 1.366 . S
C2579 C2580 1.414 . S
C2579 C2582 1.499 . S
C2580 H2560 0.950 . S
C2580 C2579 1.414 . S
C2580 C2581 1.374 . S
C2581 H2561 0.950 . S
C2581 C2577 1.385 . S
C2581 C2580 1.374 . S
C2582 C2579 1.499 . S
C2582 C2583 1.373 . S
C2582 C2584 1.389 . S
C2583 H2562 0.950 . S
C2583 C2582 1.373 . S
C2583 C2599 1.377 . S
C2584 C2582 1.389 . S
C2584 C2585 1.524 . S
C2584 C2598 1.377 . S
C2585 C2584 1.524 . S
C2585 C2586 1.397 . S
C2585 C2590 1.363 . S
C2586 H2563 0.950 . S
C2586 C2585 1.397 . S
C2586 C2587 1.334 . S
C2587 H2564 0.950 . S
C2587 C2586 1.334 . S
C2587 C2588 1.287 . S
C2588 C2587 1.287 . S
C2588 C2589 1.524 . S
C2588 H2607 0.913 . S
C2589 H2565 0.950 . S
C2589 C2588 1.524 . S
C2589 C2590 1.415 . S
C2590 H2566 0.950 . S
C2590 C2585 1.363 . S
C2590 C2589 1.415 . S
C2591 H2567 0.951 . S
C2591 C2592 1.366 . S
C2591 C2593 1.388 . S
C2592 C2591 1.366 . S
C2592 C2596 1.385 . S
C2593 H2568 0.951 . S
C2593 C2591 1.388 . S
C2593 C2594 1.366 . S
C2594 C2593 1.366 . S
C2594 C2595 1.414 . S
C2594 C2597 1.499 . S
C2595 H2569 0.950 . S
C2595 C2594 1.414 . S
C2595 C2596 1.374 . S
C2596 H2570 0.950 . S
C2596 C2592 1.385 . S
C2596 C2595 1.374 . S
C2597 C2594 1.499 . S
C2597 C2598 1.373 . S
C2597 C2599 1.389 . S
C2598 H2571 0.950 . S
C2598 C2584 1.377 . S
C2598 C2597 1.373 . S
C2599 C2583 1.377 . S
C2599 C2597 1.389 . S
C2599 C2600 1.524 . S
C2600 C2599 1.524 . S
C2600 C2601 1.397 . S
C2600 C2605 1.363 . S
C2601 H2572 0.950 . S
C2601 C2600 1.397 . S
C2601 C2602 1.334 . S
C2602 H2573 0.950 . S
C2602 C2601 1.334 . S
C2602 C2603 1.287 . S
C2603 C2602 1.287 . S
C2603 C2604 1.519 1_565 S
C2603 H2606 0.999 1_565 S
C2604 H2574 0.969 . S
C2604 C2603 1.519 1_545 S
C2604 C2605 1.399 1_545 S
C2605 H2575 0.950 . S
C2605 C2600 1.363 . S
C2605 C2604 1.399 1_565 S
H2606 C2603 0.999 1_545 S
H2607 C2588 0.913 . S
H2608 C2626 0.951 . S
H2609 C2628 0.957 . S
H2610 C2630 0.950 . S
H2611 C2631 0.950 . S
H2612 C2633 0.950 . S
H2613 C2636 0.906 1_545 S
H2614 C2637 0.950 . S
H2615 C2639 0.950 . S
H2616 C2640 0.950 . S
H2617 C2641 0.951 . S
H2618 C2643 0.957 . S
H2619 C2645 0.950 . S
H2620 C2646 0.950 . S
H2621 C2648 0.950 . S
H2622 C2651 0.906 1_565 S
H2623 C2652 0.950 . S
H2624 C2654 0.950 . S
H2625 C2655 0.950 . S
C2626 H2608 0.951 . S
C2626 C2627 1.366 . S
C2626 C2628 1.388 . S
C2627 C2626 1.366 . S
C2627 C2631 1.385 . S
C2628 H2609 0.957 . S
C2628 C2626 1.388 . S
C2628 C2629 1.366 . S
C2629 C2628 1.366 . S
C2629 C2630 1.414 . S
C2629 C2632 1.499 . S
C2630 H2610 0.950 . S
C2630 C2629 1.414 . S
C2630 C2631 1.374 . S
C2631 H2611 0.950 . S
C2631 C2627 1.385 . S
C2631 C2630 1.374 . S
C2632 C2629 1.499 . S
C2632 C2633 1.373 . S
C2632 C2634 1.389 1_545 S
C2633 H2612 0.950 . S
C2633 C2632 1.373 . S
C2633 C2649 1.377 . S
C2634 C2632 1.389 1_565 S
C2634 C2635 1.524 . S
C2634 C2648 1.377 . S
C2635 C2634 1.524 . S
C2635 C2636 1.397 . S
C2635 C2640 1.363 . S
C2636 H2613 0.906 1_565 S
C2636 C2635 1.397 . S
C2636 C2637 1.334 . S
C2637 H2614 0.950 . S
C2637 C2636 1.334 . S
C2637 C2638 1.287 . S
C2638 C2637 1.287 . S
C2638 C2639 1.524 . S
C2638 H2657 0.913 . S
C2639 H2615 0.950 . S
C2639 C2638 1.524 . S
C2639 C2640 1.415 . S
C2640 H2616 0.950 . S
C2640 C2635 1.363 . S
C2640 C2639 1.415 . S
C2641 H2617 0.951 . S
C2641 C2642 1.366 . S
C2641 C2643 1.388 . S
C2642 C2641 1.366 . S
C2642 C2646 1.385 . S
C2643 H2618 0.957 . S
C2643 C2641 1.388 . S
C2643 C2644 1.366 . S
C2644 C2643 1.366 . S
C2644 C2645 1.414 . S
C2644 C2647 1.499 . S
C2645 H2619 0.950 . S
C2645 C2644 1.414 . S
C2645 C2646 1.374 . S
C2646 H2620 0.950 . S
C2646 C2642 1.385 . S
C2646 C2645 1.374 . S
C2647 C2644 1.499 . S
C2647 C2648 1.373 . S
C2647 C2649 1.389 1_565 S
C2648 H2621 0.950 . S
C2648 C2634 1.377 . S
C2648 C2647 1.373 . S
C2649 C2633 1.377 . S
C2649 C2647 1.389 1_545 S
C2649 C2650 1.524 . S
C2650 C2649 1.524 . S
C2650 C2651 1.397 . S
C2650 C2655 1.363 . S
C2651 H2622 0.906 1_545 S
C2651 C2650 1.397 . S
C2651 C2652 1.334 . S
C2652 H2623 0.950 . S
C2652 C2651 1.334 . S
C2652 C2653 1.287 . S
C2653 C2652 1.287 . S
C2653 C2654 1.524 . S
C2653 H2656 0.999 . S
C2654 H2624 0.950 . S
C2654 C2653 1.524 . S
C2654 C2655 1.415 . S
C2655 H2625 0.950 . S
C2655 C2650 1.363 . S
C2655 C2654 1.415 . S
H2656 C2653 0.999 . S
H2657 C2638 0.913 . S
H2658 C2676 0.951 . S
H2659 C2678 0.951 . S
H2660 C2680 0.950 . S
H2661 C2681 0.950 . S
H2662 C2683 0.950 . S
H2663 C2686 0.950 . S
H2664 C2687 0.950 . S
H2665 C2689 0.950 . S
H2666 C2690 0.950 . S
H2667 C2691 0.951 . S
H2668 C2693 0.951 . S
H2669 C2695 0.950 . S
H2670 C2696 0.950 . S
H2671 C2698 0.950 . S
H2672 C2701 0.950 . S
H2673 C2702 0.950 . S
H2674 C2704 0.950 . S
H2675 C2705 0.950 . S
C2676 H2658 0.951 . S
C2676 C2677 1.366 . S
C2676 C2678 1.388 . S
C2677 C2676 1.366 . S
C2677 C2681 1.385 . S
C2678 H2659 0.951 . S
C2678 C2676 1.388 . S
C2678 C2679 1.366 . S
C2679 C2678 1.366 . S
C2679 C2680 1.414 . S
C2679 C2682 1.499 . S
C2680 H2660 0.950 . S
C2680 C2679 1.414 . S
C2680 C2681 1.374 . S
C2681 H2661 0.950 . S
C2681 C2677 1.385 . S
C2681 C2680 1.374 . S
C2682 C2679 1.499 . S
C2682 C2683 1.373 . S
C2682 C2684 1.389 . S
C2683 H2662 0.950 . S
C2683 C2682 1.373 . S
C2683 C2699 1.377 . S
C2684 C2682 1.389 . S
C2684 C2685 1.524 . S
C2684 C2698 1.377 . S
C2685 C2684 1.524 . S
C2685 C2686 1.397 . S
C2685 C2690 1.363 . S
C2686 H2663 0.950 . S
C2686 C2685 1.397 . S
C2686 C2687 1.334 . S
C2687 H2664 0.950 . S
C2687 C2686 1.334 . S
C2687 C2688 1.287 . S
C2688 C2687 1.287 . S
C2688 C2689 1.524 . S
C2688 H2707 0.913 . S
C2689 H2665 0.950 . S
C2689 C2688 1.524 . S
C2689 C2690 1.415 . S
C2690 H2666 0.950 . S
C2690 C2685 1.363 . S
C2690 C2689 1.415 . S
C2691 H2667 0.951 . S
C2691 C2692 1.366 . S
C2691 C2693 1.388 . S
C2692 C2691 1.366 . S
C2692 C2696 1.385 . S
C2693 H2668 0.951 . S
C2693 C2691 1.388 . S
C2693 C2694 1.366 . S
C2694 C2693 1.366 . S
C2694 C2695 1.414 . S
C2694 C2697 1.499 . S
C2695 H2669 0.950 . S
C2695 C2694 1.414 . S
C2695 C2696 1.374 . S
C2696 H2670 0.950 . S
C2696 C2692 1.385 . S
C2696 C2695 1.374 . S
C2697 C2694 1.499 . S
C2697 C2698 1.373 . S
C2697 C2699 1.389 . S
C2698 H2671 0.950 . S
C2698 C2684 1.377 . S
C2698 C2697 1.373 . S
C2699 C2683 1.377 . S
C2699 C2697 1.389 . S
C2699 C2700 1.524 . S
C2700 C2699 1.524 . S
C2700 C2701 1.397 . S
C2700 C2705 1.363 . S
C2701 H2672 0.950 . S
C2701 C2700 1.397 . S
C2701 C2702 1.334 . S
C2702 H2673 0.950 . S
C2702 C2701 1.334 . S
C2702 C2703 1.287 . S
C2703 C2702 1.287 . S
C2703 C2704 1.524 . S
C2703 H2706 0.999 . S
C2704 H2674 0.950 . S
C2704 C2703 1.524 . S
C2704 C2705 1.415 . S
C2705 H2675 0.950 . S
C2705 C2700 1.363 . S
C2705 C2704 1.415 . S
H2706 C2703 0.999 . S
H2707 C2688 0.913 . S
H2708 C2726 0.951 . S
H2709 C2728 0.951 . S
H2710 C2730 0.950 . S
H2711 C2731 0.950 . S
H2712 C2733 0.950 . S
H2713 C2736 0.950 . S
H2714 C2737 0.950 . S
H2715 C2739 0.950 . S
H2716 C2740 0.918 1_554 S
H2717 C2741 0.951 . S
H2718 C2743 0.951 . S
H2719 C2745 0.950 . S
H2720 C2746 0.950 . S
H2721 C2748 0.950 . S
H2722 C2751 0.950 . S
H2723 C2752 0.950 . S
H2724 C2754 0.950 . S
H2725 C2755 0.918 1_556 S
C2726 H2708 0.951 . S
C2726 C2727 1.366 . S
C2726 C2728 1.388 . S
C2727 C2726 1.366 . S
C2727 C2731 1.385 . S
C2728 H2709 0.951 . S
C2728 C2726 1.388 . S
C2728 C2729 1.366 . S
C2729 C2728 1.366 . S
C2729 C2730 1.414 . S
C2729 C2732 1.499 . S
C2730 H2710 0.950 . S
C2730 C2729 1.414 . S
C2730 C2731 1.374 . S
C2731 H2711 0.950 . S
C2731 C2727 1.385 . S
C2731 C2730 1.374 . S
C2732 C2729 1.499 . S
C2732 C2733 1.373 . S
C2732 C2734 1.389 . S
C2733 H2712 0.950 . S
C2733 C2732 1.373 . S
C2733 C2749 1.377 1_546 S
C2734 C2732 1.389 . S
C2734 C2735 1.525 . S
C2734 C2748 1.377 1_546 S
C2735 C2734 1.525 . S
C2735 C2736 1.387 1_545 S
C2735 C2740 1.370 . S
C2736 H2713 0.950 . S
C2736 C2735 1.387 1_565 S
C2736 C2737 1.334 . S
C2737 H2714 0.950 . S
C2737 C2736 1.334 . S
C2737 C2738 1.287 . S
C2738 C2737 1.287 . S
C2738 C2739 1.524 1_565 S
C2738 H2757 0.913 . S
C2739 H2715 0.950 . S
C2739 C2738 1.524 1_545 S
C2739 C2740 1.415 . S
C2740 H2716 0.918 1_556 S
C2740 C2735 1.370 . S
C2740 C2739 1.415 . S
C2741 H2717 0.951 . S
C2741 C2742 1.366 . S
C2741 C2743 1.388 . S
C2742 C2741 1.366 . S
C2742 C2746 1.385 . S
C2743 H2718 0.951 . S
C2743 C2741 1.388 . S
C2743 C2744 1.366 . S
C2744 C2743 1.366 . S
C2744 C2745 1.414 . S
C2744 C2747 1.499 . S
C2745 H2719 0.950 . S
C2745 C2744 1.414 . S
C2745 C2746 1.374 . S
C2746 H2720 0.950 . S
C2746 C2742 1.385 . S
C2746 C2745 1.374 . S
C2747 C2744 1.499 . S
C2747 C2748 1.373 . S
C2747 C2749 1.389 . S
C2748 H2721 0.950 . S
C2748 C2734 1.377 1_564 S
C2748 C2747 1.373 . S
C2749 C2733 1.377 1_564 S
C2749 C2747 1.389 . S
C2749 C2750 1.525 . S
C2750 C2749 1.525 . S
C2750 C2751 1.387 1_565 S
C2750 C2755 1.370 . S
C2751 H2722 0.950 . S
C2751 C2750 1.387 1_545 S
C2751 C2752 1.334 . S
C2752 H2723 0.950 . S
C2752 C2751 1.334 . S
C2752 C2753 1.287 . S
C2753 C2752 1.287 . S
C2753 C2754 1.524 1_545 S
C2753 H2756 0.999 . S
C2754 H2724 0.950 . S
C2754 C2753 1.524 1_565 S
C2754 C2755 1.415 . S
C2755 H2725 0.918 1_554 S
C2755 C2750 1.370 . S
C2755 C2754 1.415 . S
H2756 C2753 0.999 . S
H2757 C2738 0.913 . S
H2758 C2776 0.951 . S
H2759 C2778 0.951 . S
H2760 C2780 0.950 . S
H2761 C2781 0.950 . S
H2762 C2783 0.950 . S
H2763 C2786 0.950 . S
H2764 C2787 0.950 . S
H2765 C2789 0.950 . S
H2766 C2790 0.950 . S
H2767 C2791 0.951 . S
H2768 C2793 0.951 . S
H2769 C2795 0.950 . S
H2770 C2796 0.950 . S
H2771 C2798 0.950 . S
H2772 C2801 0.950 . S
H2773 C2802 0.950 . S
H2774 C2804 0.950 . S
H2775 C2805 0.950 . S
C2776 H2758 0.951 . S
C2776 C2777 1.366 . S
C2776 C2778 1.388 . S
C2777 C2776 1.366 . S
C2777 C2781 1.385 . S
C2778 H2759 0.951 . S
C2778 C2776 1.388 . S
C2778 C2779 1.366 . S
C2779 C2778 1.366 . S
C2779 C2780 1.414 . S
C2779 C2782 1.499 . S
C2780 H2760 0.950 . S
C2780 C2779 1.414 . S
C2780 C2781 1.374 . S
C2781 H2761 0.950 . S
C2781 C2777 1.385 . S
C2781 C2780 1.374 . S
C2782 C2779 1.499 . S
C2782 C2783 1.373 . S
C2782 C2784 1.389 . S
C2783 H2762 0.950 . S
C2783 C2782 1.373 . S
C2783 C2799 1.377 . S
C2784 C2782 1.389 . S
C2784 C2785 1.524 . S
C2784 C2798 1.377 . S
C2785 C2784 1.524 . S
C2785 C2786 1.397 . S
C2785 C2790 1.363 . S
C2786 H2763 0.950 . S
C2786 C2785 1.397 . S
C2786 C2787 1.334 . S
C2787 H2764 0.950 . S
C2787 C2786 1.334 . S
C2787 C2788 1.287 . S
C2788 C2787 1.287 . S
C2788 C2789 1.524 . S
C2788 H2807 0.913 . S
C2789 H2765 0.950 . S
C2789 C2788 1.524 . S
C2789 C2790 1.415 . S
C2790 H2766 0.950 . S
C2790 C2785 1.363 . S
C2790 C2789 1.415 . S
C2791 H2767 0.951 . S
C2791 C2792 1.366 . S
C2791 C2793 1.388 . S
C2792 C2791 1.366 . S
C2792 C2796 1.385 . S
C2793 H2768 0.951 . S
C2793 C2791 1.388 . S
C2793 C2794 1.366 . S
C2794 C2793 1.366 . S
C2794 C2795 1.414 . S
C2794 C2797 1.499 . S
C2795 H2769 0.950 . S
C2795 C2794 1.414 . S
C2795 C2796 1.374 . S
C2796 H2770 0.950 . S
C2796 C2792 1.385 . S
C2796 C2795 1.374 . S
C2797 C2794 1.499 . S
C2797 C2798 1.373 . S
C2797 C2799 1.389 . S
C2798 H2771 0.950 . S
C2798 C2784 1.377 . S
C2798 C2797 1.373 . S
C2799 C2783 1.377 . S
C2799 C2797 1.389 . S
C2799 C2800 1.524 . S
C2800 C2799 1.524 . S
C2800 C2801 1.397 . S
C2800 C2805 1.363 . S
C2801 H2772 0.950 . S
C2801 C2800 1.397 . S
C2801 C2802 1.334 . S
C2802 H2773 0.950 . S
C2802 C2801 1.334 . S
C2802 C2803 1.287 . S
C2803 C2802 1.287 . S
C2803 C2804 1.524 . S
C2803 H2806 0.999 . S
C2804 H2774 0.950 . S
C2804 C2803 1.524 . S
C2804 C2805 1.415 . S
C2805 H2775 0.950 . S
C2805 C2800 1.363 . S
C2805 C2804 1.415 . S
H2806 C2803 0.999 . S
H2807 C2788 0.913 . S
H2808 C2826 0.951 . S
H2809 C2828 0.951 . S
H2810 C2830 0.950 1_565 S
H2811 C2831 0.950 . S
H2812 C2833 0.950 . S
H2813 C2836 0.950 . S
H2814 C2837 0.950 . S
H2815 C2839 0.950 . S
H2816 C2840 0.950 . S
H2817 C2841 0.951 . S
H2818 C2843 0.951 . S
H2819 C2845 0.950 1_545 S
H2820 C2846 0.950 . S
H2821 C2848 0.950 . S
H2822 C2851 0.950 . S
H2823 C2852 0.950 . S
H2824 C2854 0.950 . S
H2825 C2855 0.950 . S
C2826 H2808 0.951 . S
C2826 C2827 1.366 . S
C2826 C2828 1.388 . S
C2827 C2826 1.366 . S
C2827 C2831 1.385 . S
C2828 H2809 0.951 . S
C2828 C2826 1.388 . S
C2828 C2829 1.366 . S
C2829 C2828 1.366 . S
C2829 C2830 1.414 . S
C2829 C2832 1.499 . S
C2830 H2810 0.950 1_545 S
C2830 C2829 1.414 . S
C2830 C2831 1.374 . S
C2831 H2811 0.950 . S
C2831 C2827 1.385 . S
C2831 C2830 1.374 . S
C2832 C2829 1.499 . S
C2832 C2833 1.373 1_545 S
C2832 C2834 1.389 . S
C2833 H2812 0.950 . S
C2833 C2832 1.373 1_565 S
C2833 C2849 1.377 . S
C2834 C2832 1.389 . S
C2834 C2835 1.524 . S
C2834 C2848 1.377 . S
C2835 C2834 1.524 . S
C2835 C2836 1.397 . S
C2835 C2840 1.363 . S
C2836 H2813 0.950 . S
C2836 C2835 1.397 . S
C2836 C2837 1.334 . S
C2837 H2814 0.950 . S
C2837 C2836 1.334 . S
C2837 C2838 1.287 . S
C2838 C2837 1.287 . S
C2838 C2839 1.524 . S
C2838 H2857 0.913 . S
C2839 H2815 0.950 . S
C2839 C2838 1.524 . S
C2839 C2840 1.415 . S
C2840 H2816 0.950 . S
C2840 C2835 1.363 . S
C2840 C2839 1.415 . S
C2841 H2817 0.951 . S
C2841 C2842 1.366 . S
C2841 C2843 1.388 . S
C2842 C2841 1.366 . S
C2842 C2846 1.385 . S
C2843 H2818 0.951 . S
C2843 C2841 1.388 . S
C2843 C2844 1.366 . S
C2844 C2843 1.366 . S
C2844 C2845 1.414 . S
C2844 C2847 1.499 . S
C2845 H2819 0.950 1_565 S
C2845 C2844 1.414 . S
C2845 C2846 1.374 . S
C2846 H2820 0.950 . S
C2846 C2842 1.385 . S
C2846 C2845 1.374 . S
C2847 C2844 1.499 . S
C2847 C2848 1.373 1_565 S
C2847 C2849 1.389 . S
C2848 H2821 0.950 . S
C2848 C2834 1.377 . S
C2848 C2847 1.373 1_545 S
C2849 C2833 1.377 . S
C2849 C2847 1.389 . S
C2849 C2850 1.524 . S
C2850 C2849 1.524 . S
C2850 C2851 1.397 . S
C2850 C2855 1.363 . S
C2851 H2822 0.950 . S
C2851 C2850 1.397 . S
C2851 C2852 1.334 . S
C2852 H2823 0.950 . S
C2852 C2851 1.334 . S
C2852 C2853 1.287 . S
C2853 C2852 1.287 . S
C2853 C2854 1.524 . S
C2853 H2856 0.999 . S
C2854 H2824 0.950 . S
C2854 C2853 1.524 . S
C2854 C2855 1.415 . S
C2855 H2825 0.950 . S
C2855 C2850 1.363 . S
C2855 C2854 1.415 . S
H2856 C2853 0.999 . S
H2857 C2838 0.913 . S
H2858 C2876 0.951 . S
H2859 C2878 0.951 . S
H2860 C2880 0.950 . S
H2861 C2881 0.950 . S
H2862 C2883 0.950 . S
H2863 C2886 0.950 . S
H2864 C2887 0.950 . S
H2865 C2889 0.950 . S
H2866 C2890 0.950 . S
H2867 C2891 0.951 . S
H2868 C2893 0.951 . S
H2869 C2895 0.950 . S
H2870 C2896 0.950 . S
H2871 C2898 0.950 . S
H2872 C2901 0.950 . S
H2873 C2902 0.950 . S
H2874 C2904 0.950 . S
H2875 C2905 0.950 . S
C2876 H2858 0.951 . S
C2876 C2877 1.366 . S
C2876 C2878 1.388 . S
C2877 C2876 1.366 . S
C2877 C2881 1.385 . S
C2878 H2859 0.951 . S
C2878 C2876 1.388 . S
C2878 C2879 1.366 . S
C2879 C2878 1.366 . S
C2879 C2880 1.414 . S
C2879 C2882 1.499 . S
C2880 H2860 0.950 . S
C2880 C2879 1.414 . S
C2880 C2881 1.374 . S
C2881 H2861 0.950 . S
C2881 C2877 1.385 . S
C2881 C2880 1.374 . S
C2882 C2879 1.499 . S
C2882 C2883 1.373 . S
C2882 C2884 1.389 . S
C2883 H2862 0.950 . S
C2883 C2882 1.373 . S
C2883 C2899 1.377 . S
C2884 C2882 1.389 . S
C2884 C2885 1.524 . S
C2884 C2898 1.377 . S
C2885 C2884 1.524 . S
C2885 C2886 1.397 . S
C2885 C2890 1.363 . S
C2886 H2863 0.950 . S
C2886 C2885 1.397 . S
C2886 C2887 1.334 . S
C2887 H2864 0.950 . S
C2887 C2886 1.334 . S
C2887 C2888 1.287 . S
C2888 C2887 1.287 . S
C2888 C2889 1.524 . S
C2888 H2907 0.913 . S
C2889 H2865 0.950 . S
C2889 C2888 1.524 . S
C2889 C2890 1.415 . S
C2890 H2866 0.950 . S
C2890 C2885 1.363 . S
C2890 C2889 1.415 . S
C2891 H2867 0.951 . S
C2891 C2892 1.366 . S
C2891 C2893 1.388 . S
C2892 C2891 1.366 . S
C2892 C2896 1.385 . S
C2893 H2868 0.951 . S
C2893 C2891 1.388 . S
C2893 C2894 1.366 . S
C2894 C2893 1.366 . S
C2894 C2895 1.414 . S
C2894 C2897 1.499 . S
C2895 H2869 0.950 . S
C2895 C2894 1.414 . S
C2895 C2896 1.374 . S
C2896 H2870 0.950 . S
C2896 C2892 1.385 . S
C2896 C2895 1.374 . S
C2897 C2894 1.499 . S
C2897 C2898 1.373 . S
C2897 C2899 1.389 . S
C2898 H2871 0.950 . S
C2898 C2884 1.377 . S
C2898 C2897 1.373 . S
C2899 C2883 1.377 . S
C2899 C2897 1.389 . S
C2899 C2900 1.524 . S
C2900 C2899 1.524 . S
C2900 C2901 1.397 . S
C2900 C2905 1.363 . S
C2901 H2872 0.950 . S
C2901 C2900 1.397 . S
C2901 C2902 1.334 . S
C2902 H2873 0.950 . S
C2902 C2901 1.334 . S
C2902 C2903 1.287 . S
C2903 C2902 1.287 . S
C2903 C2904 1.524 . S
C2903 H2906 0.999 . S
C2904 H2874 0.950 . S
C2904 C2903 1.524 . S
C2904 C2905 1.415 . S
C2905 H2875 0.950 . S
C2905 C2900 1.363 . S
C2905 C2904 1.415 . S
H2906 C2903 0.999 . S
H2907 C2888 0.913 . S
H2908 C2926 0.951 . S
H2909 C2928 0.916 1_545 S
H2910 C2930 0.950 . S
H2911 C2931 0.950 . S
H2912 C2933 0.950 . S
H2913 C2936 0.950 . S
H2914 C2937 0.950 . S
H2915 C2939 0.950 . S
H2916 C2940 0.950 . S
H2917 C2941 0.951 . S
H2918 C2943 0.916 1_565 S
H2919 C2945 0.950 . S
H2920 C2946 0.950 . S
H2921 C2948 0.950 . S
H2922 C2951 0.950 . S
H2923 C2952 0.950 . S
H2924 C2954 0.950 . S
H2925 C2955 0.950 . S
C2926 H2908 0.951 . S
C2926 C2927 1.366 . S
C2926 C2928 1.388 . S
C2927 C2926 1.366 . S
C2927 C2931 1.385 . S
C2928 H2909 0.916 1_565 S
C2928 C2926 1.388 . S
C2928 C2929 1.366 . S
C2929 C2928 1.366 . S
C2929 C2930 1.414 . S
C2929 C2932 1.499 . S
C2930 H2910 0.950 . S
C2930 C2929 1.414 . S
C2930 C2931 1.374 . S
C2931 H2911 0.950 . S
C2931 C2927 1.385 . S
C2931 C2930 1.374 . S
C2932 C2929 1.499 . S
C2932 C2933 1.373 . S
C2932 C2934 1.385 1_565 S
C2933 H2912 0.950 . S
C2933 C2932 1.373 . S
C2933 C2949 1.381 1_554 S
C2934 C2932 1.385 1_545 S
C2934 C2935 1.524 . S
C2934 C2948 1.381 1_554 S
C2935 C2934 1.524 . S
C2935 C2936 1.391 1_545 S
C2935 C2940 1.368 . S
C2936 H2913 0.950 . S
C2936 C2935 1.391 1_565 S
C2936 C2937 1.334 . S
C2937 H2914 0.950 . S
C2937 C2936 1.334 . S
C2937 C2938 1.287 . S
C2938 C2937 1.287 . S
C2938 C2939 1.524 1_565 S
C2938 H2957 0.913 . S
C2939 H2915 0.950 . S
C2939 C2938 1.524 1_545 S
C2939 C2940 1.415 . S
C2940 H2916 0.950 . S
C2940 C2935 1.368 . S
C2940 C2939 1.415 . S
C2941 H2917 0.951 . S
C2941 C2942 1.366 . S
C2941 C2943 1.388 . S
C2942 C2941 1.366 . S
C2942 C2946 1.385 . S
C2943 H2918 0.916 1_545 S
C2943 C2941 1.388 . S
C2943 C2944 1.366 . S
C2944 C2943 1.366 . S
C2944 C2945 1.414 . S
C2944 C2947 1.499 . S
C2945 H2919 0.950 . S
C2945 C2944 1.414 . S
C2945 C2946 1.374 . S
C2946 H2920 0.950 . S
C2946 C2942 1.385 . S
C2946 C2945 1.374 . S
C2947 C2944 1.499 . S
C2947 C2948 1.373 . S
C2947 C2949 1.385 1_545 S
C2948 H2921 0.950 . S
C2948 C2934 1.381 1_556 S
C2948 C2947 1.373 . S
C2949 C2933 1.381 1_556 S
C2949 C2947 1.385 1_565 S
C2949 C2950 1.524 . S
C2950 C2949 1.524 . S
C2950 C2951 1.391 1_565 S
C2950 C2955 1.368 . S
C2951 H2922 0.950 . S
C2951 C2950 1.391 1_545 S
C2951 C2952 1.334 . S
C2952 H2923 0.950 . S
C2952 C2951 1.334 . S
C2952 C2953 1.287 . S
C2953 C2952 1.287 . S
C2953 C2954 1.524 1_545 S
C2953 H2956 0.999 . S
C2954 H2924 0.950 . S
C2954 C2953 1.524 1_565 S
C2954 C2955 1.415 . S
C2955 H2925 0.950 . S
C2955 C2950 1.368 . S
C2955 C2954 1.415 . S
H2956 C2953 0.999 . S
H2957 C2938 0.913 . S
H2958 C2976 0.951 . S
H2959 C2978 0.951 . S
H2960 C2980 0.950 . S
H2961 C2981 0.950 . S
H2962 C2983 0.950 . S
H2963 C2986 0.950 . S
H2964 C2987 0.950 . S
H2965 C2989 0.950 . S
H2966 C2990 0.950 . S
H2967 C2991 0.951 . S
H2968 C2993 0.951 . S
H2969 C2995 0.950 . S
H2970 C2996 0.950 . S
H2971 C2998 0.950 . S
H2972 C3001 0.950 . S
H2973 C3002 0.950 . S
H2974 C3004 0.950 . S
H2975 C3005 0.950 . S
C2976 H2958 0.951 . S
C2976 C2977 1.366 . S
C2976 C2978 1.388 . S
C2977 C2976 1.366 . S
C2977 C2981 1.385 . S
C2978 H2959 0.951 . S
C2978 C2976 1.388 . S
C2978 C2979 1.366 . S
C2979 C2978 1.366 . S
C2979 C2980 1.414 . S
C2979 C2982 1.499 . S
C2980 H2960 0.950 . S
C2980 C2979 1.414 . S
C2980 C2981 1.374 . S
C2981 H2961 0.950 . S
C2981 C2977 1.385 . S
C2981 C2980 1.374 . S
C2982 C2979 1.499 . S
C2982 C2983 1.373 . S
C2982 C2984 1.389 . S
C2983 H2962 0.950 . S
C2983 C2982 1.373 . S
C2983 C2999 1.377 . S
C2984 C2982 1.389 . S
C2984 C2985 1.524 . S
C2984 C2998 1.377 . S
C2985 C2984 1.524 . S
C2985 C2986 1.397 . S
C2985 C2990 1.363 . S
C2986 H2963 0.950 . S
C2986 C2985 1.397 . S
C2986 C2987 1.334 . S
C2987 H2964 0.950 . S
C2987 C2986 1.334 . S
C2987 C2988 1.287 . S
C2988 C2987 1.287 . S
C2988 C2989 1.524 . S
C2988 H3007 0.913 . S
C2989 H2965 0.950 . S
C2989 C2988 1.524 . S
C2989 C2990 1.415 . S
C2990 H2966 0.950 . S
C2990 C2985 1.363 . S
C2990 C2989 1.415 . S
C2991 H2967 0.951 . S
C2991 C2992 1.366 . S
C2991 C2993 1.388 . S
C2992 C2991 1.366 . S
C2992 C2996 1.385 . S
C2993 H2968 0.951 . S
C2993 C2991 1.388 . S
C2993 C2994 1.366 . S
C2994 C2993 1.366 . S
C2994 C2995 1.414 . S
C2994 C2997 1.499 . S
C2995 H2969 0.950 . S
C2995 C2994 1.414 . S
C2995 C2996 1.374 . S
C2996 H2970 0.950 . S
C2996 C2992 1.385 . S
C2996 C2995 1.374 . S
C2997 C2994 1.499 . S
C2997 C2998 1.373 . S
C2997 C2999 1.389 . S
C2998 H2971 0.950 . S
C2998 C2984 1.377 . S
C2998 C2997 1.373 . S
C2999 C2983 1.377 . S
C2999 C2997 1.389 . S
C2999 C3000 1.524 . S
C3000 C2999 1.524 . S
C3000 C3001 1.397 . S
C3000 C3005 1.363 . S
C3001 H2972 0.950 . S
C3001 C3000 1.397 . S
C3001 C3002 1.334 . S
C3002 H2973 0.950 . S
C3002 C3001 1.334 . S
C3002 C3003 1.287 . S
C3003 C3002 1.287 . S
C3003 C3004 1.524 . S
C3003 H3006 0.999 . S
C3004 H2974 0.950 . S
C3004 C3003 1.524 . S
C3004 C3005 1.415 . S
C3005 H2975 0.950 . S
C3005 C3000 1.363 . S
C3005 C3004 1.415 . S
H3006 C3003 0.999 . S
H3007 C2988 0.913 . S
C1427 C1017 1.438 . S
C1442 C20 1.440 . S
C1477 C1369 1.438 . S
C1492 C108 1.439 . S
C1527 C225 1.439 . S
C1542 C812 1.438 . S
C1577 C1164 1.439 . S
C1592 C321 1.439 . S
C1627 C409 1.439 . S
C1642 C1173 1.439 . S
C1677 C469 1.439 . S
C1692 C1025 1.439 . S
C1727 C548 1.439 . S
C1742 C1377 1.439 . S
C1777 C673 1.439 . S
C1792 C821 1.439 . S
C1827 C284 1.439 . S
C1842 C761 1.439 . S
C1877 C900 1.439 . S
C1892 C145 1.439 . S
C1927 C1076 1.439 . S
C1942 C489 1.439 . S
C1977 C1281 1.438 . S
C1992 C636 1.440 . S
C2027 C372 1.439 . S
C2042 C753 1.439 . S
C2077 C909 1.439 . S
C2092 C585 1.439 . S
C2127 C1289 1.438 . S
C2142 C205 1.439 . S
C2177 C57 1.439 . S
C2192 C1085 1.439 . S
C2227 C49 0.791 . S
C2242 C381 0.791 . S
C2277 C137 0.792 . S
C2292 C497 0.791 . S
C2327 C196 0.791 . S
C2342 C577 0.791 . S
C2377 C645 0.791 . S
C2392 C293 0.792 . S
C2427 C733 0.795 . S
C2442 C1105 0.794 . S
C2477 C1193 0.795 . S
C2492 C849 0.794 . S
C2527 C929 0.795 . S
C2542 C1252 0.794 . S
C2577 C1340 0.795 . S
C2592 C997 0.794 . S
C2627 C665 0.791 . S
C2642 C117 0.792 . S
C2677 C233 0.791 . S
C2692 C401 0.791 . S
C2727 C313 0.792 . S
C2742 C460 0.791 . S
C2777 C29 0.792 . S
C2792 C557 0.791 . S
C2827 C841 0.794 . S
C2842 C1349 0.795 . S
C2877 C1113 0.794 . S
C2892 C937 0.795 . S
C2927 C988 0.795 . S
C2942 C1201 0.794 . S
C2977 C1261 0.795 . S
C2992 C724 0.795 . S
