# Generated by pormake.
# Topology wmi, (6)-cn, num edge types: 1
# Building blocks:
#     Node 0, Type 0, BuildingBlock: MIFKUJ_clean_sbu_0, # of connection points: 6
#     Node 1, Type 0, BuildingBlock: MIFKUJ_clean_sbu_0, # of connection points: 6
#     Node 2, Type 0, BuildingBlock: MIFKUJ_clean_sbu_0, # of connection points: 6
#     Node 3, Type 0, BuildingBlock: MIFKUJ_clean_sbu_0, # of connection points: 6
#     Node 4, Type 0, BuildingBlock: MIFKUJ_clean_sbu_0, # of connection points: 6
#     Node 5, Type 0, BuildingBlock: MIFKUJ_clean_sbu_0, # of connection points: 6
#     Node 6, Type 0, BuildingBlock: MIFKUJ_clean_sbu_0, # of connection points: 6
#     Node 7, Type 0, BuildingBlock: MIFKUJ_clean_sbu_0, # of connection points: 6
#     Node 8, Type 0, BuildingBlock: MIFKUJ_clean_sbu_0, # of connection points: 6
#     Node 9, Type 0, BuildingBlock: MIFKUJ_clean_sbu_0, # of connection points: 6
#     Node 10, Type 0, BuildingBlock: MIFKUJ_clean_sbu_0, # of connection points: 6
#     Node 11, Type 0, BuildingBlock: MIFKUJ_clean_sbu_0, # of connection points: 6
#     Node 12, Type 0, BuildingBlock: MIFKUJ_clean_sbu_0, # of connection points: 6
#     Node 13, Type 0, BuildingBlock: MIFKUJ_clean_sbu_0, # of connection points: 6
#     Node 14, Type 0, BuildingBlock: MIFKUJ_clean_sbu_0, # of connection points: 6
#     Node 15, Type 0, BuildingBlock: MIFKUJ_clean_sbu_0, # of connection points: 6
#     Node 16, Type 0, BuildingBlock: MIFKUJ_clean_sbu_0, # of connection points: 6
#     Node 17, Type 0, BuildingBlock: MIFKUJ_clean_sbu_0, # of connection points: 6
#     Edge 18, Type (0, 0), BuildingBlock: CIFDUS_clean_linker_0, # of connection points: 2
#     Edge 19, Type (0, 0), BuildingBlock: CIFDUS_clean_linker_0, # of connection points: 2
#     Edge 20, Type (0, 0), BuildingBlock: CIFDUS_clean_linker_0, # of connection points: 2
#     Edge 21, Type (0, 0), BuildingBlock: CIFDUS_clean_linker_0, # of connection points: 2
#     Edge 22, Type (0, 0), BuildingBlock: CIFDUS_clean_linker_0, # of connection points: 2
#     Edge 23, Type (0, 0), BuildingBlock: CIFDUS_clean_linker_0, # of connection points: 2
#     Edge 24, Type (0, 0), BuildingBlock: CIFDUS_clean_linker_0, # of connection points: 2
#     Edge 25, Type (0, 0), BuildingBlock: CIFDUS_clean_linker_0, # of connection points: 2
#     Edge 26, Type (0, 0), BuildingBlock: CIFDUS_clean_linker_0, # of connection points: 2
#     Edge 27, Type (0, 0), BuildingBlock: CIFDUS_clean_linker_0, # of connection points: 2
#     Edge 28, Type (0, 0), BuildingBlock: CIFDUS_clean_linker_0, # of connection points: 2
#     Edge 29, Type (0, 0), BuildingBlock: CIFDUS_clean_linker_0, # of connection points: 2
#     Edge 30, Type (0, 0), BuildingBlock: CIFDUS_clean_linker_0, # of connection points: 2
#     Edge 31, Type (0, 0), BuildingBlock: CIFDUS_clean_linker_0, # of connection points: 2
#     Edge 32, Type (0, 0), BuildingBlock: CIFDUS_clean_linker_0, # of connection points: 2
#     Edge 33, Type (0, 0), BuildingBlock: CIFDUS_clean_linker_0, # of connection points: 2
#     Edge 34, Type (0, 0), BuildingBlock: CIFDUS_clean_linker_0, # of connection points: 2
#     Edge 35, Type (0, 0), BuildingBlock: CIFDUS_clean_linker_0, # of connection points: 2
#     Edge 36, Type (0, 0), BuildingBlock: CIFDUS_clean_linker_0, # of connection points: 2
#     Edge 37, Type (0, 0), BuildingBlock: CIFDUS_clean_linker_0, # of connection points: 2
#     Edge 38, Type (0, 0), BuildingBlock: CIFDUS_clean_linker_0, # of connection points: 2
#     Edge 39, Type (0, 0), BuildingBlock: CIFDUS_clean_linker_0, # of connection points: 2
#     Edge 40, Type (0, 0), BuildingBlock: CIFDUS_clean_linker_0, # of connection points: 2
#     Edge 41, Type (0, 0), BuildingBlock: CIFDUS_clean_linker_0, # of connection points: 2
#     Edge 42, Type (0, 0), BuildingBlock: CIFDUS_clean_linker_0, # of connection points: 2
#     Edge 43, Type (0, 0), BuildingBlock: CIFDUS_clean_linker_0, # of connection points: 2
#     Edge 44, Type (0, 0), BuildingBlock: CIFDUS_clean_linker_0, # of connection points: 2
#     Edge 45, Type (0, 0), BuildingBlock: CIFDUS_clean_linker_0, # of connection points: 2
#     Edge 46, Type (0, 0), BuildingBlock: CIFDUS_clean_linker_0, # of connection points: 2
#     Edge 47, Type (0, 0), BuildingBlock: CIFDUS_clean_linker_0, # of connection points: 2
#     Edge 48, Type (0, 0), BuildingBlock: CIFDUS_clean_linker_0, # of connection points: 2
#     Edge 49, Type (0, 0), BuildingBlock: CIFDUS_clean_linker_0, # of connection points: 2
#     Edge 50, Type (0, 0), BuildingBlock: CIFDUS_clean_linker_0, # of connection points: 2
#     Edge 51, Type (0, 0), BuildingBlock: CIFDUS_clean_linker_0, # of connection points: 2
#     Edge 52, Type (0, 0), BuildingBlock: CIFDUS_clean_linker_0, # of connection points: 2
#     Edge 53, Type (0, 0), BuildingBlock: CIFDUS_clean_linker_0, # of connection points: 2
#     Edge 54, Type (0, 0), BuildingBlock: CIFDUS_clean_linker_0, # of connection points: 2
#     Edge 55, Type (0, 0), BuildingBlock: CIFDUS_clean_linker_0, # of connection points: 2
#     Edge 56, Type (0, 0), BuildingBlock: CIFDUS_clean_linker_0, # of connection points: 2
#     Edge 57, Type (0, 0), BuildingBlock: CIFDUS_clean_linker_0, # of connection points: 2
#     Edge 58, Type (0, 0), BuildingBlock: CIFDUS_clean_linker_0, # of connection points: 2
#     Edge 59, Type (0, 0), BuildingBlock: CIFDUS_clean_linker_0, # of connection points: 2
#     Edge 60, Type (0, 0), BuildingBlock: CIFDUS_clean_linker_0, # of connection points: 2
#     Edge 61, Type (0, 0), BuildingBlock: CIFDUS_clean_linker_0, # of connection points: 2
#     Edge 62, Type (0, 0), BuildingBlock: CIFDUS_clean_linker_0, # of connection points: 2
#     Edge 63, Type (0, 0), BuildingBlock: CIFDUS_clean_linker_0, # of connection points: 2
#     Edge 64, Type (0, 0), BuildingBlock: CIFDUS_clean_linker_0, # of connection points: 2
#     Edge 65, Type (0, 0), BuildingBlock: CIFDUS_clean_linker_0, # of connection points: 2
#     Edge 66, Type (0, 0), BuildingBlock: CIFDUS_clean_linker_0, # of connection points: 2
#     Edge 67, Type (0, 0), BuildingBlock: CIFDUS_clean_linker_0, # of connection points: 2
#     Edge 68, Type (0, 0), BuildingBlock: CIFDUS_clean_linker_0, # of connection points: 2
#     Edge 69, Type (0, 0), BuildingBlock: CIFDUS_clean_linker_0, # of connection points: 2
#     Edge 70, Type (0, 0), BuildingBlock: CIFDUS_clean_linker_0, # of connection points: 2
#     Edge 71, Type (0, 0), BuildingBlock: CIFDUS_clean_linker_0, # of connection points: 2
# Relax obj value: 0.083
# Max RMSD: 0.188
# Mean RMSD: 0.188
data_MOF--net-wmi--node1-MIFKUJ_clean_sbu_0--edge1-CIFDUS_clean_linker_0
_symmetry_space_group_name_H-M    P1
_symmetry_Int_Tables_number       1
_symmetry_cell_setting            triclinic
loop_
_symmetry_equiv_pos_as_xyz
'x, y, z'
_cell_length_a     31.416251
_cell_length_b     31.32022
_cell_length_c     67.917508
_cell_angle_alpha  90.288299
_cell_angle_beta   89.977969
_cell_angle_gamma 120.13785
loop_
_atom_site_label
_atom_site_type_symbol
_atom_site_fract_x
_atom_site_fract_y
_atom_site_fract_z
_atom_type_partial_charge
Zn0 Zn 0.43275 0.94315 0.07779 0.0
Zn1 Zn 0.5319 0.06947 0.08622 0.0
C2 C 0.51457 0.9281 0.08754 0.0
O3 O 0.53874 0.96272 0.07448 0.0
C4 C 0.51148 0.14838 0.09677 0.0
O5 O 0.5135 0.13625 0.1151 0.0
O6 O 0.36678 0.88324 0.07276 0.0
O7 O 0.421 0.99075 0.09282 0.0
O8 O 0.49068 0.02777 0.10912 0.0
C9 C 0.34076 0.85546 0.0867 0.0
O10 O 0.35671 0.86727 0.10491 0.0
O11 O 0.47139 0.91786 0.09242 0.0
C12 C 0.63565 0.13135 0.08146 0.0
O13 O 0.62161 0.13114 0.06323 0.0
O14 O 0.60345 0.10475 0.09412 0.0
O15 O 0.52402 0.04267 0.05838 0.0
O16 O 0.46188 0.96771 0.05176 0.0
O17 O 0.51688 0.12424 0.08286 0.0
C18 C 0.44395 0.00475 0.10899 0.0
C19 C 0.49909 0.00765 0.0463 0.0
Zn20 Zn 0.06654 0.4754 0.08078 0.0
Zn21 Zn 0.96698 0.47524 0.09196 0.0
C22 C 0.12386 0.5774 0.07793 0.0
O23 O 0.12602 0.56211 0.06011 0.0
C24 C 0.89453 0.3732 0.09779 0.0
O25 O 0.89816 0.38818 0.11614 0.0
O26 O 0.12464 0.46664 0.07519 0.0
O27 O 0.02684 0.42645 0.10105 0.0
O28 O 0.01033 0.47963 0.11493 0.0
C29 C 0.15336 0.47246 0.08945 0.0
O30 O 0.14241 0.48122 0.10713 0.0
O31 O 0.09736 0.54559 0.09072 0.0
C32 C 0.90083 0.51512 0.0919 0.0
O33 O 0.91417 0.52491 0.07339 0.0
O34 O 0.92009 0.49607 0.10258 0.0
O35 O 0.99463 0.51025 0.06597 0.0
O36 O 0.03176 0.46976 0.05586 0.0
O37 O 0.92248 0.40368 0.08489 0.0
C38 C 0.02159 0.44609 0.11646 0.0
C39 C 0.01105 0.49475 0.05221 0.0
Zn40 Zn 0.53629 0.60774 0.08923 0.0
Zn41 Zn 0.55974 0.51109 0.09776 0.0
C42 C 0.43458 0.54906 0.08499 0.0
O43 O 0.44913 0.56717 0.06727 0.0
C44 C 0.65421 0.52238 0.10905 0.0
O45 O 0.62966 0.49513 0.12418 0.0
O46 O 0.5404 0.67382 0.08966 0.0
O47 O 0.59001 0.61571 0.10686 0.0
O48 O 0.54886 0.54456 0.12143 0.0
C49 C 0.52386 0.68375 0.10506 0.0
O50 O 0.50532 0.65093 0.1192 0.0
O51 O 0.467 0.5591 0.09823 0.0
C52 C 0.5307 0.41099 0.08986 0.0
O53 O 0.55005 0.43067 0.07277 0.0
O54 O 0.52828 0.43828 0.1032 0.0
O55 O 0.54567 0.52089 0.06926 0.0
O56 O 0.54438 0.58952 0.0623 0.0
O57 O 0.6322 0.53497 0.09671 0.0
C58 C 0.57416 0.59126 0.12251 0.0
C59 C 0.54306 0.55002 0.05692 0.0
Zn60 Zn 0.94244 0.43238 0.9043 0.0
Zn61 Zn 0.07272 0.52298 0.89715 0.0
C62 C 0.93377 0.51806 0.89563 0.0
O63 O 0.96014 0.53571 0.91172 0.0
C64 C 0.15455 0.50636 0.88925 0.0
O65 O 0.14514 0.50949 0.87064 0.0
O66 O 0.87827 0.36807 0.90467 0.0
O67 O 0.9926 0.41773 0.89338 0.0
O68 O 0.03466 0.47995 0.87374 0.0
C69 C 0.85595 0.35026 0.88843 0.0
O70 O 0.87623 0.37368 0.87201 0.0
O71 O 0.92791 0.47798 0.88833 0.0
C72 C 0.12537 0.62689 0.90461 0.0
O73 O 0.11587 0.61066 0.92279 0.0
O74 O 0.1076 0.59581 0.89053 0.0
O75 O 0.039 0.51005 0.92382 0.0
O76 O 0.96127 0.45786 0.93148 0.0
O77 O 0.12783 0.50987 0.90246 0.0
C78 C 0.00698 0.43384 0.87623 0.0
C79 C 0.00448 0.4908 0.93644 0.0
Zn80 Zn 0.62354 0.56493 0.90927 0.0
Zn81 Zn 0.52175 0.57391 0.89965 0.0
C82 C 0.5661 0.46076 0.91067 0.0
O83 O 0.57798 0.47146 0.92932 0.0
C84 C 0.53564 0.66868 0.88795 0.0
O85 O 0.52118 0.64679 0.87072 0.0
O86 O 0.69097 0.57333 0.91177 0.0
O87 O 0.63198 0.61729 0.89066 0.0
O88 O 0.56049 0.56879 0.87689 0.0
C89 C 0.70902 0.56441 0.89659 0.0
O90 O 0.68274 0.54962 0.88034 0.0
O91 O 0.58021 0.4959 0.89843 0.0
C92 C 0.41969 0.53793 0.90395 0.0
O93 O 0.43494 0.55465 0.92186 0.0
O94 O 0.45066 0.54005 0.89139 0.0
O95 O 0.52461 0.55357 0.92774 0.0
O96 O 0.59971 0.56931 0.93575 0.0
O97 O 0.54054 0.64524 0.90216 0.0
C98 C 0.60585 0.60065 0.87532 0.0
C99 C 0.55616 0.55773 0.9405 0.0
Zn100 Zn 0.48058 0.08822 0.90337 0.0
Zn101 Zn 0.45284 0.95994 0.88888 0.0
C102 C 0.57964 0.14304 0.90918 0.0
O103 O 0.55935 0.14232 0.92618 0.0
C104 C 0.36146 0.87956 0.87395 0.0
O105 O 0.38786 0.8882 0.85789 0.0
O106 O 0.47055 0.14541 0.90959 0.0
O107 O 0.42991 0.04445 0.88403 0.0
O108 O 0.46368 0.00927 0.86731 0.0
C109 C 0.48043 0.17755 0.89632 0.0
O110 O 0.49318 0.17022 0.87875 0.0
O111 O 0.55172 0.11994 0.89464 0.0
C112 C 0.49792 0.90071 0.89474 0.0
O113 O 0.48921 0.90618 0.91323 0.0
O114 O 0.48763 0.92258 0.88145 0.0
O115 O 0.46918 0.98224 0.91747 0.0
O116 O 0.4763 0.05306 0.92784 0.0
O117 O 0.38091 0.90727 0.8889 0.0
C118 C 0.44576 0.0377 0.86791 0.0
C119 C 0.476 0.01309 0.9311 0.0
Zn120 Zn 0.0863 0.29937 0.42385 0.0
Zn121 Zn 0.20047 0.42174 0.42376 0.0
C122 C 0.12135 0.23474 0.42264 0.0
O123 O 0.0938 0.22448 0.40682 0.0
C124 C 0.19177 0.50325 0.43721 0.0
O125 O 0.21018 0.49489 0.45313 0.0
O126 O 0.01402 0.24849 0.42613 0.0
O127 O 0.10274 0.36298 0.43625 0.0
O128 O 0.17356 0.38634 0.4497 0.0
C129 C 0.99924 0.21776 0.44024 0.0
O130 O 0.03096 0.22196 0.4538 0.0
O131 O 0.12497 0.26837 0.4343 0.0
C132 C 0.29839 0.48543 0.41042 0.0
O133 O 0.27415 0.4821 0.39418 0.0
O134 O 0.2746 0.45992 0.42523 0.0
O135 O 0.17818 0.38264 0.39761 0.0
O136 O 0.1054 0.31291 0.39603 0.0
O137 O 0.18247 0.47503 0.42235 0.0
C138 C 0.12754 0.36813 0.45156 0.0
C139 C 0.1448 0.34575 0.388 0.0
Zn140 Zn 0.76961 0.84686 0.42421 0.0
Zn141 Zn 0.63926 0.80846 0.42897 0.0
C142 C 0.78225 0.9431 0.4339 0.0
O143 O 0.75791 0.93653 0.4174 0.0
C144 C 0.55988 0.71254 0.44012 0.0
O145 O 0.57478 0.73073 0.45789 0.0
O146 O 0.83182 0.84378 0.42278 0.0
O147 O 0.71983 0.78299 0.43556 0.0
O148 O 0.67747 0.80731 0.45294 0.0
C149 C 0.85703 0.85045 0.43833 0.0
O150 O 0.84181 0.85935 0.45506 0.0
O151 O 0.78681 0.90774 0.44059 0.0
C152 C 0.58193 0.85439 0.42245 0.0
O153 O 0.58508 0.84199 0.40422 0.0
O154 O 0.6053 0.84654 0.43588 0.0
O155 O 0.67161 0.82937 0.4018 0.0
O156 O 0.75057 0.85354 0.3973 0.0
O157 O 0.5829 0.73868 0.42531 0.0
C158 C 0.70417 0.7876 0.45206 0.0
C159 C 0.70919 0.84482 0.39068 0.0
Zn160 Zn 0.21766 0.95423 0.41093 0.0
Zn161 Zn 0.24472 0.85669 0.41813 0.0
C162 C 0.11562 0.88689 0.40748 0.0
O163 O 0.12858 0.89396 0.38888 0.0
C164 C 0.34298 0.87848 0.43029 0.0
O165 O 0.32382 0.86666 0.448 0.0
O166 O 0.21788 0.0181 0.40811 0.0
O167 O 0.27079 0.96626 0.42989 0.0
O168 O 0.23648 0.8912 0.44207 0.0
C169 C 0.21354 0.04065 0.42292 0.0
O170 O 0.2118 0.0233 0.44065 0.0
O171 O 0.14889 0.90669 0.42064 0.0
C172 C 0.1992 0.75287 0.40887 0.0
O173 O 0.20289 0.76942 0.39086 0.0
O174 O 0.2124 0.78321 0.42322 0.0
O175 O 0.22849 0.86661 0.39035 0.0
O176 O 0.22659 0.93508 0.38424 0.0
O177 O 0.31659 0.8784 0.41611 0.0
C178 C 0.26053 0.93778 0.44449 0.0
C179 C 0.22509 0.89587 0.37843 0.0
Zn180 Zn 0.59622 0.74591 0.2415 0.0
Zn181 Zn 0.72611 0.85265 0.24088 0.0
C182 C 0.57558 0.82483 0.23224 0.0
O183 O 0.60193 0.84611 0.24806 0.0
C184 C 0.80451 0.83506 0.2303 0.0
O185 O 0.7947 0.84475 0.21263 0.0
O186 O 0.54196 0.67462 0.24067 0.0
O187 O 0.65689 0.75137 0.23026 0.0
O188 O 0.69226 0.82175 0.21503 0.0
C189 C 0.51478 0.65787 0.22544 0.0
O190 O 0.52382 0.68704 0.21026 0.0
O191 O 0.57137 0.78439 0.22622 0.0
C192 C 0.78932 0.95154 0.25346 0.0
O193 O 0.78445 0.92803 0.27002 0.0
O194 O 0.76483 0.92696 0.23848 0.0
O195 O 0.68557 0.83263 0.26626 0.0
O196 O 0.60903 0.76971 0.26919 0.0
O197 O 0.77855 0.83454 0.24476 0.0
C198 C 0.6679 0.775 0.2143 0.0
C199 C 0.64739 0.80599 0.27663 0.0
Zn200 Zn 0.27706 0.88981 0.22965 0.0
Zn201 Zn 0.17345 0.9116 0.22227 0.0
C202 C 0.20997 0.78528 0.22903 0.0
O203 O 0.20688 0.79436 0.2477 0.0
C204 C 0.18828 0.00642 0.20922 0.0
O205 O 0.17793 0.98562 0.1917 0.0
O206 O 0.34611 0.90209 0.23177 0.0
O207 O 0.27873 0.94399 0.21411 0.0
O208 O 0.20879 0.90527 0.19841 0.0
C209 C 0.36423 0.8888 0.21792 0.0
O210 O 0.33786 0.86858 0.20198 0.0
O211 O 0.23591 0.82128 0.21762 0.0
C212 C 0.07158 0.86746 0.23172 0.0
O213 O 0.09036 0.88226 0.2494 0.0
O214 O 0.10029 0.87361 0.21745 0.0
O215 O 0.18826 0.89818 0.25002 0.0
O216 O 0.25354 0.89061 0.25636 0.0
O217 O 0.1898 0.98219 0.22387 0.0
C218 C 0.25545 0.92881 0.19809 0.0
C219 C 0.21576 0.89196 0.26203 0.0
Zn220 Zn 0.145 0.42029 0.23664 0.0
Zn221 Zn 0.11714 0.28969 0.23703 0.0
C222 C 0.24161 0.43573 0.22631 0.0
O223 O 0.2336 0.40557 0.24101 0.0
C224 C 0.02296 0.2096 0.22575 0.0
O225 O 0.04425 0.22161 0.20842 0.0
O226 O 0.13314 0.47771 0.23743 0.0
O227 O 0.08563 0.36189 0.22594 0.0
O228 O 0.11898 0.32364 0.21158 0.0
C229 C 0.14313 0.5062 0.22273 0.0
O230 O 0.15938 0.4965 0.20645 0.0
O231 O 0.20717 0.44303 0.22072 0.0
C232 C 0.16347 0.23335 0.24654 0.0
O233 O 0.15215 0.23951 0.26455 0.0
O234 O 0.15437 0.25396 0.2324 0.0
O235 O 0.14055 0.32938 0.26281 0.0
O236 O 0.15725 0.40742 0.26383 0.0
O237 O 0.04672 0.2348 0.24076 0.0
C238 C 0.09607 0.34719 0.21033 0.0
C239 C 0.15439 0.36981 0.27211 0.0
Zn240 Zn 0.73402 0.62642 0.74664 0.0
Zn241 Zn 0.84396 0.73232 0.74911 0.0
C242 C 0.76563 0.55965 0.74113 0.0
O243 O 0.73455 0.55176 0.72675 0.0
C244 C 0.83467 0.81878 0.75762 0.0
O245 O 0.846 0.81224 0.77554 0.0
O246 O 0.66325 0.57303 0.74839 0.0
O247 O 0.74143 0.68132 0.7636 0.0
O248 O 0.81305 0.69913 0.77515 0.0
C249 C 0.64974 0.54729 0.76398 0.0
O250 O 0.6819 0.55804 0.77823 0.0
O251 O 0.77376 0.59311 0.75381 0.0
C252 C 0.94468 0.79515 0.73987 0.0
O253 O 0.92469 0.79744 0.72321 0.0
O254 O 0.91693 0.76739 0.75346 0.0
O255 O 0.83067 0.69308 0.7233 0.0
O256 O 0.74976 0.64646 0.71912 0.0
O257 O 0.82965 0.78805 0.74418 0.0
C258 C 0.76898 0.68843 0.7782 0.0
C259 C 0.79329 0.6661 0.7125 0.0
Zn260 Zn 0.43075 0.17462 0.75743 0.0
Zn261 Zn 0.2849 0.13025 0.75066 0.0
C262 C 0.44119 0.26939 0.76695 0.0
O263 O 0.40804 0.25731 0.75302 0.0
C264 C 0.21391 0.02494 0.75156 0.0
O265 O 0.23038 0.02788 0.76958 0.0
O266 O 0.48157 0.15429 0.76179 0.0
O267 O 0.36271 0.12508 0.76327 0.0
O268 O 0.30249 0.12314 0.77903 0.0
C269 C 0.48459 0.1201 0.75295 0.0
O270 O 0.45075 0.09255 0.73995 0.0
O271 O 0.45352 0.23821 0.7722 0.0
C272 C 0.22702 0.1705 0.73588 0.0
O273 O 0.23043 0.14948 0.71962 0.0
O274 O 0.25057 0.17021 0.75106 0.0
O275 O 0.3438 0.15836 0.73104 0.0
O276 O 0.42447 0.18681 0.72915 0.0
O277 O 0.23324 0.06317 0.74079 0.0
C278 C 0.34278 0.12334 0.77952 0.0
C279 C 0.38365 0.17629 0.72102 0.0
Zn280 Zn 0.85488 0.27808 0.74827 0.0
Zn281 Zn 0.90719 0.19181 0.75448 0.0
C282 C 0.76206 0.19052 0.758 0.0
O283 O 0.77171 0.1719 0.74241 0.0
C284 C 0.00406 0.21099 0.76459 0.0
O285 O 0.98657 0.20819 0.78241 0.0
O286 O 0.85207 0.34141 0.74624 0.0
O287 O 0.92034 0.29537 0.7592 0.0
O288 O 0.9098 0.23425 0.77796 0.0
C289 C 0.85021 0.36269 0.762 0.0
O290 O 0.85198 0.34392 0.77903 0.0
O291 O 0.7951 0.23237 0.76452 0.0
C292 C 0.86874 0.08838 0.74831 0.0
O293 O 0.88442 0.10492 0.73048 0.0
O294 O 0.87156 0.11881 0.76149 0.0
O295 O 0.88228 0.20208 0.72802 0.0
O296 O 0.84993 0.24963 0.72177 0.0
O297 O 0.97717 0.20694 0.74989 0.0
C298 C 0.9211 0.27909 0.77607 0.0
C299 C 0.86333 0.2194 0.71612 0.0
Zn300 Zn 0.28691 0.07452 0.56969 0.0
Zn301 Zn 0.42075 0.17261 0.57167 0.0
C302 C 0.2795 0.16242 0.56266 0.0
O303 O 0.31245 0.18219 0.57675 0.0
C304 C 0.49837 0.14954 0.56393 0.0
O305 O 0.4897 0.15444 0.5454 0.0
O306 O 0.22503 0.00792 0.56781 0.0
O307 O 0.34245 0.06977 0.55798 0.0
O308 O 0.389 0.14282 0.54541 0.0
C309 C 0.20248 0.99349 0.5514 0.0
O310 O 0.22193 0.02096 0.53574 0.0
O311 O 0.26882 0.12029 0.55585 0.0
C312 C 0.48488 0.27331 0.58294 0.0
O313 O 0.48086 0.25238 0.60009 0.0
O314 O 0.45991 0.24654 0.56847 0.0
O315 O 0.37863 0.15465 0.59651 0.0
O316 O 0.30029 0.09479 0.59778 0.0
O317 O 0.47236 0.15391 0.57726 0.0
C318 C 0.36093 0.09672 0.54305 0.0
C319 C 0.33881 0.12883 0.60606 0.0
Zn320 Zn 0.95988 0.18347 0.5687 0.0
Zn321 Zn 0.86196 0.21156 0.56686 0.0
C322 C 0.87149 0.08824 0.56013 0.0
O323 O 0.85491 0.09558 0.57679 0.0
C324 C 0.87822 0.31017 0.55886 0.0
O325 O 0.87794 0.29808 0.54029 0.0
O326 O 0.02573 0.18739 0.56635 0.0
O327 O 0.96986 0.24585 0.55718 0.0
O328 O 0.89923 0.21602 0.54192 0.0
C329 C 0.03746 0.17766 0.54967 0.0
O330 O 0.0065 0.16541 0.53487 0.0
O331 O 0.9123 0.12216 0.55344 0.0
C332 C 0.7601 0.17068 0.57475 0.0
O333 O 0.77855 0.19074 0.59197 0.0
O334 O 0.78905 0.17158 0.56146 0.0
O335 O 0.87959 0.19282 0.59295 0.0
O336 O 0.94065 0.17742 0.59679 0.0
O337 O 0.87335 0.27973 0.5722 0.0
C338 C 0.9459 0.23961 0.54147 0.0
C339 C 0.90551 0.18165 0.60385 0.0
Zn340 Zn 0.82281 0.73447 0.56599 0.0
Zn341 Zn 0.80877 0.60918 0.56023 0.0
C342 C 0.92082 0.79903 0.569 0.0
O343 O 0.90018 0.80658 0.58443 0.0
C344 C 0.71283 0.52873 0.54873 0.0
O345 O 0.7318 0.54018 0.53098 0.0
O346 O 0.8019 0.7855 0.56641 0.0
O347 O 0.77288 0.67421 0.5524 0.0
O348 O 0.8125 0.6469 0.53537 0.0
C349 C 0.8138 0.81503 0.55198 0.0
O350 O 0.8376 0.80991 0.53708 0.0
O351 O 0.89337 0.76747 0.5561 0.0
C352 C 0.84633 0.54558 0.56869 0.0
O353 O 0.82585 0.54425 0.58573 0.0
O354 O 0.84626 0.57378 0.55533 0.0
O355 O 0.82805 0.64406 0.58732 0.0
O356 O 0.82804 0.71458 0.5927 0.0
O357 O 0.73842 0.55423 0.56333 0.0
C358 C 0.7881 0.669 0.53593 0.0
C359 C 0.83377 0.67939 0.59858 0.0
H360 H 0.47537 0.85444 0.11455 0.0
H361 H 0.59075 0.92194 0.07118 0.0
H362 H 0.60598 0.8531 0.07365 0.0
H363 H 0.57964 0.76906 0.08511 0.0
H364 H 0.46506 0.70218 0.12877 0.0
H365 H 0.45646 0.77542 0.12918 0.0
C366 C 0.50447 0.85457 0.1059 0.0
C367 C 0.53124 0.89286 0.09245 0.0
C368 C 0.51265 0.81456 0.10719 0.0
C369 C 0.56931 0.89281 0.08157 0.0
C370 C 0.57783 0.85323 0.08284 0.0
C371 C 0.55306 0.77074 0.0948 0.0
C372 C 0.52239 0.72999 0.10659 0.0
C373 C 0.54851 0.81309 0.09507 0.0
C374 C 0.48883 0.73296 0.11941 0.0
C375 C 0.48384 0.7748 0.11965 0.0
H376 H 0.27899 0.78523 0.11263 0.0
H377 H 0.30149 0.81861 0.05056 0.0
H378 H 0.2332 0.73681 0.04261 0.0
H379 H 0.17206 0.65374 0.05299 0.0
H380 H 0.14931 0.6187 0.11484 0.0
H381 H 0.2123 0.70348 0.12316 0.0
C382 C 0.26864 0.77479 0.09737 0.0
C383 C 0.29581 0.80786 0.08221 0.0
C384 C 0.22943 0.72736 0.09285 0.0
C385 C 0.28157 0.79385 0.06253 0.0
C386 C 0.24251 0.747 0.05795 0.0
C387 C 0.1805 0.66472 0.06831 0.0
C388 C 0.15649 0.62986 0.08326 0.0
C389 C 0.21698 0.71314 0.07295 0.0
C390 C 0.16736 0.64484 0.10304 0.0
C391 C 0.20355 0.69323 0.10781 0.0
H392 H 0.22305 0.48589 0.11655 0.0
H393 H 0.19184 0.46659 0.05417 0.0
H394 H 0.27501 0.48296 0.04766 0.0
H395 H 0.35872 0.51127 0.05924 0.0
H396 H 0.39147 0.5329 0.12141 0.0
H397 H 0.30524 0.50621 0.12846 0.0
C398 C 0.23423 0.48468 0.10154 0.0
C399 C 0.2014 0.47571 0.08584 0.0
C400 C 0.28241 0.4947 0.09786 0.0
C401 C 0.21638 0.47376 0.06652 0.0
C402 C 0.26401 0.48322 0.06277 0.0
C403 C 0.34691 0.50953 0.07438 0.0
C404 C 0.38155 0.52463 0.08976 0.0
C405 C 0.29767 0.49504 0.07826 0.0
C406 C 0.36554 0.52152 0.1093 0.0
C407 C 0.31631 0.50659 0.11332 0.0
H408 H 0.90951 0.57586 0.91703 0.0
H409 H 0.87843 0.49603 0.86199 0.0
H410 H 0.80815 0.50793 0.85649 0.0
H411 H 0.74975 0.53163 0.86941 0.0
H412 H 0.77779 0.60538 0.92579 0.0
H413 H 0.85503 0.60505 0.92868 0.0
C414 C 0.88812 0.56199 0.90359 0.0
C415 C 0.89904 0.53481 0.88999 0.0
C416 C 0.8466 0.56703 0.90096 0.0
C417 C 0.87071 0.51696 0.87272 0.0
C418 C 0.8303 0.52343 0.86964 0.0
C419 C 0.77302 0.54812 0.88224 0.0
C420 C 0.75773 0.56796 0.89748 0.0
C421 C 0.81689 0.54683 0.88401 0.0
C422 C 0.78839 0.58933 0.91396 0.0
C423 C 0.83263 0.58927 0.91561 0.0
H424 H 0.50311 0.25459 0.87176 0.0
H425 H 0.46815 0.20893 0.93234 0.0
H426 H 0.48711 0.29191 0.9417 0.0
H427 H 0.52157 0.37903 0.93335 0.0
H428 H 0.55798 0.4257 0.87299 0.0
H429 H 0.52987 0.34054 0.86286 0.0
C430 C 0.49903 0.2626 0.88698 0.0
C431 C 0.48488 0.22569 0.90137 0.0
C432 C 0.51055 0.31064 0.89233 0.0
C433 C 0.47929 0.23663 0.92097 0.0
C434 C 0.49028 0.28417 0.92636 0.0
C435 C 0.52288 0.37054 0.91793 0.0
C436 C 0.54246 0.40875 0.90399 0.0
C437 C 0.50721 0.32172 0.91226 0.0
C438 C 0.54323 0.39701 0.88404 0.0
C439 C 0.52738 0.34835 0.87825 0.0
H440 H 0.63401 0.18443 0.87592 0.0
H441 H 0.64628 0.17076 0.93858 0.0
H442 H 0.73386 0.23081 0.93741 0.0
H443 H 0.80515 0.2928 0.91937 0.0
H444 H 0.79402 0.30924 0.85685 0.0
H445 H 0.70827 0.24247 0.85717 0.0
C446 C 0.65614 0.19401 0.88921 0.0
C447 C 0.63363 0.17357 0.90732 0.0
C448 C 0.70664 0.22951 0.88853 0.0
C449 C 0.66265 0.18641 0.92447 0.0
C450 C 0.71277 0.22081 0.92385 0.0
C451 C 0.78417 0.28154 0.90577 0.0
C452 C 0.80583 0.30644 0.88819 0.0
C453 C 0.73485 0.24357 0.90608 0.0
C454 C 0.77817 0.29096 0.87065 0.0
C455 C 0.72906 0.25278 0.87081 0.0
H456 H 0.20206 0.09714 0.45094 0.0
H457 H 0.20398 0.07729 0.388 0.0
H458 H 0.17898 0.13829 0.38261 0.0
H459 H 0.15009 0.19191 0.39557 0.0
H460 H 0.14826 0.21385 0.45821 0.0
H461 H 0.18024 0.1577 0.46394 0.0
C462 C 0.19751 0.10655 0.43605 0.0
C463 C 0.2043 0.08211 0.41991 0.0
C464 C 0.18292 0.14178 0.433 0.0
C465 C 0.19872 0.09516 0.4007 0.0
C466 C 0.1843 0.13001 0.39758 0.0
C467 C 0.15704 0.18469 0.41049 0.0
C468 C 0.1463 0.20633 0.42647 0.0
C469 C 0.17524 0.15264 0.4136 0.0
C470 C 0.15626 0.19748 0.44569 0.0
C471 C 0.17428 0.16523 0.44895 0.0
H472 H 0.96124 0.13961 0.46526 0.0
H473 H 0.92527 0.19597 0.41386 0.0
H474 H 0.84942 0.1171 0.40945 0.0
H475 H 0.80011 0.02922 0.41725 0.0
H476 H 0.83874 0.97122 0.46738 0.0
H477 H 0.90602 0.0539 0.47547 0.0
C478 C 0.93645 0.13497 0.45327 0.0
C479 C 0.94945 0.17341 0.43969 0.0
C480 C 0.89345 0.08906 0.45052 0.0
C481 C 0.91655 0.16685 0.42439 0.0
C482 C 0.87316 0.12168 0.42183 0.0
C483 C 0.82252 0.0347 0.43021 0.0
C484 C 0.81484 0.99385 0.44149 0.0
C485 C 0.86221 0.08202 0.43436 0.0
C486 C 0.84412 1.00187 0.4583 0.0
C487 C 0.88282 0.04914 0.46288 0.0
H488 H 0.07585 0.89501 0.44207 0.0
H489 H 0.03728 0.83132 0.38373 0.0
H490 H 0.95229 0.81062 0.38883 0.0
H491 H 0.89154 0.81956 0.40816 0.0
H492 H 0.9295 0.88425 0.46631 0.0
H493 H 0.01188 0.89524 0.46302 0.0
C494 C 0.04859 0.87557 0.43066 0.0
C495 C 0.06301 0.86529 0.41246 0.0
C496 C 0.99982 0.86465 0.43352 0.0
C497 C 0.02725 0.84012 0.39781 0.0
C498 C 0.97864 0.82843 0.40067 0.0
C499 C 0.91768 0.83567 0.42019 0.0
C500 C 0.90472 0.85187 0.43729 0.0
C501 C 0.96496 0.8421 0.41817 0.0
C502 C 0.9387 0.87186 0.45289 0.0
C503 C 0.98586 0.87823 0.45102 0.0
H504 H 0.40294 0.84449 0.19548 0.0
H505 H 0.43208 0.93664 0.24696 0.0
H506 H 0.50486 0.93055 0.25431 0.0
H507 H 0.55431 0.89141 0.24831 0.0
H508 H 0.52217 0.79488 0.19807 0.0
H509 H 0.45706 0.81107 0.18786 0.0
C510 C 0.42561 0.86386 0.20815 0.0
C511 C 0.41173 0.89048 0.22079 0.0
C512 C 0.46677 0.85922 0.21256 0.0
C513 C 0.44161 0.91545 0.23711 0.0
C514 C 0.48326 0.91198 0.24133 0.0
C515 C 0.53374 0.87462 0.23491 0.0
C516 C 0.54279 0.84161 0.22409 0.0
C517 C 0.49534 0.88282 0.22948 0.0
C518 C 0.51571 0.82016 0.20677 0.0
C519 C 0.47832 0.82925 0.20096 0.0
H520 H 0.15273 0.70259 0.24991 0.0
H521 H 0.22509 0.75178 0.19374 0.0
H522 H 0.20567 0.66755 0.18585 0.0
H523 H 0.17691 0.58235 0.19669 0.0
H524 H 0.10817 0.53528 0.25365 0.0
H525 H 0.11729 0.61633 0.25937 0.0
C526 C 0.16374 0.69489 0.23581 0.0
C527 C 0.19091 0.73359 0.22255 0.0
C528 C 0.15356 0.64682 0.2316 0.0
C529 C 0.20431 0.72274 0.20425 0.0
C530 C 0.19347 0.67462 0.19978 0.0
C531 C 0.16329 0.58959 0.21024 0.0
C532 C 0.14252 0.55295 0.22484 0.0
C533 C 0.16948 0.6367 0.21362 0.0
C534 C 0.12479 0.56291 0.24225 0.0
C535 C 0.13001 0.60929 0.24555 0.0
H536 H 0.4387 0.62026 0.19938 0.0
H537 H 0.49033 0.58431 0.25217 0.0
H538 H 0.41196 0.50729 0.25512 0.0
H539 H 0.32583 0.45588 0.24514 0.0
H540 H 0.27195 0.49516 0.1939 0.0
H541 H 0.35447 0.5646 0.18766 0.0
C542 C 0.43312 0.59525 0.21137 0.0
C543 C 0.4701 0.60835 0.22569 0.0
C544 C 0.38746 0.55168 0.21328 0.0
C545 C 0.46228 0.5754 0.24108 0.0
C546 C 0.41746 0.53134 0.24278 0.0
C547 C 0.33228 0.4789 0.23234 0.0
C548 C 0.29269 0.47057 0.22009 0.0
C549 C 0.3793 0.51987 0.22931 0.0
C550 C 0.30175 0.50095 0.20362 0.0
C551 C 0.34887 0.54082 0.20011 0.0
H552 H 0.79827 0.5324 0.77365 0.0
H553 H 0.78447 0.51664 0.71047 0.0
H554 H 0.81275 0.45716 0.71113 0.0
H555 H 0.83512 0.40454 0.72965 0.0
H556 H 0.84643 0.41699 0.79297 0.0
H557 H 0.82581 0.48252 0.79223 0.0
C558 C 0.80228 0.51648 0.76005 0.0
C559 C 0.78901 0.52873 0.74206 0.0
C560 C 0.81766 0.48117 0.76054 0.0
C561 C 0.79399 0.5075 0.72454 0.0
C562 C 0.81016 0.4734 0.72488 0.0
C563 C 0.83356 0.42186 0.74329 0.0
C564 C 0.84197 0.40545 0.76132 0.0
C565 C 0.82103 0.4591 0.74281 0.0
C566 C 0.83984 0.42855 0.77885 0.0
C567 C 0.82801 0.46611 0.77846 0.0
H568 H 0.61783 0.47485 0.79136 0.0
H569 H 0.57273 0.51708 0.73837 0.0
H570 H 0.49833 0.43604 0.73675 0.0
H571 H 0.45288 0.35 0.74757 0.0
H572 H 0.50168 0.3059 0.79898 0.0
H573 H 0.56726 0.39115 0.80427 0.0
C574 C 0.59134 0.46667 0.77963 0.0
C575 C 0.6012 0.50166 0.76482 0.0
C576 C 0.5494 0.41952 0.77845 0.0
C577 C 0.56632 0.49055 0.74982 0.0
C578 C 0.52378 0.4442 0.74886 0.0
C579 C 0.47707 0.35921 0.76022 0.0
C580 C 0.47281 0.32164 0.77274 0.0
C581 C 0.51588 0.40785 0.76269 0.0
C582 C 0.50454 0.33416 0.78903 0.0
C583 C 0.54218 0.38283 0.79201 0.0
H584 H 0.55879 0.16916 0.7794 0.0
H585 H 0.51236 0.06389 0.73152 0.0
H586 H 0.59303 0.07015 0.7313 0.0
H587 H 0.67986 0.11481 0.74127 0.0
H588 H 0.7273 0.22328 0.788 0.0
H589 H 0.64288 0.20559 0.79236 0.0
C590 C 0.56602 0.14701 0.76908 0.0
C591 C 0.52986 0.1169 0.7552 0.0
C592 C 0.61282 0.15157 0.76876 0.0
C593 C 0.53962 0.0878 0.74221 0.0
C594 C 0.58586 0.09147 0.74204 0.0
C595 C 0.67168 0.13384 0.75272 0.0
C596 C 0.71015 0.17102 0.76403 0.0
C597 C 0.62327 0.12463 0.75474 0.0
C598 C 0.6986 0.19488 0.77892 0.0
C599 C 0.65031 0.185 0.78136 0.0
H600 H 0.12142 0.22729 0.57123 0.0
H601 H 0.05708 0.12595 0.52241 0.0
H602 H 0.12993 0.11716 0.52032 0.0
H603 H 0.20777 0.1314 0.53468 0.0
H604 H 0.27297 0.23428 0.58306 0.0
H605 H 0.20465 0.25028 0.58262 0.0
C606 C 0.1236 0.2036 0.56005 0.0
C607 C 0.08363 0.17659 0.54726 0.0
C608 C 0.1658 0.19909 0.55879 0.0
C609 C 0.08726 0.14686 0.53255 0.0
C610 C 0.12888 0.14176 0.53134 0.0
C611 C 0.20757 0.15809 0.54487 0.0
C612 C 0.24507 0.18091 0.55909 0.0
C613 C 0.16784 0.16677 0.5447 0.0
C614 C 0.24452 0.21589 0.57201 0.0
C615 C 0.20519 0.22481 0.5719 0.0
H616 H 0.84761 0.89171 0.52641 0.0
H617 H 0.76635 0.83681 0.58056 0.0
H618 H 0.76914 0.91526 0.58586 0.0
H619 H 0.80581 0.00279 0.57788 0.0
H620 H 0.89234 0.0596 0.52503 0.0
H621 H 0.87521 0.97675 0.51621 0.0
C622 C 0.82977 0.89657 0.53921 0.0
C623 C 0.80773 0.85882 0.55329 0.0
C624 C 0.83269 0.94227 0.54245 0.0
C625 C 0.78425 0.86553 0.56965 0.0
C626 C 0.78586 0.91043 0.5727 0.0
C627 C 0.81997 0.99695 0.56418 0.0
C628 C 0.85103 0.03747 0.55231 0.0
C629 C 0.81167 0.94964 0.55962 0.0
C630 C 0.86881 0.02912 0.53456 0.0
C631 C 0.85928 0.98178 0.52956 0.0
H632 H 0.14739 0.93707 0.58184 0.0
H633 H 0.14346 0.95338 0.51893 0.0
H634 H 0.05636 0.88983 0.51824 0.0
H635 H 0.97883 0.83558 0.53621 0.0
H636 H 0.98395 0.82427 0.59933 0.0
H637 H 0.07276 0.87919 0.5992 0.0
C638 C 0.12776 0.92632 0.56791 0.0
C639 C 0.15186 0.95038 0.55052 0.0
C640 C 0.07755 0.89064 0.56768 0.0
C641 C 0.12575 0.93574 0.5326 0.0
C642 C 0.07584 0.89942 0.53219 0.0
C643 C 0.99972 0.84451 0.54982 0.0
C644 C 0.975 0.82627 0.56776 0.0
C645 C 0.05097 0.87747 0.54972 0.0
C646 C 0.00222 0.83834 0.58536 0.0
C647 C 0.05301 0.86975 0.58531 0.0
H648 H 0.46516 0.93824 0.01735 0.0
H649 H 0.5566 0.09509 0.02758 0.0
H650 H 0.56084 0.10991 0.99224 0.0
H651 H 0.53005 0.07935 0.95909 0.0
H652 H 0.43867 0.92289 0.94853 0.0
H653 H 0.44307 0.90673 0.98351 0.0
C654 C 0.4866 0.97561 0.01183 0.0
C655 C 0.50971 0.01558 0.02507 0.0
C656 C 0.48834 0.98394 0.99154 0.0
C657 C 0.53818 0.0637 0.01771 0.0
C658 C 0.54037 0.07226 -0.00248 0.0
C659 C 0.51139 0.04169 0.96444 0.0
C660 C 0.48318 0.00239 0.95147 0.0
C661 C 0.51414 0.03283 0.98441 0.0
C662 C 0.46024 0.95369 0.95837 0.0
C663 C 0.46265 0.9445 0.97833 0.0
H664 H 0.94217 0.48634 0.96516 0.0
H665 H 0.09273 0.5247 0.95454 0.0
H666 H 0.10947 0.53433 0.98983 0.0
H667 H 0.0786 0.52195 0.02365 0.0
H668 H 0.92955 0.48717 0.03474 0.0
H669 H 0.91486 0.48662 -0.00076 0.0
C670 C 0.97875 0.49741 0.97061 0.0
C671 C 0.01592 0.50389 0.95738 0.0
C672 C 0.98825 0.50329 0.99092 0.0
C673 C 0.06346 0.51923 0.96449 0.0
C674 C 0.07303 0.52455 0.98465 0.0
C675 C 0.04324 0.51523 0.01824 0.0
C676 C 0.00498 0.50406 0.03156 0.0
C677 C 0.03532 0.51522 -0.00202 0.0
C678 C 0.95945 0.49593 0.02461 0.0
C679 C 0.951 0.49524 0.00437 0.0
H680 H 0.58794 0.52107 0.96931 0.0
H681 H 0.49467 0.58297 0.95851 0.0
H682 H 0.47984 0.58341 -0.00618 0.0
H683 H 0.49901 0.57245 0.02786 0.0
H684 H 0.58846 0.50625 0.03865 0.0
H685 H 0.59877 0.50059 0.00321 0.0
C686 C 0.56405 0.53421 0.97474 0.0
C687 C 0.54293 0.55256 0.96147 0.0
C688 C 0.55515 0.53368 -0.00501 0.0
C689 C 0.51133 0.56871 0.96852 0.0
C690 C 0.50302 0.56917 0.98868 0.0
C691 C 0.52029 0.55632 0.02239 0.0
C692 C 0.54348 0.54037 0.03572 0.0
C693 C 0.52557 0.5527 0.00206 0.0
C694 C 0.5703 0.51876 0.02859 0.0
C695 C 0.57643 0.51579 0.00836 0.0
H696 H 0.19646 0.42011 0.3622 0.0
H697 H 0.1046 0.26181 0.366 0.0
H698 H 0.10444 0.25473 0.33022 0.0
H699 H 0.12308 0.29408 0.29787 0.0
H700 H 0.21002 0.45283 0.29397 0.0
H701 H 0.21986 0.45913 0.3297 0.0
C702 C 0.17712 0.38407 0.35518 0.0
C703 C 0.15023 0.34165 0.36665 0.0
C704 C 0.17593 0.38035 0.33457 0.0
C705 C 0.12508 0.29511 0.35741 0.0
C706 C 0.12497 0.29099 0.33697 0.0
C707 C 0.14481 0.32998 0.30482 0.0
C708 C 0.16533 0.37289 0.29335 0.0
C709 C 0.14913 0.33346 0.32539 0.0
C710 C 0.19331 0.41922 0.30255 0.0
C711 C 0.19898 0.4229 0.32296 0.0
H712 H 0.62511 0.80293 0.36883 0.0
H713 H 0.78263 0.89784 0.36456 0.0
H714 H 0.77651 0.8981 0.32879 0.0
H715 H 0.72782 0.86494 0.29882 0.0
H716 H 0.5708 0.76678 0.30273 0.0
H717 H 0.57536 0.7745 0.33857 0.0
C718 C 0.65798 0.82428 0.36008 0.0
C719 C 0.70428 0.84991 0.36932 0.0
C720 C 0.65438 0.82333 0.33947 0.0
C721 C 0.74658 0.87732 0.35779 0.0
C722 C 0.74315 0.8775 0.33733 0.0
C723 C 0.69443 0.84583 0.30744 0.0
C724 C 0.64914 0.81506 0.29808 0.0
C725 C 0.69743 0.84961 0.32801 0.0
C726 C 0.60627 0.79039 0.30956 0.0
C727 C 0.60882 0.79476 0.33007 0.0
H728 H 0.24279 0.849 0.28986 0.0
H729 H 0.16689 0.93046 0.28172 0.0
H730 H 0.16086 0.93673 0.31739 0.0
H731 H 0.18364 0.92516 0.35069 0.0
H732 H 0.25777 0.84193 0.35876 0.0
H733 H 0.25791 0.83005 0.32318 0.0
C734 C 0.22457 0.86776 0.29592 0.0
C735 C 0.20598 0.88988 0.28328 0.0
C736 C 0.2213 0.87122 0.31635 0.0
C737 C 0.18158 0.91324 0.29122 0.0
C738 C 0.17839 0.91709 0.31158 0.0
C739 C 0.1996 0.90423 0.34464 0.0
C740 C 0.22135 0.88509 0.35721 0.0
C741 C 0.1992 0.89726 0.32425 0.0
C742 C 0.24099 0.85716 0.3493 0.0
C743 C 0.24121 0.85048 0.329 0.0
H744 H 0.86865 0.72542 0.68833 0.0
H745 H 0.73269 0.58588 0.69032 0.0
H746 H 0.73921 0.57296 0.65532 0.0
H747 H 0.77748 0.6063 0.62338 0.0
H748 H 0.907 0.75045 0.62056 0.0
H749 H 0.91003 0.75639 0.65656 0.0
C750 C 0.84093 0.69192 0.68112 0.0
C751 C 0.80013 0.65689 0.69179 0.0
C752 C 0.84386 0.68562 0.6608 0.0
C753 C 0.76423 0.61366 0.68233 0.0
C754 C 0.76794 0.60616 0.66232 0.0
C755 C 0.8071 0.6382 0.63078 0.0
C756 C 0.84221 0.67766 0.61964 0.0
C757 C 0.80678 0.64252 0.6513 0.0
C758 C 0.87989 0.71958 0.62909 0.0
C759 C 0.88135 0.72311 0.64959 0.0
H760 H 0.41586 0.18981 0.62957 0.0
H761 H 0.25917 0.08774 0.63063 0.0
H762 H 0.25843 0.09787 0.66623 0.0
H763 H 0.30329 0.1304 0.69729 0.0
H764 H 0.46049 0.22961 0.69624 0.0
H765 H 0.45976 0.22645 0.66034 0.0
C766 C 0.38143 0.1701 0.63752 0.0
C767 C 0.33778 0.13769 0.62743 0.0
C768 C 0.38132 0.17554 0.65801 0.0
C769 C 0.29347 0.11256 0.63803 0.0
C770 C 0.29295 0.11837 0.6584 0.0
C771 C 0.33726 0.152 0.6892 0.0
C772 C 0.3819 0.17992 0.69941 0.0
C773 C 0.33681 0.14903 0.66858 0.0
C774 C 0.42566 0.2075 0.68872 0.0
C775 C 0.42533 0.20564 0.6682 0.0
H776 H 0.84291 0.20114 0.62419 0.0
H777 H 0.94902 0.1533 0.63185 0.0
H778 H 0.94136 0.1559 0.66757 0.0
H779 H 0.91036 0.17926 0.69646 0.0
H780 H 0.80737 0.23091 0.68838 0.0
H781 H 0.80774 0.21883 0.65292 0.0
C782 C 0.86398 0.19066 0.63362 0.0
C783 C 0.89686 0.17755 0.62533 0.0
C784 C 0.8602 0.19323 0.65407 0.0
C785 C 0.92373 0.16397 0.63783 0.0
C786 C 0.91942 0.16549 0.65826 0.0
C787 C 0.88746 0.1872 0.68697 0.0
C788 C 0.85929 0.20644 0.69502 0.0
C789 C 0.88866 0.18121 0.66653 0.0
C790 C 0.82985 0.2166 0.68252 0.0
C791 C 0.83001 0.20971 0.66225 0.0
H792 H 0.35427 0.97454 0.19401 0.0
H793 H 0.21871 0.90094 0.16072 0.0
H794 H 0.26558 0.91725 0.13018 0.0
H795 H 0.34473 0.95441 0.11309 0.0
H796 H 0.4801 0.02828 0.14652 0.0
H797 H 0.43315 0.0096 0.17707 0.0
C798 C 0.33482 0.96189 0.1801 0.0
C799 C 0.28305 0.93671 0.17961 0.0
C800 C 0.36187 0.97154 0.1627 0.0
C801 C 0.25853 0.92047 0.16147 0.0
C802 C 0.28528 0.92982 0.14403 0.0
C803 C 0.36407 0.96643 0.12705 0.0
C804 C 0.41588 0.9929 0.12753 0.0
C805 C 0.33694 0.95569 0.14449 0.0
C806 C 0.44028 0.00799 0.14574 0.0
C807 C 0.41348 0.99733 0.1632 0.0
H808 H 0.06091 0.38802 0.12309 0.0
H809 H 0.0083 0.47459 0.15302 0.0
H810 H 0.02779 0.45209 0.18481 0.0
H811 H 0.05822 0.40677 0.20384 0.0
H812 H 0.11248 0.32179 0.17377 0.0
H813 H 0.09381 0.34506 0.14203 0.0
C814 C 0.05356 0.40196 0.13654 0.0
C815 C 0.03294 0.43272 0.13572 0.0
C816 C 0.06516 0.38926 0.15464 0.0
C817 C 0.02406 0.45077 0.15329 0.0
C818 C 0.03518 0.43793 0.17143 0.0
C819 C 0.06619 0.39346 0.19036 0.0
C820 C 0.08671 0.36259 0.19114 0.0
C821 C 0.05555 0.40707 0.17224 0.0
C822 C 0.09681 0.34569 0.17354 0.0
C823 C 0.08605 0.35887 0.15542 0.0
H824 H 0.61606 0.67586 0.20902 0.0
H825 H 0.67908 0.81348 0.17732 0.0
H826 H 0.65337 0.7681 0.14614 0.0
H827 H 0.61704 0.68996 0.12803 0.0
H828 H 0.5539 0.55221 0.15965 0.0
H829 H 0.5753 0.59742 0.19094 0.0
C830 C 0.62388 0.69603 0.19532 0.0
C831 C 0.64964 0.74802 0.19548 0.0
C832 C 0.60918 0.66978 0.17751 0.0
C833 C 0.65943 0.7735 0.17759 0.0
C834 C 0.6448 0.74759 0.15977 0.0
C835 C 0.60782 0.66967 0.14175 0.0
C836 C 0.58438 0.61777 0.14152 0.0
C837 C 0.62033 0.6958 0.15958 0.0
C838 C 0.57216 0.59214 0.15943 0.0
C839 C 0.58445 0.61796 0.1773 0.0
H840 H 0.0116 0.45502 0.83723 0.0
H841 H 0.96182 0.33369 0.87786 0.0
H842 H 0.93109 0.27491 0.85058 0.0
H843 H 0.91812 0.2577 0.81509 0.0
H844 H 0.96571 0.37921 0.77465 0.0
H845 H 0.99723 0.43779 0.80188 0.0
C846 C 0.99424 0.41575 0.84009 0.0
C847 C 0.98925 0.39885 0.8595 0.0
C848 C 0.97608 0.382 0.82436 0.0
C849 C 0.96619 0.34776 0.86301 0.0
C850 C 0.94856 0.31402 0.84743 0.0
C851 C 0.93548 0.29698 0.81226 0.0
C852 C 0.93966 0.31392 0.79287 0.0
C853 C 0.95329 0.3307 0.82803 0.0
C854 C 0.96197 0.36501 0.78944 0.0
C855 C 0.98011 0.39869 0.80501 0.0
H856 H 0.70355 0.64689 0.86711 0.0
H857 H 0.56048 0.58662 0.83978 0.0
H858 H 0.59904 0.61004 0.80741 0.0
H859 H 0.67259 0.64688 0.7871 0.0
H860 H 0.81585 0.70358 0.81381 0.0
H861 H 0.77771 0.68235 0.84646 0.0
C862 C 0.68079 0.63901 0.85407 0.0
C863 C 0.62922 0.61515 0.85581 0.0
C864 C 0.70314 0.65192 0.83552 0.0
C865 C 0.60022 0.60483 0.8388 0.0
C866 C 0.62222 0.61828 0.82032 0.0
C867 C 0.69569 0.6548 0.80003 0.0
C868 C 0.74704 0.67684 0.79805 0.0
C869 C 0.67356 0.64175 0.81855 0.0
C870 C 0.77624 0.68657 0.81497 0.0
C871 C 0.75446 0.67445 0.83359 0.0
H872 H 0.40699 0.09115 0.78335 0.0
H873 H 0.32554 0.14324 0.81704 0.0
H874 H 0.35427 0.1249 0.84766 0.0
H875 H 0.39649 0.08764 0.8644 0.0
H876 H 0.47517 0.03241 0.83044 0.0
H877 H 0.45439 0.0597 0.80012 0.0
C878 C 0.39678 0.09997 0.79738 0.0
C879 C 0.36474 0.11906 0.798 0.0
C880 C 0.41246 0.08829 0.81476 0.0
C881 C 0.3503 0.12865 0.81626 0.0
C882 C 0.3666 0.11805 0.83371 0.0
C883 C 0.40948 0.08183 0.8504 0.0
C884 C 0.43685 0.05744 0.84965 0.0
C885 C 0.39669 0.09677 0.83308 0.0
C886 C 0.45362 0.05059 0.83139 0.0
C887 C 0.44177 0.06618 0.81408 0.0
H888 H 0.04389 0.27963 0.5352 0.0
H889 H 0.90765 0.24339 0.5059 0.0
H890 H 0.95245 0.27924 0.47544 0.0
H891 H 0.02988 0.32368 0.45777 0.0
H892 H 0.16645 0.35883 0.48642 0.0
H893 H 0.12156 0.32069 0.51681 0.0
C894 C 0.02394 0.27955 0.52215 0.0
C895 C 0.97255 0.25933 0.52284 0.0
C896 C 0.04988 0.30017 0.50472 0.0
C897 C 0.9472 0.25892 0.50577 0.0
C898 C 0.97277 0.27949 0.48838 0.0
C899 C 0.04999 0.32279 0.47059 0.0
C900 C 0.10144 0.34394 0.46984 0.0
C901 C 0.02407 0.30067 0.48779 0.0
C902 C 0.12683 0.34268 0.48663 0.0
C903 C 0.10121 0.32093 0.50397 0.0
H904 H 0.76425 0.74897 0.45426 0.0
H905 H 0.67478 0.78793 0.48994 0.0
H906 H 0.69473 0.75598 0.51911 0.0
H907 H 0.734 0.71377 0.53397 0.0
H908 H 0.82402 0.67509 0.49857 0.0
H909 H 0.80703 0.71025 0.46953 0.0
C910 C 0.74914 0.75063 0.46842 0.0
C911 C 0.71774 0.77047 0.46991 0.0
C912 C 0.7606 0.73211 0.48505 0.0
C913 C 0.69885 0.77267 0.48838 0.0
C914 C 0.71017 0.75436 0.50504 0.0
C915 C 0.75031 0.71329 0.51995 0.0
C916 C 0.78032 0.6919 0.51841 0.0
C917 C 0.74047 0.73349 0.50346 0.0
C918 C 0.80086 0.69137 0.50012 0.0
C919 C 0.79113 0.71143 0.48355 0.0
H920 H 0.31408 0.03493 0.45391 0.0
H921 H 0.24109 0.88955 0.47976 0.0
H922 H 0.26581 0.92632 0.51257 0.0
H923 H 0.30815 0.99949 0.53373 0.0
H924 H 0.38133 0.14472 0.50779 0.0
H925 H 0.35652 0.10792 0.47501 0.0
C926 C 0.30355 0.01115 0.46669 0.0
C927 C 0.27576 0.95953 0.46438 0.0
C928 C 0.31795 0.03244 0.48543 0.0
C929 C 0.26252 0.92938 0.48112 0.0
C930 C 0.27661 0.95036 0.49987 0.0
C931 C 0.31868 0.02316 0.52092 0.0
C932 C 0.34641 0.07478 0.52319 0.0
C933 C 0.30433 1.00182 0.50217 0.0
C934 C 0.35996 0.10489 0.50644 0.0
C935 C 0.34576 0.08389 0.48771 0.0
H936 H 0.52388 0.34183 0.0639 0.0
H937 H 0.50979 0.36512 0.12568 0.0
H938 H 0.49926 0.28414 0.13322 0.0
H939 H 0.50073 0.20961 0.12249 0.0
H940 H 0.51524 0.18736 0.06058 0.0
H941 H 0.51864 0.26485 0.05293 0.0
C942 C 0.51803 0.32905 0.07901 0.0
C943 C 0.51811 0.3597 0.09421 0.0
C944 C 0.51239 0.2827 0.08325 0.0
C945 C 0.50998 0.34231 0.11368 0.0
C946 C 0.50417 0.29607 0.11802 0.0
C947 C 0.50417 0.22147 0.10731 0.0
C948 C 0.50827 0.19287 0.09219 0.0
C949 C 0.50635 0.26639 0.10296 0.0
C950 C 0.5123 0.20868 0.07257 0.0
C951 C 0.51434 0.2531 0.06815 0.0
H952 H 0.71307 0.19098 0.05812 0.0
H953 H 0.67194 0.15479 0.11903 0.0
H954 H 0.75103 0.22405 0.12949 0.0
H955 H 0.82793 0.29997 0.12135 0.0
H956 H 0.86834 0.33657 0.0604 0.0
H957 H 0.79375 0.26181 0.05002 0.0
C958 C 0.72162 0.19779 0.07369 0.0
C959 C 0.6863 0.16809 0.08775 0.0
C960 C 0.76695 0.23803 0.07962 0.0
C961 C 0.69828 0.17717 0.10786 0.0
C962 C 0.74347 0.21694 0.11388 0.0
C963 C 0.82079 0.29129 0.1058 0.0
C964 C 0.85341 0.32426 0.09169 0.0
C965 C 0.77749 0.24843 0.09989 0.0
C966 C 0.84377 0.3121 0.0716 0.0
C967 C 0.80099 0.26938 0.06562 0.0
H968 H 0.71066 0.49708 0.13106 0.0
H969 H 0.71124 0.57033 0.07727 0.0
H970 H 0.78969 0.57799 0.06798 0.0
H971 H 0.85446 0.5576 0.07368 0.0
H972 H 0.85383 0.48374 0.12727 0.0
H973 H 0.77946 0.48313 0.13811 0.0
C974 C 0.7282 0.51525 0.11742 0.0
C975 C 0.70472 0.53257 0.10481 0.0
C976 C 0.77324 0.51919 0.11203 0.0
C977 C 0.72824 0.55635 0.08724 0.0
C978 C 0.77312 0.56066 0.08186 0.0
C979 C 0.83838 0.54181 0.08783 0.0
C980 C 0.85945 0.52028 0.09952 0.0
C981 C 0.79537 0.5412 0.09392 0.0
C982 C 0.83833 0.50041 0.11791 0.0
C983 C 0.79565 0.49989 0.12411 0.0
H984 H 0.34407 0.52236 0.92772 0.0
H985 H 0.38127 0.52075 0.86664 0.0
H986 H 0.30059 0.50702 0.85667 0.0
H987 H 0.22237 0.50277 0.86524 0.0
H988 H 0.18639 0.50532 0.92647 0.0
H989 H 0.26357 0.51109 0.93637 0.0
C990 C 0.3344 0.51852 0.91222 0.0
C991 C 0.36884 0.52313 0.89796 0.0
C992 C 0.28825 0.51114 0.90659 0.0
C993 C 0.35549 0.5175 0.87795 0.0
C994 C 0.30942 0.50986 0.87221 0.0
C995 C 0.23117 0.50407 0.88075 0.0
C996 C 0.19884 0.50422 0.89506 0.0
C997 C 0.27594 0.50775 0.8864 0.0
C998 C 0.21069 0.50552 0.91511 0.0
C999 C 0.25491 0.5089 0.92082 0.0
H1000 H 0.52999 0.85496 0.91941 0.0
H1001 H 0.49853 0.86368 0.85819 0.0
H1002 H 0.51171 0.79495 0.85034 0.0
H1003 H 0.52437 0.72742 0.86144 0.0
H1004 H 0.5549 0.71875 0.92283 0.0
H1005 H 0.55025 0.79262 0.92995 0.0
C1006 C 0.52655 0.84224 0.9043 0.0
C1007 C 0.51274 0.86409 0.88946 0.0
C1008 C 0.53369 0.80244 0.89992 0.0
C1009 C 0.509 0.84746 0.86992 0.0
C1010 C 0.51631 0.80799 0.86543 0.0
C1011 C 0.53061 0.74202 0.87633 0.0
C1012 C 0.53937 0.71713 0.8916 0.0
C1013 C 0.52747 0.78441 0.8804 0.0
C1014 C 0.54777 0.73687 0.91079 0.0
C1015 C 0.54501 0.77911 0.91491 0.0
H1016 H 0.30168 0.84595 0.90606 0.0
H1017 H 0.31098 0.81094 0.84523 0.0
H1018 H 0.23549 0.73145 0.84876 0.0
H1019 H 0.1713 0.66856 0.86996 0.0
H1020 H 0.16391 0.7029 0.93106 0.0
H1021 H 0.23367 0.78593 0.92648 0.0
C1022 C 0.28691 0.82126 0.89349 0.0
C1023 C 0.31237 0.83433 0.87546 0.0
C1024 C 0.24383 0.7752 0.89569 0.0
C1025 C 0.29243 0.80182 0.85932 0.0
C1026 C 0.24923 0.75622 0.86133 0.0
C1027 C 0.1844 0.69446 0.8822 0.0
C1028 C 0.16258 0.67927 0.90087 0.0
C1029 C 0.22526 0.74201 0.87957 0.0
C1030 C 0.18016 0.71339 0.91656 0.0
C1031 C 0.22019 0.76093 0.91397 0.0
H1032 H 0.20607 0.71095 0.44293 0.0
H1033 H 0.16507 0.67851 0.38168 0.0
H1034 H 0.15517 0.59663 0.38546 0.0
H1035 H 0.1652 0.53707 0.40533 0.0
H1036 H 0.20853 0.57035 0.46633 0.0
H1037 H 0.21004 0.64871 0.46347 0.0
C1038 C 0.19425 0.68572 0.43047 0.0
C1039 C 0.18673 0.70109 0.41202 0.0
C1040 C 0.18941 0.63888 0.43265 0.0
C1041 C 0.17145 0.66785 0.39604 0.0
C1042 C 0.16585 0.62097 0.39816 0.0
C1043 C 0.17441 0.56116 0.41807 0.0
C1044 C 0.18719 0.54798 0.43596 0.0
C1045 C 0.17587 0.60654 0.41627 0.0
C1046 C 0.19888 0.57966 0.45233 0.0
C1047 C 0.19981 0.62457 0.45071 0.0
H1048 H 0.51213 0.67025 0.40575 0.0
H1049 H 0.50422 0.64668 0.46854 0.0
H1050 H 0.42454 0.57154 0.46466 0.0
H1051 H 0.35412 0.51626 0.44382 0.0
H1052 H 0.3608 0.54146 0.38118 0.0
H1053 H 0.44405 0.61177 0.38464 0.0
C1054 C 0.49327 0.64842 0.41857 0.0
C1055 C 0.51403 0.6644 0.43742 0.0
C1056 C 0.44706 0.60555 0.41629 0.0
C1057 C 0.48902 0.63551 0.45386 0.0
C1058 C 0.44337 0.59249 0.45167 0.0
C1059 C 0.37402 0.53665 0.43087 0.0
C1060 C 0.35105 0.52373 0.41228 0.0
C1061 C 0.42158 0.57769 0.43301 0.0
C1062 C 0.37743 0.55071 0.39569 0.0
C1063 C 0.42505 0.59105 0.39765 0.0
H1064 H 0.53012 0.87856 0.39742 0.0
H1065 H 0.55045 0.86211 0.45919 0.0
H1066 H 0.48054 0.87266 0.46731 0.0
H1067 H 0.40837 0.87771 0.45654 0.0
H1068 H 0.38818 0.89336 0.39463 0.0
H1069 H 0.46341 0.89235 0.387 0.0
C1070 C 0.51971 0.87794 0.41269 0.0
C1071 C 0.54512 0.86891 0.42763 0.0
C1072 C 0.47915 0.88346 0.41725 0.0
C1073 C 0.53145 0.86879 0.44737 0.0
C1074 C 0.49127 0.87458 0.45203 0.0
C1075 C 0.42075 0.88154 0.44141 0.0
C1076 C 0.39218 0.88487 0.42619 0.0
C1077 C 0.464 0.88055 0.43704 0.0
C1078 C 0.40911 0.89031 0.40667 0.0
C1079 C 0.45215 0.88964 0.40225 0.0
H1080 H 0.86642 0.8329 0.20281 0.0
H1081 H 0.84286 0.829 0.26557 0.0
H1082 H 0.92171 0.83377 0.27145 0.0
H1083 H 1.00065 0.84721 0.25891 0.0
H1084 H 0.02491 0.85224 0.19619 0.0
H1085 H 0.94222 0.8382 0.19019 0.0
C1086 C 0.87825 0.83253 0.21777 0.0
C1087 C 0.84903 0.83127 0.23372 0.0
C1088 C 0.92389 0.83572 0.22108 0.0
C1089 C 0.86471 0.83026 0.25301 0.0
C1090 C 0.90991 0.83312 0.25641 0.0
C1091 C 0.98768 0.84463 0.24392 0.0
C1092 C 0.01919 0.8514 0.22804 0.0
C1093 C 0.94032 0.83713 0.24057 0.0
C1094 C 0.00154 0.84738 0.2087 0.0
C1095 C 0.9543 0.83957 0.20525 0.0
H1096 H 0.20216 0.0551 0.24397 0.0
H1097 H 0.1822 0.06671 0.18172 0.0
H1098 H 0.17809 0.14155 0.18764 0.0
H1099 H 0.17218 0.19878 0.2108 0.0
H1100 H 0.1888 0.18485 0.27315 0.0
H1101 H 0.20274 0.11607 0.26681 0.0
C1102 C 0.19747 0.07425 0.23164 0.0
C1103 C 0.19194 0.05496 0.21244 0.0
C1104 C 0.19429 0.11672 0.23518 0.0
C1105 C 0.18622 0.08051 0.19666 0.0
C1106 C 0.18377 0.12328 0.20004 0.0
C1107 C 0.17958 0.18122 0.223 0.0
C1108 C 0.17897 0.19669 0.24245 0.0
C1109 C 0.18656 0.14101 0.21929 0.0
C1110 C 0.1887 0.1735 0.25805 0.0
C1111 C 0.19657 0.13407 0.25445 0.0
H1112 H 0.82544 0.00514 0.21988 0.0
H1113 H 0.84144 0.01573 0.28312 0.0
H1114 H 0.91295 0.09843 0.28024 0.0
H1115 H 0.97524 0.16477 0.25968 0.0
H1116 H 0.96084 0.15268 0.1964 0.0
H1117 H 0.88446 0.07392 0.19942 0.0
C1118 C 0.84407 0.02581 0.23305 0.0
C1119 C 0.82822 0.00406 0.25168 0.0
C1120 C 0.88585 0.07303 0.23129 0.0
C1121 C 0.85298 0.03141 0.26858 0.0
C1122 C 0.894 0.07872 0.26696 0.0
C1123 C 0.95509 0.14522 0.24655 0.0
C1124 C 0.97405 0.16451 0.22785 0.0
C1125 C 0.91146 0.09945 0.24837 0.0
C1126 C 0.94738 0.1386 0.21099 0.0
C1127 C 0.90363 0.09346 0.21269 0.0
H1128 H 0.83565 0.88711 0.78303 0.0
H1129 H 0.83138 0.85343 0.7211 0.0
H1130 H 0.83814 0.93236 0.71284 0.0
H1131 H 0.85122 0.01344 0.72309 0.0
H1132 H 0.85507 0.0473 0.78497 0.0
H1133 H 0.84201 0.96573 0.7933 0.0
C1134 C 0.83575 0.8968 0.76772 0.0
C1135 C 0.83341 0.86438 0.75273 0.0
C1136 C 0.83973 0.94244 0.76304 0.0
C1137 C 0.83318 0.87752 0.73297 0.0
C1138 C 0.83721 0.92281 0.72821 0.0
C1139 C 0.84871 0.00286 0.73842 0.0
C1140 C 0.85454 0.03676 0.75337 0.0
C1141 C 0.8414 0.95593 0.74311 0.0
C1142 C 0.85075 0.0221 0.77314 0.0
C1143 C 0.8435 0.97547 0.77792 0.0
H1144 H 0.15611 0.94233 0.77278 0.0
H1145 H 0.16954 0.007 0.71547 0.0
H1146 H 0.08894 0.93848 0.70612 0.0
H1147 H 0.01148 0.86494 0.71536 0.0
H1148 H 0.99684 0.80199 0.77311 0.0
H1149 H 0.0813 0.86493 0.78103 0.0
C1150 C 0.14177 0.94115 0.75814 0.0
C1151 C 0.16862 0.98006 0.74494 0.0
C1152 C 0.09498 0.90214 0.75298 0.0
C1153 C 0.14951 0.97774 0.72599 0.0
C1154 C 0.10334 0.93862 0.72063 0.0
C1155 C 0.02691 0.86456 0.7296 0.0
C1156 C 0.99765 0.82914 0.74369 0.0
C1157 C 0.07522 0.90134 0.73419 0.0
C1158 C 0.01839 0.82905 0.76202 0.0
C1159 C 0.06669 0.8651 0.76659 0.0
H1160 H 0.19886 0.20015 0.76877 0.0
H1161 H 0.17092 0.17587 0.70632 0.0
H1162 H 0.1018 0.1904 0.7094 0.0
H1163 H 0.04459 0.20241 0.73027 0.0
H1164 H 0.07128 0.2241 0.79286 0.0
H1165 H 0.14554 0.21849 0.7892 0.0
C1166 C 0.17815 0.19875 0.75576 0.0
C1167 C 0.18993 0.18651 0.73737 0.0
C1168 C 0.13781 0.20625 0.75768 0.0
C1169 C 0.1626 0.18493 0.7207 0.0
C1170 C 0.1229 0.19309 0.72244 0.0
C1171 C 0.06697 0.20655 0.74308 0.0
C1172 C 0.05201 0.21322 0.76184 0.0
C1173 C 0.10941 0.20259 0.74093 0.0
C1174 C 0.08159 0.21856 0.77826 0.0
C1175 C 0.12414 0.21532 0.7762 0.0
H1176 H 0.56009 0.13689 0.53947 0.0
H1177 H 0.53438 0.15275 0.60083 0.0
H1178 H 0.61102 0.15583 0.60975 0.0
H1179 H 0.68887 0.16175 0.59991 0.0
H1180 H 0.7153 0.14656 0.53859 0.0
H1181 H 0.63462 0.13478 0.52996 0.0
C1182 C 0.57096 0.14048 0.55482 0.0
C1183 C 0.54172 0.14519 0.56941 0.0
C1184 C 0.61535 0.14253 0.55987 0.0
C1185 C 0.5562 0.14932 0.58925 0.0
C1186 C 0.60016 0.1512 0.59438 0.0
C1187 C 0.67677 0.15521 0.58468 0.0
C1188 C 0.7084 0.15561 0.56991 0.0
C1189 C 0.63056 0.14901 0.57978 0.0
C1190 C 0.69184 0.1466 0.55027 0.0
C1191 C 0.64575 0.1401 0.5453 0.0
H1192 H 0.8899 0.38414 0.53448 0.0
H1193 H 0.86803 0.34005 0.5955 0.0
H1194 H 0.86051 0.41158 0.60414 0.0
H1195 H 0.85336 0.48268 0.59406 0.0
H1196 H 0.87453 0.52679 0.53308 0.0
H1197 H 0.8897 0.45963 0.52485 0.0
C1198 C 0.88394 0.39041 0.5497 0.0
C1199 C 0.87897 0.35641 0.56425 0.0
C1200 C 0.87936 0.43156 0.5546 0.0
C1201 C 0.87172 0.36541 0.58394 0.0
C1202 C 0.86732 0.4063 0.58892 0.0
C1203 C 0.86184 0.47799 0.579 0.0
C1204 C 0.86227 0.50943 0.5642 0.0
C1205 C 0.87005 0.43902 0.57432 0.0
C1206 C 0.87378 0.50305 0.54478 0.0
C1207 C 0.88227 0.4645 0.54003 0.0
H1208 H 0.51679 0.32223 0.54814 0.0
H1209 H 0.53994 0.34171 0.61097 0.0
H1210 H 0.61023 0.4243 0.60596 0.0
H1211 H 0.66926 0.48804 0.58371 0.0
H1212 H 0.64797 0.46737 0.52084 0.0
H1213 H 0.57272 0.38845 0.52594 0.0
C1214 C 0.53675 0.34478 0.56077 0.0
C1215 C 0.52324 0.32558 0.5799 0.0
C1216 C 0.57778 0.39194 0.55777 0.0
C1217 C 0.54965 0.35537 0.59607 0.0
C1218 C 0.58996 0.40262 0.59322 0.0
C1219 C 0.6479 0.46659 0.57111 0.0
C1220 C 0.66455 0.48351 0.55191 0.0
C1221 C 0.60503 0.42083 0.57413 0.0
C1222 C 0.63627 0.45516 0.53577 0.0
C1223 C 0.5932 0.40994 0.53867 0.0
loop_
_geom_bond_atom_site_label_1
_geom_bond_atom_site_label_2
_geom_bond_distance
_geom_bond_site_symmetry_2
_ccdc_geom_bond_type
Zn0 O6 1.969 . S
Zn0 O7 1.965 . S
Zn0 O11 2.024 . S
Zn0 O16 1.969 . S
Zn1 O8 1.969 . S
Zn1 O14 1.969 . S
Zn1 O15 1.965 . S
Zn1 O17 2.024 . S
C2 O3 1.229 . S
C2 O11 1.058 . S
O3 C2 1.229 . S
C4 O5 1.229 . S
C4 O17 1.058 . S
O5 C4 1.229 . S
O6 Zn0 1.969 . S
O6 C9 1.267 . S
O7 Zn0 1.965 . S
O7 C18 1.260 1_565 S
O8 Zn1 1.969 . S
O8 C18 1.258 . S
C9 O6 1.267 . S
C9 O10 1.228 . S
O10 C9 1.228 . S
O11 Zn0 2.024 . S
O11 C2 1.058 . S
C12 O13 1.228 . S
C12 O14 1.267 . S
O13 C12 1.228 . S
O14 Zn1 1.969 . S
O14 C12 1.267 . S
O15 Zn1 1.965 . S
O15 C19 1.260 . S
O16 Zn0 1.969 . S
O16 C19 1.258 1_565 S
O17 Zn1 2.024 . S
O17 C4 1.058 . S
C18 O7 1.260 1_545 S
C18 O8 1.258 . S
C19 O15 1.260 . S
C19 O16 1.258 1_545 S
Zn20 O26 1.969 . S
Zn20 O27 1.965 . S
Zn20 O31 2.024 . S
Zn20 O36 1.969 . S
Zn21 O28 1.969 . S
Zn21 O34 1.969 . S
Zn21 O35 1.965 . S
Zn21 O37 2.024 . S
C22 O23 1.229 . S
C22 O31 1.058 . S
O23 C22 1.229 . S
C24 O25 1.229 . S
C24 O37 1.058 . S
O25 C24 1.229 . S
O26 Zn20 1.969 . S
O26 C29 1.267 . S
O27 Zn20 1.965 . S
O27 C38 1.260 . S
O28 Zn21 1.969 . S
O28 C38 1.258 1_655 S
C29 O26 1.267 . S
C29 O30 1.228 . S
O30 C29 1.228 . S
O31 Zn20 2.024 . S
O31 C22 1.058 . S
C32 O33 1.228 . S
C32 O34 1.267 . S
O33 C32 1.228 . S
O34 Zn21 1.969 . S
O34 C32 1.267 . S
O35 Zn21 1.965 . S
O35 C39 1.260 1_655 S
O36 Zn20 1.969 . S
O36 C39 1.258 . S
O37 Zn21 2.024 . S
O37 C24 1.058 . S
C38 O27 1.260 . S
C38 O28 1.258 1_455 S
C39 O35 1.260 1_455 S
C39 O36 1.258 . S
Zn40 O46 1.969 . S
Zn40 O47 1.965 . S
Zn40 O51 2.024 . S
Zn40 O56 1.969 . S
Zn41 O48 1.969 . S
Zn41 O54 1.969 . S
Zn41 O55 1.965 . S
Zn41 O57 2.024 . S
C42 O43 1.229 . S
C42 O51 1.058 . S
O43 C42 1.229 . S
C44 O45 1.229 . S
C44 O57 1.058 . S
O45 C44 1.229 . S
O46 Zn40 1.969 . S
O46 C49 1.267 . S
O47 Zn40 1.965 . S
O47 C58 1.260 . S
O48 Zn41 1.969 . S
O48 C58 1.258 . S
C49 O46 1.267 . S
C49 O50 1.228 . S
O50 C49 1.228 . S
O51 Zn40 2.024 . S
O51 C42 1.058 . S
C52 O53 1.228 . S
C52 O54 1.267 . S
O53 C52 1.228 . S
O54 Zn41 1.969 . S
O54 C52 1.267 . S
O55 Zn41 1.965 . S
O55 C59 1.260 . S
O56 Zn40 1.969 . S
O56 C59 1.258 . S
O57 Zn41 2.024 . S
O57 C44 1.058 . S
C58 O47 1.260 . S
C58 O48 1.258 . S
C59 O55 1.260 . S
C59 O56 1.258 . S
Zn60 O66 1.969 . S
Zn60 O67 1.965 . S
Zn60 O71 2.024 . S
Zn60 O76 1.969 . S
Zn61 O68 1.969 . S
Zn61 O74 1.969 . S
Zn61 O75 1.965 . S
Zn61 O77 2.024 . S
C62 O63 1.229 . S
C62 O71 1.058 . S
O63 C62 1.229 . S
C64 O65 1.229 . S
C64 O77 1.058 . S
O65 C64 1.229 . S
O66 Zn60 1.969 . S
O66 C69 1.267 . S
O67 Zn60 1.965 . S
O67 C78 1.260 1_655 S
O68 Zn61 1.969 . S
O68 C78 1.258 . S
C69 O66 1.267 . S
C69 O70 1.228 . S
O70 C69 1.228 . S
O71 Zn60 2.024 . S
O71 C62 1.058 . S
C72 O73 1.228 . S
C72 O74 1.267 . S
O73 C72 1.228 . S
O74 Zn61 1.969 . S
O74 C72 1.267 . S
O75 Zn61 1.965 . S
O75 C79 1.260 . S
O76 Zn60 1.969 . S
O76 C79 1.258 1_655 S
O77 Zn61 2.024 . S
O77 C64 1.058 . S
C78 O67 1.260 1_455 S
C78 O68 1.258 . S
C79 O75 1.260 . S
C79 O76 1.258 1_455 S
Zn80 O86 1.969 . S
Zn80 O87 1.965 . S
Zn80 O91 2.024 . S
Zn80 O96 1.969 . S
Zn81 O88 1.969 . S
Zn81 O94 1.969 . S
Zn81 O95 1.965 . S
Zn81 O97 2.024 . S
C82 O83 1.229 . S
C82 O91 1.058 . S
O83 C82 1.229 . S
C84 O85 1.229 . S
C84 O97 1.058 . S
O85 C84 1.229 . S
O86 Zn80 1.969 . S
O86 C89 1.267 . S
O87 Zn80 1.965 . S
O87 C98 1.260 . S
O88 Zn81 1.969 . S
O88 C98 1.258 . S
C89 O86 1.267 . S
C89 O90 1.228 . S
O90 C89 1.228 . S
O91 Zn80 2.024 . S
O91 C82 1.058 . S
C92 O93 1.228 . S
C92 O94 1.267 . S
O93 C92 1.228 . S
O94 Zn81 1.969 . S
O94 C92 1.267 . S
O95 Zn81 1.965 . S
O95 C99 1.260 . S
O96 Zn80 1.969 . S
O96 C99 1.258 . S
O97 Zn81 2.024 . S
O97 C84 1.058 . S
C98 O87 1.260 . S
C98 O88 1.258 . S
C99 O95 1.260 . S
C99 O96 1.258 . S
Zn100 O106 1.969 . S
Zn100 O107 1.965 . S
Zn100 O111 2.024 . S
Zn100 O116 1.969 . S
Zn101 O108 1.969 . S
Zn101 O114 1.969 . S
Zn101 O115 1.965 . S
Zn101 O117 2.024 . S
C102 O103 1.229 . S
C102 O111 1.058 . S
O103 C102 1.229 . S
C104 O105 1.229 . S
C104 O117 1.058 . S
O105 C104 1.229 . S
O106 Zn100 1.969 . S
O106 C109 1.267 . S
O107 Zn100 1.965 . S
O107 C118 1.260 . S
O108 Zn101 1.969 . S
O108 C118 1.258 1_565 S
C109 O106 1.267 . S
C109 O110 1.228 . S
O110 C109 1.228 . S
O111 Zn100 2.024 . S
O111 C102 1.058 . S
C112 O113 1.228 . S
C112 O114 1.267 . S
O113 C112 1.228 . S
O114 Zn101 1.969 . S
O114 C112 1.267 . S
O115 Zn101 1.965 . S
O115 C119 1.260 1_565 S
O116 Zn100 1.969 . S
O116 C119 1.258 . S
O117 Zn101 2.024 . S
O117 C104 1.058 . S
C118 O107 1.260 . S
C118 O108 1.258 1_545 S
C119 O115 1.260 1_545 S
C119 O116 1.258 . S
Zn120 O126 1.969 . S
Zn120 O127 1.965 . S
Zn120 O131 2.024 . S
Zn120 O136 1.969 . S
Zn121 O128 1.969 . S
Zn121 O134 1.969 . S
Zn121 O135 1.965 . S
Zn121 O137 2.024 . S
C122 O123 1.229 . S
C122 O131 1.058 . S
O123 C122 1.229 . S
C124 O125 1.229 . S
C124 O137 1.058 . S
O125 C124 1.229 . S
O126 Zn120 1.969 . S
O126 C129 1.267 . S
O127 Zn120 1.965 . S
O127 C138 1.260 . S
O128 Zn121 1.969 . S
O128 C138 1.258 . S
C129 O126 1.267 . S
C129 O130 1.228 . S
O130 C129 1.228 . S
O131 Zn120 2.024 . S
O131 C122 1.058 . S
C132 O133 1.228 . S
C132 O134 1.267 . S
O133 C132 1.228 . S
O134 Zn121 1.969 . S
O134 C132 1.267 . S
O135 Zn121 1.965 . S
O135 C139 1.260 . S
O136 Zn120 1.969 . S
O136 C139 1.258 . S
O137 Zn121 2.024 . S
O137 C124 1.058 . S
C138 O127 1.260 . S
C138 O128 1.258 . S
C139 O135 1.260 . S
C139 O136 1.258 . S
Zn140 O146 1.969 . S
Zn140 O147 1.965 . S
Zn140 O151 2.024 . S
Zn140 O156 1.969 . S
Zn141 O148 1.969 . S
Zn141 O154 1.969 . S
Zn141 O155 1.965 . S
Zn141 O157 2.024 . S
C142 O143 1.229 . S
C142 O151 1.058 . S
O143 C142 1.229 . S
C144 O145 1.229 . S
C144 O157 1.058 . S
O145 C144 1.229 . S
O146 Zn140 1.969 . S
O146 C149 1.267 . S
O147 Zn140 1.965 . S
O147 C158 1.260 . S
O148 Zn141 1.969 . S
O148 C158 1.258 . S
C149 O146 1.267 . S
C149 O150 1.228 . S
O150 C149 1.228 . S
O151 Zn140 2.024 . S
O151 C142 1.058 . S
C152 O153 1.228 . S
C152 O154 1.267 . S
O153 C152 1.228 . S
O154 Zn141 1.969 . S
O154 C152 1.267 . S
O155 Zn141 1.965 . S
O155 C159 1.260 . S
O156 Zn140 1.969 . S
O156 C159 1.258 . S
O157 Zn141 2.024 . S
O157 C144 1.058 . S
C158 O147 1.260 . S
C158 O148 1.258 . S
C159 O155 1.260 . S
C159 O156 1.258 . S
Zn160 O166 1.969 . S
Zn160 O167 1.965 . S
Zn160 O171 2.024 . S
Zn160 O176 1.969 . S
Zn161 O168 1.969 . S
Zn161 O174 1.969 . S
Zn161 O175 1.965 . S
Zn161 O177 2.024 . S
C162 O163 1.229 . S
C162 O171 1.058 . S
O163 C162 1.229 . S
C164 O165 1.229 . S
C164 O177 1.058 . S
O165 C164 1.229 . S
O166 Zn160 1.969 . S
O166 C169 1.267 1_565 S
O167 Zn160 1.965 . S
O167 C178 1.260 . S
O168 Zn161 1.969 . S
O168 C178 1.258 . S
C169 O166 1.267 1_545 S
C169 O170 1.228 . S
O170 C169 1.228 . S
O171 Zn160 2.024 . S
O171 C162 1.058 . S
C172 O173 1.228 . S
C172 O174 1.267 . S
O173 C172 1.228 . S
O174 Zn161 1.969 . S
O174 C172 1.267 . S
O175 Zn161 1.965 . S
O175 C179 1.260 . S
O176 Zn160 1.969 . S
O176 C179 1.258 . S
O177 Zn161 2.024 . S
O177 C164 1.058 . S
C178 O167 1.260 . S
C178 O168 1.258 . S
C179 O175 1.260 . S
C179 O176 1.258 . S
Zn180 O186 1.969 . S
Zn180 O187 1.965 . S
Zn180 O191 2.024 . S
Zn180 O196 1.969 . S
Zn181 O188 1.969 . S
Zn181 O194 1.969 . S
Zn181 O195 1.965 . S
Zn181 O197 2.024 . S
C182 O183 1.229 . S
C182 O191 1.058 . S
O183 C182 1.229 . S
C184 O185 1.229 . S
C184 O197 1.058 . S
O185 C184 1.229 . S
O186 Zn180 1.969 . S
O186 C189 1.267 . S
O187 Zn180 1.965 . S
O187 C198 1.260 . S
O188 Zn181 1.969 . S
O188 C198 1.258 . S
C189 O186 1.267 . S
C189 O190 1.228 . S
O190 C189 1.228 . S
O191 Zn180 2.024 . S
O191 C182 1.058 . S
C192 O193 1.228 . S
C192 O194 1.267 . S
O193 C192 1.228 . S
O194 Zn181 1.969 . S
O194 C192 1.267 . S
O195 Zn181 1.965 . S
O195 C199 1.260 . S
O196 Zn180 1.969 . S
O196 C199 1.258 . S
O197 Zn181 2.024 . S
O197 C184 1.058 . S
C198 O187 1.260 . S
C198 O188 1.258 . S
C199 O195 1.260 . S
C199 O196 1.258 . S
Zn200 O206 1.969 . S
Zn200 O207 1.965 . S
Zn200 O211 2.024 . S
Zn200 O216 1.969 . S
Zn201 O208 1.969 . S
Zn201 O214 1.969 . S
Zn201 O215 1.965 . S
Zn201 O217 2.024 . S
C202 O203 1.229 . S
C202 O211 1.058 . S
O203 C202 1.229 . S
C204 O205 1.229 . S
C204 O217 1.058 . S
O205 C204 1.229 . S
O206 Zn200 1.969 . S
O206 C209 1.267 . S
O207 Zn200 1.965 . S
O207 C218 1.260 . S
O208 Zn201 1.969 . S
O208 C218 1.258 . S
C209 O206 1.267 . S
C209 O210 1.228 . S
O210 C209 1.228 . S
O211 Zn200 2.024 . S
O211 C202 1.058 . S
C212 O213 1.228 . S
C212 O214 1.267 . S
O213 C212 1.228 . S
O214 Zn201 1.969 . S
O214 C212 1.267 . S
O215 Zn201 1.965 . S
O215 C219 1.260 . S
O216 Zn200 1.969 . S
O216 C219 1.258 . S
O217 Zn201 2.024 . S
O217 C204 1.058 . S
C218 O207 1.260 . S
C218 O208 1.258 . S
C219 O215 1.260 . S
C219 O216 1.258 . S
Zn220 O226 1.969 . S
Zn220 O227 1.965 . S
Zn220 O231 2.024 . S
Zn220 O236 1.969 . S
Zn221 O228 1.969 . S
Zn221 O234 1.969 . S
Zn221 O235 1.965 . S
Zn221 O237 2.024 . S
C222 O223 1.229 . S
C222 O231 1.058 . S
O223 C222 1.229 . S
C224 O225 1.229 . S
C224 O237 1.058 . S
O225 C224 1.229 . S
O226 Zn220 1.969 . S
O226 C229 1.267 . S
O227 Zn220 1.965 . S
O227 C238 1.260 . S
O228 Zn221 1.969 . S
O228 C238 1.258 . S
C229 O226 1.267 . S
C229 O230 1.228 . S
O230 C229 1.228 . S
O231 Zn220 2.024 . S
O231 C222 1.058 . S
C232 O233 1.228 . S
C232 O234 1.267 . S
O233 C232 1.228 . S
O234 Zn221 1.969 . S
O234 C232 1.267 . S
O235 Zn221 1.965 . S
O235 C239 1.260 . S
O236 Zn220 1.969 . S
O236 C239 1.258 . S
O237 Zn221 2.024 . S
O237 C224 1.058 . S
C238 O227 1.260 . S
C238 O228 1.258 . S
C239 O235 1.260 . S
C239 O236 1.258 . S
Zn240 O246 1.969 . S
Zn240 O247 1.965 . S
Zn240 O251 2.024 . S
Zn240 O256 1.969 . S
Zn241 O248 1.969 . S
Zn241 O254 1.969 . S
Zn241 O255 1.965 . S
Zn241 O257 2.024 . S
C242 O243 1.229 . S
C242 O251 1.058 . S
O243 C242 1.229 . S
C244 O245 1.229 . S
C244 O257 1.058 . S
O245 C244 1.229 . S
O246 Zn240 1.969 . S
O246 C249 1.267 . S
O247 Zn240 1.965 . S
O247 C258 1.260 . S
O248 Zn241 1.969 . S
O248 C258 1.258 . S
C249 O246 1.267 . S
C249 O250 1.228 . S
O250 C249 1.228 . S
O251 Zn240 2.024 . S
O251 C242 1.058 . S
C252 O253 1.228 . S
C252 O254 1.267 . S
O253 C252 1.228 . S
O254 Zn241 1.969 . S
O254 C252 1.267 . S
O255 Zn241 1.965 . S
O255 C259 1.260 . S
O256 Zn240 1.969 . S
O256 C259 1.258 . S
O257 Zn241 2.024 . S
O257 C244 1.058 . S
C258 O247 1.260 . S
C258 O248 1.258 . S
C259 O255 1.260 . S
C259 O256 1.258 . S
Zn260 O266 1.969 . S
Zn260 O267 1.965 . S
Zn260 O271 2.024 . S
Zn260 O276 1.969 . S
Zn261 O268 1.969 . S
Zn261 O274 1.969 . S
Zn261 O275 1.965 . S
Zn261 O277 2.024 . S
C262 O263 1.229 . S
C262 O271 1.058 . S
O263 C262 1.229 . S
C264 O265 1.229 . S
C264 O277 1.058 . S
O265 C264 1.229 . S
O266 Zn260 1.969 . S
O266 C269 1.267 . S
O267 Zn260 1.965 . S
O267 C278 1.260 . S
O268 Zn261 1.969 . S
O268 C278 1.258 . S
C269 O266 1.267 . S
C269 O270 1.228 . S
O270 C269 1.228 . S
O271 Zn260 2.024 . S
O271 C262 1.058 . S
C272 O273 1.228 . S
C272 O274 1.267 . S
O273 C272 1.228 . S
O274 Zn261 1.969 . S
O274 C272 1.267 . S
O275 Zn261 1.965 . S
O275 C279 1.260 . S
O276 Zn260 1.969 . S
O276 C279 1.258 . S
O277 Zn261 2.024 . S
O277 C264 1.058 . S
C278 O267 1.260 . S
C278 O268 1.258 . S
C279 O275 1.260 . S
C279 O276 1.258 . S
Zn280 O286 1.969 . S
Zn280 O287 1.965 . S
Zn280 O291 2.024 . S
Zn280 O296 1.969 . S
Zn281 O288 1.969 . S
Zn281 O294 1.969 . S
Zn281 O295 1.965 . S
Zn281 O297 2.024 . S
C282 O283 1.229 . S
C282 O291 1.058 . S
O283 C282 1.229 . S
C284 O285 1.229 . S
C284 O297 1.058 . S
O285 C284 1.229 . S
O286 Zn280 1.969 . S
O286 C289 1.267 . S
O287 Zn280 1.965 . S
O287 C298 1.260 . S
O288 Zn281 1.969 . S
O288 C298 1.258 . S
C289 O286 1.267 . S
C289 O290 1.228 . S
O290 C289 1.228 . S
O291 Zn280 2.024 . S
O291 C282 1.058 . S
C292 O293 1.228 . S
C292 O294 1.267 . S
O293 C292 1.228 . S
O294 Zn281 1.969 . S
O294 C292 1.267 . S
O295 Zn281 1.965 . S
O295 C299 1.260 . S
O296 Zn280 1.969 . S
O296 C299 1.258 . S
O297 Zn281 2.024 . S
O297 C284 1.058 . S
C298 O287 1.260 . S
C298 O288 1.258 . S
C299 O295 1.260 . S
C299 O296 1.258 . S
Zn300 O306 1.969 . S
Zn300 O307 1.965 . S
Zn300 O311 2.024 . S
Zn300 O316 1.969 . S
Zn301 O308 1.969 . S
Zn301 O314 1.969 . S
Zn301 O315 1.965 . S
Zn301 O317 2.024 . S
C302 O303 1.229 . S
C302 O311 1.058 . S
O303 C302 1.229 . S
C304 O305 1.229 . S
C304 O317 1.058 . S
O305 C304 1.229 . S
O306 Zn300 1.969 . S
O306 C309 1.267 . S
O307 Zn300 1.965 . S
O307 C318 1.260 . S
O308 Zn301 1.969 . S
O308 C318 1.258 . S
C309 O306 1.267 . S
C309 O310 1.228 . S
O310 C309 1.228 . S
O311 Zn300 2.024 . S
O311 C302 1.058 . S
C312 O313 1.228 . S
C312 O314 1.267 . S
O313 C312 1.228 . S
O314 Zn301 1.969 . S
O314 C312 1.267 . S
O315 Zn301 1.965 . S
O315 C319 1.260 . S
O316 Zn300 1.969 . S
O316 C319 1.258 . S
O317 Zn301 2.024 . S
O317 C304 1.058 . S
C318 O307 1.260 . S
C318 O308 1.258 . S
C319 O315 1.260 . S
C319 O316 1.258 . S
Zn320 O326 1.969 . S
Zn320 O327 1.965 . S
Zn320 O331 2.024 . S
Zn320 O336 1.969 . S
Zn321 O328 1.969 . S
Zn321 O334 1.969 . S
Zn321 O335 1.965 . S
Zn321 O337 2.024 . S
C322 O323 1.229 . S
C322 O331 1.058 . S
O323 C322 1.229 . S
C324 O325 1.229 . S
C324 O337 1.058 . S
O325 C324 1.229 . S
O326 Zn320 1.969 . S
O326 C329 1.267 1_655 S
O327 Zn320 1.965 . S
O327 C338 1.260 . S
O328 Zn321 1.969 . S
O328 C338 1.258 . S
C329 O326 1.267 1_455 S
C329 O330 1.228 . S
O330 C329 1.228 . S
O331 Zn320 2.024 . S
O331 C322 1.058 . S
C332 O333 1.228 . S
C332 O334 1.267 . S
O333 C332 1.228 . S
O334 Zn321 1.969 . S
O334 C332 1.267 . S
O335 Zn321 1.965 . S
O335 C339 1.260 . S
O336 Zn320 1.969 . S
O336 C339 1.258 . S
O337 Zn321 2.024 . S
O337 C324 1.058 . S
C338 O327 1.260 . S
C338 O328 1.258 . S
C339 O335 1.260 . S
C339 O336 1.258 . S
Zn340 O346 1.969 . S
Zn340 O347 1.965 . S
Zn340 O351 2.024 . S
Zn340 O356 1.969 . S
Zn341 O348 1.969 . S
Zn341 O354 1.969 . S
Zn341 O355 1.965 . S
Zn341 O357 2.024 . S
C342 O343 1.229 . S
C342 O351 1.058 . S
O343 C342 1.229 . S
C344 O345 1.229 . S
C344 O357 1.058 . S
O345 C344 1.229 . S
O346 Zn340 1.969 . S
O346 C349 1.267 . S
O347 Zn340 1.965 . S
O347 C358 1.260 . S
O348 Zn341 1.969 . S
O348 C358 1.258 . S
C349 O346 1.267 . S
C349 O350 1.228 . S
O350 C349 1.228 . S
O351 Zn340 2.024 . S
O351 C342 1.058 . S
C352 O353 1.228 . S
C352 O354 1.267 . S
O353 C352 1.228 . S
O354 Zn341 1.969 . S
O354 C352 1.267 . S
O355 Zn341 1.965 . S
O355 C359 1.260 . S
O356 Zn340 1.969 . S
O356 C359 1.258 . S
O357 Zn341 2.024 . S
O357 C344 1.058 . S
C358 O347 1.260 . S
C358 O348 1.258 . S
C359 O355 1.260 . S
C359 O356 1.258 . S
H360 C366 0.930 . S
H361 C369 0.930 . S
H362 C370 0.930 . S
H363 C371 0.930 . S
H364 C374 0.930 . S
H365 C375 0.930 . S
C366 H360 0.930 . S
C366 C367 1.355 . S
C366 C368 1.415 . S
C367 C366 1.355 . S
C367 C369 1.419 . S
C368 C366 1.415 . S
C368 C373 1.425 . S
C368 C375 1.409 . S
C369 H361 0.930 . S
C369 C367 1.419 . S
C369 C370 1.362 . S
C370 H362 0.930 . S
C370 C369 1.362 . S
C370 C373 1.409 . S
C371 H363 0.930 . S
C371 C372 1.355 . S
C371 C373 1.415 . S
C372 C371 1.355 . S
C372 C374 1.419 . S
C373 C368 1.425 . S
C373 C370 1.409 . S
C373 C371 1.415 . S
C374 H364 0.930 . S
C374 C372 1.419 . S
C374 C375 1.362 . S
C375 H365 0.930 . S
C375 C368 1.409 . S
C375 C374 1.362 . S
H376 C382 0.930 . S
H377 C385 0.930 . S
H378 C386 0.930 . S
H379 C387 0.930 . S
H380 C390 0.930 . S
H381 C391 0.930 . S
C382 H376 0.930 . S
C382 C383 1.355 . S
C382 C384 1.415 . S
C383 C382 1.355 . S
C383 C385 1.419 . S
C384 C382 1.415 . S
C384 C389 1.425 . S
C384 C391 1.409 . S
C385 H377 0.930 . S
C385 C383 1.419 . S
C385 C386 1.362 . S
C386 H378 0.930 . S
C386 C385 1.362 . S
C386 C389 1.409 . S
C387 H379 0.930 . S
C387 C388 1.355 . S
C387 C389 1.415 . S
C388 C387 1.355 . S
C388 C390 1.419 . S
C389 C384 1.425 . S
C389 C386 1.409 . S
C389 C387 1.415 . S
C390 H380 0.930 . S
C390 C388 1.419 . S
C390 C391 1.362 . S
C391 H381 0.930 . S
C391 C384 1.409 . S
C391 C390 1.362 . S
H392 C398 0.930 . S
H393 C401 0.930 . S
H394 C402 0.930 . S
H395 C403 0.930 . S
H396 C406 0.930 . S
H397 C407 0.930 . S
C398 H392 0.930 . S
C398 C399 1.355 . S
C398 C400 1.415 . S
C399 C398 1.355 . S
C399 C401 1.419 . S
C400 C398 1.415 . S
C400 C405 1.425 . S
C400 C407 1.409 . S
C401 H393 0.930 . S
C401 C399 1.419 . S
C401 C402 1.362 . S
C402 H394 0.930 . S
C402 C401 1.362 . S
C402 C405 1.409 . S
C403 H395 0.930 . S
C403 C404 1.355 . S
C403 C405 1.415 . S
C404 C403 1.355 . S
C404 C406 1.419 . S
C405 C400 1.425 . S
C405 C402 1.409 . S
C405 C403 1.415 . S
C406 H396 0.930 . S
C406 C404 1.419 . S
C406 C407 1.362 . S
C407 H397 0.930 . S
C407 C400 1.409 . S
C407 C406 1.362 . S
H408 C414 0.930 . S
H409 C417 0.930 . S
H410 C418 0.930 . S
H411 C419 0.930 . S
H412 C422 0.930 . S
H413 C423 0.930 . S
C414 H408 0.930 . S
C414 C415 1.355 . S
C414 C416 1.415 . S
C415 C414 1.355 . S
C415 C417 1.419 . S
C416 C414 1.415 . S
C416 C421 1.425 . S
C416 C423 1.409 . S
C417 H409 0.930 . S
C417 C415 1.419 . S
C417 C418 1.362 . S
C418 H410 0.930 . S
C418 C417 1.362 . S
C418 C421 1.409 . S
C419 H411 0.930 . S
C419 C420 1.355 . S
C419 C421 1.415 . S
C420 C419 1.355 . S
C420 C422 1.419 . S
C421 C416 1.425 . S
C421 C418 1.409 . S
C421 C419 1.415 . S
C422 H412 0.930 . S
C422 C420 1.419 . S
C422 C423 1.362 . S
C423 H413 0.930 . S
C423 C416 1.409 . S
C423 C422 1.362 . S
H424 C430 0.930 . S
H425 C433 0.930 . S
H426 C434 0.930 . S
H427 C435 0.930 . S
H428 C438 0.930 . S
H429 C439 0.930 . S
C430 H424 0.930 . S
C430 C431 1.355 . S
C430 C432 1.415 . S
C431 C430 1.355 . S
C431 C433 1.419 . S
C432 C430 1.415 . S
C432 C437 1.425 . S
C432 C439 1.409 . S
C433 H425 0.930 . S
C433 C431 1.419 . S
C433 C434 1.362 . S
C434 H426 0.930 . S
C434 C433 1.362 . S
C434 C437 1.409 . S
C435 H427 0.930 . S
C435 C436 1.355 . S
C435 C437 1.415 . S
C436 C435 1.355 . S
C436 C438 1.419 . S
C437 C432 1.425 . S
C437 C434 1.409 . S
C437 C435 1.415 . S
C438 H428 0.930 . S
C438 C436 1.419 . S
C438 C439 1.362 . S
C439 H429 0.930 . S
C439 C432 1.409 . S
C439 C438 1.362 . S
H440 C446 0.930 . S
H441 C449 0.930 . S
H442 C450 0.930 . S
H443 C451 0.930 . S
H444 C454 0.930 . S
H445 C455 0.930 . S
C446 H440 0.930 . S
C446 C447 1.355 . S
C446 C448 1.415 . S
C447 C446 1.355 . S
C447 C449 1.419 . S
C448 C446 1.415 . S
C448 C453 1.425 . S
C448 C455 1.409 . S
C449 H441 0.930 . S
C449 C447 1.419 . S
C449 C450 1.362 . S
C450 H442 0.930 . S
C450 C449 1.362 . S
C450 C453 1.409 . S
C451 H443 0.930 . S
C451 C452 1.355 . S
C451 C453 1.415 . S
C452 C451 1.355 . S
C452 C454 1.419 . S
C453 C448 1.425 . S
C453 C450 1.409 . S
C453 C451 1.415 . S
C454 H444 0.930 . S
C454 C452 1.419 . S
C454 C455 1.362 . S
C455 H445 0.930 . S
C455 C448 1.409 . S
C455 C454 1.362 . S
H456 C462 0.930 . S
H457 C465 0.930 . S
H458 C466 0.930 . S
H459 C467 0.930 . S
H460 C470 0.930 . S
H461 C471 0.930 . S
C462 H456 0.930 . S
C462 C463 1.355 . S
C462 C464 1.415 . S
C463 C462 1.355 . S
C463 C465 1.419 . S
C464 C462 1.415 . S
C464 C469 1.425 . S
C464 C471 1.409 . S
C465 H457 0.930 . S
C465 C463 1.419 . S
C465 C466 1.362 . S
C466 H458 0.930 . S
C466 C465 1.362 . S
C466 C469 1.409 . S
C467 H459 0.930 . S
C467 C468 1.355 . S
C467 C469 1.415 . S
C468 C467 1.355 . S
C468 C470 1.419 . S
C469 C464 1.425 . S
C469 C466 1.409 . S
C469 C467 1.415 . S
C470 H460 0.930 . S
C470 C468 1.419 . S
C470 C471 1.362 . S
C471 H461 0.930 . S
C471 C464 1.409 . S
C471 C470 1.362 . S
H472 C478 0.930 . S
H473 C481 0.939 . S
H474 C482 0.930 . S
H475 C483 0.930 1_565 S
H476 C486 0.930 . S
H477 C487 0.930 . S
C478 H472 0.930 . S
C478 C479 1.355 . S
C478 C480 1.415 . S
C479 C478 1.355 . S
C479 C481 1.411 1_655 S
C480 C478 1.415 . S
C480 C485 1.425 . S
C480 C487 1.409 . S
C481 H473 0.939 . S
C481 C479 1.411 1_455 S
C481 C482 1.361 1_455 S
C482 H474 0.930 . S
C482 C481 1.361 1_655 S
C482 C485 1.409 . S
C483 H475 0.930 1_545 S
C483 C484 1.355 1_545 S
C483 C485 1.415 . S
C484 C483 1.355 1_565 S
C484 C486 1.419 1_565 S
C485 C480 1.425 . S
C485 C482 1.409 . S
C485 C483 1.415 . S
C486 H476 0.930 . S
C486 C484 1.419 1_545 S
C486 C487 1.362 . S
C487 H477 0.930 . S
C487 C480 1.409 . S
C487 C486 1.362 . S
H488 C494 0.930 . S
H489 C497 0.930 . S
H490 C498 0.930 . S
H491 C499 0.930 . S
H492 C502 0.930 . S
H493 C503 0.930 . S
C494 H488 0.930 . S
C494 C495 1.355 . S
C494 C496 1.415 1_455 S
C495 C494 1.355 . S
C495 C497 1.419 . S
C496 C494 1.415 1_655 S
C496 C501 1.425 . S
C496 C503 1.409 . S
C497 H489 0.930 . S
C497 C495 1.419 . S
C497 C498 1.362 1_455 S
C498 H490 0.930 . S
C498 C497 1.362 1_655 S
C498 C501 1.409 . S
C499 H491 0.930 . S
C499 C500 1.355 . S
C499 C501 1.415 . S
C500 C499 1.355 . S
C500 C502 1.419 . S
C501 C496 1.425 . S
C501 C498 1.409 . S
C501 C499 1.415 . S
C502 H492 0.930 . S
C502 C500 1.419 . S
C502 C503 1.362 . S
C503 H493 0.930 . S
C503 C496 1.409 . S
C503 C502 1.362 . S
H504 C510 0.930 . S
H505 C513 0.930 . S
H506 C514 0.930 . S
H507 C515 0.930 . S
H508 C518 0.930 . S
H509 C519 0.930 . S
C510 H504 0.930 . S
C510 C511 1.355 . S
C510 C512 1.415 . S
C511 C510 1.355 . S
C511 C513 1.419 . S
C512 C510 1.415 . S
C512 C517 1.425 . S
C512 C519 1.409 . S
C513 H505 0.930 . S
C513 C511 1.419 . S
C513 C514 1.362 . S
C514 H506 0.930 . S
C514 C513 1.362 . S
C514 C517 1.409 . S
C515 H507 0.930 . S
C515 C516 1.355 . S
C515 C517 1.415 . S
C516 C515 1.355 . S
C516 C518 1.419 . S
C517 C512 1.425 . S
C517 C514 1.409 . S
C517 C515 1.415 . S
C518 H508 0.930 . S
C518 C516 1.419 . S
C518 C519 1.362 . S
C519 H509 0.930 . S
C519 C512 1.409 . S
C519 C518 1.362 . S
H520 C526 0.930 . S
H521 C529 0.930 . S
H522 C530 0.930 . S
H523 C531 0.930 . S
H524 C534 0.930 . S
H525 C535 0.930 . S
C526 H520 0.930 . S
C526 C527 1.355 . S
C526 C528 1.415 . S
C527 C526 1.355 . S
C527 C529 1.419 . S
C528 C526 1.415 . S
C528 C533 1.425 . S
C528 C535 1.409 . S
C529 H521 0.930 . S
C529 C527 1.419 . S
C529 C530 1.362 . S
C530 H522 0.930 . S
C530 C529 1.362 . S
C530 C533 1.409 . S
C531 H523 0.930 . S
C531 C532 1.355 . S
C531 C533 1.415 . S
C532 C531 1.355 . S
C532 C534 1.419 . S
C533 C528 1.425 . S
C533 C530 1.409 . S
C533 C531 1.415 . S
C534 H524 0.930 . S
C534 C532 1.419 . S
C534 C535 1.362 . S
C535 H525 0.930 . S
C535 C528 1.409 . S
C535 C534 1.362 . S
H536 C542 0.930 . S
H537 C545 0.930 . S
H538 C546 0.930 . S
H539 C547 0.930 . S
H540 C550 0.930 . S
H541 C551 0.930 . S
C542 H536 0.930 . S
C542 C543 1.355 . S
C542 C544 1.415 . S
C543 C542 1.355 . S
C543 C545 1.419 . S
C544 C542 1.415 . S
C544 C549 1.425 . S
C544 C551 1.409 . S
C545 H537 0.930 . S
C545 C543 1.419 . S
C545 C546 1.362 . S
C546 H538 0.930 . S
C546 C545 1.362 . S
C546 C549 1.409 . S
C547 H539 0.930 . S
C547 C548 1.355 . S
C547 C549 1.415 . S
C548 C547 1.355 . S
C548 C550 1.419 . S
C549 C544 1.425 . S
C549 C546 1.409 . S
C549 C547 1.415 . S
C550 H540 0.930 . S
C550 C548 1.419 . S
C550 C551 1.362 . S
C551 H541 0.930 . S
C551 C544 1.409 . S
C551 C550 1.362 . S
H552 C558 0.930 . S
H553 C561 0.930 . S
H554 C562 0.930 . S
H555 C563 0.930 . S
H556 C566 0.930 . S
H557 C567 0.930 . S
C558 H552 0.930 . S
C558 C559 1.355 . S
C558 C560 1.415 . S
C559 C558 1.355 . S
C559 C561 1.419 . S
C560 C558 1.415 . S
C560 C565 1.425 . S
C560 C567 1.409 . S
C561 H553 0.930 . S
C561 C559 1.419 . S
C561 C562 1.362 . S
C562 H554 0.930 . S
C562 C561 1.362 . S
C562 C565 1.409 . S
C563 H555 0.930 . S
C563 C564 1.355 . S
C563 C565 1.415 . S
C564 C563 1.355 . S
C564 C566 1.419 . S
C565 C560 1.425 . S
C565 C562 1.409 . S
C565 C563 1.415 . S
C566 H556 0.930 . S
C566 C564 1.419 . S
C566 C567 1.362 . S
C567 H557 0.930 . S
C567 C560 1.409 . S
C567 C566 1.362 . S
H568 C574 0.930 . S
H569 C577 0.930 . S
H570 C578 0.930 . S
H571 C579 0.930 . S
H572 C582 0.930 . S
H573 C583 0.930 . S
C574 H568 0.930 . S
C574 C575 1.355 . S
C574 C576 1.415 . S
C575 C574 1.355 . S
C575 C577 1.419 . S
C576 C574 1.415 . S
C576 C581 1.425 . S
C576 C583 1.409 . S
C577 H569 0.930 . S
C577 C575 1.419 . S
C577 C578 1.362 . S
C578 H570 0.930 . S
C578 C577 1.362 . S
C578 C581 1.409 . S
C579 H571 0.930 . S
C579 C580 1.355 . S
C579 C581 1.415 . S
C580 C579 1.355 . S
C580 C582 1.419 . S
C581 C576 1.425 . S
C581 C578 1.409 . S
C581 C579 1.415 . S
C582 H572 0.930 . S
C582 C580 1.419 . S
C582 C583 1.362 . S
C583 H573 0.930 . S
C583 C576 1.409 . S
C583 C582 1.362 . S
H584 C590 0.930 . S
H585 C593 0.930 . S
H586 C594 0.930 . S
H587 C595 0.930 . S
H588 C598 0.930 . S
H589 C599 0.930 . S
C590 H584 0.930 . S
C590 C591 1.355 . S
C590 C592 1.415 . S
C591 C590 1.355 . S
C591 C593 1.419 . S
C592 C590 1.415 . S
C592 C597 1.425 . S
C592 C599 1.409 . S
C593 H585 0.930 . S
C593 C591 1.419 . S
C593 C594 1.362 . S
C594 H586 0.930 . S
C594 C593 1.362 . S
C594 C597 1.409 . S
C595 H587 0.930 . S
C595 C596 1.355 . S
C595 C597 1.415 . S
C596 C595 1.355 . S
C596 C598 1.419 . S
C597 C592 1.425 . S
C597 C594 1.409 . S
C597 C595 1.415 . S
C598 H588 0.930 . S
C598 C596 1.419 . S
C598 C599 1.362 . S
C599 H589 0.930 . S
C599 C592 1.409 . S
C599 C598 1.362 . S
H600 C606 0.930 . S
H601 C609 0.930 . S
H602 C610 0.930 . S
H603 C611 0.930 . S
H604 C614 0.930 . S
H605 C615 0.930 . S
C606 H600 0.930 . S
C606 C607 1.355 . S
C606 C608 1.415 . S
C607 C606 1.355 . S
C607 C609 1.419 . S
C608 C606 1.415 . S
C608 C613 1.425 . S
C608 C615 1.409 . S
C609 H601 0.930 . S
C609 C607 1.419 . S
C609 C610 1.362 . S
C610 H602 0.930 . S
C610 C609 1.362 . S
C610 C613 1.409 . S
C611 H603 0.930 . S
C611 C612 1.355 . S
C611 C613 1.415 . S
C612 C611 1.355 . S
C612 C614 1.419 . S
C613 C608 1.425 . S
C613 C610 1.409 . S
C613 C611 1.415 . S
C614 H604 0.930 . S
C614 C612 1.419 . S
C614 C615 1.362 . S
C615 H605 0.930 . S
C615 C608 1.409 . S
C615 C614 1.362 . S
H616 C622 0.930 . S
H617 C625 0.930 . S
H618 C626 0.930 . S
H619 C627 0.930 . S
H620 C630 0.930 . S
H621 C631 0.930 . S
C622 H616 0.930 . S
C622 C623 1.355 . S
C622 C624 1.415 . S
C623 C622 1.355 . S
C623 C625 1.419 . S
C624 C622 1.415 . S
C624 C629 1.425 . S
C624 C631 1.409 . S
C625 H617 0.930 . S
C625 C623 1.419 . S
C625 C626 1.362 . S
C626 H618 0.930 . S
C626 C625 1.362 . S
C626 C629 1.409 . S
C627 H619 0.930 . S
C627 C628 1.355 . S
C627 C629 1.415 1_545 S
C628 C627 1.355 . S
C628 C630 1.419 . S
C629 C624 1.425 . S
C629 C626 1.409 . S
C629 C627 1.415 1_565 S
C630 H620 0.930 . S
C630 C628 1.419 . S
C630 C631 1.362 1_545 S
C631 H621 0.930 . S
C631 C624 1.409 . S
C631 C630 1.362 1_565 S
H632 C638 0.930 . S
H633 C641 0.930 1_545 S
H634 C642 0.930 . S
H635 C643 0.930 . S
H636 C646 0.930 1_655 S
H637 C647 0.930 . S
C638 H632 0.930 . S
C638 C639 1.355 . S
C638 C640 1.415 . S
C639 C638 1.355 . S
C639 C641 1.419 . S
C640 C638 1.415 . S
C640 C645 1.425 . S
C640 C647 1.409 . S
C641 H633 0.930 1_565 S
C641 C639 1.419 . S
C641 C642 1.362 . S
C642 H634 0.930 . S
C642 C641 1.362 . S
C642 C645 1.409 . S
C643 H635 0.930 . S
C643 C644 1.355 1_455 S
C643 C645 1.415 . S
C644 C643 1.355 1_655 S
C644 C646 1.419 1_655 S
C645 C640 1.425 . S
C645 C642 1.409 . S
C645 C643 1.415 . S
C646 H636 0.930 1_455 S
C646 C644 1.419 1_455 S
C646 C647 1.362 . S
C647 H637 0.930 . S
C647 C640 1.409 . S
C647 C646 1.362 . S
H648 C654 0.930 . S
H649 C657 0.930 . S
H650 C658 0.930 . S
H651 C659 0.930 . S
H652 C662 0.930 . S
H653 C663 0.930 . S
C654 H648 0.930 . S
C654 C655 1.355 1_565 S
C654 C656 1.415 . S
C655 C654 1.355 1_545 S
C655 C657 1.419 . S
C656 C654 1.415 . S
C656 C661 1.425 1_564 S
C656 C663 1.409 1_554 S
C657 H649 0.930 . S
C657 C655 1.419 . S
C657 C658 1.362 . S
C658 H650 0.930 . S
C658 C657 1.362 . S
C658 C661 1.409 1_554 S
C659 H651 0.930 . S
C659 C660 1.355 . S
C659 C661 1.415 . S
C660 C659 1.355 . S
C660 C662 1.419 1_545 S
C661 C656 1.425 1_546 S
C661 C658 1.409 1_556 S
C661 C659 1.415 . S
C662 H652 0.930 . S
C662 C660 1.419 1_565 S
C662 C663 1.362 . S
C663 H653 0.930 . S
C663 C656 1.409 1_556 S
C663 C662 1.362 . S
H664 C670 0.930 . S
H665 C673 0.930 1_655 S
H666 C674 0.926 . S
H667 C675 0.930 1_655 S
H668 C678 0.930 . S
H669 C679 0.930 . S
C670 H664 0.930 . S
C670 C671 1.355 . S
C670 C672 1.415 . S
C671 C670 1.355 . S
C671 C673 1.419 . S
C672 C670 1.415 . S
C672 C677 1.425 1_556 S
C672 C679 1.409 1_556 S
C673 H665 0.930 1_455 S
C673 C671 1.419 . S
C673 C674 1.363 1_455 S
C674 H666 0.926 . S
C674 C673 1.363 1_655 S
C674 C677 1.413 1_656 S
C675 H667 0.930 1_455 S
C675 C676 1.355 . S
C675 C677 1.415 . S
C676 C675 1.355 . S
C676 C678 1.419 . S
C677 C672 1.425 1_554 S
C677 C674 1.413 1_454 S
C677 C675 1.415 . S
C678 H668 0.930 . S
C678 C676 1.419 . S
C678 C679 1.362 . S
C679 H669 0.930 . S
C679 C672 1.409 1_554 S
C679 C678 1.362 . S
H680 C686 0.930 . S
H681 C689 0.930 . S
H682 C690 0.930 . S
H683 C691 0.930 . S
H684 C694 0.930 . S
H685 C695 0.930 . S
C686 H680 0.930 . S
C686 C687 1.355 . S
C686 C688 1.415 . S
C687 C686 1.355 . S
C687 C689 1.419 . S
C688 C686 1.415 . S
C688 C693 1.425 1_556 S
C688 C695 1.409 1_556 S
C689 H681 0.930 . S
C689 C687 1.419 . S
C689 C690 1.362 . S
C690 H682 0.930 . S
C690 C689 1.362 . S
C690 C693 1.409 1_556 S
C691 H683 0.930 . S
C691 C692 1.355 . S
C691 C693 1.415 . S
C692 C691 1.355 . S
C692 C694 1.419 . S
C693 C688 1.425 1_554 S
C693 C690 1.409 1_554 S
C693 C691 1.415 . S
C694 H684 0.930 . S
C694 C692 1.419 . S
C694 C695 1.362 . S
C695 H685 0.930 . S
C695 C688 1.409 1_554 S
C695 C694 1.362 . S
H696 C702 0.930 . S
H697 C705 0.930 . S
H698 C706 0.930 . S
H699 C707 0.930 . S
H700 C710 0.930 . S
H701 C711 0.930 . S
C702 H696 0.930 . S
C702 C703 1.355 . S
C702 C704 1.415 . S
C703 C702 1.355 . S
C703 C705 1.419 . S
C704 C702 1.415 . S
C704 C709 1.425 . S
C704 C711 1.409 . S
C705 H697 0.930 . S
C705 C703 1.419 . S
C705 C706 1.362 . S
C706 H698 0.930 . S
C706 C705 1.362 . S
C706 C709 1.409 . S
C707 H699 0.930 . S
C707 C708 1.355 . S
C707 C709 1.415 . S
C708 C707 1.355 . S
C708 C710 1.419 . S
C709 C704 1.425 . S
C709 C706 1.409 . S
C709 C707 1.415 . S
C710 H700 0.930 . S
C710 C708 1.419 . S
C710 C711 1.362 . S
C711 H701 0.930 . S
C711 C704 1.409 . S
C711 C710 1.362 . S
H712 C718 0.930 . S
H713 C721 0.930 . S
H714 C722 0.930 . S
H715 C723 0.930 . S
H716 C726 0.930 . S
H717 C727 0.930 . S
C718 H712 0.930 . S
C718 C719 1.355 . S
C718 C720 1.415 . S
C719 C718 1.355 . S
C719 C721 1.419 . S
C720 C718 1.415 . S
C720 C725 1.425 . S
C720 C727 1.409 . S
C721 H713 0.930 . S
C721 C719 1.419 . S
C721 C722 1.362 . S
C722 H714 0.930 . S
C722 C721 1.362 . S
C722 C725 1.409 . S
C723 H715 0.930 . S
C723 C724 1.355 . S
C723 C725 1.415 . S
C724 C723 1.355 . S
C724 C726 1.419 . S
C725 C720 1.425 . S
C725 C722 1.409 . S
C725 C723 1.415 . S
C726 H716 0.930 . S
C726 C724 1.419 . S
C726 C727 1.362 . S
C727 H717 0.930 . S
C727 C720 1.409 . S
C727 C726 1.362 . S
H728 C734 0.930 . S
H729 C737 0.930 . S
H730 C738 0.930 . S
H731 C739 0.930 . S
H732 C742 0.930 . S
H733 C743 0.930 . S
C734 H728 0.930 . S
C734 C735 1.355 . S
C734 C736 1.415 . S
C735 C734 1.355 . S
C735 C737 1.419 . S
C736 C734 1.415 . S
C736 C741 1.425 . S
C736 C743 1.409 . S
C737 H729 0.930 . S
C737 C735 1.419 . S
C737 C738 1.362 . S
C738 H730 0.930 . S
C738 C737 1.362 . S
C738 C741 1.409 . S
C739 H731 0.930 . S
C739 C740 1.355 . S
C739 C741 1.415 . S
C740 C739 1.355 . S
C740 C742 1.419 . S
C741 C736 1.425 . S
C741 C738 1.409 . S
C741 C739 1.415 . S
C742 H732 0.930 . S
C742 C740 1.419 . S
C742 C743 1.362 . S
C743 H733 0.930 . S
C743 C736 1.409 . S
C743 C742 1.362 . S
H744 C750 0.930 . S
H745 C753 0.930 . S
H746 C754 0.930 . S
H747 C755 0.930 . S
H748 C758 0.930 . S
H749 C759 0.930 . S
C750 H744 0.930 . S
C750 C751 1.355 . S
C750 C752 1.415 . S
C751 C750 1.355 . S
C751 C753 1.419 . S
C752 C750 1.415 . S
C752 C757 1.425 . S
C752 C759 1.409 . S
C753 H745 0.930 . S
C753 C751 1.419 . S
C753 C754 1.362 . S
C754 H746 0.930 . S
C754 C753 1.362 . S
C754 C757 1.409 . S
C755 H747 0.930 . S
C755 C756 1.355 . S
C755 C757 1.415 . S
C756 C755 1.355 . S
C756 C758 1.419 . S
C757 C752 1.425 . S
C757 C754 1.409 . S
C757 C755 1.415 . S
C758 H748 0.930 . S
C758 C756 1.419 . S
C758 C759 1.362 . S
C759 H749 0.930 . S
C759 C752 1.409 . S
C759 C758 1.362 . S
H760 C766 0.930 . S
H761 C769 0.930 . S
H762 C770 0.930 . S
H763 C771 0.930 . S
H764 C774 0.930 . S
H765 C775 0.930 . S
C766 H760 0.930 . S
C766 C767 1.355 . S
C766 C768 1.415 . S
C767 C766 1.355 . S
C767 C769 1.419 . S
C768 C766 1.415 . S
C768 C773 1.425 . S
C768 C775 1.409 . S
C769 H761 0.930 . S
C769 C767 1.419 . S
C769 C770 1.362 . S
C770 H762 0.930 . S
C770 C769 1.362 . S
C770 C773 1.409 . S
C771 H763 0.930 . S
C771 C772 1.355 . S
C771 C773 1.415 . S
C772 C771 1.355 . S
C772 C774 1.419 . S
C773 C768 1.425 . S
C773 C770 1.409 . S
C773 C771 1.415 . S
C774 H764 0.930 . S
C774 C772 1.419 . S
C774 C775 1.362 . S
C775 H765 0.930 . S
C775 C768 1.409 . S
C775 C774 1.362 . S
H776 C782 0.930 . S
H777 C785 0.930 . S
H778 C786 0.930 . S
H779 C787 0.930 . S
H780 C790 0.930 . S
H781 C791 0.930 . S
C782 H776 0.930 . S
C782 C783 1.355 . S
C782 C784 1.415 . S
C783 C782 1.355 . S
C783 C785 1.419 . S
C784 C782 1.415 . S
C784 C789 1.425 . S
C784 C791 1.409 . S
C785 H777 0.930 . S
C785 C783 1.419 . S
C785 C786 1.362 . S
C786 H778 0.930 . S
C786 C785 1.362 . S
C786 C789 1.409 . S
C787 H779 0.930 . S
C787 C788 1.355 . S
C787 C789 1.415 . S
C788 C787 1.355 . S
C788 C790 1.419 . S
C789 C784 1.425 . S
C789 C786 1.409 . S
C789 C787 1.415 . S
C790 H780 0.930 . S
C790 C788 1.419 . S
C790 C791 1.362 . S
C791 H781 0.930 . S
C791 C784 1.409 . S
C791 C790 1.362 . S
H792 C798 0.930 . S
H793 C801 0.930 . S
H794 C802 0.930 . S
H795 C803 0.930 . S
H796 C806 0.930 . S
H797 C807 0.930 . S
C798 H792 0.930 . S
C798 C799 1.355 . S
C798 C800 1.415 . S
C799 C798 1.355 . S
C799 C801 1.419 . S
C800 C798 1.415 . S
C800 C805 1.425 . S
C800 C807 1.409 . S
C801 H793 0.930 . S
C801 C799 1.419 . S
C801 C802 1.362 . S
C802 H794 0.930 . S
C802 C801 1.362 . S
C802 C805 1.409 . S
C803 H795 0.930 . S
C803 C804 1.355 . S
C803 C805 1.415 . S
C804 C803 1.355 . S
C804 C806 1.419 . S
C805 C800 1.425 . S
C805 C802 1.409 . S
C805 C803 1.415 . S
C806 H796 0.930 . S
C806 C804 1.419 . S
C806 C807 1.362 . S
C807 H797 0.930 . S
C807 C800 1.409 . S
C807 C806 1.362 . S
H808 C814 0.930 . S
H809 C817 0.930 . S
H810 C818 0.930 . S
H811 C819 0.930 . S
H812 C822 0.930 . S
H813 C823 0.930 . S
C814 H808 0.930 . S
C814 C815 1.355 . S
C814 C816 1.415 . S
C815 C814 1.355 . S
C815 C817 1.419 . S
C816 C814 1.415 . S
C816 C821 1.425 . S
C816 C823 1.409 . S
C817 H809 0.930 . S
C817 C815 1.419 . S
C817 C818 1.362 . S
C818 H810 0.930 . S
C818 C817 1.362 . S
C818 C821 1.409 . S
C819 H811 0.930 . S
C819 C820 1.355 . S
C819 C821 1.415 . S
C820 C819 1.355 . S
C820 C822 1.419 . S
C821 C816 1.425 . S
C821 C818 1.409 . S
C821 C819 1.415 . S
C822 H812 0.930 . S
C822 C820 1.419 . S
C822 C823 1.362 . S
C823 H813 0.930 . S
C823 C816 1.409 . S
C823 C822 1.362 . S
H824 C830 0.930 . S
H825 C833 0.930 . S
H826 C834 0.930 . S
H827 C835 0.930 . S
H828 C838 0.930 . S
H829 C839 0.930 . S
C830 H824 0.930 . S
C830 C831 1.355 . S
C830 C832 1.415 . S
C831 C830 1.355 . S
C831 C833 1.419 . S
C832 C830 1.415 . S
C832 C837 1.425 . S
C832 C839 1.409 . S
C833 H825 0.930 . S
C833 C831 1.419 . S
C833 C834 1.362 . S
C834 H826 0.930 . S
C834 C833 1.362 . S
C834 C837 1.409 . S
C835 H827 0.930 . S
C835 C836 1.355 . S
C835 C837 1.415 . S
C836 C835 1.355 . S
C836 C838 1.419 . S
C837 C832 1.425 . S
C837 C834 1.409 . S
C837 C835 1.415 . S
C838 H828 0.930 . S
C838 C836 1.419 . S
C838 C839 1.362 . S
C839 H829 0.930 . S
C839 C832 1.409 . S
C839 C838 1.362 . S
H840 C846 0.930 1_455 S
H841 C849 0.930 . S
H842 C850 0.930 . S
H843 C851 0.930 . S
H844 C854 0.930 . S
H845 C855 0.930 1_455 S
C846 H840 0.930 1_655 S
C846 C847 1.355 . S
C846 C848 1.415 . S
C847 C846 1.355 . S
C847 C849 1.419 . S
C848 C846 1.415 . S
C848 C853 1.425 . S
C848 C855 1.409 . S
C849 H841 0.930 . S
C849 C847 1.419 . S
C849 C850 1.362 . S
C850 H842 0.930 . S
C850 C849 1.362 . S
C850 C853 1.409 . S
C851 H843 0.930 . S
C851 C852 1.355 . S
C851 C853 1.415 . S
C852 C851 1.355 . S
C852 C854 1.419 . S
C853 C848 1.425 . S
C853 C850 1.409 . S
C853 C851 1.415 . S
C854 H844 0.930 . S
C854 C852 1.419 . S
C854 C855 1.362 . S
C855 H845 0.930 1_655 S
C855 C848 1.409 . S
C855 C854 1.362 . S
H856 C862 0.930 . S
H857 C865 0.930 . S
H858 C866 0.930 . S
H859 C867 0.930 . S
H860 C870 0.930 . S
H861 C871 0.930 . S
C862 H856 0.930 . S
C862 C863 1.355 . S
C862 C864 1.415 . S
C863 C862 1.355 . S
C863 C865 1.419 . S
C864 C862 1.415 . S
C864 C869 1.425 . S
C864 C871 1.409 . S
C865 H857 0.930 . S
C865 C863 1.419 . S
C865 C866 1.362 . S
C866 H858 0.930 . S
C866 C865 1.362 . S
C866 C869 1.409 . S
C867 H859 0.930 . S
C867 C868 1.355 . S
C867 C869 1.415 . S
C868 C867 1.355 . S
C868 C870 1.419 . S
C869 C864 1.425 . S
C869 C866 1.409 . S
C869 C867 1.415 . S
C870 H860 0.930 . S
C870 C868 1.419 . S
C870 C871 1.362 . S
C871 H861 0.930 . S
C871 C864 1.409 . S
C871 C870 1.362 . S
H872 C878 0.930 . S
H873 C881 0.930 . S
H874 C882 0.930 . S
H875 C883 0.930 . S
H876 C886 0.930 . S
H877 C887 0.930 . S
C878 H872 0.930 . S
C878 C879 1.355 . S
C878 C880 1.415 . S
C879 C878 1.355 . S
C879 C881 1.419 . S
C880 C878 1.415 . S
C880 C885 1.425 . S
C880 C887 1.409 . S
C881 H873 0.930 . S
C881 C879 1.419 . S
C881 C882 1.362 . S
C882 H874 0.930 . S
C882 C881 1.362 . S
C882 C885 1.409 . S
C883 H875 0.930 . S
C883 C884 1.355 . S
C883 C885 1.415 . S
C884 C883 1.355 . S
C884 C886 1.419 . S
C885 C880 1.425 . S
C885 C882 1.409 . S
C885 C883 1.415 . S
C886 H876 0.930 . S
C886 C884 1.419 . S
C886 C887 1.362 . S
C887 H877 0.930 . S
C887 C880 1.409 . S
C887 C886 1.362 . S
H888 C894 0.930 . S
H889 C897 0.930 . S
H890 C898 0.930 . S
H891 C899 0.930 . S
H892 C902 0.930 . S
H893 C903 0.930 . S
C894 H888 0.930 . S
C894 C895 1.355 . S
C894 C896 1.415 1_655 S
C895 C894 1.355 . S
C895 C897 1.419 . S
C896 C894 1.415 1_455 S
C896 C901 1.425 . S
C896 C903 1.409 . S
C897 H889 0.930 . S
C897 C895 1.419 . S
C897 C898 1.362 . S
C898 H890 0.930 . S
C898 C897 1.362 . S
C898 C901 1.409 1_655 S
C899 H891 0.930 . S
C899 C900 1.355 . S
C899 C901 1.415 . S
C900 C899 1.355 . S
C900 C902 1.419 . S
C901 C896 1.425 . S
C901 C898 1.409 1_455 S
C901 C899 1.415 . S
C902 H892 0.930 . S
C902 C900 1.419 . S
C902 C903 1.362 . S
C903 H893 0.930 . S
C903 C896 1.409 . S
C903 C902 1.362 . S
H904 C910 0.930 . S
H905 C913 0.930 . S
H906 C914 0.930 . S
H907 C915 0.930 . S
H908 C918 0.930 . S
H909 C919 0.930 . S
C910 H904 0.930 . S
C910 C911 1.355 . S
C910 C912 1.415 . S
C911 C910 1.355 . S
C911 C913 1.419 . S
C912 C910 1.415 . S
C912 C917 1.425 . S
C912 C919 1.409 . S
C913 H905 0.930 . S
C913 C911 1.419 . S
C913 C914 1.362 . S
C914 H906 0.930 . S
C914 C913 1.362 . S
C914 C917 1.409 . S
C915 H907 0.930 . S
C915 C916 1.355 . S
C915 C917 1.415 . S
C916 C915 1.355 . S
C916 C918 1.419 . S
C917 C912 1.425 . S
C917 C914 1.409 . S
C917 C915 1.415 . S
C918 H908 0.930 . S
C918 C916 1.419 . S
C918 C919 1.362 . S
C919 H909 0.930 . S
C919 C912 1.409 . S
C919 C918 1.362 . S
H920 C926 0.930 . S
H921 C929 0.930 . S
H922 C930 0.930 . S
H923 C931 0.930 . S
H924 C934 0.930 . S
H925 C935 0.930 . S
C926 H920 0.930 . S
C926 C927 1.355 . S
C926 C928 1.415 1_565 S
C927 C926 1.355 . S
C927 C929 1.419 . S
C928 C926 1.415 1_545 S
C928 C933 1.425 . S
C928 C935 1.409 . S
C929 H921 0.930 . S
C929 C927 1.419 . S
C929 C930 1.362 . S
C930 H922 0.930 . S
C930 C929 1.362 . S
C930 C933 1.409 1_565 S
C931 H923 0.930 . S
C931 C932 1.355 . S
C931 C933 1.415 . S
C932 C931 1.355 . S
C932 C934 1.419 . S
C933 C928 1.425 . S
C933 C930 1.409 1_545 S
C933 C931 1.415 . S
C934 H924 0.930 . S
C934 C932 1.419 . S
C934 C935 1.362 . S
C935 H925 0.930 . S
C935 C928 1.409 . S
C935 C934 1.362 . S
H936 C942 0.930 . S
H937 C945 0.930 . S
H938 C946 0.930 . S
H939 C947 0.930 . S
H940 C950 0.930 . S
H941 C951 0.930 . S
C942 H936 0.930 . S
C942 C943 1.355 . S
C942 C944 1.415 . S
C943 C942 1.355 . S
C943 C945 1.419 . S
C944 C942 1.415 . S
C944 C949 1.425 . S
C944 C951 1.409 . S
C945 H937 0.930 . S
C945 C943 1.419 . S
C945 C946 1.362 . S
C946 H938 0.930 . S
C946 C945 1.362 . S
C946 C949 1.409 . S
C947 H939 0.930 . S
C947 C948 1.355 . S
C947 C949 1.415 . S
C948 C947 1.355 . S
C948 C950 1.419 . S
C949 C944 1.425 . S
C949 C946 1.409 . S
C949 C947 1.415 . S
C950 H940 0.930 . S
C950 C948 1.419 . S
C950 C951 1.362 . S
C951 H941 0.930 . S
C951 C944 1.409 . S
C951 C950 1.362 . S
H952 C958 0.930 . S
H953 C961 0.930 . S
H954 C962 0.930 . S
H955 C963 0.930 . S
H956 C966 0.930 . S
H957 C967 0.930 . S
C958 H952 0.930 . S
C958 C959 1.355 . S
C958 C960 1.415 . S
C959 C958 1.355 . S
C959 C961 1.419 . S
C960 C958 1.415 . S
C960 C965 1.425 . S
C960 C967 1.409 . S
C961 H953 0.930 . S
C961 C959 1.419 . S
C961 C962 1.362 . S
C962 H954 0.930 . S
C962 C961 1.362 . S
C962 C965 1.409 . S
C963 H955 0.930 . S
C963 C964 1.355 . S
C963 C965 1.415 . S
C964 C963 1.355 . S
C964 C966 1.419 . S
C965 C960 1.425 . S
C965 C962 1.409 . S
C965 C963 1.415 . S
C966 H956 0.930 . S
C966 C964 1.419 . S
C966 C967 1.362 . S
C967 H957 0.930 . S
C967 C960 1.409 . S
C967 C966 1.362 . S
H968 C974 0.930 . S
H969 C977 0.930 . S
H970 C978 0.930 . S
H971 C979 0.930 . S
H972 C982 0.930 . S
H973 C983 0.930 . S
C974 H968 0.930 . S
C974 C975 1.355 . S
C974 C976 1.415 . S
C975 C974 1.355 . S
C975 C977 1.419 . S
C976 C974 1.415 . S
C976 C981 1.425 . S
C976 C983 1.409 . S
C977 H969 0.930 . S
C977 C975 1.419 . S
C977 C978 1.362 . S
C978 H970 0.930 . S
C978 C977 1.362 . S
C978 C981 1.409 . S
C979 H971 0.930 . S
C979 C980 1.355 . S
C979 C981 1.415 . S
C980 C979 1.355 . S
C980 C982 1.419 . S
C981 C976 1.425 . S
C981 C978 1.409 . S
C981 C979 1.415 . S
C982 H972 0.930 . S
C982 C980 1.419 . S
C982 C983 1.362 . S
C983 H973 0.930 . S
C983 C976 1.409 . S
C983 C982 1.362 . S
H984 C990 0.930 . S
H985 C993 0.930 . S
H986 C994 0.930 . S
H987 C995 0.930 . S
H988 C998 0.930 . S
H989 C999 0.930 . S
C990 H984 0.930 . S
C990 C991 1.355 . S
C990 C992 1.415 . S
C991 C990 1.355 . S
C991 C993 1.419 . S
C992 C990 1.415 . S
C992 C997 1.425 . S
C992 C999 1.409 . S
C993 H985 0.930 . S
C993 C991 1.419 . S
C993 C994 1.362 . S
C994 H986 0.930 . S
C994 C993 1.362 . S
C994 C997 1.409 . S
C995 H987 0.930 . S
C995 C996 1.355 . S
C995 C997 1.415 . S
C996 C995 1.355 . S
C996 C998 1.419 . S
C997 C992 1.425 . S
C997 C994 1.409 . S
C997 C995 1.415 . S
C998 H988 0.930 . S
C998 C996 1.419 . S
C998 C999 1.362 . S
C999 H989 0.930 . S
C999 C992 1.409 . S
C999 C998 1.362 . S
H1000 C1006 0.930 . S
H1001 C1009 0.930 . S
H1002 C1010 0.930 . S
H1003 C1011 0.930 . S
H1004 C1014 0.930 . S
H1005 C1015 0.930 . S
C1006 H1000 0.930 . S
C1006 C1007 1.355 . S
C1006 C1008 1.415 . S
C1007 C1006 1.355 . S
C1007 C1009 1.419 . S
C1008 C1006 1.415 . S
C1008 C1013 1.425 . S
C1008 C1015 1.409 . S
C1009 H1001 0.930 . S
C1009 C1007 1.419 . S
C1009 C1010 1.362 . S
C1010 H1002 0.930 . S
C1010 C1009 1.362 . S
C1010 C1013 1.409 . S
C1011 H1003 0.930 . S
C1011 C1012 1.355 . S
C1011 C1013 1.415 . S
C1012 C1011 1.355 . S
C1012 C1014 1.419 . S
C1013 C1008 1.425 . S
C1013 C1010 1.409 . S
C1013 C1011 1.415 . S
C1014 H1004 0.930 . S
C1014 C1012 1.419 . S
C1014 C1015 1.362 . S
C1015 H1005 0.930 . S
C1015 C1008 1.409 . S
C1015 C1014 1.362 . S
H1016 C1022 0.930 . S
H1017 C1025 0.930 . S
H1018 C1026 0.930 . S
H1019 C1027 0.930 . S
H1020 C1030 0.930 . S
H1021 C1031 0.930 . S
C1022 H1016 0.930 . S
C1022 C1023 1.355 . S
C1022 C1024 1.415 . S
C1023 C1022 1.355 . S
C1023 C1025 1.419 . S
C1024 C1022 1.415 . S
C1024 C1029 1.425 . S
C1024 C1031 1.409 . S
C1025 H1017 0.930 . S
C1025 C1023 1.419 . S
C1025 C1026 1.362 . S
C1026 H1018 0.930 . S
C1026 C1025 1.362 . S
C1026 C1029 1.409 . S
C1027 H1019 0.930 . S
C1027 C1028 1.355 . S
C1027 C1029 1.415 . S
C1028 C1027 1.355 . S
C1028 C1030 1.419 . S
C1029 C1024 1.425 . S
C1029 C1026 1.409 . S
C1029 C1027 1.415 . S
C1030 H1020 0.930 . S
C1030 C1028 1.419 . S
C1030 C1031 1.362 . S
C1031 H1021 0.930 . S
C1031 C1024 1.409 . S
C1031 C1030 1.362 . S
H1032 C1038 0.930 . S
H1033 C1041 0.930 . S
H1034 C1042 0.930 . S
H1035 C1043 0.930 . S
H1036 C1046 0.930 . S
H1037 C1047 0.930 . S
C1038 H1032 0.930 . S
C1038 C1039 1.355 . S
C1038 C1040 1.415 . S
C1039 C1038 1.355 . S
C1039 C1041 1.419 . S
C1040 C1038 1.415 . S
C1040 C1045 1.425 . S
C1040 C1047 1.409 . S
C1041 H1033 0.930 . S
C1041 C1039 1.419 . S
C1041 C1042 1.362 . S
C1042 H1034 0.930 . S
C1042 C1041 1.362 . S
C1042 C1045 1.409 . S
C1043 H1035 0.930 . S
C1043 C1044 1.355 . S
C1043 C1045 1.415 . S
C1044 C1043 1.355 . S
C1044 C1046 1.419 . S
C1045 C1040 1.425 . S
C1045 C1042 1.409 . S
C1045 C1043 1.415 . S
C1046 H1036 0.930 . S
C1046 C1044 1.419 . S
C1046 C1047 1.362 . S
C1047 H1037 0.930 . S
C1047 C1040 1.409 . S
C1047 C1046 1.362 . S
H1048 C1054 0.930 . S
H1049 C1057 0.930 . S
H1050 C1058 0.930 . S
H1051 C1059 0.930 . S
H1052 C1062 0.930 . S
H1053 C1063 0.930 . S
C1054 H1048 0.930 . S
C1054 C1055 1.355 . S
C1054 C1056 1.415 . S
C1055 C1054 1.355 . S
C1055 C1057 1.419 . S
C1056 C1054 1.415 . S
C1056 C1061 1.425 . S
C1056 C1063 1.409 . S
C1057 H1049 0.930 . S
C1057 C1055 1.419 . S
C1057 C1058 1.362 . S
C1058 H1050 0.930 . S
C1058 C1057 1.362 . S
C1058 C1061 1.409 . S
C1059 H1051 0.930 . S
C1059 C1060 1.355 . S
C1059 C1061 1.415 . S
C1060 C1059 1.355 . S
C1060 C1062 1.419 . S
C1061 C1056 1.425 . S
C1061 C1058 1.409 . S
C1061 C1059 1.415 . S
C1062 H1052 0.930 . S
C1062 C1060 1.419 . S
C1062 C1063 1.362 . S
C1063 H1053 0.930 . S
C1063 C1056 1.409 . S
C1063 C1062 1.362 . S
H1064 C1070 0.930 . S
H1065 C1073 0.930 . S
H1066 C1074 0.930 . S
H1067 C1075 0.930 . S
H1068 C1078 0.930 . S
H1069 C1079 0.930 . S
C1070 H1064 0.930 . S
C1070 C1071 1.355 . S
C1070 C1072 1.415 . S
C1071 C1070 1.355 . S
C1071 C1073 1.419 . S
C1072 C1070 1.415 . S
C1072 C1077 1.425 . S
C1072 C1079 1.409 . S
C1073 H1065 0.930 . S
C1073 C1071 1.419 . S
C1073 C1074 1.362 . S
C1074 H1066 0.930 . S
C1074 C1073 1.362 . S
C1074 C1077 1.409 . S
C1075 H1067 0.930 . S
C1075 C1076 1.355 . S
C1075 C1077 1.415 . S
C1076 C1075 1.355 . S
C1076 C1078 1.419 . S
C1077 C1072 1.425 . S
C1077 C1074 1.409 . S
C1077 C1075 1.415 . S
C1078 H1068 0.930 . S
C1078 C1076 1.419 . S
C1078 C1079 1.362 . S
C1079 H1069 0.930 . S
C1079 C1072 1.409 . S
C1079 C1078 1.362 . S
H1080 C1086 0.930 . S
H1081 C1089 0.930 . S
H1082 C1090 0.930 . S
H1083 C1091 0.930 1_455 S
H1084 C1094 0.930 . S
H1085 C1095 0.930 . S
C1086 H1080 0.930 . S
C1086 C1087 1.355 . S
C1086 C1088 1.415 . S
C1087 C1086 1.355 . S
C1087 C1089 1.419 . S
C1088 C1086 1.415 . S
C1088 C1093 1.425 . S
C1088 C1095 1.409 . S
C1089 H1081 0.930 . S
C1089 C1087 1.419 . S
C1089 C1090 1.362 . S
C1090 H1082 0.930 . S
C1090 C1089 1.362 . S
C1090 C1093 1.409 . S
C1091 H1083 0.930 1_655 S
C1091 C1092 1.355 1_655 S
C1091 C1093 1.415 . S
C1092 C1091 1.355 1_455 S
C1092 C1094 1.419 1_455 S
C1093 C1088 1.425 . S
C1093 C1090 1.409 . S
C1093 C1091 1.415 . S
C1094 H1084 0.930 . S
C1094 C1092 1.419 1_655 S
C1094 C1095 1.362 . S
C1095 H1085 0.930 . S
C1095 C1088 1.409 . S
C1095 C1094 1.362 . S
H1096 C1102 0.930 . S
H1097 C1105 0.930 . S
H1098 C1106 0.930 . S
H1099 C1107 0.930 . S
H1100 C1110 0.930 . S
H1101 C1111 0.930 . S
C1102 H1096 0.930 . S
C1102 C1103 1.355 . S
C1102 C1104 1.415 . S
C1103 C1102 1.355 . S
C1103 C1105 1.419 . S
C1104 C1102 1.415 . S
C1104 C1109 1.425 . S
C1104 C1111 1.409 . S
C1105 H1097 0.930 . S
C1105 C1103 1.419 . S
C1105 C1106 1.362 . S
C1106 H1098 0.930 . S
C1106 C1105 1.362 . S
C1106 C1109 1.409 . S
C1107 H1099 0.930 . S
C1107 C1108 1.355 . S
C1107 C1109 1.415 . S
C1108 C1107 1.355 . S
C1108 C1110 1.419 . S
C1109 C1104 1.425 . S
C1109 C1106 1.409 . S
C1109 C1107 1.415 . S
C1110 H1100 0.930 . S
C1110 C1108 1.419 . S
C1110 C1111 1.362 . S
C1111 H1101 0.930 . S
C1111 C1104 1.409 . S
C1111 C1110 1.362 . S
H1112 C1118 0.930 . S
H1113 C1121 0.930 . S
H1114 C1122 0.930 . S
H1115 C1123 0.930 . S
H1116 C1126 0.930 . S
H1117 C1127 0.930 . S
C1118 H1112 0.930 . S
C1118 C1119 1.355 . S
C1118 C1120 1.415 . S
C1119 C1118 1.355 . S
C1119 C1121 1.419 . S
C1120 C1118 1.415 . S
C1120 C1125 1.425 . S
C1120 C1127 1.409 . S
C1121 H1113 0.930 . S
C1121 C1119 1.419 . S
C1121 C1122 1.362 . S
C1122 H1114 0.930 . S
C1122 C1121 1.362 . S
C1122 C1125 1.409 . S
C1123 H1115 0.930 . S
C1123 C1124 1.355 . S
C1123 C1125 1.415 . S
C1124 C1123 1.355 . S
C1124 C1126 1.419 1_655 S
C1125 C1120 1.425 . S
C1125 C1122 1.409 . S
C1125 C1123 1.415 . S
C1126 H1116 0.930 . S
C1126 C1124 1.419 1_455 S
C1126 C1127 1.362 1_455 S
C1127 H1117 0.930 . S
C1127 C1120 1.409 . S
C1127 C1126 1.362 1_655 S
H1128 C1134 0.930 . S
H1129 C1137 0.930 . S
H1130 C1138 0.930 . S
H1131 C1139 0.930 1_545 S
H1132 C1142 0.930 . S
H1133 C1143 0.930 . S
C1134 H1128 0.930 . S
C1134 C1135 1.355 . S
C1134 C1136 1.415 . S
C1135 C1134 1.355 . S
C1135 C1137 1.419 . S
C1136 C1134 1.415 . S
C1136 C1141 1.425 . S
C1136 C1143 1.409 . S
C1137 H1129 0.930 . S
C1137 C1135 1.419 . S
C1137 C1138 1.362 . S
C1138 H1130 0.930 . S
C1138 C1137 1.362 . S
C1138 C1141 1.409 . S
C1139 H1131 0.930 1_565 S
C1139 C1140 1.355 1_565 S
C1139 C1141 1.415 . S
C1140 C1139 1.355 1_545 S
C1140 C1142 1.419 1_545 S
C1141 C1136 1.425 . S
C1141 C1138 1.409 . S
C1141 C1139 1.415 . S
C1142 H1132 0.930 . S
C1142 C1140 1.419 1_565 S
C1142 C1143 1.362 . S
C1143 H1133 0.930 . S
C1143 C1136 1.409 . S
C1143 C1142 1.362 . S
H1144 C1150 0.930 . S
H1145 C1153 0.930 1_545 S
H1146 C1154 0.930 . S
H1147 C1155 0.930 . S
H1148 C1158 0.930 . S
H1149 C1159 0.930 . S
C1150 H1144 0.930 . S
C1150 C1151 1.355 . S
C1150 C1152 1.415 . S
C1151 C1150 1.355 . S
C1151 C1153 1.419 . S
C1152 C1150 1.415 . S
C1152 C1157 1.425 . S
C1152 C1159 1.409 . S
C1153 H1145 0.930 1_565 S
C1153 C1151 1.419 . S
C1153 C1154 1.362 . S
C1154 H1146 0.930 . S
C1154 C1153 1.362 . S
C1154 C1157 1.409 . S
C1155 H1147 0.930 . S
C1155 C1156 1.355 . S
C1155 C1157 1.415 . S
C1156 C1155 1.355 . S
C1156 C1158 1.419 . S
C1157 C1152 1.425 . S
C1157 C1154 1.409 . S
C1157 C1155 1.415 . S
C1158 H1148 0.930 . S
C1158 C1156 1.419 . S
C1158 C1159 1.362 . S
C1159 H1149 0.930 . S
C1159 C1152 1.409 . S
C1159 C1158 1.362 . S
H1160 C1166 0.930 . S
H1161 C1169 0.930 . S
H1162 C1170 0.930 . S
H1163 C1171 0.930 . S
H1164 C1174 0.930 . S
H1165 C1175 0.930 . S
C1166 H1160 0.930 . S
C1166 C1167 1.355 . S
C1166 C1168 1.415 . S
C1167 C1166 1.355 . S
C1167 C1169 1.419 . S
C1168 C1166 1.415 . S
C1168 C1173 1.425 . S
C1168 C1175 1.409 . S
C1169 H1161 0.930 . S
C1169 C1167 1.419 . S
C1169 C1170 1.362 . S
C1170 H1162 0.930 . S
C1170 C1169 1.362 . S
C1170 C1173 1.409 . S
C1171 H1163 0.930 . S
C1171 C1172 1.355 . S
C1171 C1173 1.415 . S
C1172 C1171 1.355 . S
C1172 C1174 1.419 . S
C1173 C1168 1.425 . S
C1173 C1170 1.409 . S
C1173 C1171 1.415 . S
C1174 H1164 0.930 . S
C1174 C1172 1.419 . S
C1174 C1175 1.362 . S
C1175 H1165 0.930 . S
C1175 C1168 1.409 . S
C1175 C1174 1.362 . S
H1176 C1182 0.930 . S
H1177 C1185 0.930 . S
H1178 C1186 0.930 . S
H1179 C1187 0.930 . S
H1180 C1190 0.930 . S
H1181 C1191 0.930 . S
C1182 H1176 0.930 . S
C1182 C1183 1.355 . S
C1182 C1184 1.415 . S
C1183 C1182 1.355 . S
C1183 C1185 1.419 . S
C1184 C1182 1.415 . S
C1184 C1189 1.425 . S
C1184 C1191 1.409 . S
C1185 H1177 0.930 . S
C1185 C1183 1.419 . S
C1185 C1186 1.362 . S
C1186 H1178 0.930 . S
C1186 C1185 1.362 . S
C1186 C1189 1.409 . S
C1187 H1179 0.930 . S
C1187 C1188 1.355 . S
C1187 C1189 1.415 . S
C1188 C1187 1.355 . S
C1188 C1190 1.419 . S
C1189 C1184 1.425 . S
C1189 C1186 1.409 . S
C1189 C1187 1.415 . S
C1190 H1180 0.930 . S
C1190 C1188 1.419 . S
C1190 C1191 1.362 . S
C1191 H1181 0.930 . S
C1191 C1184 1.409 . S
C1191 C1190 1.362 . S
H1192 C1198 0.930 . S
H1193 C1201 0.930 . S
H1194 C1202 0.930 . S
H1195 C1203 0.930 . S
H1196 C1206 0.930 . S
H1197 C1207 0.930 . S
C1198 H1192 0.930 . S
C1198 C1199 1.355 . S
C1198 C1200 1.415 . S
C1199 C1198 1.355 . S
C1199 C1201 1.419 . S
C1200 C1198 1.415 . S
C1200 C1205 1.425 . S
C1200 C1207 1.409 . S
C1201 H1193 0.930 . S
C1201 C1199 1.419 . S
C1201 C1202 1.362 . S
C1202 H1194 0.930 . S
C1202 C1201 1.362 . S
C1202 C1205 1.409 . S
C1203 H1195 0.930 . S
C1203 C1204 1.355 . S
C1203 C1205 1.415 . S
C1204 C1203 1.355 . S
C1204 C1206 1.419 . S
C1205 C1200 1.425 . S
C1205 C1202 1.409 . S
C1205 C1203 1.415 . S
C1206 H1196 0.930 . S
C1206 C1204 1.419 . S
C1206 C1207 1.362 . S
C1207 H1197 0.930 . S
C1207 C1200 1.409 . S
C1207 C1206 1.362 . S
H1208 C1214 0.930 . S
H1209 C1217 0.930 . S
H1210 C1218 0.930 . S
H1211 C1219 0.930 . S
H1212 C1222 0.930 . S
H1213 C1223 0.930 . S
C1214 H1208 0.930 . S
C1214 C1215 1.355 . S
C1214 C1216 1.415 . S
C1215 C1214 1.355 . S
C1215 C1217 1.419 . S
C1216 C1214 1.415 . S
C1216 C1221 1.425 . S
C1216 C1223 1.409 . S
C1217 H1209 0.930 . S
C1217 C1215 1.419 . S
C1217 C1218 1.362 . S
C1218 H1210 0.930 . S
C1218 C1217 1.362 . S
C1218 C1221 1.409 . S
C1219 H1211 0.930 . S
C1219 C1220 1.355 . S
C1219 C1221 1.415 . S
C1220 C1219 1.355 . S
C1220 C1222 1.419 . S
C1221 C1216 1.425 . S
C1221 C1218 1.409 . S
C1221 C1219 1.415 . S
C1222 H1212 0.930 . S
C1222 C1220 1.419 . S
C1222 C1223 1.362 . S
C1223 H1213 0.930 . S
C1223 C1216 1.409 . S
C1223 C1222 1.362 . S
C367 C2 1.115 . S
C372 C49 0.981 . S
C383 C9 1.065 . S
C388 C22 1.107 . S
C399 C29 1.032 . S
C404 C42 1.121 . S
C415 C62 1.022 . S
C420 C89 1.080 . S
C431 C109 1.068 . S
C436 C82 1.105 . S
C447 C102 1.079 . S
C452 C69 0.981 . S
C463 C169 1.079 . S
C468 C122 1.098 . S
C479 C129 0.980 1_655 S
C484 C142 1.113 . S
C495 C162 1.099 . S
C500 C149 0.975 . S
C511 C209 1.002 . S
C516 C182 1.123 . S
C527 C202 1.121 . S
C532 C229 0.993 . S
C543 C189 1.102 . S
C548 C222 1.071 . S
C559 C242 1.022 . S
C564 C289 1.075 . S
C575 C249 1.105 . S
C580 C262 1.065 . S
C591 C269 1.076 . S
C596 C282 1.022 . S
C607 C329 1.092 . S
C612 C302 1.025 . S
C623 C349 1.036 . S
C628 C322 1.120 . S
C639 C309 1.008 1_565 S
C644 C342 1.050 . S
C655 C19 1.736 . S
C660 C119 1.735 . S
C671 C79 1.712 . S
C676 C39 1.716 . S
C687 C99 1.722 . S
C692 C59 1.725 . S
C703 C139 1.688 . S
C708 C239 1.687 . S
C719 C159 1.701 . S
C724 C199 1.705 . S
C735 C219 1.716 . S
C740 C179 1.720 . S
C751 C259 1.690 . S
C756 C359 1.689 . S
C767 C319 1.687 . S
C772 C279 1.688 . S
C783 C339 1.692 . S
C788 C299 1.690 . S
C799 C218 1.950 . S
C804 C18 1.970 1_565 S
C815 C38 1.962 . S
C820 C238 1.969 . S
C831 C198 1.936 . S
C836 C58 1.906 . S
C847 C78 1.931 1_655 S
C852 C298 1.903 . S
C863 C98 1.967 . S
C868 C258 1.965 . S
C879 C278 1.916 . S
C884 C118 1.949 . S
C895 C338 1.957 . S
C900 C138 1.970 . S
C911 C158 1.969 . S
C916 C358 1.962 . S
C927 C178 1.963 . S
C932 C318 1.968 . S
C943 C52 1.512 . S
C948 C4 1.304 . S
C959 C12 1.497 . S
C964 C24 1.298 . S
C975 C44 1.306 . S
C980 C32 1.513 . S
C991 C92 1.498 . S
C996 C64 1.410 . S
C1007 C112 1.518 . S
C1012 C84 1.319 . S
C1023 C104 1.307 . S
C1028 C72 1.486 . S
C1039 C172 1.479 . S
C1044 C124 1.418 . S
C1055 C144 1.358 . S
C1060 C132 1.466 . S
C1071 C152 1.495 . S
C1076 C164 1.299 . S
C1087 C184 1.329 . S
C1092 C212 1.519 . S
C1103 C204 1.353 1_545 S
C1108 C232 1.467 . S
C1119 C192 1.490 1_545 S
C1124 C224 1.303 1_655 S
C1135 C244 1.329 . S
C1140 C292 1.519 . S
C1151 C264 1.371 1_565 S
C1156 C252 1.516 1_455 S
C1167 C272 1.467 . S
C1172 C284 1.353 1_455 S
C1183 C304 1.303 . S
C1188 C332 1.511 . S
C1199 C324 1.327 . S
C1204 C352 1.519 . S
C1215 C312 1.476 . S
C1220 C344 1.326 . S
