# Generated by pormake.
# Topology umv, (4)-cn, num edge types: 1
# Building blocks:
#     Node 0, Type 0, BuildingBlock: CEKHIL_clean_sbu_0, # of connection points: 4
#     Node 1, Type 0, BuildingBlock: CEKHIL_clean_sbu_0, # of connection points: 4
#     Node 2, Type 0, BuildingBlock: CEKHIL_clean_sbu_0, # of connection points: 4
#     Node 3, Type 0, BuildingBlock: CEKHIL_clean_sbu_0, # of connection points: 4
#     Node 4, Type 0, BuildingBlock: CEKHIL_clean_sbu_0, # of connection points: 4
#     Node 5, Type 0, BuildingBlock: CEKHIL_clean_sbu_0, # of connection points: 4
#     Node 6, Type 0, BuildingBlock: CEKHIL_clean_sbu_0, # of connection points: 4
#     Node 7, Type 0, BuildingBlock: CEKHIL_clean_sbu_0, # of connection points: 4
#     Node 8, Type 0, BuildingBlock: CEKHIL_clean_sbu_0, # of connection points: 4
#     Node 9, Type 0, BuildingBlock: CEKHIL_clean_sbu_0, # of connection points: 4
#     Node 10, Type 0, BuildingBlock: CEKHIL_clean_sbu_0, # of connection points: 4
#     Node 11, Type 0, BuildingBlock: CEKHIL_clean_sbu_0, # of connection points: 4
#     Node 12, Type 0, BuildingBlock: CEKHIL_clean_sbu_0, # of connection points: 4
#     Node 13, Type 0, BuildingBlock: CEKHIL_clean_sbu_0, # of connection points: 4
#     Node 14, Type 0, BuildingBlock: CEKHIL_clean_sbu_0, # of connection points: 4
#     Node 15, Type 0, BuildingBlock: CEKHIL_clean_sbu_0, # of connection points: 4
#     Node 16, Type 0, BuildingBlock: CEKHIL_clean_sbu_0, # of connection points: 4
#     Node 17, Type 0, BuildingBlock: CEKHIL_clean_sbu_0, # of connection points: 4
#     Node 18, Type 0, BuildingBlock: CEKHIL_clean_sbu_0, # of connection points: 4
#     Node 19, Type 0, BuildingBlock: CEKHIL_clean_sbu_0, # of connection points: 4
#     Node 20, Type 0, BuildingBlock: CEKHIL_clean_sbu_0, # of connection points: 4
#     Node 21, Type 0, BuildingBlock: CEKHIL_clean_sbu_0, # of connection points: 4
#     Node 22, Type 0, BuildingBlock: CEKHIL_clean_sbu_0, # of connection points: 4
#     Node 23, Type 0, BuildingBlock: CEKHIL_clean_sbu_0, # of connection points: 4
#     Node 24, Type 0, BuildingBlock: CEKHIL_clean_sbu_0, # of connection points: 4
#     Node 25, Type 0, BuildingBlock: CEKHIL_clean_sbu_0, # of connection points: 4
#     Node 26, Type 0, BuildingBlock: CEKHIL_clean_sbu_0, # of connection points: 4
#     Node 27, Type 0, BuildingBlock: CEKHIL_clean_sbu_0, # of connection points: 4
#     Node 28, Type 0, BuildingBlock: CEKHIL_clean_sbu_0, # of connection points: 4
#     Node 29, Type 0, BuildingBlock: CEKHIL_clean_sbu_0, # of connection points: 4
#     Node 30, Type 0, BuildingBlock: CEKHIL_clean_sbu_0, # of connection points: 4
#     Node 31, Type 0, BuildingBlock: CEKHIL_clean_sbu_0, # of connection points: 4
#     Edge 32, Type (0, 0), BuildingBlock: MIFKUJ_clean_linker_0, # of connection points: 2
#     Edge 33, Type (0, 0), BuildingBlock: MIFKUJ_clean_linker_0, # of connection points: 2
#     Edge 34, Type (0, 0), BuildingBlock: MIFKUJ_clean_linker_0, # of connection points: 2
#     Edge 35, Type (0, 0), BuildingBlock: MIFKUJ_clean_linker_0, # of connection points: 2
#     Edge 36, Type (0, 0), BuildingBlock: MIFKUJ_clean_linker_0, # of connection points: 2
#     Edge 37, Type (0, 0), BuildingBlock: MIFKUJ_clean_linker_0, # of connection points: 2
#     Edge 38, Type (0, 0), BuildingBlock: MIFKUJ_clean_linker_0, # of connection points: 2
#     Edge 39, Type (0, 0), BuildingBlock: MIFKUJ_clean_linker_0, # of connection points: 2
#     Edge 40, Type (0, 0), BuildingBlock: MIFKUJ_clean_linker_0, # of connection points: 2
#     Edge 41, Type (0, 0), BuildingBlock: MIFKUJ_clean_linker_0, # of connection points: 2
#     Edge 42, Type (0, 0), BuildingBlock: MIFKUJ_clean_linker_0, # of connection points: 2
#     Edge 43, Type (0, 0), BuildingBlock: MIFKUJ_clean_linker_0, # of connection points: 2
#     Edge 44, Type (0, 0), BuildingBlock: MIFKUJ_clean_linker_0, # of connection points: 2
#     Edge 45, Type (0, 0), BuildingBlock: MIFKUJ_clean_linker_0, # of connection points: 2
#     Edge 46, Type (0, 0), BuildingBlock: MIFKUJ_clean_linker_0, # of connection points: 2
#     Edge 47, Type (0, 0), BuildingBlock: MIFKUJ_clean_linker_0, # of connection points: 2
#     Edge 48, Type (0, 0), BuildingBlock: MIFKUJ_clean_linker_0, # of connection points: 2
#     Edge 49, Type (0, 0), BuildingBlock: MIFKUJ_clean_linker_0, # of connection points: 2
#     Edge 50, Type (0, 0), BuildingBlock: MIFKUJ_clean_linker_0, # of connection points: 2
#     Edge 51, Type (0, 0), BuildingBlock: MIFKUJ_clean_linker_0, # of connection points: 2
#     Edge 52, Type (0, 0), BuildingBlock: MIFKUJ_clean_linker_0, # of connection points: 2
#     Edge 53, Type (0, 0), BuildingBlock: MIFKUJ_clean_linker_0, # of connection points: 2
#     Edge 54, Type (0, 0), BuildingBlock: MIFKUJ_clean_linker_0, # of connection points: 2
#     Edge 55, Type (0, 0), BuildingBlock: MIFKUJ_clean_linker_0, # of connection points: 2
#     Edge 56, Type (0, 0), BuildingBlock: MIFKUJ_clean_linker_0, # of connection points: 2
#     Edge 57, Type (0, 0), BuildingBlock: MIFKUJ_clean_linker_0, # of connection points: 2
#     Edge 58, Type (0, 0), BuildingBlock: MIFKUJ_clean_linker_0, # of connection points: 2
#     Edge 59, Type (0, 0), BuildingBlock: MIFKUJ_clean_linker_0, # of connection points: 2
#     Edge 60, Type (0, 0), BuildingBlock: MIFKUJ_clean_linker_0, # of connection points: 2
#     Edge 61, Type (0, 0), BuildingBlock: MIFKUJ_clean_linker_0, # of connection points: 2
#     Edge 62, Type (0, 0), BuildingBlock: MIFKUJ_clean_linker_0, # of connection points: 2
#     Edge 63, Type (0, 0), BuildingBlock: MIFKUJ_clean_linker_0, # of connection points: 2
#     Edge 64, Type (0, 0), BuildingBlock: MIFKUJ_clean_linker_0, # of connection points: 2
#     Edge 65, Type (0, 0), BuildingBlock: MIFKUJ_clean_linker_0, # of connection points: 2
#     Edge 66, Type (0, 0), BuildingBlock: MIFKUJ_clean_linker_0, # of connection points: 2
#     Edge 67, Type (0, 0), BuildingBlock: MIFKUJ_clean_linker_0, # of connection points: 2
#     Edge 68, Type (0, 0), BuildingBlock: MIFKUJ_clean_linker_0, # of connection points: 2
#     Edge 69, Type (0, 0), BuildingBlock: MIFKUJ_clean_linker_0, # of connection points: 2
#     Edge 70, Type (0, 0), BuildingBlock: MIFKUJ_clean_linker_0, # of connection points: 2
#     Edge 71, Type (0, 0), BuildingBlock: MIFKUJ_clean_linker_0, # of connection points: 2
#     Edge 72, Type (0, 0), BuildingBlock: MIFKUJ_clean_linker_0, # of connection points: 2
#     Edge 73, Type (0, 0), BuildingBlock: MIFKUJ_clean_linker_0, # of connection points: 2
#     Edge 74, Type (0, 0), BuildingBlock: MIFKUJ_clean_linker_0, # of connection points: 2
#     Edge 75, Type (0, 0), BuildingBlock: MIFKUJ_clean_linker_0, # of connection points: 2
#     Edge 76, Type (0, 0), BuildingBlock: MIFKUJ_clean_linker_0, # of connection points: 2
#     Edge 77, Type (0, 0), BuildingBlock: MIFKUJ_clean_linker_0, # of connection points: 2
#     Edge 78, Type (0, 0), BuildingBlock: MIFKUJ_clean_linker_0, # of connection points: 2
#     Edge 79, Type (0, 0), BuildingBlock: MIFKUJ_clean_linker_0, # of connection points: 2
#     Edge 80, Type (0, 0), BuildingBlock: MIFKUJ_clean_linker_0, # of connection points: 2
#     Edge 81, Type (0, 0), BuildingBlock: MIFKUJ_clean_linker_0, # of connection points: 2
#     Edge 82, Type (0, 0), BuildingBlock: MIFKUJ_clean_linker_0, # of connection points: 2
#     Edge 83, Type (0, 0), BuildingBlock: MIFKUJ_clean_linker_0, # of connection points: 2
#     Edge 84, Type (0, 0), BuildingBlock: MIFKUJ_clean_linker_0, # of connection points: 2
#     Edge 85, Type (0, 0), BuildingBlock: MIFKUJ_clean_linker_0, # of connection points: 2
#     Edge 86, Type (0, 0), BuildingBlock: MIFKUJ_clean_linker_0, # of connection points: 2
#     Edge 87, Type (0, 0), BuildingBlock: MIFKUJ_clean_linker_0, # of connection points: 2
#     Edge 88, Type (0, 0), BuildingBlock: MIFKUJ_clean_linker_0, # of connection points: 2
#     Edge 89, Type (0, 0), BuildingBlock: MIFKUJ_clean_linker_0, # of connection points: 2
#     Edge 90, Type (0, 0), BuildingBlock: MIFKUJ_clean_linker_0, # of connection points: 2
#     Edge 91, Type (0, 0), BuildingBlock: MIFKUJ_clean_linker_0, # of connection points: 2
#     Edge 92, Type (0, 0), BuildingBlock: MIFKUJ_clean_linker_0, # of connection points: 2
#     Edge 93, Type (0, 0), BuildingBlock: MIFKUJ_clean_linker_0, # of connection points: 2
#     Edge 94, Type (0, 0), BuildingBlock: MIFKUJ_clean_linker_0, # of connection points: 2
#     Edge 95, Type (0, 0), BuildingBlock: MIFKUJ_clean_linker_0, # of connection points: 2
# Relax obj value: 0.131
# Max RMSD: 0.111
# Mean RMSD: 0.111
data_MOF--net-umv--node1-CEKHIL_clean_sbu_0--edge1-MIFKUJ_clean_linker_0
_symmetry_space_group_name_H-M    P1
_symmetry_Int_Tables_number       1
_symmetry_cell_setting            triclinic
loop_
_symmetry_equiv_pos_as_xyz
'x, y, z'
_cell_length_a     136.52678
_cell_length_b     32.965307
_cell_length_c     74.765447
_cell_angle_alpha  89.99283
_cell_angle_beta   90.003362
_cell_angle_gamma 89.994825
loop_
_atom_site_label
_atom_site_type_symbol
_atom_site_fract_x
_atom_site_fract_y
_atom_site_fract_z
_atom_type_partial_charge
Co0 Co 0.05631 0.11451 0.31115 0.0
O1 O 0.04231 0.12238 0.30996 0.0
O2 O 0.05282 0.14684 0.2903 0.0
C3 C 0.0555 0.04804 0.31789 0.0
O4 O 0.07128 0.11211 0.30773 0.0
Co5 Co 0.0666 0.08551 0.34611 0.0
O6 O 0.07799 0.07613 0.3302 0.0
C7 C 0.05948 0.17007 0.34281 0.0
C8 C 0.04377 0.14362 0.29561 0.0
C9 C 0.07864 0.09412 0.31517 0.0
O10 O 0.05756 0.16484 0.32612 0.0
O11 O 0.06247 0.14166 0.35316 0.0
O12 O 0.05494 0.05942 0.30126 0.0
O13 O 0.05598 0.07651 0.32957 0.0
Co14 Co 0.20314 0.13096 0.3135 0.0
O15 O 0.21707 0.12066 0.31261 0.0
O16 O 0.20656 0.10054 0.29204 0.0
C17 C 0.20485 0.1962 0.32211 0.0
O18 O 0.18825 0.13625 0.30959 0.0
Co19 Co 0.19262 0.15881 0.34845 0.0
O20 O 0.18135 0.16988 0.33255 0.0
C21 C 0.2001 0.07476 0.34446 0.0
C22 C 0.21557 0.1014 0.29774 0.0
C23 C 0.18083 0.15366 0.31712 0.0
O24 O 0.20129 0.07953 0.32751 0.0
O25 O 0.19756 0.10354 0.355 0.0
O26 O 0.20526 0.18723 0.30515 0.0
O27 O 0.20369 0.16621 0.33281 0.0
Co28 Co 0.05688 0.12508 0.93648 0.0
O29 O 0.04296 0.11511 0.93815 0.0
O30 O 0.05369 0.09781 0.95888 0.0
C31 C 0.05523 0.18911 0.9262 0.0
O32 O 0.07181 0.1308 0.93964 0.0
Co33 Co 0.06697 0.14738 0.90033 0.0
O34 O 0.07827 0.16202 0.91561 0.0
C35 C 0.05974 0.06394 0.90717 0.0
C36 C 0.04462 0.09784 0.95344 0.0
C37 C 0.07904 0.14787 0.93139 0.0
O38 O 0.0585 0.07165 0.9239 0.0
O39 O 0.06231 0.09075 0.89568 0.0
O40 O 0.05494 0.18242 0.94337 0.0
O41 O 0.05616 0.1576 0.91629 0.0
Co42 Co 0.20388 0.11243 0.93877 0.0
O43 O 0.21783 0.11897 0.94175 0.0
O44 O 0.20674 0.14228 0.96063 0.0
C45 C 0.20472 0.04669 0.93062 0.0
O46 O 0.18883 0.11092 0.94032 0.0
Co47 Co 0.19486 0.08777 0.90198 0.0
O48 O 0.18277 0.07884 0.91614 0.0
C49 C 0.20357 0.16903 0.90743 0.0
C50 C 0.21595 0.13907 0.95626 0.0
C51 C 0.18167 0.09476 0.93154 0.0
O52 O 0.20352 0.16414 0.92451 0.0
O53 O 0.20129 0.14094 0.89635 0.0
O54 O 0.20459 0.05594 0.94755 0.0
O55 O 0.20475 0.07669 0.91971 0.0
Co56 Co 0.95043 0.87182 0.68578 0.0
O57 O 0.96439 0.86825 0.68947 0.0
O58 O 0.95335 0.84462 0.70833 0.0
C59 C 0.95015 0.93696 0.67639 0.0
O60 O 0.9353 0.87099 0.68644 0.0
Co61 Co 0.94252 0.88919 0.64701 0.0
O62 O 0.92968 0.88934 0.65923 0.0
C63 C 0.95099 0.80976 0.65591 0.0
C64 C 0.96256 0.84907 0.70425 0.0
C65 C 0.92823 0.87902 0.67545 0.0
O66 O 0.95083 0.81819 0.67273 0.0
O67 O 0.94895 0.83548 0.64365 0.0
O68 O 0.95043 0.92931 0.69347 0.0
O69 O 0.95101 0.90603 0.66613 0.0
Co70 Co 0.80296 0.85842 0.69319 0.0
O71 O 0.78935 0.86007 0.69998 0.0
O72 O 0.80149 0.88398 0.71647 0.0
C73 C 0.80285 0.79427 0.68258 0.0
O74 O 0.81795 0.86091 0.69066 0.0
Co75 Co 0.80858 0.84559 0.65306 0.0
O76 O 0.82213 0.84301 0.66261 0.0
C77 C 0.79905 0.92067 0.66493 0.0
C78 C 0.79209 0.87911 0.71431 0.0
C79 C 0.82444 0.85286 0.67858 0.0
O80 O 0.80139 0.9127 0.68122 0.0
O81 O 0.80021 0.89549 0.65207 0.0
O82 O 0.80391 0.80033 0.6997 0.0
O83 O 0.80119 0.82618 0.67327 0.0
Co84 Co 0.95264 0.86466 0.06042 0.0
O85 O 0.96671 0.87026 0.05867 0.0
O86 O 0.95624 0.89182 0.03826 0.0
C87 C 0.95244 0.79965 0.06997 0.0
O88 O 0.93763 0.86337 0.05745 0.0
Co89 Co 0.94301 0.84709 0.09772 0.0
O90 O 0.93091 0.84195 0.08335 0.0
C91 C 0.95221 0.92583 0.09021 0.0
C92 C 0.96529 0.88887 0.04359 0.0
C93 C 0.93019 0.85221 0.06696 0.0
O94 O 0.95208 0.91831 0.07331 0.0
O95 O 0.94992 0.89954 0.10208 0.0
O96 O 0.95343 0.80715 0.05296 0.0
O97 O 0.95259 0.83081 0.08024 0.0
Co98 Co 0.80619 0.88556 0.06027 0.0
O99 O 0.79212 0.88557 0.05725 0.0
O100 O 0.80267 0.86202 0.03738 0.0
C101 C 0.80777 0.94879 0.0714 0.0
O102 O 0.82117 0.88126 0.05844 0.0
Co103 Co 0.81517 0.89341 0.09862 0.0
O104 O 0.82785 0.88992 0.0858 0.0
C105 C 0.80431 0.82053 0.08829 0.0
C106 C 0.79358 0.86738 0.04207 0.0
C107 C 0.82863 0.88374 0.06902 0.0
O108 O 0.80524 0.83042 0.07173 0.0
O109 O 0.80675 0.84408 0.10114 0.0
O110 O 0.80693 0.94381 0.05418 0.0
O111 O 0.80656 0.91675 0.08091 0.0
Co112 Co 0.05335 0.61183 0.80794 0.0
O113 O 0.03945 0.61097 0.8035 0.0
O114 O 0.05046 0.6345 0.78449 0.0
C115 C 0.05461 0.54884 0.81967 0.0
O116 O 0.06841 0.61652 0.80805 0.0
Co117 Co 0.06059 0.60547 0.84752 0.0
O118 O 0.07365 0.60256 0.83598 0.0
C119 C 0.04968 0.67647 0.83521 0.0
C120 C 0.04126 0.62879 0.78838 0.0
C121 C 0.07534 0.61025 0.81953 0.0
O122 O 0.05182 0.66729 0.81896 0.0
O123 O 0.05148 0.65298 0.84842 0.0
O124 O 0.05446 0.5533 0.80236 0.0
O125 O 0.05296 0.58125 0.82869 0.0
Co126 Co 0.20093 0.63053 0.81108 0.0
O127 O 0.21498 0.6288 0.80813 0.0
O128 O 0.20437 0.60512 0.78843 0.0
C129 C 0.19993 0.69481 0.82133 0.0
O130 O 0.18585 0.62794 0.80952 0.0
Co131 Co 0.19233 0.6429 0.84961 0.0
O132 O 0.17963 0.64115 0.83689 0.0
C133 C 0.20219 0.56694 0.84 0.0
C134 C 0.21348 0.61004 0.79312 0.0
C135 C 0.17855 0.63302 0.82033 0.0
O136 O 0.20153 0.57611 0.82331 0.0
O137 O 0.19995 0.59162 0.85256 0.0
O138 O 0.20061 0.68846 0.80418 0.0
O139 O 0.2009 0.66328 0.83123 0.0
Co140 Co 0.05924 0.63716 0.44015 0.0
O141 O 0.04522 0.62827 0.44006 0.0
O142 O 0.05515 0.6106 0.46205 0.0
C143 C 0.05881 0.70136 0.42963 0.0
O144 O 0.07401 0.64155 0.44544 0.0
Co145 Co 0.07093 0.6557 0.40512 0.0
O146 O 0.08171 0.66929 0.42178 0.0
C147 C 0.06386 0.57271 0.41255 0.0
C148 C 0.04632 0.61093 0.45554 0.0
C149 C 0.08167 0.6568 0.43788 0.0
O150 O 0.06114 0.58297 0.42838 0.0
O151 O 0.06737 0.5975 0.40104 0.0
O152 O 0.05728 0.69461 0.44656 0.0
O153 O 0.05978 0.66968 0.41977 0.0
Co154 Co 0.20574 0.61245 0.44284 0.0
O155 O 0.21983 0.61677 0.44483 0.0
O156 O 0.20934 0.63712 0.46547 0.0
C157 C 0.20527 0.54873 0.43171 0.0
O158 O 0.19076 0.6125 0.44581 0.0
Co159 Co 0.19567 0.60002 0.4057 0.0
O160 O 0.18374 0.59065 0.42028 0.0
C161 C 0.20527 0.67729 0.41462 0.0
C162 C 0.21839 0.63441 0.46014 0.0
C163 C 0.18321 0.6012 0.43665 0.0
O164 O 0.20541 0.66748 0.43127 0.0
O165 O 0.2026 0.65289 0.40222 0.0
O166 O 0.20625 0.55405 0.44889 0.0
O167 O 0.2055 0.58116 0.42223 0.0
Co168 Co 0.95369 0.38569 0.18886 0.0
O169 O 0.9674 0.37934 0.1941 0.0
O170 O 0.95552 0.35589 0.21123 0.0
C171 C 0.95496 0.4513 0.18075 0.0
O172 O 0.93858 0.38768 0.18757 0.0
Co173 Co 0.94742 0.40854 0.14993 0.0
O174 O 0.93413 0.41135 0.16045 0.0
C175 C 0.95501 0.32701 0.15804 0.0
C176 C 0.9649 0.35923 0.20826 0.0
C177 C 0.93199 0.39886 0.17612 0.0
O178 O 0.95401 0.33352 0.17492 0.0
O179 O 0.95374 0.35448 0.14616 0.0
O180 O 0.95395 0.44225 0.19761 0.0
O181 O 0.95568 0.42114 0.17002 0.0
Co182 Co 0.80623 0.36656 0.18659 0.0
O183 O 0.79242 0.37334 0.19102 0.0
O184 O 0.80404 0.39901 0.2081 0.0
C185 C 0.80514 0.29994 0.18007 0.0
O186 O 0.82135 0.36471 0.18628 0.0
Co187 Co 0.81347 0.33809 0.149 0.0
O188 O 0.8263 0.33318 0.16114 0.0
C189 C 0.80557 0.42067 0.15411 0.0
C190 C 0.79471 0.39507 0.20483 0.0
C191 C 0.82814 0.34938 0.17626 0.0
O192 O 0.80605 0.4168 0.17124 0.0
O193 O 0.80732 0.39158 0.14323 0.0
O194 O 0.80587 0.31114 0.19672 0.0
O195 O 0.80461 0.32868 0.16857 0.0
Co196 Co 0.95813 0.34987 0.55872 0.0
O197 O 0.97193 0.35847 0.55457 0.0
O198 O 0.96016 0.38087 0.53686 0.0
C199 C 0.95959 0.28401 0.56643 0.0
O200 O 0.9431 0.34618 0.55841 0.0
Co201 Co 0.95041 0.32308 0.59625 0.0
O202 O 0.93787 0.31486 0.58339 0.0
C203 C 0.95756 0.40664 0.59032 0.0
C204 C 0.96949 0.37886 0.54041 0.0
C205 C 0.93624 0.33022 0.56802 0.0
O206 O 0.95766 0.40122 0.57325 0.0
O207 O 0.95577 0.37825 0.60154 0.0
O208 O 0.95902 0.29369 0.54957 0.0
O209 O 0.95977 0.31375 0.57746 0.0
Co210 Co 0.81146 0.36876 0.56681 0.0
O211 O 0.79737 0.36252 0.56606 0.0
O212 O 0.80739 0.34467 0.54426 0.0
C213 C 0.8116 0.43214 0.57839 0.0
O214 O 0.82637 0.371 0.56256 0.0
Co215 Co 0.82252 0.38196 0.60296 0.0
O216 O 0.83359 0.39667 0.58718 0.0
C217 C 0.81327 0.30341 0.59464 0.0
C218 C 0.79848 0.34594 0.55043 0.0
C219 C 0.8339 0.38544 0.5709 0.0
O220 O 0.81238 0.31353 0.57809 0.0
O221 O 0.81642 0.32751 0.60675 0.0
O222 O 0.81033 0.4272 0.56125 0.0
O223 O 0.81195 0.39934 0.58763 0.0
Co224 Co 0.55676 0.11471 0.8118 0.0
O225 O 0.54267 0.12003 0.81028 0.0
O226 O 0.55306 0.14348 0.79014 0.0
C227 C 0.55704 0.04898 0.82032 0.0
O228 O 0.57172 0.11481 0.80854 0.0
Co229 Co 0.56697 0.09396 0.8482 0.0
O230 O 0.57895 0.08988 0.83334 0.0
C231 C 0.55782 0.17392 0.84242 0.0
C232 C 0.54403 0.13986 0.79548 0.0
C233 C 0.57935 0.10282 0.81731 0.0
O234 O 0.55732 0.16719 0.82548 0.0
O235 O 0.56052 0.14706 0.85377 0.0
O236 O 0.55602 0.0579 0.80345 0.0
O237 O 0.557 0.07923 0.83113 0.0
Co238 Co 0.70363 0.1424 0.8133 0.0
O239 O 0.71757 0.13638 0.80991 0.0
O240 O 0.7063 0.11107 0.79183 0.0
C241 C 0.70409 0.2086 0.82053 0.0
O242 O 0.68862 0.14325 0.81217 0.0
Co243 Co 0.69501 0.16697 0.85027 0.0
O244 O 0.68276 0.17571 0.83642 0.0
C245 C 0.70351 0.08562 0.84487 0.0
C246 C 0.71554 0.11491 0.79585 0.0
C247 C 0.68155 0.15962 0.82108 0.0
O248 O 0.70349 0.09122 0.82785 0.0
O249 O 0.70128 0.11338 0.85614 0.0
O250 O 0.70406 0.19804 0.80375 0.0
O251 O 0.70452 0.17955 0.83195 0.0
Co252 Co 0.55924 0.13048 0.44222 0.0
O253 O 0.54517 0.1271 0.44508 0.0
O254 O 0.55591 0.10093 0.4639 0.0
C255 C 0.55992 0.19645 0.43416 0.0
O256 O 0.57429 0.1284 0.44398 0.0
Co257 Co 0.56824 0.15071 0.40466 0.0
O258 O 0.58091 0.14555 0.41733 0.0
C259 C 0.55857 0.07247 0.41111 0.0
C260 C 0.54678 0.10598 0.45945 0.0
C261 C 0.58172 0.13497 0.43366 0.0
O262 O 0.55896 0.07843 0.42811 0.0
O263 O 0.56084 0.09964 0.39961 0.0
O264 O 0.55926 0.18709 0.45104 0.0
O265 O 0.55922 0.16667 0.4232 0.0
Co266 Co 0.7074 0.11125 0.44367 0.0
O267 O 0.72138 0.11558 0.44682 0.0
O268 O 0.71047 0.13307 0.46722 0.0
C269 C 0.7074 0.04899 0.43092 0.0
O270 O 0.69233 0.11034 0.44504 0.0
Co271 Co 0.69882 0.10327 0.40498 0.0
O272 O 0.68649 0.09167 0.41803 0.0
C273 C 0.70844 0.17814 0.41691 0.0
C274 C 0.71964 0.13129 0.4624 0.0
C275 C 0.68524 0.09976 0.43456 0.0
O276 O 0.70733 0.16755 0.43333 0.0
O277 O 0.70658 0.15468 0.40371 0.0
O278 O 0.70779 0.05207 0.44829 0.0
O279 O 0.70791 0.08268 0.42242 0.0
Co280 Co 0.45451 0.88474 0.18768 0.0
O281 O 0.46836 0.87699 0.19143 0.0
O282 O 0.45686 0.85437 0.20964 0.0
C283 C 0.45572 0.95046 0.17963 0.0
O284 O 0.43945 0.88789 0.18843 0.0
Co285 Co 0.44636 0.90981 0.15027 0.0
O286 O 0.43411 0.92027 0.16376 0.0
C287 C 0.45404 0.82714 0.15639 0.0
C288 C 0.46615 0.85682 0.20576 0.0
C289 C 0.43258 0.90487 0.17915 0.0
O290 O 0.4541 0.83301 0.17342 0.0
O291 O 0.45201 0.855 0.14504 0.0
O292 O 0.45533 0.94114 0.19655 0.0
O293 O 0.45587 0.92043 0.16873 0.0
Co294 Co 0.30691 0.86709 0.19086 0.0
O295 O 0.29297 0.87028 0.19479 0.0
O296 O 0.3041 0.8924 0.21386 0.0
C297 C 0.30695 0.80301 0.18008 0.0
O298 O 0.32203 0.86781 0.19128 0.0
Co299 Co 0.31489 0.85316 0.15202 0.0
O300 O 0.32747 0.84471 0.16466 0.0
C301 C 0.30455 0.92799 0.16193 0.0
C302 C 0.29486 0.8885 0.20976 0.0
C303 C 0.32899 0.85576 0.18078 0.0
O304 O 0.30633 0.92133 0.17858 0.0
O305 O 0.30638 0.90228 0.14956 0.0
O306 O 0.30697 0.80872 0.19734 0.0
O307 O 0.30618 0.83527 0.17065 0.0
Co308 Co 0.4551 0.86404 0.56262 0.0
O309 O 0.4691 0.86551 0.55863 0.0
O310 O 0.45813 0.89371 0.54083 0.0
C311 C 0.45394 0.79804 0.57046 0.0
O312 O 0.44005 0.86811 0.56213 0.0
Co313 Co 0.44699 0.84464 0.60088 0.0
O314 O 0.43405 0.85164 0.58931 0.0
C315 C 0.45732 0.92082 0.5939 0.0
C316 C 0.46733 0.88735 0.54454 0.0
C317 C 0.43285 0.86247 0.57309 0.0
O318 O 0.45619 0.91566 0.57695 0.0
O319 O 0.45528 0.89345 0.60544 0.0
O320 O 0.45433 0.80765 0.55357 0.0
O321 O 0.45527 0.82743 0.58143 0.0
Co322 Co 0.30777 0.88456 0.56141 0.0
O323 O 0.29385 0.88216 0.55713 0.0
O324 O 0.30514 0.86466 0.5374 0.0
C325 C 0.308 0.94571 0.57511 0.0
O326 O 0.32286 0.88406 0.5612 0.0
Co327 Co 0.31526 0.88682 0.6009 0.0
O328 O 0.32813 0.89605 0.58929 0.0
C329 C 0.3055 0.81487 0.58659 0.0
C330 C 0.29589 0.86708 0.54154 0.0
C331 C 0.32978 0.89096 0.57264 0.0
O332 O 0.30727 0.82729 0.57063 0.0
O333 O 0.30705 0.83654 0.6005 0.0
O334 O 0.30786 0.94403 0.55769 0.0
O335 O 0.307 0.91149 0.58308 0.0
Co336 Co 0.55554 0.60992 0.31315 0.0
O337 O 0.54156 0.61581 0.31017 0.0
O338 O 0.55258 0.6375 0.29078 0.0
C339 C 0.55495 0.54505 0.3227 0.0
O340 O 0.57056 0.60884 0.31135 0.0
Co341 Co 0.56479 0.59031 0.35024 0.0
O342 O 0.57699 0.58149 0.33631 0.0
C343 C 0.55643 0.67132 0.3429 0.0
C344 C 0.54339 0.63468 0.29532 0.0
C345 C 0.5779 0.59522 0.32046 0.0
O346 O 0.55594 0.66328 0.32608 0.0
O347 O 0.55889 0.64511 0.35472 0.0
O348 O 0.55491 0.55259 0.3056 0.0
O349 O 0.55484 0.57613 0.33302 0.0
Co350 Co 0.70227 0.62646 0.31138 0.0
O351 O 0.71621 0.61615 0.31086 0.0
O352 O 0.70605 0.60108 0.28888 0.0
C353 C 0.70387 0.68935 0.32309 0.0
O354 O 0.68746 0.63295 0.30686 0.0
Co355 Co 0.69096 0.64772 0.34656 0.0
O356 O 0.68042 0.6651 0.3301 0.0
C357 C 0.69759 0.56332 0.33904 0.0
C358 C 0.71496 0.60062 0.29509 0.0
C359 C 0.68009 0.65083 0.3143 0.0
O360 O 0.70005 0.5721 0.32285 0.0
O361 O 0.69458 0.58959 0.3504 0.0
O362 O 0.70463 0.68441 0.30585 0.0
O363 O 0.70242 0.65697 0.33217 0.0
Co364 Co 0.55509 0.63634 0.94106 0.0
O365 O 0.54131 0.62858 0.94542 0.0
O366 O 0.55306 0.60718 0.96341 0.0
C367 C 0.55366 0.70157 0.93244 0.0
O368 O 0.57014 0.6399 0.94114 0.0
Co369 Co 0.56263 0.65931 0.90303 0.0
O370 O 0.57515 0.66974 0.91565 0.0
C371 C 0.55532 0.57662 0.91052 0.0
C372 C 0.54373 0.60932 0.95988 0.0
C373 C 0.5769 0.65568 0.93122 0.0
O374 O 0.55543 0.58364 0.92746 0.0
O375 O 0.55709 0.60391 0.89876 0.0
O376 O 0.55428 0.69305 0.94941 0.0
O377 O 0.55339 0.67113 0.92177 0.0
Co378 Co 0.70253 0.62222 0.93994 0.0
O379 O 0.7165 0.62711 0.94346 0.0
O380 O 0.70533 0.65137 0.96197 0.0
C381 C 0.70255 0.55651 0.93159 0.0
O382 O 0.68745 0.62199 0.941 0.0
Co383 Co 0.69417 0.60236 0.90207 0.0
O384 O 0.68169 0.59555 0.91526 0.0
C385 C 0.70258 0.68284 0.90948 0.0
C386 C 0.71456 0.6474 0.9579 0.0
C387 C 0.68039 0.60846 0.93116 0.0
O388 O 0.70264 0.67486 0.92632 0.0
O389 O 0.70025 0.65674 0.89753 0.0
O390 O 0.70278 0.56566 0.94852 0.0
O391 O 0.7032 0.58652 0.92069 0.0
Co392 Co 0.45284 0.38238 0.69165 0.0
O393 O 0.46682 0.37418 0.69339 0.0
O394 O 0.45625 0.35835 0.71461 0.0
C395 C 0.45394 0.44523 0.67975 0.0
O396 O 0.4379 0.38653 0.69493 0.0
Co397 Co 0.44235 0.39878 0.65531 0.0
O398 O 0.43109 0.41462 0.67047 0.0
C399 C 0.44962 0.31645 0.66441 0.0
C400 C 0.46529 0.35845 0.70905 0.0
C401 C 0.43052 0.40205 0.68654 0.0
O402 O 0.45152 0.32712 0.68059 0.0
O403 O 0.44659 0.34099 0.65233 0.0
O404 O 0.45436 0.4407 0.69705 0.0
O405 O 0.45324 0.41243 0.6706 0.0
Co406 Co 0.30595 0.36792 0.69165 0.0
O407 O 0.292 0.37749 0.69296 0.0
O408 O 0.30264 0.39784 0.71329 0.0
C409 C 0.30442 0.30263 0.68288 0.0
O410 O 0.32088 0.36333 0.69511 0.0
Co411 Co 0.31632 0.34037 0.6564 0.0
O412 O 0.32761 0.3289 0.6722 0.0
C413 C 0.30941 0.42528 0.66104 0.0
C414 C 0.29358 0.3966 0.70785 0.0
C415 C 0.32824 0.34569 0.6875 0.0
O416 O 0.30759 0.41973 0.67777 0.0
O417 O 0.31214 0.39695 0.65043 0.0
O418 O 0.30408 0.31133 0.69987 0.0
O419 O 0.30538 0.33293 0.67229 0.0
Co420 Co 0.45304 0.36567 0.06043 0.0
O421 O 0.4671 0.36379 0.05745 0.0
O422 O 0.45675 0.38892 0.0376 0.0
C423 C 0.45102 0.30248 0.07143 0.0
O424 O 0.4381 0.37198 0.05857 0.0
Co425 Co 0.44392 0.35822 0.09867 0.0
O426 O 0.43129 0.36333 0.08581 0.0
C427 C 0.45564 0.42914 0.08875 0.0
C428 C 0.46579 0.38223 0.04229 0.0
C429 C 0.4306 0.37008 0.06907 0.0
O430 O 0.45444 0.42054 0.07211 0.0
O431 O 0.45305 0.40523 0.10138 0.0
O432 O 0.45186 0.30758 0.05422 0.0
O433 O 0.45243 0.33429 0.08098 0.0
Co434 Co 0.30713 0.37814 0.06185 0.0
O435 O 0.2932 0.36907 0.06068 0.0
O436 O 0.30349 0.35624 0.0386 0.0
C437 C 0.30613 0.43954 0.07512 0.0
O438 O 0.32202 0.38458 0.05814 0.0
Co439 Co 0.31763 0.39021 0.09875 0.0
O440 O 0.32867 0.40828 0.08365 0.0
C441 C 0.31012 0.30975 0.08785 0.0
C442 C 0.29455 0.35503 0.04467 0.0
C443 C 0.32931 0.39919 0.06713 0.0
O444 O 0.3088 0.32179 0.07166 0.0
O445 O 0.31282 0.33317 0.10059 0.0
O446 O 0.30525 0.4369 0.0578 0.0
O447 O 0.30694 0.40565 0.0834 0.0
H448 H 0.08765 0.16329 0.30389 0.0
H449 H 0.10514 0.17252 0.29813 0.0
H450 H 0.10959 0.04331 0.30333 0.0
H451 H 0.09223 0.0348 0.31047 0.0
H452 H 0.12248 0.07454 0.32117 0.0
H453 H 0.11237 0.10357 0.26167 0.0
H454 H 0.10291 0.1359 0.23746 0.0
H455 H 0.11397 0.25266 0.25293 0.0
H456 H 0.12341 0.22111 0.27738 0.0
H457 H 0.17304 0.08992 0.29846 0.0
H458 H 0.15566 0.07885 0.29148 0.0
H459 H 0.14881 0.1986 0.31091 0.0
H460 H 0.16609 0.20938 0.31839 0.0
H461 H 0.13777 0.16859 0.27756 0.0
H462 H 0.1463 0.13438 0.33951 0.0
H463 H 0.15631 0.09817 0.36186 0.0
H464 H 0.1484 0.98412 0.33815 0.0
H465 H 0.13846 0.0198 0.31548 0.0
C466 C 0.09234 0.13681 0.30331 0.0
C467 C 0.08859 0.0983 0.30748 0.0
C468 C 0.10238 0.14202 0.29995 0.0
C469 C 0.10883 0.10861 0.30009 0.0
C470 C 0.10489 0.06978 0.30324 0.0
C471 C 0.09493 0.06478 0.30715 0.0
C472 C 0.11973 0.11438 0.29877 0.0
C473 C 0.12575 0.09446 0.31129 0.0
C474 C 0.12419 0.14082 0.28615 0.0
C475 C 0.11853 0.15998 0.27146 0.0
C476 C 0.11273 0.13618 0.25999 0.0
C477 C 0.10738 0.15436 0.24621 0.0
C478 C 0.10782 0.19632 0.24368 0.0
C479 C 0.11363 0.22017 0.25491 0.0
C480 C 0.11899 0.20214 0.26872 0.0
C481 C 0.16788 0.11434 0.30072 0.0
C482 C 0.17093 0.15051 0.30899 0.0
C483 C 0.15795 0.10792 0.29679 0.0
C484 C 0.15094 0.13788 0.30072 0.0
C485 C 0.15409 0.17517 0.30769 0.0
C486 C 0.16397 0.18124 0.31199 0.0
C487 C 0.14027 0.12866 0.29982 0.0
C488 C 0.13437 0.14815 0.28708 0.0
C489 C 0.1359 0.10115 0.31192 0.0
C490 C 0.14174 0.07975 0.3257 0.0
C491 C 0.14677 0.10161 0.33898 0.0
C492 C 0.15242 0.08119 0.35172 0.0
C493 C 0.15302 0.03887 0.35139 0.0
C494 C 0.14795 0.0169 0.33837 0.0
C495 C 0.1423 0.0372 0.32558 0.0
H496 H 0.1574 0.02311 0.36126 0.0
H497 H 0.10367 0.21034 0.23301 0.0
H498 H 0.17275 0.1601 0.94713 0.0
H499 H 0.15521 0.16876 0.9528 0.0
H500 H 0.15018 0.04414 0.93751 0.0
H501 H 0.16759 0.03658 0.93069 0.0
H502 H 0.13771 0.08379 0.92175 0.0
H503 H 0.14741 0.08602 0.9829 0.0
H504 H 0.15674 0.10691 0.00959 0.0
H505 H 0.14604 0.22872 0.0039 0.0
H506 H 0.13674 0.20869 0.97702 0.0
H507 H 0.0874 0.08714 0.95114 0.0
H508 H 0.10494 0.07829 0.9574 0.0
H509 H 0.11086 0.19624 0.93507 0.0
H510 H 0.09342 0.20471 0.92821 0.0
H511 H 0.12222 0.1572 0.9723 0.0
H512 H 0.11562 0.14978 0.90614 0.0
H513 H 0.10545 0.12319 0.88149 0.0
H514 H 0.10985 0.00167 0.9006 0.0
H515 H 0.11995 0.02775 0.92551 0.0
C516 C 0.16791 0.13436 0.94539 0.0
C517 C 0.17152 0.09765 0.9385 0.0
C518 C 0.15785 0.13924 0.94869 0.0
C519 C 0.15124 0.10706 0.94573 0.0
C520 C 0.15502 0.06968 0.93979 0.0
C521 C 0.165 0.06521 0.93601 0.0
C522 C 0.14037 0.11314 0.94716 0.0
C523 C 0.13442 0.09932 0.93304 0.0
C524 C 0.13585 0.13369 0.96171 0.0
C525 C 0.14145 0.14591 0.97784 0.0
C526 C 0.1471 0.11733 0.98725 0.0
C527 C 0.15238 0.12901 0.00243 0.0
C528 C 0.152 0.16914 0.00841 0.0
C529 C 0.14634 0.19765 0.99924 0.0
C530 C 0.14105 0.18615 0.98405 0.0
C531 C 0.09239 0.11171 0.9481 0.0
C532 C 0.08904 0.14661 0.93917 0.0
C533 C 0.10241 0.10658 0.95165 0.0
C534 C 0.10918 0.13665 0.94672 0.0
C535 C 0.10575 0.17282 0.93909 0.0
C536 C 0.09579 0.17756 0.93515 0.0
C537 C 0.11987 0.12802 0.94697 0.0
C538 C 0.12568 0.1414 0.96126 0.0
C539 C 0.12429 0.10634 0.93285 0.0
C540 C 0.11844 0.09068 0.9177 0.0
C541 C 0.11436 0.11743 0.90512 0.0
C542 C 0.10863 0.10247 0.89111 0.0
C543 C 0.10699 0.06077 0.8895 0.0
C544 C 0.11112 0.03396 0.90187 0.0
C545 C 0.11685 0.0488 0.91593 0.0
H546 H 0.10254 0.04923 0.87865 0.0
H547 H 0.15609 0.17811 0.02016 0.0
H548 H 0.91274 0.86463 0.65384 0.0
H549 H 0.89547 0.86431 0.66118 0.0
H550 H 0.90232 0.88425 0.71678 0.0
H551 H 0.91999 0.88424 0.70945 0.0
H552 H 0.88647 0.82782 0.71091 0.0
H553 H 0.89456 0.96271 0.69465 0.0
H554 H 0.90247 0.01654 0.67687 0.0
H555 H 0.88587 0.98091 0.63071 0.0
H556 H 0.87797 0.92644 0.64811 0.0
H557 H 0.83337 0.86699 0.71131 0.0
H558 H 0.851 0.87516 0.71724 0.0
H559 H 0.85714 0.85593 0.66133 0.0
H560 H 0.83979 0.84747 0.65532 0.0
H561 H 0.86649 0.92413 0.67523 0.0
H562 H 0.861 0.78194 0.69096 0.0
H563 H 0.85339 0.7274 0.70876 0.0
H564 H 0.86506 0.7794 0.75692 0.0
H565 H 0.87264 0.83457 0.7394 0.0
C566 C 0.91066 0.86891 0.6677 0.0
C567 C 0.9178 0.8752 0.68102 0.0
C568 C 0.90073 0.86868 0.67187 0.0
C569 C 0.89756 0.87517 0.68945 0.0
C570 C 0.90461 0.87951 0.70307 0.0
C571 C 0.91469 0.8795 0.69888 0.0
C572 C 0.88683 0.87873 0.69287 0.0
C573 C 0.8821 0.84958 0.70351 0.0
C574 C 0.88109 0.90708 0.6832 0.0
C575 C 0.88569 0.94036 0.67271 0.0
C576 C 0.89263 0.96621 0.68069 0.0
C577 C 0.89711 0.99685 0.67067 0.0
C578 C 0.89468 0.00211 0.65267 0.0
C579 C 0.88774 0.97682 0.64466 0.0
C580 C 0.88324 0.9461 0.65461 0.0
C581 C 0.83849 0.86435 0.7003 0.0
C582 C 0.83509 0.85664 0.68282 0.0
C583 C 0.84857 0.86898 0.70373 0.0
C584 C 0.85541 0.86629 0.68971 0.0
C585 C 0.85202 0.85838 0.67235 0.0
C586 C 0.84204 0.85339 0.66896 0.0
C587 C 0.86612 0.87213 0.69262 0.0
C588 C 0.87085 0.90316 0.6831 0.0
C589 C 0.8718 0.84583 0.70344 0.0
C590 C 0.86727 0.81264 0.71391 0.0
C591 C 0.86187 0.78194 0.70536 0.0
C592 C 0.85758 0.75087 0.71539 0.0
C593 C 0.85871 0.75002 0.73396 0.0
C594 C 0.86417 0.78015 0.74254 0.0
C595 C 0.86846 0.81131 0.73256 0.0
H596 H 0.85538 0.72594 0.74171 0.0
H597 H 0.89817 0.0258 0.64493 0.0
H598 H 0.91479 0.8072 0.07824 0.0
H599 H 0.89779 0.81207 0.06924 0.0
H600 H 0.90542 0.90123 0.02937 0.0
H601 H 0.92272 0.89699 0.0387 0.0
H602 H 0.8899 0.92601 0.04858 0.0
H603 H 0.89711 0.80702 0.01642 0.0
H604 H 0.90413 0.7395 0.0104 0.0
H605 H 0.8863 0.68787 0.05186 0.0
H606 H 0.87927 0.75516 0.05834 0.0
H607 H 0.83665 0.9119 0.03752 0.0
H608 H 0.85394 0.90644 0.0281 0.0
H609 H 0.86029 0.83579 0.07524 0.0
H610 H 0.84328 0.84213 0.08487 0.0
H611 H 0.86862 0.80499 0.04165 0.0
H612 H 0.86518 0.92918 0.07749 0.0
H613 H 0.85825 0.99707 0.08315 0.0
H614 H 0.86906 0.03846 0.03238 0.0
H615 H 0.87593 0.97054 0.02633 0.0
C616 C 0.91293 0.82758 0.06738 0.0
C617 C 0.92014 0.85187 0.05925 0.0
C618 C 0.90317 0.83006 0.06212 0.0
C619 C 0.90028 0.85663 0.04845 0.0
C620 C 0.90747 0.8803 0.03989 0.0
C621 C 0.91736 0.87769 0.04515 0.0
C622 C 0.88962 0.86128 0.04445 0.0
C623 C 0.88528 0.89966 0.04648 0.0
C624 C 0.88352 0.82702 0.04175 0.0
C625 C 0.88767 0.78627 0.03789 0.0
C626 C 0.89472 0.78133 0.02433 0.0
C627 C 0.8987 0.74307 0.02083 0.0
C628 C 0.89566 0.70942 0.03075 0.0
C629 C 0.88863 0.71396 0.04418 0.0
C630 C 0.88463 0.75215 0.04774 0.0
C631 C 0.84174 0.89485 0.0457 0.0
C632 C 0.83866 0.87759 0.06196 0.0
C633 C 0.8516 0.89184 0.04035 0.0
C634 C 0.85839 0.87069 0.05099 0.0
C635 C 0.85518 0.85212 0.0668 0.0
C636 C 0.84546 0.85592 0.07233 0.0
C637 C 0.869 0.86922 0.04653 0.0
C638 C 0.8733 0.83141 0.04302 0.0
C639 C 0.87504 0.90398 0.04766 0.0
C640 C 0.87094 0.9447 0.05134 0.0
C641 C 0.86599 0.95265 0.06746 0.0
C642 C 0.86209 0.99115 0.07076 0.0
C643 C 0.86318 0.02202 0.0581 0.0
C644 C 0.8682 0.01449 0.04215 0.0
C645 C 0.87209 0.97601 0.03878 0.0
H646 H 0.86017 0.05182 0.06068 0.0
H647 H 0.89876 0.67983 0.02802 0.0
H648 H 0.08338 0.63359 0.78689 0.0
H649 H 0.10092 0.6417 0.77973 0.0
H650 H 0.10846 0.60133 0.83281 0.0
H651 H 0.0913 0.59302 0.83998 0.0
H652 H 0.1174 0.67378 0.82362 0.0
H653 H 0.11121 0.5399 0.79745 0.0
H654 H 0.10325 0.4938 0.77591 0.0
H655 H 0.1147 0.56379 0.73221 0.0
H656 H 0.12263 0.61061 0.75353 0.0
H657 H 0.16332 0.60439 0.83953 0.0
H658 H 0.14604 0.60473 0.83188 0.0
H659 H 0.15285 0.65178 0.77953 0.0
H660 H 0.17048 0.65105 0.78715 0.0
H661 H 0.1367 0.59138 0.78071 0.0
H662 H 0.14537 0.71791 0.80696 0.0
H663 H 0.15365 0.76277 0.82858 0.0
H664 H 0.1374 0.70877 0.87159 0.0
H665 H 0.12913 0.6631 0.85027 0.0
C666 C 0.0888 0.62615 0.79695 0.0
C667 C 0.08585 0.61302 0.81408 0.0
C668 C 0.09881 0.63079 0.79284 0.0
C669 C 0.10602 0.62241 0.80579 0.0
C670 C 0.10306 0.60837 0.82264 0.0
C671 C 0.09318 0.60362 0.82671 0.0
C672 C 0.11667 0.62928 0.8026 0.0
C673 C 0.1216 0.65595 0.81414 0.0
C674 C 0.12216 0.60721 0.78979 0.0
C675 C 0.1174 0.57903 0.77706 0.0
C676 C 0.11195 0.54567 0.78325 0.0
C677 C 0.10746 0.51936 0.77109 0.0
C678 C 0.10844 0.52595 0.75271 0.0
C679 C 0.11393 0.55878 0.74645 0.0
C680 C 0.11843 0.5852 0.75856 0.0
C681 C 0.16121 0.61445 0.82628 0.0
C682 C 0.16828 0.62832 0.81404 0.0
C683 C 0.1513 0.61454 0.82192 0.0
C684 C 0.14811 0.62899 0.80527 0.0
C685 C 0.15515 0.64066 0.7925 0.0
C686 C 0.1652 0.64024 0.79685 0.0
C687 C 0.13739 0.63441 0.80234 0.0
C688 C 0.13247 0.6102 0.78975 0.0
C689 C 0.13185 0.659 0.81411 0.0
C690 C 0.13665 0.687 0.82699 0.0
C691 C 0.14359 0.71547 0.82103 0.0
C692 C 0.14829 0.74105 0.83324 0.0
C693 C 0.14606 0.73861 0.85144 0.0
C694 C 0.13911 0.71065 0.85748 0.0
C695 C 0.13441 0.68496 0.84533 0.0
H696 H 0.1497 0.75841 0.86087 0.0
H697 H 0.10496 0.50554 0.74331 0.0
H698 H 0.09484 0.71794 0.44144 0.0
H699 H 0.1122 0.71125 0.44893 0.0
H700 H 0.10791 0.58393 0.45988 0.0
H701 H 0.09037 0.59138 0.45348 0.0
H702 H 0.12224 0.6089 0.47978 0.0
H703 H 0.11488 0.62056 0.41748 0.0
H704 H 0.10782 0.65145 0.39034 0.0
H705 H 0.12545 0.75781 0.39822 0.0
H706 H 0.13252 0.72774 0.42557 0.0
H707 H 0.16787 0.55031 0.43088 0.0
H708 H 0.15068 0.56147 0.43887 0.0
H709 H 0.15865 0.671 0.46674 0.0
H710 H 0.17597 0.65923 0.45931 0.0
H711 H 0.143 0.65761 0.42972 0.0
H712 H 0.15057 0.63753 0.4936 0.0
H713 H 0.15762 0.5975 0.51833 0.0
H714 H 0.13959 0.49593 0.50386 0.0
H715 H 0.13255 0.53523 0.47886 0.0
C716 C 0.09755 0.68893 0.44612 0.0
C717 C 0.09129 0.6552 0.44693 0.0
C718 C 0.1075 0.68495 0.4502 0.0
C719 C 0.11148 0.64675 0.45438 0.0
C720 C 0.10507 0.61369 0.45658 0.0
C721 C 0.09503 0.61796 0.45298 0.0
C722 C 0.12233 0.64049 0.45451 0.0
C723 C 0.12675 0.61971 0.46884 0.0
C724 C 0.12832 0.65404 0.44017 0.0
C725 C 0.12414 0.6721 0.42367 0.0
C726 C 0.1172 0.65064 0.41348 0.0
C727 C 0.1132 0.66799 0.39806 0.0
C728 C 0.11616 0.70662 0.39259 0.0
C729 C 0.12315 0.72793 0.4025 0.0
C730 C 0.12716 0.71074 0.41796 0.0
C731 C 0.166 0.5761 0.4392 0.0
C732 C 0.17327 0.60383 0.44453 0.0
C733 C 0.15619 0.5824 0.44376 0.0
C734 C 0.15341 0.61682 0.45353 0.0
C735 C 0.16067 0.64383 0.45947 0.0
C736 C 0.17056 0.63706 0.45524 0.0
C737 C 0.14286 0.6271 0.45512 0.0
C738 C 0.13848 0.64788 0.44087 0.0
C739 C 0.13693 0.61267 0.46924 0.0
C740 C 0.14115 0.5891 0.48423 0.0
C741 C 0.14821 0.60649 0.49555 0.0
C742 C 0.15217 0.58399 0.50966 0.0
C743 C 0.14908 0.54414 0.51263 0.0
C744 C 0.14199 0.52676 0.50153 0.0
C745 C 0.13801 0.54914 0.4874 0.0
H746 H 0.15215 0.52678 0.52356 0.0
H747 H 0.11306 0.72001 0.38064 0.0
H748 H 0.91715 0.38885 0.15249 0.0
H749 H 0.89974 0.38367 0.15815 0.0
H750 H 0.90488 0.39577 0.21482 0.0
H751 H 0.92267 0.39919 0.20919 0.0
H752 H 0.89074 0.34296 0.20991 0.0
H753 H 0.89551 0.47672 0.18849 0.0
H754 H 0.90144 0.53194 0.16905 0.0
H755 H 0.88564 0.48163 0.12463 0.0
H756 H 0.87973 0.42577 0.1437 0.0
H757 H 0.83638 0.38403 0.20664 0.0
H758 H 0.85395 0.39487 0.21272 0.0
H759 H 0.86125 0.33495 0.16331 0.0
H760 H 0.84401 0.32316 0.15731 0.0
H761 H 0.86857 0.42336 0.17108 0.0
H762 H 0.86628 0.28341 0.19368 0.0
H763 H 0.85978 0.23221 0.21459 0.0
H764 H 0.87038 0.30177 0.25913 0.0
H765 H 0.87682 0.35372 0.23845 0.0
C766 C 0.91464 0.39061 0.16622 0.0
C767 C 0.92136 0.39507 0.18037 0.0
C768 C 0.90461 0.38785 0.16943 0.0
C769 C 0.90086 0.39067 0.18688 0.0
C770 C 0.90753 0.394 0.2012 0.0
C771 C 0.9177 0.39601 0.19798 0.0
C772 C 0.88999 0.38962 0.18972 0.0
C773 C 0.88592 0.36124 0.20167 0.0
C774 C 0.88356 0.41358 0.17915 0.0
C775 C 0.88719 0.44696 0.16755 0.0
C776 C 0.89335 0.47727 0.17455 0.0
C777 C 0.89669 0.50874 0.16359 0.0
C778 C 0.89389 0.51034 0.14563 0.0
C779 C 0.88778 0.48041 0.13856 0.0
C780 C 0.88442 0.44888 0.14944 0.0
C781 C 0.84173 0.37261 0.19722 0.0
C782 C 0.83869 0.35296 0.18141 0.0
C783 C 0.85177 0.37883 0.20072 0.0
C784 C 0.85889 0.36578 0.18843 0.0
C785 C 0.85588 0.34529 0.17297 0.0
C786 C 0.84596 0.33862 0.16958 0.0
C787 C 0.86946 0.37571 0.19059 0.0
C788 C 0.87344 0.40586 0.17957 0.0
C789 C 0.87574 0.35398 0.20219 0.0
C790 C 0.8719 0.3227 0.21454 0.0
C791 C 0.86712 0.28802 0.20793 0.0
C792 C 0.86348 0.2588 0.21974 0.0
C793 C 0.86463 0.26381 0.23818 0.0
C794 C 0.86947 0.29798 0.24485 0.0
C795 C 0.87312 0.3273 0.23309 0.0
H796 H 0.86181 0.24115 0.2473 0.0
H797 H 0.89646 0.53476 0.13717 0.0
H798 H 0.92825 0.37634 0.5408 0.0
H799 H 0.91075 0.38796 0.53489 0.0
H800 H 0.90324 0.30181 0.57601 0.0
H801 H 0.92053 0.28999 0.58198 0.0
H802 H 0.89351 0.33885 0.52684 0.0
H803 H 0.88684 0.34926 0.60328 0.0
H804 H 0.89607 0.36697 0.63056 0.0
H805 H 0.91537 0.44215 0.59961 0.0
H806 H 0.9061 0.42583 0.57229 0.0
H807 H 0.84257 0.32559 0.55096 0.0
H808 H 0.86009 0.31976 0.5441 0.0
H809 H 0.86483 0.44023 0.565 0.0
H810 H 0.84748 0.44515 0.57257 0.0
H811 H 0.87663 0.39363 0.5804 0.0
H812 H 0.86836 0.41289 0.51916 0.0
H813 H 0.85958 0.40106 0.49081 0.0
H814 H 0.87049 0.27896 0.48911 0.0
H815 H 0.87923 0.28986 0.51758 0.0
C816 C 0.92287 0.3592 0.54831 0.0
C817 C 0.92583 0.33268 0.56207 0.0
C818 C 0.91287 0.36582 0.54487 0.0
C819 C 0.90569 0.34613 0.55517 0.0
C820 C 0.90865 0.31765 0.56802 0.0
C821 C 0.91857 0.31104 0.57145 0.0
C822 C 0.89519 0.35819 0.55415 0.0
C823 C 0.88979 0.35095 0.53848 0.0
C824 C 0.89039 0.37498 0.56919 0.0
C825 C 0.89583 0.38593 0.5857 0.0
C826 C 0.89301 0.36981 0.60233 0.0
C827 C 0.89825 0.37964 0.61781 0.0
C828 C 0.90631 0.40564 0.61683 0.0
C829 C 0.90912 0.42204 0.60038 0.0
C830 C 0.90388 0.41249 0.58489 0.0
C831 C 0.84732 0.35125 0.55353 0.0
C832 C 0.84368 0.38579 0.56232 0.0
C833 C 0.85735 0.34794 0.54962 0.0
C834 C 0.86387 0.3795 0.55409 0.0
C835 C 0.86003 0.41523 0.56157 0.0
C836 C 0.85009 0.41818 0.56579 0.0
C837 C 0.87474 0.3737 0.55313 0.0
C838 C 0.88026 0.38192 0.56858 0.0
C839 C 0.87963 0.35882 0.53772 0.0
C840 C 0.87438 0.3521 0.5206 0.0
C841 C 0.86882 0.38341 0.51282 0.0
C842 C 0.86387 0.37689 0.49671 0.0
C843 C 0.86446 0.33926 0.48819 0.0
C844 C 0.87003 0.30808 0.49573 0.0
C845 C 0.875 0.31443 0.51185 0.0
H846 H 0.86062 0.33427 0.47572 0.0
H847 H 0.91038 0.41311 0.62881 0.0
H848 H 0.67208 0.0926 0.80872 0.0
H849 H 0.65461 0.0858 0.80225 0.0
H850 H 0.65076 0.21444 0.81087 0.0
H851 H 0.66809 0.22023 0.81887 0.0
H852 H 0.63708 0.18309 0.82603 0.0
H853 H 0.64877 0.16054 0.76718 0.0
H854 H 0.65879 0.1311 0.74301 0.0
H855 H 0.64703 0.01304 0.75429 0.0
H856 H 0.63703 0.04166 0.77869 0.0
H857 H 0.58693 0.16792 0.79937 0.0
H858 H 0.60436 0.18079 0.79325 0.0
H859 H 0.61153 0.06078 0.81203 0.0
H860 H 0.59422 0.04833 0.81868 0.0
H861 H 0.62284 0.09418 0.77925 0.0
H862 H 0.6132 0.12318 0.84177 0.0
H863 H 0.6024 0.15781 0.86339 0.0
H864 H 0.60992 0.2731 0.84044 0.0
H865 H 0.6207 0.239 0.81856 0.0
C866 C 0.66751 0.11947 0.80889 0.0
C867 C 0.67142 0.15696 0.81418 0.0
C868 C 0.6575 0.1157 0.80507 0.0
C869 C 0.65124 0.1497 0.80573 0.0
C870 C 0.65532 0.18755 0.8103 0.0
C871 C 0.66525 0.191 0.81475 0.0
C872 C 0.64038 0.14527 0.80318 0.0
C873 C 0.63406 0.16434 0.81547 0.0
C874 C 0.63621 0.12066 0.78954 0.0
C875 C 0.64221 0.10324 0.77487 0.0
C876 C 0.64837 0.12825 0.76459 0.0
C877 C 0.65404 0.11171 0.75083 0.0
C878 C 0.65356 0.07021 0.74714 0.0
C879 C 0.6474 0.04518 0.75717 0.0
C880 C 0.64172 0.06156 0.77095 0.0
C881 C 0.59219 0.14388 0.80161 0.0
C882 C 0.58924 0.10711 0.80946 0.0
C883 C 0.60214 0.15129 0.79819 0.0
C884 C 0.60923 0.12171 0.8022 0.0
C885 C 0.60618 0.08388 0.80872 0.0
C886 C 0.5963 0.07684 0.81254 0.0
C887 C 0.61984 0.13175 0.80207 0.0
C888 C 0.62602 0.11354 0.78944 0.0
C889 C 0.6239 0.15807 0.81499 0.0
C890 C 0.61768 0.17856 0.82848 0.0
C891 C 0.61251 0.15589 0.84131 0.0
C892 C 0.60641 0.17541 0.8536 0.0
C893 C 0.60547 0.21762 0.85327 0.0
C894 C 0.61066 0.24041 0.84068 0.0
C895 C 0.61678 0.22101 0.82835 0.0
H896 H 0.60072 0.23267 0.86278 0.0
H897 H 0.65796 0.05747 0.73648 0.0
H898 H 0.67079 0.04874 0.42407 0.0
H899 H 0.65328 0.05499 0.42971 0.0
H900 H 0.65865 0.15649 0.46473 0.0
H901 H 0.6764 0.14972 0.45938 0.0
H902 H 0.64257 0.10712 0.47608 0.0
H903 H 0.65311 0.17645 0.42316 0.0
H904 H 0.66185 0.1833 0.39444 0.0
H905 H 0.64444 0.08757 0.37198 0.0
H906 H 0.63572 0.0796 0.40066 0.0
H907 H 0.59199 0.17299 0.46057 0.0
H908 H 0.60975 0.16761 0.46614 0.0
H909 H 0.61174 0.07368 0.42608 0.0
H910 H 0.59423 0.08015 0.42019 0.0
H911 H 0.62453 0.12952 0.41934 0.0
H912 H 0.61468 0.05721 0.47291 0.0
H913 H 0.60611 0.04968 0.50176 0.0
H914 H 0.62192 0.15153 0.52293 0.0
H915 H 0.6305 0.15998 0.49412 0.0
C916 C 0.66829 0.07187 0.4333 0.0
C917 C 0.67498 0.09901 0.44113 0.0
C918 C 0.65826 0.07545 0.43649 0.0
C919 C 0.65461 0.10678 0.44733 0.0
C920 C 0.66129 0.13219 0.45626 0.0
C921 C 0.67142 0.12826 0.45322 0.0
C922 C 0.64386 0.11496 0.44759 0.0
C923 C 0.63861 0.1126 0.46373 0.0
C924 C 0.63868 0.12204 0.43149 0.0
C925 C 0.6438 0.12727 0.41411 0.0
C926 C 0.65118 0.1567 0.41213 0.0
C927 C 0.65613 0.1608 0.39586 0.0
C928 C 0.65371 0.13588 0.38141 0.0
C929 C 0.64631 0.10685 0.38319 0.0
C930 C 0.64136 0.10255 0.39944 0.0
C931 C 0.59623 0.15055 0.45336 0.0
C932 C 0.59178 0.12682 0.44002 0.0
C933 C 0.60637 0.14749 0.4565 0.0
C934 C 0.61215 0.12026 0.4465 0.0
C935 C 0.60751 0.09513 0.43389 0.0
C936 C 0.59749 0.09862 0.4306 0.0
C937 C 0.62308 0.11983 0.44772 0.0
C938 C 0.62842 0.12418 0.43177 0.0
C939 C 0.62828 0.11468 0.46399 0.0
C940 C 0.62315 0.1095 0.4813 0.0
C941 C 0.61627 0.0782 0.48367 0.0
C942 C 0.61142 0.07373 0.50003 0.0
C943 C 0.61345 0.10019 0.51415 0.0
C944 C 0.62034 0.1311 0.51197 0.0
C945 C 0.62521 0.13573 0.49564 0.0
H946 H 0.60968 0.09668 0.5268 0.0
H947 H 0.65755 0.1391 0.36883 0.0
H948 H 0.34356 0.80569 0.16989 0.0
H949 H 0.36108 0.81258 0.17504 0.0
H950 H 0.35577 0.91498 0.20962 0.0
H951 H 0.33802 0.90754 0.20474 0.0
H952 H 0.3716 0.87285 0.16441 0.0
H953 H 0.37624 0.92687 0.23764 0.0
H954 H 0.36841 0.91725 0.26708 0.0
H955 H 0.35753 0.80104 0.25038 0.0
H956 H 0.3654 0.80972 0.22095 0.0
H957 H 0.41792 0.95735 0.17058 0.0
H958 H 0.40044 0.94983 0.17642 0.0
H959 H 0.40614 0.84183 0.20725 0.0
H960 H 0.42379 0.84985 0.20182 0.0
H961 H 0.39035 0.88469 0.22101 0.0
H962 H 0.40048 0.83297 0.16383 0.0
H963 H 0.40872 0.83652 0.13452 0.0
H964 H 0.39014 0.93565 0.11911 0.0
H965 H 0.38188 0.93306 0.14845 0.0
C966 C 0.34608 0.82928 0.17887 0.0
C967 C 0.33938 0.85629 0.18678 0.0
C968 C 0.35613 0.83325 0.18177 0.0
C969 C 0.35982 0.86452 0.19258 0.0
C970 C 0.35313 0.89037 0.20132 0.0
C971 C 0.34298 0.88611 0.19854 0.0
C972 C 0.37064 0.87178 0.19319 0.0
C973 C 0.37565 0.87545 0.17685 0.0
C974 C 0.37604 0.87485 0.20933 0.0
C975 C 0.37132 0.8692 0.22702 0.0
C976 C 0.3722 0.89923 0.24027 0.0
C977 C 0.36775 0.89394 0.25695 0.0
C978 C 0.36245 0.85863 0.26057 0.0
C979 C 0.3616 0.82847 0.24754 0.0
C980 C 0.36604 0.83359 0.23084 0.0
C981 C 0.4155 0.93239 0.17891 0.0
C982 C 0.42226 0.90387 0.18553 0.0
C983 C 0.40548 0.92812 0.18223 0.0
C984 C 0.40192 0.89476 0.19195 0.0
C985 C 0.40869 0.86775 0.19966 0.0
C986 C 0.41878 0.87234 0.19653 0.0
C987 C 0.39118 0.88601 0.19226 0.0
C988 C 0.38623 0.88218 0.20866 0.0
C989 C 0.3858 0.88189 0.17616 0.0
C990 C 0.39062 0.88304 0.15839 0.0
C991 C 0.39819 0.85566 0.15422 0.0
C992 C 0.40286 0.85749 0.1376 0.0
C993 C 0.39997 0.88635 0.12497 0.0
C994 C 0.39238 0.91334 0.12891 0.0
C995 C 0.38769 0.91168 0.14553 0.0
H996 H 0.4036 0.88776 0.11212 0.0
H997 H 0.35901 0.8546 0.2735 0.0
H998 H 0.34523 0.92199 0.59107 0.0
H999 H 0.36248 0.91992 0.58348 0.0
H1000 H 0.35569 0.86063 0.5336 0.0
H1001 H 0.33813 0.86215 0.54129 0.0
H1002 H 0.37118 0.82372 0.55118 0.0
H1003 H 0.36352 0.9574 0.53266 0.0
H1004 H 0.35614 0.02552 0.5346 0.0
H1005 H 0.37352 0.05174 0.58105 0.0
H1006 H 0.38089 0.98356 0.57956 0.0
H1007 H 0.42418 0.84663 0.5404 0.0
H1008 H 0.40666 0.85401 0.53281 0.0
H1009 H 0.4011 0.90319 0.58527 0.0
H1010 H 0.41834 0.89518 0.59296 0.0
H1011 H 0.39187 0.94676 0.55708 0.0
H1012 H 0.39645 0.80828 0.57868 0.0
H1013 H 0.40373 0.73987 0.5773 0.0
H1014 H 0.39216 0.72359 0.52438 0.0
H1015 H 0.38492 0.79222 0.52537 0.0
C1016 C 0.34732 0.90866 0.57839 0.0
C1017 C 0.34022 0.89218 0.56681 0.0
C1018 C 0.35724 0.90773 0.57401 0.0
C1019 C 0.36043 0.89055 0.55787 0.0
C1020 C 0.35341 0.87423 0.54611 0.0
C1021 C 0.34337 0.87533 0.55047 0.0
C1022 C 0.37115 0.88879 0.554 0.0
C1023 C 0.37569 0.85078 0.55194 0.0
C1024 C 0.37709 0.92397 0.55512 0.0
C1025 C 0.37274 0.96524 0.55601 0.0
C1026 C 0.36573 0.97759 0.54335 0.0
C1027 C 0.36155 0.01624 0.54436 0.0
C1028 C 0.36435 0.04293 0.55794 0.0
C1029 C 0.37136 0.03105 0.57052 0.0
C1030 C 0.37555 0.99242 0.56958 0.0
C1031 C 0.41921 0.85943 0.55018 0.0
C1032 C 0.42261 0.87014 0.5673 0.0
C1033 C 0.40922 0.86347 0.54587 0.0
C1034 C 0.40256 0.87908 0.55851 0.0
C1035 C 0.40607 0.89116 0.5753 0.0
C1036 C 0.41594 0.88639 0.5797 0.0
C1037 C 0.39185 0.88172 0.55491 0.0
C1038 C 0.38734 0.91991 0.55568 0.0
C1039 C 0.38596 0.84678 0.55255 0.0
C1040 C 0.39027 0.80555 0.55199 0.0
C1041 C 0.39554 0.79026 0.56668 0.0
C1042 C 0.39964 0.75142 0.56599 0.0
C1043 C 0.39844 0.72746 0.55073 0.0
C1044 C 0.3931 0.74224 0.53617 0.0
C1045 C 0.389 0.78109 0.53679 0.0
H1046 H 0.40162 0.69739 0.55023 0.0
H1047 H 0.3611 0.07283 0.55871 0.0
H1048 H 0.66729 0.71272 0.30828 0.0
H1049 H 0.64975 0.70647 0.30194 0.0
H1050 H 0.65293 0.57643 0.2982 0.0
H1051 H 0.67059 0.58323 0.30303 0.0
H1052 H 0.63877 0.59496 0.27818 0.0
H1053 H 0.64645 0.63093 0.33892 0.0
H1054 H 0.6539 0.67268 0.36268 0.0
H1055 H 0.63673 0.77509 0.34606 0.0
H1056 H 0.62926 0.73404 0.32205 0.0
H1057 H 0.59352 0.5456 0.32673 0.0
H1058 H 0.61069 0.55744 0.3187 0.0
H1059 H 0.60248 0.66701 0.29109 0.0
H1060 H 0.5852 0.65465 0.29857 0.0
H1061 H 0.61846 0.66309 0.32428 0.0
H1062 H 0.60966 0.61793 0.2645 0.0
H1063 H 0.60236 0.56964 0.24314 0.0
H1064 H 0.62177 0.47615 0.26167 0.0
H1065 H 0.62908 0.52378 0.28336 0.0
C1066 C 0.66427 0.68303 0.30539 0.0
C1067 C 0.67028 0.64848 0.30602 0.0
C1068 C 0.65422 0.67932 0.30205 0.0
C1069 C 0.64987 0.64078 0.30027 0.0
C1070 C 0.65602 0.60653 0.29963 0.0
C1071 C 0.66614 0.6104 0.30233 0.0
C1072 C 0.63896 0.63577 0.30074 0.0
C1073 C 0.63438 0.6099 0.28831 0.0
C1074 C 0.63307 0.65509 0.31391 0.0
C1075 C 0.63738 0.67955 0.32859 0.0
C1076 C 0.64429 0.66239 0.34031 0.0
C1077 C 0.64852 0.68593 0.35381 0.0
C1078 C 0.64582 0.72655 0.35584 0.0
C1079 C 0.63883 0.74365 0.34444 0.0
C1080 C 0.63459 0.72026 0.33089 0.0
C1081 C 0.59534 0.57173 0.3186 0.0
C1082 C 0.58799 0.59914 0.31325 0.0
C1083 C 0.60515 0.57844 0.31402 0.0
C1084 C 0.60785 0.61304 0.30429 0.0
C1085 C 0.60053 0.63996 0.29851 0.0
C1086 C 0.59066 0.63276 0.30272 0.0
C1087 C 0.61839 0.62268 0.30172 0.0
C1088 C 0.62288 0.64894 0.31396 0.0
C1089 C 0.6242 0.60291 0.28873 0.0
C1090 C 0.61983 0.57429 0.2757 0.0
C1091 C 0.61229 0.58696 0.26417 0.0
C1092 C 0.60817 0.55974 0.25196 0.0
C1093 C 0.61158 0.51981 0.25109 0.0
C1094 C 0.61913 0.50707 0.26239 0.0
C1095 C 0.62326 0.53417 0.27463 0.0
H1096 H 0.60838 0.49879 0.24162 0.0
H1097 H 0.64912 0.74475 0.36627 0.0
H1098 H 0.67123 0.66656 0.95166 0.0
H1099 H 0.65353 0.67292 0.957 0.0
H1100 H 0.64881 0.55787 0.93084 0.0
H1101 H 0.66632 0.55239 0.92492 0.0
H1102 H 0.63739 0.60897 0.91682 0.0
H1103 H 0.64498 0.57476 0.97738 0.0
H1104 H 0.65343 0.58062 0.00642 0.0
H1105 H 0.64213 0.70128 0.01297 0.0
H1106 H 0.63372 0.69635 0.98385 0.0
H1107 H 0.58557 0.60748 0.95698 0.0
H1108 H 0.60322 0.59881 0.96235 0.0
H1109 H 0.60941 0.69301 0.924 0.0
H1110 H 0.59196 0.70159 0.91848 0.0
H1111 H 0.61963 0.64748 0.97216 0.0
H1112 H 0.62688 0.6589 0.89612 0.0
H1113 H 0.61817 0.64682 0.86769 0.0
H1114 H 0.5997 0.55909 0.89348 0.0
H1115 H 0.6084 0.57019 0.92197 0.0
C1116 C 0.66641 0.64226 0.94745 0.0
C1117 C 0.67014 0.60913 0.93776 0.0
C1118 C 0.65629 0.64585 0.95052 0.0
C1119 C 0.64975 0.61593 0.94427 0.0
C1120 C 0.65362 0.58164 0.93563 0.0
C1121 C 0.66365 0.57843 0.93231 0.0
C1122 C 0.63888 0.62179 0.94498 0.0
C1123 C 0.63357 0.61725 0.92901 0.0
C1124 C 0.63376 0.63225 0.96083 0.0
C1125 C 0.63879 0.63531 0.97835 0.0
C1126 C 0.64436 0.60267 0.98494 0.0
C1127 C 0.64913 0.6058 0.00143 0.0
C1128 C 0.64834 0.64134 0.01151 0.0
C1129 C 0.64275 0.67379 0.00514 0.0
C1130 C 0.63797 0.67082 0.98865 0.0
C1131 C 0.59069 0.62693 0.94999 0.0
C1132 C 0.58733 0.65478 0.93708 0.0
C1133 C 0.60078 0.62198 0.95309 0.0
C1134 C 0.60766 0.6448 0.94336 0.0
C1135 C 0.60427 0.67462 0.93148 0.0
C1136 C 0.59425 0.67943 0.92832 0.0
C1137 C 0.61832 0.63501 0.94401 0.0
C1138 C 0.62354 0.639 0.9601 0.0
C1139 C 0.6234 0.62309 0.92837 0.0
C1140 C 0.61823 0.6157 0.91121 0.0
C1141 C 0.62099 0.63691 0.89569 0.0
C1142 C 0.61605 0.63024 0.87958 0.0
C1143 C 0.60837 0.6023 0.8788 0.0
C1144 C 0.60563 0.58083 0.89411 0.0
C1145 C 0.61056 0.58733 0.91025 0.0
H1146 H 0.60455 0.59723 0.86631 0.0
H1147 H 0.65204 0.64371 0.02427 0.0
H1148 H 0.34319 0.29094 0.6859 0.0
H1149 H 0.36049 0.30298 0.69288 0.0
H1150 H 0.35338 0.42277 0.7119 0.0
H1151 H 0.33597 0.41042 0.70552 0.0
H1152 H 0.36814 0.409 0.67988 0.0
H1153 H 0.36099 0.37537 0.74146 0.0
H1154 H 0.35447 0.33171 0.76544 0.0
H1155 H 0.37399 0.23602 0.74969 0.0
H1156 H 0.38052 0.27891 0.72542 0.0
H1157 H 0.41725 0.46326 0.68965 0.0
H1158 H 0.39983 0.45694 0.69683 0.0
H1159 H 0.40373 0.32863 0.706 0.0
H1160 H 0.42131 0.33583 0.70023 0.0
H1161 H 0.38999 0.35025 0.72614 0.0
H1162 H 0.39581 0.37335 0.66384 0.0
H1163 H 0.40214 0.4089 0.63721 0.0
H1164 H 0.385 0.51388 0.6505 0.0
H1165 H 0.37866 0.47909 0.67735 0.0
C1166 C 0.34527 0.31937 0.6921 0.0
C1167 C 0.33821 0.34967 0.69524 0.0
C1168 C 0.35516 0.32621 0.69606 0.0
C1169 C 0.35821 0.36375 0.7029 0.0
C1170 C 0.35115 0.39349 0.70674 0.0
C1171 C 0.34121 0.3863 0.70319 0.0
C1172 C 0.36884 0.37335 0.70391 0.0
C1173 C 0.37291 0.39695 0.69021 0.0
C1174 C 0.37509 0.35603 0.71691 0.0
C1175 C 0.37117 0.33023 0.7315 0.0
C1176 C 0.36382 0.34487 0.74298 0.0
C1177 C 0.36014 0.3203 0.75666 0.0
C1178 C 0.36379 0.28107 0.75905 0.0
C1179 C 0.37115 0.26639 0.7478 0.0
C1180 C 0.37486 0.29084 0.7341 0.0
C1181 C 0.41442 0.43402 0.69377 0.0
C1182 C 0.42061 0.40007 0.69446 0.0
C1183 C 0.40442 0.43023 0.69763 0.0
C1184 C 0.4003 0.39197 0.70133 0.0
C1185 C 0.40663 0.35848 0.70309 0.0
C1186 C 0.41671 0.36259 0.69983 0.0
C1187 C 0.3894 0.3863 0.70208 0.0
C1188 C 0.38526 0.36302 0.71594 0.0
C1189 C 0.38308 0.40284 0.68885 0.0
C1190 C 0.38686 0.4238 0.6727 0.0
C1191 C 0.39344 0.40411 0.66113 0.0
C1192 C 0.39703 0.42411 0.646 0.0
C1193 C 0.394 0.46367 0.64219 0.0
C1194 C 0.38735 0.48327 0.65349 0.0
C1195 C 0.38376 0.46343 0.66866 0.0
H1196 H 0.39678 0.47911 0.63047 0.0
H1197 H 0.36093 0.2621 0.76965 0.0
H1198 H 0.3442 0.448 0.07787 0.0
H1199 H 0.36122 0.44569 0.06868 0.0
H1200 H 0.35419 0.35589 0.02871 0.0
H1201 H 0.33695 0.35742 0.03827 0.0
H1202 H 0.36944 0.33162 0.04739 0.0
H1203 H 0.36246 0.45223 0.01645 0.0
H1204 H 0.35556 0.52012 0.01079 0.0
H1205 H 0.37319 0.56974 0.05301 0.0
H1206 H 0.38009 0.50205 0.05913 0.0
H1207 H 0.42261 0.34459 0.0371 0.0
H1208 H 0.40539 0.35173 0.02751 0.0
H1209 H 0.39908 0.41967 0.07542 0.0
H1210 H 0.41602 0.41169 0.0852 0.0
H1211 H 0.3908 0.45281 0.04223 0.0
H1212 H 0.39405 0.32595 0.07643 0.0
H1213 H 0.40092 0.25758 0.08114 0.0
H1214 H 0.39026 0.22028 0.02966 0.0
H1215 H 0.38344 0.2887 0.02456 0.0
C1216 C 0.34619 0.42821 0.06689 0.0
C1217 C 0.33919 0.40271 0.05888 0.0
C1218 C 0.35597 0.42717 0.06152 0.0
C1219 C 0.35905 0.40091 0.04785 0.0
C1220 C 0.35201 0.37654 0.03925 0.0
C1221 C 0.34214 0.37764 0.04463 0.0
C1222 C 0.36975 0.39662 0.04409 0.0
C1223 C 0.37407 0.35808 0.04569 0.0
C1224 C 0.37588 0.43097 0.04187 0.0
C1225 C 0.37178 0.47192 0.03828 0.0
C1226 C 0.36482 0.47755 0.02461 0.0
C1227 C 0.36092 0.51603 0.02131 0.0
C1228 C 0.36393 0.54922 0.03154 0.0
C1229 C 0.37087 0.544 0.04509 0.0
C1230 C 0.3748 0.50558 0.04845 0.0
C1231 C 0.41755 0.36145 0.04541 0.0
C1232 C 0.42063 0.37741 0.06193 0.0
C1233 C 0.40773 0.36543 0.03996 0.0
C1234 C 0.40096 0.38627 0.05077 0.0
C1235 C 0.40417 0.40364 0.06685 0.0
C1236 C 0.41385 0.39887 0.07246 0.0
C1237 C 0.39037 0.38828 0.04628 0.0
C1238 C 0.3861 0.42637 0.04323 0.0
C1239 C 0.3843 0.35355 0.04689 0.0
C1240 C 0.38836 0.31251 0.05001 0.0
C1241 C 0.39325 0.30327 0.06605 0.0
C1242 C 0.39712 0.26451 0.0688 0.0
C1243 C 0.39606 0.23465 0.05568 0.0
C1244 C 0.3911 0.24347 0.03979 0.0
C1245 C 0.38723 0.28222 0.03697 0.0
H1246 H 0.39906 0.20465 0.05784 0.0
H1247 H 0.36089 0.57898 0.02897 0.0
H1248 H 0.02426 0.13721 0.30307 0.0
H1249 H 0.01063 0.1735 0.28921 0.0
H1250 H 0.03078 0.23386 0.25365 0.0
H1251 H 0.04451 0.19768 0.2676 0.0
H1252 H 0.01774 0.2869 0.26803 0.0
H1253 H 0.01595 0.15753 0.2387 0.0
H1254 H 0.01498 0.08293 0.23703 0.0
H1255 H 0.98777 0.08503 0.26581 0.0
H1256 H 0.98865 0.15965 0.26786 0.0
H1257 H 0.98465 0.36577 0.20469 0.0
H1258 H 0.9974 0.32953 0.2208 0.0
H1259 H 0.9755 0.27035 0.25315 0.0
H1260 H 0.96254 0.30637 0.23666 0.0
H1261 H 0.98894 0.21667 0.24196 0.0
H1262 H 0.99032 0.34592 0.27047 0.0
H1263 H 0.99123 0.4205 0.27235 0.0
H1264 H 0.01909 0.41883 0.24572 0.0
H1265 H 0.01829 0.34426 0.24345 0.0
C1266 C 0.02581 0.158 0.29222 0.0
C1267 C 0.0355 0.1644 0.28641 0.0
C1268 C 0.01798 0.17867 0.28425 0.0
C1269 C 0.01963 0.20624 0.27025 0.0
C1270 C 0.0293 0.21272 0.26441 0.0
C1271 C 0.03715 0.19187 0.27234 0.0
C1272 C 0.01129 0.22893 0.26202 0.0
C1273 C 0.01151 0.27151 0.26212 0.0
C1274 C 1.00297 0.209 0.25483 0.0
C1275 C 1.00242 0.16415 0.25359 0.0
C1276 C 0.0098 0.14206 0.2448 0.0
C1277 C 0.00926 0.09978 0.24376 0.0
C1278 C 1.00133 0.07925 0.25135 0.0
C1279 C 0.99391 0.10097 0.25996 0.0
C1280 C 0.99443 0.14326 0.26105 0.0
C1281 C 0.98249 0.34537 0.21534 0.0
C1282 C 0.97253 0.33918 0.21941 0.0
C1283 C 0.98984 0.32471 0.22463 0.0
C1284 C 0.98747 0.29748 0.2384 0.0
C1285 C 0.97753 0.29131 0.24263 0.0
C1286 C 0.97013 0.31208 0.23327 0.0
C1287 C 0.99543 0.27471 0.24781 0.0
C1288 C 0.99515 0.2321 0.24796 0.0
C1289 C 1.00368 0.29462 0.25529 0.0
C1290 C 1.0042 0.33949 0.25666 0.0
C1291 C 0.99661 0.36147 0.26489 0.0
C1292 C 0.99711 0.40375 0.26605 0.0
C1293 C 0.0052 0.4244 0.25912 0.0
C1294 C 0.01282 0.4028 0.25106 0.0
C1295 C 0.01235 0.36052 0.24986 0.0
H1296 H 0.00558 0.45713 0.26003 0.0
H1297 H 1.00092 0.04651 0.25053 0.0
H1298 H 0.23487 0.09943 0.3073 0.0
H1299 H 0.24826 0.06274 0.29297 0.0
H1300 H 0.22833 0.01823 0.25275 0.0
H1301 H 0.2148 0.05466 0.26724 0.0
H1302 H 0.24003 0.95825 0.26466 0.0
H1303 H 0.245 0.09411 0.24348 0.0
H1304 H 0.24725 0.16808 0.24614 0.0
H1305 H 0.27321 0.14941 0.2775 0.0
H1306 H 0.27104 0.07528 0.27522 0.0
H1307 H 0.27528 0.88643 0.20273 0.0
H1308 H 0.2621 0.9213 0.2184 0.0
H1309 H 0.28284 0.96776 0.25678 0.0
H1310 H 0.2962 0.93344 0.24078 0.0
H1311 H 0.27086 0.02641 0.2465 0.0
H1312 H 0.26611 0.89061 0.26733 0.0
H1313 H 0.26392 0.8166 0.26465 0.0
H1314 H 0.23763 0.83491 0.23417 0.0
H1315 H 0.23973 0.90905 0.23647 0.0
C1316 C 0.23331 0.08206 0.29534 0.0
C1317 C 0.22374 0.08021 0.28838 0.0
C1318 C 0.24102 0.06114 0.2871 0.0
C1319 C 0.23938 0.03798 0.27162 0.0
C1320 C 0.22981 0.03593 0.26466 0.0
C1321 C 0.22208 0.05693 0.27291 0.0
C1322 C 0.24761 0.01536 0.26295 0.0
C1323 C 0.24671 0.97329 0.26046 0.0
C1324 C 0.25649 0.03459 0.25793 0.0
C1325 C 0.2578 0.07914 0.25933 0.0
C1326 C 0.25114 0.10577 0.25107 0.0
C1327 C 0.25241 0.14773 0.25248 0.0
C1328 C 0.26036 0.16343 0.26202 0.0
C1329 C 0.26706 0.1372 0.27013 0.0
C1330 C 0.26582 0.09522 0.26877 0.0
C1331 C 0.27706 0.90366 0.21462 0.0
C1332 C 0.28683 0.9069 0.22053 0.0
C1333 C 0.26947 0.92355 0.22364 0.0
C1334 C 0.27139 0.94688 0.23897 0.0
C1335 C 0.28113 0.94989 0.24503 0.0
C1336 C 0.28877 0.93005 0.23593 0.0
C1337 C 0.26328 0.96926 0.24815 0.0
C1338 C 0.26419 0.01131 0.25074 0.0
C1339 C 0.25442 0.94998 0.2533 0.0
C1340 C 0.25313 0.9054 0.25194 0.0
C1341 C 0.2599 0.87886 0.25995 0.0
C1342 C 0.25867 0.83688 0.25852 0.0
C1343 C 0.25066 0.82106 0.24922 0.0
C1344 C 0.24384 0.8472 0.24136 0.0
C1345 C 0.24504 0.8892 0.24274 0.0
H1346 H 0.24972 0.78856 0.24812 0.0
H1347 H 0.26133 0.19593 0.26309 0.0
H1348 H 0.02561 0.08834 0.94302 0.0
H1349 H 0.01246 0.05275 0.95849 0.0
H1350 H 0.03205 0.02547 0.00212 0.0
H1351 H 0.0454 0.0604 0.98637 0.0
H1352 H 0.02152 0.96052 0.99419 0.0
H1353 H 0.01374 0.10012 0.0052 0.0
H1354 H 0.01051 0.17147 0.99722 0.0
H1355 H 0.98605 0.13469 0.96498 0.0
H1356 H 0.98921 0.06305 0.97258 0.0
H1357 H 0.98436 0.89531 0.05431 0.0
H1358 H 0.9978 0.93026 0.03932 0.0
H1359 H 0.97858 0.96092 0.99555 0.0
H1360 H 0.96498 0.92687 0.01083 0.0
H1361 H 0.98907 0.02444 0.004 0.0
H1362 H 0.99694 0.88476 0.99275 0.0
H1363 H 1.00017 0.81339 0.0007 0.0
H1364 H 0.02446 0.85026 0.03336 0.0
H1365 H 0.02129 0.92191 0.02579 0.0
C1366 C 0.02714 0.07504 0.95596 0.0
C1367 C 0.03657 0.07752 0.96349 0.0
C1368 C 0.01957 0.05475 0.96486 0.0
C1369 C 0.02116 0.03683 0.98167 0.0
C1370 C 0.03059 0.03911 0.98921 0.0
C1371 C 0.03822 0.05925 0.98023 0.0
C1372 C 0.01302 0.0151 0.9911 0.0
C1373 C 0.01448 0.97476 0.99657 0.0
C1374 C 1.00371 0.0331 0.99386 0.0
C1375 C 1.00176 0.07618 0.98934 0.0
C1376 C 0.00771 0.10722 0.99631 0.0
C1377 C 0.00589 0.14772 0.99187 0.0
C1378 C 0.9981 0.1576 0.98057 0.0
C1379 C 0.99209 0.127 0.97372 0.0
C1380 C 0.99389 0.08644 0.9781 0.0
C1381 C 0.98299 0.90917 0.04141 0.0
C1382 C 0.97357 0.90804 0.03374 0.0
C1383 C 0.99072 0.92908 0.03279 0.0
C1384 C 0.98931 0.94788 0.0161 0.0
C1385 C 0.97991 0.94665 0.00837 0.0
C1386 C 0.97213 0.92699 0.01709 0.0
C1387 C 0.99754 0.96977 0.00702 0.0
C1388 C 0.99611 0.01017 0.00162 0.0
C1389 C 0.00687 0.95181 0.00433 0.0
C1390 C 0.00882 0.90873 0.00882 0.0
C1391 C 1.00293 0.87767 0.00172 0.0
C1392 C 1.00476 0.83716 0.00615 0.0
C1393 C 0.0125 0.82731 0.01756 0.0
C1394 C 0.01846 0.85794 0.02454 0.0
C1395 C 0.01665 0.8985 0.02017 0.0
H1396 H 0.01391 0.79593 0.02097 0.0
H1397 H 0.9967 0.18897 0.97714 0.0
H1398 H 0.21476 0.18119 0.98801 0.0
H1399 H 0.22798 0.21716 0.00356 0.0
H1400 H 0.24835 0.17992 0.96261 0.0
H1401 H 0.23529 0.14311 0.9474 0.0
H1402 H 0.257 0.17453 0.99352 0.0
H1403 H 0.23783 0.27787 0.96429 0.0
H1404 H 0.22273 0.31559 0.95713 0.0
H1405 H 0.21931 0.34742 0.01248 0.0
H1406 H 0.23433 0.30945 0.01999 0.0
H1407 H 0.29514 0.31595 0.01214 0.0
H1408 H 0.28175 0.27961 0.99724 0.0
H1409 H 0.26215 0.31287 0.04004 0.0
H1410 H 0.2754 0.3496 0.05479 0.0
H1411 H 0.25309 0.32012 0.00867 0.0
H1412 H 0.27259 0.21759 0.03767 0.0
H1413 H 0.2879 0.18089 0.04443 0.0
H1414 H 0.29085 0.14824 0.9891 0.0
H1415 H 0.27562 0.18516 0.98196 0.0
C1416 C 0.22207 0.18045 0.9824 0.0
C1417 C 0.22394 0.15933 0.96643 0.0
C1418 C 0.22963 0.20126 0.99124 0.0
C1419 C 0.23919 0.20193 0.98414 0.0
C1420 C 0.24108 0.18003 0.96841 0.0
C1421 C 0.23357 0.159 0.95968 0.0
C1422 C 0.24721 0.22581 0.99282 0.0
C1423 C 0.25616 0.20648 0.99664 0.0
C1424 C 0.24614 0.2674 0.99724 0.0
C1425 C 0.23715 0.2905 0.99272 0.0
C1426 C 0.23382 0.2927 0.97495 0.0
C1427 C 0.22528 0.31415 0.97082 0.0
C1428 C 0.22005 0.3338 0.98435 0.0
C1429 C 0.22336 0.33214 0.00202 0.0
C1430 C 0.23189 0.31069 0.00621 0.0
C1431 C 0.28795 0.31585 0.01828 0.0
C1432 C 0.28636 0.33566 0.03468 0.0
C1433 C 0.28031 0.29481 0.00981 0.0
C1434 C 0.27094 0.29293 0.01762 0.0
C1435 C 0.26929 0.31373 0.03372 0.0
C1436 C 0.2769 0.33472 0.04217 0.0
C1437 C 0.26287 0.26887 0.00927 0.0
C1438 C 0.25392 0.28816 0.00555 0.0
C1439 C 0.26395 0.22728 0.0049 0.0
C1440 C 0.27301 0.20447 0.00925 0.0
C1441 C 0.27653 0.20277 0.02693 0.0
C1442 C 0.28519 0.1819 0.03083 0.0
C1443 C 0.29036 0.16238 0.01719 0.0
C1444 C 0.28684 0.16345 0.99964 0.0
C1445 C 0.2782 0.18429 0.99566 0.0
H1446 H 0.29708 0.1464 0.02019 0.0
H1447 H 0.21344 0.35038 0.98113 0.0
H1448 H 0.9821 0.8509 0.69684 0.0
H1449 H 0.99529 0.81451 0.71187 0.0
H1450 H 0.97478 0.76793 0.75055 0.0
H1451 H 0.9614 0.8044 0.73543 0.0
H1452 H 0.99371 0.79042 0.76566 0.0
H1453 H 0.98031 0.70582 0.7203 0.0
H1454 H 0.97364 0.69405 0.69021 0.0
H1455 H 1.00151 0.72374 0.66699 0.0
H1456 H 0.00833 0.7362 0.69713 0.0
H1457 H 0.02168 0.62365 0.79505 0.0
H1458 H 0.00843 0.6605 0.78037 0.0
H1459 H 0.02899 0.71135 0.74282 0.0
H1460 H 0.0424 0.67451 0.75757 0.0
H1461 H 0.00997 0.6868 0.72756 0.0
H1462 H 0.02333 0.76744 0.77581 0.0
H1463 H 0.02904 0.77298 0.80701 0.0
H1464 H 1.00011 0.74539 0.82592 0.0
H1465 H 0.99426 0.73878 0.79481 0.0
C1466 C 0.98036 0.83341 0.70869 0.0
C1467 C 0.97064 0.83042 0.71484 0.0
C1468 C 0.98795 0.81259 0.71728 0.0
C1469 C 0.98604 0.78823 0.73229 0.0
C1470 C 0.97643 0.78663 0.73903 0.0
C1471 C 0.96879 0.80737 0.73033 0.0
C1472 C 0.99396 0.76189 0.73974 0.0
C1473 C 0.9972 0.76757 0.75739 0.0
C1474 C 0.99858 0.7321 0.72898 0.0
C1475 C 0.99479 0.7223 0.71092 0.0
C1476 C 0.98502 0.70987 0.70877 0.0
C1477 C 0.98121 0.70312 0.69171 0.0
C1478 C 0.98712 0.7084 0.67666 0.0
C1479 C 0.99693 0.7198 0.67867 0.0
C1480 C 1.00078 0.72664 0.69576 0.0
C1481 C 0.0234 0.64209 0.78348 0.0
C1482 C 0.03314 0.64626 0.77756 0.0
C1483 C 0.01579 0.66323 0.77512 0.0
C1484 C 0.01772 0.68907 0.76062 0.0
C1485 C 0.02733 0.69161 0.754 0.0
C1486 C 0.035 0.67055 0.76245 0.0
C1487 C 0.0098 0.71558 0.75341 0.0
C1488 C 0.00654 0.70987 0.7358 0.0
C1489 C 1.00509 0.74492 0.76432 0.0
C1490 C 0.00837 0.75226 0.78298 0.0
C1491 C 0.01818 0.76248 0.78663 0.0
C1492 C 0.02146 0.76557 0.80429 0.0
C1493 C 0.01496 0.75909 0.81843 0.0
C1494 C 0.00514 0.75013 0.81494 0.0
C1495 C 1.00184 0.74675 0.79729 0.0
H1496 H 0.01752 0.76143 0.8321 0.0
H1497 H 0.98409 0.70375 0.66346 0.0
H1498 H 0.73522 0.12881 0.79737 0.0
H1499 H 0.74835 0.08865 0.78388 0.0
H1500 H 0.7269 0.01039 0.75935 0.0
H1501 H 0.71369 0.05083 0.7727 0.0
H1502 H 0.74152 0.9681 0.77768 0.0
H1503 H 0.73942 0.07348 0.73362 0.0
H1504 H 0.73914 0.14377 0.72237 0.0
H1505 H 0.76794 0.16399 0.74369 0.0
H1506 H 0.76835 0.0939 0.75523 0.0
H1507 H 0.77256 0.8625 0.7164 0.0
H1508 H 0.75994 0.90132 0.73205 0.0
H1509 H 0.78214 0.98012 0.75388 0.0
H1510 H 0.79484 0.94106 0.7383 0.0
H1511 H 0.7674 0.02268 0.73783 0.0
H1512 H 0.76997 0.9167 0.78061 0.0
H1513 H 0.77026 0.84719 0.79272 0.0
H1514 H 0.74068 0.82846 0.77506 0.0
H1515 H 0.74027 0.89759 0.76249 0.0
C1516 C 0.73328 0.1034 0.7889 0.0
C1517 C 0.7234 0.09309 0.78606 0.0
C1518 C 0.7408 0.08048 0.78117 0.0
C1519 C 0.73862 0.04653 0.77056 0.0
C1520 C 0.72876 0.03649 0.76748 0.0
C1521 C 0.72121 0.05976 0.77502 0.0
C1522 C 0.74665 0.02059 0.76339 0.0
C1523 C 0.7471 0.9798 0.76873 0.0
C1524 C 0.75413 0.03628 0.75224 0.0
C1525 C 0.75387 0.07857 0.74548 0.0
C1526 C 0.74565 0.09303 0.73607 0.0
C1527 C 0.74549 0.13281 0.72959 0.0
C1528 C 0.7535 0.15838 0.73236 0.0
C1529 C 0.76172 0.14419 0.7416 0.0
C1530 C 0.76193 0.10442 0.74808 0.0
C1531 C 0.77479 0.88758 0.72483 0.0
C1532 C 0.78472 0.89863 0.72613 0.0
C1533 C 0.76755 0.90975 0.7338 0.0
C1534 C 0.77007 0.94368 0.74418 0.0
C1535 C 0.78001 0.95405 0.74596 0.0
C1536 C 0.78728 0.93152 0.73715 0.0
C1537 C 0.76226 0.96991 0.75199 0.0
C1538 C 0.76184 0.01084 0.74679 0.0
C1539 C 0.75483 0.95432 0.76332 0.0
C1540 C 0.75515 0.91223 0.77037 0.0
C1541 C 0.76358 0.89759 0.77906 0.0
C1542 C 0.76375 0.85827 0.78606 0.0
C1543 C 0.75551 0.83337 0.7846 0.0
C1544 C 0.74708 0.84774 0.77613 0.0
C1545 C 0.74687 0.88698 0.76905 0.0
H1546 H 0.75565 0.80298 0.79007 0.0
H1547 H 0.75337 0.18914 0.72731 0.0
H1548 H 0.71283 0.70492 0.9843 0.0
H1549 H 0.72606 0.74288 0.9989 0.0
H1550 H 0.74745 0.67448 0.96906 0.0
H1551 H 0.7343 0.63654 0.95445 0.0
H1552 H 0.75319 0.68484 0.00381 0.0
H1553 H 0.74178 0.76791 0.95563 0.0
H1554 H 0.72936 0.80352 0.93764 0.0
H1555 H 0.72163 0.87665 0.98303 0.0
H1556 H 0.73399 0.84112 0.00137 0.0
H1557 H 0.79447 0.8132 0.01432 0.0
H1558 H 0.78083 0.77704 1.00022 0.0
H1559 H 0.76033 0.84373 0.03274 0.0
H1560 H 0.77393 0.87986 0.04699 0.0
H1561 H 0.75395 0.83464 0.99721 0.0
H1562 H 0.76628 0.75163 0.04502 0.0
H1563 H 0.77904 0.71539 0.06204 0.0
H1564 H 0.78534 0.64136 0.01621 0.0
H1565 H 0.77271 0.67763 0.99881 0.0
C1566 C 0.72035 0.69762 0.98102 0.0
C1567 C 0.7225 0.66772 0.96818 0.0
C1568 C 0.72792 0.71951 0.9893 0.0
C1569 C 0.73777 0.71188 0.98496 0.0
C1570 C 0.73992 0.681 0.97264 0.0
C1571 C 0.73238 0.65937 0.96426 0.0
C1572 C 0.74584 0.7369 0.99276 0.0
C1573 C 0.7534 0.71753 0.00221 0.0
C1574 C 0.74608 0.77968 0.99091 0.0
C1575 C 0.73874 0.80157 0.97992 0.0
C1576 C 0.73739 0.7914 0.96181 0.0
C1577 C 0.73036 0.8116 0.95154 0.0
C1578 C 0.72466 0.84223 0.9592 0.0
C1579 C 0.72603 0.85286 0.97713 0.0
C1580 C 0.73306 0.83275 0.98746 0.0
C1581 C 0.78706 0.82066 0.01829 0.0
C1582 C 0.78531 0.8494 0.03183 0.0
C1583 C 0.77926 0.79977 0.01028 0.0
C1584 C 0.76954 0.80729 0.01555 0.0
C1585 C 0.76775 0.83732 0.02847 0.0
C1586 C 0.77555 0.85794 0.03661 0.0
C1587 C 0.76132 0.78254 0.00823 0.0
C1588 C 0.75372 0.80196 0.99887 0.0
C1589 C 0.76108 0.73976 0.01007 0.0
C1590 C 0.76861 0.71763 0.02056 0.0
C1591 C 0.77044 0.72785 0.03852 0.0
C1592 C 0.77764 0.70727 0.04825 0.0
C1593 C 0.78301 0.67616 0.0402 0.0
C1594 C 0.78118 0.66551 0.02242 0.0
C1595 C 0.774 0.68604 0.01262 0.0
H1596 H 0.78858 0.66021 0.04774 0.0
H1597 H 0.71921 0.85779 0.95123 0.0
H1598 H 0.21278 0.56214 0.76301 0.0
H1599 H 0.22644 0.52717 0.74835 0.0
H1600 H 0.24659 0.58057 0.78602 0.0
H1601 H 0.23303 0.616 0.8005 0.0
H1602 H 0.25457 0.58033 0.75361 0.0
H1603 H 0.23863 0.48243 0.79079 0.0
H1604 H 0.22466 0.44308 0.80241 0.0
H1605 H 0.21992 0.39157 0.75037 0.0
H1606 H 0.2338 0.4311 0.73837 0.0
H1607 H 0.29458 0.44509 0.73778 0.0
H1608 H 0.28113 0.48181 0.75235 0.0
H1609 H 0.26077 0.43241 0.71402 0.0
H1610 H 0.2741 0.39548 0.69957 0.0
H1611 H 0.25304 0.43069 0.74713 0.0
H1612 H 0.26943 0.52972 0.71031 0.0
H1613 H 0.28368 0.56877 0.69963 0.0
H1614 H 0.28791 0.61765 0.75231 0.0
H1615 H 0.27375 0.5784 0.76336 0.0
C1616 C 0.22013 0.56683 0.76803 0.0
C1617 C 0.22178 0.59184 0.78297 0.0
C1618 C 0.22795 0.54657 0.75971 0.0
C1619 C 0.23758 0.55064 0.76621 0.0
C1620 C 0.23926 0.57677 0.78073 0.0
C1621 C 0.23147 0.59701 0.78903 0.0
C1622 C 0.24586 0.52691 0.75828 0.0
C1623 C 0.25427 0.54756 0.75239 0.0
C1624 C 0.24548 0.48413 0.75646 0.0
C1625 C 0.23719 0.46004 0.76364 0.0
C1626 C 0.23456 0.46293 0.78179 0.0
C1627 C 0.22667 0.44057 0.78846 0.0
C1628 C 0.22138 0.41492 0.77713 0.0
C1629 C 0.22401 0.4115 0.75913 0.0
C1630 C 0.2319 0.43385 0.75239 0.0
C1631 C 0.28723 0.44186 0.73253 0.0
C1632 C 0.28545 0.41739 0.71746 0.0
C1633 C 0.27954 0.46305 0.74082 0.0
C1634 C 0.26991 0.46034 0.73418 0.0
C1635 C 0.26811 0.43512 0.71942 0.0
C1636 C 0.27577 0.41405 0.71113 0.0
C1637 C 0.26172 0.48413 0.74236 0.0
C1638 C 0.25333 0.46346 0.74833 0.0
C1639 C 0.26215 0.52685 0.74437 0.0
C1640 C 0.27059 0.55083 0.7377 0.0
C1641 C 0.27343 0.54859 0.71964 0.0
C1642 C 0.28149 0.57078 0.71352 0.0
C1643 C 0.28671 0.5956 0.7253 0.0
C1644 C 0.28386 0.59837 0.74321 0.0
C1645 C 0.27582 0.57618 0.74941 0.0
H1646 H 0.29295 0.61275 0.72054 0.0
H1647 H 0.21527 0.39764 0.78231 0.0
H1648 H 0.02687 0.61262 0.44654 0.0
H1649 H 0.01345 0.57407 0.46008 0.0
H1650 H 0.03359 0.52216 0.49814 0.0
H1651 H 0.04705 0.56073 0.48471 0.0
H1652 H 0.02184 0.46441 0.48251 0.0
H1653 H 0.0176 0.59387 0.51115 0.0
H1654 H 0.01535 0.66804 0.51228 0.0
H1655 H 0.9886 0.65717 0.48246 0.0
H1656 H 0.99076 0.58293 0.48094 0.0
H1657 H 0.98929 0.37744 0.54512 0.0
H1658 H 1.00172 0.41671 0.5294 0.0
H1659 H 0.9794 0.46984 0.49597 0.0
H1660 H 0.96681 0.43079 0.51195 0.0
H1661 H 0.99175 0.52699 0.50744 0.0
H1662 H 0.99539 0.39799 0.47967 0.0
H1663 H 0.99755 0.32388 0.47777 0.0
H1664 H 0.02525 0.33345 0.50463 0.0
H1665 H 0.02319 0.40759 0.50696 0.0
C1666 C 0.02843 0.59331 0.45791 0.0
C1667 C 0.03804 0.5899 0.46457 0.0
C1668 C 0.02074 0.57131 0.46566 0.0
C1669 C 0.02248 0.54526 0.48019 0.0
C1670 C 0.03205 0.54202 0.48694 0.0
C1671 C 0.03974 0.56429 0.4793 0.0
C1672 C 0.01439 0.52054 0.48805 0.0
C1673 C 0.01531 0.47811 0.48817 0.0
C1674 C 0.00571 0.53826 0.49488 0.0
C1675 C 1.0044 0.58288 0.49576 0.0
C1676 C 0.01129 0.60732 0.50469 0.0
C1677 C 0.01002 0.64937 0.50543 0.0
C1678 C 1.00186 0.66732 0.4974 0.0
C1679 C 0.99493 0.64323 0.48865 0.0
C1680 C 0.99617 0.60117 0.48785 0.0
C1681 C 0.987 0.39717 0.53432 0.0
C1682 C 0.97703 0.40078 0.52976 0.0
C1683 C 0.99415 0.41957 0.52527 0.0
C1684 C 0.99156 0.44603 0.51132 0.0
C1685 C 0.98161 0.44959 0.50665 0.0
C1686 C 0.97442 0.42708 0.51573 0.0
C1687 C 0.99924 0.47075 0.50211 0.0
C1688 C 0.99824 0.51318 0.50171 0.0
C1689 C 0.00784 0.45301 0.49491 0.0
C1690 C 0.00908 0.40835 0.49365 0.0
C1691 C 1.0019 0.38427 0.48533 0.0
C1692 C 1.00312 0.34225 0.48414 0.0
C1693 C 0.01152 0.32395 0.49112 0.0
C1694 C 0.01874 0.34766 0.49926 0.0
C1695 C 0.01755 0.38969 0.50051 0.0
H1696 H 0.01245 0.29142 0.49017 0.0
H1697 H 1.00088 0.69987 0.49799 0.0
H1698 H 0.21722 0.68844 0.48791 0.0
H1699 H 0.23057 0.72772 0.5013 0.0
H1700 H 0.25141 0.66571 0.46771 0.0
H1701 H 0.23809 0.62653 0.45415 0.0
H1702 H 0.25811 0.67675 0.50333 0.0
H1703 H 0.24407 0.75518 0.45542 0.0
H1704 H 0.23047 0.78742 0.439 0.0
H1705 H 0.22395 0.86148 0.48471 0.0
H1706 H 0.2374 0.82913 0.50153 0.0
H1707 H 0.29786 0.81354 0.51363 0.0
H1708 H 0.28481 0.7746 0.499 0.0
H1709 H 0.26316 0.83845 0.53012 0.0
H1710 H 0.27613 0.87729 0.54481 0.0
H1711 H 0.25697 0.82619 0.49538 0.0
H1712 H 0.27063 0.74918 0.54345 0.0
H1713 H 0.28403 0.7177 0.56063 0.0
H1714 H 0.29085 0.64069 0.51602 0.0
H1715 H 0.27766 0.6726 0.49835 0.0
C1716 C 0.22466 0.68268 0.48355 0.0
C1717 C 0.22657 0.65438 0.46991 0.0
C1718 C 0.23229 0.70532 0.49117 0.0
C1719 C 0.242 0.69998 0.48539 0.0
C1720 C 0.24399 0.6704 0.47238 0.0
C1721 C 0.23635 0.64807 0.46462 0.0
C1722 C 0.24999 0.72674 0.49221 0.0
C1723 C 0.25793 0.70935 0.50139 0.0
C1724 C 0.24967 0.76942 0.49 0.0
C1725 C 0.24169 0.78944 0.4798 0.0
C1726 C 0.23969 0.77813 0.46202 0.0
C1727 C 0.23201 0.79644 0.45264 0.0
C1728 C 0.22634 0.82641 0.46082 0.0
C1729 C 0.22835 0.83822 0.4784 0.0
C1730 C 0.236 0.81991 0.48786 0.0
C1731 C 0.29031 0.8199 0.51708 0.0
C1732 C 0.28805 0.84847 0.53043 0.0
C1733 C 0.28286 0.79741 0.50879 0.0
C1734 C 0.27299 0.80319 0.51361 0.0
C1735 C 0.27069 0.83335 0.52619 0.0
C1736 C 0.27814 0.85552 0.53459 0.0
C1737 C 0.26513 0.77623 0.50645 0.0
C1738 C 0.25719 0.79357 0.49726 0.0
C1739 C 0.26542 0.73354 0.50877 0.0
C1740 C 0.27323 0.71366 0.51948 0.0
C1741 C 0.27505 0.72582 0.53722 0.0
C1742 C 0.28261 0.70793 0.54705 0.0
C1743 C 0.2883 0.67728 0.53941 0.0
C1744 C 0.28644 0.66449 0.52191 0.0
C1745 C 0.27893 0.68253 0.51197 0.0
H1746 H 0.29414 0.66338 0.54706 0.0
H1747 H 0.2204 0.84057 0.45354 0.0
H1748 H 0.79673 0.44902 0.23288 0.0
H1749 H 0.78362 0.48571 0.24858 0.0
H1750 H 0.76202 0.42474 0.21618 0.0
H1751 H 0.77498 0.38863 0.20045 0.0
H1752 H 0.75806 0.50344 0.21776 0.0
H1753 H 0.76621 0.39912 0.26065 0.0
H1754 H 0.77721 0.36067 0.28059 0.0
H1755 H 0.784 0.46969 0.30947 0.0
H1756 H 0.77312 0.50889 0.28955 0.0
H1757 H 0.71438 0.55171 0.26531 0.0
H1758 H 0.72816 0.51835 0.25034 0.0
H1759 H 0.74822 0.57485 0.28734 0.0
H1760 H 0.73446 0.60692 0.30268 0.0
H1761 H 0.75352 0.50108 0.28353 0.0
H1762 H 0.74527 0.60563 0.24168 0.0
H1763 H 0.73465 0.64557 0.22163 0.0
H1764 H 0.72856 0.53895 0.19059 0.0
H1765 H 0.73904 0.49823 0.2106 0.0
C1766 C 0.78918 0.44323 0.22923 0.0
C1767 C 0.78693 0.41579 0.21541 0.0
C1768 C 0.78168 0.46419 0.23823 0.0
C1769 C 0.77178 0.45796 0.23365 0.0
C1770 C 0.76957 0.4303 0.21997 0.0
C1771 C 0.77702 0.40947 0.21101 0.0
C1772 C 0.76367 0.48057 0.24271 0.0
C1773 C 0.75701 0.50255 0.23213 0.0
C1774 C 0.76242 0.48055 0.26151 0.0
C1775 C 0.76894 0.45699 0.2735 0.0
C1776 C 0.77011 0.41494 0.27117 0.0
C1777 C 0.77631 0.393 0.28248 0.0
C1778 C 0.78133 0.41274 0.29625 0.0
C1779 C 0.78012 0.45445 0.29878 0.0
C1780 C 0.77394 0.47653 0.28749 0.0
C1781 C 0.72174 0.55724 0.27016 0.0
C1782 C 0.7233 0.58211 0.28517 0.0
C1783 C 0.72964 0.53825 0.26154 0.0
C1784 C 0.73933 0.54434 0.2675 0.0
C1785 C 0.74087 0.56946 0.28242 0.0
C1786 C 0.73297 0.58798 0.29117 0.0
C1787 C 0.74782 0.52379 0.25856 0.0
C1788 C 0.75457 0.5022 0.26916 0.0
C1789 C 0.7492 0.52442 0.23976 0.0
C1790 C 0.74286 0.54881 0.22775 0.0
C1791 C 0.7416 0.59063 0.23067 0.0
C1792 C 0.73562 0.61342 0.21929 0.0
C1793 C 0.73091 0.59479 0.20487 0.0
C1794 C 0.7322 0.55333 0.20177 0.0
C1795 C 0.73816 0.53039 0.21312 0.0
H1796 H 0.72628 0.61249 0.19608 0.0
H1797 H 0.78612 0.39571 0.305 0.0
H1798 H 0.77996 0.3332 0.56312 0.0
H1799 H 0.76652 0.29669 0.54873 0.0
H1800 H 0.78451 0.27696 0.50215 0.0
H1801 H 0.79806 0.31341 0.51656 0.0
H1802 H 0.76577 0.2989 0.4929 0.0
H1803 H 0.78095 0.20108 0.53079 0.0
H1804 H 0.78755 0.17126 0.55847 0.0
H1805 H 0.75925 0.18009 0.58322 0.0
H1806 H 0.75249 0.21057 0.5557 0.0
H1807 H 0.73873 0.14042 0.45257 0.0
H1808 H 0.75165 0.17736 0.46814 0.0
H1809 H 0.73186 0.20271 0.51164 0.0
H1810 H 0.71875 0.16589 0.49595 0.0
H1811 H 0.75112 0.17885 0.52273 0.0
H1812 H 0.73595 0.27467 0.48327 0.0
H1813 H 0.7296 0.29852 0.45424 0.0
H1814 H 0.7584 0.2898 0.43151 0.0
H1815 H 0.7649 0.26513 0.46033 0.0
C1816 C 0.78106 0.3214 0.54975 0.0
C1817 C 0.79011 0.32631 0.541 0.0
C1818 C 0.77336 0.30027 0.54157 0.0
C1819 C 0.7745 0.28362 0.5244 0.0
C1820 C 0.78344 0.28943 0.51541 0.0
C1821 C 0.79119 0.31027 0.52367 0.0
C1822 C 0.76639 0.25984 0.51597 0.0
C1823 C 0.76265 0.27242 0.49936 0.0
C1824 C 0.76215 0.22562 0.52448 0.0
C1825 C 0.76624 0.20855 0.54125 0.0
C1826 C 0.77616 0.19715 0.54221 0.0
C1827 C 0.77992 0.17996 0.55785 0.0
C1828 C 0.77382 0.17376 0.57262 0.0
C1829 C 0.76396 0.18492 0.57178 0.0
C1830 C 0.76016 0.20214 0.55616 0.0
C1831 C 0.73711 0.15344 0.46553 0.0
C1832 C 0.72767 0.15018 0.47299 0.0
C1833 C 0.74452 0.17477 0.47439 0.0
C1834 C 0.74272 0.19325 0.49097 0.0
C1835 C 0.73342 0.1888 0.49882 0.0
C1836 C 0.72593 0.16774 0.48985 0.0
C1837 C 0.75051 0.21798 0.49975 0.0
C1838 C 0.7542 0.20554 0.51638 0.0
C1839 C 0.75474 0.25213 0.4912 0.0
C1840 C 0.75089 0.26768 0.47393 0.0
C1841 C 0.74092 0.27754 0.47205 0.0
C1842 C 0.73729 0.29124 0.45564 0.0
C1843 C 0.74359 0.29559 0.44103 0.0
C1844 C 0.75353 0.28637 0.44283 0.0
C1845 C 0.75719 0.27254 0.45921 0.0
H1846 H 0.74076 0.30617 0.42833 0.0
H1847 H 0.77672 0.16019 0.58469 0.0
H1848 H 0.48424 0.34826 0.69842 0.0
H1849 H 0.4973 0.31131 0.71365 0.0
H1850 H 0.47789 0.28642 0.75779 0.0
H1851 H 0.4647 0.3235 0.74252 0.0
H1852 H 0.49681 0.30729 0.76908 0.0
H1853 H 0.48185 0.21407 0.72886 0.0
H1854 H 0.47524 0.19128 0.69988 0.0
H1855 H 0.50375 0.20223 0.67616 0.0
H1856 H 0.51052 0.2258 0.70497 0.0
H1857 H 0.52508 0.14744 0.8068 0.0
H1858 H 0.51169 0.1843 0.79238 0.0
H1859 H 0.53068 0.21464 0.74831 0.0
H1860 H 0.54419 0.17796 0.76277 0.0
H1861 H 0.5117 0.19018 0.73739 0.0
H1862 H 0.5265 0.2836 0.77867 0.0
H1863 H 0.53269 0.30522 0.80815 0.0
H1864 H 0.5039 0.29198 0.8305 0.0
H1865 H 0.49757 0.26953 0.80121 0.0
C1866 C 0.48274 0.33529 0.71144 0.0
C1867 C 0.47339 0.33879 0.7192 0.0
C1868 C 0.49023 0.314 0.72012 0.0
C1869 C 0.48857 0.29564 0.7368 0.0
C1870 C 0.47935 0.30026 0.74492 0.0
C1871 C 0.47181 0.32141 0.73616 0.0
C1872 C 0.49639 0.27048 0.74531 0.0
C1873 C 0.49997 0.28136 0.76226 0.0
C1874 C 0.50064 0.23694 0.73633 0.0
C1875 C 0.49667 0.22207 0.71904 0.0
C1876 C 0.4867 0.2119 0.71744 0.0
C1877 C 0.48292 0.19882 0.70105 0.0
C1878 C 0.48906 0.1954 0.68619 0.0
C1879 C 0.499 0.20495 0.68769 0.0
C1880 C 0.50282 0.21814 0.70405 0.0
C1881 C 0.52641 0.16165 0.79397 0.0
C1882 C 0.53574 0.15978 0.78597 0.0
C1883 C 0.51874 0.18287 0.78576 0.0
C1884 C 0.52018 0.20259 0.76932 0.0
C1885 C 0.52939 0.19972 0.761 0.0
C1886 C 0.53711 0.1788 0.7693 0.0
C1887 C 0.51216 0.22713 0.76112 0.0
C1888 C 0.50854 0.2161 0.74422 0.0
C1889 C 0.50783 0.26034 0.77021 0.0
C1890 C 0.51158 0.27448 0.78778 0.0
C1891 C 0.5215 0.285 0.7899 0.0
C1892 C 0.52503 0.29744 0.80657 0.0
C1893 C 0.51869 0.29989 0.8212 0.0
C1894 C 0.5088 0.29002 0.81916 0.0
C1895 C 0.50524 0.27744 0.80253 0.0
H1896 H 0.52144 0.30951 0.8341 0.0
H1897 H 0.48611 0.18523 0.67355 0.0
H1898 H 0.46597 0.94275 0.51716 0.0
H1899 H 0.47935 0.97962 0.50257 0.0
H1900 H 0.50037 0.91383 0.5344 0.0
H1901 H 0.48705 0.87752 0.54923 0.0
H1902 H 0.50487 0.99139 0.53446 0.0
H1903 H 0.49674 0.89474 0.48869 0.0
H1904 H 0.48587 0.85867 0.46768 0.0
H1905 H 0.47881 0.97124 0.44182 0.0
H1906 H 0.48954 0.00806 0.46282 0.0
H1907 H 0.5479 0.05074 0.48689 0.0
H1908 H 0.53444 0.01374 0.50109 0.0
H1909 H 0.51365 0.07855 0.46836 0.0
H1910 H 0.52709 0.11486 0.45384 0.0
H1911 H 0.50894 0.0018 0.46872 0.0
H1912 H 0.51698 0.09859 0.51431 0.0
H1913 H 0.52773 0.13513 0.53536 0.0
H1914 H 0.53481 0.02305 0.56162 0.0
H1915 H 0.52419 0.98575 0.54058 0.0
C1916 C 0.47345 0.93576 0.5209 0.0
C1917 C 0.47542 0.90701 0.53435 0.0
C1918 C 0.48111 0.95687 0.51251 0.0
C1919 C 0.49094 0.94945 0.51724 0.0
C1920 C 0.49289 0.92029 0.53048 0.0
C1921 C 0.48525 0.89933 0.53891 0.0
C1922 C 0.49915 0.97287 0.50888 0.0
C1923 C 0.50583 0.99315 0.52007 0.0
C1924 C 0.50031 0.97628 0.4901 0.0
C1925 C 0.49387 0.95419 0.47744 0.0
C1926 C 0.49281 0.91184 0.47861 0.0
C1927 C 0.48669 0.89125 0.46669 0.0
C1928 C 0.48163 0.91266 0.45346 0.0
C1929 C 0.48272 0.9547 0.45209 0.0
C1930 C 0.48883 0.97543 0.46399 0.0
C1931 C 0.54046 0.05745 0.48285 0.0
C1932 C 0.5386 0.08596 0.46926 0.0
C1933 C 0.53274 0.03628 0.49103 0.0
C1934 C 0.52295 0.04346 0.48598 0.0
C1935 C 0.5211 0.07227 0.47254 0.0
C1936 C 0.52881 0.09324 0.46429 0.0
C1937 C 0.51468 0.02027 0.4943 0.0
C1938 C 0.50799 5e-05 0.4831 0.0
C1939 C 0.51349 0.01698 0.51308 0.0
C1940 C 0.51987 0.03934 0.52576 0.0
C1941 C 0.52089 0.0817 0.52449 0.0
C1942 C 0.52695 0.10255 0.53643 0.0
C1943 C 0.53197 0.08141 0.54978 0.0
C1944 C 0.53093 0.03938 0.55125 0.0
C1945 C 0.52488 0.01837 0.53933 0.0
H1946 H 0.53666 0.09761 0.55902 0.0
H1947 H 0.47689 0.89667 0.44424 0.0
H1948 H 0.46396 0.80351 0.23387 0.0
H1949 H 0.47686 0.76502 0.2492 0.0
H1950 H 0.49872 0.82356 0.21652 0.0
H1951 H 0.48592 0.86137 0.20102 0.0
H1952 H 0.50227 0.74526 0.2178 0.0
H1953 H 0.49511 0.84814 0.2615 0.0
H1954 H 0.48462 0.88811 0.28176 0.0
H1955 H 0.47656 0.77964 0.30994 0.0
H1956 H 0.48691 0.73893 0.2897 0.0
H1957 H 0.54496 0.68662 0.26668 0.0
H1958 H 0.53175 0.72346 0.25159 0.0
H1959 H 0.51051 0.66465 0.28555 0.0
H1960 H 0.52368 0.62857 0.3009 0.0
H1961 H 0.50641 0.74194 0.28367 0.0
H1962 H 0.51371 0.63906 0.24026 0.0
H1963 H 0.52419 0.59897 0.22004 0.0
H1964 H 0.53194 0.70706 0.19129 0.0
H1965 H 0.5216 0.74789 0.21149 0.0
C1966 C 0.47152 0.80846 0.23009 0.0
C1967 C 0.47389 0.83562 0.21623 0.0
C1968 C 0.47891 0.78646 0.23888 0.0
C1969 C 0.48882 0.79144 0.23412 0.0
C1970 C 0.49116 0.81896 0.22044 0.0
C1971 C 0.48381 0.84076 0.21163 0.0
C1972 C 0.49676 0.76741 0.24297 0.0
C1973 C 0.50324 0.74498 0.2322 0.0
C1974 C 0.49793 0.76603 0.26179 0.0
C1975 C 0.4917 0.79045 0.27397 0.0
C1976 C 0.49104 0.83277 0.27193 0.0
C1977 C 0.48513 0.85557 0.28342 0.0
C1978 C 0.4799 0.83642 0.2971 0.0
C1979 C 0.4806 0.79443 0.29933 0.0
C1980 C 0.48649 0.77148 0.28786 0.0
C1981 C 0.53747 0.6812 0.2708 0.0
C1982 C 0.5354 0.6545 0.28497 0.0
C1983 C 0.5299 0.70226 0.26212 0.0
C1984 C 0.52007 0.69673 0.26728 0.0
C1985 C 0.518 0.66964 0.28129 0.0
C1986 C 0.52556 0.64882 0.29002 0.0
C1987 C 0.51195 0.71988 0.2585 0.0
C1988 C 0.50544 0.74214 0.26927 0.0
C1989 C 0.51074 0.72108 0.23968 0.0
C1990 C 0.51695 0.69658 0.2275 0.0
C1991 C 0.51771 0.65432 0.22971 0.0
C1992 C 0.52361 0.63146 0.21824 0.0
C1993 C 0.52875 0.65047 0.20442 0.0
C1994 C 0.52797 0.69238 0.20201 0.0
C1995 C 0.52208 0.71539 0.21346 0.0
H1996 H 0.53332 0.63271 0.19555 0.0
H1997 H 0.47533 0.85412 0.30598 0.0
H1998 H 0.48536 0.37002 0.04825 0.0
H1999 H 0.49912 0.40607 0.0345 0.0
H2000 H 0.47907 0.46984 0.99995 0.0
H2001 H 0.46527 0.4339 0.01361 0.0
H2002 H 0.50646 0.41649 0.99939 0.0
H2003 H 0.4864 0.57136 1.00032 0.0
H2004 H 0.47264 0.60339 0.0164 0.0
H2005 H 0.47784 0.52631 0.0617 0.0
H2006 H 0.49183 0.49494 0.04621 0.0
H2007 H 0.52393 0.61669 0.95698 0.0
H2008 H 0.51131 0.57707 0.97209 0.0
H2009 H 0.53354 0.51453 0.0024 0.0
H2010 H 0.54629 0.55413 0.98714 0.0
H2011 H 0.50556 0.56616 0.00655 0.0
H2012 H 0.52575 0.41163 0.00559 0.0
H2013 H 0.53932 0.37888 0.98927 0.0
H2014 H 0.53394 0.45534 0.94385 0.0
H2015 H 0.52003 0.48706 0.95949 0.0
C2016 C 0.48388 0.39117 0.03749 0.0
C2017 C 0.47419 0.39924 0.0321 0.0
C2018 C 0.49177 0.41168 0.02961 0.0
C2019 C 0.49013 0.44103 0.01634 0.0
C2020 C 0.48051 0.4476 0.01029 0.0
C2021 C 0.47262 0.42691 0.01807 0.0
C2022 C 0.49833 0.46711 0.00989 0.0
C2023 C 0.50634 0.44915 0.00114 0.0
C2024 C 0.49812 0.50982 0.01204 0.0
C2025 C 0.49008 0.53032 0.02195 0.0
C2026 C 0.48467 0.5615 0.01377 0.0
C2027 C 0.47682 0.57956 0.0228 0.0
C2028 C 0.47431 0.56665 0.04 0.0
C2029 C 0.47972 0.53603 0.04831 0.0
C2030 C 0.48765 0.51826 0.03945 0.0
C2031 C 0.52616 0.59485 0.96701 0.0
C2032 C 0.53614 0.58841 0.97076 0.0
C2033 C 0.51891 0.57229 0.9757 0.0
C2034 C 0.52145 0.54245 0.98825 0.0
C2035 C 0.5314 0.53708 0.99262 0.0
C2036 C 0.53868 0.55984 0.98394 0.0
C2037 C 0.51369 0.51564 0.99587 0.0
C2038 C 0.50574 0.53348 0.00486 0.0
C2039 C 0.51396 0.47285 0.99391 0.0
C2040 C 0.52194 0.45223 0.98389 0.0
C2041 C 0.52739 0.42114 0.99205 0.0
C2042 C 0.53512 0.40265 0.98288 0.0
C2043 C 0.5375 0.41508 0.96555 0.0
C2044 C 0.53208 0.44573 0.95727 0.0
C2045 C 0.52424 0.46382 0.96625 0.0
H2046 H 0.54352 0.40091 0.9585 0.0
H2047 H 0.46822 0.58056 0.04694 0.0
H2048 H 0.04839 0.52312 0.41934 0.0
H2049 H 0.04574 0.45466 0.40755 0.0
H2050 H 0.0742 0.45849 0.38228 0.0
H2051 H 0.0765 0.52778 0.39299 0.0
H2052 H 0.06235 0.42903 0.3602 0.0
H2053 H 0.06844 0.40334 0.42308 0.0
H2054 H 0.06538 0.41094 0.45543 0.0
H2055 H 0.03613 0.3657 0.44859 0.0
H2056 H 0.03899 0.35824 0.41615 0.0
H2057 H 0.06774 0.19883 0.37341 0.0
H2058 H 0.0666 0.26707 0.38563 0.0
H2059 H 0.04736 0.3018 0.34244 0.0
H2060 H 0.04874 0.23363 0.32971 0.0
H2061 H 0.05269 0.31246 0.39825 0.0
H2062 H 0.05163 0.39985 0.33157 0.0
H2063 H 0.05669 0.39128 0.30009 0.0
H2064 H 0.07975 0.3108 0.31643 0.0
H2065 H 0.0749 0.31929 0.34799 0.0
C2066 C 0.05408 0.50902 0.41137 0.0
C2067 C 0.06265 0.53035 0.40704 0.0
C2068 C 0.05259 0.46995 0.40469 0.0
C2069 C 0.05981 0.45119 0.39416 0.0
C2070 C 0.06848 0.47238 0.39024 0.0
C2071 C 0.06983 0.5118 0.39644 0.0
C2072 C 0.05838 0.40986 0.38683 0.0
C2073 C 0.06022 0.4036 0.36855 0.0
C2074 C 0.05557 0.37661 0.39766 0.0
C2075 C 0.0539 0.38062 0.41718 0.0
C2076 C 0.06134 0.39522 0.42847 0.0
C2077 C 0.05965 0.39947 0.44682 0.0
C2078 C 0.05056 0.38892 0.45405 0.0
C2079 C 0.04316 0.37392 0.44296 0.0
C2080 C 0.04482 0.36963 0.4246 0.0
C2081 C 0.06323 0.2209 0.36652 0.0
C2082 C 0.05841 0.211 0.3505 0.0
C2083 C 0.06255 0.25985 0.37359 0.0
C2084 C 0.05697 0.28959 0.36487 0.0
C2085 C 0.05184 0.27945 0.34921 0.0
C2086 C 0.05264 0.24055 0.34196 0.0
C2087 C 0.057 0.33159 0.37183 0.0
C2088 C 0.05476 0.33803 0.38993 0.0
C2089 C 0.05977 0.36483 0.361 0.0
C2090 C 0.06282 0.35983 0.34209 0.0
C2091 C 0.05779 0.38041 0.32843 0.0
C2092 C 0.06062 0.37556 0.31058 0.0
C2093 C 0.06852 0.35039 0.30626 0.0
C2094 C 0.07362 0.33015 0.31979 0.0
C2095 C 0.07083 0.33495 0.33765 0.0
H2096 H 0.07069 0.34664 0.29244 0.0
H2097 H 0.04926 0.39227 0.46825 0.0
H2098 H 0.20751 0.74388 0.43627 0.0
H2099 H 0.20961 0.81433 0.4266 0.0
H2100 H 0.21102 0.77512 0.37162 0.0
H2101 H 0.209 0.70502 0.38103 0.0
H2102 H 0.22351 0.8394 0.37854 0.0
H2103 H 0.1896 0.80031 0.38806 0.0
H2104 H 0.17587 0.77369 0.406 0.0
H2105 H 0.18003 0.86873 0.44454 0.0
H2106 H 0.19389 0.89557 0.42692 0.0
H2107 H 0.20448 0.00316 0.32745 0.0
H2108 H 0.20776 0.93741 0.34143 0.0
H2109 H 0.20361 0.99058 0.39362 0.0
H2110 H 0.20012 0.05577 0.37992 0.0
H2111 H 0.19387 0.92202 0.39082 0.0
H2112 H 0.22653 0.96704 0.37815 0.0
H2113 H 0.23983 0.99336 0.35911 0.0
H2114 H 0.2379 0.88774 0.32569 0.0
H2115 H 0.22449 0.86103 0.3444 0.0
C2116 C 0.20844 0.75022 0.42216 0.0
C2117 C 0.20784 0.71904 0.40937 0.0
C2118 C 0.20966 0.79039 0.41668 0.0
C2119 C 0.21034 0.79972 0.39841 0.0
C2120 C 0.2105 0.76841 0.38578 0.0
C2121 C 0.20923 0.72842 0.39119 0.0
C2122 C 0.20961 0.84193 0.39211 0.0
C2123 C 0.21706 0.85762 0.38121 0.0
C2124 C 0.20121 0.86554 0.39578 0.0
C2125 C 0.19284 0.84963 0.4063 0.0
C2126 C 0.18763 0.81533 0.40043 0.0
C2127 C 0.17982 0.80023 0.41053 0.0
C2128 C 0.1771 0.81943 0.42643 0.0
C2129 C 0.18216 0.85384 0.43224 0.0
C2130 C 0.18999 0.86901 0.42221 0.0
C2131 C 0.20426 0.00082 0.3419 0.0
C2132 C 0.202 0.03468 0.35254 0.0
C2133 C 0.20621 0.96335 0.34986 0.0
C2134 C 0.20604 0.95939 0.36856 0.0
C2135 C 0.20379 0.99309 0.37917 0.0
C2136 C 0.20178 0.03033 0.37127 0.0
C2137 C 0.20777 0.91975 0.37715 0.0
C2138 C 0.20045 0.90435 0.38842 0.0
C2139 C 0.21628 0.89649 0.37373 0.0
C2140 C 0.22445 0.91218 0.36261 0.0
C2141 C 0.2289 0.94954 0.36668 0.0
C2142 C 0.23647 0.96451 0.35595 0.0
C2143 C 0.2397 0.94228 0.34118 0.0
C2144 C 0.23539 0.90494 0.33714 0.0
C2145 C 0.22781 0.88984 0.34781 0.0
H2146 H 0.24555 0.95396 0.33288 0.0
H2147 H 0.17105 0.8077 0.43422 0.0
H2148 H 0.05027 0.00202 0.92453 0.0
H2149 H 0.04538 0.93658 0.91189 0.0
H2150 H 0.05927 0.96805 0.86194 0.0
H2151 H 0.06411 0.03332 0.87429 0.0
H2152 H 0.04115 0.93714 0.85656 0.0
H2153 H 0.07016 0.90348 0.89015 0.0
H2154 H 0.08062 0.90032 0.91701 0.0
H2155 H 0.05865 0.83056 0.94428 0.0
H2156 H 0.048 0.83378 0.91763 0.0
H2157 H 0.05247 0.74695 0.81658 0.0
H2158 H 0.04982 0.8155 0.82806 0.0
H2159 H 0.03551 0.76607 0.87469 0.0
H2160 H 0.03833 0.69762 0.86348 0.0
H2161 H 0.05158 0.80651 0.88335 0.0
H2162 H 0.02252 0.84019 0.84918 0.0
H2163 H 0.01208 0.84604 0.82232 0.0
H2164 H 0.03471 0.91285 0.79546 0.0
H2165 H 0.04514 0.90863 0.82239 0.0
C2166 C 0.05238 0.9948 0.91093 0.0
C2167 C 0.05757 0.02287 0.90042 0.0
C2168 C 0.04955 0.95753 0.90372 0.0
C2169 C 0.05194 0.94771 0.88598 0.0
C2170 C 0.05727 0.97532 0.8756 0.0
C2171 C 0.06008 0.0125 0.88274 0.0
C2172 C 0.04902 0.90847 0.87815 0.0
C2173 C 0.04345 0.9085 0.86236 0.0
C2174 C 0.05185 0.87128 0.88596 0.0
C2175 C 0.05824 0.86931 0.90199 0.0
C2176 C 0.06753 0.88778 0.90193 0.0
C2177 C 0.07349 0.88591 0.9171 0.0
C2178 C 0.07029 0.86537 0.93237 0.0
C2179 C 0.06112 0.84654 0.93246 0.0
C2180 C 0.05511 0.84836 0.91733 0.0
C2181 C 0.04847 0.75081 0.82897 0.0
C2182 C 0.04586 0.71712 0.83941 0.0
C2183 C 0.04689 0.79001 0.83547 0.0
C2184 C 0.04254 0.79579 0.85232 0.0
C2185 C 0.03894 0.7622 0.86173 0.0
C2186 C 0.04061 0.72315 0.85536 0.0
C2187 C 0.04369 0.83495 0.86168 0.0
C2188 C 0.04905 0.835 0.87773 0.0
C2189 C 0.04072 0.87211 0.85405 0.0
C2190 C 0.03462 0.87381 0.83771 0.0
C2191 C 0.02527 0.85597 0.83751 0.0
C2192 C 0.01934 0.85922 0.82233 0.0
C2193 C 0.02277 0.87944 0.80714 0.0
C2194 C 0.03208 0.89706 0.80721 0.0
C2195 C 0.03796 0.89459 0.82248 0.0
H2196 H 0.01819 0.88158 0.79536 0.0
H2197 H 0.07492 0.86394 0.9441 0.0
H2198 H 0.20379 0.53647 0.87374 0.0
H2199 H 0.20772 0.46763 0.88251 0.0
H2200 H 0.21177 0.43455 0.82716 0.0
H2201 H 0.20767 0.50392 0.81808 0.0
H2202 H 0.19986 0.38351 0.8437 0.0
H2203 H 0.23138 0.4372 0.85621 0.0
H2204 H 0.24343 0.48565 0.8683 0.0
H2205 H 0.23357 0.46038 0.92168 0.0
H2206 H 0.22135 0.41222 0.90992 0.0
H2207 H 0.20933 0.18529 0.87335 0.0
H2208 H 0.21261 0.25133 0.86006 0.0
H2209 H 0.20721 0.30895 0.91093 0.0
H2210 H 0.20412 0.24257 0.92454 0.0
H2211 H 0.22236 0.34455 0.89295 0.0
H2212 H 0.18915 0.30174 0.87993 0.0
H2213 H 0.17659 0.25493 0.86826 0.0
H2214 H 0.18947 0.26172 0.81595 0.0
H2215 H 0.20219 0.30819 0.82738 0.0
C2216 C 0.20562 0.51486 0.86336 0.0
C2217 C 0.20532 0.52569 0.84517 0.0
C2218 C 0.20797 0.4755 0.86845 0.0
C2219 C 0.2102 0.44618 0.85551 0.0
C2220 C 0.21016 0.45696 0.83734 0.0
C2221 C 0.20778 0.49651 0.83219 0.0
C2222 C 0.21149 0.40353 0.86107 0.0
C2223 C 0.20498 0.37472 0.85411 0.0
C2224 C 0.218 0.39243 0.87497 0.0
C2225 C 0.22541 0.42117 0.88215 0.0
C2226 C 0.23173 0.44214 0.87052 0.0
C2227 C 0.2386 0.46954 0.87732 0.0
C2228 C 0.23926 0.47612 0.89574 0.0
C2229 C 0.23306 0.45524 0.90741 0.0
C2230 C 0.22617 0.42782 0.90069 0.0
C2231 C 0.20889 0.21195 0.88178 0.0
C2232 C 0.20627 0.20885 0.89993 0.0
C2233 C 0.21079 0.24962 0.87415 0.0
C2234 C 0.20997 0.28494 0.88444 0.0
C2235 C 0.20785 0.28192 0.90277 0.0
C2236 C 0.20604 0.24407 0.9105 0.0
C2237 C 0.21059 0.32512 0.87581 0.0
C2238 C 0.21743 0.35328 0.88223 0.0
C2239 C 0.20435 0.3358 0.86145 0.0
C2240 C 0.19668 0.30802 0.85456 0.0
C2241 C 0.18935 0.29299 0.86597 0.0
C2242 C 0.18219 0.26657 0.8594 0.0
C2243 C 0.18225 0.25526 0.84138 0.0
C2244 C 0.18945 0.27044 0.8299 0.0
C2245 C 0.19663 0.29683 0.83642 0.0
H2246 H 0.17671 0.23481 0.83631 0.0
H2247 H 0.24458 0.49736 0.90098 0.0
H2248 H 0.9616 0.7512 0.67358 0.0
H2249 H 0.96499 0.68171 0.66297 0.0
H2250 H 0.94867 0.70565 0.61481 0.0
H2251 H 0.94533 0.77435 0.62495 0.0
H2252 H 0.94331 0.63361 0.63694 0.0
H2253 H 0.9703 0.70692 0.60983 0.0
H2254 H 0.98533 0.74824 0.60998 0.0
H2255 H 1.00027 0.65585 0.63988 0.0
H2256 H 0.98522 0.61448 0.64043 0.0
H2257 H 0.96213 0.47632 0.57195 0.0
H2258 H 0.96326 0.54511 0.58423 0.0
H2259 H 0.95782 0.49845 0.63718 0.0
H2260 H 0.95669 0.43002 0.62526 0.0
H2261 H 0.97494 0.58137 0.61366 0.0
H2262 H 0.93967 0.56049 0.65392 0.0
H2263 H 0.92465 0.51887 0.65384 0.0
H2264 H 0.92642 0.5073 0.59672 0.0
H2265 H 0.94138 0.54927 0.59646 0.0
C2266 C 0.95877 0.74154 0.66072 0.0
C2267 C 0.9532 0.7681 0.65008 0.0
C2268 C 0.96078 0.70222 0.65468 0.0
C2269 C 0.95715 0.68919 0.63812 0.0
C2270 C 0.95158 0.71554 0.62758 0.0
C2271 C 0.94969 0.75474 0.63341 0.0
C2272 C 0.9585 0.64722 0.63205 0.0
C2273 C 0.95024 0.62205 0.632 0.0
C2274 C 0.96756 0.6326 0.62556 0.0
C2275 C 0.97656 0.65791 0.62547 0.0
C2276 C 0.97672 0.69571 0.61674 0.0
C2277 C 0.98526 0.71909 0.61664 0.0
C2278 C 0.99374 0.70476 0.62499 0.0
C2279 C 0.9937 0.66694 0.63342 0.0
C2280 C 0.98515 0.64358 0.63369 0.0
C2281 C 0.96129 0.48064 0.58623 0.0
C2282 C 0.95917 0.44775 0.59757 0.0
C2283 C 0.96201 0.51984 0.59321 0.0
C2284 C 0.96056 0.52652 0.61154 0.0
C2285 C 0.95892 0.49366 0.62298 0.0
C2286 C 0.95824 0.45461 0.61608 0.0
C2287 C 0.95973 0.56805 0.61852 0.0
C2288 C 0.96805 0.59293 0.61881 0.0
C2289 C 0.95073 0.58262 0.62528 0.0
C2290 C 0.9417 0.55763 0.62521 0.0
C2291 C 0.93684 0.54912 0.64135 0.0
C2292 C 0.92834 0.52547 0.64136 0.0
C2293 C 0.9246 0.51034 0.6253 0.0
C2294 C 0.92935 0.51888 0.60917 0.0
C2295 C 0.93785 0.54255 0.60908 0.0
H2296 H 0.91801 0.49213 0.62536 0.0
H2297 H 1.00035 0.7229 0.62489 0.0
H2298 H 0.80406 0.99197 0.68087 0.0
H2299 H 0.80132 0.05982 0.66891 0.0
H2300 H 0.78343 0.00954 0.62672 0.0
H2301 H 0.78657 0.94141 0.6382 0.0
H2302 H 0.79685 0.05137 0.61271 0.0
H2303 H 0.77411 0.07935 0.65839 0.0
H2304 H 0.76721 0.0808 0.68886 0.0
H2305 H 0.7906 0.1585 0.70614 0.0
H2306 H 0.79774 0.15707 0.67587 0.0
H2307 H 0.80017 0.25373 0.57769 0.0
H2308 H 0.79309 0.19092 0.58939 0.0
H2309 H 0.81128 0.20017 0.63635 0.0
H2310 H 0.81826 0.26313 0.62502 0.0
H2311 H 0.79265 0.18134 0.64516 0.0
H2312 H 0.81682 0.13639 0.60051 0.0
H2313 H 0.82348 0.13349 0.56985 0.0
H2314 H 0.79607 0.08691 0.55057 0.0
H2315 H 0.78922 0.09 0.5811 0.0
C2316 C 0.79932 0.99556 0.66935 0.0
C2317 C 0.79566 0.96161 0.66026 0.0
C2318 C 0.79768 0.0344 0.66257 0.0
C2319 C 0.79214 0.03985 0.6469 0.0
C2320 C 0.78777 0.00605 0.63875 0.0
C2321 C 0.78958 0.9672 0.6453 0.0
C2322 C 0.79234 0.07937 0.6375 0.0
C2323 C 0.79564 0.07978 0.6197 0.0
C2324 C 0.79081 0.11649 0.64657 0.0
C2325 C 0.78649 0.11797 0.66481 0.0
C2326 C 0.77782 0.09658 0.6687 0.0
C2327 C 0.77386 0.09742 0.68594 0.0
C2328 C 0.77847 0.11968 0.69943 0.0
C2329 C 0.78703 0.14129 0.69568 0.0
C2330 C 0.79103 0.14055 0.67846 0.0
C2331 C 0.80275 0.24206 0.5904 0.0
C2332 C 0.80981 0.2632 0.60042 0.0
C2333 C 0.79863 0.20639 0.5971 0.0
C2334 C 0.80162 0.19107 0.61374 0.0
C2335 C 0.80879 0.21178 0.62357 0.0
C2336 C 0.81283 0.24753 0.617 0.0
C2337 C 0.7976 0.15277 0.62087 0.0
C2338 C 0.79355 0.15278 0.63814 0.0
C2339 C 0.79833 0.11598 0.6113 0.0
C2340 C 0.80249 0.11383 0.59302 0.0
C2341 C 0.81221 0.12576 0.58971 0.0
C2342 C 0.81601 0.12405 0.57236 0.0
C2343 C 0.81019 0.11012 0.55826 0.0
C2344 C 0.80057 0.0977 0.5615 0.0
C2345 C 0.79672 0.09942 0.57881 0.0
H2346 H 0.81315 0.10886 0.54484 0.0
H2347 H 0.77542 0.12016 0.71277 0.0
H2348 H 0.95703 0.25789 0.17814 0.0
H2349 H 0.95941 0.18874 0.16712 0.0
H2350 H 0.9604 0.23344 0.11291 0.0
H2351 H 0.95819 0.30235 0.12368 0.0
H2352 H 0.94672 0.15008 0.14574 0.0
H2353 H 0.97414 0.17063 0.08701 0.0
H2354 H 0.9886 0.21208 0.07951 0.0
H2355 H 0.99495 0.22734 0.13536 0.0
H2356 H 0.98061 0.18552 0.1432 0.0
H2357 H 0.95435 0.99562 0.07044 0.0
H2358 H 0.95721 0.06428 0.08201 0.0
H2359 H 0.95904 0.01667 0.13564 0.0
H2360 H 0.95615 0.9486 0.12441 0.0
H2361 H 0.97212 0.10053 0.10354 0.0
H2362 H 0.94514 0.07706 0.16218 0.0
H2363 H 0.93053 0.03618 0.16945 0.0
H2364 H 0.92325 0.02855 0.11368 0.0
H2365 H 0.93772 0.06987 0.1061 0.0
C2366 C 0.95789 0.25308 0.1639 0.0
C2367 C 0.95731 0.28561 0.15179 0.0
C2368 C 0.95927 0.21359 0.15764 0.0
C2369 C 0.96015 0.20613 0.13923 0.0
C2370 C 0.9599 0.23865 0.12719 0.0
C2371 C 0.95854 0.27803 0.1334 0.0
C2372 C 0.96029 0.16417 0.13239 0.0
C2373 C 0.95239 0.13898 0.13682 0.0
C2374 C 0.96752 0.15036 0.12026 0.0
C2375 C 0.97623 0.17521 0.11568 0.0
C2376 C 0.97864 0.18267 0.09769 0.0
C2377 C 0.98682 0.20627 0.09338 0.0
C2378 C 0.99267 0.22244 0.10695 0.0
C2379 C 0.99038 0.21494 0.12486 0.0
C2380 C 0.98222 0.19134 0.12924 0.0
C2381 C 0.95546 -0.00022 0.08466 0.0
C2382 C 0.95483 0.9668 0.09654 0.0
C2383 C 0.95714 0.0389 0.09122 0.0
C2384 C 0.95818 0.04533 0.10967 0.0
C2385 C 0.9581 0.01223 0.12138 0.0
C2386 C 0.95641 0.97337 0.1149 0.0
C2387 C 0.95859 0.08672 0.11702 0.0
C2388 C 0.96653 0.11171 0.11261 0.0
C2389 C 0.95139 0.10057 0.12915 0.0
C2390 C 0.94258 0.07617 0.13358 0.0
C2391 C 0.9404 0.06677 0.15148 0.0
C2392 C 0.93214 0.04352 0.15565 0.0
C2393 C 0.92599 0.02965 0.14203 0.0
C2394 C 0.92805 0.03916 0.12421 0.0
C2395 C 0.93628 0.06245 0.11997 0.0
H2396 H 0.91961 0.01162 0.14529 0.0
H2397 H 0.99899 0.24071 0.10358 0.0
H2398 H 0.80107 0.49153 0.17169 0.0
H2399 H 0.79768 0.55777 0.15822 0.0
H2400 H 0.80081 0.50585 0.10557 0.0
H2401 H 0.80428 0.44002 0.11873 0.0
H2402 H 0.8119 0.57266 0.1099 0.0
H2403 H 0.77862 0.53342 0.12015 0.0
H2404 H 0.76463 0.50882 0.13793 0.0
H2405 H 0.76703 0.61214 0.17261 0.0
H2406 H 0.78115 0.63709 0.15518 0.0
H2407 H 0.80174 0.75547 0.06587 0.0
H2408 H 0.79847 0.68528 0.07467 0.0
H2409 H 0.79589 0.72247 0.12978 0.0
H2410 H 0.79908 0.79244 0.12121 0.0
H2411 H 0.78309 0.6606 0.12155 0.0
H2412 H 0.81747 0.69336 0.11499 0.0
H2413 H 0.83194 0.71853 0.09863 0.0
H2414 H 0.82778 0.62705 0.05846 0.0
H2415 H 0.81319 0.60172 0.07447 0.0
C2416 C 0.80098 0.49416 0.15725 0.0
C2417 C 0.80304 0.46052 0.14632 0.0
C2418 C 0.79896 0.53192 0.14958 0.0
C2419 C 0.79894 0.53648 0.13091 0.0
C2420 C 0.80079 0.50285 0.12001 0.0
C2421 C 0.80279 0.46524 0.12761 0.0
C2422 C 0.79779 0.57688 0.12269 0.0
C2423 C 0.8055 0.59153 0.11213 0.0
C2424 C 0.78953 0.60171 0.12599 0.0
C2425 C 0.781 0.58695 0.13643 0.0
C2426 C 0.77622 0.55075 0.13165 0.0
C2427 C 0.76825 0.53677 0.14165 0.0
C2428 C 0.76496 0.55885 0.15642 0.0
C2429 C 0.7696 0.59504 0.16118 0.0
C2430 C 0.77758 0.60915 0.15123 0.0
C2431 C 0.8003 0.74884 0.07981 0.0
C2432 C 0.80092 0.77934 0.0929 0.0
C2433 C 0.7984 0.70878 0.08479 0.0
C2434 C 0.79708 0.6988 0.10288 0.0
C2435 C 0.79691 0.72962 0.11575 0.0
C2436 C 0.79884 0.76955 0.11082 0.0
C2437 C 0.7972 0.65614 0.10881 0.0
C2438 C 0.78937 0.64124 0.11903 0.0
C2439 C 0.80538 0.63102 0.10538 0.0
C2440 C 0.81418 0.64599 0.0958 0.0
C2441 C 0.8196 0.67883 0.10259 0.0
C2442 C 0.82783 0.69309 0.0934 0.0
C2443 C 0.83076 0.67448 0.07748 0.0
C2444 C 0.82548 0.64149 0.07076 0.0
C2445 C 0.81724 0.62717 0.07989 0.0
H2446 H 0.83713 0.68555 0.07038 0.0
H2447 H 0.75879 0.54797 0.16415 0.0
H2448 H 0.55407 0.24297 0.82311 0.0
H2449 H 0.55134 0.31131 0.83486 0.0
H2450 H 0.55333 0.26545 0.88877 0.0
H2451 H 0.55602 0.19723 0.87728 0.0
H2452 H 0.5386 0.32371 0.88448 0.0
H2453 H 0.57287 0.30457 0.87177 0.0
H2454 H 0.58699 0.28636 0.85284 0.0
H2455 H 0.5793 0.38034 0.81563 0.0
H2456 H 0.56503 0.39871 0.83423 0.0
H2457 H 0.55292 0.50692 0.93033 0.0
H2458 H 0.55097 0.43773 0.91889 0.0
H2459 H 0.5511 0.48353 0.86482 0.0
H2460 H 0.55313 0.55217 0.87596 0.0
H2461 H 0.56423 0.42457 0.86917 0.0
H2462 H 0.53049 0.4475 0.88401 0.0
H2463 H 0.51628 0.46363 0.90303 0.0
H2464 H 0.52287 0.36186 0.93679 0.0
H2465 H 0.53728 0.3457 0.91824 0.0
C2466 C 0.55384 0.24734 0.83746 0.0
C2467 C 0.55543 0.21476 0.84925 0.0
C2468 C 0.55226 0.28633 0.84413 0.0
C2469 C 0.55224 0.29324 0.86265 0.0
C2470 C 0.55333 0.26058 0.87444 0.0
C2471 C 0.55495 0.22169 0.86781 0.0
C2472 C 0.55188 0.33488 0.86979 0.0
C2473 C 0.54421 0.34584 0.88129 0.0
C2474 C 0.5592 0.36348 0.86542 0.0
C2475 C 0.56782 0.35272 0.85429 0.0
C2476 C 0.57414 0.32113 0.85948 0.0
C2477 C 0.58218 0.31082 0.84883 0.0
C2478 C 0.58403 0.3321 0.83302 0.0
C2479 C 0.57785 0.36383 0.82787 0.0
C2480 C 0.56979 0.37423 0.83846 0.0
C2481 C 0.55245 0.50226 0.91602 0.0
C2482 C 0.55334 0.53504 0.90406 0.0
C2483 C 0.55128 0.46277 0.90951 0.0
C2484 C 0.55091 0.45564 0.89101 0.0
C2485 C 0.55142 0.48843 0.87914 0.0
C2486 C 0.5526 0.52769 0.88558 0.0
C2487 C 0.55084 0.41396 0.88378 0.0
C2488 C 0.55853 0.40276 0.87232 0.0
C2489 C 0.54356 0.38522 0.88833 0.0
C2490 C 0.53505 0.39563 0.89981 0.0
C2491 C 0.529 0.42886 0.89562 0.0
C2492 C 0.52088 0.43794 0.90629 0.0
C2493 C 0.51866 0.41373 0.92108 0.0
C2494 C 0.52457 0.38049 0.92528 0.0
C2495 C 0.53274 0.37145 0.91473 0.0
H2496 H 0.51237 0.42081 0.92933 0.0
H2497 H 0.59025 0.32407 0.8248 0.0
H2498 H 0.71062 0.74423 0.92942 0.0
H2499 H 0.71429 0.81332 0.9196 0.0
H2500 H 0.70412 0.78416 0.86651 0.0
H2501 H 0.70058 0.71506 0.87603 0.0
H2502 H 0.72017 0.8314 0.86509 0.0
H2503 H 0.68904 0.8315 0.89777 0.0
H2504 H 0.67897 0.81809 0.92453 0.0
H2505 H 0.69767 0.89507 0.95585 0.0
H2506 H 0.70789 0.90869 0.92928 0.0
H2507 H 0.70287 0.01329 0.82711 0.0
H2508 H 0.70616 0.94598 0.83926 0.0
H2509 H 0.71378 -0.00066 0.89013 0.0
H2510 H 0.7101 0.0666 0.87826 0.0
H2511 H 0.7019 0.9416 0.89553 0.0
H2512 H 0.73109 0.95298 0.86148 0.0
H2513 H 0.74155 0.96597 0.83522 0.0
H2514 H 0.72767 0.86829 0.80696 0.0
H2515 H 0.71699 0.85514 0.83293 0.0
C2516 C 0.7092 0.75245 0.91563 0.0
C2517 C 0.70518 0.72424 0.90356 0.0
C2518 C 0.71135 0.79188 0.91004 0.0
C2519 C 0.7094 0.80389 0.89238 0.0
C2520 C 0.7057 0.77545 0.88019 0.0
C2521 C 0.70363 0.73601 0.8857 0.0
C2522 C 0.71049 0.84669 0.88679 0.0
C2523 C 0.71617 0.85563 0.87165 0.0
C2524 C 0.70553 0.87833 0.89577 0.0
C2525 C 0.69926 0.87083 0.91161 0.0
C2526 C 0.69101 0.84546 0.91038 0.0
C2527 C 0.68528 0.83784 0.92551 0.0
C2528 C 0.68768 0.85567 0.94189 0.0
C2529 C 0.69581 0.88129 0.94316 0.0
C2530 C 0.70156 0.88902 0.92807 0.0
C2531 C 0.70533 0.01069 0.84083 0.0
C2532 C 0.70613 0.04515 0.85179 0.0
C2533 C 0.70731 0.97221 0.84773 0.0
C2534 C 0.71035 0.96759 0.86556 0.0
C2535 C 0.71144 0.00215 0.87634 0.0
C2536 C 0.70931 0.04055 0.86955 0.0
C2537 C 0.71142 0.92658 0.87344 0.0
C2538 C 0.7061 0.91783 0.88905 0.0
C2539 C 0.71679 0.89531 0.86491 0.0
C2540 C 0.72318 0.90325 0.84916 0.0
C2541 C 0.7302 0.93448 0.84962 0.0
C2542 C 0.73618 0.94184 0.83478 0.0
C2543 C 0.73527 0.91801 0.81942 0.0
C2544 C 0.72837 0.88674 0.81887 0.0
C2545 C 0.72235 0.8793 0.83366 0.0
H2546 H 0.73992 0.9237 0.80797 0.0
H2547 H 0.68325 0.84967 0.95359 0.0
H2548 H 0.55347 0.69695 0.37716 0.0
H2549 H 0.55115 0.76628 0.38757 0.0
H2550 H 0.55216 0.80942 0.33313 0.0
H2551 H 0.55453 0.73991 0.32249 0.0
H2552 H 0.56496 0.84885 0.35546 0.0
H2553 H 0.5311 0.81317 0.3551 0.0
H2554 H 0.51658 0.77137 0.36176 0.0
H2555 H 0.52138 0.78765 0.41806 0.0
H2556 H 0.53602 0.82907 0.41175 0.0
H2557 H 0.55538 0.05098 0.3764 0.0
H2558 H 0.55257 0.98331 0.36455 0.0
H2559 H 0.55273 0.9343 0.41803 0.0
H2560 H 0.5555 0.00238 0.4302 0.0
H2561 H 0.53845 0.89894 0.39518 0.0
H2562 H 0.57289 0.92909 0.39576 0.0
H2563 H 0.5876 0.97015 0.38955 0.0
H2564 H 0.58188 0.96264 0.33317 0.0
H2565 H 0.56704 0.92204 0.33907 0.0
C2566 C 0.55313 0.72107 0.36734 0.0
C2567 C 0.55429 0.71296 0.34899 0.0
C2568 C 0.55171 0.76063 0.37333 0.0
C2569 C 0.55142 0.79278 0.36109 0.0
C2570 C 0.55233 0.78483 0.34274 0.0
C2571 C 0.55369 0.74515 0.3367 0.0
C2572 C 0.55108 0.8349 0.36768 0.0
C2573 C 0.55907 0.8601 0.36384 0.0
C2574 C 0.54352 0.84887 0.37908 0.0
C2575 C 0.53472 0.82396 0.38294 0.0
C2576 C 0.52911 0.80755 0.36891 0.0
C2577 C 0.52085 0.78398 0.37262 0.0
C2578 C 0.51807 0.77678 0.39032 0.0
C2579 C 0.52354 0.79322 0.40435 0.0
C2580 C 0.53182 0.81679 0.40071 0.0
C2581 C 0.55474 0.026 0.38574 0.0
C2582 C 0.55585 0.03199 0.40426 0.0
C2583 C 0.55311 0.98736 0.3789 0.0
C2584 C 0.5526 0.95396 0.39042 0.0
C2585 C 0.55314 0.95989 0.40897 0.0
C2586 C 0.55477 -0.00129 0.41587 0.0
C2587 C 0.55232 0.91267 0.38289 0.0
C2588 C 0.54427 0.88769 0.38664 0.0
C2589 C 0.55985 0.89866 0.37147 0.0
C2590 C 0.56879 0.92291 0.36787 0.0
C2591 C 0.57472 0.9365 0.38204 0.0
C2592 C 0.58309 0.95964 0.37858 0.0
C2593 C 0.58565 0.9691 0.36098 0.0
C2594 C 0.57987 0.95535 0.3468 0.0
C2595 C 0.57148 0.93225 0.35019 0.0
H2596 H 0.59214 0.987 0.35832 0.0
H2597 H 0.51167 0.75853 0.39317 0.0
H2598 H 0.7039 0.24674 0.43558 0.0
H2599 H 0.70456 0.3161 0.42381 0.0
H2600 H 0.71959 0.27295 0.37678 0.0
H2601 H 0.71891 0.20379 0.38834 0.0
H2602 H 0.72481 0.35477 0.38783 0.0
H2603 H 0.69666 0.26872 0.37448 0.0
H2604 H 0.68301 0.22391 0.38326 0.0
H2605 H 0.67066 0.31952 0.41508 0.0
H2606 H 0.68434 0.36466 0.40672 0.0
H2607 H 0.70863 0.50191 0.32451 0.0
H2608 H 0.7121 0.4358 0.3382 0.0
H2609 H 0.69295 0.46543 0.38224 0.0
H2610 H 0.68926 0.53039 0.36858 0.0
H2611 H 0.69044 0.38982 0.37253 0.0
H2612 H 0.71783 0.47749 0.38532 0.0
H2613 H 0.73155 0.5229 0.37761 0.0
H2614 H 0.74531 0.42687 0.34804 0.0
H2615 H 0.7316 0.38102 0.35538 0.0
C2616 C 0.70766 0.25235 0.42306 0.0
C2617 C 0.71113 0.22008 0.4126 0.0
C2618 C 0.70804 0.29185 0.41638 0.0
C2619 C 0.71197 0.29918 0.39933 0.0
C2620 C 0.71651 0.26768 0.38992 0.0
C2621 C 0.71603 0.22824 0.39647 0.0
C2622 C 0.70968 0.33702 0.38982 0.0
C2623 C 0.71732 0.36254 0.38439 0.0
C2624 C 0.69989 0.34676 0.3854 0.0
C2625 C 0.69158 0.31988 0.39015 0.0
C2626 C 0.69107 0.28007 0.38346 0.0
C2627 C 0.68333 0.25462 0.38834 0.0
C2628 C 0.67599 0.26883 0.39977 0.0
C2629 C 0.67636 0.30854 0.40627 0.0
C2630 C 0.68411 0.33406 0.40146 0.0
C2631 C 0.70503 0.49391 0.33693 0.0
C2632 C 0.69876 0.52147 0.34557 0.0
C2633 C 0.70709 0.4564 0.34481 0.0
C2634 C 0.70292 0.44622 0.36138 0.0
C2635 C 0.69629 0.47285 0.3695 0.0
C2636 C 0.69422 0.51006 0.36168 0.0
C2637 C 0.70555 0.40837 0.37073 0.0
C2638 C 0.69795 0.38243 0.376 0.0
C2639 C 0.71537 0.39855 0.37507 0.0
C2640 C 0.72364 0.42598 0.37073 0.0
C2641 C 0.72375 0.46615 0.37706 0.0
C2642 C 0.73153 0.49195 0.37277 0.0
C2643 C 0.73929 0.47782 0.36229 0.0
C2644 C 0.73929 0.4378 0.35612 0.0
C2645 C 0.73152 0.41189 0.36035 0.0
H2646 H 0.7453 0.49784 0.35899 0.0
H2647 H 0.67 0.24911 0.40357 0.0
H2648 H 0.45681 0.49843 0.06838 0.0
H2649 H 0.46029 0.56706 0.07934 0.0
H2650 H 0.46666 0.5187 0.13166 0.0
H2651 H 0.4632 0.45052 0.12097 0.0
H2652 H 0.45135 0.57285 0.13118 0.0
H2653 H 0.48422 0.56308 0.10961 0.0
H2654 H 0.49765 0.55293 0.08805 0.0
H2655 H 0.48694 0.65189 0.05625 0.0
H2656 H 0.47333 0.66221 0.07745 0.0
H2657 H 0.45907 0.7589 0.1753 0.0
H2658 H 0.4625 0.69136 0.1633 0.0
H2659 H 0.45786 0.73583 0.1097 0.0
H2660 H 0.45455 0.80331 0.12142 0.0
H2661 H 0.47339 0.6836 0.11129 0.0
H2662 H 0.43976 0.68849 0.13047 0.0
H2663 H 0.42631 0.7005 0.15184 0.0
H2664 H 0.43824 0.61043 0.18716 0.0
H2665 H 0.45185 0.59829 0.1661 0.0
C2666 C 0.45917 0.50237 0.08209 0.0
C2667 C 0.45948 0.46927 0.09395 0.0
C2668 C 0.46121 0.54151 0.0883 0.0
C2669 C 0.46365 0.54777 0.10633 0.0
C2670 C 0.46474 0.51439 0.11773 0.0
C2671 C 0.46269 0.4755 0.1116 0.0
C2672 C 0.46347 0.58887 0.11409 0.0
C2673 C 0.4563 0.59686 0.12706 0.0
C2674 C 0.46972 0.62033 0.10823 0.0
C2675 C 0.47769 0.61319 0.09507 0.0
C2676 C 0.48464 0.58237 0.09791 0.0
C2677 C 0.49233 0.57673 0.0858 0.0
C2678 C 0.49318 0.60189 0.07084 0.0
C2679 C 0.48631 0.63258 0.0679 0.0
C2680 C 0.4786 0.6383 0.07995 0.0
C2681 C 0.45882 0.75438 0.16096 0.0
C2682 C 0.45641 0.78642 0.14935 0.0
C2683 C 0.46081 0.71583 0.15413 0.0
C2684 C 0.46035 0.7087 0.13564 0.0
C2685 C 0.45827 0.74083 0.124 0.0
C2686 C 0.4563 0.77931 0.13078 0.0
C2687 C 0.46135 0.66723 0.12844 0.0
C2688 C 0.46855 0.65932 0.1155 0.0
C2689 C 0.45508 0.63571 0.13416 0.0
C2690 C 0.44688 0.64283 0.14681 0.0
C2691 C 0.43956 0.67148 0.14287 0.0
C2692 C 0.4319 0.67827 0.15491 0.0
C2693 C 0.43144 0.65633 0.17088 0.0
C2694 C 0.43862 0.62746 0.17481 0.0
C2695 C 0.4463 0.6206 0.16282 0.0
H2696 H 0.4255 0.66162 0.18018 0.0
H2697 H 0.49912 0.59741 0.06146 0.0
H2698 H 0.3087 0.0026 0.17566 0.0
H2699 H 0.30452 0.06784 0.16216 0.0
H2700 H 0.28697 0.00658 0.12237 0.0
H2701 H 0.29154 0.94131 0.13536 0.0
H2702 H 0.29913 0.05196 0.1065 0.0
H2703 H 0.27669 0.07518 0.15325 0.0
H2704 H 0.27035 0.07696 0.18411 0.0
H2705 H 0.29214 0.16503 0.19841 0.0
H2706 H 0.29873 0.16335 0.16773 0.0
H2707 H 0.29767 0.25731 0.07067 0.0
H2708 H 0.29198 0.19136 0.0819 0.0
H2709 H 0.31144 0.20229 0.12715 0.0
H2710 H 0.31707 0.26766 0.11622 0.0
H2711 H 0.29257 0.18259 0.13707 0.0
H2712 H 0.31702 0.14161 0.09186 0.0
H2713 H 0.32318 0.13888 0.06085 0.0
H2714 H 0.29626 0.08383 0.04369 0.0
H2715 H 0.28991 0.08672 0.07458 0.0
C2716 C 0.30376 0.00328 0.16432 0.0
C2717 C 0.30055 0.96723 0.15634 0.0
C2718 C 0.3013 0.04052 0.15667 0.0
C2719 C 0.29539 0.0421 0.14126 0.0
C2720 C 0.29158 0.00606 0.13418 0.0
C2721 C 0.2942 0.96889 0.14158 0.0
C2722 C 0.29447 0.08042 0.13112 0.0
C2723 C 0.29739 0.08039 0.11309 0.0
C2724 C 0.29221 0.11754 0.13964 0.0
C2725 C 0.28822 0.11905 0.15814 0.0
C2726 C 0.28017 0.09478 0.16299 0.0
C2727 C 0.27653 0.09579 0.18046 0.0
C2728 C 0.28084 0.12108 0.19321 0.0
C2729 C 0.2888 0.14549 0.18851 0.0
C2730 C 0.29248 0.14459 0.17106 0.0
C2731 C 0.30084 0.24521 0.08284 0.0
C2732 C 0.30777 0.26762 0.09265 0.0
C2733 C 0.29753 0.20782 0.08929 0.0
C2734 C 0.3012 0.19249 0.10548 0.0
C2735 C 0.3084 0.21408 0.11481 0.0
C2736 C 0.31166 0.25126 0.10846 0.0
C2737 C 0.29774 0.15378 0.113 0.0
C2738 C 0.29394 0.15386 0.13045 0.0
C2739 C 0.2991 0.1167 0.10394 0.0
C2740 C 0.30296 0.11478 0.08545 0.0
C2741 C 0.3124 0.12918 0.08144 0.0
C2742 C 0.31593 0.12757 0.0639 0.0
C2743 C 0.3101 0.11129 0.0503 0.0
C2744 C 0.30076 0.09648 0.05423 0.0
C2745 C 0.29719 0.0981 0.07174 0.0
H2746 H 0.31284 0.11008 0.03672 0.0
H2747 H 0.27801 0.12179 0.20673 0.0
H2748 H 0.4628 0.26228 0.67831 0.0
H2749 H 0.46639 0.19387 0.66697 0.0
H2750 H 0.4438 0.20755 0.62708 0.0
H2751 H 0.44024 0.27553 0.63811 0.0
H2752 H 0.44322 0.13364 0.64561 0.0
H2753 H 0.46605 0.22254 0.6154 0.0
H2754 H 0.47945 0.27249 0.61398 0.0
H2755 H 0.49874 0.18856 0.64022 0.0
H2756 H 0.48539 0.13835 0.6421 0.0
H2757 H 0.45982 0.99174 0.5751 0.0
H2758 H 0.46143 0.05994 0.58783 0.0
H2759 H 0.46284 0.0089 0.64084 0.0
H2760 H 0.46136 0.94101 0.62846 0.0
H2761 H 0.47488 0.10101 0.61618 0.0
H2762 H 0.44299 0.05529 0.66097 0.0
H2763 H 0.42954 0.00526 0.66188 0.0
H2764 H 0.42818 0.00526 0.60449 0.0
H2765 H 0.44149 0.05579 0.60329 0.0
C2766 C 0.45854 0.25039 0.66727 0.0
C2767 C 0.45125 0.27409 0.65904 0.0
C2768 C 0.46065 0.2116 0.66075 0.0
C2769 C 0.4554 0.1961 0.64614 0.0
C2770 C 0.44793 0.21921 0.63834 0.0
C2771 C 0.44592 0.25798 0.64464 0.0
C2772 C 0.45759 0.15576 0.63872 0.0
C2773 C 0.45017 0.12647 0.63929 0.0
C2774 C 0.46663 0.14673 0.63037 0.0
C2775 C 0.47467 0.17691 0.62915 0.0
C2776 C 0.47311 0.21489 0.62106 0.0
C2777 C 0.48071 0.24323 0.62013 0.0
C2778 C 0.48994 0.23378 0.62707 0.0
C2779 C 0.49159 0.19588 0.63487 0.0
C2780 C 0.48401 0.16747 0.63587 0.0
C2781 C 0.46074 0.99496 0.58942 0.0
C2782 C 0.46021 0.96104 0.6008 0.0
C2783 C 0.46173 0.03386 0.59663 0.0
C2784 C 0.46215 0.03909 0.61522 0.0
C2785 C 0.46249 0.0052 0.62645 0.0
C2786 C 0.46156 0.96647 0.61931 0.0
C2787 C 0.46051 0.07932 0.62311 0.0
C2788 C 0.46799 0.10831 0.62268 0.0
C2789 C 0.45149 0.08842 0.63149 0.0
C2790 C 0.44331 0.05888 0.63206 0.0
C2791 C 0.43979 0.0447 0.64857 0.0
C2792 C 0.43219 0.01628 0.64913 0.0
C2793 C 0.42804 0.00197 0.63325 0.0
C2794 C 0.43143 0.01623 0.61678 0.0
C2795 C 0.43901 0.04472 0.61615 0.0
H2796 H 0.42217 0.97991 0.63371 0.0
H2797 H 0.49581 0.25576 0.62635 0.0
H2798 H 0.31672 0.45207 0.62944 0.0
H2799 H 0.31396 0.51718 0.61515 0.0
H2800 H 0.29654 0.55613 0.66013 0.0
H2801 H 0.29918 0.49015 0.67466 0.0
H2802 H 0.28801 0.57341 0.62639 0.0
H2803 H 0.31833 0.59293 0.65687 0.0
H2804 H 0.33515 0.5766 0.66647 0.0
H2805 H 0.34488 0.5801 0.61188 0.0
H2806 H 0.32807 0.59584 0.60191 0.0
H2807 H 0.29411 0.78675 0.61354 0.0
H2808 H 0.29188 0.71605 0.62225 0.0
H2809 H 0.30765 0.67743 0.57524 0.0
H2810 H 0.30978 0.74843 0.56623 0.0
H2811 H 0.31641 0.65863 0.60895 0.0
H2812 H 0.28574 0.64278 0.57895 0.0
H2813 H 0.26886 0.66079 0.57027 0.0
H2814 H 0.25981 0.65414 0.62518 0.0
H2815 H 0.27665 0.63634 0.63421 0.0
C2816 C 0.3123 0.47437 0.63638 0.0
C2817 C 0.30816 0.46597 0.65321 0.0
C2818 C 0.31075 0.51159 0.62818 0.0
C2819 C 0.30509 0.5413 0.63664 0.0
C2820 C 0.30093 0.53333 0.65344 0.0
C2821 C 0.30251 0.4959 0.66176 0.0
C2822 C 0.30367 0.5807 0.62774 0.0
C2823 C 0.29418 0.59245 0.62277 0.0
C2824 C 0.31179 0.60472 0.6227 0.0
C2825 C 0.32191 0.59515 0.62862 0.0
C2826 C 0.32403 0.58983 0.64689 0.0
C2827 C 0.33357 0.58076 0.65241 0.0
C2828 C 0.34107 0.5772 0.63979 0.0
C2829 C 0.33905 0.5828 0.62164 0.0
C2830 C 0.32953 0.59183 0.61604 0.0
C2831 C 0.29686 0.76313 0.6048 0.0
C2832 C 0.30231 0.77284 0.58945 0.0
C2833 C 0.29549 0.72282 0.60969 0.0
C2834 C 0.29965 0.69178 0.59941 0.0
C2835 C 0.30438 0.7012 0.58328 0.0
C2836 C 0.30561 0.74163 0.57819 0.0
C2837 C 0.30075 0.65129 0.60742 0.0
C2838 C 0.31022 0.63945 0.61239 0.0
C2839 C 0.29261 0.62764 0.61261 0.0
C2840 C 0.28248 0.63859 0.60727 0.0
C2841 C 0.28017 0.64555 0.58919 0.0
C2842 C 0.2706 0.65561 0.5842 0.0
C2843 C 0.26328 0.65879 0.59717 0.0
C2844 C 0.26549 0.65173 0.61515 0.0
C2845 C 0.27504 0.64155 0.62021 0.0
H2846 H 0.25588 0.6666 0.59328 0.0
H2847 H 0.34845 0.57021 0.64409 0.0
H2848 H 0.07232 0.72773 0.40596 0.0
H2849 H 0.07167 0.78898 0.38773 0.0
H2850 H 0.04539 0.82636 0.41514 0.0
H2851 H 0.04625 0.76518 0.43408 0.0
H2852 H 0.04506 0.81766 0.37437 0.0
H2853 H 0.06219 0.88301 0.42244 0.0
H2854 H 0.07519 0.88999 0.4451 0.0
H2855 H 0.09701 0.89041 0.40374 0.0
H2856 H 0.08414 0.88281 0.38083 0.0
H2857 H 0.0402 0.01107 0.33327 0.0
H2858 H 0.04077 0.95001 0.35175 0.0
H2859 H 0.07091 0.93108 0.33644 0.0
H2860 H 0.07032 0.99287 0.31802 0.0
H2861 H 0.06908 0.93043 0.37175 0.0
H2862 H 0.05277 0.86435 0.32372 0.0
H2863 H 0.04034 0.85419 0.30023 0.0
H2864 H 0.01768 0.8512 0.34003 0.0
H2865 H 0.02997 0.86193 0.36376 0.0
C2866 C 0.06658 0.74955 0.40852 0.0
C2867 C 0.05939 0.742 0.42154 0.0
C2868 C 0.06619 0.78446 0.39804 0.0
C2869 C 0.05847 0.81201 0.40007 0.0
C2870 C 0.05142 0.80536 0.41345 0.0
C2871 C 0.05196 0.77075 0.42434 0.0
C2872 C 0.05747 0.84568 0.38711 0.0
C2873 C 0.05017 0.84287 0.37397 0.0
C2874 C 0.06443 0.87732 0.3862 0.0
C2875 C 0.0722 0.88193 0.39993 0.0
C2876 C 0.06976 0.88418 0.41818 0.0
C2877 C 0.07711 0.88834 0.43107 0.0
C2878 C 0.08693 0.89053 0.42587 0.0
C2879 C 0.08941 0.88866 0.40776 0.0
C2880 C 0.08208 0.88447 0.39481 0.0
C2881 C 0.0468 0.99281 0.33327 0.0
C2882 C 0.05513 0.0058 0.32393 0.0
C2883 C 0.04715 0.95805 0.3439 0.0
C2884 C 0.05587 0.93576 0.34545 0.0
C2885 C 0.06409 0.94772 0.3354 0.0
C2886 C 0.06372 0.98258 0.32469 0.0
C2887 C 0.05662 0.9027 0.35891 0.0
C2888 C 0.06391 0.90544 0.37212 0.0
C2889 C 0.04972 0.87066 0.35974 0.0
C2890 C 0.04229 0.86435 0.34551 0.0
C2891 C 0.04513 0.8619 0.32746 0.0
C2892 C 0.03811 0.85596 0.3141 0.0
C2893 C 0.02823 0.85216 0.31863 0.0
C2894 C 0.02534 0.8542 0.33654 0.0
C2895 C 0.03233 0.86017 0.34996 0.0
H2896 H 0.0228 0.84754 0.30827 0.0
H2897 H 0.09261 0.89377 0.43587 0.0
H2898 H 0.19446 0.53429 0.40213 0.0
H2899 H 0.1942 0.47361 0.3839 0.0
H2900 H 0.21257 0.41245 0.42233 0.0
H2901 H 0.21287 0.47427 0.44092 0.0
H2902 H 0.21972 0.40852 0.3876 0.0
H2903 H 0.18923 0.38263 0.41689 0.0
H2904 H 0.17272 0.39897 0.4281 0.0
H2905 H 0.16294 0.42208 0.37447 0.0
H2906 H 0.17944 0.40647 0.36295 0.0
H2907 H 0.21595 0.21356 0.35044 0.0
H2908 H 0.21612 0.27567 0.3679 0.0
H2909 H 0.19696 0.33254 0.32943 0.0
H2910 H 0.19672 0.26923 0.31174 0.0
H2911 H 0.19017 0.33967 0.36368 0.0
H2912 H 0.22046 0.36535 0.33422 0.0
H2913 H 0.23698 0.34998 0.32277 0.0
H2914 H 0.24713 0.32839 0.37629 0.0
H2915 H 0.23063 0.34307 0.38806 0.0
C2916 C 0.19831 0.50784 0.40697 0.0
C2917 C 0.20372 0.50911 0.42295 0.0
C2918 C 0.19811 0.47298 0.39651 0.0
C2919 C 0.20334 0.43844 0.40174 0.0
C2920 C 0.20846 0.43886 0.41808 0.0
C2921 C 0.20857 0.47394 0.42875 0.0
C2922 C 0.20402 0.40361 0.38924 0.0
C2923 C 0.21328 0.39288 0.38262 0.0
C2924 C 0.19557 0.38452 0.38219 0.0
C2925 C 0.18561 0.39369 0.38906 0.0
C2926 C 0.18359 0.39151 0.40749 0.0
C2927 C 0.17422 0.40058 0.4139 0.0
C2928 C 0.16679 0.41164 0.40201 0.0
C2929 C 0.16871 0.41354 0.38367 0.0
C2930 C 0.17806 0.40453 0.37719 0.0
C2931 C 0.21196 0.23965 0.34543 0.0
C2932 C 0.20636 0.23684 0.32973 0.0
C2933 C 0.21209 0.2752 0.35542 0.0
C2934 C 0.20661 0.3089 0.34995 0.0
C2935 C 0.20128 0.30686 0.33383 0.0
C2936 C 0.20122 0.271 0.32366 0.0
C2937 C 0.20588 0.34442 0.36208 0.0
C2938 C 0.19661 0.35533 0.36863 0.0
C2939 C 0.21432 0.3638 0.36903 0.0
C2940 C 0.22427 0.35503 0.36201 0.0
C2941 C 0.22619 0.35702 0.34355 0.0
C2942 C 0.23556 0.34849 0.337 0.0
C2943 C 0.24309 0.33814 0.34879 0.0
C2944 C 0.24128 0.33639 0.36717 0.0
C2945 C 0.23193 0.34488 0.37379 0.0
H2946 H 0.25034 0.33154 0.34369 0.0
H2947 H 0.15954 0.41867 0.407 0.0
H2948 H 0.05037 0.47124 0.80867 0.0
H2949 H 0.05118 0.40947 0.82716 0.0
H2950 H 0.06401 0.47852 0.8702 0.0
H2951 H 0.06316 0.53956 0.85206 0.0
H2952 H 0.07228 0.40232 0.8673 0.0
H2953 H 0.0403 0.4642 0.87045 0.0
H2954 H 0.02493 0.49142 0.85794 0.0
H2955 H 0.01836 0.3752 0.83494 0.0
H2956 H 0.03378 0.34745 0.8471 0.0
H2957 H 0.06111 0.26413 0.93888 0.0
H2958 H 0.06135 0.32808 0.92166 0.0
H2959 H 0.04781 0.26693 0.87702 0.0
H2960 H 0.04756 0.20404 0.89391 0.0
H2961 H 0.04003 0.34121 0.88184 0.0
H2962 H 0.07201 0.27915 0.87831 0.0
H2963 H 0.08721 0.25118 0.89117 0.0
H2964 H 0.09378 0.36672 0.91482 0.0
H2965 H 0.07851 0.39518 0.90237 0.0
C2966 C 0.05356 0.47288 0.82192 0.0
C2967 C 0.0566 0.51023 0.82899 0.0
C2968 C 0.05398 0.43774 0.83249 0.0
C2969 C 0.05755 0.43961 0.85014 0.0
C2970 C 0.06121 0.47638 0.85667 0.0
C2971 C 0.06067 0.51135 0.84627 0.0
C2972 C 0.05673 0.40453 0.86247 0.0
C2973 C 0.06523 0.38911 0.87058 0.0
C2974 C 0.04753 0.38734 0.86675 0.0
C2975 C 0.03824 0.40389 0.85951 0.0
C2976 C 0.03562 0.44455 0.8626 0.0
C2977 C 0.02689 0.46005 0.85559 0.0
C2978 C 0.02069 0.43509 0.84561 0.0
C2979 C 0.02318 0.39453 0.84265 0.0
C2980 C 0.03191 0.37889 0.8496 0.0
C2981 C 0.05804 0.2648 0.92553 0.0
C2982 C 0.05439 0.22924 0.91766 0.0
C2983 C 0.05823 0.3011 0.91568 0.0
C2984 C 0.05467 0.30206 0.89798 0.0
C2985 C 0.05059 0.26694 0.8906 0.0
C2986 C 0.0505 0.23095 0.90027 0.0
C2987 C 0.05559 0.33858 0.88652 0.0
C2988 C 0.04709 0.35442 0.87859 0.0
C2989 C 0.06479 0.35599 0.88239 0.0
C2990 C 0.07406 0.33916 0.88959 0.0
C2991 C 0.07666 0.29851 0.88637 0.0
C2992 C 0.08529 0.28257 0.89357 0.0
C2993 C 0.09145 0.30713 0.90385 0.0
C2994 C 0.089 0.34772 0.90689 0.0
C2995 C 0.08035 0.36376 0.89977 0.0
H2996 H 0.09812 0.29472 0.90943 0.0
H2997 H 0.01393 0.44714 0.8402 0.0
H2998 H 0.19298 0.98156 0.93912 0.0
H2999 H 0.19111 0.91961 0.92093 0.0
H3000 H 0.21487 0.95884 0.88699 0.0
H3001 H 0.21659 0.02031 0.90478 0.0
H3002 H 0.19896 0.94172 0.86768 0.0
H3003 H 0.21731 0.87823 0.9155 0.0
H3004 H 0.22046 0.85847 0.94679 0.0
H3005 H 0.19315 0.79394 0.94835 0.0
H3006 H 0.18978 0.81377 0.91712 0.0
H3007 H 0.20902 0.76687 0.81415 0.0
H3008 H 0.20874 0.82754 0.83319 0.0
H3009 H 0.18656 0.77217 0.86635 0.0
H3010 H 0.18719 0.71136 0.8479 0.0
H3011 H 0.20025 0.79777 0.88663 0.0
H3012 H 0.18215 0.8575 0.8385 0.0
H3013 H 0.17874 0.8773 0.8073 0.0
H3014 H 0.20495 0.94926 0.80632 0.0
H3015 H 0.20858 0.92947 0.83744 0.0
C3016 C 0.19798 0.97604 0.92814 0.0
C3017 C 0.20496 0.00532 0.92334 0.0
C3018 C 0.19688 0.94093 0.91768 0.0
C3019 C 0.2028 0.93483 0.90248 0.0
C3020 C 0.21015 0.96307 0.8985 0.0
C3021 C 0.21119 -0.00203 0.90876 0.0
C3022 C 0.20105 0.90083 0.88986 0.0
C3023 C 0.19932 0.91017 0.87178 0.0
C3024 C 0.20121 0.85982 0.8953 0.0
C3025 C 0.20324 0.84787 0.91405 0.0
C3026 C 0.21194 0.86013 0.92257 0.0
C3027 C 0.21377 0.84885 0.94028 0.0
C3028 C 0.207 0.82507 0.94957 0.0
C3029 C 0.19839 0.81242 0.94115 0.0
C3030 C 0.19651 0.82364 0.92344 0.0
C3031 C 0.2039 0.76833 0.82519 0.0
C3032 C 0.19812 0.73461 0.82958 0.0
C3033 C 0.20374 0.80292 0.83611 0.0
C3034 C 0.19763 0.80449 0.85129 0.0
C3035 C 0.19141 0.77164 0.85487 0.0
C3036 C 0.19172 0.73697 0.84423 0.0
C3037 C 0.19827 0.83853 0.86431 0.0
C3038 C 0.19979 0.82925 0.88248 0.0
C3039 C 0.19786 0.87966 0.85897 0.0
C3040 C 0.19567 0.89172 0.84026 0.0
C3041 C 0.18722 0.87731 0.83159 0.0
C3042 C 0.18524 0.88858 0.81392 0.0
C3043 C 0.19164 0.91445 0.80482 0.0
C3044 C 0.20001 0.9292 0.81338 0.0
C3045 C 0.20202 0.91801 0.83104 0.0
H3046 H 0.19009 0.92312 0.79115 0.0
H3047 H 0.20843 0.81637 0.96328 0.0
H3048 H 0.97075 0.25696 0.59315 0.0
H3049 H 0.96848 0.19563 0.61067 0.0
H3050 H 0.9457 0.15664 0.57451 0.0
H3051 H 0.94794 0.21929 0.55685 0.0
H3052 H 0.93977 0.15288 0.60912 0.0
H3053 H 0.96727 0.10468 0.57673 0.0
H3054 H 0.98373 0.10661 0.56319 0.0
H3055 H 0.99666 0.11993 0.6152 0.0
H3056 H 0.98027 0.11868 0.62906 0.0
H3057 H 0.93809 0.95686 0.64924 0.0
H3058 H 0.93889 0.01723 0.63065 0.0
H3059 H 0.96057 0.06844 0.66604 0.0
H3060 H 0.95974 0.00725 0.68492 0.0
H3061 H 0.96658 0.06361 0.63054 0.0
H3062 H 0.93841 0.11246 0.66248 0.0
H3063 H 0.92181 0.10673 0.67519 0.0
H3064 H 0.90994 0.0877 0.62268 0.0
H3065 H 0.9265 0.09282 0.60965 0.0
C3066 C 0.96545 0.23474 0.58861 0.0
C3067 C 0.95959 0.24248 0.57358 0.0
C3068 C 0.96416 0.19966 0.59864 0.0
C3069 C 0.95697 0.17133 0.59387 0.0
C3070 C 0.95133 0.17808 0.57837 0.0
C3071 C 0.95268 0.21346 0.56817 0.0
C3072 C 0.95498 0.13673 0.60607 0.0
C3073 C 0.94559 0.13281 0.61354 0.0
C3074 C 0.96262 0.11119 0.61218 0.0
C3075 C 0.97252 0.11186 0.60392 0.0
C3076 C 0.97362 0.10833 0.58528 0.0
C3077 C 0.98294 0.10925 0.57755 0.0
C3078 C 0.99123 0.11346 0.58833 0.0
C3079 C 0.99023 0.11668 0.60687 0.0
C3080 C 0.98092 0.11581 0.61467 0.0
C3081 C 0.9428 0.98144 0.65341 0.0
C3082 C 0.94884 0.97749 0.66852 0.0
C3083 C 0.94324 0.01603 0.64276 0.0
C3084 C 0.94979 0.04732 0.64693 0.0
C3085 C 0.95545 0.04457 0.66263 0.0
C3086 C 0.9549 0.00992 0.67348 0.0
C3087 C 0.95144 0.08029 0.63379 0.0
C3088 C 0.96078 0.0837 0.62609 0.0
C3089 C 0.94372 0.10491 0.62734 0.0
C3090 C 0.93372 0.10273 0.6351 0.0
C3091 C 0.93227 0.10683 0.65364 0.0
C3092 C 0.92287 0.10373 0.66091 0.0
C3093 C 0.91483 0.09677 0.64976 0.0
C3094 C 0.91618 0.09309 0.6313 0.0
C3095 C 0.92557 0.09616 0.62397 0.0
H3096 H 0.90756 0.09431 0.65542 0.0
H3097 H 0.99844 0.11417 0.58231 0.0
H3098 H 0.81956 0.44599 0.61094 0.0
H3099 H 0.8193 0.50807 0.62827 0.0
H3100 H 0.80549 0.57072 0.58436 0.0
H3101 H 0.80589 0.50783 0.56651 0.0
H3102 H 0.81952 0.61814 0.60262 0.0
H3103 H 0.79156 0.53584 0.61714 0.0
H3104 H 0.7831 0.47283 0.62591 0.0
H3105 H 0.79913 0.47047 0.67532 0.0
H3106 H 0.80779 0.5332 0.66672 0.0
H3107 H 0.79758 0.77716 0.64874 0.0
H3108 H 0.80041 0.71553 0.63185 0.0
H3109 H 0.81365 0.65998 0.67816 0.0
H3110 H 0.81073 0.72257 0.6955 0.0
H3111 H 0.8009 0.60847 0.65954 0.0
H3112 H 0.82807 0.69373 0.64591 0.0
H3113 H 0.83618 0.75767 0.63736 0.0
H3114 H 0.82162 0.75511 0.58646 0.0
H3115 H 0.81327 0.69155 0.59484 0.0
C3116 C 0.81659 0.47295 0.60475 0.0
C3117 C 0.81264 0.47185 0.58738 0.0
C3118 C 0.81643 0.50849 0.61476 0.0
C3119 C 0.81218 0.54372 0.60778 0.0
C3120 C 0.80874 0.54365 0.59003 0.0
C3121 C 0.80898 0.50783 0.57985 0.0
C3122 C 0.81085 0.57949 0.61956 0.0
C3123 C 0.81535 0.61623 0.61494 0.0
C3124 C 0.80565 0.57654 0.63593 0.0
C3125 C 0.80039 0.53901 0.64121 0.0
C3126 C 0.79333 0.52173 0.62982 0.0
C3127 C 0.78849 0.48608 0.63477 0.0
C3128 C 0.79059 0.4676 0.65114 0.0
C3129 C 0.79752 0.4848 0.66263 0.0
C3130 C 0.80239 0.52041 0.65773 0.0
C3131 C 0.80109 0.75192 0.65545 0.0
C3132 C 0.80403 0.75485 0.67344 0.0
C3133 C 0.80273 0.7167 0.64571 0.0
C3134 C 0.80744 0.68355 0.65361 0.0
C3135 C 0.81008 0.68552 0.67179 0.0
C3136 C 0.8084 0.7211 0.68167 0.0
C3137 C 0.80951 0.64722 0.64256 0.0
C3138 C 0.80514 0.61034 0.64729 0.0
C3139 C 0.81483 0.65009 0.62631 0.0
C3140 C 0.81999 0.68795 0.62106 0.0
C3141 C 0.82654 0.70691 0.63293 0.0
C3142 C 0.83119 0.7431 0.62812 0.0
C3143 C 0.8294 0.76046 0.61138 0.0
C3144 C 0.82299 0.74162 0.59942 0.0
C3145 C 0.81831 0.70549 0.60419 0.0
H3146 H 0.833 0.78849 0.60768 0.0
H3147 H 0.78684 0.44001 0.65495 0.0
H3148 H 0.94321 0.51724 0.18752 0.0
H3149 H 0.94258 0.57966 0.16936 0.0
H3150 H 0.96761 0.53856 0.13911 0.0
H3151 H 0.96822 0.47692 0.15704 0.0
H3152 H 0.96815 0.62006 0.14407 0.0
H3153 H 0.94515 0.51778 0.12428 0.0
H3154 H 0.93149 0.47011 0.12918 0.0
H3155 H 0.91266 0.56937 0.14341 0.0
H3156 H 0.92625 0.61754 0.13877 0.0
H3157 H 0.96292 0.73043 0.0634 0.0
H3158 H 0.963 0.66913 0.08227 0.0
H3159 H 0.93902 0.7175 0.11318 0.0
H3160 H 0.93907 0.77831 0.09482 0.0
H3161 H 0.93768 0.63324 0.10828 0.0
H3162 H 0.96077 0.73553 0.12743 0.0
H3163 H 0.97464 0.78253 0.12339 0.0
H3164 H 0.99352 0.68236 0.11072 0.0
H3165 H 0.9797 0.6348 0.11441 0.0
C3166 C 0.94875 0.52244 0.1774 0.0
C3167 C 0.95576 0.49259 0.17359 0.0
C3168 C 0.94834 0.55776 0.16695 0.0
C3169 C 0.95497 0.56337 0.15272 0.0
C3170 C 0.96242 0.53488 0.14996 0.0
C3171 C 0.96276 0.49969 0.1602 0.0
C3172 C 0.95368 0.59632 0.13945 0.0
C3173 C 0.96152 0.6228 0.13618 0.0
C3174 C 0.94501 0.59992 0.12919 0.0
C3175 C 0.93673 0.5712 0.13133 0.0
C3176 C 0.9381 0.5294 0.1285 0.0
C3177 C 0.93037 0.50228 0.13123 0.0
C3178 C 0.92122 0.51665 0.13664 0.0
C3179 C 0.91975 0.55822 0.13922 0.0
C3180 C 0.92746 0.58546 0.13652 0.0
C3181 C 0.95747 0.72718 0.07384 0.0
C3182 C 0.95098 0.75902 0.07767 0.0
C3183 C 0.95756 0.69242 0.08467 0.0
C3184 C 0.95107 0.68909 0.09923 0.0
C3185 C 0.94407 0.71943 0.10203 0.0
C3186 C 0.94412 0.75426 0.0915 0.0
C3187 C 0.9522 0.65675 0.11282 0.0
C3188 C 0.94432 0.63047 0.11617 0.0
C3189 C 0.96085 0.6532 0.12312 0.0
C3190 C 0.96918 0.68169 0.12098 0.0
C3191 C 0.96785 0.72357 0.12362 0.0
C3192 C 0.97571 0.7503 0.12142 0.0
C3193 C 0.98495 0.73545 0.11675 0.0
C3194 C 0.98635 0.69382 0.11431 0.0
C3195 C 0.97851 0.66697 0.11645 0.0
H3196 H 0.99102 0.75619 0.11506 0.0
H3197 H 0.91526 0.49556 0.1388 0.0
H3198 H 0.81674 0.23513 0.18972 0.0
H3199 H 0.81807 0.17059 0.17316 0.0
H3200 H 0.7942 0.20766 0.139 0.0
H3201 H 0.79285 0.27107 0.15541 0.0
H3202 H 0.79307 0.12884 0.14541 0.0
H3203 H 0.81795 0.22539 0.12755 0.0
H3204 H 0.832 0.27063 0.13325 0.0
H3205 H 0.84915 0.16895 0.1508 0.0
H3206 H 0.83513 0.12317 0.14546 0.0
H3207 H 0.79961 0.02292 0.06459 0.0
H3208 H 0.8003 0.08247 0.08441 0.0
H3209 H 0.82125 0.021 0.11802 0.0
H3210 H 0.82043 0.96159 0.09857 0.0
H3211 H 0.82466 0.10774 0.11386 0.0
H3212 H 0.7995 0.0111 0.12992 0.0
H3213 H 0.78521 0.96757 0.12373 0.0
H3214 H 0.76838 0.07222 0.10871 0.0
H3215 H 0.78264 0.11632 0.11452 0.0
C3216 C 0.8116 0.22862 0.17907 0.0
C3217 C 0.8047 0.25777 0.17378 0.0
C3218 C 0.81242 0.1921 0.16951 0.0
C3219 C 0.80632 0.18462 0.15465 0.0
C3220 C 0.79898 0.21267 0.15035 0.0
C3221 C 0.79822 0.24892 0.15974 0.0
C3222 C 0.80794 0.14975 0.14245 0.0
C3223 C 0.79998 0.12435 0.1385 0.0
C3224 C 0.81697 0.14365 0.13349 0.0
C3225 C 0.82547 0.17094 0.13631 0.0
C3226 C 0.8247 0.21272 0.13272 0.0
C3227 C 0.83265 0.23846 0.13589 0.0
C3228 C 0.84145 0.2227 0.14244 0.0
C3229 C 0.84232 0.18112 0.14576 0.0
C3230 C 0.83438 0.15526 0.14267 0.0
C3231 C 0.80459 0.02278 0.07587 0.0
C3232 C 0.80993 0.98777 0.08015 0.0
C3233 C 0.80494 0.0566 0.08722 0.0
C3234 C 0.81076 0.05585 0.10276 0.0
C3235 C 0.81673 0.02216 0.10612 0.0
C3236 C 0.81622 0.98822 0.09502 0.0
C3237 C 0.80973 0.08763 0.11663 0.0
C3238 C 0.8178 0.11218 0.12089 0.0
C3239 C 0.80077 0.09331 0.12579 0.0
C3240 C 0.79216 0.06693 0.12247 0.0
C3241 C 0.79278 0.02478 0.12515 0.0
C3242 C 0.78468 2e-05 0.12173 0.0
C3243 C 0.7759 0.01711 0.11578 0.0
C3244 C 0.77519 0.05902 0.11328 0.0
C3245 C 0.78328 0.08391 0.11664 0.0
H3246 H 0.76964 -0.00211 0.11315 0.0
H3247 H 0.84759 0.24268 0.14492 0.0
H3248 H 0.56709 0.76275 0.93559 0.0
H3249 H 0.56808 0.82292 0.91619 0.0
H3250 H 0.54034 0.79094 0.89232 0.0
H3251 H 0.53955 0.7306 0.9112 0.0
H3252 H 0.55334 0.80281 0.86727 0.0
H3253 H 0.54333 0.87546 0.92019 0.0
H3254 H 0.54447 0.89689 0.95173 0.0
H3255 H 0.57307 0.94644 0.94208 0.0
H3256 H 0.57216 0.92484 0.91052 0.0
H3257 H 0.54465 0.98463 0.81655 0.0
H3258 H 0.54446 0.92367 0.83545 0.0
H3259 H 0.57181 0.96062 0.85943 0.0
H3260 H 0.57174 0.02178 0.84123 0.0
H3261 H 0.55942 0.94578 0.88442 0.0
H3262 H 0.56941 0.87452 0.83145 0.0
H3263 H 0.56843 0.85287 0.79993 0.0
H3264 H 0.54013 0.80039 0.80956 0.0
H3265 H 0.54089 0.82218 0.84109 0.0
C3266 C 0.56107 0.76961 0.92665 0.0
C3267 C 0.55318 0.74269 0.92499 0.0
C3268 C 0.56166 0.80374 0.91548 0.0
C3269 C 0.55428 0.81143 0.90273 0.0
C3270 C 0.54614 0.78557 0.90193 0.0
C3271 C 0.54564 0.7514 0.91285 0.0
C3272 C 0.55531 0.84435 0.88926 0.0
C3273 C 0.55455 0.83419 0.87103 0.0
C3274 C 0.55718 0.88506 0.89409 0.0
C3275 C 0.55771 0.89817 0.91304 0.0
C3276 C 0.54989 0.89065 0.92483 0.0
C3277 C 0.55049 0.90288 0.9427 0.0
C3278 C 0.55884 0.92292 0.94892 0.0
C3279 C 0.56661 0.93087 0.93725 0.0
C3280 C 0.56605 0.91868 0.91937 0.0
C3281 C 0.55077 0.97882 0.82542 0.0
C3282 C 0.55825 0.00764 0.82736 0.0
C3283 C 0.55065 0.94412 0.83628 0.0
C3284 C 0.55812 0.93753 0.84896 0.0
C3285 C 0.56592 0.9651 0.84991 0.0
C3286 C 0.56593 -6e-05 0.83936 0.0
C3287 C 0.55742 0.90431 0.86239 0.0
C3288 C 0.55824 0.9144 0.88062 0.0
C3289 C 0.55563 0.86351 0.85755 0.0
C3290 C 0.55517 0.85033 0.8386 0.0
C3291 C 0.56295 0.85864 0.82681 0.0
C3292 C 0.56244 0.84629 0.80895 0.0
C3293 C 0.55421 0.82536 0.80273 0.0
C3294 C 0.54649 0.81664 0.81438 0.0
C3295 C 0.54696 0.82895 0.83226 0.0
H3296 H 0.55383 0.81582 0.7889 0.0
H3297 H 0.55929 0.93235 0.96276 0.0
H3298 H 0.68639 0.51998 0.91807 0.0
H3299 H 0.68614 0.46019 0.89873 0.0
H3300 H 0.71691 0.4411 0.90899 0.0
H3301 H 0.71717 0.50172 0.92807 0.0
H3302 H 0.71325 0.44315 0.87391 0.0
H3303 H 0.69935 0.37469 0.92447 0.0
H3304 H 0.68774 0.36421 0.94929 0.0
H3305 H 0.66383 0.35963 0.91203 0.0
H3306 H 0.67529 0.37063 0.88698 0.0
H3307 H 0.71905 0.24779 0.83598 0.0
H3308 H 0.71811 0.3097 0.85388 0.0
H3309 H 0.68773 0.32374 0.83911 0.0
H3310 H 0.68873 0.26133 0.82107 0.0
H3311 H 0.69043 0.32615 0.87527 0.0
H3312 H 0.70447 0.39178 0.82458 0.0
H3313 H 0.71615 0.40166 0.79982 0.0
H3314 H 0.73983 0.4113 0.83738 0.0
H3315 H 0.72831 0.40089 0.86238 0.0
C3316 C 0.69302 0.50231 0.91659 0.0
C3317 C 0.70177 0.51499 0.92466 0.0
C3318 C 0.69288 0.46811 0.90554 0.0
C3319 C 0.70151 0.44608 0.90238 0.0
C3320 C 0.71016 0.45762 0.91122 0.0
C3321 C 0.71029 0.49187 0.92229 0.0
C3322 C 0.70172 0.41351 0.88862 0.0
C3323 C 0.70835 0.41723 0.87436 0.0
C3324 C 0.69508 0.38053 0.88882 0.0
C3325 C 0.68817 0.3739 0.90386 0.0
C3326 C 0.6916 0.3718 0.92157 0.0
C3327 C 0.68505 0.36569 0.93569 0.0
C3328 C 0.67505 0.36137 0.93225 0.0
C3329 C 0.67158 0.36304 0.91468 0.0
C3330 C 0.6781 0.36917 0.90052 0.0
C3331 C 0.7123 0.26506 0.83601 0.0
C3332 C 0.70404 0.25067 0.82686 0.0
C3333 C 0.71174 0.30028 0.8463 0.0
C3334 C 0.70286 0.32154 0.84776 0.0
C3335 C 0.69467 0.30793 0.83807 0.0
C3336 C 0.69526 0.2727 0.82761 0.0
C3337 C 0.70204 0.35558 0.8607 0.0
C3338 C 0.69528 0.35219 0.87478 0.0
C3339 C 0.70857 0.38887 0.86036 0.0
C3340 C 0.71553 0.39523 0.84536 0.0
C3341 C 0.71218 0.39568 0.82756 0.0
C3342 C 0.71877 0.40144 0.81348 0.0
C3343 C 0.72873 0.40702 0.81702 0.0
C3344 C 0.73211 0.40694 0.83466 0.0
C3345 C 0.72555 0.40117 0.84879 0.0
H3346 H 0.73382 0.41148 0.8061 0.0
H3347 H 0.66998 0.35664 0.94319 0.0
H3348 H 0.56799 0.48278 0.31766 0.0
H3349 H 0.56973 0.42277 0.33702 0.0
H3350 H 0.54356 0.45756 0.36561 0.0
H3351 H 0.54208 0.51771 0.34679 0.0
H3352 H 0.55752 0.44383 0.38837 0.0
H3353 H 0.54474 0.37288 0.3369 0.0
H3354 H 0.54439 0.35162 0.30528 0.0
H3355 H 0.573 0.29894 0.31079 0.0
H3356 H 0.57357 0.32033 0.3424 0.0
H3357 H 0.54855 0.26341 0.43943 0.0
H3358 H 0.54856 0.32461 0.42071 0.0
H3359 H 0.5746 0.28213 0.39383 0.0
H3360 H 0.57433 0.22066 0.41199 0.0
H3361 H 0.56168 0.30033 0.37018 0.0
H3362 H 0.57417 0.36862 0.42207 0.0
H3363 H 0.57449 0.3897 0.45371 0.0
H3364 H 0.54651 0.44746 0.44751 0.0
H3365 H 0.54595 0.42627 0.41588 0.0
C3366 C 0.56247 0.47665 0.32771 0.0
C3367 C 0.55484 0.50432 0.33067 0.0
C3368 C 0.56348 0.44259 0.33884 0.0
C3369 C 0.55678 0.43564 0.35286 0.0
C3370 C 0.54887 0.46234 0.35504 0.0
C3371 C 0.54796 0.49645 0.34417 0.0
C3372 C 0.55825 0.40241 0.36608 0.0
C3373 C 0.55832 0.41236 0.38438 0.0
C3374 C 0.55959 0.36152 0.36094 0.0
C3375 C 0.55924 0.34858 0.34196 0.0
C3376 C 0.55099 0.35704 0.33133 0.0
C3377 C 0.55074 0.34491 0.31342 0.0
C3378 C 0.55868 0.32405 0.30602 0.0
C3379 C 0.56687 0.31516 0.31653 0.0
C3380 C 0.56715 0.32725 0.33445 0.0
C3381 C 0.55446 0.26804 0.42997 0.0
C3382 C 0.56149 0.23767 0.42721 0.0
C3383 C 0.55445 0.30289 0.4192 0.0
C3384 C 0.56158 0.30806 0.40577 0.0
C3385 C 0.56898 0.2788 0.40396 0.0
C3386 C 0.56888 0.24384 0.41446 0.0
C3387 C 0.56086 0.34166 0.3925 0.0
C3388 C 0.56093 0.33181 0.37419 0.0
C3389 C 0.55965 0.38265 0.39764 0.0
C3390 C 0.55999 0.39555 0.41664 0.0
C3391 C 0.56805 0.38556 0.42749 0.0
C3392 C 0.56828 0.39758 0.44541 0.0
C3393 C 0.56051 0.41982 0.45263 0.0
C3394 C 0.55251 0.43019 0.44191 0.0
C3395 C 0.55224 0.41824 0.42397 0.0
H3396 H 0.56071 0.42908 0.46651 0.0
H3397 H 0.55848 0.31468 0.29215 0.0
H3398 H 0.70841 0.96992 0.44321 0.0
H3399 H 0.70719 0.90781 0.42496 0.0
H3400 H 0.70198 0.98054 0.37796 0.0
H3401 H 0.70325 0.04161 0.3957 0.0
H3402 H 0.69005 0.91441 0.37864 0.0
H3403 H 0.72445 0.94624 0.38636 0.0
H3404 H 0.73936 0.95951 0.40405 0.0
H3405 H 0.73702 0.84183 0.42832 0.0
H3406 H 0.72202 0.82809 0.41092 0.0
H3407 H 0.70167 0.76778 0.31009 0.0
H3408 H 0.70197 0.83072 0.32804 0.0
H3409 H 0.70793 0.76045 0.37551 0.0
H3410 H 0.70771 0.69875 0.35801 0.0
H3411 H 0.71935 0.82595 0.37431 0.0
H3412 H 0.6852 0.79298 0.36708 0.0
H3413 H 0.67018 0.77847 0.34991 0.0
H3414 H 0.67175 0.89619 0.32548 0.0
H3415 H 0.68687 0.91117 0.34234 0.0
C3416 C 0.7069 0.97245 0.42903 0.0
C3417 C 0.70595 0.0107 0.42094 0.0
C3418 C 0.70622 0.93709 0.41863 0.0
C3419 C 0.70453 0.93969 0.40007 0.0
C3420 C 0.70323 0.97778 0.39222 0.0
C3421 C 0.704 0.01279 0.40247 0.0
C3422 C 0.70467 0.90337 0.38839 0.0
C3423 C 0.69647 0.89517 0.3776 0.0
C3424 C 0.71302 0.87819 0.38712 0.0
C3425 C 0.72206 0.88633 0.3975 0.0
C3426 C 0.72708 0.92333 0.39557 0.0
C3427 C 0.73555 0.93091 0.40553 0.0
C3428 C 0.73912 0.90158 0.41734 0.0
C3429 C 0.73424 0.86455 0.41919 0.0
C3430 C 0.72576 0.85684 0.40928 0.0
C3431 C 0.70312 0.76608 0.32431 0.0
C3432 C 0.7046 0.72841 0.33265 0.0
C3433 C 0.70325 0.80185 0.33455 0.0
C3434 C 0.70492 0.80012 0.35314 0.0
C3435 C 0.70665 0.76257 0.36123 0.0
C3436 C 0.70646 0.72724 0.35115 0.0
C3437 C 0.70471 0.83679 0.36461 0.0
C3438 C 0.71291 0.84514 0.37533 0.0
C3439 C 0.69634 0.86186 0.36589 0.0
C3440 C 0.68723 0.853 0.35581 0.0
C3441 C 0.68239 0.81563 0.35793 0.0
C3442 C 0.67385 0.80735 0.34828 0.0
C3443 C 0.67003 0.83634 0.33657 0.0
C3444 C 0.67473 0.87373 0.33453 0.0
C3445 C 0.68328 0.88214 0.34413 0.0
H3446 H 0.66342 0.82988 0.32911 0.0
H3447 H 0.74568 0.9075 0.42504 0.0
H3448 H 0.43914 0.29156 0.09987 0.0
H3449 H 0.43805 0.23179 0.11891 0.0
H3450 H 0.45687 0.16637 0.08263 0.0
H3451 H 0.45777 0.22646 0.06314 0.0
H3452 H 0.44287 0.11696 0.09761 0.0
H3453 H 0.46642 0.21552 0.11845 0.0
H3454 H 0.47177 0.28372 0.12784 0.0
H3455 H 0.45092 0.28207 0.17082 0.0
H3456 H 0.44534 0.21405 0.16151 0.0
H3457 H 0.4657 0.97601 0.15104 0.0
H3458 H 0.46322 0.03825 0.13415 0.0
H3459 H 0.44273 0.0803 0.17395 0.0
H3460 H 0.44529 0.01724 0.19122 0.0
H3461 H 0.45564 0.14231 0.15884 0.0
H3462 H 0.43322 0.04017 0.1396 0.0
H3463 H 0.42847 0.971 0.13056 0.0
H3464 H 0.44742 0.97873 0.08485 0.0
H3465 H 0.45242 0.04773 0.09379 0.0
C3466 C 0.44287 0.26418 0.09572 0.0
C3467 C 0.44863 0.26367 0.08016 0.0
C3468 C 0.44227 0.23007 0.10666 0.0
C3469 C 0.44761 0.19503 0.10247 0.0
C3470 C 0.45275 0.19328 0.08617 0.0
C3471 C 0.45324 0.22746 0.07502 0.0
C3472 C 0.44848 0.16188 0.11582 0.0
C3473 C 0.44571 0.12246 0.11095 0.0
C3474 C 0.45195 0.16926 0.13341 0.0
C3475 C 0.4554 0.20989 0.13918 0.0
C3476 C 0.46294 0.22981 0.12983 0.0
C3477 C 0.46601 0.26842 0.13515 0.0
C3478 C 0.46167 0.28726 0.14989 0.0
C3479 C 0.45426 0.26746 0.15939 0.0
C3480 C 0.45115 0.22888 0.15411 0.0
C3481 C 0.46083 -0.0011 0.15644 0.0
C3482 C 0.45564 0.9919 0.17236 0.0
C3483 C 0.45939 0.03434 0.14673 0.0
C3484 C 0.45263 0.06336 0.1526 0.0
C3485 C 0.44793 0.05799 0.16918 0.0
C3486 C 0.44943 0.02225 0.17907 0.0
C3487 C 0.45013 0.09747 0.14054 0.0
C3488 C 0.45264 0.13699 0.14561 0.0
C3489 C 0.44641 0.0902 0.12313 0.0
C3490 C 0.44324 0.04908 0.11743 0.0
C3491 C 0.43642 0.02705 0.12767 0.0
C3492 C 0.43368 0.98786 0.12256 0.0
C3493 C 0.43766 0.97046 0.10715 0.0
C3494 C 0.44435 0.99226 0.09679 0.0
C3495 C 0.44713 0.03144 0.10185 0.0
H3496 H 0.43554 0.94009 0.10323 0.0
H3497 H 0.46406 0.31716 0.15398 0.0
H3498 H 0.30865 0.7908 0.14457 0.0
H3499 H 0.30903 0.72754 0.12835 0.0
H3500 H 0.30762 0.66104 0.17795 0.0
H3501 H 0.30734 0.72565 0.19474 0.0
H3502 H 0.32136 0.62977 0.15126 0.0
H3503 H 0.28757 0.66768 0.15586 0.0
H3504 H 0.27352 0.71454 0.15421 0.0
H3505 H 0.27875 0.73235 0.09812 0.0
H3506 H 0.29293 0.68606 0.0995 0.0
H3507 H 0.30741 0.44679 0.11097 0.0
H3508 H 0.30822 0.50795 0.12879 0.0
H3509 H 0.30678 0.58076 0.08092 0.0
H3510 H 0.30587 0.51858 0.06263 0.0
H3511 H 0.29445 0.60791 0.10761 0.0
H3512 H 0.32812 0.57072 0.10264 0.0
H3513 H 0.34225 0.52423 0.10382 0.0
H3514 H 0.33751 0.50572 0.16001 0.0
H3515 H 0.32323 0.55154 0.1591 0.0
C3516 C 0.30852 0.76296 0.15223 0.0
C3517 C 0.30791 0.76334 0.17102 0.0
C3518 C 0.3087 0.72671 0.14284 0.0
C3519 C 0.30818 0.68974 0.15192 0.0
C3520 C 0.30796 0.68949 0.17074 0.0
C3521 C 0.30779 0.72624 0.18028 0.0
C3522 C 0.30758 0.65197 0.14129 0.0
C3523 C 0.31539 0.62444 0.14197 0.0
C3524 C 0.29995 0.64602 0.12874 0.0
C3525 C 0.29136 0.6736 0.12782 0.0
C3526 C 0.28577 0.68181 0.1432 0.0
C3527 C 0.27778 0.70824 0.14231 0.0
C3528 C 0.27526 0.72647 0.12608 0.0
C3529 C 0.28071 0.71822 0.11069 0.0
C3530 C 0.28872 0.69185 0.11151 0.0
C3531 C 0.30732 0.47568 0.10408 0.0
C3532 C 0.30665 0.47784 0.08532 0.0
C3533 C 0.30782 0.51069 0.11436 0.0
C3534 C 0.30774 0.54883 0.10619 0.0
C3535 C 0.30693 0.55144 0.08745 0.0
C3536 C 0.30642 0.51606 0.07704 0.0
C3537 C 0.30823 0.58561 0.11752 0.0
C3538 C 0.3004 0.61303 0.11694 0.0
C3539 C 0.31587 0.59146 0.13012 0.0
C3540 C 0.32455 0.56435 0.13077 0.0
C3541 C 0.33005 0.55652 0.11523 0.0
C3542 C 0.33809 0.5303 0.11585 0.0
C3543 C 0.34077 0.51198 0.13197 0.0
C3544 C 0.33542 0.51992 0.14752 0.0
C3545 C 0.32736 0.54604 0.14697 0.0
H3546 H 0.34699 0.49168 0.13243 0.0
H3547 H 0.26906 0.74692 0.12542 0.0
H3548 H 0.46324 0.45921 0.64886 0.0
H3549 H 0.46261 0.51969 0.63019 0.0
H3550 H 0.44471 0.57963 0.66971 0.0
H3551 H 0.44547 0.51848 0.68882 0.0
H3552 H 0.4373 0.5821 0.63312 0.0
H3553 H 0.4665 0.61283 0.6656 0.0
H3554 H 0.48278 0.59952 0.67859 0.0
H3555 H 0.4945 0.57829 0.62614 0.0
H3556 H 0.47824 0.59088 0.61284 0.0
H3557 H 0.4413 0.77968 0.5969 0.0
H3558 H 0.44046 0.71703 0.61391 0.0
H3559 H 0.46111 0.66156 0.57772 0.0
H3560 H 0.46199 0.72526 0.5605 0.0
H3561 H 0.46688 0.65625 0.61263 0.0
H3562 H 0.43775 0.62737 0.57994 0.0
H3563 H 0.42155 0.64196 0.5669 0.0
H3564 H 0.40963 0.66012 0.61943 0.0
H3565 H 0.42581 0.6463 0.6328 0.0
C3566 C 0.4593 0.48551 0.65374 0.0
C3567 C 0.45444 0.48438 0.6703 0.0
C3568 C 0.45894 0.52001 0.64304 0.0
C3569 C 0.45362 0.5541 0.64855 0.0
C3570 C 0.44887 0.55353 0.66526 0.0
C3571 C 0.44937 0.51891 0.67621 0.0
C3572 C 0.45287 0.58936 0.63631 0.0
C3573 C 0.44372 0.5989 0.62886 0.0
C3574 C 0.46133 0.6101 0.6303 0.0
C3575 C 0.47112 0.60243 0.63824 0.0
C3576 C 0.47252 0.60494 0.65684 0.0
C3577 C 0.48175 0.59761 0.66426 0.0
C3578 C 0.48966 0.58797 0.6532 0.0
C3579 C 0.48836 0.58572 0.63469 0.0
C3580 C 0.47914 0.59299 0.6272 0.0
C3581 C 0.44547 0.75387 0.59224 0.0
C3582 C 0.45171 0.75726 0.5774 0.0
C3583 C 0.44495 0.71793 0.60197 0.0
C3584 C 0.45071 0.68453 0.59711 0.0
C3585 C 0.45659 0.68702 0.58167 0.0
C3586 C 0.45702 0.72315 0.57175 0.0
C3587 C 0.4513 0.64913 0.60935 0.0
C3588 C 0.46043 0.63949 0.61682 0.0
C3589 C 0.44283 0.62836 0.61535 0.0
C3590 C 0.43303 0.63611 0.60738 0.0
C3591 C 0.4317 0.63476 0.58872 0.0
C3592 C 0.42251 0.64286 0.58127 0.0
C3593 C 0.41457 0.65206 0.59233 0.0
C3594 C 0.41579 0.65303 0.61088 0.0
C3595 C 0.42497 0.64501 0.61841 0.0
H3596 H 0.40747 0.65838 0.58652 0.0
H3597 H 0.49681 0.58232 0.65897 0.0
H3598 H 0.31459 0.95119 0.60915 0.0
H3599 H 0.31491 0.0103 0.62842 0.0
H3600 H 0.30446 0.08462 0.58493 0.0
H3601 H 0.30436 0.02482 0.56515 0.0
H3602 H 0.31813 0.12415 0.60526 0.0
H3603 H 0.28864 0.04887 0.61628 0.0
H3604 H 0.27889 0.98789 0.62318 0.0
H3605 H 0.2937 0.97576 0.67357 0.0
H3606 H 0.30365 0.03638 0.66684 0.0
H3607 H 0.29701 0.2836 0.65088 0.0
H3608 H 0.29854 0.22018 0.63464 0.0
H3609 H 0.31245 0.16505 0.68038 0.0
H3610 H 0.31091 0.22962 0.69702 0.0
H3611 H 0.29819 0.11432 0.66068 0.0
H3612 H 0.32683 0.19434 0.65007 0.0
H3613 H 0.33572 0.25741 0.643 0.0
H3614 H 0.32187 0.26204 0.59148 0.0
H3615 H 0.31273 0.19942 0.59838 0.0
C3616 C 0.31245 0.98007 0.60352 0.0
C3617 C 0.30933 0.98323 0.58565 0.0
C3618 C 0.31261 0.0139 0.61464 0.0
C3619 C 0.30947 0.05165 0.60828 0.0
C3620 C 0.30684 0.0556 0.59015 0.0
C3621 C 0.30679 0.02154 0.57887 0.0
C3622 C 0.30856 0.08625 0.62088 0.0
C3623 C 0.3137 0.12212 0.61728 0.0
C3624 C 0.30298 0.08321 0.63684 0.0
C3625 C 0.29695 0.04693 0.64098 0.0
C3626 C 0.28987 0.03303 0.62877 0.0
C3627 C 0.2843 -0.00145 0.63266 0.0
C3628 C 0.28569 0.9779 0.64878 0.0
C3629 C 0.29264 0.99176 0.66107 0.0
C3630 C 0.29824 0.02619 0.65724 0.0
C3631 C 0.30028 0.25788 0.65765 0.0
C3632 C 0.30395 0.26157 0.67515 0.0
C3633 C 0.30116 0.22168 0.64831 0.0
C3634 C 0.30579 0.18831 0.65617 0.0
C3635 C 0.30891 0.19076 0.67408 0.0
C3636 C 0.308 0.22741 0.68358 0.0
C3637 C 0.30771 0.15213 0.64498 0.0
C3638 C 0.30273 0.11606 0.64879 0.0
C3639 C 0.3134 0.15504 0.62917 0.0
C3640 C 0.31904 0.19227 0.6248 0.0
C3641 C 0.32563 0.20894 0.63728 0.0
C3642 C 0.33072 0.24461 0.6333 0.0
C3643 C 0.32935 0.26375 0.61681 0.0
C3644 C 0.32292 0.24718 0.60425 0.0
C3645 C 0.31779 0.21157 0.60818 0.0
H3646 H 0.3333 0.29138 0.61376 0.0
H3647 H 0.28138 0.95121 0.65177 0.0
loop_
_geom_bond_atom_site_label_1
_geom_bond_atom_site_label_2
_geom_bond_distance
_geom_bond_site_symmetry_2
_ccdc_geom_bond_type
Co0 O1 2.216 . S
Co0 O2 2.091 . S
Co0 O4 2.004 . S
Co0 O10 2.021 . S
Co0 O12 2.137 . S
Co0 O13 2.244 . S
O1 Co0 2.216 . S
O1 C8 1.247 . S
O2 Co0 2.091 . S
O2 C8 1.261 . S
C3 O12 1.247 . S
C3 O13 1.272 . S
O4 Co0 2.004 . S
O4 C9 1.259 . S
Co5 O6 2.061 . S
Co5 O11 2.052 . S
Co5 O13 2.135 . S
O6 Co5 2.061 . S
O6 C9 1.235 . S
C7 O10 1.238 . S
C7 O11 1.241 . S
C8 O1 1.247 . S
C8 O2 1.261 . S
C9 O4 1.259 . S
C9 O6 1.235 . S
O10 Co0 2.021 . S
O10 C7 1.238 . S
O11 Co5 2.052 . S
O11 C7 1.241 . S
O12 Co0 2.137 . S
O12 C3 1.247 . S
O13 Co0 2.244 . S
O13 C3 1.272 . S
O13 Co5 2.135 . S
Co14 O15 2.216 . S
Co14 O16 2.091 . S
Co14 O18 2.004 . S
Co14 O24 2.021 . S
Co14 O26 2.137 . S
Co14 O27 2.244 . S
O15 Co14 2.216 . S
O15 C22 1.247 . S
O16 Co14 2.091 . S
O16 C22 1.261 . S
C17 O26 1.247 . S
C17 O27 1.272 . S
O18 Co14 2.004 . S
O18 C23 1.259 . S
Co19 O20 2.061 . S
Co19 O25 2.052 . S
Co19 O27 2.135 . S
O20 Co19 2.061 . S
O20 C23 1.235 . S
C21 O24 1.238 . S
C21 O25 1.241 . S
C22 O15 1.247 . S
C22 O16 1.261 . S
C23 O18 1.259 . S
C23 O20 1.235 . S
O24 Co14 2.021 . S
O24 C21 1.238 . S
O25 Co19 2.052 . S
O25 C21 1.241 . S
O26 Co14 2.137 . S
O26 C17 1.247 . S
O27 Co14 2.244 . S
O27 C17 1.272 . S
O27 Co19 2.135 . S
Co28 O29 2.216 . S
Co28 O30 2.091 . S
Co28 O32 2.004 . S
Co28 O38 2.021 . S
Co28 O40 2.137 . S
Co28 O41 2.244 . S
O29 Co28 2.216 . S
O29 C36 1.247 . S
O30 Co28 2.091 . S
O30 C36 1.261 . S
C31 O40 1.247 . S
C31 O41 1.272 . S
O32 Co28 2.004 . S
O32 C37 1.259 . S
Co33 O34 2.061 . S
Co33 O39 2.052 . S
Co33 O41 2.135 . S
O34 Co33 2.061 . S
O34 C37 1.235 . S
C35 O38 1.238 . S
C35 O39 1.241 . S
C36 O29 1.247 . S
C36 O30 1.261 . S
C37 O32 1.259 . S
C37 O34 1.235 . S
O38 Co28 2.021 . S
O38 C35 1.238 . S
O39 Co33 2.052 . S
O39 C35 1.241 . S
O40 Co28 2.137 . S
O40 C31 1.247 . S
O41 Co28 2.244 . S
O41 C31 1.272 . S
O41 Co33 2.135 . S
Co42 O43 2.216 . S
Co42 O44 2.091 . S
Co42 O46 2.004 . S
Co42 O52 2.021 . S
Co42 O54 2.137 . S
Co42 O55 2.244 . S
O43 Co42 2.216 . S
O43 C50 1.247 . S
O44 Co42 2.091 . S
O44 C50 1.261 . S
C45 O54 1.247 . S
C45 O55 1.272 . S
O46 Co42 2.004 . S
O46 C51 1.259 . S
Co47 O48 2.061 . S
Co47 O53 2.052 . S
Co47 O55 2.135 . S
O48 Co47 2.061 . S
O48 C51 1.235 . S
C49 O52 1.238 . S
C49 O53 1.241 . S
C50 O43 1.247 . S
C50 O44 1.261 . S
C51 O46 1.259 . S
C51 O48 1.235 . S
O52 Co42 2.021 . S
O52 C49 1.238 . S
O53 Co47 2.052 . S
O53 C49 1.241 . S
O54 Co42 2.137 . S
O54 C45 1.247 . S
O55 Co42 2.244 . S
O55 C45 1.272 . S
O55 Co47 2.135 . S
Co56 O57 2.216 . S
Co56 O58 2.091 . S
Co56 O60 2.004 . S
Co56 O66 2.021 . S
Co56 O68 2.137 . S
Co56 O69 2.244 . S
O57 Co56 2.216 . S
O57 C64 1.247 . S
O58 Co56 2.091 . S
O58 C64 1.261 . S
C59 O68 1.247 . S
C59 O69 1.272 . S
O60 Co56 2.004 . S
O60 C65 1.259 . S
Co61 O62 2.061 . S
Co61 O67 2.052 . S
Co61 O69 2.135 . S
O62 Co61 2.061 . S
O62 C65 1.235 . S
C63 O66 1.238 . S
C63 O67 1.241 . S
C64 O57 1.247 . S
C64 O58 1.261 . S
C65 O60 1.259 . S
C65 O62 1.235 . S
O66 Co56 2.021 . S
O66 C63 1.238 . S
O67 Co61 2.052 . S
O67 C63 1.241 . S
O68 Co56 2.137 . S
O68 C59 1.247 . S
O69 Co56 2.244 . S
O69 C59 1.272 . S
O69 Co61 2.135 . S
Co70 O71 2.216 . S
Co70 O72 2.091 . S
Co70 O74 2.004 . S
Co70 O80 2.021 . S
Co70 O82 2.137 . S
Co70 O83 2.244 . S
O71 Co70 2.216 . S
O71 C78 1.247 . S
O72 Co70 2.091 . S
O72 C78 1.261 . S
C73 O82 1.247 . S
C73 O83 1.272 . S
O74 Co70 2.004 . S
O74 C79 1.259 . S
Co75 O76 2.061 . S
Co75 O81 2.052 . S
Co75 O83 2.135 . S
O76 Co75 2.061 . S
O76 C79 1.235 . S
C77 O80 1.238 . S
C77 O81 1.241 . S
C78 O71 1.247 . S
C78 O72 1.261 . S
C79 O74 1.259 . S
C79 O76 1.235 . S
O80 Co70 2.021 . S
O80 C77 1.238 . S
O81 Co75 2.052 . S
O81 C77 1.241 . S
O82 Co70 2.137 . S
O82 C73 1.247 . S
O83 Co70 2.244 . S
O83 C73 1.272 . S
O83 Co75 2.135 . S
Co84 O85 2.216 . S
Co84 O86 2.091 . S
Co84 O88 2.004 . S
Co84 O94 2.021 . S
Co84 O96 2.137 . S
Co84 O97 2.244 . S
O85 Co84 2.216 . S
O85 C92 1.247 . S
O86 Co84 2.091 . S
O86 C92 1.261 . S
C87 O96 1.247 . S
C87 O97 1.272 . S
O88 Co84 2.004 . S
O88 C93 1.259 . S
Co89 O90 2.061 . S
Co89 O95 2.052 . S
Co89 O97 2.135 . S
O90 Co89 2.061 . S
O90 C93 1.235 . S
C91 O94 1.238 . S
C91 O95 1.241 . S
C92 O85 1.247 . S
C92 O86 1.261 . S
C93 O88 1.259 . S
C93 O90 1.235 . S
O94 Co84 2.021 . S
O94 C91 1.238 . S
O95 Co89 2.052 . S
O95 C91 1.241 . S
O96 Co84 2.137 . S
O96 C87 1.247 . S
O97 Co84 2.244 . S
O97 C87 1.272 . S
O97 Co89 2.135 . S
Co98 O99 2.216 . S
Co98 O100 2.091 . S
Co98 O102 2.004 . S
Co98 O108 2.021 . S
Co98 O110 2.137 . S
Co98 O111 2.244 . S
O99 Co98 2.216 . S
O99 C106 1.247 . S
O100 Co98 2.091 . S
O100 C106 1.261 . S
C101 O110 1.247 . S
C101 O111 1.272 . S
O102 Co98 2.004 . S
O102 C107 1.259 . S
Co103 O104 2.061 . S
Co103 O109 2.052 . S
Co103 O111 2.135 . S
O104 Co103 2.061 . S
O104 C107 1.235 . S
C105 O108 1.238 . S
C105 O109 1.241 . S
C106 O99 1.247 . S
C106 O100 1.261 . S
C107 O102 1.259 . S
C107 O104 1.235 . S
O108 Co98 2.021 . S
O108 C105 1.238 . S
O109 Co103 2.052 . S
O109 C105 1.241 . S
O110 Co98 2.137 . S
O110 C101 1.247 . S
O111 Co98 2.244 . S
O111 C101 1.272 . S
O111 Co103 2.135 . S
Co112 O113 2.216 . S
Co112 O114 2.091 . S
Co112 O116 2.004 . S
Co112 O122 2.021 . S
Co112 O124 2.137 . S
Co112 O125 2.244 . S
O113 Co112 2.216 . S
O113 C120 1.247 . S
O114 Co112 2.091 . S
O114 C120 1.261 . S
C115 O124 1.247 . S
C115 O125 1.272 . S
O116 Co112 2.004 . S
O116 C121 1.259 . S
Co117 O118 2.061 . S
Co117 O123 2.052 . S
Co117 O125 2.135 . S
O118 Co117 2.061 . S
O118 C121 1.235 . S
C119 O122 1.238 . S
C119 O123 1.241 . S
C120 O113 1.247 . S
C120 O114 1.261 . S
C121 O116 1.259 . S
C121 O118 1.235 . S
O122 Co112 2.021 . S
O122 C119 1.238 . S
O123 Co117 2.052 . S
O123 C119 1.241 . S
O124 Co112 2.137 . S
O124 C115 1.247 . S
O125 Co112 2.244 . S
O125 C115 1.272 . S
O125 Co117 2.135 . S
Co126 O127 2.216 . S
Co126 O128 2.091 . S
Co126 O130 2.004 . S
Co126 O136 2.021 . S
Co126 O138 2.137 . S
Co126 O139 2.244 . S
O127 Co126 2.216 . S
O127 C134 1.247 . S
O128 Co126 2.091 . S
O128 C134 1.261 . S
C129 O138 1.247 . S
C129 O139 1.272 . S
O130 Co126 2.004 . S
O130 C135 1.259 . S
Co131 O132 2.061 . S
Co131 O137 2.052 . S
Co131 O139 2.135 . S
O132 Co131 2.061 . S
O132 C135 1.235 . S
C133 O136 1.238 . S
C133 O137 1.241 . S
C134 O127 1.247 . S
C134 O128 1.261 . S
C135 O130 1.259 . S
C135 O132 1.235 . S
O136 Co126 2.021 . S
O136 C133 1.238 . S
O137 Co131 2.052 . S
O137 C133 1.241 . S
O138 Co126 2.137 . S
O138 C129 1.247 . S
O139 Co126 2.244 . S
O139 C129 1.272 . S
O139 Co131 2.135 . S
Co140 O141 2.216 . S
Co140 O142 2.091 . S
Co140 O144 2.004 . S
Co140 O150 2.021 . S
Co140 O152 2.137 . S
Co140 O153 2.244 . S
O141 Co140 2.216 . S
O141 C148 1.247 . S
O142 Co140 2.091 . S
O142 C148 1.261 . S
C143 O152 1.247 . S
C143 O153 1.272 . S
O144 Co140 2.004 . S
O144 C149 1.259 . S
Co145 O146 2.061 . S
Co145 O151 2.052 . S
Co145 O153 2.135 . S
O146 Co145 2.061 . S
O146 C149 1.235 . S
C147 O150 1.238 . S
C147 O151 1.241 . S
C148 O141 1.247 . S
C148 O142 1.261 . S
C149 O144 1.259 . S
C149 O146 1.235 . S
O150 Co140 2.021 . S
O150 C147 1.238 . S
O151 Co145 2.052 . S
O151 C147 1.241 . S
O152 Co140 2.137 . S
O152 C143 1.247 . S
O153 Co140 2.244 . S
O153 C143 1.272 . S
O153 Co145 2.135 . S
Co154 O155 2.216 . S
Co154 O156 2.091 . S
Co154 O158 2.004 . S
Co154 O164 2.021 . S
Co154 O166 2.137 . S
Co154 O167 2.244 . S
O155 Co154 2.216 . S
O155 C162 1.247 . S
O156 Co154 2.091 . S
O156 C162 1.261 . S
C157 O166 1.247 . S
C157 O167 1.272 . S
O158 Co154 2.004 . S
O158 C163 1.259 . S
Co159 O160 2.061 . S
Co159 O165 2.052 . S
Co159 O167 2.135 . S
O160 Co159 2.061 . S
O160 C163 1.235 . S
C161 O164 1.238 . S
C161 O165 1.241 . S
C162 O155 1.247 . S
C162 O156 1.261 . S
C163 O158 1.259 . S
C163 O160 1.235 . S
O164 Co154 2.021 . S
O164 C161 1.238 . S
O165 Co159 2.052 . S
O165 C161 1.241 . S
O166 Co154 2.137 . S
O166 C157 1.247 . S
O167 Co154 2.244 . S
O167 C157 1.272 . S
O167 Co159 2.135 . S
Co168 O169 2.216 . S
Co168 O170 2.091 . S
Co168 O172 2.004 . S
Co168 O178 2.021 . S
Co168 O180 2.137 . S
Co168 O181 2.244 . S
O169 Co168 2.216 . S
O169 C176 1.247 . S
O170 Co168 2.091 . S
O170 C176 1.261 . S
C171 O180 1.247 . S
C171 O181 1.272 . S
O172 Co168 2.004 . S
O172 C177 1.259 . S
Co173 O174 2.061 . S
Co173 O179 2.052 . S
Co173 O181 2.135 . S
O174 Co173 2.061 . S
O174 C177 1.235 . S
C175 O178 1.238 . S
C175 O179 1.241 . S
C176 O169 1.247 . S
C176 O170 1.261 . S
C177 O172 1.259 . S
C177 O174 1.235 . S
O178 Co168 2.021 . S
O178 C175 1.238 . S
O179 Co173 2.052 . S
O179 C175 1.241 . S
O180 Co168 2.137 . S
O180 C171 1.247 . S
O181 Co168 2.244 . S
O181 C171 1.272 . S
O181 Co173 2.135 . S
Co182 O183 2.216 . S
Co182 O184 2.091 . S
Co182 O186 2.004 . S
Co182 O192 2.021 . S
Co182 O194 2.137 . S
Co182 O195 2.244 . S
O183 Co182 2.216 . S
O183 C190 1.247 . S
O184 Co182 2.091 . S
O184 C190 1.261 . S
C185 O194 1.247 . S
C185 O195 1.272 . S
O186 Co182 2.004 . S
O186 C191 1.259 . S
Co187 O188 2.061 . S
Co187 O193 2.052 . S
Co187 O195 2.135 . S
O188 Co187 2.061 . S
O188 C191 1.235 . S
C189 O192 1.238 . S
C189 O193 1.241 . S
C190 O183 1.247 . S
C190 O184 1.261 . S
C191 O186 1.259 . S
C191 O188 1.235 . S
O192 Co182 2.021 . S
O192 C189 1.238 . S
O193 Co187 2.052 . S
O193 C189 1.241 . S
O194 Co182 2.137 . S
O194 C185 1.247 . S
O195 Co182 2.244 . S
O195 C185 1.272 . S
O195 Co187 2.135 . S
Co196 O197 2.216 . S
Co196 O198 2.091 . S
Co196 O200 2.004 . S
Co196 O206 2.021 . S
Co196 O208 2.137 . S
Co196 O209 2.244 . S
O197 Co196 2.216 . S
O197 C204 1.247 . S
O198 Co196 2.091 . S
O198 C204 1.261 . S
C199 O208 1.247 . S
C199 O209 1.272 . S
O200 Co196 2.004 . S
O200 C205 1.259 . S
Co201 O202 2.061 . S
Co201 O207 2.052 . S
Co201 O209 2.135 . S
O202 Co201 2.061 . S
O202 C205 1.235 . S
C203 O206 1.238 . S
C203 O207 1.241 . S
C204 O197 1.247 . S
C204 O198 1.261 . S
C205 O200 1.259 . S
C205 O202 1.235 . S
O206 Co196 2.021 . S
O206 C203 1.238 . S
O207 Co201 2.052 . S
O207 C203 1.241 . S
O208 Co196 2.137 . S
O208 C199 1.247 . S
O209 Co196 2.244 . S
O209 C199 1.272 . S
O209 Co201 2.135 . S
Co210 O211 2.216 . S
Co210 O212 2.091 . S
Co210 O214 2.004 . S
Co210 O220 2.021 . S
Co210 O222 2.137 . S
Co210 O223 2.244 . S
O211 Co210 2.216 . S
O211 C218 1.247 . S
O212 Co210 2.091 . S
O212 C218 1.261 . S
C213 O222 1.247 . S
C213 O223 1.272 . S
O214 Co210 2.004 . S
O214 C219 1.259 . S
Co215 O216 2.061 . S
Co215 O221 2.052 . S
Co215 O223 2.135 . S
O216 Co215 2.061 . S
O216 C219 1.235 . S
C217 O220 1.238 . S
C217 O221 1.241 . S
C218 O211 1.247 . S
C218 O212 1.261 . S
C219 O214 1.259 . S
C219 O216 1.235 . S
O220 Co210 2.021 . S
O220 C217 1.238 . S
O221 Co215 2.052 . S
O221 C217 1.241 . S
O222 Co210 2.137 . S
O222 C213 1.247 . S
O223 Co210 2.244 . S
O223 C213 1.272 . S
O223 Co215 2.135 . S
Co224 O225 2.216 . S
Co224 O226 2.091 . S
Co224 O228 2.004 . S
Co224 O234 2.021 . S
Co224 O236 2.137 . S
Co224 O237 2.244 . S
O225 Co224 2.216 . S
O225 C232 1.247 . S
O226 Co224 2.091 . S
O226 C232 1.261 . S
C227 O236 1.247 . S
C227 O237 1.272 . S
O228 Co224 2.004 . S
O228 C233 1.259 . S
Co229 O230 2.061 . S
Co229 O235 2.052 . S
Co229 O237 2.135 . S
O230 Co229 2.061 . S
O230 C233 1.235 . S
C231 O234 1.238 . S
C231 O235 1.241 . S
C232 O225 1.247 . S
C232 O226 1.261 . S
C233 O228 1.259 . S
C233 O230 1.235 . S
O234 Co224 2.021 . S
O234 C231 1.238 . S
O235 Co229 2.052 . S
O235 C231 1.241 . S
O236 Co224 2.137 . S
O236 C227 1.247 . S
O237 Co224 2.244 . S
O237 C227 1.272 . S
O237 Co229 2.135 . S
Co238 O239 2.216 . S
Co238 O240 2.091 . S
Co238 O242 2.004 . S
Co238 O248 2.021 . S
Co238 O250 2.137 . S
Co238 O251 2.244 . S
O239 Co238 2.216 . S
O239 C246 1.247 . S
O240 Co238 2.091 . S
O240 C246 1.261 . S
C241 O250 1.247 . S
C241 O251 1.272 . S
O242 Co238 2.004 . S
O242 C247 1.259 . S
Co243 O244 2.061 . S
Co243 O249 2.052 . S
Co243 O251 2.135 . S
O244 Co243 2.061 . S
O244 C247 1.235 . S
C245 O248 1.238 . S
C245 O249 1.241 . S
C246 O239 1.247 . S
C246 O240 1.261 . S
C247 O242 1.259 . S
C247 O244 1.235 . S
O248 Co238 2.021 . S
O248 C245 1.238 . S
O249 Co243 2.052 . S
O249 C245 1.241 . S
O250 Co238 2.137 . S
O250 C241 1.247 . S
O251 Co238 2.244 . S
O251 C241 1.272 . S
O251 Co243 2.135 . S
Co252 O253 2.216 . S
Co252 O254 2.091 . S
Co252 O256 2.004 . S
Co252 O262 2.021 . S
Co252 O264 2.137 . S
Co252 O265 2.244 . S
O253 Co252 2.216 . S
O253 C260 1.247 . S
O254 Co252 2.091 . S
O254 C260 1.261 . S
C255 O264 1.247 . S
C255 O265 1.272 . S
O256 Co252 2.004 . S
O256 C261 1.259 . S
Co257 O258 2.061 . S
Co257 O263 2.052 . S
Co257 O265 2.135 . S
O258 Co257 2.061 . S
O258 C261 1.235 . S
C259 O262 1.238 . S
C259 O263 1.241 . S
C260 O253 1.247 . S
C260 O254 1.261 . S
C261 O256 1.259 . S
C261 O258 1.235 . S
O262 Co252 2.021 . S
O262 C259 1.238 . S
O263 Co257 2.052 . S
O263 C259 1.241 . S
O264 Co252 2.137 . S
O264 C255 1.247 . S
O265 Co252 2.244 . S
O265 C255 1.272 . S
O265 Co257 2.135 . S
Co266 O267 2.216 . S
Co266 O268 2.091 . S
Co266 O270 2.004 . S
Co266 O276 2.021 . S
Co266 O278 2.137 . S
Co266 O279 2.244 . S
O267 Co266 2.216 . S
O267 C274 1.247 . S
O268 Co266 2.091 . S
O268 C274 1.261 . S
C269 O278 1.247 . S
C269 O279 1.272 . S
O270 Co266 2.004 . S
O270 C275 1.259 . S
Co271 O272 2.061 . S
Co271 O277 2.052 . S
Co271 O279 2.135 . S
O272 Co271 2.061 . S
O272 C275 1.235 . S
C273 O276 1.238 . S
C273 O277 1.241 . S
C274 O267 1.247 . S
C274 O268 1.261 . S
C275 O270 1.259 . S
C275 O272 1.235 . S
O276 Co266 2.021 . S
O276 C273 1.238 . S
O277 Co271 2.052 . S
O277 C273 1.241 . S
O278 Co266 2.137 . S
O278 C269 1.247 . S
O279 Co266 2.244 . S
O279 C269 1.272 . S
O279 Co271 2.135 . S
Co280 O281 2.216 . S
Co280 O282 2.091 . S
Co280 O284 2.004 . S
Co280 O290 2.021 . S
Co280 O292 2.137 . S
Co280 O293 2.244 . S
O281 Co280 2.216 . S
O281 C288 1.247 . S
O282 Co280 2.091 . S
O282 C288 1.261 . S
C283 O292 1.247 . S
C283 O293 1.272 . S
O284 Co280 2.004 . S
O284 C289 1.259 . S
Co285 O286 2.061 . S
Co285 O291 2.052 . S
Co285 O293 2.135 . S
O286 Co285 2.061 . S
O286 C289 1.235 . S
C287 O290 1.238 . S
C287 O291 1.241 . S
C288 O281 1.247 . S
C288 O282 1.261 . S
C289 O284 1.259 . S
C289 O286 1.235 . S
O290 Co280 2.021 . S
O290 C287 1.238 . S
O291 Co285 2.052 . S
O291 C287 1.241 . S
O292 Co280 2.137 . S
O292 C283 1.247 . S
O293 Co280 2.244 . S
O293 C283 1.272 . S
O293 Co285 2.135 . S
Co294 O295 2.216 . S
Co294 O296 2.091 . S
Co294 O298 2.004 . S
Co294 O304 2.021 . S
Co294 O306 2.137 . S
Co294 O307 2.244 . S
O295 Co294 2.216 . S
O295 C302 1.247 . S
O296 Co294 2.091 . S
O296 C302 1.261 . S
C297 O306 1.247 . S
C297 O307 1.272 . S
O298 Co294 2.004 . S
O298 C303 1.259 . S
Co299 O300 2.061 . S
Co299 O305 2.052 . S
Co299 O307 2.135 . S
O300 Co299 2.061 . S
O300 C303 1.235 . S
C301 O304 1.238 . S
C301 O305 1.241 . S
C302 O295 1.247 . S
C302 O296 1.261 . S
C303 O298 1.259 . S
C303 O300 1.235 . S
O304 Co294 2.021 . S
O304 C301 1.238 . S
O305 Co299 2.052 . S
O305 C301 1.241 . S
O306 Co294 2.137 . S
O306 C297 1.247 . S
O307 Co294 2.244 . S
O307 C297 1.272 . S
O307 Co299 2.135 . S
Co308 O309 2.216 . S
Co308 O310 2.091 . S
Co308 O312 2.004 . S
Co308 O318 2.021 . S
Co308 O320 2.137 . S
Co308 O321 2.244 . S
O309 Co308 2.216 . S
O309 C316 1.247 . S
O310 Co308 2.091 . S
O310 C316 1.261 . S
C311 O320 1.247 . S
C311 O321 1.272 . S
O312 Co308 2.004 . S
O312 C317 1.259 . S
Co313 O314 2.061 . S
Co313 O319 2.052 . S
Co313 O321 2.135 . S
O314 Co313 2.061 . S
O314 C317 1.235 . S
C315 O318 1.238 . S
C315 O319 1.241 . S
C316 O309 1.247 . S
C316 O310 1.261 . S
C317 O312 1.259 . S
C317 O314 1.235 . S
O318 Co308 2.021 . S
O318 C315 1.238 . S
O319 Co313 2.052 . S
O319 C315 1.241 . S
O320 Co308 2.137 . S
O320 C311 1.247 . S
O321 Co308 2.244 . S
O321 C311 1.272 . S
O321 Co313 2.135 . S
Co322 O323 2.216 . S
Co322 O324 2.091 . S
Co322 O326 2.004 . S
Co322 O332 2.021 . S
Co322 O334 2.137 . S
Co322 O335 2.244 . S
O323 Co322 2.216 . S
O323 C330 1.247 . S
O324 Co322 2.091 . S
O324 C330 1.261 . S
C325 O334 1.247 . S
C325 O335 1.272 . S
O326 Co322 2.004 . S
O326 C331 1.259 . S
Co327 O328 2.061 . S
Co327 O333 2.052 . S
Co327 O335 2.135 . S
O328 Co327 2.061 . S
O328 C331 1.235 . S
C329 O332 1.238 . S
C329 O333 1.241 . S
C330 O323 1.247 . S
C330 O324 1.261 . S
C331 O326 1.259 . S
C331 O328 1.235 . S
O332 Co322 2.021 . S
O332 C329 1.238 . S
O333 Co327 2.052 . S
O333 C329 1.241 . S
O334 Co322 2.137 . S
O334 C325 1.247 . S
O335 Co322 2.244 . S
O335 C325 1.272 . S
O335 Co327 2.135 . S
Co336 O337 2.216 . S
Co336 O338 2.091 . S
Co336 O340 2.004 . S
Co336 O346 2.021 . S
Co336 O348 2.137 . S
Co336 O349 2.244 . S
O337 Co336 2.216 . S
O337 C344 1.247 . S
O338 Co336 2.091 . S
O338 C344 1.261 . S
C339 O348 1.247 . S
C339 O349 1.272 . S
O340 Co336 2.004 . S
O340 C345 1.259 . S
Co341 O342 2.061 . S
Co341 O347 2.052 . S
Co341 O349 2.135 . S
O342 Co341 2.061 . S
O342 C345 1.235 . S
C343 O346 1.238 . S
C343 O347 1.241 . S
C344 O337 1.247 . S
C344 O338 1.261 . S
C345 O340 1.259 . S
C345 O342 1.235 . S
O346 Co336 2.021 . S
O346 C343 1.238 . S
O347 Co341 2.052 . S
O347 C343 1.241 . S
O348 Co336 2.137 . S
O348 C339 1.247 . S
O349 Co336 2.244 . S
O349 C339 1.272 . S
O349 Co341 2.135 . S
Co350 O351 2.216 . S
Co350 O352 2.091 . S
Co350 O354 2.004 . S
Co350 O360 2.021 . S
Co350 O362 2.137 . S
Co350 O363 2.244 . S
O351 Co350 2.216 . S
O351 C358 1.247 . S
O352 Co350 2.091 . S
O352 C358 1.261 . S
C353 O362 1.247 . S
C353 O363 1.272 . S
O354 Co350 2.004 . S
O354 C359 1.259 . S
Co355 O356 2.061 . S
Co355 O361 2.052 . S
Co355 O363 2.135 . S
O356 Co355 2.061 . S
O356 C359 1.235 . S
C357 O360 1.238 . S
C357 O361 1.241 . S
C358 O351 1.247 . S
C358 O352 1.261 . S
C359 O354 1.259 . S
C359 O356 1.235 . S
O360 Co350 2.021 . S
O360 C357 1.238 . S
O361 Co355 2.052 . S
O361 C357 1.241 . S
O362 Co350 2.137 . S
O362 C353 1.247 . S
O363 Co350 2.244 . S
O363 C353 1.272 . S
O363 Co355 2.135 . S
Co364 O365 2.216 . S
Co364 O366 2.091 . S
Co364 O368 2.004 . S
Co364 O374 2.021 . S
Co364 O376 2.137 . S
Co364 O377 2.244 . S
O365 Co364 2.216 . S
O365 C372 1.247 . S
O366 Co364 2.091 . S
O366 C372 1.261 . S
C367 O376 1.247 . S
C367 O377 1.272 . S
O368 Co364 2.004 . S
O368 C373 1.259 . S
Co369 O370 2.061 . S
Co369 O375 2.052 . S
Co369 O377 2.135 . S
O370 Co369 2.061 . S
O370 C373 1.235 . S
C371 O374 1.238 . S
C371 O375 1.241 . S
C372 O365 1.247 . S
C372 O366 1.261 . S
C373 O368 1.259 . S
C373 O370 1.235 . S
O374 Co364 2.021 . S
O374 C371 1.238 . S
O375 Co369 2.052 . S
O375 C371 1.241 . S
O376 Co364 2.137 . S
O376 C367 1.247 . S
O377 Co364 2.244 . S
O377 C367 1.272 . S
O377 Co369 2.135 . S
Co378 O379 2.216 . S
Co378 O380 2.091 . S
Co378 O382 2.004 . S
Co378 O388 2.021 . S
Co378 O390 2.137 . S
Co378 O391 2.244 . S
O379 Co378 2.216 . S
O379 C386 1.247 . S
O380 Co378 2.091 . S
O380 C386 1.261 . S
C381 O390 1.247 . S
C381 O391 1.272 . S
O382 Co378 2.004 . S
O382 C387 1.259 . S
Co383 O384 2.061 . S
Co383 O389 2.052 . S
Co383 O391 2.135 . S
O384 Co383 2.061 . S
O384 C387 1.235 . S
C385 O388 1.238 . S
C385 O389 1.241 . S
C386 O379 1.247 . S
C386 O380 1.261 . S
C387 O382 1.259 . S
C387 O384 1.235 . S
O388 Co378 2.021 . S
O388 C385 1.238 . S
O389 Co383 2.052 . S
O389 C385 1.241 . S
O390 Co378 2.137 . S
O390 C381 1.247 . S
O391 Co378 2.244 . S
O391 C381 1.272 . S
O391 Co383 2.135 . S
Co392 O393 2.216 . S
Co392 O394 2.091 . S
Co392 O396 2.004 . S
Co392 O402 2.021 . S
Co392 O404 2.137 . S
Co392 O405 2.244 . S
O393 Co392 2.216 . S
O393 C400 1.247 . S
O394 Co392 2.091 . S
O394 C400 1.261 . S
C395 O404 1.247 . S
C395 O405 1.272 . S
O396 Co392 2.004 . S
O396 C401 1.259 . S
Co397 O398 2.061 . S
Co397 O403 2.052 . S
Co397 O405 2.135 . S
O398 Co397 2.061 . S
O398 C401 1.235 . S
C399 O402 1.238 . S
C399 O403 1.241 . S
C400 O393 1.247 . S
C400 O394 1.261 . S
C401 O396 1.259 . S
C401 O398 1.235 . S
O402 Co392 2.021 . S
O402 C399 1.238 . S
O403 Co397 2.052 . S
O403 C399 1.241 . S
O404 Co392 2.137 . S
O404 C395 1.247 . S
O405 Co392 2.244 . S
O405 C395 1.272 . S
O405 Co397 2.135 . S
Co406 O407 2.216 . S
Co406 O408 2.091 . S
Co406 O410 2.004 . S
Co406 O416 2.021 . S
Co406 O418 2.137 . S
Co406 O419 2.244 . S
O407 Co406 2.216 . S
O407 C414 1.247 . S
O408 Co406 2.091 . S
O408 C414 1.261 . S
C409 O418 1.247 . S
C409 O419 1.272 . S
O410 Co406 2.004 . S
O410 C415 1.259 . S
Co411 O412 2.061 . S
Co411 O417 2.052 . S
Co411 O419 2.135 . S
O412 Co411 2.061 . S
O412 C415 1.235 . S
C413 O416 1.238 . S
C413 O417 1.241 . S
C414 O407 1.247 . S
C414 O408 1.261 . S
C415 O410 1.259 . S
C415 O412 1.235 . S
O416 Co406 2.021 . S
O416 C413 1.238 . S
O417 Co411 2.052 . S
O417 C413 1.241 . S
O418 Co406 2.137 . S
O418 C409 1.247 . S
O419 Co406 2.244 . S
O419 C409 1.272 . S
O419 Co411 2.135 . S
Co420 O421 2.216 . S
Co420 O422 2.091 . S
Co420 O424 2.004 . S
Co420 O430 2.021 . S
Co420 O432 2.137 . S
Co420 O433 2.244 . S
O421 Co420 2.216 . S
O421 C428 1.247 . S
O422 Co420 2.091 . S
O422 C428 1.261 . S
C423 O432 1.247 . S
C423 O433 1.272 . S
O424 Co420 2.004 . S
O424 C429 1.259 . S
Co425 O426 2.061 . S
Co425 O431 2.052 . S
Co425 O433 2.135 . S
O426 Co425 2.061 . S
O426 C429 1.235 . S
C427 O430 1.238 . S
C427 O431 1.241 . S
C428 O421 1.247 . S
C428 O422 1.261 . S
C429 O424 1.259 . S
C429 O426 1.235 . S
O430 Co420 2.021 . S
O430 C427 1.238 . S
O431 Co425 2.052 . S
O431 C427 1.241 . S
O432 Co420 2.137 . S
O432 C423 1.247 . S
O433 Co420 2.244 . S
O433 C423 1.272 . S
O433 Co425 2.135 . S
Co434 O435 2.216 . S
Co434 O436 2.091 . S
Co434 O438 2.004 . S
Co434 O444 2.021 . S
Co434 O446 2.137 . S
Co434 O447 2.244 . S
O435 Co434 2.216 . S
O435 C442 1.247 . S
O436 Co434 2.091 . S
O436 C442 1.261 . S
C437 O446 1.247 . S
C437 O447 1.272 . S
O438 Co434 2.004 . S
O438 C443 1.259 . S
Co439 O440 2.061 . S
Co439 O445 2.052 . S
Co439 O447 2.135 . S
O440 Co439 2.061 . S
O440 C443 1.235 . S
C441 O444 1.238 . S
C441 O445 1.241 . S
C442 O435 1.247 . S
C442 O436 1.261 . S
C443 O438 1.259 . S
C443 O440 1.235 . S
O444 Co434 2.021 . S
O444 C441 1.238 . S
O445 Co439 2.052 . S
O445 C441 1.241 . S
O446 Co434 2.137 . S
O446 C437 1.247 . S
O447 Co434 2.244 . S
O447 C437 1.272 . S
O447 Co439 2.135 . S
H448 C466 0.951 . S
H449 C468 0.951 . S
H450 C470 0.950 . S
H451 C471 0.950 . S
H452 C473 0.950 . S
H453 C476 0.950 . S
H454 C477 0.950 . S
H455 C479 0.950 . S
H456 C480 0.950 . S
H457 C481 0.951 . S
H458 C483 0.951 . S
H459 C485 0.950 . S
H460 C486 0.950 . S
H461 C488 0.950 . S
H462 C491 0.950 . S
H463 C492 0.950 . S
H464 C494 0.950 1_565 S
H465 C495 0.950 . S
C466 H448 0.951 . S
C466 C467 1.366 . S
C466 C468 1.388 . S
C467 C466 1.366 . S
C467 C471 1.385 . S
C468 H449 0.951 . S
C468 C466 1.388 . S
C468 C469 1.366 . S
C469 C468 1.366 . S
C469 C470 1.414 . S
C469 C472 1.499 . S
C470 H450 0.950 . S
C470 C469 1.414 . S
C470 C471 1.374 . S
C471 H451 0.950 . S
C471 C467 1.385 . S
C471 C470 1.374 . S
C472 C469 1.499 . S
C472 C473 1.373 . S
C472 C474 1.389 . S
C473 H452 0.950 . S
C473 C472 1.373 . S
C473 C489 1.377 . S
C474 C472 1.389 . S
C474 C475 1.524 . S
C474 C488 1.377 . S
C475 C474 1.524 . S
C475 C476 1.397 . S
C475 C480 1.363 . S
C476 H453 0.950 . S
C476 C475 1.397 . S
C476 C477 1.334 . S
C477 H454 0.950 . S
C477 C476 1.334 . S
C477 C478 1.287 . S
C478 C477 1.287 . S
C478 C479 1.524 . S
C478 H497 0.913 . S
C479 H455 0.950 . S
C479 C478 1.524 . S
C479 C480 1.415 . S
C480 H456 0.950 . S
C480 C475 1.363 . S
C480 C479 1.415 . S
C481 H457 0.951 . S
C481 C482 1.366 . S
C481 C483 1.388 . S
C482 C481 1.366 . S
C482 C486 1.385 . S
C483 H458 0.951 . S
C483 C481 1.388 . S
C483 C484 1.366 . S
C484 C483 1.366 . S
C484 C485 1.414 . S
C484 C487 1.499 . S
C485 H459 0.950 . S
C485 C484 1.414 . S
C485 C486 1.374 . S
C486 H460 0.950 . S
C486 C482 1.385 . S
C486 C485 1.374 . S
C487 C484 1.499 . S
C487 C488 1.373 . S
C487 C489 1.389 . S
C488 H461 0.950 . S
C488 C474 1.377 . S
C488 C487 1.373 . S
C489 C473 1.377 . S
C489 C487 1.389 . S
C489 C490 1.524 . S
C490 C489 1.524 . S
C490 C491 1.397 . S
C490 C495 1.363 . S
C491 H462 0.950 . S
C491 C490 1.397 . S
C491 C492 1.334 . S
C492 H463 0.950 . S
C492 C491 1.334 . S
C492 C493 1.287 . S
C493 C492 1.287 . S
C493 C494 1.524 . S
C493 H496 0.999 . S
C494 H464 0.950 1_545 S
C494 C493 1.524 . S
C494 C495 1.415 . S
C495 H465 0.950 . S
C495 C490 1.363 . S
C495 C494 1.415 . S
H496 C493 0.999 . S
H497 C478 0.913 . S
H498 C516 0.951 . S
H499 C518 0.951 . S
H500 C520 0.950 . S
H501 C521 0.950 . S
H502 C523 0.950 . S
H503 C526 0.950 . S
H504 C527 0.940 1_554 S
H505 C529 0.950 . S
H506 C530 0.950 . S
H507 C531 0.951 . S
H508 C533 0.951 . S
H509 C535 0.950 . S
H510 C536 0.950 . S
H511 C538 0.950 . S
H512 C541 0.950 . S
H513 C542 0.950 . S
H514 C544 0.950 . S
H515 C545 0.950 . S
C516 H498 0.951 . S
C516 C517 1.366 . S
C516 C518 1.388 . S
C517 C516 1.366 . S
C517 C521 1.385 . S
C518 H499 0.951 . S
C518 C516 1.388 . S
C518 C519 1.366 . S
C519 C518 1.366 . S
C519 C520 1.414 . S
C519 C522 1.499 . S
C520 H500 0.950 . S
C520 C519 1.414 . S
C520 C521 1.374 . S
C521 H501 0.950 . S
C521 C517 1.385 . S
C521 C520 1.374 . S
C522 C519 1.499 . S
C522 C523 1.373 . S
C522 C524 1.389 . S
C523 H502 0.950 . S
C523 C522 1.373 . S
C523 C539 1.377 . S
C524 C522 1.389 . S
C524 C525 1.524 . S
C524 C538 1.377 . S
C525 C524 1.524 . S
C525 C526 1.397 . S
C525 C530 1.363 . S
C526 H503 0.950 . S
C526 C525 1.397 . S
C526 C527 1.334 . S
C527 H504 0.940 1_556 S
C527 C526 1.334 . S
C527 C528 1.265 1_556 S
C528 C527 1.265 1_554 S
C528 C529 1.499 1_554 S
C528 H547 0.965 . S
C529 H505 0.950 . S
C529 C528 1.499 1_556 S
C529 C530 1.415 . S
C530 H506 0.950 . S
C530 C525 1.363 . S
C530 C529 1.415 . S
C531 H507 0.951 . S
C531 C532 1.366 . S
C531 C533 1.388 . S
C532 C531 1.366 . S
C532 C536 1.385 . S
C533 H508 0.951 . S
C533 C531 1.388 . S
C533 C534 1.366 . S
C534 C533 1.366 . S
C534 C535 1.414 . S
C534 C537 1.499 . S
C535 H509 0.950 . S
C535 C534 1.414 . S
C535 C536 1.374 . S
C536 H510 0.950 . S
C536 C532 1.385 . S
C536 C535 1.374 . S
C537 C534 1.499 . S
C537 C538 1.373 . S
C537 C539 1.389 . S
C538 H511 0.950 . S
C538 C524 1.377 . S
C538 C537 1.373 . S
C539 C523 1.377 . S
C539 C537 1.389 . S
C539 C540 1.524 . S
C540 C539 1.524 . S
C540 C541 1.397 . S
C540 C545 1.363 . S
C541 H512 0.950 . S
C541 C540 1.397 . S
C541 C542 1.334 . S
C542 H513 0.950 . S
C542 C541 1.334 . S
C542 C543 1.287 . S
C543 C542 1.287 . S
C543 C544 1.524 . S
C543 H546 0.999 . S
C544 H514 0.950 . S
C544 C543 1.524 . S
C544 C545 1.415 . S
C545 H515 0.950 . S
C545 C540 1.363 . S
C545 C544 1.415 . S
H546 C543 0.999 . S
H547 C528 0.965 . S
H548 C566 0.951 . S
H549 C568 0.951 . S
H550 C570 0.950 . S
H551 C571 0.950 . S
H552 C573 0.950 . S
H553 C576 0.950 . S
H554 C577 0.950 . S
H555 C579 0.950 . S
H556 C580 0.950 . S
H557 C581 0.951 . S
H558 C583 0.951 . S
H559 C585 0.950 . S
H560 C586 0.950 . S
H561 C588 0.950 . S
H562 C591 0.950 . S
H563 C592 0.950 . S
H564 C594 0.950 . S
H565 C595 0.950 . S
C566 H548 0.951 . S
C566 C567 1.366 . S
C566 C568 1.388 . S
C567 C566 1.366 . S
C567 C571 1.385 . S
C568 H549 0.951 . S
C568 C566 1.388 . S
C568 C569 1.366 . S
C569 C568 1.366 . S
C569 C570 1.414 . S
C569 C572 1.499 . S
C570 H550 0.950 . S
C570 C569 1.414 . S
C570 C571 1.374 . S
C571 H551 0.950 . S
C571 C567 1.385 . S
C571 C570 1.374 . S
C572 C569 1.499 . S
C572 C573 1.373 . S
C572 C574 1.389 . S
C573 H552 0.950 . S
C573 C572 1.373 . S
C573 C589 1.377 . S
C574 C572 1.389 . S
C574 C575 1.524 . S
C574 C588 1.377 . S
C575 C574 1.524 . S
C575 C576 1.397 . S
C575 C580 1.363 . S
C576 H553 0.950 . S
C576 C575 1.397 . S
C576 C577 1.334 . S
C577 H554 0.950 . S
C577 C576 1.334 . S
C577 C578 1.287 . S
C578 C577 1.287 . S
C578 C579 1.524 . S
C578 H597 0.913 . S
C579 H555 0.950 . S
C579 C578 1.524 . S
C579 C580 1.415 . S
C580 H556 0.950 . S
C580 C575 1.363 . S
C580 C579 1.415 . S
C581 H557 0.951 . S
C581 C582 1.366 . S
C581 C583 1.388 . S
C582 C581 1.366 . S
C582 C586 1.385 . S
C583 H558 0.951 . S
C583 C581 1.388 . S
C583 C584 1.366 . S
C584 C583 1.366 . S
C584 C585 1.414 . S
C584 C587 1.499 . S
C585 H559 0.950 . S
C585 C584 1.414 . S
C585 C586 1.374 . S
C586 H560 0.950 . S
C586 C582 1.385 . S
C586 C585 1.374 . S
C587 C584 1.499 . S
C587 C588 1.373 . S
C587 C589 1.389 . S
C588 H561 0.950 . S
C588 C574 1.377 . S
C588 C587 1.373 . S
C589 C573 1.377 . S
C589 C587 1.389 . S
C589 C590 1.524 . S
C590 C589 1.524 . S
C590 C591 1.397 . S
C590 C595 1.363 . S
C591 H562 0.950 . S
C591 C590 1.397 . S
C591 C592 1.334 . S
C592 H563 0.950 . S
C592 C591 1.334 . S
C592 C593 1.287 . S
C593 C592 1.287 . S
C593 C594 1.524 . S
C593 H596 0.999 . S
C594 H564 0.950 . S
C594 C593 1.524 . S
C594 C595 1.415 . S
C595 H565 0.950 . S
C595 C590 1.363 . S
C595 C594 1.415 . S
H596 C593 0.999 . S
H597 C578 0.913 . S
H598 C616 0.951 . S
H599 C618 0.951 . S
H600 C620 0.950 . S
H601 C621 0.950 . S
H602 C623 0.950 . S
H603 C626 0.950 . S
H604 C627 0.950 . S
H605 C629 0.950 . S
H606 C630 0.950 . S
H607 C631 0.951 . S
H608 C633 0.951 . S
H609 C635 0.950 . S
H610 C636 0.950 . S
H611 C638 0.950 . S
H612 C641 0.950 . S
H613 C642 0.950 . S
H614 C644 0.950 . S
H615 C645 0.950 . S
C616 H598 0.951 . S
C616 C617 1.366 . S
C616 C618 1.388 . S
C617 C616 1.366 . S
C617 C621 1.385 . S
C618 H599 0.951 . S
C618 C616 1.388 . S
C618 C619 1.366 . S
C619 C618 1.366 . S
C619 C620 1.414 . S
C619 C622 1.499 . S
C620 H600 0.950 . S
C620 C619 1.414 . S
C620 C621 1.374 . S
C621 H601 0.950 . S
C621 C617 1.385 . S
C621 C620 1.374 . S
C622 C619 1.499 . S
C622 C623 1.373 . S
C622 C624 1.389 . S
C623 H602 0.950 . S
C623 C622 1.373 . S
C623 C639 1.377 . S
C624 C622 1.389 . S
C624 C625 1.524 . S
C624 C638 1.377 . S
C625 C624 1.524 . S
C625 C626 1.397 . S
C625 C630 1.363 . S
C626 H603 0.950 . S
C626 C625 1.397 . S
C626 C627 1.334 . S
C627 H604 0.950 . S
C627 C626 1.334 . S
C627 C628 1.287 . S
C628 C627 1.287 . S
C628 C629 1.524 . S
C628 H647 0.913 . S
C629 H605 0.950 . S
C629 C628 1.524 . S
C629 C630 1.415 . S
C630 H606 0.950 . S
C630 C625 1.363 . S
C630 C629 1.415 . S
C631 H607 0.951 . S
C631 C632 1.366 . S
C631 C633 1.388 . S
C632 C631 1.366 . S
C632 C636 1.385 . S
C633 H608 0.951 . S
C633 C631 1.388 . S
C633 C634 1.366 . S
C634 C633 1.366 . S
C634 C635 1.414 . S
C634 C637 1.499 . S
C635 H609 0.950 . S
C635 C634 1.414 . S
C635 C636 1.374 . S
C636 H610 0.950 . S
C636 C632 1.385 . S
C636 C635 1.374 . S
C637 C634 1.499 . S
C637 C638 1.373 . S
C637 C639 1.389 . S
C638 H611 0.950 . S
C638 C624 1.377 . S
C638 C637 1.373 . S
C639 C623 1.377 . S
C639 C637 1.389 . S
C639 C640 1.524 . S
C640 C639 1.524 . S
C640 C641 1.397 . S
C640 C645 1.363 . S
C641 H612 0.950 . S
C641 C640 1.397 . S
C641 C642 1.334 . S
C642 H613 0.950 . S
C642 C641 1.334 . S
C642 C643 1.287 1_565 S
C643 C642 1.287 1_545 S
C643 C644 1.524 . S
C643 H646 0.999 . S
C644 H614 0.950 . S
C644 C643 1.524 . S
C644 C645 1.415 1_545 S
C645 H615 0.950 . S
C645 C640 1.363 . S
C645 C644 1.415 1_565 S
H646 C643 0.999 . S
H647 C628 0.913 . S
H648 C666 0.951 . S
H649 C668 0.951 . S
H650 C670 0.950 . S
H651 C671 0.950 . S
H652 C673 0.950 . S
H653 C676 0.950 . S
H654 C677 0.950 . S
H655 C679 0.950 . S
H656 C680 0.950 . S
H657 C681 0.951 . S
H658 C683 0.951 . S
H659 C685 0.950 . S
H660 C686 0.950 . S
H661 C688 0.950 . S
H662 C691 0.950 . S
H663 C692 0.950 . S
H664 C694 0.950 . S
H665 C695 0.950 . S
C666 H648 0.951 . S
C666 C667 1.366 . S
C666 C668 1.388 . S
C667 C666 1.366 . S
C667 C671 1.385 . S
C668 H649 0.951 . S
C668 C666 1.388 . S
C668 C669 1.366 . S
C669 C668 1.366 . S
C669 C670 1.414 . S
C669 C672 1.499 . S
C670 H650 0.950 . S
C670 C669 1.414 . S
C670 C671 1.374 . S
C671 H651 0.950 . S
C671 C667 1.385 . S
C671 C670 1.374 . S
C672 C669 1.499 . S
C672 C673 1.373 . S
C672 C674 1.389 . S
C673 H652 0.950 . S
C673 C672 1.373 . S
C673 C689 1.377 . S
C674 C672 1.389 . S
C674 C675 1.524 . S
C674 C688 1.377 . S
C675 C674 1.524 . S
C675 C676 1.397 . S
C675 C680 1.363 . S
C676 H653 0.950 . S
C676 C675 1.397 . S
C676 C677 1.334 . S
C677 H654 0.950 . S
C677 C676 1.334 . S
C677 C678 1.287 . S
C678 C677 1.287 . S
C678 C679 1.524 . S
C678 H697 0.913 . S
C679 H655 0.950 . S
C679 C678 1.524 . S
C679 C680 1.415 . S
C680 H656 0.950 . S
C680 C675 1.363 . S
C680 C679 1.415 . S
C681 H657 0.951 . S
C681 C682 1.366 . S
C681 C683 1.388 . S
C682 C681 1.366 . S
C682 C686 1.385 . S
C683 H658 0.951 . S
C683 C681 1.388 . S
C683 C684 1.366 . S
C684 C683 1.366 . S
C684 C685 1.414 . S
C684 C687 1.499 . S
C685 H659 0.950 . S
C685 C684 1.414 . S
C685 C686 1.374 . S
C686 H660 0.950 . S
C686 C682 1.385 . S
C686 C685 1.374 . S
C687 C684 1.499 . S
C687 C688 1.373 . S
C687 C689 1.389 . S
C688 H661 0.950 . S
C688 C674 1.377 . S
C688 C687 1.373 . S
C689 C673 1.377 . S
C689 C687 1.389 . S
C689 C690 1.524 . S
C690 C689 1.524 . S
C690 C691 1.397 . S
C690 C695 1.363 . S
C691 H662 0.950 . S
C691 C690 1.397 . S
C691 C692 1.334 . S
C692 H663 0.950 . S
C692 C691 1.334 . S
C692 C693 1.287 . S
C693 C692 1.287 . S
C693 C694 1.524 . S
C693 H696 0.999 . S
C694 H664 0.950 . S
C694 C693 1.524 . S
C694 C695 1.415 . S
C695 H665 0.950 . S
C695 C690 1.363 . S
C695 C694 1.415 . S
H696 C693 0.999 . S
H697 C678 0.913 . S
H698 C716 0.951 . S
H699 C718 0.951 . S
H700 C720 0.950 . S
H701 C721 0.950 . S
H702 C723 0.950 . S
H703 C726 0.950 . S
H704 C727 0.950 . S
H705 C729 0.950 . S
H706 C730 0.950 . S
H707 C731 0.951 . S
H708 C733 0.951 . S
H709 C735 0.950 . S
H710 C736 0.950 . S
H711 C738 0.950 . S
H712 C741 0.950 . S
H713 C742 0.950 . S
H714 C744 0.950 . S
H715 C745 0.950 . S
C716 H698 0.951 . S
C716 C717 1.366 . S
C716 C718 1.388 . S
C717 C716 1.366 . S
C717 C721 1.385 . S
C718 H699 0.951 . S
C718 C716 1.388 . S
C718 C719 1.366 . S
C719 C718 1.366 . S
C719 C720 1.414 . S
C719 C722 1.499 . S
C720 H700 0.950 . S
C720 C719 1.414 . S
C720 C721 1.374 . S
C721 H701 0.950 . S
C721 C717 1.385 . S
C721 C720 1.374 . S
C722 C719 1.499 . S
C722 C723 1.373 . S
C722 C724 1.389 . S
C723 H702 0.950 . S
C723 C722 1.373 . S
C723 C739 1.377 . S
C724 C722 1.389 . S
C724 C725 1.524 . S
C724 C738 1.377 . S
C725 C724 1.524 . S
C725 C726 1.397 . S
C725 C730 1.363 . S
C726 H703 0.950 . S
C726 C725 1.397 . S
C726 C727 1.334 . S
C727 H704 0.950 . S
C727 C726 1.334 . S
C727 C728 1.287 . S
C728 C727 1.287 . S
C728 C729 1.524 . S
C728 H747 0.913 . S
C729 H705 0.950 . S
C729 C728 1.524 . S
C729 C730 1.415 . S
C730 H706 0.950 . S
C730 C725 1.363 . S
C730 C729 1.415 . S
C731 H707 0.951 . S
C731 C732 1.366 . S
C731 C733 1.388 . S
C732 C731 1.366 . S
C732 C736 1.385 . S
C733 H708 0.951 . S
C733 C731 1.388 . S
C733 C734 1.366 . S
C734 C733 1.366 . S
C734 C735 1.414 . S
C734 C737 1.499 . S
C735 H709 0.950 . S
C735 C734 1.414 . S
C735 C736 1.374 . S
C736 H710 0.950 . S
C736 C732 1.385 . S
C736 C735 1.374 . S
C737 C734 1.499 . S
C737 C738 1.373 . S
C737 C739 1.389 . S
C738 H711 0.950 . S
C738 C724 1.377 . S
C738 C737 1.373 . S
C739 C723 1.377 . S
C739 C737 1.389 . S
C739 C740 1.524 . S
C740 C739 1.524 . S
C740 C741 1.397 . S
C740 C745 1.363 . S
C741 H712 0.950 . S
C741 C740 1.397 . S
C741 C742 1.334 . S
C742 H713 0.950 . S
C742 C741 1.334 . S
C742 C743 1.287 . S
C743 C742 1.287 . S
C743 C744 1.524 . S
C743 H746 0.999 . S
C744 H714 0.950 . S
C744 C743 1.524 . S
C744 C745 1.415 . S
C745 H715 0.950 . S
C745 C740 1.363 . S
C745 C744 1.415 . S
H746 C743 0.999 . S
H747 C728 0.913 . S
H748 C766 0.951 . S
H749 C768 0.951 . S
H750 C770 0.950 . S
H751 C771 0.950 . S
H752 C773 0.950 . S
H753 C776 0.950 . S
H754 C777 0.950 . S
H755 C779 0.950 . S
H756 C780 0.950 . S
H757 C781 0.951 . S
H758 C783 0.951 . S
H759 C785 0.950 . S
H760 C786 0.950 . S
H761 C788 0.950 . S
H762 C791 0.950 . S
H763 C792 0.950 . S
H764 C794 0.950 . S
H765 C795 0.950 . S
C766 H748 0.951 . S
C766 C767 1.366 . S
C766 C768 1.388 . S
C767 C766 1.366 . S
C767 C771 1.385 . S
C768 H749 0.951 . S
C768 C766 1.388 . S
C768 C769 1.366 . S
C769 C768 1.366 . S
C769 C770 1.414 . S
C769 C772 1.499 . S
C770 H750 0.950 . S
C770 C769 1.414 . S
C770 C771 1.374 . S
C771 H751 0.950 . S
C771 C767 1.385 . S
C771 C770 1.374 . S
C772 C769 1.499 . S
C772 C773 1.373 . S
C772 C774 1.389 . S
C773 H752 0.950 . S
C773 C772 1.373 . S
C773 C789 1.377 . S
C774 C772 1.389 . S
C774 C775 1.524 . S
C774 C788 1.377 . S
C775 C774 1.524 . S
C775 C776 1.397 . S
C775 C780 1.363 . S
C776 H753 0.950 . S
C776 C775 1.397 . S
C776 C777 1.334 . S
C777 H754 0.950 . S
C777 C776 1.334 . S
C777 C778 1.287 . S
C778 C777 1.287 . S
C778 C779 1.524 . S
C778 H797 0.913 . S
C779 H755 0.950 . S
C779 C778 1.524 . S
C779 C780 1.415 . S
C780 H756 0.950 . S
C780 C775 1.363 . S
C780 C779 1.415 . S
C781 H757 0.951 . S
C781 C782 1.366 . S
C781 C783 1.388 . S
C782 C781 1.366 . S
C782 C786 1.385 . S
C783 H758 0.951 . S
C783 C781 1.388 . S
C783 C784 1.366 . S
C784 C783 1.366 . S
C784 C785 1.414 . S
C784 C787 1.499 . S
C785 H759 0.950 . S
C785 C784 1.414 . S
C785 C786 1.374 . S
C786 H760 0.950 . S
C786 C782 1.385 . S
C786 C785 1.374 . S
C787 C784 1.499 . S
C787 C788 1.373 . S
C787 C789 1.389 . S
C788 H761 0.950 . S
C788 C774 1.377 . S
C788 C787 1.373 . S
C789 C773 1.377 . S
C789 C787 1.389 . S
C789 C790 1.524 . S
C790 C789 1.524 . S
C790 C791 1.397 . S
C790 C795 1.363 . S
C791 H762 0.950 . S
C791 C790 1.397 . S
C791 C792 1.334 . S
C792 H763 0.950 . S
C792 C791 1.334 . S
C792 C793 1.287 . S
C793 C792 1.287 . S
C793 C794 1.524 . S
C793 H796 0.999 . S
C794 H764 0.950 . S
C794 C793 1.524 . S
C794 C795 1.415 . S
C795 H765 0.950 . S
C795 C790 1.363 . S
C795 C794 1.415 . S
H796 C793 0.999 . S
H797 C778 0.913 . S
H798 C816 0.951 . S
H799 C818 0.951 . S
H800 C820 0.950 . S
H801 C821 0.950 . S
H802 C823 0.950 . S
H803 C826 0.950 . S
H804 C827 0.950 . S
H805 C829 0.950 . S
H806 C830 0.950 . S
H807 C831 0.951 . S
H808 C833 0.951 . S
H809 C835 0.950 . S
H810 C836 0.950 . S
H811 C838 0.950 . S
H812 C841 0.950 . S
H813 C842 0.950 . S
H814 C844 0.950 . S
H815 C845 0.950 . S
C816 H798 0.951 . S
C816 C817 1.366 . S
C816 C818 1.388 . S
C817 C816 1.366 . S
C817 C821 1.385 . S
C818 H799 0.951 . S
C818 C816 1.388 . S
C818 C819 1.366 . S
C819 C818 1.366 . S
C819 C820 1.414 . S
C819 C822 1.499 . S
C820 H800 0.950 . S
C820 C819 1.414 . S
C820 C821 1.374 . S
C821 H801 0.950 . S
C821 C817 1.385 . S
C821 C820 1.374 . S
C822 C819 1.499 . S
C822 C823 1.373 . S
C822 C824 1.389 . S
C823 H802 0.950 . S
C823 C822 1.373 . S
C823 C839 1.377 . S
C824 C822 1.389 . S
C824 C825 1.524 . S
C824 C838 1.377 . S
C825 C824 1.524 . S
C825 C826 1.397 . S
C825 C830 1.363 . S
C826 H803 0.950 . S
C826 C825 1.397 . S
C826 C827 1.334 . S
C827 H804 0.950 . S
C827 C826 1.334 . S
C827 C828 1.287 . S
C828 C827 1.287 . S
C828 C829 1.524 . S
C828 H847 0.913 . S
C829 H805 0.950 . S
C829 C828 1.524 . S
C829 C830 1.415 . S
C830 H806 0.950 . S
C830 C825 1.363 . S
C830 C829 1.415 . S
C831 H807 0.951 . S
C831 C832 1.366 . S
C831 C833 1.388 . S
C832 C831 1.366 . S
C832 C836 1.385 . S
C833 H808 0.951 . S
C833 C831 1.388 . S
C833 C834 1.366 . S
C834 C833 1.366 . S
C834 C835 1.414 . S
C834 C837 1.499 . S
C835 H809 0.950 . S
C835 C834 1.414 . S
C835 C836 1.374 . S
C836 H810 0.950 . S
C836 C832 1.385 . S
C836 C835 1.374 . S
C837 C834 1.499 . S
C837 C838 1.373 . S
C837 C839 1.389 . S
C838 H811 0.950 . S
C838 C824 1.377 . S
C838 C837 1.373 . S
C839 C823 1.377 . S
C839 C837 1.389 . S
C839 C840 1.524 . S
C840 C839 1.524 . S
C840 C841 1.397 . S
C840 C845 1.363 . S
C841 H812 0.950 . S
C841 C840 1.397 . S
C841 C842 1.334 . S
C842 H813 0.950 . S
C842 C841 1.334 . S
C842 C843 1.287 . S
C843 C842 1.287 . S
C843 C844 1.524 . S
C843 H846 0.999 . S
C844 H814 0.950 . S
C844 C843 1.524 . S
C844 C845 1.415 . S
C845 H815 0.950 . S
C845 C840 1.363 . S
C845 C844 1.415 . S
H846 C843 0.999 . S
H847 C828 0.913 . S
H848 C866 0.951 . S
H849 C868 0.951 . S
H850 C870 0.950 . S
H851 C871 0.950 . S
H852 C873 0.950 . S
H853 C876 0.950 . S
H854 C877 0.950 . S
H855 C879 0.937 1_565 S
H856 C880 0.950 . S
H857 C881 0.951 . S
H858 C883 0.951 . S
H859 C885 0.950 . S
H860 C886 0.950 . S
H861 C888 0.950 . S
H862 C891 0.950 . S
H863 C892 0.950 . S
H864 C894 0.950 . S
H865 C895 0.950 . S
C866 H848 0.951 . S
C866 C867 1.366 . S
C866 C868 1.388 . S
C867 C866 1.366 . S
C867 C871 1.385 . S
C868 H849 0.951 . S
C868 C866 1.388 . S
C868 C869 1.366 . S
C869 C868 1.366 . S
C869 C870 1.414 . S
C869 C872 1.499 . S
C870 H850 0.950 . S
C870 C869 1.414 . S
C870 C871 1.374 . S
C871 H851 0.950 . S
C871 C867 1.385 . S
C871 C870 1.374 . S
C872 C869 1.499 . S
C872 C873 1.373 . S
C872 C874 1.389 . S
C873 H852 0.950 . S
C873 C872 1.373 . S
C873 C889 1.377 . S
C874 C872 1.389 . S
C874 C875 1.524 . S
C874 C888 1.377 . S
C875 C874 1.524 . S
C875 C876 1.397 . S
C875 C880 1.363 . S
C876 H853 0.950 . S
C876 C875 1.397 . S
C876 C877 1.334 . S
C877 H854 0.950 . S
C877 C876 1.334 . S
C877 C878 1.287 . S
C878 C877 1.287 . S
C878 C879 1.524 . S
C878 H897 0.913 . S
C879 H855 0.937 1_545 S
C879 C878 1.524 . S
C879 C880 1.415 . S
C880 H856 0.950 . S
C880 C875 1.363 . S
C880 C879 1.415 . S
C881 H857 0.951 . S
C881 C882 1.366 . S
C881 C883 1.388 . S
C882 C881 1.366 . S
C882 C886 1.385 . S
C883 H858 0.951 . S
C883 C881 1.388 . S
C883 C884 1.366 . S
C884 C883 1.366 . S
C884 C885 1.414 . S
C884 C887 1.499 . S
C885 H859 0.950 . S
C885 C884 1.414 . S
C885 C886 1.374 . S
C886 H860 0.950 . S
C886 C882 1.385 . S
C886 C885 1.374 . S
C887 C884 1.499 . S
C887 C888 1.373 . S
C887 C889 1.389 . S
C888 H861 0.950 . S
C888 C874 1.377 . S
C888 C887 1.373 . S
C889 C873 1.377 . S
C889 C887 1.389 . S
C889 C890 1.524 . S
C890 C889 1.524 . S
C890 C891 1.397 . S
C890 C895 1.363 . S
C891 H862 0.950 . S
C891 C890 1.397 . S
C891 C892 1.334 . S
C892 H863 0.950 . S
C892 C891 1.334 . S
C892 C893 1.287 . S
C893 C892 1.287 . S
C893 C894 1.524 . S
C893 H896 0.999 . S
C894 H864 0.950 . S
C894 C893 1.524 . S
C894 C895 1.415 . S
C895 H865 0.950 . S
C895 C890 1.363 . S
C895 C894 1.415 . S
H896 C893 0.999 . S
H897 C878 0.913 . S
H898 C916 0.951 . S
H899 C918 0.951 . S
H900 C920 0.950 . S
H901 C921 0.950 . S
H902 C923 0.950 . S
H903 C926 0.950 . S
H904 C927 0.950 . S
H905 C929 0.950 . S
H906 C930 0.950 . S
H907 C931 0.951 . S
H908 C933 0.951 . S
H909 C935 0.950 . S
H910 C936 0.950 . S
H911 C938 0.950 . S
H912 C941 0.950 . S
H913 C942 0.950 . S
H914 C944 0.950 . S
H915 C945 0.950 . S
C916 H898 0.951 . S
C916 C917 1.366 . S
C916 C918 1.388 . S
C917 C916 1.366 . S
C917 C921 1.385 . S
C918 H899 0.951 . S
C918 C916 1.388 . S
C918 C919 1.366 . S
C919 C918 1.366 . S
C919 C920 1.414 . S
C919 C922 1.499 . S
C920 H900 0.950 . S
C920 C919 1.414 . S
C920 C921 1.374 . S
C921 H901 0.950 . S
C921 C917 1.385 . S
C921 C920 1.374 . S
C922 C919 1.499 . S
C922 C923 1.373 . S
C922 C924 1.389 . S
C923 H902 0.950 . S
C923 C922 1.373 . S
C923 C939 1.377 . S
C924 C922 1.389 . S
C924 C925 1.524 . S
C924 C938 1.377 . S
C925 C924 1.524 . S
C925 C926 1.397 . S
C925 C930 1.363 . S
C926 H903 0.950 . S
C926 C925 1.397 . S
C926 C927 1.334 . S
C927 H904 0.950 . S
C927 C926 1.334 . S
C927 C928 1.287 . S
C928 C927 1.287 . S
C928 C929 1.524 . S
C928 H947 0.913 . S
C929 H905 0.950 . S
C929 C928 1.524 . S
C929 C930 1.415 . S
C930 H906 0.950 . S
C930 C925 1.363 . S
C930 C929 1.415 . S
C931 H907 0.951 . S
C931 C932 1.366 . S
C931 C933 1.388 . S
C932 C931 1.366 . S
C932 C936 1.385 . S
C933 H908 0.951 . S
C933 C931 1.388 . S
C933 C934 1.366 . S
C934 C933 1.366 . S
C934 C935 1.414 . S
C934 C937 1.499 . S
C935 H909 0.950 . S
C935 C934 1.414 . S
C935 C936 1.374 . S
C936 H910 0.950 . S
C936 C932 1.385 . S
C936 C935 1.374 . S
C937 C934 1.499 . S
C937 C938 1.373 . S
C937 C939 1.389 . S
C938 H911 0.950 . S
C938 C924 1.377 . S
C938 C937 1.373 . S
C939 C923 1.377 . S
C939 C937 1.389 . S
C939 C940 1.524 . S
C940 C939 1.524 . S
C940 C941 1.397 . S
C940 C945 1.363 . S
C941 H912 0.950 . S
C941 C940 1.397 . S
C941 C942 1.334 . S
C942 H913 0.950 . S
C942 C941 1.334 . S
C942 C943 1.287 . S
C943 C942 1.287 . S
C943 C944 1.524 . S
C943 H946 0.999 . S
C944 H914 0.950 . S
C944 C943 1.524 . S
C944 C945 1.415 . S
C945 H915 0.950 . S
C945 C940 1.363 . S
C945 C944 1.415 . S
H946 C943 0.999 . S
H947 C928 0.913 . S
H948 C966 0.951 . S
H949 C968 0.951 . S
H950 C970 0.950 . S
H951 C971 0.950 . S
H952 C973 0.950 . S
H953 C976 0.950 . S
H954 C977 0.950 . S
H955 C979 0.950 . S
H956 C980 0.950 . S
H957 C981 0.951 . S
H958 C983 0.951 . S
H959 C985 0.950 . S
H960 C986 0.950 . S
H961 C988 0.950 . S
H962 C991 0.950 . S
H963 C992 0.950 . S
H964 C994 0.950 . S
H965 C995 0.950 . S
C966 H948 0.951 . S
C966 C967 1.366 . S
C966 C968 1.388 . S
C967 C966 1.366 . S
C967 C971 1.385 . S
C968 H949 0.951 . S
C968 C966 1.388 . S
C968 C969 1.366 . S
C969 C968 1.366 . S
C969 C970 1.414 . S
C969 C972 1.499 . S
C970 H950 0.950 . S
C970 C969 1.414 . S
C970 C971 1.374 . S
C971 H951 0.950 . S
C971 C967 1.385 . S
C971 C970 1.374 . S
C972 C969 1.499 . S
C972 C973 1.373 . S
C972 C974 1.389 . S
C973 H952 0.950 . S
C973 C972 1.373 . S
C973 C989 1.377 . S
C974 C972 1.389 . S
C974 C975 1.524 . S
C974 C988 1.377 . S
C975 C974 1.524 . S
C975 C976 1.397 . S
C975 C980 1.363 . S
C976 H953 0.950 . S
C976 C975 1.397 . S
C976 C977 1.334 . S
C977 H954 0.950 . S
C977 C976 1.334 . S
C977 C978 1.287 . S
C978 C977 1.287 . S
C978 C979 1.524 . S
C978 H997 0.913 . S
C979 H955 0.950 . S
C979 C978 1.524 . S
C979 C980 1.415 . S
C980 H956 0.950 . S
C980 C975 1.363 . S
C980 C979 1.415 . S
C981 H957 0.951 . S
C981 C982 1.366 . S
C981 C983 1.388 . S
C982 C981 1.366 . S
C982 C986 1.385 . S
C983 H958 0.951 . S
C983 C981 1.388 . S
C983 C984 1.366 . S
C984 C983 1.366 . S
C984 C985 1.414 . S
C984 C987 1.499 . S
C985 H959 0.950 . S
C985 C984 1.414 . S
C985 C986 1.374 . S
C986 H960 0.950 . S
C986 C982 1.385 . S
C986 C985 1.374 . S
C987 C984 1.499 . S
C987 C988 1.373 . S
C987 C989 1.389 . S
C988 H961 0.950 . S
C988 C974 1.377 . S
C988 C987 1.373 . S
C989 C973 1.377 . S
C989 C987 1.389 . S
C989 C990 1.524 . S
C990 C989 1.524 . S
C990 C991 1.397 . S
C990 C995 1.363 . S
C991 H962 0.950 . S
C991 C990 1.397 . S
C991 C992 1.334 . S
C992 H963 0.950 . S
C992 C991 1.334 . S
C992 C993 1.287 . S
C993 C992 1.287 . S
C993 C994 1.524 . S
C993 H996 0.999 . S
C994 H964 0.950 . S
C994 C993 1.524 . S
C994 C995 1.415 . S
C995 H965 0.950 . S
C995 C990 1.363 . S
C995 C994 1.415 . S
H996 C993 0.999 . S
H997 C978 0.913 . S
H998 C1016 0.951 . S
H999 C1018 0.951 . S
H1000 C1020 0.950 . S
H1001 C1021 0.950 . S
H1002 C1023 0.950 . S
H1003 C1026 0.950 . S
H1004 C1027 0.950 . S
H1005 C1029 0.950 . S
H1006 C1030 0.950 . S
H1007 C1031 0.951 . S
H1008 C1033 0.951 . S
H1009 C1035 0.950 . S
H1010 C1036 0.950 . S
H1011 C1038 0.950 . S
H1012 C1041 0.950 . S
H1013 C1042 0.950 . S
H1014 C1044 0.950 . S
H1015 C1045 0.950 . S
C1016 H998 0.951 . S
C1016 C1017 1.366 . S
C1016 C1018 1.388 . S
C1017 C1016 1.366 . S
C1017 C1021 1.385 . S
C1018 H999 0.951 . S
C1018 C1016 1.388 . S
C1018 C1019 1.366 . S
C1019 C1018 1.366 . S
C1019 C1020 1.414 . S
C1019 C1022 1.499 . S
C1020 H1000 0.950 . S
C1020 C1019 1.414 . S
C1020 C1021 1.374 . S
C1021 H1001 0.950 . S
C1021 C1017 1.385 . S
C1021 C1020 1.374 . S
C1022 C1019 1.499 . S
C1022 C1023 1.373 . S
C1022 C1024 1.389 . S
C1023 H1002 0.950 . S
C1023 C1022 1.373 . S
C1023 C1039 1.377 . S
C1024 C1022 1.389 . S
C1024 C1025 1.524 . S
C1024 C1038 1.377 . S
C1025 C1024 1.524 . S
C1025 C1026 1.397 . S
C1025 C1030 1.363 . S
C1026 H1003 0.950 . S
C1026 C1025 1.397 . S
C1026 C1027 1.334 1_565 S
C1027 H1004 0.950 . S
C1027 C1026 1.334 1_545 S
C1027 C1028 1.287 . S
C1028 C1027 1.287 . S
C1028 C1029 1.524 . S
C1028 H1047 0.913 . S
C1029 H1005 0.950 . S
C1029 C1028 1.524 . S
C1029 C1030 1.415 1_545 S
C1030 H1006 0.950 . S
C1030 C1025 1.363 . S
C1030 C1029 1.415 1_565 S
C1031 H1007 0.951 . S
C1031 C1032 1.366 . S
C1031 C1033 1.388 . S
C1032 C1031 1.366 . S
C1032 C1036 1.385 . S
C1033 H1008 0.951 . S
C1033 C1031 1.388 . S
C1033 C1034 1.366 . S
C1034 C1033 1.366 . S
C1034 C1035 1.414 . S
C1034 C1037 1.499 . S
C1035 H1009 0.950 . S
C1035 C1034 1.414 . S
C1035 C1036 1.374 . S
C1036 H1010 0.950 . S
C1036 C1032 1.385 . S
C1036 C1035 1.374 . S
C1037 C1034 1.499 . S
C1037 C1038 1.373 . S
C1037 C1039 1.389 . S
C1038 H1011 0.950 . S
C1038 C1024 1.377 . S
C1038 C1037 1.373 . S
C1039 C1023 1.377 . S
C1039 C1037 1.389 . S
C1039 C1040 1.524 . S
C1040 C1039 1.524 . S
C1040 C1041 1.397 . S
C1040 C1045 1.363 . S
C1041 H1012 0.950 . S
C1041 C1040 1.397 . S
C1041 C1042 1.334 . S
C1042 H1013 0.950 . S
C1042 C1041 1.334 . S
C1042 C1043 1.287 . S
C1043 C1042 1.287 . S
C1043 C1044 1.524 . S
C1043 H1046 0.999 . S
C1044 H1014 0.950 . S
C1044 C1043 1.524 . S
C1044 C1045 1.415 . S
C1045 H1015 0.950 . S
C1045 C1040 1.363 . S
C1045 C1044 1.415 . S
H1046 C1043 0.999 . S
H1047 C1028 0.913 . S
H1048 C1066 0.951 . S
H1049 C1068 0.951 . S
H1050 C1070 0.950 . S
H1051 C1071 0.950 . S
H1052 C1073 0.950 . S
H1053 C1076 0.950 . S
H1054 C1077 0.950 . S
H1055 C1079 0.950 . S
H1056 C1080 0.950 . S
H1057 C1081 0.951 . S
H1058 C1083 0.951 . S
H1059 C1085 0.950 . S
H1060 C1086 0.950 . S
H1061 C1088 0.950 . S
H1062 C1091 0.950 . S
H1063 C1092 0.950 . S
H1064 C1094 0.950 . S
H1065 C1095 0.950 . S
C1066 H1048 0.951 . S
C1066 C1067 1.366 . S
C1066 C1068 1.388 . S
C1067 C1066 1.366 . S
C1067 C1071 1.385 . S
C1068 H1049 0.951 . S
C1068 C1066 1.388 . S
C1068 C1069 1.366 . S
C1069 C1068 1.366 . S
C1069 C1070 1.414 . S
C1069 C1072 1.499 . S
C1070 H1050 0.950 . S
C1070 C1069 1.414 . S
C1070 C1071 1.374 . S
C1071 H1051 0.950 . S
C1071 C1067 1.385 . S
C1071 C1070 1.374 . S
C1072 C1069 1.499 . S
C1072 C1073 1.373 . S
C1072 C1074 1.389 . S
C1073 H1052 0.950 . S
C1073 C1072 1.373 . S
C1073 C1089 1.377 . S
C1074 C1072 1.389 . S
C1074 C1075 1.524 . S
C1074 C1088 1.377 . S
C1075 C1074 1.524 . S
C1075 C1076 1.397 . S
C1075 C1080 1.363 . S
C1076 H1053 0.950 . S
C1076 C1075 1.397 . S
C1076 C1077 1.334 . S
C1077 H1054 0.950 . S
C1077 C1076 1.334 . S
C1077 C1078 1.287 . S
C1078 C1077 1.287 . S
C1078 C1079 1.524 . S
C1078 H1097 0.913 . S
C1079 H1055 0.950 . S
C1079 C1078 1.524 . S
C1079 C1080 1.415 . S
C1080 H1056 0.950 . S
C1080 C1075 1.363 . S
C1080 C1079 1.415 . S
C1081 H1057 0.951 . S
C1081 C1082 1.366 . S
C1081 C1083 1.388 . S
C1082 C1081 1.366 . S
C1082 C1086 1.385 . S
C1083 H1058 0.951 . S
C1083 C1081 1.388 . S
C1083 C1084 1.366 . S
C1084 C1083 1.366 . S
C1084 C1085 1.414 . S
C1084 C1087 1.499 . S
C1085 H1059 0.950 . S
C1085 C1084 1.414 . S
C1085 C1086 1.374 . S
C1086 H1060 0.950 . S
C1086 C1082 1.385 . S
C1086 C1085 1.374 . S
C1087 C1084 1.499 . S
C1087 C1088 1.373 . S
C1087 C1089 1.389 . S
C1088 H1061 0.950 . S
C1088 C1074 1.377 . S
C1088 C1087 1.373 . S
C1089 C1073 1.377 . S
C1089 C1087 1.389 . S
C1089 C1090 1.524 . S
C1090 C1089 1.524 . S
C1090 C1091 1.397 . S
C1090 C1095 1.363 . S
C1091 H1062 0.950 . S
C1091 C1090 1.397 . S
C1091 C1092 1.334 . S
C1092 H1063 0.950 . S
C1092 C1091 1.334 . S
C1092 C1093 1.287 . S
C1093 C1092 1.287 . S
C1093 C1094 1.524 . S
C1093 H1096 0.999 . S
C1094 H1064 0.950 . S
C1094 C1093 1.524 . S
C1094 C1095 1.415 . S
C1095 H1065 0.950 . S
C1095 C1090 1.363 . S
C1095 C1094 1.415 . S
H1096 C1093 0.999 . S
H1097 C1078 0.913 . S
H1098 C1116 0.951 . S
H1099 C1118 0.951 . S
H1100 C1120 0.950 . S
H1101 C1121 0.950 . S
H1102 C1123 0.950 . S
H1103 C1126 0.950 . S
H1104 C1127 0.955 . S
H1105 C1129 0.950 1_554 S
H1106 C1130 0.950 . S
H1107 C1131 0.951 . S
H1108 C1133 0.951 . S
H1109 C1135 0.950 . S
H1110 C1136 0.950 . S
H1111 C1138 0.950 . S
H1112 C1141 0.950 . S
H1113 C1142 0.950 . S
H1114 C1144 0.950 . S
H1115 C1145 0.950 . S
C1116 H1098 0.951 . S
C1116 C1117 1.366 . S
C1116 C1118 1.388 . S
C1117 C1116 1.366 . S
C1117 C1121 1.385 . S
C1118 H1099 0.951 . S
C1118 C1116 1.388 . S
C1118 C1119 1.366 . S
C1119 C1118 1.366 . S
C1119 C1120 1.414 . S
C1119 C1122 1.499 . S
C1120 H1100 0.950 . S
C1120 C1119 1.414 . S
C1120 C1121 1.374 . S
C1121 H1101 0.950 . S
C1121 C1117 1.385 . S
C1121 C1120 1.374 . S
C1122 C1119 1.499 . S
C1122 C1123 1.373 . S
C1122 C1124 1.389 . S
C1123 H1102 0.950 . S
C1123 C1122 1.373 . S
C1123 C1139 1.377 . S
C1124 C1122 1.389 . S
C1124 C1125 1.524 . S
C1124 C1138 1.377 . S
C1125 C1124 1.524 . S
C1125 C1126 1.397 . S
C1125 C1130 1.363 . S
C1126 H1103 0.950 . S
C1126 C1125 1.397 . S
C1126 C1127 1.334 . S
C1127 H1104 0.955 . S
C1127 C1126 1.334 . S
C1127 C1128 1.287 1_556 S
C1128 C1127 1.287 1_554 S
C1128 C1129 1.524 1_554 S
C1128 H1147 0.913 . S
C1129 H1105 0.950 1_556 S
C1129 C1128 1.524 1_556 S
C1129 C1130 1.415 . S
C1130 H1106 0.950 . S
C1130 C1125 1.363 . S
C1130 C1129 1.415 . S
C1131 H1107 0.951 . S
C1131 C1132 1.366 . S
C1131 C1133 1.388 . S
C1132 C1131 1.366 . S
C1132 C1136 1.385 . S
C1133 H1108 0.951 . S
C1133 C1131 1.388 . S
C1133 C1134 1.366 . S
C1134 C1133 1.366 . S
C1134 C1135 1.414 . S
C1134 C1137 1.499 . S
C1135 H1109 0.950 . S
C1135 C1134 1.414 . S
C1135 C1136 1.374 . S
C1136 H1110 0.950 . S
C1136 C1132 1.385 . S
C1136 C1135 1.374 . S
C1137 C1134 1.499 . S
C1137 C1138 1.373 . S
C1137 C1139 1.389 . S
C1138 H1111 0.950 . S
C1138 C1124 1.377 . S
C1138 C1137 1.373 . S
C1139 C1123 1.377 . S
C1139 C1137 1.389 . S
C1139 C1140 1.524 . S
C1140 C1139 1.524 . S
C1140 C1141 1.397 . S
C1140 C1145 1.363 . S
C1141 H1112 0.950 . S
C1141 C1140 1.397 . S
C1141 C1142 1.334 . S
C1142 H1113 0.950 . S
C1142 C1141 1.334 . S
C1142 C1143 1.287 . S
C1143 C1142 1.287 . S
C1143 C1144 1.524 . S
C1143 H1146 0.999 . S
C1144 H1114 0.950 . S
C1144 C1143 1.524 . S
C1144 C1145 1.415 . S
C1145 H1115 0.950 . S
C1145 C1140 1.363 . S
C1145 C1144 1.415 . S
H1146 C1143 0.999 . S
H1147 C1128 0.913 . S
H1148 C1166 0.951 . S
H1149 C1168 0.951 . S
H1150 C1170 0.950 . S
H1151 C1171 0.950 . S
H1152 C1173 0.950 . S
H1153 C1176 0.950 . S
H1154 C1177 0.950 . S
H1155 C1179 0.950 . S
H1156 C1180 0.950 . S
H1157 C1181 0.951 . S
H1158 C1183 0.951 . S
H1159 C1185 0.950 . S
H1160 C1186 0.950 . S
H1161 C1188 0.950 . S
H1162 C1191 0.950 . S
H1163 C1192 0.950 . S
H1164 C1194 0.950 . S
H1165 C1195 0.950 . S
C1166 H1148 0.951 . S
C1166 C1167 1.366 . S
C1166 C1168 1.388 . S
C1167 C1166 1.366 . S
C1167 C1171 1.385 . S
C1168 H1149 0.951 . S
C1168 C1166 1.388 . S
C1168 C1169 1.366 . S
C1169 C1168 1.366 . S
C1169 C1170 1.414 . S
C1169 C1172 1.499 . S
C1170 H1150 0.950 . S
C1170 C1169 1.414 . S
C1170 C1171 1.374 . S
C1171 H1151 0.950 . S
C1171 C1167 1.385 . S
C1171 C1170 1.374 . S
C1172 C1169 1.499 . S
C1172 C1173 1.373 . S
C1172 C1174 1.389 . S
C1173 H1152 0.950 . S
C1173 C1172 1.373 . S
C1173 C1189 1.377 . S
C1174 C1172 1.389 . S
C1174 C1175 1.524 . S
C1174 C1188 1.377 . S
C1175 C1174 1.524 . S
C1175 C1176 1.397 . S
C1175 C1180 1.363 . S
C1176 H1153 0.950 . S
C1176 C1175 1.397 . S
C1176 C1177 1.334 . S
C1177 H1154 0.950 . S
C1177 C1176 1.334 . S
C1177 C1178 1.287 . S
C1178 C1177 1.287 . S
C1178 C1179 1.524 . S
C1178 H1197 0.913 . S
C1179 H1155 0.950 . S
C1179 C1178 1.524 . S
C1179 C1180 1.415 . S
C1180 H1156 0.950 . S
C1180 C1175 1.363 . S
C1180 C1179 1.415 . S
C1181 H1157 0.951 . S
C1181 C1182 1.366 . S
C1181 C1183 1.388 . S
C1182 C1181 1.366 . S
C1182 C1186 1.385 . S
C1183 H1158 0.951 . S
C1183 C1181 1.388 . S
C1183 C1184 1.366 . S
C1184 C1183 1.366 . S
C1184 C1185 1.414 . S
C1184 C1187 1.499 . S
C1185 H1159 0.950 . S
C1185 C1184 1.414 . S
C1185 C1186 1.374 . S
C1186 H1160 0.950 . S
C1186 C1182 1.385 . S
C1186 C1185 1.374 . S
C1187 C1184 1.499 . S
C1187 C1188 1.373 . S
C1187 C1189 1.389 . S
C1188 H1161 0.950 . S
C1188 C1174 1.377 . S
C1188 C1187 1.373 . S
C1189 C1173 1.377 . S
C1189 C1187 1.389 . S
C1189 C1190 1.524 . S
C1190 C1189 1.524 . S
C1190 C1191 1.397 . S
C1190 C1195 1.363 . S
C1191 H1162 0.950 . S
C1191 C1190 1.397 . S
C1191 C1192 1.334 . S
C1192 H1163 0.950 . S
C1192 C1191 1.334 . S
C1192 C1193 1.287 . S
C1193 C1192 1.287 . S
C1193 C1194 1.524 . S
C1193 H1196 0.999 . S
C1194 H1164 0.950 . S
C1194 C1193 1.524 . S
C1194 C1195 1.415 . S
C1195 H1165 0.950 . S
C1195 C1190 1.363 . S
C1195 C1194 1.415 . S
H1196 C1193 0.999 . S
H1197 C1178 0.913 . S
H1198 C1216 0.951 . S
H1199 C1218 0.951 . S
H1200 C1220 0.950 . S
H1201 C1221 0.950 . S
H1202 C1223 0.950 . S
H1203 C1226 0.950 . S
H1204 C1227 0.950 . S
H1205 C1229 0.950 . S
H1206 C1230 0.950 . S
H1207 C1231 0.951 . S
H1208 C1233 0.951 . S
H1209 C1235 0.950 . S
H1210 C1236 0.950 . S
H1211 C1238 0.950 . S
H1212 C1241 0.950 . S
H1213 C1242 0.950 . S
H1214 C1244 0.950 . S
H1215 C1245 0.950 . S
C1216 H1198 0.951 . S
C1216 C1217 1.366 . S
C1216 C1218 1.388 . S
C1217 C1216 1.366 . S
C1217 C1221 1.385 . S
C1218 H1199 0.951 . S
C1218 C1216 1.388 . S
C1218 C1219 1.366 . S
C1219 C1218 1.366 . S
C1219 C1220 1.414 . S
C1219 C1222 1.499 . S
C1220 H1200 0.950 . S
C1220 C1219 1.414 . S
C1220 C1221 1.374 . S
C1221 H1201 0.950 . S
C1221 C1217 1.385 . S
C1221 C1220 1.374 . S
C1222 C1219 1.499 . S
C1222 C1223 1.373 . S
C1222 C1224 1.389 . S
C1223 H1202 0.950 . S
C1223 C1222 1.373 . S
C1223 C1239 1.377 . S
C1224 C1222 1.389 . S
C1224 C1225 1.524 . S
C1224 C1238 1.377 . S
C1225 C1224 1.524 . S
C1225 C1226 1.397 . S
C1225 C1230 1.363 . S
C1226 H1203 0.950 . S
C1226 C1225 1.397 . S
C1226 C1227 1.334 . S
C1227 H1204 0.950 . S
C1227 C1226 1.334 . S
C1227 C1228 1.287 . S
C1228 C1227 1.287 . S
C1228 C1229 1.524 . S
C1228 H1247 0.913 . S
C1229 H1205 0.950 . S
C1229 C1228 1.524 . S
C1229 C1230 1.415 . S
C1230 H1206 0.950 . S
C1230 C1225 1.363 . S
C1230 C1229 1.415 . S
C1231 H1207 0.951 . S
C1231 C1232 1.366 . S
C1231 C1233 1.388 . S
C1232 C1231 1.366 . S
C1232 C1236 1.385 . S
C1233 H1208 0.951 . S
C1233 C1231 1.388 . S
C1233 C1234 1.366 . S
C1234 C1233 1.366 . S
C1234 C1235 1.414 . S
C1234 C1237 1.499 . S
C1235 H1209 0.950 . S
C1235 C1234 1.414 . S
C1235 C1236 1.374 . S
C1236 H1210 0.950 . S
C1236 C1232 1.385 . S
C1236 C1235 1.374 . S
C1237 C1234 1.499 . S
C1237 C1238 1.373 . S
C1237 C1239 1.389 . S
C1238 H1211 0.950 . S
C1238 C1224 1.377 . S
C1238 C1237 1.373 . S
C1239 C1223 1.377 . S
C1239 C1237 1.389 . S
C1239 C1240 1.524 . S
C1240 C1239 1.524 . S
C1240 C1241 1.397 . S
C1240 C1245 1.363 . S
C1241 H1212 0.950 . S
C1241 C1240 1.397 . S
C1241 C1242 1.334 . S
C1242 H1213 0.950 . S
C1242 C1241 1.334 . S
C1242 C1243 1.287 . S
C1243 C1242 1.287 . S
C1243 C1244 1.524 . S
C1243 H1246 0.999 . S
C1244 H1214 0.950 . S
C1244 C1243 1.524 . S
C1244 C1245 1.415 . S
C1245 H1215 0.950 . S
C1245 C1240 1.363 . S
C1245 C1244 1.415 . S
H1246 C1243 0.999 . S
H1247 C1228 0.913 . S
H1248 C1266 0.951 . S
H1249 C1268 0.951 . S
H1250 C1270 0.950 . S
H1251 C1271 0.950 . S
H1252 C1273 0.950 . S
H1253 C1276 0.950 . S
H1254 C1277 0.950 . S
H1255 C1279 0.950 . S
H1256 C1280 0.950 . S
H1257 C1281 0.951 . S
H1258 C1283 0.951 . S
H1259 C1285 0.950 . S
H1260 C1286 0.950 . S
H1261 C1288 0.950 . S
H1262 C1291 0.950 . S
H1263 C1292 0.950 . S
H1264 C1294 0.950 . S
H1265 C1295 0.950 . S
C1266 H1248 0.951 . S
C1266 C1267 1.366 . S
C1266 C1268 1.388 . S
C1267 C1266 1.366 . S
C1267 C1271 1.385 . S
C1268 H1249 0.951 . S
C1268 C1266 1.388 . S
C1268 C1269 1.366 . S
C1269 C1268 1.366 . S
C1269 C1270 1.414 . S
C1269 C1272 1.499 . S
C1270 H1250 0.950 . S
C1270 C1269 1.414 . S
C1270 C1271 1.374 . S
C1271 H1251 0.950 . S
C1271 C1267 1.385 . S
C1271 C1270 1.374 . S
C1272 C1269 1.499 . S
C1272 C1273 1.373 . S
C1272 C1274 1.403 . S
C1273 H1252 0.950 . S
C1273 C1272 1.373 . S
C1273 C1289 1.362 1_455 S
C1274 C1272 1.403 . S
C1274 C1275 1.524 . S
C1274 C1288 1.362 1_455 S
C1275 C1274 1.524 . S
C1275 C1276 1.412 . S
C1275 C1280 1.348 1_455 S
C1276 H1253 0.950 . S
C1276 C1275 1.412 . S
C1276 C1277 1.334 . S
C1277 H1254 0.950 . S
C1277 C1276 1.334 . S
C1277 C1278 1.287 . S
C1278 C1277 1.287 . S
C1278 C1279 1.524 1_455 S
C1278 H1297 0.913 . S
C1279 H1255 0.950 . S
C1279 C1278 1.524 1_655 S
C1279 C1280 1.415 . S
C1280 H1256 0.950 . S
C1280 C1275 1.348 1_655 S
C1280 C1279 1.415 . S
C1281 H1257 0.951 . S
C1281 C1282 1.366 . S
C1281 C1283 1.388 . S
C1282 C1281 1.366 . S
C1282 C1286 1.385 . S
C1283 H1258 0.951 . S
C1283 C1281 1.388 . S
C1283 C1284 1.366 . S
C1284 C1283 1.366 . S
C1284 C1285 1.414 . S
C1284 C1287 1.499 . S
C1285 H1259 0.950 . S
C1285 C1284 1.414 . S
C1285 C1286 1.374 . S
C1286 H1260 0.950 . S
C1286 C1282 1.385 . S
C1286 C1285 1.374 . S
C1287 C1284 1.499 . S
C1287 C1288 1.373 . S
C1287 C1289 1.403 . S
C1288 H1261 0.950 . S
C1288 C1274 1.362 1_655 S
C1288 C1287 1.373 . S
C1289 C1273 1.362 1_655 S
C1289 C1287 1.403 . S
C1289 C1290 1.524 . S
C1290 C1289 1.524 . S
C1290 C1291 1.412 . S
C1290 C1295 1.348 1_655 S
C1291 H1262 0.950 . S
C1291 C1290 1.412 . S
C1291 C1292 1.334 . S
C1292 H1263 0.950 . S
C1292 C1291 1.334 . S
C1292 C1293 1.287 . S
C1293 C1292 1.287 . S
C1293 C1294 1.524 1_655 S
C1293 H1296 0.999 . S
C1294 H1264 0.950 . S
C1294 C1293 1.524 1_455 S
C1294 C1295 1.415 . S
C1295 H1265 0.950 . S
C1295 C1290 1.348 1_455 S
C1295 C1294 1.415 . S
H1296 C1293 0.999 . S
H1297 C1278 0.913 . S
H1298 C1316 0.951 . S
H1299 C1318 0.951 . S
H1300 C1320 0.950 . S
H1301 C1321 0.950 . S
H1302 C1323 0.950 . S
H1303 C1326 0.950 . S
H1304 C1327 0.950 . S
H1305 C1329 0.950 . S
H1306 C1330 0.950 . S
H1307 C1331 0.951 . S
H1308 C1333 0.951 . S
H1309 C1335 0.950 . S
H1310 C1336 0.950 . S
H1311 C1338 0.950 . S
H1312 C1341 0.950 . S
H1313 C1342 0.950 . S
H1314 C1344 0.950 . S
H1315 C1345 0.950 . S
C1316 H1298 0.951 . S
C1316 C1317 1.366 . S
C1316 C1318 1.388 . S
C1317 C1316 1.366 . S
C1317 C1321 1.385 . S
C1318 H1299 0.951 . S
C1318 C1316 1.388 . S
C1318 C1319 1.366 . S
C1319 C1318 1.366 . S
C1319 C1320 1.414 . S
C1319 C1322 1.499 . S
C1320 H1300 0.950 . S
C1320 C1319 1.414 . S
C1320 C1321 1.374 . S
C1321 H1301 0.950 . S
C1321 C1317 1.385 . S
C1321 C1320 1.374 . S
C1322 C1319 1.499 . S
C1322 C1323 1.373 1_545 S
C1322 C1324 1.389 . S
C1323 H1302 0.950 . S
C1323 C1322 1.373 1_565 S
C1323 C1339 1.377 . S
C1324 C1322 1.389 . S
C1324 C1325 1.524 . S
C1324 C1338 1.377 . S
C1325 C1324 1.524 . S
C1325 C1326 1.397 . S
C1325 C1330 1.363 . S
C1326 H1303 0.950 . S
C1326 C1325 1.397 . S
C1326 C1327 1.334 . S
C1327 H1304 0.950 . S
C1327 C1326 1.334 . S
C1327 C1328 1.287 . S
C1328 C1327 1.287 . S
C1328 C1329 1.524 . S
C1328 H1347 0.913 . S
C1329 H1305 0.950 . S
C1329 C1328 1.524 . S
C1329 C1330 1.415 . S
C1330 H1306 0.950 . S
C1330 C1325 1.363 . S
C1330 C1329 1.415 . S
C1331 H1307 0.951 . S
C1331 C1332 1.366 . S
C1331 C1333 1.388 . S
C1332 C1331 1.366 . S
C1332 C1336 1.385 . S
C1333 H1308 0.951 . S
C1333 C1331 1.388 . S
C1333 C1334 1.366 . S
C1334 C1333 1.366 . S
C1334 C1335 1.414 . S
C1334 C1337 1.499 . S
C1335 H1309 0.950 . S
C1335 C1334 1.414 . S
C1335 C1336 1.374 . S
C1336 H1310 0.950 . S
C1336 C1332 1.385 . S
C1336 C1335 1.374 . S
C1337 C1334 1.499 . S
C1337 C1338 1.373 1_565 S
C1337 C1339 1.389 . S
C1338 H1311 0.950 . S
C1338 C1324 1.377 . S
C1338 C1337 1.373 1_545 S
C1339 C1323 1.377 . S
C1339 C1337 1.389 . S
C1339 C1340 1.524 . S
C1340 C1339 1.524 . S
C1340 C1341 1.397 . S
C1340 C1345 1.363 . S
C1341 H1312 0.950 . S
C1341 C1340 1.397 . S
C1341 C1342 1.334 . S
C1342 H1313 0.950 . S
C1342 C1341 1.334 . S
C1342 C1343 1.287 . S
C1343 C1342 1.287 . S
C1343 C1344 1.524 . S
C1343 H1346 0.999 . S
C1344 H1314 0.950 . S
C1344 C1343 1.524 . S
C1344 C1345 1.415 . S
C1345 H1315 0.950 . S
C1345 C1340 1.363 . S
C1345 C1344 1.415 . S
H1346 C1343 0.999 . S
H1347 C1328 0.913 . S
H1348 C1366 0.951 . S
H1349 C1368 0.951 . S
H1350 C1370 0.950 1_554 S
H1351 C1371 0.950 . S
H1352 C1373 0.950 . S
H1353 C1376 0.950 . S
H1354 C1377 0.950 . S
H1355 C1379 0.950 1_565 S
H1356 C1380 0.950 1_565 S
H1357 C1381 0.951 . S
H1358 C1383 0.951 . S
H1359 C1385 0.950 1_556 S
H1360 C1386 0.950 . S
H1361 C1388 0.950 . S
H1362 C1391 0.950 . S
H1363 C1392 0.950 . S
H1364 C1394 0.950 1_545 S
H1365 C1395 0.950 1_545 S
C1366 H1348 0.951 . S
C1366 C1367 1.366 . S
C1366 C1368 1.388 . S
C1367 C1366 1.366 . S
C1367 C1371 1.385 . S
C1368 H1349 0.951 . S
C1368 C1366 1.388 . S
C1368 C1369 1.366 . S
C1369 C1368 1.366 . S
C1369 C1370 1.414 . S
C1369 C1372 1.499 . S
C1370 H1350 0.950 1_556 S
C1370 C1369 1.414 . S
C1370 C1371 1.374 . S
C1371 H1351 0.950 . S
C1371 C1367 1.385 . S
C1371 C1370 1.374 . S
C1372 C1369 1.499 . S
C1372 C1373 1.373 1_556 S
C1372 C1374 1.389 1_455 S
C1373 H1352 0.950 . S
C1373 C1372 1.373 1_554 S
C1373 C1389 1.377 1_545 S
C1374 C1372 1.389 1_655 S
C1374 C1375 1.524 . S
C1374 C1388 1.377 1_545 S
C1375 C1374 1.524 . S
C1375 C1376 1.397 . S
C1375 C1380 1.363 . S
C1376 H1353 0.950 . S
C1376 C1375 1.397 . S
C1376 C1377 1.334 . S
C1377 H1354 0.950 . S
C1377 C1376 1.334 . S
C1377 C1378 1.287 . S
C1378 C1377 1.287 . S
C1378 C1379 1.524 . S
C1378 H1397 0.913 . S
C1379 H1355 0.950 1_545 S
C1379 C1378 1.524 . S
C1379 C1380 1.415 . S
C1380 H1356 0.950 1_545 S
C1380 C1375 1.363 . S
C1380 C1379 1.415 . S
C1381 H1357 0.951 . S
C1381 C1382 1.366 . S
C1381 C1383 1.388 . S
C1382 C1381 1.366 . S
C1382 C1386 1.385 . S
C1383 H1358 0.951 . S
C1383 C1381 1.388 . S
C1383 C1384 1.366 . S
C1384 C1383 1.366 . S
C1384 C1385 1.414 . S
C1384 C1387 1.499 . S
C1385 H1359 0.950 1_554 S
C1385 C1384 1.414 . S
C1385 C1386 1.374 . S
C1386 H1360 0.950 . S
C1386 C1382 1.385 . S
C1386 C1385 1.374 . S
C1387 C1384 1.499 . S
C1387 C1388 1.373 1_554 S
C1387 C1389 1.389 1_655 S
C1388 H1361 0.950 . S
C1388 C1374 1.377 1_565 S
C1388 C1387 1.373 1_556 S
C1389 C1373 1.377 1_565 S
C1389 C1387 1.389 1_455 S
C1389 C1390 1.524 . S
C1390 C1389 1.524 . S
C1390 C1391 1.397 . S
C1390 C1395 1.363 . S
C1391 H1362 0.950 . S
C1391 C1390 1.397 . S
C1391 C1392 1.334 . S
C1392 H1363 0.950 . S
C1392 C1391 1.334 . S
C1392 C1393 1.287 . S
C1393 C1392 1.287 . S
C1393 C1394 1.524 . S
C1393 H1396 0.999 . S
C1394 H1364 0.950 1_565 S
C1394 C1393 1.524 . S
C1394 C1395 1.415 . S
C1395 H1365 0.950 1_565 S
C1395 C1390 1.363 . S
C1395 C1394 1.415 . S
H1396 C1393 0.999 . S
H1397 C1378 0.913 . S
H1398 C1416 0.951 . S
H1399 C1418 0.951 . S
H1400 C1420 0.950 . S
H1401 C1421 0.950 . S
H1402 C1423 0.950 . S
H1403 C1426 0.950 . S
H1404 C1427 0.950 . S
H1405 C1429 0.950 . S
H1406 C1430 0.950 . S
H1407 C1431 0.951 . S
H1408 C1433 0.951 . S
H1409 C1435 0.950 . S
H1410 C1436 0.950 . S
H1411 C1438 0.950 . S
H1412 C1441 0.950 . S
H1413 C1442 0.950 . S
H1414 C1444 0.950 . S
H1415 C1445 0.950 . S
C1416 H1398 0.951 . S
C1416 C1417 1.366 . S
C1416 C1418 1.388 . S
C1417 C1416 1.366 . S
C1417 C1421 1.385 . S
C1418 H1399 0.951 . S
C1418 C1416 1.388 . S
C1418 C1419 1.366 . S
C1419 C1418 1.366 . S
C1419 C1420 1.414 . S
C1419 C1422 1.499 . S
C1420 H1400 0.950 . S
C1420 C1419 1.414 . S
C1420 C1421 1.374 . S
C1421 H1401 0.950 . S
C1421 C1417 1.385 . S
C1421 C1420 1.374 . S
C1422 C1419 1.499 . S
C1422 C1423 1.373 . S
C1422 C1424 1.389 1_556 S
C1423 H1402 0.950 . S
C1423 C1422 1.373 . S
C1423 C1439 1.377 . S
C1424 C1422 1.389 1_554 S
C1424 C1425 1.524 . S
C1424 C1438 1.377 . S
C1425 C1424 1.524 . S
C1425 C1426 1.397 . S
C1425 C1430 1.363 . S
C1426 H1403 0.950 . S
C1426 C1425 1.397 . S
C1426 C1427 1.334 . S
C1427 H1404 0.950 . S
C1427 C1426 1.334 . S
C1427 C1428 1.287 . S
C1428 C1427 1.287 . S
C1428 C1429 1.524 . S
C1428 H1447 0.913 . S
C1429 H1405 0.950 . S
C1429 C1428 1.524 . S
C1429 C1430 1.415 . S
C1430 H1406 0.950 . S
C1430 C1425 1.363 . S
C1430 C1429 1.415 . S
C1431 H1407 0.951 . S
C1431 C1432 1.366 . S
C1431 C1433 1.388 . S
C1432 C1431 1.366 . S
C1432 C1436 1.385 . S
C1433 H1408 0.951 . S
C1433 C1431 1.388 . S
C1433 C1434 1.366 . S
C1434 C1433 1.366 . S
C1434 C1435 1.414 . S
C1434 C1437 1.499 . S
C1435 H1409 0.950 . S
C1435 C1434 1.414 . S
C1435 C1436 1.374 . S
C1436 H1410 0.950 . S
C1436 C1432 1.385 . S
C1436 C1435 1.374 . S
C1437 C1434 1.499 . S
C1437 C1438 1.373 . S
C1437 C1439 1.389 1_554 S
C1438 H1411 0.950 . S
C1438 C1424 1.377 . S
C1438 C1437 1.373 . S
C1439 C1423 1.377 . S
C1439 C1437 1.389 1_556 S
C1439 C1440 1.524 . S
C1440 C1439 1.524 . S
C1440 C1441 1.397 . S
C1440 C1445 1.363 . S
C1441 H1412 0.950 . S
C1441 C1440 1.397 . S
C1441 C1442 1.334 . S
C1442 H1413 0.950 . S
C1442 C1441 1.334 . S
C1442 C1443 1.287 . S
C1443 C1442 1.287 . S
C1443 C1444 1.524 . S
C1443 H1446 0.999 . S
C1444 H1414 0.950 . S
C1444 C1443 1.524 . S
C1444 C1445 1.415 . S
C1445 H1415 0.950 . S
C1445 C1440 1.363 . S
C1445 C1444 1.415 . S
H1446 C1443 0.999 . S
H1447 C1428 0.913 . S
H1448 C1466 0.951 . S
H1449 C1468 0.951 . S
H1450 C1470 0.950 . S
H1451 C1471 0.950 . S
H1452 C1473 0.950 . S
H1453 C1476 0.950 . S
H1454 C1477 0.950 . S
H1455 C1479 0.950 . S
H1456 C1480 0.950 1_455 S
H1457 C1481 0.951 . S
H1458 C1483 0.951 . S
H1459 C1485 0.950 . S
H1460 C1486 0.950 . S
H1461 C1488 0.950 . S
H1462 C1491 0.950 . S
H1463 C1492 0.950 . S
H1464 C1494 0.950 . S
H1465 C1495 0.950 1_655 S
C1466 H1448 0.951 . S
C1466 C1467 1.366 . S
C1466 C1468 1.388 . S
C1467 C1466 1.366 . S
C1467 C1471 1.385 . S
C1468 H1449 0.951 . S
C1468 C1466 1.388 . S
C1468 C1469 1.366 . S
C1469 C1468 1.366 . S
C1469 C1470 1.414 . S
C1469 C1472 1.499 . S
C1470 H1450 0.950 . S
C1470 C1469 1.414 . S
C1470 C1471 1.374 . S
C1471 H1451 0.950 . S
C1471 C1467 1.385 . S
C1471 C1470 1.374 . S
C1472 C1469 1.499 . S
C1472 C1473 1.373 . S
C1472 C1474 1.389 . S
C1473 H1452 0.950 . S
C1473 C1472 1.373 . S
C1473 C1489 1.377 1_655 S
C1474 C1472 1.389 . S
C1474 C1475 1.524 . S
C1474 C1488 1.377 1_655 S
C1475 C1474 1.524 . S
C1475 C1476 1.397 . S
C1475 C1480 1.363 . S
C1476 H1453 0.950 . S
C1476 C1475 1.397 . S
C1476 C1477 1.334 . S
C1477 H1454 0.950 . S
C1477 C1476 1.334 . S
C1477 C1478 1.287 . S
C1478 C1477 1.287 . S
C1478 C1479 1.524 . S
C1478 H1497 0.913 . S
C1479 H1455 0.950 . S
C1479 C1478 1.524 . S
C1479 C1480 1.415 . S
C1480 H1456 0.950 1_655 S
C1480 C1475 1.363 . S
C1480 C1479 1.415 . S
C1481 H1457 0.951 . S
C1481 C1482 1.366 . S
C1481 C1483 1.388 . S
C1482 C1481 1.366 . S
C1482 C1486 1.385 . S
C1483 H1458 0.951 . S
C1483 C1481 1.388 . S
C1483 C1484 1.366 . S
C1484 C1483 1.366 . S
C1484 C1485 1.414 . S
C1484 C1487 1.499 . S
C1485 H1459 0.950 . S
C1485 C1484 1.414 . S
C1485 C1486 1.374 . S
C1486 H1460 0.950 . S
C1486 C1482 1.385 . S
C1486 C1485 1.374 . S
C1487 C1484 1.499 . S
C1487 C1488 1.373 . S
C1487 C1489 1.389 . S
C1488 H1461 0.950 . S
C1488 C1474 1.377 1_455 S
C1488 C1487 1.373 . S
C1489 C1473 1.377 1_455 S
C1489 C1487 1.389 . S
C1489 C1490 1.524 . S
C1490 C1489 1.524 . S
C1490 C1491 1.397 . S
C1490 C1495 1.363 . S
C1491 H1462 0.950 . S
C1491 C1490 1.397 . S
C1491 C1492 1.334 . S
C1492 H1463 0.950 . S
C1492 C1491 1.334 . S
C1492 C1493 1.287 . S
C1493 C1492 1.287 . S
C1493 C1494 1.524 . S
C1493 H1496 0.999 . S
C1494 H1464 0.950 . S
C1494 C1493 1.524 . S
C1494 C1495 1.415 . S
C1495 H1465 0.950 1_455 S
C1495 C1490 1.363 . S
C1495 C1494 1.415 . S
H1496 C1493 0.999 . S
H1497 C1478 0.913 . S
H1498 C1516 0.951 . S
H1499 C1518 0.951 . S
H1500 C1520 0.950 1_565 S
H1501 C1521 0.950 . S
H1502 C1523 0.950 . S
H1503 C1526 0.950 . S
H1504 C1527 0.950 . S
H1505 C1529 0.950 . S
H1506 C1530 0.950 . S
H1507 C1531 0.951 . S
H1508 C1533 0.951 . S
H1509 C1535 0.950 1_545 S
H1510 C1536 0.950 . S
H1511 C1538 0.950 . S
H1512 C1541 0.950 . S
H1513 C1542 0.950 . S
H1514 C1544 0.950 . S
H1515 C1545 0.950 . S
C1516 H1498 0.951 . S
C1516 C1517 1.366 . S
C1516 C1518 1.388 . S
C1517 C1516 1.366 . S
C1517 C1521 1.385 . S
C1518 H1499 0.951 . S
C1518 C1516 1.388 . S
C1518 C1519 1.366 . S
C1519 C1518 1.366 . S
C1519 C1520 1.414 . S
C1519 C1522 1.499 . S
C1520 H1500 0.950 1_545 S
C1520 C1519 1.414 . S
C1520 C1521 1.374 . S
C1521 H1501 0.950 . S
C1521 C1517 1.385 . S
C1521 C1520 1.374 . S
C1522 C1519 1.499 . S
C1522 C1523 1.373 1_545 S
C1522 C1524 1.389 . S
C1523 H1502 0.950 . S
C1523 C1522 1.373 1_565 S
C1523 C1539 1.377 . S
C1524 C1522 1.389 . S
C1524 C1525 1.524 . S
C1524 C1538 1.377 . S
C1525 C1524 1.524 . S
C1525 C1526 1.397 . S
C1525 C1530 1.363 . S
C1526 H1503 0.950 . S
C1526 C1525 1.397 . S
C1526 C1527 1.334 . S
C1527 H1504 0.950 . S
C1527 C1526 1.334 . S
C1527 C1528 1.287 . S
C1528 C1527 1.287 . S
C1528 C1529 1.524 . S
C1528 H1547 0.913 . S
C1529 H1505 0.950 . S
C1529 C1528 1.524 . S
C1529 C1530 1.415 . S
C1530 H1506 0.950 . S
C1530 C1525 1.363 . S
C1530 C1529 1.415 . S
C1531 H1507 0.951 . S
C1531 C1532 1.366 . S
C1531 C1533 1.388 . S
C1532 C1531 1.366 . S
C1532 C1536 1.385 . S
C1533 H1508 0.951 . S
C1533 C1531 1.388 . S
C1533 C1534 1.366 . S
C1534 C1533 1.366 . S
C1534 C1535 1.414 . S
C1534 C1537 1.499 . S
C1535 H1509 0.950 1_565 S
C1535 C1534 1.414 . S
C1535 C1536 1.374 . S
C1536 H1510 0.950 . S
C1536 C1532 1.385 . S
C1536 C1535 1.374 . S
C1537 C1534 1.499 . S
C1537 C1538 1.373 1_565 S
C1537 C1539 1.389 . S
C1538 H1511 0.950 . S
C1538 C1524 1.377 . S
C1538 C1537 1.373 1_545 S
C1539 C1523 1.377 . S
C1539 C1537 1.389 . S
C1539 C1540 1.524 . S
C1540 C1539 1.524 . S
C1540 C1541 1.397 . S
C1540 C1545 1.363 . S
C1541 H1512 0.950 . S
C1541 C1540 1.397 . S
C1541 C1542 1.334 . S
C1542 H1513 0.950 . S
C1542 C1541 1.334 . S
C1542 C1543 1.287 . S
C1543 C1542 1.287 . S
C1543 C1544 1.524 . S
C1543 H1546 0.999 . S
C1544 H1514 0.950 . S
C1544 C1543 1.524 . S
C1544 C1545 1.415 . S
C1545 H1515 0.950 . S
C1545 C1540 1.363 . S
C1545 C1544 1.415 . S
H1546 C1543 0.999 . S
H1547 C1528 0.913 . S
H1548 C1566 0.951 . S
H1549 C1568 0.951 . S
H1550 C1570 0.950 . S
H1551 C1571 0.950 . S
H1552 C1573 0.950 . S
H1553 C1576 0.950 . S
H1554 C1577 0.950 . S
H1555 C1579 0.950 . S
H1556 C1580 0.950 1_554 S
H1557 C1581 0.951 . S
H1558 C1583 0.951 . S
H1559 C1585 0.950 . S
H1560 C1586 0.950 . S
H1561 C1588 0.950 . S
H1562 C1591 0.950 . S
H1563 C1592 0.950 . S
H1564 C1594 0.950 . S
H1565 C1595 0.950 1_556 S
C1566 H1548 0.951 . S
C1566 C1567 1.366 . S
C1566 C1568 1.388 . S
C1567 C1566 1.366 . S
C1567 C1571 1.385 . S
C1568 H1549 0.951 . S
C1568 C1566 1.388 . S
C1568 C1569 1.366 . S
C1569 C1568 1.366 . S
C1569 C1570 1.414 . S
C1569 C1572 1.499 . S
C1570 H1550 0.950 . S
C1570 C1569 1.414 . S
C1570 C1571 1.374 . S
C1571 H1551 0.950 . S
C1571 C1567 1.385 . S
C1571 C1570 1.374 . S
C1572 C1569 1.499 . S
C1572 C1573 1.373 . S
C1572 C1574 1.389 . S
C1573 H1552 0.950 . S
C1573 C1572 1.373 . S
C1573 C1589 1.377 1_556 S
C1574 C1572 1.389 . S
C1574 C1575 1.524 . S
C1574 C1588 1.377 1_556 S
C1575 C1574 1.524 . S
C1575 C1576 1.397 . S
C1575 C1580 1.363 . S
C1576 H1553 0.950 . S
C1576 C1575 1.397 . S
C1576 C1577 1.334 . S
C1577 H1554 0.950 . S
C1577 C1576 1.334 . S
C1577 C1578 1.287 . S
C1578 C1577 1.287 . S
C1578 C1579 1.524 . S
C1578 H1597 0.913 . S
C1579 H1555 0.950 . S
C1579 C1578 1.524 . S
C1579 C1580 1.415 . S
C1580 H1556 0.950 1_556 S
C1580 C1575 1.363 . S
C1580 C1579 1.415 . S
C1581 H1557 0.951 . S
C1581 C1582 1.366 . S
C1581 C1583 1.388 . S
C1582 C1581 1.366 . S
C1582 C1586 1.385 . S
C1583 H1558 0.951 . S
C1583 C1581 1.388 . S
C1583 C1584 1.366 . S
C1584 C1583 1.366 . S
C1584 C1585 1.414 . S
C1584 C1587 1.499 . S
C1585 H1559 0.950 . S
C1585 C1584 1.414 . S
C1585 C1586 1.374 . S
C1586 H1560 0.950 . S
C1586 C1582 1.385 . S
C1586 C1585 1.374 . S
C1587 C1584 1.499 . S
C1587 C1588 1.373 . S
C1587 C1589 1.389 . S
C1588 H1561 0.950 . S
C1588 C1574 1.377 1_554 S
C1588 C1587 1.373 . S
C1589 C1573 1.377 1_554 S
C1589 C1587 1.389 . S
C1589 C1590 1.524 . S
C1590 C1589 1.524 . S
C1590 C1591 1.397 . S
C1590 C1595 1.363 . S
C1591 H1562 0.950 . S
C1591 C1590 1.397 . S
C1591 C1592 1.334 . S
C1592 H1563 0.950 . S
C1592 C1591 1.334 . S
C1592 C1593 1.287 . S
C1593 C1592 1.287 . S
C1593 C1594 1.524 . S
C1593 H1596 0.999 . S
C1594 H1564 0.950 . S
C1594 C1593 1.524 . S
C1594 C1595 1.415 . S
C1595 H1565 0.950 1_554 S
C1595 C1590 1.363 . S
C1595 C1594 1.415 . S
H1596 C1593 0.999 . S
H1597 C1578 0.913 . S
H1598 C1616 0.951 . S
H1599 C1618 0.951 . S
H1600 C1620 0.950 . S
H1601 C1621 0.950 . S
H1602 C1623 0.950 . S
H1603 C1626 0.950 . S
H1604 C1627 0.950 . S
H1605 C1629 0.950 . S
H1606 C1630 0.950 . S
H1607 C1631 0.951 . S
H1608 C1633 0.951 . S
H1609 C1635 0.950 . S
H1610 C1636 0.950 . S
H1611 C1638 0.950 . S
H1612 C1641 0.950 . S
H1613 C1642 0.950 . S
H1614 C1644 0.950 . S
H1615 C1645 0.950 . S
C1616 H1598 0.951 . S
C1616 C1617 1.366 . S
C1616 C1618 1.388 . S
C1617 C1616 1.366 . S
C1617 C1621 1.385 . S
C1618 H1599 0.951 . S
C1618 C1616 1.388 . S
C1618 C1619 1.366 . S
C1619 C1618 1.366 . S
C1619 C1620 1.414 . S
C1619 C1622 1.499 . S
C1620 H1600 0.950 . S
C1620 C1619 1.414 . S
C1620 C1621 1.374 . S
C1621 H1601 0.950 . S
C1621 C1617 1.385 . S
C1621 C1620 1.374 . S
C1622 C1619 1.499 . S
C1622 C1623 1.373 . S
C1622 C1624 1.389 . S
C1623 H1602 0.950 . S
C1623 C1622 1.373 . S
C1623 C1639 1.377 . S
C1624 C1622 1.389 . S
C1624 C1625 1.524 . S
C1624 C1638 1.377 . S
C1625 C1624 1.524 . S
C1625 C1626 1.397 . S
C1625 C1630 1.363 . S
C1626 H1603 0.950 . S
C1626 C1625 1.397 . S
C1626 C1627 1.334 . S
C1627 H1604 0.950 . S
C1627 C1626 1.334 . S
C1627 C1628 1.287 . S
C1628 C1627 1.287 . S
C1628 C1629 1.524 . S
C1628 H1647 0.913 . S
C1629 H1605 0.950 . S
C1629 C1628 1.524 . S
C1629 C1630 1.415 . S
C1630 H1606 0.950 . S
C1630 C1625 1.363 . S
C1630 C1629 1.415 . S
C1631 H1607 0.951 . S
C1631 C1632 1.366 . S
C1631 C1633 1.388 . S
C1632 C1631 1.366 . S
C1632 C1636 1.385 . S
C1633 H1608 0.951 . S
C1633 C1631 1.388 . S
C1633 C1634 1.366 . S
C1634 C1633 1.366 . S
C1634 C1635 1.414 . S
C1634 C1637 1.499 . S
C1635 H1609 0.950 . S
C1635 C1634 1.414 . S
C1635 C1636 1.374 . S
C1636 H1610 0.950 . S
C1636 C1632 1.385 . S
C1636 C1635 1.374 . S
C1637 C1634 1.499 . S
C1637 C1638 1.373 . S
C1637 C1639 1.389 . S
C1638 H1611 0.950 . S
C1638 C1624 1.377 . S
C1638 C1637 1.373 . S
C1639 C1623 1.377 . S
C1639 C1637 1.389 . S
C1639 C1640 1.524 . S
C1640 C1639 1.524 . S
C1640 C1641 1.397 . S
C1640 C1645 1.363 . S
C1641 H1612 0.950 . S
C1641 C1640 1.397 . S
C1641 C1642 1.334 . S
C1642 H1613 0.950 . S
C1642 C1641 1.334 . S
C1642 C1643 1.287 . S
C1643 C1642 1.287 . S
C1643 C1644 1.524 . S
C1643 H1646 0.999 . S
C1644 H1614 0.950 . S
C1644 C1643 1.524 . S
C1644 C1645 1.415 . S
C1645 H1615 0.950 . S
C1645 C1640 1.363 . S
C1645 C1644 1.415 . S
H1646 C1643 0.999 . S
H1647 C1628 0.913 . S
H1648 C1666 0.951 . S
H1649 C1668 0.951 . S
H1650 C1670 0.950 . S
H1651 C1671 0.950 . S
H1652 C1673 0.950 . S
H1653 C1676 0.950 . S
H1654 C1677 0.950 . S
H1655 C1679 0.950 . S
H1656 C1680 0.950 . S
H1657 C1681 0.951 . S
H1658 C1683 0.951 . S
H1659 C1685 0.950 . S
H1660 C1686 0.950 . S
H1661 C1688 0.950 . S
H1662 C1691 0.950 . S
H1663 C1692 0.950 . S
H1664 C1694 0.950 . S
H1665 C1695 0.950 . S
C1666 H1648 0.951 . S
C1666 C1667 1.366 . S
C1666 C1668 1.388 . S
C1667 C1666 1.366 . S
C1667 C1671 1.385 . S
C1668 H1649 0.951 . S
C1668 C1666 1.388 . S
C1668 C1669 1.366 . S
C1669 C1668 1.366 . S
C1669 C1670 1.414 . S
C1669 C1672 1.499 . S
C1670 H1650 0.950 . S
C1670 C1669 1.414 . S
C1670 C1671 1.374 . S
C1671 H1651 0.950 . S
C1671 C1667 1.385 . S
C1671 C1670 1.374 . S
C1672 C1669 1.499 . S
C1672 C1673 1.373 . S
C1672 C1674 1.425 . S
C1673 H1652 0.950 . S
C1673 C1672 1.373 . S
C1673 C1689 1.340 1_455 S
C1674 C1672 1.425 . S
C1674 C1675 1.524 . S
C1674 C1688 1.340 1_455 S
C1675 C1674 1.524 . S
C1675 C1676 1.466 . S
C1675 C1680 1.297 1_455 S
C1676 H1653 0.950 . S
C1676 C1675 1.466 . S
C1676 C1677 1.334 . S
C1677 H1654 0.950 . S
C1677 C1676 1.334 . S
C1677 C1678 1.287 . S
C1678 C1677 1.287 . S
C1678 C1679 1.524 1_455 S
C1678 H1697 0.913 . S
C1679 H1655 0.950 . S
C1679 C1678 1.524 1_655 S
C1679 C1680 1.415 . S
C1680 H1656 0.950 . S
C1680 C1675 1.297 1_655 S
C1680 C1679 1.415 . S
C1681 H1657 0.951 . S
C1681 C1682 1.366 . S
C1681 C1683 1.388 . S
C1682 C1681 1.366 . S
C1682 C1686 1.385 . S
C1683 H1658 0.951 . S
C1683 C1681 1.388 . S
C1683 C1684 1.366 . S
C1684 C1683 1.366 . S
C1684 C1685 1.414 . S
C1684 C1687 1.499 . S
C1685 H1659 0.950 . S
C1685 C1684 1.414 . S
C1685 C1686 1.374 . S
C1686 H1660 0.950 . S
C1686 C1682 1.385 . S
C1686 C1685 1.374 . S
C1687 C1684 1.499 . S
C1687 C1688 1.373 . S
C1687 C1689 1.425 . S
C1688 H1661 0.950 . S
C1688 C1674 1.340 1_655 S
C1688 C1687 1.373 . S
C1689 C1673 1.340 1_655 S
C1689 C1687 1.425 . S
C1689 C1690 1.524 . S
C1690 C1689 1.524 . S
C1690 C1691 1.466 . S
C1690 C1695 1.297 1_655 S
C1691 H1662 0.950 . S
C1691 C1690 1.466 . S
C1691 C1692 1.334 . S
C1692 H1663 0.950 . S
C1692 C1691 1.334 . S
C1692 C1693 1.287 . S
C1693 C1692 1.287 . S
C1693 C1694 1.524 1_655 S
C1693 H1696 0.999 . S
C1694 H1664 0.950 . S
C1694 C1693 1.524 1_455 S
C1694 C1695 1.415 . S
C1695 H1665 0.950 . S
C1695 C1690 1.297 1_455 S
C1695 C1694 1.415 . S
H1696 C1693 0.999 . S
H1697 C1678 0.913 . S
H1698 C1716 0.951 . S
H1699 C1718 0.951 . S
H1700 C1720 0.950 . S
H1701 C1721 0.950 . S
H1702 C1723 0.950 . S
H1703 C1726 0.950 . S
H1704 C1727 0.950 . S
H1705 C1729 0.950 . S
H1706 C1730 0.950 . S
H1707 C1731 0.951 . S
H1708 C1733 0.951 . S
H1709 C1735 0.950 . S
H1710 C1736 0.950 . S
H1711 C1738 0.950 . S
H1712 C1741 0.950 . S
H1713 C1742 0.950 . S
H1714 C1744 0.950 . S
H1715 C1745 0.950 . S
C1716 H1698 0.951 . S
C1716 C1717 1.366 . S
C1716 C1718 1.388 . S
C1717 C1716 1.366 . S
C1717 C1721 1.385 . S
C1718 H1699 0.951 . S
C1718 C1716 1.388 . S
C1718 C1719 1.366 . S
C1719 C1718 1.366 . S
C1719 C1720 1.414 . S
C1719 C1722 1.499 . S
C1720 H1700 0.950 . S
C1720 C1719 1.414 . S
C1720 C1721 1.374 . S
C1721 H1701 0.950 . S
C1721 C1717 1.385 . S
C1721 C1720 1.374 . S
C1722 C1719 1.499 . S
C1722 C1723 1.373 . S
C1722 C1724 1.389 . S
C1723 H1702 0.950 . S
C1723 C1722 1.373 . S
C1723 C1739 1.377 . S
C1724 C1722 1.389 . S
C1724 C1725 1.524 . S
C1724 C1738 1.377 . S
C1725 C1724 1.524 . S
C1725 C1726 1.397 . S
C1725 C1730 1.363 . S
C1726 H1703 0.950 . S
C1726 C1725 1.397 . S
C1726 C1727 1.334 . S
C1727 H1704 0.950 . S
C1727 C1726 1.334 . S
C1727 C1728 1.287 . S
C1728 C1727 1.287 . S
C1728 C1729 1.524 . S
C1728 H1747 0.913 . S
C1729 H1705 0.950 . S
C1729 C1728 1.524 . S
C1729 C1730 1.415 . S
C1730 H1706 0.950 . S
C1730 C1725 1.363 . S
C1730 C1729 1.415 . S
C1731 H1707 0.951 . S
C1731 C1732 1.366 . S
C1731 C1733 1.388 . S
C1732 C1731 1.366 . S
C1732 C1736 1.385 . S
C1733 H1708 0.951 . S
C1733 C1731 1.388 . S
C1733 C1734 1.366 . S
C1734 C1733 1.366 . S
C1734 C1735 1.414 . S
C1734 C1737 1.499 . S
C1735 H1709 0.950 . S
C1735 C1734 1.414 . S
C1735 C1736 1.374 . S
C1736 H1710 0.950 . S
C1736 C1732 1.385 . S
C1736 C1735 1.374 . S
C1737 C1734 1.499 . S
C1737 C1738 1.373 . S
C1737 C1739 1.389 . S
C1738 H1711 0.950 . S
C1738 C1724 1.377 . S
C1738 C1737 1.373 . S
C1739 C1723 1.377 . S
C1739 C1737 1.389 . S
C1739 C1740 1.524 . S
C1740 C1739 1.524 . S
C1740 C1741 1.397 . S
C1740 C1745 1.363 . S
C1741 H1712 0.950 . S
C1741 C1740 1.397 . S
C1741 C1742 1.334 . S
C1742 H1713 0.950 . S
C1742 C1741 1.334 . S
C1742 C1743 1.287 . S
C1743 C1742 1.287 . S
C1743 C1744 1.524 . S
C1743 H1746 0.999 . S
C1744 H1714 0.950 . S
C1744 C1743 1.524 . S
C1744 C1745 1.415 . S
C1745 H1715 0.950 . S
C1745 C1740 1.363 . S
C1745 C1744 1.415 . S
H1746 C1743 0.999 . S
H1747 C1728 0.913 . S
H1748 C1766 0.951 . S
H1749 C1768 0.951 . S
H1750 C1770 0.950 . S
H1751 C1771 0.950 . S
H1752 C1773 0.950 . S
H1753 C1776 0.950 . S
H1754 C1777 0.950 . S
H1755 C1779 0.950 . S
H1756 C1780 0.950 . S
H1757 C1781 0.951 . S
H1758 C1783 0.951 . S
H1759 C1785 0.950 . S
H1760 C1786 0.950 . S
H1761 C1788 0.950 . S
H1762 C1791 0.950 . S
H1763 C1792 0.950 . S
H1764 C1794 0.950 . S
H1765 C1795 0.950 . S
C1766 H1748 0.951 . S
C1766 C1767 1.366 . S
C1766 C1768 1.388 . S
C1767 C1766 1.366 . S
C1767 C1771 1.385 . S
C1768 H1749 0.951 . S
C1768 C1766 1.388 . S
C1768 C1769 1.366 . S
C1769 C1768 1.366 . S
C1769 C1770 1.414 . S
C1769 C1772 1.499 . S
C1770 H1750 0.950 . S
C1770 C1769 1.414 . S
C1770 C1771 1.374 . S
C1771 H1751 0.950 . S
C1771 C1767 1.385 . S
C1771 C1770 1.374 . S
C1772 C1769 1.499 . S
C1772 C1773 1.373 . S
C1772 C1774 1.389 . S
C1773 H1752 0.950 . S
C1773 C1772 1.373 . S
C1773 C1789 1.377 . S
C1774 C1772 1.389 . S
C1774 C1775 1.524 . S
C1774 C1788 1.377 . S
C1775 C1774 1.524 . S
C1775 C1776 1.397 . S
C1775 C1780 1.363 . S
C1776 H1753 0.950 . S
C1776 C1775 1.397 . S
C1776 C1777 1.334 . S
C1777 H1754 0.950 . S
C1777 C1776 1.334 . S
C1777 C1778 1.287 . S
C1778 C1777 1.287 . S
C1778 C1779 1.524 . S
C1778 H1797 0.913 . S
C1779 H1755 0.950 . S
C1779 C1778 1.524 . S
C1779 C1780 1.415 . S
C1780 H1756 0.950 . S
C1780 C1775 1.363 . S
C1780 C1779 1.415 . S
C1781 H1757 0.951 . S
C1781 C1782 1.366 . S
C1781 C1783 1.388 . S
C1782 C1781 1.366 . S
C1782 C1786 1.385 . S
C1783 H1758 0.951 . S
C1783 C1781 1.388 . S
C1783 C1784 1.366 . S
C1784 C1783 1.366 . S
C1784 C1785 1.414 . S
C1784 C1787 1.499 . S
C1785 H1759 0.950 . S
C1785 C1784 1.414 . S
C1785 C1786 1.374 . S
C1786 H1760 0.950 . S
C1786 C1782 1.385 . S
C1786 C1785 1.374 . S
C1787 C1784 1.499 . S
C1787 C1788 1.373 . S
C1787 C1789 1.389 . S
C1788 H1761 0.950 . S
C1788 C1774 1.377 . S
C1788 C1787 1.373 . S
C1789 C1773 1.377 . S
C1789 C1787 1.389 . S
C1789 C1790 1.524 . S
C1790 C1789 1.524 . S
C1790 C1791 1.397 . S
C1790 C1795 1.363 . S
C1791 H1762 0.950 . S
C1791 C1790 1.397 . S
C1791 C1792 1.334 . S
C1792 H1763 0.950 . S
C1792 C1791 1.334 . S
C1792 C1793 1.287 . S
C1793 C1792 1.287 . S
C1793 C1794 1.524 . S
C1793 H1796 0.999 . S
C1794 H1764 0.950 . S
C1794 C1793 1.524 . S
C1794 C1795 1.415 . S
C1795 H1765 0.950 . S
C1795 C1790 1.363 . S
C1795 C1794 1.415 . S
H1796 C1793 0.999 . S
H1797 C1778 0.913 . S
H1798 C1816 0.951 . S
H1799 C1818 0.951 . S
H1800 C1820 0.950 . S
H1801 C1821 0.950 . S
H1802 C1823 0.950 . S
H1803 C1826 0.950 . S
H1804 C1827 0.950 . S
H1805 C1829 0.950 . S
H1806 C1830 0.950 . S
H1807 C1831 0.951 . S
H1808 C1833 0.951 . S
H1809 C1835 0.950 . S
H1810 C1836 0.950 . S
H1811 C1838 0.950 . S
H1812 C1841 0.950 . S
H1813 C1842 0.950 . S
H1814 C1844 0.950 . S
H1815 C1845 0.950 . S
C1816 H1798 0.951 . S
C1816 C1817 1.366 . S
C1816 C1818 1.388 . S
C1817 C1816 1.366 . S
C1817 C1821 1.385 . S
C1818 H1799 0.951 . S
C1818 C1816 1.388 . S
C1818 C1819 1.366 . S
C1819 C1818 1.366 . S
C1819 C1820 1.414 . S
C1819 C1822 1.499 . S
C1820 H1800 0.950 . S
C1820 C1819 1.414 . S
C1820 C1821 1.374 . S
C1821 H1801 0.950 . S
C1821 C1817 1.385 . S
C1821 C1820 1.374 . S
C1822 C1819 1.499 . S
C1822 C1823 1.373 . S
C1822 C1824 1.389 . S
C1823 H1802 0.950 . S
C1823 C1822 1.373 . S
C1823 C1839 1.377 . S
C1824 C1822 1.389 . S
C1824 C1825 1.524 . S
C1824 C1838 1.377 . S
C1825 C1824 1.524 . S
C1825 C1826 1.397 . S
C1825 C1830 1.363 . S
C1826 H1803 0.950 . S
C1826 C1825 1.397 . S
C1826 C1827 1.334 . S
C1827 H1804 0.950 . S
C1827 C1826 1.334 . S
C1827 C1828 1.287 . S
C1828 C1827 1.287 . S
C1828 C1829 1.524 . S
C1828 H1847 0.913 . S
C1829 H1805 0.950 . S
C1829 C1828 1.524 . S
C1829 C1830 1.415 . S
C1830 H1806 0.950 . S
C1830 C1825 1.363 . S
C1830 C1829 1.415 . S
C1831 H1807 0.951 . S
C1831 C1832 1.366 . S
C1831 C1833 1.388 . S
C1832 C1831 1.366 . S
C1832 C1836 1.385 . S
C1833 H1808 0.951 . S
C1833 C1831 1.388 . S
C1833 C1834 1.366 . S
C1834 C1833 1.366 . S
C1834 C1835 1.414 . S
C1834 C1837 1.499 . S
C1835 H1809 0.950 . S
C1835 C1834 1.414 . S
C1835 C1836 1.374 . S
C1836 H1810 0.950 . S
C1836 C1832 1.385 . S
C1836 C1835 1.374 . S
C1837 C1834 1.499 . S
C1837 C1838 1.373 . S
C1837 C1839 1.389 . S
C1838 H1811 0.950 . S
C1838 C1824 1.377 . S
C1838 C1837 1.373 . S
C1839 C1823 1.377 . S
C1839 C1837 1.389 . S
C1839 C1840 1.524 . S
C1840 C1839 1.524 . S
C1840 C1841 1.397 . S
C1840 C1845 1.363 . S
C1841 H1812 0.950 . S
C1841 C1840 1.397 . S
C1841 C1842 1.334 . S
C1842 H1813 0.950 . S
C1842 C1841 1.334 . S
C1842 C1843 1.287 . S
C1843 C1842 1.287 . S
C1843 C1844 1.524 . S
C1843 H1846 0.999 . S
C1844 H1814 0.950 . S
C1844 C1843 1.524 . S
C1844 C1845 1.415 . S
C1845 H1815 0.950 . S
C1845 C1840 1.363 . S
C1845 C1844 1.415 . S
H1846 C1843 0.999 . S
H1847 C1828 0.913 . S
H1848 C1866 0.951 . S
H1849 C1868 0.951 . S
H1850 C1870 0.950 . S
H1851 C1871 0.950 . S
H1852 C1873 0.950 . S
H1853 C1876 0.950 . S
H1854 C1877 0.950 . S
H1855 C1879 0.950 . S
H1856 C1880 0.950 . S
H1857 C1881 0.951 . S
H1858 C1883 0.951 . S
H1859 C1885 0.950 . S
H1860 C1886 0.950 . S
H1861 C1888 0.950 . S
H1862 C1891 0.950 . S
H1863 C1892 0.950 . S
H1864 C1894 0.950 . S
H1865 C1895 0.950 . S
C1866 H1848 0.951 . S
C1866 C1867 1.366 . S
C1866 C1868 1.388 . S
C1867 C1866 1.366 . S
C1867 C1871 1.385 . S
C1868 H1849 0.951 . S
C1868 C1866 1.388 . S
C1868 C1869 1.366 . S
C1869 C1868 1.366 . S
C1869 C1870 1.414 . S
C1869 C1872 1.499 . S
C1870 H1850 0.950 . S
C1870 C1869 1.414 . S
C1870 C1871 1.374 . S
C1871 H1851 0.950 . S
C1871 C1867 1.385 . S
C1871 C1870 1.374 . S
C1872 C1869 1.499 . S
C1872 C1873 1.373 . S
C1872 C1874 1.389 . S
C1873 H1852 0.950 . S
C1873 C1872 1.373 . S
C1873 C1889 1.377 . S
C1874 C1872 1.389 . S
C1874 C1875 1.524 . S
C1874 C1888 1.377 . S
C1875 C1874 1.524 . S
C1875 C1876 1.397 . S
C1875 C1880 1.363 . S
C1876 H1853 0.950 . S
C1876 C1875 1.397 . S
C1876 C1877 1.334 . S
C1877 H1854 0.950 . S
C1877 C1876 1.334 . S
C1877 C1878 1.287 . S
C1878 C1877 1.287 . S
C1878 C1879 1.524 . S
C1878 H1897 0.913 . S
C1879 H1855 0.950 . S
C1879 C1878 1.524 . S
C1879 C1880 1.415 . S
C1880 H1856 0.950 . S
C1880 C1875 1.363 . S
C1880 C1879 1.415 . S
C1881 H1857 0.951 . S
C1881 C1882 1.366 . S
C1881 C1883 1.388 . S
C1882 C1881 1.366 . S
C1882 C1886 1.385 . S
C1883 H1858 0.951 . S
C1883 C1881 1.388 . S
C1883 C1884 1.366 . S
C1884 C1883 1.366 . S
C1884 C1885 1.414 . S
C1884 C1887 1.499 . S
C1885 H1859 0.950 . S
C1885 C1884 1.414 . S
C1885 C1886 1.374 . S
C1886 H1860 0.950 . S
C1886 C1882 1.385 . S
C1886 C1885 1.374 . S
C1887 C1884 1.499 . S
C1887 C1888 1.373 . S
C1887 C1889 1.389 . S
C1888 H1861 0.950 . S
C1888 C1874 1.377 . S
C1888 C1887 1.373 . S
C1889 C1873 1.377 . S
C1889 C1887 1.389 . S
C1889 C1890 1.524 . S
C1890 C1889 1.524 . S
C1890 C1891 1.397 . S
C1890 C1895 1.363 . S
C1891 H1862 0.950 . S
C1891 C1890 1.397 . S
C1891 C1892 1.334 . S
C1892 H1863 0.950 . S
C1892 C1891 1.334 . S
C1892 C1893 1.287 . S
C1893 C1892 1.287 . S
C1893 C1894 1.524 . S
C1893 H1896 0.999 . S
C1894 H1864 0.950 . S
C1894 C1893 1.524 . S
C1894 C1895 1.415 . S
C1895 H1865 0.950 . S
C1895 C1890 1.363 . S
C1895 C1894 1.415 . S
H1896 C1893 0.999 . S
H1897 C1878 0.913 . S
H1898 C1916 0.951 . S
H1899 C1918 0.951 1_545 S
H1900 C1920 0.950 . S
H1901 C1921 0.950 . S
H1902 C1923 0.950 . S
H1903 C1926 0.950 . S
H1904 C1927 0.950 . S
H1905 C1929 0.950 . S
H1906 C1930 0.950 . S
H1907 C1931 0.951 . S
H1908 C1933 0.951 1_565 S
H1909 C1935 0.950 . S
H1910 C1936 0.950 . S
H1911 C1938 0.950 . S
H1912 C1941 0.950 . S
H1913 C1942 0.950 . S
H1914 C1944 0.950 . S
H1915 C1945 0.950 . S
C1916 H1898 0.951 . S
C1916 C1917 1.366 . S
C1916 C1918 1.388 . S
C1917 C1916 1.366 . S
C1917 C1921 1.385 . S
C1918 H1899 0.951 1_565 S
C1918 C1916 1.388 . S
C1918 C1919 1.366 . S
C1919 C1918 1.366 . S
C1919 C1920 1.414 . S
C1919 C1922 1.499 . S
C1920 H1900 0.950 . S
C1920 C1919 1.414 . S
C1920 C1921 1.374 . S
C1921 H1901 0.950 . S
C1921 C1917 1.385 . S
C1921 C1920 1.374 . S
C1922 C1919 1.499 . S
C1922 C1923 1.373 . S
C1922 C1924 1.389 1_565 S
C1923 H1902 0.950 . S
C1923 C1922 1.373 . S
C1923 C1939 1.377 . S
C1924 C1922 1.389 1_545 S
C1924 C1925 1.524 . S
C1924 C1938 1.377 . S
C1925 C1924 1.524 . S
C1925 C1926 1.397 1_545 S
C1925 C1930 1.363 . S
C1926 H1903 0.950 . S
C1926 C1925 1.397 1_565 S
C1926 C1927 1.334 . S
C1927 H1904 0.950 . S
C1927 C1926 1.334 . S
C1927 C1928 1.287 1_565 S
C1928 C1927 1.287 1_545 S
C1928 C1929 1.524 . S
C1928 H1947 0.913 . S
C1929 H1905 0.950 . S
C1929 C1928 1.524 . S
C1929 C1930 1.415 . S
C1930 H1906 0.950 . S
C1930 C1925 1.363 . S
C1930 C1929 1.415 . S
C1931 H1907 0.951 . S
C1931 C1932 1.366 . S
C1931 C1933 1.388 . S
C1932 C1931 1.366 . S
C1932 C1936 1.385 . S
C1933 H1908 0.951 1_545 S
C1933 C1931 1.388 . S
C1933 C1934 1.366 . S
C1934 C1933 1.366 . S
C1934 C1935 1.414 . S
C1934 C1937 1.499 . S
C1935 H1909 0.950 . S
C1935 C1934 1.414 . S
C1935 C1936 1.374 . S
C1936 H1910 0.950 . S
C1936 C1932 1.385 . S
C1936 C1935 1.374 . S
C1937 C1934 1.499 . S
C1937 C1938 1.373 . S
C1937 C1939 1.389 1_545 S
C1938 H1911 0.950 . S
C1938 C1924 1.377 . S
C1938 C1937 1.373 . S
C1939 C1923 1.377 . S
C1939 C1937 1.389 1_565 S
C1939 C1940 1.524 . S
C1940 C1939 1.524 . S
C1940 C1941 1.397 1_565 S
C1940 C1945 1.363 . S
C1941 H1912 0.950 . S
C1941 C1940 1.397 1_545 S
C1941 C1942 1.334 . S
C1942 H1913 0.950 . S
C1942 C1941 1.334 . S
C1942 C1943 1.287 1_545 S
C1943 C1942 1.287 1_565 S
C1943 C1944 1.524 . S
C1943 H1946 0.999 . S
C1944 H1914 0.950 . S
C1944 C1943 1.524 . S
C1944 C1945 1.415 . S
C1945 H1915 0.950 . S
C1945 C1940 1.363 . S
C1945 C1944 1.415 . S
H1946 C1943 0.999 . S
H1947 C1928 0.913 . S
H1948 C1966 0.951 . S
H1949 C1968 0.951 . S
H1950 C1970 0.950 . S
H1951 C1971 0.950 . S
H1952 C1973 0.950 . S
H1953 C1976 0.950 . S
H1954 C1977 0.950 . S
H1955 C1979 0.950 . S
H1956 C1980 0.950 . S
H1957 C1981 0.951 . S
H1958 C1983 0.951 . S
H1959 C1985 0.950 . S
H1960 C1986 0.950 . S
H1961 C1988 0.950 . S
H1962 C1991 0.950 . S
H1963 C1992 0.950 . S
H1964 C1994 0.950 . S
H1965 C1995 0.950 . S
C1966 H1948 0.951 . S
C1966 C1967 1.366 . S
C1966 C1968 1.388 . S
C1967 C1966 1.366 . S
C1967 C1971 1.385 . S
C1968 H1949 0.951 . S
C1968 C1966 1.388 . S
C1968 C1969 1.366 . S
C1969 C1968 1.366 . S
C1969 C1970 1.414 . S
C1969 C1972 1.499 . S
C1970 H1950 0.950 . S
C1970 C1969 1.414 . S
C1970 C1971 1.374 . S
C1971 H1951 0.950 . S
C1971 C1967 1.385 . S
C1971 C1970 1.374 . S
C1972 C1969 1.499 . S
C1972 C1973 1.373 . S
C1972 C1974 1.389 . S
C1973 H1952 0.950 . S
C1973 C1972 1.373 . S
C1973 C1989 1.377 . S
C1974 C1972 1.389 . S
C1974 C1975 1.524 . S
C1974 C1988 1.377 . S
C1975 C1974 1.524 . S
C1975 C1976 1.397 . S
C1975 C1980 1.363 . S
C1976 H1953 0.950 . S
C1976 C1975 1.397 . S
C1976 C1977 1.334 . S
C1977 H1954 0.950 . S
C1977 C1976 1.334 . S
C1977 C1978 1.287 . S
C1978 C1977 1.287 . S
C1978 C1979 1.524 . S
C1978 H1997 0.913 . S
C1979 H1955 0.950 . S
C1979 C1978 1.524 . S
C1979 C1980 1.415 . S
C1980 H1956 0.950 . S
C1980 C1975 1.363 . S
C1980 C1979 1.415 . S
C1981 H1957 0.951 . S
C1981 C1982 1.366 . S
C1981 C1983 1.388 . S
C1982 C1981 1.366 . S
C1982 C1986 1.385 . S
C1983 H1958 0.951 . S
C1983 C1981 1.388 . S
C1983 C1984 1.366 . S
C1984 C1983 1.366 . S
C1984 C1985 1.414 . S
C1984 C1987 1.499 . S
C1985 H1959 0.950 . S
C1985 C1984 1.414 . S
C1985 C1986 1.374 . S
C1986 H1960 0.950 . S
C1986 C1982 1.385 . S
C1986 C1985 1.374 . S
C1987 C1984 1.499 . S
C1987 C1988 1.373 . S
C1987 C1989 1.389 . S
C1988 H1961 0.950 . S
C1988 C1974 1.377 . S
C1988 C1987 1.373 . S
C1989 C1973 1.377 . S
C1989 C1987 1.389 . S
C1989 C1990 1.524 . S
C1990 C1989 1.524 . S
C1990 C1991 1.397 . S
C1990 C1995 1.363 . S
C1991 H1962 0.950 . S
C1991 C1990 1.397 . S
C1991 C1992 1.334 . S
C1992 H1963 0.950 . S
C1992 C1991 1.334 . S
C1992 C1993 1.287 . S
C1993 C1992 1.287 . S
C1993 C1994 1.524 . S
C1993 H1996 0.999 . S
C1994 H1964 0.950 . S
C1994 C1993 1.524 . S
C1994 C1995 1.415 . S
C1995 H1965 0.950 . S
C1995 C1990 1.363 . S
C1995 C1994 1.415 . S
H1996 C1993 0.999 . S
H1997 C1978 0.913 . S
H1998 C2016 0.951 . S
H1999 C2018 0.951 . S
H2000 C2020 0.968 . S
H2001 C2021 0.950 . S
H2002 C2023 0.950 . S
H2003 C2026 0.950 . S
H2004 C2027 0.953 . S
H2005 C2029 0.950 . S
H2006 C2030 0.950 . S
H2007 C2031 0.951 . S
H2008 C2033 0.951 . S
H2009 C2035 0.968 . S
H2010 C2036 0.950 . S
H2011 C2038 0.950 . S
H2012 C2041 0.950 . S
H2013 C2042 0.953 . S
H2014 C2044 0.950 . S
H2015 C2045 0.950 . S
C2016 H1998 0.951 . S
C2016 C2017 1.366 . S
C2016 C2018 1.388 . S
C2017 C2016 1.366 . S
C2017 C2021 1.385 . S
C2018 H1999 0.951 . S
C2018 C2016 1.388 . S
C2018 C2019 1.366 . S
C2019 C2018 1.366 . S
C2019 C2020 1.414 . S
C2019 C2022 1.499 . S
C2020 H2000 0.968 . S
C2020 C2019 1.414 . S
C2020 C2021 1.374 . S
C2021 H2001 0.950 . S
C2021 C2017 1.385 . S
C2021 C2020 1.374 . S
C2022 C2019 1.499 . S
C2022 C2023 1.373 . S
C2022 C2024 1.389 . S
C2023 H2002 0.950 . S
C2023 C2022 1.373 . S
C2023 C2039 1.377 1_554 S
C2024 C2022 1.389 . S
C2024 C2025 1.524 . S
C2024 C2038 1.377 1_554 S
C2025 C2024 1.524 . S
C2025 C2026 1.397 1_554 S
C2025 C2030 1.363 . S
C2026 H2003 0.950 . S
C2026 C2025 1.397 1_556 S
C2026 C2027 1.335 . S
C2027 H2004 0.953 . S
C2027 C2026 1.335 . S
C2027 C2028 1.283 1_556 S
C2028 C2027 1.283 1_554 S
C2028 C2029 1.524 . S
C2028 H2047 0.913 . S
C2029 H2005 0.950 . S
C2029 C2028 1.524 . S
C2029 C2030 1.415 . S
C2030 H2006 0.950 . S
C2030 C2025 1.363 . S
C2030 C2029 1.415 . S
C2031 H2007 0.951 . S
C2031 C2032 1.366 . S
C2031 C2033 1.388 . S
C2032 C2031 1.366 . S
C2032 C2036 1.385 . S
C2033 H2008 0.951 . S
C2033 C2031 1.388 . S
C2033 C2034 1.366 . S
C2034 C2033 1.366 . S
C2034 C2035 1.414 . S
C2034 C2037 1.499 . S
C2035 H2009 0.968 . S
C2035 C2034 1.414 . S
C2035 C2036 1.374 . S
C2036 H2010 0.950 . S
C2036 C2032 1.385 . S
C2036 C2035 1.374 . S
C2037 C2034 1.499 . S
C2037 C2038 1.373 . S
C2037 C2039 1.389 . S
C2038 H2011 0.950 . S
C2038 C2024 1.377 1_556 S
C2038 C2037 1.373 . S
C2039 C2023 1.377 1_556 S
C2039 C2037 1.389 . S
C2039 C2040 1.524 . S
C2040 C2039 1.524 . S
C2040 C2041 1.397 1_556 S
C2040 C2045 1.363 . S
C2041 H2012 0.950 . S
C2041 C2040 1.397 1_554 S
C2041 C2042 1.335 . S
C2042 H2013 0.953 . S
C2042 C2041 1.335 . S
C2042 C2043 1.283 1_554 S
C2043 C2042 1.283 1_556 S
C2043 C2044 1.524 . S
C2043 H2046 0.999 . S
C2044 H2014 0.950 . S
C2044 C2043 1.524 . S
C2044 C2045 1.415 . S
C2045 H2015 0.950 . S
C2045 C2040 1.363 . S
C2045 C2044 1.415 . S
H2046 C2043 0.999 . S
H2047 C2028 0.913 . S
H2048 C2066 0.951 . S
H2049 C2068 0.951 . S
H2050 C2070 0.950 . S
H2051 C2071 0.950 . S
H2052 C2073 0.950 . S
H2053 C2076 0.950 . S
H2054 C2077 0.950 . S
H2055 C2079 0.950 . S
H2056 C2080 0.950 . S
H2057 C2081 0.951 . S
H2058 C2083 0.951 . S
H2059 C2085 0.950 . S
H2060 C2086 0.950 . S
H2061 C2088 0.950 . S
H2062 C2091 0.950 . S
H2063 C2092 0.950 . S
H2064 C2094 0.950 . S
H2065 C2095 0.950 . S
C2066 H2048 0.951 . S
C2066 C2067 1.366 . S
C2066 C2068 1.388 . S
C2067 C2066 1.366 . S
C2067 C2071 1.385 . S
C2068 H2049 0.951 . S
C2068 C2066 1.388 . S
C2068 C2069 1.366 . S
C2069 C2068 1.366 . S
C2069 C2070 1.414 . S
C2069 C2072 1.499 . S
C2070 H2050 0.950 . S
C2070 C2069 1.414 . S
C2070 C2071 1.374 . S
C2071 H2051 0.950 . S
C2071 C2067 1.385 . S
C2071 C2070 1.374 . S
C2072 C2069 1.499 . S
C2072 C2073 1.373 . S
C2072 C2074 1.389 . S
C2073 H2052 0.950 . S
C2073 C2072 1.373 . S
C2073 C2089 1.377 . S
C2074 C2072 1.389 . S
C2074 C2075 1.524 . S
C2074 C2088 1.377 . S
C2075 C2074 1.524 . S
C2075 C2076 1.397 . S
C2075 C2080 1.363 . S
C2076 H2053 0.950 . S
C2076 C2075 1.397 . S
C2076 C2077 1.334 . S
C2077 H2054 0.950 . S
C2077 C2076 1.334 . S
C2077 C2078 1.287 . S
C2078 C2077 1.287 . S
C2078 C2079 1.524 . S
C2078 H2097 0.913 . S
C2079 H2055 0.950 . S
C2079 C2078 1.524 . S
C2079 C2080 1.415 . S
C2080 H2056 0.950 . S
C2080 C2075 1.363 . S
C2080 C2079 1.415 . S
C2081 H2057 0.951 . S
C2081 C2082 1.366 . S
C2081 C2083 1.388 . S
C2082 C2081 1.366 . S
C2082 C2086 1.385 . S
C2083 H2058 0.951 . S
C2083 C2081 1.388 . S
C2083 C2084 1.366 . S
C2084 C2083 1.366 . S
C2084 C2085 1.414 . S
C2084 C2087 1.499 . S
C2085 H2059 0.950 . S
C2085 C2084 1.414 . S
C2085 C2086 1.374 . S
C2086 H2060 0.950 . S
C2086 C2082 1.385 . S
C2086 C2085 1.374 . S
C2087 C2084 1.499 . S
C2087 C2088 1.373 . S
C2087 C2089 1.389 . S
C2088 H2061 0.950 . S
C2088 C2074 1.377 . S
C2088 C2087 1.373 . S
C2089 C2073 1.377 . S
C2089 C2087 1.389 . S
C2089 C2090 1.524 . S
C2090 C2089 1.524 . S
C2090 C2091 1.397 . S
C2090 C2095 1.363 . S
C2091 H2062 0.950 . S
C2091 C2090 1.397 . S
C2091 C2092 1.334 . S
C2092 H2063 0.950 . S
C2092 C2091 1.334 . S
C2092 C2093 1.287 . S
C2093 C2092 1.287 . S
C2093 C2094 1.524 . S
C2093 H2096 0.999 . S
C2094 H2064 0.950 . S
C2094 C2093 1.524 . S
C2094 C2095 1.415 . S
C2095 H2065 0.950 . S
C2095 C2090 1.363 . S
C2095 C2094 1.415 . S
H2096 C2093 0.999 . S
H2097 C2078 0.913 . S
H2098 C2116 0.951 . S
H2099 C2118 0.951 . S
H2100 C2120 0.950 . S
H2101 C2121 0.950 . S
H2102 C2123 0.950 . S
H2103 C2126 0.950 . S
H2104 C2127 0.950 . S
H2105 C2129 0.950 . S
H2106 C2130 0.950 . S
H2107 C2131 0.951 . S
H2108 C2133 0.951 . S
H2109 C2135 0.950 . S
H2110 C2136 0.950 . S
H2111 C2138 0.950 . S
H2112 C2141 0.950 . S
H2113 C2142 0.950 . S
H2114 C2144 0.950 . S
H2115 C2145 0.950 . S
C2116 H2098 0.951 . S
C2116 C2117 1.366 . S
C2116 C2118 1.388 . S
C2117 C2116 1.366 . S
C2117 C2121 1.385 . S
C2118 H2099 0.951 . S
C2118 C2116 1.388 . S
C2118 C2119 1.366 . S
C2119 C2118 1.366 . S
C2119 C2120 1.414 . S
C2119 C2122 1.499 . S
C2120 H2100 0.950 . S
C2120 C2119 1.414 . S
C2120 C2121 1.374 . S
C2121 H2101 0.950 . S
C2121 C2117 1.385 . S
C2121 C2120 1.374 . S
C2122 C2119 1.499 . S
C2122 C2123 1.373 . S
C2122 C2124 1.389 . S
C2123 H2102 0.950 . S
C2123 C2122 1.373 . S
C2123 C2139 1.377 . S
C2124 C2122 1.389 . S
C2124 C2125 1.524 . S
C2124 C2138 1.377 . S
C2125 C2124 1.524 . S
C2125 C2126 1.397 . S
C2125 C2130 1.363 . S
C2126 H2103 0.950 . S
C2126 C2125 1.397 . S
C2126 C2127 1.334 . S
C2127 H2104 0.950 . S
C2127 C2126 1.334 . S
C2127 C2128 1.287 . S
C2128 C2127 1.287 . S
C2128 C2129 1.524 . S
C2128 H2147 0.913 . S
C2129 H2105 0.950 . S
C2129 C2128 1.524 . S
C2129 C2130 1.415 . S
C2130 H2106 0.950 . S
C2130 C2125 1.363 . S
C2130 C2129 1.415 . S
C2131 H2107 0.951 . S
C2131 C2132 1.366 1_565 S
C2131 C2133 1.388 . S
C2132 C2131 1.366 1_545 S
C2132 C2136 1.385 . S
C2133 H2108 0.951 . S
C2133 C2131 1.388 . S
C2133 C2134 1.366 . S
C2134 C2133 1.366 . S
C2134 C2135 1.414 . S
C2134 C2137 1.499 . S
C2135 H2109 0.950 . S
C2135 C2134 1.414 . S
C2135 C2136 1.374 1_565 S
C2136 H2110 0.950 . S
C2136 C2132 1.385 . S
C2136 C2135 1.374 1_545 S
C2137 C2134 1.499 . S
C2137 C2138 1.373 . S
C2137 C2139 1.389 . S
C2138 H2111 0.950 . S
C2138 C2124 1.377 . S
C2138 C2137 1.373 . S
C2139 C2123 1.377 . S
C2139 C2137 1.389 . S
C2139 C2140 1.524 . S
C2140 C2139 1.524 . S
C2140 C2141 1.397 . S
C2140 C2145 1.363 . S
C2141 H2112 0.950 . S
C2141 C2140 1.397 . S
C2141 C2142 1.334 . S
C2142 H2113 0.950 . S
C2142 C2141 1.334 . S
C2142 C2143 1.287 . S
C2143 C2142 1.287 . S
C2143 C2144 1.524 . S
C2143 H2146 0.999 . S
C2144 H2114 0.950 . S
C2144 C2143 1.524 . S
C2144 C2145 1.415 . S
C2145 H2115 0.950 . S
C2145 C2140 1.363 . S
C2145 C2144 1.415 . S
H2146 C2143 0.999 . S
H2147 C2128 0.913 . S
H2148 C2166 0.951 . S
H2149 C2168 0.951 . S
H2150 C2170 0.950 . S
H2151 C2171 0.950 . S
H2152 C2173 0.950 . S
H2153 C2176 0.950 . S
H2154 C2177 0.950 . S
H2155 C2179 0.950 . S
H2156 C2180 0.950 . S
H2157 C2181 0.951 . S
H2158 C2183 0.951 . S
H2159 C2185 0.950 . S
H2160 C2186 0.950 . S
H2161 C2188 0.950 . S
H2162 C2191 0.950 . S
H2163 C2192 0.950 . S
H2164 C2194 0.950 . S
H2165 C2195 0.950 . S
C2166 H2148 0.951 . S
C2166 C2167 1.366 1_565 S
C2166 C2168 1.388 . S
C2167 C2166 1.366 1_545 S
C2167 C2171 1.385 . S
C2168 H2149 0.951 . S
C2168 C2166 1.388 . S
C2168 C2169 1.366 . S
C2169 C2168 1.366 . S
C2169 C2170 1.414 . S
C2169 C2172 1.499 . S
C2170 H2150 0.950 . S
C2170 C2169 1.414 . S
C2170 C2171 1.374 1_565 S
C2171 H2151 0.950 . S
C2171 C2167 1.385 . S
C2171 C2170 1.374 1_545 S
C2172 C2169 1.499 . S
C2172 C2173 1.373 . S
C2172 C2174 1.389 . S
C2173 H2152 0.950 . S
C2173 C2172 1.373 . S
C2173 C2189 1.377 . S
C2174 C2172 1.389 . S
C2174 C2175 1.524 . S
C2174 C2188 1.377 . S
C2175 C2174 1.524 . S
C2175 C2176 1.397 . S
C2175 C2180 1.363 . S
C2176 H2153 0.950 . S
C2176 C2175 1.397 . S
C2176 C2177 1.334 . S
C2177 H2154 0.950 . S
C2177 C2176 1.334 . S
C2177 C2178 1.287 . S
C2178 C2177 1.287 . S
C2178 C2179 1.524 . S
C2178 H2197 0.913 . S
C2179 H2155 0.950 . S
C2179 C2178 1.524 . S
C2179 C2180 1.415 . S
C2180 H2156 0.950 . S
C2180 C2175 1.363 . S
C2180 C2179 1.415 . S
C2181 H2157 0.951 . S
C2181 C2182 1.366 . S
C2181 C2183 1.388 . S
C2182 C2181 1.366 . S
C2182 C2186 1.385 . S
C2183 H2158 0.951 . S
C2183 C2181 1.388 . S
C2183 C2184 1.366 . S
C2184 C2183 1.366 . S
C2184 C2185 1.414 . S
C2184 C2187 1.499 . S
C2185 H2159 0.950 . S
C2185 C2184 1.414 . S
C2185 C2186 1.374 . S
C2186 H2160 0.950 . S
C2186 C2182 1.385 . S
C2186 C2185 1.374 . S
C2187 C2184 1.499 . S
C2187 C2188 1.373 . S
C2187 C2189 1.389 . S
C2188 H2161 0.950 . S
C2188 C2174 1.377 . S
C2188 C2187 1.373 . S
C2189 C2173 1.377 . S
C2189 C2187 1.389 . S
C2189 C2190 1.524 . S
C2190 C2189 1.524 . S
C2190 C2191 1.397 . S
C2190 C2195 1.363 . S
C2191 H2162 0.950 . S
C2191 C2190 1.397 . S
C2191 C2192 1.334 . S
C2192 H2163 0.950 . S
C2192 C2191 1.334 . S
C2192 C2193 1.287 . S
C2193 C2192 1.287 . S
C2193 C2194 1.524 . S
C2193 H2196 0.999 . S
C2194 H2164 0.950 . S
C2194 C2193 1.524 . S
C2194 C2195 1.415 . S
C2195 H2165 0.950 . S
C2195 C2190 1.363 . S
C2195 C2194 1.415 . S
H2196 C2193 0.999 . S
H2197 C2178 0.913 . S
H2198 C2216 0.951 . S
H2199 C2218 0.951 . S
H2200 C2220 0.950 . S
H2201 C2221 0.950 . S
H2202 C2223 0.950 . S
H2203 C2226 0.950 . S
H2204 C2227 0.950 . S
H2205 C2229 0.950 . S
H2206 C2230 0.950 . S
H2207 C2231 0.951 . S
H2208 C2233 0.951 . S
H2209 C2235 0.950 . S
H2210 C2236 0.950 . S
H2211 C2238 0.950 . S
H2212 C2241 0.950 . S
H2213 C2242 0.950 . S
H2214 C2244 0.950 . S
H2215 C2245 0.950 . S
C2216 H2198 0.951 . S
C2216 C2217 1.366 . S
C2216 C2218 1.388 . S
C2217 C2216 1.366 . S
C2217 C2221 1.385 . S
C2218 H2199 0.951 . S
C2218 C2216 1.388 . S
C2218 C2219 1.366 . S
C2219 C2218 1.366 . S
C2219 C2220 1.414 . S
C2219 C2222 1.499 . S
C2220 H2200 0.950 . S
C2220 C2219 1.414 . S
C2220 C2221 1.374 . S
C2221 H2201 0.950 . S
C2221 C2217 1.385 . S
C2221 C2220 1.374 . S
C2222 C2219 1.499 . S
C2222 C2223 1.373 . S
C2222 C2224 1.389 . S
C2223 H2202 0.950 . S
C2223 C2222 1.373 . S
C2223 C2239 1.377 . S
C2224 C2222 1.389 . S
C2224 C2225 1.524 . S
C2224 C2238 1.377 . S
C2225 C2224 1.524 . S
C2225 C2226 1.397 . S
C2225 C2230 1.363 . S
C2226 H2203 0.950 . S
C2226 C2225 1.397 . S
C2226 C2227 1.334 . S
C2227 H2204 0.950 . S
C2227 C2226 1.334 . S
C2227 C2228 1.287 . S
C2228 C2227 1.287 . S
C2228 C2229 1.524 . S
C2228 H2247 0.913 . S
C2229 H2205 0.950 . S
C2229 C2228 1.524 . S
C2229 C2230 1.415 . S
C2230 H2206 0.950 . S
C2230 C2225 1.363 . S
C2230 C2229 1.415 . S
C2231 H2207 0.951 . S
C2231 C2232 1.366 . S
C2231 C2233 1.388 . S
C2232 C2231 1.366 . S
C2232 C2236 1.385 . S
C2233 H2208 0.951 . S
C2233 C2231 1.388 . S
C2233 C2234 1.366 . S
C2234 C2233 1.366 . S
C2234 C2235 1.414 . S
C2234 C2237 1.499 . S
C2235 H2209 0.950 . S
C2235 C2234 1.414 . S
C2235 C2236 1.374 . S
C2236 H2210 0.950 . S
C2236 C2232 1.385 . S
C2236 C2235 1.374 . S
C2237 C2234 1.499 . S
C2237 C2238 1.373 . S
C2237 C2239 1.389 . S
C2238 H2211 0.950 . S
C2238 C2224 1.377 . S
C2238 C2237 1.373 . S
C2239 C2223 1.377 . S
C2239 C2237 1.389 . S
C2239 C2240 1.524 . S
C2240 C2239 1.524 . S
C2240 C2241 1.397 . S
C2240 C2245 1.363 . S
C2241 H2212 0.950 . S
C2241 C2240 1.397 . S
C2241 C2242 1.334 . S
C2242 H2213 0.950 . S
C2242 C2241 1.334 . S
C2242 C2243 1.287 . S
C2243 C2242 1.287 . S
C2243 C2244 1.524 . S
C2243 H2246 0.999 . S
C2244 H2214 0.950 . S
C2244 C2243 1.524 . S
C2244 C2245 1.415 . S
C2245 H2215 0.950 . S
C2245 C2240 1.363 . S
C2245 C2244 1.415 . S
H2246 C2243 0.999 . S
H2247 C2228 0.913 . S
H2248 C2266 0.951 . S
H2249 C2268 0.951 . S
H2250 C2270 0.950 . S
H2251 C2271 0.950 . S
H2252 C2273 0.950 . S
H2253 C2276 0.950 . S
H2254 C2277 0.950 . S
H2255 C2279 0.950 . S
H2256 C2280 0.950 . S
H2257 C2281 0.951 . S
H2258 C2283 0.951 . S
H2259 C2285 0.950 . S
H2260 C2286 0.950 . S
H2261 C2288 0.950 . S
H2262 C2291 0.950 . S
H2263 C2292 0.950 . S
H2264 C2294 0.950 . S
H2265 C2295 0.950 . S
C2266 H2248 0.951 . S
C2266 C2267 1.366 . S
C2266 C2268 1.388 . S
C2267 C2266 1.366 . S
C2267 C2271 1.385 . S
C2268 H2249 0.951 . S
C2268 C2266 1.388 . S
C2268 C2269 1.366 . S
C2269 C2268 1.366 . S
C2269 C2270 1.414 . S
C2269 C2272 1.499 . S
C2270 H2250 0.950 . S
C2270 C2269 1.414 . S
C2270 C2271 1.374 . S
C2271 H2251 0.950 . S
C2271 C2267 1.385 . S
C2271 C2270 1.374 . S
C2272 C2269 1.499 . S
C2272 C2273 1.373 . S
C2272 C2274 1.389 . S
C2273 H2252 0.950 . S
C2273 C2272 1.373 . S
C2273 C2289 1.377 . S
C2274 C2272 1.389 . S
C2274 C2275 1.524 . S
C2274 C2288 1.377 . S
C2275 C2274 1.524 . S
C2275 C2276 1.397 . S
C2275 C2280 1.363 . S
C2276 H2253 0.950 . S
C2276 C2275 1.397 . S
C2276 C2277 1.334 . S
C2277 H2254 0.950 . S
C2277 C2276 1.334 . S
C2277 C2278 1.287 . S
C2278 C2277 1.287 . S
C2278 C2279 1.524 . S
C2278 H2297 0.913 . S
C2279 H2255 0.950 . S
C2279 C2278 1.524 . S
C2279 C2280 1.415 . S
C2280 H2256 0.950 . S
C2280 C2275 1.363 . S
C2280 C2279 1.415 . S
C2281 H2257 0.951 . S
C2281 C2282 1.366 . S
C2281 C2283 1.388 . S
C2282 C2281 1.366 . S
C2282 C2286 1.385 . S
C2283 H2258 0.951 . S
C2283 C2281 1.388 . S
C2283 C2284 1.366 . S
C2284 C2283 1.366 . S
C2284 C2285 1.414 . S
C2284 C2287 1.499 . S
C2285 H2259 0.950 . S
C2285 C2284 1.414 . S
C2285 C2286 1.374 . S
C2286 H2260 0.950 . S
C2286 C2282 1.385 . S
C2286 C2285 1.374 . S
C2287 C2284 1.499 . S
C2287 C2288 1.373 . S
C2287 C2289 1.389 . S
C2288 H2261 0.950 . S
C2288 C2274 1.377 . S
C2288 C2287 1.373 . S
C2289 C2273 1.377 . S
C2289 C2287 1.389 . S
C2289 C2290 1.524 . S
C2290 C2289 1.524 . S
C2290 C2291 1.397 . S
C2290 C2295 1.363 . S
C2291 H2262 0.950 . S
C2291 C2290 1.397 . S
C2291 C2292 1.334 . S
C2292 H2263 0.950 . S
C2292 C2291 1.334 . S
C2292 C2293 1.287 . S
C2293 C2292 1.287 . S
C2293 C2294 1.524 . S
C2293 H2296 0.999 . S
C2294 H2264 0.950 . S
C2294 C2293 1.524 . S
C2294 C2295 1.415 . S
C2295 H2265 0.950 . S
C2295 C2290 1.363 . S
C2295 C2294 1.415 . S
H2296 C2293 0.999 . S
H2297 C2278 0.913 . S
H2298 C2316 0.951 . S
H2299 C2318 0.951 . S
H2300 C2320 0.950 . S
H2301 C2321 0.950 . S
H2302 C2323 0.950 . S
H2303 C2326 0.950 . S
H2304 C2327 0.950 . S
H2305 C2329 0.950 . S
H2306 C2330 0.950 . S
H2307 C2331 0.951 . S
H2308 C2333 0.951 . S
H2309 C2335 0.950 . S
H2310 C2336 0.950 . S
H2311 C2338 0.950 . S
H2312 C2341 0.950 . S
H2313 C2342 0.950 . S
H2314 C2344 0.950 . S
H2315 C2345 0.950 . S
C2316 H2298 0.951 . S
C2316 C2317 1.366 . S
C2316 C2318 1.387 1_565 S
C2317 C2316 1.366 . S
C2317 C2321 1.385 . S
C2318 H2299 0.951 . S
C2318 C2316 1.387 1_545 S
C2318 C2319 1.366 . S
C2319 C2318 1.366 . S
C2319 C2320 1.414 . S
C2319 C2322 1.499 . S
C2320 H2300 0.950 . S
C2320 C2319 1.414 . S
C2320 C2321 1.374 1_545 S
C2321 H2301 0.950 . S
C2321 C2317 1.385 . S
C2321 C2320 1.374 1_565 S
C2322 C2319 1.499 . S
C2322 C2323 1.373 . S
C2322 C2324 1.389 . S
C2323 H2302 0.950 . S
C2323 C2322 1.373 . S
C2323 C2339 1.377 . S
C2324 C2322 1.389 . S
C2324 C2325 1.524 . S
C2324 C2338 1.377 . S
C2325 C2324 1.524 . S
C2325 C2326 1.397 . S
C2325 C2330 1.363 . S
C2326 H2303 0.950 . S
C2326 C2325 1.397 . S
C2326 C2327 1.334 . S
C2327 H2304 0.950 . S
C2327 C2326 1.334 . S
C2327 C2328 1.287 . S
C2328 C2327 1.287 . S
C2328 C2329 1.524 . S
C2328 H2347 0.913 . S
C2329 H2305 0.950 . S
C2329 C2328 1.524 . S
C2329 C2330 1.415 . S
C2330 H2306 0.950 . S
C2330 C2325 1.363 . S
C2330 C2329 1.415 . S
C2331 H2307 0.951 . S
C2331 C2332 1.366 . S
C2331 C2333 1.388 . S
C2332 C2331 1.366 . S
C2332 C2336 1.385 . S
C2333 H2308 0.951 . S
C2333 C2331 1.388 . S
C2333 C2334 1.366 . S
C2334 C2333 1.366 . S
C2334 C2335 1.414 . S
C2334 C2337 1.499 . S
C2335 H2309 0.950 . S
C2335 C2334 1.414 . S
C2335 C2336 1.374 . S
C2336 H2310 0.950 . S
C2336 C2332 1.385 . S
C2336 C2335 1.374 . S
C2337 C2334 1.499 . S
C2337 C2338 1.373 . S
C2337 C2339 1.389 . S
C2338 H2311 0.950 . S
C2338 C2324 1.377 . S
C2338 C2337 1.373 . S
C2339 C2323 1.377 . S
C2339 C2337 1.389 . S
C2339 C2340 1.524 . S
C2340 C2339 1.524 . S
C2340 C2341 1.397 . S
C2340 C2345 1.363 . S
C2341 H2312 0.950 . S
C2341 C2340 1.397 . S
C2341 C2342 1.334 . S
C2342 H2313 0.950 . S
C2342 C2341 1.334 . S
C2342 C2343 1.287 . S
C2343 C2342 1.287 . S
C2343 C2344 1.524 . S
C2343 H2346 0.999 . S
C2344 H2314 0.950 . S
C2344 C2343 1.524 . S
C2344 C2345 1.415 . S
C2345 H2315 0.950 . S
C2345 C2340 1.363 . S
C2345 C2344 1.415 . S
H2346 C2343 0.999 . S
H2347 C2328 0.913 . S
H2348 C2366 0.951 . S
H2349 C2368 0.951 . S
H2350 C2370 0.950 . S
H2351 C2371 0.950 . S
H2352 C2373 0.950 . S
H2353 C2376 0.950 . S
H2354 C2377 0.950 . S
H2355 C2379 0.950 . S
H2356 C2380 0.950 . S
H2357 C2381 0.951 . S
H2358 C2383 0.951 . S
H2359 C2385 0.950 . S
H2360 C2386 0.950 . S
H2361 C2388 0.950 . S
H2362 C2391 0.950 . S
H2363 C2392 0.950 . S
H2364 C2394 0.950 . S
H2365 C2395 0.950 . S
C2366 H2348 0.951 . S
C2366 C2367 1.366 . S
C2366 C2368 1.388 . S
C2367 C2366 1.366 . S
C2367 C2371 1.385 . S
C2368 H2349 0.951 . S
C2368 C2366 1.388 . S
C2368 C2369 1.366 . S
C2369 C2368 1.366 . S
C2369 C2370 1.414 . S
C2369 C2372 1.499 . S
C2370 H2350 0.950 . S
C2370 C2369 1.414 . S
C2370 C2371 1.374 . S
C2371 H2351 0.950 . S
C2371 C2367 1.385 . S
C2371 C2370 1.374 . S
C2372 C2369 1.499 . S
C2372 C2373 1.373 . S
C2372 C2374 1.389 . S
C2373 H2352 0.950 . S
C2373 C2372 1.373 . S
C2373 C2389 1.377 . S
C2374 C2372 1.389 . S
C2374 C2375 1.524 . S
C2374 C2388 1.377 . S
C2375 C2374 1.524 . S
C2375 C2376 1.397 . S
C2375 C2380 1.363 . S
C2376 H2353 0.950 . S
C2376 C2375 1.397 . S
C2376 C2377 1.334 . S
C2377 H2354 0.950 . S
C2377 C2376 1.334 . S
C2377 C2378 1.287 . S
C2378 C2377 1.287 . S
C2378 C2379 1.524 . S
C2378 H2397 0.913 . S
C2379 H2355 0.950 . S
C2379 C2378 1.524 . S
C2379 C2380 1.415 . S
C2380 H2356 0.950 . S
C2380 C2375 1.363 . S
C2380 C2379 1.415 . S
C2381 H2357 0.951 . S
C2381 C2382 1.366 . S
C2381 C2383 1.388 1_565 S
C2382 C2381 1.366 . S
C2382 C2386 1.385 . S
C2383 H2358 0.951 . S
C2383 C2381 1.388 1_545 S
C2383 C2384 1.366 . S
C2384 C2383 1.366 . S
C2384 C2385 1.414 . S
C2384 C2387 1.499 . S
C2385 H2359 0.950 . S
C2385 C2384 1.414 . S
C2385 C2386 1.374 1_545 S
C2386 H2360 0.950 . S
C2386 C2382 1.385 . S
C2386 C2385 1.374 1_565 S
C2387 C2384 1.499 . S
C2387 C2388 1.373 . S
C2387 C2389 1.389 . S
C2388 H2361 0.950 . S
C2388 C2374 1.377 . S
C2388 C2387 1.373 . S
C2389 C2373 1.377 . S
C2389 C2387 1.389 . S
C2389 C2390 1.524 . S
C2390 C2389 1.524 . S
C2390 C2391 1.397 . S
C2390 C2395 1.363 . S
C2391 H2362 0.950 . S
C2391 C2390 1.397 . S
C2391 C2392 1.334 1_545 S
C2392 H2363 0.950 . S
C2392 C2391 1.334 1_565 S
C2392 C2393 1.287 1_565 S
C2393 C2392 1.287 1_545 S
C2393 C2394 1.524 . S
C2393 H2396 0.999 1_545 S
C2394 H2364 0.950 . S
C2394 C2393 1.524 . S
C2394 C2395 1.415 . S
C2395 H2365 0.950 . S
C2395 C2390 1.363 . S
C2395 C2394 1.415 . S
H2396 C2393 0.999 1_565 S
H2397 C2378 0.913 . S
H2398 C2416 0.951 . S
H2399 C2418 0.951 . S
H2400 C2420 0.950 . S
H2401 C2421 0.950 . S
H2402 C2423 0.950 . S
H2403 C2426 0.950 . S
H2404 C2427 0.950 . S
H2405 C2429 0.950 . S
H2406 C2430 0.950 . S
H2407 C2431 0.951 . S
H2408 C2433 0.951 . S
H2409 C2435 0.950 . S
H2410 C2436 0.950 . S
H2411 C2438 0.950 . S
H2412 C2441 0.950 . S
H2413 C2442 0.950 . S
H2414 C2444 0.950 . S
H2415 C2445 0.950 . S
C2416 H2398 0.951 . S
C2416 C2417 1.366 . S
C2416 C2418 1.388 . S
C2417 C2416 1.366 . S
C2417 C2421 1.385 . S
C2418 H2399 0.951 . S
C2418 C2416 1.388 . S
C2418 C2419 1.366 . S
C2419 C2418 1.366 . S
C2419 C2420 1.414 . S
C2419 C2422 1.499 . S
C2420 H2400 0.950 . S
C2420 C2419 1.414 . S
C2420 C2421 1.374 . S
C2421 H2401 0.950 . S
C2421 C2417 1.385 . S
C2421 C2420 1.374 . S
C2422 C2419 1.499 . S
C2422 C2423 1.373 . S
C2422 C2424 1.389 . S
C2423 H2402 0.950 . S
C2423 C2422 1.373 . S
C2423 C2439 1.377 . S
C2424 C2422 1.389 . S
C2424 C2425 1.524 . S
C2424 C2438 1.377 . S
C2425 C2424 1.524 . S
C2425 C2426 1.397 . S
C2425 C2430 1.363 . S
C2426 H2403 0.950 . S
C2426 C2425 1.397 . S
C2426 C2427 1.334 . S
C2427 H2404 0.950 . S
C2427 C2426 1.334 . S
C2427 C2428 1.287 . S
C2428 C2427 1.287 . S
C2428 C2429 1.524 . S
C2428 H2447 0.913 . S
C2429 H2405 0.950 . S
C2429 C2428 1.524 . S
C2429 C2430 1.415 . S
C2430 H2406 0.950 . S
C2430 C2425 1.363 . S
C2430 C2429 1.415 . S
C2431 H2407 0.951 . S
C2431 C2432 1.366 . S
C2431 C2433 1.388 . S
C2432 C2431 1.366 . S
C2432 C2436 1.385 . S
C2433 H2408 0.951 . S
C2433 C2431 1.388 . S
C2433 C2434 1.366 . S
C2434 C2433 1.366 . S
C2434 C2435 1.414 . S
C2434 C2437 1.499 . S
C2435 H2409 0.950 . S
C2435 C2434 1.414 . S
C2435 C2436 1.374 . S
C2436 H2410 0.950 . S
C2436 C2432 1.385 . S
C2436 C2435 1.374 . S
C2437 C2434 1.499 . S
C2437 C2438 1.373 . S
C2437 C2439 1.389 . S
C2438 H2411 0.950 . S
C2438 C2424 1.377 . S
C2438 C2437 1.373 . S
C2439 C2423 1.377 . S
C2439 C2437 1.389 . S
C2439 C2440 1.524 . S
C2440 C2439 1.524 . S
C2440 C2441 1.397 . S
C2440 C2445 1.363 . S
C2441 H2412 0.950 . S
C2441 C2440 1.397 . S
C2441 C2442 1.334 . S
C2442 H2413 0.950 . S
C2442 C2441 1.334 . S
C2442 C2443 1.287 . S
C2443 C2442 1.287 . S
C2443 C2444 1.524 . S
C2443 H2446 0.999 . S
C2444 H2414 0.950 . S
C2444 C2443 1.524 . S
C2444 C2445 1.415 . S
C2445 H2415 0.950 . S
C2445 C2440 1.363 . S
C2445 C2444 1.415 . S
H2446 C2443 0.999 . S
H2447 C2428 0.913 . S
H2448 C2466 0.951 . S
H2449 C2468 0.951 . S
H2450 C2470 0.950 . S
H2451 C2471 0.950 . S
H2452 C2473 0.950 . S
H2453 C2476 0.950 . S
H2454 C2477 0.950 . S
H2455 C2479 0.950 . S
H2456 C2480 0.950 . S
H2457 C2481 0.951 . S
H2458 C2483 0.951 . S
H2459 C2485 0.950 . S
H2460 C2486 0.950 . S
H2461 C2488 0.950 . S
H2462 C2491 0.950 . S
H2463 C2492 0.950 . S
H2464 C2494 0.950 . S
H2465 C2495 0.950 . S
C2466 H2448 0.951 . S
C2466 C2467 1.366 . S
C2466 C2468 1.388 . S
C2467 C2466 1.366 . S
C2467 C2471 1.385 . S
C2468 H2449 0.951 . S
C2468 C2466 1.388 . S
C2468 C2469 1.366 . S
C2469 C2468 1.366 . S
C2469 C2470 1.414 . S
C2469 C2472 1.499 . S
C2470 H2450 0.950 . S
C2470 C2469 1.414 . S
C2470 C2471 1.374 . S
C2471 H2451 0.950 . S
C2471 C2467 1.385 . S
C2471 C2470 1.374 . S
C2472 C2469 1.499 . S
C2472 C2473 1.373 . S
C2472 C2474 1.389 . S
C2473 H2452 0.950 . S
C2473 C2472 1.373 . S
C2473 C2489 1.377 . S
C2474 C2472 1.389 . S
C2474 C2475 1.524 . S
C2474 C2488 1.377 . S
C2475 C2474 1.524 . S
C2475 C2476 1.397 . S
C2475 C2480 1.363 . S
C2476 H2453 0.950 . S
C2476 C2475 1.397 . S
C2476 C2477 1.334 . S
C2477 H2454 0.950 . S
C2477 C2476 1.334 . S
C2477 C2478 1.287 . S
C2478 C2477 1.287 . S
C2478 C2479 1.524 . S
C2478 H2497 0.913 . S
C2479 H2455 0.950 . S
C2479 C2478 1.524 . S
C2479 C2480 1.415 . S
C2480 H2456 0.950 . S
C2480 C2475 1.363 . S
C2480 C2479 1.415 . S
C2481 H2457 0.951 . S
C2481 C2482 1.366 . S
C2481 C2483 1.388 . S
C2482 C2481 1.366 . S
C2482 C2486 1.385 . S
C2483 H2458 0.951 . S
C2483 C2481 1.388 . S
C2483 C2484 1.366 . S
C2484 C2483 1.366 . S
C2484 C2485 1.414 . S
C2484 C2487 1.499 . S
C2485 H2459 0.950 . S
C2485 C2484 1.414 . S
C2485 C2486 1.374 . S
C2486 H2460 0.950 . S
C2486 C2482 1.385 . S
C2486 C2485 1.374 . S
C2487 C2484 1.499 . S
C2487 C2488 1.373 . S
C2487 C2489 1.389 . S
C2488 H2461 0.950 . S
C2488 C2474 1.377 . S
C2488 C2487 1.373 . S
C2489 C2473 1.377 . S
C2489 C2487 1.389 . S
C2489 C2490 1.524 . S
C2490 C2489 1.524 . S
C2490 C2491 1.397 . S
C2490 C2495 1.363 . S
C2491 H2462 0.950 . S
C2491 C2490 1.397 . S
C2491 C2492 1.334 . S
C2492 H2463 0.950 . S
C2492 C2491 1.334 . S
C2492 C2493 1.287 . S
C2493 C2492 1.287 . S
C2493 C2494 1.524 . S
C2493 H2496 0.999 . S
C2494 H2464 0.950 . S
C2494 C2493 1.524 . S
C2494 C2495 1.415 . S
C2495 H2465 0.950 . S
C2495 C2490 1.363 . S
C2495 C2494 1.415 . S
H2496 C2493 0.999 . S
H2497 C2478 0.913 . S
H2498 C2516 0.951 . S
H2499 C2518 0.951 . S
H2500 C2520 0.950 . S
H2501 C2521 0.950 . S
H2502 C2523 0.950 . S
H2503 C2526 0.950 . S
H2504 C2527 0.950 . S
H2505 C2529 0.950 . S
H2506 C2530 0.950 . S
H2507 C2531 0.954 . S
H2508 C2533 0.951 . S
H2509 C2535 0.950 . S
H2510 C2536 0.950 . S
H2511 C2538 0.950 . S
H2512 C2541 0.950 . S
H2513 C2542 0.950 . S
H2514 C2544 0.950 . S
H2515 C2545 0.950 . S
C2516 H2498 0.951 . S
C2516 C2517 1.366 . S
C2516 C2518 1.388 . S
C2517 C2516 1.366 . S
C2517 C2521 1.385 . S
C2518 H2499 0.951 . S
C2518 C2516 1.388 . S
C2518 C2519 1.366 . S
C2519 C2518 1.366 . S
C2519 C2520 1.414 . S
C2519 C2522 1.499 . S
C2520 H2500 0.950 . S
C2520 C2519 1.414 . S
C2520 C2521 1.374 . S
C2521 H2501 0.950 . S
C2521 C2517 1.385 . S
C2521 C2520 1.374 . S
C2522 C2519 1.499 . S
C2522 C2523 1.373 . S
C2522 C2524 1.389 . S
C2523 H2502 0.950 . S
C2523 C2522 1.373 . S
C2523 C2539 1.377 . S
C2524 C2522 1.389 . S
C2524 C2525 1.524 . S
C2524 C2538 1.377 . S
C2525 C2524 1.524 . S
C2525 C2526 1.397 . S
C2525 C2530 1.363 . S
C2526 H2503 0.950 . S
C2526 C2525 1.397 . S
C2526 C2527 1.334 . S
C2527 H2504 0.950 . S
C2527 C2526 1.334 . S
C2527 C2528 1.287 . S
C2528 C2527 1.287 . S
C2528 C2529 1.524 . S
C2528 H2547 0.913 . S
C2529 H2505 0.950 . S
C2529 C2528 1.524 . S
C2529 C2530 1.415 . S
C2530 H2506 0.950 . S
C2530 C2525 1.363 . S
C2530 C2529 1.415 . S
C2531 H2507 0.954 . S
C2531 C2532 1.366 1_565 S
C2531 C2533 1.388 . S
C2532 C2531 1.366 1_545 S
C2532 C2536 1.385 . S
C2533 H2508 0.951 . S
C2533 C2531 1.388 . S
C2533 C2534 1.366 . S
C2534 C2533 1.366 . S
C2534 C2535 1.414 . S
C2534 C2537 1.499 . S
C2535 H2509 0.950 . S
C2535 C2534 1.414 . S
C2535 C2536 1.374 1_565 S
C2536 H2510 0.950 . S
C2536 C2532 1.385 . S
C2536 C2535 1.374 1_545 S
C2537 C2534 1.499 . S
C2537 C2538 1.373 . S
C2537 C2539 1.389 . S
C2538 H2511 0.950 . S
C2538 C2524 1.377 . S
C2538 C2537 1.373 . S
C2539 C2523 1.377 . S
C2539 C2537 1.389 . S
C2539 C2540 1.524 . S
C2540 C2539 1.524 . S
C2540 C2541 1.397 . S
C2540 C2545 1.363 . S
C2541 H2512 0.950 . S
C2541 C2540 1.397 . S
C2541 C2542 1.334 . S
C2542 H2513 0.950 . S
C2542 C2541 1.334 . S
C2542 C2543 1.287 . S
C2543 C2542 1.287 . S
C2543 C2544 1.524 . S
C2543 H2546 0.999 . S
C2544 H2514 0.950 . S
C2544 C2543 1.524 . S
C2544 C2545 1.415 . S
C2545 H2515 0.950 . S
C2545 C2540 1.363 . S
C2545 C2544 1.415 . S
H2546 C2543 0.999 . S
H2547 C2528 0.913 . S
H2548 C2566 0.951 . S
H2549 C2568 0.951 . S
H2550 C2570 0.950 . S
H2551 C2571 0.950 . S
H2552 C2573 0.950 . S
H2553 C2576 0.950 . S
H2554 C2577 0.950 . S
H2555 C2579 0.950 . S
H2556 C2580 0.950 . S
H2557 C2581 0.951 . S
H2558 C2583 0.951 . S
H2559 C2585 0.950 . S
H2560 C2586 0.950 . S
H2561 C2588 0.950 . S
H2562 C2591 0.950 . S
H2563 C2592 0.950 . S
H2564 C2594 0.950 . S
H2565 C2595 0.950 . S
C2566 H2548 0.951 . S
C2566 C2567 1.366 . S
C2566 C2568 1.388 . S
C2567 C2566 1.366 . S
C2567 C2571 1.385 . S
C2568 H2549 0.951 . S
C2568 C2566 1.388 . S
C2568 C2569 1.366 . S
C2569 C2568 1.366 . S
C2569 C2570 1.414 . S
C2569 C2572 1.499 . S
C2570 H2550 0.950 . S
C2570 C2569 1.414 . S
C2570 C2571 1.374 . S
C2571 H2551 0.950 . S
C2571 C2567 1.385 . S
C2571 C2570 1.374 . S
C2572 C2569 1.499 . S
C2572 C2573 1.373 . S
C2572 C2574 1.389 . S
C2573 H2552 0.950 . S
C2573 C2572 1.373 . S
C2573 C2589 1.377 . S
C2574 C2572 1.389 . S
C2574 C2575 1.524 . S
C2574 C2588 1.377 . S
C2575 C2574 1.524 . S
C2575 C2576 1.397 . S
C2575 C2580 1.363 . S
C2576 H2553 0.950 . S
C2576 C2575 1.397 . S
C2576 C2577 1.334 . S
C2577 H2554 0.950 . S
C2577 C2576 1.334 . S
C2577 C2578 1.287 . S
C2578 C2577 1.287 . S
C2578 C2579 1.524 . S
C2578 H2597 0.913 . S
C2579 H2555 0.950 . S
C2579 C2578 1.524 . S
C2579 C2580 1.415 . S
C2580 H2556 0.950 . S
C2580 C2575 1.363 . S
C2580 C2579 1.415 . S
C2581 H2557 0.951 . S
C2581 C2582 1.366 . S
C2581 C2583 1.388 1_545 S
C2582 C2581 1.366 . S
C2582 C2586 1.385 1_545 S
C2583 H2558 0.951 . S
C2583 C2581 1.388 1_565 S
C2583 C2584 1.366 . S
C2584 C2583 1.366 . S
C2584 C2585 1.414 . S
C2584 C2587 1.499 . S
C2585 H2559 0.950 . S
C2585 C2584 1.414 . S
C2585 C2586 1.374 . S
C2586 H2560 0.950 . S
C2586 C2582 1.385 1_565 S
C2586 C2585 1.374 . S
C2587 C2584 1.499 . S
C2587 C2588 1.373 . S
C2587 C2589 1.389 . S
C2588 H2561 0.950 . S
C2588 C2574 1.377 . S
C2588 C2587 1.373 . S
C2589 C2573 1.377 . S
C2589 C2587 1.389 . S
C2589 C2590 1.524 . S
C2590 C2589 1.524 . S
C2590 C2591 1.397 . S
C2590 C2595 1.363 . S
C2591 H2562 0.950 . S
C2591 C2590 1.397 . S
C2591 C2592 1.334 . S
C2592 H2563 0.950 . S
C2592 C2591 1.334 . S
C2592 C2593 1.287 . S
C2593 C2592 1.287 . S
C2593 C2594 1.524 . S
C2593 H2596 0.999 . S
C2594 H2564 0.950 . S
C2594 C2593 1.524 . S
C2594 C2595 1.415 . S
C2595 H2565 0.950 . S
C2595 C2590 1.363 . S
C2595 C2594 1.415 . S
H2596 C2593 0.999 . S
H2597 C2578 0.913 . S
H2598 C2616 0.951 . S
H2599 C2618 0.951 . S
H2600 C2620 0.950 . S
H2601 C2621 0.950 . S
H2602 C2623 0.950 . S
H2603 C2626 0.950 . S
H2604 C2627 0.950 . S
H2605 C2629 0.950 . S
H2606 C2630 0.950 . S
H2607 C2631 0.951 . S
H2608 C2633 0.951 . S
H2609 C2635 0.950 . S
H2610 C2636 0.950 . S
H2611 C2638 0.950 . S
H2612 C2641 0.950 . S
H2613 C2642 0.950 . S
H2614 C2644 0.950 . S
H2615 C2645 0.950 . S
C2616 H2598 0.951 . S
C2616 C2617 1.366 . S
C2616 C2618 1.388 . S
C2617 C2616 1.366 . S
C2617 C2621 1.385 . S
C2618 H2599 0.951 . S
C2618 C2616 1.388 . S
C2618 C2619 1.366 . S
C2619 C2618 1.366 . S
C2619 C2620 1.414 . S
C2619 C2622 1.499 . S
C2620 H2600 0.950 . S
C2620 C2619 1.414 . S
C2620 C2621 1.374 . S
C2621 H2601 0.950 . S
C2621 C2617 1.385 . S
C2621 C2620 1.374 . S
C2622 C2619 1.499 . S
C2622 C2623 1.373 . S
C2622 C2624 1.389 . S
C2623 H2602 0.950 . S
C2623 C2622 1.373 . S
C2623 C2639 1.377 . S
C2624 C2622 1.389 . S
C2624 C2625 1.524 . S
C2624 C2638 1.377 . S
C2625 C2624 1.524 . S
C2625 C2626 1.397 . S
C2625 C2630 1.363 . S
C2626 H2603 0.950 . S
C2626 C2625 1.397 . S
C2626 C2627 1.334 . S
C2627 H2604 0.950 . S
C2627 C2626 1.334 . S
C2627 C2628 1.287 . S
C2628 C2627 1.287 . S
C2628 C2629 1.524 . S
C2628 H2647 0.913 . S
C2629 H2605 0.950 . S
C2629 C2628 1.524 . S
C2629 C2630 1.415 . S
C2630 H2606 0.950 . S
C2630 C2625 1.363 . S
C2630 C2629 1.415 . S
C2631 H2607 0.951 . S
C2631 C2632 1.366 . S
C2631 C2633 1.388 . S
C2632 C2631 1.366 . S
C2632 C2636 1.385 . S
C2633 H2608 0.951 . S
C2633 C2631 1.388 . S
C2633 C2634 1.366 . S
C2634 C2633 1.366 . S
C2634 C2635 1.414 . S
C2634 C2637 1.499 . S
C2635 H2609 0.950 . S
C2635 C2634 1.414 . S
C2635 C2636 1.374 . S
C2636 H2610 0.950 . S
C2636 C2632 1.385 . S
C2636 C2635 1.374 . S
C2637 C2634 1.499 . S
C2637 C2638 1.373 . S
C2637 C2639 1.389 . S
C2638 H2611 0.950 . S
C2638 C2624 1.377 . S
C2638 C2637 1.373 . S
C2639 C2623 1.377 . S
C2639 C2637 1.389 . S
C2639 C2640 1.524 . S
C2640 C2639 1.524 . S
C2640 C2641 1.397 . S
C2640 C2645 1.363 . S
C2641 H2612 0.950 . S
C2641 C2640 1.397 . S
C2641 C2642 1.334 . S
C2642 H2613 0.950 . S
C2642 C2641 1.334 . S
C2642 C2643 1.287 . S
C2643 C2642 1.287 . S
C2643 C2644 1.524 . S
C2643 H2646 0.999 . S
C2644 H2614 0.950 . S
C2644 C2643 1.524 . S
C2644 C2645 1.415 . S
C2645 H2615 0.950 . S
C2645 C2640 1.363 . S
C2645 C2644 1.415 . S
H2646 C2643 0.999 . S
H2647 C2628 0.913 . S
H2648 C2666 0.951 . S
H2649 C2668 0.951 . S
H2650 C2670 0.950 . S
H2651 C2671 0.950 . S
H2652 C2673 0.950 . S
H2653 C2676 0.950 . S
H2654 C2677 0.950 . S
H2655 C2679 0.950 . S
H2656 C2680 0.950 . S
H2657 C2681 0.951 . S
H2658 C2683 0.951 . S
H2659 C2685 0.950 . S
H2660 C2686 0.950 . S
H2661 C2688 0.950 . S
H2662 C2691 0.950 . S
H2663 C2692 0.950 . S
H2664 C2694 0.950 . S
H2665 C2695 0.950 . S
C2666 H2648 0.951 . S
C2666 C2667 1.366 . S
C2666 C2668 1.388 . S
C2667 C2666 1.366 . S
C2667 C2671 1.385 . S
C2668 H2649 0.951 . S
C2668 C2666 1.388 . S
C2668 C2669 1.366 . S
C2669 C2668 1.366 . S
C2669 C2670 1.414 . S
C2669 C2672 1.499 . S
C2670 H2650 0.950 . S
C2670 C2669 1.414 . S
C2670 C2671 1.374 . S
C2671 H2651 0.950 . S
C2671 C2667 1.385 . S
C2671 C2670 1.374 . S
C2672 C2669 1.499 . S
C2672 C2673 1.373 . S
C2672 C2674 1.389 . S
C2673 H2652 0.950 . S
C2673 C2672 1.373 . S
C2673 C2689 1.377 . S
C2674 C2672 1.389 . S
C2674 C2675 1.524 . S
C2674 C2688 1.377 . S
C2675 C2674 1.524 . S
C2675 C2676 1.397 . S
C2675 C2680 1.363 . S
C2676 H2653 0.950 . S
C2676 C2675 1.397 . S
C2676 C2677 1.334 . S
C2677 H2654 0.950 . S
C2677 C2676 1.334 . S
C2677 C2678 1.287 . S
C2678 C2677 1.287 . S
C2678 C2679 1.524 . S
C2678 H2697 0.913 . S
C2679 H2655 0.950 . S
C2679 C2678 1.524 . S
C2679 C2680 1.415 . S
C2680 H2656 0.950 . S
C2680 C2675 1.363 . S
C2680 C2679 1.415 . S
C2681 H2657 0.951 . S
C2681 C2682 1.366 . S
C2681 C2683 1.388 . S
C2682 C2681 1.366 . S
C2682 C2686 1.385 . S
C2683 H2658 0.951 . S
C2683 C2681 1.388 . S
C2683 C2684 1.366 . S
C2684 C2683 1.366 . S
C2684 C2685 1.414 . S
C2684 C2687 1.499 . S
C2685 H2659 0.950 . S
C2685 C2684 1.414 . S
C2685 C2686 1.374 . S
C2686 H2660 0.950 . S
C2686 C2682 1.385 . S
C2686 C2685 1.374 . S
C2687 C2684 1.499 . S
C2687 C2688 1.373 . S
C2687 C2689 1.389 . S
C2688 H2661 0.950 . S
C2688 C2674 1.377 . S
C2688 C2687 1.373 . S
C2689 C2673 1.377 . S
C2689 C2687 1.389 . S
C2689 C2690 1.524 . S
C2690 C2689 1.524 . S
C2690 C2691 1.397 . S
C2690 C2695 1.363 . S
C2691 H2662 0.950 . S
C2691 C2690 1.397 . S
C2691 C2692 1.334 . S
C2692 H2663 0.950 . S
C2692 C2691 1.334 . S
C2692 C2693 1.287 . S
C2693 C2692 1.287 . S
C2693 C2694 1.524 . S
C2693 H2696 0.999 . S
C2694 H2664 0.950 . S
C2694 C2693 1.524 . S
C2694 C2695 1.415 . S
C2695 H2665 0.950 . S
C2695 C2690 1.363 . S
C2695 C2694 1.415 . S
H2696 C2693 0.999 . S
H2697 C2678 0.913 . S
H2698 C2716 0.948 1_565 S
H2699 C2718 0.951 . S
H2700 C2720 0.950 . S
H2701 C2721 0.950 . S
H2702 C2723 0.950 . S
H2703 C2726 0.950 . S
H2704 C2727 0.950 . S
H2705 C2729 0.950 . S
H2706 C2730 0.950 . S
H2707 C2731 0.951 . S
H2708 C2733 0.951 . S
H2709 C2735 0.950 . S
H2710 C2736 0.950 . S
H2711 C2738 0.950 . S
H2712 C2741 0.950 . S
H2713 C2742 0.950 . S
H2714 C2744 0.950 . S
H2715 C2745 0.950 . S
C2716 H2698 0.948 1_545 S
C2716 C2717 1.366 1_545 S
C2716 C2718 1.388 . S
C2717 C2716 1.366 1_565 S
C2717 C2721 1.385 . S
C2718 H2699 0.951 . S
C2718 C2716 1.388 . S
C2718 C2719 1.366 . S
C2719 C2718 1.366 . S
C2719 C2720 1.414 . S
C2719 C2722 1.499 . S
C2720 H2700 0.950 . S
C2720 C2719 1.414 . S
C2720 C2721 1.374 1_545 S
C2721 H2701 0.950 . S
C2721 C2717 1.385 . S
C2721 C2720 1.374 1_565 S
C2722 C2719 1.499 . S
C2722 C2723 1.373 . S
C2722 C2724 1.389 . S
C2723 H2702 0.950 . S
C2723 C2722 1.373 . S
C2723 C2739 1.377 . S
C2724 C2722 1.389 . S
C2724 C2725 1.524 . S
C2724 C2738 1.377 . S
C2725 C2724 1.524 . S
C2725 C2726 1.397 . S
C2725 C2730 1.363 . S
C2726 H2703 0.950 . S
C2726 C2725 1.397 . S
C2726 C2727 1.334 . S
C2727 H2704 0.950 . S
C2727 C2726 1.334 . S
C2727 C2728 1.287 . S
C2728 C2727 1.287 . S
C2728 C2729 1.524 . S
C2728 H2747 0.913 . S
C2729 H2705 0.950 . S
C2729 C2728 1.524 . S
C2729 C2730 1.415 . S
C2730 H2706 0.950 . S
C2730 C2725 1.363 . S
C2730 C2729 1.415 . S
C2731 H2707 0.951 . S
C2731 C2732 1.366 . S
C2731 C2733 1.388 . S
C2732 C2731 1.366 . S
C2732 C2736 1.385 . S
C2733 H2708 0.951 . S
C2733 C2731 1.388 . S
C2733 C2734 1.366 . S
C2734 C2733 1.366 . S
C2734 C2735 1.414 . S
C2734 C2737 1.499 . S
C2735 H2709 0.950 . S
C2735 C2734 1.414 . S
C2735 C2736 1.374 . S
C2736 H2710 0.950 . S
C2736 C2732 1.385 . S
C2736 C2735 1.374 . S
C2737 C2734 1.499 . S
C2737 C2738 1.373 . S
C2737 C2739 1.389 . S
C2738 H2711 0.950 . S
C2738 C2724 1.377 . S
C2738 C2737 1.373 . S
C2739 C2723 1.377 . S
C2739 C2737 1.389 . S
C2739 C2740 1.524 . S
C2740 C2739 1.524 . S
C2740 C2741 1.397 . S
C2740 C2745 1.363 . S
C2741 H2712 0.950 . S
C2741 C2740 1.397 . S
C2741 C2742 1.334 . S
C2742 H2713 0.950 . S
C2742 C2741 1.334 . S
C2742 C2743 1.287 . S
C2743 C2742 1.287 . S
C2743 C2744 1.524 . S
C2743 H2746 0.999 . S
C2744 H2714 0.950 . S
C2744 C2743 1.524 . S
C2744 C2745 1.415 . S
C2745 H2715 0.950 . S
C2745 C2740 1.363 . S
C2745 C2744 1.415 . S
H2746 C2743 0.999 . S
H2747 C2728 0.913 . S
H2748 C2766 0.951 . S
H2749 C2768 0.951 . S
H2750 C2770 0.950 . S
H2751 C2771 0.950 . S
H2752 C2773 0.950 . S
H2753 C2776 0.950 . S
H2754 C2777 0.950 . S
H2755 C2779 0.950 . S
H2756 C2780 0.950 . S
H2757 C2781 0.951 . S
H2758 C2783 0.951 . S
H2759 C2785 0.950 . S
H2760 C2786 0.950 . S
H2761 C2788 0.950 . S
H2762 C2791 0.950 . S
H2763 C2792 0.950 . S
H2764 C2794 0.950 . S
H2765 C2795 0.950 . S
C2766 H2748 0.951 . S
C2766 C2767 1.366 . S
C2766 C2768 1.388 . S
C2767 C2766 1.366 . S
C2767 C2771 1.385 . S
C2768 H2749 0.951 . S
C2768 C2766 1.388 . S
C2768 C2769 1.366 . S
C2769 C2768 1.366 . S
C2769 C2770 1.414 . S
C2769 C2772 1.499 . S
C2770 H2750 0.950 . S
C2770 C2769 1.414 . S
C2770 C2771 1.374 . S
C2771 H2751 0.950 . S
C2771 C2767 1.385 . S
C2771 C2770 1.374 . S
C2772 C2769 1.499 . S
C2772 C2773 1.373 . S
C2772 C2774 1.389 . S
C2773 H2752 0.950 . S
C2773 C2772 1.373 . S
C2773 C2789 1.377 . S
C2774 C2772 1.389 . S
C2774 C2775 1.524 . S
C2774 C2788 1.377 . S
C2775 C2774 1.524 . S
C2775 C2776 1.397 . S
C2775 C2780 1.363 . S
C2776 H2753 0.950 . S
C2776 C2775 1.397 . S
C2776 C2777 1.334 . S
C2777 H2754 0.950 . S
C2777 C2776 1.334 . S
C2777 C2778 1.287 . S
C2778 C2777 1.287 . S
C2778 C2779 1.524 . S
C2778 H2797 0.913 . S
C2779 H2755 0.950 . S
C2779 C2778 1.524 . S
C2779 C2780 1.415 . S
C2780 H2756 0.950 . S
C2780 C2775 1.363 . S
C2780 C2779 1.415 . S
C2781 H2757 0.951 . S
C2781 C2782 1.366 . S
C2781 C2783 1.388 1_565 S
C2782 C2781 1.366 . S
C2782 C2786 1.385 . S
C2783 H2758 0.951 . S
C2783 C2781 1.388 1_545 S
C2783 C2784 1.366 . S
C2784 C2783 1.366 . S
C2784 C2785 1.414 . S
C2784 C2787 1.499 . S
C2785 H2759 0.950 . S
C2785 C2784 1.414 . S
C2785 C2786 1.374 1_545 S
C2786 H2760 0.950 . S
C2786 C2782 1.385 . S
C2786 C2785 1.374 1_565 S
C2787 C2784 1.499 . S
C2787 C2788 1.373 . S
C2787 C2789 1.389 . S
C2788 H2761 0.950 . S
C2788 C2774 1.377 . S
C2788 C2787 1.373 . S
C2789 C2773 1.377 . S
C2789 C2787 1.389 . S
C2789 C2790 1.524 . S
C2790 C2789 1.524 . S
C2790 C2791 1.397 . S
C2790 C2795 1.363 . S
C2791 H2762 0.950 . S
C2791 C2790 1.397 . S
C2791 C2792 1.334 1_545 S
C2792 H2763 0.950 . S
C2792 C2791 1.334 1_565 S
C2792 C2793 1.287 1_565 S
C2793 C2792 1.287 1_545 S
C2793 C2794 1.524 . S
C2793 H2796 0.999 1_545 S
C2794 H2764 0.950 . S
C2794 C2793 1.524 . S
C2794 C2795 1.415 . S
C2795 H2765 0.950 . S
C2795 C2790 1.363 . S
C2795 C2794 1.415 . S
H2796 C2793 0.999 1_565 S
H2797 C2778 0.913 . S
H2798 C2816 0.951 . S
H2799 C2818 0.951 . S
H2800 C2820 0.950 . S
H2801 C2821 0.950 . S
H2802 C2823 0.950 . S
H2803 C2826 0.950 . S
H2804 C2827 0.950 . S
H2805 C2829 0.950 . S
H2806 C2830 0.950 . S
H2807 C2831 0.951 . S
H2808 C2833 0.951 . S
H2809 C2835 0.950 . S
H2810 C2836 0.950 . S
H2811 C2838 0.950 . S
H2812 C2841 0.950 . S
H2813 C2842 0.950 . S
H2814 C2844 0.950 . S
H2815 C2845 0.950 . S
C2816 H2798 0.951 . S
C2816 C2817 1.366 . S
C2816 C2818 1.388 . S
C2817 C2816 1.366 . S
C2817 C2821 1.385 . S
C2818 H2799 0.951 . S
C2818 C2816 1.388 . S
C2818 C2819 1.366 . S
C2819 C2818 1.366 . S
C2819 C2820 1.414 . S
C2819 C2822 1.499 . S
C2820 H2800 0.950 . S
C2820 C2819 1.414 . S
C2820 C2821 1.374 . S
C2821 H2801 0.950 . S
C2821 C2817 1.385 . S
C2821 C2820 1.374 . S
C2822 C2819 1.499 . S
C2822 C2823 1.373 . S
C2822 C2824 1.389 . S
C2823 H2802 0.950 . S
C2823 C2822 1.373 . S
C2823 C2839 1.377 . S
C2824 C2822 1.389 . S
C2824 C2825 1.524 . S
C2824 C2838 1.377 . S
C2825 C2824 1.524 . S
C2825 C2826 1.397 . S
C2825 C2830 1.363 . S
C2826 H2803 0.950 . S
C2826 C2825 1.397 . S
C2826 C2827 1.334 . S
C2827 H2804 0.950 . S
C2827 C2826 1.334 . S
C2827 C2828 1.287 . S
C2828 C2827 1.287 . S
C2828 C2829 1.524 . S
C2828 H2847 0.913 . S
C2829 H2805 0.950 . S
C2829 C2828 1.524 . S
C2829 C2830 1.415 . S
C2830 H2806 0.950 . S
C2830 C2825 1.363 . S
C2830 C2829 1.415 . S
C2831 H2807 0.951 . S
C2831 C2832 1.366 . S
C2831 C2833 1.388 . S
C2832 C2831 1.366 . S
C2832 C2836 1.385 . S
C2833 H2808 0.951 . S
C2833 C2831 1.388 . S
C2833 C2834 1.366 . S
C2834 C2833 1.366 . S
C2834 C2835 1.414 . S
C2834 C2837 1.499 . S
C2835 H2809 0.950 . S
C2835 C2834 1.414 . S
C2835 C2836 1.374 . S
C2836 H2810 0.950 . S
C2836 C2832 1.385 . S
C2836 C2835 1.374 . S
C2837 C2834 1.499 . S
C2837 C2838 1.373 . S
C2837 C2839 1.389 . S
C2838 H2811 0.950 . S
C2838 C2824 1.377 . S
C2838 C2837 1.373 . S
C2839 C2823 1.377 . S
C2839 C2837 1.389 . S
C2839 C2840 1.524 . S
C2840 C2839 1.524 . S
C2840 C2841 1.397 . S
C2840 C2845 1.363 . S
C2841 H2812 0.950 . S
C2841 C2840 1.397 . S
C2841 C2842 1.334 . S
C2842 H2813 0.950 . S
C2842 C2841 1.334 . S
C2842 C2843 1.287 . S
C2843 C2842 1.287 . S
C2843 C2844 1.524 . S
C2843 H2846 0.999 . S
C2844 H2814 0.950 . S
C2844 C2843 1.524 . S
C2844 C2845 1.415 . S
C2845 H2815 0.950 . S
C2845 C2840 1.363 . S
C2845 C2844 1.415 . S
H2846 C2843 0.999 . S
H2847 C2828 0.913 . S
H2848 C2866 0.951 . S
H2849 C2868 0.951 . S
H2850 C2870 0.950 . S
H2851 C2871 0.950 . S
H2852 C2873 0.950 . S
H2853 C2876 0.950 . S
H2854 C2877 0.950 . S
H2855 C2879 0.950 . S
H2856 C2880 0.950 . S
H2857 C2881 0.951 . S
H2858 C2883 0.951 . S
H2859 C2885 0.950 . S
H2860 C2886 0.950 . S
H2861 C2888 0.950 . S
H2862 C2891 0.950 . S
H2863 C2892 0.950 . S
H2864 C2894 0.950 . S
H2865 C2895 0.950 . S
C2866 H2848 0.951 . S
C2866 C2867 1.366 . S
C2866 C2868 1.388 . S
C2867 C2866 1.366 . S
C2867 C2871 1.385 . S
C2868 H2849 0.951 . S
C2868 C2866 1.388 . S
C2868 C2869 1.366 . S
C2869 C2868 1.366 . S
C2869 C2870 1.414 . S
C2869 C2872 1.499 . S
C2870 H2850 0.950 . S
C2870 C2869 1.414 . S
C2870 C2871 1.374 . S
C2871 H2851 0.950 . S
C2871 C2867 1.385 . S
C2871 C2870 1.374 . S
C2872 C2869 1.499 . S
C2872 C2873 1.373 . S
C2872 C2874 1.389 . S
C2873 H2852 0.950 . S
C2873 C2872 1.373 . S
C2873 C2889 1.377 . S
C2874 C2872 1.389 . S
C2874 C2875 1.524 . S
C2874 C2888 1.377 . S
C2875 C2874 1.524 . S
C2875 C2876 1.397 . S
C2875 C2880 1.363 . S
C2876 H2853 0.950 . S
C2876 C2875 1.397 . S
C2876 C2877 1.334 . S
C2877 H2854 0.950 . S
C2877 C2876 1.334 . S
C2877 C2878 1.287 . S
C2878 C2877 1.287 . S
C2878 C2879 1.524 . S
C2878 H2897 0.913 . S
C2879 H2855 0.950 . S
C2879 C2878 1.524 . S
C2879 C2880 1.415 . S
C2880 H2856 0.950 . S
C2880 C2875 1.363 . S
C2880 C2879 1.415 . S
C2881 H2857 0.951 . S
C2881 C2882 1.366 . S
C2881 C2883 1.388 1_545 S
C2882 C2881 1.366 . S
C2882 C2886 1.385 . S
C2883 H2858 0.951 . S
C2883 C2881 1.388 1_565 S
C2883 C2884 1.366 . S
C2884 C2883 1.366 . S
C2884 C2885 1.414 . S
C2884 C2887 1.499 . S
C2885 H2859 0.950 . S
C2885 C2884 1.414 . S
C2885 C2886 1.374 1_565 S
C2886 H2860 0.950 . S
C2886 C2882 1.385 . S
C2886 C2885 1.374 1_545 S
C2887 C2884 1.499 . S
C2887 C2888 1.373 . S
C2887 C2889 1.389 . S
C2888 H2861 0.950 . S
C2888 C2874 1.377 . S
C2888 C2887 1.373 . S
C2889 C2873 1.377 . S
C2889 C2887 1.389 . S
C2889 C2890 1.524 . S
C2890 C2889 1.524 . S
C2890 C2891 1.397 . S
C2890 C2895 1.363 . S
C2891 H2862 0.950 . S
C2891 C2890 1.397 . S
C2891 C2892 1.334 . S
C2892 H2863 0.950 . S
C2892 C2891 1.334 . S
C2892 C2893 1.287 . S
C2893 C2892 1.287 . S
C2893 C2894 1.524 . S
C2893 H2896 0.999 . S
C2894 H2864 0.950 . S
C2894 C2893 1.524 . S
C2894 C2895 1.415 . S
C2895 H2865 0.950 . S
C2895 C2890 1.363 . S
C2895 C2894 1.415 . S
H2896 C2893 0.999 . S
H2897 C2878 0.913 . S
H2898 C2916 0.951 . S
H2899 C2918 0.951 . S
H2900 C2920 0.950 . S
H2901 C2921 0.950 . S
H2902 C2923 0.950 . S
H2903 C2926 0.950 . S
H2904 C2927 0.950 . S
H2905 C2929 0.950 . S
H2906 C2930 0.950 . S
H2907 C2931 0.951 . S
H2908 C2933 0.951 . S
H2909 C2935 0.950 . S
H2910 C2936 0.950 . S
H2911 C2938 0.950 . S
H2912 C2941 0.950 . S
H2913 C2942 0.950 . S
H2914 C2944 0.950 . S
H2915 C2945 0.950 . S
C2916 H2898 0.951 . S
C2916 C2917 1.366 . S
C2916 C2918 1.388 . S
C2917 C2916 1.366 . S
C2917 C2921 1.385 . S
C2918 H2899 0.951 . S
C2918 C2916 1.388 . S
C2918 C2919 1.366 . S
C2919 C2918 1.366 . S
C2919 C2920 1.414 . S
C2919 C2922 1.499 . S
C2920 H2900 0.950 . S
C2920 C2919 1.414 . S
C2920 C2921 1.374 . S
C2921 H2901 0.950 . S
C2921 C2917 1.385 . S
C2921 C2920 1.374 . S
C2922 C2919 1.499 . S
C2922 C2923 1.373 . S
C2922 C2924 1.389 . S
C2923 H2902 0.950 . S
C2923 C2922 1.373 . S
C2923 C2939 1.377 . S
C2924 C2922 1.389 . S
C2924 C2925 1.524 . S
C2924 C2938 1.377 . S
C2925 C2924 1.524 . S
C2925 C2926 1.397 . S
C2925 C2930 1.363 . S
C2926 H2903 0.950 . S
C2926 C2925 1.397 . S
C2926 C2927 1.334 . S
C2927 H2904 0.950 . S
C2927 C2926 1.334 . S
C2927 C2928 1.287 . S
C2928 C2927 1.287 . S
C2928 C2929 1.524 . S
C2928 H2947 0.913 . S
C2929 H2905 0.950 . S
C2929 C2928 1.524 . S
C2929 C2930 1.415 . S
C2930 H2906 0.950 . S
C2930 C2925 1.363 . S
C2930 C2929 1.415 . S
C2931 H2907 0.951 . S
C2931 C2932 1.366 . S
C2931 C2933 1.388 . S
C2932 C2931 1.366 . S
C2932 C2936 1.385 . S
C2933 H2908 0.951 . S
C2933 C2931 1.388 . S
C2933 C2934 1.366 . S
C2934 C2933 1.366 . S
C2934 C2935 1.414 . S
C2934 C2937 1.499 . S
C2935 H2909 0.950 . S
C2935 C2934 1.414 . S
C2935 C2936 1.374 . S
C2936 H2910 0.950 . S
C2936 C2932 1.385 . S
C2936 C2935 1.374 . S
C2937 C2934 1.499 . S
C2937 C2938 1.373 . S
C2937 C2939 1.389 . S
C2938 H2911 0.950 . S
C2938 C2924 1.377 . S
C2938 C2937 1.373 . S
C2939 C2923 1.377 . S
C2939 C2937 1.389 . S
C2939 C2940 1.524 . S
C2940 C2939 1.524 . S
C2940 C2941 1.397 . S
C2940 C2945 1.363 . S
C2941 H2912 0.950 . S
C2941 C2940 1.397 . S
C2941 C2942 1.334 . S
C2942 H2913 0.950 . S
C2942 C2941 1.334 . S
C2942 C2943 1.287 . S
C2943 C2942 1.287 . S
C2943 C2944 1.524 . S
C2943 H2946 0.999 . S
C2944 H2914 0.950 . S
C2944 C2943 1.524 . S
C2944 C2945 1.415 . S
C2945 H2915 0.950 . S
C2945 C2940 1.363 . S
C2945 C2944 1.415 . S
H2946 C2943 0.999 . S
H2947 C2928 0.913 . S
H2948 C2966 0.951 . S
H2949 C2968 0.951 . S
H2950 C2970 0.950 . S
H2951 C2971 0.950 . S
H2952 C2973 0.950 . S
H2953 C2976 0.950 . S
H2954 C2977 0.950 . S
H2955 C2979 0.950 . S
H2956 C2980 0.950 . S
H2957 C2981 0.951 . S
H2958 C2983 0.951 . S
H2959 C2985 0.950 . S
H2960 C2986 0.950 . S
H2961 C2988 0.950 . S
H2962 C2991 0.950 . S
H2963 C2992 0.950 . S
H2964 C2994 0.950 . S
H2965 C2995 0.950 . S
C2966 H2948 0.951 . S
C2966 C2967 1.366 . S
C2966 C2968 1.388 . S
C2967 C2966 1.366 . S
C2967 C2971 1.385 . S
C2968 H2949 0.951 . S
C2968 C2966 1.388 . S
C2968 C2969 1.366 . S
C2969 C2968 1.366 . S
C2969 C2970 1.414 . S
C2969 C2972 1.499 . S
C2970 H2950 0.950 . S
C2970 C2969 1.414 . S
C2970 C2971 1.374 . S
C2971 H2951 0.950 . S
C2971 C2967 1.385 . S
C2971 C2970 1.374 . S
C2972 C2969 1.499 . S
C2972 C2973 1.373 . S
C2972 C2974 1.389 . S
C2973 H2952 0.950 . S
C2973 C2972 1.373 . S
C2973 C2989 1.377 . S
C2974 C2972 1.389 . S
C2974 C2975 1.524 . S
C2974 C2988 1.377 . S
C2975 C2974 1.524 . S
C2975 C2976 1.397 . S
C2975 C2980 1.363 . S
C2976 H2953 0.950 . S
C2976 C2975 1.397 . S
C2976 C2977 1.334 . S
C2977 H2954 0.950 . S
C2977 C2976 1.334 . S
C2977 C2978 1.287 . S
C2978 C2977 1.287 . S
C2978 C2979 1.524 . S
C2978 H2997 0.913 . S
C2979 H2955 0.950 . S
C2979 C2978 1.524 . S
C2979 C2980 1.415 . S
C2980 H2956 0.950 . S
C2980 C2975 1.363 . S
C2980 C2979 1.415 . S
C2981 H2957 0.951 . S
C2981 C2982 1.366 . S
C2981 C2983 1.388 . S
C2982 C2981 1.366 . S
C2982 C2986 1.385 . S
C2983 H2958 0.951 . S
C2983 C2981 1.388 . S
C2983 C2984 1.366 . S
C2984 C2983 1.366 . S
C2984 C2985 1.414 . S
C2984 C2987 1.499 . S
C2985 H2959 0.950 . S
C2985 C2984 1.414 . S
C2985 C2986 1.374 . S
C2986 H2960 0.950 . S
C2986 C2982 1.385 . S
C2986 C2985 1.374 . S
C2987 C2984 1.499 . S
C2987 C2988 1.373 . S
C2987 C2989 1.389 . S
C2988 H2961 0.950 . S
C2988 C2974 1.377 . S
C2988 C2987 1.373 . S
C2989 C2973 1.377 . S
C2989 C2987 1.389 . S
C2989 C2990 1.524 . S
C2990 C2989 1.524 . S
C2990 C2991 1.397 . S
C2990 C2995 1.363 . S
C2991 H2962 0.950 . S
C2991 C2990 1.397 . S
C2991 C2992 1.334 . S
C2992 H2963 0.950 . S
C2992 C2991 1.334 . S
C2992 C2993 1.287 . S
C2993 C2992 1.287 . S
C2993 C2994 1.524 . S
C2993 H2996 0.999 . S
C2994 H2964 0.950 . S
C2994 C2993 1.524 . S
C2994 C2995 1.415 . S
C2995 H2965 0.950 . S
C2995 C2990 1.363 . S
C2995 C2994 1.415 . S
H2996 C2993 0.999 . S
H2997 C2978 0.913 . S
H2998 C3016 0.951 . S
H2999 C3018 0.951 . S
H3000 C3020 0.950 . S
H3001 C3021 0.950 . S
H3002 C3023 0.950 . S
H3003 C3026 0.950 . S
H3004 C3027 0.950 . S
H3005 C3029 0.950 . S
H3006 C3030 0.950 . S
H3007 C3031 0.951 . S
H3008 C3033 0.951 . S
H3009 C3035 0.950 . S
H3010 C3036 0.950 . S
H3011 C3038 0.950 . S
H3012 C3041 0.950 . S
H3013 C3042 0.950 . S
H3014 C3044 0.950 . S
H3015 C3045 0.950 . S
C3016 H2998 0.951 . S
C3016 C3017 1.366 . S
C3016 C3018 1.388 1_545 S
C3017 C3016 1.366 . S
C3017 C3021 1.385 . S
C3018 H2999 0.951 . S
C3018 C3016 1.388 1_565 S
C3018 C3019 1.366 . S
C3019 C3018 1.366 . S
C3019 C3020 1.414 . S
C3019 C3022 1.499 . S
C3020 H3000 0.950 . S
C3020 C3019 1.414 . S
C3020 C3021 1.374 1_565 S
C3021 H3001 0.950 . S
C3021 C3017 1.385 . S
C3021 C3020 1.374 1_545 S
C3022 C3019 1.499 . S
C3022 C3023 1.373 . S
C3022 C3024 1.389 . S
C3023 H3002 0.950 . S
C3023 C3022 1.373 . S
C3023 C3039 1.377 . S
C3024 C3022 1.389 . S
C3024 C3025 1.524 . S
C3024 C3038 1.377 . S
C3025 C3024 1.524 . S
C3025 C3026 1.397 . S
C3025 C3030 1.363 . S
C3026 H3003 0.950 . S
C3026 C3025 1.397 . S
C3026 C3027 1.334 . S
C3027 H3004 0.950 . S
C3027 C3026 1.334 . S
C3027 C3028 1.287 . S
C3028 C3027 1.287 . S
C3028 C3029 1.524 . S
C3028 H3047 0.913 . S
C3029 H3005 0.950 . S
C3029 C3028 1.524 . S
C3029 C3030 1.415 . S
C3030 H3006 0.950 . S
C3030 C3025 1.363 . S
C3030 C3029 1.415 . S
C3031 H3007 0.951 . S
C3031 C3032 1.366 . S
C3031 C3033 1.388 . S
C3032 C3031 1.366 . S
C3032 C3036 1.385 . S
C3033 H3008 0.951 . S
C3033 C3031 1.388 . S
C3033 C3034 1.366 . S
C3034 C3033 1.366 . S
C3034 C3035 1.414 . S
C3034 C3037 1.499 . S
C3035 H3009 0.950 . S
C3035 C3034 1.414 . S
C3035 C3036 1.374 . S
C3036 H3010 0.950 . S
C3036 C3032 1.385 . S
C3036 C3035 1.374 . S
C3037 C3034 1.499 . S
C3037 C3038 1.373 . S
C3037 C3039 1.389 . S
C3038 H3011 0.950 . S
C3038 C3024 1.377 . S
C3038 C3037 1.373 . S
C3039 C3023 1.377 . S
C3039 C3037 1.389 . S
C3039 C3040 1.524 . S
C3040 C3039 1.524 . S
C3040 C3041 1.397 . S
C3040 C3045 1.363 . S
C3041 H3012 0.950 . S
C3041 C3040 1.397 . S
C3041 C3042 1.334 . S
C3042 H3013 0.950 . S
C3042 C3041 1.334 . S
C3042 C3043 1.287 . S
C3043 C3042 1.287 . S
C3043 C3044 1.524 . S
C3043 H3046 0.999 . S
C3044 H3014 0.950 . S
C3044 C3043 1.524 . S
C3044 C3045 1.415 . S
C3045 H3015 0.950 . S
C3045 C3040 1.363 . S
C3045 C3044 1.415 . S
H3046 C3043 0.999 . S
H3047 C3028 0.913 . S
H3048 C3066 0.951 . S
H3049 C3068 0.951 . S
H3050 C3070 0.950 . S
H3051 C3071 0.950 . S
H3052 C3073 0.950 . S
H3053 C3076 0.950 . S
H3054 C3077 0.950 . S
H3055 C3079 0.950 . S
H3056 C3080 0.950 . S
H3057 C3081 0.951 . S
H3058 C3083 0.951 . S
H3059 C3085 0.950 . S
H3060 C3086 0.950 . S
H3061 C3088 0.950 . S
H3062 C3091 0.950 . S
H3063 C3092 0.950 . S
H3064 C3094 0.950 . S
H3065 C3095 0.950 . S
C3066 H3048 0.951 . S
C3066 C3067 1.366 . S
C3066 C3068 1.388 . S
C3067 C3066 1.366 . S
C3067 C3071 1.385 . S
C3068 H3049 0.951 . S
C3068 C3066 1.388 . S
C3068 C3069 1.366 . S
C3069 C3068 1.366 . S
C3069 C3070 1.414 . S
C3069 C3072 1.499 . S
C3070 H3050 0.950 . S
C3070 C3069 1.414 . S
C3070 C3071 1.374 . S
C3071 H3051 0.950 . S
C3071 C3067 1.385 . S
C3071 C3070 1.374 . S
C3072 C3069 1.499 . S
C3072 C3073 1.373 . S
C3072 C3074 1.389 . S
C3073 H3052 0.950 . S
C3073 C3072 1.373 . S
C3073 C3089 1.377 . S
C3074 C3072 1.389 . S
C3074 C3075 1.524 . S
C3074 C3088 1.377 . S
C3075 C3074 1.524 . S
C3075 C3076 1.397 . S
C3075 C3080 1.363 . S
C3076 H3053 0.950 . S
C3076 C3075 1.397 . S
C3076 C3077 1.334 . S
C3077 H3054 0.950 . S
C3077 C3076 1.334 . S
C3077 C3078 1.287 . S
C3078 C3077 1.287 . S
C3078 C3079 1.524 . S
C3078 H3097 0.913 . S
C3079 H3055 0.950 . S
C3079 C3078 1.524 . S
C3079 C3080 1.415 . S
C3080 H3056 0.950 . S
C3080 C3075 1.363 . S
C3080 C3079 1.415 . S
C3081 H3057 0.951 . S
C3081 C3082 1.366 . S
C3081 C3083 1.388 1_565 S
C3082 C3081 1.366 . S
C3082 C3086 1.385 . S
C3083 H3058 0.951 . S
C3083 C3081 1.388 1_545 S
C3083 C3084 1.366 . S
C3084 C3083 1.366 . S
C3084 C3085 1.414 . S
C3084 C3087 1.499 . S
C3085 H3059 0.950 . S
C3085 C3084 1.414 . S
C3085 C3086 1.374 1_545 S
C3086 H3060 0.950 . S
C3086 C3082 1.385 . S
C3086 C3085 1.374 1_565 S
C3087 C3084 1.499 . S
C3087 C3088 1.373 . S
C3087 C3089 1.389 . S
C3088 H3061 0.950 . S
C3088 C3074 1.377 . S
C3088 C3087 1.373 . S
C3089 C3073 1.377 . S
C3089 C3087 1.389 . S
C3089 C3090 1.524 . S
C3090 C3089 1.524 . S
C3090 C3091 1.397 . S
C3090 C3095 1.363 . S
C3091 H3062 0.950 . S
C3091 C3090 1.397 . S
C3091 C3092 1.334 . S
C3092 H3063 0.950 . S
C3092 C3091 1.334 . S
C3092 C3093 1.287 . S
C3093 C3092 1.287 . S
C3093 C3094 1.524 . S
C3093 H3096 0.999 . S
C3094 H3064 0.950 . S
C3094 C3093 1.524 . S
C3094 C3095 1.415 . S
C3095 H3065 0.950 . S
C3095 C3090 1.363 . S
C3095 C3094 1.415 . S
H3096 C3093 0.999 . S
H3097 C3078 0.913 . S
H3098 C3116 0.951 . S
H3099 C3118 0.951 . S
H3100 C3120 0.950 . S
H3101 C3121 0.950 . S
H3102 C3123 0.950 . S
H3103 C3126 0.950 . S
H3104 C3127 0.950 . S
H3105 C3129 0.950 . S
H3106 C3130 0.950 . S
H3107 C3131 0.951 . S
H3108 C3133 0.951 . S
H3109 C3135 0.950 . S
H3110 C3136 0.950 . S
H3111 C3138 0.950 . S
H3112 C3141 0.950 . S
H3113 C3142 0.950 . S
H3114 C3144 0.950 . S
H3115 C3145 0.950 . S
C3116 H3098 0.951 . S
C3116 C3117 1.366 . S
C3116 C3118 1.388 . S
C3117 C3116 1.366 . S
C3117 C3121 1.385 . S
C3118 H3099 0.951 . S
C3118 C3116 1.388 . S
C3118 C3119 1.366 . S
C3119 C3118 1.366 . S
C3119 C3120 1.414 . S
C3119 C3122 1.499 . S
C3120 H3100 0.950 . S
C3120 C3119 1.414 . S
C3120 C3121 1.374 . S
C3121 H3101 0.950 . S
C3121 C3117 1.385 . S
C3121 C3120 1.374 . S
C3122 C3119 1.499 . S
C3122 C3123 1.373 . S
C3122 C3124 1.389 . S
C3123 H3102 0.950 . S
C3123 C3122 1.373 . S
C3123 C3139 1.377 . S
C3124 C3122 1.389 . S
C3124 C3125 1.524 . S
C3124 C3138 1.377 . S
C3125 C3124 1.524 . S
C3125 C3126 1.397 . S
C3125 C3130 1.363 . S
C3126 H3103 0.950 . S
C3126 C3125 1.397 . S
C3126 C3127 1.334 . S
C3127 H3104 0.950 . S
C3127 C3126 1.334 . S
C3127 C3128 1.287 . S
C3128 C3127 1.287 . S
C3128 C3129 1.524 . S
C3128 H3147 0.913 . S
C3129 H3105 0.950 . S
C3129 C3128 1.524 . S
C3129 C3130 1.415 . S
C3130 H3106 0.950 . S
C3130 C3125 1.363 . S
C3130 C3129 1.415 . S
C3131 H3107 0.951 . S
C3131 C3132 1.366 . S
C3131 C3133 1.388 . S
C3132 C3131 1.366 . S
C3132 C3136 1.385 . S
C3133 H3108 0.951 . S
C3133 C3131 1.388 . S
C3133 C3134 1.366 . S
C3134 C3133 1.366 . S
C3134 C3135 1.414 . S
C3134 C3137 1.499 . S
C3135 H3109 0.950 . S
C3135 C3134 1.414 . S
C3135 C3136 1.374 . S
C3136 H3110 0.950 . S
C3136 C3132 1.385 . S
C3136 C3135 1.374 . S
C3137 C3134 1.499 . S
C3137 C3138 1.373 . S
C3137 C3139 1.389 . S
C3138 H3111 0.950 . S
C3138 C3124 1.377 . S
C3138 C3137 1.373 . S
C3139 C3123 1.377 . S
C3139 C3137 1.389 . S
C3139 C3140 1.524 . S
C3140 C3139 1.524 . S
C3140 C3141 1.397 . S
C3140 C3145 1.363 . S
C3141 H3112 0.950 . S
C3141 C3140 1.397 . S
C3141 C3142 1.334 . S
C3142 H3113 0.950 . S
C3142 C3141 1.334 . S
C3142 C3143 1.287 . S
C3143 C3142 1.287 . S
C3143 C3144 1.524 . S
C3143 H3146 0.999 . S
C3144 H3114 0.950 . S
C3144 C3143 1.524 . S
C3144 C3145 1.415 . S
C3145 H3115 0.950 . S
C3145 C3140 1.363 . S
C3145 C3144 1.415 . S
H3146 C3143 0.999 . S
H3147 C3128 0.913 . S
H3148 C3166 0.951 . S
H3149 C3168 0.951 . S
H3150 C3170 0.950 . S
H3151 C3171 0.950 . S
H3152 C3173 0.950 . S
H3153 C3176 0.950 . S
H3154 C3177 0.950 . S
H3155 C3179 0.950 . S
H3156 C3180 0.950 . S
H3157 C3181 0.951 . S
H3158 C3183 0.951 . S
H3159 C3185 0.950 . S
H3160 C3186 0.950 . S
H3161 C3188 0.950 . S
H3162 C3191 0.950 . S
H3163 C3192 0.950 . S
H3164 C3194 0.950 . S
H3165 C3195 0.950 . S
C3166 H3148 0.951 . S
C3166 C3167 1.366 . S
C3166 C3168 1.388 . S
C3167 C3166 1.366 . S
C3167 C3171 1.385 . S
C3168 H3149 0.951 . S
C3168 C3166 1.388 . S
C3168 C3169 1.366 . S
C3169 C3168 1.366 . S
C3169 C3170 1.414 . S
C3169 C3172 1.499 . S
C3170 H3150 0.950 . S
C3170 C3169 1.414 . S
C3170 C3171 1.374 . S
C3171 H3151 0.950 . S
C3171 C3167 1.385 . S
C3171 C3170 1.374 . S
C3172 C3169 1.499 . S
C3172 C3173 1.373 . S
C3172 C3174 1.389 . S
C3173 H3152 0.950 . S
C3173 C3172 1.373 . S
C3173 C3189 1.377 . S
C3174 C3172 1.389 . S
C3174 C3175 1.524 . S
C3174 C3188 1.377 . S
C3175 C3174 1.524 . S
C3175 C3176 1.397 . S
C3175 C3180 1.363 . S
C3176 H3153 0.950 . S
C3176 C3175 1.397 . S
C3176 C3177 1.334 . S
C3177 H3154 0.950 . S
C3177 C3176 1.334 . S
C3177 C3178 1.287 . S
C3178 C3177 1.287 . S
C3178 C3179 1.524 . S
C3178 H3197 0.913 . S
C3179 H3155 0.950 . S
C3179 C3178 1.524 . S
C3179 C3180 1.415 . S
C3180 H3156 0.950 . S
C3180 C3175 1.363 . S
C3180 C3179 1.415 . S
C3181 H3157 0.951 . S
C3181 C3182 1.366 . S
C3181 C3183 1.388 . S
C3182 C3181 1.366 . S
C3182 C3186 1.385 . S
C3183 H3158 0.951 . S
C3183 C3181 1.388 . S
C3183 C3184 1.366 . S
C3184 C3183 1.366 . S
C3184 C3185 1.414 . S
C3184 C3187 1.499 . S
C3185 H3159 0.950 . S
C3185 C3184 1.414 . S
C3185 C3186 1.374 . S
C3186 H3160 0.950 . S
C3186 C3182 1.385 . S
C3186 C3185 1.374 . S
C3187 C3184 1.499 . S
C3187 C3188 1.373 . S
C3187 C3189 1.389 . S
C3188 H3161 0.950 . S
C3188 C3174 1.377 . S
C3188 C3187 1.373 . S
C3189 C3173 1.377 . S
C3189 C3187 1.389 . S
C3189 C3190 1.524 . S
C3190 C3189 1.524 . S
C3190 C3191 1.397 . S
C3190 C3195 1.363 . S
C3191 H3162 0.950 . S
C3191 C3190 1.397 . S
C3191 C3192 1.334 . S
C3192 H3163 0.950 . S
C3192 C3191 1.334 . S
C3192 C3193 1.287 . S
C3193 C3192 1.287 . S
C3193 C3194 1.524 . S
C3193 H3196 0.999 . S
C3194 H3164 0.950 . S
C3194 C3193 1.524 . S
C3194 C3195 1.415 . S
C3195 H3165 0.950 . S
C3195 C3190 1.363 . S
C3195 C3194 1.415 . S
H3196 C3193 0.999 . S
H3197 C3178 0.913 . S
H3198 C3216 0.951 . S
H3199 C3218 0.951 . S
H3200 C3220 0.950 . S
H3201 C3221 0.950 . S
H3202 C3223 0.950 . S
H3203 C3226 0.950 . S
H3204 C3227 0.950 . S
H3205 C3229 0.950 . S
H3206 C3230 0.950 . S
H3207 C3231 0.951 . S
H3208 C3233 0.951 . S
H3209 C3235 0.950 . S
H3210 C3236 0.950 . S
H3211 C3238 0.950 . S
H3212 C3241 0.950 . S
H3213 C3242 0.950 1_565 S
H3214 C3244 0.950 . S
H3215 C3245 0.950 . S
C3216 H3198 0.951 . S
C3216 C3217 1.366 . S
C3216 C3218 1.388 . S
C3217 C3216 1.366 . S
C3217 C3221 1.385 . S
C3218 H3199 0.951 . S
C3218 C3216 1.388 . S
C3218 C3219 1.366 . S
C3219 C3218 1.366 . S
C3219 C3220 1.414 . S
C3219 C3222 1.499 . S
C3220 H3200 0.950 . S
C3220 C3219 1.414 . S
C3220 C3221 1.374 . S
C3221 H3201 0.950 . S
C3221 C3217 1.385 . S
C3221 C3220 1.374 . S
C3222 C3219 1.499 . S
C3222 C3223 1.373 . S
C3222 C3224 1.389 . S
C3223 H3202 0.950 . S
C3223 C3222 1.373 . S
C3223 C3239 1.377 . S
C3224 C3222 1.389 . S
C3224 C3225 1.524 . S
C3224 C3238 1.377 . S
C3225 C3224 1.524 . S
C3225 C3226 1.397 . S
C3225 C3230 1.363 . S
C3226 H3203 0.950 . S
C3226 C3225 1.397 . S
C3226 C3227 1.334 . S
C3227 H3204 0.950 . S
C3227 C3226 1.334 . S
C3227 C3228 1.287 . S
C3228 C3227 1.287 . S
C3228 C3229 1.524 . S
C3228 H3247 0.913 . S
C3229 H3205 0.950 . S
C3229 C3228 1.524 . S
C3229 C3230 1.415 . S
C3230 H3206 0.950 . S
C3230 C3225 1.363 . S
C3230 C3229 1.415 . S
C3231 H3207 0.951 . S
C3231 C3232 1.366 . S
C3231 C3233 1.388 1_565 S
C3232 C3231 1.366 . S
C3232 C3236 1.385 . S
C3233 H3208 0.951 . S
C3233 C3231 1.388 1_545 S
C3233 C3234 1.366 . S
C3234 C3233 1.366 . S
C3234 C3235 1.414 . S
C3234 C3237 1.499 . S
C3235 H3209 0.950 . S
C3235 C3234 1.414 . S
C3235 C3236 1.374 1_545 S
C3236 H3210 0.950 . S
C3236 C3232 1.385 . S
C3236 C3235 1.374 1_565 S
C3237 C3234 1.499 . S
C3237 C3238 1.373 . S
C3237 C3239 1.389 . S
C3238 H3211 0.950 . S
C3238 C3224 1.377 . S
C3238 C3237 1.373 . S
C3239 C3223 1.377 . S
C3239 C3237 1.389 . S
C3239 C3240 1.524 . S
C3240 C3239 1.524 . S
C3240 C3241 1.397 . S
C3240 C3245 1.363 . S
C3241 H3212 0.950 . S
C3241 C3240 1.397 . S
C3241 C3242 1.334 . S
C3242 H3213 0.950 1_545 S
C3242 C3241 1.334 . S
C3242 C3243 1.287 . S
C3243 C3242 1.287 . S
C3243 C3244 1.524 . S
C3243 H3246 0.999 1_545 S
C3244 H3214 0.950 . S
C3244 C3243 1.524 . S
C3244 C3245 1.415 . S
C3245 H3215 0.950 . S
C3245 C3240 1.363 . S
C3245 C3244 1.415 . S
H3246 C3243 0.999 1_565 S
H3247 C3228 0.913 . S
H3248 C3266 0.951 . S
H3249 C3268 0.951 . S
H3250 C3270 0.950 . S
H3251 C3271 0.950 . S
H3252 C3273 0.950 . S
H3253 C3276 0.950 . S
H3254 C3277 0.950 . S
H3255 C3279 0.950 . S
H3256 C3280 0.950 . S
H3257 C3281 0.951 . S
H3258 C3283 0.951 . S
H3259 C3285 0.950 . S
H3260 C3286 0.950 . S
H3261 C3288 0.950 . S
H3262 C3291 0.950 . S
H3263 C3292 0.950 . S
H3264 C3294 0.950 . S
H3265 C3295 0.950 . S
C3266 H3248 0.951 . S
C3266 C3267 1.366 . S
C3266 C3268 1.388 . S
C3267 C3266 1.366 . S
C3267 C3271 1.385 . S
C3268 H3249 0.951 . S
C3268 C3266 1.388 . S
C3268 C3269 1.366 . S
C3269 C3268 1.366 . S
C3269 C3270 1.414 . S
C3269 C3272 1.499 . S
C3270 H3250 0.950 . S
C3270 C3269 1.414 . S
C3270 C3271 1.374 . S
C3271 H3251 0.950 . S
C3271 C3267 1.385 . S
C3271 C3270 1.374 . S
C3272 C3269 1.499 . S
C3272 C3273 1.373 . S
C3272 C3274 1.389 . S
C3273 H3252 0.950 . S
C3273 C3272 1.373 . S
C3273 C3289 1.377 . S
C3274 C3272 1.389 . S
C3274 C3275 1.524 . S
C3274 C3288 1.377 . S
C3275 C3274 1.524 . S
C3275 C3276 1.397 . S
C3275 C3280 1.363 . S
C3276 H3253 0.950 . S
C3276 C3275 1.397 . S
C3276 C3277 1.334 . S
C3277 H3254 0.950 . S
C3277 C3276 1.334 . S
C3277 C3278 1.287 . S
C3278 C3277 1.287 . S
C3278 C3279 1.524 . S
C3278 H3297 0.913 . S
C3279 H3255 0.950 . S
C3279 C3278 1.524 . S
C3279 C3280 1.415 . S
C3280 H3256 0.950 . S
C3280 C3275 1.363 . S
C3280 C3279 1.415 . S
C3281 H3257 0.951 . S
C3281 C3282 1.366 . S
C3281 C3283 1.388 1_545 S
C3282 C3281 1.366 . S
C3282 C3286 1.385 . S
C3283 H3258 0.951 . S
C3283 C3281 1.388 1_565 S
C3283 C3284 1.366 . S
C3284 C3283 1.366 . S
C3284 C3285 1.414 . S
C3284 C3287 1.499 . S
C3285 H3259 0.950 . S
C3285 C3284 1.414 . S
C3285 C3286 1.374 1_565 S
C3286 H3260 0.950 . S
C3286 C3282 1.385 . S
C3286 C3285 1.374 1_545 S
C3287 C3284 1.499 . S
C3287 C3288 1.373 . S
C3287 C3289 1.389 . S
C3288 H3261 0.950 . S
C3288 C3274 1.377 . S
C3288 C3287 1.373 . S
C3289 C3273 1.377 . S
C3289 C3287 1.389 . S
C3289 C3290 1.524 . S
C3290 C3289 1.524 . S
C3290 C3291 1.397 . S
C3290 C3295 1.363 . S
C3291 H3262 0.950 . S
C3291 C3290 1.397 . S
C3291 C3292 1.334 . S
C3292 H3263 0.950 . S
C3292 C3291 1.334 . S
C3292 C3293 1.287 . S
C3293 C3292 1.287 . S
C3293 C3294 1.524 . S
C3293 H3296 0.999 . S
C3294 H3264 0.950 . S
C3294 C3293 1.524 . S
C3294 C3295 1.415 . S
C3295 H3265 0.950 . S
C3295 C3290 1.363 . S
C3295 C3294 1.415 . S
H3296 C3293 0.999 . S
H3297 C3278 0.913 . S
H3298 C3316 0.951 . S
H3299 C3318 0.951 . S
H3300 C3320 0.950 . S
H3301 C3321 0.950 . S
H3302 C3323 0.950 . S
H3303 C3326 0.950 . S
H3304 C3327 0.950 . S
H3305 C3329 0.950 . S
H3306 C3330 0.950 . S
H3307 C3331 0.951 . S
H3308 C3333 0.951 . S
H3309 C3335 0.950 . S
H3310 C3336 0.950 . S
H3311 C3338 0.950 . S
H3312 C3341 0.950 . S
H3313 C3342 0.950 . S
H3314 C3344 0.950 . S
H3315 C3345 0.950 . S
C3316 H3298 0.951 . S
C3316 C3317 1.366 . S
C3316 C3318 1.388 . S
C3317 C3316 1.366 . S
C3317 C3321 1.385 . S
C3318 H3299 0.951 . S
C3318 C3316 1.388 . S
C3318 C3319 1.366 . S
C3319 C3318 1.366 . S
C3319 C3320 1.414 . S
C3319 C3322 1.499 . S
C3320 H3300 0.950 . S
C3320 C3319 1.414 . S
C3320 C3321 1.374 . S
C3321 H3301 0.950 . S
C3321 C3317 1.385 . S
C3321 C3320 1.374 . S
C3322 C3319 1.499 . S
C3322 C3323 1.373 . S
C3322 C3324 1.389 . S
C3323 H3302 0.950 . S
C3323 C3322 1.373 . S
C3323 C3339 1.377 . S
C3324 C3322 1.389 . S
C3324 C3325 1.524 . S
C3324 C3338 1.377 . S
C3325 C3324 1.524 . S
C3325 C3326 1.397 . S
C3325 C3330 1.363 . S
C3326 H3303 0.950 . S
C3326 C3325 1.397 . S
C3326 C3327 1.334 . S
C3327 H3304 0.950 . S
C3327 C3326 1.334 . S
C3327 C3328 1.287 . S
C3328 C3327 1.287 . S
C3328 C3329 1.524 . S
C3328 H3347 0.913 . S
C3329 H3305 0.950 . S
C3329 C3328 1.524 . S
C3329 C3330 1.415 . S
C3330 H3306 0.950 . S
C3330 C3325 1.363 . S
C3330 C3329 1.415 . S
C3331 H3307 0.951 . S
C3331 C3332 1.366 . S
C3331 C3333 1.388 . S
C3332 C3331 1.366 . S
C3332 C3336 1.385 . S
C3333 H3308 0.951 . S
C3333 C3331 1.388 . S
C3333 C3334 1.366 . S
C3334 C3333 1.366 . S
C3334 C3335 1.414 . S
C3334 C3337 1.499 . S
C3335 H3309 0.950 . S
C3335 C3334 1.414 . S
C3335 C3336 1.374 . S
C3336 H3310 0.950 . S
C3336 C3332 1.385 . S
C3336 C3335 1.374 . S
C3337 C3334 1.499 . S
C3337 C3338 1.373 . S
C3337 C3339 1.389 . S
C3338 H3311 0.950 . S
C3338 C3324 1.377 . S
C3338 C3337 1.373 . S
C3339 C3323 1.377 . S
C3339 C3337 1.389 . S
C3339 C3340 1.524 . S
C3340 C3339 1.524 . S
C3340 C3341 1.397 . S
C3340 C3345 1.363 . S
C3341 H3312 0.950 . S
C3341 C3340 1.397 . S
C3341 C3342 1.334 . S
C3342 H3313 0.950 . S
C3342 C3341 1.334 . S
C3342 C3343 1.287 . S
C3343 C3342 1.287 . S
C3343 C3344 1.524 . S
C3343 H3346 0.999 . S
C3344 H3314 0.950 . S
C3344 C3343 1.524 . S
C3344 C3345 1.415 . S
C3345 H3315 0.950 . S
C3345 C3340 1.363 . S
C3345 C3344 1.415 . S
H3346 C3343 0.999 . S
H3347 C3328 0.913 . S
H3348 C3366 0.951 . S
H3349 C3368 0.951 . S
H3350 C3370 0.950 . S
H3351 C3371 0.950 . S
H3352 C3373 0.950 . S
H3353 C3376 0.950 . S
H3354 C3377 0.950 . S
H3355 C3379 0.950 . S
H3356 C3380 0.950 . S
H3357 C3381 0.951 . S
H3358 C3383 0.951 . S
H3359 C3385 0.950 . S
H3360 C3386 0.950 . S
H3361 C3388 0.950 . S
H3362 C3391 0.950 . S
H3363 C3392 0.950 . S
H3364 C3394 0.950 . S
H3365 C3395 0.950 . S
C3366 H3348 0.951 . S
C3366 C3367 1.366 . S
C3366 C3368 1.388 . S
C3367 C3366 1.366 . S
C3367 C3371 1.385 . S
C3368 H3349 0.951 . S
C3368 C3366 1.388 . S
C3368 C3369 1.366 . S
C3369 C3368 1.366 . S
C3369 C3370 1.414 . S
C3369 C3372 1.499 . S
C3370 H3350 0.950 . S
C3370 C3369 1.414 . S
C3370 C3371 1.374 . S
C3371 H3351 0.950 . S
C3371 C3367 1.385 . S
C3371 C3370 1.374 . S
C3372 C3369 1.499 . S
C3372 C3373 1.373 . S
C3372 C3374 1.389 . S
C3373 H3352 0.950 . S
C3373 C3372 1.373 . S
C3373 C3389 1.377 . S
C3374 C3372 1.389 . S
C3374 C3375 1.524 . S
C3374 C3388 1.377 . S
C3375 C3374 1.524 . S
C3375 C3376 1.397 . S
C3375 C3380 1.363 . S
C3376 H3353 0.950 . S
C3376 C3375 1.397 . S
C3376 C3377 1.334 . S
C3377 H3354 0.950 . S
C3377 C3376 1.334 . S
C3377 C3378 1.287 . S
C3378 C3377 1.287 . S
C3378 C3379 1.524 . S
C3378 H3397 0.913 . S
C3379 H3355 0.950 . S
C3379 C3378 1.524 . S
C3379 C3380 1.415 . S
C3380 H3356 0.950 . S
C3380 C3375 1.363 . S
C3380 C3379 1.415 . S
C3381 H3357 0.951 . S
C3381 C3382 1.366 . S
C3381 C3383 1.388 . S
C3382 C3381 1.366 . S
C3382 C3386 1.385 . S
C3383 H3358 0.951 . S
C3383 C3381 1.388 . S
C3383 C3384 1.366 . S
C3384 C3383 1.366 . S
C3384 C3385 1.414 . S
C3384 C3387 1.499 . S
C3385 H3359 0.950 . S
C3385 C3384 1.414 . S
C3385 C3386 1.374 . S
C3386 H3360 0.950 . S
C3386 C3382 1.385 . S
C3386 C3385 1.374 . S
C3387 C3384 1.499 . S
C3387 C3388 1.373 . S
C3387 C3389 1.389 . S
C3388 H3361 0.950 . S
C3388 C3374 1.377 . S
C3388 C3387 1.373 . S
C3389 C3373 1.377 . S
C3389 C3387 1.389 . S
C3389 C3390 1.524 . S
C3390 C3389 1.524 . S
C3390 C3391 1.397 . S
C3390 C3395 1.363 . S
C3391 H3362 0.950 . S
C3391 C3390 1.397 . S
C3391 C3392 1.334 . S
C3392 H3363 0.950 . S
C3392 C3391 1.334 . S
C3392 C3393 1.287 . S
C3393 C3392 1.287 . S
C3393 C3394 1.524 . S
C3393 H3396 0.999 . S
C3394 H3364 0.950 . S
C3394 C3393 1.524 . S
C3394 C3395 1.415 . S
C3395 H3365 0.950 . S
C3395 C3390 1.363 . S
C3395 C3394 1.415 . S
H3396 C3393 0.999 . S
H3397 C3378 0.913 . S
H3398 C3416 0.951 . S
H3399 C3418 0.951 . S
H3400 C3420 0.950 . S
H3401 C3421 0.950 . S
H3402 C3423 0.950 . S
H3403 C3426 0.950 . S
H3404 C3427 0.950 . S
H3405 C3429 0.950 . S
H3406 C3430 0.950 . S
H3407 C3431 0.951 . S
H3408 C3433 0.951 . S
H3409 C3435 0.950 . S
H3410 C3436 0.950 . S
H3411 C3438 0.950 . S
H3412 C3441 0.950 . S
H3413 C3442 0.950 . S
H3414 C3444 0.950 . S
H3415 C3445 0.950 . S
C3416 H3398 0.951 . S
C3416 C3417 1.366 1_565 S
C3416 C3418 1.388 . S
C3417 C3416 1.366 1_545 S
C3417 C3421 1.385 . S
C3418 H3399 0.951 . S
C3418 C3416 1.388 . S
C3418 C3419 1.366 . S
C3419 C3418 1.366 . S
C3419 C3420 1.414 . S
C3419 C3422 1.499 . S
C3420 H3400 0.950 . S
C3420 C3419 1.414 . S
C3420 C3421 1.374 1_565 S
C3421 H3401 0.950 . S
C3421 C3417 1.385 . S
C3421 C3420 1.374 1_545 S
C3422 C3419 1.499 . S
C3422 C3423 1.373 . S
C3422 C3424 1.389 . S
C3423 H3402 0.950 . S
C3423 C3422 1.373 . S
C3423 C3439 1.377 . S
C3424 C3422 1.389 . S
C3424 C3425 1.524 . S
C3424 C3438 1.377 . S
C3425 C3424 1.524 . S
C3425 C3426 1.397 . S
C3425 C3430 1.363 . S
C3426 H3403 0.950 . S
C3426 C3425 1.397 . S
C3426 C3427 1.334 . S
C3427 H3404 0.950 . S
C3427 C3426 1.334 . S
C3427 C3428 1.287 . S
C3428 C3427 1.287 . S
C3428 C3429 1.524 . S
C3428 H3447 0.913 . S
C3429 H3405 0.950 . S
C3429 C3428 1.524 . S
C3429 C3430 1.415 . S
C3430 H3406 0.950 . S
C3430 C3425 1.363 . S
C3430 C3429 1.415 . S
C3431 H3407 0.951 . S
C3431 C3432 1.366 . S
C3431 C3433 1.388 . S
C3432 C3431 1.366 . S
C3432 C3436 1.385 . S
C3433 H3408 0.951 . S
C3433 C3431 1.388 . S
C3433 C3434 1.366 . S
C3434 C3433 1.366 . S
C3434 C3435 1.414 . S
C3434 C3437 1.499 . S
C3435 H3409 0.950 . S
C3435 C3434 1.414 . S
C3435 C3436 1.374 . S
C3436 H3410 0.950 . S
C3436 C3432 1.385 . S
C3436 C3435 1.374 . S
C3437 C3434 1.499 . S
C3437 C3438 1.373 . S
C3437 C3439 1.389 . S
C3438 H3411 0.950 . S
C3438 C3424 1.377 . S
C3438 C3437 1.373 . S
C3439 C3423 1.377 . S
C3439 C3437 1.389 . S
C3439 C3440 1.524 . S
C3440 C3439 1.524 . S
C3440 C3441 1.397 . S
C3440 C3445 1.363 . S
C3441 H3412 0.950 . S
C3441 C3440 1.397 . S
C3441 C3442 1.334 . S
C3442 H3413 0.950 . S
C3442 C3441 1.334 . S
C3442 C3443 1.287 . S
C3443 C3442 1.287 . S
C3443 C3444 1.524 . S
C3443 H3446 0.999 . S
C3444 H3414 0.950 . S
C3444 C3443 1.524 . S
C3444 C3445 1.415 . S
C3445 H3415 0.950 . S
C3445 C3440 1.363 . S
C3445 C3444 1.415 . S
H3446 C3443 0.999 . S
H3447 C3428 0.913 . S
H3448 C3466 0.951 . S
H3449 C3468 0.951 . S
H3450 C3470 0.950 . S
H3451 C3471 0.950 . S
H3452 C3473 0.950 . S
H3453 C3476 0.950 . S
H3454 C3477 0.950 . S
H3455 C3479 0.950 . S
H3456 C3480 0.950 . S
H3457 C3481 0.951 . S
H3458 C3483 0.951 . S
H3459 C3485 0.950 . S
H3460 C3486 0.950 1_565 S
H3461 C3488 0.950 . S
H3462 C3491 0.950 . S
H3463 C3492 0.961 . S
H3464 C3494 0.950 . S
H3465 C3495 0.950 . S
C3466 H3448 0.951 . S
C3466 C3467 1.366 . S
C3466 C3468 1.388 . S
C3467 C3466 1.366 . S
C3467 C3471 1.385 . S
C3468 H3449 0.951 . S
C3468 C3466 1.388 . S
C3468 C3469 1.366 . S
C3469 C3468 1.366 . S
C3469 C3470 1.414 . S
C3469 C3472 1.499 . S
C3470 H3450 0.950 . S
C3470 C3469 1.414 . S
C3470 C3471 1.374 . S
C3471 H3451 0.950 . S
C3471 C3467 1.385 . S
C3471 C3470 1.374 . S
C3472 C3469 1.499 . S
C3472 C3473 1.373 . S
C3472 C3474 1.389 . S
C3473 H3452 0.950 . S
C3473 C3472 1.373 . S
C3473 C3489 1.377 . S
C3474 C3472 1.389 . S
C3474 C3475 1.524 . S
C3474 C3488 1.377 . S
C3475 C3474 1.524 . S
C3475 C3476 1.397 . S
C3475 C3480 1.363 . S
C3476 H3453 0.950 . S
C3476 C3475 1.397 . S
C3476 C3477 1.334 . S
C3477 H3454 0.950 . S
C3477 C3476 1.334 . S
C3477 C3478 1.287 . S
C3478 C3477 1.287 . S
C3478 C3479 1.524 . S
C3478 H3497 0.913 . S
C3479 H3455 0.950 . S
C3479 C3478 1.524 . S
C3479 C3480 1.415 . S
C3480 H3456 0.950 . S
C3480 C3475 1.363 . S
C3480 C3479 1.415 . S
C3481 H3457 0.951 . S
C3481 C3482 1.366 . S
C3481 C3483 1.388 1_565 S
C3482 C3481 1.366 . S
C3482 C3486 1.385 1_565 S
C3483 H3458 0.951 . S
C3483 C3481 1.388 1_545 S
C3483 C3484 1.366 . S
C3484 C3483 1.366 . S
C3484 C3485 1.414 . S
C3484 C3487 1.499 . S
C3485 H3459 0.950 . S
C3485 C3484 1.414 . S
C3485 C3486 1.374 . S
C3486 H3460 0.950 1_545 S
C3486 C3482 1.385 1_545 S
C3486 C3485 1.374 . S
C3487 C3484 1.499 . S
C3487 C3488 1.373 . S
C3487 C3489 1.389 . S
C3488 H3461 0.950 . S
C3488 C3474 1.377 . S
C3488 C3487 1.373 . S
C3489 C3473 1.377 . S
C3489 C3487 1.389 . S
C3489 C3490 1.524 . S
C3490 C3489 1.524 . S
C3490 C3491 1.397 . S
C3490 C3495 1.363 . S
C3491 H3462 0.950 . S
C3491 C3490 1.397 . S
C3491 C3492 1.319 1_545 S
C3492 H3463 0.961 . S
C3492 C3491 1.319 1_565 S
C3492 C3493 1.290 . S
C3493 C3492 1.290 . S
C3493 C3494 1.524 1_565 S
C3493 H3496 0.999 . S
C3494 H3464 0.950 . S
C3494 C3493 1.524 1_545 S
C3494 C3495 1.415 . S
C3495 H3465 0.950 . S
C3495 C3490 1.363 . S
C3495 C3494 1.415 . S
H3496 C3493 0.999 . S
H3497 C3478 0.913 . S
H3498 C3516 0.951 . S
H3499 C3518 0.951 . S
H3500 C3520 0.950 . S
H3501 C3521 0.950 . S
H3502 C3523 0.950 . S
H3503 C3526 0.950 . S
H3504 C3527 0.950 . S
H3505 C3529 0.950 . S
H3506 C3530 0.950 . S
H3507 C3531 0.951 . S
H3508 C3533 0.951 . S
H3509 C3535 0.950 . S
H3510 C3536 0.950 . S
H3511 C3538 0.950 . S
H3512 C3541 0.950 . S
H3513 C3542 0.950 . S
H3514 C3544 0.950 . S
H3515 C3545 0.950 . S
C3516 H3498 0.951 . S
C3516 C3517 1.366 . S
C3516 C3518 1.388 . S
C3517 C3516 1.366 . S
C3517 C3521 1.385 . S
C3518 H3499 0.951 . S
C3518 C3516 1.388 . S
C3518 C3519 1.366 . S
C3519 C3518 1.366 . S
C3519 C3520 1.414 . S
C3519 C3522 1.499 . S
C3520 H3500 0.950 . S
C3520 C3519 1.414 . S
C3520 C3521 1.374 . S
C3521 H3501 0.950 . S
C3521 C3517 1.385 . S
C3521 C3520 1.374 . S
C3522 C3519 1.499 . S
C3522 C3523 1.373 . S
C3522 C3524 1.389 . S
C3523 H3502 0.950 . S
C3523 C3522 1.373 . S
C3523 C3539 1.377 . S
C3524 C3522 1.389 . S
C3524 C3525 1.524 . S
C3524 C3538 1.377 . S
C3525 C3524 1.524 . S
C3525 C3526 1.397 . S
C3525 C3530 1.363 . S
C3526 H3503 0.950 . S
C3526 C3525 1.397 . S
C3526 C3527 1.334 . S
C3527 H3504 0.950 . S
C3527 C3526 1.334 . S
C3527 C3528 1.287 . S
C3528 C3527 1.287 . S
C3528 C3529 1.524 . S
C3528 H3547 0.913 . S
C3529 H3505 0.950 . S
C3529 C3528 1.524 . S
C3529 C3530 1.415 . S
C3530 H3506 0.950 . S
C3530 C3525 1.363 . S
C3530 C3529 1.415 . S
C3531 H3507 0.951 . S
C3531 C3532 1.366 . S
C3531 C3533 1.388 . S
C3532 C3531 1.366 . S
C3532 C3536 1.385 . S
C3533 H3508 0.951 . S
C3533 C3531 1.388 . S
C3533 C3534 1.366 . S
C3534 C3533 1.366 . S
C3534 C3535 1.414 . S
C3534 C3537 1.499 . S
C3535 H3509 0.950 . S
C3535 C3534 1.414 . S
C3535 C3536 1.374 . S
C3536 H3510 0.950 . S
C3536 C3532 1.385 . S
C3536 C3535 1.374 . S
C3537 C3534 1.499 . S
C3537 C3538 1.373 . S
C3537 C3539 1.389 . S
C3538 H3511 0.950 . S
C3538 C3524 1.377 . S
C3538 C3537 1.373 . S
C3539 C3523 1.377 . S
C3539 C3537 1.389 . S
C3539 C3540 1.524 . S
C3540 C3539 1.524 . S
C3540 C3541 1.397 . S
C3540 C3545 1.363 . S
C3541 H3512 0.950 . S
C3541 C3540 1.397 . S
C3541 C3542 1.334 . S
C3542 H3513 0.950 . S
C3542 C3541 1.334 . S
C3542 C3543 1.287 . S
C3543 C3542 1.287 . S
C3543 C3544 1.524 . S
C3543 H3546 0.999 . S
C3544 H3514 0.950 . S
C3544 C3543 1.524 . S
C3544 C3545 1.415 . S
C3545 H3515 0.950 . S
C3545 C3540 1.363 . S
C3545 C3544 1.415 . S
H3546 C3543 0.999 . S
H3547 C3528 0.913 . S
H3548 C3566 0.951 . S
H3549 C3568 0.951 . S
H3550 C3570 0.950 . S
H3551 C3571 0.950 . S
H3552 C3573 0.950 . S
H3553 C3576 0.950 . S
H3554 C3577 0.950 . S
H3555 C3579 0.950 . S
H3556 C3580 0.950 . S
H3557 C3581 0.951 . S
H3558 C3583 0.951 . S
H3559 C3585 0.950 . S
H3560 C3586 0.950 . S
H3561 C3588 0.950 . S
H3562 C3591 0.950 . S
H3563 C3592 0.950 . S
H3564 C3594 0.950 . S
H3565 C3595 0.950 . S
C3566 H3548 0.951 . S
C3566 C3567 1.366 . S
C3566 C3568 1.388 . S
C3567 C3566 1.366 . S
C3567 C3571 1.385 . S
C3568 H3549 0.951 . S
C3568 C3566 1.388 . S
C3568 C3569 1.366 . S
C3569 C3568 1.366 . S
C3569 C3570 1.414 . S
C3569 C3572 1.499 . S
C3570 H3550 0.950 . S
C3570 C3569 1.414 . S
C3570 C3571 1.374 . S
C3571 H3551 0.950 . S
C3571 C3567 1.385 . S
C3571 C3570 1.374 . S
C3572 C3569 1.499 . S
C3572 C3573 1.373 . S
C3572 C3574 1.389 . S
C3573 H3552 0.950 . S
C3573 C3572 1.373 . S
C3573 C3589 1.377 . S
C3574 C3572 1.389 . S
C3574 C3575 1.524 . S
C3574 C3588 1.377 . S
C3575 C3574 1.524 . S
C3575 C3576 1.397 . S
C3575 C3580 1.363 . S
C3576 H3553 0.950 . S
C3576 C3575 1.397 . S
C3576 C3577 1.334 . S
C3577 H3554 0.950 . S
C3577 C3576 1.334 . S
C3577 C3578 1.287 . S
C3578 C3577 1.287 . S
C3578 C3579 1.524 . S
C3578 H3597 0.913 . S
C3579 H3555 0.950 . S
C3579 C3578 1.524 . S
C3579 C3580 1.415 . S
C3580 H3556 0.950 . S
C3580 C3575 1.363 . S
C3580 C3579 1.415 . S
C3581 H3557 0.951 . S
C3581 C3582 1.366 . S
C3581 C3583 1.388 . S
C3582 C3581 1.366 . S
C3582 C3586 1.385 . S
C3583 H3558 0.951 . S
C3583 C3581 1.388 . S
C3583 C3584 1.366 . S
C3584 C3583 1.366 . S
C3584 C3585 1.414 . S
C3584 C3587 1.499 . S
C3585 H3559 0.950 . S
C3585 C3584 1.414 . S
C3585 C3586 1.374 . S
C3586 H3560 0.950 . S
C3586 C3582 1.385 . S
C3586 C3585 1.374 . S
C3587 C3584 1.499 . S
C3587 C3588 1.373 . S
C3587 C3589 1.389 . S
C3588 H3561 0.950 . S
C3588 C3574 1.377 . S
C3588 C3587 1.373 . S
C3589 C3573 1.377 . S
C3589 C3587 1.389 . S
C3589 C3590 1.524 . S
C3590 C3589 1.524 . S
C3590 C3591 1.397 . S
C3590 C3595 1.363 . S
C3591 H3562 0.950 . S
C3591 C3590 1.397 . S
C3591 C3592 1.334 . S
C3592 H3563 0.950 . S
C3592 C3591 1.334 . S
C3592 C3593 1.287 . S
C3593 C3592 1.287 . S
C3593 C3594 1.524 . S
C3593 H3596 0.999 . S
C3594 H3564 0.950 . S
C3594 C3593 1.524 . S
C3594 C3595 1.415 . S
C3595 H3565 0.950 . S
C3595 C3590 1.363 . S
C3595 C3594 1.415 . S
H3596 C3593 0.999 . S
H3597 C3578 0.913 . S
H3598 C3616 0.951 . S
H3599 C3618 0.951 . S
H3600 C3620 0.950 . S
H3601 C3621 0.950 . S
H3602 C3623 0.950 . S
H3603 C3626 0.950 . S
H3604 C3627 0.950 1_565 S
H3605 C3629 0.950 . S
H3606 C3630 0.950 . S
H3607 C3631 0.951 . S
H3608 C3633 0.951 . S
H3609 C3635 0.950 . S
H3610 C3636 0.950 . S
H3611 C3638 0.950 . S
H3612 C3641 0.950 . S
H3613 C3642 0.950 . S
H3614 C3644 0.950 . S
H3615 C3645 0.950 . S
C3616 H3598 0.951 . S
C3616 C3617 1.366 . S
C3616 C3618 1.388 1_565 S
C3617 C3616 1.366 . S
C3617 C3621 1.385 1_565 S
C3618 H3599 0.951 . S
C3618 C3616 1.388 1_545 S
C3618 C3619 1.366 . S
C3619 C3618 1.366 . S
C3619 C3620 1.414 . S
C3619 C3622 1.499 . S
C3620 H3600 0.950 . S
C3620 C3619 1.414 . S
C3620 C3621 1.374 . S
C3621 H3601 0.950 . S
C3621 C3617 1.385 1_545 S
C3621 C3620 1.374 . S
C3622 C3619 1.499 . S
C3622 C3623 1.373 . S
C3622 C3624 1.389 . S
C3623 H3602 0.950 . S
C3623 C3622 1.373 . S
C3623 C3639 1.377 . S
C3624 C3622 1.389 . S
C3624 C3625 1.524 . S
C3624 C3638 1.377 . S
C3625 C3624 1.524 . S
C3625 C3626 1.397 . S
C3625 C3630 1.363 . S
C3626 H3603 0.950 . S
C3626 C3625 1.397 . S
C3626 C3627 1.334 . S
C3627 H3604 0.950 1_545 S
C3627 C3626 1.334 . S
C3627 C3628 1.287 1_545 S
C3628 C3627 1.287 1_565 S
C3628 C3629 1.524 1_565 S
C3628 H3647 0.913 . S
C3629 H3605 0.950 . S
C3629 C3628 1.524 1_545 S
C3629 C3630 1.415 . S
C3630 H3606 0.950 . S
C3630 C3625 1.363 . S
C3630 C3629 1.415 . S
C3631 H3607 0.951 . S
C3631 C3632 1.366 . S
C3631 C3633 1.388 . S
C3632 C3631 1.366 . S
C3632 C3636 1.385 . S
C3633 H3608 0.951 . S
C3633 C3631 1.388 . S
C3633 C3634 1.366 . S
C3634 C3633 1.366 . S
C3634 C3635 1.414 . S
C3634 C3637 1.499 . S
C3635 H3609 0.950 . S
C3635 C3634 1.414 . S
C3635 C3636 1.374 . S
C3636 H3610 0.950 . S
C3636 C3632 1.385 . S
C3636 C3635 1.374 . S
C3637 C3634 1.499 . S
C3637 C3638 1.373 . S
C3637 C3639 1.389 . S
C3638 H3611 0.950 . S
C3638 C3624 1.377 . S
C3638 C3637 1.373 . S
C3639 C3623 1.377 . S
C3639 C3637 1.389 . S
C3639 C3640 1.524 . S
C3640 C3639 1.524 . S
C3640 C3641 1.397 . S
C3640 C3645 1.363 . S
C3641 H3612 0.950 . S
C3641 C3640 1.397 . S
C3641 C3642 1.334 . S
C3642 H3613 0.950 . S
C3642 C3641 1.334 . S
C3642 C3643 1.287 . S
C3643 C3642 1.287 . S
C3643 C3644 1.524 . S
C3643 H3646 0.999 . S
C3644 H3614 0.950 . S
C3644 C3643 1.524 . S
C3644 C3645 1.415 . S
C3645 H3615 0.950 . S
C3645 C3640 1.363 . S
C3645 C3644 1.415 . S
H3646 C3643 0.999 . S
H3647 C3628 0.913 . S
C467 C9 1.367 . S
C482 C23 1.368 . S
C517 C51 1.367 . S
C532 C37 1.368 . S
C567 C65 1.368 . S
C582 C79 1.367 . S
C617 C93 1.367 . S
C632 C107 1.368 . S
C667 C121 1.367 . S
C682 C135 1.368 . S
C717 C149 1.368 . S
C732 C163 1.367 . S
C767 C177 1.368 . S
C782 C191 1.367 . S
C817 C205 1.368 . S
C832 C219 1.367 . S
C867 C247 1.367 . S
C882 C233 1.368 . S
C917 C275 1.368 . S
C932 C261 1.367 . S
C967 C303 1.367 . S
C982 C289 1.368 . S
C1017 C331 1.368 . S
C1032 C317 1.368 . S
C1067 C359 1.368 . S
C1082 C345 1.367 . S
C1117 C387 1.367 . S
C1132 C373 1.368 . S
C1167 C415 1.367 . S
C1182 C401 1.368 . S
C1217 C443 1.367 . S
C1232 C429 1.368 . S
C1267 C8 1.405 . S
C1282 C176 1.405 . S
C1317 C22 1.405 . S
C1332 C302 1.405 . S
C1367 C36 1.405 . S
C1382 C92 1.405 . S
C1417 C50 1.406 . S
C1432 C442 1.406 . S
C1467 C64 1.406 . S
C1482 C120 1.406 . S
C1517 C246 1.406 . S
C1532 C78 1.406 . S
C1567 C386 1.406 . S
C1582 C106 1.406 . S
C1617 C134 1.406 . S
C1632 C414 1.406 . S
C1667 C148 1.405 . S
C1682 C204 1.405 . S
C1717 C162 1.406 . S
C1732 C330 1.406 . S
C1767 C190 1.406 . S
C1782 C358 1.406 . S
C1817 C218 1.406 . S
C1832 C274 1.406 . S
C1867 C400 1.406 . S
C1882 C232 1.406 . S
C1917 C316 1.406 . S
C1932 C260 1.406 . S
C1967 C288 1.405 . S
C1982 C344 1.405 . S
C2017 C428 1.406 . S
C2032 C372 1.406 . S
C2067 C147 0.601 . S
C2082 C7 0.601 . S
C2117 C161 0.602 . S
C2132 C21 0.601 . S
C2167 C35 0.602 . S
C2182 C119 0.601 . S
C2217 C133 0.602 . S
C2232 C49 0.602 . S
C2267 C63 0.602 . S
C2282 C203 0.602 . S
C2317 C77 0.600 . S
C2332 C217 0.601 . S
C2367 C175 0.602 . S
C2382 C91 0.602 . S
C2417 C189 0.601 . S
C2432 C105 0.602 . S
C2467 C231 0.602 . S
C2482 C371 0.600 . S
C2517 C385 0.601 . S
C2532 C245 0.600 . S
C2567 C343 0.600 . S
C2582 C259 0.602 . S
C2617 C273 0.602 . S
C2632 C357 0.602 . S
C2667 C427 0.600 . S
C2682 C287 0.602 . S
C2717 C301 0.600 . S
C2732 C441 0.601 . S
C2767 C399 0.602 . S
C2782 C315 0.602 . S
C2817 C413 0.601 . S
C2832 C329 0.600 . S
C2867 C143 1.597 . S
C2882 C3 1.597 . S
C2917 C157 1.598 . S
C2932 C17 1.597 . S
C2967 C115 1.597 . S
C2982 C31 1.597 . S
C3017 C45 1.597 . S
C3032 C129 1.597 . S
C3067 C199 1.597 . S
C3082 C59 1.597 . S
C3117 C213 1.597 . S
C3132 C73 1.598 . S
C3167 C171 1.597 . S
C3182 C87 1.597 . S
C3217 C185 1.598 . S
C3232 C101 1.597 . S
C3267 C367 1.597 . S
C3282 C227 1.597 . S
C3317 C381 1.597 . S
C3332 C241 1.597 . S
C3367 C339 1.597 . S
C3382 C255 1.597 . S
C3417 C269 1.597 . S
C3432 C353 1.598 . S
C3467 C423 1.597 . S
C3482 C283 1.597 . S
C3517 C297 1.597 . S
C3532 C437 1.598 . S
C3567 C395 1.597 . S
C3582 C311 1.597 . S
C3617 C325 1.597 . S
C3632 C409 1.598 . S
