# Generated by pormake.
# Topology neb, (4)-cn, num edge types: 1
# Building blocks:
#     Node 0, Type 0, BuildingBlock: QUQFOY_clean_sbu_3, # of connection points: 4
#     Node 1, Type 0, BuildingBlock: QUQFOY_clean_sbu_3, # of connection points: 4
#     Node 2, Type 0, BuildingBlock: QUQFOY_clean_sbu_3, # of connection points: 4
#     Node 3, Type 0, BuildingBlock: QUQFOY_clean_sbu_3, # of connection points: 4
#     Node 4, Type 0, BuildingBlock: QUQFOY_clean_sbu_3, # of connection points: 4
#     Node 5, Type 0, BuildingBlock: QUQFOY_clean_sbu_3, # of connection points: 4
#     Node 6, Type 0, BuildingBlock: QUQFOY_clean_sbu_3, # of connection points: 4
#     Node 7, Type 0, BuildingBlock: QUQFOY_clean_sbu_3, # of connection points: 4
#     Node 8, Type 0, BuildingBlock: QUQFOY_clean_sbu_3, # of connection points: 4
#     Node 9, Type 0, BuildingBlock: QUQFOY_clean_sbu_3, # of connection points: 4
#     Node 10, Type 0, BuildingBlock: QUQFOY_clean_sbu_3, # of connection points: 4
#     Node 11, Type 0, BuildingBlock: QUQFOY_clean_sbu_3, # of connection points: 4
#     Node 12, Type 0, BuildingBlock: QUQFOY_clean_sbu_3, # of connection points: 4
#     Node 13, Type 0, BuildingBlock: QUQFOY_clean_sbu_3, # of connection points: 4
#     Node 14, Type 0, BuildingBlock: QUQFOY_clean_sbu_3, # of connection points: 4
#     Node 15, Type 0, BuildingBlock: QUQFOY_clean_sbu_3, # of connection points: 4
#     Edge 16, Type (0, 0), BuildingBlock: TEMPAE_clean_linker_10, # of connection points: 2
#     Edge 17, Type (0, 0), BuildingBlock: TEMPAE_clean_linker_10, # of connection points: 2
#     Edge 18, Type (0, 0), BuildingBlock: TEMPAE_clean_linker_10, # of connection points: 2
#     Edge 19, Type (0, 0), BuildingBlock: TEMPAE_clean_linker_10, # of connection points: 2
#     Edge 20, Type (0, 0), BuildingBlock: TEMPAE_clean_linker_10, # of connection points: 2
#     Edge 21, Type (0, 0), BuildingBlock: TEMPAE_clean_linker_10, # of connection points: 2
#     Edge 22, Type (0, 0), BuildingBlock: TEMPAE_clean_linker_10, # of connection points: 2
#     Edge 23, Type (0, 0), BuildingBlock: TEMPAE_clean_linker_10, # of connection points: 2
#     Edge 24, Type (0, 0), BuildingBlock: TEMPAE_clean_linker_10, # of connection points: 2
#     Edge 25, Type (0, 0), BuildingBlock: TEMPAE_clean_linker_10, # of connection points: 2
#     Edge 26, Type (0, 0), BuildingBlock: TEMPAE_clean_linker_10, # of connection points: 2
#     Edge 27, Type (0, 0), BuildingBlock: TEMPAE_clean_linker_10, # of connection points: 2
#     Edge 28, Type (0, 0), BuildingBlock: TEMPAE_clean_linker_10, # of connection points: 2
#     Edge 29, Type (0, 0), BuildingBlock: TEMPAE_clean_linker_10, # of connection points: 2
#     Edge 30, Type (0, 0), BuildingBlock: TEMPAE_clean_linker_10, # of connection points: 2
#     Edge 31, Type (0, 0), BuildingBlock: TEMPAE_clean_linker_10, # of connection points: 2
#     Edge 32, Type (0, 0), BuildingBlock: TEMPAE_clean_linker_10, # of connection points: 2
#     Edge 33, Type (0, 0), BuildingBlock: TEMPAE_clean_linker_10, # of connection points: 2
#     Edge 34, Type (0, 0), BuildingBlock: TEMPAE_clean_linker_10, # of connection points: 2
#     Edge 35, Type (0, 0), BuildingBlock: TEMPAE_clean_linker_10, # of connection points: 2
#     Edge 36, Type (0, 0), BuildingBlock: TEMPAE_clean_linker_10, # of connection points: 2
#     Edge 37, Type (0, 0), BuildingBlock: TEMPAE_clean_linker_10, # of connection points: 2
#     Edge 38, Type (0, 0), BuildingBlock: TEMPAE_clean_linker_10, # of connection points: 2
#     Edge 39, Type (0, 0), BuildingBlock: TEMPAE_clean_linker_10, # of connection points: 2
#     Edge 40, Type (0, 0), BuildingBlock: TEMPAE_clean_linker_10, # of connection points: 2
#     Edge 41, Type (0, 0), BuildingBlock: TEMPAE_clean_linker_10, # of connection points: 2
#     Edge 42, Type (0, 0), BuildingBlock: TEMPAE_clean_linker_10, # of connection points: 2
#     Edge 43, Type (0, 0), BuildingBlock: TEMPAE_clean_linker_10, # of connection points: 2
#     Edge 44, Type (0, 0), BuildingBlock: TEMPAE_clean_linker_10, # of connection points: 2
#     Edge 45, Type (0, 0), BuildingBlock: TEMPAE_clean_linker_10, # of connection points: 2
#     Edge 46, Type (0, 0), BuildingBlock: TEMPAE_clean_linker_10, # of connection points: 2
#     Edge 47, Type (0, 0), BuildingBlock: TEMPAE_clean_linker_10, # of connection points: 2
# Relax obj value: 0.002
# Max RMSD: 0.027
# Mean RMSD: 0.027
data_MOF--net-neb--node1-QUQFOY_clean_sbu_3--edge1-TEMPAE_clean_linker_10
_symmetry_space_group_name_H-M    P1
_symmetry_Int_Tables_number       1
_symmetry_cell_setting            triclinic
loop_
_symmetry_equiv_pos_as_xyz
'x, y, z'
_cell_length_a     44.108141
_cell_length_b     23.381879
_cell_length_c     80.407134
_cell_angle_alpha  90.014712
_cell_angle_beta   93.681165
_cell_angle_gamma 89.985562
loop_
_atom_site_label
_atom_site_type_symbol
_atom_site_fract_x
_atom_site_fract_y
_atom_site_fract_z
_atom_type_partial_charge
C0 C 0.1995 0.09584 0.4396 0.0
O1 O 0.21029 0.07927 0.42616 0.0
Cd2 Cd 0.18239 0.02029 0.40563 0.0
O3 O 0.17235 0.08387 0.44271 0.0
Cd4 Cd 0.12832 0.03754 0.42844 0.0
C5 C 0.12695 0.11475 0.39299 0.0
O6 O 0.15007 0.94996 0.41712 0.0
O7 O 0.10515 0.97648 0.40767 0.0
O8 O 0.10875 -0.00946 0.45245 0.0
C9 C 0.12608 0.93928 0.40799 0.0
O10 O 0.14934 0.08411 0.38918 0.0
C11 C 0.08599 0.02337 0.4533 0.0
O12 O 0.11649 0.1112 0.40737 0.0
O13 O 0.08325 0.06386 0.44279 0.0
C14 C 0.06002 0.09696 0.78068 0.0
O15 O 0.04435 0.06684 0.79006 0.0
Cd16 Cd 0.06801 0.0115 0.81286 0.0
O17 O 0.08884 0.09404 0.78181 0.0
Cd18 Cd 0.12935 0.04053 0.7971 0.0
C19 C 0.11624 0.11082 0.83211 0.0
O20 O 0.10662 0.94862 0.80417 0.0
O21 O 0.14725 0.97623 0.81854 0.0
O22 O 0.1531 0.0012 0.77346 0.0
C23 C 0.12755 0.93759 0.81535 0.0
O24 O 0.09295 0.07873 0.83261 0.0
C25 C 0.17693 0.03153 0.77519 0.0
O26 O 0.13287 0.10932 0.81973 0.0
O27 O 0.17848 0.06787 0.78697 0.0
C28 C 0.8031 0.87992 0.53602 0.0
O29 O 0.78858 0.89918 0.54796 0.0
Cd30 Cd 0.81133 0.95799 0.57015 0.0
O31 O 0.83123 0.89048 0.53524 0.0
Cd32 Cd 0.87147 0.94031 0.55195 0.0
C33 C 0.86285 0.86058 0.58605 0.0
O34 O 0.84554 0.02839 0.56043 0.0
O35 O 0.88885 0.00666 0.57292 0.0
O36 O 0.89242 0.96752 0.52582 0.0
C37 C 0.86716 0.04194 0.57091 0.0
O38 O 0.84015 0.89254 0.58844 0.0
C39 C 0.91929 0.95159 0.53016 0.0
O40 O 0.87679 0.8643 0.5727 0.0
O41 O 0.92376 0.92944 0.54452 0.0
C42 C 0.92875 0.88717 0.19768 0.0
O43 O 0.94575 0.91805 0.18924 0.0
Cd44 Cd 0.92378 0.97408 0.16613 0.0
O45 O 0.90005 0.89137 0.19564 0.0
Cd46 Cd 0.86218 0.95059 0.18018 0.0
C47 C 0.87611 0.87544 0.14648 0.0
O48 O 0.88688 0.04271 0.17402 0.0
O49 O 0.84697 0.01651 0.15885 0.0
O50 O 0.8403 0.97313 0.20629 0.0
C51 C 0.86652 0.05479 0.16261 0.0
O52 O 0.89953 0.90716 0.14595 0.0
C53 C 0.8134 0.95937 0.20128 0.0
O54 O 0.85908 0.87854 0.15863 0.0
O55 O 0.8093 0.94024 0.18653 0.0
C56 C 0.18723 0.60155 0.9488 0.0
O57 O 0.2047 0.57012 0.9408 0.0
Cd58 Cd 0.18428 0.51424 0.91732 0.0
O59 O 0.1586 0.59803 0.94614 0.0
Cd60 Cd 0.12136 0.53928 0.93 0.0
C61 C 0.13829 0.61388 0.89674 0.0
O62 O 0.14632 0.44695 0.92453 0.0
O63 O 0.10742 0.47294 0.90852 0.0
O64 O 0.09811 0.51813 0.95579 0.0
C65 C 0.12679 0.43475 0.91271 0.0
O66 O 0.16164 0.58172 0.8968 0.0
C67 C 0.07137 0.53101 0.95026 0.0
O68 O 0.12018 0.6112 0.90842 0.0
O69 O 0.06796 0.54911 0.93537 0.0
C70 C 0.01972 0.59773 0.27896 0.0
O71 O 0.00612 0.57971 0.29137 0.0
Cd72 Cd 0.03039 0.52126 0.31325 0.0
O73 O 0.04757 0.58612 0.27755 0.0
Cd74 Cd 0.08799 0.53632 0.29404 0.0
C75 C 0.08268 0.61804 0.32795 0.0
O76 O 0.06336 0.44792 0.30368 0.0
O77 O 0.10646 0.47388 0.31563 0.0
O78 O 0.10929 0.50589 0.26814 0.0
C79 C 0.08569 0.43663 0.31397 0.0
O80 O 0.0604 0.58619 0.33118 0.0
C81 C 0.13592 0.52338 0.27241 0.0
O82 O 0.09501 0.61384 0.31412 0.0
O83 O 0.13989 0.54788 0.28646 0.0
C84 C 0.7844 0.39012 0.03284 0.0
O85 O 0.76956 0.42079 0.0425 0.0
Cd86 Cd 0.79568 0.47637 0.06454 0.0
O87 O 0.81317 0.3933 0.03316 0.0
Cd88 Cd 0.85452 0.44892 0.04688 0.0
C89 C 0.84631 0.3784 0.08236 0.0
O90 O 0.8326 0.54101 0.05477 0.0
O91 O 0.87453 0.51298 0.06781 0.0
O92 O 0.87462 0.48742 0.02199 0.0
C93 C 0.85473 0.55185 0.06526 0.0
O94 O 0.82302 0.41001 0.08366 0.0
C95 C 0.89909 0.45875 0.02321 0.0
O96 O 0.86133 0.38007 0.06936 0.0
O97 O 0.90258 0.42381 0.03529 0.0
C98 C 0.95818 0.37938 0.70083 0.0
O99 O 0.97084 0.39755 0.68812 0.0
Cd100 Cd 0.94611 0.45692 0.66666 0.0
O101 O 0.93048 0.3907 0.70286 0.0
Cd102 Cd 0.88836 0.43904 0.68721 0.0
C103 C 0.89191 0.3625 0.65186 0.0
O104 O 0.91234 0.52619 0.67718 0.0
O105 O 0.86848 0.5016 0.66576 0.0
O106 O 0.86665 0.48601 0.71056 0.0
C107 C 0.88981 0.53795 0.66708 0.0
O108 O 0.9149 0.39321 0.64911 0.0
C109 C 0.84306 0.45493 0.71036 0.0
O110 O 0.8793 0.36576 0.66566 0.0
O111 O 0.84081 0.41508 0.69961 0.0
C112 C 0.68404 0.10745 0.95256 0.0
O113 O 0.69862 0.0855 0.94103 0.0
Cd114 Cd 0.67576 0.0249 0.91929 0.0
O115 O 0.65571 0.09868 0.9532 0.0
Cd116 Cd 0.61541 0.04825 0.93661 0.0
C117 C 0.62605 0.12271 0.90174 0.0
O118 O 0.64 0.95765 0.92912 0.0
O119 O 0.59775 0.98155 0.91583 0.0
O120 O 0.59353 0.02239 0.96257 0.0
C121 C 0.61856 0.94478 0.91843 0.0
O122 O 0.64846 0.08933 0.90004 0.0
C123 C 0.56693 0.03931 0.95802 0.0
O124 O 0.61153 0.12171 0.91494 0.0
O125 O 0.56311 0.06198 0.94369 0.0
C126 C 0.53178 0.10022 0.29113 0.0
O127 O 0.52098 0.08144 0.30432 0.0
Cd128 Cd 0.55004 0.02263 0.32446 0.0
O129 O 0.5592 0.09038 0.28814 0.0
Cd130 Cd 0.60359 0.04488 0.3022 0.0
C131 C 0.60335 0.11984 0.33796 0.0
O132 O 0.58361 0.9546 0.31278 0.0
O133 O 0.62778 0.98401 0.32264 0.0
O134 O 0.62246 0.00075 0.27768 0.0
C135 C 0.60785 0.9449 0.32181 0.0
O136 O 0.58155 0.0873 0.34151 0.0
C137 C 0.64553 0.0329 0.27712 0.0
O138 O 0.61402 0.11809 0.3236 0.0
O139 O 0.64874 0.07212 0.28803 0.0
C140 C 0.27651 0.87985 0.03372 0.0
O141 O 0.26294 0.89646 0.0463 0.0
Cd142 Cd 0.28837 0.94538 0.06973 0.0
O143 O 0.30484 0.88823 0.03295 0.0
Cd144 Cd 0.34666 0.92855 0.05073 0.0
C145 C 0.33788 0.84033 0.08303 0.0
O146 O 0.32544 0.01526 0.06283 0.0
O147 O 0.36653 0.97888 0.07474 0.0
O148 O 0.37079 0.98194 0.02944 0.0
C149 C 0.34752 0.01959 0.07376 0.0
O150 O 0.3153 0.8719 0.08595 0.0
C151 C 0.39375 0.94945 0.02904 0.0
O152 O 0.3523 0.84769 0.06996 0.0
O153 O 0.3946 0.9059 0.0385 0.0
C154 C 0.46137 0.87302 0.69558 0.0
O155 O 0.47541 0.88968 0.68318 0.0
Cd156 Cd 0.45011 0.93996 0.65999 0.0
O157 O 0.43318 0.88304 0.69627 0.0
Cd158 Cd 0.39259 0.92919 0.67885 0.0
C159 C 0.39836 0.83783 0.64741 0.0
O160 O 0.41602 0.01534 0.66711 0.0
O161 O 0.37442 0.98195 0.65509 0.0
O162 O 0.37364 0.96832 0.70427 0.0
C163 C 0.39406 0.0214 0.65619 0.0
O164 O 0.42103 0.86836 0.64398 0.0
C165 C 0.34642 0.95245 0.70091 0.0
O166 O 0.38498 0.84616 0.66078 0.0
O167 O 0.34085 0.92472 0.6875 0.0
C168 C 0.70666 0.60455 0.45224 0.0
O169 O 0.72236 0.57505 0.44271 0.0
Cd170 Cd 0.69775 0.5224 0.41963 0.0
O171 O 0.67787 0.60115 0.45119 0.0
Cd172 Cd 0.63812 0.54561 0.436 0.0
C173 C 0.64904 0.62361 0.40238 0.0
O174 O 0.66138 0.4537 0.42811 0.0
O175 O 0.62046 0.48263 0.41435 0.0
O176 O 0.6161 0.5211 0.4621 0.0
C177 C 0.63994 0.44348 0.41714 0.0
O178 O 0.67195 0.59145 0.40062 0.0
C179 C 0.58959 0.53812 0.45735 0.0
O180 O 0.63377 0.61967 0.41522 0.0
O181 O 0.586 0.55973 0.44288 0.0
C182 C 0.55344 0.60823 0.78361 0.0
O183 O 0.53634 0.5789 0.79242 0.0
Cd184 Cd 0.55697 0.5255 0.81632 0.0
O185 O 0.58215 0.60466 0.78586 0.0
Cd186 Cd 0.62003 0.54838 0.8025 0.0
C187 C 0.60474 0.62532 0.83571 0.0
O188 O 0.59444 0.45774 0.80903 0.0
O189 O 0.63424 0.48321 0.82436 0.0
O190 O 0.64305 0.52291 0.77688 0.0
C191 C 0.61408 0.44585 0.82081 0.0
O192 O 0.58125 0.59369 0.83607 0.0
C193 C 0.66979 0.53713 0.78206 0.0
O194 O 0.62222 0.62189 0.82375 0.0
O195 O 0.67328 0.55794 0.79665 0.0
C196 C 0.29591 0.37279 0.52251 0.0
O197 O 0.27846 0.39448 0.53276 0.0
Cd198 Cd 0.29916 0.43838 0.55833 0.0
O199 O 0.32446 0.37936 0.52461 0.0
Cd200 Cd 0.36071 0.4293 0.54378 0.0
C201 C 0.34935 0.33729 0.5742 0.0
O202 O 0.33525 0.51374 0.55506 0.0
O203 O 0.37368 0.47665 0.5694 0.0
O204 O 0.38772 0.48499 0.52396 0.0
C205 C 0.35465 0.5171 0.56746 0.0
O206 O 0.32479 0.36494 0.57577 0.0
C207 C 0.41161 0.45465 0.52524 0.0
O208 O 0.3662 0.34848 0.56236 0.0
O209 O 0.41169 0.41194 0.53499 0.0
C210 C 0.43289 0.37687 0.20905 0.0
O211 O 0.45044 0.4005 0.19921 0.0
Cd212 Cd 0.43041 0.44339 0.17336 0.0
O213 O 0.40427 0.38085 0.20641 0.0
Cd214 Cd 0.36756 0.42754 0.18678 0.0
C215 C 0.38425 0.33709 0.15673 0.0
O216 O 0.39179 0.51431 0.17627 0.0
O217 O 0.35446 0.4761 0.1613 0.0
O218 O 0.33836 0.47931 0.20644 0.0
C219 C 0.37287 0.51738 0.16365 0.0
O220 O 0.40805 0.36741 0.15561 0.0
C221 C 0.31517 0.44723 0.20469 0.0
O222 O 0.36614 0.34656 0.16812 0.0
O223 O 0.31646 0.40525 0.19473 0.0
C224 C 0.25383 0.34231 0.50206 0.0
C225 C 0.28354 0.33522 0.50897 0.0
C226 C 0.24159 0.30439 0.48985 0.0
C227 C 0.25918 0.25734 0.48491 0.0
C228 C 0.28929 0.25035 0.49176 0.0
C229 C 0.30125 0.28989 0.50353 0.0
C230 C 0.20968 0.3141 0.48244 0.0
C231 C 0.30844 0.19985 0.4872 0.0
C232 C 0.21414 0.12908 0.46837 0.0
C233 C 0.21734 0.13343 0.4512 0.0
C234 C 0.22849 0.16811 0.47952 0.0
C235 C 0.24553 0.21372 0.47326 0.0
C236 C 0.24908 0.21797 0.45592 0.0
C237 C 0.2353 0.17709 0.4451 0.0
C238 C 0.22503 0.161 0.49797 0.0
C239 C 0.26641 0.26685 0.44875 0.0
H240 H 0.24018 0.37752 0.50619 0.0
H241 H 0.32416 0.28393 0.50899 0.0
H242 H 0.20937 0.31362 0.46863 0.0
H243 H 0.19467 0.27901 0.48623 0.0
H244 H 0.20008 0.35539 0.48649 0.0
H245 H 0.33175 0.2016 0.49329 0.0
H246 H 0.29746 0.1596 0.49097 0.0
H247 H 0.31016 0.19792 0.47351 0.0
H248 H 0.20025 0.09517 0.47306 0.0
H249 H 0.23738 0.18087 0.43178 0.0
H250 H 0.21221 0.1977 0.50272 0.0
H251 H 0.24769 0.16062 0.50482 0.0
H252 H 0.21289 0.12094 0.50086 0.0
H253 H 0.25533 0.30797 0.45166 0.0
H254 H 0.26751 0.26339 0.43503 0.0
H255 H 0.2899 0.2684 0.45454 0.0
C256 C 0.97407 0.96794 0.52609 0.0
C257 C 0.94437 0.96016 0.51921 0.0
C258 C -0.00203 0.97907 0.51587 0.0
C259 C 0.99205 0.98065 0.49837 0.0
C260 C 0.96219 0.97146 0.49135 0.0
C261 C 0.93857 0.96221 0.5019 0.0
C262 C 0.02938 -0.00982 0.52381 0.0
C263 C 0.9552 0.97125 0.47271 0.0
C264 C 0.04525 0.05834 0.47084 0.0
C265 C 0.06302 0.01318 0.46545 0.0
C266 C 0.02261 0.04859 0.48198 0.0
C267 C 0.01708 -0.00789 0.48736 0.0
C268 C 0.03499 0.94637 0.48193 0.0
C269 C 0.0581 0.95763 0.47122 0.0
C270 C 0.0045 0.09861 0.4879 0.0
C271 C 0.02921 0.8854 0.48706 0.0
H272 H 0.97847 0.96689 0.53951 0.0
H273 H 0.91559 0.95586 0.49659 0.0
H274 H 0.04563 0.95819 0.51941 0.0
H275 H 0.0374 0.03293 0.52001 0.0
H276 H 0.03003 0.98845 0.53763 0.0
H277 H 0.93103 0.96092 0.46926 0.0
H278 H 0.96039 0.01373 0.46746 0.0
H279 H 0.96978 0.93946 0.46679 0.0
H280 H 0.04922 0.10135 0.46644 0.0
H281 H 0.07169 0.92262 0.46691 0.0
H282 H 0.0055 0.09951 0.50173 0.0
H283 H 0.98029 0.09388 0.4835 0.0
H284 H 0.01292 0.14019 0.48336 0.0
H285 H 0.03138 0.88154 0.50083 0.0
H286 H 0.04518 0.85475 0.4817 0.0
H287 H 0.00565 0.87292 0.48293 0.0
C288 C 0.29275 0.97758 0.70511 0.0
C289 C 0.32219 0.9667 0.71192 0.0
C290 C 0.26942 -0.00799 0.71538 0.0
C291 C 0.27556 -0.00658 0.73287 0.0
C292 C 0.30529 0.98218 0.7398 0.0
C293 C 0.32844 0.96994 0.72918 0.0
C294 C 0.23821 0.00545 0.70752 0.0
C295 C 0.31242 0.98145 0.75842 0.0
C296 C 0.2207 0.06824 0.76017 0.0
C297 C 0.20219 0.02261 0.76442 0.0
C298 C 0.24454 0.05961 0.74969 0.0
C299 C 0.25049 0.00372 0.74392 0.0
C300 C 0.2322 0.95737 0.74854 0.0
C301 C 0.2079 0.9676 0.7585 0.0
C302 C 0.263 0.11026 0.74456 0.0
C303 C 0.23842 0.89691 0.74305 0.0
H304 H 0.28809 0.97575 0.69172 0.0
H305 H 0.35127 0.96127 0.73439 0.0
H306 H 0.22178 0.97251 0.71112 0.0
H307 H 0.23022 0.04722 0.71213 0.0
H308 H 0.23786 0.00702 0.6937 0.0
H309 H 0.33676 0.97231 0.76178 0.0
H310 H 0.30654 0.0232 0.76391 0.0
H311 H 0.29842 0.94839 0.7642 0.0
H312 H 0.21609 0.11081 0.76473 0.0
H313 H 0.19372 0.93223 0.76198 0.0
H314 H 0.2617 0.11386 0.73077 0.0
H315 H 0.28725 0.10413 0.74869 0.0
H316 H 0.25502 0.15106 0.74986 0.0
H317 H 0.23558 0.89381 0.72928 0.0
H318 H 0.22304 0.86534 0.74849 0.0
H319 H 0.26226 0.88503 0.74677 0.0
C320 C 0.0165 0.12692 0.76112 0.0
C321 C 0.04514 0.13828 0.76895 0.0
C322 C 0.00261 0.16621 0.74982 0.0
C323 C 0.01733 0.21873 0.74679 0.0
C324 C 0.04598 0.23075 0.75494 0.0
C325 C 0.05976 0.18995 0.76572 0.0
C326 C 0.9724 0.15131 0.741 0.0
C327 C 0.06194 0.28696 0.75245 0.0
C328 C -0.00388 0.30221 0.70725 0.0
C329 C 0.9748 0.34107 0.71279 0.0
C330 C 0.00987 0.26161 0.71815 0.0
C331 C 0.0028 0.26122 0.73508 0.0
C332 C 0.98198 0.30163 0.74084 0.0
C333 C 0.96784 0.3405 0.72955 0.0
C334 C 0.03139 0.21828 0.71146 0.0
C335 C 0.97462 0.30374 0.75892 0.0
H336 H 0.00528 0.08683 0.76358 0.0
H337 H 0.08177 0.19907 0.77194 0.0
H338 H 0.95495 0.1829 0.74421 0.0
H339 H 0.97418 0.15335 0.7273 0.0
H340 H 0.96449 0.10793 0.74431 0.0
H341 H 0.08364 0.29039 0.76019 0.0
H342 H 0.06684 0.29203 0.73917 0.0
H343 H 0.04698 0.32298 0.75563 0.0
H344 H 0.00119 0.30213 0.69423 0.0
H345 H 0.95138 0.3707 0.73384 0.0
H346 H 0.023 0.17438 0.71371 0.0
H347 H 0.05411 0.22208 0.71811 0.0
H348 H 0.03396 0.22362 0.69789 0.0
H349 H 0.96384 0.26305 0.76245 0.0
H350 H 0.95906 0.33956 0.76152 0.0
H351 H -0.00418 0.30859 0.767 0.0
C352 C 0.79703 0.84208 0.50704 0.0
C353 C 0.78792 0.84209 0.52341 0.0
C354 C 0.78394 0.80425 0.49509 0.0
C355 C 0.76201 0.76425 0.49983 0.0
C356 C 0.75287 0.76387 0.5164 0.0
C357 C 0.7656 0.80352 0.52794 0.0
C358 C 0.79349 0.80723 0.47741 0.0
C359 C 0.73011 0.72088 0.52201 0.0
C360 C 0.70719 0.69745 0.46719 0.0
C361 C 0.72142 0.6452 0.46419 0.0
C362 C 0.72053 0.73714 0.47847 0.0
C363 C 0.74826 0.7233 0.48739 0.0
C364 C 0.76263 0.6703 0.48451 0.0
C365 C 0.74926 0.63219 0.47268 0.0
C366 C 0.70503 0.79395 0.48078 0.0
C367 C 0.79178 0.65347 0.49413 0.0
H368 H 0.81425 0.87209 0.50354 0.0
H369 H 0.75887 0.80304 0.54067 0.0
H370 H 0.80404 0.76621 0.47396 0.0
H371 H 0.77328 0.81391 0.46868 0.0
H372 H 0.80996 0.84231 0.47563 0.0
H373 H 0.72624 0.72504 0.53547 0.0
H374 H 0.70807 0.72638 0.51475 0.0
H375 H 0.73818 0.67685 0.51962 0.0
H376 H 0.68579 0.70774 0.46046 0.0
H377 H 0.76013 0.59159 0.4704 0.0
H378 H 0.72095 0.82945 0.47851 0.0
H379 H 0.69843 0.79814 0.4938 0.0
H380 H 0.68437 0.79913 0.47226 0.0
H381 H 0.80993 0.68478 0.49184 0.0
H382 H 0.79967 0.61019 0.49068 0.0
H383 H 0.78847 0.65413 0.50769 0.0
C384 C 0.67212 0.96785 0.25843 0.0
C385 C 0.66844 0.02284 0.26493 0.0
C386 C 0.69523 0.95623 0.24776 0.0
C387 C 0.71449 0.00111 0.24315 0.0
C388 C 0.71022 0.05716 0.24925 0.0
C389 C 0.68747 0.0672 0.26031 0.0
C390 C 0.69963 0.89564 0.24184 0.0
C391 C 0.72985 0.10634 0.24423 0.0
C392 C 0.79288 0.96637 0.22931 0.0
C393 C 0.78789 0.96755 0.21195 0.0
C394 C 0.76899 0.97609 0.23963 0.0
C395 C 0.73971 0.98902 0.23235 0.0
C396 C 0.7346 -0.0095 0.2148 0.0
C397 C 0.75872 0.97886 0.20478 0.0
C398 C 0.77506 0.97254 0.25831 0.0
C399 C 0.70385 0.00555 0.20663 0.0
H400 H 0.65756 0.9334 0.26214 0.0
H401 H 0.68448 0.10979 0.26528 0.0
H402 H 0.69812 0.89409 0.22803 0.0
H403 H 0.72264 0.88035 0.24613 0.0
H404 H 0.68254 0.86575 0.2465 0.0
H405 H 0.72224 0.14793 0.24918 0.0
H406 H 0.75374 0.09893 0.24888 0.0
H407 H 0.72954 0.10921 0.23044 0.0
H408 H 0.81545 0.95732 0.23483 0.0
H409 H 0.75498 0.98034 0.19133 0.0
H410 H 0.75932 0.94139 0.26359 0.0
H411 H 0.77081 0.01468 0.26405 0.0
H412 H 0.79878 0.9594 0.26193 0.0
H413 H 0.68652 0.97465 0.21042 0.0
H414 H 0.70379 0.00561 0.19281 0.0
H415 H 0.69684 0.04852 0.21082 0.0
C416 C 0.92608 0.79329 0.21201 0.0
C417 C 0.94191 0.84423 0.20948 0.0
C418 C 0.93808 0.7513 0.22298 0.0
C419 C 0.96614 0.7613 0.23203 0.0
C420 C 0.98207 0.81302 0.22969 0.0
C421 C 0.96997 0.85357 0.2182 0.0
C422 C 0.92088 0.69599 0.22475 0.0
C423 C 0.01169 0.82575 0.23944 0.0
C424 C 0.98264 0.67571 0.27172 0.0
C425 C 0.00412 0.63625 0.26667 0.0
C426 C 0.97022 0.71699 0.26059 0.0
C427 C 0.97883 0.71751 0.24392 0.0
C428 C -0.00034 0.6763 0.23862 0.0
C429 C 0.01245 0.63672 0.25015 0.0
C430 C 0.94861 0.76108 0.26679 0.0
C431 C 0.00864 0.67431 0.22082 0.0
H432 H 0.90451 0.78575 0.20512 0.0
H433 H 0.98212 0.89311 0.21631 0.0
H434 H 0.93555 0.65922 0.22186 0.0
H435 H 0.91459 0.69069 0.2378 0.0
H436 H 0.89984 0.69421 0.2164 0.0
H437 H 0.02069 0.86877 0.23658 0.0
H438 H 0.0085 0.82328 0.253 0.0
H439 H 0.02896 0.79326 0.23663 0.0
H440 H 0.9765 0.67583 0.28457 0.0
H441 H 0.02901 0.60605 0.24624 0.0
H442 H 0.92653 0.75903 0.2594 0.0
H443 H 0.95799 0.8046 0.26512 0.0
H444 H 0.94443 0.75506 0.28016 0.0
H445 H 0.98806 0.67128 0.21217 0.0
H446 H 0.02374 0.63752 0.2185 0.0
H447 H 0.02059 0.71433 0.21778 0.0
C448 C 0.26965 0.84632 0.0043 0.0
C449 C 0.26036 0.84523 0.02064 0.0
C450 C 0.25685 0.80896 -0.00786 0.0
C451 C 0.235 0.76837 -0.00339 0.0
C452 C 0.22518 0.76774 0.01303 0.0
C453 C 0.23767 0.80685 0.02481 0.0
C454 C 0.26714 0.81219 0.97461 0.0
C455 C 0.20243 0.72423 0.01836 0.0
C456 C 0.18418 0.69532 0.96321 0.0
C457 C 0.19984 0.64401 0.96092 0.0
C458 C 0.19566 0.73667 0.97456 0.0
C459 C 0.22297 0.7256 0.98421 0.0
C460 C 0.23875 0.67357 0.98206 0.0
C461 C 0.22722 0.6337 0.97022 0.0
C462 C 0.1787 0.79235 0.97612 0.0
C463 C 0.26757 0.6597 -0.00756 0.0
H464 H 0.28715 0.87615 0.00107 0.0
H465 H 0.23077 0.80547 0.0375 0.0
H466 H 0.27936 0.7724 0.97163 0.0
H467 H 0.24719 0.8158 0.96553 0.0
H468 H 0.28245 0.84913 0.97287 0.0
H469 H 0.19689 0.72996 0.03154 0.0
H470 H 0.18111 0.72723 0.01031 0.0
H471 H 0.21161 0.68047 0.01685 0.0
H472 H 0.16315 0.70361 0.95587 0.0
H473 H 0.23923 0.59388 0.9685 0.0
H474 H 0.19393 0.82886 0.9738 0.0
H475 H 0.17128 0.7972 0.98896 0.0
H476 H 0.15837 0.7951 0.96725 0.0
H477 H 0.28529 0.69195 0.99022 0.0
H478 H 0.27656 0.61665 0.98959 0.0
H479 H 0.26328 0.66152 0.00588 0.0
C480 C 0.04906 0.52784 0.97786 0.0
C481 C 0.04531 0.52281 0.96051 0.0
C482 C 0.02466 0.51814 0.98783 0.0
C483 C -0.00376 0.50112 0.98024 0.0
C484 C 0.99243 0.4956 0.9627 0.0
C485 C 0.01695 0.50748 0.953 0.0
C486 C 0.02928 0.5262 0.00646 0.0
C487 C 0.96268 0.47599 0.95424 0.0
C488 C 0.94372 0.42477 0.00844 0.0
C489 C 0.92305 0.46823 0.01161 0.0
C490 C 0.96719 0.43436 -0.0022 0.0
C491 C 0.9705 0.48924 0.9907 0.0
C492 C 0.94966 0.53327 -0.00609 0.0
C493 C 0.92586 0.52192 0.00414 0.0
C494 C 0.98851 0.38597 -0.00575 0.0
C495 C 0.953 0.59275 0.98693 0.0
H496 H 0.07102 0.53997 0.98362 0.0
H497 H 0.01423 0.50298 0.93957 0.0
H498 H 0.01232 0.55696 0.0108 0.0
H499 H 0.02573 0.48505 0.01291 0.0
H500 H 0.0524 0.54221 0.01029 0.0
H501 H 0.96368 0.47274 0.9405 0.0
H502 H 0.95645 0.43354 0.95916 0.0
H503 H 0.94425 0.50614 0.95699 0.0
H504 H 0.94139 0.38316 0.01417 0.0
H505 H 0.91 0.55571 0.00674 0.0
H506 H 0.01187 0.39654 -0.00077 0.0
H507 H 0.98933 0.37994 0.98059 0.0
H508 H 0.98161 0.34498 -0.00012 0.0
H509 H 0.97538 0.61078 -0.00869 0.0
H510 H 0.93488 0.62219 0.99068 0.0
H511 H 0.95233 0.59121 0.97313 0.0
C512 C 0.28074 0.51475 0.21814 0.0
C513 C 0.28791 0.45861 0.21377 0.0
C514 C 0.25494 0.52644 0.22686 0.0
C515 C 0.23657 0.48061 0.23177 0.0
C516 C 0.24377 0.42376 0.22739 0.0
C517 C 0.26916 0.41352 0.21818 0.0
C518 C 0.24746 0.58773 0.2309 0.0
C519 C 0.22519 0.3737 0.23284 0.0
C520 C 0.1909 0.50717 0.26931 0.0
C521 C 0.1615 0.51356 0.26188 0.0
C522 C 0.21546 0.49549 0.25964 0.0
C523 C 0.21057 0.49198 0.2421 0.0
C524 C 0.18098 0.49952 0.23451 0.0
C525 C 0.15663 0.5093 0.24455 0.0
C526 C 0.24656 0.48616 0.26822 0.0
C527 C 0.17512 0.49774 0.21581 0.0
H528 H 0.29512 0.54966 0.21455 0.0
H529 H 0.27486 0.37007 0.21485 0.0
H530 H 0.22367 0.59757 0.2265 0.0
H531 H 0.24935 0.59423 0.24459 0.0
H532 H 0.26279 0.61858 0.22512 0.0
H533 H 0.23377 0.33219 0.22833 0.0
H534 H 0.22558 0.37243 0.24665 0.0
H535 H 0.20114 0.3787 0.22815 0.0
H536 H 0.19457 0.50988 0.28275 0.0
H537 H 0.13386 0.51455 0.23883 0.0
H538 H 0.26261 0.51894 0.26409 0.0
H539 H 0.25552 0.44377 0.26471 0.0
H540 H 0.24625 0.48823 0.28201 0.0
H541 H 0.1895 0.52996 0.20993 0.0
H542 H 0.15095 0.50627 0.21186 0.0
H543 H 0.18145 0.45524 0.21098 0.0
C544 C 0.72219 0.18343 0.95989 0.0
C545 C 0.69948 0.14638 0.96479 0.0
C546 C 0.73531 0.224 0.97102 0.0
C547 C 0.72618 0.2261 0.98758 0.0
C548 C 0.70382 0.18764 -0.0073 0.0
C549 C 0.69032 0.14888 0.98114 0.0
C550 C 0.75851 0.2653 0.96497 0.0
C551 C 0.69428 0.1872 0.01041 0.0
C552 C 0.78221 0.29484 0.01923 0.0
C553 C 0.76873 0.34822 0.02164 0.0
C554 C 0.76814 0.2541 0.00855 0.0
C555 C 0.74045 0.26793 -0.0004 0.0
C556 C 0.72677 0.32198 0.00193 0.0
C557 C 0.74084 0.36121 0.01319 0.0
C558 C 0.78292 0.19627 0.00685 0.0
C559 C 0.69769 0.33881 -0.00776 0.0
H560 H 0.72897 0.18198 0.94717 0.0
H561 H 0.67279 0.12004 0.98493 0.0
H562 H 0.75102 0.30994 0.96699 0.0
H563 H 0.78055 0.25954 0.97222 0.0
H564 H 0.76221 0.25952 0.95154 0.0
H565 H 0.6774 0.15314 0.01253 0.0
H566 H 0.71443 0.1806 0.01919 0.0
H567 H 0.68425 0.2291 0.01347 0.0
H568 H 0.80365 0.28461 0.02594 0.0
H569 H 0.73055 0.40267 0.01502 0.0
H570 H 0.7896 0.1902 -0.0061 0.0
H571 H 0.76653 0.16186 0.00941 0.0
H572 H 0.80344 0.19111 0.01547 0.0
H573 H 0.70089 0.33664 0.97867 0.0
H574 H 0.69022 0.38271 -0.00467 0.0
H575 H 0.67929 0.30841 -0.00518 0.0
C576 C 0.7247 0.51718 0.77942 0.0
C577 C 0.69578 0.52759 0.7718 0.0
C578 C 0.74928 0.50435 0.76984 0.0
C579 C 0.74491 0.50373 0.75225 0.0
C580 C 0.71587 0.51565 0.74449 0.0
C581 C 0.69149 0.52657 0.7544 0.0
C582 C 0.77975 0.49039 0.77854 0.0
C583 C 0.71056 0.51696 0.72575 0.0
C584 C 0.81431 0.5223 0.72735 0.0
C585 C 0.81872 0.46656 0.72159 0.0
C586 C 0.79022 0.53509 0.73727 0.0
C587 C 0.77072 0.49065 0.74192 0.0
C588 C 0.77558 0.43394 0.7365 0.0
C589 C 0.79929 0.42272 0.72614 0.0
C590 C 0.78522 0.59632 0.74243 0.0
C591 C 0.75572 0.38523 0.74161 0.0
H592 H 0.7279 0.51737 0.7929 0.0
H593 H 0.66911 0.53488 0.74852 0.0
H594 H 0.78713 0.44714 0.77478 0.0
H595 H 0.79715 0.52115 0.77475 0.0
H596 H 0.77917 0.49158 0.79233 0.0
H597 H 0.68692 0.52939 0.72171 0.0
H598 H 0.72643 0.54766 0.72037 0.0
H599 H 0.71524 0.47424 0.72049 0.0
H600 H 0.82918 0.55634 0.72368 0.0
H601 H 0.80284 0.37955 0.72174 0.0
H602 H 0.78632 0.5997 0.75621 0.0
H603 H 0.76221 0.61058 0.73778 0.0
H604 H 0.80227 0.62593 0.73759 0.0
H605 H 0.75545 0.38357 0.75539 0.0
H606 H 0.76356 0.34321 0.73706 0.0
H607 H 0.73199 0.39224 0.73661 0.0
C608 C 0.54636 0.02457 0.98585 0.0
C609 C 0.54129 0.02997 0.96855 0.0
C610 C 0.52229 0.01293 -0.0041 0.0
C611 C 0.4927 0.00484 0.98836 0.0
C612 C 0.48749 0.01022 0.97088 0.0
C613 C 0.51183 0.02359 0.96119 0.0
C614 C 0.5285 0.00911 0.01455 0.0
C615 C 0.45638 0.00055 0.96237 0.0
C616 C 0.43743 0.91971 0.01281 0.0
C617 C 0.41878 0.9631 0.01845 0.0
C618 C 0.46136 0.93261 0.00275 0.0
C619 C 0.4672 -0.00961 -0.00125 0.0
C620 C 0.44865 0.0344 0.00464 0.0
C621 C 0.42434 0.0201 0.01423 0.0
C622 C 0.4802 0.88448 -0.00368 0.0
C623 C 0.45472 0.09658 0.00099 0.0
H624 H 0.56916 0.02976 -0.00847 0.0
H625 H 0.50797 0.02717 0.94778 0.0
H626 H 0.51346 0.03906 0.02088 0.0
H627 H 0.52337 0.96538 0.01891 0.0
H628 H 0.55249 0.01931 0.0185 0.0
H629 H 0.45627 0.00561 0.94863 0.0
H630 H 0.44835 0.95684 0.96518 0.0
H631 H 0.43984 0.03112 0.9672 0.0
H632 H 0.433 0.87561 0.01603 0.0
H633 H 0.41008 0.05373 0.01875 0.0
H634 H 0.50424 0.88932 0.00104 0.0
H635 H 0.47969 0.88615 0.98251 0.0
H636 H 0.47202 0.84179 0.00011 0.0
H637 H 0.47823 0.10794 0.00555 0.0
H638 H 0.43866 0.12567 0.00692 0.0
H639 H 0.45287 0.10413 0.98735 0.0
C640 C 0.47466 0.34852 0.22998 0.0
C641 C 0.44538 0.33966 0.22265 0.0
C642 C 0.48719 0.31068 0.24213 0.0
C643 C 0.47038 0.26198 0.24658 0.0
C644 C 0.44066 0.25331 0.23934 0.0
C645 C 0.42836 0.29274 0.22765 0.0
C646 C 0.51864 0.32216 0.24994 0.0
C647 C 0.42237 0.20108 0.24338 0.0
C648 C 0.51738 0.13539 0.26255 0.0
C649 C 0.51354 0.13774 0.27969 0.0
C650 C 0.50267 0.17456 0.25159 0.0
C651 C 0.48456 0.21831 0.25802 0.0
C652 C 0.48037 0.22053 0.27533 0.0
C653 C 0.49457 0.17952 0.28595 0.0
C654 C 0.50689 0.1696 0.23315 0.0
C655 C 0.46187 0.26743 0.28269 0.0
H656 H 0.48777 0.38494 0.22619 0.0
H657 H 0.4058 0.28541 0.22187 0.0
H658 H 0.51852 0.32024 0.26373 0.0
H659 H 0.53455 0.28871 0.24603 0.0
H660 H 0.52746 0.36458 0.24633 0.0
H661 H 0.39918 0.20175 0.23712 0.0
H662 H 0.43424 0.16202 0.2394 0.0
H663 H 0.42035 0.19772 0.25702 0.0
H664 H 0.53206 0.10295 0.25773 0.0
H665 H 0.49201 0.18178 0.29926 0.0
H666 H 0.51911 0.20771 0.22882 0.0
H667 H 0.48446 0.1682 0.22607 0.0
H668 H 0.51996 0.1308 0.23007 0.0
H669 H 0.47223 0.30958 0.2802 0.0
H670 H 0.46043 0.26254 0.29636 0.0
H671 H 0.43852 0.26786 0.2767 0.0
C672 C 0.49951 0.7991 0.70489 0.0
C673 C 0.47705 0.83835 0.70881 0.0
C674 C 0.51223 0.76146 0.71701 0.0
C675 C 0.50293 0.76457 0.73353 0.0
C676 C 0.48108 0.80569 0.73767 0.0
C677 C 0.46802 0.84146 0.72517 0.0
C678 C 0.53489 0.7172 0.71204 0.0
C679 C 0.47132 0.81155 0.75525 0.0
C680 C 0.51264 0.6354 0.76204 0.0
C681 C 0.54022 0.64799 0.77088 0.0
C682 C 0.50046 0.67258 0.74963 0.0
C683 C 0.51577 0.72433 0.74643 0.0
C684 C 0.54332 0.7377 0.75559 0.0
C685 C 0.55546 0.69889 0.76752 0.0
C686 C 0.47145 0.65618 0.7398 0.0
C687 C 0.55979 0.79325 0.75292 0.0
H688 H 0.5062 0.79621 0.69218 0.0
H689 H 0.45071 0.87201 0.7282 0.0
H690 H 0.5566 0.72217 0.71964 0.0
H691 H 0.52614 0.6737 0.71448 0.0
H692 H 0.53959 0.72027 0.69866 0.0
H693 H 0.45556 0.84809 0.7566 0.0
H694 H 0.45981 0.77183 0.75897 0.0
H695 H 0.49149 0.81761 0.76404 0.0
H696 H 0.50098 0.59584 0.76457 0.0
H697 H 0.57666 0.70892 0.77449 0.0
H698 H 0.47522 0.65566 0.72628 0.0
H699 H 0.45354 0.68838 0.74172 0.0
H700 H 0.46297 0.61351 0.74341 0.0
H701 H 0.56662 0.79577 0.73991 0.0
H702 H 0.58042 0.79799 0.76148 0.0
H703 H 0.54441 0.8299 0.75485 0.0
C704 C 0.44385 0.52544 0.51148 0.0
C705 C 0.43818 0.46865 0.51587 0.0
C706 C 0.46918 0.53952 0.50265 0.0
C707 C 0.48862 0.49543 0.49766 0.0
C708 C 0.48287 0.43793 0.50199 0.0
C709 C 0.45792 0.42533 0.5113 0.0
C710 C 0.47514 0.60145 0.49865 0.0
C711 C 0.50265 0.38963 0.49648 0.0
C712 C 0.53445 0.52324 0.46026 0.0
C713 C 0.56372 0.53034 0.46779 0.0
C714 C 0.50977 0.51175 0.46986 0.0
C715 C 0.51444 0.50911 0.48742 0.0
C716 C 0.54382 0.51814 0.49513 0.0
C717 C 0.56828 0.52774 0.48517 0.0
C718 C 0.47891 0.50087 0.46119 0.0
C719 C 0.54941 0.51731 0.51385 0.0
H720 H 0.4287 0.55899 0.51519 0.0
H721 H 0.45339 0.38138 0.51464 0.0
H722 H 0.49857 0.61339 0.50321 0.0
H723 H 0.47342 0.60794 0.48496 0.0
H724 H 0.45889 0.63081 0.50432 0.0
H725 H 0.49488 0.34725 0.50078 0.0
H726 H 0.50261 0.38905 0.48268 0.0
H727 H 0.52647 0.39625 0.50137 0.0
H728 H 0.531 0.52474 0.44679 0.0
H729 H 0.59094 0.5336 0.49097 0.0
H730 H 0.46214 0.53199 0.46551 0.0
H731 H 0.47087 0.45753 0.46441 0.0
H732 H 0.47921 0.5041 0.44742 0.0
H733 H 0.53386 0.54773 0.51962 0.0
H734 H 0.5732 0.52876 0.51788 0.0
H735 H 0.54452 0.47413 0.51871 0.0
C736 C 0.11392 0.70404 0.33611 0.0
C737 C 0.09411 0.6604 0.34046 0.0
C738 C 0.12309 0.74674 0.34761 0.0
C739 C 0.11234 0.74531 0.36381 0.0
C740 C 0.09374 0.69962 0.36854 0.0
C741 C 0.08472 0.65785 0.35678 0.0
C742 C 0.14281 0.79508 0.34211 0.0
C743 C 0.08202 0.69646 0.38577 0.0
C744 C 0.14523 0.84577 0.39749 0.0
C745 C 0.12336 0.88935 0.39679 0.0
C746 C 0.14221 0.79846 0.38672 0.0
C747 C 0.11689 0.79532 0.375 0.0
C748 C 0.09501 0.83957 0.37415 0.0
C749 C 0.09845 0.88583 0.38509 0.0
C750 C 0.1658 0.75165 0.38799 0.0
C751 C 0.06775 0.83794 0.36175 0.0
H752 H 0.12144 0.70603 0.32355 0.0
H753 H 0.06981 0.6237 0.36031 0.0
H754 H 0.12918 0.83495 0.34102 0.0
H755 H 0.1619 0.80293 0.35149 0.0
H756 H 0.15223 0.78633 0.32988 0.0
H757 H 0.07102 0.65475 0.3881 0.0
H758 H 0.1008 0.7032 0.39542 0.0
H759 H 0.06511 0.73094 0.38723 0.0
H760 H 0.16452 0.84839 0.40652 0.0
H761 H 0.08152 0.91951 0.3844 0.0
H762 H 0.17561 0.74531 0.37576 0.0
H763 H 0.15503 0.71068 0.39131 0.0
H764 H 0.18453 0.76124 0.39749 0.0
H765 H 0.07529 0.83402 0.3489 0.0
H766 H 0.05334 0.87676 0.36239 0.0
H767 H 0.05359 0.79995 0.36411 0.0
C768 C 0.1213 0.15179 0.3639 0.0
C769 C 0.11354 0.15544 0.38052 0.0
C770 C 0.11153 0.19321 0.35219 0.0
C771 C 0.09376 0.23963 0.35727 0.0
C772 C 0.08404 0.24145 0.3737 0.0
C773 C 0.09403 0.19914 0.38517 0.0
C774 C 0.12222 0.18954 0.33475 0.0
C775 C 0.06504 0.29031 0.37955 0.0
C776 C 0.11135 0.37955 0.3367 0.0
C777 C 0.08675 0.38586 0.3249 0.0
C778 C 0.11338 0.33273 0.34747 0.0
C779 C 0.0903 0.29072 0.3464 0.0
C780 C 0.06521 0.29673 0.33462 0.0
C781 C 0.06369 0.3445 0.32396 0.0
C782 C 0.14057 0.32796 0.35985 0.0
C783 C 0.04028 0.2525 0.33319 0.0
H784 H 0.13586 0.11745 0.36011 0.0
H785 H 0.08766 0.20185 0.39794 0.0
H786 H 0.1033 0.19866 0.32538 0.0
H787 H 0.1401 0.22216 0.3332 0.0
H788 H 0.13182 0.14681 0.33208 0.0
H789 H 0.05521 0.28068 0.39161 0.0
H790 H 0.07941 0.3291 0.38117 0.0
H791 H 0.0463 0.30047 0.37015 0.0
H792 H 0.12925 0.41137 0.33756 0.0
H793 H 0.04461 0.34933 0.31489 0.0
H794 H 0.15369 0.2888 0.35729 0.0
H795 H 0.13295 0.32419 0.37269 0.0
H796 H 0.15601 0.36537 0.3594 0.0
H797 H 0.04974 0.21084 0.32941 0.0
H798 H 0.02163 0.26481 0.32394 0.0
H799 H 0.03067 0.24602 0.34546 0.0
C800 C 0.10934 0.14538 0.86099 0.0
C801 C 0.12346 0.15117 0.84594 0.0
C802 C 0.11363 0.18629 0.87365 0.0
C803 C 0.13216 0.23443 0.87108 0.0
C804 C 0.14796 0.23872 0.85635 0.0
C805 C 0.14352 0.1968 0.84396 0.0
C806 C 0.0967 0.17989 0.88928 0.0
C807 C 0.16777 0.28966 0.85313 0.0
C808 C 0.10669 0.37368 0.88933 0.0
C809 C 0.12804 0.38172 0.90282 0.0
C810 C 0.10788 0.32581 0.87902 0.0
C811 C 0.13085 0.28443 0.88234 0.0
C812 C 0.15219 0.29144 0.89612 0.0
C813 C 0.1506 0.34033 0.90622 0.0
C814 C 0.08469 0.32 0.86443 0.0
C815 C 0.17676 0.24768 0.90005 0.0
H816 H 0.09424 0.1096 0.86274 0.0
H817 H 0.1547 0.20129 0.83241 0.0
H818 H 0.11179 0.18957 0.90049 0.0
H819 H 0.0776 0.21085 0.88898 0.0
H820 H 0.08728 0.13615 0.89054 0.0
H821 H 0.18166 0.28281 0.84225 0.0
H822 H 0.15323 0.32785 0.85065 0.0
H823 H 0.18318 0.29924 0.86422 0.0
H824 H 0.08912 0.40536 0.88663 0.0
H825 H 0.16712 0.34638 0.91664 0.0
H826 H 0.07168 0.27973 0.86552 0.0
H827 H 0.09634 0.31781 0.85262 0.0
H828 H 0.06838 0.35625 0.86358 0.0
H829 H 0.16651 0.20479 0.90151 0.0
H830 H 0.19079 0.25827 0.91161 0.0
H831 H 0.19184 0.24486 0.88956 0.0
C832 C 0.14844 0.65136 0.86857 0.0
C833 C 0.13264 0.65561 0.88311 0.0
C834 C 0.145 0.69292 0.85605 0.0
C835 C 0.12562 0.74013 0.85825 0.0
C836 C 0.10856 0.74335 0.87255 0.0
C837 C 0.11217 0.7008 0.88478 0.0
C838 C 0.16326 0.68776 0.84086 0.0
C839 C 0.08787 0.79341 0.87538 0.0
C840 C 0.14836 0.88042 0.83946 0.0
C841 C 0.12728 0.88564 0.82574 0.0
C842 C 0.148 0.83314 0.85006 0.0
C843 C 0.12621 0.78958 0.84677 0.0
C844 C 0.10516 0.79388 0.83277 0.0
C845 C 0.10584 0.84219 0.82242 0.0
C846 C 0.17073 0.83026 0.86494 0.0
C847 C 0.08186 0.74774 0.82884 0.0
H848 H 0.16396 0.61603 0.86708 0.0
H849 H 0.09978 0.70419 0.89596 0.0
H850 H 0.1486 0.69527 0.82933 0.0
H851 H 0.18133 0.72084 0.84136 0.0
H852 H 0.17416 0.6451 0.84 0.0
H853 H 0.07389 0.78657 0.88622 0.0
H854 H 0.10173 0.83258 0.87767 0.0
H855 H 0.0725 0.80133 0.86416 0.0
H856 H 0.16499 0.91385 0.84212 0.0
H857 H 0.08956 0.84604 0.8118 0.0
H858 H 0.18477 0.79106 0.86427 0.0
H859 H 0.15864 0.82781 0.8766 0.0
H860 H 0.18611 0.86791 0.86573 0.0
H861 H 0.09332 0.70586 0.82758 0.0
H862 H 0.06778 0.75665 0.81718 0.0
H863 H 0.06664 0.74374 0.83924 0.0
C864 C 0.86191 0.27574 0.64277 0.0
C865 C 0.88057 0.32172 0.63888 0.0
C866 C 0.85439 0.23309 0.63093 0.0
C867 C 0.86568 0.23698 0.61487 0.0
C868 C 0.88247 0.28562 0.61051 0.0
C869 C 0.88983 0.32728 0.62259 0.0
C870 C 0.83639 0.18181 0.63601 0.0
C871 C 0.89472 0.2916 0.59347 0.0
C872 C 0.88946 0.10061 0.59429 0.0
C873 C 0.86603 0.09237 0.5819 0.0
C874 C 0.88911 0.14687 0.60525 0.0
C875 C 0.8648 0.18636 0.60375 0.0
C876 C 0.84094 0.17845 0.59132 0.0
C877 C 0.84179 0.13126 0.58051 0.0
C878 C 0.91503 0.15371 0.61836 0.0
C879 C 0.81479 0.22003 0.58937 0.0
H880 H 0.85444 0.27151 0.65529 0.0
H881 H 0.90373 0.36337 0.61938 0.0
H882 H 0.81886 0.17016 0.62608 0.0
H883 H 0.85185 0.1446 0.6379 0.0
H884 H 0.82511 0.18952 0.64777 0.0
H885 H 0.90322 0.33549 0.59125 0.0
H886 H 0.91378 0.26115 0.59234 0.0
H887 H 0.87698 0.28098 0.58356 0.0
H888 H 0.90824 0.07067 0.59551 0.0
H889 H 0.8236 0.12492 0.57097 0.0
H890 H 0.90613 0.15581 0.63094 0.0
H891 H 0.92721 0.19438 0.61632 0.0
H892 H 0.93165 0.11804 0.61819 0.0
H893 H 0.80374 0.22431 0.60132 0.0
H894 H 0.79744 0.20659 0.57952 0.0
H895 H 0.82335 0.26299 0.58617 0.0
C896 C 0.91239 0.62951 0.65734 0.0
C897 C 0.88959 0.58773 0.65581 0.0
C898 C 0.9119 0.67663 0.64647 0.0
C899 C 0.88819 0.68146 0.63382 0.0
C900 C 0.86539 0.63899 0.63213 0.0
C901 C 0.86631 0.59284 0.64318 0.0
C902 C 0.93643 0.72149 0.64864 0.0
C903 C 0.83977 0.64251 0.61875 0.0
C904 C 0.86122 0.82131 0.61479 0.0
C905 C 0.87248 0.81801 0.59889 0.0
C906 C 0.86793 0.77888 0.62673 0.0
C907 C 0.88611 0.73177 0.62261 0.0
C908 C 0.89885 0.72961 0.60691 0.0
C909 C 0.89197 0.77299 0.59523 0.0
C910 C 0.8541 0.78287 0.6434 0.0
C911 C 0.91825 0.67982 0.60209 0.0
H912 H 0.93044 0.62563 0.66707 0.0
H913 H 0.84869 0.56056 0.64186 0.0
H914 H 0.94785 0.72698 0.63685 0.0
H915 H 0.92617 0.7633 0.65161 0.0
H916 H 0.95382 0.71044 0.65874 0.0
H917 H 0.82446 0.60479 0.61878 0.0
H918 H 0.82607 0.68155 0.62056 0.0
H919 H 0.84908 0.64575 0.60629 0.0
H920 H 0.84654 0.8565 0.61782 0.0
H921 H 0.90089 0.77039 0.583 0.0
H922 H 0.87154 0.77463 0.65368 0.0
H923 H 0.83624 0.74973 0.64415 0.0
H924 H 0.84369 0.82538 0.6454 0.0
H925 H 0.93592 0.67025 0.61214 0.0
H926 H 0.92951 0.68802 0.59035 0.0
H927 H 0.90384 0.64112 0.60033 0.0
C928 C 0.83467 0.64808 0.07292 0.0
C929 C 0.85601 0.60407 0.07558 0.0
C930 C 0.83553 0.69661 0.08325 0.0
C931 C 0.85805 0.70052 0.09657 0.0
C932 C 0.87978 0.65643 0.09917 0.0
C933 C 0.87858 0.60897 0.0886 0.0
C934 C 0.81228 0.74334 0.08005 0.0
C935 C 0.90405 0.65885 0.11332 0.0
C936 C 0.88329 0.83797 0.11791 0.0
C937 C 0.86902 0.83387 0.13296 0.0
C938 C 0.87831 0.79668 0.10541 0.0
C939 C 0.85895 0.74987 0.10815 0.0
C940 C 0.84346 0.74679 0.123 0.0
C941 C 0.84855 0.78908 0.1352 0.0
C942 C 0.89491 0.8017 0.08962 0.0
C943 C 0.82289 0.69711 0.12642 0.0
H944 H 0.81725 0.6445 0.06283 0.0
H945 H 0.89517 0.57513 0.09075 0.0
H946 H 0.79815 0.74751 0.09091 0.0
H947 H 0.82382 0.78499 0.07852 0.0
H948 H 0.79709 0.73493 0.06875 0.0
H949 H 0.91924 0.62091 0.11359 0.0
H950 H 0.91813 0.69778 0.1122 0.0
H951 H 0.89333 0.66147 0.12541 0.0
H952 H 0.89878 0.873 0.116 0.0
H953 H 0.83734 0.7858 0.14678 0.0
H954 H 0.8791 0.79454 0.07852 0.0
H955 H 0.91279 0.76832 0.08953 0.0
H956 H 0.90585 0.84419 0.08847 0.0
H957 H 0.80634 0.68974 0.11566 0.0
H958 H 0.8102 0.70402 0.13775 0.0
H959 H 0.83667 0.6576 0.12819 0.0
C960 C 0.84395 0.11651 0.14003 0.0
C961 C 0.86676 0.10802 0.15276 0.0
C962 C 0.84402 0.16454 0.12973 0.0
C963 C 0.86737 0.20563 0.13228 0.0
C964 C 0.89019 0.1982 0.14531 0.0
C965 C 0.88968 0.14916 0.15542 0.0
C966 C 0.81923 0.1708 0.11596 0.0
C967 C 0.91522 0.24162 0.14842 0.0
C968 C 0.87518 0.2929 0.09332 0.0
C969 C 0.85542 0.33846 0.09602 0.0
C970 C 0.88127 0.25123 0.10562 0.0
C971 C 0.86746 0.25571 0.12099 0.0
C972 C 0.84939 0.30391 0.12423 0.0
C973 C 0.8434 0.34456 0.11165 0.0
C974 C 0.90054 0.20024 0.10167 0.0
C975 C 0.83461 0.31056 0.14055 0.0
H976 H 0.82607 0.08506 0.13791 0.0
H977 H 0.90733 0.14276 0.16526 0.0
H978 H 0.80656 0.2112 0.11758 0.0
H979 H 0.82938 0.173 0.1037 0.0
H980 H 0.8028 0.13475 0.11566 0.0
H981 H 0.93038 0.23094 0.15955 0.0
H982 H 0.92911 0.24404 0.13742 0.0
H983 H 0.90537 0.2847 0.15017 0.0
H984 H 0.88477 0.28822 0.08132 0.0
H985 H 0.82859 0.38033 0.11394 0.0
H986 H 0.88576 0.16213 0.09967 0.0
H987 H 0.91714 0.19053 0.11224 0.0
H988 H 0.91308 0.2071 0.09029 0.0
H989 H 0.81546 0.27995 0.14097 0.0
H990 H 0.82562 0.35447 0.14218 0.0
H991 H 0.85098 0.30062 0.15121 0.0
C992 C 0.63201 0.71161 0.84738 0.0
C993 C 0.61151 0.66666 0.84934 0.0
C994 C 0.63673 0.75355 0.85974 0.0
C995 C 0.6208 0.74995 0.87444 0.0
C996 C 0.6015 0.70283 0.8769 0.0
C997 C 0.59692 0.66193 0.86427 0.0
C998 C 0.65728 0.80353 0.85661 0.0
C999 C 0.58437 0.69724 0.8925 0.0
C1000 C 0.64151 0.85115 0.91044 0.0
C1001 C 0.6194 0.89375 0.90766 0.0
C1002 C 0.64232 0.80358 0.89977 0.0
C1003 C 0.62074 0.7993 0.886 0.0
C1004 C 0.59848 0.8423 0.88317 0.0
C1005 C 0.59797 0.88869 0.89408 0.0
C1006 C 0.66612 0.75799 0.90321 0.0
C1007 C 0.57519 0.83955 0.86854 0.0
H1008 H 0.6435 0.71531 0.83591 0.0
H1009 H 0.58143 0.62673 0.86599 0.0
H1010 H 0.64334 0.84268 0.85446 0.0
H1011 H 0.67311 0.81156 0.86763 0.0
H1012 H 0.67075 0.79654 0.84557 0.0
H1013 H 0.57365 0.6545 0.8935 0.0
H1014 H 0.59977 0.70461 0.90375 0.0
H1015 H 0.56626 0.7302 0.89242 0.0
H1016 H 0.65808 0.85493 0.92094 0.0
H1017 H 0.58086 0.92153 0.8918 0.0
H1018 H 0.68038 0.75384 0.8924 0.0
H1019 H 0.65502 0.716 0.90489 0.0
H1020 H 0.6811 0.76748 0.91451 0.0
H1021 H 0.58677 0.83715 0.85671 0.0
H1022 H 0.55981 0.87723 0.86795 0.0
H1023 H 0.56118 0.80039 0.86937 0.0
C1024 C 0.59808 0.20986 0.89104 0.0
C1025 C 0.6177 0.1641 0.88832 0.0
C1026 C 0.59289 0.25266 0.87896 0.0
C1027 C 0.6076 0.24927 0.86385 0.0
C1028 C 0.62569 0.20113 0.86058 0.0
C1029 C 0.63059 0.15921 0.87288 0.0
C1030 C 0.57342 0.30342 0.88287 0.0
C1031 C 0.64164 0.19581 0.84458 0.0
C1032 C 0.58872 0.35429 0.82856 0.0
C1033 C 0.61197 0.39467 0.83142 0.0
C1034 C 0.58666 0.30667 0.83911 0.0
C1035 C 0.60829 0.29979 0.85275 0.0
C1036 C 0.63169 0.34057 0.85567 0.0
C1037 C 0.63328 0.38729 0.84495 0.0
C1038 C 0.56152 0.26369 0.83565 0.0
C1039 C 0.65524 0.33482 0.87009 0.0
H1040 H 0.58781 0.21364 0.90289 0.0
H1041 H 0.64536 0.12341 0.87055 0.0
H1042 H 0.58817 0.34123 0.88548 0.0
H1043 H 0.55759 0.31419 0.87204 0.0
H1044 H 0.56003 0.29561 0.89388 0.0
H1045 H 0.65124 0.15237 0.84297 0.0
H1046 H 0.62582 0.2056 0.83367 0.0
H1047 H 0.6605 0.22723 0.84464 0.0
H1048 H 0.57216 0.35994 0.81814 0.0
H1049 H 0.65131 0.41833 0.84728 0.0
H1050 H 0.54792 0.25936 0.84672 0.0
H1051 H 0.57137 0.22104 0.83326 0.0
H1052 H 0.54613 0.27589 0.82475 0.0
H1053 H 0.64396 0.33246 0.88202 0.0
H1054 H 0.67151 0.37114 0.87083 0.0
H1055 H 0.66827 0.29462 0.86885 0.0
C1056 C 0.6343 0.2062 0.34632 0.0
C1057 C 0.6157 0.16072 0.35068 0.0
C1058 C 0.6432 0.24854 0.35801 0.0
C1059 C 0.63333 0.24493 0.37439 0.0
C1060 C 0.61648 0.1969 0.37916 0.0
C1061 C 0.60777 0.15548 0.36723 0.0
C1062 C 0.66122 0.29919 0.35247 0.0
C1063 C 0.60568 0.1913 0.39654 0.0
C1064 C 0.6621 0.35069 0.40777 0.0
C1065 C 0.63871 0.3914 0.40675 0.0
C1066 C 0.66093 0.30257 0.39724 0.0
C1067 C 0.63583 0.29546 0.38553 0.0
C1068 C 0.61216 0.33634 0.38456 0.0
C1069 C 0.61388 0.3836 0.39518 0.0
C1070 C 0.68647 0.25953 0.39858 0.0
C1071 C 0.58488 0.33024 0.3723 0.0
H1072 H 0.64079 0.21019 0.33359 0.0
H1073 H 0.59389 0.11981 0.3708 0.0
H1074 H 0.64614 0.33714 0.35118 0.0
H1075 H 0.67985 0.3097 0.3619 0.0
H1076 H 0.6711 0.29139 0.34031 0.0
H1077 H 0.59699 0.1477 0.39897 0.0
H1078 H 0.6243 0.20131 0.40602 0.0
H1079 H 0.5871 0.22239 0.39818 0.0
H1080 H 0.68136 0.35666 0.41666 0.0
H1081 H 0.59564 0.41476 0.39434 0.0
H1082 H 0.69699 0.2559 0.38646 0.0
H1083 H 0.67744 0.21668 0.40153 0.0
H1084 H 0.70436 0.27127 0.40834 0.0
H1085 H 0.59236 0.32789 0.3594 0.0
H1086 H 0.56868 0.3664 0.37301 0.0
H1087 H 0.57265 0.28994 0.37472 0.0
C1088 C 0.6518 0.6628 0.37361 0.0
C1089 C 0.63991 0.6658 0.38935 0.0
C1090 C 0.64404 0.70375 0.36134 0.0
C1091 C 0.62432 0.74909 0.36503 0.0
C1092 C 0.61144 0.75127 0.38069 0.0
C1093 C 0.61928 0.70937 0.39264 0.0
C1094 C 0.65792 0.6998 0.34469 0.0
C1095 C 0.59061 0.79944 0.38513 0.0
C1096 C 0.63668 0.89092 0.34417 0.0
C1097 C 0.61194 0.89351 0.33234 0.0
C1098 C 0.64095 0.84392 0.35477 0.0
C1099 C 0.62015 0.79793 0.35339 0.0
C1100 C 0.59538 0.79959 0.34129 0.0
C1101 C 0.59143 0.84774 0.33092 0.0
C1102 C 0.66751 0.84398 0.36764 0.0
C1103 C 0.57303 0.75079 0.3394 0.0
H1104 H 0.6674 0.62872 0.3709 0.0
H1105 H 0.6099 0.71181 0.40475 0.0
H1106 H 0.64016 0.70491 0.33439 0.0
H1107 H 0.67456 0.73494 0.34357 0.0
H1108 H 0.66978 0.65844 0.34308 0.0
H1109 H 0.58039 0.79212 0.39722 0.0
H1110 H 0.60358 0.84012 0.38595 0.0
H1111 H 0.57205 0.8049 0.37528 0.0
H1112 H 0.65262 0.9262 0.34537 0.0
H1113 H 0.57236 0.84954 0.32174 0.0
H1114 H 0.68219 0.80626 0.36583 0.0
H1115 H 0.65914 0.84078 0.38033 0.0
H1116 H 0.68161 0.88319 0.36702 0.0
H1117 H 0.58522 0.71022 0.33723 0.0
H1118 H 0.55572 0.7577 0.32894 0.0
H1119 H 0.56122 0.74546 0.35108 0.0
C1120 C 0.35346 0.25288 0.14656 0.0
C1121 C 0.37696 0.29194 0.14426 0.0
C1122 C 0.34629 0.21 0.13478 0.0
C1123 C 0.36287 0.20649 0.12033 0.0
C1124 C 0.38613 0.24655 0.11774 0.0
C1125 C 0.39301 0.28864 0.12979 0.0
C1126 C 0.32155 0.16752 0.13801 0.0
C1127 C 0.40419 0.2442 0.10242 0.0
C1128 C 0.37115 0.06294 0.09962 0.0
C1129 C 0.35025 0.06722 0.08578 0.0
C1130 C 0.37499 0.10763 0.11109 0.0
C1131 C 0.3577 0.15814 0.10859 0.0
C1132 C 0.3363 0.16271 0.09475 0.0
C1133 C 0.3327 0.11688 0.0835 0.0
C1134 C 0.39783 0.10097 0.1258 0.0
C1135 C 0.31768 0.21629 0.09169 0.0
H1136 H 0.3409 0.25527 0.15769 0.0
H1137 H 0.41097 0.31907 0.12783 0.0
H1138 H 0.30465 0.16577 0.1272 0.0
H1139 H 0.33151 0.12412 0.13958 0.0
H1140 H 0.30959 0.17823 0.14935 0.0
H1141 H 0.42001 0.28096 0.10171 0.0
H1142 H 0.41763 0.20408 0.10246 0.0
H1143 H 0.38866 0.24382 0.091 0.0
H1144 H 0.38464 0.02446 0.10152 0.0
H1145 H 0.31656 0.12029 0.07279 0.0
H1146 H 0.38664 0.10792 0.13761 0.0
H1147 H 0.41593 0.13371 0.12519 0.0
H1148 H 0.40864 0.05803 0.12624 0.0
H1149 H 0.30476 0.22613 0.10273 0.0
H1150 H 0.30145 0.21242 0.0806 0.0
H1151 H 0.33295 0.25312 0.08981 0.0
C1152 C 0.39082 0.61362 0.15458 0.0
C1153 C 0.37275 0.56495 0.15158 0.0
C1154 C 0.38911 0.65994 0.14342 0.0
C1155 C 0.36891 0.65711 0.12902 0.0
C1156 C 0.35151 0.60719 0.12567 0.0
C1157 C 0.35363 0.56181 0.13699 0.0
C1158 C 0.40805 0.71258 0.14732 0.0
C1159 C 0.3297 0.60248 0.11044 0.0
C1160 C 0.33219 0.78945 0.1099 0.0
C1161 C 0.3474 0.7953 0.09519 0.0
C1162 C 0.34002 0.74621 0.1214 0.0
C1163 C 0.36365 0.70773 0.11813 0.0
C1164 C 0.37986 0.71445 0.10362 0.0
C1165 C 0.37152 0.75823 0.09229 0.0
C1166 C 0.32214 0.74033 0.13672 0.0
C1167 C 0.40524 0.67417 0.09979 0.0
H1168 H 0.40574 0.61608 0.16581 0.0
H1169 H 0.3398 0.52409 0.13449 0.0
H1170 H 0.42038 0.7254 0.13631 0.0
H1171 H 0.393 0.74869 0.1503 0.0
H1172 H 0.42481 0.70583 0.15806 0.0
H1173 H 0.31937 0.55926 0.1091 0.0
H1174 H 0.31117 0.63427 0.11125 0.0
H1175 H 0.34154 0.61221 0.09901 0.0
H1176 H 0.31372 0.8182 0.11236 0.0
H1177 H 0.38356 0.76276 0.08103 0.0
H1178 H 0.33774 0.73816 0.14809 0.0
H1179 H 0.30895 0.6999 0.13602 0.0
H1180 H 0.30609 0.7764 0.13808 0.0
H1181 H 0.42161 0.66977 0.11078 0.0
H1182 H 0.41769 0.68881 0.08899 0.0
H1183 H 0.39577 0.63106 0.09694 0.0
C1184 C 0.40251 0.78385 0.62091 0.0
C1185 C 0.38735 0.79313 0.63549 0.0
C1186 C 0.39304 0.74108 0.60958 0.0
C1187 C 0.36774 0.70668 0.61288 0.0
C1188 C 0.35163 0.71697 0.62724 0.0
C1189 C 0.36169 0.76009 0.63843 0.0
C1190 C 0.41091 0.73121 0.59442 0.0
C1191 C 0.32447 0.68119 0.63108 0.0
C1192 C 0.33841 0.61458 0.57645 0.0
C1193 C 0.35484 0.56409 0.5797 0.0
C1194 C 0.34111 0.66091 0.58759 0.0
C1195 C 0.36061 0.65612 0.60223 0.0
C1196 C 0.37597 0.60416 0.60593 0.0
C1197 C 0.37292 0.55888 0.59462 0.0
C1198 C 0.32429 0.71571 0.58333 0.0
C1199 C 0.39689 0.59725 0.62144 0.0
H1200 H 0.4222 0.80945 0.61844 0.0
H1201 H 0.34964 0.76738 0.64957 0.0
H1202 H 0.42225 0.68886 0.59538 0.0
H1203 H 0.39548 0.73073 0.58297 0.0
H1204 H 0.42855 0.76446 0.59302 0.0
H1205 H 0.3124 0.69876 0.64166 0.0
H1206 H 0.30824 0.67831 0.61998 0.0
H1207 H 0.33197 0.63703 0.63428 0.0
H1208 H 0.32429 0.61859 0.56497 0.0
H1209 H 0.38536 0.51963 0.59733 0.0
H1210 H 0.34071 0.74909 0.58 0.0
H1211 H 0.31266 0.7316 0.59426 0.0
H1212 H 0.30719 0.7102 0.57269 0.0
H1213 H 0.41685 0.62581 0.6207 0.0
H1214 H 0.40519 0.55263 0.62313 0.0
H1215 H 0.38509 0.60986 0.63265 0.0
C1216 C 0.38457 0.2592 0.58441 0.0
C1217 C 0.35906 0.2935 0.58668 0.0
C1218 C 0.39389 0.2174 0.59614 0.0
C1219 C 0.37734 0.21 0.61048 0.0
C1220 C 0.35217 0.24567 0.61311 0.0
C1221 C 0.34326 0.28686 0.60114 0.0
C1222 C 0.42069 0.17975 0.59289 0.0
C1223 C 0.334 0.23901 0.62829 0.0
C1224 C 0.37264 0.06362 0.62976 0.0
C1225 C 0.39207 0.06903 0.64418 0.0
C1226 C 0.36849 0.1087 0.61847 0.0
C1227 C 0.38395 0.16081 0.62173 0.0
C1228 C 0.40427 0.16628 0.63603 0.0
C1229 C 0.40824 0.11996 0.64711 0.0
C1230 C 0.34687 0.10096 0.60327 0.0
C1231 C 0.421 0.22149 0.63986 0.0
H1232 H 0.39704 0.26432 0.57332 0.0
H1233 H 0.32375 0.31366 0.6031 0.0
H1234 H 0.43694 0.17848 0.604 0.0
H1235 H 0.41276 0.13533 0.59045 0.0
H1236 H 0.43289 0.19459 0.58202 0.0
H1237 H 0.31688 0.27352 0.62925 0.0
H1238 H 0.32199 0.19729 0.62774 0.0
H1239 H 0.3493 0.23912 0.63979 0.0
H1240 H 0.36034 0.02405 0.62732 0.0
H1241 H 0.42327 0.12415 0.65825 0.0
H1242 H 0.35842 0.11146 0.5918 0.0
H1243 H 0.32737 0.13069 0.60391 0.0
H1244 H 0.33792 0.05662 0.60212 0.0
H1245 H 0.43335 0.23529 0.62896 0.0
H1246 H 0.43748 0.21756 0.65084 0.0
H1247 H 0.40446 0.2557 0.64238 0.0
loop_
_geom_bond_atom_site_label_1
_geom_bond_atom_site_label_2
_geom_bond_distance
_geom_bond_site_symmetry_2
_ccdc_geom_bond_type
C0 O1 1.306 . S
C0 O3 1.160 . S
O1 C0 1.306 . S
O1 Cd2 2.228 . S
Cd2 O1 2.228 . S
Cd2 O6 2.273 . S
Cd2 O10 2.277 . S
O3 C0 1.160 . S
O3 Cd4 2.203 . S
Cd4 O3 2.203 . S
Cd4 O6 2.411 . S
Cd4 O7 2.333 . S
Cd4 O8 2.352 . S
Cd4 O12 2.277 . S
Cd4 O13 2.356 . S
C5 O10 1.209 . S
C5 O12 1.226 . S
O6 Cd2 2.273 . S
O6 Cd4 2.411 . S
O6 C9 1.320 . S
O7 Cd4 2.333 . S
O7 C9 1.214 . S
O8 Cd4 2.352 . S
O8 C11 1.258 . S
C9 O6 1.320 . S
C9 O7 1.214 . S
O10 Cd2 2.277 . S
O10 C5 1.209 . S
C11 O8 1.258 . S
C11 O13 1.282 . S
O12 Cd4 2.277 . S
O12 C5 1.226 . S
O13 Cd4 2.356 . S
O13 C11 1.282 . S
C14 O15 1.306 . S
C14 O17 1.160 . S
O15 C14 1.306 . S
O15 Cd16 2.228 . S
Cd16 O15 2.228 . S
Cd16 O20 2.273 . S
Cd16 O24 2.277 . S
O17 C14 1.160 . S
O17 Cd18 2.203 . S
Cd18 O17 2.203 . S
Cd18 O20 2.411 . S
Cd18 O21 2.333 . S
Cd18 O22 2.352 . S
Cd18 O26 2.277 . S
Cd18 O27 2.356 . S
C19 O24 1.209 . S
C19 O26 1.226 . S
O20 Cd16 2.273 . S
O20 Cd18 2.411 . S
O20 C23 1.320 . S
O21 Cd18 2.333 . S
O21 C23 1.214 . S
O22 Cd18 2.352 . S
O22 C25 1.258 . S
C23 O20 1.320 . S
C23 O21 1.214 . S
O24 Cd16 2.277 . S
O24 C19 1.209 . S
C25 O22 1.258 . S
C25 O27 1.282 . S
O26 Cd18 2.277 . S
O26 C19 1.226 . S
O27 Cd18 2.356 . S
O27 C25 1.282 . S
C28 O29 1.306 . S
C28 O31 1.160 . S
O29 C28 1.306 . S
O29 Cd30 2.228 . S
Cd30 O29 2.228 . S
Cd30 O34 2.273 . S
Cd30 O38 2.277 . S
O31 C28 1.160 . S
O31 Cd32 2.203 . S
Cd32 O31 2.203 . S
Cd32 O34 2.411 . S
Cd32 O35 2.333 . S
Cd32 O36 2.352 . S
Cd32 O40 2.277 . S
Cd32 O41 2.356 . S
C33 O38 1.209 . S
C33 O40 1.226 . S
O34 Cd30 2.273 . S
O34 Cd32 2.411 . S
O34 C37 1.320 . S
O35 Cd32 2.333 . S
O35 C37 1.214 . S
O36 Cd32 2.352 . S
O36 C39 1.258 . S
C37 O34 1.320 . S
C37 O35 1.214 . S
O38 Cd30 2.277 . S
O38 C33 1.209 . S
C39 O36 1.258 . S
C39 O41 1.282 . S
O40 Cd32 2.277 . S
O40 C33 1.226 . S
O41 Cd32 2.356 . S
O41 C39 1.282 . S
C42 O43 1.306 . S
C42 O45 1.160 . S
O43 C42 1.306 . S
O43 Cd44 2.228 . S
Cd44 O43 2.228 . S
Cd44 O48 2.273 . S
Cd44 O52 2.277 . S
O45 C42 1.160 . S
O45 Cd46 2.203 . S
Cd46 O45 2.203 . S
Cd46 O48 2.411 . S
Cd46 O49 2.333 . S
Cd46 O50 2.352 . S
Cd46 O54 2.277 . S
Cd46 O55 2.356 . S
C47 O52 1.209 . S
C47 O54 1.226 . S
O48 Cd44 2.273 . S
O48 Cd46 2.411 . S
O48 C51 1.320 . S
O49 Cd46 2.333 . S
O49 C51 1.214 . S
O50 Cd46 2.352 . S
O50 C53 1.258 . S
C51 O48 1.320 . S
C51 O49 1.214 . S
O52 Cd44 2.277 . S
O52 C47 1.209 . S
C53 O50 1.258 . S
C53 O55 1.282 . S
O54 Cd46 2.277 . S
O54 C47 1.226 . S
O55 Cd46 2.356 . S
O55 C53 1.282 . S
C56 O57 1.306 . S
C56 O59 1.160 . S
O57 C56 1.306 . S
O57 Cd58 2.228 . S
Cd58 O57 2.228 . S
Cd58 O62 2.273 . S
Cd58 O66 2.277 . S
O59 C56 1.160 . S
O59 Cd60 2.203 . S
Cd60 O59 2.203 . S
Cd60 O62 2.411 . S
Cd60 O63 2.333 . S
Cd60 O64 2.352 . S
Cd60 O68 2.277 . S
Cd60 O69 2.356 . S
C61 O66 1.209 . S
C61 O68 1.226 . S
O62 Cd58 2.273 . S
O62 Cd60 2.411 . S
O62 C65 1.320 . S
O63 Cd60 2.333 . S
O63 C65 1.214 . S
O64 Cd60 2.352 . S
O64 C67 1.258 . S
C65 O62 1.320 . S
C65 O63 1.214 . S
O66 Cd58 2.277 . S
O66 C61 1.209 . S
C67 O64 1.258 . S
C67 O69 1.282 . S
O68 Cd60 2.277 . S
O68 C61 1.226 . S
O69 Cd60 2.356 . S
O69 C67 1.282 . S
C70 O71 1.306 . S
C70 O73 1.160 . S
O71 C70 1.306 . S
O71 Cd72 2.228 . S
Cd72 O71 2.228 . S
Cd72 O76 2.273 . S
Cd72 O80 2.277 . S
O73 C70 1.160 . S
O73 Cd74 2.203 . S
Cd74 O73 2.203 . S
Cd74 O76 2.411 . S
Cd74 O77 2.333 . S
Cd74 O78 2.352 . S
Cd74 O82 2.277 . S
Cd74 O83 2.356 . S
C75 O80 1.209 . S
C75 O82 1.226 . S
O76 Cd72 2.273 . S
O76 Cd74 2.411 . S
O76 C79 1.320 . S
O77 Cd74 2.333 . S
O77 C79 1.214 . S
O78 Cd74 2.352 . S
O78 C81 1.258 . S
C79 O76 1.320 . S
C79 O77 1.214 . S
O80 Cd72 2.277 . S
O80 C75 1.209 . S
C81 O78 1.258 . S
C81 O83 1.282 . S
O82 Cd74 2.277 . S
O82 C75 1.226 . S
O83 Cd74 2.356 . S
O83 C81 1.282 . S
C84 O85 1.306 . S
C84 O87 1.160 . S
O85 C84 1.306 . S
O85 Cd86 2.228 . S
Cd86 O85 2.228 . S
Cd86 O90 2.273 . S
Cd86 O94 2.277 . S
O87 C84 1.160 . S
O87 Cd88 2.203 . S
Cd88 O87 2.203 . S
Cd88 O90 2.411 . S
Cd88 O91 2.333 . S
Cd88 O92 2.352 . S
Cd88 O96 2.277 . S
Cd88 O97 2.356 . S
C89 O94 1.209 . S
C89 O96 1.226 . S
O90 Cd86 2.273 . S
O90 Cd88 2.411 . S
O90 C93 1.320 . S
O91 Cd88 2.333 . S
O91 C93 1.214 . S
O92 Cd88 2.352 . S
O92 C95 1.258 . S
C93 O90 1.320 . S
C93 O91 1.214 . S
O94 Cd86 2.277 . S
O94 C89 1.209 . S
C95 O92 1.258 . S
C95 O97 1.282 . S
O96 Cd88 2.277 . S
O96 C89 1.226 . S
O97 Cd88 2.356 . S
O97 C95 1.282 . S
C98 O99 1.306 . S
C98 O101 1.160 . S
O99 C98 1.306 . S
O99 Cd100 2.228 . S
Cd100 O99 2.228 . S
Cd100 O104 2.273 . S
Cd100 O108 2.277 . S
O101 C98 1.160 . S
O101 Cd102 2.203 . S
Cd102 O101 2.203 . S
Cd102 O104 2.411 . S
Cd102 O105 2.333 . S
Cd102 O106 2.352 . S
Cd102 O110 2.277 . S
Cd102 O111 2.356 . S
C103 O108 1.209 . S
C103 O110 1.226 . S
O104 Cd100 2.273 . S
O104 Cd102 2.411 . S
O104 C107 1.320 . S
O105 Cd102 2.333 . S
O105 C107 1.214 . S
O106 Cd102 2.352 . S
O106 C109 1.258 . S
C107 O104 1.320 . S
C107 O105 1.214 . S
O108 Cd100 2.277 . S
O108 C103 1.209 . S
C109 O106 1.258 . S
C109 O111 1.282 . S
O110 Cd102 2.277 . S
O110 C103 1.226 . S
O111 Cd102 2.356 . S
O111 C109 1.282 . S
C112 O113 1.306 . S
C112 O115 1.160 . S
O113 C112 1.306 . S
O113 Cd114 2.228 . S
Cd114 O113 2.228 . S
Cd114 O118 2.273 . S
Cd114 O122 2.277 . S
O115 C112 1.160 . S
O115 Cd116 2.203 . S
Cd116 O115 2.203 . S
Cd116 O118 2.411 . S
Cd116 O119 2.333 . S
Cd116 O120 2.352 . S
Cd116 O124 2.277 . S
Cd116 O125 2.356 . S
C117 O122 1.209 . S
C117 O124 1.226 . S
O118 Cd114 2.273 . S
O118 Cd116 2.411 . S
O118 C121 1.320 . S
O119 Cd116 2.333 . S
O119 C121 1.214 . S
O120 Cd116 2.352 . S
O120 C123 1.258 . S
C121 O118 1.320 . S
C121 O119 1.214 . S
O122 Cd114 2.277 . S
O122 C117 1.209 . S
C123 O120 1.258 . S
C123 O125 1.282 . S
O124 Cd116 2.277 . S
O124 C117 1.226 . S
O125 Cd116 2.356 . S
O125 C123 1.282 . S
C126 O127 1.306 . S
C126 O129 1.160 . S
O127 C126 1.306 . S
O127 Cd128 2.228 . S
Cd128 O127 2.228 . S
Cd128 O132 2.273 . S
Cd128 O136 2.277 . S
O129 C126 1.160 . S
O129 Cd130 2.203 . S
Cd130 O129 2.203 . S
Cd130 O132 2.411 . S
Cd130 O133 2.333 . S
Cd130 O134 2.352 . S
Cd130 O138 2.277 . S
Cd130 O139 2.356 . S
C131 O136 1.209 . S
C131 O138 1.226 . S
O132 Cd128 2.273 . S
O132 Cd130 2.411 . S
O132 C135 1.320 . S
O133 Cd130 2.333 . S
O133 C135 1.214 . S
O134 Cd130 2.352 . S
O134 C137 1.258 . S
C135 O132 1.320 . S
C135 O133 1.214 . S
O136 Cd128 2.277 . S
O136 C131 1.209 . S
C137 O134 1.258 . S
C137 O139 1.282 . S
O138 Cd130 2.277 . S
O138 C131 1.226 . S
O139 Cd130 2.356 . S
O139 C137 1.282 . S
C140 O141 1.306 . S
C140 O143 1.160 . S
O141 C140 1.306 . S
O141 Cd142 2.228 . S
Cd142 O141 2.228 . S
Cd142 O146 2.273 . S
Cd142 O150 2.277 . S
O143 C140 1.160 . S
O143 Cd144 2.203 . S
Cd144 O143 2.203 . S
Cd144 O146 2.411 . S
Cd144 O147 2.333 . S
Cd144 O148 2.352 . S
Cd144 O152 2.277 . S
Cd144 O153 2.356 . S
C145 O150 1.209 . S
C145 O152 1.226 . S
O146 Cd142 2.273 . S
O146 Cd144 2.411 . S
O146 C149 1.320 . S
O147 Cd144 2.333 . S
O147 C149 1.214 . S
O148 Cd144 2.352 . S
O148 C151 1.258 . S
C149 O146 1.320 . S
C149 O147 1.214 . S
O150 Cd142 2.277 . S
O150 C145 1.209 . S
C151 O148 1.258 . S
C151 O153 1.282 . S
O152 Cd144 2.277 . S
O152 C145 1.226 . S
O153 Cd144 2.356 . S
O153 C151 1.282 . S
C154 O155 1.306 . S
C154 O157 1.160 . S
O155 C154 1.306 . S
O155 Cd156 2.228 . S
Cd156 O155 2.228 . S
Cd156 O160 2.273 . S
Cd156 O164 2.277 . S
O157 C154 1.160 . S
O157 Cd158 2.203 . S
Cd158 O157 2.203 . S
Cd158 O160 2.411 . S
Cd158 O161 2.333 . S
Cd158 O162 2.352 . S
Cd158 O166 2.277 . S
Cd158 O167 2.356 . S
C159 O164 1.209 . S
C159 O166 1.226 . S
O160 Cd156 2.273 . S
O160 Cd158 2.411 . S
O160 C163 1.320 . S
O161 Cd158 2.333 . S
O161 C163 1.214 . S
O162 Cd158 2.352 . S
O162 C165 1.258 . S
C163 O160 1.320 . S
C163 O161 1.214 . S
O164 Cd156 2.277 . S
O164 C159 1.209 . S
C165 O162 1.258 . S
C165 O167 1.282 . S
O166 Cd158 2.277 . S
O166 C159 1.226 . S
O167 Cd158 2.356 . S
O167 C165 1.282 . S
C168 O169 1.306 . S
C168 O171 1.160 . S
O169 C168 1.306 . S
O169 Cd170 2.228 . S
Cd170 O169 2.228 . S
Cd170 O174 2.273 . S
Cd170 O178 2.277 . S
O171 C168 1.160 . S
O171 Cd172 2.203 . S
Cd172 O171 2.203 . S
Cd172 O174 2.411 . S
Cd172 O175 2.333 . S
Cd172 O176 2.352 . S
Cd172 O180 2.277 . S
Cd172 O181 2.356 . S
C173 O178 1.209 . S
C173 O180 1.226 . S
O174 Cd170 2.273 . S
O174 Cd172 2.411 . S
O174 C177 1.320 . S
O175 Cd172 2.333 . S
O175 C177 1.214 . S
O176 Cd172 2.352 . S
O176 C179 1.258 . S
C177 O174 1.320 . S
C177 O175 1.214 . S
O178 Cd170 2.277 . S
O178 C173 1.209 . S
C179 O176 1.258 . S
C179 O181 1.282 . S
O180 Cd172 2.277 . S
O180 C173 1.226 . S
O181 Cd172 2.356 . S
O181 C179 1.282 . S
C182 O183 1.306 . S
C182 O185 1.160 . S
O183 C182 1.306 . S
O183 Cd184 2.228 . S
Cd184 O183 2.228 . S
Cd184 O188 2.273 . S
Cd184 O192 2.277 . S
O185 C182 1.160 . S
O185 Cd186 2.203 . S
Cd186 O185 2.203 . S
Cd186 O188 2.411 . S
Cd186 O189 2.333 . S
Cd186 O190 2.352 . S
Cd186 O194 2.277 . S
Cd186 O195 2.356 . S
C187 O192 1.209 . S
C187 O194 1.226 . S
O188 Cd184 2.273 . S
O188 Cd186 2.411 . S
O188 C191 1.320 . S
O189 Cd186 2.333 . S
O189 C191 1.214 . S
O190 Cd186 2.352 . S
O190 C193 1.258 . S
C191 O188 1.320 . S
C191 O189 1.214 . S
O192 Cd184 2.277 . S
O192 C187 1.209 . S
C193 O190 1.258 . S
C193 O195 1.282 . S
O194 Cd186 2.277 . S
O194 C187 1.226 . S
O195 Cd186 2.356 . S
O195 C193 1.282 . S
C196 O197 1.306 . S
C196 O199 1.160 . S
O197 C196 1.306 . S
O197 Cd198 2.228 . S
Cd198 O197 2.228 . S
Cd198 O202 2.273 . S
Cd198 O206 2.277 . S
O199 C196 1.160 . S
O199 Cd200 2.203 . S
Cd200 O199 2.203 . S
Cd200 O202 2.411 . S
Cd200 O203 2.333 . S
Cd200 O204 2.352 . S
Cd200 O208 2.277 . S
Cd200 O209 2.356 . S
C201 O206 1.209 . S
C201 O208 1.226 . S
O202 Cd198 2.273 . S
O202 Cd200 2.411 . S
O202 C205 1.320 . S
O203 Cd200 2.333 . S
O203 C205 1.214 . S
O204 Cd200 2.352 . S
O204 C207 1.258 . S
C205 O202 1.320 . S
C205 O203 1.214 . S
O206 Cd198 2.277 . S
O206 C201 1.209 . S
C207 O204 1.258 . S
C207 O209 1.282 . S
O208 Cd200 2.277 . S
O208 C201 1.226 . S
O209 Cd200 2.356 . S
O209 C207 1.282 . S
C210 O211 1.306 . S
C210 O213 1.160 . S
O211 C210 1.306 . S
O211 Cd212 2.228 . S
Cd212 O211 2.228 . S
Cd212 O216 2.273 . S
Cd212 O220 2.277 . S
O213 C210 1.160 . S
O213 Cd214 2.203 . S
Cd214 O213 2.203 . S
Cd214 O216 2.411 . S
Cd214 O217 2.333 . S
Cd214 O218 2.352 . S
Cd214 O222 2.277 . S
Cd214 O223 2.356 . S
C215 O220 1.209 . S
C215 O222 1.226 . S
O216 Cd212 2.273 . S
O216 Cd214 2.411 . S
O216 C219 1.320 . S
O217 Cd214 2.333 . S
O217 C219 1.214 . S
O218 Cd214 2.352 . S
O218 C221 1.258 . S
C219 O216 1.320 . S
C219 O217 1.214 . S
O220 Cd212 2.277 . S
O220 C215 1.209 . S
C221 O218 1.258 . S
C221 O223 1.282 . S
O222 Cd214 2.277 . S
O222 C215 1.226 . S
O223 Cd214 2.356 . S
O223 C221 1.282 . S
C224 C225 1.391 . S
C224 C226 1.394 . S
C224 H240 0.931 . S
C225 C224 1.391 . S
C225 C229 1.376 . S
C226 C224 1.394 . S
C226 C227 1.369 . S
C226 C230 1.531 . S
C227 C226 1.369 . S
C227 C228 1.410 . S
C227 C235 1.503 . S
C228 C227 1.410 . S
C228 C229 1.392 . S
C228 C231 1.511 . S
C229 C225 1.376 . S
C229 C228 1.392 . S
C229 H241 0.929 . S
C230 C226 1.531 . S
C230 H242 0.960 . S
C230 H243 0.962 . S
C230 H244 0.960 . S
C231 C228 1.511 . S
C231 H245 0.961 . S
C231 H246 0.961 . S
C231 H247 0.961 . S
C232 C233 1.370 . S
C232 C234 1.363 . S
C232 H248 0.931 . S
C233 C232 1.370 . S
C233 C237 1.408 . S
C234 C232 1.363 . S
C234 C235 1.370 . S
C234 C238 1.524 . S
C235 C227 1.503 . S
C235 C234 1.370 . S
C235 C236 1.403 . S
C236 C235 1.403 . S
C236 C237 1.404 . S
C236 C239 1.539 . S
C237 C233 1.408 . S
C237 C236 1.404 . S
C237 H249 0.930 . S
C238 C234 1.524 . S
C238 H250 0.956 . S
C238 H251 0.961 . S
C238 H252 0.961 . S
C239 C236 1.539 . S
C239 H253 0.958 . S
C239 H254 0.961 . S
C239 H255 0.960 . S
H240 C224 0.931 . S
H241 C229 0.929 . S
H242 C230 0.960 . S
H243 C230 0.962 . S
H244 C230 0.960 . S
H245 C231 0.961 . S
H246 C231 0.961 . S
H247 C231 0.961 . S
H248 C232 0.931 . S
H249 C237 0.930 . S
H250 C238 0.956 . S
H251 C238 0.961 . S
H252 C238 0.961 . S
H253 C239 0.958 . S
H254 C239 0.961 . S
H255 C239 0.960 . S
C256 C257 1.391 . S
C256 C258 1.394 . S
C256 H272 0.931 . S
C257 C256 1.391 . S
C257 C261 1.376 . S
C258 C256 1.394 . S
C258 C259 1.369 . S
C258 C262 1.531 1_665 S
C259 C258 1.369 . S
C259 C260 1.410 . S
C259 C267 1.503 1_665 S
C260 C259 1.410 . S
C260 C261 1.392 . S
C260 C263 1.511 . S
C261 C257 1.376 . S
C261 C260 1.392 . S
C261 H273 0.929 . S
C262 C258 1.531 1_445 S
C262 H274 0.960 . S
C262 H275 0.962 . S
C262 H276 0.960 . S
C263 C260 1.511 . S
C263 H277 0.961 . S
C263 H278 0.961 . S
C263 H279 0.961 . S
C264 C265 1.370 . S
C264 C266 1.363 . S
C264 H280 0.931 . S
C265 C264 1.370 . S
C265 C269 1.408 . S
C266 C264 1.363 . S
C266 C267 1.370 . S
C266 C270 1.524 1_455 S
C267 C259 1.503 1_445 S
C267 C266 1.370 . S
C267 C268 1.403 1_545 S
C268 C267 1.403 1_565 S
C268 C269 1.404 1_565 S
C268 C271 1.539 . S
C269 C265 1.408 . S
C269 C268 1.404 1_545 S
C269 H281 0.930 1_545 S
C270 C266 1.524 1_655 S
C270 H282 0.956 . S
C270 H283 0.961 . S
C270 H284 0.961 . S
C271 C268 1.539 . S
C271 H285 0.958 . S
C271 H286 0.961 . S
C271 H287 0.960 . S
H272 C256 0.931 . S
H273 C261 0.929 . S
H274 C262 0.960 . S
H275 C262 0.962 . S
H276 C262 0.960 . S
H277 C263 0.961 . S
H278 C263 0.961 . S
H279 C263 0.961 . S
H280 C264 0.931 . S
H281 C269 0.930 1_565 S
H282 C270 0.956 . S
H283 C270 0.961 . S
H284 C270 0.961 . S
H285 C271 0.958 . S
H286 C271 0.961 . S
H287 C271 0.960 . S
C288 C289 1.391 . S
C288 C290 1.394 . S
C288 H304 0.931 . S
C289 C288 1.391 . S
C289 C293 1.376 . S
C290 C288 1.394 . S
C290 C291 1.369 . S
C290 C294 1.531 1_565 S
C291 C290 1.369 . S
C291 C292 1.410 . S
C291 C299 1.503 1_565 S
C292 C291 1.410 . S
C292 C293 1.392 . S
C292 C295 1.511 . S
C293 C289 1.376 . S
C293 C292 1.392 . S
C293 H305 0.929 . S
C294 C290 1.531 1_545 S
C294 H306 0.960 . S
C294 H307 0.962 . S
C294 H308 0.960 1_545 S
C295 C292 1.511 . S
C295 H309 0.961 . S
C295 H310 0.961 . S
C295 H311 0.961 . S
C296 C297 1.370 . S
C296 C298 1.363 . S
C296 H312 0.931 . S
C297 C296 1.370 . S
C297 C301 1.408 1_545 S
C298 C296 1.363 . S
C298 C299 1.370 . S
C298 C302 1.524 . S
C299 C291 1.503 1_545 S
C299 C298 1.370 . S
C299 C300 1.403 1_545 S
C300 C299 1.403 1_565 S
C300 C301 1.404 . S
C300 C303 1.539 . S
C301 C297 1.408 1_565 S
C301 C300 1.404 . S
C301 H313 0.930 . S
C302 C298 1.524 . S
C302 H314 0.956 . S
C302 H315 0.961 . S
C302 H316 0.961 . S
C303 C300 1.539 . S
C303 H317 0.958 . S
C303 H318 0.961 . S
C303 H319 0.960 . S
H304 C288 0.931 . S
H305 C293 0.929 . S
H306 C294 0.960 . S
H307 C294 0.962 . S
H308 C294 0.960 1_565 S
H309 C295 0.961 . S
H310 C295 0.961 . S
H311 C295 0.961 . S
H312 C296 0.931 . S
H313 C301 0.930 . S
H314 C302 0.956 . S
H315 C302 0.961 . S
H316 C302 0.961 . S
H317 C303 0.958 . S
H318 C303 0.961 . S
H319 C303 0.960 . S
C320 C321 1.391 . S
C320 C322 1.394 . S
C320 H336 0.931 . S
C321 C320 1.391 . S
C321 C325 1.376 . S
C322 C320 1.394 . S
C322 C323 1.369 . S
C322 C326 1.531 1_455 S
C323 C322 1.369 . S
C323 C324 1.410 . S
C323 C331 1.503 1_455 S
C324 C323 1.410 . S
C324 C325 1.392 . S
C324 C327 1.511 . S
C325 C321 1.376 . S
C325 C324 1.392 . S
C325 H337 0.929 . S
C326 C322 1.531 1_655 S
C326 H338 0.960 . S
C326 H339 0.962 . S
C326 H340 0.960 . S
C327 C324 1.511 . S
C327 H341 0.961 . S
C327 H342 0.961 . S
C327 H343 0.961 . S
C328 C329 1.370 . S
C328 C330 1.363 . S
C328 H344 0.931 . S
C329 C328 1.370 . S
C329 C333 1.408 . S
C330 C328 1.363 . S
C330 C331 1.370 . S
C330 C334 1.524 1_655 S
C331 C323 1.503 1_655 S
C331 C330 1.370 . S
C331 C332 1.403 . S
C332 C331 1.403 . S
C332 C333 1.404 . S
C332 C335 1.539 . S
C333 C329 1.408 . S
C333 C332 1.404 . S
C333 H345 0.930 . S
C334 C330 1.524 1_455 S
C334 H346 0.956 . S
C334 H347 0.961 . S
C334 H348 0.961 . S
C335 C332 1.539 . S
C335 H349 0.958 . S
C335 H350 0.961 . S
C335 H351 0.960 . S
H336 C320 0.931 . S
H337 C325 0.929 . S
H338 C326 0.960 . S
H339 C326 0.962 . S
H340 C326 0.960 . S
H341 C327 0.961 . S
H342 C327 0.961 . S
H343 C327 0.961 . S
H344 C328 0.931 . S
H345 C333 0.930 . S
H346 C334 0.956 . S
H347 C334 0.961 . S
H348 C334 0.961 . S
H349 C335 0.958 . S
H350 C335 0.961 . S
H351 C335 0.960 . S
C352 C353 1.391 . S
C352 C354 1.394 . S
C352 H368 0.931 . S
C353 C352 1.391 . S
C353 C357 1.376 . S
C354 C352 1.394 . S
C354 C355 1.369 . S
C354 C358 1.531 . S
C355 C354 1.369 . S
C355 C356 1.410 . S
C355 C363 1.503 . S
C356 C355 1.410 . S
C356 C357 1.392 . S
C356 C359 1.511 . S
C357 C353 1.376 . S
C357 C356 1.392 . S
C357 H369 0.929 . S
C358 C354 1.531 . S
C358 H370 0.960 . S
C358 H371 0.962 . S
C358 H372 0.960 . S
C359 C356 1.511 . S
C359 H373 0.961 . S
C359 H374 0.961 . S
C359 H375 0.961 . S
C360 C361 1.370 . S
C360 C362 1.363 . S
C360 H376 0.931 . S
C361 C360 1.370 . S
C361 C365 1.408 . S
C362 C360 1.363 . S
C362 C363 1.370 . S
C362 C366 1.524 . S
C363 C355 1.503 . S
C363 C362 1.370 . S
C363 C364 1.403 . S
C364 C363 1.403 . S
C364 C365 1.404 . S
C364 C367 1.539 . S
C365 C361 1.408 . S
C365 C364 1.404 . S
C365 H377 0.930 . S
C366 C362 1.524 . S
C366 H378 0.956 . S
C366 H379 0.961 . S
C366 H380 0.961 . S
C367 C364 1.539 . S
C367 H381 0.958 . S
C367 H382 0.961 . S
C367 H383 0.960 . S
H368 C352 0.931 . S
H369 C357 0.929 . S
H370 C358 0.960 . S
H371 C358 0.962 . S
H372 C358 0.960 . S
H373 C359 0.961 . S
H374 C359 0.961 . S
H375 C359 0.961 . S
H376 C360 0.931 . S
H377 C365 0.930 . S
H378 C366 0.956 . S
H379 C366 0.961 . S
H380 C366 0.961 . S
H381 C367 0.958 . S
H382 C367 0.961 . S
H383 C367 0.960 . S
C384 C385 1.391 1_565 S
C384 C386 1.394 . S
C384 H400 0.931 . S
C385 C384 1.391 1_545 S
C385 C389 1.376 . S
C386 C384 1.394 . S
C386 C387 1.369 1_565 S
C386 C390 1.531 . S
C387 C386 1.369 1_545 S
C387 C388 1.410 . S
C387 C395 1.503 1_545 S
C388 C387 1.410 . S
C388 C389 1.392 . S
C388 C391 1.511 . S
C389 C385 1.376 . S
C389 C388 1.392 . S
C389 H401 0.929 . S
C390 C386 1.531 . S
C390 H402 0.960 . S
C390 H403 0.962 . S
C390 H404 0.960 . S
C391 C388 1.511 . S
C391 H405 0.961 . S
C391 H406 0.961 . S
C391 H407 0.961 . S
C392 C393 1.370 . S
C392 C394 1.363 . S
C392 H408 0.931 . S
C393 C392 1.370 . S
C393 C397 1.408 . S
C394 C392 1.363 . S
C394 C395 1.370 . S
C394 C398 1.524 . S
C395 C387 1.503 1_565 S
C395 C394 1.370 . S
C395 C396 1.403 . S
C396 C395 1.403 . S
C396 C397 1.404 . S
C396 C399 1.539 . S
C397 C393 1.408 . S
C397 C396 1.404 . S
C397 H409 0.930 . S
C398 C394 1.524 . S
C398 H410 0.956 . S
C398 H411 0.961 1_565 S
C398 H412 0.961 . S
C399 C396 1.539 . S
C399 H413 0.958 . S
C399 H414 0.961 . S
C399 H415 0.960 1_565 S
H400 C384 0.931 . S
H401 C389 0.929 . S
H402 C390 0.960 . S
H403 C390 0.962 . S
H404 C390 0.960 . S
H405 C391 0.961 . S
H406 C391 0.961 . S
H407 C391 0.961 . S
H408 C392 0.931 . S
H409 C397 0.930 . S
H410 C398 0.956 . S
H411 C398 0.961 1_545 S
H412 C398 0.961 . S
H413 C399 0.958 . S
H414 C399 0.961 . S
H415 C399 0.960 1_545 S
C416 C417 1.391 . S
C416 C418 1.394 . S
C416 H432 0.931 . S
C417 C416 1.391 . S
C417 C421 1.376 . S
C418 C416 1.394 . S
C418 C419 1.369 . S
C418 C422 1.531 . S
C419 C418 1.369 . S
C419 C420 1.410 . S
C419 C427 1.503 1_655 S
C420 C419 1.410 . S
C420 C421 1.392 . S
C420 C423 1.511 1_655 S
C421 C417 1.376 . S
C421 C420 1.392 . S
C421 H433 0.929 . S
C422 C418 1.531 . S
C422 H434 0.960 . S
C422 H435 0.962 . S
C422 H436 0.960 . S
C423 C420 1.511 1_455 S
C423 H437 0.961 . S
C423 H438 0.961 . S
C423 H439 0.961 . S
C424 C425 1.370 . S
C424 C426 1.363 . S
C424 H440 0.931 . S
C425 C424 1.370 . S
C425 C429 1.408 . S
C426 C424 1.363 . S
C426 C427 1.370 . S
C426 C430 1.524 1_455 S
C427 C419 1.503 1_455 S
C427 C426 1.370 . S
C427 C428 1.403 . S
C428 C427 1.403 . S
C428 C429 1.404 . S
C428 C431 1.539 . S
C429 C425 1.408 . S
C429 C428 1.404 . S
C429 H441 0.930 . S
C430 C426 1.524 1_655 S
C430 H442 0.956 . S
C430 H443 0.961 . S
C430 H444 0.961 . S
C431 C428 1.539 . S
C431 H445 0.958 . S
C431 H446 0.961 . S
C431 H447 0.960 . S
H432 C416 0.931 . S
H433 C421 0.929 . S
H434 C422 0.960 . S
H435 C422 0.962 . S
H436 C422 0.960 . S
H437 C423 0.961 . S
H438 C423 0.961 . S
H439 C423 0.961 . S
H440 C424 0.931 . S
H441 C429 0.930 . S
H442 C430 0.956 . S
H443 C430 0.961 . S
H444 C430 0.961 . S
H445 C431 0.958 . S
H446 C431 0.961 . S
H447 C431 0.960 . S
C448 C449 1.391 . S
C448 C450 1.394 . S
C448 H464 0.931 . S
C449 C448 1.391 . S
C449 C453 1.376 . S
C450 C448 1.394 . S
C450 C451 1.369 . S
C450 C454 1.531 1_554 S
C451 C450 1.369 . S
C451 C452 1.410 . S
C451 C459 1.503 1_554 S
C452 C451 1.410 . S
C452 C453 1.392 . S
C452 C455 1.511 . S
C453 C449 1.376 . S
C453 C452 1.392 . S
C453 H465 0.929 . S
C454 C450 1.531 1_556 S
C454 H466 0.960 . S
C454 H467 0.962 . S
C454 H468 0.960 . S
C455 C452 1.511 . S
C455 H469 0.961 . S
C455 H470 0.961 . S
C455 H471 0.961 . S
C456 C457 1.370 . S
C456 C458 1.363 . S
C456 H472 0.931 . S
C457 C456 1.370 . S
C457 C461 1.408 . S
C458 C456 1.363 . S
C458 C459 1.370 . S
C458 C462 1.524 . S
C459 C451 1.503 1_556 S
C459 C458 1.370 . S
C459 C460 1.403 . S
C460 C459 1.403 . S
C460 C461 1.404 . S
C460 C463 1.539 1_556 S
C461 C457 1.408 . S
C461 C460 1.404 . S
C461 H473 0.930 . S
C462 C458 1.524 . S
C462 H474 0.956 . S
C462 H475 0.961 . S
C462 H476 0.961 . S
C463 C460 1.539 1_554 S
C463 H477 0.958 . S
C463 H478 0.961 . S
C463 H479 0.960 . S
H464 C448 0.931 . S
H465 C453 0.929 . S
H466 C454 0.960 . S
H467 C454 0.962 . S
H468 C454 0.960 . S
H469 C455 0.961 . S
H470 C455 0.961 . S
H471 C455 0.961 . S
H472 C456 0.931 . S
H473 C461 0.930 . S
H474 C462 0.956 . S
H475 C462 0.961 . S
H476 C462 0.961 . S
H477 C463 0.958 . S
H478 C463 0.961 . S
H479 C463 0.960 . S
C480 C481 1.391 . S
C480 C482 1.394 . S
C480 H496 0.931 . S
C481 C480 1.391 . S
C481 C485 1.376 . S
C482 C480 1.394 . S
C482 C483 1.369 . S
C482 C486 1.531 1_556 S
C483 C482 1.369 . S
C483 C484 1.410 . S
C483 C491 1.503 1_456 S
C484 C483 1.410 . S
C484 C485 1.392 . S
C484 C487 1.511 1_455 S
C485 C481 1.376 . S
C485 C484 1.392 . S
C485 H497 0.929 . S
C486 C482 1.531 1_554 S
C486 H498 0.960 1_455 S
C486 H499 0.962 . S
C486 H500 0.960 . S
C487 C484 1.511 1_655 S
C487 H501 0.942 1_655 S
C487 H502 0.961 . S
C487 H503 0.961 . S
C488 C489 1.370 . S
C488 C490 1.363 . S
C488 H504 0.931 . S
C489 C488 1.370 . S
C489 C493 1.408 . S
C490 C488 1.363 . S
C490 C491 1.370 . S
C490 C494 1.524 1_655 S
C491 C483 1.503 1_654 S
C491 C490 1.370 . S
C491 C492 1.403 . S
C492 C491 1.403 . S
C492 C493 1.404 . S
C492 C495 1.539 1_554 S
C493 C489 1.408 . S
C493 C492 1.404 . S
C493 H505 0.930 . S
C494 C490 1.524 1_455 S
C494 H506 0.956 . S
C494 H507 0.961 . S
C494 H508 0.961 . S
C495 C492 1.539 1_556 S
C495 H509 0.958 . S
C495 H510 0.961 . S
C495 H511 0.960 . S
H496 C480 0.931 . S
H497 C485 0.929 . S
H498 C486 0.960 1_655 S
H499 C486 0.962 . S
H500 C486 0.960 . S
H501 C487 0.942 1_455 S
H502 C487 0.961 . S
H503 C487 0.961 . S
H504 C488 0.931 . S
H505 C493 0.930 . S
H506 C494 0.956 . S
H507 C494 0.961 . S
H508 C494 0.961 . S
H509 C495 0.958 . S
H510 C495 0.961 . S
H511 C495 0.960 . S
C512 C513 1.391 . S
C512 C514 1.394 . S
C512 H528 0.931 . S
C513 C512 1.391 . S
C513 C517 1.376 . S
C514 C512 1.394 . S
C514 C515 1.369 . S
C514 C518 1.531 . S
C515 C514 1.369 . S
C515 C516 1.410 . S
C515 C523 1.503 . S
C516 C515 1.410 . S
C516 C517 1.392 . S
C516 C519 1.511 . S
C517 C513 1.376 . S
C517 C516 1.392 . S
C517 H529 0.929 . S
C518 C514 1.531 . S
C518 H530 0.960 . S
C518 H531 0.962 . S
C518 H532 0.960 . S
C519 C516 1.511 . S
C519 H533 0.961 . S
C519 H534 0.961 . S
C519 H535 0.961 . S
C520 C521 1.370 . S
C520 C522 1.363 . S
C520 H536 0.931 . S
C521 C520 1.370 . S
C521 C525 1.408 . S
C522 C520 1.363 . S
C522 C523 1.370 . S
C522 C526 1.524 . S
C523 C515 1.503 . S
C523 C522 1.370 . S
C523 C524 1.403 . S
C524 C523 1.403 . S
C524 C525 1.404 . S
C524 C527 1.539 . S
C525 C521 1.408 . S
C525 C524 1.404 . S
C525 H537 0.930 . S
C526 C522 1.524 . S
C526 H538 0.956 . S
C526 H539 0.961 . S
C526 H540 0.961 . S
C527 C524 1.539 . S
C527 H541 0.958 . S
C527 H542 0.961 . S
C527 H543 0.960 . S
H528 C512 0.931 . S
H529 C517 0.929 . S
H530 C518 0.960 . S
H531 C518 0.962 . S
H532 C518 0.960 . S
H533 C519 0.961 . S
H534 C519 0.961 . S
H535 C519 0.961 . S
H536 C520 0.931 . S
H537 C525 0.930 . S
H538 C526 0.956 . S
H539 C526 0.961 . S
H540 C526 0.961 . S
H541 C527 0.958 . S
H542 C527 0.961 . S
H543 C527 0.960 . S
C544 C545 1.391 . S
C544 C546 1.394 . S
C544 H560 0.931 . S
C545 C544 1.391 . S
C545 C549 1.376 . S
C546 C544 1.394 . S
C546 C547 1.369 . S
C546 C550 1.531 . S
C547 C546 1.369 . S
C547 C548 1.402 1_556 S
C547 C555 1.503 1_556 S
C548 C547 1.402 1_554 S
C548 C549 1.376 1_554 S
C548 C551 1.534 . S
C549 C545 1.376 . S
C549 C548 1.376 1_556 S
C549 H561 0.929 . S
C550 C546 1.531 . S
C550 H562 0.960 . S
C550 H563 0.962 . S
C550 H564 0.960 . S
C551 C548 1.534 . S
C551 H565 0.961 . S
C551 H566 0.961 . S
C551 H567 0.961 . S
C552 C553 1.370 . S
C552 C554 1.363 . S
C552 H568 0.931 . S
C553 C552 1.370 . S
C553 C557 1.408 . S
C554 C552 1.363 . S
C554 C555 1.370 . S
C554 C558 1.524 1_554 S
C555 C547 1.503 1_554 S
C555 C554 1.370 . S
C555 C556 1.403 . S
C556 C555 1.403 . S
C556 C557 1.404 . S
C556 C559 1.539 . S
C557 C553 1.408 . S
C557 C556 1.404 . S
C557 H569 0.930 . S
C558 C554 1.524 1_556 S
C558 H570 0.956 . S
C558 H571 0.961 . S
C558 H572 0.961 . S
C559 C556 1.539 . S
C559 H573 0.958 . S
C559 H574 0.961 . S
C559 H575 0.960 . S
H560 C544 0.931 . S
H561 C549 0.929 . S
H562 C550 0.960 . S
H563 C550 0.962 . S
H564 C550 0.960 . S
H565 C551 0.961 . S
H566 C551 0.961 . S
H567 C551 0.961 . S
H568 C552 0.931 . S
H569 C557 0.930 . S
H570 C558 0.956 . S
H571 C558 0.961 . S
H572 C558 0.961 . S
H573 C559 0.958 . S
H574 C559 0.961 . S
H575 C559 0.960 . S
C576 C577 1.391 . S
C576 C578 1.394 . S
C576 H592 0.931 . S
C577 C576 1.391 . S
C577 C581 1.376 . S
C578 C576 1.394 . S
C578 C579 1.369 . S
C578 C582 1.531 . S
C579 C578 1.369 . S
C579 C580 1.410 . S
C579 C587 1.503 . S
C580 C579 1.410 . S
C580 C581 1.392 . S
C580 C583 1.511 . S
C581 C577 1.376 . S
C581 C580 1.392 . S
C581 H593 0.929 . S
C582 C578 1.531 . S
C582 H594 0.960 . S
C582 H595 0.962 . S
C582 H596 0.960 . S
C583 C580 1.511 . S
C583 H597 0.961 . S
C583 H598 0.961 . S
C583 H599 0.961 . S
C584 C585 1.370 . S
C584 C586 1.363 . S
C584 H600 0.931 . S
C585 C584 1.370 . S
C585 C589 1.408 . S
C586 C584 1.363 . S
C586 C587 1.370 . S
C586 C590 1.524 . S
C587 C579 1.503 . S
C587 C586 1.370 . S
C587 C588 1.403 . S
C588 C587 1.403 . S
C588 C589 1.404 . S
C588 C591 1.539 . S
C589 C585 1.408 . S
C589 C588 1.404 . S
C589 H601 0.930 . S
C590 C586 1.524 . S
C590 H602 0.956 . S
C590 H603 0.961 . S
C590 H604 0.961 . S
C591 C588 1.539 . S
C591 H605 0.958 . S
C591 H606 0.961 . S
C591 H607 0.960 . S
H592 C576 0.931 . S
H593 C581 0.929 . S
H594 C582 0.960 . S
H595 C582 0.962 . S
H596 C582 0.960 . S
H597 C583 0.961 . S
H598 C583 0.961 . S
H599 C583 0.961 . S
H600 C584 0.931 . S
H601 C589 0.930 . S
H602 C590 0.956 . S
H603 C590 0.961 . S
H604 C590 0.961 . S
H605 C591 0.958 . S
H606 C591 0.961 . S
H607 C591 0.960 . S
C608 C609 1.391 . S
C608 C610 1.438 . S
C608 H624 0.931 . S
C609 C608 1.391 . S
C609 C613 1.376 . S
C610 C608 1.438 . S
C610 C611 1.376 . S
C610 C614 1.481 1_546 S
C611 C610 1.376 . S
C611 C612 1.410 . S
C611 C619 1.503 1_546 S
C612 C611 1.410 . S
C612 C613 1.392 . S
C612 C615 1.511 . S
C613 C609 1.376 . S
C613 C612 1.392 . S
C613 H625 0.929 . S
C614 C610 1.481 1_564 S
C614 H626 0.960 . S
C614 H627 0.962 . S
C614 H628 0.960 . S
C615 C612 1.511 . S
C615 H629 0.961 . S
C615 H630 0.961 . S
C615 H631 0.961 . S
C616 C617 1.370 . S
C616 C618 1.363 . S
C616 H632 0.931 . S
C617 C616 1.370 . S
C617 C621 1.408 . S
C618 C616 1.363 . S
C618 C619 1.370 . S
C618 C622 1.524 1_554 S
C619 C611 1.503 1_564 S
C619 C618 1.370 . S
C619 C620 1.403 1_565 S
C620 C619 1.403 1_545 S
C620 C621 1.404 1_545 S
C620 C623 1.539 . S
C621 C617 1.408 . S
C621 C620 1.404 1_565 S
C621 H633 0.930 1_565 S
C622 C618 1.524 1_556 S
C622 H634 0.956 . S
C622 H635 0.961 . S
C622 H636 0.961 . S
C623 C620 1.539 . S
C623 H637 0.958 . S
C623 H638 0.961 . S
C623 H639 0.960 . S
H624 C608 0.931 . S
H625 C613 0.929 . S
H626 C614 0.960 . S
H627 C614 0.962 . S
H628 C614 0.960 . S
H629 C615 0.961 . S
H630 C615 0.961 . S
H631 C615 0.961 . S
H632 C616 0.931 . S
H633 C621 0.930 1_545 S
H634 C622 0.956 . S
H635 C622 0.961 . S
H636 C622 0.961 . S
H637 C623 0.958 . S
H638 C623 0.961 . S
H639 C623 0.960 . S
C640 C641 1.391 . S
C640 C642 1.394 . S
C640 H656 0.931 . S
C641 C640 1.391 . S
C641 C645 1.376 . S
C642 C640 1.394 . S
C642 C643 1.369 . S
C642 C646 1.531 . S
C643 C642 1.369 . S
C643 C644 1.410 . S
C643 C651 1.503 . S
C644 C643 1.410 . S
C644 C645 1.392 . S
C644 C647 1.511 . S
C645 C641 1.376 . S
C645 C644 1.392 . S
C645 H657 0.929 . S
C646 C642 1.531 . S
C646 H658 0.960 . S
C646 H659 0.962 . S
C646 H660 0.960 . S
C647 C644 1.511 . S
C647 H661 0.961 . S
C647 H662 0.961 . S
C647 H663 0.961 . S
C648 C649 1.370 . S
C648 C650 1.363 . S
C648 H664 0.931 . S
C649 C648 1.370 . S
C649 C653 1.408 . S
C650 C648 1.363 . S
C650 C651 1.370 . S
C650 C654 1.524 . S
C651 C643 1.503 . S
C651 C650 1.370 . S
C651 C652 1.403 . S
C652 C651 1.403 . S
C652 C653 1.404 . S
C652 C655 1.539 . S
C653 C649 1.408 . S
C653 C652 1.404 . S
C653 H665 0.930 . S
C654 C650 1.524 . S
C654 H666 0.956 . S
C654 H667 0.961 . S
C654 H668 0.961 . S
C655 C652 1.539 . S
C655 H669 0.958 . S
C655 H670 0.961 . S
C655 H671 0.960 . S
H656 C640 0.931 . S
H657 C645 0.929 . S
H658 C646 0.960 . S
H659 C646 0.962 . S
H660 C646 0.960 . S
H661 C647 0.961 . S
H662 C647 0.961 . S
H663 C647 0.961 . S
H664 C648 0.931 . S
H665 C653 0.930 . S
H666 C654 0.956 . S
H667 C654 0.961 . S
H668 C654 0.961 . S
H669 C655 0.958 . S
H670 C655 0.961 . S
H671 C655 0.960 . S
C672 C673 1.391 . S
C672 C674 1.394 . S
C672 H688 0.931 . S
C673 C672 1.391 . S
C673 C677 1.376 . S
C674 C672 1.394 . S
C674 C675 1.369 . S
C674 C678 1.531 . S
C675 C674 1.369 . S
C675 C676 1.410 . S
C675 C683 1.503 . S
C676 C675 1.410 . S
C676 C677 1.392 . S
C676 C679 1.511 . S
C677 C673 1.376 . S
C677 C676 1.392 . S
C677 H689 0.929 . S
C678 C674 1.531 . S
C678 H690 0.960 . S
C678 H691 0.962 . S
C678 H692 0.960 . S
C679 C676 1.511 . S
C679 H693 0.961 . S
C679 H694 0.961 . S
C679 H695 0.961 . S
C680 C681 1.370 . S
C680 C682 1.363 . S
C680 H696 0.931 . S
C681 C680 1.370 . S
C681 C685 1.408 . S
C682 C680 1.363 . S
C682 C683 1.370 . S
C682 C686 1.524 . S
C683 C675 1.503 . S
C683 C682 1.370 . S
C683 C684 1.403 . S
C684 C683 1.403 . S
C684 C685 1.404 . S
C684 C687 1.539 . S
C685 C681 1.408 . S
C685 C684 1.404 . S
C685 H697 0.930 . S
C686 C682 1.524 . S
C686 H698 0.956 . S
C686 H699 0.961 . S
C686 H700 0.961 . S
C687 C684 1.539 . S
C687 H701 0.958 . S
C687 H702 0.961 . S
C687 H703 0.960 . S
H688 C672 0.931 . S
H689 C677 0.929 . S
H690 C678 0.960 . S
H691 C678 0.962 . S
H692 C678 0.960 . S
H693 C679 0.961 . S
H694 C679 0.961 . S
H695 C679 0.961 . S
H696 C680 0.931 . S
H697 C685 0.930 . S
H698 C686 0.956 . S
H699 C686 0.961 . S
H700 C686 0.961 . S
H701 C687 0.958 . S
H702 C687 0.961 . S
H703 C687 0.960 . S
C704 C705 1.391 . S
C704 C706 1.394 . S
C704 H720 0.931 . S
C705 C704 1.391 . S
C705 C709 1.376 . S
C706 C704 1.394 . S
C706 C707 1.369 . S
C706 C710 1.531 . S
C707 C706 1.369 . S
C707 C708 1.410 . S
C707 C715 1.503 . S
C708 C707 1.410 . S
C708 C709 1.392 . S
C708 C711 1.511 . S
C709 C705 1.376 . S
C709 C708 1.392 . S
C709 H721 0.929 . S
C710 C706 1.531 . S
C710 H722 0.960 . S
C710 H723 0.962 . S
C710 H724 0.960 . S
C711 C708 1.511 . S
C711 H725 0.961 . S
C711 H726 0.961 . S
C711 H727 0.961 . S
C712 C713 1.370 . S
C712 C714 1.363 . S
C712 H728 0.931 . S
C713 C712 1.370 . S
C713 C717 1.408 . S
C714 C712 1.363 . S
C714 C715 1.370 . S
C714 C718 1.524 . S
C715 C707 1.503 . S
C715 C714 1.370 . S
C715 C716 1.403 . S
C716 C715 1.403 . S
C716 C717 1.404 . S
C716 C719 1.539 . S
C717 C713 1.408 . S
C717 C716 1.404 . S
C717 H729 0.930 . S
C718 C714 1.524 . S
C718 H730 0.956 . S
C718 H731 0.961 . S
C718 H732 0.961 . S
C719 C716 1.539 . S
C719 H733 0.958 . S
C719 H734 0.961 . S
C719 H735 0.960 . S
H720 C704 0.931 . S
H721 C709 0.929 . S
H722 C710 0.960 . S
H723 C710 0.962 . S
H724 C710 0.960 . S
H725 C711 0.961 . S
H726 C711 0.961 . S
H727 C711 0.961 . S
H728 C712 0.931 . S
H729 C717 0.930 . S
H730 C718 0.956 . S
H731 C718 0.961 . S
H732 C718 0.961 . S
H733 C719 0.958 . S
H734 C719 0.961 . S
H735 C719 0.960 . S
C736 C737 1.391 . S
C736 C738 1.394 . S
C736 H752 0.931 . S
C737 C736 1.391 . S
C737 C741 1.376 . S
C738 C736 1.394 . S
C738 C739 1.369 . S
C738 C742 1.531 . S
C739 C738 1.369 . S
C739 C740 1.410 . S
C739 C747 1.503 . S
C740 C739 1.410 . S
C740 C741 1.392 . S
C740 C743 1.511 . S
C741 C737 1.376 . S
C741 C740 1.392 . S
C741 H753 0.929 . S
C742 C738 1.531 . S
C742 H754 0.960 . S
C742 H755 0.962 . S
C742 H756 0.960 . S
C743 C740 1.511 . S
C743 H757 0.961 . S
C743 H758 0.961 . S
C743 H759 0.961 . S
C744 C745 1.370 . S
C744 C746 1.363 . S
C744 H760 0.931 . S
C745 C744 1.370 . S
C745 C749 1.408 1_565 S
C746 C744 1.363 . S
C746 C747 1.370 . S
C746 C750 1.524 . S
C747 C739 1.503 . S
C747 C746 1.370 . S
C747 C748 1.403 . S
C748 C747 1.403 . S
C748 C749 1.404 1_565 S
C748 C751 1.539 . S
C749 C745 1.408 1_545 S
C749 C748 1.404 1_545 S
C749 H761 0.930 . S
C750 C746 1.524 . S
C750 H762 0.956 . S
C750 H763 0.961 . S
C750 H764 0.961 . S
C751 C748 1.539 . S
C751 H765 0.958 . S
C751 H766 0.961 1_565 S
C751 H767 0.960 . S
H752 C736 0.931 . S
H753 C741 0.929 . S
H754 C742 0.960 . S
H755 C742 0.962 . S
H756 C742 0.960 . S
H757 C743 0.961 . S
H758 C743 0.961 . S
H759 C743 0.961 . S
H760 C744 0.931 . S
H761 C749 0.930 . S
H762 C750 0.956 . S
H763 C750 0.961 . S
H764 C750 0.961 . S
H765 C751 0.958 . S
H766 C751 0.961 1_545 S
H767 C751 0.960 . S
C768 C769 1.391 . S
C768 C770 1.394 . S
C768 H784 0.931 . S
C769 C768 1.391 . S
C769 C773 1.376 . S
C770 C768 1.394 . S
C770 C771 1.369 . S
C770 C774 1.531 . S
C771 C770 1.369 . S
C771 C772 1.410 . S
C771 C779 1.503 . S
C772 C771 1.410 . S
C772 C773 1.392 . S
C772 C775 1.511 . S
C773 C769 1.376 . S
C773 C772 1.392 . S
C773 H785 0.929 . S
C774 C770 1.531 . S
C774 H786 0.960 . S
C774 H787 0.962 . S
C774 H788 0.960 . S
C775 C772 1.511 . S
C775 H789 0.961 . S
C775 H790 0.961 . S
C775 H791 0.961 . S
C776 C777 1.370 . S
C776 C778 1.363 . S
C776 H792 0.931 . S
C777 C776 1.370 . S
C777 C781 1.408 . S
C778 C776 1.363 . S
C778 C779 1.370 . S
C778 C782 1.524 . S
C779 C771 1.503 . S
C779 C778 1.370 . S
C779 C780 1.403 . S
C780 C779 1.403 . S
C780 C781 1.404 . S
C780 C783 1.539 . S
C781 C777 1.408 . S
C781 C780 1.404 . S
C781 H793 0.930 . S
C782 C778 1.524 . S
C782 H794 0.956 . S
C782 H795 0.961 . S
C782 H796 0.961 . S
C783 C780 1.539 . S
C783 H797 0.958 . S
C783 H798 0.961 . S
C783 H799 0.960 . S
H784 C768 0.931 . S
H785 C773 0.929 . S
H786 C774 0.960 . S
H787 C774 0.962 . S
H788 C774 0.960 . S
H789 C775 0.961 . S
H790 C775 0.961 . S
H791 C775 0.961 . S
H792 C776 0.931 . S
H793 C781 0.930 . S
H794 C782 0.956 . S
H795 C782 0.961 . S
H796 C782 0.961 . S
H797 C783 0.958 . S
H798 C783 0.961 . S
H799 C783 0.960 . S
C800 C801 1.391 . S
C800 C802 1.394 . S
C800 H816 0.931 . S
C801 C800 1.391 . S
C801 C805 1.376 . S
C802 C800 1.394 . S
C802 C803 1.369 . S
C802 C806 1.531 . S
C803 C802 1.369 . S
C803 C804 1.410 . S
C803 C811 1.503 . S
C804 C803 1.410 . S
C804 C805 1.392 . S
C804 C807 1.511 . S
C805 C801 1.376 . S
C805 C804 1.392 . S
C805 H817 0.929 . S
C806 C802 1.531 . S
C806 H818 0.960 . S
C806 H819 0.962 . S
C806 H820 0.960 . S
C807 C804 1.511 . S
C807 H821 0.961 . S
C807 H822 0.961 . S
C807 H823 0.961 . S
C808 C809 1.370 . S
C808 C810 1.363 . S
C808 H824 0.931 . S
C809 C808 1.370 . S
C809 C813 1.408 . S
C810 C808 1.363 . S
C810 C811 1.370 . S
C810 C814 1.524 . S
C811 C803 1.503 . S
C811 C810 1.370 . S
C811 C812 1.403 . S
C812 C811 1.403 . S
C812 C813 1.404 . S
C812 C815 1.539 . S
C813 C809 1.408 . S
C813 C812 1.404 . S
C813 H825 0.930 . S
C814 C810 1.524 . S
C814 H826 0.956 . S
C814 H827 0.961 . S
C814 H828 0.961 . S
C815 C812 1.539 . S
C815 H829 0.958 . S
C815 H830 0.961 . S
C815 H831 0.960 . S
H816 C800 0.931 . S
H817 C805 0.929 . S
H818 C806 0.960 . S
H819 C806 0.962 . S
H820 C806 0.960 . S
H821 C807 0.961 . S
H822 C807 0.961 . S
H823 C807 0.961 . S
H824 C808 0.931 . S
H825 C813 0.930 . S
H826 C814 0.956 . S
H827 C814 0.961 . S
H828 C814 0.961 . S
H829 C815 0.958 . S
H830 C815 0.961 . S
H831 C815 0.960 . S
C832 C833 1.391 . S
C832 C834 1.394 . S
C832 H848 0.931 . S
C833 C832 1.391 . S
C833 C837 1.376 . S
C834 C832 1.394 . S
C834 C835 1.369 . S
C834 C838 1.531 . S
C835 C834 1.369 . S
C835 C836 1.410 . S
C835 C843 1.503 . S
C836 C835 1.410 . S
C836 C837 1.392 . S
C836 C839 1.511 . S
C837 C833 1.376 . S
C837 C836 1.392 . S
C837 H849 0.929 . S
C838 C834 1.531 . S
C838 H850 0.960 . S
C838 H851 0.962 . S
C838 H852 0.960 . S
C839 C836 1.511 . S
C839 H853 0.961 . S
C839 H854 0.961 . S
C839 H855 0.961 . S
C840 C841 1.370 . S
C840 C842 1.362 . S
C840 H856 0.932 1_565 S
C841 C840 1.370 . S
C841 C845 1.408 . S
C842 C840 1.362 . S
C842 C843 1.370 . S
C842 C846 1.524 . S
C843 C835 1.503 . S
C843 C842 1.370 . S
C843 C844 1.403 . S
C844 C843 1.403 . S
C844 C845 1.404 . S
C844 C847 1.539 . S
C845 C841 1.408 . S
C845 C844 1.404 . S
C845 H857 0.930 . S
C846 C842 1.524 . S
C846 H858 0.956 . S
C846 H859 0.961 . S
C846 H860 0.961 1_565 S
C847 C844 1.539 . S
C847 H861 0.958 . S
C847 H862 0.961 . S
C847 H863 0.960 . S
H848 C832 0.931 . S
H849 C837 0.929 . S
H850 C838 0.960 . S
H851 C838 0.962 . S
H852 C838 0.960 . S
H853 C839 0.961 . S
H854 C839 0.961 . S
H855 C839 0.961 . S
H856 C840 0.932 1_545 S
H857 C845 0.930 . S
H858 C846 0.956 . S
H859 C846 0.961 . S
H860 C846 0.961 1_545 S
H861 C847 0.958 . S
H862 C847 0.961 . S
H863 C847 0.960 . S
C864 C865 1.391 . S
C864 C866 1.394 . S
C864 H880 0.931 . S
C865 C864 1.391 . S
C865 C869 1.376 . S
C866 C864 1.394 . S
C866 C867 1.369 . S
C866 C870 1.531 . S
C867 C866 1.369 . S
C867 C868 1.410 . S
C867 C875 1.503 . S
C868 C867 1.410 . S
C868 C869 1.392 . S
C868 C871 1.511 . S
C869 C865 1.376 . S
C869 C868 1.392 . S
C869 H881 0.929 . S
C870 C866 1.531 . S
C870 H882 0.960 . S
C870 H883 0.962 . S
C870 H884 0.960 . S
C871 C868 1.511 . S
C871 H885 0.961 . S
C871 H886 0.961 . S
C871 H887 0.961 . S
C872 C873 1.369 1_565 S
C872 C874 1.359 1_565 S
C872 H888 0.936 . S
C873 C872 1.369 1_545 S
C873 C877 1.408 . S
C874 C872 1.359 1_545 S
C874 C875 1.370 . S
C874 C878 1.524 . S
C875 C867 1.503 . S
C875 C874 1.370 . S
C875 C876 1.403 . S
C876 C875 1.403 . S
C876 C877 1.404 . S
C876 C879 1.539 . S
C877 C873 1.408 . S
C877 C876 1.404 . S
C877 H889 0.930 . S
C878 C874 1.524 . S
C878 H890 0.956 . S
C878 H891 0.961 . S
C878 H892 0.961 1_545 S
C879 C876 1.539 . S
C879 H893 0.958 . S
C879 H894 0.961 . S
C879 H895 0.960 . S
H880 C864 0.931 . S
H881 C869 0.929 . S
H882 C870 0.960 . S
H883 C870 0.962 . S
H884 C870 0.960 . S
H885 C871 0.961 . S
H886 C871 0.961 . S
H887 C871 0.961 . S
H888 C872 0.936 . S
H889 C877 0.930 . S
H890 C878 0.956 . S
H891 C878 0.961 . S
H892 C878 0.961 1_565 S
H893 C879 0.958 . S
H894 C879 0.961 . S
H895 C879 0.960 . S
C896 C897 1.391 . S
C896 C898 1.394 . S
C896 H912 0.931 . S
C897 C896 1.391 . S
C897 C901 1.376 . S
C898 C896 1.394 . S
C898 C899 1.369 . S
C898 C902 1.531 . S
C899 C898 1.369 . S
C899 C900 1.410 . S
C899 C907 1.503 . S
C900 C899 1.410 . S
C900 C901 1.392 . S
C900 C903 1.511 . S
C901 C897 1.376 . S
C901 C900 1.392 . S
C901 H913 0.929 . S
C902 C898 1.531 . S
C902 H914 0.960 . S
C902 H915 0.962 . S
C902 H916 0.960 . S
C903 C900 1.511 . S
C903 H917 0.961 . S
C903 H918 0.961 . S
C903 H919 0.961 . S
C904 C905 1.370 . S
C904 C906 1.363 . S
C904 H920 0.931 . S
C905 C904 1.370 . S
C905 C909 1.408 . S
C906 C904 1.363 . S
C906 C907 1.370 . S
C906 C910 1.524 . S
C907 C899 1.503 . S
C907 C906 1.370 . S
C907 C908 1.403 . S
C908 C907 1.403 . S
C908 C909 1.404 . S
C908 C911 1.539 . S
C909 C905 1.408 . S
C909 C908 1.404 . S
C909 H921 0.930 . S
C910 C906 1.524 . S
C910 H922 0.956 . S
C910 H923 0.961 . S
C910 H924 0.961 . S
C911 C908 1.539 . S
C911 H925 0.958 . S
C911 H926 0.961 . S
C911 H927 0.960 . S
H912 C896 0.931 . S
H913 C901 0.929 . S
H914 C902 0.960 . S
H915 C902 0.962 . S
H916 C902 0.960 . S
H917 C903 0.961 . S
H918 C903 0.961 . S
H919 C903 0.961 . S
H920 C904 0.931 . S
H921 C909 0.930 . S
H922 C910 0.956 . S
H923 C910 0.961 . S
H924 C910 0.961 . S
H925 C911 0.958 . S
H926 C911 0.961 . S
H927 C911 0.960 . S
C928 C929 1.391 . S
C928 C930 1.394 . S
C928 H944 0.931 . S
C929 C928 1.391 . S
C929 C933 1.376 . S
C930 C928 1.394 . S
C930 C931 1.369 . S
C930 C934 1.531 . S
C931 C930 1.369 . S
C931 C932 1.410 . S
C931 C939 1.503 . S
C932 C931 1.410 . S
C932 C933 1.392 . S
C932 C935 1.511 . S
C933 C929 1.376 . S
C933 C932 1.392 . S
C933 H945 0.929 . S
C934 C930 1.531 . S
C934 H946 0.960 . S
C934 H947 0.962 . S
C934 H948 0.960 . S
C935 C932 1.511 . S
C935 H949 0.961 . S
C935 H950 0.961 . S
C935 H951 0.961 . S
C936 C937 1.370 . S
C936 C938 1.363 . S
C936 H952 0.931 . S
C937 C936 1.370 . S
C937 C941 1.408 . S
C938 C936 1.363 . S
C938 C939 1.370 . S
C938 C942 1.524 . S
C939 C931 1.503 . S
C939 C938 1.370 . S
C939 C940 1.403 . S
C940 C939 1.403 . S
C940 C941 1.404 . S
C940 C943 1.539 . S
C941 C937 1.408 . S
C941 C940 1.404 . S
C941 H953 0.930 . S
C942 C938 1.524 . S
C942 H954 0.956 . S
C942 H955 0.961 . S
C942 H956 0.961 . S
C943 C940 1.539 . S
C943 H957 0.958 . S
C943 H958 0.961 . S
C943 H959 0.960 . S
H944 C928 0.931 . S
H945 C933 0.929 . S
H946 C934 0.960 . S
H947 C934 0.962 . S
H948 C934 0.960 . S
H949 C935 0.961 . S
H950 C935 0.961 . S
H951 C935 0.961 . S
H952 C936 0.931 . S
H953 C941 0.930 . S
H954 C942 0.956 . S
H955 C942 0.961 . S
H956 C942 0.961 . S
H957 C943 0.958 . S
H958 C943 0.961 . S
H959 C943 0.960 . S
C960 C961 1.391 . S
C960 C962 1.394 . S
C960 H976 0.931 . S
C961 C960 1.391 . S
C961 C965 1.376 . S
C962 C960 1.394 . S
C962 C963 1.369 . S
C962 C966 1.531 . S
C963 C962 1.369 . S
C963 C964 1.410 . S
C963 C971 1.503 . S
C964 C963 1.410 . S
C964 C965 1.392 . S
C964 C967 1.511 . S
C965 C961 1.376 . S
C965 C964 1.392 . S
C965 H977 0.929 1_545 S
C966 C962 1.531 . S
C966 H978 0.960 . S
C966 H979 0.962 . S
C966 H980 0.960 . S
C967 C964 1.511 . S
C967 H981 0.961 . S
C967 H982 0.961 . S
C967 H983 0.961 . S
C968 C969 1.370 . S
C968 C970 1.363 . S
C968 H984 0.931 . S
C969 C968 1.370 . S
C969 C973 1.408 . S
C970 C968 1.363 . S
C970 C971 1.370 . S
C970 C974 1.524 . S
C971 C963 1.503 . S
C971 C970 1.370 . S
C971 C972 1.403 . S
C972 C971 1.403 . S
C972 C973 1.404 . S
C972 C975 1.539 . S
C973 C969 1.408 . S
C973 C972 1.404 . S
C973 H985 0.930 . S
C974 C970 1.524 . S
C974 H986 0.956 . S
C974 H987 0.961 . S
C974 H988 0.961 . S
C975 C972 1.539 . S
C975 H989 0.958 . S
C975 H990 0.961 . S
C975 H991 0.960 . S
H976 C960 0.931 . S
H977 C965 0.929 1_565 S
H978 C966 0.960 . S
H979 C966 0.962 . S
H980 C966 0.960 . S
H981 C967 0.961 . S
H982 C967 0.961 . S
H983 C967 0.961 . S
H984 C968 0.931 . S
H985 C973 0.930 . S
H986 C974 0.956 . S
H987 C974 0.961 . S
H988 C974 0.961 . S
H989 C975 0.958 . S
H990 C975 0.961 . S
H991 C975 0.960 . S
C992 C993 1.391 . S
C992 C994 1.394 . S
C992 H1008 0.931 . S
C993 C992 1.391 . S
C993 C997 1.376 . S
C994 C992 1.394 . S
C994 C995 1.369 . S
C994 C998 1.531 . S
C995 C994 1.369 . S
C995 C996 1.410 . S
C995 C1003 1.503 . S
C996 C995 1.410 . S
C996 C997 1.392 . S
C996 C999 1.511 . S
C997 C993 1.376 . S
C997 C996 1.392 . S
C997 H1009 0.929 . S
C998 C994 1.531 . S
C998 H1010 0.960 . S
C998 H1011 0.962 . S
C998 H1012 0.960 . S
C999 C996 1.511 . S
C999 H1013 0.961 . S
C999 H1014 0.961 . S
C999 H1015 0.961 . S
C1000 C1001 1.370 . S
C1000 C1002 1.363 . S
C1000 H1016 0.931 . S
C1001 C1000 1.370 . S
C1001 C1005 1.408 . S
C1002 C1000 1.363 . S
C1002 C1003 1.370 . S
C1002 C1006 1.524 . S
C1003 C995 1.503 . S
C1003 C1002 1.370 . S
C1003 C1004 1.403 . S
C1004 C1003 1.403 . S
C1004 C1005 1.404 . S
C1004 C1007 1.539 . S
C1005 C1001 1.408 . S
C1005 C1004 1.404 . S
C1005 H1017 0.930 1_565 S
C1006 C1002 1.524 . S
C1006 H1018 0.956 . S
C1006 H1019 0.961 . S
C1006 H1020 0.961 . S
C1007 C1004 1.539 . S
C1007 H1021 0.958 . S
C1007 H1022 0.961 . S
C1007 H1023 0.960 . S
H1008 C992 0.931 . S
H1009 C997 0.929 . S
H1010 C998 0.960 . S
H1011 C998 0.962 . S
H1012 C998 0.960 . S
H1013 C999 0.961 . S
H1014 C999 0.961 . S
H1015 C999 0.961 . S
H1016 C1000 0.931 . S
H1017 C1005 0.930 1_545 S
H1018 C1006 0.956 . S
H1019 C1006 0.961 . S
H1020 C1006 0.961 . S
H1021 C1007 0.958 . S
H1022 C1007 0.961 . S
H1023 C1007 0.960 . S
C1024 C1025 1.391 . S
C1024 C1026 1.394 . S
C1024 H1040 0.931 . S
C1025 C1024 1.391 . S
C1025 C1029 1.376 . S
C1026 C1024 1.394 . S
C1026 C1027 1.369 . S
C1026 C1030 1.531 . S
C1027 C1026 1.369 . S
C1027 C1028 1.410 . S
C1027 C1035 1.503 . S
C1028 C1027 1.410 . S
C1028 C1029 1.392 . S
C1028 C1031 1.511 . S
C1029 C1025 1.376 . S
C1029 C1028 1.392 . S
C1029 H1041 0.929 . S
C1030 C1026 1.531 . S
C1030 H1042 0.960 . S
C1030 H1043 0.962 . S
C1030 H1044 0.960 . S
C1031 C1028 1.511 . S
C1031 H1045 0.961 . S
C1031 H1046 0.961 . S
C1031 H1047 0.961 . S
C1032 C1033 1.370 . S
C1032 C1034 1.363 . S
C1032 H1048 0.931 . S
C1033 C1032 1.370 . S
C1033 C1037 1.408 . S
C1034 C1032 1.363 . S
C1034 C1035 1.370 . S
C1034 C1038 1.524 . S
C1035 C1027 1.503 . S
C1035 C1034 1.370 . S
C1035 C1036 1.403 . S
C1036 C1035 1.403 . S
C1036 C1037 1.404 . S
C1036 C1039 1.539 . S
C1037 C1033 1.408 . S
C1037 C1036 1.404 . S
C1037 H1049 0.930 . S
C1038 C1034 1.524 . S
C1038 H1050 0.956 . S
C1038 H1051 0.961 . S
C1038 H1052 0.961 . S
C1039 C1036 1.539 . S
C1039 H1053 0.958 . S
C1039 H1054 0.961 . S
C1039 H1055 0.960 . S
H1040 C1024 0.931 . S
H1041 C1029 0.929 . S
H1042 C1030 0.960 . S
H1043 C1030 0.962 . S
H1044 C1030 0.960 . S
H1045 C1031 0.961 . S
H1046 C1031 0.961 . S
H1047 C1031 0.961 . S
H1048 C1032 0.931 . S
H1049 C1037 0.930 . S
H1050 C1038 0.956 . S
H1051 C1038 0.961 . S
H1052 C1038 0.961 . S
H1053 C1039 0.958 . S
H1054 C1039 0.961 . S
H1055 C1039 0.960 . S
C1056 C1057 1.391 . S
C1056 C1058 1.394 . S
C1056 H1072 0.931 . S
C1057 C1056 1.391 . S
C1057 C1061 1.376 . S
C1058 C1056 1.394 . S
C1058 C1059 1.369 . S
C1058 C1062 1.531 . S
C1059 C1058 1.369 . S
C1059 C1060 1.410 . S
C1059 C1067 1.503 . S
C1060 C1059 1.410 . S
C1060 C1061 1.392 . S
C1060 C1063 1.511 . S
C1061 C1057 1.376 . S
C1061 C1060 1.392 . S
C1061 H1073 0.929 . S
C1062 C1058 1.531 . S
C1062 H1074 0.960 . S
C1062 H1075 0.962 . S
C1062 H1076 0.960 . S
C1063 C1060 1.511 . S
C1063 H1077 0.961 . S
C1063 H1078 0.961 . S
C1063 H1079 0.961 . S
C1064 C1065 1.370 . S
C1064 C1066 1.363 . S
C1064 H1080 0.931 . S
C1065 C1064 1.370 . S
C1065 C1069 1.408 . S
C1066 C1064 1.363 . S
C1066 C1067 1.370 . S
C1066 C1070 1.524 . S
C1067 C1059 1.503 . S
C1067 C1066 1.370 . S
C1067 C1068 1.403 . S
C1068 C1067 1.403 . S
C1068 C1069 1.404 . S
C1068 C1071 1.539 . S
C1069 C1065 1.408 . S
C1069 C1068 1.404 . S
C1069 H1081 0.930 . S
C1070 C1066 1.524 . S
C1070 H1082 0.956 . S
C1070 H1083 0.961 . S
C1070 H1084 0.961 . S
C1071 C1068 1.539 . S
C1071 H1085 0.958 . S
C1071 H1086 0.961 . S
C1071 H1087 0.960 . S
H1072 C1056 0.931 . S
H1073 C1061 0.929 . S
H1074 C1062 0.960 . S
H1075 C1062 0.962 . S
H1076 C1062 0.960 . S
H1077 C1063 0.961 . S
H1078 C1063 0.961 . S
H1079 C1063 0.961 . S
H1080 C1064 0.931 . S
H1081 C1069 0.930 . S
H1082 C1070 0.956 . S
H1083 C1070 0.961 . S
H1084 C1070 0.961 . S
H1085 C1071 0.958 . S
H1086 C1071 0.961 . S
H1087 C1071 0.960 . S
C1088 C1089 1.391 . S
C1088 C1090 1.394 . S
C1088 H1104 0.931 . S
C1089 C1088 1.391 . S
C1089 C1093 1.376 . S
C1090 C1088 1.394 . S
C1090 C1091 1.369 . S
C1090 C1094 1.531 . S
C1091 C1090 1.369 . S
C1091 C1092 1.410 . S
C1091 C1099 1.503 . S
C1092 C1091 1.410 . S
C1092 C1093 1.392 . S
C1092 C1095 1.511 . S
C1093 C1089 1.376 . S
C1093 C1092 1.392 . S
C1093 H1105 0.929 . S
C1094 C1090 1.531 . S
C1094 H1106 0.960 . S
C1094 H1107 0.962 . S
C1094 H1108 0.960 . S
C1095 C1092 1.511 . S
C1095 H1109 0.961 . S
C1095 H1110 0.961 . S
C1095 H1111 0.961 . S
C1096 C1097 1.370 . S
C1096 C1098 1.363 . S
C1096 H1112 0.931 1_565 S
C1097 C1096 1.370 . S
C1097 C1101 1.408 . S
C1098 C1096 1.363 . S
C1098 C1099 1.370 . S
C1098 C1102 1.524 . S
C1099 C1091 1.503 . S
C1099 C1098 1.370 . S
C1099 C1100 1.403 . S
C1100 C1099 1.403 . S
C1100 C1101 1.404 . S
C1100 C1103 1.539 . S
C1101 C1097 1.408 . S
C1101 C1100 1.404 . S
C1101 H1113 0.930 . S
C1102 C1098 1.524 . S
C1102 H1114 0.956 . S
C1102 H1115 0.961 . S
C1102 H1116 0.961 . S
C1103 C1100 1.539 . S
C1103 H1117 0.958 . S
C1103 H1118 0.961 . S
C1103 H1119 0.960 . S
H1104 C1088 0.931 . S
H1105 C1093 0.929 . S
H1106 C1094 0.960 . S
H1107 C1094 0.962 . S
H1108 C1094 0.960 . S
H1109 C1095 0.961 . S
H1110 C1095 0.961 . S
H1111 C1095 0.961 . S
H1112 C1096 0.931 1_545 S
H1113 C1101 0.930 . S
H1114 C1102 0.956 . S
H1115 C1102 0.961 . S
H1116 C1102 0.961 . S
H1117 C1103 0.958 . S
H1118 C1103 0.961 . S
H1119 C1103 0.960 . S
C1120 C1121 1.391 . S
C1120 C1122 1.394 . S
C1120 H1136 0.931 . S
C1121 C1120 1.391 . S
C1121 C1125 1.376 . S
C1122 C1120 1.394 . S
C1122 C1123 1.369 . S
C1122 C1126 1.531 . S
C1123 C1122 1.369 . S
C1123 C1124 1.410 . S
C1123 C1131 1.503 . S
C1124 C1123 1.410 . S
C1124 C1125 1.392 . S
C1124 C1127 1.511 . S
C1125 C1121 1.376 . S
C1125 C1124 1.392 . S
C1125 H1137 0.929 . S
C1126 C1122 1.531 . S
C1126 H1138 0.960 . S
C1126 H1139 0.962 . S
C1126 H1140 0.960 . S
C1127 C1124 1.511 . S
C1127 H1141 0.961 . S
C1127 H1142 0.961 . S
C1127 H1143 0.961 . S
C1128 C1129 1.370 . S
C1128 C1130 1.363 . S
C1128 H1144 0.931 1_545 S
C1129 C1128 1.370 . S
C1129 C1133 1.408 . S
C1130 C1128 1.363 . S
C1130 C1131 1.370 . S
C1130 C1134 1.524 . S
C1131 C1123 1.503 . S
C1131 C1130 1.370 . S
C1131 C1132 1.403 . S
C1132 C1131 1.403 . S
C1132 C1133 1.404 . S
C1132 C1135 1.539 . S
C1133 C1129 1.408 . S
C1133 C1132 1.404 . S
C1133 H1145 0.930 . S
C1134 C1130 1.524 . S
C1134 H1146 0.956 . S
C1134 H1147 0.961 . S
C1134 H1148 0.961 . S
C1135 C1132 1.539 . S
C1135 H1149 0.958 . S
C1135 H1150 0.961 . S
C1135 H1151 0.960 . S
H1136 C1120 0.931 . S
H1137 C1125 0.929 . S
H1138 C1126 0.960 . S
H1139 C1126 0.962 . S
H1140 C1126 0.960 . S
H1141 C1127 0.961 . S
H1142 C1127 0.961 . S
H1143 C1127 0.961 . S
H1144 C1128 0.931 1_565 S
H1145 C1133 0.930 . S
H1146 C1134 0.956 . S
H1147 C1134 0.961 . S
H1148 C1134 0.961 . S
H1149 C1135 0.958 . S
H1150 C1135 0.961 . S
H1151 C1135 0.960 . S
C1152 C1153 1.391 . S
C1152 C1154 1.394 . S
C1152 H1168 0.931 . S
C1153 C1152 1.391 . S
C1153 C1157 1.376 . S
C1154 C1152 1.394 . S
C1154 C1155 1.369 . S
C1154 C1158 1.531 . S
C1155 C1154 1.369 . S
C1155 C1156 1.410 . S
C1155 C1163 1.503 . S
C1156 C1155 1.410 . S
C1156 C1157 1.392 . S
C1156 C1159 1.511 . S
C1157 C1153 1.376 . S
C1157 C1156 1.392 . S
C1157 H1169 0.929 . S
C1158 C1154 1.531 . S
C1158 H1170 0.960 . S
C1158 H1171 0.962 . S
C1158 H1172 0.960 . S
C1159 C1156 1.511 . S
C1159 H1173 0.961 . S
C1159 H1174 0.961 . S
C1159 H1175 0.961 . S
C1160 C1161 1.370 . S
C1160 C1162 1.363 . S
C1160 H1176 0.931 . S
C1161 C1160 1.370 . S
C1161 C1165 1.408 . S
C1162 C1160 1.363 . S
C1162 C1163 1.370 . S
C1162 C1166 1.524 . S
C1163 C1155 1.503 . S
C1163 C1162 1.370 . S
C1163 C1164 1.403 . S
C1164 C1163 1.403 . S
C1164 C1165 1.404 . S
C1164 C1167 1.539 . S
C1165 C1161 1.408 . S
C1165 C1164 1.404 . S
C1165 H1177 0.930 . S
C1166 C1162 1.524 . S
C1166 H1178 0.956 . S
C1166 H1179 0.961 . S
C1166 H1180 0.961 . S
C1167 C1164 1.539 . S
C1167 H1181 0.958 . S
C1167 H1182 0.961 . S
C1167 H1183 0.960 . S
H1168 C1152 0.931 . S
H1169 C1157 0.929 . S
H1170 C1158 0.960 . S
H1171 C1158 0.962 . S
H1172 C1158 0.960 . S
H1173 C1159 0.961 . S
H1174 C1159 0.961 . S
H1175 C1159 0.961 . S
H1176 C1160 0.931 . S
H1177 C1165 0.930 . S
H1178 C1166 0.956 . S
H1179 C1166 0.961 . S
H1180 C1166 0.961 . S
H1181 C1167 0.958 . S
H1182 C1167 0.961 . S
H1183 C1167 0.960 . S
C1184 C1185 1.391 . S
C1184 C1186 1.394 . S
C1184 H1200 0.931 . S
C1185 C1184 1.391 . S
C1185 C1189 1.376 . S
C1186 C1184 1.394 . S
C1186 C1187 1.369 . S
C1186 C1190 1.531 . S
C1187 C1186 1.369 . S
C1187 C1188 1.410 . S
C1187 C1195 1.503 . S
C1188 C1187 1.410 . S
C1188 C1189 1.392 . S
C1188 C1191 1.511 . S
C1189 C1185 1.376 . S
C1189 C1188 1.392 . S
C1189 H1201 0.929 . S
C1190 C1186 1.531 . S
C1190 H1202 0.960 . S
C1190 H1203 0.962 . S
C1190 H1204 0.960 . S
C1191 C1188 1.511 . S
C1191 H1205 0.961 . S
C1191 H1206 0.961 . S
C1191 H1207 0.961 . S
C1192 C1193 1.370 . S
C1192 C1194 1.363 . S
C1192 H1208 0.931 . S
C1193 C1192 1.370 . S
C1193 C1197 1.408 . S
C1194 C1192 1.363 . S
C1194 C1195 1.370 . S
C1194 C1198 1.524 . S
C1195 C1187 1.503 . S
C1195 C1194 1.370 . S
C1195 C1196 1.403 . S
C1196 C1195 1.403 . S
C1196 C1197 1.404 . S
C1196 C1199 1.539 . S
C1197 C1193 1.408 . S
C1197 C1196 1.404 . S
C1197 H1209 0.930 . S
C1198 C1194 1.524 . S
C1198 H1210 0.956 . S
C1198 H1211 0.961 . S
C1198 H1212 0.961 . S
C1199 C1196 1.539 . S
C1199 H1213 0.958 . S
C1199 H1214 0.961 . S
C1199 H1215 0.960 . S
H1200 C1184 0.931 . S
H1201 C1189 0.929 . S
H1202 C1190 0.960 . S
H1203 C1190 0.962 . S
H1204 C1190 0.960 . S
H1205 C1191 0.961 . S
H1206 C1191 0.961 . S
H1207 C1191 0.961 . S
H1208 C1192 0.931 . S
H1209 C1197 0.930 . S
H1210 C1198 0.956 . S
H1211 C1198 0.961 . S
H1212 C1198 0.961 . S
H1213 C1199 0.958 . S
H1214 C1199 0.961 . S
H1215 C1199 0.960 . S
C1216 C1217 1.391 . S
C1216 C1218 1.394 . S
C1216 H1232 0.931 . S
C1217 C1216 1.391 . S
C1217 C1221 1.376 . S
C1218 C1216 1.394 . S
C1218 C1219 1.369 . S
C1218 C1222 1.531 . S
C1219 C1218 1.369 . S
C1219 C1220 1.410 . S
C1219 C1227 1.503 . S
C1220 C1219 1.410 . S
C1220 C1221 1.392 . S
C1220 C1223 1.511 . S
C1221 C1217 1.376 . S
C1221 C1220 1.392 . S
C1221 H1233 0.929 . S
C1222 C1218 1.531 . S
C1222 H1234 0.960 . S
C1222 H1235 0.962 . S
C1222 H1236 0.960 . S
C1223 C1220 1.511 . S
C1223 H1237 0.961 . S
C1223 H1238 0.961 . S
C1223 H1239 0.961 . S
C1224 C1225 1.370 1_565 S
C1224 C1226 1.362 1_565 S
C1224 H1240 0.932 . S
C1225 C1224 1.370 1_545 S
C1225 C1229 1.408 . S
C1226 C1224 1.362 1_545 S
C1226 C1227 1.370 . S
C1226 C1230 1.524 . S
C1227 C1219 1.503 . S
C1227 C1226 1.370 . S
C1227 C1228 1.403 . S
C1228 C1227 1.403 . S
C1228 C1229 1.404 . S
C1228 C1231 1.539 . S
C1229 C1225 1.408 . S
C1229 C1228 1.404 . S
C1229 H1241 0.930 . S
C1230 C1226 1.524 . S
C1230 H1242 0.956 . S
C1230 H1243 0.961 . S
C1230 H1244 0.961 1_545 S
C1231 C1228 1.539 . S
C1231 H1245 0.958 . S
C1231 H1246 0.961 . S
C1231 H1247 0.960 . S
H1232 C1216 0.931 . S
H1233 C1221 0.929 . S
H1234 C1222 0.960 . S
H1235 C1222 0.962 . S
H1236 C1222 0.960 . S
H1237 C1223 0.961 . S
H1238 C1223 0.961 . S
H1239 C1223 0.961 . S
H1240 C1224 0.932 . S
H1241 C1229 0.930 . S
H1242 C1230 0.956 . S
H1243 C1230 0.961 . S
H1244 C1230 0.961 1_565 S
H1245 C1231 0.958 . S
H1246 C1231 0.961 . S
H1247 C1231 0.960 . S
C225 C196 1.497 . S
C233 C0 1.486 . S
C257 C39 1.489 . S
C265 C11 1.496 . S
C289 C165 1.490 . S
C297 C25 1.495 . S
C321 C14 1.476 . S
C329 C98 1.495 . S
C353 C28 1.489 . S
C361 C168 1.490 . S
C385 C137 1.497 . S
C393 C53 1.493 . S
C417 C42 1.476 . S
C425 C70 1.495 . S
C449 C140 1.478 . S
C457 C56 1.495 . S
C481 C67 1.488 . S
C489 C95 1.497 . S
C513 C221 1.486 . S
C521 C81 1.498 . S
C545 C112 1.492 . S
C553 C84 1.488 . S
C577 C193 1.495 . S
C585 C109 1.494 . S
C609 C123 1.495 . S
C617 C151 1.494 . S
C641 C210 1.498 . S
C649 C126 1.486 . S
C673 C154 1.483 . S
C681 C182 1.492 . S
C705 C207 1.486 . S
C713 C179 1.498 . S
C737 C75 1.436 . S
C745 C9 1.432 1_565 S
C769 C5 1.435 . S
C777 C79 1.437 . S
C801 C19 1.434 . S
C809 C65 1.437 . S
C833 C61 1.432 . S
C841 C23 1.434 1_565 S
C865 C103 1.432 . S
C873 C37 1.433 1_545 S
C897 C107 1.430 . S
C905 C33 1.439 . S
C929 C93 1.429 . S
C937 C47 1.439 . S
C961 C51 1.437 1_545 S
C969 C89 1.439 . S
C993 C187 1.432 . S
C1001 C121 1.430 1_565 S
C1025 C117 1.439 . S
C1033 C191 1.435 . S
C1057 C131 1.438 . S
C1065 C177 1.434 . S
C1089 C173 1.437 . S
C1097 C135 1.438 1_565 S
C1121 C215 1.434 . S
C1129 C149 1.435 1_545 S
C1153 C219 1.427 . S
C1161 C145 1.439 . S
C1185 C159 1.438 . S
C1193 C205 1.436 . S
C1217 C201 1.432 . S
C1225 C163 1.433 1_545 S
