# Generated by pormake.
# Topology npo, (4)-cn, num edge types: 1
# Building blocks:
#     Node 0, Type 0, BuildingBlock: QUQFOY_clean_sbu_1, # of connection points: 4
#     Node 1, Type 0, BuildingBlock: QUQFOY_clean_sbu_1, # of connection points: 4
#     Node 2, Type 0, BuildingBlock: QUQFOY_clean_sbu_1, # of connection points: 4
#     Node 3, Type 0, BuildingBlock: QUQFOY_clean_sbu_1, # of connection points: 4
#     Node 4, Type 0, BuildingBlock: QUQFOY_clean_sbu_1, # of connection points: 4
#     Node 5, Type 0, BuildingBlock: QUQFOY_clean_sbu_1, # of connection points: 4
#     Edge 6, Type (0, 0), BuildingBlock: KIFKEQ_clean_linker_1, # of connection points: 2
#     Edge 7, Type (0, 0), BuildingBlock: KIFKEQ_clean_linker_1, # of connection points: 2
#     Edge 8, Type (0, 0), BuildingBlock: KIFKEQ_clean_linker_1, # of connection points: 2
#     Edge 9, Type (0, 0), BuildingBlock: KIFKEQ_clean_linker_1, # of connection points: 2
#     Edge 10, Type (0, 0), BuildingBlock: KIFKEQ_clean_linker_1, # of connection points: 2
#     Edge 11, Type (0, 0), BuildingBlock: KIFKEQ_clean_linker_1, # of connection points: 2
#     Edge 12, Type (0, 0), BuildingBlock: KIFKEQ_clean_linker_1, # of connection points: 2
#     Edge 13, Type (0, 0), BuildingBlock: KIFKEQ_clean_linker_1, # of connection points: 2
#     Edge 14, Type (0, 0), BuildingBlock: KIFKEQ_clean_linker_1, # of connection points: 2
#     Edge 15, Type (0, 0), BuildingBlock: KIFKEQ_clean_linker_1, # of connection points: 2
#     Edge 16, Type (0, 0), BuildingBlock: KIFKEQ_clean_linker_1, # of connection points: 2
#     Edge 17, Type (0, 0), BuildingBlock: KIFKEQ_clean_linker_1, # of connection points: 2
# Relax obj value: 0.266
# Max RMSD: 0.245
# Mean RMSD: 0.245
data_MOF--net-npo--node1-QUQFOY_clean_sbu_1--edge1-KIFKEQ_clean_linker_1
_symmetry_space_group_name_H-M    P1
_symmetry_Int_Tables_number       1
_symmetry_cell_setting            triclinic
loop_
_symmetry_equiv_pos_as_xyz
'x, y, z'
_cell_length_a     44.62603
_cell_length_b     44.616301
_cell_length_c     28.638113
_cell_angle_alpha  89.970912
_cell_angle_beta   89.972654
_cell_angle_gamma 119.99477
loop_
_atom_site_label
_atom_site_type_symbol
_atom_site_fract_x
_atom_site_fract_y
_atom_site_fract_z
_atom_type_partial_charge
O0 O 0.59796 0.14056 0.28786 0.0
Cd1 Cd 0.54491 0.11181 0.2942 0.0
Cd2 Cd 0.55005 0.11228 0.19605 0.0
O3 O 0.60187 0.13594 0.21173 0.0
O4 O 0.5383 0.10535 0.36279 0.0
O5 O 0.52203 0.06174 0.31365 0.0
C6 C 0.52444 0.07257 0.35605 0.0
C7 C 0.53167 0.07344 0.13387 0.0
C8 C 0.61617 0.14654 0.25124 0.0
C9 C 0.51326 0.14655 0.23951 0.0
O10 O 0.52566 0.14091 0.2028 0.0
O11 O 0.51678 0.13557 0.27886 0.0
O12 O 0.55044 0.10628 0.12741 0.0
O13 O 0.52312 0.06234 0.17618 0.0
O14 O 0.45106 0.60298 0.7868 0.0
Cd15 Cd 0.42668 0.55005 0.79485 0.0
Cd16 Cd 0.43024 0.55334 0.6965 0.0
O17 O 0.45861 0.60543 0.71051 0.0
O18 O 0.42737 0.54453 0.86357 0.0
O19 O 0.45402 0.52741 0.81443 0.0
C20 C 0.44614 0.5305 0.85688 0.0
C21 C 0.45 0.53405 0.6345 0.0
C22 C 0.46287 0.62049 0.74955 0.0
C23 C 0.35969 0.51735 0.74151 0.0
O24 O 0.3773 0.52904 0.70431 0.0
O25 O 0.37462 0.52167 0.78066 0.0
O26 O 0.43585 0.55272 0.6278 0.0
O27 O 0.45299 0.52609 0.67693 0.0
O28 O 0.84081 0.38152 0.20822 0.0
Cd29 Cd 0.86961 0.43445 0.20019 0.0
Cd30 Cd 0.86942 0.43096 0.29858 0.0
O31 O 0.84532 0.37884 0.28459 0.0
O32 O 0.87572 0.4399 0.13144 0.0
O33 O 0.91956 0.45699 0.18037 0.0
C34 C 0.90853 0.45393 0.13797 0.0
C35 C 0.90852 0.45029 0.36047 0.0
C36 C 0.83468 0.3639 0.24545 0.0
C37 C 0.83539 0.46736 0.25338 0.0
O38 O 0.8411 0.45557 0.29062 0.0
O39 O 0.84608 0.463 0.21429 0.0
O40 O 0.87571 0.43172 0.36727 0.0
O41 O 0.91945 0.45805 0.31798 0.0
O42 O 0.45279 0.84484 0.70336 0.0
Cd43 Cd 0.42814 0.87321 0.69621 0.0
Cd44 Cd 0.43299 0.87378 0.7945 0.0
O45 O 0.46121 0.85006 0.77949 0.0
O46 O 0.42789 0.87913 0.62751 0.0
O47 O 0.45485 0.92314 0.67615 0.0
C48 C 0.44646 0.91199 0.63387 0.0
C49 C 0.45324 0.91293 0.85637 0.0
C50 C 0.46501 0.83919 0.74023 0.0
C51 C 0.36186 0.83881 0.75128 0.0
O52 O 0.37997 0.84497 0.788 0.0
O53 O 0.37626 0.84931 0.71176 0.0
O54 O 0.43933 0.88013 0.8631 0.0
O55 O 0.4558 0.92382 0.81395 0.0
O56 O 0.5265 0.38248 0.28634 0.0
Cd57 Cd 0.55101 0.43536 0.29494 0.0
Cd58 Cd 0.54817 0.43277 0.19638 0.0
O59 O 0.51995 0.38058 0.20989 0.0
O60 O 0.54997 0.44037 0.36372 0.0
O61 O 0.52383 0.45814 0.31469 0.0
C62 C 0.53144 0.45468 0.35712 0.0
C63 C 0.52859 0.45213 0.13424 0.0
C64 C 0.5152 0.36525 0.24883 0.0
C65 C 0.61839 0.46847 0.24222 0.0
O66 O 0.60106 0.45727 0.20477 0.0
O67 O 0.60317 0.46365 0.28127 0.0
O68 O 0.54305 0.43374 0.12764 0.0
O69 O 0.52521 0.45981 0.17667 0.0
O70 O 0.13659 0.52939 0.79 0.0
Cd71 Cd 0.10845 0.55416 0.79838 0.0
Cd72 Cd 0.10817 0.55101 0.69989 0.0
O73 O 0.13179 0.52248 0.71361 0.0
O74 O 0.10224 0.55321 0.86713 0.0
O75 O 0.05843 0.52722 0.81798 0.0
C76 C 0.06941 0.53482 0.86044 0.0
C77 C 0.06932 0.53168 0.63768 0.0
C78 C 0.14238 0.51784 0.75259 0.0
C79 C 0.14324 0.6214 0.74544 0.0
O80 O 0.13694 0.6039 0.7081 0.0
O81 O 0.13273 0.60633 0.78457 0.0
O82 O 0.10215 0.54584 0.63113 0.0
O83 O 0.05824 0.52843 0.68009 0.0
H84 H 0.51598 0.18737 0.16681 0.0
H85 H 0.47777 0.15866 0.30789 0.0
H86 H 0.50413 0.23473 0.16962 0.0
H87 H 0.46452 0.20542 0.31011 0.0
H88 H 0.48192 0.31925 0.178 0.0
H89 H 0.46766 0.25896 0.17475 0.0
H90 H 0.50189 0.26583 0.31759 0.0
H91 H 0.51475 0.32534 0.32134 0.0
C92 C 0.50401 0.19049 0.19795 0.0
C93 C 0.49858 0.16977 0.23751 0.0
C94 C 0.49694 0.2176 0.19948 0.0
C95 C 0.48389 0.22433 0.24045 0.0
C96 C 0.47537 0.20149 0.27843 0.0
C97 C 0.48282 0.17459 0.27709 0.0
C98 C 0.4856 0.30757 0.20904 0.0
C99 C 0.50012 0.32726 0.24964 0.0
C100 C 0.47755 0.27306 0.20711 0.0
C101 C 0.48424 0.25766 0.24556 0.0
C102 C 0.4961 0.27661 0.28734 0.0
C103 C 0.50378 0.31096 0.28943 0.0
H104 H 0.32078 0.51896 0.66918 0.0
H105 H 0.31283 0.48248 0.81096 0.0
H106 H 0.26145 0.50663 0.67269 0.0
H107 H 0.25268 0.46869 0.8139 0.0
H108 H 0.18221 0.51803 0.82494 0.0
H109 H 0.22905 0.50549 0.82106 0.0
H110 H 0.20093 0.46995 0.67882 0.0
H111 H 0.15472 0.48394 0.68218 0.0
C112 C 0.30601 0.50727 0.70064 0.0
C113 C 0.32175 0.50246 0.74016 0.0
C114 C 0.27175 0.49991 0.70258 0.0
C115 C 0.25234 0.48718 0.74392 0.0
C116 C 0.26715 0.47929 0.78193 0.0
C117 C 0.30158 0.48705 0.78017 0.0
C118 C 0.18548 0.50682 0.79315 0.0
C119 C 0.16527 0.50276 0.75352 0.0
C120 C 0.21228 0.49933 0.79099 0.0
C121 C 0.21922 0.48723 0.7493 0.0
C122 C 0.19686 0.48006 0.71109 0.0
C123 C 0.17027 0.48794 0.71309 0.0
H124 H 0.66408 0.15884 0.18322 0.0
H125 H 0.65397 0.18676 0.32444 0.0
H126 H 0.72429 0.20514 0.18185 0.0
H127 H 0.71341 0.23368 0.32248 0.0
H128 H 0.82077 0.31713 0.31576 0.0
H129 H 0.77405 0.25711 0.31811 0.0
H130 H 0.7482 0.26571 0.17509 0.0
H131 H 0.79551 0.32493 0.17225 0.0
C132 C 0.67486 0.17451 0.21423 0.0
C133 C 0.65407 0.16959 0.25362 0.0
C134 C 0.70933 0.20114 0.21337 0.0
C135 C 0.72358 0.22363 0.25167 0.0
C136 C 0.70353 0.21681 0.29241 0.0
C137 C 0.66922 0.18996 0.29345 0.0
C138 C 0.8056 0.30588 0.28449 0.0
C139 C 0.81139 0.32599 0.2441 0.0
C140 C 0.77873 0.27152 0.28591 0.0
C141 C 0.75688 0.25671 0.24714 0.0
C142 C 0.76456 0.27603 0.20558 0.0
C143 C 0.79163 0.31022 0.20401 0.0
H144 H 0.49974 0.82671 0.80931 0.0
H145 H 0.46331 0.79893 0.66746 0.0
H146 H 0.51298 0.77995 0.81184 0.0
H147 H 0.47518 0.75159 0.67054 0.0
H148 H 0.46236 0.65989 0.82202 0.0
H149 H 0.47538 0.71946 0.81854 0.0
H150 H 0.51162 0.72733 0.67654 0.0
H151 H 0.49722 0.66698 0.6795 0.0
C152 C 0.49509 0.81099 0.7784 0.0
C153 C 0.4798 0.81605 0.73851 0.0
C154 C 0.50253 0.78409 0.77993 0.0
C155 C 0.49449 0.76151 0.74178 0.0
C156 C 0.48198 0.76852 0.70053 0.0
C157 C 0.47489 0.79562 0.69884 0.0
C158 C 0.47381 0.6745 0.79037 0.0
C159 C 0.478 0.65847 0.75069 0.0
C160 C 0.48157 0.70889 0.78845 0.0
C161 C 0.49406 0.72813 0.74694 0.0
C162 C 0.50125 0.713 0.70867 0.0
C163 C 0.49313 0.67845 0.71044 0.0
H164 H 0.66472 0.50226 0.31251 0.0
H165 H 0.65785 0.46791 0.16983 0.0
H166 H 0.7248 0.51587 0.31579 0.0
H167 H 0.7171 0.48005 0.17364 0.0
H168 H 0.82363 0.50223 0.18371 0.0
H169 H 0.77754 0.51642 0.18067 0.0
H170 H 0.74828 0.47893 0.32206 0.0
H171 H 0.79501 0.46621 0.32566 0.0
C172 C 0.67619 0.49812 0.28161 0.0
C173 C 0.65633 0.48335 0.24122 0.0
C174 C 0.71059 0.50578 0.28355 0.0
C175 C 0.72566 0.49841 0.24535 0.0
C176 C 0.70658 0.48635 0.2037 0.0
C177 C 0.67237 0.4791 0.20158 0.0
C178 C 0.80785 0.49784 0.21451 0.0
C179 C 0.81251 0.48245 0.25461 0.0
C180 C 0.78133 0.50583 0.21269 0.0
C181 C 0.75869 0.49819 0.25073 0.0
C182 C 0.76527 0.48546 0.29214 0.0
C183 C 0.79201 0.47788 0.29414 0.0
H184 H 0.31405 0.82648 0.6832 0.0
H185 H 0.324 0.79847 0.82446 0.0
H186 H 0.25384 0.78017 0.68185 0.0
H187 H 0.26458 0.75151 0.82252 0.0
H188 H 0.15726 0.66802 0.8159 0.0
H189 H 0.20401 0.72801 0.81826 0.0
H190 H 0.2298 0.71967 0.67508 0.0
H191 H 0.18243 0.6605 0.67222 0.0
C192 C 0.30324 0.81078 0.71422 0.0
C193 C 0.32397 0.81569 0.75362 0.0
C194 C 0.26877 0.78413 0.71337 0.0
C195 C 0.25448 0.76161 0.75169 0.0
C196 C 0.27449 0.76841 0.79243 0.0
C197 C 0.30878 0.79528 0.79346 0.0
C198 C 0.17241 0.67932 0.7846 0.0
C199 C 0.16658 0.6593 0.74415 0.0
C200 C 0.19932 0.71367 0.78602 0.0
C201 C 0.22116 0.72854 0.7472 0.0
C202 C 0.21344 0.7093 0.7056 0.0
C203 C 0.18633 0.67514 0.70403 0.0
H204 H 0.46202 0.89833 0.94579 0.0
H205 H 0.472 0.98146 0.85765 0.0
H206 H 0.48141 0.937 0.01263 0.0
H207 H 0.49017 0.02001 0.92507 0.0
H208 H 0.55532 0.08859 0.04456 0.0
H209 H 0.53703 0.05003 0.9776 0.0
H210 H 0.46325 0.96623 0.06459 0.0
H211 H 0.48264 0.00468 0.13212 0.0
C212 C 0.46815 0.92487 0.94077 0.0
C213 C 0.4655 0.93689 0.89647 0.0
C214 C 0.47904 0.94699 0.97922 0.0
C215 C 0.48719 0.9816 0.9744 0.0
C216 C 0.48457 -0.00636 0.92996 0.0
C217 C 0.47401 0.97154 0.89133 0.0
C218 C 0.53522 0.0619 0.04943 0.0
C219 C 0.52041 0.04962 0.09361 0.0
C220 C 0.52455 0.03984 0.01091 0.0
C221 C 0.49855 0.00503 0.01555 0.0
C222 C 0.48371 -0.00724 0.05985 0.0
C223 C 0.49467 0.0148 0.09855 0.0
H224 H 0.48206 0.47394 0.35833 0.0
H225 H 0.55378 0.46206 0.44693 0.0
H226 H 0.46154 0.49196 0.42578 0.0
H227 H 0.53443 0.48136 0.51382 0.0
H228 H 0.46866 0.48422 0.63307 0.0
H229 H 0.48724 0.46417 0.56565 0.0
H230 H 0.47867 0.53864 0.47833 0.0
H231 H 0.45882 0.55752 0.54512 0.0
C232 C 0.49363 0.47548 0.39213 0.0
C233 C 0.51945 0.46654 0.39737 0.0
C234 C 0.48202 0.48596 0.43079 0.0
C235 C 0.49631 0.48811 0.47536 0.0
C236 C 0.52235 0.47939 0.48031 0.0
C237 C 0.53364 0.46856 0.44183 0.0
C238 C 0.47077 0.49623 0.59943 0.0
C239 C 0.46222 0.52235 0.59434 0.0
C240 C 0.48157 0.4849 0.5608 0.0
C241 C 0.48442 0.49975 0.51644 0.0
C242 C 0.47613 0.52612 0.51167 0.0
C243 C 0.46498 0.53713 0.55009 0.0
H244 H 0.00074 0.48549 0.8616 0.0
H245 H 0.08421 0.55733 0.95018 0.0
H246 H 0.96212 0.46504 0.92902 0.0
H247 H 0.04548 0.53806 0.01702 0.0
H248 H 0.977 0.47253 0.13639 0.0
H249 H 0.01555 0.49093 0.06889 0.0
H250 H 0.93245 0.48206 0.9816 0.0
H251 H 0.89377 0.46238 0.0485 0.0
C252 C 0.01072 0.49711 0.89539 0.0
C253 C 0.04547 0.52293 0.90063 0.0
C254 C 0.98859 0.48553 0.93403 0.0
C255 C 0.00067 0.49986 0.97858 0.0
C256 C 0.03542 0.52593 0.98352 0.0
C257 C 0.05758 0.53718 0.94507 0.0
C258 C 0.96706 0.47453 0.10274 0.0
C259 C 0.9324 0.46597 0.09771 0.0
C260 C -0.01085 0.48523 0.06406 0.0
C261 C 0.97713 0.48797 0.01968 0.0
C262 C 0.94246 0.47962 0.01495 0.0
C263 C 0.92033 0.46857 0.05343 0.0
H264 H 0.50618 0.00418 0.35748 0.0
H265 H 0.51503 0.08691 0.44531 0.0
H266 H 0.48808 0.96559 0.42496 0.0
H267 H 0.49569 0.0482 0.5122 0.0
H268 H 0.49496 0.98092 0.632 0.0
H269 H 0.51416 0.01937 0.56437 0.0
H270 H 0.44122 0.93516 0.47743 0.0
H271 H 0.42313 0.89662 0.54448 0.0
C272 C 0.50392 0.01399 0.3911 0.0
C273 C 0.51211 0.04855 0.39614 0.0
C274 C 0.4934 0.99187 0.42976 0.0
C275 C 0.4905 0.0038 0.47414 0.0
C276 C 0.4983 0.0383 0.47884 0.0
C277 C 0.50914 0.06045 0.44037 0.0
C278 C 0.48308 0.97071 0.59841 0.0
C279 C 0.45763 0.93578 0.59352 0.0
C280 C 0.49393 0.99274 0.55966 0.0
C281 C 0.47926 0.98037 0.51535 0.0
C282 C 0.45356 0.94545 0.51075 0.0
C283 C 0.44301 0.92339 0.54932 0.0
H284 H 0.42307 0.52193 0.94646 0.0
H285 H 0.49641 0.51247 0.85814 0.0
H286 H 0.44272 0.50287 0.01332 0.0
H287 H 0.51722 0.49472 0.92556 0.0
H288 H 0.52095 0.42939 0.04464 0.0
H289 H 0.50083 0.44795 0.97782 0.0
H290 H 0.4898 0.52078 0.06544 0.0
H291 H 0.50866 0.50104 0.13288 0.0
C292 C 0.44361 0.516 0.94142 0.0
C293 C 0.45819 0.51864 0.89705 0.0
C294 C 0.45508 0.50532 0.97987 0.0
C295 C 0.48168 0.49739 0.975 0.0
C296 C 0.49632 0.50011 0.93051 0.0
C297 C 0.48454 0.51043 0.89187 0.0
C298 C 0.5142 0.44936 0.04967 0.0
C299 C 0.51634 0.46375 0.09402 0.0
C300 C 0.50289 0.46019 0.01123 0.0
C301 C 0.49381 0.48599 0.01607 0.0
C302 C 0.49608 0.50048 0.06052 0.0
C303 C 0.50705 0.48933 0.09916 0.0
H304 H 0.00069 0.51244 0.63628 0.0
H305 H 0.08435 0.52392 0.54804 0.0
H306 H 0.96215 0.49392 0.56884 0.0
H307 H 0.04571 0.50413 0.4812 0.0
H308 H 0.97699 0.50017 0.36153 0.0
H309 H 0.0156 0.52079 0.42887 0.0
H310 H 0.93269 0.44683 0.51686 0.0
H311 H 0.89396 0.42738 0.45011 0.0
C312 C 0.01073 0.51072 0.60256 0.0
C313 C 0.0455 0.51966 0.59743 0.0
C314 C 0.98865 0.49995 0.56392 0.0
C315 C 0.0008 0.49753 0.51947 0.0
C316 C 0.03559 0.5063 0.51461 0.0
C317 C 0.0577 0.51741 0.55307 0.0
C318 C 0.96711 0.48838 0.39529 0.0
C319 C 0.93248 0.46224 0.40057 0.0
C320 C -0.01076 0.50005 0.43388 0.0
C321 C 0.97727 0.48552 0.47842 0.0
C322 C 0.94265 0.45912 0.48338 0.0
C323 C 0.92049 0.44776 0.44498 0.0
loop_
_geom_bond_atom_site_label_1
_geom_bond_atom_site_label_2
_geom_bond_distance
_geom_bond_site_symmetry_2
_ccdc_geom_bond_type
O0 Cd1 2.223 . S
O0 C8 1.315 . S
Cd1 O0 2.223 . S
Cd1 O4 2.297 . S
Cd1 O5 2.439 . S
Cd1 O11 2.240 . S
Cd2 O3 2.240 . S
Cd2 O10 2.223 . S
Cd2 O12 2.297 . S
Cd2 O13 2.439 . S
O3 Cd2 2.240 . S
O3 C8 1.279 . S
O4 Cd1 2.297 . S
O4 C6 1.247 . S
O5 Cd1 2.439 . S
O5 C6 1.208 . S
C6 O4 1.247 . S
C6 O5 1.208 . S
C7 O12 1.247 . S
C7 O13 1.208 . S
C8 O0 1.315 . S
C8 O3 1.279 . S
C9 O10 1.315 . S
C9 O11 1.279 . S
O10 Cd2 2.223 . S
O10 C9 1.315 . S
O11 Cd1 2.240 . S
O11 C9 1.279 . S
O12 Cd2 2.297 . S
O12 C7 1.247 . S
O13 Cd2 2.439 . S
O13 C7 1.208 . S
O14 Cd15 2.223 . S
O14 C22 1.315 . S
Cd15 O14 2.223 . S
Cd15 O18 2.297 . S
Cd15 O19 2.439 . S
Cd15 O25 2.240 . S
Cd16 O17 2.240 . S
Cd16 O24 2.223 . S
Cd16 O26 2.297 . S
Cd16 O27 2.439 . S
O17 Cd16 2.240 . S
O17 C22 1.279 . S
O18 Cd15 2.297 . S
O18 C20 1.247 . S
O19 Cd15 2.439 . S
O19 C20 1.208 . S
C20 O18 1.247 . S
C20 O19 1.208 . S
C21 O26 1.247 . S
C21 O27 1.208 . S
C22 O14 1.315 . S
C22 O17 1.279 . S
C23 O24 1.315 . S
C23 O25 1.279 . S
O24 Cd16 2.223 . S
O24 C23 1.315 . S
O25 Cd15 2.240 . S
O25 C23 1.279 . S
O26 Cd16 2.297 . S
O26 C21 1.247 . S
O27 Cd16 2.439 . S
O27 C21 1.208 . S
O28 Cd29 2.223 . S
O28 C36 1.315 . S
Cd29 O28 2.223 . S
Cd29 O32 2.297 . S
Cd29 O33 2.439 . S
Cd29 O39 2.240 . S
Cd30 O31 2.240 . S
Cd30 O38 2.223 . S
Cd30 O40 2.297 . S
Cd30 O41 2.439 . S
O31 Cd30 2.240 . S
O31 C36 1.279 . S
O32 Cd29 2.297 . S
O32 C34 1.247 . S
O33 Cd29 2.439 . S
O33 C34 1.208 . S
C34 O32 1.247 . S
C34 O33 1.208 . S
C35 O40 1.247 . S
C35 O41 1.208 . S
C36 O28 1.315 . S
C36 O31 1.279 . S
C37 O38 1.315 . S
C37 O39 1.279 . S
O38 Cd30 2.223 . S
O38 C37 1.315 . S
O39 Cd29 2.240 . S
O39 C37 1.279 . S
O40 Cd30 2.297 . S
O40 C35 1.247 . S
O41 Cd30 2.439 . S
O41 C35 1.208 . S
O42 Cd43 2.223 . S
O42 C50 1.315 . S
Cd43 O42 2.223 . S
Cd43 O46 2.297 . S
Cd43 O47 2.439 . S
Cd43 O53 2.240 . S
Cd44 O45 2.240 . S
Cd44 O52 2.223 . S
Cd44 O54 2.297 . S
Cd44 O55 2.439 . S
O45 Cd44 2.240 . S
O45 C50 1.279 . S
O46 Cd43 2.297 . S
O46 C48 1.247 . S
O47 Cd43 2.439 . S
O47 C48 1.208 . S
C48 O46 1.247 . S
C48 O47 1.208 . S
C49 O54 1.247 . S
C49 O55 1.208 . S
C50 O42 1.315 . S
C50 O45 1.279 . S
C51 O52 1.315 . S
C51 O53 1.279 . S
O52 Cd44 2.223 . S
O52 C51 1.315 . S
O53 Cd43 2.240 . S
O53 C51 1.279 . S
O54 Cd44 2.297 . S
O54 C49 1.247 . S
O55 Cd44 2.439 . S
O55 C49 1.208 . S
O56 Cd57 2.223 . S
O56 C64 1.315 . S
Cd57 O56 2.223 . S
Cd57 O60 2.297 . S
Cd57 O61 2.439 . S
Cd57 O67 2.240 . S
Cd58 O59 2.240 . S
Cd58 O66 2.223 . S
Cd58 O68 2.297 . S
Cd58 O69 2.439 . S
O59 Cd58 2.240 . S
O59 C64 1.279 . S
O60 Cd57 2.297 . S
O60 C62 1.247 . S
O61 Cd57 2.439 . S
O61 C62 1.208 . S
C62 O60 1.247 . S
C62 O61 1.208 . S
C63 O68 1.247 . S
C63 O69 1.208 . S
C64 O56 1.315 . S
C64 O59 1.279 . S
C65 O66 1.315 . S
C65 O67 1.279 . S
O66 Cd58 2.223 . S
O66 C65 1.315 . S
O67 Cd57 2.240 . S
O67 C65 1.279 . S
O68 Cd58 2.297 . S
O68 C63 1.247 . S
O69 Cd58 2.439 . S
O69 C63 1.208 . S
O70 Cd71 2.223 . S
O70 C78 1.315 . S
Cd71 O70 2.223 . S
Cd71 O74 2.297 . S
Cd71 O75 2.439 . S
Cd71 O81 2.240 . S
Cd72 O73 2.240 . S
Cd72 O80 2.223 . S
Cd72 O82 2.297 . S
Cd72 O83 2.439 . S
O73 Cd72 2.240 . S
O73 C78 1.279 . S
O74 Cd71 2.297 . S
O74 C76 1.247 . S
O75 Cd71 2.439 . S
O75 C76 1.208 . S
C76 O74 1.247 . S
C76 O75 1.208 . S
C77 O82 1.247 . S
C77 O83 1.208 . S
C78 O70 1.315 . S
C78 O73 1.279 . S
C79 O80 1.315 . S
C79 O81 1.279 . S
O80 Cd72 2.223 . S
O80 C79 1.315 . S
O81 Cd71 2.240 . S
O81 C79 1.279 . S
O82 Cd72 2.297 . S
O82 C77 1.247 . S
O83 Cd72 2.439 . S
O83 C77 1.208 . S
H84 C92 0.950 . S
H85 C97 0.950 . S
H86 C94 0.950 . S
H87 C96 0.950 . S
H88 C98 0.950 . S
H89 C100 0.950 . S
H90 C102 0.950 . S
H91 C103 0.950 . S
C92 H84 0.950 . S
C92 C93 1.386 . S
C92 C94 1.391 . S
C93 C92 1.386 . S
C93 C97 1.393 . S
C94 H86 0.950 . S
C94 C92 1.391 . S
C94 C95 1.400 . S
C95 C94 1.400 . S
C95 C96 1.398 . S
C95 C101 1.491 . S
C96 H87 0.950 . S
C96 C95 1.398 . S
C96 C97 1.391 . S
C97 H85 0.950 . S
C97 C93 1.393 . S
C97 C96 1.391 . S
C98 H88 0.950 . S
C98 C99 1.386 . S
C98 C100 1.391 . S
C99 C98 1.386 . S
C99 C103 1.393 . S
C100 H89 0.950 . S
C100 C98 1.391 . S
C100 C101 1.400 . S
C101 C95 1.491 . S
C101 C100 1.400 . S
C101 C102 1.398 . S
C102 H90 0.950 . S
C102 C101 1.398 . S
C102 C103 1.391 . S
C103 H91 0.950 . S
C103 C99 1.393 . S
C103 C102 1.391 . S
H104 C112 0.950 . S
H105 C117 0.950 . S
H106 C114 0.950 . S
H107 C116 0.950 . S
H108 C118 0.950 . S
H109 C120 0.950 . S
H110 C122 0.950 . S
H111 C123 0.950 . S
C112 H104 0.950 . S
C112 C113 1.386 . S
C112 C114 1.391 . S
C113 C112 1.386 . S
C113 C117 1.393 . S
C114 H106 0.950 . S
C114 C112 1.391 . S
C114 C115 1.400 . S
C115 C114 1.400 . S
C115 C116 1.398 . S
C115 C121 1.491 . S
C116 H107 0.950 . S
C116 C115 1.398 . S
C116 C117 1.391 . S
C117 H105 0.950 . S
C117 C113 1.393 . S
C117 C116 1.391 . S
C118 H108 0.950 . S
C118 C119 1.386 . S
C118 C120 1.391 . S
C119 C118 1.386 . S
C119 C123 1.393 . S
C120 H109 0.950 . S
C120 C118 1.391 . S
C120 C121 1.400 . S
C121 C115 1.491 . S
C121 C120 1.400 . S
C121 C122 1.398 . S
C122 H110 0.950 . S
C122 C121 1.398 . S
C122 C123 1.391 . S
C123 H111 0.950 . S
C123 C119 1.393 . S
C123 C122 1.391 . S
H124 C132 0.950 . S
H125 C137 0.950 . S
H126 C134 0.950 . S
H127 C136 0.950 . S
H128 C138 0.950 . S
H129 C140 0.950 . S
H130 C142 0.950 . S
H131 C143 0.950 . S
C132 H124 0.950 . S
C132 C133 1.386 . S
C132 C134 1.391 . S
C133 C132 1.386 . S
C133 C137 1.393 . S
C134 H126 0.950 . S
C134 C132 1.391 . S
C134 C135 1.400 . S
C135 C134 1.400 . S
C135 C136 1.398 . S
C135 C141 1.491 . S
C136 H127 0.950 . S
C136 C135 1.398 . S
C136 C137 1.391 . S
C137 H125 0.950 . S
C137 C133 1.393 . S
C137 C136 1.391 . S
C138 H128 0.950 . S
C138 C139 1.386 . S
C138 C140 1.391 . S
C139 C138 1.386 . S
C139 C143 1.393 . S
C140 H129 0.950 . S
C140 C138 1.391 . S
C140 C141 1.400 . S
C141 C135 1.491 . S
C141 C140 1.400 . S
C141 C142 1.398 . S
C142 H130 0.950 . S
C142 C141 1.398 . S
C142 C143 1.391 . S
C143 H131 0.950 . S
C143 C139 1.393 . S
C143 C142 1.391 . S
H144 C152 0.950 . S
H145 C157 0.950 . S
H146 C154 0.950 . S
H147 C156 0.950 . S
H148 C158 0.950 . S
H149 C160 0.950 . S
H150 C162 0.950 . S
H151 C163 0.950 . S
C152 H144 0.950 . S
C152 C153 1.386 . S
C152 C154 1.391 . S
C153 C152 1.386 . S
C153 C157 1.393 . S
C154 H146 0.950 . S
C154 C152 1.391 . S
C154 C155 1.400 . S
C155 C154 1.400 . S
C155 C156 1.398 . S
C155 C161 1.491 . S
C156 H147 0.950 . S
C156 C155 1.398 . S
C156 C157 1.391 . S
C157 H145 0.950 . S
C157 C153 1.393 . S
C157 C156 1.391 . S
C158 H148 0.950 . S
C158 C159 1.386 . S
C158 C160 1.391 . S
C159 C158 1.386 . S
C159 C163 1.393 . S
C160 H149 0.950 . S
C160 C158 1.391 . S
C160 C161 1.400 . S
C161 C155 1.491 . S
C161 C160 1.400 . S
C161 C162 1.398 . S
C162 H150 0.950 . S
C162 C161 1.398 . S
C162 C163 1.391 . S
C163 H151 0.950 . S
C163 C159 1.393 . S
C163 C162 1.391 . S
H164 C172 0.950 . S
H165 C177 0.950 . S
H166 C174 0.950 . S
H167 C176 0.950 . S
H168 C178 0.950 . S
H169 C180 0.950 . S
H170 C182 0.950 . S
H171 C183 0.950 . S
C172 H164 0.950 . S
C172 C173 1.386 . S
C172 C174 1.391 . S
C173 C172 1.386 . S
C173 C177 1.393 . S
C174 H166 0.950 . S
C174 C172 1.391 . S
C174 C175 1.400 . S
C175 C174 1.400 . S
C175 C176 1.398 . S
C175 C181 1.491 . S
C176 H167 0.950 . S
C176 C175 1.398 . S
C176 C177 1.391 . S
C177 H165 0.950 . S
C177 C173 1.393 . S
C177 C176 1.391 . S
C178 H168 0.950 . S
C178 C179 1.386 . S
C178 C180 1.391 . S
C179 C178 1.386 . S
C179 C183 1.393 . S
C180 H169 0.950 . S
C180 C178 1.391 . S
C180 C181 1.400 . S
C181 C175 1.491 . S
C181 C180 1.400 . S
C181 C182 1.398 . S
C182 H170 0.950 . S
C182 C181 1.398 . S
C182 C183 1.391 . S
C183 H171 0.950 . S
C183 C179 1.393 . S
C183 C182 1.391 . S
H184 C192 0.950 . S
H185 C197 0.950 . S
H186 C194 0.950 . S
H187 C196 0.950 . S
H188 C198 0.950 . S
H189 C200 0.950 . S
H190 C202 0.950 . S
H191 C203 0.950 . S
C192 H184 0.950 . S
C192 C193 1.386 . S
C192 C194 1.391 . S
C193 C192 1.386 . S
C193 C197 1.393 . S
C194 H186 0.950 . S
C194 C192 1.391 . S
C194 C195 1.400 . S
C195 C194 1.400 . S
C195 C196 1.398 . S
C195 C201 1.491 . S
C196 H187 0.950 . S
C196 C195 1.398 . S
C196 C197 1.391 . S
C197 H185 0.950 . S
C197 C193 1.393 . S
C197 C196 1.391 . S
C198 H188 0.950 . S
C198 C199 1.386 . S
C198 C200 1.391 . S
C199 C198 1.386 . S
C199 C203 1.393 . S
C200 H189 0.950 . S
C200 C198 1.391 . S
C200 C201 1.400 . S
C201 C195 1.491 . S
C201 C200 1.400 . S
C201 C202 1.398 . S
C202 H190 0.950 . S
C202 C201 1.398 . S
C202 C203 1.391 . S
C203 H191 0.950 . S
C203 C199 1.393 . S
C203 C202 1.391 . S
H204 C212 0.950 . S
H205 C217 0.950 . S
H206 C214 0.950 . S
H207 C216 0.918 1_545 S
H208 C218 0.950 . S
H209 C220 0.950 . S
H210 C222 0.917 1_565 S
H211 C223 0.950 . S
C212 H204 0.950 . S
C212 C213 1.386 . S
C212 C214 1.391 . S
C213 C212 1.386 . S
C213 C217 1.393 . S
C214 H206 0.950 . S
C214 C212 1.391 . S
C214 C215 1.400 . S
C215 C214 1.400 . S
C215 C216 1.416 . S
C215 C221 1.491 1_566 S
C216 H207 0.918 1_565 S
C216 C215 1.416 . S
C216 C217 1.405 . S
C217 H205 0.950 . S
C217 C213 1.393 . S
C217 C216 1.405 . S
C218 H208 0.950 . S
C218 C219 1.386 . S
C218 C220 1.391 . S
C219 C218 1.386 . S
C219 C223 1.393 . S
C220 H209 0.950 . S
C220 C218 1.391 . S
C220 C221 1.400 . S
C221 C215 1.491 1_544 S
C221 C220 1.400 . S
C221 C222 1.416 . S
C222 H210 0.917 1_545 S
C222 C221 1.416 . S
C222 C223 1.406 . S
C223 H211 0.950 . S
C223 C219 1.393 . S
C223 C222 1.406 . S
H224 C232 0.950 . S
H225 C237 0.950 . S
H226 C234 0.950 . S
H227 C236 0.950 . S
H228 C238 0.950 . S
H229 C240 0.950 . S
H230 C242 0.950 . S
H231 C243 0.950 . S
C232 H224 0.950 . S
C232 C233 1.386 . S
C232 C234 1.391 . S
C233 C232 1.386 . S
C233 C237 1.393 . S
C234 H226 0.950 . S
C234 C232 1.391 . S
C234 C235 1.400 . S
C235 C234 1.400 . S
C235 C236 1.398 . S
C235 C241 1.491 . S
C236 H227 0.950 . S
C236 C235 1.398 . S
C236 C237 1.391 . S
C237 H225 0.950 . S
C237 C233 1.393 . S
C237 C236 1.391 . S
C238 H228 0.950 . S
C238 C239 1.386 . S
C238 C240 1.391 . S
C239 C238 1.386 . S
C239 C243 1.393 . S
C240 H229 0.950 . S
C240 C238 1.391 . S
C240 C241 1.400 . S
C241 C235 1.491 . S
C241 C240 1.400 . S
C241 C242 1.398 . S
C242 H230 0.950 . S
C242 C241 1.398 . S
C242 C243 1.391 . S
C243 H231 0.950 . S
C243 C239 1.393 . S
C243 C242 1.391 . S
H244 C252 0.950 . S
H245 C257 0.950 . S
H246 C254 0.950 . S
H247 C256 0.937 1_554 S
H248 C258 0.950 . S
H249 C260 0.950 . S
H250 C262 0.937 1_556 S
H251 C263 0.950 . S
C252 H244 0.950 . S
C252 C253 1.386 . S
C252 C254 1.391 1_455 S
C253 C252 1.386 . S
C253 C257 1.393 . S
C254 H246 0.950 . S
C254 C252 1.391 1_655 S
C254 C255 1.400 1_655 S
C255 C254 1.400 1_455 S
C255 C256 1.398 . S
C255 C261 1.491 1_456 S
C256 H247 0.937 1_556 S
C256 C255 1.398 . S
C256 C257 1.391 . S
C257 H245 0.950 . S
C257 C253 1.393 . S
C257 C256 1.391 . S
C258 H248 0.950 . S
C258 C259 1.386 . S
C258 C260 1.391 1_655 S
C259 C258 1.386 . S
C259 C263 1.393 . S
C260 H249 0.950 . S
C260 C258 1.391 1_455 S
C260 C261 1.400 1_455 S
C261 C255 1.491 1_654 S
C261 C260 1.400 1_655 S
C261 C262 1.398 . S
C262 H250 0.937 1_554 S
C262 C261 1.398 . S
C262 C263 1.391 . S
C263 H251 0.950 . S
C263 C259 1.393 . S
C263 C262 1.391 . S
H264 C272 0.950 . S
H265 C277 0.950 . S
H266 C274 0.950 . S
H267 C276 0.950 . S
H268 C278 0.950 . S
H269 C280 0.950 . S
H270 C282 0.950 . S
H271 C283 0.950 . S
C272 H264 0.950 . S
C272 C273 1.386 . S
C272 C274 1.391 . S
C273 C272 1.386 . S
C273 C277 1.393 . S
C274 H266 0.950 . S
C274 C272 1.391 . S
C274 C275 1.400 . S
C275 C274 1.400 . S
C275 C276 1.398 . S
C275 C281 1.491 1_545 S
C276 H267 0.950 . S
C276 C275 1.398 . S
C276 C277 1.391 . S
C277 H265 0.950 . S
C277 C273 1.393 . S
C277 C276 1.391 . S
C278 H268 0.950 . S
C278 C279 1.386 . S
C278 C280 1.391 . S
C279 C278 1.386 . S
C279 C283 1.393 . S
C280 H269 0.950 . S
C280 C278 1.391 . S
C280 C281 1.400 . S
C281 C275 1.491 1_565 S
C281 C280 1.400 . S
C281 C282 1.398 . S
C282 H270 0.950 . S
C282 C281 1.398 . S
C282 C283 1.391 . S
C283 H271 0.950 . S
C283 C279 1.393 . S
C283 C282 1.391 . S
H284 C292 0.950 . S
H285 C297 0.950 . S
H286 C294 0.950 1_554 S
H287 C296 0.950 . S
H288 C298 0.950 . S
H289 C300 0.950 1_556 S
H290 C302 0.950 . S
H291 C303 0.950 . S
C292 H284 0.950 . S
C292 C293 1.386 . S
C292 C294 1.391 . S
C293 C292 1.386 . S
C293 C297 1.393 . S
C294 H286 0.950 1_556 S
C294 C292 1.391 . S
C294 C295 1.400 . S
C295 C294 1.400 . S
C295 C296 1.398 . S
C295 C301 1.491 1_556 S
C296 H287 0.950 . S
C296 C295 1.398 . S
C296 C297 1.391 . S
C297 H285 0.950 . S
C297 C293 1.393 . S
C297 C296 1.391 . S
C298 H288 0.950 . S
C298 C299 1.386 . S
C298 C300 1.391 . S
C299 C298 1.386 . S
C299 C303 1.393 . S
C300 H289 0.950 1_554 S
C300 C298 1.391 . S
C300 C301 1.400 . S
C301 C295 1.491 1_554 S
C301 C300 1.400 . S
C301 C302 1.398 . S
C302 H290 0.950 . S
C302 C301 1.398 . S
C302 C303 1.391 . S
C303 H291 0.950 . S
C303 C299 1.393 . S
C303 C302 1.391 . S
H304 C312 0.950 . S
H305 C317 0.950 . S
H306 C314 0.950 . S
H307 C316 0.950 . S
H308 C318 0.950 . S
H309 C320 0.950 . S
H310 C322 0.950 . S
H311 C323 0.950 . S
C312 H304 0.950 . S
C312 C313 1.386 . S
C312 C314 1.391 1_455 S
C313 C312 1.386 . S
C313 C317 1.393 . S
C314 H306 0.950 . S
C314 C312 1.391 1_655 S
C314 C315 1.400 1_655 S
C315 C314 1.400 1_455 S
C315 C316 1.398 . S
C315 C321 1.491 1_455 S
C316 H307 0.950 . S
C316 C315 1.398 . S
C316 C317 1.391 . S
C317 H305 0.950 . S
C317 C313 1.393 . S
C317 C316 1.391 . S
C318 H308 0.950 . S
C318 C319 1.386 . S
C318 C320 1.391 1_655 S
C319 C318 1.386 . S
C319 C323 1.393 . S
C320 H309 0.950 . S
C320 C318 1.391 1_455 S
C320 C321 1.400 1_455 S
C321 C315 1.491 1_655 S
C321 C320 1.400 1_655 S
C321 C322 1.398 . S
C322 H310 0.950 . S
C322 C321 1.398 . S
C322 C323 1.391 . S
C323 H311 0.950 . S
C323 C319 1.393 . S
C323 C322 1.391 . S
C93 C9 1.301 . S
C99 C64 1.301 . S
C113 C23 1.306 . S
C119 C78 1.291 . S
C133 C8 1.289 . S
C139 C36 1.305 . S
C153 C50 1.295 . S
C159 C22 1.295 . S
C173 C65 1.295 . S
C179 C37 1.305 . S
C193 C51 1.289 . S
C199 C79 1.305 . S
C213 C49 1.447 . S
C219 C7 1.456 . S
C233 C62 1.453 . S
C239 C21 1.436 . S
C253 C76 1.455 . S
C259 C34 1.439 . S
C273 C6 1.434 . S
C279 C48 1.433 . S
C293 C20 1.437 . S
C299 C63 1.455 . S
C313 C77 1.445 . S
C319 C35 1.430 . S
