# Generated by pormake.
# Topology wjd, (6)-cn, num edge types: 1
# Building blocks:
#     Node 0, Type 0, BuildingBlock: PAMTOO_clean_sbu_0, # of connection points: 6
#     Node 1, Type 0, BuildingBlock: PAMTOO_clean_sbu_0, # of connection points: 6
#     Node 2, Type 0, BuildingBlock: PAMTOO_clean_sbu_0, # of connection points: 6
#     Node 3, Type 0, BuildingBlock: PAMTOO_clean_sbu_0, # of connection points: 6
#     Node 4, Type 0, BuildingBlock: PAMTOO_clean_sbu_0, # of connection points: 6
#     Node 5, Type 0, BuildingBlock: PAMTOO_clean_sbu_0, # of connection points: 6
#     Node 6, Type 0, BuildingBlock: PAMTOO_clean_sbu_0, # of connection points: 6
#     Node 7, Type 0, BuildingBlock: PAMTOO_clean_sbu_0, # of connection points: 6
#     Node 8, Type 0, BuildingBlock: PAMTOO_clean_sbu_0, # of connection points: 6
#     Node 9, Type 0, BuildingBlock: PAMTOO_clean_sbu_0, # of connection points: 6
#     Node 10, Type 0, BuildingBlock: PAMTOO_clean_sbu_0, # of connection points: 6
#     Node 11, Type 0, BuildingBlock: PAMTOO_clean_sbu_0, # of connection points: 6
#     Edge 12, Type (0, 0), BuildingBlock: TEMPAE_clean_linker_10, # of connection points: 2
#     Edge 13, Type (0, 0), BuildingBlock: TEMPAE_clean_linker_10, # of connection points: 2
#     Edge 14, Type (0, 0), BuildingBlock: TEMPAE_clean_linker_10, # of connection points: 2
#     Edge 15, Type (0, 0), BuildingBlock: TEMPAE_clean_linker_10, # of connection points: 2
#     Edge 16, Type (0, 0), BuildingBlock: TEMPAE_clean_linker_10, # of connection points: 2
#     Edge 17, Type (0, 0), BuildingBlock: TEMPAE_clean_linker_10, # of connection points: 2
#     Edge 18, Type (0, 0), BuildingBlock: TEMPAE_clean_linker_10, # of connection points: 2
#     Edge 19, Type (0, 0), BuildingBlock: TEMPAE_clean_linker_10, # of connection points: 2
#     Edge 20, Type (0, 0), BuildingBlock: TEMPAE_clean_linker_10, # of connection points: 2
#     Edge 21, Type (0, 0), BuildingBlock: TEMPAE_clean_linker_10, # of connection points: 2
#     Edge 22, Type (0, 0), BuildingBlock: TEMPAE_clean_linker_10, # of connection points: 2
#     Edge 23, Type (0, 0), BuildingBlock: TEMPAE_clean_linker_10, # of connection points: 2
#     Edge 24, Type (0, 0), BuildingBlock: TEMPAE_clean_linker_10, # of connection points: 2
#     Edge 25, Type (0, 0), BuildingBlock: TEMPAE_clean_linker_10, # of connection points: 2
#     Edge 26, Type (0, 0), BuildingBlock: TEMPAE_clean_linker_10, # of connection points: 2
#     Edge 27, Type (0, 0), BuildingBlock: TEMPAE_clean_linker_10, # of connection points: 2
#     Edge 28, Type (0, 0), BuildingBlock: TEMPAE_clean_linker_10, # of connection points: 2
#     Edge 29, Type (0, 0), BuildingBlock: TEMPAE_clean_linker_10, # of connection points: 2
#     Edge 30, Type (0, 0), BuildingBlock: TEMPAE_clean_linker_10, # of connection points: 2
#     Edge 31, Type (0, 0), BuildingBlock: TEMPAE_clean_linker_10, # of connection points: 2
#     Edge 32, Type (0, 0), BuildingBlock: TEMPAE_clean_linker_10, # of connection points: 2
#     Edge 33, Type (0, 0), BuildingBlock: TEMPAE_clean_linker_10, # of connection points: 2
#     Edge 34, Type (0, 0), BuildingBlock: TEMPAE_clean_linker_10, # of connection points: 2
#     Edge 35, Type (0, 0), BuildingBlock: TEMPAE_clean_linker_10, # of connection points: 2
#     Edge 36, Type (0, 0), BuildingBlock: TEMPAE_clean_linker_10, # of connection points: 2
#     Edge 37, Type (0, 0), BuildingBlock: TEMPAE_clean_linker_10, # of connection points: 2
#     Edge 38, Type (0, 0), BuildingBlock: TEMPAE_clean_linker_10, # of connection points: 2
#     Edge 39, Type (0, 0), BuildingBlock: TEMPAE_clean_linker_10, # of connection points: 2
#     Edge 40, Type (0, 0), BuildingBlock: TEMPAE_clean_linker_10, # of connection points: 2
#     Edge 41, Type (0, 0), BuildingBlock: TEMPAE_clean_linker_10, # of connection points: 2
#     Edge 42, Type (0, 0), BuildingBlock: TEMPAE_clean_linker_10, # of connection points: 2
#     Edge 43, Type (0, 0), BuildingBlock: TEMPAE_clean_linker_10, # of connection points: 2
#     Edge 44, Type (0, 0), BuildingBlock: TEMPAE_clean_linker_10, # of connection points: 2
#     Edge 45, Type (0, 0), BuildingBlock: TEMPAE_clean_linker_10, # of connection points: 2
#     Edge 46, Type (0, 0), BuildingBlock: TEMPAE_clean_linker_10, # of connection points: 2
#     Edge 47, Type (0, 0), BuildingBlock: TEMPAE_clean_linker_10, # of connection points: 2
# Relax obj value: 0.088
# Max RMSD: 0.211
# Mean RMSD: 0.211
data_MOF--net-wjd--node1-PAMTOO_clean_sbu_0--edge1-TEMPAE_clean_linker_10
_symmetry_space_group_name_H-M    P1
_symmetry_Int_Tables_number       1
_symmetry_cell_setting            triclinic
loop_
_symmetry_equiv_pos_as_xyz
'x, y, z'
_cell_length_a     40.544728
_cell_length_b     40.55061
_cell_length_c     54.099414
_cell_angle_alpha  89.679522
_cell_angle_beta   89.964176
_cell_angle_gamma 120.09025
loop_
_atom_site_label
_atom_site_type_symbol
_atom_site_fract_x
_atom_site_fract_y
_atom_site_fract_z
_atom_type_partial_charge
Dy0 Dy 0.32436 0.09345 0.14025 0.0
Dy1 Dy 0.37079 0.17822 0.1129 0.0
C2 C 0.32018 0.10048 0.08341 0.0
O3 O 0.3805 0.10131 0.12685 0.0
O4 O 0.41496 0.16651 0.12772 0.0
O5 O 0.30279 0.03284 0.13755 0.0
O6 O 0.29192 0.0562 0.17045 0.0
O7 O 0.37096 0.1888 0.15387 0.0
O8 O 0.36236 0.13185 0.16919 0.0
O9 O 0.3092 0.16071 0.11162 0.0
O10 O 0.28963 0.12179 0.14582 0.0
O11 O 0.37849 0.23429 0.10641 0.0
O12 O 0.41497 0.21743 0.08783 0.0
C13 C 0.41342 0.13347 0.12691 0.0
O14 O 0.2993 0.08886 0.10338 0.0
O15 O 0.35297 0.13282 0.08341 0.0
C16 C 0.24256 0.99695 0.15628 0.0
C17 C 0.1646 0.94199 0.15098 0.0
C18 C 0.17716 0.98113 0.14861 0.0
C19 C 0.21577 1.00831 0.15111 0.0
C20 C 0.23029 0.95808 0.15871 0.0
C21 C 0.19169 0.93082 0.15607 0.0
C22 C 0.2834 0.02538 0.1581 0.0
C23 C 0.37074 0.16725 0.17231 0.0
C24 C 0.2849 0.14355 0.12979 0.0
C25 C 0.44248 0.28342 0.09817 0.0
C26 C 0.50584 0.35744 0.10605 0.0
C27 C 0.51034 0.32946 0.0937 0.0
C28 C 0.47907 0.29298 0.08977 0.0
C29 C 0.438 0.31136 0.11058 0.0
C30 C 0.46927 0.34781 0.11456 0.0
C31 C 0.40884 0.24542 0.09275 0.0
H32 H 0.15713 0.99084 0.14499 0.0
H33 H 0.22471 0.03824 0.14894 0.0
H34 H 0.25064 0.94877 0.1624 0.0
H35 H 0.1832 0.90096 0.15759 0.0
H36 H 0.53813 0.33569 0.08715 0.0
H37 H 0.48358 0.27236 0.07994 0.0
H38 H 0.41017 0.30526 0.11698 0.0
H39 H 0.46462 0.36874 0.12384 0.0
Dy40 Dy 0.83818 0.66293 0.41149 0.0
Dy41 Dy 0.80308 0.7122 0.385 0.0
C42 C 0.83057 0.66608 0.3521 0.0
O43 O 0.8845 0.72389 0.4131 0.0
O44 O 0.86652 0.74713 0.38019 0.0
O45 O 0.88567 0.65489 0.41992 0.0
O46 O 0.82992 0.61607 0.43527 0.0
O47 O 0.82317 0.73524 0.42232 0.0
O48 O 0.80865 0.67918 0.44059 0.0
O49 O 0.7533 0.65538 0.39685 0.0
O50 O 0.78313 0.62026 0.39487 0.0
O51 O 0.76586 0.7358 0.3887 0.0
O52 O 0.79849 0.745 0.35504 0.0
C53 C 0.89268 0.74963 0.39569 0.0
O54 O 0.84999 0.66321 0.37072 0.0
O55 O 0.80496 0.67648 0.35498 0.0
C56 C 0.87023 0.59064 0.42638 0.0
C57 C 0.88368 0.52954 0.41738 0.0
C58 C 0.89359 0.55856 0.39959 0.0
C59 C 0.88687 0.58872 0.40401 0.0
C60 C 0.85988 0.56155 0.44399 0.0
C61 C 0.86637 0.5313 0.43954 0.0
C62 C 0.86484 0.62328 0.43219 0.0
C63 C 0.81166 0.71302 0.44171 0.0
C64 C 0.75183 0.62219 0.39566 0.0
C65 C 0.79063 0.79567 0.36913 0.0
C66 C 0.81531 0.87419 0.37277 0.0
C67 C 0.77624 0.84698 0.371 0.0
C68 C 0.76407 0.80814 0.36915 0.0
C69 C 0.82963 0.82258 0.37107 0.0
C70 C 0.84186 0.86145 0.37275 0.0
C71 C 0.77735 0.7546 0.36786 0.0
H72 H 0.90724 0.55841 0.38241 0.0
H73 H 0.89512 0.61074 0.39003 0.0
H74 H 0.84694 0.56235 0.46134 0.0
H75 H 0.85758 0.50915 0.45346 0.0
H76 H 0.75494 0.85562 0.37143 0.0
H77 H 0.73384 0.78777 0.36795 0.0
H78 H 0.85066 0.81355 0.37132 0.0
H79 H 0.87215 0.88152 0.37381 0.0
Dy80 Dy 0.93211 0.22853 0.1343 0.0
Dy81 Dy 0.84602 0.18917 0.1106 0.0
C82 C 0.92043 0.23054 0.07796 0.0
O83 O 0.91424 0.27168 0.14223 0.0
O84 O 0.86454 0.25071 0.11447 0.0
O85 O 0.99264 0.26259 0.12816 0.0
O86 O 0.97138 0.23811 0.16431 0.0
O87 O 0.83875 0.19653 0.15103 0.0
O88 O 0.89126 0.1943 0.16414 0.0
O89 O 0.85488 0.14166 0.12227 0.0
O90 O 0.91984 0.17175 0.11938 0.0
O91 O 0.78924 0.14092 0.10778 0.0
O92 O 0.80614 0.19033 0.08436 0.0
C93 C 0.88886 0.27642 0.12986 0.0
O94 O 0.93481 0.25272 0.097 0.0
O95 O 0.88835 0.198 0.08038 0.0
C96 C 0.02708 0.23945 0.14997 0.0
C97 C 0.07864 0.2118 0.14934 0.0
C98 C 0.05186 0.20255 0.13027 0.0
C99 C 0.0262 0.216 0.13067 0.0
C100 C 0.05317 0.24824 0.16925 0.0
C101 C 0.07864 0.23444 0.16901 0.0
C102 C 1.00112 0.25499 0.14987 0.0
C103 C 0.85837 0.19192 0.16872 0.0
C104 C 0.88641 0.14033 0.12051 0.0
C105 C 0.74087 0.15536 0.09727 0.0
C106 C 0.66817 0.14767 0.10508 0.0
C107 C 0.67995 0.12617 0.11913 0.0
C108 C 0.71577 0.12989 0.11525 0.0
C109 C 0.7292 0.17699 0.08329 0.0
C110 C 0.69335 0.1733 0.08719 0.0
C111 C 0.77798 0.15773 0.0921 0.0
H112 H 0.05126 0.18568 0.11465 0.0
H113 H 1.00607 0.20854 0.11565 0.0
H114 H 0.054 0.26597 0.18442 0.0
H115 H 0.09834 0.24156 0.18424 0.0
H116 H 0.66113 0.10578 0.1328 0.0
H117 H 0.72351 0.11234 0.12617 0.0
H118 H 0.74768 0.19659 0.06915 0.0
H119 H 0.68541 0.19065 0.07623 0.0
Dy120 Dy 0.37605 0.18927 0.41085 0.0
Dy121 Dy 0.33014 0.106 0.38308 0.0
C122 C 0.38232 0.18031 0.35214 0.0
O123 O 0.3145 0.17214 0.41149 0.0
O124 O 0.29752 0.13648 0.37631 0.0
O125 O 0.38415 0.24557 0.41651 0.0
O126 O 0.41844 0.2276 0.43681 0.0
O127 O 0.30378 0.09992 0.41988 0.0
O128 O 0.35708 0.14305 0.44012 0.0
O129 O 0.38545 0.11194 0.39697 0.0
O130 O 0.42102 0.17723 0.39815 0.0
O131 O 0.30752 0.04509 0.38512 0.0
O132 O 0.29735 0.07029 0.35268 0.0
C133 C 0.29163 0.15702 0.39255 0.0
O134 O 0.37856 0.20051 0.36977 0.0
O135 O 0.37287 0.14458 0.35558 0.0
C136 C 0.44666 0.29328 0.42691 0.0
C137 C 0.51086 0.36636 0.41829 0.0
C138 C 0.50002 0.33699 0.40087 0.0
C139 C 0.46823 0.30077 0.40515 0.0
C140 C 0.45728 0.32237 0.44428 0.0
C141 C 0.48901 0.3585 0.44005 0.0
C142 C 0.41262 0.25572 0.43163 0.0
C143 C 0.32375 0.11137 0.44014 0.0
C144 C 0.4187 0.14376 0.39824 0.0
C145 C 0.24716 1.01054 0.36653 0.0
C146 C 0.16891 0.95569 0.37226 0.0
C147 C 0.196 0.94442 0.36746 0.0
C148 C 0.23468 0.97158 0.36461 0.0
C149 C 0.22036 0.02203 0.37136 0.0
C150 C 0.18166 0.99492 0.37407 0.0
C151 C 0.28822 0.0388 0.36469 0.0
H152 H 0.51639 0.34184 0.38406 0.0
H153 H 0.46046 0.27864 0.3915 0.0
H154 H 0.44086 0.31721 0.46111 0.0
H155 H 0.49611 0.38046 0.45371 0.0
H156 H 0.18746 0.91453 0.36637 0.0
H157 H 0.25496 0.96211 0.3612 0.0
H158 H 0.22939 0.05198 0.37315 0.0
H159 H 0.1617 1.00477 0.37745 0.0
Dy160 Dy 0.79971 0.70165 0.14006 0.0
Dy161 Dy 0.83376 0.65197 0.11354 0.0
C162 C 0.80866 0.70314 0.08315 0.0
O163 O 0.74889 0.64622 0.12768 0.0
O164 O 0.777 0.60924 0.12845 0.0
O165 O 0.76295 0.72579 0.13724 0.0
O166 O 0.79972 0.73824 0.16903 0.0
O167 O 0.84359 0.65155 0.15456 0.0
O168 O 0.7957 0.66107 0.16916 0.0
O169 O 0.87995 0.71274 0.1113 0.0
O170 O 0.86299 0.7333 0.1457 0.0
O171 O 0.88151 0.64339 0.10691 0.0
O172 O 0.82704 0.60635 0.08973 0.0
C173 C 0.74639 0.61247 0.12799 0.0
O174 O 0.82012 0.72481 0.1026 0.0
O175 O 0.80584 0.66937 0.08398 0.0
C176 C 0.79369 0.78943 0.15241 0.0
C177 C 0.82541 0.86899 0.14448 0.0
C178 C 0.8024 0.84262 0.12641 0.0
C179 C 0.78677 0.80341 0.1303 0.0
C180 C 0.81639 0.81571 0.17057 0.0
C181 C 0.83214 0.85496 0.16663 0.0
C182 C 0.77845 0.74788 0.1563 0.0
C183 C 0.82098 0.6503 0.17253 0.0
C184 C 0.88876 0.73706 0.12943 0.0
C185 C 0.86574 0.57972 0.1003 0.0
C186 C 0.87567 0.51716 0.11203 0.0
C187 C 0.84459 0.51941 0.12173 0.0
C188 C 0.83972 0.55045 0.11597 0.0
C189 C 0.89692 0.57783 0.09085 0.0
C190 C 0.90191 0.54696 0.09666 0.0
C191 C 0.86148 0.61278 0.09387 0.0
H192 H 0.79596 0.85222 0.10932 0.0
H193 H 0.76933 0.7841 0.11589 0.0
H194 H 0.8223 0.80595 0.18779 0.0
H195 H 0.84999 0.87434 0.18088 0.0
H196 H 0.82361 0.49684 0.13341 0.0
H197 H 0.81556 0.55149 0.12363 0.0
H198 H 0.91754 0.60033 0.07894 0.0
H199 H 0.92651 0.54659 0.0892 0.0
Dy200 Dy 0.85346 0.20229 0.40811 0.0
Dy201 Dy 0.93731 0.2395 0.38 0.0
C202 C 0.86332 0.21664 0.34906 0.0
O203 O 0.87084 0.15833 0.41012 0.0
O204 O 0.90717 0.17601 0.37496 0.0
O205 O 0.79731 0.15392 0.41437 0.0
O206 O 0.81442 0.20695 0.43336 0.0
O207 O 0.94372 0.22119 0.41732 0.0
O208 O 0.89901 0.22928 0.43758 0.0
O209 O 0.93168 0.28909 0.39348 0.0
O210 O 0.86637 0.25946 0.39496 0.0
O211 O 0.99796 0.27874 0.38052 0.0
O212 O 0.97261 0.24021 0.34972 0.0
C213 C 0.88639 0.15012 0.39166 0.0
O214 O 0.84281 0.19302 0.36701 0.0
O215 O 0.8989 0.24316 0.35247 0.0
C216 C 0.74852 0.16872 0.42336 0.0
C217 C 0.67424 0.15767 0.4163 0.0
C218 C 0.68979 0.14273 0.39944 0.0
C219 C 0.72646 0.14819 0.40292 0.0
C220 C 0.73322 0.18396 0.44004 0.0
C221 C 0.69666 0.17866 0.43653 0.0
C222 C 0.78644 0.17286 0.42836 0.0
C223 C 0.93175 0.2297 0.43737 0.0
C224 C 0.89994 0.29054 0.39501 0.0
C225 C 0.03271 0.25193 0.36345 0.0
C226 C 0.08706 0.22796 0.3682 0.0
C227 C 0.0594 0.21931 0.38671 0.0
C228 C 0.03243 0.23099 0.38429 0.0
C229 C 0.06005 0.26057 0.34491 0.0
C230 C 0.08695 0.24869 0.34722 0.0
C231 C 1.00418 0.26412 0.36083 0.0
H232 H 0.67333 0.1261 0.3838 0.0
H233 H 0.73727 0.13588 0.38973 0.0
H234 H 0.74949 0.1998 0.45599 0.0
H235 H 0.68604 0.1912 0.44966 0.0
H236 H 0.05886 0.20391 0.40326 0.0
H237 H 1.01138 0.22374 0.39877 0.0
H238 H 0.06052 0.2764 0.32858 0.0
H239 H 0.10739 0.25538 0.33242 0.0
Dy240 Dy 0.19013 0.36809 0.61274 0.0
Dy241 Dy 0.1041 0.32167 0.63713 0.0
C242 C 0.17873 0.3615 0.67091 0.0
O243 O 0.18131 0.3124 0.62617 0.0
O244 O 0.11655 0.27697 0.62285 0.0
O245 O 0.24733 0.37764 0.61016 0.0
O246 O 0.22936 0.40762 0.58538 0.0
O247 O 0.09967 0.33774 0.59854 0.0
O248 O 0.14864 0.33205 0.58309 0.0
O249 O 0.1225 0.38322 0.64377 0.0
O250 O 0.1691 0.40942 0.61371 0.0
O251 O 0.04353 0.29922 0.63355 0.0
O252 O 0.06581 0.28832 0.66688 0.0
C253 C 0.14998 0.27926 0.62473 0.0
O254 O 0.1982 0.38501 0.65274 0.0
O255 O 0.14536 0.33116 0.66709 0.0
C256 C 0.29457 0.43855 0.59661 0.0
C257 C 0.36739 0.50302 0.60396 0.0
C258 C 0.33862 0.49179 0.62204 0.0
C259 C 0.30249 0.45983 0.61838 0.0
C260 C 0.32296 0.4498 0.57848 0.0
C261 C 0.359 0.48171 0.58208 0.0
C262 C 0.25766 0.40357 0.59294 0.0
C263 C 0.11582 0.33068 0.58009 0.0
C264 C 0.14583 0.41209 0.62947 0.0
C265 C 1.00736 0.2387 0.65211 0.0
C266 C 0.95335 0.16018 0.64858 0.0
C267 C 0.98156 0.17858 0.63025 0.0
C268 C 1.00839 0.21738 0.63206 0.0
C269 C 0.97961 0.22055 0.67053 0.0
C270 C 0.95289 0.18165 0.66883 0.0
C271 C 0.03542 0.27962 0.65403 0.0
H272 H 0.34395 0.50783 0.63895 0.0
H273 H 0.28088 0.45152 0.63261 0.0
H274 H 0.31741 0.43353 0.56163 0.0
H275 H 0.38055 0.48925 0.56792 0.0
H276 H 0.98257 0.16318 0.61425 0.0
H277 H 0.0298 0.23081 0.61769 0.0
H278 H 0.97863 0.23647 0.68626 0.0
H279 H 0.93205 0.16834 0.68351 0.0
Dy280 Dy 0.24812 0.92976 0.88531 0.0
Dy281 Dy 0.20758 0.84238 0.90846 0.0
C282 C 0.24227 0.91563 0.94185 0.0
O283 O 0.29396 0.91447 0.88126 0.0
O284 O 0.2701 0.86369 0.9087 0.0
O285 O 0.283 0.99053 0.89119 0.0
O286 O 0.25518 0.96937 0.85609 0.0
O287 O 0.22085 0.83481 0.86931 0.0
O288 O 0.22872 0.89108 0.85298 0.0
O289 O 0.1622 0.84967 0.89097 0.0
O290 O 0.1885 0.91346 0.89693 0.0
O291 O 0.15897 0.78558 0.91117 0.0
O292 O 0.20693 0.80242 0.93556 0.0
C293 C 0.29782 0.88936 0.89473 0.0
O294 O 0.26685 0.93224 0.92403 0.0
O295 O 0.21068 0.88326 0.93787 0.0
C296 C 0.25979 0.02628 0.8709 0.0
C297 C 0.23345 0.07887 0.87404 0.0
C298 C 0.27276 0.09157 0.87296 0.0
C299 C 0.28575 0.06553 0.87139 0.0
C300 C 0.22054 1.01335 0.87206 0.0
C301 C 0.2075 0.03937 0.87355 0.0
C302 C 0.274 0.99921 0.87001 0.0
C303 C 0.22479 0.85708 0.85036 0.0
C304 C 0.15852 0.87975 0.89318 0.0
C305 C 0.1711 0.73722 0.92447 0.0
C306 C 0.16122 0.66377 0.91727 0.0
C307 C 0.17988 0.69265 0.89929 0.0
C308 C 0.18479 0.72907 0.90288 0.0
C309 C 0.15274 0.70868 0.94246 0.0
C310 C 0.14784 0.67234 0.93893 0.0
C311 C 0.17415 0.77462 0.92819 0.0
H312 H 0.29361 0.12168 0.87376 0.0
H313 H 0.31614 0.07605 0.87077 0.0
H314 H 0.19998 0.98313 0.87183 0.0
H315 H 0.17706 0.02853 0.8741 0.0
H316 H 0.19098 0.68722 0.88255 0.0
H317 H 0.19901 0.75077 0.88875 0.0
H318 H 0.14174 0.71437 0.95917 0.0
H319 H 0.13294 0.65075 0.953 0.0
Dy320 Dy 0.66209 0.83158 0.61173 0.0
Dy321 Dy 0.7105 0.79521 0.63807 0.0
C322 C 0.65992 0.81703 0.67055 0.0
O323 O 0.72334 0.87686 0.61001 0.0
O324 O 0.74286 0.85833 0.64441 0.0
O325 O 0.65458 0.88003 0.60536 0.0
O326 O 0.61545 0.82573 0.58891 0.0
O327 O 0.73424 0.81674 0.60092 0.0
O328 O 0.67945 0.80414 0.58179 0.0
O329 O 0.65499 0.74583 0.62479 0.0
O330 O 0.61891 0.77478 0.6263 0.0
O331 O 0.73162 0.75598 0.63503 0.0
O332 O 0.747 0.79341 0.66661 0.0
C333 C 0.74737 0.88471 0.62831 0.0
O334 O 0.66228 0.84062 0.65286 0.0
O335 O 0.66984 0.79118 0.66697 0.0
C336 C 0.58989 0.86517 0.6012 0.0
C337 C 0.52827 0.87692 0.61336 0.0
C338 C 0.5649 0.90065 0.62306 0.0
C339 C 0.59528 0.8949 0.61705 0.0
C340 C 0.55325 0.8413 0.59161 0.0
C341 C 0.52284 0.84699 0.59767 0.0
C342 C 0.62251 0.86024 0.59358 0.0
C343 C 0.71288 0.80601 0.58127 0.0
C344 C 0.62156 0.74389 0.62535 0.0
C345 C 0.79469 0.78116 0.65049 0.0
C346 C 0.87227 0.80214 0.64364 0.0
C347 C 0.84411 0.77734 0.62704 0.0
C348 C 0.80586 0.76696 0.63043 0.0
C349 C 0.82277 0.80582 0.66714 0.0
C350 C 0.86106 0.81628 0.66371 0.0
C351 C 0.75401 0.77008 0.65412 0.0
H352 H 0.57012 0.92373 0.63537 0.0
H353 H 0.6231 0.91407 0.6247 0.0
H354 H 0.54816 0.81847 0.5791 0.0
H355 H 0.49523 0.82849 0.58952 0.0
H356 H 0.85148 0.76538 0.61159 0.0
H357 H 0.78502 0.74765 0.61732 0.0
H358 H 0.81522 0.81718 0.68284 0.0
H359 H 0.88194 0.8358 0.67671 0.0
Dy360 Dy 0.10883 0.32002 0.88265 0.0
Dy361 Dy 0.19287 0.36733 0.91001 0.0
C362 C 0.11453 0.3167 0.93972 0.0
O363 O 0.1148 0.37545 0.89607 0.0
O364 O 0.18013 0.41158 0.89667 0.0
O365 O 0.04832 0.29908 0.8838 0.0
O366 O 0.07281 0.28458 0.85303 0.0
O367 O 0.20354 0.37032 0.86873 0.0
O368 O 0.14643 0.36222 0.85471 0.0
O369 O 0.1758 0.30593 0.91173 0.0
O370 O 0.13929 0.28719 0.87686 0.0
O371 O 0.24918 0.3754 0.91563 0.0
O372 O 0.23186 0.4106 0.93531 0.0
C373 C 0.1465 0.40887 0.89666 0.0
O374 O 0.10324 0.29558 0.91999 0.0
O375 O 0.14705 0.34933 0.93958 0.0
C376 C 1.01262 0.23694 0.86765 0.0
C377 C 0.95782 0.15874 0.87333 0.0
C378 C 0.98358 0.17882 0.89246 0.0
C379 C 1.0108 0.21741 0.8896 0.0
C380 C 0.9871 0.21717 0.84852 0.0
C381 C 0.96 0.17845 0.85129 0.0
C382 C 0.04156 0.27755 0.86444 0.0
C383 C 0.18244 0.373 0.85111 0.0
C384 C 0.1603 0.2822 0.89331 0.0
C385 C 0.29756 0.43794 0.92547 0.0
C386 C 0.37135 0.50099 0.91661 0.0
C387 C 0.34268 0.48907 0.8985 0.0
C388 C 0.30611 0.45785 0.9029 0.0
C389 C 0.32594 0.44968 0.94354 0.0
C390 C 0.36241 0.48083 0.93919 0.0
C391 C 0.25973 0.40431 0.93036 0.0
H392 H 0.98249 0.16484 0.90981 0.0
H393 H 0.03044 0.23198 0.90456 0.0
H394 H 0.98828 0.23163 0.83136 0.0
H395 H 0.94109 0.16385 0.83601 0.0
H396 H 0.34835 0.50414 0.88102 0.0
H397 H 0.28455 0.4492 0.88869 0.0
H398 H 0.31999 0.43454 0.96102 0.0
H399 H 0.38379 0.48875 0.95344 0.0
Dy400 Dy 0.21102 0.84646 0.61271 0.0
Dy401 Dy 0.23212 0.92515 0.6431 0.0
C402 C 0.20731 0.84775 0.67157 0.0
O403 O 0.15599 0.841 0.62568 0.0
O404 O 0.17527 0.90443 0.62556 0.0
O405 O 0.17266 0.79564 0.59215 0.0
O406 O 0.22948 0.80744 0.6014 0.0
O407 O 0.24445 0.94393 0.60408 0.0
O408 O 0.21678 0.88746 0.58223 0.0
O409 O 0.28203 0.91514 0.64657 0.0
O410 O 0.27286 0.88814 0.60863 0.0
O411 O 0.26832 0.98558 0.64975 0.0
O412 O 0.21767 0.95239 0.6719 0.0
C413 C 0.14796 0.86863 0.62541 0.0
O414 O 0.21889 0.83598 0.65265 0.0
O415 O 0.20243 0.87719 0.66967 0.0
C416 C 0.18175 0.74285 0.5995 0.0
C417 C 0.16094 0.66718 0.61271 0.0
C418 C 0.16865 0.69466 0.63104 0.0
C419 C 0.17893 0.73214 0.62449 0.0
C420 C 0.1731 0.71538 0.58122 0.0
C421 C 0.16278 0.67796 0.58772 0.0
C422 C 0.19656 0.78294 0.59212 0.0
C423 C 0.23328 0.92501 0.58331 0.0
C424 C 0.29498 0.90469 0.62759 0.0
C425 C 0.2315 0.01378 0.66015 0.0
C426 C 0.20396 0.06439 0.65077 0.0
C427 C 0.19301 0.03237 0.6357 0.0
C428 C 0.20668 1.00737 0.64033 0.0
C429 C 0.24274 0.04568 0.67514 0.0
C430 C 0.22919 0.07081 0.67048 0.0
C431 C 0.2445 0.98648 0.66558 0.0
H432 H 0.16712 0.68731 0.65044 0.0
H433 H 0.18556 0.75298 0.6389 0.0
H434 H 0.1754 0.72315 0.56184 0.0
H435 H 0.15765 0.65785 0.57309 0.0
H436 H 0.17338 0.02625 0.62053 0.0
H437 H 0.19757 0.98278 0.62857 0.0
H438 H 0.2619 0.0511 0.69051 0.0
H439 H 0.2388 0.0955 0.68221 0.0
Dy440 Dy 0.7191 0.79216 0.88415 0.0
Dy441 Dy 0.66841 0.82599 0.90958 0.0
C442 C 0.7179 0.79999 0.94087 0.0
O443 O 0.66216 0.74146 0.89499 0.0
O444 O 0.62642 0.77075 0.89292 0.0
O445 O 0.74349 0.75573 0.88806 0.0
O446 O 0.75501 0.7906 0.85517 0.0
O447 O 0.6695 0.83767 0.8687 0.0
O448 O 0.68338 0.79286 0.8536 0.0
O449 O 0.72924 0.87225 0.91232 0.0
O450 O 0.75211 0.85558 0.87888 0.0
O451 O 0.65978 0.87331 0.91706 0.0
O452 O 0.62125 0.81773 0.93277 0.0
C453 C 0.62878 0.73967 0.89362 0.0
O454 O 0.74067 0.81191 0.9218 0.0
O455 O 0.68392 0.79649 0.93918 0.0
C456 C 0.80554 0.7846 0.87132 0.0
C457 C 0.88496 0.81538 0.87658 0.0
C458 C 0.86515 0.8276 0.8919 0.0
C459 C 0.82585 0.81246 0.88922 0.0
C460 C 0.82506 0.77227 0.85603 0.0
C461 C 0.86442 0.78751 0.85862 0.0
C462 C 0.76433 0.76931 0.86813 0.0
C463 C 0.67273 0.81824 0.8503 0.0
C464 C 0.75473 0.88123 0.89473 0.0
C465 C 0.59591 0.85751 0.9228 0.0
C466 C 0.53549 0.87031 0.91048 0.0
C467 C 0.55208 0.85824 0.89239 0.0
C468 C 0.58207 0.85192 0.8985 0.0
C469 C 0.57925 0.86911 0.9409 0.0
C470 C 0.54933 0.8754 0.93485 0.0
C471 C 0.62838 0.8526 0.92948 0.0
H472 H 0.88012 0.84925 0.90573 0.0
H473 H 0.81131 0.82265 0.90104 0.0
H474 H 0.80987 0.75088 0.84207 0.0
H475 H 0.87869 0.7771 0.84675 0.0
H476 H 0.54231 0.85427 0.87343 0.0
H477 H 0.5947 0.84303 0.88424 0.0
H478 H 0.58952 0.87348 0.95976 0.0
H479 H 0.53678 0.8839 0.94936 0.0
C480 C 0.14498 0.2233 0.1556 0.0
C481 C 0.10721 0.19895 0.14816 0.0
C482 C 0.17271 0.21244 0.15341 0.0
C483 C 0.16266 0.17657 0.14316 0.0
C484 C 0.12455 0.15159 0.13593 0.0
C485 C 0.09724 0.16294 0.1387 0.0
C486 C 0.213 0.23975 0.16155 0.0
C487 C 0.1128 0.11322 0.12477 0.0
C488 C 0.24368 0.16874 0.11406 0.0
C489 C 0.25208 0.14981 0.13263 0.0
C490 C 0.21403 0.17676 0.11702 0.0
C491 C 0.19245 0.16593 0.13919 0.0
C492 C 0.20029 0.14619 0.15783 0.0
C493 C 0.22989 0.1382 0.15427 0.0
C494 C 0.20624 0.19745 0.09658 0.0
C495 C 0.17809 0.13444 0.18179 0.0
H496 H 0.15322 0.25138 0.16257 0.0
H497 H 0.06803 0.1436 0.13331 0.0
H498 H 0.22276 0.2254 0.17474 0.0
H499 H 0.23247 0.24884 0.14534 0.0
H500 H 0.21566 0.26556 0.1705 0.0
H501 H 0.08181 0.09673 0.12068 0.0
H502 H 0.12884 0.11714 0.10734 0.0
H503 H 0.11995 0.0962 0.1375 0.0
H504 H 0.26048 0.17762 0.0972 0.0
H505 H 0.23619 0.12361 0.16875 0.0
H506 H 0.21161 0.22551 0.1033 0.0
H507 H 0.17586 0.18096 0.09103 0.0
H508 H 0.22433 0.2022 0.08001 0.0
H509 H 0.18257 0.16014 0.19183 0.0
H510 H 0.18669 0.11796 0.19401 0.0
H511 H 0.14712 0.11686 0.17802 0.0
C512 C 0.10549 0.93157 0.39358 0.0
C513 C 0.12769 0.92664 0.37561 0.0
C514 C 0.06683 0.9042 0.39714 0.0
C515 C 0.04985 0.87083 0.38256 0.0
C516 C 0.07197 0.86573 0.36434 0.0
C517 C 0.11047 0.89369 0.36103 0.0
C518 C 0.04425 0.9108 0.41672 0.0
C519 C 0.05503 0.83052 0.34845 0.0
C520 C 0.96196 0.78185 0.40696 0.0
C521 C 0.93256 0.78176 0.39319 0.0
C522 C 1.00009 0.81085 0.40388 0.0
C523 C 1.00921 0.84075 0.38673 0.0
C524 C 0.97962 0.84131 0.37315 0.0
C525 C 0.94171 0.81177 0.37646 0.0
C526 C 0.03075 0.80905 0.41867 0.0
C527 C 0.98806 0.87286 0.35486 0.0
H528 H 0.11851 0.95656 0.40522 0.0
H529 H 0.12705 0.8898 0.34682 0.0
H530 H 1.0185 0.90928 0.40843 0.0
H531 H 0.03436 0.8881 0.43105 0.0
H532 H 0.06118 0.93889 0.42584 0.0
H533 H 0.07595 0.83092 0.335 0.0
H534 H 0.04449 0.80473 0.3603 0.0
H535 H 0.03022 0.82791 0.3381 0.0
H536 H 0.95532 0.75881 0.41988 0.0
H537 H 0.91927 0.81212 0.36579 0.0
H538 H 0.04728 0.83565 0.42937 0.0
H539 H 0.051 0.80674 0.40598 0.0
H540 H 1.01889 0.78445 0.43169 0.0
H541 H 1.00392 0.90096 0.36405 0.0
H542 H 0.96174 0.87008 0.34656 0.0
H543 H 1.00651 0.87262 0.33979 0.0
C544 C 0.84729 0.06957 0.11751 0.0
C545 C 0.88315 0.10214 0.12104 0.0
C546 C 0.8419 0.03281 0.12029 0.0
C547 C 0.87312 0.02815 0.12682 0.0
C548 C 0.90979 0.06082 0.12952 0.0
C549 C 0.91442 0.09751 0.12655 0.0
C550 C 0.80236 0.99891 0.11701 0.0
C551 C 0.94383 0.05706 0.13637 0.0
C552 C 0.84209 0.93403 0.15985 0.0
C553 C 0.84139 0.91081 0.14046 0.0
C554 C 0.85448 0.97283 0.15595 0.0
C555 C 0.86631 0.98898 0.13204 0.0
C556 C 0.86715 0.96615 0.11261 0.0
C557 C 0.85475 0.92742 0.11705 0.0
C558 C 0.85307 0.99608 0.1772 0.0
C559 C 0.87958 0.98218 0.08685 0.0
H560 H 0.82298 0.07272 0.11297 0.0
H561 H 0.94221 0.12248 0.12932 0.0
H562 H 0.80294 0.97896 0.10331 0.0
H563 H 0.79211 0.98316 0.13477 0.0
H564 H 0.78152 1.00735 0.11074 0.0
H565 H 0.97089 0.08483 0.13553 0.0
H566 H 0.94008 0.04541 0.15543 0.0
H567 H 0.94617 0.03673 0.12387 0.0
H568 H 0.83153 0.92157 0.17794 0.0
H569 H 0.8551 0.91001 0.10204 0.0
H570 H 0.83047 1.00336 0.17379 0.0
H571 H 0.8805 0.02327 0.1787 0.0
H572 H 0.84701 0.98057 0.19513 0.0
H573 H 0.85825 0.98853 0.07871 0.0
H574 H 0.88263 0.96208 0.07449 0.0
H575 H 0.90716 1.00937 0.08742 0.0
C576 C 0.23805 0.15363 0.36726 0.0
C577 C 0.25957 0.16448 0.38909 0.0
C578 C 0.20904 0.16245 0.36327 0.0
C579 C 0.20112 0.18236 0.3816 0.0
C580 C 0.22217 0.19265 0.40388 0.0
C581 C 0.25116 0.18371 0.40731 0.0
C582 C 0.18736 0.15111 0.33922 0.0
C583 C 0.21442 0.21359 0.42399 0.0
C584 C 0.15401 0.23994 0.36355 0.0
C585 C 0.11604 0.21571 0.37091 0.0
C586 C 0.18176 0.22916 0.36652 0.0
C587 C 0.1715 0.19335 0.3773 0.0
C588 C 0.13322 0.16859 0.38459 0.0
C589 C 0.10597 0.17998 0.38123 0.0
C590 C 0.22224 0.25637 0.35843 0.0
C591 C 0.12111 0.13022 0.39621 0.0
H592 H 0.2443 0.13881 0.35304 0.0
H593 H 0.26744 0.19209 0.42429 0.0
H594 H 0.15632 0.1335 0.34291 0.0
H595 H 0.19206 0.17697 0.32906 0.0
H596 H 0.19617 0.13478 0.32715 0.0
H597 H 0.23241 0.21839 0.44057 0.0
H598 H 0.21991 0.24163 0.4169 0.0
H599 H 0.18402 0.19723 0.42966 0.0
H600 H 0.1623 0.26779 0.35589 0.0
H601 H 0.07665 0.16073 0.38661 0.0
H602 H 0.23197 0.2421 0.34526 0.0
H603 H 0.24147 0.26494 0.37465 0.0
H604 H 0.22529 0.28247 0.34946 0.0
H605 H 0.12793 0.11293 0.38363 0.0
H606 H 0.09013 0.11404 0.40052 0.0
H607 H 0.13718 0.13404 0.41356 0.0
C608 C 0.1015 0.91747 0.12964 0.0
C609 C 0.1235 0.91293 0.14793 0.0
C610 C 0.06287 0.89012 0.12641 0.0
C611 C 0.04581 0.85721 0.14169 0.0
C612 C 0.06775 0.8525 0.16025 0.0
C613 C 0.10622 0.88044 0.16321 0.0
C614 C 0.04041 0.89626 0.10648 0.0
C615 C 0.05065 0.81774 0.17687 0.0
C616 C 0.93781 0.79884 0.14819 0.0
C617 C 0.92868 0.76866 0.13191 0.0
C618 C 0.97572 0.82824 0.15124 0.0
C619 C 1.00527 0.8272 0.13791 0.0
C620 C 0.99618 0.79697 0.12131 0.0
C621 C 0.95802 0.76821 0.11841 0.0
C622 C 0.9842 0.86025 0.16887 0.0
C623 C 0.02686 0.79464 0.10691 0.0
H624 H 0.11465 0.94214 0.11749 0.0
H625 H 0.12273 0.87693 0.17766 0.0
H626 H 0.03052 0.87317 0.09263 0.0
H627 H 1.01466 0.89504 0.11457 0.0
H628 H 0.05743 0.92408 0.09681 0.0
H629 H 0.07149 0.81842 0.19048 0.0
H630 H 0.02587 0.81552 0.18707 0.0
H631 H 0.04002 0.79162 0.16557 0.0
H632 H 0.91531 0.79955 0.1586 0.0
H633 H 0.9513 0.74494 0.10587 0.0
H634 H 0.99997 0.8881 0.15911 0.0
H635 H 1.00275 0.86048 0.18401 0.0
H636 H 0.9579 0.85767 0.17712 0.0
H637 H 0.04343 0.82084 0.09561 0.0
H638 H 1.01502 0.76959 0.09447 0.0
H639 H 0.04708 0.79276 0.11986 0.0
C640 C 0.85827 0.93911 0.39069 0.0
C641 C 0.82822 0.91559 0.37486 0.0
C642 C 0.8701 0.97795 0.39324 0.0
C643 C 0.85122 0.99367 0.37982 0.0
C644 C 0.82116 0.97025 0.36362 0.0
C645 C 0.81017 0.93161 0.36126 0.0
C646 C 0.90236 1.00201 0.41063 0.0
C647 C 0.80019 0.98588 0.34906 0.0
C648 C 0.85224 0.08156 0.40479 0.0
C649 C 0.87895 0.11051 0.38924 0.0
C650 C 0.84333 0.04358 0.40208 0.0
C651 C 0.86173 0.03419 0.38347 0.0
C652 C 0.88929 0.06333 0.36802 0.0
C653 C 0.89748 0.10112 0.37102 0.0
C654 C 0.81362 1.01335 0.41885 0.0
C655 C 0.90979 0.05449 0.34813 0.0
H656 H 0.87211 0.92699 0.40155 0.0
H657 H 0.78741 0.91392 0.34864 0.0
H658 H 0.92475 0.02756 0.40079 0.0
H659 H 0.89169 1.01221 0.42597 0.0
H660 H 0.91552 0.98604 0.41863 0.0
H661 H 0.77796 0.96412 0.33689 0.0
H662 H 0.78637 0.99657 0.3619 0.0
H663 H 0.82056 1.01036 0.33748 0.0
H664 H 0.83767 0.08841 0.41889 0.0
H665 H 0.91826 0.12327 0.35899 0.0
H666 H 0.82581 0.99788 0.42872 0.0
H667 H 0.78936 0.99211 0.40768 0.0
H668 H 0.80252 0.02545 0.43275 0.0
H669 H 0.92401 0.03971 0.35631 0.0
H670 H 0.93155 0.08055 0.33834 0.0
H671 H 0.88896 0.03493 0.3344 0.0
C672 C 0.18633 0.10169 0.62158 0.0
C673 C 0.18953 0.09123 0.64588 0.0
C674 C 0.1751 0.12878 0.61683 0.0
C675 C 0.16713 0.14614 0.63683 0.0
C676 C 0.16883 0.1346 0.66133 0.0
C677 C 0.17987 0.10728 0.66554 0.0
C678 C 0.1736 0.14018 0.59042 0.0
C679 C 0.16068 0.15242 0.68321 0.0
C680 C 0.18968 0.24836 0.62887 0.0
C681 C 0.15338 0.24444 0.62644 0.0
C682 C 0.19433 0.21661 0.63191 0.0
C683 C 0.16192 0.17963 0.6324 0.0
C684 C 0.12514 0.17518 0.6294 0.0
C685 C 0.12126 0.20768 0.62652 0.0
C686 C 0.23409 0.22281 0.6351 0.0
C687 C 0.08992 0.13617 0.62959 0.0
H688 H 0.19395 0.08975 0.60622 0.0
H689 H 0.1814 0.09882 0.68435 0.0
H690 H 0.14671 0.14035 0.58702 0.0
H691 H 0.19749 0.16952 0.58696 0.0
H692 H 0.17577 0.12076 0.57695 0.0
H693 H 0.15978 0.13792 0.70089 0.0
H694 H 0.18316 0.18284 0.68456 0.0
H695 H 0.13308 0.15152 0.68075 0.0
H696 H 0.21481 0.2765 0.62877 0.0
H697 H 0.09312 0.2043 0.62462 0.0
H698 H 0.23999 0.20697 0.62077 0.0
H699 H 0.23648 0.21162 0.65337 0.0
H700 H 0.25638 0.25339 0.63383 0.0
H701 H 0.09252 0.11792 0.61542 0.0
H702 H 0.06357 0.13739 0.62598 0.0
H703 H 0.087 0.1222 0.64779 0.0
C704 C 0.08806 0.83766 0.88939 0.0
C705 C 0.11961 0.87459 0.8915 0.0
C706 C 0.05091 0.8314 0.88749 0.0
C707 C 0.04481 0.86282 0.88759 0.0
C708 C 0.07639 0.90025 0.88986 0.0
C709 C 0.11347 0.90571 0.89186 0.0
C710 C 1.01812 0.79099 0.88522 0.0
C711 C 0.07101 0.93447 0.89001 0.0
C712 C 0.9505 0.84036 0.85869 0.0
C713 C 0.92676 0.83114 0.87952 0.0
C714 C 0.9895 0.85276 0.86111 0.0
C715 C 1.00521 0.85591 0.88495 0.0
C716 C 0.98173 0.84811 0.90609 0.0
C717 C 0.94282 0.83586 0.90312 0.0
C718 C 1.01354 0.86095 0.8381 0.0
C719 C 0.99725 0.85087 0.93182 0.0
H720 H 0.09229 0.8133 0.88921 0.0
H721 H 0.13759 0.93431 0.89356 0.0
H722 H 0.9973 0.78454 0.9004 0.0
H723 H 1.00293 0.78766 0.86755 0.0
H724 H 0.02765 0.76965 0.88586 0.0
H725 H 0.09844 0.96166 0.89189 0.0
H726 H 0.05702 0.93555 0.87265 0.0
H727 H 0.05194 0.932 0.9055 0.0
H728 H 0.93847 0.83748 0.8404 0.0
H729 H 0.92466 0.82856 0.91931 0.0
H730 H 0.02211 0.83905 0.8361 0.0
H731 H 0.04003 0.88901 0.83956 0.0
H732 H 0.99807 0.86088 0.82114 0.0
H733 H 1.00436 0.82802 0.93464 0.0
H734 H 0.9765 0.84794 0.94632 0.0
H735 H 0.02392 0.87853 0.93427 0.0
C736 C 0.78837 0.95121 0.61217 0.0
C737 C 0.77958 0.92424 0.63111 0.0
C738 C 0.81773 0.98914 0.61492 0.0
C739 C 0.8386 1.00055 0.63725 0.0
C740 C 0.83022 0.97338 0.65632 0.0
C741 C 0.80094 0.93551 0.65298 0.0
C742 C 0.82607 0.01715 0.59403 0.0
C743 C 0.85162 0.98449 0.68048 0.0
C744 C 0.9342 0.09284 0.63709 0.0
C745 C 0.92421 0.11897 0.64635 0.0
C746 C 0.90672 0.0542 0.63416 0.0
C747 C 0.86837 0.04119 0.64089 0.0
C748 C 0.85819 0.06722 0.65061 0.0
C749 C 0.88614 0.10577 0.65309 0.0
C750 C 0.91868 0.02735 0.62362 0.0
C751 C 0.81762 0.05445 0.65812 0.0
H752 H 0.7722 0.94276 0.59514 0.0
H753 H 0.79429 0.91493 0.66775 0.0
H754 H 0.82071 0.04009 0.60021 0.0
H755 H 0.85656 0.03085 0.58863 0.0
H756 H 0.80832 1.0034 0.57748 0.0
H757 H 0.84242 0.95976 0.69318 0.0
H758 H 0.88268 0.99759 0.67703 0.0
H759 H 0.84708 1.00618 0.68984 0.0
H760 H 0.9636 0.10256 0.6322 0.0
H761 H 0.87793 0.12572 0.6599 0.0
H762 H 0.90277 0.01454 0.60633 0.0
H763 H 0.91153 1.00364 0.6368 0.0
H764 H 0.9497 0.04188 0.61949 0.0
H765 H 0.79871 0.0434 0.64178 0.0
H766 H 0.81466 0.07792 0.66629 0.0
H767 H 0.80741 0.03082 0.6718 0.0
C768 C 0.1497 0.22243 0.87237 0.0
C769 C 0.16782 0.25007 0.89074 0.0
C770 C 0.15794 0.19287 0.86926 0.0
C771 C 0.18514 0.19103 0.88477 0.0
C772 C 0.20309 0.21852 0.90355 0.0
C773 C 0.19415 0.24756 0.90634 0.0
C774 C 0.13794 0.1639 0.84918 0.0
C775 C 0.23236 0.21771 0.92041 0.0
C776 C 0.18903 0.09947 0.89148 0.0
C777 C 0.21977 0.10678 0.87594 0.0
C778 C 0.17681 0.12618 0.89407 0.0
C779 C 0.1959 0.1612 0.88094 0.0
C780 C 0.22651 0.16849 0.86493 0.0
C781 C 0.23795 0.1412 0.86256 0.0
C782 C 0.14401 0.11727 0.91128 0.0
C783 C 0.24765 0.20547 0.85061 0.0
H784 H 0.12922 0.22398 0.86028 0.0
H785 H 0.20839 0.26873 0.92058 0.0
H786 H 0.15911 0.1656 0.83547 0.0
H787 H 0.12362 0.13468 0.85715 0.0
H788 H 0.11635 0.16829 0.83939 0.0
H789 H 0.24301 0.24058 0.93451 0.0
H790 H 0.21996 0.18977 0.93005 0.0
H791 H 0.25696 0.22116 0.90934 0.0
H792 H 0.17504 0.07321 0.90212 0.0
H793 H 0.26124 0.14686 0.85017 0.0
H794 H 0.12188 0.12065 0.90142 0.0
H795 H 0.15419 0.13768 0.92685 0.0
H796 H 0.13067 0.08787 0.91896 0.0
H797 H 0.22746 0.20973 0.83908 0.0
H798 H 0.27013 0.20633 0.83841 0.0
H799 H 0.26119 0.22973 0.86362 0.0
C800 C 0.07769 0.82137 0.62551 0.0
C801 C 0.10751 0.85938 0.62623 0.0
C802 C 0.0394 0.81216 0.62748 0.0
C803 C 0.03059 0.84161 0.63035 0.0
C804 C 0.06051 0.88006 0.6307 0.0
C805 C 0.09853 0.88847 0.62859 0.0
C806 C 1.00838 0.77082 0.62686 0.0
C807 C 0.05241 0.91232 0.63378 0.0
C808 C 0.92941 0.8198 0.61646 0.0
C809 C 0.91305 0.81281 0.64019 0.0
C810 C 0.96757 0.82927 0.61297 0.0
C811 C 0.99014 0.83207 0.6337 0.0
C812 C 0.97395 0.82537 0.6577 0.0
C813 C 0.93568 0.81573 0.66064 0.0
C814 C 0.98371 0.83619 0.58708 0.0
C815 C 0.99701 0.82812 0.6803 0.0
H816 H 0.08422 0.79866 0.62363 0.0
H817 H 0.12127 0.91794 0.6292 0.0
H818 H 0.99247 0.7628 0.64463 0.0
H819 H 0.98767 0.76636 0.61204 0.0
H820 H 1.01983 0.75139 0.62365 0.0
H821 H 0.07876 0.94071 0.63294 0.0
H822 H 0.03265 0.91106 0.61916 0.0
H823 H 0.03816 0.90944 0.65183 0.0
H824 H 0.91246 0.81822 0.60055 0.0
H825 H 0.92329 0.80985 0.67901 0.0
H826 H 0.99382 0.81595 0.58293 0.0
H827 H 1.00871 0.86537 0.58553 0.0
H828 H 0.96245 0.83287 0.57291 0.0
H829 H 1.00678 0.80705 0.67911 0.0
H830 H 0.98051 0.82288 0.69771 0.0
H831 H 0.02284 0.8568 0.6812 0.0
C832 C 0.89172 0.10294 0.86722 0.0
C833 C 0.92882 0.11749 0.8764 0.0
C834 C 0.86407 0.06426 0.87014 0.0
C835 C 0.87353 0.03944 0.88276 0.0
C836 C 0.91087 0.05385 0.89207 0.0
C837 C 0.93806 0.09259 0.88869 0.0
C838 C 0.82462 0.05001 0.85986 0.0
C839 C 0.92207 0.02836 0.90569 0.0
C840 C 0.79134 0.94851 0.91006 0.0
C841 C 0.7864 0.92128 0.89231 0.0
C842 C 0.81998 0.98688 0.90739 0.0
C843 C 0.84418 0.99847 0.88638 0.0
C844 C 0.83973 0.97106 0.86858 0.0
C845 C 0.81101 0.93282 0.87179 0.0
C846 C 0.824 0.01512 0.92691 0.0
C847 C 0.86483 0.98228 0.84587 0.0
H848 H 0.88403 0.12193 0.85803 0.0
H849 H 0.96675 0.10329 0.89552 0.0
H850 H 0.81726 0.02626 0.84685 0.0
H851 H 0.8033 0.03863 0.87505 0.0
H852 H 0.82206 0.07273 0.85 0.0
H853 H 0.9522 0.04399 0.91192 0.0
H854 H 0.90341 0.01547 0.9221 0.0
H855 H 0.91802 1.00462 0.8936 0.0
H856 H 0.77262 0.93994 0.92603 0.0
H857 H 0.80745 0.91209 0.85794 0.0
H858 H 0.81875 0.03716 0.91864 0.0
H859 H 0.85349 0.02997 0.93424 0.0
H860 H 0.80383 1.00133 0.94257 0.0
H861 H 0.86099 1.00312 0.83469 0.0
H862 H 0.85838 0.95741 0.83409 0.0
H863 H 0.89525 0.99642 0.85133 0.0
C864 C 0.3777 0.21653 0.3161 0.0
C865 C 0.3932 0.19581 0.32684 0.0
C866 C 0.37914 0.22207 0.29033 0.0
C867 C 0.39692 0.20694 0.27525 0.0
C868 C 0.41649 0.19008 0.28647 0.0
C869 C 0.41397 0.18429 0.31212 0.0
C870 C 0.35808 0.24037 0.27917 0.0
C871 C 0.43658 0.17434 0.27121 0.0
C872 C 0.35089 0.15589 0.21604 0.0
C873 C 0.37574 0.18083 0.19799 0.0
C874 C 0.35626 0.16538 0.24108 0.0
C875 C 0.38788 0.20051 0.24841 0.0
C876 C 0.41219 0.22672 0.23015 0.0
C877 C 0.40559 0.21667 0.20497 0.0
C878 C 0.32903 0.1368 0.25977 0.0
C879 C 0.44625 0.26432 0.23721 0.0
H880 H 0.36159 0.22543 0.3275 0.0
H881 H 0.42639 0.16869 0.3205 0.0
H882 H 0.37383 0.25858 0.26308 0.0
H883 H 0.32986 0.21776 0.27251 0.0
H884 H 0.35336 0.25788 0.2929 0.0
H885 H 0.45587 0.16848 0.28263 0.0
H886 H 0.41509 0.14724 0.26256 0.0
H887 H 0.45345 0.19445 0.25614 0.0
H888 H 0.32738 0.12842 0.21055 0.0
H889 H 0.42476 0.23594 0.19093 0.0
H890 H 0.31858 0.15071 0.27269 0.0
H891 H 0.34406 0.12532 0.27088 0.0
H892 H 0.30402 0.11251 0.25087 0.0
H893 H 0.4389 0.27803 0.25224 0.0
H894 H 0.45771 0.28425 0.2212 0.0
H895 H 0.46911 0.25931 0.2442 0.0
C896 C 0.8432 0.68762 0.30876 0.0
C897 C 0.83907 0.6606 0.32651 0.0
C898 C 0.84545 0.68139 0.28359 0.0
C899 C 0.84275 0.6468 0.2759 0.0
C900 C 0.84098 0.62034 0.29388 0.0
C901 C 0.8394 0.62771 0.31917 0.0
C902 C 0.84809 0.71084 0.2652 0.0
C903 C 0.83816 0.58324 0.28644 0.0
C904 C 0.79453 0.62379 0.21402 0.0
C905 C 0.82591 0.64011 0.19795 0.0
C906 C 0.79938 0.62173 0.23949 0.0
C907 C 0.83664 0.63707 0.24918 0.0
C908 C 0.86808 0.65018 0.23278 0.0
C909 C 0.8623 0.65137 0.20721 0.0
C910 C 0.76491 0.60673 0.25621 0.0
C911 C 0.90819 0.66646 0.2423 0.0
H912 H 0.84346 0.71332 0.31457 0.0
H913 H 0.83617 0.60683 0.333 0.0
H914 H 0.87101 0.71758 0.25149 0.0
H915 H 0.82086 0.69933 0.25494 0.0
H916 H 0.85389 0.73773 0.27428 0.0
H917 H 0.84531 0.56998 0.30202 0.0
H918 H 0.80857 0.56306 0.28052 0.0
H919 H 0.85731 0.58747 0.2706 0.0
H920 H 0.76626 0.61446 0.2068 0.0
H921 H 0.88663 0.66391 0.19479 0.0
H922 H 0.76461 0.631 0.26538 0.0
H923 H 0.76602 0.58813 0.27089 0.0
H924 H 0.73785 0.59035 0.24582 0.0
H925 H 0.91869 0.696 0.24875 0.0
H926 H 0.92788 0.66733 0.22769 0.0
H927 H 0.90909 0.64962 0.25825 0.0
C928 C 0.86375 0.17572 0.21242 0.0
C929 C 0.84545 0.18656 0.19486 0.0
C930 C 0.85746 0.17674 0.23777 0.0
C931 C 0.83188 0.18858 0.24595 0.0
C932 C 0.81084 0.19649 0.22833 0.0
C933 C 0.81799 0.19555 0.20291 0.0
C934 C 0.88052 0.16791 0.25579 0.0
C935 C 0.78259 0.20826 0.23628 0.0
C936 C 0.81841 0.17622 0.31552 0.0
C937 C 0.84832 0.21145 0.32351 0.0
C938 C 0.80998 0.16919 0.29017 0.0
C939 C 0.83213 0.19798 0.27259 0.0
C940 C 0.85985 0.23462 0.28084 0.0
C941 C 0.86748 0.24089 0.30615 0.0
C942 C 0.77944 0.13008 0.28218 0.0
C943 C 0.88405 0.26634 0.26285 0.0
H944 H 0.88448 0.16799 0.20641 0.0
H945 H 0.80348 0.20368 0.18948 0.0
H946 H 0.90101 0.19433 0.26557 0.0
H947 H 0.86164 0.14709 0.26995 0.0
H948 H 0.89681 0.15616 0.24649 0.0
H949 H 0.76256 0.20467 0.22114 0.0
H950 H 0.76595 0.1915 0.25262 0.0
H951 H 0.79814 0.23874 0.24159 0.0
H952 H 0.80321 0.15339 0.32883 0.0
H953 H 0.8901 0.26848 0.31221 0.0
H954 H 0.79293 0.11349 0.2761 0.0
H955 H 0.76312 0.13199 0.26632 0.0
H956 H 0.75934 0.1142 0.29751 0.0
H957 H 0.90379 0.25933 0.25304 0.0
H958 H 0.90127 0.29416 0.27223 0.0
H959 H 0.86596 0.26941 0.24873 0.0
C960 C 0.17513 0.33944 0.71431 0.0
C961 C 0.19302 0.36877 0.6967 0.0
C962 C 0.18328 0.34615 0.7395 0.0
C963 C 0.21044 0.38316 0.7475 0.0
C964 C 0.23096 0.41226 0.72971 0.0
C965 C 0.22187 0.40478 0.70443 0.0
C966 C 0.16065 0.31409 0.75768 0.0
C967 C 0.26088 0.45181 0.73739 0.0
C968 C 0.179 0.39809 0.8098 0.0
C969 C 0.19757 0.38529 0.82572 0.0
C970 C 0.18596 0.40137 0.7843 0.0
C971 C 0.21236 0.39177 0.7744 0.0
C972 C 0.23434 0.38297 0.79067 0.0
C973 C 0.22659 0.37969 0.81625 0.0
C974 C 0.16204 0.41121 0.7678 0.0
C975 C 0.26364 0.37379 0.78093 0.0
H976 H 0.1534 0.31124 0.70853 0.0
H977 H 0.23614 0.42752 0.69094 0.0
H978 H 0.18002 0.31078 0.7706 0.0
H979 H 0.14187 0.32086 0.76886 0.0
H980 H 0.14256 0.28639 0.74835 0.0
H981 H 0.28062 0.46769 0.72189 0.0
H982 H 0.2468 0.46791 0.74328 0.0
H983 H 0.27769 0.45077 0.75325 0.0
H984 H 0.15717 0.40338 0.81708 0.0
H985 H 0.24137 0.37018 0.82849 0.0
H986 H 0.14088 0.38527 0.75788 0.0
H987 H 0.18007 0.4327 0.7537 0.0
H988 H 0.1464 0.42248 0.77842 0.0
H989 H 0.24909 0.34393 0.77432 0.0
H990 H 0.28425 0.37677 0.79549 0.0
H991 H 0.27951 0.39258 0.76506 0.0
C992 C 0.2024 0.80658 0.81751 0.0
C993 C 0.22509 0.84464 0.82475 0.0
C994 C 0.19826 0.79672 0.79227 0.0
C995 C 0.2174 0.82565 0.77414 0.0
C996 C 0.24278 0.86349 0.7817 0.0
C997 C 0.24617 0.87245 0.80683 0.0
C998 C 0.1715 0.75595 0.78503 0.0
C999 C 0.26427 0.89531 0.76317 0.0
C1000 C 0.22782 0.81886 0.70505 0.0
C1001 C 0.20284 0.83078 0.69647 0.0
C1002 C 0.2302 0.81274 0.7305 0.0
C1003 C 0.20705 0.81871 0.74747 0.0
C1004 C 0.17881 0.8264 0.73841 0.0
C1005 C 0.17718 0.83247 0.71305 0.0
C1006 C 0.25998 0.80357 0.73933 0.0
C1007 C 0.15307 0.83249 0.75568 0.0
H1008 H 0.18624 0.78494 0.83135 0.0
H1009 H 0.26444 0.9018 0.81242 0.0
H1010 H 0.14358 0.75269 0.77977 0.0
H1011 H 0.18263 0.74781 0.76885 0.0
H1012 H 0.16668 0.73595 0.80055 0.0
H1013 H 0.28544 0.92229 0.77214 0.0
H1014 H 0.27942 0.88715 0.74962 0.0
H1015 H 0.24386 0.90072 0.75275 0.0
H1016 H 0.24759 0.81733 0.69225 0.0
H1017 H 0.15734 0.84101 0.70637 0.0
H1018 H 0.24948 0.78386 0.75545 0.0
H1019 H 0.28567 0.83022 0.74525 0.0
H1020 H 0.26856 0.79062 0.72443 0.0
H1021 H 0.14091 0.80986 0.77007 0.0
H1022 H 0.12928 0.83279 0.74569 0.0
H1023 H 0.16992 0.86022 0.76519 0.0
C1024 C 0.63023 0.78905 0.71108 0.0
C1025 C 0.64938 0.82134 0.6959 0.0
C1026 C 0.62759 0.79257 0.73663 0.0
C1027 C 0.64537 0.82933 0.74728 0.0
C1028 C 0.66143 0.86199 0.73172 0.0
C1029 C 0.66303 0.85759 0.70606 0.0
C1030 C 0.60935 0.75692 0.75242 0.0
C1031 C 0.6805 0.90165 0.74229 0.0
C1032 C 0.63629 0.83033 0.81738 0.0
C1033 C 0.66744 0.82662 0.82459 0.0
C1034 C 0.62938 0.83323 0.79214 0.0
C1035 C 0.65465 0.83301 0.77408 0.0
C1036 C 0.68755 0.83197 0.78163 0.0
C1037 C 0.69327 0.82841 0.80673 0.0
C1038 C 0.594 0.8342 0.78483 0.0
C1039 C 0.71578 0.83245 0.76313 0.0
H1040 H 0.61911 0.76096 0.70312 0.0
H1041 H 0.67779 0.8826 0.69429 0.0
H1042 H 0.63196 0.75329 0.76138 0.0
H1043 H 0.59171 0.75915 0.76727 0.0
H1044 H 0.59118 0.73107 0.74134 0.0
H1045 H 0.68376 0.92312 0.72819 0.0
H1046 H 0.66415 0.90321 0.75825 0.0
H1047 H 0.70929 0.90923 0.74902 0.0
H1048 H 0.61637 0.829 0.83128 0.0
H1049 H 0.71776 0.82621 0.81242 0.0
H1050 H 0.57217 0.80559 0.77826 0.0
H1051 H 0.60009 0.85469 0.76944 0.0
H1052 H 0.58179 0.84201 0.80062 0.0
H1053 H 0.70211 0.80568 0.75233 0.0
H1054 H 0.74159 0.83511 0.77217 0.0
H1055 H 0.72482 0.8565 0.74991 0.0
C1056 C 0.22473 0.94978 0.97268 0.0
C1057 C 0.24938 0.93698 0.96506 0.0
C1058 C 0.23549 0.97716 0.99147 0.0
C1059 C 0.2713 0.99123 1.00326 0.0
C1060 C 0.2955 0.97705 0.9962 0.0
C1061 C 0.28454 0.95067 0.97687 0.0
C1062 C 0.20921 0.99209 0.99807 0.0
C1063 C 0.33328 0.9902 1.00878 0.0
C1064 C 0.31887 0.08598 0.03788 0.0
C1065 C 0.30774 0.07367 0.06228 0.0
C1066 C 0.30633 0.05958 0.01831 0.0
C1067 C 0.28315 0.01998 0.02342 0.0
C1068 C 0.2723 1.00756 0.04809 0.0
C1069 C 0.28428 0.03447 0.06706 0.0
C1070 C 0.3178 0.07399 0.99216 0.0
C1071 C 0.24867 0.9657 0.05457 0.0
H1072 H 0.19804 0.94 0.96299 0.0
H1073 H 0.30382 0.94118 0.97062 0.0
H1074 H 0.20174 0.98722 0.018 0.0
H1075 H 0.22396 0.02333 0.99476 0.0
H1076 H 0.18247 0.97837 0.98714 0.0
H1077 H 0.3478 0.9749 1.00199 0.0
H1078 H 0.35237 0.02118 1.00555 0.0
H1079 H 0.32903 0.98571 0.02905 0.0
H1080 H 0.33686 0.11617 0.03407 0.0
H1081 H 0.27588 0.02452 0.08591 0.0
H1082 H 0.29208 0.06318 0.98037 0.0
H1083 H 0.33577 0.06308 0.98436 0.0
H1084 H 0.33392 0.10562 0.99108 0.0
H1085 H 0.22112 0.95266 0.0446 0.0
H1086 H 0.24271 0.96075 0.07471 0.0
H1087 H 0.2638 0.95063 0.04861 0.0
C1088 C 0.77535 0.69973 0.48194 0.0
C1089 C 0.79793 0.72539 0.46332 0.0
C1090 C 0.75937 0.71114 0.50091 0.0
C1091 C 0.7662 0.74907 0.50125 0.0
C1092 C 0.78931 0.77508 0.48264 0.0
C1093 C 0.80487 0.763 0.46404 0.0
C1094 C 0.73507 0.68263 0.52053 0.0
C1095 C 0.79772 0.81585 0.48237 0.0
C1096 C 0.70357 0.77629 0.53893 0.0
C1097 C 0.72615 0.7926 0.55991 0.0
C1098 C 0.71584 0.76135 0.51981 0.0
C1099 C 0.75137 0.76257 0.52181 0.0
C1100 C 0.7741 0.77889 0.54297 0.0
C1101 C 0.76138 0.79378 0.56158 0.0
C1102 C 0.69089 0.74432 0.49743 0.0
C1103 C 0.81214 0.7809 0.54598 0.0
H1104 H 0.76951 0.67057 0.48143 0.0
H1105 H 0.82229 0.78318 0.4498 0.0
H1106 H 0.74796 0.69287 0.53899 0.0
H1107 H 0.70637 0.67975 0.52092 0.0
H1108 H 0.73178 0.65408 0.51741 0.0
H1109 H 0.81512 0.83215 0.4661 0.0
H1110 H 0.77071 0.81653 0.4822 0.0
H1111 H 0.8133 0.83052 0.49939 0.0
H1112 H 0.67623 0.7749 0.53755 0.0
H1113 H 0.77919 0.80607 0.57769 0.0
H1114 H 0.6844 0.71452 0.4949 0.0
H1115 H 0.70624 0.76053 0.4806 0.0
H1116 H 0.66364 0.74447 0.49894 0.0
H1117 H 0.80866 0.7521 0.54412 0.0
H1118 H 0.82545 0.7927 0.56417 0.0
H1119 H 0.83199 0.79909 0.53118 0.0
C1120 C 0.04773 0.28668 0.95479 0.0
C1121 C 0.08677 0.30508 0.96043 0.0
C1122 C 1.01984 0.27413 0.97336 0.0
C1123 C 0.03098 0.27927 0.99844 0.0
C1124 C 0.07041 0.29779 1.00438 0.0
C1125 C 0.09795 0.31104 0.98525 0.0
C1126 C 0.97839 0.2557 0.96605 0.0
C1127 C 0.0834 0.30311 0.03091 0.0
C1128 C 0.96212 0.27856 0.04668 0.0
C1129 C 0.94424 0.24088 0.0554 0.0
C1130 C 0.98989 0.29122 0.02792 0.0
C1131 C 1.00118 0.26596 0.01827 0.0
C1132 C 0.98301 0.22772 0.02698 0.0
C1133 C 0.95433 0.21547 0.04523 0.0
C1134 C 1.0074 0.33176 0.01861 0.0
C1135 C 0.99472 0.20009 0.01759 0.0
H1136 H 0.03886 0.28255 0.93563 0.0
H1137 H 0.12803 0.3251 0.98968 0.0
H1138 H 0.96229 0.22634 0.97371 0.0
H1139 H 0.96559 0.27196 0.97392 0.0
H1140 H 0.97454 0.25428 0.94568 0.0
H1141 H 0.11487 0.31669 0.03248 0.0
H1142 H 0.07412 0.32107 0.04067 0.0
H1143 H 0.06999 0.2751 0.04057 0.0
H1144 H 0.95463 0.29833 0.05481 0.0
H1145 H 0.94126 0.18663 0.05248 0.0
H1146 H 1.00403 0.33202 0.99826 0.0
H1147 H 0.03841 0.34748 0.02252 0.0
H1148 H 0.99429 0.34725 0.02727 0.0
H1149 H 0.9904 0.19658 0.99733 0.0
H1150 H 0.9784 0.17162 0.02657 0.0
H1151 H 0.02555 0.21158 0.02105 0.0
C1152 C 0.27082 0.05634 0.46268 0.0
C1153 C 0.30913 0.08571 0.46208 0.0
C1154 C 0.25678 0.0288 0.48161 0.0
C1155 C 0.28162 0.03036 0.5005 0.0
C1156 C 0.3202 0.06025 0.50028 0.0
C1157 C 0.33348 0.0877 0.48112 0.0
C1158 C 0.21535 0.99789 0.4813 0.0
C1159 C 0.3476 0.06288 0.52009 0.0
C1160 C 0.23971 0.98252 0.56226 0.0
C1161 C 0.24094 0.94859 0.56069 0.0
C1162 C 0.25218 1.00889 0.54269 0.0
C1163 C 0.26676 1.00152 0.52097 0.0
C1164 C 0.26703 0.96674 0.51891 0.0
C1165 C 0.25382 0.94048 0.53879 0.0
C1166 C 0.25055 0.04509 0.54555 0.0
C1167 C 0.28244 0.9579 0.49606 0.0
H1168 H 0.25168 0.05453 0.44808 0.0
H1169 H 0.36315 0.11 0.48067 0.0
H1170 H 0.20103 0.99886 0.49854 0.0
H1171 H 0.19978 1.00065 0.46527 0.0
H1172 H 0.21306 0.96948 0.48063 0.0
H1173 H 0.37678 0.08743 0.51711 0.0
H1174 H 0.33723 0.06579 0.53848 0.0
H1175 H 0.34907 0.03629 0.52053 0.0
H1176 H 0.22956 0.98883 0.57914 0.0
H1177 H 0.25524 0.91454 0.53763 0.0
H1178 H 0.23431 0.04812 0.53007 0.0
H1179 H 0.27979 0.07013 0.54482 0.0
H1180 H 0.237 0.04578 0.56325 0.0
H1181 H 0.26713 0.95926 0.47945 0.0
H1182 H 0.27976 0.92928 0.49703 0.0
H1183 H 0.31297 0.97963 0.49359 0.0
C1184 C 0.79775 0.7521 0.06264 0.0
C1185 C 0.79561 0.71641 0.06157 0.0
C1186 C 0.78329 0.76482 0.04367 0.0
C1187 C 0.76642 0.74155 0.02281 0.0
C1188 C 0.76423 0.70556 0.02144 0.0
C1189 C 0.77879 0.69334 0.04089 0.0
C1190 C 0.78631 0.80338 0.04595 0.0
C1191 C 0.74663 0.68007 0.99938 0.0
C1192 C 0.70435 0.76527 0.98177 0.0
C1193 C 0.73005 0.78678 0.9629 0.0
C1194 C 0.71555 0.74988 1.00129 0.0
C1195 C 0.75327 0.75617 1.00189 0.0
C1196 C 0.77933 0.77818 0.98301 0.0
C1197 C 0.76748 0.79324 0.96389 0.0
C1198 C 0.68704 0.72675 0.02121 0.0
C1199 C 0.81987 0.78587 0.98296 0.0
H1200 H 0.81049 0.77025 0.07854 0.0
H1201 H 0.7767 0.66566 0.03998 0.0
H1202 H 0.8044 0.82244 0.0308 0.0
H1203 H 0.75773 0.80048 0.04411 0.0
H1204 H 0.79874 0.81726 0.06389 0.0
H1205 H 0.7461 0.65252 1.0014 0.0
H1206 H 0.71703 0.67416 0.99671 0.0
H1207 H 0.76292 0.69469 0.98241 0.0
H1208 H 0.67534 0.75986 0.98106 0.0
H1209 H 0.7877 0.80985 0.94945 0.0
H1210 H 0.69771 0.74022 0.03946 0.0
H1211 H 0.68347 0.69779 0.02218 0.0
H1212 H 0.65873 0.72402 0.01794 0.0
H1213 H 0.83486 0.80197 0.99976 0.0
H1214 H 0.83621 0.80246 0.96645 0.0
H1215 H 0.82001 0.75859 0.98343 0.0
C1216 C 0.07994 0.33923 0.54596 0.0
C1217 C 0.0939 0.31737 0.55699 0.0
C1218 C 0.05361 0.32471 0.5265 0.0
C1219 C 0.03973 0.28678 0.51853 0.0
C1220 C 0.05393 0.2646 0.52962 0.0
C1221 C 0.08127 0.28037 0.54855 0.0
C1222 C 0.04031 0.34982 0.51468 0.0
C1223 C 0.03929 0.22382 0.52207 0.0
C1224 C 0.9455 0.24059 0.48312 0.0
C1225 C 0.95825 0.24341 0.45872 0.0
C1226 C 0.9716 0.25368 0.50293 0.0
C1227 C 1.01131 0.27091 0.49806 0.0
C1228 C 0.02417 0.27415 0.4734 0.0
C1229 C 0.99757 0.26009 0.45417 0.0
C1230 C 0.95675 0.24899 0.52904 0.0
C1231 C 0.06615 0.29322 0.46721 0.0
H1232 H 0.08931 0.36765 0.55284 0.0
H1233 H 0.09127 0.26312 0.55763 0.0
H1234 H 0.04526 0.35154 0.49442 0.0
H1235 H 1.00922 0.33732 0.51766 0.0
H1236 H 0.05517 0.37917 0.52226 0.0
H1237 H 0.05282 0.21024 0.5327 0.0
H1238 H 1.00798 0.20695 0.52497 0.0
H1239 H 0.04468 0.22249 0.5021 0.0
H1240 H 0.91521 0.22768 0.48675 0.0
H1241 H 1.00784 0.26301 0.43533 0.0
H1242 H 0.96739 0.27736 0.53755 0.0
H1243 H 0.96749 0.2335 0.54039 0.0
H1244 H 0.9251 0.2332 0.52985 0.0
H1245 H 0.08086 0.32312 0.47377 0.0
H1246 H 0.07143 0.29334 0.44704 0.0
H1247 H 0.07929 0.27846 0.47683 0.0
C1248 C 0.61461 0.13932 0.13281 0.0
C1249 C 0.62962 0.14305 0.10889 0.0
C1250 C 0.57852 0.1354 0.13665 0.0
C1251 C 0.55687 0.13532 0.11609 0.0
C1252 C 0.57159 0.13851 0.0919 0.0
C1253 C 0.60771 0.14229 0.08859 0.0
C1254 C 0.56392 0.13219 0.16274 0.0
C1255 C 0.54944 0.13859 0.06949 0.0
C1256 C 0.45042 0.09899 0.12316 0.0
C1257 C 0.4499 0.1332 0.12531 0.0
C1258 C 0.48504 0.09912 0.12049 0.0
C1259 C 0.51991 0.13426 0.11991 0.0
C1260 C 0.51954 0.16878 0.12243 0.0
C1261 C 0.48467 0.16783 0.12512 0.0
C1262 C 0.48431 0.06171 0.11795 0.0
C1263 C 0.55602 0.20689 0.1219 0.0
H1264 H 0.63145 0.14027 0.14862 0.0
H1265 H 0.61872 0.14446 0.07003 0.0
H1266 H 0.56102 0.15735 0.167 0.0
H1267 H 0.5352 0.10658 0.16466 0.0
H1268 H 0.58315 0.13038 0.17662 0.0
H1269 H 0.56417 0.13976 0.0519 0.0
H1270 H 0.52079 0.11264 0.06949 0.0
H1271 H 0.54516 0.16354 0.07012 0.0
H1272 H 0.42378 0.0721 0.12328 0.0
H1273 H 0.48477 0.1945 0.12679 0.0
H1274 H 0.50244 0.05925 0.13235 0.0
H1275 H 0.4963 0.0606 0.09974 0.0
H1276 H 0.45502 0.03682 0.11959 0.0
H1277 H 0.57561 0.20785 0.13655 0.0
H1278 H 0.5509 0.2311 0.12462 0.0
H1279 H 0.57075 0.21085 0.10391 0.0
C1280 C 0.7136 0.55106 0.39243 0.0
C1281 C 0.71464 0.5858 0.3964 0.0
C1282 C 0.6796 0.516 0.39488 0.0
C1283 C 0.6455 0.51534 0.40152 0.0
C1284 C 0.64603 0.55027 0.40491 0.0
C1285 C 0.68056 0.58508 0.40227 0.0
C1286 C 0.68042 0.47956 0.39096 0.0
C1287 C 0.6103 0.55082 0.41199 0.0
C1288 C 0.55246 0.42228 0.39051 0.0
C1289 C 0.54489 0.40495 0.41398 0.0
C1290 C 0.58456 0.45852 0.38628 0.0
C1291 C 0.60988 0.47799 0.40596 0.0
C1292 C 0.6022 0.46082 0.42973 0.0
C1293 C 0.56992 0.42462 0.43343 0.0
C1294 C 0.59164 0.47578 0.36068 0.0
C1295 C 0.62852 0.48038 0.4512 0.0
H1296 H 0.73962 0.55112 0.38773 0.0
H1297 H 0.681 0.61167 0.40542 0.0
H1298 H 0.67281 0.46286 0.40843 0.0
H1299 H 0.65898 0.46169 0.37695 0.0
H1300 H 0.70885 0.48496 0.38478 0.0
H1301 H 0.61489 0.58021 0.41257 0.0
H1302 H 0.58717 0.53387 0.39868 0.0
H1303 H 0.60035 0.53741 0.43047 0.0
H1304 H 0.53307 0.40762 0.37543 0.0
H1305 H 0.5647 0.41136 0.45155 0.0
H1306 H 0.61899 0.47982 0.35333 0.0
H1307 H 0.59422 0.50432 0.36139 0.0
H1308 H 0.56853 0.45772 0.34759 0.0
H1309 H 0.65707 0.48415 0.44723 0.0
H1310 H 0.61771 0.46402 0.46874 0.0
H1311 H 0.63229 0.50918 0.45381 0.0
C1312 C 0.9201 0.34662 0.13891 0.0
C1313 C 0.88773 0.31231 0.13215 0.0
C1314 C 0.91996 0.3813 0.13803 0.0
C1315 C 0.88655 0.3815 0.1305 0.0
C1316 C 0.8533 0.34664 0.1249 0.0
C1317 C 0.85436 0.31262 0.12569 0.0
C1318 C 0.95603 0.41788 0.14407 0.0
C1319 C 0.81691 0.34537 0.1171 0.0
C1320 C 0.87244 0.46654 0.14093 0.0
C1321 C 0.8803 0.48351 0.11734 0.0
C1322 C 0.87554 0.43405 0.14577 0.0
C1323 C 0.8868 0.41811 0.12659 0.0
C1324 C 0.8956 0.43561 0.10292 0.0
C1325 C 0.89212 0.4679 0.09857 0.0
C1326 C 0.86586 0.41625 0.17124 0.0
C1327 C 0.90761 0.41951 0.0819 0.0
H1328 H 0.94601 0.34662 0.14386 0.0
H1329 H 0.82902 0.28616 0.12076 0.0
H1330 H 0.96739 0.43547 0.12705 0.0
H1331 H 0.95 0.43475 0.15752 0.0
H1332 H 0.97838 0.41265 0.15181 0.0
H1333 H 0.79278 0.31573 0.11519 0.0
H1334 H 0.80883 0.36044 0.13074 0.0
H1335 H 0.82138 0.36026 0.09908 0.0
H1336 H 0.86385 0.47867 0.15566 0.0
H1337 H 0.89773 0.48034 0.08019 0.0
H1338 H 0.8896 0.41284 0.17845 0.0
H1339 H 0.84033 0.38737 0.17025 0.0
H1340 H 0.85999 0.43345 0.18456 0.0
H1341 H 0.93197 0.41602 0.0876 0.0
H1342 H 0.91599 0.43793 0.06512 0.0
H1343 H 0.88377 0.39087 0.07701 0.0
C1344 C 0.48961 0.17686 0.40305 0.0
C1345 C 0.45487 0.14273 0.3999 0.0
C1346 C 0.52423 0.17712 0.40519 0.0
C1347 C 0.5245 0.14241 0.40405 0.0
C1348 C 0.48969 0.10781 0.40064 0.0
C1349 C 0.45526 0.10835 0.39867 0.0
C1350 C 0.56055 0.21467 0.40893 0.0
C1351 C 0.48882 0.07024 0.39917 0.0
C1352 C 0.62129 0.15288 0.38928 0.0
C1353 C 0.63487 0.1514 0.41291 0.0
C1354 C 0.58486 0.14849 0.38601 0.0
C1355 C 0.56136 0.14271 0.40687 0.0
C1356 C 0.57447 0.14024 0.43069 0.0
C1357 C 0.61089 0.14447 0.4334 0.0
C1358 C 0.57201 0.15126 0.36028 0.0
C1359 C 0.55044 0.1342 0.45344 0.0
H1360 H 0.48988 0.20368 0.40409 0.0
H1361 H 0.42869 0.08184 0.39621 0.0
H1362 H 0.57401 0.21403 0.42664 0.0
H1363 H 0.58119 0.21945 0.39394 0.0
H1364 H 0.55554 0.23921 0.40921 0.0
H1365 H 0.45964 0.04597 0.39591 0.0
H1366 H 0.50777 0.07123 0.38402 0.0
H1367 H 0.49981 0.06489 0.41661 0.0
H1368 H 0.63957 0.15856 0.37331 0.0
H1369 H 0.62064 0.14244 0.45169 0.0
H1370 H 0.56959 0.17725 0.35868 0.0
H1371 H 0.54338 0.12645 0.3566 0.0
H1372 H 0.59211 0.15252 0.34584 0.0
H1373 H 0.54611 0.15892 0.45589 0.0
H1374 H 0.56376 0.13075 0.47046 0.0
H1375 H 0.52188 0.10856 0.45125 0.0
C1376 C 0.56593 0.415 0.0908 0.0
C1377 C 0.53908 0.39659 0.10978 0.0
C1378 C 0.59789 0.45141 0.0942 0.0
C1379 C 0.60337 0.47005 0.11717 0.0
C1380 C 0.57601 0.45199 0.13625 0.0
C1381 C 0.54424 0.41557 0.13233 0.0
C1382 C 0.62624 0.46962 0.07332 0.0
C1383 C 0.58085 0.4707 0.16107 0.0
C1384 C 0.70621 0.5418 0.13308 0.0
C1385 C 0.7087 0.57676 0.12716 0.0
C1386 C 0.67192 0.50715 0.13056 0.0
C1387 C 0.63907 0.50714 0.12171 0.0
C1388 C 0.64102 0.54236 0.1163 0.0
C1389 C 0.67579 0.57679 0.1192 0.0
C1390 C 0.67116 0.47041 0.13679 0.0
C1391 C 0.60669 0.54357 0.10675 0.0
H1392 H 0.56191 0.40093 0.07317 0.0
H1393 H 0.52389 0.40152 0.14719 0.0
H1394 H 0.63073 0.49841 0.06917 0.0
H1395 H 0.65419 0.47322 0.0789 0.0
H1396 H 0.61684 0.45239 0.05618 0.0
H1397 H 0.55588 0.45412 0.1734 0.0
H1398 H 0.60661 0.47367 0.17032 0.0
H1399 H 0.58519 0.4998 0.15864 0.0
H1400 H 0.73133 0.54138 0.13947 0.0
H1401 H 0.67744 0.6036 0.1145 0.0
H1402 H 0.66501 0.4529 0.11989 0.0
H1403 H 0.64808 0.45352 0.1503 0.0
H1404 H 0.6986 0.47539 0.14463 0.0
H1405 H 0.5984 0.52947 0.08848 0.0
H1406 H 0.61219 0.57319 0.10473 0.0
H1407 H 0.58207 0.5276 0.11941 0.0
C1408 C 0.88569 0.48095 0.38945 0.0
C1409 C 0.89116 0.49748 0.41293 0.0
C1410 C 0.89077 0.44953 0.3854 0.0
C1411 C 0.90123 0.43391 0.40534 0.0
C1412 C 0.9079 0.45113 0.42889 0.0
C1413 C 0.90298 0.48273 0.43236 0.0
C1414 C 0.88353 0.43217 0.35997 0.0
C1415 C 0.9189 0.43531 0.4507 0.0
C1416 C 0.86766 0.32809 0.40348 0.0
C1417 C 0.9011 0.32769 0.39721 0.0
C1418 C 0.86748 0.36237 0.40612 0.0
C1419 C 0.90151 0.39746 0.4022 0.0
C1420 C 0.9354 0.39744 0.39568 0.0
C1421 C 0.93486 0.36254 0.3934 0.0
C1422 C 0.83078 0.36095 0.41336 0.0
C1423 C 0.97215 0.43428 0.39112 0.0
H1424 H 0.87625 0.49178 0.37432 0.0
H1425 H 0.90815 0.49572 0.45045 0.0
H1426 H 0.90762 0.42834 0.35411 0.0
H1427 H 0.85756 0.40354 0.3604 0.0
H1428 H 0.8795 0.4499 0.34591 0.0
H1429 H 0.92561 0.45346 0.46735 0.0
H1430 H 0.89514 0.40635 0.45531 0.0
H1431 H 0.94404 0.43255 0.44602 0.0
H1432 H 0.8414 0.30144 0.40666 0.0
H1433 H 0.9608 0.36257 0.38851 0.0
H1434 H 0.82278 0.37533 0.39903 0.0
H1435 H 0.83475 0.37648 0.43093 0.0
H1436 H 0.80677 0.33131 0.41577 0.0
H1437 H 0.96809 0.45085 0.37625 0.0
H1438 H 0.99584 0.42946 0.38574 0.0
H1439 H 0.98053 0.45199 0.40802 0.0
C1440 C 0.12625 0.59618 0.60613 0.0
C1441 C 0.15319 0.62808 0.61934 0.0
C1442 C 0.12186 0.5599 0.61017 0.0
C1443 C 0.14488 0.55521 0.62793 0.0
C1444 C 0.17066 0.58685 0.64227 0.0
C1445 C 0.17455 0.62285 0.63779 0.0
C1446 C 0.09395 0.52699 0.59451 0.0
C1447 C 0.19573 0.58317 0.66141 0.0
C1448 C 0.12102 0.45407 0.64565 0.0
C1449 C 0.14578 0.44883 0.63013 0.0
C1450 C 0.12058 0.48865 0.64544 0.0
C1451 C 0.14537 0.51861 0.62929 0.0
C1452 C 0.17063 0.51356 0.61383 0.0
C1453 C 0.17057 0.47896 0.61448 0.0
C1454 C 0.0934 0.49305 0.6623 0.0
C1455 C 0.19756 0.54462 0.5963 0.0
H1456 H 0.10909 0.59972 0.59217 0.0
H1457 H 0.19567 0.64726 0.64799 0.0
H1458 H 0.1098 0.51858 0.58169 0.0
H1459 H 0.07563 0.50186 0.6063 0.0
H1460 H 0.07542 0.53428 0.5834 0.0
H1461 H 0.21062 0.60897 0.67311 0.0
H1462 H 0.17865 0.55807 0.67353 0.0
H1463 H 0.2175 0.57868 0.65204 0.0
H1464 H 0.10179 0.4311 0.65784 0.0
H1465 H 0.18997 0.47553 0.60241 0.0
H1466 H 0.07321 0.49784 0.65114 0.0
H1467 H 0.10937 0.5184 0.6742 0.0
H1468 H 0.07679 0.46762 0.6743 0.0
H1469 H 0.1811 0.55157 0.58298 0.0
H1470 H 0.21577 0.53637 0.58572 0.0
H1471 H 0.21633 0.57097 0.60672 0.0
C1472 C 0.34107 0.86857 0.91298 0.0
C1473 C 0.33461 0.88961 0.89485 0.0
C1474 C 0.37504 0.86745 0.91357 0.0
C1475 C 0.40347 0.88766 0.89547 0.0
C1476 C 0.39731 0.90901 0.87707 0.0
C1477 C 0.36298 0.90989 0.87703 0.0
C1478 C 0.38048 0.8446 0.93367 0.0
C1479 C 0.42687 0.93069 0.85737 0.0
C1480 C 0.50194 0.90795 0.91471 0.0
C1481 C 0.50353 0.87713 0.90429 0.0
C1482 C 0.47039 0.91285 0.91095 0.0
C1483 C 0.43962 0.88642 0.89629 0.0
C1484 C 0.44185 0.85634 0.8847 0.0
C1485 C 0.47372 0.85201 0.88887 0.0
C1486 C 0.46921 0.94531 0.92365 0.0
C1487 C 0.40973 0.82759 0.86887 0.0
H1488 H 0.31955 0.85296 0.92697 0.0
H1489 H 0.35821 0.92606 0.86289 0.0
H1490 H 0.38511 0.8223 0.92534 0.0
H1491 H 0.40621 0.86343 0.94466 0.0
H1492 H 0.35563 0.83058 0.94641 0.0
H1493 H 0.41774 0.9458 0.84431 0.0
H1494 H 0.45408 0.95187 0.86604 0.0
H1495 H 0.43267 0.91081 0.84673 0.0
H1496 H 0.5252 0.92801 0.92621 0.0
H1497 H 0.47451 0.828 0.88084 0.0
H1498 H 0.4467 0.93376 0.93813 0.0
H1499 H 0.46181 0.96138 0.91026 0.0
H1500 H 0.4968 0.9654 0.93247 0.0
H1501 H 0.38453 0.8096 0.88069 0.0
H1502 H 0.41766 0.8087 0.85888 0.0
H1503 H 0.40106 0.84224 0.85517 0.0
C1504 C 0.58562 0.67314 0.61771 0.0
C1505 C 0.58566 0.70651 0.62446 0.0
C1506 C 0.55115 0.63842 0.61509 0.0
C1507 C 0.51601 0.63706 0.61948 0.0
C1508 C 0.51602 0.67041 0.62703 0.0
C1509 C 0.55072 0.70462 0.62938 0.0
C1510 C 0.55228 0.60345 0.60699 0.0
C1511 C 0.47926 0.67022 0.63207 0.0
C1512 C 0.42499 0.56254 0.58841 0.0
C1513 C 0.40601 0.53676 0.60784 0.0
C1514 C 0.46121 0.59468 0.59179 0.0
C1515 C 0.47901 0.60136 0.61519 0.0
C1516 C 0.4603 0.57519 0.63479 0.0
C1517 C 0.42404 0.54325 0.6309 0.0
C1518 C 0.48004 0.62201 0.57044 0.0
C1519 C 0.47832 0.58126 0.66 0.0
H1520 H 0.61242 0.67433 0.61384 0.0
H1521 H 0.55036 0.73012 0.63483 0.0
H1522 H 0.53589 0.57957 0.62012 0.0
H1523 H 0.53859 0.59423 0.58863 0.0
H1524 H 0.58186 0.60864 0.60568 0.0
H1525 H 0.48425 0.69817 0.63883 0.0
H1526 H 0.46211 0.66307 0.61491 0.0
H1527 H 0.46202 0.64804 0.64604 0.0
H1528 H 0.41113 0.55803 0.57062 0.0
H1529 H 0.40986 0.52318 0.6459 0.0
H1530 H 0.509 0.62643 0.56714 0.0
H1531 H 0.48336 0.65016 0.57499 0.0
H1532 H 0.46339 0.61169 0.55309 0.0
H1533 H 0.5071 0.58454 0.6584 0.0
H1534 H 0.46095 0.55733 0.67294 0.0
H1535 H 0.48197 0.60797 0.66809 0.0
C1536 C 0.16112 0.60536 0.93326 0.0
C1537 C 0.15581 0.62489 0.91356 0.0
C1538 C 0.15669 0.56899 0.93005 0.0
C1539 C 0.14677 0.55158 0.90652 0.0
C1540 C 0.14075 0.57081 0.88664 0.0
C1541 C 0.14536 0.60719 0.89038 0.0
C1542 C 0.1636 0.54962 0.95171 0.0
C1543 C 0.13013 0.55325 0.86128 0.0
C1544 C 0.17864 0.47985 0.89338 0.0
C1545 C 0.14516 0.44483 0.89759 0.0
C1546 C 0.17921 0.51456 0.89564 0.0
C1547 C 0.14549 0.51455 0.9024 0.0
C1548 C 0.1113 0.47934 0.90611 0.0
C1549 C 0.11149 0.44486 0.90358 0.0
C1550 C 0.21623 0.55135 0.89133 0.0
C1551 C 0.07478 0.47816 0.91338 0.0
H1552 H 0.16963 0.61891 0.95116 0.0
H1553 H 0.1406 0.62175 0.87514 0.0
H1554 H 0.13875 0.52063 0.95452 0.0
H1555 H 0.18868 0.54634 0.94785 0.0
H1556 H 0.16885 0.56589 0.96913 0.0
H1557 H 0.12441 0.5709 0.84812 0.0
H1558 H 0.1536 0.54969 0.85372 0.0
H1559 H 0.10445 0.52447 0.86247 0.0
H1560 H 0.20479 0.48027 0.88851 0.0
H1561 H 0.08552 0.418 0.9069 0.0
H1562 H 0.22521 0.56815 0.90863 0.0
H1563 H 0.21229 0.56891 0.87714 0.0
H1564 H 0.23956 0.54642 0.88519 0.0
H1565 H 0.07824 0.49152 0.93175 0.0
H1566 H 0.0502 0.44859 0.91428 0.0
H1567 H 0.06816 0.49483 0.89998 0.0
C1568 C 0.34877 0.90451 0.60525 0.0
C1569 C 0.33325 0.90799 0.62765 0.0
C1570 C 0.38212 0.90214 0.60464 0.0
C1571 C 0.40072 0.90313 0.62699 0.0
C1572 C 0.38614 0.90819 0.64964 0.0
C1573 C 0.3526 0.91065 0.64971 0.0
C1574 C 0.39664 0.89711 0.58002 0.0
C1575 C 0.40514 0.9095 0.67387 0.0
C1576 C 0.45915 0.85333 0.6233 0.0
C1577 C 0.49611 0.88392 0.61894 0.0
C1578 C 0.42822 0.85935 0.62705 0.0
C1579 C 0.43415 0.8969 0.62641 0.0
C1580 C 0.47157 0.928 0.62285 0.0
C1581 C 0.50202 0.92116 0.61917 0.0
C1582 C 0.38888 0.82533 0.63088 0.0
C1583 C 0.47924 0.96846 0.62194 0.0
H1584 H 0.33426 0.90271 0.58806 0.0
H1585 H 0.34073 0.91309 0.6671 0.0
H1586 H 0.42705 0.91911 0.57751 0.0
H1587 H 0.39482 0.86889 0.57953 0.0
H1588 H 0.38016 0.899 0.56423 0.0
H1589 H 0.39233 0.91677 0.68958 0.0
H1590 H 0.40247 0.88134 0.67766 0.0
H1591 H 0.43602 0.93075 0.67288 0.0
H1592 H 0.45432 0.82451 0.62361 0.0
H1593 H 0.53031 0.94503 0.6156 0.0
H1594 H 0.37053 0.8227 0.61494 0.0
H1595 H 0.37548 0.82921 0.64766 0.0
H1596 H 0.3894 0.7983 0.6328 0.0
H1597 H 0.46593 0.97258 0.60517 0.0
H1598 H 0.51023 0.98965 0.6215 0.0
H1599 H 0.46625 0.97426 0.63818 0.0
C1600 C 0.59146 0.66861 0.90139 0.0
C1601 C 0.59249 0.70236 0.89403 0.0
C1602 C 0.55649 0.63421 0.90408 0.0
C1603 C 0.52175 0.63349 0.89918 0.0
C1604 C 0.5228 0.66717 0.89089 0.0
C1605 C 0.55799 0.70104 0.88847 0.0
C1606 C 0.55663 0.59894 0.91295 0.0
C1607 C 0.48662 0.66779 0.88528 0.0
C1608 C 0.4285 0.54013 0.88913 0.0
C1609 C 0.41034 0.53441 0.91218 0.0
C1610 C 0.4651 0.57165 0.88479 0.0
C1611 C 0.48412 0.59827 0.90391 0.0
C1612 C 0.46613 0.59244 0.92727 0.0
C1613 C 0.42959 0.56072 0.9311 0.0
C1614 C 0.48322 0.57674 0.85963 0.0
C1615 C 0.48516 0.62019 0.94813 0.0
H1616 H 0.61787 0.66929 0.90579 0.0
H1617 H 0.55832 0.72679 0.88256 0.0
H1618 H 0.54286 0.59043 0.93142 0.0
H1619 H 0.53981 0.57487 0.90024 0.0
H1620 H 0.58593 0.60343 0.91433 0.0
H1621 H 0.49238 0.69574 0.87776 0.0
H1622 H 0.46915 0.64532 0.87173 0.0
H1623 H 0.46933 0.66159 0.90239 0.0
H1624 H 0.4142 0.51975 0.87449 0.0
H1625 H 0.41572 0.55696 0.94886 0.0
H1626 H 0.51166 0.57929 0.86146 0.0
H1627 H 0.48764 0.60353 0.85097 0.0
H1628 H 0.46551 0.55268 0.84708 0.0
H1629 H 0.5138 0.62399 0.95172 0.0
H1630 H 0.46825 0.61066 0.96553 0.0
H1631 H 0.48924 0.64849 0.94286 0.0
loop_
_geom_bond_atom_site_label_1
_geom_bond_atom_site_label_2
_geom_bond_distance
_geom_bond_site_symmetry_2
_ccdc_geom_bond_type
Dy0 O3 2.307 . S
Dy0 O5 2.395 . S
Dy0 O6 2.379 . S
Dy0 O8 2.339 . S
Dy0 O10 2.298 . S
Dy0 O14 2.275 . S
Dy0 C22 2.738 . S
Dy1 O4 2.298 . S
Dy1 O7 2.275 . S
Dy1 O9 2.307 . S
Dy1 O11 2.395 . S
Dy1 O12 2.379 . S
Dy1 O15 2.339 . S
Dy1 C31 2.738 . S
C2 O14 1.254 . S
C2 O15 1.257 . S
O3 Dy0 2.307 . S
O3 C13 1.266 . S
O4 Dy1 2.298 . S
O4 C13 1.236 . S
O5 Dy0 2.395 . S
O5 C22 1.255 . S
O6 Dy0 2.379 . S
O6 C22 1.249 . S
O7 Dy1 2.275 . S
O7 C23 1.254 . S
O8 Dy0 2.339 . S
O8 C23 1.257 . S
O9 Dy1 2.307 . S
O9 C24 1.266 . S
O10 Dy0 2.298 . S
O10 C24 1.236 . S
O11 Dy1 2.395 . S
O11 C31 1.255 . S
O12 Dy1 2.379 . S
O12 C31 1.249 . S
C13 O3 1.266 . S
C13 O4 1.236 . S
O14 Dy0 2.275 . S
O14 C2 1.254 . S
O15 Dy1 2.339 . S
O15 C2 1.257 . S
C16 C19 1.344 . S
C16 C20 1.328 . S
C16 C22 1.516 1_565 S
C17 C18 1.304 . S
C17 C21 1.323 . S
C18 C17 1.304 . S
C18 C19 1.371 . S
C18 H32 0.930 . S
C19 C16 1.344 . S
C19 C18 1.371 . S
C19 H33 0.931 . S
C20 C16 1.328 . S
C20 C21 1.433 . S
C20 H34 0.931 . S
C21 C17 1.323 . S
C21 C20 1.433 . S
C21 H35 0.933 . S
C22 Dy0 2.738 . S
C22 O5 1.255 . S
C22 O6 1.249 . S
C22 C16 1.516 1_545 S
C23 O7 1.254 . S
C23 O8 1.257 . S
C24 O9 1.266 . S
C24 O10 1.236 . S
C25 C28 1.344 . S
C25 C29 1.328 . S
C25 C31 1.516 . S
C26 C27 1.304 . S
C26 C30 1.323 . S
C27 C26 1.304 . S
C27 C28 1.371 . S
C27 H36 0.930 . S
C28 C25 1.344 . S
C28 C27 1.371 . S
C28 H37 0.931 . S
C29 C25 1.328 . S
C29 C30 1.433 . S
C29 H38 0.931 . S
C30 C26 1.323 . S
C30 C29 1.433 . S
C30 H39 0.933 . S
C31 Dy1 2.738 . S
C31 O11 1.255 . S
C31 O12 1.249 . S
C31 C25 1.516 . S
H32 C18 0.930 . S
H33 C19 0.931 . S
H34 C20 0.931 . S
H35 C21 0.933 . S
H36 C27 0.930 . S
H37 C28 0.931 . S
H38 C29 0.931 . S
H39 C30 0.933 . S
Dy40 O43 2.307 . S
Dy40 O45 2.395 . S
Dy40 O46 2.379 . S
Dy40 O48 2.339 . S
Dy40 O50 2.298 . S
Dy40 O54 2.275 . S
Dy40 C62 2.738 . S
Dy41 O44 2.298 . S
Dy41 O47 2.275 . S
Dy41 O49 2.307 . S
Dy41 O51 2.395 . S
Dy41 O52 2.379 . S
Dy41 O55 2.339 . S
Dy41 C71 2.738 . S
C42 O54 1.254 . S
C42 O55 1.257 . S
O43 Dy40 2.307 . S
O43 C53 1.266 . S
O44 Dy41 2.298 . S
O44 C53 1.236 . S
O45 Dy40 2.395 . S
O45 C62 1.255 . S
O46 Dy40 2.379 . S
O46 C62 1.249 . S
O47 Dy41 2.275 . S
O47 C63 1.254 . S
O48 Dy40 2.339 . S
O48 C63 1.257 . S
O49 Dy41 2.307 . S
O49 C64 1.266 . S
O50 Dy40 2.298 . S
O50 C64 1.236 . S
O51 Dy41 2.395 . S
O51 C71 1.255 . S
O52 Dy41 2.379 . S
O52 C71 1.249 . S
C53 O43 1.266 . S
C53 O44 1.236 . S
O54 Dy40 2.275 . S
O54 C42 1.254 . S
O55 Dy41 2.339 . S
O55 C42 1.257 . S
C56 C59 1.344 . S
C56 C60 1.328 . S
C56 C62 1.516 . S
C57 C58 1.304 . S
C57 C61 1.323 . S
C58 C57 1.304 . S
C58 C59 1.371 . S
C58 H72 0.930 . S
C59 C56 1.344 . S
C59 C58 1.371 . S
C59 H73 0.931 . S
C60 C56 1.328 . S
C60 C61 1.433 . S
C60 H74 0.931 . S
C61 C57 1.323 . S
C61 C60 1.433 . S
C61 H75 0.933 . S
C62 Dy40 2.738 . S
C62 O45 1.255 . S
C62 O46 1.249 . S
C62 C56 1.516 . S
C63 O47 1.254 . S
C63 O48 1.257 . S
C64 O49 1.266 . S
C64 O50 1.236 . S
C65 C68 1.344 . S
C65 C69 1.328 . S
C65 C71 1.516 . S
C66 C67 1.304 . S
C66 C70 1.323 . S
C67 C66 1.304 . S
C67 C68 1.371 . S
C67 H76 0.930 . S
C68 C65 1.344 . S
C68 C67 1.371 . S
C68 H77 0.931 . S
C69 C65 1.328 . S
C69 C70 1.433 . S
C69 H78 0.931 . S
C70 C66 1.323 . S
C70 C69 1.433 . S
C70 H79 0.933 . S
C71 Dy41 2.738 . S
C71 O51 1.255 . S
C71 O52 1.249 . S
C71 C65 1.516 . S
H72 C58 0.930 . S
H73 C59 0.931 . S
H74 C60 0.931 . S
H75 C61 0.933 . S
H76 C67 0.930 . S
H77 C68 0.931 . S
H78 C69 0.931 . S
H79 C70 0.933 . S
Dy80 O83 2.307 . S
Dy80 O85 2.395 . S
Dy80 O86 2.379 . S
Dy80 O88 2.339 . S
Dy80 O90 2.298 . S
Dy80 O94 2.275 . S
Dy80 C102 2.738 . S
Dy81 O84 2.298 . S
Dy81 O87 2.275 . S
Dy81 O89 2.307 . S
Dy81 O91 2.395 . S
Dy81 O92 2.379 . S
Dy81 O95 2.339 . S
Dy81 C111 2.738 . S
C82 O94 1.254 . S
C82 O95 1.257 . S
O83 Dy80 2.307 . S
O83 C93 1.266 . S
O84 Dy81 2.298 . S
O84 C93 1.236 . S
O85 Dy80 2.395 . S
O85 C102 1.255 . S
O86 Dy80 2.379 . S
O86 C102 1.249 . S
O87 Dy81 2.275 . S
O87 C103 1.254 . S
O88 Dy80 2.339 . S
O88 C103 1.257 . S
O89 Dy81 2.307 . S
O89 C104 1.266 . S
O90 Dy80 2.298 . S
O90 C104 1.236 . S
O91 Dy81 2.395 . S
O91 C111 1.255 . S
O92 Dy81 2.379 . S
O92 C111 1.249 . S
C93 O83 1.266 . S
C93 O84 1.236 . S
O94 Dy80 2.275 . S
O94 C82 1.254 . S
O95 Dy81 2.339 . S
O95 C82 1.257 . S
C96 C99 1.344 . S
C96 C100 1.328 . S
C96 C102 1.516 1_455 S
C97 C98 1.304 . S
C97 C101 1.323 . S
C98 C97 1.304 . S
C98 C99 1.371 . S
C98 H112 0.930 . S
C99 C96 1.344 . S
C99 C98 1.371 . S
C99 H113 0.931 . S
C100 C96 1.328 . S
C100 C101 1.433 . S
C100 H114 0.931 . S
C101 C97 1.323 . S
C101 C100 1.433 . S
C101 H115 0.933 . S
C102 Dy80 2.738 . S
C102 O85 1.255 . S
C102 O86 1.249 . S
C102 C96 1.516 1_655 S
C103 O87 1.254 . S
C103 O88 1.257 . S
C104 O89 1.266 . S
C104 O90 1.236 . S
C105 C108 1.344 . S
C105 C109 1.328 . S
C105 C111 1.516 . S
C106 C107 1.304 . S
C106 C110 1.323 . S
C107 C106 1.304 . S
C107 C108 1.371 . S
C107 H116 0.930 . S
C108 C105 1.344 . S
C108 C107 1.371 . S
C108 H117 0.931 . S
C109 C105 1.328 . S
C109 C110 1.433 . S
C109 H118 0.931 . S
C110 C106 1.323 . S
C110 C109 1.433 . S
C110 H119 0.933 . S
C111 Dy81 2.738 . S
C111 O91 1.255 . S
C111 O92 1.249 . S
C111 C105 1.516 . S
H112 C98 0.930 . S
H113 C99 0.931 . S
H114 C100 0.931 . S
H115 C101 0.933 . S
H116 C107 0.930 . S
H117 C108 0.931 . S
H118 C109 0.931 . S
H119 C110 0.933 . S
Dy120 O123 2.307 . S
Dy120 O125 2.395 . S
Dy120 O126 2.379 . S
Dy120 O128 2.339 . S
Dy120 O130 2.298 . S
Dy120 O134 2.275 . S
Dy120 C142 2.738 . S
Dy121 O124 2.298 . S
Dy121 O127 2.275 . S
Dy121 O129 2.307 . S
Dy121 O131 2.395 . S
Dy121 O132 2.379 . S
Dy121 O135 2.339 . S
Dy121 C151 2.738 . S
C122 O134 1.254 . S
C122 O135 1.257 . S
O123 Dy120 2.307 . S
O123 C133 1.266 . S
O124 Dy121 2.298 . S
O124 C133 1.236 . S
O125 Dy120 2.395 . S
O125 C142 1.255 . S
O126 Dy120 2.379 . S
O126 C142 1.249 . S
O127 Dy121 2.275 . S
O127 C143 1.254 . S
O128 Dy120 2.339 . S
O128 C143 1.257 . S
O129 Dy121 2.307 . S
O129 C144 1.266 . S
O130 Dy120 2.298 . S
O130 C144 1.236 . S
O131 Dy121 2.395 . S
O131 C151 1.255 . S
O132 Dy121 2.379 . S
O132 C151 1.249 . S
C133 O123 1.266 . S
C133 O124 1.236 . S
O134 Dy120 2.275 . S
O134 C122 1.254 . S
O135 Dy121 2.339 . S
O135 C122 1.257 . S
C136 C139 1.344 . S
C136 C140 1.328 . S
C136 C142 1.516 . S
C137 C138 1.304 . S
C137 C141 1.323 . S
C138 C137 1.304 . S
C138 C139 1.371 . S
C138 H152 0.930 . S
C139 C136 1.344 . S
C139 C138 1.371 . S
C139 H153 0.931 . S
C140 C136 1.328 . S
C140 C141 1.433 . S
C140 H154 0.931 . S
C141 C137 1.323 . S
C141 C140 1.433 . S
C141 H155 0.933 . S
C142 Dy120 2.738 . S
C142 O125 1.255 . S
C142 O126 1.249 . S
C142 C136 1.516 . S
C143 O127 1.254 . S
C143 O128 1.257 . S
C144 O129 1.266 . S
C144 O130 1.236 . S
C145 C148 1.344 . S
C145 C149 1.328 . S
C145 C151 1.516 1_565 S
C146 C147 1.304 . S
C146 C150 1.323 . S
C147 C146 1.304 . S
C147 C148 1.371 . S
C147 H156 0.930 . S
C148 C145 1.344 . S
C148 C147 1.371 . S
C148 H157 0.931 . S
C149 C145 1.328 . S
C149 C150 1.433 . S
C149 H158 0.931 . S
C150 C146 1.323 . S
C150 C149 1.433 . S
C150 H159 0.933 . S
C151 Dy121 2.738 . S
C151 O131 1.255 . S
C151 O132 1.249 . S
C151 C145 1.516 1_545 S
H152 C138 0.930 . S
H153 C139 0.931 . S
H154 C140 0.931 . S
H155 C141 0.933 . S
H156 C147 0.930 . S
H157 C148 0.931 . S
H158 C149 0.931 . S
H159 C150 0.933 . S
Dy160 O163 2.307 . S
Dy160 O165 2.395 . S
Dy160 O166 2.379 . S
Dy160 O168 2.339 . S
Dy160 O170 2.298 . S
Dy160 O174 2.275 . S
Dy160 C182 2.738 . S
Dy161 O164 2.298 . S
Dy161 O167 2.275 . S
Dy161 O169 2.307 . S
Dy161 O171 2.395 . S
Dy161 O172 2.379 . S
Dy161 O175 2.339 . S
Dy161 C191 2.738 . S
C162 O174 1.254 . S
C162 O175 1.257 . S
O163 Dy160 2.307 . S
O163 C173 1.266 . S
O164 Dy161 2.298 . S
O164 C173 1.236 . S
O165 Dy160 2.395 . S
O165 C182 1.255 . S
O166 Dy160 2.379 . S
O166 C182 1.249 . S
O167 Dy161 2.275 . S
O167 C183 1.254 . S
O168 Dy160 2.339 . S
O168 C183 1.257 . S
O169 Dy161 2.307 . S
O169 C184 1.266 . S
O170 Dy160 2.298 . S
O170 C184 1.236 . S
O171 Dy161 2.395 . S
O171 C191 1.255 . S
O172 Dy161 2.379 . S
O172 C191 1.249 . S
C173 O163 1.266 . S
C173 O164 1.236 . S
O174 Dy160 2.275 . S
O174 C162 1.254 . S
O175 Dy161 2.339 . S
O175 C162 1.257 . S
C176 C179 1.344 . S
C176 C180 1.328 . S
C176 C182 1.516 . S
C177 C178 1.304 . S
C177 C181 1.323 . S
C178 C177 1.304 . S
C178 C179 1.371 . S
C178 H192 0.930 . S
C179 C176 1.344 . S
C179 C178 1.371 . S
C179 H193 0.931 . S
C180 C176 1.328 . S
C180 C181 1.433 . S
C180 H194 0.931 . S
C181 C177 1.323 . S
C181 C180 1.433 . S
C181 H195 0.933 . S
C182 Dy160 2.738 . S
C182 O165 1.255 . S
C182 O166 1.249 . S
C182 C176 1.516 . S
C183 O167 1.254 . S
C183 O168 1.257 . S
C184 O169 1.266 . S
C184 O170 1.236 . S
C185 C188 1.344 . S
C185 C189 1.328 . S
C185 C191 1.516 . S
C186 C187 1.304 . S
C186 C190 1.323 . S
C187 C186 1.304 . S
C187 C188 1.371 . S
C187 H196 0.930 . S
C188 C185 1.344 . S
C188 C187 1.371 . S
C188 H197 0.931 . S
C189 C185 1.328 . S
C189 C190 1.433 . S
C189 H198 0.931 . S
C190 C186 1.323 . S
C190 C189 1.433 . S
C190 H199 0.933 . S
C191 Dy161 2.738 . S
C191 O171 1.255 . S
C191 O172 1.249 . S
C191 C185 1.516 . S
H192 C178 0.930 . S
H193 C179 0.931 . S
H194 C180 0.931 . S
H195 C181 0.933 . S
H196 C187 0.930 . S
H197 C188 0.931 . S
H198 C189 0.931 . S
H199 C190 0.933 . S
Dy200 O203 2.307 . S
Dy200 O205 2.395 . S
Dy200 O206 2.379 . S
Dy200 O208 2.339 . S
Dy200 O210 2.298 . S
Dy200 O214 2.275 . S
Dy200 C222 2.738 . S
Dy201 O204 2.298 . S
Dy201 O207 2.275 . S
Dy201 O209 2.307 . S
Dy201 O211 2.395 . S
Dy201 O212 2.379 . S
Dy201 O215 2.339 . S
Dy201 C231 2.738 . S
C202 O214 1.254 . S
C202 O215 1.257 . S
O203 Dy200 2.307 . S
O203 C213 1.266 . S
O204 Dy201 2.298 . S
O204 C213 1.236 . S
O205 Dy200 2.395 . S
O205 C222 1.255 . S
O206 Dy200 2.379 . S
O206 C222 1.249 . S
O207 Dy201 2.275 . S
O207 C223 1.254 . S
O208 Dy200 2.339 . S
O208 C223 1.257 . S
O209 Dy201 2.307 . S
O209 C224 1.266 . S
O210 Dy200 2.298 . S
O210 C224 1.236 . S
O211 Dy201 2.395 . S
O211 C231 1.255 . S
O212 Dy201 2.379 . S
O212 C231 1.249 . S
C213 O203 1.266 . S
C213 O204 1.236 . S
O214 Dy200 2.275 . S
O214 C202 1.254 . S
O215 Dy201 2.339 . S
O215 C202 1.257 . S
C216 C219 1.344 . S
C216 C220 1.328 . S
C216 C222 1.516 . S
C217 C218 1.304 . S
C217 C221 1.323 . S
C218 C217 1.304 . S
C218 C219 1.371 . S
C218 H232 0.930 . S
C219 C216 1.344 . S
C219 C218 1.371 . S
C219 H233 0.931 . S
C220 C216 1.328 . S
C220 C221 1.433 . S
C220 H234 0.931 . S
C221 C217 1.323 . S
C221 C220 1.433 . S
C221 H235 0.933 . S
C222 Dy200 2.738 . S
C222 O205 1.255 . S
C222 O206 1.249 . S
C222 C216 1.516 . S
C223 O207 1.254 . S
C223 O208 1.257 . S
C224 O209 1.266 . S
C224 O210 1.236 . S
C225 C228 1.344 . S
C225 C229 1.328 . S
C225 C231 1.516 1_455 S
C226 C227 1.304 . S
C226 C230 1.323 . S
C227 C226 1.304 . S
C227 C228 1.371 . S
C227 H236 0.930 . S
C228 C225 1.344 . S
C228 C227 1.371 . S
C228 H237 0.931 . S
C229 C225 1.328 . S
C229 C230 1.433 . S
C229 H238 0.931 . S
C230 C226 1.323 . S
C230 C229 1.433 . S
C230 H239 0.933 . S
C231 Dy201 2.738 . S
C231 O211 1.255 . S
C231 O212 1.249 . S
C231 C225 1.516 1_655 S
H232 C218 0.930 . S
H233 C219 0.931 . S
H234 C220 0.931 . S
H235 C221 0.933 . S
H236 C227 0.930 . S
H237 C228 0.931 . S
H238 C229 0.931 . S
H239 C230 0.933 . S
Dy240 O243 2.307 . S
Dy240 O245 2.395 . S
Dy240 O246 2.379 . S
Dy240 O248 2.339 . S
Dy240 O250 2.298 . S
Dy240 O254 2.275 . S
Dy240 C262 2.738 . S
Dy241 O244 2.298 . S
Dy241 O247 2.275 . S
Dy241 O249 2.307 . S
Dy241 O251 2.395 . S
Dy241 O252 2.379 . S
Dy241 O255 2.339 . S
Dy241 C271 2.738 . S
C242 O254 1.254 . S
C242 O255 1.257 . S
O243 Dy240 2.307 . S
O243 C253 1.266 . S
O244 Dy241 2.298 . S
O244 C253 1.236 . S
O245 Dy240 2.395 . S
O245 C262 1.255 . S
O246 Dy240 2.379 . S
O246 C262 1.249 . S
O247 Dy241 2.275 . S
O247 C263 1.254 . S
O248 Dy240 2.339 . S
O248 C263 1.257 . S
O249 Dy241 2.307 . S
O249 C264 1.266 . S
O250 Dy240 2.298 . S
O250 C264 1.236 . S
O251 Dy241 2.395 . S
O251 C271 1.255 . S
O252 Dy241 2.379 . S
O252 C271 1.249 . S
C253 O243 1.266 . S
C253 O244 1.236 . S
O254 Dy240 2.275 . S
O254 C242 1.254 . S
O255 Dy241 2.339 . S
O255 C242 1.257 . S
C256 C259 1.344 . S
C256 C260 1.328 . S
C256 C262 1.516 . S
C257 C258 1.304 . S
C257 C261 1.323 . S
C258 C257 1.304 . S
C258 C259 1.371 . S
C258 H272 0.930 . S
C259 C256 1.344 . S
C259 C258 1.371 . S
C259 H273 0.931 . S
C260 C256 1.328 . S
C260 C261 1.433 . S
C260 H274 0.931 . S
C261 C257 1.323 . S
C261 C260 1.433 . S
C261 H275 0.933 . S
C262 Dy240 2.738 . S
C262 O245 1.255 . S
C262 O246 1.249 . S
C262 C256 1.516 . S
C263 O247 1.254 . S
C263 O248 1.257 . S
C264 O249 1.266 . S
C264 O250 1.236 . S
C265 C268 1.344 . S
C265 C269 1.328 . S
C265 C271 1.516 1_655 S
C266 C267 1.304 . S
C266 C270 1.323 . S
C267 C266 1.304 . S
C267 C268 1.371 . S
C267 H276 0.930 . S
C268 C265 1.344 . S
C268 C267 1.371 . S
C268 H277 0.931 . S
C269 C265 1.328 . S
C269 C270 1.433 . S
C269 H278 0.931 . S
C270 C266 1.323 . S
C270 C269 1.433 . S
C270 H279 0.933 . S
C271 Dy241 2.738 . S
C271 O251 1.255 . S
C271 O252 1.249 . S
C271 C265 1.516 1_455 S
H272 C258 0.930 . S
H273 C259 0.931 . S
H274 C260 0.931 . S
H275 C261 0.933 . S
H276 C267 0.930 . S
H277 C268 0.931 . S
H278 C269 0.931 . S
H279 C270 0.933 . S
Dy280 O283 2.307 . S
Dy280 O285 2.395 . S
Dy280 O286 2.379 . S
Dy280 O288 2.339 . S
Dy280 O290 2.298 . S
Dy280 O294 2.275 . S
Dy280 C302 2.738 . S
Dy281 O284 2.298 . S
Dy281 O287 2.275 . S
Dy281 O289 2.307 . S
Dy281 O291 2.395 . S
Dy281 O292 2.379 . S
Dy281 O295 2.339 . S
Dy281 C311 2.738 . S
C282 O294 1.254 . S
C282 O295 1.257 . S
O283 Dy280 2.307 . S
O283 C293 1.266 . S
O284 Dy281 2.298 . S
O284 C293 1.236 . S
O285 Dy280 2.395 . S
O285 C302 1.255 . S
O286 Dy280 2.379 . S
O286 C302 1.249 . S
O287 Dy281 2.275 . S
O287 C303 1.254 . S
O288 Dy280 2.339 . S
O288 C303 1.257 . S
O289 Dy281 2.307 . S
O289 C304 1.266 . S
O290 Dy280 2.298 . S
O290 C304 1.236 . S
O291 Dy281 2.395 . S
O291 C311 1.255 . S
O292 Dy281 2.379 . S
O292 C311 1.249 . S
C293 O283 1.266 . S
C293 O284 1.236 . S
O294 Dy280 2.275 . S
O294 C282 1.254 . S
O295 Dy281 2.339 . S
O295 C282 1.257 . S
C296 C299 1.344 . S
C296 C300 1.328 . S
C296 C302 1.516 1_545 S
C297 C298 1.304 . S
C297 C301 1.323 . S
C298 C297 1.304 . S
C298 C299 1.371 . S
C298 H312 0.930 . S
C299 C296 1.344 . S
C299 C298 1.371 . S
C299 H313 0.931 . S
C300 C296 1.328 . S
C300 C301 1.433 . S
C300 H314 0.931 . S
C301 C297 1.323 . S
C301 C300 1.433 . S
C301 H315 0.933 . S
C302 Dy280 2.738 . S
C302 O285 1.255 . S
C302 O286 1.249 . S
C302 C296 1.516 1_565 S
C303 O287 1.254 . S
C303 O288 1.257 . S
C304 O289 1.266 . S
C304 O290 1.236 . S
C305 C308 1.344 . S
C305 C309 1.328 . S
C305 C311 1.516 . S
C306 C307 1.304 . S
C306 C310 1.323 . S
C307 C306 1.304 . S
C307 C308 1.371 . S
C307 H316 0.930 . S
C308 C305 1.344 . S
C308 C307 1.371 . S
C308 H317 0.931 . S
C309 C305 1.328 . S
C309 C310 1.433 . S
C309 H318 0.931 . S
C310 C306 1.323 . S
C310 C309 1.433 . S
C310 H319 0.933 . S
C311 Dy281 2.738 . S
C311 O291 1.255 . S
C311 O292 1.249 . S
C311 C305 1.516 . S
H312 C298 0.930 . S
H313 C299 0.931 . S
H314 C300 0.931 . S
H315 C301 0.933 . S
H316 C307 0.930 . S
H317 C308 0.931 . S
H318 C309 0.931 . S
H319 C310 0.933 . S
Dy320 O323 2.307 . S
Dy320 O325 2.395 . S
Dy320 O326 2.379 . S
Dy320 O328 2.339 . S
Dy320 O330 2.298 . S
Dy320 O334 2.275 . S
Dy320 C342 2.738 . S
Dy321 O324 2.298 . S
Dy321 O327 2.275 . S
Dy321 O329 2.307 . S
Dy321 O331 2.395 . S
Dy321 O332 2.379 . S
Dy321 O335 2.339 . S
Dy321 C351 2.738 . S
C322 O334 1.254 . S
C322 O335 1.257 . S
O323 Dy320 2.307 . S
O323 C333 1.266 . S
O324 Dy321 2.298 . S
O324 C333 1.236 . S
O325 Dy320 2.395 . S
O325 C342 1.255 . S
O326 Dy320 2.379 . S
O326 C342 1.249 . S
O327 Dy321 2.275 . S
O327 C343 1.254 . S
O328 Dy320 2.339 . S
O328 C343 1.257 . S
O329 Dy321 2.307 . S
O329 C344 1.266 . S
O330 Dy320 2.298 . S
O330 C344 1.236 . S
O331 Dy321 2.395 . S
O331 C351 1.255 . S
O332 Dy321 2.379 . S
O332 C351 1.249 . S
C333 O323 1.266 . S
C333 O324 1.236 . S
O334 Dy320 2.275 . S
O334 C322 1.254 . S
O335 Dy321 2.339 . S
O335 C322 1.257 . S
C336 C339 1.344 . S
C336 C340 1.328 . S
C336 C342 1.516 . S
C337 C338 1.304 . S
C337 C341 1.323 . S
C338 C337 1.304 . S
C338 C339 1.371 . S
C338 H352 0.930 . S
C339 C336 1.344 . S
C339 C338 1.371 . S
C339 H353 0.931 . S
C340 C336 1.328 . S
C340 C341 1.433 . S
C340 H354 0.931 . S
C341 C337 1.323 . S
C341 C340 1.433 . S
C341 H355 0.933 . S
C342 Dy320 2.738 . S
C342 O325 1.255 . S
C342 O326 1.249 . S
C342 C336 1.516 . S
C343 O327 1.254 . S
C343 O328 1.257 . S
C344 O329 1.266 . S
C344 O330 1.236 . S
C345 C348 1.344 . S
C345 C349 1.328 . S
C345 C351 1.516 . S
C346 C347 1.304 . S
C346 C350 1.323 . S
C347 C346 1.304 . S
C347 C348 1.371 . S
C347 H356 0.930 . S
C348 C345 1.344 . S
C348 C347 1.371 . S
C348 H357 0.931 . S
C349 C345 1.328 . S
C349 C350 1.433 . S
C349 H358 0.931 . S
C350 C346 1.323 . S
C350 C349 1.433 . S
C350 H359 0.933 . S
C351 Dy321 2.738 . S
C351 O331 1.255 . S
C351 O332 1.249 . S
C351 C345 1.516 . S
H352 C338 0.930 . S
H353 C339 0.931 . S
H354 C340 0.931 . S
H355 C341 0.933 . S
H356 C347 0.930 . S
H357 C348 0.931 . S
H358 C349 0.931 . S
H359 C350 0.933 . S
Dy360 O363 2.307 . S
Dy360 O365 2.395 . S
Dy360 O366 2.379 . S
Dy360 O368 2.339 . S
Dy360 O370 2.298 . S
Dy360 O374 2.275 . S
Dy360 C382 2.738 . S
Dy361 O364 2.298 . S
Dy361 O367 2.275 . S
Dy361 O369 2.307 . S
Dy361 O371 2.395 . S
Dy361 O372 2.379 . S
Dy361 O375 2.339 . S
Dy361 C391 2.738 . S
C362 O374 1.254 . S
C362 O375 1.257 . S
O363 Dy360 2.307 . S
O363 C373 1.266 . S
O364 Dy361 2.298 . S
O364 C373 1.236 . S
O365 Dy360 2.395 . S
O365 C382 1.255 . S
O366 Dy360 2.379 . S
O366 C382 1.249 . S
O367 Dy361 2.275 . S
O367 C383 1.254 . S
O368 Dy360 2.339 . S
O368 C383 1.257 . S
O369 Dy361 2.307 . S
O369 C384 1.266 . S
O370 Dy360 2.298 . S
O370 C384 1.236 . S
O371 Dy361 2.395 . S
O371 C391 1.255 . S
O372 Dy361 2.379 . S
O372 C391 1.249 . S
C373 O363 1.266 . S
C373 O364 1.236 . S
O374 Dy360 2.275 . S
O374 C362 1.254 . S
O375 Dy361 2.339 . S
O375 C362 1.257 . S
C376 C379 1.344 . S
C376 C380 1.328 . S
C376 C382 1.516 1_655 S
C377 C378 1.304 . S
C377 C381 1.323 . S
C378 C377 1.304 . S
C378 C379 1.371 . S
C378 H392 0.930 . S
C379 C376 1.344 . S
C379 C378 1.371 . S
C379 H393 0.931 . S
C380 C376 1.328 . S
C380 C381 1.433 . S
C380 H394 0.931 . S
C381 C377 1.323 . S
C381 C380 1.433 . S
C381 H395 0.933 . S
C382 Dy360 2.738 . S
C382 O365 1.255 . S
C382 O366 1.249 . S
C382 C376 1.516 1_455 S
C383 O367 1.254 . S
C383 O368 1.257 . S
C384 O369 1.266 . S
C384 O370 1.236 . S
C385 C388 1.344 . S
C385 C389 1.328 . S
C385 C391 1.516 . S
C386 C387 1.304 . S
C386 C390 1.323 . S
C387 C386 1.304 . S
C387 C388 1.371 . S
C387 H396 0.930 . S
C388 C385 1.344 . S
C388 C387 1.371 . S
C388 H397 0.931 . S
C389 C385 1.328 . S
C389 C390 1.433 . S
C389 H398 0.931 . S
C390 C386 1.323 . S
C390 C389 1.433 . S
C390 H399 0.933 . S
C391 Dy361 2.738 . S
C391 O371 1.255 . S
C391 O372 1.249 . S
C391 C385 1.516 . S
H392 C378 0.930 . S
H393 C379 0.931 . S
H394 C380 0.931 . S
H395 C381 0.933 . S
H396 C387 0.930 . S
H397 C388 0.931 . S
H398 C389 0.931 . S
H399 C390 0.933 . S
Dy400 O403 2.307 . S
Dy400 O405 2.395 . S
Dy400 O406 2.379 . S
Dy400 O408 2.339 . S
Dy400 O410 2.298 . S
Dy400 O414 2.275 . S
Dy400 C422 2.738 . S
Dy401 O404 2.298 . S
Dy401 O407 2.275 . S
Dy401 O409 2.307 . S
Dy401 O411 2.395 . S
Dy401 O412 2.379 . S
Dy401 O415 2.339 . S
Dy401 C431 2.738 . S
C402 O414 1.254 . S
C402 O415 1.257 . S
O403 Dy400 2.307 . S
O403 C413 1.266 . S
O404 Dy401 2.298 . S
O404 C413 1.236 . S
O405 Dy400 2.395 . S
O405 C422 1.255 . S
O406 Dy400 2.379 . S
O406 C422 1.249 . S
O407 Dy401 2.275 . S
O407 C423 1.254 . S
O408 Dy400 2.339 . S
O408 C423 1.257 . S
O409 Dy401 2.307 . S
O409 C424 1.266 . S
O410 Dy400 2.298 . S
O410 C424 1.236 . S
O411 Dy401 2.395 . S
O411 C431 1.255 . S
O412 Dy401 2.379 . S
O412 C431 1.249 . S
C413 O403 1.266 . S
C413 O404 1.236 . S
O414 Dy400 2.275 . S
O414 C402 1.254 . S
O415 Dy401 2.339 . S
O415 C402 1.257 . S
C416 C419 1.344 . S
C416 C420 1.328 . S
C416 C422 1.516 . S
C417 C418 1.304 . S
C417 C421 1.323 . S
C418 C417 1.304 . S
C418 C419 1.371 . S
C418 H432 0.930 . S
C419 C416 1.344 . S
C419 C418 1.371 . S
C419 H433 0.931 . S
C420 C416 1.328 . S
C420 C421 1.433 . S
C420 H434 0.931 . S
C421 C417 1.323 . S
C421 C420 1.433 . S
C421 H435 0.933 . S
C422 Dy400 2.738 . S
C422 O405 1.255 . S
C422 O406 1.249 . S
C422 C416 1.516 . S
C423 O407 1.254 . S
C423 O408 1.257 . S
C424 O409 1.266 . S
C424 O410 1.236 . S
C425 C428 1.344 . S
C425 C429 1.328 . S
C425 C431 1.516 1_545 S
C426 C427 1.304 . S
C426 C430 1.323 . S
C427 C426 1.304 . S
C427 C428 1.371 . S
C427 H436 0.930 . S
C428 C425 1.344 . S
C428 C427 1.371 . S
C428 H437 0.931 . S
C429 C425 1.328 . S
C429 C430 1.433 . S
C429 H438 0.931 . S
C430 C426 1.323 . S
C430 C429 1.433 . S
C430 H439 0.933 . S
C431 Dy401 2.738 . S
C431 O411 1.255 . S
C431 O412 1.249 . S
C431 C425 1.516 1_565 S
H432 C418 0.930 . S
H433 C419 0.931 . S
H434 C420 0.931 . S
H435 C421 0.933 . S
H436 C427 0.930 . S
H437 C428 0.931 . S
H438 C429 0.931 . S
H439 C430 0.933 . S
Dy440 O443 2.307 . S
Dy440 O445 2.395 . S
Dy440 O446 2.379 . S
Dy440 O448 2.339 . S
Dy440 O450 2.298 . S
Dy440 O454 2.275 . S
Dy440 C462 2.738 . S
Dy441 O444 2.298 . S
Dy441 O447 2.275 . S
Dy441 O449 2.307 . S
Dy441 O451 2.395 . S
Dy441 O452 2.379 . S
Dy441 O455 2.339 . S
Dy441 C471 2.738 . S
C442 O454 1.254 . S
C442 O455 1.257 . S
O443 Dy440 2.307 . S
O443 C453 1.266 . S
O444 Dy441 2.298 . S
O444 C453 1.236 . S
O445 Dy440 2.395 . S
O445 C462 1.255 . S
O446 Dy440 2.379 . S
O446 C462 1.249 . S
O447 Dy441 2.275 . S
O447 C463 1.254 . S
O448 Dy440 2.339 . S
O448 C463 1.257 . S
O449 Dy441 2.307 . S
O449 C464 1.266 . S
O450 Dy440 2.298 . S
O450 C464 1.236 . S
O451 Dy441 2.395 . S
O451 C471 1.255 . S
O452 Dy441 2.379 . S
O452 C471 1.249 . S
C453 O443 1.266 . S
C453 O444 1.236 . S
O454 Dy440 2.275 . S
O454 C442 1.254 . S
O455 Dy441 2.339 . S
O455 C442 1.257 . S
C456 C459 1.344 . S
C456 C460 1.328 . S
C456 C462 1.516 . S
C457 C458 1.304 . S
C457 C461 1.323 . S
C458 C457 1.304 . S
C458 C459 1.371 . S
C458 H472 0.930 . S
C459 C456 1.344 . S
C459 C458 1.371 . S
C459 H473 0.931 . S
C460 C456 1.328 . S
C460 C461 1.433 . S
C460 H474 0.931 . S
C461 C457 1.323 . S
C461 C460 1.433 . S
C461 H475 0.933 . S
C462 Dy440 2.738 . S
C462 O445 1.255 . S
C462 O446 1.249 . S
C462 C456 1.516 . S
C463 O447 1.254 . S
C463 O448 1.257 . S
C464 O449 1.266 . S
C464 O450 1.236 . S
C465 C468 1.344 . S
C465 C469 1.328 . S
C465 C471 1.516 . S
C466 C467 1.304 . S
C466 C470 1.323 . S
C467 C466 1.304 . S
C467 C468 1.371 . S
C467 H476 0.930 . S
C468 C465 1.344 . S
C468 C467 1.371 . S
C468 H477 0.931 . S
C469 C465 1.328 . S
C469 C470 1.433 . S
C469 H478 0.931 . S
C470 C466 1.323 . S
C470 C469 1.433 . S
C470 H479 0.933 . S
C471 Dy441 2.738 . S
C471 O451 1.255 . S
C471 O452 1.249 . S
C471 C465 1.516 . S
H472 C458 0.930 . S
H473 C459 0.931 . S
H474 C460 0.931 . S
H475 C461 0.933 . S
H476 C467 0.930 . S
H477 C468 0.931 . S
H478 C469 0.931 . S
H479 C470 0.933 . S
C480 C481 1.391 . S
C480 C482 1.394 . S
C480 H496 0.931 . S
C481 C480 1.391 . S
C481 C485 1.376 . S
C482 C480 1.394 . S
C482 C483 1.369 . S
C482 C486 1.531 . S
C483 C482 1.369 . S
C483 C484 1.410 . S
C483 C491 1.503 . S
C484 C483 1.410 . S
C484 C485 1.392 . S
C484 C487 1.511 . S
C485 C481 1.376 . S
C485 C484 1.392 . S
C485 H497 0.929 . S
C486 C482 1.531 . S
C486 H498 0.960 . S
C486 H499 0.962 . S
C486 H500 0.960 . S
C487 C484 1.511 . S
C487 H501 0.961 . S
C487 H502 0.961 . S
C487 H503 0.961 . S
C488 C489 1.370 . S
C488 C490 1.363 . S
C488 H504 0.931 . S
C489 C488 1.370 . S
C489 C493 1.408 . S
C490 C488 1.363 . S
C490 C491 1.370 . S
C490 C494 1.524 . S
C491 C483 1.503 . S
C491 C490 1.370 . S
C491 C492 1.403 . S
C492 C491 1.403 . S
C492 C493 1.404 . S
C492 C495 1.539 . S
C493 C489 1.408 . S
C493 C492 1.404 . S
C493 H505 0.930 . S
C494 C490 1.524 . S
C494 H506 0.956 . S
C494 H507 0.961 . S
C494 H508 0.961 . S
C495 C492 1.539 . S
C495 H509 0.958 . S
C495 H510 0.961 . S
C495 H511 0.960 . S
H496 C480 0.931 . S
H497 C485 0.929 . S
H498 C486 0.960 . S
H499 C486 0.962 . S
H500 C486 0.960 . S
H501 C487 0.961 . S
H502 C487 0.961 . S
H503 C487 0.961 . S
H504 C488 0.931 . S
H505 C493 0.930 . S
H506 C494 0.956 . S
H507 C494 0.961 . S
H508 C494 0.961 . S
H509 C495 0.958 . S
H510 C495 0.961 . S
H511 C495 0.960 . S
C512 C513 1.391 . S
C512 C514 1.394 . S
C512 H528 0.931 . S
C513 C512 1.391 . S
C513 C517 1.376 . S
C514 C512 1.394 . S
C514 C515 1.369 . S
C514 C518 1.531 1_455 S
C515 C514 1.369 . S
C515 C516 1.410 . S
C515 C523 1.503 1_455 S
C516 C515 1.410 . S
C516 C517 1.392 . S
C516 C519 1.511 . S
C517 C513 1.376 . S
C517 C516 1.392 . S
C517 H529 0.929 . S
C518 C514 1.531 1_655 S
C518 H530 0.960 . S
C518 H531 0.962 . S
C518 H532 0.960 1_655 S
C519 C516 1.511 . S
C519 H533 0.961 . S
C519 H534 0.961 . S
C519 H535 0.961 . S
C520 C521 1.370 . S
C520 C522 1.363 . S
C520 H536 0.931 . S
C521 C520 1.370 . S
C521 C525 1.408 . S
C522 C520 1.363 . S
C522 C523 1.370 . S
C522 C526 1.524 . S
C523 C515 1.503 1_655 S
C523 C522 1.370 . S
C523 C524 1.403 . S
C524 C523 1.403 . S
C524 C525 1.404 . S
C524 C527 1.539 . S
C525 C521 1.408 . S
C525 C524 1.404 . S
C525 H537 0.930 . S
C526 C522 1.524 . S
C526 H538 0.956 . S
C526 H539 0.961 1_655 S
C526 H540 0.961 . S
C527 C524 1.539 . S
C527 H541 0.958 . S
C527 H542 0.961 . S
C527 H543 0.960 1_655 S
H528 C512 0.931 . S
H529 C517 0.929 . S
H530 C518 0.960 . S
H531 C518 0.962 . S
H532 C518 0.960 1_455 S
H533 C519 0.961 . S
H534 C519 0.961 . S
H535 C519 0.961 . S
H536 C520 0.931 . S
H537 C525 0.930 . S
H538 C526 0.956 . S
H539 C526 0.961 1_455 S
H540 C526 0.961 . S
H541 C527 0.958 . S
H542 C527 0.961 . S
H543 C527 0.960 1_455 S
C544 C545 1.391 . S
C544 C546 1.394 . S
C544 H560 0.931 . S
C545 C544 1.391 . S
C545 C549 1.376 . S
C546 C544 1.394 . S
C546 C547 1.369 . S
C546 C550 1.531 . S
C547 C546 1.369 . S
C547 C548 1.410 . S
C547 C555 1.503 1_545 S
C548 C547 1.410 . S
C548 C549 1.392 . S
C548 C551 1.511 . S
C549 C545 1.376 . S
C549 C548 1.392 . S
C549 H561 0.929 . S
C550 C546 1.531 . S
C550 H562 0.960 1_545 S
C550 H563 0.962 1_545 S
C550 H564 0.960 . S
C551 C548 1.511 . S
C551 H565 0.961 . S
C551 H566 0.961 . S
C551 H567 0.961 . S
C552 C553 1.370 . S
C552 C554 1.363 . S
C552 H568 0.931 . S
C553 C552 1.370 . S
C553 C557 1.408 . S
C554 C552 1.363 . S
C554 C555 1.370 . S
C554 C558 1.524 . S
C555 C547 1.503 1_565 S
C555 C554 1.370 . S
C555 C556 1.403 . S
C556 C555 1.403 . S
C556 C557 1.404 . S
C556 C559 1.539 . S
C557 C553 1.408 . S
C557 C556 1.404 . S
C557 H569 0.930 . S
C558 C554 1.524 . S
C558 H570 0.956 . S
C558 H571 0.961 . S
C558 H572 0.961 . S
C559 C556 1.539 . S
C559 H573 0.958 . S
C559 H574 0.961 . S
C559 H575 0.960 1_565 S
H560 C544 0.931 . S
H561 C549 0.929 . S
H562 C550 0.960 1_565 S
H563 C550 0.962 1_565 S
H564 C550 0.960 . S
H565 C551 0.961 . S
H566 C551 0.961 . S
H567 C551 0.961 . S
H568 C552 0.931 . S
H569 C557 0.930 . S
H570 C558 0.956 . S
H571 C558 0.961 . S
H572 C558 0.961 . S
H573 C559 0.958 . S
H574 C559 0.961 . S
H575 C559 0.960 1_545 S
C576 C577 1.391 . S
C576 C578 1.394 . S
C576 H592 0.931 . S
C577 C576 1.391 . S
C577 C581 1.376 . S
C578 C576 1.394 . S
C578 C579 1.369 . S
C578 C582 1.531 . S
C579 C578 1.369 . S
C579 C580 1.410 . S
C579 C587 1.503 . S
C580 C579 1.410 . S
C580 C581 1.392 . S
C580 C583 1.511 . S
C581 C577 1.376 . S
C581 C580 1.392 . S
C581 H593 0.929 . S
C582 C578 1.531 . S
C582 H594 0.960 . S
C582 H595 0.962 . S
C582 H596 0.960 . S
C583 C580 1.511 . S
C583 H597 0.961 . S
C583 H598 0.961 . S
C583 H599 0.961 . S
C584 C585 1.370 . S
C584 C586 1.363 . S
C584 H600 0.931 . S
C585 C584 1.370 . S
C585 C589 1.408 . S
C586 C584 1.363 . S
C586 C587 1.370 . S
C586 C590 1.524 . S
C587 C579 1.503 . S
C587 C586 1.370 . S
C587 C588 1.403 . S
C588 C587 1.403 . S
C588 C589 1.404 . S
C588 C591 1.539 . S
C589 C585 1.408 . S
C589 C588 1.404 . S
C589 H601 0.930 . S
C590 C586 1.524 . S
C590 H602 0.956 . S
C590 H603 0.961 . S
C590 H604 0.961 . S
C591 C588 1.539 . S
C591 H605 0.958 . S
C591 H606 0.961 . S
C591 H607 0.960 . S
H592 C576 0.931 . S
H593 C581 0.929 . S
H594 C582 0.960 . S
H595 C582 0.962 . S
H596 C582 0.960 . S
H597 C583 0.961 . S
H598 C583 0.961 . S
H599 C583 0.961 . S
H600 C584 0.931 . S
H601 C589 0.930 . S
H602 C590 0.956 . S
H603 C590 0.961 . S
H604 C590 0.961 . S
H605 C591 0.958 . S
H606 C591 0.961 . S
H607 C591 0.960 . S
C608 C609 1.391 . S
C608 C610 1.394 . S
C608 H624 0.931 . S
C609 C608 1.391 . S
C609 C613 1.376 . S
C610 C608 1.394 . S
C610 C611 1.369 . S
C610 C614 1.531 . S
C611 C610 1.369 . S
C611 C612 1.410 . S
C611 C619 1.503 1_455 S
C612 C611 1.410 . S
C612 C613 1.392 . S
C612 C615 1.511 1_455 S
C613 C609 1.376 . S
C613 C612 1.392 . S
C613 H625 0.929 . S
C614 C610 1.531 . S
C614 H626 0.960 . S
C614 H627 0.962 . S
C614 H628 0.960 . S
C615 C612 1.511 1_655 S
C615 H629 0.961 1_655 S
C615 H630 0.961 . S
C615 H631 0.961 . S
C616 C617 1.370 . S
C616 C618 1.363 . S
C616 H632 0.931 . S
C617 C616 1.370 . S
C617 C621 1.408 . S
C618 C616 1.363 . S
C618 C619 1.370 . S
C618 C622 1.524 . S
C619 C611 1.503 1_655 S
C619 C618 1.370 . S
C619 C620 1.403 . S
C620 C619 1.403 . S
C620 C621 1.404 . S
C620 C623 1.539 . S
C621 C617 1.408 . S
C621 C620 1.404 . S
C621 H633 0.930 . S
C622 C618 1.524 . S
C622 H634 0.956 . S
C622 H635 0.961 . S
C622 H636 0.961 . S
C623 C620 1.539 . S
C623 H637 0.958 . S
C623 H638 0.961 . S
C623 H639 0.960 1_655 S
H624 C608 0.931 . S
H625 C613 0.929 . S
H626 C614 0.960 . S
H627 C614 0.962 . S
H628 C614 0.960 . S
H629 C615 0.961 1_455 S
H630 C615 0.961 . S
H631 C615 0.961 . S
H632 C616 0.931 . S
H633 C621 0.930 . S
H634 C622 0.956 . S
H635 C622 0.961 . S
H636 C622 0.961 . S
H637 C623 0.958 . S
H638 C623 0.961 . S
H639 C623 0.960 1_455 S
C640 C641 1.391 . S
C640 C642 1.394 . S
C640 H656 0.931 . S
C641 C640 1.391 . S
C641 C645 1.376 . S
C642 C640 1.394 . S
C642 C643 1.369 . S
C642 C646 1.531 1_565 S
C643 C642 1.369 . S
C643 C644 1.410 . S
C643 C651 1.503 1_565 S
C644 C643 1.410 . S
C644 C645 1.392 . S
C644 C647 1.511 . S
C645 C641 1.376 . S
C645 C644 1.392 . S
C645 H657 0.929 . S
C646 C642 1.531 1_545 S
C646 H658 0.960 . S
C646 H659 0.962 . S
C646 H660 0.960 1_545 S
C647 C644 1.511 . S
C647 H661 0.961 . S
C647 H662 0.961 . S
C647 H663 0.961 . S
C648 C649 1.370 . S
C648 C650 1.363 . S
C648 H664 0.931 . S
C649 C648 1.370 . S
C649 C653 1.408 . S
C650 C648 1.363 . S
C650 C651 1.370 . S
C650 C654 1.524 . S
C651 C643 1.503 1_545 S
C651 C650 1.370 . S
C651 C652 1.403 . S
C652 C651 1.403 . S
C652 C653 1.404 . S
C652 C655 1.539 . S
C653 C649 1.408 . S
C653 C652 1.404 . S
C653 H665 0.930 . S
C654 C650 1.524 . S
C654 H666 0.956 . S
C654 H667 0.961 1_545 S
C654 H668 0.961 . S
C655 C652 1.539 . S
C655 H669 0.958 . S
C655 H670 0.961 . S
C655 H671 0.960 . S
H656 C640 0.931 . S
H657 C645 0.929 . S
H658 C646 0.960 . S
H659 C646 0.962 . S
H660 C646 0.960 1_565 S
H661 C647 0.961 . S
H662 C647 0.961 . S
H663 C647 0.961 . S
H664 C648 0.931 . S
H665 C653 0.930 . S
H666 C654 0.956 . S
H667 C654 0.961 1_565 S
H668 C654 0.961 . S
H669 C655 0.958 . S
H670 C655 0.961 . S
H671 C655 0.960 . S
C672 C673 1.391 . S
C672 C674 1.394 . S
C672 H688 0.931 . S
C673 C672 1.391 . S
C673 C677 1.376 . S
C674 C672 1.394 . S
C674 C675 1.369 . S
C674 C678 1.531 . S
C675 C674 1.369 . S
C675 C676 1.410 . S
C675 C683 1.503 . S
C676 C675 1.410 . S
C676 C677 1.392 . S
C676 C679 1.511 . S
C677 C673 1.376 . S
C677 C676 1.392 . S
C677 H689 0.929 . S
C678 C674 1.531 . S
C678 H690 0.960 . S
C678 H691 0.962 . S
C678 H692 0.960 . S
C679 C676 1.511 . S
C679 H693 0.961 . S
C679 H694 0.961 . S
C679 H695 0.961 . S
C680 C681 1.370 . S
C680 C682 1.363 . S
C680 H696 0.931 . S
C681 C680 1.370 . S
C681 C685 1.408 . S
C682 C680 1.363 . S
C682 C683 1.370 . S
C682 C686 1.524 . S
C683 C675 1.503 . S
C683 C682 1.370 . S
C683 C684 1.403 . S
C684 C683 1.403 . S
C684 C685 1.404 . S
C684 C687 1.539 . S
C685 C681 1.408 . S
C685 C684 1.404 . S
C685 H697 0.930 . S
C686 C682 1.524 . S
C686 H698 0.956 . S
C686 H699 0.961 . S
C686 H700 0.961 . S
C687 C684 1.539 . S
C687 H701 0.958 . S
C687 H702 0.961 . S
C687 H703 0.960 . S
H688 C672 0.931 . S
H689 C677 0.929 . S
H690 C678 0.960 . S
H691 C678 0.962 . S
H692 C678 0.960 . S
H693 C679 0.961 . S
H694 C679 0.961 . S
H695 C679 0.961 . S
H696 C680 0.931 . S
H697 C685 0.930 . S
H698 C686 0.956 . S
H699 C686 0.961 . S
H700 C686 0.961 . S
H701 C687 0.958 . S
H702 C687 0.961 . S
H703 C687 0.960 . S
C704 C705 1.391 . S
C704 C706 1.394 . S
C704 H720 0.931 . S
C705 C704 1.391 . S
C705 C709 1.376 . S
C706 C704 1.394 . S
C706 C707 1.369 . S
C706 C710 1.531 . S
C707 C706 1.369 . S
C707 C708 1.410 . S
C707 C715 1.503 1_455 S
C708 C707 1.410 . S
C708 C709 1.392 . S
C708 C711 1.511 . S
C709 C705 1.376 . S
C709 C708 1.392 . S
C709 H721 0.929 . S
C710 C706 1.531 . S
C710 H722 0.960 1_455 S
C710 H723 0.962 . S
C710 H724 0.960 . S
C711 C708 1.511 . S
C711 H725 0.961 . S
C711 H726 0.961 . S
C711 H727 0.961 . S
C712 C713 1.370 . S
C712 C714 1.363 . S
C712 H728 0.931 . S
C713 C712 1.370 . S
C713 C717 1.408 . S
C714 C712 1.363 . S
C714 C715 1.370 . S
C714 C718 1.524 1_655 S
C715 C707 1.503 1_655 S
C715 C714 1.370 . S
C715 C716 1.403 . S
C716 C715 1.403 . S
C716 C717 1.404 . S
C716 C719 1.539 . S
C717 C713 1.408 . S
C717 C716 1.404 . S
C717 H729 0.930 . S
C718 C714 1.524 1_455 S
C718 H730 0.956 . S
C718 H731 0.961 . S
C718 H732 0.961 1_455 S
C719 C716 1.539 . S
C719 H733 0.958 . S
C719 H734 0.961 . S
C719 H735 0.960 . S
H720 C704 0.931 . S
H721 C709 0.929 . S
H722 C710 0.960 1_655 S
H723 C710 0.962 . S
H724 C710 0.960 . S
H725 C711 0.961 . S
H726 C711 0.961 . S
H727 C711 0.961 . S
H728 C712 0.931 . S
H729 C717 0.930 . S
H730 C718 0.956 . S
H731 C718 0.961 . S
H732 C718 0.961 1_655 S
H733 C719 0.958 . S
H734 C719 0.961 . S
H735 C719 0.960 . S
C736 C737 1.391 . S
C736 C738 1.394 . S
C736 H752 0.931 . S
C737 C736 1.391 . S
C737 C741 1.376 . S
C738 C736 1.394 . S
C738 C739 1.369 . S
C738 C742 1.531 . S
C739 C738 1.369 . S
C739 C740 1.410 . S
C739 C747 1.503 1_565 S
C740 C739 1.410 . S
C740 C741 1.392 . S
C740 C743 1.511 . S
C741 C737 1.376 . S
C741 C740 1.392 . S
C741 H753 0.929 . S
C742 C738 1.531 . S
C742 H754 0.960 1_565 S
C742 H755 0.962 . S
C742 H756 0.960 . S
C743 C740 1.511 . S
C743 H757 0.961 . S
C743 H758 0.961 . S
C743 H759 0.961 . S
C744 C745 1.370 . S
C744 C746 1.363 . S
C744 H760 0.931 . S
C745 C744 1.370 . S
C745 C749 1.408 . S
C746 C744 1.363 . S
C746 C747 1.370 . S
C746 C750 1.524 1_545 S
C747 C739 1.503 1_545 S
C747 C746 1.370 . S
C747 C748 1.403 . S
C748 C747 1.403 . S
C748 C749 1.404 . S
C748 C751 1.539 . S
C749 C745 1.408 . S
C749 C748 1.404 . S
C749 H761 0.930 . S
C750 C746 1.524 1_565 S
C750 H762 0.956 . S
C750 H763 0.961 . S
C750 H764 0.961 1_565 S
C751 C748 1.539 . S
C751 H765 0.958 . S
C751 H766 0.961 . S
C751 H767 0.960 . S
H752 C736 0.931 . S
H753 C741 0.929 . S
H754 C742 0.960 1_545 S
H755 C742 0.962 . S
H756 C742 0.960 . S
H757 C743 0.961 . S
H758 C743 0.961 . S
H759 C743 0.961 . S
H760 C744 0.931 . S
H761 C749 0.930 . S
H762 C750 0.956 . S
H763 C750 0.961 . S
H764 C750 0.961 1_545 S
H765 C751 0.958 . S
H766 C751 0.961 . S
H767 C751 0.960 . S
C768 C769 1.391 . S
C768 C770 1.394 . S
C768 H784 0.931 . S
C769 C768 1.391 . S
C769 C773 1.376 . S
C770 C768 1.394 . S
C770 C771 1.369 . S
C770 C774 1.531 . S
C771 C770 1.369 . S
C771 C772 1.410 . S
C771 C779 1.503 . S
C772 C771 1.410 . S
C772 C773 1.392 . S
C772 C775 1.511 . S
C773 C769 1.376 . S
C773 C772 1.392 . S
C773 H785 0.929 . S
C774 C770 1.531 . S
C774 H786 0.960 . S
C774 H787 0.962 . S
C774 H788 0.960 . S
C775 C772 1.511 . S
C775 H789 0.961 . S
C775 H790 0.961 . S
C775 H791 0.961 . S
C776 C777 1.370 . S
C776 C778 1.363 . S
C776 H792 0.931 . S
C777 C776 1.370 . S
C777 C781 1.408 . S
C778 C776 1.363 . S
C778 C779 1.370 . S
C778 C782 1.524 . S
C779 C771 1.503 . S
C779 C778 1.370 . S
C779 C780 1.403 . S
C780 C779 1.403 . S
C780 C781 1.404 . S
C780 C783 1.539 . S
C781 C777 1.408 . S
C781 C780 1.404 . S
C781 H793 0.930 . S
C782 C778 1.524 . S
C782 H794 0.956 . S
C782 H795 0.961 . S
C782 H796 0.961 . S
C783 C780 1.539 . S
C783 H797 0.958 . S
C783 H798 0.961 . S
C783 H799 0.960 . S
H784 C768 0.931 . S
H785 C773 0.929 . S
H786 C774 0.960 . S
H787 C774 0.962 . S
H788 C774 0.960 . S
H789 C775 0.961 . S
H790 C775 0.961 . S
H791 C775 0.961 . S
H792 C776 0.931 . S
H793 C781 0.930 . S
H794 C782 0.956 . S
H795 C782 0.961 . S
H796 C782 0.961 . S
H797 C783 0.958 . S
H798 C783 0.961 . S
H799 C783 0.960 . S
C800 C801 1.391 . S
C800 C802 1.394 . S
C800 H816 0.931 . S
C801 C800 1.391 . S
C801 C805 1.376 . S
C802 C800 1.394 . S
C802 C803 1.369 . S
C802 C806 1.519 1_455 S
C803 C802 1.369 . S
C803 C804 1.410 . S
C803 C811 1.503 1_455 S
C804 C803 1.410 . S
C804 C805 1.392 . S
C804 C807 1.511 . S
C805 C801 1.376 . S
C805 C804 1.392 . S
C805 H817 0.929 . S
C806 C802 1.519 1_655 S
C806 H818 0.981 . S
C806 H819 0.975 . S
C806 H820 0.938 1_655 S
C807 C804 1.511 . S
C807 H821 0.961 . S
C807 H822 0.961 . S
C807 H823 0.961 . S
C808 C809 1.370 . S
C808 C810 1.363 . S
C808 H824 0.931 . S
C809 C808 1.370 . S
C809 C813 1.408 . S
C810 C808 1.363 . S
C810 C811 1.370 . S
C810 C814 1.524 . S
C811 C803 1.503 1_655 S
C811 C810 1.370 . S
C811 C812 1.403 . S
C812 C811 1.403 . S
C812 C813 1.404 . S
C812 C815 1.539 . S
C813 C809 1.408 . S
C813 C812 1.404 . S
C813 H825 0.930 . S
C814 C810 1.524 . S
C814 H826 0.956 . S
C814 H827 0.961 1_655 S
C814 H828 0.961 . S
C815 C812 1.539 . S
C815 H829 0.958 . S
C815 H830 0.961 . S
C815 H831 0.967 . S
H816 C800 0.931 . S
H817 C805 0.929 . S
H818 C806 0.981 . S
H819 C806 0.975 . S
H820 C806 0.938 1_455 S
H821 C807 0.961 . S
H822 C807 0.961 . S
H823 C807 0.961 . S
H824 C808 0.931 . S
H825 C813 0.930 . S
H826 C814 0.956 . S
H827 C814 0.961 1_455 S
H828 C814 0.961 . S
H829 C815 0.958 . S
H830 C815 0.961 . S
H831 C815 0.967 . S
C832 C833 1.391 . S
C832 C834 1.394 . S
C832 H848 0.931 . S
C833 C832 1.391 . S
C833 C837 1.376 . S
C834 C832 1.394 . S
C834 C835 1.369 . S
C834 C838 1.531 . S
C835 C834 1.369 . S
C835 C836 1.410 . S
C835 C843 1.503 1_545 S
C836 C835 1.410 . S
C836 C837 1.392 . S
C836 C839 1.511 1_545 S
C837 C833 1.376 . S
C837 C836 1.392 . S
C837 H849 0.929 . S
C838 C834 1.531 . S
C838 H850 0.960 . S
C838 H851 0.962 . S
C838 H852 0.960 . S
C839 C836 1.511 1_565 S
C839 H853 0.961 1_565 S
C839 H854 0.961 . S
C839 H855 0.961 . S
C840 C841 1.370 . S
C840 C842 1.363 . S
C840 H856 0.931 . S
C841 C840 1.370 . S
C841 C845 1.408 . S
C842 C840 1.363 . S
C842 C843 1.370 . S
C842 C846 1.524 . S
C843 C835 1.503 1_565 S
C843 C842 1.370 . S
C843 C844 1.403 . S
C844 C843 1.403 . S
C844 C845 1.404 . S
C844 C847 1.539 . S
C845 C841 1.408 . S
C845 C844 1.404 . S
C845 H857 0.930 . S
C846 C842 1.524 . S
C846 H858 0.956 1_565 S
C846 H859 0.962 1_565 S
C846 H860 0.961 . S
C847 C844 1.539 . S
C847 H861 0.958 . S
C847 H862 0.961 . S
C847 H863 0.960 . S
H848 C832 0.931 . S
H849 C837 0.929 . S
H850 C838 0.960 . S
H851 C838 0.962 . S
H852 C838 0.960 . S
H853 C839 0.961 1_545 S
H854 C839 0.961 . S
H855 C839 0.961 . S
H856 C840 0.931 . S
H857 C845 0.930 . S
H858 C846 0.956 1_545 S
H859 C846 0.962 1_545 S
H860 C846 0.961 . S
H861 C847 0.958 . S
H862 C847 0.961 . S
H863 C847 0.960 . S
C864 C865 1.391 . S
C864 C866 1.394 . S
C864 H880 0.931 . S
C865 C864 1.391 . S
C865 C869 1.376 . S
C866 C864 1.394 . S
C866 C867 1.369 . S
C866 C870 1.531 . S
C867 C866 1.369 . S
C867 C868 1.410 . S
C867 C875 1.503 . S
C868 C867 1.410 . S
C868 C869 1.392 . S
C868 C871 1.511 . S
C869 C865 1.376 . S
C869 C868 1.392 . S
C869 H881 0.929 . S
C870 C866 1.531 . S
C870 H882 0.960 . S
C870 H883 0.962 . S
C870 H884 0.960 . S
C871 C868 1.511 . S
C871 H885 0.961 . S
C871 H886 0.961 . S
C871 H887 0.961 . S
C872 C873 1.370 . S
C872 C874 1.363 . S
C872 H888 0.931 . S
C873 C872 1.370 . S
C873 C877 1.408 . S
C874 C872 1.363 . S
C874 C875 1.370 . S
C874 C878 1.524 . S
C875 C867 1.503 . S
C875 C874 1.370 . S
C875 C876 1.403 . S
C876 C875 1.403 . S
C876 C877 1.404 . S
C876 C879 1.539 . S
C877 C873 1.408 . S
C877 C876 1.404 . S
C877 H889 0.930 . S
C878 C874 1.524 . S
C878 H890 0.956 . S
C878 H891 0.961 . S
C878 H892 0.961 . S
C879 C876 1.539 . S
C879 H893 0.958 . S
C879 H894 0.961 . S
C879 H895 0.960 . S
H880 C864 0.931 . S
H881 C869 0.929 . S
H882 C870 0.960 . S
H883 C870 0.962 . S
H884 C870 0.960 . S
H885 C871 0.961 . S
H886 C871 0.961 . S
H887 C871 0.961 . S
H888 C872 0.931 . S
H889 C877 0.930 . S
H890 C878 0.956 . S
H891 C878 0.961 . S
H892 C878 0.961 . S
H893 C879 0.958 . S
H894 C879 0.961 . S
H895 C879 0.960 . S
C896 C897 1.391 . S
C896 C898 1.394 . S
C896 H912 0.931 . S
C897 C896 1.391 . S
C897 C901 1.376 . S
C898 C896 1.394 . S
C898 C899 1.369 . S
C898 C902 1.531 . S
C899 C898 1.369 . S
C899 C900 1.410 . S
C899 C907 1.503 . S
C900 C899 1.410 . S
C900 C901 1.392 . S
C900 C903 1.511 . S
C901 C897 1.376 . S
C901 C900 1.392 . S
C901 H913 0.929 . S
C902 C898 1.531 . S
C902 H914 0.960 . S
C902 H915 0.962 . S
C902 H916 0.960 . S
C903 C900 1.511 . S
C903 H917 0.961 . S
C903 H918 0.961 . S
C903 H919 0.961 . S
C904 C905 1.370 . S
C904 C906 1.363 . S
C904 H920 0.931 . S
C905 C904 1.370 . S
C905 C909 1.408 . S
C906 C904 1.363 . S
C906 C907 1.370 . S
C906 C910 1.524 . S
C907 C899 1.503 . S
C907 C906 1.370 . S
C907 C908 1.403 . S
C908 C907 1.403 . S
C908 C909 1.404 . S
C908 C911 1.539 . S
C909 C905 1.408 . S
C909 C908 1.404 . S
C909 H921 0.930 . S
C910 C906 1.524 . S
C910 H922 0.956 . S
C910 H923 0.961 . S
C910 H924 0.961 . S
C911 C908 1.539 . S
C911 H925 0.958 . S
C911 H926 0.961 . S
C911 H927 0.960 . S
H912 C896 0.931 . S
H913 C901 0.929 . S
H914 C902 0.960 . S
H915 C902 0.962 . S
H916 C902 0.960 . S
H917 C903 0.961 . S
H918 C903 0.961 . S
H919 C903 0.961 . S
H920 C904 0.931 . S
H921 C909 0.930 . S
H922 C910 0.956 . S
H923 C910 0.961 . S
H924 C910 0.961 . S
H925 C911 0.958 . S
H926 C911 0.961 . S
H927 C911 0.960 . S
C928 C929 1.391 . S
C928 C930 1.394 . S
C928 H944 0.931 . S
C929 C928 1.391 . S
C929 C933 1.376 . S
C930 C928 1.394 . S
C930 C931 1.369 . S
C930 C934 1.531 . S
C931 C930 1.369 . S
C931 C932 1.410 . S
C931 C939 1.503 . S
C932 C931 1.410 . S
C932 C933 1.392 . S
C932 C935 1.511 . S
C933 C929 1.376 . S
C933 C932 1.392 . S
C933 H945 0.929 . S
C934 C930 1.531 . S
C934 H946 0.960 . S
C934 H947 0.962 . S
C934 H948 0.960 . S
C935 C932 1.511 . S
C935 H949 0.961 . S
C935 H950 0.961 . S
C935 H951 0.961 . S
C936 C937 1.370 . S
C936 C938 1.363 . S
C936 H952 0.931 . S
C937 C936 1.370 . S
C937 C941 1.408 . S
C938 C936 1.363 . S
C938 C939 1.370 . S
C938 C942 1.524 . S
C939 C931 1.503 . S
C939 C938 1.370 . S
C939 C940 1.403 . S
C940 C939 1.403 . S
C940 C941 1.404 . S
C940 C943 1.539 . S
C941 C937 1.408 . S
C941 C940 1.404 . S
C941 H953 0.930 . S
C942 C938 1.524 . S
C942 H954 0.956 . S
C942 H955 0.961 . S
C942 H956 0.961 . S
C943 C940 1.539 . S
C943 H957 0.958 . S
C943 H958 0.961 . S
C943 H959 0.960 . S
H944 C928 0.931 . S
H945 C933 0.929 . S
H946 C934 0.960 . S
H947 C934 0.962 . S
H948 C934 0.960 . S
H949 C935 0.961 . S
H950 C935 0.961 . S
H951 C935 0.961 . S
H952 C936 0.931 . S
H953 C941 0.930 . S
H954 C942 0.956 . S
H955 C942 0.961 . S
H956 C942 0.961 . S
H957 C943 0.958 . S
H958 C943 0.961 . S
H959 C943 0.960 . S
C960 C961 1.391 . S
C960 C962 1.394 . S
C960 H976 0.931 . S
C961 C960 1.391 . S
C961 C965 1.376 . S
C962 C960 1.394 . S
C962 C963 1.369 . S
C962 C966 1.531 . S
C963 C962 1.369 . S
C963 C964 1.410 . S
C963 C971 1.503 . S
C964 C963 1.410 . S
C964 C965 1.392 . S
C964 C967 1.511 . S
C965 C961 1.376 . S
C965 C964 1.392 . S
C965 H977 0.929 . S
C966 C962 1.531 . S
C966 H978 0.960 . S
C966 H979 0.962 . S
C966 H980 0.960 . S
C967 C964 1.511 . S
C967 H981 0.961 . S
C967 H982 0.961 . S
C967 H983 0.961 . S
C968 C969 1.370 . S
C968 C970 1.363 . S
C968 H984 0.931 . S
C969 C968 1.370 . S
C969 C973 1.408 . S
C970 C968 1.363 . S
C970 C971 1.370 . S
C970 C974 1.524 . S
C971 C963 1.503 . S
C971 C970 1.370 . S
C971 C972 1.403 . S
C972 C971 1.403 . S
C972 C973 1.404 . S
C972 C975 1.539 . S
C973 C969 1.408 . S
C973 C972 1.404 . S
C973 H985 0.930 . S
C974 C970 1.524 . S
C974 H986 0.956 . S
C974 H987 0.961 . S
C974 H988 0.961 . S
C975 C972 1.539 . S
C975 H989 0.958 . S
C975 H990 0.961 . S
C975 H991 0.960 . S
H976 C960 0.931 . S
H977 C965 0.929 . S
H978 C966 0.960 . S
H979 C966 0.962 . S
H980 C966 0.960 . S
H981 C967 0.961 . S
H982 C967 0.961 . S
H983 C967 0.961 . S
H984 C968 0.931 . S
H985 C973 0.930 . S
H986 C974 0.956 . S
H987 C974 0.961 . S
H988 C974 0.961 . S
H989 C975 0.958 . S
H990 C975 0.961 . S
H991 C975 0.960 . S
C992 C993 1.391 . S
C992 C994 1.394 . S
C992 H1008 0.931 . S
C993 C992 1.391 . S
C993 C997 1.376 . S
C994 C992 1.394 . S
C994 C995 1.369 . S
C994 C998 1.531 . S
C995 C994 1.369 . S
C995 C996 1.410 . S
C995 C1003 1.503 . S
C996 C995 1.410 . S
C996 C997 1.392 . S
C996 C999 1.511 . S
C997 C993 1.376 . S
C997 C996 1.392 . S
C997 H1009 0.929 . S
C998 C994 1.531 . S
C998 H1010 0.960 . S
C998 H1011 0.962 . S
C998 H1012 0.960 . S
C999 C996 1.511 . S
C999 H1013 0.961 . S
C999 H1014 0.961 . S
C999 H1015 0.961 . S
C1000 C1001 1.370 . S
C1000 C1002 1.363 . S
C1000 H1016 0.931 . S
C1001 C1000 1.370 . S
C1001 C1005 1.408 . S
C1002 C1000 1.363 . S
C1002 C1003 1.370 . S
C1002 C1006 1.524 . S
C1003 C995 1.503 . S
C1003 C1002 1.370 . S
C1003 C1004 1.403 . S
C1004 C1003 1.403 . S
C1004 C1005 1.404 . S
C1004 C1007 1.539 . S
C1005 C1001 1.408 . S
C1005 C1004 1.404 . S
C1005 H1017 0.930 . S
C1006 C1002 1.524 . S
C1006 H1018 0.956 . S
C1006 H1019 0.961 . S
C1006 H1020 0.961 . S
C1007 C1004 1.539 . S
C1007 H1021 0.958 . S
C1007 H1022 0.961 . S
C1007 H1023 0.960 . S
H1008 C992 0.931 . S
H1009 C997 0.929 . S
H1010 C998 0.960 . S
H1011 C998 0.962 . S
H1012 C998 0.960 . S
H1013 C999 0.961 . S
H1014 C999 0.961 . S
H1015 C999 0.961 . S
H1016 C1000 0.931 . S
H1017 C1005 0.930 . S
H1018 C1006 0.956 . S
H1019 C1006 0.961 . S
H1020 C1006 0.961 . S
H1021 C1007 0.958 . S
H1022 C1007 0.961 . S
H1023 C1007 0.960 . S
C1024 C1025 1.391 . S
C1024 C1026 1.394 . S
C1024 H1040 0.931 . S
C1025 C1024 1.391 . S
C1025 C1029 1.376 . S
C1026 C1024 1.394 . S
C1026 C1027 1.369 . S
C1026 C1030 1.531 . S
C1027 C1026 1.369 . S
C1027 C1028 1.410 . S
C1027 C1035 1.503 . S
C1028 C1027 1.410 . S
C1028 C1029 1.392 . S
C1028 C1031 1.511 . S
C1029 C1025 1.376 . S
C1029 C1028 1.392 . S
C1029 H1041 0.929 . S
C1030 C1026 1.531 . S
C1030 H1042 0.960 . S
C1030 H1043 0.962 . S
C1030 H1044 0.960 . S
C1031 C1028 1.511 . S
C1031 H1045 0.961 . S
C1031 H1046 0.961 . S
C1031 H1047 0.961 . S
C1032 C1033 1.370 . S
C1032 C1034 1.363 . S
C1032 H1048 0.931 . S
C1033 C1032 1.370 . S
C1033 C1037 1.408 . S
C1034 C1032 1.363 . S
C1034 C1035 1.370 . S
C1034 C1038 1.524 . S
C1035 C1027 1.503 . S
C1035 C1034 1.370 . S
C1035 C1036 1.403 . S
C1036 C1035 1.403 . S
C1036 C1037 1.404 . S
C1036 C1039 1.539 . S
C1037 C1033 1.408 . S
C1037 C1036 1.404 . S
C1037 H1049 0.930 . S
C1038 C1034 1.524 . S
C1038 H1050 0.956 . S
C1038 H1051 0.961 . S
C1038 H1052 0.961 . S
C1039 C1036 1.539 . S
C1039 H1053 0.958 . S
C1039 H1054 0.961 . S
C1039 H1055 0.960 . S
H1040 C1024 0.931 . S
H1041 C1029 0.929 . S
H1042 C1030 0.960 . S
H1043 C1030 0.962 . S
H1044 C1030 0.960 . S
H1045 C1031 0.961 . S
H1046 C1031 0.961 . S
H1047 C1031 0.961 . S
H1048 C1032 0.931 . S
H1049 C1037 0.930 . S
H1050 C1038 0.956 . S
H1051 C1038 0.961 . S
H1052 C1038 0.961 . S
H1053 C1039 0.958 . S
H1054 C1039 0.961 . S
H1055 C1039 0.960 . S
C1056 C1057 1.391 . S
C1056 C1058 1.394 . S
C1056 H1072 0.931 . S
C1057 C1056 1.391 . S
C1057 C1061 1.376 . S
C1058 C1056 1.394 . S
C1058 C1059 1.369 . S
C1058 C1062 1.531 1_556 S
C1059 C1058 1.369 . S
C1059 C1060 1.410 . S
C1059 C1067 1.503 1_566 S
C1060 C1059 1.410 . S
C1060 C1061 1.392 . S
C1060 C1063 1.511 . S
C1061 C1057 1.376 . S
C1061 C1060 1.392 . S
C1061 H1073 0.929 . S
C1062 C1058 1.531 1_554 S
C1062 H1074 0.960 . S
C1062 H1075 0.962 1_554 S
C1062 H1076 0.960 . S
C1063 C1060 1.511 . S
C1063 H1077 0.961 . S
C1063 H1078 0.961 1_565 S
C1063 H1079 0.961 1_556 S
C1064 C1065 1.370 . S
C1064 C1066 1.365 1_554 S
C1064 H1080 0.931 . S
C1065 C1064 1.370 . S
C1065 C1069 1.408 . S
C1066 C1064 1.365 1_556 S
C1066 C1067 1.372 1_556 S
C1066 C1070 1.521 . S
C1067 C1059 1.503 1_544 S
C1067 C1066 1.372 1_554 S
C1067 C1068 1.403 . S
C1068 C1067 1.403 . S
C1068 C1069 1.404 . S
C1068 C1071 1.539 1_545 S
C1069 C1065 1.408 . S
C1069 C1068 1.404 . S
C1069 H1081 0.930 . S
C1070 C1066 1.521 . S
C1070 H1082 0.956 . S
C1070 H1083 0.961 . S
C1070 H1084 0.961 . S
C1071 C1068 1.539 1_565 S
C1071 H1085 0.958 . S
C1071 H1086 0.961 . S
C1071 H1087 0.960 . S
H1072 C1056 0.931 . S
H1073 C1061 0.929 . S
H1074 C1062 0.960 . S
H1075 C1062 0.962 1_556 S
H1076 C1062 0.960 . S
H1077 C1063 0.961 . S
H1078 C1063 0.961 1_545 S
H1079 C1063 0.961 1_554 S
H1080 C1064 0.931 . S
H1081 C1069 0.930 . S
H1082 C1070 0.956 . S
H1083 C1070 0.961 . S
H1084 C1070 0.961 . S
H1085 C1071 0.958 . S
H1086 C1071 0.961 . S
H1087 C1071 0.960 . S
C1088 C1089 1.391 . S
C1088 C1090 1.394 . S
C1088 H1104 0.931 . S
C1089 C1088 1.391 . S
C1089 C1093 1.376 . S
C1090 C1088 1.394 . S
C1090 C1091 1.369 . S
C1090 C1094 1.531 . S
C1091 C1090 1.369 . S
C1091 C1092 1.410 . S
C1091 C1099 1.503 . S
C1092 C1091 1.410 . S
C1092 C1093 1.392 . S
C1092 C1095 1.511 . S
C1093 C1089 1.376 . S
C1093 C1092 1.392 . S
C1093 H1105 0.929 . S
C1094 C1090 1.531 . S
C1094 H1106 0.960 . S
C1094 H1107 0.962 . S
C1094 H1108 0.960 . S
C1095 C1092 1.511 . S
C1095 H1109 0.961 . S
C1095 H1110 0.961 . S
C1095 H1111 0.961 . S
C1096 C1097 1.370 . S
C1096 C1098 1.363 . S
C1096 H1112 0.931 . S
C1097 C1096 1.370 . S
C1097 C1101 1.408 . S
C1098 C1096 1.363 . S
C1098 C1099 1.370 . S
C1098 C1102 1.524 . S
C1099 C1091 1.503 . S
C1099 C1098 1.370 . S
C1099 C1100 1.403 . S
C1100 C1099 1.403 . S
C1100 C1101 1.404 . S
C1100 C1103 1.539 . S
C1101 C1097 1.408 . S
C1101 C1100 1.404 . S
C1101 H1113 0.930 . S
C1102 C1098 1.524 . S
C1102 H1114 0.956 . S
C1102 H1115 0.961 . S
C1102 H1116 0.961 . S
C1103 C1100 1.539 . S
C1103 H1117 0.958 . S
C1103 H1118 0.961 . S
C1103 H1119 0.960 . S
H1104 C1088 0.931 . S
H1105 C1093 0.929 . S
H1106 C1094 0.960 . S
H1107 C1094 0.962 . S
H1108 C1094 0.960 . S
H1109 C1095 0.961 . S
H1110 C1095 0.961 . S
H1111 C1095 0.961 . S
H1112 C1096 0.931 . S
H1113 C1101 0.930 . S
H1114 C1102 0.956 . S
H1115 C1102 0.961 . S
H1116 C1102 0.961 . S
H1117 C1103 0.958 . S
H1118 C1103 0.961 . S
H1119 C1103 0.960 . S
C1120 C1121 1.391 . S
C1120 C1122 1.394 . S
C1120 H1136 0.931 . S
C1121 C1120 1.391 . S
C1121 C1125 1.376 . S
C1122 C1120 1.394 . S
C1122 C1123 1.369 . S
C1122 C1126 1.531 1_455 S
C1123 C1122 1.369 . S
C1123 C1124 1.401 1_556 S
C1123 C1131 1.503 1_456 S
C1124 C1123 1.401 1_554 S
C1124 C1125 1.380 1_554 S
C1124 C1127 1.532 . S
C1125 C1121 1.376 . S
C1125 C1124 1.380 1_556 S
C1125 H1137 0.929 . S
C1126 C1122 1.531 1_655 S
C1126 H1138 0.960 . S
C1126 H1139 0.962 . S
C1126 H1140 0.960 . S
C1127 C1124 1.532 . S
C1127 H1141 0.961 . S
C1127 H1142 0.961 . S
C1127 H1143 0.961 . S
C1128 C1129 1.370 . S
C1128 C1130 1.363 . S
C1128 H1144 0.931 . S
C1129 C1128 1.370 . S
C1129 C1133 1.408 . S
C1130 C1128 1.363 . S
C1130 C1131 1.370 . S
C1130 C1134 1.527 . S
C1131 C1123 1.503 1_654 S
C1131 C1130 1.370 . S
C1131 C1132 1.403 . S
C1132 C1131 1.403 . S
C1132 C1133 1.404 . S
C1132 C1135 1.539 1_554 S
C1133 C1129 1.408 . S
C1133 C1132 1.404 . S
C1133 H1145 0.930 . S
C1134 C1130 1.527 . S
C1134 H1146 0.964 . S
C1134 H1147 0.941 1_655 S
C1134 H1148 0.974 . S
C1135 C1132 1.539 1_556 S
C1135 H1149 0.958 . S
C1135 H1150 0.961 1_556 S
C1135 H1151 0.960 . S
H1136 C1120 0.931 . S
H1137 C1125 0.929 . S
H1138 C1126 0.960 . S
H1139 C1126 0.962 . S
H1140 C1126 0.960 . S
H1141 C1127 0.961 . S
H1142 C1127 0.961 . S
H1143 C1127 0.961 . S
H1144 C1128 0.931 . S
H1145 C1133 0.930 . S
H1146 C1134 0.964 . S
H1147 C1134 0.941 1_455 S
H1148 C1134 0.974 . S
H1149 C1135 0.958 . S
H1150 C1135 0.961 1_554 S
H1151 C1135 0.960 . S
C1152 C1153 1.391 . S
C1152 C1154 1.394 . S
C1152 H1168 0.931 . S
C1153 C1152 1.391 . S
C1153 C1157 1.376 . S
C1154 C1152 1.394 . S
C1154 C1155 1.369 . S
C1154 C1158 1.531 1_545 S
C1155 C1154 1.369 . S
C1155 C1156 1.410 . S
C1155 C1163 1.503 1_545 S
C1156 C1155 1.410 . S
C1156 C1157 1.392 . S
C1156 C1159 1.511 . S
C1157 C1153 1.376 . S
C1157 C1156 1.392 . S
C1157 H1169 0.929 . S
C1158 C1154 1.531 1_565 S
C1158 H1170 0.960 . S
C1158 H1171 0.962 . S
C1158 H1172 0.960 . S
C1159 C1156 1.511 . S
C1159 H1173 0.961 . S
C1159 H1174 0.961 . S
C1159 H1175 0.961 . S
C1160 C1161 1.370 . S
C1160 C1162 1.363 . S
C1160 H1176 0.931 . S
C1161 C1160 1.370 . S
C1161 C1165 1.408 . S
C1162 C1160 1.363 . S
C1162 C1163 1.370 . S
C1162 C1166 1.524 1_565 S
C1163 C1155 1.503 1_565 S
C1163 C1162 1.370 . S
C1163 C1164 1.403 . S
C1164 C1163 1.403 . S
C1164 C1165 1.404 . S
C1164 C1167 1.539 . S
C1165 C1161 1.408 . S
C1165 C1164 1.404 . S
C1165 H1177 0.930 . S
C1166 C1162 1.524 1_545 S
C1166 H1178 0.956 . S
C1166 H1179 0.961 . S
C1166 H1180 0.964 1_545 S
C1167 C1164 1.539 . S
C1167 H1181 0.958 . S
C1167 H1182 0.961 . S
C1167 H1183 0.960 . S
H1168 C1152 0.931 . S
H1169 C1157 0.929 . S
H1170 C1158 0.960 . S
H1171 C1158 0.962 . S
H1172 C1158 0.960 . S
H1173 C1159 0.961 . S
H1174 C1159 0.961 . S
H1175 C1159 0.961 . S
H1176 C1160 0.931 . S
H1177 C1165 0.930 . S
H1178 C1166 0.956 . S
H1179 C1166 0.961 . S
H1180 C1166 0.964 1_565 S
H1181 C1167 0.958 . S
H1182 C1167 0.961 . S
H1183 C1167 0.960 . S
C1184 C1185 1.391 . S
C1184 C1186 1.394 . S
C1184 H1200 0.931 . S
C1185 C1184 1.391 . S
C1185 C1189 1.376 . S
C1186 C1184 1.394 . S
C1186 C1187 1.369 . S
C1186 C1190 1.531 . S
C1187 C1186 1.369 . S
C1187 C1188 1.410 . S
C1187 C1195 1.503 1_554 S
C1188 C1187 1.410 . S
C1188 C1189 1.392 . S
C1188 C1191 1.511 1_554 S
C1189 C1185 1.376 . S
C1189 C1188 1.392 . S
C1189 H1201 0.929 . S
C1190 C1186 1.531 . S
C1190 H1202 0.960 . S
C1190 H1203 0.962 . S
C1190 H1204 0.960 . S
C1191 C1188 1.511 1_556 S
C1191 H1205 0.961 . S
C1191 H1206 0.961 . S
C1191 H1207 0.961 . S
C1192 C1193 1.370 . S
C1192 C1194 1.363 . S
C1192 H1208 0.931 . S
C1193 C1192 1.370 . S
C1193 C1197 1.408 . S
C1194 C1192 1.363 . S
C1194 C1195 1.370 . S
C1194 C1198 1.524 . S
C1195 C1187 1.503 1_556 S
C1195 C1194 1.370 . S
C1195 C1196 1.403 . S
C1196 C1195 1.403 . S
C1196 C1197 1.404 . S
C1196 C1199 1.539 1_556 S
C1197 C1193 1.408 . S
C1197 C1196 1.404 . S
C1197 H1209 0.930 . S
C1198 C1194 1.524 . S
C1198 H1210 0.956 . S
C1198 H1211 0.961 . S
C1198 H1212 0.961 . S
C1199 C1196 1.539 1_554 S
C1199 H1213 0.958 . S
C1199 H1214 0.961 . S
C1199 H1215 0.960 . S
H1200 C1184 0.931 . S
H1201 C1189 0.929 . S
H1202 C1190 0.960 . S
H1203 C1190 0.962 . S
H1204 C1190 0.960 . S
H1205 C1191 0.961 . S
H1206 C1191 0.961 . S
H1207 C1191 0.961 . S
H1208 C1192 0.931 . S
H1209 C1197 0.930 . S
H1210 C1198 0.956 . S
H1211 C1198 0.961 . S
H1212 C1198 0.961 . S
H1213 C1199 0.958 . S
H1214 C1199 0.961 . S
H1215 C1199 0.960 . S
C1216 C1217 1.391 . S
C1216 C1218 1.394 . S
C1216 H1232 0.931 . S
C1217 C1216 1.391 . S
C1217 C1221 1.376 . S
C1218 C1216 1.394 . S
C1218 C1219 1.369 . S
C1218 C1222 1.531 . S
C1219 C1218 1.369 . S
C1219 C1220 1.410 . S
C1219 C1227 1.503 1_455 S
C1220 C1219 1.410 . S
C1220 C1221 1.392 . S
C1220 C1223 1.511 . S
C1221 C1217 1.376 . S
C1221 C1220 1.392 . S
C1221 H1233 0.929 . S
C1222 C1218 1.531 . S
C1222 H1234 0.960 . S
C1222 H1235 0.962 1_455 S
C1222 H1236 0.960 . S
C1223 C1220 1.511 . S
C1223 H1237 0.961 . S
C1223 H1238 0.961 . S
C1223 H1239 0.961 . S
C1224 C1225 1.370 . S
C1224 C1226 1.363 . S
C1224 H1240 0.931 . S
C1225 C1224 1.370 . S
C1225 C1229 1.408 . S
C1226 C1224 1.363 . S
C1226 C1227 1.370 . S
C1226 C1230 1.524 . S
C1227 C1219 1.503 1_655 S
C1227 C1226 1.370 . S
C1227 C1228 1.403 . S
C1228 C1227 1.403 . S
C1228 C1229 1.404 . S
C1228 C1231 1.539 1_655 S
C1229 C1225 1.408 . S
C1229 C1228 1.404 . S
C1229 H1241 0.930 . S
C1230 C1226 1.524 . S
C1230 H1242 0.956 . S
C1230 H1243 0.961 . S
C1230 H1244 0.961 . S
C1231 C1228 1.539 1_455 S
C1231 H1245 0.958 . S
C1231 H1246 0.961 . S
C1231 H1247 0.960 . S
H1232 C1216 0.931 . S
H1233 C1221 0.929 . S
H1234 C1222 0.960 . S
H1235 C1222 0.962 1_655 S
H1236 C1222 0.960 . S
H1237 C1223 0.961 . S
H1238 C1223 0.961 . S
H1239 C1223 0.961 . S
H1240 C1224 0.931 . S
H1241 C1229 0.930 . S
H1242 C1230 0.956 . S
H1243 C1230 0.961 . S
H1244 C1230 0.961 . S
H1245 C1231 0.958 . S
H1246 C1231 0.961 . S
H1247 C1231 0.960 . S
C1248 C1249 1.391 . S
C1248 C1250 1.394 . S
C1248 H1264 0.931 . S
C1249 C1248 1.391 . S
C1249 C1253 1.376 . S
C1250 C1248 1.394 . S
C1250 C1251 1.369 . S
C1250 C1254 1.531 . S
C1251 C1250 1.369 . S
C1251 C1252 1.410 . S
C1251 C1259 1.503 . S
C1252 C1251 1.410 . S
C1252 C1253 1.392 . S
C1252 C1255 1.511 . S
C1253 C1249 1.376 . S
C1253 C1252 1.392 . S
C1253 H1265 0.929 . S
C1254 C1250 1.531 . S
C1254 H1266 0.960 . S
C1254 H1267 0.962 . S
C1254 H1268 0.960 . S
C1255 C1252 1.511 . S
C1255 H1269 0.961 . S
C1255 H1270 0.961 . S
C1255 H1271 0.961 . S
C1256 C1257 1.370 . S
C1256 C1258 1.363 . S
C1256 H1272 0.931 . S
C1257 C1256 1.370 . S
C1257 C1261 1.408 . S
C1258 C1256 1.363 . S
C1258 C1259 1.370 . S
C1258 C1262 1.524 . S
C1259 C1251 1.503 . S
C1259 C1258 1.370 . S
C1259 C1260 1.403 . S
C1260 C1259 1.403 . S
C1260 C1261 1.404 . S
C1260 C1263 1.539 . S
C1261 C1257 1.408 . S
C1261 C1260 1.404 . S
C1261 H1273 0.930 . S
C1262 C1258 1.524 . S
C1262 H1274 0.956 . S
C1262 H1275 0.961 . S
C1262 H1276 0.961 . S
C1263 C1260 1.539 . S
C1263 H1277 0.958 . S
C1263 H1278 0.961 . S
C1263 H1279 0.960 . S
H1264 C1248 0.931 . S
H1265 C1253 0.929 . S
H1266 C1254 0.960 . S
H1267 C1254 0.962 . S
H1268 C1254 0.960 . S
H1269 C1255 0.961 . S
H1270 C1255 0.961 . S
H1271 C1255 0.961 . S
H1272 C1256 0.931 . S
H1273 C1261 0.930 . S
H1274 C1262 0.956 . S
H1275 C1262 0.961 . S
H1276 C1262 0.961 . S
H1277 C1263 0.958 . S
H1278 C1263 0.961 . S
H1279 C1263 0.960 . S
C1280 C1281 1.391 . S
C1280 C1282 1.394 . S
C1280 H1296 0.931 . S
C1281 C1280 1.391 . S
C1281 C1285 1.376 . S
C1282 C1280 1.394 . S
C1282 C1283 1.369 . S
C1282 C1286 1.531 . S
C1283 C1282 1.369 . S
C1283 C1284 1.410 . S
C1283 C1291 1.503 . S
C1284 C1283 1.410 . S
C1284 C1285 1.392 . S
C1284 C1287 1.511 . S
C1285 C1281 1.376 . S
C1285 C1284 1.392 . S
C1285 H1297 0.929 . S
C1286 C1282 1.531 . S
C1286 H1298 0.960 . S
C1286 H1299 0.962 . S
C1286 H1300 0.960 . S
C1287 C1284 1.511 . S
C1287 H1301 0.961 . S
C1287 H1302 0.961 . S
C1287 H1303 0.961 . S
C1288 C1289 1.370 . S
C1288 C1290 1.363 . S
C1288 H1304 0.931 . S
C1289 C1288 1.370 . S
C1289 C1293 1.408 . S
C1290 C1288 1.363 . S
C1290 C1291 1.370 . S
C1290 C1294 1.524 . S
C1291 C1283 1.503 . S
C1291 C1290 1.370 . S
C1291 C1292 1.403 . S
C1292 C1291 1.403 . S
C1292 C1293 1.404 . S
C1292 C1295 1.539 . S
C1293 C1289 1.408 . S
C1293 C1292 1.404 . S
C1293 H1305 0.930 . S
C1294 C1290 1.524 . S
C1294 H1306 0.956 . S
C1294 H1307 0.961 . S
C1294 H1308 0.961 . S
C1295 C1292 1.539 . S
C1295 H1309 0.958 . S
C1295 H1310 0.961 . S
C1295 H1311 0.960 . S
H1296 C1280 0.931 . S
H1297 C1285 0.929 . S
H1298 C1286 0.960 . S
H1299 C1286 0.962 . S
H1300 C1286 0.960 . S
H1301 C1287 0.961 . S
H1302 C1287 0.961 . S
H1303 C1287 0.961 . S
H1304 C1288 0.931 . S
H1305 C1293 0.930 . S
H1306 C1294 0.956 . S
H1307 C1294 0.961 . S
H1308 C1294 0.961 . S
H1309 C1295 0.958 . S
H1310 C1295 0.961 . S
H1311 C1295 0.960 . S
C1312 C1313 1.391 . S
C1312 C1314 1.394 . S
C1312 H1328 0.931 . S
C1313 C1312 1.391 . S
C1313 C1317 1.376 . S
C1314 C1312 1.394 . S
C1314 C1315 1.369 . S
C1314 C1318 1.531 . S
C1315 C1314 1.369 . S
C1315 C1316 1.410 . S
C1315 C1323 1.503 . S
C1316 C1315 1.410 . S
C1316 C1317 1.392 . S
C1316 C1319 1.511 . S
C1317 C1313 1.376 . S
C1317 C1316 1.392 . S
C1317 H1329 0.929 . S
C1318 C1314 1.531 . S
C1318 H1330 0.960 . S
C1318 H1331 0.962 . S
C1318 H1332 0.960 . S
C1319 C1316 1.511 . S
C1319 H1333 0.961 . S
C1319 H1334 0.961 . S
C1319 H1335 0.961 . S
C1320 C1321 1.370 . S
C1320 C1322 1.363 . S
C1320 H1336 0.931 . S
C1321 C1320 1.370 . S
C1321 C1325 1.408 . S
C1322 C1320 1.363 . S
C1322 C1323 1.370 . S
C1322 C1326 1.524 . S
C1323 C1315 1.503 . S
C1323 C1322 1.370 . S
C1323 C1324 1.403 . S
C1324 C1323 1.403 . S
C1324 C1325 1.404 . S
C1324 C1327 1.539 . S
C1325 C1321 1.408 . S
C1325 C1324 1.404 . S
C1325 H1337 0.930 . S
C1326 C1322 1.524 . S
C1326 H1338 0.956 . S
C1326 H1339 0.961 . S
C1326 H1340 0.961 . S
C1327 C1324 1.539 . S
C1327 H1341 0.958 . S
C1327 H1342 0.961 . S
C1327 H1343 0.960 . S
H1328 C1312 0.931 . S
H1329 C1317 0.929 . S
H1330 C1318 0.960 . S
H1331 C1318 0.962 . S
H1332 C1318 0.960 . S
H1333 C1319 0.961 . S
H1334 C1319 0.961 . S
H1335 C1319 0.961 . S
H1336 C1320 0.931 . S
H1337 C1325 0.930 . S
H1338 C1326 0.956 . S
H1339 C1326 0.961 . S
H1340 C1326 0.961 . S
H1341 C1327 0.958 . S
H1342 C1327 0.961 . S
H1343 C1327 0.960 . S
C1344 C1345 1.391 . S
C1344 C1346 1.394 . S
C1344 H1360 0.931 . S
C1345 C1344 1.391 . S
C1345 C1349 1.376 . S
C1346 C1344 1.394 . S
C1346 C1347 1.369 . S
C1346 C1350 1.531 . S
C1347 C1346 1.369 . S
C1347 C1348 1.410 . S
C1347 C1355 1.503 . S
C1348 C1347 1.410 . S
C1348 C1349 1.392 . S
C1348 C1351 1.511 . S
C1349 C1345 1.376 . S
C1349 C1348 1.392 . S
C1349 H1361 0.929 . S
C1350 C1346 1.531 . S
C1350 H1362 0.960 . S
C1350 H1363 0.962 . S
C1350 H1364 0.960 . S
C1351 C1348 1.511 . S
C1351 H1365 0.961 . S
C1351 H1366 0.961 . S
C1351 H1367 0.961 . S
C1352 C1353 1.370 . S
C1352 C1354 1.363 . S
C1352 H1368 0.931 . S
C1353 C1352 1.370 . S
C1353 C1357 1.408 . S
C1354 C1352 1.363 . S
C1354 C1355 1.370 . S
C1354 C1358 1.524 . S
C1355 C1347 1.503 . S
C1355 C1354 1.370 . S
C1355 C1356 1.403 . S
C1356 C1355 1.403 . S
C1356 C1357 1.404 . S
C1356 C1359 1.539 . S
C1357 C1353 1.408 . S
C1357 C1356 1.404 . S
C1357 H1369 0.930 . S
C1358 C1354 1.524 . S
C1358 H1370 0.956 . S
C1358 H1371 0.961 . S
C1358 H1372 0.961 . S
C1359 C1356 1.539 . S
C1359 H1373 0.958 . S
C1359 H1374 0.961 . S
C1359 H1375 0.960 . S
H1360 C1344 0.931 . S
H1361 C1349 0.929 . S
H1362 C1350 0.960 . S
H1363 C1350 0.962 . S
H1364 C1350 0.960 . S
H1365 C1351 0.961 . S
H1366 C1351 0.961 . S
H1367 C1351 0.961 . S
H1368 C1352 0.931 . S
H1369 C1357 0.930 . S
H1370 C1358 0.956 . S
H1371 C1358 0.961 . S
H1372 C1358 0.961 . S
H1373 C1359 0.958 . S
H1374 C1359 0.961 . S
H1375 C1359 0.960 . S
C1376 C1377 1.391 . S
C1376 C1378 1.394 . S
C1376 H1392 0.931 . S
C1377 C1376 1.391 . S
C1377 C1381 1.376 . S
C1378 C1376 1.394 . S
C1378 C1379 1.369 . S
C1378 C1382 1.531 . S
C1379 C1378 1.369 . S
C1379 C1380 1.410 . S
C1379 C1387 1.503 . S
C1380 C1379 1.410 . S
C1380 C1381 1.392 . S
C1380 C1383 1.511 . S
C1381 C1377 1.376 . S
C1381 C1380 1.392 . S
C1381 H1393 0.929 . S
C1382 C1378 1.531 . S
C1382 H1394 0.960 . S
C1382 H1395 0.962 . S
C1382 H1396 0.960 . S
C1383 C1380 1.511 . S
C1383 H1397 0.961 . S
C1383 H1398 0.961 . S
C1383 H1399 0.961 . S
C1384 C1385 1.370 . S
C1384 C1386 1.363 . S
C1384 H1400 0.931 . S
C1385 C1384 1.370 . S
C1385 C1389 1.408 . S
C1386 C1384 1.363 . S
C1386 C1387 1.370 . S
C1386 C1390 1.524 . S
C1387 C1379 1.503 . S
C1387 C1386 1.370 . S
C1387 C1388 1.403 . S
C1388 C1387 1.403 . S
C1388 C1389 1.404 . S
C1388 C1391 1.539 . S
C1389 C1385 1.408 . S
C1389 C1388 1.404 . S
C1389 H1401 0.930 . S
C1390 C1386 1.524 . S
C1390 H1402 0.956 . S
C1390 H1403 0.961 . S
C1390 H1404 0.961 . S
C1391 C1388 1.539 . S
C1391 H1405 0.958 . S
C1391 H1406 0.961 . S
C1391 H1407 0.960 . S
H1392 C1376 0.931 . S
H1393 C1381 0.929 . S
H1394 C1382 0.960 . S
H1395 C1382 0.962 . S
H1396 C1382 0.960 . S
H1397 C1383 0.961 . S
H1398 C1383 0.961 . S
H1399 C1383 0.961 . S
H1400 C1384 0.931 . S
H1401 C1389 0.930 . S
H1402 C1390 0.956 . S
H1403 C1390 0.961 . S
H1404 C1390 0.961 . S
H1405 C1391 0.958 . S
H1406 C1391 0.961 . S
H1407 C1391 0.960 . S
C1408 C1409 1.391 . S
C1408 C1410 1.394 . S
C1408 H1424 0.931 . S
C1409 C1408 1.391 . S
C1409 C1413 1.376 . S
C1410 C1408 1.394 . S
C1410 C1411 1.369 . S
C1410 C1414 1.531 . S
C1411 C1410 1.369 . S
C1411 C1412 1.410 . S
C1411 C1419 1.503 . S
C1412 C1411 1.410 . S
C1412 C1413 1.392 . S
C1412 C1415 1.511 . S
C1413 C1409 1.376 . S
C1413 C1412 1.392 . S
C1413 H1425 0.929 . S
C1414 C1410 1.531 . S
C1414 H1426 0.960 . S
C1414 H1427 0.962 . S
C1414 H1428 0.960 . S
C1415 C1412 1.511 . S
C1415 H1429 0.961 . S
C1415 H1430 0.961 . S
C1415 H1431 0.961 . S
C1416 C1417 1.370 . S
C1416 C1418 1.363 . S
C1416 H1432 0.931 . S
C1417 C1416 1.370 . S
C1417 C1421 1.408 . S
C1418 C1416 1.363 . S
C1418 C1419 1.370 . S
C1418 C1422 1.524 . S
C1419 C1411 1.503 . S
C1419 C1418 1.370 . S
C1419 C1420 1.403 . S
C1420 C1419 1.403 . S
C1420 C1421 1.404 . S
C1420 C1423 1.539 . S
C1421 C1417 1.408 . S
C1421 C1420 1.404 . S
C1421 H1433 0.930 . S
C1422 C1418 1.524 . S
C1422 H1434 0.956 . S
C1422 H1435 0.961 . S
C1422 H1436 0.961 . S
C1423 C1420 1.539 . S
C1423 H1437 0.958 . S
C1423 H1438 0.961 . S
C1423 H1439 0.960 . S
H1424 C1408 0.931 . S
H1425 C1413 0.929 . S
H1426 C1414 0.960 . S
H1427 C1414 0.962 . S
H1428 C1414 0.960 . S
H1429 C1415 0.961 . S
H1430 C1415 0.961 . S
H1431 C1415 0.961 . S
H1432 C1416 0.931 . S
H1433 C1421 0.930 . S
H1434 C1422 0.956 . S
H1435 C1422 0.961 . S
H1436 C1422 0.961 . S
H1437 C1423 0.958 . S
H1438 C1423 0.961 . S
H1439 C1423 0.960 . S
C1440 C1441 1.391 . S
C1440 C1442 1.394 . S
C1440 H1456 0.931 . S
C1441 C1440 1.391 . S
C1441 C1445 1.376 . S
C1442 C1440 1.394 . S
C1442 C1443 1.369 . S
C1442 C1446 1.531 . S
C1443 C1442 1.369 . S
C1443 C1444 1.410 . S
C1443 C1451 1.503 . S
C1444 C1443 1.410 . S
C1444 C1445 1.392 . S
C1444 C1447 1.511 . S
C1445 C1441 1.376 . S
C1445 C1444 1.392 . S
C1445 H1457 0.929 . S
C1446 C1442 1.531 . S
C1446 H1458 0.960 . S
C1446 H1459 0.962 . S
C1446 H1460 0.960 . S
C1447 C1444 1.511 . S
C1447 H1461 0.961 . S
C1447 H1462 0.961 . S
C1447 H1463 0.961 . S
C1448 C1449 1.370 . S
C1448 C1450 1.363 . S
C1448 H1464 0.931 . S
C1449 C1448 1.370 . S
C1449 C1453 1.408 . S
C1450 C1448 1.363 . S
C1450 C1451 1.370 . S
C1450 C1454 1.524 . S
C1451 C1443 1.503 . S
C1451 C1450 1.370 . S
C1451 C1452 1.403 . S
C1452 C1451 1.403 . S
C1452 C1453 1.404 . S
C1452 C1455 1.539 . S
C1453 C1449 1.408 . S
C1453 C1452 1.404 . S
C1453 H1465 0.930 . S
C1454 C1450 1.524 . S
C1454 H1466 0.956 . S
C1454 H1467 0.961 . S
C1454 H1468 0.961 . S
C1455 C1452 1.539 . S
C1455 H1469 0.958 . S
C1455 H1470 0.961 . S
C1455 H1471 0.960 . S
H1456 C1440 0.931 . S
H1457 C1445 0.929 . S
H1458 C1446 0.960 . S
H1459 C1446 0.962 . S
H1460 C1446 0.960 . S
H1461 C1447 0.961 . S
H1462 C1447 0.961 . S
H1463 C1447 0.961 . S
H1464 C1448 0.931 . S
H1465 C1453 0.930 . S
H1466 C1454 0.956 . S
H1467 C1454 0.961 . S
H1468 C1454 0.961 . S
H1469 C1455 0.958 . S
H1470 C1455 0.961 . S
H1471 C1455 0.960 . S
C1472 C1473 1.391 . S
C1472 C1474 1.394 . S
C1472 H1488 0.931 . S
C1473 C1472 1.391 . S
C1473 C1477 1.376 . S
C1474 C1472 1.394 . S
C1474 C1475 1.369 . S
C1474 C1478 1.531 . S
C1475 C1474 1.369 . S
C1475 C1476 1.410 . S
C1475 C1483 1.503 . S
C1476 C1475 1.410 . S
C1476 C1477 1.392 . S
C1476 C1479 1.511 . S
C1477 C1473 1.376 . S
C1477 C1476 1.392 . S
C1477 H1489 0.929 . S
C1478 C1474 1.531 . S
C1478 H1490 0.960 . S
C1478 H1491 0.962 . S
C1478 H1492 0.960 . S
C1479 C1476 1.511 . S
C1479 H1493 0.961 . S
C1479 H1494 0.961 . S
C1479 H1495 0.961 . S
C1480 C1481 1.370 . S
C1480 C1482 1.363 . S
C1480 H1496 0.931 . S
C1481 C1480 1.370 . S
C1481 C1485 1.408 . S
C1482 C1480 1.363 . S
C1482 C1483 1.370 . S
C1482 C1486 1.524 . S
C1483 C1475 1.503 . S
C1483 C1482 1.370 . S
C1483 C1484 1.403 . S
C1484 C1483 1.403 . S
C1484 C1485 1.404 . S
C1484 C1487 1.539 . S
C1485 C1481 1.408 . S
C1485 C1484 1.404 . S
C1485 H1497 0.930 . S
C1486 C1482 1.524 . S
C1486 H1498 0.956 . S
C1486 H1499 0.961 . S
C1486 H1500 0.961 . S
C1487 C1484 1.539 . S
C1487 H1501 0.958 . S
C1487 H1502 0.961 . S
C1487 H1503 0.960 . S
H1488 C1472 0.931 . S
H1489 C1477 0.929 . S
H1490 C1478 0.960 . S
H1491 C1478 0.962 . S
H1492 C1478 0.960 . S
H1493 C1479 0.961 . S
H1494 C1479 0.961 . S
H1495 C1479 0.961 . S
H1496 C1480 0.931 . S
H1497 C1485 0.930 . S
H1498 C1486 0.956 . S
H1499 C1486 0.961 . S
H1500 C1486 0.961 . S
H1501 C1487 0.958 . S
H1502 C1487 0.961 . S
H1503 C1487 0.960 . S
C1504 C1505 1.391 . S
C1504 C1506 1.394 . S
C1504 H1520 0.931 . S
C1505 C1504 1.391 . S
C1505 C1509 1.376 . S
C1506 C1504 1.394 . S
C1506 C1507 1.369 . S
C1506 C1510 1.531 . S
C1507 C1506 1.369 . S
C1507 C1508 1.410 . S
C1507 C1515 1.503 . S
C1508 C1507 1.410 . S
C1508 C1509 1.392 . S
C1508 C1511 1.511 . S
C1509 C1505 1.376 . S
C1509 C1508 1.392 . S
C1509 H1521 0.929 . S
C1510 C1506 1.531 . S
C1510 H1522 0.960 . S
C1510 H1523 0.962 . S
C1510 H1524 0.960 . S
C1511 C1508 1.511 . S
C1511 H1525 0.961 . S
C1511 H1526 0.961 . S
C1511 H1527 0.961 . S
C1512 C1513 1.370 . S
C1512 C1514 1.363 . S
C1512 H1528 0.931 . S
C1513 C1512 1.370 . S
C1513 C1517 1.408 . S
C1514 C1512 1.363 . S
C1514 C1515 1.370 . S
C1514 C1518 1.524 . S
C1515 C1507 1.503 . S
C1515 C1514 1.370 . S
C1515 C1516 1.403 . S
C1516 C1515 1.403 . S
C1516 C1517 1.404 . S
C1516 C1519 1.539 . S
C1517 C1513 1.408 . S
C1517 C1516 1.404 . S
C1517 H1529 0.930 . S
C1518 C1514 1.524 . S
C1518 H1530 0.956 . S
C1518 H1531 0.961 . S
C1518 H1532 0.961 . S
C1519 C1516 1.539 . S
C1519 H1533 0.958 . S
C1519 H1534 0.961 . S
C1519 H1535 0.960 . S
H1520 C1504 0.931 . S
H1521 C1509 0.929 . S
H1522 C1510 0.960 . S
H1523 C1510 0.962 . S
H1524 C1510 0.960 . S
H1525 C1511 0.961 . S
H1526 C1511 0.961 . S
H1527 C1511 0.961 . S
H1528 C1512 0.931 . S
H1529 C1517 0.930 . S
H1530 C1518 0.956 . S
H1531 C1518 0.961 . S
H1532 C1518 0.961 . S
H1533 C1519 0.958 . S
H1534 C1519 0.961 . S
H1535 C1519 0.960 . S
C1536 C1537 1.391 . S
C1536 C1538 1.394 . S
C1536 H1552 0.931 . S
C1537 C1536 1.391 . S
C1537 C1541 1.376 . S
C1538 C1536 1.394 . S
C1538 C1539 1.369 . S
C1538 C1542 1.531 . S
C1539 C1538 1.369 . S
C1539 C1540 1.410 . S
C1539 C1547 1.503 . S
C1540 C1539 1.410 . S
C1540 C1541 1.392 . S
C1540 C1543 1.511 . S
C1541 C1537 1.376 . S
C1541 C1540 1.392 . S
C1541 H1553 0.929 . S
C1542 C1538 1.531 . S
C1542 H1554 0.960 . S
C1542 H1555 0.962 . S
C1542 H1556 0.960 . S
C1543 C1540 1.511 . S
C1543 H1557 0.961 . S
C1543 H1558 0.961 . S
C1543 H1559 0.961 . S
C1544 C1545 1.370 . S
C1544 C1546 1.363 . S
C1544 H1560 0.931 . S
C1545 C1544 1.370 . S
C1545 C1549 1.408 . S
C1546 C1544 1.363 . S
C1546 C1547 1.370 . S
C1546 C1550 1.524 . S
C1547 C1539 1.503 . S
C1547 C1546 1.370 . S
C1547 C1548 1.403 . S
C1548 C1547 1.403 . S
C1548 C1549 1.404 . S
C1548 C1551 1.539 . S
C1549 C1545 1.408 . S
C1549 C1548 1.404 . S
C1549 H1561 0.930 . S
C1550 C1546 1.524 . S
C1550 H1562 0.956 . S
C1550 H1563 0.961 . S
C1550 H1564 0.961 . S
C1551 C1548 1.539 . S
C1551 H1565 0.958 . S
C1551 H1566 0.961 . S
C1551 H1567 0.960 . S
H1552 C1536 0.931 . S
H1553 C1541 0.929 . S
H1554 C1542 0.960 . S
H1555 C1542 0.962 . S
H1556 C1542 0.960 . S
H1557 C1543 0.961 . S
H1558 C1543 0.961 . S
H1559 C1543 0.961 . S
H1560 C1544 0.931 . S
H1561 C1549 0.930 . S
H1562 C1550 0.956 . S
H1563 C1550 0.961 . S
H1564 C1550 0.961 . S
H1565 C1551 0.958 . S
H1566 C1551 0.961 . S
H1567 C1551 0.960 . S
C1568 C1569 1.391 . S
C1568 C1570 1.394 . S
C1568 H1584 0.931 . S
C1569 C1568 1.391 . S
C1569 C1573 1.376 . S
C1570 C1568 1.394 . S
C1570 C1571 1.369 . S
C1570 C1574 1.531 . S
C1571 C1570 1.369 . S
C1571 C1572 1.410 . S
C1571 C1579 1.503 . S
C1572 C1571 1.410 . S
C1572 C1573 1.392 . S
C1572 C1575 1.511 . S
C1573 C1569 1.376 . S
C1573 C1572 1.392 . S
C1573 H1585 0.929 . S
C1574 C1570 1.531 . S
C1574 H1586 0.960 . S
C1574 H1587 0.962 . S
C1574 H1588 0.960 . S
C1575 C1572 1.511 . S
C1575 H1589 0.961 . S
C1575 H1590 0.961 . S
C1575 H1591 0.961 . S
C1576 C1577 1.370 . S
C1576 C1578 1.363 . S
C1576 H1592 0.931 . S
C1577 C1576 1.370 . S
C1577 C1581 1.408 . S
C1578 C1576 1.363 . S
C1578 C1579 1.370 . S
C1578 C1582 1.524 . S
C1579 C1571 1.503 . S
C1579 C1578 1.370 . S
C1579 C1580 1.403 . S
C1580 C1579 1.403 . S
C1580 C1581 1.404 . S
C1580 C1583 1.539 . S
C1581 C1577 1.408 . S
C1581 C1580 1.404 . S
C1581 H1593 0.930 . S
C1582 C1578 1.524 . S
C1582 H1594 0.956 . S
C1582 H1595 0.961 . S
C1582 H1596 0.961 . S
C1583 C1580 1.539 . S
C1583 H1597 0.958 . S
C1583 H1598 0.961 . S
C1583 H1599 0.960 . S
H1584 C1568 0.931 . S
H1585 C1573 0.929 . S
H1586 C1574 0.960 . S
H1587 C1574 0.962 . S
H1588 C1574 0.960 . S
H1589 C1575 0.961 . S
H1590 C1575 0.961 . S
H1591 C1575 0.961 . S
H1592 C1576 0.931 . S
H1593 C1581 0.930 . S
H1594 C1582 0.956 . S
H1595 C1582 0.961 . S
H1596 C1582 0.961 . S
H1597 C1583 0.958 . S
H1598 C1583 0.961 . S
H1599 C1583 0.960 . S
C1600 C1601 1.391 . S
C1600 C1602 1.394 . S
C1600 H1616 0.931 . S
C1601 C1600 1.391 . S
C1601 C1605 1.376 . S
C1602 C1600 1.394 . S
C1602 C1603 1.369 . S
C1602 C1606 1.531 . S
C1603 C1602 1.369 . S
C1603 C1604 1.410 . S
C1603 C1611 1.503 . S
C1604 C1603 1.410 . S
C1604 C1605 1.392 . S
C1604 C1607 1.511 . S
C1605 C1601 1.376 . S
C1605 C1604 1.392 . S
C1605 H1617 0.929 . S
C1606 C1602 1.531 . S
C1606 H1618 0.960 . S
C1606 H1619 0.962 . S
C1606 H1620 0.960 . S
C1607 C1604 1.511 . S
C1607 H1621 0.961 . S
C1607 H1622 0.961 . S
C1607 H1623 0.961 . S
C1608 C1609 1.370 . S
C1608 C1610 1.363 . S
C1608 H1624 0.931 . S
C1609 C1608 1.370 . S
C1609 C1613 1.408 . S
C1610 C1608 1.363 . S
C1610 C1611 1.370 . S
C1610 C1614 1.524 . S
C1611 C1603 1.503 . S
C1611 C1610 1.370 . S
C1611 C1612 1.403 . S
C1612 C1611 1.403 . S
C1612 C1613 1.404 . S
C1612 C1615 1.539 . S
C1613 C1609 1.408 . S
C1613 C1612 1.404 . S
C1613 H1625 0.930 . S
C1614 C1610 1.524 . S
C1614 H1626 0.956 . S
C1614 H1627 0.961 . S
C1614 H1628 0.961 . S
C1615 C1612 1.539 . S
C1615 H1629 0.958 . S
C1615 H1630 0.961 . S
C1615 H1631 0.960 . S
H1616 C1600 0.931 . S
H1617 C1605 0.929 . S
H1618 C1606 0.960 . S
H1619 C1606 0.962 . S
H1620 C1606 0.960 . S
H1621 C1607 0.961 . S
H1622 C1607 0.961 . S
H1623 C1607 0.961 . S
H1624 C1608 0.931 . S
H1625 C1613 0.930 . S
H1626 C1614 0.956 . S
H1627 C1614 0.961 . S
H1628 C1614 0.961 . S
H1629 C1615 0.958 . S
H1630 C1615 0.961 . S
H1631 C1615 0.960 . S
C481 C97 1.197 . S
C489 C24 1.211 . S
C513 C146 1.235 . S
C521 C53 1.193 . S
C545 C104 1.231 . S
C553 C177 1.198 . S
C577 C133 1.216 . S
C585 C226 1.200 . S
C609 C17 1.235 . S
C617 C184 1.193 . S
C641 C66 1.233 . S
C649 C213 1.193 . S
C673 C426 1.176 . S
C681 C253 1.219 . S
C705 C304 1.212 . S
C713 C457 1.203 . S
C737 C333 1.184 . S
C745 C266 1.217 . S
C769 C384 1.192 . S
C777 C297 1.210 . S
C801 C413 1.172 . S
C809 C346 1.220 . S
C833 C377 1.229 . S
C841 C464 1.197 . S
C865 C122 1.769 . S
C873 C23 1.755 . S
C897 C42 1.741 . S
C905 C183 1.747 . S
C929 C103 1.751 . S
C937 C202 1.751 . S
C961 C242 1.734 . S
C969 C383 1.744 . S
C993 C303 1.709 . S
C1001 C402 1.731 . S
C1025 C322 1.708 . S
C1033 C463 1.731 . S
C1057 C282 2.326 . S
C1065 C2 2.317 . S
C1089 C63 2.321 . S
C1097 C343 2.317 . S
C1121 C362 2.320 . S
C1129 C82 2.325 . S
C1153 C143 2.307 . S
C1161 C423 2.321 . S
C1185 C162 2.317 . S
C1193 C442 2.326 . S
C1217 C263 2.326 . S
C1225 C223 2.318 . S
C1249 C106 1.556 . S
C1257 C13 1.538 . S
C1281 C64 1.523 . S
C1289 C137 1.552 . S
C1313 C93 1.520 . S
C1321 C186 1.555 . S
C1345 C144 1.532 . S
C1353 C217 1.548 . S
C1377 C26 1.559 . S
C1385 C173 1.538 . S
C1409 C57 1.523 . S
C1417 C224 1.553 . S
C1441 C417 1.561 . S
C1449 C264 1.536 . S
C1473 C293 1.539 . S
C1481 C466 1.546 . S
C1505 C344 1.561 . S
C1513 C257 1.538 . S
C1537 C306 1.548 . S
C1545 C373 1.543 . S
C1569 C424 1.553 . S
C1577 C337 1.540 . S
C1601 C453 1.523 . S
C1609 C386 1.554 . S
