# Generated by pormake.
# Topology ske, (6)-cn, num edge types: 1
# Building blocks:
#     Node 0, Type 0, BuildingBlock: BETGAK_clean_sbu_0, # of connection points: 6
#     Node 1, Type 0, BuildingBlock: BETGAK_clean_sbu_0, # of connection points: 6
#     Node 2, Type 0, BuildingBlock: BETGAK_clean_sbu_0, # of connection points: 6
#     Node 3, Type 0, BuildingBlock: BETGAK_clean_sbu_0, # of connection points: 6
#     Node 4, Type 0, BuildingBlock: BETGAK_clean_sbu_0, # of connection points: 6
#     Node 5, Type 0, BuildingBlock: BETGAK_clean_sbu_0, # of connection points: 6
#     Node 6, Type 0, BuildingBlock: BETGAK_clean_sbu_0, # of connection points: 6
#     Node 7, Type 0, BuildingBlock: BETGAK_clean_sbu_0, # of connection points: 6
#     Edge 8, Type (0, 0), BuildingBlock: MIFKUJ_clean_linker_0, # of connection points: 2
#     Edge 9, Type (0, 0), BuildingBlock: MIFKUJ_clean_linker_0, # of connection points: 2
#     Edge 10, Type (0, 0), BuildingBlock: MIFKUJ_clean_linker_0, # of connection points: 2
#     Edge 11, Type (0, 0), BuildingBlock: MIFKUJ_clean_linker_0, # of connection points: 2
#     Edge 12, Type (0, 0), BuildingBlock: MIFKUJ_clean_linker_0, # of connection points: 2
#     Edge 13, Type (0, 0), BuildingBlock: MIFKUJ_clean_linker_0, # of connection points: 2
#     Edge 14, Type (0, 0), BuildingBlock: MIFKUJ_clean_linker_0, # of connection points: 2
#     Edge 15, Type (0, 0), BuildingBlock: MIFKUJ_clean_linker_0, # of connection points: 2
#     Edge 16, Type (0, 0), BuildingBlock: MIFKUJ_clean_linker_0, # of connection points: 2
#     Edge 17, Type (0, 0), BuildingBlock: MIFKUJ_clean_linker_0, # of connection points: 2
#     Edge 18, Type (0, 0), BuildingBlock: MIFKUJ_clean_linker_0, # of connection points: 2
#     Edge 19, Type (0, 0), BuildingBlock: MIFKUJ_clean_linker_0, # of connection points: 2
#     Edge 20, Type (0, 0), BuildingBlock: MIFKUJ_clean_linker_0, # of connection points: 2
#     Edge 21, Type (0, 0), BuildingBlock: MIFKUJ_clean_linker_0, # of connection points: 2
#     Edge 22, Type (0, 0), BuildingBlock: MIFKUJ_clean_linker_0, # of connection points: 2
#     Edge 23, Type (0, 0), BuildingBlock: MIFKUJ_clean_linker_0, # of connection points: 2
#     Edge 24, Type (0, 0), BuildingBlock: MIFKUJ_clean_linker_0, # of connection points: 2
#     Edge 25, Type (0, 0), BuildingBlock: MIFKUJ_clean_linker_0, # of connection points: 2
#     Edge 26, Type (0, 0), BuildingBlock: MIFKUJ_clean_linker_0, # of connection points: 2
#     Edge 27, Type (0, 0), BuildingBlock: MIFKUJ_clean_linker_0, # of connection points: 2
#     Edge 28, Type (0, 0), BuildingBlock: MIFKUJ_clean_linker_0, # of connection points: 2
#     Edge 29, Type (0, 0), BuildingBlock: MIFKUJ_clean_linker_0, # of connection points: 2
#     Edge 30, Type (0, 0), BuildingBlock: MIFKUJ_clean_linker_0, # of connection points: 2
#     Edge 31, Type (0, 0), BuildingBlock: MIFKUJ_clean_linker_0, # of connection points: 2
# Relax obj value: 0.197
# Max RMSD: 0.199
# Mean RMSD: 0.193
data_MOF--net-ske--node1-BETGAK_clean_sbu_0--edge1-MIFKUJ_clean_linker_0
_symmetry_space_group_name_H-M    P1
_symmetry_Int_Tables_number       1
_symmetry_cell_setting            triclinic
loop_
_symmetry_equiv_pos_as_xyz
'x, y, z'
_cell_length_a     120.54516
_cell_length_b     38.174355
_cell_length_c     20.023978
_cell_angle_alpha  89.588278
_cell_angle_beta   89.895117
_cell_angle_gamma 84.657923
loop_
_atom_site_label
_atom_site_type_symbol
_atom_site_fract_x
_atom_site_fract_y
_atom_site_fract_z
_atom_type_partial_charge
La0 La 0.15823 0.26257 0.55393 0.0
La1 La 0.13387 0.25636 0.56181 0.0
C2 C 0.17799 0.2802 0.56296 0.0
C3 C 0.18865 0.27414 0.60094 0.0
C4 C 0.19575 0.24296 0.5934 0.0
C5 C 0.20651 0.23977 0.62082 0.0
C6 C 0.21052 0.26766 0.65651 0.0
C7 C 0.20327 0.29837 0.66596 0.0
C8 C 0.19251 0.3016 0.6383 0.0
C9 C 0.15268 0.19711 0.54132 0.0
C10 C 0.14696 0.2534 0.69594 0.0
C11 C 0.11407 0.23863 0.55801 0.0
C12 C 0.10234 0.24655 0.53495 0.0
C13 C 0.09555 0.27569 0.55938 0.0
C14 C 0.08399 0.27888 0.54847 0.0
C15 C 0.07888 0.25299 0.51301 0.0
C16 C 0.08578 0.22473 0.48599 0.0
C17 C 0.09733 0.22152 0.49703 0.0
C18 C 0.1395 0.32252 0.56812 0.0
C19 C 0.14536 0.26323 0.41936 0.0
O20 O 0.17505 0.25462 0.52586 0.0
O21 O 0.16937 0.29728 0.59182 0.0
O22 O 0.1611 0.20965 0.51299 0.0
O23 O 0.1482 0.22005 0.58057 0.0
O24 O 0.15524 0.26574 0.66242 0.0
O25 O 0.13855 0.24133 0.66388 0.0
O26 O 0.11783 0.25917 0.60285 0.0
O27 O 0.12183 0.22736 0.51545 0.0
O28 O 0.13096 0.31098 0.59686 0.0
O29 O 0.1439 0.29812 0.53233 0.0
O30 O 0.13704 0.25123 0.45345 0.0
O31 O 0.15377 0.27588 0.4508 0.0
H32 H 0.19314 0.22128 0.56459 0.0
H33 H 0.21175 0.21551 0.61329 0.0
H34 H 0.20605 0.32057 0.69245 0.0
H35 H 0.18735 0.32618 0.64415 0.0
H36 H 0.09907 0.29531 0.58955 0.0
H37 H 0.07902 0.30086 0.57069 0.0
H38 H 0.08223 0.20457 0.45736 0.0
H39 H 0.10229 0.19857 0.47817 0.0
La40 La 0.87808 0.25865 0.55381 0.0
La41 La 0.90265 0.26338 0.55899 0.0
C42 C 0.85847 0.23991 0.56375 0.0
C43 C 0.84793 0.24388 0.60294 0.0
C44 C 0.84251 0.27706 0.61857 0.0
C45 C 0.83179 0.27997 0.64709 0.0
C46 C 0.82622 0.2498 0.66064 0.0
C47 C 0.83185 0.21663 0.64681 0.0
C48 C 0.84254 0.21377 0.61832 0.0
C49 C 0.88384 0.32415 0.54217 0.0
C50 C 0.88971 0.26627 0.69442 0.0
C51 C 0.92256 0.28013 0.55416 0.0
C52 C 0.93435 0.27137 0.5327 0.0
C53 C 0.94122 0.24443 0.56453 0.0
C54 C 0.95279 0.24105 0.55419 0.0
C55 C 0.95786 0.26457 0.51187 0.0
C56 C 0.9509 0.29048 0.47773 0.0
C57 C 0.93933 0.2939 0.48824 0.0
C58 C 0.89661 0.19754 0.56449 0.0
C59 C 0.89073 0.25983 0.4178 0.0
O60 O 0.86113 0.26702 0.52901 0.0
O61 O 0.86723 0.22241 0.5905 0.0
O62 O 0.87495 0.31278 0.51764 0.0
O63 O 0.88853 0.30017 0.57911 0.0
O64 O 0.88123 0.25484 0.66191 0.0
O65 O 0.8982 0.27767 0.66155 0.0
O66 O 0.9186 0.26082 0.60097 0.0
O67 O 0.91495 0.29066 0.51004 0.0
O68 O 0.90538 0.20808 0.59201 0.0
O69 O 0.89223 0.2228 0.53005 0.0
O70 O 0.89927 0.2704 0.45136 0.0
O71 O 0.88218 0.24783 0.44944 0.0
H72 H 0.84641 0.30084 0.60725 0.0
H73 H 0.82784 0.30594 0.65794 0.0
H74 H 0.82785 0.19278 0.65556 0.0
H75 H 0.84645 0.18789 0.60608 0.0
H76 H 0.93775 0.22683 0.59991 0.0
H77 H 0.9578 0.22098 0.58204 0.0
H78 H 0.95441 0.30871 0.44378 0.0
H79 H 0.93431 0.3152 0.46358 0.0
La80 La 0.13439 0.76053 0.49627 0.0
La81 La 0.15897 0.75921 0.50075 0.0
C82 C 0.11385 0.754 0.50807 0.0
C83 C 0.10165 0.75136 0.51574 0.0
C84 C 0.09462 0.78059 0.53727 0.0
C85 C 0.08305 0.7792 0.54111 0.0
C86 C 0.07814 0.74849 0.52357 0.0
C87 C 0.08521 0.71907 0.5027 0.0
C88 C 0.09681 0.7205 0.49884 0.0
C89 C 0.14224 0.82309 0.48118 0.0
C90 C 0.14663 0.7614 0.63577 0.0
C91 C 0.17918 0.7723 0.48945 0.0
C92 C 0.18977 0.76563 0.4508 0.0
C93 C 0.19841 0.7419 0.47598 0.0
C94 C 0.20902 0.73915 0.44664 0.0
C95 C 0.21138 0.76022 0.3913 0.0
C96 C 0.20263 0.78331 0.36492 0.0
C97 C 0.19199 0.78606 0.39437 0.0
C98 C 0.1516 0.69632 0.51796 0.0
C99 C 0.14662 0.75582 0.35893 0.0
O100 O 0.11844 0.78242 0.52428 0.0
O101 O 0.12095 0.72847 0.48664 0.0
O102 O 0.13393 0.81249 0.4486 0.0
O103 O 0.14579 0.79898 0.52127 0.0
O104 O 0.13828 0.74968 0.60232 0.0
O105 O 0.15504 0.77364 0.60352 0.0
O106 O 0.17584 0.74638 0.5249 0.0
O107 O 0.17079 0.79176 0.46278 0.0
O108 O 0.16043 0.70665 0.54521 0.0
O109 O 0.14765 0.72004 0.47788 0.0
O110 O 0.15592 0.75999 0.39216 0.0
O111 O 0.13712 0.75236 0.39018 0.0
H112 H 0.09803 0.80491 0.55023 0.0
H113 H 0.07794 0.80261 0.55638 0.0
H114 H 0.08179 0.6948 0.48956 0.0
H115 H 0.10197 0.69751 0.48199 0.0
H116 H 0.1971 0.72628 0.52019 0.0
H117 H 0.21552 0.72146 0.46927 0.0
H118 H 0.20403 0.79966 0.32187 0.0
H119 H 0.1856 0.80496 0.37401 0.0
La120 La 0.9022 0.76429 0.48201 0.0
La121 La 0.87784 0.75855 0.48979 0.0
C122 C 0.92197 0.78224 0.48553 0.0
C123 C 0.93371 0.77345 0.50699 0.0
C124 C 0.9395 0.74051 0.49377 0.0
C125 C 0.9511 0.73516 0.50275 0.0
C126 C 0.9572 0.76262 0.52499 0.0
C127 C 0.95127 0.79506 0.54083 0.0
C128 C 0.93969 0.80036 0.53185 0.0
C129 C 0.89666 0.69797 0.47671 0.0
C130 C 0.89068 0.75802 0.62434 0.0
C131 C 0.85803 0.74128 0.48171 0.0
C132 C 0.84748 0.74527 0.44253 0.0
C133 C 0.84119 0.77803 0.43484 0.0
C134 C 0.83046 0.78026 0.40686 0.0
C135 C 0.82569 0.74979 0.38612 0.0
C136 C 0.83218 0.71723 0.39178 0.0
C137 C 0.84289 0.71503 0.41971 0.0
C138 C 0.88365 0.82389 0.50261 0.0
C139 C 0.88907 0.76721 0.34782 0.0
O140 O 0.91809 0.76283 0.4392 0.0
O141 O 0.91436 0.79219 0.52993 0.0
O142 O 0.90535 0.70936 0.44945 0.0
O143 O 0.89209 0.72262 0.51143 0.0
O144 O 0.89895 0.77026 0.59011 0.0
O145 O 0.88229 0.74526 0.593 0.0
O146 O 0.8609 0.76859 0.51416 0.0
O147 O 0.86669 0.72274 0.45638 0.0
O148 O 0.8753 0.81145 0.53195 0.0
O149 O 0.88794 0.80083 0.46298 0.0
O150 O 0.8808 0.75488 0.38141 0.0
O151 O 0.89749 0.77925 0.37984 0.0
H152 H 0.93515 0.71923 0.47425 0.0
H153 H 0.95531 0.70963 0.49109 0.0
H154 H 0.95561 0.81702 0.55727 0.0
H155 H 0.93548 0.82617 0.54147 0.0
H156 H 0.8444 0.80188 0.45242 0.0
H157 H 0.82574 0.80577 0.40399 0.0
H158 H 0.82893 0.69324 0.37537 0.0
H159 H 0.84747 0.68939 0.42542 0.0
La160 La 0.65848 0.76559 0.05793 0.0
La161 La 0.63392 0.75793 0.0613 0.0
C162 C 0.67785 0.78599 0.06871 0.0
C163 C 0.68859 0.78053 0.10563 0.0
C164 C 0.69466 0.7473 0.11094 0.0
C165 C 0.70547 0.74389 0.138 0.0
C166 C 0.71051 0.77364 0.1601 0.0
C167 C 0.70422 0.80662 0.15675 0.0
C168 C 0.69344 0.80998 0.12982 0.0
C169 C 0.65342 0.69928 0.04911 0.0
C170 C 0.64653 0.75802 0.1978 0.0
C171 C 0.61442 0.73786 0.05509 0.0
C172 C 0.60255 0.74623 0.0355 0.0
C173 C 0.59595 0.77504 0.06264 0.0
C174 C 0.58433 0.77858 0.05371 0.0
C175 C 0.579 0.75334 1.01771 0.0
C176 C 0.58572 0.72542 0.98819 0.0
C177 C 0.59731 0.72191 0.99715 0.0
C178 C 0.63897 0.82488 0.06454 0.0
C179 C 0.64623 0.7622 0.92165 0.0
O180 O 0.67528 0.76112 0.0286 0.0
O181 O 0.6691 0.80052 0.10025 0.0
O182 O 0.66244 0.71092 0.02668 0.0
O183 O 0.64839 0.72323 0.08389 0.0
O184 O 0.65483 0.7707 0.1651 0.0
O185 O 0.63835 0.74495 0.16507 0.0
O186 O 0.6182 0.75515 0.10486 0.0
O187 O 0.62199 0.7312 1.00885 0.0
O188 O 0.63001 0.81343 0.08835 0.0
O189 O 0.64398 0.79986 0.0326 0.0
O190 O 0.63805 0.74911 0.95522 0.0
O191 O 0.65422 0.77686 0.95349 0.0
H192 H 0.6912 0.72405 0.09243 0.0
H193 H 0.71003 0.71809 0.13924 0.0
H194 H 0.70768 0.83005 0.17433 0.0
H195 H 0.68899 0.83593 0.12612 0.0
H196 H 0.59968 0.79413 0.09307 0.0
H197 H 0.5795 0.80029 0.07769 0.0
H198 H 0.58199 0.7058 0.95907 0.0
H199 H 0.60215 0.69926 0.97617 0.0
La200 La 0.37838 0.75713 0.05516 0.0
La201 La 0.40285 0.76348 0.05934 0.0
C202 C 0.35876 0.73843 0.06605 0.0
C203 C 0.34791 0.74533 0.10202 0.0
C204 C 0.33936 0.76887 0.07508 0.0
C205 C 0.32863 0.77182 0.10294 0.0
C206 C 0.32606 0.75114 0.15842 0.0
C207 C 0.3347 0.7282 0.18638 0.0
C208 C 0.34545 0.72526 0.15846 0.0
C209 C 0.38368 0.82323 0.04312 0.0
C210 C 0.39005 0.7649 0.19544 0.0
C211 C 0.42253 0.78221 0.05346 0.0
C212 C 0.4344 0.77325 0.03402 0.0
C213 C 0.44116 0.74659 0.06741 0.0
C214 C 0.45276 0.74307 0.05834 0.0
C215 C 0.45796 0.76617 1.01579 0.0
C216 C 0.45112 0.79179 0.98018 0.0
C217 C 0.43952 0.79534 0.98939 0.0
C218 C 0.39746 0.69674 0.06505 0.0
C219 C 0.3909 0.75854 0.91913 0.0
O220 O 0.36164 0.76251 0.02443 0.0
O221 O 0.36737 0.72349 0.09858 0.0
O222 O 0.37488 0.81117 1.01894 0.0
O223 O 0.38855 0.79952 0.0799 0.0
O224 O 0.38168 0.75277 0.16296 0.0
O225 O 0.3984 0.77704 0.16243 0.0
O226 O 0.41858 0.76472 0.10298 0.0
O227 O 0.41501 0.78998 1.00732 0.0
O228 O 0.40639 0.70791 0.08927 0.0
O229 O 0.39268 0.72186 0.03182 0.0
O230 O 0.39912 0.77129 0.95234 0.0
O231 O 0.38274 0.74474 0.95151 0.0
H232 H 0.34085 0.78426 0.03085 0.0
H233 H 0.32223 0.78939 0.07918 0.0
H234 H 0.33313 0.71216 0.22957 0.0
H235 H 0.35175 0.7065 0.18009 0.0
H236 H 0.43755 0.72932 0.10288 0.0
H237 H 0.45768 0.72323 0.08724 0.0
H238 H 0.45474 0.80968 0.94601 0.0
H239 H 0.43459 0.81638 0.9635 0.0
La240 La 0.63436 0.26206 0.99325 0.0
La241 La 0.65896 0.26296 0.99579 0.0
C242 C 0.61391 0.25449 1.00641 0.0
C243 C 0.60174 0.25171 1.01486 0.0
C244 C 0.59466 0.28142 0.03339 0.0
C245 C 0.5831 0.27998 0.03745 0.0
C246 C 0.57823 0.24869 0.02351 0.0
C247 C 0.58537 0.21877 1.00574 0.0
C248 C 0.59696 0.2203 1.00129 0.0
C249 C 0.6416 0.32573 0.98026 0.0
C250 C 0.64683 0.26152 0.13101 0.0
C251 C 0.67873 0.27996 0.98382 0.0
C252 C 0.68925 0.2756 0.94452 0.0
C253 C 0.69473 0.24231 0.93036 0.0
C254 C 0.70543 0.23924 0.90163 0.0
C255 C 0.71094 0.26935 0.88651 0.0
C256 C 0.70525 0.30261 0.89895 0.0
C257 C 0.69458 0.30563 0.92755 0.0
C258 C 0.65239 0.19875 1.01061 0.0
C259 C 0.64638 0.2597 0.85479 0.0
O260 O 0.61862 0.28157 0.02873 0.0
O261 O 0.62087 0.23055 0.97836 0.0
O262 O 0.6332 0.31495 0.94891 0.0
O263 O 0.64548 0.30128 1.01865 0.0
O264 O 0.63882 0.2481 0.09732 0.0
O265 O 0.6548 0.2763 0.09909 0.0
O266 O 0.67595 0.25313 1.01906 0.0
O267 O 0.67003 0.29791 0.95717 0.0
O268 O 0.66132 0.20956 0.03603 0.0
O269 O 0.64793 0.22285 0.97282 0.0
O270 O 0.65579 0.26287 0.88748 0.0
O271 O 0.63685 0.25673 0.88619 0.0
H272 H 0.59802 0.30619 0.04345 0.0
H273 H 0.57797 0.30382 0.05 0.0
H274 H 0.58202 0.19403 0.99548 0.0
H275 H 0.60218 0.19694 0.9868 0.0
H276 H 0.69087 0.2186 0.94296 0.0
H277 H 0.70941 0.21318 0.89186 0.0
H278 H 0.7092 0.32645 0.88902 0.0
H279 H 0.69063 0.33162 0.93864 0.0
La280 La 0.40241 0.26352 0.97923 0.0
La281 La 0.3779 0.25801 0.98492 0.0
C282 C 0.4221 0.28194 0.98329 0.0
C283 C 0.43381 0.27402 1.00592 0.0
C284 C 0.43952 0.24038 0.99926 0.0
C285 C 0.45111 0.23526 1.00884 0.0
C286 C 0.45728 0.26367 0.02503 0.0
C287 C 0.45142 0.29697 0.03435 0.0
C288 C 0.43985 0.30202 0.02491 0.0
C289 C 0.39681 0.19719 0.97502 0.0
C290 C 0.39058 0.25827 0.12061 0.0
C291 C 0.35819 0.24007 0.97522 0.0
C292 C 0.34749 0.24634 0.93775 0.0
C293 C 0.34037 0.27739 0.94621 0.0
C294 C 0.32959 0.28068 0.91895 0.0
C295 C 0.3256 0.25302 0.88254 0.0
C296 C 0.33287 0.22244 0.87227 0.0
C297 C 0.34363 0.21911 0.89973 0.0
C298 C 0.38357 0.32373 0.99492 0.0
C299 C 0.38952 0.26538 0.84372 0.0
O300 O 0.41842 0.26145 0.93808 0.0
O301 O 0.41436 0.29248 0.0265 0.0
O302 O 0.40565 0.20826 0.94895 0.0
O303 O 0.39211 0.22219 1.00848 0.0
O304 O 0.399 0.26982 0.08686 0.0
O305 O 0.38217 0.24577 0.08896 0.0
O306 O 0.3611 0.26515 1.01373 0.0
O307 O 0.36682 0.2237 0.94518 0.0
O308 O 0.3748 0.31206 1.02085 0.0
O309 O 0.38819 0.29984 0.95817 0.0
O310 O 0.38109 0.25384 0.87694 0.0
O311 O 0.39798 0.27709 0.87595 0.0
H312 H 0.4351 0.21827 0.98434 0.0
H313 H 0.45525 0.2091 1.00236 0.0
H314 H 0.45581 0.31964 0.04594 0.0
H315 H 0.4357 0.32832 0.0294 0.0
H316 H 0.34298 0.29888 0.97554 0.0
H317 H 0.32434 0.30485 0.92713 0.0
H318 H 0.3301 0.20039 0.84525 0.0
H319 H 0.34882 0.19463 0.89317 0.0
H320 H 0.21847 0.29121 0.77555 0.0
H321 H 0.2378 0.28876 0.81366 0.0
H322 H 0.24876 0.23672 0.63152 0.0
H323 H 0.22946 0.2389 0.59334 0.0
H324 H 0.25991 0.20652 0.73223 0.0
H325 H 0.25146 0.3263 0.6606 0.0
H326 H 0.24078 0.38462 0.65755 0.0
H327 H 0.24688 0.39767 0.8667 0.0
H328 H 0.25748 0.3392 0.87119 0.0
H329 H 0.31764 0.22991 0.76315 0.0
H330 H 0.29831 0.23232 0.72514 0.0
H331 H 0.28734 0.2837 0.90791 0.0
H332 H 0.30664 0.28147 0.9461 0.0
H333 H 0.2762 0.31422 0.8069 0.0
H334 H 0.28469 0.19435 0.87827 0.0
H335 H 0.2954 0.13607 0.88098 0.0
H336 H 0.28925 0.12326 0.67182 0.0
H337 H 0.27863 0.18169 0.66766 0.0
C338 C 0.22498 0.27939 0.74336 0.0
C339 C 0.22233 0.26532 0.68117 0.0
C340 C 0.23608 0.27803 0.76525 0.0
C341 C 0.24486 0.26299 0.72522 0.0
C342 C 0.2422 0.24844 0.6636 0.0
C343 C 0.23111 0.24961 0.64185 0.0
C344 C 0.25677 0.26237 0.7473 0.0
C345 C 0.26349 0.23021 0.74769 0.0
C346 C 0.26149 0.29301 0.76901 0.0
C347 C 0.25517 0.32824 0.76636 0.0
C348 C 0.25046 0.34151 0.70604 0.0
C349 C 0.24443 0.3746 0.70403 0.0
C350 C 0.24313 0.3948 0.76193 0.0
C351 C 0.24788 0.38198 0.82191 0.0
C352 C 0.25391 0.34888 0.82421 0.0
C353 C 0.31113 0.24156 0.79551 0.0
C354 C 0.31378 0.25542 0.8579 0.0
C355 C 0.30003 0.24292 0.77367 0.0
C356 C 0.29125 0.25777 0.8139 0.0
C357 C 0.2939 0.27212 0.87569 0.0
C358 C 0.30499 0.27093 0.89743 0.0
C359 C 0.27934 0.25839 0.79183 0.0
C360 C 0.27262 0.29054 0.79144 0.0
C361 C 0.27462 0.22775 0.77007 0.0
C362 C 0.28096 0.19254 0.77253 0.0
C363 C 0.28569 0.17921 0.83275 0.0
C364 C 0.29173 0.14613 0.83456 0.0
C365 C 0.29303 0.12601 0.77657 0.0
C366 C 0.28825 0.13889 0.71668 0.0
C367 C 0.28221 0.17197 0.71457 0.0
H368 H 0.29771 0.10041 0.77808 0.0
H369 H 0.23846 0.42041 0.76027 0.0
H370 H 0.72044 0.31156 0.79413 0.0
H371 H 0.73981 0.30838 0.75696 0.0
H372 H 0.74759 0.21657 0.88083 0.0
H373 H 0.72833 0.22045 0.92047 0.0
H374 H 0.76342 0.25915 0.89324 0.0
H375 H 0.74504 0.21211 0.70649 0.0
H376 H 0.73098 0.2115 0.6173 0.0
H377 H 0.74249 0.3048 0.53068 0.0
H378 H 0.75653 0.30623 0.6199 0.0
H379 H 0.81667 0.20704 0.75173 0.0
H380 H 0.79729 0.21018 0.78884 0.0
H381 H 0.78959 0.30273 0.66682 0.0
H382 H 0.80888 0.299 0.6275 0.0
H383 H 0.77373 0.25975 0.65338 0.0
H384 H 0.79212 0.30669 0.8403 0.0
H385 H 0.80618 0.30716 0.92948 0.0
H386 H 0.79466 0.2138 1.01572 0.0
H387 H 0.78062 0.2125 0.92651 0.0
C388 C 0.72625 0.29075 0.81389 0.0
C389 C 0.7227 0.26625 0.86047 0.0
C390 C 0.73736 0.28873 0.79191 0.0
C391 C 0.74524 0.26197 0.8153 0.0
C392 C 0.74173 0.23744 0.86168 0.0
C393 C 0.73063 0.23948 0.88382 0.0
C394 C 0.75715 0.25995 0.79255 0.0
C395 C 0.76566 0.25877 0.84074 0.0
C396 C 0.76018 0.26031 0.72406 0.0
C397 C 0.75176 0.25946 0.67026 0.0
C398 C 0.74452 0.23264 0.66871 0.0
C399 C 0.73656 0.23213 0.6181 0.0
C400 C 0.73582 0.25815 0.56846 0.0
C401 C 0.74306 0.28469 0.56922 0.0
C402 C 0.75102 0.28535 0.61976 0.0
C403 C 0.81087 0.22802 0.73241 0.0
C404 C 0.81445 0.25279 0.68649 0.0
C405 C 0.79976 0.22999 0.75431 0.0
C406 C 0.79191 0.25694 0.73137 0.0
C407 C 0.79544 0.28171 0.68559 0.0
C408 C 0.80655 0.27975 0.66363 0.0
C409 C 0.77999 0.25894 0.75407 0.0
C410 C 0.77149 0.26012 0.70588 0.0
C411 C 0.77697 0.25855 0.82256 0.0
C412 C 0.78539 0.25931 0.87634 0.0
C413 C 0.79264 0.28611 0.87799 0.0
C414 C 0.8006 0.28655 0.9286 0.0
C415 C 0.80134 0.26047 0.97813 0.0
C416 C 0.79409 0.23395 0.97726 0.0
C417 C 0.78613 0.23337 0.92673 0.0
H418 H 0.8075 0.26086 1.01727 0.0
H419 H 0.72966 0.25771 0.52932 0.0
H420 H 0.31063 0.80881 0.17096 0.0
H421 H 0.29131 0.81035 0.20894 0.0
H422 H 0.29555 0.69849 0.24569 0.0
H423 H 0.31475 0.6965 0.20537 0.0
H424 H 0.27625 0.7152 0.18559 0.0
H425 H 0.29468 0.75997 0.37456 0.0
H426 H 0.30643 0.79913 0.43395 0.0
H427 H 0.28415 0.88877 0.37762 0.0
H428 H 0.27234 0.85017 0.31711 0.0
H429 H 0.22683 0.70278 0.3764 0.0
H430 H 0.24607 0.70168 0.33748 0.0
H431 H 0.24162 0.81366 0.30241 0.0
H432 H 0.2225 0.81523 0.34388 0.0
H433 H 0.261 0.79718 0.36115 0.0
H434 H 0.24252 0.75242 0.17254 0.0
H435 H 0.23077 0.71329 0.11316 0.0
H436 H 0.25312 0.62367 0.16864 0.0
H437 H 0.26494 0.66224 0.22913 0.0
C438 C 0.30747 0.78444 0.18677 0.0
C439 C 0.31436 0.75253 0.18503 0.0
C440 C 0.2964 0.78543 0.20922 0.0
C441 C 0.29192 0.7546 0.23107 0.0
C442 C 0.29877 0.72271 0.22939 0.0
C443 C 0.30983 0.72169 0.2069 0.0
C444 C 0.28006 0.75543 0.25447 0.0
C445 C 0.27298 0.73281 0.22466 0.0
C446 C 0.27561 0.77896 0.30432 0.0
C447 C 0.28269 0.80221 0.34075 0.0
C448 C 0.29233 0.78806 0.3744 0.0
C449 C 0.299 0.81015 0.40834 0.0
C450 C 0.29606 0.84643 0.4094 0.0
C451 C 0.28643 0.86067 0.37667 0.0
C452 C 0.27974 0.8387 0.3426 0.0
C453 C 0.22992 0.72728 0.36074 0.0
C454 C 0.22299 0.7591 0.36342 0.0
C455 C 0.24094 0.72654 0.33773 0.0
C456 C 0.24536 0.75753 0.31609 0.0
C457 C 0.23847 0.78932 0.31852 0.0
C458 C 0.22744 0.7901 0.34166 0.0
C459 C 0.25719 0.75693 0.29231 0.0
C460 C 0.26427 0.77958 0.32205 0.0
C461 C 0.26163 0.73344 0.24238 0.0
C462 C 0.25456 0.71019 0.20591 0.0
C463 C 0.24489 0.72434 0.17251 0.0
C464 C 0.23822 0.70227 0.13857 0.0
C465 C 0.24118 0.66601 0.13727 0.0
C466 C 0.25083 0.65176 0.16976 0.0
C467 C 0.25752 0.67372 0.20383 0.0
H468 H 0.23601 0.64896 0.11097 0.0
H469 H 0.30122 0.86348 0.43572 0.0
H470 H 0.72153 0.72133 0.23763 0.0
H471 H 0.74095 0.71648 0.27482 0.0
H472 H 0.74581 0.81445 0.17546 0.0
H473 H 0.72655 0.8189 0.13635 0.0
H474 H 0.76318 0.768 0.15275 0.0
H475 H 0.74265 0.80852 0.34754 0.0
H476 H 0.7283 0.80684 0.43513 0.0
H477 H 0.74313 0.70604 0.50175 0.0
H478 H 0.75749 0.7069 0.41391 0.0
H479 H 0.8145 0.8006 0.30608 0.0
H480 H 0.79513 0.80413 0.26854 0.0
H481 H 0.7907 0.70665 0.37085 0.0
H482 H 0.80992 0.70357 0.41052 0.0
H483 H 0.77312 0.75203 0.39198 0.0
H484 H 0.79369 0.71142 0.19822 0.0
H485 H 0.808 0.71257 0.11027 0.0
H486 H 0.79308 0.81283 0.04138 0.0
H487 H 0.77876 0.8125 0.12955 0.0
C488 C 0.72673 0.74176 0.22326 0.0
C489 C 0.72236 0.77064 0.18417 0.0
C490 C 0.73785 0.73912 0.24516 0.0
C491 C 0.74489 0.76531 0.22878 0.0
C492 C 0.74059 0.79392 0.18916 0.0
C493 C 0.72949 0.7966 0.16734 0.0
C494 C 0.75675 0.76293 0.25239 0.0
C495 C 0.76532 0.76497 0.2052 0.0
C496 C 0.75966 0.75811 0.32064 0.0
C497 C 0.75108 0.75762 0.37371 0.0
C498 C 0.7428 0.78588 0.38055 0.0
C499 C 0.73468 0.78509 0.43029 0.0
C500 C 0.73479 0.7563 0.47385 0.0
C501 C 0.74305 0.72829 0.4679 0.0
C502 C 0.75119 0.72893 0.41818 0.0
C503 C 0.80941 0.77998 0.32102 0.0
C504 C 0.81389 0.75169 0.36122 0.0
C505 C 0.79832 0.78186 0.29889 0.0
C506 C 0.7914 0.75544 0.31601 0.0
C507 C 0.79582 0.72735 0.35656 0.0
C508 C 0.8069 0.72544 0.3787 0.0
C509 C 0.77955 0.75719 0.29235 0.0
C510 C 0.77098 0.75503 0.33952 0.0
C511 C 0.77664 0.76184 0.22406 0.0
C512 C 0.78522 0.76209 0.17092 0.0
C513 C 0.79351 0.73384 0.16465 0.0
C514 C 0.80161 0.73432 0.1147 0.0
C515 C 0.80147 0.7628 0.07038 0.0
C516 C 0.79319 0.79081 0.07581 0.0
C517 C 0.78508 0.79048 0.12573 0.0
H518 H 0.80775 0.76312 0.03174 0.0
H519 H 0.72848 0.75574 0.51232 0.0
H520 H 0.15519 0.85367 0.5731 0.0
H521 H 0.15663 0.91671 0.59041 0.0
H522 H 0.13486 0.94119 0.42242 0.0
H523 H 0.13323 0.87845 0.40602 0.0
H524 H 0.16413 0.96797 0.52291 0.0
H525 H 0.11888 0.01775 0.44523 0.0
H526 H 0.10012 0.99687 0.44743 0.0
H527 H 0.10982 0.92727 0.61078 0.0
H528 H 0.12858 0.94808 0.61021 0.0
H529 H 0.16163 0.1488 0.45355 0.0
H530 H 0.15957 0.08594 0.44964 0.0
H531 H 0.13745 0.09579 0.61939 0.0
H532 H 0.13928 0.15955 0.62223 0.0
H533 H 0.13001 0.05113 0.53442 0.0
H534 H 0.16529 0.06116 0.6343 0.0
H535 H 0.18403 0.08136 0.64578 0.0
H536 H 0.19423 0.02983 0.46284 0.0
H537 H 0.1755 0.00972 0.44976 0.0
C538 C 0.15076 0.87252 0.53969 0.0
C539 C 0.14403 0.861 0.48846 0.0
C540 C 0.15158 0.90863 0.54962 0.0
C541 C 0.14568 0.93409 0.50864 0.0
C542 C 0.13929 0.9224 0.45594 0.0
C543 C 0.13842 0.88639 0.44623 0.0
C544 C 0.1462 0.97273 0.52068 0.0
C545 C 0.15665 0.98606 0.52539 0.0
C546 C 0.13648 0.99662 0.52595 0.0
C547 C 0.12517 0.98425 0.5272 0.0
C548 C 0.117 0.9981 0.4818 0.0
C549 C 0.10636 0.98626 0.48273 0.0
C550 C 0.10379 0.96068 0.52907 0.0
C551 C 0.11183 0.94699 0.57475 0.0
C552 C 0.12247 0.95877 0.57409 0.0
C553 C 0.15629 0.13768 0.49007 0.0
C554 C 0.1507 0.15919 0.53863 0.0
C555 C 0.15517 0.10154 0.48801 0.0
C556 C 0.14856 0.08559 0.53516 0.0
C557 C 0.14267 0.10722 0.58265 0.0
C558 C 0.14372 0.14368 0.58437 0.0
C559 C 0.14794 0.04644 0.53441 0.0
C560 C 0.13748 0.03302 0.53198 0.0
C561 C 0.15765 0.02233 0.53295 0.0
C562 C 0.16896 0.03416 0.54081 0.0
C563 C 0.17151 0.05432 0.5963 0.0
C564 C 0.18213 0.06573 0.60312 0.0
C565 C 0.19031 0.05694 0.555 0.0
C566 C 0.18789 0.03664 0.50005 0.0
C567 C 0.17727 0.02519 0.49294 0.0
H568 H 0.19853 0.06581 0.56036 0.0
H569 H 0.09556 0.95153 0.52967 0.0
H570 H 0.86789 0.3792 0.54324 0.0
H571 H 0.87014 0.44192 0.53866 0.0
H572 H 0.90588 0.41885 0.53562 0.0
H573 H 0.90355 0.35563 0.54566 0.0
H574 H 0.90223 0.47496 0.59964 0.0
H575 H 0.88793 0.44255 0.38907 0.0
H576 H 0.87507 0.41702 0.31139 0.0
H577 H 0.8482 0.48988 0.37885 0.0
H578 H 0.86082 0.51538 0.45805 0.0
H579 H 0.9113 0.6416 0.44478 0.0
H580 H 0.90922 0.5789 0.4616 0.0
H581 H 0.87648 0.60465 0.54431 0.0
H582 H 0.87868 0.66778 0.5297 0.0
H583 H 0.87888 0.54836 0.43857 0.0
H584 H 0.89449 0.58047 0.64896 0.0
H585 H 0.90834 0.60621 0.71941 0.0
H586 H 0.93427 0.53369 0.6393 0.0
H587 H 0.92058 0.50787 0.56752 0.0
C588 C 0.87624 0.38746 0.54224 0.0
C589 C 0.88554 0.36234 0.54438 0.0
C590 C 0.87754 0.42354 0.53877 0.0
C591 C 0.88819 0.43573 0.53413 0.0
C592 C 0.89754 0.41057 0.53843 0.0
C593 C 0.89622 0.37432 0.54412 0.0
C594 C 0.88948 0.47445 0.52436 0.0
C595 C 0.8972 0.49068 0.56364 0.0
C596 C 0.8829 0.49581 0.47794 0.0
C597 C 0.87531 0.48067 0.42996 0.0
C598 C 0.87927 0.45299 0.38765 0.0
C599 C 0.87202 0.43853 0.34332 0.0
C600 C 0.86084 0.4518 0.34019 0.0
C601 C 0.85687 0.4796 0.38136 0.0
C602 C 0.86406 0.49406 0.42601 0.0
C603 C 0.90365 0.63401 0.46668 0.0
C604 C 0.89514 0.65982 0.48586 0.0
C605 C 0.90249 0.59806 0.47638 0.0
C606 C 0.89271 0.58687 0.5044 0.0
C607 C 0.88411 0.61255 0.52262 0.0
C608 C 0.88537 0.64864 0.51426 0.0
C609 C 0.8915 0.54841 0.51407 0.0
C610 C 0.88386 0.53236 0.47449 0.0
C611 C 0.89831 0.52715 0.55894 0.0
C612 C 0.90653 0.54249 0.60235 0.0
C613 C 0.90316 0.57023 0.64588 0.0
C614 C 0.91098 0.58479 0.68616 0.0
C615 C 0.92218 0.57166 0.6837 0.0
C616 C 0.92559 0.54387 0.64108 0.0
C617 C 0.9178 0.52924 0.60063 0.0
H618 H 0.92822 0.58296 0.71493 0.0
H619 H 0.85525 0.44057 0.3058 0.0
H620 H 0.87598 0.87168 0.59516 0.0
H621 H 0.8784 0.93433 0.59991 0.0
H622 H 0.89833 0.92546 0.42065 0.0
H623 H 0.89624 0.8619 0.41735 0.0
H624 H 0.90697 0.9691 0.49859 0.0
H625 H 0.86989 0.96196 0.42301 0.0
H626 H 0.85088 0.94303 0.42393 0.0
H627 H 0.84452 0.99303 0.61334 0.0
H628 H 0.86355 0.01186 0.614 0.0
H629 H 0.88188 0.16825 0.48089 0.0
H630 H 0.87993 0.10546 0.46312 0.0
H631 H 0.90514 0.07841 0.61205 0.0
H632 H 0.90727 0.14081 0.62857 0.0
H633 H 0.87371 0.0537 0.5337 0.0
H634 H 0.92 1.00125 0.57886 0.0
H635 H 0.93873 0.02105 0.56288 0.0
H636 H 0.92618 0.09208 0.40763 0.0
H637 H 0.90742 0.07235 0.42201 0.0
C638 C 0.88092 0.88299 0.55674 0.0
C639 C 0.88583 0.86175 0.50551 0.0
C640 C 0.88223 0.91905 0.55922 0.0
C641 C 0.88831 0.93533 0.5097 0.0
C642 C 0.89352 0.91391 0.45936 0.0
C643 C 0.89232 0.87751 0.45737 0.0
C644 C 0.88915 0.97452 0.51096 0.0
C645 C 0.89968 0.98749 0.50626 0.0
C646 C 0.87966 0.99915 0.51914 0.0
C647 C 0.86818 0.98808 0.51877 0.0
C648 C 0.86446 0.96874 0.46505 0.0
C649 C 0.85368 0.95805 0.46527 0.0
C650 C 0.84651 0.96676 0.51872 0.0
C651 C 0.85009 0.98627 0.572 0.0
C652 C 0.86087 0.997 0.57206 0.0
C653 C 0.887 0.14887 0.50981 0.0
C654 C 0.8948 0.15962 0.55577 0.0
C655 C 0.88587 0.11288 0.49971 0.0
C656 C 0.89253 0.08672 0.53522 0.0
C657 C 0.90008 0.09766 0.58255 0.0
C658 C 0.90125 0.13352 0.59237 0.0
C659 C 0.89156 0.04814 0.52345 0.0
C660 C 0.881 0.03531 0.52605 0.0
C661 C 0.90099 0.02378 0.51148 0.0
C662 C 0.91228 0.03554 0.50202 0.0
C663 C 0.92125 0.02099 0.54114 0.0
C664 C 0.93187 0.03222 0.53238 0.0
C665 C 0.93364 0.05789 0.48442 0.0
C666 C 0.92479 0.07229 0.44494 0.0
C667 C 0.91416 0.06112 0.45342 0.0
H668 H 0.94187 0.06657 0.47777 0.0
H669 H 0.83817 0.95845 0.51881 0.0
H670 H 0.15884 0.64692 0.60929 0.0
H671 H 0.1563 0.58431 0.61084 0.0
H672 H 0.13636 0.59735 0.43217 0.0
H673 H 0.13866 0.66086 0.43169 0.0
H674 H 0.12777 0.55165 0.51119 0.0
H675 H 0.16423 0.56194 0.42821 0.0
H676 H 0.18313 0.58164 0.42567 0.0
H677 H 0.19092 0.52738 0.61069 0.0
H678 H 0.172 0.50776 0.61484 0.0
H679 H 0.15347 0.35376 0.48172 0.0
H680 H 0.15497 0.41695 0.46481 0.0
H681 H 0.13067 0.44048 0.62038 0.0
H682 H 0.12895 0.37763 0.636 0.0
H683 H 0.16146 0.46742 0.53555 0.0
H684 H 0.11533 0.51754 0.59274 0.0
H685 H 0.0966 0.49729 0.58036 0.0
H686 H 0.10843 0.42941 0.42028 0.0
H687 H 0.12718 0.4496 0.43104 0.0
C688 C 0.15385 0.63657 0.57042 0.0
C689 C 0.14904 0.65887 0.51998 0.0
C690 C 0.15246 0.60057 0.57112 0.0
C691 C 0.14637 0.58555 0.52068 0.0
C692 C 0.14118 0.60804 0.47145 0.0
C693 C 0.14249 0.64437 0.47113 0.0
C694 C 0.14564 0.54644 0.51957 0.0
C695 C 0.13514 0.5333 0.51648 0.0
C696 C 0.15525 0.52204 0.52449 0.0
C697 C 0.16666 0.5336 0.52207 0.0
C698 C 0.16995 0.5544 0.46858 0.0
C699 C 0.18067 0.56553 0.46683 0.0
C700 C 0.18822 0.55583 0.51805 0.0
C701 C 0.18506 0.5349 0.57107 0.0
C702 C 0.17435 0.52373 0.57311 0.0
C703 C 0.14845 0.37245 0.51227 0.0
C704 C 0.14103 0.36064 0.55987 0.0
C705 C 0.14932 0.40865 0.50264 0.0
C706 C 0.14279 0.4339 0.54037 0.0
C707 C 0.13561 0.42189 0.58924 0.0
C708 C 0.13469 0.38582 0.59854 0.0
C709 C 0.14355 0.47264 0.52952 0.0
C710 C 0.15407 0.48573 0.53021 0.0
C711 C 0.13398 0.49687 0.52051 0.0
C712 C 0.12269 0.48487 0.51318 0.0
C713 C 0.11393 0.49841 0.55471 0.0
C714 C 0.10331 0.48692 0.54801 0.0
C715 C 0.10134 0.462 0.49971 0.0
C716 C 0.10997 0.44861 0.45784 0.0
C717 C 0.1206 0.46004 0.46427 0.0
H718 H 0.09311 0.45312 0.49465 0.0
H719 H 0.19651 0.56448 0.51661 0.0
H720 H 0.63443 0.66803 1.02059 0.0
H721 H 0.63243 0.60503 1.01026 0.0
H722 H 0.66648 0.58154 0.07525 0.0
H723 H 0.66866 0.64452 0.07956 0.0
H724 H 0.66423 0.53919 0.98793 0.0
H725 H 0.64035 0.56913 0.17419 0.0
H726 H 0.6251 0.60212 0.23612 0.0
H727 H 0.60142 0.57167 0.09276 0.0
H728 H 0.61655 0.53883 0.02954 0.0
H729 H 0.65792 0.35522 0.05109 0.0
H730 H 0.65999 0.41816 0.06702 0.0
H731 H 0.631 0.44499 0.94475 0.0
H732 H 0.62901 0.38243 0.92797 0.0
H733 H 0.63077 0.48392 0.06432 0.0
H734 H 0.65612 0.45257 0.88133 0.0
H735 H 0.67191 0.41681 0.82974 0.0
H736 H 0.69371 0.44767 0.98357 0.0
H737 H 0.678 0.48324 0.03661 0.0
C738 C 0.64141 0.64932 0.03346 0.0
C739 C 0.65165 0.66122 0.05158 0.0
C740 C 0.64028 0.61308 0.02795 0.0
C741 C 0.64923 0.58771 0.04319 0.0
C742 C 0.6594 0.59997 0.06278 0.0
C743 C 0.66063 0.63613 0.06592 0.0
C744 C 0.64822 0.54868 0.03646 0.0
C745 C 0.65695 0.5273 1.00595 0.0
C746 C 0.63872 0.53234 0.05862 0.0
C747 C 0.6296 0.55179 0.09682 0.0
C748 C 0.6319 0.56963 0.1557 0.0
C749 C 0.62328 0.58828 0.19104 0.0
C750 C 0.61231 0.58906 0.16829 0.0
C751 C 0.60992 0.57108 0.11028 0.0
C752 C 0.61852 0.5524 0.07471 0.0
C753 C 0.65204 0.37456 0.02728 0.0
C754 C 0.64331 0.36372 0.98812 0.0
C755 C 0.65322 0.41057 0.03646 0.0
C756 C 0.64564 0.43654 1.00715 0.0
C757 C 0.63693 0.42564 0.96817 0.0
C758 C 0.63584 0.38977 0.95831 0.0
C759 C 0.64676 0.47504 1.01653 0.0
C760 C 0.63805 0.49613 0.04713 0.0
C761 C 0.65637 0.49094 0.99612 0.0
C762 C 0.66586 0.47031 0.96324 0.0
C763 C 0.66427 0.45158 0.90434 0.0
C764 C 0.6732 0.43135 0.87483 0.0
C765 C 0.6838 0.42988 0.90347 0.0
C766 C 0.68549 0.44879 0.96149 0.0
C767 C 0.67658 0.46902 0.99125 0.0
H768 H 0.6907 0.41414 0.88064 0.0
H769 H 0.60564 0.60354 0.19569 0.0
H770 H 0.3682 0.87786 1.01738 0.0
H771 H 0.37053 0.94041 1.01087 0.0
H772 H 0.40546 0.91872 0.05673 0.0
H773 H 0.40293 0.85557 0.06744 0.0
H774 H 0.39909 0.97655 0.1129 0.0
H775 H 0.39409 0.93883 0.88998 0.0
H776 H 0.38528 0.91104 0.79542 0.0
H777 H 0.35588 0.98258 0.81819 0.0
H778 H 0.36444 0.01044 0.91355 0.0
H779 H 0.4118 0.14067 0.95002 0.0
H780 H 0.40962 0.07803 0.96703 0.0
H781 H 0.37606 0.104 0.03674 0.0
H782 H 0.37835 0.16715 0.02221 0.0
H783 H 0.38235 0.04501 0.9207 0.0
H784 H 0.38872 0.08102 0.14952 0.0
H785 H 0.39932 0.10944 0.23566 0.0
H786 H 0.42847 0.04042 0.18954 0.0
H787 H 0.41807 0.01199 0.10226 0.0
C788 C 0.37639 0.88631 0.02647 0.0
C789 C 0.38539 0.86154 0.04258 0.0
C790 C 0.37775 0.92231 0.02203 0.0
C791 C 0.38826 0.93483 0.03105 0.0
C792 C 0.39726 0.91013 0.04888 0.0
C793 C 0.39582 0.87393 0.05496 0.0
C794 C 0.38973 0.97348 1.02175 0.0
C795 C 0.3955 0.99119 0.07033 0.0
C796 C 0.38508 0.99341 0.96646 0.0
C797 C 0.37988 0.97654 0.90932 0.0
C798 C 0.38571 0.94846 0.87516 0.0
C799 C 0.38077 0.93272 0.82137 0.0
C800 C 0.37002 0.94503 0.80088 0.0
C801 C 0.3642 0.97307 0.83415 0.0
C802 C 0.3691 0.98886 0.88805 0.0
C803 C 0.40395 0.13317 0.96919 0.0
C804 C 0.39524 0.15906 0.98477 0.0
C805 C 0.40273 0.09725 0.97897 0.0
C806 C 0.3927 0.08614 1.00333 0.0
C807 C 0.3839 0.11186 1.01803 0.0
C808 C 0.38521 0.14796 1.00971 0.0
C809 C 0.39143 0.04767 1.01234 0.0
C810 C 0.38583 0.0301 0.96328 0.0
C811 C 0.39643 0.02779 0.06615 0.0
C812 C 0.40266 0.04469 0.11883 0.0
C813 C 0.39742 0.07218 0.15722 0.0
C814 C 0.40339 0.08822 0.20638 0.0
C815 C 0.41458 0.07682 0.21792 0.0
C816 C 0.41981 0.04927 0.18046 0.0
C817 C 0.41388 0.03317 0.13117 0.0
H818 H 0.41918 0.08927 0.25602 0.0
H819 H 0.36622 0.93293 0.75907 0.0
H820 H 0.40249 0.35503 0.95708 0.0
H821 H 0.40552 0.41803 0.9632 0.0
H822 H 0.3721 0.44128 0.03761 0.0
H823 H 0.36917 0.37888 0.03338 0.0
H824 H 0.37838 0.48883 0.93334 0.0
H825 H 0.39216 0.43783 0.14474 0.0
H826 H 0.40433 0.3953 0.21105 0.0
H827 H 0.43325 0.43408 0.12178 0.0
H828 H 0.42123 0.47654 0.05425 0.0
H829 H 0.37819 0.66481 0.04596 0.0
H830 H 0.37618 0.60206 0.03202 0.0
H831 H 0.41196 0.5801 0.03856 0.0
H832 H 0.41381 0.64227 0.05897 0.0
H833 H 0.40529 0.53016 0.09513 0.0
H834 H 0.39337 0.58095 0.88584 0.0
H835 H 0.38251 0.62162 0.80902 0.0
H836 H 0.35219 0.58225 0.87686 0.0
H837 H 0.36286 0.54166 0.95475 0.0
C838 C 0.3958 0.37364 0.97446 0.0
C839 C 0.38559 0.36181 0.99474 0.0
C840 C 0.39753 0.40967 0.97805 0.0
C841 C 0.38902 0.43464 1.00086 0.0
C842 C 0.37878 0.42279 1.01961 0.0
C843 C 0.37713 0.38693 1.01732 0.0
C844 C 0.39075 0.47296 1.00738 0.0
C845 C 0.38422 0.49796 0.96895 0.0
C846 C 0.39859 0.48503 0.05225 0.0
C847 C 0.4058 0.46012 0.09404 0.0
C848 C 0.40111 0.43714 0.13899 0.0
C849 C 0.40798 0.41307 0.17682 0.0
C850 C 0.41956 0.41193 0.17051 0.0
C851 C 0.42429 0.43497 0.12656 0.0
C852 C 0.41745 0.45906 0.08855 0.0
C853 C 0.3856 0.64652 0.04465 0.0
C854 C 0.39614 0.65867 0.05363 0.0
C855 C 0.38449 0.61044 0.03574 0.0
C856 C 0.39393 0.58559 0.03225 0.0
C857 C 0.40447 0.59805 0.041 0.0
C858 C 0.40555 0.63388 0.05237 0.0
C859 C 0.39288 0.54679 1.02085 0.0
C860 C 0.39951 0.52148 0.05869 0.0
C861 C 0.38535 0.53439 0.97379 0.0
C862 C 0.37891 0.55849 0.92655 0.0
C863 C 0.38438 0.5811 0.8846 0.0
C864 C 0.37826 0.60413 0.84087 0.0
C865 C 0.36667 0.60457 0.83818 0.0
C866 C 0.36117 0.5819 0.87906 0.0
C867 C 0.36725 0.55886 0.92297 0.0
H868 H 0.36194 0.62244 0.80432 0.0
H869 H 0.42486 0.39324 0.19976 0.0
H870 H 0.666 0.14339 0.05765 0.0
H871 H 0.66304 0.08099 0.05896 0.0
H872 H 0.63088 0.10486 0.96737 0.0
H873 H 0.63397 0.16788 0.96406 0.0
H874 H 0.63204 0.05658 0.08785 0.0
H875 H 0.64932 0.06963 0.87242 0.0
H876 H 0.66388 0.08835 0.79702 0.0
H877 H 0.68872 0.0221 0.90343 0.0
H878 H 0.67433 1.00339 0.98014 0.0
H879 H 0.62238 0.87799 0.05097 0.0
H880 H 0.62396 0.94058 0.03333 0.0
H881 H 0.65982 0.92149 0.03875 0.0
H882 H 0.65816 0.85815 0.04998 0.0
H883 H 0.65613 0.96939 0.95773 0.0
H884 H 0.64097 0.95912 0.17733 0.0
H885 H 0.62787 0.9418 0.26363 0.0
H886 H 0.60098 1.00341 0.16545 0.0
H887 H 0.6139 0.02077 0.07813 0.0
C888 C 0.65829 0.13552 0.03744 0.0
C889 C 0.65023 0.16081 1.0106 0.0
C890 C 0.65662 0.09968 0.03822 0.0
C891 C 0.64676 0.088 1.01311 0.0
C892 C 0.63858 0.11316 0.98702 0.0
C893 C 0.64035 0.14918 0.98505 0.0
C894 C 0.64512 0.04953 1.01492 0.0
C895 C 0.63715 0.0375 0.05852 0.0
C896 C 0.65211 0.0244 0.97892 0.0
C897 C 0.66075 0.03533 0.93236 0.0
C898 C 0.6579 0.05927 0.88007 0.0
C899 C 0.66612 0.06983 0.83703 0.0
C900 C 0.67722 0.05648 0.84551 0.0
C901 C 0.68012 0.03244 0.89695 0.0
C902 C 0.67193 0.02182 0.94017 0.0
C903 C 0.63062 0.88712 0.04814 0.0
C904 C 0.64016 0.86302 0.05267 0.0
C905 C 0.63153 0.92321 0.03881 0.0
C906 C 0.64202 0.9367 0.03701 0.0
C907 C 0.65158 0.91237 0.04033 0.0
C908 C 0.65066 0.87598 0.04717 0.0
C909 C 0.64301 0.97584 0.03127 0.0
C910 C 0.65091 0.98817 0.98707 0.0
C911 C 0.63616 1.00123 0.06832 0.0
C912 C 0.62839 0.99094 0.12086 0.0
C913 C 0.63225 0.9688 0.17396 0.0
C914 C 0.62486 0.959 0.22307 0.0
C915 C 0.6136 0.97142 0.21992 0.0
C916 C 0.60971 0.99376 0.16777 0.0
C917 C 0.61706 1.00362 0.11849 0.0
H918 H 0.60789 0.96379 0.25797 0.0
H919 H 0.68358 0.0647 0.81216 0.0
H920 H 0.16176 0.28083 0.33401 0.0
H921 H 0.16196 0.27871 0.2123 0.0
H922 H 0.12898 0.24352 0.21338 0.0
H923 H 0.12883 0.24475 0.33569 0.0
H924 H 0.14161 0.2065 0.12646 0.0
H925 H 0.13403 0.32979 0.17021 0.0
H926 H 0.13723 0.38662 0.22107 0.0
H927 H 0.16915 0.384 0.12478 0.0
H928 H 0.1662 0.32689 0.07406 0.0
H929 H 0.1306 0.23487 0.78072 0.0
H930 H 0.13036 0.23639 0.90252 0.0
H931 H 0.16333 0.27166 0.90249 0.0
H932 H 0.16352 0.27101 0.7802 0.0
H933 H 0.15064 0.30866 0.98891 0.0
H934 H 0.15821 0.18527 0.94533 0.0
H935 H 0.155 0.12838 0.89473 0.0
H936 H 0.12305 0.13124 0.99075 0.0
H937 H 0.12601 0.1884 0.04121 0.0
C938 C 0.1545 0.27282 0.30854 0.0
C939 C 0.14524 0.26316 0.34494 0.0
C940 C 0.15461 0.27174 0.23865 0.0
C941 C 0.14542 0.26145 0.20314 0.0
C942 C 0.13618 0.25164 0.23937 0.0
C943 C 0.13608 0.2525 0.30943 0.0
C944 C 0.14554 0.26036 0.12846 0.0
C945 C 0.14342 0.22904 0.09643 0.0
C946 C 0.14818 0.28941 0.08886 0.0
C947 C 0.14993 0.3239 0.11882 0.0
C948 C 0.14176 0.34122 0.16023 0.0
C949 C 0.14353 0.37349 0.18899 0.0
C950 C 0.1534 0.38887 0.17629 0.0
C951 C 0.16151 0.37204 0.13463 0.0
C952 C 0.15979 0.33974 0.10581 0.0
C953 C 0.13785 0.24272 0.80646 0.0
C954 C 0.14711 0.25264 0.77036 0.0
C955 C 0.13772 0.24346 0.87639 0.0
C956 C 0.14689 0.25369 0.9122 0.0
C957 C 0.15615 0.2636 0.87627 0.0
C958 C 0.15626 0.26307 0.80621 0.0
C959 C 0.14671 0.25478 0.9869 0.0
C960 C 0.14882 0.28612 1.01893 0.0
C961 C 0.14406 0.22576 0.02649 0.0
C962 C 0.14229 0.19127 0.99656 0.0
C963 C 0.15047 0.17388 0.95528 0.0
C964 C 0.1487 0.14157 0.92668 0.0
C965 C 0.13882 0.12625 0.93939 0.0
C966 C 0.1307 0.14316 0.98089 0.0
C967 C 0.13242 0.1755 1.00955 0.0
H968 H 0.13746 0.10123 0.91718 0.0
H969 H 0.15476 0.41385 0.19862 0.0
H970 H 0.90805 0.27191 0.33386 0.0
H971 H 0.90804 0.27304 0.21168 0.0
H972 H 0.87357 0.25106 0.21117 0.0
H973 H 0.87364 0.24881 0.33304 0.0
H974 H 0.88427 0.21346 0.11946 0.0
H975 H 0.88247 0.3359 0.18052 0.0
H976 H 0.88883 0.38761 0.23704 0.0
H977 H 0.91995 0.37376 0.13174 0.0
H978 H 0.91386 0.32163 0.07522 0.0
H979 H 0.87245 0.25535 0.77955 0.0
H980 H 0.8726 0.25523 0.90169 0.0
H981 H 0.90699 0.27799 0.89986 0.0
H982 H 0.90679 0.27923 0.7779 0.0
H983 H 0.89651 0.31513 0.99269 0.0
H984 H 0.89866 0.19318 0.9323 0.0
H985 H 0.89271 0.14089 0.87572 0.0
H986 H 0.86142 0.15309 0.97974 0.0
H987 H 0.86713 0.20575 0.0363 0.0
C988 C 0.90047 0.26729 0.30777 0.0
C989 C 0.89084 0.26033 0.34347 0.0
C990 C 0.90045 0.26814 0.23774 0.0
C991 C 0.89075 0.26269 0.20177 0.0
C992 C 0.88117 0.25539 0.23744 0.0
C993 C 0.88122 0.25417 0.30734 0.0
C994 C 0.89054 0.26431 0.12713 0.0
C995 C 0.88681 0.23594 0.09187 0.0
C996 C 0.89412 0.29315 0.09056 0.0
C997 C 0.89774 0.32467 0.12411 0.0
C998 C 0.8907 0.34375 0.16973 0.0
C999 C 0.89425 0.37315 0.20173 0.0
C1000 C 0.90479 0.38392 0.18812 0.0
C1001 C 0.91179 0.36536 0.1423 0.0
C1002 C 0.90829 0.3359 0.11023 0.0
C1003 C 0.88004 0.26045 0.8051 0.0
C1004 C 0.88961 0.26721 0.76871 0.0
C1005 C 0.88014 0.26017 0.87511 0.0
C1006 C 0.88987 0.266 0.91043 0.0
C1007 C 0.89937 0.27336 0.8741 0.0
C1008 C 0.89925 0.27401 0.80416 0.0
C1009 C 0.8902 0.26434 0.98506 0.0
C1010 C 0.89396 0.29267 1.02029 0.0
C1011 C 0.88669 0.23539 1.02162 0.0
C1012 C 0.88328 0.20359 0.98804 0.0
C1013 C 0.89048 0.18484 0.94277 0.0
C1014 C 0.88716 0.15512 0.91075 0.0
C1015 C 0.87669 0.14373 0.924 0.0
C1016 C 0.86953 0.16198 0.96946 0.0
C1017 C 0.8728 0.19174 1.00155 0.0
H1018 H 0.87413 0.12072 0.89914 0.0
H1019 H 0.90752 0.40669 0.21299 0.0
H1020 H 0.16444 0.76223 0.27529 0.0
H1021 H 0.1646 0.76223 0.15313 0.0
H1022 H 0.12954 0.74783 0.15157 0.0
H1023 H 0.12933 0.74729 0.27355 0.0
H1024 H 0.14046 0.70644 0.06045 0.0
H1025 H 0.13903 0.82876 0.1206 0.0
H1026 H 0.14544 0.88013 0.17808 0.0
H1027 H 0.17691 0.86464 0.07664 0.0
H1028 H 0.17074 0.81288 1.01922 0.0
H1029 H 0.12939 0.74924 0.71993 0.0
H1030 H 0.12946 0.74812 0.84205 0.0
H1031 H 0.16392 0.7702 0.84203 0.0
H1032 H 0.16378 0.77253 0.72007 0.0
H1033 H 0.15349 0.80722 0.93448 0.0
H1034 H 0.15524 0.68554 0.8738 0.0
H1035 H 0.14921 0.6336 0.81646 0.0
H1036 H 0.11778 0.64658 0.91886 0.0
H1037 H 0.12356 0.69892 0.97611 0.0
C1038 C 0.15676 0.75895 0.24908 0.0
C1039 C 0.14686 0.75488 0.28457 0.0
C1040 C 0.15685 0.75911 0.17907 0.0
C1041 C 0.14704 0.75547 0.14287 0.0
C1042 C 0.13721 0.75074 0.17819 0.0
C1043 C 0.13711 0.75054 0.24813 0.0
C1044 C 0.14698 0.75687 0.06832 0.0
C1045 C 0.14318 0.72868 0.03292 0.0
C1046 C 0.15078 0.78545 0.03209 0.0
C1047 C 0.15446 0.81676 0.0661 0.0
C1048 C 0.14734 0.83618 0.11089 0.0
C1049 C 0.15093 0.86538 0.14341 0.0
C1050 C 0.16158 0.87559 0.13114 0.0
C1051 C 0.16866 0.85668 0.08616 0.0
C1052 C 0.16512 0.82742 0.05357 0.0
C1053 C 0.13699 0.75387 0.74589 0.0
C1054 C 0.14659 0.76088 0.71005 0.0
C1055 C 0.13704 0.75303 0.81589 0.0
C1056 C 0.14675 0.75849 0.85171 0.0
C1057 C 0.15631 0.76586 0.81588 0.0
C1058 C 0.15623 0.76712 0.74596 0.0
C1059 C 0.14697 0.75675 0.92634 0.0
C1060 C 0.15078 0.78491 0.96184 0.0
C1061 C 0.14325 0.72802 0.96265 0.0
C1062 C 0.1398 0.69634 0.92877 0.0
C1063 C 0.14701 0.67745 0.88377 0.0
C1064 C 0.14364 0.64792 0.85132 0.0
C1065 C 0.13311 0.63684 0.8639 0.0
C1066 C 0.12593 0.65521 0.90911 0.0
C1067 C 0.12925 0.6848 0.94161 0.0
H1068 H 0.13051 0.61398 0.83871 0.0
H1069 H 0.16434 0.8982 0.15638 0.0
H1070 H 0.87589 0.73106 0.71039 0.0
H1071 H 0.87572 0.73299 0.83222 0.0
H1072 H 0.90548 0.78752 0.82962 0.0
H1073 H 0.90583 0.78515 0.70742 0.0
H1074 H 0.90679 0.73865 0.92594 0.0
H1075 H 0.87942 0.83113 0.85767 0.0
H1076 H 0.86281 0.85717 0.79732 0.0
H1077 H 0.84251 0.78788 0.90138 0.0
H1078 H 0.85903 0.76105 0.96168 0.0
H1079 H 0.90392 0.79483 0.26288 0.0
H1080 H 0.90412 0.79388 0.14095 0.0
H1081 H 0.87422 0.74 0.14142 0.0
H1082 H 0.87384 0.74147 0.26363 0.0
H1083 H 0.87303 0.78897 0.04604 0.0
H1084 H 0.9004 0.69616 0.11357 0.0
H1085 H 0.91701 0.66991 0.17368 0.0
H1086 H 0.93731 0.73973 0.07092 0.0
H1087 H 0.92078 0.76674 1.01083 0.0
C1088 C 0.88244 0.74341 0.73555 0.0
C1089 C 0.89085 0.75808 0.69877 0.0
C1090 C 0.88229 0.74465 0.80545 0.0
C1091 C 0.89048 0.76092 0.84046 0.0
C1092 C 0.89904 0.77492 0.80396 0.0
C1093 C 0.89921 0.77359 0.73395 0.0
C1094 C 0.8901 0.76338 0.91497 0.0
C1095 C 0.89946 0.75012 0.95209 0.0
C1096 C 0.88045 0.7776 0.94958 0.0
C1097 C 0.87049 0.79386 0.91373 0.0
C1098 C 0.87143 0.82127 0.86734 0.0
C1099 C 0.86203 0.8362 0.83318 0.0
C1100 C 0.85161 0.82413 0.84539 0.0
C1101 C 0.85058 0.79717 0.89192 0.0
C1102 C 0.85996 0.78211 0.92614 0.0
C1103 C 0.89734 0.78289 0.2372 0.0
C1104 C 0.88888 0.7681 0.27338 0.0
C1105 C 0.8975 0.78219 0.16725 0.0
C1106 C 0.88929 0.76633 0.13161 0.0
C1107 C 0.88068 0.75229 0.16754 0.0
C1108 C 0.88048 0.75311 0.23758 0.0
C1109 C 0.88972 0.7642 0.05705 0.0
C1110 C 0.88037 0.77752 1.01991 0.0
C1111 C 0.89937 0.75003 0.02241 0.0
C1112 C 0.90933 0.73369 0.05819 0.0
C1113 C 0.90839 0.70609 0.10414 0.0
C1114 C 0.91779 0.69105 0.13816 0.0
C1115 C 0.9282 0.70321 0.12626 0.0
C1116 C 0.92923 0.73037 0.08016 0.0
C1117 C 0.91985 0.74553 0.04607 0.0
H1118 H 0.93547 0.69153 0.15265 0.0
H1119 H 0.84434 0.83572 0.81889 0.0
H1120 H 0.66122 0.78618 0.28196 0.0
H1121 H 0.66114 0.78628 0.40392 0.0
H1122 H 0.63213 0.7281 0.40492 0.0
H1123 H 0.63201 0.72862 0.28273 0.0
H1124 H 0.62962 0.77869 0.494 0.0
H1125 H 0.65892 0.68899 0.44231 0.0
H1126 H 0.67628 0.66425 0.38824 0.0
H1127 H 0.69446 0.74066 0.48604 0.0
H1128 H 0.67717 0.76616 0.54003 0.0
H1129 H 0.63174 0.73207 0.8388 0.0
H1130 H 0.63186 0.73061 0.71678 0.0
H1131 H 0.66068 0.78961 0.71336 0.0
H1132 H 0.66075 0.79059 0.83545 0.0
H1133 H 0.66326 0.738 0.6256 0.0
H1134 H 0.63404 0.82808 0.67627 0.0
H1135 H 0.61672 0.85318 0.73026 0.0
H1136 H 0.59844 0.77639 0.63431 0.0
H1137 H 0.61569 0.75052 0.58042 0.0
C1138 C 0.65484 0.77325 0.30799 0.0
C1139 C 0.64665 0.75724 0.27223 0.0
C1140 C 0.65483 0.7732 0.37798 0.0
C1141 C 0.64672 0.75676 0.41409 0.0
C1142 C 0.6385 0.74092 0.37848 0.0
C1143 C 0.63846 0.74113 0.30844 0.0
C1144 C 0.6467 0.75657 0.48883 0.0
C1145 C 0.63694 0.76929 0.5227 0.0
C1146 C 0.65631 0.74515 0.52673 0.0
C1147 C 0.66673 0.72968 0.49473 0.0
C1148 C 0.6666 0.70066 0.45193 0.0
C1149 C 0.67643 0.68649 0.42135 0.0
C1150 C 0.68646 0.70093 0.43356 0.0
C1151 C 0.68669 0.72953 0.47656 0.0
C1152 C 0.67688 0.74383 0.50722 0.0
C1153 C 0.6381 0.74484 0.8122 0.0
C1154 C 0.6462 0.76161 0.84723 0.0
C1155 C 0.63813 0.74409 0.74221 0.0
C1156 C 0.6462 0.7604 0.70543 0.0
C1157 C 0.65436 0.77686 0.74034 0.0
C1158 C 0.65436 0.7775 0.81033 0.0
C1159 C 0.64618 0.76012 0.63072 0.0
C1160 C 0.65594 0.74734 0.59688 0.0
C1161 C 0.63658 0.77151 0.59283 0.0
C1162 C 0.62618 0.78716 0.62483 0.0
C1163 C 0.62634 0.81639 0.66706 0.0
C1164 C 0.61654 0.83078 0.69758 0.0
C1165 C 0.60649 0.81633 0.68586 0.0
C1166 C 0.60623 0.78752 0.64341 0.0
C1167 C 0.61602 0.773 0.61282 0.0
H1168 H 0.59891 0.8275 0.70955 0.0
H1169 H 0.69406 0.68993 0.40982 0.0
H1170 H 0.40697 0.78034 0.83499 0.0
H1171 H 0.40682 0.78203 0.71273 0.0
H1172 H 0.37504 0.73877 0.71207 0.0
H1173 H 0.37508 0.73714 0.83414 0.0
H1174 H 0.40624 0.73092 0.61891 0.0
H1175 H 0.35939 0.77601 0.581 0.0
H1176 H 0.34414 0.81036 0.64062 0.0
H1177 H 0.36793 0.86722 0.74363 0.0
H1178 H 0.38328 0.83391 0.68347 0.0
H1179 H 0.37381 0.74524 0.28074 0.0
H1180 H 0.37403 0.74447 0.403 0.0
H1181 H 0.40611 0.78589 0.40142 0.0
H1182 H 0.40601 0.78641 0.27936 0.0
H1183 H 0.37484 0.79515 0.49591 0.0
H1184 H 0.42164 0.75113 0.53258 0.0
H1185 H 0.43696 0.71652 0.47405 0.0
H1186 H 0.41335 0.65736 0.3748 0.0
H1187 H 0.39791 0.69125 0.43341 0.0
C1188 C 0.39994 0.77112 0.80893 0.0
C1189 C 0.39101 0.75872 0.84469 0.0
C1190 C 0.39989 0.77201 0.73889 0.0
C1191 C 0.39087 0.76088 0.70294 0.0
C1192 C 0.38203 0.74798 0.7385 0.0
C1193 C 0.38209 0.74695 0.80848 0.0
C1194 C 0.39066 0.76298 0.62839 0.0
C1195 C 0.39944 0.74538 0.59209 0.0
C1196 C 0.38169 0.78124 0.59306 0.0
C1197 C 0.37249 0.80212 0.62824 0.0
C1198 C 0.36136 0.79601 0.61605 0.0
C1199 C 0.35269 0.81533 0.64991 0.0
C1200 C 0.35506 0.84093 0.69597 0.0
C1201 C 0.3661 0.8474 0.70797 0.0
C1202 C 0.37479 0.82829 0.67402 0.0
C1203 C 0.38091 0.75428 0.3063 0.0
C1204 C 0.38992 0.76577 0.26989 0.0
C1205 C 0.38101 0.7539 0.37637 0.0
C1206 C 0.39014 0.76472 0.41175 0.0
C1207 C 0.39903 0.77686 0.37551 0.0
C1208 C 0.39894 0.7773 0.30551 0.0
C1209 C 0.39041 0.763 0.48638 0.0
C1210 C 0.38164 0.7807 0.52272 0.0
C1211 C 0.39939 0.74487 0.52178 0.0
C1212 C 0.40862 0.72402 0.48686 0.0
C1213 C 0.41973 0.73065 0.49844 0.0
C1214 C 0.42843 0.71117 0.46523 0.0
C1215 C 0.42613 0.68485 0.42056 0.0
C1216 C 0.41512 0.67785 0.4092 0.0
C1217 C 0.40639 0.69722 0.44234 0.0
H1218 H 0.43287 0.66982 0.39486 0.0
H1219 H 0.34835 0.85578 0.72228 0.0
H1220 H 0.65284 0.31174 0.21629 0.0
H1221 H 0.65259 0.3105 0.33834 0.0
H1222 H 0.64124 0.20647 0.33457 0.0
H1223 H 0.64061 0.20917 0.21243 0.0
H1224 H 0.63153 0.23547 0.42849 0.0
H1225 H 0.66999 0.22715 0.37228 0.0
H1226 H 0.68719 0.24335 0.31797 0.0
H1227 H 0.68411 0.34246 0.41959 0.0
H1228 H 0.66681 0.32703 0.47388 0.0
H1229 H 0.66373 0.23645 0.77328 0.0
H1230 H 0.66389 0.23372 0.65124 0.0
H1231 H 0.6299 0.28074 0.64676 0.0
H1232 H 0.62952 0.28119 0.76872 0.0
H1233 H 0.66301 0.27564 0.55729 0.0
H1234 H 0.6159 0.26047 0.51203 0.0
H1235 H 0.60052 0.23267 0.56633 0.0
H1236 H 0.62411 0.15968 0.66775 0.0
H1237 H 0.63962 0.18672 0.61341 0.0
C1238 C 0.65028 0.28867 0.2417 0.0
C1239 C 0.64678 0.2605 0.20498 0.0
C1240 C 0.65023 0.28778 0.31167 0.0
C1241 C 0.64718 0.25798 0.34667 0.0
C1242 C 0.64364 0.22986 0.30953 0.0
C1243 C 0.64331 0.2313 0.23956 0.0
C1244 C 0.64752 0.25631 0.42161 0.0
C1245 C 0.63846 0.24417 0.4564 0.0
C1246 C 0.65664 0.26668 0.45906 0.0
C1247 C 0.66705 0.27606 0.42667 0.0
C1248 C 0.67295 0.25249 0.38272 0.0
C1249 C 0.68271 0.26152 0.35198 0.0
C1250 C 0.68672 0.29395 0.3652 0.0
C1251 C 0.68099 0.31737 0.40934 0.0
C1252 C 0.67121 0.30848 0.44016 0.0
C1253 C 0.65627 0.24595 0.74615 0.0
C1254 C 0.64658 0.2587 0.78066 0.0
C1255 C 0.65637 0.24452 0.67619 0.0
C1256 C 0.64684 0.25644 0.63893 0.0
C1257 C 0.63726 0.27021 0.67366 0.0
C1258 C 0.63707 0.27072 0.74362 0.0
C1259 C 0.647 0.255 0.56404 0.0
C1260 C 0.65612 0.26671 0.52931 0.0
C1261 C 0.63821 0.24248 0.52664 0.0
C1262 C 0.62892 0.22589 0.55915 0.0
C1263 C 0.6178 0.23841 0.54572 0.0
C1264 C 0.60906 0.2228 0.57655 0.0
C1265 C 0.61134 0.1945 0.62063 0.0
C1266 C 0.62236 0.18168 0.6338 0.0
C1267 C 0.63112 0.19716 0.60305 0.0
H1268 H 0.60456 0.18248 0.64447 0.0
H1269 H 0.69429 0.3009 0.34135 0.0
H1270 H 0.37408 0.24155 0.20624 0.0
H1271 H 0.37402 0.24332 0.32821 0.0
H1272 H 0.40716 0.27717 0.32632 0.0
H1273 H 0.40731 0.27541 0.20404 0.0
H1274 H 0.40495 0.22625 0.42155 0.0
H1275 H 0.38524 0.33559 0.35577 0.0
H1276 H 0.37094 0.37398 0.29569 0.0
H1277 H 0.34512 0.32397 0.39656 0.0
H1278 H 0.35928 0.28487 0.45654 0.0
H1279 H 0.40609 0.28246 0.75888 0.0
H1280 H 0.40622 0.28141 0.63687 0.0
H1281 H 0.37296 0.2485 0.63714 0.0
H1282 H 0.37274 0.24961 0.75944 0.0
H1283 H 0.37529 0.2992 0.5426 0.0
H1284 H 0.39505 0.18968 0.60801 0.0
H1285 H 0.40938 0.15119 0.66771 0.0
H1286 H 0.43515 0.20163 0.56731 0.0
H1287 H 0.42097 0.2408 0.50769 0.0
C1288 C 0.38139 0.24928 0.23159 0.0
C1289 C 0.3907 0.2584 0.19503 0.0
C1290 C 0.38131 0.25043 0.30151 0.0
C1291 C 0.39054 0.26072 0.33667 0.0
C1292 C 0.39993 0.26919 0.30043 0.0
C1293 C 0.39999 0.26826 0.2304 0.0
C1294 C 0.39034 0.26279 0.41113 0.0
C1295 C 0.39856 0.24259 0.44795 0.0
C1296 C 0.38186 0.2835 0.4459 0.0
C1297 C 0.37332 0.30705 0.41015 0.0
C1298 C 0.37651 0.33257 0.36474 0.0
C1299 C 0.36843 0.3545 0.33077 0.0
C1300 C 0.35713 0.35136 0.34217 0.0
C1301 C 0.35388 0.32634 0.38771 0.0
C1302 C 0.36193 0.3043 0.42174 0.0
C1303 C 0.39877 0.27513 0.73316 0.0
C1304 C 0.38941 0.26605 0.76928 0.0
C1305 C 0.39888 0.27438 0.66321 0.0
C1306 C 0.38965 0.2645 0.62756 0.0
C1307 C 0.3802 0.25615 0.66338 0.0
C1308 C 0.3801 0.25672 0.73344 0.0
C1309 C 0.38991 0.26264 0.55306 0.0
C1310 C 0.38169 0.28287 0.51621 0.0
C1311 C 0.3984 0.24198 0.51826 0.0
C1312 C 0.40695 0.21842 0.55391 0.0
C1313 C 0.40378 0.19277 0.59908 0.0
C1314 C 0.41187 0.17079 0.63283 0.0
C1315 C 0.42317 0.17403 0.62145 0.0
C1316 C 0.4264 0.19919 0.57615 0.0
C1317 C 0.41833 0.22127 0.54233 0.0
H1318 H 0.42942 0.15698 0.64761 0.0
H1319 H 0.35089 0.36836 0.31583 0.0
H1320 H 0.06369 0.31114 0.49551 0.0
H1321 H 0.04336 0.31333 0.49212 0.0
H1322 H 0.04529 0.20053 0.51435 0.0
H1323 H 0.06559 0.19811 0.51857 0.0
H1324 H 0.02995 0.22196 0.42271 0.0
H1325 H 0.03827 0.25582 0.64625 0.0
H1326 H 0.04664 0.29077 0.73264 0.0
H1327 H 0.02827 0.38471 0.65827 0.0
H1328 H 0.0199 0.35037 0.5708 0.0
H1329 H 0.9733 0.20631 0.51125 0.0
H1330 H 0.99361 0.20472 0.50867 0.0
H1331 H 0.9912 0.31795 0.49562 0.0
H1332 H 0.97092 0.31987 0.50129 0.0
H1333 H 1.00683 0.2968 0.58107 0.0
H1334 H 0.9983 0.26302 0.35824 0.0
H1335 H 0.98993 0.22816 0.27168 0.0
H1336 H 1.00865 0.13438 0.34399 0.0
H1337 H 1.01702 0.16862 0.43158 0.0
C1338 C 0.05982 0.28676 0.50008 0.0
C1339 C 0.0664 0.25444 0.50745 0.0
C1340 C 0.04815 0.28806 0.49804 0.0
C1341 C 0.0427 0.25713 0.50373 0.0
C1342 C 0.04923 0.2248 0.50969 0.0
C1343 C 0.0609 0.22347 0.51177 0.0
C1344 C 0.03022 0.2584 0.50411 0.0
C1345 C 0.02491 0.23803 0.45791 0.0
C1346 C 0.02355 0.2799 0.54891 0.0
C1347 C 0.02855 0.30058 0.60155 0.0
C1348 C 0.03608 0.28397 0.64799 0.0
C1349 C 0.04081 0.30366 0.69721 0.0
C1350 C 0.03801 0.33995 0.70083 0.0
C1351 C 0.03045 0.35661 0.65533 0.0
C1352 C 0.0257 0.33704 0.60596 0.0
C1353 C 0.97706 0.23096 0.50816 0.0
C1354 C 0.97034 0.26323 0.50626 0.0
C1355 C 0.98873 0.22997 0.50593 0.0
C1356 C 0.99404 0.2612 0.50107 0.0
C1357 C 0.98737 0.29342 0.49911 0.0
C1358 C 0.97571 0.29444 0.50157 0.0
C1359 C 1.00652 0.26039 0.49955 0.0
C1360 C 1.01185 0.28081 0.54566 0.0
C1361 C 1.0132 0.23897 0.45459 0.0
C1362 C 1.0082 0.21834 0.40186 0.0
C1363 C 1.00057 0.23492 0.35599 0.0
C1364 C 0.99583 0.21528 0.30669 0.0
C1365 C 0.99874 0.17906 0.30245 0.0
C1366 C 1.0064 0.16243 0.34739 0.0
C1367 C 1.01115 0.18194 0.39683 0.0
H1368 H 0.99506 0.1639 0.26424 0.0
H1369 H 0.04168 0.35515 0.73898 0.0
H1370 H 0.97097 0.78877 0.61854 0.0
H1371 H 0.99133 0.78475 0.61946 0.0
H1372 H 0.99229 0.72257 0.44034 0.0
H1373 H 0.97193 0.72671 0.43868 0.0
H1374 H 1.00805 0.69614 0.52548 0.0
H1375 H 0.9966 0.81032 0.43561 0.0
H1376 H 0.98631 0.86925 0.43293 0.0
H1377 H 1.00244 0.89632 0.61392 0.0
H1378 H 1.01271 0.83734 0.6182 0.0
H1379 H 0.06461 0.71662 0.43625 0.0
H1380 H 0.04432 0.71688 0.43872 0.0
H1381 H 0.04304 0.77905 0.61792 0.0
H1382 H 0.06332 0.77861 0.61625 0.0
H1383 H 0.02743 0.80514 0.53222 0.0
H1384 H 0.03904 0.69045 0.6209 0.0
H1385 H 0.04937 0.63158 0.62188 0.0
H1386 H 0.03303 0.60556 0.44092 0.0
H1387 H 0.02271 0.66449 0.43837 0.0
C1388 C 0.97548 0.77435 0.57908 0.0
C1389 C 0.9697 0.75823 0.52834 0.0
C1390 C 0.98717 0.77203 0.57972 0.0
C1391 C 0.99342 0.75376 0.52943 0.0
C1392 C 0.9877 0.73683 0.47978 0.0
C1393 C 0.97601 0.73911 0.4791 0.0
C1394 C 1.00588 0.75274 0.52805 0.0
C1395 C 1.01228 0.72002 0.52611 0.0
C1396 C 1.01149 0.78378 0.53008 0.0
C1397 C 1.00534 0.81929 0.52759 0.0
C1398 C 0.99788 0.82874 0.47513 0.0
C1399 C 0.99206 0.86217 0.47327 0.0
C1400 C 0.99369 0.88648 0.52332 0.0
C1401 C 1.00117 0.87744 0.57525 0.0
C1402 C 1.007 0.84402 0.57739 0.0
C1403 C 0.06006 0.72994 0.47682 0.0
C1404 C 0.06571 0.74758 0.52607 0.0
C1405 C 0.04841 0.73014 0.47807 0.0
C1406 C 0.04207 0.74778 0.52881 0.0
C1407 C 0.04768 0.76534 0.57805 0.0
C1408 C 0.05932 0.76515 0.57687 0.0
C1409 C 0.02962 0.74853 0.53001 0.0
C1410 C 0.02322 0.78124 0.53174 0.0
C1411 C 0.02402 0.71749 0.52757 0.0
C1412 C 0.03019 0.68201 0.5291 0.0
C1413 C 0.03771 0.67227 0.58104 0.0
C1414 C 0.04356 0.63888 0.58192 0.0
C1415 C 0.04188 0.61488 0.5314 0.0
C1416 C 0.03433 0.6242 0.47997 0.0
C1417 C 0.02848 0.65758 0.47881 0.0
H1418 H 0.04641 0.58903 0.53218 0.0
H1419 H 0.98918 0.91235 0.52178 0.0
H1420 H 0.56566 0.69875 0.02399 0.0
H1421 H 0.54537 0.70138 1.02008 0.0
H1422 H 0.54351 0.8143 1.00037 0.0
H1423 H 0.56387 0.81189 1.00382 0.0
H1424 H 0.52842 0.79596 0.08876 0.0
H1425 H 0.53875 0.76051 0.86611 0.0
H1426 H 0.5488 0.72385 0.78043 0.0
H1427 H 0.53377 0.63316 0.85251 0.0
H1428 H 0.52374 0.6692 0.93925 0.0
H1429 H 0.47107 0.82133 1.00496 0.0
H1430 H 0.49135 0.81928 1.00146 0.0
H1431 H 0.4937 0.70612 1.01651 0.0
H1432 H 0.47336 0.70782 1.01717 0.0
H1433 H 0.50856 0.72501 0.92937 0.0
H1434 H 0.49849 0.75946 0.15259 0.0
H1435 H 0.48855 0.79533 0.2398 0.0
H1436 H 0.50317 0.88693 0.16851 0.0
H1437 H 0.51309 0.85169 0.08025 0.0
C1438 C 0.56098 0.72418 1.01773 0.0
C1439 C 0.56651 0.75509 1.01368 0.0
C1440 C 0.54932 0.72564 1.0157 0.0
C1441 C 0.54281 0.75801 1.00908 0.0
C1442 C 0.54828 0.78896 1.00551 0.0
C1443 C 0.55997 0.78753 1.00762 0.0
C1444 C 0.53034 0.75957 1.00701 0.0
C1445 C 0.52409 0.78084 0.05316 0.0
C1446 C 0.5246 0.73918 0.96189 0.0
C1447 C 0.53058 0.7175 0.90956 0.0
C1448 C 0.53765 0.7327 0.864 0.0
C1449 C 0.54333 0.71204 0.81519 0.0
C1450 C 0.54195 0.67618 0.81113 0.0
C1451 C 0.53485 0.66093 0.85576 0.0
C1452 C 0.52915 0.68147 0.90472 0.0
C1453 C 0.47585 0.79588 1.00648 0.0
C1454 C 0.47046 0.76473 1.0114 0.0
C1455 C 0.48751 0.79479 1.00537 0.0
C1456 C 0.49416 0.76257 1.00986 0.0
C1457 C 0.48882 0.73138 1.01336 0.0
C1458 C 0.47714 0.73242 1.0143 0.0
C1459 C 0.50663 0.76143 1.01109 0.0
C1460 C 0.51289 0.7402 0.96486 0.0
C1461 C 0.51238 0.78176 0.05631 0.0
C1462 C 0.50644 0.803 0.10939 0.0
C1463 C 0.49952 0.78731 0.15518 0.0
C1464 C 0.4939 0.80752 0.20486 0.0
C1465 C 0.4952 0.8434 0.20958 0.0
C1466 C 0.50216 0.85914 0.16473 0.0
C1467 C 0.50778 0.83906 0.1149 0.0
H1468 H 0.49085 0.859 0.24808 0.0
H1469 H 0.54635 0.66023 0.77331 0.0
H1470 H 0.47111 0.29533 0.11095 0.0
H1471 H 0.49146 0.2911 0.11146 0.0
H1472 H 0.49235 0.21756 0.94879 0.0
H1473 H 0.47199 0.22202 0.94717 0.0
H1474 H 0.50811 0.19678 0.03967 0.0
H1475 H 0.49683 0.30327 0.92138 0.0
H1476 H 0.4866 0.3615 0.903 0.0
H1477 H 0.50254 0.40186 0.07395 0.0
H1478 H 0.51276 0.34368 0.09396 0.0
H1479 H 0.56479 0.21228 0.94273 0.0
H1480 H 0.5445 0.21245 0.94567 0.0
H1481 H 0.54298 0.28377 0.11197 0.0
H1482 H 0.56326 0.2831 0.11067 0.0
H1483 H 0.52756 0.30522 1.0178 0.0
H1484 H 0.53895 0.19775 0.13485 0.0
H1485 H 0.54925 0.1394 0.1507 0.0
H1486 H 0.53319 0.10085 0.97845 0.0
H1487 H 0.5229 0.15915 0.96101 0.0
C1488 C 0.47559 0.27836 0.07494 0.0
C1489 C 0.46979 0.25919 0.02875 0.0
C1490 C 0.48728 0.27591 0.0754 0.0
C1491 C 0.49351 0.25435 0.02957 0.0
C1492 C 0.48778 0.23439 0.98473 0.0
C1493 C 0.47608 0.23686 0.98413 0.0
C1494 C 0.50597 0.2531 0.02771 0.0
C1495 C 0.51235 0.22047 0.03402 0.0
C1496 C 0.5116 0.28398 1.02142 0.0
C1497 C 0.50547 0.31901 1.00958 0.0
C1498 C 0.49809 0.32448 0.9554 0.0
C1499 C 0.4923 0.35749 0.94463 0.0
C1500 C 0.49389 0.38533 0.9874 0.0
C1501 C 0.5013 0.38024 0.04094 0.0
C1502 C 0.5071 0.34726 0.052 0.0
C1503 C 0.5602 0.22759 0.98075 0.0
C1504 C 0.56579 0.24771 0.02641 0.0
C1505 C 0.54854 0.22777 0.98215 0.0
C1506 C 0.54215 0.24804 0.02921 0.0
C1507 C 0.54768 0.26805 0.0749 0.0
C1508 C 0.55933 0.26773 0.07383 0.0
C1509 C 0.5297 0.24894 0.03021 0.0
C1510 C 0.52333 0.28153 0.02355 0.0
C1511 C 0.52409 0.21801 0.03581 0.0
C1512 C 0.53025 0.18293 0.04622 0.0
C1513 C 0.53768 0.17692 0.10001 0.0
C1514 C 0.54351 0.14384 0.10935 0.0
C1515 C 0.5419 0.11646 0.0655 0.0
C1516 C 0.53444 0.12209 1.01232 0.0
C1517 C 0.52861 0.15515 1.00271 0.0
H1518 H 0.54641 0.09086 0.07283 0.0
H1519 H 0.48941 0.41088 0.97895 0.0
loop_
_geom_bond_atom_site_label_1
_geom_bond_atom_site_label_2
_geom_bond_distance
_geom_bond_site_symmetry_2
_ccdc_geom_bond_type
La0 C2 2.928 . S
La0 O20 2.521 . S
La0 O21 2.628 . S
La0 O22 2.554 . S
La0 O23 2.757 . S
La0 O24 2.470 . S
La0 O29 2.482 . S
La0 O31 2.503 . S
La1 C11 2.928 . S
La1 O23 2.482 . S
La1 O25 2.503 . S
La1 O26 2.521 . S
La1 O27 2.628 . S
La1 O28 2.554 . S
La1 O29 2.757 . S
La1 O30 2.470 . S
C2 La0 2.928 . S
C2 C3 1.503 . S
C2 O20 1.261 . S
C2 O21 1.243 . S
C3 C2 1.503 . S
C3 C4 1.394 . S
C3 C8 1.373 . S
C4 C3 1.394 . S
C4 C5 1.380 . S
C4 H32 0.930 . S
C5 C4 1.380 . S
C5 C6 1.376 . S
C5 H33 0.930 . S
C6 C5 1.376 . S
C6 C7 1.370 . S
C7 C6 1.370 . S
C7 C8 1.396 . S
C7 H34 0.929 . S
C8 C3 1.373 . S
C8 C7 1.396 . S
C8 H35 0.929 . S
C9 O22 1.240 . S
C9 O23 1.289 . S
C10 O24 1.258 . S
C10 O25 1.256 . S
C11 La1 2.928 . S
C11 C12 1.503 . S
C11 O26 1.261 . S
C11 O27 1.243 . S
C12 C11 1.503 . S
C12 C13 1.394 . S
C12 C17 1.373 . S
C13 C12 1.394 . S
C13 C14 1.380 . S
C13 H36 0.930 . S
C14 C13 1.380 . S
C14 C15 1.376 . S
C14 H37 0.930 . S
C15 C14 1.376 . S
C15 C16 1.370 . S
C16 C15 1.370 . S
C16 C17 1.396 . S
C16 H38 0.929 . S
C17 C12 1.373 . S
C17 C16 1.396 . S
C17 H39 0.929 . S
C18 O28 1.240 . S
C18 O29 1.289 . S
C19 O30 1.258 . S
C19 O31 1.256 . S
O20 La0 2.521 . S
O20 C2 1.261 . S
O21 La0 2.628 . S
O21 C2 1.243 . S
O22 La0 2.554 . S
O22 C9 1.240 . S
O23 La0 2.757 . S
O23 La1 2.482 . S
O23 C9 1.289 . S
O24 La0 2.470 . S
O24 C10 1.258 . S
O25 La1 2.503 . S
O25 C10 1.256 . S
O26 La1 2.521 . S
O26 C11 1.261 . S
O27 La1 2.628 . S
O27 C11 1.243 . S
O28 La1 2.554 . S
O28 C18 1.240 . S
O29 La0 2.482 . S
O29 La1 2.757 . S
O29 C18 1.289 . S
O30 La1 2.470 . S
O30 C19 1.258 . S
O31 La0 2.503 . S
O31 C19 1.256 . S
H32 C4 0.930 . S
H33 C5 0.930 . S
H34 C7 0.929 . S
H35 C8 0.929 . S
H36 C13 0.930 . S
H37 C14 0.930 . S
H38 C16 0.929 . S
H39 C17 0.929 . S
La40 C42 2.928 . S
La40 O60 2.521 . S
La40 O61 2.628 . S
La40 O62 2.554 . S
La40 O63 2.757 . S
La40 O64 2.470 . S
La40 O69 2.482 . S
La40 O71 2.503 . S
La41 C51 2.928 . S
La41 O63 2.482 . S
La41 O65 2.503 . S
La41 O66 2.521 . S
La41 O67 2.628 . S
La41 O68 2.554 . S
La41 O69 2.757 . S
La41 O70 2.470 . S
C42 La40 2.928 . S
C42 C43 1.503 . S
C42 O60 1.261 . S
C42 O61 1.243 . S
C43 C42 1.503 . S
C43 C44 1.394 . S
C43 C48 1.373 . S
C44 C43 1.394 . S
C44 C45 1.380 . S
C44 H72 0.930 . S
C45 C44 1.380 . S
C45 C46 1.376 . S
C45 H73 0.930 . S
C46 C45 1.376 . S
C46 C47 1.370 . S
C47 C46 1.370 . S
C47 C48 1.396 . S
C47 H74 0.929 . S
C48 C43 1.373 . S
C48 C47 1.396 . S
C48 H75 0.929 . S
C49 O62 1.240 . S
C49 O63 1.289 . S
C50 O64 1.258 . S
C50 O65 1.256 . S
C51 La41 2.928 . S
C51 C52 1.503 . S
C51 O66 1.261 . S
C51 O67 1.243 . S
C52 C51 1.503 . S
C52 C53 1.394 . S
C52 C57 1.373 . S
C53 C52 1.394 . S
C53 C54 1.380 . S
C53 H76 0.930 . S
C54 C53 1.380 . S
C54 C55 1.376 . S
C54 H77 0.930 . S
C55 C54 1.376 . S
C55 C56 1.370 . S
C56 C55 1.370 . S
C56 C57 1.396 . S
C56 H78 0.929 . S
C57 C52 1.373 . S
C57 C56 1.396 . S
C57 H79 0.929 . S
C58 O68 1.240 . S
C58 O69 1.289 . S
C59 O70 1.258 . S
C59 O71 1.256 . S
O60 La40 2.521 . S
O60 C42 1.261 . S
O61 La40 2.628 . S
O61 C42 1.243 . S
O62 La40 2.554 . S
O62 C49 1.240 . S
O63 La40 2.757 . S
O63 La41 2.482 . S
O63 C49 1.289 . S
O64 La40 2.470 . S
O64 C50 1.258 . S
O65 La41 2.503 . S
O65 C50 1.256 . S
O66 La41 2.521 . S
O66 C51 1.261 . S
O67 La41 2.628 . S
O67 C51 1.243 . S
O68 La41 2.554 . S
O68 C58 1.240 . S
O69 La40 2.482 . S
O69 La41 2.757 . S
O69 C58 1.289 . S
O70 La41 2.470 . S
O70 C59 1.258 . S
O71 La40 2.503 . S
O71 C59 1.256 . S
H72 C44 0.930 . S
H73 C45 0.930 . S
H74 C47 0.929 . S
H75 C48 0.929 . S
H76 C53 0.930 . S
H77 C54 0.930 . S
H78 C56 0.929 . S
H79 C57 0.929 . S
La80 C82 2.928 . S
La80 O100 2.521 . S
La80 O101 2.628 . S
La80 O102 2.554 . S
La80 O103 2.757 . S
La80 O104 2.470 . S
La80 O109 2.482 . S
La80 O111 2.503 . S
La81 C91 2.928 . S
La81 O103 2.482 . S
La81 O105 2.503 . S
La81 O106 2.521 . S
La81 O107 2.628 . S
La81 O108 2.554 . S
La81 O109 2.757 . S
La81 O110 2.470 . S
C82 La80 2.928 . S
C82 C83 1.503 . S
C82 O100 1.261 . S
C82 O101 1.243 . S
C83 C82 1.503 . S
C83 C84 1.394 . S
C83 C88 1.373 . S
C84 C83 1.394 . S
C84 C85 1.380 . S
C84 H112 0.930 . S
C85 C84 1.380 . S
C85 C86 1.376 . S
C85 H113 0.930 . S
C86 C85 1.376 . S
C86 C87 1.370 . S
C87 C86 1.370 . S
C87 C88 1.396 . S
C87 H114 0.929 . S
C88 C83 1.373 . S
C88 C87 1.396 . S
C88 H115 0.929 . S
C89 O102 1.240 . S
C89 O103 1.289 . S
C90 O104 1.258 . S
C90 O105 1.256 . S
C91 La81 2.928 . S
C91 C92 1.503 . S
C91 O106 1.261 . S
C91 O107 1.243 . S
C92 C91 1.503 . S
C92 C93 1.394 . S
C92 C97 1.373 . S
C93 C92 1.394 . S
C93 C94 1.380 . S
C93 H116 0.930 . S
C94 C93 1.380 . S
C94 C95 1.376 . S
C94 H117 0.930 . S
C95 C94 1.376 . S
C95 C96 1.370 . S
C96 C95 1.370 . S
C96 C97 1.396 . S
C96 H118 0.929 . S
C97 C92 1.373 . S
C97 C96 1.396 . S
C97 H119 0.929 . S
C98 O108 1.240 . S
C98 O109 1.289 . S
C99 O110 1.258 . S
C99 O111 1.256 . S
O100 La80 2.521 . S
O100 C82 1.261 . S
O101 La80 2.628 . S
O101 C82 1.243 . S
O102 La80 2.554 . S
O102 C89 1.240 . S
O103 La80 2.757 . S
O103 La81 2.482 . S
O103 C89 1.289 . S
O104 La80 2.470 . S
O104 C90 1.258 . S
O105 La81 2.503 . S
O105 C90 1.256 . S
O106 La81 2.521 . S
O106 C91 1.261 . S
O107 La81 2.628 . S
O107 C91 1.243 . S
O108 La81 2.554 . S
O108 C98 1.240 . S
O109 La80 2.482 . S
O109 La81 2.757 . S
O109 C98 1.289 . S
O110 La81 2.470 . S
O110 C99 1.258 . S
O111 La80 2.503 . S
O111 C99 1.256 . S
H112 C84 0.930 . S
H113 C85 0.930 . S
H114 C87 0.929 . S
H115 C88 0.929 . S
H116 C93 0.930 . S
H117 C94 0.930 . S
H118 C96 0.929 . S
H119 C97 0.929 . S
La120 C122 2.928 . S
La120 O140 2.521 . S
La120 O141 2.628 . S
La120 O142 2.554 . S
La120 O143 2.757 . S
La120 O144 2.470 . S
La120 O149 2.482 . S
La120 O151 2.503 . S
La121 C131 2.928 . S
La121 O143 2.482 . S
La121 O145 2.503 . S
La121 O146 2.521 . S
La121 O147 2.628 . S
La121 O148 2.554 . S
La121 O149 2.757 . S
La121 O150 2.470 . S
C122 La120 2.928 . S
C122 C123 1.503 . S
C122 O140 1.261 . S
C122 O141 1.243 . S
C123 C122 1.503 . S
C123 C124 1.394 . S
C123 C128 1.373 . S
C124 C123 1.394 . S
C124 C125 1.380 . S
C124 H152 0.930 . S
C125 C124 1.380 . S
C125 C126 1.376 . S
C125 H153 0.930 . S
C126 C125 1.376 . S
C126 C127 1.370 . S
C127 C126 1.370 . S
C127 C128 1.396 . S
C127 H154 0.929 . S
C128 C123 1.373 . S
C128 C127 1.396 . S
C128 H155 0.929 . S
C129 O142 1.240 . S
C129 O143 1.289 . S
C130 O144 1.258 . S
C130 O145 1.256 . S
C131 La121 2.928 . S
C131 C132 1.503 . S
C131 O146 1.261 . S
C131 O147 1.243 . S
C132 C131 1.503 . S
C132 C133 1.394 . S
C132 C137 1.373 . S
C133 C132 1.394 . S
C133 C134 1.380 . S
C133 H156 0.930 . S
C134 C133 1.380 . S
C134 C135 1.376 . S
C134 H157 0.930 . S
C135 C134 1.376 . S
C135 C136 1.370 . S
C136 C135 1.370 . S
C136 C137 1.396 . S
C136 H158 0.929 . S
C137 C132 1.373 . S
C137 C136 1.396 . S
C137 H159 0.929 . S
C138 O148 1.240 . S
C138 O149 1.289 . S
C139 O150 1.258 . S
C139 O151 1.256 . S
O140 La120 2.521 . S
O140 C122 1.261 . S
O141 La120 2.628 . S
O141 C122 1.243 . S
O142 La120 2.554 . S
O142 C129 1.240 . S
O143 La120 2.757 . S
O143 La121 2.482 . S
O143 C129 1.289 . S
O144 La120 2.470 . S
O144 C130 1.258 . S
O145 La121 2.503 . S
O145 C130 1.256 . S
O146 La121 2.521 . S
O146 C131 1.261 . S
O147 La121 2.628 . S
O147 C131 1.243 . S
O148 La121 2.554 . S
O148 C138 1.240 . S
O149 La120 2.482 . S
O149 La121 2.757 . S
O149 C138 1.289 . S
O150 La121 2.470 . S
O150 C139 1.258 . S
O151 La120 2.503 . S
O151 C139 1.256 . S
H152 C124 0.930 . S
H153 C125 0.930 . S
H154 C127 0.929 . S
H155 C128 0.929 . S
H156 C133 0.930 . S
H157 C134 0.930 . S
H158 C136 0.929 . S
H159 C137 0.929 . S
La160 C162 2.928 1_556 S
La160 O180 2.521 1_556 S
La160 O181 2.628 1_556 S
La160 O182 2.554 . S
La160 O183 2.757 . S
La160 O184 2.470 1_556 S
La160 O189 2.482 1_556 S
La160 O191 2.503 . S
La161 C171 2.928 1_554 S
La161 O183 2.482 1_554 S
La161 O185 2.503 . S
La161 O186 2.521 1_554 S
La161 O187 2.628 1_554 S
La161 O188 2.554 . S
La161 O189 2.757 . S
La161 O190 2.470 1_554 S
C162 La160 2.928 1_554 S
C162 C163 1.503 . S
C162 O180 1.261 . S
C162 O181 1.243 . S
C163 C162 1.503 . S
C163 C164 1.394 . S
C163 C168 1.373 . S
C164 C163 1.394 . S
C164 C165 1.380 . S
C164 H192 0.930 . S
C165 C164 1.380 . S
C165 C166 1.376 . S
C165 H193 0.930 . S
C166 C165 1.376 . S
C166 C167 1.370 . S
C167 C166 1.370 . S
C167 C168 1.396 . S
C167 H194 0.929 . S
C168 C163 1.373 . S
C168 C167 1.396 . S
C168 H195 0.929 . S
C169 O182 1.240 . S
C169 O183 1.289 . S
C170 O184 1.258 . S
C170 O185 1.256 . S
C171 La161 2.928 1_556 S
C171 C172 1.503 . S
C171 O186 1.261 . S
C171 O187 1.243 . S
C172 C171 1.503 . S
C172 C173 1.394 . S
C172 C177 1.373 . S
C173 C172 1.394 . S
C173 C174 1.380 . S
C173 H196 0.930 . S
C174 C173 1.380 . S
C174 C175 1.376 . S
C174 H197 0.930 . S
C175 C174 1.376 . S
C175 C176 1.370 . S
C176 C175 1.370 . S
C176 C177 1.396 . S
C176 H198 0.929 . S
C177 C172 1.373 . S
C177 C176 1.396 . S
C177 H199 0.929 . S
C178 O188 1.240 . S
C178 O189 1.289 . S
C179 O190 1.258 . S
C179 O191 1.256 . S
O180 La160 2.521 1_554 S
O180 C162 1.261 . S
O181 La160 2.628 1_554 S
O181 C162 1.243 . S
O182 La160 2.554 . S
O182 C169 1.240 . S
O183 La160 2.757 . S
O183 La161 2.482 1_556 S
O183 C169 1.289 . S
O184 La160 2.470 1_554 S
O184 C170 1.258 . S
O185 La161 2.503 . S
O185 C170 1.256 . S
O186 La161 2.521 1_556 S
O186 C171 1.261 . S
O187 La161 2.628 1_556 S
O187 C171 1.243 . S
O188 La161 2.554 . S
O188 C178 1.240 . S
O189 La160 2.482 1_554 S
O189 La161 2.757 . S
O189 C178 1.289 . S
O190 La161 2.470 1_556 S
O190 C179 1.258 . S
O191 La160 2.503 . S
O191 C179 1.256 . S
H192 C164 0.930 . S
H193 C165 0.930 . S
H194 C167 0.929 . S
H195 C168 0.929 . S
H196 C173 0.930 . S
H197 C174 0.930 . S
H198 C176 0.929 . S
H199 C177 0.929 . S
La200 C202 2.928 1_556 S
La200 O220 2.521 1_556 S
La200 O221 2.628 1_556 S
La200 O222 2.554 . S
La200 O223 2.757 . S
La200 O224 2.470 1_556 S
La200 O229 2.482 1_556 S
La200 O231 2.503 . S
La201 C211 2.928 1_554 S
La201 O223 2.482 1_554 S
La201 O225 2.503 . S
La201 O226 2.521 1_554 S
La201 O227 2.628 1_554 S
La201 O228 2.554 . S
La201 O229 2.757 . S
La201 O230 2.470 1_554 S
C202 La200 2.928 1_554 S
C202 C203 1.503 . S
C202 O220 1.261 . S
C202 O221 1.243 . S
C203 C202 1.503 . S
C203 C204 1.394 . S
C203 C208 1.373 . S
C204 C203 1.394 . S
C204 C205 1.380 . S
C204 H232 0.930 . S
C205 C204 1.380 . S
C205 C206 1.376 . S
C205 H233 0.930 . S
C206 C205 1.376 . S
C206 C207 1.370 . S
C207 C206 1.370 . S
C207 C208 1.396 . S
C207 H234 0.929 . S
C208 C203 1.373 . S
C208 C207 1.396 . S
C208 H235 0.929 . S
C209 O222 1.240 . S
C209 O223 1.289 . S
C210 O224 1.258 . S
C210 O225 1.256 . S
C211 La201 2.928 1_556 S
C211 C212 1.503 . S
C211 O226 1.261 . S
C211 O227 1.243 . S
C212 C211 1.503 . S
C212 C213 1.394 . S
C212 C217 1.373 . S
C213 C212 1.394 . S
C213 C214 1.380 . S
C213 H236 0.930 . S
C214 C213 1.380 . S
C214 C215 1.376 . S
C214 H237 0.930 . S
C215 C214 1.376 . S
C215 C216 1.370 . S
C216 C215 1.370 . S
C216 C217 1.396 . S
C216 H238 0.929 . S
C217 C212 1.373 . S
C217 C216 1.396 . S
C217 H239 0.929 . S
C218 O228 1.240 . S
C218 O229 1.289 . S
C219 O230 1.258 . S
C219 O231 1.256 . S
O220 La200 2.521 1_554 S
O220 C202 1.261 . S
O221 La200 2.628 1_554 S
O221 C202 1.243 . S
O222 La200 2.554 . S
O222 C209 1.240 . S
O223 La200 2.757 . S
O223 La201 2.482 1_556 S
O223 C209 1.289 . S
O224 La200 2.470 1_554 S
O224 C210 1.258 . S
O225 La201 2.503 . S
O225 C210 1.256 . S
O226 La201 2.521 1_556 S
O226 C211 1.261 . S
O227 La201 2.628 1_556 S
O227 C211 1.243 . S
O228 La201 2.554 . S
O228 C218 1.240 . S
O229 La200 2.482 1_554 S
O229 La201 2.757 . S
O229 C218 1.289 . S
O230 La201 2.470 1_556 S
O230 C219 1.258 . S
O231 La200 2.503 . S
O231 C219 1.256 . S
H232 C204 0.930 . S
H233 C205 0.930 . S
H234 C207 0.929 . S
H235 C208 0.929 . S
H236 C213 0.930 . S
H237 C214 0.930 . S
H238 C216 0.929 . S
H239 C217 0.929 . S
La240 C242 2.928 1_556 S
La240 O260 2.521 1_556 S
La240 O261 2.628 1_556 S
La240 O262 2.554 . S
La240 O263 2.757 . S
La240 O264 2.470 1_556 S
La240 O269 2.482 1_556 S
La240 O271 2.503 . S
La241 C251 2.928 1_554 S
La241 O263 2.482 1_554 S
La241 O265 2.503 . S
La241 O266 2.521 1_554 S
La241 O267 2.628 1_554 S
La241 O268 2.554 . S
La241 O269 2.757 . S
La241 O270 2.470 1_554 S
C242 La240 2.928 1_554 S
C242 C243 1.503 . S
C242 O260 1.261 . S
C242 O261 1.243 . S
C243 C242 1.503 . S
C243 C244 1.394 . S
C243 C248 1.373 . S
C244 C243 1.394 . S
C244 C245 1.380 . S
C244 H272 0.930 . S
C245 C244 1.380 . S
C245 C246 1.376 . S
C245 H273 0.930 . S
C246 C245 1.376 . S
C246 C247 1.370 . S
C247 C246 1.370 . S
C247 C248 1.396 . S
C247 H274 0.929 . S
C248 C243 1.373 . S
C248 C247 1.396 . S
C248 H275 0.929 . S
C249 O262 1.240 . S
C249 O263 1.289 . S
C250 O264 1.258 . S
C250 O265 1.256 . S
C251 La241 2.928 1_556 S
C251 C252 1.503 . S
C251 O266 1.261 . S
C251 O267 1.243 . S
C252 C251 1.503 . S
C252 C253 1.394 . S
C252 C257 1.373 . S
C253 C252 1.394 . S
C253 C254 1.380 . S
C253 H276 0.930 . S
C254 C253 1.380 . S
C254 C255 1.376 . S
C254 H277 0.930 . S
C255 C254 1.376 . S
C255 C256 1.370 . S
C256 C255 1.370 . S
C256 C257 1.396 . S
C256 H278 0.929 . S
C257 C252 1.373 . S
C257 C256 1.396 . S
C257 H279 0.929 . S
C258 O268 1.240 . S
C258 O269 1.289 . S
C259 O270 1.258 . S
C259 O271 1.256 . S
O260 La240 2.521 1_554 S
O260 C242 1.261 . S
O261 La240 2.628 1_554 S
O261 C242 1.243 . S
O262 La240 2.554 . S
O262 C249 1.240 . S
O263 La240 2.757 . S
O263 La241 2.482 1_556 S
O263 C249 1.289 . S
O264 La240 2.470 1_554 S
O264 C250 1.258 . S
O265 La241 2.503 . S
O265 C250 1.256 . S
O266 La241 2.521 1_556 S
O266 C251 1.261 . S
O267 La241 2.628 1_556 S
O267 C251 1.243 . S
O268 La241 2.554 . S
O268 C258 1.240 . S
O269 La240 2.482 1_554 S
O269 La241 2.757 . S
O269 C258 1.289 . S
O270 La241 2.470 1_556 S
O270 C259 1.258 . S
O271 La240 2.503 . S
O271 C259 1.256 . S
H272 C244 0.930 . S
H273 C245 0.930 . S
H274 C247 0.929 . S
H275 C248 0.929 . S
H276 C253 0.930 . S
H277 C254 0.930 . S
H278 C256 0.929 . S
H279 C257 0.929 . S
La280 C282 2.928 1_556 S
La280 O300 2.521 1_556 S
La280 O301 2.628 1_556 S
La280 O302 2.554 . S
La280 O303 2.757 . S
La280 O304 2.470 1_556 S
La280 O309 2.482 1_556 S
La280 O311 2.503 . S
La281 C291 2.928 1_554 S
La281 O303 2.482 1_554 S
La281 O305 2.503 . S
La281 O306 2.521 1_554 S
La281 O307 2.628 1_554 S
La281 O308 2.554 . S
La281 O309 2.757 . S
La281 O310 2.470 1_554 S
C282 La280 2.928 1_554 S
C282 C283 1.503 . S
C282 O300 1.261 . S
C282 O301 1.243 . S
C283 C282 1.503 . S
C283 C284 1.394 . S
C283 C288 1.373 . S
C284 C283 1.394 . S
C284 C285 1.380 . S
C284 H312 0.930 . S
C285 C284 1.380 . S
C285 C286 1.376 . S
C285 H313 0.930 . S
C286 C285 1.376 . S
C286 C287 1.370 . S
C287 C286 1.370 . S
C287 C288 1.396 . S
C287 H314 0.929 . S
C288 C283 1.373 . S
C288 C287 1.396 . S
C288 H315 0.929 . S
C289 O302 1.240 . S
C289 O303 1.289 . S
C290 O304 1.258 . S
C290 O305 1.256 . S
C291 La281 2.928 1_556 S
C291 C292 1.503 . S
C291 O306 1.261 . S
C291 O307 1.243 . S
C292 C291 1.503 . S
C292 C293 1.394 . S
C292 C297 1.373 . S
C293 C292 1.394 . S
C293 C294 1.380 . S
C293 H316 0.930 . S
C294 C293 1.380 . S
C294 C295 1.376 . S
C294 H317 0.930 . S
C295 C294 1.376 . S
C295 C296 1.370 . S
C296 C295 1.370 . S
C296 C297 1.396 . S
C296 H318 0.929 . S
C297 C292 1.373 . S
C297 C296 1.396 . S
C297 H319 0.929 . S
C298 O308 1.240 . S
C298 O309 1.289 . S
C299 O310 1.258 . S
C299 O311 1.256 . S
O300 La280 2.521 1_554 S
O300 C282 1.261 . S
O301 La280 2.628 1_554 S
O301 C282 1.243 . S
O302 La280 2.554 . S
O302 C289 1.240 . S
O303 La280 2.757 . S
O303 La281 2.482 1_556 S
O303 C289 1.289 . S
O304 La280 2.470 1_554 S
O304 C290 1.258 . S
O305 La281 2.503 . S
O305 C290 1.256 . S
O306 La281 2.521 1_556 S
O306 C291 1.261 . S
O307 La281 2.628 1_556 S
O307 C291 1.243 . S
O308 La281 2.554 . S
O308 C298 1.240 . S
O309 La280 2.482 1_554 S
O309 La281 2.757 . S
O309 C298 1.289 . S
O310 La281 2.470 1_556 S
O310 C299 1.258 . S
O311 La280 2.503 . S
O311 C299 1.256 . S
H312 C284 0.930 . S
H313 C285 0.930 . S
H314 C287 0.929 . S
H315 C288 0.929 . S
H316 C293 0.930 . S
H317 C294 0.930 . S
H318 C296 0.929 . S
H319 C297 0.929 . S
H320 C338 0.951 . S
H321 C340 0.951 . S
H322 C342 0.950 . S
H323 C343 0.950 . S
H324 C345 0.950 . S
H325 C348 0.950 . S
H326 C349 0.950 . S
H327 C351 0.950 . S
H328 C352 0.950 . S
H329 C353 0.951 . S
H330 C355 0.951 . S
H331 C357 0.950 . S
H332 C358 0.950 . S
H333 C360 0.950 . S
H334 C363 0.950 . S
H335 C364 0.950 . S
H336 C366 0.950 . S
H337 C367 0.950 . S
C338 H320 0.951 . S
C338 C339 1.366 . S
C338 C340 1.388 . S
C339 C338 1.366 . S
C339 C343 1.385 . S
C340 H321 0.951 . S
C340 C338 1.388 . S
C340 C341 1.366 . S
C341 C340 1.366 . S
C341 C342 1.414 . S
C341 C344 1.499 . S
C342 H322 0.950 . S
C342 C341 1.414 . S
C342 C343 1.374 . S
C343 H323 0.950 . S
C343 C339 1.385 . S
C343 C342 1.374 . S
C344 C341 1.499 . S
C344 C345 1.373 . S
C344 C346 1.389 . S
C345 H324 0.950 . S
C345 C344 1.373 . S
C345 C361 1.377 . S
C346 C344 1.389 . S
C346 C347 1.524 . S
C346 C360 1.377 . S
C347 C346 1.524 . S
C347 C348 1.397 . S
C347 C352 1.363 . S
C348 H325 0.950 . S
C348 C347 1.397 . S
C348 C349 1.334 . S
C349 H326 0.950 . S
C349 C348 1.334 . S
C349 C350 1.287 . S
C350 C349 1.287 . S
C350 C351 1.524 . S
C350 H369 0.913 . S
C351 H327 0.950 . S
C351 C350 1.524 . S
C351 C352 1.415 . S
C352 H328 0.950 . S
C352 C347 1.363 . S
C352 C351 1.415 . S
C353 H329 0.951 . S
C353 C354 1.366 . S
C353 C355 1.388 . S
C354 C353 1.366 . S
C354 C358 1.385 . S
C355 H330 0.951 . S
C355 C353 1.388 . S
C355 C356 1.366 . S
C356 C355 1.366 . S
C356 C357 1.414 . S
C356 C359 1.499 . S
C357 H331 0.950 . S
C357 C356 1.414 . S
C357 C358 1.374 . S
C358 H332 0.950 . S
C358 C354 1.385 . S
C358 C357 1.374 . S
C359 C356 1.499 . S
C359 C360 1.373 . S
C359 C361 1.389 . S
C360 H333 0.950 . S
C360 C346 1.377 . S
C360 C359 1.373 . S
C361 C345 1.377 . S
C361 C359 1.389 . S
C361 C362 1.524 . S
C362 C361 1.524 . S
C362 C363 1.397 . S
C362 C367 1.363 . S
C363 H334 0.950 . S
C363 C362 1.397 . S
C363 C364 1.334 . S
C364 H335 0.950 . S
C364 C363 1.334 . S
C364 C365 1.287 . S
C365 C364 1.287 . S
C365 C366 1.524 . S
C365 H368 0.999 . S
C366 H336 0.950 . S
C366 C365 1.524 . S
C366 C367 1.415 . S
C367 H337 0.950 . S
C367 C362 1.363 . S
C367 C366 1.415 . S
H368 C365 0.999 . S
H369 C350 0.913 . S
H370 C388 0.951 . S
H371 C390 0.951 . S
H372 C392 0.950 . S
H373 C393 0.950 . S
H374 C395 0.950 . S
H375 C398 0.950 . S
H376 C399 0.950 . S
H377 C401 0.950 . S
H378 C402 0.950 . S
H379 C403 0.951 . S
H380 C405 0.951 . S
H381 C407 0.950 . S
H382 C408 0.950 . S
H383 C410 0.950 . S
H384 C413 0.950 . S
H385 C414 0.950 . S
H386 C416 0.950 . S
H387 C417 0.950 . S
C388 H370 0.951 . S
C388 C389 1.366 . S
C388 C390 1.388 . S
C389 C388 1.366 . S
C389 C393 1.385 . S
C390 H371 0.951 . S
C390 C388 1.388 . S
C390 C391 1.366 . S
C391 C390 1.366 . S
C391 C392 1.414 . S
C391 C394 1.499 . S
C392 H372 0.950 . S
C392 C391 1.414 . S
C392 C393 1.374 . S
C393 H373 0.950 . S
C393 C389 1.385 . S
C393 C392 1.374 . S
C394 C391 1.499 . S
C394 C395 1.373 . S
C394 C396 1.389 . S
C395 H374 0.950 . S
C395 C394 1.373 . S
C395 C411 1.377 . S
C396 C394 1.389 . S
C396 C397 1.524 . S
C396 C410 1.377 . S
C397 C396 1.524 . S
C397 C398 1.397 . S
C397 C402 1.363 . S
C398 H375 0.950 . S
C398 C397 1.397 . S
C398 C399 1.334 . S
C399 H376 0.950 . S
C399 C398 1.334 . S
C399 C400 1.287 . S
C400 C399 1.287 . S
C400 C401 1.524 . S
C400 H419 0.913 . S
C401 H377 0.950 . S
C401 C400 1.524 . S
C401 C402 1.415 . S
C402 H378 0.950 . S
C402 C397 1.363 . S
C402 C401 1.415 . S
C403 H379 0.951 . S
C403 C404 1.366 . S
C403 C405 1.388 . S
C404 C403 1.366 . S
C404 C408 1.385 . S
C405 H380 0.951 . S
C405 C403 1.388 . S
C405 C406 1.366 . S
C406 C405 1.366 . S
C406 C407 1.414 . S
C406 C409 1.499 . S
C407 H381 0.950 . S
C407 C406 1.414 . S
C407 C408 1.374 . S
C408 H382 0.950 . S
C408 C404 1.385 . S
C408 C407 1.374 . S
C409 C406 1.499 . S
C409 C410 1.373 . S
C409 C411 1.389 . S
C410 H383 0.950 . S
C410 C396 1.377 . S
C410 C409 1.373 . S
C411 C395 1.377 . S
C411 C409 1.389 . S
C411 C412 1.524 . S
C412 C411 1.524 . S
C412 C413 1.397 . S
C412 C417 1.363 . S
C413 H384 0.950 . S
C413 C412 1.397 . S
C413 C414 1.334 . S
C414 H385 0.950 . S
C414 C413 1.334 . S
C414 C415 1.287 . S
C415 C414 1.287 . S
C415 C416 1.524 . S
C415 H418 0.999 . S
C416 H386 0.950 . S
C416 C415 1.524 . S
C416 C417 1.415 . S
C417 H387 0.950 . S
C417 C412 1.363 . S
C417 C416 1.415 . S
H418 C415 0.999 . S
H419 C400 0.913 . S
H420 C438 0.951 . S
H421 C440 0.951 . S
H422 C442 0.950 . S
H423 C443 0.950 . S
H424 C445 0.950 . S
H425 C448 0.950 . S
H426 C449 0.950 . S
H427 C451 0.950 . S
H428 C452 0.950 . S
H429 C453 0.951 . S
H430 C455 0.951 . S
H431 C457 0.950 . S
H432 C458 0.950 . S
H433 C460 0.950 . S
H434 C463 0.950 . S
H435 C464 0.950 . S
H436 C466 0.950 . S
H437 C467 0.950 . S
C438 H420 0.951 . S
C438 C439 1.366 . S
C438 C440 1.388 . S
C439 C438 1.366 . S
C439 C443 1.385 . S
C440 H421 0.951 . S
C440 C438 1.388 . S
C440 C441 1.366 . S
C441 C440 1.366 . S
C441 C442 1.414 . S
C441 C444 1.499 . S
C442 H422 0.950 . S
C442 C441 1.414 . S
C442 C443 1.374 . S
C443 H423 0.950 . S
C443 C439 1.385 . S
C443 C442 1.374 . S
C444 C441 1.499 . S
C444 C445 1.373 . S
C444 C446 1.389 . S
C445 H424 0.950 . S
C445 C444 1.373 . S
C445 C461 1.377 . S
C446 C444 1.389 . S
C446 C447 1.524 . S
C446 C460 1.377 . S
C447 C446 1.524 . S
C447 C448 1.397 . S
C447 C452 1.363 . S
C448 H425 0.950 . S
C448 C447 1.397 . S
C448 C449 1.334 . S
C449 H426 0.950 . S
C449 C448 1.334 . S
C449 C450 1.287 . S
C450 C449 1.287 . S
C450 C451 1.524 . S
C450 H469 0.913 . S
C451 H427 0.950 . S
C451 C450 1.524 . S
C451 C452 1.415 . S
C452 H428 0.950 . S
C452 C447 1.363 . S
C452 C451 1.415 . S
C453 H429 0.951 . S
C453 C454 1.366 . S
C453 C455 1.388 . S
C454 C453 1.366 . S
C454 C458 1.385 . S
C455 H430 0.951 . S
C455 C453 1.388 . S
C455 C456 1.366 . S
C456 C455 1.366 . S
C456 C457 1.414 . S
C456 C459 1.499 . S
C457 H431 0.950 . S
C457 C456 1.414 . S
C457 C458 1.374 . S
C458 H432 0.950 . S
C458 C454 1.385 . S
C458 C457 1.374 . S
C459 C456 1.499 . S
C459 C460 1.373 . S
C459 C461 1.389 . S
C460 H433 0.950 . S
C460 C446 1.377 . S
C460 C459 1.373 . S
C461 C445 1.377 . S
C461 C459 1.389 . S
C461 C462 1.524 . S
C462 C461 1.524 . S
C462 C463 1.397 . S
C462 C467 1.363 . S
C463 H434 0.950 . S
C463 C462 1.397 . S
C463 C464 1.334 . S
C464 H435 0.950 . S
C464 C463 1.334 . S
C464 C465 1.287 . S
C465 C464 1.287 . S
C465 C466 1.524 . S
C465 H468 0.999 . S
C466 H436 0.950 . S
C466 C465 1.524 . S
C466 C467 1.415 . S
C467 H437 0.950 . S
C467 C462 1.363 . S
C467 C466 1.415 . S
H468 C465 0.999 . S
H469 C450 0.913 . S
H470 C488 0.951 . S
H471 C490 0.951 . S
H472 C492 0.950 . S
H473 C493 0.950 . S
H474 C495 0.950 . S
H475 C498 0.950 . S
H476 C499 0.950 . S
H477 C501 0.950 . S
H478 C502 0.950 . S
H479 C503 0.951 . S
H480 C505 0.951 . S
H481 C507 0.950 . S
H482 C508 0.950 . S
H483 C510 0.950 . S
H484 C513 0.950 . S
H485 C514 0.950 . S
H486 C516 0.950 . S
H487 C517 0.950 . S
C488 H470 0.951 . S
C488 C489 1.366 . S
C488 C490 1.388 . S
C489 C488 1.366 . S
C489 C493 1.385 . S
C490 H471 0.951 . S
C490 C488 1.388 . S
C490 C491 1.366 . S
C491 C490 1.366 . S
C491 C492 1.414 . S
C491 C494 1.499 . S
C492 H472 0.950 . S
C492 C491 1.414 . S
C492 C493 1.374 . S
C493 H473 0.950 . S
C493 C489 1.385 . S
C493 C492 1.374 . S
C494 C491 1.499 . S
C494 C495 1.373 . S
C494 C496 1.389 . S
C495 H474 0.950 . S
C495 C494 1.373 . S
C495 C511 1.377 . S
C496 C494 1.389 . S
C496 C497 1.524 . S
C496 C510 1.377 . S
C497 C496 1.524 . S
C497 C498 1.397 . S
C497 C502 1.363 . S
C498 H475 0.950 . S
C498 C497 1.397 . S
C498 C499 1.334 . S
C499 H476 0.950 . S
C499 C498 1.334 . S
C499 C500 1.287 . S
C500 C499 1.287 . S
C500 C501 1.524 . S
C500 H519 0.913 . S
C501 H477 0.950 . S
C501 C500 1.524 . S
C501 C502 1.415 . S
C502 H478 0.950 . S
C502 C497 1.363 . S
C502 C501 1.415 . S
C503 H479 0.951 . S
C503 C504 1.366 . S
C503 C505 1.388 . S
C504 C503 1.366 . S
C504 C508 1.385 . S
C505 H480 0.951 . S
C505 C503 1.388 . S
C505 C506 1.366 . S
C506 C505 1.366 . S
C506 C507 1.414 . S
C506 C509 1.499 . S
C507 H481 0.950 . S
C507 C506 1.414 . S
C507 C508 1.374 . S
C508 H482 0.950 . S
C508 C504 1.385 . S
C508 C507 1.374 . S
C509 C506 1.499 . S
C509 C510 1.373 . S
C509 C511 1.389 . S
C510 H483 0.950 . S
C510 C496 1.377 . S
C510 C509 1.373 . S
C511 C495 1.377 . S
C511 C509 1.389 . S
C511 C512 1.524 . S
C512 C511 1.524 . S
C512 C513 1.397 . S
C512 C517 1.363 . S
C513 H484 0.950 . S
C513 C512 1.397 . S
C513 C514 1.334 . S
C514 H485 0.950 . S
C514 C513 1.334 . S
C514 C515 1.287 . S
C515 C514 1.287 . S
C515 C516 1.524 . S
C515 H518 0.999 . S
C516 H486 0.950 . S
C516 C515 1.524 . S
C516 C517 1.415 . S
C517 H487 0.950 . S
C517 C512 1.363 . S
C517 C516 1.415 . S
H518 C515 0.999 . S
H519 C500 0.913 . S
H520 C538 0.951 . S
H521 C540 0.951 . S
H522 C542 0.950 . S
H523 C543 0.950 . S
H524 C545 0.950 . S
H525 C548 0.950 . S
H526 C549 0.950 . S
H527 C551 0.950 . S
H528 C552 0.950 1_545 S
H529 C553 0.951 . S
H530 C555 0.951 . S
H531 C557 0.950 . S
H532 C558 0.950 . S
H533 C560 0.950 . S
H534 C563 0.950 . S
H535 C564 0.950 . S
H536 C566 0.950 . S
H537 C567 0.950 1_565 S
C538 H520 0.951 . S
C538 C539 1.366 . S
C538 C540 1.388 . S
C539 C538 1.366 . S
C539 C543 1.385 . S
C540 H521 0.951 . S
C540 C538 1.388 . S
C540 C541 1.366 . S
C541 C540 1.366 . S
C541 C542 1.414 . S
C541 C544 1.499 . S
C542 H522 0.950 . S
C542 C541 1.414 . S
C542 C543 1.374 . S
C543 H523 0.950 . S
C543 C539 1.385 . S
C543 C542 1.374 . S
C544 C541 1.499 . S
C544 C545 1.373 . S
C544 C546 1.389 . S
C545 H524 0.950 . S
C545 C544 1.373 . S
C545 C561 1.377 1_565 S
C546 C544 1.389 . S
C546 C547 1.524 . S
C546 C560 1.377 1_565 S
C547 C546 1.524 . S
C547 C548 1.397 . S
C547 C552 1.363 . S
C548 H525 0.950 . S
C548 C547 1.397 . S
C548 C549 1.334 . S
C549 H526 0.950 . S
C549 C548 1.334 . S
C549 C550 1.287 . S
C550 C549 1.287 . S
C550 C551 1.524 . S
C550 H569 0.913 . S
C551 H527 0.950 . S
C551 C550 1.524 . S
C551 C552 1.415 . S
C552 H528 0.950 1_565 S
C552 C547 1.363 . S
C552 C551 1.415 . S
C553 H529 0.951 . S
C553 C554 1.366 . S
C553 C555 1.388 . S
C554 C553 1.366 . S
C554 C558 1.385 . S
C555 H530 0.951 . S
C555 C553 1.388 . S
C555 C556 1.366 . S
C556 C555 1.366 . S
C556 C557 1.414 . S
C556 C559 1.499 . S
C557 H531 0.950 . S
C557 C556 1.414 . S
C557 C558 1.374 . S
C558 H532 0.950 . S
C558 C554 1.385 . S
C558 C557 1.374 . S
C559 C556 1.499 . S
C559 C560 1.373 . S
C559 C561 1.389 . S
C560 H533 0.950 . S
C560 C546 1.377 1_545 S
C560 C559 1.373 . S
C561 C545 1.377 1_545 S
C561 C559 1.389 . S
C561 C562 1.524 . S
C562 C561 1.524 . S
C562 C563 1.397 . S
C562 C567 1.363 . S
C563 H534 0.950 . S
C563 C562 1.397 . S
C563 C564 1.334 . S
C564 H535 0.950 . S
C564 C563 1.334 . S
C564 C565 1.287 . S
C565 C564 1.287 . S
C565 C566 1.524 . S
C565 H568 0.999 . S
C566 H536 0.950 . S
C566 C565 1.524 . S
C566 C567 1.415 . S
C567 H537 0.950 1_545 S
C567 C562 1.363 . S
C567 C566 1.415 . S
H568 C565 0.999 . S
H569 C550 0.913 . S
H570 C588 0.951 . S
H571 C590 0.951 . S
H572 C592 0.950 . S
H573 C593 0.950 . S
H574 C595 0.950 . S
H575 C598 0.950 . S
H576 C599 0.950 . S
H577 C601 0.950 . S
H578 C602 0.950 . S
H579 C603 0.951 . S
H580 C605 0.951 . S
H581 C607 0.950 . S
H582 C608 0.950 . S
H583 C610 0.950 . S
H584 C613 0.950 . S
H585 C614 0.950 . S
H586 C616 0.950 . S
H587 C617 0.950 . S
C588 H570 0.951 . S
C588 C589 1.366 . S
C588 C590 1.388 . S
C589 C588 1.366 . S
C589 C593 1.385 . S
C590 H571 0.951 . S
C590 C588 1.388 . S
C590 C591 1.366 . S
C591 C590 1.366 . S
C591 C592 1.414 . S
C591 C594 1.499 . S
C592 H572 0.950 . S
C592 C591 1.414 . S
C592 C593 1.374 . S
C593 H573 0.950 . S
C593 C589 1.385 . S
C593 C592 1.374 . S
C594 C591 1.499 . S
C594 C595 1.373 . S
C594 C596 1.389 . S
C595 H574 0.950 . S
C595 C594 1.373 . S
C595 C611 1.377 . S
C596 C594 1.389 . S
C596 C597 1.524 . S
C596 C610 1.377 . S
C597 C596 1.524 . S
C597 C598 1.397 . S
C597 C602 1.363 . S
C598 H575 0.950 . S
C598 C597 1.397 . S
C598 C599 1.334 . S
C599 H576 0.950 . S
C599 C598 1.334 . S
C599 C600 1.287 . S
C600 C599 1.287 . S
C600 C601 1.524 . S
C600 H619 0.913 . S
C601 H577 0.950 . S
C601 C600 1.524 . S
C601 C602 1.415 . S
C602 H578 0.950 . S
C602 C597 1.363 . S
C602 C601 1.415 . S
C603 H579 0.951 . S
C603 C604 1.366 . S
C603 C605 1.388 . S
C604 C603 1.366 . S
C604 C608 1.385 . S
C605 H580 0.951 . S
C605 C603 1.388 . S
C605 C606 1.366 . S
C606 C605 1.366 . S
C606 C607 1.414 . S
C606 C609 1.499 . S
C607 H581 0.950 . S
C607 C606 1.414 . S
C607 C608 1.374 . S
C608 H582 0.950 . S
C608 C604 1.385 . S
C608 C607 1.374 . S
C609 C606 1.499 . S
C609 C610 1.373 . S
C609 C611 1.389 . S
C610 H583 0.950 . S
C610 C596 1.377 . S
C610 C609 1.373 . S
C611 C595 1.377 . S
C611 C609 1.389 . S
C611 C612 1.524 . S
C612 C611 1.524 . S
C612 C613 1.397 . S
C612 C617 1.363 . S
C613 H584 0.950 . S
C613 C612 1.397 . S
C613 C614 1.334 . S
C614 H585 0.950 . S
C614 C613 1.334 . S
C614 C615 1.287 . S
C615 C614 1.287 . S
C615 C616 1.524 . S
C615 H618 0.999 . S
C616 H586 0.950 . S
C616 C615 1.524 . S
C616 C617 1.415 . S
C617 H587 0.950 . S
C617 C612 1.363 . S
C617 C616 1.415 . S
H618 C615 0.999 . S
H619 C600 0.913 . S
H620 C638 0.951 . S
H621 C640 0.951 . S
H622 C642 0.950 . S
H623 C643 0.950 . S
H624 C645 0.950 . S
H625 C648 0.950 . S
H626 C649 0.950 . S
H627 C651 0.950 . S
H628 C652 0.950 1_545 S
H629 C653 0.951 . S
H630 C655 0.951 . S
H631 C657 0.950 . S
H632 C658 0.950 . S
H633 C660 0.950 . S
H634 C663 0.950 . S
H635 C664 0.950 . S
H636 C666 0.950 . S
H637 C667 0.950 1_565 S
C638 H620 0.951 . S
C638 C639 1.366 . S
C638 C640 1.388 . S
C639 C638 1.366 . S
C639 C643 1.385 . S
C640 H621 0.951 . S
C640 C638 1.388 . S
C640 C641 1.366 . S
C641 C640 1.366 . S
C641 C642 1.414 . S
C641 C644 1.499 . S
C642 H622 0.950 . S
C642 C641 1.414 . S
C642 C643 1.374 . S
C643 H623 0.950 . S
C643 C639 1.385 . S
C643 C642 1.374 . S
C644 C641 1.499 . S
C644 C645 1.373 . S
C644 C646 1.389 . S
C645 H624 0.950 . S
C645 C644 1.373 . S
C645 C661 1.377 1_565 S
C646 C644 1.389 . S
C646 C647 1.524 . S
C646 C660 1.377 1_565 S
C647 C646 1.524 . S
C647 C648 1.397 . S
C647 C652 1.363 . S
C648 H625 0.950 . S
C648 C647 1.397 . S
C648 C649 1.334 . S
C649 H626 0.950 . S
C649 C648 1.334 . S
C649 C650 1.287 . S
C650 C649 1.287 . S
C650 C651 1.524 . S
C650 H669 0.913 . S
C651 H627 0.950 . S
C651 C650 1.524 . S
C651 C652 1.415 . S
C652 H628 0.950 1_565 S
C652 C647 1.363 . S
C652 C651 1.415 . S
C653 H629 0.951 . S
C653 C654 1.366 . S
C653 C655 1.388 . S
C654 C653 1.366 . S
C654 C658 1.385 . S
C655 H630 0.951 . S
C655 C653 1.388 . S
C655 C656 1.366 . S
C656 C655 1.366 . S
C656 C657 1.414 . S
C656 C659 1.499 . S
C657 H631 0.950 . S
C657 C656 1.414 . S
C657 C658 1.374 . S
C658 H632 0.950 . S
C658 C654 1.385 . S
C658 C657 1.374 . S
C659 C656 1.499 . S
C659 C660 1.373 . S
C659 C661 1.389 . S
C660 H633 0.950 . S
C660 C646 1.377 1_545 S
C660 C659 1.373 . S
C661 C645 1.377 1_545 S
C661 C659 1.389 . S
C661 C662 1.524 . S
C662 C661 1.524 . S
C662 C663 1.397 . S
C662 C667 1.363 . S
C663 H634 0.950 . S
C663 C662 1.397 . S
C663 C664 1.334 . S
C664 H635 0.950 . S
C664 C663 1.334 . S
C664 C665 1.287 . S
C665 C664 1.287 . S
C665 C666 1.524 . S
C665 H668 0.999 . S
C666 H636 0.950 . S
C666 C665 1.524 . S
C666 C667 1.415 . S
C667 H637 0.950 1_545 S
C667 C662 1.363 . S
C667 C666 1.415 . S
H668 C665 0.999 . S
H669 C650 0.913 . S
H670 C688 0.951 . S
H671 C690 0.951 . S
H672 C692 0.950 . S
H673 C693 0.950 . S
H674 C695 0.950 . S
H675 C698 0.950 . S
H676 C699 0.950 . S
H677 C701 0.950 . S
H678 C702 0.950 . S
H679 C703 0.951 . S
H680 C705 0.951 . S
H681 C707 0.950 . S
H682 C708 0.950 . S
H683 C710 0.950 . S
H684 C713 0.950 . S
H685 C714 0.950 . S
H686 C716 0.950 . S
H687 C717 0.950 . S
C688 H670 0.951 . S
C688 C689 1.366 . S
C688 C690 1.388 . S
C689 C688 1.366 . S
C689 C693 1.385 . S
C690 H671 0.951 . S
C690 C688 1.388 . S
C690 C691 1.366 . S
C691 C690 1.366 . S
C691 C692 1.414 . S
C691 C694 1.499 . S
C692 H672 0.950 . S
C692 C691 1.414 . S
C692 C693 1.374 . S
C693 H673 0.950 . S
C693 C689 1.385 . S
C693 C692 1.374 . S
C694 C691 1.499 . S
C694 C695 1.373 . S
C694 C696 1.389 . S
C695 H674 0.950 . S
C695 C694 1.373 . S
C695 C711 1.377 . S
C696 C694 1.389 . S
C696 C697 1.524 . S
C696 C710 1.377 . S
C697 C696 1.524 . S
C697 C698 1.397 . S
C697 C702 1.363 . S
C698 H675 0.950 . S
C698 C697 1.397 . S
C698 C699 1.334 . S
C699 H676 0.950 . S
C699 C698 1.334 . S
C699 C700 1.287 . S
C700 C699 1.287 . S
C700 C701 1.524 . S
C700 H719 0.913 . S
C701 H677 0.950 . S
C701 C700 1.524 . S
C701 C702 1.415 . S
C702 H678 0.950 . S
C702 C697 1.363 . S
C702 C701 1.415 . S
C703 H679 0.951 . S
C703 C704 1.366 . S
C703 C705 1.388 . S
C704 C703 1.366 . S
C704 C708 1.385 . S
C705 H680 0.951 . S
C705 C703 1.388 . S
C705 C706 1.366 . S
C706 C705 1.366 . S
C706 C707 1.414 . S
C706 C709 1.499 . S
C707 H681 0.950 . S
C707 C706 1.414 . S
C707 C708 1.374 . S
C708 H682 0.950 . S
C708 C704 1.385 . S
C708 C707 1.374 . S
C709 C706 1.499 . S
C709 C710 1.373 . S
C709 C711 1.389 . S
C710 H683 0.950 . S
C710 C696 1.377 . S
C710 C709 1.373 . S
C711 C695 1.377 . S
C711 C709 1.389 . S
C711 C712 1.524 . S
C712 C711 1.524 . S
C712 C713 1.397 . S
C712 C717 1.363 . S
C713 H684 0.950 . S
C713 C712 1.397 . S
C713 C714 1.334 . S
C714 H685 0.950 . S
C714 C713 1.334 . S
C714 C715 1.287 . S
C715 C714 1.287 . S
C715 C716 1.524 . S
C715 H718 0.999 . S
C716 H686 0.950 . S
C716 C715 1.524 . S
C716 C717 1.415 . S
C717 H687 0.950 . S
C717 C712 1.363 . S
C717 C716 1.415 . S
H718 C715 0.999 . S
H719 C700 0.913 . S
H720 C738 0.951 . S
H721 C740 0.951 . S
H722 C742 0.950 . S
H723 C743 0.950 . S
H724 C745 0.950 . S
H725 C748 0.950 . S
H726 C749 0.950 . S
H727 C751 0.950 . S
H728 C752 0.950 1_556 S
H729 C753 0.951 . S
H730 C755 0.951 . S
H731 C757 0.950 . S
H732 C758 0.950 . S
H733 C760 0.950 . S
H734 C763 0.950 . S
H735 C764 0.950 . S
H736 C766 0.950 . S
H737 C767 0.950 1_554 S
C738 H720 0.951 . S
C738 C739 1.366 . S
C738 C740 1.388 . S
C739 C738 1.366 . S
C739 C743 1.385 1_556 S
C740 H721 0.951 . S
C740 C738 1.388 . S
C740 C741 1.370 . S
C741 C740 1.370 . S
C741 C742 1.410 1_556 S
C741 C744 1.498 1_556 S
C742 H722 0.950 . S
C742 C741 1.410 1_554 S
C742 C743 1.374 . S
C743 H723 0.950 . S
C743 C739 1.385 1_554 S
C743 C742 1.374 . S
C744 C741 1.498 1_554 S
C744 C745 1.370 1_554 S
C744 C746 1.392 . S
C745 H724 0.950 . S
C745 C744 1.370 1_556 S
C745 C761 1.377 . S
C746 C744 1.392 . S
C746 C747 1.524 . S
C746 C760 1.377 . S
C747 C746 1.524 . S
C747 C748 1.397 . S
C747 C752 1.363 . S
C748 H725 0.950 . S
C748 C747 1.397 . S
C748 C749 1.334 . S
C749 H726 0.950 . S
C749 C748 1.334 . S
C749 C750 1.287 . S
C750 C749 1.287 . S
C750 C751 1.524 . S
C750 H769 0.913 . S
C751 H727 0.950 . S
C751 C750 1.524 . S
C751 C752 1.415 . S
C752 H728 0.950 1_554 S
C752 C747 1.363 . S
C752 C751 1.415 . S
C753 H729 0.951 . S
C753 C754 1.366 1_554 S
C753 C755 1.388 . S
C754 C753 1.366 1_556 S
C754 C758 1.385 . S
C755 H730 0.951 . S
C755 C753 1.388 . S
C755 C756 1.366 1_554 S
C756 C755 1.366 1_556 S
C756 C757 1.414 . S
C756 C759 1.499 . S
C757 H731 0.950 . S
C757 C756 1.414 . S
C757 C758 1.374 . S
C758 H732 0.950 . S
C758 C754 1.385 . S
C758 C757 1.374 . S
C759 C756 1.499 . S
C759 C760 1.373 1_556 S
C759 C761 1.389 . S
C760 H733 0.950 . S
C760 C746 1.377 . S
C760 C759 1.373 1_554 S
C761 C745 1.377 . S
C761 C759 1.389 . S
C761 C762 1.524 . S
C762 C761 1.524 . S
C762 C763 1.397 . S
C762 C767 1.363 . S
C763 H734 0.950 . S
C763 C762 1.397 . S
C763 C764 1.334 . S
C764 H735 0.950 . S
C764 C763 1.334 . S
C764 C765 1.287 . S
C765 C764 1.287 . S
C765 C766 1.524 . S
C765 H768 0.999 . S
C766 H736 0.950 . S
C766 C765 1.524 . S
C766 C767 1.415 . S
C767 H737 0.950 1_556 S
C767 C762 1.363 . S
C767 C766 1.415 . S
H768 C765 0.999 . S
H769 C750 0.913 . S
H770 C788 0.951 . S
H771 C790 0.951 . S
H772 C792 0.950 . S
H773 C793 0.950 . S
H774 C795 0.950 . S
H775 C798 0.950 . S
H776 C799 0.950 . S
H777 C801 0.950 . S
H778 C802 0.949 . S
H779 C803 0.951 . S
H780 C805 0.951 . S
H781 C807 0.950 . S
H782 C808 0.950 . S
H783 C810 0.950 . S
H784 C813 0.950 . S
H785 C814 0.950 . S
H786 C816 0.950 . S
H787 C817 0.950 . S
C788 H770 0.951 . S
C788 C789 1.366 . S
C788 C790 1.388 . S
C789 C788 1.366 . S
C789 C793 1.385 1_556 S
C790 H771 0.951 . S
C790 C788 1.388 . S
C790 C791 1.366 . S
C791 C790 1.366 . S
C791 C792 1.414 1_556 S
C791 C794 1.499 . S
C792 H772 0.950 . S
C792 C791 1.414 1_554 S
C792 C793 1.374 . S
C793 H773 0.950 . S
C793 C789 1.385 1_554 S
C793 C792 1.374 . S
C794 C791 1.499 . S
C794 C795 1.373 1_556 S
C794 C796 1.389 . S
C795 H774 0.950 . S
C795 C794 1.373 1_554 S
C795 C811 1.377 1_565 S
C796 C794 1.389 . S
C796 C797 1.524 . S
C796 C810 1.377 1_565 S
C797 C796 1.524 . S
C797 C798 1.397 . S
C797 C802 1.363 . S
C798 H775 0.950 . S
C798 C797 1.397 . S
C798 C799 1.334 . S
C799 H776 0.950 . S
C799 C798 1.334 . S
C799 C800 1.287 . S
C800 C799 1.287 . S
C800 C801 1.524 . S
C800 H819 0.913 . S
C801 H777 0.950 . S
C801 C800 1.524 . S
C801 C802 1.415 . S
C802 H778 0.949 . S
C802 C797 1.363 . S
C802 C801 1.415 . S
C803 H779 0.951 . S
C803 C804 1.366 1_554 S
C803 C805 1.388 . S
C804 C803 1.366 1_556 S
C804 C808 1.385 . S
C805 H780 0.951 . S
C805 C803 1.388 . S
C805 C806 1.365 . S
C806 C805 1.365 . S
C806 C807 1.414 1_554 S
C806 C809 1.499 . S
C807 H781 0.950 . S
C807 C806 1.414 1_556 S
C807 C808 1.374 . S
C808 H782 0.950 . S
C808 C804 1.385 . S
C808 C807 1.374 . S
C809 C806 1.499 . S
C809 C810 1.374 1_554 S
C809 C811 1.388 . S
C810 H783 0.950 . S
C810 C796 1.377 1_545 S
C810 C809 1.374 1_556 S
C811 C795 1.377 1_545 S
C811 C809 1.388 . S
C811 C812 1.524 . S
C812 C811 1.524 . S
C812 C813 1.397 . S
C812 C817 1.363 . S
C813 H784 0.950 . S
C813 C812 1.397 . S
C813 C814 1.334 . S
C814 H785 0.950 . S
C814 C813 1.334 . S
C814 C815 1.287 . S
C815 C814 1.287 . S
C815 C816 1.524 . S
C815 H818 0.999 . S
C816 H786 0.950 . S
C816 C815 1.524 . S
C816 C817 1.415 . S
C817 H787 0.950 . S
C817 C812 1.363 . S
C817 C816 1.415 . S
H818 C815 0.999 . S
H819 C800 0.913 . S
H820 C838 0.951 . S
H821 C840 0.951 . S
H822 C842 0.950 . S
H823 C843 0.950 . S
H824 C845 0.950 . S
H825 C848 0.950 . S
H826 C849 0.950 . S
H827 C851 0.950 . S
H828 C852 0.950 1_556 S
H829 C853 0.951 . S
H830 C855 0.951 . S
H831 C857 0.950 . S
H832 C858 0.950 . S
H833 C860 0.950 . S
H834 C863 0.950 . S
H835 C864 0.950 . S
H836 C866 0.950 . S
H837 C867 0.950 1_554 S
C838 H820 0.951 . S
C838 C839 1.366 1_556 S
C838 C840 1.388 . S
C839 C838 1.366 1_554 S
C839 C843 1.385 . S
C840 H821 0.951 . S
C840 C838 1.388 . S
C840 C841 1.366 1_556 S
C841 C840 1.366 1_554 S
C841 C842 1.414 . S
C841 C844 1.499 . S
C842 H822 0.950 . S
C842 C841 1.414 . S
C842 C843 1.374 . S
C843 H823 0.950 . S
C843 C839 1.385 . S
C843 C842 1.374 . S
C844 C841 1.499 . S
C844 C845 1.373 1_554 S
C844 C846 1.389 . S
C845 H824 0.950 . S
C845 C844 1.373 1_556 S
C845 C861 1.377 . S
C846 C844 1.389 . S
C846 C847 1.524 . S
C846 C860 1.377 . S
C847 C846 1.524 . S
C847 C848 1.397 . S
C847 C852 1.363 . S
C848 H825 0.950 . S
C848 C847 1.397 . S
C848 C849 1.334 . S
C849 H826 0.950 . S
C849 C848 1.334 . S
C849 C850 1.287 . S
C850 C849 1.287 . S
C850 C851 1.524 . S
C850 H869 0.913 . S
C851 H827 0.950 . S
C851 C850 1.524 . S
C851 C852 1.415 . S
C852 H828 0.950 1_554 S
C852 C847 1.363 . S
C852 C851 1.415 . S
C853 H829 0.951 . S
C853 C854 1.366 . S
C853 C855 1.388 . S
C854 C853 1.366 . S
C854 C858 1.385 1_554 S
C855 H830 0.951 . S
C855 C853 1.388 . S
C855 C856 1.369 . S
C856 C855 1.369 . S
C856 C857 1.410 1_554 S
C856 C859 1.498 1_554 S
C857 H831 0.950 . S
C857 C856 1.410 1_556 S
C857 C858 1.374 . S
C858 H832 0.950 . S
C858 C854 1.385 1_556 S
C858 C857 1.374 . S
C859 C856 1.498 1_556 S
C859 C860 1.369 1_556 S
C859 C861 1.392 . S
C860 H833 0.950 . S
C860 C846 1.377 . S
C860 C859 1.369 1_554 S
C861 C845 1.377 . S
C861 C859 1.392 . S
C861 C862 1.524 . S
C862 C861 1.524 . S
C862 C863 1.397 . S
C862 C867 1.363 . S
C863 H834 0.950 . S
C863 C862 1.397 . S
C863 C864 1.334 . S
C864 H835 0.950 . S
C864 C863 1.334 . S
C864 C865 1.287 . S
C865 C864 1.287 . S
C865 C866 1.524 . S
C865 H868 0.999 . S
C866 H836 0.950 . S
C866 C865 1.524 . S
C866 C867 1.415 . S
C867 H837 0.950 1_556 S
C867 C862 1.363 . S
C867 C866 1.415 . S
H868 C865 0.999 . S
H869 C850 0.913 . S
H870 C888 0.951 . S
H871 C890 0.951 . S
H872 C892 0.950 . S
H873 C893 0.950 . S
H874 C895 0.950 . S
H875 C898 0.950 . S
H876 C899 0.950 . S
H877 C901 0.950 . S
H878 C902 0.950 1_564 S
H879 C903 0.951 . S
H880 C905 0.951 . S
H881 C907 0.950 . S
H882 C908 0.950 . S
H883 C910 0.950 . S
H884 C913 0.950 . S
H885 C914 0.950 . S
H886 C916 0.950 . S
H887 C917 0.967 1_556 S
C888 H870 0.951 . S
C888 C889 1.366 . S
C888 C890 1.388 . S
C889 C888 1.366 . S
C889 C893 1.385 1_554 S
C890 H871 0.951 . S
C890 C888 1.388 . S
C890 C891 1.369 . S
C891 C890 1.369 . S
C891 C892 1.411 1_554 S
C891 C894 1.498 1_554 S
C892 H872 0.950 . S
C892 C891 1.411 1_556 S
C892 C893 1.374 . S
C893 H873 0.950 . S
C893 C889 1.385 1_556 S
C893 C892 1.374 . S
C894 C891 1.498 1_556 S
C894 C895 1.369 1_556 S
C894 C896 1.393 . S
C895 H874 0.950 . S
C895 C894 1.369 1_554 S
C895 C911 1.377 1_545 S
C896 C894 1.393 . S
C896 C897 1.524 . S
C896 C910 1.377 1_545 S
C897 C896 1.524 . S
C897 C898 1.397 . S
C897 C902 1.363 . S
C898 H875 0.950 . S
C898 C897 1.397 . S
C898 C899 1.334 . S
C899 H876 0.950 . S
C899 C898 1.334 . S
C899 C900 1.287 . S
C900 C899 1.287 . S
C900 C901 1.524 . S
C900 H919 0.913 . S
C901 H877 0.950 . S
C901 C900 1.524 . S
C901 C902 1.415 . S
C902 H878 0.950 1_546 S
C902 C897 1.363 . S
C902 C901 1.415 . S
C903 H879 0.951 . S
C903 C904 1.366 1_556 S
C903 C905 1.388 . S
C904 C903 1.366 1_554 S
C904 C908 1.385 . S
C905 H880 0.951 . S
C905 C903 1.388 . S
C905 C906 1.366 1_556 S
C906 C905 1.366 1_554 S
C906 C907 1.414 . S
C906 C909 1.499 . S
C907 H881 0.950 . S
C907 C906 1.414 . S
C907 C908 1.374 . S
C908 H882 0.950 . S
C908 C904 1.385 . S
C908 C907 1.374 . S
C909 C906 1.499 . S
C909 C910 1.373 1_554 S
C909 C911 1.389 . S
C910 H883 0.950 . S
C910 C896 1.377 1_565 S
C910 C909 1.373 1_556 S
C911 C895 1.377 1_565 S
C911 C909 1.389 . S
C911 C912 1.524 . S
C912 C911 1.524 . S
C912 C913 1.397 . S
C912 C917 1.363 . S
C913 H884 0.950 . S
C913 C912 1.397 . S
C913 C914 1.334 . S
C914 H885 0.950 . S
C914 C913 1.334 . S
C914 C915 1.287 . S
C915 C914 1.287 . S
C915 C916 1.524 . S
C915 H918 0.999 . S
C916 H886 0.950 . S
C916 C915 1.524 . S
C916 C917 1.415 . S
C917 H887 0.967 1_554 S
C917 C912 1.363 . S
C917 C916 1.415 . S
H918 C915 0.999 . S
H919 C900 0.913 . S
H920 C938 0.951 . S
H921 C940 0.951 . S
H922 C942 0.950 . S
H923 C943 0.950 . S
H924 C945 0.950 . S
H925 C948 0.950 . S
H926 C949 0.950 . S
H927 C951 0.950 . S
H928 C952 0.950 1_556 S
H929 C953 0.951 . S
H930 C955 0.951 . S
H931 C957 0.950 . S
H932 C958 0.950 . S
H933 C960 0.950 . S
H934 C963 0.950 . S
H935 C964 0.950 . S
H936 C966 0.950 . S
H937 C967 0.950 . S
C938 H920 0.951 . S
C938 C939 1.366 . S
C938 C940 1.388 . S
C939 C938 1.366 . S
C939 C943 1.385 . S
C940 H921 0.951 . S
C940 C938 1.388 . S
C940 C941 1.366 . S
C941 C940 1.366 . S
C941 C942 1.414 . S
C941 C944 1.499 . S
C942 H922 0.950 . S
C942 C941 1.414 . S
C942 C943 1.374 . S
C943 H923 0.950 . S
C943 C939 1.385 . S
C943 C942 1.374 . S
C944 C941 1.499 . S
C944 C945 1.373 1_554 S
C944 C946 1.389 1_554 S
C945 H924 0.950 . S
C945 C944 1.373 1_556 S
C945 C961 1.377 . S
C946 C944 1.389 1_556 S
C946 C947 1.524 1_556 S
C946 C960 1.377 . S
C947 C946 1.524 1_554 S
C947 C948 1.397 . S
C947 C952 1.363 . S
C948 H925 0.950 . S
C948 C947 1.397 . S
C948 C949 1.334 . S
C949 H926 0.950 . S
C949 C948 1.334 . S
C949 C950 1.287 . S
C950 C949 1.287 . S
C950 C951 1.524 . S
C950 H969 0.913 . S
C951 H927 0.950 . S
C951 C950 1.524 . S
C951 C952 1.415 . S
C952 H928 0.950 1_554 S
C952 C947 1.363 . S
C952 C951 1.415 . S
C953 H929 0.951 . S
C953 C954 1.366 . S
C953 C955 1.388 . S
C954 C953 1.366 . S
C954 C958 1.385 . S
C955 H930 0.951 . S
C955 C953 1.388 . S
C955 C956 1.366 . S
C956 C955 1.366 . S
C956 C957 1.414 . S
C956 C959 1.499 . S
C957 H931 0.950 . S
C957 C956 1.414 . S
C957 C958 1.374 . S
C958 H932 0.950 . S
C958 C954 1.385 . S
C958 C957 1.374 . S
C959 C956 1.499 . S
C959 C960 1.373 . S
C959 C961 1.389 . S
C960 H933 0.950 . S
C960 C946 1.377 . S
C960 C959 1.373 . S
C961 C945 1.377 . S
C961 C959 1.389 . S
C961 C962 1.524 . S
C962 C961 1.524 . S
C962 C963 1.397 . S
C962 C967 1.363 . S
C963 H934 0.950 . S
C963 C962 1.397 . S
C963 C964 1.334 . S
C964 H935 0.950 . S
C964 C963 1.334 . S
C964 C965 1.287 . S
C965 C964 1.287 . S
C965 C966 1.524 . S
C965 H968 0.999 . S
C966 H936 0.950 . S
C966 C965 1.524 . S
C966 C967 1.415 . S
C967 H937 0.950 . S
C967 C962 1.363 . S
C967 C966 1.415 . S
H968 C965 0.999 . S
H969 C950 0.913 . S
H970 C988 0.951 . S
H971 C990 0.951 . S
H972 C992 0.950 . S
H973 C993 0.950 . S
H974 C995 0.950 1_554 S
H975 C998 0.950 . S
H976 C999 0.950 . S
H977 C1001 0.950 . S
H978 C1002 0.950 . S
H979 C1003 0.951 . S
H980 C1005 0.951 . S
H981 C1007 0.950 . S
H982 C1008 0.950 . S
H983 C1010 0.950 . S
H984 C1013 0.950 . S
H985 C1014 0.950 . S
H986 C1016 0.950 . S
H987 C1017 0.950 . S
C988 H970 0.951 . S
C988 C989 1.366 . S
C988 C990 1.388 . S
C989 C988 1.366 . S
C989 C993 1.385 . S
C990 H971 0.951 . S
C990 C988 1.388 . S
C990 C991 1.366 . S
C991 C990 1.366 . S
C991 C992 1.414 . S
C991 C994 1.499 . S
C992 H972 0.950 . S
C992 C991 1.414 . S
C992 C993 1.374 . S
C993 H973 0.950 . S
C993 C989 1.385 . S
C993 C992 1.374 . S
C994 C991 1.499 . S
C994 C995 1.373 1_554 S
C994 C996 1.389 1_554 S
C995 H974 0.950 1_556 S
C995 C994 1.373 1_556 S
C995 C1011 1.377 . S
C996 C994 1.389 1_556 S
C996 C997 1.524 . S
C996 C1010 1.377 . S
C997 C996 1.524 . S
C997 C998 1.397 1_556 S
C997 C1002 1.363 . S
C998 H975 0.950 . S
C998 C997 1.397 1_554 S
C998 C999 1.334 . S
C999 H976 0.950 . S
C999 C998 1.334 . S
C999 C1000 1.287 . S
C1000 C999 1.287 . S
C1000 C1001 1.524 1_554 S
C1000 H1019 0.913 . S
C1001 H977 0.950 . S
C1001 C1000 1.524 1_556 S
C1001 C1002 1.415 . S
C1002 H978 0.950 . S
C1002 C997 1.363 . S
C1002 C1001 1.415 . S
C1003 H979 0.951 . S
C1003 C1004 1.366 . S
C1003 C1005 1.388 . S
C1004 C1003 1.366 . S
C1004 C1008 1.385 . S
C1005 H980 0.951 . S
C1005 C1003 1.388 . S
C1005 C1006 1.366 . S
C1006 C1005 1.366 . S
C1006 C1007 1.414 . S
C1006 C1009 1.499 . S
C1007 H981 0.950 . S
C1007 C1006 1.414 . S
C1007 C1008 1.374 . S
C1008 H982 0.950 . S
C1008 C1004 1.385 . S
C1008 C1007 1.374 . S
C1009 C1006 1.499 . S
C1009 C1010 1.373 . S
C1009 C1011 1.389 . S
C1010 H983 0.950 . S
C1010 C996 1.377 . S
C1010 C1009 1.373 . S
C1011 C995 1.377 . S
C1011 C1009 1.389 . S
C1011 C1012 1.524 . S
C1012 C1011 1.524 . S
C1012 C1013 1.397 . S
C1012 C1017 1.363 . S
C1013 H984 0.950 . S
C1013 C1012 1.397 . S
C1013 C1014 1.334 . S
C1014 H985 0.950 . S
C1014 C1013 1.334 . S
C1014 C1015 1.287 . S
C1015 C1014 1.287 . S
C1015 C1016 1.524 . S
C1015 H1018 0.999 . S
C1016 H986 0.950 . S
C1016 C1015 1.524 . S
C1016 C1017 1.415 . S
C1017 H987 0.950 . S
C1017 C1012 1.363 . S
C1017 C1016 1.415 . S
H1018 C1015 0.999 . S
H1019 C1000 0.913 . S
H1020 C1038 0.951 . S
H1021 C1040 0.951 . S
H1022 C1042 0.950 . S
H1023 C1043 0.950 . S
H1024 C1045 0.950 . S
H1025 C1048 0.950 . S
H1026 C1049 0.950 . S
H1027 C1051 0.950 . S
H1028 C1052 0.950 . S
H1029 C1053 0.951 . S
H1030 C1055 0.951 . S
H1031 C1057 0.950 . S
H1032 C1058 0.950 . S
H1033 C1060 0.950 1_556 S
H1034 C1063 0.950 . S
H1035 C1064 0.950 . S
H1036 C1066 0.950 . S
H1037 C1067 0.950 . S
C1038 H1020 0.951 . S
C1038 C1039 1.366 . S
C1038 C1040 1.388 . S
C1039 C1038 1.366 . S
C1039 C1043 1.385 . S
C1040 H1021 0.951 . S
C1040 C1038 1.388 . S
C1040 C1041 1.366 . S
C1041 C1040 1.366 . S
C1041 C1042 1.414 . S
C1041 C1044 1.499 . S
C1042 H1022 0.950 . S
C1042 C1041 1.414 . S
C1042 C1043 1.374 . S
C1043 H1023 0.950 . S
C1043 C1039 1.385 . S
C1043 C1042 1.374 . S
C1044 C1041 1.499 . S
C1044 C1045 1.373 . S
C1044 C1046 1.389 . S
C1045 H1024 0.950 . S
C1045 C1044 1.373 . S
C1045 C1061 1.377 . S
C1046 C1044 1.389 . S
C1046 C1047 1.524 . S
C1046 C1060 1.377 . S
C1047 C1046 1.524 . S
C1047 C1048 1.397 . S
C1047 C1052 1.363 . S
C1048 H1025 0.950 . S
C1048 C1047 1.397 . S
C1048 C1049 1.334 . S
C1049 H1026 0.950 . S
C1049 C1048 1.334 . S
C1049 C1050 1.287 . S
C1050 C1049 1.287 . S
C1050 C1051 1.524 . S
C1050 H1069 0.913 . S
C1051 H1027 0.950 . S
C1051 C1050 1.524 . S
C1051 C1052 1.415 . S
C1052 H1028 0.950 . S
C1052 C1047 1.363 . S
C1052 C1051 1.415 . S
C1053 H1029 0.951 . S
C1053 C1054 1.366 . S
C1053 C1055 1.388 . S
C1054 C1053 1.366 . S
C1054 C1058 1.385 . S
C1055 H1030 0.951 . S
C1055 C1053 1.388 . S
C1055 C1056 1.366 . S
C1056 C1055 1.366 . S
C1056 C1057 1.414 . S
C1056 C1059 1.499 . S
C1057 H1031 0.950 . S
C1057 C1056 1.414 . S
C1057 C1058 1.374 . S
C1058 H1032 0.950 . S
C1058 C1054 1.385 . S
C1058 C1057 1.374 . S
C1059 C1056 1.499 . S
C1059 C1060 1.373 1_556 S
C1059 C1061 1.389 1_556 S
C1060 H1033 0.950 1_554 S
C1060 C1046 1.377 . S
C1060 C1059 1.373 1_554 S
C1061 C1045 1.377 . S
C1061 C1059 1.389 1_554 S
C1061 C1062 1.524 . S
C1062 C1061 1.524 . S
C1062 C1063 1.397 1_554 S
C1062 C1067 1.363 . S
C1063 H1034 0.950 . S
C1063 C1062 1.397 1_556 S
C1063 C1064 1.334 . S
C1064 H1035 0.950 . S
C1064 C1063 1.334 . S
C1064 C1065 1.287 . S
C1065 C1064 1.287 . S
C1065 C1066 1.524 1_556 S
C1065 H1068 0.999 . S
C1066 H1036 0.950 . S
C1066 C1065 1.524 1_554 S
C1066 C1067 1.415 . S
C1067 H1037 0.950 . S
C1067 C1062 1.363 . S
C1067 C1066 1.415 . S
H1068 C1065 0.999 . S
H1069 C1050 0.913 . S
H1070 C1088 0.951 . S
H1071 C1090 0.951 . S
H1072 C1092 0.950 . S
H1073 C1093 0.950 . S
H1074 C1095 0.950 . S
H1075 C1098 0.950 . S
H1076 C1099 0.950 . S
H1077 C1101 0.950 . S
H1078 C1102 0.950 1_554 S
H1079 C1103 0.951 . S
H1080 C1105 0.951 . S
H1081 C1107 0.950 . S
H1082 C1108 0.950 . S
H1083 C1110 0.950 . S
H1084 C1113 0.950 . S
H1085 C1114 0.950 . S
H1086 C1116 0.950 . S
H1087 C1117 0.950 . S
C1088 H1070 0.951 . S
C1088 C1089 1.366 . S
C1088 C1090 1.388 . S
C1089 C1088 1.366 . S
C1089 C1093 1.385 . S
C1090 H1071 0.951 . S
C1090 C1088 1.388 . S
C1090 C1091 1.366 . S
C1091 C1090 1.366 . S
C1091 C1092 1.414 . S
C1091 C1094 1.499 . S
C1092 H1072 0.950 . S
C1092 C1091 1.414 . S
C1092 C1093 1.374 . S
C1093 H1073 0.950 . S
C1093 C1089 1.385 . S
C1093 C1092 1.374 . S
C1094 C1091 1.499 . S
C1094 C1095 1.373 1_556 S
C1094 C1096 1.389 1_556 S
C1095 H1074 0.950 . S
C1095 C1094 1.373 1_554 S
C1095 C1111 1.377 . S
C1096 C1094 1.389 1_554 S
C1096 C1097 1.524 1_554 S
C1096 C1110 1.377 . S
C1097 C1096 1.524 1_556 S
C1097 C1098 1.397 . S
C1097 C1102 1.363 . S
C1098 H1075 0.950 . S
C1098 C1097 1.397 . S
C1098 C1099 1.334 . S
C1099 H1076 0.950 . S
C1099 C1098 1.334 . S
C1099 C1100 1.287 . S
C1100 C1099 1.287 . S
C1100 C1101 1.524 . S
C1100 H1119 0.913 . S
C1101 H1077 0.950 . S
C1101 C1100 1.524 . S
C1101 C1102 1.415 . S
C1102 H1078 0.950 1_556 S
C1102 C1097 1.363 . S
C1102 C1101 1.415 . S
C1103 H1079 0.951 . S
C1103 C1104 1.366 . S
C1103 C1105 1.388 . S
C1104 C1103 1.366 . S
C1104 C1108 1.385 . S
C1105 H1080 0.951 . S
C1105 C1103 1.388 . S
C1105 C1106 1.366 . S
C1106 C1105 1.366 . S
C1106 C1107 1.414 . S
C1106 C1109 1.499 . S
C1107 H1081 0.950 . S
C1107 C1106 1.414 . S
C1107 C1108 1.374 . S
C1108 H1082 0.950 . S
C1108 C1104 1.385 . S
C1108 C1107 1.374 . S
C1109 C1106 1.499 . S
C1109 C1110 1.373 . S
C1109 C1111 1.389 . S
C1110 H1083 0.950 . S
C1110 C1096 1.377 . S
C1110 C1109 1.373 . S
C1111 C1095 1.377 . S
C1111 C1109 1.389 . S
C1111 C1112 1.524 . S
C1112 C1111 1.524 . S
C1112 C1113 1.397 . S
C1112 C1117 1.363 . S
C1113 H1084 0.950 . S
C1113 C1112 1.397 . S
C1113 C1114 1.334 . S
C1114 H1085 0.950 . S
C1114 C1113 1.334 . S
C1114 C1115 1.287 . S
C1115 C1114 1.287 . S
C1115 C1116 1.524 . S
C1115 H1118 0.999 . S
C1116 H1086 0.950 . S
C1116 C1115 1.524 . S
C1116 C1117 1.415 . S
C1117 H1087 0.950 . S
C1117 C1112 1.363 . S
C1117 C1116 1.415 . S
H1118 C1115 0.999 . S
H1119 C1100 0.913 . S
H1120 C1138 0.951 . S
H1121 C1140 0.951 . S
H1122 C1142 0.950 . S
H1123 C1143 0.950 . S
H1124 C1145 0.950 . S
H1125 C1148 0.950 . S
H1126 C1149 0.950 . S
H1127 C1151 0.950 . S
H1128 C1152 0.950 . S
H1129 C1153 0.951 . S
H1130 C1155 0.951 . S
H1131 C1157 0.950 . S
H1132 C1158 0.950 . S
H1133 C1160 0.950 . S
H1134 C1163 0.950 . S
H1135 C1164 0.950 . S
H1136 C1166 0.950 . S
H1137 C1167 0.950 . S
C1138 H1120 0.951 . S
C1138 C1139 1.366 . S
C1138 C1140 1.388 . S
C1139 C1138 1.366 . S
C1139 C1143 1.385 . S
C1140 H1121 0.951 . S
C1140 C1138 1.388 . S
C1140 C1141 1.366 . S
C1141 C1140 1.366 . S
C1141 C1142 1.414 . S
C1141 C1144 1.499 . S
C1142 H1122 0.950 . S
C1142 C1141 1.414 . S
C1142 C1143 1.374 . S
C1143 H1123 0.950 . S
C1143 C1139 1.385 . S
C1143 C1142 1.374 . S
C1144 C1141 1.499 . S
C1144 C1145 1.373 . S
C1144 C1146 1.389 . S
C1145 H1124 0.950 . S
C1145 C1144 1.373 . S
C1145 C1161 1.377 . S
C1146 C1144 1.389 . S
C1146 C1147 1.524 . S
C1146 C1160 1.377 . S
C1147 C1146 1.524 . S
C1147 C1148 1.397 . S
C1147 C1152 1.363 . S
C1148 H1125 0.950 . S
C1148 C1147 1.397 . S
C1148 C1149 1.334 . S
C1149 H1126 0.950 . S
C1149 C1148 1.334 . S
C1149 C1150 1.287 . S
C1150 C1149 1.287 . S
C1150 C1151 1.524 . S
C1150 H1169 0.913 . S
C1151 H1127 0.950 . S
C1151 C1150 1.524 . S
C1151 C1152 1.415 . S
C1152 H1128 0.950 . S
C1152 C1147 1.363 . S
C1152 C1151 1.415 . S
C1153 H1129 0.951 . S
C1153 C1154 1.366 . S
C1153 C1155 1.388 . S
C1154 C1153 1.366 . S
C1154 C1158 1.385 . S
C1155 H1130 0.951 . S
C1155 C1153 1.388 . S
C1155 C1156 1.366 . S
C1156 C1155 1.366 . S
C1156 C1157 1.414 . S
C1156 C1159 1.499 . S
C1157 H1131 0.950 . S
C1157 C1156 1.414 . S
C1157 C1158 1.374 . S
C1158 H1132 0.950 . S
C1158 C1154 1.385 . S
C1158 C1157 1.374 . S
C1159 C1156 1.499 . S
C1159 C1160 1.373 . S
C1159 C1161 1.389 . S
C1160 H1133 0.950 . S
C1160 C1146 1.377 . S
C1160 C1159 1.373 . S
C1161 C1145 1.377 . S
C1161 C1159 1.389 . S
C1161 C1162 1.524 . S
C1162 C1161 1.524 . S
C1162 C1163 1.397 . S
C1162 C1167 1.363 . S
C1163 H1134 0.950 . S
C1163 C1162 1.397 . S
C1163 C1164 1.334 . S
C1164 H1135 0.950 . S
C1164 C1163 1.334 . S
C1164 C1165 1.287 . S
C1165 C1164 1.287 . S
C1165 C1166 1.524 . S
C1165 H1168 0.999 . S
C1166 H1136 0.950 . S
C1166 C1165 1.524 . S
C1166 C1167 1.415 . S
C1167 H1137 0.950 . S
C1167 C1162 1.363 . S
C1167 C1166 1.415 . S
H1168 C1165 0.999 . S
H1169 C1150 0.913 . S
H1170 C1188 0.951 . S
H1171 C1190 0.951 . S
H1172 C1192 0.950 . S
H1173 C1193 0.950 . S
H1174 C1195 0.950 . S
H1175 C1198 0.950 . S
H1176 C1199 0.950 . S
H1177 C1201 0.950 . S
H1178 C1202 0.950 . S
H1179 C1203 0.951 . S
H1180 C1205 0.951 . S
H1181 C1207 0.950 . S
H1182 C1208 0.950 . S
H1183 C1210 0.950 . S
H1184 C1213 0.950 . S
H1185 C1214 0.950 . S
H1186 C1216 0.950 . S
H1187 C1217 0.950 . S
C1188 H1170 0.951 . S
C1188 C1189 1.366 . S
C1188 C1190 1.388 . S
C1189 C1188 1.366 . S
C1189 C1193 1.385 . S
C1190 H1171 0.951 . S
C1190 C1188 1.388 . S
C1190 C1191 1.366 . S
C1191 C1190 1.366 . S
C1191 C1192 1.414 . S
C1191 C1194 1.499 . S
C1192 H1172 0.950 . S
C1192 C1191 1.414 . S
C1192 C1193 1.374 . S
C1193 H1173 0.950 . S
C1193 C1189 1.385 . S
C1193 C1192 1.374 . S
C1194 C1191 1.499 . S
C1194 C1195 1.373 . S
C1194 C1196 1.389 . S
C1195 H1174 0.950 . S
C1195 C1194 1.373 . S
C1195 C1211 1.377 . S
C1196 C1194 1.389 . S
C1196 C1197 1.524 . S
C1196 C1210 1.377 . S
C1197 C1196 1.524 . S
C1197 C1198 1.397 . S
C1197 C1202 1.363 . S
C1198 H1175 0.950 . S
C1198 C1197 1.397 . S
C1198 C1199 1.334 . S
C1199 H1176 0.950 . S
C1199 C1198 1.334 . S
C1199 C1200 1.287 . S
C1200 C1199 1.287 . S
C1200 C1201 1.524 . S
C1200 H1219 0.913 . S
C1201 H1177 0.950 . S
C1201 C1200 1.524 . S
C1201 C1202 1.415 . S
C1202 H1178 0.950 . S
C1202 C1197 1.363 . S
C1202 C1201 1.415 . S
C1203 H1179 0.951 . S
C1203 C1204 1.366 . S
C1203 C1205 1.388 . S
C1204 C1203 1.366 . S
C1204 C1208 1.385 . S
C1205 H1180 0.951 . S
C1205 C1203 1.388 . S
C1205 C1206 1.366 . S
C1206 C1205 1.366 . S
C1206 C1207 1.414 . S
C1206 C1209 1.499 . S
C1207 H1181 0.950 . S
C1207 C1206 1.414 . S
C1207 C1208 1.374 . S
C1208 H1182 0.950 . S
C1208 C1204 1.385 . S
C1208 C1207 1.374 . S
C1209 C1206 1.499 . S
C1209 C1210 1.373 . S
C1209 C1211 1.389 . S
C1210 H1183 0.950 . S
C1210 C1196 1.377 . S
C1210 C1209 1.373 . S
C1211 C1195 1.377 . S
C1211 C1209 1.389 . S
C1211 C1212 1.524 . S
C1212 C1211 1.524 . S
C1212 C1213 1.397 . S
C1212 C1217 1.363 . S
C1213 H1184 0.950 . S
C1213 C1212 1.397 . S
C1213 C1214 1.334 . S
C1214 H1185 0.950 . S
C1214 C1213 1.334 . S
C1214 C1215 1.287 . S
C1215 C1214 1.287 . S
C1215 C1216 1.524 . S
C1215 H1218 0.999 . S
C1216 H1186 0.950 . S
C1216 C1215 1.524 . S
C1216 C1217 1.415 . S
C1217 H1187 0.950 . S
C1217 C1212 1.363 . S
C1217 C1216 1.415 . S
H1218 C1215 0.999 . S
H1219 C1200 0.913 . S
H1220 C1238 0.951 . S
H1221 C1240 0.951 . S
H1222 C1242 0.950 . S
H1223 C1243 0.950 . S
H1224 C1245 0.950 . S
H1225 C1248 0.950 . S
H1226 C1249 0.950 . S
H1227 C1251 0.950 . S
H1228 C1252 0.950 . S
H1229 C1253 0.951 . S
H1230 C1255 0.951 . S
H1231 C1257 0.950 . S
H1232 C1258 0.950 . S
H1233 C1260 0.950 . S
H1234 C1263 0.950 . S
H1235 C1264 0.950 . S
H1236 C1266 0.950 . S
H1237 C1267 0.950 . S
C1238 H1220 0.951 . S
C1238 C1239 1.366 . S
C1238 C1240 1.388 . S
C1239 C1238 1.366 . S
C1239 C1243 1.385 . S
C1240 H1221 0.951 . S
C1240 C1238 1.388 . S
C1240 C1241 1.366 . S
C1241 C1240 1.366 . S
C1241 C1242 1.414 . S
C1241 C1244 1.499 . S
C1242 H1222 0.950 . S
C1242 C1241 1.414 . S
C1242 C1243 1.374 . S
C1243 H1223 0.950 . S
C1243 C1239 1.385 . S
C1243 C1242 1.374 . S
C1244 C1241 1.499 . S
C1244 C1245 1.373 . S
C1244 C1246 1.389 . S
C1245 H1224 0.950 . S
C1245 C1244 1.373 . S
C1245 C1261 1.377 . S
C1246 C1244 1.389 . S
C1246 C1247 1.524 . S
C1246 C1260 1.377 . S
C1247 C1246 1.524 . S
C1247 C1248 1.397 . S
C1247 C1252 1.363 . S
C1248 H1225 0.950 . S
C1248 C1247 1.397 . S
C1248 C1249 1.334 . S
C1249 H1226 0.950 . S
C1249 C1248 1.334 . S
C1249 C1250 1.287 . S
C1250 C1249 1.287 . S
C1250 C1251 1.524 . S
C1250 H1269 0.913 . S
C1251 H1227 0.950 . S
C1251 C1250 1.524 . S
C1251 C1252 1.415 . S
C1252 H1228 0.950 . S
C1252 C1247 1.363 . S
C1252 C1251 1.415 . S
C1253 H1229 0.951 . S
C1253 C1254 1.366 . S
C1253 C1255 1.388 . S
C1254 C1253 1.366 . S
C1254 C1258 1.385 . S
C1255 H1230 0.951 . S
C1255 C1253 1.388 . S
C1255 C1256 1.366 . S
C1256 C1255 1.366 . S
C1256 C1257 1.414 . S
C1256 C1259 1.499 . S
C1257 H1231 0.950 . S
C1257 C1256 1.414 . S
C1257 C1258 1.374 . S
C1258 H1232 0.950 . S
C1258 C1254 1.385 . S
C1258 C1257 1.374 . S
C1259 C1256 1.499 . S
C1259 C1260 1.373 . S
C1259 C1261 1.389 . S
C1260 H1233 0.950 . S
C1260 C1246 1.377 . S
C1260 C1259 1.373 . S
C1261 C1245 1.377 . S
C1261 C1259 1.389 . S
C1261 C1262 1.524 . S
C1262 C1261 1.524 . S
C1262 C1263 1.397 . S
C1262 C1267 1.363 . S
C1263 H1234 0.950 . S
C1263 C1262 1.397 . S
C1263 C1264 1.334 . S
C1264 H1235 0.950 . S
C1264 C1263 1.334 . S
C1264 C1265 1.287 . S
C1265 C1264 1.287 . S
C1265 C1266 1.524 . S
C1265 H1268 0.999 . S
C1266 H1236 0.950 . S
C1266 C1265 1.524 . S
C1266 C1267 1.415 . S
C1267 H1237 0.950 . S
C1267 C1262 1.363 . S
C1267 C1266 1.415 . S
H1268 C1265 0.999 . S
H1269 C1250 0.913 . S
H1270 C1288 0.951 . S
H1271 C1290 0.951 . S
H1272 C1292 0.950 . S
H1273 C1293 0.950 . S
H1274 C1295 0.950 . S
H1275 C1298 0.950 . S
H1276 C1299 0.950 . S
H1277 C1301 0.950 . S
H1278 C1302 0.950 . S
H1279 C1303 0.951 . S
H1280 C1305 0.951 . S
H1281 C1307 0.950 . S
H1282 C1308 0.950 . S
H1283 C1310 0.950 . S
H1284 C1313 0.950 . S
H1285 C1314 0.950 . S
H1286 C1316 0.950 . S
H1287 C1317 0.950 . S
C1288 H1270 0.951 . S
C1288 C1289 1.366 . S
C1288 C1290 1.388 . S
C1289 C1288 1.366 . S
C1289 C1293 1.385 . S
C1290 H1271 0.951 . S
C1290 C1288 1.388 . S
C1290 C1291 1.366 . S
C1291 C1290 1.366 . S
C1291 C1292 1.414 . S
C1291 C1294 1.499 . S
C1292 H1272 0.950 . S
C1292 C1291 1.414 . S
C1292 C1293 1.374 . S
C1293 H1273 0.950 . S
C1293 C1289 1.385 . S
C1293 C1292 1.374 . S
C1294 C1291 1.499 . S
C1294 C1295 1.373 . S
C1294 C1296 1.389 . S
C1295 H1274 0.950 . S
C1295 C1294 1.373 . S
C1295 C1311 1.377 . S
C1296 C1294 1.389 . S
C1296 C1297 1.524 . S
C1296 C1310 1.377 . S
C1297 C1296 1.524 . S
C1297 C1298 1.397 . S
C1297 C1302 1.363 . S
C1298 H1275 0.950 . S
C1298 C1297 1.397 . S
C1298 C1299 1.334 . S
C1299 H1276 0.950 . S
C1299 C1298 1.334 . S
C1299 C1300 1.287 . S
C1300 C1299 1.287 . S
C1300 C1301 1.524 . S
C1300 H1319 0.913 . S
C1301 H1277 0.950 . S
C1301 C1300 1.524 . S
C1301 C1302 1.415 . S
C1302 H1278 0.950 . S
C1302 C1297 1.363 . S
C1302 C1301 1.415 . S
C1303 H1279 0.951 . S
C1303 C1304 1.366 . S
C1303 C1305 1.388 . S
C1304 C1303 1.366 . S
C1304 C1308 1.385 . S
C1305 H1280 0.951 . S
C1305 C1303 1.388 . S
C1305 C1306 1.366 . S
C1306 C1305 1.366 . S
C1306 C1307 1.414 . S
C1306 C1309 1.499 . S
C1307 H1281 0.950 . S
C1307 C1306 1.414 . S
C1307 C1308 1.374 . S
C1308 H1282 0.950 . S
C1308 C1304 1.385 . S
C1308 C1307 1.374 . S
C1309 C1306 1.499 . S
C1309 C1310 1.373 . S
C1309 C1311 1.389 . S
C1310 H1283 0.950 . S
C1310 C1296 1.377 . S
C1310 C1309 1.373 . S
C1311 C1295 1.377 . S
C1311 C1309 1.389 . S
C1311 C1312 1.524 . S
C1312 C1311 1.524 . S
C1312 C1313 1.397 . S
C1312 C1317 1.363 . S
C1313 H1284 0.950 . S
C1313 C1312 1.397 . S
C1313 C1314 1.334 . S
C1314 H1285 0.950 . S
C1314 C1313 1.334 . S
C1314 C1315 1.287 . S
C1315 C1314 1.287 . S
C1315 C1316 1.524 . S
C1315 H1318 0.999 . S
C1316 H1286 0.950 . S
C1316 C1315 1.524 . S
C1316 C1317 1.415 . S
C1317 H1287 0.950 . S
C1317 C1312 1.363 . S
C1317 C1316 1.415 . S
H1318 C1315 0.999 . S
H1319 C1300 0.913 . S
H1320 C1338 0.951 . S
H1321 C1340 0.951 . S
H1322 C1342 0.950 . S
H1323 C1343 0.950 . S
H1324 C1345 0.950 . S
H1325 C1348 0.950 . S
H1326 C1349 0.950 . S
H1327 C1351 0.950 . S
H1328 C1352 0.961 . S
H1329 C1353 0.951 . S
H1330 C1355 0.951 . S
H1331 C1357 0.950 . S
H1332 C1358 0.950 . S
H1333 C1360 0.950 . S
H1334 C1363 0.950 . S
H1335 C1364 0.950 . S
H1336 C1366 0.950 . S
H1337 C1367 0.961 . S
C1338 H1320 0.951 . S
C1338 C1339 1.366 . S
C1338 C1340 1.388 . S
C1339 C1338 1.366 . S
C1339 C1343 1.385 . S
C1340 H1321 0.951 . S
C1340 C1338 1.388 . S
C1340 C1341 1.366 . S
C1341 C1340 1.366 . S
C1341 C1342 1.414 . S
C1341 C1344 1.499 . S
C1342 H1322 0.950 . S
C1342 C1341 1.414 . S
C1342 C1343 1.374 . S
C1343 H1323 0.950 . S
C1343 C1339 1.385 . S
C1343 C1342 1.374 . S
C1344 C1341 1.499 . S
C1344 C1345 1.373 . S
C1344 C1346 1.389 . S
C1345 H1324 0.950 . S
C1345 C1344 1.373 . S
C1345 C1361 1.377 1_455 S
C1346 C1344 1.389 . S
C1346 C1347 1.524 . S
C1346 C1360 1.377 1_455 S
C1347 C1346 1.524 . S
C1347 C1348 1.397 . S
C1347 C1352 1.363 . S
C1348 H1325 0.950 . S
C1348 C1347 1.397 . S
C1348 C1349 1.334 . S
C1349 H1326 0.950 . S
C1349 C1348 1.334 . S
C1349 C1350 1.287 . S
C1350 C1349 1.287 . S
C1350 C1351 1.524 . S
C1350 H1369 0.913 . S
C1351 H1327 0.950 . S
C1351 C1350 1.524 . S
C1351 C1352 1.415 . S
C1352 H1328 0.961 . S
C1352 C1347 1.363 . S
C1352 C1351 1.415 . S
C1353 H1329 0.951 . S
C1353 C1354 1.366 . S
C1353 C1355 1.388 . S
C1354 C1353 1.366 . S
C1354 C1358 1.385 . S
C1355 H1330 0.951 . S
C1355 C1353 1.388 . S
C1355 C1356 1.366 . S
C1356 C1355 1.366 . S
C1356 C1357 1.414 . S
C1356 C1359 1.499 . S
C1357 H1331 0.950 . S
C1357 C1356 1.414 . S
C1357 C1358 1.374 . S
C1358 H1332 0.950 . S
C1358 C1354 1.385 . S
C1358 C1357 1.374 . S
C1359 C1356 1.499 . S
C1359 C1360 1.373 . S
C1359 C1361 1.389 . S
C1360 H1333 0.950 . S
C1360 C1346 1.377 1_655 S
C1360 C1359 1.373 . S
C1361 C1345 1.377 1_655 S
C1361 C1359 1.389 . S
C1361 C1362 1.524 . S
C1362 C1361 1.524 . S
C1362 C1363 1.397 . S
C1362 C1367 1.363 . S
C1363 H1334 0.950 . S
C1363 C1362 1.397 . S
C1363 C1364 1.334 . S
C1364 H1335 0.950 . S
C1364 C1363 1.334 . S
C1364 C1365 1.287 . S
C1365 C1364 1.287 . S
C1365 C1366 1.524 . S
C1365 H1368 0.999 . S
C1366 H1336 0.950 . S
C1366 C1365 1.524 . S
C1366 C1367 1.415 . S
C1367 H1337 0.961 . S
C1367 C1362 1.363 . S
C1367 C1366 1.415 . S
H1368 C1365 0.999 . S
H1369 C1350 0.913 . S
H1370 C1388 0.951 . S
H1371 C1390 0.951 . S
H1372 C1392 0.950 . S
H1373 C1393 0.950 . S
H1374 C1395 0.950 . S
H1375 C1398 0.950 . S
H1376 C1399 0.950 . S
H1377 C1401 0.950 . S
H1378 C1402 0.950 . S
H1379 C1403 0.951 . S
H1380 C1405 0.951 . S
H1381 C1407 0.950 . S
H1382 C1408 0.950 . S
H1383 C1410 0.950 . S
H1384 C1413 0.950 . S
H1385 C1414 0.950 . S
H1386 C1416 0.950 . S
H1387 C1417 0.950 . S
C1388 H1370 0.951 . S
C1388 C1389 1.366 . S
C1388 C1390 1.388 . S
C1389 C1388 1.366 . S
C1389 C1393 1.385 . S
C1390 H1371 0.951 . S
C1390 C1388 1.388 . S
C1390 C1391 1.366 . S
C1391 C1390 1.366 . S
C1391 C1392 1.414 . S
C1391 C1394 1.499 . S
C1392 H1372 0.950 . S
C1392 C1391 1.414 . S
C1392 C1393 1.374 . S
C1393 H1373 0.950 . S
C1393 C1389 1.385 . S
C1393 C1392 1.374 . S
C1394 C1391 1.499 . S
C1394 C1395 1.373 . S
C1394 C1396 1.389 . S
C1395 H1374 0.950 . S
C1395 C1394 1.373 . S
C1395 C1411 1.377 1_655 S
C1396 C1394 1.389 . S
C1396 C1397 1.524 . S
C1396 C1410 1.377 1_655 S
C1397 C1396 1.524 . S
C1397 C1398 1.397 . S
C1397 C1402 1.363 . S
C1398 H1375 0.950 . S
C1398 C1397 1.397 . S
C1398 C1399 1.334 . S
C1399 H1376 0.950 . S
C1399 C1398 1.334 . S
C1399 C1400 1.287 . S
C1400 C1399 1.287 . S
C1400 C1401 1.524 . S
C1400 H1419 0.913 . S
C1401 H1377 0.950 . S
C1401 C1400 1.524 . S
C1401 C1402 1.415 . S
C1402 H1378 0.950 . S
C1402 C1397 1.363 . S
C1402 C1401 1.415 . S
C1403 H1379 0.951 . S
C1403 C1404 1.366 . S
C1403 C1405 1.388 . S
C1404 C1403 1.366 . S
C1404 C1408 1.385 . S
C1405 H1380 0.951 . S
C1405 C1403 1.388 . S
C1405 C1406 1.366 . S
C1406 C1405 1.366 . S
C1406 C1407 1.414 . S
C1406 C1409 1.499 . S
C1407 H1381 0.950 . S
C1407 C1406 1.414 . S
C1407 C1408 1.374 . S
C1408 H1382 0.950 . S
C1408 C1404 1.385 . S
C1408 C1407 1.374 . S
C1409 C1406 1.499 . S
C1409 C1410 1.373 . S
C1409 C1411 1.389 . S
C1410 H1383 0.950 . S
C1410 C1396 1.377 1_455 S
C1410 C1409 1.373 . S
C1411 C1395 1.377 1_455 S
C1411 C1409 1.389 . S
C1411 C1412 1.524 . S
C1412 C1411 1.524 . S
C1412 C1413 1.397 . S
C1412 C1417 1.363 . S
C1413 H1384 0.950 . S
C1413 C1412 1.397 . S
C1413 C1414 1.334 . S
C1414 H1385 0.950 . S
C1414 C1413 1.334 . S
C1414 C1415 1.287 . S
C1415 C1414 1.287 . S
C1415 C1416 1.524 . S
C1415 H1418 0.999 . S
C1416 H1386 0.950 . S
C1416 C1415 1.524 . S
C1416 C1417 1.415 . S
C1417 H1387 0.950 . S
C1417 C1412 1.363 . S
C1417 C1416 1.415 . S
H1418 C1415 0.999 . S
H1419 C1400 0.913 . S
H1420 C1438 0.951 . S
H1421 C1440 0.951 . S
H1422 C1442 0.950 . S
H1423 C1443 0.950 . S
H1424 C1445 0.950 . S
H1425 C1448 0.950 . S
H1426 C1449 0.950 . S
H1427 C1451 0.950 . S
H1428 C1452 0.950 . S
H1429 C1453 0.951 . S
H1430 C1455 0.951 . S
H1431 C1457 0.950 . S
H1432 C1458 0.950 . S
H1433 C1460 0.950 . S
H1434 C1463 0.950 . S
H1435 C1464 0.950 . S
H1436 C1466 0.950 . S
H1437 C1467 0.950 . S
C1438 H1420 0.951 . S
C1438 C1439 1.366 . S
C1438 C1440 1.388 . S
C1439 C1438 1.366 . S
C1439 C1443 1.385 . S
C1440 H1421 0.951 . S
C1440 C1438 1.388 . S
C1440 C1441 1.366 . S
C1441 C1440 1.366 . S
C1441 C1442 1.414 . S
C1441 C1444 1.499 . S
C1442 H1422 0.950 . S
C1442 C1441 1.414 . S
C1442 C1443 1.374 . S
C1443 H1423 0.950 . S
C1443 C1439 1.385 . S
C1443 C1442 1.374 . S
C1444 C1441 1.499 . S
C1444 C1445 1.373 . S
C1444 C1446 1.389 . S
C1445 H1424 0.950 . S
C1445 C1444 1.373 . S
C1445 C1461 1.377 . S
C1446 C1444 1.389 . S
C1446 C1447 1.524 . S
C1446 C1460 1.377 . S
C1447 C1446 1.524 . S
C1447 C1448 1.397 . S
C1447 C1452 1.363 . S
C1448 H1425 0.950 . S
C1448 C1447 1.397 . S
C1448 C1449 1.334 . S
C1449 H1426 0.950 . S
C1449 C1448 1.334 . S
C1449 C1450 1.287 . S
C1450 C1449 1.287 . S
C1450 C1451 1.524 . S
C1450 H1469 0.913 . S
C1451 H1427 0.950 . S
C1451 C1450 1.524 . S
C1451 C1452 1.415 . S
C1452 H1428 0.950 . S
C1452 C1447 1.363 . S
C1452 C1451 1.415 . S
C1453 H1429 0.951 . S
C1453 C1454 1.366 . S
C1453 C1455 1.388 . S
C1454 C1453 1.366 . S
C1454 C1458 1.385 . S
C1455 H1430 0.951 . S
C1455 C1453 1.388 . S
C1455 C1456 1.366 . S
C1456 C1455 1.366 . S
C1456 C1457 1.414 . S
C1456 C1459 1.499 . S
C1457 H1431 0.950 . S
C1457 C1456 1.414 . S
C1457 C1458 1.374 . S
C1458 H1432 0.950 . S
C1458 C1454 1.385 . S
C1458 C1457 1.374 . S
C1459 C1456 1.499 . S
C1459 C1460 1.373 . S
C1459 C1461 1.389 . S
C1460 H1433 0.950 . S
C1460 C1446 1.377 . S
C1460 C1459 1.373 . S
C1461 C1445 1.377 . S
C1461 C1459 1.389 . S
C1461 C1462 1.524 . S
C1462 C1461 1.524 . S
C1462 C1463 1.397 . S
C1462 C1467 1.363 . S
C1463 H1434 0.950 . S
C1463 C1462 1.397 . S
C1463 C1464 1.334 1_556 S
C1464 H1435 0.950 . S
C1464 C1463 1.334 1_554 S
C1464 C1465 1.287 . S
C1465 C1464 1.287 . S
C1465 C1466 1.524 1_554 S
C1465 H1468 0.999 . S
C1466 H1436 0.950 . S
C1466 C1465 1.524 1_556 S
C1466 C1467 1.415 . S
C1467 H1437 0.950 . S
C1467 C1462 1.363 . S
C1467 C1466 1.415 . S
H1468 C1465 0.999 . S
H1469 C1450 0.913 . S
H1470 C1488 0.951 . S
H1471 C1490 0.951 . S
H1472 C1492 0.950 . S
H1473 C1493 0.950 . S
H1474 C1495 0.950 . S
H1475 C1498 0.950 . S
H1476 C1499 0.950 1_556 S
H1477 C1501 0.950 . S
H1478 C1502 0.950 . S
H1479 C1503 0.951 . S
H1480 C1505 0.951 . S
H1481 C1507 0.950 . S
H1482 C1508 0.950 . S
H1483 C1510 0.950 . S
H1484 C1513 0.950 . S
H1485 C1514 0.950 . S
H1486 C1516 0.950 . S
H1487 C1517 0.950 . S
C1488 H1470 0.951 . S
C1488 C1489 1.366 . S
C1488 C1490 1.388 . S
C1489 C1488 1.366 . S
C1489 C1493 1.385 . S
C1490 H1471 0.951 . S
C1490 C1488 1.388 . S
C1490 C1491 1.366 . S
C1491 C1490 1.366 . S
C1491 C1492 1.414 . S
C1491 C1494 1.499 . S
C1492 H1472 0.950 . S
C1492 C1491 1.414 . S
C1492 C1493 1.374 . S
C1493 H1473 0.950 . S
C1493 C1489 1.385 . S
C1493 C1492 1.374 . S
C1494 C1491 1.499 . S
C1494 C1495 1.373 . S
C1494 C1496 1.389 . S
C1495 H1474 0.950 . S
C1495 C1494 1.373 . S
C1495 C1511 1.377 . S
C1496 C1494 1.389 . S
C1496 C1497 1.524 . S
C1496 C1510 1.377 . S
C1497 C1496 1.524 . S
C1497 C1498 1.397 . S
C1497 C1502 1.363 . S
C1498 H1475 0.950 . S
C1498 C1497 1.397 . S
C1498 C1499 1.334 . S
C1499 H1476 0.950 1_554 S
C1499 C1498 1.334 . S
C1499 C1500 1.287 . S
C1500 C1499 1.287 . S
C1500 C1501 1.524 . S
C1500 H1519 0.913 1_554 S
C1501 H1477 0.950 . S
C1501 C1500 1.524 . S
C1501 C1502 1.415 . S
C1502 H1478 0.950 . S
C1502 C1497 1.363 . S
C1502 C1501 1.415 . S
C1503 H1479 0.951 . S
C1503 C1504 1.366 . S
C1503 C1505 1.388 . S
C1504 C1503 1.366 . S
C1504 C1508 1.385 . S
C1505 H1480 0.951 . S
C1505 C1503 1.388 . S
C1505 C1506 1.366 . S
C1506 C1505 1.366 . S
C1506 C1507 1.414 . S
C1506 C1509 1.499 . S
C1507 H1481 0.950 . S
C1507 C1506 1.414 . S
C1507 C1508 1.374 . S
C1508 H1482 0.950 . S
C1508 C1504 1.385 . S
C1508 C1507 1.374 . S
C1509 C1506 1.499 . S
C1509 C1510 1.373 . S
C1509 C1511 1.389 . S
C1510 H1483 0.950 . S
C1510 C1496 1.377 . S
C1510 C1509 1.373 . S
C1511 C1495 1.377 . S
C1511 C1509 1.389 . S
C1511 C1512 1.524 . S
C1512 C1511 1.524 . S
C1512 C1513 1.397 . S
C1512 C1517 1.363 . S
C1513 H1484 0.950 . S
C1513 C1512 1.397 . S
C1513 C1514 1.334 . S
C1514 H1485 0.950 . S
C1514 C1513 1.334 . S
C1514 C1515 1.287 . S
C1515 C1514 1.287 . S
C1515 C1516 1.524 . S
C1515 H1518 0.999 . S
C1516 H1486 0.950 . S
C1516 C1515 1.524 . S
C1516 C1517 1.415 . S
C1517 H1487 0.950 . S
C1517 C1512 1.363 . S
C1517 C1516 1.415 . S
H1518 C1515 0.999 . S
H1519 C1500 0.913 1_556 S
C339 C6 1.701 . S
C354 C295 1.700 . S
C389 C255 1.701 . S
C404 C46 1.700 . S
C439 C206 1.701 . S
C454 C95 1.700 . S
C489 C166 1.701 . S
C504 C135 1.700 . S
C539 C89 1.528 . S
C554 C9 1.540 . S
C589 C49 1.540 . S
C604 C129 1.527 . S
C639 C138 1.540 . S
C654 C58 1.528 . S
C689 C98 1.540 . S
C704 C18 1.528 . S
C739 C169 1.442 . S
C754 C249 1.442 . S
C789 C209 1.443 . S
C804 C289 1.443 . S
C839 C298 1.442 . S
C854 C218 1.442 . S
C889 C258 1.443 . S
C904 C178 1.443 . S
C939 C19 2.047 . S
C954 C10 2.047 . S
C989 C59 2.046 . S
C1004 C50 2.046 . S
C1039 C99 2.046 . S
C1054 C90 2.046 . S
C1089 C130 2.047 . S
C1104 C139 2.047 . S
C1139 C170 2.046 . S
C1154 C179 2.046 . S
C1189 C219 2.047 . S
C1204 C210 2.047 . S
C1239 C250 2.047 . S
C1254 C259 2.047 . S
C1289 C290 2.046 . S
C1304 C299 2.046 . S
C1339 C15 2.365 . S
C1354 C55 2.365 . S
C1389 C126 2.365 . S
C1404 C86 2.365 . S
C1439 C175 2.366 . S
C1454 C215 2.367 . S
C1489 C286 2.367 . S
C1504 C246 2.366 . S
