# Generated by pormake.
# Topology whz, (6)-cn, num edge types: 1
# Building blocks:
#     Node 0, Type 0, BuildingBlock: CUKXOW_clean_sbu_0, # of connection points: 6
#     Node 1, Type 0, BuildingBlock: CUKXOW_clean_sbu_0, # of connection points: 6
#     Node 2, Type 0, BuildingBlock: CUKXOW_clean_sbu_0, # of connection points: 6
#     Node 3, Type 0, BuildingBlock: CUKXOW_clean_sbu_0, # of connection points: 6
#     Node 4, Type 0, BuildingBlock: CUKXOW_clean_sbu_0, # of connection points: 6
#     Node 5, Type 0, BuildingBlock: CUKXOW_clean_sbu_0, # of connection points: 6
#     Node 6, Type 0, BuildingBlock: CUKXOW_clean_sbu_0, # of connection points: 6
#     Node 7, Type 0, BuildingBlock: CUKXOW_clean_sbu_0, # of connection points: 6
#     Node 8, Type 0, BuildingBlock: CUKXOW_clean_sbu_0, # of connection points: 6
#     Node 9, Type 0, BuildingBlock: CUKXOW_clean_sbu_0, # of connection points: 6
#     Node 10, Type 0, BuildingBlock: CUKXOW_clean_sbu_0, # of connection points: 6
#     Node 11, Type 0, BuildingBlock: CUKXOW_clean_sbu_0, # of connection points: 6
#     Node 12, Type 0, BuildingBlock: CUKXOW_clean_sbu_0, # of connection points: 6
#     Node 13, Type 0, BuildingBlock: CUKXOW_clean_sbu_0, # of connection points: 6
#     Node 14, Type 0, BuildingBlock: CUKXOW_clean_sbu_0, # of connection points: 6
#     Node 15, Type 0, BuildingBlock: CUKXOW_clean_sbu_0, # of connection points: 6
#     Edge 16, Type (0, 0), BuildingBlock: OJICUG_clean_linker_0, # of connection points: 2
#     Edge 17, Type (0, 0), BuildingBlock: OJICUG_clean_linker_0, # of connection points: 2
#     Edge 18, Type (0, 0), BuildingBlock: OJICUG_clean_linker_0, # of connection points: 2
#     Edge 19, Type (0, 0), BuildingBlock: OJICUG_clean_linker_0, # of connection points: 2
#     Edge 20, Type (0, 0), BuildingBlock: OJICUG_clean_linker_0, # of connection points: 2
#     Edge 21, Type (0, 0), BuildingBlock: OJICUG_clean_linker_0, # of connection points: 2
#     Edge 22, Type (0, 0), BuildingBlock: OJICUG_clean_linker_0, # of connection points: 2
#     Edge 23, Type (0, 0), BuildingBlock: OJICUG_clean_linker_0, # of connection points: 2
#     Edge 24, Type (0, 0), BuildingBlock: OJICUG_clean_linker_0, # of connection points: 2
#     Edge 25, Type (0, 0), BuildingBlock: OJICUG_clean_linker_0, # of connection points: 2
#     Edge 26, Type (0, 0), BuildingBlock: OJICUG_clean_linker_0, # of connection points: 2
#     Edge 27, Type (0, 0), BuildingBlock: OJICUG_clean_linker_0, # of connection points: 2
#     Edge 28, Type (0, 0), BuildingBlock: OJICUG_clean_linker_0, # of connection points: 2
#     Edge 29, Type (0, 0), BuildingBlock: OJICUG_clean_linker_0, # of connection points: 2
#     Edge 30, Type (0, 0), BuildingBlock: OJICUG_clean_linker_0, # of connection points: 2
#     Edge 31, Type (0, 0), BuildingBlock: OJICUG_clean_linker_0, # of connection points: 2
#     Edge 32, Type (0, 0), BuildingBlock: OJICUG_clean_linker_0, # of connection points: 2
#     Edge 33, Type (0, 0), BuildingBlock: OJICUG_clean_linker_0, # of connection points: 2
#     Edge 34, Type (0, 0), BuildingBlock: OJICUG_clean_linker_0, # of connection points: 2
#     Edge 35, Type (0, 0), BuildingBlock: OJICUG_clean_linker_0, # of connection points: 2
#     Edge 36, Type (0, 0), BuildingBlock: OJICUG_clean_linker_0, # of connection points: 2
#     Edge 37, Type (0, 0), BuildingBlock: OJICUG_clean_linker_0, # of connection points: 2
#     Edge 38, Type (0, 0), BuildingBlock: OJICUG_clean_linker_0, # of connection points: 2
#     Edge 39, Type (0, 0), BuildingBlock: OJICUG_clean_linker_0, # of connection points: 2
#     Edge 40, Type (0, 0), BuildingBlock: OJICUG_clean_linker_0, # of connection points: 2
#     Edge 41, Type (0, 0), BuildingBlock: OJICUG_clean_linker_0, # of connection points: 2
#     Edge 42, Type (0, 0), BuildingBlock: OJICUG_clean_linker_0, # of connection points: 2
#     Edge 43, Type (0, 0), BuildingBlock: OJICUG_clean_linker_0, # of connection points: 2
#     Edge 44, Type (0, 0), BuildingBlock: OJICUG_clean_linker_0, # of connection points: 2
#     Edge 45, Type (0, 0), BuildingBlock: OJICUG_clean_linker_0, # of connection points: 2
#     Edge 46, Type (0, 0), BuildingBlock: OJICUG_clean_linker_0, # of connection points: 2
#     Edge 47, Type (0, 0), BuildingBlock: OJICUG_clean_linker_0, # of connection points: 2
#     Edge 48, Type (0, 0), BuildingBlock: OJICUG_clean_linker_0, # of connection points: 2
#     Edge 49, Type (0, 0), BuildingBlock: OJICUG_clean_linker_0, # of connection points: 2
#     Edge 50, Type (0, 0), BuildingBlock: OJICUG_clean_linker_0, # of connection points: 2
#     Edge 51, Type (0, 0), BuildingBlock: OJICUG_clean_linker_0, # of connection points: 2
#     Edge 52, Type (0, 0), BuildingBlock: OJICUG_clean_linker_0, # of connection points: 2
#     Edge 53, Type (0, 0), BuildingBlock: OJICUG_clean_linker_0, # of connection points: 2
#     Edge 54, Type (0, 0), BuildingBlock: OJICUG_clean_linker_0, # of connection points: 2
#     Edge 55, Type (0, 0), BuildingBlock: OJICUG_clean_linker_0, # of connection points: 2
#     Edge 56, Type (0, 0), BuildingBlock: OJICUG_clean_linker_0, # of connection points: 2
#     Edge 57, Type (0, 0), BuildingBlock: OJICUG_clean_linker_0, # of connection points: 2
#     Edge 58, Type (0, 0), BuildingBlock: OJICUG_clean_linker_0, # of connection points: 2
#     Edge 59, Type (0, 0), BuildingBlock: OJICUG_clean_linker_0, # of connection points: 2
#     Edge 60, Type (0, 0), BuildingBlock: OJICUG_clean_linker_0, # of connection points: 2
#     Edge 61, Type (0, 0), BuildingBlock: OJICUG_clean_linker_0, # of connection points: 2
#     Edge 62, Type (0, 0), BuildingBlock: OJICUG_clean_linker_0, # of connection points: 2
#     Edge 63, Type (0, 0), BuildingBlock: OJICUG_clean_linker_0, # of connection points: 2
# Relax obj value: 0.220
# Max RMSD: 0.247
# Mean RMSD: 0.247
data_MOF--net-whz--node1-CUKXOW_clean_sbu_0--edge1-OJICUG_clean_linker_0
_symmetry_space_group_name_H-M    P1
_symmetry_Int_Tables_number       1
_symmetry_cell_setting            triclinic
loop_
_symmetry_equiv_pos_as_xyz
'x, y, z'
_cell_length_a     28.541409
_cell_length_b     28.538932
_cell_length_c     34.821155
_cell_angle_alpha  89.971186
_cell_angle_beta   90.024956
_cell_angle_gamma 90.067818
loop_
_atom_site_label
_atom_site_type_symbol
_atom_site_fract_x
_atom_site_fract_y
_atom_site_fract_z
_atom_type_partial_charge
Tb0 Tb 0.33779 0.1517 0.18733 0.0
C1 C 0.25555 0.21651 0.15838 0.0
Tb2 Tb 0.23705 0.11759 0.19585 0.0
O3 O 0.33525 0.14009 0.12538 0.0
O4 O 0.29512 0.09851 0.16166 0.0
O5 O 0.29795 0.21469 0.17412 0.0
C6 C 0.1507 0.08323 0.18953 0.0
O7 O 0.22779 0.17893 0.15792 0.0
C8 C 0.26813 0.16832 0.25359 0.0
C9 C 0.31588 0.06413 0.24176 0.0
O10 O 0.16144 0.12363 0.20401 0.0
O11 O 0.18849 0.06268 0.17732 0.0
O12 O 0.23703 0.13529 0.25671 0.0
O13 O 0.27805 0.17217 0.21864 0.0
O14 O 0.27158 0.0641 0.23014 0.0
O15 O 0.34809 0.09357 0.22802 0.0
C16 C 0.422 0.1935 0.1931 0.0
O17 O 0.40193 0.18005 0.16161 0.0
O18 O 0.39537 0.18185 0.2218 0.0
C19 C 0.30274 0.10852 0.12687 0.0
Tb20 Tb 0.60757 0.5874 0.43723 0.0
C21 C 0.54333 0.50359 0.40887 0.0
Tb22 Tb 0.64093 0.48519 0.44762 0.0
O23 O 0.63029 0.59116 0.37683 0.0
O24 O 0.65996 0.54317 0.4136 0.0
O25 O 0.54523 0.54606 0.4244 0.0
C26 C 0.67609 0.39902 0.44361 0.0
O27 O 0.58059 0.47564 0.40893 0.0
C28 C 0.58967 0.518 0.50442 0.0
C29 C 0.69192 0.56515 0.49468 0.0
O30 O 0.63388 0.40937 0.45431 0.0
O31 O 0.69816 0.43708 0.43387 0.0
O32 O 0.62156 0.48589 0.50806 0.0
O33 O 0.58679 0.5278 0.46932 0.0
O34 O 0.69351 0.52119 0.48212 0.0
O35 O 0.66167 0.5969 0.48149 0.0
C36 C 0.5616 0.66944 0.441 0.0
O37 O 0.55914 0.63914 0.41345 0.0
O38 O 0.59142 0.65431 0.46643 0.0
C39 C 0.65611 0.55397 0.37867 0.0
Tb40 Tb 0.16941 0.85656 0.68721 0.0
C41 C 0.25087 0.79312 0.65558 0.0
Tb42 Tb 0.27013 0.88996 0.69563 0.0
O43 O 0.17067 0.86933 0.62549 0.0
O44 O 0.21201 0.90993 0.6617 0.0
O45 O 0.20892 0.79415 0.6721 0.0
C46 C 0.35689 0.92363 0.69009 0.0
O47 O 0.2786 0.83067 0.65577 0.0
C48 C 0.23953 0.83747 0.75267 0.0
C49 C 0.19183 0.94333 0.74211 0.0
O50 O 0.34581 0.88246 0.70286 0.0
O51 O 0.3192 0.94536 0.67908 0.0
O52 O 0.27038 0.87063 0.75619 0.0
O53 O 0.22935 0.83449 0.71771 0.0
O54 O 0.23611 0.94314 0.73051 0.0
O55 O 0.15947 0.9142 0.72827 0.0
C56 C 0.08546 0.81466 0.69336 0.0
O57 O 0.10478 0.82907 0.66185 0.0
O58 O 0.11271 0.82536 0.72192 0.0
C59 C 0.20367 0.90039 0.62687 0.0
Tb60 Tb 0.90231 0.42054 0.9386 0.0
C61 C 0.96491 0.50385 0.90697 0.0
Tb62 Tb 0.86713 0.52265 0.94741 0.0
O63 O 0.88685 0.41913 0.87676 0.0
O64 O 0.8506 0.46416 0.91283 0.0
O65 O 0.9629 0.45967 0.91877 0.0
C66 C 0.83157 0.60856 0.94227 0.0
O67 O 0.92852 0.53285 0.90995 0.0
C68 C 0.91886 0.49195 1.0047 0.0
C69 C 0.81871 0.44372 0.99663 0.0
O70 O 0.87388 0.59856 0.95292 0.0
O71 O 0.80956 0.57023 0.93313 0.0
O72 O 0.88665 0.5238 1.00794 0.0
O73 O 0.92117 0.48124 0.96982 0.0
O74 O 0.81464 0.48642 0.9818 0.0
O75 O 0.85143 0.41331 0.98562 0.0
C76 C 0.94829 0.33921 0.94669 0.0
O77 O 0.96599 0.38068 0.95038 0.0
O78 O 0.90381 0.34312 0.93887 0.0
C79 C 0.85841 0.45452 0.87804 0.0
Tb80 Tb 0.76976 0.88946 0.89778 0.0
C81 C 0.69179 0.9429 0.85084 0.0
Tb82 Tb 0.66907 0.85609 0.90568 0.0
O83 O 0.77061 0.8704 0.83725 0.0
O84 O 0.72911 0.834 0.87536 0.0
O85 O 0.73601 0.94266 0.86263 0.0
C86 C 0.58509 0.81433 0.89934 0.0
O87 O 0.65934 0.91381 0.8646 0.0
C88 C 0.7031 0.89961 0.96627 0.0
C89 C 0.75033 0.79239 0.93748 0.0
O90 O 0.60433 0.82873 0.93088 0.0
O91 O 0.61244 0.82498 0.87084 0.0
O92 O 0.67013 0.86851 0.96748 0.0
O93 O 0.71146 0.90931 0.93148 0.0
O94 O 0.70847 0.79354 0.92081 0.0
O95 O 0.77805 0.82994 0.93753 0.0
C96 C 0.85654 0.92293 0.9037 0.0
O97 O 0.84546 0.88174 0.89103 0.0
O98 O 0.81883 0.9448 0.91445 0.0
C99 C 0.73976 0.83721 0.8405 0.0
Tb100 Tb 0.36756 0.52358 0.64557 0.0
C101 C 0.31963 0.44505 0.59566 0.0
Tb102 Tb 0.40277 0.42142 0.654 0.0
O103 O 0.38724 0.52565 0.58518 0.0
O104 O 0.42181 0.48245 0.62306 0.0
O105 O 0.31537 0.48761 0.61069 0.0
C106 C 0.44877 0.34009 0.6459 0.0
O107 O 0.35228 0.41457 0.60669 0.0
C108 C 0.35831 0.455 0.7145 0.0
C109 C 0.46511 0.50441 0.68637 0.0
O110 O 0.46649 0.38158 0.64232 0.0
O111 O 0.40426 0.344 0.6536 0.0
O112 O 0.38681 0.41966 0.71582 0.0
O113 O 0.35093 0.46475 0.67967 0.0
O114 O 0.46319 0.46034 0.67435 0.0
O115 O 0.42874 0.53343 0.68336 0.0
C116 C 0.332 0.6094 0.651 0.0
O117 O 0.37445 0.59951 0.64071 0.0
O118 O 0.30983 0.57099 0.65966 0.0
C119 C 0.41945 0.49379 0.58826 0.0
Tb120 Tb 0.73752 0.11797 0.39791 0.0
C121 C 0.81535 0.06562 0.35037 0.0
Tb122 Tb 0.8385 0.152 0.40578 0.0
O123 O 0.7364 0.1374 0.33745 0.0
O124 O 0.77803 0.1735 0.37573 0.0
O125 O 0.77136 0.06512 0.36266 0.0
C126 C 0.92261 0.19368 0.39853 0.0
O127 O 0.84768 0.09504 0.36388 0.0
C128 C 0.80367 0.10867 0.46629 0.0
C129 C 0.75698 0.21508 0.43824 0.0
O130 O 0.90745 0.17169 0.42869 0.0
O131 O 0.89098 0.19081 0.37185 0.0
O132 O 0.83579 0.14073 0.46778 0.0
O133 O 0.7961 0.09869 0.43144 0.0
O134 O 0.79947 0.21406 0.42265 0.0
O135 O 0.7289 0.17776 0.43731 0.0
C136 C 0.65115 0.08361 0.40426 0.0
O137 O 0.66179 0.12456 0.39079 0.0
O138 O 0.68908 0.06248 0.41554 0.0
C139 C 0.76735 0.17049 0.34087 0.0
Tb140 Tb 0.14022 0.48741 0.14632 0.0
C141 C 0.19326 0.56539 0.09909 0.0
Tb142 Tb 0.106 0.58872 0.15337 0.0
O143 O 0.12184 0.48574 0.08554 0.0
O144 O 0.08576 0.52803 0.12318 0.0
O145 O 0.19369 0.52143 0.11159 0.0
C146 C 0.0648 0.6729 0.14628 0.0
O147 O 0.16351 0.59767 0.11205 0.0
C148 C 0.14725 0.55401 0.21467 0.0
C149 C 0.04164 0.50715 0.18451 0.0
O150 O 0.08845 0.65836 0.17578 0.0
O151 O 0.06576 0.64061 0.12006 0.0
O152 O 0.11514 0.58601 0.21551 0.0
O153 O 0.15844 0.54629 0.18009 0.0
O154 O 0.04343 0.54987 0.16935 0.0
O155 O 0.07887 0.47896 0.1843 0.0
C156 C 0.17395 0.4009 0.15411 0.0
O157 O 0.13356 0.41156 0.13961 0.0
O158 O 0.19493 0.43894 0.16546 0.0
C159 C 0.08917 0.51717 0.0884 0.0
Tb160 Tb 0.83777 0.65417 0.69006 0.0
C161 C 0.7554 0.71667 0.65916 0.0
Tb162 Tb 0.73739 0.61705 0.6972 0.0
O163 O 0.83428 0.64714 0.62775 0.0
O164 O 0.79625 0.60137 0.66256 0.0
O165 O 0.79848 0.71581 0.67353 0.0
C166 C 0.65042 0.58383 0.69053 0.0
O167 O 0.72776 0.67888 0.65972 0.0
C168 C 0.76677 0.66787 0.75558 0.0
C169 C 0.81643 0.56528 0.743 0.0
O170 O 0.6618 0.62381 0.70536 0.0
O171 O 0.68798 0.56291 0.67822 0.0
O172 O 0.73656 0.634 0.75844 0.0
O173 O 0.77682 0.67197 0.72073 0.0
O174 O 0.77389 0.56139 0.72791 0.0
O175 O 0.84625 0.59919 0.73351 0.0
C176 C 0.92181 0.69527 0.6977 0.0
O177 O 0.91064 0.66456 0.67172 0.0
O178 O 0.88606 0.70176 0.72001 0.0
C179 C 0.80332 0.61391 0.62819 0.0
Tb180 Tb 0.10242 0.08692 0.93805 0.0
C181 C 0.04068 0.00433 0.90506 0.0
Tb182 Tb 0.13898 0.98594 0.94446 0.0
O183 O 0.11179 0.08644 0.87578 0.0
O184 O 0.15497 0.04551 0.91046 0.0
O185 O 0.04177 0.04772 0.91871 0.0
C186 C 0.1734 0.89984 0.93711 0.0
O187 O 0.07793 0.97624 0.90655 0.0
C188 C 0.08764 0.01413 1.00279 0.0
C189 C 0.18791 0.06331 0.99446 0.0
O190 O 0.13223 0.9101 0.95018 0.0
O191 O 0.19485 0.93808 0.92678 0.0
O192 O 0.12043 0.9828 1.00529 0.0
O193 O 0.0844 0.02543 0.96812 0.0
O194 O 0.19199 0.02101 0.97898 0.0
O195 O 0.15497 0.09382 0.98401 0.0
C196 C 0.05781 0.16877 0.94726 0.0
O197 O 0.10029 0.16408 0.93414 0.0
O198 O 0.04143 0.12778 0.95577 0.0
C199 C 0.14355 0.054 0.87607 0.0
Tb200 Tb 0.67069 0.3534 0.19014 0.0
C201 C 0.75322 0.29113 0.15883 0.0
Tb202 Tb 0.77128 0.39062 0.197 0.0
O203 O 0.67412 0.36142 0.12783 0.0
O204 O 0.71196 0.40664 0.16309 0.0
O205 O 0.71009 0.29195 0.17315 0.0
C206 C 0.85767 0.42489 0.18968 0.0
O207 O 0.7809 0.32887 0.15952 0.0
C208 C 0.74217 0.33959 0.25529 0.0
C209 C 0.69275 0.44193 0.24341 0.0
O210 O 0.84687 0.38546 0.20579 0.0
O211 O 0.81988 0.44461 0.17653 0.0
O212 O 0.77255 0.37332 0.25818 0.0
O213 O 0.73193 0.33559 0.22046 0.0
O214 O 0.73494 0.44611 0.22779 0.0
O215 O 0.66284 0.40795 0.23414 0.0
C216 C 0.58656 0.31212 0.1976 0.0
O217 O 0.59768 0.34318 0.17186 0.0
O218 O 0.62242 0.30541 0.21981 0.0
C219 C 0.70486 0.39484 0.12859 0.0
Tb220 Tb 0.40392 0.91931 0.43819 0.0
C221 C 0.46741 1.00112 0.40605 0.0
Tb222 Tb 0.36883 0.02059 0.44462 0.0
O223 O 0.39651 0.92186 0.37587 0.0
O224 O 0.35191 0.9615 0.41047 0.0
O225 O 0.46577 0.95781 0.42003 0.0
C226 C 0.33462 0.10679 0.43684 0.0
O227 O 0.43034 0.0295 0.40708 0.0
C228 C 0.41962 0.99123 0.50293 0.0
C229 C 0.31735 0.94352 0.49335 0.0
O230 O 0.37528 0.09642 0.45098 0.0
O231 O 0.31368 0.06863 0.42571 0.0
O232 O 0.38702 0.02277 0.50554 0.0
O233 O 0.42306 0.98038 0.4682 0.0
O234 O 0.31524 0.98658 0.47909 0.0
O235 O 0.34856 0.91181 0.48182 0.0
C236 C 0.44544 0.83558 0.4469 0.0
O237 O 0.41069 0.84456 0.42387 0.0
O238 O 0.45569 0.8734 0.46575 0.0
C239 C 0.36413 0.95367 0.37611 0.0
Tb240 Tb 0.27201 0.38919 0.39537 0.0
C241 C 0.19416 0.44212 0.34821 0.0
Tb242 Tb 0.17079 0.3549 0.40268 0.0
O243 O 0.27352 0.37107 0.33466 0.0
O244 O 0.23136 0.33454 0.37229 0.0
O245 O 0.23809 0.44268 0.36074 0.0
C246 C 0.08618 0.31403 0.39642 0.0
O247 O 0.16188 0.41224 0.36113 0.0
C248 C 0.20586 0.39711 0.46353 0.0
C249 C 0.25224 0.29056 0.43358 0.0
O250 O 0.10145 0.33735 0.42585 0.0
O251 O 0.118 0.31516 0.3698 0.0
O252 O 0.17425 0.36456 0.46482 0.0
O253 O 0.21321 0.40779 0.42883 0.0
O254 O 0.20958 0.29223 0.41834 0.0
O255 O 0.28032 0.32793 0.43348 0.0
C256 C 0.35859 0.42272 0.40332 0.0
O257 O 0.34779 0.38251 0.38855 0.0
O258 O 0.32065 0.44367 0.41478 0.0
C259 C 0.24231 0.33811 0.33751 0.0
Tb260 Tb 0.86897 0.02085 0.14803 0.0
C261 C 0.8156 0.94372 0.10032 0.0
Tb262 Tb 0.90252 0.91952 0.15487 0.0
O263 O 0.88723 0.02261 0.08728 0.0
O264 O 0.92339 0.98012 0.12481 0.0
O265 O 0.81539 0.98753 0.11306 0.0
C266 C 0.94347 0.83529 0.14719 0.0
O267 O 0.84502 0.91112 0.11331 0.0
C268 C 0.86145 0.95413 0.21631 0.0
C269 C 0.96704 1.00066 0.18651 0.0
O270 O 0.92023 0.8497 0.17692 0.0
O271 O 0.94226 0.86777 0.12111 0.0
O272 O 0.89339 0.92194 0.21704 0.0
O273 O 0.85027 0.96205 0.18173 0.0
O274 O 0.96523 0.95813 0.17104 0.0
O275 O 0.92986 0.02886 0.18643 0.0
C276 C 0.83552 0.10739 0.15552 0.0
O277 O 0.87632 0.0967 0.14187 0.0
O278 O 0.81404 0.06938 0.1663 0.0
C279 C 0.91973 0.99102 0.09005 0.0
Tb280 Tb 0.2372 0.61672 0.89611 0.0
C281 C 0.31584 0.56522 0.84965 0.0
Tb282 Tb 0.33762 0.65376 0.90279 0.0
O283 O 0.23553 0.63405 0.83495 0.0
O284 O 0.27644 0.67184 0.87243 0.0
O285 O 0.27341 0.56127 0.86493 0.0
C286 C 0.42162 0.69482 0.8949 0.0
O287 O 0.34575 0.59904 0.85915 0.0
C288 C 0.30365 0.61344 0.96485 0.0
C289 C 0.25555 0.71619 0.93422 0.0
O290 O 0.41067 0.66386 0.92075 0.0
O291 O 0.38566 0.70161 0.87284 0.0
O292 O 0.33467 0.64661 0.96511 0.0
O293 O 0.29635 0.60098 0.93048 0.0
O294 O 0.29851 0.71535 0.91964 0.0
O295 O 0.22789 0.67842 0.93373 0.0
C296 C 0.15027 0.58345 0.90319 0.0
O297 O 0.16152 0.62354 0.88848 0.0
O298 O 0.18796 0.56243 0.91517 0.0
C299 C 0.26583 0.66785 0.83767 0.0
Tb300 Tb 0.63902 0.98653 0.64856 0.0
C301 C 0.68808 0.06375 0.59843 0.0
Tb302 Tb 0.60278 0.0876 0.655 0.0
O303 O 0.62024 0.98339 0.58782 0.0
O304 O 0.5843 0.0262 0.62498 0.0
O305 O 0.69202 0.0214 0.6139 0.0
C306 C 0.55821 0.16951 0.64573 0.0
O307 O 0.65531 0.09438 0.60898 0.0
C308 C 0.64405 0.05432 0.71694 0.0
C309 C 0.54099 0.00511 0.68823 0.0
O310 O 0.6006 0.16474 0.65907 0.0
O311 O 0.5419 0.12855 0.63704 0.0
O312 O 0.61238 0.08686 0.7173 0.0
O313 O 0.65523 0.04603 0.68247 0.0
O314 O 0.54212 0.04853 0.67459 0.0
O315 O 0.57815 0.97694 0.68663 0.0
C316 C 0.67332 0.90039 0.65607 0.0
O317 O 0.63215 0.91069 0.64297 0.0
O318 O 0.69483 0.93862 0.66632 0.0
C319 C 0.5875 0.01476 0.59035 0.0
C320 C 0.28875 0.25121 0.26634 0.0
C321 C 0.26484 0.21038 0.27745 0.0
H322 H 0.29852 0.32459 0.27541 0.0
C323 C 0.23182 0.2125 0.30721 0.0
H324 H 0.31425 0.25051 0.24333 0.0
C325 C 0.22226 0.255 0.3251 0.0
C326 C 0.24603 0.29588 0.31389 0.0
H327 H 0.21243 0.18165 0.316 0.0
H328 H 0.19683 0.25565 0.34816 0.0
C329 C 0.27916 0.29373 0.28421 0.0
C330 C 0.5037 0.47655 0.57829 0.0
C331 C 0.46214 0.49738 0.56516 0.0
H332 H 0.57744 0.46866 0.57036 0.0
C333 C 0.46359 0.5278 0.53353 0.0
H334 H 0.50374 0.45366 0.60306 0.0
C335 C 0.50599 0.53733 0.5154 0.0
C336 C 0.54741 0.51588 0.52817 0.0
H337 H 0.43216 0.545 0.52327 0.0
H338 H 0.50609 0.56069 0.4909 0.0
C339 C 0.54604 0.4859 0.56007 0.0
C340 C 0.22071 0.75355 0.7644 0.0
C341 C 0.24308 0.79501 0.77622 0.0
H342 H 0.21195 0.67991 0.77366 0.0
C343 C 0.27459 0.79364 0.80708 0.0
H344 H 0.19642 0.75363 0.74051 0.0
C345 C 0.28415 0.75143 0.82544 0.0
C346 C 0.26186 0.70993 0.81369 0.0
H347 H 0.29274 0.82495 0.81652 0.0
H348 H 0.30835 0.75156 0.84937 0.0
C349 C 0.23019 0.71126 0.78289 0.0
C350 C 0.96316 0.52613 0.05912 0.0
C351 C 0.9616 0.49534 1.02779 0.0
H352 H 0.00567 0.55963 0.10127 0.0
C353 C 1.0031 0.47408 1.01495 0.0
H354 H 0.93182 0.54362 0.06921 0.0
C355 C 0.04551 0.48346 1.03318 0.0
C356 C 0.04697 0.51411 0.06461 0.0
H357 H 1.00301 0.45089 0.9904 0.0
H358 H 0.07688 0.46592 1.02321 0.0
C359 C 0.00557 0.53585 0.07708 0.0
C360 C 0.77523 0.79362 0.78618 0.0
C361 C 0.74356 0.79485 0.81692 0.0
H362 H 0.80923 0.75167 0.74398 0.0
C363 C 0.72126 0.75332 0.82866 0.0
H364 H 0.79331 0.825 0.77681 0.0
C365 C 0.731 0.71108 0.81026 0.0
C366 C 0.76277 0.70988 0.77956 0.0
H367 H 0.69684 0.75328 0.85244 0.0
H368 H 0.71282 0.67968 0.81945 0.0
C369 C 0.78498 0.75145 0.76785 0.0
C370 C 0.72367 0.25609 0.26747 0.0
C371 C 0.74569 0.29765 0.27939 0.0
H372 H 0.71512 0.18258 0.27646 0.0
C373 C 0.77677 0.29655 0.31058 0.0
H374 H 0.69991 0.25582 0.24325 0.0
C375 C 0.78603 0.25437 0.32926 0.0
C376 C 0.764 0.21282 0.31724 0.0
H377 H 0.79475 0.32798 0.31997 0.0
H378 H 0.80984 0.25447 0.35347 0.0
C379 C 0.733 0.21398 0.28603 0.0
C380 C 1.00318 0.97193 0.0778 0.0
C381 C 0.96142 0.99336 0.06567 0.0
H382 H 0.07671 0.96364 0.06838 0.0
C383 C 0.96191 0.02292 1.03354 0.0
H384 H 1.00379 0.94903 0.10258 0.0
C385 C 1.0037 0.03165 1.01429 0.0
C386 C 0.04559 0.01072 1.02669 0.0
H387 H 0.93025 0.04014 1.02379 0.0
H388 H 1.00294 0.05413 0.9893 0.0
C389 C 0.04504 0.98084 0.05864 0.0
C390 C 0.50362 0.97378 0.51447 0.0
C391 C 0.46147 0.99392 0.52715 0.0
H392 H 0.57731 0.96644 0.52367 0.0
C393 C 0.46155 0.02255 0.55981 0.0
H394 H 0.50465 0.95189 0.48914 0.0
C395 C 0.50326 0.03144 0.57918 0.0
C396 C 0.54546 0.01152 0.56638 0.0
H397 H 0.4296 0.03887 0.56994 0.0
H398 H 0.50219 0.05318 0.60459 0.0
C399 C 0.54535 0.98274 0.5338 0.0
C400 C 0.23656 0.11992 1.03281 0.0
C401 C 0.21808 0.07476 1.02792 0.0
H402 H 0.27869 0.16546 0.06765 0.0
C403 C 0.22657 0.04082 0.05652 0.0
H404 H 0.23021 0.14684 1.01149 0.0
C405 C 0.25284 0.05193 0.08941 0.0
C406 C 0.27242 0.09671 0.09366 0.0
H407 H 0.21202 0.00589 0.05381 0.0
H408 H 0.25866 0.02529 0.11106 0.0
C409 C 0.2642 0.1305 0.06496 0.0
C410 C 0.67931 0.54688 0.3096 0.0
C411 C 0.66817 0.52505 0.3447 0.0
H412 H 0.69688 0.53766 0.24992 0.0
C413 C 0.66447 0.47604 0.34574 0.0
H414 H 0.68208 0.58469 0.30791 0.0
C415 C 0.67065 0.44949 0.3123 0.0
C416 C 0.68216 0.47126 0.27734 0.0
H417 H 0.6554 0.45821 0.37201 0.0
H418 H 0.66743 0.4117 0.31396 0.0
C419 C 0.68733 0.52014 0.2764 0.0
C420 C 0.25469 0.95579 0.58918 0.0
C421 C 0.23374 0.91164 0.59339 0.0
H422 H 0.29625 1.00086 0.55338 0.0
C423 C 0.24022 0.87795 0.56432 0.0
H424 H 0.25024 0.98233 0.6111 0.0
C425 C 0.26745 0.888 0.53182 0.0
C426 C 0.2873 0.93258 0.527 0.0
H427 H 0.22466 0.84345 0.56695 0.0
H428 H 0.27245 0.86114 0.51025 0.0
C429 C 0.28058 0.96641 0.55599 0.0
C430 C 0.82599 0.48701 0.77555 0.0
C431 C 0.8277 0.53612 0.77689 0.0
H432 H 0.83557 0.42262 0.80672 0.0
C433 C 0.83753 0.55821 0.81204 0.0
H434 H 0.81797 0.46922 0.74887 0.0
C435 C 0.84545 0.53179 0.84529 0.0
C436 C 0.84513 0.48268 0.84392 0.0
H437 H 0.83832 0.59612 0.81393 0.0
H438 H 0.85332 0.5499 0.8717 0.0
C439 C 0.83572 0.4605 0.80863 0.0
C440 C 0.76487 0.88835 0.06236 0.0
C441 C 0.78552 0.93264 0.06669 0.0
H442 H 0.7219 0.84378 1.02743 0.0
C443 C 0.77989 0.96591 1.03706 0.0
H444 H 0.76904 0.86188 0.08441 0.0
C445 C 0.75435 0.95502 1.00375 0.0
C446 C 0.7327 0.91116 0.99998 0.0
H447 H 0.79622 1.00009 1.03924 0.0
H448 H 0.75079 0.98112 0.98135 0.0
C449 C 0.73803 0.87805 1.02969 0.0
C450 C 0.32512 0.48707 0.81688 0.0
C451 C 0.32697 0.53619 0.81568 0.0
H452 H 0.33477 0.42281 0.7856 0.0
C453 C 0.33712 0.55843 0.78064 0.0
H454 H 0.3169 0.46916 0.84347 0.0
C455 C 0.34521 0.53215 0.74736 0.0
C456 C 0.34478 0.48303 0.7486 0.0
H457 H 0.33806 0.59633 0.77886 0.0
H458 H 0.35335 0.55037 0.72106 0.0
C459 C 0.33502 0.46071 0.78378 0.0
C460 C 0.75343 0.05219 0.50368 0.0
C461 C 0.77314 0.09693 0.49942 0.0
H462 H 0.71234 0.00627 0.53918 0.0
C463 C 0.76477 0.13077 0.52803 0.0
H464 H 0.75933 0.02551 0.4821 0.0
C465 C 0.73692 0.12028 0.56008 0.0
C466 C 0.71833 0.07515 0.56498 0.0
H467 H 0.77932 0.1657 0.52536 0.0
H468 H 0.73051 0.14724 0.58132 0.0
C469 C 0.72694 0.04117 0.53647 0.0
C470 C 0.21547 0.47883 0.2852 0.0
C471 C 0.18249 0.4724 0.31489 0.0
H472 H 0.22975 0.50839 0.22951 0.0
C473 C 0.13784 0.49226 0.31085 0.0
H474 H 0.24992 0.46312 0.28718 0.0
C475 C 0.12683 0.51901 0.27831 0.0
C476 C 0.15962 0.52501 0.24848 0.0
H477 H 0.11161 0.48746 0.33298 0.0
H478 H 0.09226 0.53444 0.27619 0.0
C479 C 0.2039 0.50428 0.25203 0.0
C480 C 0.75445 0.55646 0.5908 0.0
C481 C 0.77457 0.60109 0.59431 0.0
H482 H 0.71378 0.50978 0.55581 0.0
C483 C 0.76786 0.63384 0.56455 0.0
H484 H 0.75906 0.53063 0.61329 0.0
C485 C 0.74105 0.62242 0.53211 0.0
C486 C 0.72181 0.57744 0.52812 0.0
H487 H 0.78276 0.66868 0.56663 0.0
H488 H 0.73576 0.64859 0.50999 0.0
C489 C 0.72894 0.54451 0.55776 0.0
C490 C 0.20021 0.00428 0.83885 0.0
C491 C 0.1563 0.02591 0.84182 0.0
H492 H 0.24626 0.96255 0.80427 0.0
C493 C 0.12421 0.02105 0.81133 0.0
H494 H 0.22554 0.00742 0.86189 0.0
C495 C 0.1355 0.99441 0.77877 0.0
C496 C 0.17979 0.97355 0.77539 0.0
H497 H 0.08991 0.03714 0.813 0.0
H498 H 0.10975 0.99042 0.75613 0.0
C499 C 0.21211 0.97899 0.80571 0.0
C500 C 0.75319 0.45287 0.09133 0.0
C501 C 0.7343 0.40771 0.09515 0.0
H502 H 0.7935 0.5 0.05634 0.0
C503 C 0.74301 0.37448 0.06617 0.0
H504 H 0.74703 0.47907 0.11325 0.0
C505 C 0.77057 0.38596 1.0342 0.0
C506 C 0.78853 0.43144 1.02984 0.0
H507 H 0.7291 0.33926 0.06853 0.0
H508 H 0.77737 0.35945 1.01266 0.0
C509 C 0.77941 0.46485 0.05865 0.0
C510 C 0.37265 0.01401 0.27905 0.0
C511 C 0.328 0.03399 0.27516 0.0
H512 H 0.41851 0.97209 0.31378 0.0
C513 C 0.29534 0.02785 0.30514 0.0
H514 H 0.39868 0.01856 0.25673 0.0
C515 C 0.30719 1.00272 0.3384 0.0
C516 C 0.35146 0.98193 0.34187 0.0
H517 H 0.2609 0.04362 0.30334 0.0
H518 H 0.28155 0.99898 0.36113 0.0
C519 C 0.38393 0.98753 0.31175 0.0
C520 C 0.28104 0.46648 0.53337 0.0
C521 C 0.28971 0.433 0.56226 0.0
H522 H 0.24898 0.48094 0.47864 0.0
C523 C 0.27153 0.38764 0.55785 0.0
H524 H 0.29534 0.50154 0.53575 0.0
C525 C 0.24408 0.37637 0.52579 0.0
C526 C 0.23571 0.40968 0.49677 0.0
H527 H 0.278 0.3611 0.57946 0.0
H528 H 0.22987 0.34126 0.52342 0.0
C529 C 0.25493 0.45468 0.50058 0.0
C530 C 0.88226 0.98882 0.28005 0.0
C531 C 0.8494 0.98318 0.25019 0.0
H532 H 0.89776 0.01997 0.33484 0.0
C533 C 0.80532 0.00431 0.25379 0.0
H534 H 0.91669 0.97311 0.27791 0.0
C535 C 0.79398 0.0297 0.28703 0.0
C536 C 0.827 0.03572 0.31679 0.0
H537 H 0.7794 1.00051 0.23127 0.0
H538 H 0.75964 0.04563 0.28904 0.0
C539 C 0.87149 0.01553 0.31267 0.0
C540 C 0.24289 0.62208 0.06151 0.0
C541 C 0.22352 0.57718 0.06575 0.0
H542 H 0.28418 0.66818 1.02653 0.0
C543 C 0.23016 0.54419 1.0361 0.0
H544 H 0.23792 0.64835 0.08358 0.0
C545 C 0.25521 0.55603 1.00278 0.0
C546 C 0.27534 0.60062 0.99898 0.0
H547 H 0.21483 0.50954 1.0382 0.0
H548 H 0.25939 0.53016 0.98028 0.0
C549 C 0.26923 0.63338 1.0288 0.0
C550 C 0.70053 0.00419 0.75416 0.0
C551 C 0.65664 0.02589 0.7511 0.0
H552 H 0.74643 0.96229 0.78881 0.0
C553 C 0.62445 0.0209 0.78148 0.0
H554 H 0.72594 0.00744 0.7312 0.0
C555 C 0.63561 0.99412 0.81404 0.0
C556 C 0.67988 0.97322 0.81752 0.0
H557 H 0.59018 0.03705 0.77976 0.0
H558 H 0.60979 0.99007 0.83659 0.0
C559 C 0.7123 0.97876 0.78729 0.0
C560 C 0.48987 0.22884 0.22918 0.0
C561 C 0.46432 0.22349 0.19495 0.0
H562 H 0.54933 0.26082 0.25675 0.0
C563 C 0.47842 0.24866 0.16224 0.0
H564 H 0.47958 0.21003 0.25486 0.0
C565 C 0.51712 0.27874 0.16366 0.0
C566 C 0.54334 0.28339 0.19755 0.0
H567 H 0.45914 0.24557 0.13555 0.0
H568 H 0.5272 0.2975 0.13789 0.0
C569 C 0.52954 0.258 0.2303 0.0
C570 C 0.53877 0.74571 0.47232 0.0
C571 C 0.53173 0.71177 0.44368 0.0
H572 H 0.51681 0.8118 0.49579 0.0
C573 C 0.49485 0.71796 0.41737 0.0
H574 H 0.56676 0.74172 0.49308 0.0
C575 C 0.46589 0.7574 0.4193 0.0
C576 C 0.47345 0.79189 0.44732 0.0
H577 H 0.4883 0.69222 0.39514 0.0
H578 H 0.43818 0.76136 0.39828 0.0
C579 C 0.51007 0.78562 0.47395 0.0
C580 C 0.99078 0.72927 0.66373 0.0
C581 C 0.96489 0.72408 0.69771 0.0
H582 H 0.0483 0.76314 0.63561 0.0
C583 C 0.97877 0.7491 0.7306 0.0
H584 H 0.9806 0.71078 0.63787 0.0
C585 C 0.01823 0.7785 0.72953 0.0
C586 C 0.04341 0.78443 0.69521 0.0
H587 H 0.95919 0.74585 0.75711 0.0
H588 H 0.02864 0.79705 0.75529 0.0
C589 C 0.02925 0.75959 0.66236 0.0
C590 C 0.95415 0.2516 0.95136 0.0
C591 C 0.97601 0.29546 0.94824 0.0
H592 H 0.96325 0.1771 0.95432 0.0
C593 C 0.02521 0.29751 0.94584 0.0
H594 H 0.91635 0.24904 0.95332 0.0
C595 C 0.05201 0.25643 0.94565 0.0
C596 C 0.03017 0.21256 0.94873 0.0
H597 H 0.04301 0.33093 0.94334 0.0
H598 H 0.08975 0.25898 0.94309 0.0
C599 C 0.98104 0.21054 0.95203 0.0
C600 C 0.51782 0.7783 0.86314 0.0
C601 C 0.54309 0.78407 0.89744 0.0
H602 H 0.45871 0.74575 0.83555 0.0
C603 C 0.52908 0.75903 0.93023 0.0
H604 H 0.52812 0.79703 0.83742 0.0
C605 C 0.49066 0.72866 0.92883 0.0
C606 C 0.46467 0.72365 0.89488 0.0
H607 H 0.54822 0.76245 0.95696 0.0
H608 H 0.48059 0.71001 0.95465 0.0
C609 C 0.47839 0.74887 0.86204 0.0
C610 C 0.52568 0.29831 0.6471 0.0
C611 C 0.47649 0.29632 0.64443 0.0
H612 H 0.59017 0.25971 0.65017 0.0
C613 C 0.45462 0.25247 0.64117 0.0
H614 H 0.54348 0.33171 0.64972 0.0
C615 C 0.48149 0.21138 0.64061 0.0
C616 C 0.5306 0.21335 0.64417 0.0
H617 H 0.41684 0.24994 0.63901 0.0
H618 H 0.46369 0.17796 0.6382 0.0
C619 C 0.55245 0.25719 0.6474 0.0
C620 C 0.02348 0.27016 0.43114 0.0
C621 C 0.04355 0.28434 0.39619 0.0
H622 H 0.97053 0.22928 0.45914 0.0
C623 C 0.02404 0.26778 0.36167 0.0
H624 H 0.03803 0.28198 0.4582 0.0
C625 C 0.98463 0.2382 0.3622 0.0
C626 C 0.9651 0.22352 0.39728 0.0
H627 H 0.03902 0.27798 0.33433 0.0
H628 H 0.96971 0.22649 0.33525 0.0
C629 C 0.9851 0.23963 0.43169 0.0
C630 C 0.01971 0.73488 0.18055 0.0
C631 C 0.03478 0.71518 0.14574 0.0
H632 H 0.97784 0.78724 0.20812 0.0
C633 C 0.01879 0.73466 0.11104 0.0
H634 H 0.03108 0.72029 0.20773 0.0
C635 C 0.98894 0.7738 0.11127 0.0
C636 C 0.97339 0.79296 0.1462 0.0
H637 H 0.02968 0.71993 0.08381 0.0
H638 H 0.97774 0.78881 0.08421 0.0
C639 C 0.98886 0.77291 0.18078 0.0
C640 C 0.18799 0.2697 0.1425 0.0
C641 C 0.23543 0.26369 0.15209 0.0
H642 H 0.13114 0.31822 0.13586 0.0
C643 C 0.2625 0.30355 0.1611 0.0
H644 H 0.16609 0.23981 0.13569 0.0
C645 C 0.24229 0.34795 0.16212 0.0
C646 C 0.19475 0.35374 0.15355 0.0
H647 H 0.29915 0.30046 0.16876 0.0
H648 H 0.26391 0.37774 0.1698 0.0
C649 C 0.16788 0.31446 0.14301 0.0
C650 C 0.44504 0.41633 0.39279 0.0
C651 C 0.40584 0.44333 0.40309 0.0
H652 H 0.51974 0.41425 0.386 0.0
C653 C 0.41183 0.49081 0.41179 0.0
H654 H 0.44112 0.37962 0.38555 0.0
C655 C 0.45635 0.51085 0.4111 0.0
C656 C 0.49611 0.48362 0.40234 0.0
H657 H 0.38209 0.51253 0.41929 0.0
H658 H 0.45957 0.54747 0.41882 0.0
C659 C 0.48992 0.43624 0.39264 0.0
C660 C 0.24284 0.70632 0.65335 0.0
C661 C 0.27092 0.74638 0.64783 0.0
H662 H 0.24047 0.63179 0.65966 0.0
C663 C 0.31912 0.74066 0.6412 0.0
H664 H 0.20554 0.70929 0.65849 0.0
C665 C 0.33905 0.6959 0.64187 0.0
C666 C 0.31114 0.65637 0.64944 0.0
H667 H 0.34174 0.77074 0.63708 0.0
H668 H 0.37644 0.69236 0.63742 0.0
C669 C 0.26282 0.66184 0.65443 0.0
C670 C 0.05191 0.49556 0.90816 0.0
C671 C 0.0123 0.52341 0.90016 0.0
H672 H 0.12616 0.49308 0.91653 0.0
C673 C 0.01888 0.57113 0.89177 0.0
H674 H 0.04846 0.4587 0.91502 0.0
C675 C 0.06391 0.59071 0.8925 0.0
C676 C 0.1029 0.56306 0.90221 0.0
H677 H 0.98922 0.59364 0.88579 0.0
H678 H 0.06808 0.62768 0.88631 0.0
C679 C 0.09658 0.51527 0.90954 0.0
C680 C 0.74241 0.70552 0.93924 0.0
C681 C 0.77036 0.74558 0.94519 0.0
H682 H 0.74017 0.63102 0.93269 0.0
C683 C 0.81846 0.73983 0.95232 0.0
H684 H 0.70518 0.7085 0.9337 0.0
C685 C 0.83843 0.69507 0.95175 0.0
C686 C 0.81067 0.65555 0.94378 0.0
H687 H 0.841 0.7699 0.95678 0.0
H688 H 0.87575 0.69151 0.95659 0.0
C689 C 0.76243 0.66105 0.93826 0.0
C690 C 0.59675 0.51568 0.68433 0.0
C691 C 0.60306 0.56347 0.69159 0.0
H692 H 0.54863 0.45913 0.6788 0.0
C693 C 0.56408 0.59114 0.70123 0.0
H694 H 0.62633 0.49347 0.67741 0.0
C695 C 0.51904 0.5716 0.70186 0.0
C696 C 0.51246 0.52389 0.69346 0.0
H697 H 0.56827 0.62812 0.70738 0.0
H698 H 0.48938 0.59413 0.70772 0.0
C699 C 0.55208 0.49599 0.68564 0.0
C700 C 0.68889 0.26762 0.4533 0.0
C701 C 0.73704 0.26184 0.44635 0.0
H702 H 0.63164 0.31602 0.45758 0.0
C703 C 0.7651 0.30192 0.44087 0.0
H704 H 0.66626 0.23755 0.45743 0.0
C705 C 0.74515 0.34643 0.44005 0.0
C706 C 0.69687 0.35197 0.44532 0.0
H707 H 0.80235 0.29896 0.43548 0.0
H708 H 0.7675 0.37646 0.43475 0.0
C709 C 0.66899 0.31243 0.45295 0.0
C710 C 0.94386 0.41982 0.2018 0.0
C711 C 0.90465 0.44606 0.19022 0.0
H712 H 0.01841 0.41868 0.20964 0.0
C713 C 0.91035 0.49328 0.1805 0.0
H714 H 0.94013 0.38334 0.20984 0.0
C715 C 0.95465 0.51377 0.18138 0.0
C716 C 0.99449 0.48723 0.1913 0.0
H717 H 0.88057 0.51441 0.17202 0.0
H718 H 0.95769 0.55011 0.17274 0.0
C719 C 0.98853 0.44015 0.20209 0.0
C720 C 0.76264 0.80365 0.65886 0.0
C721 C 0.73493 0.76352 0.65229 0.0
H722 H 0.76455 0.87801 0.66635 0.0
C723 C 0.68677 0.76917 0.64535 0.0
H724 H 0.79988 0.80085 0.66435 0.0
C725 C 0.66663 0.81386 0.64638 0.0
C726 C 0.69422 0.85338 0.65482 0.0
H727 H 0.6644 0.73907 0.64047 0.0
H728 H 0.62932 0.81737 0.64142 0.0
C729 C 0.74242 0.84798 0.66046 0.0
C730 C 0.90936 0.99195 0.90637 0.0
C731 C 0.90366 0.94362 0.90156 0.0
H732 H 0.95679 0.04937 0.90924 0.0
C733 C 0.94294 0.91577 0.89324 0.0
H734 H 0.8795 0.01429 0.91211 0.0
C735 C 0.98773 0.93578 0.89173 0.0
C736 C 0.99371 0.98406 0.89802 0.0
H737 H 0.93919 0.87837 0.88889 0.0
H738 H 0.01767 0.91319 0.88713 0.0
C739 C 0.95376 0.01203 0.90424 0.0
C740 C 0.84205 0.19398 0.14546 0.0
C741 C 0.81466 0.15445 0.15429 0.0
H742 H 0.84404 0.26879 0.13936 0.0
C743 C 0.76654 0.15983 0.16041 0.0
H744 H 0.87927 0.19049 0.14014 0.0
C745 C 0.74621 0.20412 0.15888 0.0
C746 C 0.77373 0.24428 0.15193 0.0
H747 H 0.74453 0.12981 0.16661 0.0
H748 H 0.70905 0.20685 0.16476 0.0
C749 C 0.8218 0.23867 0.14454 0.0
C750 C 0.55442 0.99395 0.4075 0.0
C751 C 0.5145 0.02123 0.39936 0.0
H752 H 0.62854 0.99268 0.41655 0.0
C753 C 0.52036 0.0691 0.39113 0.0
H754 H 0.55144 0.95698 0.41411 0.0
C755 C 0.56497 0.08946 0.39248 0.0
C756 C 0.60423 0.06242 0.4025 0.0
H757 H 0.49042 0.09116 0.385 0.0
H758 H 0.56859 0.12656 0.38655 0.0
C759 C 0.59869 0.01443 0.40939 0.0
C760 C 0.31995 0.23767 0.44924 0.0
C761 C 0.27235 0.24346 0.44012 0.0
H762 H 0.37718 0.18949 0.45502 0.0
C763 C 0.24531 0.20352 0.43134 0.0
H764 H 0.34183 0.26763 0.45586 0.0
C765 C 0.26576 0.15925 0.4299 0.0
C766 C 0.31349 0.15374 0.43784 0.0
H767 H 0.20853 0.20646 0.42403 0.0
H768 H 0.24419 0.12937 0.42235 0.0
C769 C 0.34029 0.19307 0.4483 0.0
C770 C 0.02003 0.06812 0.20282 0.0
C771 C 0.01415 0.02064 0.19328 0.0
H772 H 0.06827 0.12537 0.20883 0.0
C773 C 0.054 0.99375 0.18418 0.0
H774 H 0.99012 0.08986 0.20974 0.0
C775 C 0.09825 0.01431 0.18269 0.0
C776 C 0.10382 0.06196 0.19094 0.0
H777 H 0.05099 0.95707 0.17658 0.0
H778 H 0.12805 0.99291 0.1748 0.0
C779 C 0.06462 0.08855 0.20187 0.0
C780 C 0.24255 0.84749 0.93287 0.0
C781 C 0.19435 0.85286 0.93847 0.0
H782 H 0.30005 0.80038 0.92907 0.0
C783 C 0.16679 0.81333 0.94697 0.0
H784 H 0.26466 0.87752 0.92696 0.0
C785 C 0.18696 0.76866 0.94807 0.0
C786 C 0.23511 0.76303 0.94114 0.0
H787 H 0.12948 0.81683 0.95189 0.0
H788 H 0.1646 0.73855 0.95296 0.0
C789 C 0.2628 0.80317 0.93456 0.0
C790 C 0.40965 0.99268 0.68706 0.0
C791 C 0.40398 0.94439 0.69221 0.0
H792 H 0.45706 0.0501 0.68374 0.0
C793 C 0.44328 0.91664 0.70072 0.0
H794 H 0.37978 0.01495 0.68115 0.0
C795 C 0.48807 0.93668 0.70207 0.0
C796 C 0.49403 0.98491 0.69542 0.0
H797 H 0.43956 0.87927 0.70532 0.0
H798 H 0.51803 0.91415 0.70683 0.0
C799 C 0.45406 0.01281 0.68903 0.0
loop_
_geom_bond_atom_site_label_1
_geom_bond_atom_site_label_2
_geom_bond_distance
_geom_bond_site_symmetry_2
_ccdc_geom_bond_type
Tb0 O3 2.453 . S
Tb0 O4 2.596 . S
Tb0 O5 2.374 . S
Tb0 O13 2.343 . S
Tb0 O15 2.353 . S
Tb0 O17 2.427 . S
Tb0 O18 2.513 . S
C1 O5 1.251 . S
C1 O7 1.263 . S
Tb2 O4 2.343 . S
Tb2 O7 2.353 . S
Tb2 O10 2.427 . S
Tb2 O11 2.513 . S
Tb2 O12 2.453 . S
Tb2 O13 2.596 . S
Tb2 O14 2.374 . S
O3 Tb0 2.453 . S
O3 C19 1.245 . S
O4 Tb0 2.596 . S
O4 Tb2 2.343 . S
O4 C19 1.259 . S
O5 Tb0 2.374 . S
O5 C1 1.251 . S
C6 O10 1.275 . S
C6 O11 1.246 . S
O7 C1 1.263 . S
O7 Tb2 2.353 . S
C8 O12 1.245 . S
C8 O13 1.259 . S
C9 O14 1.250 . S
C9 O15 1.263 . S
O10 Tb2 2.427 . S
O10 C6 1.275 . S
O11 Tb2 2.513 . S
O11 C6 1.246 . S
O12 Tb2 2.453 . S
O12 C8 1.245 . S
O13 Tb0 2.343 . S
O13 Tb2 2.596 . S
O13 C8 1.259 . S
O14 Tb2 2.374 . S
O14 C9 1.250 . S
O15 Tb0 2.353 . S
O15 C9 1.263 . S
C16 O17 1.275 . S
C16 O18 1.246 . S
O17 Tb0 2.427 . S
O17 C16 1.275 . S
O18 Tb0 2.513 . S
O18 C16 1.246 . S
C19 O3 1.245 . S
C19 O4 1.259 . S
Tb20 O23 2.453 . S
Tb20 O24 2.596 . S
Tb20 O25 2.374 . S
Tb20 O33 2.343 . S
Tb20 O35 2.353 . S
Tb20 O37 2.427 . S
Tb20 O38 2.513 . S
C21 O25 1.251 . S
C21 O27 1.263 . S
Tb22 O24 2.343 . S
Tb22 O27 2.353 . S
Tb22 O30 2.427 . S
Tb22 O31 2.513 . S
Tb22 O32 2.453 . S
Tb22 O33 2.596 . S
Tb22 O34 2.374 . S
O23 Tb20 2.453 . S
O23 C39 1.245 . S
O24 Tb20 2.596 . S
O24 Tb22 2.343 . S
O24 C39 1.259 . S
O25 Tb20 2.374 . S
O25 C21 1.251 . S
C26 O30 1.275 . S
C26 O31 1.246 . S
O27 C21 1.263 . S
O27 Tb22 2.353 . S
C28 O32 1.245 . S
C28 O33 1.259 . S
C29 O34 1.250 . S
C29 O35 1.263 . S
O30 Tb22 2.427 . S
O30 C26 1.275 . S
O31 Tb22 2.513 . S
O31 C26 1.246 . S
O32 Tb22 2.453 . S
O32 C28 1.245 . S
O33 Tb20 2.343 . S
O33 Tb22 2.596 . S
O33 C28 1.259 . S
O34 Tb22 2.374 . S
O34 C29 1.250 . S
O35 Tb20 2.353 . S
O35 C29 1.263 . S
C36 O37 1.275 . S
C36 O38 1.246 . S
O37 Tb20 2.427 . S
O37 C36 1.275 . S
O38 Tb20 2.513 . S
O38 C36 1.246 . S
C39 O23 1.245 . S
C39 O24 1.259 . S
Tb40 O43 2.453 . S
Tb40 O44 2.596 . S
Tb40 O45 2.374 . S
Tb40 O53 2.343 . S
Tb40 O55 2.353 . S
Tb40 O57 2.427 . S
Tb40 O58 2.513 . S
C41 O45 1.251 . S
C41 O47 1.263 . S
Tb42 O44 2.343 . S
Tb42 O47 2.353 . S
Tb42 O50 2.427 . S
Tb42 O51 2.513 . S
Tb42 O52 2.453 . S
Tb42 O53 2.596 . S
Tb42 O54 2.374 . S
O43 Tb40 2.453 . S
O43 C59 1.245 . S
O44 Tb40 2.596 . S
O44 Tb42 2.343 . S
O44 C59 1.259 . S
O45 Tb40 2.374 . S
O45 C41 1.251 . S
C46 O50 1.275 . S
C46 O51 1.246 . S
O47 C41 1.263 . S
O47 Tb42 2.353 . S
C48 O52 1.245 . S
C48 O53 1.259 . S
C49 O54 1.250 . S
C49 O55 1.263 . S
O50 Tb42 2.427 . S
O50 C46 1.275 . S
O51 Tb42 2.513 . S
O51 C46 1.246 . S
O52 Tb42 2.453 . S
O52 C48 1.245 . S
O53 Tb40 2.343 . S
O53 Tb42 2.596 . S
O53 C48 1.259 . S
O54 Tb42 2.374 . S
O54 C49 1.250 . S
O55 Tb40 2.353 . S
O55 C49 1.263 . S
C56 O57 1.275 . S
C56 O58 1.246 . S
O57 Tb40 2.427 . S
O57 C56 1.275 . S
O58 Tb40 2.513 . S
O58 C56 1.246 . S
C59 O43 1.245 . S
C59 O44 1.259 . S
Tb60 O63 2.453 . S
Tb60 O64 2.596 . S
Tb60 O65 2.374 . S
Tb60 O73 2.343 . S
Tb60 O75 2.353 . S
Tb60 O77 2.427 . S
Tb60 O78 2.513 . S
C61 O65 1.251 . S
C61 O67 1.263 . S
Tb62 O64 2.343 . S
Tb62 O67 2.353 . S
Tb62 O70 2.427 . S
Tb62 O71 2.513 . S
Tb62 O72 2.453 . S
Tb62 O73 2.596 . S
Tb62 O74 2.374 . S
O63 Tb60 2.453 . S
O63 C79 1.245 . S
O64 Tb60 2.596 . S
O64 Tb62 2.343 . S
O64 C79 1.259 . S
O65 Tb60 2.374 . S
O65 C61 1.251 . S
C66 O70 1.275 . S
C66 O71 1.246 . S
O67 C61 1.263 . S
O67 Tb62 2.353 . S
C68 O72 1.245 . S
C68 O73 1.259 . S
C69 O74 1.250 . S
C69 O75 1.263 . S
O70 Tb62 2.427 . S
O70 C66 1.275 . S
O71 Tb62 2.513 . S
O71 C66 1.246 . S
O72 Tb62 2.453 . S
O72 C68 1.245 . S
O73 Tb60 2.343 . S
O73 Tb62 2.596 . S
O73 C68 1.259 . S
O74 Tb62 2.374 . S
O74 C69 1.250 . S
O75 Tb60 2.353 . S
O75 C69 1.263 . S
C76 O77 1.275 . S
C76 O78 1.246 . S
O77 Tb60 2.427 . S
O77 C76 1.275 . S
O78 Tb60 2.513 . S
O78 C76 1.246 . S
C79 O63 1.245 . S
C79 O64 1.259 . S
Tb80 O83 2.453 . S
Tb80 O84 2.596 . S
Tb80 O85 2.374 . S
Tb80 O93 2.343 . S
Tb80 O95 2.353 . S
Tb80 O97 2.427 . S
Tb80 O98 2.513 . S
C81 O85 1.251 . S
C81 O87 1.263 . S
Tb82 O84 2.343 . S
Tb82 O87 2.353 . S
Tb82 O90 2.427 . S
Tb82 O91 2.513 . S
Tb82 O92 2.453 . S
Tb82 O93 2.596 . S
Tb82 O94 2.374 . S
O83 Tb80 2.453 . S
O83 C99 1.245 . S
O84 Tb80 2.596 . S
O84 Tb82 2.343 . S
O84 C99 1.259 . S
O85 Tb80 2.374 . S
O85 C81 1.251 . S
C86 O90 1.275 . S
C86 O91 1.246 . S
O87 C81 1.263 . S
O87 Tb82 2.353 . S
C88 O92 1.245 . S
C88 O93 1.259 . S
C89 O94 1.250 . S
C89 O95 1.263 . S
O90 Tb82 2.427 . S
O90 C86 1.275 . S
O91 Tb82 2.513 . S
O91 C86 1.246 . S
O92 Tb82 2.453 . S
O92 C88 1.245 . S
O93 Tb80 2.343 . S
O93 Tb82 2.596 . S
O93 C88 1.259 . S
O94 Tb82 2.374 . S
O94 C89 1.250 . S
O95 Tb80 2.353 . S
O95 C89 1.263 . S
C96 O97 1.275 . S
C96 O98 1.246 . S
O97 Tb80 2.427 . S
O97 C96 1.275 . S
O98 Tb80 2.513 . S
O98 C96 1.246 . S
C99 O83 1.245 . S
C99 O84 1.259 . S
Tb100 O103 2.453 . S
Tb100 O104 2.596 . S
Tb100 O105 2.374 . S
Tb100 O113 2.343 . S
Tb100 O115 2.353 . S
Tb100 O117 2.427 . S
Tb100 O118 2.513 . S
C101 O105 1.251 . S
C101 O107 1.263 . S
Tb102 O104 2.343 . S
Tb102 O107 2.353 . S
Tb102 O110 2.427 . S
Tb102 O111 2.513 . S
Tb102 O112 2.453 . S
Tb102 O113 2.596 . S
Tb102 O114 2.374 . S
O103 Tb100 2.453 . S
O103 C119 1.245 . S
O104 Tb100 2.596 . S
O104 Tb102 2.343 . S
O104 C119 1.259 . S
O105 Tb100 2.374 . S
O105 C101 1.251 . S
C106 O110 1.275 . S
C106 O111 1.246 . S
O107 C101 1.263 . S
O107 Tb102 2.353 . S
C108 O112 1.245 . S
C108 O113 1.259 . S
C109 O114 1.250 . S
C109 O115 1.263 . S
O110 Tb102 2.427 . S
O110 C106 1.275 . S
O111 Tb102 2.513 . S
O111 C106 1.246 . S
O112 Tb102 2.453 . S
O112 C108 1.245 . S
O113 Tb100 2.343 . S
O113 Tb102 2.596 . S
O113 C108 1.259 . S
O114 Tb102 2.374 . S
O114 C109 1.250 . S
O115 Tb100 2.353 . S
O115 C109 1.263 . S
C116 O117 1.275 . S
C116 O118 1.246 . S
O117 Tb100 2.427 . S
O117 C116 1.275 . S
O118 Tb100 2.513 . S
O118 C116 1.246 . S
C119 O103 1.245 . S
C119 O104 1.259 . S
Tb120 O123 2.453 . S
Tb120 O124 2.596 . S
Tb120 O125 2.374 . S
Tb120 O133 2.343 . S
Tb120 O135 2.353 . S
Tb120 O137 2.427 . S
Tb120 O138 2.513 . S
C121 O125 1.251 . S
C121 O127 1.263 . S
Tb122 O124 2.343 . S
Tb122 O127 2.353 . S
Tb122 O130 2.427 . S
Tb122 O131 2.513 . S
Tb122 O132 2.453 . S
Tb122 O133 2.596 . S
Tb122 O134 2.374 . S
O123 Tb120 2.453 . S
O123 C139 1.245 . S
O124 Tb120 2.596 . S
O124 Tb122 2.343 . S
O124 C139 1.259 . S
O125 Tb120 2.374 . S
O125 C121 1.251 . S
C126 O130 1.275 . S
C126 O131 1.246 . S
O127 C121 1.263 . S
O127 Tb122 2.353 . S
C128 O132 1.245 . S
C128 O133 1.259 . S
C129 O134 1.250 . S
C129 O135 1.263 . S
O130 Tb122 2.427 . S
O130 C126 1.275 . S
O131 Tb122 2.513 . S
O131 C126 1.246 . S
O132 Tb122 2.453 . S
O132 C128 1.245 . S
O133 Tb120 2.343 . S
O133 Tb122 2.596 . S
O133 C128 1.259 . S
O134 Tb122 2.374 . S
O134 C129 1.250 . S
O135 Tb120 2.353 . S
O135 C129 1.263 . S
C136 O137 1.275 . S
C136 O138 1.246 . S
O137 Tb120 2.427 . S
O137 C136 1.275 . S
O138 Tb120 2.513 . S
O138 C136 1.246 . S
C139 O123 1.245 . S
C139 O124 1.259 . S
Tb140 O143 2.453 . S
Tb140 O144 2.596 . S
Tb140 O145 2.374 . S
Tb140 O153 2.343 . S
Tb140 O155 2.353 . S
Tb140 O157 2.427 . S
Tb140 O158 2.513 . S
C141 O145 1.251 . S
C141 O147 1.263 . S
Tb142 O144 2.343 . S
Tb142 O147 2.353 . S
Tb142 O150 2.427 . S
Tb142 O151 2.513 . S
Tb142 O152 2.453 . S
Tb142 O153 2.596 . S
Tb142 O154 2.374 . S
O143 Tb140 2.453 . S
O143 C159 1.245 . S
O144 Tb140 2.596 . S
O144 Tb142 2.343 . S
O144 C159 1.259 . S
O145 Tb140 2.374 . S
O145 C141 1.251 . S
C146 O150 1.275 . S
C146 O151 1.246 . S
O147 C141 1.263 . S
O147 Tb142 2.353 . S
C148 O152 1.245 . S
C148 O153 1.259 . S
C149 O154 1.250 . S
C149 O155 1.263 . S
O150 Tb142 2.427 . S
O150 C146 1.275 . S
O151 Tb142 2.513 . S
O151 C146 1.246 . S
O152 Tb142 2.453 . S
O152 C148 1.245 . S
O153 Tb140 2.343 . S
O153 Tb142 2.596 . S
O153 C148 1.259 . S
O154 Tb142 2.374 . S
O154 C149 1.250 . S
O155 Tb140 2.353 . S
O155 C149 1.263 . S
C156 O157 1.275 . S
C156 O158 1.246 . S
O157 Tb140 2.427 . S
O157 C156 1.275 . S
O158 Tb140 2.513 . S
O158 C156 1.246 . S
C159 O143 1.245 . S
C159 O144 1.259 . S
Tb160 O163 2.453 . S
Tb160 O164 2.596 . S
Tb160 O165 2.374 . S
Tb160 O173 2.343 . S
Tb160 O175 2.353 . S
Tb160 O177 2.427 . S
Tb160 O178 2.513 . S
C161 O165 1.251 . S
C161 O167 1.263 . S
Tb162 O164 2.343 . S
Tb162 O167 2.353 . S
Tb162 O170 2.427 . S
Tb162 O171 2.513 . S
Tb162 O172 2.453 . S
Tb162 O173 2.596 . S
Tb162 O174 2.374 . S
O163 Tb160 2.453 . S
O163 C179 1.245 . S
O164 Tb160 2.596 . S
O164 Tb162 2.343 . S
O164 C179 1.259 . S
O165 Tb160 2.374 . S
O165 C161 1.251 . S
C166 O170 1.275 . S
C166 O171 1.246 . S
O167 C161 1.263 . S
O167 Tb162 2.353 . S
C168 O172 1.245 . S
C168 O173 1.259 . S
C169 O174 1.250 . S
C169 O175 1.263 . S
O170 Tb162 2.427 . S
O170 C166 1.275 . S
O171 Tb162 2.513 . S
O171 C166 1.246 . S
O172 Tb162 2.453 . S
O172 C168 1.245 . S
O173 Tb160 2.343 . S
O173 Tb162 2.596 . S
O173 C168 1.259 . S
O174 Tb162 2.374 . S
O174 C169 1.250 . S
O175 Tb160 2.353 . S
O175 C169 1.263 . S
C176 O177 1.275 . S
C176 O178 1.246 . S
O177 Tb160 2.427 . S
O177 C176 1.275 . S
O178 Tb160 2.513 . S
O178 C176 1.246 . S
C179 O163 1.245 . S
C179 O164 1.259 . S
Tb180 O183 2.453 . S
Tb180 O184 2.596 1_545 S
Tb180 O185 2.374 . S
Tb180 O193 2.343 . S
Tb180 O195 2.353 . S
Tb180 O197 2.427 . S
Tb180 O198 2.513 . S
C181 O185 1.251 1_565 S
C181 O187 1.263 . S
Tb182 O184 2.343 . S
Tb182 O187 2.353 . S
Tb182 O190 2.427 . S
Tb182 O191 2.513 . S
Tb182 O192 2.453 . S
Tb182 O193 2.596 1_565 S
Tb182 O194 2.374 1_565 S
O183 Tb180 2.453 . S
O183 C199 1.245 . S
O184 Tb180 2.596 1_565 S
O184 Tb182 2.343 . S
O184 C199 1.259 1_565 S
O185 Tb180 2.374 . S
O185 C181 1.251 1_545 S
C186 O190 1.275 . S
C186 O191 1.246 . S
O187 C181 1.263 . S
O187 Tb182 2.353 . S
C188 O192 1.245 1_545 S
C188 O193 1.259 . S
C189 O194 1.250 . S
C189 O195 1.263 . S
O190 Tb182 2.427 . S
O190 C186 1.275 . S
O191 Tb182 2.513 . S
O191 C186 1.246 . S
O192 Tb182 2.453 . S
O192 C188 1.245 1_565 S
O193 Tb180 2.343 . S
O193 Tb182 2.596 1_545 S
O193 C188 1.259 . S
O194 Tb182 2.374 1_545 S
O194 C189 1.250 . S
O195 Tb180 2.353 . S
O195 C189 1.263 . S
C196 O197 1.275 . S
C196 O198 1.246 . S
O197 Tb180 2.427 . S
O197 C196 1.275 . S
O198 Tb180 2.513 . S
O198 C196 1.246 . S
C199 O183 1.245 . S
C199 O184 1.259 1_545 S
Tb200 O203 2.453 . S
Tb200 O204 2.596 . S
Tb200 O205 2.374 . S
Tb200 O213 2.343 . S
Tb200 O215 2.353 . S
Tb200 O217 2.427 . S
Tb200 O218 2.513 . S
C201 O205 1.251 . S
C201 O207 1.263 . S
Tb202 O204 2.343 . S
Tb202 O207 2.353 . S
Tb202 O210 2.427 . S
Tb202 O211 2.513 . S
Tb202 O212 2.453 . S
Tb202 O213 2.596 . S
Tb202 O214 2.374 . S
O203 Tb200 2.453 . S
O203 C219 1.245 . S
O204 Tb200 2.596 . S
O204 Tb202 2.343 . S
O204 C219 1.259 . S
O205 Tb200 2.374 . S
O205 C201 1.251 . S
C206 O210 1.275 . S
C206 O211 1.246 . S
O207 C201 1.263 . S
O207 Tb202 2.353 . S
C208 O212 1.245 . S
C208 O213 1.259 . S
C209 O214 1.250 . S
C209 O215 1.263 . S
O210 Tb202 2.427 . S
O210 C206 1.275 . S
O211 Tb202 2.513 . S
O211 C206 1.246 . S
O212 Tb202 2.453 . S
O212 C208 1.245 . S
O213 Tb200 2.343 . S
O213 Tb202 2.596 . S
O213 C208 1.259 . S
O214 Tb202 2.374 . S
O214 C209 1.250 . S
O215 Tb200 2.353 . S
O215 C209 1.263 . S
C216 O217 1.275 . S
C216 O218 1.246 . S
O217 Tb200 2.427 . S
O217 C216 1.275 . S
O218 Tb200 2.513 . S
O218 C216 1.246 . S
C219 O203 1.245 . S
C219 O204 1.259 . S
Tb220 O223 2.453 . S
Tb220 O224 2.596 1_565 S
Tb220 O225 2.374 . S
Tb220 O233 2.343 . S
Tb220 O235 2.353 . S
Tb220 O237 2.427 . S
Tb220 O238 2.513 . S
C221 O225 1.251 1_545 S
C221 O227 1.263 . S
Tb222 O224 2.343 . S
Tb222 O227 2.353 . S
Tb222 O230 2.427 . S
Tb222 O231 2.513 . S
Tb222 O232 2.453 . S
Tb222 O233 2.596 1_545 S
Tb222 O234 2.374 1_545 S
O223 Tb220 2.453 . S
O223 C239 1.245 . S
O224 Tb220 2.596 1_545 S
O224 Tb222 2.343 . S
O224 C239 1.259 1_545 S
O225 Tb220 2.374 . S
O225 C221 1.251 1_565 S
C226 O230 1.275 . S
C226 O231 1.246 . S
O227 C221 1.263 . S
O227 Tb222 2.353 . S
C228 O232 1.245 1_565 S
C228 O233 1.259 . S
C229 O234 1.250 . S
C229 O235 1.263 . S
O230 Tb222 2.427 . S
O230 C226 1.275 . S
O231 Tb222 2.513 . S
O231 C226 1.246 . S
O232 Tb222 2.453 . S
O232 C228 1.245 1_545 S
O233 Tb220 2.343 . S
O233 Tb222 2.596 1_565 S
O233 C228 1.259 . S
O234 Tb222 2.374 1_565 S
O234 C229 1.250 . S
O235 Tb220 2.353 . S
O235 C229 1.263 . S
C236 O237 1.275 . S
C236 O238 1.246 . S
O237 Tb220 2.427 . S
O237 C236 1.275 . S
O238 Tb220 2.513 . S
O238 C236 1.246 . S
C239 O223 1.245 . S
C239 O224 1.259 1_565 S
Tb240 O243 2.453 . S
Tb240 O244 2.596 . S
Tb240 O245 2.374 . S
Tb240 O253 2.343 . S
Tb240 O255 2.353 . S
Tb240 O257 2.427 . S
Tb240 O258 2.513 . S
C241 O245 1.251 . S
C241 O247 1.263 . S
Tb242 O244 2.343 . S
Tb242 O247 2.353 . S
Tb242 O250 2.427 . S
Tb242 O251 2.513 . S
Tb242 O252 2.453 . S
Tb242 O253 2.596 . S
Tb242 O254 2.374 . S
O243 Tb240 2.453 . S
O243 C259 1.245 . S
O244 Tb240 2.596 . S
O244 Tb242 2.343 . S
O244 C259 1.259 . S
O245 Tb240 2.374 . S
O245 C241 1.251 . S
C246 O250 1.275 . S
C246 O251 1.246 . S
O247 C241 1.263 . S
O247 Tb242 2.353 . S
C248 O252 1.245 . S
C248 O253 1.259 . S
C249 O254 1.250 . S
C249 O255 1.263 . S
O250 Tb242 2.427 . S
O250 C246 1.275 . S
O251 Tb242 2.513 . S
O251 C246 1.246 . S
O252 Tb242 2.453 . S
O252 C248 1.245 . S
O253 Tb240 2.343 . S
O253 Tb242 2.596 . S
O253 C248 1.259 . S
O254 Tb242 2.374 . S
O254 C249 1.250 . S
O255 Tb240 2.353 . S
O255 C249 1.263 . S
C256 O257 1.275 . S
C256 O258 1.246 . S
O257 Tb240 2.427 . S
O257 C256 1.275 . S
O258 Tb240 2.513 . S
O258 C256 1.246 . S
C259 O243 1.245 . S
C259 O244 1.259 . S
Tb260 O263 2.453 . S
Tb260 O264 2.596 1_545 S
Tb260 O265 2.374 1_545 S
Tb260 O273 2.343 . S
Tb260 O275 2.353 . S
Tb260 O277 2.427 . S
Tb260 O278 2.513 . S
C261 O265 1.251 . S
C261 O267 1.263 . S
Tb262 O264 2.343 . S
Tb262 O267 2.353 . S
Tb262 O270 2.427 . S
Tb262 O271 2.513 . S
Tb262 O272 2.453 . S
Tb262 O273 2.596 1_565 S
Tb262 O274 2.374 . S
O263 Tb260 2.453 . S
O263 C279 1.245 1_545 S
O264 Tb260 2.596 1_565 S
O264 Tb262 2.343 . S
O264 C279 1.259 . S
O265 Tb260 2.374 1_565 S
O265 C261 1.251 . S
C266 O270 1.275 . S
C266 O271 1.246 . S
O267 C261 1.263 . S
O267 Tb262 2.353 . S
C268 O272 1.245 . S
C268 O273 1.259 1_565 S
C269 O274 1.250 1_545 S
C269 O275 1.263 . S
O270 Tb262 2.427 . S
O270 C266 1.275 . S
O271 Tb262 2.513 . S
O271 C266 1.246 . S
O272 Tb262 2.453 . S
O272 C268 1.245 . S
O273 Tb260 2.343 . S
O273 Tb262 2.596 1_545 S
O273 C268 1.259 1_545 S
O274 Tb262 2.374 . S
O274 C269 1.250 1_565 S
O275 Tb260 2.353 . S
O275 C269 1.263 . S
C276 O277 1.275 . S
C276 O278 1.246 . S
O277 Tb260 2.427 . S
O277 C276 1.275 . S
O278 Tb260 2.513 . S
O278 C276 1.246 . S
C279 O263 1.245 1_565 S
C279 O264 1.259 . S
Tb280 O283 2.453 . S
Tb280 O284 2.596 . S
Tb280 O285 2.374 . S
Tb280 O293 2.343 . S
Tb280 O295 2.353 . S
Tb280 O297 2.427 . S
Tb280 O298 2.513 . S
C281 O285 1.251 . S
C281 O287 1.263 . S
Tb282 O284 2.343 . S
Tb282 O287 2.353 . S
Tb282 O290 2.427 . S
Tb282 O291 2.513 . S
Tb282 O292 2.453 . S
Tb282 O293 2.596 . S
Tb282 O294 2.374 . S
O283 Tb280 2.453 . S
O283 C299 1.245 . S
O284 Tb280 2.596 . S
O284 Tb282 2.343 . S
O284 C299 1.259 . S
O285 Tb280 2.374 . S
O285 C281 1.251 . S
C286 O290 1.275 . S
C286 O291 1.246 . S
O287 C281 1.263 . S
O287 Tb282 2.353 . S
C288 O292 1.245 . S
C288 O293 1.259 . S
C289 O294 1.250 . S
C289 O295 1.263 . S
O290 Tb282 2.427 . S
O290 C286 1.275 . S
O291 Tb282 2.513 . S
O291 C286 1.246 . S
O292 Tb282 2.453 . S
O292 C288 1.245 . S
O293 Tb280 2.343 . S
O293 Tb282 2.596 . S
O293 C288 1.259 . S
O294 Tb282 2.374 . S
O294 C289 1.250 . S
O295 Tb280 2.353 . S
O295 C289 1.263 . S
C296 O297 1.275 . S
C296 O298 1.246 . S
O297 Tb280 2.427 . S
O297 C296 1.275 . S
O298 Tb280 2.513 . S
O298 C296 1.246 . S
C299 O283 1.245 . S
C299 O284 1.259 . S
Tb300 O303 2.453 . S
Tb300 O304 2.596 1_565 S
Tb300 O305 2.374 1_565 S
Tb300 O313 2.343 . S
Tb300 O315 2.353 . S
Tb300 O317 2.427 . S
Tb300 O318 2.513 . S
C301 O305 1.251 . S
C301 O307 1.263 . S
Tb302 O304 2.343 . S
Tb302 O307 2.353 . S
Tb302 O310 2.427 . S
Tb302 O311 2.513 . S
Tb302 O312 2.453 . S
Tb302 O313 2.596 1_545 S
Tb302 O314 2.374 . S
O303 Tb300 2.453 . S
O303 C319 1.245 1_565 S
O304 Tb300 2.596 1_545 S
O304 Tb302 2.343 . S
O304 C319 1.259 . S
O305 Tb300 2.374 1_545 S
O305 C301 1.251 . S
C306 O310 1.275 . S
C306 O311 1.246 . S
O307 C301 1.263 . S
O307 Tb302 2.353 . S
C308 O312 1.245 . S
C308 O313 1.259 1_545 S
C309 O314 1.250 1_565 S
C309 O315 1.263 . S
O310 Tb302 2.427 . S
O310 C306 1.275 . S
O311 Tb302 2.513 . S
O311 C306 1.246 . S
O312 Tb302 2.453 . S
O312 C308 1.245 . S
O313 Tb300 2.343 . S
O313 Tb302 2.596 1_565 S
O313 C308 1.259 1_565 S
O314 Tb302 2.374 . S
O314 C309 1.250 1_545 S
O315 Tb300 2.353 . S
O315 C309 1.263 . S
C316 O317 1.275 . S
C316 O318 1.246 . S
O317 Tb300 2.427 . S
O317 C316 1.275 . S
O318 Tb300 2.513 . S
O318 C316 1.246 . S
C319 O303 1.245 1_545 S
C319 O304 1.259 . S
C320 C321 1.387 . S
C320 H324 0.950 . S
C320 C329 1.390 . S
C321 C320 1.387 . S
C321 C323 1.387 . S
H322 C329 0.950 . S
C323 C321 1.387 . S
C323 C325 1.390 . S
C323 H327 0.950 . S
H324 C320 0.950 . S
C325 C323 1.390 . S
C325 C326 1.387 . S
C325 H328 0.950 . S
C326 C325 1.387 . S
C326 C329 1.387 . S
H327 C323 0.950 . S
H328 C325 0.950 . S
C329 C320 1.390 . S
C329 H322 0.950 . S
C329 C326 1.387 . S
C330 C331 1.387 . S
C330 H334 0.950 . S
C330 C339 1.390 . S
C331 C330 1.387 . S
C331 C333 1.387 . S
H332 C339 0.950 . S
C333 C331 1.387 . S
C333 C335 1.390 . S
C333 H337 0.950 . S
H334 C330 0.950 . S
C335 C333 1.390 . S
C335 C336 1.387 . S
C335 H338 0.950 . S
C336 C335 1.387 . S
C336 C339 1.387 . S
H337 C333 0.950 . S
H338 C335 0.950 . S
C339 C330 1.390 . S
C339 H332 0.950 . S
C339 C336 1.387 . S
C340 C341 1.387 . S
C340 H344 0.950 . S
C340 C349 1.390 . S
C341 C340 1.387 . S
C341 C343 1.387 . S
H342 C349 0.950 . S
C343 C341 1.387 . S
C343 C345 1.390 . S
C343 H347 0.950 . S
H344 C340 0.950 . S
C345 C343 1.390 . S
C345 C346 1.387 . S
C345 H348 0.950 . S
C346 C345 1.387 . S
C346 C349 1.387 . S
H347 C343 0.950 . S
H348 C345 0.950 . S
C349 C340 1.390 . S
C349 H342 0.950 . S
C349 C346 1.387 . S
C350 C351 1.387 1_554 S
C350 H354 0.950 . S
C350 C359 1.390 1_655 S
C351 C350 1.387 1_556 S
C351 C353 1.387 . S
H352 C359 0.950 . S
C353 C351 1.387 . S
C353 C355 1.390 1_655 S
C353 H357 0.950 . S
H354 C350 0.950 . S
C355 C353 1.390 1_455 S
C355 C356 1.387 1_556 S
C355 H358 0.950 . S
C356 C355 1.387 1_554 S
C356 C359 1.387 . S
H357 C353 0.950 . S
H358 C355 0.950 . S
C359 C350 1.390 1_455 S
C359 H352 0.950 . S
C359 C356 1.387 . S
C360 C361 1.387 . S
C360 H364 0.950 . S
C360 C369 1.390 . S
C361 C360 1.387 . S
C361 C363 1.387 . S
H362 C369 0.950 . S
C363 C361 1.387 . S
C363 C365 1.390 . S
C363 H367 0.950 . S
H364 C360 0.950 . S
C365 C363 1.390 . S
C365 C366 1.387 . S
C365 H368 0.950 . S
C366 C365 1.387 . S
C366 C369 1.387 . S
H367 C363 0.950 . S
H368 C365 0.950 . S
C369 C360 1.390 . S
C369 H362 0.950 . S
C369 C366 1.387 . S
C370 C371 1.387 . S
C370 H374 0.950 . S
C370 C379 1.390 . S
C371 C370 1.387 . S
C371 C373 1.387 . S
H372 C379 0.950 . S
C373 C371 1.387 . S
C373 C375 1.390 . S
C373 H377 0.950 . S
H374 C370 0.950 . S
C375 C373 1.390 . S
C375 C376 1.387 . S
C375 H378 0.950 . S
C376 C375 1.387 . S
C376 C379 1.387 . S
H377 C373 0.950 . S
H378 C375 0.950 . S
C379 C370 1.390 . S
C379 H372 0.950 . S
C379 C376 1.387 . S
C380 C381 1.387 . S
C380 H384 0.950 . S
C380 C389 1.390 1_665 S
C381 C380 1.387 . S
C381 C383 1.387 1_554 S
H382 C389 0.950 . S
C383 C381 1.387 1_556 S
C383 C385 1.390 1_665 S
C383 H387 0.950 . S
H384 C380 0.950 . S
C385 C383 1.390 1_445 S
C385 C386 1.387 . S
C385 H388 0.950 . S
C386 C385 1.387 . S
C386 C389 1.387 1_556 S
H387 C383 0.950 . S
H388 C385 0.950 . S
C389 C380 1.390 1_445 S
C389 H382 0.950 . S
C389 C386 1.387 1_554 S
C390 C391 1.387 . S
C390 H394 0.950 . S
C390 C399 1.390 1_565 S
C391 C390 1.387 . S
C391 C393 1.387 . S
H392 C399 0.950 . S
C393 C391 1.387 . S
C393 C395 1.390 1_565 S
C393 H397 0.950 . S
H394 C390 0.950 . S
C395 C393 1.390 1_545 S
C395 C396 1.387 . S
C395 H398 0.950 . S
C396 C395 1.387 . S
C396 C399 1.387 . S
H397 C393 0.950 . S
H398 C395 0.950 . S
C399 C390 1.390 1_545 S
C399 H392 0.950 . S
C399 C396 1.387 . S
C400 C401 1.387 1_554 S
C400 H404 0.950 1_554 S
C400 C409 1.390 . S
C401 C400 1.387 1_556 S
C401 C403 1.387 1_556 S
H402 C409 0.950 . S
C403 C401 1.387 1_554 S
C403 C405 1.390 . S
C403 H407 0.950 . S
H404 C400 0.950 1_556 S
C405 C403 1.390 . S
C405 C406 1.387 . S
C405 H408 0.950 . S
C406 C405 1.387 . S
C406 C409 1.387 . S
H407 C403 0.950 . S
H408 C405 0.950 . S
C409 C400 1.390 . S
C409 H402 0.950 . S
C409 C406 1.387 . S
C410 C411 1.387 . S
C410 H414 0.950 . S
C410 C419 1.390 . S
C411 C410 1.387 . S
C411 C413 1.387 . S
H412 C419 0.950 . S
C413 C411 1.387 . S
C413 C415 1.390 . S
C413 H417 0.950 . S
H414 C410 0.950 . S
C415 C413 1.390 . S
C415 C416 1.387 . S
C415 H418 0.950 . S
C416 C415 1.387 . S
C416 C419 1.387 . S
H417 C413 0.950 . S
H418 C415 0.950 . S
C419 C410 1.390 . S
C419 H412 0.950 . S
C419 C416 1.387 . S
C420 C421 1.387 . S
C420 H424 0.950 . S
C420 C429 1.390 . S
C421 C420 1.387 . S
C421 C423 1.387 . S
H422 C429 0.952 1_545 S
C423 C421 1.387 . S
C423 C425 1.390 . S
C423 H427 0.950 . S
H424 C420 0.950 . S
C425 C423 1.390 . S
C425 C426 1.387 . S
C425 H428 0.950 . S
C426 C425 1.387 . S
C426 C429 1.387 . S
H427 C423 0.950 . S
H428 C425 0.950 . S
C429 C420 1.390 . S
C429 H422 0.952 1_565 S
C429 C426 1.387 . S
C430 C431 1.387 . S
C430 H434 0.950 . S
C430 C439 1.390 . S
C431 C430 1.387 . S
C431 C433 1.387 . S
H432 C439 0.950 . S
C433 C431 1.387 . S
C433 C435 1.390 . S
C433 H437 0.950 . S
H434 C430 0.950 . S
C435 C433 1.390 . S
C435 C436 1.387 . S
C435 H438 0.950 . S
C436 C435 1.387 . S
C436 C439 1.387 . S
H437 C433 0.950 . S
H438 C435 0.950 . S
C439 C430 1.390 . S
C439 H432 0.950 . S
C439 C436 1.387 . S
C440 C441 1.387 1_556 S
C440 H444 0.950 1_556 S
C440 C449 1.390 . S
C441 C440 1.387 1_554 S
C441 C443 1.387 1_554 S
H442 C449 0.950 . S
C443 C441 1.387 1_556 S
C443 C445 1.390 . S
C443 H447 0.950 . S
H444 C440 0.950 1_554 S
C445 C443 1.390 . S
C445 C446 1.387 . S
C445 H448 0.950 . S
C446 C445 1.387 . S
C446 C449 1.387 . S
H447 C443 0.950 . S
H448 C445 0.950 . S
C449 C440 1.390 . S
C449 H442 0.950 . S
C449 C446 1.387 . S
C450 C451 1.387 . S
C450 H454 0.950 . S
C450 C459 1.390 . S
C451 C450 1.387 . S
C451 C453 1.387 . S
H452 C459 0.950 . S
C453 C451 1.387 . S
C453 C455 1.390 . S
C453 H457 0.950 . S
H454 C450 0.950 . S
C455 C453 1.390 . S
C455 C456 1.387 . S
C455 H458 0.950 . S
C456 C455 1.387 . S
C456 C459 1.387 . S
H457 C453 0.950 . S
H458 C455 0.950 . S
C459 C450 1.390 . S
C459 H452 0.950 . S
C459 C456 1.387 . S
C460 C461 1.387 . S
C460 H464 0.950 . S
C460 C469 1.390 . S
C461 C460 1.387 . S
C461 C463 1.387 . S
H462 C469 0.950 . S
C463 C461 1.387 . S
C463 C465 1.390 . S
C463 H467 0.950 . S
H464 C460 0.950 . S
C465 C463 1.390 . S
C465 C466 1.387 . S
C465 H468 0.950 . S
C466 C465 1.387 . S
C466 C469 1.387 . S
H467 C463 0.950 . S
H468 C465 0.950 . S
C469 C460 1.390 . S
C469 H462 0.950 . S
C469 C466 1.387 . S
C470 C471 1.387 . S
C470 H474 0.950 . S
C470 C479 1.390 . S
C471 C470 1.387 . S
C471 C473 1.387 . S
H472 C479 0.950 . S
C473 C471 1.387 . S
C473 C475 1.390 . S
C473 H477 0.950 . S
H474 C470 0.950 . S
C475 C473 1.390 . S
C475 C476 1.387 . S
C475 H478 0.950 . S
C476 C475 1.387 . S
C476 C479 1.387 . S
H477 C473 0.950 . S
H478 C475 0.950 . S
C479 C470 1.390 . S
C479 H472 0.950 . S
C479 C476 1.387 . S
C480 C481 1.387 . S
C480 H484 0.950 . S
C480 C489 1.390 . S
C481 C480 1.387 . S
C481 C483 1.387 . S
H482 C489 0.950 . S
C483 C481 1.387 . S
C483 C485 1.390 . S
C483 H487 0.950 . S
H484 C480 0.950 . S
C485 C483 1.390 . S
C485 C486 1.387 . S
C485 H488 0.950 . S
C486 C485 1.387 . S
C486 C489 1.387 . S
H487 C483 0.950 . S
H488 C485 0.950 . S
C489 C480 1.390 . S
C489 H482 0.950 . S
C489 C486 1.387 . S
C490 C491 1.373 1_545 S
C490 H494 0.971 . S
C490 C499 1.383 1_545 S
C491 C490 1.373 1_565 S
C491 C493 1.387 . S
H492 C499 0.950 1_545 S
C493 C491 1.387 . S
C493 C495 1.390 . S
C493 H497 0.950 . S
H494 C490 0.971 . S
C495 C493 1.390 . S
C495 C496 1.387 . S
C495 H498 0.950 . S
C496 C495 1.387 . S
C496 C499 1.387 . S
H497 C493 0.950 . S
H498 C495 0.950 . S
C499 C490 1.383 1_565 S
C499 H492 0.950 1_565 S
C499 C496 1.387 . S
C500 C501 1.387 . S
C500 H504 0.950 . S
C500 C509 1.390 . S
C501 C500 1.387 . S
C501 C503 1.387 . S
H502 C509 0.950 . S
C503 C501 1.387 . S
C503 C505 1.390 . S
C503 H507 0.950 . S
H504 C500 0.950 . S
C505 C503 1.390 . S
C505 C506 1.387 1_554 S
C505 H508 0.950 1_554 S
C506 C505 1.387 1_556 S
C506 C509 1.387 1_556 S
H507 C503 0.950 . S
H508 C505 0.950 1_556 S
C509 C500 1.390 . S
C509 H502 0.950 . S
C509 C506 1.387 1_554 S
C510 C511 1.387 . S
C510 H514 0.950 . S
C510 C519 1.390 . S
C511 C510 1.387 . S
C511 C513 1.387 . S
H512 C519 0.950 . S
C513 C511 1.387 . S
C513 C515 1.390 1_545 S
C513 H517 0.950 1_545 S
H514 C510 0.950 . S
C515 C513 1.390 1_565 S
C515 C516 1.387 1_565 S
C515 H518 0.950 . S
C516 C515 1.387 1_545 S
C516 C519 1.387 . S
H517 C513 0.950 1_565 S
H518 C515 0.950 . S
C519 C510 1.390 . S
C519 H512 0.950 . S
C519 C516 1.387 . S
C520 C521 1.387 . S
C520 H524 0.950 . S
C520 C529 1.390 . S
C521 C520 1.387 . S
C521 C523 1.387 . S
H522 C529 0.950 . S
C523 C521 1.387 . S
C523 C525 1.390 . S
C523 H527 0.950 . S
H524 C520 0.950 . S
C525 C523 1.390 . S
C525 C526 1.387 . S
C525 H528 0.950 . S
C526 C525 1.387 . S
C526 C529 1.387 . S
H527 C523 0.950 . S
H528 C525 0.950 . S
C529 C520 1.390 . S
C529 H522 0.950 . S
C529 C526 1.387 . S
C530 C531 1.387 . S
C530 H534 0.950 1_545 S
C530 C539 1.390 . S
C531 C530 1.387 . S
C531 C533 1.387 . S
H532 C539 0.950 1_565 S
C533 C531 1.387 . S
C533 C535 1.390 . S
C533 H537 0.950 . S
H534 C530 0.950 1_565 S
C535 C533 1.390 . S
C535 C536 1.387 . S
C535 H538 0.950 . S
C536 C535 1.387 . S
C536 C539 1.387 . S
H537 C533 0.950 . S
H538 C535 0.950 . S
C539 C530 1.390 . S
C539 H532 0.950 1_545 S
C539 C536 1.387 . S
C540 C541 1.387 1_556 S
C540 H544 0.950 1_556 S
C540 C549 1.390 . S
C541 C540 1.387 1_554 S
C541 C543 1.387 1_554 S
H542 C549 0.950 . S
C543 C541 1.387 1_556 S
C543 C545 1.390 . S
C543 H547 0.950 . S
H544 C540 0.950 1_554 S
C545 C543 1.390 . S
C545 C546 1.387 . S
C545 H548 0.950 . S
C546 C545 1.387 . S
C546 C549 1.387 . S
H547 C543 0.950 . S
H548 C545 0.950 . S
C549 C540 1.390 . S
C549 H542 0.950 . S
C549 C546 1.387 . S
C550 C551 1.387 . S
C550 H554 0.950 . S
C550 C559 1.390 . S
C551 C550 1.387 . S
C551 C553 1.387 . S
H552 C559 0.950 . S
C553 C551 1.387 . S
C553 C555 1.390 . S
C553 H557 0.950 1_565 S
H554 C550 0.950 . S
C555 C553 1.390 . S
C555 C556 1.387 . S
C555 H558 0.950 . S
C556 C555 1.387 . S
C556 C559 1.387 . S
H557 C553 0.950 1_545 S
H558 C555 0.950 . S
C559 C550 1.390 . S
C559 H552 0.950 . S
C559 C556 1.387 . S
C560 C561 1.387 . S
C560 H564 0.950 . S
C560 C569 1.390 . S
C561 C560 1.387 . S
C561 C563 1.387 . S
H562 C569 0.950 . S
C563 C561 1.387 . S
C563 C565 1.390 . S
C563 H567 0.950 . S
H564 C560 0.950 . S
C565 C563 1.390 . S
C565 C566 1.387 . S
C565 H568 0.950 . S
C566 C565 1.387 . S
C566 C569 1.387 . S
H567 C563 0.950 . S
H568 C565 0.950 . S
C569 C560 1.390 . S
C569 H562 0.950 . S
C569 C566 1.387 . S
C570 C571 1.387 . S
C570 H574 0.950 . S
C570 C579 1.390 . S
C571 C570 1.387 . S
C571 C573 1.387 . S
H572 C579 0.950 . S
C573 C571 1.387 . S
C573 C575 1.390 . S
C573 H577 0.950 . S
H574 C570 0.950 . S
C575 C573 1.390 . S
C575 C576 1.387 . S
C575 H578 0.950 . S
C576 C575 1.387 . S
C576 C579 1.387 . S
H577 C573 0.950 . S
H578 C575 0.950 . S
C579 C570 1.390 . S
C579 H572 0.950 . S
C579 C576 1.387 . S
C580 C581 1.387 . S
C580 H584 0.950 . S
C580 C589 1.390 1_655 S
C581 C580 1.387 . S
C581 C583 1.387 . S
H582 C589 0.950 . S
C583 C581 1.387 . S
C583 C585 1.390 1_655 S
C583 H587 0.950 . S
H584 C580 0.950 . S
C585 C583 1.390 1_455 S
C585 C586 1.387 . S
C585 H588 0.950 . S
C586 C585 1.387 . S
C586 C589 1.387 . S
H587 C583 0.950 . S
H588 C585 0.950 . S
C589 C580 1.390 1_455 S
C589 H582 0.950 . S
C589 C586 1.387 . S
C590 C591 1.387 . S
C590 H594 0.950 . S
C590 C599 1.390 1_655 S
C591 C590 1.387 . S
C591 C593 1.387 . S
H592 C599 0.950 . S
C593 C591 1.387 . S
C593 C595 1.390 1_655 S
C593 H597 0.950 . S
H594 C590 0.950 . S
C595 C593 1.390 1_455 S
C595 C596 1.387 . S
C595 H598 0.950 . S
C596 C595 1.387 . S
C596 C599 1.387 . S
H597 C593 0.950 . S
H598 C595 0.950 . S
C599 C590 1.390 1_455 S
C599 H592 0.950 . S
C599 C596 1.387 . S
C600 C601 1.387 . S
C600 H604 0.950 . S
C600 C609 1.390 . S
C601 C600 1.387 . S
C601 C603 1.387 . S
H602 C609 0.950 . S
C603 C601 1.387 . S
C603 C605 1.390 . S
C603 H607 0.950 . S
H604 C600 0.950 . S
C605 C603 1.390 . S
C605 C606 1.387 . S
C605 H608 0.950 . S
C606 C605 1.387 . S
C606 C609 1.387 . S
H607 C603 0.950 . S
H608 C605 0.950 . S
C609 C600 1.390 . S
C609 H602 0.950 . S
C609 C606 1.387 . S
C610 C611 1.387 . S
C610 H614 0.950 . S
C610 C619 1.390 . S
C611 C610 1.387 . S
C611 C613 1.387 . S
H612 C619 0.950 . S
C613 C611 1.387 . S
C613 C615 1.390 . S
C613 H617 0.950 . S
H614 C610 0.950 . S
C615 C613 1.390 . S
C615 C616 1.387 . S
C615 H618 0.950 . S
C616 C615 1.387 . S
C616 C619 1.387 . S
H617 C613 0.950 . S
H618 C615 0.950 . S
C619 C610 1.390 . S
C619 H612 0.950 . S
C619 C616 1.387 . S
C620 C621 1.387 . S
C620 H624 0.950 . S
C620 C629 1.390 1_455 S
C621 C620 1.387 . S
C621 C623 1.387 . S
H622 C629 0.950 . S
C623 C621 1.387 . S
C623 C625 1.390 1_455 S
C623 H627 0.950 . S
H624 C620 0.950 . S
C625 C623 1.390 1_655 S
C625 C626 1.387 . S
C625 H628 0.950 . S
C626 C625 1.387 . S
C626 C629 1.387 . S
H627 C623 0.950 . S
H628 C625 0.950 . S
C629 C620 1.390 1_655 S
C629 H622 0.950 . S
C629 C626 1.387 . S
C630 C631 1.387 . S
C630 H634 0.950 . S
C630 C639 1.390 1_455 S
C631 C630 1.387 . S
C631 C633 1.387 . S
H632 C639 0.950 . S
C633 C631 1.387 . S
C633 C635 1.390 1_455 S
C633 H637 0.950 . S
H634 C630 0.950 . S
C635 C633 1.390 1_655 S
C635 C636 1.387 . S
C635 H638 0.950 . S
C636 C635 1.387 . S
C636 C639 1.387 . S
H637 C633 0.950 . S
H638 C635 0.950 . S
C639 C630 1.390 1_655 S
C639 H632 0.950 . S
C639 C636 1.387 . S
C640 C641 1.387 . S
C640 H644 0.950 . S
C640 C649 1.390 . S
C641 C640 1.387 . S
C641 C643 1.387 . S
H642 C649 0.950 . S
C643 C641 1.387 . S
C643 C645 1.390 . S
C643 H647 0.950 . S
H644 C640 0.950 . S
C645 C643 1.390 . S
C645 C646 1.387 . S
C645 H648 0.950 . S
C646 C645 1.387 . S
C646 C649 1.387 . S
H647 C643 0.950 . S
H648 C645 0.950 . S
C649 C640 1.390 . S
C649 H642 0.950 . S
C649 C646 1.387 . S
C650 C651 1.387 . S
C650 H654 0.950 . S
C650 C659 1.390 . S
C651 C650 1.387 . S
C651 C653 1.387 . S
H652 C659 0.950 . S
C653 C651 1.387 . S
C653 C655 1.390 . S
C653 H657 0.950 . S
H654 C650 0.950 . S
C655 C653 1.390 . S
C655 C656 1.387 . S
C655 H658 0.950 . S
C656 C655 1.387 . S
C656 C659 1.387 . S
H657 C653 0.950 . S
H658 C655 0.950 . S
C659 C650 1.390 . S
C659 H652 0.950 . S
C659 C656 1.387 . S
C660 C661 1.387 . S
C660 H664 0.950 . S
C660 C669 1.390 . S
C661 C660 1.387 . S
C661 C663 1.387 . S
H662 C669 0.950 . S
C663 C661 1.387 . S
C663 C665 1.390 . S
C663 H667 0.950 . S
H664 C660 0.950 . S
C665 C663 1.390 . S
C665 C666 1.387 . S
C665 H668 0.950 . S
C666 C665 1.387 . S
C666 C669 1.387 . S
H667 C663 0.950 . S
H668 C665 0.950 . S
C669 C660 1.390 . S
C669 H662 0.950 . S
C669 C666 1.387 . S
C670 C671 1.387 . S
C670 H674 0.950 . S
C670 C679 1.390 . S
C671 C670 1.387 . S
C671 C673 1.387 . S
H672 C679 0.950 . S
C673 C671 1.387 . S
C673 C675 1.390 . S
C673 H677 0.950 . S
H674 C670 0.950 . S
C675 C673 1.390 . S
C675 C676 1.387 . S
C675 H678 0.950 . S
C676 C675 1.387 . S
C676 C679 1.387 . S
H677 C673 0.950 . S
H678 C675 0.950 . S
C679 C670 1.390 . S
C679 H672 0.950 . S
C679 C676 1.387 . S
C680 C681 1.387 . S
C680 H684 0.950 . S
C680 C689 1.390 . S
C681 C680 1.387 . S
C681 C683 1.387 . S
H682 C689 0.950 . S
C683 C681 1.387 . S
C683 C685 1.390 . S
C683 H687 0.950 . S
H684 C680 0.950 . S
C685 C683 1.390 . S
C685 C686 1.387 . S
C685 H688 0.950 . S
C686 C685 1.387 . S
C686 C689 1.387 . S
H687 C683 0.950 . S
H688 C685 0.950 . S
C689 C680 1.390 . S
C689 H682 0.950 . S
C689 C686 1.387 . S
C690 C691 1.387 . S
C690 H694 0.950 . S
C690 C699 1.390 . S
C691 C690 1.387 . S
C691 C693 1.387 . S
H692 C699 0.950 . S
C693 C691 1.387 . S
C693 C695 1.390 . S
C693 H697 0.950 . S
H694 C690 0.950 . S
C695 C693 1.390 . S
C695 C696 1.387 . S
C695 H698 0.950 . S
C696 C695 1.387 . S
C696 C699 1.387 . S
H697 C693 0.950 . S
H698 C695 0.950 . S
C699 C690 1.390 . S
C699 H692 0.950 . S
C699 C696 1.387 . S
C700 C701 1.387 . S
C700 H704 0.950 . S
C700 C709 1.390 . S
C701 C700 1.387 . S
C701 C703 1.387 . S
H702 C709 0.950 . S
C703 C701 1.387 . S
C703 C705 1.390 . S
C703 H707 0.950 . S
H704 C700 0.950 . S
C705 C703 1.390 . S
C705 C706 1.387 . S
C705 H708 0.950 . S
C706 C705 1.387 . S
C706 C709 1.387 . S
H707 C703 0.950 . S
H708 C705 0.950 . S
C709 C700 1.390 . S
C709 H702 0.950 . S
C709 C706 1.387 . S
C710 C711 1.387 . S
C710 H714 0.950 . S
C710 C719 1.390 . S
C711 C710 1.387 . S
C711 C713 1.387 . S
H712 C719 0.950 . S
C713 C711 1.387 . S
C713 C715 1.390 . S
C713 H717 0.950 . S
H714 C710 0.950 . S
C715 C713 1.390 . S
C715 C716 1.387 . S
C715 H718 0.950 . S
C716 C715 1.387 . S
C716 C719 1.387 . S
H717 C713 0.950 . S
H718 C715 0.950 . S
C719 C710 1.390 . S
C719 H712 0.950 . S
C719 C716 1.387 . S
C720 C721 1.387 . S
C720 H724 0.950 . S
C720 C729 1.390 . S
C721 C720 1.387 . S
C721 C723 1.387 . S
H722 C729 0.950 . S
C723 C721 1.387 . S
C723 C725 1.390 . S
C723 H727 0.950 . S
H724 C720 0.950 . S
C725 C723 1.390 . S
C725 C726 1.387 . S
C725 H728 0.950 . S
C726 C725 1.387 . S
C726 C729 1.387 . S
H727 C723 0.950 . S
H728 C725 0.950 . S
C729 C720 1.390 . S
C729 H722 0.950 . S
C729 C726 1.387 . S
C730 C731 1.387 . S
C730 H734 0.950 . S
C730 C739 1.390 . S
C731 C730 1.387 . S
C731 C733 1.387 . S
H732 C739 0.950 . S
C733 C731 1.387 . S
C733 C735 1.390 . S
C733 H737 0.950 . S
H734 C730 0.950 . S
C735 C733 1.390 . S
C735 C736 1.387 . S
C735 H738 0.950 . S
C736 C735 1.387 . S
C736 C739 1.387 . S
H737 C733 0.950 . S
H738 C735 0.950 . S
C739 C730 1.390 . S
C739 H732 0.950 . S
C739 C736 1.387 . S
C740 C741 1.387 . S
C740 H744 0.950 . S
C740 C749 1.390 . S
C741 C740 1.387 . S
C741 C743 1.387 . S
H742 C749 0.950 . S
C743 C741 1.387 . S
C743 C745 1.390 . S
C743 H747 0.950 . S
H744 C740 0.950 . S
C745 C743 1.390 . S
C745 C746 1.387 . S
C745 H748 0.950 . S
C746 C745 1.387 . S
C746 C749 1.387 . S
H747 C743 0.950 . S
H748 C745 0.950 . S
C749 C740 1.390 . S
C749 H742 0.950 . S
C749 C746 1.387 . S
C750 C751 1.387 . S
C750 H754 0.950 . S
C750 C759 1.390 . S
C751 C750 1.387 . S
C751 C753 1.387 . S
H752 C759 0.950 . S
C753 C751 1.387 . S
C753 C755 1.390 . S
C753 H757 0.950 . S
H754 C750 0.950 . S
C755 C753 1.390 . S
C755 C756 1.387 . S
C755 H758 0.950 . S
C756 C755 1.387 . S
C756 C759 1.387 . S
H757 C753 0.950 . S
H758 C755 0.950 . S
C759 C750 1.390 . S
C759 H752 0.950 . S
C759 C756 1.387 . S
C760 C761 1.387 . S
C760 H764 0.950 . S
C760 C769 1.390 . S
C761 C760 1.387 . S
C761 C763 1.387 . S
H762 C769 0.950 . S
C763 C761 1.387 . S
C763 C765 1.390 . S
C763 H767 0.950 . S
H764 C760 0.950 . S
C765 C763 1.390 . S
C765 C766 1.387 . S
C765 H768 0.950 . S
C766 C765 1.387 . S
C766 C769 1.387 . S
H767 C763 0.950 . S
H768 C765 0.950 . S
C769 C760 1.390 . S
C769 H762 0.950 . S
C769 C766 1.387 . S
C770 C771 1.387 . S
C770 H774 0.950 . S
C770 C779 1.390 . S
C771 C770 1.387 . S
C771 C773 1.387 . S
H772 C779 0.950 . S
C773 C771 1.387 . S
C773 C775 1.390 . S
C773 H777 0.950 . S
H774 C770 0.950 . S
C775 C773 1.390 . S
C775 C776 1.387 . S
C775 H778 0.950 . S
C776 C775 1.387 . S
C776 C779 1.387 . S
H777 C773 0.950 . S
H778 C775 0.950 . S
C779 C770 1.390 . S
C779 H772 0.950 . S
C779 C776 1.387 . S
C780 C781 1.387 . S
C780 H784 0.950 . S
C780 C789 1.390 . S
C781 C780 1.387 . S
C781 C783 1.387 . S
H782 C789 0.950 . S
C783 C781 1.387 . S
C783 C785 1.390 . S
C783 H787 0.950 . S
H784 C780 0.950 . S
C785 C783 1.390 . S
C785 C786 1.387 . S
C785 H788 0.950 . S
C786 C785 1.387 . S
C786 C789 1.387 . S
H787 C783 0.950 . S
H788 C785 0.950 . S
C789 C780 1.390 . S
C789 H782 0.950 . S
C789 C786 1.387 . S
C790 C791 1.387 . S
C790 H794 0.950 . S
C790 C799 1.390 . S
C791 C790 1.387 . S
C791 C793 1.387 . S
H792 C799 0.950 . S
C793 C791 1.387 . S
C793 C795 1.390 . S
C793 H797 0.950 . S
H794 C790 0.950 . S
C795 C793 1.390 . S
C795 C796 1.387 . S
C795 H798 0.950 . S
C796 C795 1.387 . S
C796 C799 1.387 . S
H797 C793 0.950 . S
H798 C795 0.950 . S
C799 C790 1.390 . S
C799 H792 0.950 . S
C799 C796 1.387 . S
C321 C8 0.878 . S
C326 C259 0.878 . S
C331 C119 0.872 . S
C336 C28 0.872 . S
C341 C48 0.879 . S
C346 C299 0.879 . S
C351 C68 0.870 . S
C356 C159 0.870 . S
C361 C99 0.879 . S
C366 C168 0.879 . S
C371 C208 0.879 . S
C376 C139 0.879 . S
C381 C279 0.871 . S
C386 C188 0.871 . S
C391 C228 0.878 . S
C396 C319 0.878 . S
C401 C189 1.880 . S
C406 C19 1.842 . S
C411 C39 1.842 . S
C416 C209 1.879 . S
C421 C59 1.841 . S
C426 C229 1.879 . S
C431 C169 1.879 . S
C436 C79 1.842 . S
C441 C261 1.879 . S
C446 C88 1.841 . S
C451 C281 1.880 . S
C456 C108 1.842 . S
C461 C128 1.843 . S
C466 C301 1.880 . S
C471 C241 1.879 . S
C476 C148 1.842 . S
C481 C179 1.841 . S
C486 C29 1.879 . S
C491 C199 1.841 1_565 S
C496 C49 1.879 . S
C501 C219 1.841 . S
C506 C69 1.879 . S
C511 C9 1.880 . S
C516 C239 1.842 1_545 S
C521 C101 1.881 . S
C526 C248 1.843 . S
C531 C268 1.841 1_545 S
C536 C121 1.880 . S
C541 C141 1.879 . S
C546 C288 1.841 . S
C551 C308 1.843 1_565 S
C556 C81 1.880 . S
C561 C16 1.915 . S
C566 C216 1.915 . S
C571 C36 1.915 . S
C576 C236 1.915 . S
C581 C176 1.914 . S
C586 C56 1.914 . S
C591 C76 1.915 . S
C596 C196 1.915 . S
C601 C86 1.914 . S
C606 C286 1.914 . S
C611 C106 1.915 . S
C616 C306 1.915 . S
C621 C246 1.915 . S
C626 C126 1.915 . S
C631 C146 1.915 . S
C636 C266 1.915 . S
C641 C1 1.204 . S
C646 C156 1.281 . S
C651 C256 1.281 . S
C656 C21 1.204 . S
C661 C41 1.204 . S
C666 C116 1.281 . S
C671 C61 1.204 1_455 S
C676 C296 1.281 . S
C681 C89 1.202 . S
C686 C66 1.279 . S
C691 C166 1.281 . S
C696 C109 1.204 . S
C701 C129 1.203 . S
C706 C26 1.281 . S
C711 C206 1.281 . S
C716 C149 1.204 1_655 S
C721 C161 1.204 . S
C726 C316 1.281 . S
C731 C96 1.279 . S
C736 C181 1.201 1_655 S
C741 C276 1.279 . S
C746 C201 1.202 . S
C751 C221 1.201 . S
C756 C136 1.279 . S
C761 C249 1.204 . S
C766 C226 1.281 . S
C771 C269 1.201 1_455 S
C776 C6 1.279 . S
C781 C186 1.279 . S
C786 C289 1.202 . S
C791 C46 1.281 . S
C796 C309 1.204 . S
