# Generated by pormake.
# Topology vby, (6)-cn, num edge types: 1
# Building blocks:
#     Node 0, Type 0, BuildingBlock: CUWYAW_clean_sbu_0, # of connection points: 6
#     Node 1, Type 0, BuildingBlock: CUWYAW_clean_sbu_0, # of connection points: 6
#     Node 2, Type 0, BuildingBlock: CUWYAW_clean_sbu_0, # of connection points: 6
#     Node 3, Type 0, BuildingBlock: CUWYAW_clean_sbu_0, # of connection points: 6
#     Node 4, Type 0, BuildingBlock: CUWYAW_clean_sbu_0, # of connection points: 6
#     Node 5, Type 0, BuildingBlock: CUWYAW_clean_sbu_0, # of connection points: 6
#     Node 6, Type 0, BuildingBlock: CUWYAW_clean_sbu_0, # of connection points: 6
#     Node 7, Type 0, BuildingBlock: CUWYAW_clean_sbu_0, # of connection points: 6
#     Edge 8, Type (0, 0), BuildingBlock: XUDNAN_clean_linker_2, # of connection points: 2
#     Edge 9, Type (0, 0), BuildingBlock: XUDNAN_clean_linker_2, # of connection points: 2
#     Edge 10, Type (0, 0), BuildingBlock: XUDNAN_clean_linker_2, # of connection points: 2
#     Edge 11, Type (0, 0), BuildingBlock: XUDNAN_clean_linker_2, # of connection points: 2
#     Edge 12, Type (0, 0), BuildingBlock: XUDNAN_clean_linker_2, # of connection points: 2
#     Edge 13, Type (0, 0), BuildingBlock: XUDNAN_clean_linker_2, # of connection points: 2
#     Edge 14, Type (0, 0), BuildingBlock: XUDNAN_clean_linker_2, # of connection points: 2
#     Edge 15, Type (0, 0), BuildingBlock: XUDNAN_clean_linker_2, # of connection points: 2
#     Edge 16, Type (0, 0), BuildingBlock: XUDNAN_clean_linker_2, # of connection points: 2
#     Edge 17, Type (0, 0), BuildingBlock: XUDNAN_clean_linker_2, # of connection points: 2
#     Edge 18, Type (0, 0), BuildingBlock: XUDNAN_clean_linker_2, # of connection points: 2
#     Edge 19, Type (0, 0), BuildingBlock: XUDNAN_clean_linker_2, # of connection points: 2
#     Edge 20, Type (0, 0), BuildingBlock: XUDNAN_clean_linker_2, # of connection points: 2
#     Edge 21, Type (0, 0), BuildingBlock: XUDNAN_clean_linker_2, # of connection points: 2
#     Edge 22, Type (0, 0), BuildingBlock: XUDNAN_clean_linker_2, # of connection points: 2
#     Edge 23, Type (0, 0), BuildingBlock: XUDNAN_clean_linker_2, # of connection points: 2
#     Edge 24, Type (0, 0), BuildingBlock: XUDNAN_clean_linker_2, # of connection points: 2
#     Edge 25, Type (0, 0), BuildingBlock: XUDNAN_clean_linker_2, # of connection points: 2
#     Edge 26, Type (0, 0), BuildingBlock: XUDNAN_clean_linker_2, # of connection points: 2
#     Edge 27, Type (0, 0), BuildingBlock: XUDNAN_clean_linker_2, # of connection points: 2
#     Edge 28, Type (0, 0), BuildingBlock: XUDNAN_clean_linker_2, # of connection points: 2
#     Edge 29, Type (0, 0), BuildingBlock: XUDNAN_clean_linker_2, # of connection points: 2
#     Edge 30, Type (0, 0), BuildingBlock: XUDNAN_clean_linker_2, # of connection points: 2
#     Edge 31, Type (0, 0), BuildingBlock: XUDNAN_clean_linker_2, # of connection points: 2
# Relax obj value: 0.631
# Max RMSD: 0.248
# Mean RMSD: 0.203
data_MOF--net-vby--node1-CUWYAW_clean_sbu_0--edge1-XUDNAN_clean_linker_2
_symmetry_space_group_name_H-M    P1
_symmetry_Int_Tables_number       1
_symmetry_cell_setting            triclinic
loop_
_symmetry_equiv_pos_as_xyz
'x, y, z'
_cell_length_a     18.031484
_cell_length_b     72.828629
_cell_length_c     30.552307
_cell_angle_alpha  86.342724
_cell_angle_beta   88.613471
_cell_angle_gamma 75.556074
loop_
_atom_site_label
_atom_site_type_symbol
_atom_site_fract_x
_atom_site_fract_y
_atom_site_fract_z
_atom_type_partial_charge
C0 C 0.94365 0.47693 0.94017 0.0
Eu1 Eu 0.07577 0.46784 0.97597 0.0
C2 C 0.88252 0.4937 0.9471 0.0
C3 C 0.87155 0.50111 -0.01128 0.0
C4 C 0.80028 0.51263 -0.00076 0.0
C5 C 0.73982 0.51378 0.9701 0.0
C6 C 0.75999 0.51359 0.9252 0.0
C7 C 0.83078 0.50182 0.91368 0.0
C8 C 0.09912 0.4663 0.06387 0.0
C9 C 0.09596 0.51556 0.97926 0.0
C10 C 0.34267 0.46386 0.00831 0.0
Eu11 Eu 0.2051 0.47116 -0.0189 0.0
C12 C 0.39593 0.44505 0.01266 0.0
C13 C 0.43891 0.43716 0.97658 0.0
C14 C 0.49729 0.42068 -0.01671 0.0
C15 C 0.5204 0.41449 0.02682 0.0
C16 C 0.46099 0.41763 0.05828 0.0
C17 C 0.40165 0.43404 0.05259 0.0
C18 C 0.17176 0.46873 0.89446 0.0
C19 C 0.19077 0.42344 -0.0189 0.0
O20 O 1.00393 0.48054 0.92061 0.0
O21 O 0.95972 0.46465 0.97405 0.0
O22 O 0.06573 0.45514 0.04481 0.0
O23 O 0.11843 0.47799 0.03567 0.0
O24 O 0.04935 0.50342 0.97699 0.0
O25 O 0.16916 0.50558 -0.01882 0.0
O26 O 0.2841 0.46621 0.03511 0.0
O27 O 0.32449 0.471 0.96846 0.0
O28 O 0.19429 0.48293 0.9085 0.0
O29 O 0.16408 0.45774 0.92674 0.0
O30 O 0.23535 0.43576 -0.01364 0.0
O31 O 0.11755 0.43321 0.97451 0.0
H32 H 0.91413 0.49636 0.01418 0.0
H33 H 0.78914 0.51565 0.03337 0.0
H34 H 0.71561 0.51718 0.90062 0.0
H35 H 0.84123 0.49748 0.88034 0.0
H36 H 0.43067 0.44414 0.94404 0.0
H37 H 0.53383 0.41594 0.95553 0.0
H38 H 0.46968 0.41058 0.0907 0.0
H39 H 0.36396 0.43864 0.08007 0.0
C40 C 0.11378 0.71973 0.97229 0.0
Eu41 Eu 0.97603 0.71792 -0.01155 0.0
C42 C 0.17024 0.70742 0.94506 0.0
C43 C 0.2288 0.69325 0.96485 0.0
C44 C 0.28919 0.68374 0.93917 0.0
C45 C 0.29713 0.69109 0.89576 0.0
C46 C 0.22799 0.69972 0.87412 0.0
C47 C 0.16576 0.70909 0.899 0.0
C48 C 0.92243 0.72053 0.07275 0.0
C49 C 0.95101 0.67337 -0.01577 0.0
C50 C 0.7098 0.72205 -0.0019 0.0
Eu51 Eu 0.84815 0.72109 0.97956 0.0
C52 C 0.65814 0.73948 0.01276 0.0
C53 C 0.63912 0.75592 -0.01571 0.0
C54 C 0.58159 0.7714 -0.00336 0.0
C55 C 0.53392 0.76817 0.0319 0.0
C56 C 0.57294 0.75655 0.06709 0.0
C57 C 0.63185 0.74082 0.05643 0.0
C58 C 0.9058 0.72134 0.89546 0.0
C59 C 0.86667 0.76566 -0.01806 0.0
O60 O 0.05556 0.73088 0.9515 0.0
O61 O 0.09451 0.71165 0.00869 0.0
O62 O 0.97573 0.70649 0.05965 0.0
O63 O 0.89427 0.73112 0.03955 0.0
O64 O 1.00497 0.68315 -0.01387 0.0
O65 O 0.88112 0.68584 -0.01738 0.0
O66 O 0.76435 0.71382 0.0255 0.0
O67 O 0.73317 0.72282 0.9573 0.0
O68 O 0.84829 0.73422 0.90941 0.0
O69 O 0.93251 0.70954 0.92698 0.0
O70 O 0.81436 0.75565 0.97851 0.0
O71 O 0.93734 0.75343 -0.01445 0.0
H72 H 0.23032 0.6903 9e-05 0.0
H73 H 0.33622 0.67394 0.9561 0.0
H74 H 0.22704 0.70286 0.83901 0.0
H75 H 0.11736 0.71854 0.88227 0.0
H76 H 0.66495 0.75653 0.95201 0.0
H77 H 0.562 0.78295 0.97224 0.0
H78 H 0.54474 0.75603 0.09866 0.0
H79 H 0.65178 0.72928 0.08085 0.0
C80 C 1.00276 0.69639 0.4512 0.0
Eu81 Eu 0.99082 0.72978 0.47941 0.0
C82 C 0.95988 0.68316 0.46722 0.0
C83 C 0.93773 0.68283 0.51145 0.0
C84 C 0.89684 0.67007 0.5272 0.0
C85 C 0.88054 0.65722 0.49889 0.0
C86 C 0.88895 0.66029 0.45336 0.0
C87 C 0.93071 0.67299 0.43757 0.0
C88 C 0.99026 0.72369 0.56983 0.0
C89 C 0.78774 0.73522 0.46379 0.0
C90 C 0.93941 0.77893 0.49803 0.0
Eu91 Eu 0.96682 0.7437 0.47891 0.0
C92 C 0.98838 0.79175 0.48887 0.0
C93 C 0.98928 0.80072 0.44689 0.0
C94 C 0.04789 0.80922 0.43504 0.0
C95 C 0.10602 0.80861 0.46495 0.0
C96 C 0.10502 0.79975 0.50688 0.0
C97 C 0.04541 0.79186 0.51922 0.0
C98 C 0.96746 0.74531 0.38747 0.0
C99 C 0.17521 0.73558 0.46336 0.0
O100 O 0.95879 0.71161 0.43329 0.0
O101 O 0.0515 0.69992 0.47824 0.0
O102 O 0.05066 0.71843 0.54539 0.0
O103 O 0.9355 0.73209 0.54531 0.0
O104 O 0.84693 0.73656 0.4904 0.0
O105 O 0.84385 0.73658 0.4913 0.0
O106 O 0.96874 0.76474 0.52523 0.0
O107 O 0.90996 0.77353 0.46428 0.0
O108 O 0.9061 0.7472 0.41137 0.0
O109 O 1.02343 0.7411 0.41326 0.0
O110 O 0.10961 0.73898 0.48923 0.0
O111 O 0.11075 0.73893 0.48884 0.0
H112 H 0.95548 0.69165 0.53425 0.0
H113 H 0.88963 0.66823 0.5624 0.0
H114 H 0.87511 0.65068 0.43103 0.0
H115 H 0.94325 0.67422 0.40278 0.0
H116 H 0.94641 0.80059 0.42275 0.0
H117 H 0.04761 0.8163 0.40273 0.0
H118 H 0.15044 0.79888 0.53013 0.0
H119 H 0.04652 0.78486 0.55169 0.0
C120 C 0.1476 0.41287 0.48234 0.0
Eu121 Eu 0.09114 0.44935 0.48791 0.0
C122 C 0.10215 0.39959 0.47348 0.0
C123 C 0.0696 0.39132 0.50934 0.0
C124 C 1.00416 0.3852 0.50374 0.0
C125 C 0.97288 0.38629 0.46184 0.0
C126 C 1.00928 0.39286 0.42533 0.0
C127 C 0.07378 0.39949 0.4311 0.0
C128 C 0.08836 0.45742 0.57613 0.0
C129 C 0.88177 0.45602 0.47207 0.0
C130 C 1.00808 0.49223 0.4872 0.0
Eu131 Eu 0.07006 0.45565 0.48314 0.0
C132 C 1.01864 0.50722 0.51314 0.0
C133 C 0.04026 0.52231 0.49078 0.0
C134 C 0.06477 0.53525 0.51392 0.0
C135 C 0.06833 0.53339 0.56019 0.0
C136 C 0.04676 0.51806 0.58243 0.0
C137 C 1.0198 0.50537 0.55908 0.0
C138 C 0.07429 0.45574 0.39216 0.0
C139 C 0.2737 0.45498 0.47164 0.0
O140 O 0.15438 0.42505 0.45071 0.0
O141 O 0.13006 0.421 0.51885 0.0
O142 O 0.1152 0.4676 0.54621 0.0
O143 O 0.06251 0.44603 0.55595 0.0
O144 O 0.95258 0.44642 0.48856 0.0
O145 O 0.95073 0.44627 0.48871 0.0
O146 O 0.97842 0.47936 0.50621 0.0
O147 O 0.06769 0.48494 0.46401 0.0
O148 O 0.0358 0.44542 0.41509 0.0
O149 O 0.10785 0.46278 0.41933 0.0
O150 O 0.21499 0.45066 0.49732 0.0
O151 O 0.21991 0.4505 0.49854 0.0
H152 H 0.09013 0.39131 0.5424 0.0
H153 H 0.97639 0.38036 0.5325 0.0
H154 H 0.98679 0.39334 0.3926 0.0
H155 H 0.09782 0.40578 0.40285 0.0
H156 H 0.03947 0.52388 0.45522 0.0
H157 H 0.07777 0.54708 0.49499 0.0
H158 H 0.04788 0.51629 0.61785 0.0
H159 H 1.00123 0.49399 0.57694 0.0
C160 C 0.44809 0.97764 0.9508 0.0
Eu161 Eu 0.58395 0.9683 -0.0181 0.0
C162 C 0.38691 0.99373 0.96219 0.0
C163 C 0.3785 0.99912 0.00562 0.0
C164 C 0.30976 1.01099 0.01872 0.0
C165 C 0.24816 1.01546 -0.01088 0.0
C166 C 0.26778 1.01621 0.94417 0.0
C167 C 0.33562 1.00389 0.93046 0.0
C168 C 0.60762 0.9667 0.07065 0.0
C169 C 0.60967 1.01532 -0.01544 0.0
C170 C 0.84957 0.96197 0.01397 0.0
Eu171 Eu 0.71165 0.97013 -0.01284 0.0
C172 C 0.89836 0.94276 0.02157 0.0
C173 C 0.93058 0.93164 -0.01348 0.0
C174 C 0.98734 0.9149 -0.00429 0.0
C175 C 1.02134 0.9127 0.03744 0.0
C176 C 0.96726 0.9176 0.07148 0.0
C177 C 0.91038 0.93446 0.06451 0.0
C178 C 0.67754 0.972 0.89987 0.0
C179 C 0.69515 0.92319 -0.01525 0.0
O180 O 0.50552 0.98232 0.93032 0.0
O181 O 0.46889 0.9643 -0.01789 0.0
O182 O 0.57474 0.95549 0.05146 0.0
O183 O 0.62758 0.97808 0.04214 0.0
O184 O 0.55935 1.00408 -0.01688 0.0
O185 O 0.68132 1.00431 -0.01388 0.0
O186 O 0.79127 0.9662 0.04079 0.0
O187 O 0.83242 0.96781 0.97326 0.0
O188 O 0.7019 0.98486 0.91867 0.0
O189 O 0.66737 0.95954 0.92848 0.0
O190 O 0.74058 0.935 -0.00843 0.0
O191 O 0.62283 0.93356 0.97773 0.0
H192 H 0.42147 0.99279 0.03007 0.0
H193 H 0.30077 1.01258 0.05355 0.0
H194 H 0.22397 1.02199 0.91992 0.0
H195 H 0.34478 1.00114 0.89605 0.0
H196 H 0.9157 0.93626 0.95276 0.0
H197 H 1.01769 0.90749 0.96846 0.0
H198 H 0.98094 0.91223 0.10492 0.0
H199 H 0.87959 0.94134 0.09233 0.0
C200 C 0.61162 0.21398 0.94429 0.0
Eu201 Eu 0.47746 0.22123 0.9793 0.0
C202 C 0.67272 0.19685 0.95041 0.0
C203 C 0.68475 0.18722 -0.00812 0.0
C204 C 0.75552 0.17473 0.00072 0.0
C205 C 0.81506 0.17467 0.96999 0.0
C206 C 0.79285 0.17751 0.92563 0.0
C207 C 0.72254 0.19029 0.91582 0.0
C208 C 0.45688 0.22049 0.06884 0.0
C209 C 0.46076 0.17345 -0.01603 0.0
C210 C 0.21797 0.224 0.01211 0.0
Eu211 Eu 0.35733 0.2182 -0.01391 0.0
C212 C 0.16367 0.2425 0.01556 0.0
C213 C 0.12415 0.25223 0.97864 0.0
C214 C 0.0645 0.26826 -0.01563 0.0
C215 C 0.03636 0.27184 0.02741 0.0
C216 C 0.09281 0.26745 0.06007 0.0
C217 C 0.15332 0.25143 0.05557 0.0
C218 C 0.38802 0.22255 0.89744 0.0
C219 C 0.37106 0.26584 -0.0176 0.0
O220 O 0.5522 0.21156 0.92428 0.0
O221 O 0.5941 0.22417 0.97861 0.0
O222 O 0.48454 0.23291 0.04611 0.0
O223 O 0.43892 0.20918 0.04306 0.0
O224 O 0.50731 0.18564 -0.01924 0.0
O225 O 0.38826 0.18365 -0.01288 0.0
O226 O 0.27494 0.22058 0.03935 0.0
O227 O 0.23883 0.21879 0.97262 0.0
O228 O 0.37424 0.20719 0.91604 0.0
O229 O 0.39319 0.23345 0.92701 0.0
O230 O 0.32429 0.25381 -0.01103 0.0
O231 O 0.44278 0.25555 0.97594 0.0
H232 H 0.64338 0.19076 0.01829 0.0
H233 H 0.76767 0.16976 0.03457 0.0
H234 H 0.83595 0.17495 0.89993 0.0
H235 H 0.71096 0.1964 0.88266 0.0
H236 H 0.1361 0.247 0.94614 0.0
H237 H 0.03061 0.27444 0.95593 0.0
H238 H 0.08041 0.27283 0.09236 0.0
H239 H 0.1883 0.24547 0.08383 0.0
C240 C 0.51951 0.17867 0.4942 0.0
Eu241 Eu 0.50404 0.21461 0.49308 0.0
C242 C 0.45908 0.1702 0.48061 0.0
C243 C 0.40165 0.16739 0.51033 0.0
C244 C 0.34369 0.1596 0.4966 0.0
C245 C 0.34468 0.1539 0.45348 0.0
C246 C 0.39426 0.1598 0.42246 0.0
C247 C 0.45266 0.1672 0.43621 0.0
C248 C 0.48628 0.22989 0.57324 0.0
C249 C 0.29991 0.22996 0.48339 0.0
C250 C 0.43287 0.28266 0.47854 0.0
Eu251 Eu 0.46119 0.24631 0.4761 0.0
C252 C 0.47935 0.29605 0.47105 0.0
C253 C 0.50457 0.30018 0.42858 0.0
C254 C 0.55279 0.31219 0.42259 0.0
C255 C 0.57579 0.31995 0.45897 0.0
C256 C 0.55179 0.31562 0.50138 0.0
C257 C 0.50329 0.30375 0.50739 0.0
C258 C 0.46863 0.23125 0.39535 0.0
C259 C 0.66708 0.23067 0.48467 0.0
O260 O 0.54829 0.18786 0.46295 0.0
O261 O 0.5053 0.18793 0.52968 0.0
O262 O 0.54967 0.21901 0.55947 0.0
O263 O 0.43786 0.23383 0.54239 0.0
O264 O 0.36371 0.21504 0.48612 0.0
O265 O 0.32459 0.24597 0.48056 0.0
O266 O 0.45183 0.27105 0.513 0.0
O267 O 0.41904 0.27427 0.44438 0.0
O268 O 0.40979 0.24324 0.41041 0.0
O269 O 0.52031 0.2267 0.42461 0.0
O270 O 0.6045 0.24578 0.47677 0.0
O271 O 0.63978 0.21515 0.493 0.0
H272 H 0.40323 0.17042 0.5445 0.0
H273 H 0.30536 0.15546 0.52098 0.0
H274 H 0.39616 0.156 0.38867 0.0
H275 H 0.49463 0.1698 0.41222 0.0
H276 H 0.4879 0.29407 0.40012 0.0
H277 H 0.57266 0.31527 0.38983 0.0
H278 H 0.56989 0.32157 0.52971 0.0
H279 H 0.4852 0.30042 0.54041 0.0
C280 C 0.63814 0.91214 0.48974 0.0
Eu281 Eu 0.59757 0.94891 0.49605 0.0
C282 C 0.59288 0.89976 0.47647 0.0
C283 C 0.58252 0.88517 0.50604 0.0
C284 C 0.52909 0.87526 0.49707 0.0
C285 C 0.48568 0.88015 0.45873 0.0
C286 C 0.49599 0.89468 0.42915 0.0
C287 C 0.5502 0.90431 0.43768 0.0
C288 C 0.60265 0.95409 0.58613 0.0
C289 C 0.38844 0.95563 0.50658 0.0
C290 C 0.53665 0.99449 0.49302 0.0
Eu291 Eu 0.576 0.95789 0.4912 0.0
C292 C 0.55851 1.00722 0.45904 0.0
C293 C 0.51304 1.01307 0.42175 0.0
C294 C 0.53267 1.02562 0.39024 0.0
C295 C 0.59546 1.03328 0.39718 0.0
C296 C 0.64937 1.02427 0.42905 0.0
C297 C 0.62954 1.01184 0.46098 0.0
C298 C 0.58577 0.95913 0.40015 0.0
C299 C 0.77816 0.95692 0.50521 0.0
O300 O 0.65243 0.92403 0.4596 0.0
O301 O 0.61527 0.92019 0.52577 0.0
O302 O 0.65778 0.95471 0.5591 0.0
O303 O 0.54783 0.95295 0.56294 0.0
O304 O 0.45732 0.94921 0.48486 0.0
O305 O 0.45563 0.94915 0.48473 0.0
O306 O 0.59295 0.98415 0.51583 0.0
O307 O 0.49003 0.98478 0.48111 0.0
O308 O 0.54315 0.94957 0.42104 0.0
O309 O 0.61967 0.96501 0.42943 0.0
O310 O 0.72321 0.95014 0.48464 0.0
O311 O 0.72796 0.94988 0.48382 0.0
H312 H 0.61393 0.88187 0.53652 0.0
H313 H 0.52128 0.86393 0.52009 0.0
H314 H 0.46155 0.89873 0.39985 0.0
H315 H 0.55702 0.91552 0.41429 0.0
H316 H 0.46029 1.00878 0.41795 0.0
H317 H 0.49131 1.03162 0.3648 0.0
H318 H 0.69969 1.02946 0.43407 0.0
H319 H 0.6681 1.00666 0.48819 0.0
H320 H 0.6522 0.41379 0.97663 0.0
H321 H 0.56653 0.4235 0.10903 0.0
H322 H 0.61253 0.45231 0.10795 0.0
H323 H 0.80835 0.44034 0.97502 0.0
H324 H 0.78187 0.44984 0.92009 0.0
H325 H 0.77137 0.42656 0.93792 0.0
H326 H 0.62839 0.43722 0.91527 0.0
H327 H 0.63766 0.46074 0.8995 0.0
H328 H 0.56655 0.45746 0.93966 0.0
H329 H 0.63043 0.4849 0.08479 0.0
H330 H 0.66034 0.51359 0.04855 0.0
H331 H 0.70842 0.48425 0.92737 0.0
C332 C 0.64527 0.42154 0.00611 0.0
C333 C 0.59545 0.41793 0.04018 0.0
C334 C 0.59711 0.42699 0.08007 0.0
C335 C 0.62242 0.44368 0.07981 0.0
C336 C 0.651 0.45 0.0406 0.0
C337 C 0.66537 0.43886 0.00481 0.0
C338 C 0.68439 0.4499 0.96439 0.0
C339 C 0.76639 0.44115 0.94844 0.0
C340 C 0.62575 0.4514 0.92759 0.0
C341 C 0.67713 0.46897 -0.01698 0.0
C342 C 0.65845 0.4688 0.02698 0.0
C343 C 0.64706 0.48508 0.05053 0.0
C344 C 0.66241 0.50144 0.02944 0.0
C345 C 0.68902 0.50129 -0.01465 0.0
C346 C 0.68989 0.4852 0.96127 0.0
H347 H 0.43919 0.68293 0.93687 0.0
H348 H 0.31176 0.72094 0.83454 0.0
H349 H 0.34884 0.74764 0.86458 0.0
H350 H 0.35046 0.71087 0.01606 0.0
H351 H 0.43 0.70582 0.0533 0.0
H352 H 0.42173 0.68858 0.01536 0.0
H353 H 0.55658 0.68793 -0.01662 0.0
H354 H 0.56713 0.70466 0.02223 0.0
H355 H 0.57916 0.70984 0.96434 0.0
H356 H 0.37562 0.77155 0.91613 0.0
H357 H 0.42342 0.78821 0.97314 0.0
H358 H 0.48786 0.73495 0.05206 0.0
C359 C 0.41986 0.69675 0.91997 0.0
C360 C 0.363 0.70015 0.88736 0.0
C361 C 0.34888 0.71799 0.86273 0.0
C362 C 0.3688 0.7335 0.8799 0.0
C363 C 0.40591 0.73051 0.92004 0.0
C364 C 0.43285 0.71243 0.93933 0.0
C365 C 0.45977 0.71296 -0.01455 0.0
C366 C 0.41264 0.70403 0.01949 0.0
C367 C 0.54578 0.7033 -0.01091 0.0
C368 C 0.44343 0.73416 -0.01095 0.0
C369 C 0.41403 0.74411 0.95085 0.0
C370 C 0.39961 0.76385 0.94607 0.0
C371 C 0.42481 0.77331 0.97923 0.0
C372 C 0.46468 0.76282 0.01603 0.0
C373 C 0.46237 0.74354 0.02352 0.0
H374 H 0.65828 0.73017 0.41136 0.0
H375 H 0.69117 0.74259 0.54473 0.0
H376 H 0.55333 0.7443 0.55997 0.0
H377 H 0.46131 0.76085 0.39702 0.0
H378 H 0.4286 0.74471 0.36437 0.0
H379 H 0.52891 0.7444 0.36489 0.0
H380 H 0.56275 0.70887 0.3884 0.0
H381 H 0.46266 0.70893 0.38787 0.0
H382 H 0.51827 0.70067 0.43669 0.0
H383 H 0.38465 0.74467 0.55953 0.0
H384 H 0.25104 0.74347 0.544 0.0
H385 H 0.32063 0.73053 0.41093 0.0
C386 C 0.63796 0.73325 0.44434 0.0
C387 C 0.6948 0.7361 0.47627 0.0
C388 C 0.65702 0.74009 0.51814 0.0
C389 C 0.57509 0.74114 0.52727 0.0
C390 C 0.52241 0.73824 0.49517 0.0
C391 C 0.55473 0.73428 0.45408 0.0
C392 C 0.48793 0.73151 0.42442 0.0
C393 C 0.476 0.74623 0.38531 0.0
C394 C 0.50916 0.7113 0.40833 0.0
C395 C 0.41245 0.73455 0.45376 0.0
C396 C 0.43338 0.73844 0.49494 0.0
C397 C 0.37183 0.74161 0.52677 0.0
C398 C 0.29233 0.7409 0.51739 0.0
C399 C 0.26562 0.73693 0.47553 0.0
C400 C 0.33167 0.73373 0.44387 0.0
H401 H 0.73707 0.46532 0.42045 0.0
H402 H 0.81071 0.43856 0.54756 0.0
H403 H 0.67751 0.43586 0.56305 0.0
H404 H 0.5416 0.4917 0.45111 0.0
H405 H 0.49672 0.48776 0.40168 0.0
H406 H 0.59684 0.4877 0.40107 0.0
H407 H 0.63096 0.45426 0.37117 0.0
H408 H 0.53072 0.45442 0.37161 0.0
H409 H 0.59857 0.4354 0.40053 0.0
H410 H 0.5086 0.43696 0.56468 0.0
H411 H 0.37044 0.44016 0.55009 0.0
H412 H 0.4015 0.46481 0.4208 0.0
C413 C 0.72717 0.45851 0.45178 0.0
C414 C 0.79399 0.45188 0.48175 0.0
C415 C 0.76879 0.4436 0.52198 0.0
C416 C 0.68955 0.44211 0.53144 0.0
C417 C 0.62725 0.44861 0.50113 0.0
C418 C 0.64707 0.45655 0.46141 0.0
C419 C 0.57143 0.46217 0.4331 0.0
C420 C 0.55045 0.48361 0.42097 0.0
C421 C 0.58365 0.45092 0.39159 0.0
C422 C 0.50544 0.45672 0.46204 0.0
C423 C 0.5384 0.44887 0.5017 0.0
C424 C 0.48637 0.44308 0.533 0.0
C425 C 0.40442 0.445 0.52427 0.0
C426 C 0.36643 0.45281 0.48366 0.0
C427 C 0.42238 0.45866 0.4527 0.0
H428 H 0.10913 0.92469 0.96937 0.0
H429 H 0.0925 0.92116 0.11176 0.0
H430 H 0.12798 0.95151 0.11343 0.0
H431 H 0.2649 0.94947 0.96092 0.0
H432 H 0.22307 0.96308 0.91233 0.0
H433 H 0.2108 0.93949 0.92417 0.0
H434 H 0.06358 0.95322 0.91875 0.0
H435 H 0.07555 0.97696 0.90929 0.0
H436 H 1.01662 0.97151 0.95432 0.0
H437 H 0.13675 0.98558 0.09867 0.0
H438 H 0.17472 1.01436 0.07008 0.0
H439 H 0.17505 0.99543 0.9378 0.0
C440 C 0.11425 0.92983 0.00133 0.0
C441 C 0.08872 0.92142 0.04018 0.0
C442 C 0.10511 0.92798 0.08097 0.0
C443 C 0.12418 0.94544 0.08239 0.0
C444 C 0.13172 0.95538 0.04285 0.0
C445 C 0.13115 0.94738 0.00315 0.0
C446 C 0.14034 0.96094 0.96512 0.0
C447 C 0.21418 0.95277 0.93913 0.0
C448 C 0.06981 0.96593 0.93514 0.0
C449 C 0.14585 0.97785 -0.01019 0.0
C450 C 0.1397 0.97452 0.03451 0.0
C451 C 0.14399 0.98812 0.06373 0.0
C452 C 0.1644 1.00459 0.04706 0.0
C453 C 0.18355 1.00673 0.00196 0.0
C454 C 0.16451 0.99425 0.97274 0.0
H455 H 0.91218 0.27309 0.97368 0.0
H456 H 0.98654 0.25733 0.10786 0.0
H457 H 0.94355 0.22819 0.10574 0.0
H458 H 0.75642 0.24692 0.97121 0.0
H459 H 0.78534 0.24008 0.9165 0.0
H460 H 0.79602 0.26238 0.93426 0.0
H461 H 0.94 0.25242 0.91256 0.0
H462 H 0.93058 0.22973 0.89697 0.0
H463 H 0.99992 0.2309 0.93754 0.0
H464 H 0.92855 0.19667 0.0825 0.0
H465 H 0.89659 0.17008 0.0471 0.0
H466 H 0.85394 0.20527 0.92527 0.0
C467 C 0.91738 0.2639 0.00328 0.0
C468 C 0.96274 0.2663 0.03859 0.0
C469 C 0.95919 0.25507 0.07826 0.0
C470 C 0.93563 0.23818 0.07743 0.0
C471 C 0.9108 0.23367 0.03776 0.0
C472 C 0.89837 0.24654 0.0018 0.0
C473 C 0.88082 0.23754 0.96142 0.0
C474 C 0.79981 0.24729 0.9449 0.0
C475 C 0.94145 0.23767 0.92502 0.0
C476 C 0.8863 0.21759 -0.01966 0.0
C477 C 0.90354 0.21557 0.02432 0.0
C478 C 0.91287 0.19821 0.04825 0.0
C479 C 0.89628 0.18305 0.02762 0.0
C480 C 0.86963 0.18554 -0.01621 0.0
C481 C 0.87194 0.20259 0.95909 0.0
H482 H 0.13323 0.25769 0.46852 0.0
H483 H 0.2321 0.19813 0.50069 0.0
H484 H 0.10203 0.19284 0.50432 0.0
H485 H 0.95478 0.26183 0.53826 0.0
H486 H 0.88723 0.27703 0.50106 0.0
H487 H 0.98672 0.2778 0.4989 0.0
H488 H 0.99868 0.2707 0.41837 0.0
H489 H 0.89814 0.27116 0.41828 0.0
H490 H 0.96816 0.25072 0.40012 0.0
H491 H 0.93738 0.19345 0.50546 0.0
H492 H 0.79709 0.19936 0.50258 0.0
H493 H 0.78231 0.25862 0.46827 0.0
C494 C 0.12958 0.24325 0.47643 0.0
C495 C 0.20469 0.2284 0.48425 0.0
C496 C 0.18499 0.21042 0.49407 0.0
C497 C 0.10703 0.20717 0.49632 0.0
C498 C 0.0373 0.22171 0.48857 0.0
C499 C 0.04874 0.23966 0.47847 0.0
C500 C 0.96306 0.25285 0.47114 0.0
C501 C 0.9471 0.26835 0.50427 0.0
C502 C 0.95659 0.26193 0.42419 0.0
C503 C 0.9017 0.24009 0.4785 0.0
C504 C 0.94751 0.222 0.48873 0.0
C505 C 0.90508 0.20784 0.49717 0.0
C506 C 0.82055 0.21153 0.49538 0.0
C507 C 0.76576 0.2296 0.48508 0.0
C508 C 0.81328 0.24412 0.47652 0.0
H509 H 0.90218 0.9666 0.55309 0.0
H510 H 0.88262 0.93967 0.43356 0.0
H511 H 1.02216 0.93616 0.41991 0.0
H512 H 0.04561 0.99244 0.51425 0.0
H513 H 0.0964 0.98904 0.56541 0.0
H514 H 0.99637 0.98905 0.56501 0.0
H515 H 0.02651 0.95624 0.60601 0.0
H516 H 0.12681 0.95595 0.60671 0.0
H517 H 0.09658 0.93685 0.58369 0.0
H518 H 0.19 0.93612 0.42006 0.0
H519 H 0.32196 0.93906 0.43413 0.0
H520 H 0.23893 0.96579 0.55408 0.0
C521 C 0.926 0.95982 0.52365 0.0
C522 C 0.87274 0.95353 0.49498 0.0
C523 C 0.91442 0.94487 0.45752 0.0
C524 C 0.99713 0.9428 0.4493 0.0
C525 C 0.04638 0.94916 0.47816 0.0
C526 C 1.01009 0.9575 0.51511 0.0
C527 C 0.07379 0.96317 0.54211 0.0
C528 C 0.05173 0.98471 0.54704 0.0
C529 C 0.08135 0.95244 0.58735 0.0
C530 C 0.15176 0.95722 0.51553 0.0
C531 C 0.1351 0.94901 0.4784 0.0
C532 C 0.1996 0.94257 0.44965 0.0
C533 C 0.27797 0.94432 0.45816 0.0
C534 C 0.30009 0.95268 0.49594 0.0
C535 C 0.23119 0.95914 0.52445 0.0
H536 H 0.08956 0.63745 -0.00463 0.0
H537 H 0.84678 0.65063 0.96951 0.0
H538 H 0.85559 0.61639 0.96567 0.0
H539 H 0.14832 0.59564 0.92445 0.0
H540 H 0.21945 0.58142 0.96138 0.0
H541 H 0.19532 0.60698 0.96223 0.0
H542 H 0.16415 0.60453 0.0445 0.0
H543 H 0.18839 0.57896 0.04375 0.0
H544 H 0.09578 0.59145 0.06361 0.0
H545 H 0.89283 0.57545 0.96443 0.0
H546 H 0.9469 0.54072 0.96606 0.0
H547 H 0.16977 0.54941 -0.0075 0.0
C548 C 0.03705 0.63353 -0.01121 0.0
C549 C 0.96559 0.64929 -0.01721 0.0
C550 C 0.90261 0.641 0.9746 0.0
C551 C 0.90742 0.62064 0.97225 0.0
C552 C 0.97678 0.60607 0.97821 0.0
C553 C 0.0411 0.61248 -0.01344 0.0
C554 C 0.1089 0.59362 -0.00769 0.0
C555 C 0.17183 0.59446 0.95808 0.0
C556 C 0.14136 0.59205 0.03879 0.0
C557 C 0.07457 0.57578 -0.01466 0.0
C558 C 0.99728 0.58356 0.97747 0.0
C559 C 0.95344 0.57009 0.97065 0.0
C560 C 0.98598 0.54944 0.97167 0.0
C561 C 0.06537 0.53978 0.97924 0.0
C562 C 0.10909 0.55443 -0.0138 0.0
H563 H 0.15757 0.55771 0.53813 0.0
H564 H 0.99117 0.54688 0.63464 0.0
H565 H 0.93515 0.58076 0.63725 0.0
H566 H 0.14686 0.61028 0.5512 0.0
H567 H 0.13983 0.61468 0.49249 0.0
H568 H 0.19621 0.5923 0.51545 0.0
H569 H 0.1189 0.57512 0.46939 0.0
H570 H 0.06044 0.59734 0.44807 0.0
H571 H 1.01593 0.58034 0.47597 0.0
H572 H 0.86714 0.61282 0.61151 0.0
H573 H 0.80839 0.64248 0.5675 0.0
H574 H 0.99591 0.62921 0.47364 0.0
C575 C 0.11232 0.56266 0.56176 0.0
C576 C 0.07588 0.54977 0.58403 0.0
C577 C 1.01925 0.55643 0.61613 0.0
C578 C 0.98584 0.57582 0.61736 0.0
C579 C 1.01014 0.58794 0.58643 0.0
C580 C 0.07282 0.58165 0.55909 0.0
C581 C 0.07262 0.59537 0.51979 0.0
C582 C 0.14301 0.60368 0.5198 0.0
C583 C 0.06662 0.58646 0.47585 0.0
C584 C 0.99977 0.60992 0.52917 0.0
C585 C 0.96518 0.60566 0.56788 0.0
C586 C 0.89424 0.61654 0.58142 0.0
C587 C 0.86017 0.63295 0.55582 0.0
C588 C 0.89654 0.6377 0.51684 0.0
C589 C 0.96558 0.62564 0.50274 0.0
H590 H 0.46693 1.05051 -0.00425 0.0
H591 H 0.71084 1.03931 0.97125 0.0
H592 H 0.70118 1.07368 0.96852 0.0
H593 H 0.40985 0.09658 0.92637 0.0
H594 H 0.33742 0.10862 0.96356 0.0
H595 H 0.36165 1.08304 0.96347 0.0
H596 H 0.38998 1.08069 0.04587 0.0
H597 H 0.36566 0.10628 0.04603 0.0
H598 H 0.45762 1.09266 0.06572 0.0
H599 H 0.66379 0.11441 0.96802 0.0
H600 H 0.60972 0.14902 0.97049 0.0
H601 H 0.38592 0.13888 -0.00401 0.0
C602 C 0.51947 1.05489 -0.01043 0.0
C603 C 0.59165 1.03958 -0.0165 0.0
C604 C 0.65448 1.04852 0.97618 0.0
C605 C 0.64925 1.06899 0.9745 0.0
C606 C 0.57946 1.08309 -0.01953 0.0
C607 C 0.51503 1.07612 -0.01183 0.0
C608 C 0.44693 1.09464 -0.00562 0.0
C609 C 0.38519 0.09579 0.95992 0.0
C610 C 0.4129 1.0935 0.04073 0.0
C611 C 0.48134 0.11291 -0.01174 0.0
C612 C 0.55888 0.1056 -0.01955 0.0
C613 C 0.60298 0.11943 0.97421 0.0
C614 C 0.57043 0.14 0.97573 0.0
C615 C 0.49082 0.14923 -0.01661 0.0
C616 C 0.44681 0.1342 -0.01025 0.0
H617 H 0.38585 0.12246 0.50674 0.0
H618 H 0.27617 0.14341 0.38244 0.0
H619 H 0.3461 0.11393 0.34939 0.0
H620 H 0.55994 0.11011 0.46367 0.0
H621 H 0.5972 1.08943 0.49965 0.0
H622 H 0.52141 0.10843 0.51836 0.0
H623 H 0.4338 1.08561 0.53625 0.0
H624 H 0.51141 1.06629 0.52069 0.0
H625 H 0.41911 1.0701 0.49537 0.0
H626 H 0.44914 1.08599 0.32645 0.0
H627 H 0.5466 1.05553 0.32196 0.0
H628 H 0.60156 1.05773 0.45883 0.0
C629 C 0.37195 0.12041 0.47338 0.0
C630 C 0.32848 0.13552 0.44638 0.0
C631 C 0.31045 0.13202 0.40334 0.0
C632 C 0.35186 0.11559 0.38398 0.0
C633 C 0.40739 0.10283 0.40912 0.0
C634 C 0.41557 0.1047 0.45337 0.0
C635 C 0.4849 1.09052 0.47215 0.0
C636 C 0.54425 0.10023 0.48945 0.0
C637 C 0.46088 1.07733 0.50818 0.0
C638 C 0.51426 1.08035 0.43141 0.0
C639 C 0.46938 1.08766 0.39536 0.0
C640 C 0.48429 1.07997 0.35454 0.0
C641 C 0.54108 1.06299 0.3519 0.0
C642 C 0.5802 1.05403 0.39016 0.0
C643 C 0.57268 1.06403 0.42881 0.0
H644 H 0.12259 0.38798 0.97607 0.0
H645 H 0.34362 0.40032 -0.01242 0.0
H646 H 0.40487 0.36597 -0.01152 0.0
H647 H 0.16786 0.34231 0.04792 0.0
H648 H 0.11693 0.32961 0.01576 0.0
H649 H 0.08771 0.35521 0.01506 0.0
H650 H 0.1011 0.35713 0.93128 0.0
H651 H 0.13049 0.33154 0.93165 0.0
H652 H 0.19057 0.34561 0.90602 0.0
H653 H 0.45083 0.3255 -0.01292 0.0
H654 H 0.46773 0.29089 -0.01369 0.0
H655 H 0.22209 0.29967 0.97858 0.0
C656 C 0.18428 0.38383 0.97886 0.0
C657 C 0.22511 0.39936 -0.01831 0.0
C658 C 0.30636 0.39085 -0.01477 0.0
C659 C 0.34318 0.37045 -0.01424 0.0
C660 C 0.30206 0.35612 -0.01698 0.0
C661 C 0.22316 0.36272 -0.02023 0.0
C662 C 0.19257 0.34397 0.97766 0.0
C663 C 0.1379 0.34271 0.01638 0.0
C664 C 0.1511 0.34461 0.93408 0.0
C665 C 0.26459 0.326 -0.01942 0.0
C666 C 0.32741 0.33367 -0.01677 0.0
C667 C 0.40007 0.3202 -0.01476 0.0
C668 C 0.40962 0.29963 -0.01523 0.0
C669 C 0.34875 0.29002 -0.01722 0.0
C670 C 0.27354 0.30465 -0.01938 0.0
H671 H 0.62824 0.88827 0.96826 0.0
H672 H 0.84341 0.89936 0.00288 0.0
H673 H 0.9032 0.86494 0.00537 0.0
H674 H 0.65223 0.84207 0.03692 0.0
H675 H 0.61111 0.83001 -0.00214 0.0
H676 H 0.58272 0.85558 -0.00186 0.0
H677 H 0.61983 0.85818 0.91687 0.0
H678 H 0.64847 0.83261 0.91628 0.0
H679 H 0.71512 0.8465 0.89928 0.0
H680 H 0.94828 0.82425 0.00409 0.0
H681 H 0.96429 0.78971 3e-05 0.0
H682 H 0.72492 0.80018 0.96715 0.0
C683 C 0.6883 0.88383 0.97655 0.0
C684 C 0.728 0.89905 -0.01463 0.0
C685 C 0.80717 0.89015 -0.00439 0.0
C686 C 0.84313 0.86969 -0.00281 0.0
C687 C 0.8032 0.85566 -0.01148 0.0
C688 C 0.72632 0.86265 0.97828 0.0
C689 C 0.69667 0.84422 0.97016 0.0
C690 C 0.63172 0.8429 0.00267 0.0
C691 C 0.66821 0.84546 0.92284 0.0
C692 C 0.76674 0.82599 0.97765 0.0
C693 C 0.82801 0.83319 -0.01194 0.0
C694 C 0.89877 0.81933 -0.00411 0.0
C695 C 0.9079 0.79881 -0.00661 0.0
C696 C 0.84825 0.78975 -0.01682 0.0
C697 C 0.77521 0.80478 0.97528 0.0
H698 H 0.15659 0.83076 0.51785 0.0
H699 H 0.18592 0.8087 0.3879 0.0
H700 H 0.2839 0.82658 0.37059 0.0
H701 H 0.18196 0.87638 0.49194 0.0
H702 H 0.23702 0.87667 0.54025 0.0
H703 H 0.16686 0.86288 0.54146 0.0
H704 H 0.27058 0.83266 0.56652 0.0
H705 H 0.34098 0.84638 0.56566 0.0
H706 H 0.35701 0.82556 0.5344 0.0
H707 H 0.37598 0.84619 0.36811 0.0
H708 H 0.46787 0.86517 0.38208 0.0
H709 H 0.37877 0.87268 0.51489 0.0
C710 C 0.1843 0.82945 0.48593 0.0
C711 C 0.16471 0.81849 0.45406 0.0
C712 C 0.20047 0.81733 0.41233 0.0
C713 C 0.25587 0.82728 0.40237 0.0
C714 C 0.27412 0.83787 0.43485 0.0
C715 C 0.24028 0.83881 0.47593 0.0
C716 C 0.27254 0.85036 0.50582 0.0
C717 C 0.21089 0.8676 0.52068 0.0
C718 C 0.31269 0.838 0.5454 0.0
C719 C 0.32887 0.85617 0.47449 0.0
C720 C 0.32887 0.84885 0.43382 0.0
C721 C 0.37702 0.85205 0.39969 0.0
C722 C 0.42819 0.86283 0.40777 0.0
C723 C 0.42953 0.87002 0.44951 0.0
C724 C 0.37873 0.867 0.48295 0.0
H725 H 0.93884 0.3555 0.50229 0.0
H726 H 0.8508 0.40335 0.40947 0.0
H727 H 0.73538 0.39161 0.39947 0.0
H728 H 0.87831 0.32097 0.45219 0.0
H729 H 0.85141 0.30991 0.50251 0.0
H730 H 0.92562 0.32237 0.50281 0.0
H731 H 0.8507 0.34327 0.56319 0.0
H732 H 0.77695 0.33056 0.5626 0.0
H733 H 0.75253 0.35606 0.55385 0.0
H734 H 0.63761 0.37351 0.39566 0.0
H735 H 0.55451 0.35109 0.40304 0.0
H736 H 0.70667 0.31684 0.50158 0.0
C737 C 0.89461 0.36379 0.48063 0.0
C738 C 0.90311 0.38019 0.4565 0.0
C739 C 0.84516 0.3905 0.42761 0.0
C740 C 0.77952 0.38411 0.4221 0.0
C741 C 0.77333 0.3678 0.44648 0.0
C742 C 0.82863 0.35797 0.47566 0.0
C743 C 0.80905 0.34076 0.49757 0.0
C744 C 0.86981 0.32244 0.48809 0.0
C745 C 0.79651 0.3428 0.54723 0.0
C746 C 0.7354 0.342 0.47457 0.0
C747 C 0.71546 0.35772 0.44544 0.0
C748 C 0.65149 0.36131 0.41882 0.0
C749 C 0.60555 0.34853 0.42282 0.0
C750 C 0.62511 0.33265 0.45303 0.0
C751 C 0.69071 0.3292 0.47886 0.0
H752 H 0.04492 0.44448 0.12954 0.0
H753 H 0.15768 0.49051 0.11021 0.0
H754 H 0.16139 0.49257 0.19062 0.0
H755 H 0.92684 0.46289 0.2224 0.0
H756 H 0.93579 0.44002 0.25096 0.0
H757 H 0.9425 0.44184 0.19195 0.0
H758 H 0.07497 0.41769 0.1949 0.0
H759 H 0.06837 0.41575 0.2539 0.0
H760 H 0.1497 0.42216 0.22767 0.0
H761 H 0.15405 0.48965 0.27315 0.0
H762 H 0.13692 0.48226 0.3517 0.0
H763 H 0.0261 0.43819 0.32117 0.0
C764 C 0.07032 0.45502 0.14221 0.0
C765 C 0.10086 0.46742 0.113 0.0
C766 C 0.1337 0.48091 0.13138 0.0
C767 C 0.13608 0.48217 0.17721 0.0
C768 C 0.10532 0.46985 0.20489 0.0
C769 C 0.07306 0.45649 0.18818 0.0
C770 C 0.04413 0.44498 0.22556 0.0
C771 C 0.95713 0.44759 0.22253 0.0
C772 C 0.08683 0.42389 0.22549 0.0
C773 C 0.06474 0.454 0.26591 0.0
C774 C 0.10034 0.46826 0.25287 0.0
C775 C 0.12618 0.47853 0.28352 0.0
C776 C 0.11612 0.47416 0.32838 0.0
C777 C 0.08014 0.45961 0.34326 0.0
C778 C 0.05353 0.44945 0.31123 0.0
H779 H 0.93849 0.70021 0.15411 0.0
H780 H 0.91183 0.75698 0.09393 0.0
H781 H 0.92776 0.76882 0.1663 0.0
H782 H 0.82911 0.71635 0.25429 0.0
H783 H 0.88767 0.69788 0.28958 0.0
H784 H 0.87552 0.69379 0.23294 0.0
H785 H 1.02248 0.68485 0.22225 0.0
H786 H 0.03517 0.68916 0.27867 0.0
H787 H 0.07686 0.70143 0.23535 0.0
H788 H 0.9521 0.77451 0.24566 0.0
H789 H 0.96625 0.77431 0.32625 0.0
H790 H 0.96869 0.71459 0.33775 0.0
C791 C 0.9353 0.71517 0.15631 0.0
C792 C 0.92371 0.72766 0.11792 0.0
C793 C 0.91979 0.74713 0.12252 0.0
C794 C 0.92941 0.75398 0.16365 0.0
C795 C 0.94142 0.74134 0.20068 0.0
C796 C 0.94266 0.72241 0.19762 0.0
C797 C 0.95266 0.71208 0.24306 0.0
C798 C 0.88205 0.70458 0.25572 0.0
C799 C 0.02618 0.69593 0.24493 0.0
C800 C 0.95872 0.72804 0.27192 0.0
C801 C 0.95261 0.74477 0.24663 0.0
C802 C 0.9566 0.76147 0.26566 0.0
C803 C 0.96514 0.76123 0.31154 0.0
C804 C 0.96961 0.74446 0.33844 0.0
C805 C 0.96664 0.72761 0.31809 0.0
H806 H 0.83961 0.74252 0.8203 0.0
H807 H 0.027 0.69511 0.86214 0.0
H808 H 0.06888 0.69105 0.78492 0.0
H809 H 0.79506 0.72267 0.72162 0.0
H810 H 0.77369 0.74493 0.68937 0.0
H811 H 0.75968 0.74467 0.74797 0.0
H812 H 0.84753 0.76759 0.75329 0.0
H813 H 0.86203 0.76788 0.6947 0.0
H814 H 0.94322 0.76127 0.73077 0.0
H815 H 0.09223 0.69228 0.70215 0.0
H816 H 0.09133 0.69766 0.62141 0.0
H817 H 0.88539 0.74317 0.63054 0.0
C818 C 0.88952 0.73129 0.81323 0.0
C819 C 0.93003 0.71915 0.84791 0.0
C820 C 0.99485 0.70463 0.8367 0.0
C821 C 1.0192 0.70222 0.79269 0.0
C822 C 0.97809 0.71433 0.75943 0.0
C823 C 0.91432 0.72855 0.7691 0.0
C824 C 0.87971 0.73939 0.72686 0.0
C825 C 0.79712 0.73782 0.72113 0.0
C826 C 0.88334 0.76027 0.72638 0.0
C827 C 0.93297 0.72884 0.69195 0.0
C828 C 0.99003 0.71462 0.71165 0.0
C829 C 0.04733 0.70329 0.68656 0.0
C830 C 0.04633 0.70644 0.6405 0.0
C831 C 0.98781 0.72061 0.61911 0.0
C832 C 0.93029 0.73197 0.64556 0.0
H833 H 0.14901 0.48078 0.62737 0.0
H834 H 0.03119 0.4355 0.63641 0.0
H835 H 0.03639 0.43459 0.71706 0.0
H836 H 0.27618 0.46366 0.71696 0.0
H837 H 0.2714 0.48661 0.73746 0.0
H838 H 0.25545 0.48462 0.68016 0.0
H839 H 0.12509 0.50891 0.68538 0.0
H840 H 0.1388 0.51092 0.74291 0.0
H841 H 0.05458 0.50455 0.72487 0.0
H842 H 0.06047 0.43691 0.79647 0.0
H843 H 0.09735 0.44305 0.87004 0.0
H844 H 0.19729 0.48773 0.81392 0.0
C845 C 0.12363 0.47084 0.64642 0.0
C846 C 0.08956 0.45818 0.62516 0.0
C847 C 0.05753 0.44533 0.65153 0.0
C848 C 0.06017 0.44471 0.69757 0.0
C849 C 0.09467 0.45714 0.7175 0.0
C850 C 0.12528 0.47012 0.69295 0.0
C851 C 0.1598 0.48166 0.72329 0.0
C852 C 0.24583 0.47897 0.7139 0.0
C853 C 0.11698 0.50276 0.71884 0.0
C854 C 0.14575 0.47276 0.76848 0.0
C855 C 0.10766 0.45871 0.764 0.0
C856 C 0.08985 0.44798 0.80031 0.0
C857 C 0.11145 0.45156 0.84219 0.0
C858 C 0.15044 0.46588 0.84836 0.0
C859 C 0.16733 0.47673 0.81067 0.0
H860 H 0.54015 0.9483 0.13826 0.0
H861 H 0.68106 0.98834 0.11546 0.0
H862 H 0.68881 0.99078 0.19549 0.0
H863 H 0.43334 0.9717 0.23165 0.0
H864 H 0.42804 0.9498 0.26105 0.0
H865 H 0.43336 0.95109 0.20198 0.0
H866 H 0.55273 0.92268 0.2046 0.0
H867 H 0.5475 0.92129 0.26364 0.0
H868 H 0.63445 0.92378 0.23625 0.0
H869 H 0.68395 0.98857 0.27889 0.0
H870 H 0.66553 0.98232 0.35827 0.0
H871 H 0.52497 0.94416 0.33025 0.0
C872 C 0.57261 0.9576 0.1501 0.0
C873 C 0.6102 0.96813 0.11988 0.0
C874 C 0.65164 0.98014 0.1373 0.0
C875 C 0.65642 0.98161 0.18299 0.0
C876 C 0.61898 0.97109 0.21172 0.0
C877 C 0.57742 0.95938 0.196 0.0
C878 C 0.54181 0.94983 0.23431 0.0
C879 C 0.45392 0.95597 0.23212 0.0
C880 C 0.57088 0.92811 0.23472 0.0
C881 C 0.57116 0.95768 0.274 0.0
C882 C 0.61536 0.96999 0.25995 0.0
C883 C 0.64941 0.97896 0.29005 0.0
C884 C 0.63871 0.97527 0.33535 0.0
C885 C 0.59417 0.96269 0.35113 0.0
C886 C 0.55949 0.95386 0.31963 0.0
H887 H 0.48266 0.24566 0.12849 0.0
H888 H 0.43327 0.19059 0.12356 0.0
H889 H 0.43729 0.18686 0.20483 0.0
H890 H 0.6116 0.23408 0.22177 0.0
H891 H 0.577 0.25686 0.24484 0.0
H892 H 0.5726 0.25489 0.1865 0.0
H893 H 0.42692 0.27022 0.18812 0.0
H894 H 0.43105 0.27232 0.24639 0.0
H895 H 0.36613 0.26 0.22476 0.0
H896 H 0.44899 0.18896 0.28878 0.0
H897 H 0.45546 0.1978 0.36533 0.0
H898 H 0.49059 0.25224 0.31777 0.0
C899 C 0.47291 0.23275 0.14443 0.0
C900 C 0.45821 0.21832 0.1188 0.0
C901 C 0.44497 0.20184 0.14169 0.0
C902 C 0.44735 0.19959 0.18816 0.0
C903 C 0.4624 0.214 0.21225 0.0
C904 C 0.47414 0.23038 0.19105 0.0
C905 C 0.4865 0.24404 0.22468 0.0
C906 C 0.56669 0.24768 0.21911 0.0
C907 C 0.42392 0.26275 0.22076 0.0
C908 C 0.4796 0.23289 0.2682 0.0
C909 C 0.46677 0.21545 0.26018 0.0
C910 C 0.45923 0.20257 0.29504 0.0
C911 C 0.46376 0.20763 0.33872 0.0
C912 C 0.47527 0.22548 0.34823 0.0
C913 C 0.48303 0.2383 0.31203 0.0
H914 H 0.45154 0.1982 0.83151 0.0
H915 H 0.34655 0.25727 0.85303 0.0
H916 H 0.3589 0.26552 0.77375 0.0
H917 H 0.59197 0.20894 0.75166 0.0
H918 H 0.59172 0.18923 0.71889 0.0
H919 H 0.57097 0.18772 0.77682 0.0
H920 H 0.44207 0.18006 0.76061 0.0
H921 H 0.46268 0.18148 0.70267 0.0
H922 H 0.37502 0.19598 0.72411 0.0
H923 H 0.37484 0.26703 0.68964 0.0
H924 H 0.40802 0.26233 0.61114 0.0
H925 H 0.51819 0.20324 0.64403 0.0
C926 C 0.43052 0.21284 0.81942 0.0
C927 C 0.39639 0.22703 0.84882 0.0
C928 C 0.37195 0.24609 0.8315 0.0
C929 C 0.37873 0.25092 0.7863 0.0
C930 C 0.41219 0.23666 0.7582 0.0
C931 C 0.43922 0.21804 0.77428 0.0
C932 C 0.4775 0.20569 0.7374 0.0
C933 C 0.56312 0.1974 0.74675 0.0
C934 C 0.43688 0.18986 0.73082 0.0
C935 C 0.46592 0.22009 0.69796 0.0
C936 C 0.42721 0.23785 0.71064 0.0
C937 C 0.40613 0.25322 0.67967 0.0
C938 C 0.42503 0.25043 0.63496 0.0
C939 C 0.46653 0.23253 0.62111 0.0
C940 C 0.48753 0.21721 0.65344 0.0
H941 H 0.58485 0.93484 0.6665 0.0
H942 H 0.61927 0.98791 0.60804 0.0
H943 H 0.63532 0.99849 0.68151 0.0
H944 H 0.483 0.95477 0.76786 0.0
H945 H 0.52936 0.93448 0.80282 0.0
H946 H 0.51224 0.93161 0.74606 0.0
H947 H 0.65621 0.91612 0.73487 0.0
H948 H 0.67415 0.91905 0.79143 0.0
H949 H 0.72592 0.92876 0.74843 0.0
H950 H 0.65834 1.0026 0.75981 0.0
H951 H 0.68325 1.00051 0.83911 0.0
H952 H 0.63587 0.94483 0.85089 0.0
C953 C 0.59344 0.9489 0.66948 0.0
C954 C 0.59917 0.96078 0.63145 0.0
C955 C 0.61335 0.97876 0.63661 0.0
C956 C 0.62279 0.98487 0.6783 0.0
C957 C 0.61854 0.9728 0.71508 0.0
C958 C 0.60371 0.95523 0.71137 0.0
C959 C 0.60665 0.94476 0.75654 0.0
C960 C 0.52813 0.94119 0.76906 0.0
C961 C 0.66947 0.92606 0.75787 0.0
C962 C 0.62674 0.95905 0.78583 0.0
C963 C 0.63283 0.97514 0.76093 0.0
C964 C 0.65314 0.99013 0.77968 0.0
C965 C 0.66754 0.98877 0.82492 0.0
C966 C 0.66179 0.97254 0.85164 0.0
C967 C 0.64065 0.95748 0.83158 0.0
loop_
_geom_bond_atom_site_label_1
_geom_bond_atom_site_label_2
_geom_bond_distance
_geom_bond_site_symmetry_2
_ccdc_geom_bond_type
C0 Eu1 2.835 . S
C0 C2 1.500 1_554 S
C0 O20 1.257 1_554 S
C0 O21 1.260 . S
Eu1 C0 2.835 . S
Eu1 O20 2.473 1_554 S
Eu1 O21 2.480 . S
Eu1 O22 2.430 1_655 S
Eu1 O23 2.670 1_655 S
Eu1 O24 2.394 . S
Eu1 O29 2.355 1_654 S
Eu1 O31 2.374 1_655 S
C2 C0 1.500 1_556 S
C2 C3 1.377 1_556 S
C2 C7 1.377 . S
C3 C2 1.377 1_554 S
C3 C4 1.395 . S
C3 H32 0.931 . S
C4 C3 1.395 . S
C4 C5 1.383 1_554 S
C4 H33 0.931 . S
C5 C4 1.383 1_556 S
C5 C6 1.394 . S
C6 C5 1.394 . S
C6 C7 1.378 . S
C6 H34 0.931 . S
C7 C2 1.377 . S
C7 C6 1.378 . S
C7 H35 0.931 . S
C8 O22 1.259 . S
C8 O23 1.270 . S
C9 O24 1.251 1_455 S
C9 O25 1.256 . S
C10 Eu11 2.835 1_554 S
C10 C12 1.500 . S
C10 O26 1.257 . S
C10 O27 1.260 1_554 S
Eu11 C10 2.835 1_556 S
Eu11 O23 2.355 1_556 S
Eu11 O25 2.371 1_556 S
Eu11 O26 2.473 1_556 S
Eu11 O27 2.480 . S
Eu11 O28 2.430 . S
Eu11 O29 2.670 . S
Eu11 O30 2.394 . S
C12 C10 1.500 . S
C12 C13 1.377 1_554 S
C12 C17 1.377 . S
C13 C12 1.377 1_556 S
C13 C14 1.395 . S
C13 H36 0.931 . S
C14 C13 1.395 . S
C14 C15 1.383 1_556 S
C14 H37 0.931 . S
C15 C14 1.383 1_554 S
C15 C16 1.394 . S
C16 C15 1.394 . S
C16 C17 1.378 . S
C16 H38 0.931 . S
C17 C12 1.377 . S
C17 C16 1.378 . S
C17 H39 0.931 . S
C18 O28 1.259 . S
C18 O29 1.270 . S
C19 O30 1.246 1_554 S
C19 O31 1.254 . S
O20 C0 1.257 1_556 S
O20 Eu1 2.473 1_556 S
O21 C0 1.260 . S
O21 Eu1 2.480 . S
O22 Eu1 2.430 1_455 S
O22 C8 1.259 . S
O23 Eu1 2.670 1_455 S
O23 C8 1.270 . S
O23 Eu11 2.355 1_554 S
O24 Eu1 2.394 . S
O24 C9 1.251 1_655 S
O25 C9 1.256 . S
O25 Eu11 2.371 1_554 S
O26 C10 1.257 . S
O26 Eu11 2.473 1_554 S
O27 C10 1.260 1_556 S
O27 Eu11 2.480 . S
O28 Eu11 2.430 . S
O28 C18 1.259 . S
O29 Eu1 2.355 1_456 S
O29 Eu11 2.670 . S
O29 C18 1.270 . S
O30 Eu11 2.394 . S
O30 C19 1.246 1_556 S
O31 Eu1 2.374 1_455 S
O31 C19 1.254 . S
H32 C3 0.931 . S
H33 C4 0.931 . S
H34 C6 0.931 . S
H35 C7 0.931 . S
H36 C13 0.931 . S
H37 C14 0.931 . S
H38 C16 0.931 . S
H39 C17 0.931 . S
C40 Eu41 2.837 . S
C40 C42 1.498 1_554 S
C40 O60 1.244 1_554 S
C40 O61 1.275 . S
Eu41 C40 2.837 . S
Eu41 O60 2.473 1_554 S
Eu41 O61 2.480 . S
Eu41 O62 2.430 1_455 S
Eu41 O63 2.670 1_455 S
Eu41 O64 2.394 . S
Eu41 O69 2.355 1_454 S
Eu41 O71 2.372 1_454 S
C42 C40 1.498 1_556 S
C42 C43 1.377 1_556 S
C42 C47 1.377 . S
C43 C42 1.377 1_554 S
C43 C44 1.395 . S
C43 H72 0.931 . S
C44 C43 1.395 . S
C44 C45 1.383 1_554 S
C44 H73 0.931 . S
C45 C44 1.383 1_556 S
C45 C46 1.394 . S
C46 C45 1.394 . S
C46 C47 1.378 . S
C46 H74 0.931 . S
C47 C42 1.377 . S
C47 C46 1.378 . S
C47 H75 0.931 . S
C48 O62 1.259 . S
C48 O63 1.270 . S
C49 O64 1.251 1_655 S
C49 O65 1.251 . S
C50 Eu51 2.835 1_554 S
C50 C52 1.500 . S
C50 O66 1.257 . S
C50 O67 1.260 1_554 S
Eu51 C50 2.835 1_556 S
Eu51 O63 2.355 1_556 S
Eu51 O65 2.374 1_556 S
Eu51 O66 2.473 1_556 S
Eu51 O67 2.480 . S
Eu51 O68 2.430 . S
Eu51 O69 2.670 . S
Eu51 O70 2.394 . S
C52 C50 1.500 . S
C52 C53 1.377 1_554 S
C52 C57 1.377 . S
C53 C52 1.377 1_556 S
C53 C54 1.395 . S
C53 H76 0.931 . S
C54 C53 1.395 . S
C54 C55 1.383 1_556 S
C54 H77 0.931 . S
C55 C54 1.383 1_554 S
C55 C56 1.394 . S
C56 C55 1.394 . S
C56 C57 1.378 . S
C56 H78 0.931 . S
C57 C52 1.377 . S
C57 C56 1.378 . S
C57 H79 0.931 . S
C58 O68 1.259 . S
C58 O69 1.270 . S
C59 O70 1.251 . S
C59 O71 1.255 . S
O60 C40 1.244 1_556 S
O60 Eu41 2.473 1_556 S
O61 C40 1.275 . S
O61 Eu41 2.480 . S
O62 Eu41 2.430 1_655 S
O62 C48 1.259 . S
O63 Eu41 2.670 1_655 S
O63 C48 1.270 . S
O63 Eu51 2.355 1_554 S
O64 Eu41 2.394 . S
O64 C49 1.251 1_455 S
O65 C49 1.251 . S
O65 Eu51 2.374 1_554 S
O66 C50 1.257 . S
O66 Eu51 2.473 1_554 S
O67 C50 1.260 1_556 S
O67 Eu51 2.480 . S
O68 Eu51 2.430 . S
O68 C58 1.259 . S
O69 Eu41 2.355 1_656 S
O69 Eu51 2.670 . S
O69 C58 1.270 . S
O70 Eu51 2.394 . S
O70 C59 1.251 . S
O71 Eu41 2.372 1_656 S
O71 C59 1.255 . S
H72 C43 0.931 . S
H73 C44 0.931 . S
H74 C46 0.931 . S
H75 C47 0.931 . S
H76 C53 0.931 . S
H77 C54 0.931 . S
H78 C56 0.931 . S
H79 C57 0.931 . S
C80 Eu81 2.835 . S
C80 C82 1.500 1_455 S
C80 O100 1.257 . S
C80 O101 1.260 . S
Eu81 C80 2.835 . S
Eu81 O100 2.473 . S
Eu81 O101 2.480 . S
Eu81 O102 2.430 . S
Eu81 O103 2.670 . S
Eu81 O104 2.394 1_455 S
Eu81 O109 2.355 . S
Eu81 O111 2.374 . S
C82 C80 1.500 1_655 S
C82 C83 1.377 . S
C82 C87 1.377 . S
C83 C82 1.377 . S
C83 C84 1.395 . S
C83 H112 0.931 . S
C84 C83 1.395 . S
C84 C85 1.383 . S
C84 H113 0.931 . S
C85 C84 1.383 . S
C85 C86 1.394 . S
C86 C85 1.394 . S
C86 C87 1.378 . S
C86 H114 0.931 . S
C87 C82 1.377 . S
C87 C86 1.378 . S
C87 H115 0.931 . S
C88 O102 1.259 . S
C88 O103 1.270 . S
C89 O104 1.251 . S
C89 O105 1.251 . S
C90 Eu91 2.835 . S
C90 C92 1.500 . S
C90 O106 1.257 . S
C90 O107 1.260 . S
Eu91 C90 2.835 . S
Eu91 O103 2.355 . S
Eu91 O105 2.374 1_455 S
Eu91 O106 2.473 . S
Eu91 O107 2.480 . S
Eu91 O108 2.430 . S
Eu91 O109 2.670 . S
Eu91 O110 2.394 . S
C92 C90 1.500 . S
C92 C93 1.377 . S
C92 C97 1.377 . S
C93 C92 1.377 . S
C93 C94 1.395 . S
C93 H116 0.931 . S
C94 C93 1.395 . S
C94 C95 1.383 . S
C94 H117 0.931 . S
C95 C94 1.383 . S
C95 C96 1.394 . S
C96 C95 1.394 . S
C96 C97 1.378 . S
C96 H118 0.931 . S
C97 C92 1.377 . S
C97 C96 1.378 . S
C97 H119 0.931 . S
C98 O108 1.259 . S
C98 O109 1.270 . S
C99 O110 1.251 . S
C99 O111 1.251 . S
O100 C80 1.257 . S
O100 Eu81 2.473 . S
O101 C80 1.260 . S
O101 Eu81 2.480 . S
O102 Eu81 2.430 . S
O102 C88 1.259 . S
O103 Eu81 2.670 . S
O103 C88 1.270 . S
O103 Eu91 2.355 . S
O104 Eu81 2.394 1_655 S
O104 C89 1.251 . S
O105 C89 1.251 . S
O105 Eu91 2.374 1_655 S
O106 C90 1.257 . S
O106 Eu91 2.473 . S
O107 C90 1.260 . S
O107 Eu91 2.480 . S
O108 Eu91 2.430 . S
O108 C98 1.259 . S
O109 Eu81 2.355 . S
O109 Eu91 2.670 . S
O109 C98 1.270 . S
O110 Eu91 2.394 . S
O110 C99 1.251 . S
O111 Eu81 2.374 . S
O111 C99 1.251 . S
H112 C83 0.931 . S
H113 C84 0.931 . S
H114 C86 0.931 . S
H115 C87 0.931 . S
H116 C93 0.931 . S
H117 C94 0.931 . S
H118 C96 0.931 . S
H119 C97 0.931 . S
C120 Eu121 2.835 . S
C120 C122 1.500 . S
C120 O140 1.257 . S
C120 O141 1.260 . S
Eu121 C120 2.835 . S
Eu121 O140 2.473 . S
Eu121 O141 2.480 . S
Eu121 O142 2.430 . S
Eu121 O143 2.670 . S
Eu121 O144 2.394 . S
Eu121 O149 2.355 . S
Eu121 O151 2.374 1_655 S
C122 C120 1.500 . S
C122 C123 1.377 . S
C122 C127 1.377 . S
C123 C122 1.377 . S
C123 C124 1.395 . S
C123 H152 0.931 . S
C124 C123 1.395 . S
C124 C125 1.383 . S
C124 H153 0.931 . S
C125 C124 1.383 . S
C125 C126 1.394 . S
C126 C125 1.394 . S
C126 C127 1.378 . S
C126 H154 0.931 . S
C127 C122 1.377 . S
C127 C126 1.378 . S
C127 H155 0.931 . S
C128 O142 1.259 . S
C128 O143 1.270 . S
C129 O144 1.251 . S
C129 O145 1.251 . S
C130 Eu131 2.835 . S
C130 C132 1.500 1_655 S
C130 O146 1.257 . S
C130 O147 1.260 . S
Eu131 C130 2.835 . S
Eu131 O143 2.355 . S
Eu131 O145 2.374 . S
Eu131 O146 2.473 . S
Eu131 O147 2.480 . S
Eu131 O148 2.430 . S
Eu131 O149 2.670 . S
Eu131 O150 2.394 1_655 S
C132 C130 1.500 1_455 S
C132 C133 1.377 . S
C132 C137 1.377 . S
C133 C132 1.377 . S
C133 C134 1.395 . S
C133 H156 0.931 . S
C134 C133 1.395 . S
C134 C135 1.383 . S
C134 H157 0.931 . S
C135 C134 1.383 . S
C135 C136 1.394 . S
C136 C135 1.394 . S
C136 C137 1.378 . S
C136 H158 0.931 . S
C137 C132 1.377 . S
C137 C136 1.378 . S
C137 H159 0.931 . S
C138 O148 1.259 . S
C138 O149 1.270 . S
C139 O150 1.251 . S
C139 O151 1.251 . S
O140 C120 1.257 . S
O140 Eu121 2.473 . S
O141 C120 1.260 . S
O141 Eu121 2.480 . S
O142 Eu121 2.430 . S
O142 C128 1.259 . S
O143 Eu121 2.670 . S
O143 C128 1.270 . S
O143 Eu131 2.355 . S
O144 Eu121 2.394 . S
O144 C129 1.251 . S
O145 C129 1.251 . S
O145 Eu131 2.374 . S
O146 C130 1.257 . S
O146 Eu131 2.473 . S
O147 C130 1.260 . S
O147 Eu131 2.480 . S
O148 Eu131 2.430 . S
O148 C138 1.259 . S
O149 Eu121 2.355 . S
O149 Eu131 2.670 . S
O149 C138 1.270 . S
O150 Eu131 2.394 1_455 S
O150 C139 1.251 . S
O151 Eu121 2.374 1_455 S
O151 C139 1.251 . S
H152 C123 0.931 . S
H153 C124 0.931 . S
H154 C126 0.931 . S
H155 C127 0.931 . S
H156 C133 0.931 . S
H157 C134 0.931 . S
H158 C136 0.931 . S
H159 C137 0.931 . S
C160 Eu161 2.835 . S
C160 C162 1.500 1_554 S
C160 O180 1.257 1_554 S
C160 O181 1.260 . S
Eu161 C160 2.835 . S
Eu161 O180 2.473 1_554 S
Eu161 O181 2.480 . S
Eu161 O182 2.430 . S
Eu161 O183 2.670 . S
Eu161 O184 2.394 . S
Eu161 O189 2.355 1_554 S
Eu161 O191 2.374 . S
C162 C160 1.500 1_556 S
C162 C163 1.377 1_556 S
C162 C167 1.377 . S
C163 C162 1.377 1_554 S
C163 C164 1.395 . S
C163 H192 0.931 . S
C164 C163 1.395 . S
C164 C165 1.383 1_554 S
C164 H193 0.931 . S
C165 C164 1.383 1_556 S
C165 C166 1.394 . S
C166 C165 1.394 . S
C166 C167 1.378 . S
C166 H194 0.931 . S
C167 C162 1.377 . S
C167 C166 1.378 . S
C167 H195 0.931 . S
C168 O182 1.259 . S
C168 O183 1.270 . S
C169 O184 1.251 . S
C169 O185 1.256 . S
C170 Eu171 2.835 1_554 S
C170 C172 1.500 . S
C170 O186 1.257 . S
C170 O187 1.260 1_554 S
Eu171 C170 2.835 1_556 S
Eu171 O183 2.355 1_556 S
Eu171 O185 2.371 1_556 S
Eu171 O186 2.473 1_556 S
Eu171 O187 2.480 . S
Eu171 O188 2.430 . S
Eu171 O189 2.670 . S
Eu171 O190 2.394 . S
C172 C170 1.500 . S
C172 C173 1.377 1_554 S
C172 C177 1.377 . S
C173 C172 1.377 1_556 S
C173 C174 1.395 . S
C173 H196 0.931 . S
C174 C173 1.395 . S
C174 C175 1.383 1_556 S
C174 H197 0.931 . S
C175 C174 1.383 1_554 S
C175 C176 1.394 . S
C176 C175 1.394 . S
C176 C177 1.378 . S
C176 H198 0.931 . S
C177 C172 1.377 . S
C177 C176 1.378 . S
C177 H199 0.931 . S
C178 O188 1.259 . S
C178 O189 1.270 . S
C179 O190 1.246 1_554 S
C179 O191 1.254 . S
O180 C160 1.257 1_556 S
O180 Eu161 2.473 1_556 S
O181 C160 1.260 . S
O181 Eu161 2.480 . S
O182 Eu161 2.430 . S
O182 C168 1.259 . S
O183 Eu161 2.670 . S
O183 C168 1.270 . S
O183 Eu171 2.355 1_554 S
O184 Eu161 2.394 . S
O184 C169 1.251 . S
O185 C169 1.256 . S
O185 Eu171 2.371 1_554 S
O186 C170 1.257 . S
O186 Eu171 2.473 1_554 S
O187 C170 1.260 1_556 S
O187 Eu171 2.480 . S
O188 Eu171 2.430 . S
O188 C178 1.259 . S
O189 Eu161 2.355 1_556 S
O189 Eu171 2.670 . S
O189 C178 1.270 . S
O190 Eu171 2.394 . S
O190 C179 1.246 1_556 S
O191 Eu161 2.374 . S
O191 C179 1.254 . S
H192 C163 0.931 . S
H193 C164 0.931 . S
H194 C166 0.931 . S
H195 C167 0.931 . S
H196 C173 0.931 . S
H197 C174 0.931 . S
H198 C176 0.931 . S
H199 C177 0.931 . S
C200 Eu201 2.837 . S
C200 C202 1.498 1_554 S
C200 O220 1.244 1_554 S
C200 O221 1.275 . S
Eu201 C200 2.837 . S
Eu201 O220 2.473 1_554 S
Eu201 O221 2.480 . S
Eu201 O222 2.430 . S
Eu201 O223 2.670 . S
Eu201 O224 2.394 . S
Eu201 O229 2.355 1_554 S
Eu201 O231 2.372 1_554 S
C202 C200 1.498 1_556 S
C202 C203 1.377 1_556 S
C202 C207 1.377 . S
C203 C202 1.377 1_554 S
C203 C204 1.395 . S
C203 H232 0.931 . S
C204 C203 1.395 . S
C204 C205 1.383 1_554 S
C204 H233 0.931 . S
C205 C204 1.383 1_556 S
C205 C206 1.394 . S
C206 C205 1.394 . S
C206 C207 1.378 . S
C206 H234 0.931 . S
C207 C202 1.377 . S
C207 C206 1.378 . S
C207 H235 0.931 . S
C208 O222 1.259 . S
C208 O223 1.270 . S
C209 O224 1.251 . S
C209 O225 1.251 . S
C210 Eu211 2.835 1_554 S
C210 C212 1.500 . S
C210 O226 1.257 . S
C210 O227 1.260 1_554 S
Eu211 C210 2.835 1_556 S
Eu211 O223 2.355 1_556 S
Eu211 O225 2.374 1_556 S
Eu211 O226 2.473 1_556 S
Eu211 O227 2.480 . S
Eu211 O228 2.430 . S
Eu211 O229 2.670 . S
Eu211 O230 2.394 . S
C212 C210 1.500 . S
C212 C213 1.377 1_554 S
C212 C217 1.377 . S
C213 C212 1.377 1_556 S
C213 C214 1.395 . S
C213 H236 0.931 . S
C214 C213 1.395 . S
C214 C215 1.383 1_556 S
C214 H237 0.931 . S
C215 C214 1.383 1_554 S
C215 C216 1.394 . S
C216 C215 1.394 . S
C216 C217 1.378 . S
C216 H238 0.931 . S
C217 C212 1.377 . S
C217 C216 1.378 . S
C217 H239 0.931 . S
C218 O228 1.259 . S
C218 O229 1.270 . S
C219 O230 1.251 . S
C219 O231 1.255 . S
O220 C200 1.244 1_556 S
O220 Eu201 2.473 1_556 S
O221 C200 1.275 . S
O221 Eu201 2.480 . S
O222 Eu201 2.430 . S
O222 C208 1.259 . S
O223 Eu201 2.670 . S
O223 C208 1.270 . S
O223 Eu211 2.355 1_554 S
O224 Eu201 2.394 . S
O224 C209 1.251 . S
O225 C209 1.251 . S
O225 Eu211 2.374 1_554 S
O226 C210 1.257 . S
O226 Eu211 2.473 1_554 S
O227 C210 1.260 1_556 S
O227 Eu211 2.480 . S
O228 Eu211 2.430 . S
O228 C218 1.259 . S
O229 Eu201 2.355 1_556 S
O229 Eu211 2.670 . S
O229 C218 1.270 . S
O230 Eu211 2.394 . S
O230 C219 1.251 . S
O231 Eu201 2.372 1_556 S
O231 C219 1.255 . S
H232 C203 0.931 . S
H233 C204 0.931 . S
H234 C206 0.931 . S
H235 C207 0.931 . S
H236 C213 0.931 . S
H237 C214 0.931 . S
H238 C216 0.931 . S
H239 C217 0.931 . S
C240 Eu241 2.835 . S
C240 C242 1.500 . S
C240 O260 1.257 . S
C240 O261 1.260 . S
Eu241 C240 2.835 . S
Eu241 O260 2.473 . S
Eu241 O261 2.480 . S
Eu241 O262 2.430 . S
Eu241 O263 2.670 . S
Eu241 O264 2.394 . S
Eu241 O269 2.355 . S
Eu241 O271 2.374 . S
C242 C240 1.500 . S
C242 C243 1.377 . S
C242 C247 1.377 . S
C243 C242 1.377 . S
C243 C244 1.395 . S
C243 H272 0.931 . S
C244 C243 1.395 . S
C244 C245 1.383 . S
C244 H273 0.931 . S
C245 C244 1.383 . S
C245 C246 1.394 . S
C246 C245 1.394 . S
C246 C247 1.378 . S
C246 H274 0.931 . S
C247 C242 1.377 . S
C247 C246 1.378 . S
C247 H275 0.931 . S
C248 O262 1.259 . S
C248 O263 1.270 . S
C249 O264 1.251 . S
C249 O265 1.251 . S
C250 Eu251 2.835 . S
C250 C252 1.500 . S
C250 O266 1.257 . S
C250 O267 1.260 . S
Eu251 C250 2.835 . S
Eu251 O263 2.355 . S
Eu251 O265 2.374 . S
Eu251 O266 2.473 . S
Eu251 O267 2.480 . S
Eu251 O268 2.430 . S
Eu251 O269 2.670 . S
Eu251 O270 2.394 . S
C252 C250 1.500 . S
C252 C253 1.377 . S
C252 C257 1.377 . S
C253 C252 1.377 . S
C253 C254 1.395 . S
C253 H276 0.931 . S
C254 C253 1.395 . S
C254 C255 1.383 . S
C254 H277 0.931 . S
C255 C254 1.383 . S
C255 C256 1.394 . S
C256 C255 1.394 . S
C256 C257 1.378 . S
C256 H278 0.931 . S
C257 C252 1.377 . S
C257 C256 1.378 . S
C257 H279 0.931 . S
C258 O268 1.259 . S
C258 O269 1.270 . S
C259 O270 1.251 . S
C259 O271 1.251 . S
O260 C240 1.257 . S
O260 Eu241 2.473 . S
O261 C240 1.260 . S
O261 Eu241 2.480 . S
O262 Eu241 2.430 . S
O262 C248 1.259 . S
O263 Eu241 2.670 . S
O263 C248 1.270 . S
O263 Eu251 2.355 . S
O264 Eu241 2.394 . S
O264 C249 1.251 . S
O265 C249 1.251 . S
O265 Eu251 2.374 . S
O266 C250 1.257 . S
O266 Eu251 2.473 . S
O267 C250 1.260 . S
O267 Eu251 2.480 . S
O268 Eu251 2.430 . S
O268 C258 1.259 . S
O269 Eu241 2.355 . S
O269 Eu251 2.670 . S
O269 C258 1.270 . S
O270 Eu251 2.394 . S
O270 C259 1.251 . S
O271 Eu241 2.374 . S
O271 C259 1.251 . S
H272 C243 0.931 . S
H273 C244 0.931 . S
H274 C246 0.931 . S
H275 C247 0.931 . S
H276 C253 0.931 . S
H277 C254 0.931 . S
H278 C256 0.931 . S
H279 C257 0.931 . S
C280 Eu281 2.835 . S
C280 C282 1.500 . S
C280 O300 1.257 . S
C280 O301 1.260 . S
Eu281 C280 2.835 . S
Eu281 O300 2.473 . S
Eu281 O301 2.480 . S
Eu281 O302 2.430 . S
Eu281 O303 2.670 . S
Eu281 O304 2.394 . S
Eu281 O309 2.355 . S
Eu281 O311 2.374 . S
C282 C280 1.500 . S
C282 C283 1.377 . S
C282 C287 1.377 . S
C283 C282 1.377 . S
C283 C284 1.395 . S
C283 H312 0.931 . S
C284 C283 1.395 . S
C284 C285 1.383 . S
C284 H313 0.931 . S
C285 C284 1.383 . S
C285 C286 1.394 . S
C286 C285 1.394 . S
C286 C287 1.378 . S
C286 H314 0.931 . S
C287 C282 1.377 . S
C287 C286 1.378 . S
C287 H315 0.931 . S
C288 O302 1.259 . S
C288 O303 1.270 . S
C289 O304 1.251 . S
C289 O305 1.251 . S
C290 Eu291 2.835 . S
C290 C292 1.500 . S
C290 O306 1.257 . S
C290 O307 1.260 . S
Eu291 C290 2.835 . S
Eu291 O303 2.355 . S
Eu291 O305 2.374 . S
Eu291 O306 2.473 . S
Eu291 O307 2.480 . S
Eu291 O308 2.430 . S
Eu291 O309 2.670 . S
Eu291 O310 2.394 . S
C292 C290 1.500 . S
C292 C293 1.377 . S
C292 C297 1.377 . S
C293 C292 1.377 . S
C293 C294 1.395 . S
C293 H316 0.931 . S
C294 C293 1.395 . S
C294 C295 1.383 . S
C294 H317 0.931 . S
C295 C294 1.383 . S
C295 C296 1.394 . S
C296 C295 1.394 . S
C296 C297 1.378 . S
C296 H318 0.931 . S
C297 C292 1.377 . S
C297 C296 1.378 . S
C297 H319 0.931 . S
C298 O308 1.259 . S
C298 O309 1.270 . S
C299 O310 1.251 . S
C299 O311 1.251 . S
O300 C280 1.257 . S
O300 Eu281 2.473 . S
O301 C280 1.260 . S
O301 Eu281 2.480 . S
O302 Eu281 2.430 . S
O302 C288 1.259 . S
O303 Eu281 2.670 . S
O303 C288 1.270 . S
O303 Eu291 2.355 . S
O304 Eu281 2.394 . S
O304 C289 1.251 . S
O305 C289 1.251 . S
O305 Eu291 2.374 . S
O306 C290 1.257 . S
O306 Eu291 2.473 . S
O307 C290 1.260 . S
O307 Eu291 2.480 . S
O308 Eu291 2.430 . S
O308 C298 1.259 . S
O309 Eu281 2.355 . S
O309 Eu291 2.670 . S
O309 C298 1.270 . S
O310 Eu291 2.394 . S
O310 C299 1.251 . S
O311 Eu281 2.374 . S
O311 C299 1.251 . S
H312 C283 0.931 . S
H313 C284 0.931 . S
H314 C286 0.931 . S
H315 C287 0.931 . S
H316 C293 0.931 . S
H317 C294 0.931 . S
H318 C296 0.931 . S
H319 C297 0.931 . S
H320 C332 0.930 1_556 S
H321 C334 0.930 . S
H322 C335 0.930 . S
H323 C339 0.959 1_554 S
H324 C339 0.959 . S
H325 C339 0.961 . S
H326 C340 0.960 . S
H327 C340 0.961 . S
H328 C340 0.959 . S
H329 C343 0.929 . S
H330 C344 0.931 . S
H331 C346 0.930 . S
C332 H320 0.930 1_554 S
C332 C333 1.399 . S
C332 C337 1.399 1_554 S
C333 C332 1.399 . S
C333 C334 1.376 . S
C334 H321 0.930 . S
C334 C333 1.376 . S
C334 C335 1.388 . S
C335 H322 0.930 . S
C335 C334 1.388 . S
C335 C336 1.390 . S
C336 C335 1.390 . S
C336 C337 1.394 1_554 S
C336 C342 1.465 . S
C337 C332 1.399 1_556 S
C337 C336 1.394 1_556 S
C337 C338 1.516 . S
C338 C337 1.516 . S
C338 C339 1.502 . S
C338 C340 1.561 . S
C338 C341 1.526 . S
C339 H323 0.959 1_556 S
C339 H324 0.959 . S
C339 H325 0.961 . S
C339 C338 1.502 . S
C340 H326 0.960 . S
C340 H327 0.961 . S
C340 H328 0.959 . S
C340 C338 1.561 . S
C341 C338 1.526 . S
C341 C342 1.396 1_556 S
C341 C346 1.390 . S
C342 C336 1.465 . S
C342 C341 1.396 1_554 S
C342 C343 1.399 . S
C343 H329 0.929 . S
C343 C342 1.399 . S
C343 C344 1.385 . S
C344 H330 0.931 . S
C344 C343 1.385 . S
C344 C345 1.389 1_554 S
C345 C344 1.389 1_556 S
C345 C346 1.387 . S
C346 H331 0.930 . S
C346 C341 1.390 . S
C346 C345 1.387 . S
H347 C359 0.930 . S
H348 C361 0.930 . S
H349 C362 0.930 . S
H350 C366 0.959 . S
H351 C366 0.959 . S
H352 C366 0.961 . S
H353 C367 0.960 . S
H354 C367 0.961 . S
H355 C367 0.959 1_556 S
H356 C370 0.929 . S
H357 C371 0.931 . S
H358 C373 0.930 . S
C359 H347 0.930 . S
C359 C360 1.399 1_554 S
C359 C364 1.399 . S
C360 C359 1.399 1_556 S
C360 C361 1.376 . S
C361 H348 0.930 . S
C361 C360 1.376 . S
C361 C362 1.388 . S
C362 H349 0.930 . S
C362 C361 1.388 . S
C362 C363 1.390 . S
C363 C362 1.390 . S
C363 C364 1.394 1_556 S
C363 C369 1.465 . S
C364 C359 1.399 . S
C364 C363 1.394 1_554 S
C364 C365 1.516 . S
C365 C364 1.516 . S
C365 C366 1.502 . S
C365 C367 1.561 . S
C365 C368 1.526 . S
C366 H350 0.959 . S
C366 H351 0.959 . S
C366 H352 0.961 . S
C366 C365 1.502 . S
C367 H353 0.960 . S
C367 H354 0.961 . S
C367 H355 0.959 1_554 S
C367 C365 1.561 . S
C368 C365 1.526 . S
C368 C369 1.396 1_554 S
C368 C373 1.390 . S
C369 C363 1.465 . S
C369 C368 1.396 1_556 S
C369 C370 1.399 . S
C370 H356 0.929 . S
C370 C369 1.399 . S
C370 C371 1.385 . S
C371 H357 0.931 . S
C371 C370 1.385 . S
C371 C372 1.389 1_556 S
C372 C371 1.389 1_554 S
C372 C373 1.387 . S
C373 H358 0.930 . S
C373 C368 1.390 . S
C373 C372 1.387 . S
H374 C386 0.930 . S
H375 C388 0.930 . S
H376 C389 0.930 . S
H377 C393 0.959 . S
H378 C393 0.959 . S
H379 C393 0.961 . S
H380 C394 0.960 . S
H381 C394 0.961 . S
H382 C394 0.959 . S
H383 C397 0.929 . S
H384 C398 0.931 . S
H385 C400 0.930 . S
C386 H374 0.930 . S
C386 C387 1.399 . S
C386 C391 1.399 . S
C387 C386 1.399 . S
C387 C388 1.376 . S
C388 H375 0.930 . S
C388 C387 1.376 . S
C388 C389 1.388 . S
C389 H376 0.930 . S
C389 C388 1.388 . S
C389 C390 1.390 . S
C390 C389 1.390 . S
C390 C391 1.394 . S
C390 C396 1.465 . S
C391 C386 1.399 . S
C391 C390 1.394 . S
C391 C392 1.516 . S
C392 C391 1.516 . S
C392 C393 1.502 . S
C392 C394 1.561 . S
C392 C395 1.526 . S
C393 H377 0.959 . S
C393 H378 0.959 . S
C393 H379 0.961 . S
C393 C392 1.502 . S
C394 H380 0.960 . S
C394 H381 0.961 . S
C394 H382 0.959 . S
C394 C392 1.561 . S
C395 C392 1.526 . S
C395 C396 1.396 . S
C395 C400 1.390 . S
C396 C390 1.465 . S
C396 C395 1.396 . S
C396 C397 1.399 . S
C397 H383 0.929 . S
C397 C396 1.399 . S
C397 C398 1.385 . S
C398 H384 0.931 . S
C398 C397 1.385 . S
C398 C399 1.389 . S
C399 C398 1.389 . S
C399 C400 1.387 . S
C400 H385 0.930 . S
C400 C395 1.390 . S
C400 C399 1.387 . S
H401 C413 0.930 . S
H402 C415 0.930 . S
H403 C416 0.930 . S
H404 C420 0.959 . S
H405 C420 0.959 . S
H406 C420 0.961 . S
H407 C421 0.960 . S
H408 C421 0.961 . S
H409 C421 0.959 . S
H410 C424 0.929 . S
H411 C425 0.931 . S
H412 C427 0.930 . S
C413 H401 0.930 . S
C413 C414 1.399 . S
C413 C418 1.399 . S
C414 C413 1.399 . S
C414 C415 1.376 . S
C415 H402 0.930 . S
C415 C414 1.376 . S
C415 C416 1.388 . S
C416 H403 0.930 . S
C416 C415 1.388 . S
C416 C417 1.390 . S
C417 C416 1.390 . S
C417 C418 1.394 . S
C417 C423 1.465 . S
C418 C413 1.399 . S
C418 C417 1.394 . S
C418 C419 1.516 . S
C419 C418 1.516 . S
C419 C420 1.502 . S
C419 C421 1.561 . S
C419 C422 1.526 . S
C420 H404 0.959 . S
C420 H405 0.959 . S
C420 H406 0.961 . S
C420 C419 1.502 . S
C421 H407 0.960 . S
C421 H408 0.961 . S
C421 H409 0.959 . S
C421 C419 1.561 . S
C422 C419 1.526 . S
C422 C423 1.396 . S
C422 C427 1.390 . S
C423 C417 1.465 . S
C423 C422 1.396 . S
C423 C424 1.399 . S
C424 H410 0.929 . S
C424 C423 1.399 . S
C424 C425 1.385 . S
C425 H411 0.931 . S
C425 C424 1.385 . S
C425 C426 1.389 . S
C426 C425 1.389 . S
C426 C427 1.387 . S
C427 H412 0.930 . S
C427 C422 1.390 . S
C427 C426 1.387 . S
H428 C440 0.926 1_655 S
H429 C442 0.930 1_655 S
H430 C443 0.930 . S
H431 C447 0.959 . S
H432 C447 0.959 . S
H433 C447 0.961 . S
H434 C448 0.960 . S
H435 C448 0.961 1_455 S
H436 C448 0.959 . S
H437 C451 0.929 . S
H438 C452 0.931 . S
H439 C454 0.930 . S
C440 H428 0.926 1_455 S
C440 C441 1.396 1_456 S
C440 C445 1.407 . S
C441 C440 1.396 1_654 S
C441 C442 1.376 1_655 S
C442 H429 0.930 1_455 S
C442 C441 1.376 1_455 S
C442 C443 1.388 . S
C443 H430 0.930 . S
C443 C442 1.388 . S
C443 C444 1.390 . S
C444 C443 1.390 . S
C444 C445 1.394 1_554 S
C444 C450 1.465 . S
C445 C440 1.407 . S
C445 C444 1.394 1_556 S
C445 C446 1.516 . S
C446 C445 1.516 . S
C446 C447 1.502 . S
C446 C448 1.561 1_455 S
C446 C449 1.526 . S
C447 H431 0.959 . S
C447 H432 0.959 . S
C447 H433 0.961 . S
C447 C446 1.502 . S
C448 H434 0.960 . S
C448 H435 0.961 1_655 S
C448 H436 0.959 . S
C448 C446 1.561 1_655 S
C449 C446 1.526 . S
C449 C450 1.396 1_556 S
C449 C454 1.390 . S
C450 C444 1.465 . S
C450 C449 1.396 1_554 S
C450 C451 1.399 . S
C451 H437 0.929 . S
C451 C450 1.399 . S
C451 C452 1.385 . S
C452 H438 0.931 . S
C452 C451 1.385 . S
C452 C453 1.389 1_554 S
C453 C452 1.389 1_556 S
C453 C454 1.387 . S
C454 H439 0.930 . S
C454 C449 1.390 . S
C454 C453 1.387 . S
H455 C467 0.930 . S
H456 C469 0.930 . S
H457 C470 0.930 . S
H458 C474 0.959 . S
H459 C474 0.959 . S
H460 C474 0.961 . S
H461 C475 0.960 . S
H462 C475 0.961 . S
H463 C475 0.959 . S
H464 C478 0.929 . S
H465 C479 0.931 . S
H466 C481 0.930 . S
C467 H455 0.930 . S
C467 C468 1.399 1_656 S
C467 C472 1.399 . S
C468 C467 1.399 1_454 S
C468 C469 1.376 . S
C469 H456 0.930 . S
C469 C468 1.376 . S
C469 C470 1.388 . S
C470 H457 0.930 . S
C470 C469 1.388 . S
C470 C471 1.390 1_455 S
C471 C470 1.390 1_655 S
C471 C472 1.394 1_554 S
C471 C477 1.465 . S
C472 C467 1.399 . S
C472 C471 1.394 1_556 S
C472 C473 1.516 . S
C473 C472 1.516 . S
C473 C474 1.502 . S
C473 C475 1.561 . S
C473 C476 1.526 . S
C474 H458 0.959 . S
C474 H459 0.959 . S
C474 H460 0.961 . S
C474 C473 1.502 . S
C475 H461 0.960 . S
C475 H462 0.961 . S
C475 H463 0.959 . S
C475 C473 1.561 . S
C476 C473 1.526 . S
C476 C477 1.396 1_556 S
C476 C481 1.390 . S
C477 C471 1.465 . S
C477 C476 1.396 1_554 S
C477 C478 1.399 . S
C478 H464 0.929 . S
C478 C477 1.399 . S
C478 C479 1.385 . S
C479 H465 0.931 . S
C479 C478 1.385 . S
C479 C480 1.389 1_554 S
C480 C479 1.389 1_556 S
C480 C481 1.387 . S
C481 H466 0.930 . S
C481 C476 1.390 . S
C481 C480 1.387 . S
H482 C494 0.930 . S
H483 C496 0.930 . S
H484 C497 0.930 . S
H485 C501 0.959 . S
H486 C501 0.959 1_655 S
H487 C501 0.961 . S
H488 C502 0.960 . S
H489 C502 0.961 . S
H490 C502 0.959 . S
H491 C505 0.929 . S
H492 C506 0.931 . S
H493 C508 0.930 . S
C494 H482 0.930 . S
C494 C495 1.399 . S
C494 C499 1.399 . S
C495 C494 1.399 . S
C495 C496 1.376 . S
C496 H483 0.930 . S
C496 C495 1.376 . S
C496 C497 1.388 . S
C497 H484 0.930 . S
C497 C496 1.388 . S
C497 C498 1.390 . S
C498 C497 1.390 . S
C498 C499 1.394 . S
C498 C504 1.465 . S
C499 C494 1.399 . S
C499 C498 1.394 . S
C499 C500 1.516 . S
C500 C499 1.516 . S
C500 C501 1.502 . S
C500 C502 1.561 . S
C500 C503 1.526 1_455 S
C501 H485 0.959 . S
C501 H486 0.959 1_455 S
C501 H487 0.961 . S
C501 C500 1.502 . S
C502 H488 0.960 . S
C502 H489 0.961 . S
C502 H490 0.959 . S
C502 C500 1.561 . S
C503 C500 1.526 1_655 S
C503 C504 1.396 1_655 S
C503 C508 1.390 . S
C504 C498 1.465 . S
C504 C503 1.396 1_455 S
C504 C505 1.399 1_455 S
C505 H491 0.929 . S
C505 C504 1.399 1_655 S
C505 C506 1.385 . S
C506 H492 0.931 . S
C506 C505 1.385 . S
C506 C507 1.389 . S
C507 C506 1.389 . S
C507 C508 1.387 . S
C508 H493 0.930 . S
C508 C503 1.390 . S
C508 C507 1.387 . S
H509 C521 0.930 . S
H510 C523 0.930 . S
H511 C524 0.930 . S
H512 C528 0.959 . S
H513 C528 0.959 . S
H514 C528 0.961 . S
H515 C529 0.960 . S
H516 C529 0.961 . S
H517 C529 0.959 . S
H518 C532 0.929 . S
H519 C533 0.931 . S
H520 C535 0.930 . S
C521 H509 0.930 . S
C521 C522 1.399 . S
C521 C526 1.399 . S
C522 C521 1.399 . S
C522 C523 1.376 . S
C523 H510 0.930 . S
C523 C522 1.376 . S
C523 C524 1.388 . S
C524 H511 0.930 . S
C524 C523 1.388 . S
C524 C525 1.390 . S
C525 C524 1.390 . S
C525 C526 1.394 . S
C525 C531 1.465 . S
C526 C521 1.399 . S
C526 C525 1.394 . S
C526 C527 1.516 . S
C527 C526 1.516 . S
C527 C528 1.502 . S
C527 C529 1.561 . S
C527 C530 1.526 1_655 S
C528 H512 0.959 . S
C528 H513 0.959 . S
C528 H514 0.961 . S
C528 C527 1.502 . S
C529 H515 0.960 . S
C529 H516 0.961 . S
C529 H517 0.959 . S
C529 C527 1.561 . S
C530 C527 1.526 1_455 S
C530 C531 1.396 1_455 S
C530 C535 1.390 . S
C531 C525 1.465 . S
C531 C530 1.396 1_655 S
C531 C532 1.399 1_655 S
C532 H518 0.929 . S
C532 C531 1.399 1_455 S
C532 C533 1.385 . S
C533 H519 0.931 . S
C533 C532 1.385 . S
C533 C534 1.389 . S
C534 C533 1.389 . S
C534 C535 1.387 . S
C535 H520 0.930 . S
C535 C530 1.390 . S
C535 C534 1.387 . S
H536 C548 0.930 . S
H537 C550 0.930 . S
H538 C551 0.930 . S
H539 C555 0.959 . S
H540 C555 0.959 . S
H541 C555 0.961 . S
H542 C556 0.960 . S
H543 C556 0.961 . S
H544 C556 0.959 . S
H545 C559 0.929 . S
H546 C560 0.931 . S
H547 C562 0.930 . S
C548 H536 0.930 . S
C548 C549 1.399 1_455 S
C548 C553 1.399 . S
C549 C548 1.399 1_655 S
C549 C550 1.376 1_554 S
C550 H537 0.930 . S
C550 C549 1.376 1_556 S
C550 C551 1.388 . S
C551 H538 0.930 . S
C551 C550 1.388 . S
C551 C552 1.390 . S
C552 C551 1.390 . S
C552 C553 1.394 1_656 S
C552 C558 1.465 . S
C553 C548 1.399 . S
C553 C552 1.394 1_454 S
C553 C554 1.516 . S
C554 C553 1.516 . S
C554 C555 1.502 . S
C554 C556 1.561 1_455 S
C554 C557 1.526 . S
C555 H539 0.959 . S
C555 H540 0.959 . S
C555 H541 0.961 . S
C555 C554 1.502 . S
C556 H542 0.960 . S
C556 H543 0.961 . S
C556 H544 0.959 . S
C556 C554 1.561 1_655 S
C557 C554 1.526 . S
C557 C558 1.396 1_454 S
C557 C562 1.390 . S
C558 C552 1.465 . S
C558 C557 1.396 1_656 S
C558 C559 1.399 . S
C559 H545 0.929 . S
C559 C558 1.399 . S
C559 C560 1.385 . S
C560 H546 0.931 . S
C560 C559 1.385 . S
C560 C561 1.372 1_556 S
C561 C560 1.372 1_554 S
C561 C562 1.403 1_655 S
C562 H547 0.930 . S
C562 C557 1.390 . S
C562 C561 1.403 1_455 S
H563 C575 0.930 . S
H564 C577 0.930 . S
H565 C578 0.930 . S
H566 C582 0.959 . S
H567 C582 0.959 . S
H568 C582 0.961 . S
H569 C583 0.960 . S
H570 C583 0.961 . S
H571 C583 0.959 1_655 S
H572 C586 0.929 . S
H573 C587 0.931 . S
H574 C589 0.930 . S
C575 H563 0.930 . S
C575 C576 1.399 . S
C575 C580 1.399 . S
C576 C575 1.399 . S
C576 C577 1.376 . S
C577 H564 0.930 . S
C577 C576 1.376 . S
C577 C578 1.388 1_455 S
C578 H565 0.930 . S
C578 C577 1.388 1_655 S
C578 C579 1.390 . S
C579 C578 1.390 . S
C579 C580 1.395 1_655 S
C579 C585 1.464 . S
C580 C575 1.399 . S
C580 C579 1.395 1_455 S
C580 C581 1.516 . S
C581 C580 1.516 . S
C581 C582 1.502 . S
C581 C583 1.561 . S
C581 C584 1.526 1_455 S
C582 H566 0.959 . S
C582 H567 0.959 . S
C582 H568 0.961 . S
C582 C581 1.502 . S
C583 H569 0.960 . S
C583 H570 0.961 . S
C583 H571 0.959 1_455 S
C583 C581 1.561 . S
C584 C581 1.526 1_655 S
C584 C585 1.396 . S
C584 C589 1.390 . S
C585 C579 1.464 . S
C585 C584 1.396 . S
C585 C586 1.399 . S
C586 H572 0.929 . S
C586 C585 1.399 . S
C586 C587 1.385 . S
C587 H573 0.931 . S
C587 C586 1.385 . S
C587 C588 1.389 . S
C588 C587 1.389 . S
C588 C589 1.387 . S
C589 H574 0.930 . S
C589 C584 1.390 . S
C589 C588 1.387 . S
H590 C602 0.930 . S
H591 C604 0.930 . S
H592 C605 0.930 . S
H593 C609 0.959 . S
H594 C609 0.959 . S
H595 C609 0.961 1_565 S
H596 C610 0.960 . S
H597 C610 0.961 1_545 S
H598 C610 0.959 . S
H599 C613 0.929 . S
H600 C614 0.931 . S
H601 C616 0.930 . S
C602 H590 0.930 . S
C602 C603 1.399 . S
C602 C607 1.399 . S
C603 C602 1.399 . S
C603 C604 1.376 1_554 S
C604 H591 0.930 . S
C604 C603 1.376 1_556 S
C604 C605 1.388 . S
C605 H592 0.930 . S
C605 C604 1.388 . S
C605 C606 1.390 . S
C606 C605 1.390 . S
C606 C607 1.394 1_556 S
C606 C612 1.465 1_565 S
C607 C602 1.399 . S
C607 C606 1.394 1_554 S
C607 C608 1.516 . S
C608 C607 1.516 . S
C608 C609 1.502 1_565 S
C608 C610 1.561 . S
C608 C611 1.526 1_565 S
C609 H593 0.959 . S
C609 H594 0.959 . S
C609 H595 0.961 1_545 S
C609 C608 1.502 1_545 S
C610 H596 0.960 . S
C610 H597 0.961 1_565 S
C610 H598 0.959 . S
C610 C608 1.561 . S
C611 C608 1.526 1_545 S
C611 C612 1.396 1_554 S
C611 C616 1.390 . S
C612 C606 1.465 1_545 S
C612 C611 1.396 1_556 S
C612 C613 1.399 . S
C613 H599 0.929 . S
C613 C612 1.399 . S
C613 C614 1.385 . S
C614 H600 0.931 . S
C614 C613 1.385 . S
C614 C615 1.389 1_556 S
C615 C614 1.389 1_554 S
C615 C616 1.387 . S
C616 H601 0.930 . S
C616 C611 1.390 . S
C616 C615 1.387 . S
H617 C629 0.930 . S
H618 C631 0.930 . S
H619 C632 0.930 . S
H620 C636 0.959 . S
H621 C636 0.959 . S
H622 C636 0.961 . S
H623 C637 0.972 . S
H624 C637 0.956 1_565 S
H625 C637 0.949 1_565 S
H626 C640 0.929 . S
H627 C641 0.931 . S
H628 C643 0.930 . S
C629 H617 0.930 . S
C629 C630 1.399 . S
C629 C634 1.399 . S
C630 C629 1.399 . S
C630 C631 1.376 . S
C631 H618 0.930 . S
C631 C630 1.376 . S
C631 C632 1.388 . S
C632 H619 0.930 . S
C632 C631 1.388 . S
C632 C633 1.390 . S
C633 C632 1.390 . S
C633 C634 1.394 . S
C633 C639 1.465 1_545 S
C634 C629 1.399 . S
C634 C633 1.394 . S
C634 C635 1.516 . S
C635 C634 1.516 . S
C635 C636 1.502 . S
C635 C637 1.565 . S
C635 C638 1.526 1_545 S
C636 H620 0.959 . S
C636 H621 0.959 . S
C636 H622 0.961 . S
C636 C635 1.502 . S
C637 H623 0.972 . S
C637 H624 0.956 1_545 S
C637 H625 0.949 1_545 S
C637 C635 1.565 . S
C638 C635 1.526 1_565 S
C638 C639 1.396 . S
C638 C643 1.390 . S
C639 C633 1.465 1_565 S
C639 C638 1.396 . S
C639 C640 1.399 . S
C640 H626 0.929 . S
C640 C639 1.399 . S
C640 C641 1.385 . S
C641 H627 0.931 . S
C641 C640 1.385 . S
C641 C642 1.389 . S
C642 C641 1.389 . S
C642 C643 1.387 . S
C643 H628 0.930 . S
C643 C638 1.390 . S
C643 C642 1.387 . S
H644 C656 0.930 . S
H645 C658 0.930 . S
H646 C659 0.930 . S
H647 C663 0.959 . S
H648 C663 0.959 . S
H649 C663 0.961 . S
H650 C664 0.960 . S
H651 C664 0.961 . S
H652 C664 0.959 . S
H653 C667 0.929 . S
H654 C668 0.931 . S
H655 C670 0.930 . S
C656 H644 0.930 . S
C656 C657 1.399 1_556 S
C656 C661 1.399 . S
C657 C656 1.399 1_554 S
C657 C658 1.376 . S
C658 H645 0.930 . S
C658 C657 1.376 . S
C658 C659 1.388 . S
C659 H646 0.930 . S
C659 C658 1.388 . S
C659 C660 1.390 . S
C660 C659 1.390 . S
C660 C661 1.394 1_554 S
C660 C666 1.465 . S
C661 C656 1.399 . S
C661 C660 1.394 1_556 S
C661 C662 1.516 . S
C662 C661 1.516 . S
C662 C663 1.502 . S
C662 C664 1.561 . S
C662 C665 1.526 . S
C663 H647 0.959 . S
C663 H648 0.959 . S
C663 H649 0.961 . S
C663 C662 1.502 . S
C664 H650 0.960 . S
C664 H651 0.961 . S
C664 H652 0.959 . S
C664 C662 1.561 . S
C665 C662 1.526 . S
C665 C666 1.396 1_556 S
C665 C670 1.390 . S
C666 C660 1.465 . S
C666 C665 1.396 1_554 S
C666 C667 1.399 . S
C667 H653 0.929 . S
C667 C666 1.399 . S
C667 C668 1.385 . S
C668 H654 0.931 . S
C668 C667 1.385 . S
C668 C669 1.389 . S
C669 C668 1.389 . S
C669 C670 1.387 1_554 S
C670 H655 0.930 . S
C670 C665 1.390 . S
C670 C669 1.387 1_556 S
H671 C683 0.930 . S
H672 C685 0.930 . S
H673 C686 0.930 . S
H674 C690 0.959 . S
H675 C690 0.959 . S
H676 C690 0.961 . S
H677 C691 0.960 . S
H678 C691 0.961 . S
H679 C691 0.959 . S
H680 C694 0.929 . S
H681 C695 0.931 . S
H682 C697 0.930 . S
C683 H671 0.930 . S
C683 C684 1.399 1_556 S
C683 C688 1.399 . S
C684 C683 1.399 1_554 S
C684 C685 1.376 . S
C685 H672 0.930 . S
C685 C684 1.376 . S
C685 C686 1.388 . S
C686 H673 0.930 . S
C686 C685 1.388 . S
C686 C687 1.390 . S
C687 C686 1.390 . S
C687 C688 1.394 1_554 S
C687 C693 1.465 . S
C688 C683 1.399 . S
C688 C687 1.394 1_556 S
C688 C689 1.516 . S
C689 C688 1.516 . S
C689 C690 1.502 . S
C689 C691 1.561 . S
C689 C692 1.526 . S
C690 H674 0.959 . S
C690 H675 0.959 . S
C690 H676 0.961 . S
C690 C689 1.502 . S
C691 H677 0.960 . S
C691 H678 0.961 . S
C691 H679 0.959 . S
C691 C689 1.561 . S
C692 C689 1.526 . S
C692 C693 1.396 1_556 S
C692 C697 1.390 . S
C693 C687 1.465 . S
C693 C692 1.396 1_554 S
C693 C694 1.399 . S
C694 H680 0.929 . S
C694 C693 1.399 . S
C694 C695 1.385 . S
C695 H681 0.931 . S
C695 C694 1.385 . S
C695 C696 1.389 . S
C696 C695 1.389 . S
C696 C697 1.387 1_554 S
C697 H682 0.930 . S
C697 C692 1.390 . S
C697 C696 1.387 1_556 S
H698 C710 0.930 . S
H699 C712 0.930 . S
H700 C713 0.930 . S
H701 C717 0.959 . S
H702 C717 0.959 . S
H703 C717 0.961 . S
H704 C718 0.960 . S
H705 C718 0.961 . S
H706 C718 0.959 . S
H707 C721 0.929 . S
H708 C722 0.931 . S
H709 C724 0.930 . S
C710 H698 0.930 . S
C710 C711 1.399 . S
C710 C715 1.399 . S
C711 C710 1.399 . S
C711 C712 1.376 . S
C712 H699 0.930 . S
C712 C711 1.376 . S
C712 C713 1.388 . S
C713 H700 0.930 . S
C713 C712 1.388 . S
C713 C714 1.390 . S
C714 C713 1.390 . S
C714 C715 1.394 . S
C714 C720 1.465 . S
C715 C710 1.399 . S
C715 C714 1.394 . S
C715 C716 1.516 . S
C716 C715 1.516 . S
C716 C717 1.502 . S
C716 C718 1.561 . S
C716 C719 1.526 . S
C717 H701 0.959 . S
C717 H702 0.959 . S
C717 H703 0.961 . S
C717 C716 1.502 . S
C718 H704 0.960 . S
C718 H705 0.961 . S
C718 H706 0.959 . S
C718 C716 1.561 . S
C719 C716 1.526 . S
C719 C720 1.396 . S
C719 C724 1.390 . S
C720 C714 1.465 . S
C720 C719 1.396 . S
C720 C721 1.399 . S
C721 H707 0.929 . S
C721 C720 1.399 . S
C721 C722 1.385 . S
C722 H708 0.931 . S
C722 C721 1.385 . S
C722 C723 1.389 . S
C723 C722 1.389 . S
C723 C724 1.387 . S
C724 H709 0.930 . S
C724 C719 1.390 . S
C724 C723 1.387 . S
H725 C737 0.930 . S
H726 C739 0.930 . S
H727 C740 0.930 . S
H728 C744 0.959 . S
H729 C744 0.959 . S
H730 C744 0.961 . S
H731 C745 0.960 . S
H732 C745 0.961 . S
H733 C745 0.959 . S
H734 C748 0.929 . S
H735 C749 0.931 . S
H736 C751 0.930 . S
C737 H725 0.930 . S
C737 C738 1.399 . S
C737 C742 1.399 . S
C738 C737 1.399 . S
C738 C739 1.376 . S
C739 H726 0.930 . S
C739 C738 1.376 . S
C739 C740 1.388 . S
C740 H727 0.930 . S
C740 C739 1.388 . S
C740 C741 1.390 . S
C741 C740 1.390 . S
C741 C742 1.394 . S
C741 C747 1.465 . S
C742 C737 1.399 . S
C742 C741 1.394 . S
C742 C743 1.516 . S
C743 C742 1.516 . S
C743 C744 1.502 . S
C743 C745 1.561 . S
C743 C746 1.526 . S
C744 H728 0.959 . S
C744 H729 0.959 . S
C744 H730 0.961 . S
C744 C743 1.502 . S
C745 H731 0.960 . S
C745 H732 0.961 . S
C745 H733 0.959 . S
C745 C743 1.561 . S
C746 C743 1.526 . S
C746 C747 1.396 . S
C746 C751 1.390 . S
C747 C741 1.465 . S
C747 C746 1.396 . S
C747 C748 1.399 . S
C748 H734 0.929 . S
C748 C747 1.399 . S
C748 C749 1.385 . S
C749 H735 0.931 . S
C749 C748 1.385 . S
C749 C750 1.389 . S
C750 C749 1.389 . S
C750 C751 1.387 . S
C751 H736 0.930 . S
C751 C746 1.390 . S
C751 C750 1.387 . S
H752 C764 0.930 . S
H753 C766 0.930 . S
H754 C767 0.930 . S
H755 C771 0.959 . S
H756 C771 0.959 . S
H757 C771 0.961 . S
H758 C772 0.960 . S
H759 C772 0.961 . S
H760 C772 0.959 . S
H761 C775 0.929 . S
H762 C776 0.931 . S
H763 C778 0.930 . S
C764 H752 0.930 . S
C764 C765 1.399 . S
C764 C769 1.399 . S
C765 C764 1.399 . S
C765 C766 1.376 . S
C766 H753 0.930 . S
C766 C765 1.376 . S
C766 C767 1.388 . S
C767 H754 0.930 . S
C767 C766 1.388 . S
C767 C768 1.390 . S
C768 C767 1.390 . S
C768 C769 1.394 . S
C768 C774 1.465 . S
C769 C764 1.399 . S
C769 C768 1.394 . S
C769 C770 1.516 . S
C770 C769 1.516 . S
C770 C771 1.502 1_455 S
C770 C772 1.561 . S
C770 C773 1.526 . S
C771 H755 0.959 . S
C771 H756 0.959 . S
C771 H757 0.961 . S
C771 C770 1.502 1_655 S
C772 H758 0.960 . S
C772 H759 0.961 . S
C772 H760 0.959 . S
C772 C770 1.561 . S
C773 C770 1.526 . S
C773 C774 1.396 . S
C773 C778 1.390 1_455 S
C774 C768 1.465 . S
C774 C773 1.396 . S
C774 C775 1.399 . S
C775 H761 0.929 . S
C775 C774 1.399 . S
C775 C776 1.385 1_455 S
C776 H762 0.931 . S
C776 C775 1.385 1_655 S
C776 C777 1.389 . S
C777 C776 1.389 . S
C777 C778 1.387 . S
C778 H763 0.930 . S
C778 C773 1.390 1_655 S
C778 C777 1.387 . S
H779 C791 0.930 . S
H780 C793 0.930 . S
H781 C794 0.930 1_455 S
H782 C798 0.959 . S
H783 C798 0.959 . S
H784 C798 0.961 . S
H785 C799 0.960 1_655 S
H786 C799 0.961 . S
H787 C799 0.959 . S
H788 C802 0.929 . S
H789 C803 0.931 . S
H790 C805 0.930 1_655 S
C791 H779 0.930 . S
C791 C792 1.399 . S
C791 C796 1.399 . S
C792 C791 1.399 . S
C792 C793 1.376 . S
C793 H780 0.930 . S
C793 C792 1.376 . S
C793 C794 1.388 . S
C794 H781 0.930 1_655 S
C794 C793 1.388 . S
C794 C795 1.390 . S
C795 C794 1.390 . S
C795 C796 1.394 . S
C795 C801 1.465 1_655 S
C796 C791 1.399 . S
C796 C795 1.394 . S
C796 C797 1.516 . S
C797 C796 1.516 . S
C797 C798 1.502 . S
C797 C799 1.561 1_655 S
C797 C800 1.526 . S
C798 H782 0.959 . S
C798 H783 0.959 . S
C798 H784 0.961 . S
C798 C797 1.502 . S
C799 H785 0.960 1_455 S
C799 H786 0.961 . S
C799 H787 0.959 . S
C799 C797 1.561 1_455 S
C800 C797 1.526 . S
C800 C801 1.396 1_655 S
C800 C805 1.390 1_655 S
C801 C795 1.465 1_455 S
C801 C800 1.396 1_455 S
C801 C802 1.399 . S
C802 H788 0.929 . S
C802 C801 1.399 . S
C802 C803 1.385 . S
C803 H789 0.931 . S
C803 C802 1.385 . S
C803 C804 1.389 . S
C804 C803 1.389 . S
C804 C805 1.387 . S
C805 H790 0.930 1_455 S
C805 C800 1.390 1_455 S
C805 C804 1.387 . S
H806 C818 0.930 . S
H807 C820 0.930 . S
H808 C821 0.930 . S
H809 C825 0.959 . S
H810 C825 0.959 . S
H811 C825 0.961 . S
H812 C826 0.960 1_655 S
H813 C826 0.961 . S
H814 C826 0.959 . S
H815 C829 0.929 . S
H816 C830 0.931 . S
H817 C832 0.930 1_655 S
C818 H806 0.930 . S
C818 C819 1.399 . S
C818 C823 1.399 . S
C819 C818 1.399 . S
C819 C820 1.376 . S
C820 H807 0.930 . S
C820 C819 1.376 . S
C820 C821 1.388 1_655 S
C821 H808 0.930 . S
C821 C820 1.388 1_455 S
C821 C822 1.389 1_455 S
C822 C821 1.389 1_655 S
C822 C823 1.400 . S
C822 C828 1.461 1_655 S
C823 C818 1.399 . S
C823 C822 1.400 . S
C823 C824 1.516 . S
C824 C823 1.516 . S
C824 C825 1.502 . S
C824 C826 1.561 1_655 S
C824 C827 1.526 . S
C825 H809 0.959 . S
C825 H810 0.959 . S
C825 H811 0.961 . S
C825 C824 1.502 . S
C826 H812 0.960 1_455 S
C826 H813 0.961 . S
C826 H814 0.959 . S
C826 C824 1.561 1_455 S
C827 C824 1.526 . S
C827 C828 1.396 1_655 S
C827 C832 1.390 1_655 S
C828 C822 1.461 1_455 S
C828 C827 1.396 1_455 S
C828 C829 1.399 . S
C829 H815 0.929 . S
C829 C828 1.399 . S
C829 C830 1.385 . S
C830 H816 0.931 . S
C830 C829 1.385 . S
C830 C831 1.389 . S
C831 C830 1.389 . S
C831 C832 1.387 . S
C832 H817 0.930 1_455 S
C832 C827 1.390 1_455 S
C832 C831 1.387 . S
H833 C845 0.930 . S
H834 C847 0.930 . S
H835 C848 0.930 . S
H836 C852 0.959 . S
H837 C852 0.959 . S
H838 C852 0.961 . S
H839 C853 0.960 . S
H840 C853 0.961 . S
H841 C853 0.959 . S
H842 C856 0.929 1_655 S
H843 C857 0.931 . S
H844 C859 0.930 . S
C845 H833 0.930 . S
C845 C846 1.399 . S
C845 C850 1.399 . S
C846 C845 1.399 . S
C846 C847 1.376 . S
C847 H834 0.930 . S
C847 C846 1.376 . S
C847 C848 1.388 . S
C848 H835 0.930 . S
C848 C847 1.388 . S
C848 C849 1.390 . S
C849 C848 1.390 . S
C849 C850 1.394 . S
C849 C855 1.465 1_655 S
C850 C845 1.399 . S
C850 C849 1.394 . S
C850 C851 1.516 1_655 S
C851 C850 1.516 1_455 S
C851 C852 1.502 . S
C851 C853 1.561 1_455 S
C851 C854 1.526 . S
C852 H836 0.959 . S
C852 H837 0.959 . S
C852 H838 0.961 . S
C852 C851 1.502 . S
C853 H839 0.960 . S
C853 H840 0.961 . S
C853 H841 0.959 . S
C853 C851 1.561 1_655 S
C854 C851 1.526 . S
C854 C855 1.396 . S
C854 C859 1.390 . S
C855 C849 1.465 1_455 S
C855 C854 1.396 . S
C855 C856 1.399 . S
C856 H842 0.929 1_455 S
C856 C855 1.399 . S
C856 C857 1.385 . S
C857 H843 0.931 . S
C857 C856 1.385 . S
C857 C858 1.389 . S
C858 C857 1.389 . S
C858 C859 1.387 . S
C859 H844 0.930 . S
C859 C854 1.390 . S
C859 C858 1.387 . S
H860 C872 0.930 . S
H861 C874 0.930 . S
H862 C875 0.930 . S
H863 C879 0.959 . S
H864 C879 0.959 . S
H865 C879 0.961 . S
H866 C880 0.960 . S
H867 C880 0.961 . S
H868 C880 0.959 . S
H869 C883 0.929 . S
H870 C884 0.931 . S
H871 C886 0.930 . S
C872 H860 0.930 . S
C872 C873 1.399 . S
C872 C877 1.399 . S
C873 C872 1.399 . S
C873 C874 1.376 . S
C874 H861 0.930 . S
C874 C873 1.376 . S
C874 C875 1.388 . S
C875 H862 0.930 . S
C875 C874 1.388 . S
C875 C876 1.390 . S
C876 C875 1.390 . S
C876 C877 1.394 . S
C876 C882 1.465 . S
C877 C872 1.399 . S
C877 C876 1.394 . S
C877 C878 1.516 . S
C878 C877 1.516 . S
C878 C879 1.502 . S
C878 C880 1.561 . S
C878 C881 1.526 . S
C879 H863 0.959 . S
C879 H864 0.959 . S
C879 H865 0.961 . S
C879 C878 1.502 . S
C880 H866 0.960 . S
C880 H867 0.961 . S
C880 H868 0.959 . S
C880 C878 1.561 . S
C881 C878 1.526 . S
C881 C882 1.396 . S
C881 C886 1.390 . S
C882 C876 1.465 . S
C882 C881 1.396 . S
C882 C883 1.399 . S
C883 H869 0.929 . S
C883 C882 1.399 . S
C883 C884 1.385 . S
C884 H870 0.931 . S
C884 C883 1.385 . S
C884 C885 1.389 . S
C885 C884 1.389 . S
C885 C886 1.387 . S
C886 H871 0.930 . S
C886 C881 1.390 . S
C886 C885 1.387 . S
H887 C899 0.930 . S
H888 C901 0.930 . S
H889 C902 0.930 . S
H890 C906 0.959 . S
H891 C906 0.959 . S
H892 C906 0.961 . S
H893 C907 0.960 . S
H894 C907 0.961 . S
H895 C907 0.959 . S
H896 C910 0.929 . S
H897 C911 0.931 . S
H898 C913 0.930 . S
C899 H887 0.930 . S
C899 C900 1.399 . S
C899 C904 1.399 . S
C900 C899 1.399 . S
C900 C901 1.376 . S
C901 H888 0.930 . S
C901 C900 1.376 . S
C901 C902 1.388 . S
C902 H889 0.930 . S
C902 C901 1.388 . S
C902 C903 1.390 . S
C903 C902 1.390 . S
C903 C904 1.394 . S
C903 C909 1.465 . S
C904 C899 1.399 . S
C904 C903 1.394 . S
C904 C905 1.516 . S
C905 C904 1.516 . S
C905 C906 1.502 . S
C905 C907 1.561 . S
C905 C908 1.526 . S
C906 H890 0.959 . S
C906 H891 0.959 . S
C906 H892 0.961 . S
C906 C905 1.502 . S
C907 H893 0.960 . S
C907 H894 0.961 . S
C907 H895 0.959 . S
C907 C905 1.561 . S
C908 C905 1.526 . S
C908 C909 1.396 . S
C908 C913 1.390 . S
C909 C903 1.465 . S
C909 C908 1.396 . S
C909 C910 1.399 . S
C910 H896 0.929 . S
C910 C909 1.399 . S
C910 C911 1.385 . S
C911 H897 0.931 . S
C911 C910 1.385 . S
C911 C912 1.389 . S
C912 C911 1.389 . S
C912 C913 1.387 . S
C913 H898 0.930 . S
C913 C908 1.390 . S
C913 C912 1.387 . S
H914 C926 0.930 . S
H915 C928 0.930 . S
H916 C929 0.930 . S
H917 C933 0.959 . S
H918 C933 0.959 . S
H919 C933 0.961 . S
H920 C934 0.960 . S
H921 C934 0.961 . S
H922 C934 0.959 . S
H923 C937 0.929 . S
H924 C938 0.931 . S
H925 C940 0.930 . S
C926 H914 0.930 . S
C926 C927 1.399 . S
C926 C931 1.399 . S
C927 C926 1.399 . S
C927 C928 1.376 . S
C928 H915 0.930 . S
C928 C927 1.376 . S
C928 C929 1.388 . S
C929 H916 0.930 . S
C929 C928 1.388 . S
C929 C930 1.390 . S
C930 C929 1.390 . S
C930 C931 1.394 . S
C930 C936 1.465 . S
C931 C926 1.399 . S
C931 C930 1.394 . S
C931 C932 1.516 . S
C932 C931 1.516 . S
C932 C933 1.502 . S
C932 C934 1.561 . S
C932 C935 1.526 . S
C933 H917 0.959 . S
C933 H918 0.959 . S
C933 H919 0.961 . S
C933 C932 1.502 . S
C934 H920 0.960 . S
C934 H921 0.961 . S
C934 H922 0.959 . S
C934 C932 1.561 . S
C935 C932 1.526 . S
C935 C936 1.396 . S
C935 C940 1.390 . S
C936 C930 1.465 . S
C936 C935 1.396 . S
C936 C937 1.399 . S
C937 H923 0.929 . S
C937 C936 1.399 . S
C937 C938 1.385 . S
C938 H924 0.931 . S
C938 C937 1.385 . S
C938 C939 1.389 . S
C939 C938 1.389 . S
C939 C940 1.387 . S
C940 H925 0.930 . S
C940 C935 1.390 . S
C940 C939 1.387 . S
H941 C953 0.930 . S
H942 C955 0.930 . S
H943 C956 0.930 . S
H944 C960 0.959 . S
H945 C960 0.959 . S
H946 C960 0.961 . S
H947 C961 0.960 . S
H948 C961 0.961 . S
H949 C961 0.959 . S
H950 C964 0.929 . S
H951 C965 0.931 . S
H952 C967 0.930 . S
C953 H941 0.930 . S
C953 C954 1.399 . S
C953 C958 1.399 . S
C954 C953 1.399 . S
C954 C955 1.376 . S
C955 H942 0.930 . S
C955 C954 1.376 . S
C955 C956 1.388 . S
C956 H943 0.930 . S
C956 C955 1.388 . S
C956 C957 1.390 . S
C957 C956 1.390 . S
C957 C958 1.394 . S
C957 C963 1.465 . S
C958 C953 1.399 . S
C958 C957 1.394 . S
C958 C959 1.516 . S
C959 C958 1.516 . S
C959 C960 1.502 . S
C959 C961 1.561 . S
C959 C962 1.526 . S
C960 H944 0.959 . S
C960 H945 0.959 . S
C960 H946 0.961 . S
C960 C959 1.502 . S
C961 H947 0.960 . S
C961 H948 0.961 . S
C961 H949 0.959 . S
C961 C959 1.561 . S
C962 C959 1.526 . S
C962 C963 1.396 . S
C962 C967 1.390 . S
C963 C957 1.465 . S
C963 C962 1.396 . S
C963 C964 1.399 . S
C964 H950 0.929 . S
C964 C963 1.399 . S
C964 C965 1.385 . S
C965 H951 0.931 . S
C965 C964 1.385 . S
C965 C966 1.389 . S
C966 C965 1.389 . S
C966 C967 1.387 . S
C967 H952 0.930 . S
C967 C962 1.390 . S
C967 C966 1.387 . S
C333 C15 0.540 . S
C345 C5 0.789 . S
C360 C45 0.680 . S
C372 C55 0.757 . S
C387 C89 5.008 . S
C399 C99 5.015 . S
C414 C129 5.011 . S
C426 C139 5.012 . S
C441 C175 0.669 . S
C453 C165 0.663 . S
C468 C215 0.592 . S
C480 C205 0.759 . S
C495 C249 5.013 . S
C507 C259 5.010 . S
C522 C299 5.004 . S
C534 C289 5.016 . S
C549 C49 4.806 . S
C561 C9 4.806 1_655 S
C576 C135 0.583 . S
C588 C85 0.790 . S
C603 C169 4.790 . S
C615 C209 4.822 . S
C630 C245 0.825 . S
C642 C295 0.598 . S
C657 C19 4.315 . S
C669 C219 4.322 1_554 S
C684 C179 4.316 . S
C696 C59 4.325 1_554 S
C711 C95 0.391 . S
C723 C285 0.540 . S
C738 C125 0.449 . S
C750 C255 0.480 . S
C765 C8 1.578 . S
C777 C138 1.586 . S
C792 C48 1.488 . S
C804 C98 1.622 . S
C819 C58 1.594 . S
C831 C88 1.533 . S
C846 C128 1.557 . S
C858 C18 1.644 . S
C873 C168 1.585 . S
C885 C298 1.588 . S
C900 C208 1.600 . S
C912 C258 1.627 . S
C927 C218 1.604 . S
C939 C248 1.595 . S
C954 C288 1.560 . S
C966 C178 1.607 . S
