# Generated by pormake.
# Topology vmi, (6)-cn, num edge types: 1
# Building blocks:
#     Node 0, Type 0, BuildingBlock: IZENUY_clean_sbu_0, # of connection points: 6
#     Node 1, Type 0, BuildingBlock: IZENUY_clean_sbu_0, # of connection points: 6
#     Node 2, Type 0, BuildingBlock: IZENUY_clean_sbu_0, # of connection points: 6
#     Node 3, Type 0, BuildingBlock: IZENUY_clean_sbu_0, # of connection points: 6
#     Node 4, Type 0, BuildingBlock: IZENUY_clean_sbu_0, # of connection points: 6
#     Node 5, Type 0, BuildingBlock: IZENUY_clean_sbu_0, # of connection points: 6
#     Node 6, Type 0, BuildingBlock: IZENUY_clean_sbu_0, # of connection points: 6
#     Node 7, Type 0, BuildingBlock: IZENUY_clean_sbu_0, # of connection points: 6
#     Edge 8, Type (0, 0), BuildingBlock: AJUNOK_clean_linker_0, # of connection points: 2
#     Edge 9, Type (0, 0), BuildingBlock: AJUNOK_clean_linker_0, # of connection points: 2
#     Edge 10, Type (0, 0), BuildingBlock: AJUNOK_clean_linker_0, # of connection points: 2
#     Edge 11, Type (0, 0), BuildingBlock: AJUNOK_clean_linker_0, # of connection points: 2
#     Edge 12, Type (0, 0), BuildingBlock: AJUNOK_clean_linker_0, # of connection points: 2
#     Edge 13, Type (0, 0), BuildingBlock: AJUNOK_clean_linker_0, # of connection points: 2
#     Edge 14, Type (0, 0), BuildingBlock: AJUNOK_clean_linker_0, # of connection points: 2
#     Edge 15, Type (0, 0), BuildingBlock: AJUNOK_clean_linker_0, # of connection points: 2
#     Edge 16, Type (0, 0), BuildingBlock: AJUNOK_clean_linker_0, # of connection points: 2
#     Edge 17, Type (0, 0), BuildingBlock: AJUNOK_clean_linker_0, # of connection points: 2
#     Edge 18, Type (0, 0), BuildingBlock: AJUNOK_clean_linker_0, # of connection points: 2
#     Edge 19, Type (0, 0), BuildingBlock: AJUNOK_clean_linker_0, # of connection points: 2
#     Edge 20, Type (0, 0), BuildingBlock: AJUNOK_clean_linker_0, # of connection points: 2
#     Edge 21, Type (0, 0), BuildingBlock: AJUNOK_clean_linker_0, # of connection points: 2
#     Edge 22, Type (0, 0), BuildingBlock: AJUNOK_clean_linker_0, # of connection points: 2
#     Edge 23, Type (0, 0), BuildingBlock: AJUNOK_clean_linker_0, # of connection points: 2
#     Edge 24, Type (0, 0), BuildingBlock: AJUNOK_clean_linker_0, # of connection points: 2
#     Edge 25, Type (0, 0), BuildingBlock: AJUNOK_clean_linker_0, # of connection points: 2
#     Edge 26, Type (0, 0), BuildingBlock: AJUNOK_clean_linker_0, # of connection points: 2
#     Edge 27, Type (0, 0), BuildingBlock: AJUNOK_clean_linker_0, # of connection points: 2
#     Edge 28, Type (0, 0), BuildingBlock: AJUNOK_clean_linker_0, # of connection points: 2
#     Edge 29, Type (0, 0), BuildingBlock: AJUNOK_clean_linker_0, # of connection points: 2
#     Edge 30, Type (0, 0), BuildingBlock: AJUNOK_clean_linker_0, # of connection points: 2
#     Edge 31, Type (0, 0), BuildingBlock: AJUNOK_clean_linker_0, # of connection points: 2
# Relax obj value: 0.332
# Max RMSD: 0.290
# Mean RMSD: 0.290
data_MOF--net-vmi--node1-IZENUY_clean_sbu_0--edge1-AJUNOK_clean_linker_0
_symmetry_space_group_name_H-M    P1
_symmetry_Int_Tables_number       1
_symmetry_cell_setting            triclinic
loop_
_symmetry_equiv_pos_as_xyz
'x, y, z'
_cell_length_a     19.969259
_cell_length_b     33.617184
_cell_length_c     21.788601
_cell_angle_alpha  89.964193
_cell_angle_beta   109.46165
_cell_angle_gamma 90.122859
loop_
_atom_site_label
_atom_site_type_symbol
_atom_site_fract_x
_atom_site_fract_y
_atom_site_fract_z
_atom_type_partial_charge
Fe0 Fe 0.19871 0.04763 0.25877 0.0
Fe1 Fe 0.15677 0.12755 0.1846 0.0
O2 O 0.22122 0.09522 0.23681 0.0
Fe3 Fe 0.31098 0.11083 0.26661 0.0
O4 O 0.35118 0.06153 0.2817 0.0
O5 O 0.26438 0.02186 0.23097 0.0
O6 O 0.13326 0.03683 0.17858 0.0
C7 C 0.11668 0.05492 0.12451 0.0
C8 C 0.28712 0.08324 0.37554 0.0
O9 O 0.13079 0.0911 0.12076 0.0
C10 C 0.24051 0.18406 0.26131 0.0
O11 O 0.13129 0.06762 0.28852 0.0
O12 O 0.08293 0.11209 0.2128 0.0
O13 O 0.30704 0.1126 0.34907 0.0
O14 O 0.26004 0.05226 0.34296 0.0
C15 C 0.27008 0.12845 0.13662 0.0
O16 O 0.17929 0.16826 0.24405 0.0
O17 O 0.29288 0.16385 0.25983 0.0
C18 C 0.07933 0.08908 0.25775 0.0
O19 O 0.21821 0.14645 0.14515 0.0
O20 O 0.31374 0.10898 0.18306 0.0
C21 C 0.32996 0.02847 0.2556 0.0
Fe22 Fe 0.39723 0.12716 0.8358 0.0
Fe23 Fe 0.24636 0.11174 0.74328 0.0
O24 O 0.33458 0.0952 0.78068 0.0
Fe25 Fe 0.35567 0.04655 0.76221 0.0
O26 O 0.41514 0.03534 0.84396 0.0
O27 O 0.4214 0.0906 0.89983 0.0
O28 O 0.3317 0.14475 0.87169 0.0
C29 C 0.27601 0.12704 0.87315 0.0
C30 C 0.4782 0.08774 0.76745 0.0
O31 O 0.23391 0.10968 0.82301 0.0
C32 C 0.28303 0.08304 0.64182 0.0
O33 O 0.37887 0.1687 0.77788 0.0
O34 O 0.26435 0.16437 0.7532 0.0
O35 O 0.42863 0.06416 0.73813 0.0
O36 O 0.47243 0.11218 0.80982 0.0
C37 C 0.21989 0.0329 0.7595 0.0
O38 O 0.26117 0.11334 0.66479 0.0
O39 O 0.30096 0.05149 0.67586 0.0
C40 C 0.31822 0.18475 0.75742 0.0
O41 O 0.20633 0.06302 0.72395 0.0
O42 O 0.28401 0.02351 0.7864 0.0
C43 C 0.4334 0.05407 0.89724 0.0
Fe44 Fe 0.84983 0.98233 0.75702 0.0
Fe45 Fe 0.73938 0.91975 0.7548 0.0
O46 O 0.82855 0.93581 0.78245 0.0
Fe47 Fe 0.89551 0.90453 0.83413 0.0
O48 O 0.92006 0.94172 0.89709 0.0
O49 O 0.92016 0.99337 0.83484 0.0
O50 O 0.78907 1.00945 0.78865 0.0
C51 C 0.72325 1.00259 0.76827 0.0
C52 C 0.96764 0.94343 0.7574 0.0
O53 O 0.69993 0.96949 0.74263 0.0
C54 C 0.81248 0.84762 0.75783 0.0
O55 O 0.78348 0.97854 0.67551 0.0
O56 O 0.74007 0.91797 0.67101 0.0
O57 O 0.96861 0.9217 0.80525 0.0
O58 O 0.90987 0.9582 0.72272 0.0
C59 C 0.78572 0.90291 0.88528 0.0
O60 O 0.75963 0.86702 0.76066 0.0
O61 O 0.87345 0.86385 0.77475 0.0
C62 C 0.75849 0.94728 0.64351 0.0
O63 O 0.73943 0.92108 0.83902 0.0
O64 O 0.83596 0.8845 0.87462 0.0
C65 C 0.93639 0.97724 0.89052 0.0
Fe66 Fe 0.81268 0.92407 0.27835 0.0
Fe67 Fe 0.65952 0.90545 0.19405 0.0
O68 O 0.72233 0.93873 0.2459 0.0
Fe69 Fe 0.69855 0.9864 0.26626 0.0
O70 O 0.76526 1.01188 0.23883 0.0
O71 O 0.85143 0.97382 0.29504 0.0
O72 O 0.81889 0.92634 0.19635 0.0
C73 C 0.77485 0.9083 0.1481 0.0
C74 C 0.78011 0.95027 0.38361 0.0
O75 O 0.72207 0.88942 0.15387 0.0
C76 C 0.57998 0.94314 0.26556 0.0
O77 O 0.79737 0.87094 0.27005 0.0
O78 O 0.68423 0.86426 0.2527 0.0
O79 O 0.75841 0.98196 0.35095 0.0
O80 O 0.80415 0.92155 0.35914 0.0
C81 C 0.61325 0.97748 0.13311 0.0
O82 O 0.5859 0.91868 0.22339 0.0
O83 O 0.62979 0.96659 0.29465 0.0
C84 C 0.74607 0.84959 0.2707 0.0
O85 O 0.62946 0.94164 0.13039 0.0
O86 O 0.63392 0.99691 0.18586 0.0
C87 C 0.83083 1.00589 0.26522 0.0
Fe88 Fe 0.66707 0.62382 0.69156 0.0
Fe89 Fe 0.81949 0.60492 0.77632 0.0
O90 O 0.72896 0.59095 0.74519 0.0
Fe91 Fe 0.70366 0.5442 0.76744 0.0
O92 O 0.63802 0.53372 0.68788 0.0
O93 O 0.63871 0.58677 0.62852 0.0
O94 O 0.7305 0.64016 0.65255 0.0
C95 C 0.78136 0.62026 0.64585 0.0
C96 C 0.58664 0.58876 0.7647 0.0
O97 O 0.82391 0.60119 0.69352 0.0
C98 C 0.79106 0.57961 0.88407 0.0
O99 O 0.69135 0.66505 0.74987 0.0
O100 O 0.80474 0.65807 0.76743 0.0
O101 O 0.63658 0.56606 0.79611 0.0
O102 O 0.5924 0.61096 0.71969 0.0
C103 C 0.83448 0.52289 0.7647 0.0
O104 O 0.81329 0.60839 0.85807 0.0
O105 O 0.76462 0.54856 0.85153 0.0
C106 C 0.75357 0.67946 0.76825 0.0
O107 O 0.85668 0.55507 0.79345 0.0
O108 O 0.76856 0.51708 0.73993 0.0
C109 C 0.62082 0.55134 0.63355 0.0
Fe110 Fe 0.88976 0.62539 0.33803 0.0
Fe111 Fe 0.73885 0.6063 0.24892 0.0
O112 O 0.82884 0.59213 0.28424 0.0
Fe113 Fe 0.85462 0.5447 0.26552 0.0
O114 O 0.91821 0.53536 0.34656 0.0
O115 O 0.91479 0.58929 0.40286 0.0
O116 O 0.82382 0.64304 0.37307 0.0
C117 C 0.77142 0.62381 0.37844 0.0
C118 C 0.9728 0.58852 0.26906 0.0
O119 O 0.73009 0.60442 0.33033 0.0
C120 C 0.77417 0.57841 0.14588 0.0
O121 O 0.86857 0.66581 0.27817 0.0
O122 O 0.75419 0.65971 0.25576 0.0
O123 O 0.9232 0.56549 0.23796 0.0
O124 O 0.96644 0.61125 0.31326 0.0
C125 C 0.7222 0.52439 0.26401 0.0
O126 O 0.74972 0.60783 0.16855 0.0
O127 O 0.79599 0.54764 0.18064 0.0
C128 C 0.80703 0.68099 0.25858 0.0
O129 O 0.70133 0.55624 0.23344 0.0
O130 O 0.7877 0.51886 0.292 0.0
C131 C 0.9322 0.55359 0.40012 0.0
Fe132 Fe 0.35452 0.48846 0.26453 0.0
Fe133 Fe 0.23748 0.42749 0.24784 0.0
O134 O 0.32796 0.44096 0.28243 0.0
Fe135 Fe 0.38834 0.40684 0.33457 0.0
O136 O 0.41589 0.44218 0.40021 0.0
O137 O 0.41854 0.49706 0.34564 0.0
O138 O 0.28849 0.51431 0.29206 0.0
C139 C 0.22282 0.50917 0.26433 0.0
C140 C 0.47136 0.4442 0.26577 0.0
O141 O 0.20117 0.47768 0.23302 0.0
C142 C 0.30241 0.35264 0.25362 0.0
O143 O 0.29541 0.48601 0.17965 0.0
O144 O 0.24753 0.4261 0.16714 0.0
O145 O 0.46462 0.42064 0.30887 0.0
O146 O 0.42245 0.4679 0.2361 0.0
C147 C 0.27131 0.40914 0.37715 0.0
O148 O 0.25106 0.3741 0.25379 0.0
O149 O 0.36474 0.36691 0.27369 0.0
C150 C 0.27327 0.45525 0.14481 0.0
O151 O 0.2301 0.42919 0.32987 0.0
O152 O 0.32274 0.38958 0.37057 0.0
C153 C 0.43348 0.47797 0.39855 0.0
Fe154 Fe 0.32039 0.42723 0.77568 0.0
Fe155 Fe 0.16804 0.4077 0.69147 0.0
O156 O 0.22978 0.44084 0.74493 0.0
Fe157 Fe 0.20409 0.48742 0.76739 0.0
O158 O 0.26874 0.51512 0.74018 0.0
O159 O 0.35727 0.47717 0.79249 0.0
O160 O 0.32443 0.43093 0.69256 0.0
C161 C 0.28207 0.41143 0.64522 0.0
C162 C 0.29242 0.45234 0.8839 0.0
O163 O 0.23134 0.3915 0.65243 0.0
C164 C 0.08673 0.44291 0.76366 0.0
O165 O 0.30599 0.37402 0.76719 0.0
O166 O 0.1927 0.36652 0.75 0.0
O167 O 0.26512 0.48323 0.85146 0.0
O168 O 0.31475 0.42376 0.85771 0.0
C169 C 0.12123 0.48001 0.63344 0.0
O170 O 0.0932 0.42035 0.71941 0.0
O171 O 0.13714 0.46511 0.796 0.0
C172 C 0.25512 0.35244 0.76858 0.0
O173 O 0.13946 0.44471 0.62828 0.0
O174 O 0.13838 0.49766 0.68777 0.0
C175 C 0.33466 0.50961 0.76507 0.0
C176 C 0.44901 0.95374 0.21153 0.0
C177 C 0.50861 0.95265 0.26913 0.0
C178 C 0.38756 0.97552 0.20831 0.0
C179 C 0.38393 0.99689 0.26257 0.0
H180 H 0.45222 0.94084 0.16704 0.0
H181 H 0.34543 0.97834 0.16187 0.0
S182 S 0.51911 0.99689 0.42791 0.0
N183 N 0.55496 0.96977 0.38386 0.0
N184 N 0.4404 1.01049 0.37793 0.0
C185 C 0.44015 0.99265 0.32186 0.0
C186 C 0.50218 0.97053 0.32516 0.0
C187 C 0.10088 0.9467 0.77772 0.0
C188 C 0.03337 0.96489 0.75817 0.0
C189 C 0.16245 0.9685 0.7799 0.0
C190 C 0.15837 1.00929 0.7639 0.0
H191 H 0.1059 0.91545 0.79039 0.0
H192 H 0.21302 0.95325 0.79304 0.0
S193 S 0.99618 0.07238 0.72074 0.0
N194 N 0.96822 0.0272 0.72856 0.0
N195 N 0.08222 0.06774 0.73595 0.0
C196 C 0.09162 0.028 0.74799 0.0
C197 C 0.02964 1.00595 0.74416 0.0
C198 C 0.66942 0.05486 0.81961 0.0
C199 C 0.67097 0.03452 0.76376 0.0
C200 C 0.60904 0.07681 0.81877 0.0
C201 C 0.54874 0.07899 0.76202 0.0
H202 H 0.71222 0.051 0.86536 0.0
H203 H 0.60705 0.08878 0.86428 0.0
S204 S 0.53336 0.03791 0.59999 0.0
N205 N 0.61227 0.02318 0.64805 0.0
N206 N 0.49961 0.06436 0.64643 0.0
C207 C 0.55337 0.06238 0.70441 0.0
C208 C 0.61425 0.04005 0.70534 0.0
C209 C 0.88648 0.05614 0.21052 0.0
C210 C 0.88548 0.03658 0.26734 0.0
C211 C 0.94746 0.07704 0.20917 0.0
C212 C 1.00933 0.07913 0.26467 0.0
H213 H 0.84226 0.05266 0.16565 0.0
H214 H 0.94812 0.0887 0.16302 0.0
S215 S 1.0281 0.03955 0.42852 0.0
N216 N 0.94766 0.02563 0.3826 0.0
N217 N 0.06116 0.06472 0.38009 0.0
C218 C 1.00599 0.0629 0.32307 0.0
C219 C 0.94444 0.04166 0.32437 0.0
C220 C 1.00904 0.46825 0.82423 0.0
C221 C 1.01483 0.45167 0.76697 0.0
C222 C 0.94718 0.48801 0.82403 0.0
C223 C 0.88825 0.49202 0.76665 0.0
H224 H 0.05447 0.4684 0.86865 0.0
H225 H 0.94721 0.50255 0.86842 0.0
S226 S 0.87318 0.45107 0.6049 0.0
N227 N 0.95352 0.43796 0.65207 0.0
N228 N 0.83728 0.47505 0.65235 0.0
C229 C 0.8908 0.47283 0.71031 0.0
C230 C 0.95408 0.45264 0.71033 0.0
C231 C 0.66514 0.47403 0.31679 0.0
C232 C 0.66804 0.4933 0.2604 0.0
C233 C 0.60316 0.45375 0.31677 0.0
C234 C 0.54245 0.45199 0.26023 0.0
H235 H 0.70844 0.47747 0.36229 0.0
H236 H 0.60064 0.44264 0.36264 0.0
S237 S 0.52942 0.49008 0.09693 0.0
N238 N 0.60948 0.50364 0.14434 0.0
N239 N 0.49399 0.46566 0.14436 0.0
C240 C 0.54802 0.46742 0.20219 0.0
C241 C 0.61054 0.48806 0.20228 0.0
C242 C 0.10428 0.57802 0.32021 0.0
C243 C 0.04386 0.58076 0.26357 0.0
C244 C 0.1661 0.55802 0.31949 0.0
C245 C 0.16926 0.54021 0.26212 0.0
H246 H 0.10157 0.5881 0.36654 0.0
H247 H 0.20892 0.55351 0.36504 0.0
S248 S 0.03099 0.54582 0.09867 0.0
N249 N 0.9956 0.5691 0.14709 0.0
N250 N 0.11093 0.53187 0.14557 0.0
C251 C 0.11197 0.54634 0.20416 0.0
C252 C 0.04952 0.56656 0.2049 0.0
C253 C 0.45516 0.5788 0.71255 0.0
C254 C 0.51527 0.58086 0.76965 0.0
C255 C 0.39252 0.55913 0.71212 0.0
C256 C 0.38804 0.54109 0.76884 0.0
H257 H 0.45865 0.58914 0.66661 0.0
H258 H 0.35014 0.55497 0.66616 0.0
S259 S 0.52482 0.5449 0.9332 0.0
N260 N 0.56184 0.56824 0.88592 0.0
N261 N 0.44479 0.53167 0.88529 0.0
C262 C 0.445 0.54655 0.82731 0.0
C263 C 0.50843 0.56635 0.82771 0.0
C264 C 1.02765 1.00363 0.06752 0.0
C265 C 0.07344 0.03472 0.06439 0.0
C266 C 0.98253 0.98591 1.01079 0.0
C267 C 0.98187 0.99835 0.94888 0.0
H268 H 1.02542 0.99348 0.114 0.0
H269 H 0.94737 0.96248 0.01556 0.0
S270 S 0.09475 0.07722 0.91455 0.0
N271 N 0.11733 0.07653 0.99463 0.0
N272 N 0.0327 0.04284 0.88796 0.0
C273 C 1.02783 0.02923 0.94506 0.0
C274 C 0.0737 0.04741 1.00285 0.0
C275 C 0.5582 0.03785 0.06939 0.0
C276 C 0.56562 0.9963 0.07317 0.0
C277 C 0.51393 0.05617 0.01282 0.0
C278 C 0.47546 0.03364 0.9578 0.0
H279 H 0.58754 0.05648 0.11006 0.0
H280 H 0.51116 0.08835 1.01193 0.0
S281 S 0.47062 0.92354 0.9449 0.0
N282 N 0.52635 0.93285 0.01853 0.0
N283 N 0.44397 0.96745 0.91217 0.0
C284 C 0.48074 0.99201 0.96155 0.0
C285 C 0.52561 0.9733 0.01917 0.0
C286 C 0.56707 0.5469 0.51306 0.0
C287 C 0.57358 0.53142 0.5748 0.0
C288 C 0.52069 0.52983 0.45643 0.0
C289 C 0.47884 0.4967 0.45933 0.0
H290 H 0.59836 0.57233 0.50824 0.0
H291 H 0.5186 0.54241 0.41002 0.0
S292 S 0.47242 0.44641 0.60915 0.0
N293 N 0.53191 0.4821 0.63573 0.0
N294 N 0.44464 0.44987 0.52904 0.0
C295 C 0.48405 0.48116 0.52077 0.0
C296 C 0.53146 0.49854 0.57854 0.0
C297 C 0.07149 0.48701 0.51306 0.0
C298 C 0.07313 0.49966 0.57505 0.0
C299 C 1.02443 0.504 0.45667 0.0
C300 C 0.97741 0.53427 0.46026 0.0
H301 H 0.10722 0.46402 0.50798 0.0
H302 H 1.02608 0.49388 0.40998 0.0
S303 S 0.95678 0.57563 0.61085 0.0
N304 N 1.0209 0.54253 0.63686 0.0
N305 N 0.93287 0.57487 0.53066 0.0
C306 C 0.97767 0.54676 0.52194 0.0
C307 C 1.0255 0.52937 0.57939 0.0
C308 C 0.29566 0.0944 0.97971 0.0
C309 C 0.26505 0.12564 0.93645 0.0
C310 C 0.30042 0.09616 0.0455 0.0
C311 C 0.27472 0.1293 0.0701 0.0
H312 H 0.31764 0.06886 0.96288 0.0
H313 H 0.32301 0.07113 0.07685 0.0
S314 S 0.19291 0.21958 0.97644 0.0
N315 N 0.21149 0.19099 0.92266 0.0
N316 N 0.21882 0.19451 0.04557 0.0
C317 C 0.24429 0.16079 0.02692 0.0
C318 C 0.23996 0.15895 0.96031 0.0
C319 C 0.72271 0.91588 0.96514 0.0
C320 C 0.78423 0.90381 0.95291 0.0
C321 C 0.72123 0.9178 0.02882 0.0
C322 C 0.78165 0.90892 0.08287 0.0
H323 H 0.67503 0.92342 0.92532 0.0
H324 H 0.67208 0.92637 0.03561 0.0
S325 S 0.95661 0.87649 0.07835 0.0
N326 N 0.9078 0.88247 1.00116 0.0
N327 N 0.90457 0.88807 0.12073 0.0
C328 C 0.84392 0.89766 0.07188 0.0
C329 C 0.84522 0.89453 1.00691 0.0
C330 C 0.7839 0.65674 0.48354 0.0
C331 C 0.76529 0.62256 0.44406 0.0
C332 C 0.79301 0.65522 0.55004 0.0
C333 C 0.78626 0.61923 0.58009 0.0
H334 H 0.79219 0.68489 0.46285 0.0
H335 H 0.80488 0.68249 0.57815 0.0
S336 S 0.73792 0.52139 0.49902 0.0
N337 N 0.73977 0.55175 0.43994 0.0
N338 N 0.75785 0.54886 0.56563 0.0
C339 C 0.76741 0.58486 0.54145 0.0
C340 C 0.75664 0.58654 0.47324 0.0
C341 C 0.27675 0.44662 0.5427 0.0
C342 C 0.28764 0.4113 0.57946 0.0
C343 C 0.26579 0.44573 0.47536 0.0
C344 C 0.2655 0.40946 0.44295 0.0
H345 H 0.2748 0.47494 0.56577 0.0
H346 H 0.25998 0.47357 0.44904 0.0
S347 S 0.28922 0.3089 0.51711 0.0
N348 N 0.29491 0.33929 0.57818 0.0
N349 N 0.27629 0.3376 0.45265 0.0
C350 C 0.27593 0.37411 0.47936 0.0
C351 C 0.2864 0.37502 0.54729 0.0
C352 C 0.27676 0.11868 0.47326 0.0
C353 C 0.29422 0.08418 0.44536 0.0
C354 C 0.27238 0.11811 0.53643 0.0
C355 C 0.28584 0.08307 0.57419 0.0
H356 H 0.26383 0.14592 0.4452 0.0
H357 H 0.25801 0.14529 0.55559 0.0
S358 S 0.3402 0.98565 0.52447 0.0
N359 N 0.32908 1.01486 0.46102 0.0
N360 N 0.32201 1.01345 0.57925 0.0
C361 C 0.30579 0.04872 0.54714 0.0
C362 C 0.30967 0.04936 0.48293 0.0
C363 C 0.7522 0.98155 0.54058 0.0
C364 C 0.75598 0.94567 0.57477 0.0
C365 C 0.7614 0.98256 0.47975 0.0
C366 C 0.77551 0.94775 0.45028 0.0
H367 H 0.74317 1.00942 0.56154 0.0
H368 H 0.75786 1.01115 0.45592 0.0
S369 S 0.78856 0.84567 0.51863 0.0
N370 N 0.77324 0.87412 0.57429 0.0
N371 N 0.79028 0.87586 0.45931 0.0
C372 C 0.77825 0.9114 0.48337 0.0
C373 C 0.76827 0.91038 0.54553 0.0
C374 C 0.77573 0.61506 0.98 0.0
C375 C 0.79536 0.58075 0.95317 0.0
C376 C 0.76734 0.6141 0.04173 0.0
C377 C 0.77857 0.57881 0.07882 0.0
H378 H 0.76425 0.64241 0.95214 0.0
H379 H 0.75201 0.64117 0.06042 0.0
S380 S 0.83557 0.48153 0.03097 0.0
N381 N 0.82925 0.51129 0.96914 0.0
N382 N 0.81358 0.50897 0.08398 0.0
C383 C 0.8 0.54458 0.05259 0.0
C384 C 0.80841 0.54569 0.99019 0.0
C385 C 0.27422 0.41762 0.97922 0.0
C386 C 0.29731 0.45119 0.95315 0.0
C387 C 0.26526 0.41915 0.0407 0.0
C388 C 0.27931 0.45428 0.07829 0.0
H389 H 0.26022 0.39054 0.95084 0.0
H390 H 0.24693 0.39268 0.05867 0.0
S391 S 0.34683 0.54938 0.03275 0.0
N392 N 0.33787 0.51958 0.97044 0.0
N393 N 0.32174 0.5229 0.08508 0.0
C394 C 0.30472 0.48763 0.05302 0.0
C395 C 0.31355 0.48596 0.99078 0.0
C396 C 0.31857 0.24333 0.29961 0.0
C397 C 0.25116 0.22783 0.26327 0.0
C398 C 0.33699 0.28313 0.29346 0.0
C399 C 0.28878 0.30911 0.25039 0.0
H400 H 0.35802 0.22423 0.33264 0.0
H401 H 0.38851 0.29384 0.324 0.0
S402 S 0.10714 0.28315 0.14111 0.0
N403 N 0.13733 0.24148 0.18073 0.0
N404 N 0.17132 0.31625 0.16923 0.0
C405 C 0.22142 0.29393 0.2133 0.0
C406 C 0.20263 0.25345 0.21984 0.0
C407 C 0.24047 0.24391 0.71993 0.0
C408 C 0.30767 0.22845 0.75677 0.0
C409 C 0.22143 0.28336 0.72706 0.0
C410 C 0.26892 0.30908 0.77132 0.0
H411 H 0.20153 0.22504 0.68576 0.0
H412 H 0.17011 0.29406 0.69619 0.0
S413 S 0.45033 0.28356 0.88108 0.0
N414 N 0.42088 0.24207 0.84043 0.0
N415 N 0.38584 0.31639 0.85337 0.0
C416 C 0.33625 0.2941 0.80858 0.0
C417 C 0.35561 0.25389 0.80126 0.0
C418 C 0.71802 0.74836 0.72678 0.0
C419 C 0.76672 0.72287 0.77034 0.0
C420 C 0.7359 0.78807 0.7196 0.0
C421 C 0.80313 0.8039 0.75553 0.0
H422 H 0.66651 0.73734 0.69673 0.0
H423 H 0.69607 0.8069 0.6864 0.0
S424 S 0.94859 0.74968 0.87794 0.0
N425 N 0.88467 0.71632 0.8509 0.0
N426 N 0.91765 0.79104 0.83764 0.0
C427 C 0.85231 0.7787 0.79915 0.0
C428 C 0.83409 0.7383 0.80667 0.0
C429 C 0.72753 0.74022 0.22443 0.0
C430 C 0.79552 0.72473 0.25885 0.0
C431 C 0.70966 0.77999 0.2315 0.0
C432 C 0.75901 0.80598 0.27357 0.0
H433 H 0.68733 0.72123 0.19189 0.0
H434 H 0.6577 0.79071 0.20222 0.0
S435 S 0.94244 0.78012 0.37836 0.0
N436 N 0.9111 0.73852 0.33889 0.0
N437 N 0.87796 0.81308 0.35227 0.0
C438 C 0.82677 0.79077 0.3091 0.0
C439 C 0.84505 0.75036 0.30158 0.0
loop_
_geom_bond_atom_site_label_1
_geom_bond_atom_site_label_2
_geom_bond_distance
_geom_bond_site_symmetry_2
_ccdc_geom_bond_type
Fe0 O2 1.918 . S
Fe0 O5 1.997 . S
Fe0 O6 2.002 . S
Fe0 O11 1.976 . S
Fe0 O14 1.996 . S
Fe1 O2 1.918 . S
Fe1 O9 1.997 . S
Fe1 O12 1.996 . S
Fe1 O16 1.976 . S
Fe1 O19 2.002 . S
O2 Fe0 1.918 . S
O2 Fe1 1.918 . S
O2 Fe3 1.918 . S
Fe3 O2 1.918 . S
Fe3 O4 2.002 . S
Fe3 O13 1.976 . S
Fe3 O17 1.996 . S
Fe3 O20 1.997 . S
O4 Fe3 2.002 . S
O4 C21 1.295 . S
O5 Fe0 1.997 . S
O5 C21 1.235 . S
O6 Fe0 2.002 . S
O6 C7 1.295 . S
C7 O6 1.295 . S
C7 O9 1.235 . S
C8 O13 1.287 . S
C8 O14 1.255 . S
O9 Fe1 1.997 . S
O9 C7 1.235 . S
C10 O16 1.287 . S
C10 O17 1.255 . S
O11 Fe0 1.976 . S
O11 C18 1.287 . S
O12 Fe1 1.996 . S
O12 C18 1.255 . S
O13 Fe3 1.976 . S
O13 C8 1.287 . S
O14 Fe0 1.996 . S
O14 C8 1.255 . S
C15 O19 1.295 . S
C15 O20 1.235 . S
O16 Fe1 1.976 . S
O16 C10 1.287 . S
O17 Fe3 1.996 . S
O17 C10 1.255 . S
C18 O11 1.287 . S
C18 O12 1.255 . S
O19 Fe1 2.002 . S
O19 C15 1.295 . S
O20 Fe3 1.997 . S
O20 C15 1.235 . S
C21 O4 1.295 . S
C21 O5 1.235 . S
Fe22 O24 1.918 . S
Fe22 O27 1.997 . S
Fe22 O28 2.002 . S
Fe22 O33 1.976 . S
Fe22 O36 1.996 . S
Fe23 O24 1.918 . S
Fe23 O31 1.997 . S
Fe23 O34 1.996 . S
Fe23 O38 1.976 . S
Fe23 O41 2.002 . S
O24 Fe22 1.918 . S
O24 Fe23 1.918 . S
O24 Fe25 1.918 . S
Fe25 O24 1.918 . S
Fe25 O26 2.002 . S
Fe25 O35 1.976 . S
Fe25 O39 1.996 . S
Fe25 O42 1.997 . S
O26 Fe25 2.002 . S
O26 C43 1.295 . S
O27 Fe22 1.997 . S
O27 C43 1.235 . S
O28 Fe22 2.002 . S
O28 C29 1.295 . S
C29 O28 1.295 . S
C29 O31 1.235 . S
C30 O35 1.287 . S
C30 O36 1.255 . S
O31 Fe23 1.997 . S
O31 C29 1.235 . S
C32 O38 1.287 . S
C32 O39 1.255 . S
O33 Fe22 1.976 . S
O33 C40 1.287 . S
O34 Fe23 1.996 . S
O34 C40 1.255 . S
O35 Fe25 1.976 . S
O35 C30 1.287 . S
O36 Fe22 1.996 . S
O36 C30 1.255 . S
C37 O41 1.295 . S
C37 O42 1.235 . S
O38 Fe23 1.976 . S
O38 C32 1.287 . S
O39 Fe25 1.996 . S
O39 C32 1.255 . S
C40 O33 1.287 . S
C40 O34 1.255 . S
O41 Fe23 2.002 . S
O41 C37 1.295 . S
O42 Fe25 1.997 . S
O42 C37 1.235 . S
C43 O26 1.295 . S
C43 O27 1.235 . S
Fe44 O46 1.918 . S
Fe44 O49 1.997 . S
Fe44 O50 2.002 . S
Fe44 O55 1.976 . S
Fe44 O58 1.996 . S
Fe45 O46 1.918 . S
Fe45 O53 1.997 . S
Fe45 O56 1.996 . S
Fe45 O60 1.976 . S
Fe45 O63 2.002 . S
O46 Fe44 1.918 . S
O46 Fe45 1.918 . S
O46 Fe47 1.918 . S
Fe47 O46 1.918 . S
Fe47 O48 2.002 . S
Fe47 O57 1.976 . S
Fe47 O61 1.996 . S
Fe47 O64 1.997 . S
O48 Fe47 2.002 . S
O48 C65 1.295 . S
O49 Fe44 1.997 . S
O49 C65 1.235 . S
O50 Fe44 2.002 . S
O50 C51 1.295 . S
C51 O50 1.295 . S
C51 O53 1.235 . S
C52 O57 1.287 . S
C52 O58 1.255 . S
O53 Fe45 1.997 . S
O53 C51 1.235 . S
C54 O60 1.287 . S
C54 O61 1.255 . S
O55 Fe44 1.976 . S
O55 C62 1.287 . S
O56 Fe45 1.996 . S
O56 C62 1.255 . S
O57 Fe47 1.976 . S
O57 C52 1.287 . S
O58 Fe44 1.996 . S
O58 C52 1.255 . S
C59 O63 1.295 . S
C59 O64 1.235 . S
O60 Fe45 1.976 . S
O60 C54 1.287 . S
O61 Fe47 1.996 . S
O61 C54 1.255 . S
C62 O55 1.287 . S
C62 O56 1.255 . S
O63 Fe45 2.002 . S
O63 C59 1.295 . S
O64 Fe47 1.997 . S
O64 C59 1.235 . S
C65 O48 1.295 . S
C65 O49 1.235 . S
Fe66 O68 1.918 . S
Fe66 O71 1.997 . S
Fe66 O72 2.002 . S
Fe66 O77 1.976 . S
Fe66 O80 1.996 . S
Fe67 O68 1.918 . S
Fe67 O75 1.997 . S
Fe67 O78 1.996 . S
Fe67 O82 1.976 . S
Fe67 O85 2.002 . S
O68 Fe66 1.918 . S
O68 Fe67 1.918 . S
O68 Fe69 1.918 . S
Fe69 O68 1.918 . S
Fe69 O70 2.002 . S
Fe69 O79 1.976 . S
Fe69 O83 1.996 . S
Fe69 O86 1.997 . S
O70 Fe69 2.002 . S
O70 C87 1.295 . S
O71 Fe66 1.997 . S
O71 C87 1.235 . S
O72 Fe66 2.002 . S
O72 C73 1.295 . S
C73 O72 1.295 . S
C73 O75 1.235 . S
C74 O79 1.287 . S
C74 O80 1.255 . S
O75 Fe67 1.997 . S
O75 C73 1.235 . S
C76 O82 1.287 . S
C76 O83 1.255 . S
O77 Fe66 1.976 . S
O77 C84 1.287 . S
O78 Fe67 1.996 . S
O78 C84 1.255 . S
O79 Fe69 1.976 . S
O79 C74 1.287 . S
O80 Fe66 1.996 . S
O80 C74 1.255 . S
C81 O85 1.295 . S
C81 O86 1.235 . S
O82 Fe67 1.976 . S
O82 C76 1.287 . S
O83 Fe69 1.996 . S
O83 C76 1.255 . S
C84 O77 1.287 . S
C84 O78 1.255 . S
O85 Fe67 2.002 . S
O85 C81 1.295 . S
O86 Fe69 1.997 . S
O86 C81 1.235 . S
C87 O70 1.295 . S
C87 O71 1.235 . S
Fe88 O90 1.918 . S
Fe88 O93 1.997 . S
Fe88 O94 2.002 . S
Fe88 O99 1.976 . S
Fe88 O102 1.996 . S
Fe89 O90 1.918 . S
Fe89 O97 1.997 . S
Fe89 O100 1.996 . S
Fe89 O104 1.976 . S
Fe89 O107 2.002 . S
O90 Fe88 1.918 . S
O90 Fe89 1.918 . S
O90 Fe91 1.918 . S
Fe91 O90 1.918 . S
Fe91 O92 2.002 . S
Fe91 O101 1.976 . S
Fe91 O105 1.996 . S
Fe91 O108 1.997 . S
O92 Fe91 2.002 . S
O92 C109 1.295 . S
O93 Fe88 1.997 . S
O93 C109 1.235 . S
O94 Fe88 2.002 . S
O94 C95 1.295 . S
C95 O94 1.295 . S
C95 O97 1.235 . S
C96 O101 1.287 . S
C96 O102 1.255 . S
O97 Fe89 1.997 . S
O97 C95 1.235 . S
C98 O104 1.287 . S
C98 O105 1.255 . S
O99 Fe88 1.976 . S
O99 C106 1.287 . S
O100 Fe89 1.996 . S
O100 C106 1.255 . S
O101 Fe91 1.976 . S
O101 C96 1.287 . S
O102 Fe88 1.996 . S
O102 C96 1.255 . S
C103 O107 1.295 . S
C103 O108 1.235 . S
O104 Fe89 1.976 . S
O104 C98 1.287 . S
O105 Fe91 1.996 . S
O105 C98 1.255 . S
C106 O99 1.287 . S
C106 O100 1.255 . S
O107 Fe89 2.002 . S
O107 C103 1.295 . S
O108 Fe91 1.997 . S
O108 C103 1.235 . S
C109 O92 1.295 . S
C109 O93 1.235 . S
Fe110 O112 1.918 . S
Fe110 O115 1.997 . S
Fe110 O116 2.002 . S
Fe110 O121 1.976 . S
Fe110 O124 1.996 . S
Fe111 O112 1.918 . S
Fe111 O119 1.997 . S
Fe111 O122 1.996 . S
Fe111 O126 1.976 . S
Fe111 O129 2.002 . S
O112 Fe110 1.918 . S
O112 Fe111 1.918 . S
O112 Fe113 1.918 . S
Fe113 O112 1.918 . S
Fe113 O114 2.002 . S
Fe113 O123 1.976 . S
Fe113 O127 1.996 . S
Fe113 O130 1.997 . S
O114 Fe113 2.002 . S
O114 C131 1.295 . S
O115 Fe110 1.997 . S
O115 C131 1.235 . S
O116 Fe110 2.002 . S
O116 C117 1.295 . S
C117 O116 1.295 . S
C117 O119 1.235 . S
C118 O123 1.287 . S
C118 O124 1.255 . S
O119 Fe111 1.997 . S
O119 C117 1.235 . S
C120 O126 1.287 . S
C120 O127 1.255 . S
O121 Fe110 1.976 . S
O121 C128 1.287 . S
O122 Fe111 1.996 . S
O122 C128 1.255 . S
O123 Fe113 1.976 . S
O123 C118 1.287 . S
O124 Fe110 1.996 . S
O124 C118 1.255 . S
C125 O129 1.295 . S
C125 O130 1.235 . S
O126 Fe111 1.976 . S
O126 C120 1.287 . S
O127 Fe113 1.996 . S
O127 C120 1.255 . S
C128 O121 1.287 . S
C128 O122 1.255 . S
O129 Fe111 2.002 . S
O129 C125 1.295 . S
O130 Fe113 1.997 . S
O130 C125 1.235 . S
C131 O114 1.295 . S
C131 O115 1.235 . S
Fe132 O134 1.918 . S
Fe132 O137 1.997 . S
Fe132 O138 2.002 . S
Fe132 O143 1.976 . S
Fe132 O146 1.996 . S
Fe133 O134 1.918 . S
Fe133 O141 1.997 . S
Fe133 O144 1.996 . S
Fe133 O148 1.976 . S
Fe133 O151 2.002 . S
O134 Fe132 1.918 . S
O134 Fe133 1.918 . S
O134 Fe135 1.918 . S
Fe135 O134 1.918 . S
Fe135 O136 2.002 . S
Fe135 O145 1.976 . S
Fe135 O149 1.996 . S
Fe135 O152 1.997 . S
O136 Fe135 2.002 . S
O136 C153 1.295 . S
O137 Fe132 1.997 . S
O137 C153 1.235 . S
O138 Fe132 2.002 . S
O138 C139 1.295 . S
C139 O138 1.295 . S
C139 O141 1.235 . S
C140 O145 1.287 . S
C140 O146 1.255 . S
O141 Fe133 1.997 . S
O141 C139 1.235 . S
C142 O148 1.287 . S
C142 O149 1.255 . S
O143 Fe132 1.976 . S
O143 C150 1.287 . S
O144 Fe133 1.996 . S
O144 C150 1.255 . S
O145 Fe135 1.976 . S
O145 C140 1.287 . S
O146 Fe132 1.996 . S
O146 C140 1.255 . S
C147 O151 1.295 . S
C147 O152 1.235 . S
O148 Fe133 1.976 . S
O148 C142 1.287 . S
O149 Fe135 1.996 . S
O149 C142 1.255 . S
C150 O143 1.287 . S
C150 O144 1.255 . S
O151 Fe133 2.002 . S
O151 C147 1.295 . S
O152 Fe135 1.997 . S
O152 C147 1.235 . S
C153 O136 1.295 . S
C153 O137 1.235 . S
Fe154 O156 1.918 . S
Fe154 O159 1.997 . S
Fe154 O160 2.002 . S
Fe154 O165 1.976 . S
Fe154 O168 1.996 . S
Fe155 O156 1.918 . S
Fe155 O163 1.997 . S
Fe155 O166 1.996 . S
Fe155 O170 1.976 . S
Fe155 O173 2.002 . S
O156 Fe154 1.918 . S
O156 Fe155 1.918 . S
O156 Fe157 1.918 . S
Fe157 O156 1.918 . S
Fe157 O158 2.002 . S
Fe157 O167 1.976 . S
Fe157 O171 1.996 . S
Fe157 O174 1.997 . S
O158 Fe157 2.002 . S
O158 C175 1.295 . S
O159 Fe154 1.997 . S
O159 C175 1.235 . S
O160 Fe154 2.002 . S
O160 C161 1.295 . S
C161 O160 1.295 . S
C161 O163 1.235 . S
C162 O167 1.287 . S
C162 O168 1.255 . S
O163 Fe155 1.997 . S
O163 C161 1.235 . S
C164 O170 1.287 . S
C164 O171 1.255 . S
O165 Fe154 1.976 . S
O165 C172 1.287 . S
O166 Fe155 1.996 . S
O166 C172 1.255 . S
O167 Fe157 1.976 . S
O167 C162 1.287 . S
O168 Fe154 1.996 . S
O168 C162 1.255 . S
C169 O173 1.295 . S
C169 O174 1.235 . S
O170 Fe155 1.976 . S
O170 C164 1.287 . S
O171 Fe157 1.996 . S
O171 C164 1.255 . S
C172 O165 1.287 . S
C172 O166 1.255 . S
O173 Fe155 2.002 . S
O173 C169 1.295 . S
O174 Fe157 1.997 . S
O174 C169 1.235 . S
C175 O158 1.295 . S
C175 O159 1.235 . S
C176 C177 1.369 . S
C176 C178 1.419 . S
C176 H180 0.930 . S
C177 C176 1.369 . S
C177 C186 1.429 . S
C178 C176 1.419 . S
C178 C179 1.363 . S
C178 H181 0.929 1_565 S
C179 C178 1.363 . S
C179 C185 1.428 . S
H180 C176 0.930 . S
H181 C178 0.929 1_545 S
S182 N183 1.613 . S
S182 N184 1.610 . S
N183 S182 1.613 . S
N183 C186 1.350 . S
N184 S182 1.610 . S
N184 C185 1.351 . S
C185 C179 1.428 . S
C185 N184 1.351 . S
C185 C186 1.434 . S
C186 C177 1.429 . S
C186 N183 1.350 . S
C186 C185 1.434 . S
C187 C188 1.369 . S
C187 C189 1.419 . S
C187 H191 0.930 . S
C188 C187 1.369 . S
C188 C197 1.429 . S
C189 C187 1.419 . S
C189 C190 1.363 . S
C189 H192 0.929 . S
C190 C189 1.363 . S
C190 C196 1.428 1_565 S
H191 C187 0.930 . S
H192 C189 0.929 . S
S193 N194 1.613 . S
S193 N195 1.610 1_655 S
N194 S193 1.613 . S
N194 C197 1.350 1_645 S
N195 S193 1.610 1_455 S
N195 C196 1.351 . S
C196 C190 1.428 1_545 S
C196 N195 1.351 . S
C196 C197 1.434 1_545 S
C197 C188 1.429 . S
C197 N194 1.350 1_465 S
C197 C196 1.434 1_565 S
C198 C199 1.369 . S
C198 C200 1.419 . S
C198 H202 0.930 . S
C199 C198 1.369 . S
C199 C208 1.429 1_545 S
C200 C198 1.419 . S
C200 C201 1.363 . S
C200 H203 0.929 . S
C201 C200 1.363 . S
C201 C207 1.428 . S
H202 C198 0.930 . S
H203 C200 0.929 . S
S204 N205 1.613 . S
S204 N206 1.619 . S
N205 S204 1.613 . S
N205 C208 1.350 . S
N206 S204 1.619 . S
N206 C207 1.347 1_565 S
C207 C201 1.428 . S
C207 N206 1.347 1_545 S
C207 C208 1.434 1_545 S
C208 C199 1.429 1_565 S
C208 N205 1.350 . S
C208 C207 1.434 1_565 S
C209 C210 1.369 . S
C209 C211 1.419 . S
C209 H213 0.930 . S
C210 C209 1.369 . S
C210 C219 1.429 . S
C211 C209 1.419 . S
C211 C212 1.363 . S
C211 H214 0.929 . S
C212 C211 1.363 . S
C212 C218 1.428 . S
H213 C209 0.930 . S
H214 C211 0.929 . S
S215 N216 1.613 1_455 S
S215 N217 1.610 1_565 S
N216 S215 1.613 1_655 S
N216 C219 1.350 1_565 S
N217 S215 1.610 1_545 S
N217 C218 1.351 1_455 S
C218 C212 1.428 . S
C218 N217 1.351 1_655 S
C218 C219 1.434 . S
C219 C210 1.429 . S
C219 N216 1.350 1_545 S
C219 C218 1.434 . S
C220 C221 1.369 . S
C220 C222 1.419 . S
C220 H224 0.930 1_655 S
C221 C220 1.369 . S
C221 C230 1.429 . S
C222 C220 1.419 . S
C222 C223 1.363 . S
C222 H225 0.929 . S
C223 C222 1.363 . S
C223 C229 1.428 . S
H224 C220 0.930 1_455 S
H225 C222 0.929 . S
S226 N227 1.613 . S
S226 N228 1.610 . S
N227 S226 1.613 . S
N227 C230 1.350 . S
N228 S226 1.610 . S
N228 C229 1.351 . S
C229 C223 1.428 . S
C229 N228 1.351 . S
C229 C230 1.434 . S
C230 C221 1.429 . S
C230 N227 1.350 . S
C230 C229 1.434 . S
C231 C232 1.369 . S
C231 C233 1.419 . S
C231 H235 0.930 . S
C232 C231 1.369 . S
C232 C241 1.429 . S
C233 C231 1.419 . S
C233 C234 1.363 . S
C233 H236 0.929 . S
C234 C233 1.363 . S
C234 C240 1.428 . S
H235 C231 0.930 . S
H236 C233 0.929 . S
S237 N238 1.613 . S
S237 N239 1.610 . S
N238 S237 1.613 . S
N238 C241 1.350 . S
N239 S237 1.610 . S
N239 C240 1.351 . S
C240 C234 1.428 . S
C240 N239 1.351 . S
C240 C241 1.434 . S
C241 C232 1.429 . S
C241 N238 1.350 . S
C241 C240 1.434 . S
C242 C243 1.369 . S
C242 C244 1.419 . S
C242 H246 0.930 . S
C243 C242 1.369 . S
C243 C252 1.429 . S
C244 C242 1.419 . S
C244 C245 1.363 . S
C244 H247 0.929 . S
C245 C244 1.363 . S
C245 C251 1.428 . S
H246 C242 0.930 . S
H247 C244 0.929 . S
S248 N249 1.613 . S
S248 N250 1.610 1_655 S
N249 S248 1.613 . S
N249 C252 1.350 1_655 S
N250 S248 1.610 1_455 S
N250 C251 1.351 . S
C251 C245 1.428 . S
C251 N250 1.351 . S
C251 C252 1.434 . S
C252 C243 1.429 . S
C252 N249 1.350 1_455 S
C252 C251 1.434 . S
C253 C254 1.369 . S
C253 C255 1.419 . S
C253 H257 0.930 . S
C254 C253 1.369 . S
C254 C263 1.429 . S
C255 C253 1.419 . S
C255 C256 1.363 . S
C255 H258 0.929 . S
C256 C255 1.363 . S
C256 C262 1.428 . S
H257 C253 0.930 . S
H258 C255 0.929 . S
S259 N260 1.613 . S
S259 N261 1.610 . S
N260 S259 1.613 . S
N260 C263 1.350 . S
N261 S259 1.610 . S
N261 C262 1.351 . S
C262 C256 1.428 . S
C262 N261 1.351 . S
C262 C263 1.434 . S
C263 C254 1.429 . S
C263 N260 1.350 . S
C263 C262 1.434 . S
C264 C265 1.369 1_565 S
C264 C266 1.419 1_454 S
C264 H268 0.930 . S
C265 C264 1.369 1_545 S
C265 C274 1.429 . S
C266 C264 1.419 1_656 S
C266 C267 1.363 . S
C266 H269 0.929 . S
C267 C266 1.363 . S
C267 C273 1.428 1_565 S
H268 C264 0.930 . S
H269 C266 0.929 . S
S270 N271 1.613 1_556 S
S270 N272 1.610 1_455 S
N271 S270 1.613 1_554 S
N271 C274 1.350 . S
N272 S270 1.610 1_655 S
N272 C273 1.351 . S
C273 C267 1.428 1_545 S
C273 N272 1.351 . S
C273 C274 1.434 1_656 S
C274 C265 1.429 . S
C274 N271 1.350 . S
C274 C273 1.434 1_454 S
C275 C276 1.369 1_545 S
C275 C277 1.419 1_554 S
C275 H279 0.930 . S
C276 C275 1.369 1_565 S
C276 C285 1.429 . S
C277 C275 1.419 1_556 S
C277 C278 1.363 . S
C277 H280 0.929 . S
C278 C277 1.363 . S
C278 C284 1.428 1_545 S
H279 C275 0.930 . S
H280 C277 0.929 . S
S281 N282 1.613 . S
S281 N283 1.610 1_554 S
N282 S281 1.613 . S
N282 C285 1.350 . S
N283 S281 1.610 1_556 S
N283 C284 1.351 . S
C284 C278 1.428 1_565 S
C284 N283 1.351 . S
C284 C285 1.434 1_556 S
C285 C276 1.429 . S
C285 N282 1.350 . S
C285 C284 1.434 1_554 S
C286 C287 1.369 . S
C286 C288 1.419 . S
C286 H290 0.930 . S
C287 C286 1.369 . S
C287 C296 1.429 . S
C288 C286 1.419 . S
C288 C289 1.363 . S
C288 H291 0.929 . S
C289 C288 1.363 . S
C289 C295 1.428 . S
H290 C286 0.930 . S
H291 C288 0.929 . S
S292 N293 1.613 . S
S292 N294 1.610 . S
N293 S292 1.613 . S
N293 C296 1.350 . S
N294 S292 1.610 . S
N294 C295 1.351 . S
C295 C289 1.428 . S
C295 N294 1.351 . S
C295 C296 1.434 . S
C296 C287 1.429 . S
C296 N293 1.350 . S
C296 C295 1.434 . S
C297 C298 1.369 . S
C297 C299 1.419 1_455 S
C297 H301 0.930 . S
C298 C297 1.369 . S
C298 C307 1.429 . S
C299 C297 1.419 1_655 S
C299 C300 1.363 . S
C299 H302 0.929 . S
C300 C299 1.363 . S
C300 C306 1.428 . S
H301 C297 0.930 . S
H302 C299 0.929 . S
S303 N304 1.613 1_655 S
S303 N305 1.610 . S
N304 S303 1.613 1_455 S
N304 C307 1.350 . S
N305 S303 1.610 . S
N305 C306 1.351 . S
C306 C300 1.428 . S
C306 N305 1.351 . S
C306 C307 1.434 1_655 S
C307 C298 1.429 . S
C307 N304 1.350 . S
C307 C306 1.434 1_455 S
C308 C309 1.369 . S
C308 C310 1.419 1_556 S
C308 H312 0.930 . S
C309 C308 1.369 . S
C309 C318 1.429 . S
C310 C308 1.419 1_554 S
C310 C311 1.363 . S
C310 H313 0.929 . S
C311 C310 1.363 . S
C311 C317 1.428 . S
H312 C308 0.930 . S
H313 C310 0.929 . S
S314 N315 1.613 . S
S314 N316 1.610 1_556 S
N315 S314 1.613 . S
N315 C318 1.350 . S
N316 S314 1.610 1_554 S
N316 C317 1.351 . S
C317 C311 1.428 . S
C317 N316 1.351 . S
C317 C318 1.434 1_554 S
C318 C309 1.429 . S
C318 N315 1.350 . S
C318 C317 1.434 1_556 S
C319 C320 1.369 . S
C319 C321 1.419 1_556 S
C319 H323 0.930 . S
C320 C319 1.369 . S
C320 C329 1.429 . S
C321 C319 1.419 1_554 S
C321 C322 1.363 . S
C321 H324 0.929 . S
C322 C321 1.363 . S
C322 C328 1.428 . S
H323 C319 0.930 . S
H324 C321 0.929 . S
S325 N326 1.613 1_554 S
S325 N327 1.610 . S
N326 S325 1.613 1_556 S
N326 C329 1.350 . S
N327 S325 1.610 . S
N327 C328 1.351 . S
C328 C322 1.428 . S
C328 N327 1.351 . S
C328 C329 1.434 1_554 S
C329 C320 1.429 . S
C329 N326 1.350 . S
C329 C328 1.434 1_556 S
C330 C331 1.369 . S
C330 C332 1.419 . S
C330 H334 0.930 . S
C331 C330 1.369 . S
C331 C340 1.429 . S
C332 C330 1.419 . S
C332 C333 1.363 . S
C332 H335 0.929 . S
C333 C332 1.363 . S
C333 C339 1.428 . S
H334 C330 0.930 . S
H335 C332 0.929 . S
S336 N337 1.613 . S
S336 N338 1.610 . S
N337 S336 1.613 . S
N337 C340 1.350 . S
N338 S336 1.610 . S
N338 C339 1.351 . S
C339 C333 1.428 . S
C339 N338 1.351 . S
C339 C340 1.434 . S
C340 C331 1.429 . S
C340 N337 1.350 . S
C340 C339 1.434 . S
C341 C342 1.369 . S
C341 C343 1.419 . S
C341 H345 0.930 . S
C342 C341 1.369 . S
C342 C351 1.429 . S
C343 C341 1.419 . S
C343 C344 1.363 . S
C343 H346 0.929 . S
C344 C343 1.363 . S
C344 C350 1.428 . S
H345 C341 0.930 . S
H346 C343 0.929 . S
S347 N348 1.613 . S
S347 N349 1.610 . S
N348 S347 1.613 . S
N348 C351 1.350 . S
N349 S347 1.610 . S
N349 C350 1.351 . S
C350 C344 1.428 . S
C350 N349 1.351 . S
C350 C351 1.434 . S
C351 C342 1.429 . S
C351 N348 1.350 . S
C351 C350 1.434 . S
C352 C353 1.369 . S
C352 C354 1.419 . S
C352 H356 0.930 . S
C353 C352 1.369 . S
C353 C362 1.429 . S
C354 C352 1.419 . S
C354 C355 1.363 . S
C354 H357 0.929 . S
C355 C354 1.363 . S
C355 C361 1.428 . S
H356 C352 0.930 . S
H357 C354 0.929 . S
S358 N359 1.613 1_565 S
S358 N360 1.610 1_565 S
N359 S358 1.613 1_545 S
N359 C362 1.350 . S
N360 S358 1.610 1_545 S
N360 C361 1.351 . S
C361 C355 1.428 . S
C361 N360 1.351 . S
C361 C362 1.434 . S
C362 C353 1.429 . S
C362 N359 1.350 . S
C362 C361 1.434 . S
C363 C364 1.369 . S
C363 C365 1.419 . S
C363 H367 0.930 . S
C364 C363 1.369 . S
C364 C373 1.429 . S
C365 C363 1.419 . S
C365 C366 1.363 . S
C365 H368 0.929 . S
C366 C365 1.363 . S
C366 C372 1.428 . S
H367 C363 0.930 . S
H368 C365 0.929 . S
S369 N370 1.613 . S
S369 N371 1.610 . S
N370 S369 1.613 . S
N370 C373 1.350 . S
N371 S369 1.610 . S
N371 C372 1.351 . S
C372 C366 1.428 . S
C372 N371 1.351 . S
C372 C373 1.434 . S
C373 C364 1.429 . S
C373 N370 1.350 . S
C373 C372 1.434 . S
C374 C375 1.369 . S
C374 C376 1.419 1_556 S
C374 H378 0.930 . S
C375 C374 1.369 . S
C375 C384 1.429 . S
C376 C374 1.419 1_554 S
C376 C377 1.363 . S
C376 H379 0.929 . S
C377 C376 1.363 . S
C377 C383 1.428 . S
H378 C374 0.930 . S
H379 C376 0.929 . S
S380 N381 1.613 1_554 S
S380 N382 1.610 . S
N381 S380 1.613 1_556 S
N381 C384 1.350 . S
N382 S380 1.610 . S
N382 C383 1.351 . S
C383 C377 1.428 . S
C383 N382 1.351 . S
C383 C384 1.434 1_554 S
C384 C375 1.429 . S
C384 N381 1.350 . S
C384 C383 1.434 1_556 S
C385 C386 1.369 . S
C385 C387 1.419 1_556 S
C385 H389 0.930 . S
C386 C385 1.369 . S
C386 C395 1.429 . S
C387 C385 1.419 1_554 S
C387 C388 1.363 . S
C387 H390 0.929 . S
C388 C387 1.363 . S
C388 C394 1.428 . S
H389 C385 0.930 . S
H390 C387 0.929 . S
S391 N392 1.613 . S
S391 N393 1.610 1_556 S
N392 S391 1.613 . S
N392 C395 1.350 . S
N393 S391 1.610 1_554 S
N393 C394 1.351 . S
C394 C388 1.428 . S
C394 N393 1.351 . S
C394 C395 1.434 1_554 S
C395 C386 1.429 . S
C395 N392 1.350 . S
C395 C394 1.434 1_556 S
C396 C397 1.369 . S
C396 C398 1.419 . S
C396 H400 0.930 . S
C397 C396 1.369 . S
C397 C406 1.429 . S
C398 C396 1.419 . S
C398 C399 1.363 . S
C398 H401 0.929 . S
C399 C398 1.363 . S
C399 C405 1.428 . S
H400 C396 0.930 . S
H401 C398 0.929 . S
S402 N403 1.613 . S
S402 N404 1.610 . S
N403 S402 1.613 . S
N403 C406 1.350 . S
N404 S402 1.610 . S
N404 C405 1.351 . S
C405 C399 1.428 . S
C405 N404 1.351 . S
C405 C406 1.434 . S
C406 C397 1.429 . S
C406 N403 1.350 . S
C406 C405 1.434 . S
C407 C408 1.369 . S
C407 C409 1.419 . S
C407 H411 0.930 . S
C408 C407 1.369 . S
C408 C417 1.429 . S
C409 C407 1.419 . S
C409 C410 1.363 . S
C409 H412 0.929 . S
C410 C409 1.363 . S
C410 C416 1.428 . S
H411 C407 0.930 . S
H412 C409 0.929 . S
S413 N414 1.613 . S
S413 N415 1.610 . S
N414 S413 1.613 . S
N414 C417 1.350 . S
N415 S413 1.610 . S
N415 C416 1.351 . S
C416 C410 1.428 . S
C416 N415 1.351 . S
C416 C417 1.434 . S
C417 C408 1.429 . S
C417 N414 1.350 . S
C417 C416 1.434 . S
C418 C419 1.369 . S
C418 C420 1.419 . S
C418 H422 0.930 . S
C419 C418 1.369 . S
C419 C428 1.429 . S
C420 C418 1.419 . S
C420 C421 1.363 . S
C420 H423 0.929 . S
C421 C420 1.363 . S
C421 C427 1.428 . S
H422 C418 0.930 . S
H423 C420 0.929 . S
S424 N425 1.613 . S
S424 N426 1.610 . S
N425 S424 1.613 . S
N425 C428 1.350 . S
N426 S424 1.610 . S
N426 C427 1.351 . S
C427 C421 1.428 . S
C427 N426 1.351 . S
C427 C428 1.434 . S
C428 C419 1.429 . S
C428 N425 1.350 . S
C428 C427 1.434 . S
C429 C430 1.369 . S
C429 C431 1.419 . S
C429 H433 0.930 . S
C430 C429 1.369 . S
C430 C439 1.429 . S
C431 C429 1.419 . S
C431 C432 1.363 . S
C431 H434 0.929 . S
C432 C431 1.363 . S
C432 C438 1.428 . S
H433 C429 0.930 . S
H434 C431 0.929 . S
S435 N436 1.613 . S
S435 N437 1.610 . S
N436 S435 1.613 . S
N436 C439 1.350 . S
N437 S435 1.610 . S
N437 C438 1.351 . S
C438 C432 1.428 . S
C438 N437 1.351 . S
C438 C439 1.434 . S
C439 C430 1.429 . S
C439 N436 1.350 . S
C439 C438 1.434 . S
C177 C76 1.420 . S
C179 C21 1.498 1_565 S
C188 C52 1.411 1_455 S
C190 C37 1.497 1_565 S
C199 C51 1.509 1_545 S
C201 C30 1.432 . S
C210 C87 1.510 1_545 S
C212 C18 1.435 1_655 S
C221 C164 1.419 1_655 S
C223 C103 1.499 . S
C232 C125 1.497 . S
C234 C140 1.411 . S
C243 C118 1.432 1_455 S
C245 C139 1.510 . S
C254 C96 1.438 . S
C256 C175 1.510 . S
C265 C7 1.318 . S
C267 C65 1.314 . S
C276 C81 1.303 . S
C278 C43 1.328 . S
C287 C109 1.325 . S
C289 C153 1.309 . S
C298 C169 1.314 . S
C300 C131 1.320 . S
C309 C29 1.197 . S
C311 C15 1.196 . S
C320 C59 1.201 . S
C322 C73 1.202 . S
C331 C117 1.194 . S
C333 C95 1.193 . S
C342 C161 1.201 . S
C344 C147 1.202 . S
C353 C8 1.467 . S
C355 C32 1.465 . S
C364 C62 1.486 . S
C366 C74 1.490 . S
C375 C98 1.469 . S
C377 C120 1.464 . S
C386 C162 1.489 . S
C388 C150 1.488 . S
C397 C10 1.729 . S
C399 C142 1.740 . S
C408 C40 1.728 . S
C410 C172 1.740 . S
C419 C106 1.722 . S
C421 C54 1.745 . S
C430 C128 1.729 . S
C432 C84 1.740 . S
