# Generated by pormake.
# Topology umd, (4)-cn, num edge types: 1
# Building blocks:
#     Node 0, Type 0, BuildingBlock: GALJAG_clean_sbu_0, # of connection points: 4
#     Node 1, Type 0, BuildingBlock: GALJAG_clean_sbu_0, # of connection points: 4
#     Node 2, Type 0, BuildingBlock: GALJAG_clean_sbu_0, # of connection points: 4
#     Node 3, Type 0, BuildingBlock: GALJAG_clean_sbu_0, # of connection points: 4
#     Node 4, Type 0, BuildingBlock: GALJAG_clean_sbu_0, # of connection points: 4
#     Node 5, Type 0, BuildingBlock: GALJAG_clean_sbu_0, # of connection points: 4
#     Node 6, Type 0, BuildingBlock: GALJAG_clean_sbu_0, # of connection points: 4
#     Node 7, Type 0, BuildingBlock: GALJAG_clean_sbu_0, # of connection points: 4
#     Node 8, Type 0, BuildingBlock: GALJAG_clean_sbu_0, # of connection points: 4
#     Node 9, Type 0, BuildingBlock: GALJAG_clean_sbu_0, # of connection points: 4
#     Node 10, Type 0, BuildingBlock: GALJAG_clean_sbu_0, # of connection points: 4
#     Node 11, Type 0, BuildingBlock: GALJAG_clean_sbu_0, # of connection points: 4
#     Node 12, Type 0, BuildingBlock: GALJAG_clean_sbu_0, # of connection points: 4
#     Node 13, Type 0, BuildingBlock: GALJAG_clean_sbu_0, # of connection points: 4
#     Node 14, Type 0, BuildingBlock: GALJAG_clean_sbu_0, # of connection points: 4
#     Node 15, Type 0, BuildingBlock: GALJAG_clean_sbu_0, # of connection points: 4
#     Edge 16, Type (0, 0), BuildingBlock: UVAHIK_clean_linker_0, # of connection points: 2
#     Edge 17, Type (0, 0), BuildingBlock: UVAHIK_clean_linker_0, # of connection points: 2
#     Edge 18, Type (0, 0), BuildingBlock: UVAHIK_clean_linker_0, # of connection points: 2
#     Edge 19, Type (0, 0), BuildingBlock: UVAHIK_clean_linker_0, # of connection points: 2
#     Edge 20, Type (0, 0), BuildingBlock: UVAHIK_clean_linker_0, # of connection points: 2
#     Edge 21, Type (0, 0), BuildingBlock: UVAHIK_clean_linker_0, # of connection points: 2
#     Edge 22, Type (0, 0), BuildingBlock: UVAHIK_clean_linker_0, # of connection points: 2
#     Edge 23, Type (0, 0), BuildingBlock: UVAHIK_clean_linker_0, # of connection points: 2
#     Edge 24, Type (0, 0), BuildingBlock: UVAHIK_clean_linker_0, # of connection points: 2
#     Edge 25, Type (0, 0), BuildingBlock: UVAHIK_clean_linker_0, # of connection points: 2
#     Edge 26, Type (0, 0), BuildingBlock: UVAHIK_clean_linker_0, # of connection points: 2
#     Edge 27, Type (0, 0), BuildingBlock: UVAHIK_clean_linker_0, # of connection points: 2
#     Edge 28, Type (0, 0), BuildingBlock: UVAHIK_clean_linker_0, # of connection points: 2
#     Edge 29, Type (0, 0), BuildingBlock: UVAHIK_clean_linker_0, # of connection points: 2
#     Edge 30, Type (0, 0), BuildingBlock: UVAHIK_clean_linker_0, # of connection points: 2
#     Edge 31, Type (0, 0), BuildingBlock: UVAHIK_clean_linker_0, # of connection points: 2
#     Edge 32, Type (0, 0), BuildingBlock: UVAHIK_clean_linker_0, # of connection points: 2
#     Edge 33, Type (0, 0), BuildingBlock: UVAHIK_clean_linker_0, # of connection points: 2
#     Edge 34, Type (0, 0), BuildingBlock: UVAHIK_clean_linker_0, # of connection points: 2
#     Edge 35, Type (0, 0), BuildingBlock: UVAHIK_clean_linker_0, # of connection points: 2
#     Edge 36, Type (0, 0), BuildingBlock: UVAHIK_clean_linker_0, # of connection points: 2
#     Edge 37, Type (0, 0), BuildingBlock: UVAHIK_clean_linker_0, # of connection points: 2
#     Edge 38, Type (0, 0), BuildingBlock: UVAHIK_clean_linker_0, # of connection points: 2
#     Edge 39, Type (0, 0), BuildingBlock: UVAHIK_clean_linker_0, # of connection points: 2
#     Edge 40, Type (0, 0), BuildingBlock: UVAHIK_clean_linker_0, # of connection points: 2
#     Edge 41, Type (0, 0), BuildingBlock: UVAHIK_clean_linker_0, # of connection points: 2
#     Edge 42, Type (0, 0), BuildingBlock: UVAHIK_clean_linker_0, # of connection points: 2
#     Edge 43, Type (0, 0), BuildingBlock: UVAHIK_clean_linker_0, # of connection points: 2
#     Edge 44, Type (0, 0), BuildingBlock: UVAHIK_clean_linker_0, # of connection points: 2
#     Edge 45, Type (0, 0), BuildingBlock: UVAHIK_clean_linker_0, # of connection points: 2
#     Edge 46, Type (0, 0), BuildingBlock: UVAHIK_clean_linker_0, # of connection points: 2
#     Edge 47, Type (0, 0), BuildingBlock: UVAHIK_clean_linker_0, # of connection points: 2
# Relax obj value: 0.079
# Max RMSD: 0.208
# Mean RMSD: 0.208
data_MOF--net-umd--node1-GALJAG_clean_sbu_0--edge1-UVAHIK_clean_linker_0
_symmetry_space_group_name_H-M    P1
_symmetry_Int_Tables_number       1
_symmetry_cell_setting            triclinic
loop_
_symmetry_equiv_pos_as_xyz
'x, y, z'
_cell_length_a     51.357178
_cell_length_b     51.357224
_cell_length_c     72.90249
_cell_angle_alpha  90.008885
_cell_angle_beta   90.002427
_cell_angle_gamma 90.116411
loop_
_atom_site_label
_atom_site_type_symbol
_atom_site_fract_x
_atom_site_fract_y
_atom_site_fract_z
_atom_type_partial_charge
In0 In 0.18051 0.44553 0.12717 0.0
O1 O 0.17642 0.40143 0.13152 0.0
O2 O 0.20972 0.41553 0.11731 0.0
C3 C 0.1307 0.46036 0.1325 0.0
C4 C 0.18918 0.46405 0.09314 0.0
C5 C 0.20383 0.46213 0.15829 0.0
O6 O 0.13677 0.437 0.12912 0.0
O7 O 0.14971 0.47589 0.13339 0.0
O8 O 0.20403 0.47539 0.14371 0.0
O9 O 0.19229 0.44054 0.15702 0.0
C10 C 0.19758 0.39609 0.12354 0.0
O11 O 0.20579 0.46636 0.10583 0.0
O12 O 0.16844 0.45252 0.09767 0.0
In13 In 0.57484 0.1751 0.63185 0.0
O14 O 0.55206 0.1999 0.61128 0.0
O15 O 0.58672 0.18111 0.60226 0.0
C16 C 0.55205 0.18949 0.66346 0.0
C17 C 0.62301 0.19398 0.63798 0.0
C18 C 0.55766 0.12541 0.62878 0.0
O19 O 0.54434 0.19801 0.64813 0.0
O20 O 0.57066 0.17356 0.66268 0.0
O21 O 0.57928 0.13091 0.6361 0.0
O22 O 0.54524 0.14475 0.62284 0.0
C23 C 0.56773 0.19559 0.59826 0.0
O24 O 0.61943 0.17118 0.63185 0.0
O25 O 0.6025 0.20685 0.6408 0.0
In26 In 0.81468 0.56112 0.1231 0.0
O27 O 0.78855 0.53814 0.10348 0.0
O28 O 0.82502 0.55194 0.09354 0.0
C29 C 0.79238 0.54727 0.15521 0.0
C30 C 0.79679 0.60974 0.11714 0.0
C31 C 0.86492 0.54775 0.12848 0.0
O32 O 0.79363 0.53198 0.14169 0.0
O33 O 0.80198 0.5695 0.15242 0.0
O34 O 0.85826 0.57079 0.12462 0.0
O35 O 0.84631 0.5318 0.12972 0.0
C36 C 0.80417 0.53982 0.09014 0.0
O37 O 0.81835 0.60567 0.12499 0.0
O38 O 0.7847 0.58948 0.11232 0.0
In39 In 0.43295 0.81873 0.62644 0.0
O40 O 0.39281 0.81489 0.6131 0.0
O41 O 0.39475 0.81394 0.64216 0.0
C42 C 0.44042 0.87075 0.63057 0.0
C43 C 0.45387 0.7988 0.59528 0.0
C44 C 0.45703 0.79219 0.65363 0.0
O45 O 0.42955 0.86118 0.6166 0.0
O46 O 0.44625 0.85431 0.64267 0.0
O47 O 0.46872 0.80837 0.64354 0.0
O48 O 0.43356 0.78834 0.64935 0.0
C49 C 0.38069 0.8121 0.62803 0.0
O50 O 0.43606 0.78738 0.60406 0.0
O51 O 0.46165 0.81966 0.60252 0.0
In52 In 0.18336 0.56646 0.37202 0.0
O53 O 0.17977 0.611 0.37043 0.0
O54 O 0.21545 0.59451 0.3797 0.0
C55 C 0.13412 0.54992 0.36634 0.0
C56 C 0.19175 0.54853 0.40624 0.0
C57 C 0.20544 0.55265 0.33995 0.0
O58 O 0.1393 0.57347 0.36995 0.0
O59 O 0.15368 0.53518 0.36543 0.0
O60 O 0.20658 0.53827 0.354 0.0
O61 O 0.1935 0.57383 0.34223 0.0
C62 C 0.20275 0.61489 0.3761 0.0
O63 O 0.20686 0.54307 0.39309 0.0
O64 O 0.17261 0.56265 0.40198 0.0
In65 In 0.43987 0.18371 0.87677 0.0
O66 O 0.46598 0.2062 0.89694 0.0
O67 O 0.43653 0.18116 0.90757 0.0
C68 C 0.45548 0.2024 0.84402 0.0
C69 C 0.3921 0.20472 0.87807 0.0
C70 C 0.45377 0.13309 0.87516 0.0
O71 O 0.46941 0.20448 0.85824 0.0
O72 O 0.43395 0.19113 0.84642 0.0
O73 O 0.46992 0.15154 0.87444 0.0
O74 O 0.43031 0.14008 0.87662 0.0
C75 C 0.4546 0.19712 0.91093 0.0
O76 O 0.39559 0.1811 0.87378 0.0
O77 O 0.41262 0.21746 0.88145 0.0
In78 In 0.82514 0.42516 0.36334 0.0
O79 O 0.8289 0.38084 0.36048 0.0
O80 O 0.79151 0.39823 0.35704 0.0
C81 C 0.87467 0.44304 0.36289 0.0
C82 C 0.81146 0.42961 0.39887 0.0
C83 C 0.80652 0.44823 0.33304 0.0
O84 O 0.8691 0.41975 0.35884 0.0
O85 O 0.85541 0.4569 0.3672 0.0
O86 O 0.79998 0.45569 0.34893 0.0
O87 O 0.82253 0.42962 0.33262 0.0
C88 C 0.80491 0.37765 0.35715 0.0
O89 O 0.80391 0.44585 0.38698 0.0
O90 O 0.8257 0.41163 0.39278 0.0
In91 In 0.55377 0.81604 0.87167 0.0
O92 O 0.52555 0.79569 0.89165 0.0
O93 O 0.56267 0.80748 0.9015 0.0
C94 C 0.53645 0.80289 0.83801 0.0
C95 C 0.6022 0.79726 0.86767 0.0
C96 C 0.53906 0.86633 0.87419 0.0
O97 O 0.52869 0.79118 0.85228 0.0
O98 O 0.55226 0.82125 0.8409 0.0
O99 O 0.56255 0.85975 0.87208 0.0
O100 O 0.52323 0.8476 0.87516 0.0
C101 C 0.54107 0.79699 0.90507 0.0
O102 O 0.5981 0.82034 0.87298 0.0
O103 O 0.58199 0.78387 0.86467 0.0
In104 In 0.81281 0.56348 0.86951 0.0
O105 O 0.8167 0.60789 0.87161 0.0
O106 O 0.78098 0.59163 0.86197 0.0
C107 C 0.86258 0.54775 0.87316 0.0
C108 C 0.79209 0.5492 0.90197 0.0
C109 C 0.8019 0.54748 0.83522 0.0
O110 O 0.85665 0.57147 0.87126 0.0
O111 O 0.84347 0.53231 0.87342 0.0
O112 O 0.78823 0.54046 0.8488 0.0
O113 O 0.82106 0.56186 0.83914 0.0
C114 C 0.7939 0.61189 0.86566 0.0
O115 O 0.79138 0.53439 0.88813 0.0
O116 O 0.80286 0.57092 0.89927 0.0
In117 In 0.44049 0.81655 0.37326 0.0
O118 O 0.44066 0.7856 0.39595 0.0
O119 O 0.47113 0.81336 0.39592 0.0
C120 C 0.46587 0.79241 0.34556 0.0
C121 C 0.38823 0.8101 0.37138 0.0
C122 C 0.44618 0.86897 0.37107 0.0
O123 O 0.47602 0.81047 0.35488 0.0
O124 O 0.44346 0.78568 0.35081 0.0
O125 O 0.44068 0.85741 0.3858 0.0
O126 O 0.44771 0.85426 0.35729 0.0
C127 C 0.46063 0.79431 0.4039 0.0
O128 O 0.3997 0.81696 0.3859 0.0
O129 O 0.40297 0.80764 0.35767 0.0
In130 In 0.17676 0.43931 0.86872 0.0
O131 O 0.19555 0.46815 0.88889 0.0
O132 O 0.17661 0.43434 0.89943 0.0
C133 C 0.19455 0.45352 0.83543 0.0
C134 C 0.19904 0.39216 0.87049 0.0
C135 C 0.12652 0.45437 0.86843 0.0
O136 O 0.20252 0.4643 0.84999 0.0
O137 O 0.17767 0.43597 0.83779 0.0
O138 O 0.13297 0.43065 0.86923 0.0
O139 O 0.14533 0.47013 0.86759 0.0
C140 C 0.18928 0.45484 0.90282 0.0
O141 O 0.17504 0.39472 0.86698 0.0
O142 O 0.2114 0.41319 0.87269 0.0
In143 In 0.56498 0.1787 0.37421 0.0
O144 O 0.60935 0.17243 0.3736 0.0
O145 O 0.59318 0.20163 0.3565 0.0
C146 C 0.55391 0.12734 0.37636 0.0
C147 C 0.55997 0.20038 0.40785 0.0
C148 C 0.53229 0.19692 0.34824 0.0
O149 O 0.56849 0.13667 0.36404 0.0
O150 O 0.54567 0.14377 0.38783 0.0
O151 O 0.53375 0.17318 0.35249 0.0
O152 O 0.54673 0.21182 0.35755 0.0
C153 C 0.61343 0.1904 0.36213 0.0
O154 O 0.54123 0.19926 0.39668 0.0
O155 O 0.58094 0.1909 0.40194 0.0
In156 In 0.82577 0.43044 0.62843 0.0
O157 O 0.83313 0.38631 0.63009 0.0
O158 O 0.80184 0.40212 0.64542 0.0
C159 C 0.87662 0.44376 0.62648 0.0
C160 C 0.80643 0.43315 0.59401 0.0
C161 C 0.80592 0.46339 0.6536 0.0
O162 O 0.86787 0.42891 0.63886 0.0
O163 O 0.85992 0.4511 0.6149 0.0
O164 O 0.82999 0.46053 0.65098 0.0
O165 O 0.79151 0.4501 0.64312 0.0
C166 C 0.81407 0.38202 0.64061 0.0
O167 O 0.8063 0.45256 0.60464 0.0
O168 O 0.81576 0.41273 0.60089 0.0
In169 In 0.55838 0.81858 0.12754 0.0
O170 O 0.60308 0.82208 0.12797 0.0
O171 O 0.586 0.78706 0.11808 0.0
C172 C 0.54324 0.86859 0.13073 0.0
C173 C 0.5367 0.80778 0.09473 0.0
C174 C 0.54679 0.79958 0.16114 0.0
O175 O 0.56645 0.86239 0.12694 0.0
O176 O 0.52799 0.84959 0.13316 0.0
O177 O 0.53278 0.79482 0.14728 0.0
O178 O 0.56646 0.81355 0.15792 0.0
C179 C 0.60658 0.79958 0.12141 0.0
O180 O 0.53408 0.79271 0.10833 0.0
O181 O 0.54981 0.8281 0.09785 0.0
In182 In 0.18174 0.56943 0.62756 0.0
O183 O 0.18645 0.53737 0.60605 0.0
O184 O 0.21039 0.57074 0.60349 0.0
C185 C 0.20567 0.54227 0.65445 0.0
C186 C 0.18968 0.62141 0.63036 0.0
C187 C 0.12925 0.5643 0.62944 0.0
O188 O 0.1859 0.53395 0.64604 0.0
O189 O 0.21409 0.56393 0.64882 0.0
O190 O 0.14124 0.56741 0.61453 0.0
O191 O 0.14354 0.56516 0.64347 0.0
C192 C 0.20354 0.54915 0.59685 0.0
O193 O 0.18207 0.61068 0.61573 0.0
O194 O 0.19212 0.60609 0.64377 0.0
In195 In 0.43363 0.18264 0.13106 0.0
O196 O 0.46226 0.20487 0.1124 0.0
O197 O 0.42666 0.19095 0.10111 0.0
C198 C 0.4495 0.1939 0.1653 0.0
C199 C 0.38532 0.20255 0.13361 0.0
C200 C 0.44913 0.13263 0.12809 0.0
O201 O 0.45734 0.20683 0.15159 0.0
O202 O 0.43428 0.17533 0.16156 0.0
O203 O 0.42559 0.13873 0.13071 0.0
O204 O 0.46453 0.15169 0.12675 0.0
C205 C 0.44775 0.20295 0.09845 0.0
O206 O 0.38929 0.17971 0.12774 0.0
O207 O 0.40555 0.21494 0.13816 0.0
C208 C 0.08269 0.45152 0.13392 0.0
C209 C 0.1035 0.46931 0.13432 0.0
C210 C 0.05696 0.46037 0.13475 0.0
C211 C 0.01724 0.51785 0.12455 0.0
H212 H 0.96531 0.48421 0.15506 0.0
C213 C 0.91261 0.55799 0.13047 0.0
C214 C 0.89232 0.53964 0.13077 0.0
C215 C 0.93853 0.54996 0.13211 0.0
C216 C 0.9795 0.49366 0.1463 0.0
H217 H 0.11373 0.51023 0.13623 0.0
H218 H 0.06889 0.5256 0.13759 0.0
H219 H 0.01018 0.46867 0.15556 0.0
H220 H 0.88319 0.49852 0.13308 0.0
H221 H 0.92825 0.48447 0.13548 0.0
H222 H 0.98662 0.54245 0.11493 0.0
C223 C 0.07243 0.50487 0.13653 0.0
C224 C 0.00521 0.48476 0.14663 0.0
C225 C 0.0981 0.49604 0.13585 0.0
C226 C 0.89841 0.51316 0.13289 0.0
C227 C 0.92427 0.50511 0.13439 0.0
C228 C 0.99152 0.52662 0.1241 0.0
C229 C 0.05158 0.48716 0.13583 0.0
C230 C 0.02433 0.49674 0.13574 0.0
C231 C 0.9447 0.52338 0.13395 0.0
C232 C 0.97228 0.51459 0.13493 0.0
H233 H 0.08628 0.43081 0.13274 0.0
H234 H 0.04126 0.44628 0.13405 0.0
H235 H 0.03149 0.52724 0.1158 0.0
H236 H 0.90847 0.57855 0.12894 0.0
H237 H 0.95372 0.56461 0.13199 0.0
C238 C 0.44218 0.91618 0.61795 0.0
C239 C 0.44881 0.89826 0.63174 0.0
C240 C 0.45288 0.94128 0.618 0.0
C241 C 0.51097 0.97621 0.63317 0.0
H242 H 0.47041 0.03876 0.62529 0.0
C243 C 0.55642 0.07903 0.63947 0.0
C244 C 0.54677 0.09878 0.62805 0.0
C245 C 0.54445 0.05451 0.63981 0.0
C246 C 0.48215 0.02149 0.6272 0.0
H247 H 0.47114 0.89285 0.65671 0.0
H248 H 0.48993 0.93651 0.65667 0.0
H249 H 0.44861 0.99655 0.62627 0.0
H250 H 0.51775 0.10815 0.60752 0.0
H251 H 0.4976 0.06525 0.6075 0.0
H252 H 0.54459 0.00079 0.6336 0.0
C253 C 0.47656 0.93113 0.64581 0.0
C254 C 0.46957 0.99732 0.62786 0.0
C255 C 0.46564 0.9062 0.64589 0.0
C256 C 0.52549 0.09334 0.61657 0.0
C257 C 0.51378 0.06877 0.61671 0.0
C258 C 0.5236 0.00031 0.63226 0.0
C259 C 0.47064 0.94877 0.63171 0.0
C260 C 0.48384 0.97447 0.63094 0.0
C261 C 0.52279 0.04912 0.62854 0.0
C262 C 0.50938 0.02332 0.62932 0.0
H263 H 0.42931 0.91058 0.60685 0.0
H264 H 0.44805 0.95449 0.60694 0.0
H265 H 0.5225 0.95884 0.63529 0.0
H266 H 0.57269 0.08276 0.64856 0.0
H267 H 0.55178 0.04006 0.64929 0.0
C268 C 0.0856 0.55572 0.36736 0.0
C269 C 0.10733 0.5398 0.36416 0.0
C270 C 0.06038 0.5454 0.36631 0.0
C271 C 0.02511 0.4826 0.36895 0.0
H272 H 0.96805 0.52179 0.34788 0.0
C273 C 0.92274 0.43782 0.35787 0.0
C274 C 0.90145 0.45364 0.36247 0.0
C275 C 0.94797 0.44821 0.35746 0.0
C276 C 0.98374 0.51069 0.35395 0.0
H277 H 0.11969 0.50079 0.35683 0.0
H278 H 0.07587 0.48296 0.35472 0.0
H279 H 0.01175 0.54052 0.34815 0.0
H280 H 0.88985 0.4927 0.37027 0.0
H281 H 0.93372 0.5107 0.36969 0.0
H282 H 0.99711 0.4528 0.3748 0.0
C283 C 0.07821 0.50326 0.3584 0.0
C284 C 0.00878 0.52144 0.35412 0.0
C285 C 0.10334 0.51354 0.35949 0.0
C286 C 0.90585 0.48 0.36663 0.0
C287 C 0.93099 0.49038 0.36617 0.0
C288 C 0.0001 0.47184 0.36876 0.0
C289 C 0.05642 0.51895 0.36201 0.0
C290 C 0.02977 0.50754 0.36166 0.0
C291 C 0.95236 0.47464 0.36158 0.0
C292 C 0.9791 0.48578 0.36131 0.0
H293 H 0.08809 0.57602 0.37103 0.0
H294 H 0.04404 0.55798 0.36932 0.0
H295 H 0.04073 0.47153 0.37515 0.0
H296 H 0.91993 0.41745 0.35455 0.0
H297 H 0.964 0.43562 0.3537 0.0
C298 C 0.54853 0.91415 0.87313 0.0
C299 C 0.53051 0.89373 0.87496 0.0
C300 C 0.54015 0.94004 0.8733 0.0
C301 C 0.48515 0.9819 0.88736 0.0
H302 H 0.51461 0.03031 0.85217 0.0
C303 C 0.44367 0.08535 0.87638 0.0
C304 C 0.46196 0.10556 0.87465 0.0
C305 C 0.45176 0.05936 0.87626 0.0
C306 C 0.50637 0.01709 0.8622 0.0
H307 H 0.48963 0.88432 0.87857 0.0
H308 H 0.47501 0.92942 0.87872 0.0
H309 H 0.52964 0.98532 0.8527 0.0
H310 H 0.50301 0.11447 0.87137 0.0
H311 H 0.51709 0.06923 0.87129 0.0
H312 H 0.46187 0.0137 0.89685 0.0
C313 C 0.49563 0.92551 0.87736 0.0
C314 C 0.51502 0.99133 0.86252 0.0
C315 C 0.504 0.89967 0.87717 0.0
C316 C 0.48843 0.09931 0.87268 0.0
C317 C 0.4965 0.07338 0.87253 0.0
C318 C 0.4765 0.00768 0.88703 0.0
C319 C 0.51358 0.946 0.87533 0.0
C320 C 0.50454 0.97345 0.87512 0.0
C321 C 0.47828 0.0531 0.87437 0.0
C322 C 0.48705 0.02557 0.87447 0.0
H323 H 0.56909 0.91015 0.87145 0.0
H324 H 0.55451 0.9554 0.87195 0.0
H325 H 0.47693 0.96869 0.89739 0.0
H326 H 0.42313 0.08961 0.87789 0.0
H327 H 0.43722 0.04415 0.87751 0.0
C328 C 0.89477 0.51165 0.87607 0.0
C329 C 0.88972 0.5384 0.8742 0.0
C330 C 0.9203 0.5024 0.87612 0.0
C331 C 0.98862 0.52256 0.88301 0.0
H332 H 0.00388 0.4606 0.85456 0.0
C333 C 0.09364 0.49004 0.86784 0.0
C334 C 0.09922 0.46332 0.86891 0.0
C335 C 0.06799 0.49886 0.8688 0.0
C336 C -0.00011 0.47772 0.86275 0.0
H337 H 0.90743 0.57649 0.8712 0.0
H338 H 0.95216 0.56031 0.87117 0.0
H339 H 0.95937 0.47689 0.85595 0.0
H340 H 0.08233 0.42483 0.87172 0.0
H341 H 0.03738 0.44025 0.87352 0.0
H342 H 0.02915 0.52343 0.88978 0.0
C343 C 0.93634 0.54652 0.87277 0.0
C344 C 0.97439 0.48708 0.86355 0.0
C345 C 0.91075 0.55579 0.8727 0.0
C346 C 0.07859 0.44553 0.8708 0.0
C347 C 0.05287 0.45437 0.87176 0.0
C348 C 0.01412 0.5132 0.88223 0.0
C349 C 0.94138 0.51968 0.87429 0.0
C350 C 0.96847 0.50964 0.87365 0.0
C351 C 0.0473 0.48116 0.87086 0.0
C352 C 0.02007 0.49073 0.87203 0.0
H353 H 0.87896 0.49777 0.87733 0.0
H354 H 0.92353 0.48168 0.87762 0.0
H355 H 0.98463 0.53976 0.89113 0.0
H356 H 0.10912 0.50424 0.86631 0.0
H357 H 0.06437 0.51957 0.86774 0.0
C358 C 0.54941 0.08387 0.36113 0.0
C359 C 0.54495 0.09999 0.37637 0.0
C360 C 0.53847 0.05894 0.36033 0.0
C361 C 0.48481 0.01977 0.3805 0.0
H362 H 0.52145 0.96193 0.3582 0.0
C363 C 0.45114 0.91241 0.38622 0.0
C364 C 0.45336 0.89683 0.37045 0.0
C365 C 0.4609 0.93784 0.38631 0.0
C366 C 0.51086 0.97798 0.36428 0.0
H367 H 0.52644 0.10231 0.40304 0.0
H368 H 0.50804 0.05858 0.40194 0.0
H369 H 0.54265 0.00435 0.36025 0.0
H370 H 0.4667 0.89592 0.34224 0.0
H371 H 0.48378 0.94036 0.34243 0.0
H372 H 0.45323 0.99314 0.38484 0.0
C373 C 0.51935 0.06538 0.39035 0.0
C374 C 0.523 0.00231 0.36545 0.0
C375 C 0.53011 0.09037 0.39107 0.0
C376 C 0.4647 0.90747 0.35459 0.0
C377 C 0.47467 0.93282 0.35474 0.0
C378 C 0.47277 0.99538 0.37946 0.0
C379 C 0.52298 0.04951 0.37483 0.0
C380 C 0.51016 0.02352 0.37361 0.0
C381 C 0.47327 0.94811 0.3707 0.0
C382 C 0.48567 0.97423 0.37134 0.0
H383 H 0.56063 0.09084 0.34954 0.0
H384 H 0.54148 0.0474 0.34809 0.0
H385 H 0.4741 0.03576 0.38653 0.0
H386 H 0.44254 0.90471 0.39865 0.0
H387 H 0.45967 0.94911 0.39885 0.0
C388 C 0.91281 0.46806 0.61126 0.0
C389 C 0.9035 0.45406 0.62646 0.0
C390 C 0.93714 0.48023 0.61184 0.0
C391 C 0.9994 0.48274 0.63793 0.0
H392 H 0.00557 0.55044 0.61471 0.0
C393 C 0.09075 0.54707 0.64662 0.0
C394 C 0.10152 0.55659 0.63021 0.0
C395 C 0.06584 0.53604 0.64677 0.0
C396 C 0.00415 0.53151 0.62119 0.0
H397 H 0.91256 0.44136 0.65407 0.0
H398 H 0.95483 0.46307 0.65529 0.0
H399 H 0.96418 0.52716 0.6136 0.0
H400 H 0.09421 0.56317 0.60129 0.0
H401 H 0.05051 0.54427 0.60163 0.0
H402 H 0.03936 0.48739 0.6457 0.0
C403 C 0.94359 0.46429 0.64276 0.0
C404 C 0.98049 0.51805 0.62047 0.0
C405 C 0.91932 0.45187 0.64209 0.0
C406 C 0.08639 0.55604 0.61415 0.0
C407 C 0.06137 0.54525 0.61435 0.0
C408 C 0.02299 0.49633 0.63879 0.0
C409 C 0.95265 0.47896 0.62773 0.0
C410 C 0.97783 0.49339 0.62871 0.0
C411 C 0.05109 0.53457 0.63056 0.0
C412 C 0.02566 0.52078 0.63034 0.0
H413 H 0.90109 0.46996 0.59898 0.0
H414 H 0.9437 0.49078 0.59984 0.0
H415 H 0.99825 0.46366 0.6442 0.0
H416 H 0.10196 0.54718 0.65921 0.0
H417 H 0.05827 0.52827 0.65951 0.0
C418 C 0.48478 0.10007 0.12422 0.0
C419 C 0.45834 0.10539 0.1274 0.0
C420 C 0.49393 0.07449 0.12439 0.0
C421 C 0.47255 0.00586 0.12072 0.0
H422 H 0.53848 0.99175 0.14468 0.0
C423 C 0.50782 0.90132 0.13493 0.0
C424 C 0.53414 0.89586 0.13138 0.0
C425 C 0.49874 0.92693 0.13464 0.0
C426 C 0.52018 0.99541 0.13777 0.0
H427 H 0.42067 0.08809 0.13304 0.0
H428 H 0.43667 0.04332 0.13352 0.0
H429 H 0.52206 0.03624 0.14347 0.0
H430 H 0.57167 0.91295 0.12498 0.0
H431 H 0.55579 0.95778 0.12441 0.0
H432 H 0.47064 0.96501 0.11508 0.0
C433 C 0.4503 0.05892 0.13069 0.0
C434 C 0.51076 0.02091 0.13706 0.0
C435 C 0.44113 0.08456 0.13049 0.0
C436 C 0.5513 0.91658 0.12782 0.0
C437 C 0.54221 0.94224 0.12756 0.0
C438 C 0.48195 0.98036 0.12146 0.0
C439 C 0.47686 0.0536 0.12778 0.0
C440 C 0.48684 0.02645 0.12852 0.0
C441 C 0.51577 0.94768 0.13081 0.0
C442 C 0.50586 0.97483 0.13 0.0
H443 H 0.49851 0.11571 0.12171 0.0
H444 H 0.5144 0.07106 0.12179 0.0
H445 H 0.45426 0.0095 0.11379 0.0
H446 H 0.49412 0.88577 0.13778 0.0
H447 H 0.47836 0.93048 0.13749 0.0
C448 C 0.21861 0.56345 0.30796 0.0
C449 C 0.21535 0.54475 0.3218 0.0
C450 C 0.22477 0.55588 0.2901 0.0
C451 C 0.24449 0.49912 0.26114 0.0
H452 H 0.20433 0.53557 0.22416 0.0
C453 C 0.21485 0.45541 0.19129 0.0
C454 C 0.21413 0.47187 0.17591 0.0
C455 C 0.22138 0.46526 0.20854 0.0
C456 C 0.21609 0.52548 0.23423 0.0
H457 H 0.21706 0.50358 0.3281 0.0
H458 H 0.22688 0.49016 0.29676 0.0
H459 H 0.20392 0.55107 0.25558 0.0
H460 H 0.22101 0.51122 0.1663 0.0
H461 H 0.23226 0.52854 0.19655 0.0
H462 H 0.25547 0.47271 0.2397 0.0
C463 C 0.2253 0.51076 0.2997 0.0
C464 C 0.21592 0.5344 0.2523 0.0
C465 C 0.21954 0.5184 0.31767 0.0
C466 C 0.22132 0.49811 0.17793 0.0
C467 C 0.22765 0.50803 0.19524 0.0
C468 C 0.24445 0.49004 0.24304 0.0
C469 C 0.22733 0.52938 0.28559 0.0
C470 C 0.2298 0.52114 0.26607 0.0
C471 C 0.22714 0.49183 0.21078 0.0
C472 C 0.22993 0.50293 0.22947 0.0
H473 H 0.21581 0.58395 0.31084 0.0
H474 H 0.22686 0.57082 0.27972 0.0
H475 H 0.25574 0.48866 0.2713 0.0
H476 H 0.20949 0.43506 0.19013 0.0
H477 H 0.2206 0.45235 0.22028 0.0
C478 C 0.55516 0.19406 0.69734 0.0
C479 C 0.54091 0.19786 0.68113 0.0
C480 C 0.54478 0.2013 0.71425 0.0
C481 C 0.48396 0.20642 0.73809 0.0
H482 H 0.52405 0.2436 0.77485 0.0
C483 C 0.44579 0.2146 0.81169 0.0
C484 C 0.46415 0.21071 0.82567 0.0
C485 C 0.45386 0.21938 0.79372 0.0
C486 C 0.51265 0.23302 0.76481 0.0
H487 H 0.5048 0.21248 0.66977 0.0
H488 H 0.48615 0.22443 0.69963 0.0
H489 H 0.54081 0.23985 0.74361 0.0
H490 H 0.50528 0.20973 0.8321 0.0
H491 H 0.51955 0.21688 0.80064 0.0
H492 H 0.45664 0.19797 0.75928 0.0
C493 C 0.50551 0.21614 0.69911 0.0
C494 C 0.52218 0.23107 0.74691 0.0
C495 C 0.51615 0.20933 0.68209 0.0
C496 C 0.49074 0.21277 0.82156 0.0
C497 C 0.49886 0.21703 0.8035 0.0
C498 C 0.47462 0.20799 0.75603 0.0
C499 C 0.51976 0.21211 0.71532 0.0
C500 C 0.50814 0.21733 0.7335 0.0
C501 C 0.48051 0.21979 0.78926 0.0
C502 C 0.48908 0.22087 0.76974 0.0
H503 H 0.57437 0.18539 0.69699 0.0
H504 H 0.55602 0.1977 0.72657 0.0
H505 H 0.47293 0.19545 0.72804 0.0
H506 H 0.42512 0.21343 0.81458 0.0
H507 H 0.43915 0.22212 0.78327 0.0
C508 C 0.78014 0.51268 0.17768 0.0
C509 C 0.78281 0.53918 0.17341 0.0
C510 C 0.77479 0.50489 0.19565 0.0
C511 C 0.78316 0.52904 0.24296 0.0
H512 H 0.74992 0.46337 0.25494 0.0
C513 C 0.78533 0.48498 0.31605 0.0
C514 C 0.79625 0.45993 0.31607 0.0
C515 C 0.77727 0.49638 0.29956 0.0
C516 C 0.75905 0.48187 0.25179 0.0
H517 H 0.78009 0.57842 0.18417 0.0
H518 H 0.76982 0.56492 0.2154 0.0
H519 H 0.74617 0.48085 0.22391 0.0
H520 H 0.80624 0.42669 0.29915 0.0
H521 H 0.79181 0.44637 0.27052 0.0
H522 H 0.79633 0.52976 0.27083 0.0
C523 C 0.77271 0.55006 0.20507 0.0
C524 C 0.75707 0.49182 0.23401 0.0
C525 C 0.77842 0.55781 0.18715 0.0
C526 C 0.79804 0.4461 0.29951 0.0
C527 C 0.78956 0.45726 0.28315 0.0
C528 C 0.78482 0.51926 0.26079 0.0
C529 C 0.77166 0.52347 0.20968 0.0
C530 C 0.76988 0.51508 0.2292 0.0
C531 C 0.77949 0.48264 0.28296 0.0
C532 C 0.77352 0.49518 0.26519 0.0
H533 H 0.78349 0.4979 0.16735 0.0
H534 H 0.7745 0.48425 0.19866 0.0
H535 H 0.7936 0.54681 0.23978 0.0
H536 H 0.78374 0.49602 0.32867 0.0
H537 H 0.76957 0.516 0.29973 0.0
C538 C 0.5416 0.80643 0.80413 0.0
C539 C 0.52873 0.7953 0.81922 0.0
C540 C 0.5349 0.79935 0.78628 0.0
C541 C 0.48098 0.77521 0.75875 0.0
H542 H 0.53456 0.76547 0.72188 0.0
C543 C 0.45375 0.76622 0.68258 0.0
C544 C 0.46846 0.7822 0.67085 0.0
C545 C 0.46242 0.76098 0.70039 0.0
C546 C 0.51934 0.76819 0.73198 0.0
H547 H 0.49877 0.76794 0.82748 0.0
H548 H 0.48663 0.75583 0.79604 0.0
H549 H 0.54679 0.76987 0.75408 0.0
H550 H 0.50453 0.80383 0.66812 0.0
H551 H 0.51944 0.79513 0.69914 0.0
H552 H 0.4536 0.77485 0.73668 0.0
C553 C 0.50202 0.76997 0.79814 0.0
C554 C 0.52636 0.77065 0.75042 0.0
C555 C 0.50896 0.77687 0.81609 0.0
C556 C 0.49278 0.79141 0.67683 0.0
C557 C 0.50138 0.7863 0.69464 0.0
C558 C 0.47396 0.77295 0.74028 0.0
C559 C 0.51501 0.78112 0.78306 0.0
C560 C 0.5073 0.77486 0.76394 0.0
C561 C 0.48591 0.77173 0.70685 0.0
C562 C 0.49311 0.77009 0.72661 0.0
H563 H 0.55696 0.82065 0.80609 0.0
H564 H 0.54496 0.8086 0.77495 0.0
H565 H 0.46589 0.77865 0.76884 0.0
H566 H 0.43497 0.75872 0.67831 0.0
H567 H 0.45027 0.74925 0.70931 0.0
C568 C 0.77349 0.52579 0.81163 0.0
C569 C 0.7956 0.5407 0.81604 0.0
C570 C 0.76751 0.52029 0.79328 0.0
C571 C 0.78224 0.54231 0.74585 0.0
H572 H 0.76693 0.47098 0.73212 0.0
C573 C 0.81216 0.49702 0.6777 0.0
C574 C 0.79598 0.47855 0.66925 0.0
C575 C 0.80501 0.50825 0.69436 0.0
C576 C 0.77057 0.49112 0.73574 0.0
H577 H 0.82877 0.56146 0.80477 0.0
H578 H 0.81863 0.55162 0.77303 0.0
H579 H 0.76805 0.48304 0.7645 0.0
H580 H 0.75906 0.45819 0.67102 0.0
H581 H 0.74668 0.47761 0.7005 0.0
H582 H 0.78615 0.55003 0.71712 0.0
C583 C 0.80558 0.54455 0.78359 0.0
C584 C 0.77125 0.49802 0.75429 0.0
C585 C 0.81156 0.54996 0.80183 0.0
C586 C 0.77182 0.4725 0.67725 0.0
C587 C 0.76482 0.48345 0.69413 0.0
C588 C 0.78168 0.53538 0.72734 0.0
C589 C 0.78345 0.52976 0.77906 0.0
C590 C 0.77807 0.52347 0.75954 0.0
C591 C 0.78167 0.50097 0.70303 0.0
C592 C 0.77676 0.50952 0.72213 0.0
H593 H 0.76079 0.51849 0.82233 0.0
H594 H 0.7503 0.50886 0.7902 0.0
H595 H 0.78693 0.56223 0.74946 0.0
H596 H 0.83088 0.50202 0.67181 0.0
H597 H 0.81853 0.52147 0.70098 0.0
C598 C 0.50175 0.79233 0.32236 0.0
C599 C 0.4775 0.78283 0.32828 0.0
C600 C 0.51069 0.78695 0.30465 0.0
C601 C 0.48442 0.77412 0.25902 0.0
H602 H 0.55688 0.76438 0.24588 0.0
C603 C 0.51775 0.77598 0.18337 0.0
C604 C 0.54027 0.79075 0.1799 0.0
C605 C 0.51092 0.76933 0.20137 0.0
C606 C 0.53656 0.7672 0.24931 0.0
H607 H 0.44436 0.75889 0.32073 0.0
H608 H 0.46003 0.74945 0.28981 0.0
H609 H 0.54387 0.76238 0.27806 0.0
H610 H 0.57365 0.80952 0.1925 0.0
H611 H 0.56156 0.79844 0.22375 0.0
H612 H 0.47718 0.78004 0.23046 0.0
C613 C 0.47198 0.7613 0.29879 0.0
C614 C 0.52913 0.76597 0.26775 0.0
C615 C 0.4631 0.76656 0.31654 0.0
C616 C 0.55617 0.7981 0.19471 0.0
C617 C 0.54933 0.79154 0.21266 0.0
C618 C 0.49186 0.77548 0.24061 0.0
C619 C 0.49551 0.77205 0.29247 0.0
C620 C 0.50305 0.76995 0.27284 0.0
C621 C 0.52645 0.77736 0.21626 0.0
C622 C 0.51812 0.77262 0.23555 0.0
H623 H 0.51328 0.80493 0.33109 0.0
H624 H 0.52882 0.79569 0.30017 0.0
H625 H 0.46422 0.77763 0.2625 0.0
H626 H 0.50519 0.76994 0.17221 0.0
H627 H 0.49333 0.75812 0.20363 0.0
C628 C 0.19456 0.4473 0.80153 0.0
C629 C 0.20384 0.46082 0.81695 0.0
C630 C 0.20234 0.45451 0.78392 0.0
C631 C 0.22565 0.51091 0.75802 0.0
H632 H 0.23407 0.45971 0.71936 0.0
C633 C 0.23359 0.5423 0.68259 0.0
C634 C 0.21568 0.52945 0.67114 0.0
C635 C 0.2394 0.53231 0.69996 0.0
C636 C 0.23186 0.47424 0.73001 0.0
H637 H 0.22908 0.49209 0.82609 0.0
H638 H 0.24278 0.50479 0.79517 0.0
H639 H 0.23068 0.44542 0.75121 0.0
H640 H 0.19124 0.49523 0.66832 0.0
H641 H 0.20131 0.47784 0.69853 0.0
H642 H 0.22588 0.53966 0.7368 0.0
C643 C 0.2293 0.48869 0.79675 0.0
C644 C 0.22986 0.46607 0.74824 0.0
C645 C 0.22153 0.48141 0.81444 0.0
C646 C 0.20507 0.50558 0.67686 0.0
C647 C 0.21097 0.49555 0.69416 0.0
C648 C 0.22768 0.51908 0.73979 0.0
C649 C 0.21961 0.47544 0.78129 0.0
C650 C 0.22591 0.48427 0.76239 0.0
C651 C 0.22754 0.50922 0.70613 0.0
C652 C 0.23001 0.50078 0.72554 0.0
H653 H 0.18091 0.43132 0.80301 0.0
H654 H 0.19413 0.44417 0.77233 0.0
H655 H 0.22237 0.52542 0.76855 0.0
H656 H 0.24212 0.56072 0.67852 0.0
H657 H 0.25249 0.54311 0.7088 0.0
C658 C 0.52411 0.22904 0.32312 0.0
C659 C 0.51755 0.20568 0.33204 0.0
C660 C 0.51353 0.23483 0.30591 0.0
C661 C 0.46181 0.21629 0.27301 0.0
H662 H 0.51459 0.22778 0.2358 0.0
C663 C 0.44674 0.18489 0.19877 0.0
C664 C 0.45642 0.20035 0.18443 0.0
C665 C 0.45231 0.19103 0.21696 0.0
C666 C 0.4995 0.22515 0.24601 0.0
H667 H 0.49357 0.17098 0.33067 0.0
H668 H 0.47483 0.18122 0.30086 0.0
H669 H 0.52641 0.23012 0.26818 0.0
H670 H 0.47958 0.23442 0.17785 0.0
H671 H 0.48942 0.24524 0.20988 0.0
H672 H 0.43505 0.21052 0.25091 0.0
C673 C 0.48815 0.19505 0.30705 0.0
C674 C 0.50626 0.22651 0.26456 0.0
C675 C 0.49897 0.18911 0.32408 0.0
C676 C 0.47194 0.22211 0.18865 0.0
C677 C 0.47757 0.22828 0.20696 0.0
C678 C 0.45502 0.21505 0.25449 0.0
C679 C 0.49593 0.21755 0.29753 0.0
C680 C 0.48767 0.22121 0.27822 0.0
C681 C 0.46767 0.21284 0.22131 0.0
C682 C 0.47399 0.21851 0.24079 0.0
H683 H 0.53848 0.24212 0.32895 0.0
H684 H 0.51972 0.25238 0.2989 0.0
H685 H 0.44701 0.21249 0.28326 0.0
H686 H 0.43479 0.16794 0.19597 0.0
H687 H 0.44489 0.17836 0.22764 0.0
C688 C 0.1972 0.44253 0.93525 0.0
C689 C 0.1964 0.46199 0.92175 0.0
C690 C 0.20259 0.44885 0.95343 0.0
C691 C 0.19302 0.49933 0.98655 0.0
H692 H 0.23817 0.45646 0.01664 0.0
C693 C 0.21933 0.47771 0.06786 0.0
C694 C 0.19394 0.47273 0.07414 0.0
C695 C 0.22386 0.48298 0.04929 0.0
C696 C 0.22587 0.46898 0.00842 0.0
H697 H 0.20096 0.50327 0.91652 0.0
H698 H 0.20959 0.51456 0.94878 0.0
H699 H 0.23994 0.45268 0.98326 0.0
H700 H 0.15328 0.47082 0.06625 0.0
H701 H 0.16114 0.48028 0.03398 0.0
H702 H 0.17783 0.51448 0.01178 0.0
C703 C 0.2064 0.49437 0.94509 0.0
C704 C 0.22678 0.4667 0.98935 0.0
C705 C 0.20153 0.48793 0.92671 0.0
C706 C 0.17307 0.47446 0.06177 0.0
C707 C 0.17754 0.4801 0.04332 0.0
C708 C 0.19188 0.50138 0.00566 0.0
C709 C 0.20688 0.47484 0.95859 0.0
C710 C 0.20976 0.48122 0.97828 0.0
C711 C 0.20302 0.4838 0.0368 0.0
C712 C 0.20771 0.48561 0.01678 0.0
H713 H 0.19345 0.42235 0.93178 0.0
H714 H 0.20249 0.43347 0.9636 0.0
H715 H 0.1796 0.51063 0.97832 0.0
H716 H 0.23576 0.47649 0.07713 0.0
H717 H 0.24369 0.48581 0.04461 0.0
C718 C 0.57967 0.2121 0.43793 0.0
C719 C 0.55747 0.21028 0.42678 0.0
C720 C 0.57744 0.21881 0.45638 0.0
C721 C 0.53123 0.21452 0.49432 0.0
H722 H 0.58635 0.25109 0.52008 0.0
C723 C 0.5395 0.21469 0.57363 0.0
C724 C 0.56396 0.20579 0.57953 0.0
C725 C 0.53572 0.22208 0.55533 0.0
C726 C 0.57069 0.24102 0.51307 0.0
H727 H 0.51558 0.21515 0.42596 0.0
H728 H 0.51162 0.22699 0.45841 0.0
H729 H 0.58467 0.25253 0.48664 0.0
H730 H 0.60386 0.19871 0.57126 0.0
H731 H 0.5974 0.21188 0.53952 0.0
H732 H 0.51782 0.2023 0.52079 0.0
C733 C 0.53075 0.223 0.45284 0.0
C734 C 0.56976 0.24177 0.49394 0.0
C735 C 0.53302 0.21635 0.43427 0.0
C736 C 0.58478 0.20542 0.56707 0.0
C737 C 0.58113 0.21316 0.54893 0.0
C738 C 0.53207 0.21392 0.51349 0.0
C739 C 0.55292 0.22387 0.46417 0.0
C740 C 0.55066 0.22763 0.48432 0.0
C741 C 0.55649 0.22115 0.54278 0.0
C742 C 0.55242 0.22631 0.52299 0.0
H743 H 0.5988 0.20757 0.43254 0.0
H744 H 0.59488 0.21886 0.46473 0.0
H745 H 0.51636 0.20328 0.48736 0.0
H746 H 0.52311 0.21513 0.58298 0.0
H747 H 0.51654 0.22819 0.55091 0.0
C748 C 0.77215 0.52409 0.06667 0.0
C749 C 0.7979 0.53027 0.07156 0.0
C750 C 0.76588 0.51834 0.04842 0.0
C751 C 0.79426 0.50144 0.00317 0.0
H752 H 0.74066 0.54656 0.98346 0.0
C753 C 0.77872 0.56056 0.93374 0.0
C754 C 0.78301 0.5414 0.92035 0.0
C755 C 0.77368 0.55356 0.95186 0.0
C756 C 0.75542 0.53355 0.98879 0.0
H757 H 0.83748 0.53378 0.06153 0.0
H758 H 0.82662 0.52357 0.02983 0.0
H759 H 0.74613 0.54294 0.01662 0.0
H760 H 0.78421 0.49988 0.91517 0.0
H761 H 0.77586 0.48753 0.94716 0.0
H762 H 0.80455 0.49327 0.97531 0.0
C763 C 0.81125 0.52313 0.04 0.0
C764 C 0.75844 0.53133 0.00777 0.0
C765 C 0.81745 0.52918 0.05814 0.0
C766 C 0.78093 0.51502 0.92524 0.0
C767 C 0.77626 0.50797 0.94352 0.0
C768 C 0.79112 0.50352 0.98419 0.0
C769 C 0.78532 0.51829 0.03485 0.0
C770 C 0.77858 0.51607 0.01513 0.0
C771 C 0.77313 0.52722 0.95706 0.0
C772 C 0.77236 0.52043 0.97682 0.0
H773 H 0.75669 0.52479 0.07676 0.0
H774 H 0.74575 0.51457 0.04484 0.0
H775 H 0.80978 0.48934 0.00849 0.0
H776 H 0.78013 0.58105 0.93032 0.0
H777 H 0.77168 0.56884 0.962 0.0
C778 C 0.44827 0.77195 0.56688 0.0
C779 C 0.46267 0.79035 0.57692 0.0
C780 C 0.45403 0.76724 0.54841 0.0
C781 C 0.48352 0.80153 0.50923 0.0
H782 H 0.47142 0.7363 0.48381 0.0
C783 C 0.49015 0.79736 0.43107 0.0
C784 C 0.46856 0.78581 0.42246 0.0
C785 C 0.49477 0.79331 0.44974 0.0
C786 C 0.47489 0.75464 0.49073 0.0
H787 H 0.49561 0.81674 0.57599 0.0
H788 H 0.50618 0.80799 0.54399 0.0
H789 H 0.47006 0.73753 0.51735 0.0
H790 H 0.43598 0.75947 0.4263 0.0
H791 H 0.44383 0.75265 0.45894 0.0
H792 H 0.48765 0.81884 0.48278 0.0
C793 C 0.48993 0.79775 0.55015 0.0
C794 C 0.47406 0.75537 0.50994 0.0
C795 C 0.484 0.80265 0.56853 0.0
C796 C 0.45277 0.76866 0.43257 0.0
C797 C 0.45734 0.76467 0.45128 0.0
C798 C 0.48443 0.80078 0.49011 0.0
C799 C 0.47445 0.7807 0.53967 0.0
C800 C 0.47797 0.77894 0.51941 0.0
C801 C 0.47783 0.77772 0.46022 0.0
C802 C 0.47973 0.77744 0.48059 0.0
H803 H 0.43167 0.76221 0.57299 0.0
H804 H 0.44155 0.75413 0.54077 0.0
H805 H 0.48606 0.82016 0.51596 0.0
H806 H 0.50279 0.81052 0.4236 0.0
H807 H 0.51104 0.80323 0.45614 0.0
C808 C 0.17725 0.54482 0.4387 0.0
C809 C 0.1964 0.54025 0.42535 0.0
C810 C 0.18189 0.53881 0.45705 0.0
C811 C 0.2346 0.53216 0.49029 0.0
H812 H 0.17833 0.50735 0.52117 0.0
C813 C 0.20325 0.51616 0.57164 0.0
C814 C 0.21177 0.54028 0.57847 0.0
C815 C 0.20672 0.50987 0.55315 0.0
C816 C 0.19453 0.51378 0.5128 0.0
H817 H 0.23525 0.52527 0.42065 0.0
H818 H 0.24346 0.51478 0.45297 0.0
H819 H 0.17321 0.50696 0.48807 0.0
H820 H 0.23229 0.57592 0.57168 0.0
H821 H 0.23781 0.5653 0.5394 0.0
H822 H 0.25575 0.5394 0.51511 0.0
C823 C 0.22488 0.52309 0.44915 0.0
C824 C 0.19143 0.51385 0.49379 0.0
C825 C 0.22014 0.52897 0.43067 0.0
C826 C 0.22548 0.55718 0.56679 0.0
C827 C 0.22877 0.55099 0.54827 0.0
C828 C 0.23774 0.53204 0.50936 0.0
C829 C 0.20583 0.52814 0.46254 0.0
C830 C 0.21105 0.52387 0.48235 0.0
C831 C 0.21857 0.52767 0.54108 0.0
C832 C 0.2174 0.52361 0.52087 0.0
H833 H 0.15876 0.5535 0.43504 0.0
H834 H 0.16696 0.54335 0.46704 0.0
H835 H 0.25007 0.54004 0.48184 0.0
H836 H 0.19283 0.50263 0.58038 0.0
H837 H 0.19913 0.4915 0.54815 0.0
C838 C 0.44123 0.20265 0.94337 0.0
C839 C 0.46043 0.20555 0.92983 0.0
C840 C 0.44593 0.21069 0.96129 0.0
C841 C 0.49278 0.21472 0.9961 0.0
H842 H 0.44212 0.25951 0.01973 0.0
C843 C 0.4806 0.21815 0.07517 0.0
C844 C 0.45464 0.21309 0.08016 0.0
C845 C 0.48675 0.22498 0.05704 0.0
C846 C 0.45664 0.24721 0.01334 0.0
H847 H 0.49972 0.21894 0.92436 0.0
H848 H 0.50839 0.23217 0.95633 0.0
H849 H 0.44323 0.25654 0.98632 0.0
H850 H 0.41472 0.21249 0.0705 0.0
H851 H 0.42529 0.22442 0.03922 0.0
H852 H 0.50467 0.20359 0.02316 0.0
C853 C 0.48956 0.22409 0.95277 0.0
C854 C 0.45734 0.24564 0.99425 0.0
C855 C 0.4846 0.21655 0.93459 0.0
C856 C 0.43492 0.21617 0.06703 0.0
C857 C 0.44098 0.22328 0.04912 0.0
C858 C 0.49194 0.21611 0.01528 0.0
C859 C 0.4701 0.22138 0.96617 0.0
C860 C 0.47458 0.22849 0.98553 0.0
C861 C 0.46697 0.22732 0.04379 0.0
C862 C 0.47292 0.23135 0.02406 0.0
H863 H 0.42237 0.19436 0.94008 0.0
H864 H 0.43076 0.20814 0.97147 0.0
H865 H 0.50614 0.20126 0.98962 0.0
H866 H 0.49616 0.21585 0.08506 0.0
H867 H 0.50695 0.22797 0.0533 0.0
C868 C 0.80878 0.40961 0.42979 0.0
C869 C 0.80501 0.43143 0.41854 0.0
C870 C 0.80506 0.41134 0.44865 0.0
C871 C 0.77716 0.45109 0.48618 0.0
H872 H 0.82963 0.41464 0.51448 0.0
C873 C 0.79421 0.45842 0.56578 0.0
C874 C 0.79899 0.43446 0.57447 0.0
C875 C 0.79128 0.45958 0.54668 0.0
C876 C 0.81472 0.42476 0.50677 0.0
H877 H 0.79336 0.47195 0.41803 0.0
H878 H 0.78746 0.47523 0.45137 0.0
H879 H 0.83194 0.41421 0.48125 0.0
H880 H 0.80246 0.3928 0.57025 0.0
H881 H 0.79735 0.39485 0.53713 0.0
H882 H 0.76035 0.46195 0.51211 0.0
C883 C 0.79298 0.45668 0.44549 0.0
C884 C 0.81596 0.42446 0.48772 0.0
C885 C 0.79644 0.45484 0.42645 0.0
C886 C 0.79911 0.41158 0.56393 0.0
C887 C 0.79626 0.41275 0.54496 0.0
C888 C 0.77604 0.45157 0.50541 0.0
C889 C 0.79787 0.43505 0.45682 0.0
C890 C 0.79693 0.43711 0.47715 0.0
C891 C 0.79319 0.4368 0.53608 0.0
C892 C 0.79456 0.43793 0.51582 0.0
H893 H 0.81498 0.39119 0.42403 0.0
H894 H 0.80825 0.39409 0.4569 0.0
H895 H 0.76221 0.46104 0.47842 0.0
H896 H 0.79398 0.47635 0.5736 0.0
H897 H 0.78893 0.47835 0.54012 0.0
C898 C 0.52548 0.82144 0.06295 0.0
C899 C 0.52703 0.80161 0.07615 0.0
C900 C 0.5195 0.81557 0.04474 0.0
C901 C 0.49757 0.79902 0.00786 0.0
H902 H 0.54365 0.74722 0.98692 0.0
C903 C 0.50827 0.78625 0.92946 0.0
C904 C 0.53434 0.78862 0.92386 0.0
C905 C 0.50225 0.78185 0.94796 0.0
C906 C 0.53041 0.76151 0.99259 0.0
H907 H 0.52258 0.76019 0.08087 0.0
H908 H 0.51254 0.74977 0.04878 0.0
H909 H 0.54077 0.75182 0.02021 0.0
H910 H 0.57451 0.78673 0.93287 0.0
H911 H 0.56408 0.77874 0.96493 0.0
H912 H 0.48828 0.80965 0.98023 0.0
C913 C 0.51583 0.76989 0.05262 0.0
C914 C 0.5286 0.76401 0.01164 0.0
C915 C 0.52145 0.77585 0.07096 0.0
C916 C 0.55423 0.78508 0.93682 0.0
C917 C 0.54825 0.7803 0.95517 0.0
C918 C 0.49921 0.79637 0.98881 0.0
C919 C 0.51524 0.78967 0.03928 0.0
C920 C 0.51291 0.78346 0.01945 0.0
C921 C 0.52222 0.77928 0.96104 0.0
C922 C 0.5164 0.77825 0.98098 0.0
H923 H 0.52964 0.84148 0.06657 0.0
H924 H 0.51953 0.8312 0.03477 0.0
H925 H 0.48514 0.81403 0.01352 0.0
H926 H 0.49256 0.78896 0.91974 0.0
H927 H 0.48201 0.78107 0.95212 0.0
C928 C 0.1993 0.34967 0.13416 0.0
C929 C 0.20851 0.36955 0.1226 0.0
C930 C 0.21206 0.32561 0.13483 0.0
C931 C 0.26049 0.28421 0.11084 0.0
H932 H 0.2826 0.26495 0.15985 0.0
C933 C 0.35565 0.23728 0.14485 0.0
C934 C 0.35934 0.21472 0.13431 0.0
C935 C 0.33203 0.25059 0.14431 0.0
C936 C 0.27633 0.26988 0.14609 0.0
H937 H 0.23724 0.37942 0.10194 0.0
H938 H 0.25929 0.33755 0.103 0.0
H939 H 0.24972 0.29875 0.15586 0.0
H940 H 0.341 0.18785 0.11535 0.0
H941 H 0.29958 0.21159 0.11409 0.0
H942 H 0.28813 0.25628 0.10107 0.0
C943 C 0.24227 0.34041 0.11154 0.0
C944 C 0.25736 0.28908 0.14381 0.0
C945 C 0.22976 0.36449 0.11103 0.0
C946 C 0.33862 0.20519 0.12364 0.0
C947 C 0.31502 0.21879 0.12287 0.0
C948 C 0.27931 0.26485 0.11314 0.0
C949 C 0.23398 0.32093 0.12376 0.0
C950 C 0.24995 0.29712 0.12614 0.0
C951 C 0.31165 0.24182 0.13303 0.0
C952 C 0.28811 0.2582 0.13077 0.0
H953 H 0.18294 0.35307 0.14322 0.0
H954 H 0.20518 0.3109 0.14432 0.0
H955 H 0.25495 0.28986 0.09707 0.0
H956 H 0.37127 0.24503 0.15324 0.0
H957 H 0.33017 0.26845 0.1521 0.0
C958 C 0.78395 0.35267 0.65763 0.0
C959 C 0.80435 0.35565 0.64498 0.0
C960 C 0.77126 0.32879 0.65951 0.0
C961 C 0.75492 0.27181 0.63184 0.0
H962 H 0.7208 0.25029 0.67681 0.0
C963 C 0.67141 0.19546 0.63288 0.0
C964 C 0.64898 0.20534 0.64142 0.0
C965 C 0.69545 0.20809 0.63509 0.0
C966 C 0.73037 0.25591 0.66417 0.0
H967 H 0.8286 0.33556 0.62521 0.0
H968 H 0.80639 0.29357 0.62857 0.0
H969 H 0.75553 0.28276 0.67798 0.0
H970 H 0.63424 0.23532 0.65958 0.0
H971 H 0.67597 0.257 0.66361 0.0
H972 H 0.72899 0.24563 0.61798 0.0
C973 C 0.80007 0.30984 0.63689 0.0
C974 C 0.7502 0.27454 0.66482 0.0
C975 C 0.81291 0.33381 0.63507 0.0
C976 C 0.65118 0.22732 0.65277 0.0
C977 C 0.67514 0.23961 0.65521 0.0
C978 C 0.73516 0.25303 0.63121 0.0
C979 C 0.7786 0.30728 0.64876 0.0
C980 C 0.76194 0.28353 0.64858 0.0
C981 C 0.69747 0.23043 0.64617 0.0
C982 C 0.72197 0.24571 0.64728 0.0
H983 H 0.77694 0.36914 0.66548 0.0
H984 H 0.75463 0.32769 0.66862 0.0
H985 H 0.76337 0.2784 0.61904 0.0
H986 H 0.67021 0.17855 0.62403 0.0
H987 H 0.71238 0.20062 0.62797 0.0
C988 C 0.76403 0.639 0.10287 0.0
C989 C 0.78553 0.63591 0.11454 0.0
C990 C 0.75142 0.66292 0.10157 0.0
C991 C 0.73705 0.72025 0.12889 0.0
H992 H 0.70456 0.74291 0.08361 0.0
C993 C 0.65478 0.79762 0.12721 0.0
C994 C 0.6325 0.7881 0.11822 0.0
C995 C 0.67872 0.78481 0.12528 0.0
C996 C 0.71368 0.73699 0.09634 0.0
H997 H 0.81133 0.65563 0.13355 0.0
H998 H 0.78892 0.69771 0.13144 0.0
H999 H 0.73837 0.70961 0.08272 0.0
H1000 H 0.61794 0.7586 0.09956 0.0
H1001 H 0.65948 0.7366 0.09602 0.0
H1002 H 0.71141 0.74681 0.14256 0.0
C1003 C 0.78193 0.68151 0.12329 0.0
C1004 C 0.73299 0.71792 0.09584 0.0
C1005 C 0.79479 0.65751 0.12443 0.0
C1006 C 0.63477 0.76632 0.10671 0.0
C1007 C 0.65863 0.75384 0.10456 0.0
C1008 C 0.71773 0.73943 0.12938 0.0
C1009 C 0.75987 0.68434 0.11201 0.0
C1010 C 0.74405 0.70851 0.11217 0.0
C1011 C 0.68078 0.76264 0.11404 0.0
C1012 C 0.70508 0.74713 0.11317 0.0
H1013 H 0.75649 0.62271 0.09504 0.0
H1014 H 0.73426 0.66427 0.09298 0.0
H1015 H 0.74511 0.71334 0.14172 0.0
H1016 H 0.65351 0.81436 0.13619 0.0
H1017 H 0.6955 0.79199 0.13274 0.0
C1018 C 0.19881 0.66406 0.61504 0.0
C1019 C 0.19882 0.64873 0.631 0.0
C1020 C 0.21184 0.68799 0.6147 0.0
C1021 C 0.2454 0.73772 0.6436 0.0
H1022 H 0.29216 0.74211 0.60198 0.0
C1023 C 0.3429 0.79345 0.64522 0.0
C1024 C 0.3533 0.80322 0.62878 0.0
C1025 C 0.31902 0.78032 0.64529 0.0
C1026 C 0.27888 0.74171 0.61351 0.0
H1027 H 0.21087 0.64727 0.65948 0.0
H1028 H 0.23377 0.68886 0.65886 0.0
H1029 H 0.25869 0.70883 0.60254 0.0
H1030 H 0.34586 0.8089 0.5998 0.0
H1031 H 0.30381 0.78671 0.59997 0.0
H1032 H 0.26624 0.77024 0.65478 0.0
C1033 C 0.22359 0.68256 0.64663 0.0
C1034 C 0.25962 0.7225 0.61384 0.0
C1035 C 0.21055 0.65863 0.64696 0.0
C1036 C 0.33844 0.80136 0.61266 0.0
C1037 C 0.31444 0.78845 0.61275 0.0
C1038 C 0.26465 0.75707 0.64323 0.0
C1039 C 0.22517 0.69708 0.63031 0.0
C1040 C 0.24302 0.71987 0.62905 0.0
C1041 C 0.3049 0.77687 0.62892 0.0
C1042 C 0.28205 0.75892 0.62836 0.0
H1043 H 0.1898 0.65703 0.60255 0.0
H1044 H 0.21231 0.69893 0.602 0.0
H1045 H 0.23271 0.7364 0.65542 0.0
H1046 H 0.35392 0.79455 0.65787 0.0
H1047 H 0.31248 0.77153 0.65798 0.0
C1048 C 0.35088 0.78793 0.35594 0.0
C1049 C 0.36077 0.80143 0.37119 0.0
C1050 C 0.32707 0.77483 0.35705 0.0
C1051 C 0.28747 0.743 0.39242 0.0
H1052 H 0.24468 0.72432 0.3506 0.0
C1053 C 0.20256 0.66324 0.3705 0.0
C1054 C 0.21465 0.641 0.3778 0.0
C1055 C 0.2152 0.68746 0.37108 0.0
C1056 C 0.25608 0.72965 0.36253 0.0
H1057 H 0.35236 0.81396 0.39894 0.0
H1058 H 0.3104 0.79172 0.40074 0.0
H1059 H 0.27494 0.7609 0.34826 0.0
H1060 H 0.24901 0.62679 0.39187 0.0
H1061 H 0.27092 0.66863 0.39282 0.0
H1062 H 0.26896 0.71158 0.40659 0.0
C1063 C 0.32139 0.79056 0.38809 0.0
C1064 C 0.27365 0.75044 0.36113 0.0
C1065 C 0.34535 0.80346 0.38703 0.0
C1066 C 0.23917 0.64355 0.38613 0.0
C1067 C 0.25165 0.66763 0.38681 0.0
C1068 C 0.26988 0.72236 0.39383 0.0
C1069 C 0.31249 0.77513 0.3734 0.0
C1070 C 0.29026 0.75675 0.37584 0.0
C1071 C 0.24 0.68985 0.37914 0.0
C1072 C 0.25473 0.71479 0.37869 0.0
H1073 H 0.36231 0.78604 0.34352 0.0
H1074 H 0.32104 0.76303 0.34549 0.0
H1075 H 0.3 0.74705 0.40403 0.0
H1076 H 0.18366 0.66181 0.36398 0.0
H1077 H 0.20569 0.70425 0.36512 0.0
C1078 C 0.34425 0.20537 0.87091 0.0
C1079 C 0.36617 0.21687 0.87918 0.0
C1080 C 0.32008 0.21798 0.8714 0.0
C1081 C 0.28395 0.26901 0.8963 0.0
H1082 H 0.25197 0.28554 0.84954 0.0
C1083 C 0.23568 0.36559 0.88218 0.0
C1084 C 0.21191 0.36674 0.87274 0.0
C1085 C 0.24855 0.342 0.88438 0.0
C1086 C 0.26023 0.28055 0.86275 0.0
H1087 H 0.37993 0.25 0.8949 0.0
H1088 H 0.33799 0.27172 0.89592 0.0
H1089 H 0.28622 0.25246 0.85103 0.0
H1090 H 0.18281 0.34413 0.85821 0.0
H1091 H 0.20602 0.30247 0.86161 0.0
H1092 H 0.25922 0.2982 0.90785 0.0
C1093 C 0.33931 0.25304 0.88908 0.0
C1094 C 0.27981 0.26165 0.86361 0.0
C1095 C 0.3634 0.24071 0.88835 0.0
C1096 C 0.20112 0.34371 0.86557 0.0
C1097 C 0.21434 0.31998 0.86749 0.0
C1098 C 0.26448 0.28784 0.89544 0.0
C1099 C 0.31744 0.24196 0.8805 0.0
C1100 C 0.29268 0.25667 0.88026 0.0
C1101 C 0.23813 0.31898 0.87699 0.0
C1102 C 0.25335 0.29466 0.87853 0.0
H1103 H 0.34593 0.18699 0.86372 0.0
H1104 H 0.30351 0.2091 0.86464 0.0
H1105 H 0.29324 0.26518 0.90937 0.0
H1106 H 0.24442 0.383 0.88792 0.0
H1107 H 0.26707 0.34187 0.8915 0.0
C1108 C 0.66189 0.19134 0.36666 0.0
C1109 C 0.63969 0.19987 0.35717 0.0
C1110 C 0.68598 0.20358 0.36387 0.0
C1111 C 0.72021 0.2519 0.33383 0.0
H1112 H 0.75376 0.27297 0.37913 0.0
C1113 C 0.76923 0.35043 0.34436 0.0
C1114 C 0.79288 0.35196 0.35394 0.0
C1115 C 0.75641 0.32666 0.34237 0.0
C1116 C 0.74501 0.26681 0.36632 0.0
H1117 H 0.62555 0.2267 0.33651 0.0
H1118 H 0.66707 0.24815 0.33182 0.0
H1119 H 0.72016 0.23937 0.37979 0.0
H1120 H 0.82205 0.32983 0.36865 0.0
H1121 H 0.79899 0.28801 0.36568 0.0
H1122 H 0.74382 0.2808 0.32063 0.0
C1123 C 0.66625 0.2319 0.34127 0.0
C1124 C 0.72577 0.24749 0.36666 0.0
C1125 C 0.6423 0.21972 0.34407 0.0
C1126 C 0.80385 0.32911 0.36115 0.0
C1127 C 0.79069 0.30528 0.3595 0.0
C1128 C 0.73921 0.27139 0.33353 0.0
C1129 C 0.68827 0.2245 0.35149 0.0
C1130 C 0.7124 0.24056 0.35052 0.0
C1131 C 0.76674 0.30393 0.3502 0.0
C1132 C 0.75109 0.27968 0.34987 0.0
H1133 H 0.66044 0.17602 0.37682 0.0
H1134 H 0.70262 0.1972 0.3718 0.0
H1135 H 0.71076 0.2466 0.32108 0.0
H1136 H 0.76039 0.36775 0.33861 0.0
H1137 H 0.73782 0.32625 0.33535 0.0
C1138 C 0.79284 0.65987 0.87241 0.0
C1139 C 0.78265 0.63804 0.86324 0.0
C1140 C 0.78036 0.68405 0.87107 0.0
C1141 C 0.7315 0.72015 0.84363 0.0
H1142 H 0.70914 0.74946 0.89004 0.0
C1143 C 0.63162 0.76394 0.85437 0.0
C1144 C 0.62847 0.78638 0.8651 0.0
C1145 C 0.65605 0.75256 0.85243 0.0
C1146 C 0.71573 0.74199 0.87695 0.0
H1147 H 0.75232 0.62452 0.84485 0.0
H1148 H 0.73084 0.6664 0.84239 0.0
H1149 H 0.74354 0.71663 0.88957 0.0
H1150 H 0.64839 0.81487 0.88199 0.0
H1151 H 0.69139 0.79432 0.87901 0.0
H1152 H 0.7025 0.74418 0.83113 0.0
C1153 C 0.74838 0.66507 0.85059 0.0
C1154 C 0.73543 0.72322 0.87667 0.0
C1155 C 0.76054 0.64099 0.85214 0.0
C1156 C 0.65035 0.79756 0.87363 0.0
C1157 C 0.67486 0.78584 0.87194 0.0
C1158 C 0.71182 0.73881 0.84392 0.0
C1159 C 0.75786 0.68678 0.86024 0.0
C1160 C 0.74254 0.7112 0.86009 0.0
C1161 C 0.67785 0.76316 0.86137 0.0
C1162 C 0.70288 0.74894 0.86066 0.0
H1163 H 0.80988 0.65805 0.88107 0.0
H1164 H 0.78803 0.70049 0.87867 0.0
H1165 H 0.73697 0.71154 0.83063 0.0
H1166 H 0.61511 0.75497 0.84758 0.0
H1167 H 0.65768 0.73484 0.84444 0.0
loop_
_geom_bond_atom_site_label_1
_geom_bond_atom_site_label_2
_geom_bond_distance
_geom_bond_site_symmetry_2
_ccdc_geom_bond_type
In0 O1 2.294 . S
In0 O2 2.326 . S
In0 O6 2.266 . S
In0 O7 2.326 . S
In0 O8 2.266 . S
In0 O9 2.326 . S
In0 O11 2.294 . S
In0 O12 2.326 . S
O1 In0 2.294 . S
O1 C10 1.240 . S
O2 In0 2.326 . S
O2 C10 1.252 . S
C3 O6 1.252 . S
C3 O7 1.260 . S
C4 O11 1.240 . S
C4 O12 1.252 . S
C5 O8 1.252 . S
C5 O9 1.260 . S
O6 In0 2.266 . S
O6 C3 1.252 . S
O7 In0 2.326 . S
O7 C3 1.260 . S
O8 In0 2.266 . S
O8 C5 1.252 . S
O9 In0 2.326 . S
O9 C5 1.260 . S
C10 O1 1.240 . S
C10 O2 1.252 . S
O11 In0 2.294 . S
O11 C4 1.240 . S
O12 In0 2.326 . S
O12 C4 1.252 . S
In13 O14 2.294 . S
In13 O15 2.326 . S
In13 O19 2.266 . S
In13 O20 2.326 . S
In13 O21 2.266 . S
In13 O22 2.326 . S
In13 O24 2.294 . S
In13 O25 2.326 . S
O14 In13 2.294 . S
O14 C23 1.240 . S
O15 In13 2.326 . S
O15 C23 1.252 . S
C16 O19 1.252 . S
C16 O20 1.260 . S
C17 O24 1.240 . S
C17 O25 1.252 . S
C18 O21 1.252 . S
C18 O22 1.260 . S
O19 In13 2.266 . S
O19 C16 1.252 . S
O20 In13 2.326 . S
O20 C16 1.260 . S
O21 In13 2.266 . S
O21 C18 1.252 . S
O22 In13 2.326 . S
O22 C18 1.260 . S
C23 O14 1.240 . S
C23 O15 1.252 . S
O24 In13 2.294 . S
O24 C17 1.240 . S
O25 In13 2.326 . S
O25 C17 1.252 . S
In26 O27 2.294 . S
In26 O28 2.326 . S
In26 O32 2.266 . S
In26 O33 2.326 . S
In26 O34 2.266 . S
In26 O35 2.326 . S
In26 O37 2.294 . S
In26 O38 2.326 . S
O27 In26 2.294 . S
O27 C36 1.240 . S
O28 In26 2.326 . S
O28 C36 1.252 . S
C29 O32 1.252 . S
C29 O33 1.260 . S
C30 O37 1.240 . S
C30 O38 1.252 . S
C31 O34 1.252 . S
C31 O35 1.260 . S
O32 In26 2.266 . S
O32 C29 1.252 . S
O33 In26 2.326 . S
O33 C29 1.260 . S
O34 In26 2.266 . S
O34 C31 1.252 . S
O35 In26 2.326 . S
O35 C31 1.260 . S
C36 O27 1.240 . S
C36 O28 1.252 . S
O37 In26 2.294 . S
O37 C30 1.240 . S
O38 In26 2.326 . S
O38 C30 1.252 . S
In39 O40 2.294 . S
In39 O41 2.326 . S
In39 O45 2.266 . S
In39 O46 2.326 . S
In39 O47 2.266 . S
In39 O48 2.326 . S
In39 O50 2.294 . S
In39 O51 2.326 . S
O40 In39 2.294 . S
O40 C49 1.240 . S
O41 In39 2.326 . S
O41 C49 1.252 . S
C42 O45 1.252 . S
C42 O46 1.260 . S
C43 O50 1.240 . S
C43 O51 1.252 . S
C44 O47 1.252 . S
C44 O48 1.260 . S
O45 In39 2.266 . S
O45 C42 1.252 . S
O46 In39 2.326 . S
O46 C42 1.260 . S
O47 In39 2.266 . S
O47 C44 1.252 . S
O48 In39 2.326 . S
O48 C44 1.260 . S
C49 O40 1.240 . S
C49 O41 1.252 . S
O50 In39 2.294 . S
O50 C43 1.240 . S
O51 In39 2.326 . S
O51 C43 1.252 . S
In52 O53 2.294 . S
In52 O54 2.326 . S
In52 O58 2.266 . S
In52 O59 2.326 . S
In52 O60 2.266 . S
In52 O61 2.326 . S
In52 O63 2.294 . S
In52 O64 2.326 . S
O53 In52 2.294 . S
O53 C62 1.240 . S
O54 In52 2.326 . S
O54 C62 1.252 . S
C55 O58 1.252 . S
C55 O59 1.260 . S
C56 O63 1.240 . S
C56 O64 1.252 . S
C57 O60 1.252 . S
C57 O61 1.260 . S
O58 In52 2.266 . S
O58 C55 1.252 . S
O59 In52 2.326 . S
O59 C55 1.260 . S
O60 In52 2.266 . S
O60 C57 1.252 . S
O61 In52 2.326 . S
O61 C57 1.260 . S
C62 O53 1.240 . S
C62 O54 1.252 . S
O63 In52 2.294 . S
O63 C56 1.240 . S
O64 In52 2.326 . S
O64 C56 1.252 . S
In65 O66 2.294 . S
In65 O67 2.326 . S
In65 O71 2.266 . S
In65 O72 2.326 . S
In65 O73 2.266 . S
In65 O74 2.326 . S
In65 O76 2.294 . S
In65 O77 2.326 . S
O66 In65 2.294 . S
O66 C75 1.240 . S
O67 In65 2.326 . S
O67 C75 1.252 . S
C68 O71 1.252 . S
C68 O72 1.260 . S
C69 O76 1.240 . S
C69 O77 1.252 . S
C70 O73 1.252 . S
C70 O74 1.260 . S
O71 In65 2.266 . S
O71 C68 1.252 . S
O72 In65 2.326 . S
O72 C68 1.260 . S
O73 In65 2.266 . S
O73 C70 1.252 . S
O74 In65 2.326 . S
O74 C70 1.260 . S
C75 O66 1.240 . S
C75 O67 1.252 . S
O76 In65 2.294 . S
O76 C69 1.240 . S
O77 In65 2.326 . S
O77 C69 1.252 . S
In78 O79 2.294 . S
In78 O80 2.326 . S
In78 O84 2.266 . S
In78 O85 2.326 . S
In78 O86 2.266 . S
In78 O87 2.326 . S
In78 O89 2.294 . S
In78 O90 2.326 . S
O79 In78 2.294 . S
O79 C88 1.240 . S
O80 In78 2.326 . S
O80 C88 1.252 . S
C81 O84 1.252 . S
C81 O85 1.260 . S
C82 O89 1.240 . S
C82 O90 1.252 . S
C83 O86 1.252 . S
C83 O87 1.260 . S
O84 In78 2.266 . S
O84 C81 1.252 . S
O85 In78 2.326 . S
O85 C81 1.260 . S
O86 In78 2.266 . S
O86 C83 1.252 . S
O87 In78 2.326 . S
O87 C83 1.260 . S
C88 O79 1.240 . S
C88 O80 1.252 . S
O89 In78 2.294 . S
O89 C82 1.240 . S
O90 In78 2.326 . S
O90 C82 1.252 . S
In91 O92 2.294 . S
In91 O93 2.326 . S
In91 O97 2.266 . S
In91 O98 2.326 . S
In91 O99 2.266 . S
In91 O100 2.326 . S
In91 O102 2.294 . S
In91 O103 2.326 . S
O92 In91 2.294 . S
O92 C101 1.240 . S
O93 In91 2.326 . S
O93 C101 1.252 . S
C94 O97 1.252 . S
C94 O98 1.260 . S
C95 O102 1.240 . S
C95 O103 1.252 . S
C96 O99 1.252 . S
C96 O100 1.260 . S
O97 In91 2.266 . S
O97 C94 1.252 . S
O98 In91 2.326 . S
O98 C94 1.260 . S
O99 In91 2.266 . S
O99 C96 1.252 . S
O100 In91 2.326 . S
O100 C96 1.260 . S
C101 O92 1.240 . S
C101 O93 1.252 . S
O102 In91 2.294 . S
O102 C95 1.240 . S
O103 In91 2.326 . S
O103 C95 1.252 . S
In104 O105 2.294 . S
In104 O106 2.326 . S
In104 O110 2.266 . S
In104 O111 2.326 . S
In104 O112 2.266 . S
In104 O113 2.326 . S
In104 O115 2.294 . S
In104 O116 2.326 . S
O105 In104 2.294 . S
O105 C114 1.240 . S
O106 In104 2.326 . S
O106 C114 1.252 . S
C107 O110 1.252 . S
C107 O111 1.260 . S
C108 O115 1.240 . S
C108 O116 1.252 . S
C109 O112 1.252 . S
C109 O113 1.260 . S
O110 In104 2.266 . S
O110 C107 1.252 . S
O111 In104 2.326 . S
O111 C107 1.260 . S
O112 In104 2.266 . S
O112 C109 1.252 . S
O113 In104 2.326 . S
O113 C109 1.260 . S
C114 O105 1.240 . S
C114 O106 1.252 . S
O115 In104 2.294 . S
O115 C108 1.240 . S
O116 In104 2.326 . S
O116 C108 1.252 . S
In117 O118 2.294 . S
In117 O119 2.326 . S
In117 O123 2.266 . S
In117 O124 2.326 . S
In117 O125 2.266 . S
In117 O126 2.326 . S
In117 O128 2.294 . S
In117 O129 2.326 . S
O118 In117 2.294 . S
O118 C127 1.240 . S
O119 In117 2.326 . S
O119 C127 1.252 . S
C120 O123 1.252 . S
C120 O124 1.260 . S
C121 O128 1.240 . S
C121 O129 1.252 . S
C122 O125 1.252 . S
C122 O126 1.260 . S
O123 In117 2.266 . S
O123 C120 1.252 . S
O124 In117 2.326 . S
O124 C120 1.260 . S
O125 In117 2.266 . S
O125 C122 1.252 . S
O126 In117 2.326 . S
O126 C122 1.260 . S
C127 O118 1.240 . S
C127 O119 1.252 . S
O128 In117 2.294 . S
O128 C121 1.240 . S
O129 In117 2.326 . S
O129 C121 1.252 . S
In130 O131 2.294 . S
In130 O132 2.326 . S
In130 O136 2.266 . S
In130 O137 2.326 . S
In130 O138 2.266 . S
In130 O139 2.326 . S
In130 O141 2.294 . S
In130 O142 2.326 . S
O131 In130 2.294 . S
O131 C140 1.240 . S
O132 In130 2.326 . S
O132 C140 1.252 . S
C133 O136 1.252 . S
C133 O137 1.260 . S
C134 O141 1.240 . S
C134 O142 1.252 . S
C135 O138 1.252 . S
C135 O139 1.260 . S
O136 In130 2.266 . S
O136 C133 1.252 . S
O137 In130 2.326 . S
O137 C133 1.260 . S
O138 In130 2.266 . S
O138 C135 1.252 . S
O139 In130 2.326 . S
O139 C135 1.260 . S
C140 O131 1.240 . S
C140 O132 1.252 . S
O141 In130 2.294 . S
O141 C134 1.240 . S
O142 In130 2.326 . S
O142 C134 1.252 . S
In143 O144 2.294 . S
In143 O145 2.326 . S
In143 O149 2.266 . S
In143 O150 2.326 . S
In143 O151 2.266 . S
In143 O152 2.326 . S
In143 O154 2.294 . S
In143 O155 2.326 . S
O144 In143 2.294 . S
O144 C153 1.240 . S
O145 In143 2.326 . S
O145 C153 1.252 . S
C146 O149 1.252 . S
C146 O150 1.260 . S
C147 O154 1.240 . S
C147 O155 1.252 . S
C148 O151 1.252 . S
C148 O152 1.260 . S
O149 In143 2.266 . S
O149 C146 1.252 . S
O150 In143 2.326 . S
O150 C146 1.260 . S
O151 In143 2.266 . S
O151 C148 1.252 . S
O152 In143 2.326 . S
O152 C148 1.260 . S
C153 O144 1.240 . S
C153 O145 1.252 . S
O154 In143 2.294 . S
O154 C147 1.240 . S
O155 In143 2.326 . S
O155 C147 1.252 . S
In156 O157 2.294 . S
In156 O158 2.326 . S
In156 O162 2.266 . S
In156 O163 2.326 . S
In156 O164 2.266 . S
In156 O165 2.326 . S
In156 O167 2.294 . S
In156 O168 2.326 . S
O157 In156 2.294 . S
O157 C166 1.240 . S
O158 In156 2.326 . S
O158 C166 1.252 . S
C159 O162 1.252 . S
C159 O163 1.260 . S
C160 O167 1.240 . S
C160 O168 1.252 . S
C161 O164 1.252 . S
C161 O165 1.260 . S
O162 In156 2.266 . S
O162 C159 1.252 . S
O163 In156 2.326 . S
O163 C159 1.260 . S
O164 In156 2.266 . S
O164 C161 1.252 . S
O165 In156 2.326 . S
O165 C161 1.260 . S
C166 O157 1.240 . S
C166 O158 1.252 . S
O167 In156 2.294 . S
O167 C160 1.240 . S
O168 In156 2.326 . S
O168 C160 1.252 . S
In169 O170 2.294 . S
In169 O171 2.326 . S
In169 O175 2.266 . S
In169 O176 2.326 . S
In169 O177 2.266 . S
In169 O178 2.326 . S
In169 O180 2.294 . S
In169 O181 2.326 . S
O170 In169 2.294 . S
O170 C179 1.240 . S
O171 In169 2.326 . S
O171 C179 1.252 . S
C172 O175 1.252 . S
C172 O176 1.260 . S
C173 O180 1.240 . S
C173 O181 1.252 . S
C174 O177 1.252 . S
C174 O178 1.260 . S
O175 In169 2.266 . S
O175 C172 1.252 . S
O176 In169 2.326 . S
O176 C172 1.260 . S
O177 In169 2.266 . S
O177 C174 1.252 . S
O178 In169 2.326 . S
O178 C174 1.260 . S
C179 O170 1.240 . S
C179 O171 1.252 . S
O180 In169 2.294 . S
O180 C173 1.240 . S
O181 In169 2.326 . S
O181 C173 1.252 . S
In182 O183 2.294 . S
In182 O184 2.326 . S
In182 O188 2.266 . S
In182 O189 2.326 . S
In182 O190 2.266 . S
In182 O191 2.326 . S
In182 O193 2.294 . S
In182 O194 2.326 . S
O183 In182 2.294 . S
O183 C192 1.240 . S
O184 In182 2.326 . S
O184 C192 1.252 . S
C185 O188 1.252 . S
C185 O189 1.260 . S
C186 O193 1.240 . S
C186 O194 1.252 . S
C187 O190 1.252 . S
C187 O191 1.260 . S
O188 In182 2.266 . S
O188 C185 1.252 . S
O189 In182 2.326 . S
O189 C185 1.260 . S
O190 In182 2.266 . S
O190 C187 1.252 . S
O191 In182 2.326 . S
O191 C187 1.260 . S
C192 O183 1.240 . S
C192 O184 1.252 . S
O193 In182 2.294 . S
O193 C186 1.240 . S
O194 In182 2.326 . S
O194 C186 1.252 . S
In195 O196 2.294 . S
In195 O197 2.326 . S
In195 O201 2.266 . S
In195 O202 2.326 . S
In195 O203 2.266 . S
In195 O204 2.326 . S
In195 O206 2.294 . S
In195 O207 2.326 . S
O196 In195 2.294 . S
O196 C205 1.240 . S
O197 In195 2.326 . S
O197 C205 1.252 . S
C198 O201 1.252 . S
C198 O202 1.260 . S
C199 O206 1.240 . S
C199 O207 1.252 . S
C200 O203 1.252 . S
C200 O204 1.260 . S
O201 In195 2.266 . S
O201 C198 1.252 . S
O202 In195 2.326 . S
O202 C198 1.260 . S
O203 In195 2.266 . S
O203 C200 1.252 . S
O204 In195 2.326 . S
O204 C200 1.260 . S
C205 O196 1.240 . S
C205 O197 1.252 . S
O206 In195 2.294 . S
O206 C199 1.240 . S
O207 In195 2.326 . S
O207 C199 1.252 . S
C208 C209 1.349 . S
C208 C210 1.327 . S
C208 H233 0.950 . S
C209 C208 1.349 . S
C209 C225 1.349 . S
C210 C208 1.327 . S
C210 C229 1.429 . S
C210 H234 0.950 . S
C211 C228 1.574 1_455 S
C211 C230 1.368 . S
C211 H235 0.949 . S
H212 C216 0.949 . S
C213 C214 1.349 . S
C213 C215 1.327 . S
C213 H236 0.950 . S
C214 C213 1.349 . S
C214 C226 1.349 . S
C215 C213 1.327 . S
C215 C231 1.429 . S
C215 H237 0.950 . S
C216 H212 0.949 . S
C216 C224 1.574 1_655 S
C216 C232 1.368 . S
H217 C225 0.950 . S
H218 C223 0.950 . S
H219 C224 0.949 . S
H220 C226 0.950 . S
H221 C227 0.950 . S
H222 C228 0.949 . S
C223 H218 0.950 . S
C223 C225 1.327 . S
C223 C229 1.429 . S
C224 C216 1.574 1_455 S
C224 H219 0.949 . S
C224 C230 1.368 . S
C225 C209 1.349 . S
C225 H217 0.950 . S
C225 C223 1.327 . S
C226 C214 1.349 . S
C226 H220 0.950 . S
C226 C227 1.327 . S
C227 H221 0.950 . S
C227 C226 1.327 . S
C227 C231 1.429 . S
C228 C211 1.574 1_655 S
C228 H222 0.949 . S
C228 C232 1.368 . S
C229 C210 1.429 . S
C229 C223 1.429 . S
C229 C230 1.523 . S
C230 C211 1.368 . S
C230 C224 1.368 . S
C230 C229 1.523 . S
C231 C215 1.429 . S
C231 C227 1.429 . S
C231 C232 1.523 . S
C232 C216 1.368 . S
C232 C228 1.368 . S
C232 C231 1.523 . S
H233 C208 0.950 . S
H234 C210 0.950 . S
H235 C211 0.949 . S
H236 C213 0.950 . S
H237 C215 0.950 . S
C238 C239 1.349 . S
C238 C240 1.327 . S
C238 H263 0.950 . S
C239 C238 1.349 . S
C239 C255 1.349 . S
C240 C238 1.327 . S
C240 C259 1.429 . S
C240 H264 0.950 . S
C241 C258 1.574 1_565 S
C241 C260 1.368 . S
C241 H265 0.949 . S
H242 C246 0.949 . S
C243 C244 1.349 . S
C243 C245 1.327 . S
C243 H266 0.950 . S
C244 C243 1.349 . S
C244 C256 1.349 . S
C245 C243 1.327 . S
C245 C261 1.429 . S
C245 H267 0.950 . S
C246 H242 0.949 . S
C246 C254 1.574 1_545 S
C246 C262 1.368 . S
H247 C255 0.950 . S
H248 C253 0.950 . S
H249 C254 0.949 . S
H250 C256 0.950 . S
H251 C257 0.950 . S
H252 C258 0.949 . S
C253 H248 0.950 . S
C253 C255 1.327 . S
C253 C259 1.429 . S
C254 C246 1.574 1_565 S
C254 H249 0.949 . S
C254 C260 1.368 . S
C255 C239 1.349 . S
C255 H247 0.950 . S
C255 C253 1.327 . S
C256 C244 1.349 . S
C256 H250 0.950 . S
C256 C257 1.327 . S
C257 H251 0.950 . S
C257 C256 1.327 . S
C257 C261 1.429 . S
C258 C241 1.574 1_545 S
C258 H252 0.949 . S
C258 C262 1.368 . S
C259 C240 1.429 . S
C259 C253 1.429 . S
C259 C260 1.523 . S
C260 C241 1.368 . S
C260 C254 1.368 . S
C260 C259 1.523 . S
C261 C245 1.429 . S
C261 C257 1.429 . S
C261 C262 1.523 . S
C262 C246 1.368 . S
C262 C258 1.368 . S
C262 C261 1.523 . S
H263 C238 0.950 . S
H264 C240 0.950 . S
H265 C241 0.949 . S
H266 C243 0.950 . S
H267 C245 0.950 . S
C268 C269 1.349 . S
C268 C270 1.327 . S
C268 H293 0.950 . S
C269 C268 1.349 . S
C269 C285 1.349 . S
C270 C268 1.327 . S
C270 C289 1.429 . S
C270 H294 0.950 . S
C271 C288 1.574 1_455 S
C271 C290 1.368 . S
C271 H295 0.949 . S
H272 C276 0.949 . S
C273 C274 1.349 . S
C273 C275 1.327 . S
C273 H296 0.950 . S
C274 C273 1.349 . S
C274 C286 1.349 . S
C275 C273 1.327 . S
C275 C291 1.429 . S
C275 H297 0.950 . S
C276 H272 0.949 . S
C276 C284 1.574 1_655 S
C276 C292 1.368 . S
H277 C285 0.950 . S
H278 C283 0.950 . S
H279 C284 0.949 . S
H280 C286 0.950 . S
H281 C287 0.950 . S
H282 C288 0.949 . S
C283 H278 0.950 . S
C283 C285 1.327 . S
C283 C289 1.429 . S
C284 C276 1.574 1_455 S
C284 H279 0.949 . S
C284 C290 1.368 . S
C285 C269 1.349 . S
C285 H277 0.950 . S
C285 C283 1.327 . S
C286 C274 1.349 . S
C286 H280 0.950 . S
C286 C287 1.327 . S
C287 H281 0.950 . S
C287 C286 1.327 . S
C287 C291 1.429 . S
C288 C271 1.574 1_655 S
C288 H282 0.949 . S
C288 C292 1.368 . S
C289 C270 1.429 . S
C289 C283 1.429 . S
C289 C290 1.523 . S
C290 C271 1.368 . S
C290 C284 1.368 . S
C290 C289 1.523 . S
C291 C275 1.429 . S
C291 C287 1.429 . S
C291 C292 1.523 . S
C292 C276 1.368 . S
C292 C288 1.368 . S
C292 C291 1.523 . S
H293 C268 0.950 . S
H294 C270 0.950 . S
H295 C271 0.949 . S
H296 C273 0.950 . S
H297 C275 0.950 . S
C298 C299 1.349 . S
C298 C300 1.327 . S
C298 H323 0.950 . S
C299 C298 1.349 . S
C299 C315 1.349 . S
C300 C298 1.327 . S
C300 C319 1.429 . S
C300 H324 0.950 . S
C301 C318 1.574 1_565 S
C301 C320 1.368 . S
C301 H325 0.949 . S
H302 C306 0.949 . S
C303 C304 1.349 . S
C303 C305 1.327 . S
C303 H326 0.950 . S
C304 C303 1.349 . S
C304 C316 1.349 . S
C305 C303 1.327 . S
C305 C321 1.429 . S
C305 H327 0.950 . S
C306 H302 0.949 . S
C306 C314 1.574 1_545 S
C306 C322 1.368 . S
H307 C315 0.950 . S
H308 C313 0.950 . S
H309 C314 0.949 . S
H310 C316 0.950 . S
H311 C317 0.950 . S
H312 C318 0.949 . S
C313 H308 0.950 . S
C313 C315 1.327 . S
C313 C319 1.429 . S
C314 C306 1.574 1_565 S
C314 H309 0.949 . S
C314 C320 1.368 . S
C315 C299 1.349 . S
C315 H307 0.950 . S
C315 C313 1.327 . S
C316 C304 1.349 . S
C316 H310 0.950 . S
C316 C317 1.327 . S
C317 H311 0.950 . S
C317 C316 1.327 . S
C317 C321 1.429 . S
C318 C301 1.574 1_545 S
C318 H312 0.949 . S
C318 C322 1.368 . S
C319 C300 1.429 . S
C319 C313 1.429 . S
C319 C320 1.523 . S
C320 C301 1.368 . S
C320 C314 1.368 . S
C320 C319 1.523 . S
C321 C305 1.429 . S
C321 C317 1.429 . S
C321 C322 1.523 . S
C322 C306 1.368 . S
C322 C318 1.368 . S
C322 C321 1.523 . S
H323 C298 0.950 . S
H324 C300 0.950 . S
H325 C301 0.949 . S
H326 C303 0.950 . S
H327 C305 0.950 . S
C328 C329 1.349 . S
C328 C330 1.327 . S
C328 H353 0.950 . S
C329 C328 1.349 . S
C329 C345 1.349 . S
C330 C328 1.327 . S
C330 C349 1.429 . S
C330 H354 0.950 . S
C331 C348 1.574 1_655 S
C331 C350 1.368 . S
C331 H355 0.949 . S
H332 C336 0.949 . S
C333 C334 1.349 . S
C333 C335 1.327 . S
C333 H356 0.950 . S
C334 C333 1.349 . S
C334 C346 1.349 . S
C335 C333 1.327 . S
C335 C351 1.429 . S
C335 H357 0.950 . S
C336 H332 0.949 . S
C336 C344 1.574 1_455 S
C336 C352 1.368 . S
H337 C345 0.950 . S
H338 C343 0.950 . S
H339 C344 0.949 . S
H340 C346 0.950 . S
H341 C347 0.950 . S
H342 C348 0.949 . S
C343 H338 0.950 . S
C343 C345 1.327 . S
C343 C349 1.429 . S
C344 C336 1.574 1_655 S
C344 H339 0.949 . S
C344 C350 1.368 . S
C345 C329 1.349 . S
C345 H337 0.950 . S
C345 C343 1.327 . S
C346 C334 1.349 . S
C346 H340 0.950 . S
C346 C347 1.327 . S
C347 H341 0.950 . S
C347 C346 1.327 . S
C347 C351 1.429 . S
C348 C331 1.574 1_455 S
C348 H342 0.949 . S
C348 C352 1.368 . S
C349 C330 1.429 . S
C349 C343 1.429 . S
C349 C350 1.523 . S
C350 C331 1.368 . S
C350 C344 1.368 . S
C350 C349 1.523 . S
C351 C335 1.429 . S
C351 C347 1.429 . S
C351 C352 1.523 . S
C352 C336 1.368 . S
C352 C348 1.368 . S
C352 C351 1.523 . S
H353 C328 0.950 . S
H354 C330 0.950 . S
H355 C331 0.949 . S
H356 C333 0.950 . S
H357 C335 0.950 . S
C358 C359 1.349 . S
C358 C360 1.327 . S
C358 H383 0.950 . S
C359 C358 1.349 . S
C359 C375 1.349 . S
C360 C358 1.327 . S
C360 C379 1.429 . S
C360 H384 0.950 . S
C361 C378 1.574 1_545 S
C361 C380 1.368 . S
C361 H385 0.949 . S
H362 C366 0.949 . S
C363 C364 1.349 . S
C363 C365 1.327 . S
C363 H386 0.950 . S
C364 C363 1.349 . S
C364 C376 1.349 . S
C365 C363 1.327 . S
C365 C381 1.429 . S
C365 H387 0.950 . S
C366 H362 0.949 . S
C366 C374 1.574 1_565 S
C366 C382 1.368 . S
H367 C375 0.950 . S
H368 C373 0.950 . S
H369 C374 0.949 . S
H370 C376 0.950 . S
H371 C377 0.950 . S
H372 C378 0.949 . S
C373 H368 0.950 . S
C373 C375 1.327 . S
C373 C379 1.429 . S
C374 C366 1.574 1_545 S
C374 H369 0.949 . S
C374 C380 1.368 . S
C375 C359 1.349 . S
C375 H367 0.950 . S
C375 C373 1.327 . S
C376 C364 1.349 . S
C376 H370 0.950 . S
C376 C377 1.327 . S
C377 H371 0.950 . S
C377 C376 1.327 . S
C377 C381 1.429 . S
C378 C361 1.574 1_565 S
C378 H372 0.949 . S
C378 C382 1.368 . S
C379 C360 1.429 . S
C379 C373 1.429 . S
C379 C380 1.523 . S
C380 C361 1.368 . S
C380 C374 1.368 . S
C380 C379 1.523 . S
C381 C365 1.429 . S
C381 C377 1.429 . S
C381 C382 1.523 . S
C382 C366 1.368 . S
C382 C378 1.368 . S
C382 C381 1.523 . S
H383 C358 0.950 . S
H384 C360 0.950 . S
H385 C361 0.949 . S
H386 C363 0.950 . S
H387 C365 0.950 . S
C388 C389 1.349 . S
C388 C390 1.327 . S
C388 H413 0.950 . S
C389 C388 1.349 . S
C389 C405 1.349 . S
C390 C388 1.327 . S
C390 C409 1.429 . S
C390 H414 0.950 . S
C391 C408 1.574 1_655 S
C391 C410 1.368 . S
C391 H415 0.949 . S
H392 C396 0.949 . S
C393 C394 1.349 . S
C393 C395 1.327 . S
C393 H416 0.950 . S
C394 C393 1.349 . S
C394 C406 1.349 . S
C395 C393 1.327 . S
C395 C411 1.429 . S
C395 H417 0.950 . S
C396 H392 0.949 . S
C396 C404 1.574 1_455 S
C396 C412 1.368 . S
H397 C405 0.950 . S
H398 C403 0.950 . S
H399 C404 0.949 . S
H400 C406 0.950 . S
H401 C407 0.950 . S
H402 C408 0.949 . S
C403 H398 0.950 . S
C403 C405 1.327 . S
C403 C409 1.429 . S
C404 C396 1.574 1_655 S
C404 H399 0.949 . S
C404 C410 1.368 . S
C405 C389 1.349 . S
C405 H397 0.950 . S
C405 C403 1.327 . S
C406 C394 1.349 . S
C406 H400 0.950 . S
C406 C407 1.327 . S
C407 H401 0.950 . S
C407 C406 1.327 . S
C407 C411 1.429 . S
C408 C391 1.574 1_455 S
C408 H402 0.949 . S
C408 C412 1.368 . S
C409 C390 1.429 . S
C409 C403 1.429 . S
C409 C410 1.523 . S
C410 C391 1.368 . S
C410 C404 1.368 . S
C410 C409 1.523 . S
C411 C395 1.429 . S
C411 C407 1.429 . S
C411 C412 1.523 . S
C412 C396 1.368 . S
C412 C408 1.368 . S
C412 C411 1.523 . S
H413 C388 0.950 . S
H414 C390 0.950 . S
H415 C391 0.949 . S
H416 C393 0.950 . S
H417 C395 0.950 . S
C418 C419 1.349 . S
C418 C420 1.327 . S
C418 H443 0.950 . S
C419 C418 1.349 . S
C419 C435 1.349 . S
C420 C418 1.327 . S
C420 C439 1.429 . S
C420 H444 0.950 . S
C421 C438 1.574 1_545 S
C421 C440 1.368 . S
C421 H445 0.949 . S
H422 C426 0.949 . S
C423 C424 1.349 . S
C423 C425 1.327 . S
C423 H446 0.950 . S
C424 C423 1.349 . S
C424 C436 1.349 . S
C425 C423 1.327 . S
C425 C441 1.429 . S
C425 H447 0.950 . S
C426 H422 0.949 . S
C426 C434 1.574 1_565 S
C426 C442 1.368 . S
H427 C435 0.950 . S
H428 C433 0.950 . S
H429 C434 0.949 . S
H430 C436 0.950 . S
H431 C437 0.950 . S
H432 C438 0.949 . S
C433 H428 0.950 . S
C433 C435 1.327 . S
C433 C439 1.429 . S
C434 C426 1.574 1_545 S
C434 H429 0.949 . S
C434 C440 1.368 . S
C435 C419 1.349 . S
C435 H427 0.950 . S
C435 C433 1.327 . S
C436 C424 1.349 . S
C436 H430 0.950 . S
C436 C437 1.327 . S
C437 H431 0.950 . S
C437 C436 1.327 . S
C437 C441 1.429 . S
C438 C421 1.574 1_565 S
C438 H432 0.949 . S
C438 C442 1.368 . S
C439 C420 1.429 . S
C439 C433 1.429 . S
C439 C440 1.523 . S
C440 C421 1.368 . S
C440 C434 1.368 . S
C440 C439 1.523 . S
C441 C425 1.429 . S
C441 C437 1.429 . S
C441 C442 1.523 . S
C442 C426 1.368 . S
C442 C438 1.368 . S
C442 C441 1.523 . S
H443 C418 0.950 . S
H444 C420 0.950 . S
H445 C421 0.949 . S
H446 C423 0.950 . S
H447 C425 0.950 . S
C448 C449 1.349 . S
C448 C450 1.327 . S
C448 H473 0.950 . S
C449 C448 1.349 . S
C449 C465 1.349 . S
C450 C448 1.327 . S
C450 C469 1.429 . S
C450 H474 0.950 . S
C451 C468 1.574 . S
C451 C470 1.368 . S
C451 H475 0.949 . S
H452 C456 0.949 . S
C453 C454 1.349 . S
C453 C455 1.327 . S
C453 H476 0.950 . S
C454 C453 1.349 . S
C454 C466 1.349 . S
C455 C453 1.327 . S
C455 C471 1.429 . S
C455 H477 0.950 . S
C456 H452 0.949 . S
C456 C464 1.574 . S
C456 C472 1.368 . S
H457 C465 0.950 . S
H458 C463 0.950 . S
H459 C464 0.949 . S
H460 C466 0.950 . S
H461 C467 0.950 . S
H462 C468 0.949 . S
C463 H458 0.950 . S
C463 C465 1.327 . S
C463 C469 1.429 . S
C464 C456 1.574 . S
C464 H459 0.949 . S
C464 C470 1.368 . S
C465 C449 1.349 . S
C465 H457 0.950 . S
C465 C463 1.327 . S
C466 C454 1.349 . S
C466 H460 0.950 . S
C466 C467 1.327 . S
C467 H461 0.950 . S
C467 C466 1.327 . S
C467 C471 1.429 . S
C468 C451 1.574 . S
C468 H462 0.949 . S
C468 C472 1.368 . S
C469 C450 1.429 . S
C469 C463 1.429 . S
C469 C470 1.523 . S
C470 C451 1.368 . S
C470 C464 1.368 . S
C470 C469 1.523 . S
C471 C455 1.429 . S
C471 C467 1.429 . S
C471 C472 1.523 . S
C472 C456 1.368 . S
C472 C468 1.368 . S
C472 C471 1.523 . S
H473 C448 0.950 . S
H474 C450 0.950 . S
H475 C451 0.949 . S
H476 C453 0.950 . S
H477 C455 0.950 . S
C478 C479 1.349 . S
C478 C480 1.327 . S
C478 H503 0.950 . S
C479 C478 1.349 . S
C479 C495 1.349 . S
C480 C478 1.327 . S
C480 C499 1.429 . S
C480 H504 0.950 . S
C481 C498 1.574 . S
C481 C500 1.368 . S
C481 H505 0.949 . S
H482 C486 0.949 . S
C483 C484 1.349 . S
C483 C485 1.327 . S
C483 H506 0.950 . S
C484 C483 1.349 . S
C484 C496 1.349 . S
C485 C483 1.327 . S
C485 C501 1.429 . S
C485 H507 0.950 . S
C486 H482 0.949 . S
C486 C494 1.574 . S
C486 C502 1.368 . S
H487 C495 0.950 . S
H488 C493 0.950 . S
H489 C494 0.949 . S
H490 C496 0.950 . S
H491 C497 0.950 . S
H492 C498 0.949 . S
C493 H488 0.950 . S
C493 C495 1.327 . S
C493 C499 1.429 . S
C494 C486 1.574 . S
C494 H489 0.949 . S
C494 C500 1.368 . S
C495 C479 1.349 . S
C495 H487 0.950 . S
C495 C493 1.327 . S
C496 C484 1.349 . S
C496 H490 0.950 . S
C496 C497 1.327 . S
C497 H491 0.950 . S
C497 C496 1.327 . S
C497 C501 1.429 . S
C498 C481 1.574 . S
C498 H492 0.949 . S
C498 C502 1.368 . S
C499 C480 1.429 . S
C499 C493 1.429 . S
C499 C500 1.523 . S
C500 C481 1.368 . S
C500 C494 1.368 . S
C500 C499 1.523 . S
C501 C485 1.429 . S
C501 C497 1.429 . S
C501 C502 1.523 . S
C502 C486 1.368 . S
C502 C498 1.368 . S
C502 C501 1.523 . S
H503 C478 0.950 . S
H504 C480 0.950 . S
H505 C481 0.949 . S
H506 C483 0.950 . S
H507 C485 0.950 . S
C508 C509 1.349 . S
C508 C510 1.327 . S
C508 H533 0.950 . S
C509 C508 1.349 . S
C509 C525 1.349 . S
C510 C508 1.327 . S
C510 C529 1.429 . S
C510 H534 0.950 . S
C511 C528 1.574 . S
C511 C530 1.368 . S
C511 H535 0.949 . S
H512 C516 0.949 . S
C513 C514 1.349 . S
C513 C515 1.327 . S
C513 H536 0.950 . S
C514 C513 1.349 . S
C514 C526 1.349 . S
C515 C513 1.327 . S
C515 C531 1.429 . S
C515 H537 0.950 . S
C516 H512 0.949 . S
C516 C524 1.574 . S
C516 C532 1.368 . S
H517 C525 0.950 . S
H518 C523 0.950 . S
H519 C524 0.949 . S
H520 C526 0.950 . S
H521 C527 0.950 . S
H522 C528 0.949 . S
C523 H518 0.950 . S
C523 C525 1.327 . S
C523 C529 1.429 . S
C524 C516 1.574 . S
C524 H519 0.949 . S
C524 C530 1.368 . S
C525 C509 1.349 . S
C525 H517 0.950 . S
C525 C523 1.327 . S
C526 C514 1.349 . S
C526 H520 0.950 . S
C526 C527 1.327 . S
C527 H521 0.950 . S
C527 C526 1.327 . S
C527 C531 1.429 . S
C528 C511 1.574 . S
C528 H522 0.949 . S
C528 C532 1.368 . S
C529 C510 1.429 . S
C529 C523 1.429 . S
C529 C530 1.523 . S
C530 C511 1.368 . S
C530 C524 1.368 . S
C530 C529 1.523 . S
C531 C515 1.429 . S
C531 C527 1.429 . S
C531 C532 1.523 . S
C532 C516 1.368 . S
C532 C528 1.368 . S
C532 C531 1.523 . S
H533 C508 0.950 . S
H534 C510 0.950 . S
H535 C511 0.949 . S
H536 C513 0.950 . S
H537 C515 0.950 . S
C538 C539 1.349 . S
C538 C540 1.327 . S
C538 H563 0.950 . S
C539 C538 1.349 . S
C539 C555 1.349 . S
C540 C538 1.327 . S
C540 C559 1.429 . S
C540 H564 0.950 . S
C541 C558 1.574 . S
C541 C560 1.368 . S
C541 H565 0.949 . S
H542 C546 0.949 . S
C543 C544 1.349 . S
C543 C545 1.327 . S
C543 H566 0.950 . S
C544 C543 1.349 . S
C544 C556 1.349 . S
C545 C543 1.327 . S
C545 C561 1.429 . S
C545 H567 0.950 . S
C546 H542 0.949 . S
C546 C554 1.574 . S
C546 C562 1.368 . S
H547 C555 0.950 . S
H548 C553 0.950 . S
H549 C554 0.949 . S
H550 C556 0.950 . S
H551 C557 0.950 . S
H552 C558 0.949 . S
C553 H548 0.950 . S
C553 C555 1.327 . S
C553 C559 1.429 . S
C554 C546 1.574 . S
C554 H549 0.949 . S
C554 C560 1.368 . S
C555 C539 1.349 . S
C555 H547 0.950 . S
C555 C553 1.327 . S
C556 C544 1.349 . S
C556 H550 0.950 . S
C556 C557 1.327 . S
C557 H551 0.950 . S
C557 C556 1.327 . S
C557 C561 1.429 . S
C558 C541 1.574 . S
C558 H552 0.949 . S
C558 C562 1.368 . S
C559 C540 1.429 . S
C559 C553 1.429 . S
C559 C560 1.523 . S
C560 C541 1.368 . S
C560 C554 1.368 . S
C560 C559 1.523 . S
C561 C545 1.429 . S
C561 C557 1.429 . S
C561 C562 1.523 . S
C562 C546 1.368 . S
C562 C558 1.368 . S
C562 C561 1.523 . S
H563 C538 0.950 . S
H564 C540 0.950 . S
H565 C541 0.949 . S
H566 C543 0.950 . S
H567 C545 0.950 . S
C568 C569 1.349 . S
C568 C570 1.327 . S
C568 H593 0.950 . S
C569 C568 1.349 . S
C569 C585 1.349 . S
C570 C568 1.327 . S
C570 C589 1.429 . S
C570 H594 0.950 . S
C571 C588 1.574 . S
C571 C590 1.368 . S
C571 H595 0.949 . S
H572 C576 0.949 . S
C573 C574 1.349 . S
C573 C575 1.327 . S
C573 H596 0.950 . S
C574 C573 1.349 . S
C574 C586 1.349 . S
C575 C573 1.327 . S
C575 C591 1.429 . S
C575 H597 0.950 . S
C576 H572 0.949 . S
C576 C584 1.574 . S
C576 C592 1.368 . S
H577 C585 0.950 . S
H578 C583 0.950 . S
H579 C584 0.949 . S
H580 C586 0.950 . S
H581 C587 0.950 . S
H582 C588 0.949 . S
C583 H578 0.950 . S
C583 C585 1.327 . S
C583 C589 1.429 . S
C584 C576 1.574 . S
C584 H579 0.949 . S
C584 C590 1.368 . S
C585 C569 1.349 . S
C585 H577 0.950 . S
C585 C583 1.327 . S
C586 C574 1.349 . S
C586 H580 0.950 . S
C586 C587 1.327 . S
C587 H581 0.950 . S
C587 C586 1.327 . S
C587 C591 1.429 . S
C588 C571 1.574 . S
C588 H582 0.949 . S
C588 C592 1.368 . S
C589 C570 1.429 . S
C589 C583 1.429 . S
C589 C590 1.523 . S
C590 C571 1.368 . S
C590 C584 1.368 . S
C590 C589 1.523 . S
C591 C575 1.429 . S
C591 C587 1.429 . S
C591 C592 1.523 . S
C592 C576 1.368 . S
C592 C588 1.368 . S
C592 C591 1.523 . S
H593 C568 0.950 . S
H594 C570 0.950 . S
H595 C571 0.949 . S
H596 C573 0.950 . S
H597 C575 0.950 . S
C598 C599 1.349 . S
C598 C600 1.327 . S
C598 H623 0.950 . S
C599 C598 1.349 . S
C599 C615 1.349 . S
C600 C598 1.327 . S
C600 C619 1.429 . S
C600 H624 0.950 . S
C601 C618 1.574 . S
C601 C620 1.368 . S
C601 H625 0.949 . S
H602 C606 0.949 . S
C603 C604 1.349 . S
C603 C605 1.327 . S
C603 H626 0.950 . S
C604 C603 1.349 . S
C604 C616 1.349 . S
C605 C603 1.327 . S
C605 C621 1.429 . S
C605 H627 0.950 . S
C606 H602 0.949 . S
C606 C614 1.574 . S
C606 C622 1.368 . S
H607 C615 0.950 . S
H608 C613 0.950 . S
H609 C614 0.949 . S
H610 C616 0.950 . S
H611 C617 0.950 . S
H612 C618 0.949 . S
C613 H608 0.950 . S
C613 C615 1.327 . S
C613 C619 1.429 . S
C614 C606 1.574 . S
C614 H609 0.949 . S
C614 C620 1.368 . S
C615 C599 1.349 . S
C615 H607 0.950 . S
C615 C613 1.327 . S
C616 C604 1.349 . S
C616 H610 0.950 . S
C616 C617 1.327 . S
C617 H611 0.950 . S
C617 C616 1.327 . S
C617 C621 1.429 . S
C618 C601 1.574 . S
C618 H612 0.949 . S
C618 C622 1.368 . S
C619 C600 1.429 . S
C619 C613 1.429 . S
C619 C620 1.523 . S
C620 C601 1.368 . S
C620 C614 1.368 . S
C620 C619 1.523 . S
C621 C605 1.429 . S
C621 C617 1.429 . S
C621 C622 1.523 . S
C622 C606 1.368 . S
C622 C618 1.368 . S
C622 C621 1.523 . S
H623 C598 0.950 . S
H624 C600 0.950 . S
H625 C601 0.949 . S
H626 C603 0.950 . S
H627 C605 0.950 . S
C628 C629 1.349 . S
C628 C630 1.327 . S
C628 H653 0.950 . S
C629 C628 1.349 . S
C629 C645 1.349 . S
C630 C628 1.327 . S
C630 C649 1.429 . S
C630 H654 0.950 . S
C631 C648 1.574 . S
C631 C650 1.368 . S
C631 H655 0.949 . S
H632 C636 0.949 . S
C633 C634 1.349 . S
C633 C635 1.327 . S
C633 H656 0.950 . S
C634 C633 1.349 . S
C634 C646 1.349 . S
C635 C633 1.327 . S
C635 C651 1.429 . S
C635 H657 0.950 . S
C636 H632 0.949 . S
C636 C644 1.574 . S
C636 C652 1.368 . S
H637 C645 0.950 . S
H638 C643 0.950 . S
H639 C644 0.949 . S
H640 C646 0.950 . S
H641 C647 0.950 . S
H642 C648 0.949 . S
C643 H638 0.950 . S
C643 C645 1.327 . S
C643 C649 1.429 . S
C644 C636 1.574 . S
C644 H639 0.949 . S
C644 C650 1.368 . S
C645 C629 1.349 . S
C645 H637 0.950 . S
C645 C643 1.327 . S
C646 C634 1.349 . S
C646 H640 0.950 . S
C646 C647 1.327 . S
C647 H641 0.950 . S
C647 C646 1.327 . S
C647 C651 1.429 . S
C648 C631 1.574 . S
C648 H642 0.949 . S
C648 C652 1.368 . S
C649 C630 1.429 . S
C649 C643 1.429 . S
C649 C650 1.523 . S
C650 C631 1.368 . S
C650 C644 1.368 . S
C650 C649 1.523 . S
C651 C635 1.429 . S
C651 C647 1.429 . S
C651 C652 1.523 . S
C652 C636 1.368 . S
C652 C648 1.368 . S
C652 C651 1.523 . S
H653 C628 0.950 . S
H654 C630 0.950 . S
H655 C631 0.949 . S
H656 C633 0.950 . S
H657 C635 0.950 . S
C658 C659 1.349 . S
C658 C660 1.327 . S
C658 H683 0.950 . S
C659 C658 1.349 . S
C659 C675 1.349 . S
C660 C658 1.327 . S
C660 C679 1.429 . S
C660 H684 0.950 . S
C661 C678 1.574 . S
C661 C680 1.368 . S
C661 H685 0.949 . S
H662 C666 0.949 . S
C663 C664 1.349 . S
C663 C665 1.327 . S
C663 H686 0.950 . S
C664 C663 1.349 . S
C664 C676 1.349 . S
C665 C663 1.327 . S
C665 C681 1.429 . S
C665 H687 0.950 . S
C666 H662 0.949 . S
C666 C674 1.574 . S
C666 C682 1.368 . S
H667 C675 0.950 . S
H668 C673 0.950 . S
H669 C674 0.949 . S
H670 C676 0.950 . S
H671 C677 0.950 . S
H672 C678 0.949 . S
C673 H668 0.950 . S
C673 C675 1.327 . S
C673 C679 1.429 . S
C674 C666 1.574 . S
C674 H669 0.949 . S
C674 C680 1.368 . S
C675 C659 1.349 . S
C675 H667 0.950 . S
C675 C673 1.327 . S
C676 C664 1.349 . S
C676 H670 0.950 . S
C676 C677 1.327 . S
C677 H671 0.950 . S
C677 C676 1.327 . S
C677 C681 1.429 . S
C678 C661 1.574 . S
C678 H672 0.949 . S
C678 C682 1.368 . S
C679 C660 1.429 . S
C679 C673 1.429 . S
C679 C680 1.523 . S
C680 C661 1.368 . S
C680 C674 1.368 . S
C680 C679 1.523 . S
C681 C665 1.429 . S
C681 C677 1.429 . S
C681 C682 1.523 . S
C682 C666 1.368 . S
C682 C678 1.368 . S
C682 C681 1.523 . S
H683 C658 0.950 . S
H684 C660 0.950 . S
H685 C661 0.949 . S
H686 C663 0.950 . S
H687 C665 0.950 . S
C688 C689 1.349 . S
C688 C690 1.327 . S
C688 H713 0.950 . S
C689 C688 1.349 . S
C689 C705 1.349 . S
C690 C688 1.327 . S
C690 C709 1.429 . S
C690 H714 0.950 . S
C691 C708 1.574 1_556 S
C691 C710 1.368 . S
C691 H715 0.949 . S
H692 C696 0.949 . S
C693 C694 1.349 . S
C693 C695 1.327 . S
C693 H716 0.950 . S
C694 C693 1.349 . S
C694 C706 1.349 . S
C695 C693 1.327 . S
C695 C711 1.429 . S
C695 H717 0.950 . S
C696 H692 0.949 . S
C696 C704 1.574 1_554 S
C696 C712 1.368 . S
H697 C705 0.950 . S
H698 C703 0.950 . S
H699 C704 0.949 . S
H700 C706 0.950 . S
H701 C707 0.950 . S
H702 C708 0.949 . S
C703 H698 0.950 . S
C703 C705 1.327 . S
C703 C709 1.429 . S
C704 C696 1.574 1_556 S
C704 H699 0.949 . S
C704 C710 1.368 . S
C705 C689 1.349 . S
C705 H697 0.950 . S
C705 C703 1.327 . S
C706 C694 1.349 . S
C706 H700 0.950 . S
C706 C707 1.327 . S
C707 H701 0.950 . S
C707 C706 1.327 . S
C707 C711 1.429 . S
C708 C691 1.574 1_554 S
C708 H702 0.949 . S
C708 C712 1.368 . S
C709 C690 1.429 . S
C709 C703 1.429 . S
C709 C710 1.523 . S
C710 C691 1.368 . S
C710 C704 1.368 . S
C710 C709 1.523 . S
C711 C695 1.429 . S
C711 C707 1.429 . S
C711 C712 1.523 . S
C712 C696 1.368 . S
C712 C708 1.368 . S
C712 C711 1.523 . S
H713 C688 0.950 . S
H714 C690 0.950 . S
H715 C691 0.949 . S
H716 C693 0.950 . S
H717 C695 0.950 . S
C718 C719 1.349 . S
C718 C720 1.327 . S
C718 H743 0.950 . S
C719 C718 1.349 . S
C719 C735 1.349 . S
C720 C718 1.327 . S
C720 C739 1.429 . S
C720 H744 0.950 . S
C721 C738 1.574 . S
C721 C740 1.368 . S
C721 H745 0.949 . S
H722 C726 0.949 . S
C723 C724 1.349 . S
C723 C725 1.327 . S
C723 H746 0.950 . S
C724 C723 1.349 . S
C724 C736 1.349 . S
C725 C723 1.327 . S
C725 C741 1.429 . S
C725 H747 0.950 . S
C726 H722 0.949 . S
C726 C734 1.574 . S
C726 C742 1.368 . S
H727 C735 0.950 . S
H728 C733 0.950 . S
H729 C734 0.949 . S
H730 C736 0.950 . S
H731 C737 0.950 . S
H732 C738 0.949 . S
C733 H728 0.950 . S
C733 C735 1.327 . S
C733 C739 1.429 . S
C734 C726 1.574 . S
C734 H729 0.949 . S
C734 C740 1.368 . S
C735 C719 1.349 . S
C735 H727 0.950 . S
C735 C733 1.327 . S
C736 C724 1.349 . S
C736 H730 0.950 . S
C736 C737 1.327 . S
C737 H731 0.950 . S
C737 C736 1.327 . S
C737 C741 1.429 . S
C738 C721 1.574 . S
C738 H732 0.949 . S
C738 C742 1.368 . S
C739 C720 1.429 . S
C739 C733 1.429 . S
C739 C740 1.523 . S
C740 C721 1.368 . S
C740 C734 1.368 . S
C740 C739 1.523 . S
C741 C725 1.429 . S
C741 C737 1.429 . S
C741 C742 1.523 . S
C742 C726 1.368 . S
C742 C738 1.368 . S
C742 C741 1.523 . S
H743 C718 0.950 . S
H744 C720 0.950 . S
H745 C721 0.949 . S
H746 C723 0.950 . S
H747 C725 0.950 . S
C748 C749 1.349 . S
C748 C750 1.327 . S
C748 H773 0.950 . S
C749 C748 1.349 . S
C749 C765 1.349 . S
C750 C748 1.327 . S
C750 C769 1.429 . S
C750 H774 0.950 . S
C751 C768 1.574 1_554 S
C751 C770 1.368 . S
C751 H775 0.949 . S
H752 C756 0.949 . S
C753 C754 1.349 . S
C753 C755 1.327 . S
C753 H776 0.950 . S
C754 C753 1.349 . S
C754 C766 1.349 . S
C755 C753 1.327 . S
C755 C771 1.429 . S
C755 H777 0.950 . S
C756 H752 0.949 . S
C756 C764 1.574 1_556 S
C756 C772 1.368 . S
H757 C765 0.950 . S
H758 C763 0.950 . S
H759 C764 0.949 . S
H760 C766 0.950 . S
H761 C767 0.950 . S
H762 C768 0.949 . S
C763 H758 0.950 . S
C763 C765 1.327 . S
C763 C769 1.429 . S
C764 C756 1.574 1_554 S
C764 H759 0.949 . S
C764 C770 1.368 . S
C765 C749 1.349 . S
C765 H757 0.950 . S
C765 C763 1.327 . S
C766 C754 1.349 . S
C766 H760 0.950 . S
C766 C767 1.327 . S
C767 H761 0.950 . S
C767 C766 1.327 . S
C767 C771 1.429 . S
C768 C751 1.574 1_556 S
C768 H762 0.949 . S
C768 C772 1.368 . S
C769 C750 1.429 . S
C769 C763 1.429 . S
C769 C770 1.523 . S
C770 C751 1.368 . S
C770 C764 1.368 . S
C770 C769 1.523 . S
C771 C755 1.429 . S
C771 C767 1.429 . S
C771 C772 1.523 . S
C772 C756 1.368 . S
C772 C768 1.368 . S
C772 C771 1.523 . S
H773 C748 0.950 . S
H774 C750 0.950 . S
H775 C751 0.949 . S
H776 C753 0.950 . S
H777 C755 0.950 . S
C778 C779 1.349 . S
C778 C780 1.327 . S
C778 H803 0.950 . S
C779 C778 1.349 . S
C779 C795 1.349 . S
C780 C778 1.327 . S
C780 C799 1.429 . S
C780 H804 0.950 . S
C781 C798 1.574 . S
C781 C800 1.368 . S
C781 H805 0.949 . S
H782 C786 0.949 . S
C783 C784 1.349 . S
C783 C785 1.327 . S
C783 H806 0.950 . S
C784 C783 1.349 . S
C784 C796 1.349 . S
C785 C783 1.327 . S
C785 C801 1.429 . S
C785 H807 0.950 . S
C786 H782 0.949 . S
C786 C794 1.574 . S
C786 C802 1.368 . S
H787 C795 0.950 . S
H788 C793 0.950 . S
H789 C794 0.949 . S
H790 C796 0.950 . S
H791 C797 0.950 . S
H792 C798 0.949 . S
C793 H788 0.950 . S
C793 C795 1.327 . S
C793 C799 1.429 . S
C794 C786 1.574 . S
C794 H789 0.949 . S
C794 C800 1.368 . S
C795 C779 1.349 . S
C795 H787 0.950 . S
C795 C793 1.327 . S
C796 C784 1.349 . S
C796 H790 0.950 . S
C796 C797 1.327 . S
C797 H791 0.950 . S
C797 C796 1.327 . S
C797 C801 1.429 . S
C798 C781 1.574 . S
C798 H792 0.949 . S
C798 C802 1.368 . S
C799 C780 1.429 . S
C799 C793 1.429 . S
C799 C800 1.523 . S
C800 C781 1.368 . S
C800 C794 1.368 . S
C800 C799 1.523 . S
C801 C785 1.429 . S
C801 C797 1.429 . S
C801 C802 1.523 . S
C802 C786 1.368 . S
C802 C798 1.368 . S
C802 C801 1.523 . S
H803 C778 0.950 . S
H804 C780 0.950 . S
H805 C781 0.949 . S
H806 C783 0.950 . S
H807 C785 0.950 . S
C808 C809 1.349 . S
C808 C810 1.327 . S
C808 H833 0.950 . S
C809 C808 1.349 . S
C809 C825 1.349 . S
C810 C808 1.327 . S
C810 C829 1.429 . S
C810 H834 0.950 . S
C811 C828 1.574 . S
C811 C830 1.368 . S
C811 H835 0.949 . S
H812 C816 0.949 . S
C813 C814 1.349 . S
C813 C815 1.327 . S
C813 H836 0.950 . S
C814 C813 1.349 . S
C814 C826 1.349 . S
C815 C813 1.327 . S
C815 C831 1.429 . S
C815 H837 0.950 . S
C816 H812 0.949 . S
C816 C824 1.574 . S
C816 C832 1.368 . S
H817 C825 0.950 . S
H818 C823 0.950 . S
H819 C824 0.949 . S
H820 C826 0.950 . S
H821 C827 0.950 . S
H822 C828 0.949 . S
C823 H818 0.950 . S
C823 C825 1.327 . S
C823 C829 1.429 . S
C824 C816 1.574 . S
C824 H819 0.949 . S
C824 C830 1.368 . S
C825 C809 1.349 . S
C825 H817 0.950 . S
C825 C823 1.327 . S
C826 C814 1.349 . S
C826 H820 0.950 . S
C826 C827 1.327 . S
C827 H821 0.950 . S
C827 C826 1.327 . S
C827 C831 1.429 . S
C828 C811 1.574 . S
C828 H822 0.949 . S
C828 C832 1.368 . S
C829 C810 1.429 . S
C829 C823 1.429 . S
C829 C830 1.523 . S
C830 C811 1.368 . S
C830 C824 1.368 . S
C830 C829 1.523 . S
C831 C815 1.429 . S
C831 C827 1.429 . S
C831 C832 1.523 . S
C832 C816 1.368 . S
C832 C828 1.368 . S
C832 C831 1.523 . S
H833 C808 0.950 . S
H834 C810 0.950 . S
H835 C811 0.949 . S
H836 C813 0.950 . S
H837 C815 0.950 . S
C838 C839 1.349 . S
C838 C840 1.327 . S
C838 H863 0.950 . S
C839 C838 1.349 . S
C839 C855 1.349 . S
C840 C838 1.327 . S
C840 C859 1.429 . S
C840 H864 0.950 . S
C841 C858 1.574 1_556 S
C841 C860 1.368 . S
C841 H865 0.949 . S
H842 C846 0.949 . S
C843 C844 1.349 . S
C843 C845 1.327 . S
C843 H866 0.950 . S
C844 C843 1.349 . S
C844 C856 1.349 . S
C845 C843 1.327 . S
C845 C861 1.429 . S
C845 H867 0.950 . S
C846 H842 0.949 . S
C846 C854 1.574 1_554 S
C846 C862 1.368 . S
H847 C855 0.950 . S
H848 C853 0.950 . S
H849 C854 0.949 . S
H850 C856 0.950 . S
H851 C857 0.950 . S
H852 C858 0.949 . S
C853 H848 0.950 . S
C853 C855 1.327 . S
C853 C859 1.429 . S
C854 C846 1.574 1_556 S
C854 H849 0.949 . S
C854 C860 1.368 . S
C855 C839 1.349 . S
C855 H847 0.950 . S
C855 C853 1.327 . S
C856 C844 1.349 . S
C856 H850 0.950 . S
C856 C857 1.327 . S
C857 H851 0.950 . S
C857 C856 1.327 . S
C857 C861 1.429 . S
C858 C841 1.574 1_554 S
C858 H852 0.949 . S
C858 C862 1.368 . S
C859 C840 1.429 . S
C859 C853 1.429 . S
C859 C860 1.523 . S
C860 C841 1.368 . S
C860 C854 1.368 . S
C860 C859 1.523 . S
C861 C845 1.429 . S
C861 C857 1.429 . S
C861 C862 1.523 . S
C862 C846 1.368 . S
C862 C858 1.368 . S
C862 C861 1.523 . S
H863 C838 0.950 . S
H864 C840 0.950 . S
H865 C841 0.949 . S
H866 C843 0.950 . S
H867 C845 0.950 . S
C868 C869 1.349 . S
C868 C870 1.327 . S
C868 H893 0.950 . S
C869 C868 1.349 . S
C869 C885 1.349 . S
C870 C868 1.327 . S
C870 C889 1.429 . S
C870 H894 0.950 . S
C871 C888 1.574 . S
C871 C890 1.368 . S
C871 H895 0.949 . S
H872 C876 0.949 . S
C873 C874 1.349 . S
C873 C875 1.327 . S
C873 H896 0.950 . S
C874 C873 1.349 . S
C874 C886 1.349 . S
C875 C873 1.327 . S
C875 C891 1.429 . S
C875 H897 0.950 . S
C876 H872 0.949 . S
C876 C884 1.574 . S
C876 C892 1.368 . S
H877 C885 0.950 . S
H878 C883 0.950 . S
H879 C884 0.949 . S
H880 C886 0.950 . S
H881 C887 0.950 . S
H882 C888 0.949 . S
C883 H878 0.950 . S
C883 C885 1.327 . S
C883 C889 1.429 . S
C884 C876 1.574 . S
C884 H879 0.949 . S
C884 C890 1.368 . S
C885 C869 1.349 . S
C885 H877 0.950 . S
C885 C883 1.327 . S
C886 C874 1.349 . S
C886 H880 0.950 . S
C886 C887 1.327 . S
C887 H881 0.950 . S
C887 C886 1.327 . S
C887 C891 1.429 . S
C888 C871 1.574 . S
C888 H882 0.949 . S
C888 C892 1.368 . S
C889 C870 1.429 . S
C889 C883 1.429 . S
C889 C890 1.523 . S
C890 C871 1.368 . S
C890 C884 1.368 . S
C890 C889 1.523 . S
C891 C875 1.429 . S
C891 C887 1.429 . S
C891 C892 1.523 . S
C892 C876 1.368 . S
C892 C888 1.368 . S
C892 C891 1.523 . S
H893 C868 0.950 . S
H894 C870 0.950 . S
H895 C871 0.949 . S
H896 C873 0.950 . S
H897 C875 0.950 . S
C898 C899 1.349 . S
C898 C900 1.327 . S
C898 H923 0.950 . S
C899 C898 1.349 . S
C899 C915 1.349 . S
C900 C898 1.327 . S
C900 C919 1.429 . S
C900 H924 0.950 . S
C901 C918 1.574 1_554 S
C901 C920 1.368 . S
C901 H925 0.949 . S
H902 C906 0.949 . S
C903 C904 1.349 . S
C903 C905 1.327 . S
C903 H926 0.950 . S
C904 C903 1.349 . S
C904 C916 1.349 . S
C905 C903 1.327 . S
C905 C921 1.429 . S
C905 H927 0.950 . S
C906 H902 0.949 . S
C906 C914 1.574 1_556 S
C906 C922 1.368 . S
H907 C915 0.950 . S
H908 C913 0.950 . S
H909 C914 0.949 . S
H910 C916 0.950 . S
H911 C917 0.950 . S
H912 C918 0.949 . S
C913 H908 0.950 . S
C913 C915 1.327 . S
C913 C919 1.429 . S
C914 C906 1.574 1_554 S
C914 H909 0.949 . S
C914 C920 1.368 . S
C915 C899 1.349 . S
C915 H907 0.950 . S
C915 C913 1.327 . S
C916 C904 1.349 . S
C916 H910 0.950 . S
C916 C917 1.327 . S
C917 H911 0.950 . S
C917 C916 1.327 . S
C917 C921 1.429 . S
C918 C901 1.574 1_556 S
C918 H912 0.949 . S
C918 C922 1.368 . S
C919 C900 1.429 . S
C919 C913 1.429 . S
C919 C920 1.523 . S
C920 C901 1.368 . S
C920 C914 1.368 . S
C920 C919 1.523 . S
C921 C905 1.429 . S
C921 C917 1.429 . S
C921 C922 1.523 . S
C922 C906 1.368 . S
C922 C918 1.368 . S
C922 C921 1.523 . S
H923 C898 0.950 . S
H924 C900 0.950 . S
H925 C901 0.949 . S
H926 C903 0.950 . S
H927 C905 0.950 . S
C928 C929 1.349 . S
C928 C930 1.327 . S
C928 H953 0.950 . S
C929 C928 1.349 . S
C929 C945 1.349 . S
C930 C928 1.327 . S
C930 C949 1.429 . S
C930 H954 0.950 . S
C931 C948 1.574 . S
C931 C950 1.368 . S
C931 H955 0.949 . S
H932 C936 0.949 . S
C933 C934 1.349 . S
C933 C935 1.327 . S
C933 H956 0.950 . S
C934 C933 1.349 . S
C934 C946 1.349 . S
C935 C933 1.327 . S
C935 C951 1.429 . S
C935 H957 0.950 . S
C936 H932 0.949 . S
C936 C944 1.574 . S
C936 C952 1.368 . S
H937 C945 0.950 . S
H938 C943 0.950 . S
H939 C944 0.949 . S
H940 C946 0.950 . S
H941 C947 0.950 . S
H942 C948 0.949 . S
C943 H938 0.950 . S
C943 C945 1.327 . S
C943 C949 1.429 . S
C944 C936 1.574 . S
C944 H939 0.949 . S
C944 C950 1.368 . S
C945 C929 1.349 . S
C945 H937 0.950 . S
C945 C943 1.327 . S
C946 C934 1.349 . S
C946 H940 0.950 . S
C946 C947 1.327 . S
C947 H941 0.950 . S
C947 C946 1.327 . S
C947 C951 1.429 . S
C948 C931 1.574 . S
C948 H942 0.949 . S
C948 C952 1.368 . S
C949 C930 1.429 . S
C949 C943 1.429 . S
C949 C950 1.523 . S
C950 C931 1.368 . S
C950 C944 1.368 . S
C950 C949 1.523 . S
C951 C935 1.429 . S
C951 C947 1.429 . S
C951 C952 1.523 . S
C952 C936 1.368 . S
C952 C948 1.368 . S
C952 C951 1.523 . S
H953 C928 0.950 . S
H954 C930 0.950 . S
H955 C931 0.949 . S
H956 C933 0.950 . S
H957 C935 0.950 . S
C958 C959 1.349 . S
C958 C960 1.327 . S
C958 H983 0.950 . S
C959 C958 1.349 . S
C959 C975 1.349 . S
C960 C958 1.327 . S
C960 C979 1.429 . S
C960 H984 0.950 . S
C961 C978 1.574 . S
C961 C980 1.368 . S
C961 H985 0.949 . S
H962 C966 0.949 . S
C963 C964 1.349 . S
C963 C965 1.327 . S
C963 H986 0.950 . S
C964 C963 1.349 . S
C964 C976 1.349 . S
C965 C963 1.327 . S
C965 C981 1.429 . S
C965 H987 0.950 . S
C966 H962 0.949 . S
C966 C974 1.574 . S
C966 C982 1.368 . S
H967 C975 0.950 . S
H968 C973 0.950 . S
H969 C974 0.949 . S
H970 C976 0.950 . S
H971 C977 0.950 . S
H972 C978 0.949 . S
C973 H968 0.950 . S
C973 C975 1.327 . S
C973 C979 1.429 . S
C974 C966 1.574 . S
C974 H969 0.949 . S
C974 C980 1.368 . S
C975 C959 1.349 . S
C975 H967 0.950 . S
C975 C973 1.327 . S
C976 C964 1.349 . S
C976 H970 0.950 . S
C976 C977 1.327 . S
C977 H971 0.950 . S
C977 C976 1.327 . S
C977 C981 1.429 . S
C978 C961 1.574 . S
C978 H972 0.949 . S
C978 C982 1.368 . S
C979 C960 1.429 . S
C979 C973 1.429 . S
C979 C980 1.523 . S
C980 C961 1.368 . S
C980 C974 1.368 . S
C980 C979 1.523 . S
C981 C965 1.429 . S
C981 C977 1.429 . S
C981 C982 1.523 . S
C982 C966 1.368 . S
C982 C978 1.368 . S
C982 C981 1.523 . S
H983 C958 0.950 . S
H984 C960 0.950 . S
H985 C961 0.949 . S
H986 C963 0.950 . S
H987 C965 0.950 . S
C988 C989 1.349 . S
C988 C990 1.327 . S
C988 H1013 0.950 . S
C989 C988 1.349 . S
C989 C1005 1.349 . S
C990 C988 1.327 . S
C990 C1009 1.429 . S
C990 H1014 0.950 . S
C991 C1008 1.574 . S
C991 C1010 1.368 . S
C991 H1015 0.949 . S
H992 C996 0.949 . S
C993 C994 1.349 . S
C993 C995 1.327 . S
C993 H1016 0.950 . S
C994 C993 1.349 . S
C994 C1006 1.349 . S
C995 C993 1.327 . S
C995 C1011 1.429 . S
C995 H1017 0.950 . S
C996 H992 0.949 . S
C996 C1004 1.574 . S
C996 C1012 1.368 . S
H997 C1005 0.950 . S
H998 C1003 0.950 . S
H999 C1004 0.949 . S
H1000 C1006 0.950 . S
H1001 C1007 0.950 . S
H1002 C1008 0.949 . S
C1003 H998 0.950 . S
C1003 C1005 1.327 . S
C1003 C1009 1.429 . S
C1004 C996 1.574 . S
C1004 H999 0.949 . S
C1004 C1010 1.368 . S
C1005 C989 1.349 . S
C1005 H997 0.950 . S
C1005 C1003 1.327 . S
C1006 C994 1.349 . S
C1006 H1000 0.950 . S
C1006 C1007 1.327 . S
C1007 H1001 0.950 . S
C1007 C1006 1.327 . S
C1007 C1011 1.429 . S
C1008 C991 1.574 . S
C1008 H1002 0.949 . S
C1008 C1012 1.368 . S
C1009 C990 1.429 . S
C1009 C1003 1.429 . S
C1009 C1010 1.523 . S
C1010 C991 1.368 . S
C1010 C1004 1.368 . S
C1010 C1009 1.523 . S
C1011 C995 1.429 . S
C1011 C1007 1.429 . S
C1011 C1012 1.523 . S
C1012 C996 1.368 . S
C1012 C1008 1.368 . S
C1012 C1011 1.523 . S
H1013 C988 0.950 . S
H1014 C990 0.950 . S
H1015 C991 0.949 . S
H1016 C993 0.950 . S
H1017 C995 0.950 . S
C1018 C1019 1.349 . S
C1018 C1020 1.327 . S
C1018 H1043 0.950 . S
C1019 C1018 1.349 . S
C1019 C1035 1.349 . S
C1020 C1018 1.327 . S
C1020 C1039 1.429 . S
C1020 H1044 0.950 . S
C1021 C1038 1.574 . S
C1021 C1040 1.368 . S
C1021 H1045 0.949 . S
H1022 C1026 0.949 . S
C1023 C1024 1.349 . S
C1023 C1025 1.327 . S
C1023 H1046 0.950 . S
C1024 C1023 1.349 . S
C1024 C1036 1.349 . S
C1025 C1023 1.327 . S
C1025 C1041 1.429 . S
C1025 H1047 0.950 . S
C1026 H1022 0.949 . S
C1026 C1034 1.574 . S
C1026 C1042 1.368 . S
H1027 C1035 0.950 . S
H1028 C1033 0.950 . S
H1029 C1034 0.949 . S
H1030 C1036 0.950 . S
H1031 C1037 0.950 . S
H1032 C1038 0.949 . S
C1033 H1028 0.950 . S
C1033 C1035 1.327 . S
C1033 C1039 1.429 . S
C1034 C1026 1.574 . S
C1034 H1029 0.949 . S
C1034 C1040 1.368 . S
C1035 C1019 1.349 . S
C1035 H1027 0.950 . S
C1035 C1033 1.327 . S
C1036 C1024 1.349 . S
C1036 H1030 0.950 . S
C1036 C1037 1.327 . S
C1037 H1031 0.950 . S
C1037 C1036 1.327 . S
C1037 C1041 1.429 . S
C1038 C1021 1.574 . S
C1038 H1032 0.949 . S
C1038 C1042 1.368 . S
C1039 C1020 1.429 . S
C1039 C1033 1.429 . S
C1039 C1040 1.523 . S
C1040 C1021 1.368 . S
C1040 C1034 1.368 . S
C1040 C1039 1.523 . S
C1041 C1025 1.429 . S
C1041 C1037 1.429 . S
C1041 C1042 1.523 . S
C1042 C1026 1.368 . S
C1042 C1038 1.368 . S
C1042 C1041 1.523 . S
H1043 C1018 0.950 . S
H1044 C1020 0.950 . S
H1045 C1021 0.949 . S
H1046 C1023 0.950 . S
H1047 C1025 0.950 . S
C1048 C1049 1.349 . S
C1048 C1050 1.327 . S
C1048 H1073 0.950 . S
C1049 C1048 1.349 . S
C1049 C1065 1.349 . S
C1050 C1048 1.327 . S
C1050 C1069 1.429 . S
C1050 H1074 0.950 . S
C1051 C1068 1.574 . S
C1051 C1070 1.368 . S
C1051 H1075 0.949 . S
H1052 C1056 0.949 . S
C1053 C1054 1.349 . S
C1053 C1055 1.327 . S
C1053 H1076 0.950 . S
C1054 C1053 1.349 . S
C1054 C1066 1.349 . S
C1055 C1053 1.327 . S
C1055 C1071 1.429 . S
C1055 H1077 0.950 . S
C1056 H1052 0.949 . S
C1056 C1064 1.574 . S
C1056 C1072 1.368 . S
H1057 C1065 0.950 . S
H1058 C1063 0.950 . S
H1059 C1064 0.949 . S
H1060 C1066 0.950 . S
H1061 C1067 0.950 . S
H1062 C1068 0.949 . S
C1063 H1058 0.950 . S
C1063 C1065 1.327 . S
C1063 C1069 1.429 . S
C1064 C1056 1.574 . S
C1064 H1059 0.949 . S
C1064 C1070 1.368 . S
C1065 C1049 1.349 . S
C1065 H1057 0.950 . S
C1065 C1063 1.327 . S
C1066 C1054 1.349 . S
C1066 H1060 0.950 . S
C1066 C1067 1.327 . S
C1067 H1061 0.950 . S
C1067 C1066 1.327 . S
C1067 C1071 1.429 . S
C1068 C1051 1.574 . S
C1068 H1062 0.949 . S
C1068 C1072 1.368 . S
C1069 C1050 1.429 . S
C1069 C1063 1.429 . S
C1069 C1070 1.523 . S
C1070 C1051 1.368 . S
C1070 C1064 1.368 . S
C1070 C1069 1.523 . S
C1071 C1055 1.429 . S
C1071 C1067 1.429 . S
C1071 C1072 1.523 . S
C1072 C1056 1.368 . S
C1072 C1068 1.368 . S
C1072 C1071 1.523 . S
H1073 C1048 0.950 . S
H1074 C1050 0.950 . S
H1075 C1051 0.949 . S
H1076 C1053 0.950 . S
H1077 C1055 0.950 . S
C1078 C1079 1.349 . S
C1078 C1080 1.327 . S
C1078 H1103 0.950 . S
C1079 C1078 1.349 . S
C1079 C1095 1.349 . S
C1080 C1078 1.327 . S
C1080 C1099 1.429 . S
C1080 H1104 0.950 . S
C1081 C1098 1.574 . S
C1081 C1100 1.368 . S
C1081 H1105 0.949 . S
H1082 C1086 0.949 . S
C1083 C1084 1.349 . S
C1083 C1085 1.327 . S
C1083 H1106 0.950 . S
C1084 C1083 1.349 . S
C1084 C1096 1.349 . S
C1085 C1083 1.327 . S
C1085 C1101 1.429 . S
C1085 H1107 0.950 . S
C1086 H1082 0.949 . S
C1086 C1094 1.574 . S
C1086 C1102 1.368 . S
H1087 C1095 0.950 . S
H1088 C1093 0.950 . S
H1089 C1094 0.949 . S
H1090 C1096 0.950 . S
H1091 C1097 0.950 . S
H1092 C1098 0.949 . S
C1093 H1088 0.950 . S
C1093 C1095 1.327 . S
C1093 C1099 1.429 . S
C1094 C1086 1.574 . S
C1094 H1089 0.949 . S
C1094 C1100 1.368 . S
C1095 C1079 1.349 . S
C1095 H1087 0.950 . S
C1095 C1093 1.327 . S
C1096 C1084 1.349 . S
C1096 H1090 0.950 . S
C1096 C1097 1.327 . S
C1097 H1091 0.950 . S
C1097 C1096 1.327 . S
C1097 C1101 1.429 . S
C1098 C1081 1.574 . S
C1098 H1092 0.949 . S
C1098 C1102 1.368 . S
C1099 C1080 1.429 . S
C1099 C1093 1.429 . S
C1099 C1100 1.523 . S
C1100 C1081 1.368 . S
C1100 C1094 1.368 . S
C1100 C1099 1.523 . S
C1101 C1085 1.429 . S
C1101 C1097 1.429 . S
C1101 C1102 1.523 . S
C1102 C1086 1.368 . S
C1102 C1098 1.368 . S
C1102 C1101 1.523 . S
H1103 C1078 0.950 . S
H1104 C1080 0.950 . S
H1105 C1081 0.949 . S
H1106 C1083 0.950 . S
H1107 C1085 0.950 . S
C1108 C1109 1.349 . S
C1108 C1110 1.327 . S
C1108 H1133 0.950 . S
C1109 C1108 1.349 . S
C1109 C1125 1.349 . S
C1110 C1108 1.327 . S
C1110 C1129 1.429 . S
C1110 H1134 0.950 . S
C1111 C1128 1.574 . S
C1111 C1130 1.368 . S
C1111 H1135 0.949 . S
H1112 C1116 0.949 . S
C1113 C1114 1.349 . S
C1113 C1115 1.327 . S
C1113 H1136 0.950 . S
C1114 C1113 1.349 . S
C1114 C1126 1.349 . S
C1115 C1113 1.327 . S
C1115 C1131 1.429 . S
C1115 H1137 0.950 . S
C1116 H1112 0.949 . S
C1116 C1124 1.574 . S
C1116 C1132 1.368 . S
H1117 C1125 0.950 . S
H1118 C1123 0.950 . S
H1119 C1124 0.949 . S
H1120 C1126 0.950 . S
H1121 C1127 0.950 . S
H1122 C1128 0.949 . S
C1123 H1118 0.950 . S
C1123 C1125 1.327 . S
C1123 C1129 1.429 . S
C1124 C1116 1.574 . S
C1124 H1119 0.949 . S
C1124 C1130 1.368 . S
C1125 C1109 1.349 . S
C1125 H1117 0.950 . S
C1125 C1123 1.327 . S
C1126 C1114 1.349 . S
C1126 H1120 0.950 . S
C1126 C1127 1.327 . S
C1127 H1121 0.950 . S
C1127 C1126 1.327 . S
C1127 C1131 1.429 . S
C1128 C1111 1.574 . S
C1128 H1122 0.949 . S
C1128 C1132 1.368 . S
C1129 C1110 1.429 . S
C1129 C1123 1.429 . S
C1129 C1130 1.523 . S
C1130 C1111 1.368 . S
C1130 C1124 1.368 . S
C1130 C1129 1.523 . S
C1131 C1115 1.429 . S
C1131 C1127 1.429 . S
C1131 C1132 1.523 . S
C1132 C1116 1.368 . S
C1132 C1128 1.368 . S
C1132 C1131 1.523 . S
H1133 C1108 0.950 . S
H1134 C1110 0.950 . S
H1135 C1111 0.949 . S
H1136 C1113 0.950 . S
H1137 C1115 0.950 . S
C1138 C1139 1.349 . S
C1138 C1140 1.327 . S
C1138 H1163 0.950 . S
C1139 C1138 1.349 . S
C1139 C1155 1.349 . S
C1140 C1138 1.327 . S
C1140 C1159 1.429 . S
C1140 H1164 0.950 . S
C1141 C1158 1.574 . S
C1141 C1160 1.368 . S
C1141 H1165 0.949 . S
H1142 C1146 0.949 . S
C1143 C1144 1.349 . S
C1143 C1145 1.327 . S
C1143 H1166 0.950 . S
C1144 C1143 1.349 . S
C1144 C1156 1.349 . S
C1145 C1143 1.327 . S
C1145 C1161 1.429 . S
C1145 H1167 0.950 . S
C1146 H1142 0.949 . S
C1146 C1154 1.574 . S
C1146 C1162 1.368 . S
H1147 C1155 0.950 . S
H1148 C1153 0.950 . S
H1149 C1154 0.949 . S
H1150 C1156 0.950 . S
H1151 C1157 0.950 . S
H1152 C1158 0.949 . S
C1153 H1148 0.950 . S
C1153 C1155 1.327 . S
C1153 C1159 1.429 . S
C1154 C1146 1.574 . S
C1154 H1149 0.949 . S
C1154 C1160 1.368 . S
C1155 C1139 1.349 . S
C1155 H1147 0.950 . S
C1155 C1153 1.327 . S
C1156 C1144 1.349 . S
C1156 H1150 0.950 . S
C1156 C1157 1.327 . S
C1157 H1151 0.950 . S
C1157 C1156 1.327 . S
C1157 C1161 1.429 . S
C1158 C1141 1.574 . S
C1158 H1152 0.949 . S
C1158 C1162 1.368 . S
C1159 C1140 1.429 . S
C1159 C1153 1.429 . S
C1159 C1160 1.523 . S
C1160 C1141 1.368 . S
C1160 C1154 1.368 . S
C1160 C1159 1.523 . S
C1161 C1145 1.429 . S
C1161 C1157 1.429 . S
C1161 C1162 1.523 . S
C1162 C1146 1.368 . S
C1162 C1158 1.368 . S
C1162 C1161 1.523 . S
H1163 C1138 0.950 . S
H1164 C1140 0.950 . S
H1165 C1141 0.949 . S
H1166 C1143 0.950 . S
H1167 C1145 0.950 . S
C209 C3 1.325 . S
C214 C31 1.325 . S
C239 C42 1.325 . S
C244 C18 1.325 . S
C269 C55 1.325 . S
C274 C81 1.325 . S
C299 C96 1.325 . S
C304 C70 1.325 . S
C329 C107 1.325 . S
C334 C135 1.325 . S
C359 C146 1.325 . S
C364 C122 1.325 . S
C389 C159 1.325 . S
C394 C187 1.325 . S
C419 C200 1.325 . S
C424 C172 1.325 . S
C449 C57 1.204 . S
C454 C5 1.204 . S
C479 C16 1.204 . S
C484 C68 1.204 . S
C509 C29 1.204 . S
C514 C83 1.204 . S
C539 C94 1.204 . S
C544 C44 1.204 . S
C569 C109 1.204 . S
C574 C161 1.204 . S
C599 C120 1.204 . S
C604 C174 1.204 . S
C629 C133 1.204 . S
C634 C185 1.204 . S
C659 C148 1.204 . S
C664 C198 1.204 . S
C689 C140 1.278 . S
C694 C4 1.278 . S
C719 C147 1.278 . S
C724 C23 1.278 . S
C749 C36 1.278 . S
C754 C108 1.278 . S
C779 C43 1.278 . S
C784 C127 1.278 . S
C809 C56 1.278 . S
C814 C192 1.278 . S
C839 C75 1.278 . S
C844 C205 1.278 . S
C869 C82 1.278 . S
C874 C160 1.278 . S
C899 C173 1.278 . S
C904 C101 1.278 . S
C929 C10 1.268 . S
C934 C199 1.268 . S
C959 C166 1.268 . S
C964 C17 1.268 . S
C989 C30 1.268 . S
C994 C179 1.268 . S
C1019 C186 1.268 . S
C1024 C49 1.268 . S
C1049 C121 1.268 . S
C1054 C62 1.268 . S
C1079 C69 1.268 . S
C1084 C134 1.268 . S
C1109 C153 1.268 . S
C1114 C88 1.268 . S
C1139 C114 1.268 . S
C1144 C95 1.268 . S
