# Generated by pormake.
# Topology gsi, (4)-cn, num edge types: 1
# Building blocks:
#     Node 0, Type 0, BuildingBlock: AZAVOO_clean_sbu_0, # of connection points: 4
#     Node 1, Type 0, BuildingBlock: AZAVOO_clean_sbu_0, # of connection points: 4
#     Node 2, Type 0, BuildingBlock: AZAVOO_clean_sbu_0, # of connection points: 4
#     Node 3, Type 0, BuildingBlock: AZAVOO_clean_sbu_0, # of connection points: 4
#     Node 4, Type 0, BuildingBlock: AZAVOO_clean_sbu_0, # of connection points: 4
#     Node 5, Type 0, BuildingBlock: AZAVOO_clean_sbu_0, # of connection points: 4
#     Node 6, Type 0, BuildingBlock: AZAVOO_clean_sbu_0, # of connection points: 4
#     Node 7, Type 0, BuildingBlock: AZAVOO_clean_sbu_0, # of connection points: 4
#     Node 8, Type 0, BuildingBlock: AZAVOO_clean_sbu_0, # of connection points: 4
#     Node 9, Type 0, BuildingBlock: AZAVOO_clean_sbu_0, # of connection points: 4
#     Node 10, Type 0, BuildingBlock: AZAVOO_clean_sbu_0, # of connection points: 4
#     Node 11, Type 0, BuildingBlock: AZAVOO_clean_sbu_0, # of connection points: 4
#     Node 12, Type 0, BuildingBlock: AZAVOO_clean_sbu_0, # of connection points: 4
#     Node 13, Type 0, BuildingBlock: AZAVOO_clean_sbu_0, # of connection points: 4
#     Node 14, Type 0, BuildingBlock: AZAVOO_clean_sbu_0, # of connection points: 4
#     Node 15, Type 0, BuildingBlock: AZAVOO_clean_sbu_0, # of connection points: 4
#     Edge 16, Type (0, 0), BuildingBlock: AJUNOK_clean_linker_0, # of connection points: 2
#     Edge 17, Type (0, 0), BuildingBlock: AJUNOK_clean_linker_0, # of connection points: 2
#     Edge 18, Type (0, 0), BuildingBlock: AJUNOK_clean_linker_0, # of connection points: 2
#     Edge 19, Type (0, 0), BuildingBlock: AJUNOK_clean_linker_0, # of connection points: 2
#     Edge 20, Type (0, 0), BuildingBlock: AJUNOK_clean_linker_0, # of connection points: 2
#     Edge 21, Type (0, 0), BuildingBlock: AJUNOK_clean_linker_0, # of connection points: 2
#     Edge 22, Type (0, 0), BuildingBlock: AJUNOK_clean_linker_0, # of connection points: 2
#     Edge 23, Type (0, 0), BuildingBlock: AJUNOK_clean_linker_0, # of connection points: 2
#     Edge 24, Type (0, 0), BuildingBlock: AJUNOK_clean_linker_0, # of connection points: 2
#     Edge 25, Type (0, 0), BuildingBlock: AJUNOK_clean_linker_0, # of connection points: 2
#     Edge 26, Type (0, 0), BuildingBlock: AJUNOK_clean_linker_0, # of connection points: 2
#     Edge 27, Type (0, 0), BuildingBlock: AJUNOK_clean_linker_0, # of connection points: 2
#     Edge 28, Type (0, 0), BuildingBlock: AJUNOK_clean_linker_0, # of connection points: 2
#     Edge 29, Type (0, 0), BuildingBlock: AJUNOK_clean_linker_0, # of connection points: 2
#     Edge 30, Type (0, 0), BuildingBlock: AJUNOK_clean_linker_0, # of connection points: 2
#     Edge 31, Type (0, 0), BuildingBlock: AJUNOK_clean_linker_0, # of connection points: 2
#     Edge 32, Type (0, 0), BuildingBlock: AJUNOK_clean_linker_0, # of connection points: 2
#     Edge 33, Type (0, 0), BuildingBlock: AJUNOK_clean_linker_0, # of connection points: 2
#     Edge 34, Type (0, 0), BuildingBlock: AJUNOK_clean_linker_0, # of connection points: 2
#     Edge 35, Type (0, 0), BuildingBlock: AJUNOK_clean_linker_0, # of connection points: 2
#     Edge 36, Type (0, 0), BuildingBlock: AJUNOK_clean_linker_0, # of connection points: 2
#     Edge 37, Type (0, 0), BuildingBlock: AJUNOK_clean_linker_0, # of connection points: 2
#     Edge 38, Type (0, 0), BuildingBlock: AJUNOK_clean_linker_0, # of connection points: 2
#     Edge 39, Type (0, 0), BuildingBlock: AJUNOK_clean_linker_0, # of connection points: 2
#     Edge 40, Type (0, 0), BuildingBlock: AJUNOK_clean_linker_0, # of connection points: 2
#     Edge 41, Type (0, 0), BuildingBlock: AJUNOK_clean_linker_0, # of connection points: 2
#     Edge 42, Type (0, 0), BuildingBlock: AJUNOK_clean_linker_0, # of connection points: 2
#     Edge 43, Type (0, 0), BuildingBlock: AJUNOK_clean_linker_0, # of connection points: 2
#     Edge 44, Type (0, 0), BuildingBlock: AJUNOK_clean_linker_0, # of connection points: 2
#     Edge 45, Type (0, 0), BuildingBlock: AJUNOK_clean_linker_0, # of connection points: 2
#     Edge 46, Type (0, 0), BuildingBlock: AJUNOK_clean_linker_0, # of connection points: 2
#     Edge 47, Type (0, 0), BuildingBlock: AJUNOK_clean_linker_0, # of connection points: 2
# Relax obj value: 0.014
# Max RMSD: 0.028
# Mean RMSD: 0.025
data_MOF--net-gsi--node1-AZAVOO_clean_sbu_0--edge1-AJUNOK_clean_linker_0
_symmetry_space_group_name_H-M    P1
_symmetry_Int_Tables_number       1
_symmetry_cell_setting            triclinic
loop_
_symmetry_equiv_pos_as_xyz
'x, y, z'
_cell_length_a     32.675822
_cell_length_b     31.601023
_cell_length_c     31.789569
_cell_angle_alpha  90.09732
_cell_angle_beta   90.006658
_cell_angle_gamma 90.021237
loop_
_atom_site_label
_atom_site_type_symbol
_atom_site_fract_x
_atom_site_fract_y
_atom_site_fract_z
_atom_type_partial_charge
Mg0 Mg 0.13808 0.14637 0.13425 0.0
O1 O 0.17314 0.18772 0.18186 0.0
O2 O 0.23104 0.15373 0.19705 0.0
Mg3 Mg 0.23168 0.09031 0.16222 0.0
C4 C 0.20727 0.18551 0.20131 0.0
C5 C 0.05919 0.19009 0.11264 0.0
O6 O 0.05013 0.14958 0.11277 0.0
O7 O 0.18212 0.16364 0.08216 0.0
O8 O 0.23704 0.12472 0.09844 0.0
O9 O 0.1055 0.11286 0.18515 0.0
O10 O 0.16437 0.09151 0.15816 0.0
C11 C 0.21804 0.15014 0.07401 0.0
C12 C 0.13519 0.08575 0.18483 0.0
O13 O 0.09604 0.20098 0.11931 0.0
Mg14 Mg 0.85452 0.36656 0.13535 0.0
O15 O 0.81775 0.32428 0.18063 0.0
O16 O 0.75814 0.35638 0.19203 0.0
Mg17 Mg 0.75787 0.41936 0.15689 0.0
C18 C 0.7825 0.32539 0.19787 0.0
C19 C 0.93428 0.32081 0.11353 0.0
O20 O 0.94522 0.36072 0.11066 0.0
O21 O 0.81443 0.34787 0.08044 0.0
O22 O 0.75738 0.38475 0.09297 0.0
O23 O 0.88271 0.40094 0.18847 0.0
O24 O 0.82567 0.42137 0.15725 0.0
C25 C 0.77878 0.36017 0.06978 0.0
C26 C 0.85277 0.42768 0.18612 0.0
O27 O 0.89749 0.31212 0.12294 0.0
Mg28 Mg 0.13398 0.87197 0.3362 0.0
O29 O 0.17232 0.834 0.28838 0.0
O30 O 0.22937 0.87089 0.27678 0.0
Mg31 Mg 0.22714 0.93222 0.31479 0.0
C32 C 0.20699 0.83842 0.27029 0.0
C33 C 0.05683 0.82298 0.35846 0.0
O34 O 0.04603 0.86263 0.36404 0.0
O35 O 0.17656 0.85356 0.38925 0.0
O36 O 0.23128 0.8941 0.37635 0.0
O37 O 0.10272 0.90708 0.28524 0.0
O38 O 0.15994 0.92839 0.31579 0.0
C39 C 0.2121 0.86714 0.39889 0.0
C40 C 0.13204 0.93453 0.28785 0.0
O41 O 0.09336 0.81507 0.3473 0.0
Mg42 Mg 0.8581 0.63736 0.34338 0.0
O43 O 0.82276 0.67879 0.29619 0.0
O44 O 0.76391 0.646 0.282 0.0
Mg45 Mg 0.76247 0.58303 0.31724 0.0
C46 C 0.78826 0.67728 0.27737 0.0
C47 C 0.93871 0.68524 0.35805 0.0
O48 O 0.95176 0.6463 0.35249 0.0
O49 O 0.81488 0.65643 0.39578 0.0
O50 O 0.75867 0.61914 0.38003 0.0
O51 O 0.88898 0.60175 0.29201 0.0
O52 O 0.82966 0.58343 0.32032 0.0
C53 C 0.77848 0.6444 0.404 0.0
C54 C 0.85774 0.57657 0.29279 0.0
O55 O 0.90048 0.69231 0.35702 0.0
Mg56 Mg 0.35244 0.86665 0.63259 0.0
O57 O 0.31209 0.82588 0.67583 0.0
O58 O 0.25435 0.86176 0.68714 0.0
Mg59 Mg 0.25867 0.9257 0.6539 0.0
C60 C 0.27649 0.8289 0.6922 0.0
C61 C 0.43155 0.82083 0.61506 0.0
O62 O 0.44159 0.86108 0.61611 0.0
O63 O 0.312 0.85129 0.57697 0.0
O64 O 0.25698 0.89144 0.58969 0.0
O65 O 0.38182 0.89813 0.68679 0.0
O66 O 0.32594 0.922 0.65561 0.0
C67 C 0.27707 0.86575 0.56639 0.0
C68 C 0.35308 0.92623 0.68474 0.0
O69 O 0.39415 0.81092 0.61979 0.0
Mg70 Mg 0.84728 0.85755 0.85202 0.0
O71 O 0.80414 0.81845 0.81055 0.0
O72 O 0.74237 0.84846 0.81262 0.0
Mg73 Mg 0.74535 0.90602 0.85679 0.0
C74 C 0.76658 0.81959 0.79948 0.0
C75 C 0.92761 0.81581 0.85869 0.0
O76 O 0.91895 0.83472 0.89447 0.0
O77 O 0.85113 0.91044 0.80196 0.0
O78 O 0.78984 0.94028 0.81311 0.0
O79 O 0.82812 0.81983 0.90903 0.0
O80 O 0.79846 0.87865 0.88802 0.0
C81 C 0.82502 0.93999 0.79559 0.0
C82 C 0.79988 0.84799 0.91435 0.0
O83 O 0.90294 0.82076 0.82817 0.0
Mg84 Mg 0.14067 0.64758 0.8518 0.0
O85 O 0.18082 0.68777 0.80873 0.0
O86 O 0.24389 0.66103 0.80778 0.0
Mg87 Mg 0.2445 0.60294 0.85123 0.0
C88 C 0.21783 0.68871 0.79602 0.0
C89 C 0.06322 0.69584 0.86164 0.0
O90 O 0.07512 0.6831 0.89903 0.0
O91 O 0.13585 0.59451 0.80165 0.0
O92 O 0.1989 0.56784 0.80956 0.0
O93 O 0.16205 0.68568 0.90807 0.0
O94 O 0.19172 0.62752 0.88533 0.0
C95 C 0.16302 0.56636 0.79367 0.0
C96 C 0.19096 0.65805 0.91187 0.0
O97 O 0.08381 0.68379 0.82987 0.0
Mg98 Mg 0.84818 0.1501 0.61039 0.0
O99 O 0.80839 0.1924 0.65266 0.0
O100 O 0.74563 0.16474 0.65554 0.0
Mg101 Mg 0.74547 0.10409 0.61563 0.0
C102 C 0.77142 0.1934 0.66567 0.0
C103 C 0.92939 0.18874 0.59753 0.0
O104 O 0.91826 0.16903 0.56295 0.0
O105 O 0.85423 0.10071 0.66286 0.0
O106 O 0.79092 0.07321 0.66134 0.0
O107 O 0.82685 0.18591 0.55387 0.0
O108 O 0.79666 0.12855 0.57849 0.0
C109 C 0.8275 0.07406 0.67547 0.0
C110 C 0.79719 0.1589 0.55159 0.0
O111 O 0.90588 0.18616 0.62927 0.0
Mg112 Mg 0.14566 0.35173 0.61191 0.0
O113 O 0.18523 0.31115 0.65595 0.0
O114 O 0.24755 0.33969 0.66004 0.0
Mg115 Mg 0.24733 0.40011 0.62022 0.0
C116 C 0.22191 0.31082 0.66985 0.0
C117 C 0.0696 0.30306 0.59628 0.0
O118 O 0.08253 0.31822 0.56019 0.0
O119 O 0.13649 0.40182 0.66366 0.0
O120 O 0.19977 0.42935 0.66455 0.0
O121 O 0.17025 0.3158 0.55647 0.0
O122 O 0.1978 0.37427 0.58167 0.0
C123 C 0.16277 0.42844 0.67746 0.0
C124 C 0.19919 0.34366 0.55503 0.0
O125 O 0.08871 0.31362 0.62951 0.0
Mg126 Mg 0.63534 0.15394 0.35085 0.0
O127 O 0.68384 0.18966 0.31368 0.0
O128 O 0.74494 0.15924 0.31941 0.0
Mg129 Mg 0.73438 0.1006 0.36116 0.0
C130 C 0.72191 0.18848 0.30508 0.0
C131 C 0.55154 0.18982 0.31046 0.0
O132 O 0.53769 0.15093 0.31359 0.0
O133 O 0.63202 0.10243 0.2997 0.0
O134 O 0.69288 0.0714 0.31078 0.0
O135 O 0.65289 0.19026 0.40857 0.0
O136 O 0.67976 0.12863 0.39055 0.0
C137 C 0.65851 0.07367 0.29179 0.0
C138 C 0.67891 0.16033 0.41591 0.0
O139 O 0.58831 0.1976 0.32081 0.0
Mg140 Mg 0.6333 0.63911 0.63405 0.0
O141 O 0.67123 0.68078 0.67856 0.0
O142 O 0.73002 0.64764 0.69169 0.0
Mg143 Mg 0.72865 0.5838 0.6576 0.0
C144 C 0.7063 0.67943 0.69617 0.0
C145 C 0.55361 0.68682 0.61561 0.0
O146 O 0.54117 0.64727 0.61611 0.0
O147 O 0.67468 0.65632 0.5798 0.0
O148 O 0.73089 0.61851 0.59381 0.0
O149 O 0.60384 0.60604 0.68728 0.0
O150 O 0.66115 0.58457 0.65704 0.0
C151 C 0.71044 0.64346 0.57014 0.0
C152 C 0.63364 0.57909 0.68556 0.0
O153 O 0.59137 0.6945 0.62114 0.0
Mg154 Mg 0.63887 0.3657 0.83749 0.0
O155 O 0.67841 0.32732 0.79097 0.0
O156 O 0.73544 0.36428 0.77944 0.0
Mg157 Mg 0.73179 0.42635 0.8163 0.0
C158 C 0.71335 0.33151 0.77336 0.0
C159 C 0.5602 0.31697 0.85297 0.0
O160 O 0.54821 0.35663 0.85143 0.0
O161 O 0.68091 0.34828 0.89125 0.0
O162 O 0.73553 0.38905 0.87857 0.0
O163 O 0.60781 0.39969 0.78581 0.0
O164 O 0.66453 0.42219 0.81654 0.0
C165 C 0.71626 0.36219 0.9012 0.0
C166 C 0.6366 0.42772 0.78847 0.0
O167 O 0.59806 0.30888 0.84884 0.0
Mg168 Mg 0.35687 0.13841 0.83896 0.0
O169 O 0.31613 0.17753 0.79434 0.0
O170 O 0.25816 0.14143 0.78509 0.0
Mg171 Mg 0.26219 0.07938 0.82172 0.0
C172 C 0.28048 0.17382 0.77814 0.0
C173 C 0.43658 0.18428 0.8554 0.0
O174 O 0.44623 0.14398 0.85729 0.0
O175 O 0.3175 0.1566 0.89463 0.0
O176 O 0.2618 0.11674 0.88426 0.0
O177 O 0.38514 0.10425 0.78574 0.0
O178 O 0.3294 0.08245 0.8187 0.0
C179 C 0.28252 0.14309 0.90623 0.0
C180 C 0.35599 0.07674 0.78929 0.0
O181 O 0.39942 0.19418 0.84886 0.0
Mg182 Mg 0.35276 0.36239 0.34985 0.0
O183 O 0.30435 0.32432 0.31504 0.0
O184 O 0.24181 0.34896 0.32763 0.0
Mg185 Mg 0.25116 0.40608 0.37191 0.0
C186 C 0.26576 0.32256 0.3098 0.0
C187 C 0.43813 0.32994 0.3184 0.0
O188 O 0.45057 0.36192 0.34159 0.0
O189 O 0.34796 0.41678 0.30168 0.0
O190 O 0.28661 0.4413 0.32098 0.0
O191 O 0.34245 0.32204 0.40719 0.0
O192 O 0.31027 0.38216 0.39445 0.0
C193 C 0.31889 0.44378 0.29842 0.0
C194 C 0.31536 0.34979 0.41816 0.0
O195 O 0.40002 0.32481 0.31287 0.0
Mg196 Mg 0.34801 0.65793 0.11701 0.0
O197 O 0.30245 0.69925 0.15217 0.0
O198 O 0.23895 0.67447 0.14707 0.0
Mg199 Mg 0.24462 0.61348 0.10775 0.0
C200 C 0.26443 0.70203 0.16041 0.0
C201 C 0.43478 0.68743 0.15447 0.0
O202 O 0.44533 0.64761 0.14966 0.0
O203 O 0.34676 0.60852 0.17044 0.0
O204 O 0.28334 0.58377 0.15956 0.0
O205 O 0.33337 0.69217 0.05668 0.0
O206 O 0.30204 0.63434 0.07857 0.0
C207 C 0.31739 0.58317 0.17931 0.0
C208 C 0.30569 0.66348 0.05081 0.0
O209 O 0.39839 0.6985 0.14586 0.0
Mg210 Mg 0.64532 0.85021 0.1222 0.0
O211 O 0.69223 0.81383 0.16054 0.0
O212 O 0.75351 0.8442 0.15636 0.0
Mg213 Mg 0.74559 0.90138 0.11198 0.0
C214 C 0.73002 0.81513 0.17026 0.0
C215 C 0.5583 0.81913 0.15333 0.0
O216 O 0.54713 0.85664 0.13975 0.0
O217 O 0.64229 0.90365 0.17192 0.0
O218 O 0.70243 0.93458 0.15784 0.0
O219 O 0.66297 0.81332 0.06396 0.0
O220 O 0.69066 0.87394 0.08324 0.0
C221 C 0.66809 0.9338 0.17706 0.0
C222 C 0.68904 0.84329 0.05686 0.0
O223 O 0.59596 0.8094 0.15244 0.0
C224 C 0.261 0.22198 0.24424 0.0
C225 C 0.22048 0.22094 0.22923 0.0
C226 C 0.27497 0.2548 0.27011 0.0
C227 C 0.24907 0.28821 0.28255 0.0
H228 H 0.28251 0.19733 0.23574 0.0
H229 H 0.30652 0.25373 0.2805 0.0
S230 S 0.13987 0.30057 0.25253 0.0
N231 N 0.15428 0.25635 0.22911 0.0
N232 N 0.18058 0.31806 0.27795 0.0
C233 C 0.20831 0.28757 0.26811 0.0
C234 C 0.19405 0.25407 0.24141 0.0
C235 C 0.72843 0.28962 0.24082 0.0
C236 C 0.76876 0.28979 0.22524 0.0
C237 C 0.71397 0.25689 0.26639 0.0
C238 C 0.73911 0.22259 0.2779 0.0
H239 H 0.70744 0.31499 0.23313 0.0
H240 H 0.68261 0.25876 0.27725 0.0
S241 S 0.84748 0.20746 0.24579 0.0
N242 N 0.83391 0.25241 0.22338 0.0
N243 N 0.8067 0.19083 0.27161 0.0
C244 C 0.77965 0.22223 0.26274 0.0
C245 C 0.79443 0.25572 0.23642 0.0
C246 C 0.21025 0.73745 0.20433 0.0
C247 C 0.24992 0.73787 0.18704 0.0
C248 C 0.19661 0.77005 0.23094 0.0
C249 C 0.22197 0.80466 0.24127 0.0
H250 H 0.18961 0.71141 0.19781 0.0
H251 H 0.16593 0.76789 0.24361 0.0
S252 S 0.32827 0.82182 0.20297 0.0
N253 N 0.31412 0.77668 0.18131 0.0
N254 N 0.28868 0.83759 0.23108 0.0
C255 C 0.26156 0.80578 0.22364 0.0
C256 C 0.27547 0.77256 0.19666 0.0
C257 C 0.73622 0.71189 0.23102 0.0
C258 C 0.7752 0.71301 0.24986 0.0
C259 C 0.72223 0.74498 0.20565 0.0
C260 C 0.74655 0.78088 0.1976 0.0
H261 H 0.71593 0.68523 0.23594 0.0
H262 H 0.69194 0.74208 0.1921 0.0
S263 S 0.85118 0.79997 0.23929 0.0
N264 N 0.83814 0.75344 0.25867 0.0
N265 N 0.8118 0.81565 0.21074 0.0
C266 C 0.78575 0.78254 0.21601 0.0
C267 C 0.80005 0.74871 0.24215 0.0
C268 C 0.28668 0.76018 0.73039 0.0
C269 C 0.26038 0.79311 0.71779 0.0
C270 C 0.27255 0.72645 0.75508 0.0
C271 C 0.23143 0.72396 0.76819 0.0
H272 H 0.31869 0.76058 0.72157 0.0
H273 H 0.29433 0.70232 0.76423 0.0
S274 S 0.14927 0.80095 0.74189 0.0
N275 N 0.19062 0.82022 0.71913 0.0
N276 N 0.16413 0.75703 0.76532 0.0
C277 C 0.20455 0.75632 0.75517 0.0
C278 C 0.21899 0.79077 0.73011 0.0
C279 C 0.75947 0.71476 0.74099 0.0
C280 C 0.72052 0.71599 0.72205 0.0
C281 C 0.7741 0.74852 0.76531 0.0
C282 C 0.75043 0.78514 0.77206 0.0
H283 H 0.77909 0.6874 0.73717 0.0
H284 H 0.80416 0.7455 0.77934 0.0
S285 S 0.64673 0.80534 0.72839 0.0
N286 N 0.65877 0.75773 0.71097 0.0
N287 N 0.68623 0.82108 0.75676 0.0
C288 C 0.7115 0.7871 0.75305 0.0
C289 C 0.69658 0.75265 0.72809 0.0
C290 C 0.70524 0.26042 0.73868 0.0
C291 C 0.72898 0.29702 0.7455 0.0
C292 C 0.71922 0.22729 0.71301 0.0
C293 C 0.75767 0.22907 0.69302 0.0
H294 H 0.6755 0.25712 0.75332 0.0
H295 H 0.69961 0.19991 0.70902 0.0
S296 S 0.8318 0.31809 0.69977 0.0
N297 N 0.79304 0.33312 0.7295 0.0
N298 N 0.81915 0.271 0.68145 0.0
C299 C 0.78179 0.2655 0.69945 0.0
C300 C 0.7675 0.29935 0.72554 0.0
C301 C 0.27458 0.27706 0.71658 0.0
C302 C 0.23558 0.27562 0.69771 0.0
C303 C 0.28868 0.24422 0.74242 0.0
C304 C 0.26447 0.20825 0.75058 0.0
H305 H 0.29464 0.30388 0.71145 0.0
H306 H 0.31892 0.24717 0.75602 0.0
S307 S 0.15984 0.18851 0.7087 0.0
N308 N 0.17288 0.23486 0.68903 0.0
N309 N 0.19921 0.17328 0.73742 0.0
C310 C 0.2253 0.20635 0.73196 0.0
C311 C 0.21091 0.2399 0.70566 0.0
C312 C 0.16979 0.99131 0.24916 0.0
C313 C 0.13252 0.97249 0.26093 0.0
C314 C 0.17057 0.02817 0.22468 0.0
C315 C 0.13409 0.048 0.21206 0.0
H316 H 0.19859 0.97724 0.25839 0.0
H317 H 0.19992 0.04136 0.21594 0.0
S318 S 0.02846 0.01155 0.23518 0.0
N319 N 0.05826 0.97634 0.25818 0.0
N320 N 0.05965 0.046 0.21297 0.0
C321 C 0.09662 0.02968 0.22398 0.0
C322 C 0.09586 0.99176 0.24813 0.0
C323 C 0.88557 0.47354 0.24043 0.0
C324 C 0.8519 0.4655 0.21386 0.0
C325 C 0.88753 0.5102 0.26509 0.0
C326 C 0.85556 0.53974 0.26478 0.0
H327 H 0.91105 0.45168 0.24188 0.0
H328 H 0.91397 0.51513 0.28509 0.0
S329 S 0.76148 0.53553 0.20014 0.0
N330 N 0.78657 0.4919 0.18777 0.0
N331 N 0.78993 0.55993 0.23559 0.0
C332 C 0.82172 0.53243 0.23875 0.0
C333 C 0.81998 0.49551 0.21288 0.0
C334 C 0.22479 0.15606 0.95582 0.0
C335 C 0.26718 0.15421 0.94853 0.0
C336 C 0.20916 0.15855 -0.00323 0.0
C337 C 0.23538 0.15817 0.03188 0.0
H338 H 0.20349 0.15382 0.92979 0.0
H339 H 0.17626 0.1577 0.00093 0.0
S340 S 0.34879 0.15858 0.02964 0.0
N341 N 0.33522 0.15656 0.97963 0.0
N342 N 0.30568 0.15994 0.05671 0.0
C343 C 0.27782 0.15901 0.02496 0.0
C344 C 0.29378 0.15741 0.98321 0.0
C345 C 0.72144 0.34983 0.019 0.0
C346 C 0.76377 0.35081 0.02689 0.0
C347 C 0.70625 0.34986 0.97779 0.0
C348 C 0.7329 0.35193 0.94311 0.0
H349 H 0.69985 0.35094 0.04484 0.0
H350 H 0.67342 0.35133 0.97324 0.0
S351 S 0.84624 0.34974 0.94654 0.0
N352 N 0.83214 0.3492 -0.00358 0.0
N353 N 0.8034 0.35051 0.91899 0.0
C354 C 0.77522 0.3501 0.95044 0.0
C355 C 0.79073 0.34915 -0.00763 0.0
C356 C 0.21868 0.85683 0.51667 0.0
C357 C 0.26114 0.85666 0.52385 0.0
C358 C 0.20285 0.85639 0.47573 0.0
C359 C 0.22901 0.85681 0.44061 0.0
H360 H 0.19754 0.85912 0.54284 0.0
H361 H 0.17002 0.85882 0.47164 0.0
S362 S 0.34227 0.85137 0.44227 0.0
N363 N 0.32895 0.85232 0.49238 0.0
N364 N 0.29905 0.85282 0.41539 0.0
C365 C 0.27138 0.85391 0.44729 0.0
C366 C 0.2875 0.85343 0.48897 0.0
C367 C 0.76974 0.65343 0.52178 0.0
C368 C 0.72714 0.65344 0.52811 0.0
C369 C 0.78634 0.65439 0.48119 0.0
C370 C 0.76085 0.65443 0.44554 0.0
H371 H 0.7904 0.65076 0.54831 0.0
H372 H 0.81924 0.65195 0.47776 0.0
S373 S 0.64757 0.66028 0.44501 0.0
N374 N 0.65994 0.65847 0.49534 0.0
N375 N 0.6913 0.65915 0.41901 0.0
C376 C 0.71837 0.65745 0.45143 0.0
C377 C 0.70145 0.6573 0.49277 0.0
C378 C 0.00703 0.29715 0.10829 0.0
C379 C 0.96517 0.28677 0.10945 0.0
C380 C 0.03714 0.26567 0.10813 0.0
C381 C 0.02663 0.22249 0.10886 0.0
H382 H 0.01681 0.3299 0.10868 0.0
H383 H 0.06893 0.27539 0.10829 0.0
S384 S 0.92117 0.17838 0.10838 0.0
N385 N 0.91463 0.23015 0.10871 0.0
N386 N 0.97115 0.17096 0.10821 0.0
C387 C 0.98482 0.2116 0.1083 0.0
C388 C 0.95413 0.24371 0.10867 0.0
C389 C 0.01023 0.71303 0.35506 0.0
C390 C 0.96831 0.7206 0.36181 0.0
C391 C 0.03865 0.74618 0.35506 0.0
C392 C 0.02639 0.78831 0.36197 0.0
H393 H 0.02124 0.68134 0.34868 0.0
H394 H 0.07041 0.73866 0.34878 0.0
S395 S 0.92053 0.82479 0.38462 0.0
N396 N 0.91619 0.77318 0.37804 0.0
N397 N 0.96957 0.83548 0.37819 0.0
C398 C 0.98474 0.7962 0.3703 0.0
C399 C 0.95573 0.76239 0.37016 0.0
C400 C 0.48142 0.71248 0.61045 0.0
C401 C 0.52352 0.72177 0.61208 0.0
C402 C 0.45202 0.7447 0.61039 0.0
C403 C 0.46347 0.7876 0.61181 0.0
H404 H 0.47086 0.67999 0.61013 0.0
H405 H 0.42002 0.73575 0.60996 0.0
S406 S 0.56992 0.82911 0.61372 0.0
N407 N 0.57529 0.7772 0.61317 0.0
N408 N 0.52013 0.83774 0.61292 0.0
C409 C 0.50554 0.79745 0.61205 0.0
C410 C 0.53551 0.76457 0.61223 0.0
C411 C 0.85303 1.00345 0.69856 0.0
C412 C 0.83749 0.0437 0.70885 0.0
C413 C 0.85209 0.97018 0.72797 0.0
C414 C 0.83485 0.97627 0.76806 0.0
H415 H 0.86353 0.99698 0.66688 0.0
H416 H 0.86211 0.93898 0.71829 0.0
S417 S 0.79476 0.0773 0.81131 0.0
N418 N 0.80811 0.08884 0.76256 0.0
N419 N 0.80613 0.02681 0.81781 0.0
C420 C 0.82186 0.01724 0.77935 0.0
C421 C 0.82313 0.05086 0.74967 0.0
C422 C 0.17341 0.49055 0.7768 0.0
C423 C 0.15371 0.52899 0.76715 0.0
C424 C 0.1727 0.45636 0.74895 0.0
C425 C 0.15189 0.459 0.71053 0.0
H426 H 0.1914 0.48752 0.80528 0.0
H427 H 0.19069 0.42854 0.75637 0.0
S428 S 0.09194 0.55049 0.67182 0.0
N429 N 0.10983 0.56633 0.71789 0.0
N430 N 0.10852 0.5015 0.66518 0.0
C431 C 0.12948 0.49588 0.70164 0.0
C432 C 0.13024 0.53103 0.73016 0.0
C433 C 0.7324 0.80623 0.00275 0.0
C434 C 0.71602 0.84373 0.01965 0.0
C435 C 0.75978 0.80751 0.96859 0.0
C436 C 0.7706 0.84622 0.94972 0.0
H437 H 0.72481 0.77593 0.01661 0.0
H438 H 0.77236 0.77809 0.95677 0.0
S439 S 0.73457 0.95303 0.98153 0.0
N440 N 0.7118 0.92037 0.01449 0.0
N441 N 0.76234 0.92276 0.95033 0.0
C442 C 0.75363 0.88373 0.96595 0.0
C443 C 0.72656 0.88248 0.00092 0.0
C444 C 0.23263 0.69893 0.96472 0.0
C445 C 0.22178 0.66016 0.94585 0.0
C446 C 0.26113 0.70043 -0.00209 0.0
C447 C 0.27863 0.66308 0.01376 0.0
H448 H 0.21905 0.72819 0.95381 0.0
H449 H 0.26852 0.7307 0.01204 0.0
S450 S 0.26087 0.55383 0.97506 0.0
N451 N 0.23156 0.58378 0.94514 0.0
N452 N 0.28411 0.58667 0.00762 0.0
C453 C 0.26827 0.62435 -0.0051 0.0
C454 C 0.24008 0.62286 0.96089 0.0
C455 C 0.71859 0.12418 0.47165 0.0
C456 C 0.70767 0.16208 0.45155 0.0
C457 C 0.74658 0.12392 0.50487 0.0
C458 C 0.76556 0.16142 0.51855 0.0
H459 H 0.70529 0.09438 0.46168 0.0
H460 H 0.75424 0.09384 0.51916 0.0
S461 S 0.74721 0.26916 0.47645 0.0
N462 N 0.71706 0.23828 0.44811 0.0
N463 N 0.77103 0.23769 0.50991 0.0
C464 C 0.75482 0.19967 0.49887 0.0
C465 C 0.72545 0.20004 0.46555 0.0
C466 C 0.2527 0.37972 0.51287 0.0
C467 C 0.23187 0.34212 0.5229 0.0
C468 C 0.28054 0.38121 0.4796 0.0
C469 C 0.28946 0.345 0.45569 0.0
H470 H 0.2463 0.4088 0.52972 0.0
H471 H 0.29475 0.41126 0.47208 0.0
S472 S 0.24568 0.23798 0.47063 0.0
N473 N 0.22341 0.26717 0.50724 0.0
N474 N 0.27701 0.26998 0.44512 0.0
C475 C 0.27046 0.30668 0.46638 0.0
C476 C 0.24128 0.30527 0.49987 0.0
C477 C 0.01545 0.74697 0.8951 0.0
C478 C 0.02888 0.72645 0.85832 0.0
C479 C 0.98348 0.77622 0.89428 0.0
C480 C 0.96292 0.78621 0.85669 0.0
H481 H 0.02984 0.74063 0.92513 0.0
H482 H 0.97454 0.79064 0.92381 0.0
S483 S 0.98645 0.74198 0.75115 0.0
N484 N 0.01968 0.71876 0.78275 0.0
N485 N 0.95876 0.7736 0.78126 0.0
C486 C 0.97608 0.76625 0.8194 0.0
C487 C 0.00923 0.73649 0.82019 0.0
C488 C 0.01162 0.26656 0.63377 0.0
C489 C 0.03501 0.27263 0.5971 0.0
C490 C 0.97786 0.2389 0.63403 0.0
C491 C 0.96661 0.21591 0.59777 0.0
H492 H 0.01889 0.28395 0.6622 0.0
H493 H 0.96021 0.23595 0.66271 0.0
S494 S 0.02046 0.21781 0.4947 0.0
N495 N 0.04607 0.25149 0.52437 0.0
N496 N 0.9834 0.19956 0.52484 0.0
C497 C 0.99071 0.22079 0.56133 0.0
C498 C 0.02467 0.24913 0.56099 0.0
C499 C 0.53671 0.26746 0.31225 0.0
C500 C 0.52318 0.22598 0.30353 0.0
C501 C 0.5093 0.30145 0.31416 0.0
C502 C 0.46723 0.29559 0.30705 0.0
H503 H 0.56844 0.27358 0.32001 0.0
H504 H 0.52105 0.33218 0.32329 0.0
S505 S 0.41724 0.19491 0.27477 0.0
N506 N 0.46574 0.18211 0.28185 0.0
N507 N 0.41418 0.24606 0.28489 0.0
C508 C 0.45381 0.25505 0.29442 0.0
C509 C 0.48177 0.22025 0.29284 0.0
C510 C 0.67154 0.52227 0.72428 0.0
C511 C 0.63429 0.54161 0.71323 0.0
C512 C 0.67228 0.48539 0.74883 0.0
C513 C 0.63575 0.46604 0.76207 0.0
H514 H 0.70032 0.53581 0.71417 0.0
H515 H 0.70157 0.47162 0.75687 0.0
S516 S 0.53023 0.50408 0.7415 0.0
N517 N 0.56002 0.53886 0.71783 0.0
N518 N 0.56142 0.46916 0.76296 0.0
C519 C 0.59836 0.48499 0.75111 0.0
C520 C 0.59762 0.52293 0.727 0.0
C521 C 0.31786 0.02024 0.75001 0.0
C522 C 0.35516 0.0387 0.76236 0.0
C523 C 0.31716 0.98364 0.72487 0.0
C524 C 0.35372 0.9637 0.71247 0.0
H525 H 0.2891 0.0345 0.75923 0.0
H526 H 0.28787 0.97068 0.71546 0.0
S527 S 0.45927 0.99905 0.73757 0.0
N528 N 0.42941 0.03426 0.76059 0.0
N529 N 0.42811 0.96507 0.71449 0.0
C530 C 0.39112 0.98158 0.72521 0.0
C531 C 0.39183 0.01923 0.74983 0.0
C532 C 0.45782 0.26032 0.85411 0.0
C533 C 0.4687 0.21742 0.85784 0.0
C534 C 0.48758 0.29219 0.85354 0.0
C535 C 0.52954 0.28254 0.85654 0.0
H536 H 0.42603 0.26949 0.85089 0.0
H537 H 0.47749 0.32461 0.84985 0.0
S538 S 0.57431 0.1754 0.86978 0.0
N539 N 0.52452 0.16713 0.8668 0.0
N540 N 0.58039 0.22706 0.86558 0.0
C541 C 0.54088 0.23989 0.86148 0.0
C542 C 0.51051 0.20736 0.86219 0.0
C543 C 0.28615 0.53905 0.23476 0.0
C544 C 0.32153 0.55086 0.21266 0.0
C545 C 0.28611 0.50463 0.26205 0.0
C546 C 0.32148 0.48 0.26865 0.0
H547 H 0.25773 0.55615 0.23032 0.0
H548 H 0.25755 0.49704 0.27761 0.0
S549 S 0.42298 0.49878 0.2195 0.0
N550 N 0.39348 0.53634 0.19981 0.0
N551 N 0.39367 0.47111 0.25169 0.0
C552 C 0.3576 0.49202 0.24752 0.0
C553 C 0.35762 0.52764 0.21958 0.0
C554 C 0.67405 0.04457 0.22182 0.0
C555 C 0.65109 0.04194 0.25888 0.0
C556 C 0.67745 0.00986 0.19476 0.0
C557 C 0.65837 0.97089 0.20393 0.0
H558 H 0.69138 0.07297 0.21484 0.0
H559 H 0.69657 0.01324 0.16713 0.0
S560 S 0.59256 0.94891 0.29633 0.0
N561 N 0.60718 0.99858 0.30282 0.0
N562 N 0.61333 0.93288 0.25164 0.0
C563 C 0.63329 0.96863 0.2398 0.0
C564 C 0.62986 1.00425 0.26747 0.0
C565 C 0.48526 0.79555 0.15681 0.0
C566 C 0.52701 0.78599 0.16186 0.0
C567 C 0.45547 0.76368 0.15709 0.0
C568 C 0.4661 0.72075 0.1622 0.0
H569 H 0.47551 0.82771 0.15068 0.0
H570 H 0.42402 0.77277 0.15119 0.0
S571 S 0.57029 0.67959 0.18433 0.0
N572 N 0.57684 0.73098 0.178 0.0
N573 N 0.5208 0.67111 0.17811 0.0
C574 C 0.50732 0.71107 0.1706 0.0
C575 C 0.53775 0.74365 0.17055 0.0
loop_
_geom_bond_atom_site_label_1
_geom_bond_atom_site_label_2
_geom_bond_distance
_geom_bond_site_symmetry_2
_ccdc_geom_bond_type
Mg0 O1 2.028 . S
Mg0 O7 1.986 . S
Mg0 O9 2.114 . S
Mg0 O10 2.251 . S
Mg0 O13 2.010 . S
O1 Mg0 2.028 . S
O1 C4 1.250 . S
O2 Mg3 2.028 . S
O2 C4 1.248 . S
Mg3 O2 2.028 . S
Mg3 O8 2.032 . S
Mg3 O10 2.079 . S
C4 O1 1.250 . S
C4 O2 1.248 . S
C5 O6 1.264 . S
C5 O13 1.249 . S
O6 C5 1.264 . S
O7 Mg0 1.986 . S
O7 C11 1.246 . S
O8 Mg3 2.032 . S
O8 C11 1.259 . S
O9 Mg0 2.114 . S
O9 C12 1.252 . S
O10 Mg0 2.251 . S
O10 Mg3 2.079 . S
O10 C12 1.273 . S
C11 O7 1.246 . S
C11 O8 1.259 . S
C12 O9 1.252 . S
C12 O10 1.273 . S
O13 Mg0 2.010 . S
O13 C5 1.249 . S
Mg14 O15 2.028 . S
Mg14 O21 1.986 . S
Mg14 O23 2.114 . S
Mg14 O24 2.251 . S
Mg14 O27 2.010 . S
O15 Mg14 2.028 . S
O15 C18 1.250 . S
O16 Mg17 2.028 . S
O16 C18 1.248 . S
Mg17 O16 2.028 . S
Mg17 O22 2.032 . S
Mg17 O24 2.079 . S
C18 O15 1.250 . S
C18 O16 1.248 . S
C19 O20 1.264 . S
C19 O27 1.249 . S
O20 C19 1.264 . S
O21 Mg14 1.986 . S
O21 C25 1.246 . S
O22 Mg17 2.032 . S
O22 C25 1.259 . S
O23 Mg14 2.114 . S
O23 C26 1.252 . S
O24 Mg14 2.251 . S
O24 Mg17 2.079 . S
O24 C26 1.273 . S
C25 O21 1.246 . S
C25 O22 1.259 . S
C26 O23 1.252 . S
C26 O24 1.273 . S
O27 Mg14 2.010 . S
O27 C19 1.249 . S
Mg28 O29 2.028 . S
Mg28 O35 1.986 . S
Mg28 O37 2.114 . S
Mg28 O38 2.251 . S
Mg28 O41 2.010 . S
O29 Mg28 2.028 . S
O29 C32 1.250 . S
O30 Mg31 2.028 . S
O30 C32 1.248 . S
Mg31 O30 2.028 . S
Mg31 O36 2.032 . S
Mg31 O38 2.079 . S
C32 O29 1.250 . S
C32 O30 1.248 . S
C33 O34 1.264 . S
C33 O41 1.249 . S
O34 C33 1.264 . S
O35 Mg28 1.986 . S
O35 C39 1.246 . S
O36 Mg31 2.032 . S
O36 C39 1.259 . S
O37 Mg28 2.114 . S
O37 C40 1.252 . S
O38 Mg28 2.251 . S
O38 Mg31 2.079 . S
O38 C40 1.273 . S
C39 O35 1.246 . S
C39 O36 1.259 . S
C40 O37 1.252 . S
C40 O38 1.273 . S
O41 Mg28 2.010 . S
O41 C33 1.249 . S
Mg42 O43 2.028 . S
Mg42 O49 1.986 . S
Mg42 O51 2.114 . S
Mg42 O52 2.251 . S
Mg42 O55 2.010 . S
O43 Mg42 2.028 . S
O43 C46 1.250 . S
O44 Mg45 2.028 . S
O44 C46 1.248 . S
Mg45 O44 2.028 . S
Mg45 O50 2.032 . S
Mg45 O52 2.079 . S
C46 O43 1.250 . S
C46 O44 1.248 . S
C47 O48 1.264 . S
C47 O55 1.249 . S
O48 C47 1.264 . S
O49 Mg42 1.986 . S
O49 C53 1.246 . S
O50 Mg45 2.032 . S
O50 C53 1.259 . S
O51 Mg42 2.114 . S
O51 C54 1.252 . S
O52 Mg42 2.251 . S
O52 Mg45 2.079 . S
O52 C54 1.273 . S
C53 O49 1.246 . S
C53 O50 1.259 . S
C54 O51 1.252 . S
C54 O52 1.273 . S
O55 Mg42 2.010 . S
O55 C47 1.249 . S
Mg56 O57 2.028 . S
Mg56 O63 1.986 . S
Mg56 O65 2.114 . S
Mg56 O66 2.251 . S
Mg56 O69 2.010 . S
O57 Mg56 2.028 . S
O57 C60 1.250 . S
O58 Mg59 2.028 . S
O58 C60 1.248 . S
Mg59 O58 2.028 . S
Mg59 O64 2.032 . S
Mg59 O66 2.079 . S
C60 O57 1.250 . S
C60 O58 1.248 . S
C61 O62 1.264 . S
C61 O69 1.249 . S
O62 C61 1.264 . S
O63 Mg56 1.986 . S
O63 C67 1.246 . S
O64 Mg59 2.032 . S
O64 C67 1.259 . S
O65 Mg56 2.114 . S
O65 C68 1.252 . S
O66 Mg56 2.251 . S
O66 Mg59 2.079 . S
O66 C68 1.273 . S
C67 O63 1.246 . S
C67 O64 1.259 . S
C68 O65 1.252 . S
C68 O66 1.273 . S
O69 Mg56 2.010 . S
O69 C61 1.249 . S
Mg70 O71 2.028 . S
Mg70 O77 1.986 . S
Mg70 O79 2.114 . S
Mg70 O80 2.251 . S
Mg70 O83 2.010 . S
O71 Mg70 2.028 . S
O71 C74 1.250 . S
O72 Mg73 2.028 . S
O72 C74 1.248 . S
Mg73 O72 2.028 . S
Mg73 O78 2.032 . S
Mg73 O80 2.079 . S
C74 O71 1.250 . S
C74 O72 1.248 . S
C75 O76 1.264 . S
C75 O83 1.249 . S
O76 C75 1.264 . S
O77 Mg70 1.986 . S
O77 C81 1.246 . S
O78 Mg73 2.032 . S
O78 C81 1.259 . S
O79 Mg70 2.114 . S
O79 C82 1.252 . S
O80 Mg70 2.251 . S
O80 Mg73 2.079 . S
O80 C82 1.273 . S
C81 O77 1.246 . S
C81 O78 1.259 . S
C82 O79 1.252 . S
C82 O80 1.273 . S
O83 Mg70 2.010 . S
O83 C75 1.249 . S
Mg84 O85 2.028 . S
Mg84 O91 1.986 . S
Mg84 O93 2.114 . S
Mg84 O94 2.251 . S
Mg84 O97 2.010 . S
O85 Mg84 2.028 . S
O85 C88 1.250 . S
O86 Mg87 2.028 . S
O86 C88 1.248 . S
Mg87 O86 2.028 . S
Mg87 O92 2.032 . S
Mg87 O94 2.079 . S
C88 O85 1.250 . S
C88 O86 1.248 . S
C89 O90 1.264 . S
C89 O97 1.249 . S
O90 C89 1.264 . S
O91 Mg84 1.986 . S
O91 C95 1.246 . S
O92 Mg87 2.032 . S
O92 C95 1.259 . S
O93 Mg84 2.114 . S
O93 C96 1.252 . S
O94 Mg84 2.251 . S
O94 Mg87 2.079 . S
O94 C96 1.273 . S
C95 O91 1.246 . S
C95 O92 1.259 . S
C96 O93 1.252 . S
C96 O94 1.273 . S
O97 Mg84 2.010 . S
O97 C89 1.249 . S
Mg98 O99 2.028 . S
Mg98 O105 1.986 . S
Mg98 O107 2.114 . S
Mg98 O108 2.251 . S
Mg98 O111 2.010 . S
O99 Mg98 2.028 . S
O99 C102 1.250 . S
O100 Mg101 2.028 . S
O100 C102 1.248 . S
Mg101 O100 2.028 . S
Mg101 O106 2.032 . S
Mg101 O108 2.079 . S
C102 O99 1.250 . S
C102 O100 1.248 . S
C103 O104 1.264 . S
C103 O111 1.249 . S
O104 C103 1.264 . S
O105 Mg98 1.986 . S
O105 C109 1.246 . S
O106 Mg101 2.032 . S
O106 C109 1.259 . S
O107 Mg98 2.114 . S
O107 C110 1.252 . S
O108 Mg98 2.251 . S
O108 Mg101 2.079 . S
O108 C110 1.273 . S
C109 O105 1.246 . S
C109 O106 1.259 . S
C110 O107 1.252 . S
C110 O108 1.273 . S
O111 Mg98 2.010 . S
O111 C103 1.249 . S
Mg112 O113 2.028 . S
Mg112 O119 1.986 . S
Mg112 O121 2.114 . S
Mg112 O122 2.251 . S
Mg112 O125 2.010 . S
O113 Mg112 2.028 . S
O113 C116 1.250 . S
O114 Mg115 2.028 . S
O114 C116 1.248 . S
Mg115 O114 2.028 . S
Mg115 O120 2.032 . S
Mg115 O122 2.079 . S
C116 O113 1.250 . S
C116 O114 1.248 . S
C117 O118 1.264 . S
C117 O125 1.249 . S
O118 C117 1.264 . S
O119 Mg112 1.986 . S
O119 C123 1.246 . S
O120 Mg115 2.032 . S
O120 C123 1.259 . S
O121 Mg112 2.114 . S
O121 C124 1.252 . S
O122 Mg112 2.251 . S
O122 Mg115 2.079 . S
O122 C124 1.273 . S
C123 O119 1.246 . S
C123 O120 1.259 . S
C124 O121 1.252 . S
C124 O122 1.273 . S
O125 Mg112 2.010 . S
O125 C117 1.249 . S
Mg126 O127 2.028 . S
Mg126 O133 1.986 . S
Mg126 O135 2.114 . S
Mg126 O136 2.251 . S
Mg126 O139 2.010 . S
O127 Mg126 2.028 . S
O127 C130 1.250 . S
O128 Mg129 2.028 . S
O128 C130 1.248 . S
Mg129 O128 2.028 . S
Mg129 O134 2.032 . S
Mg129 O136 2.079 . S
C130 O127 1.250 . S
C130 O128 1.248 . S
C131 O132 1.264 . S
C131 O139 1.249 . S
O132 C131 1.264 . S
O133 Mg126 1.986 . S
O133 C137 1.246 . S
O134 Mg129 2.032 . S
O134 C137 1.259 . S
O135 Mg126 2.114 . S
O135 C138 1.252 . S
O136 Mg126 2.251 . S
O136 Mg129 2.079 . S
O136 C138 1.273 . S
C137 O133 1.246 . S
C137 O134 1.259 . S
C138 O135 1.252 . S
C138 O136 1.273 . S
O139 Mg126 2.010 . S
O139 C131 1.249 . S
Mg140 O141 2.028 . S
Mg140 O147 1.986 . S
Mg140 O149 2.114 . S
Mg140 O150 2.251 . S
Mg140 O153 2.010 . S
O141 Mg140 2.028 . S
O141 C144 1.250 . S
O142 Mg143 2.028 . S
O142 C144 1.248 . S
Mg143 O142 2.028 . S
Mg143 O148 2.032 . S
Mg143 O150 2.079 . S
C144 O141 1.250 . S
C144 O142 1.248 . S
C145 O146 1.264 . S
C145 O153 1.249 . S
O146 C145 1.264 . S
O147 Mg140 1.986 . S
O147 C151 1.246 . S
O148 Mg143 2.032 . S
O148 C151 1.259 . S
O149 Mg140 2.114 . S
O149 C152 1.252 . S
O150 Mg140 2.251 . S
O150 Mg143 2.079 . S
O150 C152 1.273 . S
C151 O147 1.246 . S
C151 O148 1.259 . S
C152 O149 1.252 . S
C152 O150 1.273 . S
O153 Mg140 2.010 . S
O153 C145 1.249 . S
Mg154 O155 2.028 . S
Mg154 O161 1.986 . S
Mg154 O163 2.114 . S
Mg154 O164 2.251 . S
Mg154 O167 2.010 . S
O155 Mg154 2.028 . S
O155 C158 1.250 . S
O156 Mg157 2.028 . S
O156 C158 1.248 . S
Mg157 O156 2.028 . S
Mg157 O162 2.032 . S
Mg157 O164 2.079 . S
C158 O155 1.250 . S
C158 O156 1.248 . S
C159 O160 1.264 . S
C159 O167 1.249 . S
O160 C159 1.264 . S
O161 Mg154 1.986 . S
O161 C165 1.246 . S
O162 Mg157 2.032 . S
O162 C165 1.259 . S
O163 Mg154 2.114 . S
O163 C166 1.252 . S
O164 Mg154 2.251 . S
O164 Mg157 2.079 . S
O164 C166 1.273 . S
C165 O161 1.246 . S
C165 O162 1.259 . S
C166 O163 1.252 . S
C166 O164 1.273 . S
O167 Mg154 2.010 . S
O167 C159 1.249 . S
Mg168 O169 2.028 . S
Mg168 O175 1.986 . S
Mg168 O177 2.114 . S
Mg168 O178 2.251 . S
Mg168 O181 2.010 . S
O169 Mg168 2.028 . S
O169 C172 1.250 . S
O170 Mg171 2.028 . S
O170 C172 1.248 . S
Mg171 O170 2.028 . S
Mg171 O176 2.032 . S
Mg171 O178 2.079 . S
C172 O169 1.250 . S
C172 O170 1.248 . S
C173 O174 1.264 . S
C173 O181 1.249 . S
O174 C173 1.264 . S
O175 Mg168 1.986 . S
O175 C179 1.246 . S
O176 Mg171 2.032 . S
O176 C179 1.259 . S
O177 Mg168 2.114 . S
O177 C180 1.252 . S
O178 Mg168 2.251 . S
O178 Mg171 2.079 . S
O178 C180 1.273 . S
C179 O175 1.246 . S
C179 O176 1.259 . S
C180 O177 1.252 . S
C180 O178 1.273 . S
O181 Mg168 2.010 . S
O181 C173 1.249 . S
Mg182 O183 2.028 . S
Mg182 O189 1.986 . S
Mg182 O191 2.114 . S
Mg182 O192 2.251 . S
Mg182 O195 2.010 . S
O183 Mg182 2.028 . S
O183 C186 1.250 . S
O184 Mg185 2.028 . S
O184 C186 1.248 . S
Mg185 O184 2.028 . S
Mg185 O190 2.032 . S
Mg185 O192 2.079 . S
C186 O183 1.250 . S
C186 O184 1.248 . S
C187 O188 1.264 . S
C187 O195 1.249 . S
O188 C187 1.264 . S
O189 Mg182 1.986 . S
O189 C193 1.246 . S
O190 Mg185 2.032 . S
O190 C193 1.259 . S
O191 Mg182 2.114 . S
O191 C194 1.252 . S
O192 Mg182 2.251 . S
O192 Mg185 2.079 . S
O192 C194 1.273 . S
C193 O189 1.246 . S
C193 O190 1.259 . S
C194 O191 1.252 . S
C194 O192 1.273 . S
O195 Mg182 2.010 . S
O195 C187 1.249 . S
Mg196 O197 2.028 . S
Mg196 O203 1.986 . S
Mg196 O205 2.114 . S
Mg196 O206 2.251 . S
Mg196 O209 2.010 . S
O197 Mg196 2.028 . S
O197 C200 1.250 . S
O198 Mg199 2.028 . S
O198 C200 1.248 . S
Mg199 O198 2.028 . S
Mg199 O204 2.032 . S
Mg199 O206 2.079 . S
C200 O197 1.250 . S
C200 O198 1.248 . S
C201 O202 1.264 . S
C201 O209 1.249 . S
O202 C201 1.264 . S
O203 Mg196 1.986 . S
O203 C207 1.246 . S
O204 Mg199 2.032 . S
O204 C207 1.259 . S
O205 Mg196 2.114 . S
O205 C208 1.252 . S
O206 Mg196 2.251 . S
O206 Mg199 2.079 . S
O206 C208 1.273 . S
C207 O203 1.246 . S
C207 O204 1.259 . S
C208 O205 1.252 . S
C208 O206 1.273 . S
O209 Mg196 2.010 . S
O209 C201 1.249 . S
Mg210 O211 2.028 . S
Mg210 O217 1.986 . S
Mg210 O219 2.114 . S
Mg210 O220 2.251 . S
Mg210 O223 2.010 . S
O211 Mg210 2.028 . S
O211 C214 1.250 . S
O212 Mg213 2.028 . S
O212 C214 1.248 . S
Mg213 O212 2.028 . S
Mg213 O218 2.032 . S
Mg213 O220 2.079 . S
C214 O211 1.250 . S
C214 O212 1.248 . S
C215 O216 1.264 . S
C215 O223 1.249 . S
O216 C215 1.264 . S
O217 Mg210 1.986 . S
O217 C221 1.246 . S
O218 Mg213 2.032 . S
O218 C221 1.259 . S
O219 Mg210 2.114 . S
O219 C222 1.252 . S
O220 Mg210 2.251 . S
O220 Mg213 2.079 . S
O220 C222 1.273 . S
C221 O217 1.246 . S
C221 O218 1.259 . S
C222 O219 1.252 . S
C222 O220 1.273 . S
O223 Mg210 2.010 . S
O223 C215 1.249 . S
C224 C225 1.369 . S
C224 C226 1.419 . S
C224 H228 0.930 . S
C225 C224 1.369 . S
C225 C234 1.429 . S
C226 C224 1.419 . S
C226 C227 1.363 . S
C226 H229 0.929 . S
C227 C226 1.363 . S
C227 C233 1.428 . S
H228 C224 0.930 . S
H229 C226 0.929 . S
S230 N231 1.613 . S
S230 N232 1.610 . S
N231 S230 1.613 . S
N231 C234 1.350 . S
N232 S230 1.610 . S
N232 C233 1.351 . S
C233 C227 1.428 . S
C233 N232 1.351 . S
C233 C234 1.434 . S
C234 C225 1.429 . S
C234 N231 1.350 . S
C234 C233 1.434 . S
C235 C236 1.369 . S
C235 C237 1.419 . S
C235 H239 0.930 . S
C236 C235 1.369 . S
C236 C245 1.429 . S
C237 C235 1.419 . S
C237 C238 1.363 . S
C237 H240 0.929 . S
C238 C237 1.363 . S
C238 C244 1.428 . S
H239 C235 0.930 . S
H240 C237 0.929 . S
S241 N242 1.613 . S
S241 N243 1.610 . S
N242 S241 1.613 . S
N242 C245 1.350 . S
N243 S241 1.610 . S
N243 C244 1.351 . S
C244 C238 1.428 . S
C244 N243 1.351 . S
C244 C245 1.434 . S
C245 C236 1.429 . S
C245 N242 1.350 . S
C245 C244 1.434 . S
C246 C247 1.369 . S
C246 C248 1.419 . S
C246 H250 0.930 . S
C247 C246 1.369 . S
C247 C256 1.429 . S
C248 C246 1.419 . S
C248 C249 1.363 . S
C248 H251 0.929 . S
C249 C248 1.363 . S
C249 C255 1.428 . S
H250 C246 0.930 . S
H251 C248 0.929 . S
S252 N253 1.613 . S
S252 N254 1.610 . S
N253 S252 1.613 . S
N253 C256 1.350 . S
N254 S252 1.610 . S
N254 C255 1.351 . S
C255 C249 1.428 . S
C255 N254 1.351 . S
C255 C256 1.434 . S
C256 C247 1.429 . S
C256 N253 1.350 . S
C256 C255 1.434 . S
C257 C258 1.369 . S
C257 C259 1.419 . S
C257 H261 0.930 . S
C258 C257 1.369 . S
C258 C267 1.429 . S
C259 C257 1.419 . S
C259 C260 1.363 . S
C259 H262 0.929 . S
C260 C259 1.363 . S
C260 C266 1.428 . S
H261 C257 0.930 . S
H262 C259 0.929 . S
S263 N264 1.613 . S
S263 N265 1.610 . S
N264 S263 1.613 . S
N264 C267 1.350 . S
N265 S263 1.610 . S
N265 C266 1.351 . S
C266 C260 1.428 . S
C266 N265 1.351 . S
C266 C267 1.434 . S
C267 C258 1.429 . S
C267 N264 1.350 . S
C267 C266 1.434 . S
C268 C269 1.369 . S
C268 C270 1.419 . S
C268 H272 0.930 . S
C269 C268 1.369 . S
C269 C278 1.429 . S
C270 C268 1.419 . S
C270 C271 1.363 . S
C270 H273 0.929 . S
C271 C270 1.363 . S
C271 C277 1.428 . S
H272 C268 0.930 . S
H273 C270 0.929 . S
S274 N275 1.613 . S
S274 N276 1.610 . S
N275 S274 1.613 . S
N275 C278 1.350 . S
N276 S274 1.610 . S
N276 C277 1.351 . S
C277 C271 1.428 . S
C277 N276 1.351 . S
C277 C278 1.434 . S
C278 C269 1.429 . S
C278 N275 1.350 . S
C278 C277 1.434 . S
C279 C280 1.369 . S
C279 C281 1.419 . S
C279 H283 0.930 . S
C280 C279 1.369 . S
C280 C289 1.429 . S
C281 C279 1.419 . S
C281 C282 1.363 . S
C281 H284 0.929 . S
C282 C281 1.363 . S
C282 C288 1.428 . S
H283 C279 0.930 . S
H284 C281 0.929 . S
S285 N286 1.613 . S
S285 N287 1.610 . S
N286 S285 1.613 . S
N286 C289 1.350 . S
N287 S285 1.610 . S
N287 C288 1.351 . S
C288 C282 1.428 . S
C288 N287 1.351 . S
C288 C289 1.434 . S
C289 C280 1.429 . S
C289 N286 1.350 . S
C289 C288 1.434 . S
C290 C291 1.369 . S
C290 C292 1.419 . S
C290 H294 0.930 . S
C291 C290 1.369 . S
C291 C300 1.429 . S
C292 C290 1.419 . S
C292 C293 1.363 . S
C292 H295 0.929 . S
C293 C292 1.363 . S
C293 C299 1.428 . S
H294 C290 0.930 . S
H295 C292 0.929 . S
S296 N297 1.613 . S
S296 N298 1.610 . S
N297 S296 1.613 . S
N297 C300 1.350 . S
N298 S296 1.610 . S
N298 C299 1.351 . S
C299 C293 1.428 . S
C299 N298 1.351 . S
C299 C300 1.434 . S
C300 C291 1.429 . S
C300 N297 1.350 . S
C300 C299 1.434 . S
C301 C302 1.369 . S
C301 C303 1.419 . S
C301 H305 0.930 . S
C302 C301 1.369 . S
C302 C311 1.429 . S
C303 C301 1.419 . S
C303 C304 1.363 . S
C303 H306 0.929 . S
C304 C303 1.363 . S
C304 C310 1.428 . S
H305 C301 0.930 . S
H306 C303 0.929 . S
S307 N308 1.613 . S
S307 N309 1.610 . S
N308 S307 1.613 . S
N308 C311 1.350 . S
N309 S307 1.610 . S
N309 C310 1.351 . S
C310 C304 1.428 . S
C310 N309 1.351 . S
C310 C311 1.434 . S
C311 C302 1.429 . S
C311 N308 1.350 . S
C311 C310 1.434 . S
C312 C313 1.369 . S
C312 C314 1.419 1_565 S
C312 H316 0.930 . S
C313 C312 1.369 . S
C313 C322 1.429 . S
C314 C312 1.419 1_545 S
C314 C315 1.363 . S
C314 H317 0.929 . S
C315 C314 1.363 . S
C315 C321 1.428 . S
H316 C312 0.930 . S
H317 C314 0.929 . S
S318 N319 1.613 1_545 S
S318 N320 1.610 . S
N319 S318 1.613 1_565 S
N319 C322 1.350 . S
N320 S318 1.610 . S
N320 C321 1.351 . S
C321 C315 1.428 . S
C321 N320 1.351 . S
C321 C322 1.434 1_545 S
C322 C313 1.429 . S
C322 N319 1.350 . S
C322 C321 1.434 1_565 S
C323 C324 1.369 . S
C323 C325 1.419 . S
C323 H327 0.930 . S
C324 C323 1.369 . S
C324 C333 1.429 . S
C325 C323 1.419 . S
C325 C326 1.363 . S
C325 H328 0.929 . S
C326 C325 1.363 . S
C326 C332 1.428 . S
H327 C323 0.930 . S
H328 C325 0.929 . S
S329 N330 1.613 . S
S329 N331 1.610 . S
N330 S329 1.613 . S
N330 C333 1.350 . S
N331 S329 1.610 . S
N331 C332 1.351 . S
C332 C326 1.428 . S
C332 N331 1.351 . S
C332 C333 1.434 . S
C333 C324 1.429 . S
C333 N330 1.350 . S
C333 C332 1.434 . S
C334 C335 1.369 . S
C334 C336 1.419 1_556 S
C334 H338 0.930 . S
C335 C334 1.369 . S
C335 C344 1.429 . S
C336 C334 1.419 1_554 S
C336 C337 1.363 . S
C336 H339 0.929 . S
C337 C336 1.363 . S
C337 C343 1.428 . S
H338 C334 0.930 . S
H339 C336 0.929 . S
S340 N341 1.613 1_554 S
S340 N342 1.610 . S
N341 S340 1.613 1_556 S
N341 C344 1.350 . S
N342 S340 1.610 . S
N342 C343 1.351 . S
C343 C337 1.428 . S
C343 N342 1.351 . S
C343 C344 1.434 1_554 S
C344 C335 1.429 . S
C344 N341 1.350 . S
C344 C343 1.434 1_556 S
C345 C346 1.369 . S
C345 C347 1.419 . S
C345 H349 0.930 . S
C346 C345 1.369 . S
C346 C355 1.429 1_554 S
C347 C345 1.419 . S
C347 C348 1.363 1_554 S
C347 H350 0.929 . S
C348 C347 1.363 1_556 S
C348 C354 1.428 . S
H349 C345 0.930 . S
H350 C347 0.929 . S
S351 N352 1.613 . S
S351 N353 1.610 . S
N352 S351 1.613 . S
N352 C355 1.350 . S
N353 S351 1.610 . S
N353 C354 1.351 . S
C354 C348 1.428 . S
C354 N353 1.351 . S
C354 C355 1.434 . S
C355 C346 1.429 1_556 S
C355 N352 1.350 . S
C355 C354 1.434 . S
C356 C357 1.369 . S
C356 C358 1.419 . S
C356 H360 0.930 . S
C357 C356 1.369 . S
C357 C366 1.429 . S
C358 C356 1.419 . S
C358 C359 1.363 . S
C358 H361 0.929 . S
C359 C358 1.363 . S
C359 C365 1.428 . S
H360 C356 0.930 . S
H361 C358 0.929 . S
S362 N363 1.613 . S
S362 N364 1.610 . S
N363 S362 1.613 . S
N363 C366 1.350 . S
N364 S362 1.610 . S
N364 C365 1.351 . S
C365 C359 1.428 . S
C365 N364 1.351 . S
C365 C366 1.434 . S
C366 C357 1.429 . S
C366 N363 1.350 . S
C366 C365 1.434 . S
C367 C368 1.369 . S
C367 C369 1.419 . S
C367 H371 0.930 . S
C368 C367 1.369 . S
C368 C377 1.429 . S
C369 C367 1.419 . S
C369 C370 1.363 . S
C369 H372 0.929 . S
C370 C369 1.363 . S
C370 C376 1.428 . S
H371 C367 0.930 . S
H372 C369 0.929 . S
S373 N374 1.613 . S
S373 N375 1.610 . S
N374 S373 1.613 . S
N374 C377 1.350 . S
N375 S373 1.610 . S
N375 C376 1.351 . S
C376 C370 1.428 . S
C376 N375 1.351 . S
C376 C377 1.434 . S
C377 C368 1.429 . S
C377 N374 1.350 . S
C377 C376 1.434 . S
C378 C379 1.366 1_455 S
C378 C380 1.421 . S
C378 H382 0.930 . S
C379 C378 1.366 1_655 S
C379 C388 1.429 . S
C380 C378 1.421 . S
C380 C381 1.363 . S
C380 H383 0.929 . S
C381 C380 1.363 . S
C381 C387 1.428 1_455 S
H382 C378 0.930 . S
H383 C380 0.929 . S
S384 N385 1.613 . S
S384 N386 1.610 . S
N385 S384 1.613 . S
N385 C388 1.350 . S
N386 S384 1.610 . S
N386 C387 1.351 . S
C387 C381 1.428 1_655 S
C387 N386 1.351 . S
C387 C388 1.434 . S
C388 C379 1.429 . S
C388 N385 1.350 . S
C388 C387 1.434 . S
C389 C390 1.369 . S
C389 C391 1.419 1_655 S
C389 H393 0.930 . S
C390 C389 1.369 . S
C390 C399 1.429 . S
C391 C389 1.419 1_455 S
C391 C392 1.363 . S
C391 H394 0.929 . S
C392 C391 1.363 . S
C392 C398 1.428 . S
H393 C389 0.930 . S
H394 C391 0.929 . S
S395 N396 1.613 . S
S395 N397 1.610 1_655 S
N396 S395 1.613 . S
N396 C399 1.350 . S
N397 S395 1.610 1_455 S
N397 C398 1.351 . S
C398 C392 1.428 . S
C398 N397 1.351 . S
C398 C399 1.434 1_455 S
C399 C390 1.429 . S
C399 N396 1.350 . S
C399 C398 1.434 1_655 S
C400 C401 1.369 . S
C400 C402 1.419 . S
C400 H404 0.930 . S
C401 C400 1.369 . S
C401 C410 1.429 . S
C402 C400 1.419 . S
C402 C403 1.363 . S
C402 H405 0.929 . S
C403 C402 1.363 . S
C403 C409 1.428 . S
H404 C400 0.930 . S
H405 C402 0.929 . S
S406 N407 1.613 . S
S406 N408 1.610 . S
N407 S406 1.613 . S
N407 C410 1.350 . S
N408 S406 1.610 . S
N408 C409 1.351 . S
C409 C403 1.428 . S
C409 N408 1.351 . S
C409 C410 1.434 . S
C410 C401 1.429 . S
C410 N407 1.350 . S
C410 C409 1.434 . S
C411 C412 1.369 . S
C411 C413 1.419 1_545 S
C411 H415 0.930 . S
C412 C411 1.369 . S
C412 C421 1.429 . S
C413 C411 1.419 1_565 S
C413 C414 1.363 . S
C413 H416 0.929 . S
C414 C413 1.363 . S
C414 C420 1.428 . S
H415 C411 0.930 . S
H416 C413 0.929 . S
S417 N418 1.613 . S
S417 N419 1.610 1_545 S
N418 S417 1.613 . S
N418 C421 1.350 . S
N419 S417 1.610 1_565 S
N419 C420 1.351 . S
C420 C414 1.428 . S
C420 N419 1.351 . S
C420 C421 1.434 1_565 S
C421 C412 1.429 . S
C421 N418 1.350 . S
C421 C420 1.434 1_545 S
C422 C423 1.369 . S
C422 C424 1.419 . S
C422 H426 0.930 . S
C423 C422 1.369 . S
C423 C432 1.429 . S
C424 C422 1.419 . S
C424 C425 1.363 . S
C424 H427 0.929 . S
C425 C424 1.363 . S
C425 C431 1.428 . S
H426 C422 0.930 . S
H427 C424 0.929 . S
S428 N429 1.613 . S
S428 N430 1.610 . S
N429 S428 1.613 . S
N429 C432 1.350 . S
N430 S428 1.610 . S
N430 C431 1.351 . S
C431 C425 1.428 . S
C431 N430 1.351 . S
C431 C432 1.434 . S
C432 C423 1.429 . S
C432 N429 1.350 . S
C432 C431 1.434 . S
C433 C434 1.369 . S
C433 C435 1.419 1_554 S
C433 H437 0.930 . S
C434 C433 1.369 . S
C434 C443 1.429 . S
C435 C433 1.419 1_556 S
C435 C436 1.363 . S
C435 H438 0.929 . S
C436 C435 1.363 . S
C436 C442 1.428 . S
H437 C433 0.930 . S
H438 C435 0.929 . S
S439 N440 1.613 . S
S439 N441 1.610 . S
N440 S439 1.613 . S
N440 C443 1.350 1_556 S
N441 S439 1.610 . S
N441 C442 1.351 . S
C442 C436 1.428 . S
C442 N441 1.351 . S
C442 C443 1.434 1_556 S
C443 C434 1.429 . S
C443 N440 1.350 1_554 S
C443 C442 1.434 1_554 S
C444 C445 1.369 . S
C444 C446 1.419 1_556 S
C444 H448 0.930 . S
C445 C444 1.369 . S
C445 C454 1.429 . S
C446 C444 1.419 1_554 S
C446 C447 1.363 . S
C446 H449 0.929 . S
C447 C446 1.363 . S
C447 C453 1.428 . S
H448 C444 0.930 . S
H449 C446 0.929 . S
S450 N451 1.613 . S
S450 N452 1.610 1_556 S
N451 S450 1.613 . S
N451 C454 1.350 . S
N452 S450 1.610 1_554 S
N452 C453 1.351 . S
C453 C447 1.428 . S
C453 N452 1.351 . S
C453 C454 1.434 1_554 S
C454 C445 1.429 . S
C454 N451 1.350 . S
C454 C453 1.434 1_556 S
C455 C456 1.369 . S
C455 C457 1.419 . S
C455 H459 0.930 . S
C456 C455 1.369 . S
C456 C465 1.429 . S
C457 C455 1.419 . S
C457 C458 1.363 . S
C457 H460 0.929 . S
C458 C457 1.363 . S
C458 C464 1.428 . S
H459 C455 0.930 . S
H460 C457 0.929 . S
S461 N462 1.613 . S
S461 N463 1.610 . S
N462 S461 1.613 . S
N462 C465 1.350 . S
N463 S461 1.610 . S
N463 C464 1.351 . S
C464 C458 1.428 . S
C464 N463 1.351 . S
C464 C465 1.434 . S
C465 C456 1.429 . S
C465 N462 1.350 . S
C465 C464 1.434 . S
C466 C467 1.369 . S
C466 C468 1.419 . S
C466 H470 0.930 . S
C467 C466 1.369 . S
C467 C476 1.429 . S
C468 C466 1.419 . S
C468 C469 1.363 . S
C468 H471 0.929 . S
C469 C468 1.363 . S
C469 C475 1.428 . S
H470 C466 0.930 . S
H471 C468 0.929 . S
S472 N473 1.613 . S
S472 N474 1.610 . S
N473 S472 1.613 . S
N473 C476 1.350 . S
N474 S472 1.610 . S
N474 C475 1.351 . S
C475 C469 1.428 . S
C475 N474 1.351 . S
C475 C476 1.434 . S
C476 C467 1.429 . S
C476 N473 1.350 . S
C476 C475 1.434 . S
C477 C478 1.369 . S
C477 C479 1.419 1_455 S
C477 H481 0.930 . S
C478 C477 1.369 . S
C478 C487 1.429 . S
C479 C477 1.419 1_655 S
C479 C480 1.363 . S
C479 H482 0.929 . S
C480 C479 1.363 . S
C480 C486 1.428 . S
H481 C477 0.930 . S
H482 C479 0.929 . S
S483 N484 1.613 1_655 S
S483 N485 1.610 . S
N484 S483 1.613 1_455 S
N484 C487 1.350 . S
N485 S483 1.610 . S
N485 C486 1.351 . S
C486 C480 1.428 . S
C486 N485 1.351 . S
C486 C487 1.434 1_655 S
C487 C478 1.429 . S
C487 N484 1.350 . S
C487 C486 1.434 1_455 S
C488 C489 1.369 . S
C488 C490 1.419 1_455 S
C488 H492 0.930 . S
C489 C488 1.369 . S
C489 C498 1.429 . S
C490 C488 1.419 1_655 S
C490 C491 1.363 . S
C490 H493 0.929 . S
C491 C490 1.363 . S
C491 C497 1.428 . S
H492 C488 0.930 . S
H493 C490 0.929 . S
S494 N495 1.613 . S
S494 N496 1.610 1_455 S
N495 S494 1.613 . S
N495 C498 1.350 . S
N496 S494 1.610 1_655 S
N496 C497 1.351 . S
C497 C491 1.428 . S
C497 N496 1.351 . S
C497 C498 1.434 1_655 S
C498 C489 1.429 . S
C498 N495 1.350 . S
C498 C497 1.434 1_455 S
C499 C500 1.369 . S
C499 C501 1.419 . S
C499 H503 0.930 . S
C500 C499 1.369 . S
C500 C509 1.429 . S
C501 C499 1.419 . S
C501 C502 1.363 . S
C501 H504 0.929 . S
C502 C501 1.363 . S
C502 C508 1.428 . S
H503 C499 0.930 . S
H504 C501 0.929 . S
S505 N506 1.613 . S
S505 N507 1.610 . S
N506 S505 1.613 . S
N506 C509 1.350 . S
N507 S505 1.610 . S
N507 C508 1.351 . S
C508 C502 1.428 . S
C508 N507 1.351 . S
C508 C509 1.434 . S
C509 C500 1.429 . S
C509 N506 1.350 . S
C509 C508 1.434 . S
C510 C511 1.369 . S
C510 C512 1.419 . S
C510 H514 0.930 . S
C511 C510 1.369 . S
C511 C520 1.429 . S
C512 C510 1.419 . S
C512 C513 1.363 . S
C512 H515 0.929 . S
C513 C512 1.363 . S
C513 C519 1.428 . S
H514 C510 0.930 . S
H515 C512 0.929 . S
S516 N517 1.613 . S
S516 N518 1.610 . S
N517 S516 1.613 . S
N517 C520 1.350 . S
N518 S516 1.610 . S
N518 C519 1.351 . S
C519 C513 1.428 . S
C519 N518 1.351 . S
C519 C520 1.434 . S
C520 C511 1.429 . S
C520 N517 1.350 . S
C520 C519 1.434 . S
C521 C522 1.369 . S
C521 C523 1.419 1_545 S
C521 H525 0.930 . S
C522 C521 1.369 . S
C522 C531 1.429 . S
C523 C521 1.419 1_565 S
C523 C524 1.363 . S
C523 H526 0.929 . S
C524 C523 1.363 . S
C524 C530 1.428 . S
H525 C521 0.930 . S
H526 C523 0.929 . S
S527 N528 1.613 1_565 S
S527 N529 1.610 . S
N528 S527 1.613 1_545 S
N528 C531 1.350 . S
N529 S527 1.610 . S
N529 C530 1.351 . S
C530 C524 1.428 . S
C530 N529 1.351 . S
C530 C531 1.434 1_565 S
C531 C522 1.429 . S
C531 N528 1.350 . S
C531 C530 1.434 1_545 S
C532 C533 1.369 . S
C532 C534 1.419 . S
C532 H536 0.930 . S
C533 C532 1.369 . S
C533 C542 1.429 . S
C534 C532 1.419 . S
C534 C535 1.363 . S
C534 H537 0.929 . S
C535 C534 1.363 . S
C535 C541 1.428 . S
H536 C532 0.930 . S
H537 C534 0.929 . S
S538 N539 1.613 . S
S538 N540 1.610 . S
N539 S538 1.613 . S
N539 C542 1.350 . S
N540 S538 1.610 . S
N540 C541 1.351 . S
C541 C535 1.428 . S
C541 N540 1.351 . S
C541 C542 1.434 . S
C542 C533 1.429 . S
C542 N539 1.350 . S
C542 C541 1.434 . S
C543 C544 1.369 . S
C543 C545 1.419 . S
C543 H547 0.930 . S
C544 C543 1.369 . S
C544 C553 1.429 . S
C545 C543 1.419 . S
C545 C546 1.363 . S
C545 H548 0.929 . S
C546 C545 1.363 . S
C546 C552 1.428 . S
H547 C543 0.930 . S
H548 C545 0.929 . S
S549 N550 1.613 . S
S549 N551 1.610 . S
N550 S549 1.613 . S
N550 C553 1.350 . S
N551 S549 1.610 . S
N551 C552 1.351 . S
C552 C546 1.428 . S
C552 N551 1.351 . S
C552 C553 1.434 . S
C553 C544 1.429 . S
C553 N550 1.350 . S
C553 C552 1.434 . S
C554 C555 1.369 . S
C554 C556 1.419 . S
C554 H558 0.930 . S
C555 C554 1.369 . S
C555 C564 1.429 1_545 S
C556 C554 1.419 . S
C556 C557 1.363 1_545 S
C556 H559 0.929 . S
C557 C556 1.363 1_565 S
C557 C563 1.428 . S
H558 C554 0.930 . S
H559 C556 0.929 . S
S560 N561 1.613 . S
S560 N562 1.610 . S
N561 S560 1.613 . S
N561 C564 1.350 . S
N562 S560 1.610 . S
N562 C563 1.351 . S
C563 C557 1.428 . S
C563 N562 1.351 . S
C563 C564 1.434 . S
C564 C555 1.429 1_565 S
C564 N561 1.350 . S
C564 C563 1.434 . S
C565 C566 1.369 . S
C565 C567 1.419 . S
C565 H569 0.930 . S
C566 C565 1.369 . S
C566 C575 1.429 . S
C567 C565 1.419 . S
C567 C568 1.363 . S
C567 H570 0.929 . S
C568 C567 1.363 . S
C568 C574 1.428 . S
H569 C565 0.930 . S
H570 C567 0.929 . S
S571 N572 1.613 . S
S571 N573 1.610 . S
N572 S571 1.613 . S
N572 C575 1.350 . S
N573 S571 1.610 . S
N573 C574 1.351 . S
C574 C568 1.428 . S
C574 N573 1.351 . S
C574 C575 1.434 . S
C575 C566 1.429 . S
C575 N572 1.350 . S
C575 C574 1.434 . S
C225 C4 1.311 . S
C227 C186 1.305 . S
C236 C18 1.311 . S
C238 C130 1.306 . S
C247 C200 1.312 . S
C249 C32 1.305 . S
C258 C46 1.311 . S
C260 C214 1.305 . S
C269 C60 1.304 . S
C271 C88 1.311 . S
C280 C144 1.312 . S
C282 C74 1.305 . S
C291 C158 1.309 . S
C293 C102 1.307 . S
C302 C116 1.310 . S
C304 C172 1.307 . S
C313 C40 1.517 . S
C315 C12 1.517 . S
C324 C26 1.518 . S
C326 C54 1.516 . S
C335 C179 1.462 . S
C337 C11 1.462 . S
C346 C25 1.467 . S
C348 C165 1.460 . S
C357 C67 1.466 . S
C359 C39 1.462 . S
C368 C151 1.463 . S
C370 C53 1.462 . S
C379 C19 1.365 . S
C381 C5 1.356 . S
C390 C47 1.362 . S
C392 C33 1.351 . S
C401 C145 1.366 . S
C403 C61 1.355 . S
C412 C109 1.512 . S
C414 C81 1.514 . S
C423 C95 1.517 . S
C425 C123 1.518 . S
C434 C222 1.508 . S
C436 C82 1.507 . S
C445 C96 1.508 . S
C447 C208 1.508 . S
C456 C138 1.507 . S
C458 C110 1.508 . S
C467 C124 1.507 . S
C469 C194 1.507 . S
C478 C89 1.322 . S
C480 C75 1.321 . S
C489 C117 1.310 . S
C491 C103 1.313 . S
C500 C131 1.314 . S
C502 C187 1.323 . S
C511 C152 1.516 . S
C513 C166 1.518 . S
C522 C180 1.517 . S
C524 C68 1.517 . S
C533 C173 1.349 . S
C535 C159 1.358 . S
C544 C207 1.517 . S
C546 C193 1.515 . S
C555 C137 1.516 . S
C557 C221 1.514 . S
C566 C215 1.320 . S
C568 C201 1.310 . S
