# Generated by pormake.
# Topology sml, (6)-cn, num edge types: 1
# Building blocks:
#     Node 0, Type 0, BuildingBlock: HISSIN_clean_sbu_0, # of connection points: 6
#     Node 1, Type 0, BuildingBlock: HISSIN_clean_sbu_0, # of connection points: 6
#     Node 2, Type 0, BuildingBlock: HISSIN_clean_sbu_0, # of connection points: 6
#     Node 3, Type 0, BuildingBlock: HISSIN_clean_sbu_0, # of connection points: 6
#     Node 4, Type 0, BuildingBlock: HISSIN_clean_sbu_0, # of connection points: 6
#     Node 5, Type 0, BuildingBlock: HISSIN_clean_sbu_0, # of connection points: 6
#     Edge 6, Type (0, 0), BuildingBlock: FUNLAD_clean_linker_0, # of connection points: 2
#     Edge 7, Type (0, 0), BuildingBlock: FUNLAD_clean_linker_0, # of connection points: 2
#     Edge 8, Type (0, 0), BuildingBlock: FUNLAD_clean_linker_0, # of connection points: 2
#     Edge 9, Type (0, 0), BuildingBlock: FUNLAD_clean_linker_0, # of connection points: 2
#     Edge 10, Type (0, 0), BuildingBlock: FUNLAD_clean_linker_0, # of connection points: 2
#     Edge 11, Type (0, 0), BuildingBlock: FUNLAD_clean_linker_0, # of connection points: 2
#     Edge 12, Type (0, 0), BuildingBlock: FUNLAD_clean_linker_0, # of connection points: 2
#     Edge 13, Type (0, 0), BuildingBlock: FUNLAD_clean_linker_0, # of connection points: 2
#     Edge 14, Type (0, 0), BuildingBlock: FUNLAD_clean_linker_0, # of connection points: 2
#     Edge 15, Type (0, 0), BuildingBlock: FUNLAD_clean_linker_0, # of connection points: 2
#     Edge 16, Type (0, 0), BuildingBlock: FUNLAD_clean_linker_0, # of connection points: 2
#     Edge 17, Type (0, 0), BuildingBlock: FUNLAD_clean_linker_0, # of connection points: 2
#     Edge 18, Type (0, 0), BuildingBlock: FUNLAD_clean_linker_0, # of connection points: 2
#     Edge 19, Type (0, 0), BuildingBlock: FUNLAD_clean_linker_0, # of connection points: 2
#     Edge 20, Type (0, 0), BuildingBlock: FUNLAD_clean_linker_0, # of connection points: 2
#     Edge 21, Type (0, 0), BuildingBlock: FUNLAD_clean_linker_0, # of connection points: 2
#     Edge 22, Type (0, 0), BuildingBlock: FUNLAD_clean_linker_0, # of connection points: 2
#     Edge 23, Type (0, 0), BuildingBlock: FUNLAD_clean_linker_0, # of connection points: 2
# Relax obj value: 0.155
# Max RMSD: 0.205
# Mean RMSD: 0.205
data_MOF--net-sml--node1-HISSIN_clean_sbu_0--edge1-FUNLAD_clean_linker_0
_symmetry_space_group_name_H-M    P1
_symmetry_Int_Tables_number       1
_symmetry_cell_setting            triclinic
loop_
_symmetry_equiv_pos_as_xyz
'x, y, z'
_cell_length_a     38.899585
_cell_length_b     38.844603
_cell_length_c     27.402331
_cell_angle_alpha  90.109193
_cell_angle_beta   90.081208
_cell_angle_gamma 120.02614
loop_
_atom_site_label
_atom_site_type_symbol
_atom_site_fract_x
_atom_site_fract_y
_atom_site_fract_z
_atom_type_partial_charge
Eu0 Eu 0.17984 0.40243 0.10282 0.0
Eu1 Eu 0.12687 0.39939 1.00612 0.0
C2 C 0.13483 0.45162 0.10063 0.0
C3 C 0.20901 0.4027 0.23509 0.0
C4 C 0.17406 0.40109 0.25146 0.0
C5 C 0.2276 0.40037 0.31908 0.0
C6 C 0.16606 0.3994 0.30142 0.0
C7 C 0.23559 0.40213 0.26911 0.0
C8 C 0.19285 0.39925 0.33591 0.0
C9 C 0.21816 0.40563 0.18274 0.0
O10 O 0.19028 0.42936 0.98107 0.0
O11 O 0.22045 0.45397 0.05492 0.0
C12 C 0.22144 0.45384 1.007 0.0
O13 O 0.19444 0.37098 0.04536 0.0
O14 O 0.11481 0.43031 0.94824 0.0
O15 O 0.07857 0.3663 0.95424 0.0
O16 O 0.1375 0.34744 0.9994 0.0
C17 C 0.16902 0.34582 0.01351 0.0
O18 O 0.12071 0.34623 0.10646 0.0
O19 O 0.0833 0.36783 0.06668 0.0
O20 O 0.1364 0.45172 0.0527 0.0
O21 O 0.19766 0.37325 0.15716 0.0
O22 O 0.22149 0.4369 0.16072 0.0
O23 O 0.14163 0.42733 0.12644 0.0
C24 C 0.09261 0.39382 0.8753 0.0
C25 C 0.12603 0.39276 0.85817 0.0
C26 C 0.07011 0.3902 0.79176 0.0
C27 C 0.13164 0.39075 0.80809 0.0
C28 C 0.06458 0.39228 0.84191 0.0
C29 C 0.10389 0.38973 0.77423 0.0
C30 C 0.08752 0.39758 0.92779 0.0
C31 C 0.08646 0.34388 0.09775 0.0
H32 H 0.15319 0.40154 0.22559 0.0
H33 H 0.24855 0.39965 0.34452 0.0
H34 H 0.13926 0.39901 0.31304 0.0
H35 H 0.26262 0.40319 0.25705 0.0
H36 H 0.14793 0.39379 0.88355 0.0
H37 H 0.04839 0.38986 0.7667 0.0
H38 H 0.15765 0.38985 0.7959 0.0
H39 H 0.03866 0.39317 0.85458 0.0
Eu40 Eu 0.79581 0.216 0.46602 0.0
Eu41 Eu 0.8527 0.26253 0.56178 0.0
C42 C 0.84531 0.31058 0.4714 0.0
C43 C 0.77098 0.19061 0.33371 0.0
C44 C 0.80961 0.22056 0.32184 0.0
C45 C 0.75715 0.17439 0.24777 0.0
C46 C 0.82187 0.22759 0.27316 0.0
C47 C 0.7449 0.16748 0.2965 0.0
C48 C 0.79572 0.2047 0.23543 0.0
C49 C 0.75812 0.18359 0.38488 0.0
O50 O 0.78974 0.23266 0.58889 0.0
O51 O 0.75715 0.22739 0.51684 0.0
C52 C 0.75804 0.22684 0.56479 0.0
O53 O 0.77928 0.16873 0.52203 0.0
O54 O 0.87041 0.30647 0.61999 0.0
O55 O 0.89967 0.27175 0.6131 0.0
O56 O 0.83831 0.19841 0.56425 0.0
C57 C 0.80496 0.16658 0.55108 0.0
O58 O 0.85305 0.21546 0.46138 0.0
O59 O 0.89378 0.27476 0.49799 0.0
O60 O 0.84532 0.30841 0.51927 0.0
O61 O 0.77464 0.16831 0.41202 0.0
O62 O 0.7569 0.21287 0.40668 0.0
O63 O 0.83551 0.27933 0.44406 0.0
C64 C 0.88749 0.28672 0.69238 0.0
C65 C 0.85187 0.25365 0.70762 0.0
C66 C 0.90698 0.30394 0.77715 0.0
C67 C 0.84357 0.24608 0.75728 0.0
C68 C 0.9152 0.31156 0.72733 0.0
C69 C 0.87076 0.27144 0.79267 0.0
C70 C 0.89448 0.29642 0.64024 0.0
C71 C 0.88775 0.24774 0.46503 0.0
H72 H 0.83021 0.23866 0.35025 0.0
H73 H 0.73646 0.15574 0.21981 0.0
H74 H 0.85159 0.25141 0.26509 0.0
H75 H 0.71508 0.14407 0.30512 0.0
H76 H 0.83014 0.23411 0.68105 0.0
H77 H 0.92839 0.3242 0.80346 0.0
H78 H 0.81569 0.22049 0.76799 0.0
H79 H 0.94279 0.33731 0.71612 0.0
Eu80 Eu 0.5708 0.801 0.8025 0.0
Eu81 Eu 0.5828 0.75482 0.70741 0.0
C82 C 0.51585 0.70863 0.7878 0.0
C83 C 0.56588 0.82561 0.93444 0.0
C84 C 0.57575 0.79687 0.94842 0.0
C85 C 0.56555 0.84251 0.01976 0.0
C86 C 0.58057 0.79103 0.99778 0.0
C87 C 0.5607 0.84829 0.97036 0.0
C88 C 0.57569 0.8139 0.0341 0.0
C89 C 0.56208 0.83261 0.88246 0.0
O90 O 0.56202 0.79505 0.67782 0.0
O91 O 0.52748 0.79709 0.74444 0.0
C92 C 0.53478 0.80117 0.69728 0.0
O93 O 0.61283 0.84947 0.75313 0.0
O94 O 0.55528 0.71191 0.64835 0.0
O95 O 0.61917 0.74343 0.65615 0.0
O96 O 0.63823 0.81523 0.71257 0.0
C97 C 0.64078 0.84872 0.72723 0.0
O98 O 0.62159 0.79092 0.81935 0.0
O99 O 0.60385 0.73535 0.7729 0.0
O100 O 0.52253 0.71392 0.7407 0.0
O101 O 0.59497 0.848 0.85749 0.0
O102 O 0.53256 0.80351 0.85905 0.0
O103 O 0.5391 0.736 0.81892 0.0
C104 C 0.59248 0.72874 0.57613 0.0
C105 C 0.5894 0.76099 0.55846 0.0
C106 C 0.59676 0.70995 0.49267 0.0
C107 C 0.58954 0.76742 0.5082 0.0
C108 C 0.59654 0.70352 0.54297 0.0
C109 C 0.59278 0.74172 0.47458 0.0
C110 C 0.58895 0.71987 0.62872 0.0
C111 C 0.62275 0.75834 0.81039 0.0
H112 H 0.58011 0.77922 0.92108 0.0
H113 H 0.56107 0.86029 0.04675 0.0
H114 H 0.58889 0.76914 1.00738 0.0
H115 H 0.55308 0.8706 0.96021 0.0
H116 H 0.586 0.78067 0.58355 0.0
H117 H 0.59989 0.68992 0.46794 0.0
H118 H 0.5859 0.79184 0.49573 0.0
H119 H 0.59891 0.67846 0.55594 0.0
Eu120 Eu 0.78765 0.57805 0.14257 0.0
Eu121 Eu 0.73265 0.57829 0.23606 0.0
C122 C 0.69857 0.50825 0.15719 0.0
C123 C 0.81582 0.57562 1.01033 0.0
C124 C 0.78014 0.57252 0.99395 0.0
C125 C 0.83557 0.57669 0.92592 0.0
C126 C 0.7724 0.57191 0.94389 0.0
C127 C 0.84329 0.57737 0.97599 0.0
C128 C 0.80021 0.57442 0.90912 0.0
C129 C 0.82548 0.57927 0.0629 0.0
O130 O 0.75772 0.53909 0.25583 0.0
O131 O 0.81376 0.56426 0.20811 0.0
C132 C 0.79327 0.54451 0.24667 0.0
O133 O 0.81883 0.63948 0.17548 0.0
O134 O 0.68688 0.54561 0.29055 0.0
O135 O 0.71808 0.60998 0.29077 0.0
O136 O 0.79618 0.62283 0.2536 0.0
C137 C 0.82264 0.64725 0.22241 0.0
O138 O 0.7392 0.58676 0.11212 0.0
O139 O 0.72763 0.61657 0.17749 0.0
O140 O 0.69037 0.53197 0.18263 0.0
O141 O 0.82924 0.61098 0.08423 0.0
O142 O 0.80528 0.54754 0.08946 0.0
O143 O 0.73535 0.51645 0.15111 0.0
C144 C 0.70137 0.57757 0.36716 0.0
C145 C 0.73571 0.57806 0.38401 0.0
C146 C 0.68045 0.57543 0.45124 0.0
C147 C 0.74235 0.57716 0.43414 0.0
C148 C 0.67386 0.57635 0.40108 0.0
C149 C 0.71474 0.57571 0.4685 0.0
C150 C 0.69386 0.57762 0.31436 0.0
C151 C 0.72536 0.60851 0.13057 0.0
H152 H 0.75859 0.57132 0.01989 0.0
H153 H 0.85738 0.57798 0.90037 0.0
H154 H 0.74509 0.57057 0.9325 0.0
H155 H 0.87098 0.57977 0.98788 0.0
H156 H 0.75726 0.57886 0.35833 0.0
H157 H 0.65882 0.57489 0.47653 0.0
H158 H 0.7688 0.5769 0.44593 0.0
H159 H 0.64722 0.57601 0.38878 0.0
Eu160 Eu 0.19791 0.78143 0.43308 0.0
Eu161 Eu 0.25205 0.8375 0.33992 0.0
C162 C 0.28732 0.8036 0.41894 0.0
C163 C 0.17241 0.75565 0.56591 0.0
C164 C 0.19912 0.79505 0.57988 0.0
C165 C 0.16415 0.73637 0.65143 0.0
C166 C 0.20797 0.80512 0.62917 0.0
C167 C 0.15519 0.72635 0.602 0.0
C168 C 0.19042 0.77597 0.66566 0.0
C169 C 0.16231 0.74536 0.5139 0.0
O170 O 0.22806 0.77328 0.31945 0.0
O171 O 0.17282 0.7404 0.36835 0.0
C172 C 0.19333 0.74204 0.32938 0.0
O173 O 0.16426 0.80867 0.39938 0.0
O174 O 0.29816 0.85118 0.28553 0.0
O175 O 0.26664 0.88401 0.28589 0.0
O176 O 0.18827 0.81647 0.32161 0.0
C177 C 0.16083 0.81272 0.35239 0.0
O178 O 0.24413 0.84014 0.46297 0.0
O179 O 0.25401 0.88045 0.39728 0.0
O180 O 0.29468 0.8357 0.39463 0.0
O181 O 0.15366 0.76879 0.48947 0.0
O182 O 0.18559 0.73661 0.48926 0.0
O183 O 0.25094 0.77371 0.42267 0.0
C184 C 0.28325 0.86835 0.20913 0.0
C185 C 0.24455 0.8436 0.19142 0.0
C186 C 0.30825 0.87597 0.1262 0.0
C187 C 0.23773 0.83527 0.14146 0.0
C188 C 0.315 0.8845 0.17616 0.0
C189 C 0.26953 0.85117 0.10821 0.0
C190 C 0.29082 0.87597 0.26196 0.0
C191 C 0.25593 0.87532 0.4444 0.0
H192 H 0.21294 0.81817 0.55269 0.0
H193 H 0.14983 0.71325 0.67856 0.0
H194 H 0.22875 0.83577 0.63866 0.0
H195 H 0.13454 0.69579 0.59201 0.0
H196 H 0.21962 0.83036 0.21632 0.0
H197 H 0.33335 0.88896 0.10158 0.0
H198 H 0.20764 0.81563 0.129 0.0
H199 H 0.34509 0.90349 0.18912 0.0
Eu200 Eu 0.40688 0.20457 0.79388 0.0
Eu201 Eu 0.40095 0.14881 0.88865 0.0
C202 C 0.46557 0.17133 0.80447 0.0
C203 C 0.40778 0.23088 0.66219 0.0
C204 C 0.40497 0.19454 0.64946 0.0
C205 C 0.40233 0.24341 0.57658 0.0
C206 C 0.40104 0.18276 0.60057 0.0
C207 C 0.40636 0.2552 0.62554 0.0
C208 C 0.39968 0.20706 0.56343 0.0
C209 C 0.41117 0.24274 0.71375 0.0
O210 O 0.42104 0.20992 0.91785 0.0
O211 O 0.45164 0.24611 0.84937 0.0
C212 C 0.44639 0.24347 0.89694 0.0
O213 O 0.36642 0.21071 0.84624 0.0
O214 O 0.43132 0.13681 0.94732 0.0
O215 O 0.36763 0.10003 0.93972 0.0
O216 O 0.34463 0.15233 0.88854 0.0
C217 C 0.34051 0.18246 0.87456 0.0
O218 O 0.35728 0.14245 0.77939 0.0
O219 O 0.37892 0.10719 0.82413 0.0
O220 O 0.46044 0.16987 0.85195 0.0
O221 O 0.37876 0.22329 0.73928 0.0
O222 O 0.44227 0.24661 0.73693 0.0
O223 O 0.44025 0.17348 0.77507 0.0
C224 C 0.39434 0.11591 0.01941 0.0
C225 C 0.38979 0.14799 0.03421 0.0
C226 C 0.39723 0.09997 0.10449 0.0
C227 C 0.38958 0.1564 0.08378 0.0
C228 C 0.3976 0.09168 0.05477 0.0
C229 C 0.39388 0.13285 0.11954 0.0
C230 C 0.39853 0.10961 0.96732 0.0
C231 C 0.35825 0.10972 0.78774 0.0
H232 H 0.40584 0.17527 0.67739 0.0
H233 H 0.40075 0.26256 0.54909 0.0
H234 H 0.39955 0.15484 0.59187 0.0
H235 H 0.40812 0.28317 0.6348 0.0
H236 H 0.38725 0.16705 1.00737 0.0
H237 H 0.40097 0.08149 0.13105 0.0
H238 H 0.38639 0.18158 0.09412 0.0
H239 H 0.40139 0.06694 0.04395 0.0
C240 C 0.29533 0.21002 0.86665 0.0
C241 C 0.30655 0.18584 0.89206 0.0
C242 C 0.26621 0.21717 0.88524 0.0
C243 C 0.24758 0.20026 0.92984 0.0
C244 C 0.25769 0.17479 0.95431 0.0
C245 C 0.2867 0.1673 0.93535 0.0
C246 C 0.22256 0.21365 0.95487 0.0
C247 C 0.20452 0.23062 0.93113 0.0
C248 C 0.19197 0.25648 0.95583 0.0
C249 C 0.1641 0.26407 0.93304 0.0
C250 C 0.15584 0.29254 0.9522 0.0
C251 C 0.17594 0.31441 0.994 0.0
H252 H 0.23394 0.27383 0.01616 0.0
C253 C 0.20332 0.30632 0.01719 0.0
C254 C 0.21128 0.27773 0.99838 0.0
H255 H 0.21918 0.32251 0.04962 0.0
H256 H 0.30994 0.2245 0.83298 0.0
H257 H 0.26028 0.23786 0.86581 0.0
H258 H 0.24414 0.1618 0.98902 0.0
H259 H 0.29487 0.14858 0.95572 0.0
H260 H 0.2219 0.21253 0.99449 0.0
H261 H 0.20145 0.22812 0.89169 0.0
H262 H 0.14932 0.24855 0.89979 0.0
H263 H 0.13458 0.29817 0.93353 0.0
C264 C 0.02561 0.33035 0.14312 0.0
C265 C 0.05326 0.31876 0.13021 0.0
C266 C -0.0 0.31216 0.18231 0.0
C267 C 0.00149 0.2819 0.20864 0.0
C268 C 0.02643 0.26784 0.19277 0.0
C269 C 0.05251 0.28645 0.15416 0.0
C270 C 0.97943 0.26657 0.25462 0.0
C271 C 0.97776 0.29128 0.28778 0.0
C272 C 0.95793 0.27813 0.33571 0.0
C273 C 0.96758 0.30655 0.37281 0.0
C274 C 0.94676 0.29614 0.41682 0.0
C275 C 0.91571 0.25709 0.42428 0.0
H276 H 0.91905 0.21596 0.31632 0.0
C277 C 0.90744 0.22823 0.38812 0.0
C278 C 0.92808 0.23863 0.34418 0.0
H279 H 0.88351 0.19788 0.3926 0.0
H280 H 0.02557 0.35516 0.12521 0.0
H281 H 0.9801 0.32272 0.19315 0.0
H282 H 0.02757 0.24416 0.21222 0.0
H283 H 0.07337 0.27678 0.14453 0.0
H284 H 0.96824 0.23548 0.26314 0.0
H285 H -0.0071 0.323 0.28019 0.0
H286 H 0.99048 0.33719 0.36717 0.0
H287 H 0.95361 0.31913 0.44379 0.0
C288 C 0.8179 0.12273 0.60598 0.0
C289 C 0.79677 0.12698 0.56706 0.0
C290 C 0.80899 0.08487 0.62146 0.0
C291 C 0.77896 0.05074 0.59797 0.0
C292 C 0.75928 0.05519 0.55772 0.0
C293 C 0.76781 0.09286 0.54267 0.0
C294 C 0.76508 0.01008 0.61625 0.0
C295 C 0.76362 0.00211 0.66416 0.0
C296 C 0.73687 0.96175 0.68328 0.0
C297 C 0.7158 0.95822 0.72616 0.0
C298 C 0.6852 0.92123 0.74099 0.0
C299 C 0.67562 0.88692 0.71371 0.0
H300 H 0.74547 0.92895 0.62486 0.0
C301 C 0.69863 0.88996 0.67275 0.0
C302 C 0.72898 0.92718 0.65747 0.0
H303 H 0.69214 0.86389 0.6514 0.0
H304 H 0.84074 0.14855 0.62505 0.0
H305 H 0.82534 0.0824 0.65195 0.0
H306 H 0.73615 0.02937 0.53891 0.0
H307 H 0.75149 0.09514 0.51196 0.0
H308 H 0.74923 0.98576 0.59056 0.0
H309 H 0.776 0.02643 0.69034 0.0
H310 H 0.72154 0.9844 0.74682 0.0
H311 H 0.66845 0.91965 0.7733 0.0
C312 C 0.63528 0.70649 0.84657 0.0
C313 C 0.64167 0.7454 0.84715 0.0
C314 C 0.64845 0.69271 0.88533 0.0
C315 C 0.66817 0.71763 0.92545 0.0
C316 C 0.67655 0.75714 0.92459 0.0
C317 C 0.66325 0.77086 0.88602 0.0
C318 C 0.68057 0.7035 0.96857 0.0
C319 C 0.66112 0.66537 0.98312 0.0
C320 C 0.67494 0.65067 0.02412 0.0
C321 C 0.6696 0.61233 0.02063 0.0
C322 C 0.68504 0.59838 0.0563 0.0
C323 C 0.7053 0.62216 0.09683 0.0
H324 H 0.69726 0.70327 0.07004 0.0
C325 C 0.70861 0.65962 0.1021 0.0
C326 C 0.69376 0.67397 0.06572 0.0
H327 H 0.72403 0.67836 0.13317 0.0
H328 H 0.61901 0.68624 0.81702 0.0
H329 H 0.64294 0.66253 0.88374 0.0
H330 H 0.69227 0.7771 0.95463 0.0
H331 H 0.66896 0.80115 0.88746 0.0
H332 H 0.7061 0.72537 0.98924 0.0
H333 H 0.63553 0.64344 0.96264 0.0
H334 H 0.65478 0.59368 0.98925 0.0
H335 H 0.6817 0.56913 0.05172 0.0
C336 C 0.09126 0.79897 0.36448 0.0
C337 C 0.12335 0.8085 0.33314 0.0
C338 C 0.05408 0.78926 0.34558 0.0
C339 C 0.04827 0.78916 0.2948 0.0
C340 C 0.08096 0.80077 0.2638 0.0
C341 C 0.11808 0.81041 0.28268 0.0
C342 C 0.0082 0.77256 0.27232 0.0
C343 C 0.97524 0.76532 0.29686 0.0
C344 C 0.9347 0.73984 0.27662 0.0
C345 C 0.90365 0.71686 0.309 0.0
C346 C 0.86654 0.68798 0.29138 0.0
C347 C 0.85965 0.68172 0.24092 0.0
H348 H 0.94954 0.75402 0.20003 0.0
C349 C 0.88977 0.70681 0.20849 0.0
C350 C 0.92689 0.73569 0.22613 0.0
H351 H 0.88522 0.70329 0.1694 0.0
H352 H 0.09428 0.79722 0.40354 0.0
H353 H 0.02983 0.77985 0.37103 0.0
H354 H 0.07744 0.80092 0.22458 0.0
H355 H 0.14222 0.81784 0.25745 0.0
H356 H 0.0056 0.76299 0.23459 0.0
H357 H 0.97736 0.77448 0.33467 0.0
H358 H 0.90869 0.71979 0.34806 0.0
H359 H 0.84384 0.66949 0.31744 0.0
C360 C 0.32478 0.08331 0.70748 0.0
C361 C 0.33964 0.07725 0.75151 0.0
C362 C 0.31164 0.05487 0.67039 0.0
C363 C 0.31303 0.01971 0.67661 0.0
C364 C 0.32594 0.01273 0.72146 0.0
C365 C 0.33944 0.04136 0.75848 0.0
C366 C 0.30142 0.98973 0.63727 0.0
C367 C 0.30487 -0.00124 0.58934 0.0
C368 C 0.29532 0.96849 0.55069 0.0
C369 C 0.28262 0.97349 0.50452 0.0
C370 C 0.27119 0.944 0.46859 0.0
C371 C 0.27245 0.90922 0.47853 0.0
H372 H 0.31061 0.93076 0.5932 0.0
C373 C 0.28736 0.90542 0.52367 0.0
C374 C 0.29894 0.93478 0.55917 0.0
H375 H 0.28966 0.87938 0.53195 0.0
H376 H 0.3243 0.11056 0.70092 0.0
H377 H 0.30054 0.06066 0.63699 0.0
H378 H 0.32679 0.98558 0.72732 0.0
H379 H 0.35053 0.03573 0.79203 0.0
H380 H 0.29116 0.95936 0.64863 0.0
H381 H 0.31473 0.029 0.57774 0.0
H382 H 0.28036 -0.00037 0.49679 0.0
H383 H 0.25999 0.9477 0.43395 0.0
C384 C 0.14872 0.41259 0.7011 0.0
C385 C 0.1106 0.38895 0.72087 0.0
C386 C 0.1552 0.41222 0.65098 0.0
C387 C 0.12367 0.38787 0.61931 0.0
C388 C 0.0855 0.36464 0.63904 0.0
C389 C 0.07902 0.36505 0.6892 0.0
C390 C 0.12902 0.38683 0.56555 0.0
C391 C 0.16426 0.39766 0.54427 0.0
C392 C 0.17016 0.39748 0.49056 0.0
C393 C 0.20868 0.42082 0.47192 0.0
C394 C 0.21597 0.42148 0.42193 0.0
C395 C 0.18492 0.39847 0.38918 0.0
H396 H 0.10912 0.35475 0.47063 0.0
C397 C 0.14636 0.37479 0.40778 0.0
C398 C 0.13903 0.37417 0.45787 0.0
H399 H 0.12188 0.3561 0.38372 0.0
H400 H 0.17352 0.43208 0.72429 0.0
H401 H 0.18479 0.4318 0.6374 0.0
H402 H 0.06058 0.34583 0.61559 0.0
H403 H 0.04932 0.3463 0.70322 0.0
H404 H 0.10265 0.37644 0.54308 0.0
H405 H 0.19053 0.40782 0.56685 0.0
H406 H 0.23328 0.43898 0.49613 0.0
H407 H 0.24595 0.44047 0.40889 0.0
C408 C 0.78175 0.21046 0.14712 0.0
C409 C 0.80839 0.21274 0.18343 0.0
C410 C 0.79342 0.21795 0.09829 0.0
C411 C 0.83234 0.22844 0.08447 0.0
C412 C 0.85885 0.23038 0.1207 0.0
C413 C 0.84712 0.22276 0.16959 0.0
C414 C 0.84593 0.23619 0.03272 0.0
C415 C 0.82812 0.24623 0.99775 0.0
C416 C 0.84032 0.25252 0.94556 0.0
C417 C 0.81233 0.24877 0.91044 0.0
C418 C 0.82218 0.25463 0.86101 0.0
C419 C 0.86051 0.26482 0.84539 0.0
H420 H 0.90172 0.26737 0.95597 0.0
C421 C 0.88883 0.26918 0.8805 0.0
C422 C 0.87889 0.26308 0.93008 0.0
H423 H 0.91863 0.27704 0.86962 0.0
H424 H 0.7518 0.20314 0.15642 0.0
H425 H 0.77146 0.21476 0.07169 0.0
H426 H 0.88884 0.23792 0.1112 0.0
H427 H 0.86828 0.2242 0.19642 0.0
H428 H 0.87157 0.23342 0.02353 0.0
H429 H 0.80266 0.24925 1.00702 0.0
H430 H 0.78254 0.24108 0.92126 0.0
H431 H 0.79987 0.25179 0.83506 0.0
C432 C 0.60887 0.78548 0.40037 0.0
C433 C 0.59064 0.74723 0.42097 0.0
C434 C 0.60555 0.79062 0.35035 0.0
C435 C 0.584 0.7575 0.31946 0.0
C436 C 0.56593 0.71933 0.34015 0.0
C437 C 0.56925 0.71421 0.39011 0.0
C438 C 0.57811 0.76113 0.26618 0.0
C439 C 0.59987 0.79439 0.23964 0.0
C440 C 0.59291 0.79806 0.18677 0.0
C441 C 0.60734 0.83624 0.16717 0.0
C442 C 0.60164 0.84134 0.11788 0.0
C443 C 0.58163 0.80834 0.08666 0.0
H444 H 0.56269 0.73506 0.16837 0.0
C445 C 0.56769 0.77009 0.106 0.0
C446 C 0.57329 0.76496 0.1554 0.0
H447 H 0.55209 0.74399 0.08304 0.0
H448 H 0.62578 0.81159 0.42295 0.0
H449 H 0.61928 0.82068 0.33667 0.0
H450 H 0.54886 0.69322 0.31758 0.0
H451 H 0.55421 0.68433 0.40471 0.0
H452 H 0.55442 0.73499 0.24845 0.0
H453 H 0.62342 0.82072 0.25715 0.0
H454 H 0.62295 0.86234 0.19017 0.0
H455 H 0.61343 0.87127 0.1041 0.0
C456 C 0.75474 0.55215 0.83545 0.0
C457 C 0.7929 0.57562 0.85568 0.0
C458 C 0.74807 0.55348 0.78533 0.0
C459 C 0.77945 0.57857 0.75408 0.0
C460 C 0.81753 0.60178 0.77435 0.0
C461 C 0.82416 0.60049 0.82435 0.0
C462 C 0.77441 0.58072 0.70019 0.0
C463 C 0.73924 0.56875 0.67767 0.0
C464 C 0.73435 0.57111 0.62375 0.0
C465 C 0.69621 0.54861 0.6033 0.0
C466 C 0.68987 0.55004 0.5532 0.0
C467 C 0.72154 0.57424 0.522 0.0
H468 H 0.79573 0.61455 0.60651 0.0
C469 C 0.75969 0.59705 0.54241 0.0
C470 C 0.76605 0.59567 0.59257 0.0
H471 H 0.78466 0.61664 0.51972 0.0
H472 H 0.73006 0.53211 0.85822 0.0
H473 H 0.71846 0.53415 0.77141 0.0
H474 H 0.84236 0.62132 0.75141 0.0
H475 H 0.85384 0.61947 0.83852 0.0
H476 H 0.80131 0.59321 0.67859 0.0
H477 H 0.71235 0.55626 0.69932 0.0
H478 H 0.67111 0.52955 0.62617 0.0
H479 H 0.66014 0.53171 0.53884 0.0
C480 C 0.20492 0.76286 0.75133 0.0
C481 C 0.19896 0.78709 0.71829 0.0
C482 C 0.21272 0.77337 0.80076 0.0
C483 C 0.2147 0.80842 0.81838 0.0
C484 C 0.20834 0.83235 0.78542 0.0
C485 C 0.20084 0.82201 0.73602 0.0
C486 C 0.22161 0.8202 0.87095 0.0
C487 C 0.24107 0.80901 0.9022 0.0
C488 C 0.24819 0.82109 0.95467 0.0
C489 C 0.2802 0.82153 0.97907 0.0
C490 C 0.28741 0.83176 0.02855 0.0
C491 C 0.26239 0.84129 0.05517 0.0
H492 H 0.19747 0.82963 0.96435 0.0
C493 C 0.23012 0.84055 0.03092 0.0
C494 C 0.22308 0.83061 0.9813 0.0
H495 H 0.21031 0.84782 0.0503 0.0
H496 H 0.20381 0.73583 0.73891 0.0
H497 H 0.21639 0.75352 0.82508 0.0
H498 H 0.20924 0.85927 0.79792 0.0
H499 H 0.19579 0.84107 0.71184 0.0
H500 H 0.21187 0.84044 0.88356 0.0
H501 H 0.25406 0.79183 0.88851 0.0
H502 H 0.29981 0.81395 0.95975 0.0
H503 H 0.31217 0.83144 0.04621 0.0
C504 C 0.41672 0.22266 0.47464 0.0
C505 C 0.39571 0.19462 0.51125 0.0
C506 C 0.41309 0.21112 0.42566 0.0
C507 C 0.38858 0.17101 0.41199 0.0
C508 C 0.36729 0.14308 0.44856 0.0
C509 C 0.37085 0.15466 0.49756 0.0
C510 C 0.38339 0.15725 0.36017 0.0
C511 C 0.40894 0.17809 0.32407 0.0
C512 C 0.40349 0.16514 0.27203 0.0
C513 C 0.42309 0.19415 0.23603 0.0
C514 C 0.41959 0.18366 0.18674 0.0
C515 C 0.39666 0.14372 0.17211 0.0
H516 H 0.3659 0.10156 0.28407 0.0
C517 C 0.37732 0.11449 0.20808 0.0
C518 C 0.38064 0.12503 0.25753 0.0
H519 H 0.35944 0.08344 0.198 0.0
H520 H 0.43634 0.25363 0.48381 0.0
H521 H 0.42917 0.23404 0.39892 0.0
H522 H 0.34782 0.11209 0.43925 0.0
H523 H 0.35367 0.13232 0.52462 0.0
H524 H 0.35742 0.12875 0.35185 0.0
H525 H 0.43497 0.20655 0.33224 0.0
H526 H 0.44122 0.2252 0.24606 0.0
H527 H 0.4355 0.20686 0.16012 0.0
C528 C 0.12619 0.51154 0.10245 0.0
C529 C 0.12667 0.48004 0.12693 0.0
C530 C 0.12256 0.54049 0.12873 0.0
C531 C 0.1195 0.53847 0.18002 0.0
C532 C 0.11742 0.5056 0.20391 0.0
C533 C 0.12115 0.47683 0.17778 0.0
C534 C 0.12096 0.57093 0.21034 0.0
C535 C 0.14018 0.60922 0.19614 0.0
C536 C 0.15069 0.64306 0.22992 0.0
C537 C 0.18357 0.68002 0.21822 0.0
C538 C 0.19702 0.712 0.25041 0.0
C539 C 0.17768 0.70799 0.29512 0.0
H540 H 0.10398 0.6117 0.2835 0.0
C541 C 0.14368 0.67152 0.30612 0.0
C542 C 0.13024 0.63931 0.27381 0.0
H543 H 0.12775 0.66767 0.33989 0.0
H544 H 0.12979 0.5145 0.06325 0.0
H545 H 0.12278 0.56461 0.10878 0.0
H546 H 0.11459 0.503 0.24325 0.0
H547 H 0.12072 0.45258 0.1978 0.0
H548 H 0.11069 0.56364 0.24773 0.0
H549 H 0.15327 0.61664 0.16 0.0
H550 H 0.19969 0.68394 0.18454 0.0
H551 H 0.22291 0.73986 0.24021 0.0
C552 C 0.72138 0.21588 0.64374 0.0
C553 C 0.72152 0.21677 0.5924 0.0
C554 C 0.68643 0.20467 0.66972 0.0
C555 C 0.65083 0.19416 0.64479 0.0
C556 C 0.65106 0.19498 0.59356 0.0
C557 C 0.68596 0.20632 0.56764 0.0
C558 C 0.61268 0.18178 0.67017 0.0
C559 C 0.60964 0.1912 0.71678 0.0
C560 C 0.57127 0.18274 0.73895 0.0
C561 C 0.56747 0.18173 0.79004 0.0
C562 C 0.53266 0.1767 0.81183 0.0
C563 C 0.50115 0.17293 0.78278 0.0
H564 H 0.54127 0.18048 0.67078 0.0
C565 C 0.50479 0.17331 0.73174 0.0
C566 C 0.53938 0.17842 0.71011 0.0
H567 H 0.48126 0.17075 0.7081 0.0
H568 H 0.74821 0.22344 0.664 0.0
H569 H 0.68744 0.20355 0.70908 0.0
H570 H 0.62409 0.18695 0.57337 0.0
H571 H 0.68488 0.20643 0.52816 0.0
H572 H 0.58601 0.16547 0.64829 0.0
H573 H 0.63602 0.20676 0.73934 0.0
H574 H 0.5917 0.18539 0.81317 0.0
H575 H 0.53086 0.17676 0.85125 0.0
C576 C 0.26083 0.48216 0.9304 0.0
C577 C 0.25897 0.48099 0.98168 0.0
C578 C 0.29647 0.50744 0.90656 0.0
C579 C 0.33102 0.53219 0.93361 0.0
C580 C 0.32918 0.53051 0.98478 0.0
C581 C 0.29359 0.50539 1.00858 0.0
C582 C 0.36955 0.56032 0.9105 0.0
C583 C 0.37326 0.57493 0.86499 0.0
C584 C 0.41149 0.60739 0.84554 0.0
C585 C 0.41684 0.61259 0.79481 0.0
C586 C 0.45129 0.64476 0.77558 0.0
C587 C 0.48083 0.67256 0.80689 0.0
H588 H 0.43816 0.63322 0.9159 0.0
C589 C 0.47568 0.66696 0.85757 0.0
C590 C 0.44145 0.63501 0.87667 0.0
H591 H 0.49772 0.68789 0.88286 0.0
H592 H 0.23478 0.46343 0.90854 0.0
H593 H 0.29675 0.50696 0.86712 0.0
H594 H 0.35534 0.54909 1.00657 0.0
H595 H 0.29334 0.50507 0.04809 0.0
H596 H 0.39575 0.57085 0.93334 0.0
H597 H 0.34745 0.56409 0.84143 0.0
H598 H 0.39407 0.592 0.76998 0.0
H599 H 0.45429 0.64835 0.73637 0.0
C600 C 0.85749 0.38052 0.47238 0.0
C601 C 0.85595 0.34843 0.44676 0.0
C602 C 0.86315 0.41434 0.44728 0.0
C603 C 0.86729 0.41651 0.39609 0.0
C604 C 0.86856 0.3856 0.37122 0.0
C605 C 0.86275 0.35188 0.39615 0.0
C606 C 0.86727 0.44859 0.36664 0.0
C607 C 0.84841 0.46795 0.38107 0.0
C608 C 0.83788 0.49117 0.34731 0.0
C609 C 0.80477 0.49483 0.3589 0.0
C610 C 0.79079 0.51253 0.32636 0.0
C611 C 0.80984 0.52747 0.28142 0.0
H612 H 0.88458 0.50664 0.29367 0.0
C613 C 0.84422 0.52568 0.27063 0.0
C614 C 0.85817 0.50769 0.30328 0.0
H615 H 0.85992 0.53751 0.23667 0.0
H616 H 0.85296 0.37898 0.51147 0.0
H617 H 0.86349 0.43824 0.468 0.0
H618 H 0.87219 0.38665 0.33196 0.0
H619 H 0.86255 0.32801 0.37535 0.0
H620 H 0.87779 0.45181 0.32934 0.0
H621 H 0.83515 0.46217 0.41712 0.0
H622 H 0.78876 0.48278 0.39266 0.0
H623 H 0.76464 0.51403 0.33641 0.0
C624 C 0.3554 0.83761 0.45663 0.0
C625 C 0.3186 0.80292 0.44901 0.0
C626 C 0.38247 0.83802 0.49072 0.0
C627 C 0.37322 0.8036 0.51767 0.0
C628 C 0.33697 0.76876 0.50889 0.0
C629 C 0.31007 0.76833 0.47487 0.0
C630 C 0.39938 0.803 0.55681 0.0
C631 C 0.43875 0.82834 0.55922 0.0
C632 C 0.46402 0.82439 0.59682 0.0
C633 C 0.50226 0.83269 0.58399 0.0
C634 C 0.52556 0.82603 0.61717 0.0
C635 C 0.51138 0.8117 0.66431 0.0
H636 H 0.4214 0.80603 0.65603 0.0
C637 C 0.47395 0.80547 0.67813 0.0
C638 C 0.45037 0.8116 0.64461 0.0
H639 H 0.46234 0.79464 0.71425 0.0
H640 H 0.36267 0.86489 0.43774 0.0
H641 H 0.40975 0.8657 0.4971 0.0
H642 H 0.32907 0.74183 0.52903 0.0
H643 H 0.28201 0.74105 0.47001 0.0
H644 H 0.38582 0.77902 0.58323 0.0
H645 H 0.45349 0.85002 0.53048 0.0
H646 H 0.51361 0.84297 0.54761 0.0
H647 H 0.5545 0.83156 0.60555 0.0
C648 C 0.62888 0.47002 0.12459 0.0
C649 C 0.66705 0.4748 0.12896 0.0
C650 C 0.60104 0.44169 0.09243 0.0
C651 C 0.61089 0.41753 0.0642 0.0
C652 C 0.64863 0.4217 0.06965 0.0
C653 C 0.6763 0.4498 0.10176 0.0
C654 C 0.58367 0.38897 0.02708 0.0
C655 C 0.54393 0.37228 0.02835 0.0
C656 C 0.51792 0.34137 0.99266 0.0
C657 C 0.48154 0.3098 1.00853 0.0
C658 C 0.45794 0.27846 0.97699 0.0
C659 C 0.46989 0.27845 0.92855 0.0
H660 H 0.55659 0.36684 0.92994 0.0
C661 C 0.50529 0.31112 0.91183 0.0
C662 C 0.52919 0.34227 0.94365 0.0
H663 H 0.51513 0.31207 0.87465 0.0
H664 H 0.62098 0.48913 0.14457 0.0
H665 H 0.57253 0.43995 0.08854 0.0
H666 H 0.65701 0.40349 0.04842 0.0
H667 H 0.70541 0.45263 0.10411 0.0
H668 H 0.59695 0.37947 0.99909 0.0
H669 H 0.52984 0.37837 0.05871 0.0
H670 H 0.47202 0.30866 0.04593 0.0
H671 H 0.43056 0.25391 0.99087 0.0
loop_
_geom_bond_atom_site_label_1
_geom_bond_atom_site_label_2
_geom_bond_distance
_geom_bond_site_symmetry_2
_ccdc_geom_bond_type
Eu0 C9 2.828 . S
Eu0 O11 2.392 . S
Eu0 O13 2.418 . S
Eu0 O18 2.373 . S
Eu0 O21 2.488 . S
Eu0 O22 2.471 . S
Eu0 O23 2.349 . S
Eu1 O10 2.373 . S
Eu1 O14 2.488 . S
Eu1 O15 2.471 . S
Eu1 O16 2.349 1_556 S
Eu1 O19 2.392 1_556 S
Eu1 O20 2.418 1_556 S
Eu1 C30 2.828 . S
C2 O20 1.244 . S
C2 O23 1.265 . S
C3 C4 1.379 . S
C3 C7 1.373 . S
C3 C9 1.505 . S
C4 C3 1.379 . S
C4 C6 1.369 . S
C4 H32 0.930 . S
C5 C7 1.383 . S
C5 C8 1.382 . S
C5 H33 0.930 . S
C6 C4 1.369 . S
C6 C8 1.392 . S
C6 H34 0.930 . S
C7 C3 1.373 . S
C7 C5 1.383 . S
C7 H35 0.931 . S
C8 C5 1.382 . S
C8 C6 1.392 . S
C9 Eu0 2.828 . S
C9 C3 1.505 . S
C9 O21 1.249 . S
C9 O22 1.244 . S
O10 Eu1 2.373 . S
O10 C12 1.258 . S
O11 Eu0 2.392 . S
O11 C12 1.242 1_554 S
C12 O10 1.258 . S
C12 O11 1.242 1_556 S
O13 Eu0 2.418 . S
O13 C17 1.244 . S
O14 Eu1 2.488 . S
O14 C30 1.249 . S
O15 Eu1 2.471 . S
O15 C30 1.244 . S
O16 Eu1 2.349 1_554 S
O16 C17 1.265 . S
C17 O13 1.244 . S
C17 O16 1.265 . S
O18 Eu0 2.373 . S
O18 C31 1.258 . S
O19 Eu1 2.392 1_554 S
O19 C31 1.242 . S
O20 Eu1 2.418 1_554 S
O20 C2 1.244 . S
O21 Eu0 2.488 . S
O21 C9 1.249 . S
O22 Eu0 2.471 . S
O22 C9 1.244 . S
O23 Eu0 2.349 . S
O23 C2 1.265 . S
C24 C25 1.379 . S
C24 C28 1.373 . S
C24 C30 1.505 . S
C25 C24 1.379 . S
C25 C27 1.369 . S
C25 H36 0.930 . S
C26 C28 1.383 . S
C26 C29 1.382 . S
C26 H37 0.930 . S
C27 C25 1.369 . S
C27 C29 1.392 . S
C27 H38 0.930 . S
C28 C24 1.373 . S
C28 C26 1.383 . S
C28 H39 0.931 . S
C29 C26 1.382 . S
C29 C27 1.392 . S
C30 Eu1 2.828 . S
C30 O14 1.249 . S
C30 O15 1.244 . S
C30 C24 1.505 . S
C31 O18 1.258 . S
C31 O19 1.242 . S
H32 C4 0.930 . S
H33 C5 0.930 . S
H34 C6 0.930 . S
H35 C7 0.931 . S
H36 C25 0.930 . S
H37 C26 0.930 . S
H38 C27 0.930 . S
H39 C28 0.931 . S
Eu40 C49 2.828 . S
Eu40 O51 2.392 . S
Eu40 O53 2.418 . S
Eu40 O58 2.373 . S
Eu40 O61 2.488 . S
Eu40 O62 2.471 . S
Eu40 O63 2.349 . S
Eu41 O50 2.373 . S
Eu41 O54 2.488 . S
Eu41 O55 2.471 . S
Eu41 O56 2.349 . S
Eu41 O59 2.392 . S
Eu41 O60 2.418 . S
Eu41 C70 2.828 . S
C42 O60 1.244 . S
C42 O63 1.265 . S
C43 C44 1.379 . S
C43 C47 1.373 . S
C43 C49 1.505 . S
C44 C43 1.379 . S
C44 C46 1.369 . S
C44 H72 0.930 . S
C45 C47 1.383 . S
C45 C48 1.382 . S
C45 H73 0.930 . S
C46 C44 1.369 . S
C46 C48 1.392 . S
C46 H74 0.930 . S
C47 C43 1.373 . S
C47 C45 1.383 . S
C47 H75 0.931 . S
C48 C45 1.382 . S
C48 C46 1.392 . S
C49 Eu40 2.828 . S
C49 C43 1.505 . S
C49 O61 1.249 . S
C49 O62 1.244 . S
O50 Eu41 2.373 . S
O50 C52 1.258 . S
O51 Eu40 2.392 . S
O51 C52 1.242 . S
C52 O50 1.258 . S
C52 O51 1.242 . S
O53 Eu40 2.418 . S
O53 C57 1.244 . S
O54 Eu41 2.488 . S
O54 C70 1.249 . S
O55 Eu41 2.471 . S
O55 C70 1.244 . S
O56 Eu41 2.349 . S
O56 C57 1.265 . S
C57 O53 1.244 . S
C57 O56 1.265 . S
O58 Eu40 2.373 . S
O58 C71 1.258 . S
O59 Eu41 2.392 . S
O59 C71 1.242 . S
O60 Eu41 2.418 . S
O60 C42 1.244 . S
O61 Eu40 2.488 . S
O61 C49 1.249 . S
O62 Eu40 2.471 . S
O62 C49 1.244 . S
O63 Eu40 2.349 . S
O63 C42 1.265 . S
C64 C65 1.379 . S
C64 C68 1.373 . S
C64 C70 1.505 . S
C65 C64 1.379 . S
C65 C67 1.369 . S
C65 H76 0.930 . S
C66 C68 1.383 . S
C66 C69 1.382 . S
C66 H77 0.930 . S
C67 C65 1.369 . S
C67 C69 1.392 . S
C67 H78 0.930 . S
C68 C64 1.373 . S
C68 C66 1.383 . S
C68 H79 0.931 . S
C69 C66 1.382 . S
C69 C67 1.392 . S
C70 Eu41 2.828 . S
C70 O54 1.249 . S
C70 O55 1.244 . S
C70 C64 1.505 . S
C71 O58 1.258 . S
C71 O59 1.242 . S
H72 C44 0.930 . S
H73 C45 0.930 . S
H74 C46 0.930 . S
H75 C47 0.931 . S
H76 C65 0.930 . S
H77 C66 0.930 . S
H78 C67 0.930 . S
H79 C68 0.931 . S
Eu80 C89 2.828 . S
Eu80 O91 2.392 . S
Eu80 O93 2.418 . S
Eu80 O98 2.373 . S
Eu80 O101 2.488 . S
Eu80 O102 2.471 . S
Eu80 O103 2.349 . S
Eu81 O90 2.373 . S
Eu81 O94 2.488 . S
Eu81 O95 2.471 . S
Eu81 O96 2.349 . S
Eu81 O99 2.392 . S
Eu81 O100 2.418 . S
Eu81 C110 2.828 . S
C82 O100 1.244 . S
C82 O103 1.265 . S
C83 C84 1.379 . S
C83 C87 1.373 . S
C83 C89 1.505 . S
C84 C83 1.379 . S
C84 C86 1.369 . S
C84 H112 0.930 . S
C85 C87 1.383 . S
C85 C88 1.382 1_556 S
C85 H113 0.930 . S
C86 C84 1.369 . S
C86 C88 1.392 1_556 S
C86 H114 0.930 . S
C87 C83 1.373 . S
C87 C85 1.383 . S
C87 H115 0.931 . S
C88 C85 1.382 1_554 S
C88 C86 1.392 1_554 S
C89 Eu80 2.828 . S
C89 C83 1.505 . S
C89 O101 1.249 . S
C89 O102 1.244 . S
O90 Eu81 2.373 . S
O90 C92 1.258 . S
O91 Eu80 2.392 . S
O91 C92 1.242 . S
C92 O90 1.258 . S
C92 O91 1.242 . S
O93 Eu80 2.418 . S
O93 C97 1.244 . S
O94 Eu81 2.488 . S
O94 C110 1.249 . S
O95 Eu81 2.471 . S
O95 C110 1.244 . S
O96 Eu81 2.349 . S
O96 C97 1.265 . S
C97 O93 1.244 . S
C97 O96 1.265 . S
O98 Eu80 2.373 . S
O98 C111 1.258 . S
O99 Eu81 2.392 . S
O99 C111 1.242 . S
O100 Eu81 2.418 . S
O100 C82 1.244 . S
O101 Eu80 2.488 . S
O101 C89 1.249 . S
O102 Eu80 2.471 . S
O102 C89 1.244 . S
O103 Eu80 2.349 . S
O103 C82 1.265 . S
C104 C105 1.379 . S
C104 C108 1.373 . S
C104 C110 1.505 . S
C105 C104 1.379 . S
C105 C107 1.369 . S
C105 H116 0.930 . S
C106 C108 1.383 . S
C106 C109 1.382 . S
C106 H117 0.930 . S
C107 C105 1.369 . S
C107 C109 1.392 . S
C107 H118 0.930 . S
C108 C104 1.373 . S
C108 C106 1.383 . S
C108 H119 0.931 . S
C109 C106 1.382 . S
C109 C107 1.392 . S
C110 Eu81 2.828 . S
C110 O94 1.249 . S
C110 O95 1.244 . S
C110 C104 1.505 . S
C111 O98 1.258 . S
C111 O99 1.242 . S
H112 C84 0.930 . S
H113 C85 0.930 . S
H114 C86 0.930 . S
H115 C87 0.931 . S
H116 C105 0.930 . S
H117 C106 0.930 . S
H118 C107 0.930 . S
H119 C108 0.931 . S
Eu120 C129 2.828 . S
Eu120 O131 2.392 . S
Eu120 O133 2.418 . S
Eu120 O138 2.373 . S
Eu120 O141 2.488 . S
Eu120 O142 2.471 . S
Eu120 O143 2.349 . S
Eu121 O130 2.373 . S
Eu121 O134 2.488 . S
Eu121 O135 2.471 . S
Eu121 O136 2.349 . S
Eu121 O139 2.392 . S
Eu121 O140 2.418 . S
Eu121 C150 2.828 . S
C122 O140 1.244 . S
C122 O143 1.265 . S
C123 C124 1.379 . S
C123 C127 1.373 . S
C123 C129 1.505 1_556 S
C124 C123 1.379 . S
C124 C126 1.369 . S
C124 H152 0.930 . S
C125 C127 1.383 . S
C125 C128 1.382 . S
C125 H153 0.930 . S
C126 C124 1.369 . S
C126 C128 1.392 . S
C126 H154 0.930 . S
C127 C123 1.373 . S
C127 C125 1.383 . S
C127 H155 0.931 . S
C128 C125 1.382 . S
C128 C126 1.392 . S
C129 Eu120 2.828 . S
C129 C123 1.505 1_554 S
C129 O141 1.249 . S
C129 O142 1.244 . S
O130 Eu121 2.373 . S
O130 C132 1.258 . S
O131 Eu120 2.392 . S
O131 C132 1.242 . S
C132 O130 1.258 . S
C132 O131 1.242 . S
O133 Eu120 2.418 . S
O133 C137 1.244 . S
O134 Eu121 2.488 . S
O134 C150 1.249 . S
O135 Eu121 2.471 . S
O135 C150 1.244 . S
O136 Eu121 2.349 . S
O136 C137 1.265 . S
C137 O133 1.244 . S
C137 O136 1.265 . S
O138 Eu120 2.373 . S
O138 C151 1.258 . S
O139 Eu121 2.392 . S
O139 C151 1.242 . S
O140 Eu121 2.418 . S
O140 C122 1.244 . S
O141 Eu120 2.488 . S
O141 C129 1.249 . S
O142 Eu120 2.471 . S
O142 C129 1.244 . S
O143 Eu120 2.349 . S
O143 C122 1.265 . S
C144 C145 1.379 . S
C144 C148 1.373 . S
C144 C150 1.505 . S
C145 C144 1.379 . S
C145 C147 1.369 . S
C145 H156 0.930 . S
C146 C148 1.383 . S
C146 C149 1.382 . S
C146 H157 0.930 . S
C147 C145 1.369 . S
C147 C149 1.392 . S
C147 H158 0.930 . S
C148 C144 1.373 . S
C148 C146 1.383 . S
C148 H159 0.931 . S
C149 C146 1.382 . S
C149 C147 1.392 . S
C150 Eu121 2.828 . S
C150 O134 1.249 . S
C150 O135 1.244 . S
C150 C144 1.505 . S
C151 O138 1.258 . S
C151 O139 1.242 . S
H152 C124 0.930 . S
H153 C125 0.930 . S
H154 C126 0.930 . S
H155 C127 0.931 . S
H156 C145 0.930 . S
H157 C146 0.930 . S
H158 C147 0.930 . S
H159 C148 0.931 . S
Eu160 C169 2.828 . S
Eu160 O171 2.392 . S
Eu160 O173 2.418 . S
Eu160 O178 2.373 . S
Eu160 O181 2.488 . S
Eu160 O182 2.471 . S
Eu160 O183 2.349 . S
Eu161 O170 2.373 . S
Eu161 O174 2.488 . S
Eu161 O175 2.471 . S
Eu161 O176 2.349 . S
Eu161 O179 2.392 . S
Eu161 O180 2.418 . S
Eu161 C190 2.828 . S
C162 O180 1.244 . S
C162 O183 1.265 . S
C163 C164 1.379 . S
C163 C167 1.373 . S
C163 C169 1.505 . S
C164 C163 1.379 . S
C164 C166 1.369 . S
C164 H192 0.930 . S
C165 C167 1.383 . S
C165 C168 1.382 . S
C165 H193 0.930 . S
C166 C164 1.369 . S
C166 C168 1.392 . S
C166 H194 0.930 . S
C167 C163 1.373 . S
C167 C165 1.383 . S
C167 H195 0.931 . S
C168 C165 1.382 . S
C168 C166 1.392 . S
C169 Eu160 2.828 . S
C169 C163 1.505 . S
C169 O181 1.249 . S
C169 O182 1.244 . S
O170 Eu161 2.373 . S
O170 C172 1.258 . S
O171 Eu160 2.392 . S
O171 C172 1.242 . S
C172 O170 1.258 . S
C172 O171 1.242 . S
O173 Eu160 2.418 . S
O173 C177 1.244 . S
O174 Eu161 2.488 . S
O174 C190 1.249 . S
O175 Eu161 2.471 . S
O175 C190 1.244 . S
O176 Eu161 2.349 . S
O176 C177 1.265 . S
C177 O173 1.244 . S
C177 O176 1.265 . S
O178 Eu160 2.373 . S
O178 C191 1.258 . S
O179 Eu161 2.392 . S
O179 C191 1.242 . S
O180 Eu161 2.418 . S
O180 C162 1.244 . S
O181 Eu160 2.488 . S
O181 C169 1.249 . S
O182 Eu160 2.471 . S
O182 C169 1.244 . S
O183 Eu160 2.349 . S
O183 C162 1.265 . S
C184 C185 1.379 . S
C184 C188 1.373 . S
C184 C190 1.505 . S
C185 C184 1.379 . S
C185 C187 1.369 . S
C185 H196 0.930 . S
C186 C188 1.383 . S
C186 C189 1.382 . S
C186 H197 0.930 . S
C187 C185 1.369 . S
C187 C189 1.392 . S
C187 H198 0.930 . S
C188 C184 1.373 . S
C188 C186 1.383 . S
C188 H199 0.931 . S
C189 C186 1.382 . S
C189 C187 1.392 . S
C190 Eu161 2.828 . S
C190 O174 1.249 . S
C190 O175 1.244 . S
C190 C184 1.505 . S
C191 O178 1.258 . S
C191 O179 1.242 . S
H192 C164 0.930 . S
H193 C165 0.930 . S
H194 C166 0.930 . S
H195 C167 0.931 . S
H196 C185 0.930 . S
H197 C186 0.930 . S
H198 C187 0.930 . S
H199 C188 0.931 . S
Eu200 C209 2.828 . S
Eu200 O211 2.392 . S
Eu200 O213 2.418 . S
Eu200 O218 2.373 . S
Eu200 O221 2.488 . S
Eu200 O222 2.471 . S
Eu200 O223 2.349 . S
Eu201 O210 2.373 . S
Eu201 O214 2.488 . S
Eu201 O215 2.471 . S
Eu201 O216 2.349 . S
Eu201 O219 2.392 . S
Eu201 O220 2.418 . S
Eu201 C230 2.828 1_556 S
C202 O220 1.244 . S
C202 O223 1.265 . S
C203 C204 1.379 . S
C203 C207 1.373 . S
C203 C209 1.505 . S
C204 C203 1.379 . S
C204 C206 1.369 . S
C204 H232 0.930 . S
C205 C207 1.383 . S
C205 C208 1.382 . S
C205 H233 0.930 . S
C206 C204 1.369 . S
C206 C208 1.392 . S
C206 H234 0.930 . S
C207 C203 1.373 . S
C207 C205 1.383 . S
C207 H235 0.931 . S
C208 C205 1.382 . S
C208 C206 1.392 . S
C209 Eu200 2.828 . S
C209 C203 1.505 . S
C209 O221 1.249 . S
C209 O222 1.244 . S
O210 Eu201 2.373 . S
O210 C212 1.258 . S
O211 Eu200 2.392 . S
O211 C212 1.242 . S
C212 O210 1.258 . S
C212 O211 1.242 . S
O213 Eu200 2.418 . S
O213 C217 1.244 . S
O214 Eu201 2.488 . S
O214 C230 1.249 1_556 S
O215 Eu201 2.471 . S
O215 C230 1.244 1_556 S
O216 Eu201 2.349 . S
O216 C217 1.265 . S
C217 O213 1.244 . S
C217 O216 1.265 . S
O218 Eu200 2.373 . S
O218 C231 1.258 . S
O219 Eu201 2.392 . S
O219 C231 1.242 . S
O220 Eu201 2.418 . S
O220 C202 1.244 . S
O221 Eu200 2.488 . S
O221 C209 1.249 . S
O222 Eu200 2.471 . S
O222 C209 1.244 . S
O223 Eu200 2.349 . S
O223 C202 1.265 . S
C224 C225 1.379 . S
C224 C228 1.373 . S
C224 C230 1.505 . S
C225 C224 1.379 . S
C225 C227 1.369 . S
C225 H236 0.930 . S
C226 C228 1.383 . S
C226 C229 1.382 . S
C226 H237 0.930 . S
C227 C225 1.369 . S
C227 C229 1.392 . S
C227 H238 0.930 . S
C228 C224 1.373 . S
C228 C226 1.383 . S
C228 H239 0.931 . S
C229 C226 1.382 . S
C229 C227 1.392 . S
C230 Eu201 2.828 1_554 S
C230 O214 1.249 1_554 S
C230 O215 1.244 1_554 S
C230 C224 1.505 . S
C231 O218 1.258 . S
C231 O219 1.242 . S
H232 C204 0.930 . S
H233 C205 0.930 . S
H234 C206 0.930 . S
H235 C207 0.931 . S
H236 C225 0.930 . S
H237 C226 0.930 . S
H238 C227 0.930 . S
H239 C228 0.931 . S
C240 C241 1.386 . S
C240 C242 1.383 . S
C240 H256 0.951 . S
C241 C240 1.386 . S
C241 C245 1.383 . S
C242 C240 1.383 . S
C242 C243 1.402 . S
C242 H257 0.951 . S
C243 C242 1.402 . S
C243 C244 1.375 . S
C243 C246 1.481 . S
C244 C243 1.375 . S
C244 C245 1.367 . S
C244 H258 0.951 . S
C245 C241 1.383 . S
C245 C244 1.367 . S
C245 H259 0.950 . S
C246 C243 1.481 . S
C246 C247 1.297 . S
C246 H260 0.950 . S
C247 C246 1.297 . S
C247 C248 1.479 . S
C247 H261 0.950 . S
C248 C247 1.479 . S
C248 C249 1.375 . S
C248 C254 1.404 1_556 S
C249 C248 1.375 . S
C249 C250 1.369 . S
C249 H262 0.950 . S
C250 C249 1.369 . S
C250 C251 1.392 . S
C250 H263 0.951 . S
C251 C250 1.392 . S
C251 C253 1.384 1_556 S
H252 C254 0.949 . S
C253 C251 1.384 1_554 S
C253 C254 1.385 . S
C253 H255 0.950 . S
C254 C248 1.404 1_554 S
C254 H252 0.949 . S
C254 C253 1.385 . S
H255 C253 0.950 . S
H256 C240 0.951 . S
H257 C242 0.951 . S
H258 C244 0.951 . S
H259 C245 0.950 . S
H260 C246 0.950 . S
H261 C247 0.950 . S
H262 C249 0.950 . S
H263 C250 0.951 . S
C264 C265 1.386 . S
C264 C266 1.383 . S
C264 H280 0.951 . S
C265 C264 1.386 . S
C265 C269 1.383 . S
C266 C264 1.383 . S
C266 C267 1.402 . S
C266 H281 0.951 . S
C267 C266 1.402 . S
C267 C268 1.375 . S
C267 C270 1.489 . S
C268 C267 1.375 . S
C268 C269 1.367 . S
C268 H282 0.951 . S
C269 C265 1.383 . S
C269 C268 1.367 . S
C269 H283 0.950 . S
C270 C267 1.489 . S
C270 C271 1.278 1_455 S
C270 H284 0.962 . S
C271 C270 1.278 1_655 S
C271 C272 1.479 . S
C271 H285 0.950 . S
C272 C271 1.479 . S
C272 C273 1.375 . S
C272 C278 1.404 . S
C273 C272 1.375 . S
C273 C274 1.369 . S
C273 H286 0.950 . S
C274 C273 1.369 . S
C274 C275 1.392 . S
C274 H287 0.951 . S
C275 C274 1.392 . S
C275 C277 1.384 . S
H276 C278 0.949 . S
C277 C275 1.384 . S
C277 C278 1.385 . S
C277 H279 0.950 . S
C278 C272 1.404 . S
C278 H276 0.949 . S
C278 C277 1.385 . S
H279 C277 0.950 . S
H280 C264 0.951 . S
H281 C266 0.951 . S
H282 C268 0.951 . S
H283 C269 0.950 . S
H284 C270 0.962 . S
H285 C271 0.950 . S
H286 C273 0.950 . S
H287 C274 0.951 . S
C288 C289 1.386 . S
C288 C290 1.383 . S
C288 H304 0.951 . S
C289 C288 1.386 . S
C289 C293 1.383 . S
C290 C288 1.383 . S
C290 C291 1.402 . S
C290 H305 0.951 . S
C291 C290 1.402 . S
C291 C292 1.375 . S
C291 C294 1.481 . S
C292 C291 1.375 . S
C292 C293 1.367 . S
C292 H306 0.951 . S
C293 C289 1.383 . S
C293 C292 1.367 . S
C293 H307 0.950 . S
C294 C291 1.481 . S
C294 C295 1.297 1_545 S
C294 H308 0.950 1_545 S
C295 C294 1.297 1_565 S
C295 C296 1.479 . S
C295 H309 0.950 1_565 S
C296 C295 1.479 . S
C296 C297 1.375 . S
C296 C302 1.404 . S
C297 C296 1.375 . S
C297 C298 1.369 . S
C297 H310 0.950 . S
C298 C297 1.369 . S
C298 C299 1.392 . S
C298 H311 0.951 . S
C299 C298 1.392 . S
C299 C301 1.384 . S
H300 C302 0.949 . S
C301 C299 1.384 . S
C301 C302 1.385 . S
C301 H303 0.950 . S
C302 C296 1.404 . S
C302 H300 0.949 . S
C302 C301 1.385 . S
H303 C301 0.950 . S
H304 C288 0.951 . S
H305 C290 0.951 . S
H306 C292 0.951 . S
H307 C293 0.950 . S
H308 C294 0.950 1_565 S
H309 C295 0.950 1_545 S
H310 C297 0.950 . S
H311 C298 0.951 . S
C312 C313 1.386 . S
C312 C314 1.383 . S
C312 H328 0.951 . S
C313 C312 1.386 . S
C313 C317 1.383 . S
C314 C312 1.383 . S
C314 C315 1.402 . S
C314 H329 0.951 . S
C315 C314 1.402 . S
C315 C316 1.375 . S
C315 C318 1.481 . S
C316 C315 1.375 . S
C316 C317 1.367 . S
C316 H330 0.951 . S
C317 C313 1.383 . S
C317 C316 1.367 . S
C317 H331 0.950 . S
C318 C315 1.481 . S
C318 C319 1.297 . S
C318 H332 0.950 . S
C319 C318 1.297 . S
C319 C320 1.479 . S
C319 H333 0.950 . S
C320 C319 1.479 . S
C320 C321 1.374 1_556 S
C320 C326 1.404 1_556 S
C321 C320 1.374 1_554 S
C321 C322 1.380 . S
C321 H334 0.940 1_554 S
C322 C321 1.380 . S
C322 C323 1.392 . S
C322 H335 0.951 . S
C323 C322 1.392 . S
C323 C325 1.384 . S
H324 C326 0.949 . S
C325 C323 1.384 . S
C325 C326 1.385 . S
C325 H327 0.950 . S
C326 C320 1.404 1_554 S
C326 H324 0.949 . S
C326 C325 1.385 . S
H327 C325 0.950 . S
H328 C312 0.951 . S
H329 C314 0.951 . S
H330 C316 0.951 . S
H331 C317 0.950 . S
H332 C318 0.950 . S
H333 C319 0.950 . S
H334 C321 0.940 1_556 S
H335 C322 0.951 . S
C336 C337 1.386 . S
C336 C338 1.383 . S
C336 H352 0.951 . S
C337 C336 1.386 . S
C337 C341 1.383 . S
C338 C336 1.383 . S
C338 C339 1.402 . S
C338 H353 0.951 . S
C339 C338 1.402 . S
C339 C340 1.375 . S
C339 C342 1.481 . S
C340 C339 1.375 . S
C340 C341 1.367 . S
C340 H354 0.951 . S
C341 C337 1.383 . S
C341 C340 1.367 . S
C341 H355 0.950 . S
C342 C339 1.481 . S
C342 C343 1.297 1_455 S
C342 H356 0.950 . S
C343 C342 1.297 1_655 S
C343 C344 1.479 . S
C343 H357 0.952 1_655 S
C344 C343 1.479 . S
C344 C345 1.375 . S
C344 C350 1.404 . S
C345 C344 1.375 . S
C345 C346 1.369 . S
C345 H358 0.950 . S
C346 C345 1.369 . S
C346 C347 1.392 . S
C346 H359 0.951 . S
C347 C346 1.392 . S
C347 C349 1.384 . S
H348 C350 0.949 . S
C349 C347 1.384 . S
C349 C350 1.385 . S
C349 H351 0.950 . S
C350 C344 1.404 . S
C350 H348 0.949 . S
C350 C349 1.385 . S
H351 C349 0.950 . S
H352 C336 0.951 . S
H353 C338 0.951 . S
H354 C340 0.951 . S
H355 C341 0.950 . S
H356 C342 0.950 . S
H357 C343 0.952 1_455 S
H358 C345 0.950 . S
H359 C346 0.951 . S
C360 C361 1.386 . S
C360 C362 1.383 . S
C360 H376 0.951 . S
C361 C360 1.386 . S
C361 C365 1.383 . S
C362 C360 1.383 . S
C362 C363 1.402 . S
C362 H377 0.951 . S
C363 C362 1.402 . S
C363 C364 1.375 . S
C363 C366 1.481 . S
C364 C363 1.375 . S
C364 C365 1.367 . S
C364 H378 0.951 . S
C365 C361 1.383 . S
C365 C364 1.367 . S
C365 H379 0.950 . S
C366 C363 1.481 . S
C366 C367 1.297 1_545 S
C366 H380 0.950 . S
C367 C366 1.297 1_565 S
C367 C368 1.479 . S
C367 H381 0.950 . S
C368 C367 1.479 . S
C368 C369 1.375 . S
C368 C374 1.404 . S
C369 C368 1.375 . S
C369 C370 1.369 . S
C369 H382 0.950 . S
C370 C369 1.369 . S
C370 C371 1.392 . S
C370 H383 0.951 . S
C371 C370 1.392 . S
C371 C373 1.384 . S
H372 C374 0.949 1_545 S
C373 C371 1.384 . S
C373 C374 1.385 . S
C373 H375 0.950 . S
C374 C368 1.404 . S
C374 H372 0.949 1_565 S
C374 C373 1.385 . S
H375 C373 0.950 . S
H376 C360 0.951 . S
H377 C362 0.951 . S
H378 C364 0.951 . S
H379 C365 0.950 . S
H380 C366 0.950 . S
H381 C367 0.950 . S
H382 C369 0.950 . S
H383 C370 0.951 . S
C384 C385 1.386 . S
C384 C386 1.383 . S
C384 H400 0.951 . S
C385 C384 1.386 . S
C385 C389 1.383 . S
C386 C384 1.383 . S
C386 C387 1.402 . S
C386 H401 0.951 . S
C387 C386 1.402 . S
C387 C388 1.375 . S
C387 C390 1.481 . S
C388 C387 1.375 . S
C388 C389 1.367 . S
C388 H402 0.951 . S
C389 C385 1.383 . S
C389 C388 1.367 . S
C389 H403 0.950 . S
C390 C387 1.481 . S
C390 C391 1.297 . S
C390 H404 0.950 . S
C391 C390 1.297 . S
C391 C392 1.479 . S
C391 H405 0.950 . S
C392 C391 1.479 . S
C392 C393 1.375 . S
C392 C398 1.404 . S
C393 C392 1.375 . S
C393 C394 1.369 . S
C393 H406 0.950 . S
C394 C393 1.369 . S
C394 C395 1.392 . S
C394 H407 0.951 . S
C395 C394 1.392 . S
C395 C397 1.384 . S
H396 C398 0.949 . S
C397 C395 1.384 . S
C397 C398 1.385 . S
C397 H399 0.950 . S
C398 C392 1.404 . S
C398 H396 0.949 . S
C398 C397 1.385 . S
H399 C397 0.950 . S
H400 C384 0.951 . S
H401 C386 0.951 . S
H402 C388 0.951 . S
H403 C389 0.950 . S
H404 C390 0.950 . S
H405 C391 0.950 . S
H406 C393 0.950 . S
H407 C394 0.951 . S
C408 C409 1.386 . S
C408 C410 1.383 . S
C408 H424 0.951 . S
C409 C408 1.386 . S
C409 C413 1.383 . S
C410 C408 1.383 . S
C410 C411 1.402 . S
C410 H425 0.951 . S
C411 C410 1.402 . S
C411 C412 1.375 . S
C411 C414 1.481 . S
C412 C411 1.375 . S
C412 C413 1.367 . S
C412 H426 0.951 . S
C413 C409 1.383 . S
C413 C412 1.367 . S
C413 H427 0.950 . S
C414 C411 1.481 . S
C414 C415 1.297 . S
C414 H428 0.950 . S
C415 C414 1.297 . S
C415 C416 1.479 1_554 S
C415 H429 0.950 . S
C416 C415 1.479 1_556 S
C416 C417 1.375 . S
C416 C422 1.404 . S
C417 C416 1.375 . S
C417 C418 1.369 . S
C417 H430 0.950 . S
C418 C417 1.369 . S
C418 C419 1.392 . S
C418 H431 0.951 . S
C419 C418 1.392 . S
C419 C421 1.384 . S
H420 C422 0.949 . S
C421 C419 1.384 . S
C421 C422 1.385 . S
C421 H423 0.950 . S
C422 C416 1.404 . S
C422 H420 0.949 . S
C422 C421 1.385 . S
H423 C421 0.950 . S
H424 C408 0.951 . S
H425 C410 0.951 . S
H426 C412 0.951 . S
H427 C413 0.950 . S
H428 C414 0.950 . S
H429 C415 0.950 . S
H430 C417 0.950 . S
H431 C418 0.951 . S
C432 C433 1.386 . S
C432 C434 1.383 . S
C432 H448 0.951 . S
C433 C432 1.386 . S
C433 C437 1.383 . S
C434 C432 1.383 . S
C434 C435 1.402 . S
C434 H449 0.951 . S
C435 C434 1.402 . S
C435 C436 1.375 . S
C435 C438 1.481 . S
C436 C435 1.375 . S
C436 C437 1.367 . S
C436 H450 0.951 . S
C437 C433 1.383 . S
C437 C436 1.367 . S
C437 H451 0.950 . S
C438 C435 1.481 . S
C438 C439 1.297 . S
C438 H452 0.950 . S
C439 C438 1.297 . S
C439 C440 1.479 . S
C439 H453 0.950 . S
C440 C439 1.479 . S
C440 C441 1.375 . S
C440 C446 1.404 . S
C441 C440 1.375 . S
C441 C442 1.369 . S
C441 H454 0.950 . S
C442 C441 1.369 . S
C442 C443 1.392 . S
C442 H455 0.951 . S
C443 C442 1.392 . S
C443 C445 1.384 . S
H444 C446 0.949 . S
C445 C443 1.384 . S
C445 C446 1.385 . S
C445 H447 0.950 . S
C446 C440 1.404 . S
C446 H444 0.949 . S
C446 C445 1.385 . S
H447 C445 0.950 . S
H448 C432 0.951 . S
H449 C434 0.951 . S
H450 C436 0.951 . S
H451 C437 0.950 . S
H452 C438 0.950 . S
H453 C439 0.950 . S
H454 C441 0.950 . S
H455 C442 0.951 . S
C456 C457 1.386 . S
C456 C458 1.383 . S
C456 H472 0.951 . S
C457 C456 1.386 . S
C457 C461 1.383 . S
C458 C456 1.383 . S
C458 C459 1.402 . S
C458 H473 0.951 . S
C459 C458 1.402 . S
C459 C460 1.375 . S
C459 C462 1.481 . S
C460 C459 1.375 . S
C460 C461 1.367 . S
C460 H474 0.951 . S
C461 C457 1.383 . S
C461 C460 1.367 . S
C461 H475 0.950 . S
C462 C459 1.481 . S
C462 C463 1.297 . S
C462 H476 0.950 . S
C463 C462 1.297 . S
C463 C464 1.479 . S
C463 H477 0.950 . S
C464 C463 1.479 . S
C464 C465 1.375 . S
C464 C470 1.404 . S
C465 C464 1.375 . S
C465 C466 1.369 . S
C465 H478 0.950 . S
C466 C465 1.369 . S
C466 C467 1.392 . S
C466 H479 0.951 . S
C467 C466 1.392 . S
C467 C469 1.384 . S
H468 C470 0.949 . S
C469 C467 1.384 . S
C469 C470 1.385 . S
C469 H471 0.950 . S
C470 C464 1.404 . S
C470 H468 0.949 . S
C470 C469 1.385 . S
H471 C469 0.950 . S
H472 C456 0.951 . S
H473 C458 0.951 . S
H474 C460 0.951 . S
H475 C461 0.950 . S
H476 C462 0.950 . S
H477 C463 0.950 . S
H478 C465 0.950 . S
H479 C466 0.951 . S
C480 C481 1.386 . S
C480 C482 1.383 . S
C480 H496 0.951 . S
C481 C480 1.386 . S
C481 C485 1.383 . S
C482 C480 1.383 . S
C482 C483 1.402 . S
C482 H497 0.951 . S
C483 C482 1.402 . S
C483 C484 1.375 . S
C483 C486 1.481 . S
C484 C483 1.375 . S
C484 C485 1.367 . S
C484 H498 0.951 . S
C485 C481 1.383 . S
C485 C484 1.367 . S
C485 H499 0.950 . S
C486 C483 1.481 . S
C486 C487 1.297 . S
C486 H500 0.950 . S
C487 C486 1.297 . S
C487 C488 1.479 . S
C487 H501 0.950 . S
C488 C487 1.479 . S
C488 C489 1.375 . S
C488 C494 1.404 . S
C489 C488 1.375 . S
C489 C490 1.379 . S
C489 H502 0.950 . S
C490 C489 1.379 . S
C490 C491 1.387 1_556 S
C490 H503 0.945 1_556 S
C491 C490 1.387 1_554 S
C491 C493 1.373 1_554 S
H492 C494 0.949 . S
C493 C491 1.373 1_556 S
C493 C494 1.406 . S
C493 H495 0.940 1_556 S
C494 C488 1.404 . S
C494 H492 0.949 . S
C494 C493 1.406 . S
H495 C493 0.940 1_554 S
H496 C480 0.951 . S
H497 C482 0.951 . S
H498 C484 0.951 . S
H499 C485 0.950 . S
H500 C486 0.950 . S
H501 C487 0.950 . S
H502 C489 0.950 . S
H503 C490 0.945 1_554 S
C504 C505 1.386 . S
C504 C506 1.383 . S
C504 H520 0.951 . S
C505 C504 1.386 . S
C505 C509 1.383 . S
C506 C504 1.383 . S
C506 C507 1.402 . S
C506 H521 0.951 . S
C507 C506 1.402 . S
C507 C508 1.375 . S
C507 C510 1.481 . S
C508 C507 1.375 . S
C508 C509 1.367 . S
C508 H522 0.951 . S
C509 C505 1.383 . S
C509 C508 1.367 . S
C509 H523 0.950 . S
C510 C507 1.481 . S
C510 C511 1.297 . S
C510 H524 0.950 . S
C511 C510 1.297 . S
C511 C512 1.479 . S
C511 H525 0.950 . S
C512 C511 1.479 . S
C512 C513 1.375 . S
C512 C518 1.404 . S
C513 C512 1.375 . S
C513 C514 1.369 . S
C513 H526 0.950 . S
C514 C513 1.369 . S
C514 C515 1.392 . S
C514 H527 0.951 . S
C515 C514 1.392 . S
C515 C517 1.384 . S
H516 C518 0.949 . S
C517 C515 1.384 . S
C517 C518 1.385 . S
C517 H519 0.950 . S
C518 C512 1.404 . S
C518 H516 0.949 . S
C518 C517 1.385 . S
H519 C517 0.950 . S
H520 C504 0.951 . S
H521 C506 0.951 . S
H522 C508 0.951 . S
H523 C509 0.950 . S
H524 C510 0.950 . S
H525 C511 0.950 . S
H526 C513 0.950 . S
H527 C514 0.951 . S
C528 C529 1.386 . S
C528 C530 1.383 . S
C528 H544 0.951 . S
C529 C528 1.386 . S
C529 C533 1.383 . S
C530 C528 1.383 . S
C530 C531 1.402 . S
C530 H545 0.951 . S
C531 C530 1.402 . S
C531 C532 1.375 . S
C531 C534 1.481 . S
C532 C531 1.375 . S
C532 C533 1.367 . S
C532 H546 0.951 . S
C533 C529 1.383 . S
C533 C532 1.367 . S
C533 H547 0.950 . S
C534 C531 1.481 . S
C534 C535 1.297 . S
C534 H548 0.950 . S
C535 C534 1.297 . S
C535 C536 1.479 . S
C535 H549 0.950 . S
C536 C535 1.479 . S
C536 C537 1.375 . S
C536 C542 1.404 . S
C537 C536 1.375 . S
C537 C538 1.369 . S
C537 H550 0.950 . S
C538 C537 1.369 . S
C538 C539 1.392 . S
C538 H551 0.951 . S
C539 C538 1.392 . S
C539 C541 1.384 . S
H540 C542 0.949 . S
C541 C539 1.384 . S
C541 C542 1.385 . S
C541 H543 0.950 . S
C542 C536 1.404 . S
C542 H540 0.949 . S
C542 C541 1.385 . S
H543 C541 0.950 . S
H544 C528 0.951 . S
H545 C530 0.951 . S
H546 C532 0.951 . S
H547 C533 0.950 . S
H548 C534 0.950 . S
H549 C535 0.950 . S
H550 C537 0.950 . S
H551 C538 0.951 . S
C552 C553 1.386 . S
C552 C554 1.383 . S
C552 H568 0.951 . S
C553 C552 1.386 . S
C553 C557 1.383 . S
C554 C552 1.383 . S
C554 C555 1.402 . S
C554 H569 0.951 . S
C555 C554 1.402 . S
C555 C556 1.375 . S
C555 C558 1.481 . S
C556 C555 1.375 . S
C556 C557 1.367 . S
C556 H570 0.951 . S
C557 C553 1.383 . S
C557 C556 1.367 . S
C557 H571 0.950 . S
C558 C555 1.481 . S
C558 C559 1.297 . S
C558 H572 0.950 . S
C559 C558 1.297 . S
C559 C560 1.479 . S
C559 H573 0.950 . S
C560 C559 1.479 . S
C560 C561 1.375 . S
C560 C566 1.404 . S
C561 C560 1.375 . S
C561 C562 1.369 . S
C561 H574 0.950 . S
C562 C561 1.369 . S
C562 C563 1.392 . S
C562 H575 0.951 . S
C563 C562 1.392 . S
C563 C565 1.384 . S
H564 C566 0.949 . S
C565 C563 1.384 . S
C565 C566 1.385 . S
C565 H567 0.950 . S
C566 C560 1.404 . S
C566 H564 0.949 . S
C566 C565 1.385 . S
H567 C565 0.950 . S
H568 C552 0.951 . S
H569 C554 0.951 . S
H570 C556 0.951 . S
H571 C557 0.950 . S
H572 C558 0.950 . S
H573 C559 0.950 . S
H574 C561 0.950 . S
H575 C562 0.951 . S
C576 C577 1.386 . S
C576 C578 1.383 . S
C576 H592 0.951 . S
C577 C576 1.386 . S
C577 C581 1.383 . S
C578 C576 1.383 . S
C578 C579 1.402 . S
C578 H593 0.951 . S
C579 C578 1.402 . S
C579 C580 1.375 . S
C579 C582 1.481 . S
C580 C579 1.375 . S
C580 C581 1.367 . S
C580 H594 0.951 . S
C581 C577 1.383 . S
C581 C580 1.367 . S
C581 H595 0.950 . S
C582 C579 1.481 . S
C582 C583 1.297 . S
C582 H596 0.950 . S
C583 C582 1.297 . S
C583 C584 1.479 . S
C583 H597 0.950 . S
C584 C583 1.479 . S
C584 C585 1.375 . S
C584 C590 1.404 . S
C585 C584 1.375 . S
C585 C586 1.369 . S
C585 H598 0.950 . S
C586 C585 1.369 . S
C586 C587 1.392 . S
C586 H599 0.951 . S
C587 C586 1.392 . S
C587 C589 1.384 . S
H588 C590 0.949 . S
C589 C587 1.384 . S
C589 C590 1.385 . S
C589 H591 0.950 . S
C590 C584 1.404 . S
C590 H588 0.949 . S
C590 C589 1.385 . S
H591 C589 0.950 . S
H592 C576 0.951 . S
H593 C578 0.951 . S
H594 C580 0.951 . S
H595 C581 0.950 . S
H596 C582 0.950 . S
H597 C583 0.950 . S
H598 C585 0.950 . S
H599 C586 0.951 . S
C600 C601 1.386 . S
C600 C602 1.383 . S
C600 H616 0.951 . S
C601 C600 1.386 . S
C601 C605 1.383 . S
C602 C600 1.383 . S
C602 C603 1.402 . S
C602 H617 0.951 . S
C603 C602 1.402 . S
C603 C604 1.375 . S
C603 C606 1.481 . S
C604 C603 1.375 . S
C604 C605 1.367 . S
C604 H618 0.951 . S
C605 C601 1.383 . S
C605 C604 1.367 . S
C605 H619 0.950 . S
C606 C603 1.481 . S
C606 C607 1.297 . S
C606 H620 0.950 . S
C607 C606 1.297 . S
C607 C608 1.479 . S
C607 H621 0.950 . S
C608 C607 1.479 . S
C608 C609 1.375 . S
C608 C614 1.404 . S
C609 C608 1.375 . S
C609 C610 1.369 . S
C609 H622 0.950 . S
C610 C609 1.369 . S
C610 C611 1.392 . S
C610 H623 0.951 . S
C611 C610 1.392 . S
C611 C613 1.384 . S
H612 C614 0.949 . S
C613 C611 1.384 . S
C613 C614 1.385 . S
C613 H615 0.950 . S
C614 C608 1.404 . S
C614 H612 0.949 . S
C614 C613 1.385 . S
H615 C613 0.950 . S
H616 C600 0.951 . S
H617 C602 0.951 . S
H618 C604 0.951 . S
H619 C605 0.950 . S
H620 C606 0.950 . S
H621 C607 0.950 . S
H622 C609 0.950 . S
H623 C610 0.951 . S
C624 C625 1.386 . S
C624 C626 1.383 . S
C624 H640 0.951 . S
C625 C624 1.386 . S
C625 C629 1.383 . S
C626 C624 1.383 . S
C626 C627 1.402 . S
C626 H641 0.951 . S
C627 C626 1.402 . S
C627 C628 1.375 . S
C627 C630 1.481 . S
C628 C627 1.375 . S
C628 C629 1.367 . S
C628 H642 0.951 . S
C629 C625 1.383 . S
C629 C628 1.367 . S
C629 H643 0.950 . S
C630 C627 1.481 . S
C630 C631 1.297 . S
C630 H644 0.950 . S
C631 C630 1.297 . S
C631 C632 1.479 . S
C631 H645 0.950 . S
C632 C631 1.479 . S
C632 C633 1.375 . S
C632 C638 1.404 . S
C633 C632 1.375 . S
C633 C634 1.369 . S
C633 H646 0.950 . S
C634 C633 1.369 . S
C634 C635 1.392 . S
C634 H647 0.951 . S
C635 C634 1.392 . S
C635 C637 1.384 . S
H636 C638 0.949 . S
C637 C635 1.384 . S
C637 C638 1.385 . S
C637 H639 0.950 . S
C638 C632 1.404 . S
C638 H636 0.949 . S
C638 C637 1.385 . S
H639 C637 0.950 . S
H640 C624 0.951 . S
H641 C626 0.951 . S
H642 C628 0.951 . S
H643 C629 0.950 . S
H644 C630 0.950 . S
H645 C631 0.950 . S
H646 C633 0.950 . S
H647 C634 0.951 . S
C648 C649 1.386 . S
C648 C650 1.383 . S
C648 H664 0.951 . S
C649 C648 1.386 . S
C649 C653 1.383 . S
C650 C648 1.383 . S
C650 C651 1.402 . S
C650 H665 0.951 . S
C651 C650 1.402 . S
C651 C652 1.375 . S
C651 C654 1.481 . S
C652 C651 1.375 . S
C652 C653 1.367 . S
C652 H666 0.951 . S
C653 C649 1.383 . S
C653 C652 1.367 . S
C653 H667 0.950 . S
C654 C651 1.481 . S
C654 C655 1.297 . S
C654 H668 0.963 . S
C655 C654 1.297 . S
C655 C656 1.479 . S
C655 H669 0.950 . S
C656 C655 1.479 . S
C656 C657 1.375 . S
C656 C662 1.404 1_554 S
C657 C656 1.375 . S
C657 C658 1.369 1_554 S
C657 H670 0.950 . S
C658 C657 1.369 1_556 S
C658 C659 1.392 . S
C658 H671 0.951 1_556 S
C659 C658 1.392 . S
C659 C661 1.384 . S
H660 C662 0.949 . S
C661 C659 1.384 . S
C661 C662 1.385 . S
C661 H663 0.950 . S
C662 C656 1.404 1_556 S
C662 H660 0.949 . S
C662 C661 1.385 . S
H663 C661 0.950 . S
H664 C648 0.951 . S
H665 C650 0.951 . S
H666 C652 0.951 . S
H667 C653 0.950 . S
H668 C654 0.963 . S
H669 C655 0.950 . S
H670 C657 0.950 . S
H671 C658 0.951 1_554 S
C241 C217 1.372 . S
C251 C17 1.382 1_556 S
C265 C31 1.624 . S
C275 C71 1.575 . S
C289 C57 1.302 . S
C299 C97 1.269 . S
C313 C111 1.613 . S
C323 C151 1.599 . S
C337 C177 1.340 . S
C347 C137 1.323 . S
C361 C231 1.590 . S
C371 C191 1.632 . S
C385 C29 1.026 . S
C395 C8 1.076 . S
C409 C48 1.021 . S
C419 C69 1.074 . S
C433 C109 1.056 . S
C443 C88 1.047 . S
C457 C128 1.055 . S
C467 C149 1.050 . S
C481 C168 1.040 . S
C491 C189 1.070 . S
C505 C208 1.034 . S
C515 C229 1.074 . S
C529 C2 1.836 . S
C539 C172 1.829 . S
C553 C52 1.831 . S
C563 C202 1.821 . S
C577 C12 1.828 . S
C587 C82 1.822 . S
C601 C42 1.836 . S
C611 C132 1.826 . S
C625 C162 1.833 . S
C635 C92 1.815 . S
C649 C122 1.834 . S
C659 C212 1.818 . S
