# Generated by pormake.
# Topology lcy-e, (6)-cn, num edge types: 1
# Building blocks:
#     Node 0, Type 0, BuildingBlock: BETDEL_clean_sbu_0, # of connection points: 6
#     Node 1, Type 0, BuildingBlock: BETDEL_clean_sbu_0, # of connection points: 6
#     Node 2, Type 0, BuildingBlock: BETDEL_clean_sbu_0, # of connection points: 6
#     Node 3, Type 0, BuildingBlock: BETDEL_clean_sbu_0, # of connection points: 6
#     Node 4, Type 0, BuildingBlock: BETDEL_clean_sbu_0, # of connection points: 6
#     Node 5, Type 0, BuildingBlock: BETDEL_clean_sbu_0, # of connection points: 6
#     Node 6, Type 0, BuildingBlock: BETDEL_clean_sbu_0, # of connection points: 6
#     Node 7, Type 0, BuildingBlock: BETDEL_clean_sbu_0, # of connection points: 6
#     Node 8, Type 0, BuildingBlock: BETDEL_clean_sbu_0, # of connection points: 6
#     Node 9, Type 0, BuildingBlock: BETDEL_clean_sbu_0, # of connection points: 6
#     Node 10, Type 0, BuildingBlock: BETDEL_clean_sbu_0, # of connection points: 6
#     Node 11, Type 0, BuildingBlock: BETDEL_clean_sbu_0, # of connection points: 6
#     Edge 12, Type (0, 0), BuildingBlock: MIFKUJ_clean_linker_0, # of connection points: 2
#     Edge 13, Type (0, 0), BuildingBlock: MIFKUJ_clean_linker_0, # of connection points: 2
#     Edge 14, Type (0, 0), BuildingBlock: MIFKUJ_clean_linker_0, # of connection points: 2
#     Edge 15, Type (0, 0), BuildingBlock: MIFKUJ_clean_linker_0, # of connection points: 2
#     Edge 16, Type (0, 0), BuildingBlock: MIFKUJ_clean_linker_0, # of connection points: 2
#     Edge 17, Type (0, 0), BuildingBlock: MIFKUJ_clean_linker_0, # of connection points: 2
#     Edge 18, Type (0, 0), BuildingBlock: MIFKUJ_clean_linker_0, # of connection points: 2
#     Edge 19, Type (0, 0), BuildingBlock: MIFKUJ_clean_linker_0, # of connection points: 2
#     Edge 20, Type (0, 0), BuildingBlock: MIFKUJ_clean_linker_0, # of connection points: 2
#     Edge 21, Type (0, 0), BuildingBlock: MIFKUJ_clean_linker_0, # of connection points: 2
#     Edge 22, Type (0, 0), BuildingBlock: MIFKUJ_clean_linker_0, # of connection points: 2
#     Edge 23, Type (0, 0), BuildingBlock: MIFKUJ_clean_linker_0, # of connection points: 2
#     Edge 24, Type (0, 0), BuildingBlock: MIFKUJ_clean_linker_0, # of connection points: 2
#     Edge 25, Type (0, 0), BuildingBlock: MIFKUJ_clean_linker_0, # of connection points: 2
#     Edge 26, Type (0, 0), BuildingBlock: MIFKUJ_clean_linker_0, # of connection points: 2
#     Edge 27, Type (0, 0), BuildingBlock: MIFKUJ_clean_linker_0, # of connection points: 2
#     Edge 28, Type (0, 0), BuildingBlock: MIFKUJ_clean_linker_0, # of connection points: 2
#     Edge 29, Type (0, 0), BuildingBlock: MIFKUJ_clean_linker_0, # of connection points: 2
#     Edge 30, Type (0, 0), BuildingBlock: MIFKUJ_clean_linker_0, # of connection points: 2
#     Edge 31, Type (0, 0), BuildingBlock: MIFKUJ_clean_linker_0, # of connection points: 2
#     Edge 32, Type (0, 0), BuildingBlock: MIFKUJ_clean_linker_0, # of connection points: 2
#     Edge 33, Type (0, 0), BuildingBlock: MIFKUJ_clean_linker_0, # of connection points: 2
#     Edge 34, Type (0, 0), BuildingBlock: MIFKUJ_clean_linker_0, # of connection points: 2
#     Edge 35, Type (0, 0), BuildingBlock: MIFKUJ_clean_linker_0, # of connection points: 2
#     Edge 36, Type (0, 0), BuildingBlock: MIFKUJ_clean_linker_0, # of connection points: 2
#     Edge 37, Type (0, 0), BuildingBlock: MIFKUJ_clean_linker_0, # of connection points: 2
#     Edge 38, Type (0, 0), BuildingBlock: MIFKUJ_clean_linker_0, # of connection points: 2
#     Edge 39, Type (0, 0), BuildingBlock: MIFKUJ_clean_linker_0, # of connection points: 2
#     Edge 40, Type (0, 0), BuildingBlock: MIFKUJ_clean_linker_0, # of connection points: 2
#     Edge 41, Type (0, 0), BuildingBlock: MIFKUJ_clean_linker_0, # of connection points: 2
#     Edge 42, Type (0, 0), BuildingBlock: MIFKUJ_clean_linker_0, # of connection points: 2
#     Edge 43, Type (0, 0), BuildingBlock: MIFKUJ_clean_linker_0, # of connection points: 2
#     Edge 44, Type (0, 0), BuildingBlock: MIFKUJ_clean_linker_0, # of connection points: 2
#     Edge 45, Type (0, 0), BuildingBlock: MIFKUJ_clean_linker_0, # of connection points: 2
#     Edge 46, Type (0, 0), BuildingBlock: MIFKUJ_clean_linker_0, # of connection points: 2
#     Edge 47, Type (0, 0), BuildingBlock: MIFKUJ_clean_linker_0, # of connection points: 2
# Relax obj value: 0.225
# Max RMSD: 0.278
# Mean RMSD: 0.267
data_MOF--net-lcy-e--node1-BETDEL_clean_sbu_0--edge1-MIFKUJ_clean_linker_0
_symmetry_space_group_name_H-M    P1
_symmetry_Int_Tables_number       1
_symmetry_cell_setting            triclinic
loop_
_symmetry_equiv_pos_as_xyz
'x, y, z'
_cell_length_a     48.085921
_cell_length_b     46.750987
_cell_length_c     49.334612
_cell_angle_alpha  90.029717
_cell_angle_beta   91.215486
_cell_angle_gamma 88.751606
loop_
_atom_site_label
_atom_site_type_symbol
_atom_site_fract_x
_atom_site_fract_y
_atom_site_fract_z
_atom_type_partial_charge
Dy0 Dy 0.12387 0.24158 0.45079 0.0
C1 C 0.14511 0.14155 0.51635 0.0
C2 C 0.12039 0.29126 0.42193 0.0
Dy3 Dy 0.14291 0.19107 0.48745 0.0
O4 O 0.09901 0.27629 0.42863 0.0
O5 O 0.14307 0.27956 0.43193 0.0
O6 O 0.10471 0.21117 0.42095 0.0
O7 O 0.10613 0.20036 0.4618 0.0
C8 C 0.09972 0.19134 0.43845 0.0
C9 C 0.17578 0.23703 0.48909 0.0
O10 O 0.16378 0.17921 0.44897 0.0
O11 O 0.16306 0.22496 0.43138 0.0
O12 O 0.15177 0.16644 0.52597 0.0
O13 O 0.13759 0.14376 0.49099 0.0
O14 O 0.18526 0.21112 0.49355 0.0
O15 O 0.14979 0.23662 0.4867 0.0
O16 O 0.10065 0.25352 0.48884 0.0
O17 O 0.11008 0.21132 0.51309 0.0
C18 C 0.17278 0.19823 0.43161 0.0
C19 C 0.09765 0.2369 0.51058 0.0
Dy20 Dy 0.01231 0.87278 0.69759 0.0
C21 C 0.11275 0.86664 0.76602 0.0
C22 C 0.96553 0.88386 0.66669 0.0
Dy23 Dy 0.06341 0.8734 0.73825 0.0
O24 O 0.97487 0.85836 0.67318 0.0
O25 O 0.98107 0.90292 0.67809 0.0
O26 O 0.03665 0.84736 0.66726 0.0
O27 O 0.04683 0.84364 0.7085 0.0
C28 C 0.05483 0.83776 0.68498 0.0
C29 C 0.01998 0.90743 0.7507 0.0
O30 O 0.07983 0.89901 0.70399 0.0
O31 O 0.0389 0.90506 0.67816 0.0
O32 O 0.09511 0.88773 0.76925 0.0
O33 O 0.1035 0.84927 0.74755 0.0
O34 O 0.03648 0.89559 0.76887 0.0
O35 O 0.02897 0.90232 0.72733 0.0
O36 O 0.99564 0.85186 0.73499 0.0
O37 O 0.03831 0.83839 0.75512 0.0
C38 C 0.06552 0.91011 0.68313 0.0
C39 C 0.01078 0.83738 0.75353 0.0
Dy40 Dy 0.37545 0.79559 0.98848 0.0
C41 C 0.3714 0.72961 0.88857 0.0
C42 C 0.37857 0.82565 0.03581 0.0
Dy43 Dy 0.37825 0.75478 0.93809 0.0
O44 O 0.3562 0.82307 0.02086 0.0
O45 O 0.39893 0.81112 0.02527 0.0
O46 O 0.35603 0.83042 0.96246 0.0
O47 O 0.34948 0.78761 0.95245 0.0
C48 C 0.34609 0.81303 0.9444 0.0
C49 C 0.40848 0.73787 0.98165 0.0
O50 O 0.40417 0.79185 0.92525 0.0
O51 O 0.41271 0.81172 0.96783 0.0
O52 O 0.39532 0.73352 0.90067 0.0
O53 O 0.35147 0.73914 0.90362 0.0
O54 O 0.3986 0.71997 0.96386 0.0
O55 O 0.40407 0.76307 0.97351 0.0
O56 O 0.35358 0.7567 0.00329 0.0
O57 O 0.34422 0.73539 0.96141 0.0
C58 C 0.41803 0.80935 0.94165 0.0
C59 C 0.34128 0.73705 0.98802 0.0
Dy60 Dy 0.50459 0.1196 0.19774 0.0
C61 C 0.41058 0.12401 0.26905 0.0
C62 C 0.54395 0.11348 0.15866 0.0
Dy63 Dy 0.45693 0.11168 0.23925 0.0
O64 O 0.52492 0.13354 0.15953 0.0
O65 O 0.54223 0.09714 0.1799 0.0
O66 O 0.48731 0.16332 0.18925 0.0
O67 O 0.46013 0.1299 0.1988 0.0
C68 C 0.46191 0.15631 0.19391 0.0
C69 C 0.50225 0.07704 0.24575 0.0
O70 O 0.44141 0.08292 0.20682 0.0
O71 O 0.48264 0.08008 0.18299 0.0
O72 O 0.42587 0.10077 0.27134 0.0
O73 O 0.42075 0.1404 0.25066 0.0
O74 O 0.47794 0.07064 0.25492 0.0
O75 O 0.50123 0.10247 0.23793 0.0
O76 O 0.52253 0.14366 0.23341 0.0
O77 O 0.48084 0.14852 0.25659 0.0
C78 C 0.4573 0.07097 0.18819 0.0
C79 C 0.50725 0.15527 0.25303 0.0
Dy80 Dy 0.64109 0.27358 0.55793 0.0
C81 C 0.63092 0.36954 0.48469 0.0
C82 C 0.64419 0.22947 0.59428 0.0
Dy83 Dy 0.63975 0.3199 0.51292 0.0
O84 O 0.62451 0.24883 0.5928 0.0
O85 O 0.66186 0.23351 0.57514 0.0
O86 O 0.62298 0.30689 0.58558 0.0
O87 O 0.61179 0.30727 0.54445 0.0
C88 C 0.60885 0.32017 0.56659 0.0
C89 C 0.67091 0.27329 0.50281 0.0
O90 O 0.67114 0.33771 0.54253 0.0
O91 O 0.67899 0.29759 0.5698 0.0
O92 O 0.64343 0.34676 0.47538 0.0
O93 O 0.62338 0.36524 0.50946 0.0
O94 O 0.65859 0.28839 0.48372 0.0
O95 O 0.66807 0.28546 0.52538 0.0
O96 O 0.61709 0.25244 0.52384 0.0
O97 O 0.60321 0.29405 0.50104 0.0
C98 C 0.68507 0.3239 0.56222 0.0
C99 C 0.60216 0.26598 0.50458 0.0
Dy100 Dy 0.95166 0.39379 0.75813 0.0
C101 C 0.0099 0.3756 0.86005 0.0
C102 C 0.92542 0.39284 0.70875 0.0
Dy103 Dy 0.98478 0.37525 0.80986 0.0
O104 O 0.9288 0.41565 0.72341 0.0
O105 O 0.93656 0.37073 0.721 0.0
O106 O 0.93887 0.43539 0.77626 0.0
O107 O 0.94599 0.39952 0.80166 0.0
C108 C 0.94155 0.42632 0.80109 0.0
C109 C 0.99616 0.34603 0.7641 0.0
O110 O 0.94939 0.34609 0.81445 0.0
O111 O 0.92708 0.35647 0.77311 0.0
O112 O 0.98381 0.38148 0.85505 0.0
O113 O 0.02225 0.36897 0.83763 0.0
O114 O 0.99864 0.33439 0.78807 0.0
O115 O 0.99061 0.37214 0.76665 0.0
O116 O 0.9922 0.4155 0.75206 0.0
O117 O 0.00499 0.41601 0.79759 0.0
C118 C 0.92959 0.34152 0.796 0.0
C119 C 0.00811 0.42499 0.77236 0.0
Dy120 Dy 0.87398 0.74515 0.0585 0.0
C121 C 0.86919 0.64712 0.98685 0.0
C122 C 0.86781 0.79129 0.09189 0.0
Dy123 Dy 0.86392 0.69563 0.01735 0.0
O124 O 0.89147 0.77921 0.08586 0.0
O125 O 0.84767 0.77852 0.07922 0.0
O126 O 0.91314 0.72465 0.07505 0.0
O127 O 0.88189 0.69897 0.05818 0.0
C128 C 0.90687 0.69929 0.06656 0.0
C129 C 0.8329 0.74369 0.00929 0.0
O130 O 0.83216 0.68421 0.04743 0.0
O131 O 0.83493 0.72551 0.07375 0.0
O132 O 0.86712 0.67296 0.97719 0.0
O133 O 0.86802 0.64781 0.01309 0.0
O134 O 0.82466 0.71858 0.00145 0.0
O135 O 0.85763 0.74168 0.01768 0.0
O136 O 0.89787 0.75909 0.02237 0.0
O137 O 0.90517 0.71325 0.0057 0.0
C138 C 0.82312 0.70098 0.06716 0.0
C139 C 0.91117 0.74081 0.00623 0.0
Dy140 Dy 0.54263 0.61935 0.25081 0.0
C141 C 0.47432 0.62083 0.34385 0.0
C142 C 0.57639 0.62782 0.20791 0.0
Dy143 Dy 0.50401 0.62922 0.29821 0.0
O144 O 0.57369 0.60359 0.22035 0.0
O145 O 0.5598 0.647 0.21822 0.0
O146 O 0.55986 0.57919 0.26932 0.0
O147 O 0.54665 0.61275 0.29477 0.0
C148 C 0.55506 0.58695 0.29406 0.0
C149 C 0.49073 0.65904 0.25275 0.0
O150 O 0.53715 0.65908 0.3112 0.0
O151 O 0.55777 0.66066 0.26923 0.0
O152 O 0.47199 0.64336 0.32849 0.0
O153 O 0.49279 0.60314 0.3343 0.0
O154 O 0.48554 0.66867 0.2769 0.0
O155 O 0.50008 0.63394 0.25459 0.0
O156 O 0.50696 0.59209 0.23698 0.0
O157 O 0.48761 0.58873 0.27949 0.0
C158 C 0.55444 0.67076 0.29412 0.0
C159 C 0.48944 0.58008 0.25393 0.0
Dy160 Dy 0.22664 0.42445 0.12708 0.0
C161 C 0.1356 0.50604 0.1145 0.0
C162 C 0.26787 0.38524 0.13923 0.0
Dy163 Dy 0.18039 0.47189 0.12834 0.0
O164 O 0.25253 0.38535 0.11727 0.0
O165 O 0.26109 0.40691 0.15437 0.0
O166 O 0.2094 0.40846 0.08791 0.0
O167 O 0.18218 0.42699 0.11627 0.0
C168 C 0.18415 0.41729 0.09242 0.0
C169 C 0.22594 0.48107 0.15989 0.0
O170 O 0.16339 0.44201 0.15875 0.0
O171 O 0.20411 0.41505 0.16554 0.0
O172 O 0.14937 0.50717 0.13742 0.0
O173 O 0.14643 0.48642 0.0991 0.0
O174 O 0.2017 0.49254 0.16502 0.0
O175 O 0.22447 0.46901 0.13734 0.0
O176 O 0.24564 0.4579 0.10075 0.0
O177 O 0.2047 0.48396 0.09152 0.0
C178 C 0.17873 0.42319 0.17285 0.0
C179 C 0.23127 0.47779 0.08665 0.0
Dy180 Dy 0.69319 0.00212 0.85922 0.0
C181 C 0.75506 0.10615 0.85985 0.0
C182 C 0.66219 0.95441 0.86517 0.0
Dy183 Dy 0.72815 0.0563 0.86901 0.0
O184 O 0.66414 0.96886 0.84285 0.0
O185 O 0.67758 0.96574 0.88404 0.0
O186 O 0.68176 0.01706 0.81764 0.0
O187 O 0.68856 0.04745 0.84859 0.0
C188 C 0.68426 0.04396 0.82342 0.0
C189 C 0.73876 0.01215 0.90271 0.0
O190 O 0.69361 0.06768 0.89668 0.0
O191 O 0.67242 0.02334 0.89488 0.0
O192 O 0.76328 0.08651 0.87704 0.0
O193 O 0.73192 0.09876 0.84805 0.0
O194 O 0.74229 0.03863 0.91007 0.0
O195 O 0.7328 0.01116 0.87788 0.0
O196 O 0.73271 0.98821 0.83901 0.0
O197 O 0.7495 0.03415 0.83425 0.0
C198 C 0.67532 0.04923 0.9056 0.0
C199 C 0.75027 0.00643 0.8282 0.0
Dy200 Dy 0.76323 0.94303 0.38835 0.0
C201 C 0.86135 0.0144 0.39322 0.0
C202 C 0.71834 0.9099 0.37639 0.0
Dy203 Dy 0.81376 0.98407 0.38441 0.0
O204 O 0.72875 0.91398 0.40057 0.0
O205 O 0.73202 0.9245 0.35893 0.0
O206 O 0.77898 0.92396 0.4272 0.0
O207 O 0.80748 0.94087 0.39992 0.0
C208 C 0.80441 0.93163 0.42377 0.0
C209 C 0.76999 0.99495 0.35068 0.0
O210 O 0.82649 0.95226 0.35304 0.0
O211 O 0.78505 0.92726 0.35129 0.0
O212 O 0.83783 0.02509 0.38398 0.0
O213 O 0.85887 0.98719 0.3975 0.0
O214 O 0.79535 0.00138 0.34469 0.0
O215 O 0.76954 0.98609 0.37463 0.0
O216 O 0.74838 0.98095 0.41231 0.0
O217 O 0.79237 0.99835 0.42252 0.0
C218 C 0.80991 0.93308 0.34181 0.0
C219 C 0.76518 0.99762 0.4268 0.0
Dy220 Dy 0.31467 0.50427 0.63089 0.0
C221 C 0.23959 0.602 0.62658 0.0
C222 C 0.35007 0.45869 0.62426 0.0
Dy223 Dy 0.27186 0.5538 0.62077 0.0
O224 O 0.34571 0.47165 0.64713 0.0
O225 O 0.33446 0.47015 0.60524 0.0
O226 O 0.33255 0.52538 0.66773 0.0
O227 O 0.31449 0.55056 0.6364 0.0
C228 C 0.32377 0.55072 0.66051 0.0
C229 C 0.26319 0.5056 0.5924 0.0
O230 O 0.3015 0.56527 0.58879 0.0
O231 O 0.3292 0.52387 0.59215 0.0
O232 O 0.23038 0.5771 0.61951 0.0
O233 O 0.26641 0.60064 0.63003 0.0
O234 O 0.25556 0.53083 0.5834 0.0
O235 O 0.2721 0.50753 0.61642 0.0
O236 O 0.27986 0.49091 0.65733 0.0
O237 O 0.2615 0.53691 0.66179 0.0
C238 C 0.3219 0.54837 0.58009 0.0
C239 C 0.26366 0.5099 0.66985 0.0
H240 H 0.22931 0.24308 0.50869 0.0
H241 H 0.25162 0.28806 0.52189 0.0
H242 H 0.17912 0.33579 0.49326 0.0
H243 H 0.15639 0.29129 0.48141 0.0
H244 H 0.23416 0.36062 0.48069 0.0
H245 H 0.18118 0.31803 0.55353 0.0
H246 H 0.17159 0.27926 0.58565 0.0
H247 H 0.25401 0.2856 0.62001 0.0
H248 H 0.26429 0.32395 0.58761 0.0
H249 H 0.23233 0.49545 0.54618 0.0
H250 H 0.2233 0.44906 0.5251 0.0
H251 H 0.27711 0.40761 0.58509 0.0
H252 H 0.28361 0.45337 0.60759 0.0
H253 H 0.23781 0.37677 0.58004 0.0
H254 H 0.29318 0.41878 0.51327 0.0
H255 H 0.3085 0.45528 0.48112 0.0
H256 H 0.23224 0.44767 0.43513 0.0
H257 H 0.21615 0.41151 0.4673 0.0
C258 C 0.21839 0.26322 0.50482 0.0
C259 C 0.19118 0.26369 0.49385 0.0
C260 C 0.23116 0.28885 0.51227 0.0
C261 C 0.21704 0.31524 0.50839 0.0
C262 C 0.19051 0.31572 0.4961 0.0
C263 C 0.17756 0.29021 0.48929 0.0
C264 C 0.22805 0.34212 0.51994 0.0
C265 C 0.23505 0.36432 0.50239 0.0
C266 C 0.23 0.34647 0.54826 0.0
C267 C 0.2236 0.32362 0.5679 0.0
C268 C 0.19735 0.31096 0.56774 0.0
C269 C 0.19178 0.28908 0.58602 0.0
C270 C 0.2122 0.27993 0.60483 0.0
C271 C 0.23822 0.29267 0.6054 0.0
C272 C 0.24393 0.31445 0.58706 0.0
C273 C 0.24226 0.47639 0.55472 0.0
C274 C 0.25897 0.47806 0.5783 0.0
C275 C 0.23736 0.44983 0.5425 0.0
C276 C 0.24997 0.42457 0.55303 0.0
C277 C 0.26706 0.42654 0.5764 0.0
C278 C 0.27109 0.45285 0.58912 0.0
C279 C 0.24412 0.39593 0.54085 0.0
C280 C 0.23772 0.3733 0.5583 0.0
C281 C 0.24376 0.39095 0.51245 0.0
C282 C 0.25334 0.41259 0.49289 0.0
C283 C 0.27956 0.42503 0.49642 0.0
C284 C 0.28839 0.44567 0.47819 0.0
C285 C 0.27131 0.45385 0.45615 0.0
C286 C 0.2454 0.44135 0.45226 0.0
C287 C 0.23642 0.42077 0.47049 0.0
H288 H 0.27818 0.46983 0.44207 0.0
H289 H 0.20783 0.26303 0.619 0.0
H290 H 0.78819 0.0377 0.80139 0.0
H291 H 0.83222 0.02085 0.78304 0.0
H292 H 0.81162 0.93384 0.80169 0.0
H293 H 0.76729 0.95055 0.82035 0.0
H294 H 0.87248 0.99369 0.81402 0.0
H295 H 0.84719 0.89046 0.75469 0.0
H296 H 0.80889 0.87057 0.72702 0.0
H297 H 0.78046 0.95547 0.70566 0.0
H298 H 0.81881 0.97585 0.73287 0.0
H299 H 0.99175 0.90317 0.79768 0.0
H300 H 0.9443 0.92026 0.80653 0.0
H301 H 0.93736 0.9545 0.72543 0.0
H302 H 0.98526 0.93827 0.71685 0.0
H303 H 0.8902 0.9225 0.74143 0.0
H304 H 0.94733 0.99951 0.7732 0.0
H305 H 0.98574 0.02079 0.79966 0.0
H306 H 0.95012 0.99171 0.87354 0.0
H307 H 0.91168 0.9699 0.84747 0.0
C308 C 0.79271 0.0149 0.80125 0.0
C309 C 0.7743 0.99549 0.81267 0.0
C310 C 0.81796 0.00534 0.79076 0.0
C311 C 0.82527 0.97616 0.79118 0.0
C312 C 0.8063 0.95647 0.80106 0.0
C313 C 0.78096 0.96606 0.81171 0.0
C314 C 0.85371 0.96683 0.78351 0.0
C315 C 0.87631 0.97813 0.79812 0.0
C316 C 0.85872 0.94667 0.76269 0.0
C317 C 0.83571 0.93466 0.74607 0.0
C318 C 0.83282 0.90488 0.74402 0.0
C319 C 0.81109 0.89352 0.72842 0.0
C320 C 0.7922 0.91175 0.71467 0.0
C321 C 0.79504 0.94137 0.71642 0.0
C322 C 0.81674 0.95284 0.73197 0.0
C323 C 0.98018 0.91454 0.78181 0.0
C324 C 0.99194 0.91905 0.7564 0.0
C325 C 0.95306 0.92414 0.78684 0.0
C326 C 0.9373 0.93846 0.76656 0.0
C327 C 0.94908 0.94315 0.74121 0.0
C328 C 0.97632 0.93377 0.73628 0.0
C329 C 0.90878 0.94919 0.77214 0.0
C330 C 0.88625 0.93806 0.75729 0.0
C331 C 0.90376 0.96967 0.79264 0.0
C332 C 0.92678 0.98286 0.80837 0.0
C333 C 0.94781 0.99745 0.79507 0.0
C334 C 0.96956 0.00965 0.81 0.0
C335 C 0.97041 0.00754 0.83826 0.0
C336 C 0.94946 0.99329 0.85165 0.0
C337 C 0.92767 0.98104 0.83681 0.0
H338 H 0.98726 0.017 0.84979 0.0
H339 H 0.77539 0.90291 0.70261 0.0
H340 H 0.29855 0.70636 0.96702 0.0
H341 H 0.28008 0.66206 0.98511 0.0
H342 H 0.33406 0.669 0.05563 0.0
H343 H 0.35212 0.71388 0.03797 0.0
H344 H 0.33694 0.6145 0.02395 0.0
H345 H 0.27209 0.67808 0.0678 0.0
H346 H 0.23752 0.71771 0.06967 0.0
H347 H 0.18412 0.67338 0.01369 0.0
H348 H 0.21859 0.63365 0.01117 0.0
H349 H 0.28363 0.49648 0.09638 0.0
H350 H 0.30338 0.54019 0.07893 0.0
H351 H 0.23262 0.55133 0.02429 0.0
H352 H 0.21209 0.50835 0.04291 0.0
H353 H 0.23937 0.59786 0.0493 0.0
H354 H 0.30272 0.53528 0.00325 0.0
H355 H 0.33704 0.49575 0.99838 0.0
H356 H 0.39285 0.53736 0.05405 0.0
H357 H 0.3587 0.57698 0.05953 0.0
C358 C 0.306 0.6988 0.98668 0.0
C359 C 0.32668 0.71355 0.00115 0.0
C360 C 0.2955 0.67349 0.99693 0.0
C361 C 0.30585 0.66228 0.02158 0.0
C362 C 0.32588 0.67738 0.03653 0.0
C363 C 0.33596 0.70309 0.02656 0.0
C364 C 0.29673 0.63394 0.03074 0.0
C365 C 0.31574 0.61079 0.02995 0.0
C366 C 0.26886 0.62918 0.03756 0.0
C367 C 0.24806 0.65301 0.0391 0.0
C368 C 0.2531 0.67689 0.05569 0.0
C369 C 0.23349 0.69935 0.05691 0.0
C370 C 0.20867 0.6981 0.04176 0.0
C371 C 0.20337 0.67434 0.0254 0.0
C372 C 0.22293 0.65183 0.02408 0.0
C373 C 0.27275 0.50771 0.07999 0.0
C374 C 0.24639 0.49898 0.07087 0.0
C375 C 0.28406 0.53281 0.07002 0.0
C376 C 0.26958 0.54918 0.05018 0.0
C377 C 0.24413 0.53926 0.03972 0.0
C378 C 0.23252 0.51455 0.05015 0.0
C379 C 0.2795 0.5779 0.04228 0.0
C380 C 0.26062 0.60128 0.04332 0.0
C381 C 0.30743 0.58275 0.03526 0.0
C382 C 0.32803 0.55897 0.03199 0.0
C383 C 0.32222 0.53589 0.01461 0.0
C384 C 0.34166 0.51349 0.01171 0.0
C385 C 0.36708 0.51401 0.02595 0.0
C386 C 0.37314 0.53697 0.04306 0.0
C387 C 0.35376 0.55942 0.04605 0.0
H388 H 0.3821 0.49664 0.02367 0.0
H389 H 0.19351 0.71551 0.04273 0.0
H390 H 0.53195 0.08893 0.29117 0.0
H391 H 0.57964 0.07301 0.30261 0.0
H392 H 0.58112 0.02147 0.22997 0.0
H393 H 0.53299 0.03702 0.219 0.0
H394 H 0.60717 0.99324 0.26803 0.0
H395 H 0.61369 0.08594 0.23313 0.0
H396 H 0.60647 0.13773 0.22573 0.0
H397 H 0.63537 0.15455 0.30701 0.0
H398 H 0.64226 0.10282 0.31511 0.0
H399 H 0.76505 0.02336 0.30195 0.0
H400 H 0.7217 0.03498 0.27636 0.0
H401 H 0.67473 0.99081 0.3363 0.0
H402 H 0.71742 0.98004 0.3621 0.0
H403 H 0.67596 0.06665 0.29375 0.0
H404 H 0.62484 0.95479 0.3047 0.0
H405 H 0.63956 0.90408 0.30084 0.0
H406 H 0.70681 0.92725 0.25017 0.0
H407 H 0.69282 0.97811 0.25389 0.0
C408 C 0.54227 0.07353 0.27816 0.0
C409 C 0.52874 0.06349 0.25468 0.0
C410 C 0.56965 0.06482 0.2844 0.0
C411 C 0.58424 0.04633 0.26696 0.0
C412 C 0.57036 0.03568 0.24379 0.0
C413 C 0.54286 0.04436 0.23761 0.0
C414 C 0.61397 0.03844 0.27292 0.0
C415 C 0.62211 0.00938 0.27361 0.0
C416 C 0.63412 0.05939 0.27891 0.0
C417 C 0.62834 0.09043 0.27478 0.0
C418 C 0.61816 0.10064 0.24956 0.0
C419 C 0.61427 0.13 0.24519 0.0
C420 C 0.62065 0.14942 0.26583 0.0
C421 C 0.63059 0.13949 0.29099 0.0
C422 C 0.63445 0.11014 0.2955 0.0
C423 C 0.74546 0.01599 0.30946 0.0
C424 C 0.74462 0.00066 0.33392 0.0
C425 C 0.72076 0.02265 0.29489 0.0
C426 C 0.69502 0.01352 0.30431 0.0
C427 C 0.69435 0.99773 0.32843 0.0
C428 C 0.71882 0.99158 0.34317 0.0
C429 C 0.66841 0.02166 0.29021 0.0
C430 C 0.66088 0.05068 0.28803 0.0
C431 C 0.64929 0.00084 0.28158 0.0
C432 C 0.65778 0.97025 0.27962 0.0
C433 C 0.64268 0.94906 0.29264 0.0
C434 C 0.65087 0.92029 0.29044 0.0
C435 C 0.67382 0.91242 0.275 0.0
C436 C 0.68896 0.93335 0.26203 0.0
C437 C 0.68101 0.96216 0.2643 0.0
H438 H 0.68002 0.89011 0.27326 0.0
H439 H 0.61768 0.17215 0.26238 0.0
H440 H 0.70617 0.243 0.53637 0.0
H441 H 0.72158 0.19283 0.53142 0.0
H442 H 0.67218 0.18632 0.45775 0.0
H443 H 0.65715 0.23646 0.46237 0.0
H444 H 0.66758 0.13921 0.49807 0.0
H445 H 0.73587 0.195 0.44966 0.0
H446 H 0.77054 0.23302 0.44769 0.0
H447 H 0.81811 0.19259 0.51218 0.0
H448 H 0.78349 0.15451 0.51477 0.0
H449 H 0.71381 0.02244 0.42139 0.0
H450 H 0.69725 0.06612 0.44298 0.0
H451 H 0.77198 0.06759 0.49308 0.0
H452 H 0.78941 0.02455 0.47012 0.0
H453 H 0.76509 0.11642 0.47351 0.0
H454 H 0.70304 0.05703 0.5189 0.0
H455 H 0.66875 0.01927 0.5251 0.0
H456 H 0.61009 0.06497 0.47351 0.0
H457 H 0.64415 0.10282 0.46666 0.0
C458 C 0.69874 0.23081 0.5191 0.0
C459 C 0.68079 0.24353 0.49956 0.0
C460 C 0.70745 0.20225 0.51636 0.0
C461 C 0.69797 0.186 0.49424 0.0
C462 C 0.67966 0.19857 0.47496 0.0
C463 C 0.67136 0.22723 0.47745 0.0
C464 C 0.70788 0.15615 0.49051 0.0
C465 C 0.68883 0.13404 0.49257 0.0
C466 C 0.73589 0.14956 0.48458 0.0
C467 C 0.75696 0.17211 0.48261 0.0
C468 C 0.75363 0.19434 0.46355 0.0
C469 C 0.77328 0.21588 0.4623 0.0
C470 C 0.79647 0.21528 0.47986 0.0
C471 C 0.80012 0.19306 0.49863 0.0
C472 C 0.7805 0.17148 0.49997 0.0
C473 C 0.7264 0.03161 0.43752 0.0
C474 C 0.7529 0.02013 0.44407 0.0
C475 C 0.71683 0.05663 0.45001 0.0
C476 C 0.73316 0.0702 0.46997 0.0
C477 C 0.75898 0.05768 0.4777 0.0
C478 C 0.76888 0.033 0.46469 0.0
C479 C 0.7246 0.09893 0.48034 0.0
C480 C 0.7439 0.12108 0.47953 0.0
C481 C 0.69692 0.1054 0.48807 0.0
C482 C 0.67626 0.08272 0.49215 0.0
C483 C 0.6829 0.05895 0.50872 0.0
C484 C 0.66348 0.03754 0.51237 0.0
C485 C 0.63728 0.0397 0.49968 0.0
C486 C 0.6304 0.06332 0.48334 0.0
C487 C 0.64974 0.08479 0.4796 0.0
H488 H 0.62228 0.02309 0.50253 0.0
H489 H 0.81164 0.232 0.4789 0.0
H490 H 0.04772 0.44371 0.80833 0.0
H491 H 0.0931 0.46262 0.79778 0.0
H492 H 0.07133 0.4616 0.71253 0.0
H493 H 0.0258 0.44263 0.72281 0.0
H494 H 0.13222 0.43443 0.76803 0.0
H495 H 0.10558 0.51543 0.68169 0.0
H496 H 0.06826 0.55019 0.66891 0.0
H497 H 0.04599 0.55869 0.75239 0.0
H498 H 0.08341 0.52432 0.76572 0.0
H499 H 0.2418 0.45684 0.67571 0.0
H500 H 0.20053 0.44538 0.7014 0.0
H501 H 0.19885 0.53068 0.73491 0.0
H502 H 0.23967 0.54239 0.70887 0.0
H503 H 0.15081 0.51959 0.7119 0.0
H504 H 0.21191 0.47134 0.77521 0.0
H505 H 0.24967 0.438 0.79001 0.0
H506 H 0.20428 0.36727 0.75746 0.0
H507 H 0.1664 0.40023 0.74213 0.0
C508 C 0.0523 0.44799 0.78734 0.0
C509 C 0.03317 0.44142 0.76636 0.0
C510 C 0.07833 0.45868 0.78138 0.0
C511 C 0.08559 0.46334 0.75441 0.0
C512 C 0.06603 0.45829 0.73352 0.0
C513 C 0.04 0.44747 0.73943 0.0
C514 C 0.11423 0.47154 0.74792 0.0
C515 C 0.13638 0.45315 0.75592 0.0
C516 C 0.11958 0.49616 0.73246 0.0
C517 C 0.09717 0.51709 0.72466 0.0
C518 C 0.0928 0.52481 0.69733 0.0
C519 C 0.07161 0.54443 0.68999 0.0
C520 C 0.05471 0.55658 0.70982 0.0
C521 C 0.05902 0.54919 0.73704 0.0
C522 C 0.08019 0.5296 0.7445 0.0
C523 C 0.23316 0.47281 0.68923 0.0
C524 C 0.24374 0.50056 0.69014 0.0
C525 C 0.20954 0.46627 0.70389 0.0
C526 C 0.19652 0.48725 0.71996 0.0
C527 C 0.20842 0.51427 0.72246 0.0
C528 C 0.23179 0.52088 0.70765 0.0
C529 C 0.16889 0.4822 0.73159 0.0
C530 C 0.14682 0.50107 0.72436 0.0
C531 C 0.16371 0.45822 0.74805 0.0
C532 C 0.18639 0.4383 0.75736 0.0
C533 C 0.21006 0.4487 0.77104 0.0
C534 C 0.23147 0.42986 0.77956 0.0
C535 C 0.22939 0.40054 0.77464 0.0
C536 C 0.20586 0.38999 0.76125 0.0
C537 C 0.1844 0.40874 0.75268 0.0
H538 H 0.246 0.386 0.78124 0.0
H539 H 0.03832 0.57176 0.70409 0.0
H540 H 0.73127 0.95722 0.88748 0.0
H541 H 0.74172 0.91383 0.91333 0.0
H542 H 0.77128 0.96451 0.98059 0.0
H543 H 0.75938 0.00861 0.95508 0.0
H544 H 0.80925 0.91856 0.95625 0.0
H545 H 0.71931 0.93316 0.99429 0.0
H546 H 0.66877 0.9432 0.99259 0.0
H547 H 0.6562 0.86726 0.94534 0.0
H548 H 0.70677 0.85698 0.94636 0.0
H549 H 0.84754 0.79546 0.02867 0.0
H550 H 0.82707 0.84212 0.01758 0.0
H551 H 0.76737 0.80209 0.96399 0.0
H552 H 0.78676 0.7548 0.97679 0.0
H553 H 0.74305 0.84559 0.98617 0.0
H554 H 0.82939 0.83414 0.94053 0.0
H555 H 0.87949 0.82477 0.93477 0.0
H556 H 0.89854 0.89406 0.98879 0.0
H557 H 0.8484 0.90383 0.99486 0.0
C558 C 0.73927 0.95928 0.90804 0.0
C559 C 0.74422 0.98634 0.91939 0.0
C560 C 0.74528 0.93441 0.92275 0.0
C561 C 0.75698 0.93601 0.94891 0.0
C562 C 0.76197 0.96295 0.96048 0.0
C563 C 0.75527 0.98803 0.94592 0.0
C564 C 0.76634 0.90928 0.96266 0.0
C565 C 0.79489 0.90285 0.96353 0.0
C566 C 0.74736 0.88843 0.97081 0.0
C567 C 0.7169 0.89439 0.97028 0.0
C568 C 0.70582 0.91871 0.98335 0.0
C569 C 0.67715 0.92441 0.98256 0.0
C570 C 0.65929 0.90585 0.96892 0.0
C571 C 0.67007 0.88156 0.95598 0.0
C572 C 0.69874 0.87578 0.95667 0.0
C573 C 0.82964 0.7965 0.015 0.0
C574 C 0.8187 0.77147 0.00365 0.0
C575 C 0.81815 0.82329 0.00837 0.0
C576 C 0.79612 0.82585 0.98934 0.0
C577 C 0.78446 0.80077 0.97863 0.0
C578 C 0.79557 0.77375 0.98587 0.0
C579 C 0.78622 0.85469 0.97986 0.0
C580 C 0.75756 0.86142 0.97948 0.0
C581 C 0.80505 0.87572 0.97143 0.0
C582 C 0.83519 0.86947 0.96841 0.0
C583 C 0.84427 0.84719 0.95139 0.0
C584 C 0.87269 0.84187 0.94802 0.0
C585 C 0.89224 0.85873 0.96154 0.0
C586 C 0.88338 0.88098 0.97839 0.0
C587 C 0.85497 0.88646 0.98176 0.0
H588 H 0.91424 0.85467 0.95891 0.0
H589 H 0.6371 0.91031 0.96834 0.0
H590 H 0.47201 0.57287 0.20107 0.0
H591 H 0.42841 0.5515 0.18557 0.0
H592 H 0.41216 0.52524 0.26742 0.0
H593 H 0.45568 0.54616 0.28298 0.0
H594 H 0.39437 0.48573 0.23106 0.0
H595 H 0.38681 0.58828 0.24366 0.0
H596 H 0.40002 0.63817 0.2354 0.0
H597 H 0.37959 0.62885 0.15077 0.0
H598 H 0.36671 0.57871 0.15843 0.0
H599 H 0.23626 0.51928 0.20127 0.0
H600 H 0.28222 0.53309 0.21941 0.0
H601 H 0.32187 0.47311 0.1653 0.0
H602 H 0.27666 0.45972 0.14708 0.0
H603 H 0.32688 0.55609 0.19032 0.0
H604 H 0.37722 0.44306 0.19767 0.0
H605 H 0.3633 0.39363 0.20733 0.0
H606 H 0.2965 0.42543 0.256 0.0
H607 H 0.30998 0.47502 0.24673 0.0
C608 C 0.45957 0.56182 0.21563 0.0
C609 C 0.46713 0.56155 0.24332 0.0
C610 C 0.43454 0.54981 0.20678 0.0
C611 C 0.41675 0.53734 0.22546 0.0
C612 C 0.42545 0.53492 0.25268 0.0
C613 C 0.45035 0.54696 0.26155 0.0
C614 C 0.38807 0.52919 0.21737 0.0
C615 C 0.37968 0.50107 0.22204 0.0
C616 C 0.36867 0.54939 0.20613 0.0
C617 C 0.37597 0.57968 0.20159 0.0
C618 C 0.38526 0.59682 0.22326 0.0
C619 C 0.39268 0.62514 0.21869 0.0
C620 C 0.39058 0.63668 0.19259 0.0
C621 C 0.38114 0.61989 0.17099 0.0
C622 C 0.37378 0.59152 0.17543 0.0
C623 C 0.25482 0.50889 0.19355 0.0
C624 C 0.25285 0.48823 0.17296 0.0
C625 C 0.281 0.51686 0.20378 0.0
C626 C 0.30542 0.50395 0.19381 0.0
C627 C 0.30333 0.48308 0.17354 0.0
C628 C 0.27738 0.47538 0.1632 0.0
C629 C 0.33334 0.51259 0.20375 0.0
C630 C 0.3416 0.54077 0.19934 0.0
C631 C 0.35254 0.49254 0.21544 0.0
C632 C 0.34456 0.46275 0.22141 0.0
C633 C 0.35966 0.4395 0.21056 0.0
C634 C 0.35185 0.41146 0.21594 0.0
C635 C 0.32914 0.40641 0.23235 0.0
C636 C 0.3141 0.42938 0.24331 0.0
C637 C 0.32176 0.45745 0.23793 0.0
H638 H 0.32316 0.38468 0.23649 0.0
H639 H 0.39625 0.65863 0.18911 0.0
H640 H 0.56239 0.15544 0.26765 0.0
H641 H 0.58216 0.17262 0.31093 0.0
H642 H 0.5017 0.20681 0.33249 0.0
H643 H 0.48206 0.1904 0.28938 0.0
H644 H 0.5807 0.22922 0.34012 0.0
H645 H 0.49028 0.1769 0.39448 0.0
H646 H 0.45785 0.1373 0.38715 0.0
H647 H 0.51886 0.09229 0.34013 0.0
H648 H 0.5517 0.13153 0.34728 0.0
H649 H 0.56298 0.28585 0.46836 0.0
H650 H 0.54929 0.26328 0.42576 0.0
H651 H 0.59553 0.18672 0.44866 0.0
H652 H 0.60969 0.2093 0.49155 0.0
H653 H 0.54111 0.17906 0.4188 0.0
H654 H 0.629 0.22594 0.41244 0.0
H655 H 0.66046 0.26631 0.41996 0.0
H656 H 0.60644 0.32071 0.37132 0.0
H657 H 0.5745 0.28075 0.36371 0.0
C658 C 0.54927 0.16758 0.28119 0.0
C659 C 0.52073 0.17144 0.27522 0.0
C660 C 0.5605 0.17716 0.30591 0.0
C661 C 0.54323 0.19048 0.32493 0.0
C662 C 0.51525 0.19626 0.31813 0.0
C663 C 0.5041 0.1869 0.29347 0.0
C664 C 0.55344 0.19612 0.35283 0.0
C665 C 0.57231 0.21811 0.35731 0.0
C666 C 0.54269 0.18127 0.37517 0.0
C667 C 0.52336 0.15724 0.3713 0.0
C668 C 0.49681 0.15849 0.38269 0.0
C669 C 0.47834 0.13615 0.37849 0.0
C670 C 0.48625 0.11236 0.36308 0.0
C671 C 0.5127 0.11082 0.3519 0.0
C672 C 0.53123 0.13312 0.35598 0.0
C673 C 0.56969 0.26394 0.46474 0.0
C674 C 0.58772 0.24949 0.48318 0.0
C675 C 0.56189 0.25112 0.44034 0.0
C676 C 0.57187 0.22362 0.43396 0.0
C677 C 0.58775 0.20805 0.45329 0.0
C678 C 0.59568 0.22094 0.47782 0.0
C679 C 0.56779 0.21267 0.40609 0.0
C680 C 0.54996 0.18979 0.40161 0.0
C681 C 0.5797 0.22654 0.38375 0.0
C682 C 0.59928 0.25039 0.38763 0.0
C683 C 0.62376 0.24655 0.40345 0.0
C684 C 0.64168 0.26935 0.40773 0.0
C685 C 0.63539 0.29607 0.39621 0.0
C686 C 0.61127 0.3 0.38024 0.0
C687 C 0.59328 0.27726 0.37588 0.0
H688 H 0.64925 0.31371 0.39961 0.0
H689 H 0.47192 0.0951 0.35985 0.0
H690 H 0.06874 0.28829 0.5167 0.0
H691 H 0.04653 0.30639 0.55782 0.0
H692 H 0.06989 0.22825 0.59972 0.0
H693 H 0.09093 0.20974 0.55889 0.0
H694 H 0.02086 0.24366 0.61502 0.0
H695 H 0.10793 0.29394 0.60523 0.0
H696 H 0.14056 0.32513 0.58205 0.0
H697 H 0.07891 0.39282 0.57899 0.0
H698 H 0.04576 0.362 0.60207 0.0
H699 H 0.01594 0.29134 0.75337 0.0
H700 H 0.02934 0.27194 0.70901 0.0
H701 H 0.00434 0.35183 0.671 0.0
H702 H 0.99224 0.3714 0.71489 0.0
H703 H 0.05159 0.3364 0.65258 0.0
H704 H 0.96561 0.28896 0.665 0.0
H705 H 0.93243 0.25936 0.68933 0.0
H706 H 0.98989 0.18783 0.6872 0.0
H707 H 0.02361 0.21714 0.6632 0.0
C708 C 0.06883 0.27484 0.53457 0.0
C709 C 0.08184 0.2476 0.53436 0.0
C710 C 0.05629 0.2853 0.55819 0.0
C711 C 0.05693 0.26894 0.5822 0.0
C712 C 0.06906 0.2414 0.58162 0.0
C713 C 0.08124 0.23086 0.55809 0.0
C714 C 0.04607 0.28048 0.60831 0.0
C715 C 0.02776 0.26387 0.6233 0.0
C716 C 0.0544 0.30715 0.61904 0.0
C717 C 0.07429 0.32557 0.60508 0.0
C718 C 0.10127 0.3154 0.59945 0.0
C719 C 0.11987 0.33302 0.58636 0.0
C720 C 0.11182 0.36087 0.57893 0.0
C721 C 0.08512 0.37122 0.58469 0.0
C722 C 0.06642 0.35371 0.5978 0.0
C723 C 0.01321 0.30459 0.73547 0.0
C724 C 0.00292 0.33283 0.73764 0.0
C725 C 0.02072 0.29349 0.71009 0.0
C726 C 0.01768 0.31033 0.68646 0.0
C727 C 0.00702 0.33836 0.68877 0.0
C728 C 0.9999 0.34948 0.71398 0.0
C729 C 0.02653 0.29954 0.6594 0.0
C730 C 0.0445 0.31628 0.64425 0.0
C731 C 0.01766 0.27316 0.64849 0.0
C732 C 0.99725 0.25533 0.66252 0.0
C733 C 0.97125 0.26697 0.66986 0.0
C734 C 0.95233 0.25024 0.68358 0.0
C735 C 0.95908 0.22175 0.68987 0.0
C736 C 0.98471 0.20991 0.68235 0.0
C737 C 0.00372 0.22656 0.66866 0.0
H738 H 0.94442 0.20884 0.70052 0.0
H739 H 0.1263 0.37444 0.56879 0.0
H740 H 0.0293 0.7896 0.78013 0.0
H741 H 0.01209 0.77087 0.82282 0.0
H742 H 0.9454 0.83406 0.82086 0.0
H743 H 0.96209 0.85242 0.77765 0.0
H744 H 0.98284 0.833 0.86928 0.0
H745 H 0.92689 0.77112 0.81347 0.0
H746 H 0.91857 0.73539 0.7776 0.0
H747 H 0.97271 0.67511 0.81945 0.0
H748 H 0.98173 0.71066 0.85536 0.0
H749 H 0.90779 0.79385 0.9837 0.0
H750 H 0.92706 0.80843 0.94078 0.0
H751 H 0.97143 0.72761 0.93496 0.0
H752 H 0.95102 0.7122 0.97745 0.0
H753 H 0.94713 0.73689 0.88993 0.0
H754 H 0.00417 0.79617 0.9454 0.0
H755 H 0.01503 0.83085 0.98157 0.0
H756 H 0.9637 0.89468 0.94122 0.0
H757 H 0.95224 0.86028 0.90497 0.0
C758 C 0.01049 0.79895 0.78842 0.0
C759 C 0.99697 0.8224 0.77563 0.0
C760 C 0.00074 0.78828 0.81278 0.0
C761 C 0.9776 0.80121 0.82497 0.0
C762 C 0.9633 0.82383 0.81167 0.0
C763 C 0.9727 0.83413 0.78694 0.0
C764 C 0.97 0.79271 0.85268 0.0
C765 C 0.97464 0.81215 0.87386 0.0
C766 C 0.96057 0.76506 0.85859 0.0
C767 C 0.95525 0.7437 0.83695 0.0
C768 C 0.93728 0.75037 0.81487 0.0
C769 C 0.93238 0.73011 0.79457 0.0
C770 C 0.94517 0.70303 0.7962 0.0
C771 C 0.96285 0.69612 0.81818 0.0
C772 C 0.96785 0.71631 0.83852 0.0
C773 C 0.92227 0.77946 0.97372 0.0
C774 C 0.92792 0.75188 0.98396 0.0
C775 C 0.9333 0.78787 0.94912 0.0
C776 C 0.95087 0.76933 0.93459 0.0
C777 C 0.95783 0.74233 0.94564 0.0
C778 C 0.94632 0.73362 0.97003 0.0
C779 C 0.95978 0.77726 0.9069 0.0
C780 C 0.95548 0.75772 0.88561 0.0
C781 C 0.9701 0.80468 0.90093 0.0
C782 C 0.97723 0.82557 0.92253 0.0
C783 C 0.99509 0.81756 0.9443 0.0
C784 C 0.00136 0.83717 0.96482 0.0
C785 C 0.99003 0.86494 0.96371 0.0
C786 C 0.97249 0.87318 0.94203 0.0
C787 C 0.96613 0.85364 0.92147 0.0
H788 H 0.99488 0.88008 0.97964 0.0
H789 H 0.94133 0.68738 0.78046 0.0
H790 H 0.46662 0.62823 0.21295 0.0
H791 H 0.45074 0.64436 0.16834 0.0
H792 H 0.47129 0.73109 0.18944 0.0
H793 H 0.48664 0.71482 0.23506 0.0
H794 H 0.42445 0.73022 0.15797 0.0
H795 H 0.51687 0.69172 0.14933 0.0
H796 H 0.55547 0.65692 0.15578 0.0
H797 H 0.50744 0.59199 0.11644 0.0
H798 H 0.46854 0.62675 0.10926 0.0
H799 H 0.43527 0.77148 0.01827 0.0
H800 H 0.44636 0.76057 0.06594 0.0
H801 H 0.4148 0.6756 0.05489 0.0
H802 H 0.40267 0.68687 0.00747 0.0
H803 H 0.46785 0.67814 0.08139 0.0
H804 H 0.37637 0.72114 0.08667 0.0
H805 H 0.34093 0.75912 0.07804 0.0
H806 H 0.39019 0.81873 0.12333 0.0
H807 H 0.42616 0.78126 0.13188 0.0
C808 C 0.46766 0.65078 0.2082 0.0
C809 C 0.4783 0.67025 0.22723 0.0
C810 C 0.45861 0.65999 0.18263 0.0
C811 C 0.46056 0.68881 0.1752 0.0
C812 C 0.46981 0.70869 0.19467 0.0
C813 C 0.47855 0.69945 0.22065 0.0
C814 C 0.45417 0.69741 0.14669 0.0
C815 C 0.43423 0.71916 0.14124 0.0
C816 C 0.46665 0.68277 0.12475 0.0
C817 C 0.48979 0.66173 0.12898 0.0
C818 C 0.5145 0.66998 0.14217 0.0
C819 C 0.53645 0.65026 0.14593 0.0
C820 C 0.5339 0.62213 0.1368 0.0
C821 C 0.5094 0.61376 0.12358 0.0
C822 C 0.48744 0.63351 0.11951 0.0
C823 C 0.43031 0.75067 0.02619 0.0
C824 C 0.41763 0.73023 0.00946 0.0
C825 C 0.43677 0.74442 0.05331 0.0
C826 C 0.43102 0.71743 0.06398 0.0
C827 C 0.41924 0.69661 0.04702 0.0
C828 C 0.41248 0.703 0.01996 0.0
C829 C 0.43796 0.71067 0.09268 0.0
C830 C 0.45807 0.68924 0.09813 0.0
C831 C 0.42591 0.72594 0.11444 0.0
C832 C 0.40409 0.74843 0.10972 0.0
C833 C 0.37975 0.74241 0.09463 0.0
C834 C 0.35952 0.76384 0.08982 0.0
C835 C 0.36325 0.79131 0.10024 0.0
C836 C 0.38723 0.7974 0.11546 0.0
C837 C 0.40757 0.77608 0.12026 0.0
H838 H 0.3476 0.80791 0.09648 0.0
H839 H 0.55095 0.60689 0.13985 0.0
H840 H 0.16524 0.31818 0.4033 0.0
H841 H 0.16787 0.34745 0.36293 0.0
H842 H 0.0786 0.34486 0.35219 0.0
H843 H 0.0761 0.31394 0.39232 0.0
H844 H 0.10061 0.33356 0.3067 0.0
H845 H 0.11454 0.4091 0.36861 0.0
H846 H 0.13357 0.43382 0.40882 0.0
H847 H 0.21571 0.42715 0.37662 0.0
H848 H 0.19725 0.40204 0.33634 0.0
H849 H 0.12499 0.42537 0.19077 0.0
H850 H 0.10827 0.40921 0.23475 0.0
H851 H 0.19136 0.38046 0.25728 0.0
H852 H 0.20817 0.39609 0.2135 0.0
H853 H 0.1636 0.41543 0.29723 0.0
H854 H 0.14738 0.33278 0.23874 0.0
H855 H 0.12642 0.30917 0.19877 0.0
H856 H 0.04477 0.33315 0.22552 0.0
H857 H 0.0653 0.35725 0.26548 0.0
C858 C 0.14605 0.32433 0.39274 0.0
C859 C 0.12045 0.31377 0.40096 0.0
C860 C 0.14755 0.34131 0.36965 0.0
C861 C 0.1234 0.34885 0.35455 0.0
C862 C 0.09754 0.33943 0.36349 0.0
C863 C 0.09608 0.32197 0.38652 0.0
C864 C 0.12592 0.36406 0.3282 0.0
C865 C 0.11379 0.35196 0.30481 0.0
C866 C 0.14323 0.38803 0.32546 0.0
C867 C 0.15448 0.40357 0.34945 0.0
C868 C 0.13668 0.41278 0.37013 0.0
C869 C 0.14737 0.42688 0.39294 0.0
C870 C 0.17583 0.43203 0.39528 0.0
C871 C 0.19366 0.42317 0.37476 0.0
C872 C 0.18308 0.40906 0.35189 0.0
C873 C 0.13965 0.41542 0.20502 0.0
C874 C 0.1679 0.41192 0.19856 0.0
C875 C 0.13006 0.40625 0.23012 0.0
C876 C 0.14862 0.39377 0.24926 0.0
C877 C 0.17674 0.39018 0.24282 0.0
C878 C 0.18626 0.39893 0.21767 0.0
C879 C 0.13904 0.38426 0.27609 0.0
C880 C 0.14987 0.3975 0.29942 0.0
C881 C 0.12016 0.36175 0.2788 0.0
C882 C 0.10788 0.34711 0.25489 0.0
C883 C 0.12497 0.33324 0.23596 0.0
C884 C 0.11317 0.31972 0.21334 0.0
C885 C 0.08428 0.31974 0.20956 0.0
C886 C 0.06714 0.3332 0.22844 0.0
C887 C 0.07884 0.34678 0.25108 0.0
H888 H 0.07518 0.30927 0.19204 0.0
H889 H 0.18404 0.44291 0.41298 0.0
H890 H 0.93037 0.84734 0.64036 0.0
H891 H 0.90361 0.857 0.59841 0.0
H892 H 0.93126 0.94426 0.59934 0.0
H893 H 0.95659 0.93509 0.64189 0.0
H894 H 0.882 0.94492 0.58004 0.0
H895 H 0.9634 0.88945 0.56044 0.0
H896 H 0.99708 0.84906 0.56451 0.0
H897 H 0.93375 0.79071 0.53949 0.0
H898 H 0.89958 0.83072 0.53562 0.0
H899 H 0.84498 0.96763 0.44154 0.0
H900 H 0.8763 0.96055 0.48095 0.0
H901 H 0.84193 0.87725 0.49378 0.0
H902 H 0.81155 0.88397 0.45385 0.0
H903 H 0.89805 0.87715 0.50422 0.0
H904 H 0.81654 0.93689 0.5263 0.0
H905 H 0.7865 0.97985 0.51932 0.0
H906 H 0.85593 0.03364 0.53663 0.0
H907 H 0.88645 0.99098 0.54337 0.0
C908 C 0.93015 0.86871 0.63189 0.0
C909 C 0.94563 0.8904 0.64426 0.0
C910 C 0.91514 0.87417 0.60775 0.0
C911 C 0.91607 0.90116 0.59518 0.0
C912 C 0.93029 0.92323 0.60844 0.0
C913 C 0.94479 0.91794 0.63281 0.0
C914 C 0.90333 0.90611 0.56774 0.0
C915 C 0.88583 0.93023 0.56344 0.0
C916 C 0.90836 0.88717 0.54584 0.0
C917 C 0.92887 0.86305 0.54799 0.0
C918 C 0.95662 0.86798 0.55597 0.0
C919 C 0.9758 0.84516 0.55823 0.0
C920 C 0.96754 0.81733 0.55232 0.0
C921 C 0.9401 0.81227 0.54408 0.0
C922 C 0.92082 0.83502 0.54184 0.0
C923 C 0.8452 0.94733 0.45194 0.0
C924 C 0.82652 0.92604 0.44425 0.0
C925 C 0.86265 0.94349 0.4748 0.0
C926 C 0.86124 0.91845 0.49047 0.0
C927 C 0.84343 0.89668 0.48199 0.0
C928 C 0.82608 0.90055 0.45922 0.0
C929 C 0.87646 0.91552 0.51683 0.0
C930 C 0.89444 0.89183 0.52089 0.0
C931 C 0.87239 0.9352 0.53828 0.0
C932 C 0.85379 0.96077 0.53518 0.0
C933 C 0.82539 0.95788 0.52857 0.0
C934 C 0.80829 0.98217 0.52464 0.0
C935 C 0.8193 0.00945 0.52752 0.0
C936 C 0.84742 0.0125 0.53443 0.0
C937 C 0.86462 0.98828 0.53833 0.0
H938 H 0.80605 0.02822 0.52442 0.0
H939 H 0.98242 0.79969 0.55408 0.0
H940 H 0.28578 0.58883 0.68018 0.0
H941 H 0.29426 0.62517 0.71501 0.0
H942 H 0.38237 0.60548 0.71286 0.0
H943 H 0.37359 0.56837 0.67896 0.0
H944 H 0.36632 0.60323 0.76186 0.0
H945 H 0.35083 0.67189 0.68978 0.0
H946 H 0.32453 0.69405 0.6515 0.0
H947 H 0.25613 0.71297 0.70359 0.0
H948 H 0.28191 0.69066 0.74215 0.0
H949 H 0.41087 0.70739 0.85511 0.0
H950 H 0.40311 0.68258 0.81191 0.0
H951 H 0.31452 0.69625 0.81897 0.0
H952 H 0.32221 0.72142 0.8619 0.0
H953 H 0.3305 0.70334 0.76686 0.0
H954 H 0.34348 0.63331 0.83733 0.0
H955 H 0.3676 0.6097 0.87614 0.0
H956 H 0.43854 0.59182 0.82698 0.0
H957 H 0.41496 0.6157 0.78796 0.0
C958 C 0.30698 0.59305 0.68654 0.0
C959 C 0.32913 0.57631 0.67676 0.0
C960 C 0.31185 0.61377 0.70647 0.0
C961 C 0.33903 0.61829 0.71648 0.0
C962 C 0.36125 0.6024 0.70553 0.0
C963 C 0.35629 0.58137 0.68609 0.0
C964 C 0.34416 0.63709 0.7403 0.0
C965 C 0.35898 0.62532 0.76261 0.0
C966 C 0.33359 0.66555 0.74187 0.0
C967 C 0.31825 0.67943 0.71882 0.0
C968 C 0.33013 0.68066 0.69305 0.0
C969 C 0.31533 0.69327 0.67131 0.0
C970 C 0.28869 0.7049 0.67511 0.0
C971 C 0.27679 0.70399 0.70069 0.0
C972 C 0.29151 0.69141 0.7225 0.0
C973 C 0.38979 0.70526 0.84731 0.0
C974 C 0.36712 0.71598 0.86192 0.0
C975 C 0.38537 0.69111 0.82267 0.0
C976 C 0.3582 0.68729 0.8124 0.0
C977 C 0.33563 0.69896 0.82652 0.0
C978 C 0.34004 0.71314 0.85111 0.0
C979 C 0.35324 0.66958 0.7879 0.0
C980 C 0.33818 0.68139 0.76573 0.0
C981 C 0.36339 0.64102 0.78642 0.0
C982 C 0.37758 0.62656 0.80982 0.0
C983 C 0.36431 0.62454 0.83486 0.0
C984 C 0.37787 0.61108 0.85688 0.0
C985 C 0.40462 0.59934 0.85405 0.0
C986 C 0.41784 0.60097 0.82916 0.0
C987 C 0.40438 0.61445 0.80708 0.0
H988 H 0.41508 0.58892 0.87112 0.0
H989 H 0.27728 0.71464 0.65824 0.0
H990 H 0.54396 0.14353 0.11163 0.0
H991 H 0.56672 0.13051 0.06945 0.0
H992 H 0.60453 0.05637 0.10838 0.0
H993 H 0.58155 0.06931 0.1509 0.0
H994 H 0.64097 0.08401 0.07431 0.0
H995 H 0.54985 0.04629 0.06969 0.0
H996 H 0.49872 0.04705 0.07291 0.0
H997 H 0.49228 0.11033 0.00992 0.0
H998 H 0.54341 0.11024 0.00656 0.0
H999 H 0.63482 0.01804 0.9296 0.0
H1000 H 0.61303 0.02719 0.97318 0.0
H1001 H 0.65759 0.10587 0.98122 0.0
H1002 H 0.67973 0.09684 0.93784 0.0
H1003 H 0.57995 0.06955 0.99322 0.0
H1004 H 0.67898 0.11262 0.0476 0.0
H1005 H 0.72996 0.10675 0.04488 0.0
H1006 H 0.72041 0.02336 0.0098 0.0
H1007 H 0.66943 0.02852 0.01275 0.0
C1008 C 0.55742 0.12465 0.11137 0.0
C1009 C 0.56092 0.10739 0.13455 0.0
C1010 C 0.5703 0.11716 0.08718 0.0
C1011 C 0.58701 0.09225 0.08562 0.0
C1012 C 0.59164 0.07563 0.1091 0.0
C1013 C 0.57855 0.08305 0.13336 0.0
C1014 C 0.59868 0.08326 0.05916 0.0
C1015 C 0.62765 0.08087 0.05659 0.0
C1016 C 0.58128 0.07836 0.03615 0.0
C1017 C 0.5505 0.07845 0.03805 0.0
C1018 C 0.53755 0.06054 0.05667 0.0
C1019 C 0.50857 0.06081 0.05849 0.0
C1020 C 0.49228 0.07878 0.04168 0.0
C1021 C 0.50494 0.09644 0.02295 0.0
C1022 C 0.53392 0.09627 0.02105 0.0
C1023 C 0.63979 0.0375 0.94042 0.0
C1024 C 0.65921 0.05664 0.93016 0.0
C1025 C 0.62724 0.0427 0.96536 0.0
C1026 C 0.63393 0.06701 0.98066 0.0
C1027 C 0.6524 0.08674 0.96997 0.0
C1028 C 0.66492 0.08162 0.94502 0.0
C1029 C 0.62228 0.07138 0.00813 0.0
C1030 C 0.5933 0.07277 0.01091 0.0
C1031 C 0.63966 0.07467 0.03144 0.0
C1032 C 0.67036 0.07111 0.03015 0.0
C1033 C 0.68776 0.09298 0.03944 0.0
C1034 C 0.71667 0.08977 0.03785 0.0
C1035 C 0.72841 0.06474 0.0271 0.0
C1036 C 0.71129 0.04278 0.01804 0.0
C1037 C 0.68239 0.04585 0.01965 0.0
H1038 H 0.75078 0.06233 0.02584 0.0
H1039 H 0.46987 0.07901 0.04313 0.0
H1040 H 0.61774 0.23107 0.64226 0.0
H1041 H 0.62735 0.20129 0.68232 0.0
H1042 H 0.68934 0.15321 0.63852 0.0
H1043 H 0.68042 0.18364 0.59844 0.0
H1044 H 0.6459 0.12094 0.66958 0.0
H1045 H 0.71418 0.19484 0.67844 0.0
H1046 H 0.72997 0.2446 0.68091 0.0
H1047 H 0.67969 0.25966 0.7506 0.0
H1048 H 0.66312 0.21014 0.7482 0.0
H1049 H 0.70363 0.03763 0.77309 0.0
H1050 H 0.69945 0.07123 0.73544 0.0
H1051 H 0.66036 0.1335 0.78778 0.0
H1052 H 0.66594 0.10002 0.8262 0.0
H1053 H 0.69124 0.15991 0.75264 0.0
H1054 H 0.6215 0.0894 0.74495 0.0
H1055 H 0.60245 0.04086 0.74366 0.0
H1056 H 0.65025 0.02102 0.6733 0.0
H1057 H 0.6699 0.06933 0.67439 0.0
C1058 C 0.63329 0.21402 0.64108 0.0
C1059 C 0.64832 0.20955 0.61726 0.0
C1060 C 0.63885 0.19719 0.66402 0.0
C1061 C 0.6592 0.17531 0.66338 0.0
C1062 C 0.67366 0.17016 0.63936 0.0
C1063 C 0.6685 0.18742 0.61653 0.0
C1064 C 0.66501 0.15759 0.68778 0.0
C1065 C 0.65619 0.12926 0.68762 0.0
C1066 C 0.67737 0.16899 0.71162 0.0
C1067 C 0.6871 0.19887 0.7129 0.0
C1068 C 0.70618 0.20886 0.69406 0.0
C1069 C 0.71534 0.23701 0.6955 0.0
C1070 C 0.70576 0.25532 0.71583 0.0
C1071 C 0.68703 0.24549 0.7348 0.0
C1072 C 0.67774 0.21738 0.73341 0.0
C1073 C 0.69446 0.05864 0.77666 0.0
C1074 C 0.68469 0.06618 0.80234 0.0
C1075 C 0.69194 0.07778 0.75509 0.0
C1076 C 0.67868 0.10453 0.75848 0.0
C1077 C 0.67036 0.11283 0.78459 0.0
C1078 C 0.67352 0.09377 0.80649 0.0
C1079 C 0.67248 0.12294 0.73441 0.0
C1080 C 0.681 0.15147 0.73464 0.0
C1081 C 0.65926 0.11195 0.71074 0.0
C1082 C 0.64735 0.08291 0.7099 0.0
C1083 C 0.62809 0.07462 0.72931 0.0
C1084 C 0.61716 0.04716 0.7286 0.0
C1085 C 0.62518 0.02785 0.70845 0.0
C1086 C 0.64408 0.03599 0.68891 0.0
C1087 C 0.6551 0.06342 0.68955 0.0
H1088 H 0.6167 0.00659 0.70794 0.0
H1089 H 0.71292 0.27708 0.71694 0.0
H1090 H 0.12755 0.42532 0.09824 0.0
H1091 H 0.09145 0.4224 0.06208 0.0
H1092 H 0.15513 0.40574 0.00346 0.0
H1093 H 0.19075 0.40846 0.03903 0.0
H1094 H 0.1158 0.44533 0.98518 0.0
H1095 H 0.12027 0.35177 0.02875 0.0
H1096 H 0.11659 0.31918 0.06774 0.0
H1097 H 0.03161 0.34647 0.07801 0.0
H1098 H 0.03494 0.37953 0.03924 0.0
H1099 H 0.0655 0.37258 0.87139 0.0
H1100 H 0.08908 0.38335 0.91454 0.0
H1101 H 0.00971 0.39811 0.95181 0.0
H1102 H 0.98595 0.38755 0.90851 0.0
H1103 H 0.04881 0.36604 0.98472 0.0
H1104 H 0.04247 0.45397 0.93615 0.0
H1105 H 0.04629 0.48547 0.89641 0.0
H1106 H 0.13449 0.46915 0.89548 0.0
H1107 H 0.13113 0.43717 0.93498 0.0
C1108 C 0.13368 0.42119 0.07758 0.0
C1109 C 0.16187 0.41694 0.07141 0.0
C1110 C 0.11314 0.41949 0.05701 0.0
C1111 C 0.12066 0.41378 0.0301 0.0
C1112 C 0.14885 0.41026 0.02402 0.0
C1113 C 0.16919 0.41166 0.04444 0.0
C1114 C 0.09963 0.41035 0.00798 0.0
C1115 C 0.10111 0.42804 0.9851 0.0
C1116 C 0.07997 0.38826 0.00816 0.0
C1117 C 0.07796 0.36838 0.03137 0.0
C1118 C 0.10088 0.35101 0.03948 0.0
C1119 C 0.09885 0.33242 0.0615 0.0
C1120 C 0.07391 0.33084 0.07541 0.0
C1121 C 0.05093 0.34778 0.06726 0.0
C1122 C 0.05288 0.36644 0.04527 0.0
C1123 C 0.05308 0.37782 0.88885 0.0
C1124 C 0.02394 0.37931 0.88665 0.0
C1125 C 0.06654 0.38407 0.91344 0.0
C1126 C 0.05112 0.39182 0.93626 0.0
C1127 C 0.02196 0.39223 0.93441 0.0
C1128 C 0.00846 0.38623 0.9097 0.0
C1129 C 0.06573 0.40041 0.96165 0.0
C1130 C 0.06302 0.38375 0.98505 0.0
C1131 C 0.08428 0.42349 0.962 0.0
C1132 C 0.08651 0.443 0.93843 0.0
C1133 C 0.06265 0.45693 0.92736 0.0
C1134 C 0.06474 0.4749 0.90489 0.0
C1135 C 0.09061 0.47926 0.89339 0.0
C1136 C 0.11446 0.46573 0.9044 0.0
C1137 C 0.11248 0.44771 0.92686 0.0
H1138 H 0.09218 0.49316 0.87598 0.0
H1139 H 0.07237 0.31642 0.09245 0.0
H1140 H 0.86186 0.9301 0.31957 0.0
H1141 H 0.8746 0.90794 0.27644 0.0
H1142 H 0.78958 0.88264 0.26329 0.0
H1143 H 0.777 0.90365 0.3065 0.0
H1144 H 0.82172 0.84109 0.24955 0.0
H1145 H 0.81877 0.94196 0.23113 0.0
H1146 H 0.83118 0.99244 0.23765 0.0
H1147 H 0.91666 0.97133 0.22181 0.0
H1148 H 0.9048 0.92062 0.21556 0.0
H1149 H 0.8188 0.81271 0.11036 0.0
H1150 H 0.81168 0.8402 0.15192 0.0
H1151 H 0.90048 0.84397 0.16505 0.0
H1152 H 0.90778 0.81635 0.12339 0.0
H1153 H 0.86974 0.89584 0.17891 0.0
H1154 H 0.86955 0.79375 0.1955 0.0
H1155 H 0.85395 0.74468 0.18653 0.0
H1156 H 0.76991 0.77039 0.20385 0.0
H1157 H 0.78496 0.81975 0.21251 0.0
C1158 C 0.84596 0.91963 0.30755 0.0
C1159 C 0.81845 0.9186 0.31653 0.0
C1160 C 0.85322 0.90714 0.28281 0.0
C1161 C 0.83297 0.89394 0.26639 0.0
C1162 C 0.80561 0.89261 0.27557 0.0
C1163 C 0.79845 0.90467 0.30037 0.0
C1164 C 0.83995 0.88141 0.23962 0.0
C1165 C 0.83199 0.85324 0.23409 0.0
C1166 C 0.85377 0.89699 0.21947 0.0
C1167 C 0.86095 0.92745 0.22319 0.0
C1168 C 0.84025 0.94805 0.22926 0.0
C1169 C 0.84717 0.97671 0.23286 0.0
C1170 C 0.87471 0.98507 0.23023 0.0
C1171 C 0.89536 0.96481 0.2239 0.0
C1172 C 0.88854 0.93611 0.22031 0.0
C1173 C 0.83681 0.81993 0.12178 0.0
C1174 C 0.86383 0.81222 0.11387 0.0
C1175 C 0.83271 0.83556 0.14552 0.0
C1176 C 0.85556 0.8437 0.16169 0.0
C1177 C 0.88261 0.83779 0.15284 0.0
C1178 C 0.88674 0.82201 0.1291 0.0
C1179 C 0.85107 0.85592 0.18896 0.0
C1180 C 0.85959 0.88383 0.19455 0.0
C1181 C 0.83732 0.84033 0.20905 0.0
C1182 C 0.82836 0.8105 0.20443 0.0
C1183 C 0.84772 0.78898 0.19724 0.0
C1184 C 0.83898 0.76111 0.19222 0.0
C1185 C 0.81095 0.75443 0.19455 0.0
C1186 C 0.79162 0.7756 0.20202 0.0
C1187 C 0.80025 0.80352 0.20701 0.0
H1188 H 0.80421 0.73285 0.19062 0.0
H1189 H 0.88003 0.00727 0.23302 0.0
H1190 H 0.31258 0.59575 0.54825 0.0
H1191 H 0.33816 0.60981 0.50831 0.0
H1192 H 0.39162 0.53497 0.51723 0.0
H1193 H 0.36652 0.52088 0.55738 0.0
H1194 H 0.42124 0.58148 0.50697 0.0
H1195 H 0.34158 0.53635 0.46933 0.0
H1196 H 0.29172 0.52682 0.46242 0.0
H1197 H 0.27757 0.61261 0.43342 0.0
H1198 H 0.32736 0.62278 0.44051 0.0
H1199 H 0.47999 0.57556 0.37778 0.0
H1200 H 0.45322 0.56595 0.41823 0.0
H1201 H 0.40606 0.64443 0.40592 0.0
H1202 H 0.43257 0.65409 0.36496 0.0
H1203 H 0.37308 0.59849 0.41827 0.0
H1204 H 0.45695 0.64052 0.45485 0.0
H1205 H 0.50789 0.64473 0.45939 0.0
H1206 H 0.51488 0.55816 0.48822 0.0
H1207 H 0.464 0.55338 0.4837 0.0
C1208 C 0.32981 0.58227 0.54179 0.0
C1209 C 0.33744 0.55715 0.55602 0.0
C1210 C 0.34433 0.5903 0.51888 0.0
C1211 C 0.36664 0.57331 0.50973 0.0
C1212 C 0.3745 0.5484 0.52402 0.0
C1213 C 0.36002 0.54035 0.54692 0.0
C1214 C 0.38189 0.58155 0.48527 0.0
C1215 C 0.41074 0.585 0.48754 0.0
C1216 C 0.36811 0.58639 0.46 0.0
C1217 C 0.33814 0.58044 0.45576 0.0
C1218 C 0.3278 0.55328 0.46172 0.0
C1219 C 0.29956 0.54773 0.45772 0.0
C1220 C 0.28147 0.56913 0.44757 0.0
C1221 C 0.29161 0.59608 0.44133 0.0
C1222 C 0.31984 0.60174 0.44532 0.0
C1223 C 0.46391 0.59076 0.38367 0.0
C1224 C 0.45832 0.61558 0.36836 0.0
C1225 C 0.44877 0.58529 0.4068 0.0
C1226 C 0.42799 0.6046 0.41521 0.0
C1227 C 0.42213 0.62932 0.39979 0.0
C1228 C 0.4373 0.63485 0.37654 0.0
C1229 C 0.41237 0.59856 0.44003 0.0
C1230 C 0.38348 0.59538 0.43781 0.0
C1231 C 0.42619 0.59339 0.46524 0.0
C1232 C 0.45669 0.59656 0.46881 0.0
C1233 C 0.46937 0.62237 0.46211 0.0
C1234 C 0.49822 0.62486 0.46469 0.0
C1235 C 0.51461 0.60172 0.47406 0.0
C1236 C 0.50216 0.57608 0.48101 0.0
C1237 C 0.47331 0.5735 0.47852 0.0
H1238 H 0.53695 0.60366 0.47597 0.0
H1239 H 0.25961 0.5648 0.44447 0.0
H1240 H 0.20124 0.1468 0.42918 0.0
H1241 H 0.24086 0.13416 0.40103 0.0
H1242 H 0.23679 0.21809 0.36478 0.0
H1243 H 0.19697 0.23089 0.39272 0.0
H1244 H 0.24478 0.17694 0.32702 0.0
H1245 H 0.28596 0.20123 0.41315 0.0
H1246 H 0.29273 0.19833 0.46276 0.0
H1247 H 0.3163 0.10952 0.4562 0.0
H1248 H 0.30926 0.11178 0.40655 0.0
H1249 H 0.3779 0.17238 0.26601 0.0
H1250 H 0.33645 0.18419 0.29205 0.0
H1251 H 0.34446 0.10299 0.33335 0.0
H1252 H 0.38619 0.0913 0.3075 0.0
H1253 H 0.33422 0.14295 0.36876 0.0
H1254 H 0.2911 0.11723 0.28384 0.0
H1255 H 0.2786 0.11751 0.23509 0.0
H1256 H 0.25712 0.20699 0.23942 0.0
H1257 H 0.26949 0.20724 0.28822 0.0
C1258 C 0.20862 0.16258 0.41514 0.0
C1259 C 0.19585 0.18993 0.41333 0.0
C1260 C 0.23145 0.15535 0.39915 0.0
C1261 C 0.24214 0.1753 0.38103 0.0
C1262 C 0.22903 0.20236 0.37868 0.0
C1263 C 0.20623 0.20965 0.39471 0.0
C1264 C 0.2669 0.16791 0.36447 0.0
C1265 C 0.2645 0.16994 0.33615 0.0
C1266 C 0.2924 0.15797 0.37632 0.0
C1267 C 0.29682 0.15661 0.40615 0.0
C1268 C 0.29238 0.18102 0.4223 0.0
C1269 C 0.2963 0.1795 0.45043 0.0
C1270 C 0.30487 0.15374 0.46263 0.0
C1271 C 0.30962 0.12945 0.44672 0.0
C1272 C 0.30569 0.13085 0.41858 0.0
C1273 C 0.37075 0.157 0.28058 0.0
C1274 C 0.38529 0.13089 0.28471 0.0
C1275 C 0.34689 0.16369 0.29535 0.0
C1276 C 0.33697 0.14438 0.31454 0.0
C1277 C 0.35157 0.11828 0.31868 0.0
C1278 C 0.37543 0.11157 0.30388 0.0
C1279 C 0.31216 0.15187 0.33111 0.0
C1280 C 0.31457 0.14997 0.35952 0.0
C1281 C 0.28659 0.16182 0.31934 0.0
C1282 C 0.2814 0.16229 0.28962 0.0
C1283 C 0.28406 0.13704 0.27432 0.0
C1284 C 0.27677 0.13705 0.24674 0.0
C1285 C 0.26684 0.1622 0.23425 0.0
C1286 C 0.26463 0.18749 0.24918 0.0
C1287 C 0.27174 0.18756 0.27679 0.0
H1288 H 0.26096 0.16211 0.21295 0.0
H1289 H 0.3079 0.1526 0.48441 0.0
H1290 H 0.16117 0.13302 0.56918 0.0
H1291 H 0.15296 0.09059 0.59694 0.0
H1292 H 0.11553 0.04896 0.52761 0.0
H1293 H 0.12384 0.09108 0.4998 0.0
H1294 H 0.08229 0.05057 0.57354 0.0
H1295 H 0.17646 0.02558 0.54971 0.0
H1296 H 0.22674 0.03371 0.54615 0.0
H1297 H 0.23396 0.04269 0.63262 0.0
H1298 H 0.18361 0.03501 0.63667 0.0
H1299 H 0.05561 0.91756 0.62929 0.0
H1300 H 0.07465 0.95404 0.60002 0.0
H1301 H 0.12414 0.98543 0.66729 0.0
H1302 H 0.10619 0.94781 0.69631 0.0
H1303 H 0.15229 0.98974 0.62305 0.0
H1304 H 0.05961 0.01637 0.64811 0.0
H1305 H 0.00926 0.00978 0.6534 0.0
H1306 H 0.99867 0.00105 0.56718 0.0
H1307 H 0.04905 0.00712 0.5614 0.0
C1308 C 0.1516 0.11461 0.55983 0.0
C1309 C 0.14306 0.11524 0.53244 0.0
C1310 C 0.147 0.09043 0.57564 0.0
C1311 C 0.13368 0.06671 0.56425 0.0
C1312 C 0.12585 0.06708 0.53671 0.0
C1313 C 0.13066 0.09109 0.52087 0.0
C1314 C 0.12594 0.04238 0.58141 0.0
C1315 C 0.09758 0.03698 0.58408 0.0
C1316 C 0.14593 0.02545 0.59586 0.0
C1317 C 0.17621 0.03002 0.59346 0.0
C1318 C 0.18872 0.02955 0.56794 0.0
C1319 C 0.21724 0.03402 0.56584 0.0
C1320 C 0.23352 0.0388 0.58914 0.0
C1321 C 0.22132 0.03903 0.61459 0.0
C1322 C 0.19279 0.0346 0.6168 0.0
C1323 C 0.07082 0.93205 0.63771 0.0
C1324 C 0.07923 0.93019 0.66507 0.0
C1325 C 0.08159 0.95295 0.62103 0.0
C1326 C 0.10019 0.97303 0.63166 0.0
C1327 C 0.10966 0.9703 0.6587 0.0
C1328 C 0.09939 0.94887 0.67526 0.0
C1329 C 0.10856 0.99762 0.61494 0.0
C1330 C 0.13697 0.00324 0.61249 0.0
C1331 C 0.08856 0.01515 0.60097 0.0
C1332 C 0.05816 0.01193 0.60435 0.0
C1333 C 0.04657 0.01287 0.63029 0.0
C1334 C 0.01803 0.00923 0.63338 0.0
C1335 C 0.0008 0.00491 0.61065 0.0
C1336 C 0.01206 0.00434 0.58477 0.0
C1337 C 0.0406 0.0079 0.58158 0.0
H1338 H 0.97871 0.00205 0.61308 0.0
H1339 H 0.2556 0.04224 0.58747 0.0
H1340 H 0.1542 0.82732 0.75735 0.0
H1341 H 0.19682 0.81938 0.78475 0.0
H1342 H 0.17228 0.88844 0.83782 0.0
H1343 H 0.13001 0.89672 0.8102 0.0
H1344 H 0.22569 0.89142 0.82755 0.0
H1345 H 0.16493 0.81706 0.85608 0.0
H1346 H 0.13475 0.77524 0.85168 0.0
H1347 H 0.20168 0.72648 0.81674 0.0
H1348 H 0.2322 0.76809 0.82078 0.0
H1349 H 0.30848 0.85731 0.94516 0.0
H1350 H 0.2719 0.86834 0.91119 0.0
H1351 H 0.30281 0.79972 0.86075 0.0
H1352 H 0.33945 0.78905 0.89467 0.0
H1353 H 0.24818 0.79599 0.86712 0.0
H1354 H 0.31024 0.87006 0.8431 0.0
H1355 H 0.34047 0.91125 0.85124 0.0
H1356 H 0.27067 0.96075 0.87963 0.0
H1357 H 0.24008 0.91971 0.87201 0.0
C1358 C 0.15797 0.84072 0.7749 0.0
C1359 C 0.13881 0.86244 0.78186 0.0
C1360 C 0.18223 0.83614 0.79056 0.0
C1361 C 0.18754 0.85303 0.81358 0.0
C1362 C 0.16861 0.87512 0.82018 0.0
C1363 C 0.14446 0.8798 0.80444 0.0
C1364 C 0.21274 0.84774 0.8309 0.0
C1365 C 0.23048 0.87061 0.83641 0.0
C1366 C 0.21939 0.82043 0.84192 0.0
C1367 C 0.20076 0.79576 0.83852 0.0
C1368 C 0.17312 0.7975 0.84722 0.0
C1369 C 0.156 0.77379 0.84494 0.0
C1370 C 0.16633 0.74818 0.83407 0.0
C1371 C 0.19375 0.74628 0.82529 0.0
C1372 C 0.21096 0.76992 0.82757 0.0
C1373 C 0.30763 0.84488 0.92663 0.0
C1374 C 0.3262 0.82174 0.92273 0.0
C1375 C 0.28679 0.85121 0.90722 0.0
C1376 C 0.28456 0.8348 0.88343 0.0
C1377 C 0.30392 0.81244 0.87909 0.0
C1378 C 0.32462 0.80609 0.89856 0.0
C1379 C 0.26101 0.83969 0.86395 0.0
C1380 C 0.24357 0.81673 0.85803 0.0
C1381 C 0.25459 0.86694 0.85271 0.0
C1382 C 0.27291 0.89171 0.85718 0.0
C1383 C 0.30137 0.88965 0.85126 0.0
C1384 C 0.31857 0.91299 0.85575 0.0
C1385 C 0.30751 0.93858 0.86599 0.0
C1386 C 0.27921 0.94091 0.87171 0.0
C1387 C 0.26193 0.91762 0.86728 0.0
H1388 H 0.32086 0.95662 0.86946 0.0
H1389 H 0.15304 0.72986 0.83228 0.0
H1390 H 0.48045 0.04352 0.14474 0.0
H1391 H 0.46383 0.00061 0.12173 0.0
H1392 H 0.39405 0.9982 0.17511 0.0
H1393 H 0.41044 0.041 0.1983 0.0
H1394 H 0.42015 0.94492 0.169 0.0
H1395 H 0.38297 0.02172 0.11237 0.0
H1396 H 0.38654 0.0658 0.08532 0.0
H1397 H 0.44447 0.02343 0.03288 0.0
H1398 H 0.44138 0.97913 0.05976 0.0
H1399 H 0.3417 0.86742 0.05081 0.0
H1400 H 0.3512 0.90821 0.08058 0.0
H1401 H 0.43305 0.87302 0.09908 0.0
H1402 H 0.42389 0.83247 0.06891 0.0
H1403 H 0.39699 0.94556 0.07048 0.0
H1404 H 0.44689 0.89291 0.16539 0.0
H1405 H 0.44274 0.84896 0.19258 0.0
H1406 H 0.35653 0.84385 0.16896 0.0
H1407 H 0.36018 0.88775 0.14167 0.0
C1408 C 0.46151 0.03396 0.15155 0.0
C1409 C 0.44673 0.0458 0.17331 0.0
C1410 C 0.45204 0.00944 0.13836 0.0
C1411 C 0.42768 0.99631 0.14671 0.0
C1412 C 0.41293 0.00799 0.16843 0.0
C1413 C 0.42226 0.03259 0.18152 0.0
C1414 C 0.41742 0.97049 0.13264 0.0
C1415 C 0.41503 0.94506 0.14748 0.0
C1416 C 0.41055 0.97077 0.10463 0.0
C1417 C 0.41205 0.99718 0.08815 0.0
C1418 C 0.39654 0.02185 0.09513 0.0
C1419 C 0.39845 0.04685 0.07982 0.0
C1420 C 0.41571 0.04741 0.0574 0.0
C1421 C 0.43107 0.02294 0.05022 0.0
C1422 C 0.4292 0.99786 0.06545 0.0
C1423 C 0.36149 0.8681 0.06166 0.0
C1424 C 0.38215 0.84697 0.0575 0.0
C1425 C 0.36691 0.89143 0.07853 0.0
C1426 C 0.39284 0.89361 0.09186 0.0
C1427 C 0.41289 0.87164 0.08899 0.0
C1428 C 0.40765 0.84855 0.07177 0.0
C1429 C 0.3999 0.91998 0.10679 0.0
C1430 C 0.40192 0.94548 0.09205 0.0
C1431 C 0.40633 0.91976 0.13486 0.0
C1432 C 0.40388 0.8935 0.15138 0.0
C1433 C 0.42704 0.88244 0.16608 0.0
C1434 C 0.42479 0.85751 0.18146 0.0
C1435 C 0.3994 0.8436 0.18247 0.0
C1436 C 0.37619 0.85463 0.16815 0.0
C1437 C 0.37838 0.87944 0.1526 0.0
H1438 H 0.39771 0.82428 0.19435 0.0
H1439 H 0.41716 0.06679 0.04558 0.0
H1440 H 0.90038 0.43698 0.68069 0.0
H1441 H 0.86332 0.43325 0.64605 0.0
H1442 H 0.87124 0.34112 0.64932 0.0
H1443 H 0.90892 0.34484 0.68285 0.0
H1444 H 0.85753 0.3561 0.60027 0.0
H1445 H 0.82483 0.38075 0.68992 0.0
H1446 H 0.82158 0.41073 0.73095 0.0
H1447 H 0.79142 0.4817 0.68264 0.0
H1448 H 0.79481 0.45217 0.64127 0.0
H1449 H 0.7256 0.29743 0.59301 0.0
H1450 H 0.76926 0.31726 0.6093 0.0
H1451 H 0.74599 0.39912 0.57446 0.0
H1452 H 0.70199 0.37935 0.55765 0.0
H1453 H 0.76816 0.39904 0.63068 0.0
H1454 H 0.79118 0.36529 0.542 0.0
H1455 H 0.79156 0.32999 0.50485 0.0
H1456 H 0.83776 0.27045 0.55551 0.0
H1457 H 0.8373 0.30521 0.59312 0.0
C1458 C 0.89463 0.41601 0.67342 0.0
C1459 C 0.90711 0.39117 0.68462 0.0
C1460 C 0.87341 0.41389 0.65377 0.0
C1461 C 0.86403 0.3869 0.64561 0.0
C1462 C 0.87802 0.36218 0.65535 0.0
C1463 C 0.89949 0.36431 0.67461 0.0
C1464 C 0.83794 0.38391 0.62941 0.0
C1465 C 0.83802 0.36562 0.60683 0.0
C1466 C 0.81249 0.39667 0.6377 0.0
C1467 C 0.81044 0.41441 0.66251 0.0
C1468 C 0.8177 0.40281 0.68805 0.0
C1469 C 0.81581 0.4197 0.71136 0.0
C1470 C 0.8064 0.44813 0.70939 0.0
C1471 C 0.79878 0.4597 0.68412 0.0
C1472 C 0.80069 0.44291 0.66074 0.0
C1473 C 0.72954 0.31972 0.58892 0.0
C1474 C 0.71033 0.33682 0.57396 0.0
C1475 C 0.75461 0.33093 0.59809 0.0
C1476 C 0.76088 0.35945 0.59267 0.0
C1477 C 0.74147 0.37696 0.57858 0.0
C1478 C 0.71641 0.36564 0.56905 0.0
C1479 C 0.78779 0.37063 0.60223 0.0
C1480 C 0.78781 0.39035 0.62357 0.0
C1481 C 0.8132 0.35861 0.59324 0.0
C1482 C 0.8141 0.33786 0.57044 0.0
C1483 C 0.8013 0.34462 0.54528 0.0
C1484 C 0.80155 0.3247 0.52412 0.0
C1485 C 0.81465 0.29798 0.52782 0.0
C1486 C 0.82763 0.29116 0.55266 0.0
C1487 C 0.82743 0.31099 0.57389 0.0
H1488 H 0.81477 0.28257 0.51144 0.0
H1489 H 0.80494 0.46118 0.72746 0.0
H1490 H 0.93428 0.41153 0.85462 0.0
H1491 H 0.9247 0.44447 0.89247 0.0
H1492 H 0.92839 0.51619 0.83772 0.0
H1493 H 0.93841 0.48381 0.80047 0.0
H1494 H 0.95496 0.52773 0.88414 0.0
H1495 H 0.86619 0.48733 0.85629 0.0
H1496 H 0.83395 0.44766 0.84864 0.0
H1497 H 0.84219 0.42385 0.93253 0.0
H1498 H 0.87477 0.46321 0.94058 0.0
H1499 H 0.87725 0.64372 0.93253 0.0
H1500 H 0.89091 0.60133 0.90646 0.0
H1501 H 0.88808 0.54964 0.9787 0.0
H1502 H 0.87437 0.5921 0.00496 0.0
H1503 H 0.86526 0.52274 0.93171 0.0
H1504 H 0.94802 0.56902 0.96048 0.0
H1505 H 0.97749 0.61078 0.96769 0.0
H1506 H 0.98047 0.6241 0.88168 0.0
H1507 H 0.95022 0.58279 0.87397 0.0
C1508 C 0.93338 0.43435 0.85089 0.0
C1509 C 0.93703 0.44515 0.82466 0.0
C1510 C 0.92776 0.45311 0.87242 0.0
C1511 C 0.92566 0.48282 0.86787 0.0
C1512 C 0.92999 0.49343 0.84177 0.0
C1513 C 0.93556 0.47484 0.82044 0.0
C1514 C 0.91801 0.5033 0.88963 0.0
C1515 C 0.93535 0.5266 0.89454 0.0
C1516 C 0.89278 0.50149 0.90378 0.0
C1517 C 0.87315 0.47795 0.89896 0.0
C1518 C 0.86128 0.47349 0.87305 0.0
C1519 C 0.84292 0.4511 0.86865 0.0
C1520 C 0.8361 0.43318 0.89006 0.0
C1521 C 0.84755 0.43769 0.91595 0.0
C1522 C 0.86595 0.46004 0.92044 0.0
C1523 C 0.87923 0.62327 0.94279 0.0
C1524 C 0.87489 0.62116 0.97074 0.0
C1525 C 0.88709 0.59911 0.92792 0.0
C1526 C 0.89079 0.57243 0.94074 0.0
C1527 C 0.88535 0.57003 0.96846 0.0
C1528 C 0.87761 0.59428 0.9834 0.0
C1529 C 0.90173 0.54758 0.92528 0.0
C1530 C 0.88511 0.52352 0.92171 0.0
C1531 C 0.92761 0.54869 0.91225 0.0
C1532 C 0.94668 0.5729 0.91667 0.0
C1533 C 0.95484 0.58092 0.94309 0.0
C1534 C 0.9717 0.60454 0.94727 0.0
C1535 C 0.98092 0.62011 0.92516 0.0
C1536 C 0.97333 0.61201 0.8988 0.0
C1537 C 0.95629 0.5885 0.89451 0.0
H1538 H 0.99393 0.63845 0.92843 0.0
H1539 H 0.82188 0.41585 0.88662 0.0
H1540 H 0.80038 0.64791 0.06944 0.0
H1541 H 0.75836 0.63427 0.09272 0.0
H1542 H 0.74709 0.72102 0.12107 0.0
H1543 H 0.78967 0.73454 0.09873 0.0
H1544 H 0.73536 0.68676 0.15968 0.0
H1545 H 0.70894 0.6925 0.06569 0.0
H1546 H 0.71196 0.68194 0.01685 0.0
H1547 H 0.69952 0.59285 0.03258 0.0
H1548 H 0.6968 0.60283 0.08158 0.0
H1549 H 0.59367 0.68027 0.19301 0.0
H1550 H 0.63521 0.69138 0.16761 0.0
H1551 H 0.65235 0.60127 0.15635 0.0
H1552 H 0.61071 0.58998 0.18194 0.0
H1553 H 0.66083 0.63595 0.10936 0.0
H1554 H 0.68565 0.63297 0.20471 0.0
H1555 H 0.68015 0.64642 0.25267 0.0
H1556 H 0.6932 0.73447 0.23288 0.0
H1557 H 0.69835 0.7216 0.18471 0.0
C1558 C 0.789 0.66407 0.0807 0.0
C1559 C 0.79829 0.69235 0.0821 0.0
C1560 C 0.76488 0.65627 0.09389 0.0
C1561 C 0.74917 0.67674 0.10821 0.0
C1562 C 0.75877 0.70485 0.11011 0.0
C1563 C 0.78313 0.71256 0.09728 0.0
C1564 C 0.72272 0.66895 0.12114 0.0
C1565 C 0.71898 0.67596 0.14853 0.0
C1566 C 0.70139 0.65444 0.10679 0.0
C1567 C 0.70295 0.64837 0.07733 0.0
C1568 C 0.70705 0.67063 0.05875 0.0
C1569 C 0.70868 0.66475 0.03104 0.0
C1570 C 0.70601 0.63673 0.02162 0.0
C1571 C 0.70163 0.61454 0.0399 0.0
C1572 C 0.70002 0.62029 0.06765 0.0
C1573 C 0.60604 0.66283 0.18474 0.0
C1574 C 0.59908 0.63426 0.18943 0.0
C1575 C 0.6298 0.66921 0.17036 0.0
C1576 C 0.64698 0.64713 0.16045 0.0
C1577 C 0.63935 0.61858 0.16394 0.0
C1578 C 0.61564 0.61217 0.17853 0.0
C1579 C 0.67361 0.65392 0.14766 0.0
C1580 C 0.67733 0.6467 0.12039 0.0
C1581 C 0.69472 0.66865 0.16198 0.0
C1582 C 0.69211 0.67634 0.19104 0.0
C1583 C 0.68714 0.65523 0.21055 0.0
C1584 C 0.68411 0.66274 0.23778 0.0
C1585 C 0.68624 0.69129 0.24581 0.0
C1586 C 0.69151 0.71237 0.22663 0.0
C1587 C 0.69451 0.70497 0.19936 0.0
H1588 H 0.68385 0.69707 0.2669 0.0
H1589 H 0.70727 0.63222 1.00016 0.0
H1590 H 0.64328 0.37983 0.4321 0.0
H1591 H 0.63184 0.42275 0.40551 0.0
H1592 H 0.59404 0.46178 0.47537 0.0
H1593 H 0.60504 0.41853 0.50196 0.0
H1594 H 0.5614 0.46866 0.43176 0.0
H1595 H 0.65659 0.48515 0.45254 0.0
H1596 H 0.70676 0.47364 0.45691 0.0
H1597 H 0.71072 0.46044 0.37093 0.0
H1598 H 0.66048 0.47147 0.36607 0.0
H1599 H 0.5475 0.59816 0.34838 0.0
H1600 H 0.56054 0.56655 0.38681 0.0
H1601 H 0.59412 0.50432 0.33109 0.0
H1602 H 0.5806 0.53504 0.29304 0.0
H1603 H 0.63016 0.51687 0.37496 0.0
H1604 H 0.53385 0.49505 0.35573 0.0
H1605 H 0.48308 0.50294 0.3523 0.0
H1606 H 0.48117 0.52461 0.43684 0.0
H1607 H 0.53208 0.51799 0.44054 0.0
C1608 C 0.63274 0.39766 0.44183 0.0
C1609 C 0.62511 0.39595 0.46907 0.0
C1610 C 0.62634 0.42225 0.42668 0.0
C1611 C 0.61245 0.44571 0.43855 0.0
C1612 C 0.60489 0.44403 0.46583 0.0
C1613 C 0.61122 0.41936 0.48099 0.0
C1614 C 0.60469 0.47128 0.42195 0.0
C1615 C 0.57653 0.47972 0.41985 0.0
C1616 C 0.6244 0.48549 0.4062 0.0
C1617 C 0.6547 0.479 0.40897 0.0
C1618 C 0.66811 0.47961 0.43458 0.0
C1619 C 0.69658 0.4732 0.43714 0.0
C1620 C 0.71191 0.46627 0.41422 0.0
C1621 C 0.69882 0.46581 0.38867 0.0
C1622 C 0.67035 0.47219 0.386 0.0
C1623 C 0.55748 0.57765 0.34445 0.0
C1624 C 0.56291 0.56898 0.31774 0.0
C1625 C 0.56495 0.55968 0.36635 0.0
C1626 C 0.57832 0.53314 0.36173 0.0
C1627 C 0.58394 0.52476 0.3351 0.0
C1628 C 0.57613 0.54235 0.31336 0.0
C1629 C 0.5868 0.51364 0.38424 0.0
C1630 C 0.61515 0.50634 0.38744 0.0
C1631 C 0.56726 0.50058 0.40105 0.0
C1632 C 0.5369 0.50652 0.39829 0.0
C1633 C 0.52273 0.50217 0.37344 0.0
C1634 C 0.49388 0.5063 0.37147 0.0
C1635 C 0.47891 0.51431 0.39431 0.0
C1636 C 0.49279 0.51853 0.41912 0.0
C1637 C 0.52166 0.51474 0.42113 0.0
H1638 H 0.45654 0.51723 0.3928 0.0
H1639 H 0.73394 0.4613 0.41624 0.0
H1640 H 0.30122 0.38241 0.1845 0.0
H1641 H 0.33274 0.34284 0.19849 0.0
H1642 H 0.31048 0.29668 0.12572 0.0
H1643 H 0.27906 0.3361 0.11174 0.0
H1644 H 0.31003 0.26265 0.17168 0.0
H1645 H 0.36987 0.33138 0.1302 0.0
H1646 H 0.39086 0.37867 0.12508 0.0
H1647 H 0.42497 0.37306 0.20608 0.0
H1648 H 0.4036 0.32601 0.21193 0.0
H1649 H 0.416 0.15652 0.16123 0.0
H1650 H 0.38168 0.1956 0.15569 0.0
H1651 H 0.42134 0.24138 0.22155 0.0
H1652 H 0.45702 0.20326 0.22531 0.0
H1653 H 0.41151 0.27644 0.18391 0.0
H1654 H 0.35436 0.20664 0.22545 0.0
H1655 H 0.33694 0.15759 0.22933 0.0
H1656 H 0.29868 0.16461 0.15015 0.0
H1657 H 0.31628 0.21348 0.14553 0.0
C1658 C 0.30326 0.36387 0.17148 0.0
C1659 C 0.28792 0.36229 0.14702 0.0
C1660 C 0.32116 0.3413 0.17949 0.0
C1661 C 0.32391 0.31686 0.16311 0.0
C1662 C 0.30853 0.3153 0.13869 0.0
C1663 C 0.29078 0.3379 0.13064 0.0
C1664 C 0.34311 0.29297 0.17108 0.0
C1665 C 0.33224 0.26558 0.17432 0.0
C1666 C 0.37195 0.29702 0.17519 0.0
C1667 C 0.38481 0.32532 0.17162 0.0
C1668 C 0.38158 0.34036 0.14703 0.0
C1669 C 0.39358 0.36711 0.14398 0.0
C1670 C 0.40917 0.3789 0.16527 0.0
C1671 C 0.41287 0.36391 0.18961 0.0
C1672 C 0.40076 0.33723 0.19283 0.0
C1673 C 0.41694 0.17476 0.17476 0.0
C1674 C 0.43873 0.17704 0.19382 0.0
C1675 C 0.3973 0.19704 0.17173 0.0
C1676 C 0.3985 0.22135 0.18856 0.0
C1677 C 0.41989 0.22295 0.20831 0.0
C1678 C 0.44009 0.20115 0.21063 0.0
C1679 C 0.37856 0.24584 0.18444 0.0
C1680 C 0.38925 0.27343 0.18187 0.0
C1681 C 0.34952 0.24202 0.18131 0.0
C1682 C 0.33685 0.21365 0.18505 0.0
C1683 C 0.34221 0.19774 0.20887 0.0
C1684 C 0.33246 0.16991 0.21113 0.0
C1685 C 0.31704 0.1579 0.18986 0.0
C1686 C 0.31082 0.17388 0.16651 0.0
C1687 C 0.32063 0.20167 0.16408 0.0
H1688 H 0.30966 0.13628 0.19158 0.0
H1689 H 0.41842 0.39962 0.16288 0.0
H1690 H 0.93206 0.3018 0.83662 0.0
H1691 H 0.90035 0.26285 0.84442 0.0
H1692 H 0.85022 0.2895 0.77508 0.0
H1693 H 0.88198 0.32878 0.76699 0.0
H1694 H 0.81849 0.27598 0.81991 0.0
H1695 H 0.89041 0.23335 0.7681 0.0
H1696 H 0.93861 0.22162 0.75535 0.0
H1697 H 0.95279 0.17821 0.83123 0.0
H1698 H 0.90476 0.19008 0.84464 0.0
H1699 H 0.74252 0.14564 0.82056 0.0
H1700 H 0.77024 0.18647 0.80729 0.0
H1701 H 0.83082 0.16531 0.87033 0.0
H1702 H 0.80344 0.12411 0.88325 0.0
H1703 H 0.85579 0.17623 0.82382 0.0
H1704 H 0.78331 0.22267 0.87603 0.0
H1705 H 0.7346 0.23447 0.88709 0.0
H1706 H 0.72081 0.27009 0.80759 0.0
H1707 H 0.76939 0.25826 0.79599 0.0
C1708 C 0.91427 0.29956 0.82302 0.0
C1709 C 0.90966 0.31844 0.8011 0.0
C1710 C 0.8962 0.27716 0.82748 0.0
C1711 C 0.87309 0.27311 0.81018 0.0
C1712 C 0.86799 0.29223 0.78863 0.0
C1713 C 0.88622 0.3146 0.784 0.0
C1714 C 0.85459 0.24864 0.81469 0.0
C1715 C 0.8265 0.25411 0.82035 0.0
C1716 C 0.86513 0.22015 0.81546 0.0
C1717 C 0.89403 0.21284 0.80748 0.0
C1718 C 0.90387 0.22151 0.78217 0.0
C1719 C 0.93115 0.2148 0.7748 0.0
C1720 C 0.94877 0.19923 0.79249 0.0
C1721 C 0.93912 0.19029 0.81756 0.0
C1722 C 0.91185 0.19699 0.82505 0.0
C1723 C 0.76165 0.14987 0.83171 0.0
C1724 C 0.77082 0.13182 0.85299 0.0
C1725 C 0.77744 0.17324 0.82416 0.0
C1726 C 0.80252 0.17915 0.83797 0.0
C1727 C 0.81155 0.16119 0.85937 0.0
C1728 C 0.79585 0.13774 0.86682 0.0
C1729 C 0.8198 0.20358 0.8298 0.0
C1730 C 0.8477 0.19807 0.8233 0.0
C1731 C 0.80899 0.23197 0.82801 0.0
C1732 C 0.77989 0.23936 0.83508 0.0
C1733 C 0.76984 0.23288 0.86087 0.0
C1734 C 0.74227 0.23961 0.86724 0.0
C1735 C 0.72461 0.25297 0.84803 0.0
C1736 C 0.73451 0.25973 0.82244 0.0
C1737 C 0.76206 0.25306 0.81598 0.0
H1738 H 0.70326 0.25814 0.853 0.0
H1739 H 0.96989 0.19405 0.78675 0.0
H1740 H 0.10948 0.54548 0.14616 0.0
H1741 H 0.06734 0.5737 0.13503 0.0
H1742 H 0.06323 0.53442 0.05593 0.0
H1743 H 0.10555 0.50611 0.06699 0.0
H1744 H 0.05381 0.59292 0.05395 0.0
H1745 H 0.01977 0.51315 0.1026 0.0
H1746 H 0.01809 0.47863 0.14027 0.0
H1747 H 0.99999 0.54704 0.19571 0.0
H1748 H 0.00196 0.58203 0.15844 0.0
H1749 H 0.91772 0.65588 0.03097 0.0
H1750 H 0.95336 0.61765 0.03629 0.0
H1751 H 0.97416 0.64932 0.11619 0.0
H1752 H 0.9388 0.68742 0.11078 0.0
H1753 H 0.97208 0.58934 0.11352 0.0
H1754 H 0.00911 0.66922 0.06569 0.0
H1755 H 0.0116 0.70419 0.02855 0.0
H1756 H 0.02614 0.6361 0.97185 0.0
H1757 H 0.02245 0.60056 0.00846 0.0
C1758 C 0.09962 0.54291 0.12639 0.0
C1759 C 0.11068 0.52362 0.10744 0.0
C1760 C 0.0755 0.55894 0.12009 0.0
C1761 C 0.06198 0.55589 0.09477 0.0
C1762 C 0.07331 0.53701 0.0756 0.0
C1763 C 0.09741 0.52086 0.08195 0.0
C1764 C 0.03606 0.57256 0.08848 0.0
C1765 C 0.03568 0.59173 0.06659 0.0
C1766 C 0.01262 0.57124 0.10527 0.0
C1767 C 0.01122 0.55024 0.12774 0.0
C1768 C 0.01563 0.52086 0.12286 0.0
C1769 C 0.01459 0.5012 0.14413 0.0
C1770 C 0.00899 0.51064 0.17037 0.0
C1771 C 0.00434 0.53976 0.17538 0.0
C1772 C 0.00538 0.55951 0.15417 0.0
C1773 C 0.92931 0.65401 0.04992 0.0
C1774 C 0.92531 0.67414 0.07066 0.0
C1775 C 0.94984 0.63245 0.05284 0.0
C1776 C 0.96638 0.63073 0.07664 0.0
C1777 C 0.96153 0.6502 0.09774 0.0
C1778 C 0.94142 0.67195 0.09463 0.0
C1779 C 0.98999 0.60999 0.07925 0.0
C1780 C 0.98997 0.59011 0.10053 0.0
C1781 C 0.01306 0.61075 0.0619 0.0
C1782 C 0.01492 0.63214 0.03978 0.0
C1783 C 0.01228 0.66162 0.04523 0.0
C1784 C 0.01391 0.68157 0.02426 0.0
C1785 C 0.01876 0.67236 0.9978 0.0
C1786 C 0.0221 0.64319 0.9923 0.0
C1787 C 0.02011 0.62312 0.01314 0.0
H1788 H 0.0201 0.68784 0.98159 0.0
H1789 H 0.0082 0.49539 0.18682 0.0
H1790 H 0.6991 0.89618 0.32604 0.0
H1791 H 0.6678 0.85742 0.31341 0.0
H1792 H 0.65958 0.83591 0.39778 0.0
H1793 H 0.69081 0.87478 0.41049 0.0
H1794 H 0.67343 0.78935 0.366 0.0
H1795 H 0.60701 0.86607 0.3648 0.0
H1796 H 0.58455 0.91235 0.35289 0.0
H1797 H 0.57915 0.88703 0.26932 0.0
H1798 H 0.60236 0.84088 0.28055 0.0
H1799 H 0.56431 0.68927 0.346 0.0
H1800 H 0.59049 0.73112 0.36055 0.0
H1801 H 0.60678 0.75118 0.27717 0.0
H1802 H 0.58101 0.7091 0.2624 0.0
H1803 H 0.58702 0.79884 0.30969 0.0
H1804 H 0.65749 0.72453 0.31036 0.0
H1805 H 0.6777 0.67718 0.32231 0.0
H1806 H 0.67343 0.69806 0.40693 0.0
H1807 H 0.65281 0.74545 0.39546 0.0
C1808 C 0.69008 0.88359 0.34188 0.0
C1809 C 0.69714 0.88861 0.36921 0.0
C1810 C 0.67224 0.86147 0.33467 0.0
C1811 C 0.66114 0.84397 0.35465 0.0
C1812 C 0.66781 0.84926 0.38203 0.0
C1813 C 0.68555 0.8715 0.38927 0.0
C1814 C 0.64424 0.81895 0.34676 0.0
C1815 C 0.6543 0.79152 0.35406 0.0
C1816 C 0.61963 0.82171 0.33055 0.0
C1817 C 0.6068 0.85005 0.32351 0.0
C1818 C 0.6015 0.8705 0.3438 0.0
C1819 C 0.5885 0.8967 0.33719 0.0
C1820 C 0.58038 0.90261 0.31038 0.0
C1821 C 0.58537 0.88239 0.2901 0.0
C1822 C 0.59855 0.85624 0.29657 0.0
C1823 C 0.57348 0.70254 0.33074 0.0
C1824 C 0.57061 0.69583 0.30304 0.0
C1825 C 0.58846 0.72641 0.3391 0.0
C1826 C 0.60054 0.7442 0.31993 0.0
C1827 C 0.59754 0.73773 0.29226 0.0
C1828 C 0.58294 0.7136 0.28389 0.0
C1829 C 0.61638 0.76954 0.32881 0.0
C1830 C 0.60615 0.79689 0.32167 0.0
C1831 C 0.64083 0.7668 0.34508 0.0
C1832 C 0.65332 0.7384 0.35206 0.0
C1833 C 0.66062 0.71892 0.33153 0.0
C1834 C 0.6722 0.6921 0.33821 0.0
C1835 C 0.67677 0.68458 0.36537 0.0
C1836 C 0.66984 0.7039 0.3859 0.0
C1837 C 0.65822 0.73076 0.37932 0.0
H1838 H 0.68574 0.6638 0.37051 0.0
H1839 H 0.57031 0.92289 0.30531 0.0
H1840 H 0.5935 0.34248 0.61518 0.0
H1841 H 0.5497 0.36764 0.62505 0.0
H1842 H 0.52644 0.3658 0.54012 0.0
H1843 H 0.57037 0.34109 0.53007 0.0
H1844 H 0.50993 0.41559 0.5637 0.0
H1845 H 0.5041 0.31485 0.58198 0.0
H1846 H 0.51902 0.26901 0.60293 0.0
H1847 H 0.50766 0.30496 0.68215 0.0
H1848 H 0.49305 0.35118 0.66164 0.0
H1849 H 0.36527 0.43565 0.57606 0.0
H1850 H 0.4096 0.41156 0.5662 0.0
H1851 H 0.43322 0.41496 0.651 0.0
H1852 H 0.38879 0.43881 0.66101 0.0
H1853 H 0.44961 0.36471 0.62745 0.0
H1854 H 0.45411 0.46545 0.60858 0.0
H1855 H 0.43914 0.51102 0.58713 0.0
H1856 H 0.45276 0.4749 0.50837 0.0
H1857 H 0.46732 0.42889 0.52934 0.0
C1858 C 0.57927 0.34795 0.59857 0.0
C1859 C 0.58506 0.33952 0.57194 0.0
C1860 C 0.55425 0.36219 0.60424 0.0
C1861 C 0.53461 0.36796 0.58338 0.0
C1862 C 0.54125 0.36135 0.55651 0.0
C1863 C 0.56631 0.34721 0.55082 0.0
C1864 C 0.50641 0.37895 0.58974 0.0
C1865 C 0.49661 0.40434 0.57741 0.0
C1866 C 0.48923 0.36439 0.60791 0.0
C1867 C 0.49775 0.33655 0.62028 0.0
C1868 C 0.50497 0.31304 0.60387 0.0
C1869 C 0.51335 0.28698 0.61566 0.0
C1870 C 0.51436 0.2841 0.64385 0.0
C1871 C 0.50691 0.30724 0.66031 0.0
C1872 C 0.49857 0.33337 0.64862 0.0
C1873 C 0.37967 0.43066 0.59266 0.0
C1874 C 0.3738 0.43923 0.61925 0.0
C1875 C 0.40502 0.41711 0.58698 0.0
C1876 C 0.42487 0.4121 0.6078 0.0
C1877 C 0.41822 0.41885 0.63464 0.0
C1878 C 0.39285 0.4324 0.64034 0.0
C1879 C 0.45313 0.40137 0.60145 0.0
C1880 C 0.46293 0.37599 0.61376 0.0
C1881 C 0.47024 0.41591 0.58319 0.0
C1882 C 0.46153 0.44361 0.57054 0.0
C1883 C 0.45367 0.46712 0.58668 0.0
C1884 C 0.44529 0.49305 0.57461 0.0
C1885 C 0.44494 0.49583 0.54641 0.0
C1886 C 0.45299 0.47269 0.53022 0.0
C1887 C 0.46131 0.44668 0.54219 0.0
H1888 H 0.43855 0.51595 0.53711 0.0
H1889 H 0.52086 0.26391 0.65295 0.0
H1890 H 0.1836 0.60805 0.6187 0.0
H1891 H 0.15436 0.6502 0.62836 0.0
H1892 H 0.2268 0.69567 0.65582 0.0
H1893 H 0.25618 0.65344 0.64637 0.0
H1894 H 0.1834 0.70263 0.69028 0.0
H1895 H 0.19826 0.71073 0.59486 0.0
H1896 H 0.19905 0.69412 0.54743 0.0
H1897 H 0.11105 0.68059 0.54859 0.0
H1898 H 0.1098 0.69675 0.59617 0.0
H1899 H 0.11026 0.83691 0.69686 0.0
H1900 H 0.14425 0.7988 0.68634 0.0
H1901 H 0.07878 0.7497 0.64887 0.0
H1902 H 0.04519 0.78826 0.6586 0.0
H1903 H 0.122 0.74672 0.61905 0.0
H1904 H 0.10708 0.73692 0.71497 0.0
H1905 H 0.10572 0.75522 0.76182 0.0
H1906 H 0.19324 0.77124 0.76027 0.0
H1907 H 0.19502 0.75373 0.71313 0.0
C1908 C 0.19328 0.62709 0.62667 0.0
C1909 C 0.22211 0.62763 0.63161 0.0
C1910 C 0.1766 0.65114 0.63213 0.0
C1911 C 0.18849 0.67614 0.64255 0.0
C1912 C 0.21728 0.67661 0.64773 0.0
C1913 C 0.234 0.65257 0.64219 0.0
C1914 C 0.17076 0.70169 0.64815 0.0
C1915 C 0.17022 0.71255 0.67466 0.0
C1916 C 0.15332 0.71432 0.62783 0.0
C1917 C 0.15399 0.70473 0.59916 0.0
C1918 C 0.17912 0.70401 0.58507 0.0
C1919 C 0.17964 0.69471 0.55814 0.0
C1920 C 0.15513 0.68625 0.54502 0.0
C1921 C 0.13002 0.68713 0.55879 0.0
C1922 C 0.12939 0.69639 0.58572 0.0
C1923 C 0.10325 0.81776 0.68672 0.0
C1924 C 0.07524 0.81504 0.67897 0.0
C1925 C 0.1226 0.79606 0.68063 0.0
C1926 C 0.11401 0.77108 0.66725 0.0
C1927 C 0.08594 0.76869 0.65924 0.0
C1928 C 0.06676 0.79061 0.66487 0.0
C1929 C 0.13407 0.74738 0.66137 0.0
C1930 C 0.13516 0.73689 0.63473 0.0
C1931 C 0.15188 0.73502 0.68164 0.0
C1932 C 0.15109 0.74438 0.71038 0.0
C1933 C 0.12602 0.74447 0.72457 0.0
C1934 C 0.12516 0.75474 0.75116 0.0
C1935 C 0.14934 0.76456 0.76391 0.0
C1936 C 0.17451 0.76377 0.75028 0.0
C1937 C 0.17544 0.75371 0.72361 0.0
H1938 H 0.1485 0.77297 0.78429 0.0
H1939 H 0.15558 0.67905 0.52418 0.0
H1940 H 0.43315 0.81668 0.88869 0.0
H1941 H 0.475 0.8397 0.87253 0.0
H1942 H 0.49967 0.85858 0.95513 0.0
H1943 H 0.45774 0.83679 0.97123 0.0
H1944 H 0.50982 0.90199 0.92586 0.0
H1945 H 0.52798 0.80084 0.91763 0.0
H1946 H 0.51909 0.75168 0.90205 0.0
H1947 H 0.52401 0.77892 0.81921 0.0
H1948 H 0.53256 0.82835 0.83432 0.0
H1949 H 0.65113 0.92859 0.91286 0.0
H1950 H 0.61044 0.90015 0.92286 0.0
H1951 H 0.58478 0.90348 0.83862 0.0
H1952 H 0.62551 0.93195 0.82847 0.0
H1953 H 0.5748 0.8495 0.86572 0.0
H1954 H 0.55825 0.95148 0.8765 0.0
H1955 H 0.56997 0.99912 0.89436 0.0
H1956 H 0.56459 0.96779 0.97583 0.0
H1957 H 0.55325 0.91981 0.95843 0.0
C1958 C 0.4474 0.82597 0.90335 0.0
C1959 C 0.4421 0.82483 0.93124 0.0
C1960 C 0.47141 0.83895 0.89411 0.0
C1961 C 0.49077 0.85047 0.91264 0.0
C1962 C 0.4851 0.84989 0.94041 0.0
C1963 C 0.46103 0.83735 0.94959 0.0
C1964 C 0.51711 0.86298 0.90348 0.0
C1965 C 0.52406 0.89031 0.91291 0.0
C1966 C 0.53564 0.84803 0.88623 0.0
C1967 C 0.53059 0.81834 0.8771 0.0
C1968 C 0.52695 0.79638 0.89609 0.0
C1969 C 0.52201 0.76847 0.88734 0.0
C1970 C 0.5209 0.7622 0.85965 0.0
C1971 C 0.52482 0.78382 0.84065 0.0
C1972 C 0.52973 0.81178 0.84929 0.0
C1973 C 0.6372 0.92262 0.89638 0.0
C1974 C 0.64122 0.93264 0.86998 0.0
C1975 C 0.61398 0.90646 0.90212 0.0
C1976 C 0.59449 0.90014 0.88153 0.0
C1977 C 0.59961 0.90823 0.85475 0.0
C1978 C 0.62281 0.9245 0.84901 0.0
C1979 C 0.56741 0.88806 0.8885 0.0
C1980 C 0.56036 0.86102 0.87858 0.0
C1981 C 0.54893 0.90302 0.90566 0.0
C1982 C 0.55508 0.93202 0.91616 0.0
C1983 C 0.55971 0.95472 0.89822 0.0
C1984 C 0.56628 0.98177 0.90826 0.0
C1985 C 0.56805 0.98646 0.9362 0.0
C1986 C 0.56321 0.96411 0.95418 0.0
C1987 C 0.55668 0.93699 0.94425 0.0
H1988 H 0.57308 0.00744 0.94392 0.0
H1989 H 0.51707 0.74057 0.85292 0.0
H1990 H 0.90774 0.9974 0.42227 0.0
H1991 H 0.95025 0.02449 0.43079 0.0
H1992 H 0.91564 0.09484 0.3837 0.0
H1993 H 0.87288 0.0681 0.37561 0.0
H1994 H 0.97318 0.07597 0.37116 0.0
H1995 H 0.91503 0.10162 0.44794 0.0
H1996 H 0.88739 0.08888 0.48754 0.0
H1997 H 0.95908 0.04713 0.52438 0.0
H1998 H 0.98704 0.05926 0.48478 0.0
H1999 H 0.06245 0.18947 0.39628 0.0
H2000 H 0.02406 0.15707 0.38974 0.0
H2001 H 0.05017 0.11061 0.46186 0.0
H2002 H 0.08728 0.14496 0.46974 0.0
H2003 H 0.99904 0.11217 0.46259 0.0
H2004 H 0.05861 0.08503 0.3915 0.0
H2005 H 0.08894 0.09059 0.35225 0.0
H2006 H 0.02009 0.12543 0.30523 0.0
H2007 H 0.98941 0.12044 0.34431 0.0
C2008 C 0.90922 0.01865 0.41376 0.0
C2009 C 0.88703 0.03067 0.39827 0.0
C2010 C 0.93347 0.0341 0.41868 0.0
C2011 C 0.93609 0.06168 0.4079 0.0
C2012 C 0.91406 0.07357 0.39218 0.0
C2013 C 0.88963 0.05833 0.38764 0.0
C2014 C 0.96175 0.07826 0.41297 0.0
C2015 C 0.97878 0.0842 0.39106 0.0
C2016 C 0.96971 0.08768 0.43919 0.0
C2017 C 0.95305 0.08111 0.46328 0.0
C2018 C 0.92485 0.08957 0.4644 0.0
C2019 C 0.90913 0.08247 0.48686 0.0
C2020 C 0.92144 0.06712 0.50843 0.0
C2021 C 0.94955 0.05898 0.50764 0.0
C2022 C 0.96535 0.06599 0.48521 0.0
C2023 C 0.06022 0.1722 0.41064 0.0
C2024 C 0.0782 0.16957 0.43336 0.0
C2025 C 0.03827 0.1534 0.40675 0.0
C2026 C 0.03436 0.13061 0.42481 0.0
C2027 C 0.05259 0.1278 0.44744 0.0
C2028 C 0.07405 0.14728 0.45184 0.0
C2029 C 0.01062 0.11067 0.42054 0.0
C2030 C 0.99385 0.10393 0.44261 0.0
C2031 C 0.00342 0.09958 0.39456 0.0
C2032 C 0.02176 0.10255 0.37093 0.0
C2033 C 0.04997 0.09404 0.37284 0.0
C2034 C 0.06722 0.09708 0.35062 0.0
C2035 C 0.05646 0.10841 0.32628 0.0
C2036 C 0.0284 0.11667 0.3241 0.0
C2037 C 0.01106 0.11371 0.34627 0.0
H2038 H 0.06986 0.11075 0.3091 0.0
H2039 H 0.90922 0.06159 0.52576 0.0
loop_
_geom_bond_atom_site_label_1
_geom_bond_atom_site_label_2
_geom_bond_distance
_geom_bond_site_symmetry_2
_ccdc_geom_bond_type
Dy0 O4 2.398 . S
Dy0 O5 2.491 . S
Dy0 O6 2.403 . S
Dy0 O7 2.664 . S
Dy0 O11 2.326 . S
Dy0 O15 2.310 . S
Dy0 O16 2.351 . S
C1 O12 1.185 . S
C1 O13 1.355 . S
C2 O4 1.185 . S
C2 O5 1.355 . S
Dy3 O7 2.310 . S
Dy3 O10 2.351 . S
Dy3 O12 2.398 . S
Dy3 O13 2.491 . S
Dy3 O14 2.403 . S
Dy3 O15 2.664 . S
Dy3 O17 2.326 . S
O4 Dy0 2.398 . S
O4 C2 1.185 . S
O5 Dy0 2.491 . S
O5 C2 1.355 . S
O6 Dy0 2.403 . S
O6 C8 1.254 . S
O7 Dy0 2.664 . S
O7 Dy3 2.310 . S
O7 C8 1.268 . S
C8 O6 1.254 . S
C8 O7 1.268 . S
C9 O14 1.254 . S
C9 O15 1.268 . S
O10 Dy3 2.351 . S
O10 C18 1.249 . S
O11 Dy0 2.326 . S
O11 C18 1.267 . S
O12 C1 1.185 . S
O12 Dy3 2.398 . S
O13 C1 1.355 . S
O13 Dy3 2.491 . S
O14 Dy3 2.403 . S
O14 C9 1.254 . S
O15 Dy0 2.310 . S
O15 Dy3 2.664 . S
O15 C9 1.268 . S
O16 Dy0 2.351 . S
O16 C19 1.249 . S
O17 Dy3 2.326 . S
O17 C19 1.267 . S
C18 O10 1.249 . S
C18 O11 1.267 . S
C19 O16 1.249 . S
C19 O17 1.267 . S
Dy20 O24 2.398 . S
Dy20 O25 2.491 . S
Dy20 O26 2.403 1_655 S
Dy20 O27 2.664 1_655 S
Dy20 O31 2.326 1_655 S
Dy20 O35 2.310 1_655 S
Dy20 O36 2.351 . S
C21 O32 1.185 . S
C21 O33 1.355 . S
C22 O24 1.185 . S
C22 O25 1.355 . S
Dy23 O27 2.310 . S
Dy23 O30 2.351 . S
Dy23 O32 2.398 . S
Dy23 O33 2.491 . S
Dy23 O34 2.403 . S
Dy23 O35 2.664 . S
Dy23 O37 2.326 . S
O24 Dy20 2.398 . S
O24 C22 1.185 . S
O25 Dy20 2.491 . S
O25 C22 1.355 . S
O26 Dy20 2.403 1_455 S
O26 C28 1.254 . S
O27 Dy20 2.664 1_455 S
O27 Dy23 2.310 . S
O27 C28 1.268 . S
C28 O26 1.254 . S
C28 O27 1.268 . S
C29 O34 1.255 1_655 S
C29 O35 1.268 1_655 S
O30 Dy23 2.351 . S
O30 C38 1.249 . S
O31 Dy20 2.326 1_455 S
O31 C38 1.267 . S
O32 C21 1.185 . S
O32 Dy23 2.398 . S
O33 C21 1.355 . S
O33 Dy23 2.491 . S
O34 Dy23 2.403 . S
O34 C29 1.255 1_455 S
O35 Dy20 2.310 1_455 S
O35 Dy23 2.664 . S
O35 C29 1.268 1_455 S
O36 Dy20 2.351 . S
O36 C39 1.249 1_655 S
O37 Dy23 2.326 . S
O37 C39 1.267 . S
C38 O30 1.249 . S
C38 O31 1.267 . S
C39 O36 1.249 1_455 S
C39 O37 1.267 . S
Dy40 O44 2.398 1_556 S
Dy40 O45 2.491 1_556 S
Dy40 O46 2.403 . S
Dy40 O47 2.664 . S
Dy40 O51 2.326 . S
Dy40 O55 2.310 . S
Dy40 O56 2.351 . S
C41 O52 1.185 . S
C41 O53 1.355 . S
C42 O44 1.185 . S
C42 O45 1.355 . S
Dy43 O47 2.310 . S
Dy43 O50 2.351 . S
Dy43 O52 2.398 . S
Dy43 O53 2.491 . S
Dy43 O54 2.403 . S
Dy43 O55 2.664 . S
Dy43 O57 2.326 . S
O44 Dy40 2.398 1_554 S
O44 C42 1.185 . S
O45 Dy40 2.491 1_554 S
O45 C42 1.355 . S
O46 Dy40 2.403 . S
O46 C48 1.254 . S
O47 Dy40 2.664 . S
O47 Dy43 2.310 . S
O47 C48 1.268 . S
C48 O46 1.254 . S
C48 O47 1.268 . S
C49 O54 1.254 . S
C49 O55 1.268 . S
O50 Dy43 2.351 . S
O50 C58 1.249 . S
O51 Dy40 2.326 . S
O51 C58 1.267 . S
O52 C41 1.185 . S
O52 Dy43 2.398 . S
O53 C41 1.355 . S
O53 Dy43 2.491 . S
O54 Dy43 2.403 . S
O54 C49 1.254 . S
O55 Dy40 2.310 . S
O55 Dy43 2.664 . S
O55 C49 1.268 . S
O56 Dy40 2.351 . S
O56 C59 1.249 . S
O57 Dy43 2.326 . S
O57 C59 1.267 . S
C58 O50 1.249 . S
C58 O51 1.267 . S
C59 O56 1.249 . S
C59 O57 1.267 . S
Dy60 O64 2.398 . S
Dy60 O65 2.491 . S
Dy60 O66 2.403 . S
Dy60 O67 2.664 . S
Dy60 O71 2.326 . S
Dy60 O75 2.310 . S
Dy60 O76 2.351 . S
C61 O72 1.185 . S
C61 O73 1.355 . S
C62 O64 1.185 . S
C62 O65 1.355 . S
Dy63 O67 2.310 . S
Dy63 O70 2.351 . S
Dy63 O72 2.398 . S
Dy63 O73 2.491 . S
Dy63 O74 2.403 . S
Dy63 O75 2.664 . S
Dy63 O77 2.326 . S
O64 Dy60 2.398 . S
O64 C62 1.185 . S
O65 Dy60 2.491 . S
O65 C62 1.355 . S
O66 Dy60 2.403 . S
O66 C68 1.254 . S
O67 Dy60 2.664 . S
O67 Dy63 2.310 . S
O67 C68 1.268 . S
C68 O66 1.254 . S
C68 O67 1.268 . S
C69 O74 1.254 . S
C69 O75 1.268 . S
O70 Dy63 2.351 . S
O70 C78 1.249 . S
O71 Dy60 2.326 . S
O71 C78 1.267 . S
O72 C61 1.185 . S
O72 Dy63 2.398 . S
O73 C61 1.355 . S
O73 Dy63 2.491 . S
O74 Dy63 2.403 . S
O74 C69 1.254 . S
O75 Dy60 2.310 . S
O75 Dy63 2.664 . S
O75 C69 1.268 . S
O76 Dy60 2.351 . S
O76 C79 1.249 . S
O77 Dy63 2.326 . S
O77 C79 1.267 . S
C78 O70 1.249 . S
C78 O71 1.267 . S
C79 O76 1.249 . S
C79 O77 1.267 . S
Dy80 O84 2.398 . S
Dy80 O85 2.491 . S
Dy80 O86 2.403 . S
Dy80 O87 2.664 . S
Dy80 O91 2.326 . S
Dy80 O95 2.310 . S
Dy80 O96 2.351 . S
C81 O92 1.185 . S
C81 O93 1.355 . S
C82 O84 1.185 . S
C82 O85 1.355 . S
Dy83 O87 2.310 . S
Dy83 O90 2.351 . S
Dy83 O92 2.398 . S
Dy83 O93 2.491 . S
Dy83 O94 2.403 . S
Dy83 O95 2.664 . S
Dy83 O97 2.326 . S
O84 Dy80 2.398 . S
O84 C82 1.185 . S
O85 Dy80 2.491 . S
O85 C82 1.355 . S
O86 Dy80 2.403 . S
O86 C88 1.254 . S
O87 Dy80 2.664 . S
O87 Dy83 2.310 . S
O87 C88 1.268 . S
C88 O86 1.254 . S
C88 O87 1.268 . S
C89 O94 1.254 . S
C89 O95 1.268 . S
O90 Dy83 2.351 . S
O90 C98 1.249 . S
O91 Dy80 2.326 . S
O91 C98 1.267 . S
O92 C81 1.185 . S
O92 Dy83 2.398 . S
O93 C81 1.355 . S
O93 Dy83 2.491 . S
O94 Dy83 2.403 . S
O94 C89 1.254 . S
O95 Dy80 2.310 . S
O95 Dy83 2.664 . S
O95 C89 1.268 . S
O96 Dy80 2.351 . S
O96 C99 1.249 . S
O97 Dy83 2.326 . S
O97 C99 1.267 . S
C98 O90 1.249 . S
C98 O91 1.267 . S
C99 O96 1.249 . S
C99 O97 1.267 . S
Dy100 O104 2.398 . S
Dy100 O105 2.491 . S
Dy100 O106 2.403 . S
Dy100 O107 2.664 . S
Dy100 O111 2.326 . S
Dy100 O115 2.310 . S
Dy100 O116 2.351 . S
C101 O112 1.185 . S
C101 O113 1.355 . S
C102 O104 1.185 . S
C102 O105 1.355 . S
Dy103 O107 2.310 1_455 S
Dy103 O110 2.351 1_455 S
Dy103 O112 2.398 . S
Dy103 O113 2.491 . S
Dy103 O114 2.403 . S
Dy103 O115 2.664 1_455 S
Dy103 O117 2.326 . S
O104 Dy100 2.398 . S
O104 C102 1.185 . S
O105 Dy100 2.491 . S
O105 C102 1.355 . S
O106 Dy100 2.403 . S
O106 C108 1.254 . S
O107 Dy100 2.664 . S
O107 Dy103 2.310 1_655 S
O107 C108 1.268 . S
C108 O106 1.254 . S
C108 O107 1.268 . S
C109 O114 1.254 . S
C109 O115 1.268 1_455 S
O110 Dy103 2.351 1_655 S
O110 C118 1.249 . S
O111 Dy100 2.326 . S
O111 C118 1.267 . S
O112 C101 1.185 . S
O112 Dy103 2.398 . S
O113 C101 1.355 . S
O113 Dy103 2.491 . S
O114 Dy103 2.403 . S
O114 C109 1.254 . S
O115 Dy100 2.310 . S
O115 Dy103 2.664 1_655 S
O115 C109 1.268 1_655 S
O116 Dy100 2.351 . S
O116 C119 1.249 1_655 S
O117 Dy103 2.326 . S
O117 C119 1.267 . S
C118 O110 1.249 . S
C118 O111 1.267 . S
C119 O116 1.249 1_455 S
C119 O117 1.267 . S
Dy120 O124 2.398 . S
Dy120 O125 2.491 . S
Dy120 O126 2.403 . S
Dy120 O127 2.664 . S
Dy120 O131 2.326 . S
Dy120 O135 2.310 . S
Dy120 O136 2.351 . S
C121 O132 1.185 . S
C121 O133 1.355 . S
C122 O124 1.185 . S
C122 O125 1.355 . S
Dy123 O127 2.310 . S
Dy123 O130 2.351 . S
Dy123 O132 2.398 1_554 S
Dy123 O133 2.491 1_554 S
Dy123 O134 2.403 1_554 S
Dy123 O135 2.664 . S
Dy123 O137 2.326 1_554 S
O124 Dy120 2.398 . S
O124 C122 1.185 . S
O125 Dy120 2.491 . S
O125 C122 1.355 . S
O126 Dy120 2.403 . S
O126 C128 1.254 . S
O127 Dy120 2.664 . S
O127 Dy123 2.310 . S
O127 C128 1.268 . S
C128 O126 1.254 . S
C128 O127 1.268 . S
C129 O134 1.254 1_554 S
C129 O135 1.268 . S
O130 Dy123 2.351 . S
O130 C138 1.249 . S
O131 Dy120 2.326 . S
O131 C138 1.267 . S
O132 C121 1.185 . S
O132 Dy123 2.398 1_556 S
O133 C121 1.355 . S
O133 Dy123 2.491 1_556 S
O134 Dy123 2.403 1_556 S
O134 C129 1.254 1_556 S
O135 Dy120 2.310 . S
O135 Dy123 2.664 . S
O135 C129 1.268 . S
O136 Dy120 2.351 . S
O136 C139 1.249 1_554 S
O137 Dy123 2.326 1_556 S
O137 C139 1.267 . S
C138 O130 1.249 . S
C138 O131 1.267 . S
C139 O136 1.249 1_556 S
C139 O137 1.267 . S
Dy140 O144 2.398 . S
Dy140 O145 2.491 . S
Dy140 O146 2.403 . S
Dy140 O147 2.664 . S
Dy140 O151 2.326 . S
Dy140 O155 2.310 . S
Dy140 O156 2.351 . S
C141 O152 1.185 . S
C141 O153 1.355 . S
C142 O144 1.185 . S
C142 O145 1.355 . S
Dy143 O147 2.310 . S
Dy143 O150 2.351 . S
Dy143 O152 2.398 . S
Dy143 O153 2.491 . S
Dy143 O154 2.403 . S
Dy143 O155 2.664 . S
Dy143 O157 2.326 . S
O144 Dy140 2.398 . S
O144 C142 1.185 . S
O145 Dy140 2.491 . S
O145 C142 1.355 . S
O146 Dy140 2.403 . S
O146 C148 1.254 . S
O147 Dy140 2.664 . S
O147 Dy143 2.310 . S
O147 C148 1.268 . S
C148 O146 1.254 . S
C148 O147 1.268 . S
C149 O154 1.254 . S
C149 O155 1.268 . S
O150 Dy143 2.351 . S
O150 C158 1.249 . S
O151 Dy140 2.326 . S
O151 C158 1.267 . S
O152 C141 1.185 . S
O152 Dy143 2.398 . S
O153 C141 1.355 . S
O153 Dy143 2.491 . S
O154 Dy143 2.403 . S
O154 C149 1.254 . S
O155 Dy140 2.310 . S
O155 Dy143 2.664 . S
O155 C149 1.268 . S
O156 Dy140 2.351 . S
O156 C159 1.249 . S
O157 Dy143 2.326 . S
O157 C159 1.267 . S
C158 O150 1.249 . S
C158 O151 1.267 . S
C159 O156 1.249 . S
C159 O157 1.267 . S
Dy160 O164 2.398 . S
Dy160 O165 2.491 . S
Dy160 O166 2.403 . S
Dy160 O167 2.664 . S
Dy160 O171 2.326 . S
Dy160 O175 2.310 . S
Dy160 O176 2.351 . S
C161 O172 1.185 . S
C161 O173 1.355 . S
C162 O164 1.185 . S
C162 O165 1.355 . S
Dy163 O167 2.310 . S
Dy163 O170 2.351 . S
Dy163 O172 2.398 . S
Dy163 O173 2.491 . S
Dy163 O174 2.403 . S
Dy163 O175 2.664 . S
Dy163 O177 2.326 . S
O164 Dy160 2.398 . S
O164 C162 1.185 . S
O165 Dy160 2.491 . S
O165 C162 1.355 . S
O166 Dy160 2.403 . S
O166 C168 1.254 . S
O167 Dy160 2.664 . S
O167 Dy163 2.310 . S
O167 C168 1.268 . S
C168 O166 1.254 . S
C168 O167 1.268 . S
C169 O174 1.254 . S
C169 O175 1.268 . S
O170 Dy163 2.351 . S
O170 C178 1.249 . S
O171 Dy160 2.326 . S
O171 C178 1.267 . S
O172 C161 1.185 . S
O172 Dy163 2.398 . S
O173 C161 1.355 . S
O173 Dy163 2.491 . S
O174 Dy163 2.403 . S
O174 C169 1.254 . S
O175 Dy160 2.310 . S
O175 Dy163 2.664 . S
O175 C169 1.268 . S
O176 Dy160 2.351 . S
O176 C179 1.249 . S
O177 Dy163 2.326 . S
O177 C179 1.267 . S
C178 O170 1.249 . S
C178 O171 1.267 . S
C179 O176 1.249 . S
C179 O177 1.267 . S
Dy180 O184 2.398 1_545 S
Dy180 O185 2.491 1_545 S
Dy180 O186 2.403 . S
Dy180 O187 2.664 . S
Dy180 O191 2.326 . S
Dy180 O195 2.310 . S
Dy180 O196 2.351 . S
C181 O192 1.185 . S
C181 O193 1.355 . S
C182 O184 1.185 . S
C182 O185 1.355 . S
Dy183 O187 2.310 . S
Dy183 O190 2.351 . S
Dy183 O192 2.398 . S
Dy183 O193 2.491 . S
Dy183 O194 2.403 . S
Dy183 O195 2.664 . S
Dy183 O197 2.326 . S
O184 Dy180 2.398 1_565 S
O184 C182 1.185 . S
O185 Dy180 2.491 1_565 S
O185 C182 1.355 . S
O186 Dy180 2.403 . S
O186 C188 1.254 . S
O187 Dy180 2.664 . S
O187 Dy183 2.310 . S
O187 C188 1.268 . S
C188 O186 1.254 . S
C188 O187 1.268 . S
C189 O194 1.254 . S
C189 O195 1.268 . S
O190 Dy183 2.351 . S
O190 C198 1.249 . S
O191 Dy180 2.326 . S
O191 C198 1.267 . S
O192 C181 1.185 . S
O192 Dy183 2.398 . S
O193 C181 1.355 . S
O193 Dy183 2.491 . S
O194 Dy183 2.403 . S
O194 C189 1.254 . S
O195 Dy180 2.310 . S
O195 Dy183 2.664 . S
O195 C189 1.268 . S
O196 Dy180 2.351 . S
O196 C199 1.249 . S
O197 Dy183 2.326 . S
O197 C199 1.267 . S
C198 O190 1.249 . S
C198 O191 1.267 . S
C199 O196 1.249 . S
C199 O197 1.267 . S
Dy200 O204 2.398 . S
Dy200 O205 2.491 . S
Dy200 O206 2.403 . S
Dy200 O207 2.664 . S
Dy200 O211 2.326 . S
Dy200 O215 2.310 . S
Dy200 O216 2.351 . S
C201 O212 1.185 . S
C201 O213 1.355 . S
C202 O204 1.185 . S
C202 O205 1.355 . S
Dy203 O207 2.283 1_545 S
Dy203 O210 2.317 1_545 S
Dy203 O212 2.437 . S
Dy203 O213 2.512 . S
Dy203 O214 2.418 . S
Dy203 O215 2.650 1_545 S
Dy203 O217 2.345 . S
O204 Dy200 2.398 . S
O204 C202 1.185 . S
O205 Dy200 2.491 . S
O205 C202 1.355 . S
O206 Dy200 2.403 . S
O206 C208 1.254 . S
O207 Dy200 2.664 . S
O207 Dy203 2.283 1_565 S
O207 C208 1.268 . S
C208 O206 1.254 . S
C208 O207 1.268 . S
C209 O214 1.254 . S
C209 O215 1.268 1_545 S
O210 Dy203 2.317 1_565 S
O210 C218 1.249 . S
O211 Dy200 2.326 . S
O211 C218 1.267 . S
O212 C201 1.185 . S
O212 Dy203 2.437 . S
O213 C201 1.355 . S
O213 Dy203 2.512 . S
O214 Dy203 2.418 . S
O214 C209 1.254 . S
O215 Dy200 2.310 . S
O215 Dy203 2.650 1_565 S
O215 C209 1.268 1_565 S
O216 Dy200 2.351 . S
O216 C219 1.249 1_565 S
O217 Dy203 2.345 . S
O217 C219 1.267 . S
C218 O210 1.249 . S
C218 O211 1.267 . S
C219 O216 1.249 1_545 S
C219 O217 1.267 . S
Dy220 O224 2.398 . S
Dy220 O225 2.491 . S
Dy220 O226 2.403 . S
Dy220 O227 2.664 . S
Dy220 O231 2.326 . S
Dy220 O235 2.310 . S
Dy220 O236 2.351 . S
C221 O232 1.185 . S
C221 O233 1.355 . S
C222 O224 1.185 . S
C222 O225 1.355 . S
Dy223 O227 2.310 . S
Dy223 O230 2.351 . S
Dy223 O232 2.398 . S
Dy223 O233 2.491 . S
Dy223 O234 2.403 . S
Dy223 O235 2.664 . S
Dy223 O237 2.326 . S
O224 Dy220 2.398 . S
O224 C222 1.185 . S
O225 Dy220 2.491 . S
O225 C222 1.355 . S
O226 Dy220 2.403 . S
O226 C228 1.254 . S
O227 Dy220 2.664 . S
O227 Dy223 2.310 . S
O227 C228 1.268 . S
C228 O226 1.254 . S
C228 O227 1.268 . S
C229 O234 1.254 . S
C229 O235 1.268 . S
O230 Dy223 2.351 . S
O230 C238 1.249 . S
O231 Dy220 2.326 . S
O231 C238 1.267 . S
O232 C221 1.185 . S
O232 Dy223 2.398 . S
O233 C221 1.355 . S
O233 Dy223 2.491 . S
O234 Dy223 2.403 . S
O234 C229 1.254 . S
O235 Dy220 2.310 . S
O235 Dy223 2.664 . S
O235 C229 1.268 . S
O236 Dy220 2.351 . S
O236 C239 1.249 . S
O237 Dy223 2.326 . S
O237 C239 1.267 . S
C238 O230 1.249 . S
C238 O231 1.267 . S
C239 O236 1.249 . S
C239 O237 1.267 . S
H240 C258 0.951 . S
H241 C260 0.951 . S
H242 C262 0.950 . S
H243 C263 0.950 . S
H244 C265 0.950 . S
H245 C268 0.950 . S
H246 C269 0.950 . S
H247 C271 0.950 . S
H248 C272 0.950 . S
H249 C273 0.951 . S
H250 C275 0.951 . S
H251 C277 0.950 . S
H252 C278 0.950 . S
H253 C280 0.950 . S
H254 C283 0.950 . S
H255 C284 0.950 . S
H256 C286 0.950 . S
H257 C287 0.950 . S
C258 H240 0.951 . S
C258 C259 1.366 . S
C258 C260 1.388 . S
C259 C258 1.366 . S
C259 C263 1.385 . S
C260 H241 0.951 . S
C260 C258 1.388 . S
C260 C261 1.366 . S
C261 C260 1.366 . S
C261 C262 1.414 . S
C261 C264 1.499 . S
C262 H242 0.950 . S
C262 C261 1.414 . S
C262 C263 1.374 . S
C263 H243 0.950 . S
C263 C259 1.385 . S
C263 C262 1.374 . S
C264 C261 1.499 . S
C264 C265 1.373 . S
C264 C266 1.389 . S
C265 H244 0.950 . S
C265 C264 1.373 . S
C265 C281 1.377 . S
C266 C264 1.389 . S
C266 C267 1.524 . S
C266 C280 1.377 . S
C267 C266 1.524 . S
C267 C268 1.397 . S
C267 C272 1.363 . S
C268 H245 0.950 . S
C268 C267 1.397 . S
C268 C269 1.334 . S
C269 H246 0.950 . S
C269 C268 1.334 . S
C269 C270 1.287 . S
C270 C269 1.287 . S
C270 C271 1.524 . S
C270 H289 0.913 . S
C271 H247 0.950 . S
C271 C270 1.524 . S
C271 C272 1.415 . S
C272 H248 0.950 . S
C272 C267 1.363 . S
C272 C271 1.415 . S
C273 H249 0.951 . S
C273 C274 1.366 . S
C273 C275 1.388 . S
C274 C273 1.366 . S
C274 C278 1.385 . S
C275 H250 0.951 . S
C275 C273 1.388 . S
C275 C276 1.366 . S
C276 C275 1.366 . S
C276 C277 1.414 . S
C276 C279 1.499 . S
C277 H251 0.950 . S
C277 C276 1.414 . S
C277 C278 1.374 . S
C278 H252 0.950 . S
C278 C274 1.385 . S
C278 C277 1.374 . S
C279 C276 1.499 . S
C279 C280 1.373 . S
C279 C281 1.389 . S
C280 H253 0.950 . S
C280 C266 1.377 . S
C280 C279 1.373 . S
C281 C265 1.377 . S
C281 C279 1.389 . S
C281 C282 1.524 . S
C282 C281 1.524 . S
C282 C283 1.397 . S
C282 C287 1.363 . S
C283 H254 0.950 . S
C283 C282 1.397 . S
C283 C284 1.334 . S
C284 H255 0.950 . S
C284 C283 1.334 . S
C284 C285 1.287 . S
C285 C284 1.287 . S
C285 C286 1.524 . S
C285 H288 0.999 . S
C286 H256 0.950 . S
C286 C285 1.524 . S
C286 C287 1.415 . S
C287 H257 0.950 . S
C287 C282 1.363 . S
C287 C286 1.415 . S
H288 C285 0.999 . S
H289 C270 0.913 . S
H290 C308 0.951 . S
H291 C310 0.951 . S
H292 C312 0.950 . S
H293 C313 0.950 . S
H294 C315 0.950 1_545 S
H295 C318 0.950 . S
H296 C319 0.950 . S
H297 C321 0.950 . S
H298 C322 0.950 . S
H299 C323 0.951 . S
H300 C325 0.951 . S
H301 C327 0.950 . S
H302 C328 0.950 . S
H303 C330 0.950 . S
H304 C333 0.950 . S
H305 C334 0.950 . S
H306 C336 0.950 . S
H307 C337 0.950 1_565 S
C308 H290 0.951 . S
C308 C309 1.366 . S
C308 C310 1.388 1_545 S
C309 C308 1.366 . S
C309 C313 1.385 . S
C310 H291 0.951 . S
C310 C308 1.388 1_565 S
C310 C311 1.366 . S
C311 C310 1.366 . S
C311 C312 1.414 . S
C311 C314 1.499 . S
C312 H292 0.950 . S
C312 C311 1.414 . S
C312 C313 1.374 1_565 S
C313 H293 0.950 . S
C313 C309 1.385 . S
C313 C312 1.374 1_545 S
C314 C311 1.499 . S
C314 C315 1.373 . S
C314 C316 1.389 . S
C315 H294 0.950 1_565 S
C315 C314 1.373 . S
C315 C331 1.377 . S
C316 C314 1.389 . S
C316 C317 1.524 . S
C316 C330 1.377 . S
C317 C316 1.524 . S
C317 C318 1.397 . S
C317 C322 1.363 . S
C318 H295 0.950 . S
C318 C317 1.397 . S
C318 C319 1.334 . S
C319 H296 0.950 . S
C319 C318 1.334 . S
C319 C320 1.287 . S
C320 C319 1.287 . S
C320 C321 1.524 . S
C320 H339 0.913 . S
C321 H297 0.950 . S
C321 C320 1.524 . S
C321 C322 1.415 . S
C322 H298 0.950 . S
C322 C317 1.363 . S
C322 C321 1.415 . S
C323 H299 0.951 . S
C323 C324 1.366 . S
C323 C325 1.388 . S
C324 C323 1.366 . S
C324 C328 1.385 . S
C325 H300 0.951 . S
C325 C323 1.388 . S
C325 C326 1.366 . S
C326 C325 1.366 . S
C326 C327 1.414 . S
C326 C329 1.499 . S
C327 H301 0.950 . S
C327 C326 1.414 . S
C327 C328 1.374 . S
C328 H302 0.950 . S
C328 C324 1.385 . S
C328 C327 1.374 . S
C329 C326 1.499 . S
C329 C330 1.373 . S
C329 C331 1.389 . S
C330 H303 0.950 . S
C330 C316 1.377 . S
C330 C329 1.373 . S
C331 C315 1.377 . S
C331 C329 1.389 . S
C331 C332 1.524 . S
C332 C331 1.524 . S
C332 C333 1.397 1_565 S
C332 C337 1.363 1_565 S
C333 H304 0.950 . S
C333 C332 1.397 1_545 S
C333 C334 1.334 . S
C334 H305 0.950 . S
C334 C333 1.334 . S
C334 C335 1.287 . S
C335 C334 1.287 . S
C335 C336 1.524 . S
C335 H338 0.999 . S
C336 H306 0.950 . S
C336 C335 1.524 . S
C336 C337 1.415 . S
C337 H307 0.950 1_545 S
C337 C332 1.363 1_545 S
C337 C336 1.415 . S
H338 C335 0.999 . S
H339 C320 0.913 . S
H340 C358 0.951 . S
H341 C360 0.951 . S
H342 C362 0.950 . S
H343 C363 0.951 . S
H344 C365 0.950 1_556 S
H345 C368 0.950 . S
H346 C369 0.950 . S
H347 C371 0.950 . S
H348 C372 0.950 . S
H349 C373 0.951 . S
H350 C375 0.951 . S
H351 C377 0.950 . S
H352 C378 0.950 . S
H353 C380 0.950 . S
H354 C383 0.950 . S
H355 C384 0.950 . S
H356 C386 0.950 . S
H357 C387 0.950 . S
C358 H340 0.951 . S
C358 C359 1.366 . S
C358 C360 1.388 . S
C359 C358 1.366 . S
C359 C363 1.385 . S
C360 H341 0.951 . S
C360 C358 1.388 . S
C360 C361 1.366 1_556 S
C361 C360 1.366 1_554 S
C361 C362 1.414 . S
C361 C364 1.499 . S
C362 H342 0.950 . S
C362 C361 1.414 . S
C362 C363 1.374 1_554 S
C363 H343 0.951 . S
C363 C359 1.385 . S
C363 C362 1.374 1_556 S
C364 C361 1.499 . S
C364 C365 1.373 . S
C364 C366 1.389 . S
C365 H344 0.950 1_554 S
C365 C364 1.373 . S
C365 C381 1.377 . S
C366 C364 1.389 . S
C366 C367 1.524 . S
C366 C380 1.377 . S
C367 C366 1.524 . S
C367 C368 1.397 . S
C367 C372 1.363 . S
C368 H345 0.950 . S
C368 C367 1.397 . S
C368 C369 1.334 . S
C369 H346 0.950 . S
C369 C368 1.334 . S
C369 C370 1.287 . S
C370 C369 1.287 . S
C370 C371 1.524 . S
C370 H389 0.913 . S
C371 H347 0.950 . S
C371 C370 1.524 . S
C371 C372 1.415 . S
C372 H348 0.950 . S
C372 C367 1.363 . S
C372 C371 1.415 . S
C373 H349 0.951 . S
C373 C374 1.366 . S
C373 C375 1.388 . S
C374 C373 1.366 . S
C374 C378 1.385 . S
C375 H350 0.951 . S
C375 C373 1.388 . S
C375 C376 1.366 . S
C376 C375 1.366 . S
C376 C377 1.414 . S
C376 C379 1.499 . S
C377 H351 0.950 . S
C377 C376 1.414 . S
C377 C378 1.374 . S
C378 H352 0.950 . S
C378 C374 1.385 . S
C378 C377 1.374 . S
C379 C376 1.499 . S
C379 C380 1.373 . S
C379 C381 1.389 . S
C380 H353 0.950 . S
C380 C366 1.377 . S
C380 C379 1.373 . S
C381 C365 1.377 . S
C381 C379 1.389 . S
C381 C382 1.524 . S
C382 C381 1.524 . S
C382 C383 1.397 1_554 S
C382 C387 1.363 . S
C383 H354 0.950 . S
C383 C382 1.397 1_556 S
C383 C384 1.334 . S
C384 H355 0.950 . S
C384 C383 1.334 . S
C384 C385 1.287 . S
C385 C384 1.287 . S
C385 C386 1.524 . S
C385 H388 0.999 . S
C386 H356 0.950 . S
C386 C385 1.524 . S
C386 C387 1.415 1_556 S
C387 H357 0.950 . S
C387 C382 1.363 . S
C387 C386 1.415 1_554 S
H388 C385 0.999 . S
H389 C370 0.913 . S
H390 C408 0.951 . S
H391 C410 0.951 . S
H392 C412 0.950 . S
H393 C413 0.950 . S
H394 C415 0.950 . S
H395 C418 0.950 . S
H396 C419 0.950 . S
H397 C421 0.950 . S
H398 C422 0.950 . S
H399 C423 0.951 . S
H400 C425 0.951 1_565 S
H401 C427 0.950 . S
H402 C428 0.950 . S
H403 C430 0.950 . S
H404 C433 0.950 . S
H405 C434 0.950 . S
H406 C436 0.950 . S
H407 C437 0.950 . S
C408 H390 0.951 . S
C408 C409 1.366 . S
C408 C410 1.388 . S
C409 C408 1.366 . S
C409 C413 1.385 . S
C410 H391 0.951 . S
C410 C408 1.388 . S
C410 C411 1.366 . S
C411 C410 1.366 . S
C411 C412 1.414 . S
C411 C414 1.499 . S
C412 H392 0.950 . S
C412 C411 1.414 . S
C412 C413 1.374 . S
C413 H393 0.950 . S
C413 C409 1.385 . S
C413 C412 1.374 . S
C414 C411 1.499 . S
C414 C415 1.373 . S
C414 C416 1.389 . S
C415 H394 0.950 . S
C415 C414 1.373 . S
C415 C431 1.377 . S
C416 C414 1.389 . S
C416 C417 1.524 . S
C416 C430 1.377 . S
C417 C416 1.524 . S
C417 C418 1.397 . S
C417 C422 1.363 . S
C418 H395 0.950 . S
C418 C417 1.397 . S
C418 C419 1.334 . S
C419 H396 0.950 . S
C419 C418 1.334 . S
C419 C420 1.287 . S
C420 C419 1.287 . S
C420 C421 1.524 . S
C420 H439 0.913 . S
C421 H397 0.950 . S
C421 C420 1.524 . S
C421 C422 1.415 . S
C422 H398 0.950 . S
C422 C417 1.363 . S
C422 C421 1.415 . S
C423 H399 0.951 . S
C423 C424 1.366 1_565 S
C423 C425 1.388 1_565 S
C424 C423 1.366 1_545 S
C424 C428 1.385 . S
C425 H400 0.951 1_545 S
C425 C423 1.388 1_545 S
C425 C426 1.366 . S
C426 C425 1.366 . S
C426 C427 1.414 . S
C426 C429 1.499 . S
C427 H401 0.950 . S
C427 C426 1.414 . S
C427 C428 1.374 . S
C428 H402 0.950 . S
C428 C424 1.385 . S
C428 C427 1.374 . S
C429 C426 1.499 . S
C429 C430 1.373 . S
C429 C431 1.389 . S
C430 H403 0.950 . S
C430 C416 1.377 . S
C430 C429 1.373 . S
C431 C415 1.377 . S
C431 C429 1.389 . S
C431 C432 1.524 1_545 S
C432 C431 1.524 1_565 S
C432 C433 1.397 . S
C432 C437 1.363 . S
C433 H404 0.950 . S
C433 C432 1.397 . S
C433 C434 1.334 . S
C434 H405 0.950 . S
C434 C433 1.334 . S
C434 C435 1.287 . S
C435 C434 1.287 . S
C435 C436 1.524 . S
C435 H438 0.999 . S
C436 H406 0.950 . S
C436 C435 1.524 . S
C436 C437 1.415 . S
C437 H407 0.950 . S
C437 C432 1.363 . S
C437 C436 1.415 . S
H438 C435 0.999 . S
H439 C420 0.913 . S
H440 C458 0.951 . S
H441 C460 0.951 . S
H442 C462 0.950 . S
H443 C463 0.950 . S
H444 C465 0.950 . S
H445 C468 0.950 . S
H446 C469 0.950 . S
H447 C471 0.950 . S
H448 C472 0.950 . S
H449 C473 0.951 . S
H450 C475 0.951 . S
H451 C477 0.950 . S
H452 C478 0.950 . S
H453 C480 0.950 . S
H454 C483 0.950 . S
H455 C484 0.950 . S
H456 C486 0.950 . S
H457 C487 0.950 . S
C458 H440 0.951 . S
C458 C459 1.366 . S
C458 C460 1.388 . S
C459 C458 1.366 . S
C459 C463 1.385 . S
C460 H441 0.951 . S
C460 C458 1.388 . S
C460 C461 1.366 . S
C461 C460 1.366 . S
C461 C462 1.414 . S
C461 C464 1.499 . S
C462 H442 0.950 . S
C462 C461 1.414 . S
C462 C463 1.374 . S
C463 H443 0.950 . S
C463 C459 1.385 . S
C463 C462 1.374 . S
C464 C461 1.499 . S
C464 C465 1.373 . S
C464 C466 1.389 . S
C465 H444 0.950 . S
C465 C464 1.373 . S
C465 C481 1.377 . S
C466 C464 1.389 . S
C466 C467 1.524 . S
C466 C480 1.377 . S
C467 C466 1.524 . S
C467 C468 1.397 . S
C467 C472 1.363 . S
C468 H445 0.950 . S
C468 C467 1.397 . S
C468 C469 1.334 . S
C469 H446 0.950 . S
C469 C468 1.334 . S
C469 C470 1.287 . S
C470 C469 1.287 . S
C470 C471 1.524 . S
C470 H489 0.913 . S
C471 H447 0.950 . S
C471 C470 1.524 . S
C471 C472 1.415 . S
C472 H448 0.950 . S
C472 C467 1.363 . S
C472 C471 1.415 . S
C473 H449 0.951 . S
C473 C474 1.366 . S
C473 C475 1.388 . S
C474 C473 1.366 . S
C474 C478 1.385 . S
C475 H450 0.951 . S
C475 C473 1.388 . S
C475 C476 1.366 . S
C476 C475 1.366 . S
C476 C477 1.414 . S
C476 C479 1.499 . S
C477 H451 0.950 . S
C477 C476 1.414 . S
C477 C478 1.374 . S
C478 H452 0.950 . S
C478 C474 1.385 . S
C478 C477 1.374 . S
C479 C476 1.499 . S
C479 C480 1.373 . S
C479 C481 1.389 . S
C480 H453 0.950 . S
C480 C466 1.377 . S
C480 C479 1.373 . S
C481 C465 1.377 . S
C481 C479 1.389 . S
C481 C482 1.524 . S
C482 C481 1.524 . S
C482 C483 1.397 . S
C482 C487 1.363 . S
C483 H454 0.950 . S
C483 C482 1.397 . S
C483 C484 1.334 . S
C484 H455 0.950 . S
C484 C483 1.334 . S
C484 C485 1.287 . S
C485 C484 1.287 . S
C485 C486 1.524 . S
C485 H488 0.999 . S
C486 H456 0.950 . S
C486 C485 1.524 . S
C486 C487 1.415 . S
C487 H457 0.950 . S
C487 C482 1.363 . S
C487 C486 1.415 . S
H488 C485 0.999 . S
H489 C470 0.913 . S
H490 C508 0.951 . S
H491 C510 0.951 . S
H492 C512 0.950 . S
H493 C513 0.950 . S
H494 C515 0.950 . S
H495 C518 0.950 . S
H496 C519 0.950 . S
H497 C521 0.950 . S
H498 C522 0.950 . S
H499 C523 0.951 . S
H500 C525 0.951 . S
H501 C527 0.950 . S
H502 C528 0.950 . S
H503 C530 0.950 . S
H504 C533 0.950 . S
H505 C534 0.950 . S
H506 C536 0.950 . S
H507 C537 0.950 . S
C508 H490 0.951 . S
C508 C509 1.366 . S
C508 C510 1.388 . S
C509 C508 1.366 . S
C509 C513 1.385 . S
C510 H491 0.951 . S
C510 C508 1.388 . S
C510 C511 1.366 . S
C511 C510 1.366 . S
C511 C512 1.414 . S
C511 C514 1.499 . S
C512 H492 0.950 . S
C512 C511 1.414 . S
C512 C513 1.374 . S
C513 H493 0.950 . S
C513 C509 1.385 . S
C513 C512 1.374 . S
C514 C511 1.499 . S
C514 C515 1.373 . S
C514 C516 1.389 . S
C515 H494 0.950 . S
C515 C514 1.373 . S
C515 C531 1.377 . S
C516 C514 1.389 . S
C516 C517 1.524 . S
C516 C530 1.377 . S
C517 C516 1.524 . S
C517 C518 1.397 . S
C517 C522 1.363 . S
C518 H495 0.950 . S
C518 C517 1.397 . S
C518 C519 1.334 . S
C519 H496 0.950 . S
C519 C518 1.334 . S
C519 C520 1.287 . S
C520 C519 1.287 . S
C520 C521 1.524 . S
C520 H539 0.913 . S
C521 H497 0.950 . S
C521 C520 1.524 . S
C521 C522 1.415 . S
C522 H498 0.950 . S
C522 C517 1.363 . S
C522 C521 1.415 . S
C523 H499 0.951 . S
C523 C524 1.366 . S
C523 C525 1.388 . S
C524 C523 1.366 . S
C524 C528 1.385 . S
C525 H500 0.951 . S
C525 C523 1.388 . S
C525 C526 1.366 . S
C526 C525 1.366 . S
C526 C527 1.414 . S
C526 C529 1.499 . S
C527 H501 0.950 . S
C527 C526 1.414 . S
C527 C528 1.374 . S
C528 H502 0.950 . S
C528 C524 1.385 . S
C528 C527 1.374 . S
C529 C526 1.499 . S
C529 C530 1.373 . S
C529 C531 1.389 . S
C530 H503 0.950 . S
C530 C516 1.377 . S
C530 C529 1.373 . S
C531 C515 1.377 . S
C531 C529 1.389 . S
C531 C532 1.524 . S
C532 C531 1.524 . S
C532 C533 1.397 . S
C532 C537 1.363 . S
C533 H504 0.950 . S
C533 C532 1.397 . S
C533 C534 1.334 . S
C534 H505 0.950 . S
C534 C533 1.334 . S
C534 C535 1.287 . S
C535 C534 1.287 . S
C535 C536 1.524 . S
C535 H538 0.999 . S
C536 H506 0.950 . S
C536 C535 1.524 . S
C536 C537 1.415 . S
C537 H507 0.950 . S
C537 C532 1.363 . S
C537 C536 1.415 . S
H538 C535 0.999 . S
H539 C520 0.913 . S
H540 C558 0.951 . S
H541 C560 0.951 . S
H542 C562 0.950 . S
H543 C563 0.950 . S
H544 C565 0.950 . S
H545 C568 0.947 1_556 S
H546 C569 0.950 . S
H547 C571 0.950 . S
H548 C572 0.950 . S
H549 C573 0.948 1_554 S
H550 C575 0.951 . S
H551 C577 0.950 . S
H552 C578 0.950 . S
H553 C580 0.950 . S
H554 C583 0.950 . S
H555 C584 0.950 . S
H556 C586 0.950 . S
H557 C587 0.950 . S
C558 H540 0.951 . S
C558 C559 1.366 . S
C558 C560 1.388 . S
C559 C558 1.366 . S
C559 C563 1.385 . S
C560 H541 0.951 . S
C560 C558 1.388 . S
C560 C561 1.366 . S
C561 C560 1.366 . S
C561 C562 1.414 . S
C561 C564 1.499 . S
C562 H542 0.950 . S
C562 C561 1.414 . S
C562 C563 1.374 . S
C563 H543 0.950 . S
C563 C559 1.385 . S
C563 C562 1.374 . S
C564 C561 1.499 . S
C564 C565 1.373 . S
C564 C566 1.389 . S
C565 H544 0.950 . S
C565 C564 1.373 . S
C565 C581 1.377 . S
C566 C564 1.389 . S
C566 C567 1.524 . S
C566 C580 1.377 . S
C567 C566 1.524 . S
C567 C568 1.397 1_556 S
C567 C572 1.363 . S
C568 H545 0.947 1_554 S
C568 C567 1.397 1_554 S
C568 C569 1.334 . S
C569 H546 0.950 . S
C569 C568 1.334 . S
C569 C570 1.287 . S
C570 C569 1.287 . S
C570 C571 1.524 . S
C570 H589 0.913 . S
C571 H547 0.950 . S
C571 C570 1.524 . S
C571 C572 1.415 1_554 S
C572 H548 0.950 . S
C572 C567 1.363 . S
C572 C571 1.415 1_556 S
C573 H549 0.948 1_556 S
C573 C574 1.364 1_556 S
C573 C575 1.392 . S
C574 C573 1.364 1_554 S
C574 C578 1.385 1_554 S
C575 H550 0.951 . S
C575 C573 1.392 . S
C575 C576 1.366 . S
C576 C575 1.366 . S
C576 C577 1.414 . S
C576 C579 1.499 . S
C577 H551 0.950 . S
C577 C576 1.414 . S
C577 C578 1.374 . S
C578 H552 0.950 . S
C578 C574 1.385 1_556 S
C578 C577 1.374 . S
C579 C576 1.499 . S
C579 C580 1.373 . S
C579 C581 1.389 . S
C580 H553 0.950 . S
C580 C566 1.377 . S
C580 C579 1.373 . S
C581 C565 1.377 . S
C581 C579 1.389 . S
C581 C582 1.524 . S
C582 C581 1.524 . S
C582 C583 1.397 . S
C582 C587 1.363 . S
C583 H554 0.950 . S
C583 C582 1.397 . S
C583 C584 1.334 . S
C584 H555 0.950 . S
C584 C583 1.334 . S
C584 C585 1.287 . S
C585 C584 1.287 . S
C585 C586 1.524 . S
C585 H588 0.999 . S
C586 H556 0.950 . S
C586 C585 1.524 . S
C586 C587 1.415 . S
C587 H557 0.950 . S
C587 C582 1.363 . S
C587 C586 1.415 . S
H588 C585 0.999 . S
H589 C570 0.913 . S
H590 C608 0.951 . S
H591 C610 0.951 . S
H592 C612 0.950 . S
H593 C613 0.950 . S
H594 C615 0.950 . S
H595 C618 0.950 . S
H596 C619 0.950 . S
H597 C621 0.950 . S
H598 C622 0.950 . S
H599 C623 0.951 . S
H600 C625 0.951 . S
H601 C627 0.950 . S
H602 C628 0.950 . S
H603 C630 0.950 . S
H604 C633 0.950 . S
H605 C634 0.950 . S
H606 C636 0.950 . S
H607 C637 0.950 . S
C608 H590 0.951 . S
C608 C609 1.366 . S
C608 C610 1.388 . S
C609 C608 1.366 . S
C609 C613 1.385 . S
C610 H591 0.951 . S
C610 C608 1.388 . S
C610 C611 1.366 . S
C611 C610 1.366 . S
C611 C612 1.414 . S
C611 C614 1.499 . S
C612 H592 0.950 . S
C612 C611 1.414 . S
C612 C613 1.374 . S
C613 H593 0.950 . S
C613 C609 1.385 . S
C613 C612 1.374 . S
C614 C611 1.499 . S
C614 C615 1.373 . S
C614 C616 1.389 . S
C615 H594 0.950 . S
C615 C614 1.373 . S
C615 C631 1.377 . S
C616 C614 1.389 . S
C616 C617 1.524 . S
C616 C630 1.377 . S
C617 C616 1.524 . S
C617 C618 1.397 . S
C617 C622 1.363 . S
C618 H595 0.950 . S
C618 C617 1.397 . S
C618 C619 1.334 . S
C619 H596 0.950 . S
C619 C618 1.334 . S
C619 C620 1.287 . S
C620 C619 1.287 . S
C620 C621 1.524 . S
C620 H639 0.913 . S
C621 H597 0.950 . S
C621 C620 1.524 . S
C621 C622 1.415 . S
C622 H598 0.950 . S
C622 C617 1.363 . S
C622 C621 1.415 . S
C623 H599 0.951 . S
C623 C624 1.366 . S
C623 C625 1.388 . S
C624 C623 1.366 . S
C624 C628 1.385 . S
C625 H600 0.951 . S
C625 C623 1.388 . S
C625 C626 1.366 . S
C626 C625 1.366 . S
C626 C627 1.414 . S
C626 C629 1.499 . S
C627 H601 0.950 . S
C627 C626 1.414 . S
C627 C628 1.374 . S
C628 H602 0.950 . S
C628 C624 1.385 . S
C628 C627 1.374 . S
C629 C626 1.499 . S
C629 C630 1.373 . S
C629 C631 1.389 . S
C630 H603 0.950 . S
C630 C616 1.377 . S
C630 C629 1.373 . S
C631 C615 1.377 . S
C631 C629 1.389 . S
C631 C632 1.524 . S
C632 C631 1.524 . S
C632 C633 1.397 . S
C632 C637 1.363 . S
C633 H604 0.950 . S
C633 C632 1.397 . S
C633 C634 1.334 . S
C634 H605 0.950 . S
C634 C633 1.334 . S
C634 C635 1.287 . S
C635 C634 1.287 . S
C635 C636 1.524 . S
C635 H638 0.999 . S
C636 H606 0.950 . S
C636 C635 1.524 . S
C636 C637 1.415 . S
C637 H607 0.950 . S
C637 C632 1.363 . S
C637 C636 1.415 . S
H638 C635 0.999 . S
H639 C620 0.913 . S
H640 C658 0.951 . S
H641 C660 0.951 . S
H642 C662 0.950 . S
H643 C663 0.950 . S
H644 C665 0.950 . S
H645 C668 0.950 . S
H646 C669 0.950 . S
H647 C671 0.950 . S
H648 C672 0.950 . S
H649 C673 0.951 . S
H650 C675 0.951 . S
H651 C677 0.950 . S
H652 C678 0.950 . S
H653 C680 0.950 . S
H654 C683 0.950 . S
H655 C684 0.950 . S
H656 C686 0.950 . S
H657 C687 0.950 . S
C658 H640 0.951 . S
C658 C659 1.366 . S
C658 C660 1.388 . S
C659 C658 1.366 . S
C659 C663 1.385 . S
C660 H641 0.951 . S
C660 C658 1.388 . S
C660 C661 1.366 . S
C661 C660 1.366 . S
C661 C662 1.414 . S
C661 C664 1.499 . S
C662 H642 0.950 . S
C662 C661 1.414 . S
C662 C663 1.374 . S
C663 H643 0.950 . S
C663 C659 1.385 . S
C663 C662 1.374 . S
C664 C661 1.499 . S
C664 C665 1.373 . S
C664 C666 1.389 . S
C665 H644 0.950 . S
C665 C664 1.373 . S
C665 C681 1.377 . S
C666 C664 1.389 . S
C666 C667 1.524 . S
C666 C680 1.377 . S
C667 C666 1.524 . S
C667 C668 1.397 . S
C667 C672 1.363 . S
C668 H645 0.950 . S
C668 C667 1.397 . S
C668 C669 1.334 . S
C669 H646 0.950 . S
C669 C668 1.334 . S
C669 C670 1.287 . S
C670 C669 1.287 . S
C670 C671 1.524 . S
C670 H689 0.913 . S
C671 H647 0.950 . S
C671 C670 1.524 . S
C671 C672 1.415 . S
C672 H648 0.950 . S
C672 C667 1.363 . S
C672 C671 1.415 . S
C673 H649 0.951 . S
C673 C674 1.366 . S
C673 C675 1.388 . S
C674 C673 1.366 . S
C674 C678 1.385 . S
C675 H650 0.951 . S
C675 C673 1.388 . S
C675 C676 1.366 . S
C676 C675 1.366 . S
C676 C677 1.414 . S
C676 C679 1.499 . S
C677 H651 0.950 . S
C677 C676 1.414 . S
C677 C678 1.374 . S
C678 H652 0.950 . S
C678 C674 1.385 . S
C678 C677 1.374 . S
C679 C676 1.499 . S
C679 C680 1.373 . S
C679 C681 1.389 . S
C680 H653 0.950 . S
C680 C666 1.377 . S
C680 C679 1.373 . S
C681 C665 1.377 . S
C681 C679 1.389 . S
C681 C682 1.524 . S
C682 C681 1.524 . S
C682 C683 1.397 . S
C682 C687 1.363 . S
C683 H654 0.950 . S
C683 C682 1.397 . S
C683 C684 1.334 . S
C684 H655 0.950 . S
C684 C683 1.334 . S
C684 C685 1.287 . S
C685 C684 1.287 . S
C685 C686 1.524 . S
C685 H688 0.999 . S
C686 H656 0.950 . S
C686 C685 1.524 . S
C686 C687 1.415 . S
C687 H657 0.950 . S
C687 C682 1.363 . S
C687 C686 1.415 . S
H688 C685 0.999 . S
H689 C670 0.913 . S
H690 C708 0.951 . S
H691 C710 0.951 . S
H692 C712 0.950 . S
H693 C713 0.950 . S
H694 C715 0.950 . S
H695 C718 0.950 . S
H696 C719 0.950 . S
H697 C721 0.950 . S
H698 C722 0.950 . S
H699 C723 0.951 . S
H700 C725 0.951 . S
H701 C727 0.950 1_655 S
H702 C728 0.950 . S
H703 C730 0.950 . S
H704 C733 0.950 1_655 S
H705 C734 0.950 . S
H706 C736 0.950 . S
H707 C737 0.950 . S
C708 H690 0.951 . S
C708 C709 1.366 . S
C708 C710 1.388 . S
C709 C708 1.366 . S
C709 C713 1.385 . S
C710 H691 0.951 . S
C710 C708 1.388 . S
C710 C711 1.366 . S
C711 C710 1.366 . S
C711 C712 1.414 . S
C711 C714 1.499 . S
C712 H692 0.950 . S
C712 C711 1.414 . S
C712 C713 1.374 . S
C713 H693 0.950 . S
C713 C709 1.385 . S
C713 C712 1.374 . S
C714 C711 1.499 . S
C714 C715 1.373 . S
C714 C716 1.389 . S
C715 H694 0.950 . S
C715 C714 1.373 . S
C715 C731 1.377 . S
C716 C714 1.389 . S
C716 C717 1.524 . S
C716 C730 1.377 . S
C717 C716 1.524 . S
C717 C718 1.397 . S
C717 C722 1.363 . S
C718 H695 0.950 . S
C718 C717 1.397 . S
C718 C719 1.334 . S
C719 H696 0.950 . S
C719 C718 1.334 . S
C719 C720 1.287 . S
C720 C719 1.287 . S
C720 C721 1.524 . S
C720 H739 0.913 . S
C721 H697 0.950 . S
C721 C720 1.524 . S
C721 C722 1.415 . S
C722 H698 0.950 . S
C722 C717 1.363 . S
C722 C721 1.415 . S
C723 H699 0.951 . S
C723 C724 1.366 . S
C723 C725 1.388 . S
C724 C723 1.366 . S
C724 C728 1.385 1_455 S
C725 H700 0.951 . S
C725 C723 1.388 . S
C725 C726 1.366 . S
C726 C725 1.366 . S
C726 C727 1.414 . S
C726 C729 1.499 . S
C727 H701 0.950 1_455 S
C727 C726 1.414 . S
C727 C728 1.374 1_455 S
C728 H702 0.950 . S
C728 C724 1.385 1_655 S
C728 C727 1.374 1_655 S
C729 C726 1.499 . S
C729 C730 1.373 . S
C729 C731 1.389 . S
C730 H703 0.950 . S
C730 C716 1.377 . S
C730 C729 1.373 . S
C731 C715 1.377 . S
C731 C729 1.389 . S
C731 C732 1.524 . S
C732 C731 1.524 . S
C732 C733 1.397 . S
C732 C737 1.363 . S
C733 H704 0.950 1_455 S
C733 C732 1.397 . S
C733 C734 1.334 1_455 S
C734 H705 0.950 . S
C734 C733 1.334 1_655 S
C734 C735 1.287 1_655 S
C735 C734 1.287 1_455 S
C735 C736 1.524 . S
C735 H738 0.999 . S
C736 H706 0.950 . S
C736 C735 1.524 . S
C736 C737 1.415 . S
C737 H707 0.950 . S
C737 C732 1.363 . S
C737 C736 1.415 . S
H738 C735 0.999 . S
H739 C720 0.913 . S
H740 C758 0.951 . S
H741 C760 0.951 . S
H742 C762 0.950 . S
H743 C763 0.950 . S
H744 C765 0.950 . S
H745 C768 0.950 . S
H746 C769 0.950 . S
H747 C771 0.950 1_455 S
H748 C772 0.950 1_455 S
H749 C773 0.951 . S
H750 C775 0.951 . S
H751 C777 0.950 . S
H752 C778 0.950 . S
H753 C780 0.950 . S
H754 C783 0.950 . S
H755 C784 0.950 . S
H756 C786 0.950 . S
H757 C787 0.950 . S
C758 H740 0.951 . S
C758 C759 1.366 . S
C758 C760 1.388 . S
C759 C758 1.366 . S
C759 C763 1.385 1_455 S
C760 H741 0.951 . S
C760 C758 1.388 . S
C760 C761 1.366 1_455 S
C761 C760 1.366 1_655 S
C761 C762 1.414 . S
C761 C764 1.499 . S
C762 H742 0.950 . S
C762 C761 1.414 . S
C762 C763 1.374 . S
C763 H743 0.950 . S
C763 C759 1.385 1_655 S
C763 C762 1.374 . S
C764 C761 1.499 . S
C764 C765 1.373 . S
C764 C766 1.389 . S
C765 H744 0.950 . S
C765 C764 1.373 . S
C765 C781 1.377 . S
C766 C764 1.389 . S
C766 C767 1.524 . S
C766 C780 1.377 . S
C767 C766 1.524 . S
C767 C768 1.397 . S
C767 C772 1.363 . S
C768 H745 0.950 . S
C768 C767 1.397 . S
C768 C769 1.334 . S
C769 H746 0.950 . S
C769 C768 1.334 . S
C769 C770 1.287 . S
C770 C769 1.287 . S
C770 C771 1.524 . S
C770 H789 0.913 . S
C771 H747 0.950 1_655 S
C771 C770 1.524 . S
C771 C772 1.415 . S
C772 H748 0.950 1_655 S
C772 C767 1.363 . S
C772 C771 1.415 . S
C773 H749 0.951 . S
C773 C774 1.366 . S
C773 C775 1.388 . S
C774 C773 1.366 . S
C774 C778 1.385 . S
C775 H750 0.951 . S
C775 C773 1.388 . S
C775 C776 1.366 . S
C776 C775 1.366 . S
C776 C777 1.414 . S
C776 C779 1.499 . S
C777 H751 0.950 . S
C777 C776 1.414 . S
C777 C778 1.374 . S
C778 H752 0.950 . S
C778 C774 1.385 . S
C778 C777 1.374 . S
C779 C776 1.499 . S
C779 C780 1.373 . S
C779 C781 1.389 . S
C780 H753 0.950 . S
C780 C766 1.377 . S
C780 C779 1.373 . S
C781 C765 1.377 . S
C781 C779 1.389 . S
C781 C782 1.524 . S
C782 C781 1.524 . S
C782 C783 1.397 . S
C782 C787 1.363 . S
C783 H754 0.950 . S
C783 C782 1.397 . S
C783 C784 1.334 . S
C784 H755 0.950 . S
C784 C783 1.334 . S
C784 C785 1.287 . S
C785 C784 1.287 . S
C785 C786 1.524 . S
C785 H788 0.999 . S
C786 H756 0.950 . S
C786 C785 1.524 . S
C786 C787 1.415 . S
C787 H757 0.950 . S
C787 C782 1.363 . S
C787 C786 1.415 . S
H788 C785 0.999 . S
H789 C770 0.913 . S
H790 C808 0.951 . S
H791 C810 0.951 . S
H792 C812 0.950 . S
H793 C813 0.950 . S
H794 C815 0.950 . S
H795 C818 0.950 . S
H796 C819 0.950 . S
H797 C821 0.950 . S
H798 C822 0.950 . S
H799 C823 0.951 . S
H800 C825 0.951 . S
H801 C827 0.950 . S
H802 C828 0.950 . S
H803 C830 0.950 . S
H804 C833 0.950 . S
H805 C834 0.950 . S
H806 C836 0.950 . S
H807 C837 0.950 . S
C808 H790 0.951 . S
C808 C809 1.366 . S
C808 C810 1.388 . S
C809 C808 1.366 . S
C809 C813 1.385 . S
C810 H791 0.951 . S
C810 C808 1.388 . S
C810 C811 1.366 . S
C811 C810 1.366 . S
C811 C812 1.414 . S
C811 C814 1.499 . S
C812 H792 0.950 . S
C812 C811 1.414 . S
C812 C813 1.374 . S
C813 H793 0.950 . S
C813 C809 1.385 . S
C813 C812 1.374 . S
C814 C811 1.499 . S
C814 C815 1.373 . S
C814 C816 1.389 . S
C815 H794 0.950 . S
C815 C814 1.373 . S
C815 C831 1.377 . S
C816 C814 1.389 . S
C816 C817 1.524 . S
C816 C830 1.377 . S
C817 C816 1.524 . S
C817 C818 1.397 . S
C817 C822 1.363 . S
C818 H795 0.950 . S
C818 C817 1.397 . S
C818 C819 1.334 . S
C819 H796 0.950 . S
C819 C818 1.334 . S
C819 C820 1.287 . S
C820 C819 1.287 . S
C820 C821 1.524 . S
C820 H839 0.913 . S
C821 H797 0.950 . S
C821 C820 1.524 . S
C821 C822 1.415 . S
C822 H798 0.950 . S
C822 C817 1.363 . S
C822 C821 1.415 . S
C823 H799 0.951 . S
C823 C824 1.366 . S
C823 C825 1.388 . S
C824 C823 1.366 . S
C824 C828 1.385 . S
C825 H800 0.951 . S
C825 C823 1.388 . S
C825 C826 1.366 . S
C826 C825 1.366 . S
C826 C827 1.414 . S
C826 C829 1.499 . S
C827 H801 0.950 . S
C827 C826 1.414 . S
C827 C828 1.374 . S
C828 H802 0.950 . S
C828 C824 1.385 . S
C828 C827 1.374 . S
C829 C826 1.499 . S
C829 C830 1.373 . S
C829 C831 1.389 . S
C830 H803 0.950 . S
C830 C816 1.377 . S
C830 C829 1.373 . S
C831 C815 1.377 . S
C831 C829 1.389 . S
C831 C832 1.524 . S
C832 C831 1.524 . S
C832 C833 1.397 . S
C832 C837 1.363 . S
C833 H804 0.950 . S
C833 C832 1.397 . S
C833 C834 1.334 . S
C834 H805 0.950 . S
C834 C833 1.334 . S
C834 C835 1.287 . S
C835 C834 1.287 . S
C835 C836 1.524 . S
C835 H838 0.999 . S
C836 H806 0.950 . S
C836 C835 1.524 . S
C836 C837 1.415 . S
C837 H807 0.950 . S
C837 C832 1.363 . S
C837 C836 1.415 . S
H838 C835 0.999 . S
H839 C820 0.913 . S
H840 C858 0.951 . S
H841 C860 0.951 . S
H842 C862 0.950 . S
H843 C863 0.950 . S
H844 C865 0.950 . S
H845 C868 0.950 . S
H846 C869 0.950 . S
H847 C871 0.950 . S
H848 C872 0.950 . S
H849 C873 0.951 . S
H850 C875 0.951 . S
H851 C877 0.950 . S
H852 C878 0.950 . S
H853 C880 0.950 . S
H854 C883 0.950 . S
H855 C884 0.950 . S
H856 C886 0.950 . S
H857 C887 0.950 . S
C858 H840 0.951 . S
C858 C859 1.366 . S
C858 C860 1.388 . S
C859 C858 1.366 . S
C859 C863 1.385 . S
C860 H841 0.951 . S
C860 C858 1.388 . S
C860 C861 1.366 . S
C861 C860 1.366 . S
C861 C862 1.414 . S
C861 C864 1.499 . S
C862 H842 0.950 . S
C862 C861 1.414 . S
C862 C863 1.374 . S
C863 H843 0.950 . S
C863 C859 1.385 . S
C863 C862 1.374 . S
C864 C861 1.499 . S
C864 C865 1.373 . S
C864 C866 1.389 . S
C865 H844 0.950 . S
C865 C864 1.373 . S
C865 C881 1.377 . S
C866 C864 1.389 . S
C866 C867 1.524 . S
C866 C880 1.377 . S
C867 C866 1.524 . S
C867 C868 1.397 . S
C867 C872 1.363 . S
C868 H845 0.950 . S
C868 C867 1.397 . S
C868 C869 1.334 . S
C869 H846 0.950 . S
C869 C868 1.334 . S
C869 C870 1.287 . S
C870 C869 1.287 . S
C870 C871 1.524 . S
C870 H889 0.913 . S
C871 H847 0.950 . S
C871 C870 1.524 . S
C871 C872 1.415 . S
C872 H848 0.950 . S
C872 C867 1.363 . S
C872 C871 1.415 . S
C873 H849 0.951 . S
C873 C874 1.366 . S
C873 C875 1.388 . S
C874 C873 1.366 . S
C874 C878 1.385 . S
C875 H850 0.951 . S
C875 C873 1.388 . S
C875 C876 1.366 . S
C876 C875 1.366 . S
C876 C877 1.414 . S
C876 C879 1.499 . S
C877 H851 0.950 . S
C877 C876 1.414 . S
C877 C878 1.374 . S
C878 H852 0.950 . S
C878 C874 1.385 . S
C878 C877 1.374 . S
C879 C876 1.499 . S
C879 C880 1.373 . S
C879 C881 1.389 . S
C880 H853 0.950 . S
C880 C866 1.377 . S
C880 C879 1.373 . S
C881 C865 1.377 . S
C881 C879 1.389 . S
C881 C882 1.524 . S
C882 C881 1.524 . S
C882 C883 1.397 . S
C882 C887 1.363 . S
C883 H854 0.950 . S
C883 C882 1.397 . S
C883 C884 1.334 . S
C884 H855 0.950 . S
C884 C883 1.334 . S
C884 C885 1.287 . S
C885 C884 1.287 . S
C885 C886 1.524 . S
C885 H888 0.999 . S
C886 H856 0.950 . S
C886 C885 1.524 . S
C886 C887 1.415 . S
C887 H857 0.950 . S
C887 C882 1.363 . S
C887 C886 1.415 . S
H888 C885 0.999 . S
H889 C870 0.913 . S
H890 C908 0.951 . S
H891 C910 0.951 . S
H892 C912 0.950 . S
H893 C913 0.950 . S
H894 C915 0.950 . S
H895 C918 0.950 . S
H896 C919 0.950 . S
H897 C921 0.950 . S
H898 C922 0.950 . S
H899 C923 0.951 . S
H900 C925 0.951 . S
H901 C927 0.950 . S
H902 C928 0.950 . S
H903 C930 0.950 . S
H904 C933 0.950 . S
H905 C934 0.950 . S
H906 C936 0.950 . S
H907 C937 0.950 . S
C908 H890 0.951 . S
C908 C909 1.366 . S
C908 C910 1.388 . S
C909 C908 1.366 . S
C909 C913 1.385 . S
C910 H891 0.951 . S
C910 C908 1.388 . S
C910 C911 1.366 . S
C911 C910 1.366 . S
C911 C912 1.414 . S
C911 C914 1.499 . S
C912 H892 0.950 . S
C912 C911 1.414 . S
C912 C913 1.374 . S
C913 H893 0.950 . S
C913 C909 1.385 . S
C913 C912 1.374 . S
C914 C911 1.499 . S
C914 C915 1.373 . S
C914 C916 1.389 . S
C915 H894 0.950 . S
C915 C914 1.373 . S
C915 C931 1.377 . S
C916 C914 1.389 . S
C916 C917 1.524 . S
C916 C930 1.377 . S
C917 C916 1.524 . S
C917 C918 1.397 . S
C917 C922 1.363 . S
C918 H895 0.950 . S
C918 C917 1.397 . S
C918 C919 1.334 . S
C919 H896 0.950 . S
C919 C918 1.334 . S
C919 C920 1.287 . S
C920 C919 1.287 . S
C920 C921 1.524 . S
C920 H939 0.913 . S
C921 H897 0.950 . S
C921 C920 1.524 . S
C921 C922 1.415 . S
C922 H898 0.950 . S
C922 C917 1.363 . S
C922 C921 1.415 . S
C923 H899 0.951 . S
C923 C924 1.366 . S
C923 C925 1.388 . S
C924 C923 1.366 . S
C924 C928 1.385 . S
C925 H900 0.951 . S
C925 C923 1.388 . S
C925 C926 1.366 . S
C926 C925 1.366 . S
C926 C927 1.414 . S
C926 C929 1.499 . S
C927 H901 0.950 . S
C927 C926 1.414 . S
C927 C928 1.374 . S
C928 H902 0.950 . S
C928 C924 1.385 . S
C928 C927 1.374 . S
C929 C926 1.499 . S
C929 C930 1.373 . S
C929 C931 1.389 . S
C930 H903 0.950 . S
C930 C916 1.377 . S
C930 C929 1.373 . S
C931 C915 1.377 . S
C931 C929 1.389 . S
C931 C932 1.524 . S
C932 C931 1.524 . S
C932 C933 1.397 . S
C932 C937 1.363 . S
C933 H904 0.950 . S
C933 C932 1.397 . S
C933 C934 1.334 1_565 S
C934 H905 0.950 . S
C934 C933 1.334 1_545 S
C934 C935 1.287 . S
C935 C934 1.287 . S
C935 C936 1.524 . S
C935 H938 0.999 . S
C936 H906 0.950 . S
C936 C935 1.524 . S
C936 C937 1.415 1_545 S
C937 H907 0.950 . S
C937 C932 1.363 . S
C937 C936 1.415 1_565 S
H938 C935 0.999 . S
H939 C920 0.913 . S
H940 C958 0.951 . S
H941 C960 0.951 . S
H942 C962 0.950 . S
H943 C963 0.950 . S
H944 C965 0.950 . S
H945 C968 0.950 . S
H946 C969 0.950 . S
H947 C971 0.950 . S
H948 C972 0.950 . S
H949 C973 0.951 . S
H950 C975 0.951 . S
H951 C977 0.950 . S
H952 C978 0.950 . S
H953 C980 0.950 . S
H954 C983 0.950 . S
H955 C984 0.950 . S
H956 C986 0.950 . S
H957 C987 0.950 . S
C958 H940 0.951 . S
C958 C959 1.366 . S
C958 C960 1.388 . S
C959 C958 1.366 . S
C959 C963 1.385 . S
C960 H941 0.951 . S
C960 C958 1.388 . S
C960 C961 1.366 . S
C961 C960 1.366 . S
C961 C962 1.414 . S
C961 C964 1.499 . S
C962 H942 0.950 . S
C962 C961 1.414 . S
C962 C963 1.374 . S
C963 H943 0.950 . S
C963 C959 1.385 . S
C963 C962 1.374 . S
C964 C961 1.499 . S
C964 C965 1.373 . S
C964 C966 1.389 . S
C965 H944 0.950 . S
C965 C964 1.373 . S
C965 C981 1.377 . S
C966 C964 1.389 . S
C966 C967 1.524 . S
C966 C980 1.377 . S
C967 C966 1.524 . S
C967 C968 1.397 . S
C967 C972 1.363 . S
C968 H945 0.950 . S
C968 C967 1.397 . S
C968 C969 1.334 . S
C969 H946 0.950 . S
C969 C968 1.334 . S
C969 C970 1.287 . S
C970 C969 1.287 . S
C970 C971 1.524 . S
C970 H989 0.913 . S
C971 H947 0.950 . S
C971 C970 1.524 . S
C971 C972 1.415 . S
C972 H948 0.950 . S
C972 C967 1.363 . S
C972 C971 1.415 . S
C973 H949 0.951 . S
C973 C974 1.366 . S
C973 C975 1.388 . S
C974 C973 1.366 . S
C974 C978 1.385 . S
C975 H950 0.951 . S
C975 C973 1.388 . S
C975 C976 1.366 . S
C976 C975 1.366 . S
C976 C977 1.414 . S
C976 C979 1.499 . S
C977 H951 0.950 . S
C977 C976 1.414 . S
C977 C978 1.374 . S
C978 H952 0.950 . S
C978 C974 1.385 . S
C978 C977 1.374 . S
C979 C976 1.499 . S
C979 C980 1.373 . S
C979 C981 1.389 . S
C980 H953 0.950 . S
C980 C966 1.377 . S
C980 C979 1.373 . S
C981 C965 1.377 . S
C981 C979 1.389 . S
C981 C982 1.524 . S
C982 C981 1.524 . S
C982 C983 1.397 . S
C982 C987 1.363 . S
C983 H954 0.950 . S
C983 C982 1.397 . S
C983 C984 1.334 . S
C984 H955 0.950 . S
C984 C983 1.334 . S
C984 C985 1.287 . S
C985 C984 1.287 . S
C985 C986 1.524 . S
C985 H988 0.999 . S
C986 H956 0.950 . S
C986 C985 1.524 . S
C986 C987 1.415 . S
C987 H957 0.950 . S
C987 C982 1.363 . S
C987 C986 1.415 . S
H988 C985 0.999 . S
H989 C970 0.913 . S
H990 C1008 0.951 . S
H991 C1010 0.951 . S
H992 C1012 0.950 . S
H993 C1013 0.950 . S
H994 C1015 0.950 . S
H995 C1018 0.950 . S
H996 C1019 0.950 . S
H997 C1021 0.950 . S
H998 C1022 0.950 . S
H999 C1023 0.951 . S
H1000 C1025 0.951 . S
H1001 C1027 0.950 . S
H1002 C1028 0.950 . S
H1003 C1030 0.950 . S
H1004 C1033 0.950 . S
H1005 C1034 0.950 . S
H1006 C1036 0.950 . S
H1007 C1037 0.950 . S
C1008 H990 0.951 . S
C1008 C1009 1.366 . S
C1008 C1010 1.388 . S
C1009 C1008 1.366 . S
C1009 C1013 1.385 . S
C1010 H991 0.951 . S
C1010 C1008 1.388 . S
C1010 C1011 1.366 . S
C1011 C1010 1.366 . S
C1011 C1012 1.414 . S
C1011 C1014 1.499 . S
C1012 H992 0.950 . S
C1012 C1011 1.414 . S
C1012 C1013 1.374 . S
C1013 H993 0.950 . S
C1013 C1009 1.385 . S
C1013 C1012 1.374 . S
C1014 C1011 1.499 . S
C1014 C1015 1.373 . S
C1014 C1016 1.389 . S
C1015 H994 0.950 . S
C1015 C1014 1.373 . S
C1015 C1031 1.377 . S
C1016 C1014 1.389 . S
C1016 C1017 1.524 . S
C1016 C1030 1.377 1_554 S
C1017 C1016 1.524 . S
C1017 C1018 1.397 . S
C1017 C1022 1.363 1_554 S
C1018 H995 0.950 . S
C1018 C1017 1.397 . S
C1018 C1019 1.334 . S
C1019 H996 0.950 . S
C1019 C1018 1.334 . S
C1019 C1020 1.287 . S
C1020 C1019 1.287 . S
C1020 C1021 1.524 1_554 S
C1020 H1039 0.913 . S
C1021 H997 0.950 . S
C1021 C1020 1.524 1_556 S
C1021 C1022 1.415 . S
C1022 H998 0.950 . S
C1022 C1017 1.363 1_556 S
C1022 C1021 1.415 . S
C1023 H999 0.951 . S
C1023 C1024 1.366 . S
C1023 C1025 1.388 . S
C1024 C1023 1.366 . S
C1024 C1028 1.385 . S
C1025 H1000 0.951 . S
C1025 C1023 1.388 . S
C1025 C1026 1.366 . S
C1026 C1025 1.366 . S
C1026 C1027 1.414 . S
C1026 C1029 1.499 . S
C1027 H1001 0.950 . S
C1027 C1026 1.414 . S
C1027 C1028 1.374 . S
C1028 H1002 0.950 . S
C1028 C1024 1.385 . S
C1028 C1027 1.374 . S
C1029 C1026 1.499 . S
C1029 C1030 1.373 . S
C1029 C1031 1.389 1_556 S
C1030 H1003 0.950 . S
C1030 C1016 1.377 1_556 S
C1030 C1029 1.373 . S
C1031 C1015 1.377 . S
C1031 C1029 1.389 1_554 S
C1031 C1032 1.524 . S
C1032 C1031 1.524 . S
C1032 C1033 1.397 1_554 S
C1032 C1037 1.363 . S
C1033 H1004 0.950 . S
C1033 C1032 1.397 1_556 S
C1033 C1034 1.334 . S
C1034 H1005 0.950 . S
C1034 C1033 1.334 . S
C1034 C1035 1.287 1_556 S
C1035 C1034 1.287 1_554 S
C1035 C1036 1.524 . S
C1035 H1038 0.999 . S
C1036 H1006 0.950 . S
C1036 C1035 1.524 . S
C1036 C1037 1.415 . S
C1037 H1007 0.950 . S
C1037 C1032 1.363 . S
C1037 C1036 1.415 . S
H1038 C1035 0.999 . S
H1039 C1020 0.913 . S
H1040 C1058 0.951 . S
H1041 C1060 0.951 . S
H1042 C1062 0.950 . S
H1043 C1063 0.950 . S
H1044 C1065 0.950 . S
H1045 C1068 0.950 . S
H1046 C1069 0.950 . S
H1047 C1071 0.950 . S
H1048 C1072 0.950 . S
H1049 C1073 0.951 . S
H1050 C1075 0.951 . S
H1051 C1077 0.950 . S
H1052 C1078 0.950 . S
H1053 C1080 0.950 . S
H1054 C1083 0.950 . S
H1055 C1084 0.950 . S
H1056 C1086 0.950 . S
H1057 C1087 0.950 . S
C1058 H1040 0.951 . S
C1058 C1059 1.366 . S
C1058 C1060 1.388 . S
C1059 C1058 1.366 . S
C1059 C1063 1.385 . S
C1060 H1041 0.951 . S
C1060 C1058 1.388 . S
C1060 C1061 1.366 . S
C1061 C1060 1.366 . S
C1061 C1062 1.414 . S
C1061 C1064 1.499 . S
C1062 H1042 0.950 . S
C1062 C1061 1.414 . S
C1062 C1063 1.374 . S
C1063 H1043 0.950 . S
C1063 C1059 1.385 . S
C1063 C1062 1.374 . S
C1064 C1061 1.499 . S
C1064 C1065 1.373 . S
C1064 C1066 1.389 . S
C1065 H1044 0.950 . S
C1065 C1064 1.373 . S
C1065 C1081 1.377 . S
C1066 C1064 1.389 . S
C1066 C1067 1.524 . S
C1066 C1080 1.377 . S
C1067 C1066 1.524 . S
C1067 C1068 1.397 . S
C1067 C1072 1.363 . S
C1068 H1045 0.950 . S
C1068 C1067 1.397 . S
C1068 C1069 1.334 . S
C1069 H1046 0.950 . S
C1069 C1068 1.334 . S
C1069 C1070 1.287 . S
C1070 C1069 1.287 . S
C1070 C1071 1.524 . S
C1070 H1089 0.913 . S
C1071 H1047 0.950 . S
C1071 C1070 1.524 . S
C1071 C1072 1.415 . S
C1072 H1048 0.950 . S
C1072 C1067 1.363 . S
C1072 C1071 1.415 . S
C1073 H1049 0.951 . S
C1073 C1074 1.366 . S
C1073 C1075 1.388 . S
C1074 C1073 1.366 . S
C1074 C1078 1.385 . S
C1075 H1050 0.951 . S
C1075 C1073 1.388 . S
C1075 C1076 1.366 . S
C1076 C1075 1.366 . S
C1076 C1077 1.414 . S
C1076 C1079 1.499 . S
C1077 H1051 0.950 . S
C1077 C1076 1.414 . S
C1077 C1078 1.374 . S
C1078 H1052 0.950 . S
C1078 C1074 1.385 . S
C1078 C1077 1.374 . S
C1079 C1076 1.499 . S
C1079 C1080 1.373 . S
C1079 C1081 1.389 . S
C1080 H1053 0.950 . S
C1080 C1066 1.377 . S
C1080 C1079 1.373 . S
C1081 C1065 1.377 . S
C1081 C1079 1.389 . S
C1081 C1082 1.524 . S
C1082 C1081 1.524 . S
C1082 C1083 1.397 . S
C1082 C1087 1.363 . S
C1083 H1054 0.950 . S
C1083 C1082 1.397 . S
C1083 C1084 1.334 . S
C1084 H1055 0.950 . S
C1084 C1083 1.334 . S
C1084 C1085 1.287 . S
C1085 C1084 1.287 . S
C1085 C1086 1.524 . S
C1085 H1088 0.999 . S
C1086 H1056 0.950 . S
C1086 C1085 1.524 . S
C1086 C1087 1.415 . S
C1087 H1057 0.950 . S
C1087 C1082 1.363 . S
C1087 C1086 1.415 . S
H1088 C1085 0.999 . S
H1089 C1070 0.913 . S
H1090 C1108 0.951 . S
H1091 C1110 0.951 . S
H1092 C1112 0.936 1_556 S
H1093 C1113 0.950 . S
H1094 C1115 0.950 . S
H1095 C1118 0.950 . S
H1096 C1119 0.950 . S
H1097 C1121 0.950 . S
H1098 C1122 0.950 1_556 S
H1099 C1123 0.951 . S
H1100 C1125 0.951 . S
H1101 C1127 0.950 . S
H1102 C1128 0.950 . S
H1103 C1130 0.950 . S
H1104 C1133 0.950 . S
H1105 C1134 0.950 . S
H1106 C1136 0.950 . S
H1107 C1137 0.950 . S
C1108 H1090 0.951 . S
C1108 C1109 1.366 . S
C1108 C1110 1.388 . S
C1109 C1108 1.366 . S
C1109 C1113 1.385 . S
C1110 H1091 0.951 . S
C1110 C1108 1.388 . S
C1110 C1111 1.366 . S
C1111 C1110 1.366 . S
C1111 C1112 1.414 . S
C1111 C1114 1.499 1_554 S
C1112 H1092 0.936 1_554 S
C1112 C1111 1.414 . S
C1112 C1113 1.374 . S
C1113 H1093 0.950 . S
C1113 C1109 1.385 . S
C1113 C1112 1.374 . S
C1114 C1111 1.499 1_556 S
C1114 C1115 1.373 . S
C1114 C1116 1.389 . S
C1115 H1094 0.950 . S
C1115 C1114 1.373 . S
C1115 C1131 1.377 . S
C1116 C1114 1.389 . S
C1116 C1117 1.524 . S
C1116 C1130 1.377 . S
C1117 C1116 1.524 . S
C1117 C1118 1.397 . S
C1117 C1122 1.362 1_556 S
C1118 H1095 0.950 . S
C1118 C1117 1.397 . S
C1118 C1119 1.334 1_556 S
C1119 H1096 0.950 . S
C1119 C1118 1.334 1_554 S
C1119 C1120 1.287 . S
C1120 C1119 1.287 . S
C1120 C1121 1.524 . S
C1120 H1139 0.913 . S
C1121 H1097 0.950 . S
C1121 C1120 1.524 . S
C1121 C1122 1.415 . S
C1122 H1098 0.950 1_554 S
C1122 C1117 1.362 1_554 S
C1122 C1121 1.415 . S
C1123 H1099 0.951 . S
C1123 C1124 1.366 . S
C1123 C1125 1.388 . S
C1124 C1123 1.366 . S
C1124 C1128 1.385 . S
C1125 H1100 0.951 . S
C1125 C1123 1.388 . S
C1125 C1126 1.366 . S
C1126 C1125 1.366 . S
C1126 C1127 1.414 . S
C1126 C1129 1.499 . S
C1127 H1101 0.950 . S
C1127 C1126 1.414 . S
C1127 C1128 1.374 . S
C1128 H1102 0.950 . S
C1128 C1124 1.385 . S
C1128 C1127 1.374 . S
C1129 C1126 1.499 . S
C1129 C1130 1.373 . S
C1129 C1131 1.389 . S
C1130 H1103 0.950 . S
C1130 C1116 1.377 . S
C1130 C1129 1.373 . S
C1131 C1115 1.377 . S
C1131 C1129 1.389 . S
C1131 C1132 1.524 . S
C1132 C1131 1.524 . S
C1132 C1133 1.397 . S
C1132 C1137 1.363 . S
C1133 H1104 0.950 . S
C1133 C1132 1.397 . S
C1133 C1134 1.334 . S
C1134 H1105 0.950 . S
C1134 C1133 1.334 . S
C1134 C1135 1.287 . S
C1135 C1134 1.287 . S
C1135 C1136 1.524 . S
C1135 H1138 0.999 . S
C1136 H1106 0.950 . S
C1136 C1135 1.524 . S
C1136 C1137 1.415 . S
C1137 H1107 0.950 . S
C1137 C1132 1.363 . S
C1137 C1136 1.415 . S
H1138 C1135 0.999 . S
H1139 C1120 0.913 . S
H1140 C1158 0.951 . S
H1141 C1160 0.951 . S
H1142 C1162 0.950 . S
H1143 C1163 0.950 . S
H1144 C1165 0.950 . S
H1145 C1168 0.950 . S
H1146 C1169 0.950 . S
H1147 C1171 0.950 . S
H1148 C1172 0.950 . S
H1149 C1173 0.951 . S
H1150 C1175 0.951 . S
H1151 C1177 0.950 . S
H1152 C1178 0.950 . S
H1153 C1180 0.950 . S
H1154 C1183 0.950 . S
H1155 C1184 0.950 . S
H1156 C1186 0.950 . S
H1157 C1187 0.950 . S
C1158 H1140 0.951 . S
C1158 C1159 1.366 . S
C1158 C1160 1.388 . S
C1159 C1158 1.366 . S
C1159 C1163 1.385 . S
C1160 H1141 0.951 . S
C1160 C1158 1.388 . S
C1160 C1161 1.366 . S
C1161 C1160 1.366 . S
C1161 C1162 1.414 . S
C1161 C1164 1.499 . S
C1162 H1142 0.950 . S
C1162 C1161 1.414 . S
C1162 C1163 1.374 . S
C1163 H1143 0.950 . S
C1163 C1159 1.385 . S
C1163 C1162 1.374 . S
C1164 C1161 1.499 . S
C1164 C1165 1.373 . S
C1164 C1166 1.389 . S
C1165 H1144 0.950 . S
C1165 C1164 1.373 . S
C1165 C1181 1.377 . S
C1166 C1164 1.389 . S
C1166 C1167 1.524 . S
C1166 C1180 1.377 . S
C1167 C1166 1.524 . S
C1167 C1168 1.397 . S
C1167 C1172 1.363 . S
C1168 H1145 0.950 . S
C1168 C1167 1.397 . S
C1168 C1169 1.334 . S
C1169 H1146 0.950 . S
C1169 C1168 1.334 . S
C1169 C1170 1.287 . S
C1170 C1169 1.287 . S
C1170 C1171 1.524 . S
C1170 H1189 0.913 . S
C1171 H1147 0.950 . S
C1171 C1170 1.524 . S
C1171 C1172 1.415 . S
C1172 H1148 0.950 . S
C1172 C1167 1.363 . S
C1172 C1171 1.415 . S
C1173 H1149 0.951 . S
C1173 C1174 1.366 . S
C1173 C1175 1.388 . S
C1174 C1173 1.366 . S
C1174 C1178 1.385 . S
C1175 H1150 0.951 . S
C1175 C1173 1.388 . S
C1175 C1176 1.366 . S
C1176 C1175 1.366 . S
C1176 C1177 1.414 . S
C1176 C1179 1.499 . S
C1177 H1151 0.950 . S
C1177 C1176 1.414 . S
C1177 C1178 1.374 . S
C1178 H1152 0.950 . S
C1178 C1174 1.385 . S
C1178 C1177 1.374 . S
C1179 C1176 1.499 . S
C1179 C1180 1.373 . S
C1179 C1181 1.389 . S
C1180 H1153 0.950 . S
C1180 C1166 1.377 . S
C1180 C1179 1.373 . S
C1181 C1165 1.377 . S
C1181 C1179 1.389 . S
C1181 C1182 1.524 . S
C1182 C1181 1.524 . S
C1182 C1183 1.397 . S
C1182 C1187 1.363 . S
C1183 H1154 0.950 . S
C1183 C1182 1.397 . S
C1183 C1184 1.334 . S
C1184 H1155 0.950 . S
C1184 C1183 1.334 . S
C1184 C1185 1.287 . S
C1185 C1184 1.287 . S
C1185 C1186 1.524 . S
C1185 H1188 0.999 . S
C1186 H1156 0.950 . S
C1186 C1185 1.524 . S
C1186 C1187 1.415 . S
C1187 H1157 0.950 . S
C1187 C1182 1.363 . S
C1187 C1186 1.415 . S
H1188 C1185 0.999 . S
H1189 C1170 0.913 . S
H1190 C1208 0.951 . S
H1191 C1210 0.951 . S
H1192 C1212 0.950 . S
H1193 C1213 0.950 . S
H1194 C1215 0.950 . S
H1195 C1218 0.950 . S
H1196 C1219 0.950 . S
H1197 C1221 0.950 . S
H1198 C1222 0.950 . S
H1199 C1223 0.951 . S
H1200 C1225 0.951 . S
H1201 C1227 0.950 . S
H1202 C1228 0.950 . S
H1203 C1230 0.950 . S
H1204 C1233 0.950 . S
H1205 C1234 0.950 . S
H1206 C1236 0.950 . S
H1207 C1237 0.950 . S
C1208 H1190 0.951 . S
C1208 C1209 1.366 . S
C1208 C1210 1.388 . S
C1209 C1208 1.366 . S
C1209 C1213 1.385 . S
C1210 H1191 0.951 . S
C1210 C1208 1.388 . S
C1210 C1211 1.366 . S
C1211 C1210 1.366 . S
C1211 C1212 1.414 . S
C1211 C1214 1.499 . S
C1212 H1192 0.950 . S
C1212 C1211 1.414 . S
C1212 C1213 1.374 . S
C1213 H1193 0.950 . S
C1213 C1209 1.385 . S
C1213 C1212 1.374 . S
C1214 C1211 1.499 . S
C1214 C1215 1.373 . S
C1214 C1216 1.389 . S
C1215 H1194 0.950 . S
C1215 C1214 1.373 . S
C1215 C1231 1.377 . S
C1216 C1214 1.389 . S
C1216 C1217 1.524 . S
C1216 C1230 1.377 . S
C1217 C1216 1.524 . S
C1217 C1218 1.397 . S
C1217 C1222 1.363 . S
C1218 H1195 0.950 . S
C1218 C1217 1.397 . S
C1218 C1219 1.334 . S
C1219 H1196 0.950 . S
C1219 C1218 1.334 . S
C1219 C1220 1.287 . S
C1220 C1219 1.287 . S
C1220 C1221 1.524 . S
C1220 H1239 0.913 . S
C1221 H1197 0.950 . S
C1221 C1220 1.524 . S
C1221 C1222 1.415 . S
C1222 H1198 0.950 . S
C1222 C1217 1.363 . S
C1222 C1221 1.415 . S
C1223 H1199 0.951 . S
C1223 C1224 1.366 . S
C1223 C1225 1.388 . S
C1224 C1223 1.366 . S
C1224 C1228 1.385 . S
C1225 H1200 0.951 . S
C1225 C1223 1.388 . S
C1225 C1226 1.366 . S
C1226 C1225 1.366 . S
C1226 C1227 1.414 . S
C1226 C1229 1.499 . S
C1227 H1201 0.950 . S
C1227 C1226 1.414 . S
C1227 C1228 1.374 . S
C1228 H1202 0.950 . S
C1228 C1224 1.385 . S
C1228 C1227 1.374 . S
C1229 C1226 1.499 . S
C1229 C1230 1.373 . S
C1229 C1231 1.389 . S
C1230 H1203 0.950 . S
C1230 C1216 1.377 . S
C1230 C1229 1.373 . S
C1231 C1215 1.377 . S
C1231 C1229 1.389 . S
C1231 C1232 1.524 . S
C1232 C1231 1.524 . S
C1232 C1233 1.397 . S
C1232 C1237 1.363 . S
C1233 H1204 0.950 . S
C1233 C1232 1.397 . S
C1233 C1234 1.334 . S
C1234 H1205 0.950 . S
C1234 C1233 1.334 . S
C1234 C1235 1.287 . S
C1235 C1234 1.287 . S
C1235 C1236 1.524 . S
C1235 H1238 0.999 . S
C1236 H1206 0.950 . S
C1236 C1235 1.524 . S
C1236 C1237 1.415 . S
C1237 H1207 0.950 . S
C1237 C1232 1.363 . S
C1237 C1236 1.415 . S
H1238 C1235 0.999 . S
H1239 C1220 0.913 . S
H1240 C1258 0.951 . S
H1241 C1260 0.951 . S
H1242 C1262 0.950 . S
H1243 C1263 0.950 . S
H1244 C1265 0.950 . S
H1245 C1268 0.950 . S
H1246 C1269 0.950 . S
H1247 C1271 0.950 . S
H1248 C1272 0.950 . S
H1249 C1273 0.951 . S
H1250 C1275 0.951 . S
H1251 C1277 0.950 . S
H1252 C1278 0.950 . S
H1253 C1280 0.950 . S
H1254 C1283 0.950 . S
H1255 C1284 0.950 . S
H1256 C1286 0.950 . S
H1257 C1287 0.950 . S
C1258 H1240 0.951 . S
C1258 C1259 1.366 . S
C1258 C1260 1.388 . S
C1259 C1258 1.366 . S
C1259 C1263 1.385 . S
C1260 H1241 0.951 . S
C1260 C1258 1.388 . S
C1260 C1261 1.366 . S
C1261 C1260 1.366 . S
C1261 C1262 1.414 . S
C1261 C1264 1.499 . S
C1262 H1242 0.950 . S
C1262 C1261 1.414 . S
C1262 C1263 1.374 . S
C1263 H1243 0.950 . S
C1263 C1259 1.385 . S
C1263 C1262 1.374 . S
C1264 C1261 1.499 . S
C1264 C1265 1.373 . S
C1264 C1266 1.389 . S
C1265 H1244 0.950 . S
C1265 C1264 1.373 . S
C1265 C1281 1.377 . S
C1266 C1264 1.389 . S
C1266 C1267 1.524 . S
C1266 C1280 1.377 . S
C1267 C1266 1.524 . S
C1267 C1268 1.397 . S
C1267 C1272 1.363 . S
C1268 H1245 0.950 . S
C1268 C1267 1.397 . S
C1268 C1269 1.334 . S
C1269 H1246 0.950 . S
C1269 C1268 1.334 . S
C1269 C1270 1.287 . S
C1270 C1269 1.287 . S
C1270 C1271 1.524 . S
C1270 H1289 0.913 . S
C1271 H1247 0.950 . S
C1271 C1270 1.524 . S
C1271 C1272 1.415 . S
C1272 H1248 0.950 . S
C1272 C1267 1.363 . S
C1272 C1271 1.415 . S
C1273 H1249 0.951 . S
C1273 C1274 1.366 . S
C1273 C1275 1.388 . S
C1274 C1273 1.366 . S
C1274 C1278 1.385 . S
C1275 H1250 0.951 . S
C1275 C1273 1.388 . S
C1275 C1276 1.366 . S
C1276 C1275 1.366 . S
C1276 C1277 1.414 . S
C1276 C1279 1.499 . S
C1277 H1251 0.950 . S
C1277 C1276 1.414 . S
C1277 C1278 1.374 . S
C1278 H1252 0.950 . S
C1278 C1274 1.385 . S
C1278 C1277 1.374 . S
C1279 C1276 1.499 . S
C1279 C1280 1.373 . S
C1279 C1281 1.389 . S
C1280 H1253 0.950 . S
C1280 C1266 1.377 . S
C1280 C1279 1.373 . S
C1281 C1265 1.377 . S
C1281 C1279 1.389 . S
C1281 C1282 1.524 . S
C1282 C1281 1.524 . S
C1282 C1283 1.397 . S
C1282 C1287 1.363 . S
C1283 H1254 0.950 . S
C1283 C1282 1.397 . S
C1283 C1284 1.334 . S
C1284 H1255 0.950 . S
C1284 C1283 1.334 . S
C1284 C1285 1.287 . S
C1285 C1284 1.287 . S
C1285 C1286 1.524 . S
C1285 H1288 0.999 . S
C1286 H1256 0.950 . S
C1286 C1285 1.524 . S
C1286 C1287 1.415 . S
C1287 H1257 0.950 . S
C1287 C1282 1.363 . S
C1287 C1286 1.415 . S
H1288 C1285 0.999 . S
H1289 C1270 0.913 . S
H1290 C1308 0.951 . S
H1291 C1310 0.951 . S
H1292 C1312 0.950 . S
H1293 C1313 0.950 . S
H1294 C1315 0.950 . S
H1295 C1318 0.950 . S
H1296 C1319 0.950 . S
H1297 C1321 0.950 . S
H1298 C1322 0.950 . S
H1299 C1323 0.951 . S
H1300 C1325 0.951 . S
H1301 C1327 0.950 . S
H1302 C1328 0.950 . S
H1303 C1330 0.951 1_565 S
H1304 C1333 0.950 . S
H1305 C1334 0.950 . S
H1306 C1336 0.950 . S
H1307 C1337 0.950 . S
C1308 H1290 0.951 . S
C1308 C1309 1.366 . S
C1308 C1310 1.388 . S
C1309 C1308 1.366 . S
C1309 C1313 1.385 . S
C1310 H1291 0.951 . S
C1310 C1308 1.388 . S
C1310 C1311 1.366 . S
C1311 C1310 1.366 . S
C1311 C1312 1.414 . S
C1311 C1314 1.499 . S
C1312 H1292 0.950 . S
C1312 C1311 1.414 . S
C1312 C1313 1.374 . S
C1313 H1293 0.950 . S
C1313 C1309 1.385 . S
C1313 C1312 1.374 . S
C1314 C1311 1.499 . S
C1314 C1315 1.373 . S
C1314 C1316 1.389 . S
C1315 H1294 0.950 . S
C1315 C1314 1.373 . S
C1315 C1331 1.377 . S
C1316 C1314 1.389 . S
C1316 C1317 1.524 . S
C1316 C1330 1.377 . S
C1317 C1316 1.524 . S
C1317 C1318 1.397 . S
C1317 C1322 1.363 . S
C1318 H1295 0.950 . S
C1318 C1317 1.397 . S
C1318 C1319 1.334 . S
C1319 H1296 0.950 . S
C1319 C1318 1.334 . S
C1319 C1320 1.287 . S
C1320 C1319 1.287 . S
C1320 C1321 1.524 . S
C1320 H1339 0.913 . S
C1321 H1297 0.950 . S
C1321 C1320 1.524 . S
C1321 C1322 1.415 . S
C1322 H1298 0.950 . S
C1322 C1317 1.363 . S
C1322 C1321 1.415 . S
C1323 H1299 0.951 . S
C1323 C1324 1.366 . S
C1323 C1325 1.388 . S
C1324 C1323 1.366 . S
C1324 C1328 1.385 . S
C1325 H1300 0.951 . S
C1325 C1323 1.388 . S
C1325 C1326 1.366 . S
C1326 C1325 1.366 . S
C1326 C1327 1.414 . S
C1326 C1329 1.499 1_565 S
C1327 H1301 0.950 . S
C1327 C1326 1.414 . S
C1327 C1328 1.374 . S
C1328 H1302 0.950 . S
C1328 C1324 1.385 . S
C1328 C1327 1.374 . S
C1329 C1326 1.499 1_545 S
C1329 C1330 1.373 . S
C1329 C1331 1.389 . S
C1330 H1303 0.951 1_545 S
C1330 C1316 1.377 . S
C1330 C1329 1.373 . S
C1331 C1315 1.377 . S
C1331 C1329 1.389 . S
C1331 C1332 1.524 . S
C1332 C1331 1.524 . S
C1332 C1333 1.397 . S
C1332 C1337 1.363 . S
C1333 H1304 0.950 . S
C1333 C1332 1.397 . S
C1333 C1334 1.334 1_455 S
C1334 H1305 0.950 . S
C1334 C1333 1.334 1_655 S
C1334 C1335 1.287 . S
C1335 C1334 1.287 . S
C1335 C1336 1.524 . S
C1335 H1338 0.999 . S
C1336 H1306 0.950 . S
C1336 C1335 1.524 . S
C1336 C1337 1.415 1_655 S
C1337 H1307 0.950 . S
C1337 C1332 1.363 . S
C1337 C1336 1.415 1_455 S
H1338 C1335 0.999 . S
H1339 C1320 0.913 . S
H1340 C1358 0.951 . S
H1341 C1360 0.951 . S
H1342 C1362 0.950 . S
H1343 C1363 0.950 . S
H1344 C1365 0.950 . S
H1345 C1368 0.950 . S
H1346 C1369 0.950 . S
H1347 C1371 0.950 . S
H1348 C1372 0.950 . S
H1349 C1373 0.951 . S
H1350 C1375 0.951 . S
H1351 C1377 0.950 . S
H1352 C1378 0.950 . S
H1353 C1380 0.950 . S
H1354 C1383 0.950 . S
H1355 C1384 0.950 . S
H1356 C1386 0.950 . S
H1357 C1387 0.950 . S
C1358 H1340 0.951 . S
C1358 C1359 1.366 . S
C1358 C1360 1.388 . S
C1359 C1358 1.366 . S
C1359 C1363 1.385 . S
C1360 H1341 0.951 . S
C1360 C1358 1.388 . S
C1360 C1361 1.366 . S
C1361 C1360 1.366 . S
C1361 C1362 1.414 . S
C1361 C1364 1.499 . S
C1362 H1342 0.950 . S
C1362 C1361 1.414 . S
C1362 C1363 1.374 . S
C1363 H1343 0.950 . S
C1363 C1359 1.385 . S
C1363 C1362 1.374 . S
C1364 C1361 1.499 . S
C1364 C1365 1.373 . S
C1364 C1366 1.389 . S
C1365 H1344 0.950 . S
C1365 C1364 1.373 . S
C1365 C1381 1.377 . S
C1366 C1364 1.389 . S
C1366 C1367 1.524 . S
C1366 C1380 1.377 . S
C1367 C1366 1.524 . S
C1367 C1368 1.397 . S
C1367 C1372 1.363 . S
C1368 H1345 0.950 . S
C1368 C1367 1.397 . S
C1368 C1369 1.334 . S
C1369 H1346 0.950 . S
C1369 C1368 1.334 . S
C1369 C1370 1.287 . S
C1370 C1369 1.287 . S
C1370 C1371 1.524 . S
C1370 H1389 0.913 . S
C1371 H1347 0.950 . S
C1371 C1370 1.524 . S
C1371 C1372 1.415 . S
C1372 H1348 0.950 . S
C1372 C1367 1.363 . S
C1372 C1371 1.415 . S
C1373 H1349 0.951 . S
C1373 C1374 1.366 . S
C1373 C1375 1.388 . S
C1374 C1373 1.366 . S
C1374 C1378 1.385 . S
C1375 H1350 0.951 . S
C1375 C1373 1.388 . S
C1375 C1376 1.366 . S
C1376 C1375 1.366 . S
C1376 C1377 1.414 . S
C1376 C1379 1.499 . S
C1377 H1351 0.950 . S
C1377 C1376 1.414 . S
C1377 C1378 1.374 . S
C1378 H1352 0.950 . S
C1378 C1374 1.385 . S
C1378 C1377 1.374 . S
C1379 C1376 1.499 . S
C1379 C1380 1.373 . S
C1379 C1381 1.389 . S
C1380 H1353 0.950 . S
C1380 C1366 1.377 . S
C1380 C1379 1.373 . S
C1381 C1365 1.377 . S
C1381 C1379 1.389 . S
C1381 C1382 1.524 . S
C1382 C1381 1.524 . S
C1382 C1383 1.397 . S
C1382 C1387 1.363 . S
C1383 H1354 0.950 . S
C1383 C1382 1.397 . S
C1383 C1384 1.334 . S
C1384 H1355 0.950 . S
C1384 C1383 1.334 . S
C1384 C1385 1.287 . S
C1385 C1384 1.287 . S
C1385 C1386 1.524 . S
C1385 H1388 0.999 . S
C1386 H1356 0.950 . S
C1386 C1385 1.524 . S
C1386 C1387 1.415 . S
C1387 H1357 0.950 . S
C1387 C1382 1.363 . S
C1387 C1386 1.415 . S
H1388 C1385 0.999 . S
H1389 C1370 0.913 . S
H1390 C1408 0.951 . S
H1391 C1410 0.951 . S
H1392 C1412 0.950 . S
H1393 C1413 0.950 . S
H1394 C1415 0.950 . S
H1395 C1418 0.950 . S
H1396 C1419 0.950 . S
H1397 C1421 0.950 . S
H1398 C1422 0.950 . S
H1399 C1423 0.951 . S
H1400 C1425 0.951 . S
H1401 C1427 0.950 . S
H1402 C1428 0.950 . S
H1403 C1430 0.950 . S
H1404 C1433 0.950 . S
H1405 C1434 0.950 . S
H1406 C1436 0.950 . S
H1407 C1437 0.950 . S
C1408 H1390 0.951 . S
C1408 C1409 1.366 . S
C1408 C1410 1.388 . S
C1409 C1408 1.366 . S
C1409 C1413 1.385 . S
C1410 H1391 0.951 . S
C1410 C1408 1.388 . S
C1410 C1411 1.366 . S
C1411 C1410 1.366 . S
C1411 C1412 1.414 . S
C1411 C1414 1.499 . S
C1412 H1392 0.950 . S
C1412 C1411 1.414 . S
C1412 C1413 1.374 . S
C1413 H1393 0.950 . S
C1413 C1409 1.385 . S
C1413 C1412 1.374 . S
C1414 C1411 1.499 . S
C1414 C1415 1.373 1_545 S
C1414 C1416 1.389 . S
C1415 H1394 0.950 . S
C1415 C1414 1.373 1_565 S
C1415 C1431 1.377 . S
C1416 C1414 1.389 . S
C1416 C1417 1.524 . S
C1416 C1430 1.377 1_545 S
C1417 C1416 1.524 . S
C1417 C1418 1.397 . S
C1417 C1422 1.363 . S
C1418 H1395 0.950 . S
C1418 C1417 1.397 . S
C1418 C1419 1.334 . S
C1419 H1396 0.950 . S
C1419 C1418 1.334 . S
C1419 C1420 1.287 . S
C1420 C1419 1.287 . S
C1420 C1421 1.524 . S
C1420 H1439 0.913 . S
C1421 H1397 0.950 . S
C1421 C1420 1.524 . S
C1421 C1422 1.415 . S
C1422 H1398 0.950 . S
C1422 C1417 1.363 . S
C1422 C1421 1.415 . S
C1423 H1399 0.951 . S
C1423 C1424 1.366 . S
C1423 C1425 1.388 . S
C1424 C1423 1.366 . S
C1424 C1428 1.385 . S
C1425 H1400 0.951 . S
C1425 C1423 1.388 . S
C1425 C1426 1.366 . S
C1426 C1425 1.366 . S
C1426 C1427 1.414 . S
C1426 C1429 1.499 . S
C1427 H1401 0.950 . S
C1427 C1426 1.414 . S
C1427 C1428 1.374 . S
C1428 H1402 0.950 . S
C1428 C1424 1.385 . S
C1428 C1427 1.374 . S
C1429 C1426 1.499 . S
C1429 C1430 1.373 . S
C1429 C1431 1.389 . S
C1430 H1403 0.950 . S
C1430 C1416 1.377 1_565 S
C1430 C1429 1.373 . S
C1431 C1415 1.377 . S
C1431 C1429 1.389 . S
C1431 C1432 1.524 . S
C1432 C1431 1.524 . S
C1432 C1433 1.397 . S
C1432 C1437 1.363 . S
C1433 H1404 0.950 . S
C1433 C1432 1.397 . S
C1433 C1434 1.334 . S
C1434 H1405 0.950 . S
C1434 C1433 1.334 . S
C1434 C1435 1.287 . S
C1435 C1434 1.287 . S
C1435 C1436 1.524 . S
C1435 H1438 0.999 . S
C1436 H1406 0.950 . S
C1436 C1435 1.524 . S
C1436 C1437 1.415 . S
C1437 H1407 0.950 . S
C1437 C1432 1.363 . S
C1437 C1436 1.415 . S
H1438 C1435 0.999 . S
H1439 C1420 0.913 . S
H1440 C1458 0.951 . S
H1441 C1460 0.951 . S
H1442 C1462 0.950 . S
H1443 C1463 0.950 . S
H1444 C1465 0.950 . S
H1445 C1468 0.950 . S
H1446 C1469 0.950 . S
H1447 C1471 0.950 . S
H1448 C1472 0.950 . S
H1449 C1473 0.951 . S
H1450 C1475 0.951 . S
H1451 C1477 0.950 . S
H1452 C1478 0.950 . S
H1453 C1480 0.950 . S
H1454 C1483 0.950 . S
H1455 C1484 0.950 . S
H1456 C1486 0.950 . S
H1457 C1487 0.950 . S
C1458 H1440 0.951 . S
C1458 C1459 1.366 . S
C1458 C1460 1.388 . S
C1459 C1458 1.366 . S
C1459 C1463 1.385 . S
C1460 H1441 0.951 . S
C1460 C1458 1.388 . S
C1460 C1461 1.366 . S
C1461 C1460 1.366 . S
C1461 C1462 1.414 . S
C1461 C1464 1.499 . S
C1462 H1442 0.950 . S
C1462 C1461 1.414 . S
C1462 C1463 1.374 . S
C1463 H1443 0.950 . S
C1463 C1459 1.385 . S
C1463 C1462 1.374 . S
C1464 C1461 1.499 . S
C1464 C1465 1.373 . S
C1464 C1466 1.389 . S
C1465 H1444 0.950 . S
C1465 C1464 1.373 . S
C1465 C1481 1.377 . S
C1466 C1464 1.389 . S
C1466 C1467 1.524 . S
C1466 C1480 1.377 . S
C1467 C1466 1.524 . S
C1467 C1468 1.397 . S
C1467 C1472 1.363 . S
C1468 H1445 0.950 . S
C1468 C1467 1.397 . S
C1468 C1469 1.334 . S
C1469 H1446 0.950 . S
C1469 C1468 1.334 . S
C1469 C1470 1.287 . S
C1470 C1469 1.287 . S
C1470 C1471 1.524 . S
C1470 H1489 0.913 . S
C1471 H1447 0.950 . S
C1471 C1470 1.524 . S
C1471 C1472 1.415 . S
C1472 H1448 0.950 . S
C1472 C1467 1.363 . S
C1472 C1471 1.415 . S
C1473 H1449 0.951 . S
C1473 C1474 1.366 . S
C1473 C1475 1.388 . S
C1474 C1473 1.366 . S
C1474 C1478 1.385 . S
C1475 H1450 0.951 . S
C1475 C1473 1.388 . S
C1475 C1476 1.366 . S
C1476 C1475 1.366 . S
C1476 C1477 1.414 . S
C1476 C1479 1.499 . S
C1477 H1451 0.950 . S
C1477 C1476 1.414 . S
C1477 C1478 1.374 . S
C1478 H1452 0.950 . S
C1478 C1474 1.385 . S
C1478 C1477 1.374 . S
C1479 C1476 1.499 . S
C1479 C1480 1.373 . S
C1479 C1481 1.389 . S
C1480 H1453 0.950 . S
C1480 C1466 1.377 . S
C1480 C1479 1.373 . S
C1481 C1465 1.377 . S
C1481 C1479 1.389 . S
C1481 C1482 1.524 . S
C1482 C1481 1.524 . S
C1482 C1483 1.397 . S
C1482 C1487 1.363 . S
C1483 H1454 0.950 . S
C1483 C1482 1.397 . S
C1483 C1484 1.334 . S
C1484 H1455 0.950 . S
C1484 C1483 1.334 . S
C1484 C1485 1.287 . S
C1485 C1484 1.287 . S
C1485 C1486 1.524 . S
C1485 H1488 0.999 . S
C1486 H1456 0.950 . S
C1486 C1485 1.524 . S
C1486 C1487 1.415 . S
C1487 H1457 0.950 . S
C1487 C1482 1.363 . S
C1487 C1486 1.415 . S
H1488 C1485 0.999 . S
H1489 C1470 0.913 . S
H1490 C1508 0.951 . S
H1491 C1510 0.951 . S
H1492 C1512 0.950 . S
H1493 C1513 0.950 . S
H1494 C1515 0.950 . S
H1495 C1518 0.950 . S
H1496 C1519 0.950 . S
H1497 C1521 0.950 . S
H1498 C1522 0.950 . S
H1499 C1523 0.951 . S
H1500 C1525 0.951 . S
H1501 C1527 0.950 . S
H1502 C1528 0.950 . S
H1503 C1530 0.950 . S
H1504 C1533 0.950 . S
H1505 C1534 0.948 . S
H1506 C1536 0.950 1_455 S
H1507 C1537 0.950 . S
C1508 H1490 0.951 . S
C1508 C1509 1.366 . S
C1508 C1510 1.388 . S
C1509 C1508 1.366 . S
C1509 C1513 1.385 . S
C1510 H1491 0.951 . S
C1510 C1508 1.388 . S
C1510 C1511 1.366 . S
C1511 C1510 1.366 . S
C1511 C1512 1.414 . S
C1511 C1514 1.499 . S
C1512 H1492 0.950 . S
C1512 C1511 1.414 . S
C1512 C1513 1.374 . S
C1513 H1493 0.950 . S
C1513 C1509 1.385 . S
C1513 C1512 1.374 . S
C1514 C1511 1.499 . S
C1514 C1515 1.373 . S
C1514 C1516 1.389 . S
C1515 H1494 0.950 . S
C1515 C1514 1.373 . S
C1515 C1531 1.377 . S
C1516 C1514 1.389 . S
C1516 C1517 1.524 . S
C1516 C1530 1.377 . S
C1517 C1516 1.524 . S
C1517 C1518 1.397 . S
C1517 C1522 1.363 . S
C1518 H1495 0.950 . S
C1518 C1517 1.397 . S
C1518 C1519 1.334 . S
C1519 H1496 0.950 . S
C1519 C1518 1.334 . S
C1519 C1520 1.287 . S
C1520 C1519 1.287 . S
C1520 C1521 1.524 . S
C1520 H1539 0.913 . S
C1521 H1497 0.950 . S
C1521 C1520 1.524 . S
C1521 C1522 1.415 . S
C1522 H1498 0.950 . S
C1522 C1517 1.363 . S
C1522 C1521 1.415 . S
C1523 H1499 0.951 . S
C1523 C1524 1.366 . S
C1523 C1525 1.388 . S
C1524 C1523 1.366 . S
C1524 C1528 1.385 . S
C1525 H1500 0.951 . S
C1525 C1523 1.388 . S
C1525 C1526 1.366 . S
C1526 C1525 1.366 . S
C1526 C1527 1.414 . S
C1526 C1529 1.499 . S
C1527 H1501 0.950 . S
C1527 C1526 1.414 . S
C1527 C1528 1.374 . S
C1528 H1502 0.950 . S
C1528 C1524 1.385 . S
C1528 C1527 1.374 . S
C1529 C1526 1.499 . S
C1529 C1530 1.373 . S
C1529 C1531 1.389 . S
C1530 H1503 0.950 . S
C1530 C1516 1.377 . S
C1530 C1529 1.373 . S
C1531 C1515 1.377 . S
C1531 C1529 1.389 . S
C1531 C1532 1.524 . S
C1532 C1531 1.524 . S
C1532 C1533 1.397 . S
C1532 C1537 1.363 . S
C1533 H1504 0.950 . S
C1533 C1532 1.397 . S
C1533 C1534 1.338 1_655 S
C1534 H1505 0.948 . S
C1534 C1533 1.338 1_455 S
C1534 C1535 1.285 . S
C1535 C1534 1.285 . S
C1535 C1536 1.524 1_455 S
C1535 H1538 0.999 . S
C1536 H1506 0.950 1_655 S
C1536 C1535 1.524 1_655 S
C1536 C1537 1.415 . S
C1537 H1507 0.950 . S
C1537 C1532 1.363 . S
C1537 C1536 1.415 . S
H1538 C1535 0.999 . S
H1539 C1520 0.913 . S
H1540 C1558 0.951 . S
H1541 C1560 0.951 . S
H1542 C1562 0.950 . S
H1543 C1563 0.950 . S
H1544 C1565 0.950 . S
H1545 C1568 0.950 . S
H1546 C1569 0.950 . S
H1547 C1571 0.950 . S
H1548 C1572 0.950 . S
H1549 C1573 0.951 . S
H1550 C1575 0.951 . S
H1551 C1577 0.950 . S
H1552 C1578 0.950 . S
H1553 C1580 0.950 . S
H1554 C1583 0.950 . S
H1555 C1584 0.950 . S
H1556 C1586 0.950 . S
H1557 C1587 0.950 . S
C1558 H1540 0.951 . S
C1558 C1559 1.366 . S
C1558 C1560 1.388 . S
C1559 C1558 1.366 . S
C1559 C1563 1.385 . S
C1560 H1541 0.951 . S
C1560 C1558 1.388 . S
C1560 C1561 1.366 . S
C1561 C1560 1.366 . S
C1561 C1562 1.414 . S
C1561 C1564 1.499 . S
C1562 H1542 0.950 . S
C1562 C1561 1.414 . S
C1562 C1563 1.374 . S
C1563 H1543 0.950 . S
C1563 C1559 1.385 . S
C1563 C1562 1.374 . S
C1564 C1561 1.499 . S
C1564 C1565 1.373 . S
C1564 C1566 1.389 . S
C1565 H1544 0.950 . S
C1565 C1564 1.373 . S
C1565 C1581 1.377 . S
C1566 C1564 1.389 . S
C1566 C1567 1.524 . S
C1566 C1580 1.377 . S
C1567 C1566 1.524 . S
C1567 C1568 1.397 . S
C1567 C1572 1.363 . S
C1568 H1545 0.950 . S
C1568 C1567 1.397 . S
C1568 C1569 1.334 . S
C1569 H1546 0.950 . S
C1569 C1568 1.334 . S
C1569 C1570 1.287 . S
C1570 C1569 1.287 . S
C1570 C1571 1.524 . S
C1570 H1589 0.913 . S
C1571 H1547 0.950 . S
C1571 C1570 1.524 . S
C1571 C1572 1.415 . S
C1572 H1548 0.950 . S
C1572 C1567 1.363 . S
C1572 C1571 1.415 . S
C1573 H1549 0.951 . S
C1573 C1574 1.366 . S
C1573 C1575 1.388 . S
C1574 C1573 1.366 . S
C1574 C1578 1.385 . S
C1575 H1550 0.951 . S
C1575 C1573 1.388 . S
C1575 C1576 1.366 . S
C1576 C1575 1.366 . S
C1576 C1577 1.414 . S
C1576 C1579 1.499 . S
C1577 H1551 0.950 . S
C1577 C1576 1.414 . S
C1577 C1578 1.374 . S
C1578 H1552 0.950 . S
C1578 C1574 1.385 . S
C1578 C1577 1.374 . S
C1579 C1576 1.499 . S
C1579 C1580 1.373 . S
C1579 C1581 1.389 . S
C1580 H1553 0.950 . S
C1580 C1566 1.377 . S
C1580 C1579 1.373 . S
C1581 C1565 1.377 . S
C1581 C1579 1.389 . S
C1581 C1582 1.524 . S
C1582 C1581 1.524 . S
C1582 C1583 1.397 . S
C1582 C1587 1.363 . S
C1583 H1554 0.950 . S
C1583 C1582 1.397 . S
C1583 C1584 1.334 . S
C1584 H1555 0.950 . S
C1584 C1583 1.334 . S
C1584 C1585 1.287 . S
C1585 C1584 1.287 . S
C1585 C1586 1.524 . S
C1585 H1588 0.999 . S
C1586 H1556 0.950 . S
C1586 C1585 1.524 . S
C1586 C1587 1.415 . S
C1587 H1557 0.950 . S
C1587 C1582 1.363 . S
C1587 C1586 1.415 . S
H1588 C1585 0.999 . S
H1589 C1570 0.913 . S
H1590 C1608 0.951 . S
H1591 C1610 0.951 . S
H1592 C1612 0.950 . S
H1593 C1613 0.950 . S
H1594 C1615 0.950 . S
H1595 C1618 0.950 . S
H1596 C1619 0.950 . S
H1597 C1621 0.950 . S
H1598 C1622 0.950 . S
H1599 C1623 0.951 . S
H1600 C1625 0.951 . S
H1601 C1627 0.950 . S
H1602 C1628 0.950 . S
H1603 C1630 0.950 . S
H1604 C1633 0.950 . S
H1605 C1634 0.950 . S
H1606 C1636 0.950 . S
H1607 C1637 0.950 . S
C1608 H1590 0.951 . S
C1608 C1609 1.366 . S
C1608 C1610 1.388 . S
C1609 C1608 1.366 . S
C1609 C1613 1.385 . S
C1610 H1591 0.951 . S
C1610 C1608 1.388 . S
C1610 C1611 1.366 . S
C1611 C1610 1.366 . S
C1611 C1612 1.414 . S
C1611 C1614 1.499 . S
C1612 H1592 0.950 . S
C1612 C1611 1.414 . S
C1612 C1613 1.374 . S
C1613 H1593 0.950 . S
C1613 C1609 1.385 . S
C1613 C1612 1.374 . S
C1614 C1611 1.499 . S
C1614 C1615 1.373 . S
C1614 C1616 1.389 . S
C1615 H1594 0.950 . S
C1615 C1614 1.373 . S
C1615 C1631 1.377 . S
C1616 C1614 1.389 . S
C1616 C1617 1.524 . S
C1616 C1630 1.377 . S
C1617 C1616 1.524 . S
C1617 C1618 1.397 . S
C1617 C1622 1.363 . S
C1618 H1595 0.950 . S
C1618 C1617 1.397 . S
C1618 C1619 1.334 . S
C1619 H1596 0.950 . S
C1619 C1618 1.334 . S
C1619 C1620 1.287 . S
C1620 C1619 1.287 . S
C1620 C1621 1.524 . S
C1620 H1639 0.913 . S
C1621 H1597 0.950 . S
C1621 C1620 1.524 . S
C1621 C1622 1.415 . S
C1622 H1598 0.950 . S
C1622 C1617 1.363 . S
C1622 C1621 1.415 . S
C1623 H1599 0.951 . S
C1623 C1624 1.366 . S
C1623 C1625 1.388 . S
C1624 C1623 1.366 . S
C1624 C1628 1.385 . S
C1625 H1600 0.951 . S
C1625 C1623 1.388 . S
C1625 C1626 1.366 . S
C1626 C1625 1.366 . S
C1626 C1627 1.414 . S
C1626 C1629 1.499 . S
C1627 H1601 0.950 . S
C1627 C1626 1.414 . S
C1627 C1628 1.374 . S
C1628 H1602 0.950 . S
C1628 C1624 1.385 . S
C1628 C1627 1.374 . S
C1629 C1626 1.499 . S
C1629 C1630 1.373 . S
C1629 C1631 1.389 . S
C1630 H1603 0.950 . S
C1630 C1616 1.377 . S
C1630 C1629 1.373 . S
C1631 C1615 1.377 . S
C1631 C1629 1.389 . S
C1631 C1632 1.524 . S
C1632 C1631 1.524 . S
C1632 C1633 1.397 . S
C1632 C1637 1.363 . S
C1633 H1604 0.950 . S
C1633 C1632 1.397 . S
C1633 C1634 1.334 . S
C1634 H1605 0.950 . S
C1634 C1633 1.334 . S
C1634 C1635 1.287 . S
C1635 C1634 1.287 . S
C1635 C1636 1.524 . S
C1635 H1638 0.999 . S
C1636 H1606 0.950 . S
C1636 C1635 1.524 . S
C1636 C1637 1.415 . S
C1637 H1607 0.950 . S
C1637 C1632 1.363 . S
C1637 C1636 1.415 . S
H1638 C1635 0.999 . S
H1639 C1620 0.913 . S
H1640 C1658 0.951 . S
H1641 C1660 0.951 . S
H1642 C1662 0.950 . S
H1643 C1663 0.950 . S
H1644 C1665 0.950 . S
H1645 C1668 0.950 . S
H1646 C1669 0.950 . S
H1647 C1671 0.950 . S
H1648 C1672 0.950 . S
H1649 C1673 0.951 . S
H1650 C1675 0.951 . S
H1651 C1677 0.950 . S
H1652 C1678 0.950 . S
H1653 C1680 0.950 . S
H1654 C1683 0.950 . S
H1655 C1684 0.950 . S
H1656 C1686 0.950 . S
H1657 C1687 0.950 . S
C1658 H1640 0.951 . S
C1658 C1659 1.366 . S
C1658 C1660 1.388 . S
C1659 C1658 1.366 . S
C1659 C1663 1.385 . S
C1660 H1641 0.951 . S
C1660 C1658 1.388 . S
C1660 C1661 1.366 . S
C1661 C1660 1.366 . S
C1661 C1662 1.414 . S
C1661 C1664 1.499 . S
C1662 H1642 0.950 . S
C1662 C1661 1.414 . S
C1662 C1663 1.374 . S
C1663 H1643 0.950 . S
C1663 C1659 1.385 . S
C1663 C1662 1.374 . S
C1664 C1661 1.499 . S
C1664 C1665 1.373 . S
C1664 C1666 1.389 . S
C1665 H1644 0.950 . S
C1665 C1664 1.373 . S
C1665 C1681 1.377 . S
C1666 C1664 1.389 . S
C1666 C1667 1.524 . S
C1666 C1680 1.377 . S
C1667 C1666 1.524 . S
C1667 C1668 1.397 . S
C1667 C1672 1.363 . S
C1668 H1645 0.950 . S
C1668 C1667 1.397 . S
C1668 C1669 1.334 . S
C1669 H1646 0.950 . S
C1669 C1668 1.334 . S
C1669 C1670 1.287 . S
C1670 C1669 1.287 . S
C1670 C1671 1.524 . S
C1670 H1689 0.913 . S
C1671 H1647 0.950 . S
C1671 C1670 1.524 . S
C1671 C1672 1.415 . S
C1672 H1648 0.950 . S
C1672 C1667 1.363 . S
C1672 C1671 1.415 . S
C1673 H1649 0.951 . S
C1673 C1674 1.366 . S
C1673 C1675 1.388 . S
C1674 C1673 1.366 . S
C1674 C1678 1.385 . S
C1675 H1650 0.951 . S
C1675 C1673 1.388 . S
C1675 C1676 1.366 . S
C1676 C1675 1.366 . S
C1676 C1677 1.414 . S
C1676 C1679 1.499 . S
C1677 H1651 0.950 . S
C1677 C1676 1.414 . S
C1677 C1678 1.374 . S
C1678 H1652 0.950 . S
C1678 C1674 1.385 . S
C1678 C1677 1.374 . S
C1679 C1676 1.499 . S
C1679 C1680 1.373 . S
C1679 C1681 1.389 . S
C1680 H1653 0.950 . S
C1680 C1666 1.377 . S
C1680 C1679 1.373 . S
C1681 C1665 1.377 . S
C1681 C1679 1.389 . S
C1681 C1682 1.524 . S
C1682 C1681 1.524 . S
C1682 C1683 1.397 . S
C1682 C1687 1.363 . S
C1683 H1654 0.950 . S
C1683 C1682 1.397 . S
C1683 C1684 1.334 . S
C1684 H1655 0.950 . S
C1684 C1683 1.334 . S
C1684 C1685 1.287 . S
C1685 C1684 1.287 . S
C1685 C1686 1.524 . S
C1685 H1688 0.999 . S
C1686 H1656 0.950 . S
C1686 C1685 1.524 . S
C1686 C1687 1.415 . S
C1687 H1657 0.950 . S
C1687 C1682 1.363 . S
C1687 C1686 1.415 . S
H1688 C1685 0.999 . S
H1689 C1670 0.913 . S
H1690 C1708 0.951 . S
H1691 C1710 0.951 . S
H1692 C1712 0.950 . S
H1693 C1713 0.950 . S
H1694 C1715 0.950 . S
H1695 C1718 0.950 . S
H1696 C1719 0.950 . S
H1697 C1721 0.950 . S
H1698 C1722 0.950 . S
H1699 C1723 0.951 . S
H1700 C1725 0.951 . S
H1701 C1727 0.950 . S
H1702 C1728 0.950 . S
H1703 C1730 0.950 . S
H1704 C1733 0.950 . S
H1705 C1734 0.950 . S
H1706 C1736 0.950 . S
H1707 C1737 0.950 . S
C1708 H1690 0.951 . S
C1708 C1709 1.366 . S
C1708 C1710 1.388 . S
C1709 C1708 1.366 . S
C1709 C1713 1.385 . S
C1710 H1691 0.951 . S
C1710 C1708 1.388 . S
C1710 C1711 1.366 . S
C1711 C1710 1.366 . S
C1711 C1712 1.414 . S
C1711 C1714 1.499 . S
C1712 H1692 0.950 . S
C1712 C1711 1.414 . S
C1712 C1713 1.374 . S
C1713 H1693 0.950 . S
C1713 C1709 1.385 . S
C1713 C1712 1.374 . S
C1714 C1711 1.499 . S
C1714 C1715 1.373 . S
C1714 C1716 1.389 . S
C1715 H1694 0.950 . S
C1715 C1714 1.373 . S
C1715 C1731 1.377 . S
C1716 C1714 1.389 . S
C1716 C1717 1.524 . S
C1716 C1730 1.377 . S
C1717 C1716 1.524 . S
C1717 C1718 1.397 . S
C1717 C1722 1.363 . S
C1718 H1695 0.950 . S
C1718 C1717 1.397 . S
C1718 C1719 1.334 . S
C1719 H1696 0.950 . S
C1719 C1718 1.334 . S
C1719 C1720 1.287 . S
C1720 C1719 1.287 . S
C1720 C1721 1.524 . S
C1720 H1739 0.913 . S
C1721 H1697 0.950 . S
C1721 C1720 1.524 . S
C1721 C1722 1.415 . S
C1722 H1698 0.950 . S
C1722 C1717 1.363 . S
C1722 C1721 1.415 . S
C1723 H1699 0.951 . S
C1723 C1724 1.366 . S
C1723 C1725 1.388 . S
C1724 C1723 1.366 . S
C1724 C1728 1.385 . S
C1725 H1700 0.951 . S
C1725 C1723 1.388 . S
C1725 C1726 1.366 . S
C1726 C1725 1.366 . S
C1726 C1727 1.414 . S
C1726 C1729 1.499 . S
C1727 H1701 0.950 . S
C1727 C1726 1.414 . S
C1727 C1728 1.374 . S
C1728 H1702 0.950 . S
C1728 C1724 1.385 . S
C1728 C1727 1.374 . S
C1729 C1726 1.499 . S
C1729 C1730 1.373 . S
C1729 C1731 1.389 . S
C1730 H1703 0.950 . S
C1730 C1716 1.377 . S
C1730 C1729 1.373 . S
C1731 C1715 1.377 . S
C1731 C1729 1.389 . S
C1731 C1732 1.524 . S
C1732 C1731 1.524 . S
C1732 C1733 1.397 . S
C1732 C1737 1.363 . S
C1733 H1704 0.950 . S
C1733 C1732 1.397 . S
C1733 C1734 1.334 . S
C1734 H1705 0.950 . S
C1734 C1733 1.334 . S
C1734 C1735 1.287 . S
C1735 C1734 1.287 . S
C1735 C1736 1.524 . S
C1735 H1738 0.999 . S
C1736 H1706 0.950 . S
C1736 C1735 1.524 . S
C1736 C1737 1.415 . S
C1737 H1707 0.950 . S
C1737 C1732 1.363 . S
C1737 C1736 1.415 . S
H1738 C1735 0.999 . S
H1739 C1720 0.913 . S
H1740 C1758 0.951 . S
H1741 C1760 0.951 . S
H1742 C1762 0.950 . S
H1743 C1763 0.950 . S
H1744 C1765 0.950 . S
H1745 C1768 0.950 . S
H1746 C1769 0.950 . S
H1747 C1771 0.950 . S
H1748 C1772 0.950 . S
H1749 C1773 0.951 . S
H1750 C1775 0.951 . S
H1751 C1777 0.950 . S
H1752 C1778 0.950 . S
H1753 C1780 0.950 . S
H1754 C1783 0.950 . S
H1755 C1784 0.950 . S
H1756 C1786 0.950 1_556 S
H1757 C1787 0.950 . S
C1758 H1740 0.951 . S
C1758 C1759 1.366 . S
C1758 C1760 1.388 . S
C1759 C1758 1.366 . S
C1759 C1763 1.385 . S
C1760 H1741 0.951 . S
C1760 C1758 1.388 . S
C1760 C1761 1.366 . S
C1761 C1760 1.366 . S
C1761 C1762 1.414 . S
C1761 C1764 1.499 . S
C1762 H1742 0.950 . S
C1762 C1761 1.414 . S
C1762 C1763 1.374 . S
C1763 H1743 0.950 . S
C1763 C1759 1.385 . S
C1763 C1762 1.374 . S
C1764 C1761 1.499 . S
C1764 C1765 1.373 . S
C1764 C1766 1.389 . S
C1765 H1744 0.950 . S
C1765 C1764 1.373 . S
C1765 C1781 1.377 . S
C1766 C1764 1.389 . S
C1766 C1767 1.524 . S
C1766 C1780 1.377 . S
C1767 C1766 1.524 . S
C1767 C1768 1.397 . S
C1767 C1772 1.363 . S
C1768 H1745 0.950 . S
C1768 C1767 1.397 . S
C1768 C1769 1.334 . S
C1769 H1746 0.950 . S
C1769 C1768 1.334 . S
C1769 C1770 1.287 . S
C1770 C1769 1.287 . S
C1770 C1771 1.524 . S
C1770 H1789 0.913 . S
C1771 H1747 0.950 . S
C1771 C1770 1.524 . S
C1771 C1772 1.415 . S
C1772 H1748 0.950 . S
C1772 C1767 1.363 . S
C1772 C1771 1.415 . S
C1773 H1749 0.951 . S
C1773 C1774 1.366 . S
C1773 C1775 1.388 . S
C1774 C1773 1.366 . S
C1774 C1778 1.385 . S
C1775 H1750 0.951 . S
C1775 C1773 1.388 . S
C1775 C1776 1.366 . S
C1776 C1775 1.366 . S
C1776 C1777 1.414 . S
C1776 C1779 1.499 1_655 S
C1777 H1751 0.950 . S
C1777 C1776 1.414 . S
C1777 C1778 1.374 . S
C1778 H1752 0.950 . S
C1778 C1774 1.385 . S
C1778 C1777 1.374 . S
C1779 C1776 1.499 1_455 S
C1779 C1780 1.373 . S
C1779 C1781 1.389 . S
C1780 H1753 0.950 . S
C1780 C1766 1.377 . S
C1780 C1779 1.373 . S
C1781 C1765 1.377 . S
C1781 C1779 1.389 . S
C1781 C1782 1.524 . S
C1782 C1781 1.524 . S
C1782 C1783 1.397 . S
C1782 C1787 1.363 . S
C1783 H1754 0.950 . S
C1783 C1782 1.397 . S
C1783 C1784 1.334 . S
C1784 H1755 0.950 . S
C1784 C1783 1.334 . S
C1784 C1785 1.287 . S
C1785 C1784 1.287 . S
C1785 C1786 1.524 . S
C1785 H1788 0.999 . S
C1786 H1756 0.950 1_554 S
C1786 C1785 1.524 . S
C1786 C1787 1.415 . S
C1787 H1757 0.950 . S
C1787 C1782 1.363 . S
C1787 C1786 1.415 . S
H1788 C1785 0.999 . S
H1789 C1770 0.913 . S
H1790 C1808 0.951 . S
H1791 C1810 0.951 . S
H1792 C1812 0.950 . S
H1793 C1813 0.950 . S
H1794 C1815 0.950 . S
H1795 C1818 0.950 . S
H1796 C1819 0.950 . S
H1797 C1821 0.950 . S
H1798 C1822 0.950 . S
H1799 C1823 0.951 . S
H1800 C1825 0.951 . S
H1801 C1827 0.950 . S
H1802 C1828 0.950 . S
H1803 C1830 0.950 . S
H1804 C1833 0.950 . S
H1805 C1834 0.950 . S
H1806 C1836 0.950 . S
H1807 C1837 0.950 . S
C1808 H1790 0.951 . S
C1808 C1809 1.366 . S
C1808 C1810 1.388 . S
C1809 C1808 1.366 . S
C1809 C1813 1.385 . S
C1810 H1791 0.951 . S
C1810 C1808 1.388 . S
C1810 C1811 1.366 . S
C1811 C1810 1.366 . S
C1811 C1812 1.414 . S
C1811 C1814 1.499 . S
C1812 H1792 0.950 . S
C1812 C1811 1.414 . S
C1812 C1813 1.374 . S
C1813 H1793 0.950 . S
C1813 C1809 1.385 . S
C1813 C1812 1.374 . S
C1814 C1811 1.499 . S
C1814 C1815 1.373 . S
C1814 C1816 1.389 . S
C1815 H1794 0.950 . S
C1815 C1814 1.373 . S
C1815 C1831 1.377 . S
C1816 C1814 1.389 . S
C1816 C1817 1.524 . S
C1816 C1830 1.377 . S
C1817 C1816 1.524 . S
C1817 C1818 1.397 . S
C1817 C1822 1.363 . S
C1818 H1795 0.950 . S
C1818 C1817 1.397 . S
C1818 C1819 1.334 . S
C1819 H1796 0.950 . S
C1819 C1818 1.334 . S
C1819 C1820 1.287 . S
C1820 C1819 1.287 . S
C1820 C1821 1.524 . S
C1820 H1839 0.913 . S
C1821 H1797 0.950 . S
C1821 C1820 1.524 . S
C1821 C1822 1.415 . S
C1822 H1798 0.950 . S
C1822 C1817 1.363 . S
C1822 C1821 1.415 . S
C1823 H1799 0.951 . S
C1823 C1824 1.366 . S
C1823 C1825 1.388 . S
C1824 C1823 1.366 . S
C1824 C1828 1.385 . S
C1825 H1800 0.951 . S
C1825 C1823 1.388 . S
C1825 C1826 1.366 . S
C1826 C1825 1.366 . S
C1826 C1827 1.414 . S
C1826 C1829 1.499 . S
C1827 H1801 0.950 . S
C1827 C1826 1.414 . S
C1827 C1828 1.374 . S
C1828 H1802 0.950 . S
C1828 C1824 1.385 . S
C1828 C1827 1.374 . S
C1829 C1826 1.499 . S
C1829 C1830 1.373 . S
C1829 C1831 1.389 . S
C1830 H1803 0.950 . S
C1830 C1816 1.377 . S
C1830 C1829 1.373 . S
C1831 C1815 1.377 . S
C1831 C1829 1.389 . S
C1831 C1832 1.524 . S
C1832 C1831 1.524 . S
C1832 C1833 1.397 . S
C1832 C1837 1.363 . S
C1833 H1804 0.950 . S
C1833 C1832 1.397 . S
C1833 C1834 1.334 . S
C1834 H1805 0.950 . S
C1834 C1833 1.334 . S
C1834 C1835 1.287 . S
C1835 C1834 1.287 . S
C1835 C1836 1.524 . S
C1835 H1838 0.999 . S
C1836 H1806 0.950 . S
C1836 C1835 1.524 . S
C1836 C1837 1.415 . S
C1837 H1807 0.950 . S
C1837 C1832 1.363 . S
C1837 C1836 1.415 . S
H1838 C1835 0.999 . S
H1839 C1820 0.913 . S
H1840 C1858 0.951 . S
H1841 C1860 0.951 . S
H1842 C1862 0.950 . S
H1843 C1863 0.950 . S
H1844 C1865 0.950 . S
H1845 C1868 0.950 . S
H1846 C1869 0.950 . S
H1847 C1871 0.950 . S
H1848 C1872 0.950 . S
H1849 C1873 0.951 . S
H1850 C1875 0.951 . S
H1851 C1877 0.950 . S
H1852 C1878 0.950 . S
H1853 C1880 0.950 . S
H1854 C1883 0.950 . S
H1855 C1884 0.950 . S
H1856 C1886 0.950 . S
H1857 C1887 0.950 . S
C1858 H1840 0.951 . S
C1858 C1859 1.366 . S
C1858 C1860 1.388 . S
C1859 C1858 1.366 . S
C1859 C1863 1.385 . S
C1860 H1841 0.951 . S
C1860 C1858 1.388 . S
C1860 C1861 1.366 . S
C1861 C1860 1.366 . S
C1861 C1862 1.414 . S
C1861 C1864 1.499 . S
C1862 H1842 0.950 . S
C1862 C1861 1.414 . S
C1862 C1863 1.374 . S
C1863 H1843 0.950 . S
C1863 C1859 1.385 . S
C1863 C1862 1.374 . S
C1864 C1861 1.499 . S
C1864 C1865 1.373 . S
C1864 C1866 1.389 . S
C1865 H1844 0.950 . S
C1865 C1864 1.373 . S
C1865 C1881 1.377 . S
C1866 C1864 1.389 . S
C1866 C1867 1.524 . S
C1866 C1880 1.377 . S
C1867 C1866 1.524 . S
C1867 C1868 1.397 . S
C1867 C1872 1.363 . S
C1868 H1845 0.950 . S
C1868 C1867 1.397 . S
C1868 C1869 1.334 . S
C1869 H1846 0.950 . S
C1869 C1868 1.334 . S
C1869 C1870 1.287 . S
C1870 C1869 1.287 . S
C1870 C1871 1.524 . S
C1870 H1889 0.913 . S
C1871 H1847 0.950 . S
C1871 C1870 1.524 . S
C1871 C1872 1.415 . S
C1872 H1848 0.950 . S
C1872 C1867 1.363 . S
C1872 C1871 1.415 . S
C1873 H1849 0.951 . S
C1873 C1874 1.366 . S
C1873 C1875 1.388 . S
C1874 C1873 1.366 . S
C1874 C1878 1.385 . S
C1875 H1850 0.951 . S
C1875 C1873 1.388 . S
C1875 C1876 1.366 . S
C1876 C1875 1.366 . S
C1876 C1877 1.414 . S
C1876 C1879 1.499 . S
C1877 H1851 0.950 . S
C1877 C1876 1.414 . S
C1877 C1878 1.374 . S
C1878 H1852 0.950 . S
C1878 C1874 1.385 . S
C1878 C1877 1.374 . S
C1879 C1876 1.499 . S
C1879 C1880 1.373 . S
C1879 C1881 1.389 . S
C1880 H1853 0.950 . S
C1880 C1866 1.377 . S
C1880 C1879 1.373 . S
C1881 C1865 1.377 . S
C1881 C1879 1.389 . S
C1881 C1882 1.524 . S
C1882 C1881 1.524 . S
C1882 C1883 1.397 . S
C1882 C1887 1.363 . S
C1883 H1854 0.950 . S
C1883 C1882 1.397 . S
C1883 C1884 1.334 . S
C1884 H1855 0.950 . S
C1884 C1883 1.334 . S
C1884 C1885 1.287 . S
C1885 C1884 1.287 . S
C1885 C1886 1.524 . S
C1885 H1888 0.999 . S
C1886 H1856 0.950 . S
C1886 C1885 1.524 . S
C1886 C1887 1.415 . S
C1887 H1857 0.950 . S
C1887 C1882 1.363 . S
C1887 C1886 1.415 . S
H1888 C1885 0.999 . S
H1889 C1870 0.913 . S
H1890 C1908 0.951 . S
H1891 C1910 0.951 . S
H1892 C1912 0.950 . S
H1893 C1913 0.950 . S
H1894 C1915 0.950 . S
H1895 C1918 0.950 . S
H1896 C1919 0.950 . S
H1897 C1921 0.950 . S
H1898 C1922 0.950 . S
H1899 C1923 0.951 . S
H1900 C1925 0.951 . S
H1901 C1927 0.950 . S
H1902 C1928 0.950 . S
H1903 C1930 0.950 . S
H1904 C1933 0.950 . S
H1905 C1934 0.950 . S
H1906 C1936 0.950 . S
H1907 C1937 0.950 . S
C1908 H1890 0.951 . S
C1908 C1909 1.366 . S
C1908 C1910 1.388 . S
C1909 C1908 1.366 . S
C1909 C1913 1.385 . S
C1910 H1891 0.951 . S
C1910 C1908 1.388 . S
C1910 C1911 1.366 . S
C1911 C1910 1.366 . S
C1911 C1912 1.414 . S
C1911 C1914 1.499 . S
C1912 H1892 0.950 . S
C1912 C1911 1.414 . S
C1912 C1913 1.374 . S
C1913 H1893 0.950 . S
C1913 C1909 1.385 . S
C1913 C1912 1.374 . S
C1914 C1911 1.499 . S
C1914 C1915 1.373 . S
C1914 C1916 1.389 . S
C1915 H1894 0.950 . S
C1915 C1914 1.373 . S
C1915 C1931 1.377 . S
C1916 C1914 1.389 . S
C1916 C1917 1.524 . S
C1916 C1930 1.377 . S
C1917 C1916 1.524 . S
C1917 C1918 1.397 . S
C1917 C1922 1.363 . S
C1918 H1895 0.950 . S
C1918 C1917 1.397 . S
C1918 C1919 1.334 . S
C1919 H1896 0.950 . S
C1919 C1918 1.334 . S
C1919 C1920 1.287 . S
C1920 C1919 1.287 . S
C1920 C1921 1.524 . S
C1920 H1939 0.913 . S
C1921 H1897 0.950 . S
C1921 C1920 1.524 . S
C1921 C1922 1.415 . S
C1922 H1898 0.950 . S
C1922 C1917 1.363 . S
C1922 C1921 1.415 . S
C1923 H1899 0.951 . S
C1923 C1924 1.366 . S
C1923 C1925 1.388 . S
C1924 C1923 1.366 . S
C1924 C1928 1.385 . S
C1925 H1900 0.951 . S
C1925 C1923 1.388 . S
C1925 C1926 1.366 . S
C1926 C1925 1.366 . S
C1926 C1927 1.414 . S
C1926 C1929 1.499 . S
C1927 H1901 0.950 . S
C1927 C1926 1.414 . S
C1927 C1928 1.374 . S
C1928 H1902 0.950 . S
C1928 C1924 1.385 . S
C1928 C1927 1.374 . S
C1929 C1926 1.499 . S
C1929 C1930 1.373 . S
C1929 C1931 1.389 . S
C1930 H1903 0.950 . S
C1930 C1916 1.377 . S
C1930 C1929 1.373 . S
C1931 C1915 1.377 . S
C1931 C1929 1.389 . S
C1931 C1932 1.524 . S
C1932 C1931 1.524 . S
C1932 C1933 1.397 . S
C1932 C1937 1.363 . S
C1933 H1904 0.950 . S
C1933 C1932 1.397 . S
C1933 C1934 1.334 . S
C1934 H1905 0.950 . S
C1934 C1933 1.334 . S
C1934 C1935 1.287 . S
C1935 C1934 1.287 . S
C1935 C1936 1.524 . S
C1935 H1938 0.999 . S
C1936 H1906 0.950 . S
C1936 C1935 1.524 . S
C1936 C1937 1.415 . S
C1937 H1907 0.950 . S
C1937 C1932 1.363 . S
C1937 C1936 1.415 . S
H1938 C1935 0.999 . S
H1939 C1920 0.913 . S
H1940 C1958 0.951 . S
H1941 C1960 0.951 . S
H1942 C1962 0.950 . S
H1943 C1963 0.950 . S
H1944 C1965 0.950 . S
H1945 C1968 0.950 . S
H1946 C1969 0.950 . S
H1947 C1971 0.950 . S
H1948 C1972 0.950 . S
H1949 C1973 0.951 . S
H1950 C1975 0.951 . S
H1951 C1977 0.950 . S
H1952 C1978 0.950 . S
H1953 C1980 0.950 . S
H1954 C1983 0.950 . S
H1955 C1984 0.950 . S
H1956 C1986 0.950 . S
H1957 C1987 0.950 . S
C1958 H1940 0.951 . S
C1958 C1959 1.366 . S
C1958 C1960 1.388 . S
C1959 C1958 1.366 . S
C1959 C1963 1.385 . S
C1960 H1941 0.951 . S
C1960 C1958 1.388 . S
C1960 C1961 1.366 . S
C1961 C1960 1.366 . S
C1961 C1962 1.414 . S
C1961 C1964 1.499 . S
C1962 H1942 0.950 . S
C1962 C1961 1.414 . S
C1962 C1963 1.374 . S
C1963 H1943 0.950 . S
C1963 C1959 1.385 . S
C1963 C1962 1.374 . S
C1964 C1961 1.499 . S
C1964 C1965 1.373 . S
C1964 C1966 1.389 . S
C1965 H1944 0.950 . S
C1965 C1964 1.373 . S
C1965 C1981 1.377 . S
C1966 C1964 1.389 . S
C1966 C1967 1.524 . S
C1966 C1980 1.377 . S
C1967 C1966 1.524 . S
C1967 C1968 1.397 . S
C1967 C1972 1.363 . S
C1968 H1945 0.950 . S
C1968 C1967 1.397 . S
C1968 C1969 1.334 . S
C1969 H1946 0.950 . S
C1969 C1968 1.334 . S
C1969 C1970 1.287 . S
C1970 C1969 1.287 . S
C1970 C1971 1.524 . S
C1970 H1989 0.913 . S
C1971 H1947 0.950 . S
C1971 C1970 1.524 . S
C1971 C1972 1.415 . S
C1972 H1948 0.950 . S
C1972 C1967 1.363 . S
C1972 C1971 1.415 . S
C1973 H1949 0.951 . S
C1973 C1974 1.366 . S
C1973 C1975 1.388 . S
C1974 C1973 1.366 . S
C1974 C1978 1.385 . S
C1975 H1950 0.951 . S
C1975 C1973 1.388 . S
C1975 C1976 1.366 . S
C1976 C1975 1.366 . S
C1976 C1977 1.414 . S
C1976 C1979 1.499 . S
C1977 H1951 0.950 . S
C1977 C1976 1.414 . S
C1977 C1978 1.374 . S
C1978 H1952 0.950 . S
C1978 C1974 1.385 . S
C1978 C1977 1.374 . S
C1979 C1976 1.499 . S
C1979 C1980 1.373 . S
C1979 C1981 1.389 . S
C1980 H1953 0.950 . S
C1980 C1966 1.377 . S
C1980 C1979 1.373 . S
C1981 C1965 1.377 . S
C1981 C1979 1.389 . S
C1981 C1982 1.524 . S
C1982 C1981 1.524 . S
C1982 C1983 1.397 . S
C1982 C1987 1.363 . S
C1983 H1954 0.950 . S
C1983 C1982 1.397 . S
C1983 C1984 1.334 1_565 S
C1984 H1955 0.950 . S
C1984 C1983 1.334 1_545 S
C1984 C1985 1.287 . S
C1985 C1984 1.287 . S
C1985 C1986 1.524 . S
C1985 H1988 0.999 . S
C1986 H1956 0.950 . S
C1986 C1985 1.524 . S
C1986 C1987 1.415 1_545 S
C1987 H1957 0.950 . S
C1987 C1982 1.363 . S
C1987 C1986 1.415 1_565 S
H1988 C1985 0.999 . S
H1989 C1970 0.913 . S
H1990 C2008 0.951 . S
H1991 C2010 0.951 . S
H1992 C2012 0.950 . S
H1993 C2013 0.950 . S
H1994 C2015 0.950 . S
H1995 C2018 0.950 . S
H1996 C2019 0.950 . S
H1997 C2021 0.950 . S
H1998 C2022 0.950 . S
H1999 C2023 0.951 . S
H2000 C2025 0.951 . S
H2001 C2027 0.950 . S
H2002 C2028 0.950 . S
H2003 C2030 0.950 . S
H2004 C2033 0.950 . S
H2005 C2034 0.950 . S
H2006 C2036 0.950 . S
H2007 C2037 0.950 . S
C2008 H1990 0.951 . S
C2008 C2009 1.366 . S
C2008 C2010 1.388 . S
C2009 C2008 1.366 . S
C2009 C2013 1.385 . S
C2010 H1991 0.951 . S
C2010 C2008 1.388 . S
C2010 C2011 1.366 . S
C2011 C2010 1.366 . S
C2011 C2012 1.414 . S
C2011 C2014 1.499 . S
C2012 H1992 0.950 . S
C2012 C2011 1.414 . S
C2012 C2013 1.374 . S
C2013 H1993 0.950 . S
C2013 C2009 1.385 . S
C2013 C2012 1.374 . S
C2014 C2011 1.499 . S
C2014 C2015 1.373 . S
C2014 C2016 1.389 . S
C2015 H1994 0.950 . S
C2015 C2014 1.373 . S
C2015 C2031 1.377 . S
C2016 C2014 1.389 . S
C2016 C2017 1.524 . S
C2016 C2030 1.377 . S
C2017 C2016 1.524 . S
C2017 C2018 1.397 . S
C2017 C2022 1.363 . S
C2018 H1995 0.950 . S
C2018 C2017 1.397 . S
C2018 C2019 1.334 . S
C2019 H1996 0.950 . S
C2019 C2018 1.334 . S
C2019 C2020 1.287 . S
C2020 C2019 1.287 . S
C2020 C2021 1.524 . S
C2020 H2039 0.913 . S
C2021 H1997 0.950 . S
C2021 C2020 1.524 . S
C2021 C2022 1.415 . S
C2022 H1998 0.950 . S
C2022 C2017 1.363 . S
C2022 C2021 1.415 . S
C2023 H1999 0.951 . S
C2023 C2024 1.366 . S
C2023 C2025 1.388 . S
C2024 C2023 1.366 . S
C2024 C2028 1.385 . S
C2025 H2000 0.951 . S
C2025 C2023 1.388 . S
C2025 C2026 1.366 . S
C2026 C2025 1.366 . S
C2026 C2027 1.414 . S
C2026 C2029 1.499 1_455 S
C2027 H2001 0.950 . S
C2027 C2026 1.414 . S
C2027 C2028 1.374 . S
C2028 H2002 0.950 . S
C2028 C2024 1.385 . S
C2028 C2027 1.374 . S
C2029 C2026 1.499 1_655 S
C2029 C2030 1.373 . S
C2029 C2031 1.389 . S
C2030 H2003 0.950 . S
C2030 C2016 1.377 . S
C2030 C2029 1.373 . S
C2031 C2015 1.377 . S
C2031 C2029 1.389 . S
C2031 C2032 1.524 . S
C2032 C2031 1.524 . S
C2032 C2033 1.397 1_655 S
C2032 C2037 1.363 . S
C2033 H2004 0.950 . S
C2033 C2032 1.397 1_455 S
C2033 C2034 1.334 . S
C2034 H2005 0.950 . S
C2034 C2033 1.334 . S
C2034 C2035 1.287 . S
C2035 C2034 1.287 . S
C2035 C2036 1.524 1_455 S
C2035 H2038 0.999 . S
C2036 H2006 0.950 . S
C2036 C2035 1.524 1_655 S
C2036 C2037 1.415 . S
C2037 H2007 0.950 . S
C2037 C2032 1.363 . S
C2037 C2036 1.415 . S
H2038 C2035 0.999 . S
H2039 C2020 0.913 . S
C259 C9 1.076 . S
C274 C229 1.075 . S
C309 C199 1.354 . S
C324 C29 1.408 . S
C359 C59 1.181 . S
C374 C179 1.181 . S
C409 C69 1.668 . S
C424 C209 1.668 . S
C459 C89 1.489 . S
C474 C219 1.445 . S
C509 C119 1.162 . S
C524 C239 1.164 . S
C559 C189 1.527 1_565 S
C574 C129 1.534 . S
C609 C159 1.359 . S
C624 C169 1.432 . S
C659 C79 1.624 . S
C674 C99 1.633 . S
C709 C19 1.321 . S
C724 C109 1.376 . S
C759 C39 1.239 . S
C774 C139 1.233 . S
C809 C149 1.597 . S
C824 C49 1.598 1_554 S
C859 C2 1.597 . S
C874 C178 1.581 . S
C909 C22 1.493 . S
C924 C208 1.436 . S
C959 C228 1.472 . S
C974 C41 1.463 . S
C1009 C62 1.326 . S
C1024 C198 1.322 . S
C1059 C82 1.253 . S
C1074 C188 1.230 . S
C1109 C168 1.125 . S
C1124 C101 1.129 . S
C1159 C218 1.142 . S
C1174 C122 1.143 . S
C1209 C238 2.186 . S
C1224 C141 2.102 . S
C1259 C18 1.635 . S
C1274 C61 1.575 . S
C1309 C1 1.490 . S
C1324 C38 1.536 . S
C1359 C21 1.240 . S
C1374 C48 1.250 . S
C1409 C78 1.267 . S
C1424 C42 1.277 . S
C1459 C102 1.328 . S
C1474 C98 1.333 . S
C1509 C108 1.536 . S
C1524 C121 1.540 . S
C1559 C138 1.524 . S
C1574 C142 1.534 . S
C1609 C81 1.049 . S
C1624 C148 1.047 . S
C1659 C162 0.511 . S
C1674 C68 0.538 . S
C1709 C118 1.205 . S
C1724 C181 1.169 . S
C1759 C161 1.150 . S
C1774 C128 1.155 . S
C1809 C202 1.563 . S
C1824 C158 1.566 . S
C1859 C88 1.001 . S
C1874 C222 1.031 . S
C1909 C221 1.359 . S
C1924 C28 1.366 . S
C1959 C58 1.435 . S
C1974 C182 1.442 . S
C2009 C201 1.341 . S
C2024 C8 1.340 . S
