# Generated by pormake.
# Topology unn, (4)-cn, num edge types: 1
# Building blocks:
#     Node 0, Type 0, BuildingBlock: ICAMEG_clean_sbu_1, # of connection points: 4
#     Node 1, Type 0, BuildingBlock: ICAMEG_clean_sbu_1, # of connection points: 4
#     Node 2, Type 0, BuildingBlock: ICAMEG_clean_sbu_1, # of connection points: 4
#     Node 3, Type 0, BuildingBlock: ICAMEG_clean_sbu_1, # of connection points: 4
#     Node 4, Type 0, BuildingBlock: ICAMEG_clean_sbu_1, # of connection points: 4
#     Node 5, Type 0, BuildingBlock: ICAMEG_clean_sbu_1, # of connection points: 4
#     Node 6, Type 0, BuildingBlock: ICAMEG_clean_sbu_1, # of connection points: 4
#     Node 7, Type 0, BuildingBlock: ICAMEG_clean_sbu_1, # of connection points: 4
#     Node 8, Type 0, BuildingBlock: ICAMEG_clean_sbu_1, # of connection points: 4
#     Node 9, Type 0, BuildingBlock: ICAMEG_clean_sbu_1, # of connection points: 4
#     Node 10, Type 0, BuildingBlock: ICAMEG_clean_sbu_1, # of connection points: 4
#     Node 11, Type 0, BuildingBlock: ICAMEG_clean_sbu_1, # of connection points: 4
#     Node 12, Type 0, BuildingBlock: ICAMEG_clean_sbu_1, # of connection points: 4
#     Node 13, Type 0, BuildingBlock: ICAMEG_clean_sbu_1, # of connection points: 4
#     Node 14, Type 0, BuildingBlock: ICAMEG_clean_sbu_1, # of connection points: 4
#     Node 15, Type 0, BuildingBlock: ICAMEG_clean_sbu_1, # of connection points: 4
#     Node 16, Type 0, BuildingBlock: ICAMEG_clean_sbu_1, # of connection points: 4
#     Node 17, Type 0, BuildingBlock: ICAMEG_clean_sbu_1, # of connection points: 4
#     Edge 18, Type (0, 0), BuildingBlock: TEMPAE_clean_linker_10, # of connection points: 2
#     Edge 19, Type (0, 0), BuildingBlock: TEMPAE_clean_linker_10, # of connection points: 2
#     Edge 20, Type (0, 0), BuildingBlock: TEMPAE_clean_linker_10, # of connection points: 2
#     Edge 21, Type (0, 0), BuildingBlock: TEMPAE_clean_linker_10, # of connection points: 2
#     Edge 22, Type (0, 0), BuildingBlock: TEMPAE_clean_linker_10, # of connection points: 2
#     Edge 23, Type (0, 0), BuildingBlock: TEMPAE_clean_linker_10, # of connection points: 2
#     Edge 24, Type (0, 0), BuildingBlock: TEMPAE_clean_linker_10, # of connection points: 2
#     Edge 25, Type (0, 0), BuildingBlock: TEMPAE_clean_linker_10, # of connection points: 2
#     Edge 26, Type (0, 0), BuildingBlock: TEMPAE_clean_linker_10, # of connection points: 2
#     Edge 27, Type (0, 0), BuildingBlock: TEMPAE_clean_linker_10, # of connection points: 2
#     Edge 28, Type (0, 0), BuildingBlock: TEMPAE_clean_linker_10, # of connection points: 2
#     Edge 29, Type (0, 0), BuildingBlock: TEMPAE_clean_linker_10, # of connection points: 2
#     Edge 30, Type (0, 0), BuildingBlock: TEMPAE_clean_linker_10, # of connection points: 2
#     Edge 31, Type (0, 0), BuildingBlock: TEMPAE_clean_linker_10, # of connection points: 2
#     Edge 32, Type (0, 0), BuildingBlock: TEMPAE_clean_linker_10, # of connection points: 2
#     Edge 33, Type (0, 0), BuildingBlock: TEMPAE_clean_linker_10, # of connection points: 2
#     Edge 34, Type (0, 0), BuildingBlock: TEMPAE_clean_linker_10, # of connection points: 2
#     Edge 35, Type (0, 0), BuildingBlock: TEMPAE_clean_linker_10, # of connection points: 2
#     Edge 36, Type (0, 0), BuildingBlock: TEMPAE_clean_linker_10, # of connection points: 2
#     Edge 37, Type (0, 0), BuildingBlock: TEMPAE_clean_linker_10, # of connection points: 2
#     Edge 38, Type (0, 0), BuildingBlock: TEMPAE_clean_linker_10, # of connection points: 2
#     Edge 39, Type (0, 0), BuildingBlock: TEMPAE_clean_linker_10, # of connection points: 2
#     Edge 40, Type (0, 0), BuildingBlock: TEMPAE_clean_linker_10, # of connection points: 2
#     Edge 41, Type (0, 0), BuildingBlock: TEMPAE_clean_linker_10, # of connection points: 2
#     Edge 42, Type (0, 0), BuildingBlock: TEMPAE_clean_linker_10, # of connection points: 2
#     Edge 43, Type (0, 0), BuildingBlock: TEMPAE_clean_linker_10, # of connection points: 2
#     Edge 44, Type (0, 0), BuildingBlock: TEMPAE_clean_linker_10, # of connection points: 2
#     Edge 45, Type (0, 0), BuildingBlock: TEMPAE_clean_linker_10, # of connection points: 2
#     Edge 46, Type (0, 0), BuildingBlock: TEMPAE_clean_linker_10, # of connection points: 2
#     Edge 47, Type (0, 0), BuildingBlock: TEMPAE_clean_linker_10, # of connection points: 2
#     Edge 48, Type (0, 0), BuildingBlock: TEMPAE_clean_linker_10, # of connection points: 2
#     Edge 49, Type (0, 0), BuildingBlock: TEMPAE_clean_linker_10, # of connection points: 2
#     Edge 50, Type (0, 0), BuildingBlock: TEMPAE_clean_linker_10, # of connection points: 2
#     Edge 51, Type (0, 0), BuildingBlock: TEMPAE_clean_linker_10, # of connection points: 2
#     Edge 52, Type (0, 0), BuildingBlock: TEMPAE_clean_linker_10, # of connection points: 2
#     Edge 53, Type (0, 0), BuildingBlock: TEMPAE_clean_linker_10, # of connection points: 2
# Relax obj value: 0.108
# Max RMSD: 0.208
# Mean RMSD: 0.165
data_MOF--net-unn--node1-ICAMEG_clean_sbu_1--edge1-TEMPAE_clean_linker_10
_symmetry_space_group_name_H-M    P1
_symmetry_Int_Tables_number       1
_symmetry_cell_setting            triclinic
loop_
_symmetry_equiv_pos_as_xyz
'x, y, z'
_cell_length_a     49.004591
_cell_length_b     49.014242
_cell_length_c     41.604075
_cell_angle_alpha  90.338446
_cell_angle_beta   90.461614
_cell_angle_gamma 120.156
loop_
_atom_site_label
_atom_site_type_symbol
_atom_site_fract_x
_atom_site_fract_y
_atom_site_fract_z
_atom_type_partial_charge
Co0 Co 0.01344 0.70985 0.25201 0.0
Co1 Co 0.03845 0.7889 0.24266 0.0
O2 O 0.03191 0.75293 0.2679 0.0
C3 C 0.9721 0.70848 0.30279 0.0
O4 O 0.97188 0.73155 0.28723 0.0
C5 C 0.10116 0.80291 0.26562 0.0
O6 O 0.09217 0.77388 0.25665 0.0
O7 O 0.05526 0.77584 0.20636 0.0
O8 O 0.03927 0.72434 0.21228 0.0
H9 H 0.0333 0.84433 0.1436 0.0
H10 H 0.04131 0.72603 0.31782 0.0
O11 O 0.98714 0.6956 0.2916 0.0
H12 H 0.10188 0.68601 0.26019 0.0
H13 H 0.97175 0.59355 0.2649 0.0
H14 H 0.99004 0.67769 0.18879 0.0
H15 H 0.05802 0.68812 0.2331 0.0
H16 H 0.99591 0.64892 0.28345 0.0
O17 O 0.08262 0.81391 0.26151 0.0
H18 H 0.02405 0.79832 0.17565 0.0
H19 H 0.06896 0.85771 0.25676 0.0
H20 H 0.9661 0.62272 0.16914 0.0
H21 H 0.08476 0.72402 0.34591 0.0
H22 H 0.95681 0.58021 0.20734 0.0
H23 H 0.1155 0.70406 0.317 0.0
O24 O 0.97915 0.71247 0.22938 0.0
H25 H 0.02665 0.80801 0.35915 0.0
H26 H 0.99025 0.80869 0.24843 0.0
H27 H 0.96625 0.82141 0.29378 0.0
H28 H 0.98433 0.82093 0.34962 0.0
H29 H 0.05001 0.79547 0.31311 0.0
H30 H 0.07891 0.90444 0.22554 0.0
H31 H 0.06092 0.89786 0.16856 0.0
O32 O 0.99465 0.76389 0.2231 0.0
C33 C 0.05374 0.75029 0.19705 0.0
C34 C 0.04113 0.84749 0.16844 0.0
C35 C 0.06677 0.88123 0.21442 0.0
N36 N 0.04566 0.82534 0.2181 0.0
C37 C 0.03585 0.82152 0.18673 0.0
C38 C 0.06111 0.85472 0.23196 0.0
C39 C 0.05666 0.87752 0.18245 0.0
C40 C 0.05431 0.71693 0.3052 0.0
N41 N 0.04701 0.70702 0.27392 0.0
C42 C 0.07898 0.71598 0.32119 0.0
C43 C 0.09625 0.70482 0.30494 0.0
C44 C 0.08864 0.69473 0.27305 0.0
C45 C 0.06382 0.69602 0.25782 0.0
C46 C 0.97575 0.61188 0.24802 0.0
C47 C 0.98628 0.65934 0.2055 0.0
C48 C 0.98936 0.64323 0.25839 0.0
N49 N 0.99464 0.6665 0.23715 0.0
C50 C 0.97261 0.62825 0.19426 0.0
C51 C 0.96738 0.60441 0.21571 0.0
C52 C 0.9746 0.73444 0.21942 0.0
C53 C 0.01867 0.80844 0.33492 0.0
C54 C 0.99841 0.8087 0.27265 0.0
C55 C 0.98472 0.81588 0.29823 0.0
C56 C 0.99488 0.81563 0.32956 0.0
N57 N 0.02166 0.80158 0.27812 0.0
C58 C 0.03191 0.8015 0.30874 0.0
Co59 Co 0.3197 0.33695 0.24802 0.0
Co60 Co 0.26184 0.25881 0.2391 0.0
O61 O 0.29536 0.29844 0.22292 0.0
C62 C 0.28674 0.35149 0.19822 0.0
O63 O 0.26089 0.32786 0.20971 0.0
C64 C 0.31068 0.24445 0.21653 0.0
O65 O 0.3307 0.26977 0.23285 0.0
O66 O 0.28691 0.26238 0.27834 0.0
O67 O 0.32556 0.31315 0.28336 0.0
H68 H 0.18783 0.18586 0.32227 0.0
H69 H 0.33692 0.33339 0.1804 0.0
O70 O 0.31319 0.36039 0.21227 0.0
H71 H 0.43061 0.35606 0.24564 0.0
H72 H 0.39953 0.45241 0.26097 0.0
H73 H 0.32392 0.35533 0.31679 0.0
H74 H 0.3831 0.35097 0.27136 0.0
H75 H 0.36814 0.40244 0.23076 0.0
O76 O 0.28133 0.23606 0.21592 0.0
H77 H 0.22982 0.23674 0.3016 0.0
H78 H 0.2228 0.19479 0.21005 0.0
H79 H 0.35496 0.40468 0.34797 0.0
H80 H 0.384 0.33858 0.15371 0.0
H81 H 0.3931 0.45369 0.32003 0.0
H82 H 0.43125 0.34988 0.1864 0.0
O83 O 0.28149 0.33175 0.26996 0.0
H84 H 0.24491 0.26409 0.12056 0.0
H85 H 0.19598 0.24489 0.2273 0.0
H86 H 0.16528 0.24326 0.17929 0.0
H87 H 0.18982 0.25301 0.12544 0.0
H88 H 0.27496 0.26609 0.16923 0.0
H89 H 0.18084 0.14339 0.22974 0.0
H90 H 0.16305 0.13874 0.28621 0.0
O91 O 0.24253 0.28136 0.26265 0.0
C92 C 0.31088 0.28462 0.2929 0.0
C93 C 0.19529 0.18762 0.29758 0.0
C94 C 0.19139 0.16377 0.24566 0.0
N95 N 0.22848 0.21874 0.25459 0.0
C96 C 0.21896 0.21638 0.28572 0.0
C97 C 0.21517 0.1929 0.23465 0.0
C98 C 0.18142 0.16118 0.27735 0.0
C99 C 0.3575 0.33866 0.19478 0.0
N100 N 0.35735 0.34212 0.22739 0.0
C101 C 0.38404 0.34142 0.17953 0.0
C102 C 0.41053 0.34772 0.19789 0.0
C103 C 0.41018 0.35118 0.23114 0.0
C104 C 0.38321 0.34824 0.24557 0.0
C105 C 0.38301 0.43121 0.27342 0.0
C106 C 0.34057 0.37652 0.30449 0.0
C107 C 0.36513 0.40288 0.25643 0.0
N108 N 0.34437 0.376 0.27204 0.0
C109 C 0.35803 0.40441 0.32226 0.0
C110 C 0.3794 0.43191 0.30656 0.0
C111 C 0.25327 0.30936 0.27409 0.0
C112 C 0.234 0.25986 0.14388 0.0
C113 C 0.2068 0.24915 0.20394 0.0
C114 C 0.18929 0.24815 0.17684 0.0
C115 C 0.20307 0.25361 0.14664 0.0
N116 N 0.23717 0.25541 0.20104 0.0
C117 C 0.25082 0.26074 0.1715 0.0
Co118 Co 0.72757 0.02502 0.24685 0.0
Co119 Co 0.78287 1.0018 0.23958 0.0
O120 O 0.75134 1.00615 0.26315 0.0
C121 C 0.76028 0.06112 0.30452 0.0
O122 O 0.78608 0.06478 0.29123 0.0
C123 C 0.7359 0.9359 0.25822 0.0
O124 O 0.71484 0.93995 0.24264 0.0
O125 O 0.75429 0.98394 0.20142 0.0
O126 O 0.72165 1.00371 0.2044 0.0
H127 H 0.84875 0.0105 0.14408 0.0
H128 H 0.70957 0.98977 0.30809 0.0
O129 O 0.73399 0.04661 0.28934 0.0
H130 H 0.61604 0.93431 0.23699 0.0
H131 H 0.64872 0.0617 0.25634 0.0
H132 H 0.72491 0.05414 0.18547 0.0
H133 H 0.66399 0.9817 0.21837 0.0
H134 H 0.67921 0.03725 0.27549 0.0
O135 O 0.76489 0.95795 0.25876 0.0
H136 H 0.80929 0.01734 0.17398 0.0
H137 H 0.82307 0.97411 0.25585 0.0
H138 H 0.69472 0.07849 0.16523 0.0
H139 H 0.66206 0.9426 0.32775 0.0
H140 H 0.6563 0.08238 0.20078 0.0
H141 H 0.61487 0.91448 0.29207 0.0
O142 O 0.76635 0.06223 0.23079 0.0
H143 H 0.81064 0.01447 0.3574 0.0
H144 H 0.84999 0.05241 0.24853 0.0
H145 H 0.88533 0.07719 0.29544 0.0
H146 H 0.86566 0.05825 0.35035 0.0
H147 H 0.77607 0.99049 0.30988 0.0
H148 H 0.86257 0.9666 0.22678 0.0
H149 H 0.87571 0.98498 0.17052 0.0
O150 O 0.80086 0.04572 0.22059 0.0
C151 C 0.73255 0.98827 0.18986 0.0
C152 C 0.84332 1.0025 0.16862 0.0
C153 C 0.85104 0.97781 0.21503 0.0
N154 N 0.81412 0.99637 0.21669 0.0
C155 C 0.82107 1.0064 0.1857 0.0
C156 C 0.82862 0.98207 0.23134 0.0
C157 C 0.85841 0.98814 0.18346 0.0
C158 C 0.68904 0.97784 0.29251 0.0
N159 N 0.6895 0.98857 0.26217 0.0
C160 C 0.66225 0.95106 0.30374 0.0
C161 C 0.63579 0.93527 0.28369 0.0
C162 C 0.63644 0.94638 0.25278 0.0
C163 C 0.66367 0.97319 0.24235 0.0
C164 C 0.66535 0.06008 0.2406 0.0
C165 C 0.70808 0.05557 0.201 0.0
C166 C 0.68271 0.04634 0.25133 0.0
N167 N 0.7036 0.04406 0.23151 0.0
C168 C 0.69113 0.06947 0.18944 0.0
C169 C 0.6696 0.07167 0.20942 0.0
C170 C 0.79255 0.06675 0.21994 0.0
C171 C 0.81954 0.02281 0.33358 0.0
C172 C 0.84131 0.04397 0.27234 0.0
C173 C 0.86143 0.05808 0.29881 0.0
C174 C 0.85039 0.04742 0.32961 0.0
N175 N 0.81108 0.01986 0.27643 0.0
C176 C 0.80012 0.00922 0.30656 0.0
Co177 Co 0.01183 0.30117 0.7508 0.0
Co178 Co 0.03974 0.24951 0.74098 0.0
O179 O 0.03176 0.27807 0.76646 0.0
C180 C 0.9715 0.26086 0.80183 0.0
O181 O 0.97223 0.23783 0.78642 0.0
C182 C 0.10171 0.30005 0.76418 0.0
O183 O 0.09181 0.31925 0.75521 0.0
O184 O 0.05585 0.27945 0.70496 0.0
O185 O 0.0374 0.31296 0.71082 0.0
H186 H 0.03754 0.18992 0.6414 0.0
H187 H 0.04027 0.31467 0.81636 0.0
O188 O 0.98578 0.28873 0.79057 0.0
H189 H 0.09759 0.41514 0.75836 0.0
H190 H 0.96649 0.37259 0.76413 0.0
H191 H 0.9871 0.30786 0.6878 0.0
H192 H 0.05447 0.36785 0.7316 0.0
H193 H 0.99251 0.34336 0.78243 0.0
O194 O 0.08391 0.27027 0.76004 0.0
H195 H 0.02635 0.22544 0.67376 0.0
H196 H 0.07234 0.21342 0.7548 0.0
H197 H 0.96129 0.33691 0.6684 0.0
H198 H 0.08301 0.36143 0.84412 0.0
H199 H 0.95083 0.36957 0.7067 0.0
H200 H 0.11211 0.41208 0.81502 0.0
O201 O 0.97817 0.26318 0.72845 0.0
H202 H 0.02861 0.2187 0.85714 0.0
H203 H 0.99326 0.18081 0.74611 0.0
H204 H 0.97019 0.14374 0.79108 0.0
H205 H 0.98776 0.1627 0.84708 0.0
H206 H 0.05104 0.25493 0.81147 0.0
H207 H 0.08422 0.17788 0.72329 0.0
H208 H 0.06667 0.16586 0.66619 0.0
O209 O 0.99597 0.22917 0.72113 0.0
C210 C 0.05291 0.30256 0.69561 0.0
C211 C 0.04519 0.19486 0.6663 0.0
C212 C 0.07143 0.18814 0.71225 0.0
N213 N 0.04841 0.22119 0.71619 0.0
C214 C 0.03882 0.21486 0.68476 0.0
C215 C 0.06468 0.20829 0.72996 0.0
C216 C 0.06157 0.1814 0.68021 0.0
C217 C 0.05255 0.33672 0.80366 0.0
N218 N 0.04476 0.33858 0.77246 0.0
C219 C 0.07682 0.36309 0.81946 0.0
C220 C 0.09318 0.39149 0.80311 0.0
C221 C 0.08506 0.39321 0.7713 0.0
C222 C 0.06066 0.36635 0.75626 0.0
C223 C 0.97099 0.3585 0.7472 0.0
C224 C 0.98282 0.3222 0.70456 0.0
C225 C 0.98566 0.34187 0.75743 0.0
N226 N 0.99157 0.32419 0.73613 0.0
C227 C 0.96811 0.33851 0.69346 0.0
C228 C 0.96222 0.3568 0.71497 0.0
C229 C 0.97497 0.23726 0.71794 0.0
C230 C 0.02086 0.21013 0.83284 0.0
C231 C 1.00118 0.18916 0.7704 0.0
C232 C 0.98802 0.16808 0.79576 0.0
C233 C 0.9979 0.17872 0.82718 0.0
N234 N 0.02363 0.21993 0.77616 0.0
C235 C 0.03359 0.2305 0.80687 0.0
Co236 Co 0.73255 0.70663 0.74838 0.0
Co237 Co 0.78614 0.78485 0.73512 0.0
O238 O 0.75676 0.75049 0.76159 0.0
C239 C 0.77051 0.70951 0.80379 0.0
O240 O 0.79465 0.7301 0.78715 0.0
C241 C 0.739 0.80277 0.75499 0.0
O242 O 0.71768 0.7761 0.7416 0.0
O243 O 0.75515 0.77054 0.69893 0.0
O244 O 0.72281 0.71837 0.70574 0.0
H245 H 0.84496 0.83573 0.63427 0.0
H246 H 0.71878 0.72803 0.80996 0.0
O247 O 0.74293 0.69545 0.79112 0.0
H248 H 0.61999 0.68287 0.74627 0.0
H249 H 0.65688 0.59153 0.76763 0.0
H250 H 0.72567 0.67027 0.68861 0.0
H251 H 0.66682 0.68303 0.72472 0.0
H252 H 0.68774 0.64802 0.78251 0.0
O253 O 0.76827 0.81103 0.75378 0.0
H254 H 0.80833 0.79129 0.66802 0.0
H255 H 0.82573 0.85409 0.74638 0.0
H256 H 0.69502 0.6141 0.67261 0.0
H257 H 0.6725 0.72822 0.83248 0.0
H258 H 0.66032 0.5743 0.71228 0.0
H259 H 0.62267 0.70559 0.80052 0.0
O260 O 0.77027 0.70784 0.72972 0.0
H261 H 0.82151 0.8107 0.85061 0.0
H262 H 0.85412 0.80385 0.7404 0.0
H263 H 0.89276 0.81978 0.78507 0.0
H264 H 0.87652 0.82334 0.84063 0.0
H265 H 0.78357 0.79456 0.80534 0.0
H266 H 0.86243 0.8993 0.71343 0.0
H267 H 0.87231 0.89021 0.65698 0.0
O268 O 0.80388 0.75842 0.7167 0.0
C269 C 0.7326 0.74367 0.68965 0.0
C270 C 0.84095 0.83999 0.65887 0.0
C271 C 0.85071 0.87567 0.70329 0.0
N272 N 0.81519 0.82011 0.7092 0.0
C273 C 0.82033 0.81491 0.67812 0.0
C274 C 0.82989 0.85001 0.72181 0.0
C275 C 0.85626 0.87055 0.67162 0.0
C276 C 0.6971 0.71785 0.79603 0.0
N277 N 0.69544 0.70532 0.76615 0.0
C278 C 0.671 0.71815 0.80886 0.0
C279 C 0.64307 0.70549 0.7909 0.0
C280 C 0.64155 0.69275 0.76045 0.0
C281 C 0.66815 0.69293 0.74836 0.0
C282 C 0.67186 0.60866 0.75011 0.0
C283 C 0.71045 0.65311 0.70593 0.0
C284 C 0.68943 0.64064 0.75842 0.0
N285 N 0.70824 0.66239 0.73636 0.0
C286 C 0.69323 0.62133 0.69676 0.0
C287 C 0.67379 0.59901 0.71905 0.0
C288 C 0.79576 0.72908 0.71718 0.0
C289 C 0.82893 0.80947 0.82647 0.0
C290 C 0.8469 0.80536 0.76451 0.0
C291 C 0.86888 0.81444 0.7897 0.0
C292 C 0.85977 0.81648 0.82086 0.0
N293 N 0.81671 0.79859 0.77019 0.0
C294 C 0.80758 0.80046 0.8007 0.0
Co295 Co 0.31904 0.98201 0.74963 0.0
Co296 Co 0.26162 1.00292 0.74344 0.0
O297 O 0.2943 0.99622 0.72575 0.0
C298 C 0.28485 0.93479 0.69938 0.0
O299 O 0.25921 0.93211 0.71199 0.0
C300 C 0.31069 0.06485 0.71833 0.0
O301 O 0.33103 0.0583 0.73167 0.0
O302 O 0.28779 0.02443 0.78208 0.0
O303 O 0.32607 0.01191 0.78563 0.0
H304 H 0.19045 1.00276 0.82973 0.0
H305 H 0.33489 1.00249 0.68187 0.0
O306 O 0.31149 0.95195 0.71332 0.0
H307 H 0.43023 0.07369 0.74545 0.0
H308 H 0.39835 0.9458 0.75874 0.0
H309 H 0.32457 0.96783 0.81786 0.0
H310 H 0.38316 0.03142 0.77187 0.0
H311 H 0.36666 0.96458 0.73016 0.0
O312 O 0.28104 0.04538 0.72087 0.0
H313 H 0.2313 0.99321 0.80694 0.0
H314 H 0.22265 0.02864 0.71686 0.0
H315 H 0.35593 0.94932 0.84743 0.0
H316 H 0.38151 0.04417 0.65449 0.0
H317 H 0.39316 0.93818 0.81782 0.0
H318 H 0.42957 0.08027 0.68634 0.0
O319 O 0.28116 0.9491 0.77207 0.0
H320 H 0.24138 0.98075 0.62494 0.0
H321 H 0.19514 0.95145 0.73282 0.0
H322 H 0.16282 0.92284 0.68519 0.0
H323 H 0.18597 0.93749 0.63076 0.0
H324 H 0.27301 1.00844 0.67324 0.0
H325 H 0.18182 0.03875 0.73869 0.0
H326 H 0.16542 0.02569 0.79549 0.0
O327 O 0.24242 0.96089 0.76652 0.0
C328 C 0.31188 0.02604 0.79592 0.0
C329 C 0.19729 1.00842 0.80491 0.0
C330 C 0.19249 0.02867 0.75382 0.0
N331 N 0.22907 0.01008 0.76055 0.0
C332 C 0.22032 1.00297 0.79185 0.0
C333 C 0.21563 0.02293 0.74161 0.0
C334 C 0.18329 0.02133 0.78569 0.0
C335 C 0.35585 0.01779 0.69588 0.0
N336 N 0.35638 0.01434 0.72843 0.0
C337 C 0.38213 0.04147 0.68024 0.0
C338 C 0.40907 0.06174 0.69814 0.0
C339 C 0.40944 0.05808 0.73131 0.0
C340 C 0.38271 0.03413 0.74614 0.0
C341 C 0.38224 0.95061 0.77191 0.0
C342 C 0.34083 0.96318 0.80484 0.0
C343 C 0.36419 0.96117 0.75585 0.0
N344 N 0.34395 0.96746 0.77237 0.0
C345 C 0.35847 0.95263 0.8217 0.0
C346 C 0.37933 0.94635 0.80507 0.0
C347 C 0.25312 0.94342 0.77704 0.0
C348 C 0.23104 0.97422 0.64851 0.0
C349 C 0.20536 0.95794 0.70922 0.0
C350 C 0.18694 0.94169 0.68233 0.0
C351 C 0.19993 0.94993 0.6518 0.0
N352 N 0.23584 0.98174 0.70578 0.0
C353 C 0.24877 0.98992 0.67593 0.0
Co354 Co 0.67301 0.02616 0.58343 0.0
Co355 Co 0.7024 0.10658 0.58264 0.0
O356 O 0.69125 0.06737 0.60408 0.0
C357 C 0.62672 0.02233 0.62984 0.0
O358 O 0.62838 0.04653 0.61483 0.0
C359 C 0.76169 0.11439 0.60972 0.0
O360 O 0.75148 0.08551 0.59934 0.0
O361 O 0.7211 0.09571 0.54618 0.0
O362 O 0.70422 0.0437 0.54807 0.0
H363 H 0.71056 0.17448 0.48905 0.0
H364 H 0.69183 0.03391 0.65249 0.0
O365 O 0.64158 0.00909 0.61903 0.0
H366 H 0.75507 0.99434 0.59954 0.0
H367 H 0.62363 0.90802 0.58399 0.0
H368 H 0.65783 1.00172 0.51633 0.0
H369 H 0.71681 1.0025 0.56826 0.0
H370 H 0.64771 0.96122 0.60855 0.0
O371 O 0.74491 0.12734 0.60534 0.0
H372 H 0.69551 0.12438 0.51633 0.0
H373 H 0.7348 0.17372 0.60422 0.0
H374 H 0.63411 0.94906 0.49076 0.0
H375 H 0.72958 0.02583 0.68468 0.0
H376 H 0.61682 0.90173 0.52467 0.0
H377 H 0.76165 1.00607 0.65818 0.0
O378 O 0.64373 0.03391 0.5569 0.0
H379 H 0.68199 0.11517 0.69932 0.0
H380 H 0.65647 0.12934 0.58798 0.0
H381 H 0.6299 0.13909 0.63303 0.0
H382 H 0.64248 0.1318 0.68918 0.0
H383 H 0.70778 0.10542 0.65358 0.0
H384 H 0.75043 0.22441 0.57789 0.0
H385 H 0.73822 0.22496 0.51991 0.0
O386 O 0.66057 0.08602 0.55903 0.0
C387 C 0.72027 0.07087 0.53541 0.0
C388 C 0.71589 0.17454 0.51436 0.0
C389 C 0.73831 0.20257 0.56421 0.0
N390 N 0.714 0.14615 0.56188 0.0
C391 C 0.70733 0.14624 0.52995 0.0
C392 C 0.72944 0.17382 0.57898 0.0
C393 C 0.73144 0.20286 0.53168 0.0
C394 C 0.70538 0.0249 0.64083 0.0
N395 N 0.70193 0.01844 0.60856 0.0
C396 C 0.72685 0.02053 0.65917 0.0
C397 C 0.74486 0.00948 0.64427 0.0
C398 C 0.74119 1.00292 0.61137 0.0
C399 C 0.71952 1.0076 0.59378 0.0
C400 C 0.63112 0.92847 0.56896 0.0
C401 C 0.65053 0.98127 0.53124 0.0
C402 C 0.64469 0.95862 0.58273 0.0
N403 N 0.65436 0.98453 0.56387 0.0
C404 C 0.63704 0.95149 0.51662 0.0
C405 C 0.62731 0.92495 0.53567 0.0
C406 C 0.6414 0.05783 0.54929 0.0
C407 C 0.67634 0.11847 0.67498 0.0
C408 C 0.66222 0.12634 0.61236 0.0
C409 C 0.64709 0.13187 0.63776 0.0
C410 C 0.65417 0.12779 0.66926 0.0
N411 N 0.68382 0.11705 0.61817 0.0
C412 C 0.69102 0.11318 0.64899 0.0
Co413 Co 0.99244 0.67481 0.58245 0.0
Co414 Co 0.93642 0.59549 0.58201 0.0
O415 O 0.96654 0.63426 0.56107 0.0
C416 C 0.95257 0.68386 0.53621 0.0
O417 O 0.92868 0.65986 0.54998 0.0
C418 C 0.98383 0.58275 0.55211 0.0
O419 O 1.00494 0.61089 0.56272 0.0
O420 O 0.96633 0.60333 0.61824 0.0
O421 O 1.00393 0.65462 0.61713 0.0
H422 H 0.87456 0.52886 0.67502 0.0
H423 H 1.00188 0.6672 0.51323 0.0
O424 O 0.98043 0.69477 0.54756 0.0
H425 H 0.10371 0.69777 0.56643 0.0
H426 H 0.06962 0.7916 0.58436 0.0
H427 H 1.00383 0.69803 0.65001 0.0
H428 H 0.05899 0.69288 0.59781 0.0
H429 H 0.03651 0.73938 0.55868 0.0
O430 O 0.95457 0.57198 0.55796 0.0
H431 H 0.91222 0.57828 0.64819 0.0
H432 H 0.89661 0.52893 0.55954 0.0
H433 H 0.03675 0.7497 0.6767 0.0
H434 H 0.04604 0.67211 0.48093 0.0
H435 H 0.06996 0.79695 0.6438 0.0
H436 H 0.09736 0.68732 0.50755 0.0
O437 O 0.95648 0.66988 0.60862 0.0
H438 H 0.90626 0.59196 0.46573 0.0
H439 H 0.86859 0.57732 0.57734 0.0
H440 H 0.83224 0.57093 0.53275 0.0
H441 H 0.8511 0.57841 0.47648 0.0
H442 H 0.94178 0.59811 0.51102 0.0
H443 H 0.85889 0.47891 0.5854 0.0
H444 H 0.84761 0.47872 0.64354 0.0
O445 O 0.91828 0.61872 0.60635 0.0
C446 C 0.99158 0.62709 0.62911 0.0
C447 C 0.87918 0.52866 0.64964 0.0
C448 C 0.87043 0.50062 0.59936 0.0
N449 N 0.90634 0.55647 0.60232 0.0
C450 C 0.90039 0.55657 0.63432 0.0
C451 C 0.89182 0.52898 0.58486 0.0
C452 C 0.8641 0.50053 0.63197 0.0
C453 C 0.02424 0.67423 0.52496 0.0
N454 N 0.0279 0.67994 0.55736 0.0
C455 C 0.04913 0.67683 0.50655 0.0
C456 C 0.0779 0.68531 0.52151 0.0
C457 C 0.08147 0.69115 0.55455 0.0
C458 C 0.05605 0.6883 0.5722 0.0
C459 C 0.05529 0.77118 0.59895 0.0
C460 C 0.01835 0.71845 0.63555 0.0
C461 C 0.03645 0.74159 0.58454 0.0
N462 N 0.01845 0.71569 0.60286 0.0
C463 C 0.03687 0.74766 0.65079 0.0
C464 C 0.05548 0.77417 0.63231 0.0
C465 C 0.92914 0.64737 0.61579 0.0
C466 C 0.89772 0.58847 0.49013 0.0
C467 C 0.87688 0.58039 0.5529 0.0
C468 C 0.8562 0.57675 0.52775 0.0
C469 C 0.86679 0.58092 0.49619 0.0
N470 N 0.90719 0.58785 0.54676 0.0
C471 C 0.91768 0.5918 0.51587 0.0
Co472 Co 0.37025 0.31318 0.57823 0.0
Co473 Co 0.4496 0.33758 0.57863 0.0
O474 O 0.41131 0.33191 0.55828 0.0
C475 C 0.36106 0.27484 0.52076 0.0
O476 O 0.38456 0.27178 0.53168 0.0
C477 C 0.46565 0.40248 0.55975 0.0
O478 O 0.44049 0.39715 0.57573 0.0
O479 O 0.44217 0.35606 0.6179 0.0
O480 O 0.38958 0.33612 0.61926 0.0
H481 H 0.51596 0.3325 0.66849 0.0
H482 H 0.38111 0.34596 0.51586 0.0
O483 O 0.351 0.28995 0.53719 0.0
H484 H 0.34941 0.40334 0.59044 0.0
H485 H 0.2539 0.27523 0.57914 0.0
H486 H 0.34467 0.28615 0.64203 0.0
H487 H 0.35224 0.35702 0.60866 0.0
H488 H 0.30682 0.29931 0.55518 0.0
O489 O 0.47348 0.38117 0.5585 0.0
H490 H 0.46673 0.32397 0.64269 0.0
H491 H 0.51593 0.36569 0.55681 0.0
H492 H 0.29226 0.26219 0.66704 0.0
H493 H 0.37833 0.39197 0.49655 0.0
H494 H 0.24642 0.25661 0.63551 0.0
H495 H 0.3625 0.42108 0.53399 0.0
O496 O 0.37375 0.27685 0.5938 0.0
H497 H 0.45384 0.32238 0.45961 0.0
H498 H 0.46581 0.28735 0.56704 0.0
H499 H 0.47211 0.26167 0.51873 0.0
H500 H 0.46601 0.27912 0.46454 0.0
H501 H 0.4477 0.34736 0.50852 0.0
H502 H 0.56577 0.37484 0.58171 0.0
H503 H 0.56595 0.35811 0.63792 0.0
O504 O 0.42581 0.29422 0.59909 0.0
C505 C 0.41722 0.35204 0.63159 0.0
C506 C 0.51617 0.33979 0.64394 0.0
C507 C 0.54413 0.3636 0.59525 0.0
N508 N 0.48846 0.3441 0.59822 0.0
C509 C 0.48835 0.33494 0.62918 0.0
C510 C 0.51587 0.35841 0.5813 0.0
C511 C 0.54421 0.3542 0.62679 0.0
C512 C 0.37391 0.35831 0.53222 0.0
N513 N 0.36673 0.34874 0.56333 0.0
C514 C 0.3725 0.38443 0.52118 0.0
C515 C 0.36366 0.40078 0.54221 0.0
C516 C 0.35633 0.39085 0.57389 0.0
C517 C 0.35805 0.36465 0.5841 0.0
C518 C 0.2737 0.27758 0.59313 0.0
C519 C 0.32487 0.28396 0.62824 0.0
C520 C 0.30368 0.29112 0.57967 0.0
N521 N 0.32881 0.29433 0.59729 0.0
C522 C 0.29523 0.2703 0.64249 0.0
C523 C 0.26952 0.26715 0.62477 0.0
C524 C 0.39667 0.27314 0.60246 0.0
C525 C 0.45671 0.31468 0.48308 0.0
C526 C 0.46328 0.29516 0.54354 0.0
C527 C 0.46687 0.28054 0.51627 0.0
C528 C 0.46347 0.29036 0.48587 0.0
N529 N 0.45661 0.31897 0.5406 0.0
C530 C 0.45339 0.32883 0.51087 0.0
Co531 Co 0.71655 0.67652 0.09112 0.0
Co532 Co 0.70234 0.60048 0.08232 0.0
O533 O 0.70502 0.63864 0.06613 0.0
C534 C 0.7642 0.69423 0.04169 0.0
O535 O 0.76891 0.67244 0.05415 0.0
C536 C 0.63823 0.58112 0.05844 0.0
O537 O 0.64037 0.60438 0.07609 0.0
O538 O 0.67933 0.60158 0.12099 0.0
O539 O 0.68818 0.65117 0.12664 0.0
H540 H 0.70954 0.53078 0.16595 0.0
H541 H 0.69411 0.67071 0.02346 0.0
O542 O 0.74522 0.70133 0.05513 0.0
H543 H 0.61884 0.68576 0.08839 0.0
H544 H 0.74344 0.78953 0.10337 0.0
H545 H 0.73103 0.69581 0.15976 0.0
H546 H 0.66406 0.68521 0.11424 0.0
H547 H 0.72806 0.74013 0.07346 0.0
O548 O 0.66098 0.57542 0.05808 0.0
H549 H 0.71432 0.58004 0.14519 0.0
H550 H 0.68215 0.53748 0.05306 0.0
H551 H 0.74617 0.74459 0.19065 0.0
H552 H 0.64939 0.67133 -0.00335 0.0
H553 H 0.75247 0.7919 0.16241 0.0
H554 H 0.61131 0.6788 0.02918 0.0
O555 O 0.75173 0.67477 0.11323 0.0
H556 H 0.72615 0.60865 0.96434 0.0
H557 H 0.75747 0.59157 0.0719 0.0
H558 H 0.78807 0.5926 0.02465 0.0
H559 H 0.7724 0.60116 0.97038 0.0
H560 H 0.69656 0.60801 0.01227 0.0
H561 H 0.67684 0.48767 0.07284 0.0
H562 H 0.69068 0.48416 0.12965 0.0
O563 O 0.74356 0.62552 0.1066 0.0
C564 C 0.67595 0.62257 0.13578 0.0
C565 C 0.70356 0.53206 0.14112 0.0
C566 C 0.68516 0.50785 0.08887 0.0
N567 N 0.69882 0.56168 0.09789 0.0
C568 C 0.70632 0.55991 0.12921 0.0
C569 C 0.68817 0.53608 0.07782 0.0
C570 C 0.69294 0.5059 0.12074 0.0
C571 C 0.67785 0.67432 0.03777 0.0
N572 N 0.68184 0.67819 0.07036 0.0
C573 C 0.65248 0.6745 0.02245 0.0
C574 C 0.6311 0.67865 0.04073 0.0
C575 C 0.63531 0.68254 0.07396 0.0
C576 C 0.66093 0.68219 0.08846 0.0
C577 C 0.74071 0.76906 0.11595 0.0
C578 C 0.73353 0.71624 0.14735 0.0
C579 C 0.73208 0.74106 0.09914 0.0
N580 N 0.72841 0.71508 0.11492 0.0
C581 C 0.7422 0.74382 0.16495 0.0
C582 C 0.74576 0.77037 0.14908 0.0
C583 C 0.75942 0.65377 0.11776 0.0
C584 C 0.73317 0.60487 0.98784 0.0
C585 C 0.75058 0.5954 0.04837 0.0
C586 C 0.76795 0.59589 0.0217 0.0
C587 C 0.75913 0.60067 0.99126 0.0
N588 N 0.72517 0.59957 0.04483 0.0
C589 C 0.71641 0.60432 0.01506 0.0
Co590 Co 0.36874 0.04837 0.08089 0.0
Co591 Co 0.4467 0.10745 0.07778 0.0
O592 O 0.40859 0.07276 0.05915 0.0
C593 C 0.35634 0.07837 0.02673 0.0
O594 O 0.3795 0.10498 0.03833 0.0
C595 C 0.4643 0.05943 0.06002 0.0
O596 O 0.43907 0.03939 0.07572 0.0
O597 O 0.44144 0.08385 0.1183 0.0
O598 O 0.39071 0.04462 0.11937 0.0
H599 H 0.51349 0.18524 0.16403 0.0
H600 H 0.37742 0.02958 0.01542 0.0
O601 O 0.34707 0.0528 0.04207 0.0
H602 H 0.3527 0.93864 0.08426 0.0
H603 H 0.25341 0.96649 0.08508 0.0
H604 H 0.34597 0.04532 0.14744 0.0
H605 H 0.3547 0.98623 0.10695 0.0
H606 H 0.30493 0.99819 0.05898 0.0
O607 O 0.47155 0.08841 0.05835 0.0
H608 H 0.46444 0.14166 0.14037 0.0
H609 H 0.51207 0.14696 0.05378 0.0
H610 H 0.295 0.01401 0.17455 0.0
H611 H 0.3754 0.98238 0.99169 0.0
H612 H 0.24825 0.97425 0.14331 0.0
H613 H 0.36307 0.93651 0.02621 0.0
O614 O 0.37145 0.08678 0.10051 0.0
H615 H 0.44619 0.11993 0.95801 0.0
H616 H 0.45993 0.17243 0.06327 0.0
H617 H 0.46316 0.20117 0.01363 0.0
H618 H 0.45614 0.17482 0.96053 0.0
H619 H 0.44314 0.09208 0.00822 0.0
H620 H 0.56172 0.19051 0.07653 0.0
H621 H 0.56259 0.20997 0.13202 0.0
O622 O 0.42194 0.12633 0.09744 0.0
C623 C 0.41841 0.06015 0.13165 0.0
C624 C 0.51339 0.17705 0.13979 0.0
C625 C 0.54047 0.17997 0.09069 0.0
N626 N 0.48539 0.14199 0.09566 0.0
C627 C 0.48567 0.15245 0.12624 0.0
C628 C 0.51232 0.15529 0.07796 0.0
C629 C 0.54093 0.19088 0.12182 0.0
C630 C 0.37173 0.0096 0.03055 0.0
N631 N 0.36599 0.01058 0.06251 0.0
C632 C 0.37075 0.98299 0.017 0.0
C633 C 0.36387 0.95727 0.03639 0.0
C634 C 0.35806 0.95846 0.06896 0.0
C635 C 0.35927 0.98548 0.08169 0.0
C636 C 0.2736 0.98375 0.09895 0.0
C637 C 0.32577 0.02801 0.1337 0.0
C638 C 0.30279 1.00182 0.08428 0.0
N639 N 0.32842 0.02352 0.10169 0.0
C640 C 0.29695 0.01038 0.14917 0.0
C641 C 0.27073 0.98809 0.13163 0.0
C642 C 0.39314 0.11525 0.10582 0.0
C643 C 0.44947 0.13172 0.981 0.0
C644 C 0.45706 0.1609 0.04024 0.0
C645 C 0.4589 0.17728 0.01222 0.0
C646 C 0.45499 0.1625 0.98243 0.0
N647 N 0.4516 0.13071 0.03863 0.0
C648 C 0.44789 0.11611 0.00951 0.0
Co649 Co 0.98882 0.31506 0.08122 0.0
Co650 Co 0.93356 0.33911 0.08147 0.0
O651 O 0.9632 0.32991 0.06017 0.0
C652 C 0.94848 0.26587 0.0348 0.0
O653 O 0.92471 0.26628 0.04854 0.0
C654 C 0.98132 0.39909 0.05147 0.0
O655 O 1.00224 0.39186 0.06174 0.0
O656 O 0.96378 0.36135 0.11758 0.0
O657 O 1.00084 0.34712 0.116 0.0
H658 H 0.87274 0.34526 0.17509 0.0
H659 H 0.99805 0.33163 0.01204 0.0
O660 O 0.97635 0.28274 0.04624 0.0
H661 H 0.10044 0.40285 0.06481 0.0
H662 H 0.06495 0.27451 0.08223 0.0
H663 H 1.00034 0.30363 0.14861 0.0
H664 H 0.05566 0.36338 0.09632 0.0
H665 H 0.03221 0.29385 0.05694 0.0
O666 O 0.95204 0.38075 0.05751 0.0
H667 H 0.90982 0.33285 0.14784 0.0
H668 H 0.89428 0.36624 0.05955 0.0
H669 H 0.03289 0.28465 0.17491 0.0
H670 H 0.04226 0.37051 0.97961 0.0
H671 H 0.06551 0.26993 0.14164 0.0
H672 H 0.09387 0.4066 0.00603 0.0
O673 O 0.95281 0.28434 0.10748 0.0
H674 H 0.90251 0.31168 0.96529 0.0
H675 H 0.86551 0.28964 0.07713 0.0
H676 H 0.82872 0.25949 0.03268 0.0
H677 H 0.84724 0.27036 0.9763 0.0
H678 H 0.93847 0.34127 0.01045 0.0
H679 H 0.85715 0.37919 0.08585 0.0
H680 H 0.84612 0.3686 0.14401 0.0
O681 O 0.91509 0.29779 0.10576 0.0
C682 C 0.98892 0.36266 0.1282 0.0
C683 C 0.87725 0.34986 0.14971 0.0
C684 C 0.86854 0.36896 0.09962 0.0
N685 N 0.90394 0.34856 0.10212 0.0
C686 C 0.89813 0.34279 0.13414 0.0
C687 C 0.8896 0.36162 0.08488 0.0
C688 C 0.86236 0.363 0.13226 0.0
C689 C 0.02054 0.34695 0.02367 0.0
N690 N 0.02432 0.34509 0.05602 0.0
C691 C 0.04545 0.36904 0.00519 0.0
C692 C 0.07438 0.38931 0.02004 0.0
C693 C 0.07808 0.38723 0.05303 0.0
C694 C 0.05263 0.36487 0.07075 0.0
C695 C 0.05087 0.28088 0.09699 0.0
C696 C 0.01459 0.29742 0.13399 0.0
C697 C 0.03224 0.29177 0.0828 0.0
N698 N 0.01456 0.30004 0.10131 0.0
C699 C 0.03291 0.28661 0.14901 0.0
C700 C 0.05118 0.27834 0.13032 0.0
C701 C 0.92567 0.27982 0.11495 0.0
C702 C 0.89411 0.30685 0.98974 0.0
C703 C 0.87364 0.29465 0.05264 0.0
C704 C 0.85272 0.2775 0.02757 0.0
C705 C 0.86312 0.28363 -0.00406 0.0
N706 N 0.90402 0.31735 0.04636 0.0
C707 C 0.91433 0.32362 0.01541 0.0
Co708 Co 0.35014 0.3647 0.91384 0.0
Co709 Co 0.37845 0.44316 0.89678 0.0
O710 O 0.37007 0.40899 0.92578 0.0
C711 C 0.31086 0.36955 0.96327 0.0
O712 O 0.31051 0.39112 0.94507 0.0
C713 C 0.43966 0.45735 0.92429 0.0
O714 O 0.43072 0.42797 0.91685 0.0
O715 O 0.39585 0.42674 0.86412 0.0
O716 O 0.37552 0.37499 0.8738 0.0
H717 H 0.37882 0.49179 0.79072 0.0
H718 H 0.37892 0.38545 0.97893 0.0
O719 O 0.32455 0.35471 0.95372 0.0
H720 H 0.43548 0.33711 0.92859 0.0
H721 H 0.3048 0.24942 0.93744 0.0
H722 H 0.32518 0.32766 0.85331 0.0
H723 H 0.39267 0.33928 0.89925 0.0
H724 H 0.33089 0.3062 0.95101 0.0
O725 O 0.42185 0.46859 0.91716 0.0
H726 H 0.367 0.44801 0.82751 0.0
H727 H 0.41023 0.51288 0.90515 0.0
H728 H 0.29931 0.27118 0.83861 0.0
H729 H 0.42122 0.38333 0.00929 0.0
H730 H 0.28897 0.23162 0.88086 0.0
H731 H 0.44995 0.35919 0.98405 0.0
O732 O 0.31634 0.36684 0.88959 0.0
H733 H 0.36366 0.47218 0.00872 0.0
H734 H 0.33152 0.46488 0.8949 0.0
H735 H 0.30705 0.48228 0.9357 0.0
H736 H 0.32302 0.48588 0.99309 0.0
H737 H 0.38749 0.45488 0.96716 0.0
H738 H 0.42271 0.55743 0.86917 0.0
H739 H 0.40687 0.54697 0.81153 0.0
O740 O 0.33526 0.41764 0.87593 0.0
C741 C 0.39215 0.3997 0.85725 0.0
C742 C 0.38572 0.49664 0.81581 0.0
C743 C 0.4104 0.53349 0.85984 0.0
N744 N 0.38763 0.47791 0.86847 0.0
C745 C 0.37899 0.47195 0.83677 0.0
C746 C 0.40331 0.50819 0.88008 0.0
C747 C 0.4015 0.5276 0.8275 0.0
C748 C 0.39101 0.37453 0.96792 0.0
N749 N 0.38319 0.36232 0.93742 0.0
C750 C 0.41503 0.37351 0.98519 0.0
C751 C 0.43119 0.36002 0.97099 0.0
C752 C 0.42311 0.34767 0.93986 0.0
C753 C 0.39891 0.34904 0.92333 0.0
C754 C 0.30925 0.26643 0.91881 0.0
C755 C 0.32094 0.3106 0.87177 0.0
C756 C 0.32394 0.29858 0.92636 0.0
N757 N 0.32979 0.32019 0.90291 0.0
C758 C 0.3062 0.27864 0.86333 0.0
C759 C 0.30037 0.25646 0.88705 0.0
C760 C 0.31374 0.38846 0.87551 0.0
C761 C 0.35662 0.47086 0.98377 0.0
C762 C 0.33872 0.46659 0.9198 0.0
C763 C 0.32479 0.47644 0.94279 0.0
C764 C 0.33378 0.47849 0.97499 0.0
N765 N 0.36107 0.4591 0.92861 0.0
C766 C 0.37014 0.46121 0.9601 0.0
Co767 Co 0.65816 0.00918 0.91385 0.0
Co768 Co 0.60547 0.92909 0.91698 0.0
O769 O 0.63373 0.96746 0.89444 0.0
C770 C 0.61636 0.01295 0.86585 0.0
O771 O 0.59321 0.98981 0.88138 0.0
C772 C 0.65418 0.91827 0.8872 0.0
O773 O 0.67454 0.94684 0.89741 0.0
O774 O 0.63662 0.93983 0.95263 0.0
O775 O 0.67133 0.99197 0.95026 0.0
H776 H 0.54812 0.86451 0.01287 0.0
H777 H 0.66802 0.99897 0.84539 0.0
O778 O 0.64444 0.02592 0.87718 0.0
H779 H 0.77118 0.03732 0.89914 0.0
H780 H 0.73052 0.12678 0.90981 0.0
H781 H 0.66921 0.03573 0.9801 0.0
H782 H 0.72554 0.03121 0.92971 0.0
H783 H 0.69937 0.07301 0.88686 0.0
O784 O 0.62484 0.90643 0.89344 0.0
H785 H 0.58329 0.91353 0.984 0.0
H786 H 0.5678 0.8615 0.89718 0.0
H787 H 0.70018 0.08901 0.00409 0.0
H788 H 0.7131 1.00511 0.81388 0.0
H789 H 0.73114 0.135 0.96884 0.0
H790 H 0.7651 0.02424 0.84079 0.0
O791 O 0.6217 1.00357 0.93958 0.0
H792 H 0.57161 0.91903 0.80115 0.0
H793 H 0.53679 0.90773 0.91363 0.0
H794 H 0.49864 0.89756 0.86964 0.0
H795 H 0.51605 0.90331 0.81292 0.0
H796 H 0.60896 0.92903 0.84585 0.0
H797 H 0.53259 0.81186 0.92511 0.0
H798 H 0.5225 0.81322 0.98335 0.0
O799 O 0.58613 0.95151 0.9408 0.0
C800 C 0.66081 0.96495 0.9631 0.0
C801 C 0.55223 0.86363 0.98746 0.0
C802 C 0.54355 0.83407 0.93821 0.0
N803 N 0.57731 0.89034 0.93892 0.0
C804 C 0.57202 0.8913 0.97098 0.0
C805 C 0.56352 0.86222 0.92253 0.0
C806 C 0.53789 0.83485 0.97089 0.0
C807 C 0.69066 1.00773 0.85722 0.0
N808 N 0.69419 0.01495 0.88933 0.0
C809 C 0.71607 0.01101 0.83926 0.0
C810 C 0.74523 0.02169 0.85439 0.0
C811 C 0.74865 0.029 0.88714 0.0
C812 C 0.72271 0.02544 0.90434 0.0
C813 C 0.71716 0.10692 0.92541 0.0
C814 C 0.68273 0.0556 0.96463 0.0
C815 C 0.69942 0.07646 0.91255 0.0
N816 N 0.68266 0.05127 0.93215 0.0
C817 C 0.70017 0.08573 0.97834 0.0
C818 C 0.71751 0.11152 0.95855 0.0
C819 C 0.59546 0.98034 0.94844 0.0
C820 C 0.56371 0.91627 0.82575 0.0
C821 C 0.54447 0.91008 0.88901 0.0
C822 C 0.52278 0.9043 0.8642 0.0
C823 C 0.53254 0.90751 0.83238 0.0
N824 N 0.575 0.91871 0.8823 0.0
C825 C 0.58472 0.92178 0.85117 0.0
Co826 Co 0.054 0.68893 0.9098 0.0
Co827 Co 0.11044 0.66695 0.90469 0.0
O828 O 0.0785 0.67137 0.92742 0.0
C829 C 0.08698 0.72756 0.96601 0.0
O830 O 0.11273 0.73085 0.95295 0.0
C831 C 0.06378 0.60162 0.92449 0.0
O832 O 0.04267 0.6057 0.90905 0.0
O833 O 0.0821 0.64788 0.86661 0.0
O834 O 0.04795 0.66588 0.86848 0.0
H835 H 0.17703 0.6743 0.81033 0.0
H836 H 0.03709 0.65647 0.97264 0.0
O837 O 0.06057 0.71227 0.95119 0.0
H838 H 0.94305 0.59674 0.90306 0.0
H839 H 0.97386 0.72421 0.91617 0.0
H840 H 0.05011 0.71502 0.84687 0.0
H841 H 0.9904 0.64363 0.88264 0.0
H842 H 1.0053 0.70143 0.93706 0.0
O843 O 0.0928 0.62358 0.9248 0.0
H844 H 0.13701 0.68115 0.83912 0.0
H845 H 0.15131 0.64053 0.92284 0.0
H846 H 0.01896 0.73764 0.82489 0.0
H847 H 0.9902 0.60984 0.99409 0.0
H848 H 0.98051 0.74236 0.85965 0.0
H849 H 0.94277 0.57958 0.95917 0.0
O850 O 0.09225 0.72576 0.89235 0.0
H851 H 0.1376 0.68246 0.02265 0.0
H852 H 0.17723 0.7184 0.91342 0.0
H853 H 0.21219 0.74457 0.96027 0.0
H854 H 0.19237 0.72664 0.01536 0.0
H855 H 0.1034 0.65708 0.97518 0.0
H856 H 0.19137 0.63303 0.89491 0.0
H857 H 0.20452 0.65009 0.83829 0.0
O858 O 0.12798 0.71032 0.8846 0.0
C859 C 0.05954 0.65068 0.85474 0.0
C860 C 0.1716 0.66689 0.83504 0.0
C861 C 0.17961 0.64368 0.8825 0.0
N862 N 0.1421 0.66152 0.88269 0.0
C863 C 0.14904 0.6708 0.85149 0.0
C864 C 0.15689 0.64792 0.89817 0.0
C865 C 0.18698 0.65327 0.85073 0.0
C866 C 0.01644 0.6436 0.95738 0.0
N867 N 0.01642 0.65288 0.92648 0.0
C868 C 0.99 0.61714 0.96963 0.0
C869 C 0.96341 0.60015 0.95001 0.0
C870 C 0.96356 0.60975 0.91852 0.0
C871 C 0.99045 0.6363 0.90707 0.0
C872 C 0.9905 0.72222 0.90077 0.0
C873 C 0.03327 0.71681 0.86207 0.0
C874 C 1.0084 0.70942 0.91249 0.0
N875 N 0.0293 0.70668 0.89311 0.0
C876 C 0.01577 0.72973 0.84953 0.0
C877 C 0.99423 0.73239 0.86905 0.0
C878 C 0.11886 0.73068 0.88234 0.0
C879 C 0.14656 0.69037 -0.00124 0.0
C880 C 0.16849 0.7104 0.93731 0.0
C881 C 0.18839 0.72529 0.96375 0.0
C882 C 0.17727 0.7152 0.99465 0.0
N883 N 0.13839 0.68608 0.94154 0.0
C884 C 0.12735 0.67599 0.97177 0.0
Co885 Co 0.35003 0.99292 0.41442 0.0
Co886 Co 0.37666 0.9411 0.39943 0.0
O887 O 0.36925 0.96843 0.42728 0.0
C888 C 0.30992 0.94981 0.46369 0.0
O889 O 0.30903 0.92763 0.44519 0.0
C890 C 0.43942 0.98825 0.42466 0.0
O891 O 0.43264 0.00944 0.41447 0.0
O892 O 0.39481 0.97396 0.36603 0.0
O893 O 0.37558 1.00661 0.37438 0.0
H894 H 0.37639 0.8889 0.29506 0.0
H895 H 0.37904 1.0021 0.47945 0.0
O896 O 0.3243 0.97843 0.45443 0.0
H897 H 0.43708 0.10582 0.42744 0.0
H898 H 0.30666 0.06491 0.43599 0.0
H899 H 0.32573 1.00408 0.35331 0.0
H900 H 0.39336 0.06045 0.39888 0.0
H901 H 0.33177 0.03377 0.4505 0.0
O902 O 0.41969 0.95887 0.4204 0.0
H903 H 0.36549 0.92279 0.33043 0.0
H904 H 0.40669 0.90205 0.40988 0.0
H905 H 0.30084 0.03511 0.33766 0.0
H906 H 0.42244 0.04686 0.50894 0.0
H907 H 0.29116 0.06582 0.37918 0.0
H908 H 0.45185 0.09916 0.48288 0.0
O909 O 0.31586 0.95665 0.39032 0.0
H910 H 0.36025 0.90065 0.51244 0.0
H911 H 0.32839 0.8726 0.3988 0.0
H912 H 0.30285 0.83207 0.44043 0.0
H913 H 0.31868 0.84606 0.49773 0.0
H914 H 0.38514 0.94042 0.47008 0.0
H915 H 0.41823 0.86804 0.37534 0.0
H916 H 0.40294 0.86123 0.31751 0.0
O917 O 0.3338 0.9236 0.37809 0.0
C918 C 0.39184 0.99752 0.35841 0.0
C919 C 0.38304 0.89157 0.32024 0.0
C920 C 0.40657 0.8799 0.3653 0.0
N921 N 0.38514 0.91408 0.37222 0.0
C922 C 0.37683 0.91063 0.3404 0.0
C923 C 0.40002 0.89919 0.38472 0.0
C924 C 0.39798 0.87608 0.33285 0.0
C925 C 0.39151 0.02485 0.46806 0.0
N926 N 0.38353 0.02871 0.43756 0.0
C927 C 0.41616 0.05008 0.48483 0.0
C928 C 0.43268 0.07941 0.47018 0.0
C929 C 0.42441 0.08316 0.43906 0.0
C930 C 0.39966 0.05738 0.423 0.0
C931 C 0.31082 0.05169 0.41767 0.0
C932 C 0.32179 0.01757 0.37145 0.0
C933 C 0.32496 0.03398 0.42576 0.0
N934 N 0.33046 0.01741 0.40271 0.0
C935 C 0.30759 0.035 0.36248 0.0
C936 C 0.30214 0.0522 0.38579 0.0
C937 C 0.31282 0.93185 0.3768 0.0
C938 C 0.35328 0.89422 0.48754 0.0
C939 C 0.33554 0.87879 0.42366 0.0
C940 C 0.32099 0.85576 0.44713 0.0
C941 C 0.32991 0.86361 0.47927 0.0
N942 N 0.3584 0.90877 0.43197 0.0
C943 C 0.36738 0.9166 0.46342 0.0
Co944 Co 0.05367 0.36379 0.40836 0.0
Co945 Co 0.11045 0.44229 0.40324 0.0
O946 O 0.07841 0.40611 0.42601 0.0
C947 C 0.08631 0.35855 0.46472 0.0
O948 O 0.11219 0.38091 0.45177 0.0
C949 C 0.06424 0.46134 0.42326 0.0
O950 O 0.04297 0.43602 0.4078 0.0
O951 O 0.08202 0.43274 0.36528 0.0
O952 O 0.0478 0.38047 0.36703 0.0
H953 H 0.17691 0.50063 0.30871 0.0
H954 H 0.03689 0.3801 0.47116 0.0
O955 O 0.05999 0.3473 0.44976 0.0
H956 H 0.94302 0.34527 0.40147 0.0
H957 H 0.97291 0.24825 0.41461 0.0
H958 H 0.04966 0.3331 0.34544 0.0
H959 H 0.9902 0.34534 0.38112 0.0
H960 H 1.00462 0.30277 0.43554 0.0
O961 O 0.09319 0.46834 0.42348 0.0
H962 H 0.13676 0.454 0.33755 0.0
H963 H 0.15179 0.50988 0.4214 0.0
H964 H 0.01824 0.279 0.32343 0.0
H965 H 0.99017 0.38022 0.49254 0.0
H966 H 0.97954 0.23614 0.35812 0.0
H967 H 0.94282 0.36279 0.45757 0.0
O968 O 0.09182 0.36495 0.39096 0.0
H969 H 0.13808 0.45525 0.52109 0.0
H970 H 0.17711 0.4575 0.41167 0.0
H971 H 0.21221 0.4668 0.45837 0.0
H972 H 0.1927 0.46565 0.51355 0.0
H973 H 0.10373 0.44589 0.47377 0.0
H974 H 0.19199 0.55721 0.39342 0.0
H975 H 0.20484 0.5527 0.3367 0.0
O976 O 0.1276 0.41613 0.383 0.0
C977 C 0.05941 0.40721 0.35337 0.0
C978 C 0.17161 0.50287 0.33346 0.0
C979 C 0.18004 0.53464 0.38099 0.0
N980 N 0.14221 0.47921 0.38119 0.0
C981 C 0.14898 0.47654 0.34994 0.0
C982 C 0.15724 0.5078 0.39669 0.0
C983 C 0.18725 0.53209 0.34917 0.0
C984 C 0.01628 0.3722 0.45588 0.0
N985 N 0.0162 0.36254 0.42499 0.0
C986 C 0.98993 0.37244 0.46809 0.0
C987 C 0.96339 0.3627 0.44844 0.0
C988 C 0.96349 0.35288 0.41696 0.0
C989 C 0.99028 0.35301 0.40555 0.0
C990 C 0.98965 0.26674 0.39924 0.0
C991 C 0.03272 0.3146 0.36061 0.0
C992 C 1.00771 0.29762 0.41098 0.0
N993 N 0.02875 0.32109 0.39164 0.0
C994 C 0.01507 0.284 0.34805 0.0
C995 C 0.99338 0.25996 0.36754 0.0
C996 C 0.1184 0.38659 0.38081 0.0
C997 C 0.14691 0.45598 0.49716 0.0
C998 C 0.1685 0.45706 0.43561 0.0
C999 C 0.18848 0.46236 0.46195 0.0
C1000 C 0.17753 0.46175 0.49291 0.0
N1001 N 0.13849 0.4514 0.43997 0.0
C1002 C 0.12761 0.45084 0.47025 0.0
Co1003 Co 0.65939 0.64819 0.41464 0.0
Co1004 Co 0.60428 0.67252 0.41426 0.0
O1005 O 0.63481 0.66422 0.3935 0.0
C1006 C 0.6226 0.60244 0.36376 0.0
O1007 O 0.5976 0.60155 0.37606 0.0
C1008 C 0.65292 0.7337 0.38665 0.0
O1009 O 0.67369 0.72657 0.39763 0.0
O1010 O 0.63311 0.69342 0.45176 0.0
O1011 O 0.66916 0.67782 0.45137 0.0
H1012 H 0.5398 0.67495 0.50628 0.0
H1013 H 0.67264 0.6693 0.34687 0.0
O1014 O 0.64938 0.61833 0.37776 0.0
H1015 H 0.77176 0.73707 0.40665 0.0
H1016 H 0.73591 0.60811 0.41641 0.0
H1017 H 0.66725 0.63265 0.48167 0.0
H1018 H 0.72521 0.69564 0.43451 0.0
H1019 H 0.70444 0.62883 0.39098 0.0
O1020 O 0.62349 0.715 0.39168 0.0
H1021 H 0.57797 0.66366 0.47973 0.0
H1022 H 0.56574 0.70039 0.39207 0.0
H1023 H 0.69846 0.6122 0.50811 0.0
H1024 H 0.71869 0.71014 0.31805 0.0
H1025 H 0.73311 0.59978 0.47541 0.0
H1026 H 0.76866 0.74451 0.348 0.0
O1027 O 0.62192 0.61571 0.43793 0.0
H1028 H 0.57726 0.65 0.29674 0.0
H1029 H 0.53649 0.62304 0.40696 0.0
H1030 H 0.50118 0.59494 0.36086 0.0
H1031 H 0.52158 0.60835 0.30528 0.0
H1032 H 0.61174 0.67745 0.34351 0.0
H1033 H 0.52756 0.71226 0.41768 0.0
H1034 H 0.51431 0.69942 0.47518 0.0
O1035 O 0.58501 0.63032 0.43709 0.0
C1036 C 0.65716 0.69328 0.46358 0.0
C1037 C 0.54528 0.68054 0.48119 0.0
C1038 C 0.53845 0.70153 0.43147 0.0
N1039 N 0.57383 0.68113 0.43435 0.0
C1040 C 0.56679 0.67411 0.46601 0.0
C1041 C 0.56011 0.69481 0.41711 0.0
C1042 C 0.53102 0.69431 0.46373 0.0
C1043 C 0.6944 0.68386 0.36004 0.0
N1044 N 0.69627 0.67995 0.39233 0.0
C1045 C 0.72037 0.70706 0.34359 0.0
C1046 C 0.74838 0.72637 0.36042 0.0
C1047 C 0.75012 0.72223 0.39334 0.0
C1048 C 0.72367 0.69878 0.409 0.0
C1049 C 0.72091 0.61344 0.43092 0.0
C1050 C 0.68235 0.62741 0.46729 0.0
C1051 C 0.70298 0.62509 0.41664 0.0
N1052 N 0.68413 0.63205 0.43485 0.0
C1053 C 0.69993 0.61578 0.48239 0.0
C1054 C 0.71934 0.6088 0.46402 0.0
C1055 C 0.59479 0.6114 0.44518 0.0
C1056 C 0.56805 0.64409 0.32083 0.0
C1057 C 0.54547 0.6291 0.38283 0.0
C1058 C 0.52537 0.61312 0.35683 0.0
C1059 C 0.53682 0.62067 0.32565 0.0
N1060 N 0.57605 0.65203 0.37791 0.0
C1061 C 0.58742 0.65963 0.34741 0.0
C1062 C 0.06297 0.72224 0.15185 0.0
C1063 C 0.06752 0.75043 0.16559 0.0
C1064 C 0.07094 0.72116 0.11983 0.0
C1065 C 0.08376 0.74893 0.1013 0.0
C1066 C 0.09069 0.77791 0.1157 0.0
C1067 C 0.08252 0.77834 0.14775 0.0
C1068 C 0.06353 0.68985 0.10522 0.0
C1069 C 0.10453 0.80802 0.09667 0.0
C1070 C 0.11447 0.74562 0.01909 0.0
C1071 C 0.0877 0.73701 -0.00024 0.0
C1072 C 0.11393 0.75041 0.05224 0.0
C1073 C 0.08607 0.74677 0.0661 0.0
C1074 C 0.05951 0.73958 0.04646 0.0
C1075 C 0.06063 0.73471 0.01348 0.0
C1076 C 0.14263 0.75805 0.07254 0.0
C1077 C 0.02947 0.73586 0.06045 0.0
H1078 H 0.05173 0.70063 0.16554 0.0
H1079 H 0.08656 0.80038 0.15826 0.0
H1080 H 0.04337 0.68167 0.0881 0.0
H1081 H 0.08396 0.69235 0.09148 0.0
H1082 H 0.05726 0.67143 0.1237 0.0
H1083 H 0.11263 0.82916 0.11242 0.0
H1084 H 0.12472 0.81096 0.0822 0.0
H1085 H 0.08639 0.80688 0.07969 0.0
H1086 H 0.13548 0.74745 0.00858 0.0
H1087 H 0.03997 0.72826 -0.00142 0.0
H1088 H 0.13706 0.73808 0.08877 0.0
H1089 H 0.14934 0.7791 0.08793 0.0
H1090 H 0.16319 0.7625 0.05771 0.0
H1091 H 0.01911 0.71559 0.0771 0.0
H1092 H 0.01158 0.73181 0.04162 0.0
H1093 H 0.03464 0.75722 0.07459 0.0
C1094 C 0.30216 0.34463 0.01696 0.0
C1095 C 0.30051 0.36656 -0.00318 0.0
C1096 C 0.29686 0.34457 0.04993 0.0
C1097 C 0.28974 0.36699 0.06298 0.0
C1098 C 0.28658 0.38823 0.0426 0.0
C1099 C 0.29194 0.38771 0.00965 0.0
C1100 C 0.30024 0.3214 0.07098 0.0
C1101 C 0.27898 0.41237 0.05578 0.0
C1102 C 0.25809 0.3463 0.14691 0.0
C1103 C 0.28615 0.36175 0.16514 0.0
C1104 C 0.25844 0.34956 0.11351 0.0
C1105 C 0.28746 0.36903 0.09823 0.0
C1106 C 0.31529 0.38712 0.11681 0.0
C1107 C 0.31432 0.38322 0.15017 0.0
C1108 C 0.22828 0.32989 0.09449 0.0
C1109 C 0.34664 0.40844 0.10127 0.0
H1110 H 0.30864 0.32815 0.00715 0.0
H1111 H 0.2906 0.40473 0.99419 0.0
H1112 H 0.32074 0.33433 0.08758 0.0
H1113 H 0.27898 0.30826 0.08593 0.0
H1114 H 0.30372 0.30414 0.05678 0.0
H1115 H 0.2746 0.42526 0.0364 0.0
H1116 H 0.25789 0.40087 0.07127 0.0
H1117 H 0.29895 0.42978 0.07098 0.0
H1118 H 0.23613 0.32987 0.15834 0.0
H1119 H 0.33602 0.39549 0.16417 0.0
H1120 H 0.22881 0.30956 0.08328 0.0
H1121 H 0.2259 0.3438 0.07486 0.0
H1122 H 0.20712 0.32055 0.10993 0.0
H1123 H 0.35502 0.39383 0.0891 0.0
H1124 H 0.36492 0.42411 0.11911 0.0
H1125 H 0.34419 0.42324 0.08271 0.0
C1126 C 0.73659 0.96667 0.13644 0.0
C1127 C 0.72072 0.97686 0.15685 0.0
C1128 C 0.7283 0.96042 0.10374 0.0
C1129 C 0.70363 0.96449 0.09134 0.0
C1130 C 0.68637 0.97297 0.11219 0.0
C1131 C 0.69509 0.979 0.14466 0.0
C1132 C 0.74702 0.95114 0.08221 0.0
C1133 C 0.65973 0.97737 0.09991 0.0
C1134 C 0.70145 0.99055 0.00675 0.0
C1135 C 0.67586 0.9632 0.9934 0.0
C1136 C 0.71231 0.99065 0.038 0.0
C1137 C 0.69729 0.96271 0.05627 0.0
C1138 C 0.67324 0.93441 0.04207 0.0
C1139 C 0.66276 0.93498 0.01075 0.0
C1140 C 0.7382 0.0213 0.05228 0.0
C1141 C 0.65693 0.90409 0.06071 0.0
H1142 H 0.75638 0.96486 0.14563 0.0
H1143 H 0.68245 0.98655 0.16024 0.0
H1144 H 0.73103 0.93098 0.06636 0.0
H1145 H 0.76227 0.97119 0.06646 0.0
H1146 H 0.76228 0.94463 0.09618 0.0
H1147 H 0.64738 0.98198 0.11965 0.0
H1148 H 0.66915 0.99756 0.08318 0.0
H1149 H 0.64222 0.9561 0.0863 0.0
H1150 H 0.71205 0.01238 0.99344 0.0
H1151 H 0.64321 0.9136 0.00057 0.0
H1152 H 0.75634 0.01765 0.06439 0.0
H1153 H 0.7281 0.03003 0.07073 0.0
H1154 H 0.74988 0.03984 0.03385 0.0
H1155 H 0.67437 0.90036 0.07424 0.0
H1156 H 0.64272 0.8833 0.04477 0.0
H1157 H 0.64093 0.90552 0.07849 0.0
C1158 C 0.73274 0.04617 0.48943 0.0
C1159 C 0.73637 0.07336 0.50481 0.0
C1160 C 0.74212 0.04719 0.45756 0.0
C1161 C 0.75546 0.07607 0.44087 0.0
C1162 C 0.7618 0.10409 0.45711 0.0
C1163 C 0.75223 0.10242 0.48898 0.0
C1164 C 0.73532 0.01686 0.44101 0.0
C1165 C 0.77624 0.13536 0.44012 0.0
C1166 C 0.78729 0.07694 0.35806 0.0
C1167 C 0.76073 0.06919 0.33872 0.0
C1168 C 0.78639 0.08027 0.39144 0.0
C1169 C 0.75837 0.07597 0.40554 0.0
C1170 C 0.73206 0.06974 0.38595 0.0
C1171 C 0.73355 0.06636 0.35273 0.0
C1172 C 0.81484 0.08693 0.41167 0.0
C1173 C 0.70184 0.06533 0.40018 0.0
H1174 H 0.72093 0.02369 0.50158 0.0
H1175 H 0.75561 0.12369 0.50079 0.0
H1176 H 0.71542 0.00946 0.42369 0.0
H1177 H 0.75608 0.02036 0.42719 0.0
H1178 H 0.72888 0.99745 0.45834 0.0
H1179 H 0.78431 0.15548 0.45728 0.0
H1180 H 0.79655 0.13899 0.42541 0.0
H1181 H 0.75843 0.13549 0.42358 0.0
H1182 H 0.80839 0.07919 0.34733 0.0
H1183 H 0.71305 0.0606 0.33783 0.0
H1184 H 0.80928 0.06593 0.42627 0.0
H1185 H 0.82101 0.1068 0.42863 0.0
H1186 H 0.83576 0.09272 0.39678 0.0
H1187 H 0.69118 0.04418 0.41566 0.0
H1188 H 0.68424 0.06233 0.38143 0.0
H1189 H 0.70684 0.08593 0.41558 0.0
C1190 C 0.91986 0.67395 0.48679 0.0
C1191 C 0.94845 0.69252 0.50348 0.0
C1192 C 0.91794 0.67649 0.45347 0.0
C1193 C 0.94519 0.69826 0.43678 0.0
C1194 C 0.97316 0.7192 0.45393 0.0
C1195 C 0.97445 0.71608 0.4872 0.0
C1196 C 0.88763 0.65398 0.43599 0.0
C1197 C 1.00263 0.74302 0.43688 0.0
C1198 C 0.9634 0.67995 0.35438 0.0
C1199 C 0.95965 0.70149 0.33561 0.0
C1200 C 0.95679 0.67725 0.38722 0.0
C1201 C 0.94615 0.69652 0.40141 0.0
C1202 C 0.94007 0.71655 0.38215 0.0
C1203 C 0.94692 0.71882 0.34937 0.0
C1204 C 0.96327 0.65536 0.40711 0.0
C1205 C 0.92838 0.73713 0.39648 0.0
H1206 H 0.89953 0.65588 0.4993 0.0
H1207 H 0.99647 0.73077 0.50008 0.0
H1208 H 0.88259 0.66601 0.41628 0.0
H1209 H 0.88997 0.63455 0.42509 0.0
H1210 H 0.86722 0.64342 0.45249 0.0
H1211 H 0.02111 0.75982 0.45393 0.0
H1212 H 0.01243 0.7305 0.42312 0.0
H1213 H 0.99706 0.75664 0.41947 0.0
H1214 H 0.97295 0.6663 0.34379 0.0
H1215 H 0.94368 0.73533 0.33491 0.0
H1216 H 0.94266 0.64018 0.42223 0.0
H1217 H 0.98366 0.66947 0.42353 0.0
H1218 H 0.96871 0.63999 0.39198 0.0
H1219 H 0.90891 0.72353 0.41345 0.0
H1220 H 0.91998 0.74732 0.37771 0.0
H1221 H 0.94785 0.75684 0.41026 0.0
C1222 C 0.32561 0.27015 0.47539 0.0
C1223 C 0.35022 0.26614 0.48719 0.0
C1224 C 0.31892 0.26797 0.44246 0.0
C1225 C 0.33721 0.26149 0.42091 0.0
C1226 C 0.36039 0.25494 0.43286 0.0
C1227 C 0.36667 0.25737 0.46599 0.0
C1228 C 0.29386 0.27496 0.43059 0.0
C1229 C 0.38008 0.2476 0.41058 0.0
C1230 C 0.30498 0.24664 0.33592 0.0
C1231 C 0.3212 0.27729 0.32349 0.0
C1232 C 0.31148 0.2405 0.36705 0.0
C1233 C 0.33453 0.26564 0.38608 0.0
C1234 C 0.3525 0.2961 0.37288 0.0
C1235 C 0.34569 0.30153 0.34167 0.0
C1236 C 0.29229 0.20761 0.38023 0.0
C1237 C 0.37741 0.32352 0.39248 0.0
H1238 H 0.31256 0.27656 0.49173 0.0
H1239 H 0.3856 0.25403 0.475 0.0
H1240 H 0.30517 0.29765 0.41753 0.0
H1241 H 0.2775 0.25634 0.4135 0.0
H1242 H 0.27987 0.27671 0.45056 0.0
H1243 H 0.39277 0.2375 0.42367 0.0
H1244 H 0.36519 0.23081 0.39133 0.0
H1245 H 0.39785 0.26961 0.39883 0.0
H1246 H 0.28628 0.22762 0.32191 0.0
H1247 H 0.35865 0.3252 0.33217 0.0
H1248 H 0.27487 0.207 0.3975 0.0
H1249 H 0.30765 0.20076 0.39344 0.0
H1250 H 0.27928 0.18985 0.36093 0.0
H1251 H 0.36597 0.32946 0.41209 0.0
H1252 H 0.3912 0.34491 0.37774 0.0
H1253 H 0.39395 0.31713 0.40385 0.0
C1254 C 0.96224 0.28065 0.85347 0.0
C1255 C 0.95849 0.2553 0.83445 0.0
C1256 C 0.95493 0.27662 0.88616 0.0
C1257 C 0.94348 0.24649 0.89991 0.0
C1258 C 0.93736 0.22033 0.88033 0.0
C1259 C 0.94504 0.22507 0.84774 0.0
C1260 C 0.96155 0.30507 0.90638 0.0
C1261 C 0.92471 0.18782 0.89416 0.0
C1262 C 0.97031 0.25462 0.98608 0.0
C1263 C 0.9444 0.25283 0.00202 0.0
C1264 C 0.96939 0.25013 0.9528 0.0
C1265 C 0.94186 0.24362 0.93526 0.0
C1266 C 0.9146 0.2387 0.95158 0.0
C1267 C 0.91616 0.24329 0.98494 0.0
C1268 C 0.99887 0.25524 0.93617 0.0
C1269 C 0.88471 0.23137 0.93369 0.0
H1270 H 0.97237 0.304 0.84326 0.0
H1271 H 0.94176 0.20527 0.83305 0.0
H1272 H 0.94071 0.29988 0.92104 0.0
H1273 H 0.98147 0.31093 0.92323 0.0
H1274 H 0.96776 0.32612 0.89152 0.0
H1275 H 0.91625 0.16929 0.87508 0.0
H1276 H 0.94366 0.18704 0.90818 0.0
H1277 H 0.90504 0.1822 0.91081 0.0
H1278 H 0.99205 0.26155 -0.00074 0.0
H1279 H 0.8959 0.24153 -0.00282 0.0
H1280 H 0.00931 0.27763 0.92262 0.0
H1281 H 0.99316 0.23592 0.91862 0.0
H1282 H 0.01692 0.25658 0.95346 0.0
H1283 H 0.88762 0.25338 0.92306 0.0
H1284 H 0.86406 0.22166 0.94988 0.0
H1285 H 0.87968 0.2143 0.91375 0.0
C1286 C 0.76556 0.72337 0.99211 0.0
C1287 C 0.77433 0.70397 0.00842 0.0
C1288 C 0.76904 0.72697 0.95873 0.0
C1289 C 0.78111 0.71041 0.9415 0.0
C1290 C 0.79204 0.69263 0.95813 0.0
C1291 C 0.78887 0.68995 0.99148 0.0
C1292 C 0.75786 0.74676 0.94171 0.0
C1293 C 0.8047 0.67433 0.94056 0.0
C1294 C 0.74913 0.68529 0.85689 0.0
C1295 C 0.77439 0.70738 0.83863 0.0
C1296 C 0.75133 0.68568 0.89046 0.0
C1297 C 0.77928 0.709 0.90601 0.0
C1298 C 0.80513 0.73088 0.8877 0.0
C1299 C 0.80251 0.72954 0.85415 0.0
C1300 C 0.72349 0.66155 0.90932 0.0
C1301 C 0.83512 0.75629 0.90355 0.0
H1302 H 0.75454 0.73445 0.0051 0.0
H1303 H 0.79597 0.6751 0.00393 0.0
H1304 H 0.77561 0.7625 0.92411 0.0
H1305 H 0.73574 0.73112 0.92813 0.0
H1306 H 0.75317 0.76141 0.95877 0.0
H1307 H 0.81603 0.66519 0.95718 0.0
H1308 H 0.78499 0.65396 0.92771 0.0
H1309 H 0.82213 0.6892 0.9223 0.0
H1310 H 0.7274 0.66805 0.84498 0.0
H1311 H 0.82217 0.74665 0.84015 0.0
H1312 H 0.71405 0.67357 0.92443 0.0
H1313 H 0.73107 0.64879 0.9257 0.0
H1314 H 0.70414 0.64404 0.8935 0.0
H1315 H 0.82983 0.77194 0.91836 0.0
H1316 H 0.85336 0.77095 0.88576 0.0
H1317 H 0.84502 0.7456 0.91996 0.0
C1318 C 0.32276 0.04809 0.97977 0.0
C1319 C 0.34618 0.07682 0.99304 0.0
C1320 C 0.31729 0.04451 0.94656 0.0
C1321 C 0.33573 0.0703 0.92627 0.0
C1322 C 0.35782 0.09998 0.93967 0.0
C1323 C 0.36272 0.10293 0.97302 0.0
C1324 C 0.29325 0.01252 0.93309 0.0
C1325 C 0.37786 0.128 0.91878 0.0
C1326 C 0.34639 0.0428 0.845 0.0
C1327 C 0.3221 0.04297 0.82711 0.0
C1328 C 0.35246 0.05363 0.8769 0.0
C1329 C 0.33385 0.06497 0.8911 0.0
C1330 C 0.31105 0.06756 0.87248 0.0
C1331 C 0.30542 0.05652 0.84063 0.0
C1332 C 0.37727 0.05084 0.89604 0.0
C1333 C 0.29111 0.07996 0.88678 0.0
H1334 H 0.30972 0.02792 -0.00483 0.0
H1335 H 0.38077 0.12528 0.98314 0.0
H1336 H 0.27701 0.01478 0.91602 0.0
H1337 H 0.3055 1.0023 0.91956 0.0
H1338 H 0.27904 0.99578 0.95221 0.0
H1339 H 0.38959 0.15043 0.93288 0.0
H1340 H 0.39643 0.12477 0.90734 0.0
H1341 H 0.36347 0.13007 0.89926 0.0
H1342 H 0.35969 0.03277 0.83468 0.0
H1343 H 0.28686 0.05716 0.8269 0.0
H1344 H 0.36566 0.03228 0.91442 0.0
H1345 H 0.39313 0.07331 0.90892 0.0
H1346 H 0.3918 0.04462 0.88062 0.0
H1347 H 0.27391 0.06231 0.90357 0.0
H1348 H 0.27781 0.08476 0.86806 0.0
H1349 H 0.30601 0.10196 0.9008 0.0
C1350 C 0.31196 0.93258 0.64987 0.0
C1351 C 0.284 0.92583 0.66536 0.0
C1352 C 0.31309 0.93176 0.61629 0.0
C1353 C 0.28564 0.92415 0.598 0.0
C1354 C 0.25674 0.91469 0.61354 0.0
C1355 C 0.25622 0.9154 0.64714 0.0
C1356 C 0.34423 0.94145 0.60042 0.0
C1357 C 0.227 0.90641 0.5948 0.0
C1358 C 0.30253 0.96593 0.51839 0.0
C1359 C 0.29939 0.94223 0.49715 0.0
C1360 C 0.29691 0.95992 0.55124 0.0
C1361 C 0.28813 0.92956 0.56297 0.0
C1362 C 0.28357 0.90517 0.54147 0.0
C1363 C 0.28909 0.91177 0.50872 0.0
C1364 C 0.30172 0.98643 0.57357 0.0
C1365 C 0.27438 0.8726 0.5532 0.0
H1366 H 0.33344 0.94035 0.66383 0.0
H1367 H 0.23441 0.90986 0.65895 0.0
H1368 H 0.3411 0.92465 0.5808 0.0
H1369 H 0.35345 0.96504 0.58953 0.0
H1370 H 0.36217 0.94269 0.61779 0.0
H1371 H 0.20571 0.89492 0.61008 0.0
H1372 H 0.22895 0.92827 0.58485 0.0
H1373 H 0.22372 0.89049 0.57425 0.0
H1374 H 0.31039 0.98947 0.50956 0.0
H1375 H 0.28652 0.89327 0.49242 0.0
H1376 H 0.3221 0.99274 0.58991 0.0
H1377 H 0.28067 0.97878 0.58876 0.0
H1378 H 0.30621 1.0079 0.56034 0.0
H1379 H 0.29401 0.87379 0.56781 0.0
H1380 H 0.26899 0.85557 0.53307 0.0
H1381 H 0.25349 0.86347 0.56892 0.0
C1382 C 0.06097 0.33939 0.65068 0.0
C1383 C 0.06629 0.31627 0.66412 0.0
C1384 C 0.06879 0.34854 0.61871 0.0
C1385 C 0.08217 0.33419 0.5999 0.0
C1386 C 0.08972 0.31261 0.61395 0.0
C1387 C 0.08176 0.30396 0.64597 0.0
C1388 C 0.06074 0.37195 0.60448 0.0
C1389 C 0.10408 0.29691 0.5946 0.0
C1390 C 0.05975 0.32498 0.51188 0.0
C1391 C 0.08678 0.35006 0.49849 0.0
C1392 C 0.05838 0.31905 0.54482 0.0
C1393 C 0.08463 0.33884 0.56476 0.0
C1394 C 0.11243 0.36348 0.55125 0.0
C1395 C 0.11325 0.3687 0.51812 0.0
C1396 C 0.02844 0.29226 0.55843 0.0
C1397 C 0.14079 0.38503 0.57189 0.0
H1398 H 0.04935 0.3493 0.6646 0.0
H1399 H 0.08635 0.28635 0.65621 0.0
H1400 H 0.08102 0.39029 0.59094 0.0
H1401 H 0.04069 0.35958 0.58726 0.0
H1402 H 0.05403 0.38372 0.62317 0.0
H1403 H 0.11233 0.28401 0.61006 0.0
H1404 H 0.08622 0.27984 0.5773 0.0
H1405 H 0.12428 0.31457 0.58045 0.0
H1406 H 0.03931 0.31041 0.49673 0.0
H1407 H 0.13422 0.38814 0.50786 0.0
H1408 H 0.01767 0.30178 0.57518 0.0
H1409 H 0.03384 0.27629 0.57239 0.0
H1410 H 0.01078 0.27818 0.5394 0.0
H1411 H 0.13459 0.3988 0.58853 0.0
H1412 H 0.16125 0.4018 0.55735 0.0
H1413 H 0.14798 0.371 0.58687 0.0
C1414 C 0.65381 0.72009 0.51362 0.0
C1415 C 0.67035 0.70953 0.49471 0.0
C1416 C 0.66328 0.73033 0.54545 0.0
C1417 C 0.68983 0.72994 0.55849 0.0
C1418 C 0.70788 0.72147 0.53882 0.0
C1419 C 0.69796 0.71143 0.50716 0.0
C1420 C 0.64373 0.7396 0.56567 0.0
C1421 C 0.73649 0.72092 0.5518 0.0
C1422 C 0.72991 0.76781 0.63767 0.0
C1423 C 0.71823 0.74132 0.65759 0.0
C1424 C 0.71945 0.7649 0.60569 0.0
C1425 C 0.69694 0.73483 0.59342 0.0
C1426 C 0.68367 0.7084 0.61392 0.0
C1427 C 0.69442 0.71199 0.64578 0.0
C1428 C 0.73386 0.79364 0.58459 0.0
C1429 C 0.65952 0.6759 0.60169 0.0
H1430 H 0.63254 0.71889 0.50418 0.0
H1431 H 0.71116 0.70373 0.49265 0.0
H1432 H 0.62993 0.72065 0.5831 0.0
H1433 H 0.65911 0.76146 0.5797 0.0
H1434 H 0.62699 0.74338 0.55081 0.0
H1435 H 0.74949 0.71649 0.53263 0.0
H1436 H 0.75291 0.74363 0.56398 0.0
H1437 H 0.729 0.70206 0.56995 0.0
H1438 H 0.74813 0.79066 0.6466 0.0
H1439 H 0.68498 0.69142 0.66101 0.0
H1440 H 0.71533 0.79484 0.57021 0.0
H1441 H 0.75025 0.79204 0.56746 0.0
H1442 H 0.74726 0.81585 0.59881 0.0
H1443 H 0.63985 0.67666 0.58915 0.0
H1444 H 0.6496 0.65842 0.62134 0.0
H1445 H 0.67063 0.66756 0.584 0.0
C1446 C 0.40041 0.3668 0.81669 0.0
C1447 C 0.4058 0.39644 0.82692 0.0
C1448 C 0.40798 0.3623 0.78547 0.0
C1449 C 0.42119 0.38805 0.76411 0.0
C1450 C 0.42919 0.41853 0.77512 0.0
C1451 C 0.42145 0.42239 0.80647 0.0
C1452 C 0.39944 0.32947 0.7746 0.0
C1453 C 0.44346 0.44657 0.75305 0.0
C1454 C 0.44743 0.37463 0.68299 0.0
C1455 C 0.41999 0.36492 0.66437 0.0
C1456 C 0.44865 0.38314 0.71544 0.0
C1457 C 0.42189 0.38206 0.72932 0.0
C1458 C 0.3947 0.37369 0.71027 0.0
C1459 C 0.39406 0.36515 0.67807 0.0
C1460 C 0.47801 0.392 0.73514 0.0
C1461 C 0.36577 0.37262 0.72418 0.0
H1462 H 0.38875 0.34669 0.83244 0.0
H1463 H 0.42615 0.44553 0.81424 0.0
H1464 H 0.37867 0.31989 0.75812 0.0
H1465 H 0.41913 0.33 0.76112 0.0
H1466 H 0.39355 0.31311 0.79512 0.0
H1467 H 0.45304 0.46924 0.76655 0.0
H1468 H 0.46265 0.44704 0.73867 0.0
H1469 H 0.42507 0.44471 0.73597 0.0
H1470 H 0.46757 0.37448 0.6726 0.0
H1471 H 0.37285 0.3579 0.66384 0.0
H1472 H 0.4728 0.37339 0.75307 0.0
H1473 H 0.48565 0.41432 0.74865 0.0
H1474 H 0.49784 0.39482 0.72003 0.0
H1475 H 0.35566 0.35433 0.74302 0.0
H1476 H 0.3472 0.36716 0.70567 0.0
H1477 H 0.37224 0.39558 0.73574 0.0
C1478 C 0.60274 0.03412 0.67655 0.0
C1479 C 0.61436 0.01579 0.66281 0.0
C1480 C 0.59761 0.03352 0.70965 0.0
C1481 C 0.60417 0.01405 0.72931 0.0
C1482 C 0.61335 0.99355 0.71524 0.0
C1483 C 0.6183 0.99464 0.68206 0.0
C1484 C 0.58755 0.05549 0.72378 0.0
C1485 C 0.62033 0.97225 0.73551 0.0
C1486 C 0.63689 0.0394 0.81347 0.0
C1487 C 0.61133 0.01809 0.83195 0.0
C1488 C 0.63426 0.03947 0.77996 0.0
C1489 C 0.60535 0.01777 0.76471 0.0
C1490 C 0.57877 0.99791 0.78335 0.0
C1491 C 0.58206 0.99837 0.81686 0.0
C1492 C 0.66306 0.06128 0.76079 0.0
C1493 C 0.54753 0.97462 0.76793 0.0
H1494 H 0.59937 0.05038 0.66179 0.0
H1495 H 0.62707 0.98025 0.67157 0.0
H1496 H 0.56922 0.04333 0.74224 0.0
H1497 H 0.60814 0.07574 0.73574 0.0
H1498 H 0.57824 0.06487 0.70508 0.0
H1499 H 0.62404 0.95552 0.72065 0.0
H1500 H 0.64195 0.9868 0.75024 0.0
H1501 H 0.60073 0.95855 0.75231 0.0
H1502 H 0.65951 0.05487 0.82499 0.0
H1503 H 0.56209 0.98195 0.831 0.0
H1504 H 0.65723 0.07465 0.74333 0.0
H1505 H 0.67099 0.0472 0.74686 0.0
H1506 H 0.68297 0.07836 0.77635 0.0
H1507 H 0.54142 0.98579 0.74817 0.0
H1508 H 0.52807 0.96489 0.78559 0.0
H1509 H 0.54923 0.95471 0.75735 0.0
C1510 C 0.06236 0.6251 0.80349 0.0
C1511 C 0.0474 0.63753 0.82229 0.0
C1512 C 0.05405 0.61727 0.771 0.0
C1513 C 0.0305 0.62228 0.75715 0.0
C1514 C 0.01387 0.63273 0.77655 0.0
C1515 C 0.02243 0.64007 0.8089 0.0
C1516 C 0.07183 0.60559 0.75113 0.0
C1517 C 0.98848 0.63829 0.76269 0.0
C1518 C 0.03267 0.64939 0.67247 0.0
C1519 C 1.00583 0.62334 0.65899 0.0
C1520 C 0.04267 0.6484 0.70379 0.0
C1521 C 0.02558 0.62059 0.72189 0.0
C1522 C 1.00051 0.59321 0.70734 0.0
C1523 C 0.99081 0.59492 0.67599 0.0
C1524 C 0.06969 0.6781 0.71843 0.0
C1525 C 0.98223 0.56294 0.72571 0.0
H1526 H 0.0815 0.62277 0.81368 0.0
H1527 H 0.01039 0.64921 0.82329 0.0
H1528 H 0.05562 0.58635 0.73448 0.0
H1529 H 0.08947 0.62518 0.73631 0.0
H1530 H 0.08449 0.59691 0.76644 0.0
H1531 H 0.97632 0.64426 0.78152 0.0
H1532 H 0.99913 0.65802 0.7454 0.0
H1533 H 0.97059 0.61705 0.74933 0.0
H1534 H 0.04484 0.67129 0.65935 0.0
H1535 H 0.97035 0.57446 0.6656 0.0
H1536 H 0.08645 0.67282 0.73113 0.0
H1537 H 0.06036 0.68806 0.73641 0.0
H1538 H 0.08282 0.69638 0.7001 0.0
H1539 H 0.9983 0.55825 0.74057 0.0
H1540 H 0.96824 0.54243 0.70938 0.0
H1541 H 0.9657 0.56507 0.74221 0.0
C1542 C 0.64895 0.59472 0.31673 0.0
C1543 C 0.62181 0.59263 0.33006 0.0
C1544 C 0.6521 0.59397 0.28343 0.0
C1545 C 0.62736 0.59081 0.26308 0.0
C1546 C 0.59864 0.58545 0.27642 0.0
C1547 C 0.59617 0.58637 0.30992 0.0
C1548 C 0.68306 0.59953 0.27011 0.0
C1549 C 0.57157 0.58149 0.25549 0.0
C1550 C 0.65986 0.63687 0.18704 0.0
C1551 C 0.65829 0.61355 0.16618 0.0
C1552 C 0.6479 0.62934 0.21818 0.0
C1553 C 0.63366 0.59766 0.22846 0.0
C1554 C 0.62957 0.57363 0.20668 0.0
C1555 C 0.64213 0.58188 0.17578 0.0
C1556 C 0.65264 0.65567 0.24079 0.0
C1557 C 0.61382 0.53952 0.21662 0.0
H1558 H 0.66867 0.59909 0.33223 0.0
H1559 H 0.57496 0.58439 0.32008 0.0
H1560 H 0.67891 0.58193 0.25102 0.0
H1561 H 0.69578 0.62325 0.2591 0.0
H1562 H 0.69855 0.59829 0.289 0.0
H1563 H 0.54905 0.57075 0.26887 0.0
H1564 H 0.57662 0.60496 0.24694 0.0
H1565 H 0.56854 0.56664 0.23402 0.0
H1566 H 0.67196 0.66134 0.17975 0.0
H1567 H 0.6403 0.56358 0.15962 0.0
H1568 H 0.66988 0.65874 0.25996 0.0
H1569 H 0.63017 0.64973 0.25266 0.0
H1570 H 0.66159 0.6785 0.22825 0.0
H1571 H 0.63014 0.53598 0.23236 0.0
H1572 H 0.60738 0.52331 0.19556 0.0
H1573 H 0.59223 0.53299 0.23058 0.0
C1574 C 0.44923 0.07233 0.1832 0.0
C1575 C 0.42308 0.05137 0.16424 0.0
C1576 C 0.45084 0.06659 0.21595 0.0
C1577 C 0.42574 0.03933 0.22981 0.0
C1578 C 0.40042 0.01708 0.2103 0.0
C1579 C 0.39945 0.02335 0.17774 0.0
C1580 C 0.47841 0.09056 0.23602 0.0
C1581 C 0.37329 0.98752 0.22416 0.0
C1582 C 0.42553 1.0053 0.31072 0.0
C1583 C 0.40635 0.0137 0.32813 0.0
C1584 C 0.43455 0.01583 0.2793 0.0
C1585 C 0.42397 0.035 0.26503 0.0
C1586 C 0.40703 0.04584 0.28341 0.0
C1587 C 0.39851 0.03513 0.31487 0.0
C1588 C 0.45311 1.00426 0.26059 0.0
C1589 C 0.39549 0.06649 0.26899 0.0
H1590 H 0.46767 0.094 0.17292 0.0
H1591 H 0.37938 1.0068 0.16319 0.0
H1592 H 0.4707 0.10415 0.25108 0.0
H1593 H 0.48706 0.07875 0.25248 0.0
H1594 H 0.49827 0.10743 0.22089 0.0
H1595 H 0.35653 0.97169 0.2053 0.0
H1596 H 0.38227 0.9742 0.23779 0.0
H1597 H 0.36013 0.99402 0.24121 0.0
H1598 H 0.43224 0.98921 0.32099 0.0
H1599 H 0.38408 0.04211 0.32827 0.0
H1600 H 0.47141 0.02343 0.24588 0.0
H1601 H 0.43695 0.98502 0.24391 0.0
H1602 H 0.46469 0.99495 0.27665 0.0
H1603 H 0.41479 0.08653 0.25605 0.0
H1604 H 0.38616 0.076 0.28749 0.0
H1605 H 0.37635 0.05252 0.25123 0.0
C1606 C 0.06158 0.43557 0.30265 0.0
C1607 C 0.04709 0.40803 0.32108 0.0
C1608 C 0.05289 0.43507 0.27034 0.0
C1609 C 0.02944 0.40634 0.25628 0.0
C1610 C 0.01334 0.37904 0.27533 0.0
C1611 C 0.02226 0.38027 0.30751 0.0
C1612 C 0.07012 0.46476 0.25086 0.0
C1613 C 0.98809 0.34789 0.26122 0.0
C1614 C 0.98848 0.39376 0.17595 0.0
C1615 C 1.00352 0.3808 0.15811 0.0
C1616 C 0.99855 0.40513 0.20736 0.0
C1617 C 0.02404 0.40324 0.22107 0.0
C1618 C 0.04114 0.39303 0.20212 0.0
C1619 C 0.03074 0.38205 0.17079 0.0
C1620 C 0.98024 0.41658 0.22666 0.0
C1621 C 0.0686 0.39082 0.21585 0.0
H1622 H 0.08061 0.45723 0.31299 0.0
H1623 H 0.0106 0.35895 0.3216 0.0
H1624 H 0.08763 0.46319 0.23539 0.0
H1625 H 0.05352 0.4676 0.23485 0.0
H1626 H 0.08286 0.4861 0.26645 0.0
H1627 H 0.97639 0.32953 0.27982 0.0
H1628 H 0.96982 0.3509 0.2485 0.0
H1629 H 0.99874 0.33922 0.24332 0.0
H1630 H 0.9677 0.39337 0.1662 0.0
H1631 H 0.04292 0.37268 0.15701 0.0
H1632 H 0.99633 0.43742 0.24167 0.0
H1633 H 0.96412 0.39765 0.24308 0.0
H1634 H 0.96581 0.42285 0.21096 0.0
H1635 H 0.08529 0.41293 0.22881 0.0
H1636 H 0.08167 0.38615 0.19695 0.0
H1637 H 0.05973 0.37135 0.23345 0.0
C1638 C 0.28089 0.89794 0.3301 0.0
C1639 C 0.28229 0.91101 0.36051 0.0
C1640 C 0.25188 0.88064 0.31347 0.0
C1641 C 0.22365 0.87549 0.32814 0.0
C1642 C 0.22501 0.88783 0.35934 0.0
C1643 C 0.25433 0.90585 0.37488 0.0
C1644 C 0.25151 0.86853 0.27994 0.0
C1645 C 0.19547 0.88204 0.37635 0.0
C1646 C 0.14952 0.85482 0.27905 0.0
C1647 C 0.13237 0.82189 0.28154 0.0
C1648 C 0.17973 0.87252 0.29325 0.0
C1649 C 0.19256 0.85697 0.31119 0.0
C1650 C 0.17502 0.82374 0.31411 0.0
C1651 C 0.14541 0.80661 0.29887 0.0
C1652 C 0.19799 0.90783 0.28896 0.0
C1653 C 0.18724 0.80628 0.33387 0.0
H1654 H 0.30257 0.90225 0.31887 0.0
H1655 H 0.25542 0.91585 0.39851 0.0
H1656 H 0.23636 0.84248 0.27898 0.0
H1657 H 0.24121 0.87833 0.26286 0.0
H1658 H 0.27551 0.87496 0.27174 0.0
H1659 H 0.20048 0.89199 0.40117 0.0
H1660 H 0.18378 0.89277 0.36268 0.0
H1661 H 0.17849 0.85632 0.37756 0.0
H1662 H 0.13961 0.86665 0.26544 0.0
H1663 H 0.13212 0.78116 0.30103 0.0
H1664 H 0.22159 0.91514 0.27897 0.0
H1665 H 0.20184 0.91988 0.3126 0.0
H1666 H 0.18558 0.91609 0.27272 0.0
H1667 H 0.17056 0.78041 0.33392 0.0
H1668 H 0.19145 0.81516 0.35907 0.0
H1669 H 0.21017 0.81065 0.32441 0.0
C1670 C 0.20088 0.30666 0.28089 0.0
C1671 C 0.23201 0.31777 0.29138 0.0
C1672 C 0.18227 0.31799 0.29492 0.0
C1673 C 0.19479 0.34035 0.3206 0.0
C1674 C 0.22587 0.35073 0.33191 0.0
C1675 C 0.24414 0.33969 0.31693 0.0
C1676 C 0.1495 0.30669 0.2817 0.0
C1677 C 0.23995 0.37372 0.35979 0.0
C1678 C 0.15986 0.39284 0.34115 0.0
C1679 C 0.13932 0.3761 0.36616 0.0
C1680 C 0.1776 0.38122 0.32569 0.0
C1681 C 0.17541 0.35262 0.33603 0.0
C1682 C 0.15526 0.33612 0.36181 0.0
C1683 C 0.13727 0.34781 0.37623 0.0
C1684 C 0.19833 0.3993 0.29794 0.0
C1685 C 0.1528 0.30612 0.37436 0.0
H1686 H 0.19154 0.29011 0.26085 0.0
H1687 H 0.26817 0.34831 0.32522 0.0
H1688 H 0.13186 0.29534 0.30092 0.0
H1689 H 0.14769 0.32713 0.2731 0.0
H1690 H 0.1433 0.28957 0.2615 0.0
H1691 H 0.26398 0.37854 0.36648 0.0
H1692 H 0.24137 0.39637 0.3536 0.0
H1693 H 0.22458 0.36429 0.38108 0.0
H1694 H 0.16136 0.41451 0.33301 0.0
H1695 H 0.12161 0.33479 0.39569 0.0
H1696 H 0.19149 0.38382 0.27628 0.0
H1697 H 0.22329 0.40683 0.30369 0.0
H1698 H 0.19672 0.42054 0.29211 0.0
H1699 H 0.13658 0.29646 0.39504 0.0
H1700 H 0.17646 0.31061 0.38203 0.0
H1701 H 0.14419 0.28792 0.355 0.0
C1702 C 0.73852 0.90618 0.30634 0.0
C1703 C 0.72516 0.9061 0.27635 0.0
C1704 C 0.72639 0.87849 0.32483 0.0
C1705 C 0.701 0.84965 0.31262 0.0
C1706 C 0.68809 0.84937 0.28191 0.0
C1707 C 0.69987 0.87762 0.26452 0.0
C1708 C 0.74032 0.88025 0.35778 0.0
C1709 C 0.6619 0.81917 0.26725 0.0
C1710 C 0.69071 0.77302 0.34766 0.0
C1711 C 0.66418 0.76285 0.36723 0.0
C1712 C 0.70251 0.80075 0.32945 0.0
C1713 C 0.68824 0.81969 0.33163 0.0
C1714 C 0.66159 0.80969 0.35167 0.0
C1715 C 0.64953 0.78113 0.36873 0.0
C1716 C 0.73011 0.80959 0.30761 0.0
C1717 C 0.64615 0.82948 0.35556 0.0
H1718 H 0.75774 0.92818 0.31586 0.0
H1719 H 0.68944 0.87735 0.24136 0.0
H1720 H 0.72149 0.87186 0.37606 0.0
H1721 H 0.75048 0.86452 0.35878 0.0
H1722 H 0.75908 0.90459 0.36437 0.0
H1723 H 0.65546 0.82258 0.24254 0.0
H1724 H 0.66914 0.80105 0.26634 0.0
H1725 H 0.64059 0.80972 0.28239 0.0
H1726 H 0.70203 0.75892 0.34616 0.0
H1727 H 0.6292 0.77357 0.384 0.0
H1728 H 0.75043 0.83265 0.31522 0.0
H1729 H 0.72373 0.81225 0.28263 0.0
H1730 H 0.73772 0.79171 0.3076 0.0
H1731 H 0.66391 0.85361 0.36389 0.0
H1732 H 0.62652 0.8192 0.37299 0.0
H1733 H 0.63675 0.83187 0.33207 0.0
C1734 C 0.81373 0.12506 0.21869 0.0
C1735 C 0.81397 0.09847 0.20621 0.0
C1736 C 0.83175 0.15505 0.20496 0.0
C1737 C 0.84999 0.15868 0.17739 0.0
C1738 C 0.85047 0.13194 0.16471 0.0
C1739 C 0.83281 0.10227 0.17952 0.0
C1740 C 0.83117 0.18287 0.22 0.0
C1741 C 0.8691 0.13454 0.13504 0.0
C1742 C 0.87316 0.23101 0.12481 0.0
C1743 C 0.9051 0.25051 0.13308 0.0
C1744 C 0.855 0.20101 0.1388 0.0
C1745 C 0.86886 0.19055 0.16224 0.0
C1746 C 0.90081 0.21078 0.17146 0.0
C1747 C 0.91857 0.24017 0.15649 0.0
C1748 C 0.82125 0.18008 0.12777 0.0
C1749 C 0.91641 0.20126 0.19697 0.0
H1750 H 0.79938 0.12242 0.23944 0.0
H1751 H 0.83286 0.08182 0.16951 0.0
H1752 H 0.85556 0.20174 0.22621 0.0
H1753 H 0.82142 0.1929 0.20259 0.0
H1754 H 0.81675 0.17637 0.2421 0.0
H1755 H 0.86662 0.11155 0.12778 0.0
H1756 H 0.86105 0.14351 0.11479 0.0
H1757 H 0.89447 0.15175 0.13932 0.0
H1758 H 0.86276 0.23859 0.10634 0.0
H1759 H 0.94326 0.25513 0.16299 0.0
H1760 H 0.80516 0.17385 0.14849 0.0
H1761 H 0.81821 0.1577 0.11766 0.0
H1762 H 0.81397 0.19147 0.10924 0.0
H1763 H 0.94097 0.22025 0.20249 0.0
H1764 H 0.91695 0.17992 0.18897 0.0
H1765 H 0.90258 0.19517 0.21943 0.0
C1766 C 0.80077 0.68783 0.15804 0.0
C1767 C 0.79006 0.66423 0.13417 0.0
C1768 C 0.83081 0.7001 0.17222 0.0
C1769 C 0.851 0.68907 0.16171 0.0
C1770 C 0.84031 0.66521 0.13758 0.0
C1771 C 0.80978 0.65278 0.12438 0.0
C1772 C 0.84088 0.72478 0.19852 0.0
C1773 C 0.86131 0.65319 0.12537 0.0
C1774 C 0.93922 0.74053 0.17961 0.0
C1775 C 0.94312 0.72441 0.2053 0.0
C1776 C 0.90939 0.72918 0.16491 0.0
C1777 C 0.88284 0.70164 0.17685 0.0
C1778 C 0.88662 0.68597 0.20347 0.0
C1779 C 0.91671 0.69731 0.21706 0.0
C1780 C 0.90637 0.7462 0.13621 0.0
C1781 C 0.85888 0.65712 0.21757 0.0
H1782 H 0.78555 0.6967 0.16571 0.0
H1783 H 0.80178 0.63491 0.10558 0.0
H1784 H 0.84695 0.71639 0.2207 0.0
H1785 H 0.86238 0.74676 0.19129 0.0
H1786 H 0.82219 0.73049 0.20424 0.0
H1787 H 0.88367 0.67315 0.11637 0.0
H1788 H 0.86758 0.64231 0.14527 0.0
H1789 H 0.8499 0.63543 0.10571 0.0
H1790 H 0.95963 0.76137 0.17038 0.0
H1791 H 0.91957 0.68497 0.2372 0.0
H1792 H 0.88918 0.75408 0.14121 0.0
H1793 H 0.89716 0.72986 0.1152 0.0
H1794 H 0.92927 0.76709 0.12972 0.0
H1795 H 0.84024 0.66253 0.22437 0.0
H1796 H 0.86563 0.6485 0.23915 0.0
H1797 H 0.84844 0.6378 0.19938 0.0
C1798 C 0.30687 0.20657 0.17285 0.0
C1799 C 0.32279 0.22585 0.19954 0.0
C1800 C 0.3192 0.18994 0.15634 0.0
C1801 C 0.34769 0.19192 0.16726 0.0
C1802 C 0.36361 0.21114 0.19441 0.0
C1803 C 0.35123 0.22811 0.20987 0.0
C1804 C 0.30177 0.17028 0.12714 0.0
C1805 C 0.39345 0.21331 0.2076 0.0
C1806 C 0.36062 0.12335 0.1465 0.0
C1807 C 0.38339 0.13598 0.12232 0.0
C1808 C 0.34919 0.14136 0.16145 0.0
C1809 C 0.36005 0.17271 0.15147 0.0
C1810 C 0.3831 0.18567 0.12701 0.0
C1811 C 0.39484 0.16731 0.11305 0.0
C1812 C 0.3255 0.12676 0.18806 0.0
C1813 C 0.39486 0.21872 0.11514 0.0
H1814 H 0.28507 0.20492 0.16451 0.0
H1815 H 0.36366 0.2428 0.23057 0.0
H1816 H 0.31792 0.1773 0.10638 0.0
H1817 H 0.29339 0.14504 0.13178 0.0
H1818 H 0.28111 0.17273 0.12047 0.0
H1819 H 0.40306 0.22936 0.22883 0.0
H1820 H 0.38869 0.18953 0.21468 0.0
H1821 H 0.41177 0.22189 0.18882 0.0
H1822 H 0.35181 0.09922 0.15395 0.0
H1823 H 0.41215 0.17708 0.09413 0.0
H1824 H 0.30316 0.12589 0.18118 0.0
H1825 H 0.3346 0.14149 0.21021 0.0
H1826 H 0.32017 0.10245 0.19367 0.0
H1827 H 0.37468 0.22095 0.10618 0.0
H1828 H 0.41223 0.22514 0.09553 0.0
H1829 H 0.40609 0.23595 0.1352 0.0
C1830 C 0.81106 0.16445 0.62536 0.0
C1831 C 0.7928 0.13147 0.6262 0.0
C1832 C 0.84137 0.18047 0.63955 0.0
C1833 C 0.85327 0.16314 0.65572 0.0
C1834 C 0.83463 0.12986 0.65706 0.0
C1835 C 0.80483 0.11443 0.64195 0.0
C1836 C 0.86073 0.21594 0.63711 0.0
C1837 C 0.84595 0.11056 0.67488 0.0
C1838 C 0.94189 0.20257 0.67232 0.0
C1839 C 0.9441 0.21504 0.7032 0.0
C1840 C 0.91241 0.1854 0.65652 0.0
C1841 C 0.88462 0.17995 0.67243 0.0
C1842 C 0.88681 0.1913 0.70426 0.0
C1843 C 0.91655 0.20913 0.71902 0.0
C1844 C 0.91112 0.17425 0.62236 0.0
C1845 C 0.8578 0.18525 0.72251 0.0
H1846 H 0.80195 0.17766 0.61296 0.0
H1847 H 0.79068 0.08891 0.64284 0.0
H1848 H 0.86529 0.22683 0.66144 0.0
H1849 H 0.88399 0.22291 0.62644 0.0
H1850 H 0.84881 0.22575 0.62225 0.0
H1851 H 0.82854 0.08487 0.67372 0.0
H1852 H 0.86852 0.11459 0.66471 0.0
H1853 H 0.85057 0.11812 0.70049 0.0
H1854 H 0.9633 0.20758 0.65999 0.0
H1855 H 0.91835 0.21884 0.74295 0.0
H1856 H 0.90191 0.18584 0.60627 0.0
H1857 H 0.89466 0.14845 0.62034 0.0
H1858 H 0.93466 0.17957 0.61371 0.0
H1859 H 0.84667 0.19754 0.71072 0.0
H1860 H 0.86336 0.19354 0.74791 0.0
H1861 H 0.84015 0.15966 0.72222 0.0
C1862 C 0.92191 0.68108 0.65623 0.0
C1863 C 0.90852 0.65646 0.63337 0.0
C1864 C 0.90408 0.69303 0.6705 0.0
C1865 C 0.87211 0.68072 0.66114 0.0
C1866 C 0.85832 0.65559 0.63828 0.0
C1867 C 0.87657 0.6435 0.62497 0.0
C1868 C 0.91959 0.71909 0.69541 0.0
C1869 C 0.82452 0.64207 0.62719 0.0
C1870 C 0.81698 0.69211 0.71675 0.0
C1871 C 0.81691 0.7184 0.70353 0.0
C1872 C 0.83505 0.67996 0.70348 0.0
C1873 C 0.85309 0.69386 0.67568 0.0
C1874 C 0.85326 0.72052 0.66222 0.0
C1875 C 0.8355 0.73273 0.67654 0.0
C1876 C 0.8348 0.65217 0.71929 0.0
C1877 C 0.87172 0.73578 0.6323 0.0
H1878 H 0.94662 0.69123 0.66282 0.0
H1879 H 0.86622 0.62488 0.60691 0.0
H1880 H 0.91985 0.74058 0.68677 0.0
H1881 H 0.90587 0.71194 0.71795 0.0
H1882 H 0.94424 0.72519 0.701 0.0
H1883 H 0.81733 0.62282 0.6091 0.0
H1884 H 0.80847 0.63271 0.64797 0.0
H1885 H 0.82131 0.66098 0.61649 0.0
H1886 H 0.80289 0.68099 0.73777 0.0
H1887 H 0.83537 0.75284 0.66601 0.0
H1888 H 0.85925 0.65825 0.72572 0.0
H1889 H 0.82528 0.63186 0.70227 0.0
H1890 H 0.82034 0.64469 0.74137 0.0
H1891 H 0.89715 0.74444 0.63665 0.0
H1892 H 0.86896 0.75588 0.62441 0.0
H1893 H 0.86378 0.71808 0.61247 0.0
C1894 C 0.35192 0.1068 0.68399 0.0
C1895 C 0.32295 0.09459 0.69981 0.0
C1896 C 0.36498 0.13544 0.66727 0.0
C1897 C 0.3493 0.1531 0.66713 0.0
C1898 C 0.32006 0.14096 0.68324 0.0
C1899 C 0.30698 0.1116 0.69891 0.0
C1900 C 0.39552 0.1467 0.64956 0.0
C1901 C 0.30288 0.15928 0.68444 0.0
C1902 C 0.39817 0.24145 0.64887 0.0
C1903 C 0.38808 0.24253 0.61755 0.0
C1904 C 0.3857 0.21259 0.66536 0.0
C1905 C 0.36331 0.18401 0.6498 0.0
C1906 C 0.35415 0.18502 0.61762 0.0
C1907 C 0.36614 0.21426 0.60218 0.0
C1908 C 0.39556 0.21285 0.69987 0.0
C1909 C 0.3313 0.15524 0.59959 0.0
H1910 H 0.36431 0.09368 0.68438 0.0
H1911 H 0.28475 0.10246 0.71132 0.0
H1912 H 0.39225 0.1505 0.62388 0.0
H1913 H 0.414 0.16967 0.6597 0.0
H1914 H 0.40414 0.12965 0.65098 0.0
H1915 H 0.28104 0.14724 0.69887 0.0
H1916 H 0.31858 0.18308 0.69498 0.0
H1917 H 0.29646 0.16266 0.65976 0.0
H1918 H 0.4146 0.26336 0.66104 0.0
H1919 H 0.3581 0.2151 0.57803 0.0
H1920 H 0.40582 0.19732 0.70259 0.0
H1921 H 0.37455 0.20335 0.71549 0.0
H1922 H 0.41314 0.23693 0.70855 0.0
H1923 H 0.33954 0.1379 0.60054 0.0
H1924 H 0.32842 0.15978 0.574 0.0
H1925 H 0.30785 0.14424 0.6111 0.0
C1926 C 0.20075 0.89355 0.78415 0.0
C1927 C 0.23204 0.91368 0.79426 0.0
C1928 C 0.18231 0.86349 0.79795 0.0
C1929 C 0.19518 0.85364 0.82302 0.0
C1930 C 0.22644 0.87444 0.83394 0.0
C1931 C 0.24452 0.90387 0.81919 0.0
C1932 C 0.14934 0.84193 0.78513 0.0
C1933 C 0.24093 0.86556 0.86118 0.0
C1934 C 0.13826 0.78853 0.87871 0.0
C1935 C 0.13994 0.76217 0.86799 0.0
C1936 C 0.15622 0.81829 0.86453 0.0
C1937 C 0.17594 0.8219 0.83829 0.0
C1938 C 0.1778 0.79538 0.8273 0.0
C1939 C 0.16012 0.76595 0.84255 0.0
C1940 C 0.15413 0.84592 0.87779 0.0
C1941 C 0.19806 0.79797 0.79906 0.0
H1942 H 0.19112 0.90076 0.76457 0.0
H1943 H 0.26868 0.91934 0.82717 0.0
H1944 H 0.14731 0.81962 0.7761 0.0
H1945 H 0.132 0.83565 0.80469 0.0
H1946 H 0.14288 0.85282 0.76534 0.0
H1947 H 0.22593 0.85962 0.88278 0.0
H1948 H 0.24215 0.84428 0.85444 0.0
H1949 H 0.2651 0.88483 0.86763 0.0
H1950 H 0.1229 0.78593 0.8985 0.0
H1951 H 0.16131 0.74567 0.8339 0.0
H1952 H 0.14521 0.85546 0.85891 0.0
H1953 H 0.17796 0.86517 0.88515 0.0
H1954 H 0.13832 0.83941 0.89883 0.0
H1955 H 0.19089 0.80651 0.77775 0.0
H1956 H 0.1963 0.77507 0.79282 0.0
H1957 H 0.22311 0.8155 0.80448 0.0
C1958 C 0.15067 0.29815 0.77821 0.0
C1959 C 0.13309 0.31348 0.77999 0.0
C1960 C 0.18095 0.31166 0.79241 0.0
C1961 C 0.19346 0.34066 0.8096 0.0
C1962 C 0.17555 0.35597 0.81174 0.0
C1963 C 0.14583 0.34242 0.79655 0.0
C1964 C 0.19957 0.29493 0.789 0.0
C1965 C 0.18744 0.38633 0.83066 0.0
C1966 C 0.25522 0.35621 0.87392 0.0
C1967 C 0.2832 0.37858 0.85926 0.0
C1968 C 0.22589 0.34427 0.8583 0.0
C1969 C 0.22453 0.3542 0.82674 0.0
C1970 C 0.25275 0.37698 0.81183 0.0
C1971 C 0.28178 0.3893 0.82851 0.0
C1972 C 0.19638 0.32086 0.87553 0.0
C1973 C 0.25237 0.38764 0.77796 0.0
H1974 H 0.14101 0.27591 0.7652 0.0
H1975 H 0.13224 0.35428 0.79818 0.0
H1976 H 0.22316 0.31121 0.77898 0.0
H1977 H 0.20344 0.28756 0.81296 0.0
H1978 H 0.18742 0.27369 0.77317 0.0
H1979 H 0.19155 0.38259 0.85612 0.0
H1980 H 0.21037 0.40478 0.82109 0.0
H1981 H 0.1706 0.39524 0.82996 0.0
H1982 H 0.2563 0.34802 0.89781 0.0
H1983 H 0.30347 0.40633 0.81704 0.0
H1984 H 0.18492 0.2979 0.86247 0.0
H1985 H 0.17921 0.32933 0.87601 0.0
H1986 H 0.20136 0.31689 0.90064 0.0
H1987 H 0.24254 0.36702 0.76129 0.0
H1988 H 0.27631 0.40541 0.76976 0.0
H1989 H 0.23682 0.39797 0.77631 0.0
C1990 C 0.70173 0.8231 0.76258 0.0
C1991 C 0.72826 0.82177 0.77326 0.0
C1992 C 0.68965 0.83906 0.78049 0.0
C1993 C 0.70361 0.85305 0.81058 0.0
C1994 C 0.73033 0.85155 0.8216 0.0
C1995 C 0.74267 0.83645 0.80255 0.0
C1996 C 0.66195 0.84101 0.76713 0.0
C1997 C 0.74541 0.86523 0.8539 0.0
C1998 C 0.69107 0.91785 0.84632 0.0
C1999 C 0.6657 0.90098 0.86712 0.0
C2000 C 0.70318 0.90253 0.82747 0.0
C2001 C 0.69047 0.86953 0.83024 0.0
C2002 C 0.665 0.85237 0.85149 0.0
C2003 C 0.65253 0.86821 0.86922 0.0
C2004 C 0.72945 0.9217 0.80436 0.0
C2005 C 0.65131 0.81737 0.85596 0.0
H2006 H 0.69049 0.81177 0.73996 0.0
H2007 H 0.76286 0.83505 0.81118 0.0
H2008 H 0.64141 0.82861 0.78318 0.0
H2009 H 0.66791 0.86603 0.76609 0.0
H2010 H 0.65487 0.83041 0.74265 0.0
H2011 H 0.76533 0.86124 0.8595 0.0
H2012 H 0.75432 0.89097 0.85455 0.0
H2013 H 0.72755 0.85446 0.87306 0.0
H2014 H 0.70121 0.94316 0.84441 0.0
H2015 H 0.63312 0.8551 0.88545 0.0
H2016 H 0.72229 0.91178 0.77967 0.0
H2017 H 0.75077 0.92047 0.81097 0.0
H2018 H 0.73584 0.94689 0.80409 0.0
H2019 H 0.64129 0.80466 0.83287 0.0
H2020 H 0.63247 0.80766 0.87428 0.0
H2021 H 0.67023 0.81249 0.86341 0.0
C2022 C 0.48304 0.45988 0.55362 0.0
C2023 C 0.48435 0.43328 0.54305 0.0
C2024 C 0.49999 0.48916 0.53815 0.0
C2025 C 0.51815 0.49198 0.51071 0.0
C2026 C 0.51916 0.46504 0.49959 0.0
C2027 C 0.50265 0.4362 0.51611 0.0
C2028 C 0.49888 0.51728 0.55157 0.0
C2029 C 0.53759 0.46666 0.47007 0.0
C2030 C 0.54202 0.5627 0.45522 0.0
C2031 C 0.57397 0.58225 0.46347 0.0
C2032 C 0.52359 0.5332 0.47017 0.0
C2033 C 0.53714 0.52338 0.4946 0.0
C2034 C 0.56911 0.54371 0.50372 0.0
C2035 C 0.58714 0.57251 0.48778 0.0
C2036 C 0.48987 0.51208 0.45913 0.0
C2037 C 0.58444 0.53496 0.53022 0.0
H2038 H 0.46908 0.45796 0.57447 0.0
H2039 H 0.50354 0.41574 0.50753 0.0
H2040 H 0.52308 0.53627 0.55821 0.0
H2041 H 0.48972 0.52692 0.53306 0.0
H2042 H 0.48377 0.51128 0.57313 0.0
H2043 H 0.53455 0.44331 0.46336 0.0
H2044 H 0.52996 0.47562 0.44947 0.0
H2045 H 0.56307 0.48345 0.47434 0.0
H2046 H 0.53182 0.56987 0.43616 0.0
H2047 H 0.61178 0.58754 0.49437 0.0
H2048 H 0.47367 0.50642 0.47967 0.0
H2049 H 0.48683 0.48944 0.44983 0.0
H2050 H 0.48276 0.52304 0.43997 0.0
H2051 H 0.57044 0.52964 0.5525 0.0
H2052 H 0.60898 0.55406 0.5356 0.0
H2053 H 0.58497 0.51335 0.52331 0.0
C2054 C 0.59332 0.06199 0.53886 0.0
C2055 C 0.61388 0.05156 0.52925 0.0
C2056 C 0.56484 0.05231 0.52195 0.0
C2057 C 0.55743 0.03259 0.49433 0.0
C2058 C 0.57895 0.02322 0.48386 0.0
C2059 C 0.60664 0.03237 0.50179 0.0
C2060 C 0.54217 0.06216 0.53433 0.0
C2061 C 0.57254 1.00312 0.454 0.0
C2062 C 0.47221 0.98045 0.46605 0.0
C2063 C 0.46967 0.99891 0.44195 0.0
C2064 C 0.50042 0.99147 0.48383 0.0
C2065 C 0.52695 0.0212 0.47662 0.0
C2066 C 0.52459 0.03963 0.45186 0.0
C2067 C 0.49584 0.02847 0.43519 0.0
C2068 C 0.50175 0.97145 0.51055 0.0
C2069 C 0.55254 0.07096 0.44272 0.0
H2070 H 0.59881 0.07647 0.5604 0.0
H2071 H 0.62268 0.02439 0.49441 0.0
H2072 H 0.53682 0.07463 0.51534 0.0
H2073 H 0.51955 0.04092 0.5407 0.0
H2074 H 0.55162 0.07785 0.55584 0.0
H2075 H 0.59273 0.99982 0.44788 0.0
H2076 H 0.5514 0.97957 0.45752 0.0
H2077 H 0.56745 0.01408 0.43327 0.0
H2078 H 0.45188 0.95777 0.47159 0.0
H2079 H 0.49396 0.04276 0.41646 0.0
H2080 H 0.50915 0.98524 0.53339 0.0
H2081 H 0.5196 0.96456 0.50509 0.0
H2082 H 0.47864 0.94968 0.51419 0.0
H2083 H 0.54695 0.08215 0.42253 0.0
H2084 H 0.57249 0.06766 0.43563 0.0
H2085 H 0.56067 0.08738 0.46366 0.0
C2086 C 0.02843 0.48353 0.42986 0.0
C2087 C 0.05381 0.48064 0.44146 0.0
C2088 C 0.01692 0.50027 0.44731 0.0
C2089 C 0.03028 0.51352 0.4778 0.0
C2090 C 0.05578 0.51038 0.48978 0.0
C2091 C 0.06759 0.49448 0.47122 0.0
C2092 C 0.99055 0.50393 0.43297 0.0
C2093 C 0.07016 0.52326 0.52251 0.0
C2094 C 0.02073 0.58055 0.51244 0.0
C2095 C 0.99455 0.5645 0.53247 0.0
C2096 C 0.03219 0.56425 0.4942 0.0
C2097 C 0.01789 0.53106 0.49682 0.0
C2098 C 0.99156 0.51472 0.51727 0.0
C2099 C 0.97984 0.53156 0.53439 0.0
C2100 C 0.05949 0.58262 0.47191 0.0
C2101 C 0.97613 0.4795 0.52154 0.0
H2102 H 0.01771 0.47292 0.40684 0.0
H2103 H 0.08691 0.49192 0.48051 0.0
H2104 H 0.96949 0.49239 0.44848 0.0
H2105 H 0.99785 0.52931 0.43179 0.0
H2106 H 0.98369 0.49349 0.40842 0.0
H2107 H 0.08899 0.51787 0.52891 0.0
H2108 H 0.08036 0.54921 0.52327 0.0
H2109 H 0.05158 0.51313 0.54106 0.0
H2110 H 0.03207 0.606 0.51067 0.0
H2111 H 0.9598 0.51908 0.55006 0.0
H2112 H 0.05275 0.57302 0.44707 0.0
H2113 H 0.07988 0.58008 0.47932 0.0
H2114 H 0.06715 0.60814 0.47166 0.0
H2115 H 0.96648 0.46718 0.4982 0.0
H2116 H 0.95669 0.47044 0.53918 0.0
H2117 H 0.99396 0.47337 0.5298 0.0
C2118 C 0.48661 0.50912 0.94118 0.0
C2119 C 0.46925 0.47614 0.94304 0.0
C2120 C 0.51501 0.52666 0.95874 0.0
C2121 C 0.52562 0.51088 0.97942 0.0
C2122 C 0.50783 0.47761 0.98166 0.0
C2123 C 0.4802 0.46067 0.96307 0.0
C2124 C 0.53374 0.56203 0.95506 0.0
C2125 C 0.51762 0.45988 0.00416 0.0
C2126 C 0.6112 0.55004 0.00853 0.0
C2127 C 0.60954 0.56232 0.03848 0.0
C2128 C 0.58422 0.53391 0.98866 0.0
C2129 C 0.55477 0.5291 -0.00049 0.0
C2130 C 0.55297 0.54095 0.03006 0.0
C2131 C 0.58046 0.55786 0.04891 0.0
C2132 C 0.58729 0.52238 0.95591 0.0
C2133 C 0.52193 0.53546 0.04303 0.0
H2134 H 0.4783 0.52112 0.92556 0.0
H2135 H 0.46676 0.43519 0.96476 0.0
H2136 H 0.53506 0.57378 0.97836 0.0
H2137 H 0.55829 0.56945 0.94807 0.0
H2138 H 0.5232 0.57052 0.93673 0.0
H2139 H 0.50075 0.43405 0.00357 0.0
H2140 H 0.54131 0.46406 -0.0023 0.0
H2141 H 0.51931 0.46868 0.02916 0.0
H2142 H 0.63376 0.55384 0.00026 0.0
H2143 H 0.57912 0.56724 0.07213 0.0
H2144 H 0.57843 0.53207 0.93712 0.0
H2145 H 0.57261 0.4963 0.95444 0.0
H2146 H 0.61208 0.52928 0.95045 0.0
H2147 H 0.51186 0.54621 0.02692 0.0
H2148 H 0.52443 0.54553 0.06759 0.0
H2149 H 0.50471 0.50977 0.04373 0.0
C2150 C 0.58783 0.01219 0.9907 0.0
C2151 C 0.57458 0.98836 0.96702 0.0
C2152 C 0.56967 0.02302 0.00637 0.0
C2153 C 0.53754 0.01049 -0.00245 0.0
C2154 C 0.52391 0.98615 0.97382 0.0
C2155 C 0.54248 0.97507 0.95915 0.0
C2156 C 0.58506 0.0482 0.03218 0.0
C2157 C 0.49 0.97256 0.96312 0.0
C2158 C 0.48317 0.02056 0.05575 0.0
C2159 C 0.4837 0.04769 0.04417 0.0
C2160 C 0.50058 1.00834 0.04095 0.0
C2161 C 0.5184 0.02299 0.0132 0.0
C2162 C 0.51871 0.05019 0.00112 0.0
C2163 C 0.50175 0.06247 0.01698 0.0
C2164 C 0.50023 0.97996 0.05533 0.0
C2165 C 0.53678 0.06619 0.97123 0.0
H2166 H 0.61264 0.02255 -0.00312 0.0
H2167 H 0.53227 0.95703 0.9405 0.0
H2168 H 0.5713 0.04021 0.05465 0.0
H2169 H 0.60973 0.0542 0.03751 0.0
H2170 H 0.58527 0.06994 0.02455 0.0
H2171 H 0.48285 0.95372 0.94455 0.0
H2172 H 0.4741 0.96265 0.98396 0.0
H2173 H 0.48652 0.99157 0.95315 0.0
H2174 H 0.4694 0.00903 0.07681 0.0
H2175 H 0.50202 0.08321 0.00766 0.0
H2176 H 0.52465 0.98591 0.06176 0.0
H2177 H 0.49102 0.96036 0.03746 0.0
H2178 H 0.48551 0.97151 0.0772 0.0
H2179 H 0.56234 0.07538 0.97533 0.0
H2180 H 0.5334 0.08608 0.96394 0.0
H2181 H 0.52911 0.04887 0.95106 0.0
C2182 C 0.02751 0.54349 0.93068 0.0
C2183 C 0.05307 0.5718 0.94244 0.0
C2184 C 0.01571 0.51518 0.94787 0.0
C2185 C 0.02896 0.51522 0.9783 0.0
C2186 C 0.05464 0.54388 0.99046 0.0
C2187 C 0.06674 0.57167 0.97215 0.0
C2188 C 0.98915 0.48515 0.93332 0.0
C2189 C 0.06893 0.54534 0.02314 0.0
C2190 C 0.97791 0.44663 0.03433 0.0
C2191 C 0.99229 0.42815 0.03209 0.0
C2192 C 0.98993 0.47529 0.01751 0.0
C2193 C 0.01626 0.48519 -0.00296 0.0
C2194 C 0.03023 0.46604 0.99411 0.0
C2195 C 0.01846 0.43818 0.01203 0.0
C2196 C 0.97482 0.49531 0.02213 0.0
C2197 C 0.0575 0.47484 0.9718 0.0
H2198 H 0.01686 0.54342 0.9077 0.0
H2199 H 0.08619 0.59355 0.9816 0.0
H2200 H 0.99619 0.46691 0.93188 0.0
H2201 H 0.96809 0.47575 0.94882 0.0
H2202 H 0.98239 0.48877 0.90884 0.0
H2203 H 0.08793 0.56958 0.02971 0.0
H2204 H 0.05036 0.53701 0.04168 0.0
H2205 H 0.07889 0.52942 0.02366 0.0
H2206 H 0.95788 0.43917 0.05001 0.0
H2207 H 0.02958 0.42391 0.01001 0.0
H2208 H 0.96529 0.49806 -0.00112 0.0
H2209 H 0.99282 0.51929 0.03061 0.0
H2210 H 0.95535 0.485 0.03974 0.0
H2211 H 0.05087 0.47775 0.94702 0.0
H2212 H 0.06491 0.45681 0.97127 0.0
H2213 H 0.07803 0.49776 0.9794 0.0
loop_
_geom_bond_atom_site_label_1
_geom_bond_atom_site_label_2
_geom_bond_distance
_geom_bond_site_symmetry_2
_ccdc_geom_bond_type
Co0 O2 2.143 1_655 S
Co0 O8 2.074 1_655 S
Co0 O11 2.093 . S
Co0 O24 2.097 . S
Co0 N41 2.151 1_655 S
Co0 N49 2.214 . S
Co1 O2 2.160 . S
Co1 O7 2.058 . S
Co1 O17 2.057 . S
Co1 O32 2.037 1_455 S
Co1 N36 2.145 . S
Co1 N57 2.257 . S
O2 Co0 2.143 1_455 S
O2 Co1 2.160 . S
C3 O4 1.276 . S
C3 O11 1.224 . S
O4 C3 1.276 . S
C5 O6 1.245 . S
C5 O17 1.232 . S
O6 C5 1.245 . S
O7 Co1 2.058 . S
O7 C33 1.269 . S
O8 Co0 2.074 1_455 S
O8 C33 1.257 . S
H9 C34 0.930 . S
H10 C40 0.930 . S
O11 Co0 2.093 . S
O11 C3 1.224 . S
H12 C44 0.929 . S
H13 C46 0.930 . S
H14 C47 0.930 . S
H15 C45 0.929 . S
H16 C48 0.928 . S
O17 Co1 2.057 . S
O17 C5 1.232 . S
H18 C37 0.929 . S
H19 C38 0.929 . S
H20 C50 0.931 . S
H21 C42 0.929 . S
H22 C51 0.930 . S
H23 C43 0.931 . S
O24 Co0 2.097 . S
O24 C52 1.214 . S
H25 C53 0.929 . S
H26 C54 0.929 . S
H27 C55 0.930 . S
H28 C56 0.929 . S
H29 C58 0.930 . S
H30 C35 0.930 . S
H31 C39 0.930 . S
O32 Co1 2.037 1_655 S
O32 C52 1.234 . S
C33 O7 1.269 . S
C33 O8 1.257 . S
C34 H9 0.930 . S
C34 C37 1.388 . S
C34 C39 1.418 . S
C35 H30 0.930 . S
C35 C38 1.404 . S
C35 C39 1.353 . S
N36 Co1 2.145 . S
N36 C37 1.397 . S
N36 C38 1.334 . S
C37 H18 0.929 . S
C37 C34 1.388 . S
C37 N36 1.397 . S
C38 H19 0.929 . S
C38 C35 1.404 . S
C38 N36 1.334 . S
C39 H31 0.930 . S
C39 C34 1.418 . S
C39 C35 1.353 . S
C40 H10 0.930 . S
C40 N41 1.330 . S
C40 C42 1.446 . S
N41 Co0 2.151 1_455 S
N41 C40 1.330 . S
N41 C45 1.418 . S
C42 H21 0.929 . S
C42 C40 1.446 . S
C42 C43 1.332 . S
C43 H23 0.931 . S
C43 C42 1.332 . S
C43 C44 1.267 . S
C44 H12 0.929 . S
C44 C43 1.267 . S
C44 C45 1.251 . S
C45 H15 0.929 . S
C45 N41 1.418 . S
C45 C44 1.251 . S
C46 H13 0.930 . S
C46 C48 1.406 . S
C46 C51 1.261 . S
C47 H14 0.930 . S
C47 N49 1.325 . S
C47 C50 1.357 . S
C48 H16 0.928 . S
C48 C46 1.406 . S
C48 N49 1.261 . S
N49 Co0 2.214 . S
N49 C47 1.325 . S
N49 C48 1.261 . S
C50 H20 0.931 . S
C50 C47 1.357 . S
C50 C51 1.312 . S
C51 H22 0.930 . S
C51 C46 1.261 . S
C51 C50 1.312 . S
C52 O24 1.214 . S
C52 O32 1.234 . S
C53 H25 0.929 . S
C53 C56 1.391 1_455 S
C53 C58 1.391 . S
C54 H26 0.929 . S
C54 C55 1.390 . S
C54 N57 1.391 1_655 S
C55 H27 0.930 . S
C55 C54 1.390 . S
C55 C56 1.392 . S
C56 H28 0.929 . S
C56 C53 1.391 1_655 S
C56 C55 1.392 . S
N57 Co1 2.257 . S
N57 C54 1.391 1_455 S
N57 C58 1.388 . S
C58 H29 0.930 . S
C58 C53 1.391 . S
C58 N57 1.388 . S
Co59 O61 2.143 . S
Co59 O67 2.074 . S
Co59 O70 2.093 . S
Co59 O83 2.097 . S
Co59 N100 2.151 . S
Co59 N108 2.214 . S
Co60 O61 2.160 . S
Co60 O66 2.058 . S
Co60 O76 2.057 . S
Co60 O91 2.037 . S
Co60 N95 2.145 . S
Co60 N116 2.257 . S
O61 Co59 2.143 . S
O61 Co60 2.160 . S
C62 O63 1.278 . S
C62 O70 1.224 . S
O63 C62 1.278 . S
C64 O65 1.245 . S
C64 O76 1.232 . S
O65 C64 1.245 . S
O66 Co60 2.058 . S
O66 C92 1.269 . S
O67 Co59 2.074 . S
O67 C92 1.257 . S
H68 C93 0.930 . S
H69 C99 0.930 . S
O70 Co59 2.093 . S
O70 C62 1.224 . S
H71 C103 0.929 . S
H72 C105 0.930 . S
H73 C106 0.930 . S
H74 C104 0.929 . S
H75 C107 0.928 . S
O76 Co60 2.057 . S
O76 C64 1.232 . S
H77 C96 0.929 . S
H78 C97 0.929 . S
H79 C109 0.931 . S
H80 C101 0.929 . S
H81 C110 0.930 . S
H82 C102 0.931 . S
O83 Co59 2.097 . S
O83 C111 1.214 . S
H84 C112 0.929 . S
H85 C113 0.929 . S
H86 C114 0.930 . S
H87 C115 0.929 . S
H88 C117 0.930 . S
H89 C94 0.930 . S
H90 C98 0.930 . S
O91 Co60 2.037 . S
O91 C111 1.234 . S
C92 O66 1.269 . S
C92 O67 1.257 . S
C93 H68 0.930 . S
C93 C96 1.388 . S
C93 C98 1.418 . S
C94 H89 0.930 . S
C94 C97 1.404 . S
C94 C98 1.353 . S
N95 Co60 2.145 . S
N95 C96 1.397 . S
N95 C97 1.334 . S
C96 H77 0.929 . S
C96 C93 1.388 . S
C96 N95 1.397 . S
C97 H78 0.929 . S
C97 C94 1.404 . S
C97 N95 1.334 . S
C98 H90 0.930 . S
C98 C93 1.418 . S
C98 C94 1.353 . S
C99 H69 0.930 . S
C99 N100 1.330 . S
C99 C101 1.446 . S
N100 Co59 2.151 . S
N100 C99 1.330 . S
N100 C104 1.418 . S
C101 H80 0.929 . S
C101 C99 1.446 . S
C101 C102 1.332 . S
C102 H82 0.931 . S
C102 C101 1.332 . S
C102 C103 1.267 . S
C103 H71 0.929 . S
C103 C102 1.267 . S
C103 C104 1.251 . S
C104 H74 0.929 . S
C104 N100 1.418 . S
C104 C103 1.251 . S
C105 H72 0.930 . S
C105 C107 1.406 . S
C105 C110 1.261 . S
C106 H73 0.930 . S
C106 N108 1.325 . S
C106 C109 1.357 . S
C107 H75 0.928 . S
C107 C105 1.406 . S
C107 N108 1.261 . S
N108 Co59 2.214 . S
N108 C106 1.325 . S
N108 C107 1.261 . S
C109 H79 0.931 . S
C109 C106 1.357 . S
C109 C110 1.312 . S
C110 H81 0.930 . S
C110 C105 1.261 . S
C110 C109 1.312 . S
C111 O83 1.214 . S
C111 O91 1.234 . S
C112 H84 0.929 . S
C112 C115 1.391 . S
C112 C117 1.391 . S
C113 H85 0.929 . S
C113 C114 1.390 . S
C113 N116 1.391 . S
C114 H86 0.930 . S
C114 C113 1.390 . S
C114 C115 1.392 . S
C115 H87 0.929 . S
C115 C112 1.391 . S
C115 C114 1.392 . S
N116 Co60 2.257 . S
N116 C113 1.391 . S
N116 C117 1.388 . S
C117 H88 0.930 . S
C117 C112 1.391 . S
C117 N116 1.388 . S
Co118 O120 2.143 . S
Co118 O126 2.074 . S
Co118 O129 2.093 . S
Co118 O142 2.097 . S
Co118 N159 2.151 . S
Co118 N167 2.214 . S
Co119 O120 2.160 . S
Co119 O125 2.058 1_545 S
Co119 O135 2.057 1_545 S
Co119 O150 2.037 . S
Co119 N154 2.139 1_545 S
Co119 N175 2.257 . S
O120 Co118 2.143 . S
O120 Co119 2.160 . S
C121 O122 1.278 . S
C121 O129 1.224 . S
O122 C121 1.278 . S
C123 O124 1.245 . S
C123 O135 1.232 . S
O124 C123 1.245 . S
O125 Co119 2.058 1_565 S
O125 C151 1.269 1_565 S
O126 Co118 2.074 . S
O126 C151 1.257 . S
H127 C152 0.930 . S
H128 C158 0.933 1_545 S
O129 Co118 2.093 . S
O129 C121 1.224 . S
H130 C162 0.929 . S
H131 C164 0.930 . S
H132 C165 0.930 . S
H133 C163 0.929 . S
H134 C166 0.928 . S
O135 Co119 2.057 1_565 S
O135 C123 1.232 . S
H136 C155 0.929 . S
H137 C156 0.929 . S
H138 C168 0.931 . S
H139 C160 0.929 . S
H140 C169 0.930 . S
H141 C161 0.931 . S
O142 Co118 2.097 . S
O142 C170 1.214 . S
H143 C171 0.929 . S
H144 C172 0.929 . S
H145 C173 0.930 . S
H146 C174 0.929 . S
H147 C176 0.930 . S
H148 C153 0.930 . S
H149 C157 0.930 . S
O150 Co119 2.037 . S
O150 C170 1.234 . S
C151 O125 1.269 1_545 S
C151 O126 1.257 . S
C152 H127 0.930 . S
C152 C155 1.388 . S
C152 C157 1.418 1_545 S
C153 H148 0.930 . S
C153 C156 1.404 . S
C153 C157 1.353 . S
N154 Co119 2.139 1_565 S
N154 C155 1.392 1_565 S
N154 C156 1.345 . S
C155 H136 0.929 . S
C155 C152 1.388 . S
C155 N154 1.392 1_545 S
C156 H137 0.929 . S
C156 C153 1.404 . S
C156 N154 1.345 . S
C157 H149 0.930 . S
C157 C152 1.418 1_565 S
C157 C153 1.353 . S
C158 H128 0.933 1_565 S
C158 N159 1.324 1_565 S
C158 C160 1.449 . S
N159 Co118 2.151 . S
N159 C158 1.324 1_545 S
N159 C163 1.418 . S
C160 H139 0.929 . S
C160 C158 1.449 . S
C160 C161 1.332 . S
C161 H141 0.931 . S
C161 C160 1.332 . S
C161 C162 1.267 . S
C162 H130 0.929 . S
C162 C161 1.267 . S
C162 C163 1.251 1_565 S
C163 H133 0.929 . S
C163 N159 1.418 . S
C163 C162 1.251 1_545 S
C164 H131 0.930 . S
C164 C166 1.406 . S
C164 C169 1.261 . S
C165 H132 0.930 . S
C165 N167 1.325 . S
C165 C168 1.357 . S
C166 H134 0.928 . S
C166 C164 1.406 . S
C166 N167 1.261 . S
N167 Co118 2.214 . S
N167 C165 1.325 . S
N167 C166 1.261 . S
C168 H138 0.931 . S
C168 C165 1.357 . S
C168 C169 1.312 . S
C169 H140 0.930 . S
C169 C164 1.261 . S
C169 C168 1.312 . S
C170 O142 1.214 . S
C170 O150 1.234 . S
C171 H143 0.929 . S
C171 C174 1.391 . S
C171 C176 1.391 . S
C172 H144 0.929 . S
C172 C173 1.390 . S
C172 N175 1.391 . S
C173 H145 0.930 . S
C173 C172 1.390 . S
C173 C174 1.392 . S
C174 H146 0.929 . S
C174 C171 1.391 . S
C174 C173 1.392 . S
N175 Co119 2.257 . S
N175 C172 1.391 . S
N175 C176 1.388 . S
C176 H147 0.930 . S
C176 C171 1.391 . S
C176 N175 1.388 . S
Co177 O179 2.143 . S
Co177 O185 2.074 . S
Co177 O188 2.093 1_455 S
Co177 O201 2.097 1_455 S
Co177 N218 2.151 . S
Co177 N226 2.214 1_455 S
Co178 O179 2.160 . S
Co178 O184 2.058 . S
Co178 O194 2.057 . S
Co178 O209 2.037 1_455 S
Co178 N213 2.145 . S
Co178 N234 2.257 . S
O179 Co177 2.143 . S
O179 Co178 2.160 . S
C180 O181 1.278 1_655 S
C180 O188 1.224 . S
O181 C180 1.278 1_455 S
C182 O183 1.245 . S
C182 O194 1.232 . S
O183 C182 1.245 . S
O184 Co178 2.058 . S
O184 C210 1.269 . S
O185 Co177 2.074 . S
O185 C210 1.257 . S
H186 C211 0.930 . S
H187 C217 0.930 . S
O188 Co177 2.093 1_655 S
O188 C180 1.224 . S
H189 C221 0.929 . S
H190 C223 0.930 . S
H191 C224 0.930 . S
H192 C222 0.929 . S
H193 C225 0.928 . S
O194 Co178 2.057 . S
O194 C182 1.232 . S
H195 C214 0.929 . S
H196 C215 0.929 . S
H197 C227 0.931 . S
H198 C219 0.929 . S
H199 C228 0.930 . S
H200 C220 0.931 . S
O201 Co177 2.097 1_655 S
O201 C229 1.214 . S
H202 C230 0.929 . S
H203 C231 0.929 . S
H204 C232 0.930 . S
H205 C233 0.929 . S
H206 C235 0.930 . S
H207 C212 0.930 . S
H208 C216 0.930 . S
O209 Co178 2.037 1_655 S
O209 C229 1.234 . S
C210 O184 1.269 . S
C210 O185 1.257 . S
C211 H186 0.930 . S
C211 C214 1.388 . S
C211 C216 1.418 . S
C212 H207 0.930 . S
C212 C215 1.404 . S
C212 C216 1.353 . S
N213 Co178 2.145 . S
N213 C214 1.397 . S
N213 C215 1.334 . S
C214 H195 0.929 . S
C214 C211 1.388 . S
C214 N213 1.397 . S
C215 H196 0.929 . S
C215 C212 1.404 . S
C215 N213 1.334 . S
C216 H208 0.930 . S
C216 C211 1.418 . S
C216 C212 1.353 . S
C217 H187 0.930 . S
C217 N218 1.330 . S
C217 C219 1.446 . S
N218 Co177 2.151 . S
N218 C217 1.330 . S
N218 C222 1.418 . S
C219 H198 0.929 . S
C219 C217 1.446 . S
C219 C220 1.332 . S
C220 H200 0.931 . S
C220 C219 1.332 . S
C220 C221 1.267 . S
C221 H189 0.929 . S
C221 C220 1.267 . S
C221 C222 1.251 . S
C222 H192 0.929 . S
C222 N218 1.418 . S
C222 C221 1.251 . S
C223 H190 0.930 . S
C223 C225 1.406 . S
C223 C228 1.261 . S
C224 H191 0.930 . S
C224 N226 1.325 . S
C224 C227 1.357 . S
C225 H193 0.928 . S
C225 C223 1.406 . S
C225 N226 1.261 . S
N226 Co177 2.214 1_655 S
N226 C224 1.325 . S
N226 C225 1.261 . S
C227 H197 0.931 . S
C227 C224 1.357 . S
C227 C228 1.312 . S
C228 H199 0.930 . S
C228 C223 1.261 . S
C228 C227 1.312 . S
C229 O201 1.214 . S
C229 O209 1.234 . S
C230 H202 0.929 . S
C230 C233 1.391 1_455 S
C230 C235 1.391 . S
C231 H203 0.929 . S
C231 C232 1.390 . S
C231 N234 1.391 1_655 S
C232 H204 0.930 . S
C232 C231 1.390 . S
C232 C233 1.392 . S
C233 H205 0.929 . S
C233 C230 1.391 1_655 S
C233 C232 1.392 . S
N234 Co178 2.257 . S
N234 C231 1.391 1_455 S
N234 C235 1.388 . S
C235 H206 0.930 . S
C235 C230 1.391 . S
C235 N234 1.388 . S
Co236 O238 2.143 . S
Co236 O244 2.074 . S
Co236 O247 2.093 . S
Co236 O260 2.097 . S
Co236 N277 2.151 . S
Co236 N285 2.214 . S
Co237 O238 2.160 . S
Co237 O243 2.058 . S
Co237 O253 2.057 . S
Co237 O268 2.037 . S
Co237 N272 2.145 . S
Co237 N293 2.257 . S
O238 Co236 2.143 . S
O238 Co237 2.160 . S
C239 O240 1.278 . S
C239 O247 1.224 . S
O240 C239 1.278 . S
C241 O242 1.245 . S
C241 O253 1.232 . S
O242 C241 1.245 . S
O243 Co237 2.058 . S
O243 C269 1.269 . S
O244 Co236 2.074 . S
O244 C269 1.257 . S
H245 C270 0.930 . S
H246 C276 0.930 . S
O247 Co236 2.093 . S
O247 C239 1.224 . S
H248 C280 0.929 . S
H249 C282 0.930 . S
H250 C283 0.930 . S
H251 C281 0.929 . S
H252 C284 0.928 . S
O253 Co237 2.057 . S
O253 C241 1.232 . S
H254 C273 0.929 . S
H255 C274 0.929 . S
H256 C286 0.931 . S
H257 C278 0.929 . S
H258 C287 0.930 . S
H259 C279 0.931 . S
O260 Co236 2.097 . S
O260 C288 1.214 . S
H261 C289 0.929 . S
H262 C290 0.929 . S
H263 C291 0.930 . S
H264 C292 0.929 . S
H265 C294 0.930 . S
H266 C271 0.930 . S
H267 C275 0.930 . S
O268 Co237 2.037 . S
O268 C288 1.234 . S
C269 O243 1.269 . S
C269 O244 1.257 . S
C270 H245 0.930 . S
C270 C273 1.388 . S
C270 C275 1.418 . S
C271 H266 0.930 . S
C271 C274 1.404 . S
C271 C275 1.353 . S
N272 Co237 2.145 . S
N272 C273 1.397 . S
N272 C274 1.334 . S
C273 H254 0.929 . S
C273 C270 1.388 . S
C273 N272 1.397 . S
C274 H255 0.929 . S
C274 C271 1.404 . S
C274 N272 1.334 . S
C275 H267 0.930 . S
C275 C270 1.418 . S
C275 C271 1.353 . S
C276 H246 0.930 . S
C276 N277 1.330 . S
C276 C278 1.446 . S
N277 Co236 2.151 . S
N277 C276 1.330 . S
N277 C281 1.418 . S
C278 H257 0.929 . S
C278 C276 1.446 . S
C278 C279 1.332 . S
C279 H259 0.931 . S
C279 C278 1.332 . S
C279 C280 1.267 . S
C280 H248 0.929 . S
C280 C279 1.267 . S
C280 C281 1.251 . S
C281 H251 0.929 . S
C281 N277 1.418 . S
C281 C280 1.251 . S
C282 H249 0.930 . S
C282 C284 1.406 . S
C282 C287 1.261 . S
C283 H250 0.930 . S
C283 N285 1.325 . S
C283 C286 1.357 . S
C284 H252 0.928 . S
C284 C282 1.406 . S
C284 N285 1.261 . S
N285 Co236 2.214 . S
N285 C283 1.325 . S
N285 C284 1.261 . S
C286 H256 0.931 . S
C286 C283 1.357 . S
C286 C287 1.312 . S
C287 H258 0.930 . S
C287 C282 1.261 . S
C287 C286 1.312 . S
C288 O260 1.214 . S
C288 O268 1.234 . S
C289 H261 0.929 . S
C289 C292 1.391 . S
C289 C294 1.391 . S
C290 H262 0.929 . S
C290 C291 1.390 . S
C290 N293 1.391 . S
C291 H263 0.930 . S
C291 C290 1.390 . S
C291 C292 1.392 . S
C292 H264 0.929 . S
C292 C289 1.391 . S
C292 C291 1.392 . S
N293 Co237 2.257 . S
N293 C290 1.391 . S
N293 C294 1.388 . S
C294 H265 0.930 . S
C294 C289 1.391 . S
C294 N293 1.388 . S
Co295 O297 2.143 1_565 S
Co295 O303 2.074 . S
Co295 O306 2.093 . S
Co295 O319 2.097 . S
Co295 N336 2.151 1_565 S
Co295 N344 2.214 . S
Co296 O297 2.160 . S
Co296 O302 2.058 . S
Co296 O312 2.057 . S
Co296 O327 2.037 1_545 S
Co296 N331 2.145 . S
Co296 N352 2.258 1_545 S
O297 Co295 2.143 1_545 S
O297 Co296 2.160 . S
C298 O299 1.278 . S
C298 O306 1.224 . S
O299 C298 1.278 . S
C300 O301 1.245 . S
C300 O312 1.232 . S
O301 C300 1.245 . S
O302 Co296 2.058 . S
O302 C328 1.269 . S
O303 Co295 2.074 . S
O303 C328 1.257 1_565 S
H304 C329 0.918 1_565 S
H305 C335 0.930 . S
O306 Co295 2.093 . S
O306 C298 1.224 . S
H307 C339 0.929 . S
H308 C341 0.930 . S
H309 C342 0.930 . S
H310 C340 0.929 . S
H311 C343 0.928 . S
O312 Co296 2.057 . S
O312 C300 1.232 . S
H313 C332 0.929 1_565 S
H314 C333 0.929 . S
H315 C345 0.931 . S
H316 C337 0.929 . S
H317 C346 0.930 . S
H318 C338 0.931 . S
O319 Co295 2.097 . S
O319 C347 1.214 . S
H320 C348 0.929 1_545 S
H321 C349 0.929 . S
H322 C350 0.930 . S
H323 C351 0.929 . S
H324 C353 0.930 . S
H325 C330 0.930 . S
H326 C334 0.930 . S
O327 Co296 2.037 1_565 S
O327 C347 1.234 . S
C328 O302 1.269 . S
C328 O303 1.257 1_545 S
C329 H304 0.918 1_545 S
C329 C332 1.388 . S
C329 C334 1.418 . S
C330 H325 0.930 . S
C330 C333 1.404 . S
C330 C334 1.353 . S
N331 Co296 2.145 . S
N331 C332 1.397 . S
N331 C333 1.334 . S
C332 H313 0.929 1_545 S
C332 C329 1.388 . S
C332 N331 1.397 . S
C333 H314 0.929 . S
C333 C330 1.404 . S
C333 N331 1.334 . S
C334 H326 0.930 . S
C334 C329 1.418 . S
C334 C330 1.353 . S
C335 H305 0.930 . S
C335 N336 1.330 . S
C335 C337 1.446 . S
N336 Co295 2.151 1_545 S
N336 C335 1.330 . S
N336 C340 1.418 . S
C337 H316 0.929 . S
C337 C335 1.446 . S
C337 C338 1.332 . S
C338 H318 0.931 . S
C338 C337 1.332 . S
C338 C339 1.267 . S
C339 H307 0.929 . S
C339 C338 1.267 . S
C339 C340 1.251 . S
C340 H310 0.929 . S
C340 N336 1.418 . S
C340 C339 1.251 . S
C341 H308 0.930 . S
C341 C343 1.406 . S
C341 C346 1.261 . S
C342 H309 0.930 . S
C342 N344 1.325 . S
C342 C345 1.357 . S
C343 H311 0.928 . S
C343 C341 1.406 . S
C343 N344 1.261 . S
N344 Co295 2.214 . S
N344 C342 1.325 . S
N344 C343 1.261 . S
C345 H315 0.931 . S
C345 C342 1.357 . S
C345 C346 1.312 . S
C346 H317 0.930 . S
C346 C341 1.261 . S
C346 C345 1.312 . S
C347 O319 1.214 . S
C347 O327 1.234 . S
C348 H320 0.929 1_565 S
C348 C351 1.391 . S
C348 C353 1.391 1_565 S
C349 H321 0.929 . S
C349 C350 1.390 . S
C349 N352 1.398 . S
C350 H322 0.930 . S
C350 C349 1.390 . S
C350 C351 1.392 . S
C351 H323 0.929 . S
C351 C348 1.391 . S
C351 C350 1.392 . S
N352 Co296 2.258 1_565 S
N352 C349 1.398 . S
N352 C353 1.383 1_565 S
C353 H324 0.930 . S
C353 C348 1.391 1_545 S
C353 N352 1.383 1_545 S
Co354 O356 2.143 . S
Co354 O362 2.074 . S
Co354 O365 2.093 . S
Co354 O378 2.097 . S
Co354 N395 2.151 . S
Co354 N403 2.214 . S
Co355 O356 2.160 . S
Co355 O361 2.058 . S
Co355 O371 2.057 . S
Co355 O386 2.037 . S
Co355 N390 2.145 . S
Co355 N411 2.257 . S
O356 Co354 2.143 . S
O356 Co355 2.160 . S
C357 O358 1.278 . S
C357 O365 1.224 . S
O358 C357 1.278 . S
C359 O360 1.245 . S
C359 O371 1.232 . S
O360 C359 1.245 . S
O361 Co355 2.058 . S
O361 C387 1.269 . S
O362 Co354 2.074 . S
O362 C387 1.257 . S
H363 C388 0.930 . S
H364 C394 0.930 . S
O365 Co354 2.093 . S
O365 C357 1.224 . S
H366 C398 0.929 . S
H367 C400 0.930 . S
H368 C401 0.930 . S
H369 C399 0.929 . S
H370 C402 0.928 . S
O371 Co355 2.057 . S
O371 C359 1.232 . S
H372 C391 0.929 . S
H373 C392 0.929 . S
H374 C404 0.931 . S
H375 C396 0.929 . S
H376 C405 0.930 . S
H377 C397 0.931 . S
O378 Co354 2.097 . S
O378 C406 1.214 . S
H379 C407 0.929 . S
H380 C408 0.929 . S
H381 C409 0.930 . S
H382 C410 0.929 . S
H383 C412 0.930 . S
H384 C389 0.930 . S
H385 C393 0.930 . S
O386 Co355 2.037 . S
O386 C406 1.234 . S
C387 O361 1.269 . S
C387 O362 1.257 . S
C388 H363 0.930 . S
C388 C391 1.388 . S
C388 C393 1.418 . S
C389 H384 0.930 . S
C389 C392 1.404 . S
C389 C393 1.353 . S
N390 Co355 2.145 . S
N390 C391 1.397 . S
N390 C392 1.334 . S
C391 H372 0.929 . S
C391 C388 1.388 . S
C391 N390 1.397 . S
C392 H373 0.929 . S
C392 C389 1.404 . S
C392 N390 1.334 . S
C393 H385 0.930 . S
C393 C388 1.418 . S
C393 C389 1.353 . S
C394 H364 0.930 . S
C394 N395 1.330 . S
C394 C396 1.446 . S
N395 Co354 2.151 . S
N395 C394 1.330 . S
N395 C399 1.418 . S
C396 H375 0.929 . S
C396 C394 1.446 . S
C396 C397 1.332 . S
C397 H377 0.931 . S
C397 C396 1.332 . S
C397 C398 1.267 . S
C398 H366 0.929 . S
C398 C397 1.267 . S
C398 C399 1.251 . S
C399 H369 0.929 . S
C399 N395 1.418 . S
C399 C398 1.251 . S
C400 H367 0.930 . S
C400 C402 1.406 1_565 S
C400 C405 1.261 . S
C401 H368 0.930 . S
C401 N403 1.325 . S
C401 C404 1.357 . S
C402 H370 0.928 . S
C402 C400 1.406 1_545 S
C402 N403 1.261 . S
N403 Co354 2.214 . S
N403 C401 1.325 . S
N403 C402 1.261 . S
C404 H374 0.931 . S
C404 C401 1.357 . S
C404 C405 1.312 1_545 S
C405 H376 0.930 . S
C405 C400 1.261 . S
C405 C404 1.312 1_565 S
C406 O378 1.214 . S
C406 O386 1.234 . S
C407 H379 0.929 . S
C407 C410 1.391 . S
C407 C412 1.391 . S
C408 H380 0.929 . S
C408 C409 1.390 . S
C408 N411 1.391 . S
C409 H381 0.930 . S
C409 C408 1.390 . S
C409 C410 1.392 . S
C410 H382 0.929 . S
C410 C407 1.391 . S
C410 C409 1.392 . S
N411 Co355 2.257 . S
N411 C408 1.391 . S
N411 C412 1.388 . S
C412 H383 0.930 . S
C412 C407 1.391 . S
C412 N411 1.388 . S
Co413 O415 2.143 . S
Co413 O421 2.074 . S
Co413 O424 2.093 . S
Co413 O437 2.097 . S
Co413 N454 2.155 1_655 S
Co413 N462 2.214 . S
Co414 O415 2.160 . S
Co414 O420 2.058 . S
Co414 O430 2.057 . S
Co414 O445 2.037 . S
Co414 N449 2.145 . S
Co414 N470 2.257 . S
O415 Co413 2.143 . S
O415 Co414 2.160 . S
C416 O417 1.278 . S
C416 O424 1.224 . S
O417 C416 1.278 . S
C418 O419 1.245 . S
C418 O430 1.232 . S
O419 C418 1.245 . S
O420 Co414 2.058 . S
O420 C446 1.269 . S
O421 Co413 2.074 . S
O421 C446 1.257 . S
H422 C447 0.930 . S
H423 C453 0.930 1_655 S
O424 Co413 2.093 . S
O424 C416 1.224 . S
H425 C457 0.929 . S
H426 C459 0.930 1_455 S
H427 C460 0.930 . S
H428 C458 0.929 . S
H429 C461 0.928 . S
O430 Co414 2.057 . S
O430 C418 1.232 . S
H431 C450 0.929 . S
H432 C451 0.929 . S
H433 C463 0.931 . S
H434 C455 0.929 . S
H435 C464 0.930 . S
H436 C456 0.931 . S
O437 Co413 2.097 . S
O437 C465 1.214 . S
H438 C466 0.929 . S
H439 C467 0.929 . S
H440 C468 0.930 . S
H441 C469 0.929 . S
H442 C471 0.930 . S
H443 C448 0.930 . S
H444 C452 0.930 . S
O445 Co414 2.037 . S
O445 C465 1.234 . S
C446 O420 1.269 . S
C446 O421 1.257 . S
C447 H422 0.930 . S
C447 C450 1.388 . S
C447 C452 1.418 . S
C448 H443 0.930 . S
C448 C451 1.404 . S
C448 C452 1.353 . S
N449 Co414 2.145 . S
N449 C450 1.397 . S
N449 C451 1.334 . S
C450 H431 0.929 . S
C450 C447 1.388 . S
C450 N449 1.397 . S
C451 H432 0.929 . S
C451 C448 1.404 . S
C451 N449 1.334 . S
C452 H444 0.930 . S
C452 C447 1.418 . S
C452 C448 1.353 . S
C453 H423 0.930 1_455 S
C453 N454 1.328 . S
C453 C455 1.446 . S
N454 Co413 2.155 1_455 S
N454 C453 1.328 . S
N454 C458 1.415 . S
C455 H434 0.929 . S
C455 C453 1.446 . S
C455 C456 1.332 . S
C456 H436 0.931 . S
C456 C455 1.332 . S
C456 C457 1.267 . S
C457 H425 0.929 . S
C457 C456 1.267 . S
C457 C458 1.251 . S
C458 H428 0.929 . S
C458 N454 1.415 . S
C458 C457 1.251 . S
C459 H426 0.930 1_655 S
C459 C461 1.406 . S
C459 C464 1.261 . S
C460 H427 0.930 . S
C460 N462 1.325 . S
C460 C463 1.357 . S
C461 H429 0.928 . S
C461 C459 1.406 . S
C461 N462 1.261 . S
N462 Co413 2.214 . S
N462 C460 1.325 . S
N462 C461 1.261 . S
C463 H433 0.931 . S
C463 C460 1.357 . S
C463 C464 1.312 . S
C464 H435 0.930 . S
C464 C459 1.261 . S
C464 C463 1.312 . S
C465 O437 1.214 . S
C465 O445 1.234 . S
C466 H438 0.929 . S
C466 C469 1.391 . S
C466 C471 1.391 . S
C467 H439 0.929 . S
C467 C468 1.390 . S
C467 N470 1.391 . S
C468 H440 0.930 . S
C468 C467 1.390 . S
C468 C469 1.392 . S
C469 H441 0.929 . S
C469 C466 1.391 . S
C469 C468 1.392 . S
N470 Co414 2.257 . S
N470 C467 1.391 . S
N470 C471 1.388 . S
C471 H442 0.930 . S
C471 C466 1.391 . S
C471 N470 1.388 . S
Co472 O474 2.143 . S
Co472 O480 2.074 . S
Co472 O483 2.093 . S
Co472 O496 2.097 . S
Co472 N513 2.151 . S
Co472 N521 2.214 . S
Co473 O474 2.160 . S
Co473 O479 2.058 . S
Co473 O489 2.057 . S
Co473 O504 2.037 . S
Co473 N508 2.145 . S
Co473 N529 2.257 . S
O474 Co472 2.143 . S
O474 Co473 2.160 . S
C475 O476 1.278 . S
C475 O483 1.224 . S
O476 C475 1.278 . S
C477 O478 1.245 . S
C477 O489 1.232 . S
O478 C477 1.245 . S
O479 Co473 2.058 . S
O479 C505 1.269 . S
O480 Co472 2.074 . S
O480 C505 1.257 . S
H481 C506 0.930 . S
H482 C512 0.930 . S
O483 Co472 2.093 . S
O483 C475 1.224 . S
H484 C516 0.929 . S
H485 C518 0.930 . S
H486 C519 0.930 . S
H487 C517 0.929 . S
H488 C520 0.928 . S
O489 Co473 2.057 . S
O489 C477 1.232 . S
H490 C509 0.929 . S
H491 C510 0.929 . S
H492 C522 0.931 . S
H493 C514 0.929 . S
H494 C523 0.930 . S
H495 C515 0.931 . S
O496 Co472 2.097 . S
O496 C524 1.214 . S
H497 C525 0.929 . S
H498 C526 0.929 . S
H499 C527 0.930 . S
H500 C528 0.929 . S
H501 C530 0.930 . S
H502 C507 0.930 . S
H503 C511 0.930 . S
O504 Co473 2.037 . S
O504 C524 1.234 . S
C505 O479 1.269 . S
C505 O480 1.257 . S
C506 H481 0.930 . S
C506 C509 1.388 . S
C506 C511 1.418 . S
C507 H502 0.930 . S
C507 C510 1.404 . S
C507 C511 1.353 . S
N508 Co473 2.145 . S
N508 C509 1.397 . S
N508 C510 1.334 . S
C509 H490 0.929 . S
C509 C506 1.388 . S
C509 N508 1.397 . S
C510 H491 0.929 . S
C510 C507 1.404 . S
C510 N508 1.334 . S
C511 H503 0.930 . S
C511 C506 1.418 . S
C511 C507 1.353 . S
C512 H482 0.930 . S
C512 N513 1.330 . S
C512 C514 1.446 . S
N513 Co472 2.151 . S
N513 C512 1.330 . S
N513 C517 1.418 . S
C514 H493 0.929 . S
C514 C512 1.446 . S
C514 C515 1.332 . S
C515 H495 0.931 . S
C515 C514 1.332 . S
C515 C516 1.267 . S
C516 H484 0.929 . S
C516 C515 1.267 . S
C516 C517 1.251 . S
C517 H487 0.929 . S
C517 N513 1.418 . S
C517 C516 1.251 . S
C518 H485 0.930 . S
C518 C520 1.406 . S
C518 C523 1.261 . S
C519 H486 0.930 . S
C519 N521 1.325 . S
C519 C522 1.357 . S
C520 H488 0.928 . S
C520 C518 1.406 . S
C520 N521 1.261 . S
N521 Co472 2.214 . S
N521 C519 1.325 . S
N521 C520 1.261 . S
C522 H492 0.931 . S
C522 C519 1.357 . S
C522 C523 1.312 . S
C523 H494 0.930 . S
C523 C518 1.261 . S
C523 C522 1.312 . S
C524 O496 1.214 . S
C524 O504 1.234 . S
C525 H497 0.929 . S
C525 C528 1.391 . S
C525 C530 1.391 . S
C526 H498 0.929 . S
C526 C527 1.390 . S
C526 N529 1.391 . S
C527 H499 0.930 . S
C527 C526 1.390 . S
C527 C528 1.392 . S
C528 H500 0.929 . S
C528 C525 1.391 . S
C528 C527 1.392 . S
N529 Co473 2.257 . S
N529 C526 1.391 . S
N529 C530 1.388 . S
C530 H501 0.930 . S
C530 C525 1.391 . S
C530 N529 1.388 . S
Co531 O533 2.143 . S
Co531 O539 2.074 . S
Co531 O542 2.093 . S
Co531 O555 2.097 . S
Co531 N572 2.151 . S
Co531 N580 2.214 . S
Co532 O533 2.160 . S
Co532 O538 2.058 . S
Co532 O548 2.057 . S
Co532 O563 2.037 . S
Co532 N567 2.145 . S
Co532 N588 2.257 . S
O533 Co531 2.143 . S
O533 Co532 2.160 . S
C534 O535 1.278 . S
C534 O542 1.224 . S
O535 C534 1.278 . S
C536 O537 1.245 . S
C536 O548 1.232 . S
O537 C536 1.245 . S
O538 Co532 2.058 . S
O538 C564 1.269 . S
O539 Co531 2.074 . S
O539 C564 1.257 . S
H540 C565 0.930 . S
H541 C571 0.930 . S
O542 Co531 2.093 . S
O542 C534 1.224 . S
H543 C575 0.929 . S
H544 C577 0.930 . S
H545 C578 0.930 . S
H546 C576 0.929 . S
H547 C579 0.928 . S
O548 Co532 2.057 . S
O548 C536 1.232 . S
H549 C568 0.929 . S
H550 C569 0.929 . S
H551 C581 0.931 . S
H552 C573 0.929 . S
H553 C582 0.930 . S
H554 C574 0.931 . S
O555 Co531 2.097 . S
O555 C583 1.214 . S
H556 C584 0.929 1_556 S
H557 C585 0.929 . S
H558 C586 0.930 . S
H559 C587 0.929 1_556 S
H560 C589 0.930 . S
H561 C566 0.930 . S
H562 C570 0.930 . S
O563 Co532 2.037 . S
O563 C583 1.234 . S
C564 O538 1.269 . S
C564 O539 1.257 . S
C565 H540 0.930 . S
C565 C568 1.388 . S
C565 C570 1.418 . S
C566 H561 0.930 . S
C566 C569 1.404 . S
C566 C570 1.353 . S
N567 Co532 2.145 . S
N567 C568 1.397 . S
N567 C569 1.334 . S
C568 H549 0.929 . S
C568 C565 1.388 . S
C568 N567 1.397 . S
C569 H550 0.929 . S
C569 C566 1.404 . S
C569 N567 1.334 . S
C570 H562 0.930 . S
C570 C565 1.418 . S
C570 C566 1.353 . S
C571 H541 0.930 . S
C571 N572 1.330 . S
C571 C573 1.446 . S
N572 Co531 2.151 . S
N572 C571 1.330 . S
N572 C576 1.418 . S
C573 H552 0.929 . S
C573 C571 1.446 . S
C573 C574 1.332 . S
C574 H554 0.931 . S
C574 C573 1.332 . S
C574 C575 1.267 . S
C575 H543 0.929 . S
C575 C574 1.267 . S
C575 C576 1.251 . S
C576 H546 0.929 . S
C576 N572 1.418 . S
C576 C575 1.251 . S
C577 H544 0.930 . S
C577 C579 1.406 . S
C577 C582 1.261 . S
C578 H545 0.930 . S
C578 N580 1.325 . S
C578 C581 1.357 . S
C579 H547 0.928 . S
C579 C577 1.406 . S
C579 N580 1.261 . S
N580 Co531 2.214 . S
N580 C578 1.325 . S
N580 C579 1.261 . S
C581 H551 0.931 . S
C581 C578 1.357 . S
C581 C582 1.312 . S
C582 H553 0.930 . S
C582 C577 1.261 . S
C582 C581 1.312 . S
C583 O555 1.214 . S
C583 O563 1.234 . S
C584 H556 0.929 1_554 S
C584 C587 1.391 . S
C584 C589 1.391 . S
C585 H557 0.929 . S
C585 C586 1.390 . S
C585 N588 1.391 . S
C586 H558 0.930 . S
C586 C585 1.390 . S
C586 C587 1.392 . S
C587 H559 0.929 1_554 S
C587 C584 1.391 . S
C587 C586 1.392 . S
N588 Co532 2.257 . S
N588 C585 1.391 . S
N588 C589 1.388 . S
C589 H560 0.930 . S
C589 C584 1.391 . S
C589 N588 1.388 . S
Co590 O592 2.143 . S
Co590 O598 2.074 . S
Co590 O601 2.093 . S
Co590 O614 2.097 . S
Co590 N631 2.149 . S
Co590 N639 2.214 . S
Co591 O592 2.160 . S
Co591 O597 2.058 . S
Co591 O607 2.057 . S
Co591 O622 2.037 . S
Co591 N626 2.145 . S
Co591 N647 2.257 . S
O592 Co590 2.143 . S
O592 Co591 2.160 . S
C593 O594 1.278 . S
C593 O601 1.224 . S
O594 C593 1.278 . S
C595 O596 1.245 . S
C595 O607 1.232 . S
O596 C595 1.245 . S
O597 Co591 2.058 . S
O597 C623 1.269 . S
O598 Co590 2.074 . S
O598 C623 1.257 . S
H599 C624 0.930 . S
H600 C630 0.930 1_545 S
O601 Co590 2.093 . S
O601 C593 1.224 . S
H602 C634 0.929 . S
H603 C636 0.930 1_565 S
H604 C637 0.930 . S
H605 C635 0.929 . S
H606 C638 0.928 . S
O607 Co591 2.057 . S
O607 C595 1.232 . S
H608 C627 0.929 . S
H609 C628 0.929 . S
H610 C640 0.931 . S
H611 C632 0.929 . S
H612 C641 0.930 . S
H613 C633 0.931 . S
O614 Co590 2.097 . S
O614 C642 1.214 . S
H615 C643 0.929 1_556 S
H616 C644 0.929 . S
H617 C645 0.930 . S
H618 C646 0.929 . S
H619 C648 0.930 . S
H620 C625 0.930 . S
H621 C629 0.930 . S
O622 Co591 2.037 . S
O622 C642 1.234 . S
C623 O597 1.269 . S
C623 O598 1.257 . S
C624 H599 0.930 . S
C624 C627 1.388 . S
C624 C629 1.418 . S
C625 H620 0.930 . S
C625 C628 1.404 . S
C625 C629 1.353 . S
N626 Co591 2.145 . S
N626 C627 1.397 . S
N626 C628 1.334 . S
C627 H608 0.929 . S
C627 C624 1.388 . S
C627 N626 1.397 . S
C628 H609 0.929 . S
C628 C625 1.404 . S
C628 N626 1.334 . S
C629 H621 0.930 . S
C629 C624 1.418 . S
C629 C625 1.353 . S
C630 H600 0.930 1_565 S
C630 N631 1.330 1_565 S
C630 C632 1.446 . S
N631 Co590 2.149 . S
N631 C630 1.330 1_545 S
N631 C635 1.418 1_545 S
C632 H611 0.929 . S
C632 C630 1.446 . S
C632 C633 1.332 . S
C633 H613 0.931 . S
C633 C632 1.332 . S
C633 C634 1.267 . S
C634 H602 0.929 . S
C634 C633 1.267 . S
C634 C635 1.251 . S
C635 H605 0.929 . S
C635 N631 1.418 1_565 S
C635 C634 1.251 . S
C636 H603 0.930 1_545 S
C636 C638 1.406 . S
C636 C641 1.261 . S
C637 H604 0.930 . S
C637 N639 1.325 . S
C637 C640 1.357 . S
C638 H606 0.928 . S
C638 C636 1.406 . S
C638 N639 1.261 . S
N639 Co590 2.214 . S
N639 C637 1.325 . S
N639 C638 1.261 . S
C640 H610 0.931 . S
C640 C637 1.357 . S
C640 C641 1.312 . S
C641 H612 0.930 . S
C641 C636 1.261 . S
C641 C640 1.312 . S
C642 O614 1.214 . S
C642 O622 1.234 . S
C643 H615 0.929 1_554 S
C643 C646 1.391 . S
C643 C648 1.391 . S
C644 H616 0.929 . S
C644 C645 1.390 . S
C644 N647 1.391 . S
C645 H617 0.930 . S
C645 C644 1.390 . S
C645 C646 1.392 . S
C646 H618 0.929 . S
C646 C643 1.391 . S
C646 C645 1.392 . S
N647 Co591 2.257 . S
N647 C644 1.391 . S
N647 C648 1.388 . S
C648 H619 0.930 . S
C648 C643 1.391 . S
C648 N647 1.388 . S
Co649 O651 2.143 . S
Co649 O657 2.074 . S
Co649 O660 2.093 . S
Co649 O673 2.097 . S
Co649 N690 2.151 1_655 S
Co649 N698 2.214 . S
Co650 O651 2.160 . S
Co650 O656 2.058 . S
Co650 O666 2.057 . S
Co650 O681 2.037 . S
Co650 N685 2.145 . S
Co650 N706 2.257 . S
O651 Co649 2.143 . S
O651 Co650 2.160 . S
C652 O653 1.278 . S
C652 O660 1.224 . S
O653 C652 1.278 . S
C654 O655 1.245 . S
C654 O666 1.232 . S
O655 C654 1.245 . S
O656 Co650 2.058 . S
O656 C682 1.269 . S
O657 Co649 2.074 . S
O657 C682 1.257 . S
H658 C683 0.930 . S
H659 C689 0.930 1_655 S
O660 Co649 2.093 . S
O660 C652 1.224 . S
H661 C693 0.929 . S
H662 C695 0.930 1_455 S
H663 C696 0.930 . S
H664 C694 0.929 . S
H665 C697 0.928 . S
O666 Co650 2.057 . S
O666 C654 1.232 . S
H667 C686 0.929 . S
H668 C687 0.929 . S
H669 C699 0.931 . S
H670 C691 0.929 . S
H671 C700 0.930 . S
H672 C692 0.931 . S
O673 Co649 2.097 . S
O673 C701 1.214 . S
H674 C702 0.929 . S
H675 C703 0.929 . S
H676 C704 0.930 . S
H677 C705 0.929 1_556 S
H678 C707 0.930 . S
H679 C684 0.930 . S
H680 C688 0.930 . S
O681 Co650 2.037 . S
O681 C701 1.234 . S
C682 O656 1.269 . S
C682 O657 1.257 . S
C683 H658 0.930 . S
C683 C686 1.388 . S
C683 C688 1.418 . S
C684 H679 0.930 . S
C684 C687 1.404 . S
C684 C688 1.353 . S
N685 Co650 2.145 . S
N685 C686 1.397 . S
N685 C687 1.334 . S
C686 H667 0.929 . S
C686 C683 1.388 . S
C686 N685 1.397 . S
C687 H668 0.929 . S
C687 C684 1.404 . S
C687 N685 1.334 . S
C688 H680 0.930 . S
C688 C683 1.418 . S
C688 C684 1.353 . S
C689 H659 0.930 1_455 S
C689 N690 1.330 . S
C689 C691 1.446 . S
N690 Co649 2.151 1_455 S
N690 C689 1.330 . S
N690 C694 1.418 . S
C691 H670 0.929 . S
C691 C689 1.446 . S
C691 C692 1.332 . S
C692 H672 0.931 . S
C692 C691 1.332 . S
C692 C693 1.267 . S
C693 H661 0.929 . S
C693 C692 1.267 . S
C693 C694 1.251 . S
C694 H664 0.929 . S
C694 N690 1.418 . S
C694 C693 1.251 . S
C695 H662 0.930 1_655 S
C695 C697 1.406 . S
C695 C700 1.261 . S
C696 H663 0.930 . S
C696 N698 1.325 . S
C696 C699 1.357 . S
C697 H665 0.928 . S
C697 C695 1.406 . S
C697 N698 1.261 . S
N698 Co649 2.214 . S
N698 C696 1.325 . S
N698 C697 1.261 . S
C699 H669 0.931 . S
C699 C696 1.357 . S
C699 C700 1.312 . S
C700 H671 0.930 . S
C700 C695 1.261 . S
C700 C699 1.312 . S
C701 O673 1.214 . S
C701 O681 1.234 . S
C702 H674 0.929 . S
C702 C705 1.391 1_556 S
C702 C707 1.391 1_556 S
C703 H675 0.929 . S
C703 C704 1.390 . S
C703 N706 1.391 . S
C704 H676 0.930 . S
C704 C703 1.390 . S
C704 C705 1.392 . S
C705 H677 0.929 1_554 S
C705 C702 1.391 1_554 S
C705 C704 1.392 . S
N706 Co650 2.257 . S
N706 C703 1.391 . S
N706 C707 1.388 . S
C707 H678 0.930 . S
C707 C702 1.391 1_554 S
C707 N706 1.388 . S
Co708 O710 2.143 . S
Co708 O716 2.074 . S
Co708 O719 2.093 . S
Co708 O732 2.097 . S
Co708 N749 2.151 . S
Co708 N757 2.214 . S
Co709 O710 2.160 . S
Co709 O715 2.058 . S
Co709 O725 2.057 . S
Co709 O740 2.037 . S
Co709 N744 2.145 . S
Co709 N765 2.257 . S
O710 Co708 2.143 . S
O710 Co709 2.160 . S
C711 O712 1.278 . S
C711 O719 1.224 . S
O712 C711 1.278 . S
C713 O714 1.245 . S
C713 O725 1.232 . S
O714 C713 1.245 . S
O715 Co709 2.058 . S
O715 C741 1.269 . S
O716 Co708 2.074 . S
O716 C741 1.257 . S
H717 C742 0.930 . S
H718 C748 0.930 . S
O719 Co708 2.093 . S
O719 C711 1.224 . S
H720 C752 0.929 . S
H721 C754 0.930 . S
H722 C755 0.930 . S
H723 C753 0.929 . S
H724 C756 0.928 . S
O725 Co709 2.057 . S
O725 C713 1.232 . S
H726 C745 0.929 . S
H727 C746 0.929 . S
H728 C758 0.931 . S
H729 C750 0.929 . S
H730 C759 0.930 . S
H731 C751 0.931 . S
O732 Co708 2.097 . S
O732 C760 1.214 . S
H733 C761 0.929 . S
H734 C762 0.929 . S
H735 C763 0.930 . S
H736 C764 0.929 1_554 S
H737 C766 0.930 . S
H738 C743 0.930 . S
H739 C747 0.930 . S
O740 Co709 2.037 . S
O740 C760 1.234 . S
C741 O715 1.269 . S
C741 O716 1.257 . S
C742 H717 0.930 . S
C742 C745 1.388 . S
C742 C747 1.418 . S
C743 H738 0.930 . S
C743 C746 1.404 . S
C743 C747 1.353 . S
N744 Co709 2.145 . S
N744 C745 1.397 . S
N744 C746 1.334 . S
C745 H726 0.929 . S
C745 C742 1.388 . S
C745 N744 1.397 . S
C746 H727 0.929 . S
C746 C743 1.404 . S
C746 N744 1.334 . S
C747 H739 0.930 . S
C747 C742 1.418 . S
C747 C743 1.353 . S
C748 H718 0.930 . S
C748 N749 1.330 . S
C748 C750 1.446 . S
N749 Co708 2.151 . S
N749 C748 1.330 . S
N749 C753 1.418 . S
C750 H729 0.929 . S
C750 C748 1.446 . S
C750 C751 1.332 . S
C751 H731 0.931 . S
C751 C750 1.332 . S
C751 C752 1.267 . S
C752 H720 0.929 . S
C752 C751 1.267 . S
C752 C753 1.251 . S
C753 H723 0.929 . S
C753 N749 1.418 . S
C753 C752 1.251 . S
C754 H721 0.930 . S
C754 C756 1.406 . S
C754 C759 1.261 . S
C755 H722 0.930 . S
C755 N757 1.325 . S
C755 C758 1.357 . S
C756 H724 0.928 . S
C756 C754 1.406 . S
C756 N757 1.261 . S
N757 Co708 2.214 . S
N757 C755 1.325 . S
N757 C756 1.261 . S
C758 H728 0.931 . S
C758 C755 1.357 . S
C758 C759 1.312 . S
C759 H730 0.930 . S
C759 C754 1.261 . S
C759 C758 1.312 . S
C760 O732 1.214 . S
C760 O740 1.234 . S
C761 H733 0.929 . S
C761 C764 1.391 1_554 S
C761 C766 1.391 1_554 S
C762 H734 0.929 . S
C762 C763 1.390 . S
C762 N765 1.391 . S
C763 H735 0.930 . S
C763 C762 1.390 . S
C763 C764 1.392 . S
C764 H736 0.929 1_556 S
C764 C761 1.391 1_556 S
C764 C763 1.392 . S
N765 Co709 2.257 . S
N765 C762 1.391 . S
N765 C766 1.388 . S
C766 H737 0.930 . S
C766 C761 1.391 1_556 S
C766 N765 1.388 . S
Co767 O769 2.143 . S
Co767 O775 2.074 . S
Co767 O778 2.093 . S
Co767 O791 2.097 . S
Co767 N808 2.151 . S
Co767 N816 2.214 1_565 S
Co768 O769 2.160 . S
Co768 O774 2.058 . S
Co768 O784 2.057 . S
Co768 O799 2.037 . S
Co768 N803 2.145 . S
Co768 N824 2.257 . S
O769 Co767 2.143 . S
O769 Co768 2.160 . S
C770 O771 1.278 . S
C770 O778 1.224 . S
O771 C770 1.278 . S
C772 O773 1.245 . S
C772 O784 1.232 . S
O773 C772 1.245 . S
O774 Co768 2.058 . S
O774 C800 1.269 . S
O775 Co767 2.074 . S
O775 C800 1.257 . S
H776 C801 0.930 . S
H777 C807 0.930 . S
O778 Co767 2.093 . S
O778 C770 1.224 . S
H779 C811 0.929 . S
H780 C813 0.930 . S
H781 C814 0.930 . S
H782 C812 0.929 . S
H783 C815 0.928 . S
O784 Co768 2.057 . S
O784 C772 1.232 . S
H785 C804 0.929 . S
H786 C805 0.929 . S
H787 C817 0.931 1_554 S
H788 C809 0.929 . S
H789 C818 0.930 . S
H790 C810 0.931 . S
O791 Co767 2.097 . S
O791 C819 1.214 . S
H792 C820 0.929 . S
H793 C821 0.929 . S
H794 C822 0.930 . S
H795 C823 0.929 . S
H796 C825 0.930 . S
H797 C802 0.930 . S
H798 C806 0.926 1_554 S
O799 Co768 2.037 . S
O799 C819 1.234 . S
C800 O774 1.269 . S
C800 O775 1.257 . S
C801 H776 0.930 . S
C801 C804 1.388 1_554 S
C801 C806 1.418 1_554 S
C802 H797 0.930 . S
C802 C805 1.404 . S
C802 C806 1.353 . S
N803 Co768 2.145 . S
N803 C804 1.397 . S
N803 C805 1.334 . S
C804 H785 0.929 . S
C804 C801 1.388 1_556 S
C804 N803 1.397 . S
C805 H786 0.929 . S
C805 C802 1.404 . S
C805 N803 1.334 . S
C806 H798 0.926 1_556 S
C806 C801 1.418 1_556 S
C806 C802 1.353 . S
C807 H777 0.930 . S
C807 N808 1.330 . S
C807 C809 1.446 1_565 S
N808 Co767 2.151 . S
N808 C807 1.330 . S
N808 C812 1.418 1_565 S
C809 H788 0.929 . S
C809 C807 1.446 1_545 S
C809 C810 1.332 . S
C810 H790 0.931 . S
C810 C809 1.332 . S
C810 C811 1.267 . S
C811 H779 0.929 . S
C811 C810 1.267 . S
C811 C812 1.251 . S
C812 H782 0.929 . S
C812 N808 1.418 1_545 S
C812 C811 1.251 . S
C813 H780 0.930 . S
C813 C815 1.406 . S
C813 C818 1.261 . S
C814 H781 0.930 . S
C814 N816 1.325 . S
C814 C817 1.357 . S
C815 H783 0.928 . S
C815 C813 1.406 . S
C815 N816 1.261 . S
N816 Co767 2.214 1_545 S
N816 C814 1.325 . S
N816 C815 1.261 . S
C817 H787 0.931 1_556 S
C817 C814 1.357 . S
C817 C818 1.312 . S
C818 H789 0.930 . S
C818 C813 1.261 . S
C818 C817 1.312 . S
C819 O791 1.214 . S
C819 O799 1.234 . S
C820 H792 0.929 . S
C820 C823 1.391 . S
C820 C825 1.391 . S
C821 H793 0.929 . S
C821 C822 1.390 . S
C821 N824 1.391 . S
C822 H794 0.930 . S
C822 C821 1.390 . S
C822 C823 1.392 . S
C823 H795 0.929 . S
C823 C820 1.391 . S
C823 C822 1.392 . S
N824 Co768 2.257 . S
N824 C821 1.391 . S
N824 C825 1.388 . S
C825 H796 0.930 . S
C825 C820 1.391 . S
C825 N824 1.388 . S
Co826 O828 2.143 . S
Co826 O834 2.074 . S
Co826 O837 2.093 . S
Co826 O850 2.097 . S
Co826 N867 2.151 . S
Co826 N875 2.214 . S
Co827 O828 2.160 . S
Co827 O833 2.058 . S
Co827 O843 2.057 . S
Co827 O858 2.037 . S
Co827 N862 2.145 . S
Co827 N883 2.257 . S
O828 Co826 2.143 . S
O828 Co827 2.160 . S
C829 O830 1.278 . S
C829 O837 1.224 . S
O830 C829 1.278 . S
C831 O832 1.245 . S
C831 O843 1.232 . S
O832 C831 1.245 . S
O833 Co827 2.058 . S
O833 C859 1.269 . S
O834 Co826 2.074 . S
O834 C859 1.257 . S
H835 C860 0.930 . S
H836 C866 0.930 . S
O837 Co826 2.093 . S
O837 C829 1.224 . S
H838 C870 0.929 . S
H839 C872 0.930 . S
H840 C873 0.930 . S
H841 C871 0.929 1_455 S
H842 C874 0.928 . S
O843 Co827 2.057 . S
O843 C831 1.232 . S
H844 C863 0.929 . S
H845 C864 0.929 . S
H846 C876 0.931 . S
H847 C868 0.929 . S
H848 C877 0.930 . S
H849 C869 0.931 . S
O850 Co826 2.097 . S
O850 C878 1.214 . S
H851 C879 0.929 1_554 S
H852 C880 0.929 . S
H853 C881 0.930 . S
H854 C882 0.929 1_554 S
H855 C884 0.930 . S
H856 C861 0.930 . S
H857 C865 0.930 . S
O858 Co827 2.037 . S
O858 C878 1.234 . S
C859 O833 1.269 . S
C859 O834 1.257 . S
C860 H835 0.930 . S
C860 C863 1.388 . S
C860 C865 1.418 . S
C861 H856 0.930 . S
C861 C864 1.404 . S
C861 C865 1.353 . S
N862 Co827 2.145 . S
N862 C863 1.397 . S
N862 C864 1.334 . S
C863 H844 0.929 . S
C863 C860 1.388 . S
C863 N862 1.397 . S
C864 H845 0.929 . S
C864 C861 1.404 . S
C864 N862 1.334 . S
C865 H857 0.930 . S
C865 C860 1.418 . S
C865 C861 1.353 . S
C866 H836 0.930 . S
C866 N867 1.330 . S
C866 C868 1.446 1_455 S
N867 Co826 2.151 . S
N867 C866 1.330 . S
N867 C871 1.418 1_455 S
C868 H847 0.929 . S
C868 C866 1.446 1_655 S
C868 C869 1.332 . S
C869 H849 0.931 . S
C869 C868 1.332 . S
C869 C870 1.267 . S
C870 H838 0.929 . S
C870 C869 1.267 . S
C870 C871 1.251 . S
C871 H841 0.929 1_655 S
C871 N867 1.418 1_655 S
C871 C870 1.251 . S
C872 H839 0.930 . S
C872 C874 1.406 . S
C872 C877 1.261 . S
C873 H840 0.930 . S
C873 N875 1.325 . S
C873 C876 1.357 . S
C874 H842 0.928 . S
C874 C872 1.406 . S
C874 N875 1.261 . S
N875 Co826 2.214 . S
N875 C873 1.325 . S
N875 C874 1.261 . S
C876 H846 0.931 . S
C876 C873 1.357 . S
C876 C877 1.312 . S
C877 H848 0.930 . S
C877 C872 1.261 . S
C877 C876 1.312 . S
C878 O850 1.214 . S
C878 O858 1.234 . S
C879 H851 0.929 1_556 S
C879 C882 1.391 . S
C879 C884 1.391 . S
C880 H852 0.929 . S
C880 C881 1.390 . S
C880 N883 1.391 . S
C881 H853 0.930 . S
C881 C880 1.390 . S
C881 C882 1.392 . S
C882 H854 0.929 1_556 S
C882 C879 1.391 . S
C882 C881 1.392 . S
N883 Co827 2.257 . S
N883 C880 1.391 . S
N883 C884 1.388 . S
C884 H855 0.930 . S
C884 C879 1.391 . S
C884 N883 1.388 . S
Co885 O887 2.143 . S
Co885 O893 2.074 . S
Co885 O896 2.093 . S
Co885 O909 2.097 . S
Co885 N926 2.151 . S
Co885 N934 2.214 . S
Co886 O887 2.160 . S
Co886 O892 2.058 . S
Co886 O902 2.057 . S
Co886 O917 2.037 . S
Co886 N921 2.145 . S
Co886 N942 2.257 . S
O887 Co885 2.143 . S
O887 Co886 2.160 . S
C888 O889 1.278 . S
C888 O896 1.224 . S
O889 C888 1.278 . S
C890 O891 1.245 . S
C890 O902 1.232 . S
O891 C890 1.245 . S
O892 Co886 2.058 . S
O892 C918 1.269 . S
O893 Co885 2.074 . S
O893 C918 1.257 . S
H894 C919 0.930 . S
H895 C925 0.922 1_565 S
O896 Co885 2.093 . S
O896 C888 1.224 . S
H897 C929 0.929 . S
H898 C931 0.930 . S
H899 C932 0.930 . S
H900 C930 0.929 . S
H901 C933 0.928 . S
O902 Co886 2.057 . S
O902 C890 1.232 . S
H903 C922 0.929 . S
H904 C923 0.929 . S
H905 C935 0.931 . S
H906 C927 0.929 . S
H907 C936 0.930 . S
H908 C928 0.931 . S
O909 Co885 2.097 . S
O909 C937 1.214 . S
H910 C938 0.929 . S
H911 C939 0.929 . S
H912 C940 0.930 . S
H913 C941 0.929 . S
H914 C943 0.930 . S
H915 C920 0.930 . S
H916 C924 0.930 . S
O917 Co886 2.037 . S
O917 C937 1.234 . S
C918 O892 1.269 . S
C918 O893 1.257 . S
C919 H894 0.930 . S
C919 C922 1.388 . S
C919 C924 1.418 . S
C920 H915 0.930 . S
C920 C923 1.404 . S
C920 C924 1.353 . S
N921 Co886 2.145 . S
N921 C922 1.397 . S
N921 C923 1.334 . S
C922 H903 0.929 . S
C922 C919 1.388 . S
C922 N921 1.397 . S
C923 H904 0.929 . S
C923 C920 1.404 . S
C923 N921 1.334 . S
C924 H916 0.930 . S
C924 C919 1.418 . S
C924 C920 1.353 . S
C925 H895 0.922 1_545 S
C925 N926 1.327 1_545 S
C925 C927 1.456 . S
N926 Co885 2.151 . S
N926 C925 1.327 1_565 S
N926 C930 1.418 1_565 S
C927 H906 0.929 . S
C927 C925 1.456 . S
C927 C928 1.332 . S
C928 H908 0.931 . S
C928 C927 1.332 . S
C928 C929 1.267 . S
C929 H897 0.929 . S
C929 C928 1.267 . S
C929 C930 1.251 . S
C930 H900 0.929 . S
C930 N926 1.418 1_545 S
C930 C929 1.251 . S
C931 H898 0.930 . S
C931 C933 1.406 . S
C931 C936 1.261 . S
C932 H899 0.930 . S
C932 N934 1.325 . S
C932 C935 1.357 . S
C933 H901 0.928 . S
C933 C931 1.406 . S
C933 N934 1.261 . S
N934 Co885 2.214 . S
N934 C932 1.325 . S
N934 C933 1.261 . S
C935 H905 0.931 . S
C935 C932 1.357 . S
C935 C936 1.312 . S
C936 H907 0.930 . S
C936 C931 1.261 . S
C936 C935 1.312 . S
C937 O909 1.214 . S
C937 O917 1.234 . S
C938 H910 0.929 . S
C938 C941 1.391 . S
C938 C943 1.391 . S
C939 H911 0.929 . S
C939 C940 1.390 . S
C939 N942 1.391 . S
C940 H912 0.930 . S
C940 C939 1.390 . S
C940 C941 1.392 . S
C941 H913 0.929 . S
C941 C938 1.391 . S
C941 C940 1.392 . S
N942 Co886 2.257 . S
N942 C939 1.391 . S
N942 C943 1.388 . S
C943 H914 0.930 . S
C943 C938 1.391 . S
C943 N942 1.388 . S
Co944 O946 2.143 . S
Co944 O952 2.074 . S
Co944 O955 2.093 . S
Co944 O968 2.097 . S
Co944 N985 2.151 . S
Co944 N993 2.214 . S
Co945 O946 2.160 . S
Co945 O951 2.058 . S
Co945 O961 2.057 . S
Co945 O976 2.037 . S
Co945 N980 2.145 . S
Co945 N1001 2.257 . S
O946 Co944 2.143 . S
O946 Co945 2.160 . S
C947 O948 1.278 . S
C947 O955 1.224 . S
O948 C947 1.278 . S
C949 O950 1.245 . S
C949 O961 1.232 . S
O950 C949 1.245 . S
O951 Co945 2.058 . S
O951 C977 1.269 . S
O952 Co944 2.074 . S
O952 C977 1.257 . S
H953 C978 0.930 . S
H954 C984 0.930 . S
O955 Co944 2.093 . S
O955 C947 1.224 . S
H956 C988 0.929 . S
H957 C990 0.930 . S
H958 C991 0.930 . S
H959 C989 0.940 . S
H960 C992 0.928 . S
O961 Co945 2.057 . S
O961 C949 1.232 . S
H962 C981 0.929 . S
H963 C982 0.929 . S
H964 C994 0.931 . S
H965 C986 0.929 . S
H966 C995 0.930 . S
H967 C987 0.931 . S
O968 Co944 2.097 . S
O968 C996 1.214 . S
H969 C997 0.929 . S
H970 C998 0.929 . S
H971 C999 0.930 . S
H972 C1000 0.929 . S
H973 C1002 0.930 . S
H974 C979 0.930 . S
H975 C983 0.930 . S
O976 Co945 2.037 . S
O976 C996 1.234 . S
C977 O951 1.269 . S
C977 O952 1.257 . S
C978 H953 0.930 . S
C978 C981 1.388 . S
C978 C983 1.418 . S
C979 H974 0.930 . S
C979 C982 1.404 . S
C979 C983 1.353 . S
N980 Co945 2.145 . S
N980 C981 1.397 . S
N980 C982 1.334 . S
C981 H962 0.929 . S
C981 C978 1.388 . S
C981 N980 1.397 . S
C982 H963 0.929 . S
C982 C979 1.404 . S
C982 N980 1.334 . S
C983 H975 0.930 . S
C983 C978 1.418 . S
C983 C979 1.353 . S
C984 H954 0.930 . S
C984 N985 1.330 . S
C984 C986 1.446 1_455 S
N985 Co944 2.151 . S
N985 C984 1.330 . S
N985 C989 1.432 . S
C986 H965 0.929 . S
C986 C984 1.446 1_655 S
C986 C987 1.332 . S
C987 H967 0.931 . S
C987 C986 1.332 . S
C987 C988 1.267 . S
C988 H956 0.929 . S
C988 C987 1.267 . S
C988 C989 1.227 1_655 S
C989 H959 0.940 . S
C989 N985 1.432 . S
C989 C988 1.227 1_455 S
C990 H957 0.930 . S
C990 C992 1.406 . S
C990 C995 1.261 . S
C991 H958 0.930 . S
C991 N993 1.325 . S
C991 C994 1.357 . S
C992 H960 0.928 . S
C992 C990 1.406 . S
C992 N993 1.261 . S
N993 Co944 2.214 . S
N993 C991 1.325 . S
N993 C992 1.261 . S
C994 H964 0.931 . S
C994 C991 1.357 . S
C994 C995 1.312 . S
C995 H966 0.930 . S
C995 C990 1.261 . S
C995 C994 1.312 . S
C996 O968 1.214 . S
C996 O976 1.234 . S
C997 H969 0.929 . S
C997 C1000 1.391 . S
C997 C1002 1.391 . S
C998 H970 0.929 . S
C998 C999 1.390 . S
C998 N1001 1.391 . S
C999 H971 0.930 . S
C999 C998 1.390 . S
C999 C1000 1.392 . S
C1000 H972 0.929 . S
C1000 C997 1.391 . S
C1000 C999 1.392 . S
N1001 Co945 2.257 . S
N1001 C998 1.391 . S
N1001 C1002 1.388 . S
C1002 H973 0.930 . S
C1002 C997 1.391 . S
C1002 N1001 1.388 . S
Co1003 O1005 2.143 . S
Co1003 O1011 2.074 . S
Co1003 O1014 2.093 . S
Co1003 O1027 2.097 . S
Co1003 N1044 2.151 . S
Co1003 N1052 2.214 . S
Co1004 O1005 2.160 . S
Co1004 O1010 2.058 . S
Co1004 O1020 2.057 . S
Co1004 O1035 2.037 . S
Co1004 N1039 2.145 . S
Co1004 N1060 2.257 . S
O1005 Co1003 2.143 . S
O1005 Co1004 2.160 . S
C1006 O1007 1.278 . S
C1006 O1014 1.224 . S
O1007 C1006 1.278 . S
C1008 O1009 1.245 . S
C1008 O1020 1.232 . S
O1009 C1008 1.245 . S
O1010 Co1004 2.058 . S
O1010 C1036 1.269 . S
O1011 Co1003 2.074 . S
O1011 C1036 1.257 . S
H1012 C1037 0.930 . S
H1013 C1043 0.930 . S
O1014 Co1003 2.093 . S
O1014 C1006 1.224 . S
H1015 C1047 0.929 . S
H1016 C1049 0.930 . S
H1017 C1050 0.930 . S
H1018 C1048 0.929 . S
H1019 C1051 0.928 . S
O1020 Co1004 2.057 . S
O1020 C1008 1.232 . S
H1021 C1040 0.929 . S
H1022 C1041 0.929 . S
H1023 C1053 0.931 . S
H1024 C1045 0.929 . S
H1025 C1054 0.930 . S
H1026 C1046 0.931 . S
O1027 Co1003 2.097 . S
O1027 C1055 1.214 . S
H1028 C1056 0.929 . S
H1029 C1057 0.929 . S
H1030 C1058 0.930 . S
H1031 C1059 0.929 . S
H1032 C1061 0.930 . S
H1033 C1038 0.930 . S
H1034 C1042 0.930 . S
O1035 Co1004 2.037 . S
O1035 C1055 1.234 . S
C1036 O1010 1.269 . S
C1036 O1011 1.257 . S
C1037 H1012 0.930 . S
C1037 C1040 1.388 . S
C1037 C1042 1.418 . S
C1038 H1033 0.930 . S
C1038 C1041 1.404 . S
C1038 C1042 1.353 . S
N1039 Co1004 2.145 . S
N1039 C1040 1.397 . S
N1039 C1041 1.334 . S
C1040 H1021 0.929 . S
C1040 C1037 1.388 . S
C1040 N1039 1.397 . S
C1041 H1022 0.929 . S
C1041 C1038 1.404 . S
C1041 N1039 1.334 . S
C1042 H1034 0.930 . S
C1042 C1037 1.418 . S
C1042 C1038 1.353 . S
C1043 H1013 0.930 . S
C1043 N1044 1.330 . S
C1043 C1045 1.446 . S
N1044 Co1003 2.151 . S
N1044 C1043 1.330 . S
N1044 C1048 1.418 . S
C1045 H1024 0.929 . S
C1045 C1043 1.446 . S
C1045 C1046 1.332 . S
C1046 H1026 0.931 . S
C1046 C1045 1.332 . S
C1046 C1047 1.267 . S
C1047 H1015 0.929 . S
C1047 C1046 1.267 . S
C1047 C1048 1.251 . S
C1048 H1018 0.929 . S
C1048 N1044 1.418 . S
C1048 C1047 1.251 . S
C1049 H1016 0.930 . S
C1049 C1051 1.406 . S
C1049 C1054 1.261 . S
C1050 H1017 0.930 . S
C1050 N1052 1.325 . S
C1050 C1053 1.357 . S
C1051 H1019 0.928 . S
C1051 C1049 1.406 . S
C1051 N1052 1.261 . S
N1052 Co1003 2.214 . S
N1052 C1050 1.325 . S
N1052 C1051 1.261 . S
C1053 H1023 0.931 . S
C1053 C1050 1.357 . S
C1053 C1054 1.312 . S
C1054 H1025 0.930 . S
C1054 C1049 1.261 . S
C1054 C1053 1.312 . S
C1055 O1027 1.214 . S
C1055 O1035 1.234 . S
C1056 H1028 0.929 . S
C1056 C1059 1.391 . S
C1056 C1061 1.391 . S
C1057 H1029 0.929 . S
C1057 C1058 1.390 . S
C1057 N1060 1.391 . S
C1058 H1030 0.930 . S
C1058 C1057 1.390 . S
C1058 C1059 1.392 . S
C1059 H1031 0.929 . S
C1059 C1056 1.391 . S
C1059 C1058 1.392 . S
N1060 Co1004 2.257 . S
N1060 C1057 1.391 . S
N1060 C1061 1.388 . S
C1061 H1032 0.930 . S
C1061 C1056 1.391 . S
C1061 N1060 1.388 . S
C1062 C1063 1.391 . S
C1062 C1064 1.394 . S
C1062 H1078 0.931 . S
C1063 C1062 1.391 . S
C1063 C1067 1.376 . S
C1064 C1062 1.394 . S
C1064 C1065 1.369 . S
C1064 C1068 1.531 . S
C1065 C1064 1.369 . S
C1065 C1066 1.410 . S
C1065 C1073 1.503 . S
C1066 C1065 1.410 . S
C1066 C1067 1.392 . S
C1066 C1069 1.511 . S
C1067 C1063 1.376 . S
C1067 C1066 1.392 . S
C1067 H1079 0.929 . S
C1068 C1064 1.531 . S
C1068 H1080 0.960 . S
C1068 H1081 0.962 . S
C1068 H1082 0.960 . S
C1069 C1066 1.511 . S
C1069 H1083 0.961 . S
C1069 H1084 0.961 . S
C1069 H1085 0.961 1_455 S
C1070 C1071 1.370 . S
C1070 C1072 1.363 . S
C1070 H1086 0.931 . S
C1071 C1070 1.370 . S
C1071 C1075 1.408 . S
C1072 C1070 1.363 . S
C1072 C1073 1.370 . S
C1072 C1076 1.524 . S
C1073 C1065 1.503 . S
C1073 C1072 1.370 . S
C1073 C1074 1.403 . S
C1074 C1073 1.403 . S
C1074 C1075 1.404 . S
C1074 C1077 1.539 . S
C1075 C1071 1.408 . S
C1075 C1074 1.404 . S
C1075 H1087 0.930 . S
C1076 C1072 1.524 . S
C1076 H1088 0.956 . S
C1076 H1089 0.961 . S
C1076 H1090 0.961 . S
C1077 C1074 1.539 . S
C1077 H1091 0.958 . S
C1077 H1092 0.961 . S
C1077 H1093 0.960 . S
H1078 C1062 0.931 . S
H1079 C1067 0.929 . S
H1080 C1068 0.960 . S
H1081 C1068 0.962 . S
H1082 C1068 0.960 . S
H1083 C1069 0.961 . S
H1084 C1069 0.961 . S
H1085 C1069 0.961 1_655 S
H1086 C1070 0.931 . S
H1087 C1075 0.930 . S
H1088 C1076 0.956 . S
H1089 C1076 0.961 . S
H1090 C1076 0.961 . S
H1091 C1077 0.958 . S
H1092 C1077 0.961 . S
H1093 C1077 0.960 . S
C1094 C1095 1.391 . S
C1094 C1096 1.394 . S
C1094 H1110 0.931 . S
C1095 C1094 1.391 . S
C1095 C1099 1.376 . S
C1096 C1094 1.394 . S
C1096 C1097 1.369 . S
C1096 C1100 1.531 . S
C1097 C1096 1.369 . S
C1097 C1098 1.410 . S
C1097 C1105 1.503 . S
C1098 C1097 1.410 . S
C1098 C1099 1.392 . S
C1098 C1101 1.511 . S
C1099 C1095 1.376 . S
C1099 C1098 1.392 . S
C1099 H1111 0.929 . S
C1100 C1096 1.531 . S
C1100 H1112 0.960 . S
C1100 H1113 0.962 . S
C1100 H1114 0.960 . S
C1101 C1098 1.511 . S
C1101 H1115 0.961 . S
C1101 H1116 0.961 . S
C1101 H1117 0.961 . S
C1102 C1103 1.370 . S
C1102 C1104 1.363 . S
C1102 H1118 0.931 . S
C1103 C1102 1.370 . S
C1103 C1107 1.408 . S
C1104 C1102 1.363 . S
C1104 C1105 1.370 . S
C1104 C1108 1.524 . S
C1105 C1097 1.503 . S
C1105 C1104 1.370 . S
C1105 C1106 1.403 . S
C1106 C1105 1.403 . S
C1106 C1107 1.404 . S
C1106 C1109 1.539 . S
C1107 C1103 1.408 . S
C1107 C1106 1.404 . S
C1107 H1119 0.930 . S
C1108 C1104 1.524 . S
C1108 H1120 0.956 . S
C1108 H1121 0.961 . S
C1108 H1122 0.961 . S
C1109 C1106 1.539 . S
C1109 H1123 0.958 . S
C1109 H1124 0.961 . S
C1109 H1125 0.960 . S
H1110 C1094 0.931 . S
H1111 C1099 0.929 . S
H1112 C1100 0.960 . S
H1113 C1100 0.962 . S
H1114 C1100 0.960 . S
H1115 C1101 0.961 . S
H1116 C1101 0.961 . S
H1117 C1101 0.961 . S
H1118 C1102 0.931 . S
H1119 C1107 0.930 . S
H1120 C1108 0.956 . S
H1121 C1108 0.961 . S
H1122 C1108 0.961 . S
H1123 C1109 0.958 . S
H1124 C1109 0.961 . S
H1125 C1109 0.960 . S
C1126 C1127 1.391 . S
C1126 C1128 1.394 . S
C1126 H1142 0.931 . S
C1127 C1126 1.391 . S
C1127 C1131 1.376 . S
C1128 C1126 1.394 . S
C1128 C1129 1.369 . S
C1128 C1132 1.531 . S
C1129 C1128 1.369 . S
C1129 C1130 1.410 . S
C1129 C1137 1.503 . S
C1130 C1129 1.410 . S
C1130 C1131 1.392 . S
C1130 C1133 1.511 . S
C1131 C1127 1.376 . S
C1131 C1130 1.392 . S
C1131 H1143 0.929 . S
C1132 C1128 1.531 . S
C1132 H1144 0.960 . S
C1132 H1145 0.962 . S
C1132 H1146 0.960 . S
C1133 C1130 1.511 . S
C1133 H1147 0.961 . S
C1133 H1148 0.961 . S
C1133 H1149 0.961 . S
C1134 C1135 1.370 . S
C1134 C1136 1.363 . S
C1134 H1150 0.931 . S
C1135 C1134 1.370 . S
C1135 C1139 1.408 . S
C1136 C1134 1.363 . S
C1136 C1137 1.370 . S
C1136 C1140 1.524 1_565 S
C1137 C1129 1.503 . S
C1137 C1136 1.370 . S
C1137 C1138 1.403 . S
C1138 C1137 1.403 . S
C1138 C1139 1.404 . S
C1138 C1141 1.539 . S
C1139 C1135 1.408 . S
C1139 C1138 1.404 . S
C1139 H1151 0.930 . S
C1140 C1136 1.524 1_545 S
C1140 H1152 0.956 . S
C1140 H1153 0.961 . S
C1140 H1154 0.961 . S
C1141 C1138 1.539 . S
C1141 H1155 0.958 . S
C1141 H1156 0.961 . S
C1141 H1157 0.960 . S
H1142 C1126 0.931 . S
H1143 C1131 0.929 . S
H1144 C1132 0.960 . S
H1145 C1132 0.962 . S
H1146 C1132 0.960 . S
H1147 C1133 0.961 . S
H1148 C1133 0.961 . S
H1149 C1133 0.961 . S
H1150 C1134 0.931 . S
H1151 C1139 0.930 . S
H1152 C1140 0.956 . S
H1153 C1140 0.961 . S
H1154 C1140 0.961 . S
H1155 C1141 0.958 . S
H1156 C1141 0.961 . S
H1157 C1141 0.960 . S
C1158 C1159 1.391 . S
C1158 C1160 1.394 . S
C1158 H1174 0.931 . S
C1159 C1158 1.391 . S
C1159 C1163 1.376 . S
C1160 C1158 1.394 . S
C1160 C1161 1.369 . S
C1160 C1164 1.531 . S
C1161 C1160 1.369 . S
C1161 C1162 1.410 . S
C1161 C1169 1.503 . S
C1162 C1161 1.410 . S
C1162 C1163 1.392 . S
C1162 C1165 1.511 . S
C1163 C1159 1.376 . S
C1163 C1162 1.392 . S
C1163 H1175 0.929 . S
C1164 C1160 1.531 . S
C1164 H1176 0.960 . S
C1164 H1177 0.962 . S
C1164 H1178 0.960 . S
C1165 C1162 1.511 . S
C1165 H1179 0.961 . S
C1165 H1180 0.961 . S
C1165 H1181 0.961 . S
C1166 C1167 1.370 . S
C1166 C1168 1.363 . S
C1166 H1182 0.931 . S
C1167 C1166 1.370 . S
C1167 C1171 1.408 . S
C1168 C1166 1.363 . S
C1168 C1169 1.370 . S
C1168 C1172 1.524 . S
C1169 C1161 1.503 . S
C1169 C1168 1.370 . S
C1169 C1170 1.403 . S
C1170 C1169 1.403 . S
C1170 C1171 1.404 . S
C1170 C1173 1.539 . S
C1171 C1167 1.408 . S
C1171 C1170 1.404 . S
C1171 H1183 0.930 . S
C1172 C1168 1.524 . S
C1172 H1184 0.956 . S
C1172 H1185 0.961 . S
C1172 H1186 0.961 . S
C1173 C1170 1.539 . S
C1173 H1187 0.958 . S
C1173 H1188 0.961 . S
C1173 H1189 0.960 . S
H1174 C1158 0.931 . S
H1175 C1163 0.929 . S
H1176 C1164 0.960 . S
H1177 C1164 0.962 . S
H1178 C1164 0.960 . S
H1179 C1165 0.961 . S
H1180 C1165 0.961 . S
H1181 C1165 0.961 . S
H1182 C1166 0.931 . S
H1183 C1171 0.930 . S
H1184 C1172 0.956 . S
H1185 C1172 0.961 . S
H1186 C1172 0.961 . S
H1187 C1173 0.958 . S
H1188 C1173 0.961 . S
H1189 C1173 0.960 . S
C1190 C1191 1.391 . S
C1190 C1192 1.394 . S
C1190 H1206 0.931 . S
C1191 C1190 1.391 . S
C1191 C1195 1.376 . S
C1192 C1190 1.394 . S
C1192 C1193 1.369 . S
C1192 C1196 1.531 . S
C1193 C1192 1.369 . S
C1193 C1194 1.410 . S
C1193 C1201 1.503 . S
C1194 C1193 1.410 . S
C1194 C1195 1.392 . S
C1194 C1197 1.511 1_655 S
C1195 C1191 1.376 . S
C1195 C1194 1.392 . S
C1195 H1207 0.929 . S
C1196 C1192 1.531 . S
C1196 H1208 0.960 . S
C1196 H1209 0.962 . S
C1196 H1210 0.960 . S
C1197 C1194 1.511 1_455 S
C1197 H1211 0.961 . S
C1197 H1212 0.969 . S
C1197 H1213 0.961 . S
C1198 C1199 1.370 . S
C1198 C1200 1.363 . S
C1198 H1214 0.931 . S
C1199 C1198 1.370 . S
C1199 C1203 1.408 1_655 S
C1200 C1198 1.363 . S
C1200 C1201 1.370 . S
C1200 C1204 1.524 . S
C1201 C1193 1.503 . S
C1201 C1200 1.370 . S
C1201 C1202 1.403 . S
C1202 C1201 1.403 . S
C1202 C1203 1.404 1_655 S
C1202 C1205 1.539 1_655 S
C1203 C1199 1.408 1_455 S
C1203 C1202 1.404 1_455 S
C1203 H1215 0.930 . S
C1204 C1200 1.524 . S
C1204 H1216 0.956 . S
C1204 H1217 0.961 . S
C1204 H1218 0.961 . S
C1205 C1202 1.539 1_455 S
C1205 H1219 0.958 . S
C1205 H1220 0.961 . S
C1205 H1221 0.960 . S
H1206 C1190 0.931 . S
H1207 C1195 0.929 . S
H1208 C1196 0.960 . S
H1209 C1196 0.962 . S
H1210 C1196 0.960 . S
H1211 C1197 0.961 . S
H1212 C1197 0.969 . S
H1213 C1197 0.961 . S
H1214 C1198 0.931 . S
H1215 C1203 0.930 . S
H1216 C1204 0.956 . S
H1217 C1204 0.961 . S
H1218 C1204 0.961 . S
H1219 C1205 0.958 . S
H1220 C1205 0.961 . S
H1221 C1205 0.960 . S
C1222 C1223 1.391 . S
C1222 C1224 1.394 . S
C1222 H1238 0.931 . S
C1223 C1222 1.391 . S
C1223 C1227 1.376 . S
C1224 C1222 1.394 . S
C1224 C1225 1.369 . S
C1224 C1228 1.531 . S
C1225 C1224 1.369 . S
C1225 C1226 1.410 . S
C1225 C1233 1.503 . S
C1226 C1225 1.410 . S
C1226 C1227 1.392 . S
C1226 C1229 1.511 . S
C1227 C1223 1.376 . S
C1227 C1226 1.392 . S
C1227 H1239 0.929 . S
C1228 C1224 1.531 . S
C1228 H1240 0.960 . S
C1228 H1241 0.962 . S
C1228 H1242 0.960 . S
C1229 C1226 1.511 . S
C1229 H1243 0.961 . S
C1229 H1244 0.961 . S
C1229 H1245 0.961 . S
C1230 C1231 1.370 . S
C1230 C1232 1.363 . S
C1230 H1246 0.931 . S
C1231 C1230 1.370 . S
C1231 C1235 1.408 . S
C1232 C1230 1.363 . S
C1232 C1233 1.370 . S
C1232 C1236 1.524 . S
C1233 C1225 1.503 . S
C1233 C1232 1.370 . S
C1233 C1234 1.403 . S
C1234 C1233 1.403 . S
C1234 C1235 1.404 . S
C1234 C1237 1.539 . S
C1235 C1231 1.408 . S
C1235 C1234 1.404 . S
C1235 H1247 0.930 . S
C1236 C1232 1.524 . S
C1236 H1248 0.956 . S
C1236 H1249 0.961 . S
C1236 H1250 0.961 . S
C1237 C1234 1.539 . S
C1237 H1251 0.958 . S
C1237 H1252 0.961 . S
C1237 H1253 0.960 . S
H1238 C1222 0.931 . S
H1239 C1227 0.929 . S
H1240 C1228 0.960 . S
H1241 C1228 0.962 . S
H1242 C1228 0.960 . S
H1243 C1229 0.961 . S
H1244 C1229 0.961 . S
H1245 C1229 0.961 . S
H1246 C1230 0.931 . S
H1247 C1235 0.930 . S
H1248 C1236 0.956 . S
H1249 C1236 0.961 . S
H1250 C1236 0.961 . S
H1251 C1237 0.958 . S
H1252 C1237 0.961 . S
H1253 C1237 0.960 . S
C1254 C1255 1.391 . S
C1254 C1256 1.394 . S
C1254 H1270 0.931 1_655 S
C1255 C1254 1.391 . S
C1255 C1259 1.376 . S
C1256 C1254 1.394 . S
C1256 C1257 1.369 . S
C1256 C1260 1.531 . S
C1257 C1256 1.369 . S
C1257 C1258 1.410 . S
C1257 C1265 1.503 . S
C1258 C1257 1.410 . S
C1258 C1259 1.392 . S
C1258 C1261 1.511 . S
C1259 C1255 1.376 . S
C1259 C1258 1.392 . S
C1259 H1271 0.929 . S
C1260 C1256 1.531 . S
C1260 H1272 0.960 . S
C1260 H1273 0.962 1_655 S
C1260 H1274 0.960 . S
C1261 C1258 1.511 . S
C1261 H1275 0.961 . S
C1261 H1276 0.961 . S
C1261 H1277 0.961 . S
C1262 C1263 1.370 . S
C1262 C1264 1.363 . S
C1262 H1278 0.931 . S
C1263 C1262 1.370 . S
C1263 C1267 1.408 . S
C1264 C1262 1.363 . S
C1264 C1265 1.370 . S
C1264 C1268 1.524 1_655 S
C1265 C1257 1.503 . S
C1265 C1264 1.370 . S
C1265 C1266 1.403 . S
C1266 C1265 1.403 . S
C1266 C1267 1.404 . S
C1266 C1269 1.539 . S
C1267 C1263 1.408 . S
C1267 C1266 1.404 . S
C1267 H1279 0.930 . S
C1268 C1264 1.524 1_455 S
C1268 H1280 0.956 . S
C1268 H1281 0.961 . S
C1268 H1282 0.961 . S
C1269 C1266 1.539 . S
C1269 H1283 0.958 . S
C1269 H1284 0.961 . S
C1269 H1285 0.960 . S
H1270 C1254 0.931 1_455 S
H1271 C1259 0.929 . S
H1272 C1260 0.960 . S
H1273 C1260 0.962 1_455 S
H1274 C1260 0.960 . S
H1275 C1261 0.961 . S
H1276 C1261 0.961 . S
H1277 C1261 0.961 . S
H1278 C1262 0.931 . S
H1279 C1267 0.930 . S
H1280 C1268 0.956 . S
H1281 C1268 0.961 . S
H1282 C1268 0.961 . S
H1283 C1269 0.958 . S
H1284 C1269 0.961 . S
H1285 C1269 0.960 . S
C1286 C1287 1.391 . S
C1286 C1288 1.394 . S
C1286 H1302 0.931 1_556 S
C1287 C1286 1.391 . S
C1287 C1291 1.376 . S
C1288 C1286 1.394 . S
C1288 C1289 1.369 . S
C1288 C1292 1.531 . S
C1289 C1288 1.369 . S
C1289 C1290 1.410 . S
C1289 C1297 1.503 . S
C1290 C1289 1.410 . S
C1290 C1291 1.392 . S
C1290 C1293 1.511 . S
C1291 C1287 1.376 . S
C1291 C1290 1.392 . S
C1291 H1303 0.929 . S
C1292 C1288 1.531 . S
C1292 H1304 0.960 . S
C1292 H1305 0.962 . S
C1292 H1306 0.960 . S
C1293 C1290 1.511 . S
C1293 H1307 0.961 . S
C1293 H1308 0.961 . S
C1293 H1309 0.961 . S
C1294 C1295 1.370 . S
C1294 C1296 1.363 . S
C1294 H1310 0.931 . S
C1295 C1294 1.370 . S
C1295 C1299 1.408 . S
C1296 C1294 1.363 . S
C1296 C1297 1.370 . S
C1296 C1300 1.524 . S
C1297 C1289 1.503 . S
C1297 C1296 1.370 . S
C1297 C1298 1.403 . S
C1298 C1297 1.403 . S
C1298 C1299 1.404 . S
C1298 C1301 1.539 . S
C1299 C1295 1.408 . S
C1299 C1298 1.404 . S
C1299 H1311 0.930 . S
C1300 C1296 1.524 . S
C1300 H1312 0.956 . S
C1300 H1313 0.961 . S
C1300 H1314 0.961 . S
C1301 C1298 1.539 . S
C1301 H1315 0.958 . S
C1301 H1316 0.961 . S
C1301 H1317 0.960 . S
H1302 C1286 0.931 1_554 S
H1303 C1291 0.929 . S
H1304 C1292 0.960 . S
H1305 C1292 0.962 . S
H1306 C1292 0.960 . S
H1307 C1293 0.961 . S
H1308 C1293 0.961 . S
H1309 C1293 0.961 . S
H1310 C1294 0.931 . S
H1311 C1299 0.930 . S
H1312 C1300 0.956 . S
H1313 C1300 0.961 . S
H1314 C1300 0.961 . S
H1315 C1301 0.958 . S
H1316 C1301 0.961 . S
H1317 C1301 0.960 . S
C1318 C1319 1.391 . S
C1318 C1320 1.394 . S
C1318 H1334 0.931 . S
C1319 C1318 1.391 . S
C1319 C1323 1.376 . S
C1320 C1318 1.394 . S
C1320 C1321 1.369 . S
C1320 C1324 1.545 . S
C1321 C1320 1.369 . S
C1321 C1322 1.410 . S
C1321 C1329 1.503 . S
C1322 C1321 1.410 . S
C1322 C1323 1.392 . S
C1322 C1325 1.511 . S
C1323 C1319 1.376 . S
C1323 C1322 1.392 . S
C1323 H1335 0.929 . S
C1324 C1320 1.545 . S
C1324 H1336 0.960 1_545 S
C1324 H1337 0.964 . S
C1324 H1338 0.945 1_545 S
C1325 C1322 1.511 . S
C1325 H1339 0.961 . S
C1325 H1340 0.961 . S
C1325 H1341 0.961 . S
C1326 C1327 1.370 . S
C1326 C1328 1.363 . S
C1326 H1342 0.931 . S
C1327 C1326 1.370 . S
C1327 C1331 1.408 . S
C1328 C1326 1.363 . S
C1328 C1329 1.370 . S
C1328 C1332 1.524 . S
C1329 C1321 1.503 . S
C1329 C1328 1.370 . S
C1329 C1330 1.403 . S
C1330 C1329 1.403 . S
C1330 C1331 1.404 . S
C1330 C1333 1.539 1_545 S
C1331 C1327 1.408 . S
C1331 C1330 1.404 . S
C1331 H1343 0.930 1_545 S
C1332 C1328 1.524 . S
C1332 H1344 0.956 . S
C1332 H1345 0.961 . S
C1332 H1346 0.961 . S
C1333 C1330 1.539 1_565 S
C1333 H1347 0.958 . S
C1333 H1348 0.961 . S
C1333 H1349 0.960 . S
H1334 C1318 0.931 . S
H1335 C1323 0.929 . S
H1336 C1324 0.960 1_565 S
H1337 C1324 0.964 . S
H1338 C1324 0.945 1_565 S
H1339 C1325 0.961 . S
H1340 C1325 0.961 . S
H1341 C1325 0.961 . S
H1342 C1326 0.931 . S
H1343 C1331 0.930 1_565 S
H1344 C1332 0.956 . S
H1345 C1332 0.961 . S
H1346 C1332 0.961 . S
H1347 C1333 0.958 . S
H1348 C1333 0.961 . S
H1349 C1333 0.960 . S
C1350 C1351 1.391 . S
C1350 C1352 1.394 . S
C1350 H1366 0.931 . S
C1351 C1350 1.391 . S
C1351 C1355 1.376 . S
C1352 C1350 1.394 . S
C1352 C1353 1.369 . S
C1352 C1356 1.531 . S
C1353 C1352 1.369 . S
C1353 C1354 1.410 . S
C1353 C1361 1.503 . S
C1354 C1353 1.410 . S
C1354 C1355 1.392 . S
C1354 C1357 1.511 . S
C1355 C1351 1.376 . S
C1355 C1354 1.392 . S
C1355 H1367 0.929 . S
C1356 C1352 1.531 . S
C1356 H1368 0.960 . S
C1356 H1369 0.962 . S
C1356 H1370 0.960 . S
C1357 C1354 1.511 . S
C1357 H1371 0.961 . S
C1357 H1372 0.961 . S
C1357 H1373 0.961 . S
C1358 C1359 1.370 . S
C1358 C1360 1.363 . S
C1358 H1374 0.931 . S
C1359 C1358 1.370 . S
C1359 C1363 1.408 . S
C1360 C1358 1.363 . S
C1360 C1361 1.370 . S
C1360 C1364 1.524 . S
C1361 C1353 1.503 . S
C1361 C1360 1.370 . S
C1361 C1362 1.403 . S
C1362 C1361 1.403 . S
C1362 C1363 1.404 . S
C1362 C1365 1.539 . S
C1363 C1359 1.408 . S
C1363 C1362 1.404 . S
C1363 H1375 0.930 . S
C1364 C1360 1.524 . S
C1364 H1376 0.956 1_565 S
C1364 H1377 0.961 . S
C1364 H1378 0.961 1_565 S
C1365 C1362 1.539 . S
C1365 H1379 0.958 . S
C1365 H1380 0.961 . S
C1365 H1381 0.960 . S
H1366 C1350 0.931 . S
H1367 C1355 0.929 . S
H1368 C1356 0.960 . S
H1369 C1356 0.962 . S
H1370 C1356 0.960 . S
H1371 C1357 0.961 . S
H1372 C1357 0.961 . S
H1373 C1357 0.961 . S
H1374 C1358 0.931 . S
H1375 C1363 0.930 . S
H1376 C1364 0.956 1_545 S
H1377 C1364 0.961 . S
H1378 C1364 0.961 1_545 S
H1379 C1365 0.958 . S
H1380 C1365 0.961 . S
H1381 C1365 0.960 . S
C1382 C1383 1.391 . S
C1382 C1384 1.394 . S
C1382 H1398 0.931 . S
C1383 C1382 1.391 . S
C1383 C1387 1.376 . S
C1384 C1382 1.394 . S
C1384 C1385 1.369 . S
C1384 C1388 1.531 . S
C1385 C1384 1.369 . S
C1385 C1386 1.410 . S
C1385 C1393 1.503 . S
C1386 C1385 1.410 . S
C1386 C1387 1.392 . S
C1386 C1389 1.511 . S
C1387 C1383 1.376 . S
C1387 C1386 1.392 . S
C1387 H1399 0.929 . S
C1388 C1384 1.531 . S
C1388 H1400 0.960 . S
C1388 H1401 0.961 . S
C1388 H1402 0.960 1_455 S
C1389 C1386 1.511 . S
C1389 H1403 0.961 . S
C1389 H1404 0.961 . S
C1389 H1405 0.961 . S
C1390 C1391 1.370 . S
C1390 C1392 1.363 . S
C1390 H1406 0.931 . S
C1391 C1390 1.370 . S
C1391 C1395 1.408 . S
C1392 C1390 1.363 . S
C1392 C1393 1.370 . S
C1392 C1396 1.524 . S
C1393 C1385 1.503 . S
C1393 C1392 1.370 . S
C1393 C1394 1.403 . S
C1394 C1393 1.403 . S
C1394 C1395 1.404 . S
C1394 C1397 1.539 . S
C1395 C1391 1.408 . S
C1395 C1394 1.404 . S
C1395 H1407 0.930 . S
C1396 C1392 1.524 . S
C1396 H1408 0.956 . S
C1396 H1409 0.961 . S
C1396 H1410 0.961 . S
C1397 C1394 1.539 . S
C1397 H1411 0.958 . S
C1397 H1412 0.961 . S
C1397 H1413 0.960 . S
H1398 C1382 0.931 . S
H1399 C1387 0.929 . S
H1400 C1388 0.960 . S
H1401 C1388 0.961 . S
H1402 C1388 0.960 1_655 S
H1403 C1389 0.961 . S
H1404 C1389 0.961 . S
H1405 C1389 0.961 . S
H1406 C1390 0.931 . S
H1407 C1395 0.930 . S
H1408 C1396 0.956 . S
H1409 C1396 0.961 . S
H1410 C1396 0.961 . S
H1411 C1397 0.958 . S
H1412 C1397 0.961 . S
H1413 C1397 0.960 . S
C1414 C1415 1.391 . S
C1414 C1416 1.394 . S
C1414 H1430 0.931 . S
C1415 C1414 1.391 . S
C1415 C1419 1.376 . S
C1416 C1414 1.394 . S
C1416 C1417 1.369 . S
C1416 C1420 1.531 . S
C1417 C1416 1.369 . S
C1417 C1418 1.410 . S
C1417 C1425 1.503 . S
C1418 C1417 1.410 . S
C1418 C1419 1.392 . S
C1418 C1421 1.511 . S
C1419 C1415 1.376 . S
C1419 C1418 1.392 . S
C1419 H1431 0.929 . S
C1420 C1416 1.531 . S
C1420 H1432 0.960 . S
C1420 H1433 0.962 . S
C1420 H1434 0.960 . S
C1421 C1418 1.511 . S
C1421 H1435 0.961 . S
C1421 H1436 0.961 . S
C1421 H1437 0.961 . S
C1422 C1423 1.370 . S
C1422 C1424 1.363 . S
C1422 H1438 0.931 . S
C1423 C1422 1.370 . S
C1423 C1427 1.408 . S
C1424 C1422 1.363 . S
C1424 C1425 1.370 . S
C1424 C1428 1.524 . S
C1425 C1417 1.503 . S
C1425 C1424 1.370 . S
C1425 C1426 1.403 . S
C1426 C1425 1.403 . S
C1426 C1427 1.404 . S
C1426 C1429 1.539 . S
C1427 C1423 1.408 . S
C1427 C1426 1.404 . S
C1427 H1439 0.930 . S
C1428 C1424 1.524 . S
C1428 H1440 0.956 . S
C1428 H1441 0.961 . S
C1428 H1442 0.961 . S
C1429 C1426 1.539 . S
C1429 H1443 0.958 . S
C1429 H1444 0.961 . S
C1429 H1445 0.960 . S
H1430 C1414 0.931 . S
H1431 C1419 0.929 . S
H1432 C1420 0.960 . S
H1433 C1420 0.962 . S
H1434 C1420 0.960 . S
H1435 C1421 0.961 . S
H1436 C1421 0.961 . S
H1437 C1421 0.961 . S
H1438 C1422 0.931 . S
H1439 C1427 0.930 . S
H1440 C1428 0.956 . S
H1441 C1428 0.961 . S
H1442 C1428 0.961 . S
H1443 C1429 0.958 . S
H1444 C1429 0.961 . S
H1445 C1429 0.960 . S
C1446 C1447 1.391 . S
C1446 C1448 1.394 . S
C1446 H1462 0.931 . S
C1447 C1446 1.391 . S
C1447 C1451 1.376 . S
C1448 C1446 1.394 . S
C1448 C1449 1.369 . S
C1448 C1452 1.531 . S
C1449 C1448 1.369 . S
C1449 C1450 1.410 . S
C1449 C1457 1.503 . S
C1450 C1449 1.410 . S
C1450 C1451 1.392 . S
C1450 C1453 1.511 . S
C1451 C1447 1.376 . S
C1451 C1450 1.392 . S
C1451 H1463 0.929 . S
C1452 C1448 1.531 . S
C1452 H1464 0.960 . S
C1452 H1465 0.962 . S
C1452 H1466 0.960 . S
C1453 C1450 1.511 . S
C1453 H1467 0.961 . S
C1453 H1468 0.961 . S
C1453 H1469 0.961 . S
C1454 C1455 1.370 . S
C1454 C1456 1.363 . S
C1454 H1470 0.931 . S
C1455 C1454 1.370 . S
C1455 C1459 1.408 . S
C1456 C1454 1.363 . S
C1456 C1457 1.370 . S
C1456 C1460 1.524 . S
C1457 C1449 1.503 . S
C1457 C1456 1.370 . S
C1457 C1458 1.403 . S
C1458 C1457 1.403 . S
C1458 C1459 1.404 . S
C1458 C1461 1.539 . S
C1459 C1455 1.408 . S
C1459 C1458 1.404 . S
C1459 H1471 0.930 . S
C1460 C1456 1.524 . S
C1460 H1472 0.956 . S
C1460 H1473 0.961 . S
C1460 H1474 0.961 . S
C1461 C1458 1.539 . S
C1461 H1475 0.958 . S
C1461 H1476 0.961 . S
C1461 H1477 0.960 . S
H1462 C1446 0.931 . S
H1463 C1451 0.929 . S
H1464 C1452 0.960 . S
H1465 C1452 0.962 . S
H1466 C1452 0.960 . S
H1467 C1453 0.961 . S
H1468 C1453 0.961 . S
H1469 C1453 0.961 . S
H1470 C1454 0.931 . S
H1471 C1459 0.930 . S
H1472 C1460 0.956 . S
H1473 C1460 0.961 . S
H1474 C1460 0.961 . S
H1475 C1461 0.958 . S
H1476 C1461 0.961 . S
H1477 C1461 0.960 . S
C1478 C1479 1.391 . S
C1478 C1480 1.394 . S
C1478 H1494 0.931 . S
C1479 C1478 1.391 . S
C1479 C1483 1.376 . S
C1480 C1478 1.394 . S
C1480 C1481 1.369 . S
C1480 C1484 1.531 . S
C1481 C1480 1.369 . S
C1481 C1482 1.410 . S
C1481 C1489 1.503 . S
C1482 C1481 1.410 . S
C1482 C1483 1.392 . S
C1482 C1485 1.511 . S
C1483 C1479 1.376 . S
C1483 C1482 1.392 . S
C1483 H1495 0.929 . S
C1484 C1480 1.531 . S
C1484 H1496 0.960 . S
C1484 H1497 0.962 . S
C1484 H1498 0.960 . S
C1485 C1482 1.511 . S
C1485 H1499 0.961 . S
C1485 H1500 0.961 . S
C1485 H1501 0.961 . S
C1486 C1487 1.370 1_545 S
C1486 C1488 1.363 . S
C1486 H1502 0.931 . S
C1487 C1486 1.370 1_565 S
C1487 C1491 1.408 . S
C1488 C1486 1.363 . S
C1488 C1489 1.370 . S
C1488 C1492 1.524 . S
C1489 C1481 1.503 . S
C1489 C1488 1.370 . S
C1489 C1490 1.403 1_545 S
C1490 C1489 1.403 1_565 S
C1490 C1491 1.404 . S
C1490 C1493 1.539 . S
C1491 C1487 1.408 . S
C1491 C1490 1.404 . S
C1491 H1503 0.930 . S
C1492 C1488 1.524 . S
C1492 H1504 0.956 . S
C1492 H1505 0.961 . S
C1492 H1506 0.961 . S
C1493 C1490 1.539 . S
C1493 H1507 0.958 . S
C1493 H1508 0.961 . S
C1493 H1509 0.960 . S
H1494 C1478 0.931 . S
H1495 C1483 0.929 . S
H1496 C1484 0.960 . S
H1497 C1484 0.962 . S
H1498 C1484 0.960 . S
H1499 C1485 0.961 . S
H1500 C1485 0.961 . S
H1501 C1485 0.961 . S
H1502 C1486 0.931 . S
H1503 C1491 0.930 . S
H1504 C1492 0.956 . S
H1505 C1492 0.961 . S
H1506 C1492 0.961 . S
H1507 C1493 0.958 . S
H1508 C1493 0.961 . S
H1509 C1493 0.960 . S
C1510 C1511 1.391 . S
C1510 C1512 1.394 . S
C1510 H1526 0.931 . S
C1511 C1510 1.391 . S
C1511 C1515 1.376 . S
C1512 C1510 1.394 . S
C1512 C1513 1.369 . S
C1512 C1516 1.531 . S
C1513 C1512 1.369 . S
C1513 C1514 1.410 . S
C1513 C1521 1.503 1_455 S
C1514 C1513 1.410 . S
C1514 C1515 1.392 . S
C1514 C1517 1.511 1_455 S
C1515 C1511 1.376 . S
C1515 C1514 1.392 . S
C1515 H1527 0.929 . S
C1516 C1512 1.531 . S
C1516 H1528 0.960 . S
C1516 H1529 0.962 . S
C1516 H1530 0.960 . S
C1517 C1514 1.511 1_655 S
C1517 H1531 0.961 1_655 S
C1517 H1532 0.961 . S
C1517 H1533 0.961 . S
C1518 C1519 1.361 1_455 S
C1518 C1520 1.368 . S
C1518 H1534 0.936 . S
C1519 C1518 1.361 1_655 S
C1519 C1523 1.408 . S
C1520 C1518 1.368 . S
C1520 C1521 1.370 1_455 S
C1520 C1524 1.524 . S
C1521 C1513 1.503 1_655 S
C1521 C1520 1.370 1_655 S
C1521 C1522 1.403 . S
C1522 C1521 1.403 . S
C1522 C1523 1.404 . S
C1522 C1525 1.539 . S
C1523 C1519 1.408 . S
C1523 C1522 1.404 . S
C1523 H1535 0.930 . S
C1524 C1520 1.524 . S
C1524 H1536 0.956 . S
C1524 H1537 0.961 . S
C1524 H1538 0.961 . S
C1525 C1522 1.539 . S
C1525 H1539 0.958 . S
C1525 H1540 0.961 . S
C1525 H1541 0.960 . S
H1526 C1510 0.931 . S
H1527 C1515 0.929 . S
H1528 C1516 0.960 . S
H1529 C1516 0.962 . S
H1530 C1516 0.960 . S
H1531 C1517 0.961 1_455 S
H1532 C1517 0.961 . S
H1533 C1517 0.961 . S
H1534 C1518 0.936 . S
H1535 C1523 0.930 . S
H1536 C1524 0.956 . S
H1537 C1524 0.961 . S
H1538 C1524 0.961 . S
H1539 C1525 0.958 . S
H1540 C1525 0.961 . S
H1541 C1525 0.960 . S
C1542 C1543 1.391 . S
C1542 C1544 1.394 . S
C1542 H1558 0.931 . S
C1543 C1542 1.391 . S
C1543 C1547 1.376 . S
C1544 C1542 1.394 . S
C1544 C1545 1.369 . S
C1544 C1548 1.531 . S
C1545 C1544 1.369 . S
C1545 C1546 1.410 . S
C1545 C1553 1.503 . S
C1546 C1545 1.410 . S
C1546 C1547 1.392 . S
C1546 C1549 1.511 . S
C1547 C1543 1.376 . S
C1547 C1546 1.392 . S
C1547 H1559 0.929 . S
C1548 C1544 1.531 . S
C1548 H1560 0.960 . S
C1548 H1561 0.962 . S
C1548 H1562 0.960 . S
C1549 C1546 1.511 . S
C1549 H1563 0.961 . S
C1549 H1564 0.961 . S
C1549 H1565 0.961 . S
C1550 C1551 1.370 . S
C1550 C1552 1.363 . S
C1550 H1566 0.931 . S
C1551 C1550 1.370 . S
C1551 C1555 1.408 . S
C1552 C1550 1.363 . S
C1552 C1553 1.370 . S
C1552 C1556 1.524 . S
C1553 C1545 1.503 . S
C1553 C1552 1.370 . S
C1553 C1554 1.403 . S
C1554 C1553 1.403 . S
C1554 C1555 1.404 . S
C1554 C1557 1.539 . S
C1555 C1551 1.408 . S
C1555 C1554 1.404 . S
C1555 H1567 0.930 . S
C1556 C1552 1.524 . S
C1556 H1568 0.956 . S
C1556 H1569 0.961 . S
C1556 H1570 0.961 . S
C1557 C1554 1.539 . S
C1557 H1571 0.958 . S
C1557 H1572 0.961 . S
C1557 H1573 0.960 . S
H1558 C1542 0.931 . S
H1559 C1547 0.929 . S
H1560 C1548 0.960 . S
H1561 C1548 0.962 . S
H1562 C1548 0.960 . S
H1563 C1549 0.961 . S
H1564 C1549 0.961 . S
H1565 C1549 0.961 . S
H1566 C1550 0.931 . S
H1567 C1555 0.930 . S
H1568 C1556 0.956 . S
H1569 C1556 0.961 . S
H1570 C1556 0.961 . S
H1571 C1557 0.958 . S
H1572 C1557 0.961 . S
H1573 C1557 0.960 . S
C1574 C1575 1.391 . S
C1574 C1576 1.394 . S
C1574 H1590 0.931 . S
C1575 C1574 1.391 . S
C1575 C1579 1.376 . S
C1576 C1574 1.394 . S
C1576 C1577 1.369 . S
C1576 C1580 1.531 . S
C1577 C1576 1.369 . S
C1577 C1578 1.410 . S
C1577 C1585 1.503 1_545 S
C1578 C1577 1.410 . S
C1578 C1579 1.392 . S
C1578 C1581 1.506 . S
C1579 C1575 1.376 . S
C1579 C1578 1.392 . S
C1579 H1591 0.929 . S
C1580 C1576 1.531 . S
C1580 H1592 0.960 . S
C1580 H1593 0.962 1_545 S
C1580 H1594 0.960 . S
C1581 C1578 1.506 . S
C1581 H1595 0.966 1_545 S
C1581 H1596 0.929 1_545 S
C1581 H1597 0.994 . S
C1582 C1583 1.370 . S
C1582 C1584 1.363 . S
C1582 H1598 0.931 . S
C1583 C1582 1.370 . S
C1583 C1587 1.408 . S
C1584 C1582 1.363 . S
C1584 C1585 1.370 . S
C1584 C1588 1.524 . S
C1585 C1577 1.503 1_565 S
C1585 C1584 1.370 . S
C1585 C1586 1.403 1_565 S
C1586 C1585 1.403 1_545 S
C1586 C1587 1.404 1_545 S
C1586 C1589 1.539 . S
C1587 C1583 1.408 . S
C1587 C1586 1.404 1_565 S
C1587 H1599 0.931 1_565 S
C1588 C1584 1.524 . S
C1588 H1600 0.956 . S
C1588 H1601 0.961 . S
C1588 H1602 0.961 . S
C1589 C1586 1.539 . S
C1589 H1603 0.958 . S
C1589 H1604 0.961 . S
C1589 H1605 0.960 . S
H1590 C1574 0.931 . S
H1591 C1579 0.929 . S
H1592 C1580 0.960 . S
H1593 C1580 0.962 1_565 S
H1594 C1580 0.960 . S
H1595 C1581 0.966 1_565 S
H1596 C1581 0.929 1_565 S
H1597 C1581 0.994 . S
H1598 C1582 0.931 . S
H1599 C1587 0.931 1_545 S
H1600 C1588 0.956 . S
H1601 C1588 0.961 . S
H1602 C1588 0.961 . S
H1603 C1589 0.958 . S
H1604 C1589 0.961 . S
H1605 C1589 0.960 . S
C1606 C1607 1.391 . S
C1606 C1608 1.394 . S
C1606 H1622 0.931 . S
C1607 C1606 1.391 . S
C1607 C1611 1.376 . S
C1608 C1606 1.394 . S
C1608 C1609 1.369 . S
C1608 C1612 1.531 1_455 S
C1609 C1608 1.369 . S
C1609 C1610 1.410 . S
C1609 C1617 1.503 . S
C1610 C1609 1.410 . S
C1610 C1611 1.392 . S
C1610 C1613 1.511 . S
C1611 C1607 1.376 . S
C1611 C1610 1.392 . S
C1611 H1623 0.929 . S
C1612 C1608 1.531 1_655 S
C1612 H1624 0.960 . S
C1612 H1625 0.962 . S
C1612 H1626 0.960 1_655 S
C1613 C1610 1.511 . S
C1613 H1627 0.961 . S
C1613 H1628 0.961 . S
C1613 H1629 0.961 . S
C1614 C1615 1.370 . S
C1614 C1616 1.363 . S
C1614 H1630 0.931 . S
C1615 C1614 1.370 . S
C1615 C1619 1.408 1_655 S
C1616 C1614 1.363 . S
C1616 C1617 1.370 1_655 S
C1616 C1620 1.524 . S
C1617 C1609 1.503 . S
C1617 C1616 1.370 1_455 S
C1617 C1618 1.403 . S
C1618 C1617 1.403 . S
C1618 C1619 1.404 . S
C1618 C1621 1.539 . S
C1619 C1615 1.408 1_455 S
C1619 C1618 1.404 . S
C1619 H1631 0.930 . S
C1620 C1616 1.524 . S
C1620 H1632 0.956 . S
C1620 H1633 0.961 . S
C1620 H1634 0.961 . S
C1621 C1618 1.539 . S
C1621 H1635 0.958 . S
C1621 H1636 0.961 . S
C1621 H1637 0.960 . S
H1622 C1606 0.931 . S
H1623 C1611 0.929 . S
H1624 C1612 0.960 . S
H1625 C1612 0.962 . S
H1626 C1612 0.960 1_455 S
H1627 C1613 0.961 . S
H1628 C1613 0.961 . S
H1629 C1613 0.961 . S
H1630 C1614 0.931 . S
H1631 C1619 0.930 . S
H1632 C1620 0.956 . S
H1633 C1620 0.961 . S
H1634 C1620 0.961 . S
H1635 C1621 0.958 . S
H1636 C1621 0.961 . S
H1637 C1621 0.960 . S
C1638 C1639 1.391 . S
C1638 C1640 1.394 . S
C1638 H1654 0.931 . S
C1639 C1638 1.391 . S
C1639 C1643 1.376 . S
C1640 C1638 1.394 . S
C1640 C1641 1.369 . S
C1640 C1644 1.531 . S
C1641 C1640 1.369 . S
C1641 C1642 1.410 . S
C1641 C1649 1.503 . S
C1642 C1641 1.410 . S
C1642 C1643 1.392 . S
C1642 C1645 1.511 . S
C1643 C1639 1.376 . S
C1643 C1642 1.392 . S
C1643 H1655 0.929 . S
C1644 C1640 1.531 . S
C1644 H1656 0.960 . S
C1644 H1657 0.962 . S
C1644 H1658 0.960 . S
C1645 C1642 1.511 . S
C1645 H1659 0.961 . S
C1645 H1660 0.961 . S
C1645 H1661 0.961 . S
C1646 C1647 1.370 . S
C1646 C1648 1.363 . S
C1646 H1662 0.931 . S
C1647 C1646 1.370 . S
C1647 C1651 1.408 . S
C1648 C1646 1.363 . S
C1648 C1649 1.370 . S
C1648 C1652 1.524 . S
C1649 C1641 1.503 . S
C1649 C1648 1.370 . S
C1649 C1650 1.403 . S
C1650 C1649 1.403 . S
C1650 C1651 1.404 . S
C1650 C1653 1.539 . S
C1651 C1647 1.408 . S
C1651 C1650 1.404 . S
C1651 H1663 0.930 . S
C1652 C1648 1.524 . S
C1652 H1664 0.956 . S
C1652 H1665 0.961 . S
C1652 H1666 0.961 . S
C1653 C1650 1.539 . S
C1653 H1667 0.958 . S
C1653 H1668 0.961 . S
C1653 H1669 0.960 . S
H1654 C1638 0.931 . S
H1655 C1643 0.929 . S
H1656 C1644 0.960 . S
H1657 C1644 0.962 . S
H1658 C1644 0.960 . S
H1659 C1645 0.961 . S
H1660 C1645 0.961 . S
H1661 C1645 0.961 . S
H1662 C1646 0.931 . S
H1663 C1651 0.930 . S
H1664 C1652 0.956 . S
H1665 C1652 0.961 . S
H1666 C1652 0.961 . S
H1667 C1653 0.958 . S
H1668 C1653 0.961 . S
H1669 C1653 0.960 . S
C1670 C1671 1.391 . S
C1670 C1672 1.394 . S
C1670 H1686 0.931 . S
C1671 C1670 1.391 . S
C1671 C1675 1.376 . S
C1672 C1670 1.394 . S
C1672 C1673 1.369 . S
C1672 C1676 1.531 . S
C1673 C1672 1.369 . S
C1673 C1674 1.410 . S
C1673 C1681 1.503 . S
C1674 C1673 1.410 . S
C1674 C1675 1.392 . S
C1674 C1677 1.511 . S
C1675 C1671 1.376 . S
C1675 C1674 1.392 . S
C1675 H1687 0.929 . S
C1676 C1672 1.531 . S
C1676 H1688 0.960 . S
C1676 H1689 0.962 . S
C1676 H1690 0.960 . S
C1677 C1674 1.511 . S
C1677 H1691 0.961 . S
C1677 H1692 0.961 . S
C1677 H1693 0.961 . S
C1678 C1679 1.370 . S
C1678 C1680 1.363 . S
C1678 H1694 0.931 . S
C1679 C1678 1.370 . S
C1679 C1683 1.408 . S
C1680 C1678 1.363 . S
C1680 C1681 1.370 . S
C1680 C1684 1.524 . S
C1681 C1673 1.503 . S
C1681 C1680 1.370 . S
C1681 C1682 1.403 . S
C1682 C1681 1.403 . S
C1682 C1683 1.404 . S
C1682 C1685 1.539 . S
C1683 C1679 1.408 . S
C1683 C1682 1.404 . S
C1683 H1695 0.930 . S
C1684 C1680 1.524 . S
C1684 H1696 0.956 . S
C1684 H1697 0.961 . S
C1684 H1698 0.961 . S
C1685 C1682 1.539 . S
C1685 H1699 0.958 . S
C1685 H1700 0.961 . S
C1685 H1701 0.960 . S
H1686 C1670 0.931 . S
H1687 C1675 0.929 . S
H1688 C1676 0.960 . S
H1689 C1676 0.962 . S
H1690 C1676 0.960 . S
H1691 C1677 0.961 . S
H1692 C1677 0.961 . S
H1693 C1677 0.961 . S
H1694 C1678 0.931 . S
H1695 C1683 0.930 . S
H1696 C1684 0.956 . S
H1697 C1684 0.961 . S
H1698 C1684 0.961 . S
H1699 C1685 0.958 . S
H1700 C1685 0.961 . S
H1701 C1685 0.960 . S
C1702 C1703 1.391 . S
C1702 C1704 1.394 . S
C1702 H1718 0.931 . S
C1703 C1702 1.391 . S
C1703 C1707 1.376 . S
C1704 C1702 1.394 . S
C1704 C1705 1.369 . S
C1704 C1708 1.531 . S
C1705 C1704 1.369 . S
C1705 C1706 1.410 . S
C1705 C1713 1.503 . S
C1706 C1705 1.410 . S
C1706 C1707 1.392 . S
C1706 C1709 1.511 . S
C1707 C1703 1.376 . S
C1707 C1706 1.392 . S
C1707 H1719 0.929 . S
C1708 C1704 1.531 . S
C1708 H1720 0.960 . S
C1708 H1721 0.962 . S
C1708 H1722 0.960 . S
C1709 C1706 1.511 . S
C1709 H1723 0.961 . S
C1709 H1724 0.961 . S
C1709 H1725 0.961 . S
C1710 C1711 1.370 . S
C1710 C1712 1.363 . S
C1710 H1726 0.931 . S
C1711 C1710 1.370 . S
C1711 C1715 1.408 . S
C1712 C1710 1.363 . S
C1712 C1713 1.370 . S
C1712 C1716 1.524 . S
C1713 C1705 1.503 . S
C1713 C1712 1.370 . S
C1713 C1714 1.403 . S
C1714 C1713 1.403 . S
C1714 C1715 1.404 . S
C1714 C1717 1.539 . S
C1715 C1711 1.408 . S
C1715 C1714 1.404 . S
C1715 H1727 0.930 . S
C1716 C1712 1.524 . S
C1716 H1728 0.956 . S
C1716 H1729 0.961 . S
C1716 H1730 0.961 . S
C1717 C1714 1.539 . S
C1717 H1731 0.958 . S
C1717 H1732 0.961 . S
C1717 H1733 0.960 . S
H1718 C1702 0.931 . S
H1719 C1707 0.929 . S
H1720 C1708 0.960 . S
H1721 C1708 0.962 . S
H1722 C1708 0.960 . S
H1723 C1709 0.961 . S
H1724 C1709 0.961 . S
H1725 C1709 0.961 . S
H1726 C1710 0.931 . S
H1727 C1715 0.930 . S
H1728 C1716 0.956 . S
H1729 C1716 0.961 . S
H1730 C1716 0.961 . S
H1731 C1717 0.958 . S
H1732 C1717 0.961 . S
H1733 C1717 0.960 . S
C1734 C1735 1.391 . S
C1734 C1736 1.394 . S
C1734 H1750 0.931 . S
C1735 C1734 1.391 . S
C1735 C1739 1.376 . S
C1736 C1734 1.394 . S
C1736 C1737 1.369 . S
C1736 C1740 1.531 . S
C1737 C1736 1.369 . S
C1737 C1738 1.410 . S
C1737 C1745 1.503 . S
C1738 C1737 1.410 . S
C1738 C1739 1.392 . S
C1738 C1741 1.511 . S
C1739 C1735 1.376 . S
C1739 C1738 1.392 . S
C1739 H1751 0.929 . S
C1740 C1736 1.531 . S
C1740 H1752 0.960 . S
C1740 H1753 0.962 . S
C1740 H1754 0.960 . S
C1741 C1738 1.511 . S
C1741 H1755 0.961 . S
C1741 H1756 0.961 . S
C1741 H1757 0.961 . S
C1742 C1743 1.370 . S
C1742 C1744 1.363 . S
C1742 H1758 0.931 . S
C1743 C1742 1.370 . S
C1743 C1747 1.408 . S
C1744 C1742 1.363 . S
C1744 C1745 1.370 . S
C1744 C1748 1.524 . S
C1745 C1737 1.503 . S
C1745 C1744 1.370 . S
C1745 C1746 1.403 . S
C1746 C1745 1.403 . S
C1746 C1747 1.404 . S
C1746 C1749 1.539 . S
C1747 C1743 1.408 . S
C1747 C1746 1.404 . S
C1747 H1759 0.930 . S
C1748 C1744 1.524 . S
C1748 H1760 0.956 . S
C1748 H1761 0.961 . S
C1748 H1762 0.961 . S
C1749 C1746 1.539 . S
C1749 H1763 0.958 . S
C1749 H1764 0.961 . S
C1749 H1765 0.960 . S
H1750 C1734 0.931 . S
H1751 C1739 0.929 . S
H1752 C1740 0.960 . S
H1753 C1740 0.962 . S
H1754 C1740 0.960 . S
H1755 C1741 0.961 . S
H1756 C1741 0.961 . S
H1757 C1741 0.961 . S
H1758 C1742 0.931 . S
H1759 C1747 0.930 . S
H1760 C1748 0.956 . S
H1761 C1748 0.961 . S
H1762 C1748 0.961 . S
H1763 C1749 0.958 . S
H1764 C1749 0.961 . S
H1765 C1749 0.960 . S
C1766 C1767 1.391 . S
C1766 C1768 1.394 . S
C1766 H1782 0.931 . S
C1767 C1766 1.391 . S
C1767 C1771 1.376 . S
C1768 C1766 1.394 . S
C1768 C1769 1.369 . S
C1768 C1772 1.531 . S
C1769 C1768 1.369 . S
C1769 C1770 1.410 . S
C1769 C1777 1.503 . S
C1770 C1769 1.410 . S
C1770 C1771 1.392 . S
C1770 C1773 1.511 . S
C1771 C1767 1.376 . S
C1771 C1770 1.392 . S
C1771 H1783 0.929 . S
C1772 C1768 1.531 . S
C1772 H1784 0.960 . S
C1772 H1785 0.962 . S
C1772 H1786 0.960 . S
C1773 C1770 1.511 . S
C1773 H1787 0.961 . S
C1773 H1788 0.961 . S
C1773 H1789 0.961 . S
C1774 C1775 1.370 . S
C1774 C1776 1.363 . S
C1774 H1790 0.931 . S
C1775 C1774 1.370 . S
C1775 C1779 1.408 . S
C1776 C1774 1.363 . S
C1776 C1777 1.370 . S
C1776 C1780 1.524 . S
C1777 C1769 1.503 . S
C1777 C1776 1.370 . S
C1777 C1778 1.403 . S
C1778 C1777 1.403 . S
C1778 C1779 1.404 . S
C1778 C1781 1.539 . S
C1779 C1775 1.408 . S
C1779 C1778 1.404 . S
C1779 H1791 0.930 . S
C1780 C1776 1.524 . S
C1780 H1792 0.956 . S
C1780 H1793 0.961 . S
C1780 H1794 0.961 . S
C1781 C1778 1.539 . S
C1781 H1795 0.958 . S
C1781 H1796 0.961 . S
C1781 H1797 0.960 . S
H1782 C1766 0.931 . S
H1783 C1771 0.929 . S
H1784 C1772 0.960 . S
H1785 C1772 0.962 . S
H1786 C1772 0.960 . S
H1787 C1773 0.961 . S
H1788 C1773 0.961 . S
H1789 C1773 0.961 . S
H1790 C1774 0.931 . S
H1791 C1779 0.930 . S
H1792 C1780 0.956 . S
H1793 C1780 0.961 . S
H1794 C1780 0.961 . S
H1795 C1781 0.958 . S
H1796 C1781 0.961 . S
H1797 C1781 0.960 . S
C1798 C1799 1.391 . S
C1798 C1800 1.394 . S
C1798 H1814 0.931 . S
C1799 C1798 1.391 . S
C1799 C1803 1.376 . S
C1800 C1798 1.394 . S
C1800 C1801 1.369 . S
C1800 C1804 1.531 . S
C1801 C1800 1.369 . S
C1801 C1802 1.410 . S
C1801 C1809 1.503 . S
C1802 C1801 1.410 . S
C1802 C1803 1.392 . S
C1802 C1805 1.511 . S
C1803 C1799 1.376 . S
C1803 C1802 1.392 . S
C1803 H1815 0.929 . S
C1804 C1800 1.531 . S
C1804 H1816 0.960 . S
C1804 H1817 0.962 . S
C1804 H1818 0.960 . S
C1805 C1802 1.511 . S
C1805 H1819 0.961 . S
C1805 H1820 0.961 . S
C1805 H1821 0.961 . S
C1806 C1807 1.370 . S
C1806 C1808 1.363 . S
C1806 H1822 0.931 . S
C1807 C1806 1.370 . S
C1807 C1811 1.408 . S
C1808 C1806 1.363 . S
C1808 C1809 1.370 . S
C1808 C1812 1.524 . S
C1809 C1801 1.503 . S
C1809 C1808 1.370 . S
C1809 C1810 1.403 . S
C1810 C1809 1.403 . S
C1810 C1811 1.404 . S
C1810 C1813 1.539 . S
C1811 C1807 1.408 . S
C1811 C1810 1.404 . S
C1811 H1823 0.930 . S
C1812 C1808 1.524 . S
C1812 H1824 0.956 . S
C1812 H1825 0.961 . S
C1812 H1826 0.961 . S
C1813 C1810 1.539 . S
C1813 H1827 0.958 . S
C1813 H1828 0.961 . S
C1813 H1829 0.960 . S
H1814 C1798 0.931 . S
H1815 C1803 0.929 . S
H1816 C1804 0.960 . S
H1817 C1804 0.962 . S
H1818 C1804 0.960 . S
H1819 C1805 0.961 . S
H1820 C1805 0.961 . S
H1821 C1805 0.961 . S
H1822 C1806 0.931 . S
H1823 C1811 0.930 . S
H1824 C1812 0.956 . S
H1825 C1812 0.961 . S
H1826 C1812 0.961 . S
H1827 C1813 0.958 . S
H1828 C1813 0.961 . S
H1829 C1813 0.960 . S
C1830 C1831 1.391 . S
C1830 C1832 1.394 . S
C1830 H1846 0.931 . S
C1831 C1830 1.391 . S
C1831 C1835 1.376 . S
C1832 C1830 1.394 . S
C1832 C1833 1.369 . S
C1832 C1836 1.531 . S
C1833 C1832 1.369 . S
C1833 C1834 1.410 . S
C1833 C1841 1.503 . S
C1834 C1833 1.410 . S
C1834 C1835 1.392 . S
C1834 C1837 1.511 . S
C1835 C1831 1.376 . S
C1835 C1834 1.392 . S
C1835 H1847 0.929 . S
C1836 C1832 1.531 . S
C1836 H1848 0.960 . S
C1836 H1849 0.962 . S
C1836 H1850 0.960 . S
C1837 C1834 1.511 . S
C1837 H1851 0.961 . S
C1837 H1852 0.961 . S
C1837 H1853 0.961 . S
C1838 C1839 1.370 . S
C1838 C1840 1.363 . S
C1838 H1854 0.931 . S
C1839 C1838 1.370 . S
C1839 C1843 1.408 . S
C1840 C1838 1.363 . S
C1840 C1841 1.370 . S
C1840 C1844 1.524 . S
C1841 C1833 1.503 . S
C1841 C1840 1.370 . S
C1841 C1842 1.403 . S
C1842 C1841 1.403 . S
C1842 C1843 1.404 . S
C1842 C1845 1.539 . S
C1843 C1839 1.408 . S
C1843 C1842 1.404 . S
C1843 H1855 0.930 . S
C1844 C1840 1.524 . S
C1844 H1856 0.956 . S
C1844 H1857 0.961 . S
C1844 H1858 0.961 . S
C1845 C1842 1.539 . S
C1845 H1859 0.958 . S
C1845 H1860 0.961 . S
C1845 H1861 0.960 . S
H1846 C1830 0.931 . S
H1847 C1835 0.929 . S
H1848 C1836 0.960 . S
H1849 C1836 0.962 . S
H1850 C1836 0.960 . S
H1851 C1837 0.961 . S
H1852 C1837 0.961 . S
H1853 C1837 0.961 . S
H1854 C1838 0.931 . S
H1855 C1843 0.930 . S
H1856 C1844 0.956 . S
H1857 C1844 0.961 . S
H1858 C1844 0.961 . S
H1859 C1845 0.958 . S
H1860 C1845 0.961 . S
H1861 C1845 0.960 . S
C1862 C1863 1.391 . S
C1862 C1864 1.394 . S
C1862 H1878 0.931 . S
C1863 C1862 1.391 . S
C1863 C1867 1.376 . S
C1864 C1862 1.394 . S
C1864 C1865 1.369 . S
C1864 C1868 1.531 . S
C1865 C1864 1.369 . S
C1865 C1866 1.410 . S
C1865 C1873 1.503 . S
C1866 C1865 1.410 . S
C1866 C1867 1.392 . S
C1866 C1869 1.511 . S
C1867 C1863 1.376 . S
C1867 C1866 1.392 . S
C1867 H1879 0.929 . S
C1868 C1864 1.531 . S
C1868 H1880 0.960 . S
C1868 H1881 0.962 . S
C1868 H1882 0.960 . S
C1869 C1866 1.511 . S
C1869 H1883 0.961 . S
C1869 H1884 0.961 . S
C1869 H1885 0.961 . S
C1870 C1871 1.370 . S
C1870 C1872 1.363 . S
C1870 H1886 0.931 . S
C1871 C1870 1.370 . S
C1871 C1875 1.408 . S
C1872 C1870 1.363 . S
C1872 C1873 1.370 . S
C1872 C1876 1.524 . S
C1873 C1865 1.503 . S
C1873 C1872 1.370 . S
C1873 C1874 1.403 . S
C1874 C1873 1.403 . S
C1874 C1875 1.404 . S
C1874 C1877 1.539 . S
C1875 C1871 1.408 . S
C1875 C1874 1.404 . S
C1875 H1887 0.930 . S
C1876 C1872 1.524 . S
C1876 H1888 0.956 . S
C1876 H1889 0.961 . S
C1876 H1890 0.961 . S
C1877 C1874 1.539 . S
C1877 H1891 0.958 . S
C1877 H1892 0.961 . S
C1877 H1893 0.960 . S
H1878 C1862 0.931 . S
H1879 C1867 0.929 . S
H1880 C1868 0.960 . S
H1881 C1868 0.962 . S
H1882 C1868 0.960 . S
H1883 C1869 0.961 . S
H1884 C1869 0.961 . S
H1885 C1869 0.961 . S
H1886 C1870 0.931 . S
H1887 C1875 0.930 . S
H1888 C1876 0.956 . S
H1889 C1876 0.961 . S
H1890 C1876 0.961 . S
H1891 C1877 0.958 . S
H1892 C1877 0.961 . S
H1893 C1877 0.960 . S
C1894 C1895 1.391 . S
C1894 C1896 1.394 . S
C1894 H1910 0.931 . S
C1895 C1894 1.391 . S
C1895 C1899 1.376 . S
C1896 C1894 1.394 . S
C1896 C1897 1.369 . S
C1896 C1900 1.531 . S
C1897 C1896 1.369 . S
C1897 C1898 1.410 . S
C1897 C1905 1.503 . S
C1898 C1897 1.410 . S
C1898 C1899 1.392 . S
C1898 C1901 1.511 . S
C1899 C1895 1.376 . S
C1899 C1898 1.392 . S
C1899 H1911 0.929 . S
C1900 C1896 1.531 . S
C1900 H1912 0.960 . S
C1900 H1913 0.962 . S
C1900 H1914 0.960 . S
C1901 C1898 1.511 . S
C1901 H1915 0.961 . S
C1901 H1916 0.961 . S
C1901 H1917 0.961 . S
C1902 C1903 1.370 . S
C1902 C1904 1.363 . S
C1902 H1918 0.931 . S
C1903 C1902 1.370 . S
C1903 C1907 1.408 . S
C1904 C1902 1.363 . S
C1904 C1905 1.370 . S
C1904 C1908 1.524 . S
C1905 C1897 1.503 . S
C1905 C1904 1.370 . S
C1905 C1906 1.403 . S
C1906 C1905 1.403 . S
C1906 C1907 1.404 . S
C1906 C1909 1.539 . S
C1907 C1903 1.408 . S
C1907 C1906 1.404 . S
C1907 H1919 0.930 . S
C1908 C1904 1.524 . S
C1908 H1920 0.956 . S
C1908 H1921 0.961 . S
C1908 H1922 0.961 . S
C1909 C1906 1.539 . S
C1909 H1923 0.958 . S
C1909 H1924 0.961 . S
C1909 H1925 0.960 . S
H1910 C1894 0.931 . S
H1911 C1899 0.929 . S
H1912 C1900 0.960 . S
H1913 C1900 0.962 . S
H1914 C1900 0.960 . S
H1915 C1901 0.961 . S
H1916 C1901 0.961 . S
H1917 C1901 0.961 . S
H1918 C1902 0.931 . S
H1919 C1907 0.930 . S
H1920 C1908 0.956 . S
H1921 C1908 0.961 . S
H1922 C1908 0.961 . S
H1923 C1909 0.958 . S
H1924 C1909 0.961 . S
H1925 C1909 0.960 . S
C1926 C1927 1.391 . S
C1926 C1928 1.394 . S
C1926 H1942 0.931 . S
C1927 C1926 1.391 . S
C1927 C1931 1.376 . S
C1928 C1926 1.394 . S
C1928 C1929 1.369 . S
C1928 C1932 1.531 . S
C1929 C1928 1.369 . S
C1929 C1930 1.410 . S
C1929 C1937 1.503 . S
C1930 C1929 1.410 . S
C1930 C1931 1.392 . S
C1930 C1933 1.511 . S
C1931 C1927 1.376 . S
C1931 C1930 1.392 . S
C1931 H1943 0.929 . S
C1932 C1928 1.531 . S
C1932 H1944 0.960 . S
C1932 H1945 0.962 . S
C1932 H1946 0.960 . S
C1933 C1930 1.511 . S
C1933 H1947 0.961 . S
C1933 H1948 0.961 . S
C1933 H1949 0.961 . S
C1934 C1935 1.370 . S
C1934 C1936 1.363 . S
C1934 H1950 0.931 . S
C1935 C1934 1.370 . S
C1935 C1939 1.408 . S
C1936 C1934 1.363 . S
C1936 C1937 1.370 . S
C1936 C1940 1.524 . S
C1937 C1929 1.503 . S
C1937 C1936 1.370 . S
C1937 C1938 1.403 . S
C1938 C1937 1.403 . S
C1938 C1939 1.404 . S
C1938 C1941 1.539 . S
C1939 C1935 1.408 . S
C1939 C1938 1.404 . S
C1939 H1951 0.930 . S
C1940 C1936 1.524 . S
C1940 H1952 0.956 . S
C1940 H1953 0.961 . S
C1940 H1954 0.961 . S
C1941 C1938 1.539 . S
C1941 H1955 0.958 . S
C1941 H1956 0.961 . S
C1941 H1957 0.960 . S
H1942 C1926 0.931 . S
H1943 C1931 0.929 . S
H1944 C1932 0.960 . S
H1945 C1932 0.962 . S
H1946 C1932 0.960 . S
H1947 C1933 0.961 . S
H1948 C1933 0.961 . S
H1949 C1933 0.961 . S
H1950 C1934 0.931 . S
H1951 C1939 0.930 . S
H1952 C1940 0.956 . S
H1953 C1940 0.961 . S
H1954 C1940 0.961 . S
H1955 C1941 0.958 . S
H1956 C1941 0.961 . S
H1957 C1941 0.960 . S
C1958 C1959 1.391 . S
C1958 C1960 1.394 . S
C1958 H1974 0.931 . S
C1959 C1958 1.391 . S
C1959 C1963 1.376 . S
C1960 C1958 1.394 . S
C1960 C1961 1.369 . S
C1960 C1964 1.531 . S
C1961 C1960 1.369 . S
C1961 C1962 1.410 . S
C1961 C1969 1.503 . S
C1962 C1961 1.410 . S
C1962 C1963 1.392 . S
C1962 C1965 1.511 . S
C1963 C1959 1.376 . S
C1963 C1962 1.392 . S
C1963 H1975 0.929 . S
C1964 C1960 1.531 . S
C1964 H1976 0.960 . S
C1964 H1977 0.962 . S
C1964 H1978 0.960 . S
C1965 C1962 1.511 . S
C1965 H1979 0.961 . S
C1965 H1980 0.961 . S
C1965 H1981 0.961 . S
C1966 C1967 1.370 . S
C1966 C1968 1.363 . S
C1966 H1982 0.931 . S
C1967 C1966 1.370 . S
C1967 C1971 1.408 . S
C1968 C1966 1.363 . S
C1968 C1969 1.370 . S
C1968 C1972 1.524 . S
C1969 C1961 1.503 . S
C1969 C1968 1.370 . S
C1969 C1970 1.403 . S
C1970 C1969 1.403 . S
C1970 C1971 1.404 . S
C1970 C1973 1.539 . S
C1971 C1967 1.408 . S
C1971 C1970 1.404 . S
C1971 H1983 0.930 . S
C1972 C1968 1.524 . S
C1972 H1984 0.956 . S
C1972 H1985 0.961 . S
C1972 H1986 0.961 . S
C1973 C1970 1.539 . S
C1973 H1987 0.958 . S
C1973 H1988 0.961 . S
C1973 H1989 0.960 . S
H1974 C1958 0.931 . S
H1975 C1963 0.929 . S
H1976 C1964 0.960 . S
H1977 C1964 0.962 . S
H1978 C1964 0.960 . S
H1979 C1965 0.961 . S
H1980 C1965 0.961 . S
H1981 C1965 0.961 . S
H1982 C1966 0.931 . S
H1983 C1971 0.930 . S
H1984 C1972 0.956 . S
H1985 C1972 0.961 . S
H1986 C1972 0.961 . S
H1987 C1973 0.958 . S
H1988 C1973 0.961 . S
H1989 C1973 0.960 . S
C1990 C1991 1.391 . S
C1990 C1992 1.394 . S
C1990 H2006 0.931 . S
C1991 C1990 1.391 . S
C1991 C1995 1.376 . S
C1992 C1990 1.394 . S
C1992 C1993 1.369 . S
C1992 C1996 1.531 . S
C1993 C1992 1.369 . S
C1993 C1994 1.410 . S
C1993 C2001 1.503 . S
C1994 C1993 1.410 . S
C1994 C1995 1.392 . S
C1994 C1997 1.511 . S
C1995 C1991 1.376 . S
C1995 C1994 1.392 . S
C1995 H2007 0.929 . S
C1996 C1992 1.531 . S
C1996 H2008 0.960 . S
C1996 H2009 0.962 . S
C1996 H2010 0.960 . S
C1997 C1994 1.511 . S
C1997 H2011 0.961 . S
C1997 H2012 0.961 . S
C1997 H2013 0.961 . S
C1998 C1999 1.370 . S
C1998 C2000 1.363 . S
C1998 H2014 0.931 . S
C1999 C1998 1.370 . S
C1999 C2003 1.408 . S
C2000 C1998 1.363 . S
C2000 C2001 1.370 . S
C2000 C2004 1.524 . S
C2001 C1993 1.503 . S
C2001 C2000 1.370 . S
C2001 C2002 1.403 . S
C2002 C2001 1.403 . S
C2002 C2003 1.404 . S
C2002 C2005 1.539 . S
C2003 C1999 1.408 . S
C2003 C2002 1.404 . S
C2003 H2015 0.930 . S
C2004 C2000 1.524 . S
C2004 H2016 0.956 . S
C2004 H2017 0.961 . S
C2004 H2018 0.961 . S
C2005 C2002 1.539 . S
C2005 H2019 0.958 . S
C2005 H2020 0.961 . S
C2005 H2021 0.960 . S
H2006 C1990 0.931 . S
H2007 C1995 0.929 . S
H2008 C1996 0.960 . S
H2009 C1996 0.962 . S
H2010 C1996 0.960 . S
H2011 C1997 0.961 . S
H2012 C1997 0.961 . S
H2013 C1997 0.961 . S
H2014 C1998 0.931 . S
H2015 C2003 0.930 . S
H2016 C2004 0.956 . S
H2017 C2004 0.961 . S
H2018 C2004 0.961 . S
H2019 C2005 0.958 . S
H2020 C2005 0.961 . S
H2021 C2005 0.960 . S
C2022 C2023 1.391 . S
C2022 C2024 1.394 . S
C2022 H2038 0.931 . S
C2023 C2022 1.391 . S
C2023 C2027 1.376 . S
C2024 C2022 1.394 . S
C2024 C2025 1.369 . S
C2024 C2028 1.531 . S
C2025 C2024 1.369 . S
C2025 C2026 1.410 . S
C2025 C2033 1.503 . S
C2026 C2025 1.410 . S
C2026 C2027 1.392 . S
C2026 C2029 1.511 . S
C2027 C2023 1.376 . S
C2027 C2026 1.392 . S
C2027 H2039 0.929 . S
C2028 C2024 1.531 . S
C2028 H2040 0.960 . S
C2028 H2041 0.962 . S
C2028 H2042 0.960 . S
C2029 C2026 1.511 . S
C2029 H2043 0.961 . S
C2029 H2044 0.961 . S
C2029 H2045 0.961 . S
C2030 C2031 1.370 . S
C2030 C2032 1.363 . S
C2030 H2046 0.931 . S
C2031 C2030 1.370 . S
C2031 C2035 1.408 . S
C2032 C2030 1.363 . S
C2032 C2033 1.370 . S
C2032 C2036 1.524 . S
C2033 C2025 1.503 . S
C2033 C2032 1.370 . S
C2033 C2034 1.403 . S
C2034 C2033 1.403 . S
C2034 C2035 1.404 . S
C2034 C2037 1.539 . S
C2035 C2031 1.408 . S
C2035 C2034 1.404 . S
C2035 H2047 0.930 . S
C2036 C2032 1.524 . S
C2036 H2048 0.956 . S
C2036 H2049 0.961 . S
C2036 H2050 0.961 . S
C2037 C2034 1.539 . S
C2037 H2051 0.958 . S
C2037 H2052 0.961 . S
C2037 H2053 0.960 . S
H2038 C2022 0.931 . S
H2039 C2027 0.929 . S
H2040 C2028 0.960 . S
H2041 C2028 0.962 . S
H2042 C2028 0.960 . S
H2043 C2029 0.961 . S
H2044 C2029 0.961 . S
H2045 C2029 0.961 . S
H2046 C2030 0.931 . S
H2047 C2035 0.930 . S
H2048 C2036 0.956 . S
H2049 C2036 0.961 . S
H2050 C2036 0.961 . S
H2051 C2037 0.958 . S
H2052 C2037 0.961 . S
H2053 C2037 0.960 . S
C2054 C2055 1.391 . S
C2054 C2056 1.394 . S
C2054 H2070 0.931 . S
C2055 C2054 1.391 . S
C2055 C2059 1.376 . S
C2056 C2054 1.394 . S
C2056 C2057 1.369 . S
C2056 C2060 1.531 . S
C2057 C2056 1.369 . S
C2057 C2058 1.410 . S
C2057 C2065 1.503 . S
C2058 C2057 1.410 . S
C2058 C2059 1.392 . S
C2058 C2061 1.511 . S
C2059 C2055 1.376 . S
C2059 C2058 1.392 . S
C2059 H2071 0.929 . S
C2060 C2056 1.531 . S
C2060 H2072 0.960 . S
C2060 H2073 0.962 . S
C2060 H2074 0.960 . S
C2061 C2058 1.511 . S
C2061 H2075 0.961 . S
C2061 H2076 0.961 . S
C2061 H2077 0.961 . S
C2062 C2063 1.370 . S
C2062 C2064 1.363 . S
C2062 H2078 0.931 . S
C2063 C2062 1.370 . S
C2063 C2067 1.408 . S
C2064 C2062 1.363 . S
C2064 C2065 1.370 1_565 S
C2064 C2068 1.524 . S
C2065 C2057 1.503 . S
C2065 C2064 1.370 1_545 S
C2065 C2066 1.403 . S
C2066 C2065 1.403 . S
C2066 C2067 1.404 1_545 S
C2066 C2069 1.539 . S
C2067 C2063 1.408 . S
C2067 C2066 1.404 1_565 S
C2067 H2079 0.930 . S
C2068 C2064 1.524 . S
C2068 H2080 0.956 1_565 S
C2068 H2081 0.961 . S
C2068 H2082 0.961 . S
C2069 C2066 1.539 . S
C2069 H2083 0.958 . S
C2069 H2084 0.961 . S
C2069 H2085 0.960 . S
H2070 C2054 0.931 . S
H2071 C2059 0.929 . S
H2072 C2060 0.960 . S
H2073 C2060 0.962 . S
H2074 C2060 0.960 . S
H2075 C2061 0.961 . S
H2076 C2061 0.961 . S
H2077 C2061 0.961 . S
H2078 C2062 0.931 . S
H2079 C2067 0.930 . S
H2080 C2068 0.956 1_545 S
H2081 C2068 0.961 . S
H2082 C2068 0.961 . S
H2083 C2069 0.958 . S
H2084 C2069 0.961 . S
H2085 C2069 0.960 . S
C2086 C2087 1.391 . S
C2086 C2088 1.394 . S
C2086 H2102 0.931 . S
C2087 C2086 1.391 . S
C2087 C2091 1.376 . S
C2088 C2086 1.394 . S
C2088 C2089 1.369 . S
C2088 C2092 1.531 . S
C2089 C2088 1.369 . S
C2089 C2090 1.410 . S
C2089 C2097 1.503 1_455 S
C2090 C2089 1.410 . S
C2090 C2091 1.392 . S
C2090 C2093 1.511 . S
C2091 C2087 1.376 . S
C2091 C2090 1.392 . S
C2091 H2103 0.929 . S
C2092 C2088 1.531 . S
C2092 H2104 0.960 1_455 S
C2092 H2105 0.962 . S
C2092 H2106 0.966 1_455 S
C2093 C2090 1.511 . S
C2093 H2107 0.961 . S
C2093 H2108 0.961 . S
C2093 H2109 0.961 . S
C2094 C2095 1.370 . S
C2094 C2096 1.363 1_655 S
C2094 H2110 0.931 . S
C2095 C2094 1.370 . S
C2095 C2099 1.408 . S
C2096 C2094 1.363 1_455 S
C2096 C2097 1.370 1_455 S
C2096 C2100 1.524 . S
C2097 C2089 1.503 1_655 S
C2097 C2096 1.370 1_655 S
C2097 C2098 1.403 . S
C2098 C2097 1.403 . S
C2098 C2099 1.404 . S
C2098 C2101 1.539 . S
C2099 C2095 1.408 . S
C2099 C2098 1.404 . S
C2099 H2111 0.930 . S
C2100 C2096 1.524 . S
C2100 H2112 0.956 . S
C2100 H2113 0.961 . S
C2100 H2114 0.961 . S
C2101 C2098 1.539 . S
C2101 H2115 0.958 . S
C2101 H2116 0.961 . S
C2101 H2117 0.960 . S
H2102 C2086 0.931 . S
H2103 C2091 0.929 . S
H2104 C2092 0.960 1_655 S
H2105 C2092 0.962 . S
H2106 C2092 0.966 1_655 S
H2107 C2093 0.961 . S
H2108 C2093 0.961 . S
H2109 C2093 0.961 . S
H2110 C2094 0.931 . S
H2111 C2099 0.930 . S
H2112 C2100 0.956 . S
H2113 C2100 0.961 . S
H2114 C2100 0.961 . S
H2115 C2101 0.958 . S
H2116 C2101 0.961 . S
H2117 C2101 0.960 . S
C2118 C2119 1.391 . S
C2118 C2120 1.394 . S
C2118 H2134 0.931 . S
C2119 C2118 1.391 . S
C2119 C2123 1.376 . S
C2120 C2118 1.394 . S
C2120 C2121 1.369 . S
C2120 C2124 1.531 . S
C2121 C2120 1.369 . S
C2121 C2122 1.410 1_556 S
C2121 C2129 1.503 1_556 S
C2122 C2121 1.410 1_554 S
C2122 C2123 1.392 1_554 S
C2122 C2125 1.511 . S
C2123 C2119 1.376 . S
C2123 C2122 1.392 1_556 S
C2123 H2135 0.929 1_556 S
C2124 C2120 1.531 . S
C2124 H2136 0.960 . S
C2124 H2137 0.962 . S
C2124 H2138 0.960 . S
C2125 C2122 1.511 . S
C2125 H2139 0.961 . S
C2125 H2140 0.961 . S
C2125 H2141 0.961 . S
C2126 C2127 1.370 . S
C2126 C2128 1.366 . S
C2126 H2142 0.931 . S
C2127 C2126 1.370 . S
C2127 C2131 1.408 . S
C2128 C2126 1.366 . S
C2128 C2129 1.374 . S
C2128 C2132 1.518 1_554 S
C2129 C2121 1.503 1_554 S
C2129 C2128 1.374 . S
C2129 C2130 1.403 . S
C2130 C2129 1.403 . S
C2130 C2131 1.404 . S
C2130 C2133 1.539 . S
C2131 C2127 1.408 . S
C2131 C2130 1.404 . S
C2131 H2143 0.930 . S
C2132 C2128 1.518 1_556 S
C2132 H2144 0.956 . S
C2132 H2145 0.961 . S
C2132 H2146 0.961 . S
C2133 C2130 1.539 . S
C2133 H2147 0.958 . S
C2133 H2148 0.961 . S
C2133 H2149 0.960 . S
H2134 C2118 0.931 . S
H2135 C2123 0.929 1_554 S
H2136 C2124 0.960 . S
H2137 C2124 0.962 . S
H2138 C2124 0.960 . S
H2139 C2125 0.961 . S
H2140 C2125 0.961 . S
H2141 C2125 0.961 . S
H2142 C2126 0.931 . S
H2143 C2131 0.930 . S
H2144 C2132 0.956 . S
H2145 C2132 0.961 . S
H2146 C2132 0.961 . S
H2147 C2133 0.958 . S
H2148 C2133 0.961 . S
H2149 C2133 0.960 . S
C2150 C2151 1.391 . S
C2150 C2152 1.394 1_565 S
C2150 H2166 0.931 . S
C2151 C2150 1.391 . S
C2151 C2155 1.376 . S
C2152 C2150 1.394 1_545 S
C2152 C2153 1.369 1_545 S
C2152 C2156 1.532 . S
C2153 C2152 1.369 1_565 S
C2153 C2154 1.410 . S
C2153 C2161 1.503 1_566 S
C2154 C2153 1.410 . S
C2154 C2155 1.392 . S
C2154 C2157 1.511 . S
C2155 C2151 1.376 . S
C2155 C2154 1.392 . S
C2155 H2167 0.929 . S
C2156 C2152 1.532 . S
C2156 H2168 0.960 . S
C2156 H2169 0.960 1_556 S
C2156 H2170 0.962 . S
C2157 C2154 1.511 . S
C2157 H2171 0.961 . S
C2157 H2172 0.961 . S
C2157 H2173 0.961 . S
C2158 C2159 1.370 . S
C2158 C2160 1.363 . S
C2158 H2174 0.931 . S
C2159 C2158 1.370 . S
C2159 C2163 1.408 . S
C2160 C2158 1.363 . S
C2160 C2161 1.370 . S
C2160 C2164 1.524 1_545 S
C2161 C2153 1.503 1_544 S
C2161 C2160 1.370 . S
C2161 C2162 1.403 1_554 S
C2162 C2161 1.403 1_556 S
C2162 C2163 1.404 1_556 S
C2162 C2165 1.539 . S
C2163 C2159 1.408 . S
C2163 C2162 1.404 1_554 S
C2163 H2175 0.930 . S
C2164 C2160 1.524 1_565 S
C2164 H2176 0.956 . S
C2164 H2177 0.961 . S
C2164 H2178 0.961 . S
C2165 C2162 1.539 . S
C2165 H2179 0.958 . S
C2165 H2180 0.961 . S
C2165 H2181 0.960 . S
H2166 C2150 0.931 . S
H2167 C2155 0.929 . S
H2168 C2156 0.960 . S
H2169 C2156 0.960 1_554 S
H2170 C2156 0.962 . S
H2171 C2157 0.961 . S
H2172 C2157 0.961 . S
H2173 C2157 0.961 . S
H2174 C2158 0.931 . S
H2175 C2163 0.930 . S
H2176 C2164 0.956 . S
H2177 C2164 0.961 . S
H2178 C2164 0.961 . S
H2179 C2165 0.958 . S
H2180 C2165 0.961 . S
H2181 C2165 0.960 . S
C2182 C2183 1.391 . S
C2182 C2184 1.394 . S
C2182 H2198 0.931 . S
C2183 C2182 1.391 . S
C2183 C2187 1.376 . S
C2184 C2182 1.394 . S
C2184 C2185 1.369 . S
C2184 C2188 1.531 . S
C2185 C2184 1.369 . S
C2185 C2186 1.410 1_556 S
C2185 C2193 1.503 1_556 S
C2186 C2185 1.410 1_554 S
C2186 C2187 1.392 1_554 S
C2186 C2189 1.511 . S
C2187 C2183 1.376 . S
C2187 C2186 1.392 1_556 S
C2187 H2199 0.929 1_556 S
C2188 C2184 1.531 . S
C2188 H2200 0.960 . S
C2188 H2201 0.962 1_455 S
C2188 H2202 0.960 . S
C2189 C2186 1.511 . S
C2189 H2203 0.961 . S
C2189 H2204 0.961 . S
C2189 H2205 0.961 . S
C2190 C2191 1.370 . S
C2190 C2192 1.363 . S
C2190 H2206 0.931 . S
C2191 C2190 1.370 . S
C2191 C2195 1.408 . S
C2192 C2190 1.363 . S
C2192 C2193 1.370 1_655 S
C2192 C2196 1.524 . S
C2193 C2185 1.503 1_554 S
C2193 C2192 1.370 1_455 S
C2193 C2194 1.403 . S
C2194 C2193 1.403 . S
C2194 C2195 1.404 1_455 S
C2194 C2197 1.539 . S
C2195 C2191 1.408 . S
C2195 C2194 1.404 1_655 S
C2195 H2207 0.915 1_655 S
C2196 C2192 1.524 . S
C2196 H2208 0.956 1_554 S
C2196 H2209 0.961 . S
C2196 H2210 0.961 . S
C2197 C2194 1.539 . S
C2197 H2211 0.958 1_554 S
C2197 H2212 0.961 . S
C2197 H2213 0.960 . S
H2198 C2182 0.931 . S
H2199 C2187 0.929 1_554 S
H2200 C2188 0.960 . S
H2201 C2188 0.962 1_655 S
H2202 C2188 0.960 . S
H2203 C2189 0.961 . S
H2204 C2189 0.961 . S
H2205 C2189 0.961 . S
H2206 C2190 0.931 . S
H2207 C2195 0.915 1_455 S
H2208 C2196 0.956 1_556 S
H2209 C2196 0.961 . S
H2210 C2196 0.961 . S
H2211 C2197 0.958 1_556 S
H2212 C2197 0.961 . S
H2213 C2197 0.960 . S
C1063 C33 1.228 . S
C1071 C829 1.243 1_554 S
C1095 C711 1.179 1_554 S
C1103 C62 1.177 . S
C1127 C151 1.445 1_565 S
C1135 C800 1.448 1_554 S
C1159 C387 1.161 . S
C1167 C121 1.175 . S
C1191 C416 1.141 . S
C1199 C3 1.159 . S
C1223 C475 1.365 . S
C1231 C92 1.364 . S
C1255 C180 1.140 . S
C1263 C652 1.159 1_556 S
C1287 C534 1.019 1_556 S
C1295 C239 1.037 . S
C1319 C593 1.320 1_556 S
C1327 C328 1.329 . S
C1351 C298 1.216 . S
C1359 C888 1.223 . S
C1383 C210 1.187 . S
C1391 C947 1.203 . S
C1415 C1036 1.460 . S
C1423 C269 1.460 . S
C1447 C741 1.305 . S
C1455 C505 1.310 . S
C1479 C357 1.200 . S
C1487 C770 1.219 . S
C1511 C859 1.527 . S
C1519 C446 1.529 . S
C1543 C1006 1.360 . S
C1551 C564 1.366 . S
C1575 C623 1.313 . S
C1583 C918 1.312 . S
C1607 C977 1.549 . S
C1615 C682 1.550 . S
C1639 C937 1.959 . S
C1647 C5 1.886 . S
C1671 C111 1.784 . S
C1679 C996 1.771 . S
C1703 C123 1.576 . S
C1711 C1008 1.621 . S
C1735 C170 1.587 . S
C1743 C701 1.548 . S
C1767 C583 1.997 . S
C1775 C52 1.969 . S
C1799 C64 1.748 . S
C1807 C642 1.819 . S
C1831 C359 1.971 . S
C1839 C229 1.963 . S
C1863 C465 1.563 . S
C1871 C288 1.557 . S
C1895 C300 1.725 . S
C1903 C524 1.748 . S
C1927 C347 1.769 . S
C1935 C878 1.789 . S
C1959 C182 1.767 . S
C1967 C760 1.857 . S
C1991 C241 1.809 . S
C1999 C772 1.858 . S
C2023 C477 1.699 . S
C2031 C1055 1.708 . S
C2055 C406 2.033 . S
C2063 C890 2.008 . S
C2087 C949 1.808 . S
C2095 C418 1.861 . S
C2119 C713 2.013 . S
C2127 C536 1.952 . S
C2151 C819 1.637 . S
C2159 C595 1.632 . S
C2183 C831 1.797 . S
C2191 C654 1.771 . S
