# Generated by pormake.
# Topology uom, (4)-cn, num edge types: 1
# Building blocks:
#     Node 0, Type 0, BuildingBlock: MUDLON_clean_sbu_0, # of connection points: 4
#     Node 1, Type 0, BuildingBlock: MUDLON_clean_sbu_0, # of connection points: 4
#     Node 2, Type 0, BuildingBlock: MUDLON_clean_sbu_0, # of connection points: 4
#     Node 3, Type 0, BuildingBlock: MUDLON_clean_sbu_0, # of connection points: 4
#     Node 4, Type 0, BuildingBlock: MUDLON_clean_sbu_0, # of connection points: 4
#     Node 5, Type 0, BuildingBlock: MUDLON_clean_sbu_0, # of connection points: 4
#     Edge 6, Type (0, 0), BuildingBlock: FUNLAD_clean_linker_1, # of connection points: 2
#     Edge 7, Type (0, 0), BuildingBlock: FUNLAD_clean_linker_1, # of connection points: 2
#     Edge 8, Type (0, 0), BuildingBlock: FUNLAD_clean_linker_1, # of connection points: 2
#     Edge 9, Type (0, 0), BuildingBlock: FUNLAD_clean_linker_1, # of connection points: 2
#     Edge 10, Type (0, 0), BuildingBlock: FUNLAD_clean_linker_1, # of connection points: 2
#     Edge 11, Type (0, 0), BuildingBlock: FUNLAD_clean_linker_1, # of connection points: 2
#     Edge 12, Type (0, 0), BuildingBlock: FUNLAD_clean_linker_1, # of connection points: 2
#     Edge 13, Type (0, 0), BuildingBlock: FUNLAD_clean_linker_1, # of connection points: 2
#     Edge 14, Type (0, 0), BuildingBlock: FUNLAD_clean_linker_1, # of connection points: 2
#     Edge 15, Type (0, 0), BuildingBlock: FUNLAD_clean_linker_1, # of connection points: 2
#     Edge 16, Type (0, 0), BuildingBlock: FUNLAD_clean_linker_1, # of connection points: 2
#     Edge 17, Type (0, 0), BuildingBlock: FUNLAD_clean_linker_1, # of connection points: 2
# Relax obj value: 0.094
# Max RMSD: 0.085
# Mean RMSD: 0.085
data_MOF--net-uom--node1-MUDLON_clean_sbu_0--edge1-FUNLAD_clean_linker_1
_symmetry_space_group_name_H-M    P1
_symmetry_Int_Tables_number       1
_symmetry_cell_setting            triclinic
loop_
_symmetry_equiv_pos_as_xyz
'x, y, z'
_cell_length_a     30.131157
_cell_length_b     30.799716
_cell_length_c     41.953775
_cell_angle_alpha  89.843251
_cell_angle_beta   89.879732
_cell_angle_gamma 118.29404
loop_
_atom_site_label
_atom_site_type_symbol
_atom_site_fract_x
_atom_site_fract_y
_atom_site_fract_z
_atom_type_partial_charge
Mg0 Mg 0.2853 0.04613 0.07854 0.0
C1 C 0.33125 0.11001 0.13283 0.0
O2 O 0.33278 0.06888 0.13884 0.0
C3 C 0.24761 0.00374 1.01374 0.0
O4 O 0.25192 0.96799 1.02817 0.0
C5 C 0.35547 0.99896 0.09704 0.0
O6 O 0.32014 0.97064 0.11722 0.0
O7 O 0.3484 0.02861 0.0792 0.0
O8 O 0.31488 0.11489 0.10575 0.0
O9 O 0.21554 0.00782 0.10657 0.0
C10 C 0.17261 0.98301 0.09357 0.0
O11 O 0.17023 0.96696 0.06441 0.0
O12 O 0.26136 0.04425 1.02855 0.0
Mg13 Mg 0.32484 0.26889 0.42717 0.0
C14 C 0.32079 0.29007 0.49535 0.0
O15 O 0.30881 0.32063 0.48044 0.0
C16 C 0.34547 0.24572 0.36389 0.0
O17 O 0.32127 0.27142 0.36023 0.0
C18 C 0.40921 0.36549 0.41591 0.0
O19 O 0.42886 0.336 0.42087 0.0
O20 O 0.36149 0.34737 0.41649 0.0
O21 O 0.33317 0.26282 0.47877 0.0
O22 O 0.24449 0.22415 0.41876 0.0
C23 C 0.22783 0.18313 0.43346 0.0
O24 O 0.25824 0.17574 0.45239 0.0
O25 O 0.35565 0.23779 0.39211 0.0
Mg26 Mg 0.09192 0.3232 0.74861 0.0
C27 C 0.08912 0.26822 0.81143 0.0
O28 O 0.11855 0.25501 0.79581 0.0
C29 C 0.1753 0.31091 0.71658 0.0
O30 O 0.14497 0.26512 0.72482 0.0
C31 C 0.11225 0.42758 0.74778 0.0
O32 O 0.15506 0.43093 0.75767 0.0
O33 O 0.07594 0.38512 0.74144 0.0
O34 O 0.07691 0.29864 0.7987 0.0
O35 O 0.04484 0.25601 0.7228 0.0
C36 C 1.00735 0.22061 0.73636 0.0
O37 O 0.98952 0.22887 0.76291 0.0
O38 O 0.16573 0.34462 0.72653 0.0
Mg39 Mg 0.80998 0.04352 0.07393 0.0
C40 C 0.75552 0.96581 0.12183 0.0
O41 O 0.74327 1.00026 0.12902 0.0
C42 C 0.8731 0.09195 1.0159 0.0
O43 O 0.89905 0.12201 0.03895 0.0
C44 C 0.73248 0.07898 0.05902 0.0
O45 O 0.75526 0.0888 0.03121 0.0
O46 O 0.75016 0.06451 0.08183 0.0
O47 O 0.78046 0.97054 0.09628 0.0
O48 O 0.88265 0.07897 0.09843 0.0
C49 C 0.88944 0.07228 0.1276 0.0
O50 O 0.85097 0.05426 0.14731 0.0
O51 O 0.83205 0.05334 1.02292 0.0
Mg52 Mg 0.80659 0.81751 0.4078 0.0
C53 C 0.78763 0.80521 0.48132 0.0
O54 O 0.74663 0.76451 0.47412 0.0
C55 C 0.75712 0.82457 0.3484 0.0
O56 O 0.76231 0.78496 0.34412 0.0
C57 C 0.71776 0.72013 0.40526 0.0
O58 O 0.69912 0.75077 0.40857 0.0
O59 O 0.76537 0.73752 0.40372 0.0
O60 O 0.81437 0.83417 0.45911 0.0
O61 O 0.88576 0.856 0.39311 0.0
C62 C 0.89969 0.88066 0.36723 0.0
O63 O 0.866 0.87462 0.34559 0.0
O64 O 0.76987 0.84662 0.37518 0.0
Mg65 Mg 1.00966 0.79809 0.73752 0.0
C66 C 0.05673 0.84522 0.79861 0.0
O67 O 0.09212 0.86734 0.777 0.0
C68 C 0.89931 0.77269 0.71288 0.0
O69 O 0.8868 0.7792 0.74177 0.0
C70 C 1.00381 0.70126 0.72288 0.0
O71 O 0.95674 0.69225 0.7211 0.0
O72 O 0.03795 0.7452 0.72846 0.0
O73 O 1.01374 0.81131 0.78955 0.0
O74 O 0.04831 0.87301 0.71878 0.0
C75 C 1.02216 0.89329 0.72789 0.0
O76 O 0.98324 0.86809 0.74664 0.0
O77 O 0.942 0.77492 0.70786 0.0
H78 H 0.32677 0.17215 0.15677 0.0
C79 C 0.34001 0.14508 0.15925 0.0
H80 H 0.37121 0.11204 0.1896 0.0
H81 H 0.4088 0.30628 0.27742 0.0
H82 H 0.46206 0.3573 0.23439 0.0
H83 H 0.46809 0.3202 0.18362 0.0
H84 H 0.42056 0.23193 0.17542 0.0
C85 C 0.35878 0.13977 0.18735 0.0
C86 C 0.35517 0.16347 0.21762 0.0
C87 C 0.38352 0.21511 0.22214 0.0
C88 C 0.38051 0.23644 0.25167 0.0
C89 C 0.40931 0.28815 0.25546 0.0
C90 C 0.44025 0.31786 0.23102 0.0
C91 C 0.44362 0.29697 0.20242 0.0
C92 C 0.41587 0.24623 0.19796 0.0
H93 H 0.37569 0.2015 0.33906 0.0
C94 C 0.35712 0.22398 0.33565 0.0
H95 H 0.32511 0.25316 0.30274 0.0
H96 H 0.29609 0.06299 0.21726 0.0
H97 H 0.24458 0.01191 0.26061 0.0
H98 H 0.23944 0.04877 0.31161 0.0
H99 H 0.28507 0.13691 0.31941 0.0
C100 C 0.34256 0.22967 0.30618 0.0
C101 C 0.34982 0.20615 0.2769 0.0
C102 C 0.32206 0.15435 0.27255 0.0
C103 C 0.32495 0.13306 0.243 0.0
C104 C 0.29618 0.08126 0.23926 0.0
C105 C 0.2661 0.05139 0.26391 0.0
C106 C 0.26317 0.07215 0.29261 0.0
C107 C 0.2901 0.12297 0.29686 0.0
H108 H 0.31602 0.25271 0.54164 0.0
C109 C 0.3131 0.28304 0.53034 0.0
H110 H 0.296 0.34159 0.53653 0.0
H111 H 0.14485 0.2153 0.6499 0.0
H112 H 0.09419 0.16123 0.60783 0.0
H113 H 0.1279 0.16986 0.55323 0.0
H114 H 0.21266 0.23264 0.54047 0.0
C115 C 0.2982 0.31076 0.54763 0.0
C116 C 0.28119 0.29991 0.58157 0.0
C117 C 0.23173 0.2624 0.58886 0.0
C118 C 0.21232 0.25741 0.62046 0.0
C119 C 0.16213 0.2205 0.62662 0.0
C120 C 0.13236 0.18923 0.60259 0.0
C121 C 0.15132 0.1941 0.57186 0.0
C122 C 0.20022 0.23031 0.5649 0.0
H123 H 0.22735 0.35716 0.67849 0.0
C124 C 0.21181 0.32135 0.69013 0.0
H125 H 0.20366 0.24958 0.6889 0.0
H126 H 0.37801 0.37364 0.57608 0.0
H127 H 0.43039 0.4263 0.6186 0.0
H128 H 0.39799 0.41591 0.67369 0.0
H129 H 0.31287 0.3533 0.68659 0.0
C130 C 0.22012 0.2856 0.67746 0.0
C131 C 0.24237 0.28998 0.64487 0.0
C132 C 0.29266 0.32597 0.63786 0.0
C133 C 0.31178 0.33128 0.60614 0.0
C134 C 0.36172 0.36813 0.59972 0.0
C135 C 0.39221 0.39842 0.62391 0.0
C136 C 0.37394 0.39261 0.65493 0.0
C137 C 0.32486 0.35676 0.66198 0.0
H138 H 0.86509 0.08445 0.96309 0.0
C139 C 0.89036 0.10518 0.98228 0.0
H140 H 0.9604 0.16484 0.99491 0.0
H141 H 1.00794 0.14769 0.84203 0.0
H142 H 0.99233 0.06457 0.85368 0.0
H143 H 0.96066 0.02696 0.90644 0.0
H144 H 0.943 0.07178 0.9476 0.0
C145 C 0.93591 0.14384 0.97546 0.0
C146 C 0.95307 0.16463 0.94264 0.0
C147 C 0.96508 0.13867 0.91918 0.0
C148 C 0.9862 0.16153 0.88925 0.0
C149 C 0.99456 0.13337 0.86567 0.0
C150 C 0.98529 0.08535 0.87194 0.0
C151 C 0.96726 0.0641 0.90161 0.0
C152 C 0.95712 0.09022 0.92501 0.0
H153 H 0.0874 0.22942 0.85632 0.0
C154 C 0.06727 0.24437 0.84249 0.0
H155 H 1.00121 0.25118 0.83834 0.0
H156 H 0.93096 0.2237 0.98087 0.0
H157 H 0.94927 0.30785 0.97002 0.0
H158 H 0.99075 0.34919 0.91985 0.0
H159 H 1.01381 0.30657 0.88012 0.0
C160 C 1.02158 0.23684 0.8525 0.0
C161 C 0.99799 0.21141 0.88338 0.0
C162 C 0.98528 0.23702 0.90672 0.0
C163 C 0.96245 0.21354 0.93608 0.0
C164 C 0.94941 0.23997 0.95852 0.0
C165 C 0.95947 0.28828 0.95255 0.0
C166 C 0.98271 0.31151 0.92428 0.0
C167 C 0.99559 0.28645 0.90159 0.0
H168 H 0.76552 0.90394 0.14158 0.0
C169 C 0.75043 0.92906 0.14644 0.0
H170 H 0.71769 0.95548 0.18078 0.0
H171 H 0.64576 0.78497 0.28138 0.0
H172 H 0.56637 0.76124 0.25436 0.0
H173 H 0.5638 0.8014 0.20394 0.0
H174 H 0.64062 0.86544 0.1801 0.0
C175 C 0.73323 0.93074 0.17591 0.0
C176 C 0.73605 0.90164 0.2036 0.0
C177 C 0.69094 0.86423 0.21725 0.0
C178 C 0.69242 0.84087 0.24628 0.0
C179 C 0.64674 0.80368 0.2593 0.0
C180 C 0.60094 0.78978 0.24407 0.0
C181 C 0.59949 0.81244 0.2157 0.0
C182 C 0.64381 0.84926 0.20234 0.0
H183 H 0.74803 0.88375 0.3237 0.0
C184 C 0.74672 0.84815 0.3206 0.0
H185 H 0.73932 0.79297 0.28783 0.0
H186 H 0.82989 0.97294 0.18472 0.0
H187 H 0.9091 0.99478 0.21095 0.0
H188 H 0.91183 0.95213 0.26017 0.0
H189 H 0.83507 0.88807 0.28377 0.0
C190 C 0.74078 0.82858 0.29118 0.0
C191 C 0.73899 0.85509 0.2618 0.0
C192 C 0.78432 0.89169 0.24781 0.0
C193 C 0.78285 0.91535 0.21888 0.0
C194 C 0.82865 0.95301 0.20621 0.0
C195 C 0.87451 0.96601 0.22107 0.0
C196 C 0.87604 0.94207 0.24881 0.0
C197 C 0.83164 0.90538 0.26214 0.0
H198 H 0.82908 0.76432 0.69033 0.0
C199 C 0.86663 0.76926 0.68548 0.0
H200 H 0.92229 0.78388 0.65029 0.0
H201 H 0.73588 0.69432 0.54914 0.0
H202 H 0.71369 0.61581 0.57387 0.0
H203 H 0.7548 0.61087 0.62348 0.0
H204 H 0.81888 0.68483 0.64852 0.0
C205 C 0.88383 0.77625 0.65517 0.0
C206 C 0.85413 0.77953 0.62757 0.0
C207 C 0.81548 0.73626 0.61368 0.0
C208 C 0.79123 0.73934 0.5852 0.0
C209 C 0.75476 0.69489 0.57111 0.0
C210 C 0.74177 0.64926 0.58497 0.0
C211 C 0.76493 0.64647 0.61289 0.0
C212 C 0.80156 0.68927 0.62707 0.0
H213 H 0.84977 0.83395 0.51599 0.0
C214 C 0.80915 0.81184 0.51381 0.0
H215 H 0.74082 0.76632 0.53702 0.0
H216 H 0.9281 0.86946 0.64703 0.0
H217 H 0.94905 0.94889 0.62343 0.0
H218 H 0.89935 0.95533 0.57883 0.0
H219 H 0.83108 0.88209 0.55581 0.0
C220 C 0.78136 0.78827 0.53967 0.0
C221 C 0.8047 0.78604 0.57096 0.0
C222 C 0.84126 0.82956 0.58618 0.0
C223 C 0.86738 0.8261 0.61359 0.0
C224 C 0.90646 0.86994 0.6266 0.0
C225 C 0.91859 0.91583 0.61349 0.0
C226 C 0.89087 0.91943 0.5882 0.0
C227 C 0.85225 0.87699 0.57488 0.0
H228 H 0.2261 0.02656 0.96837 0.0
C229 C 0.22385 0.99529 0.9817 0.0
H230 H 0.19734 0.91845 0.98267 0.0
H231 H 0.05203 0.92574 0.86649 0.0
H232 H 1.01667 0.95866 0.90566 0.0
H233 H 0.05307 0.98084 0.95952 0.0
H234 H 0.1257 0.97128 0.9744 0.0
C235 C 0.19903 0.94946 0.96928 0.0
C236 C 0.17735 0.93842 0.93632 0.0
C237 C 0.13387 0.94283 0.92824 0.0
C238 C 0.11165 0.92834 0.89739 0.0
C239 C 0.06959 0.93502 0.88969 0.0
C240 C 0.04898 0.95395 0.91194 0.0
C241 C 0.06955 0.96656 0.94225 0.0
C242 C 0.11141 0.96106 0.95046 0.0
H243 H 0.04227 0.8351 0.85099 0.0
C244 C 0.06862 0.85833 0.83281 0.0
H245 H 0.13926 0.91971 0.82297 0.0
H246 H 0.26082 0.9258 0.94332 0.0
H247 H 0.2946 0.89079 0.90471 0.0
H248 H 0.25421 0.86267 0.85234 0.0
H249 H 0.17988 0.86954 0.83821 0.0
C250 C 0.11283 0.89727 0.84138 0.0
C251 C 0.13198 0.9081 0.87491 0.0
C252 C 0.17503 0.90315 0.8832 0.0
C253 C 0.1978 0.9185 0.9137 0.0
C254 C 0.24136 0.9139 0.92081 0.0
C255 C 0.26134 0.89404 0.8988 0.0
C256 C 0.23867 0.87832 0.8693 0.0
C257 C 0.19608 0.8827 0.86146 0.0
H258 H 0.09223 0.96326 0.09394 0.0
C259 C 0.12758 0.98459 0.10646 0.0
H260 H 0.16678 0.04258 0.13877 0.0
H261 H 0.04058 0.15025 0.10125 0.0
H262 H 0.12505 0.20851 0.08381 0.0
H263 H 0.19436 0.18745 0.08695 0.0
H264 H 0.17987 0.10838 0.10762 0.0
C265 C 0.13087 0.01894 0.12754 0.0
C266 C 0.09009 0.03358 0.12956 0.0
C267 C 0.09938 0.08037 0.11763 0.0
C268 C 0.05922 0.09229 0.11529 0.0
C269 C 0.06955 0.13907 0.10307 0.0
C270 C 0.11788 0.17292 0.09308 0.0
C271 C 0.15691 0.16109 0.0949 0.0
C272 C 0.14801 0.11545 0.10692 0.0
H273 H 0.94379 0.07114 0.16273 0.0
C274 C 0.93687 0.07271 0.13745 0.0
H275 H 0.95956 0.06759 0.09061 0.0
H276 H 0.06163 0.94525 0.15907 0.0
H277 H 0.97712 0.88687 0.17667 0.0
H278 H 0.90633 0.90505 0.16956 0.0
H279 H 0.91948 0.98162 0.14539 0.0
C280 C 0.96674 0.0667 0.11592 0.0
C281 C 1.00968 0.0575 0.12463 0.0
C282 C 1.00086 0.01167 0.13812 0.0
C283 C 0.04133 1.00019 0.1411 0.0
C284 C 0.03188 0.95497 0.15543 0.0
C285 C 0.98367 0.92129 0.16574 0.0
C286 C 0.94384 0.93159 0.16181 0.0
C287 C 0.95203 0.97599 0.14801 0.0
H288 H 0.956 0.94931 0.34463 0.0
C289 C 0.94959 0.92475 0.3648 0.0
H290 H 0.97588 0.91592 0.4095 0.0
H291 H 0.16835 0.11989 0.34657 0.0
H292 H 0.16692 0.06975 0.3018 0.0
H293 H 0.10287 0.98224 0.29848 0.0
H294 H 0.03837 0.94498 0.3392 0.0
C295 C 0.98314 0.93946 0.38869 0.0
C296 C 0.02406 0.99159 0.39082 0.0
C297 C 0.06274 0.01221 0.36739 0.0
C298 C 0.1011 0.06215 0.37 0.0
C299 C 0.13867 0.08209 0.34599 0.0
C300 C 0.13849 0.05362 0.32022 0.0
C301 C 0.10218 0.00445 0.31825 0.0
C302 C 0.06499 0.98366 0.34164 0.0
H303 H 0.16525 0.11016 0.44403 0.0
C304 C 0.17717 0.14174 0.42814 0.0
H305 H 0.16045 0.16829 0.38584 0.0
H306 H 0.95285 0.96572 0.43832 0.0
H307 H 0.95271 0.01733 0.48164 0.0
H308 H 1.01995 0.10342 0.48625 0.0
H309 H 0.08781 0.13829 0.44738 0.0
C310 C 0.14801 0.13849 0.40317 0.0
C311 C 0.1021 0.09064 0.39675 0.0
C312 C 0.06219 0.07086 0.4193 0.0
C313 C 0.02331 0.02131 0.41645 0.0
C314 C 0.98388 0.00281 0.43939 0.0
C315 C 0.98312 0.03216 0.46437 0.0
C316 C 1.02098 0.0806 0.46698 0.0
C317 C 0.05996 0.1 0.44469 0.0
H318 H 0.9623 0.1399 0.74091 0.0
C319 C 0.99353 0.16921 0.72803 0.0
H320 H 0.05741 0.18741 0.69903 0.0
H321 H 0.08783 0.01428 0.75759 0.0
H322 H 0.15512 0.0854 0.78271 0.0
H323 H 0.16147 0.16783 0.77664 0.0
H324 H 0.10025 0.17906 0.74541 0.0
C325 C 0.02413 0.15819 0.71033 0.0
C326 C 1.02083 0.10847 0.71237 0.0
C327 C 0.05728 0.10225 0.7304 0.0
C328 C 0.0535 0.05467 0.73396 0.0
C329 C 0.08932 0.04951 0.75326 0.0
C330 C 0.1281 0.0901 0.76811 0.0
C331 C 0.13171 0.13647 0.76468 0.0
C332 C 0.09661 0.14256 0.74633 0.0
H333 H 0.06732 0.96562 0.7037 0.0
C334 C 0.03395 0.94371 0.71804 0.0
H335 H 0.9695 0.9398 0.74081 0.0
H336 H 0.9466 0.10817 0.67491 0.0
H337 H 0.87634 0.03632 0.65179 0.0
H338 H 0.86755 0.95323 0.65967 0.0
H339 H 0.92979 0.94154 0.68978 0.0
C340 C 1.00371 0.96251 0.72738 0.0
C341 C 1.01291 0.01324 0.71964 0.0
C342 C 0.97641 0.0195 0.7017 0.0
C343 C 0.98077 0.06724 0.69771 0.0
C344 C 0.94439 0.07253 0.6792 0.0
C345 C 0.904 0.03166 0.66572 0.0
C346 C 0.89908 0.98488 0.67014 0.0
C347 C 0.93494 0.97867 0.68765 0.0
H348 H 0.67306 0.09652 0.04287 0.0
C349 C 0.6832 0.0787 0.06178 0.0
H350 H 0.6577 0.03385 0.10297 0.0
H351 H 0.47551 0.07552 0.13433 0.0
H352 H 0.53162 0.11617 0.17849 0.0
H353 H 0.6174 0.12516 0.17965 0.0
H354 H 0.64777 0.0937 0.13659 0.0
C355 C 0.64831 0.05216 0.08401 0.0
C356 C 0.59575 0.04597 0.08327 0.0
C357 C 0.57811 0.06392 0.10881 0.0
C358 C 0.52835 0.05849 0.10822 0.0
C359 C 0.51253 0.07801 0.13371 0.0
C360 C 0.54443 0.10159 0.15918 0.0
C361 C 0.59275 0.10666 0.15983 0.0
C362 C 0.60965 0.08829 0.13498 0.0
H363 H 0.40983 0.97427 0.11344 0.0
C364 C 0.40516 0.99964 0.09748 0.0
H365 H 0.44081 0.05735 0.06388 0.0
H366 H 0.61334 0.99951 0.03282 0.0
H367 H 0.55711 0.95896 0.98884 0.0
H368 H 0.47266 0.95311 0.98674 0.0
H369 H 0.44366 0.98724 1.029 0.0
C370 C 0.44501 0.03214 0.08023 0.0
C371 C 0.49589 0.03477 0.08218 0.0
C372 C 0.51312 0.01603 0.05693 0.0
C373 C 0.56259 0.02078 0.0577 0.0
C374 C 0.57725 0.99903 0.03292 0.0
C375 C 0.54509 0.97515 1.00761 0.0
C376 C 0.4975 0.97176 1.00646 0.0
C377 C 0.4814 0.99166 0.03082 0.0
H378 H 0.70016 0.64166 0.40391 0.0
C379 C 0.68383 0.66642 0.40475 0.0
H380 H 0.61675 0.67238 0.40614 0.0
H381 H 0.47657 0.45856 0.35309 0.0
H382 H 0.48425 0.5076 0.30609 0.0
H383 H 0.54388 0.59668 0.30475 0.0
H384 H 0.59659 0.63718 0.35036 0.0
C385 C 0.63346 0.64792 0.40624 0.0
C386 C 0.59838 0.59399 0.40707 0.0
C387 C 0.56707 0.57105 0.38048 0.0
C388 C 0.53207 0.51981 0.38144 0.0
C389 C 0.50281 0.49755 0.35403 0.0
C390 C 0.50705 0.52523 0.32678 0.0
C391 C 0.54066 0.57538 0.32602 0.0
C392 C 0.57056 0.59818 0.35241 0.0
H393 H 0.42553 0.44318 0.4095 0.0
C394 C 0.44238 0.41893 0.41132 0.0
H395 H 0.5098 0.4138 0.41312 0.0
H396 H 0.64991 0.62733 0.46321 0.0
H397 H 0.64193 0.57854 0.51033 0.0
H398 H 0.58177 0.48961 0.51191 0.0
H399 H 0.52902 0.44904 0.46641 0.0
C400 C 0.49286 0.43786 0.41039 0.0
C401 C 0.5278 0.49185 0.4093 0.0
C402 C 0.55899 0.5149 0.43595 0.0
C403 C 0.59408 0.56608 0.43494 0.0
C404 C 0.62346 0.58839 0.46233 0.0
C405 C 0.61907 0.56086 0.48967 0.0
C406 C 0.58519 0.51081 0.49056 0.0
C407 C 0.55527 0.48795 0.46418 0.0
H408 H 0.98309 0.62383 0.7135 0.0
C409 C 1.01441 0.65913 0.72024 0.0
H410 H 0.08944 0.69512 0.7367 0.0
H411 H 0.06699 0.49495 0.79574 0.0
H412 H 0.07268 0.54182 0.84322 0.0
H413 H 0.07435 0.6225 0.83947 0.0
H414 H 0.06997 0.65664 0.78819 0.0
C415 C 0.05846 0.66094 0.72814 0.0
C416 C 0.06292 0.61455 0.72978 0.0
C417 C 0.06702 0.59563 0.75988 0.0
C418 C 0.06705 0.54942 0.762 0.0
C419 C 0.06855 0.53049 0.79256 0.0
C420 C 0.0714 0.55685 0.82009 0.0
C421 C 0.07225 0.60223 0.81798 0.0
C422 C 0.06982 0.62145 0.78834 0.0
H423 H 0.14072 0.50768 0.75151 0.0
C424 C 0.10782 0.47334 0.74509 0.0
H425 H 0.03295 0.44117 0.7283 0.0
H426 H 0.05946 0.64198 0.66816 0.0
H427 H 0.05418 0.5953 0.62055 0.0
H428 H 0.05343 0.51501 0.62422 0.0
H429 H 0.05815 0.48094 0.67552 0.0
C430 C 0.06581 0.4747 0.73583 0.0
C431 C 0.0643 0.52259 0.73392 0.0
C432 C 0.06066 0.54173 0.70381 0.0
C433 C 0.06039 0.58783 0.70171 0.0
C434 C 0.05842 0.60663 0.67121 0.0
C435 C 0.05575 0.58037 0.64366 0.0
C436 C 0.0554 0.53519 0.64572 0.0
C437 C 0.05802 0.51601 0.67534 0.0
loop_
_geom_bond_atom_site_label_1
_geom_bond_atom_site_label_2
_geom_bond_distance
_geom_bond_site_symmetry_2
_ccdc_geom_bond_type
Mg0 O7 2.141 . S
Mg0 O8 2.048 . S
Mg0 O9 2.048 . S
Mg0 O12 2.118 1_554 S
C1 O2 1.313 . S
C1 O8 1.195 . S
O2 C1 1.313 . S
C3 O4 1.245 1_556 S
C3 O12 1.297 1_565 S
O4 C3 1.245 1_554 S
C5 O6 1.245 1_545 S
C5 O7 1.289 . S
O6 C5 1.245 1_565 S
O7 Mg0 2.141 . S
O7 C5 1.289 . S
O8 Mg0 2.048 . S
O8 C1 1.195 . S
O9 Mg0 2.048 . S
O9 C10 1.195 . S
C10 O9 1.195 . S
C10 O11 1.313 1_545 S
O11 C10 1.313 1_565 S
O12 Mg0 2.118 1_556 S
O12 C3 1.297 1_545 S
Mg13 O20 2.141 . S
Mg13 O21 2.048 . S
Mg13 O22 2.048 . S
Mg13 O25 2.141 . S
C14 O15 1.313 . S
C14 O21 1.195 . S
O15 C14 1.313 . S
C16 O17 1.245 . S
C16 O25 1.289 . S
O17 C16 1.245 . S
C18 O19 1.245 . S
C18 O20 1.289 . S
O19 C18 1.245 . S
O20 Mg13 2.141 . S
O20 C18 1.289 . S
O21 Mg13 2.048 . S
O21 C14 1.195 . S
O22 Mg13 2.048 . S
O22 C23 1.195 . S
C23 O22 1.195 . S
C23 O24 1.313 . S
O24 C23 1.313 . S
O25 Mg13 2.141 . S
O25 C16 1.289 . S
Mg26 O33 2.141 . S
Mg26 O34 2.048 1_455 S
Mg26 O35 2.048 . S
Mg26 O38 2.141 . S
C27 O28 1.313 . S
C27 O34 1.195 1_455 S
O28 C27 1.313 . S
C29 O30 1.245 . S
C29 O38 1.289 . S
O30 C29 1.245 . S
C31 O32 1.245 . S
C31 O33 1.289 . S
O32 C31 1.245 . S
O33 Mg26 2.141 . S
O33 C31 1.289 . S
O34 Mg26 2.048 1_655 S
O34 C27 1.195 1_655 S
O35 Mg26 2.048 . S
O35 C36 1.195 . S
C36 O35 1.195 . S
C36 O37 1.313 . S
O37 C36 1.313 . S
O38 Mg26 2.141 . S
O38 C29 1.289 . S
Mg39 O46 2.141 . S
Mg39 O47 2.048 . S
Mg39 O48 2.048 . S
Mg39 O51 2.118 1_554 S
C40 O41 1.313 . S
C40 O47 1.195 . S
O41 C40 1.313 . S
C42 O43 1.245 1_556 S
C42 O51 1.297 . S
O43 C42 1.245 1_554 S
C44 O45 1.245 . S
C44 O46 1.289 . S
O45 C44 1.245 . S
O46 Mg39 2.141 . S
O46 C44 1.289 . S
O47 Mg39 2.048 . S
O47 C40 1.195 . S
O48 Mg39 2.048 . S
O48 C49 1.195 . S
C49 O48 1.195 . S
C49 O50 1.313 . S
O50 C49 1.313 . S
O51 Mg39 2.118 1_556 S
O51 C42 1.297 . S
Mg52 O59 2.141 . S
Mg52 O60 2.048 . S
Mg52 O61 2.048 . S
Mg52 O64 2.141 . S
C53 O54 1.313 . S
C53 O60 1.195 . S
O54 C53 1.313 . S
C55 O56 1.245 . S
C55 O64 1.289 . S
O56 C55 1.245 . S
C57 O58 1.245 . S
C57 O59 1.289 . S
O58 C57 1.245 . S
O59 Mg52 2.141 . S
O59 C57 1.289 . S
O60 Mg52 2.048 . S
O60 C53 1.195 . S
O61 Mg52 2.048 . S
O61 C62 1.195 . S
C62 O61 1.195 . S
C62 O63 1.313 . S
O63 C62 1.313 . S
O64 Mg52 2.141 . S
O64 C55 1.289 . S
Mg65 O72 2.141 . S
Mg65 O73 2.048 . S
Mg65 O74 2.048 . S
Mg65 O77 2.141 . S
C66 O67 1.313 . S
C66 O73 1.195 . S
O67 C66 1.313 . S
C68 O69 1.245 . S
C68 O77 1.289 1_655 S
O69 C68 1.245 . S
C70 O71 1.245 1_455 S
C70 O72 1.289 . S
O71 C70 1.245 1_655 S
O72 Mg65 2.141 . S
O72 C70 1.289 . S
O73 Mg65 2.048 . S
O73 C66 1.195 . S
O74 Mg65 2.048 . S
O74 C75 1.195 . S
C75 O74 1.195 . S
C75 O76 1.313 1_455 S
O76 C75 1.313 1_655 S
O77 Mg65 2.141 . S
O77 C68 1.289 1_455 S
H78 C79 0.951 . S
C79 H78 0.951 . S
C79 C85 1.265 . S
H80 C85 0.950 . S
H81 C89 0.949 . S
H82 C90 0.950 . S
H83 C91 0.951 . S
H84 C92 0.951 . S
C85 C79 1.265 . S
C85 H80 0.950 . S
C85 C86 1.478 . S
C86 C85 1.478 . S
C86 C87 1.397 . S
C86 C103 1.394 . S
C87 C86 1.397 . S
C87 C88 1.438 . S
C87 C92 1.429 . S
C88 C87 1.438 . S
C88 C89 1.428 . S
C88 C101 1.394 . S
C89 H81 0.949 . S
C89 C88 1.428 . S
C89 C90 1.345 . S
C90 H82 0.950 . S
C90 C89 1.345 . S
C90 C91 1.424 . S
C91 H83 0.951 . S
C91 C90 1.424 . S
C91 C92 1.347 . S
C92 H84 0.951 . S
C92 C87 1.429 . S
C92 C91 1.347 . S
H93 C94 0.951 . S
C94 H93 0.951 . S
C94 C100 1.265 . S
H95 C100 0.950 . S
H96 C104 0.949 . S
H97 C105 0.950 . S
H98 C106 0.951 . S
H99 C107 0.951 . S
C100 C94 1.265 . S
C100 H95 0.950 . S
C100 C101 1.478 . S
C101 C88 1.394 . S
C101 C100 1.478 . S
C101 C102 1.397 . S
C102 C101 1.397 . S
C102 C103 1.438 . S
C102 C107 1.429 . S
C103 C86 1.394 . S
C103 C102 1.438 . S
C103 C104 1.428 . S
C104 H96 0.949 . S
C104 C103 1.428 . S
C104 C105 1.345 . S
C105 H97 0.950 . S
C105 C104 1.345 . S
C105 C106 1.424 . S
C106 H98 0.951 . S
C106 C105 1.424 . S
C106 C107 1.347 . S
C107 H99 0.951 . S
C107 C102 1.429 . S
C107 C106 1.347 . S
H108 C109 0.951 . S
C109 H108 0.951 . S
C109 C115 1.265 . S
H110 C115 0.950 . S
H111 C119 0.949 . S
H112 C120 0.950 . S
H113 C121 0.951 . S
H114 C122 0.951 . S
C115 C109 1.265 . S
C115 H110 0.950 . S
C115 C116 1.478 . S
C116 C115 1.478 . S
C116 C117 1.397 . S
C116 C133 1.394 . S
C117 C116 1.397 . S
C117 C118 1.438 . S
C117 C122 1.429 . S
C118 C117 1.438 . S
C118 C119 1.428 . S
C118 C131 1.394 . S
C119 H111 0.949 . S
C119 C118 1.428 . S
C119 C120 1.345 . S
C120 H112 0.950 . S
C120 C119 1.345 . S
C120 C121 1.424 . S
C121 H113 0.951 . S
C121 C120 1.424 . S
C121 C122 1.347 . S
C122 H114 0.951 . S
C122 C117 1.429 . S
C122 C121 1.347 . S
H123 C124 0.951 . S
C124 H123 0.951 . S
C124 C130 1.265 . S
H125 C130 0.950 . S
H126 C134 0.949 . S
H127 C135 0.950 . S
H128 C136 0.951 . S
H129 C137 0.951 . S
C130 C124 1.265 . S
C130 H125 0.950 . S
C130 C131 1.478 . S
C131 C118 1.394 . S
C131 C130 1.478 . S
C131 C132 1.397 . S
C132 C131 1.397 . S
C132 C133 1.438 . S
C132 C137 1.429 . S
C133 C116 1.394 . S
C133 C132 1.438 . S
C133 C134 1.428 . S
C134 H126 0.949 . S
C134 C133 1.428 . S
C134 C135 1.345 . S
C135 H127 0.950 . S
C135 C134 1.345 . S
C135 C136 1.424 . S
C136 H128 0.951 . S
C136 C135 1.424 . S
C136 C137 1.347 . S
C137 H129 0.951 . S
C137 C132 1.429 . S
C137 C136 1.347 . S
H138 C139 0.951 . S
C139 H138 0.951 . S
C139 C145 1.265 . S
H140 C145 0.950 . S
H141 C149 0.949 . S
H142 C150 0.950 . S
H143 C151 0.951 . S
H144 C152 0.951 . S
C145 C139 1.265 . S
C145 H140 0.950 . S
C145 C146 1.478 . S
C146 C145 1.478 . S
C146 C147 1.397 . S
C146 C163 1.394 . S
C147 C146 1.397 . S
C147 C148 1.438 . S
C147 C152 1.429 . S
C148 C147 1.438 . S
C148 C149 1.428 . S
C148 C161 1.394 . S
C149 H141 0.949 . S
C149 C148 1.428 . S
C149 C150 1.345 . S
C150 H142 0.950 . S
C150 C149 1.345 . S
C150 C151 1.424 . S
C151 H143 0.951 . S
C151 C150 1.424 . S
C151 C152 1.347 . S
C152 H144 0.951 . S
C152 C147 1.429 . S
C152 C151 1.347 . S
H153 C154 0.951 . S
C154 H153 0.951 . S
C154 C160 1.265 . S
H155 C160 0.950 . S
H156 C164 0.949 . S
H157 C165 0.950 . S
H158 C166 0.951 . S
H159 C167 0.951 . S
C160 C154 1.265 . S
C160 H155 0.950 . S
C160 C161 1.478 . S
C161 C148 1.394 . S
C161 C160 1.478 . S
C161 C162 1.397 . S
C162 C161 1.397 . S
C162 C163 1.438 . S
C162 C167 1.429 . S
C163 C146 1.394 . S
C163 C162 1.438 . S
C163 C164 1.428 . S
C164 H156 0.949 . S
C164 C163 1.428 . S
C164 C165 1.345 . S
C165 H157 0.950 . S
C165 C164 1.345 . S
C165 C166 1.424 . S
C166 H158 0.951 . S
C166 C165 1.424 . S
C166 C167 1.347 . S
C167 H159 0.951 . S
C167 C162 1.429 . S
C167 C166 1.347 . S
H168 C169 0.951 . S
C169 H168 0.951 . S
C169 C175 1.265 . S
H170 C175 0.950 . S
H171 C179 0.949 . S
H172 C180 0.950 . S
H173 C181 0.951 . S
H174 C182 0.951 . S
C175 C169 1.265 . S
C175 H170 0.950 . S
C175 C176 1.478 . S
C176 C175 1.478 . S
C176 C177 1.397 . S
C176 C193 1.394 . S
C177 C176 1.397 . S
C177 C178 1.438 . S
C177 C182 1.429 . S
C178 C177 1.438 . S
C178 C179 1.428 . S
C178 C191 1.394 . S
C179 H171 0.949 . S
C179 C178 1.428 . S
C179 C180 1.345 . S
C180 H172 0.950 . S
C180 C179 1.345 . S
C180 C181 1.424 . S
C181 H173 0.951 . S
C181 C180 1.424 . S
C181 C182 1.347 . S
C182 H174 0.951 . S
C182 C177 1.429 . S
C182 C181 1.347 . S
H183 C184 0.951 . S
C184 H183 0.951 . S
C184 C190 1.265 . S
H185 C190 0.950 . S
H186 C194 0.949 . S
H187 C195 0.950 . S
H188 C196 0.951 . S
H189 C197 0.951 . S
C190 C184 1.265 . S
C190 H185 0.950 . S
C190 C191 1.478 . S
C191 C178 1.394 . S
C191 C190 1.478 . S
C191 C192 1.397 . S
C192 C191 1.397 . S
C192 C193 1.438 . S
C192 C197 1.429 . S
C193 C176 1.394 . S
C193 C192 1.438 . S
C193 C194 1.428 1_565 S
C194 H186 0.949 . S
C194 C193 1.428 1_545 S
C194 C195 1.345 . S
C195 H187 0.950 . S
C195 C194 1.345 . S
C195 C196 1.424 . S
C196 H188 0.951 . S
C196 C195 1.424 . S
C196 C197 1.347 1_545 S
C197 H189 0.951 . S
C197 C192 1.429 . S
C197 C196 1.347 1_565 S
H198 C199 0.951 . S
C199 H198 0.951 . S
C199 C205 1.265 . S
H200 C205 0.950 . S
H201 C209 0.949 . S
H202 C210 0.950 . S
H203 C211 0.951 . S
H204 C212 0.951 . S
C205 C199 1.265 . S
C205 H200 0.950 . S
C205 C206 1.478 . S
C206 C205 1.478 . S
C206 C207 1.397 . S
C206 C223 1.394 . S
C207 C206 1.397 . S
C207 C208 1.438 . S
C207 C212 1.429 . S
C208 C207 1.438 . S
C208 C209 1.428 . S
C208 C221 1.394 . S
C209 H201 0.949 . S
C209 C208 1.428 . S
C209 C210 1.345 . S
C210 H202 0.950 . S
C210 C209 1.345 . S
C210 C211 1.424 . S
C211 H203 0.951 . S
C211 C210 1.424 . S
C211 C212 1.347 . S
C212 H204 0.951 . S
C212 C207 1.429 . S
C212 C211 1.347 . S
H213 C214 0.951 . S
C214 H213 0.951 . S
C214 C220 1.265 . S
H215 C220 0.950 . S
H216 C224 0.949 . S
H217 C225 0.950 . S
H218 C226 0.951 . S
H219 C227 0.951 . S
C220 C214 1.265 . S
C220 H215 0.950 . S
C220 C221 1.478 . S
C221 C208 1.394 . S
C221 C220 1.478 . S
C221 C222 1.397 . S
C222 C221 1.397 . S
C222 C223 1.438 . S
C222 C227 1.429 . S
C223 C206 1.394 . S
C223 C222 1.438 . S
C223 C224 1.428 . S
C224 H216 0.949 . S
C224 C223 1.428 . S
C224 C225 1.345 . S
C225 H217 0.950 . S
C225 C224 1.345 . S
C225 C226 1.424 . S
C226 H218 0.951 . S
C226 C225 1.424 . S
C226 C227 1.347 . S
C227 H219 0.951 . S
C227 C222 1.429 . S
C227 C226 1.347 . S
H228 C229 0.951 . S
C229 H228 0.951 . S
C229 C235 1.265 . S
H230 C235 0.950 . S
H231 C239 0.949 . S
H232 C240 0.950 . S
H233 C241 0.951 . S
H234 C242 0.951 . S
C235 C229 1.265 . S
C235 H230 0.950 . S
C235 C236 1.478 . S
C236 C235 1.478 . S
C236 C237 1.397 . S
C236 C253 1.394 . S
C237 C236 1.397 . S
C237 C238 1.438 . S
C237 C242 1.429 . S
C238 C237 1.438 . S
C238 C239 1.428 . S
C238 C251 1.394 . S
C239 H231 0.949 . S
C239 C238 1.428 . S
C239 C240 1.345 . S
C240 H232 0.950 . S
C240 C239 1.345 . S
C240 C241 1.424 . S
C241 H233 0.951 . S
C241 C240 1.424 . S
C241 C242 1.347 . S
C242 H234 0.951 . S
C242 C237 1.429 . S
C242 C241 1.347 . S
H243 C244 0.951 . S
C244 H243 0.951 . S
C244 C250 1.265 . S
H245 C250 0.950 . S
H246 C254 0.949 1_545 S
H247 C255 0.950 . S
H248 C256 0.951 . S
H249 C257 0.951 . S
C250 C244 1.265 . S
C250 H245 0.950 . S
C250 C251 1.478 . S
C251 C238 1.394 . S
C251 C250 1.478 . S
C251 C252 1.397 . S
C252 C251 1.397 . S
C252 C253 1.438 . S
C252 C257 1.429 . S
C253 C236 1.394 . S
C253 C252 1.438 . S
C253 C254 1.427 . S
C254 H246 0.949 1_565 S
C254 C253 1.427 . S
C254 C255 1.346 1_565 S
C255 H247 0.950 . S
C255 C254 1.346 1_545 S
C255 C256 1.424 . S
C256 H248 0.951 . S
C256 C255 1.424 . S
C256 C257 1.347 1_545 S
C257 H249 0.951 . S
C257 C252 1.429 . S
C257 C256 1.347 1_565 S
H258 C259 0.951 1_565 S
C259 H258 0.951 1_545 S
C259 C265 1.265 . S
H260 C265 0.950 . S
H261 C269 0.949 1_655 S
H262 C270 0.938 1_556 S
H263 C271 0.951 1_556 S
H264 C272 0.951 . S
C265 C259 1.265 . S
C265 H260 0.950 . S
C265 C266 1.478 . S
C266 C265 1.478 . S
C266 C267 1.397 . S
C266 C283 1.394 . S
C267 C266 1.397 . S
C267 C268 1.438 . S
C267 C272 1.429 . S
C268 C267 1.438 . S
C268 C269 1.428 . S
C268 C281 1.394 1_455 S
C269 H261 0.949 1_455 S
C269 C268 1.428 . S
C269 C270 1.355 . S
C270 H262 0.938 1_554 S
C270 C269 1.355 . S
C270 C271 1.426 . S
C271 H263 0.951 1_554 S
C271 C270 1.426 . S
C271 C272 1.347 . S
C272 H264 0.951 . S
C272 C267 1.429 . S
C272 C271 1.347 . S
H273 C274 0.951 . S
C274 H273 0.951 . S
C274 C280 1.265 . S
H275 C280 0.963 . S
H276 C284 0.949 . S
H277 C285 0.950 . S
H278 C286 0.951 . S
H279 C287 0.951 . S
C280 C274 1.265 . S
C280 H275 0.963 . S
C280 C281 1.478 . S
C281 C268 1.394 1_655 S
C281 C280 1.478 . S
C281 C282 1.397 . S
C282 C281 1.397 . S
C282 C283 1.438 1_655 S
C282 C287 1.429 1_545 S
C283 C266 1.394 . S
C283 C282 1.438 1_455 S
C283 C284 1.428 1_545 S
C284 H276 0.949 . S
C284 C283 1.428 1_565 S
C284 C285 1.345 . S
C285 H277 0.950 . S
C285 C284 1.345 . S
C285 C286 1.424 1_455 S
C286 H278 0.951 . S
C286 C285 1.424 1_655 S
C286 C287 1.347 . S
C287 H279 0.951 . S
C287 C282 1.429 1_565 S
C287 C286 1.347 . S
H288 C289 0.951 . S
C289 H288 0.951 . S
C289 C295 1.265 . S
H290 C295 0.950 . S
H291 C299 0.949 . S
H292 C300 0.950 . S
H293 C301 0.951 1_565 S
H294 C302 0.951 1_655 S
C295 C289 1.265 . S
C295 H290 0.950 . S
C295 C296 1.478 . S
C296 C295 1.478 . S
C296 C297 1.397 1_665 S
C296 C313 1.394 1_565 S
C297 C296 1.397 1_445 S
C297 C298 1.438 . S
C297 C302 1.429 1_545 S
C298 C297 1.438 . S
C298 C299 1.428 . S
C298 C311 1.394 . S
C299 H291 0.949 . S
C299 C298 1.428 . S
C299 C300 1.345 . S
C300 H292 0.950 . S
C300 C299 1.345 . S
C300 C301 1.424 . S
C301 H293 0.951 1_545 S
C301 C300 1.424 . S
C301 C302 1.347 1_545 S
C302 H294 0.951 1_455 S
C302 C297 1.429 1_565 S
C302 C301 1.347 1_565 S
H303 C304 0.951 . S
C304 H303 0.951 . S
C304 C310 1.265 . S
H305 C310 0.950 . S
H306 C314 0.949 1_565 S
H307 C315 0.950 . S
H308 C316 0.951 . S
H309 C317 0.951 . S
C310 C304 1.265 . S
C310 H305 0.950 . S
C310 C311 1.478 . S
C311 C298 1.394 . S
C311 C310 1.478 . S
C311 C312 1.397 . S
C312 C311 1.397 . S
C312 C313 1.438 1_455 S
C312 C317 1.429 . S
C313 C296 1.394 1_545 S
C313 C312 1.438 1_655 S
C313 C314 1.428 . S
C314 H306 0.949 1_545 S
C314 C313 1.428 . S
C314 C315 1.345 . S
C315 H307 0.950 . S
C315 C314 1.345 . S
C315 C316 1.424 1_655 S
C316 H308 0.951 . S
C316 C315 1.424 1_455 S
C316 C317 1.347 . S
C317 H309 0.951 . S
C317 C312 1.429 . S
C317 C316 1.347 . S
H318 C319 0.943 1_655 S
C319 H318 0.943 1_455 S
C319 C325 1.265 . S
H320 C325 0.950 . S
H321 C329 0.949 1_565 S
H322 C330 0.950 . S
H323 C331 0.951 . S
H324 C332 0.951 . S
C325 C319 1.265 . S
C325 H320 0.950 . S
C325 C326 1.478 . S
C326 C325 1.478 . S
C326 C327 1.397 . S
C326 C343 1.394 . S
C327 C326 1.397 . S
C327 C328 1.438 . S
C327 C332 1.429 . S
C328 C327 1.438 . S
C328 C329 1.428 . S
C328 C341 1.394 1_545 S
C329 H321 0.949 1_545 S
C329 C328 1.428 . S
C329 C330 1.345 . S
C330 H322 0.950 . S
C330 C329 1.345 . S
C330 C331 1.424 . S
C331 H323 0.951 . S
C331 C330 1.424 . S
C331 C332 1.347 . S
C332 H324 0.951 . S
C332 C327 1.429 . S
C332 C331 1.347 . S
H333 C334 0.951 . S
C334 H333 0.951 . S
C334 C340 1.265 1_455 S
H335 C340 0.950 . S
H336 C344 0.949 1_455 S
H337 C345 0.950 . S
H338 C346 0.951 1_565 S
H339 C347 0.951 . S
C340 C334 1.265 1_655 S
C340 H335 0.950 . S
C340 C341 1.478 1_655 S
C341 C328 1.394 1_565 S
C341 C340 1.478 1_455 S
C341 C342 1.397 1_465 S
C342 C341 1.397 1_645 S
C342 C343 1.438 1_655 S
C342 C347 1.429 1_545 S
C343 C326 1.394 . S
C343 C342 1.438 1_455 S
C343 C344 1.428 1_455 S
C344 H336 0.949 1_655 S
C344 C343 1.428 1_655 S
C344 C345 1.345 . S
C345 H337 0.950 . S
C345 C344 1.345 . S
C345 C346 1.424 . S
C346 H338 0.951 1_545 S
C346 C345 1.424 . S
C346 C347 1.347 1_545 S
C347 H339 0.951 . S
C347 C342 1.429 1_565 S
C347 C346 1.347 1_565 S
H348 C349 0.951 . S
C349 H348 0.951 . S
C349 C355 1.265 . S
H350 C355 0.950 1_565 S
H351 C359 0.949 . S
H352 C360 0.950 . S
H353 C361 0.951 . S
H354 C362 0.951 1_565 S
C355 C349 1.265 . S
C355 H350 0.950 1_545 S
C355 C356 1.478 . S
C356 C355 1.478 . S
C356 C357 1.397 . S
C356 C373 1.394 . S
C357 C356 1.397 . S
C357 C358 1.438 . S
C357 C362 1.429 . S
C358 C357 1.438 . S
C358 C359 1.428 . S
C358 C371 1.394 . S
C359 H351 0.949 . S
C359 C358 1.428 . S
C359 C360 1.345 1_545 S
C360 H352 0.950 . S
C360 C359 1.345 1_565 S
C360 C361 1.424 . S
C361 H353 0.951 . S
C361 C360 1.424 . S
C361 C362 1.347 1_565 S
C362 H354 0.951 1_545 S
C362 C357 1.429 . S
C362 C361 1.347 1_545 S
H363 C364 0.951 1_565 S
C364 H363 0.951 1_545 S
C364 C370 1.265 . S
H365 C370 0.950 . S
H366 C374 0.949 . S
H367 C375 0.950 . S
H368 C376 0.951 . S
H369 C377 0.951 . S
C370 C364 1.265 . S
C370 H365 0.950 . S
C370 C371 1.478 . S
C371 C358 1.394 . S
C371 C370 1.478 . S
C371 C372 1.397 . S
C372 C371 1.397 . S
C372 C373 1.438 . S
C372 C377 1.429 . S
C373 C356 1.394 . S
C373 C372 1.438 . S
C373 C374 1.428 . S
C374 H366 0.949 . S
C374 C373 1.428 . S
C374 C375 1.345 1_554 S
C375 H367 0.950 . S
C375 C374 1.345 1_556 S
C375 C376 1.424 . S
C376 H368 0.951 . S
C376 C375 1.424 . S
C376 C377 1.347 1_556 S
C377 H369 0.951 . S
C377 C372 1.429 . S
C377 C376 1.347 1_554 S
H378 C379 0.951 . S
C379 H378 0.951 . S
C379 C385 1.265 . S
H380 C385 0.950 . S
H381 C389 0.949 . S
H382 C390 0.950 . S
H383 C391 0.951 . S
H384 C392 0.951 . S
C385 C379 1.265 . S
C385 H380 0.950 . S
C385 C386 1.478 . S
C386 C385 1.478 . S
C386 C387 1.397 . S
C386 C403 1.394 . S
C387 C386 1.397 . S
C387 C388 1.438 . S
C387 C392 1.429 . S
C388 C387 1.438 . S
C388 C389 1.428 . S
C388 C401 1.394 . S
C389 H381 0.949 . S
C389 C388 1.428 . S
C389 C390 1.345 . S
C390 H382 0.950 . S
C390 C389 1.345 . S
C390 C391 1.424 . S
C391 H383 0.951 . S
C391 C390 1.424 . S
C391 C392 1.347 . S
C392 H384 0.951 . S
C392 C387 1.429 . S
C392 C391 1.347 . S
H393 C394 0.951 . S
C394 H393 0.951 . S
C394 C400 1.265 . S
H395 C400 0.950 . S
H396 C404 0.949 . S
H397 C405 0.950 . S
H398 C406 0.951 . S
H399 C407 0.951 . S
C400 C394 1.265 . S
C400 H395 0.950 . S
C400 C401 1.478 . S
C401 C388 1.394 . S
C401 C400 1.478 . S
C401 C402 1.397 . S
C402 C401 1.397 . S
C402 C403 1.438 . S
C402 C407 1.429 . S
C403 C386 1.394 . S
C403 C402 1.438 . S
C403 C404 1.428 . S
C404 H396 0.949 . S
C404 C403 1.428 . S
C404 C405 1.345 . S
C405 H397 0.950 . S
C405 C404 1.345 . S
C405 C406 1.424 . S
C406 H398 0.951 . S
C406 C405 1.424 . S
C406 C407 1.347 . S
C407 H399 0.951 . S
C407 C402 1.429 . S
C407 C406 1.347 . S
H408 C409 0.951 1_655 S
C409 H408 0.951 1_455 S
C409 C415 1.265 . S
H410 C415 0.950 . S
H411 C419 0.949 . S
H412 C420 0.950 . S
H413 C421 0.951 . S
H414 C422 0.951 . S
C415 C409 1.265 . S
C415 H410 0.950 . S
C415 C416 1.478 . S
C416 C415 1.478 . S
C416 C417 1.397 . S
C416 C433 1.394 . S
C417 C416 1.397 . S
C417 C418 1.438 . S
C417 C422 1.429 . S
C418 C417 1.438 . S
C418 C419 1.428 . S
C418 C431 1.394 . S
C419 H411 0.949 . S
C419 C418 1.428 . S
C419 C420 1.345 . S
C420 H412 0.950 . S
C420 C419 1.345 . S
C420 C421 1.424 . S
C421 H413 0.951 . S
C421 C420 1.424 . S
C421 C422 1.347 . S
C422 H414 0.951 . S
C422 C417 1.429 . S
C422 C421 1.347 . S
H423 C424 0.951 . S
C424 H423 0.951 . S
C424 C430 1.265 . S
H425 C430 0.950 1_655 S
H426 C434 0.949 . S
H427 C435 0.950 . S
H428 C436 0.951 . S
H429 C437 0.951 . S
C430 C424 1.265 . S
C430 H425 0.950 1_455 S
C430 C431 1.478 . S
C431 C418 1.394 . S
C431 C430 1.478 . S
C431 C432 1.397 . S
C432 C431 1.397 . S
C432 C433 1.438 . S
C432 C437 1.429 1_455 S
C433 C416 1.394 . S
C433 C432 1.438 . S
C433 C434 1.428 . S
C434 H426 0.949 . S
C434 C433 1.428 . S
C434 C435 1.345 1_455 S
C435 H427 0.950 . S
C435 C434 1.345 1_655 S
C435 C436 1.424 . S
C436 H428 0.951 . S
C436 C435 1.424 . S
C436 C437 1.347 . S
C437 H429 0.951 . S
C437 C432 1.429 1_655 S
C437 C436 1.347 . S
C79 C1 1.683 . S
C94 C16 1.688 . S
C109 C14 1.711 . S
C124 C29 1.727 . S
C139 C42 1.715 . S
C154 C27 1.684 1_655 S
C169 C40 1.681 1_565 S
C184 C55 1.698 . S
C199 C68 1.674 . S
C214 C53 1.697 . S
C229 C3 1.687 . S
C244 C66 1.727 . S
C259 C10 0.974 . S
C274 C49 0.958 . S
C289 C62 0.964 . S
C304 C23 0.966 . S
C319 C36 0.976 . S
C334 C75 0.981 . S
C349 C44 1.423 . S
C364 C5 1.422 . S
C379 C57 1.448 . S
C394 C18 1.449 . S
C409 C70 1.422 . S
C424 C31 1.422 . S
