# Generated by pormake.
# Topology svf, (7)-cn, num edge types: 1
# Building blocks:
#     Node 0, Type 0, BuildingBlock: HICVOG_clean_sbu_0, # of connection points: 7
#     Node 1, Type 0, BuildingBlock: HICVOG_clean_sbu_0, # of connection points: 7
#     Node 2, Type 0, BuildingBlock: HICVOG_clean_sbu_0, # of connection points: 7
#     Node 3, Type 0, BuildingBlock: HICVOG_clean_sbu_0, # of connection points: 7
#     Node 4, Type 0, BuildingBlock: HICVOG_clean_sbu_0, # of connection points: 7
#     Node 5, Type 0, BuildingBlock: HICVOG_clean_sbu_0, # of connection points: 7
#     Node 6, Type 0, BuildingBlock: HICVOG_clean_sbu_0, # of connection points: 7
#     Node 7, Type 0, BuildingBlock: HICVOG_clean_sbu_0, # of connection points: 7
#     Edge 8, Type (0, 0), BuildingBlock: EZIPEK_clean_linker_0, # of connection points: 2
#     Edge 9, Type (0, 0), BuildingBlock: EZIPEK_clean_linker_0, # of connection points: 2
#     Edge 10, Type (0, 0), BuildingBlock: EZIPEK_clean_linker_0, # of connection points: 2
#     Edge 11, Type (0, 0), BuildingBlock: EZIPEK_clean_linker_0, # of connection points: 2
#     Edge 12, Type (0, 0), BuildingBlock: EZIPEK_clean_linker_0, # of connection points: 2
#     Edge 13, Type (0, 0), BuildingBlock: EZIPEK_clean_linker_0, # of connection points: 2
#     Edge 14, Type (0, 0), BuildingBlock: EZIPEK_clean_linker_0, # of connection points: 2
#     Edge 15, Type (0, 0), BuildingBlock: EZIPEK_clean_linker_0, # of connection points: 2
#     Edge 16, Type (0, 0), BuildingBlock: EZIPEK_clean_linker_0, # of connection points: 2
#     Edge 17, Type (0, 0), BuildingBlock: EZIPEK_clean_linker_0, # of connection points: 2
#     Edge 18, Type (0, 0), BuildingBlock: EZIPEK_clean_linker_0, # of connection points: 2
#     Edge 19, Type (0, 0), BuildingBlock: EZIPEK_clean_linker_0, # of connection points: 2
#     Edge 20, Type (0, 0), BuildingBlock: EZIPEK_clean_linker_0, # of connection points: 2
#     Edge 21, Type (0, 0), BuildingBlock: EZIPEK_clean_linker_0, # of connection points: 2
#     Edge 22, Type (0, 0), BuildingBlock: EZIPEK_clean_linker_0, # of connection points: 2
#     Edge 23, Type (0, 0), BuildingBlock: EZIPEK_clean_linker_0, # of connection points: 2
#     Edge 24, Type (0, 0), BuildingBlock: EZIPEK_clean_linker_0, # of connection points: 2
#     Edge 25, Type (0, 0), BuildingBlock: EZIPEK_clean_linker_0, # of connection points: 2
#     Edge 26, Type (0, 0), BuildingBlock: EZIPEK_clean_linker_0, # of connection points: 2
#     Edge 27, Type (0, 0), BuildingBlock: EZIPEK_clean_linker_0, # of connection points: 2
#     Edge 28, Type (0, 0), BuildingBlock: EZIPEK_clean_linker_0, # of connection points: 2
#     Edge 29, Type (0, 0), BuildingBlock: EZIPEK_clean_linker_0, # of connection points: 2
#     Edge 30, Type (0, 0), BuildingBlock: EZIPEK_clean_linker_0, # of connection points: 2
#     Edge 31, Type (0, 0), BuildingBlock: EZIPEK_clean_linker_0, # of connection points: 2
#     Edge 32, Type (0, 0), BuildingBlock: EZIPEK_clean_linker_0, # of connection points: 2
#     Edge 33, Type (0, 0), BuildingBlock: EZIPEK_clean_linker_0, # of connection points: 2
#     Edge 34, Type (0, 0), BuildingBlock: EZIPEK_clean_linker_0, # of connection points: 2
#     Edge 35, Type (0, 0), BuildingBlock: EZIPEK_clean_linker_0, # of connection points: 2
# Relax obj value: 0.423
# Max RMSD: 0.199
# Mean RMSD: 0.199
data_MOF--net-svf--node1-HICVOG_clean_sbu_0--edge1-EZIPEK_clean_linker_0
_symmetry_space_group_name_H-M    P1
_symmetry_Int_Tables_number       1
_symmetry_cell_setting            triclinic
loop_
_symmetry_equiv_pos_as_xyz
'x, y, z'
_cell_length_a     26.208432
_cell_length_b     25.93925
_cell_length_c     16.397274
_cell_angle_alpha  90.143619
_cell_angle_beta   91.615926
_cell_angle_gamma 89.727164
loop_
_atom_site_label
_atom_site_type_symbol
_atom_site_fract_x
_atom_site_fract_y
_atom_site_fract_z
_atom_type_partial_charge
Zn0 Zn 0.15121 0.35886 1.05874 0.0
C1 C 0.23811 0.27157 0.21971 0.0
N2 N 0.26159 0.25302 1.151 0.0
C3 C 0.23713 0.27771 1.08576 0.0
N4 N 0.20068 0.31045 1.11484 0.0
N5 N 0.20089 0.30546 0.19566 0.0
C6 C 0.18441 0.38875 0.34938 0.0
O7 O 0.20378 0.39312 0.27676 0.0
O8 O 0.09143 0.32512 0.99735 0.0
Zn9 Zn 0.14095 0.31868 0.26033 0.0
N10 N 0.18674 0.40201 0.9849 0.0
C11 C 0.2077 0.48845 0.95182 0.0
C12 C 0.19099 0.45241 1.00718 0.0
C13 C 0.2018 0.38546 0.91081 0.0
N14 N 0.2218 0.47219 0.87742 0.0
C15 C 0.22009 0.42152 0.85556 0.0
O16 O 0.09138 0.38045 0.24027 0.0
C17 C 0.08856 0.41759 0.18993 0.0
O18 O 0.11361 0.41479 1.12494 0.0
H19 H 0.18067 0.46492 1.06689 0.0
H20 H 0.19907 0.34512 0.89541 0.0
C21 C 0.07952 0.22875 0.31021 0.0
C22 C 0.05944 0.17947 0.29356 0.0
C23 C 0.09493 0.18002 0.16336 0.0
C24 C 0.11156 0.23013 0.17753 0.0
N25 N 0.10565 0.25299 0.25152 0.0
N26 N 0.06887 0.15574 0.22167 0.0
H27 H 0.07321 0.24798 0.36778 0.0
C28 C 0.05079 0.31724 1.03644 0.0
O29 O 0.05228 0.32008 1.11617 0.0
O30 O 0.16548 0.34539 0.36889 0.0
H31 H 0.12866 0.25093 1.12926 0.0
H32 H 0.21003 0.52887 0.96793 0.0
H33 H 0.10083 0.16132 1.10534 0.0
Zn34 Zn 0.66668 0.09059 0.23904 0.0
C35 C 0.70801 0.19981 1.07993 0.0
N36 N 0.73089 0.22142 1.14911 0.0
C37 C 0.7116 0.1961 0.2153 0.0
N38 N 0.67931 0.15839 0.18625 0.0
N39 N 0.67416 0.16271 1.1052 0.0
C40 C 0.63801 0.03984 0.98105 0.0
O41 O 0.6605 0.03954 1.05341 0.0
O42 O 0.63361 0.10687 0.34776 0.0
Zn43 Zn 0.61014 0.13156 1.05273 0.0
N44 N 0.73177 0.05317 0.22348 0.0
C45 C 0.80235 0.04463 1.13411 0.0
C46 C 0.75486 0.06514 1.15257 0.0
C47 C 0.75512 0.02018 0.27661 0.0
N48 N 0.82642 0.0131 0.18835 0.0
C49 C 0.80406 0.00068 0.25907 0.0
O50 O 0.56564 0.07851 1.11077 0.0
C51 C 0.57071 0.04089 0.15948 0.0
O52 O 0.61109 0.03716 0.20379 0.0
H53 H 0.7376 0.092 1.11161 0.0
H54 H 0.73715 0.01122 0.33352 0.0
C55 C 0.57381 0.23252 1.0059 0.0
C56 C 0.54381 0.27756 1.01685 0.0
C57 C 0.49191 0.23059 1.10708 0.0
C58 C 0.52125 0.1868 1.09504 0.0
N59 N 0.56193 0.18853 1.04538 0.0
N60 N 0.50369 0.27446 1.06771 0.0
H61 H 0.60637 0.23099 0.96768 0.0
C62 C 0.59181 0.13 0.32729 0.0
O63 O 0.58577 0.14671 0.25221 0.0
O64 O 0.61842 0.08222 0.95481 0.0
H65 H 0.51248 0.15245 1.12798 0.0
H66 H 0.82046 0.05475 1.07791 0.0
H67 H 0.45994 0.22982 1.1474 0.0
Zn68 Zn 0.86796 0.65159 1.09757 0.0
C69 C 0.77772 0.72645 0.26528 0.0
N70 N 0.75108 0.74323 0.19623 0.0
C71 C 0.77789 0.72629 1.12985 0.0
N72 N 0.81993 0.69898 0.15807 0.0
N73 N 0.82126 0.70145 0.23969 0.0
C74 C 0.82722 0.5894 0.32817 0.0
O75 O 0.82293 0.601 0.25051 0.0
O76 O 0.90497 0.68798 1.01075 0.0
Zn77 Zn 0.88328 0.67676 0.30494 0.0
N78 N 0.8289 0.59939 1.04361 0.0
C79 C 0.81192 0.51097 1.01578 0.0
C80 C 0.83901 0.54871 1.05858 0.0
C81 C 0.79492 0.61379 0.98461 0.0
N82 N 0.7772 0.52562 0.95763 0.0
C83 C 0.76847 0.57628 0.94051 0.0
O84 O 0.93974 0.62416 0.27915 0.0
C85 C 0.95094 0.59778 0.2173 0.0
O86 O 0.92586 0.6055 1.15116 0.0
H87 H 0.86901 0.53743 1.10072 0.0
H88 H 0.79069 0.65371 0.96973 0.0
C89 C 0.95166 0.76118 0.38166 0.0
C90 C 0.96958 0.81251 0.37898 0.0
C91 C 0.94623 0.81677 0.23919 0.0
C92 C 0.92502 0.7677 0.2436 0.0
N93 N 0.92762 0.7404 0.31445 0.0
N94 N 0.96676 0.83872 0.30749 0.0
H95 H 0.9525 0.74026 0.43838 0.0
C96 C 0.95052 0.69789 1.03331 0.0
O97 O 0.96227 0.69983 1.11132 0.0
O98 O 0.84936 0.62175 0.37736 0.0
H99 H 0.90443 0.7524 0.19137 0.0
H100 H 0.81919 0.47049 1.0272 0.0
H101 H 0.94383 0.83833 0.18281 0.0
Zn102 Zn 0.33423 0.81976 1.02059 0.0
C103 C 0.22954 0.7703 0.17903 0.0
N104 N 0.20765 0.74862 1.1093 0.0
C105 C 0.2333 0.76992 1.045 0.0
N106 N 0.26974 0.80283 1.0756 0.0
N107 N 0.26665 0.80389 0.15647 0.0
C108 C 0.3815 0.81364 0.31233 0.0
O109 O 0.3944 0.80224 0.23774 0.0
O110 O 0.31963 0.8758 0.93268 0.0
Zn111 Zn 0.30255 0.85655 0.22124 0.0
N112 N 0.35953 0.74906 1.00685 0.0
C113 C 0.36079 0.67333 1.08992 0.0
C114 C 0.35444 0.72619 1.08075 0.0
C115 C 0.37699 0.72122 0.94301 0.0
N116 N 0.37805 0.64543 1.02676 0.0
C117 C 0.38841 0.66825 0.95478 0.0
O118 O 0.36251 0.89922 0.18047 0.0
C119 C 0.39871 0.89401 1.13127 0.0
O120 O 0.39608 0.85908 1.07641 0.0
H121 H 0.34461 0.74914 1.13232 0.0
H122 H 0.38402 0.7401 0.88563 0.0
C123 C 0.22244 0.89724 0.30824 0.0
C124 C 0.19978 0.93835 0.34832 0.0
C125 C 0.22539 -0.00508 0.24405 0.0
C126 C 0.25441 0.95533 0.21145 0.0
N127 N 0.25307 0.90759 0.24561 0.0
N128 N 0.20043 0.98606 0.3138 0.0
H129 H 0.22269 0.85903 0.33445 0.0
C130 C 0.30504 0.9148 0.97452 0.0
O131 O 0.29075 0.90614 1.04903 0.0
O132 O 0.33612 0.82899 0.32456 0.0
H133 H 0.27962 0.96363 0.1627 0.0
H134 H 0.3543 0.65499 1.14785 0.0
H135 H 0.22595 0.03323 0.21813 0.0
Zn136 Zn 0.1609 0.61263 0.69655 0.0
C137 C 0.18358 0.7281 0.54258 0.0
N138 N 0.20895 0.75118 0.60837 0.0
C139 C 0.19551 0.72385 0.67686 0.0
N140 N 0.16453 0.68405 0.65158 0.0
N141 N 0.1537 0.68938 0.57241 0.0
C142 C 0.13154 0.5916 0.44099 0.0
O143 O 0.15379 0.59381 0.51328 0.0
O144 O 0.14819 0.62587 0.81418 0.0
Zn145 Zn 0.08822 0.65629 0.53269 0.0
N146 N 0.2202 0.57616 0.65036 0.0
C147 C 0.28705 0.57534 0.55369 0.0
C148 C 0.25149 0.60206 0.59946 0.0
C149 C 0.22274 0.52398 0.65467 0.0
N150 N 0.2905 0.52337 0.5601 0.0
C151 C 0.25883 0.4967 0.60851 0.0
O152 O 0.05633 0.59197 0.58147 0.0
C153 C 0.06183 0.55774 0.63555 0.0
O154 O 0.10089 0.55943 0.68291 0.0
H155 H 0.24815 0.64316 0.59218 0.0
H156 H 0.19716 0.50402 0.69436 0.0
C157 C 0.04356 0.74692 0.59806 0.0
C158 C 0.00391 0.77859 0.62553 0.0
C159 C 0.94734 0.70761 0.60886 0.0
C160 C 0.9849 0.68026 0.56844 0.0
N161 N 0.03242 0.70064 0.56332 0.0
N162 N 0.95709 0.75655 0.63387 0.0
H163 H 0.08234 0.76069 0.5979 0.0
C164 C 0.10531 0.64949 0.81026 0.0
O165 O 0.08313 0.65834 0.73884 0.0
O166 O 0.09788 0.62545 0.42131 0.0
H167 H 0.97678 0.64221 0.54454 0.0
H168 H 0.3119 0.59586 0.51353 0.0
H169 H 0.90998 0.69118 0.61653 0.0
Zn170 Zn 0.32261 0.11895 0.58562 0.0
C171 C 0.27067 0.23555 0.72206 0.0
N172 N 0.24897 0.25482 0.65055 0.0
C173 C 0.26909 0.22524 0.58858 0.0
N174 N 0.30071 0.18839 0.6233 0.0
N175 N 0.30347 0.19665 0.7036 0.0
C176 C 0.3196 0.13232 0.89663 0.0
O177 O 0.27709 0.1423 0.85606 0.0
O178 O 0.35661 0.12072 0.47473 0.0
Zn179 Zn 0.36867 0.18518 0.76513 0.0
N180 N 0.2676 0.07463 0.62107 0.0
C181 C 0.23228 0.05121 0.74855 0.0
C182 C 0.26848 0.07714 0.70379 0.0
C183 C 0.23325 0.04408 0.58111 0.0
N184 N 0.19855 0.01996 0.70931 0.0
C185 C 0.19836 0.01528 0.62697 0.0
O186 O 0.41811 0.1252 0.74035 0.0
C187 C 0.41675 0.08464 0.69678 0.0
O188 O 0.38176 0.07943 0.64247 0.0
H189 H 0.29848 0.09841 0.73426 0.0
H190 H 0.23497 0.03965 0.51555 0.0
C191 C 0.43497 0.27589 0.7958 0.0
C192 C 0.45518 0.32386 0.77291 0.0
C193 C 0.41524 0.31657 0.64315 0.0
C194 C 0.39619 0.26869 0.66498 0.0
N195 N 0.40509 0.24942 0.74158 0.0
N196 N 0.44468 0.34312 0.69748 0.0
H197 H 0.44302 0.25991 0.85579 0.0
C198 C 0.39902 0.14402 0.48888 0.0
O199 O 0.40579 0.16809 0.55867 0.0
O200 O 0.35798 0.16083 0.88307 0.0
H201 H 0.37323 0.24814 0.62092 0.0
H202 H 0.23238 0.05384 0.81419 0.0
H203 H 0.40719 0.3322 0.58302 0.0
Zn204 Zn 0.83512 0.32121 0.5443 0.0
C205 C 0.74904 0.25729 0.71689 0.0
N206 N 0.72983 0.22971 0.65019 0.0
C207 C 0.74836 0.25348 0.58169 0.0
N208 N 0.77837 0.29373 0.60683 0.0
N209 N 0.77798 0.29715 0.68806 0.0
C210 C 0.85637 0.32399 0.8644 0.0
O211 O 0.85626 0.28543 0.81269 0.0
O212 O 0.8083 0.35384 0.44003 0.0
Zn213 Zn 0.79663 0.36557 0.73574 0.0
N214 N 0.88032 0.2638 0.55331 0.0
C215 C 0.92234 0.21858 0.6618 0.0
C216 C 0.89453 0.26057 0.63329 0.0
C217 C 0.89487 0.22776 0.49888 0.0
N218 N 0.93726 0.18249 0.60789 0.0
C219 C 0.92507 0.18546 0.52681 0.0
O220 O 0.85921 0.40719 0.69838 0.0
C221 C 0.89067 0.40905 0.64097 0.0
O222 O 0.88519 0.37842 0.58111 0.0
H223 H 0.88361 0.29081 0.67436 0.0
H224 H 0.88441 0.23347 0.43533 0.0
C225 C 0.73615 0.46014 0.72676 0.0
C226 C 0.69342 0.49046 0.70381 0.0
C227 C 0.65436 0.41792 0.6422 0.0
C228 C 0.69624 0.38784 0.66626 0.0
N229 N 0.73665 0.40935 0.70808 0.0
N230 N 0.65368 0.46861 0.66189 0.0
H231 H 0.76794 0.4763 0.7617 0.0
C232 C 0.78421 0.39451 0.46137 0.0
O233 O 0.77758 0.40148 0.53969 0.0
O234 O 0.82372 0.36009 0.85388 0.0
H235 H 0.69561 0.34721 0.65337 0.0
H236 H 0.93314 0.21523 0.72574 0.0
H237 H 0.62226 0.40089 0.60932 0.0
Zn238 Zn 0.64732 0.87123 0.6184 0.0
C239 C 0.72012 0.76833 0.76569 0.0
N240 N 0.74444 0.75021 0.69779 0.0
C241 C 0.72043 0.77233 0.63001 0.0
N242 N 0.68376 0.80618 0.65927 0.0
N243 N 0.68167 0.80092 0.74007 0.0
C244 C 0.6131 0.82349 0.95907 0.0
O245 O 0.6118 0.80677 1.03446 0.0
O246 O 0.59577 0.86041 0.5213 0.0
Zn247 Zn 0.61107 0.80639 0.78025 0.0
N248 N 0.70441 0.91715 0.61639 0.0
C249 C 0.77767 0.93918 0.698 0.0
C250 C 0.72735 0.92242 0.69142 0.0
C251 C 0.72801 0.93215 0.54838 0.0
N252 N 0.80347 0.94822 0.62902 0.0
C253 C 0.77994 0.94522 0.55416 0.0
O254 O 0.56571 0.87359 0.77361 0.0
C255 C 0.56761 0.91508 0.73254 0.0
O256 O 0.60087 0.9189 0.67888 0.0
H257 H 0.70784 0.91008 0.74523 0.0
H258 H 0.70863 0.92761 0.48963 0.0
C259 C 0.54189 0.72297 0.75896 0.0
C260 C 0.52138 0.67794 0.72342 0.0
C261 C 0.56799 0.69246 0.6052 0.0
C262 C 0.58864 0.73684 0.64089 0.0
N263 N 0.57615 0.75094 0.71825 0.0
N264 N 0.53533 0.66337 0.64773 0.0
H265 H 0.53244 0.73452 0.82025 0.0
C266 C 0.55155 0.8442 0.53883 0.0
O267 O 0.54092 0.83548 0.61499 0.0
O268 O 0.61118 0.7909 0.90076 0.0
H269 H 0.6137 0.75958 0.60538 0.0
H270 H 0.79702 0.94187 0.757 0.0
H271 H 0.57842 0.68082 0.54449 0.0
C272 C 0.0729 0.51526 0.18351 0.0
C273 C 0.05591 0.46531 0.20648 0.0
C274 C 0.98201 0.50891 0.26704 0.0
C275 C -0.00889 0.55494 0.22292 0.0
N276 N 0.05039 0.60254 1.143 0.0
N277 N -0.01335 0.41602 0.26229 0.0
C278 C 0.03789 0.55803 0.18127 0.0
C279 C 0.00843 0.46248 0.24654 0.0
N280 N 0.12356 0.52314 0.17166 0.0
N281 N 0.95041 0.50956 0.33158 0.0
H282 H 0.00181 0.381 0.24318 0.0
H283 H 0.95039 0.41302 0.28645 0.0
H284 H 0.93278 0.54315 0.35172 0.0
H285 H 0.94592 0.47768 0.36935 0.0
H286 H 0.139 0.55932 0.16071 0.0
H287 H 0.15085 0.49487 0.18544 0.0
H288 H 0.08132 0.60536 1.10467 0.0
H289 H 0.02869 0.63601 1.14797 0.0
C290 C 0.49546 0.91156 1.14674 0.0
C291 C 0.44421 0.93032 1.13916 0.0
C292 C 0.47699 0.01805 0.16766 0.0
C293 C 0.52832 0.00099 0.16187 0.0
N294 N 0.5863 0.93002 1.14009 0.0
N295 N 0.38869 0.00473 1.12758 0.0
C296 C 0.53756 0.94719 1.15052 0.0
C297 C 0.4358 0.98449 1.14569 0.0
N298 N 0.50409 0.85974 1.15329 0.0
N299 N 0.46723 0.06589 0.19855 0.0
H300 H 0.35799 0.98227 1.10784 0.0
H301 H 0.38175 0.04423 1.12298 0.0
H302 H 0.49621 0.08973 0.2213 0.0
H303 H 0.43063 0.07885 0.21153 0.0
H304 H 0.53964 0.8438 0.16838 0.0
H305 H 0.47489 0.83265 1.15094 0.0
H306 H 0.59526 0.89225 1.12441 0.0
H307 H 0.61783 0.95427 1.14045 0.0
C308 C 0.96934 0.53507 0.66409 0.0
C309 C 0.01961 0.51824 0.64581 0.0
C310 C -0.01333 0.42872 0.63819 0.0
C311 C 0.9353 0.4467 0.64461 0.0
N312 N 0.87808 0.5196 0.6519 0.0
N313 N 0.07501 0.4484 0.6085 0.0
C314 C 0.92683 0.5006 0.65482 0.0
C315 C 0.02796 0.46478 0.63151 0.0
N316 N 0.96236 0.58369 0.69399 0.0
N317 N -0.0035 0.377 0.64207 0.0
H318 H 0.10616 0.47304 0.60433 0.0
H319 H 0.08197 0.4113 0.58715 0.0
H320 H 0.96797 0.34964 0.64911 0.0
H321 H 0.03321 0.36152 0.64652 0.0
H322 H 0.92778 0.59681 0.71626 0.0
H323 H -0.00741 0.60904 0.70474 0.0
H324 H 0.86966 0.55888 0.64988 0.0
H325 H 0.84605 0.49629 0.64349 0.0
C326 C 0.54405 0.01049 0.73563 0.0
C327 C 0.52777 0.95807 0.73743 0.0
C328 C 0.43815 -0.01037 0.72333 0.0
C329 C 0.45516 0.04123 0.71186 0.0
N330 N 0.52593 0.09848 0.69296 0.0
N331 N 0.4575 0.89811 0.72286 0.0
C332 C 0.50855 0.05104 0.71495 0.0
C333 C 0.47428 0.9478 0.72927 0.0
N334 N 0.59377 0.02189 0.75517 0.0
N335 N 0.38723 0.98052 0.7321 0.0
H336 H 0.48098 0.86599 0.72997 0.0
H337 H 0.42048 0.88843 0.70414 0.0
H338 H 0.3598 0.00969 0.73272 0.0
H339 H 0.37247 0.94487 0.74811 0.0
H340 H 0.60691 0.05935 0.76431 0.0
H341 H 0.62085 -0.00626 0.77064 0.0
H342 H 0.56435 0.10651 0.68486 0.0
H343 H 0.50175 0.12854 0.6745 0.0
C344 C 0.10244 0.50293 0.41044 0.0
C345 C 0.13836 0.54261 0.39744 0.0
C346 C 0.20597 0.47864 0.38269 0.0
C347 C 0.16984 0.43838 0.3883 0.0
N348 N 0.08301 0.41183 0.41325 0.0
N349 N 0.22115 0.56917 0.35648 0.0
C350 C 0.11785 0.4503 0.40435 0.0
C351 C 0.18907 0.53046 0.37817 0.0
N352 N 0.05423 0.51583 0.43303 0.0
N353 N 0.25684 0.46687 0.38401 0.0
H354 H 0.20891 0.6075 0.35243 0.0
H355 H 0.25775 0.56284 0.33536 0.0
H356 H 0.27003 0.42915 0.39173 0.0
H357 H 0.28562 0.4944 0.38638 0.0
H358 H 0.02818 0.48987 0.4559 0.0
H359 H 0.04025 0.55346 0.43015 0.0
H360 H 0.04372 0.41769 0.41172 0.0
H361 H 0.09286 0.37364 0.42439 0.0
C362 C 0.4691 0.18296 0.41007 0.0
C363 C 0.44491 0.13779 0.43808 0.0
C364 C 0.52023 0.08658 0.4008 0.0
C365 C 0.54606 0.13245 0.37924 0.0
N366 N 0.54844 0.22513 0.37694 0.0
N367 N 0.45195 0.04804 0.47515 0.0
C368 C 0.52132 0.1809 0.38797 0.0
C369 C 0.4716 0.08999 0.43732 0.0
N370 N 0.44163 0.22776 0.4034 0.0
N371 N 0.54055 0.03944 0.38269 0.0
H372 H 0.41555 0.04728 0.49898 0.0
H373 H 0.47375 0.01531 0.48806 0.0
H374 H 0.57651 0.03453 0.3584 0.0
H375 H 0.52006 0.00522 0.38655 0.0
H376 H 0.45527 0.26104 0.37633 0.0
H377 H 0.40318 0.23014 0.41814 0.0
H378 H 0.53438 0.26181 0.38948 0.0
H379 H 0.58704 0.22475 0.36281 0.0
C380 C 0.75121 0.48465 0.43488 0.0
C381 C 0.77673 0.44005 0.40622 0.0
C382 C 0.82293 0.49219 0.31064 0.0
C383 C 0.80767 0.53786 0.35345 0.0
N384 N 0.74304 0.57853 0.43325 0.0
N385 N 0.80846 0.40069 0.28581 0.0
C386 C 0.76723 0.5345 0.40897 0.0
C387 C 0.80372 0.44345 0.33386 0.0
N388 N 0.71029 0.47823 0.48332 0.0
N389 N 0.857 0.49489 0.2496 0.0
H390 H 0.78969 0.3664 0.29879 0.0
H391 H 0.82438 0.40082 0.22839 0.0
H392 H 0.87419 0.52898 0.23313 0.0
H393 H 0.87259 0.46292 0.22086 0.0
H394 H 0.68879 0.508 0.50754 0.0
H395 H 0.6955 0.4416 0.49358 0.0
H396 H 0.711 0.57938 0.46907 0.0
H397 H 0.75356 0.61511 0.4138 0.0
C398 C 0.50664 0.79238 0.42989 0.0
C399 C 0.51016 0.8383 0.47654 0.0
C400 C 0.42939 0.86893 0.41521 0.0
C401 C 0.42295 0.82064 0.37485 0.0
N402 N 0.45148 0.73305 0.35498 0.0
N403 N 0.47024 0.91574 0.52608 0.0
C404 C 0.46058 0.78139 0.38528 0.0
C405 C 0.46997 0.87496 0.47333 0.0
N406 N 0.54732 0.75936 0.42808 0.0
N407 N 0.39972 0.91058 0.39396 0.0
H408 H 0.50163 0.92497 0.56373 0.0
H409 H 0.43781 0.93812 0.53588 0.0
H410 H 0.37165 0.91008 0.34786 0.0
H411 H 0.40679 0.94761 0.41621 0.0
H412 H 0.54909 0.72773 0.38904 0.0
H413 H 0.58128 0.76614 0.46087 0.0
H414 H 0.47505 0.70146 0.36748 0.0
H415 H 0.4177 0.72329 0.32366 0.0
C416 C 0.73016 0.57593 0.72856 0.0
C417 C 0.68865 0.54232 0.73876 0.0
C418 C 0.68297 0.5677 0.88048 0.0
C419 C 0.73209 0.58922 0.87433 0.0
N420 N 0.79526 0.62891 0.79035 0.0
N421 N 0.61275 0.52303 0.81095 0.0
C422 C 0.75196 0.60048 0.79725 0.0
C423 C 0.65971 0.54548 0.80988 0.0
N424 N 0.75363 0.57919 0.65607 0.0
N425 N 0.66207 0.56403 0.95555 0.0
H426 H 0.59494 0.50889 0.75788 0.0
H427 H 0.58993 0.5219 0.86176 0.0
H428 H 0.67902 0.58184 1.00666 0.0
H429 H 0.6291 0.54355 0.96749 0.0
H430 H 0.7407 0.55935 0.6042 0.0
H431 H 0.7407 0.55935 0.6042 0.0
H432 H 0.81293 0.6341 0.73476 0.0
H433 H 0.81243 0.64833 0.83936 0.0
C434 C 0.50781 0.63343 0.85173 0.0
C435 C 0.48896 0.64508 0.77256 0.0
C436 C 0.40298 0.63232 0.81784 0.0
C437 C 0.42137 0.6411 0.89798 0.0
N438 N 0.49258 0.6417 0.99548 0.0
N439 N 0.41816 0.64615 0.67492 0.0
C440 C 0.47424 0.63699 0.91697 0.0
C441 C 0.43638 0.63992 0.75299 0.0
N442 N 0.55849 0.62393 0.86413 0.0
N443 N 0.35415 0.61641 0.80525 0.0
H444 H 0.44212 0.65056 0.6258 0.0
H445 H 0.3793 0.64832 0.65984 0.0
H446 H 0.33184 0.60779 0.85509 0.0
H447 H 0.33929 0.60552 0.74817 0.0
H448 H 0.5742 0.61249 0.92015 0.0
H449 H 0.5835 0.62358 0.81567 0.0
H450 H 0.53112 0.64637 1.01079 0.0
H451 H 0.46931 0.64293 1.04577 0.0
C452 C 0.29367 0.42615 0.7666 0.0
C453 C 0.24365 0.40711 0.77829 0.0
C454 C 0.22756 0.40958 0.63137 0.0
C455 C 0.26986 0.44216 0.62718 0.0
N456 N 0.35734 0.4494 0.66898 0.0
N457 N 0.16758 0.36728 0.72021 0.0
C458 C 0.30852 0.43708 0.68681 0.0
C459 C 0.21261 0.39224 0.70961 0.0
N460 N 0.32371 0.4406 0.83181 0.0
N461 N 0.2012 0.40015 0.56053 0.0
H462 H 0.15594 0.35507 0.77705 0.0
H463 H 0.14175 0.35803 0.67329 0.0
H464 H 0.16968 0.37596 0.55489 0.0
H465 H 0.16968 0.37596 0.55489 0.0
H466 H 0.35432 0.46574 0.82596 0.0
H467 H 0.31565 0.43001 0.89149 0.0
H468 H 0.38774 0.44529 0.71093 0.0
H469 H 0.36692 0.45944 0.60968 0.0
C470 C 0.47813 0.37107 0.8996 0.0
C471 C 0.49353 0.34857 0.82588 0.0
C472 C 0.57247 0.32137 0.89043 0.0
C473 C 0.54794 0.32505 0.96551 0.0
N474 N 0.49798 0.38324 1.04443 0.0
N475 N 0.5628 0.3232 0.74218 0.0
C476 C 0.5082 0.36157 0.97094 0.0
C477 C 0.54405 0.33163 0.81794 0.0
N478 N 0.43361 0.39788 0.90072 0.0
N479 N 0.62185 0.30707 0.88995 0.0
H480 H 0.54155 0.33231 0.68937 0.0
H481 H 0.59915 0.30906 0.73105 0.0
H482 H 0.64291 0.30687 0.9448 0.0
H483 H 0.63974 0.29535 0.83746 0.0
H484 H 0.41733 0.41228 0.95334 0.0
H485 H 0.41388 0.40516 0.84601 0.0
H486 H 0.46975 0.411 1.05263 0.0
H487 H 0.52098 0.37505 1.09594 0.0
C488 C 0.57357 0.9115 0.94403 0.0
C489 C 0.61779 0.87981 0.94427 0.0
C490 C 0.67115 0.95643 0.93019 0.0
C491 C 0.62822 0.98856 0.94269 0.0
N492 N 0.53766 -0.00273 0.96013 0.0
N493 N 0.7093 0.87242 0.95106 0.0
C494 C 0.57889 0.9663 0.94714 0.0
C495 C 0.66674 0.90228 0.93947 0.0
N496 N 0.52654 0.88893 0.94178 0.0
N497 N 0.71665 0.97812 0.91152 0.0
H498 H 0.70711 0.83328 0.96382 0.0
H499 H 0.74615 0.88708 0.95679 0.0
H500 H 0.72082 0.01776 0.90538 0.0
H501 H 0.74838 0.95684 0.89422 0.0
H502 H 0.49253 0.9093 0.93566 0.0
H503 H 0.52151 0.84906 0.94042 0.0
H504 H 0.50273 0.98358 0.97902 0.0
H505 H 0.53907 0.03728 0.95601 0.0
C506 C 0.0514 0.62322 0.92317 0.0
C507 C 0.07625 0.6633 0.88216 0.0
C508 C 0.0221 0.72716 0.94855 0.0
C509 C -0.00807 0.68659 0.97765 0.0
N510 N 0.97219 0.59533 0.97893 0.0
N511 N 0.07991 0.75335 0.84487 0.0
C512 C 0.00495 0.63434 0.96136 0.0
C513 C 0.06053 0.71544 0.89241 0.0
N514 N 0.07118 0.57436 0.92383 0.0
N515 N 0.01356 0.77675 0.97319 0.0
H516 H 0.10723 0.74603 0.80154 0.0
H517 H 0.06579 0.79097 0.84353 0.0
H518 H 0.98402 0.78696 1.01154 0.0
H519 H 0.03807 0.80698 0.9602 0.0
H520 H 0.05696 0.5449 0.95973 0.0
H521 H 0.10499 0.56452 0.89564 0.0
H522 H 0.97798 0.55722 0.96113 0.0
H523 H 0.93641 0.60151 1.00283 0.0
C524 C 0.27916 0.05939 0.96917 0.0
C525 C 0.3239 0.07957 0.93534 0.0
C526 C 0.35886 -0.00924 0.9279 0.0
C527 C 0.3106 0.97047 0.94996 0.0
N528 N 0.22269 0.98678 0.98243 0.0
N529 N 0.41273 0.06606 0.90788 0.0
C530 C 0.27039 0.0053 0.96863 0.0
C531 C 0.36572 0.04568 0.92133 0.0
N532 N 0.24551 0.09251 1.00436 0.0
N533 N 0.39866 0.9577 0.91595 0.0
H534 H 0.42127 0.10462 0.91844 0.0
H535 H 0.44514 0.04506 0.89407 0.0
H536 H 0.39729 0.91832 0.92698 0.0
H537 H 0.43314 0.96845 0.89206 0.0
H538 H 0.21438 0.08046 1.03741 0.0
H539 H 0.25251 0.13204 1.00867 0.0
H540 H 0.19061 0.01029 0.98749 0.0
H541 H 0.214 0.94769 0.98063 0.0
C542 C 0.9351 0.37053 0.91836 0.0
C543 C 0.90073 0.32825 0.92276 0.0
C544 C 0.96613 0.27795 0.99851 0.0
C545 C 8e-05 0.32015 0.99442 0.0
N546 N 0.0122 0.41116 0.97077 0.0
N547 N 0.87888 0.24749 0.98425 0.0
C548 C 0.98322 0.36776 0.96031 0.0
C549 C 0.91492 0.28378 0.96854 0.0
N550 N 0.92345 0.41251 0.8711 0.0
N551 N 0.98341 0.23175 1.02852 0.0
H552 H 0.84095 0.25137 0.9641 0.0
H553 H 0.8851 0.21645 1.02345 0.0
H554 H 0.02079 0.22624 1.05033 0.0
H555 H 0.96222 0.19792 1.02589 0.0
H556 H 0.95049 0.43957 0.85441 0.0
H557 H 0.88749 0.41994 0.84572 0.0
H558 H -0.00112 0.4481 0.95681 0.0
H559 H 0.04801 0.41122 0.99995 0.0
C560 C 0.13714 0.95941 0.45274 0.0
C561 C 0.18329 0.93395 0.43284 0.0
C562 C 0.20606 0.92939 0.57728 0.0
C563 C 0.17302 0.97101 0.58891 0.0
N564 N 0.09525 0.01363 0.5525 0.0
N565 N 0.2651 0.8967 0.48159 0.0
C566 C 0.1335 0.98094 0.53174 0.0
C567 C 0.21796 0.91692 0.49654 0.0
N568 N 0.09903 0.96498 0.39492 0.0
N569 N 0.23122 0.90798 0.64276 0.0
H570 H 0.28068 0.89305 0.42451 0.0
H571 H 0.29207 0.88877 0.52782 0.0
H572 H 0.22414 0.92031 0.70209 0.0
H573 H 0.25425 0.87526 0.63818 0.0
H574 H 0.06378 0.9818 0.40614 0.0
H575 H 0.10171 0.94867 0.33689 0.0
H576 H 0.06621 0.02573 0.51234 0.0
H577 H 0.09357 0.02824 0.61183 0.0
C578 C 0.97007 0.158 0.32551 0.0
C579 C 0.02275 0.15671 0.34812 0.0
C580 C 0.00243 0.1354 0.48782 0.0
C581 C 0.95169 0.15101 0.46875 0.0
N582 N 0.88385 0.14431 0.36971 0.0
N583 N 0.09003 0.13122 0.44252 0.0
C584 C 0.93446 0.15044 0.38693 0.0
C585 C 0.03934 0.1404 0.42684 0.0
N586 N 0.95404 0.1715 0.24835 0.0
N587 N 0.01448 0.11624 0.56332 0.0
H588 H 0.11667 0.13235 0.39652 0.0
H589 H 0.10577 0.12224 0.49966 0.0
H590 H 0.98619 0.10411 0.6024 0.0
H591 H 0.05139 0.10891 0.58499 0.0
H592 H 0.91602 0.17902 0.23221 0.0
H593 H 0.97874 0.17813 0.20095 0.0
H594 H 0.86877 0.13929 0.31082 0.0
H595 H 0.85861 0.13899 0.41696 0.0
C596 C 0.85772 -0.004 0.38112 0.0
C597 C 0.83127 0.96899 0.31927 0.0
C598 C 0.80071 0.90938 0.41829 0.0
C599 C 0.80957 0.9478 0.47907 0.0
N600 N 0.85373 0.02652 0.51968 0.0
N601 N 0.79082 0.89175 0.27323 0.0
C602 C 0.84197 -0.01001 0.4622 0.0
C603 C 0.80892 0.9216 0.33619 0.0
N604 N 0.89568 0.02871 0.36105 0.0
N605 N 0.78468 0.86167 0.43951 0.0
H606 H 0.79796 0.90126 0.21272 0.0
H607 H 0.76789 0.8595 0.28067 0.0
H608 H 0.7803 0.85104 0.5002 0.0
H609 H 0.7832 0.83147 0.39804 0.0
H610 H 0.92039 0.04489 0.40481 0.0
H611 H 0.90538 0.03407 0.30028 0.0
H612 H 0.87336 0.06015 0.50626 0.0
H613 H 0.84147 0.02516 0.57937 0.0
C614 C 0.04584 0.85223 0.56499 0.0
C615 C 0.00731 0.83627 0.61739 0.0
C616 C 0.94434 0.85081 0.51262 0.0
C617 C 0.9829 0.84042 0.45531 0.0
N618 N 0.07161 0.85017 0.42311 0.0
N619 N 0.92773 0.8734 0.6542 0.0
C620 C 0.03464 0.84867 0.47957 0.0
C621 C 0.95972 0.85732 0.59553 0.0
N622 N 0.09285 0.86261 0.59703 0.0
N623 N 0.89431 0.84821 0.49019 0.0
H624 H 0.93959 0.87312 0.71559 0.0
H625 H 0.89197 0.88945 0.64059 0.0
H626 H 0.88271 0.84311 0.42936 0.0
H627 H 0.86589 0.84808 0.53326 0.0
H628 H 0.12427 0.86953 0.56168 0.0
H629 H 0.09856 0.86455 0.66022 0.0
H630 H 0.11042 0.85105 0.43819 0.0
H631 H 0.06261 0.85006 0.36077 0.0
C632 C 0.23887 0.19907 0.43693 0.0
C633 C 0.26163 0.23593 0.49276 0.0
C634 C 0.27593 0.29127 0.36769 0.0
C635 C 0.24976 0.25649 0.31283 0.0
N636 N 0.20874 0.17462 0.29804 0.0
N637 N 0.29754 0.32086 0.50632 0.0
C638 C 0.23231 0.2095 0.34879 0.0
C639 C 0.27877 0.28292 0.45615 0.0
N640 N 0.22213 0.15397 0.46903 0.0
N641 N 0.30113 0.3317 0.33438 0.0
H642 H 0.30307 0.31608 0.569 0.0
H643 H 0.30446 0.35829 0.487 0.0
H644 H 0.30005 0.33914 0.27185 0.0
H645 H 0.32692 0.35475 0.36704 0.0
H646 H 0.20943 0.12249 0.43502 0.0
H647 H 0.22132 0.14798 0.53175 0.0
H648 H 0.1924 0.14038 0.31659 0.0
H649 H 0.20534 0.18027 0.23517 0.0
C650 C 0.70723 0.26017 0.34283 0.0
C651 C 0.72167 0.211 0.30985 0.0
C652 C 0.75131 0.1882 0.45543 0.0
C653 C 0.73766 0.23767 0.48803 0.0
N654 N 0.69182 0.31632 0.4601 0.0
N655 N 0.76764 0.13335 0.33697 0.0
C656 C 0.71325 0.2724 0.43023 0.0
C657 C 0.74555 0.17631 0.36778 0.0
N658 N 0.68811 0.29643 0.28987 0.0
N659 N 0.77106 0.15231 0.50849 0.0
H660 H 0.77519 0.1311 0.27513 0.0
H661 H 0.78371 0.10362 0.37143 0.0
H662 H 0.77935 0.16056 0.56966 0.0
H663 H 0.77715 0.11381 0.49387 0.0
H664 H 0.68375 0.3352 0.30469 0.0
H665 H 0.67949 0.28846 0.22873 0.0
H666 H 0.66811 0.34098 0.42629 0.0
H667 H 0.69431 0.32605 0.52152 0.0
C668 C 0.77383 0.72413 0.51201 0.0
C669 C 0.73206 0.75678 0.53537 0.0
C670 C 0.7109 0.75346 0.38141 0.0
C671 C 0.75959 0.73361 0.35862 0.0
N672 N 0.84238 0.73228 0.42124 0.0
N673 N 0.67755 0.81899 0.46743 0.0
C674 C 0.79224 0.72534 0.42925 0.0
C675 C 0.70371 0.7746 0.46326 0.0
N676 N 0.79887 0.69332 0.56696 0.0
N677 N 0.67165 0.75584 0.32542 0.0
H678 H 0.68446 0.84239 0.51703 0.0
H679 H 0.66081 0.83673 0.41612 0.0
H680 H 0.67304 0.73804 0.2686 0.0
H681 H 0.63587 0.77027 0.34018 0.0
H682 H 0.82873 0.66934 0.54923 0.0
H683 H 0.78559 0.68599 0.62468 0.0
H684 H 0.86821 0.72929 0.47063 0.0
H685 H 0.85183 0.7559 0.37326 0.0
C686 C 0.25454 0.7404 0.32948 0.0
C687 C 0.21629 0.7572 0.27101 0.0
C688 C 0.15462 0.74707 0.38607 0.0
C689 C 0.19427 0.73863 0.44791 0.0
N690 N 0.28569 0.73153 0.47004 0.0
N691 N 0.1279 0.77909 0.25052 0.0
C692 C 0.24512 0.73728 0.4168 0.0
C693 C 0.16578 0.76075 0.30161 0.0
N694 N 0.29937 0.72196 0.30088 0.0
N695 N 0.10529 0.74161 0.40728 0.0
H696 H 0.13433 0.78992 0.19052 0.0
H697 H 0.09099 0.7871 0.26867 0.0
H698 H 0.09578 0.73634 0.46715 0.0
H699 H 0.07466 0.73929 0.36561 0.0
H700 H 0.32665 0.70302 0.3374 0.0
H701 H 0.30596 0.71946 0.23886 0.0
H702 H 0.32327 0.7376 0.45327 0.0
H703 H 0.28209 0.72348 0.53167 0.0
C704 C 0.78195 0.77574 0.89679 0.0
C705 C 0.73603 0.75578 0.85849 0.0
C706 C 0.71569 0.72009 0.99832 0.0
C707 C 0.76278 0.73769 1.03613 0.0
N708 N 0.84169 0.7818 1.01472 0.0
N709 N 0.66566 0.69873 0.87404 0.0
C710 C 0.79609 0.76497 0.98273 0.0
C711 C 0.70489 0.72536 0.9102 0.0
N712 N 0.81113 0.80795 0.85188 0.0
N713 N 0.68077 0.69731 1.04663 0.0
H714 H 0.65732 0.70059 0.81152 0.0
H715 H 0.64426 0.67179 0.90462 0.0
H716 H 0.68812 0.68934 1.10811 0.0
H717 H 0.64342 0.6894 1.02743 0.0
H718 H 0.84156 0.8293 0.87571 0.0
H719 H 0.80267 0.81628 0.79077 0.0
H720 H 0.87116 0.79583 0.98001 0.0
H721 H 0.85118 0.77934 1.07671 0.0
C722 C 0.22944 0.69948 0.82696 0.0
C723 C 0.21039 0.73765 0.77037 0.0
C724 C 0.20874 0.79765 0.89338 0.0
C725 C 0.22386 0.75797 0.95038 0.0
N726 N 0.24815 0.66931 0.96698 0.0
N727 N 0.17822 0.82412 0.75712 0.0
C728 C 0.23316 0.70819 0.91545 0.0
C729 C 0.20015 0.78726 0.80598 0.0
N730 N 0.24579 0.65438 0.7947 0.0
N731 N 0.20184 0.84627 0.92307 0.0
H732 H 0.17236 0.819 0.69469 0.0
H733 H 0.16249 0.85829 0.77851 0.0
H734 H 0.2022 0.85448 0.98534 0.0
H735 H 0.19837 0.87881 0.88636 0.0
H736 H 0.24985 0.61999 0.82649 0.0
H737 H 0.25497 0.6524 0.73377 0.0
H738 H 0.25638 0.63185 0.949 0.0
H739 H 0.252 0.6744 1.02989 0.0
C740 C 0.28791 0.28917 0.9495 0.0
C741 C 0.24612 0.26714 0.99185 0.0
C742 C 0.21637 0.23095 0.85515 0.0
C743 C 0.25847 0.25213 0.81268 0.0
N744 N 0.32565 0.31364 0.82013 0.0
N745 N 0.17401 0.21031 0.98019 0.0
C746 C 0.29205 0.28416 0.86078 0.0
C747 C 0.21128 0.23692 0.94267 0.0
N748 N 0.32435 0.31485 0.99443 0.0
N749 N 0.18067 0.20232 0.814 0.0
H750 H 0.17382 0.20671 1.04328 0.0
H751 H 0.14672 0.18838 0.94832 0.0
H752 H 0.18108 0.19535 0.75128 0.0
H753 H 0.18108 0.19535 0.75128 0.0
H754 H 0.35886 0.32694 0.97135 0.0
H755 H 0.32162 0.32068 1.05714 0.0
H756 H 0.34988 0.3402 0.84811 0.0
H757 H 0.32501 0.3153 0.75659 0.0
C758 C 0.73622 0.28034 0.8759 0.0
C759 C 0.74099 0.24299 0.81129 0.0
C760 C 0.7244 0.17743 0.92141 0.0
C761 C 0.7209 0.21471 0.98702 0.0
N762 N 0.73816 0.30425 1.01952 0.0
N763 N 0.75717 0.15315 0.78829 0.0
C764 C 0.7328 0.26636 0.96209 0.0
C765 C 0.73963 0.19087 0.83884 0.0
N766 N 0.72761 0.33009 0.85451 0.0
N767 N 0.71454 0.12741 0.93688 0.0
H768 H 0.77205 0.16091 0.73143 0.0
H769 H 0.76353 0.11519 0.80669 0.0
H770 H 0.71052 0.11365 0.99511 0.0
H771 H 0.7069 0.10104 0.8903 0.0
H772 H 0.71954 0.35974 0.89522 0.0
H773 H 0.71939 0.33872 0.79452 0.0
H774 H 0.75496 0.33962 1.00707 0.0
H775 H 0.72763 0.30041 1.07971 0.0
loop_
_geom_bond_atom_site_label_1
_geom_bond_atom_site_label_2
_geom_bond_distance
_geom_bond_site_symmetry_2
_ccdc_geom_bond_type
Zn0 N4 2.020 . S
Zn0 O8 2.019 . S
Zn0 N10 2.119 . S
Zn0 O18 1.975 . S
C1 N2 1.334 . S
C1 N5 1.336 . S
N2 C1 1.334 . S
N2 C3 1.334 1_554 S
C3 N2 1.334 1_556 S
C3 N4 1.336 . S
N4 Zn0 2.020 . S
N4 C3 1.336 . S
N4 N5 1.354 1_556 S
N5 C1 1.336 . S
N5 N4 1.354 1_554 S
N5 Zn9 2.020 . S
C6 O7 1.244 . S
C6 O30 1.257 . S
O7 C6 1.244 . S
O8 Zn0 2.019 . S
O8 C28 1.257 . S
Zn9 N5 2.020 . S
Zn9 O16 1.975 . S
Zn9 N25 2.119 . S
Zn9 O30 2.019 . S
N10 Zn0 2.119 . S
N10 C12 1.334 . S
N10 C13 1.328 . S
C11 C12 1.391 . S
C11 N14 1.329 . S
C11 H32 0.930 . S
C12 N10 1.334 . S
C12 C11 1.391 . S
C12 H19 0.930 . S
C13 N10 1.328 . S
C13 C15 1.392 . S
C13 H20 0.930 . S
N14 C11 1.329 . S
N14 C15 1.331 . S
C15 C13 1.392 . S
C15 N14 1.331 . S
O16 Zn9 1.975 . S
O16 C17 1.252 . S
C17 O16 1.252 . S
C17 O18 1.252 1_554 S
O18 Zn0 1.975 . S
O18 C17 1.252 1_556 S
H19 C12 0.930 . S
H20 C13 0.930 . S
C21 C22 1.392 . S
C21 N25 1.328 . S
C21 H27 0.930 . S
C22 C21 1.392 . S
C22 N26 1.331 . S
C23 C24 1.391 . S
C23 N26 1.329 . S
C23 H33 0.930 1_455 S
C24 C23 1.391 . S
C24 N25 1.334 . S
C24 H31 0.930 . S
N25 Zn9 2.119 . S
N25 C21 1.328 . S
N25 C24 1.334 . S
N26 C22 1.331 . S
N26 C23 1.329 . S
H27 C21 0.930 . S
C28 O8 1.257 . S
C28 O29 1.244 . S
O29 C28 1.244 . S
O30 C6 1.257 . S
O30 Zn9 2.019 . S
H31 C24 0.930 . S
H32 C11 0.930 . S
H33 C23 0.930 1_655 S
Zn34 N38 2.020 . S
Zn34 O42 2.019 . S
Zn34 N44 2.119 . S
Zn34 O52 1.975 . S
C35 N36 1.334 1_556 S
C35 N39 1.336 . S
N36 C35 1.334 1_554 S
N36 C37 1.334 . S
C37 N36 1.334 . S
C37 N38 1.336 . S
N38 Zn34 2.020 . S
N38 C37 1.336 . S
N38 N39 1.354 1_554 S
N39 C35 1.336 . S
N39 N38 1.354 1_556 S
N39 Zn43 2.020 . S
C40 O41 1.244 . S
C40 O64 1.257 . S
O41 C40 1.244 . S
O42 Zn34 2.019 . S
O42 C62 1.257 . S
Zn43 N39 2.020 . S
Zn43 O50 1.975 . S
Zn43 N59 2.119 . S
Zn43 O64 2.019 . S
N44 Zn34 2.119 . S
N44 C46 1.334 . S
N44 C47 1.328 . S
C45 C46 1.391 . S
C45 N48 1.329 . S
C45 H66 0.930 1_545 S
C46 N44 1.334 . S
C46 C45 1.391 . S
C46 H53 0.930 . S
C47 N44 1.328 . S
C47 C49 1.392 . S
C47 H54 0.930 . S
N48 C45 1.329 . S
N48 C49 1.331 . S
C49 C47 1.392 . S
C49 N48 1.331 . S
O50 Zn43 1.975 . S
O50 C51 1.252 1_556 S
C51 O50 1.252 1_554 S
C51 O52 1.252 . S
O52 Zn34 1.975 . S
O52 C51 1.252 . S
H53 C46 0.930 . S
H54 C47 0.930 . S
C55 C56 1.392 . S
C55 N59 1.328 . S
C55 H61 0.930 . S
C56 C55 1.392 . S
C56 N60 1.331 . S
C57 C58 1.391 . S
C57 N60 1.329 . S
C57 H67 0.930 . S
C58 C57 1.391 . S
C58 N59 1.334 . S
C58 H65 0.930 . S
N59 Zn43 2.119 . S
N59 C55 1.328 . S
N59 C58 1.334 . S
N60 C56 1.331 . S
N60 C57 1.329 . S
H61 C55 0.930 . S
C62 O42 1.257 . S
C62 O63 1.244 . S
O63 C62 1.244 . S
O64 C40 1.257 . S
O64 Zn43 2.019 . S
H65 C58 0.930 . S
H66 C45 0.930 1_565 S
H67 C57 0.930 . S
Zn68 N72 2.020 . S
Zn68 O76 2.019 . S
Zn68 N78 2.119 . S
Zn68 O86 1.975 . S
C69 N70 1.334 . S
C69 N73 1.336 . S
N70 C69 1.334 . S
N70 C71 1.334 1_554 S
C71 N70 1.334 1_556 S
C71 N72 1.336 . S
N72 Zn68 2.020 . S
N72 C71 1.336 . S
N72 N73 1.354 1_556 S
N73 C69 1.336 . S
N73 N72 1.354 1_554 S
N73 Zn77 2.020 . S
C74 O75 1.244 . S
C74 O98 1.257 . S
O75 C74 1.244 . S
O76 Zn68 2.019 . S
O76 C96 1.257 . S
Zn77 N73 2.020 . S
Zn77 O84 1.975 . S
Zn77 N93 2.119 . S
Zn77 O98 2.019 . S
N78 Zn68 2.119 . S
N78 C80 1.334 . S
N78 C81 1.328 . S
C79 C80 1.391 . S
C79 N82 1.329 . S
C79 H100 0.930 . S
C80 N78 1.334 . S
C80 C79 1.391 . S
C80 H87 0.930 . S
C81 N78 1.328 . S
C81 C83 1.392 . S
C81 H88 0.930 . S
N82 C79 1.329 . S
N82 C83 1.331 . S
C83 C81 1.392 . S
C83 N82 1.331 . S
O84 Zn77 1.975 . S
O84 C85 1.252 . S
C85 O84 1.252 . S
C85 O86 1.252 1_554 S
O86 Zn68 1.975 . S
O86 C85 1.252 1_556 S
H87 C80 0.930 . S
H88 C81 0.930 . S
C89 C90 1.392 . S
C89 N93 1.328 . S
C89 H95 0.930 . S
C90 C89 1.392 . S
C90 N94 1.331 . S
C91 C92 1.391 . S
C91 N94 1.329 . S
C91 H101 0.930 1_655 S
C92 C91 1.391 . S
C92 N93 1.334 . S
C92 H99 0.930 . S
N93 Zn77 2.119 . S
N93 C89 1.328 . S
N93 C92 1.334 . S
N94 C90 1.331 . S
N94 C91 1.329 . S
H95 C89 0.930 . S
C96 O76 1.257 . S
C96 O97 1.244 . S
O97 C96 1.244 . S
O98 C74 1.257 . S
O98 Zn77 2.019 . S
H99 C92 0.930 . S
H100 C79 0.930 . S
H101 C91 0.930 1_455 S
Zn102 N106 2.020 . S
Zn102 O110 2.019 . S
Zn102 N112 2.119 . S
Zn102 O120 1.975 . S
C103 N104 1.334 . S
C103 N107 1.336 . S
N104 C103 1.334 . S
N104 C105 1.334 1_554 S
C105 N104 1.334 1_556 S
C105 N106 1.336 . S
N106 Zn102 2.020 . S
N106 C105 1.336 . S
N106 N107 1.354 1_556 S
N107 C103 1.336 . S
N107 N106 1.354 1_554 S
N107 Zn111 2.020 . S
C108 O109 1.244 . S
C108 O132 1.257 . S
O109 C108 1.244 . S
O110 Zn102 2.019 . S
O110 C130 1.257 . S
Zn111 N107 2.020 . S
Zn111 O118 1.975 . S
Zn111 N127 2.119 . S
Zn111 O132 2.019 . S
N112 Zn102 2.119 . S
N112 C114 1.334 . S
N112 C115 1.328 . S
C113 C114 1.391 . S
C113 N116 1.329 . S
C113 H134 0.930 . S
C114 N112 1.334 . S
C114 C113 1.391 . S
C114 H121 0.930 . S
C115 N112 1.328 . S
C115 C117 1.392 . S
C115 H122 0.930 . S
N116 C113 1.329 . S
N116 C117 1.331 . S
C117 C115 1.392 . S
C117 N116 1.331 . S
O118 Zn111 1.975 . S
O118 C119 1.252 . S
C119 O118 1.252 . S
C119 O120 1.252 1_554 S
O120 Zn102 1.975 . S
O120 C119 1.252 1_556 S
H121 C114 0.930 . S
H122 C115 0.930 . S
C123 C124 1.392 . S
C123 N127 1.328 . S
C123 H129 0.930 . S
C124 C123 1.392 . S
C124 N128 1.331 . S
C125 C126 1.391 . S
C125 N128 1.329 . S
C125 H135 0.930 1_565 S
C126 C125 1.391 . S
C126 N127 1.334 . S
C126 H133 0.930 . S
N127 Zn111 2.119 . S
N127 C123 1.328 . S
N127 C126 1.334 . S
N128 C124 1.331 . S
N128 C125 1.329 . S
H129 C123 0.930 . S
C130 O110 1.257 . S
C130 O131 1.244 . S
O131 C130 1.244 . S
O132 C108 1.257 . S
O132 Zn111 2.019 . S
H133 C126 0.930 . S
H134 C113 0.930 . S
H135 C125 0.930 1_545 S
Zn136 N140 2.020 . S
Zn136 O144 2.019 . S
Zn136 N146 2.119 . S
Zn136 O154 1.975 . S
C137 N138 1.334 . S
C137 N141 1.336 . S
N138 C137 1.334 . S
N138 C139 1.334 . S
C139 N138 1.334 . S
C139 N140 1.336 . S
N140 Zn136 2.020 . S
N140 C139 1.336 . S
N140 N141 1.354 . S
N141 C137 1.336 . S
N141 N140 1.354 . S
N141 Zn145 2.020 . S
C142 O143 1.244 . S
C142 O166 1.257 . S
O143 C142 1.244 . S
O144 Zn136 2.019 . S
O144 C164 1.257 . S
Zn145 N141 2.020 . S
Zn145 O152 1.975 . S
Zn145 N161 2.119 . S
Zn145 O166 2.019 . S
N146 Zn136 2.119 . S
N146 C148 1.334 . S
N146 C149 1.328 . S
C147 C148 1.391 . S
C147 N150 1.329 . S
C147 H168 0.930 . S
C148 N146 1.334 . S
C148 C147 1.391 . S
C148 H155 0.930 . S
C149 N146 1.328 . S
C149 C151 1.392 . S
C149 H156 0.930 . S
N150 C147 1.329 . S
N150 C151 1.331 . S
C151 C149 1.392 . S
C151 N150 1.331 . S
O152 Zn145 1.975 . S
O152 C153 1.252 . S
C153 O152 1.252 . S
C153 O154 1.252 . S
O154 Zn136 1.975 . S
O154 C153 1.252 . S
H155 C148 0.930 . S
H156 C149 0.930 . S
C157 C158 1.392 . S
C157 N161 1.328 . S
C157 H163 0.930 . S
C158 C157 1.392 . S
C158 N162 1.331 . S
C159 C160 1.391 . S
C159 N162 1.329 . S
C159 H169 0.930 1_455 S
C160 C159 1.391 . S
C160 N161 1.334 . S
C160 H167 0.930 . S
N161 Zn145 2.119 . S
N161 C157 1.328 . S
N161 C160 1.334 . S
N162 C158 1.331 . S
N162 C159 1.329 . S
H163 C157 0.930 . S
C164 O144 1.257 . S
C164 O165 1.244 . S
O165 C164 1.244 . S
O166 C142 1.257 . S
O166 Zn145 2.019 . S
H167 C160 0.930 . S
H168 C147 0.930 . S
H169 C159 0.930 1_655 S
Zn170 N174 2.020 . S
Zn170 O178 2.019 . S
Zn170 N180 2.119 . S
Zn170 O188 1.975 . S
C171 N172 1.334 . S
C171 N175 1.336 . S
N172 C171 1.334 . S
N172 C173 1.334 . S
C173 N172 1.334 . S
C173 N174 1.336 . S
N174 Zn170 2.020 . S
N174 C173 1.336 . S
N174 N175 1.354 . S
N175 C171 1.336 . S
N175 N174 1.354 . S
N175 Zn179 2.020 . S
C176 O177 1.244 . S
C176 O200 1.257 . S
O177 C176 1.244 . S
O178 Zn170 2.019 . S
O178 C198 1.257 . S
Zn179 N175 2.020 . S
Zn179 O186 1.975 . S
Zn179 N195 2.119 . S
Zn179 O200 2.019 . S
N180 Zn170 2.119 . S
N180 C182 1.334 . S
N180 C183 1.328 . S
C181 C182 1.391 . S
C181 N184 1.329 . S
C181 H202 0.930 1_545 S
C182 N180 1.334 . S
C182 C181 1.391 . S
C182 H189 0.930 . S
C183 N180 1.328 . S
C183 C185 1.392 . S
C183 H190 0.930 . S
N184 C181 1.329 . S
N184 C185 1.331 . S
C185 C183 1.392 . S
C185 N184 1.331 . S
O186 Zn179 1.975 . S
O186 C187 1.252 . S
C187 O186 1.252 . S
C187 O188 1.252 . S
O188 Zn170 1.975 . S
O188 C187 1.252 . S
H189 C182 0.930 . S
H190 C183 0.930 . S
C191 C192 1.392 . S
C191 N195 1.328 . S
C191 H197 0.930 . S
C192 C191 1.392 . S
C192 N196 1.331 . S
C193 C194 1.391 . S
C193 N196 1.329 . S
C193 H203 0.930 . S
C194 C193 1.391 . S
C194 N195 1.334 . S
C194 H201 0.930 . S
N195 Zn179 2.119 . S
N195 C191 1.328 . S
N195 C194 1.334 . S
N196 C192 1.331 . S
N196 C193 1.329 . S
H197 C191 0.930 . S
C198 O178 1.257 . S
C198 O199 1.244 . S
O199 C198 1.244 . S
O200 C176 1.257 . S
O200 Zn179 2.019 . S
H201 C194 0.930 . S
H202 C181 0.930 1_565 S
H203 C193 0.930 . S
Zn204 N208 2.020 . S
Zn204 O212 2.019 . S
Zn204 N214 2.119 . S
Zn204 O222 1.975 . S
C205 N206 1.334 . S
C205 N209 1.336 . S
N206 C205 1.334 . S
N206 C207 1.334 . S
C207 N206 1.334 . S
C207 N208 1.336 . S
N208 Zn204 2.020 . S
N208 C207 1.336 . S
N208 N209 1.354 . S
N209 C205 1.336 . S
N209 N208 1.354 . S
N209 Zn213 2.020 . S
C210 O211 1.244 . S
C210 O234 1.257 . S
O211 C210 1.244 . S
O212 Zn204 2.019 . S
O212 C232 1.257 . S
Zn213 N209 2.020 . S
Zn213 O220 1.975 . S
Zn213 N229 2.119 . S
Zn213 O234 2.019 . S
N214 Zn204 2.119 . S
N214 C216 1.334 . S
N214 C217 1.328 . S
C215 C216 1.391 . S
C215 N218 1.329 . S
C215 H236 0.930 1_655 S
C216 N214 1.334 . S
C216 C215 1.391 . S
C216 H223 0.930 . S
C217 N214 1.328 . S
C217 C219 1.392 . S
C217 H224 0.930 . S
N218 C215 1.329 . S
N218 C219 1.331 . S
C219 C217 1.392 . S
C219 N218 1.331 . S
O220 Zn213 1.975 . S
O220 C221 1.252 . S
C221 O220 1.252 . S
C221 O222 1.252 . S
O222 Zn204 1.975 . S
O222 C221 1.252 . S
H223 C216 0.930 . S
H224 C217 0.930 . S
C225 C226 1.392 . S
C225 N229 1.328 . S
C225 H231 0.930 . S
C226 C225 1.392 . S
C226 N230 1.331 . S
C227 C228 1.391 . S
C227 N230 1.329 . S
C227 H237 0.930 . S
C228 C227 1.391 . S
C228 N229 1.334 . S
C228 H235 0.930 . S
N229 Zn213 2.119 . S
N229 C225 1.328 . S
N229 C228 1.334 . S
N230 C226 1.331 . S
N230 C227 1.329 . S
H231 C225 0.930 . S
C232 O212 1.257 . S
C232 O233 1.244 . S
O233 C232 1.244 . S
O234 C210 1.257 . S
O234 Zn213 2.019 . S
H235 C228 0.930 . S
H236 C215 0.930 1_455 S
H237 C227 0.930 . S
Zn238 N242 2.020 . S
Zn238 O246 2.019 . S
Zn238 N248 2.119 . S
Zn238 O256 1.975 . S
C239 N240 1.334 . S
C239 N243 1.336 . S
N240 C239 1.334 . S
N240 C241 1.334 . S
C241 N240 1.334 . S
C241 N242 1.336 . S
N242 Zn238 2.020 . S
N242 C241 1.336 . S
N242 N243 1.354 . S
N243 C239 1.336 . S
N243 N242 1.354 . S
N243 Zn247 2.020 . S
C244 O245 1.244 . S
C244 O268 1.257 . S
O245 C244 1.244 . S
O246 Zn238 2.019 . S
O246 C266 1.257 . S
Zn247 N243 2.020 . S
Zn247 O254 1.975 . S
Zn247 N263 2.119 . S
Zn247 O268 2.019 . S
N248 Zn238 2.119 . S
N248 C250 1.334 . S
N248 C251 1.328 . S
C249 C250 1.391 . S
C249 N252 1.329 . S
C249 H270 0.930 1_565 S
C250 N248 1.334 . S
C250 C249 1.391 . S
C250 H257 0.930 . S
C251 N248 1.328 . S
C251 C253 1.392 . S
C251 H258 0.930 . S
N252 C249 1.329 . S
N252 C253 1.331 . S
C253 C251 1.392 . S
C253 N252 1.331 . S
O254 Zn247 1.975 . S
O254 C255 1.252 . S
C255 O254 1.252 . S
C255 O256 1.252 . S
O256 Zn238 1.975 . S
O256 C255 1.252 . S
H257 C250 0.930 . S
H258 C251 0.930 . S
C259 C260 1.392 . S
C259 N263 1.328 . S
C259 H265 0.930 . S
C260 C259 1.392 . S
C260 N264 1.331 . S
C261 C262 1.391 . S
C261 N264 1.329 . S
C261 H271 0.930 . S
C262 C261 1.391 . S
C262 N263 1.334 . S
C262 H269 0.930 . S
N263 Zn247 2.119 . S
N263 C259 1.328 . S
N263 C262 1.334 . S
N264 C260 1.331 . S
N264 C261 1.329 . S
H265 C259 0.930 . S
C266 O246 1.257 . S
C266 O267 1.244 . S
O267 C266 1.244 . S
O268 C244 1.257 . S
O268 Zn247 2.019 . S
H269 C262 0.930 . S
H270 C249 0.930 1_545 S
H271 C261 0.930 . S
C272 C273 1.363 1_556 S
C272 C278 1.370 1_455 S
C272 N280 1.356 . S
C273 C272 1.363 1_554 S
C273 C279 1.371 . S
C274 C275 1.363 . S
C274 C279 1.370 1_655 S
C274 N281 1.356 . S
C275 C274 1.363 . S
C275 C278 1.371 1_554 S
N276 C278 1.359 . S
N276 H288 0.984 1_655 S
N276 H289 0.985 . S
N277 C279 1.359 . S
N277 H282 0.984 . S
N277 H283 0.985 1_455 S
C278 C272 1.370 1_655 S
C278 C275 1.371 1_556 S
C278 N276 1.359 . S
C279 C273 1.371 . S
C279 C274 1.370 1_455 S
C279 N277 1.359 . S
N280 C272 1.356 . S
N280 H286 0.984 . S
N280 H287 0.984 . S
N281 C274 1.356 . S
N281 H284 0.984 . S
N281 H285 0.985 . S
H282 N277 0.984 . S
H283 N277 0.985 1_655 S
H284 N281 0.984 . S
H285 N281 0.985 . S
H286 N280 0.984 . S
H287 N280 0.984 . S
H288 N276 0.984 1_455 S
H289 N276 0.985 . S
C290 C291 1.363 1_556 S
C290 C296 1.371 1_565 S
C290 N298 1.356 . S
C291 C290 1.363 1_554 S
C291 C297 1.371 . S
C292 C293 1.363 . S
C292 C297 1.371 1_545 S
C292 N299 1.356 . S
C293 C292 1.363 . S
C293 C296 1.371 1_554 S
N294 C296 1.359 . S
N294 H306 0.984 1_545 S
N294 H307 0.985 . S
N295 C297 1.359 . S
N295 H300 0.984 . S
N295 H301 0.985 1_565 S
C296 C290 1.371 1_545 S
C296 C293 1.371 1_556 S
C296 N294 1.359 . S
C297 C291 1.371 . S
C297 C292 1.371 1_565 S
C297 N295 1.359 . S
N298 C290 1.356 . S
N298 H304 0.984 . S
N298 H305 0.984 . S
N299 C292 1.356 . S
N299 H302 0.984 . S
N299 H303 0.985 . S
H300 N295 0.984 . S
H301 N295 0.985 1_545 S
H302 N299 0.984 . S
H303 N299 0.985 . S
H304 N298 0.984 . S
H305 N298 0.984 . S
H306 N294 0.984 1_565 S
H307 N294 0.985 . S
C308 C309 1.371 . S
C308 C314 1.371 1_455 S
C308 N316 1.359 . S
C309 C308 1.371 . S
C309 C315 1.363 . S
C310 C311 1.371 . S
C310 C315 1.371 1_655 S
C310 N317 1.359 . S
C311 C310 1.371 . S
C311 C314 1.363 . S
N312 C314 1.356 . S
N312 H324 0.984 . S
N312 H325 0.985 . S
N313 C315 1.356 . S
N313 H318 0.984 . S
N313 H319 0.985 . S
C314 C308 1.371 1_655 S
C314 C311 1.363 . S
C314 N312 1.356 . S
C315 C309 1.363 . S
C315 C310 1.371 1_455 S
C315 N313 1.356 . S
N316 C308 1.359 . S
N316 H322 0.984 1_455 S
N316 H323 0.984 . S
N317 C310 1.359 . S
N317 H320 0.984 . S
N317 H321 0.985 1_655 S
H318 N313 0.984 . S
H319 N313 0.985 . S
H320 N317 0.984 . S
H321 N317 0.985 1_455 S
H322 N316 0.984 1_655 S
H323 N316 0.984 . S
H324 N312 0.984 . S
H325 N312 0.985 . S
C326 C327 1.371 . S
C326 C332 1.370 1_565 S
C326 N334 1.359 . S
C327 C326 1.371 . S
C327 C333 1.363 . S
C328 C329 1.371 . S
C328 C333 1.370 1_545 S
C328 N335 1.359 . S
C329 C328 1.371 . S
C329 C332 1.363 . S
N330 C332 1.356 . S
N330 H342 0.984 . S
N330 H343 0.985 . S
N331 C333 1.356 . S
N331 H336 0.984 . S
N331 H337 0.985 . S
C332 C326 1.370 1_545 S
C332 C329 1.363 . S
C332 N330 1.356 . S
C333 C327 1.363 . S
C333 C328 1.370 1_565 S
C333 N331 1.356 . S
N334 C326 1.359 . S
N334 H340 0.984 1_565 S
N334 H341 0.984 . S
N335 C328 1.359 . S
N335 H338 0.984 . S
N335 H339 0.985 1_545 S
H336 N331 0.984 . S
H337 N331 0.985 . S
H338 N335 0.984 . S
H339 N335 0.985 1_565 S
H340 N334 0.984 1_545 S
H341 N334 0.984 . S
H342 N330 0.984 . S
H343 N330 0.985 . S
C344 C345 1.363 . S
C344 C350 1.379 . S
C344 N352 1.356 . S
C345 C344 1.363 . S
C345 C351 1.363 . S
C346 C347 1.363 . S
C346 C351 1.379 . S
C346 N353 1.356 . S
C347 C346 1.363 . S
C347 C350 1.363 . S
N348 C350 1.356 . S
N348 H360 0.984 . S
N348 H361 0.985 . S
N349 C351 1.356 . S
N349 H354 0.984 . S
N349 H355 0.985 . S
C350 C344 1.379 . S
C350 C347 1.363 . S
C350 N348 1.356 . S
C351 C345 1.363 . S
C351 C346 1.379 . S
C351 N349 1.356 . S
N352 C344 1.356 . S
N352 H358 0.984 . S
N352 H359 0.984 . S
N353 C346 1.356 . S
N353 H356 0.984 . S
N353 H357 0.985 . S
H354 N349 0.984 . S
H355 N349 0.985 . S
H356 N353 0.984 . S
H357 N353 0.985 . S
H358 N352 0.984 . S
H359 N352 0.984 . S
H360 N348 0.984 . S
H361 N348 0.985 . S
C362 C363 1.363 . S
C362 C368 1.379 . S
C362 N370 1.356 . S
C363 C362 1.363 . S
C363 C369 1.363 . S
C364 C365 1.363 . S
C364 C369 1.379 . S
C364 N371 1.356 . S
C365 C364 1.363 . S
C365 C368 1.363 . S
N366 C368 1.356 . S
N366 H378 0.984 . S
N366 H379 0.985 . S
N367 C369 1.356 . S
N367 H372 0.984 . S
N367 H373 0.985 . S
C368 C362 1.379 . S
C368 C365 1.363 . S
C368 N366 1.356 . S
C369 C363 1.363 . S
C369 C364 1.379 . S
C369 N367 1.356 . S
N370 C362 1.356 . S
N370 H376 0.984 . S
N370 H377 0.984 . S
N371 C364 1.356 . S
N371 H374 0.984 . S
N371 H375 0.985 . S
H372 N367 0.984 . S
H373 N367 0.985 . S
H374 N371 0.984 . S
H375 N371 0.985 . S
H376 N370 0.984 . S
H377 N370 0.984 . S
H378 N366 0.984 . S
H379 N366 0.985 . S
C380 C381 1.363 . S
C380 C386 1.379 . S
C380 N388 1.356 . S
C381 C380 1.363 . S
C381 C387 1.363 . S
C382 C383 1.363 . S
C382 C387 1.379 . S
C382 N389 1.356 . S
C383 C382 1.363 . S
C383 C386 1.363 . S
N384 C386 1.356 . S
N384 H396 0.984 . S
N384 H397 0.985 . S
N385 C387 1.356 . S
N385 H390 0.984 . S
N385 H391 0.985 . S
C386 C380 1.379 . S
C386 C383 1.363 . S
C386 N384 1.356 . S
C387 C381 1.363 . S
C387 C382 1.379 . S
C387 N385 1.356 . S
N388 C380 1.356 . S
N388 H394 0.984 . S
N388 H395 0.984 . S
N389 C382 1.356 . S
N389 H392 0.984 . S
N389 H393 0.985 . S
H390 N385 0.984 . S
H391 N385 0.985 . S
H392 N389 0.984 . S
H393 N389 0.985 . S
H394 N388 0.984 . S
H395 N388 0.984 . S
H396 N384 0.984 . S
H397 N384 0.985 . S
C398 C399 1.363 . S
C398 C404 1.379 . S
C398 N406 1.356 . S
C399 C398 1.363 . S
C399 C405 1.363 . S
C400 C401 1.363 . S
C400 C405 1.379 . S
C400 N407 1.356 . S
C401 C400 1.363 . S
C401 C404 1.363 . S
N402 C404 1.356 . S
N402 H414 0.984 . S
N402 H415 0.985 . S
N403 C405 1.356 . S
N403 H408 0.984 . S
N403 H409 0.985 . S
C404 C398 1.379 . S
C404 C401 1.363 . S
C404 N402 1.356 . S
C405 C399 1.363 . S
C405 C400 1.379 . S
C405 N403 1.356 . S
N406 C398 1.356 . S
N406 H412 0.984 . S
N406 H413 0.984 . S
N407 C400 1.356 . S
N407 H410 0.984 . S
N407 H411 0.985 . S
H408 N403 0.984 . S
H409 N403 0.985 . S
H410 N407 0.984 . S
H411 N407 0.985 . S
H412 N406 0.984 . S
H413 N406 0.984 . S
H414 N402 0.984 . S
H415 N402 0.985 . S
C416 C417 1.363 . S
C416 C422 1.379 . S
C416 N424 1.356 . S
C417 C416 1.363 . S
C417 C423 1.363 . S
C418 C419 1.363 . S
C418 C423 1.379 . S
C418 N425 1.356 . S
C419 C418 1.363 . S
C419 C422 1.363 . S
N420 C422 1.356 . S
N420 H432 0.984 . S
N420 H433 0.985 . S
N421 C423 1.356 . S
N421 H426 0.984 . S
N421 H427 0.985 . S
C422 C416 1.379 . S
C422 C419 1.363 . S
C422 N420 1.356 . S
C423 C417 1.363 . S
C423 C418 1.379 . S
C423 N421 1.356 . S
N424 C416 1.356 . S
N424 H430 0.984 . S
N424 H431 0.984 . S
N425 C418 1.356 . S
N425 H428 0.984 . S
N425 H429 0.985 . S
H426 N421 0.984 . S
H427 N421 0.985 . S
H428 N425 0.984 . S
H429 N425 0.985 . S
H430 N424 0.984 . S
H431 N424 0.984 . S
H432 N420 0.984 . S
H433 N420 0.985 . S
C434 C435 1.363 . S
C434 C440 1.379 . S
C434 N442 1.356 . S
C435 C434 1.363 . S
C435 C441 1.363 . S
C436 C437 1.363 . S
C436 C441 1.379 . S
C436 N443 1.356 . S
C437 C436 1.363 . S
C437 C440 1.363 . S
N438 C440 1.356 . S
N438 H450 0.984 . S
N438 H451 0.985 . S
N439 C441 1.356 . S
N439 H444 0.984 . S
N439 H445 0.985 . S
C440 C434 1.379 . S
C440 C437 1.363 . S
C440 N438 1.356 . S
C441 C435 1.363 . S
C441 C436 1.379 . S
C441 N439 1.356 . S
N442 C434 1.356 . S
N442 H448 0.984 . S
N442 H449 0.984 . S
N443 C436 1.356 . S
N443 H446 0.984 . S
N443 H447 0.985 . S
H444 N439 0.984 . S
H445 N439 0.985 . S
H446 N443 0.984 . S
H447 N443 0.985 . S
H448 N442 0.984 . S
H449 N442 0.984 . S
H450 N438 0.984 . S
H451 N438 0.985 . S
C452 C453 1.363 . S
C452 C458 1.379 . S
C452 N460 1.356 . S
C453 C452 1.363 . S
C453 C459 1.363 . S
C454 C455 1.363 . S
C454 C459 1.379 . S
C454 N461 1.356 . S
C455 C454 1.363 . S
C455 C458 1.363 . S
N456 C458 1.356 . S
N456 H468 0.984 . S
N456 H469 0.985 . S
N457 C459 1.356 . S
N457 H462 0.984 . S
N457 H463 0.985 . S
C458 C452 1.379 . S
C458 C455 1.363 . S
C458 N456 1.356 . S
C459 C453 1.363 . S
C459 C454 1.379 . S
C459 N457 1.356 . S
N460 C452 1.356 . S
N460 H466 0.984 . S
N460 H467 0.984 . S
N461 C454 1.356 . S
N461 H464 0.984 . S
N461 H465 0.985 . S
H462 N457 0.984 . S
H463 N457 0.985 . S
H464 N461 0.984 . S
H465 N461 0.985 . S
H466 N460 0.984 . S
H467 N460 0.984 . S
H468 N456 0.984 . S
H469 N456 0.985 . S
C470 C471 1.363 . S
C470 C476 1.379 . S
C470 N478 1.356 . S
C471 C470 1.363 . S
C471 C477 1.363 . S
C472 C473 1.363 . S
C472 C477 1.379 . S
C472 N479 1.356 . S
C473 C472 1.363 . S
C473 C476 1.363 . S
N474 C476 1.356 . S
N474 H486 0.984 . S
N474 H487 0.985 . S
N475 C477 1.356 . S
N475 H480 0.984 . S
N475 H481 0.985 . S
C476 C470 1.379 . S
C476 C473 1.363 . S
C476 N474 1.356 . S
C477 C471 1.363 . S
C477 C472 1.379 . S
C477 N475 1.356 . S
N478 C470 1.356 . S
N478 H484 0.984 . S
N478 H485 0.984 . S
N479 C472 1.356 . S
N479 H482 0.984 . S
N479 H483 0.985 . S
H480 N475 0.984 . S
H481 N475 0.985 . S
H482 N479 0.984 . S
H483 N479 0.985 . S
H484 N478 0.984 . S
H485 N478 0.984 . S
H486 N474 0.984 . S
H487 N474 0.985 . S
C488 C489 1.363 . S
C488 C494 1.387 . S
C488 N496 1.356 . S
C489 C488 1.363 . S
C489 C495 1.354 1_565 S
C490 C491 1.363 . S
C490 C495 1.387 . S
C490 N497 1.356 . S
C491 C490 1.363 . S
C491 C494 1.354 1_545 S
N492 C494 1.353 1_545 S
N492 H504 0.984 1_545 S
N492 H505 0.985 . S
N493 C495 1.353 1_565 S
N493 H498 0.984 . S
N493 H499 0.985 1_565 S
C494 C488 1.387 . S
C494 C491 1.354 1_565 S
C494 N492 1.353 1_565 S
C495 C489 1.354 1_545 S
C495 C490 1.387 . S
C495 N493 1.353 1_545 S
N496 C488 1.356 . S
N496 H502 0.984 . S
N496 H503 0.984 . S
N497 C490 1.356 . S
N497 H500 0.984 . S
N497 H501 0.985 . S
H498 N493 0.984 . S
H499 N493 0.985 1_545 S
H500 N497 0.984 . S
H501 N497 0.985 . S
H502 N496 0.984 . S
H503 N496 0.984 . S
H504 N492 0.984 1_565 S
H505 N492 0.985 . S
C506 C507 1.363 . S
C506 C512 1.379 1_455 S
C506 N514 1.356 . S
C507 C506 1.363 . S
C507 C513 1.363 . S
C508 C509 1.363 . S
C508 C513 1.379 1_655 S
C508 N515 1.356 . S
C509 C508 1.363 . S
C509 C512 1.363 . S
N510 C512 1.356 . S
N510 H522 0.984 . S
N510 H523 0.985 . S
N511 C513 1.356 . S
N511 H516 0.984 . S
N511 H517 0.985 . S
C512 C506 1.379 1_655 S
C512 C509 1.363 . S
C512 N510 1.356 . S
C513 C507 1.363 . S
C513 C508 1.379 1_455 S
C513 N511 1.356 . S
N514 C506 1.356 . S
N514 H520 0.984 . S
N514 H521 0.984 . S
N515 C508 1.356 . S
N515 H518 0.984 . S
N515 H519 0.985 . S
H516 N511 0.984 . S
H517 N511 0.985 . S
H518 N515 0.984 . S
H519 N515 0.985 . S
H520 N514 0.984 . S
H521 N514 0.984 . S
H522 N510 0.984 . S
H523 N510 0.985 . S
C524 C525 1.363 . S
C524 C530 1.379 1_545 S
C524 N532 1.356 . S
C525 C524 1.363 . S
C525 C531 1.362 . S
C526 C527 1.363 . S
C526 C531 1.379 1_565 S
C526 N533 1.356 . S
C527 C526 1.363 . S
C527 C530 1.362 . S
N528 C530 1.356 . S
N528 H540 0.984 1_565 S
N528 H541 0.985 . S
N529 C531 1.356 . S
N529 H534 0.984 . S
N529 H535 0.985 1_545 S
C530 C524 1.379 1_565 S
C530 C527 1.362 . S
C530 N528 1.356 . S
C531 C525 1.362 . S
C531 C526 1.379 1_545 S
C531 N529 1.356 . S
N532 C524 1.356 . S
N532 H538 0.984 . S
N532 H539 0.984 . S
N533 C526 1.356 . S
N533 H536 0.984 . S
N533 H537 0.985 . S
H534 N529 0.984 . S
H535 N529 0.985 1_565 S
H536 N533 0.984 . S
H537 N533 0.985 . S
H538 N532 0.984 . S
H539 N532 0.984 . S
H540 N528 0.984 1_545 S
H541 N528 0.985 . S
C542 C543 1.363 . S
C542 C548 1.379 1_655 S
C542 N550 1.356 . S
C543 C542 1.363 . S
C543 C549 1.363 . S
C544 C545 1.363 . S
C544 C549 1.379 1_455 S
C544 N551 1.356 . S
C545 C544 1.363 . S
C545 C548 1.363 . S
N546 C548 1.356 . S
N546 H558 0.984 . S
N546 H559 0.985 . S
N547 C549 1.356 . S
N547 H552 0.984 . S
N547 H553 0.985 . S
C548 C542 1.379 1_455 S
C548 C545 1.363 . S
C548 N546 1.356 . S
C549 C543 1.363 . S
C549 C544 1.379 1_655 S
C549 N547 1.356 . S
N550 C542 1.356 . S
N550 H556 0.984 . S
N550 H557 0.984 . S
N551 C544 1.356 . S
N551 H554 0.984 . S
N551 H555 0.985 . S
H552 N547 0.984 . S
H553 N547 0.985 . S
H554 N551 0.984 . S
H555 N551 0.985 . S
H556 N550 0.984 . S
H557 N550 0.984 . S
H558 N546 0.984 . S
H559 N546 0.985 . S
C560 C561 1.363 . S
C560 C566 1.379 1_565 S
C560 N568 1.356 . S
C561 C560 1.363 . S
C561 C567 1.363 . S
C562 C563 1.363 . S
C562 C567 1.379 1_545 S
C562 N569 1.356 . S
C563 C562 1.363 . S
C563 C566 1.363 . S
N564 C566 1.356 . S
N564 H576 0.984 . S
N564 H577 0.985 . S
N565 C567 1.356 . S
N565 H570 0.984 . S
N565 H571 0.985 . S
C566 C560 1.379 1_545 S
C566 C563 1.363 . S
C566 N564 1.356 . S
C567 C561 1.363 . S
C567 C562 1.379 1_565 S
C567 N565 1.356 . S
N568 C560 1.356 . S
N568 H574 0.984 . S
N568 H575 0.984 . S
N569 C562 1.356 . S
N569 H572 0.984 . S
N569 H573 0.985 . S
H570 N565 0.984 . S
H571 N565 0.985 . S
H572 N569 0.984 . S
H573 N569 0.985 . S
H574 N568 0.984 . S
H575 N568 0.984 . S
H576 N564 0.984 . S
H577 N564 0.985 . S
C578 C579 1.363 . S
C578 C584 1.379 1_455 S
C578 N586 1.356 . S
C579 C578 1.363 . S
C579 C585 1.363 . S
C580 C581 1.363 . S
C580 C585 1.379 1_655 S
C580 N587 1.356 . S
C581 C580 1.363 . S
C581 C584 1.363 . S
N582 C584 1.356 . S
N582 H594 0.984 . S
N582 H595 0.985 . S
N583 C585 1.356 . S
N583 H588 0.984 . S
N583 H589 0.985 . S
C584 C578 1.379 1_655 S
C584 C581 1.363 . S
C584 N582 1.356 . S
C585 C579 1.363 . S
C585 C580 1.379 1_455 S
C585 N583 1.356 . S
N586 C578 1.356 . S
N586 H592 0.984 . S
N586 H593 0.984 . S
N587 C580 1.356 . S
N587 H590 0.984 . S
N587 H591 0.985 . S
H588 N583 0.984 . S
H589 N583 0.985 . S
H590 N587 0.984 . S
H591 N587 0.985 . S
H592 N586 0.984 . S
H593 N586 0.984 . S
H594 N582 0.984 . S
H595 N582 0.985 . S
C596 C597 1.363 . S
C596 C602 1.379 1_545 S
C596 N604 1.356 . S
C597 C596 1.363 . S
C597 C603 1.363 . S
C598 C599 1.363 . S
C598 C603 1.379 1_565 S
C598 N605 1.356 . S
C599 C598 1.363 . S
C599 C602 1.363 . S
N600 C602 1.356 . S
N600 H612 0.984 . S
N600 H613 0.985 . S
N601 C603 1.356 . S
N601 H606 0.984 . S
N601 H607 0.985 . S
C602 C596 1.379 1_565 S
C602 C599 1.363 . S
C602 N600 1.356 . S
C603 C597 1.363 . S
C603 C598 1.379 1_545 S
C603 N601 1.356 . S
N604 C596 1.356 . S
N604 H610 0.984 . S
N604 H611 0.984 . S
N605 C598 1.356 . S
N605 H608 0.984 . S
N605 H609 0.985 . S
H606 N601 0.984 . S
H607 N601 0.985 . S
H608 N605 0.984 . S
H609 N605 0.985 . S
H610 N604 0.984 . S
H611 N604 0.984 . S
H612 N600 0.984 . S
H613 N600 0.985 . S
C614 C615 1.363 . S
C614 C620 1.379 1_455 S
C614 N622 1.356 . S
C615 C614 1.363 . S
C615 C621 1.363 . S
C616 C617 1.363 . S
C616 C621 1.379 1_655 S
C616 N623 1.356 . S
C617 C616 1.363 . S
C617 C620 1.363 . S
N618 C620 1.356 . S
N618 H630 0.984 . S
N618 H631 0.985 . S
N619 C621 1.356 . S
N619 H624 0.984 . S
N619 H625 0.985 . S
C620 C614 1.379 1_655 S
C620 C617 1.363 . S
C620 N618 1.356 . S
C621 C615 1.363 . S
C621 C616 1.379 1_455 S
C621 N619 1.356 . S
N622 C614 1.356 . S
N622 H628 0.984 . S
N622 H629 0.984 . S
N623 C616 1.356 . S
N623 H626 0.984 . S
N623 H627 0.985 . S
H624 N619 0.984 . S
H625 N619 0.985 . S
H626 N623 0.984 . S
H627 N623 0.985 . S
H628 N622 0.984 . S
H629 N622 0.984 . S
H630 N618 0.984 . S
H631 N618 0.985 . S
C632 C633 1.363 . S
C632 C638 1.379 . S
C632 N640 1.356 . S
C633 C632 1.363 . S
C633 C639 1.363 . S
C634 C635 1.363 . S
C634 C639 1.379 . S
C634 N641 1.356 . S
C635 C634 1.363 . S
C635 C638 1.363 . S
N636 C638 1.356 . S
N636 H648 0.984 . S
N636 H649 0.985 . S
N637 C639 1.356 . S
N637 H642 0.984 . S
N637 H643 0.985 . S
C638 C632 1.379 . S
C638 C635 1.363 . S
C638 N636 1.356 . S
C639 C633 1.363 . S
C639 C634 1.379 . S
C639 N637 1.356 . S
N640 C632 1.356 . S
N640 H646 0.984 . S
N640 H647 0.984 . S
N641 C634 1.356 . S
N641 H644 0.984 . S
N641 H645 0.985 . S
H642 N637 0.984 . S
H643 N637 0.985 . S
H644 N641 0.984 . S
H645 N641 0.985 . S
H646 N640 0.984 . S
H647 N640 0.984 . S
H648 N636 0.984 . S
H649 N636 0.985 . S
C650 C651 1.363 . S
C650 C656 1.379 . S
C650 N658 1.356 . S
C651 C650 1.363 . S
C651 C657 1.363 . S
C652 C653 1.363 . S
C652 C657 1.379 . S
C652 N659 1.356 . S
C653 C652 1.363 . S
C653 C656 1.363 . S
N654 C656 1.356 . S
N654 H666 0.984 . S
N654 H667 0.985 . S
N655 C657 1.356 . S
N655 H660 0.984 . S
N655 H661 0.985 . S
C656 C650 1.379 . S
C656 C653 1.363 . S
C656 N654 1.356 . S
C657 C651 1.363 . S
C657 C652 1.379 . S
C657 N655 1.356 . S
N658 C650 1.356 . S
N658 H664 0.984 . S
N658 H665 0.984 . S
N659 C652 1.356 . S
N659 H662 0.984 . S
N659 H663 0.985 . S
H660 N655 0.984 . S
H661 N655 0.985 . S
H662 N659 0.984 . S
H663 N659 0.985 . S
H664 N658 0.984 . S
H665 N658 0.984 . S
H666 N654 0.984 . S
H667 N654 0.985 . S
C668 C669 1.363 . S
C668 C674 1.379 . S
C668 N676 1.356 . S
C669 C668 1.363 . S
C669 C675 1.363 . S
C670 C671 1.363 . S
C670 C675 1.379 . S
C670 N677 1.356 . S
C671 C670 1.363 . S
C671 C674 1.363 . S
N672 C674 1.356 . S
N672 H684 0.984 . S
N672 H685 0.985 . S
N673 C675 1.356 . S
N673 H678 0.984 . S
N673 H679 0.985 . S
C674 C668 1.379 . S
C674 C671 1.363 . S
C674 N672 1.356 . S
C675 C669 1.363 . S
C675 C670 1.379 . S
C675 N673 1.356 . S
N676 C668 1.356 . S
N676 H682 0.984 . S
N676 H683 0.984 . S
N677 C670 1.356 . S
N677 H680 0.984 . S
N677 H681 0.985 . S
H678 N673 0.984 . S
H679 N673 0.985 . S
H680 N677 0.984 . S
H681 N677 0.985 . S
H682 N676 0.984 . S
H683 N676 0.984 . S
H684 N672 0.984 . S
H685 N672 0.985 . S
C686 C687 1.363 . S
C686 C692 1.379 . S
C686 N694 1.356 . S
C687 C686 1.363 . S
C687 C693 1.363 . S
C688 C689 1.363 . S
C688 C693 1.379 . S
C688 N695 1.356 . S
C689 C688 1.363 . S
C689 C692 1.363 . S
N690 C692 1.356 . S
N690 H702 0.984 . S
N690 H703 0.985 . S
N691 C693 1.356 . S
N691 H696 0.984 . S
N691 H697 0.985 . S
C692 C686 1.379 . S
C692 C689 1.363 . S
C692 N690 1.356 . S
C693 C687 1.363 . S
C693 C688 1.379 . S
C693 N691 1.356 . S
N694 C686 1.356 . S
N694 H700 0.984 . S
N694 H701 0.984 . S
N695 C688 1.356 . S
N695 H698 0.984 . S
N695 H699 0.985 . S
H696 N691 0.984 . S
H697 N691 0.985 . S
H698 N695 0.984 . S
H699 N695 0.985 . S
H700 N694 0.984 . S
H701 N694 0.984 . S
H702 N690 0.984 . S
H703 N690 0.985 . S
C704 C705 1.363 . S
C704 C710 1.379 . S
C704 N712 1.356 . S
C705 C704 1.363 . S
C705 C711 1.363 . S
C706 C707 1.363 . S
C706 C711 1.379 . S
C706 N713 1.356 . S
C707 C706 1.363 . S
C707 C710 1.363 . S
N708 C710 1.356 . S
N708 H720 0.984 . S
N708 H721 0.985 . S
N709 C711 1.356 . S
N709 H714 0.984 . S
N709 H715 0.985 . S
C710 C704 1.379 . S
C710 C707 1.363 . S
C710 N708 1.356 . S
C711 C705 1.363 . S
C711 C706 1.379 . S
C711 N709 1.356 . S
N712 C704 1.356 . S
N712 H718 0.984 . S
N712 H719 0.984 . S
N713 C706 1.356 . S
N713 H716 0.984 . S
N713 H717 0.985 . S
H714 N709 0.984 . S
H715 N709 0.985 . S
H716 N713 0.984 . S
H717 N713 0.985 . S
H718 N712 0.984 . S
H719 N712 0.984 . S
H720 N708 0.984 . S
H721 N708 0.985 . S
C722 C723 1.363 . S
C722 C728 1.379 . S
C722 N730 1.356 . S
C723 C722 1.363 . S
C723 C729 1.363 . S
C724 C725 1.363 . S
C724 C729 1.379 . S
C724 N731 1.356 . S
C725 C724 1.363 . S
C725 C728 1.363 . S
N726 C728 1.356 . S
N726 H738 0.984 . S
N726 H739 0.985 . S
N727 C729 1.356 . S
N727 H732 0.984 . S
N727 H733 0.985 . S
C728 C722 1.379 . S
C728 C725 1.363 . S
C728 N726 1.356 . S
C729 C723 1.363 . S
C729 C724 1.379 . S
C729 N727 1.356 . S
N730 C722 1.356 . S
N730 H736 0.984 . S
N730 H737 0.984 . S
N731 C724 1.356 . S
N731 H734 0.984 . S
N731 H735 0.985 . S
H732 N727 0.984 . S
H733 N727 0.985 . S
H734 N731 0.984 . S
H735 N731 0.985 . S
H736 N730 0.984 . S
H737 N730 0.984 . S
H738 N726 0.984 . S
H739 N726 0.985 . S
C740 C741 1.363 . S
C740 C746 1.379 . S
C740 N748 1.356 . S
C741 C740 1.363 . S
C741 C747 1.363 . S
C742 C743 1.363 . S
C742 C747 1.379 . S
C742 N749 1.356 . S
C743 C742 1.363 . S
C743 C746 1.363 . S
N744 C746 1.356 . S
N744 H756 0.984 . S
N744 H757 0.985 . S
N745 C747 1.356 . S
N745 H750 0.984 . S
N745 H751 0.985 . S
C746 C740 1.379 . S
C746 C743 1.363 . S
C746 N744 1.356 . S
C747 C741 1.363 . S
C747 C742 1.379 . S
C747 N745 1.356 . S
N748 C740 1.356 . S
N748 H754 0.984 . S
N748 H755 0.984 . S
N749 C742 1.356 . S
N749 H752 0.984 . S
N749 H753 0.985 . S
H750 N745 0.984 . S
H751 N745 0.985 . S
H752 N749 0.984 . S
H753 N749 0.985 . S
H754 N748 0.984 . S
H755 N748 0.984 . S
H756 N744 0.984 . S
H757 N744 0.985 . S
C758 C759 1.363 . S
C758 C764 1.379 . S
C758 N766 1.356 . S
C759 C758 1.363 . S
C759 C765 1.363 . S
C760 C761 1.363 . S
C760 C765 1.379 . S
C760 N767 1.356 . S
C761 C760 1.363 . S
C761 C764 1.363 . S
N762 C764 1.356 . S
N762 H774 0.984 . S
N762 H775 0.985 . S
N763 C765 1.356 . S
N763 H768 0.984 . S
N763 H769 0.985 . S
C764 C758 1.379 . S
C764 C761 1.363 . S
C764 N762 1.356 . S
C765 C759 1.363 . S
C765 C760 1.379 . S
C765 N763 1.356 . S
N766 C758 1.356 . S
N766 H772 0.984 . S
N766 H773 0.984 . S
N767 C760 1.356 . S
N767 H770 0.984 . S
N767 H771 0.985 . S
H768 N763 0.984 . S
H769 N763 0.985 . S
H770 N767 0.984 . S
H771 N767 0.985 . S
H772 N766 0.984 . S
H773 N766 0.984 . S
H774 N762 0.984 . S
H775 N762 0.985 . S
C273 C17 1.621 . S
C275 C85 1.621 . S
C291 C119 1.621 . S
C293 C51 1.621 . S
C309 C153 1.621 . S
C311 C221 1.621 . S
C327 C255 1.621 . S
C329 C187 1.621 . S
C345 C142 1.255 . S
C347 C6 1.253 . S
C363 C198 1.255 . S
C365 C62 1.253 . S
C381 C232 1.255 . S
C383 C74 1.253 . S
C399 C266 1.255 . S
C401 C108 1.253 . S
C417 C226 0.666 . S
C419 C83 0.668 . S
C435 C260 0.666 . S
C437 C117 0.668 . S
C453 C15 0.666 . S
C455 C151 0.668 . S
C471 C192 0.666 . S
C473 C56 0.668 . S
C489 C244 1.255 . S
C491 C40 1.256 . S
C507 C164 1.255 . S
C509 C96 1.256 . S
C525 C176 1.255 . S
C527 C130 1.256 . S
C543 C210 1.255 . S
C545 C28 1.256 . S
C561 C124 0.666 . S
C563 C185 0.665 . S
C579 C22 0.666 . S
C581 C219 0.665 . S
C597 C49 0.666 . S
C599 C253 0.665 . S
C615 C158 0.666 . S
C617 C90 0.665 . S
C633 C173 3.040 . S
C635 C1 3.038 . S
C651 C37 3.040 . S
C653 C207 3.038 . S
C669 C241 3.040 . S
C671 C69 3.038 . S
C687 C103 3.040 . S
C689 C137 3.038 . S
C705 C239 3.040 . S
C707 C71 3.042 . S
C723 C139 3.040 . S
C725 C105 3.042 . S
C741 C3 3.040 . S
C743 C171 3.042 . S
C759 C205 3.040 . S
C761 C35 3.042 . S
