# Generated by pormake.
# Topology sxg, (6)-cn, num edge types: 1
# Building blocks:
#     Node 0, Type 0, BuildingBlock: MIFKUJ_clean_sbu_0, # of connection points: 6
#     Node 1, Type 0, BuildingBlock: MIFKUJ_clean_sbu_0, # of connection points: 6
#     Node 2, Type 0, BuildingBlock: MIFKUJ_clean_sbu_0, # of connection points: 6
#     Node 3, Type 0, BuildingBlock: MIFKUJ_clean_sbu_0, # of connection points: 6
#     Node 4, Type 0, BuildingBlock: MIFKUJ_clean_sbu_0, # of connection points: 6
#     Node 5, Type 0, BuildingBlock: MIFKUJ_clean_sbu_0, # of connection points: 6
#     Node 6, Type 0, BuildingBlock: MIFKUJ_clean_sbu_0, # of connection points: 6
#     Node 7, Type 0, BuildingBlock: MIFKUJ_clean_sbu_0, # of connection points: 6
#     Node 8, Type 0, BuildingBlock: MIFKUJ_clean_sbu_0, # of connection points: 6
#     Node 9, Type 0, BuildingBlock: MIFKUJ_clean_sbu_0, # of connection points: 6
#     Node 10, Type 0, BuildingBlock: MIFKUJ_clean_sbu_0, # of connection points: 6
#     Node 11, Type 0, BuildingBlock: MIFKUJ_clean_sbu_0, # of connection points: 6
#     Node 12, Type 0, BuildingBlock: MIFKUJ_clean_sbu_0, # of connection points: 6
#     Node 13, Type 0, BuildingBlock: MIFKUJ_clean_sbu_0, # of connection points: 6
#     Node 14, Type 0, BuildingBlock: MIFKUJ_clean_sbu_0, # of connection points: 6
#     Node 15, Type 0, BuildingBlock: MIFKUJ_clean_sbu_0, # of connection points: 6
#     Node 16, Type 0, BuildingBlock: MIFKUJ_clean_sbu_0, # of connection points: 6
#     Node 17, Type 0, BuildingBlock: MIFKUJ_clean_sbu_0, # of connection points: 6
#     Node 18, Type 0, BuildingBlock: MIFKUJ_clean_sbu_0, # of connection points: 6
#     Node 19, Type 0, BuildingBlock: MIFKUJ_clean_sbu_0, # of connection points: 6
#     Node 20, Type 0, BuildingBlock: MIFKUJ_clean_sbu_0, # of connection points: 6
#     Node 21, Type 0, BuildingBlock: MIFKUJ_clean_sbu_0, # of connection points: 6
#     Node 22, Type 0, BuildingBlock: MIFKUJ_clean_sbu_0, # of connection points: 6
#     Node 23, Type 0, BuildingBlock: MIFKUJ_clean_sbu_0, # of connection points: 6
#     Edge 24, Type (0, 0), BuildingBlock: UVAHIK_clean_linker_0, # of connection points: 2
#     Edge 25, Type (0, 0), BuildingBlock: UVAHIK_clean_linker_0, # of connection points: 2
#     Edge 26, Type (0, 0), BuildingBlock: UVAHIK_clean_linker_0, # of connection points: 2
#     Edge 27, Type (0, 0), BuildingBlock: UVAHIK_clean_linker_0, # of connection points: 2
#     Edge 28, Type (0, 0), BuildingBlock: UVAHIK_clean_linker_0, # of connection points: 2
#     Edge 29, Type (0, 0), BuildingBlock: UVAHIK_clean_linker_0, # of connection points: 2
#     Edge 30, Type (0, 0), BuildingBlock: UVAHIK_clean_linker_0, # of connection points: 2
#     Edge 31, Type (0, 0), BuildingBlock: UVAHIK_clean_linker_0, # of connection points: 2
#     Edge 32, Type (0, 0), BuildingBlock: UVAHIK_clean_linker_0, # of connection points: 2
#     Edge 33, Type (0, 0), BuildingBlock: UVAHIK_clean_linker_0, # of connection points: 2
#     Edge 34, Type (0, 0), BuildingBlock: UVAHIK_clean_linker_0, # of connection points: 2
#     Edge 35, Type (0, 0), BuildingBlock: UVAHIK_clean_linker_0, # of connection points: 2
#     Edge 36, Type (0, 0), BuildingBlock: UVAHIK_clean_linker_0, # of connection points: 2
#     Edge 37, Type (0, 0), BuildingBlock: UVAHIK_clean_linker_0, # of connection points: 2
#     Edge 38, Type (0, 0), BuildingBlock: UVAHIK_clean_linker_0, # of connection points: 2
#     Edge 39, Type (0, 0), BuildingBlock: UVAHIK_clean_linker_0, # of connection points: 2
#     Edge 40, Type (0, 0), BuildingBlock: UVAHIK_clean_linker_0, # of connection points: 2
#     Edge 41, Type (0, 0), BuildingBlock: UVAHIK_clean_linker_0, # of connection points: 2
#     Edge 42, Type (0, 0), BuildingBlock: UVAHIK_clean_linker_0, # of connection points: 2
#     Edge 43, Type (0, 0), BuildingBlock: UVAHIK_clean_linker_0, # of connection points: 2
#     Edge 44, Type (0, 0), BuildingBlock: UVAHIK_clean_linker_0, # of connection points: 2
#     Edge 45, Type (0, 0), BuildingBlock: UVAHIK_clean_linker_0, # of connection points: 2
#     Edge 46, Type (0, 0), BuildingBlock: UVAHIK_clean_linker_0, # of connection points: 2
#     Edge 47, Type (0, 0), BuildingBlock: UVAHIK_clean_linker_0, # of connection points: 2
#     Edge 48, Type (0, 0), BuildingBlock: UVAHIK_clean_linker_0, # of connection points: 2
#     Edge 49, Type (0, 0), BuildingBlock: UVAHIK_clean_linker_0, # of connection points: 2
#     Edge 50, Type (0, 0), BuildingBlock: UVAHIK_clean_linker_0, # of connection points: 2
#     Edge 51, Type (0, 0), BuildingBlock: UVAHIK_clean_linker_0, # of connection points: 2
#     Edge 52, Type (0, 0), BuildingBlock: UVAHIK_clean_linker_0, # of connection points: 2
#     Edge 53, Type (0, 0), BuildingBlock: UVAHIK_clean_linker_0, # of connection points: 2
#     Edge 54, Type (0, 0), BuildingBlock: UVAHIK_clean_linker_0, # of connection points: 2
#     Edge 55, Type (0, 0), BuildingBlock: UVAHIK_clean_linker_0, # of connection points: 2
#     Edge 56, Type (0, 0), BuildingBlock: UVAHIK_clean_linker_0, # of connection points: 2
#     Edge 57, Type (0, 0), BuildingBlock: UVAHIK_clean_linker_0, # of connection points: 2
#     Edge 58, Type (0, 0), BuildingBlock: UVAHIK_clean_linker_0, # of connection points: 2
#     Edge 59, Type (0, 0), BuildingBlock: UVAHIK_clean_linker_0, # of connection points: 2
#     Edge 60, Type (0, 0), BuildingBlock: UVAHIK_clean_linker_0, # of connection points: 2
#     Edge 61, Type (0, 0), BuildingBlock: UVAHIK_clean_linker_0, # of connection points: 2
#     Edge 62, Type (0, 0), BuildingBlock: UVAHIK_clean_linker_0, # of connection points: 2
#     Edge 63, Type (0, 0), BuildingBlock: UVAHIK_clean_linker_0, # of connection points: 2
#     Edge 64, Type (0, 0), BuildingBlock: UVAHIK_clean_linker_0, # of connection points: 2
#     Edge 65, Type (0, 0), BuildingBlock: UVAHIK_clean_linker_0, # of connection points: 2
#     Edge 66, Type (0, 0), BuildingBlock: UVAHIK_clean_linker_0, # of connection points: 2
#     Edge 67, Type (0, 0), BuildingBlock: UVAHIK_clean_linker_0, # of connection points: 2
#     Edge 68, Type (0, 0), BuildingBlock: UVAHIK_clean_linker_0, # of connection points: 2
#     Edge 69, Type (0, 0), BuildingBlock: UVAHIK_clean_linker_0, # of connection points: 2
#     Edge 70, Type (0, 0), BuildingBlock: UVAHIK_clean_linker_0, # of connection points: 2
#     Edge 71, Type (0, 0), BuildingBlock: UVAHIK_clean_linker_0, # of connection points: 2
#     Edge 72, Type (0, 0), BuildingBlock: UVAHIK_clean_linker_0, # of connection points: 2
#     Edge 73, Type (0, 0), BuildingBlock: UVAHIK_clean_linker_0, # of connection points: 2
#     Edge 74, Type (0, 0), BuildingBlock: UVAHIK_clean_linker_0, # of connection points: 2
#     Edge 75, Type (0, 0), BuildingBlock: UVAHIK_clean_linker_0, # of connection points: 2
#     Edge 76, Type (0, 0), BuildingBlock: UVAHIK_clean_linker_0, # of connection points: 2
#     Edge 77, Type (0, 0), BuildingBlock: UVAHIK_clean_linker_0, # of connection points: 2
#     Edge 78, Type (0, 0), BuildingBlock: UVAHIK_clean_linker_0, # of connection points: 2
#     Edge 79, Type (0, 0), BuildingBlock: UVAHIK_clean_linker_0, # of connection points: 2
#     Edge 80, Type (0, 0), BuildingBlock: UVAHIK_clean_linker_0, # of connection points: 2
#     Edge 81, Type (0, 0), BuildingBlock: UVAHIK_clean_linker_0, # of connection points: 2
#     Edge 82, Type (0, 0), BuildingBlock: UVAHIK_clean_linker_0, # of connection points: 2
#     Edge 83, Type (0, 0), BuildingBlock: UVAHIK_clean_linker_0, # of connection points: 2
#     Edge 84, Type (0, 0), BuildingBlock: UVAHIK_clean_linker_0, # of connection points: 2
#     Edge 85, Type (0, 0), BuildingBlock: UVAHIK_clean_linker_0, # of connection points: 2
#     Edge 86, Type (0, 0), BuildingBlock: UVAHIK_clean_linker_0, # of connection points: 2
#     Edge 87, Type (0, 0), BuildingBlock: UVAHIK_clean_linker_0, # of connection points: 2
#     Edge 88, Type (0, 0), BuildingBlock: UVAHIK_clean_linker_0, # of connection points: 2
#     Edge 89, Type (0, 0), BuildingBlock: UVAHIK_clean_linker_0, # of connection points: 2
#     Edge 90, Type (0, 0), BuildingBlock: UVAHIK_clean_linker_0, # of connection points: 2
#     Edge 91, Type (0, 0), BuildingBlock: UVAHIK_clean_linker_0, # of connection points: 2
#     Edge 92, Type (0, 0), BuildingBlock: UVAHIK_clean_linker_0, # of connection points: 2
#     Edge 93, Type (0, 0), BuildingBlock: UVAHIK_clean_linker_0, # of connection points: 2
#     Edge 94, Type (0, 0), BuildingBlock: UVAHIK_clean_linker_0, # of connection points: 2
#     Edge 95, Type (0, 0), BuildingBlock: UVAHIK_clean_linker_0, # of connection points: 2
# Relax obj value: 0.180
# Max RMSD: 0.251
# Mean RMSD: 0.251
data_MOF--net-sxg--node1-MIFKUJ_clean_sbu_0--edge1-UVAHIK_clean_linker_0
_symmetry_space_group_name_H-M    P1
_symmetry_Int_Tables_number       1
_symmetry_cell_setting            triclinic
loop_
_symmetry_equiv_pos_as_xyz
'x, y, z'
_cell_length_a     59.306526
_cell_length_b     59.300459
_cell_length_c     59.277022
_cell_angle_alpha  90.046348
_cell_angle_beta   90.027027784
_cell_angle_gamma 89.98341
loop_
_atom_site_label
_atom_site_type_symbol
_atom_site_fract_x
_atom_site_fract_y
_atom_site_fract_z
_atom_type_partial_charge
Zn0 Zn 0.05471 0.30234 0.24203 0.0
Zn1 Zn 0.02793 0.34216 0.2259 0.0
C2 C 0.08136 0.29325 0.20254 0.0
O3 O 0.06936 0.27462 0.20239 0.0
C4 C 0.00337 0.34134 0.26714 0.0
O5 O 0.00848 0.36289 0.26635 0.0
O6 O 0.06506 0.27459 0.25852 0.0
O7 O 0.05809 0.32888 0.26385 0.0
O8 O 0.05535 0.35604 0.23857 0.0
C9 C 0.08397 0.27505 0.2686 0.0
O10 O 0.09571 0.29384 0.26853 0.0
O11 O 0.07801 0.30773 0.21798 0.0
C12 C 0.98892 0.35913 0.20572 0.0
O13 O 0.98482 0.33737 0.20574 0.0
O14 O 0.00763 0.36617 0.21346 0.0
O15 O 0.03313 0.32008 0.20114 0.0
O16 O 0.02533 0.29395 0.22584 0.0
O17 O 0.0102 0.32844 0.25145 0.0
C18 C 0.06254 0.34891 0.25743 0.0
C19 C 0.02395 0.30139 0.20578 0.0
Zn20 Zn 0.45767 0.69538 0.73937 0.0
Zn21 Zn 0.4929 0.65718 0.73451 0.0
C22 C 0.43562 0.70192 0.69623 0.0
O23 O 0.4494 0.7192 0.69473 0.0
C24 C 0.5054 0.66589 0.77976 0.0
O25 O 0.50062 0.64429 0.78102 0.0
O26 O 0.44448 0.72308 0.75387 0.0
O27 O 0.45203 0.66916 0.76132 0.0
O28 O 0.46412 0.64144 0.7398 0.0
C29 C 0.42351 0.72315 0.75827 0.0
O30 O 0.4117 0.7048 0.75437 0.0
O31 O 0.43681 0.68906 0.71333 0.0
C32 C 0.53765 0.64106 0.73451 0.0
O33 O 0.54131 0.66284 0.73633 0.0
O34 O 0.51748 0.63401 0.73259 0.0
O35 O 0.49387 0.67471 0.70621 0.0
O36 O 0.48797 0.70548 0.72586 0.0
O37 O 0.50183 0.67619 0.76131 0.0
C38 C 0.45111 0.64858 0.75516 0.0
C39 C 0.49618 0.6958 0.70856 0.0
Zn40 Zn 0.54937 0.20319 0.77951 0.0
Zn41 Zn 0.48583 0.17809 0.76062 0.0
C42 C 0.58006 0.18678 0.8134 0.0
O43 O 0.56134 0.18346 0.82475 0.0
C44 C 0.45823 0.18285 0.72315 0.0
O45 O 0.45762 0.16103 0.72693 0.0
O46 O 0.55457 0.23051 0.76035 0.0
O47 O 0.53707 0.17628 0.76155 0.0
O48 O 0.50885 0.1566 0.74734 0.0
C49 C 0.56888 0.23066 0.74442 0.0
O50 O 0.57922 0.21181 0.73904 0.0
O51 O 0.579 0.19461 0.79348 0.0
C52 C 0.4413 0.1653 0.77653 0.0
O53 O 0.43549 0.18483 0.76784 0.0
O54 O 0.46204 0.15969 0.77687 0.0
O55 O 0.5048 0.19742 0.78042 0.0
O56 O 0.52766 0.21183 0.80462 0.0
O57 O 0.47074 0.19519 0.73543 0.0
C58 C 0.53 0.15936 0.75033 0.0
C59 C 0.50782 0.20548 0.79995 0.0
Zn60 Zn 0.93763 0.81981 0.2814 0.0
Zn61 Zn 0.9848 0.84429 0.25315 0.0
C62 C 0.91356 0.79755 0.31752 0.0
O63 O 0.93227 0.78581 0.31929 0.0
C64 C 0.98039 0.83247 0.20834 0.0
O65 O 0.9752 0.85402 0.20831 0.0
O66 O 0.93797 0.79582 0.25747 0.0
O67 O 0.92969 0.85074 0.27029 0.0
O68 O 0.95955 0.86665 0.25447 0.0
C69 C 0.92088 0.79402 0.24468 0.0
O70 O 0.90509 0.80953 0.24576 0.0
O71 O 0.9119 0.81236 0.30213 0.0
C72 C 0.02882 0.85617 0.2352 0.0
O73 O 0.02996 0.83475 0.22964 0.0
O74 O 0.01133 0.86359 0.24513 0.0
O75 O 0.99436 0.8307 0.28259 0.0
O76 O 0.96479 0.81781 0.30137 0.0
O77 O 0.98239 0.82254 0.22724 0.0
C78 C 0.93915 0.86745 0.26085 0.0
C79 C 0.98578 0.82173 0.30002 0.0
Zn80 Zn 0.23402 0.0394 0.29464 0.0
Zn81 Zn 0.2462 0.98738 0.33228 0.0
C82 C 0.19342 0.0655 0.3045 0.0
O83 O 0.18268 0.04658 0.30031 0.0
C84 C 0.29326 0.98993 0.33431 0.0
O85 O 0.28808 0.99312 0.35563 0.0
O86 O 0.25215 0.04842 0.2676 0.0
O87 O 0.25255 0.03014 0.32047 0.0
O88 O 0.23982 0.01446 0.3509 0.0
C89 C 0.26417 0.06613 0.26712 0.0
O90 O 0.26664 0.07802 0.28567 0.0
O91 O 0.21479 0.06596 0.30326 0.0
C92 C 0.24302 0.94059 0.34602 0.0
O93 O 0.23843 0.93676 0.32468 0.0
O94 O 0.24598 0.96068 0.35282 0.0
O95 O 0.22305 0.98327 0.30739 0.0
O96 O 0.21487 0.0128 0.28531 0.0
O97 O 0.27745 0.98834 0.31993 0.0
C98 C 0.24388 0.03221 0.3399 0.0
C99 C 0.21219 0.99222 0.29107 0.0
Zn100 Zn 0.25283 0.94844 0.79857 0.0
Zn101 Zn 0.26467 0.97555 0.8393 0.0
C102 C 0.29074 0.92252 0.78383 0.0
O103 O 0.28694 0.93382 0.76515 0.0
C104 C 0.2213 0.99476 0.83779 0.0
O105 O 0.2225 0.98821 0.85893 0.0
O106 O 0.23702 0.93967 0.76985 0.0
O107 O 0.23188 0.94049 0.82528 0.0
O108 O 0.25536 0.94733 0.85335 0.0
C109 C 0.2252 0.92185 0.76865 0.0
O110 O 0.22187 0.90989 0.78699 0.0
O111 O 0.27846 0.92633 0.80098 0.0
C112 C 0.27393 0.01823 0.85672 0.0
O113 O 0.27268 0.02252 0.83502 0.0
O114 O 0.27245 0.9979 0.86337 0.0
O115 O 0.29121 0.97252 0.8192 0.0
O116 O 0.26726 0.97944 0.79229 0.0
O117 O 0.23753 0.9901 0.82457 0.0
C118 C 0.23803 0.93747 0.8457 0.0
C119 C 0.28678 0.98215 0.80073 0.0
Zn120 Zn 0.74349 0.44834 0.69793 0.0
Zn121 Zn 0.72387 0.4735 0.659 0.0
C122 C 0.70446 0.42402 0.71292 0.0
O123 O 0.70669 0.43737 0.73048 0.0
C124 C 0.76404 0.49984 0.65417 0.0
O125 O 0.75818 0.49866 0.63283 0.0
O126 O 0.76146 0.43942 0.72523 0.0
O127 O 0.7621 0.44262 0.66936 0.0
O128 O 0.73405 0.44518 0.64493 0.0
C129 C 0.7721 0.42089 0.72676 0.0
O130 O 0.77315 0.40753 0.7091 0.0
O131 O 0.71829 0.42568 0.69665 0.0
C132 C 0.70588 0.51371 0.64306 0.0
O133 O 0.71185 0.519 0.66374 0.0
O134 O 0.70903 0.49364 0.63616 0.0
O135 O 0.70156 0.47038 0.68384 0.0
O136 O 0.7294 0.47871 0.70638 0.0
O137 O 0.75188 0.49017 0.66892 0.0
C138 C 0.7535 0.4379 0.65018 0.0
C139 C 0.70864 0.48024 0.70139 0.0
Zn140 Zn 0.78259 0.55545 0.18627 0.0
Zn141 Zn 0.75136 0.5104 0.16016 0.0
C142 C 0.82268 0.58145 0.19982 0.0
O143 O 0.83165 0.56188 0.20503 0.0
C144 C 0.71338 0.52095 0.1888 0.0
O145 O 0.70854 0.5353 0.17263 0.0
O146 O 0.76161 0.55343 0.21292 0.0
O147 O 0.76759 0.56478 0.15754 0.0
O148 O 0.74751 0.538 0.14096 0.0
C149 C 0.74614 0.56818 0.21466 0.0
O150 O 0.74269 0.58202 0.19771 0.0
O151 O 0.80257 0.5822 0.19242 0.0
C152 C 0.73481 0.46581 0.14685 0.0
O153 O 0.73348 0.46197 0.16863 0.0
O154 O 0.74108 0.48512 0.13997 0.0
O155 O 0.78334 0.50162 0.16696 0.0
O156 O 0.80312 0.52879 0.18334 0.0
O157 O 0.73167 0.50985 0.1877 0.0
C158 C 0.75495 0.55805 0.14162 0.0
C159 C 0.80158 0.50892 0.17549 0.0
Zn160 Zn 0.29465 0.23542 0.03951 0.0
Zn161 Zn 0.33042 0.21117 0.01663 0.0
C162 C 0.27934 0.19893 0.06802 0.0
O163 O 0.26115 0.20015 0.05542 0.0
C164 C 0.33657 0.24944 0.98715 0.0
O165 O 0.35761 0.24251 0.98757 0.0
O166 O 0.26908 0.25571 0.04841 0.0
O167 O 0.3248 0.25243 0.04289 0.0
O168 O 0.34416 0.22084 0.04511 0.0
C169 C 0.2707 0.2724 0.06175 0.0
O170 O 0.29065 0.2783 0.06938 0.0
O171 O 0.29569 0.21222 0.06423 0.0
C172 C 0.3467 0.18957 0.97805 0.0
O173 O 0.32522 0.19177 0.97311 0.0
O174 O 0.35348 0.19557 0.99749 0.0
O175 O 0.3047 0.19028 0.02055 0.0
O176 O 0.28375 0.21898 0.01086 0.0
O177 O 0.3218 0.23882 0.99849 0.0
C178 C 0.3419 0.24151 0.05008 0.0
C179 C 0.2872 0.19783 0.01099 0.0
Zn180 Zn 0.80461 0.26373 0.9607 0.0
Zn181 Zn 0.84151 0.27994 0.99026 0.0
C182 C 0.79395 0.30433 0.93523 0.0
O183 O 0.77654 0.30559 0.94887 0.0
C184 C 0.84082 0.23639 0.01101 0.0
O185 O 0.86273 0.23968 0.01074 0.0
O186 O 0.7797 0.24432 0.94853 0.0
O187 O 0.8333 0.24488 0.95757 0.0
O188 O 0.85638 0.27362 0.96091 0.0
C189 C 0.78253 0.23584 0.92903 0.0
O190 O 0.80161 0.23956 0.9184 0.0
O191 O 0.8081 0.28843 0.93767 0.0
C192 C 0.85841 0.28816 0.03373 0.0
O193 O 0.83686 0.28529 0.03801 0.0
O194 O 0.865 0.28806 0.01332 0.0
O195 O 0.81861 0.30446 0.98998 0.0
O196 O 0.79279 0.27798 0.99003 0.0
O197 O 0.82787 0.25119 0.00251 0.0
C198 C 0.85182 0.25448 0.95251 0.0
C199 C 0.79904 0.29781 0.99536 0.0
Zn200 Zn 0.68655 0.71803 0.44784 0.0
Zn201 Zn 0.65943 0.74933 0.49259 0.0
C202 C 0.70361 0.67907 0.42276 0.0
O203 O 0.71173 0.67267 0.44236 0.0
C204 C 0.6867 0.78787 0.49583 0.0
O205 O 0.66801 0.79646 0.48757 0.0
O206 O 0.71439 0.73689 0.45217 0.0
O207 O 0.65982 0.73564 0.43708 0.0
O208 O 0.64338 0.75643 0.46346 0.0
C209 C 0.71615 0.75622 0.44309 0.0
O210 O 0.69841 0.76509 0.43322 0.0
O211 O 0.69299 0.69764 0.42137 0.0
C212 C 0.64526 0.75952 0.53733 0.0
O213 O 0.66595 0.7528 0.54153 0.0
O214 O 0.63853 0.76026 0.51698 0.0
O215 O 0.66264 0.71643 0.50026 0.0
O216 O 0.68066 0.69726 0.47365 0.0
O217 O 0.68826 0.76658 0.49754 0.0
C218 C 0.6448 0.74962 0.44318 0.0
C219 C 0.67099 0.69819 0.49272 0.0
Zn220 Zn 0.19811 0.74549 0.5486 0.0
Zn221 Zn 0.15691 0.7599 0.52291 0.0
C222 C 0.20863 0.78721 0.57144 0.0
O223 O 0.22589 0.78721 0.55756 0.0
C224 C 0.15608 0.71728 0.50006 0.0
O225 O 0.13464 0.71844 0.50553 0.0
O226 O 0.22696 0.73041 0.55807 0.0
O227 O 0.17153 0.72435 0.55532 0.0
O228 O 0.14594 0.75118 0.55301 0.0
C229 C 0.22889 0.71896 0.57607 0.0
O230 O 0.21097 0.71541 0.5886 0.0
O231 O 0.19441 0.77121 0.57046 0.0
C232 C 0.13734 0.77523 0.48341 0.0
O233 O 0.15885 0.77411 0.47821 0.0
O234 O 0.13125 0.77015 0.50333 0.0
O235 O 0.17911 0.78485 0.523 0.0
O236 O 0.20511 0.75927 0.51773 0.0
O237 O 0.16934 0.73281 0.50657 0.0
C238 C 0.15269 0.73274 0.56146 0.0
C239 C 0.19765 0.77905 0.51416 0.0
Zn240 Zn 0.98 0.64293 0.77068 0.0
Zn241 Zn 0.95183 0.68289 0.75641 0.0
C242 C 0.00213 0.64337 0.72854 0.0
O243 O -0.00124 0.62164 0.73126 0.0
C244 C 0.92681 0.69741 0.79459 0.0
O245 O 0.93907 0.71548 0.79086 0.0
O246 O 0.00277 0.61946 0.78007 0.0
O247 O 0.97689 0.66462 0.79592 0.0
O248 O 0.98189 0.69176 0.77139 0.0
C249 C 0.02294 0.62665 0.78155 0.0
O250 O 0.02674 0.64834 0.77904 0.0
O251 O 0.99438 0.657 0.74319 0.0
C252 C 0.92052 0.70804 0.73098 0.0
O253 O 0.90916 0.6894 0.73476 0.0
O254 O 0.94062 0.70952 0.73834 0.0
O255 O 0.94681 0.65509 0.73632 0.0
O256 O 0.95144 0.62853 0.76187 0.0
O257 O 0.92945 0.6803 0.78192 0.0
C258 C 0.98425 0.68408 0.79129 0.0
C259 C 0.9425 0.63537 0.74369 0.0
Zn260 Zn 0.50477 0.34583 0.2397 0.0
Zn261 Zn 0.5492 0.31593 0.26552 0.0
C262 C 0.50862 0.33573 0.1943 0.0
O263 O 0.51156 0.35769 0.19437 0.0
C264 C 0.57682 0.30996 0.30508 0.0
O265 O 0.56128 0.32261 0.31456 0.0
O266 O 0.47844 0.36555 0.23161 0.0
O267 O 0.49411 0.32975 0.26742 0.0
O268 O 0.52161 0.31125 0.28462 0.0
C269 C 0.45862 0.35743 0.23109 0.0
O270 O 0.4556 0.33594 0.23554 0.0
O271 O 0.50823 0.32543 0.21309 0.0
C272 C 0.5671 0.29591 0.22597 0.0
O273 O 0.58146 0.3126 0.22853 0.0
O274 O 0.54974 0.29534 0.23851 0.0
O275 O 0.55818 0.34814 0.25966 0.0
O276 O 0.53031 0.3674 0.244 0.0
O277 O 0.57484 0.30466 0.28441 0.0
C278 C 0.50111 0.31732 0.28337 0.0
C279 C 0.55021 0.3664 0.25181 0.0
Zn280 Zn 0.4838 0.83284 0.2196 0.0
Zn281 Zn 0.45647 0.79419 0.2365 0.0
C282 C 0.50627 0.83209 0.2621 0.0
O283 O 0.50132 0.85364 0.26079 0.0
C284 C 0.42611 0.78111 0.20137 0.0
O285 O 0.43715 0.76204 0.20373 0.0
O286 O 0.50377 0.85811 0.20984 0.0
O287 O 0.4804 0.81137 0.19419 0.0
O288 O 0.48513 0.78496 0.21949 0.0
C289 C 0.52425 0.85339 0.2058 0.0
O290 O 0.53065 0.83217 0.20608 0.0
O291 O 0.50032 0.81903 0.24614 0.0
C292 C 0.43152 0.76609 0.26774 0.0
O293 O 0.42015 0.78467 0.27178 0.0
O294 O 0.44798 0.76665 0.25407 0.0
O295 O 0.45407 0.82144 0.25766 0.0
O296 O 0.45567 0.84644 0.23029 0.0
O297 O 0.43175 0.79792 0.21343 0.0
C298 C 0.48764 0.79199 0.19939 0.0
C299 C 0.45015 0.8412 0.25023 0.0
Zn300 Zn 0.01398 0.15814 0.73564 0.0
Zn301 Zn 0.04238 0.1988 0.74989 0.0
C302 C 0.98929 0.15907 0.77694 0.0
O303 O 0.98921 0.13723 0.77318 0.0
C304 C 0.0641 0.21493 0.71066 0.0
O305 O 0.05141 0.23241 0.71564 0.0
O306 O 0.99233 0.13451 0.72466 0.0
O307 O 0.01757 0.18017 0.71074 0.0
O308 O 0.01154 0.20635 0.736 0.0
C309 C 0.97333 0.1413 0.7174 0.0
O310 O 0.96929 0.16307 0.71659 0.0
O311 O -0.00062 0.17197 0.76312 0.0
C312 C 0.07088 0.22714 0.77735 0.0
O313 O 0.08304 0.20866 0.77862 0.0
O314 O 0.0522 0.2266 0.76685 0.0
O315 O 0.05014 0.17087 0.76909 0.0
O316 O 0.04215 0.14363 0.74492 0.0
O317 O 0.06339 0.19765 0.72331 0.0
C318 C 0.00954 0.19926 0.71586 0.0
C319 C 0.05264 0.15062 0.7622 0.0
Zn320 Zn 0.74233 0.99523 0.65836 0.0
Zn321 Zn 0.76915 0.9406 0.69158 0.0
C322 C 0.69761 0.00587 0.66743 0.0
O323 O 0.69761 0.0026 0.6455 0.0
C324 C 0.80429 0.91082 0.6756 0.0
O325 O 0.81596 0.92963 0.67512 0.0
O326 O 0.74593 0.02135 0.63724 0.0
O327 O 0.77238 0.99175 0.67541 0.0
O328 O 0.79183 0.96566 0.69412 0.0
C329 C 0.74134 0.04145 0.64312 0.0
O330 O 0.73437 0.04546 0.66378 0.0
O331 O 0.71572 0.00226 0.67833 0.0
C332 C 0.73792 0.92634 0.72692 0.0
O333 O 0.72549 0.91863 0.71026 0.0
O334 O 0.75644 0.93613 0.72255 0.0
O335 O 0.74686 0.95349 0.67096 0.0
O336 O 0.73656 0.96767 0.63923 0.0
O337 O 0.78354 0.91158 0.68095 0.0
C338 C 0.7898 0.98574 0.6866 0.0
C339 C 0.74265 0.9505 0.65027 0.0
Zn340 Zn 0.74263 0.01907 0.16091 0.0
Zn341 Zn 0.72393 0.06217 0.19787 0.0
C342 C 0.78817 0.02395 0.17383 0.0
O343 O 0.78992 0.02718 0.15197 0.0
C344 C 0.68302 0.08965 0.20156 0.0
O345 O 0.6751 0.07249 0.21311 0.0
O346 O 0.75026 0.99573 0.13738 0.0
O347 O 0.71593 0.00702 0.17604 0.0
O348 O 0.70366 0.03428 0.19847 0.0
C349 C 0.75985 0.9772 0.14237 0.0
O350 O 0.76593 0.97348 0.16336 0.0
O351 O 0.7687 0.02133 0.18234 0.0
C352 C 0.75865 0.0691 0.23244 0.0
O353 O 0.77279 0.06832 0.2154 0.0
O354 O 0.7377 0.06626 0.22881 0.0
O355 O 0.74799 0.06779 0.17387 0.0
O356 O 0.73677 0.04781 0.14465 0.0
O357 O 0.70297 0.08872 0.19377 0.0
C358 C 0.70191 0.01452 0.19027 0.0
C359 C 0.74499 0.06578 0.15273 0.0
Zn360 Zn 0.27455 0.51962 0.33647 0.0
Zn361 Zn 0.25835 0.54601 0.2965 0.0
C362 C 0.23226 0.4975 0.33994 0.0
O363 O 0.23397 0.50549 0.36056 0.0
C364 C 0.29997 0.56902 0.28722 0.0
O365 O 0.29963 0.55619 0.26914 0.0
O366 O 0.2864 0.50114 0.36209 0.0
O367 O 0.29843 0.52031 0.31304 0.0
O368 O 0.27185 0.51543 0.28796 0.0
C369 C 0.29548 0.48247 0.3568 0.0
O370 O 0.29789 0.47738 0.33537 0.0
O371 O 0.24767 0.50194 0.32574 0.0
C372 C 0.224 0.5652 0.26574 0.0
O373 O 0.21051 0.5663 0.28328 0.0
O374 O 0.24374 0.55721 0.26807 0.0
O375 O 0.23707 0.5513 0.32315 0.0
O376 O 0.26426 0.54892 0.34841 0.0
O377 O 0.28414 0.5674 0.30155 0.0
C378 C 0.29198 0.51195 0.29446 0.0
C379 C 0.24501 0.55619 0.34254 0.0
Zn380 Zn 0.23976 0.47954 0.84946 0.0
Zn381 Zn 0.24637 0.44789 0.80909 0.0
C382 C 0.28388 0.49561 0.84234 0.0
O383 O 0.28448 0.4906 0.86393 0.0
C384 C 0.20439 0.42503 0.80065 0.0
O385 O 0.20381 0.43899 0.78346 0.0
O386 O 0.23613 0.50307 0.87348 0.0
O387 O 0.21146 0.4789 0.83197 0.0
O388 O 0.23128 0.47818 0.8007 0.0
C389 C 0.23539 0.52334 0.86654 0.0
O390 O 0.23549 0.5272 0.84471 0.0
O391 O 0.26618 0.49095 0.83116 0.0
C392 C 0.26865 0.41532 0.78322 0.0
O393 O 0.26528 0.40461 0.80232 0.0
O394 O 0.26203 0.43566 0.7815 0.0
O395 O 0.26865 0.44224 0.83506 0.0
O396 O 0.24649 0.45035 0.86362 0.0
O397 O 0.22085 0.42599 0.81436 0.0
C398 C 0.21329 0.48335 0.81121 0.0
C399 C 0.26237 0.43876 0.8553 0.0
Zn400 Zn 0.66697 0.77572 0.98606 0.0
Zn401 Zn 0.70623 0.77205 0.95374 0.0
C402 C 0.67643 0.72911 0.99248 0.0
O403 O 0.65482 0.72792 0.9877 0.0
C404 C 0.71597 0.81594 0.93498 0.0
O405 O 0.73322 0.8152 0.94888 0.0
O406 O 0.6436 0.77482 0.01045 0.0
O407 O 0.68415 0.80408 0.98955 0.0
O408 O 0.71476 0.78381 0.98539 0.0
C409 C 0.65 0.76959 0.03024 0.0
O410 O 0.67158 0.76633 0.03409 0.0
O411 O 0.68615 0.7482 0.99184 0.0
C412 C 0.73663 0.73698 0.93618 0.0
O413 O 0.71957 0.72314 0.93901 0.0
O414 O 0.73447 0.75762 0.94157 0.0
O415 O 0.67939 0.75191 0.94438 0.0
O416 O 0.65155 0.77303 0.95687 0.0
O417 O 0.70209 0.79962 0.93464 0.0
C418 C 0.70499 0.80127 0.99313 0.0
C419 C 0.65883 0.75817 0.94337 0.0
Zn420 Zn 0.15521 0.724 0.01556 0.0
Zn421 Zn 0.19172 0.74028 0.04526 0.0
C422 C 0.15393 0.76791 0.99614 0.0
O423 O 0.13233 0.76504 8e-05 0.0
C424 C 0.20374 0.70041 0.06994 0.0
O425 O 0.2232 0.70383 0.05991 0.0
O426 O 0.13196 0.71478 0.99271 0.0
O427 O 0.17828 0.70005 0.01688 0.0
O428 O 0.20351 0.72703 0.01538 0.0
C429 C 0.13862 0.71461 0.97232 0.0
O430 O 0.16003 0.71836 0.96802 0.0
O431 O 0.16777 0.7528 0.00248 0.0
C432 C 0.21889 0.76052 0.07985 0.0
O433 O 0.20169 0.7543 0.09235 0.0
O434 O 0.21799 0.75732 0.05866 0.0
O435 O 0.16281 0.75913 0.04963 0.0
O436 O 0.14054 0.72984 0.04475 0.0
O437 O 0.18746 0.71373 0.06592 0.0
C438 C 0.19778 0.70674 0.01146 0.0
C439 C 0.14443 0.74878 0.05385 0.0
Zn440 Zn 0.31757 0.24558 0.49269 0.0
Zn441 Zn 0.2843 0.26985 0.54905 0.0
C442 C 0.29405 0.20404 0.48316 0.0
O443 O 0.30924 0.19544 0.49681 0.0
C444 C 0.31006 0.2982 0.5793 0.0
O445 O 0.31472 0.30923 0.56067 0.0
O446 O 0.34127 0.25083 0.46924 0.0
O447 O 0.30319 0.27581 0.50107 0.0
O448 O 0.28428 0.29541 0.52659 0.0
C449 C 0.33559 0.25525 0.44906 0.0
O450 O 0.31407 0.25635 0.44387 0.0
O451 O 0.29404 0.22512 0.47953 0.0
C452 C 0.24684 0.23981 0.55888 0.0
O453 O 0.26214 0.22386 0.5574 0.0
O454 O 0.25248 0.26016 0.55528 0.0
O455 O 0.30179 0.24623 0.53359 0.0
O456 O 0.33257 0.23232 0.52028 0.0
O457 O 0.29824 0.28036 0.5782 0.0
C458 C 0.29387 0.29414 0.50736 0.0
C459 C 0.32108 0.23796 0.53735 0.0
Zn460 Zn 0.85273 0.23132 0.48381 0.0
Zn461 Zn 0.81344 0.23712 0.45097 0.0
C462 C 0.84658 0.27737 0.49577 0.0
O463 O 0.86811 0.27781 0.49055 0.0
C464 C 0.80014 0.1955 0.4308 0.0
O465 O 0.78188 0.19994 0.44255 0.0
O466 O 0.8752 0.22817 0.50904 0.0
O467 O 0.83317 0.20405 0.48468 0.0
O468 O 0.80447 0.22716 0.48262 0.0
C469 C 0.86676 0.22979 0.52871 0.0
O470 O 0.84478 0.23171 0.53079 0.0
O471 O 0.83554 0.25927 0.49272 0.0
C472 C 0.78451 0.25375 0.41677 0.0
O473 O 0.80146 0.24681 0.40429 0.0
O474 O 0.78598 0.25216 0.43809 0.0
O475 O 0.84013 0.25735 0.44291 0.0
O476 O 0.86853 0.23659 0.45495 0.0
O477 O 0.8169 0.20879 0.43233 0.0
C478 C 0.81288 0.20869 0.48943 0.0
C479 C 0.86082 0.25164 0.44186 0.0
C480 C 0.07716 0.38712 0.26713 0.0
C481 C 0.07685 0.3638 0.27134 0.0
C482 C 0.09229 0.4011 0.27847 0.0
C483 C 0.14806 0.39962 0.30314 0.0
H484 H 0.13294 0.45953 0.32474 0.0
C485 C 0.21404 0.46993 0.3137 0.0
C486 C 0.21339 0.48245 0.33382 0.0
C487 C 0.19675 0.45484 0.30847 0.0
C488 C 0.13737 0.44277 0.31896 0.0
H489 H 0.09153 0.33696 0.29136 0.0
H490 H 0.11837 0.36148 0.31099 0.0
H491 H 0.10288 0.43388 0.31282 0.0
H492 H 0.19389 0.48931 0.36403 0.0
H493 H 0.16347 0.46313 0.35465 0.0
H494 H 0.18257 0.40869 0.30872 0.0
C495 C 0.10682 0.36884 0.2989 0.0
C496 C 0.12021 0.42816 0.31206 0.0
C497 C 0.09142 0.35486 0.28775 0.0
C498 C 0.19489 0.47987 0.34841 0.0
C499 C 0.17745 0.46495 0.34304 0.0
C500 C 0.16522 0.4143 0.3098 0.0
C501 C 0.10762 0.39203 0.29407 0.0
C502 C 0.12543 0.40657 0.3038 0.0
C503 C 0.17834 0.45215 0.32312 0.0
C504 C 0.16005 0.43612 0.31747 0.0
H505 H 0.06603 0.39453 0.25468 0.0
H506 H 0.09266 0.41887 0.27427 0.0
H507 H 0.15257 0.38315 0.29664 0.0
H508 H 0.22808 0.47153 0.30212 0.0
H509 H 0.19768 0.44539 0.29285 0.0
C510 C 0.30007 0.5182 0.81041 0.0
C511 C 0.30221 0.50919 0.83224 0.0
C512 C 0.3164 0.53296 0.80193 0.0
C513 C 0.36098 0.57214 0.82109 0.0
H514 H 0.38044 0.56943 0.75874 0.0
C515 C 0.43529 0.6098 0.75973 0.0
C516 C 0.43469 0.63282 0.76544 0.0
C517 C 0.41916 0.59492 0.76816 0.0
C518 C 0.37529 0.57033 0.77624 0.0
H519 H 0.32359 0.50799 0.86194 0.0
H520 H 0.35214 0.53338 0.84702 0.0
H521 H 0.35283 0.54232 0.77254 0.0
H522 H 0.41681 0.65817 0.78483 0.0
H523 H 0.38845 0.63209 0.79952 0.0
H524 H 0.38379 0.59987 0.8249 0.0
C525 C 0.33764 0.52943 0.83663 0.0
C526 C 0.35928 0.55493 0.78408 0.0
C527 C 0.32135 0.51471 0.8451 0.0
C528 C 0.41779 0.64053 0.78017 0.0
C529 C 0.40158 0.62558 0.78862 0.0
C530 C 0.37698 0.58755 0.81324 0.0
C531 C 0.3352 0.53902 0.8151 0.0
C532 C 0.35202 0.55556 0.80663 0.0
C533 C 0.40196 0.60264 0.78249 0.0
C534 C 0.38444 0.58673 0.79076 0.0
H535 H 0.28547 0.51436 0.80011 0.0
H536 H 0.31392 0.54017 0.78533 0.0
H537 H 0.35551 0.5733 0.83848 0.0
H538 H 0.44815 0.60322 0.74856 0.0
H539 H 0.42022 0.5773 0.76347 0.0
C540 C 0.56933 0.14679 0.74157 0.0
C541 C 0.54615 0.14205 0.74248 0.0
C542 C 0.58469 0.13018 0.73497 0.0
C543 C 0.58788 0.07456 0.70593 0.0
H544 H 0.64815 0.07454 0.73123 0.0
C545 C 0.6604 0.02534 0.66491 0.0
C546 C 0.67808 0.01701 0.67829 0.0
C547 C 0.64321 0.03824 0.67444 0.0
C548 C 0.63129 0.07398 0.72425 0.0
H549 H 0.52091 0.11607 0.73756 0.0
H550 H 0.54767 0.08688 0.72686 0.0
H551 H 0.6205 0.10146 0.74494 0.0
H552 H 0.69099 0.01477 0.71244 0.0
H553 H 0.66047 0.03672 0.7293 0.0
H554 H 0.59839 0.04656 0.68584 0.0
C555 C 0.55404 0.1036 0.73053 0.0
C556 C 0.6155 0.08976 0.73183 0.0
C557 C 0.53865 0.12033 0.73675 0.0
C558 C 0.67766 0.02105 0.70165 0.0
C559 C 0.66025 0.0338 0.71127 0.0
C560 C 0.60355 0.05857 0.6986 0.0
C561 C 0.57729 0.10828 0.72951 0.0
C562 C 0.5937 0.09056 0.72247 0.0
C563 C 0.64303 0.04295 0.69769 0.0
C564 C 0.62563 0.05836 0.7073 0.0
H565 H 0.57563 0.1634 0.74584 0.0
H566 H 0.60236 0.13464 0.73394 0.0
H567 H 0.57137 0.07468 0.69813 0.0
H568 H 0.66023 0.02264 0.64683 0.0
H569 H 0.63054 0.04526 0.66331 0.0
C570 C 0.93698 0.90895 0.2534 0.0
C571 C 0.92603 0.88825 0.25693 0.0
C572 C 0.92452 0.9285 0.24913 0.0
C573 C 0.8656 0.95122 0.24997 0.0
H574 H 0.88886 0.9917 0.2043 0.0
C575 C 0.80716 0.01693 0.21088 0.0
C576 C 0.8083 0.01809 0.18725 0.0
C577 C 0.82466 0.00701 0.22319 0.0
C578 C 0.88204 0.98055 0.21704 0.0
H579 H 0.89348 0.87175 0.25881 0.0
H580 H 0.87182 0.90541 0.25032 0.0
H581 H 0.9125 0.96142 0.21832 0.0
H582 H 0.82932 0.01132 0.1581 0.0
H583 H 0.85915 0.99322 0.17919 0.0
H584 H 0.8345 0.96896 0.24725 0.0
C585 C 0.88996 0.90692 0.25165 0.0
C586 C 0.89578 0.96332 0.22538 0.0
C587 C 0.90239 0.8875 0.25632 0.0
C588 C 0.82793 0.01068 0.17631 0.0
C589 C 0.84519 0.00038 0.18853 0.0
C590 C 0.85173 0.96814 0.24132 0.0
C591 C 0.90083 0.92769 0.2479 0.0
C592 C 0.88748 0.94797 0.24144 0.0
C593 C 0.84342 0.99762 0.21205 0.0
C594 C 0.85951 0.9826 0.22419 0.0
H595 H 0.9552 0.91008 0.25402 0.0
H596 H 0.93349 0.94421 0.24673 0.0
H597 H 0.85883 0.94017 0.26283 0.0
H598 H 0.79233 0.0228 0.21979 0.0
H599 H 0.82298 0.00584 0.24133 0.0
C600 C 0.26407 0.19817 0.4539 0.0
C601 C 0.27899 0.18914 0.47 0.0
C602 C 0.25187 0.18397 0.43956 0.0
C603 C 0.23587 0.12394 0.4304 0.0
H604 H 0.2401 0.13942 0.36699 0.0
C605 C 0.2201 0.056 0.36509 0.0
C606 C 0.2375 0.05434 0.34914 0.0
C607 C 0.21698 0.07591 0.37727 0.0
C608 C 0.23866 0.13488 0.38462 0.0
H609 H 0.2919 0.15812 0.48443 0.0
H610 H 0.27101 0.13343 0.45931 0.0
H611 H 0.25054 0.16717 0.39546 0.0
H612 H 0.26409 0.0725 0.33204 0.0
H613 H 0.25935 0.10696 0.35381 0.0
H614 H 0.22583 0.09115 0.41974 0.0
C615 C 0.26844 0.15146 0.45787 0.0
C616 C 0.2444 0.15088 0.40098 0.0
C617 C 0.2806 0.16563 0.4722 0.0
C618 C 0.25054 0.07342 0.34424 0.0
C619 C 0.2477 0.09322 0.35669 0.0
C620 C 0.23034 0.10791 0.41409 0.0
C621 C 0.25431 0.16045 0.44106 0.0
C622 C 0.24394 0.14526 0.42403 0.0
C623 C 0.23156 0.09433 0.3741 0.0
C624 C 0.23251 0.11288 0.39098 0.0
H625 H 0.26233 0.21624 0.45187 0.0
H626 H 0.24091 0.19141 0.42698 0.0
H627 H 0.23487 0.11924 0.44802 0.0
H628 H 0.20954 0.04159 0.36886 0.0
H629 H 0.20397 0.07639 0.39007 0.0
C630 C 0.21199 0.90477 0.85265 0.0
C631 C 0.22526 0.92254 0.86097 0.0
C632 C 0.20237 0.88917 0.86754 0.0
C633 C 0.17653 0.86334 0.90411 0.0
H634 H 0.21526 0.84561 0.95381 0.0
C635 C 0.14637 0.80365 0.97502 0.0
C636 C 0.16171 0.78713 0.98233 0.0
C637 C 0.15333 0.82088 0.96055 0.0
C638 C 0.20428 0.85023 0.93995 0.0
H639 H 0.23744 0.93895 0.89135 0.0
H640 H 0.22026 0.91228 0.91716 0.0
H641 H 0.22807 0.87406 0.92733 0.0
H642 H 0.19646 0.77586 0.98038 0.0
H643 H 0.20855 0.80574 0.95501 0.0
H644 H 0.15303 0.83886 0.91645 0.0
C645 C 0.2179 0.90981 0.89921 0.0
C646 C 0.21149 0.86679 0.92492 0.0
C647 C 0.22765 0.92517 0.8844 0.0
C648 C 0.18425 0.78842 0.97519 0.0
C649 C 0.1912 0.80559 0.96067 0.0
C650 C 0.16931 0.84667 0.91917 0.0
C651 C 0.20572 0.89124 0.89098 0.0
C652 C 0.1977 0.8736 0.90686 0.0
C653 C 0.17579 0.82194 0.95305 0.0
C654 C 0.18315 0.83991 0.93724 0.0
H655 H 0.20989 0.90236 0.83466 0.0
H656 H 0.19312 0.875 0.86066 0.0
H657 H 0.16546 0.86829 0.89045 0.0
H658 H 0.12888 0.80316 0.98026 0.0
H659 H 0.14113 0.83341 0.95529 0.0
C660 C 0.81616 0.29308 0.52038 0.0
C661 C 0.83649 0.2962 0.5086 0.0
C662 C 0.80819 0.30973 0.53501 0.0
C663 C 0.81138 0.36977 0.54901 0.0
H664 H 0.79379 0.34998 0.60886 0.0
C665 C 0.75947 0.42383 0.61097 0.0
C666 C 0.76594 0.42386 0.63379 0.0
C667 C 0.77013 0.40965 0.59552 0.0
C668 C 0.79885 0.35577 0.59229 0.0
H669 H 0.86381 0.31962 0.5021 0.0
H670 H 0.84959 0.34889 0.52742 0.0
H671 H 0.80743 0.32242 0.58141 0.0
H672 H 0.78898 0.40941 0.65824 0.0
H673 H 0.80745 0.38423 0.63114 0.0
H674 H 0.80246 0.4031 0.55983 0.0
C675 C 0.83998 0.33348 0.52541 0.0
C676 C 0.8064 0.33999 0.57652 0.0
C677 C 0.84811 0.31672 0.51096 0.0
C678 C 0.78365 0.40975 0.64076 0.0
C679 C 0.79413 0.3953 0.62531 0.0
C680 C 0.80356 0.38553 0.56471 0.0
C681 C 0.82022 0.32992 0.53796 0.0
C682 C 0.81257 0.34681 0.55469 0.0
C683 C 0.78731 0.39499 0.60259 0.0
C684 C 0.79711 0.37865 0.58646 0.0
H685 H 0.80682 0.27745 0.51896 0.0
H686 H 0.79273 0.3067 0.54426 0.0
H687 H 0.81602 0.37545 0.53228 0.0
H688 H 0.74597 0.43462 0.60504 0.0
H689 H 0.7644 0.40962 0.57816 0.0
C690 C 0.76126 0.59421 0.12103 0.0
C691 C 0.74905 0.57406 0.12345 0.0
C692 C 0.7556 0.60968 0.10426 0.0
C693 C 0.72287 0.61653 0.05124 0.0
H694 H 0.72483 0.67971 0.06808 0.0
C695 C 0.67719 0.68841 0.00344 0.0
C696 C 0.68829 0.7093 0.00182 0.0
C697 C 0.68697 0.67061 0.01536 0.0
C698 C 0.72454 0.66216 0.06298 0.0
H699 H 0.72143 0.55421 0.10999 0.0
H700 H 0.71105 0.5816 0.08107 0.0
H701 H 0.73664 0.65128 0.09506 0.0
H702 H 0.719 0.7274 0.01009 0.0
H703 H 0.73601 0.69629 0.03095 0.0
H704 H 0.70993 0.62766 0.01933 0.0
C705 C 0.72535 0.58521 0.09185 0.0
C706 C 0.73132 0.64583 0.07845 0.0
C707 C 0.73119 0.56958 0.10851 0.0
C708 C 0.70994 0.71158 0.01119 0.0
C709 C 0.71964 0.69382 0.02322 0.0
C710 C 0.71588 0.63293 0.03579 0.0
C711 C 0.73738 0.60554 0.08966 0.0
C712 C 0.73055 0.6228 0.07282 0.0
C713 C 0.70796 0.6734 0.02597 0.0
C714 C 0.71663 0.6559 0.04155 0.0
H715 H 0.77531 0.59806 0.13207 0.0
H716 H 0.76555 0.62491 0.10277 0.0
H717 H 0.72234 0.59897 0.04624 0.0
H718 H 0.66053 0.68608 0.99629 0.0
H719 H 0.67754 0.65508 0.01729 0.0
C720 C 0.36272 0.27582 0.06389 0.0
C721 C 0.35947 0.25235 0.06395 0.0
C722 C 0.38039 0.28538 0.07637 0.0
C723 C 0.4164 0.27445 0.12524 0.0
H724 H 0.45939 0.3151 0.09747 0.0
C725 C 0.49429 0.30147 0.17432 0.0
C726 C 0.49876 0.32472 0.17422 0.0
C727 C 0.47986 0.29209 0.15824 0.0
C728 C 0.44744 0.30389 0.10551 0.0
H729 H 0.3717 0.22059 0.07747 0.0
H730 H 0.40203 0.23725 0.09931 0.0
H731 H 0.42709 0.30144 0.07563 0.0
H732 H 0.49341 0.35595 0.15588 0.0
H733 H 0.46792 0.33971 0.12826 0.0
H734 H 0.43614 0.27709 0.15518 0.0
C735 C 0.39115 0.24825 0.0896 0.0
C736 C 0.42894 0.29617 0.09303 0.0
C737 C 0.37382 0.23873 0.07699 0.0
C738 C 0.49022 0.33798 0.15651 0.0
C739 C 0.47559 0.32864 0.14058 0.0
C740 C 0.43469 0.28226 0.13772 0.0
C741 C 0.3947 0.27162 0.08935 0.0
C742 C 0.41339 0.28123 0.10277 0.0
C743 C 0.46944 0.3058 0.1419 0.0
C744 C 0.45057 0.29692 0.12799 0.0
H745 H 0.35193 0.28668 0.05392 0.0
H746 H 0.38277 0.30349 0.07604 0.0
H747 H 0.40447 0.26314 0.13322 0.0
H748 H 0.50088 0.29076 0.18757 0.0
H749 H 0.47602 0.27426 0.15927 0.0
C750 C 0.86387 0.22174 0.92856 0.0
C751 C 0.86752 0.24386 0.9363 0.0
C752 C 0.87819 0.21219 0.91243 0.0
C753 C 0.91606 0.22783 0.86644 0.0
H754 H 0.93942 0.16708 0.87256 0.0
C755 C 0.97953 0.19125 0.80253 0.0
C756 C 0.97689 0.16853 0.79638 0.0
C757 C 0.96721 0.20029 0.82049 0.0
C758 C 0.93282 0.18397 0.87044 0.0
H759 H 0.88922 0.27319 0.93337 0.0
H760 H 0.91404 0.25655 0.90513 0.0
H761 H 0.91565 0.18288 0.90224 0.0
H762 H 0.95932 0.13744 0.80424 0.0
H763 H 0.93741 0.1533 0.83508 0.0
H764 H 0.93262 0.22886 0.83445 0.0
C765 C 0.90008 0.24665 0.91151 0.0
C766 C 0.91927 0.19302 0.88748 0.0
C767 C 0.88593 0.25611 0.92778 0.0
C768 C 0.96184 0.15499 0.80865 0.0
C769 C 0.94936 0.16407 0.82645 0.0
C770 C 0.92941 0.21873 0.8493 0.0
C771 C 0.89627 0.22467 0.90357 0.0
C772 C 0.91078 0.21504 0.88564 0.0
C773 C 0.95181 0.18686 0.83255 0.0
C774 C 0.93797 0.19668 0.85106 0.0
H775 H 0.84982 0.21187 0.93479 0.0
H776 H 0.87478 0.19526 0.90647 0.0
H777 H 0.90947 0.24476 0.86444 0.0
H778 H 0.99113 0.20208 0.79349 0.0
H779 H 0.96985 0.2178 0.82496 0.0
C780 C 0.52797 0.80153 0.28161 0.0
C781 C 0.51862 0.82328 0.28188 0.0
C782 C 0.54023 0.79358 0.30012 0.0
C783 C 0.57089 0.81367 0.35093 0.0
H784 H 0.56846 0.7505 0.36761 0.0
C785 C 0.6156 0.77741 0.43008 0.0
C786 C 0.62872 0.75807 0.42606 0.0
C787 C 0.60091 0.78553 0.41347 0.0
C788 C 0.56932 0.76818 0.36309 0.0
H789 H 0.51422 0.85354 0.30199 0.0
H790 H 0.535 0.83948 0.33447 0.0
H791 H 0.54486 0.7643 0.33687 0.0
H792 H 0.63641 0.73189 0.4016 0.0
H793 H 0.61065 0.74592 0.37288 0.0
H794 H 0.59526 0.81746 0.37737 0.0
C795 C 0.53345 0.82874 0.31977 0.0
C796 C 0.55591 0.77608 0.34541 0.0
C797 C 0.52141 0.83677 0.30118 0.0
C798 C 0.62659 0.74686 0.40525 0.0
C799 C 0.61173 0.75479 0.38882 0.0
C800 C 0.58413 0.80579 0.36877 0.0
C801 C 0.54318 0.80712 0.31942 0.0
C802 C 0.55671 0.79888 0.33891 0.0
C803 C 0.59883 0.77426 0.39271 0.0
C804 C 0.58367 0.78292 0.37483 0.0
H805 H 0.52619 0.79078 0.26693 0.0
H806 H 0.54777 0.77698 0.29907 0.0
H807 H 0.57225 0.83124 0.3462 0.0
H808 H 0.61689 0.78645 0.44591 0.0
H809 H 0.59106 0.80053 0.41691 0.0
C810 C 0.14186 0.69904 0.58488 0.0
C811 C 0.13872 0.72176 0.5789 0.0
C812 C 0.12813 0.68908 0.60134 0.0
C813 C 0.09311 0.70312 0.6502 0.0
H814 H 0.05995 0.64836 0.63692 0.0
C815 C 0.01935 0.67464 0.70602 0.0
C816 C 0.017 0.65148 0.71029 0.0
C817 C 0.03469 0.68227 0.68987 0.0
C818 C 0.06933 0.66347 0.64106 0.0
H819 H 0.11908 0.75192 0.58573 0.0
H820 H 0.09558 0.73468 0.61446 0.0
H821 H 0.08729 0.66274 0.60965 0.0
H822 H 0.0287 0.61812 0.70078 0.0
H823 H 0.05578 0.63143 0.67303 0.0
H824 H 0.07548 0.70393 0.68159 0.0
C825 C 0.10849 0.72454 0.60643 0.0
C826 C 0.08497 0.67166 0.62544 0.0
C827 C 0.12188 0.73434 0.58985 0.0
C828 C 0.03 0.63609 0.69779 0.0
C829 C 0.0455 0.64372 0.6818 0.0
C830 C 0.07769 0.69484 0.6659 0.0
C831 C 0.11143 0.70184 0.61232 0.0
C832 C 0.0967 0.69177 0.62972 0.0
C833 C 0.04821 0.66692 0.67779 0.0
C834 C 0.0653 0.67513 0.66138 0.0
H835 H 0.1547 0.68894 0.5767 0.0
H836 H 0.13071 0.67152 0.60567 0.0
H837 H 0.10216 0.71853 0.654 0.0
H838 H 0.00947 0.68691 0.7153 0.0
H839 H 0.03597 0.70024 0.68687 0.0
C840 C 0.91933 0.60032 0.74144 0.0
C841 C 0.9267 0.62048 0.73143 0.0
C842 C 0.90353 0.58668 0.73063 0.0
C843 C 0.85894 0.58863 0.68718 0.0
H844 H 0.86062 0.52367 0.6947 0.0
C845 C 0.79423 0.5281 0.64598 0.0
C846 C 0.78418 0.51276 0.66099 0.0
C847 C 0.81291 0.5408 0.65265 0.0
C848 C 0.85996 0.54179 0.6925 0.0
H849 H 0.92366 0.64186 0.70192 0.0
H850 H 0.89642 0.61767 0.6827 0.0
H851 H 0.89164 0.54658 0.70898 0.0
H852 H 0.78603 0.49839 0.69458 0.0
H853 H 0.81891 0.52038 0.70609 0.0
H854 H 0.82725 0.58365 0.67053 0.0
C855 C 0.90253 0.61267 0.69917 0.0
C856 C 0.87765 0.55495 0.70074 0.0
C857 C 0.91825 0.62647 0.71011 0.0
C858 C 0.79339 0.51011 0.68267 0.0
C859 C 0.81226 0.52258 0.68921 0.0
C860 C 0.84137 0.57542 0.67869 0.0
C861 C 0.89483 0.5927 0.70941 0.0
C862 C 0.87715 0.57858 0.69861 0.0
C863 C 0.82209 0.53814 0.67431 0.0
C864 C 0.84153 0.55193 0.68166 0.0
H865 H 0.92538 0.59526 0.75792 0.0
H866 H 0.89769 0.5717 0.73927 0.0
H867 H 0.85781 0.60678 0.68549 0.0
H868 H 0.78746 0.53054 0.62918 0.0
H869 H 0.82027 0.55263 0.64083 0.0
C870 C 0.55588 0.40751 0.24361 0.0
C871 C 0.56453 0.38687 0.25146 0.0
C872 C 0.5697 0.42654 0.24226 0.0
C873 C 0.62502 0.44998 0.26047 0.0
H874 H 0.62174 0.48194 0.20356 0.0
C875 C 0.69976 0.49569 0.21968 0.0
C876 C 0.69567 0.51371 0.20483 0.0
C877 C 0.68191 0.48512 0.2308 0.0
C878 C 0.6226 0.47365 0.21981 0.0
H879 H 0.59435 0.37028 0.26473 0.0
H880 H 0.61851 0.40331 0.26194 0.0
H881 H 0.59369 0.45353 0.21233 0.0
H882 H 0.66999 0.53643 0.19207 0.0
H883 H 0.63887 0.51814 0.21174 0.0
H884 H 0.65458 0.46957 0.26745 0.0
C885 C 0.60095 0.4049 0.25715 0.0
C886 C 0.60649 0.45727 0.22483 0.0
C887 C 0.58713 0.38588 0.25855 0.0
C888 C 0.67368 0.52237 0.20313 0.0
C889 C 0.65582 0.51181 0.2143 0.0
C890 C 0.64118 0.4664 0.25544 0.0
C891 C 0.59249 0.42537 0.24868 0.0
C892 C 0.60784 0.44481 0.24494 0.0
C893 C 0.65961 0.49241 0.2274 0.0
C894 C 0.64049 0.478 0.23477 0.0
H895 H 0.53849 0.40894 0.23821 0.0
H896 H 0.56258 0.44212 0.23594 0.0
H897 H 0.62628 0.44095 0.2763 0.0
H898 H 0.71654 0.48872 0.22156 0.0
H899 H 0.68548 0.4702 0.24071 0.0
C900 C 0.44903 0.88121 0.26214 0.0
C901 C 0.44136 0.85902 0.26503 0.0
C902 C 0.43915 0.89887 0.27402 0.0
C903 C 0.4033 0.93287 0.28403 0.0
H904 H 0.37368 0.92721 0.34198 0.0
C905 C 0.3214 0.97799 0.30543 0.0
C906 C 0.31642 0.98349 0.32792 0.0
C907 C 0.34171 0.9675 0.3 0.0
C908 C 0.38223 0.92934 0.32599 0.0
H909 H 0.4184 0.8375 0.28344 0.0
H910 H 0.40013 0.86858 0.30352 0.0
H911 H 0.40078 0.89866 0.33021 0.0
H912 H 0.32967 0.98424 0.36206 0.0
H913 H 0.36533 0.96609 0.35246 0.0
H914 H 0.38466 0.9634 0.27972 0.0
C915 C 0.41419 0.87235 0.29252 0.0
C916 C 0.39751 0.91278 0.31911 0.0
C917 C 0.42449 0.85454 0.28093 0.0
C918 C 0.33293 0.97999 0.34459 0.0
C919 C 0.35329 0.96948 0.33914 0.0
C920 C 0.3882 0.94947 0.29099 0.0
C921 C 0.42098 0.8948 0.28864 0.0
C922 C 0.40764 0.91396 0.29772 0.0
C923 C 0.35752 0.96239 0.31692 0.0
C924 C 0.37687 0.94747 0.31166 0.0
H925 H 0.46241 0.88499 0.25029 0.0
H926 H 0.44526 0.91584 0.27113 0.0
H927 H 0.41057 0.93431 0.26735 0.0
H928 H 0.30909 0.9806 0.29218 0.0
H929 H 0.34432 0.96212 0.28274 0.0
C930 C 0.20383 0.02132 0.80992 0.0
C931 C 0.2026 0.00949 0.83042 0.0
C932 C 0.18705 0.0368 0.80406 0.0
C933 C 0.12812 0.05231 0.81536 0.0
H934 H 0.14575 0.11054 0.79137 0.0
C935 C 0.06674 0.11172 0.76959 0.0
C936 C 0.06821 0.135 0.77382 0.0
C937 C 0.08243 0.09685 0.77882 0.0
C938 C 0.14059 0.09445 0.79829 0.0
H939 H 0.18253 0.00419 0.86055 0.0
H940 H 0.15319 0.03104 0.8502 0.0
H941 H 0.17473 0.08325 0.80211 0.0
H942 H 0.08695 0.16089 0.79161 0.0
H943 H 0.11464 0.13475 0.8077 0.0
H944 H 0.09399 0.06342 0.81139 0.0
C945 C 0.16712 0.02836 0.83869 0.0
C946 C 0.15715 0.07873 0.80416 0.0
C947 C 0.18396 0.01302 0.84463 0.0
C948 C 0.08538 0.14304 0.78805 0.0
C949 C 0.10129 0.12813 0.79713 0.0
C950 C 0.11157 0.06795 0.80934 0.0
C951 C 0.16861 0.04061 0.81848 0.0
C952 C 0.15107 0.05744 0.81259 0.0
C953 C 0.10007 0.10491 0.79239 0.0
C954 C 0.11763 0.0891 0.80056 0.0
H955 H 0.21802 0.01901 0.79865 0.0
H956 H 0.18848 0.04581 0.78824 0.0
H957 H 0.12292 0.03601 0.82174 0.0
H958 H 0.05365 0.10495 0.75878 0.0
H959 H 0.08117 0.0791 0.77469 0.0
C960 C 0.76296 0.93129 0.61919 0.0
C961 C 0.74894 0.92983 0.63815 0.0
C962 C 0.76504 0.91304 0.60446 0.0
C963 C 0.74618 0.85328 0.59425 0.0
H964 H 0.74272 0.87453 0.53251 0.0
C965 C 0.71968 0.79368 0.52185 0.0
C966 C 0.70294 0.80273 0.50766 0.0
C967 C 0.73196 0.80771 0.53638 0.0
C968 C 0.74367 0.86825 0.54963 0.0
H969 H 0.72729 0.908 0.65765 0.0
H970 H 0.72982 0.87637 0.63138 0.0
H971 H 0.752 0.90076 0.56232 0.0
H972 H 0.68715 0.83375 0.49648 0.0
H973 H 0.70814 0.858 0.52179 0.0
H974 H 0.73595 0.82108 0.58151 0.0
C975 C 0.73985 0.89124 0.62803 0.0
C976 C 0.74939 0.88328 0.56683 0.0
C977 C 0.73827 0.90937 0.64311 0.0
C978 C 0.69985 0.8262 0.50722 0.0
C979 C 0.71206 0.84017 0.52171 0.0
C980 C 0.74016 0.83827 0.57701 0.0
C981 C 0.75248 0.89321 0.60796 0.0
C982 C 0.7501 0.87619 0.5895 0.0
C983 C 0.7278 0.83107 0.53696 0.0
C984 C 0.73811 0.84577 0.55458 0.0
H985 H 0.77154 0.94693 0.61523 0.0
H986 H 0.7756 0.91497 0.58969 0.0
H987 H 0.74699 0.84704 0.6114 0.0
H988 H 0.72255 0.77566 0.52255 0.0
H989 H 0.74423 0.80018 0.54763 0.0
C990 C 0.84385 0.20607 0.0399 0.0
C991 C 0.83129 0.21684 0.02299 0.0
C992 C 0.83435 0.18864 0.05251 0.0
C993 C 0.77871 0.16418 0.06792 0.0
H994 H 0.81616 0.11656 0.09259 0.0
C995 C 0.74532 0.08527 0.11544 0.0
C996 C 0.75435 0.08274 0.13721 0.0
C997 C 0.75433 0.10116 0.10059 0.0
C998 C 0.80558 0.12981 0.08579 0.0
H999 H 0.79931 0.21737 0.00532 0.0
H1000 H 0.78302 0.18618 0.02657 0.0
H1001 H 0.83271 0.14418 0.06703 0.0
H1002 H 0.77998 0.09459 0.16049 0.0
H1003 H 0.79618 0.12194 0.13416 0.0
H1004 H 0.75146 0.14911 0.08629 0.0
C1005 C 0.79992 0.19167 0.03073 0.0
C1006 C 0.81502 0.14573 0.07127 0.0
C1007 C 0.80929 0.20943 0.01842 0.0
C1008 C 0.77263 0.09628 0.14384 0.0
C1009 C 0.78196 0.11179 0.1288 0.0
C1010 C 0.7692 0.14795 0.08207 0.0
C1011 C 0.8122 0.18126 0.0482 0.0
C1012 C 0.8018 0.16336 0.0624 0.0
C1013 C 0.77283 0.11437 0.10711 0.0
C1014 C 0.78264 0.13086 0.09134 0.0
H1015 H 0.86078 0.21161 0.04395 0.0
H1016 H 0.84422 0.18145 0.06609 0.0
H1017 H 0.76804 0.17768 0.06182 0.0
H1018 H 0.73117 0.07508 0.10996 0.0
H1019 H 0.74709 0.10289 0.08389 0.0
C1020 C 0.18623 0.70022 0.47602 0.0
C1021 C 0.16429 0.69928 0.48488 0.0
C1022 C 0.19363 0.68397 0.46067 0.0
C1023 C 0.17301 0.6406 0.42063 0.0
H1024 H 0.23484 0.61978 0.42435 0.0
C1025 C 0.23694 0.5684 0.3818 0.0
C1026 C 0.23216 0.57012 0.35867 0.0
C1027 C 0.22678 0.58289 0.39724 0.0
C1028 C 0.21743 0.62518 0.42319 0.0
H1029 H 0.133 0.68035 0.48483 0.0
H1030 H 0.14613 0.65163 0.45843 0.0
H1031 H 0.22105 0.64691 0.45168 0.0
H1032 H 0.21225 0.58768 0.33358 0.0
H1033 H 0.19479 0.61364 0.36062 0.0
H1034 H 0.16934 0.61828 0.39239 0.0
C1035 C 0.15745 0.66521 0.463 0.0
C1036 C 0.20961 0.64103 0.4387 0.0
C1037 C 0.15 0.68156 0.47828 0.0
C1038 C 0.21623 0.58603 0.35134 0.0
C1039 C 0.2062 0.60081 0.36684 0.0
C1040 C 0.18082 0.62458 0.40513 0.0
C1041 C 0.17933 0.66628 0.45394 0.0
C1042 C 0.18735 0.64902 0.43759 0.0
C1043 C 0.2118 0.59973 0.38991 0.0
C1044 C 0.20314 0.61667 0.40626 0.0
H1045 H 0.19761 0.71376 0.48061 0.0
H1046 H 0.21046 0.68554 0.45378 0.0
H1047 H 0.15582 0.64659 0.41914 0.0
H1048 H 0.24885 0.556 0.38801 0.0
H1049 H 0.23096 0.58111 0.41493 0.0
C1050 C 0.34473 0.27739 0.95665 0.0
C1051 C 0.33007 0.26907 0.97329 0.0
C1052 C 0.33839 0.29566 0.94317 0.0
C1053 C 0.28781 0.32792 0.92503 0.0
H1054 H 0.33178 0.37296 0.90724 0.0
C1055 C 0.26227 0.41385 0.88918 0.0
C1056 C 0.27246 0.42037 0.86879 0.0
C1057 C 0.27038 0.39539 0.90123 0.0
C1058 C 0.31941 0.36038 0.91194 0.0
H1059 H 0.29749 0.27362 0.98923 0.0
H1060 H 0.28671 0.3059 0.96631 0.0
H1061 H 0.34368 0.34076 0.93005 0.0
H1062 H 0.29965 0.41302 0.84544 0.0
H1063 H 0.31418 0.38082 0.86697 0.0
H1064 H 0.26346 0.34799 0.9075 0.0
C1065 C 0.30284 0.29796 0.96313 0.0
C1066 C 0.32619 0.34189 0.92494 0.0
C1067 C 0.30907 0.27954 0.9764 0.0
C1068 C 0.29144 0.40841 0.86108 0.0
C1069 C 0.29977 0.39004 0.87338 0.0
C1070 C 0.28103 0.34651 0.91232 0.0
C1071 C 0.31734 0.30616 0.94621 0.0
C1072 C 0.31042 0.32552 0.93181 0.0
C1073 C 0.28904 0.38318 0.89335 0.0
C1074 C 0.29671 0.36299 0.90582 0.0
H1075 H 0.36098 0.26957 0.95376 0.0
H1076 H 0.34985 0.30127 0.93013 0.0
H1077 H 0.2753 0.3154 0.92947 0.0
H1078 H 0.24762 0.42266 0.89562 0.0
H1079 H 0.26198 0.39058 0.91673 0.0
C1080 C 0.52192 0.66547 0.81858 0.0
C1081 C 0.51823 0.67688 0.79814 0.0
C1082 C 0.53635 0.67448 0.83489 0.0
C1083 C 0.58496 0.71231 0.84046 0.0
H1084 H 0.57095 0.71039 0.90432 0.0
C1085 C 0.65063 0.73339 0.90989 0.0
C1086 C 0.64297 0.74773 0.92716 0.0
C1087 C 0.63539 0.72422 0.89433 0.0
C1088 C 0.57508 0.71108 0.88654 0.0
H1089 H 0.52616 0.7071 0.77911 0.0
H1090 H 0.5513 0.72286 0.80769 0.0
H1091 H 0.54338 0.69667 0.87697 0.0
H1092 H 0.61325 0.76337 0.94181 0.0
H1093 H 0.58689 0.7474 0.91481 0.0
H1094 H 0.61659 0.72693 0.85004 0.0
C1095 C 0.5432 0.70682 0.81096 0.0
C1096 C 0.55936 0.70309 0.8709 0.0
C1097 C 0.52864 0.69789 0.79469 0.0
C1098 C 0.61977 0.75242 0.92871 0.0
C1099 C 0.60459 0.74315 0.91332 0.0
C1100 C 0.60075 0.72016 0.85612 0.0
C1101 C 0.54749 0.69503 0.83107 0.0
C1102 C 0.56408 0.70372 0.84769 0.0
C1103 C 0.61221 0.72903 0.8959 0.0
C1104 C 0.59592 0.71975 0.87931 0.0
H1105 H 0.51416 0.64925 0.82175 0.0
H1106 H 0.53941 0.66494 0.85017 0.0
H1107 H 0.5892 0.71273 0.82269 0.0
H1108 H 0.66839 0.72945 0.90825 0.0
H1109 H 0.64171 0.71323 0.88116 0.0
C1110 C 0.99779 0.79977 0.18785 0.0
C1111 C 0.99069 0.82239 0.18796 0.0
C1112 C 0.01186 0.79176 0.17068 0.0
C1113 C 0.05682 0.81193 0.13537 0.0
H1114 H 0.04996 0.75621 0.10192 0.0
C1115 C 0.12388 0.7817 0.07084 0.0
C1116 C 0.12723 0.75836 0.06902 0.0
C1117 C 0.10613 0.79017 0.08396 0.0
C1118 C 0.05234 0.77166 0.11136 0.0
H1119 H 0.99152 0.85388 0.16924 0.0
H1120 H 0.01635 0.83992 0.13964 0.0
H1121 H 0.01974 0.76887 0.1268 0.0
H1122 H 0.11555 0.7256 0.08024 0.0
H1123 H 0.08558 0.74023 0.10387 0.0
H1124 H 0.08977 0.81433 0.121 0.0
C1125 C 0.01104 0.82847 0.15285 0.0
C1126 C 0.03492 0.77895 0.12545 0.0
C1127 C 0.99671 0.83637 0.16976 0.0
C1128 C 0.11313 0.7437 0.0811 0.0
C1129 C 0.09577 0.75211 0.09449 0.0
C1130 C 0.07444 0.80445 0.12162 0.0
C1131 C 0.01928 0.80632 0.15354 0.0
C1132 C 0.03706 0.79908 0.13763 0.0
C1133 C 0.0917 0.77543 0.0958 0.0
C1134 C 0.07253 0.78409 0.10958 0.0
H1135 H 0.99342 0.78858 0.20161 0.0
H1136 H 0.01802 0.77458 0.17154 0.0
H1137 H 0.05895 0.82741 0.14485 0.0
H1138 H 0.13446 0.79333 0.06155 0.0
H1139 H 0.10344 0.80822 0.08437 0.0
C1140 C 0.41987 0.18415 0.70667 0.0
C1141 C 0.44178 0.19295 0.70762 0.0
C1142 C 0.40409 0.19302 0.69168 0.0
C1143 C 0.39402 0.24031 0.65084 0.0
H1144 H 0.35414 0.19616 0.6236 0.0
C1145 C 0.35463 0.24416 0.56174 0.0
C1146 C 0.33165 0.23888 0.55976 0.0
C1147 C 0.36535 0.24301 0.58266 0.0
C1148 C 0.36489 0.20876 0.63134 0.0
H1149 H 0.46442 0.2182 0.69426 0.0
H1150 H 0.43737 0.23283 0.6668 0.0
H1151 H 0.37869 0.1849 0.65427 0.0
H1152 H 0.30162 0.22902 0.57798 0.0
H1153 H 0.32066 0.22609 0.61462 0.0
H1154 H 0.3811 0.26362 0.62628 0.0
C1155 C 0.43197 0.21962 0.67815 0.0
C1156 C 0.37897 0.20238 0.64904 0.0
C1157 C 0.44759 0.21113 0.6937 0.0
C1158 C 0.31934 0.23316 0.57913 0.0
C1159 C 0.33019 0.23152 0.60001 0.0
C1160 C 0.38023 0.24655 0.63272 0.0
C1161 C 0.41006 0.21046 0.67673 0.0
C1162 C 0.39394 0.21797 0.65893 0.0
C1163 C 0.35336 0.23606 0.60182 0.0
C1164 C 0.36574 0.23073 0.62273 0.0
H1165 H 0.41486 0.17046 0.71768 0.0
H1166 H 0.38725 0.186 0.69175 0.0
H1167 H 0.40492 0.25294 0.65825 0.0
H1168 H 0.36443 0.24875 0.54702 0.0
H1169 H 0.38329 0.24636 0.58363 0.0
C1170 C 0.89919 0.25805 0.42554 0.0
C1171 C 0.8759 0.26238 0.42516 0.0
C1172 C 0.91334 0.26732 0.40918 0.0
C1173 C 0.93662 0.27656 0.36477 0.0
H1174 H 0.92748 0.33732 0.34247 0.0
C1175 C 0.98196 0.30991 0.28546 0.0
C1176 C 0.98949 0.33238 0.28579 0.0
C1177 C 0.9684 0.30164 0.30285 0.0
C1178 C 0.93041 0.32039 0.34865 0.0
H1179 H 0.84922 0.28007 0.40743 0.0
H1180 H 0.87387 0.29596 0.37867 0.0
H1181 H 0.90363 0.32302 0.3727 0.0
H1182 H 0.98897 0.36368 0.30476 0.0
H1183 H 0.96567 0.34912 0.33527 0.0
H1184 H 0.96372 0.27409 0.3411 0.0
C1185 C 0.88126 0.28567 0.39182 0.0
C1186 C 0.91655 0.3121 0.36579 0.0
C1187 C 0.86711 0.27648 0.40826 0.0
C1188 C 0.98335 0.34632 0.30395 0.0
C1189 C 0.96987 0.33801 0.32138 0.0
C1190 C 0.95052 0.28488 0.34769 0.0
C1191 C 0.90452 0.28104 0.39198 0.0
C1192 C 0.91946 0.29006 0.37402 0.0
C1193 C 0.96216 0.3156 0.321 0.0
C1194 C 0.94754 0.30687 0.33937 0.0
H1195 H 0.90654 0.2474 0.43843 0.0
H1196 H 0.93123 0.26375 0.41004 0.0
H1197 H 0.93916 0.25941 0.37051 0.0
H1198 H 0.98631 0.29877 0.27165 0.0
H1199 H 0.9625 0.28438 0.30187 0.0
C1200 C 0.19224 0.10624 0.31534 0.0
C1201 C 0.18085 0.08669 0.30827 0.0
C1202 C 0.18101 0.12692 0.31627 0.0
C1203 C 0.12441 0.15403 0.31398 0.0
H1204 H 0.15767 0.20307 0.2864 0.0
C1205 C 0.08214 0.23358 0.27665 0.0
C1206 C 0.09351 0.25428 0.27862 0.0
C1207 C 0.09214 0.21366 0.28434 0.0
C1208 C 0.14824 0.18971 0.29453 0.0
H1209 H 0.14848 0.07325 0.29785 0.0
H1210 H 0.12899 0.1094 0.29904 0.0
H1211 H 0.17632 0.16724 0.29306 0.0
H1212 H 0.12382 0.27046 0.29123 0.0
H1213 H 0.14115 0.23577 0.30479 0.0
H1214 H 0.0961 0.1765 0.31479 0.0
C1215 C 0.14652 0.10875 0.30411 0.0
C1216 C 0.15896 0.16913 0.29838 0.0
C1217 C 0.15773 0.08802 0.30331 0.0
C1218 C 0.11469 0.25477 0.28926 0.0
C1219 C 0.12467 0.23487 0.29696 0.0
C1220 C 0.11365 0.17467 0.31008 0.0
C1221 C 0.15819 0.12854 0.31003 0.0
C1222 C 0.14712 0.15094 0.3079 0.0
C1223 C 0.11372 0.21403 0.29418 0.0
C1224 C 0.12539 0.19265 0.30006 0.0
H1225 H 0.20999 0.10569 0.31962 0.0
H1226 H 0.19037 0.14175 0.32139 0.0
H1227 H 0.11489 0.14044 0.32161 0.0
H1228 H 0.06578 0.23262 0.26857 0.0
H1229 H 0.08334 0.19787 0.28176 0.0
C1230 C 0.31218 0.89237 0.80431 0.0
C1231 C 0.30785 0.90436 0.78433 0.0
C1232 C 0.32711 0.87412 0.80432 0.0
C1233 C 0.37208 0.8462 0.7706 0.0
H1234 H 0.35281 0.79269 0.8028 0.0
C1235 C 0.38858 0.74461 0.76817 0.0
C1236 C 0.41212 0.74411 0.76564 0.0
C1237 C 0.3775 0.76476 0.77328 0.0
C1238 C 0.35842 0.80747 0.79367 0.0
H1239 H 0.31627 0.90696 0.74881 0.0
H1240 H 0.34193 0.87496 0.74873 0.0
H1241 H 0.33076 0.82718 0.80576 0.0
H1242 H 0.44261 0.76425 0.76731 0.0
H1243 H 0.42329 0.79939 0.77659 0.0
H1244 H 0.39915 0.82617 0.75766 0.0
C1245 C 0.3341 0.87982 0.7645 0.0
C1246 C 0.34592 0.82736 0.7956 0.0
C1247 C 0.31925 0.89811 0.76451 0.0
C1248 C 0.42443 0.76409 0.76904 0.0
C1249 C 0.41335 0.78426 0.77422 0.0
C1250 C 0.38454 0.82629 0.76861 0.0
C1251 C 0.33799 0.86741 0.78433 0.0
C1252 C 0.3524 0.84687 0.7838 0.0
C1253 C 0.38971 0.7849 0.77609 0.0
C1254 C 0.37765 0.80657 0.77984 0.0
H1255 H 0.30378 0.89685 0.81991 0.0
H1256 H 0.32999 0.86516 0.81997 0.0
H1257 H 0.37772 0.86101 0.76153 0.0
H1258 H 0.37856 0.72955 0.76562 0.0
H1259 H 0.35927 0.76467 0.77428 0.0
C1260 C 0.68781 0.38847 0.6975 0.0
C1261 C 0.68648 0.40683 0.71241 0.0
C1262 C 0.67157 0.37142 0.69807 0.0
C1263 C 0.6293 0.34684 0.73672 0.0
H1264 H 0.61235 0.31229 0.68376 0.0
C1265 C 0.56802 0.27282 0.74365 0.0
C1266 C 0.57659 0.25245 0.73503 0.0
C1267 C 0.57792 0.29335 0.73783 0.0
C1268 C 0.61692 0.32186 0.69866 0.0
H1269 H 0.66652 0.42242 0.73878 0.0
H1270 H 0.63778 0.3931 0.73932 0.0
H1271 H 0.63617 0.34568 0.67959 0.0
H1272 H 0.6011 0.23783 0.71213 0.0
H1273 H 0.61834 0.27379 0.70191 0.0
H1274 H 0.61017 0.32301 0.75576 0.0
C1275 C 0.65173 0.39141 0.72766 0.0
C1276 C 0.63065 0.3409 0.69632 0.0
C1277 C 0.66815 0.40828 0.7273 0.0
C1278 C 0.59419 0.2532 0.71917 0.0
C1279 C 0.60401 0.2738 0.71323 0.0
C1280 C 0.61542 0.32802 0.739 0.0
C1281 C 0.65347 0.37252 0.71338 0.0
C1282 C 0.63731 0.35343 0.71539 0.0
C1283 C 0.59646 0.29397 0.72313 0.0
C1284 C 0.60934 0.31515 0.72006 0.0
H1285 H 0.7018 0.38688 0.68585 0.0
H1286 H 0.67368 0.35702 0.68704 0.0
H1287 H 0.63442 0.35571 0.75185 0.0
H1288 H 0.55434 0.27289 0.75575 0.0
H1289 H 0.57157 0.30871 0.74545 0.0
C1290 C 0.85855 0.60198 0.20901 0.0
C1291 C 0.83605 0.60245 0.20155 0.0
C1292 C 0.87117 0.62188 0.21023 0.0
C1293 C 0.8726 0.68087 0.18939 0.0
H1294 H 0.90768 0.69211 0.24343 0.0
C1295 C 0.89632 0.76959 0.22059 0.0
C1296 C 0.91657 0.77262 0.23253 0.0
C1297 C 0.89011 0.74824 0.21279 0.0
C1298 C 0.89837 0.6891 0.228 0.0
H1299 H 0.80919 0.62421 0.18948 0.0
H1300 H 0.83104 0.6588 0.19191 0.0
H1301 H 0.88964 0.65563 0.23819 0.0
H1302 H 0.94707 0.75595 0.244 0.0
H1303 H 0.93628 0.71871 0.2302 0.0
H1304 H 0.8808 0.71463 0.17955 0.0
C1305 C 0.83909 0.64305 0.19648 0.0
C1306 C 0.88798 0.66817 0.22502 0.0
C1307 C 0.82649 0.62322 0.19529 0.0
C1308 C 0.93125 0.75416 0.23504 0.0
C1309 C 0.92501 0.73278 0.22727 0.0
C1310 C 0.88299 0.70182 0.19238 0.0
C1311 C 0.86158 0.64264 0.20395 0.0
C1312 C 0.87456 0.66399 0.20593 0.0
C1313 C 0.90403 0.72945 0.21674 0.0
C1314 C 0.89559 0.70634 0.21195 0.0
H1315 H 0.86646 0.58625 0.21387 0.0
H1316 H 0.88851 0.62098 0.21592 0.0
H1317 H 0.86274 0.67802 0.17428 0.0
H1318 H 0.88467 0.78347 0.21826 0.0
H1319 H 0.87378 0.74627 0.20485 0.0
C1320 C 0.28473 0.09505 0.24415 0.0
C1321 C 0.27173 0.07525 0.24517 0.0
C1322 C 0.28885 0.10553 0.22343 0.0
C1323 C 0.26125 0.11352 0.16978 0.0
H1324 H 0.31814 0.13844 0.14948 0.0
C1325 C 0.26656 0.16351 0.0869 0.0
C1326 C 0.28072 0.18246 0.0866 0.0
C1327 C 0.26749 0.14823 0.1048 0.0
C1328 C 0.30206 0.13182 0.15502 0.0
H1329 H 0.25405 0.0502 0.2251 0.0
H1330 H 0.26101 0.06872 0.18909 0.0
H1331 H 0.31697 0.11553 0.18372 0.0
H1332 H 0.30709 0.20025 0.10463 0.0
H1333 H 0.30805 0.17424 0.13632 0.0
H1334 H 0.24598 0.13055 0.14204 0.0
C1335 C 0.26792 0.07611 0.20432 0.0
C1336 C 0.30147 0.11859 0.17454 0.0
C1337 C 0.26402 0.0655 0.22495 0.0
C1338 C 0.29602 0.18572 0.10438 0.0
C1339 C 0.29669 0.17067 0.12248 0.0
C1340 C 0.26175 0.12701 0.15052 0.0
C1341 C 0.27985 0.09652 0.20344 0.0
C1342 C 0.28103 0.10941 0.18211 0.0
C1343 C 0.28232 0.15179 0.12302 0.0
C1344 C 0.28213 0.13646 0.14292 0.0
H1345 H 0.29098 0.10292 0.25941 0.0
H1346 H 0.29805 0.12131 0.22318 0.0
H1347 H 0.2452 0.10693 0.17549 0.0
H1348 H 0.25481 0.16042 0.07324 0.0
H1349 H 0.25653 0.13364 0.10432 0.0
C1350 C 0.22651 0.92266 0.72644 0.0
C1351 C 0.21811 0.91301 0.7464 0.0
C1352 C 0.22238 0.9125 0.70557 0.0
C1353 C 0.18703 0.87096 0.67559 0.0
H1354 H 0.2414 0.85932 0.64119 0.0
C1355 C 0.1919 0.80186 0.60731 0.0
C1356 C 0.20648 0.80489 0.58889 0.0
C1357 C 0.19113 0.81775 0.62471 0.0
C1358 C 0.22592 0.86279 0.65023 0.0
H1359 H 0.19765 0.88592 0.75997 0.0
H1360 H 0.19031 0.86828 0.72348 0.0
H1361 H 0.24326 0.88288 0.67468 0.0
H1362 H 0.23082 0.82748 0.57365 0.0
H1363 H 0.229 0.85555 0.60363 0.0
H1364 H 0.16968 0.85078 0.65119 0.0
C1365 C 0.20013 0.88367 0.72401 0.0
C1366 C 0.22703 0.87628 0.6695 0.0
C1367 C 0.20444 0.89371 0.74492 0.0
C1368 C 0.21962 0.82455 0.58777 0.0
C1369 C 0.21865 0.84058 0.60503 0.0
C1370 C 0.18586 0.85764 0.65614 0.0
C1371 C 0.20957 0.89263 0.70421 0.0
C1372 C 0.20769 0.8802 0.68259 0.0
C1373 C 0.20473 0.83718 0.62396 0.0
C1374 C 0.20539 0.85305 0.64343 0.0
H1375 H 0.23706 0.93757 0.72697 0.0
H1376 H 0.22966 0.91989 0.69054 0.0
H1377 H 0.17182 0.8739 0.68527 0.0
H1378 H 0.18159 0.78685 0.60868 0.0
H1379 H 0.18046 0.81434 0.63912 0.0
C1380 C 0.79223 0.3928 0.75118 0.0
C1381 C 0.78011 0.41307 0.74908 0.0
C1382 C 0.79723 0.38403 0.77252 0.0
C1383 C 0.77375 0.38292 0.82895 0.0
H1384 H 0.83084 0.35648 0.84668 0.0
C1385 C 0.78343 0.34004 0.91535 0.0
C1386 C 0.79597 0.31997 0.91594 0.0
C1387 C 0.78406 0.35394 0.89632 0.0
C1388 C 0.81471 0.36358 0.84192 0.0
H1389 H 0.76471 0.44058 0.76775 0.0
H1390 H 0.77321 0.42509 0.80487 0.0
H1391 H 0.82772 0.37597 0.8105 0.0
H1392 H 0.8194 0.29895 0.89731 0.0
H1393 H 0.81984 0.32263 0.86388 0.0
H1394 H 0.76029 0.36976 0.85958 0.0
C1395 C 0.77877 0.41599 0.79001 0.0
C1396 C 0.813 0.37483 0.82125 0.0
C1397 C 0.774 0.42488 0.76874 0.0
C1398 C 0.80961 0.31437 0.8974 0.0
C1399 C 0.80997 0.32808 0.87824 0.0
C1400 C 0.77535 0.37143 0.84942 0.0
C1401 C 0.78999 0.39525 0.79211 0.0
C1402 C 0.79246 0.38449 0.81453 0.0
C1403 C 0.79695 0.3479 0.8773 0.0
C1404 C 0.7958 0.36144 0.85615 0.0
H1405 H 0.79724 0.38334 0.73637 0.0
H1406 H 0.80582 0.36795 0.77367 0.0
H1407 H 0.7576 0.38991 0.82403 0.0
H1408 H 0.77296 0.34491 0.9295 0.0
H1409 H 0.77421 0.36932 0.89647 0.0
C1410 C 0.74296 0.56142 0.25634 0.0
C1411 C 0.73572 0.57291 0.23689 0.0
C1412 C 0.73645 0.56888 0.27777 0.0
C1413 C 0.69745 0.60769 0.30822 0.0
H1414 H 0.74761 0.61393 0.34976 0.0
C1415 C 0.69652 0.67102 0.38186 0.0
C1416 C 0.70606 0.6645 0.40257 0.0
C1417 C 0.69846 0.65722 0.36286 0.0
C1418 C 0.73331 0.612 0.33855 0.0
H1419 H 0.71453 0.6001 0.22466 0.0
H1420 H 0.70334 0.61315 0.26188 0.0
H1421 H 0.75276 0.59332 0.3146 0.0
H1422 H 0.72509 0.63826 0.41953 0.0
H1423 H 0.72846 0.61413 0.3863 0.0
H1424 H 0.67818 0.62693 0.33195 0.0
C1425 C 0.71401 0.59837 0.26068 0.0
C1426 C 0.73624 0.60012 0.31838 0.0
C1427 C 0.72052 0.59094 0.23928 0.0
C1428 C 0.71761 0.64383 0.40382 0.0
C1429 C 0.7196 0.63002 0.38477 0.0
C1430 C 0.69452 0.6196 0.32837 0.0
C1431 C 0.7225 0.58792 0.2802 0.0
C1432 C 0.71846 0.59816 0.30278 0.0
C1433 C 0.71002 0.63655 0.36407 0.0
C1434 C 0.71254 0.62226 0.34358 0.0
H1435 H 0.75453 0.54734 0.2551 0.0
H1436 H 0.74293 0.56018 0.29246 0.0
H1437 H 0.68331 0.60621 0.29673 0.0
H1438 H 0.68753 0.68685 0.38027 0.0
H1439 H 0.69121 0.66294 0.3471 0.0
C1440 C 0.25121 0.30022 0.08702 0.0
C1441 C 0.24998 0.28254 0.07127 0.0
C1442 C 0.23186 0.30743 0.09843 0.0
C1443 C 0.16904 0.30126 0.10021 0.0
H1444 H 0.17807 0.30763 0.16469 0.0
C1445 C 0.10049 0.2828 0.16642 0.0
C1446 C 0.0989 0.29707 0.18527 0.0
C1447 C 0.11772 0.28574 0.15064 0.0
C1448 C 0.17527 0.30629 0.14668 0.0
H1449 H 0.22721 0.25954 0.05413 0.0
H1450 H 0.19381 0.27161 0.07432 0.0
H1451 H 0.21059 0.3051 0.13988 0.0
H1452 H 0.11375 0.32603 0.20206 0.0
H1453 H 0.14404 0.33094 0.17459 0.0
H1454 H 0.13361 0.30127 0.10736 0.0
C1455 C 0.20954 0.28023 0.07772 0.0
C1456 C 0.19393 0.30493 0.1324 0.0
C1457 C 0.2288 0.27316 0.06622 0.0
C1458 C 0.11457 0.31469 0.18774 0.0
C1459 C 0.13194 0.31749 0.17207 0.0
C1460 C 0.15037 0.30241 0.11455 0.0
C1461 C 0.21091 0.29701 0.09443 0.0
C1462 C 0.19108 0.30186 0.10903 0.0
C1463 C 0.13381 0.30289 0.15349 0.0
C1464 C 0.15333 0.30444 0.13797 0.0
H1465 H 0.26723 0.30796 0.09113 0.0
H1466 H 0.23345 0.32072 0.11087 0.0
H1467 H 0.1662 0.29935 0.08226 0.0
H1468 H 0.0886 0.26915 0.16398 0.0
H1469 H 0.11889 0.27408 0.13661 0.0
C1470 C 0.7662 0.2171 0.89494 0.0
C1471 C 0.76393 0.22379 0.91758 0.0
C1472 C 0.74794 0.20785 0.88331 0.0
C1473 C 0.69152 0.18226 0.88985 0.0
H1474 H 0.67915 0.21192 0.83291 0.0
C1475 C 0.60368 0.18253 0.8481 0.0
C1476 C 0.6022 0.18402 0.8245 0.0
C1477 C 0.62468 0.18285 0.85879 0.0
C1478 C 0.68253 0.20303 0.84849 0.0
H1479 H 0.74106 0.22492 0.94612 0.0
H1480 H 0.70913 0.20879 0.92574 0.0
H1481 H 0.71379 0.22035 0.853 0.0
H1482 H 0.62153 0.18534 0.79349 0.0
H1483 H 0.65817 0.18519 0.81207 0.0
H1484 H 0.66006 0.16511 0.88543 0.0
C1485 C 0.72507 0.21065 0.91703 0.0
C1486 C 0.70241 0.20794 0.86006 0.0
C1487 C 0.74332 0.22003 0.92865 0.0
C1488 C 0.62213 0.18449 0.81173 0.0
C1489 C 0.64313 0.18453 0.82241 0.0
C1490 C 0.67166 0.17717 0.87816 0.0
C1491 C 0.72705 0.20498 0.8941 0.0
C1492 C 0.70695 0.1979 0.88102 0.0
C1493 C 0.64465 0.18441 0.84609 0.0
C1494 C 0.66674 0.1878 0.85751 0.0
H1495 H 0.7819 0.21961 0.88595 0.0
H1496 H 0.75001 0.20337 0.86571 0.0
H1497 H 0.69472 0.17411 0.90588 0.0
H1498 H 0.58861 0.18217 0.8584 0.0
H1499 H 0.62514 0.18297 0.87705 0.0
C1500 C 0.74141 0.78446 0.4246 0.0
C1501 C 0.73882 0.76583 0.439 0.0
C1502 C 0.76272 0.79044 0.41656 0.0
C1503 C 0.81616 0.76266 0.40342 0.0
H1504 H 0.83479 0.82292 0.38633 0.0
C1505 C 0.89725 0.77912 0.3519 0.0
C1506 C 0.89513 0.79459 0.33407 0.0
C1507 C 0.88005 0.77685 0.36786 0.0
C1508 C 0.82976 0.80598 0.39093 0.0
H1509 H 0.75682 0.74034 0.45813 0.0
H1510 H 0.79403 0.75101 0.44434 0.0
H1511 H 0.8018 0.81791 0.41045 0.0
H1512 H 0.87325 0.81978 0.319 0.0
H1513 H 0.84319 0.81556 0.3466 0.0
H1514 H 0.84368 0.75067 0.38343 0.0
C1515 C 0.77952 0.76061 0.43878 0.0
C1516 C 0.81091 0.80312 0.40479 0.0
C1517 C 0.7582 0.7546 0.44679 0.0
C1518 C 0.87545 0.80771 0.33254 0.0
C1519 C 0.85829 0.80546 0.34849 0.0
C1520 C 0.835 0.76552 0.3896 0.0
C1521 C 0.7819 0.77798 0.42283 0.0
C1522 C 0.80362 0.7814 0.41082 0.0
C1523 C 0.86039 0.79002 0.36635 0.0
C1524 C 0.84173 0.78718 0.3828 0.0
H1525 H 0.72686 0.79358 0.41838 0.0
H1526 H 0.76391 0.80387 0.40425 0.0
H1527 H 0.81082 0.74566 0.4074 0.0
H1528 H 0.91224 0.76884 0.35363 0.0
H1529 H 0.88224 0.76492 0.38151 0.0
C1530 C 0.39875 0.68501 0.68462 0.0
C1531 C 0.41717 0.69905 0.67968 0.0
C1532 C 0.38009 0.68423 0.67025 0.0
C1533 C 0.35166 0.71879 0.62684 0.0
H1534 H 0.31399 0.66572 0.62038 0.0
C1535 C 0.27099 0.72 0.57304 0.0
C1536 C 0.25154 0.71218 0.58412 0.0
C1537 C 0.29237 0.71583 0.582 0.0
C1538 C 0.32437 0.68065 0.62206 0.0
H1539 H 0.43108 0.72226 0.65512 0.0
H1540 H 0.39885 0.72037 0.62965 0.0
H1541 H 0.34993 0.66291 0.64036 0.0
H1542 H 0.2394 0.69284 0.61268 0.0
H1543 H 0.27683 0.68544 0.62824 0.0
H1544 H 0.32608 0.7365 0.60859 0.0
C1545 C 0.39847 0.71048 0.64499 0.0
C1546 C 0.34492 0.6791 0.63356 0.0
C1547 C 0.41702 0.71146 0.65951 0.0
C1548 C 0.25403 0.69917 0.60378 0.0
C1549 C 0.27546 0.69483 0.61263 0.0
C1550 C 0.33127 0.72027 0.61515 0.0
C1551 C 0.37951 0.69728 0.65044 0.0
C1552 C 0.35867 0.69825 0.63642 0.0
C1553 C 0.29481 0.70357 0.60211 0.0
C1554 C 0.31726 0.70131 0.61293 0.0
H1555 H 0.3983 0.67529 0.70008 0.0
H1556 H 0.36574 0.6741 0.67521 0.0
H1557 H 0.3615 0.73401 0.62904 0.0
H1558 H 0.26971 0.73001 0.55781 0.0
H1559 H 0.30701 0.72255 0.57339 0.0
C1560 C 0.80367 0.86855 0.67401 0.0
C1561 C 0.81596 0.88881 0.67373 0.0
C1562 C 0.81482 0.84782 0.67562 0.0
C1563 C 0.87153 0.82037 0.67278 0.0
H1564 H 0.84476 0.77899 0.7157 0.0
C1565 C 0.92071 0.74799 0.71673 0.0
C1566 C 0.90931 0.72745 0.71993 0.0
C1567 C 0.90939 0.7667 0.70782 0.0
C1568 C 0.85233 0.79018 0.70342 0.0
H1569 H 0.84964 0.90309 0.67362 0.0
H1570 H 0.86898 0.86712 0.67691 0.0
H1571 H 0.82463 0.8131 0.70527 0.0
H1572 H 0.8773 0.71027 0.71546 0.0
H1573 H 0.85768 0.74281 0.69996 0.0
H1574 H 0.89962 0.79758 0.67162 0.0
C1575 C 0.85077 0.86711 0.67561 0.0
C1576 C 0.84074 0.80975 0.69735 0.0
C1577 C 0.83964 0.88781 0.67383 0.0
C1578 C 0.88658 0.72586 0.71338 0.0
C1579 C 0.87528 0.74454 0.70457 0.0
C1580 C 0.88322 0.80081 0.67898 0.0
C1581 C 0.83849 0.84688 0.67715 0.0
C1582 C 0.85023 0.82521 0.68209 0.0
C1583 C 0.88643 0.76528 0.70202 0.0
C1584 C 0.87379 0.78558 0.6945 0.0
H1585 H 0.78541 0.86872 0.67368 0.0
H1586 H 0.80483 0.83255 0.67622 0.0
H1587 H 0.87924 0.83173 0.66076 0.0
H1588 H 0.93823 0.74977 0.72158 0.0
H1589 H 0.91841 0.7825 0.7062 0.0
C1590 C 0.67804 0.12894 0.18676 0.0
C1591 C 0.66918 0.11022 0.19829 0.0
C1592 C 0.66547 0.14876 0.18462 0.0
C1593 C 0.60776 0.17254 0.18916 0.0
H1594 H 0.63956 0.22781 0.20351 0.0
C1595 C 0.56355 0.2546 0.2177 0.0
C1596 C 0.57422 0.27537 0.2136 0.0
C1597 C 0.57349 0.23441 0.21059 0.0
C1598 C 0.63043 0.21267 0.19894 0.0
H1599 H 0.63984 0.09745 0.21599 0.0
H1600 H 0.61798 0.13212 0.21241 0.0
H1601 H 0.66023 0.19257 0.20147 0.0
H1602 H 0.60239 0.29138 0.1967 0.0
H1603 H 0.61934 0.25628 0.1837 0.0
H1604 H 0.57783 0.19271 0.18706 0.0
C1605 C 0.6346 0.1314 0.20487 0.0
C1606 C 0.64233 0.19239 0.19784 0.0
C1607 C 0.64721 0.11157 0.20706 0.0
C1608 C 0.5939 0.27565 0.20041 0.0
C1609 C 0.60373 0.25549 0.19313 0.0
C1610 C 0.59583 0.19291 0.19016 0.0
C1611 C 0.64371 0.15033 0.19389 0.0
C1612 C 0.63111 0.17203 0.19327 0.0
C1613 C 0.59421 0.23457 0.19902 0.0
C1614 C 0.60697 0.21321 0.19539 0.0
H1615 H 0.69485 0.12844 0.17964 0.0
H1616 H 0.67286 0.16294 0.1758 0.0
H1617 H 0.59868 0.15717 0.18531 0.0
H1618 H 0.54834 0.25375 0.22778 0.0
H1619 H 0.56567 0.21867 0.2155 0.0
C1620 C 0.43367 0.72401 0.26896 0.0
C1621 C 0.42337 0.74411 0.27623 0.0
C1622 C 0.4241 0.70316 0.27411 0.0
C1623 C 0.38273 0.67354 0.30977 0.0
H1624 H 0.37228 0.6379 0.2559 0.0
C1625 C 0.31451 0.60449 0.30476 0.0
C1626 C 0.31776 0.58616 0.2901 0.0
C1627 C 0.33039 0.62184 0.30588 0.0
C1628 C 0.37545 0.64726 0.27126 0.0
H1629 H 0.39588 0.758 0.29598 0.0
H1630 H 0.37918 0.72145 0.30501 0.0
H1631 H 0.39525 0.67165 0.25366 0.0
H1632 H 0.3408 0.57083 0.26621 0.0
H1633 H 0.36891 0.60067 0.26872 0.0
H1634 H 0.3628 0.64916 0.32738 0.0
C1635 C 0.39464 0.72191 0.2953 0.0
C1636 C 0.38858 0.6667 0.26993 0.0
C1637 C 0.40414 0.74284 0.29001 0.0
C1638 C 0.3377 0.58494 0.27742 0.0
C1639 C 0.35375 0.60211 0.27879 0.0
C1640 C 0.36977 0.65388 0.31118 0.0
C1641 C 0.40415 0.70194 0.28678 0.0
C1642 C 0.39207 0.68022 0.28907 0.0
C1643 C 0.35003 0.62108 0.29258 0.0
C1644 C 0.36564 0.64071 0.29184 0.0
H1645 H 0.44861 0.72436 0.25847 0.0
H1646 H 0.43192 0.68798 0.26758 0.0
H1647 H 0.38532 0.68361 0.3248 0.0
H1648 H 0.29927 0.60589 0.31473 0.0
H1649 H 0.32676 0.63627 0.31647 0.0
C1650 C 0.07026 0.26938 0.77863 0.0
C1651 C 0.08027 0.24892 0.78522 0.0
C1652 C 0.08072 0.28993 0.78352 0.0
C1653 C 0.12401 0.31754 0.81879 0.0
H1654 H 0.13223 0.35618 0.76671 0.0
C1655 C 0.19126 0.38795 0.81597 0.0
C1656 C 0.18711 0.4072 0.80282 0.0
C1657 C 0.17586 0.3701 0.81622 0.0
C1658 C 0.12975 0.34593 0.78161 0.0
H1659 H 0.10844 0.23406 0.80321 0.0
H1660 H 0.12658 0.26998 0.81192 0.0
H1661 H 0.10909 0.32254 0.76347 0.0
H1662 H 0.163 0.42345 0.78066 0.0
H1663 H 0.13578 0.39271 0.78167 0.0
H1664 H 0.14469 0.34091 0.83695 0.0
C1665 C 0.11068 0.2701 0.80292 0.0
C1666 C 0.1165 0.32656 0.7797 0.0
C1667 C 0.10034 0.24952 0.79783 0.0
C1668 C 0.16679 0.40869 0.79073 0.0
C1669 C 0.15126 0.39098 0.79121 0.0
C1670 C 0.13709 0.33709 0.82079 0.0
C1671 C 0.10127 0.29048 0.79532 0.0
C1672 C 0.11374 0.31199 0.79816 0.0
C1673 C 0.1558 0.37121 0.80354 0.0
C1674 C 0.14041 0.35137 0.80212 0.0
H1675 H 0.05478 0.26953 0.76892 0.0
H1676 H 0.07297 0.30541 0.77767 0.0
H1677 H 0.122 0.30671 0.83335 0.0
H1678 H 0.20681 0.38627 0.82541 0.0
H1679 H 0.18014 0.35509 0.82568 0.0
C1680 C 0.6976 0.83302 0.90108 0.0
C1681 C 0.71416 0.83411 0.91802 0.0
C1682 C 0.69766 0.84843 0.8833 0.0
C1683 C 0.73775 0.88352 0.85217 0.0
H1684 H 0.68418 0.9029 0.82 0.0
C1685 C 0.74496 0.93075 0.76829 0.0
C1686 C 0.73168 0.92198 0.75069 0.0
C1687 C 0.74072 0.92474 0.79064 0.0
C1688 C 0.69928 0.8976 0.82882 0.0
H1689 H 0.74274 0.85323 0.93049 0.0
H1690 H 0.74264 0.88037 0.89959 0.0
H1691 H 0.68042 0.88436 0.85663 0.0
H1692 H 0.70273 0.90103 0.74289 0.0
H1693 H 0.6955 0.89029 0.78195 0.0
H1694 H 0.75659 0.89612 0.82422 0.0
C1695 C 0.72992 0.86726 0.89979 0.0
C1696 C 0.69714 0.887 0.84978 0.0
C1697 C 0.72993 0.85177 0.91754 0.0
C1698 C 0.71333 0.908 0.75605 0.0
C1699 C 0.70909 0.90196 0.77845 0.0
C1700 C 0.73988 0.89416 0.83131 0.0
C1701 C 0.7142 0.86536 0.88211 0.0
C1702 C 0.71634 0.87939 0.86146 0.0
C1703 C 0.72311 0.90982 0.79592 0.0
C1704 C 0.72067 0.90091 0.81918 0.0
H1705 H 0.68513 0.81968 0.90099 0.0
H1706 H 0.68543 0.84631 0.86989 0.0
H1707 H 0.75288 0.87753 0.86046 0.0
H1708 H 0.75907 0.9418 0.76478 0.0
H1709 H 0.75157 0.93138 0.80376 0.0
C1710 C 0.7513 0.07754 0.27322 0.0
C1711 C 0.7666 0.0758 0.25519 0.0
C1712 C 0.75819 0.08625 0.29403 0.0
C1713 C 0.80004 0.12504 0.31763 0.0
H1714 H 0.7766 0.10419 0.37499 0.0
C1715 C 0.81877 0.17331 0.3999 0.0
C1716 C 0.80003 0.17705 0.41393 0.0
C1717 C 0.81763 0.1576 0.38231 0.0
C1718 C 0.78323 0.11027 0.3591 0.0
H1719 H 0.80146 0.08076 0.24529 0.0
H1720 H 0.81348 0.09594 0.28165 0.0
H1721 H 0.76925 0.08241 0.34079 0.0
H1722 H 0.76576 0.16648 0.42111 0.0
H1723 H 0.76366 0.13945 0.39034 0.0
H1724 H 0.81333 0.15328 0.33567 0.0
C1725 C 0.79607 0.09083 0.27957 0.0
C1726 C 0.77904 0.09777 0.33952 0.0
C1727 C 0.7892 0.08203 0.25876 0.0
C1728 C 0.7805 0.16405 0.41061 0.0
C1729 C 0.77935 0.1484 0.39301 0.0
C1730 C 0.80416 0.13757 0.33717 0.0
C1731 C 0.78053 0.09347 0.29729 0.0
C1732 C 0.78705 0.10524 0.31849 0.0
C1733 C 0.79772 0.14531 0.37834 0.0
C1734 C 0.79545 0.13058 0.3581 0.0
H1735 H 0.73378 0.07284 0.27109 0.0
H1736 H 0.74574 0.08824 0.30724 0.0
H1737 H 0.80618 0.13145 0.30167 0.0
H1738 H 0.83413 0.18294 0.40209 0.0
H1739 H 0.83223 0.15537 0.37157 0.0
C1740 C 0.18171 0.68091 0.10022 0.0
C1741 C 0.20135 0.68244 0.08703 0.0
C1742 C 0.18026 0.6652 0.11771 0.0
C1743 C 0.20633 0.61339 0.14085 0.0
H1744 H 0.1871 0.63751 0.19856 0.0
C1745 C 0.23209 0.57379 0.22528 0.0
C1746 C 0.21714 0.57463 0.24366 0.0
C1747 C 0.22662 0.58418 0.2049 0.0
C1748 C 0.19207 0.63031 0.18252 0.0
H1749 H 0.23446 0.66801 0.0812 0.0
H1750 H 0.23195 0.64068 0.11177 0.0
H1751 H 0.1839 0.66064 0.16481 0.0
H1752 H 0.18428 0.58628 0.25472 0.0
H1753 H 0.17462 0.60432 0.21894 0.0
H1754 H 0.21497 0.58322 0.15866 0.0
C1755 C 0.21763 0.65155 0.10853 0.0
C1756 C 0.19026 0.6436 0.16316 0.0
C1757 C 0.21913 0.66733 0.09111 0.0
C1758 C 0.19622 0.58544 0.24093 0.0
C1759 C 0.19074 0.59586 0.22047 0.0
C1760 C 0.20806 0.60006 0.1602 0.0
C1761 C 0.19835 0.65059 0.12228 0.0
C1762 C 0.19784 0.63547 0.14221 0.0
C1763 C 0.20604 0.59564 0.20234 0.0
C1764 C 0.20145 0.60856 0.18135 0.0
H1765 H 0.16765 0.69224 0.09743 0.0
H1766 H 0.16509 0.66468 0.12786 0.0
H1767 H 0.21197 0.60655 0.12487 0.0
H1768 H 0.24834 0.56558 0.22676 0.0
H1769 H 0.23896 0.58394 0.19144 0.0
C1770 C 0.28347 0.3801 0.76545 0.0
C1771 C 0.27869 0.40327 0.76379 0.0
C1772 C 0.29147 0.36814 0.74682 0.0
C1773 C 0.31832 0.37364 0.69109 0.0
H1774 H 0.28544 0.31881 0.67743 0.0
C1775 C 0.31859 0.33184 0.6032 0.0
C1776 C 0.31468 0.30854 0.60151 0.0
C1777 C 0.31874 0.34244 0.62425 0.0
C1778 C 0.29523 0.33376 0.68118 0.0
H1779 H 0.27941 0.43223 0.74148 0.0
H1780 H 0.2935 0.41124 0.70884 0.0
H1781 H 0.27702 0.33946 0.71177 0.0
H1782 H 0.31001 0.27772 0.62056 0.0
H1783 H 0.31111 0.29605 0.65738 0.0
H1784 H 0.3365 0.36798 0.6604 0.0
C1785 C 0.29105 0.40241 0.72464 0.0
C1786 C 0.29028 0.34567 0.70086 0.0
C1787 C 0.28286 0.41438 0.74328 0.0
C1788 C 0.3127 0.29577 0.62135 0.0
C1789 C 0.31317 0.30633 0.64243 0.0
C1790 C 0.32347 0.36157 0.67146 0.0
C1791 C 0.29504 0.37908 0.72613 0.0
C1792 C 0.30154 0.36589 0.70588 0.0
C1793 C 0.31529 0.32992 0.64411 0.0
C1794 C 0.31174 0.34163 0.66608 0.0
H1795 H 0.28058 0.37102 0.78103 0.0
H1796 H 0.29465 0.35023 0.74853 0.0
H1797 H 0.32743 0.38906 0.69469 0.0
H1798 H 0.32016 0.34215 0.58821 0.0
H1799 H 0.32025 0.36063 0.62479 0.0
C1800 C 0.90688 0.71655 0.82645 0.0
C1801 C 0.90937 0.69759 0.81245 0.0
C1802 C 0.88958 0.71749 0.84239 0.0
C1803 C 0.8333 0.69435 0.85391 0.0
H1804 H 0.84165 0.72361 0.91185 0.0
C1805 C 0.75947 0.70728 0.91637 0.0
C1806 C 0.75778 0.72912 0.92546 0.0
C1807 C 0.77896 0.70057 0.90485 0.0
C1808 C 0.83904 0.71545 0.8957 0.0
H1809 H 0.89604 0.66442 0.80466 0.0
H1810 H 0.86584 0.66603 0.83264 0.0
H1811 H 0.87417 0.71684 0.88758 0.0
H1812 H 0.77553 0.76078 0.9302 0.0
H1813 H 0.80931 0.74914 0.9101 0.0
H1814 H 0.7981 0.6934 0.86182 0.0
C1815 C 0.87715 0.68028 0.83108 0.0
C1816 C 0.85766 0.71158 0.88179 0.0
C1817 C 0.89452 0.67932 0.81513 0.0
C1818 C 0.77624 0.74384 0.92338 0.0
C1819 C 0.7957 0.73711 0.91198 0.0
C1820 C 0.81467 0.69819 0.86784 0.0
C1821 C 0.87433 0.6995 0.84472 0.0
C1822 C 0.85495 0.70141 0.86053 0.0
C1823 C 0.7972 0.71551 0.90233 0.0
C1824 C 0.81727 0.7092 0.88869 0.0
H1825 H 0.91804 0.73091 0.82485 0.0
H1826 H 0.88773 0.73268 0.85239 0.0
H1827 H 0.83057 0.68671 0.83753 0.0
H1828 H 0.74559 0.6955 0.91773 0.0
H1829 H 0.77969 0.68373 0.89779 0.0
C1830 C 0.2418 0.76939 0.11423 0.0
C1831 C 0.24006 0.76835 0.0906 0.0
C1832 C 0.2624 0.77437 0.12454 0.0
C1833 C 0.30599 0.794 0.14277 0.0
H1834 H 0.3586 0.7641 0.11798 0.0
C1835 C 0.39397 0.80253 0.18398 0.0
C1836 C 0.40643 0.78246 0.18602 0.0
C1837 C 0.37458 0.80329 0.17055 0.0
C1838 C 0.34407 0.77253 0.12516 0.0
H1839 H 0.25842 0.77273 0.05926 0.0
H1840 H 0.29431 0.78174 0.07729 0.0
H1841 H 0.32261 0.7614 0.09837 0.0
H1842 H 0.40853 0.74758 0.17513 0.0
H1843 H 0.37466 0.74882 0.15203 0.0
H1844 H 0.32724 0.80429 0.17008 0.0
C1845 C 0.27982 0.7783 0.08785 0.0
C1846 C 0.32348 0.77123 0.11375 0.0
C1847 C 0.2592 0.77328 0.07751 0.0
C1848 C 0.39937 0.76334 0.17392 0.0
C1849 C 0.37999 0.76409 0.16053 0.0
C1850 C 0.32658 0.79527 0.1542 0.0
C1851 C 0.28177 0.77849 0.1115 0.0
C1852 C 0.30409 0.78165 0.12259 0.0
C1853 C 0.36721 0.784 0.15885 0.0
C1854 C 0.3458 0.78425 0.14572 0.0
H1855 H 0.22742 0.76566 0.12483 0.0
H1856 H 0.26331 0.7741 0.14279 0.0
H1857 H 0.29147 0.80246 0.14992 0.0
H1858 H 0.39901 0.8176 0.193 0.0
H1859 H 0.36531 0.81898 0.16939 0.0
C1860 C 0.20729 0.25148 0.56757 0.0
C1861 C 0.2241 0.23478 0.56774 0.0
C1862 C 0.18692 0.24803 0.57882 0.0
C1863 C 0.15149 0.20508 0.60777 0.0
H1864 H 0.13442 0.2561 0.645 0.0
C1865 C 0.09439 0.19795 0.68655 0.0
C1866 C 0.07926 0.21567 0.69091 0.0
C1867 C 0.10958 0.19937 0.66858 0.0
C1868 C 0.13867 0.2418 0.63445 0.0
H1869 H 0.23219 0.20082 0.57865 0.0
H1870 H 0.19682 0.19497 0.59871 0.0
H1871 H 0.16502 0.26004 0.61815 0.0
H1872 H 0.06748 0.24829 0.67924 0.0
H1873 H 0.09386 0.25068 0.64788 0.0
H1874 H 0.1254 0.1867 0.62473 0.0
C1875 C 0.19925 0.21064 0.58967 0.0
C1876 C 0.15622 0.24407 0.61899 0.0
C1877 C 0.21959 0.21404 0.57825 0.0
C1878 C 0.0791 0.23446 0.6765 0.0
C1879 C 0.09425 0.23587 0.65855 0.0
C1880 C 0.1339 0.2028 0.62333 0.0
C1881 C 0.18298 0.22788 0.59065 0.0
C1882 C 0.16301 0.22569 0.60561 0.0
C1883 C 0.10992 0.21852 0.65463 0.0
C1884 C 0.12747 0.22109 0.63699 0.0
H1885 H 0.21013 0.26753 0.55935 0.0
H1886 H 0.17452 0.26143 0.57881 0.0
H1887 H 0.15615 0.19068 0.59754 0.0
H1888 H 0.09487 0.1832 0.69731 0.0
H1889 H 0.12159 0.18582 0.66613 0.0
C1890 C 0.59903 0.30777 0.341 0.0
C1891 C 0.59706 0.30301 0.31786 0.0
C1892 C 0.61863 0.302 0.35278 0.0
C1893 C 0.66969 0.26597 0.34909 0.0
H1894 H 0.6943 0.30862 0.3922 0.0
C1895 C 0.7603 0.2589 0.38266 0.0
C1896 C 0.76324 0.26113 0.40607 0.0
C1897 C 0.73966 0.26419 0.37265 0.0
C1898 C 0.6875 0.29647 0.38036 0.0
H1899 H 0.61405 0.28829 0.28896 0.0
H1900 H 0.64828 0.27867 0.30931 0.0
H1901 H 0.65854 0.31688 0.37352 0.0
H1902 H 0.74704 0.27129 0.43729 0.0
H1903 H 0.71098 0.28074 0.41969 0.0
H1904 H 0.6989 0.24581 0.35561 0.0
C1905 C 0.63458 0.28647 0.31853 0.0
C1906 C 0.66699 0.30114 0.36971 0.0
C1907 C 0.61497 0.29212 0.30681 0.0
C1908 C 0.74529 0.26937 0.4192 0.0
C1909 C 0.72468 0.27485 0.40914 0.0
C1910 C 0.69025 0.2614 0.3596 0.0
C1911 C 0.63671 0.29144 0.34163 0.0
C1912 C 0.65794 0.28602 0.35381 0.0
C1913 C 0.72158 0.27199 0.38581 0.0
C1914 C 0.69945 0.27668 0.3752 0.0
H1915 H 0.58548 0.31606 0.35003 0.0
H1916 H 0.61959 0.30577 0.37063 0.0
H1917 H 0.66299 0.25374 0.33728 0.0
H1918 H 0.77378 0.25262 0.37206 0.0
H1919 H 0.73784 0.26213 0.35458 0.0
C1920 C 0.01267 0.29484 0.16604 0.0
C1921 C 0.0085 0.29144 0.18909 0.0
C1922 C 0.99631 0.2895 0.15004 0.0
C1923 C 0.93573 0.28876 0.14455 0.0
H1924 H 0.9482 0.26351 0.08549 0.0
C1925 C 0.86791 0.28345 0.07456 0.0
C1926 C 0.87495 0.28807 0.0524 0.0
C1927 C 0.88367 0.28134 0.09195 0.0
C1928 C 0.9445 0.27078 0.10183 0.0
H1929 H 0.98448 0.2788 0.21353 0.0
H1930 H 0.95551 0.26969 0.18538 0.0
H1931 H 0.97705 0.26199 0.11483 0.0
H1932 H 0.90399 0.29467 0.0312 0.0
H1933 H 0.93145 0.29163 0.06163 0.0
H1934 H 0.90356 0.2984 0.1314 0.0
C1935 C 0.97154 0.27641 0.17978 0.0
C1936 C 0.96095 0.26973 0.11866 0.0
C1937 C 0.98814 0.28142 0.19582 0.0
C1938 C 0.89803 0.29104 0.04808 0.0
C1939 C 0.91379 0.28906 0.06549 0.0
C1940 C 0.91932 0.28995 0.12767 0.0
C1941 C 0.97531 0.28094 0.1568 0.0
C1942 C 0.95686 0.27906 0.14005 0.0
C1943 C 0.90682 0.28391 0.08759 0.0
C1944 C 0.92367 0.28135 0.10598 0.0
H1945 H 0.02828 0.30252 0.16046 0.0
H1946 H -0.00038 0.29334 0.13249 0.0
H1947 H 0.93226 0.29641 0.16078 0.0
H1948 H 0.85025 0.2809 0.07844 0.0
H1949 H 0.87773 0.27716 0.1087 0.0
C1950 C 0.60687 0.76985 0.55173 0.0
C1951 C 0.62915 0.76303 0.55607 0.0
C1952 C 0.59081 0.7699 0.56899 0.0
C1953 C 0.58302 0.76285 0.63123 0.0
H1954 H 0.52835 0.73208 0.6128 0.0
C1955 C 0.51504 0.69806 0.67106 0.0
C1956 C 0.50889 0.70864 0.69135 0.0
C1957 C 0.52743 0.70961 0.65481 0.0
C1958 C 0.54346 0.74081 0.61822 0.0
H1959 H 0.65241 0.75245 0.58227 0.0
H1960 H 0.62439 0.75199 0.61215 0.0
H1961 H 0.55496 0.74465 0.58436 0.0
H1962 H 0.51078 0.73982 0.71042 0.0
H1963 H 0.53279 0.76008 0.68185 0.0
H1964 H 0.57194 0.75766 0.66527 0.0
C1965 C 0.61929 0.75759 0.59553 0.0
C1966 C 0.55863 0.74829 0.60188 0.0
C1967 C 0.63536 0.75768 0.57831 0.0
C1968 C 0.51527 0.73121 0.69494 0.0
C1969 C 0.52791 0.74277 0.67865 0.0
C1970 C 0.56779 0.75533 0.64762 0.0
C1971 C 0.59665 0.76299 0.59093 0.0
C1972 C 0.57894 0.75877 0.60819 0.0
C1973 C 0.53409 0.73205 0.65841 0.0
C1974 C 0.54824 0.74354 0.64127 0.0
H1975 H 0.60161 0.77437 0.53482 0.0
H1976 H 0.57363 0.7746 0.56496 0.0
H1977 H 0.59835 0.77118 0.63665 0.0
H1978 H 0.5104 0.68071 0.6677 0.0
H1979 H 0.53226 0.70072 0.63958 0.0
C1980 C 0.35553 0.18128 0.93772 0.0
C1981 C 0.36308 0.18468 0.95995 0.0
C1982 C 0.37086 0.18054 0.9199 0.0
C1983 C 0.43093 0.17421 0.90527 0.0
H1984 H 0.41608 0.21449 0.8559 0.0
C1985 C 0.49735 0.20195 0.84052 0.0
C1986 C 0.49074 0.2034 0.81782 0.0
C1987 C 0.48132 0.19848 0.85738 0.0
C1988 C 0.42036 0.20289 0.86934 0.0
H1989 H 0.39273 0.18846 0.98108 0.0
H1990 H 0.41951 0.18707 0.9499 0.0
H1991 H 0.38893 0.20851 0.88611 0.0
H1992 H 0.46241 0.20419 0.79509 0.0
H1993 H 0.43418 0.19702 0.82435 0.0
H1994 H 0.46238 0.16859 0.88856 0.0
C1995 C 0.40173 0.18501 0.9463 0.0
C1996 C 0.40479 0.19946 0.88665 0.0
C1997 C 0.38638 0.18586 0.96414 0.0
C1998 C 0.46781 0.20219 0.81238 0.0
C1999 C 0.45173 0.19852 0.82919 0.0
C2000 C 0.44645 0.17751 0.88788 0.0
C2001 C 0.39405 0.18303 0.92395 0.0
C2002 C 0.41001 0.18526 0.90489 0.0
C2003 C 0.45835 0.19637 0.85189 0.0
C2004 C 0.44145 0.1921 0.86985 0.0
H2005 H 0.33769 0.18014 0.93393 0.0
H2006 H 0.36453 0.17861 0.90286 0.0
H2007 H 0.43529 0.163 0.91902 0.0
H2008 H 0.51497 0.20306 0.84524 0.0
H2009 H 0.48696 0.19749 0.87473 0.0
C2010 C 0.12809 0.78786 0.44441 0.0
C2011 C 0.12067 0.78083 0.46577 0.0
C2012 C 0.11267 0.79184 0.42712 0.0
C2013 C 0.05276 0.80344 0.41543 0.0
H2014 H 0.06869 0.78254 0.35548 0.0
C2015 C 0.99138 0.80786 0.3396 0.0
C2016 C 0.00057 0.81592 0.31927 0.0
C2017 C 0.00537 0.80274 0.35786 0.0
C2018 C 0.06408 0.78861 0.37209 0.0
H2019 H 0.09122 0.77288 0.48593 0.0
H2020 H 0.06418 0.77967 0.45552 0.0
H2021 H 0.09417 0.77544 0.38691 0.0
H2022 H 0.03171 0.82476 0.30218 0.0
H2023 H 0.05603 0.81587 0.33404 0.0
H2024 H 0.02263 0.81663 0.40047 0.0
C2025 C 0.08196 0.78228 0.45226 0.0
C2026 C 0.07868 0.78459 0.39009 0.0
C2027 C 0.09743 0.77834 0.46964 0.0
C2028 C 0.02406 0.81858 0.31757 0.0
C2029 C 0.03803 0.81336 0.33578 0.0
C2030 C 0.0381 0.80742 0.39739 0.0
C2031 C 0.08947 0.7888 0.43073 0.0
C2032 C 0.07333 0.79221 0.41191 0.0
C2033 C 0.02883 0.80545 0.35613 0.0
C2034 C 0.04376 0.80027 0.3755 0.0
H2035 H 0.14587 0.79013 0.44092 0.0
H2036 H 0.11897 0.79732 0.41087 0.0
H2037 H 0.04826 0.8097 0.43199 0.0
H2038 H 0.97336 0.8056 0.34149 0.0
H2039 H 0.99784 0.79647 0.37328 0.0
C2040 C 0.18593 0.98596 0.25841 0.0
C2041 C 0.19592 0.97812 0.27845 0.0
C2042 C 0.17023 0.97268 0.24686 0.0
C2043 C 0.12625 0.94858 0.23653 0.0
H2044 H 0.12941 0.88332 0.23885 0.0
C2045 C 0.04786 0.89335 0.24009 0.0
C2046 C 0.04833 0.87122 0.23166 0.0
C2047 C 0.06698 0.90694 0.23899 0.0
C2048 C 0.12837 0.9015 0.23753 0.0
H2049 H 0.19743 0.95003 0.30188 0.0
H2050 H 0.16978 0.92728 0.28221 0.0
H2051 H 0.16222 0.90554 0.24925 0.0
H2052 H 0.06877 0.84647 0.21408 0.0
H2053 H 0.10222 0.8704 0.21189 0.0
H2054 H 0.09237 0.94453 0.22487 0.0
C2055 C 0.17441 0.94341 0.27502 0.0
C2056 C 0.14711 0.91426 0.24384 0.0
C2057 C 0.19016 0.95659 0.28646 0.0
C2058 C 0.06798 0.86337 0.22098 0.0
C2059 C 0.08715 0.87705 0.21978 0.0
C2060 C 0.10758 0.93581 0.23 0.0
C2061 C 0.16413 0.95133 0.25517 0.0
C2062 C 0.14594 0.93794 0.24435 0.0
C2063 C 0.08702 0.8988 0.22928 0.0
C2064 C 0.10811 0.91215 0.23137 0.0
H2065 H 0.19015 0.0024 0.25167 0.0
H2066 H 0.16279 0.97918 0.2315 0.0
H2067 H 0.12473 0.96678 0.23669 0.0
H2068 H 0.03297 0.89997 0.24834 0.0
H2069 H 0.06632 0.92343 0.24681 0.0
C2070 C 0.42967 0.12748 0.79114 0.0
C2071 C 0.42374 0.14852 0.78203 0.0
C2072 C 0.4135 0.11052 0.79344 0.0
C2073 C 0.36 0.09148 0.76895 0.0
H2074 H 0.35895 0.05176 0.82082 0.0
C2075 C 0.29398 0.01978 0.78282 0.0
C2076 C 0.30218 6e-05 0.79305 0.0
C2077 C 0.30817 0.03849 0.78009 0.0
C2078 C 0.35919 0.06255 0.80609 0.0
H2079 H 0.39599 0.16858 0.76903 0.0
H2080 H 0.36778 0.13896 0.7732 0.0
H2081 H 0.38433 0.084 0.82056 0.0
H2082 H 0.33186 0.98362 0.80662 0.0
H2083 H 0.35665 0.01581 0.80127 0.0
H2084 H 0.33497 0.06977 0.75439 0.0
C2085 C 0.38498 0.13553 0.7783 0.0
C2086 C 0.37368 0.08106 0.806 0.0
C2087 C 0.40112 0.15255 0.77612 0.0
C2088 C 0.32506 -0.00126 0.79894 0.0
C2089 C 0.33919 0.01725 0.79607 0.0
C2090 C 0.34549 0.07287 0.76901 0.0
C2091 C 0.39109 0.11422 0.78661 0.0
C2092 C 0.37447 0.09556 0.78732 0.0
C2093 C 0.33073 0.03761 0.78744 0.0
C2094 C 0.34522 0.05801 0.78745 0.0
H2095 H 0.44694 0.12385 0.79584 0.0
H2096 H 0.41876 0.09422 0.79976 0.0
H2097 H 0.36039 0.10226 0.75421 0.0
H2098 H 0.27635 0.02126 0.77826 0.0
H2099 H 0.30118 0.05395 0.77335 0.0
C2100 C 0.70138 0.51502 0.72425 0.0
C2101 C 0.69331 0.49543 0.71365 0.0
C2102 C 0.68623 0.53109 0.7326 0.0
C2103 C 0.62639 0.54054 0.74769 0.0
H2104 H 0.63533 0.59997 0.72196 0.0
C2105 C 0.55303 0.60179 0.73294 0.0
C2106 C 0.55664 0.625 0.73589 0.0
C2107 C 0.57096 0.58662 0.73453 0.0
C2108 C 0.63274 0.58363 0.7297 0.0
H2109 H 0.66337 0.47641 0.70485 0.0
H2110 H 0.63702 0.50418 0.71962 0.0
H2111 H 0.66512 0.57183 0.71897 0.0
H2112 H 0.58187 0.6505 0.74318 0.0
H2113 H 0.61313 0.62398 0.74617 0.0
H2114 H 0.5938 0.55211 0.75793 0.0
C2115 C 0.65493 0.50728 0.72144 0.0
C2116 C 0.64985 0.56753 0.72801 0.0
C2117 C 0.67 0.49146 0.71283 0.0
C2118 C 0.57855 0.63272 0.74064 0.0
C2119 C 0.59649 0.61753 0.74231 0.0
C2120 C 0.60933 0.55667 0.7495 0.0
C2121 C 0.66285 0.52754 0.73082 0.0
C2122 C 0.64656 0.54563 0.7364 0.0
C2123 C 0.59291 0.59431 0.73922 0.0
C2124 C 0.61205 0.57818 0.73991 0.0
H2125 H 0.7193 0.51847 0.72501 0.0
H2126 H 0.69274 0.54654 0.73985 0.0
H2127 H 0.62354 0.52385 0.75454 0.0
H2128 H 0.53635 0.5953 0.72924 0.0
H2129 H 0.56768 0.56889 0.73163 0.0
C2130 C 0.97337 0.39829 0.20274 0.0
C2131 C 0.97117 0.37507 0.19862 0.0
C2132 C 0.9556 0.41299 0.19789 0.0
C2133 C 0.89395 0.41279 0.19119 0.0
H2134 H 0.90311 0.47316 0.16786 0.0
C2135 C 0.81973 0.47132 0.16902 0.0
C2136 C 0.82143 0.49381 0.17636 0.0
C2137 C 0.83833 0.45693 0.17017 0.0
C2138 C 0.90033 0.4564 0.17454 0.0
H2139 H 0.94908 0.34916 0.18516 0.0
H2140 H 0.91827 0.37482 0.17639 0.0
H2141 H 0.93532 0.44782 0.17201 0.0
H2142 H 0.84416 0.51886 0.19041 0.0
H2143 H 0.87653 0.49366 0.19255 0.0
H2144 H 0.85904 0.42137 0.19388 0.0
C2145 C 0.93351 0.38163 0.18384 0.0
C2146 C 0.91876 0.4419 0.17691 0.0
C2147 C 0.95121 0.36695 0.18876 0.0
C2148 C 0.84223 0.50164 0.18464 0.0
C2149 C 0.86084 0.48725 0.18572 0.0
C2150 C 0.87555 0.42724 0.18878 0.0
C2151 C 0.93533 0.40474 0.18875 0.0
C2152 C 0.91577 0.41996 0.18536 0.0
C2153 C 0.85904 0.46472 0.17862 0.0
C2154 C 0.87856 0.44923 0.18053 0.0
H2155 H 0.98854 0.40504 0.21037 0.0
H2156 H 0.95746 0.43067 0.20205 0.0
H2157 H 0.89112 0.39615 0.19816 0.0
H2158 H 0.804 0.46473 0.16247 0.0
H2159 H 0.83651 0.43971 0.16433 0.0
C2160 C 0.27075 0.18684 0.97396 0.0
C2161 C 0.27423 0.18221 0.99689 0.0
C2162 C 0.26545 0.16929 0.95907 0.0
C2163 C 0.27729 0.10896 0.95596 0.0
H2164 H 0.24348 0.11106 0.90005 0.0
C2165 C 0.27179 0.03264 0.89632 0.0
C2166 C 0.27373 0.03697 0.87311 0.0
C2167 C 0.26959 0.05041 0.91161 0.0
C2168 C 0.25311 0.11033 0.91556 0.0
H2169 H 0.2723 0.15672 0.02291 0.0
H2170 H 0.26191 0.12634 0.99722 0.0
H2171 H 0.24061 0.14237 0.92684 0.0
H2172 H 0.27532 0.06333 0.84776 0.0
H2173 H 0.27186 0.09434 0.87455 0.0
H2174 H 0.29015 0.07728 0.94466 0.0
C2175 C 0.26413 0.14317 0.99046 0.0
C2176 C 0.25139 0.1282 0.9309 0.0
C2177 C 0.26983 0.16055 0.0052 0.0
C2178 C 0.27384 0.05943 0.86555 0.0
C2179 C 0.27163 0.0772 0.88085 0.0
C2180 C 0.27898 0.09118 0.9407 0.0
C2181 C 0.2633 0.14706 0.9671 0.0
C2182 C 0.26351 0.12768 0.95127 0.0
C2183 C 0.26932 0.07287 0.90402 0.0
C2184 C 0.267 0.09169 0.92031 0.0
H2185 H 0.2743 0.20345 0.96723 0.0
H2186 H 0.26492 0.17283 0.94116 0.0
H2187 H 0.28738 0.10829 0.97118 0.0
H2188 H 0.27149 0.01552 0.90266 0.0
H2189 H 0.26765 0.04654 0.92936 0.0
C2190 C 0.78666 0.33626 0.00676 0.0
C2191 C 0.78434 0.31279 0.00871 0.0
C2192 C 0.77419 0.35068 0.02055 0.0
C2193 C 0.75152 0.35424 0.07641 0.0
H2194 H 0.7227 0.4086 0.05426 0.0
C2195 C 0.72592 0.4254 0.13759 0.0
C2196 C 0.73196 0.44717 0.13043 0.0
C2197 C 0.72591 0.40734 0.12234 0.0
C2198 C 0.73074 0.39355 0.06077 0.0
H2199 H 0.76688 0.28591 0.02624 0.0
H2200 H 0.7455 0.31132 0.05106 0.0
H2201 H 0.73485 0.37964 0.02763 0.0
H2202 H 0.7417 0.46721 0.10141 0.0
H2203 H 0.74231 0.43592 0.07519 0.0
H2204 H 0.74897 0.36866 0.10936 0.0
C2205 C 0.75675 0.31844 0.03856 0.0
C2206 C 0.73754 0.37693 0.0455 0.0
C2207 C 0.7689 0.30397 0.02436 0.0
C2208 C 0.73697 0.45067 0.10754 0.0
C2209 C 0.73712 0.43266 0.09239 0.0
C2210 C 0.74502 0.37102 0.09168 0.0
C2211 C 0.75946 0.34192 0.03687 0.0
C2212 C 0.74858 0.35744 0.05314 0.0
C2213 C 0.73206 0.41065 0.09965 0.0
C2214 C 0.73522 0.39123 0.08398 0.0
H2215 H 0.79835 0.34349 0.99475 0.0
H2216 H 0.77677 0.3687 0.01906 0.0
H2217 H 0.76017 0.33943 0.0827 0.0
H2218 H 0.72179 0.42216 0.15508 0.0
H2219 H 0.72154 0.3907 0.12846 0.0
C2220 C 0.68531 0.65995 0.503 0.0
C2221 C 0.67014 0.67771 0.50685 0.0
C2222 C 0.68541 0.64109 0.51706 0.0
C2223 C 0.66728 0.62283 0.57403 0.0
H2224 H 0.68657 0.56455 0.55155 0.0
C2225 C 0.68705 0.52578 0.60717 0.0
C2226 C 0.69742 0.53136 0.62772 0.0
C2227 C 0.67998 0.54275 0.59239 0.0
C2228 C 0.68074 0.58055 0.55813 0.0
H2229 H 0.64257 0.68931 0.52789 0.0
H2230 H 0.64208 0.65599 0.55188 0.0
H2231 H 0.68004 0.59516 0.52522 0.0
H2232 H 0.70843 0.55902 0.64901 0.0
H2233 H 0.69707 0.58842 0.62304 0.0
H2234 H 0.66719 0.60803 0.60684 0.0
C2235 C 0.65444 0.65689 0.53848 0.0
C2236 C 0.67737 0.59829 0.54301 0.0
C2237 C 0.65461 0.67596 0.52464 0.0
C2238 C 0.70033 0.55417 0.63335 0.0
C2239 C 0.69362 0.57108 0.61848 0.0
C2240 C 0.67026 0.605 0.58909 0.0
C2241 C 0.67006 0.63934 0.53507 0.0
C2242 C 0.67118 0.61983 0.55082 0.0
C2243 C 0.68345 0.56563 0.59774 0.0
C2244 C 0.67763 0.58379 0.58142 0.0
H2245 H 0.69761 0.66088 0.48953 0.0
H2246 H 0.69803 0.62822 0.51414 0.0
H2247 H 0.66269 0.63916 0.58078 0.0
H2248 H 0.68443 0.50832 0.60248 0.0
H2249 H 0.67187 0.5379 0.57676 0.0
C2250 C 0.22675 0.78739 0.48447 0.0
C2251 C 0.20894 0.79461 0.49836 0.0
C2252 C 0.23601 0.80203 0.46842 0.0
C2253 C 0.23932 0.83189 0.42618 0.0
H2254 H 0.2439 0.89563 0.44002 0.0
C2255 C 0.23418 0.90119 0.35824 0.0
C2256 C 0.24509 0.92181 0.36215 0.0
C2257 C 0.23488 0.88412 0.3745 0.0
C2258 C 0.24321 0.87787 0.43582 0.0
H2259 H 0.18732 0.82295 0.50676 0.0
H2260 H 0.20317 0.84814 0.47889 0.0
H2261 H 0.23696 0.86896 0.47013 0.0
H2262 H 0.2667 0.94023 0.38521 0.0
H2263 H 0.26863 0.91029 0.41314 0.0
H2264 H 0.24563 0.8409 0.39177 0.0
C2265 C 0.21025 0.83137 0.48044 0.0
C2266 C 0.23893 0.86259 0.45311 0.0
C2267 C 0.20101 0.81683 0.49633 0.0
C2268 C 0.25772 0.92465 0.38198 0.0
C2269 C 0.25878 0.90749 0.39801 0.0
C2270 C 0.24381 0.84722 0.40882 0.0
C2271 C 0.22771 0.82414 0.46617 0.0
C2272 C 0.23616 0.83955 0.4484 0.0
C2273 C 0.24683 0.88726 0.3948 0.0
C2274 C 0.24516 0.87048 0.41335 0.0
H2275 H 0.23318 0.77034 0.48565 0.0
H2276 H 0.24954 0.79605 0.45771 0.0
H2277 H 0.23724 0.81423 0.42201 0.0
H2278 H 0.22437 0.89856 0.34304 0.0
H2279 H 0.22525 0.8689 0.37153 0.0
C2280 C 0.98979 0.69559 0.83091 0.0
C2281 C 0.99751 0.69584 0.80857 0.0
C2282 C 0.00412 0.70162 0.84852 0.0
C2283 C 0.06011 0.72569 0.86322 0.0
H2284 H 0.056 0.6826 0.91229 0.0
C2285 C 0.12951 0.71517 0.93111 0.0
C2286 C 0.12228 0.71274 0.95357 0.0
C2287 C 0.11396 0.71481 0.9134 0.0
C2288 C 0.05721 0.69495 0.89889 0.0
H2289 H 0.02563 0.70378 0.78674 0.0
H2290 H 0.05113 0.71388 0.81771 0.0
H2291 H 0.02913 0.68078 0.88145 0.0
H2292 H 0.09308 0.70791 0.97504 0.0
H2293 H 0.06596 0.70718 0.94411 0.0
H2294 H 0.08863 0.73948 0.88067 0.0
C2295 C 0.03386 0.70943 0.82163 0.0
C2296 C 0.04174 0.69398 0.88121 0.0
C2297 C 0.01931 0.70372 0.80389 0.0
C2298 C 0.0992 0.70969 0.95792 0.0
C2299 C 0.08367 0.70925 0.9402 0.0
C2300 C 0.07569 0.7266 0.88094 0.0
C2301 C 0.02666 0.70753 0.84419 0.0
C2302 C 0.04292 0.70937 0.86319 0.0
C2303 C 0.09088 0.7119 0.91776 0.0
C2304 C 0.07436 0.71123 0.89897 0.0
H2305 H 0.97294 0.68969 0.83482 0.0
H2306 H 0.99783 0.70062 0.86564 0.0
H2307 H 0.06141 0.73784 0.84966 0.0
H2308 H 0.14717 0.71759 0.92717 0.0
H2309 H 0.12005 0.71658 0.89627 0.0
C2310 C 0.4921 0.29779 0.31986 0.0
C2311 C 0.48479 0.30943 0.30053 0.0
C2312 C 0.47652 0.29034 0.33591 0.0
C2313 C 0.41654 0.27624 0.34317 0.0
H2314 H 0.42764 0.28825 0.40651 0.0
C2315 C 0.34696 0.26791 0.41045 0.0
C2316 C 0.353 0.25958 0.43179 0.0
C2317 C 0.36349 0.27253 0.39433 0.0
C2318 C 0.42442 0.28443 0.38894 0.0
H2319 H 0.45533 0.32224 0.28289 0.0
H2320 H 0.42831 0.30922 0.31083 0.0
H2321 H 0.45594 0.29867 0.37859 0.0
H2322 H 0.38108 0.24913 0.45281 0.0
H2323 H 0.40986 0.25676 0.42454 0.0
H2324 H 0.38507 0.26196 0.35344 0.0
C2325 C 0.44604 0.30575 0.31349 0.0
C2326 C 0.44063 0.29044 0.37295 0.0
C2327 C 0.46158 0.31334 0.29757 0.0
C2328 C 0.37588 0.25569 0.43657 0.0
C2329 C 0.3924 0.26017 0.4204 0.0
C2330 C 0.40039 0.27009 0.35916 0.0
C2331 C 0.45334 0.29421 0.33284 0.0
C2332 C 0.43674 0.28664 0.3499 0.0
C2333 C 0.38642 0.26879 0.39914 0.0
C2334 C 0.40403 0.27434 0.38221 0.0
H2335 H 0.50984 0.29449 0.32264 0.0
H2336 H 0.48258 0.28135 0.35061 0.0
H2337 H 0.41324 0.27281 0.32552 0.0
H2338 H 0.32948 0.27119 0.40629 0.0
H2339 H 0.35831 0.27948 0.37825 0.0
C2340 C 0.64018 0.75767 0.06951 0.0
C2341 C 0.63336 0.76612 0.04844 0.0
C2342 C 0.62441 0.75412 0.08664 0.0
C2343 C 0.56283 0.74899 0.09706 0.0
H2344 H 0.57815 0.77068 0.15686 0.0
C2345 C 0.49889 0.78372 0.15993 0.0
C2346 C 0.50189 0.77986 0.18309 0.0
C2347 C 0.51432 0.77528 0.14437 0.0
C2348 C 0.57376 0.76404 0.1404 0.0
H2349 H 0.60464 0.77734 0.02875 0.0
H2350 H 0.57726 0.77171 0.05875 0.0
H2351 H 0.60701 0.76958 0.12768 0.0
H2352 H 0.52263 0.7632 0.20816 0.0
H2353 H 0.55005 0.74869 0.18078 0.0
H2354 H 0.52924 0.74465 0.10958 0.0
C2355 C 0.5947 0.76735 0.06193 0.0
C2356 C 0.59029 0.76344 0.12365 0.0
C2357 C 0.61044 0.7708 0.04479 0.0
C2358 C 0.51993 0.76635 0.19036 0.0
C2359 C 0.53564 0.75817 0.17476 0.0
C2360 C 0.54628 0.74972 0.11378 0.0
C2361 C 0.6015 0.75901 0.08308 0.0
C2362 C 0.58483 0.75658 0.1016 0.0
C2363 C 0.53322 0.76303 0.15167 0.0
C2364 C 0.55144 0.7579 0.13541 0.0
H2365 H 0.65771 0.7537 0.07279 0.0
H2366 H 0.63017 0.74748 0.10266 0.0
H2367 H 0.55822 0.7431 0.08038 0.0
H2368 H 0.48503 0.79399 0.1539 0.0
H2369 H 0.51213 0.77949 0.12672 0.0
C2370 C 0.90467 0.22768 0.54734 0.0
C2371 C 0.88129 0.23104 0.54894 0.0
C2372 C 0.91829 0.2293 0.56653 0.0
C2373 C 0.91563 0.22611 0.62868 0.0
H2374 H 0.97639 0.24989 0.62449 0.0
C2375 C 0.97663 0.22303 0.70428 0.0
C2376 C 0.99661 0.21164 0.69872 0.0
C2377 C 0.96244 0.23104 0.68716 0.0
C2378 C 0.9594 0.24335 0.62593 0.0
H2379 H 0.8539 0.23911 0.57185 0.0
H2380 H 0.87766 0.24224 0.60516 0.0
H2381 H 0.9513 0.25227 0.59192 0.0
H2382 H 0.01845 0.20119 0.67135 0.0
H2383 H 0.99404 0.21548 0.64161 0.0
H2384 H 0.92395 0.21677 0.66255 0.0
C2385 C 0.88546 0.23796 0.5892 0.0
C2386 C 0.94509 0.24455 0.60725 0.0
C2387 C 0.87184 0.23621 0.57007 0.0
C2388 C 0.00302 0.20982 0.67601 0.0
C2389 C 0.98912 0.21813 0.659 0.0
C2390 C 0.9299 0.22506 0.6474 0.0
C2391 C 0.90884 0.23446 0.5877 0.0
C2392 C 0.92324 0.23539 0.60821 0.0
C2393 C 0.96835 0.22817 0.66435 0.0
C2394 C 0.95212 0.23312 0.64601 0.0
H2395 H 0.91245 0.22366 0.53131 0.0
H2396 H 0.93619 0.22611 0.56482 0.0
H2397 H 0.899 0.21869 0.62997 0.0
H2398 H 0.97133 0.22451 0.72171 0.0
H2399 H 0.94655 0.23882 0.69171 0.0
C2400 C 0.82907 0.99497 0.69925 0.0
C2401 C 0.80852 0.00196 0.68969 0.0
C2402 C 0.84702 0.01006 0.7014 0.0
C2403 C 0.86033 0.07052 0.70417 0.0
H2404 H 0.92063 0.05111 0.68788 0.0
C2405 C 0.93486 0.13262 0.7025 0.0
C2406 C 0.95534 0.12503 0.71168 0.0
C2407 C 0.91722 0.11753 0.69852 0.0
C2408 C 0.90394 0.05672 0.69271 0.0
H2409 H 0.79067 0.03042 0.67512 0.0
H2410 H 0.82201 0.05674 0.67894 0.0
H2411 H 0.88911 0.02495 0.68409 0.0
H2412 H 0.97357 0.09558 0.72345 0.0
H2413 H 0.94268 0.06931 0.71684 0.0
H2414 H 0.87511 0.10217 0.7131 0.0
C2415 C 0.82417 0.03959 0.68485 0.0
C2416 C 0.88589 0.04174 0.69053 0.0
C2417 C 0.80625 0.02447 0.68258 0.0
C2418 C 0.95802 0.10194 0.7163 0.0
C2419 C 0.94033 0.08687 0.71241 0.0
C2420 C 0.87838 0.08547 0.70645 0.0
C2421 C 0.84478 0.03251 0.69416 0.0
C2422 C 0.86391 0.04847 0.69629 0.0
C2423 C 0.91963 0.09453 0.70373 0.0
C2424 C 0.90041 0.07874 0.70078 0.0
H2425 H 0.83141 0.97776 0.7049 0.0
H2426 H 0.86261 0.00421 0.7089 0.0
H2427 H 0.84362 0.07609 0.70902 0.0
H2428 H 0.93232 0.15028 0.69859 0.0
H2429 H 0.90165 0.12393 0.69143 0.0
C2430 C 0.66269 0.00842 0.20513 0.0
C2431 C 0.68315 -0.00036 0.19702 0.0
C2432 C 0.64443 0.99403 0.20932 0.0
C2433 C 0.62977 0.93432 0.21894 0.0
H2434 H 0.57339 0.94877 0.1891 0.0
C2435 C 0.56395 0.8663 0.20034 0.0
C2436 C 0.54118 0.87157 0.20409 0.0
C2437 C 0.58034 0.88316 0.20108 0.0
C2438 C 0.58889 0.94464 0.19781 0.0
H2439 H 0.70094 0.96892 0.18801 0.0
H2440 H 0.66936 0.94402 0.19547 0.0
H2441 H 0.60382 0.97654 0.18975 0.0
H2442 H 0.51763 0.89876 0.21094 0.0
H2443 H 0.54632 0.92817 0.21235 0.0
H2444 H 0.61511 0.90235 0.22672 0.0
C2445 C 0.6673 0.96191 0.19855 0.0
C2446 C 0.60627 0.96056 0.19825 0.0
C2447 C 0.68533 0.97622 0.19411 0.0
C2448 C 0.53504 0.89416 0.20791 0.0
C2449 C 0.55146 0.91103 0.2087 0.0
C2450 C 0.61242 0.91847 0.21858 0.0
C2451 C 0.64656 0.97066 0.20584 0.0
C2452 C 0.62705 0.95532 0.20834 0.0
C2453 C 0.57433 0.90564 0.20567 0.0
C2454 C 0.59199 0.92324 0.20753 0.0
H2455 H 0.66054 0.0264 0.20748 0.0
H2456 H 0.62862 0.00116 0.21503 0.0
H2457 H 0.64552 0.92998 0.22712 0.0
H2458 H 0.56921 0.84909 0.19723 0.0
H2459 H 0.59777 0.87854 0.19817 0.0
C2460 C 0.41788 0.36655 0.23665 0.0
C2461 C 0.4391 0.37256 0.22808 0.0
C2462 C 0.40022 0.38216 0.23678 0.0
C2463 C 0.36282 0.41654 0.23191 0.0
H2464 H 0.38274 0.47628 0.24948 0.0
C2465 C 0.30076 0.48655 0.26154 0.0
C2466 C 0.3077 0.49777 0.28126 0.0
C2467 C 0.31578 0.47251 0.24986 0.0
C2468 C 0.37687 0.4597 0.24454 0.0
H2469 H 0.45799 0.39879 0.21106 0.0
H2470 H 0.42697 0.42574 0.21044 0.0
H2471 H 0.41031 0.4485 0.23788 0.0
H2472 H 0.33589 0.50328 0.304 0.0
H2473 H 0.36169 0.47881 0.284 0.0
H2474 H 0.32942 0.42753 0.24028 0.0
C2475 C 0.42413 0.40932 0.2179 0.0
C2476 C 0.39268 0.44379 0.23753 0.0
C2477 C 0.44189 0.39386 0.21815 0.0
C2478 C 0.32996 0.49496 0.28884 0.0
C2479 C 0.34487 0.48104 0.27723 0.0
C2480 C 0.34696 0.43247 0.23915 0.0
C2481 C 0.40332 0.40399 0.228 0.0
C2482 C 0.38598 0.42177 0.23176 0.0
C2483 C 0.338 0.46959 0.25764 0.0
C2484 C 0.35395 0.45397 0.24628 0.0
H2485 H 0.41525 0.35024 0.24442 0.0
H2486 H 0.38459 0.37745 0.24493 0.0
H2487 H 0.35698 0.3999 0.22716 0.0
H2488 H 0.2837 0.48841 0.25528 0.0
H2489 H 0.31002 0.46397 0.23476 0.0
C2490 C 0.19706 0.51629 0.7907 0.0
C2491 C 0.19438 0.49478 0.80008 0.0
C2492 C 0.17806 0.52926 0.78525 0.0
C2493 C 0.11827 0.53382 0.8025 0.0
H2494 H 0.11523 0.57905 0.75545 0.0
C2495 C 0.03855 0.5876 0.78644 0.0
C2496 C 0.04213 0.61081 0.78335 0.0
C2497 C 0.05679 0.57264 0.78687 0.0
C2498 C 0.11592 0.56652 0.76872 0.0
H2499 H 0.17032 0.46909 0.80961 0.0
H2500 H 0.13727 0.49105 0.79898 0.0
H2501 H 0.14767 0.55366 0.75723 0.0
H2502 H 0.06771 0.63652 0.77832 0.0
H2503 H 0.09943 0.61043 0.77911 0.0
H2504 H 0.08658 0.54667 0.81399 0.0
C2505 C 0.15379 0.49843 0.79658 0.0
C2506 C 0.1345 0.552 0.76976 0.0
C2507 C 0.17269 0.48572 0.8024 0.0
C2508 C 0.06434 0.61874 0.7808 0.0
C2509 C 0.08252 0.60379 0.78104 0.0
C2510 C 0.09967 0.54818 0.80134 0.0
C2511 C 0.15617 0.52074 0.7889 0.0
C2512 C 0.13597 0.53552 0.78675 0.0
C2513 C 0.07895 0.58058 0.78401 0.0
C2514 C 0.09835 0.56479 0.78456 0.0
H2515 H 0.2137 0.52366 0.78911 0.0
H2516 H 0.18056 0.5464 0.77949 0.0
H2517 H 0.11902 0.52178 0.8162 0.0
H2518 H 0.02165 0.58095 0.78835 0.0
H2519 H 0.05353 0.55481 0.78908 0.0
C2520 C 0.73636 0.81255 0.01934 0.0
C2521 C 0.71752 0.81838 0.00618 0.0
C2522 C 0.74699 0.82884 0.0328 0.0
C2523 C 0.75484 0.88986 0.03959 0.0
H2524 H 0.75528 0.8788 0.10403 0.0
C2525 C 0.75216 0.96185 0.10381 0.0
C2526 C 0.76205 0.9592 0.12517 0.0
C2527 C 0.75223 0.94415 0.08828 0.0
C2528 C 0.75585 0.88207 0.08608 0.0
H2529 H 0.69567 0.84584 0.99591 0.0
H2530 H 0.71453 0.87425 0.01886 0.0
H2531 H 0.746 0.84818 0.07813 0.0
H2532 H 0.78079 0.93621 0.14658 0.0
H2533 H 0.78133 0.90539 0.11925 0.0
H2534 H 0.76435 0.92375 0.04735 0.0
C2535 C 0.72095 0.85714 0.01901 0.0
C2536 C 0.75048 0.8645 0.07126 0.0
C2537 C 0.71006 0.84085 0.00603 0.0
C2538 C 0.77286 0.93873 0.13031 0.0
C2539 C 0.77306 0.92102 0.11468 0.0
C2540 C 0.76049 0.90734 0.05435 0.0
C2541 C 0.7393 0.85127 0.03276 0.0
C2542 C 0.74917 0.86846 0.04796 0.0
C2543 C 0.76237 0.92336 0.09362 0.0
C2544 C 0.76024 0.9039 0.07783 0.0
H2545 H 0.7424 0.79531 0.01976 0.0
H2546 H 0.76111 0.82393 0.0433 0.0
H2547 H 0.75419 0.89324 0.02164 0.0
H2548 H 0.74365 0.97737 0.09929 0.0
H2549 H 0.74347 0.94652 0.07243 0.0
C2550 C 0.23705 0.53845 0.90596 0.0
C2551 C 0.23585 0.54237 0.88263 0.0
C2552 C 0.23785 0.5565 0.92108 0.0
C2553 C 0.24941 0.61776 0.92531 0.0
H2554 H 0.2095 0.61411 0.9769 0.0
C2555 C 0.21839 0.69464 0.97703 0.0
C2556 C 0.2126 0.69095 -0.00037 0.0
C2557 C 0.22676 0.67685 0.96394 0.0
C2558 C 0.22116 0.61529 0.9629 0.0
H2559 H 0.23485 0.56831 0.85683 0.0
H2560 H 0.23588 0.59979 0.88325 0.0
H2561 H 0.21277 0.58213 0.95167 0.0
H2562 H 0.21264 0.66688 0.02702 0.0
H2563 H 0.22834 0.63617 0.00464 0.0
H2564 H 0.25738 0.65126 0.93642 0.0
C2565 C 0.23652 0.58277 0.88984 0.0
C2566 C 0.22296 0.59692 0.94837 0.0
C2567 C 0.2357 0.56471 0.87472 0.0
C2568 C 0.21707 0.67 0.00956 0.0
C2569 C 0.22579 0.6524 0.99667 0.0
C2570 C 0.24766 0.63621 0.93995 0.0
C2571 C 0.23747 0.57886 0.91318 0.0
C2572 C 0.2369 0.598 0.92928 0.0
C2573 C 0.22955 0.65525 0.97343 0.0
C2574 C 0.23335 0.63523 0.95883 0.0
H2575 H 0.23739 0.52143 0.91258 0.0
H2576 H 0.23882 0.55296 0.93897 0.0
H2577 H 0.26049 0.61898 0.91084 0.0
H2578 H 0.21471 0.71066 0.96904 0.0
H2579 H 0.22938 0.6796 0.94608 0.0
C2580 C 0.28538 0.33476 0.49924 0.0
C2581 C 0.29495 0.31413 0.49255 0.0
C2582 C 0.287 0.35371 0.48534 0.0
C2583 C 0.29584 0.36986 0.42623 0.0
H2584 H 0.31082 0.42854 0.45102 0.0
C2585 C 0.31118 0.4452 0.36823 0.0
C2586 C 0.30017 0.46531 0.37417 0.0
C2587 C 0.31287 0.42756 0.38367 0.0
C2588 C 0.30648 0.41228 0.4439 0.0
H2589 H 0.31392 0.29731 0.46613 0.0
H2590 H 0.31668 0.33025 0.44196 0.0
H2591 H 0.30823 0.39589 0.47605 0.0
H2592 H 0.28335 0.48321 0.40131 0.0
H2593 H 0.28602 0.45224 0.4282 0.0
H2594 H 0.29376 0.38613 0.39419 0.0
C2595 C 0.30772 0.33173 0.45782 0.0
C2596 C 0.30496 0.39363 0.45821 0.0
C2597 C 0.30616 0.31285 0.4717 0.0
C2598 C 0.29194 0.4679 0.39624 0.0
C2599 C 0.29353 0.45018 0.41168 0.0
C2600 C 0.2973 0.38846 0.41197 0.0
C2601 C 0.29815 0.35235 0.46447 0.0
C2602 C 0.29965 0.37224 0.44949 0.0
C2603 C 0.30347 0.42961 0.40533 0.0
C2604 C 0.30268 0.40987 0.42062 0.0
H2605 H 0.27668 0.33632 0.51523 0.0
H2606 H 0.27928 0.36935 0.49079 0.0
H2607 H 0.29134 0.35365 0.41908 0.0
H2608 H 0.31792 0.44279 0.35142 0.0
H2609 H 0.32107 0.41209 0.37846 0.0
C2610 C 0.78197 0.20088 0.51712 0.0
C2611 C 0.79966 0.19304 0.50342 0.0
C2612 C 0.77057 0.186 0.53145 0.0
C2613 C 0.75755 0.12639 0.5402 0.0
H2614 H 0.76061 0.13912 0.60431 0.0
C2615 C 0.7539 0.05611 0.60575 0.0
C2616 C 0.74366 0.06004 0.62673 0.0
C2617 C 0.75639 0.07358 0.59025 0.0
C2618 C 0.7591 0.13547 0.58647 0.0
H2619 H 0.81871 0.16356 0.49319 0.0
H2620 H 0.79848 0.13756 0.51777 0.0
H2621 H 0.77195 0.16798 0.57724 0.0
H2622 H 0.72759 0.0853 0.64779 0.0
H2623 H 0.73163 0.11584 0.62047 0.0
H2624 H 0.74501 0.09387 0.54922 0.0
C2625 C 0.79356 0.15516 0.5176 0.0
C2626 C 0.76563 0.15201 0.571 0.0
C2627 C 0.80523 0.17004 0.50368 0.0
C2628 C 0.7357 0.08179 0.6318 0.0
C2629 C 0.73806 0.09929 0.61617 0.0
C2630 C 0.75077 0.10999 0.55561 0.0
C2631 C 0.77635 0.16304 0.5318 0.0
C2632 C 0.76561 0.14729 0.5478 0.0
C2633 C 0.74851 0.09539 0.59524 0.0
C2634 C 0.75226 0.11403 0.57895 0.0
H2635 H 0.77742 0.21857 0.51725 0.0
H2636 H 0.75735 0.19241 0.54231 0.0
H2637 H 0.75715 0.12251 0.52234 0.0
H2638 H 0.76033 0.03957 0.60137 0.0
H2639 H 0.76499 0.07005 0.57453 0.0
loop_
_geom_bond_atom_site_label_1
_geom_bond_atom_site_label_2
_geom_bond_distance
_geom_bond_site_symmetry_2
_ccdc_geom_bond_type
Zn0 O6 1.969 . S
Zn0 O7 1.965 . S
Zn0 O11 2.024 . S
Zn0 O16 1.969 . S
Zn1 O8 1.969 1_655 S
Zn1 O14 1.969 . S
Zn1 O15 1.965 . S
Zn1 O17 2.024 . S
C2 O3 1.229 . S
C2 O11 1.058 . S
O3 C2 1.229 . S
C4 O5 1.229 . S
C4 O17 1.058 . S
O5 C4 1.229 . S
O6 Zn0 1.969 . S
O6 C9 1.267 . S
O7 Zn0 1.965 . S
O7 C18 1.260 . S
O8 Zn1 1.969 1_455 S
O8 C18 1.258 . S
C9 O6 1.267 . S
C9 O10 1.228 . S
O10 C9 1.228 . S
O11 Zn0 2.024 . S
O11 C2 1.058 . S
C12 O13 1.228 . S
C12 O14 1.267 . S
O13 C12 1.228 . S
O14 Zn1 1.969 . S
O14 C12 1.267 . S
O15 Zn1 1.965 . S
O15 C19 1.260 . S
O16 Zn0 1.969 . S
O16 C19 1.258 1_455 S
O17 Zn1 2.024 . S
O17 C4 1.058 . S
C18 O7 1.260 . S
C18 O8 1.258 . S
C19 O15 1.260 . S
C19 O16 1.258 1_655 S
Zn20 O26 1.969 . S
Zn20 O27 1.965 . S
Zn20 O31 2.024 . S
Zn20 O36 1.969 . S
Zn21 O28 1.969 . S
Zn21 O34 1.969 . S
Zn21 O35 1.965 . S
Zn21 O37 2.024 . S
C22 O23 1.229 . S
C22 O31 1.058 . S
O23 C22 1.229 . S
C24 O25 1.229 . S
C24 O37 1.058 . S
O25 C24 1.229 . S
O26 Zn20 1.969 . S
O26 C29 1.267 . S
O27 Zn20 1.965 . S
O27 C38 1.260 . S
O28 Zn21 1.969 . S
O28 C38 1.258 . S
C29 O26 1.267 . S
C29 O30 1.228 . S
O30 C29 1.228 . S
O31 Zn20 2.024 . S
O31 C22 1.058 . S
C32 O33 1.228 . S
C32 O34 1.267 . S
O33 C32 1.228 . S
O34 Zn21 1.969 . S
O34 C32 1.267 . S
O35 Zn21 1.965 . S
O35 C39 1.260 . S
O36 Zn20 1.969 . S
O36 C39 1.258 . S
O37 Zn21 2.024 . S
O37 C24 1.058 . S
C38 O27 1.260 . S
C38 O28 1.258 . S
C39 O35 1.260 . S
C39 O36 1.258 . S
Zn40 O46 1.969 . S
Zn40 O47 1.965 . S
Zn40 O51 2.024 . S
Zn40 O56 1.969 . S
Zn41 O48 1.969 . S
Zn41 O54 1.969 . S
Zn41 O55 1.965 . S
Zn41 O57 2.024 . S
C42 O43 1.229 . S
C42 O51 1.058 . S
O43 C42 1.229 . S
C44 O45 1.229 . S
C44 O57 1.058 . S
O45 C44 1.229 . S
O46 Zn40 1.969 . S
O46 C49 1.267 . S
O47 Zn40 1.965 . S
O47 C58 1.260 . S
O48 Zn41 1.969 . S
O48 C58 1.258 . S
C49 O46 1.267 . S
C49 O50 1.228 . S
O50 C49 1.228 . S
O51 Zn40 2.024 . S
O51 C42 1.058 . S
C52 O53 1.228 . S
C52 O54 1.267 . S
O53 C52 1.228 . S
O54 Zn41 1.969 . S
O54 C52 1.267 . S
O55 Zn41 1.965 . S
O55 C59 1.260 . S
O56 Zn40 1.969 . S
O56 C59 1.258 . S
O57 Zn41 2.024 . S
O57 C44 1.058 . S
C58 O47 1.260 . S
C58 O48 1.258 . S
C59 O55 1.260 . S
C59 O56 1.258 . S
Zn60 O66 1.969 . S
Zn60 O67 1.965 . S
Zn60 O71 2.024 . S
Zn60 O76 1.969 . S
Zn61 O68 1.969 1_455 S
Zn61 O74 1.969 . S
Zn61 O75 1.965 . S
Zn61 O77 2.024 . S
C62 O63 1.229 . S
C62 O71 1.058 . S
O63 C62 1.229 . S
C64 O65 1.229 . S
C64 O77 1.058 . S
O65 C64 1.229 . S
O66 Zn60 1.969 . S
O66 C69 1.267 . S
O67 Zn60 1.965 . S
O67 C78 1.260 . S
O68 Zn61 1.969 1_655 S
O68 C78 1.258 . S
C69 O66 1.267 . S
C69 O70 1.228 . S
O70 C69 1.228 . S
O71 Zn60 2.024 . S
O71 C62 1.058 . S
C72 O73 1.228 . S
C72 O74 1.267 . S
O73 C72 1.228 . S
O74 Zn61 1.969 . S
O74 C72 1.267 . S
O75 Zn61 1.965 . S
O75 C79 1.260 . S
O76 Zn60 1.969 . S
O76 C79 1.258 1_655 S
O77 Zn61 2.024 . S
O77 C64 1.058 . S
C78 O67 1.260 . S
C78 O68 1.258 . S
C79 O75 1.260 . S
C79 O76 1.258 1_455 S
Zn80 O86 1.969 . S
Zn80 O87 1.965 . S
Zn80 O91 2.024 . S
Zn80 O96 1.969 . S
Zn81 O88 1.969 1_565 S
Zn81 O94 1.969 . S
Zn81 O95 1.965 . S
Zn81 O97 2.024 . S
C82 O83 1.229 . S
C82 O91 1.058 . S
O83 C82 1.229 . S
C84 O85 1.229 . S
C84 O97 1.058 . S
O85 C84 1.229 . S
O86 Zn80 1.969 . S
O86 C89 1.267 . S
O87 Zn80 1.965 . S
O87 C98 1.260 . S
O88 Zn81 1.969 1_545 S
O88 C98 1.258 . S
C89 O86 1.267 . S
C89 O90 1.228 . S
O90 C89 1.228 . S
O91 Zn80 2.024 . S
O91 C82 1.058 . S
C92 O93 1.228 . S
C92 O94 1.267 . S
O93 C92 1.228 . S
O94 Zn81 1.969 . S
O94 C92 1.267 . S
O95 Zn81 1.965 . S
O95 C99 1.260 . S
O96 Zn80 1.969 . S
O96 C99 1.258 1_545 S
O97 Zn81 2.024 . S
O97 C84 1.058 . S
C98 O87 1.260 . S
C98 O88 1.258 . S
C99 O95 1.260 . S
C99 O96 1.258 1_565 S
Zn100 O106 1.969 . S
Zn100 O107 1.965 . S
Zn100 O111 2.024 . S
Zn100 O116 1.969 . S
Zn101 O108 1.969 1_545 S
Zn101 O114 1.969 . S
Zn101 O115 1.965 . S
Zn101 O117 2.024 . S
C102 O103 1.229 . S
C102 O111 1.058 . S
O103 C102 1.229 . S
C104 O105 1.229 . S
C104 O117 1.058 . S
O105 C104 1.229 . S
O106 Zn100 1.969 . S
O106 C109 1.267 . S
O107 Zn100 1.965 . S
O107 C118 1.260 . S
O108 Zn101 1.969 1_565 S
O108 C118 1.258 . S
C109 O106 1.267 . S
C109 O110 1.228 . S
O110 C109 1.228 . S
O111 Zn100 2.024 . S
O111 C102 1.058 . S
C112 O113 1.228 . S
C112 O114 1.267 . S
O113 C112 1.228 . S
O114 Zn101 1.969 . S
O114 C112 1.267 . S
O115 Zn101 1.965 . S
O115 C119 1.260 . S
O116 Zn100 1.969 . S
O116 C119 1.258 1_565 S
O117 Zn101 2.024 . S
O117 C104 1.058 . S
C118 O107 1.260 . S
C118 O108 1.258 . S
C119 O115 1.260 . S
C119 O116 1.258 1_545 S
Zn120 O126 1.969 . S
Zn120 O127 1.965 . S
Zn120 O131 2.024 . S
Zn120 O136 1.969 . S
Zn121 O128 1.969 . S
Zn121 O134 1.969 . S
Zn121 O135 1.965 . S
Zn121 O137 2.024 . S
C122 O123 1.229 . S
C122 O131 1.058 . S
O123 C122 1.229 . S
C124 O125 1.229 . S
C124 O137 1.058 . S
O125 C124 1.229 . S
O126 Zn120 1.969 . S
O126 C129 1.267 . S
O127 Zn120 1.965 . S
O127 C138 1.260 . S
O128 Zn121 1.969 . S
O128 C138 1.258 . S
C129 O126 1.267 . S
C129 O130 1.228 . S
O130 C129 1.228 . S
O131 Zn120 2.024 . S
O131 C122 1.058 . S
C132 O133 1.228 . S
C132 O134 1.267 . S
O133 C132 1.228 . S
O134 Zn121 1.969 . S
O134 C132 1.267 . S
O135 Zn121 1.965 . S
O135 C139 1.260 . S
O136 Zn120 1.969 . S
O136 C139 1.258 . S
O137 Zn121 2.024 . S
O137 C124 1.058 . S
C138 O127 1.260 . S
C138 O128 1.258 . S
C139 O135 1.260 . S
C139 O136 1.258 . S
Zn140 O146 1.969 . S
Zn140 O147 1.965 . S
Zn140 O151 2.024 . S
Zn140 O156 1.969 . S
Zn141 O148 1.969 . S
Zn141 O154 1.969 . S
Zn141 O155 1.965 . S
Zn141 O157 2.024 . S
C142 O143 1.229 . S
C142 O151 1.058 . S
O143 C142 1.229 . S
C144 O145 1.229 . S
C144 O157 1.058 . S
O145 C144 1.229 . S
O146 Zn140 1.969 . S
O146 C149 1.267 . S
O147 Zn140 1.965 . S
O147 C158 1.260 . S
O148 Zn141 1.969 . S
O148 C158 1.258 . S
C149 O146 1.267 . S
C149 O150 1.228 . S
O150 C149 1.228 . S
O151 Zn140 2.024 . S
O151 C142 1.058 . S
C152 O153 1.228 . S
C152 O154 1.267 . S
O153 C152 1.228 . S
O154 Zn141 1.969 . S
O154 C152 1.267 . S
O155 Zn141 1.965 . S
O155 C159 1.260 . S
O156 Zn140 1.969 . S
O156 C159 1.258 . S
O157 Zn141 2.024 . S
O157 C144 1.058 . S
C158 O147 1.260 . S
C158 O148 1.258 . S
C159 O155 1.260 . S
C159 O156 1.258 . S
Zn160 O166 1.969 . S
Zn160 O167 1.965 . S
Zn160 O171 2.024 . S
Zn160 O176 1.969 . S
Zn161 O168 1.969 1_556 S
Zn161 O174 1.969 . S
Zn161 O175 1.965 . S
Zn161 O177 2.024 . S
C162 O163 1.229 . S
C162 O171 1.058 . S
O163 C162 1.229 . S
C164 O165 1.229 . S
C164 O177 1.058 . S
O165 C164 1.229 . S
O166 Zn160 1.969 . S
O166 C169 1.267 . S
O167 Zn160 1.965 . S
O167 C178 1.260 . S
O168 Zn161 1.969 1_554 S
O168 C178 1.258 . S
C169 O166 1.267 . S
C169 O170 1.228 . S
O170 C169 1.228 . S
O171 Zn160 2.024 . S
O171 C162 1.058 . S
C172 O173 1.228 . S
C172 O174 1.267 . S
O173 C172 1.228 . S
O174 Zn161 1.969 . S
O174 C172 1.267 . S
O175 Zn161 1.965 . S
O175 C179 1.260 . S
O176 Zn160 1.969 . S
O176 C179 1.258 1_554 S
O177 Zn161 2.024 . S
O177 C164 1.058 . S
C178 O167 1.260 . S
C178 O168 1.258 . S
C179 O175 1.260 . S
C179 O176 1.258 1_556 S
Zn180 O186 1.969 . S
Zn180 O187 1.965 . S
Zn180 O191 2.024 . S
Zn180 O196 1.969 . S
Zn181 O188 1.969 1_554 S
Zn181 O194 1.969 . S
Zn181 O195 1.965 . S
Zn181 O197 2.024 . S
C182 O183 1.229 . S
C182 O191 1.058 . S
O183 C182 1.229 . S
C184 O185 1.229 . S
C184 O197 1.058 . S
O185 C184 1.229 . S
O186 Zn180 1.969 . S
O186 C189 1.267 . S
O187 Zn180 1.965 . S
O187 C198 1.260 . S
O188 Zn181 1.969 1_556 S
O188 C198 1.258 . S
C189 O186 1.267 . S
C189 O190 1.228 . S
O190 C189 1.228 . S
O191 Zn180 2.024 . S
O191 C182 1.058 . S
C192 O193 1.228 . S
C192 O194 1.267 . S
O193 C192 1.228 . S
O194 Zn181 1.969 . S
O194 C192 1.267 . S
O195 Zn181 1.965 . S
O195 C199 1.260 . S
O196 Zn180 1.969 . S
O196 C199 1.258 1_556 S
O197 Zn181 2.024 . S
O197 C184 1.058 . S
C198 O187 1.260 . S
C198 O188 1.258 . S
C199 O195 1.260 . S
C199 O196 1.258 1_554 S
Zn200 O206 1.969 . S
Zn200 O207 1.965 . S
Zn200 O211 2.024 . S
Zn200 O216 1.969 . S
Zn201 O208 1.969 . S
Zn201 O214 1.969 . S
Zn201 O215 1.965 . S
Zn201 O217 2.024 . S
C202 O203 1.229 . S
C202 O211 1.058 . S
O203 C202 1.229 . S
C204 O205 1.229 . S
C204 O217 1.058 . S
O205 C204 1.229 . S
O206 Zn200 1.969 . S
O206 C209 1.267 . S
O207 Zn200 1.965 . S
O207 C218 1.260 . S
O208 Zn201 1.969 . S
O208 C218 1.258 . S
C209 O206 1.267 . S
C209 O210 1.228 . S
O210 C209 1.228 . S
O211 Zn200 2.024 . S
O211 C202 1.058 . S
C212 O213 1.228 . S
C212 O214 1.267 . S
O213 C212 1.228 . S
O214 Zn201 1.969 . S
O214 C212 1.267 . S
O215 Zn201 1.965 . S
O215 C219 1.260 . S
O216 Zn200 1.969 . S
O216 C219 1.258 . S
O217 Zn201 2.024 . S
O217 C204 1.058 . S
C218 O207 1.260 . S
C218 O208 1.258 . S
C219 O215 1.260 . S
C219 O216 1.258 . S
Zn220 O226 1.969 . S
Zn220 O227 1.965 . S
Zn220 O231 2.024 . S
Zn220 O236 1.969 . S
Zn221 O228 1.969 . S
Zn221 O234 1.969 . S
Zn221 O235 1.965 . S
Zn221 O237 2.024 . S
C222 O223 1.229 . S
C222 O231 1.058 . S
O223 C222 1.229 . S
C224 O225 1.229 . S
C224 O237 1.058 . S
O225 C224 1.229 . S
O226 Zn220 1.969 . S
O226 C229 1.267 . S
O227 Zn220 1.965 . S
O227 C238 1.260 . S
O228 Zn221 1.969 . S
O228 C238 1.258 . S
C229 O226 1.267 . S
C229 O230 1.228 . S
O230 C229 1.228 . S
O231 Zn220 2.024 . S
O231 C222 1.058 . S
C232 O233 1.228 . S
C232 O234 1.267 . S
O233 C232 1.228 . S
O234 Zn221 1.969 . S
O234 C232 1.267 . S
O235 Zn221 1.965 . S
O235 C239 1.260 . S
O236 Zn220 1.969 . S
O236 C239 1.258 . S
O237 Zn221 2.024 . S
O237 C224 1.058 . S
C238 O227 1.260 . S
C238 O228 1.258 . S
C239 O235 1.260 . S
C239 O236 1.258 . S
Zn240 O246 1.969 . S
Zn240 O247 1.965 . S
Zn240 O251 2.024 . S
Zn240 O256 1.969 1_455 S
Zn241 O248 1.969 . S
Zn241 O254 1.969 . S
Zn241 O255 1.965 . S
Zn241 O257 2.024 . S
C242 O243 1.229 . S
C242 O251 1.058 . S
O243 C242 1.229 . S
C244 O245 1.229 . S
C244 O257 1.058 . S
O245 C244 1.229 . S
O246 Zn240 1.969 . S
O246 C249 1.267 . S
O247 Zn240 1.965 . S
O247 C258 1.260 . S
O248 Zn241 1.969 . S
O248 C258 1.258 1_655 S
C249 O246 1.267 . S
C249 O250 1.228 . S
O250 C249 1.228 . S
O251 Zn240 2.024 . S
O251 C242 1.058 . S
C252 O253 1.228 . S
C252 O254 1.267 . S
O253 C252 1.228 . S
O254 Zn241 1.969 . S
O254 C252 1.267 . S
O255 Zn241 1.965 . S
O255 C259 1.260 . S
O256 Zn240 1.969 1_655 S
O256 C259 1.258 . S
O257 Zn241 2.024 . S
O257 C244 1.058 . S
C258 O247 1.260 . S
C258 O248 1.258 1_455 S
C259 O255 1.260 . S
C259 O256 1.258 . S
Zn260 O266 1.969 . S
Zn260 O267 1.965 . S
Zn260 O271 2.024 . S
Zn260 O276 1.969 . S
Zn261 O268 1.969 . S
Zn261 O274 1.969 . S
Zn261 O275 1.965 . S
Zn261 O277 2.024 . S
C262 O263 1.229 . S
C262 O271 1.058 . S
O263 C262 1.229 . S
C264 O265 1.229 . S
C264 O277 1.058 . S
O265 C264 1.229 . S
O266 Zn260 1.969 . S
O266 C269 1.267 . S
O267 Zn260 1.965 . S
O267 C278 1.260 . S
O268 Zn261 1.969 . S
O268 C278 1.258 . S
C269 O266 1.267 . S
C269 O270 1.228 . S
O270 C269 1.228 . S
O271 Zn260 2.024 . S
O271 C262 1.058 . S
C272 O273 1.228 . S
C272 O274 1.267 . S
O273 C272 1.228 . S
O274 Zn261 1.969 . S
O274 C272 1.267 . S
O275 Zn261 1.965 . S
O275 C279 1.260 . S
O276 Zn260 1.969 . S
O276 C279 1.258 . S
O277 Zn261 2.024 . S
O277 C264 1.058 . S
C278 O267 1.260 . S
C278 O268 1.258 . S
C279 O275 1.260 . S
C279 O276 1.258 . S
Zn280 O286 1.969 . S
Zn280 O287 1.965 . S
Zn280 O291 2.024 . S
Zn280 O296 1.969 . S
Zn281 O288 1.969 . S
Zn281 O294 1.969 . S
Zn281 O295 1.965 . S
Zn281 O297 2.024 . S
C282 O283 1.229 . S
C282 O291 1.058 . S
O283 C282 1.229 . S
C284 O285 1.229 . S
C284 O297 1.058 . S
O285 C284 1.229 . S
O286 Zn280 1.969 . S
O286 C289 1.267 . S
O287 Zn280 1.965 . S
O287 C298 1.260 . S
O288 Zn281 1.969 . S
O288 C298 1.258 . S
C289 O286 1.267 . S
C289 O290 1.228 . S
O290 C289 1.228 . S
O291 Zn280 2.024 . S
O291 C282 1.058 . S
C292 O293 1.228 . S
C292 O294 1.267 . S
O293 C292 1.228 . S
O294 Zn281 1.969 . S
O294 C292 1.267 . S
O295 Zn281 1.965 . S
O295 C299 1.260 . S
O296 Zn280 1.969 . S
O296 C299 1.258 . S
O297 Zn281 2.024 . S
O297 C284 1.058 . S
C298 O287 1.260 . S
C298 O288 1.258 . S
C299 O295 1.260 . S
C299 O296 1.258 . S
Zn300 O306 1.969 . S
Zn300 O307 1.965 . S
Zn300 O311 2.024 . S
Zn300 O316 1.969 1_655 S
Zn301 O308 1.969 . S
Zn301 O314 1.969 . S
Zn301 O315 1.965 . S
Zn301 O317 2.024 . S
C302 O303 1.229 . S
C302 O311 1.058 . S
O303 C302 1.229 . S
C304 O305 1.229 . S
C304 O317 1.058 . S
O305 C304 1.229 . S
O306 Zn300 1.969 . S
O306 C309 1.267 . S
O307 Zn300 1.965 . S
O307 C318 1.260 . S
O308 Zn301 1.969 . S
O308 C318 1.258 1_455 S
C309 O306 1.267 . S
C309 O310 1.228 . S
O310 C309 1.228 . S
O311 Zn300 2.024 . S
O311 C302 1.058 . S
C312 O313 1.228 . S
C312 O314 1.267 . S
O313 C312 1.228 . S
O314 Zn301 1.969 . S
O314 C312 1.267 . S
O315 Zn301 1.965 . S
O315 C319 1.260 . S
O316 Zn300 1.969 1_455 S
O316 C319 1.258 . S
O317 Zn301 2.024 . S
O317 C304 1.058 . S
C318 O307 1.260 . S
C318 O308 1.258 1_655 S
C319 O315 1.260 . S
C319 O316 1.258 . S
Zn320 O326 1.969 . S
Zn320 O327 1.965 . S
Zn320 O331 2.024 . S
Zn320 O336 1.969 1_545 S
Zn321 O328 1.969 . S
Zn321 O334 1.969 . S
Zn321 O335 1.965 . S
Zn321 O337 2.024 . S
C322 O323 1.229 . S
C322 O331 1.058 . S
O323 C322 1.229 . S
C324 O325 1.229 . S
C324 O337 1.058 . S
O325 C324 1.229 . S
O326 Zn320 1.969 . S
O326 C329 1.267 . S
O327 Zn320 1.965 . S
O327 C338 1.260 . S
O328 Zn321 1.969 . S
O328 C338 1.258 1_565 S
C329 O326 1.267 . S
C329 O330 1.228 . S
O330 C329 1.228 . S
O331 Zn320 2.024 . S
O331 C322 1.058 . S
C332 O333 1.228 . S
C332 O334 1.267 . S
O333 C332 1.228 . S
O334 Zn321 1.969 . S
O334 C332 1.267 . S
O335 Zn321 1.965 . S
O335 C339 1.260 . S
O336 Zn320 1.969 1_565 S
O336 C339 1.258 . S
O337 Zn321 2.024 . S
O337 C324 1.058 . S
C338 O327 1.260 . S
C338 O328 1.258 1_545 S
C339 O335 1.260 . S
C339 O336 1.258 . S
Zn340 O346 1.969 . S
Zn340 O347 1.965 . S
Zn340 O351 2.024 . S
Zn340 O356 1.969 1_565 S
Zn341 O348 1.969 . S
Zn341 O354 1.969 . S
Zn341 O355 1.965 . S
Zn341 O357 2.024 . S
C342 O343 1.229 . S
C342 O351 1.058 . S
O343 C342 1.229 . S
C344 O345 1.229 . S
C344 O357 1.058 . S
O345 C344 1.229 . S
O346 Zn340 1.969 . S
O346 C349 1.267 . S
O347 Zn340 1.965 . S
O347 C358 1.260 . S
O348 Zn341 1.969 . S
O348 C358 1.258 1_545 S
C349 O346 1.267 . S
C349 O350 1.228 . S
O350 C349 1.228 . S
O351 Zn340 2.024 . S
O351 C342 1.058 . S
C352 O353 1.228 . S
C352 O354 1.267 . S
O353 C352 1.228 . S
O354 Zn341 1.969 . S
O354 C352 1.267 . S
O355 Zn341 1.965 . S
O355 C359 1.260 . S
O356 Zn340 1.969 1_545 S
O356 C359 1.258 . S
O357 Zn341 2.024 . S
O357 C344 1.058 . S
C358 O347 1.260 . S
C358 O348 1.258 1_565 S
C359 O355 1.260 . S
C359 O356 1.258 . S
Zn360 O366 1.969 . S
Zn360 O367 1.965 . S
Zn360 O371 2.024 . S
Zn360 O376 1.969 . S
Zn361 O368 1.969 . S
Zn361 O374 1.969 . S
Zn361 O375 1.965 . S
Zn361 O377 2.024 . S
C362 O363 1.229 . S
C362 O371 1.058 . S
O363 C362 1.229 . S
C364 O365 1.229 . S
C364 O377 1.058 . S
O365 C364 1.229 . S
O366 Zn360 1.969 . S
O366 C369 1.267 . S
O367 Zn360 1.965 . S
O367 C378 1.260 . S
O368 Zn361 1.969 . S
O368 C378 1.258 . S
C369 O366 1.267 . S
C369 O370 1.228 . S
O370 C369 1.228 . S
O371 Zn360 2.024 . S
O371 C362 1.058 . S
C372 O373 1.228 . S
C372 O374 1.267 . S
O373 C372 1.228 . S
O374 Zn361 1.969 . S
O374 C372 1.267 . S
O375 Zn361 1.965 . S
O375 C379 1.260 . S
O376 Zn360 1.969 . S
O376 C379 1.258 . S
O377 Zn361 2.024 . S
O377 C364 1.058 . S
C378 O367 1.260 . S
C378 O368 1.258 . S
C379 O375 1.260 . S
C379 O376 1.258 . S
Zn380 O386 1.969 . S
Zn380 O387 1.965 . S
Zn380 O391 2.024 . S
Zn380 O396 1.969 . S
Zn381 O388 1.969 . S
Zn381 O394 1.969 . S
Zn381 O395 1.965 . S
Zn381 O397 2.024 . S
C382 O383 1.229 . S
C382 O391 1.058 . S
O383 C382 1.229 . S
C384 O385 1.229 . S
C384 O397 1.058 . S
O385 C384 1.229 . S
O386 Zn380 1.969 . S
O386 C389 1.267 . S
O387 Zn380 1.965 . S
O387 C398 1.260 . S
O388 Zn381 1.969 . S
O388 C398 1.258 . S
C389 O386 1.267 . S
C389 O390 1.228 . S
O390 C389 1.228 . S
O391 Zn380 2.024 . S
O391 C382 1.058 . S
C392 O393 1.228 . S
C392 O394 1.267 . S
O393 C392 1.228 . S
O394 Zn381 1.969 . S
O394 C392 1.267 . S
O395 Zn381 1.965 . S
O395 C399 1.260 . S
O396 Zn380 1.969 . S
O396 C399 1.258 . S
O397 Zn381 2.024 . S
O397 C384 1.058 . S
C398 O387 1.260 . S
C398 O388 1.258 . S
C399 O395 1.260 . S
C399 O396 1.258 . S
Zn400 O406 1.969 . S
Zn400 O407 1.965 . S
Zn400 O411 2.024 . S
Zn400 O416 1.969 1_554 S
Zn401 O408 1.969 . S
Zn401 O414 1.969 . S
Zn401 O415 1.965 . S
Zn401 O417 2.024 . S
C402 O403 1.229 . S
C402 O411 1.058 . S
O403 C402 1.229 . S
C404 O405 1.229 . S
C404 O417 1.058 . S
O405 C404 1.229 . S
O406 Zn400 1.969 . S
O406 C409 1.267 . S
O407 Zn400 1.965 . S
O407 C418 1.260 . S
O408 Zn401 1.969 . S
O408 C418 1.258 1_556 S
C409 O406 1.267 . S
C409 O410 1.228 . S
O410 C409 1.228 . S
O411 Zn400 2.024 . S
O411 C402 1.058 . S
C412 O413 1.228 . S
C412 O414 1.267 . S
O413 C412 1.228 . S
O414 Zn401 1.969 . S
O414 C412 1.267 . S
O415 Zn401 1.965 . S
O415 C419 1.260 . S
O416 Zn400 1.969 1_556 S
O416 C419 1.258 . S
O417 Zn401 2.024 . S
O417 C404 1.058 . S
C418 O407 1.260 . S
C418 O408 1.258 1_554 S
C419 O415 1.260 . S
C419 O416 1.258 . S
Zn420 O426 1.969 . S
Zn420 O427 1.965 . S
Zn420 O431 2.024 . S
Zn420 O436 1.969 1_556 S
Zn421 O428 1.969 . S
Zn421 O434 1.969 . S
Zn421 O435 1.965 . S
Zn421 O437 2.024 . S
C422 O423 1.229 . S
C422 O431 1.058 . S
O423 C422 1.229 . S
C424 O425 1.229 . S
C424 O437 1.058 . S
O425 C424 1.229 . S
O426 Zn420 1.969 . S
O426 C429 1.267 . S
O427 Zn420 1.965 . S
O427 C438 1.260 . S
O428 Zn421 1.969 . S
O428 C438 1.258 1_554 S
C429 O426 1.267 . S
C429 O430 1.228 . S
O430 C429 1.228 . S
O431 Zn420 2.024 . S
O431 C422 1.058 . S
C432 O433 1.228 . S
C432 O434 1.267 . S
O433 C432 1.228 . S
O434 Zn421 1.969 . S
O434 C432 1.267 . S
O435 Zn421 1.965 . S
O435 C439 1.260 . S
O436 Zn420 1.969 1_554 S
O436 C439 1.258 . S
O437 Zn421 2.024 . S
O437 C424 1.058 . S
C438 O427 1.260 . S
C438 O428 1.258 1_556 S
C439 O435 1.260 . S
C439 O436 1.258 . S
Zn440 O446 1.969 . S
Zn440 O447 1.965 . S
Zn440 O451 2.024 . S
Zn440 O456 1.969 . S
Zn441 O448 1.969 . S
Zn441 O454 1.969 . S
Zn441 O455 1.965 . S
Zn441 O457 2.024 . S
C442 O443 1.229 . S
C442 O451 1.058 . S
O443 C442 1.229 . S
C444 O445 1.229 . S
C444 O457 1.058 . S
O445 C444 1.229 . S
O446 Zn440 1.969 . S
O446 C449 1.267 . S
O447 Zn440 1.965 . S
O447 C458 1.260 . S
O448 Zn441 1.969 . S
O448 C458 1.258 . S
C449 O446 1.267 . S
C449 O450 1.228 . S
O450 C449 1.228 . S
O451 Zn440 2.024 . S
O451 C442 1.058 . S
C452 O453 1.228 . S
C452 O454 1.267 . S
O453 C452 1.228 . S
O454 Zn441 1.969 . S
O454 C452 1.267 . S
O455 Zn441 1.965 . S
O455 C459 1.260 . S
O456 Zn440 1.969 . S
O456 C459 1.258 . S
O457 Zn441 2.024 . S
O457 C444 1.058 . S
C458 O447 1.260 . S
C458 O448 1.258 . S
C459 O455 1.260 . S
C459 O456 1.258 . S
Zn460 O466 1.969 . S
Zn460 O467 1.965 . S
Zn460 O471 2.024 . S
Zn460 O476 1.969 . S
Zn461 O468 1.969 . S
Zn461 O474 1.969 . S
Zn461 O475 1.965 . S
Zn461 O477 2.024 . S
C462 O463 1.229 . S
C462 O471 1.058 . S
O463 C462 1.229 . S
C464 O465 1.229 . S
C464 O477 1.058 . S
O465 C464 1.229 . S
O466 Zn460 1.969 . S
O466 C469 1.267 . S
O467 Zn460 1.965 . S
O467 C478 1.260 . S
O468 Zn461 1.969 . S
O468 C478 1.258 . S
C469 O466 1.267 . S
C469 O470 1.228 . S
O470 C469 1.228 . S
O471 Zn460 2.024 . S
O471 C462 1.058 . S
C472 O473 1.228 . S
C472 O474 1.267 . S
O473 C472 1.228 . S
O474 Zn461 1.969 . S
O474 C472 1.267 . S
O475 Zn461 1.965 . S
O475 C479 1.260 . S
O476 Zn460 1.969 . S
O476 C479 1.258 . S
O477 Zn461 2.024 . S
O477 C464 1.058 . S
C478 O467 1.260 . S
C478 O468 1.258 . S
C479 O475 1.260 . S
C479 O476 1.258 . S
C480 C481 1.349 . S
C480 C482 1.327 . S
C480 H505 0.950 . S
C481 C480 1.349 . S
C481 C497 1.349 . S
C482 C480 1.327 . S
C482 C501 1.429 . S
C482 H506 0.950 . S
C483 C500 1.574 . S
C483 C502 1.368 . S
C483 H507 0.949 . S
H484 C488 0.949 . S
C485 C486 1.349 . S
C485 C487 1.327 . S
C485 H508 0.950 . S
C486 C485 1.349 . S
C486 C498 1.349 . S
C487 C485 1.327 . S
C487 C503 1.429 . S
C487 H509 0.950 . S
C488 H484 0.949 . S
C488 C496 1.574 . S
C488 C504 1.368 . S
H489 C497 0.950 . S
H490 C495 0.950 . S
H491 C496 0.949 . S
H492 C498 0.950 . S
H493 C499 0.950 . S
H494 C500 0.949 . S
C495 H490 0.950 . S
C495 C497 1.327 . S
C495 C501 1.429 . S
C496 C488 1.574 . S
C496 H491 0.949 . S
C496 C502 1.368 . S
C497 C481 1.349 . S
C497 H489 0.950 . S
C497 C495 1.327 . S
C498 C486 1.349 . S
C498 H492 0.950 . S
C498 C499 1.327 . S
C499 H493 0.950 . S
C499 C498 1.327 . S
C499 C503 1.429 . S
C500 C483 1.574 . S
C500 H494 0.949 . S
C500 C504 1.368 . S
C501 C482 1.429 . S
C501 C495 1.429 . S
C501 C502 1.523 . S
C502 C483 1.368 . S
C502 C496 1.368 . S
C502 C501 1.523 . S
C503 C487 1.429 . S
C503 C499 1.429 . S
C503 C504 1.523 . S
C504 C488 1.368 . S
C504 C500 1.368 . S
C504 C503 1.523 . S
H505 C480 0.950 . S
H506 C482 0.950 . S
H507 C483 0.949 . S
H508 C485 0.950 . S
H509 C487 0.950 . S
C510 C511 1.349 . S
C510 C512 1.327 . S
C510 H535 0.950 . S
C511 C510 1.349 . S
C511 C527 1.349 . S
C512 C510 1.327 . S
C512 C531 1.429 . S
C512 H536 0.950 . S
C513 C530 1.574 . S
C513 C532 1.368 . S
C513 H537 0.949 . S
H514 C518 0.949 . S
C515 C516 1.349 . S
C515 C517 1.327 . S
C515 H538 0.950 . S
C516 C515 1.349 . S
C516 C528 1.349 . S
C517 C515 1.327 . S
C517 C533 1.429 . S
C517 H539 0.950 . S
C518 H514 0.949 . S
C518 C526 1.574 . S
C518 C534 1.368 . S
H519 C527 0.950 . S
H520 C525 0.950 . S
H521 C526 0.949 . S
H522 C528 0.950 . S
H523 C529 0.950 . S
H524 C530 0.949 . S
C525 H520 0.950 . S
C525 C527 1.327 . S
C525 C531 1.429 . S
C526 C518 1.574 . S
C526 H521 0.949 . S
C526 C532 1.368 . S
C527 C511 1.349 . S
C527 H519 0.950 . S
C527 C525 1.327 . S
C528 C516 1.349 . S
C528 H522 0.950 . S
C528 C529 1.327 . S
C529 H523 0.950 . S
C529 C528 1.327 . S
C529 C533 1.429 . S
C530 C513 1.574 . S
C530 H524 0.949 . S
C530 C534 1.368 . S
C531 C512 1.429 . S
C531 C525 1.429 . S
C531 C532 1.523 . S
C532 C513 1.368 . S
C532 C526 1.368 . S
C532 C531 1.523 . S
C533 C517 1.429 . S
C533 C529 1.429 . S
C533 C534 1.523 . S
C534 C518 1.368 . S
C534 C530 1.368 . S
C534 C533 1.523 . S
H535 C510 0.950 . S
H536 C512 0.950 . S
H537 C513 0.949 . S
H538 C515 0.950 . S
H539 C517 0.950 . S
C540 C541 1.349 . S
C540 C542 1.327 . S
C540 H565 0.950 . S
C541 C540 1.349 . S
C541 C557 1.349 . S
C542 C540 1.327 . S
C542 C561 1.429 . S
C542 H566 0.950 . S
C543 C560 1.574 . S
C543 C562 1.368 . S
C543 H567 0.949 . S
H544 C548 0.949 . S
C545 C546 1.349 . S
C545 C547 1.327 . S
C545 H568 0.950 . S
C546 C545 1.349 . S
C546 C558 1.349 . S
C547 C545 1.327 . S
C547 C563 1.429 . S
C547 H569 0.950 . S
C548 H544 0.949 . S
C548 C556 1.574 . S
C548 C564 1.368 . S
H549 C557 0.950 . S
H550 C555 0.950 . S
H551 C556 0.949 . S
H552 C558 0.950 . S
H553 C559 0.950 . S
H554 C560 0.949 . S
C555 H550 0.950 . S
C555 C557 1.327 . S
C555 C561 1.429 . S
C556 C548 1.574 . S
C556 H551 0.949 . S
C556 C562 1.368 . S
C557 C541 1.349 . S
C557 H549 0.950 . S
C557 C555 1.327 . S
C558 C546 1.349 . S
C558 H552 0.950 . S
C558 C559 1.327 . S
C559 H553 0.950 . S
C559 C558 1.327 . S
C559 C563 1.429 . S
C560 C543 1.574 . S
C560 H554 0.949 . S
C560 C564 1.368 . S
C561 C542 1.429 . S
C561 C555 1.429 . S
C561 C562 1.523 . S
C562 C543 1.368 . S
C562 C556 1.368 . S
C562 C561 1.523 . S
C563 C547 1.429 . S
C563 C559 1.429 . S
C563 C564 1.523 . S
C564 C548 1.368 . S
C564 C560 1.368 . S
C564 C563 1.523 . S
H565 C540 0.950 . S
H566 C542 0.950 . S
H567 C543 0.949 . S
H568 C545 0.950 . S
H569 C547 0.950 . S
C570 C571 1.349 . S
C570 C572 1.327 . S
C570 H595 0.950 . S
C571 C570 1.349 . S
C571 C587 1.349 . S
C572 C570 1.327 . S
C572 C591 1.429 . S
C572 H596 0.950 . S
C573 C590 1.574 . S
C573 C592 1.368 . S
C573 H597 0.949 . S
H574 C578 0.949 . S
C575 C576 1.349 . S
C575 C577 1.327 . S
C575 H598 0.950 . S
C576 C575 1.349 . S
C576 C588 1.349 . S
C577 C575 1.327 . S
C577 C593 1.429 . S
C577 H599 0.950 . S
C578 H574 0.949 . S
C578 C586 1.574 . S
C578 C594 1.368 . S
H579 C587 0.950 . S
H580 C585 0.950 . S
H581 C586 0.949 . S
H582 C588 0.950 . S
H583 C589 0.950 . S
H584 C590 0.949 . S
C585 H580 0.950 . S
C585 C587 1.327 . S
C585 C591 1.429 . S
C586 C578 1.574 . S
C586 H581 0.949 . S
C586 C592 1.368 . S
C587 C571 1.349 . S
C587 H579 0.950 . S
C587 C585 1.327 . S
C588 C576 1.349 . S
C588 H582 0.950 . S
C588 C589 1.327 . S
C589 H583 0.950 . S
C589 C588 1.327 . S
C589 C593 1.429 . S
C590 C573 1.574 . S
C590 H584 0.949 . S
C590 C594 1.368 . S
C591 C572 1.429 . S
C591 C585 1.429 . S
C591 C592 1.523 . S
C592 C573 1.368 . S
C592 C586 1.368 . S
C592 C591 1.523 . S
C593 C577 1.429 . S
C593 C589 1.429 . S
C593 C594 1.523 . S
C594 C578 1.368 . S
C594 C590 1.368 . S
C594 C593 1.523 . S
H595 C570 0.950 . S
H596 C572 0.950 . S
H597 C573 0.949 . S
H598 C575 0.950 . S
H599 C577 0.950 . S
C600 C601 1.349 . S
C600 C602 1.327 . S
C600 H625 0.950 . S
C601 C600 1.349 . S
C601 C617 1.349 . S
C602 C600 1.327 . S
C602 C621 1.429 . S
C602 H626 0.950 . S
C603 C620 1.574 . S
C603 C622 1.368 . S
C603 H627 0.949 . S
H604 C608 0.949 . S
C605 C606 1.349 . S
C605 C607 1.327 . S
C605 H628 0.950 . S
C606 C605 1.349 . S
C606 C618 1.349 . S
C607 C605 1.327 . S
C607 C623 1.429 . S
C607 H629 0.950 . S
C608 H604 0.949 . S
C608 C616 1.574 . S
C608 C624 1.368 . S
H609 C617 0.950 . S
H610 C615 0.950 . S
H611 C616 0.949 . S
H612 C618 0.950 . S
H613 C619 0.950 . S
H614 C620 0.949 . S
C615 H610 0.950 . S
C615 C617 1.327 . S
C615 C621 1.429 . S
C616 C608 1.574 . S
C616 H611 0.949 . S
C616 C622 1.368 . S
C617 C601 1.349 . S
C617 H609 0.950 . S
C617 C615 1.327 . S
C618 C606 1.349 . S
C618 H612 0.950 . S
C618 C619 1.327 . S
C619 H613 0.950 . S
C619 C618 1.327 . S
C619 C623 1.429 . S
C620 C603 1.574 . S
C620 H614 0.949 . S
C620 C624 1.368 . S
C621 C602 1.429 . S
C621 C615 1.429 . S
C621 C622 1.523 . S
C622 C603 1.368 . S
C622 C616 1.368 . S
C622 C621 1.523 . S
C623 C607 1.429 . S
C623 C619 1.429 . S
C623 C624 1.523 . S
C624 C608 1.368 . S
C624 C620 1.368 . S
C624 C623 1.523 . S
H625 C600 0.950 . S
H626 C602 0.950 . S
H627 C603 0.949 . S
H628 C605 0.950 . S
H629 C607 0.950 . S
C630 C631 1.349 . S
C630 C632 1.327 . S
C630 H655 0.950 . S
C631 C630 1.349 . S
C631 C647 1.349 . S
C632 C630 1.327 . S
C632 C651 1.429 . S
C632 H656 0.950 . S
C633 C650 1.574 . S
C633 C652 1.368 . S
C633 H657 0.949 . S
H634 C638 0.949 . S
C635 C636 1.349 . S
C635 C637 1.327 . S
C635 H658 0.950 . S
C636 C635 1.349 . S
C636 C648 1.349 . S
C637 C635 1.327 . S
C637 C653 1.429 . S
C637 H659 0.950 . S
C638 H634 0.949 . S
C638 C646 1.574 . S
C638 C654 1.368 . S
H639 C647 0.950 . S
H640 C645 0.950 . S
H641 C646 0.949 . S
H642 C648 0.950 . S
H643 C649 0.950 . S
H644 C650 0.949 . S
C645 H640 0.950 . S
C645 C647 1.327 . S
C645 C651 1.429 . S
C646 C638 1.574 . S
C646 H641 0.949 . S
C646 C652 1.368 . S
C647 C631 1.349 . S
C647 H639 0.950 . S
C647 C645 1.327 . S
C648 C636 1.349 . S
C648 H642 0.950 . S
C648 C649 1.327 . S
C649 H643 0.950 . S
C649 C648 1.327 . S
C649 C653 1.429 . S
C650 C633 1.574 . S
C650 H644 0.949 . S
C650 C654 1.368 . S
C651 C632 1.429 . S
C651 C645 1.429 . S
C651 C652 1.523 . S
C652 C633 1.368 . S
C652 C646 1.368 . S
C652 C651 1.523 . S
C653 C637 1.429 . S
C653 C649 1.429 . S
C653 C654 1.523 . S
C654 C638 1.368 . S
C654 C650 1.368 . S
C654 C653 1.523 . S
H655 C630 0.950 . S
H656 C632 0.950 . S
H657 C633 0.949 . S
H658 C635 0.950 . S
H659 C637 0.950 . S
C660 C661 1.349 . S
C660 C662 1.327 . S
C660 H685 0.950 . S
C661 C660 1.349 . S
C661 C677 1.349 . S
C662 C660 1.327 . S
C662 C681 1.429 . S
C662 H686 0.950 . S
C663 C680 1.574 . S
C663 C682 1.368 . S
C663 H687 0.949 . S
H664 C668 0.949 . S
C665 C666 1.349 . S
C665 C667 1.327 . S
C665 H688 0.950 . S
C666 C665 1.349 . S
C666 C678 1.349 . S
C667 C665 1.327 . S
C667 C683 1.429 . S
C667 H689 0.950 . S
C668 H664 0.949 . S
C668 C676 1.574 . S
C668 C684 1.368 . S
H669 C677 0.950 . S
H670 C675 0.950 . S
H671 C676 0.949 . S
H672 C678 0.950 . S
H673 C679 0.950 . S
H674 C680 0.949 . S
C675 H670 0.950 . S
C675 C677 1.327 . S
C675 C681 1.429 . S
C676 C668 1.574 . S
C676 H671 0.949 . S
C676 C682 1.368 . S
C677 C661 1.349 . S
C677 H669 0.950 . S
C677 C675 1.327 . S
C678 C666 1.349 . S
C678 H672 0.950 . S
C678 C679 1.327 . S
C679 H673 0.950 . S
C679 C678 1.327 . S
C679 C683 1.429 . S
C680 C663 1.574 . S
C680 H674 0.949 . S
C680 C684 1.368 . S
C681 C662 1.429 . S
C681 C675 1.429 . S
C681 C682 1.523 . S
C682 C663 1.368 . S
C682 C676 1.368 . S
C682 C681 1.523 . S
C683 C667 1.429 . S
C683 C679 1.429 . S
C683 C684 1.523 . S
C684 C668 1.368 . S
C684 C680 1.368 . S
C684 C683 1.523 . S
H685 C660 0.950 . S
H686 C662 0.950 . S
H687 C663 0.949 . S
H688 C665 0.950 . S
H689 C667 0.950 . S
C690 C691 1.349 . S
C690 C692 1.327 . S
C690 H715 0.950 . S
C691 C690 1.349 . S
C691 C707 1.349 . S
C692 C690 1.327 . S
C692 C711 1.429 . S
C692 H716 0.950 . S
C693 C710 1.574 . S
C693 C712 1.368 . S
C693 H717 0.949 . S
H694 C698 0.949 . S
C695 C696 1.349 . S
C695 C697 1.327 . S
C695 H718 0.950 . S
C696 C695 1.349 . S
C696 C708 1.349 . S
C697 C695 1.327 . S
C697 C713 1.429 . S
C697 H719 0.950 . S
C698 H694 0.949 . S
C698 C706 1.574 . S
C698 C714 1.368 . S
H699 C707 0.950 . S
H700 C705 0.950 . S
H701 C706 0.949 . S
H702 C708 0.950 . S
H703 C709 0.950 . S
H704 C710 0.949 . S
C705 H700 0.950 . S
C705 C707 1.327 . S
C705 C711 1.429 . S
C706 C698 1.574 . S
C706 H701 0.949 . S
C706 C712 1.368 . S
C707 C691 1.349 . S
C707 H699 0.950 . S
C707 C705 1.327 . S
C708 C696 1.349 . S
C708 H702 0.950 . S
C708 C709 1.327 . S
C709 H703 0.950 . S
C709 C708 1.327 . S
C709 C713 1.429 . S
C710 C693 1.574 . S
C710 H704 0.949 . S
C710 C714 1.368 . S
C711 C692 1.429 . S
C711 C705 1.429 . S
C711 C712 1.523 . S
C712 C693 1.368 . S
C712 C706 1.368 . S
C712 C711 1.523 . S
C713 C697 1.429 . S
C713 C709 1.429 . S
C713 C714 1.523 . S
C714 C698 1.368 . S
C714 C710 1.368 . S
C714 C713 1.523 . S
H715 C690 0.950 . S
H716 C692 0.950 . S
H717 C693 0.949 . S
H718 C695 0.950 . S
H719 C697 0.950 . S
C720 C721 1.349 . S
C720 C722 1.327 . S
C720 H745 0.950 . S
C721 C720 1.349 . S
C721 C737 1.349 . S
C722 C720 1.327 . S
C722 C741 1.429 . S
C722 H746 0.950 . S
C723 C740 1.574 . S
C723 C742 1.368 . S
C723 H747 0.949 . S
H724 C728 0.949 . S
C725 C726 1.349 . S
C725 C727 1.327 . S
C725 H748 0.950 . S
C726 C725 1.349 . S
C726 C738 1.349 . S
C727 C725 1.327 . S
C727 C743 1.429 . S
C727 H749 0.950 . S
C728 H724 0.949 . S
C728 C736 1.574 . S
C728 C744 1.368 . S
H729 C737 0.950 . S
H730 C735 0.950 . S
H731 C736 0.949 . S
H732 C738 0.950 . S
H733 C739 0.950 . S
H734 C740 0.949 . S
C735 H730 0.950 . S
C735 C737 1.327 . S
C735 C741 1.429 . S
C736 C728 1.574 . S
C736 H731 0.949 . S
C736 C742 1.368 . S
C737 C721 1.349 . S
C737 H729 0.950 . S
C737 C735 1.327 . S
C738 C726 1.349 . S
C738 H732 0.950 . S
C738 C739 1.327 . S
C739 H733 0.950 . S
C739 C738 1.327 . S
C739 C743 1.429 . S
C740 C723 1.574 . S
C740 H734 0.949 . S
C740 C744 1.368 . S
C741 C722 1.429 . S
C741 C735 1.429 . S
C741 C742 1.523 . S
C742 C723 1.368 . S
C742 C736 1.368 . S
C742 C741 1.523 . S
C743 C727 1.429 . S
C743 C739 1.429 . S
C743 C744 1.523 . S
C744 C728 1.368 . S
C744 C740 1.368 . S
C744 C743 1.523 . S
H745 C720 0.950 . S
H746 C722 0.950 . S
H747 C723 0.949 . S
H748 C725 0.950 . S
H749 C727 0.950 . S
C750 C751 1.349 . S
C750 C752 1.327 . S
C750 H775 0.950 . S
C751 C750 1.349 . S
C751 C767 1.349 . S
C752 C750 1.327 . S
C752 C771 1.429 . S
C752 H776 0.950 . S
C753 C770 1.574 . S
C753 C772 1.368 . S
C753 H777 0.949 . S
H754 C758 0.949 . S
C755 C756 1.349 . S
C755 C757 1.327 . S
C755 H778 0.950 . S
C756 C755 1.349 . S
C756 C768 1.349 . S
C757 C755 1.327 . S
C757 C773 1.429 . S
C757 H779 0.950 . S
C758 H754 0.949 . S
C758 C766 1.574 . S
C758 C774 1.368 . S
H759 C767 0.950 . S
H760 C765 0.950 . S
H761 C766 0.949 . S
H762 C768 0.950 . S
H763 C769 0.950 . S
H764 C770 0.949 . S
C765 H760 0.950 . S
C765 C767 1.327 . S
C765 C771 1.429 . S
C766 C758 1.574 . S
C766 H761 0.949 . S
C766 C772 1.368 . S
C767 C751 1.349 . S
C767 H759 0.950 . S
C767 C765 1.327 . S
C768 C756 1.349 . S
C768 H762 0.950 . S
C768 C769 1.327 . S
C769 H763 0.950 . S
C769 C768 1.327 . S
C769 C773 1.429 . S
C770 C753 1.574 . S
C770 H764 0.949 . S
C770 C774 1.368 . S
C771 C752 1.429 . S
C771 C765 1.429 . S
C771 C772 1.523 . S
C772 C753 1.368 . S
C772 C766 1.368 . S
C772 C771 1.523 . S
C773 C757 1.429 . S
C773 C769 1.429 . S
C773 C774 1.523 . S
C774 C758 1.368 . S
C774 C770 1.368 . S
C774 C773 1.523 . S
H775 C750 0.950 . S
H776 C752 0.950 . S
H777 C753 0.949 . S
H778 C755 0.950 . S
H779 C757 0.950 . S
C780 C781 1.349 . S
C780 C782 1.327 . S
C780 H805 0.950 . S
C781 C780 1.349 . S
C781 C797 1.349 . S
C782 C780 1.327 . S
C782 C801 1.429 . S
C782 H806 0.950 . S
C783 C800 1.574 . S
C783 C802 1.368 . S
C783 H807 0.949 . S
H784 C788 0.949 . S
C785 C786 1.349 . S
C785 C787 1.327 . S
C785 H808 0.950 . S
C786 C785 1.349 . S
C786 C798 1.349 . S
C787 C785 1.327 . S
C787 C803 1.429 . S
C787 H809 0.950 . S
C788 H784 0.949 . S
C788 C796 1.574 . S
C788 C804 1.368 . S
H789 C797 0.950 . S
H790 C795 0.950 . S
H791 C796 0.949 . S
H792 C798 0.950 . S
H793 C799 0.950 . S
H794 C800 0.949 . S
C795 H790 0.950 . S
C795 C797 1.327 . S
C795 C801 1.429 . S
C796 C788 1.574 . S
C796 H791 0.949 . S
C796 C802 1.368 . S
C797 C781 1.349 . S
C797 H789 0.950 . S
C797 C795 1.327 . S
C798 C786 1.349 . S
C798 H792 0.950 . S
C798 C799 1.327 . S
C799 H793 0.950 . S
C799 C798 1.327 . S
C799 C803 1.429 . S
C800 C783 1.574 . S
C800 H794 0.949 . S
C800 C804 1.368 . S
C801 C782 1.429 . S
C801 C795 1.429 . S
C801 C802 1.523 . S
C802 C783 1.368 . S
C802 C796 1.368 . S
C802 C801 1.523 . S
C803 C787 1.429 . S
C803 C799 1.429 . S
C803 C804 1.523 . S
C804 C788 1.368 . S
C804 C800 1.368 . S
C804 C803 1.523 . S
H805 C780 0.950 . S
H806 C782 0.950 . S
H807 C783 0.949 . S
H808 C785 0.950 . S
H809 C787 0.950 . S
C810 C811 1.349 . S
C810 C812 1.327 . S
C810 H835 0.950 . S
C811 C810 1.349 . S
C811 C827 1.349 . S
C812 C810 1.327 . S
C812 C831 1.429 . S
C812 H836 0.950 . S
C813 C830 1.574 . S
C813 C832 1.368 . S
C813 H837 0.949 . S
H814 C818 0.949 . S
C815 C816 1.349 . S
C815 C817 1.327 . S
C815 H838 0.950 . S
C816 C815 1.349 . S
C816 C828 1.349 . S
C817 C815 1.327 . S
C817 C833 1.429 . S
C817 H839 0.950 . S
C818 H814 0.949 . S
C818 C826 1.574 . S
C818 C834 1.368 . S
H819 C827 0.950 . S
H820 C825 0.950 . S
H821 C826 0.949 . S
H822 C828 0.950 . S
H823 C829 0.950 . S
H824 C830 0.949 . S
C825 H820 0.950 . S
C825 C827 1.327 . S
C825 C831 1.429 . S
C826 C818 1.574 . S
C826 H821 0.949 . S
C826 C832 1.368 . S
C827 C811 1.349 . S
C827 H819 0.950 . S
C827 C825 1.327 . S
C828 C816 1.349 . S
C828 H822 0.950 . S
C828 C829 1.327 . S
C829 H823 0.950 . S
C829 C828 1.327 . S
C829 C833 1.429 . S
C830 C813 1.574 . S
C830 H824 0.949 . S
C830 C834 1.368 . S
C831 C812 1.429 . S
C831 C825 1.429 . S
C831 C832 1.523 . S
C832 C813 1.368 . S
C832 C826 1.368 . S
C832 C831 1.523 . S
C833 C817 1.429 . S
C833 C829 1.429 . S
C833 C834 1.523 . S
C834 C818 1.368 . S
C834 C830 1.368 . S
C834 C833 1.523 . S
H835 C810 0.950 . S
H836 C812 0.950 . S
H837 C813 0.949 . S
H838 C815 0.950 . S
H839 C817 0.950 . S
C840 C841 1.349 . S
C840 C842 1.327 . S
C840 H865 0.950 . S
C841 C840 1.349 . S
C841 C857 1.349 . S
C842 C840 1.327 . S
C842 C861 1.429 . S
C842 H866 0.950 . S
C843 C860 1.574 . S
C843 C862 1.368 . S
C843 H867 0.949 . S
H844 C848 0.949 . S
C845 C846 1.349 . S
C845 C847 1.327 . S
C845 H868 0.950 . S
C846 C845 1.349 . S
C846 C858 1.349 . S
C847 C845 1.327 . S
C847 C863 1.429 . S
C847 H869 0.950 . S
C848 H844 0.949 . S
C848 C856 1.574 . S
C848 C864 1.368 . S
H849 C857 0.950 . S
H850 C855 0.950 . S
H851 C856 0.949 . S
H852 C858 0.950 . S
H853 C859 0.950 . S
H854 C860 0.949 . S
C855 H850 0.950 . S
C855 C857 1.327 . S
C855 C861 1.429 . S
C856 C848 1.574 . S
C856 H851 0.949 . S
C856 C862 1.368 . S
C857 C841 1.349 . S
C857 H849 0.950 . S
C857 C855 1.327 . S
C858 C846 1.349 . S
C858 H852 0.950 . S
C858 C859 1.327 . S
C859 H853 0.950 . S
C859 C858 1.327 . S
C859 C863 1.429 . S
C860 C843 1.574 . S
C860 H854 0.949 . S
C860 C864 1.368 . S
C861 C842 1.429 . S
C861 C855 1.429 . S
C861 C862 1.523 . S
C862 C843 1.368 . S
C862 C856 1.368 . S
C862 C861 1.523 . S
C863 C847 1.429 . S
C863 C859 1.429 . S
C863 C864 1.523 . S
C864 C848 1.368 . S
C864 C860 1.368 . S
C864 C863 1.523 . S
H865 C840 0.950 . S
H866 C842 0.950 . S
H867 C843 0.949 . S
H868 C845 0.950 . S
H869 C847 0.950 . S
C870 C871 1.349 . S
C870 C872 1.327 . S
C870 H895 0.950 . S
C871 C870 1.349 . S
C871 C887 1.349 . S
C872 C870 1.327 . S
C872 C891 1.429 . S
C872 H896 0.950 . S
C873 C890 1.574 . S
C873 C892 1.368 . S
C873 H897 0.949 . S
H874 C878 0.949 . S
C875 C876 1.349 . S
C875 C877 1.327 . S
C875 H898 0.950 . S
C876 C875 1.349 . S
C876 C888 1.349 . S
C877 C875 1.327 . S
C877 C893 1.429 . S
C877 H899 0.950 . S
C878 H874 0.949 . S
C878 C886 1.574 . S
C878 C894 1.368 . S
H879 C887 0.950 . S
H880 C885 0.950 . S
H881 C886 0.949 . S
H882 C888 0.950 . S
H883 C889 0.950 . S
H884 C890 0.949 . S
C885 H880 0.950 . S
C885 C887 1.327 . S
C885 C891 1.429 . S
C886 C878 1.574 . S
C886 H881 0.949 . S
C886 C892 1.368 . S
C887 C871 1.349 . S
C887 H879 0.950 . S
C887 C885 1.327 . S
C888 C876 1.349 . S
C888 H882 0.950 . S
C888 C889 1.327 . S
C889 H883 0.950 . S
C889 C888 1.327 . S
C889 C893 1.429 . S
C890 C873 1.574 . S
C890 H884 0.949 . S
C890 C894 1.368 . S
C891 C872 1.429 . S
C891 C885 1.429 . S
C891 C892 1.523 . S
C892 C873 1.368 . S
C892 C886 1.368 . S
C892 C891 1.523 . S
C893 C877 1.429 . S
C893 C889 1.429 . S
C893 C894 1.523 . S
C894 C878 1.368 . S
C894 C890 1.368 . S
C894 C893 1.523 . S
H895 C870 0.950 . S
H896 C872 0.950 . S
H897 C873 0.949 . S
H898 C875 0.950 . S
H899 C877 0.950 . S
C900 C901 1.349 . S
C900 C902 1.327 . S
C900 H925 0.950 . S
C901 C900 1.349 . S
C901 C917 1.349 . S
C902 C900 1.327 . S
C902 C921 1.429 . S
C902 H926 0.950 . S
C903 C920 1.574 . S
C903 C922 1.368 . S
C903 H927 0.949 . S
H904 C908 0.949 . S
C905 C906 1.349 . S
C905 C907 1.327 . S
C905 H928 0.950 . S
C906 C905 1.349 . S
C906 C918 1.349 . S
C907 C905 1.327 . S
C907 C923 1.429 . S
C907 H929 0.950 . S
C908 H904 0.949 . S
C908 C916 1.574 . S
C908 C924 1.368 . S
H909 C917 0.950 . S
H910 C915 0.950 . S
H911 C916 0.949 . S
H912 C918 0.950 . S
H913 C919 0.950 . S
H914 C920 0.949 . S
C915 H910 0.950 . S
C915 C917 1.327 . S
C915 C921 1.429 . S
C916 C908 1.574 . S
C916 H911 0.949 . S
C916 C922 1.368 . S
C917 C901 1.349 . S
C917 H909 0.950 . S
C917 C915 1.327 . S
C918 C906 1.349 . S
C918 H912 0.950 . S
C918 C919 1.327 . S
C919 H913 0.950 . S
C919 C918 1.327 . S
C919 C923 1.429 . S
C920 C903 1.574 . S
C920 H914 0.949 . S
C920 C924 1.368 . S
C921 C902 1.429 . S
C921 C915 1.429 . S
C921 C922 1.523 . S
C922 C903 1.368 . S
C922 C916 1.368 . S
C922 C921 1.523 . S
C923 C907 1.429 . S
C923 C919 1.429 . S
C923 C924 1.523 . S
C924 C908 1.368 . S
C924 C920 1.368 . S
C924 C923 1.523 . S
H925 C900 0.950 . S
H926 C902 0.950 . S
H927 C903 0.949 . S
H928 C905 0.950 . S
H929 C907 0.950 . S
C930 C931 1.349 . S
C930 C932 1.327 . S
C930 H955 0.950 . S
C931 C930 1.349 . S
C931 C947 1.349 . S
C932 C930 1.327 . S
C932 C951 1.429 . S
C932 H956 0.950 . S
C933 C950 1.574 . S
C933 C952 1.368 . S
C933 H957 0.949 . S
H934 C938 0.949 . S
C935 C936 1.349 . S
C935 C937 1.327 . S
C935 H958 0.950 . S
C936 C935 1.349 . S
C936 C948 1.349 . S
C937 C935 1.327 . S
C937 C953 1.429 . S
C937 H959 0.950 . S
C938 H934 0.949 . S
C938 C946 1.574 . S
C938 C954 1.368 . S
H939 C947 0.950 . S
H940 C945 0.950 . S
H941 C946 0.949 . S
H942 C948 0.950 . S
H943 C949 0.950 . S
H944 C950 0.949 . S
C945 H940 0.950 . S
C945 C947 1.327 . S
C945 C951 1.429 . S
C946 C938 1.574 . S
C946 H941 0.949 . S
C946 C952 1.368 . S
C947 C931 1.349 . S
C947 H939 0.950 . S
C947 C945 1.327 . S
C948 C936 1.349 . S
C948 H942 0.950 . S
C948 C949 1.327 . S
C949 H943 0.950 . S
C949 C948 1.327 . S
C949 C953 1.429 . S
C950 C933 1.574 . S
C950 H944 0.949 . S
C950 C954 1.368 . S
C951 C932 1.429 . S
C951 C945 1.429 . S
C951 C952 1.523 . S
C952 C933 1.368 . S
C952 C946 1.368 . S
C952 C951 1.523 . S
C953 C937 1.429 . S
C953 C949 1.429 . S
C953 C954 1.523 . S
C954 C938 1.368 . S
C954 C950 1.368 . S
C954 C953 1.523 . S
H955 C930 0.950 . S
H956 C932 0.950 . S
H957 C933 0.949 . S
H958 C935 0.950 . S
H959 C937 0.950 . S
C960 C961 1.349 . S
C960 C962 1.327 . S
C960 H985 0.950 . S
C961 C960 1.349 . S
C961 C977 1.349 . S
C962 C960 1.327 . S
C962 C981 1.429 . S
C962 H986 0.950 . S
C963 C980 1.574 . S
C963 C982 1.368 . S
C963 H987 0.949 . S
H964 C968 0.949 . S
C965 C966 1.349 . S
C965 C967 1.327 . S
C965 H988 0.950 . S
C966 C965 1.349 . S
C966 C978 1.349 . S
C967 C965 1.327 . S
C967 C983 1.429 . S
C967 H989 0.950 . S
C968 H964 0.949 . S
C968 C976 1.574 . S
C968 C984 1.368 . S
H969 C977 0.950 . S
H970 C975 0.950 . S
H971 C976 0.949 . S
H972 C978 0.950 . S
H973 C979 0.950 . S
H974 C980 0.949 . S
C975 H970 0.950 . S
C975 C977 1.327 . S
C975 C981 1.429 . S
C976 C968 1.574 . S
C976 H971 0.949 . S
C976 C982 1.368 . S
C977 C961 1.349 . S
C977 H969 0.950 . S
C977 C975 1.327 . S
C978 C966 1.349 . S
C978 H972 0.950 . S
C978 C979 1.327 . S
C979 H973 0.950 . S
C979 C978 1.327 . S
C979 C983 1.429 . S
C980 C963 1.574 . S
C980 H974 0.949 . S
C980 C984 1.368 . S
C981 C962 1.429 . S
C981 C975 1.429 . S
C981 C982 1.523 . S
C982 C963 1.368 . S
C982 C976 1.368 . S
C982 C981 1.523 . S
C983 C967 1.429 . S
C983 C979 1.429 . S
C983 C984 1.523 . S
C984 C968 1.368 . S
C984 C980 1.368 . S
C984 C983 1.523 . S
H985 C960 0.950 . S
H986 C962 0.950 . S
H987 C963 0.949 . S
H988 C965 0.950 . S
H989 C967 0.950 . S
C990 C991 1.349 . S
C990 C992 1.327 . S
C990 H1015 0.950 . S
C991 C990 1.349 . S
C991 C1007 1.349 . S
C992 C990 1.327 . S
C992 C1011 1.429 . S
C992 H1016 0.950 . S
C993 C1010 1.574 . S
C993 C1012 1.368 . S
C993 H1017 0.949 . S
H994 C998 0.949 . S
C995 C996 1.349 . S
C995 C997 1.327 . S
C995 H1018 0.950 . S
C996 C995 1.349 . S
C996 C1008 1.349 . S
C997 C995 1.327 . S
C997 C1013 1.429 . S
C997 H1019 0.950 . S
C998 H994 0.949 . S
C998 C1006 1.574 . S
C998 C1014 1.368 . S
H999 C1007 0.950 . S
H1000 C1005 0.950 . S
H1001 C1006 0.949 . S
H1002 C1008 0.950 . S
H1003 C1009 0.950 . S
H1004 C1010 0.949 . S
C1005 H1000 0.950 . S
C1005 C1007 1.327 . S
C1005 C1011 1.429 . S
C1006 C998 1.574 . S
C1006 H1001 0.949 . S
C1006 C1012 1.368 . S
C1007 C991 1.349 . S
C1007 H999 0.950 . S
C1007 C1005 1.327 . S
C1008 C996 1.349 . S
C1008 H1002 0.950 . S
C1008 C1009 1.327 . S
C1009 H1003 0.950 . S
C1009 C1008 1.327 . S
C1009 C1013 1.429 . S
C1010 C993 1.574 . S
C1010 H1004 0.949 . S
C1010 C1014 1.368 . S
C1011 C992 1.429 . S
C1011 C1005 1.429 . S
C1011 C1012 1.523 . S
C1012 C993 1.368 . S
C1012 C1006 1.368 . S
C1012 C1011 1.523 . S
C1013 C997 1.429 . S
C1013 C1009 1.429 . S
C1013 C1014 1.523 . S
C1014 C998 1.368 . S
C1014 C1010 1.368 . S
C1014 C1013 1.523 . S
H1015 C990 0.950 . S
H1016 C992 0.950 . S
H1017 C993 0.949 . S
H1018 C995 0.950 . S
H1019 C997 0.950 . S
C1020 C1021 1.349 . S
C1020 C1022 1.327 . S
C1020 H1045 0.950 . S
C1021 C1020 1.349 . S
C1021 C1037 1.349 . S
C1022 C1020 1.327 . S
C1022 C1041 1.429 . S
C1022 H1046 0.950 . S
C1023 C1040 1.574 . S
C1023 C1042 1.368 . S
C1023 H1047 0.949 . S
H1024 C1028 0.949 . S
C1025 C1026 1.349 . S
C1025 C1027 1.327 . S
C1025 H1048 0.950 . S
C1026 C1025 1.349 . S
C1026 C1038 1.349 . S
C1027 C1025 1.327 . S
C1027 C1043 1.429 . S
C1027 H1049 0.950 . S
C1028 H1024 0.949 . S
C1028 C1036 1.574 . S
C1028 C1044 1.368 . S
H1029 C1037 0.950 . S
H1030 C1035 0.950 . S
H1031 C1036 0.949 . S
H1032 C1038 0.950 . S
H1033 C1039 0.950 . S
H1034 C1040 0.949 . S
C1035 H1030 0.950 . S
C1035 C1037 1.327 . S
C1035 C1041 1.429 . S
C1036 C1028 1.574 . S
C1036 H1031 0.949 . S
C1036 C1042 1.368 . S
C1037 C1021 1.349 . S
C1037 H1029 0.950 . S
C1037 C1035 1.327 . S
C1038 C1026 1.349 . S
C1038 H1032 0.950 . S
C1038 C1039 1.327 . S
C1039 H1033 0.950 . S
C1039 C1038 1.327 . S
C1039 C1043 1.429 . S
C1040 C1023 1.574 . S
C1040 H1034 0.949 . S
C1040 C1044 1.368 . S
C1041 C1022 1.429 . S
C1041 C1035 1.429 . S
C1041 C1042 1.523 . S
C1042 C1023 1.368 . S
C1042 C1036 1.368 . S
C1042 C1041 1.523 . S
C1043 C1027 1.429 . S
C1043 C1039 1.429 . S
C1043 C1044 1.523 . S
C1044 C1028 1.368 . S
C1044 C1040 1.368 . S
C1044 C1043 1.523 . S
H1045 C1020 0.950 . S
H1046 C1022 0.950 . S
H1047 C1023 0.949 . S
H1048 C1025 0.950 . S
H1049 C1027 0.950 . S
C1050 C1051 1.349 . S
C1050 C1052 1.327 . S
C1050 H1075 0.950 . S
C1051 C1050 1.349 . S
C1051 C1067 1.349 . S
C1052 C1050 1.327 . S
C1052 C1071 1.429 . S
C1052 H1076 0.950 . S
C1053 C1070 1.574 . S
C1053 C1072 1.368 . S
C1053 H1077 0.949 . S
H1054 C1058 0.949 . S
C1055 C1056 1.349 . S
C1055 C1057 1.327 . S
C1055 H1078 0.950 . S
C1056 C1055 1.349 . S
C1056 C1068 1.349 . S
C1057 C1055 1.327 . S
C1057 C1073 1.429 . S
C1057 H1079 0.950 . S
C1058 H1054 0.949 . S
C1058 C1066 1.574 . S
C1058 C1074 1.368 . S
H1059 C1067 0.950 . S
H1060 C1065 0.950 . S
H1061 C1066 0.949 . S
H1062 C1068 0.950 . S
H1063 C1069 0.950 . S
H1064 C1070 0.949 . S
C1065 H1060 0.950 . S
C1065 C1067 1.327 . S
C1065 C1071 1.429 . S
C1066 C1058 1.574 . S
C1066 H1061 0.949 . S
C1066 C1072 1.368 . S
C1067 C1051 1.349 . S
C1067 H1059 0.950 . S
C1067 C1065 1.327 . S
C1068 C1056 1.349 . S
C1068 H1062 0.950 . S
C1068 C1069 1.327 . S
C1069 H1063 0.950 . S
C1069 C1068 1.327 . S
C1069 C1073 1.429 . S
C1070 C1053 1.574 . S
C1070 H1064 0.949 . S
C1070 C1074 1.368 . S
C1071 C1052 1.429 . S
C1071 C1065 1.429 . S
C1071 C1072 1.523 . S
C1072 C1053 1.368 . S
C1072 C1066 1.368 . S
C1072 C1071 1.523 . S
C1073 C1057 1.429 . S
C1073 C1069 1.429 . S
C1073 C1074 1.523 . S
C1074 C1058 1.368 . S
C1074 C1070 1.368 . S
C1074 C1073 1.523 . S
H1075 C1050 0.950 . S
H1076 C1052 0.950 . S
H1077 C1053 0.949 . S
H1078 C1055 0.950 . S
H1079 C1057 0.950 . S
C1080 C1081 1.349 . S
C1080 C1082 1.327 . S
C1080 H1105 0.950 . S
C1081 C1080 1.349 . S
C1081 C1097 1.349 . S
C1082 C1080 1.327 . S
C1082 C1101 1.429 . S
C1082 H1106 0.950 . S
C1083 C1100 1.574 . S
C1083 C1102 1.368 . S
C1083 H1107 0.949 . S
H1084 C1088 0.949 . S
C1085 C1086 1.349 . S
C1085 C1087 1.327 . S
C1085 H1108 0.950 . S
C1086 C1085 1.349 . S
C1086 C1098 1.349 . S
C1087 C1085 1.327 . S
C1087 C1103 1.429 . S
C1087 H1109 0.950 . S
C1088 H1084 0.949 . S
C1088 C1096 1.574 . S
C1088 C1104 1.368 . S
H1089 C1097 0.950 . S
H1090 C1095 0.950 . S
H1091 C1096 0.949 . S
H1092 C1098 0.950 . S
H1093 C1099 0.950 . S
H1094 C1100 0.949 . S
C1095 H1090 0.950 . S
C1095 C1097 1.327 . S
C1095 C1101 1.429 . S
C1096 C1088 1.574 . S
C1096 H1091 0.949 . S
C1096 C1102 1.368 . S
C1097 C1081 1.349 . S
C1097 H1089 0.950 . S
C1097 C1095 1.327 . S
C1098 C1086 1.349 . S
C1098 H1092 0.950 . S
C1098 C1099 1.327 . S
C1099 H1093 0.950 . S
C1099 C1098 1.327 . S
C1099 C1103 1.429 . S
C1100 C1083 1.574 . S
C1100 H1094 0.949 . S
C1100 C1104 1.368 . S
C1101 C1082 1.429 . S
C1101 C1095 1.429 . S
C1101 C1102 1.523 . S
C1102 C1083 1.368 . S
C1102 C1096 1.368 . S
C1102 C1101 1.523 . S
C1103 C1087 1.429 . S
C1103 C1099 1.429 . S
C1103 C1104 1.523 . S
C1104 C1088 1.368 . S
C1104 C1100 1.368 . S
C1104 C1103 1.523 . S
H1105 C1080 0.950 . S
H1106 C1082 0.950 . S
H1107 C1083 0.949 . S
H1108 C1085 0.950 . S
H1109 C1087 0.950 . S
C1110 C1111 1.349 . S
C1110 C1112 1.327 . S
C1110 H1135 0.950 . S
C1111 C1110 1.349 . S
C1111 C1127 1.349 . S
C1112 C1110 1.327 . S
C1112 C1131 1.429 . S
C1112 H1136 0.950 . S
C1113 C1130 1.574 . S
C1113 C1132 1.368 . S
C1113 H1137 0.949 . S
H1114 C1118 0.949 . S
C1115 C1116 1.349 . S
C1115 C1117 1.327 . S
C1115 H1138 0.950 . S
C1116 C1115 1.349 . S
C1116 C1128 1.349 . S
C1117 C1115 1.327 . S
C1117 C1133 1.429 . S
C1117 H1139 0.950 . S
C1118 H1114 0.949 . S
C1118 C1126 1.574 . S
C1118 C1134 1.368 . S
H1119 C1127 0.950 . S
H1120 C1125 0.950 . S
H1121 C1126 0.949 . S
H1122 C1128 0.950 . S
H1123 C1129 0.950 . S
H1124 C1130 0.949 . S
C1125 H1120 0.950 . S
C1125 C1127 1.327 . S
C1125 C1131 1.429 . S
C1126 C1118 1.574 . S
C1126 H1121 0.949 . S
C1126 C1132 1.368 . S
C1127 C1111 1.349 . S
C1127 H1119 0.950 . S
C1127 C1125 1.327 . S
C1128 C1116 1.349 . S
C1128 H1122 0.950 . S
C1128 C1129 1.327 . S
C1129 H1123 0.950 . S
C1129 C1128 1.327 . S
C1129 C1133 1.429 . S
C1130 C1113 1.574 . S
C1130 H1124 0.949 . S
C1130 C1134 1.368 . S
C1131 C1112 1.429 . S
C1131 C1125 1.429 . S
C1131 C1132 1.523 . S
C1132 C1113 1.368 . S
C1132 C1126 1.368 . S
C1132 C1131 1.523 . S
C1133 C1117 1.429 . S
C1133 C1129 1.429 . S
C1133 C1134 1.523 . S
C1134 C1118 1.368 . S
C1134 C1130 1.368 . S
C1134 C1133 1.523 . S
H1135 C1110 0.950 . S
H1136 C1112 0.950 . S
H1137 C1113 0.949 . S
H1138 C1115 0.950 . S
H1139 C1117 0.950 . S
C1140 C1141 1.349 . S
C1140 C1142 1.327 . S
C1140 H1165 0.950 . S
C1141 C1140 1.349 . S
C1141 C1157 1.349 . S
C1142 C1140 1.327 . S
C1142 C1161 1.429 . S
C1142 H1166 0.950 . S
C1143 C1160 1.574 . S
C1143 C1162 1.368 . S
C1143 H1167 0.949 . S
H1144 C1148 0.949 . S
C1145 C1146 1.349 . S
C1145 C1147 1.327 . S
C1145 H1168 0.950 . S
C1146 C1145 1.349 . S
C1146 C1158 1.349 . S
C1147 C1145 1.327 . S
C1147 C1163 1.429 . S
C1147 H1169 0.950 . S
C1148 H1144 0.949 . S
C1148 C1156 1.574 . S
C1148 C1164 1.368 . S
H1149 C1157 0.950 . S
H1150 C1155 0.950 . S
H1151 C1156 0.949 . S
H1152 C1158 0.950 . S
H1153 C1159 0.950 . S
H1154 C1160 0.949 . S
C1155 H1150 0.950 . S
C1155 C1157 1.327 . S
C1155 C1161 1.429 . S
C1156 C1148 1.574 . S
C1156 H1151 0.949 . S
C1156 C1162 1.368 . S
C1157 C1141 1.349 . S
C1157 H1149 0.950 . S
C1157 C1155 1.327 . S
C1158 C1146 1.349 . S
C1158 H1152 0.950 . S
C1158 C1159 1.327 . S
C1159 H1153 0.950 . S
C1159 C1158 1.327 . S
C1159 C1163 1.429 . S
C1160 C1143 1.574 . S
C1160 H1154 0.949 . S
C1160 C1164 1.368 . S
C1161 C1142 1.429 . S
C1161 C1155 1.429 . S
C1161 C1162 1.523 . S
C1162 C1143 1.368 . S
C1162 C1156 1.368 . S
C1162 C1161 1.523 . S
C1163 C1147 1.429 . S
C1163 C1159 1.429 . S
C1163 C1164 1.523 . S
C1164 C1148 1.368 . S
C1164 C1160 1.368 . S
C1164 C1163 1.523 . S
H1165 C1140 0.950 . S
H1166 C1142 0.950 . S
H1167 C1143 0.949 . S
H1168 C1145 0.950 . S
H1169 C1147 0.950 . S
C1170 C1171 1.349 . S
C1170 C1172 1.327 . S
C1170 H1195 0.950 . S
C1171 C1170 1.349 . S
C1171 C1187 1.349 . S
C1172 C1170 1.327 . S
C1172 C1191 1.429 . S
C1172 H1196 0.950 . S
C1173 C1190 1.574 . S
C1173 C1192 1.368 . S
C1173 H1197 0.949 . S
H1174 C1178 0.949 . S
C1175 C1176 1.349 . S
C1175 C1177 1.327 . S
C1175 H1198 0.950 . S
C1176 C1175 1.349 . S
C1176 C1188 1.349 . S
C1177 C1175 1.327 . S
C1177 C1193 1.429 . S
C1177 H1199 0.950 . S
C1178 H1174 0.949 . S
C1178 C1186 1.574 . S
C1178 C1194 1.368 . S
H1179 C1187 0.950 . S
H1180 C1185 0.950 . S
H1181 C1186 0.949 . S
H1182 C1188 0.950 . S
H1183 C1189 0.950 . S
H1184 C1190 0.949 . S
C1185 H1180 0.950 . S
C1185 C1187 1.327 . S
C1185 C1191 1.429 . S
C1186 C1178 1.574 . S
C1186 H1181 0.949 . S
C1186 C1192 1.368 . S
C1187 C1171 1.349 . S
C1187 H1179 0.950 . S
C1187 C1185 1.327 . S
C1188 C1176 1.349 . S
C1188 H1182 0.950 . S
C1188 C1189 1.327 . S
C1189 H1183 0.950 . S
C1189 C1188 1.327 . S
C1189 C1193 1.429 . S
C1190 C1173 1.574 . S
C1190 H1184 0.949 . S
C1190 C1194 1.368 . S
C1191 C1172 1.429 . S
C1191 C1185 1.429 . S
C1191 C1192 1.523 . S
C1192 C1173 1.368 . S
C1192 C1186 1.368 . S
C1192 C1191 1.523 . S
C1193 C1177 1.429 . S
C1193 C1189 1.429 . S
C1193 C1194 1.523 . S
C1194 C1178 1.368 . S
C1194 C1190 1.368 . S
C1194 C1193 1.523 . S
H1195 C1170 0.950 . S
H1196 C1172 0.950 . S
H1197 C1173 0.949 . S
H1198 C1175 0.950 . S
H1199 C1177 0.950 . S
C1200 C1201 1.349 . S
C1200 C1202 1.327 . S
C1200 H1225 0.950 . S
C1201 C1200 1.349 . S
C1201 C1217 1.349 . S
C1202 C1200 1.327 . S
C1202 C1221 1.429 . S
C1202 H1226 0.950 . S
C1203 C1220 1.574 . S
C1203 C1222 1.368 . S
C1203 H1227 0.949 . S
H1204 C1208 0.949 . S
C1205 C1206 1.349 . S
C1205 C1207 1.327 . S
C1205 H1228 0.950 . S
C1206 C1205 1.349 . S
C1206 C1218 1.349 . S
C1207 C1205 1.327 . S
C1207 C1223 1.429 . S
C1207 H1229 0.950 . S
C1208 H1204 0.949 . S
C1208 C1216 1.574 . S
C1208 C1224 1.368 . S
H1209 C1217 0.950 . S
H1210 C1215 0.950 . S
H1211 C1216 0.949 . S
H1212 C1218 0.950 . S
H1213 C1219 0.950 . S
H1214 C1220 0.949 . S
C1215 H1210 0.950 . S
C1215 C1217 1.327 . S
C1215 C1221 1.429 . S
C1216 C1208 1.574 . S
C1216 H1211 0.949 . S
C1216 C1222 1.368 . S
C1217 C1201 1.349 . S
C1217 H1209 0.950 . S
C1217 C1215 1.327 . S
C1218 C1206 1.349 . S
C1218 H1212 0.950 . S
C1218 C1219 1.327 . S
C1219 H1213 0.950 . S
C1219 C1218 1.327 . S
C1219 C1223 1.429 . S
C1220 C1203 1.574 . S
C1220 H1214 0.949 . S
C1220 C1224 1.368 . S
C1221 C1202 1.429 . S
C1221 C1215 1.429 . S
C1221 C1222 1.523 . S
C1222 C1203 1.368 . S
C1222 C1216 1.368 . S
C1222 C1221 1.523 . S
C1223 C1207 1.429 . S
C1223 C1219 1.429 . S
C1223 C1224 1.523 . S
C1224 C1208 1.368 . S
C1224 C1220 1.368 . S
C1224 C1223 1.523 . S
H1225 C1200 0.950 . S
H1226 C1202 0.950 . S
H1227 C1203 0.949 . S
H1228 C1205 0.950 . S
H1229 C1207 0.950 . S
C1230 C1231 1.349 . S
C1230 C1232 1.327 . S
C1230 H1255 0.950 . S
C1231 C1230 1.349 . S
C1231 C1247 1.349 . S
C1232 C1230 1.327 . S
C1232 C1251 1.429 . S
C1232 H1256 0.950 . S
C1233 C1250 1.574 . S
C1233 C1252 1.368 . S
C1233 H1257 0.949 . S
H1234 C1238 0.949 . S
C1235 C1236 1.349 . S
C1235 C1237 1.327 . S
C1235 H1258 0.950 . S
C1236 C1235 1.349 . S
C1236 C1248 1.349 . S
C1237 C1235 1.327 . S
C1237 C1253 1.429 . S
C1237 H1259 0.950 . S
C1238 H1234 0.949 . S
C1238 C1246 1.574 . S
C1238 C1254 1.368 . S
H1239 C1247 0.950 . S
H1240 C1245 0.950 . S
H1241 C1246 0.949 . S
H1242 C1248 0.950 . S
H1243 C1249 0.950 . S
H1244 C1250 0.949 . S
C1245 H1240 0.950 . S
C1245 C1247 1.327 . S
C1245 C1251 1.429 . S
C1246 C1238 1.574 . S
C1246 H1241 0.949 . S
C1246 C1252 1.368 . S
C1247 C1231 1.349 . S
C1247 H1239 0.950 . S
C1247 C1245 1.327 . S
C1248 C1236 1.349 . S
C1248 H1242 0.950 . S
C1248 C1249 1.327 . S
C1249 H1243 0.950 . S
C1249 C1248 1.327 . S
C1249 C1253 1.429 . S
C1250 C1233 1.574 . S
C1250 H1244 0.949 . S
C1250 C1254 1.368 . S
C1251 C1232 1.429 . S
C1251 C1245 1.429 . S
C1251 C1252 1.523 . S
C1252 C1233 1.368 . S
C1252 C1246 1.368 . S
C1252 C1251 1.523 . S
C1253 C1237 1.429 . S
C1253 C1249 1.429 . S
C1253 C1254 1.523 . S
C1254 C1238 1.368 . S
C1254 C1250 1.368 . S
C1254 C1253 1.523 . S
H1255 C1230 0.950 . S
H1256 C1232 0.950 . S
H1257 C1233 0.949 . S
H1258 C1235 0.950 . S
H1259 C1237 0.950 . S
C1260 C1261 1.349 . S
C1260 C1262 1.327 . S
C1260 H1285 0.950 . S
C1261 C1260 1.349 . S
C1261 C1277 1.349 . S
C1262 C1260 1.327 . S
C1262 C1281 1.429 . S
C1262 H1286 0.950 . S
C1263 C1280 1.574 . S
C1263 C1282 1.368 . S
C1263 H1287 0.949 . S
H1264 C1268 0.949 . S
C1265 C1266 1.349 . S
C1265 C1267 1.327 . S
C1265 H1288 0.950 . S
C1266 C1265 1.349 . S
C1266 C1278 1.349 . S
C1267 C1265 1.327 . S
C1267 C1283 1.429 . S
C1267 H1289 0.950 . S
C1268 H1264 0.949 . S
C1268 C1276 1.574 . S
C1268 C1284 1.368 . S
H1269 C1277 0.950 . S
H1270 C1275 0.950 . S
H1271 C1276 0.949 . S
H1272 C1278 0.950 . S
H1273 C1279 0.950 . S
H1274 C1280 0.949 . S
C1275 H1270 0.950 . S
C1275 C1277 1.327 . S
C1275 C1281 1.429 . S
C1276 C1268 1.574 . S
C1276 H1271 0.949 . S
C1276 C1282 1.368 . S
C1277 C1261 1.349 . S
C1277 H1269 0.950 . S
C1277 C1275 1.327 . S
C1278 C1266 1.349 . S
C1278 H1272 0.950 . S
C1278 C1279 1.327 . S
C1279 H1273 0.950 . S
C1279 C1278 1.327 . S
C1279 C1283 1.429 . S
C1280 C1263 1.574 . S
C1280 H1274 0.949 . S
C1280 C1284 1.368 . S
C1281 C1262 1.429 . S
C1281 C1275 1.429 . S
C1281 C1282 1.523 . S
C1282 C1263 1.368 . S
C1282 C1276 1.368 . S
C1282 C1281 1.523 . S
C1283 C1267 1.429 . S
C1283 C1279 1.429 . S
C1283 C1284 1.523 . S
C1284 C1268 1.368 . S
C1284 C1280 1.368 . S
C1284 C1283 1.523 . S
H1285 C1260 0.950 . S
H1286 C1262 0.950 . S
H1287 C1263 0.949 . S
H1288 C1265 0.950 . S
H1289 C1267 0.950 . S
C1290 C1291 1.349 . S
C1290 C1292 1.327 . S
C1290 H1315 0.950 . S
C1291 C1290 1.349 . S
C1291 C1307 1.349 . S
C1292 C1290 1.327 . S
C1292 C1311 1.429 . S
C1292 H1316 0.950 . S
C1293 C1310 1.574 . S
C1293 C1312 1.368 . S
C1293 H1317 0.949 . S
H1294 C1298 0.949 . S
C1295 C1296 1.349 . S
C1295 C1297 1.327 . S
C1295 H1318 0.950 . S
C1296 C1295 1.349 . S
C1296 C1308 1.349 . S
C1297 C1295 1.327 . S
C1297 C1313 1.429 . S
C1297 H1319 0.950 . S
C1298 H1294 0.949 . S
C1298 C1306 1.574 . S
C1298 C1314 1.368 . S
H1299 C1307 0.950 . S
H1300 C1305 0.950 . S
H1301 C1306 0.949 . S
H1302 C1308 0.950 . S
H1303 C1309 0.950 . S
H1304 C1310 0.949 . S
C1305 H1300 0.950 . S
C1305 C1307 1.327 . S
C1305 C1311 1.429 . S
C1306 C1298 1.574 . S
C1306 H1301 0.949 . S
C1306 C1312 1.368 . S
C1307 C1291 1.349 . S
C1307 H1299 0.950 . S
C1307 C1305 1.327 . S
C1308 C1296 1.349 . S
C1308 H1302 0.950 . S
C1308 C1309 1.327 . S
C1309 H1303 0.950 . S
C1309 C1308 1.327 . S
C1309 C1313 1.429 . S
C1310 C1293 1.574 . S
C1310 H1304 0.949 . S
C1310 C1314 1.368 . S
C1311 C1292 1.429 . S
C1311 C1305 1.429 . S
C1311 C1312 1.523 . S
C1312 C1293 1.368 . S
C1312 C1306 1.368 . S
C1312 C1311 1.523 . S
C1313 C1297 1.429 . S
C1313 C1309 1.429 . S
C1313 C1314 1.523 . S
C1314 C1298 1.368 . S
C1314 C1310 1.368 . S
C1314 C1313 1.523 . S
H1315 C1290 0.950 . S
H1316 C1292 0.950 . S
H1317 C1293 0.949 . S
H1318 C1295 0.950 . S
H1319 C1297 0.950 . S
C1320 C1321 1.349 . S
C1320 C1322 1.327 . S
C1320 H1345 0.950 . S
C1321 C1320 1.349 . S
C1321 C1337 1.349 . S
C1322 C1320 1.327 . S
C1322 C1341 1.429 . S
C1322 H1346 0.950 . S
C1323 C1340 1.574 . S
C1323 C1342 1.368 . S
C1323 H1347 0.949 . S
H1324 C1328 0.949 . S
C1325 C1326 1.349 . S
C1325 C1327 1.327 . S
C1325 H1348 0.950 . S
C1326 C1325 1.349 . S
C1326 C1338 1.349 . S
C1327 C1325 1.327 . S
C1327 C1343 1.429 . S
C1327 H1349 0.950 . S
C1328 H1324 0.949 . S
C1328 C1336 1.574 . S
C1328 C1344 1.368 . S
H1329 C1337 0.950 . S
H1330 C1335 0.950 . S
H1331 C1336 0.949 . S
H1332 C1338 0.950 . S
H1333 C1339 0.950 . S
H1334 C1340 0.949 . S
C1335 H1330 0.950 . S
C1335 C1337 1.327 . S
C1335 C1341 1.429 . S
C1336 C1328 1.574 . S
C1336 H1331 0.949 . S
C1336 C1342 1.368 . S
C1337 C1321 1.349 . S
C1337 H1329 0.950 . S
C1337 C1335 1.327 . S
C1338 C1326 1.349 . S
C1338 H1332 0.950 . S
C1338 C1339 1.327 . S
C1339 H1333 0.950 . S
C1339 C1338 1.327 . S
C1339 C1343 1.429 . S
C1340 C1323 1.574 . S
C1340 H1334 0.949 . S
C1340 C1344 1.368 . S
C1341 C1322 1.429 . S
C1341 C1335 1.429 . S
C1341 C1342 1.523 . S
C1342 C1323 1.368 . S
C1342 C1336 1.368 . S
C1342 C1341 1.523 . S
C1343 C1327 1.429 . S
C1343 C1339 1.429 . S
C1343 C1344 1.523 . S
C1344 C1328 1.368 . S
C1344 C1340 1.368 . S
C1344 C1343 1.523 . S
H1345 C1320 0.950 . S
H1346 C1322 0.950 . S
H1347 C1323 0.949 . S
H1348 C1325 0.950 . S
H1349 C1327 0.950 . S
C1350 C1351 1.349 . S
C1350 C1352 1.327 . S
C1350 H1375 0.950 . S
C1351 C1350 1.349 . S
C1351 C1367 1.349 . S
C1352 C1350 1.327 . S
C1352 C1371 1.429 . S
C1352 H1376 0.950 . S
C1353 C1370 1.574 . S
C1353 C1372 1.368 . S
C1353 H1377 0.949 . S
H1354 C1358 0.949 . S
C1355 C1356 1.349 . S
C1355 C1357 1.327 . S
C1355 H1378 0.950 . S
C1356 C1355 1.349 . S
C1356 C1368 1.349 . S
C1357 C1355 1.327 . S
C1357 C1373 1.429 . S
C1357 H1379 0.950 . S
C1358 H1354 0.949 . S
C1358 C1366 1.574 . S
C1358 C1374 1.368 . S
H1359 C1367 0.950 . S
H1360 C1365 0.950 . S
H1361 C1366 0.949 . S
H1362 C1368 0.950 . S
H1363 C1369 0.950 . S
H1364 C1370 0.949 . S
C1365 H1360 0.950 . S
C1365 C1367 1.327 . S
C1365 C1371 1.429 . S
C1366 C1358 1.574 . S
C1366 H1361 0.949 . S
C1366 C1372 1.368 . S
C1367 C1351 1.349 . S
C1367 H1359 0.950 . S
C1367 C1365 1.327 . S
C1368 C1356 1.349 . S
C1368 H1362 0.950 . S
C1368 C1369 1.327 . S
C1369 H1363 0.950 . S
C1369 C1368 1.327 . S
C1369 C1373 1.429 . S
C1370 C1353 1.574 . S
C1370 H1364 0.949 . S
C1370 C1374 1.368 . S
C1371 C1352 1.429 . S
C1371 C1365 1.429 . S
C1371 C1372 1.523 . S
C1372 C1353 1.368 . S
C1372 C1366 1.368 . S
C1372 C1371 1.523 . S
C1373 C1357 1.429 . S
C1373 C1369 1.429 . S
C1373 C1374 1.523 . S
C1374 C1358 1.368 . S
C1374 C1370 1.368 . S
C1374 C1373 1.523 . S
H1375 C1350 0.950 . S
H1376 C1352 0.950 . S
H1377 C1353 0.949 . S
H1378 C1355 0.950 . S
H1379 C1357 0.950 . S
C1380 C1381 1.349 . S
C1380 C1382 1.327 . S
C1380 H1405 0.950 . S
C1381 C1380 1.349 . S
C1381 C1397 1.349 . S
C1382 C1380 1.327 . S
C1382 C1401 1.429 . S
C1382 H1406 0.950 . S
C1383 C1400 1.574 . S
C1383 C1402 1.368 . S
C1383 H1407 0.949 . S
H1384 C1388 0.949 . S
C1385 C1386 1.349 . S
C1385 C1387 1.327 . S
C1385 H1408 0.950 . S
C1386 C1385 1.349 . S
C1386 C1398 1.349 . S
C1387 C1385 1.327 . S
C1387 C1403 1.429 . S
C1387 H1409 0.950 . S
C1388 H1384 0.949 . S
C1388 C1396 1.574 . S
C1388 C1404 1.368 . S
H1389 C1397 0.950 . S
H1390 C1395 0.950 . S
H1391 C1396 0.949 . S
H1392 C1398 0.950 . S
H1393 C1399 0.950 . S
H1394 C1400 0.949 . S
C1395 H1390 0.950 . S
C1395 C1397 1.327 . S
C1395 C1401 1.429 . S
C1396 C1388 1.574 . S
C1396 H1391 0.949 . S
C1396 C1402 1.368 . S
C1397 C1381 1.349 . S
C1397 H1389 0.950 . S
C1397 C1395 1.327 . S
C1398 C1386 1.349 . S
C1398 H1392 0.950 . S
C1398 C1399 1.327 . S
C1399 H1393 0.950 . S
C1399 C1398 1.327 . S
C1399 C1403 1.429 . S
C1400 C1383 1.574 . S
C1400 H1394 0.949 . S
C1400 C1404 1.368 . S
C1401 C1382 1.429 . S
C1401 C1395 1.429 . S
C1401 C1402 1.523 . S
C1402 C1383 1.368 . S
C1402 C1396 1.368 . S
C1402 C1401 1.523 . S
C1403 C1387 1.429 . S
C1403 C1399 1.429 . S
C1403 C1404 1.523 . S
C1404 C1388 1.368 . S
C1404 C1400 1.368 . S
C1404 C1403 1.523 . S
H1405 C1380 0.950 . S
H1406 C1382 0.950 . S
H1407 C1383 0.949 . S
H1408 C1385 0.950 . S
H1409 C1387 0.950 . S
C1410 C1411 1.349 . S
C1410 C1412 1.327 . S
C1410 H1435 0.950 . S
C1411 C1410 1.349 . S
C1411 C1427 1.349 . S
C1412 C1410 1.327 . S
C1412 C1431 1.429 . S
C1412 H1436 0.950 . S
C1413 C1430 1.574 . S
C1413 C1432 1.368 . S
C1413 H1437 0.949 . S
H1414 C1418 0.949 . S
C1415 C1416 1.349 . S
C1415 C1417 1.327 . S
C1415 H1438 0.950 . S
C1416 C1415 1.349 . S
C1416 C1428 1.349 . S
C1417 C1415 1.327 . S
C1417 C1433 1.429 . S
C1417 H1439 0.950 . S
C1418 H1414 0.949 . S
C1418 C1426 1.574 . S
C1418 C1434 1.368 . S
H1419 C1427 0.950 . S
H1420 C1425 0.950 . S
H1421 C1426 0.949 . S
H1422 C1428 0.950 . S
H1423 C1429 0.950 . S
H1424 C1430 0.949 . S
C1425 H1420 0.950 . S
C1425 C1427 1.327 . S
C1425 C1431 1.429 . S
C1426 C1418 1.574 . S
C1426 H1421 0.949 . S
C1426 C1432 1.368 . S
C1427 C1411 1.349 . S
C1427 H1419 0.950 . S
C1427 C1425 1.327 . S
C1428 C1416 1.349 . S
C1428 H1422 0.950 . S
C1428 C1429 1.327 . S
C1429 H1423 0.950 . S
C1429 C1428 1.327 . S
C1429 C1433 1.429 . S
C1430 C1413 1.574 . S
C1430 H1424 0.949 . S
C1430 C1434 1.368 . S
C1431 C1412 1.429 . S
C1431 C1425 1.429 . S
C1431 C1432 1.523 . S
C1432 C1413 1.368 . S
C1432 C1426 1.368 . S
C1432 C1431 1.523 . S
C1433 C1417 1.429 . S
C1433 C1429 1.429 . S
C1433 C1434 1.523 . S
C1434 C1418 1.368 . S
C1434 C1430 1.368 . S
C1434 C1433 1.523 . S
H1435 C1410 0.950 . S
H1436 C1412 0.950 . S
H1437 C1413 0.949 . S
H1438 C1415 0.950 . S
H1439 C1417 0.950 . S
C1440 C1441 1.349 . S
C1440 C1442 1.327 . S
C1440 H1465 0.950 . S
C1441 C1440 1.349 . S
C1441 C1457 1.349 . S
C1442 C1440 1.327 . S
C1442 C1461 1.429 . S
C1442 H1466 0.950 . S
C1443 C1460 1.574 . S
C1443 C1462 1.368 . S
C1443 H1467 0.949 . S
H1444 C1448 0.949 . S
C1445 C1446 1.349 . S
C1445 C1447 1.327 . S
C1445 H1468 0.950 . S
C1446 C1445 1.349 . S
C1446 C1458 1.349 . S
C1447 C1445 1.327 . S
C1447 C1463 1.429 . S
C1447 H1469 0.950 . S
C1448 H1444 0.949 . S
C1448 C1456 1.574 . S
C1448 C1464 1.368 . S
H1449 C1457 0.950 . S
H1450 C1455 0.950 . S
H1451 C1456 0.949 . S
H1452 C1458 0.950 . S
H1453 C1459 0.950 . S
H1454 C1460 0.949 . S
C1455 H1450 0.950 . S
C1455 C1457 1.327 . S
C1455 C1461 1.429 . S
C1456 C1448 1.574 . S
C1456 H1451 0.949 . S
C1456 C1462 1.368 . S
C1457 C1441 1.349 . S
C1457 H1449 0.950 . S
C1457 C1455 1.327 . S
C1458 C1446 1.349 . S
C1458 H1452 0.950 . S
C1458 C1459 1.327 . S
C1459 H1453 0.950 . S
C1459 C1458 1.327 . S
C1459 C1463 1.429 . S
C1460 C1443 1.574 . S
C1460 H1454 0.949 . S
C1460 C1464 1.368 . S
C1461 C1442 1.429 . S
C1461 C1455 1.429 . S
C1461 C1462 1.523 . S
C1462 C1443 1.368 . S
C1462 C1456 1.368 . S
C1462 C1461 1.523 . S
C1463 C1447 1.429 . S
C1463 C1459 1.429 . S
C1463 C1464 1.523 . S
C1464 C1448 1.368 . S
C1464 C1460 1.368 . S
C1464 C1463 1.523 . S
H1465 C1440 0.950 . S
H1466 C1442 0.950 . S
H1467 C1443 0.949 . S
H1468 C1445 0.950 . S
H1469 C1447 0.950 . S
C1470 C1471 1.349 . S
C1470 C1472 1.327 . S
C1470 H1495 0.950 . S
C1471 C1470 1.349 . S
C1471 C1487 1.349 . S
C1472 C1470 1.327 . S
C1472 C1491 1.429 . S
C1472 H1496 0.950 . S
C1473 C1490 1.574 . S
C1473 C1492 1.368 . S
C1473 H1497 0.949 . S
H1474 C1478 0.949 . S
C1475 C1476 1.349 . S
C1475 C1477 1.327 . S
C1475 H1498 0.950 . S
C1476 C1475 1.349 . S
C1476 C1488 1.349 . S
C1477 C1475 1.327 . S
C1477 C1493 1.429 . S
C1477 H1499 0.950 . S
C1478 H1474 0.949 . S
C1478 C1486 1.574 . S
C1478 C1494 1.368 . S
H1479 C1487 0.950 . S
H1480 C1485 0.950 . S
H1481 C1486 0.949 . S
H1482 C1488 0.950 . S
H1483 C1489 0.950 . S
H1484 C1490 0.949 . S
C1485 H1480 0.950 . S
C1485 C1487 1.327 . S
C1485 C1491 1.429 . S
C1486 C1478 1.574 . S
C1486 H1481 0.949 . S
C1486 C1492 1.368 . S
C1487 C1471 1.349 . S
C1487 H1479 0.950 . S
C1487 C1485 1.327 . S
C1488 C1476 1.349 . S
C1488 H1482 0.950 . S
C1488 C1489 1.327 . S
C1489 H1483 0.950 . S
C1489 C1488 1.327 . S
C1489 C1493 1.429 . S
C1490 C1473 1.574 . S
C1490 H1484 0.949 . S
C1490 C1494 1.368 . S
C1491 C1472 1.429 . S
C1491 C1485 1.429 . S
C1491 C1492 1.523 . S
C1492 C1473 1.368 . S
C1492 C1486 1.368 . S
C1492 C1491 1.523 . S
C1493 C1477 1.429 . S
C1493 C1489 1.429 . S
C1493 C1494 1.523 . S
C1494 C1478 1.368 . S
C1494 C1490 1.368 . S
C1494 C1493 1.523 . S
H1495 C1470 0.950 . S
H1496 C1472 0.950 . S
H1497 C1473 0.949 . S
H1498 C1475 0.950 . S
H1499 C1477 0.950 . S
C1500 C1501 1.349 . S
C1500 C1502 1.327 . S
C1500 H1525 0.950 . S
C1501 C1500 1.349 . S
C1501 C1517 1.349 . S
C1502 C1500 1.327 . S
C1502 C1521 1.429 . S
C1502 H1526 0.950 . S
C1503 C1520 1.574 . S
C1503 C1522 1.368 . S
C1503 H1527 0.949 . S
H1504 C1508 0.949 . S
C1505 C1506 1.349 . S
C1505 C1507 1.327 . S
C1505 H1528 0.950 . S
C1506 C1505 1.349 . S
C1506 C1518 1.349 . S
C1507 C1505 1.327 . S
C1507 C1523 1.429 . S
C1507 H1529 0.950 . S
C1508 H1504 0.949 . S
C1508 C1516 1.574 . S
C1508 C1524 1.368 . S
H1509 C1517 0.950 . S
H1510 C1515 0.950 . S
H1511 C1516 0.949 . S
H1512 C1518 0.950 . S
H1513 C1519 0.950 . S
H1514 C1520 0.949 . S
C1515 H1510 0.950 . S
C1515 C1517 1.327 . S
C1515 C1521 1.429 . S
C1516 C1508 1.574 . S
C1516 H1511 0.949 . S
C1516 C1522 1.368 . S
C1517 C1501 1.349 . S
C1517 H1509 0.950 . S
C1517 C1515 1.327 . S
C1518 C1506 1.349 . S
C1518 H1512 0.950 . S
C1518 C1519 1.327 . S
C1519 H1513 0.950 . S
C1519 C1518 1.327 . S
C1519 C1523 1.429 . S
C1520 C1503 1.574 . S
C1520 H1514 0.949 . S
C1520 C1524 1.368 . S
C1521 C1502 1.429 . S
C1521 C1515 1.429 . S
C1521 C1522 1.523 . S
C1522 C1503 1.368 . S
C1522 C1516 1.368 . S
C1522 C1521 1.523 . S
C1523 C1507 1.429 . S
C1523 C1519 1.429 . S
C1523 C1524 1.523 . S
C1524 C1508 1.368 . S
C1524 C1520 1.368 . S
C1524 C1523 1.523 . S
H1525 C1500 0.950 . S
H1526 C1502 0.950 . S
H1527 C1503 0.949 . S
H1528 C1505 0.950 . S
H1529 C1507 0.950 . S
C1530 C1531 1.349 . S
C1530 C1532 1.327 . S
C1530 H1555 0.950 . S
C1531 C1530 1.349 . S
C1531 C1547 1.349 . S
C1532 C1530 1.327 . S
C1532 C1551 1.429 . S
C1532 H1556 0.950 . S
C1533 C1550 1.574 . S
C1533 C1552 1.368 . S
C1533 H1557 0.949 . S
H1534 C1538 0.949 . S
C1535 C1536 1.349 . S
C1535 C1537 1.327 . S
C1535 H1558 0.950 . S
C1536 C1535 1.349 . S
C1536 C1548 1.349 . S
C1537 C1535 1.327 . S
C1537 C1553 1.429 . S
C1537 H1559 0.950 . S
C1538 H1534 0.949 . S
C1538 C1546 1.574 . S
C1538 C1554 1.368 . S
H1539 C1547 0.950 . S
H1540 C1545 0.950 . S
H1541 C1546 0.949 . S
H1542 C1548 0.950 . S
H1543 C1549 0.950 . S
H1544 C1550 0.949 . S
C1545 H1540 0.950 . S
C1545 C1547 1.327 . S
C1545 C1551 1.429 . S
C1546 C1538 1.574 . S
C1546 H1541 0.949 . S
C1546 C1552 1.368 . S
C1547 C1531 1.349 . S
C1547 H1539 0.950 . S
C1547 C1545 1.327 . S
C1548 C1536 1.349 . S
C1548 H1542 0.950 . S
C1548 C1549 1.327 . S
C1549 H1543 0.950 . S
C1549 C1548 1.327 . S
C1549 C1553 1.429 . S
C1550 C1533 1.574 . S
C1550 H1544 0.949 . S
C1550 C1554 1.368 . S
C1551 C1532 1.429 . S
C1551 C1545 1.429 . S
C1551 C1552 1.523 . S
C1552 C1533 1.368 . S
C1552 C1546 1.368 . S
C1552 C1551 1.523 . S
C1553 C1537 1.429 . S
C1553 C1549 1.429 . S
C1553 C1554 1.523 . S
C1554 C1538 1.368 . S
C1554 C1550 1.368 . S
C1554 C1553 1.523 . S
H1555 C1530 0.950 . S
H1556 C1532 0.950 . S
H1557 C1533 0.949 . S
H1558 C1535 0.950 . S
H1559 C1537 0.950 . S
C1560 C1561 1.349 . S
C1560 C1562 1.327 . S
C1560 H1585 0.950 . S
C1561 C1560 1.349 . S
C1561 C1577 1.349 . S
C1562 C1560 1.327 . S
C1562 C1581 1.429 . S
C1562 H1586 0.950 . S
C1563 C1580 1.574 . S
C1563 C1582 1.368 . S
C1563 H1587 0.949 . S
H1564 C1568 0.949 . S
C1565 C1566 1.349 . S
C1565 C1567 1.327 . S
C1565 H1588 0.950 . S
C1566 C1565 1.349 . S
C1566 C1578 1.349 . S
C1567 C1565 1.327 . S
C1567 C1583 1.429 . S
C1567 H1589 0.950 . S
C1568 H1564 0.949 . S
C1568 C1576 1.574 . S
C1568 C1584 1.368 . S
H1569 C1577 0.950 . S
H1570 C1575 0.950 . S
H1571 C1576 0.949 . S
H1572 C1578 0.950 . S
H1573 C1579 0.950 . S
H1574 C1580 0.949 . S
C1575 H1570 0.950 . S
C1575 C1577 1.327 . S
C1575 C1581 1.429 . S
C1576 C1568 1.574 . S
C1576 H1571 0.949 . S
C1576 C1582 1.368 . S
C1577 C1561 1.349 . S
C1577 H1569 0.950 . S
C1577 C1575 1.327 . S
C1578 C1566 1.349 . S
C1578 H1572 0.950 . S
C1578 C1579 1.327 . S
C1579 H1573 0.950 . S
C1579 C1578 1.327 . S
C1579 C1583 1.429 . S
C1580 C1563 1.574 . S
C1580 H1574 0.949 . S
C1580 C1584 1.368 . S
C1581 C1562 1.429 . S
C1581 C1575 1.429 . S
C1581 C1582 1.523 . S
C1582 C1563 1.368 . S
C1582 C1576 1.368 . S
C1582 C1581 1.523 . S
C1583 C1567 1.429 . S
C1583 C1579 1.429 . S
C1583 C1584 1.523 . S
C1584 C1568 1.368 . S
C1584 C1580 1.368 . S
C1584 C1583 1.523 . S
H1585 C1560 0.950 . S
H1586 C1562 0.950 . S
H1587 C1563 0.949 . S
H1588 C1565 0.950 . S
H1589 C1567 0.950 . S
C1590 C1591 1.349 . S
C1590 C1592 1.327 . S
C1590 H1615 0.950 . S
C1591 C1590 1.349 . S
C1591 C1607 1.349 . S
C1592 C1590 1.327 . S
C1592 C1611 1.429 . S
C1592 H1616 0.950 . S
C1593 C1610 1.574 . S
C1593 C1612 1.368 . S
C1593 H1617 0.949 . S
H1594 C1598 0.949 . S
C1595 C1596 1.349 . S
C1595 C1597 1.327 . S
C1595 H1618 0.950 . S
C1596 C1595 1.349 . S
C1596 C1608 1.349 . S
C1597 C1595 1.327 . S
C1597 C1613 1.429 . S
C1597 H1619 0.950 . S
C1598 H1594 0.949 . S
C1598 C1606 1.574 . S
C1598 C1614 1.368 . S
H1599 C1607 0.950 . S
H1600 C1605 0.950 . S
H1601 C1606 0.949 . S
H1602 C1608 0.950 . S
H1603 C1609 0.950 . S
H1604 C1610 0.949 . S
C1605 H1600 0.950 . S
C1605 C1607 1.327 . S
C1605 C1611 1.429 . S
C1606 C1598 1.574 . S
C1606 H1601 0.949 . S
C1606 C1612 1.368 . S
C1607 C1591 1.349 . S
C1607 H1599 0.950 . S
C1607 C1605 1.327 . S
C1608 C1596 1.349 . S
C1608 H1602 0.950 . S
C1608 C1609 1.327 . S
C1609 H1603 0.950 . S
C1609 C1608 1.327 . S
C1609 C1613 1.429 . S
C1610 C1593 1.574 . S
C1610 H1604 0.949 . S
C1610 C1614 1.368 . S
C1611 C1592 1.429 . S
C1611 C1605 1.429 . S
C1611 C1612 1.523 . S
C1612 C1593 1.368 . S
C1612 C1606 1.368 . S
C1612 C1611 1.523 . S
C1613 C1597 1.429 . S
C1613 C1609 1.429 . S
C1613 C1614 1.523 . S
C1614 C1598 1.368 . S
C1614 C1610 1.368 . S
C1614 C1613 1.523 . S
H1615 C1590 0.950 . S
H1616 C1592 0.950 . S
H1617 C1593 0.949 . S
H1618 C1595 0.950 . S
H1619 C1597 0.950 . S
C1620 C1621 1.349 . S
C1620 C1622 1.327 . S
C1620 H1645 0.950 . S
C1621 C1620 1.349 . S
C1621 C1637 1.349 . S
C1622 C1620 1.327 . S
C1622 C1641 1.429 . S
C1622 H1646 0.950 . S
C1623 C1640 1.574 . S
C1623 C1642 1.368 . S
C1623 H1647 0.949 . S
H1624 C1628 0.949 . S
C1625 C1626 1.349 . S
C1625 C1627 1.327 . S
C1625 H1648 0.950 . S
C1626 C1625 1.349 . S
C1626 C1638 1.349 . S
C1627 C1625 1.327 . S
C1627 C1643 1.429 . S
C1627 H1649 0.950 . S
C1628 H1624 0.949 . S
C1628 C1636 1.574 . S
C1628 C1644 1.368 . S
H1629 C1637 0.950 . S
H1630 C1635 0.950 . S
H1631 C1636 0.949 . S
H1632 C1638 0.950 . S
H1633 C1639 0.950 . S
H1634 C1640 0.949 . S
C1635 H1630 0.950 . S
C1635 C1637 1.327 . S
C1635 C1641 1.429 . S
C1636 C1628 1.574 . S
C1636 H1631 0.949 . S
C1636 C1642 1.368 . S
C1637 C1621 1.349 . S
C1637 H1629 0.950 . S
C1637 C1635 1.327 . S
C1638 C1626 1.349 . S
C1638 H1632 0.950 . S
C1638 C1639 1.327 . S
C1639 H1633 0.950 . S
C1639 C1638 1.327 . S
C1639 C1643 1.429 . S
C1640 C1623 1.574 . S
C1640 H1634 0.949 . S
C1640 C1644 1.368 . S
C1641 C1622 1.429 . S
C1641 C1635 1.429 . S
C1641 C1642 1.523 . S
C1642 C1623 1.368 . S
C1642 C1636 1.368 . S
C1642 C1641 1.523 . S
C1643 C1627 1.429 . S
C1643 C1639 1.429 . S
C1643 C1644 1.523 . S
C1644 C1628 1.368 . S
C1644 C1640 1.368 . S
C1644 C1643 1.523 . S
H1645 C1620 0.950 . S
H1646 C1622 0.950 . S
H1647 C1623 0.949 . S
H1648 C1625 0.950 . S
H1649 C1627 0.950 . S
C1650 C1651 1.349 . S
C1650 C1652 1.327 . S
C1650 H1675 0.950 . S
C1651 C1650 1.349 . S
C1651 C1667 1.349 . S
C1652 C1650 1.327 . S
C1652 C1671 1.429 . S
C1652 H1676 0.950 . S
C1653 C1670 1.574 . S
C1653 C1672 1.368 . S
C1653 H1677 0.949 . S
H1654 C1658 0.949 . S
C1655 C1656 1.349 . S
C1655 C1657 1.327 . S
C1655 H1678 0.950 . S
C1656 C1655 1.349 . S
C1656 C1668 1.349 . S
C1657 C1655 1.327 . S
C1657 C1673 1.429 . S
C1657 H1679 0.950 . S
C1658 H1654 0.949 . S
C1658 C1666 1.574 . S
C1658 C1674 1.368 . S
H1659 C1667 0.950 . S
H1660 C1665 0.950 . S
H1661 C1666 0.949 . S
H1662 C1668 0.950 . S
H1663 C1669 0.950 . S
H1664 C1670 0.949 . S
C1665 H1660 0.950 . S
C1665 C1667 1.327 . S
C1665 C1671 1.429 . S
C1666 C1658 1.574 . S
C1666 H1661 0.949 . S
C1666 C1672 1.368 . S
C1667 C1651 1.349 . S
C1667 H1659 0.950 . S
C1667 C1665 1.327 . S
C1668 C1656 1.349 . S
C1668 H1662 0.950 . S
C1668 C1669 1.327 . S
C1669 H1663 0.950 . S
C1669 C1668 1.327 . S
C1669 C1673 1.429 . S
C1670 C1653 1.574 . S
C1670 H1664 0.949 . S
C1670 C1674 1.368 . S
C1671 C1652 1.429 . S
C1671 C1665 1.429 . S
C1671 C1672 1.523 . S
C1672 C1653 1.368 . S
C1672 C1666 1.368 . S
C1672 C1671 1.523 . S
C1673 C1657 1.429 . S
C1673 C1669 1.429 . S
C1673 C1674 1.523 . S
C1674 C1658 1.368 . S
C1674 C1670 1.368 . S
C1674 C1673 1.523 . S
H1675 C1650 0.950 . S
H1676 C1652 0.950 . S
H1677 C1653 0.949 . S
H1678 C1655 0.950 . S
H1679 C1657 0.950 . S
C1680 C1681 1.349 . S
C1680 C1682 1.327 . S
C1680 H1705 0.950 . S
C1681 C1680 1.349 . S
C1681 C1697 1.349 . S
C1682 C1680 1.327 . S
C1682 C1701 1.429 . S
C1682 H1706 0.950 . S
C1683 C1700 1.574 . S
C1683 C1702 1.368 . S
C1683 H1707 0.949 . S
H1684 C1688 0.949 . S
C1685 C1686 1.349 . S
C1685 C1687 1.327 . S
C1685 H1708 0.950 . S
C1686 C1685 1.349 . S
C1686 C1698 1.349 . S
C1687 C1685 1.327 . S
C1687 C1703 1.429 . S
C1687 H1709 0.950 . S
C1688 H1684 0.949 . S
C1688 C1696 1.574 . S
C1688 C1704 1.368 . S
H1689 C1697 0.950 . S
H1690 C1695 0.950 . S
H1691 C1696 0.949 . S
H1692 C1698 0.950 . S
H1693 C1699 0.950 . S
H1694 C1700 0.949 . S
C1695 H1690 0.950 . S
C1695 C1697 1.327 . S
C1695 C1701 1.429 . S
C1696 C1688 1.574 . S
C1696 H1691 0.949 . S
C1696 C1702 1.368 . S
C1697 C1681 1.349 . S
C1697 H1689 0.950 . S
C1697 C1695 1.327 . S
C1698 C1686 1.349 . S
C1698 H1692 0.950 . S
C1698 C1699 1.327 . S
C1699 H1693 0.950 . S
C1699 C1698 1.327 . S
C1699 C1703 1.429 . S
C1700 C1683 1.574 . S
C1700 H1694 0.949 . S
C1700 C1704 1.368 . S
C1701 C1682 1.429 . S
C1701 C1695 1.429 . S
C1701 C1702 1.523 . S
C1702 C1683 1.368 . S
C1702 C1696 1.368 . S
C1702 C1701 1.523 . S
C1703 C1687 1.429 . S
C1703 C1699 1.429 . S
C1703 C1704 1.523 . S
C1704 C1688 1.368 . S
C1704 C1700 1.368 . S
C1704 C1703 1.523 . S
H1705 C1680 0.950 . S
H1706 C1682 0.950 . S
H1707 C1683 0.949 . S
H1708 C1685 0.950 . S
H1709 C1687 0.950 . S
C1710 C1711 1.349 . S
C1710 C1712 1.327 . S
C1710 H1735 0.950 . S
C1711 C1710 1.349 . S
C1711 C1727 1.349 . S
C1712 C1710 1.327 . S
C1712 C1731 1.429 . S
C1712 H1736 0.950 . S
C1713 C1730 1.574 . S
C1713 C1732 1.368 . S
C1713 H1737 0.949 . S
H1714 C1718 0.949 . S
C1715 C1716 1.349 . S
C1715 C1717 1.327 . S
C1715 H1738 0.950 . S
C1716 C1715 1.349 . S
C1716 C1728 1.349 . S
C1717 C1715 1.327 . S
C1717 C1733 1.429 . S
C1717 H1739 0.950 . S
C1718 H1714 0.949 . S
C1718 C1726 1.574 . S
C1718 C1734 1.368 . S
H1719 C1727 0.950 . S
H1720 C1725 0.950 . S
H1721 C1726 0.949 . S
H1722 C1728 0.950 . S
H1723 C1729 0.950 . S
H1724 C1730 0.949 . S
C1725 H1720 0.950 . S
C1725 C1727 1.327 . S
C1725 C1731 1.429 . S
C1726 C1718 1.574 . S
C1726 H1721 0.949 . S
C1726 C1732 1.368 . S
C1727 C1711 1.349 . S
C1727 H1719 0.950 . S
C1727 C1725 1.327 . S
C1728 C1716 1.349 . S
C1728 H1722 0.950 . S
C1728 C1729 1.327 . S
C1729 H1723 0.950 . S
C1729 C1728 1.327 . S
C1729 C1733 1.429 . S
C1730 C1713 1.574 . S
C1730 H1724 0.949 . S
C1730 C1734 1.368 . S
C1731 C1712 1.429 . S
C1731 C1725 1.429 . S
C1731 C1732 1.523 . S
C1732 C1713 1.368 . S
C1732 C1726 1.368 . S
C1732 C1731 1.523 . S
C1733 C1717 1.429 . S
C1733 C1729 1.429 . S
C1733 C1734 1.523 . S
C1734 C1718 1.368 . S
C1734 C1730 1.368 . S
C1734 C1733 1.523 . S
H1735 C1710 0.950 . S
H1736 C1712 0.950 . S
H1737 C1713 0.949 . S
H1738 C1715 0.950 . S
H1739 C1717 0.950 . S
C1740 C1741 1.349 . S
C1740 C1742 1.327 . S
C1740 H1765 0.950 . S
C1741 C1740 1.349 . S
C1741 C1757 1.349 . S
C1742 C1740 1.327 . S
C1742 C1761 1.429 . S
C1742 H1766 0.950 . S
C1743 C1760 1.574 . S
C1743 C1762 1.368 . S
C1743 H1767 0.949 . S
H1744 C1748 0.949 . S
C1745 C1746 1.349 . S
C1745 C1747 1.327 . S
C1745 H1768 0.950 . S
C1746 C1745 1.349 . S
C1746 C1758 1.349 . S
C1747 C1745 1.327 . S
C1747 C1763 1.429 . S
C1747 H1769 0.950 . S
C1748 H1744 0.949 . S
C1748 C1756 1.574 . S
C1748 C1764 1.368 . S
H1749 C1757 0.950 . S
H1750 C1755 0.950 . S
H1751 C1756 0.949 . S
H1752 C1758 0.950 . S
H1753 C1759 0.950 . S
H1754 C1760 0.949 . S
C1755 H1750 0.950 . S
C1755 C1757 1.327 . S
C1755 C1761 1.429 . S
C1756 C1748 1.574 . S
C1756 H1751 0.949 . S
C1756 C1762 1.368 . S
C1757 C1741 1.349 . S
C1757 H1749 0.950 . S
C1757 C1755 1.327 . S
C1758 C1746 1.349 . S
C1758 H1752 0.950 . S
C1758 C1759 1.327 . S
C1759 H1753 0.950 . S
C1759 C1758 1.327 . S
C1759 C1763 1.429 . S
C1760 C1743 1.574 . S
C1760 H1754 0.949 . S
C1760 C1764 1.368 . S
C1761 C1742 1.429 . S
C1761 C1755 1.429 . S
C1761 C1762 1.523 . S
C1762 C1743 1.368 . S
C1762 C1756 1.368 . S
C1762 C1761 1.523 . S
C1763 C1747 1.429 . S
C1763 C1759 1.429 . S
C1763 C1764 1.523 . S
C1764 C1748 1.368 . S
C1764 C1760 1.368 . S
C1764 C1763 1.523 . S
H1765 C1740 0.950 . S
H1766 C1742 0.950 . S
H1767 C1743 0.949 . S
H1768 C1745 0.950 . S
H1769 C1747 0.950 . S
C1770 C1771 1.349 . S
C1770 C1772 1.327 . S
C1770 H1795 0.950 . S
C1771 C1770 1.349 . S
C1771 C1787 1.349 . S
C1772 C1770 1.327 . S
C1772 C1791 1.429 . S
C1772 H1796 0.950 . S
C1773 C1790 1.574 . S
C1773 C1792 1.368 . S
C1773 H1797 0.949 . S
H1774 C1778 0.949 . S
C1775 C1776 1.349 . S
C1775 C1777 1.327 . S
C1775 H1798 0.950 . S
C1776 C1775 1.349 . S
C1776 C1788 1.349 . S
C1777 C1775 1.327 . S
C1777 C1793 1.429 . S
C1777 H1799 0.950 . S
C1778 H1774 0.949 . S
C1778 C1786 1.574 . S
C1778 C1794 1.368 . S
H1779 C1787 0.950 . S
H1780 C1785 0.950 . S
H1781 C1786 0.949 . S
H1782 C1788 0.950 . S
H1783 C1789 0.950 . S
H1784 C1790 0.949 . S
C1785 H1780 0.950 . S
C1785 C1787 1.327 . S
C1785 C1791 1.429 . S
C1786 C1778 1.574 . S
C1786 H1781 0.949 . S
C1786 C1792 1.368 . S
C1787 C1771 1.349 . S
C1787 H1779 0.950 . S
C1787 C1785 1.327 . S
C1788 C1776 1.349 . S
C1788 H1782 0.950 . S
C1788 C1789 1.327 . S
C1789 H1783 0.950 . S
C1789 C1788 1.327 . S
C1789 C1793 1.429 . S
C1790 C1773 1.574 . S
C1790 H1784 0.949 . S
C1790 C1794 1.368 . S
C1791 C1772 1.429 . S
C1791 C1785 1.429 . S
C1791 C1792 1.523 . S
C1792 C1773 1.368 . S
C1792 C1786 1.368 . S
C1792 C1791 1.523 . S
C1793 C1777 1.429 . S
C1793 C1789 1.429 . S
C1793 C1794 1.523 . S
C1794 C1778 1.368 . S
C1794 C1790 1.368 . S
C1794 C1793 1.523 . S
H1795 C1770 0.950 . S
H1796 C1772 0.950 . S
H1797 C1773 0.949 . S
H1798 C1775 0.950 . S
H1799 C1777 0.950 . S
C1800 C1801 1.349 . S
C1800 C1802 1.327 . S
C1800 H1825 0.950 . S
C1801 C1800 1.349 . S
C1801 C1817 1.349 . S
C1802 C1800 1.327 . S
C1802 C1821 1.429 . S
C1802 H1826 0.950 . S
C1803 C1820 1.574 . S
C1803 C1822 1.368 . S
C1803 H1827 0.949 . S
H1804 C1808 0.949 . S
C1805 C1806 1.349 . S
C1805 C1807 1.327 . S
C1805 H1828 0.950 . S
C1806 C1805 1.349 . S
C1806 C1818 1.349 . S
C1807 C1805 1.327 . S
C1807 C1823 1.429 . S
C1807 H1829 0.950 . S
C1808 H1804 0.949 . S
C1808 C1816 1.574 . S
C1808 C1824 1.368 . S
H1809 C1817 0.950 . S
H1810 C1815 0.950 . S
H1811 C1816 0.949 . S
H1812 C1818 0.950 . S
H1813 C1819 0.950 . S
H1814 C1820 0.949 . S
C1815 H1810 0.950 . S
C1815 C1817 1.327 . S
C1815 C1821 1.429 . S
C1816 C1808 1.574 . S
C1816 H1811 0.949 . S
C1816 C1822 1.368 . S
C1817 C1801 1.349 . S
C1817 H1809 0.950 . S
C1817 C1815 1.327 . S
C1818 C1806 1.349 . S
C1818 H1812 0.950 . S
C1818 C1819 1.327 . S
C1819 H1813 0.950 . S
C1819 C1818 1.327 . S
C1819 C1823 1.429 . S
C1820 C1803 1.574 . S
C1820 H1814 0.949 . S
C1820 C1824 1.368 . S
C1821 C1802 1.429 . S
C1821 C1815 1.429 . S
C1821 C1822 1.523 . S
C1822 C1803 1.368 . S
C1822 C1816 1.368 . S
C1822 C1821 1.523 . S
C1823 C1807 1.429 . S
C1823 C1819 1.429 . S
C1823 C1824 1.523 . S
C1824 C1808 1.368 . S
C1824 C1820 1.368 . S
C1824 C1823 1.523 . S
H1825 C1800 0.950 . S
H1826 C1802 0.950 . S
H1827 C1803 0.949 . S
H1828 C1805 0.950 . S
H1829 C1807 0.950 . S
C1830 C1831 1.349 . S
C1830 C1832 1.327 . S
C1830 H1855 0.950 . S
C1831 C1830 1.349 . S
C1831 C1847 1.349 . S
C1832 C1830 1.327 . S
C1832 C1851 1.429 . S
C1832 H1856 0.950 . S
C1833 C1850 1.574 . S
C1833 C1852 1.368 . S
C1833 H1857 0.949 . S
H1834 C1838 0.949 . S
C1835 C1836 1.349 . S
C1835 C1837 1.327 . S
C1835 H1858 0.950 . S
C1836 C1835 1.349 . S
C1836 C1848 1.349 . S
C1837 C1835 1.327 . S
C1837 C1853 1.429 . S
C1837 H1859 0.950 . S
C1838 H1834 0.949 . S
C1838 C1846 1.574 . S
C1838 C1854 1.368 . S
H1839 C1847 0.950 . S
H1840 C1845 0.950 . S
H1841 C1846 0.949 . S
H1842 C1848 0.950 . S
H1843 C1849 0.950 . S
H1844 C1850 0.949 . S
C1845 H1840 0.950 . S
C1845 C1847 1.327 . S
C1845 C1851 1.429 . S
C1846 C1838 1.574 . S
C1846 H1841 0.949 . S
C1846 C1852 1.368 . S
C1847 C1831 1.349 . S
C1847 H1839 0.950 . S
C1847 C1845 1.327 . S
C1848 C1836 1.349 . S
C1848 H1842 0.950 . S
C1848 C1849 1.327 . S
C1849 H1843 0.950 . S
C1849 C1848 1.327 . S
C1849 C1853 1.429 . S
C1850 C1833 1.574 . S
C1850 H1844 0.949 . S
C1850 C1854 1.368 . S
C1851 C1832 1.429 . S
C1851 C1845 1.429 . S
C1851 C1852 1.523 . S
C1852 C1833 1.368 . S
C1852 C1846 1.368 . S
C1852 C1851 1.523 . S
C1853 C1837 1.429 . S
C1853 C1849 1.429 . S
C1853 C1854 1.523 . S
C1854 C1838 1.368 . S
C1854 C1850 1.368 . S
C1854 C1853 1.523 . S
H1855 C1830 0.950 . S
H1856 C1832 0.950 . S
H1857 C1833 0.949 . S
H1858 C1835 0.950 . S
H1859 C1837 0.950 . S
C1860 C1861 1.349 . S
C1860 C1862 1.327 . S
C1860 H1885 0.950 . S
C1861 C1860 1.349 . S
C1861 C1877 1.349 . S
C1862 C1860 1.327 . S
C1862 C1881 1.429 . S
C1862 H1886 0.950 . S
C1863 C1880 1.574 . S
C1863 C1882 1.368 . S
C1863 H1887 0.949 . S
H1864 C1868 0.949 . S
C1865 C1866 1.349 . S
C1865 C1867 1.327 . S
C1865 H1888 0.950 . S
C1866 C1865 1.349 . S
C1866 C1878 1.349 . S
C1867 C1865 1.327 . S
C1867 C1883 1.429 . S
C1867 H1889 0.950 . S
C1868 H1864 0.949 . S
C1868 C1876 1.574 . S
C1868 C1884 1.368 . S
H1869 C1877 0.950 . S
H1870 C1875 0.950 . S
H1871 C1876 0.949 . S
H1872 C1878 0.950 . S
H1873 C1879 0.950 . S
H1874 C1880 0.949 . S
C1875 H1870 0.950 . S
C1875 C1877 1.327 . S
C1875 C1881 1.429 . S
C1876 C1868 1.574 . S
C1876 H1871 0.949 . S
C1876 C1882 1.368 . S
C1877 C1861 1.349 . S
C1877 H1869 0.950 . S
C1877 C1875 1.327 . S
C1878 C1866 1.349 . S
C1878 H1872 0.950 . S
C1878 C1879 1.327 . S
C1879 H1873 0.950 . S
C1879 C1878 1.327 . S
C1879 C1883 1.429 . S
C1880 C1863 1.574 . S
C1880 H1874 0.949 . S
C1880 C1884 1.368 . S
C1881 C1862 1.429 . S
C1881 C1875 1.429 . S
C1881 C1882 1.523 . S
C1882 C1863 1.368 . S
C1882 C1876 1.368 . S
C1882 C1881 1.523 . S
C1883 C1867 1.429 . S
C1883 C1879 1.429 . S
C1883 C1884 1.523 . S
C1884 C1868 1.368 . S
C1884 C1880 1.368 . S
C1884 C1883 1.523 . S
H1885 C1860 0.950 . S
H1886 C1862 0.950 . S
H1887 C1863 0.949 . S
H1888 C1865 0.950 . S
H1889 C1867 0.950 . S
C1890 C1891 1.349 . S
C1890 C1892 1.327 . S
C1890 H1915 0.950 . S
C1891 C1890 1.349 . S
C1891 C1907 1.349 . S
C1892 C1890 1.327 . S
C1892 C1911 1.429 . S
C1892 H1916 0.950 . S
C1893 C1910 1.574 . S
C1893 C1912 1.368 . S
C1893 H1917 0.949 . S
H1894 C1898 0.949 . S
C1895 C1896 1.349 . S
C1895 C1897 1.327 . S
C1895 H1918 0.950 . S
C1896 C1895 1.349 . S
C1896 C1908 1.349 . S
C1897 C1895 1.327 . S
C1897 C1913 1.429 . S
C1897 H1919 0.950 . S
C1898 H1894 0.949 . S
C1898 C1906 1.574 . S
C1898 C1914 1.368 . S
H1899 C1907 0.950 . S
H1900 C1905 0.950 . S
H1901 C1906 0.949 . S
H1902 C1908 0.950 . S
H1903 C1909 0.950 . S
H1904 C1910 0.949 . S
C1905 H1900 0.950 . S
C1905 C1907 1.327 . S
C1905 C1911 1.429 . S
C1906 C1898 1.574 . S
C1906 H1901 0.949 . S
C1906 C1912 1.368 . S
C1907 C1891 1.349 . S
C1907 H1899 0.950 . S
C1907 C1905 1.327 . S
C1908 C1896 1.349 . S
C1908 H1902 0.950 . S
C1908 C1909 1.327 . S
C1909 H1903 0.950 . S
C1909 C1908 1.327 . S
C1909 C1913 1.429 . S
C1910 C1893 1.574 . S
C1910 H1904 0.949 . S
C1910 C1914 1.368 . S
C1911 C1892 1.429 . S
C1911 C1905 1.429 . S
C1911 C1912 1.523 . S
C1912 C1893 1.368 . S
C1912 C1906 1.368 . S
C1912 C1911 1.523 . S
C1913 C1897 1.429 . S
C1913 C1909 1.429 . S
C1913 C1914 1.523 . S
C1914 C1898 1.368 . S
C1914 C1910 1.368 . S
C1914 C1913 1.523 . S
H1915 C1890 0.950 . S
H1916 C1892 0.950 . S
H1917 C1893 0.949 . S
H1918 C1895 0.950 . S
H1919 C1897 0.950 . S
C1920 C1921 1.349 . S
C1920 C1922 1.327 . S
C1920 H1945 0.950 . S
C1921 C1920 1.349 . S
C1921 C1937 1.349 . S
C1922 C1920 1.327 . S
C1922 C1941 1.429 . S
C1922 H1946 0.950 . S
C1923 C1940 1.574 . S
C1923 C1942 1.368 . S
C1923 H1947 0.949 . S
H1924 C1928 0.949 . S
C1925 C1926 1.349 . S
C1925 C1927 1.327 . S
C1925 H1948 0.950 . S
C1926 C1925 1.349 . S
C1926 C1938 1.349 . S
C1927 C1925 1.327 . S
C1927 C1943 1.429 . S
C1927 H1949 0.950 . S
C1928 H1924 0.949 . S
C1928 C1936 1.574 . S
C1928 C1944 1.368 . S
H1929 C1937 0.950 . S
H1930 C1935 0.950 . S
H1931 C1936 0.949 . S
H1932 C1938 0.950 . S
H1933 C1939 0.950 . S
H1934 C1940 0.949 . S
C1935 H1930 0.950 . S
C1935 C1937 1.327 . S
C1935 C1941 1.429 . S
C1936 C1928 1.574 . S
C1936 H1931 0.949 . S
C1936 C1942 1.368 . S
C1937 C1921 1.349 . S
C1937 H1929 0.950 . S
C1937 C1935 1.327 . S
C1938 C1926 1.349 . S
C1938 H1932 0.950 . S
C1938 C1939 1.327 . S
C1939 H1933 0.950 . S
C1939 C1938 1.327 . S
C1939 C1943 1.429 . S
C1940 C1923 1.574 . S
C1940 H1934 0.949 . S
C1940 C1944 1.368 . S
C1941 C1922 1.429 . S
C1941 C1935 1.429 . S
C1941 C1942 1.523 . S
C1942 C1923 1.368 . S
C1942 C1936 1.368 . S
C1942 C1941 1.523 . S
C1943 C1927 1.429 . S
C1943 C1939 1.429 . S
C1943 C1944 1.523 . S
C1944 C1928 1.368 . S
C1944 C1940 1.368 . S
C1944 C1943 1.523 . S
H1945 C1920 0.950 . S
H1946 C1922 0.950 . S
H1947 C1923 0.949 . S
H1948 C1925 0.950 . S
H1949 C1927 0.950 . S
C1950 C1951 1.349 . S
C1950 C1952 1.327 . S
C1950 H1975 0.950 . S
C1951 C1950 1.349 . S
C1951 C1967 1.349 . S
C1952 C1950 1.327 . S
C1952 C1971 1.429 . S
C1952 H1976 0.950 . S
C1953 C1970 1.574 . S
C1953 C1972 1.368 . S
C1953 H1977 0.949 . S
H1954 C1958 0.949 . S
C1955 C1956 1.349 . S
C1955 C1957 1.327 . S
C1955 H1978 0.950 . S
C1956 C1955 1.349 . S
C1956 C1968 1.349 . S
C1957 C1955 1.327 . S
C1957 C1973 1.429 . S
C1957 H1979 0.950 . S
C1958 H1954 0.949 . S
C1958 C1966 1.574 . S
C1958 C1974 1.368 . S
H1959 C1967 0.950 . S
H1960 C1965 0.950 . S
H1961 C1966 0.949 . S
H1962 C1968 0.950 . S
H1963 C1969 0.950 . S
H1964 C1970 0.949 . S
C1965 H1960 0.950 . S
C1965 C1967 1.327 . S
C1965 C1971 1.429 . S
C1966 C1958 1.574 . S
C1966 H1961 0.949 . S
C1966 C1972 1.368 . S
C1967 C1951 1.349 . S
C1967 H1959 0.950 . S
C1967 C1965 1.327 . S
C1968 C1956 1.349 . S
C1968 H1962 0.950 . S
C1968 C1969 1.327 . S
C1969 H1963 0.950 . S
C1969 C1968 1.327 . S
C1969 C1973 1.429 . S
C1970 C1953 1.574 . S
C1970 H1964 0.949 . S
C1970 C1974 1.368 . S
C1971 C1952 1.429 . S
C1971 C1965 1.429 . S
C1971 C1972 1.523 . S
C1972 C1953 1.368 . S
C1972 C1966 1.368 . S
C1972 C1971 1.523 . S
C1973 C1957 1.429 . S
C1973 C1969 1.429 . S
C1973 C1974 1.523 . S
C1974 C1958 1.368 . S
C1974 C1970 1.368 . S
C1974 C1973 1.523 . S
H1975 C1950 0.950 . S
H1976 C1952 0.950 . S
H1977 C1953 0.949 . S
H1978 C1955 0.950 . S
H1979 C1957 0.950 . S
C1980 C1981 1.349 . S
C1980 C1982 1.327 . S
C1980 H2005 0.950 . S
C1981 C1980 1.349 . S
C1981 C1997 1.349 . S
C1982 C1980 1.327 . S
C1982 C2001 1.429 . S
C1982 H2006 0.950 . S
C1983 C2000 1.574 . S
C1983 C2002 1.368 . S
C1983 H2007 0.949 . S
H1984 C1988 0.949 . S
C1985 C1986 1.349 . S
C1985 C1987 1.327 . S
C1985 H2008 0.950 . S
C1986 C1985 1.349 . S
C1986 C1998 1.349 . S
C1987 C1985 1.327 . S
C1987 C2003 1.429 . S
C1987 H2009 0.950 . S
C1988 H1984 0.949 . S
C1988 C1996 1.574 . S
C1988 C2004 1.368 . S
H1989 C1997 0.950 . S
H1990 C1995 0.950 . S
H1991 C1996 0.949 . S
H1992 C1998 0.950 . S
H1993 C1999 0.950 . S
H1994 C2000 0.949 . S
C1995 H1990 0.950 . S
C1995 C1997 1.327 . S
C1995 C2001 1.429 . S
C1996 C1988 1.574 . S
C1996 H1991 0.949 . S
C1996 C2002 1.368 . S
C1997 C1981 1.349 . S
C1997 H1989 0.950 . S
C1997 C1995 1.327 . S
C1998 C1986 1.349 . S
C1998 H1992 0.950 . S
C1998 C1999 1.327 . S
C1999 H1993 0.950 . S
C1999 C1998 1.327 . S
C1999 C2003 1.429 . S
C2000 C1983 1.574 . S
C2000 H1994 0.949 . S
C2000 C2004 1.368 . S
C2001 C1982 1.429 . S
C2001 C1995 1.429 . S
C2001 C2002 1.523 . S
C2002 C1983 1.368 . S
C2002 C1996 1.368 . S
C2002 C2001 1.523 . S
C2003 C1987 1.429 . S
C2003 C1999 1.429 . S
C2003 C2004 1.523 . S
C2004 C1988 1.368 . S
C2004 C2000 1.368 . S
C2004 C2003 1.523 . S
H2005 C1980 0.950 . S
H2006 C1982 0.950 . S
H2007 C1983 0.949 . S
H2008 C1985 0.950 . S
H2009 C1987 0.950 . S
C2010 C2011 1.349 . S
C2010 C2012 1.327 . S
C2010 H2035 0.950 . S
C2011 C2010 1.349 . S
C2011 C2027 1.349 . S
C2012 C2010 1.327 . S
C2012 C2031 1.429 . S
C2012 H2036 0.950 . S
C2013 C2030 1.574 . S
C2013 C2032 1.368 . S
C2013 H2037 0.949 . S
H2014 C2018 0.949 . S
C2015 C2016 1.349 . S
C2015 C2017 1.327 . S
C2015 H2038 0.950 . S
C2016 C2015 1.349 . S
C2016 C2028 1.349 . S
C2017 C2015 1.327 . S
C2017 C2033 1.429 . S
C2017 H2039 0.950 . S
C2018 H2014 0.949 . S
C2018 C2026 1.574 . S
C2018 C2034 1.368 . S
H2019 C2027 0.950 . S
H2020 C2025 0.950 . S
H2021 C2026 0.949 . S
H2022 C2028 0.950 . S
H2023 C2029 0.950 . S
H2024 C2030 0.949 . S
C2025 H2020 0.950 . S
C2025 C2027 1.327 . S
C2025 C2031 1.429 . S
C2026 C2018 1.574 . S
C2026 H2021 0.949 . S
C2026 C2032 1.368 . S
C2027 C2011 1.349 . S
C2027 H2019 0.950 . S
C2027 C2025 1.327 . S
C2028 C2016 1.349 . S
C2028 H2022 0.950 . S
C2028 C2029 1.327 . S
C2029 H2023 0.950 . S
C2029 C2028 1.327 . S
C2029 C2033 1.429 . S
C2030 C2013 1.574 . S
C2030 H2024 0.949 . S
C2030 C2034 1.368 . S
C2031 C2012 1.429 . S
C2031 C2025 1.429 . S
C2031 C2032 1.523 . S
C2032 C2013 1.368 . S
C2032 C2026 1.368 . S
C2032 C2031 1.523 . S
C2033 C2017 1.429 . S
C2033 C2029 1.429 . S
C2033 C2034 1.523 . S
C2034 C2018 1.368 . S
C2034 C2030 1.368 . S
C2034 C2033 1.523 . S
H2035 C2010 0.950 . S
H2036 C2012 0.950 . S
H2037 C2013 0.949 . S
H2038 C2015 0.950 . S
H2039 C2017 0.950 . S
C2040 C2041 1.349 . S
C2040 C2042 1.327 . S
C2040 H2065 0.950 . S
C2041 C2040 1.349 . S
C2041 C2057 1.349 . S
C2042 C2040 1.327 . S
C2042 C2061 1.429 . S
C2042 H2066 0.950 . S
C2043 C2060 1.574 . S
C2043 C2062 1.368 . S
C2043 H2067 0.949 . S
H2044 C2048 0.949 . S
C2045 C2046 1.349 . S
C2045 C2047 1.327 . S
C2045 H2068 0.950 . S
C2046 C2045 1.349 . S
C2046 C2058 1.349 . S
C2047 C2045 1.327 . S
C2047 C2063 1.429 . S
C2047 H2069 0.950 . S
C2048 H2044 0.949 . S
C2048 C2056 1.574 . S
C2048 C2064 1.368 . S
H2049 C2057 0.950 . S
H2050 C2055 0.950 . S
H2051 C2056 0.949 . S
H2052 C2058 0.950 . S
H2053 C2059 0.950 . S
H2054 C2060 0.949 . S
C2055 H2050 0.950 . S
C2055 C2057 1.327 . S
C2055 C2061 1.429 . S
C2056 C2048 1.574 . S
C2056 H2051 0.949 . S
C2056 C2062 1.368 . S
C2057 C2041 1.349 . S
C2057 H2049 0.950 . S
C2057 C2055 1.327 . S
C2058 C2046 1.349 . S
C2058 H2052 0.950 . S
C2058 C2059 1.327 . S
C2059 H2053 0.950 . S
C2059 C2058 1.327 . S
C2059 C2063 1.429 . S
C2060 C2043 1.574 . S
C2060 H2054 0.949 . S
C2060 C2064 1.368 . S
C2061 C2042 1.429 . S
C2061 C2055 1.429 . S
C2061 C2062 1.523 . S
C2062 C2043 1.368 . S
C2062 C2056 1.368 . S
C2062 C2061 1.523 . S
C2063 C2047 1.429 . S
C2063 C2059 1.429 . S
C2063 C2064 1.523 . S
C2064 C2048 1.368 . S
C2064 C2060 1.368 . S
C2064 C2063 1.523 . S
H2065 C2040 0.950 . S
H2066 C2042 0.950 . S
H2067 C2043 0.949 . S
H2068 C2045 0.950 . S
H2069 C2047 0.950 . S
C2070 C2071 1.349 . S
C2070 C2072 1.327 . S
C2070 H2095 0.950 . S
C2071 C2070 1.349 . S
C2071 C2087 1.349 . S
C2072 C2070 1.327 . S
C2072 C2091 1.429 . S
C2072 H2096 0.950 . S
C2073 C2090 1.574 . S
C2073 C2092 1.368 . S
C2073 H2097 0.949 . S
H2074 C2078 0.949 . S
C2075 C2076 1.349 . S
C2075 C2077 1.327 . S
C2075 H2098 0.950 . S
C2076 C2075 1.349 . S
C2076 C2088 1.349 . S
C2077 C2075 1.327 . S
C2077 C2093 1.429 . S
C2077 H2099 0.950 . S
C2078 H2074 0.949 . S
C2078 C2086 1.574 . S
C2078 C2094 1.368 . S
H2079 C2087 0.950 . S
H2080 C2085 0.950 . S
H2081 C2086 0.949 . S
H2082 C2088 0.946 . S
H2083 C2089 0.950 . S
H2084 C2090 0.949 . S
C2085 H2080 0.950 . S
C2085 C2087 1.327 . S
C2085 C2091 1.429 . S
C2086 C2078 1.574 . S
C2086 H2081 0.949 . S
C2086 C2092 1.368 . S
C2087 C2071 1.349 . S
C2087 H2079 0.950 . S
C2087 C2085 1.327 . S
C2088 C2076 1.349 . S
C2088 H2082 0.946 . S
C2088 C2089 1.327 . S
C2089 H2083 0.950 . S
C2089 C2088 1.327 . S
C2089 C2093 1.429 . S
C2090 C2073 1.574 . S
C2090 H2084 0.949 . S
C2090 C2094 1.368 . S
C2091 C2072 1.429 . S
C2091 C2085 1.429 . S
C2091 C2092 1.523 . S
C2092 C2073 1.368 . S
C2092 C2086 1.368 . S
C2092 C2091 1.523 . S
C2093 C2077 1.429 . S
C2093 C2089 1.429 . S
C2093 C2094 1.523 . S
C2094 C2078 1.368 . S
C2094 C2090 1.368 . S
C2094 C2093 1.523 . S
H2095 C2070 0.950 . S
H2096 C2072 0.950 . S
H2097 C2073 0.949 . S
H2098 C2075 0.950 . S
H2099 C2077 0.950 . S
C2100 C2101 1.349 . S
C2100 C2102 1.327 . S
C2100 H2125 0.950 . S
C2101 C2100 1.349 . S
C2101 C2117 1.349 . S
C2102 C2100 1.327 . S
C2102 C2121 1.429 . S
C2102 H2126 0.950 . S
C2103 C2120 1.574 . S
C2103 C2122 1.368 . S
C2103 H2127 0.949 . S
H2104 C2108 0.949 . S
C2105 C2106 1.349 . S
C2105 C2107 1.327 . S
C2105 H2128 0.950 . S
C2106 C2105 1.349 . S
C2106 C2118 1.349 . S
C2107 C2105 1.327 . S
C2107 C2123 1.429 . S
C2107 H2129 0.950 . S
C2108 H2104 0.949 . S
C2108 C2116 1.574 . S
C2108 C2124 1.368 . S
H2109 C2117 0.950 . S
H2110 C2115 0.950 . S
H2111 C2116 0.949 . S
H2112 C2118 0.950 . S
H2113 C2119 0.950 . S
H2114 C2120 0.949 . S
C2115 H2110 0.950 . S
C2115 C2117 1.327 . S
C2115 C2121 1.429 . S
C2116 C2108 1.574 . S
C2116 H2111 0.949 . S
C2116 C2122 1.368 . S
C2117 C2101 1.349 . S
C2117 H2109 0.950 . S
C2117 C2115 1.327 . S
C2118 C2106 1.349 . S
C2118 H2112 0.950 . S
C2118 C2119 1.327 . S
C2119 H2113 0.950 . S
C2119 C2118 1.327 . S
C2119 C2123 1.429 . S
C2120 C2103 1.574 . S
C2120 H2114 0.949 . S
C2120 C2124 1.368 . S
C2121 C2102 1.429 . S
C2121 C2115 1.429 . S
C2121 C2122 1.523 . S
C2122 C2103 1.368 . S
C2122 C2116 1.368 . S
C2122 C2121 1.523 . S
C2123 C2107 1.429 . S
C2123 C2119 1.429 . S
C2123 C2124 1.523 . S
C2124 C2108 1.368 . S
C2124 C2120 1.368 . S
C2124 C2123 1.523 . S
H2125 C2100 0.950 . S
H2126 C2102 0.950 . S
H2127 C2103 0.949 . S
H2128 C2105 0.950 . S
H2129 C2107 0.950 . S
C2130 C2131 1.349 . S
C2130 C2132 1.327 . S
C2130 H2155 0.950 . S
C2131 C2130 1.349 . S
C2131 C2147 1.349 . S
C2132 C2130 1.327 . S
C2132 C2151 1.429 . S
C2132 H2156 0.950 . S
C2133 C2150 1.574 . S
C2133 C2152 1.368 . S
C2133 H2157 0.949 . S
H2134 C2138 0.949 . S
C2135 C2136 1.349 . S
C2135 C2137 1.327 . S
C2135 H2158 0.950 . S
C2136 C2135 1.349 . S
C2136 C2148 1.349 . S
C2137 C2135 1.327 . S
C2137 C2153 1.429 . S
C2137 H2159 0.950 . S
C2138 H2134 0.949 . S
C2138 C2146 1.574 . S
C2138 C2154 1.368 . S
H2139 C2147 0.950 . S
H2140 C2145 0.950 . S
H2141 C2146 0.949 . S
H2142 C2148 0.950 . S
H2143 C2149 0.950 . S
H2144 C2150 0.949 . S
C2145 H2140 0.950 . S
C2145 C2147 1.327 . S
C2145 C2151 1.429 . S
C2146 C2138 1.574 . S
C2146 H2141 0.949 . S
C2146 C2152 1.368 . S
C2147 C2131 1.349 . S
C2147 H2139 0.950 . S
C2147 C2145 1.327 . S
C2148 C2136 1.349 . S
C2148 H2142 0.950 . S
C2148 C2149 1.327 . S
C2149 H2143 0.950 . S
C2149 C2148 1.327 . S
C2149 C2153 1.429 . S
C2150 C2133 1.574 . S
C2150 H2144 0.949 . S
C2150 C2154 1.368 . S
C2151 C2132 1.429 . S
C2151 C2145 1.429 . S
C2151 C2152 1.523 . S
C2152 C2133 1.368 . S
C2152 C2146 1.368 . S
C2152 C2151 1.523 . S
C2153 C2137 1.429 . S
C2153 C2149 1.429 . S
C2153 C2154 1.523 . S
C2154 C2138 1.368 . S
C2154 C2150 1.368 . S
C2154 C2153 1.523 . S
H2155 C2130 0.950 . S
H2156 C2132 0.950 . S
H2157 C2133 0.949 . S
H2158 C2135 0.950 . S
H2159 C2137 0.950 . S
C2160 C2161 1.349 . S
C2160 C2162 1.327 . S
C2160 H2185 0.950 . S
C2161 C2160 1.349 . S
C2161 C2177 1.349 . S
C2162 C2160 1.327 . S
C2162 C2181 1.429 . S
C2162 H2186 0.950 . S
C2163 C2180 1.574 . S
C2163 C2182 1.368 . S
C2163 H2187 0.949 . S
H2164 C2168 0.949 . S
C2165 C2166 1.349 . S
C2165 C2167 1.327 . S
C2165 H2188 0.950 . S
C2166 C2165 1.349 . S
C2166 C2178 1.349 . S
C2167 C2165 1.327 . S
C2167 C2183 1.429 . S
C2167 H2189 0.950 . S
C2168 H2164 0.949 . S
C2168 C2176 1.574 . S
C2168 C2184 1.368 . S
H2169 C2177 0.950 . S
H2170 C2175 0.950 . S
H2171 C2176 0.949 . S
H2172 C2178 0.950 . S
H2173 C2179 0.950 . S
H2174 C2180 0.949 . S
C2175 H2170 0.950 . S
C2175 C2177 1.327 . S
C2175 C2181 1.429 . S
C2176 C2168 1.574 . S
C2176 H2171 0.949 . S
C2176 C2182 1.368 . S
C2177 C2161 1.349 . S
C2177 H2169 0.950 . S
C2177 C2175 1.327 . S
C2178 C2166 1.349 . S
C2178 H2172 0.950 . S
C2178 C2179 1.327 . S
C2179 H2173 0.950 . S
C2179 C2178 1.327 . S
C2179 C2183 1.429 . S
C2180 C2163 1.574 . S
C2180 H2174 0.949 . S
C2180 C2184 1.368 . S
C2181 C2162 1.429 . S
C2181 C2175 1.429 . S
C2181 C2182 1.523 . S
C2182 C2163 1.368 . S
C2182 C2176 1.368 . S
C2182 C2181 1.523 . S
C2183 C2167 1.429 . S
C2183 C2179 1.429 . S
C2183 C2184 1.523 . S
C2184 C2168 1.368 . S
C2184 C2180 1.368 . S
C2184 C2183 1.523 . S
H2185 C2160 0.950 . S
H2186 C2162 0.950 . S
H2187 C2163 0.949 . S
H2188 C2165 0.950 . S
H2189 C2167 0.950 . S
C2190 C2191 1.349 . S
C2190 C2192 1.327 . S
C2190 H2215 0.950 . S
C2191 C2190 1.349 . S
C2191 C2207 1.349 . S
C2192 C2190 1.327 . S
C2192 C2211 1.429 . S
C2192 H2216 0.950 . S
C2193 C2210 1.574 . S
C2193 C2212 1.368 . S
C2193 H2217 0.949 . S
H2194 C2198 0.949 . S
C2195 C2196 1.349 . S
C2195 C2197 1.327 . S
C2195 H2218 0.950 . S
C2196 C2195 1.349 . S
C2196 C2208 1.349 . S
C2197 C2195 1.327 . S
C2197 C2213 1.429 . S
C2197 H2219 0.950 . S
C2198 H2194 0.949 . S
C2198 C2206 1.574 . S
C2198 C2214 1.368 . S
H2199 C2207 0.950 . S
H2200 C2205 0.950 . S
H2201 C2206 0.949 . S
H2202 C2208 0.950 . S
H2203 C2209 0.950 . S
H2204 C2210 0.949 . S
C2205 H2200 0.950 . S
C2205 C2207 1.327 . S
C2205 C2211 1.429 . S
C2206 C2198 1.574 . S
C2206 H2201 0.949 . S
C2206 C2212 1.368 . S
C2207 C2191 1.349 . S
C2207 H2199 0.950 . S
C2207 C2205 1.327 . S
C2208 C2196 1.349 . S
C2208 H2202 0.950 . S
C2208 C2209 1.327 . S
C2209 H2203 0.950 . S
C2209 C2208 1.327 . S
C2209 C2213 1.429 . S
C2210 C2193 1.574 . S
C2210 H2204 0.949 . S
C2210 C2214 1.368 . S
C2211 C2192 1.429 . S
C2211 C2205 1.429 . S
C2211 C2212 1.523 . S
C2212 C2193 1.368 . S
C2212 C2206 1.368 . S
C2212 C2211 1.523 . S
C2213 C2197 1.429 . S
C2213 C2209 1.429 . S
C2213 C2214 1.523 . S
C2214 C2198 1.368 . S
C2214 C2210 1.368 . S
C2214 C2213 1.523 . S
H2215 C2190 0.950 . S
H2216 C2192 0.950 . S
H2217 C2193 0.949 . S
H2218 C2195 0.950 . S
H2219 C2197 0.950 . S
C2220 C2221 1.349 . S
C2220 C2222 1.327 . S
C2220 H2245 0.950 . S
C2221 C2220 1.349 . S
C2221 C2237 1.349 . S
C2222 C2220 1.327 . S
C2222 C2241 1.429 . S
C2222 H2246 0.950 . S
C2223 C2240 1.574 . S
C2223 C2242 1.368 . S
C2223 H2247 0.949 . S
H2224 C2228 0.949 . S
C2225 C2226 1.349 . S
C2225 C2227 1.327 . S
C2225 H2248 0.950 . S
C2226 C2225 1.349 . S
C2226 C2238 1.349 . S
C2227 C2225 1.327 . S
C2227 C2243 1.429 . S
C2227 H2249 0.950 . S
C2228 H2224 0.949 . S
C2228 C2236 1.574 . S
C2228 C2244 1.368 . S
H2229 C2237 0.950 . S
H2230 C2235 0.950 . S
H2231 C2236 0.949 . S
H2232 C2238 0.950 . S
H2233 C2239 0.950 . S
H2234 C2240 0.949 . S
C2235 H2230 0.950 . S
C2235 C2237 1.327 . S
C2235 C2241 1.429 . S
C2236 C2228 1.574 . S
C2236 H2231 0.949 . S
C2236 C2242 1.368 . S
C2237 C2221 1.349 . S
C2237 H2229 0.950 . S
C2237 C2235 1.327 . S
C2238 C2226 1.349 . S
C2238 H2232 0.950 . S
C2238 C2239 1.327 . S
C2239 H2233 0.950 . S
C2239 C2238 1.327 . S
C2239 C2243 1.429 . S
C2240 C2223 1.574 . S
C2240 H2234 0.949 . S
C2240 C2244 1.368 . S
C2241 C2222 1.429 . S
C2241 C2235 1.429 . S
C2241 C2242 1.523 . S
C2242 C2223 1.368 . S
C2242 C2236 1.368 . S
C2242 C2241 1.523 . S
C2243 C2227 1.429 . S
C2243 C2239 1.429 . S
C2243 C2244 1.523 . S
C2244 C2228 1.368 . S
C2244 C2240 1.368 . S
C2244 C2243 1.523 . S
H2245 C2220 0.950 . S
H2246 C2222 0.950 . S
H2247 C2223 0.949 . S
H2248 C2225 0.950 . S
H2249 C2227 0.950 . S
C2250 C2251 1.349 . S
C2250 C2252 1.327 . S
C2250 H2275 0.950 . S
C2251 C2250 1.349 . S
C2251 C2267 1.349 . S
C2252 C2250 1.327 . S
C2252 C2271 1.429 . S
C2252 H2276 0.950 . S
C2253 C2270 1.574 . S
C2253 C2272 1.368 . S
C2253 H2277 0.949 . S
H2254 C2258 0.949 . S
C2255 C2256 1.349 . S
C2255 C2257 1.327 . S
C2255 H2278 0.950 . S
C2256 C2255 1.349 . S
C2256 C2268 1.349 . S
C2257 C2255 1.327 . S
C2257 C2273 1.429 . S
C2257 H2279 0.950 . S
C2258 H2254 0.949 . S
C2258 C2266 1.574 . S
C2258 C2274 1.368 . S
H2259 C2267 0.950 . S
H2260 C2265 0.950 . S
H2261 C2266 0.949 . S
H2262 C2268 0.950 . S
H2263 C2269 0.950 . S
H2264 C2270 0.949 . S
C2265 H2260 0.950 . S
C2265 C2267 1.327 . S
C2265 C2271 1.429 . S
C2266 C2258 1.574 . S
C2266 H2261 0.949 . S
C2266 C2272 1.368 . S
C2267 C2251 1.349 . S
C2267 H2259 0.950 . S
C2267 C2265 1.327 . S
C2268 C2256 1.349 . S
C2268 H2262 0.950 . S
C2268 C2269 1.327 . S
C2269 H2263 0.950 . S
C2269 C2268 1.327 . S
C2269 C2273 1.429 . S
C2270 C2253 1.574 . S
C2270 H2264 0.949 . S
C2270 C2274 1.368 . S
C2271 C2252 1.429 . S
C2271 C2265 1.429 . S
C2271 C2272 1.523 . S
C2272 C2253 1.368 . S
C2272 C2266 1.368 . S
C2272 C2271 1.523 . S
C2273 C2257 1.429 . S
C2273 C2269 1.429 . S
C2273 C2274 1.523 . S
C2274 C2258 1.368 . S
C2274 C2270 1.368 . S
C2274 C2273 1.523 . S
H2275 C2250 0.950 . S
H2276 C2252 0.950 . S
H2277 C2253 0.949 . S
H2278 C2255 0.950 . S
H2279 C2257 0.950 . S
C2280 C2281 1.349 . S
C2280 C2282 1.327 . S
C2280 H2305 0.950 . S
C2281 C2280 1.349 . S
C2281 C2297 1.349 . S
C2282 C2280 1.327 . S
C2282 C2301 1.429 . S
C2282 H2306 0.950 . S
C2283 C2300 1.574 . S
C2283 C2302 1.368 . S
C2283 H2307 0.949 . S
H2284 C2288 0.949 . S
C2285 C2286 1.349 . S
C2285 C2287 1.327 . S
C2285 H2308 0.950 . S
C2286 C2285 1.349 . S
C2286 C2298 1.349 . S
C2287 C2285 1.327 . S
C2287 C2303 1.429 . S
C2287 H2309 0.950 . S
C2288 H2284 0.949 . S
C2288 C2296 1.574 . S
C2288 C2304 1.368 . S
H2289 C2297 0.950 . S
H2290 C2295 0.950 . S
H2291 C2296 0.949 . S
H2292 C2298 0.950 . S
H2293 C2299 0.950 . S
H2294 C2300 0.949 . S
C2295 H2290 0.950 . S
C2295 C2297 1.327 . S
C2295 C2301 1.429 . S
C2296 C2288 1.574 . S
C2296 H2291 0.949 . S
C2296 C2302 1.368 . S
C2297 C2281 1.349 . S
C2297 H2289 0.950 . S
C2297 C2295 1.327 . S
C2298 C2286 1.349 . S
C2298 H2292 0.950 . S
C2298 C2299 1.327 . S
C2299 H2293 0.950 . S
C2299 C2298 1.327 . S
C2299 C2303 1.429 . S
C2300 C2283 1.574 . S
C2300 H2294 0.949 . S
C2300 C2304 1.368 . S
C2301 C2282 1.429 . S
C2301 C2295 1.429 . S
C2301 C2302 1.523 . S
C2302 C2283 1.368 . S
C2302 C2296 1.368 . S
C2302 C2301 1.523 . S
C2303 C2287 1.429 . S
C2303 C2299 1.429 . S
C2303 C2304 1.523 . S
C2304 C2288 1.368 . S
C2304 C2300 1.368 . S
C2304 C2303 1.523 . S
H2305 C2280 0.950 . S
H2306 C2282 0.950 . S
H2307 C2283 0.949 . S
H2308 C2285 0.950 . S
H2309 C2287 0.950 . S
C2310 C2311 1.349 . S
C2310 C2312 1.327 . S
C2310 H2335 0.950 . S
C2311 C2310 1.349 . S
C2311 C2327 1.349 . S
C2312 C2310 1.327 . S
C2312 C2331 1.429 . S
C2312 H2336 0.950 . S
C2313 C2330 1.574 . S
C2313 C2332 1.368 . S
C2313 H2337 0.949 . S
H2314 C2318 0.949 . S
C2315 C2316 1.349 . S
C2315 C2317 1.327 . S
C2315 H2338 0.950 . S
C2316 C2315 1.349 . S
C2316 C2328 1.349 . S
C2317 C2315 1.327 . S
C2317 C2333 1.429 . S
C2317 H2339 0.950 . S
C2318 H2314 0.949 . S
C2318 C2326 1.574 . S
C2318 C2334 1.368 . S
H2319 C2327 0.950 . S
H2320 C2325 0.950 . S
H2321 C2326 0.949 . S
H2322 C2328 0.950 . S
H2323 C2329 0.950 . S
H2324 C2330 0.949 . S
C2325 H2320 0.950 . S
C2325 C2327 1.327 . S
C2325 C2331 1.429 . S
C2326 C2318 1.574 . S
C2326 H2321 0.949 . S
C2326 C2332 1.368 . S
C2327 C2311 1.349 . S
C2327 H2319 0.950 . S
C2327 C2325 1.327 . S
C2328 C2316 1.349 . S
C2328 H2322 0.950 . S
C2328 C2329 1.327 . S
C2329 H2323 0.950 . S
C2329 C2328 1.327 . S
C2329 C2333 1.429 . S
C2330 C2313 1.574 . S
C2330 H2324 0.949 . S
C2330 C2334 1.368 . S
C2331 C2312 1.429 . S
C2331 C2325 1.429 . S
C2331 C2332 1.523 . S
C2332 C2313 1.368 . S
C2332 C2326 1.368 . S
C2332 C2331 1.523 . S
C2333 C2317 1.429 . S
C2333 C2329 1.429 . S
C2333 C2334 1.523 . S
C2334 C2318 1.368 . S
C2334 C2330 1.368 . S
C2334 C2333 1.523 . S
H2335 C2310 0.950 . S
H2336 C2312 0.950 . S
H2337 C2313 0.949 . S
H2338 C2315 0.950 . S
H2339 C2317 0.950 . S
C2340 C2341 1.349 . S
C2340 C2342 1.327 . S
C2340 H2365 0.950 . S
C2341 C2340 1.349 . S
C2341 C2357 1.349 . S
C2342 C2340 1.327 . S
C2342 C2361 1.429 . S
C2342 H2366 0.950 . S
C2343 C2360 1.574 . S
C2343 C2362 1.368 . S
C2343 H2367 0.949 . S
H2344 C2348 0.949 . S
C2345 C2346 1.349 . S
C2345 C2347 1.327 . S
C2345 H2368 0.950 . S
C2346 C2345 1.349 . S
C2346 C2358 1.349 . S
C2347 C2345 1.327 . S
C2347 C2363 1.429 . S
C2347 H2369 0.950 . S
C2348 H2344 0.949 . S
C2348 C2356 1.574 . S
C2348 C2364 1.368 . S
H2349 C2357 0.950 . S
H2350 C2355 0.950 . S
H2351 C2356 0.949 . S
H2352 C2358 0.950 . S
H2353 C2359 0.950 . S
H2354 C2360 0.949 . S
C2355 H2350 0.950 . S
C2355 C2357 1.327 . S
C2355 C2361 1.429 . S
C2356 C2348 1.574 . S
C2356 H2351 0.949 . S
C2356 C2362 1.368 . S
C2357 C2341 1.349 . S
C2357 H2349 0.950 . S
C2357 C2355 1.327 . S
C2358 C2346 1.349 . S
C2358 H2352 0.950 . S
C2358 C2359 1.327 . S
C2359 H2353 0.950 . S
C2359 C2358 1.327 . S
C2359 C2363 1.429 . S
C2360 C2343 1.574 . S
C2360 H2354 0.949 . S
C2360 C2364 1.368 . S
C2361 C2342 1.429 . S
C2361 C2355 1.429 . S
C2361 C2362 1.523 . S
C2362 C2343 1.368 . S
C2362 C2356 1.368 . S
C2362 C2361 1.523 . S
C2363 C2347 1.429 . S
C2363 C2359 1.429 . S
C2363 C2364 1.523 . S
C2364 C2348 1.368 . S
C2364 C2360 1.368 . S
C2364 C2363 1.523 . S
H2365 C2340 0.950 . S
H2366 C2342 0.950 . S
H2367 C2343 0.949 . S
H2368 C2345 0.950 . S
H2369 C2347 0.950 . S
C2370 C2371 1.349 . S
C2370 C2372 1.327 . S
C2370 H2395 0.950 . S
C2371 C2370 1.349 . S
C2371 C2387 1.349 . S
C2372 C2370 1.327 . S
C2372 C2391 1.429 . S
C2372 H2396 0.950 . S
C2373 C2390 1.574 . S
C2373 C2392 1.368 . S
C2373 H2397 0.949 . S
H2374 C2378 0.949 . S
C2375 C2376 1.349 . S
C2375 C2377 1.327 . S
C2375 H2398 0.950 . S
C2376 C2375 1.349 . S
C2376 C2388 1.349 . S
C2377 C2375 1.327 . S
C2377 C2393 1.429 . S
C2377 H2399 0.950 . S
C2378 H2374 0.949 . S
C2378 C2386 1.574 . S
C2378 C2394 1.368 . S
H2379 C2387 0.950 . S
H2380 C2385 0.950 . S
H2381 C2386 0.949 . S
H2382 C2388 0.950 . S
H2383 C2389 0.950 . S
H2384 C2390 0.949 . S
C2385 H2380 0.950 . S
C2385 C2387 1.327 . S
C2385 C2391 1.429 . S
C2386 C2378 1.574 . S
C2386 H2381 0.949 . S
C2386 C2392 1.368 . S
C2387 C2371 1.349 . S
C2387 H2379 0.950 . S
C2387 C2385 1.327 . S
C2388 C2376 1.349 . S
C2388 H2382 0.950 . S
C2388 C2389 1.327 . S
C2389 H2383 0.950 . S
C2389 C2388 1.327 . S
C2389 C2393 1.429 . S
C2390 C2373 1.574 . S
C2390 H2384 0.949 . S
C2390 C2394 1.368 . S
C2391 C2372 1.429 . S
C2391 C2385 1.429 . S
C2391 C2392 1.523 . S
C2392 C2373 1.368 . S
C2392 C2386 1.368 . S
C2392 C2391 1.523 . S
C2393 C2377 1.429 . S
C2393 C2389 1.429 . S
C2393 C2394 1.523 . S
C2394 C2378 1.368 . S
C2394 C2390 1.368 . S
C2394 C2393 1.523 . S
H2395 C2370 0.950 . S
H2396 C2372 0.950 . S
H2397 C2373 0.949 . S
H2398 C2375 0.950 . S
H2399 C2377 0.950 . S
C2400 C2401 1.349 . S
C2400 C2402 1.327 . S
C2400 H2425 0.950 . S
C2401 C2400 1.349 . S
C2401 C2417 1.349 . S
C2402 C2400 1.327 . S
C2402 C2421 1.429 . S
C2402 H2426 0.950 . S
C2403 C2420 1.574 . S
C2403 C2422 1.368 . S
C2403 H2427 0.949 . S
H2404 C2408 0.949 . S
C2405 C2406 1.349 . S
C2405 C2407 1.327 . S
C2405 H2428 0.950 . S
C2406 C2405 1.349 . S
C2406 C2418 1.349 . S
C2407 C2405 1.327 . S
C2407 C2423 1.429 . S
C2407 H2429 0.950 . S
C2408 H2404 0.949 . S
C2408 C2416 1.574 . S
C2408 C2424 1.368 . S
H2409 C2417 0.950 . S
H2410 C2415 0.950 . S
H2411 C2416 0.949 . S
H2412 C2418 0.950 . S
H2413 C2419 0.950 . S
H2414 C2420 0.949 . S
C2415 H2410 0.950 . S
C2415 C2417 1.327 . S
C2415 C2421 1.429 . S
C2416 C2408 1.574 . S
C2416 H2411 0.949 . S
C2416 C2422 1.368 . S
C2417 C2401 1.349 . S
C2417 H2409 0.950 . S
C2417 C2415 1.327 . S
C2418 C2406 1.349 . S
C2418 H2412 0.950 . S
C2418 C2419 1.327 . S
C2419 H2413 0.950 . S
C2419 C2418 1.327 . S
C2419 C2423 1.429 . S
C2420 C2403 1.574 . S
C2420 H2414 0.949 . S
C2420 C2424 1.368 . S
C2421 C2402 1.429 . S
C2421 C2415 1.429 . S
C2421 C2422 1.523 . S
C2422 C2403 1.368 . S
C2422 C2416 1.368 . S
C2422 C2421 1.523 . S
C2423 C2407 1.429 . S
C2423 C2419 1.429 . S
C2423 C2424 1.523 . S
C2424 C2408 1.368 . S
C2424 C2420 1.368 . S
C2424 C2423 1.523 . S
H2425 C2400 0.950 . S
H2426 C2402 0.950 . S
H2427 C2403 0.949 . S
H2428 C2405 0.950 . S
H2429 C2407 0.950 . S
C2430 C2431 1.349 . S
C2430 C2432 1.327 . S
C2430 H2455 0.950 . S
C2431 C2430 1.349 . S
C2431 C2447 1.349 . S
C2432 C2430 1.327 . S
C2432 C2451 1.429 . S
C2432 H2456 0.950 . S
C2433 C2450 1.574 . S
C2433 C2452 1.368 . S
C2433 H2457 0.949 . S
H2434 C2438 0.949 . S
C2435 C2436 1.349 . S
C2435 C2437 1.327 . S
C2435 H2458 0.950 . S
C2436 C2435 1.349 . S
C2436 C2448 1.349 . S
C2437 C2435 1.327 . S
C2437 C2453 1.429 . S
C2437 H2459 0.950 . S
C2438 H2434 0.949 . S
C2438 C2446 1.574 . S
C2438 C2454 1.368 . S
H2439 C2447 0.950 . S
H2440 C2445 0.950 . S
H2441 C2446 0.949 . S
H2442 C2448 0.950 . S
H2443 C2449 0.950 . S
H2444 C2450 0.949 . S
C2445 H2440 0.950 . S
C2445 C2447 1.327 . S
C2445 C2451 1.429 . S
C2446 C2438 1.574 . S
C2446 H2441 0.949 . S
C2446 C2452 1.368 . S
C2447 C2431 1.349 . S
C2447 H2439 0.950 . S
C2447 C2445 1.327 . S
C2448 C2436 1.349 . S
C2448 H2442 0.950 . S
C2448 C2449 1.327 . S
C2449 H2443 0.950 . S
C2449 C2448 1.327 . S
C2449 C2453 1.429 . S
C2450 C2433 1.574 . S
C2450 H2444 0.949 . S
C2450 C2454 1.368 . S
C2451 C2432 1.429 . S
C2451 C2445 1.429 . S
C2451 C2452 1.523 . S
C2452 C2433 1.368 . S
C2452 C2446 1.368 . S
C2452 C2451 1.523 . S
C2453 C2437 1.429 . S
C2453 C2449 1.429 . S
C2453 C2454 1.523 . S
C2454 C2438 1.368 . S
C2454 C2450 1.368 . S
C2454 C2453 1.523 . S
H2455 C2430 0.950 . S
H2456 C2432 0.950 . S
H2457 C2433 0.949 . S
H2458 C2435 0.950 . S
H2459 C2437 0.950 . S
C2460 C2461 1.349 . S
C2460 C2462 1.327 . S
C2460 H2485 0.950 . S
C2461 C2460 1.349 . S
C2461 C2477 1.349 . S
C2462 C2460 1.327 . S
C2462 C2481 1.429 . S
C2462 H2486 0.950 . S
C2463 C2480 1.574 . S
C2463 C2482 1.368 . S
C2463 H2487 0.949 . S
H2464 C2468 0.949 . S
C2465 C2466 1.349 . S
C2465 C2467 1.327 . S
C2465 H2488 0.950 . S
C2466 C2465 1.349 . S
C2466 C2478 1.349 . S
C2467 C2465 1.327 . S
C2467 C2483 1.429 . S
C2467 H2489 0.950 . S
C2468 H2464 0.949 . S
C2468 C2476 1.574 . S
C2468 C2484 1.368 . S
H2469 C2477 0.950 . S
H2470 C2475 0.950 . S
H2471 C2476 0.949 . S
H2472 C2478 0.950 . S
H2473 C2479 0.950 . S
H2474 C2480 0.949 . S
C2475 H2470 0.950 . S
C2475 C2477 1.327 . S
C2475 C2481 1.429 . S
C2476 C2468 1.574 . S
C2476 H2471 0.949 . S
C2476 C2482 1.368 . S
C2477 C2461 1.349 . S
C2477 H2469 0.950 . S
C2477 C2475 1.327 . S
C2478 C2466 1.349 . S
C2478 H2472 0.950 . S
C2478 C2479 1.327 . S
C2479 H2473 0.950 . S
C2479 C2478 1.327 . S
C2479 C2483 1.429 . S
C2480 C2463 1.574 . S
C2480 H2474 0.949 . S
C2480 C2484 1.368 . S
C2481 C2462 1.429 . S
C2481 C2475 1.429 . S
C2481 C2482 1.523 . S
C2482 C2463 1.368 . S
C2482 C2476 1.368 . S
C2482 C2481 1.523 . S
C2483 C2467 1.429 . S
C2483 C2479 1.429 . S
C2483 C2484 1.523 . S
C2484 C2468 1.368 . S
C2484 C2480 1.368 . S
C2484 C2483 1.523 . S
H2485 C2460 0.950 . S
H2486 C2462 0.950 . S
H2487 C2463 0.949 . S
H2488 C2465 0.950 . S
H2489 C2467 0.950 . S
C2490 C2491 1.349 . S
C2490 C2492 1.327 . S
C2490 H2515 0.950 . S
C2491 C2490 1.349 . S
C2491 C2507 1.349 . S
C2492 C2490 1.327 . S
C2492 C2511 1.429 . S
C2492 H2516 0.950 . S
C2493 C2510 1.574 . S
C2493 C2512 1.368 . S
C2493 H2517 0.949 . S
H2494 C2498 0.949 . S
C2495 C2496 1.349 . S
C2495 C2497 1.327 . S
C2495 H2518 0.950 . S
C2496 C2495 1.349 . S
C2496 C2508 1.349 . S
C2497 C2495 1.327 . S
C2497 C2513 1.429 . S
C2497 H2519 0.950 . S
C2498 H2494 0.949 . S
C2498 C2506 1.574 . S
C2498 C2514 1.368 . S
H2499 C2507 0.950 . S
H2500 C2505 0.950 . S
H2501 C2506 0.949 . S
H2502 C2508 0.950 . S
H2503 C2509 0.950 . S
H2504 C2510 0.949 . S
C2505 H2500 0.950 . S
C2505 C2507 1.327 . S
C2505 C2511 1.429 . S
C2506 C2498 1.574 . S
C2506 H2501 0.949 . S
C2506 C2512 1.368 . S
C2507 C2491 1.349 . S
C2507 H2499 0.950 . S
C2507 C2505 1.327 . S
C2508 C2496 1.349 . S
C2508 H2502 0.950 . S
C2508 C2509 1.327 . S
C2509 H2503 0.950 . S
C2509 C2508 1.327 . S
C2509 C2513 1.429 . S
C2510 C2493 1.574 . S
C2510 H2504 0.949 . S
C2510 C2514 1.368 . S
C2511 C2492 1.429 . S
C2511 C2505 1.429 . S
C2511 C2512 1.523 . S
C2512 C2493 1.368 . S
C2512 C2506 1.368 . S
C2512 C2511 1.523 . S
C2513 C2497 1.429 . S
C2513 C2509 1.429 . S
C2513 C2514 1.523 . S
C2514 C2498 1.368 . S
C2514 C2510 1.368 . S
C2514 C2513 1.523 . S
H2515 C2490 0.950 . S
H2516 C2492 0.950 . S
H2517 C2493 0.949 . S
H2518 C2495 0.950 . S
H2519 C2497 0.950 . S
C2520 C2521 1.349 . S
C2520 C2522 1.327 . S
C2520 H2545 0.950 . S
C2521 C2520 1.349 . S
C2521 C2537 1.349 . S
C2522 C2520 1.327 . S
C2522 C2541 1.429 . S
C2522 H2546 0.950 . S
C2523 C2540 1.574 . S
C2523 C2542 1.368 . S
C2523 H2547 0.949 . S
H2524 C2528 0.949 . S
C2525 C2526 1.349 . S
C2525 C2527 1.327 . S
C2525 H2548 0.950 . S
C2526 C2525 1.349 . S
C2526 C2538 1.349 . S
C2527 C2525 1.327 . S
C2527 C2543 1.429 . S
C2527 H2549 0.950 . S
C2528 H2524 0.949 . S
C2528 C2536 1.574 . S
C2528 C2544 1.368 . S
H2529 C2537 0.950 . S
H2530 C2535 0.950 . S
H2531 C2536 0.949 . S
H2532 C2538 0.950 . S
H2533 C2539 0.950 . S
H2534 C2540 0.949 . S
C2535 H2530 0.950 . S
C2535 C2537 1.327 . S
C2535 C2541 1.429 . S
C2536 C2528 1.574 . S
C2536 H2531 0.949 . S
C2536 C2542 1.368 . S
C2537 C2521 1.349 . S
C2537 H2529 0.950 . S
C2537 C2535 1.327 . S
C2538 C2526 1.349 . S
C2538 H2532 0.950 . S
C2538 C2539 1.327 . S
C2539 H2533 0.950 . S
C2539 C2538 1.327 . S
C2539 C2543 1.429 . S
C2540 C2523 1.574 . S
C2540 H2534 0.949 . S
C2540 C2544 1.368 . S
C2541 C2522 1.429 . S
C2541 C2535 1.429 . S
C2541 C2542 1.523 . S
C2542 C2523 1.368 . S
C2542 C2536 1.368 . S
C2542 C2541 1.523 . S
C2543 C2527 1.429 . S
C2543 C2539 1.429 . S
C2543 C2544 1.523 . S
C2544 C2528 1.368 . S
C2544 C2540 1.368 . S
C2544 C2543 1.523 . S
H2545 C2520 0.950 . S
H2546 C2522 0.950 . S
H2547 C2523 0.949 . S
H2548 C2525 0.950 . S
H2549 C2527 0.950 . S
C2550 C2551 1.349 . S
C2550 C2552 1.327 . S
C2550 H2575 0.950 . S
C2551 C2550 1.349 . S
C2551 C2567 1.349 . S
C2552 C2550 1.327 . S
C2552 C2571 1.429 . S
C2552 H2576 0.950 . S
C2553 C2570 1.574 . S
C2553 C2572 1.368 . S
C2553 H2577 0.949 . S
H2554 C2558 0.949 . S
C2555 C2556 1.349 . S
C2555 C2557 1.327 . S
C2555 H2578 0.950 . S
C2556 C2555 1.349 . S
C2556 C2568 1.349 . S
C2557 C2555 1.327 . S
C2557 C2573 1.429 . S
C2557 H2579 0.950 . S
C2558 H2554 0.949 . S
C2558 C2566 1.574 . S
C2558 C2574 1.368 . S
H2559 C2567 0.950 . S
H2560 C2565 0.950 . S
H2561 C2566 0.949 . S
H2562 C2568 0.950 . S
H2563 C2569 0.950 . S
H2564 C2570 0.949 . S
C2565 H2560 0.950 . S
C2565 C2567 1.327 . S
C2565 C2571 1.429 . S
C2566 C2558 1.574 . S
C2566 H2561 0.949 . S
C2566 C2572 1.368 . S
C2567 C2551 1.349 . S
C2567 H2559 0.950 . S
C2567 C2565 1.327 . S
C2568 C2556 1.349 . S
C2568 H2562 0.950 . S
C2568 C2569 1.327 . S
C2569 H2563 0.950 . S
C2569 C2568 1.327 . S
C2569 C2573 1.429 . S
C2570 C2553 1.574 . S
C2570 H2564 0.949 . S
C2570 C2574 1.368 . S
C2571 C2552 1.429 . S
C2571 C2565 1.429 . S
C2571 C2572 1.523 . S
C2572 C2553 1.368 . S
C2572 C2566 1.368 . S
C2572 C2571 1.523 . S
C2573 C2557 1.429 . S
C2573 C2569 1.429 . S
C2573 C2574 1.523 . S
C2574 C2558 1.368 . S
C2574 C2570 1.368 . S
C2574 C2573 1.523 . S
H2575 C2550 0.950 . S
H2576 C2552 0.950 . S
H2577 C2553 0.949 . S
H2578 C2555 0.950 . S
H2579 C2557 0.950 . S
C2580 C2581 1.349 . S
C2580 C2582 1.327 . S
C2580 H2605 0.950 . S
C2581 C2580 1.349 . S
C2581 C2597 1.349 . S
C2582 C2580 1.327 . S
C2582 C2601 1.429 . S
C2582 H2606 0.950 . S
C2583 C2600 1.574 . S
C2583 C2602 1.368 . S
C2583 H2607 0.949 . S
H2584 C2588 0.949 . S
C2585 C2586 1.349 . S
C2585 C2587 1.327 . S
C2585 H2608 0.950 . S
C2586 C2585 1.349 . S
C2586 C2598 1.349 . S
C2587 C2585 1.327 . S
C2587 C2603 1.429 . S
C2587 H2609 0.950 . S
C2588 H2584 0.949 . S
C2588 C2596 1.574 . S
C2588 C2604 1.368 . S
H2589 C2597 0.950 . S
H2590 C2595 0.950 . S
H2591 C2596 0.949 . S
H2592 C2598 0.950 . S
H2593 C2599 0.950 . S
H2594 C2600 0.949 . S
C2595 H2590 0.950 . S
C2595 C2597 1.327 . S
C2595 C2601 1.429 . S
C2596 C2588 1.574 . S
C2596 H2591 0.949 . S
C2596 C2602 1.368 . S
C2597 C2581 1.349 . S
C2597 H2589 0.950 . S
C2597 C2595 1.327 . S
C2598 C2586 1.349 . S
C2598 H2592 0.950 . S
C2598 C2599 1.327 . S
C2599 H2593 0.950 . S
C2599 C2598 1.327 . S
C2599 C2603 1.429 . S
C2600 C2583 1.574 . S
C2600 H2594 0.949 . S
C2600 C2604 1.368 . S
C2601 C2582 1.429 . S
C2601 C2595 1.429 . S
C2601 C2602 1.523 . S
C2602 C2583 1.368 . S
C2602 C2596 1.368 . S
C2602 C2601 1.523 . S
C2603 C2587 1.429 . S
C2603 C2599 1.429 . S
C2603 C2604 1.523 . S
C2604 C2588 1.368 . S
C2604 C2600 1.368 . S
C2604 C2603 1.523 . S
H2605 C2580 0.950 . S
H2606 C2582 0.950 . S
H2607 C2583 0.949 . S
H2608 C2585 0.950 . S
H2609 C2587 0.950 . S
C2610 C2611 1.349 . S
C2610 C2612 1.327 . S
C2610 H2635 0.950 . S
C2611 C2610 1.349 . S
C2611 C2627 1.349 . S
C2612 C2610 1.327 . S
C2612 C2631 1.429 . S
C2612 H2636 0.950 . S
C2613 C2630 1.574 . S
C2613 C2632 1.368 . S
C2613 H2637 0.949 . S
H2614 C2618 0.949 . S
C2615 C2616 1.349 . S
C2615 C2617 1.327 . S
C2615 H2638 0.950 . S
C2616 C2615 1.349 . S
C2616 C2628 1.349 . S
C2617 C2615 1.327 . S
C2617 C2633 1.429 . S
C2617 H2639 0.950 . S
C2618 H2614 0.949 . S
C2618 C2626 1.574 . S
C2618 C2634 1.368 . S
H2619 C2627 0.950 . S
H2620 C2625 0.950 . S
H2621 C2626 0.949 . S
H2622 C2628 0.950 . S
H2623 C2629 0.950 . S
H2624 C2630 0.949 . S
C2625 H2620 0.950 . S
C2625 C2627 1.327 . S
C2625 C2631 1.429 . S
C2626 C2618 1.574 . S
C2626 H2621 0.949 . S
C2626 C2632 1.368 . S
C2627 C2611 1.349 . S
C2627 H2619 0.950 . S
C2627 C2625 1.327 . S
C2628 C2616 1.349 . S
C2628 H2622 0.950 . S
C2628 C2629 1.327 . S
C2629 H2623 0.950 . S
C2629 C2628 1.327 . S
C2629 C2633 1.429 . S
C2630 C2613 1.574 . S
C2630 H2624 0.949 . S
C2630 C2634 1.368 . S
C2631 C2612 1.429 . S
C2631 C2625 1.429 . S
C2631 C2632 1.523 . S
C2632 C2613 1.368 . S
C2632 C2626 1.368 . S
C2632 C2631 1.523 . S
C2633 C2617 1.429 . S
C2633 C2629 1.429 . S
C2633 C2634 1.523 . S
C2634 C2618 1.368 . S
C2634 C2630 1.368 . S
C2634 C2633 1.523 . S
H2635 C2610 0.950 . S
H2636 C2612 0.950 . S
H2637 C2613 0.949 . S
H2638 C2615 0.950 . S
H2639 C2617 0.950 . S
C481 C18 1.114 . S
C486 C362 1.089 . S
C511 C382 1.089 . S
C516 C38 1.114 . S
C541 C58 1.114 . S
C546 C322 1.089 . S
C571 C78 1.114 . S
C576 C342 1.089 . S
C601 C442 1.089 . S
C606 C98 1.114 . S
C631 C118 1.114 . S
C636 C422 1.089 . S
C661 C462 1.089 . S
C666 C138 1.114 . S
C691 C158 1.114 . S
C696 C402 1.089 . S
C721 C178 1.114 . S
C726 C262 1.089 . S
C751 C198 1.114 . S
C756 C302 1.089 . S
C781 C282 1.089 . S
C786 C218 1.114 . S
C811 C238 1.114 . S
C816 C242 1.089 . S
C841 C259 1.114 . S
C846 C124 1.089 . S
C871 C279 1.114 . S
C876 C144 1.089 . S
C901 C299 1.114 . S
C906 C84 1.089 . S
C931 C104 1.089 . S
C936 C319 1.114 . S
C961 C339 1.114 . S
C966 C204 1.089 . S
C991 C184 1.089 . S
C996 C359 1.114 . S
C1021 C224 1.089 . S
C1026 C379 1.114 . S
C1051 C164 1.089 . S
C1056 C399 1.114 . S
C1081 C24 1.089 . S
C1086 C419 1.114 . S
C1111 C64 1.089 . S
C1116 C439 1.114 . S
C1141 C44 1.089 . S
C1146 C459 1.114 . S
C1171 C479 1.114 . S
C1176 C4 1.089 . S
C1201 C82 1.327 . S
C1206 C9 1.439 . S
C1231 C102 1.327 . S
C1236 C29 1.440 . S
C1261 C122 1.327 . S
C1266 C49 1.440 . S
C1291 C142 1.327 . S
C1296 C69 1.440 . S
C1321 C89 1.439 . S
C1326 C162 1.327 . S
C1351 C109 1.440 . S
C1356 C222 1.327 . S
C1381 C129 1.440 . S
C1386 C182 1.327 . S
C1411 C149 1.440 . S
C1416 C202 1.327 . S
C1441 C169 1.439 . S
C1446 C2 1.327 . S
C1471 C189 1.440 . S
C1476 C42 1.327 . S
C1501 C209 1.440 . S
C1506 C62 1.327 . S
C1531 C22 1.327 . S
C1536 C229 1.440 . S
C1561 C324 1.327 . S
C1566 C252 1.439 . S
C1591 C344 1.327 . S
C1596 C272 1.440 . S
C1621 C292 1.440 . S
C1626 C364 1.327 . S
C1651 C312 1.440 . S
C1656 C384 1.327 . S
C1681 C404 1.327 . S
C1686 C332 1.439 . S
C1711 C352 1.440 . S
C1716 C464 1.327 . S
C1741 C424 1.327 . S
C1746 C372 1.440 . S
C1771 C392 1.440 . S
C1776 C444 1.327 . S
C1801 C244 1.327 . S
C1806 C412 1.439 . S
C1831 C432 1.440 . S
C1836 C284 1.327 . S
C1861 C452 1.440 . S
C1866 C304 1.327 . S
C1891 C264 1.327 . S
C1896 C472 1.440 . S
C1921 C19 1.485 . S
C1926 C192 1.499 . S
C1951 C212 1.499 . S
C1956 C39 1.485 . S
C1981 C172 1.499 . S
C1986 C59 1.485 . S
C2011 C232 1.499 . S
C2016 C79 1.485 . S
C2041 C99 1.485 . S
C2046 C72 1.499 . S
C2071 C52 1.499 . S
C2076 C119 1.485 . S
C2101 C139 1.485 . S
C2106 C32 1.499 . S
C2131 C12 1.499 . S
C2136 C159 1.485 . S
C2161 C179 1.485 . S
C2166 C112 1.499 . S
C2191 C199 1.485 . S
C2196 C152 1.499 . S
C2221 C219 1.485 . S
C2226 C132 1.499 . S
C2251 C239 1.485 . S
C2256 C92 1.499 . S
C2281 C258 1.485 . S
C2286 C429 1.499 . S
C2311 C278 1.485 . S
C2316 C449 1.499 . S
C2341 C409 1.499 . S
C2346 C298 1.485 . S
C2371 C469 1.499 . S
C2376 C318 1.485 . S
C2401 C338 1.485 . S
C2406 C309 1.499 . S
C2431 C358 1.485 . S
C2436 C289 1.499 . S
C2461 C269 1.499 . S
C2466 C378 1.485 . S
C2491 C398 1.485 . S
C2496 C249 1.499 . S
C2521 C418 1.485 . S
C2526 C349 1.499 . S
C2551 C389 1.499 . S
C2556 C438 1.485 . S
C2581 C458 1.485 . S
C2586 C369 1.499 . S
C2611 C478 1.485 . S
C2616 C329 1.499 . S
