# Generated by pormake.
# Topology svf, (7)-cn, num edge types: 1
# Building blocks:
#     Node 0, Type 0, BuildingBlock: HICVOG_clean_sbu_0, # of connection points: 7
#     Node 1, Type 0, BuildingBlock: HICVOG_clean_sbu_0, # of connection points: 7
#     Node 2, Type 0, BuildingBlock: HICVOG_clean_sbu_0, # of connection points: 7
#     Node 3, Type 0, BuildingBlock: HICVOG_clean_sbu_0, # of connection points: 7
#     Node 4, Type 0, BuildingBlock: HICVOG_clean_sbu_0, # of connection points: 7
#     Node 5, Type 0, BuildingBlock: HICVOG_clean_sbu_0, # of connection points: 7
#     Node 6, Type 0, BuildingBlock: HICVOG_clean_sbu_0, # of connection points: 7
#     Node 7, Type 0, BuildingBlock: HICVOG_clean_sbu_0, # of connection points: 7
#     Edge 8, Type (0, 0), BuildingBlock: XUDNAN_clean_linker_2, # of connection points: 2
#     Edge 9, Type (0, 0), BuildingBlock: XUDNAN_clean_linker_2, # of connection points: 2
#     Edge 10, Type (0, 0), BuildingBlock: XUDNAN_clean_linker_2, # of connection points: 2
#     Edge 11, Type (0, 0), BuildingBlock: XUDNAN_clean_linker_2, # of connection points: 2
#     Edge 12, Type (0, 0), BuildingBlock: XUDNAN_clean_linker_2, # of connection points: 2
#     Edge 13, Type (0, 0), BuildingBlock: XUDNAN_clean_linker_2, # of connection points: 2
#     Edge 14, Type (0, 0), BuildingBlock: XUDNAN_clean_linker_2, # of connection points: 2
#     Edge 15, Type (0, 0), BuildingBlock: XUDNAN_clean_linker_2, # of connection points: 2
#     Edge 16, Type (0, 0), BuildingBlock: XUDNAN_clean_linker_2, # of connection points: 2
#     Edge 17, Type (0, 0), BuildingBlock: XUDNAN_clean_linker_2, # of connection points: 2
#     Edge 18, Type (0, 0), BuildingBlock: XUDNAN_clean_linker_2, # of connection points: 2
#     Edge 19, Type (0, 0), BuildingBlock: XUDNAN_clean_linker_2, # of connection points: 2
#     Edge 20, Type (0, 0), BuildingBlock: XUDNAN_clean_linker_2, # of connection points: 2
#     Edge 21, Type (0, 0), BuildingBlock: XUDNAN_clean_linker_2, # of connection points: 2
#     Edge 22, Type (0, 0), BuildingBlock: XUDNAN_clean_linker_2, # of connection points: 2
#     Edge 23, Type (0, 0), BuildingBlock: XUDNAN_clean_linker_2, # of connection points: 2
#     Edge 24, Type (0, 0), BuildingBlock: XUDNAN_clean_linker_2, # of connection points: 2
#     Edge 25, Type (0, 0), BuildingBlock: XUDNAN_clean_linker_2, # of connection points: 2
#     Edge 26, Type (0, 0), BuildingBlock: XUDNAN_clean_linker_2, # of connection points: 2
#     Edge 27, Type (0, 0), BuildingBlock: XUDNAN_clean_linker_2, # of connection points: 2
#     Edge 28, Type (0, 0), BuildingBlock: XUDNAN_clean_linker_2, # of connection points: 2
#     Edge 29, Type (0, 0), BuildingBlock: XUDNAN_clean_linker_2, # of connection points: 2
#     Edge 30, Type (0, 0), BuildingBlock: XUDNAN_clean_linker_2, # of connection points: 2
#     Edge 31, Type (0, 0), BuildingBlock: XUDNAN_clean_linker_2, # of connection points: 2
#     Edge 32, Type (0, 0), BuildingBlock: XUDNAN_clean_linker_2, # of connection points: 2
#     Edge 33, Type (0, 0), BuildingBlock: XUDNAN_clean_linker_2, # of connection points: 2
#     Edge 34, Type (0, 0), BuildingBlock: XUDNAN_clean_linker_2, # of connection points: 2
#     Edge 35, Type (0, 0), BuildingBlock: XUDNAN_clean_linker_2, # of connection points: 2
# Relax obj value: 0.350
# Max RMSD: 0.192
# Mean RMSD: 0.192
data_MOF--net-svf--node1-HICVOG_clean_sbu_0--edge1-XUDNAN_clean_linker_2
_symmetry_space_group_name_H-M    P1
_symmetry_Int_Tables_number       1
_symmetry_cell_setting            triclinic
loop_
_symmetry_equiv_pos_as_xyz
'x, y, z'
_cell_length_a     33.373894
_cell_length_b     33.937335
_cell_length_c     24.427398
_cell_angle_alpha  90.071344
_cell_angle_beta   90.363479
_cell_angle_gamma 89.936113
loop_
_atom_site_label
_atom_site_type_symbol
_atom_site_fract_x
_atom_site_fract_y
_atom_site_fract_z
_atom_type_partial_charge
Zn0 Zn 0.18939 0.35584 0.98944 0.0
C1 C 0.23743 0.28387 0.10564 0.0
N2 N 0.25342 0.26366 1.06202 0.0
C3 C 0.23735 0.28134 1.01577 0.0
N4 N 0.21183 0.31096 1.03168 0.0
N5 N 0.21196 0.31219 0.08627 0.0
C6 C 0.19582 0.4297 0.14905 0.0
O7 O 0.1799 0.4338 0.10022 0.0
O8 O 0.16367 0.33557 0.91871 0.0
Zn9 Zn 0.17614 0.34571 0.13191 0.0
N10 N 0.23626 0.38987 0.98902 0.0
C11 C 0.28402 0.41634 1.05234 0.0
C12 C 0.24912 0.39549 1.0414 0.0
C13 C 0.25841 0.40312 0.94634 0.0
N14 N 0.30567 0.43036 1.0101 0.0
C15 C 0.29421 0.42379 0.95745 0.0
O16 O 0.12337 0.36685 0.09911 0.0
C17 C 0.11525 0.38861 1.05791 0.0
O18 O 0.13971 0.38977 1.01778 0.0
H19 H 0.23266 0.383 0.07466 0.0
H20 H 0.24836 0.39793 0.90473 0.0
C21 C 0.16516 0.32211 0.24289 0.0
C22 C 0.15884 0.29442 0.28462 0.0
C23 C 0.14333 0.24616 0.21694 0.0
C24 C 0.14944 0.27384 0.17594 0.0
N25 N 0.16068 0.31099 0.18978 0.0
N26 N 0.14807 0.25709 0.26999 0.0
H27 H 0.17511 0.3517 0.25182 0.0
C28 C 0.13591 0.31212 0.93367 0.0
O29 O 0.13488 0.30167 0.98543 0.0
O30 O 0.20062 0.39514 0.16867 0.0
H31 H 0.14663 0.26556 0.13331 0.0
H32 H 0.29395 0.42117 0.09406 0.0
H33 H 0.13501 0.21622 0.20681 0.0
Zn34 Zn 0.68737 0.14895 0.12927 0.0
C35 C 0.72952 0.21876 1.00735 0.0
N36 N 0.75135 0.23484 1.05003 0.0
C37 C 0.73435 0.22016 0.09732 0.0
N38 N 0.70382 0.19505 0.08337 0.0
N39 N 0.70058 0.19446 1.02869 0.0
C40 C 0.67083 0.11697 0.91632 0.0
O41 O 0.6865 0.10424 0.96241 0.0
O42 O 0.66592 0.16247 0.20471 0.0
Zn43 Zn 0.65131 0.1715 0.99364 0.0
N44 N 0.73661 0.11967 0.12783 0.0
C45 C 0.78431 0.09168 0.06685 0.0
C46 C 0.74852 0.11156 0.07589 0.0
C47 C 0.75957 0.10938 0.17152 0.0
N48 N 0.8067 0.08014 0.11035 0.0
C49 C 0.79548 0.08873 0.16244 0.0
O50 O 0.6251 0.12129 1.0241 0.0
C51 C 0.62244 0.09911 0.06565 0.0
O52 O 0.64381 0.1066 0.10768 0.0
H53 H 0.73036 0.12087 1.0417 0.0
H54 H 0.74938 0.116 0.21251 0.0
C55 C 0.59514 0.23718 0.97222 0.0
C56 C 0.56541 0.26373 0.99062 0.0
C57 C 0.56833 0.23421 0.07861 0.0
C58 C 0.59671 0.20757 1.05979 0.0
N59 N 0.61001 0.20986 1.00751 0.0
N60 N 0.55318 0.26137 1.0436 0.0
H61 H 0.60538 0.23694 0.93033 0.0
C62 C 0.63855 0.18848 0.20919 0.0
O63 O 0.6352 0.21562 0.17132 0.0
O64 O 0.65675 0.15201 0.91481 0.0
H65 H 0.60831 0.18494 0.08654 0.0
H66 H 0.79392 0.08496 1.02567 0.0
H67 H 0.55778 0.23286 0.12036 0.0
Zn68 Zn 0.83551 0.64632 0.98597 0.0
C69 C 0.79516 0.72116 0.10645 0.0
N70 N 0.7781 0.74128 0.06335 0.0
C71 C 0.7918 0.7227 1.01656 0.0
N72 N 0.8167 0.69222 1.03149 0.0
N73 N 0.81884 0.69171 0.08617 0.0
C74 C 0.83215 0.60374 0.19255 0.0
O75 O 0.81958 0.59286 0.14385 0.0
O76 O 0.86408 0.66566 0.91703 0.0
Zn77 Zn 0.86248 0.6653 0.12737 0.0
N78 N 0.78619 0.61554 0.98266 0.0
C79 C 0.73374 0.59437 1.04177 0.0
C80 C 0.76956 0.61402 1.03338 0.0
C81 C 0.76826 0.59715 0.9395 0.0
N82 N 0.71602 0.57577 0.9992 0.0
C83 C 0.7321 0.57633 0.94823 0.0
O84 O 0.89631 0.62112 0.09486 0.0
C85 C 0.9016 0.59953 1.05309 0.0
O86 O 0.87996 0.6052 1.01064 0.0
H87 H 0.78409 0.6279 0.06762 0.0
H88 H 0.78254 0.59771 0.89987 0.0
C89 C 0.89231 0.7303 0.18567 0.0
C90 C 0.91637 0.76359 0.19416 0.0
C91 C 0.9487 0.7512 0.10948 0.0
C92 C 0.92589 0.7172 0.10258 0.0
N93 N 0.89826 0.70762 0.14088 0.0
N94 N 0.94381 0.77327 0.15535 0.0
H95 H 0.86925 0.72203 0.21435 0.0
C96 C 0.88954 0.69221 0.92976 0.0
O97 O 0.88673 0.70875 0.97815 0.0
O98 O 0.84789 0.63772 0.19825 0.0
H99 H 0.92961 0.69891 0.06672 0.0
H100 H 0.72045 0.59332 0.08202 0.0
H101 H 0.97061 0.75959 0.07921 0.0
Zn102 Zn 0.36312 0.82713 1.00121 0.0
C103 C 0.29382 0.77652 0.11885 0.0
N104 N 0.27701 0.75845 0.0733 0.0
C105 C 0.29443 0.77635 1.029 0.0
N106 N 0.32146 0.80348 1.04753 0.0
N107 N 0.32108 0.80429 0.10211 0.0
C108 C 0.38823 0.81781 0.2232 0.0
O109 O 0.39081 0.78975 0.18633 0.0
O110 O 0.34231 0.86661 0.94455 0.0
Zn111 Zn 0.34309 0.85234 0.13861 0.0
N112 N 0.38333 0.78147 0.9655 0.0
C113 C 0.40895 0.71653 0.97499 0.0
C114 C 0.39744 0.75219 0.99822 0.0
C115 C 0.37992 0.77676 0.91061 0.0
N116 N 0.40661 0.71204 0.91989 0.0
C117 C 0.39264 0.74129 0.88666 0.0
O118 O 0.39454 0.88219 0.11105 0.0
C119 C 0.41974 0.87929 0.07224 0.0
O120 O 0.41272 0.8554 1.03306 0.0
H121 H 0.39882 0.75637 1.04211 0.0
H122 H 0.36701 0.80031 0.8865 0.0
C123 C 0.27723 0.90603 0.16647 0.0
C124 C 0.24356 0.92882 0.15106 0.0
C125 C 0.25711 0.91551 1.05769 0.0
C126 C 0.29008 0.89307 0.07315 0.0
N127 N 0.29959 0.88876 0.12696 0.0
N128 N 0.23473 0.93293 0.09688 0.0
H129 H 0.28609 0.90225 0.20877 0.0
C130 C 0.34854 0.90346 0.95044 0.0
O131 O 0.36644 0.91626 0.99495 0.0
O132 O 0.36148 0.84428 0.21686 0.0
H133 H 0.30765 0.87839 1.04252 0.0
H134 H 0.41996 0.69273 1.00038 0.0
H135 H 0.24931 0.91902 1.01491 0.0
Zn136 Zn 0.18993 0.64847 0.64028 0.0
C137 C 0.22954 0.72442 0.52763 0.0
N138 N 0.24914 0.74179 0.57123 0.0
C139 C 0.23418 0.72351 0.61736 0.0
N140 N 0.20659 0.69594 0.60142 0.0
N141 N 0.20262 0.69749 0.54716 0.0
C142 C 0.16918 0.63044 0.43302 0.0
O143 O 0.1735 0.61231 0.48007 0.0
O144 O 0.16754 0.6629 0.71502 0.0
Zn145 Zn 0.14972 0.68428 0.51223 0.0
N146 N 0.23726 0.61596 0.63172 0.0
C147 C 0.28164 0.59262 0.56268 0.0
C148 C 0.24728 0.6128 0.57798 0.0
C149 C 0.2604 0.5992 0.67119 0.0
N150 N 0.30465 0.57558 0.60178 0.0
C151 C 0.29522 0.57824 0.65574 0.0
O152 O 0.11252 0.63781 0.5398 0.0
C153 C 0.11489 0.61151 0.57699 0.0
O154 O 0.14314 0.61331 0.61228 0.0
H155 H 0.22877 0.62624 0.54702 0.0
H156 H 0.25116 0.60142 0.71345 0.0
C157 C 0.08703 0.74347 0.48974 0.0
C158 C 0.06719 0.77947 0.49977 0.0
C159 C 0.11192 0.79296 0.57262 0.0
C160 C 0.13115 0.75724 0.56323 0.0
N161 N 0.11911 0.73332 0.52132 0.0
N162 N 0.08053 0.80342 0.54052 0.0
H163 H 0.07743 0.72409 0.45697 0.0
C164 C 0.13279 0.67758 0.70663 0.0
O165 O 0.12112 0.68445 0.65611 0.0
O166 O 0.15914 0.66676 0.43334 0.0
H167 H 0.15538 0.74899 0.58988 0.0
H168 H 0.28978 0.59018 0.52 0.0
H169 H 0.12176 0.81218 0.60541 0.0
Zn170 Zn 0.33471 0.1518 0.48551 0.0
C171 C 0.30018 0.22627 0.60545 0.0
N172 N 0.28186 0.24615 0.56298 0.0
C173 C 0.29571 0.22841 0.51577 0.0
N174 N 0.32185 0.19893 0.52958 0.0
N175 N 0.32542 0.19816 0.58404 0.0
C176 C 0.34349 0.11138 0.67675 0.0
O177 O 0.33861 0.10385 0.62446 0.0
O178 O 0.35514 0.16446 0.4095 0.0
Zn179 Zn 0.37326 0.17279 0.62042 0.0
N180 N 0.28478 0.12238 0.48992 0.0
C181 C 0.23215 0.10215 0.5495 0.0
C182 C 0.26835 0.1214 0.54084 0.0
C183 C 0.26542 0.10567 0.44673 0.0
N184 N 0.2132 0.0848 0.50668 0.0
C185 C 0.22866 0.08654 0.45548 0.0
O186 O 0.4093 0.12885 0.5849 0.0
C187 C 0.4085 0.10744 0.54211 0.0
O188 O 0.38147 0.1136 0.50599 0.0
H189 H 0.28294 0.13581 0.57471 0.0
H190 H 0.27859 0.10694 0.40636 0.0
C191 C 0.41266 0.24036 0.67098 0.0
C192 C 0.43777 0.2736 0.66807 0.0
C193 C 0.4531 0.2576 0.57598 0.0
C194 C 0.42874 0.22449 0.57931 0.0
N195 N 0.40926 0.21642 0.62667 0.0
N196 N 0.45742 0.28109 0.62052 0.0
H197 H 0.3968 0.23291 0.70806 0.0
C198 C 0.38285 0.19009 0.40568 0.0
O199 O 0.38784 0.21535 0.4459 0.0
O200 O 0.35886 0.14434 0.69065 0.0
H201 H 0.42483 0.20546 0.54416 0.0
H202 H 0.21922 0.101 0.58997 0.0
H203 H 0.46878 0.26438 0.53853 0.0
Zn204 Zn 0.87605 0.32497 0.49534 0.0
C205 C 0.79458 0.27324 0.59671 0.0
N206 N 0.78038 0.25603 0.54908 0.0
C207 C 0.80072 0.27405 0.50695 0.0
N208 N 0.82728 0.30068 0.52881 0.0
N209 N 0.82288 0.30067 0.58315 0.0
C210 C 0.90059 0.31425 0.69048 0.0
O211 O 0.91218 0.31154 0.63935 0.0
O212 O 0.8696 0.33615 0.41493 0.0
Zn213 Zn 0.84152 0.34504 0.62806 0.0
N214 N 0.91876 0.28824 0.51251 0.0
C215 C 0.94144 0.22884 0.55424 0.0
C216 C 0.91049 0.25186 0.5328 0.0
C217 C 0.95673 0.30254 0.5131 0.0
N218 N 0.97938 0.24322 0.55501 0.0
C219 C 0.98806 0.27979 0.53552 0.0
O220 O 0.88701 0.38287 0.6057 0.0
C221 C 0.90674 0.39559 0.56508 0.0
O222 O 0.9017 0.37925 0.51867 0.0
H223 H 0.88004 0.24116 0.53387 0.0
H224 H 0.9621 0.33142 0.49612 0.0
C225 C 0.76994 0.39178 0.66137 0.0
C226 C 0.73734 0.41571 0.64583 0.0
C227 C 0.75801 0.41289 0.55349 0.0
C228 C 0.79046 0.38965 0.56893 0.0
N229 N 0.79579 0.37936 0.62232 0.0
N230 N 0.73246 0.42586 0.59237 0.0
H231 H 0.77546 0.38446 0.70386 0.0
C232 C 0.84009 0.35786 0.40119 0.0
O233 O 0.80815 0.35806 0.43228 0.0
O234 O 0.86505 0.32616 0.7005 0.0
H235 H 0.81152 0.37973 0.53848 0.0
H236 H 0.93532 0.19988 0.57061 0.0
H237 H 0.75358 0.42119 0.51113 0.0
Zn238 Zn 0.69906 0.85694 0.48591 0.0
C239 C 0.73277 0.78266 0.60556 0.0
N240 N 0.75288 0.76371 0.56395 0.0
C241 C 0.73938 0.78116 0.5161 0.0
N242 N 0.71183 0.80944 0.52879 0.0
N243 N 0.70655 0.80947 0.58283 0.0
C244 C 0.66937 0.88931 0.66955 0.0
O245 O 0.686 0.89288 0.6213 0.0
O246 O 0.67899 0.84391 0.40951 0.0
Zn247 Zn 0.65239 0.82558 0.61064 0.0
N248 N 0.74856 0.88682 0.49366 0.0
C249 C 0.80044 0.90473 0.5567 0.0
C250 C 0.76474 0.88542 0.545 0.0
C251 C 0.76715 0.90706 0.4532 0.0
N252 N 0.81863 0.92547 0.51676 0.0
C253 C 0.80315 0.92715 0.46524 0.0
O254 O 0.6163 0.86826 0.57193 0.0
C255 C 0.62084 0.89506 0.53604 0.0
O256 O 0.65203 0.89476 0.50612 0.0
H257 H 0.75017 0.86946 0.57716 0.0
H258 H 0.75349 0.90837 0.41294 0.0
C259 C 0.58084 0.77695 0.61664 0.0
C260 C 0.55742 0.74387 0.60162 0.0
C261 C 0.61526 0.71348 0.56462 0.0
C262 C 0.63802 0.74598 0.57943 0.0
N263 N 0.62066 0.77727 0.60513 0.0
N264 N 0.57573 0.71318 0.57602 0.0
H265 H 0.56814 0.80231 0.63686 0.0
C266 C 0.64983 0.81965 0.40906 0.0
O267 O 0.64441 0.79732 0.45227 0.0
O268 O 0.65536 0.85569 0.68317 0.0
H269 H 0.66899 0.74626 0.56818 0.0
H270 H 0.81333 0.90371 0.59742 0.0
H271 H 0.62882 0.68874 0.54375 0.0
H272 H 0.08354 0.44421 0.98107 0.0
H273 H 0.06455 0.39753 0.14439 0.0
H274 H 1.00933 0.44411 0.15775 0.0
H275 H 0.06147 0.54622 1.01342 0.0
H276 H 0.03473 0.55669 0.95075 0.0
H277 H 0.07299 0.51917 0.95192 0.0
H278 H 0.02216 0.46829 0.91447 0.0
H279 H 0.98381 0.50575 0.91309 0.0
H280 H 0.9757 0.46058 0.95013 0.0
H281 H 0.95842 0.49819 0.15799 0.0
H282 H 0.91201 0.55345 0.14235 0.0
H283 H 0.95702 0.5664 0.97707 0.0
C284 C 0.06752 0.44349 1.01944 0.0
C285 C 0.07922 0.41637 1.06159 0.0
C286 C 0.05697 0.41723 0.11105 0.0
C287 C 0.02523 0.44393 0.11927 0.0
C288 C 0.01483 0.47018 0.07766 0.0
C289 C 0.03486 0.47008 1.02833 0.0
C290 C 0.0167 0.50184 0.99071 0.0
C291 C 0.04836 0.53282 0.97581 0.0
C292 C 0.99852 0.48299 0.93902 0.0
C293 C 0.98387 0.51985 1.02692 0.0
C294 C 0.98385 0.50099 0.07705 0.0
C295 C 0.95799 0.51282 0.11865 0.0
C296 C 0.93159 0.54455 0.10933 0.0
C297 C 0.93004 0.56461 1.05838 0.0
C298 C 0.95665 0.55159 1.01628 0.0
H299 H 0.45081 0.9364 0.14706 0.0
H300 H 0.46846 0.88874 0.98383 0.0
H301 H 0.52128 0.93741 0.96751 0.0
H302 H 0.46739 0.03859 0.11294 0.0
H303 H 0.49509 0.05071 0.17427 0.0
H304 H 0.45868 0.01154 0.17521 0.0
H305 H 0.51272 0.96323 0.21083 0.0
H306 H 0.54927 1.00232 0.21011 0.0
H307 H 0.55861 0.95724 0.17318 0.0
H308 H 0.56903 0.99417 0.9641 0.0
H309 H 0.61252 0.05199 0.97698 0.0
H310 H 0.57116 0.06376 0.14421 0.0
C311 C 0.46608 0.93589 0.10811 0.0
C312 C 0.45476 0.90791 0.06685 0.0
C313 C 0.47596 0.90903 1.01656 0.0
C314 C 0.50624 0.93694 1.00663 0.0
C315 C 0.51625 0.96406 1.0474 0.0
C316 C 0.49733 0.96361 0.09755 0.0
C317 C 0.51477 0.9964 0.13403 0.0
C318 C 0.48202 0.02607 0.15006 0.0
C319 C 0.53505 0.97875 0.18508 0.0
C320 C 0.54577 0.01551 0.09616 0.0
C321 C 0.54563 0.99624 1.04627 0.0
C322 C 0.56971 0.00906 1.00329 0.0
C323 C 0.59446 0.04221 1.01103 0.0
C324 C 0.59618 0.06264 1.06172 0.0
C325 C 0.57143 0.04863 0.10517 0.0
H326 H 0.06739 0.57252 0.49636 0.0
H327 H 0.09027 0.57675 0.67132 0.0
H328 H 0.04033 0.52449 0.68551 0.0
H329 H 0.95989 0.5517 0.50277 0.0
H330 H 0.95966 0.51722 0.44656 0.0
H331 H 0.99632 0.55617 0.44896 0.0
H332 H 0.05332 0.50471 0.44174 0.0
H333 H 0.0167 0.46572 0.43919 0.0
H334 H 0.05576 0.4649 0.49045 0.0
H335 H 0.98738 0.47183 0.68262 0.0
H336 H 0.93713 0.42088 0.66287 0.0
H337 H 0.94777 0.44459 0.48891 0.0
C338 C 0.06168 0.5626 0.53767 0.0
C339 C 0.08318 0.57953 0.58284 0.0
C340 C 0.07478 0.56479 0.63592 0.0
C341 C 0.04619 0.53491 0.64448 0.0
C342 C 0.02592 0.51876 0.59958 0.0
C343 C 0.03341 0.53173 0.54701 0.0
C344 C 1.008 0.50778 0.50614 0.0
C345 C 0.97926 0.53483 0.4742 0.0
C346 C 0.03506 0.4844 0.46705 0.0
C347 C 0.98482 0.47993 0.54402 0.0
C348 C 0.99578 0.48718 0.59776 0.0
C349 C 0.97867 0.46604 0.64063 0.0
C350 C 0.94975 0.43696 0.62882 0.0
C351 C 0.93759 0.42816 0.57428 0.0
C352 C 0.95592 0.45018 0.53117 0.0
H353 H 0.5711 0.93289 0.6132 0.0
H354 H 0.59853 0.93065 0.44001 0.0
H355 H 0.5477 0.98237 0.42349 0.0
H356 H 0.46398 0.95269 0.60151 0.0
H357 H 0.4625 0.98646 0.65848 0.0
H358 H 0.49959 0.94782 0.6569 0.0
H359 H 0.5557 0.99947 0.66827 0.0
H360 H 0.519 0.03845 0.66957 0.0
H361 H 0.55904 0.0397 0.62041 0.0
H362 H 0.49105 0.03342 0.42455 0.0
H363 H 0.43896 0.08316 0.4439 0.0
H364 H 0.45097 0.05951 0.61761 0.0
C365 C 0.56628 0.94314 0.57173 0.0
C366 C 0.58911 0.9269 0.52775 0.0
C367 C 0.58187 0.94208 0.47447 0.0
C368 C 0.55278 0.97161 0.46464 0.0
C369 C 0.53107 0.98705 0.50858 0.0
C370 C 0.53787 0.97377 0.56131 0.0
C371 C 0.51167 0.99703 0.60144 0.0
C372 C 0.48272 0.96934 0.63136 0.0
C373 C 0.53791 0.02003 0.64235 0.0
C374 C 0.48881 0.02508 0.56309 0.0
C375 C 0.50022 0.01827 0.50957 0.0
C376 C 0.48234 0.03908 0.46643 0.0
C377 C 0.45245 0.06743 0.47788 0.0
C378 C 0.44049 0.07607 0.53228 0.0
C379 C 0.45941 0.05435 0.57549 0.0
H380 H 0.18218 0.55168 0.42465 0.0
H381 H 0.17332 0.65796 0.32656 0.0
H382 H 0.18679 0.61839 0.24313 0.0
H383 H 0.26098 0.50336 0.34782 0.0
H384 H 0.23916 0.45517 0.35603 0.0
H385 H 0.23181 0.49234 0.40775 0.0
H386 H 0.15478 0.48426 0.39866 0.0
H387 H 0.16201 0.44686 0.34744 0.0
H388 H 0.13141 0.48932 0.33231 0.0
H389 H 0.19771 0.56603 0.17048 0.0
H390 H 0.20066 0.50578 0.11401 0.0
H391 H 0.20187 0.4342 0.26109 0.0
C392 C 0.18342 0.56692 0.38577 0.0
C393 C 0.17699 0.60805 0.38213 0.0
C394 C 0.17824 0.62653 0.33028 0.0
C395 C 0.18608 0.6043 0.28283 0.0
C396 C 0.19236 0.56373 0.28814 0.0
C397 C 0.19086 0.54527 0.33838 0.0
C398 C 0.1961 0.50108 0.33319 0.0
C399 C 0.23429 0.48719 0.36296 0.0
C400 C 0.15886 0.47911 0.35411 0.0
C401 C 0.20024 0.49725 0.27183 0.0
C402 C 0.19844 0.53373 0.2466 0.0
C403 C 0.1995 0.53743 0.18988 0.0
C404 C 0.20123 0.50299 0.15818 0.0
C405 C 0.20175 0.46529 0.18317 0.0
C406 C 0.20229 0.46257 0.24081 0.0
H407 H 0.43734 0.2442 0.36814 0.0
H408 H 0.40592 0.12032 0.3596 0.0
H409 H 0.46983 0.10616 0.31321 0.0
H410 H 0.48561 0.24699 0.23203 0.0
H411 H 0.523 0.28184 0.25444 0.0
H412 H 0.47411 0.28199 0.28527 0.0
H413 H 0.50747 0.27436 0.38079 0.0
H414 H 0.5564 0.27309 0.35009 0.0
H415 H 0.54046 0.23322 0.39348 0.0
H416 H 0.5405 0.10448 0.27678 0.0
H417 H 0.60647 0.11711 0.23498 0.0
H418 H 0.58977 0.24268 0.25905 0.0
C419 C 0.44353 0.21426 0.35531 0.0
C420 C 0.41658 0.18338 0.3675 0.0
C421 C 0.42583 0.14454 0.35027 0.0
C422 C 0.46231 0.13613 0.32438 0.0
C423 C 0.48888 0.167 0.31481 0.0
C424 C 0.4794 0.20548 0.32813 0.0
C425 C 0.51279 0.23335 0.31179 0.0
C426 C 0.49799 0.26278 0.26829 0.0
C427 C 0.5303 0.25476 0.36204 0.0
C428 C 0.54277 0.20447 0.28806 0.0
C429 C 0.52869 0.16626 0.29116 0.0
C430 C 0.55164 0.13433 0.27367 0.0
C431 C 0.58933 0.14175 0.25063 0.0
C432 C 0.6034 0.18084 0.24428 0.0
C433 C 0.57988 0.2125 0.26381 0.0
H434 H 0.78784 0.396 0.33218 0.0
H435 H 0.90883 0.40079 0.39778 0.0
H436 H 0.91778 0.46682 0.35748 0.0
H437 H 0.81248 0.44474 0.20216 0.0
H438 H 0.76494 0.46989 0.19851 0.0
H439 H 0.76865 0.42291 0.23239 0.0
H440 H 0.73838 0.45415 0.31974 0.0
H441 H 0.73559 0.50147 0.28659 0.0
H442 H 0.76242 0.49635 0.35046 0.0
H443 H 0.9114 0.53482 0.31691 0.0
H444 H 0.8957 0.59407 0.26185 0.0
H445 H 0.78138 0.543 0.21549 0.0
C446 C 0.81646 0.41067 0.3369 0.0
C447 C 0.84774 0.39319 0.36761 0.0
C448 C 0.88471 0.41333 0.37351 0.0
C449 C 0.88991 0.45108 0.35138 0.0
C450 C 0.85812 0.46799 0.32256 0.0
C451 C 0.82256 0.44799 0.31379 0.0
C452 C 0.79381 0.47221 0.27925 0.0
C453 C 0.78443 0.45119 0.22484 0.0
C454 C 0.75527 0.48159 0.31092 0.0
C455 C 0.81863 0.50903 0.27039 0.0
C456 C 0.85528 0.50635 0.29677 0.0
C457 C 0.88294 0.53712 0.29567 0.0
C458 C 0.87358 0.57086 0.26491 0.0
C459 C 0.83726 0.57312 0.23485 0.0
C460 C 0.80924 0.54207 0.23846 0.0
H461 H 0.59286 0.76558 0.37914 0.0
H462 H 0.6276 0.88756 0.35655 0.0
H463 H 0.56251 0.9011 0.31144 0.0
H464 H 0.53958 0.75623 0.24674 0.0
H465 H 0.50205 0.72409 0.27496 0.0
H466 H 0.55202 0.72427 0.30327 0.0
H467 H 0.52254 0.73881 0.39908 0.0
H468 H 0.47257 0.73975 0.37083 0.0
H469 H 0.49129 0.78161 0.40857 0.0
H470 H 0.49053 0.9027 0.27757 0.0
H471 H 0.42294 0.88955 0.23996 0.0
H472 H 0.43683 0.76546 0.27774 0.0
C473 C 0.58715 0.79489 0.36342 0.0
C474 C 0.61543 0.82547 0.37114 0.0
C475 C 0.60671 0.86353 0.35044 0.0
C476 C 0.56957 0.87161 0.32534 0.0
C477 C 0.54176 0.84113 0.32026 0.0
C478 C 0.55059 0.80326 0.33722 0.0
C479 C 0.51581 0.77559 0.32585 0.0
C480 C 0.5281 0.74313 0.28528 0.0
C481 C 0.49961 0.7579 0.37927 0.0
C482 C 0.48583 0.80386 0.30038 0.0
C483 C 0.5011 0.84169 0.29851 0.0
C484 C 0.47846 0.87312 0.27839 0.0
C485 C 0.43984 0.86545 0.25777 0.0
C486 C 0.42446 0.82654 0.25646 0.0
C487 C 0.44769 0.79552 0.2787 0.0
H488 H 0.7264 0.49324 0.65473 0.0
H489 H 0.69635 0.38217 0.73043 0.0
H490 H 0.67195 0.41754 0.8122 0.0
H491 H 0.77326 0.52892 0.7562 0.0
H492 H 0.75886 0.58003 0.75163 0.0
H493 H 0.75719 0.54972 0.69175 0.0
H494 H 0.68218 0.56631 0.6769 0.0
H495 H 0.68378 0.59766 0.73657 0.0
H496 H 0.64709 0.55884 0.73171 0.0
H497 H 0.67055 0.46078 0.89173 0.0
H498 H 0.69349 0.50689 0.96286 0.0
H499 H 0.72793 0.59042 0.83785 0.0
C500 C 0.71246 0.47678 0.68744 0.0
C501 C 0.713 0.43539 0.68715 0.0
C502 C 0.69617 0.41407 0.7308 0.0
C503 C 0.68184 0.43399 0.77686 0.0
C504 C 0.68466 0.47504 0.77807 0.0
C505 C 0.69912 0.49634 0.73402 0.0
C506 C 0.70824 0.53856 0.74968 0.0
C507 C 0.75196 0.54988 0.7366 0.0
C508 C 0.67853 0.56702 0.72209 0.0
C509 C 0.70109 0.53644 0.8105 0.0
C510 C 0.68551 0.50029 0.82561 0.0
C511 C 0.68153 0.48958 0.88028 0.0
C512 C 0.69494 0.5159 0.9204 0.0
C513 C 0.713 0.55204 0.90553 0.0
C514 C 0.71459 0.56295 0.85012 0.0
H515 H 0.50246 0.80137 0.63251 0.0
H516 H 0.51504 0.67546 0.60571 0.0
H517 H 0.45281 0.66402 0.65459 0.0
H518 H 0.48672 0.79972 0.75727 0.0
H519 H 0.44871 0.83718 0.76458 0.0
H520 H 0.48116 0.83825 0.70689 0.0
H521 H 0.41981 0.83719 0.6415 0.0
H522 H 0.38686 0.83613 0.69977 0.0
H523 H 0.38283 0.79878 0.64753 0.0
H524 H 0.41234 0.66234 0.73453 0.0
H525 H 0.393 0.67207 0.83008 0.0
H526 H 0.40169 0.79857 0.80854 0.0
C527 C 0.49167 0.77149 0.63571 0.0
C528 C 0.51477 0.73931 0.61721 0.0
C529 C 0.49849 0.70084 0.62019 0.0
C530 C 0.46268 0.69395 0.64762 0.0
C531 C 0.44293 0.72583 0.67109 0.0
C532 C 0.45603 0.76419 0.66379 0.0
C533 C 0.43481 0.79217 0.7023 0.0
C534 C 0.46465 0.81823 0.73468 0.0
C535 C 0.40425 0.81755 0.67088 0.0
C536 C 0.41364 0.76272 0.73853 0.0
C537 C 0.41685 0.72481 0.71801 0.0
C538 C 0.40784 0.69194 0.74982 0.0
C539 C 0.39732 0.69774 0.80445 0.0
C540 C 0.39484 0.73615 0.82665 0.0
C541 C 0.40134 0.76894 0.79235 0.0
H542 H 0.30739 0.50073 0.94611 0.0
H543 H 0.33195 0.38775 0.87219 0.0
H544 H 0.35727 0.42099 0.78919 0.0
H545 H 0.26271 0.5379 0.84507 0.0
H546 H 0.2795 0.58819 0.84864 0.0
H547 H 0.28013 0.55863 0.90898 0.0
H548 H 0.3558 0.57106 0.92333 0.0
H549 H 0.35594 0.60206 0.86339 0.0
H550 H 0.39039 0.56126 0.86858 0.0
H551 H 0.35868 0.46317 0.70879 0.0
H552 H 0.33378 0.50872 0.63827 0.0
H553 H 0.31022 0.59633 0.76283 0.0
C554 C 0.32004 0.48336 0.91322 0.0
C555 C 0.31715 0.44214 0.91384 0.0
C556 C 0.33294 0.41957 0.87067 0.0
C557 C 0.34818 0.43826 0.82425 0.0
C558 C 0.34784 0.47942 0.82265 0.0
C559 C 0.33479 0.5018 0.86664 0.0
C560 C 0.3282 0.54436 0.85079 0.0
C561 C 0.28513 0.55799 0.86409 0.0
C562 C 0.35946 0.57126 0.87814 0.0
C563 C 0.33515 0.54151 0.78995 0.0
C564 C 0.3483 0.50435 0.77484 0.0
C565 C 0.34977 0.49272 0.72016 0.0
C566 C 0.33536 0.51877 0.68033 0.0
C567 C 0.31918 0.55569 0.69567 0.0
C568 C 0.3217 0.56803 0.75048 0.0
H569 H 0.51038 0.30175 0.6951 0.0
H570 H 0.38805 0.29591 0.75242 0.0
H571 H 0.41026 0.31804 0.84366 0.0
H572 H 0.55003 0.25459 0.78997 0.0
H573 H 0.59648 0.2809 0.79965 0.0
H574 H 0.57093 0.2837 0.73537 0.0
H575 H 0.56867 0.35977 0.74209 0.0
H576 H 0.59501 0.35723 0.80671 0.0
H577 H 0.54789 0.38304 0.80191 0.0
H578 H 0.44562 0.31705 0.93031 0.0
H579 H 0.48901 0.29033 1.0023 0.0
H580 H 0.5907 0.29598 0.89282 0.0
C581 C 0.48811 0.30734 0.72619 0.0
C582 C 0.44776 0.29688 0.71723 0.0
C583 C 0.41928 0.30337 0.75884 0.0
C584 C 0.43163 0.31648 0.8106 0.0
C585 C 0.47244 0.32308 0.81984 0.0
C586 C 0.50031 0.31944 0.7783 0.0
C587 C 0.54273 0.31855 0.80082 0.0
C588 C 0.56632 0.28226 0.78029 0.0
C589 C 0.56487 0.35694 0.78709 0.0
C590 C 0.53406 0.31621 0.86139 0.0
C591 C 0.49361 0.32143 0.87165 0.0
C592 C 0.47744 0.31411 0.92304 0.0
C593 C 0.50246 0.29866 0.96378 0.0
C594 C 0.54311 0.2899 0.95264 0.0
C595 C 0.55955 0.30145 0.90211 0.0
H596 H 0.6741 0.90253 0.78148 0.0
H597 H 0.64789 0.959 0.62614 0.0
H598 H 0.64125 0.02307 0.67236 0.0
H599 H 0.60823 0.96675 0.86686 0.0
H600 H 0.64368 0.96776 0.92278 0.0
H601 H 0.64087 0.92522 0.87868 0.0
H602 H 0.71677 0.93171 0.85849 0.0
H603 H 0.71966 0.97443 0.90204 0.0
H604 H 0.73583 0.97751 0.83191 0.0
H605 H 0.64234 0.08237 0.73412 0.0
H606 H 0.65097 0.13188 0.80823 0.0
H607 H 0.67968 0.0375 0.92179 0.0
C608 C 0.66596 0.92827 0.7577 0.0
C609 C 0.66119 0.92583 0.70043 0.0
C610 C 0.65159 0.96027 0.6702 0.0
C611 C 0.64768 0.99685 0.69603 0.0
C612 C 0.65374 0.99873 0.75227 0.0
C613 C 0.66252 0.9654 0.7829 0.0
C614 C 0.67057 0.97624 0.84209 0.0
C615 C 0.63895 0.9579 0.87982 0.0
C616 C 0.71324 0.96427 0.85963 0.0
C617 C 0.66603 0.02067 0.83933 0.0
C618 C 0.65568 0.03311 0.78744 0.0
C619 C 0.65025 0.073 0.77512 0.0
C620 C 0.65532 0.10093 0.81725 0.0
C621 C 0.66626 0.08869 0.87058 0.0
C622 C 0.67166 0.048 0.88133 0.0
H623 H 0.05986 0.64318 0.70973 0.0
H624 H 0.1375 0.72307 0.79901 0.0
H625 H 0.08231 0.73709 0.86403 0.0
H626 H 0.97044 0.69766 0.72035 0.0
H627 H 0.93814 0.65574 0.73003 0.0
H628 H 0.98406 0.65034 0.69239 0.0
H629 H 1.0074 0.59467 0.75759 0.0
H630 H 0.96116 0.59919 0.79475 0.0
H631 H 1.00841 0.60339 0.83042 0.0
H632 H 0.01709 0.74616 0.91372 0.0
H633 H 0.95012 0.74289 0.95452 0.0
H634 H 0.91485 0.65433 0.83503 0.0
C635 C 0.06536 0.663 0.74375 0.0
C636 C 0.10295 0.68165 0.75035 0.0
C637 C 0.1092 0.70782 0.79451 0.0
C638 C 0.07788 0.71624 0.831 0.0
C639 C 0.04082 0.6979 0.82273 0.0
C640 C 0.03469 0.67118 0.78087 0.0
C641 C 0.99222 0.65516 0.78126 0.0
C642 C 0.96991 0.66535 0.72782 0.0
C643 C 0.99232 0.61045 0.79164 0.0
C644 C 0.97501 0.67755 0.82945 0.0
C645 C 1.00352 0.7023 0.85233 0.0
C646 C 0.99472 0.72658 0.89652 0.0
C647 C 0.95634 0.72461 0.91919 0.0
C648 C 0.92701 0.6982 0.89822 0.0
C649 C 0.93641 0.6749 0.85197 0.0
H650 H 0.36568 0.10485 0.78557 0.0
H651 H 0.29599 0.04826 0.65703 0.0
H652 H 0.28447 0.99131 0.71671 0.0
H653 H 0.41536 0.02148 0.82972 0.0
H654 H 0.41453 0.03268 0.90186 0.0
H655 H 0.41279 0.07196 0.85255 0.0
H656 H 0.34697 0.09811 0.89516 0.0
H657 H 0.34875 0.05908 0.94514 0.0
H658 H 0.30488 0.06534 0.90259 0.0
H659 H 0.28916 0.93658 0.78315 0.0
H660 H 0.30519 0.88951 0.85696 0.0
H661 H 0.36876 0.98147 0.94502 0.0
C662 C 0.34706 0.08096 0.77073 0.0
C663 C 0.3319 0.08092 0.71666 0.0
C664 C 0.30816 0.04886 0.69825 0.0
C665 C 0.30126 0.01635 0.73188 0.0
C666 C 0.31786 0.01647 0.78415 0.0
C667 C 0.33973 0.0481 0.804 0.0
C668 C 0.35642 0.03932 0.86052 0.0
C669 C 0.4025 0.04148 0.86115 0.0
C670 C 0.33816 0.06711 0.90339 0.0
C671 C 0.34183 0.99739 0.86808 0.0
C672 C 0.31944 0.98491 0.82366 0.0
C673 C 0.30568 0.94628 0.81896 0.0
C674 C 0.31491 0.91968 0.86101 0.0
C675 C 0.33739 0.93189 0.90722 0.0
C676 C 0.35073 0.97138 0.91077 0.0
H677 H 0.9765 0.34245 0.69051 0.0
H678 H 0.89347 0.27381 0.78699 0.0
H679 H 0.9471 0.26181 0.85596 0.0
H680 H 0.06531 0.28517 0.71664 0.0
H681 H 0.09803 0.32726 0.72153 0.0
H682 H 0.05366 0.3295 0.67919 0.0
H683 H 0.02937 0.39137 0.73165 0.0
H684 H 0.07393 0.38973 0.77355 0.0
H685 H 0.02528 0.38964 0.80517 0.0
H686 H 1.01009 0.25557 0.91163 0.0
H687 H 0.07449 0.26332 0.95933 0.0
H688 H 0.11656 0.33993 0.82947 0.0
C689 C 0.96969 0.3249 0.72629 0.0
C690 C 0.93096 0.30897 0.73391 0.0
C691 C 0.92281 0.28659 0.78117 0.0
C692 C 0.95321 0.27933 0.81999 0.0
C693 C 0.99128 0.29511 0.81096 0.0
C694 C 0.99942 0.31805 0.76579 0.0
C695 C 0.04217 0.33341 0.7673 0.0
C696 C 0.0662 0.3179 0.71825 0.0
C697 C 0.0427 0.37872 0.76958 0.0
C698 C 0.05698 0.3155 0.82061 0.0
C699 C 0.02725 0.29298 0.84442 0.0
C700 C 0.03344 0.27335 0.8936 0.0
C701 C 0.07036 0.27793 0.92031 0.0
C702 C 0.10072 0.30252 0.89849 0.0
C703 C 0.09415 0.32083 0.84717 0.0
H704 H 0.23123 0.91146 0.25974 0.0
H705 H 0.20187 0.99664 0.13348 0.0
H706 H 0.17432 0.04099 0.20309 0.0
H707 H 0.14678 0.94309 0.36193 0.0
H708 H 0.18106 0.93457 0.418 0.0
H709 H 0.18293 0.90377 0.35783 0.0
H710 H 0.25847 0.92026 0.34829 0.0
H711 H 0.25636 0.9516 0.40709 0.0
H712 H 0.27362 0.97112 0.34279 0.0
H713 H 0.17045 0.08318 0.28345 0.0
H714 H 0.18987 0.11849 0.36819 0.0
H715 H 0.22398 0.00821 0.44346 0.0
C716 C 0.21809 0.93895 0.24658 0.0
C717 C 0.21959 0.95092 0.19142 0.0
C718 C 0.20119 0.98678 0.17562 0.0
C719 C 0.18514 0.01214 0.21491 0.0
C720 C 0.18705 1.00087 0.26966 0.0
C721 C 0.20236 0.96467 0.2855 0.0
C722 C 0.20842 0.96257 0.34682 0.0
C723 C 0.17798 0.93433 0.37267 0.0
C724 C 0.25177 0.95076 0.36204 0.0
C725 C 0.19924 0.00481 0.36191 0.0
C726 C 0.18499 0.02593 0.31732 0.0
C727 C 0.18036 0.06679 0.31902 0.0
C728 C 0.19203 0.0867 0.36665 0.0
C729 C 0.20862 0.06566 0.411 0.0
C730 C 0.21055 0.02435 0.40979 0.0
H731 H 0.16636 0.24439 0.37007 0.0
H732 H 0.15171 0.36841 0.33307 0.0
H733 H 0.12938 0.38047 0.42601 0.0
H734 H 0.08481 0.2281 0.41232 0.0
H735 H 0.09305 0.19597 0.47018 0.0
H736 H 0.13025 0.19944 0.41856 0.0
H737 H 0.18341 0.21919 0.49059 0.0
H738 H 0.14604 0.21518 0.54337 0.0
H739 H 0.17432 0.26004 0.536 0.0
H740 H 0.08244 0.37612 0.49956 0.0
H741 H 0.01792 0.35597 0.53751 0.0
H742 H 0.05389 0.23361 0.52668 0.0
C743 C 0.1602 0.27434 0.3826 0.0
C744 C 0.15998 0.30499 0.34367 0.0
C745 C 0.15232 0.34399 0.36141 0.0
C746 C 0.13959 0.35127 0.41494 0.0
C747 C 0.13453 0.3194 0.45032 0.0
C748 C 0.14586 0.28156 0.43533 0.0
C749 C 0.12772 0.25113 0.4732 0.0
C750 C 0.10771 0.21679 0.4416 0.0
C751 C 0.15976 0.23549 0.51318 0.0
C752 C 0.09767 0.27677 0.50299 0.0
C753 C 0.10475 0.3164 0.49318 0.0
C754 C 0.07713 0.34531 0.50824 0.0
C755 C 0.04003 0.33349 0.5288 0.0
C756 C 0.03038 0.293 0.53252 0.0
C757 C 0.06069 0.2647 0.52395 0.0
H758 H 0.81323 0.01244 0.17347 0.0
H759 H 0.82406 0.12541 0.25439 0.0
H760 H 0.84848 0.09223 0.33819 0.0
H761 H 0.76546 0.97028 0.27085 0.0
H762 H 0.78625 0.92132 0.2663 0.0
H763 H 0.78649 0.95268 0.20749 0.0
H764 H 0.86349 0.9447 0.19972 0.0
H765 H 0.86331 0.91281 0.25875 0.0
H766 H 0.89511 0.95569 0.25785 0.0
H767 H 0.85433 0.04852 0.41661 0.0
H768 H 0.83449 0.99924 0.48504 0.0
H769 H 0.81363 0.91393 0.35594 0.0
C770 C 0.82292 0.03006 0.20811 0.0
C771 C 0.81765 0.07116 0.20798 0.0
C772 C 0.82853 0.09378 0.25417 0.0
C773 C 0.84277 0.07517 0.30152 0.0
C774 C 0.84544 0.03409 0.30175 0.0
C775 C 0.83583 0.01171 0.25603 0.0
C776 C 0.83132 0.96852 0.27019 0.0
C777 C 0.78993 0.95233 0.25274 0.0
C778 C 0.86535 0.94399 0.24515 0.0
C779 C 0.83565 0.9708 0.33163 0.0
C780 C 0.84611 0.00836 0.34867 0.0
C781 C 0.84716 0.0188 0.4038 0.0
C782 C 0.83565 0.99071 0.44232 0.0
C783 C 0.82218 0.95315 0.42523 0.0
C784 C 0.82376 0.94258 0.36962 0.0
H785 H 1.00039 0.73753 0.47514 0.0
H786 H 0.05783 0.85014 0.44984 0.0
H787 H 1.00513 0.86854 0.38327 0.0
H788 H 0.98234 0.71386 0.35188 0.0
H789 H 0.93322 0.69233 0.35892 0.0
H790 H 0.96597 0.69459 0.41682 0.0
H791 H 0.9111 0.73222 0.47074 0.0
H792 H 0.8784 0.73073 0.41164 0.0
H793 H 0.8904 0.77721 0.44341 0.0
H794 H 0.96243 0.86555 0.30218 0.0
H795 H 0.93655 0.84028 0.2144 0.0
H796 H 0.90231 0.7316 0.29426 0.0
C797 C 1.00078 0.76651 0.45669 0.0
C798 C 0.03295 0.79229 0.46644 0.0
C799 C 0.03314 0.83009 0.44241 0.0
C800 C 1.00308 0.84092 0.40516 0.0
C801 C 0.97244 0.81409 0.39405 0.0
C802 C 0.97051 0.77793 0.42028 0.0
C803 C 0.93903 0.7517 0.39462 0.0
C804 C 0.95622 0.71081 0.37959 0.0
C805 C 0.90258 0.74775 0.43236 0.0
C806 C 0.92849 0.77605 0.34476 0.0
C807 C 0.94617 0.81293 0.34673 0.0
C808 C 0.94721 0.83742 0.30089 0.0
C809 C 0.93264 0.82277 0.25102 0.0
C810 C 0.91744 0.784 0.24753 0.0
C811 C 0.91272 0.76172 0.29575 0.0
H812 H 0.28287 0.18476 0.4144 0.0
H813 H 0.28254 0.30387 0.4776 0.0
H814 H 0.27061 0.32905 0.3839 0.0
H815 H 0.33373 0.20726 0.28459 0.0
H816 H 0.30465 0.17407 0.24259 0.0
H817 H 0.31259 0.1633 0.314 0.0
H818 H 0.23791 0.15896 0.33019 0.0
H819 H 0.22776 0.16871 0.25896 0.0
H820 H 0.20516 0.19897 0.31103 0.0
H821 H 0.26462 0.34292 0.27818 0.0
H822 H 0.25328 0.34323 0.17828 0.0
H823 H 0.25151 0.21582 0.17733 0.0
C824 C 0.28118 0.2162 0.40876 0.0
C825 C 0.28521 0.24198 0.45574 0.0
C826 C 0.28028 0.28285 0.44435 0.0
C827 C 0.27366 0.29765 0.39031 0.0
C828 C 0.27119 0.27175 0.3454 0.0
C829 C 0.27415 0.23164 0.35415 0.0
C830 C 0.26897 0.21029 0.29828 0.0
C831 C 0.30727 0.18738 0.28405 0.0
C832 C 0.23271 0.18261 0.29966 0.0
C833 C 0.26209 0.24433 0.25702 0.0
C834 C 0.26454 0.27957 0.28543 0.0
C835 C 0.26176 0.3152 0.25658 0.0
C836 C 0.25482 0.31516 0.19893 0.0
C837 C 0.24953 0.28002 0.1678 0.0
C838 C 0.25442 0.24377 0.1983 0.0
H839 H 0.6972 0.25012 0.19591 0.0
H840 H 0.81132 0.20701 0.13827 0.0
H841 H 0.83955 0.21545 0.23177 0.0
H842 H 0.73747 0.32229 0.29357 0.0
H843 H 0.69934 0.31439 0.34429 0.0
H844 H 0.68831 0.30579 0.27292 0.0
H845 H 0.66557 0.23627 0.29699 0.0
H846 H 0.67826 0.24254 0.36807 0.0
H847 H 0.69976 0.20236 0.32974 0.0
H848 H 0.85703 0.23123 0.33712 0.0
H849 H 0.85986 0.24816 0.4356 0.0
H850 H 0.73345 0.27641 0.43159 0.0
C851 C 0.72774 0.24105 0.20284 0.0
C852 C 0.75114 0.22648 0.15735 0.0
C853 C 0.79193 0.21795 0.17027 0.0
C854 C 0.80841 0.22266 0.22426 0.0
C855 C 0.78447 0.23643 0.26769 0.0
C856 C 0.74472 0.24544 0.25738 0.0
C857 C 0.72547 0.26016 0.31136 0.0
C858 C 0.71182 0.30321 0.30515 0.0
C859 C 0.69019 0.23371 0.3275 0.0
C860 C 0.75991 0.25711 0.35397 0.0
C861 C 0.79399 0.24408 0.32744 0.0
C862 C 0.83002 0.24089 0.35745 0.0
C863 C 0.83143 0.2507 0.41448 0.0
C864 C 0.79709 0.26325 0.44425 0.0
C865 C 0.76062 0.26628 0.41213 0.0
H866 H 0.75598 0.82428 0.41539 0.0
H867 H 0.74727 0.70525 0.4777 0.0
H868 H 0.75858 0.67939 0.38438 0.0
H869 H 0.70853 0.80835 0.28256 0.0
H870 H 0.74238 0.83868 0.24377 0.0
H871 H 0.73393 0.84903 0.31516 0.0
H872 H 0.80948 0.84419 0.33529 0.0
H873 H 0.8187 0.8346 0.26381 0.0
H874 H 0.83663 0.80076 0.31528 0.0
H875 H 0.76598 0.665 0.27948 0.0
H876 H 0.77644 0.66367 0.17959 0.0
H877 H 0.78814 0.79053 0.17862 0.0
C878 C 0.7562 0.79272 0.40968 0.0
C879 C 0.74983 0.76717 0.45635 0.0
C880 C 0.75178 0.72609 0.44478 0.0
C881 C 0.75809 0.71093 0.39093 0.0
C882 C 0.76357 0.73659 0.34642 0.0
C883 C 0.7635 0.77681 0.35533 0.0
C884 C 0.77204 0.79764 0.29997 0.0
C885 C 0.73714 0.82506 0.28444 0.0
C886 C 0.81155 0.82071 0.30374 0.0
C887 C 0.77576 0.76313 0.25839 0.0
C888 C 0.77055 0.72821 0.28671 0.0
C889 C 0.77111 0.69237 0.25797 0.0
C890 C 0.77781 0.69176 0.2004 0.0
C891 C 0.78534 0.72625 0.16914 0.0
C892 C 0.78334 0.76291 0.19964 0.0
H893 H 0.28502 0.82198 0.22026 0.0
H894 H 0.27919 0.70245 0.15833 0.0
H895 H 0.2651 0.67837 0.25152 0.0
H896 H 0.33031 0.79926 0.3548 0.0
H897 H 0.30063 0.83399 0.3931 0.0
H898 H 0.31124 0.84302 0.32192 0.0
H899 H 0.23572 0.8485 0.30051 0.0
H900 H 0.22509 0.8405 0.37191 0.0
H901 H 0.20256 0.80932 0.32046 0.0
H902 H 0.25542 0.66511 0.35551 0.0
H903 H 0.24178 0.66496 0.45458 0.0
H904 H 0.2468 0.79236 0.45666 0.0
C905 C 0.28136 0.79064 0.22618 0.0
C906 C 0.28437 0.76433 0.17957 0.0
C907 C 0.27764 0.72377 0.19127 0.0
C908 C 0.26964 0.70959 0.24501 0.0
C909 C 0.26729 0.73582 0.2894 0.0
C910 C 0.27231 0.77574 0.28058 0.0
C911 C 0.2661 0.79741 0.33601 0.0
C912 C 0.30435 0.81976 0.35244 0.0
C913 C 0.23022 0.82564 0.33199 0.0
C914 C 0.25727 0.76366 0.37715 0.0
C915 C 0.25861 0.72838 0.34877 0.0
C916 C 0.25305 0.69288 0.37706 0.0
C917 C 0.24475 0.69306 0.43417 0.0
C918 C 0.24081 0.72826 0.46536 0.0
C919 C 0.24837 0.76438 0.43549 0.0
H920 H 0.75866 0.71564 0.67392 0.0
H921 H 0.73009 0.83951 0.68494 0.0
H922 H 0.73832 0.83706 0.78514 0.0
H923 H 0.71375 0.68369 0.80398 0.0
H924 H 0.75391 0.65095 0.82337 0.0
H925 H 0.74379 0.66037 0.75196 0.0
H926 H 0.81704 0.68237 0.7388 0.0
H927 H 0.82703 0.6717 0.80987 0.0
H928 H 0.83778 0.7199 0.78291 0.0
H929 H 0.74951 0.82125 0.88947 0.0
H930 H 0.76573 0.79565 0.98151 0.0
H931 H 0.79122 0.68138 0.91076 0.0
C932 C 0.75373 0.74231 0.69725 0.0
C933 C 0.7407 0.7778 0.66914 0.0
C934 C 0.7365 0.81143 0.70351 0.0
C935 C 0.74222 0.81039 0.76141 0.0
C936 C 0.75369 0.77531 0.78761 0.0
C937 C 0.76002 0.7418 0.75645 0.0
C938 C 0.77396 0.7084 0.79571 0.0
C939 C 0.74452 0.67377 0.7935 0.0
C940 C 0.81647 0.69478 0.78092 0.0
C941 C 0.77374 0.72796 0.85331 0.0
C942 C 0.76196 0.76675 0.84718 0.0
C943 C 0.75895 0.7909 0.89383 0.0
C944 C 0.76825 0.77577 0.947 0.0
C945 C 0.78111 0.73623 0.95621 0.0
C946 C 0.78324 0.71207 0.90723 0.0
H947 H 0.24264 0.67855 0.71914 0.0
H948 H 0.24915 0.79791 0.65751 0.0
H949 H 0.26112 0.82213 0.75162 0.0
H950 H 0.19399 0.70329 0.8546 0.0
H951 H 0.22248 0.66675 0.89132 0.0
H952 H 0.21115 0.65959 0.81971 0.0
H953 H 0.28668 0.65138 0.80217 0.0
H954 H 0.29796 0.65975 0.87374 0.0
H955 H 0.32049 0.68993 0.82179 0.0
H956 H 0.26525 0.8352 0.85718 0.0
H957 H 0.27746 0.83539 0.95704 0.0
H958 H 0.27805 0.70804 0.95707 0.0
C959 C 0.2458 0.70991 0.72523 0.0
C960 C 0.24377 0.73605 0.67831 0.0
C961 C 0.2501 0.77664 0.69049 0.0
C962 C 0.25672 0.79091 0.74483 0.0
C963 C 0.25782 0.76478 0.78946 0.0
C964 C 0.25306 0.72489 0.78029 0.0
C965 C 0.25801 0.70327 0.83611 0.0
C966 C 0.21908 0.68193 0.85127 0.0
C967 C 0.29292 0.6742 0.83347 0.0
C968 C 0.26709 0.73686 0.8776 0.0
C969 C 0.26547 0.77214 0.8494 0.0
C970 C 0.26912 0.80758 0.87846 0.0
C971 C 0.27664 0.8074 0.93594 0.0
C972 C 0.28197 0.77225 0.96682 0.0
C973 C 0.27572 0.73607 0.93624 0.0
H974 H 0.24053 0.32456 0.91178 0.0
H975 H 0.25806 0.20756 0.97818 0.0
H976 H 0.27303 0.18278 0.88544 0.0
H977 H 0.19522 0.29196 0.77887 0.0
H978 H 0.2193 0.32948 0.73862 0.0
H979 H 0.2081 0.33855 0.80967 0.0
H980 H 0.28091 0.35581 0.82613 0.0
H981 H 0.29475 0.34509 0.75662 0.0
H982 H 0.32014 0.32048 0.81233 0.0
H983 H 0.28041 0.16799 0.78006 0.0
H984 H 0.28932 0.16748 0.67984 0.0
H985 H 0.27926 0.29399 0.6758 0.0
C986 C 0.24705 0.29362 0.90713 0.0
C987 C 0.24707 0.26833 0.95504 0.0
C988 C 0.25722 0.22824 0.94447 0.0
C989 C 0.26577 0.21362 0.89091 0.0
C990 C 0.26519 0.23894 0.84536 0.0
C991 C 0.25655 0.2784 0.85292 0.0
C992 C 0.25928 0.29923 0.79632 0.0
C993 C 0.21804 0.31581 0.77989 0.0
C994 C 0.29074 0.33209 0.79795 0.0
C995 C 0.27195 0.26587 0.75635 0.0
C996 C 0.27388 0.23112 0.78585 0.0
C997 C 0.28099 0.19562 0.758 0.0
C998 C 0.28755 0.19551 0.70036 0.0
C999 C 0.28978 0.23034 0.66831 0.0
C1000 C 0.2802 0.26632 0.69771 0.0
H1001 H 0.78941 0.31612 0.70089 0.0
H1002 H 0.77163 0.19956 0.63333 0.0
H1003 H 0.75562 0.17478 0.72577 0.0
H1004 H 0.83265 0.28564 0.83561 0.0
H1005 H 0.80719 0.32375 0.87305 0.0
H1006 H 0.81939 0.33117 0.80199 0.0
H1007 H 0.74498 0.34669 0.78442 0.0
H1008 H 0.73217 0.33663 0.8545 0.0
H1009 H 0.7073 0.31036 0.79985 0.0
H1010 H 0.74603 0.16009 0.83156 0.0
H1011 H 0.73629 0.15959 0.93175 0.0
H1012 H 0.75107 0.28581 0.93668 0.0
C1013 C 0.78253 0.28531 0.70514 0.0
C1014 C 0.78283 0.2602 0.65693 0.0
C1015 C 0.77218 0.22021 0.66715 0.0
C1016 C 0.76305 0.20558 0.72061 0.0
C1017 C 0.76347 0.23079 0.76647 0.0
C1018 C 0.7724 0.27018 0.75916 0.0
C1019 C 0.76896 0.29117 0.81569 0.0
C1020 C 0.80947 0.30904 0.83252 0.0
C1021 C 0.73638 0.3231 0.81348 0.0
C1022 C 0.75703 0.2577 0.85582 0.0
C1023 C 0.75465 0.22299 0.82612 0.0
C1024 C 0.74657 0.18765 0.85389 0.0
C1025 C 0.73997 0.1876 0.91165 0.0
C1026 C 0.73954 0.22238 0.94418 0.0
C1027 C 0.7495 0.25817 0.91469 0.0
loop_
_geom_bond_atom_site_label_1
_geom_bond_atom_site_label_2
_geom_bond_distance
_geom_bond_site_symmetry_2
_ccdc_geom_bond_type
Zn0 N4 2.020 . S
Zn0 O8 2.019 . S
Zn0 N10 2.119 . S
Zn0 O18 1.975 . S
C1 N2 1.334 . S
C1 N5 1.336 . S
N2 C1 1.334 . S
N2 C3 1.334 1_554 S
C3 N2 1.334 1_556 S
C3 N4 1.336 . S
N4 Zn0 2.020 . S
N4 C3 1.336 . S
N4 N5 1.354 1_556 S
N5 C1 1.336 . S
N5 N4 1.354 1_554 S
N5 Zn9 2.020 . S
C6 O7 1.244 . S
C6 O30 1.257 . S
O7 C6 1.244 . S
O8 Zn0 2.019 . S
O8 C28 1.257 . S
Zn9 N5 2.020 . S
Zn9 O16 1.975 . S
Zn9 N25 2.119 . S
Zn9 O30 2.019 . S
N10 Zn0 2.119 . S
N10 C12 1.334 . S
N10 C13 1.328 . S
C11 C12 1.391 . S
C11 N14 1.329 . S
C11 H32 0.930 . S
C12 N10 1.334 . S
C12 C11 1.391 . S
C12 H19 0.930 . S
C13 N10 1.328 . S
C13 C15 1.392 . S
C13 H20 0.930 . S
N14 C11 1.329 . S
N14 C15 1.331 . S
C15 C13 1.392 . S
C15 N14 1.331 . S
O16 Zn9 1.975 . S
O16 C17 1.252 . S
C17 O16 1.252 . S
C17 O18 1.252 1_554 S
O18 Zn0 1.975 . S
O18 C17 1.252 1_556 S
H19 C12 0.930 . S
H20 C13 0.930 . S
C21 C22 1.392 . S
C21 N25 1.328 . S
C21 H27 0.930 . S
C22 C21 1.392 . S
C22 N26 1.331 . S
C23 C24 1.391 . S
C23 N26 1.329 . S
C23 H33 0.930 . S
C24 C23 1.391 . S
C24 N25 1.334 . S
C24 H31 0.930 . S
N25 Zn9 2.119 . S
N25 C21 1.328 . S
N25 C24 1.334 . S
N26 C22 1.331 . S
N26 C23 1.329 . S
H27 C21 0.930 . S
C28 O8 1.257 . S
C28 O29 1.244 . S
O29 C28 1.244 . S
O30 C6 1.257 . S
O30 Zn9 2.019 . S
H31 C24 0.930 . S
H32 C11 0.930 . S
H33 C23 0.930 . S
Zn34 N38 2.020 . S
Zn34 O42 2.019 . S
Zn34 N44 2.119 . S
Zn34 O52 1.975 . S
C35 N36 1.334 1_556 S
C35 N39 1.336 . S
N36 C35 1.334 1_554 S
N36 C37 1.334 . S
C37 N36 1.334 . S
C37 N38 1.336 . S
N38 Zn34 2.020 . S
N38 C37 1.336 . S
N38 N39 1.354 1_554 S
N39 C35 1.336 . S
N39 N38 1.354 1_556 S
N39 Zn43 2.020 . S
C40 O41 1.244 . S
C40 O64 1.257 . S
O41 C40 1.244 . S
O42 Zn34 2.019 . S
O42 C62 1.257 . S
Zn43 N39 2.020 . S
Zn43 O50 1.975 . S
Zn43 N59 2.119 . S
Zn43 O64 2.019 . S
N44 Zn34 2.119 . S
N44 C46 1.334 . S
N44 C47 1.328 . S
C45 C46 1.391 . S
C45 N48 1.329 . S
C45 H66 0.930 . S
C46 N44 1.334 . S
C46 C45 1.391 . S
C46 H53 0.930 . S
C47 N44 1.328 . S
C47 C49 1.392 . S
C47 H54 0.930 . S
N48 C45 1.329 . S
N48 C49 1.331 . S
C49 C47 1.392 . S
C49 N48 1.331 . S
O50 Zn43 1.975 . S
O50 C51 1.252 1_556 S
C51 O50 1.252 1_554 S
C51 O52 1.252 . S
O52 Zn34 1.975 . S
O52 C51 1.252 . S
H53 C46 0.930 . S
H54 C47 0.930 . S
C55 C56 1.392 . S
C55 N59 1.328 . S
C55 H61 0.930 . S
C56 C55 1.392 . S
C56 N60 1.331 . S
C57 C58 1.391 . S
C57 N60 1.329 . S
C57 H67 0.930 . S
C58 C57 1.391 . S
C58 N59 1.334 . S
C58 H65 0.930 . S
N59 Zn43 2.119 . S
N59 C55 1.328 . S
N59 C58 1.334 . S
N60 C56 1.331 . S
N60 C57 1.329 . S
H61 C55 0.930 . S
C62 O42 1.257 . S
C62 O63 1.244 . S
O63 C62 1.244 . S
O64 C40 1.257 . S
O64 Zn43 2.019 . S
H65 C58 0.930 . S
H66 C45 0.930 . S
H67 C57 0.930 . S
Zn68 N72 2.020 . S
Zn68 O76 2.019 . S
Zn68 N78 2.119 . S
Zn68 O86 1.975 . S
C69 N70 1.334 . S
C69 N73 1.336 . S
N70 C69 1.334 . S
N70 C71 1.334 1_554 S
C71 N70 1.334 1_556 S
C71 N72 1.336 . S
N72 Zn68 2.020 . S
N72 C71 1.336 . S
N72 N73 1.354 1_556 S
N73 C69 1.336 . S
N73 N72 1.354 1_554 S
N73 Zn77 2.020 . S
C74 O75 1.244 . S
C74 O98 1.257 . S
O75 C74 1.244 . S
O76 Zn68 2.019 . S
O76 C96 1.257 . S
Zn77 N73 2.020 . S
Zn77 O84 1.975 . S
Zn77 N93 2.119 . S
Zn77 O98 2.019 . S
N78 Zn68 2.119 . S
N78 C80 1.334 . S
N78 C81 1.328 . S
C79 C80 1.391 . S
C79 N82 1.329 . S
C79 H100 0.930 . S
C80 N78 1.334 . S
C80 C79 1.391 . S
C80 H87 0.930 . S
C81 N78 1.328 . S
C81 C83 1.392 . S
C81 H88 0.930 . S
N82 C79 1.329 . S
N82 C83 1.331 . S
C83 C81 1.392 . S
C83 N82 1.331 . S
O84 Zn77 1.975 . S
O84 C85 1.252 . S
C85 O84 1.252 . S
C85 O86 1.252 1_554 S
O86 Zn68 1.975 . S
O86 C85 1.252 1_556 S
H87 C80 0.930 . S
H88 C81 0.930 . S
C89 C90 1.392 . S
C89 N93 1.328 . S
C89 H95 0.930 . S
C90 C89 1.392 . S
C90 N94 1.331 . S
C91 C92 1.391 . S
C91 N94 1.329 . S
C91 H101 0.930 . S
C92 C91 1.391 . S
C92 N93 1.334 . S
C92 H99 0.930 . S
N93 Zn77 2.119 . S
N93 C89 1.328 . S
N93 C92 1.334 . S
N94 C90 1.331 . S
N94 C91 1.329 . S
H95 C89 0.930 . S
C96 O76 1.257 . S
C96 O97 1.244 . S
O97 C96 1.244 . S
O98 C74 1.257 . S
O98 Zn77 2.019 . S
H99 C92 0.930 . S
H100 C79 0.930 . S
H101 C91 0.930 . S
Zn102 N106 2.020 . S
Zn102 O110 2.019 . S
Zn102 N112 2.119 . S
Zn102 O120 1.975 . S
C103 N104 1.334 . S
C103 N107 1.336 . S
N104 C103 1.334 . S
N104 C105 1.334 1_554 S
C105 N104 1.334 1_556 S
C105 N106 1.336 . S
N106 Zn102 2.020 . S
N106 C105 1.336 . S
N106 N107 1.354 1_556 S
N107 C103 1.336 . S
N107 N106 1.354 1_554 S
N107 Zn111 2.020 . S
C108 O109 1.244 . S
C108 O132 1.257 . S
O109 C108 1.244 . S
O110 Zn102 2.019 . S
O110 C130 1.257 . S
Zn111 N107 2.020 . S
Zn111 O118 1.975 . S
Zn111 N127 2.119 . S
Zn111 O132 2.019 . S
N112 Zn102 2.119 . S
N112 C114 1.334 . S
N112 C115 1.328 . S
C113 C114 1.391 . S
C113 N116 1.329 . S
C113 H134 0.930 . S
C114 N112 1.334 . S
C114 C113 1.391 . S
C114 H121 0.930 . S
C115 N112 1.328 . S
C115 C117 1.392 . S
C115 H122 0.930 . S
N116 C113 1.329 . S
N116 C117 1.331 . S
C117 C115 1.392 . S
C117 N116 1.331 . S
O118 Zn111 1.975 . S
O118 C119 1.252 . S
C119 O118 1.252 . S
C119 O120 1.252 1_554 S
O120 Zn102 1.975 . S
O120 C119 1.252 1_556 S
H121 C114 0.930 . S
H122 C115 0.930 . S
C123 C124 1.392 . S
C123 N127 1.328 . S
C123 H129 0.930 . S
C124 C123 1.392 . S
C124 N128 1.331 . S
C125 C126 1.391 . S
C125 N128 1.329 . S
C125 H135 0.930 . S
C126 C125 1.391 . S
C126 N127 1.334 . S
C126 H133 0.930 . S
N127 Zn111 2.119 . S
N127 C123 1.328 . S
N127 C126 1.334 . S
N128 C124 1.331 . S
N128 C125 1.329 . S
H129 C123 0.930 . S
C130 O110 1.257 . S
C130 O131 1.244 . S
O131 C130 1.244 . S
O132 C108 1.257 . S
O132 Zn111 2.019 . S
H133 C126 0.930 . S
H134 C113 0.930 . S
H135 C125 0.930 . S
Zn136 N140 2.020 . S
Zn136 O144 2.019 . S
Zn136 N146 2.119 . S
Zn136 O154 1.975 . S
C137 N138 1.334 . S
C137 N141 1.336 . S
N138 C137 1.334 . S
N138 C139 1.334 . S
C139 N138 1.334 . S
C139 N140 1.336 . S
N140 Zn136 2.020 . S
N140 C139 1.336 . S
N140 N141 1.354 . S
N141 C137 1.336 . S
N141 N140 1.354 . S
N141 Zn145 2.020 . S
C142 O143 1.244 . S
C142 O166 1.257 . S
O143 C142 1.244 . S
O144 Zn136 2.019 . S
O144 C164 1.257 . S
Zn145 N141 2.020 . S
Zn145 O152 1.975 . S
Zn145 N161 2.119 . S
Zn145 O166 2.019 . S
N146 Zn136 2.119 . S
N146 C148 1.334 . S
N146 C149 1.328 . S
C147 C148 1.391 . S
C147 N150 1.329 . S
C147 H168 0.930 . S
C148 N146 1.334 . S
C148 C147 1.391 . S
C148 H155 0.930 . S
C149 N146 1.328 . S
C149 C151 1.392 . S
C149 H156 0.930 . S
N150 C147 1.329 . S
N150 C151 1.331 . S
C151 C149 1.392 . S
C151 N150 1.331 . S
O152 Zn145 1.975 . S
O152 C153 1.252 . S
C153 O152 1.252 . S
C153 O154 1.252 . S
O154 Zn136 1.975 . S
O154 C153 1.252 . S
H155 C148 0.930 . S
H156 C149 0.930 . S
C157 C158 1.392 . S
C157 N161 1.328 . S
C157 H163 0.930 . S
C158 C157 1.392 . S
C158 N162 1.331 . S
C159 C160 1.391 . S
C159 N162 1.329 . S
C159 H169 0.930 . S
C160 C159 1.391 . S
C160 N161 1.334 . S
C160 H167 0.930 . S
N161 Zn145 2.119 . S
N161 C157 1.328 . S
N161 C160 1.334 . S
N162 C158 1.331 . S
N162 C159 1.329 . S
H163 C157 0.930 . S
C164 O144 1.257 . S
C164 O165 1.244 . S
O165 C164 1.244 . S
O166 C142 1.257 . S
O166 Zn145 2.019 . S
H167 C160 0.930 . S
H168 C147 0.930 . S
H169 C159 0.930 . S
Zn170 N174 2.020 . S
Zn170 O178 2.019 . S
Zn170 N180 2.119 . S
Zn170 O188 1.975 . S
C171 N172 1.334 . S
C171 N175 1.336 . S
N172 C171 1.334 . S
N172 C173 1.334 . S
C173 N172 1.334 . S
C173 N174 1.336 . S
N174 Zn170 2.020 . S
N174 C173 1.336 . S
N174 N175 1.354 . S
N175 C171 1.336 . S
N175 N174 1.354 . S
N175 Zn179 2.020 . S
C176 O177 1.244 . S
C176 O200 1.257 . S
O177 C176 1.244 . S
O178 Zn170 2.019 . S
O178 C198 1.257 . S
Zn179 N175 2.020 . S
Zn179 O186 1.975 . S
Zn179 N195 2.119 . S
Zn179 O200 2.019 . S
N180 Zn170 2.119 . S
N180 C182 1.334 . S
N180 C183 1.328 . S
C181 C182 1.391 . S
C181 N184 1.329 . S
C181 H202 0.930 . S
C182 N180 1.334 . S
C182 C181 1.391 . S
C182 H189 0.930 . S
C183 N180 1.328 . S
C183 C185 1.392 . S
C183 H190 0.930 . S
N184 C181 1.329 . S
N184 C185 1.331 . S
C185 C183 1.392 . S
C185 N184 1.331 . S
O186 Zn179 1.975 . S
O186 C187 1.252 . S
C187 O186 1.252 . S
C187 O188 1.252 . S
O188 Zn170 1.975 . S
O188 C187 1.252 . S
H189 C182 0.930 . S
H190 C183 0.930 . S
C191 C192 1.392 . S
C191 N195 1.328 . S
C191 H197 0.930 . S
C192 C191 1.392 . S
C192 N196 1.331 . S
C193 C194 1.391 . S
C193 N196 1.329 . S
C193 H203 0.930 . S
C194 C193 1.391 . S
C194 N195 1.334 . S
C194 H201 0.930 . S
N195 Zn179 2.119 . S
N195 C191 1.328 . S
N195 C194 1.334 . S
N196 C192 1.331 . S
N196 C193 1.329 . S
H197 C191 0.930 . S
C198 O178 1.257 . S
C198 O199 1.244 . S
O199 C198 1.244 . S
O200 C176 1.257 . S
O200 Zn179 2.019 . S
H201 C194 0.930 . S
H202 C181 0.930 . S
H203 C193 0.930 . S
Zn204 N208 2.020 . S
Zn204 O212 2.019 . S
Zn204 N214 2.119 . S
Zn204 O222 1.975 . S
C205 N206 1.334 . S
C205 N209 1.336 . S
N206 C205 1.334 . S
N206 C207 1.334 . S
C207 N206 1.334 . S
C207 N208 1.336 . S
N208 Zn204 2.020 . S
N208 C207 1.336 . S
N208 N209 1.354 . S
N209 C205 1.336 . S
N209 N208 1.354 . S
N209 Zn213 2.020 . S
C210 O211 1.244 . S
C210 O234 1.257 . S
O211 C210 1.244 . S
O212 Zn204 2.019 . S
O212 C232 1.257 . S
Zn213 N209 2.020 . S
Zn213 O220 1.975 . S
Zn213 N229 2.119 . S
Zn213 O234 2.019 . S
N214 Zn204 2.119 . S
N214 C216 1.334 . S
N214 C217 1.328 . S
C215 C216 1.391 . S
C215 N218 1.329 . S
C215 H236 0.930 . S
C216 N214 1.334 . S
C216 C215 1.391 . S
C216 H223 0.930 . S
C217 N214 1.328 . S
C217 C219 1.392 . S
C217 H224 0.930 . S
N218 C215 1.329 . S
N218 C219 1.331 . S
C219 C217 1.392 . S
C219 N218 1.331 . S
O220 Zn213 1.975 . S
O220 C221 1.252 . S
C221 O220 1.252 . S
C221 O222 1.252 . S
O222 Zn204 1.975 . S
O222 C221 1.252 . S
H223 C216 0.930 . S
H224 C217 0.930 . S
C225 C226 1.392 . S
C225 N229 1.328 . S
C225 H231 0.930 . S
C226 C225 1.392 . S
C226 N230 1.331 . S
C227 C228 1.391 . S
C227 N230 1.329 . S
C227 H237 0.930 . S
C228 C227 1.391 . S
C228 N229 1.334 . S
C228 H235 0.930 . S
N229 Zn213 2.119 . S
N229 C225 1.328 . S
N229 C228 1.334 . S
N230 C226 1.331 . S
N230 C227 1.329 . S
H231 C225 0.930 . S
C232 O212 1.257 . S
C232 O233 1.244 . S
O233 C232 1.244 . S
O234 C210 1.257 . S
O234 Zn213 2.019 . S
H235 C228 0.930 . S
H236 C215 0.930 . S
H237 C227 0.930 . S
Zn238 N242 2.020 . S
Zn238 O246 2.019 . S
Zn238 N248 2.119 . S
Zn238 O256 1.975 . S
C239 N240 1.334 . S
C239 N243 1.336 . S
N240 C239 1.334 . S
N240 C241 1.334 . S
C241 N240 1.334 . S
C241 N242 1.336 . S
N242 Zn238 2.020 . S
N242 C241 1.336 . S
N242 N243 1.354 . S
N243 C239 1.336 . S
N243 N242 1.354 . S
N243 Zn247 2.020 . S
C244 O245 1.244 . S
C244 O268 1.257 . S
O245 C244 1.244 . S
O246 Zn238 2.019 . S
O246 C266 1.257 . S
Zn247 N243 2.020 . S
Zn247 O254 1.975 . S
Zn247 N263 2.119 . S
Zn247 O268 2.019 . S
N248 Zn238 2.119 . S
N248 C250 1.334 . S
N248 C251 1.328 . S
C249 C250 1.391 . S
C249 N252 1.329 . S
C249 H270 0.930 . S
C250 N248 1.334 . S
C250 C249 1.391 . S
C250 H257 0.930 . S
C251 N248 1.328 . S
C251 C253 1.392 . S
C251 H258 0.930 . S
N252 C249 1.329 . S
N252 C253 1.331 . S
C253 C251 1.392 . S
C253 N252 1.331 . S
O254 Zn247 1.975 . S
O254 C255 1.252 . S
C255 O254 1.252 . S
C255 O256 1.252 . S
O256 Zn238 1.975 . S
O256 C255 1.252 . S
H257 C250 0.930 . S
H258 C251 0.930 . S
C259 C260 1.392 . S
C259 N263 1.328 . S
C259 H265 0.930 . S
C260 C259 1.392 . S
C260 N264 1.331 . S
C261 C262 1.391 . S
C261 N264 1.329 . S
C261 H271 0.930 . S
C262 C261 1.391 . S
C262 N263 1.334 . S
C262 H269 0.930 . S
N263 Zn247 2.119 . S
N263 C259 1.328 . S
N263 C262 1.334 . S
N264 C260 1.331 . S
N264 C261 1.329 . S
H265 C259 0.930 . S
C266 O246 1.257 . S
C266 O267 1.244 . S
O267 C266 1.244 . S
O268 C244 1.257 . S
O268 Zn247 2.019 . S
H269 C262 0.930 . S
H270 C249 0.930 . S
H271 C261 0.930 . S
H272 C284 0.930 . S
H273 C286 0.930 . S
H274 C287 0.930 1_655 S
H275 C291 0.959 1_554 S
H276 C291 0.959 . S
H277 C291 0.961 . S
H278 C292 0.960 . S
H279 C292 0.961 . S
H280 C292 0.959 1_655 S
H281 C295 0.929 . S
H282 C296 0.931 . S
H283 C298 0.930 . S
C284 H272 0.930 . S
C284 C285 1.399 1_556 S
C284 C289 1.399 . S
C285 C284 1.399 1_554 S
C285 C286 1.376 . S
C286 H273 0.930 . S
C286 C285 1.376 . S
C286 C287 1.388 . S
C287 H274 0.930 1_455 S
C287 C286 1.388 . S
C287 C288 1.390 . S
C288 C287 1.390 . S
C288 C289 1.394 1_554 S
C288 C294 1.465 1_455 S
C289 C284 1.399 . S
C289 C288 1.394 1_556 S
C289 C290 1.516 . S
C290 C289 1.516 . S
C290 C291 1.502 . S
C290 C292 1.561 . S
C290 C293 1.526 1_455 S
C291 H275 0.959 1_556 S
C291 H276 0.959 . S
C291 H277 0.961 . S
C291 C290 1.502 . S
C292 H278 0.960 . S
C292 H279 0.961 . S
C292 H280 0.959 1_455 S
C292 C290 1.561 . S
C293 C290 1.526 1_655 S
C293 C294 1.396 1_556 S
C293 C298 1.390 . S
C294 C288 1.465 1_655 S
C294 C293 1.396 1_554 S
C294 C295 1.399 . S
C295 H281 0.929 . S
C295 C294 1.399 . S
C295 C296 1.385 . S
C296 H282 0.931 . S
C296 C295 1.385 . S
C296 C297 1.389 . S
C297 C296 1.389 . S
C297 C298 1.387 1_554 S
C298 H283 0.930 . S
C298 C293 1.390 . S
C298 C297 1.387 1_556 S
H299 C311 0.930 . S
H300 C313 0.930 . S
H301 C314 0.930 . S
H302 C318 0.959 . S
H303 C318 0.959 . S
H304 C318 0.961 . S
H305 C319 0.960 . S
H306 C319 0.961 1_545 S
H307 C319 0.959 . S
H308 C322 0.927 1_565 S
H309 C323 0.931 . S
H310 C325 0.930 . S
C311 H299 0.930 . S
C311 C312 1.399 1_554 S
C311 C316 1.399 . S
C312 C311 1.399 1_556 S
C312 C313 1.376 . S
C313 H300 0.930 . S
C313 C312 1.376 . S
C313 C314 1.388 . S
C314 H301 0.930 . S
C314 C313 1.388 . S
C314 C315 1.390 . S
C315 C314 1.390 . S
C315 C316 1.394 1_556 S
C315 C321 1.465 1_565 S
C316 C311 1.399 . S
C316 C315 1.394 1_554 S
C316 C317 1.516 1_565 S
C317 C316 1.516 1_545 S
C317 C318 1.502 . S
C317 C319 1.561 1_545 S
C317 C320 1.526 . S
C318 H302 0.959 . S
C318 H303 0.959 . S
C318 H304 0.961 . S
C318 C317 1.502 . S
C319 H305 0.960 . S
C319 H306 0.961 1_565 S
C319 H307 0.959 . S
C319 C317 1.561 1_565 S
C320 C317 1.526 . S
C320 C321 1.396 1_554 S
C320 C325 1.390 . S
C321 C315 1.465 1_545 S
C321 C320 1.396 1_556 S
C321 C322 1.399 . S
C322 H308 0.927 1_545 S
C322 C321 1.399 . S
C322 C323 1.385 . S
C323 H309 0.931 . S
C323 C322 1.385 . S
C323 C324 1.389 . S
C324 C323 1.389 . S
C324 C325 1.387 1_556 S
C325 H310 0.930 . S
C325 C320 1.390 . S
C325 C324 1.387 1_554 S
H326 C338 0.930 . S
H327 C340 0.930 . S
H328 C341 0.930 . S
H329 C345 0.959 . S
H330 C345 0.959 . S
H331 C345 0.961 . S
H332 C346 0.960 . S
H333 C346 0.961 . S
H334 C346 0.959 . S
H335 C349 0.929 . S
H336 C350 0.931 . S
H337 C352 0.930 . S
C338 H326 0.930 . S
C338 C339 1.399 . S
C338 C343 1.399 . S
C339 C338 1.399 . S
C339 C340 1.376 . S
C340 H327 0.930 . S
C340 C339 1.376 . S
C340 C341 1.388 . S
C341 H328 0.930 . S
C341 C340 1.388 . S
C341 C342 1.390 . S
C342 C341 1.390 . S
C342 C343 1.394 . S
C342 C348 1.465 1_455 S
C343 C338 1.399 . S
C343 C342 1.394 . S
C343 C344 1.516 1_455 S
C344 C343 1.516 1_655 S
C344 C345 1.502 . S
C344 C346 1.561 1_655 S
C344 C347 1.526 . S
C345 H329 0.959 . S
C345 H330 0.959 . S
C345 H331 0.961 . S
C345 C344 1.502 . S
C346 H332 0.960 . S
C346 H333 0.961 . S
C346 H334 0.959 . S
C346 C344 1.561 1_455 S
C347 C344 1.526 . S
C347 C348 1.396 . S
C347 C352 1.390 . S
C348 C342 1.465 1_655 S
C348 C347 1.396 . S
C348 C349 1.399 . S
C349 H335 0.929 . S
C349 C348 1.399 . S
C349 C350 1.385 . S
C350 H336 0.931 . S
C350 C349 1.385 . S
C350 C351 1.389 . S
C351 C350 1.389 . S
C351 C352 1.387 . S
C352 H337 0.930 . S
C352 C347 1.390 . S
C352 C351 1.387 . S
H353 C365 0.930 . S
H354 C367 0.930 . S
H355 C368 0.930 . S
H356 C372 0.959 . S
H357 C372 0.959 . S
H358 C372 0.961 . S
H359 C373 0.960 1_565 S
H360 C373 0.961 . S
H361 C373 0.959 . S
H362 C376 0.929 . S
H363 C377 0.931 . S
H364 C379 0.930 . S
C365 H353 0.930 . S
C365 C366 1.399 . S
C365 C370 1.399 . S
C366 C365 1.399 . S
C366 C367 1.376 . S
C367 H354 0.930 . S
C367 C366 1.376 . S
C367 C368 1.388 . S
C368 H355 0.930 . S
C368 C367 1.388 . S
C368 C369 1.390 . S
C369 C368 1.390 . S
C369 C370 1.394 . S
C369 C375 1.465 1_565 S
C370 C365 1.399 . S
C370 C369 1.394 . S
C370 C371 1.516 . S
C371 C370 1.516 . S
C371 C372 1.502 . S
C371 C373 1.561 1_565 S
C371 C374 1.526 1_565 S
C372 H356 0.959 . S
C372 H357 0.959 . S
C372 H358 0.961 . S
C372 C371 1.502 . S
C373 H359 0.960 1_545 S
C373 H360 0.961 . S
C373 H361 0.959 . S
C373 C371 1.561 1_545 S
C374 C371 1.526 1_545 S
C374 C375 1.396 . S
C374 C379 1.390 . S
C375 C369 1.465 1_545 S
C375 C374 1.396 . S
C375 C376 1.399 . S
C376 H362 0.929 . S
C376 C375 1.399 . S
C376 C377 1.385 . S
C377 H363 0.931 . S
C377 C376 1.385 . S
C377 C378 1.389 . S
C378 C377 1.389 . S
C378 C379 1.387 . S
C379 H364 0.930 . S
C379 C374 1.390 . S
C379 C378 1.387 . S
H380 C392 0.930 . S
H381 C394 0.930 . S
H382 C395 0.930 . S
H383 C399 0.959 . S
H384 C399 0.959 . S
H385 C399 0.961 . S
H386 C400 0.960 . S
H387 C400 0.961 . S
H388 C400 0.959 . S
H389 C403 0.929 . S
H390 C404 0.931 . S
H391 C406 0.930 . S
C392 H380 0.930 . S
C392 C393 1.399 . S
C392 C397 1.399 . S
C393 C392 1.399 . S
C393 C394 1.376 . S
C394 H381 0.930 . S
C394 C393 1.376 . S
C394 C395 1.388 . S
C395 H382 0.930 . S
C395 C394 1.388 . S
C395 C396 1.390 . S
C396 C395 1.390 . S
C396 C397 1.394 . S
C396 C402 1.465 . S
C397 C392 1.399 . S
C397 C396 1.394 . S
C397 C398 1.516 . S
C398 C397 1.516 . S
C398 C399 1.502 . S
C398 C400 1.561 . S
C398 C401 1.526 . S
C399 H383 0.959 . S
C399 H384 0.959 . S
C399 H385 0.961 . S
C399 C398 1.502 . S
C400 H386 0.960 . S
C400 H387 0.961 . S
C400 H388 0.959 . S
C400 C398 1.561 . S
C401 C398 1.526 . S
C401 C402 1.396 . S
C401 C406 1.390 . S
C402 C396 1.465 . S
C402 C401 1.396 . S
C402 C403 1.399 . S
C403 H389 0.929 . S
C403 C402 1.399 . S
C403 C404 1.385 . S
C404 H390 0.931 . S
C404 C403 1.385 . S
C404 C405 1.389 . S
C405 C404 1.389 . S
C405 C406 1.387 . S
C406 H391 0.930 . S
C406 C401 1.390 . S
C406 C405 1.387 . S
H407 C419 0.930 . S
H408 C421 0.930 . S
H409 C422 0.930 . S
H410 C426 0.959 . S
H411 C426 0.959 . S
H412 C426 0.961 . S
H413 C427 0.960 . S
H414 C427 0.961 . S
H415 C427 0.959 . S
H416 C430 0.929 . S
H417 C431 0.931 . S
H418 C433 0.930 . S
C419 H407 0.930 . S
C419 C420 1.399 . S
C419 C424 1.399 . S
C420 C419 1.399 . S
C420 C421 1.376 . S
C421 H408 0.930 . S
C421 C420 1.376 . S
C421 C422 1.388 . S
C422 H409 0.930 . S
C422 C421 1.388 . S
C422 C423 1.390 . S
C423 C422 1.390 . S
C423 C424 1.394 . S
C423 C429 1.465 . S
C424 C419 1.399 . S
C424 C423 1.394 . S
C424 C425 1.516 . S
C425 C424 1.516 . S
C425 C426 1.502 . S
C425 C427 1.561 . S
C425 C428 1.526 . S
C426 H410 0.959 . S
C426 H411 0.959 . S
C426 H412 0.961 . S
C426 C425 1.502 . S
C427 H413 0.960 . S
C427 H414 0.961 . S
C427 H415 0.959 . S
C427 C425 1.561 . S
C428 C425 1.526 . S
C428 C429 1.396 . S
C428 C433 1.390 . S
C429 C423 1.465 . S
C429 C428 1.396 . S
C429 C430 1.399 . S
C430 H416 0.929 . S
C430 C429 1.399 . S
C430 C431 1.385 . S
C431 H417 0.931 . S
C431 C430 1.385 . S
C431 C432 1.389 . S
C432 C431 1.389 . S
C432 C433 1.387 . S
C433 H418 0.930 . S
C433 C428 1.390 . S
C433 C432 1.387 . S
H434 C446 0.930 . S
H435 C448 0.930 . S
H436 C449 0.930 . S
H437 C453 0.959 . S
H438 C453 0.959 . S
H439 C453 0.961 . S
H440 C454 0.960 . S
H441 C454 0.961 . S
H442 C454 0.959 . S
H443 C457 0.929 . S
H444 C458 0.931 . S
H445 C460 0.930 . S
C446 H434 0.930 . S
C446 C447 1.399 . S
C446 C451 1.399 . S
C447 C446 1.399 . S
C447 C448 1.376 . S
C448 H435 0.930 . S
C448 C447 1.376 . S
C448 C449 1.388 . S
C449 H436 0.930 . S
C449 C448 1.388 . S
C449 C450 1.390 . S
C450 C449 1.390 . S
C450 C451 1.394 . S
C450 C456 1.465 . S
C451 C446 1.399 . S
C451 C450 1.394 . S
C451 C452 1.516 . S
C452 C451 1.516 . S
C452 C453 1.502 . S
C452 C454 1.561 . S
C452 C455 1.526 . S
C453 H437 0.959 . S
C453 H438 0.959 . S
C453 H439 0.961 . S
C453 C452 1.502 . S
C454 H440 0.960 . S
C454 H441 0.961 . S
C454 H442 0.959 . S
C454 C452 1.561 . S
C455 C452 1.526 . S
C455 C456 1.396 . S
C455 C460 1.390 . S
C456 C450 1.465 . S
C456 C455 1.396 . S
C456 C457 1.399 . S
C457 H443 0.929 . S
C457 C456 1.399 . S
C457 C458 1.385 . S
C458 H444 0.931 . S
C458 C457 1.385 . S
C458 C459 1.389 . S
C459 C458 1.389 . S
C459 C460 1.387 . S
C460 H445 0.930 . S
C460 C455 1.390 . S
C460 C459 1.387 . S
H461 C473 0.930 . S
H462 C475 0.930 . S
H463 C476 0.930 . S
H464 C480 0.959 . S
H465 C480 0.959 . S
H466 C480 0.961 . S
H467 C481 0.960 . S
H468 C481 0.961 . S
H469 C481 0.959 . S
H470 C484 0.929 . S
H471 C485 0.931 . S
H472 C487 0.930 . S
C473 H461 0.930 . S
C473 C474 1.399 . S
C473 C478 1.399 . S
C474 C473 1.399 . S
C474 C475 1.376 . S
C475 H462 0.930 . S
C475 C474 1.376 . S
C475 C476 1.388 . S
C476 H463 0.930 . S
C476 C475 1.388 . S
C476 C477 1.390 . S
C477 C476 1.390 . S
C477 C478 1.394 . S
C477 C483 1.465 . S
C478 C473 1.399 . S
C478 C477 1.394 . S
C478 C479 1.516 . S
C479 C478 1.516 . S
C479 C480 1.502 . S
C479 C481 1.561 . S
C479 C482 1.526 . S
C480 H464 0.959 . S
C480 H465 0.959 . S
C480 H466 0.961 . S
C480 C479 1.502 . S
C481 H467 0.960 . S
C481 H468 0.961 . S
C481 H469 0.959 . S
C481 C479 1.561 . S
C482 C479 1.526 . S
C482 C483 1.396 . S
C482 C487 1.390 . S
C483 C477 1.465 . S
C483 C482 1.396 . S
C483 C484 1.399 . S
C484 H470 0.929 . S
C484 C483 1.399 . S
C484 C485 1.385 . S
C485 H471 0.931 . S
C485 C484 1.385 . S
C485 C486 1.389 . S
C486 C485 1.389 . S
C486 C487 1.387 . S
C487 H472 0.930 . S
C487 C482 1.390 . S
C487 C486 1.387 . S
H488 C500 0.930 . S
H489 C502 0.930 . S
H490 C503 0.930 . S
H491 C507 0.959 . S
H492 C507 0.959 . S
H493 C507 0.961 . S
H494 C508 0.960 . S
H495 C508 0.961 . S
H496 C508 0.959 . S
H497 C511 0.929 . S
H498 C512 0.931 . S
H499 C514 0.930 . S
C500 H488 0.930 . S
C500 C501 1.399 . S
C500 C505 1.399 . S
C501 C500 1.399 . S
C501 C502 1.376 . S
C502 H489 0.930 . S
C502 C501 1.376 . S
C502 C503 1.388 . S
C503 H490 0.930 . S
C503 C502 1.388 . S
C503 C504 1.390 . S
C504 C503 1.390 . S
C504 C505 1.394 . S
C504 C510 1.465 . S
C505 C500 1.399 . S
C505 C504 1.394 . S
C505 C506 1.516 . S
C506 C505 1.516 . S
C506 C507 1.502 . S
C506 C508 1.561 . S
C506 C509 1.526 . S
C507 H491 0.959 . S
C507 H492 0.959 . S
C507 H493 0.961 . S
C507 C506 1.502 . S
C508 H494 0.960 . S
C508 H495 0.961 . S
C508 H496 0.959 . S
C508 C506 1.561 . S
C509 C506 1.526 . S
C509 C510 1.396 . S
C509 C514 1.390 . S
C510 C504 1.465 . S
C510 C509 1.396 . S
C510 C511 1.399 . S
C511 H497 0.929 . S
C511 C510 1.399 . S
C511 C512 1.385 . S
C512 H498 0.931 . S
C512 C511 1.385 . S
C512 C513 1.389 . S
C513 C512 1.389 . S
C513 C514 1.387 . S
C514 H499 0.930 . S
C514 C509 1.390 . S
C514 C513 1.387 . S
H515 C527 0.930 . S
H516 C529 0.930 . S
H517 C530 0.930 . S
H518 C534 0.959 . S
H519 C534 0.959 . S
H520 C534 0.961 . S
H521 C535 0.960 . S
H522 C535 0.961 . S
H523 C535 0.959 . S
H524 C538 0.929 . S
H525 C539 0.931 . S
H526 C541 0.930 . S
C527 H515 0.930 . S
C527 C528 1.399 . S
C527 C532 1.399 . S
C528 C527 1.399 . S
C528 C529 1.376 . S
C529 H516 0.930 . S
C529 C528 1.376 . S
C529 C530 1.388 . S
C530 H517 0.930 . S
C530 C529 1.388 . S
C530 C531 1.390 . S
C531 C530 1.390 . S
C531 C532 1.394 . S
C531 C537 1.465 . S
C532 C527 1.399 . S
C532 C531 1.394 . S
C532 C533 1.516 . S
C533 C532 1.516 . S
C533 C534 1.502 . S
C533 C535 1.561 . S
C533 C536 1.526 . S
C534 H518 0.959 . S
C534 H519 0.959 . S
C534 H520 0.961 . S
C534 C533 1.502 . S
C535 H521 0.960 . S
C535 H522 0.961 . S
C535 H523 0.959 . S
C535 C533 1.561 . S
C536 C533 1.526 . S
C536 C537 1.396 . S
C536 C541 1.390 . S
C537 C531 1.465 . S
C537 C536 1.396 . S
C537 C538 1.399 . S
C538 H524 0.929 . S
C538 C537 1.399 . S
C538 C539 1.385 . S
C539 H525 0.931 . S
C539 C538 1.385 . S
C539 C540 1.389 . S
C540 C539 1.389 . S
C540 C541 1.387 . S
C541 H526 0.930 . S
C541 C536 1.390 . S
C541 C540 1.387 . S
H542 C554 0.930 . S
H543 C556 0.930 . S
H544 C557 0.930 . S
H545 C561 0.959 . S
H546 C561 0.959 . S
H547 C561 0.961 . S
H548 C562 0.960 . S
H549 C562 0.961 . S
H550 C562 0.959 . S
H551 C565 0.929 . S
H552 C566 0.931 . S
H553 C568 0.930 . S
C554 H542 0.930 . S
C554 C555 1.399 . S
C554 C559 1.399 . S
C555 C554 1.399 . S
C555 C556 1.376 . S
C556 H543 0.930 . S
C556 C555 1.376 . S
C556 C557 1.388 . S
C557 H544 0.930 . S
C557 C556 1.388 . S
C557 C558 1.390 . S
C558 C557 1.390 . S
C558 C559 1.394 . S
C558 C564 1.465 . S
C559 C554 1.399 . S
C559 C558 1.394 . S
C559 C560 1.516 . S
C560 C559 1.516 . S
C560 C561 1.502 . S
C560 C562 1.561 . S
C560 C563 1.526 . S
C561 H545 0.959 . S
C561 H546 0.959 . S
C561 H547 0.961 . S
C561 C560 1.502 . S
C562 H548 0.960 . S
C562 H549 0.961 . S
C562 H550 0.959 . S
C562 C560 1.561 . S
C563 C560 1.526 . S
C563 C564 1.396 . S
C563 C568 1.390 . S
C564 C558 1.465 . S
C564 C563 1.396 . S
C564 C565 1.399 . S
C565 H551 0.929 . S
C565 C564 1.399 . S
C565 C566 1.385 . S
C566 H552 0.931 . S
C566 C565 1.385 . S
C566 C567 1.389 . S
C567 C566 1.389 . S
C567 C568 1.387 . S
C568 H553 0.930 . S
C568 C563 1.390 . S
C568 C567 1.387 . S
H569 C581 0.930 . S
H570 C583 0.930 . S
H571 C584 0.930 . S
H572 C588 0.959 . S
H573 C588 0.959 . S
H574 C588 0.961 . S
H575 C589 0.960 . S
H576 C589 0.961 . S
H577 C589 0.959 . S
H578 C592 0.929 . S
H579 C593 0.931 . S
H580 C595 0.930 . S
C581 H569 0.930 . S
C581 C582 1.399 . S
C581 C586 1.399 . S
C582 C581 1.399 . S
C582 C583 1.376 . S
C583 H570 0.930 . S
C583 C582 1.376 . S
C583 C584 1.388 . S
C584 H571 0.930 . S
C584 C583 1.388 . S
C584 C585 1.390 . S
C585 C584 1.390 . S
C585 C586 1.394 . S
C585 C591 1.465 . S
C586 C581 1.399 . S
C586 C585 1.394 . S
C586 C587 1.516 . S
C587 C586 1.516 . S
C587 C588 1.502 . S
C587 C589 1.561 . S
C587 C590 1.526 . S
C588 H572 0.959 . S
C588 H573 0.959 . S
C588 H574 0.961 . S
C588 C587 1.502 . S
C589 H575 0.960 . S
C589 H576 0.961 . S
C589 H577 0.959 . S
C589 C587 1.561 . S
C590 C587 1.526 . S
C590 C591 1.396 . S
C590 C595 1.390 . S
C591 C585 1.465 . S
C591 C590 1.396 . S
C591 C592 1.399 . S
C592 H578 0.929 . S
C592 C591 1.399 . S
C592 C593 1.385 . S
C593 H579 0.931 . S
C593 C592 1.385 . S
C593 C594 1.389 . S
C594 C593 1.389 . S
C594 C595 1.387 . S
C595 H580 0.930 . S
C595 C590 1.390 . S
C595 C594 1.387 . S
H596 C608 0.930 . S
H597 C610 0.930 . S
H598 C611 0.930 1_545 S
H599 C615 0.959 . S
H600 C615 0.959 . S
H601 C615 0.961 . S
H602 C616 0.960 . S
H603 C616 0.961 . S
H604 C616 0.959 . S
H605 C619 0.929 . S
H606 C620 0.931 . S
H607 C622 0.930 . S
C608 H596 0.930 . S
C608 C609 1.399 . S
C608 C613 1.399 . S
C609 C608 1.399 . S
C609 C610 1.376 . S
C610 H597 0.930 . S
C610 C609 1.376 . S
C610 C611 1.388 . S
C611 H598 0.930 1_565 S
C611 C610 1.388 . S
C611 C612 1.390 . S
C612 C611 1.390 . S
C612 C613 1.394 . S
C612 C618 1.465 1_565 S
C613 C608 1.399 . S
C613 C612 1.394 . S
C613 C614 1.516 . S
C614 C613 1.516 . S
C614 C615 1.502 . S
C614 C616 1.561 . S
C614 C617 1.526 1_565 S
C615 H599 0.959 . S
C615 H600 0.959 . S
C615 H601 0.961 . S
C615 C614 1.502 . S
C616 H602 0.960 . S
C616 H603 0.961 . S
C616 H604 0.959 . S
C616 C614 1.561 . S
C617 C614 1.526 1_545 S
C617 C618 1.396 . S
C617 C622 1.390 . S
C618 C612 1.465 1_545 S
C618 C617 1.396 . S
C618 C619 1.399 . S
C619 H605 0.929 . S
C619 C618 1.399 . S
C619 C620 1.385 . S
C620 H606 0.931 . S
C620 C619 1.385 . S
C620 C621 1.389 . S
C621 C620 1.389 . S
C621 C622 1.387 . S
C622 H607 0.930 . S
C622 C617 1.390 . S
C622 C621 1.387 . S
H623 C635 0.930 . S
H624 C637 0.930 . S
H625 C638 0.930 . S
H626 C642 0.959 . S
H627 C642 0.959 . S
H628 C642 0.961 . S
H629 C643 0.960 . S
H630 C643 0.961 1_655 S
H631 C643 0.959 . S
H632 C646 0.929 . S
H633 C647 0.931 . S
H634 C649 0.930 . S
C635 H623 0.930 . S
C635 C636 1.399 . S
C635 C640 1.399 . S
C636 C635 1.399 . S
C636 C637 1.376 . S
C637 H624 0.930 . S
C637 C636 1.376 . S
C637 C638 1.388 . S
C638 H625 0.930 . S
C638 C637 1.388 . S
C638 C639 1.390 . S
C639 C638 1.390 . S
C639 C640 1.394 . S
C639 C645 1.465 1_455 S
C640 C635 1.399 . S
C640 C639 1.394 . S
C640 C641 1.516 1_455 S
C641 C640 1.516 1_655 S
C641 C642 1.502 . S
C641 C643 1.561 1_655 S
C641 C644 1.526 . S
C642 H626 0.959 . S
C642 H627 0.959 . S
C642 H628 0.961 . S
C642 C641 1.502 . S
C643 H629 0.960 . S
C643 H630 0.961 1_455 S
C643 H631 0.959 . S
C643 C641 1.561 1_455 S
C644 C641 1.526 . S
C644 C645 1.396 . S
C644 C649 1.390 . S
C645 C639 1.465 1_655 S
C645 C644 1.396 . S
C645 C646 1.399 . S
C646 H632 0.929 . S
C646 C645 1.399 . S
C646 C647 1.385 . S
C647 H633 0.931 . S
C647 C646 1.385 . S
C647 C648 1.389 . S
C648 C647 1.389 . S
C648 C649 1.387 . S
C649 H634 0.930 . S
C649 C644 1.390 . S
C649 C648 1.387 . S
H650 C662 0.930 . S
H651 C664 0.930 . S
H652 C665 0.930 1_565 S
H653 C669 0.959 . S
H654 C669 0.959 . S
H655 C669 0.961 . S
H656 C670 0.960 . S
H657 C670 0.961 . S
H658 C670 0.959 . S
H659 C673 0.929 . S
H660 C674 0.931 . S
H661 C676 0.930 . S
C662 H650 0.930 . S
C662 C663 1.399 . S
C662 C667 1.399 . S
C663 C662 1.399 . S
C663 C664 1.376 . S
C664 H651 0.930 . S
C664 C663 1.376 . S
C664 C665 1.388 . S
C665 H652 0.930 1_545 S
C665 C664 1.388 . S
C665 C666 1.390 . S
C666 C665 1.390 . S
C666 C667 1.394 . S
C666 C672 1.465 1_545 S
C667 C662 1.399 . S
C667 C666 1.394 . S
C667 C668 1.516 . S
C668 C667 1.516 . S
C668 C669 1.502 . S
C668 C670 1.561 . S
C668 C671 1.526 1_545 S
C669 H653 0.959 . S
C669 H654 0.959 . S
C669 H655 0.961 . S
C669 C668 1.502 . S
C670 H656 0.960 . S
C670 H657 0.961 . S
C670 H658 0.959 . S
C670 C668 1.561 . S
C671 C668 1.526 1_565 S
C671 C672 1.396 . S
C671 C676 1.390 . S
C672 C666 1.465 1_565 S
C672 C671 1.396 . S
C672 C673 1.399 . S
C673 H659 0.929 . S
C673 C672 1.399 . S
C673 C674 1.385 . S
C674 H660 0.931 . S
C674 C673 1.385 . S
C674 C675 1.389 . S
C675 C674 1.389 . S
C675 C676 1.387 . S
C676 H661 0.930 . S
C676 C671 1.390 . S
C676 C675 1.387 . S
H677 C689 0.930 . S
H678 C691 0.930 . S
H679 C692 0.930 . S
H680 C696 0.959 . S
H681 C696 0.959 . S
H682 C696 0.961 . S
H683 C697 0.960 . S
H684 C697 0.961 . S
H685 C697 0.959 . S
H686 C700 0.929 . S
H687 C701 0.931 . S
H688 C703 0.930 . S
C689 H677 0.930 . S
C689 C690 1.399 . S
C689 C694 1.399 . S
C690 C689 1.399 . S
C690 C691 1.376 . S
C691 H678 0.930 . S
C691 C690 1.376 . S
C691 C692 1.388 . S
C692 H679 0.930 . S
C692 C691 1.388 . S
C692 C693 1.390 . S
C693 C692 1.390 . S
C693 C694 1.394 . S
C693 C699 1.465 1_655 S
C694 C689 1.399 . S
C694 C693 1.394 . S
C694 C695 1.516 1_655 S
C695 C694 1.516 1_455 S
C695 C696 1.502 . S
C695 C697 1.561 1_455 S
C695 C698 1.526 . S
C696 H680 0.959 . S
C696 H681 0.959 . S
C696 H682 0.961 . S
C696 C695 1.502 . S
C697 H683 0.960 . S
C697 H684 0.961 . S
C697 H685 0.959 . S
C697 C695 1.561 1_655 S
C698 C695 1.526 . S
C698 C699 1.396 . S
C698 C703 1.390 . S
C699 C693 1.465 1_455 S
C699 C698 1.396 . S
C699 C700 1.399 . S
C700 H686 0.929 . S
C700 C699 1.399 . S
C700 C701 1.385 . S
C701 H687 0.931 . S
C701 C700 1.385 . S
C701 C702 1.389 . S
C702 C701 1.389 . S
C702 C703 1.387 . S
C703 H688 0.930 . S
C703 C698 1.390 . S
C703 C702 1.387 . S
H704 C716 0.930 . S
H705 C718 0.930 . S
H706 C719 0.930 1_545 S
H707 C723 0.959 . S
H708 C723 0.959 . S
H709 C723 0.961 . S
H710 C724 0.960 . S
H711 C724 0.961 . S
H712 C724 0.959 . S
H713 C727 0.929 . S
H714 C728 0.931 . S
H715 C730 0.930 . S
C716 H704 0.930 . S
C716 C717 1.399 . S
C716 C721 1.399 . S
C717 C716 1.399 . S
C717 C718 1.376 . S
C718 H705 0.930 . S
C718 C717 1.376 . S
C718 C719 1.388 . S
C719 H706 0.930 1_565 S
C719 C718 1.388 . S
C719 C720 1.390 . S
C720 C719 1.390 . S
C720 C721 1.394 . S
C720 C726 1.465 1_565 S
C721 C716 1.399 . S
C721 C720 1.394 . S
C721 C722 1.516 . S
C722 C721 1.516 . S
C722 C723 1.502 . S
C722 C724 1.561 . S
C722 C725 1.526 1_565 S
C723 H707 0.959 . S
C723 H708 0.959 . S
C723 H709 0.961 . S
C723 C722 1.502 . S
C724 H710 0.960 . S
C724 H711 0.961 . S
C724 H712 0.959 . S
C724 C722 1.561 . S
C725 C722 1.526 1_545 S
C725 C726 1.396 . S
C725 C730 1.390 . S
C726 C720 1.465 1_545 S
C726 C725 1.396 . S
C726 C727 1.399 . S
C727 H713 0.929 . S
C727 C726 1.399 . S
C727 C728 1.385 . S
C728 H714 0.931 . S
C728 C727 1.385 . S
C728 C729 1.389 . S
C729 C728 1.389 . S
C729 C730 1.387 . S
C730 H715 0.930 . S
C730 C725 1.390 . S
C730 C729 1.387 . S
H731 C743 0.930 . S
H732 C745 0.930 . S
H733 C746 0.930 . S
H734 C750 0.959 . S
H735 C750 0.959 . S
H736 C750 0.961 . S
H737 C751 0.960 . S
H738 C751 0.961 . S
H739 C751 0.959 . S
H740 C754 0.929 . S
H741 C755 0.931 . S
H742 C757 0.930 . S
C743 H731 0.930 . S
C743 C744 1.399 . S
C743 C748 1.399 . S
C744 C743 1.399 . S
C744 C745 1.376 . S
C745 H732 0.930 . S
C745 C744 1.376 . S
C745 C746 1.388 . S
C746 H733 0.930 . S
C746 C745 1.388 . S
C746 C747 1.390 . S
C747 C746 1.390 . S
C747 C748 1.394 . S
C747 C753 1.465 1_455 S
C748 C743 1.399 . S
C748 C747 1.394 . S
C748 C749 1.516 1_455 S
C749 C748 1.516 1_655 S
C749 C750 1.502 . S
C749 C751 1.561 1_655 S
C749 C752 1.526 . S
C750 H734 0.959 . S
C750 H735 0.959 . S
C750 H736 0.961 . S
C750 C749 1.502 . S
C751 H737 0.960 . S
C751 H738 0.961 . S
C751 H739 0.959 . S
C751 C749 1.561 1_455 S
C752 C749 1.526 . S
C752 C753 1.396 . S
C752 C757 1.390 . S
C753 C747 1.465 1_655 S
C753 C752 1.396 . S
C753 C754 1.399 . S
C754 H740 0.929 . S
C754 C753 1.399 . S
C754 C755 1.385 . S
C755 H741 0.931 . S
C755 C754 1.385 . S
C755 C756 1.389 . S
C756 C755 1.389 . S
C756 C757 1.387 . S
C757 H742 0.930 . S
C757 C752 1.390 . S
C757 C756 1.387 . S
H758 C770 0.930 . S
H759 C772 0.930 . S
H760 C773 0.930 . S
H761 C777 0.959 . S
H762 C777 0.959 . S
H763 C777 0.961 . S
H764 C778 0.960 . S
H765 C778 0.961 . S
H766 C778 0.959 . S
H767 C781 0.929 1_545 S
H768 C782 0.931 . S
H769 C784 0.930 . S
C770 H758 0.930 . S
C770 C771 1.399 . S
C770 C775 1.399 . S
C771 C770 1.399 . S
C771 C772 1.376 . S
C772 H759 0.930 . S
C772 C771 1.376 . S
C772 C773 1.388 . S
C773 H760 0.930 . S
C773 C772 1.388 . S
C773 C774 1.390 . S
C774 C773 1.390 . S
C774 C775 1.394 . S
C774 C780 1.465 1_545 S
C775 C770 1.399 . S
C775 C774 1.394 . S
C775 C776 1.516 1_545 S
C776 C775 1.516 1_565 S
C776 C777 1.502 . S
C776 C778 1.561 . S
C776 C779 1.526 . S
C777 H761 0.959 . S
C777 H762 0.959 . S
C777 H763 0.961 . S
C777 C776 1.502 . S
C778 H764 0.960 . S
C778 H765 0.961 . S
C778 H766 0.959 . S
C778 C776 1.561 . S
C779 C776 1.526 . S
C779 C780 1.396 . S
C779 C784 1.390 . S
C780 C774 1.465 1_565 S
C780 C779 1.396 . S
C780 C781 1.399 . S
C781 H767 0.929 1_565 S
C781 C780 1.399 . S
C781 C782 1.385 . S
C782 H768 0.931 . S
C782 C781 1.385 . S
C782 C783 1.389 . S
C783 C782 1.389 . S
C783 C784 1.387 . S
C784 H769 0.930 . S
C784 C779 1.390 . S
C784 C783 1.387 . S
H785 C797 0.930 . S
H786 C799 0.930 . S
H787 C800 0.930 . S
H788 C804 0.959 . S
H789 C804 0.959 . S
H790 C804 0.961 . S
H791 C805 0.960 . S
H792 C805 0.961 . S
H793 C805 0.959 . S
H794 C808 0.929 . S
H795 C809 0.931 . S
H796 C811 0.930 . S
C797 H785 0.930 . S
C797 C798 1.399 . S
C797 C802 1.399 . S
C798 C797 1.399 . S
C798 C799 1.376 . S
C799 H786 0.930 . S
C799 C798 1.376 . S
C799 C800 1.388 . S
C800 H787 0.930 . S
C800 C799 1.388 . S
C800 C801 1.390 . S
C801 C800 1.390 . S
C801 C802 1.394 . S
C801 C807 1.465 1_455 S
C802 C797 1.399 . S
C802 C801 1.394 . S
C802 C803 1.516 1_455 S
C803 C802 1.516 1_655 S
C803 C804 1.502 1_655 S
C803 C805 1.561 . S
C803 C806 1.526 . S
C804 H788 0.959 . S
C804 H789 0.959 . S
C804 H790 0.961 . S
C804 C803 1.502 1_455 S
C805 H791 0.960 . S
C805 H792 0.961 . S
C805 H793 0.959 . S
C805 C803 1.561 . S
C806 C803 1.526 . S
C806 C807 1.396 . S
C806 C811 1.390 . S
C807 C801 1.465 1_655 S
C807 C806 1.396 . S
C807 C808 1.399 . S
C808 H794 0.929 . S
C808 C807 1.399 . S
C808 C809 1.385 . S
C809 H795 0.931 . S
C809 C808 1.385 . S
C809 C810 1.389 . S
C810 C809 1.389 . S
C810 C811 1.387 . S
C811 H796 0.930 . S
C811 C806 1.390 . S
C811 C810 1.387 . S
H812 C824 0.930 . S
H813 C826 0.930 . S
H814 C827 0.930 . S
H815 C831 0.959 . S
H816 C831 0.959 . S
H817 C831 0.961 . S
H818 C832 0.960 . S
H819 C832 0.961 . S
H820 C832 0.959 . S
H821 C835 0.929 . S
H822 C836 0.931 . S
H823 C838 0.930 . S
C824 H812 0.930 . S
C824 C825 1.399 . S
C824 C829 1.399 . S
C825 C824 1.399 . S
C825 C826 1.376 . S
C826 H813 0.930 . S
C826 C825 1.376 . S
C826 C827 1.388 . S
C827 H814 0.930 . S
C827 C826 1.388 . S
C827 C828 1.390 . S
C828 C827 1.390 . S
C828 C829 1.394 . S
C828 C834 1.465 . S
C829 C824 1.399 . S
C829 C828 1.394 . S
C829 C830 1.516 . S
C830 C829 1.516 . S
C830 C831 1.502 . S
C830 C832 1.561 . S
C830 C833 1.526 . S
C831 H815 0.959 . S
C831 H816 0.959 . S
C831 H817 0.961 . S
C831 C830 1.502 . S
C832 H818 0.960 . S
C832 H819 0.961 . S
C832 H820 0.959 . S
C832 C830 1.561 . S
C833 C830 1.526 . S
C833 C834 1.396 . S
C833 C838 1.390 . S
C834 C828 1.465 . S
C834 C833 1.396 . S
C834 C835 1.399 . S
C835 H821 0.929 . S
C835 C834 1.399 . S
C835 C836 1.385 . S
C836 H822 0.931 . S
C836 C835 1.385 . S
C836 C837 1.389 . S
C837 C836 1.389 . S
C837 C838 1.387 . S
C838 H823 0.930 . S
C838 C833 1.390 . S
C838 C837 1.387 . S
H839 C851 0.930 . S
H840 C853 0.930 . S
H841 C854 0.930 . S
H842 C858 0.959 . S
H843 C858 0.959 . S
H844 C858 0.961 . S
H845 C859 0.960 . S
H846 C859 0.961 . S
H847 C859 0.959 . S
H848 C862 0.929 . S
H849 C863 0.931 . S
H850 C865 0.930 . S
C851 H839 0.930 . S
C851 C852 1.399 . S
C851 C856 1.399 . S
C852 C851 1.399 . S
C852 C853 1.376 . S
C853 H840 0.930 . S
C853 C852 1.376 . S
C853 C854 1.388 . S
C854 H841 0.930 . S
C854 C853 1.388 . S
C854 C855 1.390 . S
C855 C854 1.390 . S
C855 C856 1.394 . S
C855 C861 1.465 . S
C856 C851 1.399 . S
C856 C855 1.394 . S
C856 C857 1.516 . S
C857 C856 1.516 . S
C857 C858 1.502 . S
C857 C859 1.561 . S
C857 C860 1.526 . S
C858 H842 0.959 . S
C858 H843 0.959 . S
C858 H844 0.961 . S
C858 C857 1.502 . S
C859 H845 0.960 . S
C859 H846 0.961 . S
C859 H847 0.959 . S
C859 C857 1.561 . S
C860 C857 1.526 . S
C860 C861 1.396 . S
C860 C865 1.390 . S
C861 C855 1.465 . S
C861 C860 1.396 . S
C861 C862 1.399 . S
C862 H848 0.929 . S
C862 C861 1.399 . S
C862 C863 1.385 . S
C863 H849 0.931 . S
C863 C862 1.385 . S
C863 C864 1.389 . S
C864 C863 1.389 . S
C864 C865 1.387 . S
C865 H850 0.930 . S
C865 C860 1.390 . S
C865 C864 1.387 . S
H866 C878 0.930 . S
H867 C880 0.930 . S
H868 C881 0.930 . S
H869 C885 0.959 . S
H870 C885 0.959 . S
H871 C885 0.961 . S
H872 C886 0.960 . S
H873 C886 0.961 . S
H874 C886 0.959 . S
H875 C889 0.929 . S
H876 C890 0.931 . S
H877 C892 0.930 . S
C878 H866 0.930 . S
C878 C879 1.399 . S
C878 C883 1.399 . S
C879 C878 1.399 . S
C879 C880 1.376 . S
C880 H867 0.930 . S
C880 C879 1.376 . S
C880 C881 1.388 . S
C881 H868 0.930 . S
C881 C880 1.388 . S
C881 C882 1.390 . S
C882 C881 1.390 . S
C882 C883 1.394 . S
C882 C888 1.465 . S
C883 C878 1.399 . S
C883 C882 1.394 . S
C883 C884 1.516 . S
C884 C883 1.516 . S
C884 C885 1.502 . S
C884 C886 1.561 . S
C884 C887 1.526 . S
C885 H869 0.959 . S
C885 H870 0.959 . S
C885 H871 0.961 . S
C885 C884 1.502 . S
C886 H872 0.960 . S
C886 H873 0.961 . S
C886 H874 0.959 . S
C886 C884 1.561 . S
C887 C884 1.526 . S
C887 C888 1.396 . S
C887 C892 1.390 . S
C888 C882 1.465 . S
C888 C887 1.396 . S
C888 C889 1.399 . S
C889 H875 0.929 . S
C889 C888 1.399 . S
C889 C890 1.385 . S
C890 H876 0.931 . S
C890 C889 1.385 . S
C890 C891 1.389 . S
C891 C890 1.389 . S
C891 C892 1.387 . S
C892 H877 0.930 . S
C892 C887 1.390 . S
C892 C891 1.387 . S
H893 C905 0.930 . S
H894 C907 0.930 . S
H895 C908 0.930 . S
H896 C912 0.959 . S
H897 C912 0.959 . S
H898 C912 0.961 . S
H899 C913 0.960 . S
H900 C913 0.961 . S
H901 C913 0.959 . S
H902 C916 0.929 . S
H903 C917 0.931 . S
H904 C919 0.930 . S
C905 H893 0.930 . S
C905 C906 1.399 . S
C905 C910 1.399 . S
C906 C905 1.399 . S
C906 C907 1.376 . S
C907 H894 0.930 . S
C907 C906 1.376 . S
C907 C908 1.388 . S
C908 H895 0.930 . S
C908 C907 1.388 . S
C908 C909 1.390 . S
C909 C908 1.390 . S
C909 C910 1.394 . S
C909 C915 1.465 . S
C910 C905 1.399 . S
C910 C909 1.394 . S
C910 C911 1.516 . S
C911 C910 1.516 . S
C911 C912 1.502 . S
C911 C913 1.561 . S
C911 C914 1.526 . S
C912 H896 0.959 . S
C912 H897 0.959 . S
C912 H898 0.961 . S
C912 C911 1.502 . S
C913 H899 0.960 . S
C913 H900 0.961 . S
C913 H901 0.959 . S
C913 C911 1.561 . S
C914 C911 1.526 . S
C914 C915 1.396 . S
C914 C919 1.390 . S
C915 C909 1.465 . S
C915 C914 1.396 . S
C915 C916 1.399 . S
C916 H902 0.929 . S
C916 C915 1.399 . S
C916 C917 1.385 . S
C917 H903 0.931 . S
C917 C916 1.385 . S
C917 C918 1.389 . S
C918 C917 1.389 . S
C918 C919 1.387 . S
C919 H904 0.930 . S
C919 C914 1.390 . S
C919 C918 1.387 . S
H920 C932 0.930 . S
H921 C934 0.930 . S
H922 C935 0.930 . S
H923 C939 0.959 . S
H924 C939 0.959 . S
H925 C939 0.961 . S
H926 C940 0.960 . S
H927 C940 0.961 . S
H928 C940 0.959 . S
H929 C943 0.929 . S
H930 C944 0.931 . S
H931 C946 0.930 . S
C932 H920 0.930 . S
C932 C933 1.399 . S
C932 C937 1.399 . S
C933 C932 1.399 . S
C933 C934 1.376 . S
C934 H921 0.930 . S
C934 C933 1.376 . S
C934 C935 1.388 . S
C935 H922 0.930 . S
C935 C934 1.388 . S
C935 C936 1.390 . S
C936 C935 1.390 . S
C936 C937 1.394 . S
C936 C942 1.465 . S
C937 C932 1.399 . S
C937 C936 1.394 . S
C937 C938 1.516 . S
C938 C937 1.516 . S
C938 C939 1.502 . S
C938 C940 1.561 . S
C938 C941 1.526 . S
C939 H923 0.959 . S
C939 H924 0.959 . S
C939 H925 0.961 . S
C939 C938 1.502 . S
C940 H926 0.960 . S
C940 H927 0.961 . S
C940 H928 0.959 . S
C940 C938 1.561 . S
C941 C938 1.526 . S
C941 C942 1.396 . S
C941 C946 1.390 . S
C942 C936 1.465 . S
C942 C941 1.396 . S
C942 C943 1.399 . S
C943 H929 0.929 . S
C943 C942 1.399 . S
C943 C944 1.385 . S
C944 H930 0.931 . S
C944 C943 1.385 . S
C944 C945 1.389 . S
C945 C944 1.389 . S
C945 C946 1.387 . S
C946 H931 0.930 . S
C946 C941 1.390 . S
C946 C945 1.387 . S
H947 C959 0.930 . S
H948 C961 0.930 . S
H949 C962 0.930 . S
H950 C966 0.959 . S
H951 C966 0.959 . S
H952 C966 0.961 . S
H953 C967 0.960 . S
H954 C967 0.961 . S
H955 C967 0.959 . S
H956 C970 0.929 . S
H957 C971 0.931 . S
H958 C973 0.930 . S
C959 H947 0.930 . S
C959 C960 1.399 . S
C959 C964 1.399 . S
C960 C959 1.399 . S
C960 C961 1.376 . S
C961 H948 0.930 . S
C961 C960 1.376 . S
C961 C962 1.388 . S
C962 H949 0.930 . S
C962 C961 1.388 . S
C962 C963 1.390 . S
C963 C962 1.390 . S
C963 C964 1.394 . S
C963 C969 1.465 . S
C964 C959 1.399 . S
C964 C963 1.394 . S
C964 C965 1.516 . S
C965 C964 1.516 . S
C965 C966 1.502 . S
C965 C967 1.561 . S
C965 C968 1.526 . S
C966 H950 0.959 . S
C966 H951 0.959 . S
C966 H952 0.961 . S
C966 C965 1.502 . S
C967 H953 0.960 . S
C967 H954 0.961 . S
C967 H955 0.959 . S
C967 C965 1.561 . S
C968 C965 1.526 . S
C968 C969 1.396 . S
C968 C973 1.390 . S
C969 C963 1.465 . S
C969 C968 1.396 . S
C969 C970 1.399 . S
C970 H956 0.929 . S
C970 C969 1.399 . S
C970 C971 1.385 . S
C971 H957 0.931 . S
C971 C970 1.385 . S
C971 C972 1.389 . S
C972 C971 1.389 . S
C972 C973 1.387 . S
C973 H958 0.930 . S
C973 C968 1.390 . S
C973 C972 1.387 . S
H974 C986 0.930 . S
H975 C988 0.930 . S
H976 C989 0.930 . S
H977 C993 0.959 . S
H978 C993 0.959 . S
H979 C993 0.961 . S
H980 C994 0.960 . S
H981 C994 0.961 . S
H982 C994 0.959 . S
H983 C997 0.929 . S
H984 C998 0.931 . S
H985 C1000 0.930 . S
C986 H974 0.930 . S
C986 C987 1.399 . S
C986 C991 1.399 . S
C987 C986 1.399 . S
C987 C988 1.376 . S
C988 H975 0.930 . S
C988 C987 1.376 . S
C988 C989 1.388 . S
C989 H976 0.930 . S
C989 C988 1.388 . S
C989 C990 1.390 . S
C990 C989 1.390 . S
C990 C991 1.394 . S
C990 C996 1.465 . S
C991 C986 1.399 . S
C991 C990 1.394 . S
C991 C992 1.516 . S
C992 C991 1.516 . S
C992 C993 1.502 . S
C992 C994 1.561 . S
C992 C995 1.526 . S
C993 H977 0.959 . S
C993 H978 0.959 . S
C993 H979 0.961 . S
C993 C992 1.502 . S
C994 H980 0.960 . S
C994 H981 0.961 . S
C994 H982 0.959 . S
C994 C992 1.561 . S
C995 C992 1.526 . S
C995 C996 1.396 . S
C995 C1000 1.390 . S
C996 C990 1.465 . S
C996 C995 1.396 . S
C996 C997 1.399 . S
C997 H983 0.929 . S
C997 C996 1.399 . S
C997 C998 1.385 . S
C998 H984 0.931 . S
C998 C997 1.385 . S
C998 C999 1.389 . S
C999 C998 1.389 . S
C999 C1000 1.387 . S
C1000 H985 0.930 . S
C1000 C995 1.390 . S
C1000 C999 1.387 . S
H1001 C1013 0.930 . S
H1002 C1015 0.930 . S
H1003 C1016 0.930 . S
H1004 C1020 0.959 . S
H1005 C1020 0.959 . S
H1006 C1020 0.961 . S
H1007 C1021 0.960 . S
H1008 C1021 0.961 . S
H1009 C1021 0.959 . S
H1010 C1024 0.929 . S
H1011 C1025 0.931 . S
H1012 C1027 0.930 . S
C1013 H1001 0.930 . S
C1013 C1014 1.399 . S
C1013 C1018 1.399 . S
C1014 C1013 1.399 . S
C1014 C1015 1.376 . S
C1015 H1002 0.930 . S
C1015 C1014 1.376 . S
C1015 C1016 1.388 . S
C1016 H1003 0.930 . S
C1016 C1015 1.388 . S
C1016 C1017 1.390 . S
C1017 C1016 1.390 . S
C1017 C1018 1.394 . S
C1017 C1023 1.465 . S
C1018 C1013 1.399 . S
C1018 C1017 1.394 . S
C1018 C1019 1.516 . S
C1019 C1018 1.516 . S
C1019 C1020 1.502 . S
C1019 C1021 1.561 . S
C1019 C1022 1.526 . S
C1020 H1004 0.959 . S
C1020 H1005 0.959 . S
C1020 H1006 0.961 . S
C1020 C1019 1.502 . S
C1021 H1007 0.960 . S
C1021 H1008 0.961 . S
C1021 H1009 0.959 . S
C1021 C1019 1.561 . S
C1022 C1019 1.526 . S
C1022 C1023 1.396 . S
C1022 C1027 1.390 . S
C1023 C1017 1.465 . S
C1023 C1022 1.396 . S
C1023 C1024 1.399 . S
C1024 H1010 0.929 . S
C1024 C1023 1.399 . S
C1024 C1025 1.385 . S
C1025 H1011 0.931 . S
C1025 C1024 1.385 . S
C1025 C1026 1.389 . S
C1026 C1025 1.389 . S
C1026 C1027 1.387 . S
C1027 H1012 0.930 . S
C1027 C1022 1.390 . S
C1027 C1026 1.387 . S
C285 C17 1.147 . S
C297 C85 1.148 . S
C312 C119 1.147 1_556 S
C324 C51 1.148 1_556 S
C339 C153 1.147 . S
C351 C221 1.148 . S
C366 C255 1.147 . S
C378 C187 1.148 . S
C393 C142 1.073 . S
C405 C6 1.035 . S
C420 C198 1.005 . S
C432 C62 1.018 . S
C447 C232 1.018 . S
C459 C74 1.005 . S
C474 C266 1.006 . S
C486 C108 1.028 . S
C501 C226 0.642 . S
C513 C83 0.397 . S
C528 C260 0.450 . S
C540 C117 0.604 . S
C555 C15 0.643 . S
C567 C151 0.396 . S
C582 C192 0.640 . S
C594 C56 0.397 . S
C609 C244 1.054 . S
C621 C40 1.087 . S
C636 C164 1.092 . S
C648 C96 1.073 . S
C663 C176 1.077 . S
C675 C130 1.094 . S
C690 C210 1.092 . S
C702 C28 1.076 . S
C717 C124 0.413 . S
C729 C185 0.623 . S
C744 C22 0.585 . S
C756 C219 0.468 . S
C771 C49 0.637 . S
C783 C253 0.404 . S
C798 C158 0.490 . S
C810 C90 0.571 . S
C825 C173 2.899 . S
C837 C1 2.907 . S
C852 C37 2.907 . S
C864 C207 2.896 . S
C879 C241 2.905 . S
C891 C69 2.909 . S
C906 C103 2.902 . S
C918 C137 2.909 . S
C933 C239 2.911 . S
C945 C71 2.909 . S
C960 C139 2.901 . S
C972 C105 2.914 . S
C987 C3 2.899 . S
C999 C171 2.913 . S
C1014 C205 2.901 . S
C1026 C35 2.914 . S
