# Generated by pormake.
# Topology umz, (4)-cn, num edge types: 1
# Building blocks:
#     Node 0, Type 0, BuildingBlock: CEKHIL_clean_sbu_0, # of connection points: 4
#     Node 1, Type 0, BuildingBlock: CEKHIL_clean_sbu_0, # of connection points: 4
#     Node 2, Type 0, BuildingBlock: CEKHIL_clean_sbu_0, # of connection points: 4
#     Node 3, Type 0, BuildingBlock: CEKHIL_clean_sbu_0, # of connection points: 4
#     Node 4, Type 0, BuildingBlock: CEKHIL_clean_sbu_0, # of connection points: 4
#     Node 5, Type 0, BuildingBlock: CEKHIL_clean_sbu_0, # of connection points: 4
#     Node 6, Type 0, BuildingBlock: CEKHIL_clean_sbu_0, # of connection points: 4
#     Node 7, Type 0, BuildingBlock: CEKHIL_clean_sbu_0, # of connection points: 4
#     Node 8, Type 0, BuildingBlock: CEKHIL_clean_sbu_0, # of connection points: 4
#     Node 9, Type 0, BuildingBlock: CEKHIL_clean_sbu_0, # of connection points: 4
#     Node 10, Type 0, BuildingBlock: CEKHIL_clean_sbu_0, # of connection points: 4
#     Node 11, Type 0, BuildingBlock: CEKHIL_clean_sbu_0, # of connection points: 4
#     Node 12, Type 0, BuildingBlock: CEKHIL_clean_sbu_0, # of connection points: 4
#     Node 13, Type 0, BuildingBlock: CEKHIL_clean_sbu_0, # of connection points: 4
#     Node 14, Type 0, BuildingBlock: CEKHIL_clean_sbu_0, # of connection points: 4
#     Node 15, Type 0, BuildingBlock: CEKHIL_clean_sbu_0, # of connection points: 4
#     Edge 16, Type (0, 0), None
#     Edge 17, Type (0, 0), None
#     Edge 18, Type (0, 0), None
#     Edge 19, Type (0, 0), None
#     Edge 20, Type (0, 0), None
#     Edge 21, Type (0, 0), None
#     Edge 22, Type (0, 0), None
#     Edge 23, Type (0, 0), None
#     Edge 24, Type (0, 0), None
#     Edge 25, Type (0, 0), None
#     Edge 26, Type (0, 0), None
#     Edge 27, Type (0, 0), None
#     Edge 28, Type (0, 0), None
#     Edge 29, Type (0, 0), None
#     Edge 30, Type (0, 0), None
#     Edge 31, Type (0, 0), None
#     Edge 32, Type (0, 0), None
#     Edge 33, Type (0, 0), None
#     Edge 34, Type (0, 0), None
#     Edge 35, Type (0, 0), None
#     Edge 36, Type (0, 0), None
#     Edge 37, Type (0, 0), None
#     Edge 38, Type (0, 0), None
#     Edge 39, Type (0, 0), None
#     Edge 40, Type (0, 0), None
#     Edge 41, Type (0, 0), None
#     Edge 42, Type (0, 0), None
#     Edge 43, Type (0, 0), None
#     Edge 44, Type (0, 0), None
#     Edge 45, Type (0, 0), None
#     Edge 46, Type (0, 0), None
#     Edge 47, Type (0, 0), None
# Relax obj value: 0.252
# Max RMSD: 0.171
# Mean RMSD: 0.170
data_MOF--net-umz--node1-CEKHIL_clean_sbu_0--edge1-none
_symmetry_space_group_name_H-M    P1
_symmetry_Int_Tables_number       1
_symmetry_cell_setting            triclinic
loop_
_symmetry_equiv_pos_as_xyz
'x, y, z'
_cell_length_a     24.499432
_cell_length_b     24.499357
_cell_length_c     11.107506
_cell_angle_alpha  89.997766
_cell_angle_beta   90.00171
_cell_angle_gamma 90.007101
loop_
_atom_site_label
_atom_site_type_symbol
_atom_site_fract_x
_atom_site_fract_y
_atom_site_fract_z
_atom_type_partial_charge
Co0 Co 0.04153 0.67778 0.08171 0.0
O1 O 1.00332 0.71582 -0.04656 0.0
O2 O 0.06414 0.75314 0.07607 0.0
C3 C 0.96977 0.63275 0.16257 0.0
O4 O 0.08579 0.65472 0.23024 0.0
Co5 Co 0.05427 0.55308 0.09787 0.0
O6 O 0.1112 0.56742 0.21805 0.0
C7 C 0.10588 0.61209 0.90133 0.0
C8 C 1.03099 0.75868 -0.01416 0.0
C9 C 0.11134 0.61293 0.27218 0.0
O10 O 0.09971 0.65728 -0.04095 0.0
O11 O 0.08713 0.56677 0.93904 0.0
O12 O 0.97824 0.68381 0.18871 0.0
O13 O 1.00122 0.61224 0.08104 0.0
Co14 Co 0.88994 0.0415 0.58175 0.0
O15 O 0.85193 1.00329 0.45343 0.0
O16 O 0.81458 0.06412 0.57596 0.0
C17 C 0.93491 0.96975 0.66276 0.0
O18 O 0.91295 0.08576 0.7303 0.0
Co19 Co 1.01461 0.05428 0.59831 0.0
O20 O 1.00014 0.11144 0.71789 0.0
C21 C 0.95574 0.10579 0.40147 0.0
C22 C 0.80907 1.03097 0.48575 0.0
C23 C 0.95467 0.11145 0.77215 0.0
O24 O 0.91052 0.09967 0.45909 0.0
O25 O 1.00103 0.08705 0.43934 0.0
O26 O 0.88384 0.97823 0.68878 0.0
O27 O 0.95547 1.0012 0.58127 0.0
Co28 Co 0.52617 0.88985 0.08178 0.0
O29 O 0.5644 0.85183 -0.0465 0.0
O30 O 0.50352 0.81449 0.07596 0.0
C31 C 0.59793 0.93481 0.16284 0.0
O32 O 0.48189 0.91285 0.2303 0.0
Co33 Co 0.51342 1.01451 0.09842 0.0
O34 O 0.45614 1.00001 0.21775 0.0
C35 C 0.46194 0.95569 0.90147 0.0
C36 C 0.5367 0.80897 -0.01421 0.0
C37 C 0.45616 0.95456 0.27208 0.0
O38 O 0.46804 0.91045 -0.04095 0.0
O39 O 0.48067 1.00097 0.93941 0.0
O40 O 0.58942 0.88374 0.18886 0.0
O41 O 0.5665 0.95538 0.08134 0.0
Co42 Co 0.67787 0.52617 0.58177 0.0
O43 O 0.71594 0.56437 0.45353 0.0
O44 O 0.75322 0.50352 0.57612 0.0
C45 C 0.63288 0.59795 0.66266 0.0
O46 O 0.65479 0.48191 0.73029 0.0
Co47 Co 0.55317 0.51346 0.59805 0.0
O48 O 0.56753 0.45641 0.71795 0.0
C49 C 0.6121 0.46188 0.40138 0.0
C50 C 0.75878 0.53667 0.48592 0.0
C51 C 0.61301 0.4563 0.77216 0.0
O52 O 0.65731 0.46801 0.45906 0.0
O53 O 0.5668 0.48063 0.43917 0.0
O54 O 0.68394 0.58944 0.6888 0.0
O55 O 0.61236 0.56651 0.58113 0.0
Co56 Co 0.04162 0.88991 0.81835 0.0
O57 O 1.00337 0.85199 0.94677 0.0
O58 O 0.06424 0.81456 0.82443 0.0
C59 C 0.96992 0.93483 0.73707 0.0
O60 O 0.08591 0.9128 0.66977 0.0
Co61 Co 0.05449 1.01453 0.8012 0.0
O62 O 0.11201 0.99984 0.68254 0.0
C63 C 0.10582 0.95584 -0.0015 0.0
C64 C 1.03106 0.80911 0.91462 0.0
C65 C 0.11182 0.95442 0.62808 0.0
O66 O 0.09976 0.91058 0.94101 0.0
O67 O 0.0871 1.0011 -0.03962 0.0
O68 O 0.97837 0.88373 0.71129 0.0
O69 O 1.00133 0.95546 0.81853 0.0
Co70 Co 0.67781 0.04153 0.31836 0.0
O71 O 0.71576 1.00329 0.44672 0.0
O72 O 0.75316 0.06417 0.32435 0.0
C73 C 0.63287 0.96981 0.23713 0.0
O74 O 0.65487 0.08583 0.1698 0.0
Co75 Co 0.55318 0.05435 0.3014 0.0
O76 O 0.5678 0.1118 0.18252 0.0
C77 C 0.61191 0.10573 0.49858 0.0
C78 C 0.75863 1.03099 0.41453 0.0
C79 C 0.61322 0.11168 0.1281 0.0
O80 O 0.65717 0.09966 0.44106 0.0
O81 O 0.56665 0.08701 0.46052 0.0
O82 O 0.68396 0.97829 0.21128 0.0
O83 O 0.61227 1.00122 0.31862 0.0
Co84 Co 0.52613 0.67773 0.8183 0.0
O85 O 0.56438 0.71567 0.94668 0.0
O86 O 0.50346 0.75306 0.82441 0.0
C87 C 0.59785 0.63285 0.73695 0.0
O88 O 0.48182 0.65482 0.66974 0.0
Co89 Co 0.5133 0.55312 0.80099 0.0
O90 O 0.45561 0.56784 0.68272 0.0
C91 C 0.46201 0.61171 -0.00154 0.0
C92 C 0.53666 0.75854 0.91456 0.0
C93 C 0.45585 0.61323 0.62815 0.0
O94 O 0.46803 0.657 0.94104 0.0
O95 O 0.48073 0.56648 -0.03977 0.0
O96 O 0.58935 0.68394 0.71117 0.0
O97 O 0.56645 0.6122 0.81841 0.0
Co98 Co 0.88998 0.526 0.31833 0.0
O99 O 0.8521 0.56428 0.44674 0.0
O100 O 0.81464 0.50336 0.32455 0.0
C101 C 0.93488 0.5977 0.23687 0.0
O102 O 0.91283 0.48169 0.16975 0.0
Co103 Co 1.01458 0.51313 0.30084 0.0
O104 O 0.99976 0.45536 0.18278 0.0
C105 C 0.95602 0.46189 0.49844 0.0
C106 C 0.80921 0.53657 0.41468 0.0
C107 C 0.95439 0.45566 0.12818 0.0
O108 O 0.91072 0.46791 0.44105 0.0
O109 O 1.00125 0.4806 0.46014 0.0
O110 O 0.88377 0.58922 0.21119 0.0
O111 O 0.95554 0.5663 0.31832 0.0
Co112 Co 1.02627 0.38982 0.81836 0.0
O113 O 0.06446 0.35181 0.94668 0.0
O114 O 1.00365 0.31447 0.82405 0.0
C115 C 0.09806 0.43483 0.73755 0.0
O116 O 0.98203 0.41284 0.66978 0.0
Co117 Co 1.01347 0.51449 0.8015 0.0
O118 O 0.95595 0.4999 0.68277 0.0
C119 C 0.96181 0.45567 -0.00172 0.0
C120 C 0.0368 0.30894 0.91427 0.0
C121 C 0.95608 0.45448 0.62834 0.0
O122 O 0.96809 0.41039 0.94099 0.0
O123 O 0.98049 0.50097 -0.03973 0.0
O124 O 0.08958 0.38377 0.71144 0.0
O125 O 0.06656 0.45538 0.81892 0.0
Co126 Co 0.17786 1.02614 0.31832 0.0
O127 O 0.21584 0.06434 0.44669 0.0
O128 O 0.2532 1.00351 0.32418 0.0
C129 C 0.13291 0.09793 0.23737 0.0
O130 O 0.15489 0.9819 0.16973 0.0
Co131 Co 0.05321 1.01331 0.30107 0.0
O132 O 0.06793 0.95556 0.18294 0.0
C133 C 0.11189 0.96175 0.49815 0.0
C134 C 0.25871 0.03667 0.41437 0.0
C135 C 0.11331 0.95582 0.12838 0.0
O136 O 0.15721 0.96798 0.44096 0.0
O137 O 0.06662 0.98043 0.45998 0.0
O138 O 0.18398 0.08944 0.21138 0.0
O139 O 0.11231 0.06643 0.3187 0.0
Co140 Co 0.54158 0.17779 0.8183 0.0
O141 O 0.50337 0.21579 0.94663 0.0
O142 O 0.56424 0.25313 0.82418 0.0
C143 C 0.46979 0.13285 0.73729 0.0
O144 O 0.58584 0.15483 0.66973 0.0
Co145 Co 0.55438 0.05316 0.80097 0.0
O146 O 0.61223 0.0679 0.68308 0.0
C147 C 0.60592 0.11179 -0.00184 0.0
C148 C 0.53106 0.25865 0.91433 0.0
C149 C 0.61196 0.11326 0.62845 0.0
O150 O 0.5997 0.15712 0.94101 0.0
O151 O 0.58724 0.06653 -0.04008 0.0
O152 O 0.47831 0.18392 0.7113 0.0
O153 O 0.50127 0.11224 0.81864 0.0
Co154 Co 0.38989 0.54143 0.3183 0.0
O155 O 0.35183 0.50324 0.44659 0.0
O156 O 0.31455 0.56409 0.324 0.0
C157 C 0.43485 0.46962 0.23747 0.0
O158 O 0.41293 0.58567 0.16974 0.0
Co159 Co 0.51455 0.55419 0.30135 0.0
O160 O 0.49996 0.61182 0.18286 0.0
C161 C 0.45581 0.60583 0.49824 0.0
C162 C 0.30899 0.53093 0.41419 0.0
C163 C 0.45456 0.61167 0.12836 0.0
O164 O 0.4105 0.59958 0.44099 0.0
O165 O 0.50108 0.58714 0.46016 0.0
O166 O 0.38379 0.47813 0.21134 0.0
O167 O 0.45542 0.50111 0.31884 0.0
Co168 Co 1.02617 0.17773 0.0818 0.0
O169 O 0.06441 0.21562 -0.04667 0.0
O170 O 1.00355 0.25307 0.07566 0.0
C171 C 0.09791 0.13284 0.16304 0.0
O172 O 0.98191 0.15489 0.23043 0.0
Co173 Co 1.01326 0.05314 0.09966 0.0
O174 O 0.95516 0.06808 0.21686 0.0
C175 C 0.96187 0.11163 0.90211 0.0
C176 C 0.03673 0.25851 -0.01452 0.0
C177 C 0.95561 0.11341 0.27162 0.0
O178 O 0.96805 0.15699 -0.04084 0.0
O179 O 0.98054 0.0664 0.94053 0.0
O180 O 0.08944 0.18394 0.18879 0.0
O181 O 0.06645 0.11216 0.08174 0.0
Co182 Co 0.38995 1.02611 0.5818 0.0
O183 O 0.35202 0.06434 0.45339 0.0
O184 O 0.31461 1.00346 0.57576 0.0
C185 C 0.43486 0.09786 0.66297 0.0
O186 O 0.41284 0.98183 0.7304 0.0
Co187 Co 0.51455 1.01325 0.59945 0.0
O188 O 0.49968 0.95522 0.71689 0.0
C189 C 0.45601 0.96181 0.40203 0.0
C190 C 0.30914 0.03664 0.48559 0.0
C191 C 0.45434 0.9556 0.77161 0.0
O192 O 0.41065 0.96799 0.45911 0.0
O193 O 0.50124 0.98047 0.44039 0.0
O194 O 0.38377 0.08937 0.68881 0.0
O195 O 0.45551 0.06641 0.58164 0.0
Co196 Co 0.54163 0.38988 0.08185 0.0
O197 O 0.50338 0.35195 -0.04657 0.0
O198 O 0.5643 0.31455 0.07569 0.0
C199 C 0.46987 0.43473 0.16316 0.0
O200 O 0.58591 0.41274 0.23045 0.0
Co201 Co 0.55449 0.51446 0.09983 0.0
O202 O 0.61274 0.4995 0.21669 0.0
C203 C 0.60584 0.45606 0.90213 0.0
C204 C 0.5311 0.30908 -0.01444 0.0
C205 C 0.61226 0.4542 0.27155 0.0
O206 O 0.5997 0.41067 -0.04088 0.0
O207 O 0.58718 0.50126 0.94065 0.0
O208 O 0.47838 0.38363 0.18891 0.0
O209 O 0.50131 0.45542 0.08184 0.0
Co210 Co 0.1778 0.5416 0.58181 0.0
O211 O 0.21566 0.50333 0.45335 0.0
O212 O 0.25314 0.56425 0.57554 0.0
C213 C 0.13294 0.46987 0.66323 0.0
O214 O 0.15501 0.58589 0.73043 0.0
Co215 Co 0.05324 0.55452 0.6 0.0
O216 O 0.0683 0.61285 0.7166 0.0
C217 C 0.1116 0.60581 0.40216 0.0
C218 C 0.25856 0.53104 0.48541 0.0
C219 C 0.11359 0.6123 0.77151 0.0
O220 O 0.157 0.59968 0.45911 0.0
O221 O 0.0664 0.58716 0.44075 0.0
O222 O 0.18405 0.47836 0.68888 0.0
O223 O 0.11223 0.50131 0.58193 0.0
loop_
_geom_bond_atom_site_label_1
_geom_bond_atom_site_label_2
_geom_bond_distance
_geom_bond_site_symmetry_2
_ccdc_geom_bond_type
Co0 O1 2.216 1_454 S
Co0 O2 2.091 . S
Co0 O4 2.004 . S
Co0 O10 2.021 . S
Co0 O12 2.137 1_455 S
Co0 O13 2.244 1_455 S
O1 Co0 2.216 1_656 S
O1 C8 1.247 1_556 S
O2 Co0 2.091 . S
O2 C8 1.261 1_455 S
C3 O12 1.247 . S
C3 O13 1.272 . S
O4 Co0 2.004 . S
O4 C9 1.259 . S
Co5 O6 2.061 . S
Co5 O11 2.052 1_554 S
Co5 O13 2.135 1_455 S
O6 Co5 2.061 . S
O6 C9 1.235 . S
C7 O10 1.238 1_556 S
C7 O11 1.241 . S
C8 O1 1.247 1_554 S
C8 O2 1.261 1_655 S
C9 O4 1.259 . S
C9 O6 1.235 . S
O10 Co0 2.021 . S
O10 C7 1.238 1_554 S
O11 Co5 2.052 1_556 S
O11 C7 1.241 . S
O12 Co0 2.137 1_655 S
O12 C3 1.247 . S
O13 Co0 2.244 1_655 S
O13 C3 1.272 . S
O13 Co5 2.135 1_655 S
Co14 O15 2.216 1_545 S
Co14 O16 2.091 . S
Co14 O18 2.004 . S
Co14 O24 2.021 . S
Co14 O26 2.137 1_545 S
Co14 O27 2.244 1_545 S
O15 Co14 2.216 1_565 S
O15 C22 1.247 . S
O16 Co14 2.091 . S
O16 C22 1.261 1_545 S
C17 O26 1.247 . S
C17 O27 1.272 . S
O18 Co14 2.004 . S
O18 C23 1.259 . S
Co19 O20 2.061 . S
Co19 O25 2.052 . S
Co19 O27 2.135 1_545 S
O20 Co19 2.061 . S
O20 C23 1.235 . S
C21 O24 1.238 . S
C21 O25 1.241 . S
C22 O15 1.247 . S
C22 O16 1.261 1_565 S
C23 O18 1.259 . S
C23 O20 1.235 . S
O24 Co14 2.021 . S
O24 C21 1.238 . S
O25 Co19 2.052 . S
O25 C21 1.241 . S
O26 Co14 2.137 1_565 S
O26 C17 1.247 . S
O27 Co14 2.244 1_565 S
O27 C17 1.272 . S
O27 Co19 2.135 1_565 S
Co28 O29 2.216 1_554 S
Co28 O30 2.091 . S
Co28 O32 2.004 . S
Co28 O38 2.021 . S
Co28 O40 2.137 . S
Co28 O41 2.244 . S
O29 Co28 2.216 1_556 S
O29 C36 1.247 1_556 S
O30 Co28 2.091 . S
O30 C36 1.261 . S
C31 O40 1.247 . S
C31 O41 1.272 . S
O32 Co28 2.004 . S
O32 C37 1.259 . S
Co33 O34 2.061 . S
Co33 O39 2.052 1_554 S
Co33 O41 2.135 . S
O34 Co33 2.061 . S
O34 C37 1.235 . S
C35 O38 1.238 1_556 S
C35 O39 1.241 . S
C36 O29 1.247 1_554 S
C36 O30 1.261 . S
C37 O32 1.259 . S
C37 O34 1.235 . S
O38 Co28 2.021 . S
O38 C35 1.238 1_554 S
O39 Co33 2.052 1_556 S
O39 C35 1.241 . S
O40 Co28 2.137 . S
O40 C31 1.247 . S
O41 Co28 2.244 . S
O41 C31 1.272 . S
O41 Co33 2.135 . S
Co42 O43 2.216 . S
Co42 O44 2.091 . S
Co42 O46 2.004 . S
Co42 O52 2.021 . S
Co42 O54 2.137 . S
Co42 O55 2.244 . S
O43 Co42 2.216 . S
O43 C50 1.247 . S
O44 Co42 2.091 . S
O44 C50 1.261 . S
C45 O54 1.247 . S
C45 O55 1.272 . S
O46 Co42 2.004 . S
O46 C51 1.259 . S
Co47 O48 2.061 . S
Co47 O53 2.052 . S
Co47 O55 2.135 . S
O48 Co47 2.061 . S
O48 C51 1.235 . S
C49 O52 1.238 . S
C49 O53 1.241 . S
C50 O43 1.247 . S
C50 O44 1.261 . S
C51 O46 1.259 . S
C51 O48 1.235 . S
O52 Co42 2.021 . S
O52 C49 1.238 . S
O53 Co47 2.052 . S
O53 C49 1.241 . S
O54 Co42 2.137 . S
O54 C45 1.247 . S
O55 Co42 2.244 . S
O55 C45 1.272 . S
O55 Co47 2.135 . S
Co56 O57 2.216 1_456 S
Co56 O58 2.091 . S
Co56 O60 2.004 . S
Co56 O66 2.021 . S
Co56 O68 2.137 1_455 S
Co56 O69 2.244 1_455 S
O57 Co56 2.216 1_654 S
O57 C64 1.247 1_554 S
O58 Co56 2.091 . S
O58 C64 1.261 1_455 S
C59 O68 1.247 . S
C59 O69 1.272 . S
O60 Co56 2.004 . S
O60 C65 1.259 . S
Co61 O62 2.061 . S
Co61 O67 2.052 1_556 S
Co61 O69 2.135 1_455 S
O62 Co61 2.061 . S
O62 C65 1.235 . S
C63 O66 1.238 1_554 S
C63 O67 1.241 . S
C64 O57 1.247 1_556 S
C64 O58 1.261 1_655 S
C65 O60 1.259 . S
C65 O62 1.235 . S
O66 Co56 2.021 . S
O66 C63 1.238 1_556 S
O67 Co61 2.052 1_554 S
O67 C63 1.241 . S
O68 Co56 2.137 1_655 S
O68 C59 1.247 . S
O69 Co56 2.244 1_655 S
O69 C59 1.272 . S
O69 Co61 2.135 1_655 S
Co70 O71 2.216 1_545 S
Co70 O72 2.091 . S
Co70 O74 2.004 . S
Co70 O80 2.021 . S
Co70 O82 2.137 1_545 S
Co70 O83 2.244 1_545 S
O71 Co70 2.216 1_565 S
O71 C78 1.247 . S
O72 Co70 2.091 . S
O72 C78 1.261 1_545 S
C73 O82 1.247 . S
C73 O83 1.272 . S
O74 Co70 2.004 . S
O74 C79 1.259 . S
Co75 O76 2.061 . S
Co75 O81 2.052 . S
Co75 O83 2.135 1_545 S
O76 Co75 2.061 . S
O76 C79 1.235 . S
C77 O80 1.238 . S
C77 O81 1.241 . S
C78 O71 1.247 . S
C78 O72 1.261 1_565 S
C79 O74 1.259 . S
C79 O76 1.235 . S
O80 Co70 2.021 . S
O80 C77 1.238 . S
O81 Co75 2.052 . S
O81 C77 1.241 . S
O82 Co70 2.137 1_565 S
O82 C73 1.247 . S
O83 Co70 2.244 1_565 S
O83 C73 1.272 . S
O83 Co75 2.135 1_565 S
Co84 O85 2.216 1_556 S
Co84 O86 2.091 . S
Co84 O88 2.004 . S
Co84 O94 2.021 . S
Co84 O96 2.137 . S
Co84 O97 2.244 . S
O85 Co84 2.216 1_554 S
O85 C92 1.247 1_554 S
O86 Co84 2.091 . S
O86 C92 1.261 . S
C87 O96 1.247 . S
C87 O97 1.272 . S
O88 Co84 2.004 . S
O88 C93 1.259 . S
Co89 O90 2.061 . S
Co89 O95 2.052 1_556 S
Co89 O97 2.135 . S
O90 Co89 2.061 . S
O90 C93 1.235 . S
C91 O94 1.238 1_554 S
C91 O95 1.241 . S
C92 O85 1.247 1_556 S
C92 O86 1.261 . S
C93 O88 1.259 . S
C93 O90 1.235 . S
O94 Co84 2.021 . S
O94 C91 1.238 1_556 S
O95 Co89 2.052 1_554 S
O95 C91 1.241 . S
O96 Co84 2.137 . S
O96 C87 1.247 . S
O97 Co84 2.244 . S
O97 C87 1.272 . S
O97 Co89 2.135 . S
Co98 O99 2.216 . S
Co98 O100 2.091 . S
Co98 O102 2.004 . S
Co98 O108 2.021 . S
Co98 O110 2.137 . S
Co98 O111 2.244 . S
O99 Co98 2.216 . S
O99 C106 1.247 . S
O100 Co98 2.091 . S
O100 C106 1.261 . S
C101 O110 1.247 . S
C101 O111 1.272 . S
O102 Co98 2.004 . S
O102 C107 1.259 . S
Co103 O104 2.061 . S
Co103 O109 2.052 . S
Co103 O111 2.135 . S
O104 Co103 2.061 . S
O104 C107 1.235 . S
C105 O108 1.238 . S
C105 O109 1.241 . S
C106 O99 1.247 . S
C106 O100 1.261 . S
C107 O102 1.259 . S
C107 O104 1.235 . S
O108 Co98 2.021 . S
O108 C105 1.238 . S
O109 Co103 2.052 . S
O109 C105 1.241 . S
O110 Co98 2.137 . S
O110 C101 1.247 . S
O111 Co98 2.244 . S
O111 C101 1.272 . S
O111 Co103 2.135 . S
Co112 O113 2.216 1_656 S
Co112 O114 2.091 . S
Co112 O116 2.004 . S
Co112 O122 2.021 . S
Co112 O124 2.137 1_655 S
Co112 O125 2.244 1_655 S
O113 Co112 2.216 1_454 S
O113 C120 1.247 1_554 S
O114 Co112 2.091 . S
O114 C120 1.261 1_655 S
C115 O124 1.247 . S
C115 O125 1.272 . S
O116 Co112 2.004 . S
O116 C121 1.259 . S
Co117 O118 2.061 . S
Co117 O123 2.052 1_556 S
Co117 O125 2.135 1_655 S
O118 Co117 2.061 . S
O118 C121 1.235 . S
C119 O122 1.238 1_554 S
C119 O123 1.241 . S
C120 O113 1.247 1_556 S
C120 O114 1.261 1_455 S
C121 O116 1.259 . S
C121 O118 1.235 . S
O122 Co112 2.021 . S
O122 C119 1.238 1_556 S
O123 Co117 2.052 1_554 S
O123 C119 1.241 . S
O124 Co112 2.137 1_455 S
O124 C115 1.247 . S
O125 Co112 2.244 1_455 S
O125 C115 1.272 . S
O125 Co117 2.135 1_455 S
Co126 O127 2.216 1_565 S
Co126 O128 2.091 . S
Co126 O130 2.004 . S
Co126 O136 2.021 . S
Co126 O138 2.137 1_565 S
Co126 O139 2.244 1_565 S
O127 Co126 2.216 1_545 S
O127 C134 1.247 . S
O128 Co126 2.091 . S
O128 C134 1.261 1_565 S
C129 O138 1.247 . S
C129 O139 1.272 . S
O130 Co126 2.004 . S
O130 C135 1.259 . S
Co131 O132 2.061 . S
Co131 O137 2.052 . S
Co131 O139 2.135 1_565 S
O132 Co131 2.061 . S
O132 C135 1.235 . S
C133 O136 1.238 . S
C133 O137 1.241 . S
C134 O127 1.247 . S
C134 O128 1.261 1_545 S
C135 O130 1.259 . S
C135 O132 1.235 . S
O136 Co126 2.021 . S
O136 C133 1.238 . S
O137 Co131 2.052 . S
O137 C133 1.241 . S
O138 Co126 2.137 1_545 S
O138 C129 1.247 . S
O139 Co126 2.244 1_545 S
O139 C129 1.272 . S
O139 Co131 2.135 1_545 S
Co140 O141 2.216 1_556 S
Co140 O142 2.091 . S
Co140 O144 2.004 . S
Co140 O150 2.021 . S
Co140 O152 2.137 . S
Co140 O153 2.244 . S
O141 Co140 2.216 1_554 S
O141 C148 1.247 1_554 S
O142 Co140 2.091 . S
O142 C148 1.261 . S
C143 O152 1.247 . S
C143 O153 1.272 . S
O144 Co140 2.004 . S
O144 C149 1.259 . S
Co145 O146 2.061 . S
Co145 O151 2.052 1_556 S
Co145 O153 2.135 . S
O146 Co145 2.061 . S
O146 C149 1.235 . S
C147 O150 1.238 1_554 S
C147 O151 1.241 . S
C148 O141 1.247 1_556 S
C148 O142 1.261 . S
C149 O144 1.259 . S
C149 O146 1.235 . S
O150 Co140 2.021 . S
O150 C147 1.238 1_556 S
O151 Co145 2.052 1_554 S
O151 C147 1.241 . S
O152 Co140 2.137 . S
O152 C143 1.247 . S
O153 Co140 2.244 . S
O153 C143 1.272 . S
O153 Co145 2.135 . S
Co154 O155 2.216 . S
Co154 O156 2.091 . S
Co154 O158 2.004 . S
Co154 O164 2.021 . S
Co154 O166 2.137 . S
Co154 O167 2.244 . S
O155 Co154 2.216 . S
O155 C162 1.247 . S
O156 Co154 2.091 . S
O156 C162 1.261 . S
C157 O166 1.247 . S
C157 O167 1.272 . S
O158 Co154 2.004 . S
O158 C163 1.259 . S
Co159 O160 2.061 . S
Co159 O165 2.052 . S
Co159 O167 2.135 . S
O160 Co159 2.061 . S
O160 C163 1.235 . S
C161 O164 1.238 . S
C161 O165 1.241 . S
C162 O155 1.247 . S
C162 O156 1.261 . S
C163 O158 1.259 . S
C163 O160 1.235 . S
O164 Co154 2.021 . S
O164 C161 1.238 . S
O165 Co159 2.052 . S
O165 C161 1.241 . S
O166 Co154 2.137 . S
O166 C157 1.247 . S
O167 Co154 2.244 . S
O167 C157 1.272 . S
O167 Co159 2.135 . S
Co168 O169 2.216 1_654 S
Co168 O170 2.091 . S
Co168 O172 2.004 . S
Co168 O178 2.021 . S
Co168 O180 2.137 1_655 S
Co168 O181 2.244 1_655 S
O169 Co168 2.216 1_456 S
O169 C176 1.247 1_556 S
O170 Co168 2.091 . S
O170 C176 1.261 1_655 S
C171 O180 1.247 . S
C171 O181 1.272 . S
O172 Co168 2.004 . S
O172 C177 1.259 . S
Co173 O174 2.061 . S
Co173 O179 2.052 1_554 S
Co173 O181 2.135 1_655 S
O174 Co173 2.061 . S
O174 C177 1.235 . S
C175 O178 1.238 1_556 S
C175 O179 1.241 . S
C176 O169 1.247 1_554 S
C176 O170 1.261 1_455 S
C177 O172 1.259 . S
C177 O174 1.235 . S
O178 Co168 2.021 . S
O178 C175 1.238 1_554 S
O179 Co173 2.052 1_556 S
O179 C175 1.241 . S
O180 Co168 2.137 1_455 S
O180 C171 1.247 . S
O181 Co168 2.244 1_455 S
O181 C171 1.272 . S
O181 Co173 2.135 1_455 S
Co182 O183 2.216 1_565 S
Co182 O184 2.091 . S
Co182 O186 2.004 . S
Co182 O192 2.021 . S
Co182 O194 2.137 1_565 S
Co182 O195 2.244 1_565 S
O183 Co182 2.216 1_545 S
O183 C190 1.247 . S
O184 Co182 2.091 . S
O184 C190 1.261 1_565 S
C185 O194 1.247 . S
C185 O195 1.272 . S
O186 Co182 2.004 . S
O186 C191 1.259 . S
Co187 O188 2.061 . S
Co187 O193 2.052 . S
Co187 O195 2.135 1_565 S
O188 Co187 2.061 . S
O188 C191 1.235 . S
C189 O192 1.238 . S
C189 O193 1.241 . S
C190 O183 1.247 . S
C190 O184 1.261 1_545 S
C191 O186 1.259 . S
C191 O188 1.235 . S
O192 Co182 2.021 . S
O192 C189 1.238 . S
O193 Co187 2.052 . S
O193 C189 1.241 . S
O194 Co182 2.137 1_545 S
O194 C185 1.247 . S
O195 Co182 2.244 1_545 S
O195 C185 1.272 . S
O195 Co187 2.135 1_545 S
Co196 O197 2.216 1_554 S
Co196 O198 2.091 . S
Co196 O200 2.004 . S
Co196 O206 2.021 . S
Co196 O208 2.137 . S
Co196 O209 2.244 . S
O197 Co196 2.216 1_556 S
O197 C204 1.247 1_556 S
O198 Co196 2.091 . S
O198 C204 1.261 . S
C199 O208 1.247 . S
C199 O209 1.272 . S
O200 Co196 2.004 . S
O200 C205 1.259 . S
Co201 O202 2.061 . S
Co201 O207 2.052 1_554 S
Co201 O209 2.135 . S
O202 Co201 2.061 . S
O202 C205 1.235 . S
C203 O206 1.238 1_556 S
C203 O207 1.241 . S
C204 O197 1.247 1_554 S
C204 O198 1.261 . S
C205 O200 1.259 . S
C205 O202 1.235 . S
O206 Co196 2.021 . S
O206 C203 1.238 1_554 S
O207 Co201 2.052 1_556 S
O207 C203 1.241 . S
O208 Co196 2.137 . S
O208 C199 1.247 . S
O209 Co196 2.244 . S
O209 C199 1.272 . S
O209 Co201 2.135 . S
Co210 O211 2.216 . S
Co210 O212 2.091 . S
Co210 O214 2.004 . S
Co210 O220 2.021 . S
Co210 O222 2.137 . S
Co210 O223 2.244 . S
O211 Co210 2.216 . S
O211 C218 1.247 . S
O212 Co210 2.091 . S
O212 C218 1.261 . S
C213 O222 1.247 . S
C213 O223 1.272 . S
O214 Co210 2.004 . S
O214 C219 1.259 . S
Co215 O216 2.061 . S
Co215 O221 2.052 . S
Co215 O223 2.135 . S
O216 Co215 2.061 . S
O216 C219 1.235 . S
C217 O220 1.238 . S
C217 O221 1.241 . S
C218 O211 1.247 . S
C218 O212 1.261 . S
C219 O214 1.259 . S
C219 O216 1.235 . S
O220 Co210 2.021 . S
O220 C217 1.238 . S
O221 Co215 2.052 . S
O221 C217 1.241 . S
O222 Co210 2.137 . S
O222 C213 1.247 . S
O223 Co210 2.244 . S
O223 C213 1.272 . S
O223 Co215 2.135 . S
C8 C64 1.333 1_554 S
C78 C22 1.333 . S
C36 C92 1.333 1_554 S
C50 C106 1.333 . S
C120 C176 1.333 1_556 S
C190 C134 1.333 . S
C148 C204 1.333 1_556 S
C162 C218 1.333 . S
C7 C219 1.366 . S
C177 C21 1.366 . S
C35 C191 1.366 . S
C205 C49 1.366 . S
C135 C63 1.366 . S
C149 C77 1.366 . S
C163 C91 1.366 . S
C121 C105 1.366 . S
C119 C107 1.366 . S
C65 C133 1.366 . S
C79 C147 1.366 . S
C161 C93 1.366 . S
C23 C175 1.366 . S
C189 C37 1.366 . S
C203 C51 1.366 . S
C217 C9 1.366 . S
C101 C3 1.338 . S
C17 C59 1.338 . S
C31 C73 1.338 . S
C45 C87 1.338 . S
C213 C115 1.338 . S
C171 C129 1.338 . S
C185 C143 1.338 . S
C199 C157 1.338 . S
