# Generated by pormake.
# Topology sml, (6)-cn, num edge types: 1
# Building blocks:
#     Node 0, Type 0, BuildingBlock: INOVEN_clean_sbu_0, # of connection points: 6
#     Node 1, Type 0, BuildingBlock: INOVEN_clean_sbu_0, # of connection points: 6
#     Node 2, Type 0, BuildingBlock: INOVEN_clean_sbu_0, # of connection points: 6
#     Node 3, Type 0, BuildingBlock: INOVEN_clean_sbu_0, # of connection points: 6
#     Node 4, Type 0, BuildingBlock: INOVEN_clean_sbu_0, # of connection points: 6
#     Node 5, Type 0, BuildingBlock: INOVEN_clean_sbu_0, # of connection points: 6
#     Edge 6, Type (0, 0), BuildingBlock: KIFKEQ_clean_linker_1, # of connection points: 2
#     Edge 7, Type (0, 0), BuildingBlock: KIFKEQ_clean_linker_1, # of connection points: 2
#     Edge 8, Type (0, 0), BuildingBlock: KIFKEQ_clean_linker_1, # of connection points: 2
#     Edge 9, Type (0, 0), BuildingBlock: KIFKEQ_clean_linker_1, # of connection points: 2
#     Edge 10, Type (0, 0), BuildingBlock: KIFKEQ_clean_linker_1, # of connection points: 2
#     Edge 11, Type (0, 0), BuildingBlock: KIFKEQ_clean_linker_1, # of connection points: 2
#     Edge 12, Type (0, 0), BuildingBlock: KIFKEQ_clean_linker_1, # of connection points: 2
#     Edge 13, Type (0, 0), BuildingBlock: KIFKEQ_clean_linker_1, # of connection points: 2
#     Edge 14, Type (0, 0), BuildingBlock: KIFKEQ_clean_linker_1, # of connection points: 2
#     Edge 15, Type (0, 0), BuildingBlock: KIFKEQ_clean_linker_1, # of connection points: 2
#     Edge 16, Type (0, 0), BuildingBlock: KIFKEQ_clean_linker_1, # of connection points: 2
#     Edge 17, Type (0, 0), BuildingBlock: KIFKEQ_clean_linker_1, # of connection points: 2
#     Edge 18, Type (0, 0), BuildingBlock: KIFKEQ_clean_linker_1, # of connection points: 2
#     Edge 19, Type (0, 0), BuildingBlock: KIFKEQ_clean_linker_1, # of connection points: 2
#     Edge 20, Type (0, 0), BuildingBlock: KIFKEQ_clean_linker_1, # of connection points: 2
#     Edge 21, Type (0, 0), BuildingBlock: KIFKEQ_clean_linker_1, # of connection points: 2
#     Edge 22, Type (0, 0), BuildingBlock: KIFKEQ_clean_linker_1, # of connection points: 2
#     Edge 23, Type (0, 0), BuildingBlock: KIFKEQ_clean_linker_1, # of connection points: 2
# Relax obj value: 0.207
# Max RMSD: 0.239
# Mean RMSD: 0.239
data_MOF--net-sml--node1-INOVEN_clean_sbu_0--edge1-KIFKEQ_clean_linker_1
_symmetry_space_group_name_H-M    P1
_symmetry_Int_Tables_number       1
_symmetry_cell_setting            triclinic
loop_
_symmetry_equiv_pos_as_xyz
'x, y, z'
_cell_length_a     33.396079
_cell_length_b     33.364966
_cell_length_c     25.257408
_cell_angle_alpha  89.981022
_cell_angle_beta   90.039439
_cell_angle_gamma 119.95416
loop_
_atom_site_label
_atom_site_type_symbol
_atom_site_fract_x
_atom_site_fract_y
_atom_site_fract_z
_atom_type_partial_charge
Gd0 Gd 0.17768 0.4367 0.97998 0.0
Gd1 Gd 0.21256 0.4025 0.07345 0.0
C2 C 0.20625 0.3563 0.96294 0.0
C3 C 0.16557 0.46373 0.88835 0.0
C4 C 0.1723 0.45664 0.83187 0.0
C5 C 0.13495 0.44165 0.79675 0.0
C6 C 0.21515 0.46476 0.81227 0.0
C7 C 0.18295 0.44327 0.72314 0.0
C8 C 0.22044 0.45833 0.75839 0.0
C9 C 0.14013 0.4349 0.74309 0.0
C10 C 0.11228 0.37765 0.04667 0.0
C11 C 0.1898 0.48711 0.08965 0.0
C12 C 0.22277 0.37335 0.16476 0.0
C13 C 0.21852 0.38209 0.22118 0.0
C14 C 0.24377 0.37318 0.25904 0.0
C15 C 0.18998 0.39946 0.2378 0.0
C16 C 0.21194 0.39856 0.32992 0.0
C17 C 0.18669 0.40758 0.29165 0.0
C18 C 0.24053 0.38126 0.3128 0.0
C19 C 0.27802 0.4646 1.00829 0.0
O20 O 0.2007 0.38987 0.94278 0.0
O21 O 0.206 0.3496 1.01452 0.0
O22 O 0.13299 0.42788 0.91338 0.0
O23 O 0.20263 0.48787 0.91732 0.0
O24 O 0.11089 0.41168 0.02355 0.0
O25 O 0.14661 0.3747 0.03103 0.0
O26 O 0.19496 0.45358 0.11083 0.0
O27 O 0.18721 0.49146 0.03789 0.0
O28 O 0.25681 0.40713 0.13885 0.0
O29 O 0.18438 0.35262 0.13727 0.0
O30 O 0.28108 0.4311 0.03055 0.0
O31 O 0.2425 0.46492 0.02403 0.0
H32 H 0.10163 0.43528 0.81083 0.0
H33 H 0.24457 0.47607 0.83844 0.0
H34 H 0.25376 0.46463 0.74444 0.0
H35 H 0.1107 0.42383 0.71701 0.0
H36 H 0.26596 0.35974 0.24701 0.0
H37 H 0.17028 0.40677 0.2092 0.0
H38 H 0.16478 0.42144 0.30322 0.0
H39 H 0.25993 0.37324 0.34103 0.0
Gd40 Gd 0.7523 0.18381 0.32512 0.0
Gd41 Gd 0.81817 0.2246 0.42 0.0
C42 C 0.86291 0.22 0.31202 0.0
C43 C 0.71272 0.16729 0.23337 0.0
C44 C 0.72666 0.17487 0.17726 0.0
C45 C 0.69961 0.14092 0.13999 0.0
C46 C 0.7664 0.21526 0.16029 0.0
C47 C 0.75127 0.18766 0.06906 0.0
C48 C 0.77847 0.22169 0.10659 0.0
C49 C 0.71179 0.14716 0.08646 0.0
C50 C 0.75009 0.12154 0.39409 0.0
C51 C 0.70881 0.19292 0.43208 0.0
C52 C 0.85904 0.24161 0.51118 0.0
C53 C 0.84688 0.23554 0.5677 0.0
C54 C 0.88218 0.25354 0.60564 0.0
C55 C 0.80063 0.21258 0.58429 0.0
C56 C 0.82523 0.22605 0.67672 0.0
C57 C 0.78987 0.20789 0.63833 0.0
C58 C 0.87153 0.24882 0.65961 0.0
C59 C 0.81802 0.28638 0.35113 0.0
O60 O 0.82339 0.21068 0.2894 0.0
O61 O 0.86816 0.22166 0.36392 0.0
O62 O 0.71983 0.13725 0.25886 0.0
O63 O 0.72268 0.20406 0.26156 0.0
O64 O 0.71392 0.11644 0.36906 0.0
O65 O 0.78616 0.15753 0.37923 0.0
O66 O 0.74704 0.19906 0.45533 0.0
O67 O 0.70439 0.1919 0.38006 0.0
O68 O 0.85161 0.27139 0.4856 0.0
O69 O 0.84713 0.20385 0.48402 0.0
O70 O 0.85507 0.29247 0.37507 0.0
O71 O 0.78338 0.24985 0.36705 0.0
H72 H 0.66885 0.10953 0.1523 0.0
H73 H 0.78807 0.24182 0.18846 0.0
H74 H 0.80935 0.25302 0.09453 0.0
H75 H 0.68984 0.12055 0.05853 0.0
H76 H 0.9181 0.27128 0.59349 0.0
H77 H 0.77292 0.19851 0.55554 0.0
H78 H 0.75387 0.19063 0.64996 0.0
H79 H 0.89963 0.26255 0.68794 0.0
Gd80 Gd 0.56118 0.74368 0.65064 0.0
Gd81 Gd 0.59264 0.81057 0.74449 0.0
C82 C 0.64127 0.85242 0.63576 0.0
C83 C 0.53382 0.70397 0.55938 0.0
C84 C 0.53904 0.71735 0.50315 0.0
C85 C 0.5383 0.68653 0.46501 0.0
C86 C 0.54531 0.7604 0.48699 0.0
C87 C 0.54944 0.74117 0.39464 0.0
C88 C 0.55041 0.77218 0.43318 0.0
C89 C 0.54349 0.69828 0.41136 0.0
C90 C 0.61908 0.73516 0.71754 0.0
C91 C 0.50977 0.7032 0.75938 0.0
C92 C 0.61838 0.85003 0.83622 0.0
C93 C 0.60943 0.83683 0.89294 0.0
C94 C 0.57113 0.83446 0.9191 0.0
C95 C 0.64036 0.82843 0.92214 0.0
C96 C 0.59491 0.81562 1.00237 0.0
C97 C 0.63312 0.81783 0.97613 0.0
C98 C 0.56391 0.82388 0.97308 0.0
C99 C 0.53132 0.81439 0.67801 0.0
O100 O 0.60788 0.81402 0.6142 0.0
O101 O 0.64702 0.85732 0.68753 0.0
O102 O 0.57106 0.70946 0.58313 0.0
O103 O 0.50937 0.71612 0.58883 0.0
O104 O 0.58583 0.70094 0.69214 0.0
O105 O 0.62257 0.77324 0.7036 0.0
O106 O 0.54289 0.7415 0.78142 0.0
O107 O 0.50607 0.69725 0.70751 0.0
O108 O 0.58452 0.84881 0.8088 0.0
O109 O 0.64172 0.83493 0.80938 0.0
O110 O 0.56496 0.85084 0.70005 0.0
O111 O 0.53088 0.77855 0.69401 0.0
H112 H 0.53388 0.65332 0.47678 0.0
H113 H 0.54616 0.78481 0.51589 0.0
H114 H 0.55453 0.80532 0.42176 0.0
H115 H 0.54347 0.67391 0.38303 0.0
H116 H 0.54688 0.84128 0.89807 0.0
H117 H 0.6704 0.83031 0.90333 0.0
H118 H 0.6574 0.81111 0.99726 0.0
H119 H 0.53451 0.82317 0.99209 0.0
Gd120 Gd 0.81695 0.5603 0.98319 0.0
Gd121 Gd 0.78111 0.59278 0.07635 0.0
C122 C 0.78873 0.64088 0.96674 0.0
C123 C 0.82891 0.53358 0.89129 0.0
C124 C 0.82157 0.54036 0.83495 0.0
C125 C 0.85756 0.55201 0.79874 0.0
C126 C 0.77955 0.53543 0.81662 0.0
C127 C 0.80986 0.55344 0.72646 0.0
C128 C 0.7737 0.54171 0.76283 0.0
C129 C 0.85186 0.5586 0.74518 0.0
C130 C 0.8829 0.61836 0.05031 0.0
C131 C 0.80493 0.50912 0.09225 0.0
C132 C 0.76683 0.61917 0.16755 0.0
C133 C 0.77135 0.61118 0.22411 0.0
C134 C 0.74828 0.62295 0.26192 0.0
C135 C 0.79792 0.59162 0.2409 0.0
C136 C 0.77827 0.59584 0.33314 0.0
C137 C 0.80133 0.58399 0.29489 0.0
C138 C 0.75173 0.61545 0.31584 0.0
C139 C 0.71649 0.5317 1.00935 0.0
O140 O 0.79456 0.60765 0.94621 0.0
O141 O 0.78822 0.64668 0.01842 0.0
O142 O 0.86129 0.56975 0.91604 0.0
O143 O 0.79215 0.50914 0.92051 0.0
O144 O 0.88405 0.58503 0.02519 0.0
O145 O 0.84846 0.62192 0.03588 0.0
O146 O 0.79974 0.54251 0.11365 0.0
O147 O 0.80769 0.50515 0.04048 0.0
O148 O 0.73486 0.58395 0.14123 0.0
O149 O 0.80527 0.64231 0.14075 0.0
O150 O 0.71358 0.56534 0.03131 0.0
O151 O 0.75159 0.53099 0.02592 0.0
H152 H 0.89021 0.55591 0.81192 0.0
H153 H 0.75126 0.5268 0.84375 0.0
H154 H 0.74109 0.53794 0.74982 0.0
H155 H 0.8802 0.56704 0.71823 0.0
H156 H 0.72766 0.63813 0.24974 0.0
H157 H 0.81597 0.58221 0.21233 0.0
H158 H 0.8216 0.56831 0.30656 0.0
H159 H 0.73409 0.6257 0.34402 0.0
Gd160 Gd 0.2548 0.81724 0.31553 0.0
Gd161 Gd 0.18688 0.78222 0.40886 0.0
C162 C 0.14619 0.78934 0.29914 0.0
C163 C 0.29439 0.82834 0.2243 0.0
C164 C 0.28103 0.8207 0.16799 0.0
C165 C 0.31377 0.84738 0.1295 0.0
C166 C 0.23609 0.78779 0.15208 0.0
C167 C 0.25709 0.80844 0.0594 0.0
C168 C 0.22419 0.78179 0.09825 0.0
C169 C 0.302 0.84132 0.0758 0.0
C170 C 0.26286 0.88386 0.38173 0.0
C171 C 0.29425 0.80656 0.42507 0.0
C172 C 0.14747 0.76864 0.50063 0.0
C173 C 0.16077 0.77347 0.55744 0.0
C174 C 0.15397 0.73459 0.58649 0.0
C175 C 0.17847 0.81615 0.58383 0.0
C176 C 0.18239 0.78086 0.66691 0.0
C177 C 0.18916 0.81978 0.6379 0.0
C178 C 0.16482 0.73827 0.64043 0.0
C179 C 0.18328 0.7169 0.34294 0.0
O180 O 0.18514 0.79502 0.27854 0.0
O181 O 0.14001 0.78905 0.35083 0.0
O182 O 0.29029 0.86092 0.24814 0.0
O183 O 0.28083 0.79141 0.25367 0.0
O184 O 0.29723 0.88482 0.35669 0.0
O185 O 0.22489 0.84927 0.36766 0.0
O186 O 0.25585 0.80172 0.4464 0.0
O187 O 0.30063 0.80846 0.37328 0.0
O188 O 0.14962 0.73619 0.47385 0.0
O189 O 0.16152 0.80662 0.4731 0.0
O190 O 0.1468 0.71429 0.3646 0.0
O191 O 0.2191 0.7522 0.35912 0.0
H192 H 0.34853 0.87313 0.14103 0.0
H193 H 0.21028 0.76674 0.18121 0.0
H194 H 0.18942 0.75589 0.08704 0.0
H195 H 0.32799 0.86296 0.04715 0.0
H196 H 0.13977 0.70106 0.56764 0.0
H197 H 0.18389 0.84678 0.56285 0.0
H198 H 0.20305 0.8532 0.6569 0.0
H199 H 0.15852 0.70745 0.66166 0.0
Gd200 Gd 0.43543 0.25609 0.64681 0.0
Gd201 Gd 0.40468 0.18873 0.74048 0.0
C202 C 0.35644 0.14696 0.63127 0.0
C203 C 0.4607 0.29659 0.55547 0.0
C204 C 0.45602 0.28351 0.49917 0.0
C205 C 0.46376 0.31674 0.46052 0.0
C206 C 0.44312 0.23829 0.48346 0.0
C207 C 0.44538 0.25975 0.39065 0.0
C208 C 0.43764 0.22644 0.42964 0.0
C209 C 0.45863 0.30506 0.40681 0.0
C210 C 0.378 0.26414 0.71482 0.0
C211 C 0.48728 0.29621 0.75539 0.0
C212 C 0.37939 0.14903 0.83215 0.0
C213 C 0.38667 0.16195 0.88884 0.0
C214 C 0.40272 0.1397 0.92273 0.0
C215 C 0.37742 0.19549 0.90992 0.0
C216 C 0.39964 0.18365 0.99822 0.0
C217 C 0.38375 0.20614 0.96403 0.0
C218 C 0.4093 0.15049 0.97667 0.0
C219 C 0.46572 0.18465 0.67383 0.0
O220 O 0.38935 0.18591 0.61028 0.0
O221 O 0.35093 0.14111 0.68301 0.0
O222 O 0.42273 0.28856 0.5795 0.0
O223 O 0.48664 0.28613 0.58454 0.0
O224 O 0.41111 0.29851 0.68953 0.0
O225 O 0.37445 0.22617 0.70036 0.0
O226 O 0.45392 0.25801 0.77729 0.0
O227 O 0.49105 0.30224 0.70351 0.0
O228 O 0.41523 0.15326 0.80634 0.0
O229 O 0.35461 0.16179 0.80419 0.0
O230 O 0.4329 0.14861 0.69736 0.0
O231 O 0.46609 0.22073 0.68904 0.0
H232 H 0.47355 0.35177 0.47193 0.0
H233 H 0.43727 0.21221 0.51275 0.0
H234 H 0.42784 0.19136 0.41854 0.0
H235 H 0.46425 0.33138 0.37794 0.0
H236 H 0.41023 0.11382 0.90741 0.0
H237 H 0.36503 0.21332 0.88475 0.0
H238 H 0.37543 0.23147 0.97919 0.0
H239 H 0.4224 0.13307 1.00139 0.0
H240 H 0.38101 0.34422 0.73864 0.0
H241 H 0.30483 0.19799 0.77352 0.0
H242 H 0.33122 0.35698 0.79775 0.0
H243 H 0.25529 0.21133 0.83493 0.0
H244 H 0.23578 0.29462 0.98695 0.0
H245 H 0.27104 0.26403 0.92578 0.0
H246 H 0.24203 0.3288 0.79499 0.0
H247 H 0.20675 0.35902 0.85513 0.0
C248 C 0.35363 0.3147 0.75908 0.0
C249 C 0.34691 0.27007 0.75152 0.0
C250 C 0.32504 0.32207 0.79285 0.0
C251 C 0.28926 0.2851 0.82051 0.0
C252 C 0.28273 0.24036 0.81394 0.0
C253 C 0.31107 0.23279 0.77906 0.0
C254 C 0.23584 0.30132 0.94499 0.0
C255 C 0.21909 0.32993 0.92612 0.0
C256 C 0.25589 0.28367 0.91005 0.0
C257 C 0.25964 0.29459 0.85591 0.0
C258 C 0.23993 0.3203 0.83668 0.0
C259 C 0.21975 0.33762 0.87129 0.0
H260 H 0.07358 0.40855 0.11751 0.0
H261 H 0.08237 0.28788 0.07495 0.0
H262 H 0.01808 0.36445 0.18718 0.0
H263 H 0.02497 0.24298 0.14388 0.0
H264 H 0.86427 0.19788 0.20824 0.0
H265 H 0.93075 0.23179 0.14824 0.0
H266 H 0.01956 0.31082 0.2775 0.0
H267 H 0.95356 0.27609 0.33809 0.0
C268 C 0.06368 0.37258 0.12331 0.0
C269 C 0.08174 0.35133 0.09082 0.0
C270 C 0.03226 0.34755 0.16326 0.0
C271 C 0.01751 0.30054 0.17059 0.0
C272 C 0.03612 0.2793 0.13881 0.0
C273 C 0.06874 0.30484 0.09963 0.0
C274 C 0.89818 0.22153 0.22415 0.0
C275 C 0.90373 0.23438 0.27782 0.0
C276 C 0.93613 0.24067 0.1899 0.0
C277 C 0.97999 0.27361 0.20857 0.0
C278 C 0.98599 0.28513 0.26252 0.0
C279 C 0.94826 0.26522 0.29705 0.0
H280 H 0.76338 0.04931 0.37421 0.0
H281 H 0.73097 0.1168 0.49863 0.0
H282 H 0.74727 0.9852 0.43424 0.0
H283 H 0.7142 0.05288 0.55866 0.0
H284 H 0.70571 0.94093 0.66465 0.0
H285 H 0.74292 0.00907 0.60772 0.0
H286 H 0.67563 0.92348 0.47133 0.0
H287 H 0.63918 0.85551 0.52771 0.0
C288 C 0.75382 0.05075 0.41486 0.0
C289 C 0.74863 0.08774 0.43226 0.0
C290 C 0.74424 0.01403 0.44906 0.0
C291 C 0.72915 0.01373 0.50118 0.0
C292 C 0.72625 0.05217 0.51906 0.0
C293 C 0.73568 0.08873 0.48475 0.0
C294 C 0.69952 0.9365 0.6224 0.0
C295 C 0.66912 0.89272 0.60088 0.0
C296 C 0.72066 0.97564 0.58982 0.0
C297 C 0.71204 0.97182 0.53502 0.0
C298 C 0.68349 0.92768 0.51325 0.0
C299 C 0.6623 0.88864 0.54576 0.0
H300 H 0.61566 0.65481 0.74124 0.0
H301 H 0.69249 0.80099 0.77632 0.0
H302 H 0.66498 0.64161 0.80081 0.0
H303 H 0.74143 0.78718 0.83828 0.0
H304 H 0.75862 0.7021 0.99095 0.0
H305 H 0.72397 0.73327 0.92954 0.0
H306 H 0.75483 0.67021 0.79861 0.0
H307 H 0.7896 0.63954 0.85893 0.0
C308 C 0.64306 0.68422 0.76183 0.0
C309 C 0.65006 0.72896 0.75425 0.0
C310 C 0.67136 0.6766 0.79588 0.0
C311 C 0.70709 0.7134 0.82383 0.0
C312 C 0.71398 0.75826 0.81713 0.0
C313 C 0.68596 0.76609 0.78195 0.0
C314 C 0.75912 0.69594 0.94893 0.0
C315 C 0.77625 0.66768 0.93005 0.0
C316 C 0.7394 0.7139 0.91386 0.0
C317 C 0.73636 0.70363 0.85957 0.0
C318 C 0.75642 0.67825 0.8404 0.0
C319 C 0.7763 0.66065 0.87512 0.0
H320 H 0.1484 0.79189 0.19133 0.0
H321 H 0.05477 0.75773 0.32368 0.0
H322 H 0.08302 0.7566 0.131 0.0
H323 H 0.98904 0.72286 0.26228 0.0
H324 H 0.89011 0.69195 0.10843 0.0
H325 H 0.95263 0.74137 0.17031 0.0
H326 H 0.02234 0.66531 0.13383 0.0
H327 H 0.95998 0.61543 0.0744 0.0
C328 C 0.11397 0.77773 0.2076 0.0
C329 C 0.10688 0.77688 0.26258 0.0
C330 C 0.07654 0.75764 0.17287 0.0
C331 C 0.03113 0.7367 0.19215 0.0
C332 C 0.02383 0.73901 0.24655 0.0
C333 C 0.06146 0.75886 0.2816 0.0
C334 C 0.91853 0.68558 0.11429 0.0
C335 C 0.91996 0.64961 0.08694 0.0
C336 C 0.95426 0.71388 0.1494 0.0
C337 C 0.9923 0.70721 0.15636 0.0
C338 C 0.99363 0.67147 0.12871 0.0
C339 C 0.95781 0.64286 0.09475 0.0
H340 H 0.29841 0.05526 0.65655 0.0
H341 H 0.35377 0.14895 0.52357 0.0
H342 H 0.26704 0.98939 0.59524 0.0
H343 H 0.32331 0.08344 0.46331 0.0
H344 H 0.34284 0.961 0.40559 0.0
H345 H 0.35554 0.02312 0.46563 0.0
H346 H 0.21014 0.95304 0.50317 0.0
H347 H 0.19678 0.89087 0.44055 0.0
C348 C 0.30298 0.06192 0.61439 0.0
C349 C 0.32942 0.10741 0.59509 0.0
C350 C 0.28491 0.02421 0.5794 0.0
C351 C 0.29327 0.03154 0.52479 0.0
C352 C 0.31676 0.07697 0.50534 0.0
C353 C 0.33436 0.11446 0.54001 0.0
C354 C 0.31337 0.95871 0.42629 0.0
C355 C 0.26879 0.92085 0.41858 0.0
C356 C 0.32071 0.99437 0.46062 0.0
C357 C 0.28381 0.99283 0.48876 0.0
C358 C 0.23912 0.9548 0.48189 0.0
C359 C 0.23155 0.91927 0.44637 0.0
H360 H 0.25445 0.49944 0.65716 0.0
H361 H 0.12344 0.37208 0.65901 0.0
H362 H 0.26169 0.48987 0.56247 0.0
H363 H 0.13086 0.36206 0.56465 0.0
H364 H 0.13448 0.3812 0.38603 0.0
H365 H 0.12832 0.39318 0.48015 0.0
H366 H 0.27452 0.44413 0.49902 0.0
H367 H 0.28105 0.43416 0.40449 0.0
C368 C 0.22744 0.46911 0.63747 0.0
C369 C 0.18829 0.43663 0.6657 0.0
C370 C 0.23157 0.46357 0.58312 0.0
C371 C 0.19676 0.42526 0.5556 0.0
C372 C 0.15791 0.3925 0.58411 0.0
C373 C 0.1537 0.39816 0.63834 0.0
C374 C 0.16546 0.39555 0.41007 0.0
C375 C 0.20826 0.40662 0.38746 0.0
C376 C 0.16182 0.40186 0.46431 0.0
C377 C 0.20086 0.4194 0.49752 0.0
C378 C 0.24375 0.43093 0.47477 0.0
C379 C 0.24739 0.42466 0.42054 0.0
H380 H 0.75046 0.1244 0.99963 0.0
H381 H 0.77991 0.26577 1.00917 0.0
H382 H 0.76842 0.1342 0.90541 0.0
H383 H 0.79728 0.27552 0.91463 0.0
H384 H 0.86889 0.28992 0.75557 0.0
H385 H 0.85248 0.28093 0.85012 0.0
H386 H 0.73836 0.14296 0.82279 0.0
H387 H 0.75622 0.15111 0.72859 0.0
C388 C 0.76046 0.1575 0.98147 0.0
C389 C 0.76363 0.19426 1.01188 0.0
C390 C 0.77064 0.16311 0.92737 0.0
C391 C 0.78406 0.20558 0.90218 0.0
C392 C 0.78766 0.24251 0.93276 0.0
C393 C 0.77768 0.23694 0.98698 0.0
C394 C 0.84059 0.25746 0.76976 0.0
C395 C 0.81405 0.22116 0.73434 0.0
C396 C 0.8308 0.25252 0.82399 0.0
C397 C 0.79413 0.21118 0.84427 0.0
C398 C 0.76728 0.17506 0.80877 0.0
C399 C 0.77714 0.17996 0.75455 0.0
H400 H 0.50344 0.68462 0.31079 0.0
H401 H 0.60747 0.82508 0.34826 0.0
H402 H 0.51469 0.70296 0.21686 0.0
H403 H 0.61714 0.84404 0.25416 0.0
H404 H 0.66013 0.84687 0.08122 0.0
H405 H 0.64847 0.82929 0.17547 0.0
H406 H 0.5014 0.74533 0.14917 0.0
H407 H 0.51331 0.76118 0.05459 0.0
C408 C 0.52869 0.71948 0.29904 0.0
C409 C 0.55476 0.75326 0.33725 0.0
C410 C 0.53472 0.73017 0.24507 0.0
C411 C 0.56686 0.775 0.22776 0.0
C412 C 0.5925 0.809 0.26597 0.0
C413 C 0.58653 0.79827 0.32003 0.0
C414 C 0.62535 0.82423 0.09542 0.0
C415 C 0.58769 0.80531 0.06015 0.0
C416 C 0.61858 0.81466 0.14966 0.0
C417 C 0.57397 0.78594 0.17009 0.0
C418 C 0.5363 0.76718 0.13483 0.0
C419 C 0.54307 0.77671 0.0806 0.0
H420 H 0.73525 0.50038 0.66268 0.0
H421 H 0.87131 0.62142 0.66041 0.0
H422 H 0.72719 0.5095 0.56804 0.0
H423 H 0.86311 0.63106 0.56614 0.0
H424 H 0.85476 0.60859 0.38811 0.0
H425 H 0.8613 0.59722 0.48227 0.0
H426 H 0.71768 0.55684 0.50382 0.0
H427 H 0.71058 0.56602 0.40921 0.0
C428 C 0.76322 0.52926 0.6421 0.0
C429 C 0.804 0.56003 0.66914 0.0
C430 C 0.75862 0.53455 0.58777 0.0
C431 C 0.7946 0.57091 0.55911 0.0
C432 C 0.83507 0.60206 0.58647 0.0
C433 C 0.83974 0.59663 0.64066 0.0
C434 C 0.82438 0.59666 0.41274 0.0
C435 C 0.78215 0.5883 0.39082 0.0
C436 C 0.82829 0.59074 0.46702 0.0
C437 C 0.79011 0.57636 0.501 0.0
C438 C 0.74776 0.56756 0.47898 0.0
C439 C 0.74383 0.57341 0.42468 0.0
H440 H 0.16433 0.82845 0.74286 0.0
H441 H 0.22446 0.74111 0.72187 0.0
H442 H 0.18178 0.83416 0.83734 0.0
H443 H 0.24056 0.7456 0.81655 0.0
H444 H 0.30925 0.80752 0.97626 0.0
H445 H 0.29108 0.80104 0.88213 0.0
H446 H 0.15848 0.7876 0.9181 0.0
H447 H 0.17734 0.79564 1.01237 0.0
C448 C 0.18138 0.81056 0.75835 0.0
C449 C 0.19307 0.78441 0.72466 0.0
C450 C 0.19088 0.81337 0.81267 0.0
C451 C 0.21251 0.79028 0.83468 0.0
C452 C 0.22426 0.76418 0.80094 0.0
C453 C 0.2146 0.76123 0.74669 0.0
C454 C 0.27632 0.80349 0.96413 0.0
C455 C 0.24488 0.80235 1.00199 0.0
C456 C 0.26568 0.79926 0.91012 0.0
C457 C 0.22332 0.79384 0.89241 0.0
C458 C 0.19165 0.79225 0.93027 0.0
C459 C 0.20224 0.79633 0.98439 0.0
H460 H 0.376 0.182 0.3434 0.0
H461 H 0.50105 0.30982 0.30813 0.0
H462 H 0.36455 0.16354 0.2492 0.0
H463 H 0.49014 0.29117 0.21409 0.0
H464 H 0.43248 0.26814 0.04664 0.0
H465 H 0.44248 0.28556 0.14092 0.0
H466 H 0.39368 0.14157 0.17527 0.0
H467 H 0.38122 0.12373 0.08126 0.0
C468 C 0.40136 0.2059 0.31557 0.0
C469 C 0.43934 0.24748 0.33333 0.0
C470 C 0.39484 0.19532 0.26148 0.0
C471 C 0.4263 0.22593 0.22376 0.0
C472 C 0.46465 0.26719 0.24173 0.0
C473 C 0.47101 0.27785 0.29574 0.0
C474 C 0.42327 0.24004 0.07427 0.0
C475 C 0.40602 0.19449 0.05605 0.0
C476 C 0.42964 0.25015 0.12846 0.0
C477 C 0.41911 0.21504 0.16597 0.0
C478 C 0.40174 0.16948 0.14775 0.0
C479 C 0.39518 0.15933 0.0936 0.0
H480 H 0.15747 0.54656 0.06827 0.0
H481 H 0.21703 0.50393 0.19285 0.0
H482 H 0.15455 0.6025 0.12881 0.0
H483 H 0.21458 0.56004 0.25256 0.0
H484 H 0.25578 0.70599 0.31567 0.0
H485 H 0.25634 0.65049 0.25295 0.0
H486 H 0.11188 0.59842 0.21951 0.0
H487 H 0.11111 0.65372 0.28314 0.0
C488 C 0.17002 0.54918 0.1084 0.0
C489 C 0.18762 0.52093 0.12569 0.0
C490 C 0.16809 0.58097 0.14302 0.0
C491 C 0.18451 0.5856 0.19516 0.0
C492 C 0.20205 0.55738 0.2124 0.0
C493 C 0.20325 0.52514 0.17821 0.0
C494 C 0.22416 0.6827 0.29489 0.0
C495 C 0.18331 0.68379 0.30439 0.0
C496 C 0.22447 0.65093 0.25919 0.0
C497 C 0.18412 0.62016 0.23163 0.0
C498 C 0.14345 0.62192 0.2402 0.0
C499 C 0.14294 0.65324 0.27673 0.0
H500 H 0.68715 0.1581 0.53228 0.0
H501 H 0.64419 0.21719 0.40767 0.0
H502 H 0.62563 0.15335 0.58933 0.0
H503 H 0.58346 0.21349 0.46548 0.0
H504 H 0.5383 0.25826 0.62617 0.0
H505 H 0.5939 0.25725 0.56402 0.0
H506 H 0.52836 0.10903 0.58013 0.0
H507 H 0.47089 0.10962 0.64024 0.0
C508 C 0.66456 0.17002 0.51711 0.0
C509 C 0.67046 0.18812 0.46562 0.0
C510 C 0.62931 0.16704 0.54961 0.0
C511 C 0.60008 0.18309 0.53159 0.0
C512 C 0.60573 0.20095 0.48008 0.0
C513 C 0.64027 0.2029 0.4471 0.0
C514 C 0.53504 0.22536 0.6155 0.0
C515 C 0.49977 0.18395 0.63718 0.0
C516 C 0.56699 0.22485 0.58025 0.0
C517 C 0.56505 0.18305 0.56728 0.0
C518 C 0.53035 0.14164 0.5896 0.0
C519 C 0.49763 0.14203 0.62389 0.0
H520 H 0.34274 0.45671 0.9503 0.0
H521 H 0.28733 0.5471 0.97951 0.0
H522 H 0.39825 0.51316 0.88723 0.0
H523 H 0.34299 0.60352 0.91734 0.0
H524 H 0.49043 0.71248 0.86181 0.0
H525 H 0.43346 0.65314 0.92 0.0
H526 H 0.39492 0.55181 0.79556 0.0
H527 H 0.45174 0.61151 0.73649 0.0
C528 C 0.34254 0.48864 0.94324 0.0
C529 C 0.31111 0.49783 0.96988 0.0
C530 C 0.37397 0.52067 0.90703 0.0
C531 C 0.3749 0.56266 0.89776 0.0
C532 C 0.34316 0.57154 0.92415 0.0
C533 C 0.31132 0.53927 0.95955 0.0
C534 C 0.46993 0.67757 0.84671 0.0
C535 C 0.47551 0.66669 0.79447 0.0
C536 C 0.43719 0.64371 0.88001 0.0
C537 C 0.40984 0.59805 0.86213 0.0
C538 C 0.41579 0.5868 0.81023 0.0
C539 C 0.44807 0.62096 0.77647 0.0
H540 H 0.74254 0.29 0.31809 0.0
H541 H 0.88953 0.35217 0.29297 0.0
H542 H 0.73949 0.3427 0.25297 0.0
H543 H 0.8863 0.40455 0.22694 0.0
H544 H 0.84102 0.4526 0.07231 0.0
H545 H 0.84481 0.39727 0.13332 0.0
H546 H 0.77673 0.43345 0.25367 0.0
H547 H 0.77351 0.48896 0.19359 0.0
C548 C 0.77412 0.31478 0.29836 0.0
C549 C 0.81634 0.31739 0.31074 0.0
C550 C 0.77237 0.34492 0.26125 0.0
C551 C 0.81268 0.37766 0.23514 0.0
C552 C 0.85474 0.37944 0.24643 0.0
C553 C 0.85663 0.34979 0.28435 0.0
C554 C 0.82684 0.44864 0.11176 0.0
C555 C 0.80699 0.47513 0.12814 0.0
C556 C 0.82922 0.41722 0.14664 0.0
C557 C 0.81093 0.41112 0.19801 0.0
C558 C 0.79077 0.43729 0.21413 0.0
C559 C 0.78917 0.46922 0.17977 0.0
H560 H 0.28428 0.77886 0.52797 0.0
H561 H 0.38607 0.83992 0.40347 0.0
H562 H 0.34317 0.78167 0.58741 0.0
H563 H 0.44531 0.84327 0.46378 0.0
H564 H 0.53957 0.88687 0.61911 0.0
H565 H 0.48346 0.88582 0.55531 0.0
H566 H 0.39266 0.74059 0.5867 0.0
H567 H 0.44874 0.74143 0.64954 0.0
C568 C 0.31927 0.79308 0.51332 0.0
C569 C 0.3305 0.80906 0.46092 0.0
C570 C 0.35289 0.79449 0.54734 0.0
C571 C 0.39865 0.81259 0.53006 0.0
C572 C 0.41024 0.82932 0.47802 0.0
C573 C 0.37633 0.82716 0.44354 0.0
C574 C 0.50761 0.85481 0.61219 0.0
C575 C 0.49823 0.81431 0.63934 0.0
C576 C 0.47576 0.85415 0.57557 0.0
C577 C 0.43375 0.81317 0.5664 0.0
C578 C 0.42464 0.77269 0.5934 0.0
C579 C 0.45673 0.77317 0.62919 0.0
H580 H 0.7068 0.44913 0.98028 0.0
H581 H 0.65383 0.5413 0.94902 0.0
H582 H 0.65223 0.3938 0.9164 0.0
H583 H 0.59938 0.4859 0.88425 0.0
H584 H 0.54673 0.38784 0.73286 0.0
H585 H 0.60329 0.44707 0.79274 0.0
H586 H 0.56178 0.34534 0.91717 0.0
H587 H 0.50516 0.28657 0.85826 0.0
C588 C 0.6836 0.4576 0.95949 0.0
C589 C 0.68413 0.4992 0.96979 0.0
C590 C 0.65238 0.42595 0.92308 0.0
C591 C 0.62158 0.4356 0.89565 0.0
C592 C 0.62293 0.4778 0.90482 0.0
C593 C 0.65373 0.50922 0.94203 0.0
C594 C 0.54972 0.37821 0.77301 0.0
C595 C 0.52153 0.33253 0.79078 0.0
C596 C 0.58186 0.4121 0.80723 0.0
C597 C 0.5869 0.40059 0.85938 0.0
C598 C 0.5588 0.35498 0.87701 0.0
C599 C 0.52625 0.32143 0.84327 0.0
loop_
_geom_bond_atom_site_label_1
_geom_bond_atom_site_label_2
_geom_bond_distance
_geom_bond_site_symmetry_2
_ccdc_geom_bond_type
Gd0 C3 2.818 . S
Gd0 O20 2.377 . S
Gd0 O22 2.448 . S
Gd0 O23 2.506 . S
Gd0 O24 2.435 . S
Gd0 O25 2.717 1_556 S
Gd0 O27 2.395 1_556 S
Gd0 O31 2.327 . S
Gd1 C12 2.818 . S
Gd1 O21 2.395 1_554 S
Gd1 O25 2.327 . S
Gd1 O26 2.377 . S
Gd1 O28 2.448 . S
Gd1 O29 2.506 . S
Gd1 O30 2.435 . S
Gd1 O31 2.717 1_554 S
C2 O20 1.240 . S
C2 O21 1.240 . S
C3 Gd0 2.818 . S
C3 C4 1.510 . S
C3 O22 1.249 . S
C3 O23 1.252 . S
C4 C3 1.510 . S
C4 C5 1.404 . S
C4 C6 1.352 . S
C5 C4 1.404 . S
C5 C9 1.389 . S
C5 H32 0.930 . S
C6 C4 1.352 . S
C6 C8 1.374 . S
C6 H33 0.931 . S
C7 C8 1.359 . S
C7 C9 1.364 . S
C8 C6 1.374 . S
C8 C7 1.359 . S
C8 H34 0.931 . S
C9 C5 1.389 . S
C9 C7 1.364 . S
C9 H35 0.931 . S
C10 O24 1.256 1_554 S
C10 O25 1.257 . S
C11 O26 1.240 . S
C11 O27 1.240 . S
C12 Gd1 2.818 . S
C12 C13 1.510 . S
C12 O28 1.249 . S
C12 O29 1.252 . S
C13 C12 1.510 . S
C13 C14 1.404 . S
C13 C15 1.352 . S
C14 C13 1.404 . S
C14 C18 1.389 . S
C14 H36 0.930 . S
C15 C13 1.352 . S
C15 C17 1.374 . S
C15 H37 0.931 . S
C16 C17 1.359 . S
C16 C18 1.364 . S
C17 C15 1.374 . S
C17 C16 1.359 . S
C17 H38 0.931 . S
C18 C14 1.389 . S
C18 C16 1.364 . S
C18 H39 0.931 . S
C19 O30 1.256 1_556 S
C19 O31 1.257 . S
O20 Gd0 2.377 . S
O20 C2 1.240 . S
O21 Gd1 2.395 1_556 S
O21 C2 1.240 . S
O22 Gd0 2.448 . S
O22 C3 1.249 . S
O23 Gd0 2.506 . S
O23 C3 1.252 . S
O24 Gd0 2.435 . S
O24 C10 1.256 1_556 S
O25 Gd0 2.717 1_554 S
O25 Gd1 2.327 . S
O25 C10 1.257 . S
O26 Gd1 2.377 . S
O26 C11 1.240 . S
O27 Gd0 2.395 1_554 S
O27 C11 1.240 . S
O28 Gd1 2.448 . S
O28 C12 1.249 . S
O29 Gd1 2.506 . S
O29 C12 1.252 . S
O30 Gd1 2.435 . S
O30 C19 1.256 1_554 S
O31 Gd0 2.327 . S
O31 Gd1 2.717 1_556 S
O31 C19 1.257 . S
H32 C5 0.930 . S
H33 C6 0.931 . S
H34 C8 0.931 . S
H35 C9 0.931 . S
H36 C14 0.930 . S
H37 C15 0.931 . S
H38 C17 0.931 . S
H39 C18 0.931 . S
Gd40 C43 2.818 . S
Gd40 O60 2.377 . S
Gd40 O62 2.448 . S
Gd40 O63 2.506 . S
Gd40 O64 2.435 . S
Gd40 O65 2.717 . S
Gd40 O67 2.395 . S
Gd40 O71 2.327 . S
Gd41 C52 2.818 . S
Gd41 O61 2.395 . S
Gd41 O65 2.327 . S
Gd41 O66 2.377 . S
Gd41 O68 2.448 . S
Gd41 O69 2.506 . S
Gd41 O70 2.435 . S
Gd41 O71 2.717 . S
C42 O60 1.240 . S
C42 O61 1.240 . S
C43 Gd40 2.818 . S
C43 C44 1.510 . S
C43 O62 1.249 . S
C43 O63 1.252 . S
C44 C43 1.510 . S
C44 C45 1.404 . S
C44 C46 1.352 . S
C45 C44 1.404 . S
C45 C49 1.389 . S
C45 H72 0.930 . S
C46 C44 1.352 . S
C46 C48 1.374 . S
C46 H73 0.931 . S
C47 C48 1.359 . S
C47 C49 1.364 . S
C48 C46 1.374 . S
C48 C47 1.359 . S
C48 H74 0.931 . S
C49 C45 1.389 . S
C49 C47 1.364 . S
C49 H75 0.931 . S
C50 O64 1.256 . S
C50 O65 1.257 . S
C51 O66 1.240 . S
C51 O67 1.240 . S
C52 Gd41 2.818 . S
C52 C53 1.510 . S
C52 O68 1.249 . S
C52 O69 1.252 . S
C53 C52 1.510 . S
C53 C54 1.404 . S
C53 C55 1.352 . S
C54 C53 1.404 . S
C54 C58 1.389 . S
C54 H76 0.930 . S
C55 C53 1.352 . S
C55 C57 1.374 . S
C55 H77 0.931 . S
C56 C57 1.359 . S
C56 C58 1.364 . S
C57 C55 1.374 . S
C57 C56 1.359 . S
C57 H78 0.931 . S
C58 C54 1.389 . S
C58 C56 1.364 . S
C58 H79 0.931 . S
C59 O70 1.256 . S
C59 O71 1.257 . S
O60 Gd40 2.377 . S
O60 C42 1.240 . S
O61 Gd41 2.395 . S
O61 C42 1.240 . S
O62 Gd40 2.448 . S
O62 C43 1.249 . S
O63 Gd40 2.506 . S
O63 C43 1.252 . S
O64 Gd40 2.435 . S
O64 C50 1.256 . S
O65 Gd40 2.717 . S
O65 Gd41 2.327 . S
O65 C50 1.257 . S
O66 Gd41 2.377 . S
O66 C51 1.240 . S
O67 Gd40 2.395 . S
O67 C51 1.240 . S
O68 Gd41 2.448 . S
O68 C52 1.249 . S
O69 Gd41 2.506 . S
O69 C52 1.252 . S
O70 Gd41 2.435 . S
O70 C59 1.256 . S
O71 Gd40 2.327 . S
O71 Gd41 2.717 . S
O71 C59 1.257 . S
H72 C45 0.930 . S
H73 C46 0.931 . S
H74 C48 0.931 . S
H75 C49 0.931 . S
H76 C54 0.930 . S
H77 C55 0.931 . S
H78 C57 0.931 . S
H79 C58 0.931 . S
Gd80 C83 2.818 . S
Gd80 O100 2.377 . S
Gd80 O102 2.448 . S
Gd80 O103 2.506 . S
Gd80 O104 2.435 . S
Gd80 O105 2.717 . S
Gd80 O107 2.395 . S
Gd80 O111 2.327 . S
Gd81 C92 2.818 . S
Gd81 O101 2.395 . S
Gd81 O105 2.327 . S
Gd81 O106 2.377 . S
Gd81 O108 2.448 . S
Gd81 O109 2.506 . S
Gd81 O110 2.435 . S
Gd81 O111 2.717 . S
C82 O100 1.240 . S
C82 O101 1.240 . S
C83 Gd80 2.818 . S
C83 C84 1.510 . S
C83 O102 1.249 . S
C83 O103 1.252 . S
C84 C83 1.510 . S
C84 C85 1.404 . S
C84 C86 1.352 . S
C85 C84 1.404 . S
C85 C89 1.389 . S
C85 H112 0.930 . S
C86 C84 1.352 . S
C86 C88 1.374 . S
C86 H113 0.931 . S
C87 C88 1.359 . S
C87 C89 1.364 . S
C88 C86 1.374 . S
C88 C87 1.359 . S
C88 H114 0.931 . S
C89 C85 1.389 . S
C89 C87 1.364 . S
C89 H115 0.931 . S
C90 O104 1.256 . S
C90 O105 1.257 . S
C91 O106 1.240 . S
C91 O107 1.240 . S
C92 Gd81 2.818 . S
C92 C93 1.510 . S
C92 O108 1.249 . S
C92 O109 1.252 . S
C93 C92 1.510 . S
C93 C94 1.404 . S
C93 C95 1.352 . S
C94 C93 1.404 . S
C94 C98 1.389 . S
C94 H116 0.930 . S
C95 C93 1.352 . S
C95 C97 1.374 . S
C95 H117 0.931 . S
C96 C97 1.359 1_554 S
C96 C98 1.364 1_554 S
C97 C95 1.374 . S
C97 C96 1.359 1_556 S
C97 H118 0.931 1_556 S
C98 C94 1.389 . S
C98 C96 1.364 1_556 S
C98 H119 0.931 . S
C99 O110 1.256 . S
C99 O111 1.257 . S
O100 Gd80 2.377 . S
O100 C82 1.240 . S
O101 Gd81 2.395 . S
O101 C82 1.240 . S
O102 Gd80 2.448 . S
O102 C83 1.249 . S
O103 Gd80 2.506 . S
O103 C83 1.252 . S
O104 Gd80 2.435 . S
O104 C90 1.256 . S
O105 Gd80 2.717 . S
O105 Gd81 2.327 . S
O105 C90 1.257 . S
O106 Gd81 2.377 . S
O106 C91 1.240 . S
O107 Gd80 2.395 . S
O107 C91 1.240 . S
O108 Gd81 2.448 . S
O108 C92 1.249 . S
O109 Gd81 2.506 . S
O109 C92 1.252 . S
O110 Gd81 2.435 . S
O110 C99 1.256 . S
O111 Gd80 2.327 . S
O111 Gd81 2.717 . S
O111 C99 1.257 . S
H112 C85 0.930 . S
H113 C86 0.931 . S
H114 C88 0.931 . S
H115 C89 0.931 . S
H116 C94 0.930 . S
H117 C95 0.931 . S
H118 C97 0.931 1_554 S
H119 C98 0.931 . S
Gd120 C123 2.818 . S
Gd120 O140 2.377 . S
Gd120 O142 2.448 . S
Gd120 O143 2.506 . S
Gd120 O144 2.435 . S
Gd120 O145 2.717 1_556 S
Gd120 O147 2.395 1_556 S
Gd120 O151 2.327 . S
Gd121 C132 2.818 . S
Gd121 O141 2.395 1_554 S
Gd121 O145 2.327 . S
Gd121 O146 2.377 . S
Gd121 O148 2.448 . S
Gd121 O149 2.506 . S
Gd121 O150 2.435 . S
Gd121 O151 2.717 1_554 S
C122 O140 1.240 . S
C122 O141 1.240 . S
C123 Gd120 2.818 . S
C123 C124 1.510 . S
C123 O142 1.249 . S
C123 O143 1.252 . S
C124 C123 1.510 . S
C124 C125 1.404 . S
C124 C126 1.352 . S
C125 C124 1.404 . S
C125 C129 1.389 . S
C125 H152 0.930 . S
C126 C124 1.352 . S
C126 C128 1.374 . S
C126 H153 0.931 . S
C127 C128 1.359 . S
C127 C129 1.364 . S
C128 C126 1.374 . S
C128 C127 1.359 . S
C128 H154 0.931 . S
C129 C125 1.389 . S
C129 C127 1.364 . S
C129 H155 0.931 . S
C130 O144 1.256 1_554 S
C130 O145 1.257 . S
C131 O146 1.240 . S
C131 O147 1.240 . S
C132 Gd121 2.818 . S
C132 C133 1.510 . S
C132 O148 1.249 . S
C132 O149 1.252 . S
C133 C132 1.510 . S
C133 C134 1.404 . S
C133 C135 1.352 . S
C134 C133 1.404 . S
C134 C138 1.389 . S
C134 H156 0.930 . S
C135 C133 1.352 . S
C135 C137 1.374 . S
C135 H157 0.931 . S
C136 C137 1.359 . S
C136 C138 1.364 . S
C137 C135 1.374 . S
C137 C136 1.359 . S
C137 H158 0.931 . S
C138 C134 1.389 . S
C138 C136 1.364 . S
C138 H159 0.931 . S
C139 O150 1.256 1_556 S
C139 O151 1.257 . S
O140 Gd120 2.377 . S
O140 C122 1.240 . S
O141 Gd121 2.395 1_556 S
O141 C122 1.240 . S
O142 Gd120 2.448 . S
O142 C123 1.249 . S
O143 Gd120 2.506 . S
O143 C123 1.252 . S
O144 Gd120 2.435 . S
O144 C130 1.256 1_556 S
O145 Gd120 2.717 1_554 S
O145 Gd121 2.327 . S
O145 C130 1.257 . S
O146 Gd121 2.377 . S
O146 C131 1.240 . S
O147 Gd120 2.395 1_554 S
O147 C131 1.240 . S
O148 Gd121 2.448 . S
O148 C132 1.249 . S
O149 Gd121 2.506 . S
O149 C132 1.252 . S
O150 Gd121 2.435 . S
O150 C139 1.256 1_554 S
O151 Gd120 2.327 . S
O151 Gd121 2.717 1_556 S
O151 C139 1.257 . S
H152 C125 0.930 . S
H153 C126 0.931 . S
H154 C128 0.931 . S
H155 C129 0.931 . S
H156 C134 0.930 . S
H157 C135 0.931 . S
H158 C137 0.931 . S
H159 C138 0.931 . S
Gd160 C163 2.818 . S
Gd160 O180 2.377 . S
Gd160 O182 2.448 . S
Gd160 O183 2.506 . S
Gd160 O184 2.435 . S
Gd160 O185 2.717 . S
Gd160 O187 2.395 . S
Gd160 O191 2.327 . S
Gd161 C172 2.818 . S
Gd161 O181 2.395 . S
Gd161 O185 2.327 . S
Gd161 O186 2.377 . S
Gd161 O188 2.448 . S
Gd161 O189 2.506 . S
Gd161 O190 2.435 . S
Gd161 O191 2.717 . S
C162 O180 1.240 . S
C162 O181 1.240 . S
C163 Gd160 2.818 . S
C163 C164 1.510 . S
C163 O182 1.249 . S
C163 O183 1.252 . S
C164 C163 1.510 . S
C164 C165 1.404 . S
C164 C166 1.352 . S
C165 C164 1.404 . S
C165 C169 1.389 . S
C165 H192 0.930 . S
C166 C164 1.352 . S
C166 C168 1.374 . S
C166 H193 0.931 . S
C167 C168 1.359 . S
C167 C169 1.364 . S
C168 C166 1.374 . S
C168 C167 1.359 . S
C168 H194 0.931 . S
C169 C165 1.389 . S
C169 C167 1.364 . S
C169 H195 0.931 . S
C170 O184 1.256 . S
C170 O185 1.257 . S
C171 O186 1.240 . S
C171 O187 1.240 . S
C172 Gd161 2.818 . S
C172 C173 1.510 . S
C172 O188 1.249 . S
C172 O189 1.252 . S
C173 C172 1.510 . S
C173 C174 1.404 . S
C173 C175 1.352 . S
C174 C173 1.404 . S
C174 C178 1.389 . S
C174 H196 0.930 . S
C175 C173 1.352 . S
C175 C177 1.374 . S
C175 H197 0.931 . S
C176 C177 1.359 . S
C176 C178 1.364 . S
C177 C175 1.374 . S
C177 C176 1.359 . S
C177 H198 0.931 . S
C178 C174 1.389 . S
C178 C176 1.364 . S
C178 H199 0.931 . S
C179 O190 1.256 . S
C179 O191 1.257 . S
O180 Gd160 2.377 . S
O180 C162 1.240 . S
O181 Gd161 2.395 . S
O181 C162 1.240 . S
O182 Gd160 2.448 . S
O182 C163 1.249 . S
O183 Gd160 2.506 . S
O183 C163 1.252 . S
O184 Gd160 2.435 . S
O184 C170 1.256 . S
O185 Gd160 2.717 . S
O185 Gd161 2.327 . S
O185 C170 1.257 . S
O186 Gd161 2.377 . S
O186 C171 1.240 . S
O187 Gd160 2.395 . S
O187 C171 1.240 . S
O188 Gd161 2.448 . S
O188 C172 1.249 . S
O189 Gd161 2.506 . S
O189 C172 1.252 . S
O190 Gd161 2.435 . S
O190 C179 1.256 . S
O191 Gd160 2.327 . S
O191 Gd161 2.717 . S
O191 C179 1.257 . S
H192 C165 0.930 . S
H193 C166 0.931 . S
H194 C168 0.931 . S
H195 C169 0.931 . S
H196 C174 0.930 . S
H197 C175 0.931 . S
H198 C177 0.931 . S
H199 C178 0.931 . S
Gd200 C203 2.818 . S
Gd200 O220 2.377 . S
Gd200 O222 2.448 . S
Gd200 O223 2.506 . S
Gd200 O224 2.435 . S
Gd200 O225 2.717 . S
Gd200 O227 2.395 . S
Gd200 O231 2.327 . S
Gd201 C212 2.818 . S
Gd201 O221 2.395 . S
Gd201 O225 2.327 . S
Gd201 O226 2.377 . S
Gd201 O228 2.448 . S
Gd201 O229 2.506 . S
Gd201 O230 2.435 . S
Gd201 O231 2.717 . S
C202 O220 1.240 . S
C202 O221 1.240 . S
C203 Gd200 2.818 . S
C203 C204 1.510 . S
C203 O222 1.249 . S
C203 O223 1.252 . S
C204 C203 1.510 . S
C204 C205 1.404 . S
C204 C206 1.352 . S
C205 C204 1.404 . S
C205 C209 1.389 . S
C205 H232 0.930 . S
C206 C204 1.352 . S
C206 C208 1.374 . S
C206 H233 0.931 . S
C207 C208 1.359 . S
C207 C209 1.364 . S
C208 C206 1.374 . S
C208 C207 1.359 . S
C208 H234 0.931 . S
C209 C205 1.389 . S
C209 C207 1.364 . S
C209 H235 0.931 . S
C210 O224 1.256 . S
C210 O225 1.257 . S
C211 O226 1.240 . S
C211 O227 1.240 . S
C212 Gd201 2.818 . S
C212 C213 1.510 . S
C212 O228 1.249 . S
C212 O229 1.252 . S
C213 C212 1.510 . S
C213 C214 1.404 . S
C213 C215 1.352 . S
C214 C213 1.404 . S
C214 C218 1.389 . S
C214 H236 0.930 . S
C215 C213 1.352 . S
C215 C217 1.374 . S
C215 H237 0.931 . S
C216 C217 1.359 1_554 S
C216 C218 1.364 1_554 S
C217 C215 1.374 . S
C217 C216 1.359 1_556 S
C217 H238 0.931 1_556 S
C218 C214 1.389 . S
C218 C216 1.364 1_556 S
C218 H239 0.931 . S
C219 O230 1.256 . S
C219 O231 1.257 . S
O220 Gd200 2.377 . S
O220 C202 1.240 . S
O221 Gd201 2.395 . S
O221 C202 1.240 . S
O222 Gd200 2.448 . S
O222 C203 1.249 . S
O223 Gd200 2.506 . S
O223 C203 1.252 . S
O224 Gd200 2.435 . S
O224 C210 1.256 . S
O225 Gd200 2.717 . S
O225 Gd201 2.327 . S
O225 C210 1.257 . S
O226 Gd201 2.377 . S
O226 C211 1.240 . S
O227 Gd200 2.395 . S
O227 C211 1.240 . S
O228 Gd201 2.448 . S
O228 C212 1.249 . S
O229 Gd201 2.506 . S
O229 C212 1.252 . S
O230 Gd201 2.435 . S
O230 C219 1.256 . S
O231 Gd200 2.327 . S
O231 Gd201 2.717 . S
O231 C219 1.257 . S
H232 C205 0.930 . S
H233 C206 0.931 . S
H234 C208 0.931 . S
H235 C209 0.931 . S
H236 C214 0.930 . S
H237 C215 0.931 . S
H238 C217 0.931 1_554 S
H239 C218 0.931 . S
H240 C248 0.950 . S
H241 C253 0.950 . S
H242 C250 0.950 . S
H243 C252 0.950 . S
H244 C254 0.950 . S
H245 C256 0.950 . S
H246 C258 0.950 . S
H247 C259 0.950 . S
C248 H240 0.950 . S
C248 C249 1.386 . S
C248 C250 1.391 . S
C249 C248 1.386 . S
C249 C253 1.393 . S
C250 H242 0.950 . S
C250 C248 1.391 . S
C250 C251 1.400 . S
C251 C250 1.400 . S
C251 C252 1.398 . S
C251 C257 1.491 . S
C252 H243 0.950 . S
C252 C251 1.398 . S
C252 C253 1.391 . S
C253 H241 0.950 . S
C253 C249 1.393 . S
C253 C252 1.391 . S
C254 H244 0.950 . S
C254 C255 1.386 . S
C254 C256 1.391 . S
C255 C254 1.386 . S
C255 C259 1.393 . S
C256 H245 0.950 . S
C256 C254 1.391 . S
C256 C257 1.400 . S
C257 C251 1.491 . S
C257 C256 1.400 . S
C257 C258 1.398 . S
C258 H246 0.950 . S
C258 C257 1.398 . S
C258 C259 1.391 . S
C259 H247 0.950 . S
C259 C255 1.393 . S
C259 C258 1.391 . S
H260 C268 0.950 . S
H261 C273 0.950 . S
H262 C270 0.950 . S
H263 C272 0.950 . S
H264 C274 0.950 . S
H265 C276 0.950 . S
H266 C278 0.950 . S
H267 C279 0.950 . S
C268 H260 0.950 . S
C268 C269 1.386 . S
C268 C270 1.391 . S
C269 C268 1.386 . S
C269 C273 1.393 . S
C270 H262 0.950 . S
C270 C268 1.391 . S
C270 C271 1.400 . S
C271 C270 1.400 . S
C271 C272 1.398 . S
C271 C277 1.491 1_455 S
C272 H263 0.950 . S
C272 C271 1.398 . S
C272 C273 1.391 . S
C273 H261 0.950 . S
C273 C269 1.393 . S
C273 C272 1.391 . S
C274 H264 0.950 . S
C274 C275 1.386 . S
C274 C276 1.391 . S
C275 C274 1.386 . S
C275 C279 1.393 . S
C276 H265 0.950 . S
C276 C274 1.391 . S
C276 C277 1.400 . S
C277 C271 1.491 1_655 S
C277 C276 1.400 . S
C277 C278 1.398 . S
C278 H266 0.950 . S
C278 C277 1.398 . S
C278 C279 1.391 . S
C279 H267 0.950 . S
C279 C275 1.393 . S
C279 C278 1.391 . S
H280 C288 0.950 . S
H281 C293 0.950 . S
H282 C290 0.950 1_565 S
H283 C292 0.950 . S
H284 C294 0.950 . S
H285 C296 0.950 1_545 S
H286 C298 0.950 . S
H287 C299 0.950 . S
C288 H280 0.950 . S
C288 C289 1.386 . S
C288 C290 1.391 . S
C289 C288 1.386 . S
C289 C293 1.393 . S
C290 H282 0.950 1_545 S
C290 C288 1.391 . S
C290 C291 1.400 . S
C291 C290 1.400 . S
C291 C292 1.398 . S
C291 C297 1.491 1_545 S
C292 H283 0.950 . S
C292 C291 1.398 . S
C292 C293 1.391 . S
C293 H281 0.950 . S
C293 C289 1.393 . S
C293 C292 1.391 . S
C294 H284 0.950 . S
C294 C295 1.386 . S
C294 C296 1.391 . S
C295 C294 1.386 . S
C295 C299 1.393 . S
C296 H285 0.950 1_565 S
C296 C294 1.391 . S
C296 C297 1.400 . S
C297 C291 1.491 1_565 S
C297 C296 1.400 . S
C297 C298 1.398 . S
C298 H286 0.950 . S
C298 C297 1.398 . S
C298 C299 1.391 . S
C299 H287 0.950 . S
C299 C295 1.393 . S
C299 C298 1.391 . S
H300 C308 0.950 . S
H301 C313 0.950 . S
H302 C310 0.950 . S
H303 C312 0.950 . S
H304 C314 0.950 . S
H305 C316 0.950 . S
H306 C318 0.950 . S
H307 C319 0.950 . S
C308 H300 0.950 . S
C308 C309 1.386 . S
C308 C310 1.391 . S
C309 C308 1.386 . S
C309 C313 1.393 . S
C310 H302 0.950 . S
C310 C308 1.391 . S
C310 C311 1.400 . S
C311 C310 1.400 . S
C311 C312 1.398 . S
C311 C317 1.491 . S
C312 H303 0.950 . S
C312 C311 1.398 . S
C312 C313 1.391 . S
C313 H301 0.950 . S
C313 C309 1.393 . S
C313 C312 1.391 . S
C314 H304 0.950 . S
C314 C315 1.386 . S
C314 C316 1.391 . S
C315 C314 1.386 . S
C315 C319 1.393 . S
C316 H305 0.950 . S
C316 C314 1.391 . S
C316 C317 1.400 . S
C317 C311 1.491 . S
C317 C316 1.400 . S
C317 C318 1.398 . S
C318 H306 0.950 . S
C318 C317 1.398 . S
C318 C319 1.391 . S
C319 H307 0.950 . S
C319 C315 1.393 . S
C319 C318 1.391 . S
H320 C328 0.950 . S
H321 C333 0.950 . S
H322 C330 0.950 . S
H323 C332 0.950 1_655 S
H324 C334 0.950 . S
H325 C336 0.950 . S
H326 C338 0.950 1_455 S
H327 C339 0.950 . S
C328 H320 0.950 . S
C328 C329 1.386 . S
C328 C330 1.391 . S
C329 C328 1.386 . S
C329 C333 1.393 . S
C330 H322 0.950 . S
C330 C328 1.391 . S
C330 C331 1.400 . S
C331 C330 1.400 . S
C331 C332 1.398 . S
C331 C337 1.491 1_455 S
C332 H323 0.950 1_455 S
C332 C331 1.398 . S
C332 C333 1.391 . S
C333 H321 0.950 . S
C333 C329 1.393 . S
C333 C332 1.391 . S
C334 H324 0.950 . S
C334 C335 1.386 . S
C334 C336 1.391 . S
C335 C334 1.386 . S
C335 C339 1.393 . S
C336 H325 0.950 . S
C336 C334 1.391 . S
C336 C337 1.400 . S
C337 C331 1.491 1_655 S
C337 C336 1.400 . S
C337 C338 1.398 . S
C338 H326 0.950 1_655 S
C338 C337 1.398 . S
C338 C339 1.391 . S
C339 H327 0.950 . S
C339 C335 1.393 . S
C339 C338 1.391 . S
H340 C348 0.950 . S
H341 C353 0.950 . S
H342 C350 0.950 . S
H343 C352 0.950 . S
H344 C354 0.950 . S
H345 C356 0.950 . S
H346 C358 0.950 . S
H347 C359 0.950 . S
C348 H340 0.950 . S
C348 C349 1.386 . S
C348 C350 1.391 . S
C349 C348 1.386 . S
C349 C353 1.393 . S
C350 H342 0.950 . S
C350 C348 1.391 . S
C350 C351 1.400 . S
C351 C350 1.400 . S
C351 C352 1.398 . S
C351 C357 1.491 1_545 S
C352 H343 0.950 . S
C352 C351 1.398 . S
C352 C353 1.391 . S
C353 H341 0.950 . S
C353 C349 1.393 . S
C353 C352 1.391 . S
C354 H344 0.950 . S
C354 C355 1.386 . S
C354 C356 1.391 . S
C355 C354 1.386 . S
C355 C359 1.393 . S
C356 H345 0.950 . S
C356 C354 1.391 . S
C356 C357 1.400 . S
C357 C351 1.491 1_565 S
C357 C356 1.400 . S
C357 C358 1.398 . S
C358 H346 0.950 . S
C358 C357 1.398 . S
C358 C359 1.391 . S
C359 H347 0.950 . S
C359 C355 1.393 . S
C359 C358 1.391 . S
H360 C368 0.950 . S
H361 C373 0.950 . S
H362 C370 0.950 . S
H363 C372 0.950 . S
H364 C374 0.950 . S
H365 C376 0.950 . S
H366 C378 0.950 . S
H367 C379 0.950 . S
C368 H360 0.950 . S
C368 C369 1.386 . S
C368 C370 1.391 . S
C369 C368 1.386 . S
C369 C373 1.393 . S
C370 H362 0.950 . S
C370 C368 1.391 . S
C370 C371 1.400 . S
C371 C370 1.400 . S
C371 C372 1.398 . S
C371 C377 1.491 . S
C372 H363 0.950 . S
C372 C371 1.398 . S
C372 C373 1.391 . S
C373 H361 0.950 . S
C373 C369 1.393 . S
C373 C372 1.391 . S
C374 H364 0.950 . S
C374 C375 1.386 . S
C374 C376 1.391 . S
C375 C374 1.386 . S
C375 C379 1.393 . S
C376 H365 0.950 . S
C376 C374 1.391 . S
C376 C377 1.400 . S
C377 C371 1.491 . S
C377 C376 1.400 . S
C377 C378 1.398 . S
C378 H366 0.950 . S
C378 C377 1.398 . S
C378 C379 1.391 . S
C379 H367 0.950 . S
C379 C375 1.393 . S
C379 C378 1.391 . S
H380 C388 0.950 . S
H381 C393 0.950 . S
H382 C390 0.950 . S
H383 C392 0.950 . S
H384 C394 0.950 . S
H385 C396 0.950 . S
H386 C398 0.950 . S
H387 C399 0.950 . S
C388 H380 0.950 . S
C388 C389 1.386 . S
C388 C390 1.391 . S
C389 C388 1.386 . S
C389 C393 1.393 . S
C390 H382 0.950 . S
C390 C388 1.391 . S
C390 C391 1.400 . S
C391 C390 1.400 . S
C391 C392 1.398 . S
C391 C397 1.491 . S
C392 H383 0.950 . S
C392 C391 1.398 . S
C392 C393 1.391 . S
C393 H381 0.950 . S
C393 C389 1.393 . S
C393 C392 1.391 . S
C394 H384 0.950 . S
C394 C395 1.386 . S
C394 C396 1.391 . S
C395 C394 1.386 . S
C395 C399 1.393 . S
C396 H385 0.950 . S
C396 C394 1.391 . S
C396 C397 1.400 . S
C397 C391 1.491 . S
C397 C396 1.400 . S
C397 C398 1.398 . S
C398 H386 0.950 . S
C398 C397 1.398 . S
C398 C399 1.391 . S
C399 H387 0.950 . S
C399 C395 1.393 . S
C399 C398 1.391 . S
H400 C408 0.950 . S
H401 C413 0.950 . S
H402 C410 0.950 . S
H403 C412 0.950 . S
H404 C414 0.950 . S
H405 C416 0.950 . S
H406 C418 0.950 . S
H407 C419 0.950 . S
C408 H400 0.950 . S
C408 C409 1.386 . S
C408 C410 1.391 . S
C409 C408 1.386 . S
C409 C413 1.393 . S
C410 H402 0.950 . S
C410 C408 1.391 . S
C410 C411 1.400 . S
C411 C410 1.400 . S
C411 C412 1.398 . S
C411 C417 1.491 . S
C412 H403 0.950 . S
C412 C411 1.398 . S
C412 C413 1.391 . S
C413 H401 0.950 . S
C413 C409 1.393 . S
C413 C412 1.391 . S
C414 H404 0.950 . S
C414 C415 1.386 . S
C414 C416 1.391 . S
C415 C414 1.386 . S
C415 C419 1.393 . S
C416 H405 0.950 . S
C416 C414 1.391 . S
C416 C417 1.400 . S
C417 C411 1.491 . S
C417 C416 1.400 . S
C417 C418 1.398 . S
C418 H406 0.950 . S
C418 C417 1.398 . S
C418 C419 1.391 . S
C419 H407 0.950 . S
C419 C415 1.393 . S
C419 C418 1.391 . S
H420 C428 0.950 . S
H421 C433 0.950 . S
H422 C430 0.950 . S
H423 C432 0.950 . S
H424 C434 0.950 . S
H425 C436 0.950 . S
H426 C438 0.950 . S
H427 C439 0.950 . S
C428 H420 0.950 . S
C428 C429 1.386 . S
C428 C430 1.391 . S
C429 C428 1.386 . S
C429 C433 1.393 . S
C430 H422 0.950 . S
C430 C428 1.391 . S
C430 C431 1.400 . S
C431 C430 1.400 . S
C431 C432 1.398 . S
C431 C437 1.491 . S
C432 H423 0.950 . S
C432 C431 1.398 . S
C432 C433 1.391 . S
C433 H421 0.950 . S
C433 C429 1.393 . S
C433 C432 1.391 . S
C434 H424 0.950 . S
C434 C435 1.386 . S
C434 C436 1.391 . S
C435 C434 1.386 . S
C435 C439 1.393 . S
C436 H425 0.950 . S
C436 C434 1.391 . S
C436 C437 1.400 . S
C437 C431 1.491 . S
C437 C436 1.400 . S
C437 C438 1.398 . S
C438 H426 0.950 . S
C438 C437 1.398 . S
C438 C439 1.391 . S
C439 H427 0.950 . S
C439 C435 1.393 . S
C439 C438 1.391 . S
H440 C448 0.950 . S
H441 C453 0.950 . S
H442 C450 0.950 . S
H443 C452 0.950 . S
H444 C454 0.950 . S
H445 C456 0.950 . S
H446 C458 0.950 . S
H447 C459 0.950 . S
C448 H440 0.950 . S
C448 C449 1.386 . S
C448 C450 1.391 . S
C449 C448 1.386 . S
C449 C453 1.393 . S
C450 H442 0.950 . S
C450 C448 1.391 . S
C450 C451 1.400 . S
C451 C450 1.400 . S
C451 C452 1.398 . S
C451 C457 1.491 . S
C452 H443 0.950 . S
C452 C451 1.398 . S
C452 C453 1.391 . S
C453 H441 0.950 . S
C453 C449 1.393 . S
C453 C452 1.391 . S
C454 H444 0.950 . S
C454 C455 1.386 . S
C454 C456 1.391 . S
C455 C454 1.386 . S
C455 C459 1.393 . S
C456 H445 0.950 . S
C456 C454 1.391 . S
C456 C457 1.400 . S
C457 C451 1.491 . S
C457 C456 1.400 . S
C457 C458 1.398 . S
C458 H446 0.950 . S
C458 C457 1.398 . S
C458 C459 1.391 . S
C459 H447 0.950 . S
C459 C455 1.393 . S
C459 C458 1.391 . S
H460 C468 0.950 . S
H461 C473 0.950 . S
H462 C470 0.950 . S
H463 C472 0.950 . S
H464 C474 0.950 . S
H465 C476 0.950 . S
H466 C478 0.950 . S
H467 C479 0.950 . S
C468 H460 0.950 . S
C468 C469 1.386 . S
C468 C470 1.391 . S
C469 C468 1.386 . S
C469 C473 1.393 . S
C470 H462 0.950 . S
C470 C468 1.391 . S
C470 C471 1.400 . S
C471 C470 1.400 . S
C471 C472 1.398 . S
C471 C477 1.491 . S
C472 H463 0.950 . S
C472 C471 1.398 . S
C472 C473 1.391 . S
C473 H461 0.950 . S
C473 C469 1.393 . S
C473 C472 1.391 . S
C474 H464 0.950 . S
C474 C475 1.386 . S
C474 C476 1.391 . S
C475 C474 1.386 . S
C475 C479 1.393 . S
C476 H465 0.950 . S
C476 C474 1.391 . S
C476 C477 1.400 . S
C477 C471 1.491 . S
C477 C476 1.400 . S
C477 C478 1.398 . S
C478 H466 0.950 . S
C478 C477 1.398 . S
C478 C479 1.391 . S
C479 H467 0.950 . S
C479 C475 1.393 . S
C479 C478 1.391 . S
H480 C488 0.950 . S
H481 C493 0.950 . S
H482 C490 0.950 . S
H483 C492 0.950 . S
H484 C494 0.950 . S
H485 C496 0.950 . S
H486 C498 0.950 . S
H487 C499 0.950 . S
C488 H480 0.950 . S
C488 C489 1.386 . S
C488 C490 1.391 . S
C489 C488 1.386 . S
C489 C493 1.393 . S
C490 H482 0.950 . S
C490 C488 1.391 . S
C490 C491 1.400 . S
C491 C490 1.400 . S
C491 C492 1.398 . S
C491 C497 1.491 . S
C492 H483 0.950 . S
C492 C491 1.398 . S
C492 C493 1.391 . S
C493 H481 0.950 . S
C493 C489 1.393 . S
C493 C492 1.391 . S
C494 H484 0.950 . S
C494 C495 1.386 . S
C494 C496 1.391 . S
C495 C494 1.386 . S
C495 C499 1.393 . S
C496 H485 0.950 . S
C496 C494 1.391 . S
C496 C497 1.400 . S
C497 C491 1.491 . S
C497 C496 1.400 . S
C497 C498 1.398 . S
C498 H486 0.950 . S
C498 C497 1.398 . S
C498 C499 1.391 . S
C499 H487 0.950 . S
C499 C495 1.393 . S
C499 C498 1.391 . S
H500 C508 0.950 . S
H501 C513 0.950 . S
H502 C510 0.950 . S
H503 C512 0.950 . S
H504 C514 0.950 . S
H505 C516 0.950 . S
H506 C518 0.950 . S
H507 C519 0.950 . S
C508 H500 0.950 . S
C508 C509 1.386 . S
C508 C510 1.391 . S
C509 C508 1.386 . S
C509 C513 1.393 . S
C510 H502 0.950 . S
C510 C508 1.391 . S
C510 C511 1.400 . S
C511 C510 1.400 . S
C511 C512 1.398 . S
C511 C517 1.491 . S
C512 H503 0.950 . S
C512 C511 1.398 . S
C512 C513 1.391 . S
C513 H501 0.950 . S
C513 C509 1.393 . S
C513 C512 1.391 . S
C514 H504 0.950 . S
C514 C515 1.386 . S
C514 C516 1.391 . S
C515 C514 1.386 . S
C515 C519 1.393 . S
C516 H505 0.950 . S
C516 C514 1.391 . S
C516 C517 1.400 . S
C517 C511 1.491 . S
C517 C516 1.400 . S
C517 C518 1.398 . S
C518 H506 0.950 . S
C518 C517 1.398 . S
C518 C519 1.391 . S
C519 H507 0.950 . S
C519 C515 1.393 . S
C519 C518 1.391 . S
H520 C528 0.950 . S
H521 C533 0.950 1_554 S
H522 C530 0.950 . S
H523 C532 0.950 . S
H524 C534 0.950 . S
H525 C536 0.950 . S
H526 C538 0.950 . S
H527 C539 0.950 . S
C528 H520 0.950 . S
C528 C529 1.386 . S
C528 C530 1.391 . S
C529 C528 1.386 . S
C529 C533 1.393 . S
C530 H522 0.950 . S
C530 C528 1.391 . S
C530 C531 1.400 . S
C531 C530 1.400 . S
C531 C532 1.398 . S
C531 C537 1.491 . S
C532 H523 0.950 . S
C532 C531 1.398 . S
C532 C533 1.391 . S
C533 H521 0.950 1_556 S
C533 C529 1.393 . S
C533 C532 1.391 . S
C534 H524 0.950 . S
C534 C535 1.386 . S
C534 C536 1.391 . S
C535 C534 1.386 . S
C535 C539 1.393 . S
C536 H525 0.950 . S
C536 C534 1.391 . S
C536 C537 1.400 . S
C537 C531 1.491 . S
C537 C536 1.400 . S
C537 C538 1.398 . S
C538 H526 0.950 . S
C538 C537 1.398 . S
C538 C539 1.391 . S
C539 H527 0.950 . S
C539 C535 1.393 . S
C539 C538 1.391 . S
H540 C548 0.950 . S
H541 C553 0.950 . S
H542 C550 0.950 . S
H543 C552 0.950 . S
H544 C554 0.950 . S
H545 C556 0.950 . S
H546 C558 0.950 . S
H547 C559 0.950 . S
C548 H540 0.950 . S
C548 C549 1.386 . S
C548 C550 1.391 . S
C549 C548 1.386 . S
C549 C553 1.393 . S
C550 H542 0.950 . S
C550 C548 1.391 . S
C550 C551 1.400 . S
C551 C550 1.400 . S
C551 C552 1.398 . S
C551 C557 1.491 . S
C552 H543 0.950 . S
C552 C551 1.398 . S
C552 C553 1.391 . S
C553 H541 0.950 . S
C553 C549 1.393 . S
C553 C552 1.391 . S
C554 H544 0.950 . S
C554 C555 1.386 . S
C554 C556 1.391 . S
C555 C554 1.386 . S
C555 C559 1.393 . S
C556 H545 0.950 . S
C556 C554 1.391 . S
C556 C557 1.400 . S
C557 C551 1.491 . S
C557 C556 1.400 . S
C557 C558 1.398 . S
C558 H546 0.950 . S
C558 C557 1.398 . S
C558 C559 1.391 . S
C559 H547 0.950 . S
C559 C555 1.393 . S
C559 C558 1.391 . S
H560 C568 0.950 . S
H561 C573 0.950 . S
H562 C570 0.950 . S
H563 C572 0.950 . S
H564 C574 0.950 . S
H565 C576 0.950 . S
H566 C578 0.950 . S
H567 C579 0.950 . S
C568 H560 0.950 . S
C568 C569 1.386 . S
C568 C570 1.391 . S
C569 C568 1.386 . S
C569 C573 1.393 . S
C570 H562 0.950 . S
C570 C568 1.391 . S
C570 C571 1.400 . S
C571 C570 1.400 . S
C571 C572 1.398 . S
C571 C577 1.491 . S
C572 H563 0.950 . S
C572 C571 1.398 . S
C572 C573 1.391 . S
C573 H561 0.950 . S
C573 C569 1.393 . S
C573 C572 1.391 . S
C574 H564 0.950 . S
C574 C575 1.386 . S
C574 C576 1.391 . S
C575 C574 1.386 . S
C575 C579 1.393 . S
C576 H565 0.950 . S
C576 C574 1.391 . S
C576 C577 1.400 . S
C577 C571 1.491 . S
C577 C576 1.400 . S
C577 C578 1.398 . S
C578 H566 0.950 . S
C578 C577 1.398 . S
C578 C579 1.391 . S
C579 H567 0.950 . S
C579 C575 1.393 . S
C579 C578 1.391 . S
H580 C588 0.950 . S
H581 C593 0.950 . S
H582 C590 0.950 . S
H583 C592 0.950 . S
H584 C594 0.950 . S
H585 C596 0.950 . S
H586 C598 0.950 . S
H587 C599 0.950 . S
C588 H580 0.950 . S
C588 C589 1.386 . S
C588 C590 1.391 . S
C589 C588 1.386 . S
C589 C593 1.393 . S
C590 H582 0.950 . S
C590 C588 1.391 . S
C590 C591 1.400 . S
C591 C590 1.400 . S
C591 C592 1.398 . S
C591 C597 1.491 . S
C592 H583 0.950 . S
C592 C591 1.398 . S
C592 C593 1.391 . S
C593 H581 0.950 . S
C593 C589 1.393 . S
C593 C592 1.391 . S
C594 H584 0.950 . S
C594 C595 1.386 . S
C594 C596 1.391 . S
C595 C594 1.386 . S
C595 C599 1.393 . S
C596 H585 0.950 . S
C596 C594 1.391 . S
C596 C597 1.400 . S
C597 C591 1.491 . S
C597 C596 1.400 . S
C597 C598 1.398 . S
C598 H586 0.950 . S
C598 C597 1.398 . S
C598 C599 1.391 . S
C599 H587 0.950 . S
C599 C595 1.393 . S
C599 C598 1.391 . S
C249 C210 1.373 . S
C255 C2 1.394 . S
C269 C10 1.355 . S
C275 C42 1.397 . S
C289 C50 1.373 . S
C295 C82 1.393 . S
C309 C90 1.371 . S
C315 C122 1.395 . S
C329 C162 1.393 . S
C335 C130 1.374 . S
C349 C202 1.397 . S
C355 C170 1.365 . S
C369 C7 1.518 . S
C375 C16 1.518 . S
C389 C47 1.521 1_556 S
C395 C56 1.521 . S
C409 C87 1.514 . S
C415 C96 1.514 . S
C429 C127 1.525 . S
C435 C136 1.525 . S
C449 C176 1.539 . S
C455 C167 1.539 1_556 S
C469 C207 1.541 . S
C475 C216 1.541 . S
C489 C11 1.658 . S
C495 C179 1.666 . S
C509 C51 1.648 . S
C515 C219 1.660 . S
C529 C19 1.665 . S
C535 C91 1.659 . S
C549 C59 1.661 . S
C555 C131 1.651 . S
C569 C171 1.648 . S
C575 C99 1.660 . S
C589 C139 1.660 . S
C595 C211 1.648 . S
