# Generated by pormake.
# Topology uki, (4)-cn, num edge types: 1
# Building blocks:
#     Node 0, Type 0, BuildingBlock: QUQFOY_clean_sbu_3, # of connection points: 4
#     Node 1, Type 0, BuildingBlock: QUQFOY_clean_sbu_3, # of connection points: 4
#     Node 2, Type 0, BuildingBlock: QUQFOY_clean_sbu_3, # of connection points: 4
#     Node 3, Type 0, BuildingBlock: QUQFOY_clean_sbu_3, # of connection points: 4
#     Node 4, Type 0, BuildingBlock: QUQFOY_clean_sbu_3, # of connection points: 4
#     Node 5, Type 0, BuildingBlock: QUQFOY_clean_sbu_3, # of connection points: 4
#     Node 6, Type 0, BuildingBlock: QUQFOY_clean_sbu_3, # of connection points: 4
#     Node 7, Type 0, BuildingBlock: QUQFOY_clean_sbu_3, # of connection points: 4
#     Node 8, Type 0, BuildingBlock: QUQFOY_clean_sbu_3, # of connection points: 4
#     Node 9, Type 0, BuildingBlock: QUQFOY_clean_sbu_3, # of connection points: 4
#     Node 10, Type 0, BuildingBlock: QUQFOY_clean_sbu_3, # of connection points: 4
#     Node 11, Type 0, BuildingBlock: QUQFOY_clean_sbu_3, # of connection points: 4
#     Node 12, Type 0, BuildingBlock: QUQFOY_clean_sbu_3, # of connection points: 4
#     Node 13, Type 0, BuildingBlock: QUQFOY_clean_sbu_3, # of connection points: 4
#     Node 14, Type 0, BuildingBlock: QUQFOY_clean_sbu_3, # of connection points: 4
#     Node 15, Type 0, BuildingBlock: QUQFOY_clean_sbu_3, # of connection points: 4
#     Edge 16, Type (0, 0), BuildingBlock: OJICUG_clean_linker_0, # of connection points: 2
#     Edge 17, Type (0, 0), BuildingBlock: OJICUG_clean_linker_0, # of connection points: 2
#     Edge 18, Type (0, 0), BuildingBlock: OJICUG_clean_linker_0, # of connection points: 2
#     Edge 19, Type (0, 0), BuildingBlock: OJICUG_clean_linker_0, # of connection points: 2
#     Edge 20, Type (0, 0), BuildingBlock: OJICUG_clean_linker_0, # of connection points: 2
#     Edge 21, Type (0, 0), BuildingBlock: OJICUG_clean_linker_0, # of connection points: 2
#     Edge 22, Type (0, 0), BuildingBlock: OJICUG_clean_linker_0, # of connection points: 2
#     Edge 23, Type (0, 0), BuildingBlock: OJICUG_clean_linker_0, # of connection points: 2
#     Edge 24, Type (0, 0), BuildingBlock: OJICUG_clean_linker_0, # of connection points: 2
#     Edge 25, Type (0, 0), BuildingBlock: OJICUG_clean_linker_0, # of connection points: 2
#     Edge 26, Type (0, 0), BuildingBlock: OJICUG_clean_linker_0, # of connection points: 2
#     Edge 27, Type (0, 0), BuildingBlock: OJICUG_clean_linker_0, # of connection points: 2
#     Edge 28, Type (0, 0), BuildingBlock: OJICUG_clean_linker_0, # of connection points: 2
#     Edge 29, Type (0, 0), BuildingBlock: OJICUG_clean_linker_0, # of connection points: 2
#     Edge 30, Type (0, 0), BuildingBlock: OJICUG_clean_linker_0, # of connection points: 2
#     Edge 31, Type (0, 0), BuildingBlock: OJICUG_clean_linker_0, # of connection points: 2
#     Edge 32, Type (0, 0), BuildingBlock: OJICUG_clean_linker_0, # of connection points: 2
#     Edge 33, Type (0, 0), BuildingBlock: OJICUG_clean_linker_0, # of connection points: 2
#     Edge 34, Type (0, 0), BuildingBlock: OJICUG_clean_linker_0, # of connection points: 2
#     Edge 35, Type (0, 0), BuildingBlock: OJICUG_clean_linker_0, # of connection points: 2
#     Edge 36, Type (0, 0), BuildingBlock: OJICUG_clean_linker_0, # of connection points: 2
#     Edge 37, Type (0, 0), BuildingBlock: OJICUG_clean_linker_0, # of connection points: 2
#     Edge 38, Type (0, 0), BuildingBlock: OJICUG_clean_linker_0, # of connection points: 2
#     Edge 39, Type (0, 0), BuildingBlock: OJICUG_clean_linker_0, # of connection points: 2
#     Edge 40, Type (0, 0), BuildingBlock: OJICUG_clean_linker_0, # of connection points: 2
#     Edge 41, Type (0, 0), BuildingBlock: OJICUG_clean_linker_0, # of connection points: 2
#     Edge 42, Type (0, 0), BuildingBlock: OJICUG_clean_linker_0, # of connection points: 2
#     Edge 43, Type (0, 0), BuildingBlock: OJICUG_clean_linker_0, # of connection points: 2
#     Edge 44, Type (0, 0), BuildingBlock: OJICUG_clean_linker_0, # of connection points: 2
#     Edge 45, Type (0, 0), BuildingBlock: OJICUG_clean_linker_0, # of connection points: 2
#     Edge 46, Type (0, 0), BuildingBlock: OJICUG_clean_linker_0, # of connection points: 2
#     Edge 47, Type (0, 0), BuildingBlock: OJICUG_clean_linker_0, # of connection points: 2
# Relax obj value: 0.094
# Max RMSD: 0.199
# Mean RMSD: 0.197
data_MOF--net-uki--node1-QUQFOY_clean_sbu_3--edge1-OJICUG_clean_linker_0
_symmetry_space_group_name_H-M    P1
_symmetry_Int_Tables_number       1
_symmetry_cell_setting            triclinic
loop_
_symmetry_equiv_pos_as_xyz
'x, y, z'
_cell_length_a     22.927664
_cell_length_b     22.897728
_cell_length_c     54.862706
_cell_angle_alpha  89.991667
_cell_angle_beta   90.018129
_cell_angle_gamma 89.891083
loop_
_atom_site_label
_atom_site_type_symbol
_atom_site_fract_x
_atom_site_fract_y
_atom_site_fract_z
_atom_type_partial_charge
C0 C 0.0526 0.10588 0.26371 0.0
O1 O 0.06157 0.13246 0.24379 0.0
Cd2 Cd 0.05237 0.23396 0.24857 0.0
O3 O 0.05626 0.13293 0.28396 0.0
Cd4 Cd 0.08287 0.2271 0.30303 0.0
C5 C 0.94436 0.22979 0.29458 0.0
O6 O 0.13516 0.27101 0.26957 0.0
O7 O 0.08593 0.3306 0.29227 0.0
O8 O 0.1628 0.17714 0.32417 0.0
C9 C 0.12432 0.32309 0.27591 0.0
O10 O 0.9624 0.2318 0.27263 0.0
C11 C 0.16078 0.20973 0.34286 0.0
O12 O 0.97987 0.2308 0.31234 0.0
O13 O 0.1211 0.24845 0.3435 0.0
C14 C 0.20788 0.7784 0.76528 0.0
O15 O 0.17422 0.81159 0.77741 0.0
Cd16 Cd 0.11521 0.88893 0.76026 0.0
O17 O 0.21276 0.78381 0.74226 0.0
Cd18 Cd 0.18123 0.84378 0.708 0.0
C19 C 0.23354 0.96305 0.737 0.0
O20 O 0.08329 0.86519 0.72063 0.0
O21 O 0.11857 0.91757 0.69133 0.0
O22 O 0.16149 0.77208 0.67688 0.0
C23 C 0.07674 0.90724 0.70576 0.0
O24 O 0.18931 0.96081 0.75104 0.0
C25 C 0.20274 0.78778 0.66288 0.0
O26 O 0.24445 0.92355 0.72124 0.0
O27 O 0.23711 0.82712 0.67061 0.0
C28 C 0.9484 0.87787 0.26359 0.0
O29 O 0.94021 0.8505 0.24378 0.0
Cd30 Cd 0.94933 0.74815 0.24817 0.0
O31 O 0.94489 0.85148 0.28395 0.0
Cd32 Cd 0.92065 0.75943 0.30436 0.0
C33 C 0.05935 0.75527 0.29318 0.0
O34 O 0.87152 0.70957 0.27169 0.0
O35 O 0.91648 0.65419 0.29768 0.0
O36 O 0.8314 0.80061 0.32029 0.0
C37 C 0.88178 0.65867 0.27972 0.0
O38 O 0.03978 0.7512 0.27151 0.0
C39 C 0.84005 0.78558 0.34225 0.0
O40 O 0.0252 0.75667 0.31143 0.0
O41 O 0.88811 0.76012 0.34703 0.0
C42 C 0.77992 0.20005 0.78495 0.0
O43 O 0.81359 0.16373 0.79539 0.0
Cd44 Cd 0.87199 0.09248 0.77324 0.0
O45 O 0.77422 0.20004 0.76192 0.0
Cd46 Cd 0.80268 0.14832 0.72562 0.0
C47 C 0.75297 0.02235 0.74952 0.0
O48 O 0.90345 0.12401 0.73406 0.0
O49 O 0.86011 0.07902 0.70426 0.0
O50 O 0.81925 0.22977 0.69876 0.0
C51 C 0.90566 0.0866 0.71693 0.0
O52 O 0.79916 0.02109 0.76242 0.0
C53 C 0.77788 0.21744 0.68424 0.0
O54 O 0.73962 0.06617 0.73628 0.0
O55 O 0.74493 0.175 0.68994 0.0
C56 C 0.04938 0.37752 0.98277 0.0
O57 O 0.06077 0.35225 0.00278 0.0
Cd58 Cd 0.04945 0.25055 0.00054 0.0
O59 O 0.04903 0.34879 0.96287 0.0
Cd60 Cd 0.07103 0.25171 0.94537 0.0
C61 C 0.93419 0.25134 0.95781 0.0
O62 O 0.12806 0.20967 0.97803 0.0
O63 O 0.07533 0.1489 0.95745 0.0
O64 O 0.14892 0.29815 0.92216 0.0
C65 C 0.11603 0.15723 0.97272 0.0
O66 O 0.9557 0.25107 0.97923 0.0
C67 C 0.14361 0.26517 0.90372 0.0
O68 O 0.96679 0.24851 0.93914 0.0
O69 O 0.10276 0.22778 0.90414 0.0
C70 C 0.28448 0.78333 0.97053 0.0
O71 O 0.32017 0.8175 0.96007 0.0
Cd72 Cd 0.37723 0.89059 0.98126 0.0
O73 O 0.27614 0.78592 0.99345 0.0
Cd74 Cd 0.30281 0.84026 0.02978 0.0
C75 C 0.25606 0.9639 0.00229 0.0
O76 O 0.40347 0.86038 0.02102 0.0
O77 O 0.36319 0.90974 0.05024 0.0
O78 O 0.31749 0.76076 0.05774 0.0
C79 C 0.40793 0.89931 0.03743 0.0
O80 O 0.30292 0.96281 0.98981 0.0
C81 C 0.27743 0.77599 0.07245 0.0
O82 O 0.24182 0.92235 0.0166 0.0
O83 O 0.24516 0.81869 0.06624 0.0
C84 C 0.95144 0.60874 0.98313 0.0
O85 O 0.94432 0.6353 0.00318 0.0
Cd86 Cd 0.95291 0.73694 -0.00042 0.0
O87 O 0.94671 0.63596 0.96295 0.0
Cd88 Cd 0.91939 0.73169 0.94523 0.0
C89 C 0.05829 0.7351 0.95252 0.0
O90 O 0.86897 0.77403 0.97958 0.0
O91 O 0.91586 0.83488 0.9567 0.0
O92 O 0.83747 0.6827 0.92536 0.0
C93 C 0.87869 0.82643 0.97346 0.0
O94 O 0.0411 0.73636 0.97459 0.0
C95 C 0.83725 0.71592 0.90685 0.0
O96 O 0.02209 0.73618 0.93499 0.0
O97 O 0.87702 0.75432 0.90554 0.0
C98 C 0.70755 0.20005 0.97746 0.0
O99 O 0.67234 0.16716 0.96604 0.0
Cd100 Cd 0.61703 0.0899 0.98529 0.0
O101 O 0.71554 0.19416 0.00028 0.0
Cd102 Cd 0.6893 0.13593 0.03551 0.0
C103 C 0.73974 0.01736 0.00572 0.0
O104 O 0.58989 0.11453 0.02556 0.0
O105 O 0.6295 0.06294 0.05427 0.0
O106 O 0.67269 0.21207 0.06482 0.0
C107 C 0.58548 0.07336 0.04099 0.0
O108 O 0.69354 0.01916 0.99281 0.0
C109 C 0.71394 0.19705 0.07899 0.0
O110 O 0.75234 0.05697 0.02118 0.0
O111 O 0.7471 0.15571 0.07205 0.0
C112 C 0.55167 0.60098 0.75922 0.0
O113 O 0.56391 0.62648 0.73936 0.0
Cd114 Cd 0.55123 0.72825 0.74206 0.0
O115 O 0.55076 0.62943 0.77917 0.0
Cd116 Cd 0.57271 0.72576 0.79706 0.0
C117 C 0.43586 0.72538 0.78468 0.0
O118 O 0.62786 0.77176 0.76478 0.0
O119 O 0.57265 0.82895 0.78617 0.0
O120 O 0.65362 0.67976 0.8187 0.0
C121 C 0.61374 0.8233 0.77086 0.0
O122 O 0.45767 0.72677 0.76334 0.0
C123 C 0.64924 0.7117 0.8375 0.0
O124 O 0.46823 0.72733 0.80348 0.0
O125 O 0.60716 0.74788 0.83816 0.0
C126 C 0.71662 0.27951 0.27891 0.0
O127 O 0.68181 0.31282 0.29038 0.0
Cd128 Cd 0.62674 0.39001 0.27068 0.0
O129 O 0.7239 0.28503 0.25605 0.0
Cd130 Cd 0.69635 0.34339 0.22109 0.0
C131 C 0.74911 0.46143 0.25013 0.0
O132 O 0.59615 0.36604 0.23057 0.0
O133 O 0.63865 0.41789 0.20261 0.0
O134 O 0.6772 0.26735 0.19205 0.0
C135 C 0.5933 0.40704 0.21496 0.0
O136 O 0.70318 0.46031 0.26318 0.0
C137 C 0.71791 0.28142 0.17751 0.0
O138 O 0.76095 0.42166 0.23463 0.0
O139 O 0.75218 0.32203 0.18412 0.0
C140 C 0.45172 0.37095 0.75795 0.0
O141 O 0.44829 0.34335 0.73799 0.0
Cd142 Cd 0.45611 0.24227 0.74361 0.0
O143 O 0.44317 0.34473 0.77815 0.0
Cd144 Cd 0.41215 0.24906 0.79505 0.0
C145 C 0.55165 0.24443 0.794 0.0
O146 O 0.36636 0.20665 0.75956 0.0
O147 O 0.41125 0.14588 0.78321 0.0
O148 O 0.32763 0.29706 0.81387 0.0
C149 C 0.3751 0.15432 0.76605 0.0
O150 O 0.54013 0.24317 0.7713 0.0
C151 C 0.32622 0.26283 0.83206 0.0
O152 O 0.51121 0.24355 0.80976 0.0
O153 O 0.36598 0.22437 0.83352 0.0
C154 C 0.2856 0.70271 0.27381 0.0
O155 O 0.32086 0.66977 0.28525 0.0
Cd156 Cd 0.37916 0.59406 0.2664 0.0
O157 O 0.27826 0.69745 0.25091 0.0
Cd158 Cd 0.30667 0.63841 0.21599 0.0
C159 C 0.25982 0.51787 0.24548 0.0
O160 O 0.40672 0.61958 0.22632 0.0
O161 O 0.36889 0.56644 0.19776 0.0
O162 O 0.32221 0.71233 0.18552 0.0
C163 C 0.41252 0.57835 0.21101 0.0
O164 O 0.30575 0.52072 0.25851 0.0
C165 C 0.28092 0.69605 0.17166 0.0
O166 O 0.24613 0.5575 0.23015 0.0
O167 O 0.24808 0.65528 0.17928 0.0
C168 C 0.51773 0.84659 0.49057 0.0
O169 O 0.51236 0.81075 0.50807 0.0
Cd170 Cd 0.50958 0.71012 0.49747 0.0
O171 O 0.53328 0.82904 0.46952 0.0
Cd172 Cd 0.56459 0.74489 0.44519 0.0
C173 C 0.42246 0.73125 0.44539 0.0
O174 O 0.59731 0.68211 0.47782 0.0
O175 O 0.57173 0.63923 0.44425 0.0
O176 O 0.66068 0.78341 0.43493 0.0
C177 C 0.5939 0.63554 0.46541 0.0
O178 O 0.43149 0.71804 0.46763 0.0
C179 C 0.65346 0.77957 0.41203 0.0
O180 O 0.46411 0.74355 0.43102 0.0
O181 O 0.60401 0.76195 0.40461 0.0
C182 C 0.7704 0.25397 0.48771 0.0
O183 O 0.80683 0.27737 0.47331 0.0
Cd184 Cd 0.85289 0.36785 0.48498 0.0
O185 O 0.76211 0.27482 0.50889 0.0
Cd186 Cd 0.78872 0.34822 0.53857 0.0
C187 C 0.72395 0.43973 0.49922 0.0
O188 O 0.8867 0.3711 0.52619 0.0
O189 O 0.84124 0.43362 0.54933 0.0
O190 O 0.81589 0.28691 0.57216 0.0
C191 C 0.8868 0.41947 0.53765 0.0
O192 O 0.76715 0.42976 0.4852 0.0
C193 C 0.77392 0.30199 0.58589 0.0
O194 O 0.71927 0.41537 0.52003 0.0
O195 O 0.73607 0.33686 0.57717 0.0
C196 C 0.42029 0.07772 0.49692 0.0
O197 O 0.40609 0.09992 0.51723 0.0
Cd198 Cd 0.42111 0.20213 0.51547 0.0
O199 O 0.42293 0.10955 0.47794 0.0
Cd200 Cd 0.40443 0.20725 0.46119 0.0
C201 C 0.54053 0.19959 0.47514 0.0
O202 O 0.34711 0.25315 0.49302 0.0
O203 O 0.40707 0.30926 0.47347 0.0
O204 O 0.32552 0.16572 0.43686 0.0
C205 C 0.36349 0.30446 0.48758 0.0
O206 O 0.51772 0.19994 0.49633 0.0
C207 C 0.33391 0.19865 0.4186 0.0
O208 O 0.50898 0.20454 0.4562 0.0
O209 O 0.37676 0.23366 0.41963 0.0
C210 C 0.1995 0.68555 0.46114 0.0
O211 O 0.16568 0.64764 0.4519 0.0
Cd212 Cd 0.10695 0.57929 0.47474 0.0
O213 O 0.20657 0.68905 0.48414 0.0
Cd214 Cd 0.17805 0.63997 0.52182 0.0
C215 C 0.22311 0.508 0.50102 0.0
O216 O 0.07737 0.62112 0.51209 0.0
O217 O 0.11299 0.57723 0.54372 0.0
O218 O 0.16392 0.72173 0.54895 0.0
C219 C 0.0698 0.58651 0.52988 0.0
O220 O 0.17757 0.50677 0.48771 0.0
C221 C 0.20423 0.70733 0.56369 0.0
O222 O 0.23712 0.55306 0.51336 0.0
O223 O 0.23639 0.66436 0.55776 0.0
C224 C 0.13121 0.42877 0.26517 0.0
C225 C 0.1555 0.3724 0.26497 0.0
H226 H 0.14548 0.51988 0.25812 0.0
C227 C 0.21185 0.36385 0.25566 0.0
H228 H 0.08765 0.43622 0.27217 0.0
C229 C 0.24496 0.41147 0.24818 0.0
C230 C 0.22146 0.46792 0.24919 0.0
H231 H 0.2315 0.32078 0.25537 0.0
H232 H 0.28956 0.40449 0.24232 0.0
C233 C 0.16388 0.47633 0.257 0.0
C234 C 0.34143 0.68959 0.76928 0.0
C235 C 0.37213 0.72223 0.7867 0.0
H236 H 0.2618 0.68005 0.74954 0.0
C237 C 0.34149 0.75964 0.80236 0.0
H238 H 0.36416 0.65938 0.75738 0.0
C239 C 0.28245 0.77128 0.79794 0.0
C240 C 0.25436 0.74568 0.77777 0.0
H241 H 0.36439 0.7848 0.81607 0.0
H242 H 0.26148 0.80589 0.80818 0.0
C243 C 0.28273 0.70094 0.76495 0.0
C244 C 0.76928 0.56677 0.24805 0.0
C245 C 0.78875 0.51036 0.25357 0.0
H246 H 0.78455 0.65831 0.25164 0.0
C247 C 0.84164 0.5023 0.26591 0.0
H248 H 0.72804 0.57347 0.23878 0.0
C249 C 0.87335 0.55074 0.27386 0.0
C250 C 0.85271 0.60746 0.26916 0.0
H251 H 0.85661 0.4588 0.2706 0.0
H252 H 0.91294 0.54385 0.28426 0.0
C253 C 0.80146 0.61506 0.25549 0.0
C254 C 0.63851 0.20433 0.81556 0.0
C255 C 0.61301 0.24822 0.80127 0.0
H256 H 0.71659 0.15578 0.82254 0.0
C257 C 0.64873 0.28869 0.78928 0.0
H258 H 0.61148 0.17298 0.82507 0.0
C259 C 0.70874 0.27974 0.78825 0.0
C260 C 0.73311 0.22923 0.79859 0.0
H261 H 0.62967 0.32353 0.77849 0.0
H262 H 0.7344 0.30704 0.7762 0.0
C263 C 0.69882 0.19501 0.81433 0.0
C264 C 0.24031 0.07024 0.99872 0.0
C265 C 0.217 0.01371 0.99882 0.0
H266 H 0.22567 0.16047 0.99087 0.0
C267 C 0.15849 0.00498 0.99238 0.0
H268 H 0.28554 0.0776 0.00357 0.0
C269 C 0.12467 0.0521 0.98441 0.0
C270 C 0.14873 0.10845 0.98347 0.0
H271 H 0.14009 0.96143 0.99212 0.0
H272 H 0.08031 0.0443 0.97846 0.0
C273 C 0.20615 0.11744 0.99145 0.0
C274 C 0.2131 0.70387 0.96678 0.0
C275 C 0.23952 0.75301 0.95631 0.0
H276 H 0.13276 0.65964 0.97347 0.0
C277 C 0.20924 0.78459 0.93826 0.0
H278 H 0.23574 0.67865 0.98058 0.0
C279 C 0.14986 0.77397 0.9343 0.0
C280 C 0.12127 0.73145 0.94823 0.0
H281 H 0.22871 0.82279 0.92995 0.0
H282 H 0.12519 0.80352 0.92281 0.0
C283 C 0.15408 0.69342 0.96289 0.0
C284 C 0.86939 0.93207 0.98412 0.0
C285 C 0.84718 0.87496 0.98495 0.0
H286 H 0.85254 0.02284 0.99107 0.0
C287 C 0.79227 0.86483 0.9954 0.0
H288 H 0.91181 0.94077 0.97623 0.0
C289 C 0.75834 0.91152 0.00337 0.0
C290 C 0.77962 0.96865 0.00169 0.0
H291 H 0.77418 0.82119 0.99621 0.0
H292 H 0.71468 0.90326 0.01009 0.0
C293 C 0.83594 0.97874 0.99274 0.0
C294 C 0.78103 0.20525 0.94451 0.0
C295 C 0.75257 0.23265 0.96417 0.0
H296 H 0.86341 0.18967 0.92702 0.0
C297 C 0.7806 0.27852 0.97637 0.0
H298 H 0.76031 0.16969 0.9348 0.0
C299 C 0.83948 0.28905 0.97222 0.0
C300 C 0.87053 0.25463 0.9555 0.0
H301 H 0.75934 0.30069 0.9914 0.0
H302 H 0.86198 0.32009 0.98378 0.0
C303 C 0.84021 0.21615 0.94022 0.0
C304 C 0.70396 0.86702 0.75404 0.0
C305 C 0.64607 0.87405 0.76178 0.0
H306 H 0.78358 0.90963 0.74428 0.0
C307 C 0.62146 0.93028 0.76266 0.0
H308 H 0.72393 0.82414 0.75324 0.0
C309 C 0.65526 0.97906 0.75688 0.0
C310 C 0.7142 0.97194 0.7508 0.0
H311 H 0.57675 0.93661 0.76849 0.0
H312 H 0.63644 0.02231 0.75859 0.0
C313 C 0.73803 0.91573 0.74894 0.0
C314 C 0.85256 0.26545 0.31395 0.0
C315 C 0.88125 0.2259 0.29856 0.0
H316 H 0.77319 0.31237 0.32034 0.0
C317 C 0.84844 0.19015 0.28299 0.0
H318 H 0.8772 0.29303 0.32624 0.0
C319 C 0.78905 0.20031 0.27993 0.0
C320 C 0.76229 0.2472 0.29202 0.0
H321 H 0.86979 0.15841 0.27134 0.0
H322 H 0.76623 0.17714 0.26559 0.0
C323 C 0.79286 0.27597 0.31074 0.0
C324 C 0.33113 0.00221 0.74741 0.0
C325 C 0.27341 0.01204 0.74006 0.0
H326 H 0.409 0.04048 0.76197 0.0
C327 C 0.25142 0.06909 0.73901 0.0
H328 H 0.34836 0.9582 0.74856 0.0
C329 C 0.28617 0.11593 0.74606 0.0
C330 C 0.34264 0.10597 0.75502 0.0
H331 H 0.20671 0.07716 0.73351 0.0
H332 H 0.26764 0.1595 0.74586 0.0
C333 C 0.36542 0.04899 0.7552 0.0
C334 C 0.15419 0.7934 0.27963 0.0
C335 C 0.12277 0.75886 0.29615 0.0
H336 H 0.23424 0.80416 0.26031 0.0
C337 C 0.1526 0.71916 0.31109 0.0
H338 H 0.13194 0.82508 0.26824 0.0
C339 C 0.21161 0.70741 0.30664 0.0
C340 C 0.24032 0.7351 0.28713 0.0
H341 H 0.12903 0.69235 0.32402 0.0
H342 H 0.23191 0.67112 0.31609 0.0
C343 C 0.21283 0.78185 0.27525 0.0
C344 C 0.66806 0.48928 0.46654 0.0
C345 C 0.68121 0.48352 0.49141 0.0
H346 H 0.6286 0.54179 0.43884 0.0
C347 C 0.65927 0.52439 0.50808 0.0
H348 H 0.68438 0.45791 0.4534 0.0
C349 C 0.62847 0.57305 0.4997 0.0
C350 C 0.61821 0.5805 0.47464 0.0
H351 H 0.66918 0.5208 0.52734 0.0
H352 H 0.6145 0.60581 0.51271 0.0
C353 C 0.63615 0.5371 0.45823 0.0
C354 C 0.69475 0.23361 0.45688 0.0
C355 C 0.72399 0.2162 0.47824 0.0
H356 H 0.61169 0.24266 0.43923 0.0
C357 C 0.69541 0.17944 0.4948 0.0
H358 H 0.71585 0.26211 0.44383 0.0
C359 C 0.63584 0.1694 0.49243 0.0
C360 C 0.60443 0.19524 0.47327 0.0
H361 H 0.71721 0.16513 0.51129 0.0
H362 H 0.61355 0.14581 0.50678 0.0
C363 C 0.63489 0.2233 0.45444 0.0
C364 C 0.32123 0.46139 0.49894 0.0
C365 C 0.26059 0.45612 0.50136 0.0
H366 H 0.40188 0.4166 0.49227 0.0
C367 C 0.23507 0.40051 0.50181 0.0
H368 H 0.34161 0.50403 0.49845 0.0
C369 C 0.26942 0.35075 0.49895 0.0
C370 C 0.32956 0.35603 0.49486 0.0
H371 H 0.18829 0.39565 0.50376 0.0
H372 H 0.24839 0.30842 0.49855 0.0
C373 C 0.35548 0.41158 0.49535 0.0
C374 C 0.33504 0.68969 0.42574 0.0
C375 C 0.36169 0.73656 0.43772 0.0
H376 H 0.25792 0.63779 0.42301 0.0
C377 C 0.32711 0.7777 0.44999 0.0
H378 H 0.36126 0.65736 0.41633 0.0
C379 C 0.26826 0.76637 0.45407 0.0
C380 C 0.24393 0.71375 0.4459 0.0
H381 H 0.34718 0.81419 0.45936 0.0
H382 H 0.24439 0.79425 0.46654 0.0
C383 C 0.27578 0.67866 0.42957 0.0
C384 C 0.27424 0.2545 0.38884 0.0
C385 C 0.29209 0.20038 0.39827 0.0
H386 H 0.21679 0.29962 0.36442 0.0
C387 C 0.2666 0.14893 0.38934 0.0
H388 H 0.29284 0.29476 0.39568 0.0
C389 C 0.22433 0.15163 0.37094 0.0
C390 C 0.20531 0.20594 0.36209 0.0
H391 H 0.27961 0.10676 0.39649 0.0
H392 H 0.20557 0.11151 0.36404 0.0
C393 C 0.23044 0.2573 0.3712 0.0
C394 C 0.1534 0.74555 0.60007 0.0
C395 C 0.20619 0.73214 0.5884 0.0
H396 H 0.11129 0.77148 0.63309 0.0
C397 C 0.25874 0.73692 0.60144 0.0
H398 H 0.1122 0.74129 0.59055 0.0
C399 C 0.25829 0.75573 0.62577 0.0
C400 C 0.20508 0.76724 0.63753 0.0
H401 H 0.2999 0.72619 0.59283 0.0
H402 H 0.29914 0.76001 0.63552 0.0
C403 C 0.15279 0.76198 0.62448 0.0
C404 C 0.69023 0.79979 0.3701 0.0
C405 C 0.70185 0.78974 0.39485 0.0
H406 H 0.72515 0.80773 0.33415 0.0
C407 C 0.76004 0.78393 0.40259 0.0
H408 H 0.6458 0.80462 0.36366 0.0
C409 C 0.80556 0.78458 0.38562 0.0
C410 C 0.79366 0.79231 0.36072 0.0
H411 H 0.77019 0.77592 0.42159 0.0
H412 H 0.8498 0.77744 0.39189 0.0
C413 C 0.73573 0.80169 0.35323 0.0
C414 C 0.82617 0.26216 0.64856 0.0
C415 C 0.77436 0.24498 0.66009 0.0
H416 H 0.86633 0.29201 0.61572 0.0
C417 C 0.72132 0.24865 0.64732 0.0
H418 H 0.86772 0.25906 0.6579 0.0
C419 C 0.7204 0.26899 0.62323 0.0
C420 C 0.77278 0.28352 0.61149 0.0
H421 H 0.68091 0.23525 0.65585 0.0
H422 H 0.67928 0.27138 0.61355 0.0
C423 C 0.82548 0.28036 0.62438 0.0
C424 C 0.21247 0.31844 0.87626 0.0
C425 C 0.18706 0.26585 0.88402 0.0
H426 H 0.27602 0.35881 0.85293 0.0
C427 C 0.20697 0.21281 0.87427 0.0
H428 H 0.19787 0.3598 0.88368 0.0
C429 C 0.25291 0.21213 0.85761 0.0
C430 C 0.27829 0.26458 0.8498 0.0
H431 H 0.18847 0.17169 0.88021 0.0
H432 H 0.26833 0.17057 0.85067 0.0
C433 C 0.25705 0.31788 0.85882 0.0
C434 C 0.22437 0.72826 0.13479 0.0
C435 C 0.27782 0.71689 0.14639 0.0
H436 H 0.18215 0.75758 0.10192 0.0
C437 C 0.32989 0.72243 0.13323 0.0
H438 H 0.18371 0.72372 0.14464 0.0
C439 C 0.32884 0.73888 0.10883 0.0
C440 C 0.27583 0.75205 0.0973 0.0
H441 H 0.37156 0.71302 0.14171 0.0
H442 H 0.36989 0.74319 0.09921 0.0
C443 C 0.22347 0.74712 0.11045 0.0
C444 C 0.76763 0.66033 0.88054 0.0
C445 C 0.78955 0.71386 0.88896 0.0
H446 H 0.70613 0.6177 0.85695 0.0
C447 C 0.76358 0.76611 0.88113 0.0
H448 H 0.78691 0.61953 0.88652 0.0
C449 C 0.71605 0.76496 0.86524 0.0
C450 C 0.69505 0.71162 0.85627 0.0
H451 H 0.77938 0.80785 0.88766 0.0
H452 H 0.69686 0.8059 0.85937 0.0
C453 C 0.72145 0.65927 0.86383 0.0
C454 C 0.66485 0.23149 0.11633 0.0
C455 C 0.71708 0.2205 0.10386 0.0
H456 H 0.62472 0.25729 0.14975 0.0
C457 C 0.77056 0.22829 0.11591 0.0
H458 H 0.62305 0.22498 0.10752 0.0
C459 C 0.77154 0.24834 0.14006 0.0
C460 C 0.719 0.25811 0.15259 0.0
H461 H 0.81132 0.21959 0.1066 0.0
H462 H 0.81304 0.25545 0.14902 0.0
C463 C 0.6658 0.24919 0.14057 0.0
C464 C 0.98402 0.96606 0.28531 0.0
C465 C 0.97138 0.93781 0.26321 0.0
H466 H 0.02116 0.04024 0.30279 0.0
C467 C 0.9874 0.96448 0.24115 0.0
H468 H 0.97271 0.9465 0.30265 0.0
C469 C 0.01588 0.01829 0.24125 0.0
C470 C 0.02875 0.04628 0.2634 0.0
H471 H 0.97889 0.94341 0.22384 0.0
H472 H 0.02719 0.03818 0.22397 0.0
C473 C 0.01254 0.01956 0.2854 0.0
C474 C 0.97294 0.02921 0.69143 0.0
C475 C 0.95293 0.04433 0.71471 0.0
H476 H 0.02849 0.9734 0.67047 0.0
C477 C 0.97203 0.01284 0.73512 0.0
H478 H 0.95767 0.05243 0.67549 0.0
C479 C 0.01047 0.96602 0.73218 0.0
C480 C 0.03124 0.95149 0.70888 0.0
H481 H 0.95566 0.02312 0.75317 0.0
H482 H 0.02469 0.9421 0.74811 0.0
C483 C 0.01264 0.98372 0.68858 0.0
C484 C 0.01643 0.46668 0.00502 0.0
C485 C 0.02768 0.43802 0.98287 0.0
H486 H 0.98198 0.54254 0.02252 0.0
C487 C 0.01191 0.46522 0.96088 0.0
H488 H 0.02746 0.44656 0.02229 0.0
C489 C 0.98521 0.51987 0.96102 0.0
C490 C 0.97375 0.54845 0.98316 0.0
H491 H 0.01952 0.44404 0.94351 0.0
H492 H 0.97409 0.53989 0.94374 0.0
C493 C 0.98958 0.52131 0.00516 0.0
C494 C 0.47773 0.95969 0.06052 0.0
C495 C 0.45619 0.94063 0.03799 0.0
H496 H 0.5366 0.01709 0.07898 0.0
C497 C 0.47592 0.96664 0.01639 0.0
H498 H 0.46223 0.94051 0.07737 0.0
C499 C 0.51628 0.01206 0.01737 0.0
C500 C 0.53844 0.03054 0.03991 0.0
H501 H 0.45883 0.95321 0.99887 0.0
H502 H 0.53102 0.03171 0.00053 0.0
C503 C 0.51948 0.00367 0.06145 0.0
C504 C 0.49191 0.45783 0.73622 0.0
C505 C 0.47439 0.43104 0.75807 0.0
H506 H 0.53158 0.53203 0.71946 0.0
C507 C 0.4846 0.45967 0.78029 0.0
H508 H 0.48522 0.43658 0.71881 0.0
C509 C 0.51189 0.51391 0.78068 0.0
C510 C 0.5294 0.54075 0.75886 0.0
H511 H 0.47221 0.43994 0.79746 0.0
H512 H 0.51856 0.53507 0.79812 0.0
C513 C 0.51926 0.51214 0.73662 0.0
C514 C 0.52402 0.46784 0.1917 0.0
C515 C 0.54485 0.44827 0.21428 0.0
H516 H 0.4647 0.52478 0.17312 0.0
C517 C 0.52376 0.47323 0.23588 0.0
H518 H 0.54056 0.44942 0.17486 0.0
C519 C 0.48248 0.51801 0.23485 0.0
C520 C 0.46084 0.53682 0.21224 0.0
H521 H 0.54038 0.45932 0.25344 0.0
H522 H 0.46649 0.53676 0.25168 0.0
C523 C 0.4814 0.51112 0.1907 0.0
C524 C 0.46838 -0.00208 0.47383 0.0
C525 C 0.44286 0.01754 0.49561 0.0
H526 H 0.51379 0.92988 0.45546 0.0
C527 C 0.44489 0.98154 0.51634 0.0
H528 H 0.4684 0.0248 0.45758 0.0
C529 C 0.47141 0.92658 0.51514 0.0
C530 C 0.49661 0.90705 0.49323 0.0
H531 H 0.42627 -0.00414 0.53348 0.0
H532 H 0.47132 0.89912 0.53122 0.0
C533 C 0.4952 0.9436 0.4727 0.0
C534 C 0.96001 0.47237 0.51275 0.0
C535 C 0.93434 0.46129 0.53545 0.0
H536 H 0.0221 0.52363 0.49297 0.0
C537 C 0.95113 0.49377 0.55593 0.0
H538 H 0.94675 0.44818 0.49671 0.0
C539 C -0.00548 0.53586 0.5539 0.0
C540 C 0.01987 0.5474 0.5312 0.0
H541 H 0.93129 0.48593 0.57355 0.0
H542 H 0.00844 0.5593 0.57004 0.0
C543 C 0.00211 0.51596 0.51055 0.0
loop_
_geom_bond_atom_site_label_1
_geom_bond_atom_site_label_2
_geom_bond_distance
_geom_bond_site_symmetry_2
_ccdc_geom_bond_type
C0 O1 1.306 . S
C0 O3 1.160 . S
O1 C0 1.306 . S
O1 Cd2 2.228 . S
Cd2 O1 2.228 . S
Cd2 O6 2.273 . S
Cd2 O10 2.277 . S
O3 C0 1.160 . S
O3 Cd4 2.203 . S
Cd4 O3 2.203 . S
Cd4 O6 2.411 . S
Cd4 O7 2.333 . S
Cd4 O8 2.352 . S
Cd4 O12 2.277 . S
Cd4 O13 2.356 . S
C5 O10 1.209 1_655 S
C5 O12 1.226 1_655 S
O6 Cd2 2.273 . S
O6 Cd4 2.411 . S
O6 C9 1.320 . S
O7 Cd4 2.333 . S
O7 C9 1.214 . S
O8 Cd4 2.352 . S
O8 C11 1.258 . S
C9 O6 1.320 . S
C9 O7 1.214 . S
O10 Cd2 2.277 . S
O10 C5 1.209 1_455 S
C11 O8 1.258 . S
C11 O13 1.282 . S
O12 Cd4 2.277 . S
O12 C5 1.226 1_455 S
O13 Cd4 2.356 . S
O13 C11 1.282 . S
C14 O15 1.306 . S
C14 O17 1.160 . S
O15 C14 1.306 . S
O15 Cd16 2.228 . S
Cd16 O15 2.228 . S
Cd16 O20 2.273 . S
Cd16 O24 2.277 . S
O17 C14 1.160 . S
O17 Cd18 2.203 . S
Cd18 O17 2.203 . S
Cd18 O20 2.411 . S
Cd18 O21 2.333 . S
Cd18 O22 2.352 . S
Cd18 O26 2.277 . S
Cd18 O27 2.356 . S
C19 O24 1.209 1_545 S
C19 O26 1.226 1_545 S
O20 Cd16 2.273 . S
O20 Cd18 2.411 . S
O20 C23 1.320 . S
O21 Cd18 2.333 . S
O21 C23 1.214 . S
O22 Cd18 2.352 . S
O22 C25 1.258 . S
C23 O20 1.320 . S
C23 O21 1.214 . S
O24 Cd16 2.277 . S
O24 C19 1.209 1_565 S
C25 O22 1.258 . S
C25 O27 1.282 . S
O26 Cd18 2.277 . S
O26 C19 1.226 1_565 S
O27 Cd18 2.356 . S
O27 C25 1.282 . S
C28 O29 1.306 . S
C28 O31 1.160 . S
O29 C28 1.306 . S
O29 Cd30 2.228 . S
Cd30 O29 2.228 . S
Cd30 O34 2.273 . S
Cd30 O38 2.277 . S
O31 C28 1.160 . S
O31 Cd32 2.203 . S
Cd32 O31 2.203 . S
Cd32 O34 2.411 . S
Cd32 O35 2.333 . S
Cd32 O36 2.352 . S
Cd32 O40 2.277 . S
Cd32 O41 2.356 . S
C33 O38 1.209 1_455 S
C33 O40 1.226 1_455 S
O34 Cd30 2.273 . S
O34 Cd32 2.411 . S
O34 C37 1.320 . S
O35 Cd32 2.333 . S
O35 C37 1.214 . S
O36 Cd32 2.352 . S
O36 C39 1.258 . S
C37 O34 1.320 . S
C37 O35 1.214 . S
O38 Cd30 2.277 . S
O38 C33 1.209 1_655 S
C39 O36 1.258 . S
C39 O41 1.282 . S
O40 Cd32 2.277 . S
O40 C33 1.226 1_655 S
O41 Cd32 2.356 . S
O41 C39 1.282 . S
C42 O43 1.306 . S
C42 O45 1.160 . S
O43 C42 1.306 . S
O43 Cd44 2.228 . S
Cd44 O43 2.228 . S
Cd44 O48 2.273 . S
Cd44 O52 2.277 . S
O45 C42 1.160 . S
O45 Cd46 2.203 . S
Cd46 O45 2.203 . S
Cd46 O48 2.411 . S
Cd46 O49 2.333 . S
Cd46 O50 2.352 . S
Cd46 O54 2.277 . S
Cd46 O55 2.356 . S
C47 O52 1.209 1_565 S
C47 O54 1.226 1_565 S
O48 Cd44 2.273 . S
O48 Cd46 2.411 . S
O48 C51 1.320 . S
O49 Cd46 2.333 . S
O49 C51 1.214 . S
O50 Cd46 2.352 . S
O50 C53 1.258 . S
C51 O48 1.320 . S
C51 O49 1.214 . S
O52 Cd44 2.277 . S
O52 C47 1.209 1_545 S
C53 O50 1.258 . S
C53 O55 1.282 . S
O54 Cd46 2.277 . S
O54 C47 1.226 1_545 S
O55 Cd46 2.356 . S
O55 C53 1.282 . S
C56 O57 1.306 . S
C56 O59 1.160 . S
O57 C56 1.306 . S
O57 Cd58 2.228 1_556 S
Cd58 O57 2.228 1_554 S
Cd58 O62 2.273 1_554 S
Cd58 O66 2.277 1_554 S
O59 C56 1.160 . S
O59 Cd60 2.203 . S
Cd60 O59 2.203 . S
Cd60 O62 2.411 . S
Cd60 O63 2.333 . S
Cd60 O64 2.352 . S
Cd60 O68 2.277 . S
Cd60 O69 2.356 . S
C61 O66 1.209 1_655 S
C61 O68 1.226 1_655 S
O62 Cd58 2.273 1_556 S
O62 Cd60 2.411 . S
O62 C65 1.320 . S
O63 Cd60 2.333 . S
O63 C65 1.214 . S
O64 Cd60 2.352 . S
O64 C67 1.258 . S
C65 O62 1.320 . S
C65 O63 1.214 . S
O66 Cd58 2.277 1_556 S
O66 C61 1.209 1_455 S
C67 O64 1.258 . S
C67 O69 1.282 . S
O68 Cd60 2.277 . S
O68 C61 1.226 1_455 S
O69 Cd60 2.356 . S
O69 C67 1.282 . S
C70 O71 1.306 1_554 S
C70 O73 1.160 . S
O71 C70 1.306 1_556 S
O71 Cd72 2.228 . S
Cd72 O71 2.228 . S
Cd72 O76 2.273 1_556 S
Cd72 O80 2.277 1_556 S
O73 C70 1.160 . S
O73 Cd74 2.203 . S
Cd74 O73 2.203 . S
Cd74 O76 2.411 . S
Cd74 O77 2.333 . S
Cd74 O78 2.352 . S
Cd74 O82 2.277 . S
Cd74 O83 2.356 . S
C75 O80 1.209 1_545 S
C75 O82 1.226 1_545 S
O76 Cd72 2.273 1_554 S
O76 Cd74 2.411 . S
O76 C79 1.320 . S
O77 Cd74 2.333 . S
O77 C79 1.214 . S
O78 Cd74 2.352 . S
O78 C81 1.258 . S
C79 O76 1.320 . S
C79 O77 1.214 . S
O80 Cd72 2.277 1_554 S
O80 C75 1.209 1_565 S
C81 O78 1.258 . S
C81 O83 1.282 . S
O82 Cd74 2.277 . S
O82 C75 1.226 1_565 S
O83 Cd74 2.356 . S
O83 C81 1.282 . S
C84 O85 1.306 . S
C84 O87 1.160 . S
O85 C84 1.306 . S
O85 Cd86 2.228 1_556 S
Cd86 O85 2.228 1_554 S
Cd86 O90 2.273 1_554 S
Cd86 O94 2.277 1_554 S
O87 C84 1.160 . S
O87 Cd88 2.203 . S
Cd88 O87 2.203 . S
Cd88 O90 2.411 . S
Cd88 O91 2.333 . S
Cd88 O92 2.352 . S
Cd88 O96 2.277 . S
Cd88 O97 2.356 . S
C89 O94 1.209 1_455 S
C89 O96 1.226 1_455 S
O90 Cd86 2.273 1_556 S
O90 Cd88 2.411 . S
O90 C93 1.320 . S
O91 Cd88 2.333 . S
O91 C93 1.214 . S
O92 Cd88 2.352 . S
O92 C95 1.258 . S
C93 O90 1.320 . S
C93 O91 1.214 . S
O94 Cd86 2.277 1_556 S
O94 C89 1.209 1_655 S
C95 O92 1.258 . S
C95 O97 1.282 . S
O96 Cd88 2.277 . S
O96 C89 1.226 1_655 S
O97 Cd88 2.356 . S
O97 C95 1.282 . S
C98 O99 1.306 1_554 S
C98 O101 1.160 . S
O99 C98 1.306 1_556 S
O99 Cd100 2.228 . S
Cd100 O99 2.228 . S
Cd100 O104 2.273 1_556 S
Cd100 O108 2.277 1_556 S
O101 C98 1.160 . S
O101 Cd102 2.203 . S
Cd102 O101 2.203 . S
Cd102 O104 2.411 . S
Cd102 O105 2.333 . S
Cd102 O106 2.352 . S
Cd102 O110 2.277 . S
Cd102 O111 2.356 . S
C103 O108 1.209 1_565 S
C103 O110 1.226 1_565 S
O104 Cd100 2.273 1_554 S
O104 Cd102 2.411 . S
O104 C107 1.320 . S
O105 Cd102 2.333 . S
O105 C107 1.214 . S
O106 Cd102 2.352 . S
O106 C109 1.258 . S
C107 O104 1.320 . S
C107 O105 1.214 . S
O108 Cd100 2.277 1_554 S
O108 C103 1.209 1_545 S
C109 O106 1.258 . S
C109 O111 1.282 . S
O110 Cd102 2.277 . S
O110 C103 1.226 1_545 S
O111 Cd102 2.356 . S
O111 C109 1.282 . S
C112 O113 1.306 . S
C112 O115 1.160 . S
O113 C112 1.306 . S
O113 Cd114 2.228 . S
Cd114 O113 2.228 . S
Cd114 O118 2.273 . S
Cd114 O122 2.277 . S
O115 C112 1.160 . S
O115 Cd116 2.203 . S
Cd116 O115 2.203 . S
Cd116 O118 2.411 . S
Cd116 O119 2.333 . S
Cd116 O120 2.352 . S
Cd116 O124 2.277 . S
Cd116 O125 2.356 . S
C117 O122 1.209 . S
C117 O124 1.226 . S
O118 Cd114 2.273 . S
O118 Cd116 2.411 . S
O118 C121 1.320 . S
O119 Cd116 2.333 . S
O119 C121 1.214 . S
O120 Cd116 2.352 . S
O120 C123 1.258 . S
C121 O118 1.320 . S
C121 O119 1.214 . S
O122 Cd114 2.277 . S
O122 C117 1.209 . S
C123 O120 1.258 . S
C123 O125 1.282 . S
O124 Cd116 2.277 . S
O124 C117 1.226 . S
O125 Cd116 2.356 . S
O125 C123 1.282 . S
C126 O127 1.306 . S
C126 O129 1.160 . S
O127 C126 1.306 . S
O127 Cd128 2.228 . S
Cd128 O127 2.228 . S
Cd128 O132 2.273 . S
Cd128 O136 2.277 . S
O129 C126 1.160 . S
O129 Cd130 2.203 . S
Cd130 O129 2.203 . S
Cd130 O132 2.411 . S
Cd130 O133 2.333 . S
Cd130 O134 2.352 . S
Cd130 O138 2.277 . S
Cd130 O139 2.356 . S
C131 O136 1.209 . S
C131 O138 1.226 . S
O132 Cd128 2.273 . S
O132 Cd130 2.411 . S
O132 C135 1.320 . S
O133 Cd130 2.333 . S
O133 C135 1.214 . S
O134 Cd130 2.352 . S
O134 C137 1.258 . S
C135 O132 1.320 . S
C135 O133 1.214 . S
O136 Cd128 2.277 . S
O136 C131 1.209 . S
C137 O134 1.258 . S
C137 O139 1.282 . S
O138 Cd130 2.277 . S
O138 C131 1.226 . S
O139 Cd130 2.356 . S
O139 C137 1.282 . S
C140 O141 1.306 . S
C140 O143 1.160 . S
O141 C140 1.306 . S
O141 Cd142 2.228 . S
Cd142 O141 2.228 . S
Cd142 O146 2.273 . S
Cd142 O150 2.277 . S
O143 C140 1.160 . S
O143 Cd144 2.203 . S
Cd144 O143 2.203 . S
Cd144 O146 2.411 . S
Cd144 O147 2.333 . S
Cd144 O148 2.352 . S
Cd144 O152 2.277 . S
Cd144 O153 2.356 . S
C145 O150 1.209 . S
C145 O152 1.226 . S
O146 Cd142 2.273 . S
O146 Cd144 2.411 . S
O146 C149 1.320 . S
O147 Cd144 2.333 . S
O147 C149 1.214 . S
O148 Cd144 2.352 . S
O148 C151 1.258 . S
C149 O146 1.320 . S
C149 O147 1.214 . S
O150 Cd142 2.277 . S
O150 C145 1.209 . S
C151 O148 1.258 . S
C151 O153 1.282 . S
O152 Cd144 2.277 . S
O152 C145 1.226 . S
O153 Cd144 2.356 . S
O153 C151 1.282 . S
C154 O155 1.306 . S
C154 O157 1.160 . S
O155 C154 1.306 . S
O155 Cd156 2.228 . S
Cd156 O155 2.228 . S
Cd156 O160 2.273 . S
Cd156 O164 2.277 . S
O157 C154 1.160 . S
O157 Cd158 2.203 . S
Cd158 O157 2.203 . S
Cd158 O160 2.411 . S
Cd158 O161 2.333 . S
Cd158 O162 2.352 . S
Cd158 O166 2.277 . S
Cd158 O167 2.356 . S
C159 O164 1.209 . S
C159 O166 1.226 . S
O160 Cd156 2.273 . S
O160 Cd158 2.411 . S
O160 C163 1.320 . S
O161 Cd158 2.333 . S
O161 C163 1.214 . S
O162 Cd158 2.352 . S
O162 C165 1.258 . S
C163 O160 1.320 . S
C163 O161 1.214 . S
O164 Cd156 2.277 . S
O164 C159 1.209 . S
C165 O162 1.258 . S
C165 O167 1.282 . S
O166 Cd158 2.277 . S
O166 C159 1.226 . S
O167 Cd158 2.356 . S
O167 C165 1.282 . S
C168 O169 1.306 . S
C168 O171 1.160 . S
O169 C168 1.306 . S
O169 Cd170 2.228 . S
Cd170 O169 2.228 . S
Cd170 O174 2.273 . S
Cd170 O178 2.277 . S
O171 C168 1.160 . S
O171 Cd172 2.203 . S
Cd172 O171 2.203 . S
Cd172 O174 2.411 . S
Cd172 O175 2.333 . S
Cd172 O176 2.352 . S
Cd172 O180 2.277 . S
Cd172 O181 2.356 . S
C173 O178 1.209 . S
C173 O180 1.226 . S
O174 Cd170 2.273 . S
O174 Cd172 2.411 . S
O174 C177 1.320 . S
O175 Cd172 2.333 . S
O175 C177 1.214 . S
O176 Cd172 2.352 . S
O176 C179 1.258 . S
C177 O174 1.320 . S
C177 O175 1.214 . S
O178 Cd170 2.277 . S
O178 C173 1.209 . S
C179 O176 1.258 . S
C179 O181 1.282 . S
O180 Cd172 2.277 . S
O180 C173 1.226 . S
O181 Cd172 2.356 . S
O181 C179 1.282 . S
C182 O183 1.306 . S
C182 O185 1.160 . S
O183 C182 1.306 . S
O183 Cd184 2.228 . S
Cd184 O183 2.228 . S
Cd184 O188 2.273 . S
Cd184 O192 2.277 . S
O185 C182 1.160 . S
O185 Cd186 2.203 . S
Cd186 O185 2.203 . S
Cd186 O188 2.411 . S
Cd186 O189 2.333 . S
Cd186 O190 2.352 . S
Cd186 O194 2.277 . S
Cd186 O195 2.356 . S
C187 O192 1.209 . S
C187 O194 1.226 . S
O188 Cd184 2.273 . S
O188 Cd186 2.411 . S
O188 C191 1.320 . S
O189 Cd186 2.333 . S
O189 C191 1.214 . S
O190 Cd186 2.352 . S
O190 C193 1.258 . S
C191 O188 1.320 . S
C191 O189 1.214 . S
O192 Cd184 2.277 . S
O192 C187 1.209 . S
C193 O190 1.258 . S
C193 O195 1.282 . S
O194 Cd186 2.277 . S
O194 C187 1.226 . S
O195 Cd186 2.356 . S
O195 C193 1.282 . S
C196 O197 1.306 . S
C196 O199 1.160 . S
O197 C196 1.306 . S
O197 Cd198 2.228 . S
Cd198 O197 2.228 . S
Cd198 O202 2.273 . S
Cd198 O206 2.277 . S
O199 C196 1.160 . S
O199 Cd200 2.203 . S
Cd200 O199 2.203 . S
Cd200 O202 2.411 . S
Cd200 O203 2.333 . S
Cd200 O204 2.352 . S
Cd200 O208 2.277 . S
Cd200 O209 2.356 . S
C201 O206 1.209 . S
C201 O208 1.226 . S
O202 Cd198 2.273 . S
O202 Cd200 2.411 . S
O202 C205 1.320 . S
O203 Cd200 2.333 . S
O203 C205 1.214 . S
O204 Cd200 2.352 . S
O204 C207 1.258 . S
C205 O202 1.320 . S
C205 O203 1.214 . S
O206 Cd198 2.277 . S
O206 C201 1.209 . S
C207 O204 1.258 . S
C207 O209 1.282 . S
O208 Cd200 2.277 . S
O208 C201 1.226 . S
O209 Cd200 2.356 . S
O209 C207 1.282 . S
C210 O211 1.306 . S
C210 O213 1.160 . S
O211 C210 1.306 . S
O211 Cd212 2.228 . S
Cd212 O211 2.228 . S
Cd212 O216 2.273 . S
Cd212 O220 2.277 . S
O213 C210 1.160 . S
O213 Cd214 2.203 . S
Cd214 O213 2.203 . S
Cd214 O216 2.411 . S
Cd214 O217 2.333 . S
Cd214 O218 2.352 . S
Cd214 O222 2.277 . S
Cd214 O223 2.356 . S
C215 O220 1.209 . S
C215 O222 1.226 . S
O216 Cd212 2.273 . S
O216 Cd214 2.411 . S
O216 C219 1.320 . S
O217 Cd214 2.333 . S
O217 C219 1.214 . S
O218 Cd214 2.352 . S
O218 C221 1.258 . S
C219 O216 1.320 . S
C219 O217 1.214 . S
O220 Cd212 2.277 . S
O220 C215 1.209 . S
C221 O218 1.258 . S
C221 O223 1.282 . S
O222 Cd214 2.277 . S
O222 C215 1.226 . S
O223 Cd214 2.356 . S
O223 C221 1.282 . S
C224 C225 1.387 . S
C224 H228 0.950 . S
C224 C233 1.390 . S
C225 C224 1.387 . S
C225 C227 1.387 . S
H226 C233 0.950 . S
C227 C225 1.387 . S
C227 C229 1.390 . S
C227 H231 0.950 . S
H228 C224 0.950 . S
C229 C227 1.390 . S
C229 C230 1.387 . S
C229 H232 0.950 . S
C230 C229 1.387 . S
C230 C233 1.387 . S
H231 C227 0.950 . S
H232 C229 0.950 . S
C233 C224 1.390 . S
C233 H226 0.950 . S
C233 C230 1.387 . S
C234 C235 1.387 . S
C234 H238 0.950 . S
C234 C243 1.390 . S
C235 C234 1.387 . S
C235 C237 1.387 . S
H236 C243 0.950 . S
C237 C235 1.387 . S
C237 C239 1.390 . S
C237 H241 0.950 . S
H238 C234 0.950 . S
C239 C237 1.390 . S
C239 C240 1.387 . S
C239 H242 0.950 . S
C240 C239 1.387 . S
C240 C243 1.387 . S
H241 C237 0.950 . S
H242 C239 0.950 . S
C243 C234 1.390 . S
C243 H236 0.950 . S
C243 C240 1.387 . S
C244 C245 1.387 . S
C244 H248 0.950 . S
C244 C253 1.390 . S
C245 C244 1.387 . S
C245 C247 1.387 . S
H246 C253 0.950 . S
C247 C245 1.387 . S
C247 C249 1.390 . S
C247 H251 0.950 . S
H248 C244 0.950 . S
C249 C247 1.390 . S
C249 C250 1.387 . S
C249 H252 0.950 . S
C250 C249 1.387 . S
C250 C253 1.387 . S
H251 C247 0.950 . S
H252 C249 0.950 . S
C253 C244 1.390 . S
C253 H246 0.950 . S
C253 C250 1.387 . S
C254 C255 1.387 . S
C254 H258 0.950 . S
C254 C263 1.390 . S
C255 C254 1.387 . S
C255 C257 1.387 . S
H256 C263 0.950 . S
C257 C255 1.387 . S
C257 C259 1.390 . S
C257 H261 0.950 . S
H258 C254 0.950 . S
C259 C257 1.390 . S
C259 C260 1.387 . S
C259 H262 0.950 . S
C260 C259 1.387 . S
C260 C263 1.387 . S
H261 C257 0.950 . S
H262 C259 0.950 . S
C263 C254 1.390 . S
C263 H256 0.950 . S
C263 C260 1.387 . S
C264 C265 1.387 . S
C264 H268 0.950 1_554 S
C264 C273 1.390 1_554 S
C265 C264 1.387 . S
C265 C267 1.387 . S
H266 C273 0.950 . S
C267 C265 1.387 . S
C267 C269 1.390 . S
C267 H271 0.950 . S
H268 C264 0.950 1_556 S
C269 C267 1.390 . S
C269 C270 1.367 1_554 S
C269 H272 0.950 . S
C270 C269 1.367 1_556 S
C270 C273 1.397 . S
H271 C267 0.950 . S
H272 C269 0.950 . S
C273 C264 1.390 1_556 S
C273 H266 0.950 . S
C273 C270 1.397 . S
C274 C275 1.387 1_554 S
C274 H278 0.950 . S
C274 C283 1.390 1_554 S
C275 C274 1.387 1_556 S
C275 C277 1.387 . S
H276 C283 0.950 . S
C277 C275 1.387 . S
C277 C279 1.390 . S
C277 H281 0.950 . S
H278 C274 0.950 . S
C279 C277 1.390 . S
C279 C280 1.387 . S
C279 H282 0.950 . S
C280 C279 1.387 . S
C280 C283 1.387 . S
H281 C277 0.950 . S
H282 C279 0.950 . S
C283 C274 1.390 1_556 S
C283 H276 0.950 . S
C283 C280 1.387 . S
C284 C285 1.406 . S
C284 H288 0.950 . S
C284 C293 1.390 . S
C285 C284 1.406 . S
C285 C287 1.359 1_556 S
H286 C293 0.950 . S
C287 C285 1.359 1_554 S
C287 C289 1.390 . S
C287 H291 0.950 . S
H288 C284 0.950 . S
C289 C287 1.390 . S
C289 C290 1.387 . S
C289 H292 0.950 . S
C290 C289 1.387 . S
C290 C293 1.387 1_554 S
H291 C287 0.950 . S
H292 C289 0.950 . S
C293 C284 1.390 . S
C293 H286 0.950 . S
C293 C290 1.387 1_556 S
C294 C295 1.387 . S
C294 H298 0.950 . S
C294 C303 1.390 . S
C295 C294 1.387 . S
C295 C297 1.387 1_556 S
H296 C303 0.950 . S
C297 C295 1.387 1_554 S
C297 C299 1.381 1_554 S
C297 H301 0.950 . S
H298 C294 0.950 . S
C299 C297 1.381 1_556 S
C299 C300 1.408 . S
C299 H302 0.939 1_556 S
C300 C299 1.408 . S
C300 C303 1.387 . S
H301 C297 0.950 . S
H302 C299 0.939 1_554 S
C303 C294 1.390 . S
C303 H296 0.950 . S
C303 C300 1.387 . S
C304 C305 1.387 . S
C304 H308 0.950 . S
C304 C313 1.390 . S
C305 C304 1.387 . S
C305 C307 1.387 . S
H306 C313 0.950 . S
C307 C305 1.387 . S
C307 C309 1.390 . S
C307 H311 0.950 . S
H308 C304 0.950 . S
C309 C307 1.390 . S
C309 C310 1.387 . S
C309 H312 0.950 . S
C310 C309 1.387 . S
C310 C313 1.387 . S
H311 C307 0.950 . S
H312 C309 0.950 . S
C313 C304 1.390 . S
C313 H306 0.950 . S
C313 C310 1.387 . S
C314 C315 1.387 . S
C314 H318 0.950 . S
C314 C323 1.390 . S
C315 C314 1.387 . S
C315 C317 1.387 . S
H316 C323 0.950 . S
C317 C315 1.387 . S
C317 C319 1.390 . S
C317 H321 0.950 . S
H318 C314 0.950 . S
C319 C317 1.390 . S
C319 C320 1.387 . S
C319 H322 0.950 . S
C320 C319 1.387 . S
C320 C323 1.387 . S
H321 C317 0.950 . S
H322 C319 0.950 . S
C323 C314 1.390 . S
C323 H316 0.950 . S
C323 C320 1.387 . S
C324 C325 1.387 . S
C324 H328 0.950 . S
C324 C333 1.390 . S
C325 C324 1.387 . S
C325 C327 1.387 . S
H326 C333 0.950 . S
C327 C325 1.387 . S
C327 C329 1.390 . S
C327 H331 0.950 . S
H328 C324 0.950 . S
C329 C327 1.390 . S
C329 C330 1.387 . S
C329 H332 0.950 . S
C330 C329 1.387 . S
C330 C333 1.387 . S
H331 C327 0.950 . S
H332 C329 0.950 . S
C333 C324 1.390 . S
C333 H326 0.950 . S
C333 C330 1.387 . S
C334 C335 1.387 . S
C334 H338 0.950 . S
C334 C343 1.390 . S
C335 C334 1.387 . S
C335 C337 1.387 . S
H336 C343 0.950 . S
C337 C335 1.387 . S
C337 C339 1.390 . S
C337 H341 0.950 . S
H338 C334 0.950 . S
C339 C337 1.390 . S
C339 C340 1.387 . S
C339 H342 0.950 . S
C340 C339 1.387 . S
C340 C343 1.387 . S
H341 C337 0.950 . S
H342 C339 0.950 . S
C343 C334 1.390 . S
C343 H336 0.950 . S
C343 C340 1.387 . S
C344 C345 1.387 . S
C344 H348 0.950 . S
C344 C353 1.390 . S
C345 C344 1.387 . S
C345 C347 1.387 . S
H346 C353 0.950 . S
C347 C345 1.387 . S
C347 C349 1.390 . S
C347 H351 0.950 . S
H348 C344 0.950 . S
C349 C347 1.390 . S
C349 C350 1.387 . S
C349 H352 0.950 . S
C350 C349 1.387 . S
C350 C353 1.387 . S
H351 C347 0.950 . S
H352 C349 0.950 . S
C353 C344 1.390 . S
C353 H346 0.950 . S
C353 C350 1.387 . S
C354 C355 1.387 . S
C354 H358 0.950 . S
C354 C363 1.390 . S
C355 C354 1.387 . S
C355 C357 1.387 . S
H356 C363 0.950 . S
C357 C355 1.387 . S
C357 C359 1.390 . S
C357 H361 0.950 . S
H358 C354 0.950 . S
C359 C357 1.390 . S
C359 C360 1.387 . S
C359 H362 0.950 . S
C360 C359 1.387 . S
C360 C363 1.387 . S
H361 C357 0.950 . S
H362 C359 0.950 . S
C363 C354 1.390 . S
C363 H356 0.950 . S
C363 C360 1.387 . S
C364 C365 1.387 . S
C364 H368 0.950 . S
C364 C373 1.390 . S
C365 C364 1.387 . S
C365 C367 1.387 . S
H366 C373 0.950 . S
C367 C365 1.387 . S
C367 C369 1.390 . S
C367 H371 0.950 . S
H368 C364 0.950 . S
C369 C367 1.390 . S
C369 C370 1.387 . S
C369 H372 0.950 . S
C370 C369 1.387 . S
C370 C373 1.387 . S
H371 C367 0.950 . S
H372 C369 0.950 . S
C373 C364 1.390 . S
C373 H366 0.950 . S
C373 C370 1.387 . S
C374 C375 1.387 . S
C374 H378 0.950 . S
C374 C383 1.390 . S
C375 C374 1.387 . S
C375 C377 1.387 . S
H376 C383 0.950 . S
C377 C375 1.387 . S
C377 C379 1.390 . S
C377 H381 0.950 . S
H378 C374 0.950 . S
C379 C377 1.390 . S
C379 C380 1.387 . S
C379 H382 0.950 . S
C380 C379 1.387 . S
C380 C383 1.387 . S
H381 C377 0.950 . S
H382 C379 0.950 . S
C383 C374 1.390 . S
C383 H376 0.950 . S
C383 C380 1.387 . S
C384 C385 1.387 . S
C384 H388 0.950 . S
C384 C393 1.390 . S
C385 C384 1.387 . S
C385 C387 1.387 . S
H386 C393 0.950 . S
C387 C385 1.387 . S
C387 C389 1.390 . S
C387 H391 0.950 . S
H388 C384 0.950 . S
C389 C387 1.390 . S
C389 C390 1.387 . S
C389 H392 0.950 . S
C390 C389 1.387 . S
C390 C393 1.387 . S
H391 C387 0.950 . S
H392 C389 0.950 . S
C393 C384 1.390 . S
C393 H386 0.950 . S
C393 C390 1.387 . S
C394 C395 1.387 . S
C394 H398 0.950 . S
C394 C403 1.390 . S
C395 C394 1.387 . S
C395 C397 1.387 . S
H396 C403 0.950 . S
C397 C395 1.387 . S
C397 C399 1.390 . S
C397 H401 0.950 . S
H398 C394 0.950 . S
C399 C397 1.390 . S
C399 C400 1.387 . S
C399 H402 0.950 . S
C400 C399 1.387 . S
C400 C403 1.387 . S
H401 C397 0.950 . S
H402 C399 0.950 . S
C403 C394 1.390 . S
C403 H396 0.950 . S
C403 C400 1.387 . S
C404 C405 1.387 . S
C404 H408 0.950 . S
C404 C413 1.390 . S
C405 C404 1.387 . S
C405 C407 1.387 . S
H406 C413 0.950 . S
C407 C405 1.387 . S
C407 C409 1.390 . S
C407 H411 0.950 . S
H408 C404 0.950 . S
C409 C407 1.390 . S
C409 C410 1.387 . S
C409 H412 0.950 . S
C410 C409 1.387 . S
C410 C413 1.387 . S
H411 C407 0.950 . S
H412 C409 0.950 . S
C413 C404 1.390 . S
C413 H406 0.950 . S
C413 C410 1.387 . S
C414 C415 1.387 . S
C414 H418 0.950 . S
C414 C423 1.390 . S
C415 C414 1.387 . S
C415 C417 1.387 . S
H416 C423 0.950 . S
C417 C415 1.387 . S
C417 C419 1.390 . S
C417 H421 0.950 . S
H418 C414 0.950 . S
C419 C417 1.390 . S
C419 C420 1.387 . S
C419 H422 0.950 . S
C420 C419 1.387 . S
C420 C423 1.387 . S
H421 C417 0.950 . S
H422 C419 0.950 . S
C423 C414 1.390 . S
C423 H416 0.950 . S
C423 C420 1.387 . S
C424 C425 1.387 . S
C424 H428 0.950 . S
C424 C433 1.390 . S
C425 C424 1.387 . S
C425 C427 1.387 . S
H426 C433 0.950 . S
C427 C425 1.387 . S
C427 C429 1.390 . S
C427 H431 0.950 . S
H428 C424 0.950 . S
C429 C427 1.390 . S
C429 C430 1.387 . S
C429 H432 0.950 . S
C430 C429 1.387 . S
C430 C433 1.387 . S
H431 C427 0.950 . S
H432 C429 0.950 . S
C433 C424 1.390 . S
C433 H426 0.950 . S
C433 C430 1.387 . S
C434 C435 1.387 . S
C434 H438 0.950 . S
C434 C443 1.390 . S
C435 C434 1.387 . S
C435 C437 1.387 . S
H436 C443 0.950 . S
C437 C435 1.387 . S
C437 C439 1.390 . S
C437 H441 0.950 . S
H438 C434 0.950 . S
C439 C437 1.390 . S
C439 C440 1.387 . S
C439 H442 0.950 . S
C440 C439 1.387 . S
C440 C443 1.387 . S
H441 C437 0.950 . S
H442 C439 0.950 . S
C443 C434 1.390 . S
C443 H436 0.950 . S
C443 C440 1.387 . S
C444 C445 1.387 . S
C444 H448 0.950 . S
C444 C453 1.390 . S
C445 C444 1.387 . S
C445 C447 1.387 . S
H446 C453 0.950 . S
C447 C445 1.387 . S
C447 C449 1.390 . S
C447 H451 0.950 . S
H448 C444 0.950 . S
C449 C447 1.390 . S
C449 C450 1.387 . S
C449 H452 0.950 . S
C450 C449 1.387 . S
C450 C453 1.387 . S
H451 C447 0.950 . S
H452 C449 0.950 . S
C453 C444 1.390 . S
C453 H446 0.950 . S
C453 C450 1.387 . S
C454 C455 1.387 . S
C454 H458 0.950 . S
C454 C463 1.390 . S
C455 C454 1.387 . S
C455 C457 1.387 . S
H456 C463 0.950 . S
C457 C455 1.387 . S
C457 C459 1.390 . S
C457 H461 0.950 . S
H458 C454 0.950 . S
C459 C457 1.390 . S
C459 C460 1.387 . S
C459 H462 0.950 . S
C460 C459 1.387 . S
C460 C463 1.387 . S
H461 C457 0.950 . S
H462 C459 0.950 . S
C463 C454 1.390 . S
C463 H456 0.950 . S
C463 C460 1.387 . S
C464 C465 1.387 . S
C464 H468 0.950 . S
C464 C473 1.390 1_665 S
C465 C464 1.387 . S
C465 C467 1.387 . S
H466 C473 0.950 . S
C467 C465 1.387 . S
C467 C469 1.390 1_665 S
C467 H471 0.950 . S
H468 C464 0.950 . S
C469 C467 1.390 1_445 S
C469 C470 1.387 . S
C469 H472 0.950 . S
C470 C469 1.387 . S
C470 C473 1.387 . S
H471 C467 0.950 . S
H472 C469 0.950 . S
C473 C464 1.390 1_445 S
C473 H466 0.950 . S
C473 C470 1.387 . S
C474 C475 1.387 . S
C474 H478 0.950 . S
C474 C483 1.390 1_645 S
C475 C474 1.387 . S
C475 C477 1.387 . S
H476 C483 0.950 . S
C477 C475 1.387 . S
C477 C479 1.390 1_645 S
C477 H481 0.950 . S
H478 C474 0.950 . S
C479 C477 1.390 1_465 S
C479 C480 1.387 . S
C479 H482 0.950 . S
C480 C479 1.387 . S
C480 C483 1.387 . S
H481 C477 0.950 . S
H482 C479 0.950 . S
C483 C474 1.390 1_465 S
C483 H476 0.950 . S
C483 C480 1.387 . S
C484 C485 1.387 . S
C484 H488 0.950 1_556 S
C484 C493 1.390 1_455 S
C485 C484 1.387 . S
C485 C487 1.387 . S
H486 C493 0.950 1_554 S
C487 C485 1.387 . S
C487 C489 1.390 1_455 S
C487 H491 0.950 . S
H488 C484 0.950 1_554 S
C489 C487 1.390 1_655 S
C489 C490 1.387 . S
C489 H492 0.950 . S
C490 C489 1.387 . S
C490 C493 1.387 . S
H491 C487 0.950 . S
H492 C489 0.950 . S
C493 C484 1.390 1_655 S
C493 H486 0.950 1_556 S
C493 C490 1.387 . S
C494 C495 1.387 . S
C494 H498 0.950 . S
C494 C503 1.390 1_565 S
C495 C494 1.387 . S
C495 C497 1.387 . S
H496 C503 0.950 . S
C497 C495 1.387 . S
C497 C499 1.390 1_565 S
C497 H501 0.950 1_554 S
H498 C494 0.950 . S
C499 C497 1.390 1_545 S
C499 C500 1.387 . S
C499 H502 0.950 1_554 S
C500 C499 1.387 . S
C500 C503 1.387 . S
H501 C497 0.950 1_556 S
H502 C499 0.950 1_556 S
C503 C494 1.390 1_545 S
C503 H496 0.950 . S
C503 C500 1.387 . S
C504 C505 1.387 . S
C504 H508 0.950 . S
C504 C513 1.390 . S
C505 C504 1.387 . S
C505 C507 1.387 . S
H506 C513 0.950 . S
C507 C505 1.387 . S
C507 C509 1.390 . S
C507 H511 0.950 . S
H508 C504 0.950 . S
C509 C507 1.390 . S
C509 C510 1.387 . S
C509 H512 0.950 . S
C510 C509 1.387 . S
C510 C513 1.387 . S
H511 C507 0.950 . S
H512 C509 0.950 . S
C513 C504 1.390 . S
C513 H506 0.950 . S
C513 C510 1.387 . S
C514 C515 1.387 . S
C514 H518 0.950 . S
C514 C523 1.390 . S
C515 C514 1.387 . S
C515 C517 1.387 . S
H516 C523 0.950 . S
C517 C515 1.387 . S
C517 C519 1.390 . S
C517 H521 0.950 . S
H518 C514 0.950 . S
C519 C517 1.390 . S
C519 C520 1.387 . S
C519 H522 0.950 . S
C520 C519 1.387 . S
C520 C523 1.387 . S
H521 C517 0.950 . S
H522 C519 0.950 . S
C523 C514 1.390 . S
C523 H516 0.950 . S
C523 C520 1.387 . S
C524 C525 1.387 . S
C524 H528 0.950 . S
C524 C533 1.390 1_545 S
C525 C524 1.387 . S
C525 C527 1.387 . S
H526 C533 0.950 . S
C527 C525 1.387 . S
C527 C529 1.390 1_545 S
C527 H531 0.950 . S
H528 C524 0.950 . S
C529 C527 1.390 1_565 S
C529 C530 1.387 . S
C529 H532 0.950 . S
C530 C529 1.387 . S
C530 C533 1.387 . S
H531 C527 0.950 . S
H532 C529 0.950 . S
C533 C524 1.390 1_565 S
C533 H526 0.950 . S
C533 C530 1.387 . S
C534 C535 1.387 . S
C534 H538 0.950 . S
C534 C543 1.390 1_655 S
C535 C534 1.387 . S
C535 C537 1.387 . S
H536 C543 0.950 . S
C537 C535 1.387 . S
C537 C539 1.390 1_655 S
C537 H541 0.950 . S
H538 C534 0.950 . S
C539 C537 1.390 1_455 S
C539 C540 1.387 . S
C539 H542 0.950 . S
C540 C539 1.387 . S
C540 C543 1.387 . S
H541 C537 0.950 . S
H542 C539 0.950 . S
C543 C534 1.390 1_455 S
C543 H536 0.950 . S
C543 C540 1.387 . S
C225 C9 1.287 . S
C230 C159 1.334 . S
C235 C117 1.353 . S
C240 C14 1.313 . S
C245 C131 1.333 . S
C250 C37 1.284 . S
C255 C145 1.353 . S
C260 C42 1.311 . S
C265 C75 1.334 . S
C270 C65 1.304 . S
C275 C70 1.313 1_556 S
C280 C89 1.353 . S
C285 C93 1.302 . S
C290 C103 1.333 . S
C295 C98 1.311 1_556 S
C300 C61 1.353 . S
C305 C121 1.284 . S
C310 C47 1.334 . S
C315 C5 1.353 . S
C320 C126 1.311 . S
C325 C19 1.334 . S
C330 C149 1.287 . S
C335 C33 1.353 . S
C340 C154 1.313 . S
C345 C187 1.333 . S
C350 C177 1.284 . S
C355 C182 1.311 . S
C360 C201 1.353 . S
C365 C215 1.333 . S
C370 C205 1.285 . S
C375 C173 1.354 . S
C380 C210 1.312 . S
C385 C207 1.550 . S
C390 C11 1.550 . S
C395 C221 1.587 . S
C400 C25 1.587 . S
C405 C179 1.551 . S
C410 C39 1.551 . S
C415 C53 1.587 . S
C420 C193 1.587 . S
C425 C67 1.551 . S
C430 C151 1.551 . S
C435 C165 1.588 . S
C440 C81 1.588 . S
C445 C95 1.551 . S
C450 C123 1.551 . S
C455 C109 1.587 . S
C460 C137 1.587 . S
C465 C28 1.374 . S
C470 C0 1.374 . S
C475 C51 1.396 . S
C480 C23 1.396 . S
C485 C56 1.370 . S
C490 C84 1.370 . S
C495 C79 1.396 . S
C500 C107 1.396 . S
C505 C140 1.370 . S
C510 C112 1.370 . S
C515 C135 1.396 . S
C520 C163 1.396 . S
C525 C196 1.374 . S
C530 C168 1.374 . S
C535 C191 1.400 . S
C540 C219 1.400 . S
