# Generated by pormake.
# Topology qtz-e, (6)-cn, num edge types: 1
# Building blocks:
#     Node 0, Type 0, BuildingBlock: LEVNOQ01_clean_sbu_1, # of connection points: 6
#     Node 1, Type 0, BuildingBlock: LEVNOQ01_clean_sbu_1, # of connection points: 6
#     Node 2, Type 0, BuildingBlock: LEVNOQ01_clean_sbu_1, # of connection points: 6
#     Node 3, Type 0, BuildingBlock: LEVNOQ01_clean_sbu_1, # of connection points: 6
#     Node 4, Type 0, BuildingBlock: LEVNOQ01_clean_sbu_1, # of connection points: 6
#     Node 5, Type 0, BuildingBlock: LEVNOQ01_clean_sbu_1, # of connection points: 6
#     Edge 6, Type (0, 0), BuildingBlock: UVAHIK_clean_linker_0, # of connection points: 2
#     Edge 7, Type (0, 0), BuildingBlock: UVAHIK_clean_linker_0, # of connection points: 2
#     Edge 8, Type (0, 0), BuildingBlock: UVAHIK_clean_linker_0, # of connection points: 2
#     Edge 9, Type (0, 0), BuildingBlock: UVAHIK_clean_linker_0, # of connection points: 2
#     Edge 10, Type (0, 0), BuildingBlock: UVAHIK_clean_linker_0, # of connection points: 2
#     Edge 11, Type (0, 0), BuildingBlock: UVAHIK_clean_linker_0, # of connection points: 2
#     Edge 12, Type (0, 0), BuildingBlock: UVAHIK_clean_linker_0, # of connection points: 2
#     Edge 13, Type (0, 0), BuildingBlock: UVAHIK_clean_linker_0, # of connection points: 2
#     Edge 14, Type (0, 0), BuildingBlock: UVAHIK_clean_linker_0, # of connection points: 2
#     Edge 15, Type (0, 0), BuildingBlock: UVAHIK_clean_linker_0, # of connection points: 2
#     Edge 16, Type (0, 0), BuildingBlock: UVAHIK_clean_linker_0, # of connection points: 2
#     Edge 17, Type (0, 0), BuildingBlock: UVAHIK_clean_linker_0, # of connection points: 2
#     Edge 18, Type (0, 0), BuildingBlock: UVAHIK_clean_linker_0, # of connection points: 2
#     Edge 19, Type (0, 0), BuildingBlock: UVAHIK_clean_linker_0, # of connection points: 2
#     Edge 20, Type (0, 0), BuildingBlock: UVAHIK_clean_linker_0, # of connection points: 2
#     Edge 21, Type (0, 0), BuildingBlock: UVAHIK_clean_linker_0, # of connection points: 2
#     Edge 22, Type (0, 0), BuildingBlock: UVAHIK_clean_linker_0, # of connection points: 2
#     Edge 23, Type (0, 0), BuildingBlock: UVAHIK_clean_linker_0, # of connection points: 2
# Relax obj value: 0.329
# Max RMSD: 0.228
# Mean RMSD: 0.228
data_MOF--net-qtz-e--node1-LEVNOQ01_clean_sbu_1--edge1-UVAHIK_clean_linker_0
_symmetry_space_group_name_H-M    P1
_symmetry_Int_Tables_number       1
_symmetry_cell_setting            triclinic
loop_
_symmetry_equiv_pos_as_xyz
'x, y, z'
_cell_length_a     35.714537
_cell_length_b     35.805034
_cell_length_c     39.703272
_cell_angle_alpha  90.215343
_cell_angle_beta   89.689773
_cell_angle_gamma 119.82396
loop_
_atom_site_label
_atom_site_type_symbol
_atom_site_fract_x
_atom_site_fract_y
_atom_site_fract_z
_atom_type_partial_charge
O0 O 0.25791 0.3621 0.04543 0.0
Mg1 Mg 0.2718 0.42466 0.03027 0.0
O2 O 0.25157 0.36251 -0.00834 0.0
Mg3 Mg 0.19953 0.38312 0.98891 0.0
O4 O 0.21961 0.43266 0.0331 0.0
O5 O 0.27619 0.46565 0.06787 0.0
O6 O 0.14502 0.3979 0.98072 0.0
O7 O 0.1587 0.32984 0.02505 0.0
Mg8 Mg 0.11016 0.29642 0.95236 0.0
O9 O 0.17353 0.33709 0.9486 0.0
O10 O 0.08989 0.34401 0.95314 0.0
O11 O 0.10628 0.27008 0.00151 0.0
O12 O 0.14536 0.28408 0.91322 0.0
C13 C 0.28585 0.45444 0.95573 0.0
C14 C 0.26626 0.35241 0.01692 0.0
C15 C 0.23907 0.45899 0.05782 0.0
C16 C 0.10783 0.38122 0.96697 0.0
C17 C 0.12852 0.29084 0.02704 0.0
C18 C 0.17933 0.31694 0.92481 0.0
O19 O 0.30347 0.45115 0.98257 0.0
O20 O 0.24483 0.43627 0.95312 0.0
O21 O 0.82382 0.12835 0.35972 0.0
Mg22 Mg 0.80725 0.11903 0.30769 0.0
O23 O 0.80603 0.17905 0.36955 0.0
Mg24 Mg 0.80479 0.21325 0.32115 0.0
O25 O 0.83186 0.18018 0.29393 0.0
O26 O 0.85114 0.14038 0.26567 0.0
O27 O 0.80595 0.24916 0.27178 0.0
O28 O 0.87368 0.26858 0.33276 0.0
Mg29 Mg 0.80622 0.30539 0.33962 0.0
O30 O 0.77229 0.24293 0.34997 0.0
O31 O 0.8012 0.30704 0.28654 0.0
O32 O 0.86843 0.3218 0.35739 0.0
O33 O 0.75337 0.28749 0.37222 0.0
C34 C 0.71966 0.11714 0.30196 0.0
C35 C 0.81583 0.15126 0.37998 0.0
C36 C 0.8531 0.17696 0.2696 0.0
C37 C 0.8036 0.28267 0.26425 0.0
C38 C 0.89053 0.30447 0.34835 0.0
C39 C 0.74679 0.24888 0.36928 0.0
O40 O 0.74022 0.09653 0.30024 0.0
O41 O 0.73796 0.15731 0.30876 0.0
O42 O 0.59321 0.88661 0.71124 0.0
Mg43 Mg 0.53661 0.83007 0.69603 0.0
O44 O 0.62074 0.88167 0.66328 0.0
Mg45 Mg 0.60502 0.8103 0.65936 0.0
O46 O 0.55208 0.78371 0.69888 0.0
O47 O 0.50081 0.78215 0.73129 0.0
O48 O 0.5924 0.7412 0.65163 0.0
O49 O 0.65013 0.82021 0.70146 0.0
Mg50 Mg 0.69788 0.80821 0.63622 0.0
O51 O 0.6591 0.83218 0.62473 0.0
O52 O 0.65078 0.74145 0.63022 0.0
O53 O 0.71247 0.82384 0.68884 0.0
O54 O 0.72123 0.85957 0.5996 0.0
C55 C 0.52648 0.81089 0.61798 0.0
C56 C 0.61697 0.90485 0.68598 0.0
C57 C 0.52319 0.76474 0.72188 0.0
C58 C 0.61142 0.72153 0.63996 0.0
C59 C 0.68651 0.82537 0.71023 0.0
C60 C 0.68627 0.86063 0.605 0.0
O61 O 0.5162 0.82377 0.64466 0.0
O62 O 0.55693 0.80181 0.61751 0.0
O63 O 0.86837 0.70676 0.00139 0.0
Mg64 Mg 0.86176 0.68648 0.95032 0.0
O65 O 0.82503 0.64214 0.02404 0.0
Mg66 Mg 0.77924 0.59426 0.98537 0.0
O67 O 0.79813 0.64594 0.94888 0.0
O68 O 0.82613 0.6995 0.91348 0.0
O69 O 0.73439 0.54697 0.9451 0.0
O70 O 0.72214 0.60376 0.00296 0.0
Mg71 Mg 0.70021 0.50795 0.02182 0.0
O72 O 0.76469 0.54163 0.02272 0.0
O73 O 0.68482 0.48717 0.97066 0.0
O74 O 0.68125 0.55179 0.03905 0.0
O75 O 0.72883 0.48409 0.0546 0.0
C76 C 0.87173 0.60572 0.95325 0.0
C77 C 0.8547 0.68139 0.02659 0.0
C78 C 0.79234 0.66659 0.92542 0.0
C79 C 0.70195 0.509 0.94408 0.0
C80 C 0.69091 0.58671 0.02404 0.0
C81 C 0.76529 0.51541 0.04451 0.0
O82 O 0.88805 0.64467 0.94359 0.0
O83 O 0.83479 0.58525 0.96738 0.0
O84 O 0.10114 0.70601 0.37255 0.0
Mg85 Mg 0.1512 0.70156 0.3471 0.0
O86 O 0.10361 0.73742 0.32551 0.0
Mg87 Mg 0.17459 0.79228 0.32502 0.0
O88 O 0.20406 0.75923 0.35432 0.0
O89 O 0.19965 0.69943 0.37431 0.0
O90 O 0.24186 0.85007 0.32098 0.0
O91 O 0.16435 0.81624 0.37454 0.0
Mg92 Mg 0.17056 0.8875 0.32074 0.0
O93 O 0.15124 0.82982 0.30052 0.0
O94 O 0.23869 0.91065 0.31368 0.0
O95 O 0.15238 0.87151 0.37297 0.0
O96 O 0.12259 0.86582 0.28043 0.0
C97 C 0.16444 0.72201 0.26978 0.0
C98 C 0.08119 0.71108 0.34847 0.0
C99 C 0.22098 0.74065 0.37101 0.0
C100 C 0.25996 0.89067 0.31616 0.0
C101 C 0.15528 0.84236 0.3892 0.0
C102 C 0.12526 0.83137 0.27997 0.0
O103 O 0.14791 0.6942 0.29329 0.0
O104 O 0.18222 0.76252 0.27549 0.0
O105 O 0.26873 0.16546 0.66102 0.0
Mg106 Mg 0.29717 0.17666 0.61185 0.0
O107 O 0.32487 0.17112 0.68985 0.0
Mg108 Mg 0.37675 0.17123 0.65679 0.0
O109 O 0.33142 0.14643 0.6149 0.0
O110 O 0.28285 0.12653 0.57564 0.0
O111 O 0.42936 0.17073 0.62428 0.0
O112 O 0.35808 0.10132 0.66966 0.0
Mg113 Mg 0.4409 0.15518 0.70885 0.0
O114 O 0.42333 0.19948 0.69933 0.0
O115 O 0.46654 0.15307 0.65996 0.0
O116 O 0.37994 0.10167 0.72088 0.0
O117 O 0.47042 0.21132 0.73896 0.0
C118 C 0.38283 0.26096 0.62394 0.0
C119 C 0.28815 0.16889 0.68872 0.0
C120 C 0.311 0.12053 0.59102 0.0
C121 C 0.45863 0.16099 0.63027 0.0
C122 C 0.36292 0.08114 0.69404 0.0
C123 C 0.4488 0.2247 0.72202 0.0
O124 O 0.34672 0.24243 0.60867 0.0
O125 O 0.39665 0.24042 0.64137 0.0
C126 C 0.20075 0.71953 0.21654 0.0
C127 C 0.16298 0.70532 0.23568 0.0
C128 C 0.20116 0.69509 0.18903 0.0
C129 C 0.14634 0.58129 0.16731 0.0
H130 H 0.21852 0.61903 0.08735 0.0
C131 C 0.22364 0.48969 0.10865 0.0
C132 C 0.22008 0.48283 0.07376 0.0
C133 C 0.20907 0.51539 0.1237 0.0
C134 C 0.19771 0.60805 0.10933 0.0
H135 H 0.09508 0.65787 0.23927 0.0
H136 H 0.09529 0.61627 0.19067 0.0
H137 H 0.20699 0.67097 0.11983 0.0
H138 H 0.19917 0.4974 0.02704 0.0
H139 H 0.17425 0.54349 0.05345 0.0
H140 H 0.13862 0.51899 0.15776 0.0
C141 C 0.12491 0.64522 0.19732 0.0
C142 C 0.19139 0.63774 0.128 0.0
C143 C 0.12471 0.66912 0.22499 0.0
C144 C 0.20136 0.50169 0.0541 0.0
C145 C 0.18761 0.52829 0.06909 0.0
C146 C 0.15303 0.5519 0.14893 0.0
C147 C 0.16365 0.65648 0.18026 0.0
C148 C 0.16622 0.62479 0.15754 0.0
C149 C 0.1916 0.53547 0.10401 0.0
C150 C 0.17949 0.56518 0.12023 0.0
H151 H 0.23068 0.74721 0.22458 0.0
H152 H 0.23156 0.70455 0.17644 0.0
H153 H 0.12732 0.57029 0.19021 0.0
H154 H 0.2381 0.47551 0.12424 0.0
H155 H 0.21276 0.52073 0.15066 0.0
C156 C 0.52227 0.15757 0.60824 0.0
C157 C 0.48385 0.15803 0.60196 0.0
C158 C 0.547 0.15607 0.58165 0.0
C159 C 0.54799 0.13022 0.49265 0.0
H160 H 0.66707 0.22209 0.49701 0.0
C161 C 0.67026 0.1965 0.3817 0.0
C162 C 0.71395 0.2149 0.39017 0.0
C163 C 0.6385 0.17646 0.40653 0.0
C164 C 0.63423 0.19552 0.4957 0.0
H165 H 0.43997 0.15496 0.56298 0.0
H166 H 0.48377 0.15258 0.51625 0.0
H167 H 0.61792 0.21373 0.54232 0.0
H168 H 0.75909 0.226 0.43 0.0
H169 H 0.70407 0.18782 0.47267 0.0
H170 H 0.56462 0.11263 0.44542 0.0
C171 C 0.4945 0.15345 0.54186 0.0
C172 C 0.60604 0.19099 0.5216 0.0
C173 C 0.46982 0.15532 0.56854 0.0
C174 C 0.72552 0.20988 0.42267 0.0
C175 C 0.69398 0.18907 0.44722 0.0
C176 C 0.5765 0.13461 0.46659 0.0
C177 C 0.5337 0.15467 0.54826 0.0
C178 C 0.56277 0.15831 0.52042 0.0
C179 C 0.65047 0.17496 0.43999 0.0
C180 C 0.62 0.16724 0.46803 0.0
H181 H 0.53379 0.15928 0.6337 0.0
H182 H 0.577 0.15672 0.58716 0.0
H183 H 0.51461 0.1048 0.49129 0.0
H184 H 0.66096 0.20102 0.35677 0.0
H185 H 0.60526 0.16602 0.40022 0.0
C186 C 0.30018 0.49648 0.90238 0.0
C187 C 0.31357 0.47738 0.9267 0.0
C188 C 0.32738 0.51906 0.87547 0.0
C189 C 0.44303 0.57471 0.85168 0.0
H190 H 0.39715 0.58718 0.76693 0.0
C191 C 0.52514 0.72709 0.77301 0.0
C192 C 0.51635 0.72553 0.73857 0.0
C193 C 0.50808 0.68923 0.79172 0.0
C194 C 0.41088 0.5834 0.79004 0.0
H195 H 0.36426 0.46404 0.94081 0.0
H196 H 0.4112 0.50225 0.89348 0.0
H197 H 0.34943 0.53327 0.80702 0.0
H198 H 0.48511 0.68407 0.69598 0.0
H199 H 0.45617 0.61721 0.72839 0.0
H200 H 0.50454 0.62472 0.83459 0.0
C201 C 0.3806 0.50147 0.89573 0.0
C202 C 0.38322 0.55295 0.81338 0.0
C203 C 0.35375 0.47962 0.9229 0.0
C204 C 0.493 0.68565 0.72243 0.0
C205 C 0.47591 0.64758 0.74113 0.0
C206 C 0.4708 0.60475 0.82816 0.0
C207 C 0.36816 0.52222 0.87198 0.0
C208 C 0.3986 0.54943 0.84504 0.0
C209 C 0.48151 0.6491 0.77631 0.0
C210 C 0.45473 0.61074 0.79764 0.0
H211 H 0.26923 0.49499 0.90467 0.0
H212 H 0.31688 0.53516 0.85804 0.0
H213 H 0.45619 0.57312 0.87579 0.0
H214 H 0.54273 0.75776 0.78588 0.0
H215 H 0.51282 0.69191 0.81872 0.0
C216 C 0.84516 0.30396 0.21038 0.0
C217 C 0.80909 0.29776 0.22927 0.0
C218 C 0.85801 0.33046 0.18181 0.0
C219 C 0.87668 0.42712 0.156 0.0
H220 H 0.82065 0.40002 0.06895 0.0
C221 C 0.81248 0.52239 0.09164 0.0
C222 C 0.80504 0.51807 0.05689 0.0
C223 C 0.83616 0.50565 0.10668 0.0
C224 C 0.83796 0.40835 0.0926 0.0
H225 H 0.75653 0.31141 0.23219 0.0
H226 H 0.77798 0.35618 0.18165 0.0
H227 H 0.81229 0.34191 0.10573 0.0
H228 H 0.82036 0.49797 0.00987 0.0
H229 H 0.86198 0.46846 0.03614 0.0
H230 H 0.89875 0.49332 0.14447 0.0
C231 C 0.79648 0.34107 0.18907 0.0
C232 C 0.83294 0.37495 0.11363 0.0
C233 C 0.78412 0.31536 0.21776 0.0
C234 C 0.82622 0.502 0.03674 0.0
C235 C 0.84961 0.48474 0.05182 0.0
C236 C 0.88142 0.46056 0.1351 0.0
C237 C 0.83433 0.3501 0.17171 0.0
C238 C 0.85075 0.38411 0.14596 0.0
C239 C 0.85203 0.48362 0.08715 0.0
C240 C 0.8602 0.45136 0.1039 0.0
H241 H 0.86539 0.29145 0.21928 0.0
H242 H 0.88746 0.33738 0.16873 0.0
H243 H 0.89018 0.4347 0.18113 0.0
H244 H 0.79596 0.53429 0.10759 0.0
H245 H 0.83725 0.50531 0.13393 0.0
C246 C 0.45991 0.80131 0.59091 0.0
C247 C 0.50109 0.80575 0.5874 0.0
C248 C 0.4355 0.79768 0.56274 0.0
C249 C 0.43836 0.82654 0.47648 0.0
H250 H 0.32028 0.73186 0.47712 0.0
C251 C 0.30058 0.77396 0.37487 0.0
C252 C 0.26124 0.76551 0.38933 0.0
C253 C 0.33681 0.7869 0.39529 0.0
C254 C 0.35318 0.75846 0.47666 0.0
H255 H 0.54873 0.80932 0.55146 0.0
H256 H 0.50584 0.80413 0.50158 0.0
H257 H 0.37091 0.73434 0.51913 0.0
H258 H 0.22876 0.76678 0.43508 0.0
H259 H 0.29192 0.78933 0.47082 0.0
H260 H 0.41973 0.85095 0.43412 0.0
C261 C 0.49293 0.80343 0.52647 0.0
C262 C 0.38209 0.75971 0.50048 0.0
C263 C 0.51728 0.80627 0.55492 0.0
C264 C 0.25907 0.77347 0.42359 0.0
C265 C 0.29501 0.78619 0.44393 0.0
C266 C 0.40921 0.82518 0.45235 0.0
C267 C 0.45176 0.79884 0.53034 0.0
C268 C 0.42449 0.79432 0.50122 0.0
C269 C 0.33342 0.79084 0.4302 0.0
C270 C 0.36611 0.79174 0.45308 0.0
H271 H 0.44627 0.8004 0.61554 0.0
H272 H 0.40384 0.79431 0.56629 0.0
H273 H 0.47095 0.85365 0.47685 0.0
H274 H 0.30245 0.76761 0.3484 0.0
H275 H 0.36617 0.79026 0.38432 0.0
C276 C 0.6739 0.51688 0.88868 0.0
C277 C 0.68061 0.49111 0.91175 0.0
C278 C 0.64552 0.49786 0.86165 0.0
C279 C 0.5505 0.39393 0.84263 0.0
H280 H 0.56543 0.43141 0.74967 0.0
C281 C 0.43461 0.27743 0.75135 0.0
C282 C 0.4576 0.26881 0.72681 0.0
C283 C 0.45387 0.3176 0.76728 0.0
C284 C 0.56057 0.42081 0.77564 0.0
H285 H 0.66693 0.42647 0.92314 0.0
H286 H 0.61895 0.39346 0.87537 0.0
H287 H 0.62119 0.47441 0.79113 0.0
H288 H 0.51527 0.29598 0.69609 0.0
H289 H 0.54942 0.36535 0.7241 0.0
H290 H 0.49195 0.33919 0.82759 0.0
C291 C 0.634 0.42799 0.87877 0.0
C292 C 0.59247 0.44548 0.79933 0.0
C293 C 0.66166 0.44681 0.90592 0.0
C294 C 0.4971 0.30226 0.71503 0.0
C295 C 0.51661 0.34215 0.73116 0.0
C296 C 0.51893 0.36938 0.81916 0.0
C297 C 0.62395 0.45295 0.85736 0.0
C298 C 0.58847 0.43112 0.83273 0.0
C299 C 0.4968 0.34888 0.75946 0.0
C300 C 0.52424 0.38146 0.78504 0.0
H301 H 0.68812 0.55119 0.89286 0.0
H302 H 0.63855 0.51787 0.84543 0.0
H303 H 0.54592 0.38272 0.86844 0.0
H304 H 0.40399 0.25188 0.76074 0.0
H305 H 0.43706 0.32231 0.7882 0.0
C306 C 0.32961 0.36744 0.98117 0.0
C307 C 0.30865 0.35505 0.01265 0.0
C308 C 0.37445 0.39263 0.97963 0.0
C309 C 0.47382 0.44526 0.03233 0.0
H310 H 0.49814 0.54561 0.97894 0.0
C311 C 0.63164 0.59173 0.05138 0.0
C312 C 0.65569 0.59642 0.02205 0.0
C313 C 0.58677 0.57212 0.04956 0.0
C314 C 0.49151 0.51791 -0.00584 0.0
H315 H 0.31825 0.3496 0.06588 0.0
H316 H 0.39595 0.3934 0.06333 0.0
H317 H 0.42825 0.47994 0.97391 0.0
H318 H 0.6528 0.59138 0.96772 0.0
H319 H 0.57553 0.55992 0.96436 0.0
H320 H 0.53684 0.48346 0.0529 0.0
C321 C 0.37823 0.38532 0.0399 0.0
C322 C 0.45191 0.48 -0.00916 0.0
C323 C 0.33345 0.35995 0.04139 0.0
C324 C 0.63551 0.58979 -0.0094 0.0
C325 C 0.59075 0.57063 0.98873 0.0
C326 C 0.51305 0.48324 0.03595 0.0
C327 C 0.3987 0.40502 0.00944 0.0
C328 C 0.4426 0.44324 0.00998 0.0
C329 C 0.56603 0.55767 0.01837 0.0
C330 C 0.52216 0.51998 0.01709 0.0
H331 H 0.3115 0.36302 0.9583 0.0
H332 H 0.38961 0.40576 0.95553 0.0
H333 H 0.46795 0.41748 0.04711 0.0
H334 H 0.64653 0.59656 0.07591 0.0
H335 H 0.56819 0.56312 0.07274 0.0
C336 C 0.0154 0.6438 0.36386 0.0
C337 C 0.04076 0.67262 0.33855 0.0
C338 C -0.00558 0.59971 0.35765 0.0
C339 C 0.02539 0.53442 0.30885 0.0
H340 H 0.93282 0.44232 0.35956 0.0
C341 C 0.95421 0.34915 0.31466 0.0
C342 C 0.9372 0.33349 0.34684 0.0
C343 C 0.98079 0.39337 0.30992 0.0
C344 C 0.95912 0.46802 0.3456 0.0
H345 H 0.05532 0.67915 0.28495 0.0
H346 H 0.0186 0.60209 0.27417 0.0
H347 H 0.93321 0.50996 0.35233 0.0
H348 H 0.9443 0.34824 0.40003 0.0
H349 H 0.99183 0.42509 0.39197 0.0
H350 H 0.05083 0.49157 0.30205 0.0
C351 C 0.01639 0.6133 0.29909 0.0
C352 C 0.95898 0.50641 0.34109 0.0
C353 C 0.03696 0.65749 0.30526 0.0
C354 C 0.95646 0.35992 0.37492 0.0
C355 C 0.98336 0.40402 0.37026 0.0
C356 C 0.0252 0.49554 0.31304 0.0
C357 C -0.0016 0.58424 0.32597 0.0
C358 C -0.00723 0.54052 0.32361 0.0
C359 C 0.99091 0.42116 0.33756 0.0
C360 C -0.00715 0.46275 0.3325 0.0
H361 H 0.01718 0.65483 0.38957 0.0
H362 H 0.9802 0.57815 0.37885 0.0
H363 H 0.05225 0.56038 0.29558 0.0
H364 H 0.94007 0.32928 0.29259 0.0
H365 H 0.98688 0.40595 0.28447 0.0
C366 C 0.38474 0.02737 0.70967 0.0
C367 C 0.37498 0.04847 0.68438 0.0
C368 C 0.41226 0.01104 0.70282 0.0
C369 C 0.50409 0.03734 0.64725 0.0
H370 H 0.5037 0.94216 0.69367 0.0
C371 C 0.60837 0.95021 0.64334 0.0
C372 C 0.62055 0.94619 0.67619 0.0
C373 C 0.58784 0.97412 0.63763 0.0
C374 C 0.50414 0.96894 0.68068 0.0
H375 H 0.38217 0.06372 0.63084 0.0
H376 H 0.42897 0.03434 0.61901 0.0
H377 H 0.43919 0.94912 0.69508 0.0
H378 H 0.62925 0.97095 0.72708 0.0
H379 H 0.59329 0.01259 0.7171 0.0
H380 H 0.56946 0.05664 0.63281 0.0
C381 C 0.41634 0.03153 0.64432 0.0
C382 C 0.46729 0.97286 0.68141 0.0
C383 C 0.38869 0.04767 0.65111 0.0
C384 C 0.61977 0.97317 0.70161 0.0
C385 C 0.5991 -0.00309 0.69594 0.0
C386 C 0.54103 0.03313 0.64629 0.0
C387 C 0.43032 0.0153 0.6705 0.0
C388 C 0.4671 0.00761 0.66539 0.0
C389 C 0.5798 -0.00565 0.6647 0.0
C390 C 0.54145 -0.00054 0.66376 0.0
H391 H 0.37465 0.02732 0.73546 0.0
H392 H 0.42226 -0.00146 0.72359 0.0
H393 H 0.50511 0.06479 0.63495 0.0
H394 H 0.60804 0.92949 0.62337 0.0
H395 H 0.57305 0.9717 0.61336 0.0
C396 C 0.54446 0.65104 0.65013 0.0
C397 C 0.58745 0.67405 0.63883 0.0
C398 C 0.52224 0.60619 0.65026 0.0
C399 C 0.53777 0.51283 0.65111 0.0
H400 H 0.42412 0.45317 0.61075 0.0
C401 C 0.45157 0.33102 0.62306 0.0
C402 C 0.40649 0.30798 0.62543 0.0
C403 C 0.47371 0.37579 0.62606 0.0
C404 C 0.45546 0.46915 0.6227 0.0
H405 H 0.64076 0.66792 0.61851 0.0
H406 H 0.60162 0.58946 0.61843 0.0
H407 H 0.46235 0.53123 0.61434 0.0
H408 H 0.34902 0.3124 0.63483 0.0
H409 H 0.38754 0.39015 0.64178 0.0
H410 H 0.53069 0.45088 0.66022 0.0
C411 C 0.58547 0.60634 0.62763 0.0
C412 C 0.47738 0.5139 0.62458 0.0
C413 C 0.60769 0.65122 0.62746 0.0
C414 C 0.38382 0.32987 0.63185 0.0
C415 C 0.40592 0.37438 0.63579 0.0
C416 C 0.51557 0.46796 0.64972 0.0
C417 C 0.54261 0.58352 0.63905 0.0
C418 C 0.51885 0.5361 0.63848 0.0
C419 C 0.4511 0.398 0.6325 0.0
C420 C 0.4743 0.4456 0.63517 0.0
H421 H 0.52795 0.66763 0.65899 0.0
H422 H 0.48925 0.58923 0.6594 0.0
H423 H 0.56958 0.52935 0.66232 0.0
H424 H 0.46955 0.31445 0.61847 0.0
H425 H 0.50843 0.39293 0.6229 0.0
C426 C 0.04203 0.38712 0.95612 0.0
C427 C 0.08448 0.40549 0.96818 0.0
C428 C 0.01983 0.40991 0.95806 0.0
C429 C 0.03753 0.51843 0.95955 0.0
H430 H 0.91881 0.46449 -0.00946 0.0
C431 C 0.94209 0.60908 0.96146 0.0
C432 C 0.89834 0.58521 0.95274 0.0
C433 C 0.9659 0.58837 0.96639 0.0
C434 C 0.95179 0.47984 0.98144 0.0
H435 H 0.13675 0.46206 -0.0081 0.0
H436 H 0.09793 0.50182 -0.00495 0.0
H437 H 0.95814 0.42516 -0.006 0.0
H438 H 0.84513 0.52165 0.94165 0.0
H439 H 0.88725 0.48563 0.94813 0.0
H440 H 0.03096 0.57236 0.9456 0.0
C441 C 0.08205 0.46986 0.98408 0.0
C442 C 0.97427 0.4574 0.98363 0.0
C443 C 0.10417 0.44703 0.9823 0.0
C444 C 0.87898 0.54063 0.94812 0.0
C445 C 0.90295 0.52003 0.95238 0.0
C446 C 0.0149 0.54066 0.95691 0.0
C447 C 0.03978 0.4515 0.9719 0.0
C448 C 0.01708 0.47632 0.97223 0.0
C449 C 0.9465 0.54355 0.96209 0.0
C450 C 0.97154 0.5213 0.96727 0.0
H451 H 0.02588 0.35515 0.9452 0.0
H452 H 0.98736 0.39537 0.94813 0.0
H453 H 0.0705 0.53353 0.95042 0.0
H454 H 0.9573 0.64341 0.96607 0.0
H455 H -0.00086 0.60732 0.97443 0.0
C456 C 0.32858 0.9574 0.30126 0.0
C457 C 0.30723 0.91494 0.31333 0.0
C458 C 0.37336 0.97973 0.29801 0.0
C459 C 0.46554 0.96272 0.2887 0.0
H460 H 0.53181 0.07971 0.3221 0.0
C461 C 0.64935 0.04907 0.3048 0.0
C462 C 0.67271 0.09336 0.298 0.0
C463 C 0.60446 0.02723 0.30416 0.0
C464 C 0.5137 0.04732 0.31213 0.0
H465 H 0.31596 0.86287 0.33229 0.0
H466 H 0.39408 0.90211 0.32684 0.0
H467 H 0.4534 0.04194 0.32636 0.0
H468 H 0.66804 0.14933 0.28378 0.0
H469 H 0.58951 0.11081 0.2815 0.0
H470 H 0.52573 0.96802 0.27438 0.0
C471 C 0.37611 0.91773 0.3193 0.0
C472 C 0.46892 0.02574 0.31468 0.0
C473 C 0.33144 0.8954 0.3225 0.0
C474 C 0.65065 0.1152 0.28939 0.0
C475 C 0.60579 0.09324 0.28828 0.0
C476 C 0.51032 0.9844 0.28593 0.0
C477 C 0.39736 0.95993 0.30685 0.0
C478 C 0.44457 0.98321 0.30319 0.0
C479 C 0.58229 0.04925 0.29627 0.0
C480 C 0.5348 0.02681 0.2978 0.0
H481 H 0.31072 0.97319 0.2939 0.0
H482 H 0.38917 0.01221 0.28811 0.0
H483 H 0.44729 0.93004 0.27931 0.0
H484 H 0.66565 0.0316 0.31188 0.0
H485 H 0.58717 -0.00653 0.31093 0.0
C486 C 0.28965 0.18354 0.74988 0.0
C487 C 0.27878 0.18903 0.71712 0.0
C488 C 0.29855 0.21492 0.77436 0.0
C489 C 0.29137 0.31412 0.79027 0.0
H490 H 0.35654 0.31696 0.86887 0.0
C491 C 0.24944 0.36882 0.89916 0.0
C492 C 0.22245 0.32837 0.91342 0.0
C493 C 0.2869 0.37645 0.88223 0.0
C494 C 0.3399 0.31794 0.84645 0.0
H495 H 0.26701 0.2305 0.68451 0.0
H496 H 0.28501 0.28582 0.72568 0.0
H497 H 0.35525 0.27552 0.81955 0.0
H498 H 0.21547 0.26667 0.9264 0.0
H499 H 0.27987 0.27904 0.89603 0.0
H500 H 0.27557 0.35579 0.8169 0.0
C501 C 0.285 0.25698 0.73366 0.0
C502 C 0.33787 0.29309 0.81857 0.0
C503 C 0.27411 0.22476 0.70985 0.0
C504 C 0.23564 0.29766 0.91461 0.0
C505 C 0.27313 0.30532 0.89795 0.0
C506 C 0.29482 0.34008 0.8174 0.0
C507 C 0.29839 0.25312 0.76609 0.0
C508 C 0.31041 0.28795 0.79141 0.0
C509 C 0.29662 0.34309 0.87885 0.0
C510 C 0.31534 0.33867 0.84701 0.0
H511 H 0.29409 0.15649 0.75587 0.0
H512 H 0.30682 0.20961 0.79938 0.0
H513 H 0.27007 0.31178 0.77013 0.0
H514 H 0.23943 0.39278 0.89814 0.0
H515 H 0.30458 0.40584 0.8678 0.0
C516 C 0.91708 0.24754 0.26061 0.0
C517 C 0.87929 0.21296 0.24773 0.0
C518 C 0.95115 0.27234 0.23882 0.0
C519 C 0.9864 0.22599 0.18578 0.0
H520 H 0.07173 0.32941 0.14067 0.0
C521 C 0.07447 0.23613 0.06585 0.0
C522 C 0.11516 0.27255 0.06086 0.0
C523 C 0.05476 0.22891 0.09729 0.0
C524 C 0.04875 0.30068 0.15406 0.0
H525 H 0.84301 0.1815 0.2029 0.0
H526 H 0.90253 0.22521 0.16466 0.0
H527 H 0.01464 0.33126 0.17413 0.0
H528 H 0.17097 0.32439 0.08593 0.0
H529 H 0.13573 0.31225 0.14053 0.0
H530 H 0.01868 0.19466 0.16457 0.0
C531 C 0.90616 0.23329 0.19123 0.0
C532 C 0.01605 0.30176 0.17262 0.0
C533 C 0.87244 0.20797 0.213 0.0
C534 C 0.13885 0.29691 0.08886 0.0
C535 C 0.11894 0.28999 0.12015 0.0
C536 C 0.0188 0.22485 0.16725 0.0
C537 C 0.94691 0.26193 0.20452 0.0
C538 C 0.98403 0.26396 0.18743 0.0
C539 C 0.07569 0.25812 0.12369 0.0
C540 C 0.04934 0.26179 0.1504 0.0
H541 H 0.92251 0.25145 0.28752 0.0
H542 H 0.98248 0.29445 0.24934 0.0
H543 H 0.96207 0.19672 0.19782 0.0
H544 H 0.0559 0.21623 0.04486 0.0
H545 H 0.02133 0.2038 0.09967 0.0
C546 C 0.71438 0.93843 0.59918 0.0
C547 C 0.68111 0.89637 0.59365 0.0
C548 C 0.71161 0.97285 0.58606 0.0
C549 C 0.67383 0.99042 0.509 0.0
H550 H 0.74951 0.10805 0.5383 0.0
C551 C 0.78992 0.15675 0.43715 0.0
C552 C 0.80732 0.13801 0.41554 0.0
C553 C 0.76549 0.1342 0.46519 0.0
C554 C 0.72753 0.07556 0.52986 0.0
H555 H 0.61769 0.8564 0.57278 0.0
H556 H 0.61321 0.91679 0.54808 0.0
H557 H 0.70932 0.0518 0.58015 0.0
H558 H 0.82086 0.08547 0.41015 0.0
H559 H 0.77965 0.04696 0.45959 0.0
H560 H 0.69411 0.01349 0.459 0.0
C561 C 0.64116 0.92334 0.56296 0.0
C562 C 0.70448 0.04346 0.55366 0.0
C563 C 0.64367 0.8889 0.57685 0.0
C564 C 0.80659 0.10015 0.42562 0.0
C565 C 0.78261 0.07785 0.45368 0.0
C566 C 0.69654 0.02239 0.48536 0.0
C567 C 0.67588 0.9656 0.56647 0.0
C568 C 0.68082 7e-05 0.54349 0.0
C569 C 0.75936 0.09325 0.47204 0.0
C570 C 0.72619 0.06426 0.49592 0.0
H571 H 0.74317 0.94459 0.61274 0.0
H572 H 0.7393 0.00477 0.58884 0.0
H573 H 0.65555 0.95749 0.50016 0.0
H574 H 0.79199 0.18693 0.43068 0.0
H575 H 0.74883 0.14715 0.47979 0.0
C576 C 0.71666 0.80271 0.7567 0.0
C577 C 0.6919 0.82106 0.7464 0.0
C578 C 0.70681 0.78009 0.78688 0.0
C579 C 0.66964 0.75544 0.86657 0.0
H580 H 0.62428 0.63739 0.83661 0.0
C581 C 0.72193 0.66057 0.93731 0.0
C582 C 0.74943 0.65603 0.91452 0.0
C583 C 0.68647 0.66288 0.92551 0.0
C584 C 0.63531 0.66973 0.84582 0.0
H585 H 0.64317 0.83717 0.76212 0.0
H586 H 0.62633 0.79744 0.8151 0.0
H587 H 0.62423 0.69056 0.79836 0.0
H588 H 0.76025 0.64592 0.86256 0.0
H589 H 0.69876 0.65019 0.84159 0.0
H590 H 0.68575 0.73649 0.91239 0.0
C591 C 0.65225 0.79969 0.79936 0.0
C592 C 0.63543 0.70009 0.82395 0.0
C593 C 0.66222 0.82255 0.76923 0.0
C594 C 0.73904 0.64931 0.88038 0.0
C595 C 0.70342 0.6512 0.86858 0.0
C596 C 0.66953 0.72511 0.88846 0.0
C597 C 0.67269 0.77625 0.80707 0.0
C598 C 0.65591 0.74358 0.83345 0.0
C599 C 0.67871 0.66121 0.89078 0.0
C600 C 0.65651 0.68314 0.8769 0.0
H601 H 0.73992 0.80134 0.73986 0.0
H602 H 0.72338 0.76261 0.79312 0.0
H603 H 0.68525 0.78893 0.87418 0.0
H604 H 0.73014 0.66654 0.96374 0.0
H605 H 0.66792 0.67048 0.94311 0.0
C606 C 0.12159 0.78253 0.23489 0.0
C607 C 0.10015 0.79542 0.25764 0.0
C608 C 0.09809 0.74929 0.21232 0.0
C609 C 0.98783 0.6727 0.18225 0.0
H610 H 0.02822 0.74695 0.10403 0.0
C611 C 0.87028 0.67634 0.08695 0.0
C612 C 0.88485 0.69104 0.05423 0.0
C613 C 0.89886 0.67633 0.11082 0.0
C614 C 0.01648 0.72446 0.1248 0.0
H615 H 0.03837 0.78231 0.27758 0.0
H616 H -0.00331 0.72507 0.23699 0.0
H617 H 0.07629 0.76068 0.1498 0.0
H618 H 0.93948 0.71473 0.01997 0.0
H619 H 0.98785 0.71184 0.06017 0.0
H620 H 0.9273 0.637 0.15711 0.0
C621 C 0.03152 0.73971 0.23695 0.0
C622 C 0.04446 0.73243 0.15128 0.0
C623 C 0.05514 0.77308 0.25949 0.0
C624 C 0.92793 0.70516 0.04554 0.0
C625 C 0.9557 0.70317 0.06867 0.0
C626 C 0.95991 0.66381 0.15513 0.0
C627 C 0.0529 0.72912 0.21211 0.0
C628 C 0.02951 0.7086 0.18108 0.0
C629 C 0.94184 0.6892 0.10174 0.0
C630 C 0.9732 0.69143 0.12703 0.0
H631 H 0.1565 0.79979 0.2333 0.0
H632 H 0.11518 0.74195 0.19315 0.0
H633 H 0.97589 0.65372 0.20504 0.0
H634 H 0.83675 0.66406 0.09376 0.0
H635 H 0.88716 0.6662 0.13622 0.0
C636 C 0.29979 0.05086 0.61108 0.0
C637 C 0.31348 0.08164 0.58539 0.0
C638 C 0.29198 0.00947 0.60418 0.0
C639 C 0.28725 0.93697 0.53496 0.0
H640 H 0.16445 0.88002 0.55449 0.0
C641 C 0.16971 0.81738 0.44341 0.0
C642 C 0.15602 0.84292 0.42629 0.0
C643 C 0.18468 0.82731 0.47633 0.0
C644 C 0.19879 0.89442 0.54976 0.0
H645 H 0.33207 0.09512 0.53306 0.0
H646 H 0.31682 0.02217 0.5203 0.0
H647 H 0.21428 0.94012 0.58915 0.0
H648 H 0.14022 0.89375 0.43194 0.0
H649 H 0.16518 0.91023 0.48992 0.0
H650 H 0.27073 0.89372 0.4933 0.0
C651 C 0.31382 0.03014 0.54616 0.0
C652 C 0.22752 0.92883 0.56959 0.0
C653 C 0.32201 0.07171 0.55321 0.0
C654 C 0.15119 0.87401 0.44429 0.0
C655 C 0.16521 0.88321 0.47754 0.0
C656 C 0.2585 0.90207 0.51542 0.0
C657 C 0.29627 -0.00198 0.57117 0.0
C658 C 0.27147 0.95256 0.5606 0.0
C659 C 0.18464 0.8618 0.49287 0.0
C660 C 0.21386 0.88292 0.52122 0.0
H661 H 0.2913 0.05755 0.63568 0.0
H662 H 0.27842 0.98533 0.62382 0.0
H663 H 0.321 0.95454 0.52773 0.0
H664 H 0.17298 0.79248 0.43044 0.0
H665 H 0.19959 0.81052 0.48779 0.0
loop_
_geom_bond_atom_site_label_1
_geom_bond_atom_site_label_2
_geom_bond_distance
_geom_bond_site_symmetry_2
_ccdc_geom_bond_type
O0 Mg1 1.990 . S
O0 C14 1.253 . S
Mg1 O0 1.990 . S
Mg1 O4 2.180 . S
Mg1 O5 2.117 . S
Mg1 O19 2.030 1_554 S
O2 Mg3 2.072 1_554 S
O2 C14 1.260 . S
Mg3 O2 2.072 1_556 S
Mg3 O4 2.099 1_556 S
Mg3 O6 2.079 . S
Mg3 O7 2.072 1_556 S
Mg3 O9 2.099 . S
Mg3 O20 2.079 . S
O4 Mg1 2.180 . S
O4 Mg3 2.099 1_554 S
O4 C15 1.279 . S
O5 Mg1 2.117 . S
O5 C15 1.250 . S
O6 Mg3 2.079 . S
O6 C16 1.264 . S
O7 Mg3 2.072 1_554 S
O7 C17 1.260 . S
Mg8 O9 2.180 . S
Mg8 O10 2.030 . S
Mg8 O11 1.990 1_556 S
Mg8 O12 2.117 . S
O9 Mg3 2.099 . S
O9 Mg8 2.180 . S
O9 C18 1.279 . S
O10 Mg8 2.030 . S
O10 C16 1.248 . S
O11 Mg8 1.990 1_554 S
O11 C17 1.253 . S
O12 Mg8 2.117 . S
O12 C18 1.250 . S
C13 O19 1.248 . S
C13 O20 1.264 . S
C14 O0 1.253 . S
C14 O2 1.260 . S
C15 O4 1.279 . S
C15 O5 1.250 . S
C16 O6 1.264 . S
C16 O10 1.248 . S
C17 O7 1.260 . S
C17 O11 1.253 . S
C18 O9 1.279 . S
C18 O12 1.250 . S
O19 Mg1 2.030 1_556 S
O19 C13 1.248 . S
O20 Mg3 2.079 . S
O20 C13 1.264 . S
O21 Mg22 1.990 . S
O21 C35 1.253 . S
Mg22 O21 1.990 . S
Mg22 O25 2.180 . S
Mg22 O26 2.117 . S
Mg22 O40 2.030 . S
O23 Mg24 2.072 . S
O23 C35 1.260 . S
Mg24 O23 2.072 . S
Mg24 O25 2.099 . S
Mg24 O27 2.079 . S
Mg24 O28 2.072 . S
Mg24 O30 2.099 . S
Mg24 O41 2.079 . S
O25 Mg22 2.180 . S
O25 Mg24 2.099 . S
O25 C36 1.279 . S
O26 Mg22 2.117 . S
O26 C36 1.250 . S
O27 Mg24 2.079 . S
O27 C37 1.264 . S
O28 Mg24 2.072 . S
O28 C38 1.260 . S
Mg29 O30 2.180 . S
Mg29 O31 2.030 . S
Mg29 O32 1.990 . S
Mg29 O33 2.117 . S
O30 Mg24 2.099 . S
O30 Mg29 2.180 . S
O30 C39 1.279 . S
O31 Mg29 2.030 . S
O31 C37 1.248 . S
O32 Mg29 1.990 . S
O32 C38 1.253 . S
O33 Mg29 2.117 . S
O33 C39 1.250 . S
C34 O40 1.248 . S
C34 O41 1.264 . S
C35 O21 1.253 . S
C35 O23 1.260 . S
C36 O25 1.279 . S
C36 O26 1.250 . S
C37 O27 1.264 . S
C37 O31 1.248 . S
C38 O28 1.260 . S
C38 O32 1.253 . S
C39 O30 1.279 . S
C39 O33 1.250 . S
O40 Mg22 2.030 . S
O40 C34 1.248 . S
O41 Mg24 2.079 . S
O41 C34 1.264 . S
O42 Mg43 1.990 . S
O42 C56 1.253 . S
Mg43 O42 1.990 . S
Mg43 O46 2.180 . S
Mg43 O47 2.117 . S
Mg43 O61 2.030 . S
O44 Mg45 2.072 . S
O44 C56 1.260 . S
Mg45 O44 2.072 . S
Mg45 O46 2.099 . S
Mg45 O48 2.079 . S
Mg45 O49 2.072 . S
Mg45 O51 2.099 . S
Mg45 O62 2.079 . S
O46 Mg43 2.180 . S
O46 Mg45 2.099 . S
O46 C57 1.279 . S
O47 Mg43 2.117 . S
O47 C57 1.250 . S
O48 Mg45 2.079 . S
O48 C58 1.264 . S
O49 Mg45 2.072 . S
O49 C59 1.260 . S
Mg50 O51 2.180 . S
Mg50 O52 2.030 . S
Mg50 O53 1.990 . S
Mg50 O54 2.117 . S
O51 Mg45 2.099 . S
O51 Mg50 2.180 . S
O51 C60 1.279 . S
O52 Mg50 2.030 . S
O52 C58 1.248 . S
O53 Mg50 1.990 . S
O53 C59 1.253 . S
O54 Mg50 2.117 . S
O54 C60 1.250 . S
C55 O61 1.248 . S
C55 O62 1.264 . S
C56 O42 1.253 . S
C56 O44 1.260 . S
C57 O46 1.279 . S
C57 O47 1.250 . S
C58 O48 1.264 . S
C58 O52 1.248 . S
C59 O49 1.260 . S
C59 O53 1.253 . S
C60 O51 1.279 . S
C60 O54 1.250 . S
O61 Mg43 2.030 . S
O61 C55 1.248 . S
O62 Mg45 2.079 . S
O62 C55 1.264 . S
O63 Mg64 1.990 1_554 S
O63 C77 1.253 . S
Mg64 O63 1.990 1_556 S
Mg64 O67 2.180 . S
Mg64 O68 2.117 . S
Mg64 O82 2.030 . S
O65 Mg66 2.072 1_554 S
O65 C77 1.260 . S
Mg66 O65 2.072 1_556 S
Mg66 O67 2.099 . S
Mg66 O69 2.079 . S
Mg66 O70 2.072 1_556 S
Mg66 O72 2.099 1_556 S
Mg66 O83 2.079 . S
O67 Mg64 2.180 . S
O67 Mg66 2.099 . S
O67 C78 1.279 . S
O68 Mg64 2.117 . S
O68 C78 1.250 . S
O69 Mg66 2.079 . S
O69 C79 1.264 . S
O70 Mg66 2.072 1_554 S
O70 C80 1.260 . S
Mg71 O72 2.180 . S
Mg71 O73 2.030 1_554 S
Mg71 O74 1.990 . S
Mg71 O75 2.117 . S
O72 Mg66 2.099 1_554 S
O72 Mg71 2.180 . S
O72 C81 1.279 . S
O73 Mg71 2.030 1_556 S
O73 C79 1.248 . S
O74 Mg71 1.990 . S
O74 C80 1.253 . S
O75 Mg71 2.117 . S
O75 C81 1.250 . S
C76 O82 1.248 . S
C76 O83 1.264 . S
C77 O63 1.253 . S
C77 O65 1.260 . S
C78 O67 1.279 . S
C78 O68 1.250 . S
C79 O69 1.264 . S
C79 O73 1.248 . S
C80 O70 1.260 . S
C80 O74 1.253 . S
C81 O72 1.279 . S
C81 O75 1.250 . S
O82 Mg64 2.030 . S
O82 C76 1.248 . S
O83 Mg66 2.079 . S
O83 C76 1.264 . S
O84 Mg85 1.990 . S
O84 C98 1.253 . S
Mg85 O84 1.990 . S
Mg85 O88 2.180 . S
Mg85 O89 2.117 . S
Mg85 O103 2.030 . S
O86 Mg87 2.072 . S
O86 C98 1.260 . S
Mg87 O86 2.072 . S
Mg87 O88 2.099 . S
Mg87 O90 2.079 . S
Mg87 O91 2.072 . S
Mg87 O93 2.099 . S
Mg87 O104 2.079 . S
O88 Mg85 2.180 . S
O88 Mg87 2.099 . S
O88 C99 1.279 . S
O89 Mg85 2.117 . S
O89 C99 1.250 . S
O90 Mg87 2.079 . S
O90 C100 1.264 . S
O91 Mg87 2.072 . S
O91 C101 1.260 . S
Mg92 O93 2.180 . S
Mg92 O94 2.030 . S
Mg92 O95 1.990 . S
Mg92 O96 2.117 . S
O93 Mg87 2.099 . S
O93 Mg92 2.180 . S
O93 C102 1.279 . S
O94 Mg92 2.030 . S
O94 C100 1.248 . S
O95 Mg92 1.990 . S
O95 C101 1.253 . S
O96 Mg92 2.117 . S
O96 C102 1.250 . S
C97 O103 1.248 . S
C97 O104 1.264 . S
C98 O84 1.253 . S
C98 O86 1.260 . S
C99 O88 1.279 . S
C99 O89 1.250 . S
C100 O90 1.264 . S
C100 O94 1.248 . S
C101 O91 1.260 . S
C101 O95 1.253 . S
C102 O93 1.279 . S
C102 O96 1.250 . S
O103 Mg85 2.030 . S
O103 C97 1.248 . S
O104 Mg87 2.079 . S
O104 C97 1.264 . S
O105 Mg106 1.990 . S
O105 C119 1.253 . S
Mg106 O105 1.990 . S
Mg106 O109 2.180 . S
Mg106 O110 2.117 . S
Mg106 O124 2.030 . S
O107 Mg108 2.072 . S
O107 C119 1.260 . S
Mg108 O107 2.072 . S
Mg108 O109 2.099 . S
Mg108 O111 2.079 . S
Mg108 O112 2.072 . S
Mg108 O114 2.099 . S
Mg108 O125 2.079 . S
O109 Mg106 2.180 . S
O109 Mg108 2.099 . S
O109 C120 1.279 . S
O110 Mg106 2.117 . S
O110 C120 1.250 . S
O111 Mg108 2.079 . S
O111 C121 1.264 . S
O112 Mg108 2.072 . S
O112 C122 1.260 . S
Mg113 O114 2.180 . S
Mg113 O115 2.030 . S
Mg113 O116 1.990 . S
Mg113 O117 2.117 . S
O114 Mg108 2.099 . S
O114 Mg113 2.180 . S
O114 C123 1.279 . S
O115 Mg113 2.030 . S
O115 C121 1.248 . S
O116 Mg113 1.990 . S
O116 C122 1.253 . S
O117 Mg113 2.117 . S
O117 C123 1.250 . S
C118 O124 1.248 . S
C118 O125 1.264 . S
C119 O105 1.253 . S
C119 O107 1.260 . S
C120 O109 1.279 . S
C120 O110 1.250 . S
C121 O111 1.264 . S
C121 O115 1.248 . S
C122 O112 1.260 . S
C122 O116 1.253 . S
C123 O114 1.279 . S
C123 O117 1.250 . S
O124 Mg106 2.030 . S
O124 C118 1.248 . S
O125 Mg108 2.079 . S
O125 C118 1.264 . S
C126 C127 1.349 . S
C126 C128 1.327 . S
C126 H151 0.950 . S
C127 C126 1.349 . S
C127 C143 1.349 . S
C128 C126 1.327 . S
C128 C147 1.429 . S
C128 H152 0.950 . S
C129 C146 1.574 . S
C129 C148 1.368 . S
C129 H153 0.949 . S
H130 C134 0.949 . S
C131 C132 1.349 . S
C131 C133 1.327 . S
C131 H154 0.950 . S
C132 C131 1.349 . S
C132 C144 1.349 . S
C133 C131 1.327 . S
C133 C149 1.429 . S
C133 H155 0.950 . S
C134 H130 0.949 . S
C134 C142 1.574 . S
C134 C150 1.368 . S
H135 C143 0.950 . S
H136 C141 0.950 . S
H137 C142 0.949 . S
H138 C144 0.950 . S
H139 C145 0.950 . S
H140 C146 0.949 . S
C141 H136 0.950 . S
C141 C143 1.327 . S
C141 C147 1.429 . S
C142 C134 1.574 . S
C142 H137 0.949 . S
C142 C148 1.368 . S
C143 C127 1.349 . S
C143 H135 0.950 . S
C143 C141 1.327 . S
C144 C132 1.349 . S
C144 H138 0.950 . S
C144 C145 1.327 . S
C145 H139 0.950 . S
C145 C144 1.327 . S
C145 C149 1.429 . S
C146 C129 1.574 . S
C146 H140 0.949 . S
C146 C150 1.368 . S
C147 C128 1.429 . S
C147 C141 1.429 . S
C147 C148 1.523 . S
C148 C129 1.368 . S
C148 C142 1.368 . S
C148 C147 1.523 . S
C149 C133 1.429 . S
C149 C145 1.429 . S
C149 C150 1.523 . S
C150 C134 1.368 . S
C150 C146 1.368 . S
C150 C149 1.523 . S
H151 C126 0.950 . S
H152 C128 0.950 . S
H153 C129 0.949 . S
H154 C131 0.950 . S
H155 C133 0.950 . S
C156 C157 1.349 . S
C156 C158 1.327 . S
C156 H181 0.950 . S
C157 C156 1.349 . S
C157 C173 1.349 . S
C158 C156 1.327 . S
C158 C177 1.429 . S
C158 H182 0.950 . S
C159 C176 1.574 . S
C159 C178 1.368 . S
C159 H183 0.949 . S
H160 C164 0.949 . S
C161 C162 1.349 . S
C161 C163 1.327 . S
C161 H184 0.950 . S
C162 C161 1.349 . S
C162 C174 1.349 . S
C163 C161 1.327 . S
C163 C179 1.429 . S
C163 H185 0.950 . S
C164 H160 0.949 . S
C164 C172 1.574 . S
C164 C180 1.368 . S
H165 C173 0.950 . S
H166 C171 0.950 . S
H167 C172 0.949 . S
H168 C174 0.950 . S
H169 C175 0.950 . S
H170 C176 0.949 . S
C171 H166 0.950 . S
C171 C173 1.327 . S
C171 C177 1.429 . S
C172 C164 1.574 . S
C172 H167 0.949 . S
C172 C178 1.368 . S
C173 C157 1.349 . S
C173 H165 0.950 . S
C173 C171 1.327 . S
C174 C162 1.349 . S
C174 H168 0.950 . S
C174 C175 1.327 . S
C175 H169 0.950 . S
C175 C174 1.327 . S
C175 C179 1.429 . S
C176 C159 1.574 . S
C176 H170 0.949 . S
C176 C180 1.368 . S
C177 C158 1.429 . S
C177 C171 1.429 . S
C177 C178 1.523 . S
C178 C159 1.368 . S
C178 C172 1.368 . S
C178 C177 1.523 . S
C179 C163 1.429 . S
C179 C175 1.429 . S
C179 C180 1.523 . S
C180 C164 1.368 . S
C180 C176 1.368 . S
C180 C179 1.523 . S
H181 C156 0.950 . S
H182 C158 0.950 . S
H183 C159 0.949 . S
H184 C161 0.950 . S
H185 C163 0.950 . S
C186 C187 1.349 . S
C186 C188 1.327 . S
C186 H211 0.950 . S
C187 C186 1.349 . S
C187 C203 1.349 . S
C188 C186 1.327 . S
C188 C207 1.429 . S
C188 H212 0.950 . S
C189 C206 1.574 . S
C189 C208 1.368 . S
C189 H213 0.949 . S
H190 C194 0.949 . S
C191 C192 1.349 . S
C191 C193 1.327 . S
C191 H214 0.950 . S
C192 C191 1.349 . S
C192 C204 1.349 . S
C193 C191 1.327 . S
C193 C209 1.429 . S
C193 H215 0.950 . S
C194 H190 0.949 . S
C194 C202 1.574 . S
C194 C210 1.368 . S
H195 C203 0.950 . S
H196 C201 0.950 . S
H197 C202 0.949 . S
H198 C204 0.950 . S
H199 C205 0.950 . S
H200 C206 0.949 . S
C201 H196 0.950 . S
C201 C203 1.327 . S
C201 C207 1.429 . S
C202 C194 1.574 . S
C202 H197 0.949 . S
C202 C208 1.368 . S
C203 C187 1.349 . S
C203 H195 0.950 . S
C203 C201 1.327 . S
C204 C192 1.349 . S
C204 H198 0.950 . S
C204 C205 1.327 . S
C205 H199 0.950 . S
C205 C204 1.327 . S
C205 C209 1.429 . S
C206 C189 1.574 . S
C206 H200 0.949 . S
C206 C210 1.368 . S
C207 C188 1.429 . S
C207 C201 1.429 . S
C207 C208 1.523 . S
C208 C189 1.368 . S
C208 C202 1.368 . S
C208 C207 1.523 . S
C209 C193 1.429 . S
C209 C205 1.429 . S
C209 C210 1.523 . S
C210 C194 1.368 . S
C210 C206 1.368 . S
C210 C209 1.523 . S
H211 C186 0.950 . S
H212 C188 0.950 . S
H213 C189 0.949 . S
H214 C191 0.950 . S
H215 C193 0.950 . S
C216 C217 1.349 . S
C216 C218 1.327 . S
C216 H241 0.950 . S
C217 C216 1.349 . S
C217 C233 1.349 . S
C218 C216 1.327 . S
C218 C237 1.429 . S
C218 H242 0.950 . S
C219 C236 1.574 . S
C219 C238 1.368 . S
C219 H243 0.949 . S
H220 C224 0.949 . S
C221 C222 1.349 . S
C221 C223 1.327 . S
C221 H244 0.950 . S
C222 C221 1.349 . S
C222 C234 1.349 . S
C223 C221 1.327 . S
C223 C239 1.429 . S
C223 H245 0.950 . S
C224 H220 0.949 . S
C224 C232 1.574 . S
C224 C240 1.368 . S
H225 C233 0.950 . S
H226 C231 0.950 . S
H227 C232 0.949 . S
H228 C234 0.950 . S
H229 C235 0.950 . S
H230 C236 0.949 . S
C231 H226 0.950 . S
C231 C233 1.327 . S
C231 C237 1.429 . S
C232 C224 1.574 . S
C232 H227 0.949 . S
C232 C238 1.368 . S
C233 C217 1.349 . S
C233 H225 0.950 . S
C233 C231 1.327 . S
C234 C222 1.349 . S
C234 H228 0.950 . S
C234 C235 1.327 . S
C235 H229 0.950 . S
C235 C234 1.327 . S
C235 C239 1.429 . S
C236 C219 1.574 . S
C236 H230 0.949 . S
C236 C240 1.368 . S
C237 C218 1.429 . S
C237 C231 1.429 . S
C237 C238 1.523 . S
C238 C219 1.368 . S
C238 C232 1.368 . S
C238 C237 1.523 . S
C239 C223 1.429 . S
C239 C235 1.429 . S
C239 C240 1.523 . S
C240 C224 1.368 . S
C240 C236 1.368 . S
C240 C239 1.523 . S
H241 C216 0.950 . S
H242 C218 0.950 . S
H243 C219 0.949 . S
H244 C221 0.950 . S
H245 C223 0.950 . S
C246 C247 1.349 . S
C246 C248 1.327 . S
C246 H271 0.950 . S
C247 C246 1.349 . S
C247 C263 1.349 . S
C248 C246 1.327 . S
C248 C267 1.429 . S
C248 H272 0.950 . S
C249 C266 1.574 . S
C249 C268 1.368 . S
C249 H273 0.949 . S
H250 C254 0.949 . S
C251 C252 1.349 . S
C251 C253 1.327 . S
C251 H274 0.950 . S
C252 C251 1.349 . S
C252 C264 1.349 . S
C253 C251 1.327 . S
C253 C269 1.429 . S
C253 H275 0.950 . S
C254 H250 0.949 . S
C254 C262 1.574 . S
C254 C270 1.368 . S
H255 C263 0.950 . S
H256 C261 0.950 . S
H257 C262 0.949 . S
H258 C264 0.950 . S
H259 C265 0.950 . S
H260 C266 0.949 . S
C261 H256 0.950 . S
C261 C263 1.327 . S
C261 C267 1.429 . S
C262 C254 1.574 . S
C262 H257 0.949 . S
C262 C268 1.368 . S
C263 C247 1.349 . S
C263 H255 0.950 . S
C263 C261 1.327 . S
C264 C252 1.349 . S
C264 H258 0.950 . S
C264 C265 1.327 . S
C265 H259 0.950 . S
C265 C264 1.327 . S
C265 C269 1.429 . S
C266 C249 1.574 . S
C266 H260 0.949 . S
C266 C270 1.368 . S
C267 C248 1.429 . S
C267 C261 1.429 . S
C267 C268 1.523 . S
C268 C249 1.368 . S
C268 C262 1.368 . S
C268 C267 1.523 . S
C269 C253 1.429 . S
C269 C265 1.429 . S
C269 C270 1.523 . S
C270 C254 1.368 . S
C270 C266 1.368 . S
C270 C269 1.523 . S
H271 C246 0.950 . S
H272 C248 0.950 . S
H273 C249 0.949 . S
H274 C251 0.950 . S
H275 C253 0.950 . S
C276 C277 1.349 . S
C276 C278 1.327 . S
C276 H301 0.950 . S
C277 C276 1.349 . S
C277 C293 1.349 . S
C278 C276 1.327 . S
C278 C297 1.429 . S
C278 H302 0.950 . S
C279 C296 1.574 . S
C279 C298 1.368 . S
C279 H303 0.949 . S
H280 C284 0.949 . S
C281 C282 1.349 . S
C281 C283 1.327 . S
C281 H304 0.950 . S
C282 C281 1.349 . S
C282 C294 1.349 . S
C283 C281 1.327 . S
C283 C299 1.429 . S
C283 H305 0.950 . S
C284 H280 0.949 . S
C284 C292 1.574 . S
C284 C300 1.368 . S
H285 C293 0.950 . S
H286 C291 0.950 . S
H287 C292 0.949 . S
H288 C294 0.950 . S
H289 C295 0.950 . S
H290 C296 0.949 . S
C291 H286 0.950 . S
C291 C293 1.327 . S
C291 C297 1.429 . S
C292 C284 1.574 . S
C292 H287 0.949 . S
C292 C298 1.368 . S
C293 C277 1.349 . S
C293 H285 0.950 . S
C293 C291 1.327 . S
C294 C282 1.349 . S
C294 H288 0.950 . S
C294 C295 1.327 . S
C295 H289 0.950 . S
C295 C294 1.327 . S
C295 C299 1.429 . S
C296 C279 1.574 . S
C296 H290 0.949 . S
C296 C300 1.368 . S
C297 C278 1.429 . S
C297 C291 1.429 . S
C297 C298 1.523 . S
C298 C279 1.368 . S
C298 C292 1.368 . S
C298 C297 1.523 . S
C299 C283 1.429 . S
C299 C295 1.429 . S
C299 C300 1.523 . S
C300 C284 1.368 . S
C300 C296 1.368 . S
C300 C299 1.523 . S
H301 C276 0.950 . S
H302 C278 0.950 . S
H303 C279 0.949 . S
H304 C281 0.950 . S
H305 C283 0.950 . S
C306 C307 1.349 1_556 S
C306 C308 1.327 . S
C306 H331 0.950 . S
C307 C306 1.349 1_554 S
C307 C323 1.349 . S
C308 C306 1.327 . S
C308 C327 1.429 1_556 S
C308 H332 0.950 . S
C309 C326 1.574 . S
C309 C328 1.368 . S
C309 H333 0.949 . S
H310 C314 0.949 . S
C311 C312 1.349 . S
C311 C313 1.327 . S
C311 H334 0.950 . S
C312 C311 1.349 . S
C312 C324 1.349 1_554 S
C313 C311 1.327 . S
C313 C329 1.429 . S
C313 H335 0.950 . S
C314 H310 0.949 . S
C314 C322 1.574 . S
C314 C330 1.368 1_556 S
H315 C323 0.950 . S
H316 C321 0.950 . S
H317 C322 0.949 . S
H318 C324 0.950 . S
H319 C325 0.950 . S
H320 C326 0.949 . S
C321 H316 0.950 . S
C321 C323 1.327 . S
C321 C327 1.429 . S
C322 C314 1.574 . S
C322 H317 0.949 . S
C322 C328 1.368 1_556 S
C323 C307 1.349 . S
C323 H315 0.950 . S
C323 C321 1.327 . S
C324 C312 1.349 1_556 S
C324 H318 0.950 . S
C324 C325 1.327 . S
C325 H319 0.950 . S
C325 C324 1.327 . S
C325 C329 1.429 1_556 S
C326 C309 1.574 . S
C326 H320 0.949 . S
C326 C330 1.368 . S
C327 C308 1.429 1_554 S
C327 C321 1.429 . S
C327 C328 1.523 . S
C328 C309 1.368 . S
C328 C322 1.368 1_554 S
C328 C327 1.523 . S
C329 C313 1.429 . S
C329 C325 1.429 1_554 S
C329 C330 1.523 . S
C330 C314 1.368 1_554 S
C330 C326 1.368 . S
C330 C329 1.523 . S
H331 C306 0.950 . S
H332 C308 0.950 . S
H333 C309 0.949 . S
H334 C311 0.950 . S
H335 C313 0.950 . S
C336 C337 1.349 . S
C336 C338 1.327 . S
C336 H361 0.950 . S
C337 C336 1.349 . S
C337 C353 1.349 . S
C338 C336 1.327 . S
C338 C357 1.429 . S
C338 H362 0.950 . S
C339 C356 1.574 . S
C339 C358 1.368 . S
C339 H363 0.949 . S
H340 C344 0.949 . S
C341 C342 1.349 . S
C341 C343 1.327 . S
C341 H364 0.950 . S
C342 C341 1.349 . S
C342 C354 1.349 . S
C343 C341 1.327 . S
C343 C359 1.429 . S
C343 H365 0.950 . S
C344 H340 0.949 . S
C344 C352 1.574 . S
C344 C360 1.368 . S
H345 C353 0.950 . S
H346 C351 0.950 . S
H347 C352 0.949 . S
H348 C354 0.950 . S
H349 C355 0.950 . S
H350 C356 0.949 . S
C351 H346 0.950 . S
C351 C353 1.327 . S
C351 C357 1.429 . S
C352 C344 1.574 . S
C352 H347 0.949 . S
C352 C358 1.368 1_655 S
C353 C337 1.349 . S
C353 H345 0.950 . S
C353 C351 1.327 . S
C354 C342 1.349 . S
C354 H348 0.950 . S
C354 C355 1.327 . S
C355 H349 0.950 . S
C355 C354 1.327 . S
C355 C359 1.429 . S
C356 C339 1.574 . S
C356 H350 0.949 . S
C356 C360 1.368 1_455 S
C357 C338 1.429 . S
C357 C351 1.429 . S
C357 C358 1.523 . S
C358 C339 1.368 . S
C358 C352 1.368 1_455 S
C358 C357 1.523 . S
C359 C343 1.429 . S
C359 C355 1.429 . S
C359 C360 1.523 . S
C360 C344 1.368 . S
C360 C356 1.368 1_655 S
C360 C359 1.523 . S
H361 C336 0.950 . S
H362 C338 0.950 . S
H363 C339 0.949 . S
H364 C341 0.950 . S
H365 C343 0.950 . S
C366 C367 1.349 . S
C366 C368 1.327 . S
C366 H391 0.950 . S
C367 C366 1.349 . S
C367 C383 1.349 . S
C368 C366 1.327 . S
C368 C387 1.429 . S
C368 H392 0.950 . S
C369 C386 1.574 . S
C369 C388 1.368 . S
C369 H393 0.949 . S
H370 C374 0.949 . S
C371 C372 1.349 . S
C371 C373 1.327 . S
C371 H394 0.950 . S
C372 C371 1.349 . S
C372 C384 1.349 . S
C373 C371 1.327 . S
C373 C389 1.429 . S
C373 H395 0.950 . S
C374 H370 0.949 . S
C374 C382 1.574 . S
C374 C390 1.368 . S
H375 C383 0.950 . S
H376 C381 0.950 . S
H377 C382 0.949 . S
H378 C384 0.950 . S
H379 C385 0.950 . S
H380 C386 0.949 . S
C381 H376 0.950 . S
C381 C383 1.327 . S
C381 C387 1.429 . S
C382 C374 1.574 . S
C382 H377 0.949 . S
C382 C388 1.368 1_565 S
C383 C367 1.349 . S
C383 H375 0.950 . S
C383 C381 1.327 . S
C384 C372 1.349 . S
C384 H378 0.950 . S
C384 C385 1.327 . S
C385 H379 0.950 . S
C385 C384 1.327 . S
C385 C389 1.429 . S
C386 C369 1.574 . S
C386 H380 0.949 . S
C386 C390 1.368 1_545 S
C387 C368 1.429 . S
C387 C381 1.429 . S
C387 C388 1.523 . S
C388 C369 1.368 . S
C388 C382 1.368 1_545 S
C388 C387 1.523 . S
C389 C373 1.429 . S
C389 C385 1.429 . S
C389 C390 1.523 . S
C390 C374 1.368 . S
C390 C386 1.368 1_565 S
C390 C389 1.523 . S
H391 C366 0.950 . S
H392 C368 0.950 . S
H393 C369 0.949 . S
H394 C371 0.950 . S
H395 C373 0.950 . S
C396 C397 1.349 . S
C396 C398 1.327 . S
C396 H421 0.950 . S
C397 C396 1.349 . S
C397 C413 1.349 . S
C398 C396 1.327 . S
C398 C417 1.429 . S
C398 H422 0.950 . S
C399 C416 1.574 . S
C399 C418 1.368 . S
C399 H423 0.949 . S
H400 C404 0.949 . S
C401 C402 1.349 . S
C401 C403 1.327 . S
C401 H424 0.950 . S
C402 C401 1.349 . S
C402 C414 1.349 . S
C403 C401 1.327 . S
C403 C419 1.429 . S
C403 H425 0.950 . S
C404 H400 0.949 . S
C404 C412 1.574 . S
C404 C420 1.368 . S
H405 C413 0.950 . S
H406 C411 0.950 . S
H407 C412 0.949 . S
H408 C414 0.950 . S
H409 C415 0.950 . S
H410 C416 0.949 . S
C411 H406 0.950 . S
C411 C413 1.327 . S
C411 C417 1.429 . S
C412 C404 1.574 . S
C412 H407 0.949 . S
C412 C418 1.368 . S
C413 C397 1.349 . S
C413 H405 0.950 . S
C413 C411 1.327 . S
C414 C402 1.349 . S
C414 H408 0.950 . S
C414 C415 1.327 . S
C415 H409 0.950 . S
C415 C414 1.327 . S
C415 C419 1.429 . S
C416 C399 1.574 . S
C416 H410 0.949 . S
C416 C420 1.368 . S
C417 C398 1.429 . S
C417 C411 1.429 . S
C417 C418 1.523 . S
C418 C399 1.368 . S
C418 C412 1.368 . S
C418 C417 1.523 . S
C419 C403 1.429 . S
C419 C415 1.429 . S
C419 C420 1.523 . S
C420 C404 1.368 . S
C420 C416 1.368 . S
C420 C419 1.523 . S
H421 C396 0.950 . S
H422 C398 0.950 . S
H423 C399 0.949 . S
H424 C401 0.950 . S
H425 C403 0.950 . S
C426 C427 1.349 . S
C426 C428 1.327 . S
C426 H451 0.950 . S
C427 C426 1.349 . S
C427 C443 1.349 1_556 S
C428 C426 1.327 . S
C428 C447 1.429 . S
C428 H452 0.950 . S
C429 C446 1.574 . S
C429 C448 1.368 1_554 S
C429 H453 0.949 . S
H430 C434 0.949 . S
C431 C432 1.349 1_554 S
C431 C433 1.327 . S
C431 H454 0.950 . S
C432 C431 1.349 1_556 S
C432 C444 1.349 . S
C433 C431 1.327 . S
C433 C449 1.429 1_554 S
C433 H455 0.950 . S
C434 H430 0.949 . S
C434 C442 1.574 . S
C434 C450 1.368 . S
H435 C443 0.950 . S
H436 C441 0.950 . S
H437 C442 0.949 . S
H438 C444 0.950 . S
H439 C445 0.950 . S
H440 C446 0.949 . S
C441 H436 0.950 . S
C441 C443 1.327 . S
C441 C447 1.429 1_554 S
C442 C434 1.574 . S
C442 H437 0.949 . S
C442 C448 1.368 1_655 S
C443 C427 1.349 1_554 S
C443 H435 0.950 . S
C443 C441 1.327 . S
C444 C432 1.349 . S
C444 H438 0.950 . S
C444 C445 1.327 . S
C445 H439 0.950 . S
C445 C444 1.327 . S
C445 C449 1.429 . S
C446 C429 1.574 . S
C446 H440 0.949 . S
C446 C450 1.368 1_454 S
C447 C428 1.429 . S
C447 C441 1.429 1_556 S
C447 C448 1.523 . S
C448 C429 1.368 1_556 S
C448 C442 1.368 1_455 S
C448 C447 1.523 . S
C449 C433 1.429 1_556 S
C449 C445 1.429 . S
C449 C450 1.523 . S
C450 C434 1.368 . S
C450 C446 1.368 1_656 S
C450 C449 1.523 . S
H451 C426 0.950 . S
H452 C428 0.950 . S
H453 C429 0.949 . S
H454 C431 0.950 . S
H455 C433 0.950 . S
C456 C457 1.349 . S
C456 C458 1.327 . S
C456 H481 0.950 . S
C457 C456 1.349 . S
C457 C473 1.349 . S
C458 C456 1.327 . S
C458 C477 1.429 . S
C458 H482 0.950 . S
C459 C476 1.574 . S
C459 C478 1.368 . S
C459 H483 0.949 . S
H460 C464 0.949 . S
C461 C462 1.349 . S
C461 C463 1.327 . S
C461 H484 0.950 . S
C462 C461 1.349 . S
C462 C474 1.349 . S
C463 C461 1.327 . S
C463 C479 1.429 . S
C463 H485 0.950 . S
C464 H460 0.949 . S
C464 C472 1.574 . S
C464 C480 1.368 . S
H465 C473 0.950 . S
H466 C471 0.950 . S
H467 C472 0.949 . S
H468 C474 0.950 . S
H469 C475 0.950 . S
H470 C476 0.949 . S
C471 H466 0.950 . S
C471 C473 1.327 . S
C471 C477 1.429 . S
C472 C464 1.574 . S
C472 H467 0.949 . S
C472 C478 1.368 1_545 S
C473 C457 1.349 . S
C473 H465 0.950 . S
C473 C471 1.327 . S
C474 C462 1.349 . S
C474 H468 0.950 . S
C474 C475 1.327 . S
C475 H469 0.950 . S
C475 C474 1.327 . S
C475 C479 1.429 . S
C476 C459 1.574 . S
C476 H470 0.949 . S
C476 C480 1.368 1_565 S
C477 C458 1.429 . S
C477 C471 1.429 . S
C477 C478 1.523 . S
C478 C459 1.368 . S
C478 C472 1.368 1_565 S
C478 C477 1.523 . S
C479 C463 1.429 . S
C479 C475 1.429 . S
C479 C480 1.523 . S
C480 C464 1.368 . S
C480 C476 1.368 1_545 S
C480 C479 1.523 . S
H481 C456 0.950 . S
H482 C458 0.950 . S
H483 C459 0.949 . S
H484 C461 0.950 . S
H485 C463 0.950 . S
C486 C487 1.349 . S
C486 C488 1.327 . S
C486 H511 0.950 . S
C487 C486 1.349 . S
C487 C503 1.349 . S
C488 C486 1.327 . S
C488 C507 1.429 . S
C488 H512 0.950 . S
C489 C506 1.574 . S
C489 C508 1.368 . S
C489 H513 0.949 . S
H490 C494 0.949 . S
C491 C492 1.349 . S
C491 C493 1.327 . S
C491 H514 0.950 . S
C492 C491 1.349 . S
C492 C504 1.349 . S
C493 C491 1.327 . S
C493 C509 1.429 . S
C493 H515 0.950 . S
C494 H490 0.949 . S
C494 C502 1.574 . S
C494 C510 1.368 . S
H495 C503 0.950 . S
H496 C501 0.950 . S
H497 C502 0.949 . S
H498 C504 0.950 . S
H499 C505 0.950 . S
H500 C506 0.949 . S
C501 H496 0.950 . S
C501 C503 1.327 . S
C501 C507 1.429 . S
C502 C494 1.574 . S
C502 H497 0.949 . S
C502 C508 1.368 . S
C503 C487 1.349 . S
C503 H495 0.950 . S
C503 C501 1.327 . S
C504 C492 1.349 . S
C504 H498 0.950 . S
C504 C505 1.327 . S
C505 H499 0.950 . S
C505 C504 1.327 . S
C505 C509 1.429 . S
C506 C489 1.574 . S
C506 H500 0.949 . S
C506 C510 1.368 . S
C507 C488 1.429 . S
C507 C501 1.429 . S
C507 C508 1.523 . S
C508 C489 1.368 . S
C508 C502 1.368 . S
C508 C507 1.523 . S
C509 C493 1.429 . S
C509 C505 1.429 . S
C509 C510 1.523 . S
C510 C494 1.368 . S
C510 C506 1.368 . S
C510 C509 1.523 . S
H511 C486 0.950 . S
H512 C488 0.950 . S
H513 C489 0.949 . S
H514 C491 0.950 . S
H515 C493 0.950 . S
C516 C517 1.349 . S
C516 C518 1.327 . S
C516 H541 0.950 . S
C517 C516 1.349 . S
C517 C533 1.349 . S
C518 C516 1.327 . S
C518 C537 1.429 . S
C518 H542 0.950 . S
C519 C536 1.574 . S
C519 C538 1.368 . S
C519 H543 0.949 . S
H520 C524 0.949 . S
C521 C522 1.349 . S
C521 C523 1.327 . S
C521 H544 0.950 . S
C522 C521 1.349 . S
C522 C534 1.349 . S
C523 C521 1.327 . S
C523 C539 1.429 . S
C523 H545 0.950 . S
C524 H520 0.949 . S
C524 C532 1.574 . S
C524 C540 1.368 . S
H525 C533 0.950 . S
H526 C531 0.950 . S
H527 C532 0.949 . S
H528 C534 0.950 . S
H529 C535 0.950 . S
H530 C536 0.949 . S
C531 H526 0.950 . S
C531 C533 1.327 . S
C531 C537 1.429 . S
C532 C524 1.574 . S
C532 H527 0.949 . S
C532 C538 1.368 1_455 S
C533 C517 1.349 . S
C533 H525 0.950 . S
C533 C531 1.327 . S
C534 C522 1.349 . S
C534 H528 0.950 . S
C534 C535 1.327 . S
C535 H529 0.950 . S
C535 C534 1.327 . S
C535 C539 1.429 . S
C536 C519 1.574 . S
C536 H530 0.949 . S
C536 C540 1.368 1_655 S
C537 C518 1.429 . S
C537 C531 1.429 . S
C537 C538 1.523 . S
C538 C519 1.368 . S
C538 C532 1.368 1_655 S
C538 C537 1.523 . S
C539 C523 1.429 . S
C539 C535 1.429 . S
C539 C540 1.523 . S
C540 C524 1.368 . S
C540 C536 1.368 1_455 S
C540 C539 1.523 . S
H541 C516 0.950 . S
H542 C518 0.950 . S
H543 C519 0.949 . S
H544 C521 0.950 . S
H545 C523 0.950 . S
C546 C547 1.349 . S
C546 C548 1.327 . S
C546 H571 0.950 . S
C547 C546 1.349 . S
C547 C563 1.349 . S
C548 C546 1.327 . S
C548 C567 1.429 . S
C548 H572 0.950 . S
C549 C566 1.574 . S
C549 C568 1.368 . S
C549 H573 0.949 . S
H550 C554 0.949 . S
C551 C552 1.349 . S
C551 C553 1.327 . S
C551 H574 0.950 . S
C552 C551 1.349 . S
C552 C564 1.349 . S
C553 C551 1.327 . S
C553 C569 1.429 . S
C553 H575 0.950 . S
C554 H550 0.949 . S
C554 C562 1.574 . S
C554 C570 1.368 . S
H555 C563 0.950 . S
H556 C561 0.950 . S
H557 C562 0.949 . S
H558 C564 0.950 . S
H559 C565 0.950 . S
H560 C566 0.949 . S
C561 H556 0.950 . S
C561 C563 1.327 . S
C561 C567 1.429 . S
C562 C554 1.574 . S
C562 H557 0.949 . S
C562 C568 1.368 1_545 S
C563 C547 1.349 . S
C563 H555 0.950 . S
C563 C561 1.327 . S
C564 C552 1.349 . S
C564 H558 0.950 . S
C564 C565 1.327 . S
C565 H559 0.950 . S
C565 C564 1.327 . S
C565 C569 1.429 . S
C566 C549 1.574 . S
C566 H560 0.949 . S
C566 C570 1.368 1_565 S
C567 C548 1.429 . S
C567 C561 1.429 . S
C567 C568 1.523 . S
C568 C549 1.368 . S
C568 C562 1.368 1_565 S
C568 C567 1.523 . S
C569 C553 1.429 . S
C569 C565 1.429 . S
C569 C570 1.523 . S
C570 C554 1.368 . S
C570 C566 1.368 1_545 S
C570 C569 1.523 . S
H571 C546 0.950 . S
H572 C548 0.950 . S
H573 C549 0.949 . S
H574 C551 0.950 . S
H575 C553 0.950 . S
C576 C577 1.349 . S
C576 C578 1.327 . S
C576 H601 0.950 . S
C577 C576 1.349 . S
C577 C593 1.349 . S
C578 C576 1.327 . S
C578 C597 1.429 . S
C578 H602 0.950 . S
C579 C596 1.574 . S
C579 C598 1.368 . S
C579 H603 0.949 . S
H580 C584 0.949 . S
C581 C582 1.349 . S
C581 C583 1.327 . S
C581 H604 0.950 . S
C582 C581 1.349 . S
C582 C594 1.349 . S
C583 C581 1.327 . S
C583 C599 1.429 . S
C583 H605 0.950 . S
C584 H580 0.949 . S
C584 C592 1.574 . S
C584 C600 1.368 . S
H585 C593 0.950 . S
H586 C591 0.950 . S
H587 C592 0.949 . S
H588 C594 0.950 . S
H589 C595 0.950 . S
H590 C596 0.949 . S
C591 H586 0.950 . S
C591 C593 1.327 . S
C591 C597 1.429 . S
C592 C584 1.574 . S
C592 H587 0.949 . S
C592 C598 1.368 . S
C593 C577 1.349 . S
C593 H585 0.950 . S
C593 C591 1.327 . S
C594 C582 1.349 . S
C594 H588 0.950 . S
C594 C595 1.327 . S
C595 H589 0.950 . S
C595 C594 1.327 . S
C595 C599 1.429 . S
C596 C579 1.574 . S
C596 H590 0.949 . S
C596 C600 1.368 . S
C597 C578 1.429 . S
C597 C591 1.429 . S
C597 C598 1.523 . S
C598 C579 1.368 . S
C598 C592 1.368 . S
C598 C597 1.523 . S
C599 C583 1.429 . S
C599 C595 1.429 . S
C599 C600 1.523 . S
C600 C584 1.368 . S
C600 C596 1.368 . S
C600 C599 1.523 . S
H601 C576 0.950 . S
H602 C578 0.950 . S
H603 C579 0.949 . S
H604 C581 0.950 . S
H605 C583 0.950 . S
C606 C607 1.349 . S
C606 C608 1.327 . S
C606 H631 0.950 . S
C607 C606 1.349 . S
C607 C623 1.349 . S
C608 C606 1.327 . S
C608 C627 1.429 . S
C608 H632 0.950 . S
C609 C626 1.574 . S
C609 C628 1.368 1_655 S
C609 H633 0.949 . S
H610 C614 0.949 . S
C611 C612 1.349 . S
C611 C613 1.327 . S
C611 H634 0.950 . S
C612 C611 1.349 . S
C612 C624 1.349 . S
C613 C611 1.327 . S
C613 C629 1.429 . S
C613 H635 0.950 . S
C614 H610 0.949 . S
C614 C622 1.574 . S
C614 C630 1.368 1_455 S
H615 C623 0.950 . S
H616 C621 0.950 . S
H617 C622 0.949 . S
H618 C624 0.950 . S
H619 C625 0.950 . S
H620 C626 0.949 . S
C621 H616 0.950 . S
C621 C623 1.327 . S
C621 C627 1.429 . S
C622 C614 1.574 . S
C622 H617 0.949 . S
C622 C628 1.368 . S
C623 C607 1.349 . S
C623 H615 0.950 . S
C623 C621 1.327 . S
C624 C612 1.349 . S
C624 H618 0.950 . S
C624 C625 1.327 . S
C625 H619 0.950 . S
C625 C624 1.327 . S
C625 C629 1.429 . S
C626 C609 1.574 . S
C626 H620 0.949 . S
C626 C630 1.368 . S
C627 C608 1.429 . S
C627 C621 1.429 . S
C627 C628 1.523 . S
C628 C609 1.368 1_455 S
C628 C622 1.368 . S
C628 C627 1.523 . S
C629 C613 1.429 . S
C629 C625 1.429 . S
C629 C630 1.523 . S
C630 C614 1.368 1_655 S
C630 C626 1.368 . S
C630 C629 1.523 . S
H631 C606 0.950 . S
H632 C608 0.950 . S
H633 C609 0.949 . S
H634 C611 0.950 . S
H635 C613 0.950 . S
C636 C637 1.349 . S
C636 C638 1.327 . S
C636 H661 0.950 . S
C637 C636 1.349 . S
C637 C653 1.349 . S
C638 C636 1.327 . S
C638 C657 1.429 . S
C638 H662 0.950 . S
C639 C656 1.593 . S
C639 C658 1.368 . S
C639 H663 0.949 . S
H640 C644 0.949 . S
C641 C642 1.349 . S
C641 C643 1.327 . S
C641 H664 0.950 . S
C642 C641 1.349 . S
C642 C654 1.349 . S
C643 C641 1.327 . S
C643 C659 1.429 . S
C643 H665 0.950 . S
C644 H640 0.949 . S
C644 C652 1.574 . S
C644 C660 1.368 . S
H645 C653 0.950 . S
H646 C651 0.950 . S
H647 C652 0.949 . S
H648 C654 0.950 . S
H649 C655 0.950 . S
H650 C656 0.942 . S
C651 H646 0.950 . S
C651 C653 1.327 . S
C651 C657 1.429 . S
C652 C644 1.574 . S
C652 H647 0.949 . S
C652 C658 1.368 1_565 S
C653 C637 1.349 . S
C653 H645 0.950 . S
C653 C651 1.327 . S
C654 C642 1.349 . S
C654 H648 0.950 . S
C654 C655 1.327 . S
C655 H649 0.950 . S
C655 C654 1.327 . S
C655 C659 1.429 . S
C656 C639 1.593 . S
C656 H650 0.942 . S
C656 C660 1.359 1_545 S
C657 C638 1.429 . S
C657 C651 1.429 . S
C657 C658 1.523 . S
C658 C639 1.368 . S
C658 C652 1.368 1_545 S
C658 C657 1.523 . S
C659 C643 1.429 . S
C659 C655 1.429 . S
C659 C660 1.523 . S
C660 C644 1.368 . S
C660 C656 1.359 1_565 S
C660 C659 1.523 . S
H661 C636 0.950 . S
H662 C638 0.950 . S
H663 C639 0.949 . S
H664 C641 0.950 . S
H665 C643 0.950 . S
C127 C97 0.775 . S
C132 C15 0.767 . S
C157 C121 0.775 . S
C162 C39 0.767 . S
C187 C13 0.775 . S
C192 C57 0.767 . S
C217 C37 0.775 . S
C222 C81 0.767 . S
C247 C55 0.775 . S
C252 C99 0.767 . S
C277 C79 0.775 . S
C282 C123 0.767 . S
C307 C14 0.914 . S
C312 C80 0.914 . S
C337 C98 0.914 . S
C342 C38 0.914 . S
C367 C122 0.914 . S
C372 C56 0.914 . S
C397 C58 0.914 . S
C402 C118 0.914 . S
C427 C16 0.915 . S
C432 C76 0.915 . S
C457 C100 0.915 . S
C462 C34 0.915 . S
C487 C119 0.928 . S
C492 C18 0.916 . S
C517 C36 0.916 . S
C522 C17 0.928 . S
C547 C60 0.916 . S
C552 C35 0.928 . S
C577 C59 0.928 . S
C582 C78 0.916 . S
C607 C102 0.916 . S
C612 C77 0.928 . S
C637 C120 0.916 . S
C642 C101 0.928 . S
