# Generated by pormake.
# Topology kag, (6)-cn, num edge types: 1
# Building blocks:
#     Node 0, Type 0, BuildingBlock: BETDEL_clean_sbu_0, # of connection points: 6
#     Node 1, Type 0, BuildingBlock: BETDEL_clean_sbu_0, # of connection points: 6
#     Node 2, Type 0, BuildingBlock: BETDEL_clean_sbu_0, # of connection points: 6
#     Edge 3, Type (0, 0), BuildingBlock: XUDNAN_clean_linker_2, # of connection points: 2
#     Edge 4, Type (0, 0), BuildingBlock: XUDNAN_clean_linker_2, # of connection points: 2
#     Edge 5, Type (0, 0), BuildingBlock: XUDNAN_clean_linker_2, # of connection points: 2
#     Edge 6, Type (0, 0), BuildingBlock: XUDNAN_clean_linker_2, # of connection points: 2
#     Edge 7, Type (0, 0), BuildingBlock: XUDNAN_clean_linker_2, # of connection points: 2
#     Edge 8, Type (0, 0), BuildingBlock: XUDNAN_clean_linker_2, # of connection points: 2
#     Edge 9, Type (0, 0), BuildingBlock: XUDNAN_clean_linker_2, # of connection points: 2
#     Edge 10, Type (0, 0), BuildingBlock: XUDNAN_clean_linker_2, # of connection points: 2
#     Edge 11, Type (0, 0), BuildingBlock: XUDNAN_clean_linker_2, # of connection points: 2
# Relax obj value: 0.013
# Max RMSD: 0.059
# Mean RMSD: 0.043
data_MOF--net-kag--node1-BETDEL_clean_sbu_0--edge1-XUDNAN_clean_linker_2
_symmetry_space_group_name_H-M    P1
_symmetry_Int_Tables_number       1
_symmetry_cell_setting            triclinic
loop_
_symmetry_equiv_pos_as_xyz
'x, y, z'
_cell_length_a     30.542087
_cell_length_b     33.290566
_cell_length_c     14.457106
_cell_angle_alpha  94.763548
_cell_angle_beta   91.333805
_cell_angle_gamma 112.32685
loop_
_atom_site_label
_atom_site_type_symbol
_atom_site_fract_x
_atom_site_fract_y
_atom_site_fract_z
_atom_type_partial_charge
Dy0 Dy 0.98398 0.46498 1.00572 0.0
C1 C 0.11228 0.64629 0.98669 0.0
C2 C 0.93082 0.3782 1.01102 0.0
Dy3 Dy 0.05163 0.56371 0.01198 0.0
O4 O 0.93779 0.39892 0.93741 0.0
O5 O 0.95365 0.40471 0.0831 0.0
O6 O 0.94755 0.47436 0.88073 0.0
O7 O 0.02104 0.50926 0.90029 0.0
C8 C 0.98468 0.50182 0.84667 0.0
C9 C 0.0379 0.53841 0.18601 0.0
O10 O 0.97852 0.56547 1.00667 0.0
O11 O 0.93764 0.49825 0.06221 0.0
O12 O 0.06698 0.63042 0.96305 0.0
O13 O 0.12393 0.61669 0.02082 0.0
O14 O 0.06419 0.57771 0.16975 0.0
O15 O 0.02221 0.51686 0.10913 0.0
O16 O 0.05522 0.45954 1.00054 0.0
O17 O 0.10111 0.53087 0.97222 0.0
C18 C 0.93997 0.53694 0.04017 0.0
C19 C 0.09623 0.49018 0.98221 0.0
Dy20 Dy 0.57785 0.04168 0.99338 0.0
C21 C 0.37945 0.92865 0.06362 0.0
C22 C 0.66683 0.09454 0.95251 0.0
Dy23 Dy 0.46535 0.984 0.01316 0.0
O24 O 0.65657 0.06003 0.99703 0.0
O25 O 0.62793 0.0988 0.92563 0.0
O26 O 0.59656 0.05088 0.15146 0.0
O27 O 0.52917 0.01685 0.09764 0.0
C28 C 0.55351 0.02908 0.17266 0.0
C29 C 0.4836 0.99387 0.83205 0.0
O30 O 0.4718 0.05203 0.06106 0.0
O31 O 0.54415 0.09086 0.99794 0.0
O32 O 0.41918 0.9232 0.07402 0.0
O33 O 0.38724 0.96578 0.03046 0.0
O34 O 0.44228 0.97335 0.86277 0.0
O35 O 0.51327 1.00876 0.90139 0.0
O36 O 0.57175 0.97377 0.94597 0.0
O37 O 0.5002 0.9358 0.01196 0.0
C38 C 0.50433 0.0888 0.03655 0.0
C39 C 0.53955 0.93734 0.97231 0.0
Dy40 Dy 0.52719 0.55951 1.00241 0.0
C41 C 0.50123 0.38272 0.04789 0.0
C42 C 0.53508 0.64087 0.96338 0.0
Dy43 Dy 0.50787 0.46379 1.00997 0.0
O44 O 0.51187 0.62022 0.03026 0.0
O45 O 0.55383 0.61696 0.91708 0.0
O46 O 0.55517 0.57312 0.15366 0.0
O47 O 0.50117 0.51389 0.10647 0.0
C48 C 0.52838 0.53472 0.17545 0.0
C49 C 0.49808 0.48444 0.83789 0.0
O50 O 0.43378 0.4609 0.02022 0.0
O51 O 0.44841 0.5282 0.96595 0.0
O52 O 0.52284 0.40313 0.9793 0.0
O53 O 0.48325 0.40666 0.09649 0.0
O54 O 0.47375 0.44716 0.86776 0.0
O55 O 0.52993 0.50816 0.89903 0.0
O56 O 0.60144 0.56336 0.99653 0.0
O57 O 0.58651 0.49544 0.04699 0.0
C58 C 0.41856 0.49001 0.98927 0.0
C59 C 0.61642 0.53396 0.02597 0.0
H60 H 0.05467 0.55619 0.74322 0.0
H61 H 0.91599 0.45016 0.71891 0.0
H62 H 0.91711 0.446 0.54925 0.0
H63 H 0.03017 0.60812 0.54632 0.0
H64 H 0.08973 0.6253 0.50816 0.0
H65 H 0.07935 0.61945 0.62938 0.0
H66 H 0.12331 0.56646 0.62876 0.0
H67 H 0.13339 0.57182 0.50727 0.0
H68 H 0.10376 0.51857 0.54621 0.0
H69 H 0.93374 0.44957 0.38306 0.0
H70 H 0.96052 0.46901 0.22695 0.0
H71 H 0.08471 0.57656 0.35333 0.0
C72 C 0.0246 0.53233 0.7019 0.0
C73 C 0.98553 0.50331 0.74467 0.0
C74 C 0.9465 0.47277 0.68827 0.0
C75 C 0.94677 0.46987 0.59145 0.0
C76 C 0.98589 0.49829 0.5513 0.0
C77 C 0.02368 0.52961 0.60414 0.0
C78 C 0.05993 0.55755 0.5419 0.0
C79 C 0.06508 0.60544 0.55736 0.0
C80 C 0.10794 0.55333 0.55696 0.0
C81 C 0.03659 0.53662 0.44658 0.0
C82 C 0.99428 0.50203 0.45396 0.0
C83 C 0.96665 0.47683 0.37605 0.0
C84 C 0.98219 0.48789 0.28778 0.0
C85 C 0.02443 0.52421 0.27852 0.0
C86 C 0.05212 0.54866 0.35886 0.0
H87 H 0.60477 0.05611 0.34253 0.0
H88 H 0.46355 0.98314 0.215 0.0
H89 H 0.43314 0.96695 0.36942 0.0
H90 H 0.59813 0.98634 0.52616 0.0
H91 H 0.6296 0.03038 0.61402 0.0
H92 H 0.64151 0.03654 0.49338 0.0
H93 H 0.62271 0.10627 0.50481 0.0
H94 H 0.61081 0.10033 0.62553 0.0
H95 H 0.5665 0.10383 0.54559 0.0
H96 H 0.41743 0.95797 0.53136 0.0
H97 H 0.4146 0.95681 0.69909 0.0
H98 H 0.56552 0.03662 0.73437 0.0
C99 C 0.56749 0.0367 0.34761 0.0
C100 C 0.53639 0.02042 0.26668 0.0
C101 C 0.4879 0.99545 0.27573 0.0
C102 C 0.47034 0.98621 0.36324 0.0
C103 C 0.50169 1.00244 0.44143 0.0
C104 C 0.54916 0.02731 0.4353 0.0
C105 C 0.57442 0.04088 0.53202 0.0
C106 C 0.61322 0.02243 0.54195 0.0
C107 C 0.59482 0.0908 0.55322 0.0
C108 C 0.53358 0.01941 0.593 0.0
C109 C 0.49223 0.99755 0.538 0.0
C110 C 0.44946 0.97499 0.57528 0.0
C111 C 0.44843 0.97465 0.67136 0.0
C112 C 0.48983 0.99671 0.7308 0.0
C113 C 0.5333 0.01949 0.69101 0.0
H114 H 0.56126 0.5473 0.73542 0.0
H115 H 0.42713 0.43564 0.71467 0.0
H116 H 0.42168 0.43757 0.54599 0.0
H117 H 0.52759 0.60298 0.55025 0.0
H118 H 0.58587 0.62281 0.50573 0.0
H119 H 0.57916 0.61455 0.6271 0.0
H120 H 0.62599 0.56404 0.61211 0.0
H121 H 0.63237 0.57174 0.49053 0.0
H122 H 0.60597 0.51744 0.52608 0.0
H123 H 0.43234 0.44587 0.38165 0.0
H124 H 0.4542 0.46613 0.22506 0.0
H125 H 0.57971 0.57539 0.34237 0.0
C126 C 0.53054 0.52381 0.69517 0.0
C127 C 0.49479 0.49103 0.73828 0.0
C128 C 0.45516 0.46076 0.68337 0.0
C129 C 0.45165 0.46153 0.58725 0.0
C130 C 0.48782 0.49312 0.54632 0.0
C131 C 0.52618 0.52426 0.59785 0.0
C132 C 0.5598 0.55431 0.53402 0.0
C133 C 0.5633 0.60146 0.55557 0.0
C134 C 0.60895 0.55171 0.54114 0.0
C135 C 0.53447 0.53451 0.43923 0.0
C136 C 0.49319 0.49906 0.44895 0.0
C137 C 0.46421 0.47393 0.37287 0.0
C138 C 0.47713 0.48564 0.284 0.0
C139 C 0.51846 0.52252 0.27128 0.0
C140 C 0.54773 0.54722 0.3501 0.0
H141 H 0.18643 0.54485 0.94775 0.0
H142 H 0.104 0.41164 1.00371 0.0
H143 H 0.17696 0.39607 1.00441 0.0
H144 H 0.26895 0.51997 0.79672 0.0
H145 H 0.31853 0.56862 0.84132 0.0
H146 H 0.25937 0.56825 0.83937 0.0
H147 H 0.26993 0.59246 0.01617 0.0
H148 H 0.32898 0.59272 0.01882 0.0
H149 H 0.28634 0.56049 0.09466 0.0
H150 H 0.26015 0.39653 1.00857 0.0
H151 H 0.34601 0.41236 0.01266 0.0
H152 H 0.37359 0.54524 0.95306 0.0
C153 C 0.18338 0.51215 0.95899 0.0
C154 C 0.13917 0.47941 0.97542 0.0
C155 C 0.13723 0.43726 0.99055 0.0
C156 C 0.17856 0.42811 0.99113 0.0
C157 C 0.22158 0.46137 0.97611 0.0
C158 C 0.22417 0.50248 0.95978 0.0
C159 C 0.27489 0.53297 0.9487 0.0
C160 C 0.28076 0.54834 0.85069 0.0
C161 C 0.29096 0.57195 0.02409 0.0
C162 C 0.30063 0.50278 0.96269 0.0
C163 C 0.26926 0.46159 0.97809 0.0
C164 C 0.28495 0.42858 0.99583 0.0
C165 C 0.33388 0.43795 0.99819 0.0
C166 C 0.36675 0.48002 0.98287 0.0
C167 C 0.34956 0.51264 0.96427 0.0
H168 H 0.69534 0.16947 0.86435 0.0
H169 H 0.74513 0.09973 0.05453 0.0
H170 H 0.81984 0.16415 0.08753 0.0
H171 H 0.81325 0.2291 0.773 0.0
H172 H 0.80089 0.27748 0.76388 0.0
H173 H 0.75319 0.22452 0.74984 0.0
H174 H 0.70985 0.25004 0.87996 0.0
H175 H 0.7577 0.30278 0.89553 0.0
H176 H 0.73985 0.27095 0.99295 0.0
H177 H 0.88372 0.23999 0.11769 0.0
H178 H 0.938 0.31784 0.12203 0.0
H179 H 0.85013 0.33575 0.90237 0.0
C180 C 0.72256 0.16741 0.91087 0.0
C181 C 0.71456 0.12963 0.95671 0.0
C182 C 0.75071 0.12825 0.01805 0.0
C183 C 0.79316 0.16478 0.0377 0.0
C184 C 0.79932 0.20215 0.99402 0.0
C185 C 0.76555 0.20335 0.92998 0.0
C186 C 0.78056 0.24778 0.89392 0.0
C187 C 0.78739 0.24451 0.78893 0.0
C188 C 0.74487 0.26912 0.917 0.0
C189 C 0.82745 0.2716 0.94916 0.0
C190 C 0.83744 0.24494 1.00744 0.0
C191 C 0.87688 0.26089 0.07074 0.0
C192 C 0.90731 0.30506 0.07327 0.0
C193 C 0.89847 0.33226 1.01162 0.0
C194 C 0.85813 0.31523 0.94889 0.0
H195 H 0.4939 0.86217 0.05232 0.0
H196 H 0.60187 0.9186 0.85853 0.0
H197 H 0.61133 0.84795 0.8311 0.0
H198 H 0.55001 0.79817 0.15406 0.0
H199 H 0.49481 0.7535 0.16743 0.0
H200 H 0.49656 0.80825 0.16984 0.0
H201 H 0.43097 0.78314 0.03667 0.0
H202 H 0.42904 0.72829 0.03329 0.0
H203 H 0.4395 0.75613 0.92931 0.0
H204 H 0.60734 0.76982 0.82343 0.0
H205 H 0.59405 0.69293 0.84401 0.0
H206 H 0.4903 0.68991 0.04586 0.0
C207 C 0.51953 0.85984 1.00384 0.0
C208 C 0.54701 0.89592 0.95718 0.0
C209 C 0.58049 0.89143 0.8952 0.0
C210 C 0.58595 0.85139 0.87892 0.0
C211 C 0.55791 0.81639 0.92568 0.0
C212 C 0.52566 0.82046 0.98748 0.0
C213 C 0.50052 0.77849 0.03083 0.0
C214 C 0.51114 0.78501 0.13681 0.0
C215 C 0.44683 0.76044 1.00597 0.0
C216 C 0.52353 0.74993 0.9837 0.0
C217 C 0.55632 0.77217 0.92278 0.0
C218 C 0.58185 0.75219 0.87115 0.0
C219 C 0.57403 0.70857 0.88307 0.0
C220 C 0.54129 0.68573 0.94662 0.0
C221 C 0.51562 0.70668 0.99692 0.0
H222 H 0.85032 0.48198 0.0779 0.0
H223 H 0.93091 0.61427 0.01377 0.0
H224 H 0.85751 0.62897 1.01143 0.0
H225 H 0.75006 0.46374 0.9296 0.0
H226 H 0.70754 0.43215 1.00642 0.0
H227 H 0.76685 0.43304 1.0107 0.0
H228 H 0.77695 0.4592 0.18659 0.0
H229 H 0.71752 0.4582 0.18296 0.0
H230 H 0.76666 0.50752 0.22595 0.0
H231 H 0.77452 0.6279 1.00675 0.0
H232 H 0.68863 0.61148 1.00098 0.0
H233 H 0.66194 0.47963 0.06731 0.0
C234 C 0.85282 0.51432 0.06485 0.0
C235 C 0.89665 0.54705 0.04647 0.0
C236 C 0.89794 0.58867 0.02836 0.0
C237 C 0.85638 0.59735 0.02694 0.0
C238 C 0.81373 0.56413 0.04383 0.0
C239 C 0.81168 0.52348 0.06278 0.0
C240 C 0.76106 0.49282 0.07438 0.0
C241 C 0.74548 0.45311 1.00089 0.0
C242 C 0.75522 0.47861 0.17337 0.0
C243 C 0.73483 0.52239 0.0577 0.0
C244 C 0.7659 0.56345 0.04073 0.0
C245 C 0.74992 0.59596 0.02063 0.0
C246 C 0.70094 0.58624 0.01737 0.0
C247 C 0.66829 0.54427 0.03391 0.0
C248 C 0.6858 0.51214 0.05499 0.0
H249 H 0.20641 0.67963 0.0362 0.0
H250 H 0.09221 0.71686 0.94449 0.0
H251 H 0.14721 0.79473 0.96391 0.0
H252 H 0.26019 0.76844 0.21121 0.0
H253 H 0.31992 0.774 0.18862 0.0
H254 H 0.27183 0.72161 0.16576 0.0
H255 H 0.29464 0.71598 0.99509 0.0
H256 H 0.34311 0.76807 0.01763 0.0
H257 H 0.29945 0.75938 0.92417 0.0
H258 H 0.21585 0.86895 0.99543 0.0
H259 H 0.29276 0.9318 0.02358 0.0
H260 H 0.36027 0.84449 0.09727 0.0
C261 C 0.19298 0.70411 0.01945 0.0
C262 C 0.14513 0.69236 0.98862 0.0
C263 C 0.12887 0.72528 0.96765 0.0
C264 C 0.15977 0.76952 0.9791 0.0
C265 C 0.20663 0.78005 1.01162 0.0
C266 C 0.22316 0.74813 0.03062 0.0
C267 C 0.27504 0.76755 0.06347 0.0
C268 C 0.28213 0.75729 0.16319 0.0
C269 C 0.3048 0.75181 0.99604 0.0
C270 C 0.28541 0.81556 0.05998 0.0
C271 C 0.24555 0.82226 0.03035 0.0
C272 C 0.24715 0.86401 0.01906 0.0
C273 C 0.29088 0.89954 0.03579 0.0
C274 C 0.33228 0.89302 0.06349 0.0
C275 C 0.32907 0.85057 0.07758 0.0
H276 H 0.54809 0.33554 0.9659 0.0
H277 H 0.44318 0.32959 0.16692 0.0
H278 H 0.43224 0.25322 0.18758 0.0
H279 H 0.49188 0.22755 0.8574 0.0
H280 H 0.5463 0.21913 0.84225 0.0
H281 H 0.54635 0.27332 0.8454 0.0
H282 H 0.61132 0.29973 0.98032 0.0
H283 H 0.61165 0.24565 0.9771 0.0
H284 H 0.60144 0.27173 0.08409 0.0
H285 H 0.43031 0.17586 0.17922 0.0
H286 H 0.44138 0.10603 0.15073 0.0
H287 H 0.54964 0.16491 0.95913 0.0
C288 C 0.523 0.31822 0.01466 0.0
C289 C 0.49631 0.33818 0.06469 0.0
C290 C 0.46397 0.31471 0.12812 0.0
C291 C 0.45749 0.27138 0.14008 0.0
C292 C 0.48405 0.2524 0.0888 0.0
C293 C 0.51655 0.2753 0.02813 0.0
C294 C 0.54085 0.24772 0.98144 0.0
C295 C 0.53071 0.24157 0.87535 0.0
C296 C 0.59448 0.26738 1.00733 0.0
C297 C 0.5166 0.2055 0.02441 0.0
C298 C 0.4838 0.20864 0.08585 0.0
C299 C 0.45618 0.17316 0.13178 0.0
C300 C 0.46256 0.1336 0.11488 0.0
C301 C 0.49652 0.13001 0.05311 0.0
C302 C 0.5237 0.16659 1.00751 0.0
loop_
_geom_bond_atom_site_label_1
_geom_bond_atom_site_label_2
_geom_bond_distance
_geom_bond_site_symmetry_2
_ccdc_geom_bond_type
Dy0 O4 2.398 . S
Dy0 O5 2.491 1_556 S
Dy0 O6 2.403 . S
Dy0 O7 2.664 1_655 S
Dy0 O11 2.326 . S
Dy0 O15 2.310 1_556 S
Dy0 O16 2.351 1_655 S
C1 O12 1.185 . S
C1 O13 1.355 1_554 S
C2 O4 1.185 . S
C2 O5 1.355 1_556 S
Dy3 O7 2.310 1_554 S
Dy3 O10 2.351 1_455 S
Dy3 O12 2.398 . S
Dy3 O13 2.491 1_554 S
Dy3 O14 2.403 . S
Dy3 O15 2.664 1_455 S
Dy3 O17 2.326 . S
O4 Dy0 2.398 . S
O4 C2 1.185 . S
O5 Dy0 2.491 1_554 S
O5 C2 1.355 1_554 S
O6 Dy0 2.403 . S
O6 C8 1.254 . S
O7 Dy0 2.664 1_455 S
O7 Dy3 2.310 1_556 S
O7 C8 1.268 1_455 S
C8 O6 1.254 . S
C8 O7 1.268 1_655 S
C9 O14 1.254 . S
C9 O15 1.268 1_455 S
O10 Dy3 2.351 1_655 S
O10 C18 1.249 1_554 S
O11 Dy0 2.326 . S
O11 C18 1.267 . S
O12 C1 1.185 . S
O12 Dy3 2.398 . S
O13 C1 1.355 1_556 S
O13 Dy3 2.491 1_556 S
O14 Dy3 2.403 . S
O14 C9 1.254 . S
O15 Dy0 2.310 1_554 S
O15 Dy3 2.664 1_655 S
O15 C9 1.268 1_655 S
O16 Dy0 2.351 1_455 S
O16 C19 1.249 1_556 S
O17 Dy3 2.326 . S
O17 C19 1.267 . S
C18 O10 1.249 1_556 S
C18 O11 1.267 . S
C19 O16 1.249 1_554 S
C19 O17 1.267 . S
Dy20 O24 2.398 . S
Dy20 O25 2.491 1_554 S
Dy20 O26 2.403 . S
Dy20 O27 2.664 1_545 S
Dy20 O31 2.326 . S
Dy20 O35 2.310 1_554 S
Dy20 O36 2.351 1_545 S
C21 O32 1.185 . S
C21 O33 1.355 1_556 S
C22 O24 1.185 . S
C22 O25 1.355 1_554 S
Dy23 O27 2.310 1_556 S
Dy23 O30 2.351 1_565 S
Dy23 O32 2.398 . S
Dy23 O33 2.491 1_556 S
Dy23 O34 2.403 . S
Dy23 O35 2.664 1_565 S
Dy23 O37 2.326 . S
O24 Dy20 2.398 . S
O24 C22 1.185 . S
O25 Dy20 2.491 1_556 S
O25 C22 1.355 1_556 S
O26 Dy20 2.403 . S
O26 C28 1.254 . S
O27 Dy20 2.664 1_565 S
O27 Dy23 2.310 1_554 S
O27 C28 1.268 1_565 S
C28 O26 1.254 . S
C28 O27 1.268 1_545 S
C29 O34 1.254 . S
C29 O35 1.268 1_565 S
O30 Dy23 2.351 1_545 S
O30 C38 1.249 1_556 S
O31 Dy20 2.326 . S
O31 C38 1.267 . S
O32 C21 1.185 . S
O32 Dy23 2.398 . S
O33 C21 1.355 1_554 S
O33 Dy23 2.491 1_554 S
O34 Dy23 2.403 . S
O34 C29 1.254 . S
O35 Dy20 2.310 1_556 S
O35 Dy23 2.664 1_545 S
O35 C29 1.268 1_545 S
O36 Dy20 2.351 1_565 S
O36 C39 1.249 1_554 S
O37 Dy23 2.326 . S
O37 C39 1.267 . S
C38 O30 1.249 1_554 S
C38 O31 1.267 . S
C39 O36 1.249 1_556 S
C39 O37 1.267 . S
Dy40 O44 2.398 . S
Dy40 O45 2.491 1_554 S
Dy40 O46 2.403 . S
Dy40 O47 2.664 . S
Dy40 O51 2.326 . S
Dy40 O55 2.310 1_554 S
Dy40 O56 2.351 . S
C41 O52 1.185 . S
C41 O53 1.355 1_556 S
C42 O44 1.185 . S
C42 O45 1.355 1_554 S
Dy43 O47 2.310 1_556 S
Dy43 O50 2.351 . S
Dy43 O52 2.398 . S
Dy43 O53 2.491 1_556 S
Dy43 O54 2.403 . S
Dy43 O55 2.664 . S
Dy43 O57 2.326 . S
O44 Dy40 2.398 . S
O44 C42 1.185 . S
O45 Dy40 2.491 1_556 S
O45 C42 1.355 1_556 S
O46 Dy40 2.403 . S
O46 C48 1.254 . S
O47 Dy40 2.664 . S
O47 Dy43 2.310 1_554 S
O47 C48 1.268 . S
C48 O46 1.254 . S
C48 O47 1.268 . S
C49 O54 1.254 . S
C49 O55 1.268 . S
O50 Dy43 2.351 . S
O50 C58 1.249 1_556 S
O51 Dy40 2.326 . S
O51 C58 1.267 . S
O52 C41 1.185 . S
O52 Dy43 2.398 . S
O53 C41 1.355 1_554 S
O53 Dy43 2.491 1_554 S
O54 Dy43 2.403 . S
O54 C49 1.254 . S
O55 Dy40 2.310 1_556 S
O55 Dy43 2.664 . S
O55 C49 1.268 . S
O56 Dy40 2.351 . S
O56 C59 1.249 1_554 S
O57 Dy43 2.326 . S
O57 C59 1.267 . S
C58 O50 1.249 1_554 S
C58 O51 1.267 . S
C59 O56 1.249 1_556 S
C59 O57 1.267 . S
H60 C72 0.924 1_655 S
H61 C74 0.930 . S
H62 C75 0.930 . S
H63 C79 0.959 . S
H64 C79 0.959 . S
H65 C79 0.961 . S
H66 C80 0.960 . S
H67 C80 0.961 . S
H68 C80 0.959 . S
H69 C83 0.929 . S
H70 C84 0.931 . S
H71 C86 0.930 . S
C72 H60 0.924 1_455 S
C72 C73 1.403 . S
C72 C77 1.400 . S
C73 C72 1.403 . S
C73 C74 1.376 . S
C74 H61 0.930 . S
C74 C73 1.376 . S
C74 C75 1.388 . S
C75 H62 0.930 . S
C75 C74 1.388 . S
C75 C76 1.390 . S
C76 C75 1.390 . S
C76 C77 1.394 . S
C76 C82 1.465 . S
C77 C72 1.400 . S
C77 C76 1.394 . S
C77 C78 1.516 . S
C78 C77 1.516 . S
C78 C79 1.502 1_455 S
C78 C80 1.561 . S
C78 C81 1.526 . S
C79 H63 0.959 . S
C79 H64 0.959 . S
C79 H65 0.961 . S
C79 C78 1.502 1_655 S
C80 H66 0.960 . S
C80 H67 0.961 . S
C80 H68 0.959 . S
C80 C78 1.561 . S
C81 C78 1.526 . S
C81 C82 1.396 . S
C81 C86 1.390 1_455 S
C82 C76 1.465 . S
C82 C81 1.396 . S
C82 C83 1.399 . S
C83 H69 0.929 . S
C83 C82 1.399 . S
C83 C84 1.385 . S
C84 H70 0.931 . S
C84 C83 1.385 . S
C84 C85 1.391 1_455 S
C85 C84 1.391 1_655 S
C85 C86 1.386 . S
C86 H71 0.930 . S
C86 C81 1.390 1_655 S
C86 C85 1.386 . S
H87 C99 0.930 . S
H88 C101 0.930 . S
H89 C102 0.930 . S
H90 C106 0.959 . S
H91 C106 0.959 . S
H92 C106 0.961 . S
H93 C107 0.960 . S
H94 C107 0.961 . S
H95 C107 0.959 . S
H96 C110 0.929 . S
H97 C111 0.931 . S
H98 C113 0.930 . S
C99 H87 0.930 . S
C99 C100 1.397 1_545 S
C99 C104 1.399 . S
C100 C99 1.397 1_565 S
C100 C101 1.380 . S
C101 H88 0.930 . S
C101 C100 1.380 . S
C101 C102 1.388 . S
C102 H89 0.930 . S
C102 C101 1.388 . S
C102 C103 1.390 . S
C103 C102 1.390 . S
C103 C104 1.394 1_565 S
C103 C109 1.465 . S
C104 C99 1.399 . S
C104 C103 1.394 1_545 S
C104 C105 1.516 . S
C105 C104 1.516 . S
C105 C106 1.502 . S
C105 C107 1.561 . S
C105 C108 1.526 . S
C106 H90 0.959 . S
C106 H91 0.959 . S
C106 H92 0.961 . S
C106 C105 1.502 . S
C107 H93 0.960 . S
C107 H94 0.961 . S
C107 H95 0.959 . S
C107 C105 1.561 . S
C108 C105 1.526 . S
C108 C109 1.396 1_545 S
C108 C113 1.390 . S
C109 C103 1.465 . S
C109 C108 1.396 1_565 S
C109 C110 1.399 . S
C110 H96 0.929 . S
C110 C109 1.399 . S
C110 C111 1.385 . S
C111 H97 0.931 . S
C111 C110 1.385 . S
C111 C112 1.389 . S
C112 C111 1.389 . S
C112 C113 1.387 1_565 S
C113 H98 0.930 . S
C113 C108 1.390 . S
C113 C112 1.387 1_545 S
H114 C126 0.930 . S
H115 C128 0.930 . S
H116 C129 0.930 . S
H117 C133 0.959 . S
H118 C133 0.959 . S
H119 C133 0.961 . S
H120 C134 0.960 . S
H121 C134 0.961 . S
H122 C134 0.959 . S
H123 C137 0.929 . S
H124 C138 0.931 . S
H125 C140 0.930 . S
C126 H114 0.930 . S
C126 C127 1.399 . S
C126 C131 1.399 . S
C127 C126 1.399 . S
C127 C128 1.376 . S
C128 H115 0.930 . S
C128 C127 1.376 . S
C128 C129 1.388 . S
C129 H116 0.930 . S
C129 C128 1.388 . S
C129 C130 1.390 . S
C130 C129 1.390 . S
C130 C131 1.394 . S
C130 C136 1.465 . S
C131 C126 1.399 . S
C131 C130 1.394 . S
C131 C132 1.516 . S
C132 C131 1.516 . S
C132 C133 1.502 . S
C132 C134 1.561 . S
C132 C135 1.526 . S
C133 H117 0.959 . S
C133 H118 0.959 . S
C133 H119 0.961 . S
C133 C132 1.502 . S
C134 H120 0.960 . S
C134 H121 0.961 . S
C134 H122 0.959 . S
C134 C132 1.561 . S
C135 C132 1.526 . S
C135 C136 1.396 . S
C135 C140 1.390 . S
C136 C130 1.465 . S
C136 C135 1.396 . S
C136 C137 1.399 . S
C137 H123 0.929 . S
C137 C136 1.399 . S
C137 C138 1.385 . S
C138 H124 0.931 . S
C138 C137 1.385 . S
C138 C139 1.389 . S
C139 C138 1.389 . S
C139 C140 1.387 . S
C140 H125 0.930 . S
C140 C135 1.390 . S
C140 C139 1.387 . S
H141 C153 0.930 . S
H142 C155 0.930 . S
H143 C156 0.930 . S
H144 C160 0.959 . S
H145 C160 0.959 . S
H146 C160 0.961 . S
H147 C161 0.960 . S
H148 C161 0.961 . S
H149 C161 0.959 . S
H150 C164 0.929 . S
H151 C165 0.931 . S
H152 C167 0.930 . S
C153 H141 0.930 . S
C153 C154 1.399 1_556 S
C153 C158 1.399 . S
C154 C153 1.399 1_554 S
C154 C155 1.376 . S
C155 H142 0.930 . S
C155 C154 1.376 . S
C155 C156 1.388 . S
C156 H143 0.930 . S
C156 C155 1.388 . S
C156 C157 1.390 . S
C157 C156 1.390 . S
C157 C158 1.394 1_554 S
C157 C163 1.465 . S
C158 C153 1.399 . S
C158 C157 1.394 1_556 S
C158 C159 1.516 . S
C159 C158 1.516 . S
C159 C160 1.502 . S
C159 C161 1.561 . S
C159 C162 1.526 . S
C160 H144 0.959 . S
C160 H145 0.959 . S
C160 H146 0.961 . S
C160 C159 1.502 . S
C161 H147 0.960 . S
C161 H148 0.961 . S
C161 H149 0.959 . S
C161 C159 1.561 . S
C162 C159 1.526 . S
C162 C163 1.396 1_556 S
C162 C167 1.390 . S
C163 C157 1.465 . S
C163 C162 1.396 1_554 S
C163 C164 1.399 . S
C164 H150 0.929 . S
C164 C163 1.399 . S
C164 C165 1.385 . S
C165 H151 0.931 . S
C165 C164 1.385 . S
C165 C166 1.389 . S
C166 C165 1.389 . S
C166 C167 1.387 1_554 S
C167 H152 0.930 . S
C167 C162 1.390 . S
C167 C166 1.387 1_556 S
H168 C180 0.930 . S
H169 C182 0.930 . S
H170 C183 0.930 . S
H171 C187 0.959 . S
H172 C187 0.959 . S
H173 C187 0.961 . S
H174 C188 0.960 . S
H175 C188 0.961 . S
H176 C188 0.959 . S
H177 C191 0.929 . S
H178 C192 0.931 . S
H179 C194 0.930 . S
C180 H168 0.930 . S
C180 C181 1.399 1_556 S
C180 C185 1.399 . S
C181 C180 1.399 1_554 S
C181 C182 1.376 . S
C182 H169 0.930 . S
C182 C181 1.376 . S
C182 C183 1.388 . S
C183 H170 0.930 . S
C183 C182 1.388 . S
C183 C184 1.390 . S
C184 C183 1.390 . S
C184 C185 1.394 1_554 S
C184 C190 1.465 . S
C185 C180 1.399 . S
C185 C184 1.394 1_556 S
C185 C186 1.516 . S
C186 C185 1.516 . S
C186 C187 1.502 . S
C186 C188 1.561 . S
C186 C189 1.526 . S
C187 H171 0.959 . S
C187 H172 0.959 . S
C187 H173 0.961 . S
C187 C186 1.502 . S
C188 H174 0.960 . S
C188 H175 0.961 . S
C188 H176 0.959 . S
C188 C186 1.561 . S
C189 C186 1.526 . S
C189 C190 1.396 1_556 S
C189 C194 1.390 . S
C190 C184 1.465 . S
C190 C189 1.396 1_554 S
C190 C191 1.399 . S
C191 H177 0.929 . S
C191 C190 1.399 . S
C191 C192 1.385 . S
C192 H178 0.931 . S
C192 C191 1.385 . S
C192 C193 1.389 . S
C193 C192 1.389 . S
C193 C194 1.387 1_554 S
C194 H179 0.930 . S
C194 C189 1.390 . S
C194 C193 1.387 1_556 S
H195 C207 0.930 . S
H196 C209 0.930 . S
H197 C210 0.930 . S
H198 C214 0.959 . S
H199 C214 0.959 . S
H200 C214 0.961 . S
H201 C215 0.960 . S
H202 C215 0.961 . S
H203 C215 0.959 . S
H204 C218 0.929 . S
H205 C219 0.931 . S
H206 C221 0.930 . S
C207 H195 0.930 . S
C207 C208 1.399 1_554 S
C207 C212 1.399 . S
C208 C207 1.399 1_556 S
C208 C209 1.376 . S
C209 H196 0.930 . S
C209 C208 1.376 . S
C209 C210 1.388 . S
C210 H197 0.930 . S
C210 C209 1.388 . S
C210 C211 1.390 . S
C211 C210 1.390 . S
C211 C212 1.394 1_556 S
C211 C217 1.465 . S
C212 C207 1.399 . S
C212 C211 1.394 1_554 S
C212 C213 1.516 . S
C213 C212 1.516 . S
C213 C214 1.502 . S
C213 C215 1.561 . S
C213 C216 1.526 . S
C214 H198 0.959 . S
C214 H199 0.959 . S
C214 H200 0.961 . S
C214 C213 1.502 . S
C215 H201 0.960 . S
C215 H202 0.961 . S
C215 H203 0.959 . S
C215 C213 1.561 . S
C216 C213 1.526 . S
C216 C217 1.396 1_554 S
C216 C221 1.390 . S
C217 C211 1.465 . S
C217 C216 1.396 1_556 S
C217 C218 1.399 . S
C218 H204 0.929 . S
C218 C217 1.399 . S
C218 C219 1.385 . S
C219 H205 0.931 . S
C219 C218 1.385 . S
C219 C220 1.389 . S
C220 C219 1.389 . S
C220 C221 1.387 1_556 S
C221 H206 0.930 . S
C221 C216 1.390 . S
C221 C220 1.387 1_554 S
H222 C234 0.930 . S
H223 C236 0.930 . S
H224 C237 0.930 . S
H225 C241 0.959 . S
H226 C241 0.959 . S
H227 C241 0.961 . S
H228 C242 0.960 . S
H229 C242 0.961 . S
H230 C242 0.959 . S
H231 C245 0.929 . S
H232 C246 0.931 . S
H233 C248 0.930 . S
C234 H222 0.930 . S
C234 C235 1.400 1_554 S
C234 C239 1.399 . S
C235 C234 1.400 1_556 S
C235 C236 1.375 . S
C236 H223 0.930 . S
C236 C235 1.375 . S
C236 C237 1.388 . S
C237 H224 0.930 . S
C237 C236 1.388 . S
C237 C238 1.390 . S
C238 C237 1.390 . S
C238 C239 1.394 1_556 S
C238 C244 1.465 . S
C239 C234 1.399 . S
C239 C238 1.394 1_554 S
C239 C240 1.516 . S
C240 C239 1.516 . S
C240 C241 1.502 . S
C240 C242 1.561 . S
C240 C243 1.526 . S
C241 H225 0.959 . S
C241 H226 0.959 . S
C241 H227 0.961 . S
C241 C240 1.502 . S
C242 H228 0.960 . S
C242 H229 0.961 . S
C242 H230 0.959 . S
C242 C240 1.561 . S
C243 C240 1.526 . S
C243 C244 1.396 1_554 S
C243 C248 1.390 . S
C244 C238 1.465 . S
C244 C243 1.396 1_556 S
C244 C245 1.399 . S
C245 H231 0.929 . S
C245 C244 1.399 . S
C245 C246 1.385 . S
C246 H232 0.931 . S
C246 C245 1.385 . S
C246 C247 1.389 . S
C247 C246 1.389 . S
C247 C248 1.387 1_556 S
C248 H233 0.930 . S
C248 C243 1.390 . S
C248 C247 1.387 1_554 S
H249 C261 0.930 . S
H250 C263 0.930 . S
H251 C264 0.930 . S
H252 C268 0.959 . S
H253 C268 0.959 . S
H254 C268 0.961 . S
H255 C269 0.960 . S
H256 C269 0.961 . S
H257 C269 0.959 . S
H258 C272 0.929 . S
H259 C273 0.931 . S
H260 C275 0.930 . S
C261 H249 0.930 . S
C261 C262 1.399 1_556 S
C261 C266 1.399 . S
C262 C261 1.399 1_554 S
C262 C263 1.376 . S
C263 H250 0.930 . S
C263 C262 1.376 . S
C263 C264 1.388 . S
C264 H251 0.930 . S
C264 C263 1.388 . S
C264 C265 1.390 . S
C265 C264 1.390 . S
C265 C266 1.394 1_554 S
C265 C271 1.465 . S
C266 C261 1.399 . S
C266 C265 1.394 1_556 S
C266 C267 1.516 . S
C267 C266 1.516 . S
C267 C268 1.502 . S
C267 C269 1.561 . S
C267 C270 1.526 . S
C268 H252 0.959 . S
C268 H253 0.959 . S
C268 H254 0.961 . S
C268 C267 1.502 . S
C269 H255 0.960 . S
C269 H256 0.961 . S
C269 H257 0.959 . S
C269 C267 1.561 . S
C270 C267 1.526 . S
C270 C271 1.396 1_556 S
C270 C275 1.390 . S
C271 C265 1.465 . S
C271 C270 1.396 1_554 S
C271 C272 1.399 . S
C272 H258 0.929 . S
C272 C271 1.399 . S
C272 C273 1.385 . S
C273 H259 0.931 . S
C273 C272 1.385 . S
C273 C274 1.389 . S
C274 C273 1.389 . S
C274 C275 1.387 1_554 S
C275 H260 0.930 . S
C275 C270 1.390 . S
C275 C274 1.387 1_556 S
H276 C288 0.930 . S
H277 C290 0.930 . S
H278 C291 0.930 . S
H279 C295 0.959 . S
H280 C295 0.959 . S
H281 C295 0.961 . S
H282 C296 0.960 . S
H283 C296 0.961 . S
H284 C296 0.959 . S
H285 C299 0.929 . S
H286 C300 0.931 . S
H287 C302 0.930 . S
C288 H276 0.930 . S
C288 C289 1.399 1_556 S
C288 C293 1.399 . S
C289 C288 1.399 1_554 S
C289 C290 1.376 . S
C290 H277 0.930 . S
C290 C289 1.376 . S
C290 C291 1.388 . S
C291 H278 0.930 . S
C291 C290 1.388 . S
C291 C292 1.390 . S
C292 C291 1.390 . S
C292 C293 1.394 1_554 S
C292 C298 1.465 . S
C293 C288 1.399 . S
C293 C292 1.394 1_556 S
C293 C294 1.516 . S
C294 C293 1.516 . S
C294 C295 1.502 . S
C294 C296 1.561 . S
C294 C297 1.526 . S
C295 H279 0.959 . S
C295 H280 0.959 . S
C295 H281 0.961 . S
C295 C294 1.502 . S
C296 H282 0.960 . S
C296 H283 0.961 . S
C296 H284 0.959 . S
C296 C294 1.561 . S
C297 C294 1.526 . S
C297 C298 1.396 1_556 S
C297 C302 1.390 . S
C298 C292 1.465 . S
C298 C297 1.396 1_554 S
C298 C299 1.399 . S
C299 H285 0.929 . S
C299 C298 1.399 . S
C299 C300 1.385 . S
C300 H286 0.931 . S
C300 C299 1.385 . S
C300 C301 1.389 . S
C301 C300 1.389 . S
C301 C302 1.387 1_554 S
C302 H287 0.930 . S
C302 C297 1.390 . S
C302 C301 1.387 1_556 S
C73 C8 1.433 1_455 S
C85 C9 1.480 1_655 S
C100 C28 1.484 1_565 S
C112 C29 1.417 . S
C127 C49 1.430 . S
C139 C48 1.483 . S
C154 C19 1.756 . S
C166 C58 1.749 . S
C181 C22 1.244 . S
C193 C2 1.247 1_554 S
C208 C39 1.504 . S
C220 C42 1.507 1_556 S
C235 C18 1.753 . S
C247 C59 1.739 . S
C262 C1 1.201 . S
C274 C21 1.235 1_554 S
C289 C41 1.513 1_554 S
C301 C38 1.503 . S
