# Generated by pormake.
# Topology kag, (6)-cn, num edge types: 1
# Building blocks:
#     Node 0, Type 0, BuildingBlock: KUMBUR_clean_sbu_0, # of connection points: 6
#     Node 1, Type 0, BuildingBlock: KUMBUR_clean_sbu_0, # of connection points: 6
#     Node 2, Type 0, BuildingBlock: KUMBUR_clean_sbu_0, # of connection points: 6
#     Edge 3, Type (0, 0), BuildingBlock: KIFKEQ_clean_linker_1, # of connection points: 2
#     Edge 4, Type (0, 0), BuildingBlock: KIFKEQ_clean_linker_1, # of connection points: 2
#     Edge 5, Type (0, 0), BuildingBlock: KIFKEQ_clean_linker_1, # of connection points: 2
#     Edge 6, Type (0, 0), BuildingBlock: KIFKEQ_clean_linker_1, # of connection points: 2
#     Edge 7, Type (0, 0), BuildingBlock: KIFKEQ_clean_linker_1, # of connection points: 2
#     Edge 8, Type (0, 0), BuildingBlock: KIFKEQ_clean_linker_1, # of connection points: 2
#     Edge 9, Type (0, 0), BuildingBlock: KIFKEQ_clean_linker_1, # of connection points: 2
#     Edge 10, Type (0, 0), BuildingBlock: KIFKEQ_clean_linker_1, # of connection points: 2
#     Edge 11, Type (0, 0), BuildingBlock: KIFKEQ_clean_linker_1, # of connection points: 2
# Relax obj value: 0.070
# Max RMSD: 0.189
# Mean RMSD: 0.140
data_MOF--net-kag--node1-KUMBUR_clean_sbu_0--edge1-KIFKEQ_clean_linker_1
_symmetry_space_group_name_H-M    P1
_symmetry_Int_Tables_number       1
_symmetry_cell_setting            triclinic
loop_
_symmetry_equiv_pos_as_xyz
'x, y, z'
_cell_length_a     39.372932
_cell_length_b     29.056341
_cell_length_c     15.3779
_cell_angle_alpha  93.952629
_cell_angle_beta   113.8885
_cell_angle_gamma 96.043754
loop_
_atom_site_label
_atom_site_type_symbol
_atom_site_fract_x
_atom_site_fract_y
_atom_site_fract_z
_atom_type_partial_charge
Tb0 Tb 1.02282 0.49972 0.00107 0.0
C1 C 1.00801 0.69589 0.12901 0.0
C2 C 0.9454 0.70578 0.01958 0.0
C3 C 0.97273 0.74623 0.18174 0.0
C4 C 0.9783 0.68533 0.04029 0.0
C5 C 1.00598 0.72716 0.20035 0.0
C6 C 0.94245 0.73551 0.09146 0.0
C7 C 0.07067 0.7209 0.29996 0.0
N8 N 0.03955 0.67673 0.14394 0.0
C9 C 0.07132 0.69018 0.22665 0.0
C10 C 0.03772 0.73906 0.28723 0.0
Tb11 Tb 0.03734 0.62539 0.02118 0.0
N12 N 0.98247 0.6568 0.97278 0.0
C13 C 0.95562 0.64997 0.88054 0.0
C14 C 0.91692 0.69666 0.92668 0.0
C15 C 0.92231 0.66917 0.85654 0.0
H16 H 0.0968 0.67603 0.23723 0.0
H17 H 0.90076 0.66261 0.78397 0.0
H18 H 0.91726 0.75122 0.07729 0.0
H19 H 0.09557 0.73054 0.3662 0.0
H20 H 0.95918 0.62864 0.82545 0.0
H21 H 0.16072 0.46265 0.23042 0.0
H22 H 0.89112 0.71153 0.90786 0.0
H23 H 0.95982 0.44522 0.79218 0.0
H24 H 0.1036 0.49875 0.19182 0.0
H25 H 0.95722 0.38546 0.66715 0.0
H26 H 0.97044 0.77002 0.23588 0.0
H27 H 0.16647 0.40792 0.10824 0.0
H28 H 0.13653 0.36309 0.94305 0.0
H29 H 0.03732 0.76295 0.344 0.0
H30 H 0.08094 0.34172 0.78968 0.0
N31 N 0.07685 0.46623 0.04707 0.0
C32 C 0.10527 0.47498 0.13722 0.0
C33 C 0.14115 0.42375 0.0906 0.0
C34 C 0.11114 0.41275 0.0004 0.0
C35 C 0.13796 0.45453 0.15973 0.0
C36 C 0.07894 0.4346 0.98107 0.0
H37 H 1.01366 0.34934 0.68666 0.0
N38 N 1.01746 0.44383 0.88171 0.0
C39 C 0.98304 0.39582 0.7308 0.0
C40 C 0.04803 0.42283 0.89526 0.0
C41 C 0.98465 0.42972 0.80211 0.0
C42 C 1.01496 0.37557 0.74197 0.0
C43 C 0.0479 0.38858 0.82557 0.0
O44 O 0.9739 0.45713 0.98798 0.0
O45 O 0.99942 0.56326 0.00454 0.0
O46 O 0.02966 0.60615 0.14706 0.0
O47 O 0.04737 0.53221 0.15219 0.0
O48 O 0.96481 0.50904 0.91019 0.0
O49 O 0.02589 0.46045 0.1132 0.0
O50 O 0.08501 0.67331 0.04413 0.0
O51 O 0.06054 0.56201 0.01485 0.0
O52 O 0.02825 0.51652 0.87051 0.0
O53 O 1.01628 0.59379 0.87015 0.0
O54 O 0.09588 0.61631 0.10786 0.0
O55 O 0.03449 0.66775 0.91387 0.0
C56 C 0.96585 0.551 0.94449 0.0
C57 C 0.98161 0.39182 0.07274 0.0
C58 C 0.94115 0.32953 0.09823 0.0
C59 C 0.95057 0.37683 0.09195 0.0
C60 C 0.9633 0.29726 0.08454 0.0
C61 C 1.0032 0.35922 0.05816 0.0
C62 C 0.99399 0.31208 0.06412 0.0
C63 C 0.0396 0.56933 0.19199 0.0
C64 C 0.99075 0.44181 0.06989 0.0
C65 C 0.08031 0.36781 0.84264 0.0
C66 C 0.11194 0.37996 0.92994 0.0
C67 C 0.09447 0.57444 0.07226 0.0
C68 C 0.07251 0.74143 0.9695 0.0
C69 C 0.10278 0.76525 0.9568 0.0
C70 C 0.10758 0.81416 0.96081 0.0
C71 C 0.0818 0.83891 0.97894 0.0
C72 C 0.04701 0.76673 0.9869 0.0
C73 C 0.05177 0.81525 0.99196 0.0
C74 C 1.02111 0.55488 0.82822 0.0
C75 C 0.06815 0.6903 0.96394 0.0
H76 H 0.93412 0.40226 0.1038 0.0
H77 H 0.95661 0.26055 0.08844 0.0
H78 H 0.02714 0.37019 0.0428 0.0
H79 H 1.01073 0.28694 0.05306 0.0
H80 H 0.12215 0.74554 0.94197 0.0
H81 H 0.08499 0.8766 0.98372 0.0
H82 H 1.02337 0.74912 -0.00397 0.0
H83 H 0.03206 0.83458 0.00575 0.0
Tb84 Tb 0.57974 0.07181 0.03522 0.0
C85 C 0.4387 0.13432 0.78174 0.0
C86 C 0.43905 0.20806 0.86521 0.0
C87 C 0.41021 0.19587 0.69104 0.0
C88 C 0.4492 0.16293 0.86621 0.0
C89 C 0.41802 0.14977 0.69313 0.0
C90 C 0.42068 0.22499 0.77708 0.0
C91 C 0.40971 0.07121 0.61748 0.0
N92 N 0.44593 0.08975 0.78743 0.0
C93 C 0.42987 1.05741 0.70741 0.0
C94 C 0.40432 0.11779 0.61006 0.0
Tb95 Tb 0.48064 1.07083 0.93781 0.0
N96 N 0.46629 0.14482 0.94949 0.0
C97 C 0.47157 0.16901 0.03454 0.0
C98 C 0.44599 0.23376 0.95248 0.0
C99 C 0.46151 0.21371 0.03727 0.0
H100 H 0.43406 1.02137 0.71273 0.0
H101 H 0.4663 0.23293 0.10502 0.0
H102 H 0.41313 0.25981 0.77468 0.0
H103 H 0.39824 1.04589 0.55405 0.0
H104 H 0.48407 0.15447 0.10099 0.0
H105 H 0.65161 1.04597 0.80347 0.0
H106 H 0.43846 0.26843 0.95507 0.0
H107 H 0.57123 1.00789 0.20052 0.0
H108 H 0.61881 0.08953 0.88108 0.0
H109 H 0.58727 0.93349 0.25817 0.0
H110 H 0.39477 0.2087 0.62361 0.0
H111 H 0.66273 0.96568 0.83798 0.0
H112 H 0.65938 0.90043 0.93386 0.0
H113 H 0.38835 0.12828 0.54046 0.0
H114 H 0.64342 0.87082 0.06002 0.0
N115 N 0.60933 1.03353 0.95531 0.0
C116 C 0.62329 1.05431 0.89642 0.0
C117 C 0.64802 0.98452 0.87166 0.0
C118 C 0.63653 0.96484 0.93755 0.0
C119 C 0.6419 1.02981 0.85221 0.0
C120 C 0.61743 0.99078 0.97946 0.0
H121 H 0.61681 0.88291 0.18227 0.0
N122 N 0.59145 1.00119 0.09132 0.0
C123 C 0.59342 0.94449 0.19962 0.0
C124 C 0.60852 0.97422 0.05056 0.0
C125 C 0.58441 0.98714 0.16634 0.0
C126 C 0.61 0.91597 0.15645 0.0
C127 C 0.61802 0.93081 0.08139 0.0
O128 O 0.61981 0.09225 0.17812 0.0
O129 O 0.53508 0.1148 0.00843 0.0
O130 O 0.5001 0.08591 0.82725 0.0
O131 O 0.55492 1.05265 0.87888 0.0
O132 O 0.57862 0.13825 0.97485 0.0
O133 O 0.63174 0.10915 0.05907 0.0
O134 O 0.43465 1.01671 0.89125 0.0
O135 O 0.52617 1.02927 -0.00044 0.0
O136 O 0.56595 0.08423 0.15835 0.0
O137 O 0.50056 0.07653 0.09317 0.0
O138 O 0.4811 1.00055 0.87628 0.0
O139 O 0.44209 0.07146 0.00059 0.0
C140 C 0.54801 0.14854 0.97665 0.0
C141 C 0.6625 0.16138 0.1981 0.0
C142 C 0.71451 0.22369 0.22982 0.0
C143 C 0.69604 0.17804 0.19137 0.0
C144 C 0.69871 0.25259 0.27599 0.0
C145 C 0.64703 0.19073 0.24377 0.0
C146 C 0.66524 0.23612 0.28282 0.0
C147 C 0.52733 1.06928 0.81202 0.0
C148 C 0.64382 0.11415 0.15128 0.0
C149 C 0.63577 0.90407 0.03748 0.0
C150 C 0.6449 0.92097 0.96551 0.0
C151 C 0.51259 0.99263 0.93931 0.0
C152 C 0.37989 1.03846 0.89946 0.0
C153 C 0.35355 1.00435 0.90746 0.0
C154 C 0.31487 1.00761 0.8642 0.0
C155 C 0.30306 1.04534 0.81239 0.0
C156 C 0.36738 0.07602 0.84856 0.0
C157 C 0.3292 0.07924 0.80479 0.0
C158 C 0.53372 0.08263 0.16674 0.0
C159 C 0.42021 1.03479 0.94562 0.0
H160 H 0.70708 0.15554 0.15316 0.0
H161 H 0.71226 0.2878 0.30731 0.0
H162 H 0.62087 0.17884 0.24843 0.0
H163 H 0.65326 0.25874 0.31809 0.0
H164 H 0.36316 0.97535 0.94705 0.0
H165 H 0.27363 1.04929 0.77956 0.0
H166 H 0.38702 0.10314 0.8434 0.0
H167 H 0.31987 0.10844 0.76578 0.0
Tb168 Tb 0.47612 0.54884 0.93178 0.0
C169 C 0.61925 0.66698 0.233 0.0
C170 C 0.62291 0.74331 0.18188 0.0
C171 C 0.64958 0.735 0.35175 0.0
C172 C 0.6107 0.69487 0.16057 0.0
C173 C 0.63973 0.68639 0.32941 0.0
C174 C 0.64118 0.76347 0.27795 0.0
C175 C 0.64285 0.60812 0.37266 0.0
N176 N 0.61008 0.62021 0.20777 0.0
C177 C 0.6227 0.59057 0.27587 0.0
C178 C 0.65098 0.65626 0.39977 0.0
Tb179 Tb 0.57664 0.59447 0.04724 0.0
N180 N 0.59403 0.67379 0.06892 0.0
C181 C 0.59188 0.69891 -0.00472 0.0
C182 C 0.61828 0.76956 0.10619 0.0
C183 C 0.60346 0.74715 0.01258 0.0
H184 H 0.61641 0.5533 0.25638 0.0
H185 H 0.60065 0.76703 0.95365 0.0
H186 H 0.65028 0.80075 0.29574 0.0
H187 H 0.652 0.58448 0.4263 0.0
H188 H 0.58025 0.68216 0.92242 0.0
H189 H 0.45414 0.37896 0.03923 0.0
H190 H 0.6272 0.80675 0.11979 0.0
H191 H 0.44101 0.58631 0.7176 0.0
H192 H 0.47567 0.46338 0.06471 0.0
H193 H 0.40726 0.5522 0.54864 0.0
H194 H 0.66492 0.75071 0.42545 0.0
H195 H 0.42383 0.33718 0.87483 0.0
H196 H 0.40011 0.34034 0.69738 0.0
H197 H 0.66676 0.66975 0.47469 0.0
H198 H 0.3878 0.38746 0.56352 0.0
N199 N 0.45867 0.46978 0.91615 0.0
C200 C 0.46252 0.44584 0.99243 0.0
C201 C 0.43338 0.37427 0.88562 0.0
C202 C 0.42816 0.39916 0.80765 0.0
C203 C 0.45033 0.3978 0.97841 0.0
C204 C 0.4409 0.44752 0.82557 0.0
H205 H 0.39009 0.46665 0.50732 0.0
N206 N 0.44445 0.52062 0.77212 0.0
C207 C 0.41467 0.52972 0.60478 0.0
C208 C 0.43383 0.47382 0.75071 0.0
C209 C 0.43372 0.54894 0.70083 0.0
C210 C 0.40515 0.48141 0.58172 0.0
C211 C 0.41405 0.45284 0.65517 0.0
O212 O 0.42814 0.58234 0.89751 0.0
O213 O 0.51937 0.60969 0.9926 0.0
O214 O 0.55253 0.60469 0.15209 0.0
O215 O 0.50049 0.54632 0.08802 0.0
O216 O 0.46982 0.61913 0.88697 0.0
O217 O 0.44057 0.53459 0.00255 0.0
O218 O 0.62508 0.56201 0.0779 0.0
O219 O 0.53326 0.5339 0.98787 0.0
O220 O 0.50164 0.53694 0.83071 0.0
O221 O 0.55107 0.5986 0.89139 0.0
O222 O 0.58333 0.52365 0.08847 0.0
O223 O 0.60991 0.60839 0.97059 0.0
C224 C 0.50214 0.6406 0.94531 0.0
C225 C 0.37599 0.53804 0.90795 0.0
C226 C 0.3135 0.52195 0.90999 0.0
C227 C 0.35179 0.54274 0.95485 0.0
C228 C 0.30023 0.49701 0.81787 0.0
C229 C 0.36134 0.51301 0.81614 0.0
C230 C 0.32393 0.49258 0.77182 0.0
C231 C 0.52539 0.57651 0.16008 0.0
C232 C 0.41607 0.56 0.95254 0.0
C233 C 0.40279 0.40435 0.63645 0.0
C234 C 0.40977 0.37754 0.71264 0.0
C235 C 0.55064 0.50246 0.03235 0.0
C236 C 0.67505 0.60631 0.0584 0.0
C237 C 0.70099 0.59071 0.0247 0.0
C238 C 0.73915 0.61162 0.06721 0.0
C239 C 0.75054 0.6486 0.14145 0.0
C240 C 0.68765 0.64324 0.13276 0.0
C241 C 0.72494 0.66435 0.1735 0.0
C242 C 0.52692 0.56731 0.82035 0.0
C243 C 0.6353 0.58362 0.01903 0.0
H244 H 0.36272 0.56223 0.02558 0.0
H245 H 0.27106 0.48161 0.77987 0.0
H246 H 0.37859 0.5098 0.77748 0.0
H247 H 0.3131 0.47364 0.70065 0.0
H248 H 0.69185 0.56193 0.96785 0.0
H249 H 0.77947 0.66541 0.17486 0.0
H250 H 0.6688 0.6556 0.16026 0.0
H251 H 0.73412 0.69281 0.23091 0.0
H252 H 1.02355 0.48224 0.70747 0.0
H253 H 1.02182 0.63087 0.73327 0.0
H254 H 0.0278 0.48554 0.55465 0.0
H255 H 0.02889 0.63488 0.58493 0.0
H256 H 1.00587 0.62489 0.27267 0.0
H257 H 0.9995 0.61967 0.42161 0.0
H258 H 0.0667 0.50751 0.47999 0.0
H259 H 0.07094 0.51093 0.32658 0.0
C260 C 1.02391 0.51561 0.68056 0.0
C261 C 1.02171 0.55611 0.73245 0.0
C262 C 0.02698 0.51768 0.59328 0.0
C263 C 0.02877 0.56052 0.5565 0.0
C264 C 0.02674 0.601 0.60899 0.0
C265 C 1.02287 0.59874 0.69501 0.0
C266 C 1.01948 0.59919 0.31728 0.0
C267 C 0.03896 0.56832 0.28752 0.0
C268 C 1.016 0.59635 0.40359 0.0
C269 C 0.03262 0.56321 0.46401 0.0
C270 C 0.05282 0.5329 0.43496 0.0
C271 C 0.05565 0.53515 0.34734 0.0
H272 H 0.47488 0.0912 0.21468 0.0
H273 H 0.5935 0.0805 0.33835 0.0
H274 H 0.47394 0.08898 0.37126 0.0
H275 H 0.59241 0.07868 0.49577 0.0
H276 H 0.49558 0.12918 0.68418 0.0
H277 H 0.49853 0.13578 0.53018 0.0
H278 H 0.56387 1.02218 0.57241 0.0
H279 H 0.56018 1.01488 0.72575 0.0
C280 C 0.50087 0.08879 0.2753 0.0
C281 C 0.53424 0.0857 0.26368 0.0
C282 C 0.50031 0.08774 0.3652 0.0
C283 C 0.53304 0.08339 0.44554 0.0
C284 C 0.56665 0.08144 0.43468 0.0
C285 C 0.5673 0.08284 0.34467 0.0
C286 C 0.51028 0.10533 0.66021 0.0
C287 C 0.528 0.0718 0.71736 0.0
C288 C 0.51207 0.10923 0.57221 0.0
C289 C 0.53171 0.07977 0.53974 0.0
C290 C 0.54919 1.04598 0.59659 0.0
C291 C 0.54714 1.04185 0.68433 0.0
H292 H 0.50537 0.49548 0.67616 0.0
H293 H 0.54591 0.64298 0.74557 0.0
H294 H 0.50479 0.49802 0.51763 0.0
H295 H 0.54294 0.64669 0.58542 0.0
H296 H 0.56831 0.63518 0.3251 0.0
H297 H 0.56983 0.63136 0.48326 0.0
H298 H 0.47656 0.51878 0.36701 0.0
H299 H 0.47796 0.51962 0.21084 0.0
C300 C 0.51388 0.52856 0.65699 0.0
C301 C 0.52615 0.56889 0.72358 0.0
C302 C 0.51319 0.53025 0.56549 0.0
C303 C 0.52391 0.57261 0.53735 0.0
C304 C 0.53546 0.61309 0.60418 0.0
C305 C 0.53699 0.61111 0.69631 0.0
C306 C 0.54878 0.60882 0.33364 0.0
C307 C 0.52395 0.57676 0.25538 0.0
C308 C 0.54903 0.60721 0.42459 0.0
C309 C 0.52343 0.57452 0.43956 0.0
C310 C 0.49752 0.54363 0.36003 0.0
C311 C 0.498 0.54447 0.26957 0.0
H312 H 0.16794 0.59768 0.19543 0.0
H313 H 0.09704 0.52285 0.91729 0.0
H314 H 0.22365 0.58375 0.16945 0.0
H315 H 0.15227 0.50778 0.89247 0.0
H316 H 0.25877 0.45485 0.9087 0.0
H317 H 0.20745 0.46468 0.95504 0.0
H318 H 0.25441 0.60889 0.06046 0.0
H319 H 0.30567 0.59939 0.0118 0.0
C320 C 0.16419 0.57753 0.12942 0.0
C321 C 0.12781 0.56055 0.05942 0.0
C322 C 0.19614 0.56981 0.11433 0.0
C323 C 0.19259 0.54454 0.02897 0.0
C324 C 0.1562 0.52684 0.9597 0.0
C325 C 0.12431 0.53527 0.97416 0.0
C326 C 0.25835 0.48876 0.94193 0.0
C327 C 0.28623 0.52656 0.95475 0.0
C328 C 0.2288 0.49434 0.96849 0.0
C329 C 0.22635 0.53774 0.01011 0.0
C330 C 0.25541 0.57491 0.02867 0.0
C331 C 0.28494 0.56943 0.00111 0.0
H332 H 0.77223 0.17572 0.24056 0.0
H333 H 0.73618 0.31078 0.19349 0.0
H334 H 0.82624 0.20116 0.20834 0.0
H335 H 0.79174 0.33737 0.16768 0.0
H336 H 0.87057 0.35323 0.01723 0.0
H337 H 0.81698 0.3288 0.05307 0.0
H338 H 0.8849 0.24832 0.26708 0.0
H339 H 0.93801 0.27167 0.22846 0.0
C340 C 0.77589 0.211 0.22385 0.0
C341 C 0.74947 0.24097 0.21875 0.0
C342 C 0.8073 0.22587 0.20667 0.0
C343 C 0.81353 0.27138 0.185 0.0
C344 C 0.78765 0.30182 0.18249 0.0
C345 C 0.756 0.28678 0.19885 0.0
C346 C 0.87399 0.33038 0.07207 0.0
C347 C 0.90846 0.31426 0.11985 0.0
C348 C 0.84332 0.31655 0.09313 0.0
C349 C 0.84644 0.2866 0.16335 0.0
C350 C 0.8811 0.27071 0.21143 0.0
C351 C 0.91164 0.28414 0.18952 0.0
H352 H 0.53643 0.93252 0.83917 0.0
H353 H 0.50056 0.94027 0.06871 0.0
H354 H 0.53946 0.84927 0.84901 0.0
H355 H 0.50211 0.85651 0.07719 0.0
H356 H 0.5276 0.70545 0.10768 0.0
H357 H 0.53475 0.79101 0.11476 0.0
H358 H 0.50024 0.77802 0.80827 0.0
H359 H 0.49406 0.69351 0.8027 0.0
C360 C 0.52966 0.91643 0.89277 0.0
C361 C 0.51949 0.94348 0.95524 0.0
C362 C 0.5309 0.86833 0.89785 0.0
C363 C 0.52077 0.84509 0.96359 0.0
C364 C 0.51074 0.87255 0.02651 0.0
C365 C 0.50983 0.92081 0.02181 0.0
C366 C 0.52247 0.72114 0.04245 0.0
C367 C 0.51166 0.69255 0.9551 0.0
C368 C 0.52598 0.77034 0.046 0.0
C369 C 0.5185 0.79243 0.96216 0.0
C370 C 0.50738 0.76328 0.8751 0.0
C371 C 0.50367 0.71444 0.87163 0.0
H372 H 0.89333 0.53377 0.81222 0.0
H373 H 0.96124 0.59488 0.10331 0.0
H374 H 0.83651 0.54491 0.83474 0.0
H375 H 0.90529 0.6083 0.12494 0.0
H376 H 0.80233 0.5789 0.18029 0.0
H377 H 0.85579 0.56509 0.14581 0.0
H378 H 0.79705 0.59793 0.85732 0.0
H379 H 0.74278 0.61022 0.89203 0.0
C380 C 0.89617 0.55056 0.88043 0.0
C381 C 0.93203 0.56417 0.9554 0.0
C382 C 0.86358 0.55709 0.89335 0.0
C383 C 0.86596 0.5771 0.9821 0.0
C384 C 0.90199 0.59181 0.05612 0.0
C385 C 0.93442 0.58492 0.04328 0.0
C386 C 0.8006 0.58229 0.10893 0.0
C387 C 0.76832 0.59543 0.03878 0.0
C388 C 0.83151 0.57506 0.08938 0.0
C389 C 0.83139 0.58137 -0.00074 0.0
C390 C 0.79832 0.59259 0.92749 0.0
C391 C 0.76709 0.59946 0.94704 0.0
H392 H 0.18113 0.79943 0.03124 0.0
H393 H 0.10495 0.88579 0.85344 0.0
H394 H 0.23255 0.84142 0.00438 0.0
H395 H 0.15634 0.92848 0.82899 0.0
H396 H 0.31941 0.96986 0.02636 0.0
H397 H 0.27022 0.91968 0.04767 0.0
H398 H 0.19744 0.91726 0.74812 0.0
H399 H 0.24651 0.96732 0.72688 0.0
C400 C 0.17534 0.82724 0.98617 0.0
C401 C 0.13897 0.83935 0.94461 0.0
C402 C 0.20484 0.85153 0.9715 0.0
C403 C 0.19852 0.88821 0.91437 0.0
C404 C 0.16208 0.90002 0.87236 0.0
C405 C 0.1327 0.87593 0.88735 0.0
C406 C 0.29315 0.9579 0.96473 0.0
C407 C 0.28671 0.97298 0.87516 0.0
C408 C 0.26495 0.92918 0.97695 0.0
C409 C 0.22975 0.91496 0.89984 0.0
C410 C 0.22395 0.92845 0.80943 0.0
C411 C 0.25208 0.95708 0.79724 0.0
H412 H 0.51811 0.44109 0.86309 0.0
H413 H 0.56872 0.4457 0.16976 0.0
H414 H 0.51202 0.35608 0.84648 0.0
H415 H 0.56676 0.36241 0.15569 0.0
H416 H 0.5526 0.20683 0.12973 0.0
H417 H 0.54709 0.28906 0.13894 0.0
H418 H 0.53021 0.28739 0.84207 0.0
H419 H 0.53241 0.20392 0.83301 0.0
C420 C 0.52728 0.42376 0.92713 0.0
C421 C 0.54212 0.45026 0.01786 0.0
C422 C 0.52477 0.37453 0.91809 0.0
C423 C 0.53865 0.35013 -0.00042 0.0
C424 C 0.55424 0.37766 0.09001 0.0
C425 C 0.55573 0.42634 0.09867 0.0
C426 C 0.5466 0.22401 0.06586 0.0
C427 C 0.54113 0.19823 0.97953 0.0
C428 C 0.54427 0.27211 0.0712 0.0
C429 C 0.5384 0.29718 0.99148 0.0
C430 C 0.53383 0.27085 0.90538 0.0
C431 C 0.53526 0.22243 0.89978 0.0
loop_
_geom_bond_atom_site_label_1
_geom_bond_atom_site_label_2
_geom_bond_distance
_geom_bond_site_symmetry_2
_ccdc_geom_bond_type
Tb0 N31 2.660 1_656 S
Tb0 N38 2.600 . S
Tb0 O44 2.546 . S
Tb0 O45 2.610 . S
Tb0 O47 2.319 1_556 S
Tb0 O48 2.552 . S
Tb0 O49 2.413 1_556 S
Tb0 O51 2.362 1_656 S
Tb0 O52 2.421 . S
Tb0 C64 2.833 . S
C1 C4 1.432 . S
C1 C5 1.414 . S
C1 N8 1.359 1_655 S
C2 C4 1.417 1_556 S
C2 C6 1.432 1_556 S
C2 C14 1.410 . S
C3 C5 1.444 . S
C3 C6 1.317 . S
C3 H26 0.929 . S
C4 C1 1.432 . S
C4 C2 1.417 1_554 S
C4 N12 1.360 1_554 S
C5 C1 1.414 . S
C5 C3 1.444 . S
C5 C10 1.385 1_655 S
C6 C2 1.432 1_554 S
C6 C3 1.317 . S
C6 H18 0.930 1_554 S
C7 C9 1.392 . S
C7 C10 1.370 . S
C7 H19 0.931 . S
N8 C1 1.359 1_455 S
N8 C9 1.327 . S
N8 Tb11 2.600 . S
C9 C7 1.392 . S
C9 N8 1.327 . S
C9 H16 0.930 . S
C10 C5 1.385 1_455 S
C10 C7 1.370 . S
C10 H29 0.930 . S
Tb11 N8 2.600 . S
Tb11 N12 2.660 1_454 S
Tb11 O45 2.362 1_454 S
Tb11 O46 2.421 . S
Tb11 O50 2.546 . S
Tb11 O51 2.610 . S
Tb11 O53 2.320 1_554 S
Tb11 O54 2.552 . S
Tb11 O55 2.413 1_554 S
Tb11 C75 2.833 . S
N12 C4 1.360 1_556 S
N12 Tb11 2.660 1_656 S
N12 C13 1.305 . S
C13 N12 1.305 . S
C13 C15 1.407 . S
C13 H20 0.930 . S
C14 C2 1.410 . S
C14 C15 1.345 . S
C14 H22 0.930 . S
C15 C13 1.407 . S
C15 C14 1.345 . S
C15 H17 0.930 . S
H16 C9 0.930 . S
H17 C15 0.930 . S
H18 C6 0.930 1_556 S
H19 C7 0.931 . S
H20 C13 0.930 . S
H21 C35 0.930 . S
H22 C14 0.930 . S
H23 C41 0.930 . S
H24 C32 0.930 . S
H25 C39 0.931 . S
H26 C3 0.929 . S
H27 C33 0.930 . S
H28 C66 0.930 1_554 S
H29 C10 0.930 . S
H30 C65 0.929 . S
N31 Tb0 2.660 1_454 S
N31 C32 1.305 . S
N31 C36 1.352 1_554 S
C32 H24 0.930 . S
C32 N31 1.305 . S
C32 C35 1.407 . S
C33 H27 0.930 . S
C33 C34 1.410 . S
C33 C35 1.345 . S
C34 C33 1.410 . S
C34 C36 1.415 1_554 S
C34 C66 1.432 1_554 S
C35 H21 0.930 . S
C35 C32 1.407 . S
C35 C33 1.345 . S
C36 N31 1.352 1_556 S
C36 C34 1.415 1_556 S
C36 C40 1.442 . S
H37 C42 0.932 . S
N38 Tb0 2.600 . S
N38 C40 1.359 1_655 S
N38 C41 1.327 . S
C39 H25 0.931 . S
C39 C41 1.392 . S
C39 C42 1.370 . S
C40 C36 1.442 . S
C40 N38 1.359 1_455 S
C40 C43 1.414 . S
C41 H23 0.930 . S
C41 N38 1.327 . S
C41 C39 1.392 . S
C42 H37 0.932 . S
C42 C39 1.370 . S
C42 C43 1.385 1_655 S
C43 C40 1.414 . S
C43 C42 1.385 1_455 S
C43 C65 1.444 . S
O44 Tb0 2.546 . S
O44 C64 1.251 . S
O45 Tb0 2.610 . S
O45 Tb11 2.362 1_656 S
O45 C56 1.283 . S
O46 Tb11 2.421 . S
O46 C63 1.262 . S
O47 Tb0 2.319 1_554 S
O47 C63 1.261 1_655 S
O48 Tb0 2.552 . S
O48 C56 1.243 . S
O49 Tb0 2.413 1_554 S
O49 C64 1.256 1_554 S
O50 Tb11 2.546 . S
O50 C75 1.251 . S
O51 Tb0 2.362 1_454 S
O51 Tb11 2.610 . S
O51 C67 1.283 . S
O52 Tb0 2.421 . S
O52 C74 1.262 . S
O53 Tb11 2.320 1_556 S
O53 C74 1.260 1_455 S
O54 Tb11 2.552 . S
O54 C67 1.243 . S
O55 Tb11 2.413 1_556 S
O55 C75 1.256 1_556 S
C56 O45 1.283 . S
C56 O48 1.243 . S
C57 C59 1.383 . S
C57 C61 1.393 . S
C57 C64 1.500 . S
C58 C59 1.400 . S
C58 C60 1.384 . S
C59 C57 1.383 . S
C59 C58 1.400 . S
C59 H76 0.930 1_556 S
C60 C58 1.384 . S
C60 C62 1.392 . S
C60 H77 0.931 . S
C61 C57 1.393 . S
C61 C62 1.401 . S
C61 H78 0.930 . S
C62 C60 1.392 . S
C62 C61 1.401 . S
C62 H79 0.930 . S
C63 O46 1.262 . S
C63 O47 1.261 1_455 S
C64 Tb0 2.833 . S
C64 O44 1.251 . S
C64 O49 1.256 1_556 S
C64 C57 1.500 . S
C65 H30 0.929 . S
C65 C43 1.444 . S
C65 C66 1.317 . S
C66 H28 0.930 1_556 S
C66 C34 1.432 1_556 S
C66 C65 1.317 . S
C67 O51 1.283 . S
C67 O54 1.243 . S
C68 C69 1.382 . S
C68 C72 1.393 . S
C68 C75 1.500 . S
C69 C68 1.382 . S
C69 C70 1.400 . S
C69 H80 0.930 1_554 S
C70 C69 1.400 . S
C70 C71 1.384 . S
C71 C70 1.384 . S
C71 C73 1.392 . S
C71 H81 0.931 . S
C72 C68 1.393 . S
C72 C73 1.401 . S
C72 H82 0.930 . S
C73 C71 1.392 . S
C73 C72 1.401 . S
C73 H83 0.930 . S
C74 O52 1.262 . S
C74 O53 1.260 1_655 S
C75 Tb11 2.833 . S
C75 O50 1.251 . S
C75 O55 1.256 1_554 S
C75 C68 1.500 . S
H76 C59 0.930 1_554 S
H77 C60 0.931 . S
H78 C61 0.930 . S
H79 C62 0.930 . S
H80 C69 0.930 1_556 S
H81 C71 0.931 . S
H82 C72 0.930 . S
H83 C73 0.930 . S
Tb84 N115 2.660 1_545 S
Tb84 N122 2.600 1_545 S
Tb84 O128 2.546 . S
Tb84 O129 2.610 1_554 S
Tb84 O131 2.320 1_554 S
Tb84 O132 2.552 . S
Tb84 O133 2.413 . S
Tb84 O135 2.362 1_545 S
Tb84 O136 2.421 . S
Tb84 C148 2.833 . S
C85 C88 1.432 . S
C85 C89 1.414 . S
C85 N92 1.359 . S
C86 C88 1.417 . S
C86 C90 1.432 . S
C86 C98 1.410 1_556 S
C87 C89 1.444 . S
C87 C90 1.317 . S
C87 H110 0.929 . S
C88 C85 1.432 . S
C88 C86 1.417 . S
C88 N96 1.360 . S
C89 C85 1.414 . S
C89 C87 1.444 . S
C89 C94 1.385 . S
C90 C86 1.432 . S
C90 C87 1.317 . S
C90 H102 0.930 . S
C91 C93 1.392 1_545 S
C91 C94 1.370 . S
C91 H103 0.931 1_545 S
N92 C85 1.359 . S
N92 C93 1.327 1_545 S
N92 Tb95 2.600 1_545 S
C93 C91 1.392 1_565 S
C93 N92 1.327 1_565 S
C93 H100 0.930 . S
C94 C89 1.385 . S
C94 C91 1.370 . S
C94 H113 0.930 . S
Tb95 N92 2.600 1_565 S
Tb95 N96 2.660 1_565 S
Tb95 O129 2.362 1_565 S
Tb95 O130 2.421 . S
Tb95 O134 2.546 . S
Tb95 O135 2.610 1_556 S
Tb95 O137 2.320 1_556 S
Tb95 O138 2.552 . S
Tb95 O139 2.413 . S
Tb95 C159 2.833 . S
N96 C88 1.360 . S
N96 Tb95 2.660 1_545 S
N96 C97 1.305 1_556 S
C97 N96 1.305 1_554 S
C97 C99 1.407 . S
C97 H104 0.930 . S
C98 C86 1.410 1_554 S
C98 C99 1.345 . S
C98 H106 0.930 . S
C99 C97 1.407 . S
C99 C98 1.345 . S
C99 H101 0.930 . S
H100 C93 0.930 . S
H101 C99 0.930 . S
H102 C90 0.930 . S
H103 C91 0.931 1_565 S
H104 C97 0.930 . S
H105 C119 0.930 . S
H106 C98 0.930 . S
H107 C125 0.930 . S
H108 C116 0.930 . S
H109 C123 0.939 . S
H110 C87 0.929 . S
H111 C117 0.930 . S
H112 C150 0.930 . S
H113 C94 0.930 . S
H114 C149 0.929 . S
N115 Tb84 2.660 1_565 S
N115 C116 1.305 1_554 S
N115 C120 1.360 . S
C116 H108 0.930 . S
C116 N115 1.305 1_556 S
C116 C119 1.407 . S
C117 H111 0.930 . S
C117 C118 1.410 1_556 S
C117 C119 1.345 . S
C118 C117 1.410 1_554 S
C118 C120 1.417 . S
C118 C150 1.432 . S
C119 H105 0.930 . S
C119 C116 1.407 . S
C119 C117 1.345 . S
C120 N115 1.360 . S
C120 C118 1.417 . S
C120 C124 1.432 . S
H121 C126 0.930 . S
N122 Tb84 2.600 1_565 S
N122 C124 1.359 . S
N122 C125 1.327 1_565 S
C123 H109 0.939 . S
C123 C125 1.402 . S
C123 C126 1.352 1_545 S
C124 C120 1.432 . S
C124 N122 1.359 . S
C124 C127 1.414 . S
C125 H107 0.930 . S
C125 N122 1.327 1_545 S
C125 C123 1.402 . S
C126 H121 0.930 . S
C126 C123 1.352 1_565 S
C126 C127 1.385 . S
C127 C124 1.414 . S
C127 C126 1.385 . S
C127 C149 1.444 . S
O128 Tb84 2.546 . S
O128 C148 1.251 . S
O129 Tb84 2.610 1_556 S
O129 Tb95 2.362 1_545 S
O129 C140 1.283 . S
O130 Tb95 2.421 . S
O130 C147 1.262 1_565 S
O131 Tb84 2.320 1_556 S
O131 C147 1.260 . S
O132 Tb84 2.552 . S
O132 C140 1.243 1_554 S
O133 Tb84 2.413 . S
O133 C148 1.256 . S
O134 Tb95 2.546 . S
O134 C159 1.251 . S
O135 Tb84 2.362 1_565 S
O135 Tb95 2.610 1_554 S
O135 C151 1.283 . S
O136 Tb84 2.421 . S
O136 C158 1.262 . S
O137 Tb95 2.320 1_554 S
O137 C158 1.260 1_565 S
O138 Tb95 2.552 . S
O138 C151 1.243 1_556 S
O139 Tb95 2.413 . S
O139 C159 1.256 . S
C140 O129 1.283 . S
C140 O132 1.243 1_556 S
C141 C143 1.382 . S
C141 C145 1.393 . S
C141 C148 1.500 . S
C142 C143 1.400 . S
C142 C144 1.384 . S
C143 C141 1.382 . S
C143 C142 1.400 . S
C143 H160 0.930 1_554 S
C144 C142 1.384 . S
C144 C146 1.392 . S
C144 H161 0.931 . S
C145 C141 1.393 . S
C145 C146 1.401 . S
C145 H162 0.930 . S
C146 C144 1.392 . S
C146 C145 1.401 . S
C146 H163 0.930 . S
C147 O130 1.262 1_545 S
C147 O131 1.260 . S
C148 Tb84 2.833 . S
C148 O128 1.251 . S
C148 O133 1.256 . S
C148 C141 1.500 . S
C149 H114 0.929 . S
C149 C127 1.444 . S
C149 C150 1.317 . S
C150 H112 0.930 . S
C150 C118 1.432 . S
C150 C149 1.317 . S
C151 O135 1.283 . S
C151 O138 1.243 1_554 S
C152 C153 1.382 . S
C152 C156 1.393 . S
C152 C159 1.500 . S
C153 C152 1.382 . S
C153 C154 1.400 . S
C153 H164 0.930 1_556 S
C154 C153 1.400 . S
C154 C155 1.384 . S
C155 C154 1.384 . S
C155 C157 1.392 . S
C155 H165 0.931 . S
C156 C152 1.393 . S
C156 C157 1.401 . S
C156 H166 0.930 . S
C157 C155 1.392 . S
C157 C156 1.401 . S
C157 H167 0.930 . S
C158 O136 1.262 . S
C158 O137 1.260 1_545 S
C159 Tb95 2.833 . S
C159 O134 1.251 . S
C159 O139 1.256 . S
C159 C152 1.500 . S
H160 C143 0.930 1_556 S
H161 C144 0.931 . S
H162 C145 0.930 . S
H163 C146 0.930 . S
H164 C153 0.930 1_554 S
H165 C155 0.931 . S
H166 C156 0.930 . S
H167 C157 0.930 . S
Tb168 N199 2.660 . S
Tb168 N206 2.600 . S
Tb168 O212 2.546 . S
Tb168 O213 2.610 1_556 S
Tb168 O215 2.320 1_556 S
Tb168 O216 2.552 . S
Tb168 O217 2.413 . S
Tb168 O219 2.362 . S
Tb168 O220 2.421 . S
Tb168 C232 2.833 . S
C169 C172 1.432 . S
C169 C173 1.414 . S
C169 N176 1.359 . S
C170 C172 1.417 . S
C170 C174 1.432 . S
C170 C182 1.410 1_554 S
C171 C173 1.444 . S
C171 C174 1.317 . S
C171 H194 0.929 . S
C172 C169 1.432 . S
C172 C170 1.417 . S
C172 N180 1.360 . S
C173 C169 1.414 . S
C173 C171 1.444 . S
C173 C178 1.385 . S
C174 C170 1.432 . S
C174 C171 1.317 . S
C174 H186 0.930 . S
C175 C177 1.392 . S
C175 C178 1.370 . S
C175 H187 0.931 . S
N176 C169 1.359 . S
N176 C177 1.327 . S
N176 Tb179 2.600 . S
C177 C175 1.392 . S
C177 N176 1.327 . S
C177 H184 0.930 . S
C178 C173 1.385 . S
C178 C175 1.370 . S
C178 H197 0.930 . S
Tb179 N176 2.600 . S
Tb179 N180 2.660 . S
Tb179 O213 2.362 . S
Tb179 O214 2.421 . S
Tb179 O218 2.546 . S
Tb179 O219 2.610 1_554 S
Tb179 O221 2.320 1_554 S
Tb179 O222 2.552 . S
Tb179 O223 2.413 . S
Tb179 C243 2.833 . S
N180 C172 1.360 . S
N180 Tb179 2.660 . S
N180 C181 1.305 1_554 S
C181 N180 1.305 1_556 S
C181 C183 1.407 . S
C181 H188 0.930 . S
C182 C170 1.410 1_556 S
C182 C183 1.345 . S
C182 H190 0.930 . S
C183 C181 1.407 . S
C183 C182 1.345 . S
C183 H185 0.930 . S
H184 C177 0.930 . S
H185 C183 0.930 . S
H186 C174 0.930 . S
H187 C175 0.931 . S
H188 C181 0.930 . S
H189 C203 0.930 . S
H190 C182 0.930 . S
H191 C209 0.930 . S
H192 C200 0.930 . S
H193 C207 0.931 . S
H194 C171 0.929 . S
H195 C201 0.930 . S
H196 C234 0.930 . S
H197 C178 0.930 . S
H198 C233 0.929 . S
N199 Tb168 2.660 . S
N199 C200 1.305 1_556 S
N199 C204 1.360 . S
C200 H192 0.930 . S
C200 N199 1.305 1_554 S
C200 C203 1.407 . S
C201 H195 0.930 . S
C201 C202 1.410 1_554 S
C201 C203 1.345 . S
C202 C201 1.410 1_556 S
C202 C204 1.417 . S
C202 C234 1.432 . S
C203 H189 0.930 . S
C203 C200 1.407 . S
C203 C201 1.345 . S
C204 N199 1.360 . S
C204 C202 1.417 . S
C204 C208 1.432 . S
H205 C210 0.930 . S
N206 Tb168 2.600 . S
N206 C208 1.359 . S
N206 C209 1.327 . S
C207 H193 0.931 . S
C207 C209 1.392 . S
C207 C210 1.370 . S
C208 C204 1.432 . S
C208 N206 1.359 . S
C208 C211 1.414 . S
C209 H191 0.930 . S
C209 N206 1.327 . S
C209 C207 1.392 . S
C210 H205 0.930 . S
C210 C207 1.370 . S
C210 C211 1.385 . S
C211 C208 1.414 . S
C211 C210 1.385 . S
C211 C233 1.444 . S
O212 Tb168 2.546 . S
O212 C232 1.251 . S
O213 Tb168 2.610 1_554 S
O213 Tb179 2.362 . S
O213 C224 1.283 . S
O214 Tb179 2.421 . S
O214 C231 1.262 . S
O215 Tb168 2.320 1_554 S
O215 C231 1.260 . S
O216 Tb168 2.552 . S
O216 C224 1.243 1_556 S
O217 Tb168 2.413 . S
O217 C232 1.256 . S
O218 Tb179 2.546 . S
O218 C243 1.251 . S
O219 Tb168 2.362 . S
O219 Tb179 2.610 1_556 S
O219 C235 1.283 . S
O220 Tb168 2.421 . S
O220 C242 1.262 . S
O221 Tb179 2.320 1_556 S
O221 C242 1.260 . S
O222 Tb179 2.552 . S
O222 C235 1.243 1_554 S
O223 Tb179 2.413 . S
O223 C243 1.256 . S
C224 O213 1.283 . S
C224 O216 1.243 1_554 S
C225 C227 1.382 . S
C225 C229 1.393 . S
C225 C232 1.500 . S
C226 C227 1.400 . S
C226 C228 1.384 . S
C227 C225 1.382 . S
C227 C226 1.400 . S
C227 H244 0.930 1_556 S
C228 C226 1.384 . S
C228 C230 1.392 . S
C228 H245 0.931 . S
C229 C225 1.393 . S
C229 C230 1.401 . S
C229 H246 0.930 . S
C230 C228 1.392 . S
C230 C229 1.401 . S
C230 H247 0.930 . S
C231 O214 1.262 . S
C231 O215 1.260 . S
C232 Tb168 2.833 . S
C232 O212 1.251 . S
C232 O217 1.256 . S
C232 C225 1.500 . S
C233 H198 0.929 . S
C233 C211 1.444 . S
C233 C234 1.317 . S
C234 H196 0.930 . S
C234 C202 1.432 . S
C234 C233 1.317 . S
C235 O219 1.283 . S
C235 O222 1.243 1_556 S
C236 C237 1.382 . S
C236 C240 1.393 . S
C236 C243 1.500 . S
C237 C236 1.382 . S
C237 C238 1.400 . S
C237 H248 0.930 1_554 S
C238 C237 1.400 . S
C238 C239 1.384 . S
C239 C238 1.384 . S
C239 C241 1.392 . S
C239 H249 0.931 . S
C240 C236 1.393 . S
C240 C241 1.401 . S
C240 H250 0.930 . S
C241 C239 1.392 . S
C241 C240 1.401 . S
C241 H251 0.930 . S
C242 O220 1.262 . S
C242 O221 1.260 . S
C243 Tb179 2.833 . S
C243 O218 1.251 . S
C243 O223 1.256 . S
C243 C236 1.500 . S
H244 C227 0.930 1_554 S
H245 C228 0.931 . S
H246 C229 0.930 . S
H247 C230 0.930 . S
H248 C237 0.930 1_556 S
H249 C239 0.931 . S
H250 C240 0.930 . S
H251 C241 0.930 . S
H252 C260 0.950 . S
H253 C265 0.950 . S
H254 C262 0.950 . S
H255 C264 0.950 . S
H256 C266 0.950 . S
H257 C268 0.950 . S
H258 C270 0.950 . S
H259 C271 0.950 . S
C260 H252 0.950 . S
C260 C261 1.386 1_455 S
C260 C262 1.391 . S
C261 C260 1.386 1_655 S
C261 C265 1.393 . S
C262 H254 0.950 . S
C262 C260 1.391 . S
C262 C263 1.397 1_455 S
C263 C262 1.397 1_655 S
C263 C264 1.410 . S
C263 C269 1.482 1_655 S
C264 H255 0.950 . S
C264 C263 1.410 . S
C264 C265 1.391 . S
C265 H253 0.950 . S
C265 C261 1.393 . S
C265 C264 1.391 . S
C266 H256 0.950 . S
C266 C267 1.386 1_655 S
C266 C268 1.391 . S
C267 C266 1.386 1_455 S
C267 C271 1.393 . S
C268 H257 0.950 . S
C268 C266 1.391 . S
C268 C269 1.400 1_655 S
C269 C263 1.482 1_455 S
C269 C268 1.400 1_455 S
C269 C270 1.398 . S
C270 H258 0.950 . S
C270 C269 1.398 . S
C270 C271 1.391 . S
C271 H259 0.950 . S
C271 C267 1.393 . S
C271 C270 1.391 . S
H272 C280 0.950 . S
H273 C285 0.950 . S
H274 C282 0.950 . S
H275 C284 0.950 . S
H276 C286 0.950 . S
H277 C288 0.950 . S
H278 C290 0.950 . S
H279 C291 0.955 . S
C280 H272 0.950 . S
C280 C281 1.386 . S
C280 C282 1.391 . S
C281 C280 1.386 . S
C281 C285 1.393 1_565 S
C282 H274 0.950 . S
C282 C280 1.391 . S
C282 C283 1.398 1_565 S
C283 C282 1.398 1_545 S
C283 C284 1.401 . S
C283 C289 1.490 . S
C284 H275 0.950 . S
C284 C283 1.401 . S
C284 C285 1.391 . S
C285 H273 0.950 . S
C285 C281 1.393 1_545 S
C285 C284 1.391 . S
C286 H276 0.950 . S
C286 C287 1.386 . S
C286 C288 1.391 . S
C287 C286 1.386 . S
C287 C291 1.387 1_545 S
C288 H277 0.950 . S
C288 C286 1.391 . S
C288 C289 1.400 . S
C289 C283 1.490 . S
C289 C288 1.400 . S
C289 C290 1.398 1_545 S
C290 H278 0.950 . S
C290 C289 1.398 1_565 S
C290 C291 1.391 . S
C291 H279 0.955 . S
C291 C287 1.387 1_565 S
C291 C290 1.391 . S
H292 C300 0.950 . S
H293 C305 0.950 . S
H294 C302 0.950 . S
H295 C304 0.950 . S
H296 C306 0.950 . S
H297 C308 0.950 . S
H298 C310 0.950 . S
H299 C311 0.950 . S
C300 H292 0.950 . S
C300 C301 1.386 . S
C300 C302 1.391 . S
C301 C300 1.386 . S
C301 C305 1.393 . S
C302 H294 0.950 . S
C302 C300 1.391 . S
C302 C303 1.400 . S
C303 C302 1.400 . S
C303 C304 1.398 . S
C303 C309 1.491 . S
C304 H295 0.950 . S
C304 C303 1.398 . S
C304 C305 1.391 . S
C305 H293 0.950 . S
C305 C301 1.393 . S
C305 C304 1.391 . S
C306 H296 0.950 . S
C306 C307 1.386 . S
C306 C308 1.391 . S
C307 C306 1.386 . S
C307 C311 1.393 . S
C308 H297 0.950 . S
C308 C306 1.391 . S
C308 C309 1.400 . S
C309 C303 1.491 . S
C309 C308 1.400 . S
C309 C310 1.398 . S
C310 H298 0.950 . S
C310 C309 1.398 . S
C310 C311 1.391 . S
C311 H299 0.950 . S
C311 C307 1.393 . S
C311 C310 1.391 . S
H312 C320 0.950 . S
H313 C325 0.950 . S
H314 C322 0.950 . S
H315 C324 0.950 . S
H316 C326 0.950 . S
H317 C328 0.950 . S
H318 C330 0.950 . S
H319 C331 0.950 . S
C320 H312 0.950 . S
C320 C321 1.386 . S
C320 C322 1.391 . S
C321 C320 1.386 . S
C321 C325 1.393 1_554 S
C322 H314 0.950 . S
C322 C320 1.391 . S
C322 C323 1.400 . S
C323 C322 1.400 . S
C323 C324 1.398 1_554 S
C323 C329 1.491 . S
C324 H315 0.950 . S
C324 C323 1.398 1_556 S
C324 C325 1.391 . S
C325 H313 0.950 . S
C325 C321 1.393 1_556 S
C325 C324 1.391 . S
C326 H316 0.950 . S
C326 C327 1.386 . S
C326 C328 1.391 . S
C327 C326 1.386 . S
C327 C331 1.393 1_556 S
C328 H317 0.950 . S
C328 C326 1.391 . S
C328 C329 1.400 1_556 S
C329 C323 1.491 . S
C329 C328 1.400 1_554 S
C329 C330 1.398 . S
C330 H318 0.950 . S
C330 C329 1.398 . S
C330 C331 1.391 . S
C331 H319 0.950 . S
C331 C327 1.393 1_554 S
C331 C330 1.391 . S
H332 C340 0.950 . S
H333 C345 0.950 . S
H334 C342 0.950 . S
H335 C344 0.950 . S
H336 C346 0.950 . S
H337 C348 0.950 . S
H338 C350 0.950 . S
H339 C351 0.950 . S
C340 H332 0.950 . S
C340 C341 1.386 . S
C340 C342 1.391 . S
C341 C340 1.386 . S
C341 C345 1.393 . S
C342 H334 0.950 . S
C342 C340 1.391 . S
C342 C343 1.400 . S
C343 C342 1.400 . S
C343 C344 1.398 . S
C343 C349 1.491 . S
C344 H335 0.950 . S
C344 C343 1.398 . S
C344 C345 1.391 . S
C345 H333 0.950 . S
C345 C341 1.393 . S
C345 C344 1.391 . S
C346 H336 0.950 . S
C346 C347 1.386 . S
C346 C348 1.391 . S
C347 C346 1.386 . S
C347 C351 1.393 . S
C348 H337 0.950 . S
C348 C346 1.391 . S
C348 C349 1.400 . S
C349 C343 1.491 . S
C349 C348 1.400 . S
C349 C350 1.398 . S
C350 H338 0.950 . S
C350 C349 1.398 . S
C350 C351 1.391 . S
C351 H339 0.950 . S
C351 C347 1.393 . S
C351 C350 1.391 . S
H352 C360 0.950 . S
H353 C365 0.950 . S
H354 C362 0.950 . S
H355 C364 0.950 . S
H356 C366 0.950 . S
H357 C368 0.950 . S
H358 C370 0.950 . S
H359 C371 0.950 . S
C360 H352 0.950 . S
C360 C361 1.386 1_556 S
C360 C362 1.391 . S
C361 C360 1.386 1_554 S
C361 C365 1.393 . S
C362 H354 0.950 . S
C362 C360 1.391 . S
C362 C363 1.400 1_556 S
C363 C362 1.400 1_554 S
C363 C364 1.398 . S
C363 C369 1.491 . S
C364 H355 0.950 . S
C364 C363 1.398 . S
C364 C365 1.391 . S
C365 H353 0.950 . S
C365 C361 1.393 . S
C365 C364 1.391 . S
C366 H356 0.950 . S
C366 C367 1.386 . S
C366 C368 1.391 . S
C367 C366 1.386 . S
C367 C371 1.393 1_554 S
C368 H357 0.950 . S
C368 C366 1.391 . S
C368 C369 1.400 . S
C369 C363 1.491 . S
C369 C368 1.400 . S
C369 C370 1.398 1_554 S
C370 H358 0.950 . S
C370 C369 1.398 1_556 S
C370 C371 1.391 . S
C371 H359 0.950 . S
C371 C367 1.393 1_556 S
C371 C370 1.391 . S
H372 C380 0.950 . S
H373 C385 0.950 . S
H374 C382 0.950 . S
H375 C384 0.950 . S
H376 C386 0.950 . S
H377 C388 0.950 . S
H378 C390 0.950 . S
H379 C391 0.950 . S
C380 H372 0.950 . S
C380 C381 1.386 . S
C380 C382 1.391 . S
C381 C380 1.386 . S
C381 C385 1.393 1_556 S
C382 H374 0.950 . S
C382 C380 1.391 . S
C382 C383 1.400 . S
C383 C382 1.400 . S
C383 C384 1.398 1_556 S
C383 C389 1.491 . S
C384 H375 0.950 . S
C384 C383 1.398 1_554 S
C384 C385 1.391 . S
C385 H373 0.950 . S
C385 C381 1.393 1_554 S
C385 C384 1.391 . S
C386 H376 0.950 . S
C386 C387 1.386 . S
C386 C388 1.391 . S
C387 C386 1.386 . S
C387 C391 1.393 1_554 S
C388 H377 0.950 . S
C388 C386 1.391 . S
C388 C389 1.400 1_554 S
C389 C383 1.491 . S
C389 C388 1.400 1_556 S
C389 C390 1.398 . S
C390 H378 0.950 . S
C390 C389 1.398 . S
C390 C391 1.391 . S
C391 H379 0.950 . S
C391 C387 1.393 1_556 S
C391 C390 1.391 . S
H392 C400 0.950 . S
H393 C405 0.950 . S
H394 C402 0.950 . S
H395 C404 0.950 . S
H396 C406 0.950 . S
H397 C408 0.950 . S
H398 C410 0.950 . S
H399 C411 0.950 . S
C400 H392 0.950 . S
C400 C401 1.386 . S
C400 C402 1.391 . S
C401 C400 1.386 . S
C401 C405 1.393 1_556 S
C402 H394 0.950 . S
C402 C400 1.391 . S
C402 C403 1.400 . S
C403 C402 1.400 . S
C403 C404 1.398 1_556 S
C403 C409 1.491 . S
C404 H395 0.950 . S
C404 C403 1.398 1_554 S
C404 C405 1.391 . S
C405 H393 0.950 . S
C405 C401 1.393 1_554 S
C405 C404 1.391 . S
C406 H396 0.950 . S
C406 C407 1.386 1_554 S
C406 C408 1.391 . S
C407 C406 1.386 1_556 S
C407 C411 1.393 . S
C408 H397 0.950 . S
C408 C406 1.391 . S
C408 C409 1.400 1_554 S
C409 C403 1.491 . S
C409 C408 1.400 1_556 S
C409 C410 1.398 . S
C410 H398 0.950 . S
C410 C409 1.398 . S
C410 C411 1.391 . S
C411 H399 0.950 . S
C411 C407 1.393 . S
C411 C410 1.391 . S
H412 C420 0.950 . S
H413 C425 0.950 . S
H414 C422 0.950 . S
H415 C424 0.950 . S
H416 C426 0.950 . S
H417 C428 0.950 . S
H418 C430 0.950 . S
H419 C431 0.950 . S
C420 H412 0.950 . S
C420 C421 1.386 . S
C420 C422 1.391 . S
C421 C420 1.386 . S
C421 C425 1.393 1_556 S
C422 H414 0.950 . S
C422 C420 1.391 . S
C422 C423 1.400 . S
C423 C422 1.400 . S
C423 C424 1.398 1_556 S
C423 C429 1.491 . S
C424 H415 0.950 . S
C424 C423 1.398 1_554 S
C424 C425 1.391 . S
C425 H413 0.950 . S
C425 C421 1.393 1_554 S
C425 C424 1.391 . S
C426 H416 0.950 . S
C426 C427 1.386 1_554 S
C426 C428 1.391 . S
C427 C426 1.386 1_556 S
C427 C431 1.393 . S
C428 H417 0.950 . S
C428 C426 1.391 . S
C428 C429 1.400 1_554 S
C429 C423 1.491 . S
C429 C428 1.400 1_556 S
C429 C430 1.398 . S
C430 H418 0.950 . S
C430 C429 1.398 . S
C430 C431 1.391 . S
C431 H419 0.950 . S
C431 C427 1.393 . S
C431 C430 1.391 . S
C261 C74 1.479 . S
C267 C63 1.479 . S
C281 C158 1.461 1_565 S
C287 C147 1.461 . S
C301 C242 1.493 . S
C307 C231 1.493 . S
C321 C67 1.580 . S
C327 C226 1.478 . S
C341 C142 0.824 . S
C347 C58 0.823 1_554 S
C361 C151 2.316 . S
C367 C224 2.371 . S
C381 C56 1.554 . S
C387 C238 1.463 . S
C401 C70 0.812 1_556 S
C407 C154 0.826 . S
C421 C235 2.364 . S
C427 C140 2.323 . S
