# Generated by pormake.
# Topology srs-g, (5)-cn, num edge types: 1
# Building blocks:
#     Node 0, Type 0, BuildingBlock: XOMCOT_clean_sbu_0, # of connection points: 5
#     Node 1, Type 0, BuildingBlock: XOMCOT_clean_sbu_0, # of connection points: 5
#     Node 2, Type 0, BuildingBlock: XOMCOT_clean_sbu_0, # of connection points: 5
#     Node 3, Type 0, BuildingBlock: XOMCOT_clean_sbu_0, # of connection points: 5
#     Node 4, Type 0, BuildingBlock: XOMCOT_clean_sbu_0, # of connection points: 5
#     Node 5, Type 0, BuildingBlock: XOMCOT_clean_sbu_0, # of connection points: 5
#     Node 6, Type 0, BuildingBlock: XOMCOT_clean_sbu_0, # of connection points: 5
#     Node 7, Type 0, BuildingBlock: XOMCOT_clean_sbu_0, # of connection points: 5
#     Node 8, Type 0, BuildingBlock: XOMCOT_clean_sbu_0, # of connection points: 5
#     Node 9, Type 0, BuildingBlock: XOMCOT_clean_sbu_0, # of connection points: 5
#     Node 10, Type 0, BuildingBlock: XOMCOT_clean_sbu_0, # of connection points: 5
#     Node 11, Type 0, BuildingBlock: XOMCOT_clean_sbu_0, # of connection points: 5
#     Node 12, Type 0, BuildingBlock: XOMCOT_clean_sbu_0, # of connection points: 5
#     Node 13, Type 0, BuildingBlock: XOMCOT_clean_sbu_0, # of connection points: 5
#     Node 14, Type 0, BuildingBlock: XOMCOT_clean_sbu_0, # of connection points: 5
#     Node 15, Type 0, BuildingBlock: XOMCOT_clean_sbu_0, # of connection points: 5
#     Node 16, Type 0, BuildingBlock: XOMCOT_clean_sbu_0, # of connection points: 5
#     Node 17, Type 0, BuildingBlock: XOMCOT_clean_sbu_0, # of connection points: 5
#     Node 18, Type 0, BuildingBlock: XOMCOT_clean_sbu_0, # of connection points: 5
#     Node 19, Type 0, BuildingBlock: XOMCOT_clean_sbu_0, # of connection points: 5
#     Node 20, Type 0, BuildingBlock: XOMCOT_clean_sbu_0, # of connection points: 5
#     Node 21, Type 0, BuildingBlock: XOMCOT_clean_sbu_0, # of connection points: 5
#     Node 22, Type 0, BuildingBlock: XOMCOT_clean_sbu_0, # of connection points: 5
#     Node 23, Type 0, BuildingBlock: XOMCOT_clean_sbu_0, # of connection points: 5
#     Node 24, Type 0, BuildingBlock: XOMCOT_clean_sbu_0, # of connection points: 5
#     Node 25, Type 0, BuildingBlock: XOMCOT_clean_sbu_0, # of connection points: 5
#     Node 26, Type 0, BuildingBlock: XOMCOT_clean_sbu_0, # of connection points: 5
#     Node 27, Type 0, BuildingBlock: XOMCOT_clean_sbu_0, # of connection points: 5
#     Node 28, Type 0, BuildingBlock: XOMCOT_clean_sbu_0, # of connection points: 5
#     Node 29, Type 0, BuildingBlock: XOMCOT_clean_sbu_0, # of connection points: 5
#     Node 30, Type 0, BuildingBlock: XOMCOT_clean_sbu_0, # of connection points: 5
#     Node 31, Type 0, BuildingBlock: XOMCOT_clean_sbu_0, # of connection points: 5
#     Node 32, Type 0, BuildingBlock: XOMCOT_clean_sbu_0, # of connection points: 5
#     Node 33, Type 0, BuildingBlock: XOMCOT_clean_sbu_0, # of connection points: 5
#     Node 34, Type 0, BuildingBlock: XOMCOT_clean_sbu_0, # of connection points: 5
#     Node 35, Type 0, BuildingBlock: XOMCOT_clean_sbu_0, # of connection points: 5
#     Node 36, Type 0, BuildingBlock: XOMCOT_clean_sbu_0, # of connection points: 5
#     Node 37, Type 0, BuildingBlock: XOMCOT_clean_sbu_0, # of connection points: 5
#     Node 38, Type 0, BuildingBlock: XOMCOT_clean_sbu_0, # of connection points: 5
#     Node 39, Type 0, BuildingBlock: XOMCOT_clean_sbu_0, # of connection points: 5
#     Node 40, Type 0, BuildingBlock: XOMCOT_clean_sbu_0, # of connection points: 5
#     Node 41, Type 0, BuildingBlock: XOMCOT_clean_sbu_0, # of connection points: 5
#     Node 42, Type 0, BuildingBlock: XOMCOT_clean_sbu_0, # of connection points: 5
#     Node 43, Type 0, BuildingBlock: XOMCOT_clean_sbu_0, # of connection points: 5
#     Node 44, Type 0, BuildingBlock: XOMCOT_clean_sbu_0, # of connection points: 5
#     Node 45, Type 0, BuildingBlock: XOMCOT_clean_sbu_0, # of connection points: 5
#     Node 46, Type 0, BuildingBlock: XOMCOT_clean_sbu_0, # of connection points: 5
#     Node 47, Type 0, BuildingBlock: XOMCOT_clean_sbu_0, # of connection points: 5
#     Edge 48, Type (0, 0), BuildingBlock: OJICUG_clean_linker_0, # of connection points: 2
#     Edge 49, Type (0, 0), BuildingBlock: OJICUG_clean_linker_0, # of connection points: 2
#     Edge 50, Type (0, 0), BuildingBlock: OJICUG_clean_linker_0, # of connection points: 2
#     Edge 51, Type (0, 0), BuildingBlock: OJICUG_clean_linker_0, # of connection points: 2
#     Edge 52, Type (0, 0), BuildingBlock: OJICUG_clean_linker_0, # of connection points: 2
#     Edge 53, Type (0, 0), BuildingBlock: OJICUG_clean_linker_0, # of connection points: 2
#     Edge 54, Type (0, 0), BuildingBlock: OJICUG_clean_linker_0, # of connection points: 2
#     Edge 55, Type (0, 0), BuildingBlock: OJICUG_clean_linker_0, # of connection points: 2
#     Edge 56, Type (0, 0), BuildingBlock: OJICUG_clean_linker_0, # of connection points: 2
#     Edge 57, Type (0, 0), BuildingBlock: OJICUG_clean_linker_0, # of connection points: 2
#     Edge 58, Type (0, 0), BuildingBlock: OJICUG_clean_linker_0, # of connection points: 2
#     Edge 59, Type (0, 0), BuildingBlock: OJICUG_clean_linker_0, # of connection points: 2
#     Edge 60, Type (0, 0), BuildingBlock: OJICUG_clean_linker_0, # of connection points: 2
#     Edge 61, Type (0, 0), BuildingBlock: OJICUG_clean_linker_0, # of connection points: 2
#     Edge 62, Type (0, 0), BuildingBlock: OJICUG_clean_linker_0, # of connection points: 2
#     Edge 63, Type (0, 0), BuildingBlock: OJICUG_clean_linker_0, # of connection points: 2
#     Edge 64, Type (0, 0), BuildingBlock: OJICUG_clean_linker_0, # of connection points: 2
#     Edge 65, Type (0, 0), BuildingBlock: OJICUG_clean_linker_0, # of connection points: 2
#     Edge 66, Type (0, 0), BuildingBlock: OJICUG_clean_linker_0, # of connection points: 2
#     Edge 67, Type (0, 0), BuildingBlock: OJICUG_clean_linker_0, # of connection points: 2
#     Edge 68, Type (0, 0), BuildingBlock: OJICUG_clean_linker_0, # of connection points: 2
#     Edge 69, Type (0, 0), BuildingBlock: OJICUG_clean_linker_0, # of connection points: 2
#     Edge 70, Type (0, 0), BuildingBlock: OJICUG_clean_linker_0, # of connection points: 2
#     Edge 71, Type (0, 0), BuildingBlock: OJICUG_clean_linker_0, # of connection points: 2
#     Edge 72, Type (0, 0), BuildingBlock: OJICUG_clean_linker_0, # of connection points: 2
#     Edge 73, Type (0, 0), BuildingBlock: OJICUG_clean_linker_0, # of connection points: 2
#     Edge 74, Type (0, 0), BuildingBlock: OJICUG_clean_linker_0, # of connection points: 2
#     Edge 75, Type (0, 0), BuildingBlock: OJICUG_clean_linker_0, # of connection points: 2
#     Edge 76, Type (0, 0), BuildingBlock: OJICUG_clean_linker_0, # of connection points: 2
#     Edge 77, Type (0, 0), BuildingBlock: OJICUG_clean_linker_0, # of connection points: 2
#     Edge 78, Type (0, 0), BuildingBlock: OJICUG_clean_linker_0, # of connection points: 2
#     Edge 79, Type (0, 0), BuildingBlock: OJICUG_clean_linker_0, # of connection points: 2
#     Edge 80, Type (0, 0), BuildingBlock: OJICUG_clean_linker_0, # of connection points: 2
#     Edge 81, Type (0, 0), BuildingBlock: OJICUG_clean_linker_0, # of connection points: 2
#     Edge 82, Type (0, 0), BuildingBlock: OJICUG_clean_linker_0, # of connection points: 2
#     Edge 83, Type (0, 0), BuildingBlock: OJICUG_clean_linker_0, # of connection points: 2
#     Edge 84, Type (0, 0), BuildingBlock: OJICUG_clean_linker_0, # of connection points: 2
#     Edge 85, Type (0, 0), BuildingBlock: OJICUG_clean_linker_0, # of connection points: 2
#     Edge 86, Type (0, 0), BuildingBlock: OJICUG_clean_linker_0, # of connection points: 2
#     Edge 87, Type (0, 0), BuildingBlock: OJICUG_clean_linker_0, # of connection points: 2
#     Edge 88, Type (0, 0), BuildingBlock: OJICUG_clean_linker_0, # of connection points: 2
#     Edge 89, Type (0, 0), BuildingBlock: OJICUG_clean_linker_0, # of connection points: 2
#     Edge 90, Type (0, 0), BuildingBlock: OJICUG_clean_linker_0, # of connection points: 2
#     Edge 91, Type (0, 0), BuildingBlock: OJICUG_clean_linker_0, # of connection points: 2
#     Edge 92, Type (0, 0), BuildingBlock: OJICUG_clean_linker_0, # of connection points: 2
#     Edge 93, Type (0, 0), BuildingBlock: OJICUG_clean_linker_0, # of connection points: 2
#     Edge 94, Type (0, 0), BuildingBlock: OJICUG_clean_linker_0, # of connection points: 2
#     Edge 95, Type (0, 0), BuildingBlock: OJICUG_clean_linker_0, # of connection points: 2
#     Edge 96, Type (0, 0), BuildingBlock: OJICUG_clean_linker_0, # of connection points: 2
#     Edge 97, Type (0, 0), BuildingBlock: OJICUG_clean_linker_0, # of connection points: 2
#     Edge 98, Type (0, 0), BuildingBlock: OJICUG_clean_linker_0, # of connection points: 2
#     Edge 99, Type (0, 0), BuildingBlock: OJICUG_clean_linker_0, # of connection points: 2
#     Edge 100, Type (0, 0), BuildingBlock: OJICUG_clean_linker_0, # of connection points: 2
#     Edge 101, Type (0, 0), BuildingBlock: OJICUG_clean_linker_0, # of connection points: 2
#     Edge 102, Type (0, 0), BuildingBlock: OJICUG_clean_linker_0, # of connection points: 2
#     Edge 103, Type (0, 0), BuildingBlock: OJICUG_clean_linker_0, # of connection points: 2
#     Edge 104, Type (0, 0), BuildingBlock: OJICUG_clean_linker_0, # of connection points: 2
#     Edge 105, Type (0, 0), BuildingBlock: OJICUG_clean_linker_0, # of connection points: 2
#     Edge 106, Type (0, 0), BuildingBlock: OJICUG_clean_linker_0, # of connection points: 2
#     Edge 107, Type (0, 0), BuildingBlock: OJICUG_clean_linker_0, # of connection points: 2
#     Edge 108, Type (0, 0), BuildingBlock: OJICUG_clean_linker_0, # of connection points: 2
#     Edge 109, Type (0, 0), BuildingBlock: OJICUG_clean_linker_0, # of connection points: 2
#     Edge 110, Type (0, 0), BuildingBlock: OJICUG_clean_linker_0, # of connection points: 2
#     Edge 111, Type (0, 0), BuildingBlock: OJICUG_clean_linker_0, # of connection points: 2
#     Edge 112, Type (0, 0), BuildingBlock: OJICUG_clean_linker_0, # of connection points: 2
#     Edge 113, Type (0, 0), BuildingBlock: OJICUG_clean_linker_0, # of connection points: 2
#     Edge 114, Type (0, 0), BuildingBlock: OJICUG_clean_linker_0, # of connection points: 2
#     Edge 115, Type (0, 0), BuildingBlock: OJICUG_clean_linker_0, # of connection points: 2
#     Edge 116, Type (0, 0), BuildingBlock: OJICUG_clean_linker_0, # of connection points: 2
#     Edge 117, Type (0, 0), BuildingBlock: OJICUG_clean_linker_0, # of connection points: 2
#     Edge 118, Type (0, 0), BuildingBlock: OJICUG_clean_linker_0, # of connection points: 2
#     Edge 119, Type (0, 0), BuildingBlock: OJICUG_clean_linker_0, # of connection points: 2
#     Edge 120, Type (0, 0), BuildingBlock: OJICUG_clean_linker_0, # of connection points: 2
#     Edge 121, Type (0, 0), BuildingBlock: OJICUG_clean_linker_0, # of connection points: 2
#     Edge 122, Type (0, 0), BuildingBlock: OJICUG_clean_linker_0, # of connection points: 2
#     Edge 123, Type (0, 0), BuildingBlock: OJICUG_clean_linker_0, # of connection points: 2
#     Edge 124, Type (0, 0), BuildingBlock: OJICUG_clean_linker_0, # of connection points: 2
#     Edge 125, Type (0, 0), BuildingBlock: OJICUG_clean_linker_0, # of connection points: 2
#     Edge 126, Type (0, 0), BuildingBlock: OJICUG_clean_linker_0, # of connection points: 2
#     Edge 127, Type (0, 0), BuildingBlock: OJICUG_clean_linker_0, # of connection points: 2
#     Edge 128, Type (0, 0), BuildingBlock: OJICUG_clean_linker_0, # of connection points: 2
#     Edge 129, Type (0, 0), BuildingBlock: OJICUG_clean_linker_0, # of connection points: 2
#     Edge 130, Type (0, 0), BuildingBlock: OJICUG_clean_linker_0, # of connection points: 2
#     Edge 131, Type (0, 0), BuildingBlock: OJICUG_clean_linker_0, # of connection points: 2
#     Edge 132, Type (0, 0), BuildingBlock: OJICUG_clean_linker_0, # of connection points: 2
#     Edge 133, Type (0, 0), BuildingBlock: OJICUG_clean_linker_0, # of connection points: 2
#     Edge 134, Type (0, 0), BuildingBlock: OJICUG_clean_linker_0, # of connection points: 2
#     Edge 135, Type (0, 0), BuildingBlock: OJICUG_clean_linker_0, # of connection points: 2
#     Edge 136, Type (0, 0), BuildingBlock: OJICUG_clean_linker_0, # of connection points: 2
#     Edge 137, Type (0, 0), BuildingBlock: OJICUG_clean_linker_0, # of connection points: 2
#     Edge 138, Type (0, 0), BuildingBlock: OJICUG_clean_linker_0, # of connection points: 2
#     Edge 139, Type (0, 0), BuildingBlock: OJICUG_clean_linker_0, # of connection points: 2
#     Edge 140, Type (0, 0), BuildingBlock: OJICUG_clean_linker_0, # of connection points: 2
#     Edge 141, Type (0, 0), BuildingBlock: OJICUG_clean_linker_0, # of connection points: 2
#     Edge 142, Type (0, 0), BuildingBlock: OJICUG_clean_linker_0, # of connection points: 2
#     Edge 143, Type (0, 0), BuildingBlock: OJICUG_clean_linker_0, # of connection points: 2
#     Edge 144, Type (0, 0), BuildingBlock: OJICUG_clean_linker_0, # of connection points: 2
#     Edge 145, Type (0, 0), BuildingBlock: OJICUG_clean_linker_0, # of connection points: 2
#     Edge 146, Type (0, 0), BuildingBlock: OJICUG_clean_linker_0, # of connection points: 2
#     Edge 147, Type (0, 0), BuildingBlock: OJICUG_clean_linker_0, # of connection points: 2
#     Edge 148, Type (0, 0), BuildingBlock: OJICUG_clean_linker_0, # of connection points: 2
#     Edge 149, Type (0, 0), BuildingBlock: OJICUG_clean_linker_0, # of connection points: 2
#     Edge 150, Type (0, 0), BuildingBlock: OJICUG_clean_linker_0, # of connection points: 2
#     Edge 151, Type (0, 0), BuildingBlock: OJICUG_clean_linker_0, # of connection points: 2
#     Edge 152, Type (0, 0), BuildingBlock: OJICUG_clean_linker_0, # of connection points: 2
#     Edge 153, Type (0, 0), BuildingBlock: OJICUG_clean_linker_0, # of connection points: 2
#     Edge 154, Type (0, 0), BuildingBlock: OJICUG_clean_linker_0, # of connection points: 2
#     Edge 155, Type (0, 0), BuildingBlock: OJICUG_clean_linker_0, # of connection points: 2
#     Edge 156, Type (0, 0), BuildingBlock: OJICUG_clean_linker_0, # of connection points: 2
#     Edge 157, Type (0, 0), BuildingBlock: OJICUG_clean_linker_0, # of connection points: 2
#     Edge 158, Type (0, 0), BuildingBlock: OJICUG_clean_linker_0, # of connection points: 2
#     Edge 159, Type (0, 0), BuildingBlock: OJICUG_clean_linker_0, # of connection points: 2
#     Edge 160, Type (0, 0), BuildingBlock: OJICUG_clean_linker_0, # of connection points: 2
#     Edge 161, Type (0, 0), BuildingBlock: OJICUG_clean_linker_0, # of connection points: 2
#     Edge 162, Type (0, 0), BuildingBlock: OJICUG_clean_linker_0, # of connection points: 2
#     Edge 163, Type (0, 0), BuildingBlock: OJICUG_clean_linker_0, # of connection points: 2
#     Edge 164, Type (0, 0), BuildingBlock: OJICUG_clean_linker_0, # of connection points: 2
#     Edge 165, Type (0, 0), BuildingBlock: OJICUG_clean_linker_0, # of connection points: 2
#     Edge 166, Type (0, 0), BuildingBlock: OJICUG_clean_linker_0, # of connection points: 2
#     Edge 167, Type (0, 0), BuildingBlock: OJICUG_clean_linker_0, # of connection points: 2
# Relax obj value: 0.912
# Max RMSD: 0.271
# Mean RMSD: 0.271
data_MOF--net-srs-g--node1-XOMCOT_clean_sbu_0--edge1-OJICUG_clean_linker_0
_symmetry_space_group_name_H-M    P1
_symmetry_Int_Tables_number       1
_symmetry_cell_setting            triclinic
loop_
_symmetry_equiv_pos_as_xyz
'x, y, z'
_cell_length_a     67.888296
_cell_length_b     67.985837
_cell_length_c     67.94706
_cell_angle_alpha  90.035056
_cell_angle_beta   90.051511
_cell_angle_gamma 90.001436
loop_
_atom_site_label
_atom_site_type_symbol
_atom_site_fract_x
_atom_site_fract_y
_atom_site_fract_z
_atom_type_partial_charge
Co0 Co 0.04665 0.05086 0.17014 0.0
C1 C 0.08068 0.0344 0.19255 0.0
C2 C 0.05602 0.04077 0.21107 0.0
C3 C 0.07162 0.03567 0.22284 0.0
N4 N 0.06159 0.03995 0.19199 0.0
N5 N 0.08712 0.0318 0.21117 0.0
H6 H 0.0903 0.03414 0.17989 0.0
H7 H 0.04213 0.04637 0.21633 0.0
C8 C 0.03443 0.09158 0.18399 0.0
O9 O 0.02047 0.09282 0.17067 0.0
N10 N 0.03214 0.06242 0.14831 0.0
C11 C 0.01499 0.05717 0.13982 0.0
C12 C 0.01156 0.06953 0.12389 0.0
C13 C 0.03898 0.07746 0.13728 0.0
N14 N 0.02669 0.08238 0.12246 0.0
C15 C 0.02359 0.0189 0.18369 0.0
C16 C 1.00077 0.04086 0.2092 0.0
C17 C 0.00396 0.02093 0.21342 0.0
C18 C 0.01424 0.00962 0.19954 0.0
C19 C 0.01009 0.04949 0.19292 0.0
N20 N 0.02303 0.03889 0.18169 0.0
H21 H 0.03357 0.01031 0.1748 0.0
H22 H 0.00837 0.06501 0.1909 0.0
H23 H 0.00569 0.04521 0.14469 0.0
H24 H 0.05282 0.08474 0.14022 0.0
O25 O 0.05513 0.02974 0.15245 0.0
O26 O 0.07073 0.05792 0.15691 0.0
O27 O 0.04425 0.07571 0.18632 0.0
C28 C 0.06972 0.04124 0.14763 0.0
H29 H 0.07198 0.0363 0.23876 0.0
H30 H 0.99885 0.06913 0.11429 0.0
H31 H 0.99241 0.05002 0.21922 0.0
H32 H 0.01694 0.99412 0.20206 0.0
Co33 Co 0.20657 0.79504 0.41874 0.0
C34 C 0.22145 0.83212 0.43645 0.0
C35 C 0.22467 0.80823 0.45656 0.0
C36 C 0.23029 0.82522 0.46594 0.0
N37 N 0.21926 0.81242 0.43786 0.0
N38 N 0.22813 0.84027 0.45328 0.0
H39 H 0.21669 0.84073 0.42399 0.0
H40 H 0.22348 0.79417 0.46365 0.0
C41 C 0.1661 0.78599 0.43562 0.0
O42 O 0.16418 0.77047 0.42428 0.0
N43 N 0.19364 0.77837 0.39933 0.0
C44 C 0.19925 0.76094 0.39167 0.0
C45 C 0.18725 0.75668 0.37563 0.0
C46 C 0.17862 0.78445 0.3878 0.0
N47 N 0.17444 0.77167 0.37317 0.0
C48 C 0.23843 0.77061 0.4314 0.0
C49 C 0.21863 0.75362 0.46253 0.0
C50 C 0.23933 0.75473 0.46359 0.0
C51 C 0.24913 0.76175 0.4467 0.0
C52 C 0.20851 0.7622 0.44668 0.0
N53 N 0.21841 0.7724 0.43243 0.0
H54 H 0.24649 0.77803 0.41991 0.0
H55 H 0.19275 0.76229 0.44735 0.0
H56 H 0.2117 0.7524 0.3967 0.0
H57 H 0.171 0.79825 0.38996 0.0
O58 O 0.22709 0.80085 0.39924 0.0
O59 O 0.19945 0.81756 0.40303 0.0
O60 O 0.18236 0.79554 0.43621 0.0
C61 C 0.21597 0.81547 0.39366 0.0
H62 H 0.23449 0.82649 0.48126 0.0
H63 H 0.18857 0.74409 0.36596 0.0
H64 H 0.20996 0.74794 0.47458 0.0
H65 H 0.26503 0.76183 0.44579 0.0
Co66 Co 0.46294 0.95442 0.66692 0.0
C67 C 0.42726 0.97112 0.68563 0.0
C68 C 0.44995 0.96544 0.7067 0.0
C69 C 0.43293 0.9699 0.71669 0.0
N70 N 0.4464 0.96607 0.68714 0.0
N71 N 0.41858 0.97308 0.70338 0.0
H72 H 0.41921 0.97161 0.67195 0.0
H73 H 0.46334 0.96009 0.71339 0.0
C74 C 0.47346 0.91379 0.68244 0.0
O75 O 0.48865 0.91229 0.67059 0.0
N76 N 0.47885 0.94218 0.64657 0.0
C77 C 0.49555 0.9481 0.63766 0.0
C78 C 0.49929 0.93553 0.62193 0.0
C79 C 0.47258 0.92658 0.63601 0.0
N80 N 0.48478 0.92193 0.6211 0.0
C81 C 0.48522 0.98637 0.68185 0.0
C82 C 0.50643 0.9646 0.70886 0.0
C83 C 0.50338 0.98466 0.71258 0.0
C84 C 0.49386 0.99581 0.69803 0.0
C85 C 0.49778 0.95579 0.6923 0.0
N86 N 0.4857 0.96635 0.68012 0.0
H87 H 0.47585 0.99491 0.67226 0.0
H88 H 0.49939 0.94021 0.69065 0.0
H89 H 0.50405 0.96088 0.64186 0.0
H90 H 0.45896 0.91894 0.6391 0.0
O91 O 0.45607 0.97526 0.64816 0.0
O92 O 0.43996 0.94726 0.6519 0.0
O93 O 0.46367 0.92982 0.68374 0.0
C94 C 0.44181 0.96373 0.64242 0.0
H95 H 0.43074 0.96854 0.73241 0.0
H96 H 0.51158 0.93648 0.61186 0.0
H97 H 0.51425 0.95551 0.71937 0.0
H98 H 0.49124 0.01139 0.70012 0.0
Co99 Co 0.29937 0.20778 0.92381 0.0
C100 C 0.28502 0.17155 0.94318 0.0
C101 C 0.28562 0.19572 0.96324 0.0
C102 C 0.28216 0.17882 0.97379 0.0
N103 N 0.28736 0.19124 0.94391 0.0
N104 N 0.28195 0.16368 0.96111 0.0
H105 H 0.28787 0.16264 0.93032 0.0
H106 H 0.28894 0.20982 0.96972 0.0
C107 C 0.34009 0.21761 0.93993 0.0
O108 O 0.34208 0.23262 0.92795 0.0
N109 N 0.31208 0.22362 0.90367 0.0
C110 C 0.30737 0.24129 0.89604 0.0
C111 C 0.32042 0.24544 0.88085 0.0
C112 C 0.32749 0.21723 0.89286 0.0
N113 N 0.33315 0.23025 0.87901 0.0
C114 C 0.2675 0.23071 0.93864 0.0
C115 C 0.28985 0.25241 0.96479 0.0
C116 C 0.26976 0.24978 0.96874 0.0
C117 C 0.25828 0.24004 0.9546 0.0
C118 C 0.29842 0.24307 0.94852 0.0
N119 N 0.28758 0.23075 0.93685 0.0
H120 H 0.25875 0.22118 0.92938 0.0
H121 H 0.31402 0.24438 0.94673 0.0
H122 H 0.29527 0.25039 0.90094 0.0
H123 H 0.33445 0.20312 0.89519 0.0
O124 O 0.27851 0.20126 0.9049 0.0
O125 O 0.30631 0.18479 0.90867 0.0
O126 O 0.32383 0.20813 0.94095 0.0
C127 C 0.28979 0.18679 0.89924 0.0
H128 H 0.2824 0.17746 0.98966 0.0
H129 H 0.32048 0.25863 0.87194 0.0
H130 H 0.29917 0.26025 0.9751 0.0
H131 H 0.24268 0.23775 0.957 0.0
Co132 Co 0.04932 0.95193 0.33341 0.0
C133 C 0.08067 0.95622 0.30428 0.0
C134 C 0.06455 0.98317 0.30759 0.0
C135 C 0.07953 0.98622 0.2943 0.0
N136 N 0.06537 0.96436 0.31378 0.0
N137 N 0.0896 0.96923 0.29227 0.0
H138 H 0.08592 0.94145 0.3071 0.0
H139 H 0.05431 0.99411 0.31292 0.0
C140 C 0.04009 0.91136 0.3185 0.0
O141 O 0.02258 0.91223 0.32666 0.0
N142 N 0.03371 0.9392 0.35366 0.0
C143 C 0.01664 0.94448 0.36224 0.0
C144 C 0.01318 0.93194 0.37799 0.0
C145 C 0.04041 0.92387 0.36436 0.0
N146 N 0.02822 0.91895 0.37925 0.0
C147 C 0.01777 0.97815 0.32197 0.0
C148 C 0.01332 0.96198 0.2849 0.0
C149 C 0.00634 0.98107 0.28797 0.0
C150 C 0.00791 0.98886 0.30713 0.0
C151 C 0.02339 0.95213 0.29975 0.0
N152 N 0.02633 0.96038 0.31792 0.0
H153 H 0.02033 0.98511 0.33604 0.0
H154 H 0.03076 0.93897 0.29522 0.0
H155 H 0.00765 0.95685 0.35786 0.0
H156 H 0.05446 0.91694 0.36157 0.0
O157 O 0.05355 0.97451 0.35107 0.0
O158 O 0.07212 0.94784 0.34944 0.0
O159 O 0.05166 0.92618 0.31888 0.0
C160 C 0.0687 0.96465 0.35769 0.0
H161 H 0.08322 1.00004 0.28732 0.0
H162 H 1.0007 0.9326 0.38785 0.0
H163 H 0.01304 0.95534 0.27041 0.0
H164 H 1.00267 0.00355 0.31034 0.0
Co165 Co 0.30468 0.79451 0.5871 0.0
C166 C 0.28868 0.82948 0.56587 0.0
C167 C 0.29515 0.80553 0.54649 0.0
C168 C 0.29031 0.82155 0.53526 0.0
N169 N 0.29408 0.81036 0.56576 0.0
N170 N 0.28639 0.83661 0.54747 0.0
H171 H 0.2883 0.83862 0.57888 0.0
H172 H 0.30079 0.79186 0.54075 0.0
C173 C 0.34618 0.78395 0.57357 0.0
O174 O 0.34806 0.77011 0.58689 0.0
N175 N 0.3159 0.77902 0.60844 0.0
C176 C 0.31068 0.76136 0.61583 0.0
C177 C 0.32195 0.75768 0.63253 0.0
C178 C 0.32993 0.78581 0.62079 0.0
N179 N 0.33388 0.77327 0.63562 0.0
C180 C 0.273 0.77187 0.5719 0.0
C181 C 0.29563 0.75052 0.54574 0.0
C182 C 0.27566 0.75364 0.54136 0.0
C183 C 0.26402 0.76313 0.55549 0.0
C184 C 0.30395 0.75917 0.56259 0.0
N185 N 0.293 0.77143 0.57422 0.0
H186 H 0.26416 0.78135 0.58111 0.0
H187 H 0.31955 0.75771 0.56479 0.0
H188 H 0.2992 0.75205 0.60989 0.0
H189 H 0.33737 0.79974 0.61881 0.0
O190 O 0.28313 0.80213 0.60475 0.0
O191 O 0.31133 0.81801 0.60163 0.0
O192 O 0.32984 0.79302 0.57123 0.0
C193 C 0.29444 0.81655 0.61048 0.0
H194 H 0.29116 0.8225 0.51938 0.0
H195 H 0.32094 0.74493 0.64199 0.0
H196 H 0.30506 0.74286 0.53542 0.0
H197 H 0.24852 0.76576 0.55278 0.0
Co198 Co 0.45689 0.0536 0.83355 0.0
C199 C 0.42414 0.04864 0.80615 0.0
C200 C 0.44069 0.02188 0.80887 0.0
C201 C 0.42521 0.01863 0.79616 0.0
N202 N 0.43988 0.04069 0.81506 0.0
N203 N 0.41491 0.03552 0.79447 0.0
H204 H 0.41894 0.06341 0.80902 0.0
H205 H 0.45143 0.01115 0.81365 0.0
C206 C 0.46511 0.09363 0.81681 0.0
O207 O 0.48324 0.09274 0.82352 0.0
N208 N 0.47342 0.06699 0.85263 0.0
C209 C 0.49082 0.06203 0.86075 0.0
C210 C 0.49489 0.07518 0.87586 0.0
C211 C 0.46716 0.08277 0.86293 0.0
N212 N 0.47992 0.08825 0.87716 0.0
C213 C 0.48897 0.02839 0.82101 0.0
C214 C 0.49034 0.04334 0.7832 0.0
C215 C 0.49923 0.02515 0.78669 0.0
C216 C 0.499 0.01791 0.80612 0.0
C217 C 0.48008 0.05287 0.7981 0.0
N218 N 0.479 0.04537 0.81679 0.0
H219 H 0.48761 0.02183 0.83543 0.0
H220 H 0.47112 0.06497 0.79341 0.0
H221 H 0.49961 0.04946 0.85656 0.0
H222 H 0.45298 0.08957 0.86046 0.0
O223 O 0.45418 0.03114 0.85158 0.0
O224 O 0.43505 0.05745 0.85095 0.0
O225 O 0.45336 0.07909 0.81885 0.0
C226 C 0.43923 0.04072 0.859 0.0
H227 H 0.42146 0.00479 0.78921 0.0
H228 H 0.50771 0.07486 0.88533 0.0
H229 H 0.4894 0.04932 0.76845 0.0
H230 H 0.50556 0.00381 0.80955 0.0
Co231 Co 0.20107 0.21192 0.09034 0.0
C232 C 0.21796 0.17608 0.07152 0.0
C233 C 0.21818 0.20054 0.05182 0.0
C234 C 0.22507 0.18441 0.0419 0.0
N235 N 0.21393 0.19552 0.07058 0.0
N236 N 0.22472 0.16893 0.05422 0.0
H237 H 0.21454 0.16693 0.08404 0.0
H238 H 0.2153 0.21451 0.04506 0.0
C239 C 0.16062 0.2215 0.07358 0.0
O240 O 0.15847 0.23643 0.08565 0.0
N241 N 0.18808 0.22781 0.11026 0.0
C242 C 0.19417 0.24453 0.11908 0.0
C243 C 0.1825 0.24788 0.13552 0.0
C244 C 0.17308 0.22125 0.1215 0.0
N245 N 0.16943 0.23301 0.13705 0.0
C246 C 0.23297 0.23656 0.07876 0.0
C247 C 0.21323 0.25439 0.04803 0.0
C248 C 0.23387 0.2525 0.04666 0.0
C249 C 0.24369 0.24537 0.0635 0.0
C250 C 0.2031 0.24592 0.06393 0.0
N251 N 0.21295 0.23509 0.07775 0.0
H252 H 0.24098 0.2288 0.09008 0.0
H253 H 0.18732 0.24622 0.0635 0.0
H254 H 0.20688 0.25302 0.11464 0.0
H255 H 0.16529 0.20767 0.1186 0.0
O256 O 0.22141 0.20533 0.10979 0.0
O257 O 0.19379 0.18881 0.10514 0.0
O258 O 0.17697 0.21215 0.07264 0.0
C259 C 0.21 0.19083 0.11508 0.0
H260 H 0.22885 0.18397 0.02644 0.0
H261 H 0.18432 0.2596 0.14616 0.0
H262 H 0.20455 0.2604 0.03614 0.0
H263 H 0.25959 0.24495 0.06433 0.0
Co264 Co 0.17188 0.04705 0.05386 0.0
C265 C 0.19927 0.0798 0.04984 0.0
C266 C 0.19651 0.0641 0.02256 0.0
C267 C 0.2091 0.07974 0.01976 0.0
N268 N 0.19043 0.06428 0.04143 0.0
N269 N 0.21079 0.08952 0.03697 0.0
H270 H 0.19635 0.08456 0.06476 0.0
H271 H 0.19164 0.0538 0.01147 0.0
C272 C 0.18939 0.03708 0.09343 0.0
O273 O 0.18212 0.0192 0.09247 0.0
N274 N 0.15273 0.03027 0.06676 0.0
C275 C 0.14232 0.01491 0.05976 0.0
C276 C 0.12671 0.01133 0.07245 0.0
C277 C 0.14327 0.03583 0.0833 0.0
N278 N 0.12726 0.02471 0.08717 0.0
C279 C 0.18315 0.0163 0.02648 0.0
C280 C 0.22113 0.01281 0.0408 0.0
C281 C 0.21716 0.00528 0.02207 0.0
C282 C 0.19763 0.00656 0.01515 0.0
C283 C 0.20662 0.0228 0.05123 0.0
N284 N 0.18789 0.02502 0.04402 0.0
H285 H 0.1687 0.01852 0.0202 0.0
H286 H 0.21168 0.03063 0.06395 0.0
H287 H 0.14496 0.00772 0.04583 0.0
H288 H 0.14769 0.04852 0.09181 0.0
O289 O 0.15325 0.05152 0.03206 0.0
O290 O 0.15508 0.06904 0.05939 0.0
O291 O 0.18735 0.04906 0.07909 0.0
C292 C 0.14647 0.06608 0.04265 0.0
H293 H 0.21586 0.084 0.00599 0.0
H294 H 0.11517 1.00058 0.07022 0.0
H295 H 0.23597 0.01287 0.04666 0.0
H296 H 0.19379 1.00103 1.0007 0.0
Co297 Co 0.21203 0.91763 0.2994 0.0
C298 C 0.17616 0.93617 0.28236 0.0
C299 C 0.20049 0.95608 0.28224 0.0
C300 C 0.1842 0.9659 0.27548 0.0
N301 N 0.19562 0.93726 0.28636 0.0
N302 N 0.1688 0.95343 0.27578 0.0
H303 H 0.16711 0.92358 0.28578 0.0
H304 H 0.21446 0.9629 0.28517 0.0
C305 C 0.22194 0.93458 0.33954 0.0
O306 O 0.23723 0.92288 0.3413 0.0
N307 N 0.22777 0.89775 0.31271 0.0
C308 C 0.2449 0.88924 0.30744 0.0
C309 C 0.24867 0.87375 0.32022 0.0
C310 C 0.22132 0.88718 0.32824 0.0
N311 N 0.23377 0.87256 0.33336 0.0
C312 C 0.23644 0.92952 0.26741 0.0
C313 C 0.25489 0.9597 0.2874 0.0
C314 C 0.25289 0.96141 0.26683 0.0
C315 C 0.2453 0.94487 0.25683 0.0
C316 C 0.24631 0.94379 0.29737 0.0
N317 N 0.23525 0.93018 0.28746 0.0
H318 H 0.2284 0.91845 0.25931 0.0
H319 H 0.24683 0.94402 0.3131 0.0
H320 H 0.2537 0.89353 0.2949 0.0
H321 H 0.20738 0.88998 0.33539 0.0
O322 O 0.20552 0.89805 0.2792 0.0
O323 O 0.18892 0.90294 0.30673 0.0
O324 O 0.21224 0.93544 0.32339 0.0
C325 C 0.19099 0.89288 0.29062 0.0
H326 H 0.18358 0.98139 0.2719 0.0
H327 H 0.26129 0.86405 0.31968 0.0
H328 H 0.26116 0.97136 0.29621 0.0
H329 H 0.24464 0.94435 0.24094 0.0
Co330 Co 0.33437 0.96066 0.55447 0.0
C331 C 0.31336 0.92551 0.53886 0.0
C332 C 0.29381 0.94952 0.5446 0.0
C333 C 0.28268 0.93325 0.54022 0.0
N334 N 0.31313 0.94474 0.54377 0.0
N335 N 0.29501 0.9182 0.53671 0.0
H336 H 0.32641 0.91642 0.53881 0.0
H337 H 0.28799 0.96333 0.54981 0.0
C338 C 0.31988 0.97224 0.59536 0.0
O339 O 0.33273 0.98658 0.59697 0.0
N340 N 0.35559 0.97615 0.56577 0.0
C341 C 0.36499 0.99207 0.55864 0.0
C342 C 0.38184 0.99525 0.56983 0.0
C343 C 0.36687 0.96982 0.58085 0.0
N344 N 0.38302 0.98104 0.58367 0.0
C345 C 0.32034 0.98324 0.52233 0.0
C346 C 0.2938 0.00541 0.54372 0.0
C347 C 0.2904 0.00264 0.52354 0.0
C348 C 0.30474 0.99258 0.51262 0.0
C349 C 0.3099 0.99614 0.55282 0.0
N350 N 0.32178 0.98365 0.54239 0.0
H351 H 0.3297 0.97357 0.51389 0.0
H352 H 0.31134 0.99758 0.56846 0.0
H353 H 0.36056 1.00016 0.54567 0.0
H354 H 0.36336 0.95691 0.58945 0.0
O355 O 0.35224 0.9528 0.53326 0.0
O356 O 0.34887 0.93721 0.56156 0.0
O357 O 0.31818 0.96248 0.57936 0.0
C358 C 0.35785 0.9385 0.54473 0.0
H359 H 0.26679 0.93217 0.54112 0.0
H360 H 0.39285 0.00647 0.56727 0.0
H361 H 0.28337 0.01353 0.55264 0.0
H362 H 0.30284 0.99015 0.49698 0.0
Co363 Co 0.29204 0.0859 0.80309 0.0
C364 C 0.32796 0.06814 0.78536 0.0
C365 C 0.30379 0.04806 0.78484 0.0
C366 C 0.32013 0.03847 0.77792 0.0
N367 N 0.30851 0.06684 0.78931 0.0
N368 N 0.33544 0.05104 0.77848 0.0
H369 H 0.33694 0.08071 0.78907 0.0
H370 H 0.28991 0.04104 0.78774 0.0
C371 C 0.28285 0.0672 0.84267 0.0
O372 O 0.26754 0.07871 0.84532 0.0
N373 N 0.27628 0.10516 0.81721 0.0
C374 C 0.26031 0.11526 0.81116 0.0
C375 C 0.25733 0.13096 0.8239 0.0
C376 C 0.28283 0.11496 0.83323 0.0
N377 N 0.2717 0.13082 0.83769 0.0
C378 C 0.26753 0.07445 0.77096 0.0
C379 C 0.24956 0.04366 0.79039 0.0
C380 C 0.25158 0.04231 0.76979 0.0
C381 C 0.25887 0.05915 0.7601 0.0
C382 C 0.25792 0.05954 0.80065 0.0
N383 N 0.26881 0.07344 0.791 0.0
H384 H 0.27541 0.08576 0.76308 0.0
H385 H 0.25737 0.05907 0.81637 0.0
H386 H 0.25219 0.11225 0.79779 0.0
H387 H 0.29597 0.1107 0.84115 0.0
O388 O 0.29803 0.10612 0.78344 0.0
O389 O 0.31508 0.10073 0.81062 0.0
O390 O 0.29233 0.06732 0.82639 0.0
C391 C 0.31265 0.11119 0.79482 0.0
H392 H 0.32088 0.02304 0.77411 0.0
H393 H 0.24618 0.14223 0.82236 0.0
H394 H 0.24344 0.03177 0.79898 0.0
H395 H 0.25949 0.05996 0.74423 0.0
Co396 Co 0.17141 0.96223 0.44881 0.0
C397 C 0.19887 0.92938 0.45378 0.0
C398 C 0.19564 0.94567 0.48064 0.0
C399 C 0.20799 0.93001 0.48411 0.0
N400 N 0.19002 0.94521 0.46162 0.0
N401 N 0.20996 0.9198 0.46719 0.0
H402 H 0.19625 0.9243 0.4389 0.0
H403 H 0.19051 0.95612 0.49147 0.0
C404 C 0.18777 0.97059 0.40827 0.0
O405 O 0.17941 0.98801 0.40805 0.0
N406 N 0.15216 0.97891 0.43586 0.0
C407 C 0.1436 0.99578 0.44186 0.0
C408 C 0.12742 0.99951 0.42989 0.0
C409 C 0.14111 0.97268 0.42059 0.0
N410 N 0.12583 0.98474 0.4167 0.0
C411 C 0.1831 0.9926 0.47615 0.0
C412 C 0.22068 0.99648 0.46105 0.0
C413 C 0.21735 0.00282 0.48036 0.0
C414 C 0.19793 1.00164 0.48756 0.0
C415 C 0.20574 0.9873 0.45042 0.0
N416 N 0.18736 0.98447 0.45823 0.0
H417 H 0.16879 0.99024 0.48269 0.0
H418 H 0.2102 0.98057 0.43689 0.0
H419 H 0.14794 0.00412 0.45469 0.0
H420 H 0.1438 0.95896 0.41295 0.0
O421 O 0.1529 0.95817 0.47075 0.0
O422 O 0.15465 0.94009 0.44378 0.0
O423 O 0.18681 0.95964 0.42353 0.0
C424 C 0.14614 0.94336 0.46049 0.0
H425 H 0.2144 0.92603 0.49814 0.0
H426 H 0.11694 0.01138 0.43163 0.0
H427 H 0.23533 0.99663 0.45475 0.0
H428 H 0.19447 0.00653 0.50233 0.0
Co429 Co 0.29507 0.92011 0.70345 0.0
C430 C 0.33089 0.94009 0.71817 0.0
C431 C 0.30645 0.9598 0.71695 0.0
C432 C 0.32318 0.97061 0.72057 0.0
N433 N 0.31122 0.94053 0.71548 0.0
N434 N 0.33852 0.95816 0.72107 0.0
H435 H 0.34 0.9273 0.7157 0.0
H436 H 0.2923 0.96603 0.71333 0.0
C437 C 0.2842 0.93665 0.66316 0.0
O438 O 0.26962 0.92415 0.66095 0.0
N439 N 0.27966 0.89959 0.69073 0.0
C440 C 0.26407 0.88927 0.69734 0.0
C441 C 0.26133 0.87309 0.68511 0.0
C442 C 0.28623 0.88945 0.67495 0.0
N443 N 0.27549 0.87319 0.67113 0.0
C444 C 0.27242 0.9343 0.73574 0.0
C445 C 0.25011 0.96027 0.71383 0.0
C446 C 0.25331 0.96438 0.7338 0.0
C447 C 0.26332 0.95031 0.7451 0.0
C448 C 0.25919 0.9439 0.70513 0.0
N449 N 0.2719 0.93241 0.71569 0.0
H450 H 0.28224 0.92516 0.74428 0.0
H451 H 0.25743 0.94195 0.6896 0.0
H452 H 0.25601 0.89256 0.71066 0.0
H453 H 0.29905 0.89386 0.6666 0.0
O454 O 0.30244 0.90122 0.72398 0.0
O455 O 0.3184 0.9057 0.69601 0.0
O456 O 0.29387 0.93754 0.67931 0.0
C457 C 0.31691 0.89608 0.71246 0.0
H458 H 0.32432 0.9865 0.72018 0.0
H459 H 0.25048 0.8616 0.68708 0.0
H460 H 0.24202 0.97051 0.70466 0.0
H461 H 0.26603 0.95283 0.76061 0.0
Co462 Co 0.33626 0.03967 0.9495 0.0
C463 C 0.31742 0.07441 0.96831 0.0
C464 C 0.29633 0.05263 0.95987 0.0
C465 C 0.28635 0.06927 0.96554 0.0
N466 N 0.31589 0.05586 0.96143 0.0
N467 N 0.29967 0.0831 0.97051 0.0
H468 H 0.33118 0.08206 0.97027 0.0
H469 H 0.28968 0.03982 0.95322 0.0
C470 C 0.32054 0.02995 0.90862 0.0
O471 O 0.33315 0.01551 0.90624 0.0
N472 N 0.35669 0.02394 0.93709 0.0
C473 C 0.36529 0.00704 0.94293 0.0
C474 C 0.3819 0.00381 0.93141 0.0
C475 C 0.36821 0.03074 0.92242 0.0
N476 N 0.38373 0.01895 0.91869 0.0
C477 C 0.32181 0.0169 0.9812 0.0
C478 C 0.29363 0.99718 0.95945 0.0
C479 C 0.29037 0.99998 0.97964 0.0
C480 C 0.30548 0.00869 0.99074 0.0
C481 C 0.31041 0.00531 0.95053 0.0
N482 N 0.32316 0.01675 0.96113 0.0
H483 H 0.33185 0.02576 0.98977 0.0
H484 H 0.3118 0.00397 0.93486 0.0
H485 H 0.3605 0.99825 0.9553 0.0
H486 H 0.36545 0.04443 0.91478 0.0
O487 O 0.35513 0.04632 0.97036 0.0
O488 O 0.35098 0.063 0.94278 0.0
O489 O 0.31931 0.03914 0.925 0.0
C490 C 0.36045 0.06104 0.95927 0.0
H491 H 0.27067 0.07167 0.96397 0.0
H492 H 0.39238 0.99193 0.93304 0.0
H493 H 0.28265 0.98997 0.95039 0.0
H494 H 0.30376 0.01107 0.00641 0.0
Co495 Co 0.20817 0.0843 0.20543 0.0
C496 C 0.17461 0.06095 0.22139 0.0
C497 C 0.19932 0.04293 0.21393 0.0
C498 C 0.1838 0.03083 0.21848 0.0
N499 N 0.19365 0.0619 0.21576 0.0
N500 N 0.16826 0.04221 0.22304 0.0
H501 H 0.16487 0.0735 0.22227 0.0
H502 H 0.21316 0.03804 0.20788 0.0
C503 C 0.22009 0.07192 0.1641 0.0
O504 O 0.23387 0.08543 0.16323 0.0
N505 N 0.22218 0.10669 0.19444 0.0
C506 C 0.23872 0.11583 0.2005 0.0
C507 C 0.24144 0.13254 0.18907 0.0
C508 C 0.21501 0.11807 0.17979 0.0
N509 N 0.22638 0.13393 0.1761 0.0
C510 C 0.23179 0.06972 0.23663 0.0
C511 C 0.25444 0.04525 0.21341 0.0
C512 C 0.25142 0.04017 0.23318 0.0
C513 C 0.24125 0.0535 0.24517 0.0
C514 C 0.24502 0.06186 0.20554 0.0
N515 N 0.23211 0.07256 0.2167 0.0
H516 H 0.22184 0.07819 0.24568 0.0
H517 H 0.24657 0.06451 0.19009 0.0
H518 H 0.24786 0.11103 0.21263 0.0
H519 H 0.20173 0.11447 0.17176 0.0
O520 O 0.2 0.1011 0.22734 0.0
O521 O 0.18369 0.09752 0.19938 0.0
O522 O 0.21034 0.06903 0.17993 0.0
C523 C 0.18495 0.10603 0.21648 0.0
H524 H 0.18347 0.01499 0.21689 0.0
H525 H 0.25326 0.1431 0.19063 0.0
H526 H 0.26262 0.03557 0.20374 0.0
H527 H 0.23867 0.05021 0.26055 0.0
Co528 Co 0.05291 0.16837 0.04524 0.0
C529 C 0.03671 0.18667 0.08155 0.0
C530 C 0.03437 0.20631 0.05718 0.0
C531 C 0.02812 0.21601 0.07375 0.0
N532 N 0.03963 0.18772 0.06191 0.0
N533 N 0.02975 0.20366 0.08912 0.0
H534 H 0.04113 0.17437 0.09057 0.0
H535 H 0.03612 0.21318 0.04308 0.0
C536 C 0.09321 0.18563 0.03631 0.0
O537 O 0.09534 0.17418 0.0209 0.0
N538 N 0.06641 0.14875 0.02931 0.0
C539 C 0.06071 0.13997 0.01244 0.0
C540 C 0.07288 0.1239 0.00901 0.0
C541 C 0.08166 0.13782 0.0359 0.0
N542 N 0.08591 0.12251 0.02397 0.0
C543 C 0.02124 0.17971 0.02 0.0
C544 C 0.04038 0.21131 0.00315 0.0
C545 C 0.01964 0.21188 0.00418 0.0
C546 C 0.01024 0.1947 0.01102 0.0
C547 C 0.05084 0.19573 0.01186 0.0
N548 N 0.0412 0.18129 0.02206 0.0
H549 H 0.01339 0.16802 0.02732 0.0
H550 H 0.06657 0.19685 0.01217 0.0
H551 H 0.048 0.14422 0.00383 0.0
H552 H 0.08929 0.14086 0.04955 0.0
O553 O 0.03262 0.14868 0.05114 0.0
O554 O 0.05988 0.15332 0.06828 0.0
O555 O 0.07688 0.18618 0.04572 0.0
C556 C 0.0436 0.14354 0.06602 0.0
H557 H 0.02391 0.23133 0.07456 0.0
H558 H 0.07147 0.11344 0.99707 0.0
H559 H 0.04879 0.22358 0.99755 0.0
H560 H 0.99437 0.19335 0.01094 0.0
Co561 Co 0.55097 0.32918 0.95348 0.0
C562 C 0.53161 0.30638 0.92129 0.0
C563 C 0.54278 0.28777 0.94405 0.0
C564 C 0.53641 0.27607 0.92883 0.0
N565 N 0.53992 0.30687 0.93932 0.0
N566 N 0.52948 0.28781 0.91448 0.0
H567 H 0.52922 0.31923 0.91226 0.0
H568 H 0.55077 0.28258 0.95675 0.0
C569 C 0.59141 0.31567 0.96706 0.0
O570 O 0.59144 0.32815 0.98183 0.0
N571 N 0.56255 0.35137 0.96737 0.0
C572 C 0.55624 0.36117 0.9834 0.0
C573 C 0.56851 0.37722 0.98642 0.0
C574 C 0.57822 0.36169 0.96078 0.0
N575 N 0.58232 0.37755 0.97208 0.0
C576 C 0.5188 0.31946 0.97847 0.0
C577 C 0.53776 0.28934 0.99795 0.0
C578 C 0.5171 0.28842 0.99637 0.0
C579 C 0.5077 0.3049 0.988 0.0
C580 C 0.54827 0.30455 0.98879 0.0
N581 N 0.53885 0.3182 0.97738 0.0
H582 H 0.51102 0.33053 0.97016 0.0
H583 H 0.564 0.30354 0.98912 0.0
H584 H 0.54343 0.35725 0.99199 0.0
H585 H 0.58661 0.35738 0.94797 0.0
O586 O 0.52986 0.34665 0.94434 0.0
O587 O 0.55802 0.34187 0.92893 0.0
O588 O 0.5761 0.31346 0.95628 0.0
C589 C 0.54132 0.35115 0.92963 0.0
H590 H 0.53862 0.26035 0.92754 0.0
H591 H 0.56695 0.38809 0.99795 0.0
H592 H 0.54618 0.27759 0.00458 0.0
H593 H 0.49183 0.30605 0.98747 0.0
Co594 Co 0.92123 0.30338 0.20969 0.0
C595 C 0.9429 0.28685 0.17536 0.0
C596 C 0.96205 0.29357 0.19946 0.0
C597 C 0.97345 0.28886 0.18347 0.0
N598 N 0.9428 0.29235 0.19445 0.0
N599 N 0.96136 0.28474 0.16835 0.0
H600 H 0.92998 0.28639 0.16607 0.0
H601 H 0.96762 0.29931 0.21317 0.0
C602 C 0.93533 0.34446 0.22074 0.0
O603 O 0.92239 0.346 0.235 0.0
N604 N 0.89969 0.31498 0.22446 0.0
C605 C 0.89043 0.30856 0.24076 0.0
C606 C 0.87379 0.32005 0.24372 0.0
C607 C 0.88851 0.32993 0.21768 0.0
N608 N 0.87258 0.33342 0.22905 0.0
C609 C 0.93514 0.27204 0.23338 0.0
C610 C 0.96138 0.29418 0.25521 0.0
C611 C 0.96501 0.27401 0.25287 0.0
C612 C 0.9508 0.26272 0.24301 0.0
C613 C 0.94525 0.30289 0.24563 0.0
N614 N 0.93355 0.29208 0.23327 0.0
H615 H 0.92593 0.26327 0.22385 0.0
H616 H 0.94367 0.31852 0.24675 0.0
H617 H 0.89493 0.29597 0.24939 0.0
H618 H 0.8921 0.33808 0.20451 0.0
O619 O 0.90358 0.28183 0.2023 0.0
O620 O 0.90712 0.30952 0.18568 0.0
O621 O 0.93723 0.32844 0.21106 0.0
C622 C 0.8983 0.29264 0.18737 0.0
H623 H 0.98933 0.29001 0.18255 0.0
H624 H 0.86302 0.31812 0.25529 0.0
H625 H 0.97166 0.30339 0.26321 0.0
H626 H 0.95286 0.24706 0.24092 0.0
Co627 Co 0.95663 0.67041 0.45392 0.0
C628 C 0.96556 0.69151 0.41764 0.0
C629 C 0.98961 0.69394 0.43801 0.0
C630 C 0.99451 0.7041 0.42113 0.0
N631 N 0.97138 0.68628 0.43575 0.0
N632 N 0.97933 0.70241 0.40852 0.0
H633 H 0.95167 0.68717 0.41112 0.0
H634 H 0.99884 0.69203 0.45084 0.0
C635 C 0.9177 0.69012 0.45918 0.0
O636 O 0.91901 0.68611 0.47806 0.0
N637 N 0.94137 0.65377 0.4715 0.0
C638 C 0.94494 0.64713 0.48983 0.0
C639 C 0.93053 0.63347 0.49466 0.0
C640 C 0.92513 0.64397 0.46548 0.0
N641 N 0.91804 0.63153 0.47925 0.0
C642 C 0.97964 0.68522 0.48699 0.0
C643 C 0.96755 0.72382 0.48248 0.0
C644 C 0.98392 0.72017 0.49438 0.0
C645 C 0.98979 0.70046 0.49689 0.0
C646 C 0.95841 0.7085 0.47241 0.0
N647 N 0.96432 0.68933 0.47453 0.0
H648 H 0.98524 0.67038 0.48798 0.0
H649 H 0.94807 0.71278 0.46123 0.0
H650 H 0.95734 0.65134 0.49887 0.0
H651 H 0.91911 0.64547 0.45082 0.0
O652 O 0.97858 0.65165 0.45469 0.0
O653 O 0.95339 0.65054 0.43401 0.0
O654 O 0.93182 0.68565 0.44753 0.0
C655 C 0.96972 0.64277 0.44012 0.0
H656 H 0.00828 0.71153 0.41807 0.0
H657 H 0.92957 0.62543 0.50836 0.0
H658 H 0.9629 0.73875 0.47937 0.0
H659 H 1.00261 0.69694 0.50571 0.0
Co660 Co 0.08425 0.20068 0.21129 0.0
C661 C 0.05727 0.2059 0.17826 0.0
C662 C 0.06043 0.23279 0.19453 0.0
C663 C 0.04816 0.23619 0.17874 0.0
N664 N 0.06607 0.21379 0.1941 0.0
N665 N 0.0462 0.21923 0.1686 0.0
H666 H 0.05989 0.191 0.17327 0.0
H667 H 0.0654 0.24356 0.20513 0.0
C668 C 0.06667 0.16096 0.21977 0.0
O669 O 0.07373 0.16146 0.23777 0.0
N670 N 0.10304 0.18708 0.22799 0.0
C671 C 0.11132 0.19217 0.24528 0.0
C672 C 0.12621 0.17882 0.24951 0.0
C673 C 0.11306 0.17104 0.22195 0.0
N674 N 0.12723 0.1655 0.23474 0.0
C675 C 0.07243 0.22719 0.24245 0.0
C676 C 0.03435 0.21297 0.24468 0.0
C677 C 0.03814 0.23165 0.2524 0.0
C678 C 0.05772 0.23848 0.25185 0.0
C679 C 0.0491 0.2026 0.23501 0.0
N680 N 0.06786 0.20983 0.23332 0.0
H681 H 0.08697 0.23343 0.24076 0.0
H682 H 0.04422 0.18997 0.22693 0.0
H683 H 0.10738 0.20497 0.25386 0.0
H684 H 0.11044 0.16407 0.20788 0.0
O685 O 0.10289 0.22257 0.20812 0.0
O686 O 0.10142 0.19593 0.18947 0.0
O687 O 0.0688 0.17559 0.20818 0.0
C688 C 0.10993 0.21254 0.1933 0.0
H689 H 0.04173 0.25018 0.17467 0.0
H690 H 0.13573 0.17918 0.26228 0.0
H691 H 0.0195 0.20717 0.24412 0.0
H692 H 0.06143 0.25286 0.2576 0.0
Co693 Co 0.45422 0.83707 0.54454 0.0
C694 C 0.47138 0.81842 0.58004 0.0
C695 C 0.47436 0.79939 0.55525 0.0
C696 C 0.48091 0.78955 0.57165 0.0
N697 N 0.46844 0.81769 0.56039 0.0
N698 N 0.47892 0.80156 0.58726 0.0
H699 H 0.46648 0.8303 0.58935 0.0
H700 H 0.47286 0.79276 0.54099 0.0
C701 C 0.41379 0.81958 0.53691 0.0
O702 O 0.41153 0.83055 0.52117 0.0
N703 N 0.43975 0.85674 0.52966 0.0
C704 C 0.44486 0.86649 0.5132 0.0
C705 C 0.43193 0.88211 0.51065 0.0
C706 C 0.42414 0.86667 0.53694 0.0
N707 N 0.41895 0.88225 0.52575 0.0
C708 C 0.48431 0.82623 0.51721 0.0
C709 C 0.4646 0.79436 0.50152 0.0
C710 C 0.48533 0.79415 0.50117 0.0
C711 C 0.49493 0.81143 0.50747 0.0
C712 C 0.45453 0.80965 0.51103 0.0
N713 N 0.46457 0.82427 0.52062 0.0
H714 H 0.49246 0.83805 0.52401 0.0
H715 H 0.43894 0.80807 0.51239 0.0
H716 H 0.45762 0.86319 0.50428 0.0
H717 H 0.41693 0.86256 0.55051 0.0
O718 O 0.47489 0.85664 0.54934 0.0
O719 O 0.44863 0.8521 0.56797 0.0
O720 O 0.43023 0.81934 0.5462 0.0
C721 C 0.46486 0.86171 0.56487 0.0
H722 H 0.48553 0.77432 0.57221 0.0
H723 H 0.43272 0.89303 0.4991 0.0
H724 H 0.45605 0.78193 0.49648 0.0
H725 H 0.51076 0.81294 0.50643 0.0
Co726 Co 0.91858 0.70092 0.29083 0.0
C727 C 0.95003 0.71198 0.31867 0.0
C728 C 0.92862 0.73492 0.3165 0.0
C729 C 0.94121 0.73922 0.33179 0.0
N730 N 0.93391 0.71752 0.30851 0.0
N731 N 0.95449 0.72454 0.33341 0.0
H732 H 0.9577 0.69835 0.31619 0.0
H733 H 0.91565 0.74328 0.31261 0.0
C734 C 0.94227 0.66264 0.28694 0.0
O735 O 0.93222 0.65633 0.27168 0.0
N736 N 0.90271 0.68402 0.27407 0.0
C737 C 0.89423 0.68799 0.25659 0.0
C738 C 0.87989 0.6739 0.25293 0.0
C739 C 0.89329 0.66784 0.28078 0.0
N740 N 0.8793 0.66123 0.26827 0.0
C741 C 0.93521 0.73215 0.26825 0.0
C742 C 0.96365 0.70922 0.25041 0.0
C743 C 0.96731 0.72937 0.25271 0.0
C744 C 0.95214 0.74108 0.26051 0.0
C745 C 0.94637 0.70098 0.25811 0.0
N746 N 0.93346 0.71213 0.26877 0.0
H747 H 0.92465 0.74119 0.27596 0.0
H748 H 0.94427 0.68548 0.25655 0.0
H749 H 0.8973 0.70087 0.24777 0.0
H750 H 0.89585 0.66179 0.29527 0.0
O751 O 0.89629 0.71914 0.2926 0.0
O752 O 0.90186 0.69399 0.31254 0.0
O753 O 0.9387 0.67934 0.2948 0.0
C754 C 0.89073 0.70875 0.30778 0.0
H755 H 0.93935 0.75121 0.3421 0.0
H756 H 0.87016 0.67354 0.24031 0.0
H757 H 0.97452 0.69971 0.24366 0.0
H758 H 0.95408 0.75679 0.26229 0.0
Co759 Co 0.5899 0.31026 0.79695 0.0
C760 C 0.56152 0.29438 0.82632 0.0
C761 C 0.56319 0.32596 0.82633 0.0
C762 C 0.54898 0.32039 0.8394 0.0
N763 N 0.57087 0.30974 0.81793 0.0
N764 N 0.54787 0.30059 0.83941 0.0
H765 H 0.56479 0.27912 0.82318 0.0
H766 H 0.56777 0.34091 0.82347 0.0
C767 C 0.57493 0.34506 0.77377 0.0
O768 O 0.57522 0.33529 0.7571 0.0
N769 N 0.60975 0.31259 0.77644 0.0
C770 C 0.62309 0.29891 0.7709 0.0
C771 C 0.64084 0.3082 0.76673 0.0
C772 C 0.6196 0.32982 0.77496 0.0
N773 N 0.63858 0.32768 0.76966 0.0
C774 C 0.57246 0.27877 0.77344 0.0
C775 C 0.53537 0.29567 0.77305 0.0
C776 C 0.53706 0.27592 0.76768 0.0
C777 C 0.55603 0.26758 0.76715 0.0
C778 C 0.55176 0.30598 0.77958 0.0
N779 N 0.57012 0.29765 0.78004 0.0
H780 H 0.58669 0.27175 0.77453 0.0
H781 H 0.54901 0.32005 0.78627 0.0
H782 H 0.62122 0.28324 0.77285 0.0
H783 H 0.61427 0.34335 0.78139 0.0
O784 O 0.60307 0.28718 0.80791 0.0
O785 O 0.60984 0.31808 0.81559 0.0
O786 O 0.5801 0.33712 0.78993 0.0
C787 C 0.61368 0.29952 0.81811 0.0
H788 H 0.54098 0.33012 0.84916 0.0
H789 H 0.65486 0.30094 0.76456 0.0
H790 H 0.52107 0.30271 0.77383 0.0
H791 H 0.55796 0.25223 0.76333 0.0
Co792 Co 0.54194 0.55267 0.66519 0.0
C793 C 0.57302 0.54711 0.69432 0.0
C794 C 0.55752 0.52004 0.68964 0.0
C795 C 0.57275 0.51664 0.70263 0.0
N796 N 0.55768 0.53922 0.6846 0.0
N797 N 0.58245 0.53372 0.70553 0.0
H798 H 0.57806 0.56204 0.69211 0.0
H799 H 0.54775 0.50904 0.6836 0.0
C800 C 0.53726 0.59459 0.67961 0.0
O801 O 0.52031 0.5961 0.67038 0.0
N802 N 0.52712 0.56658 0.64516 0.0
C803 C 0.50923 0.56336 0.63726 0.0
C804 C 0.50653 0.57659 0.62189 0.0
C805 C 0.53506 0.58124 0.63441 0.0
N806 N 0.5229 0.58785 0.62013 0.0
C807 C 0.51202 0.52687 0.67986 0.0
C808 C 0.50471 0.54795 0.71373 0.0
C809 C 0.50178 0.52757 0.71427 0.0
C810 C 0.50418 0.51727 0.69644 0.0
C811 C 0.51329 0.55672 0.69724 0.0
N812 N 0.5185 0.54589 0.68103 0.0
H813 H 0.5154 0.5181 0.66706 0.0
H814 H 0.5171 0.57183 0.69886 0.0
H815 H 0.49909 0.55206 0.642 0.0
H816 H 0.54953 0.58709 0.63745 0.0
O817 O 0.54332 0.52979 0.64775 0.0
O818 O 0.56492 0.55415 0.64842 0.0
O819 O 0.54658 0.57821 0.67993 0.0
C820 C 0.55942 0.53752 0.64082 0.0
H821 H 0.57684 0.50254 0.70879 0.0
H822 H 0.49364 0.57748 0.61256 0.0
H823 H 0.5019 0.55701 0.72653 0.0
H824 H 0.50182 0.50155 0.69562 0.0
Co825 Co 0.70434 0.29417 0.92301 0.0
C826 C 0.72119 0.32772 0.94544 0.0
C827 C 0.71361 0.30359 0.96413 0.0
C828 C 0.71801 0.31949 0.9758 0.0
N829 N 0.71551 0.30871 0.94499 0.0
N830 N 0.72265 0.33464 0.96398 0.0
H831 H 0.72199 0.33711 0.93264 0.0
H832 H 0.70739 0.28998 0.96937 0.0
C833 C 0.66302 0.28308 0.9361 0.0
O834 O 0.66216 0.26872 0.9232 0.0
N835 N 0.69241 0.28028 0.90103 0.0
C836 C 0.69746 0.26346 0.89182 0.0
C837 C 0.68551 0.26128 0.87531 0.0
C838 C 0.67785 0.28809 0.88998 0.0
N839 N 0.67335 0.27697 0.8742 0.0
C840 C 0.73534 0.26988 0.93685 0.0
C841 C 0.71262 0.2483 0.96266 0.0
C842 C 0.73272 0.25068 0.96678 0.0
C843 C 0.74436 0.26033 0.95277 0.0
C844 C 0.70423 0.25783 0.94635 0.0
N845 N 0.71528 0.27015 0.93489 0.0
H846 H 0.74433 0.27936 0.92782 0.0
H847 H 0.68861 0.2568 0.94458 0.0
H848 H 0.70927 0.2538 0.89636 0.0
H849 H 0.67052 0.30176 0.89356 0.0
O850 O 0.72614 0.30149 0.90563 0.0
O851 O 0.69875 0.31859 0.90945 0.0
O852 O 0.67894 0.29287 0.93862 0.0
C853 C 0.71557 0.31665 0.90054 0.0
H854 H 0.71606 0.3204 0.99159 0.0
H855 H 0.68626 0.24951 0.8646 0.0
H856 H 0.70315 0.24052 0.97285 0.0
H857 H 0.75999 0.26242 0.95525 0.0
Co858 Co 0.95828 0.45168 0.16812 0.0
C859 C 0.92258 0.46996 0.18546 0.0
C860 C 0.94409 0.46302 0.20735 0.0
C861 C 0.92697 0.46831 0.21669 0.0
N862 N 0.94135 0.46388 0.18767 0.0
N863 N 0.91332 0.47223 0.20287 0.0
H864 H 0.91508 0.47089 0.17149 0.0
H865 H 0.95674 0.45673 0.21458 0.0
C866 C 0.97087 0.41288 0.18648 0.0
O867 O 0.98671 0.41182 0.17545 0.0
N868 N 0.9746 0.43882 0.14848 0.0
C869 C 0.98903 0.44629 0.13712 0.0
C870 C 0.99201 0.4337 0.12127 0.0
C871 C 0.96898 0.42209 0.13931 0.0
N872 N 0.97914 0.41858 0.12261 0.0
C873 C 0.97992 0.48535 0.17931 0.0
C874 C 0.99669 0.46844 0.21225 0.0
C875 C 0.99229 0.48862 0.21271 0.0
C876 C 0.98558 0.49724 0.19515 0.0
C877 C 0.99097 0.45707 0.1959 0.0
N878 N 0.98051 0.46532 0.18075 0.0
H879 H 0.97241 0.49226 0.16715 0.0
H880 H 0.99287 0.44146 0.19695 0.0
H881 H 0.99581 0.46052 0.1393 0.0
H882 H 0.95689 0.41312 0.14448 0.0
O883 O 0.95074 0.47119 0.14831 0.0
O884 O 0.93548 0.44297 0.15336 0.0
O885 O 0.95983 0.42811 0.18614 0.0
C886 C 0.93679 0.45907 0.14316 0.0
H887 H 0.92409 0.46678 0.23228 0.0
H888 H 1.00187 0.43627 0.10903 0.0
H889 H 1.00249 0.46106 0.22512 0.0
H890 H 0.98294 0.51293 0.19426 0.0
Co891 Co 0.8046 0.70801 0.416 0.0
C892 C 0.78775 0.67631 0.44152 0.0
C893 C 0.79924 0.70055 0.45801 0.0
C894 C 0.79317 0.68647 0.47104 0.0
N895 N 0.79574 0.69435 0.43944 0.0
N896 N 0.78616 0.67114 0.46067 0.0
H897 H 0.78473 0.66644 0.42941 0.0
H898 H 0.80709 0.71374 0.46199 0.0
C899 C 0.84627 0.72134 0.4257 0.0
O900 O 0.84642 0.73437 0.41146 0.0
N901 N 0.81391 0.72158 0.39262 0.0
C902 C 0.80713 0.73799 0.38378 0.0
C903 C 0.81726 0.74056 0.36623 0.0
C904 C 0.8277 0.71435 0.38029 0.0
N905 N 0.83008 0.72552 0.36407 0.0
C906 C 0.77263 0.73097 0.42948 0.0
C907 C 0.79489 0.75263 0.45572 0.0
C908 C 0.77512 0.74871 0.46029 0.0
C909 C 0.76358 0.73921 0.44608 0.0
C910 C 0.80328 0.74447 0.43865 0.0
N911 N 0.79262 0.73181 0.42715 0.0
H912 H 0.76393 0.72136 0.4203 0.0
H913 H 0.81885 0.74626 0.43646 0.0
H914 H 0.79538 0.74716 0.38937 0.0
H915 H 0.83612 0.7012 0.38336 0.0
O916 O 0.7826 0.69796 0.40025 0.0
O917 O 0.81139 0.68324 0.40371 0.0
O918 O 0.83059 0.71188 0.43003 0.0
C919 C 0.79412 0.68337 0.39548 0.0
H920 H 0.79516 0.68688 0.48684 0.0
H921 H 0.81496 0.75225 0.35567 0.0
H922 H 0.80422 0.76032 0.46612 0.0
H923 H 0.7482 0.73605 0.44891 0.0
Co924 Co 0.54768 0.44867 0.83136 0.0
C925 C 0.58218 0.4552 0.80692 0.0
C926 C 0.56594 0.48206 0.81043 0.0
C927 C 0.58204 0.4857 0.79859 0.0
N928 N 0.56619 0.46291 0.81554 0.0
N929 N 0.59205 0.4687 0.79633 0.0
H930 H 0.58693 0.44016 0.80902 0.0
H931 H 0.55496 0.4926 0.81507 0.0
C932 C 0.54032 0.41178 0.80805 0.0
O933 O 0.52146 0.4125 0.81235 0.0
N934 N 0.52972 0.43364 0.84779 0.0
C935 C 0.51449 0.44002 0.85875 0.0
C936 C 0.51074 0.42629 0.87334 0.0
C937 C 0.53495 0.41626 0.85592 0.0
N938 N 0.52384 0.41138 0.87173 0.0
C939 C 0.51562 0.47447 0.81938 0.0
C940 C 0.51762 0.46432 0.77997 0.0
C941 C 0.50692 0.48103 0.78511 0.0
C942 C 0.50567 0.48598 0.8052 0.0
C943 C 0.52796 0.45396 0.79425 0.0
N944 N 0.52696 0.45879 0.81383 0.0
H945 H 0.51566 0.47929 0.83453 0.0
H946 H 0.53855 0.44359 0.78878 0.0
H947 H 0.50778 0.45438 0.85755 0.0
H948 H 0.54781 0.40822 0.85115 0.0
O949 O 0.5493 0.46936 0.85146 0.0
O950 O 0.56811 0.4428 0.8499 0.0
O951 O 0.55208 0.42494 0.81441 0.0
C952 C 0.56364 0.45895 0.85897 0.0
H953 H 0.58618 0.49975 0.79234 0.0
H954 H 0.50022 0.42808 0.88515 0.0
H955 H 0.51981 0.46046 0.76464 0.0
H956 H 0.49795 0.49914 0.80978 0.0
Co957 Co 0.80113 0.29149 0.08679 0.0
C958 C 0.78265 0.32627 0.06781 0.0
C959 C 0.78179 0.30147 0.0486 0.0
C960 C 0.77453 0.31744 0.03862 0.0
N961 N 0.78676 0.30684 0.06711 0.0
N962 N 0.77525 0.33311 0.05069 0.0
H963 H 0.78663 0.33577 0.07989 0.0
H964 H 0.78452 0.28743 0.04193 0.0
C965 C 0.84152 0.28358 0.06946 0.0
O966 O 0.84378 0.26814 0.08085 0.0
N967 N 0.81576 0.27701 0.10668 0.0
C968 C 0.8121 0.25944 0.11505 0.0
C969 C 0.82562 0.25651 0.13011 0.0
C970 C 0.83108 0.28455 0.11691 0.0
N971 N 0.83761 0.27237 0.1312 0.0
C972 C 0.77091 0.26431 0.07621 0.0
C973 C 0.79061 0.2482 0.04458 0.0
C974 C 0.76987 0.24853 0.04401 0.0
C975 C 0.76023 0.25488 0.06124 0.0
C976 C 0.80073 0.25742 0.06007 0.0
N977 N 0.79072 0.26735 0.07446 0.0
H978 H 0.76277 0.27132 0.08791 0.0
H979 H 0.81639 0.25838 0.05877 0.0
H980 H 0.80027 0.24965 0.11085 0.0
H981 H 0.83712 0.29897 0.11403 0.0
O982 O 0.78059 0.29655 0.10638 0.0
O983 O 0.80669 0.31526 0.1013 0.0
O984 O 0.82507 0.29282 0.06892 0.0
C985 C 0.79059 0.3122 0.11114 0.0
H986 H 0.77039 0.31772 0.02324 0.0
H987 H 0.8264 0.24372 0.13955 0.0
H988 H 0.7992 0.24296 0.03227 0.0
H989 H 0.74438 0.2542 0.06258 0.0
Co990 Co 0.9596 0.56645 0.34154 0.0
C991 C 0.9288 0.55143 0.31437 0.0
C992 C 0.92829 0.58292 0.31739 0.0
C993 C 0.91457 0.57762 0.30361 0.0
N994 N 0.93737 0.56657 0.32394 0.0
N995 N 0.91495 0.5579 0.30165 0.0
H996 H 0.93259 0.53613 0.31662 0.0
H997 H 0.9313 0.59773 0.32233 0.0
C998 C 0.98187 0.60168 0.32573 0.0
O999 O 0.99841 0.59181 0.32403 0.0
N1000 N 0.98151 0.56783 0.3599 0.0
C1001 C 0.98824 0.55332 0.37168 0.0
C1002 C 0.99465 0.56148 0.38924 0.0
C1003 C 0.98441 0.58447 0.37045 0.0
N1004 N 0.99221 0.58113 0.38838 0.0
C1005 C 0.98163 0.53498 0.3223 0.0
C1006 C 0.98021 0.55214 0.28542 0.0
C1007 C 0.98592 0.53241 0.28668 0.0
C1008 C 0.98729 0.52399 0.30556 0.0
C1009 C 0.97446 0.56235 0.30222 0.0
N1010 N 0.97496 0.55388 0.32049 0.0
H1011 H 0.9812 0.52778 0.33644 0.0
H1012 H 0.96781 0.57656 0.30005 0.0
H1013 H 0.98571 0.53782 0.36923 0.0
H1014 H 0.9774 0.59828 0.36678 0.0
O1015 O 0.94899 0.54336 0.35496 0.0
O1016 O 0.94252 0.57431 0.3627 0.0
O1017 O 0.96624 0.59349 0.33201 0.0
C1018 C 0.93968 0.55576 0.36629 0.0
H1019 H 0.90436 0.58745 0.29629 0.0
H1020 H 0.99817 0.55339 0.4025 0.0
H1021 H 0.97898 0.55941 0.27129 0.0
H1022 H 0.9914 0.50869 0.30728 0.0
Co1023 Co 0.70529 0.70148 0.58043 0.0
C1024 C 0.7243 0.66818 0.55909 0.0
C1025 C 0.71434 0.69069 0.53953 0.0
C1026 C 0.72064 0.675 0.52844 0.0
N1027 N 0.71649 0.6864 0.55883 0.0
N1028 N 0.7268 0.66081 0.54078 0.0
H1029 H 0.72604 0.65945 0.57225 0.0
H1030 H 0.70694 0.7035 0.53378 0.0
C1031 C 0.66517 0.71503 0.56588 0.0
O1032 O 0.6651 0.73 0.5781 0.0
N1033 N 0.69363 0.71633 0.60195 0.0
C1034 C 0.69994 0.73274 0.61108 0.0
C1035 C 0.68751 0.73657 0.62684 0.0
C1036 C 0.67781 0.71031 0.61238 0.0
N1037 N 0.67359 0.72236 0.62765 0.0
C1038 C 0.73801 0.72511 0.56923 0.0
C1039 C 0.71877 0.74512 0.53961 0.0
C1040 C 0.73933 0.74285 0.53803 0.0
C1041 C 0.74896 0.73415 0.55423 0.0
C1042 C 0.70845 0.7364 0.55523 0.0
N1043 N 0.7179 0.72479 0.56869 0.0
H1044 H 0.74584 0.7165 0.58005 0.0
H1045 H 0.69273 0.73738 0.5548 0.0
H1046 H 0.71283 0.74109 0.60691 0.0
H1047 H 0.66937 0.69739 0.6085 0.0
O1048 O 0.72601 0.69277 0.59863 0.0
O1049 O 0.69779 0.67744 0.59389 0.0
O1050 O 0.6804 0.70406 0.56414 0.0
C1051 C 0.71438 0.67826 0.60338 0.0
H1052 H 0.71889 0.67335 0.51268 0.0
H1053 H 0.68901 0.7486 0.63716 0.0
H1054 H 0.71021 0.75203 0.52813 0.0
H1055 H 0.76483 0.73302 0.55485 0.0
Co1056 Co 0.66201 0.54564 0.56474 0.0
C1057 C 0.69125 0.57424 0.54923 0.0
C1058 C 0.68782 0.5757 0.58065 0.0
C1059 C 0.70253 0.58832 0.57531 0.0
N1060 N 0.68092 0.56669 0.56439 0.0
N1061 N 0.70476 0.58736 0.55562 0.0
H1062 H 0.68889 0.57033 0.53396 0.0
H1063 H 0.68244 0.57344 0.59545 0.0
C1064 C 0.67578 0.52305 0.6005 0.0
O1065 O 0.67562 0.50627 0.59093 0.0
N1066 N 0.64231 0.52505 0.56678 0.0
C1067 C 0.62996 0.51815 0.55281 0.0
C1068 C 0.61253 0.51223 0.56174 0.0
C1069 C 0.63216 0.52311 0.58376 0.0
N1070 N 0.61404 0.51548 0.58129 0.0
C1071 C 0.6804 0.52247 0.53373 0.0
C1072 C 0.71707 0.52221 0.55151 0.0
C1073 C 0.71595 0.51734 0.53155 0.0
C1074 C 0.69715 0.51667 0.5228 0.0
C1075 C 0.70033 0.52824 0.5616 0.0
N1076 N 0.68219 0.52873 0.55279 0.0
H1077 H 0.66635 0.52356 0.52634 0.0
H1078 H 0.70264 0.53468 0.57588 0.0
H1079 H 0.63226 0.51965 0.53715 0.0
H1080 H 0.63654 0.53033 0.59725 0.0
O1081 O 0.64943 0.5561 0.54113 0.0
O1082 O 0.64175 0.56426 0.5717 0.0
O1083 O 0.67114 0.53913 0.59207 0.0
C1084 C 0.63848 0.56649 0.55297 0.0
H1085 H 0.71025 0.59833 0.58504 0.0
H1086 H 0.59924 0.50765 0.55421 0.0
H1087 H 0.73117 0.52294 0.55896 0.0
H1088 H 0.69558 0.51316 0.50733 0.0
Co1089 Co 0.71317 0.4142 0.80104 0.0
C1090 C 0.67776 0.43327 0.78341 0.0
C1091 C 0.70235 0.4528 0.78426 0.0
C1092 C 0.68628 0.46319 0.77802 0.0
N1093 N 0.69728 0.43383 0.78732 0.0
N1094 N 0.67065 0.45103 0.77784 0.0
H1095 H 0.66849 0.42074 0.7865 0.0
H1096 H 0.71622 0.45939 0.7881 0.0
C1097 C 0.72046 0.43177 0.84167 0.0
O1098 O 0.73537 0.4199 0.84487 0.0
N1099 N 0.72828 0.39457 0.81541 0.0
C1100 C 0.74638 0.38711 0.81217 0.0
C1101 C 0.74992 0.37247 0.82598 0.0
C1102 C 0.72105 0.38417 0.83073 0.0
N1103 N 0.73395 0.37079 0.83774 0.0
C1104 C 0.73817 0.42833 0.77045 0.0
C1105 C 0.75675 0.45634 0.79333 0.0
C1106 C 0.75466 0.4599 0.7731 0.0
C1107 C 0.74684 0.44477 0.76141 0.0
C1108 C 0.74808 0.4396 0.80172 0.0
N1109 N 0.73691 0.42713 0.79052 0.0
H1110 H 0.72976 0.41834 0.76138 0.0
H1111 H 0.74871 0.43816 0.81738 0.0
H1112 H 0.75622 0.3918 0.80058 0.0
H1113 H 0.70648 0.38651 0.83669 0.0
O1114 O 0.70841 0.39468 0.78032 0.0
O1115 O 0.68984 0.39898 0.80664 0.0
O1116 O 0.71173 0.43205 0.82495 0.0
C1117 C 0.69321 0.3891 0.79062 0.0
H1118 H 0.68591 0.47889 0.77549 0.0
H1119 H 0.76327 0.36387 0.8273 0.0
H1120 H 0.76332 0.46732 0.80285 0.0
H1121 H 0.74514 0.44673 0.74568 0.0
Co1122 Co 0.83167 0.45357 0.05236 0.0
C1123 C 0.80371 0.42116 0.0475 0.0
C1124 C 0.80771 0.43688 0.02042 0.0
C1125 C 0.79482 0.42161 0.01709 0.0
N1126 N 0.81321 0.43649 0.03947 0.0
N1127 N 0.79234 0.4118 0.03417 0.0
H1128 H 0.80596 0.41629 0.0625 0.0
H1129 H 0.81314 0.44713 0.00955 0.0
C1130 C 0.8147 0.46266 0.09234 0.0
O1131 O 0.82223 0.48045 0.09163 0.0
N1132 N 0.8508 0.47029 0.06542 0.0
C1133 C 0.8606 0.48607 0.05853 0.0
C1134 C 0.87678 0.48945 0.07054 0.0
C1135 C 0.86117 0.4643 0.08128 0.0
N1136 N 0.87722 0.47552 0.08472 0.0
C1137 C 0.81966 0.48445 0.02549 0.0
C1138 C 0.78189 0.48741 0.04036 0.0
C1139 C 0.78541 0.49489 0.02154 0.0
C1140 C 0.80486 0.49394 0.01437 0.0
C1141 C 0.79673 0.47769 0.05061 0.0
N1142 N 0.81534 0.47565 0.04308 0.0
H1143 H 0.83403 0.48244 0.01898 0.0
H1144 H 0.79199 0.46991 0.06345 0.0
H1145 H 0.8572 0.49367 0.04499 0.0
H1146 H 0.85744 0.45122 0.08952 0.0
O1147 O 0.85023 0.4499 0.03039 0.0
O1148 O 0.84876 0.43166 0.05726 0.0
O1149 O 0.81637 0.45093 0.07771 0.0
C1150 C 0.85735 0.43528 0.04066 0.0
H1151 H 0.78833 0.41763 0.00309 0.0
H1152 H 0.88806 0.50043 0.06813 0.0
H1153 H 0.76715 0.48713 0.04646 0.0
H1154 H 0.80838 0.4995 0.99987 0.0
Co1155 Co 0.79979 0.57955 0.3015 0.0
C1156 C 0.83275 0.55846 0.28179 0.0
C1157 C 0.81121 0.53859 0.29311 0.0
C1158 C 0.82727 0.52784 0.28706 0.0
N1159 N 0.81467 0.55791 0.28999 0.0
N1160 N 0.8409 0.54042 0.28012 0.0
H1161 H 0.84099 0.57181 0.27936 0.0
H1162 H 0.79892 0.53269 0.30124 0.0
C1163 C 0.78866 0.56609 0.3425 0.0
O1164 O 0.77297 0.57739 0.34245 0.0
N1165 N 0.7853 0.60113 0.31351 0.0
C1166 C 0.76754 0.60875 0.30908 0.0
C1167 C 0.76371 0.62412 0.32196 0.0
C1168 C 0.7921 0.61212 0.32864 0.0
N1169 N 0.77918 0.62613 0.33437 0.0
C1170 C 0.77321 0.56834 0.27096 0.0
C1171 C 0.75626 0.53744 0.29105 0.0
C1172 C 0.75616 0.53677 0.27036 0.0
C1173 C 0.76332 0.55353 0.26049 0.0
C1174 C 0.76577 0.55284 0.30095 0.0
N1175 N 0.77585 0.56704 0.29085 0.0
H1176 H 0.78047 0.57977 0.26269 0.0
H1177 H 0.7668 0.55152 0.31659 0.0
H1178 H 0.75798 0.60349 0.29747 0.0
H1179 H 0.80627 0.60964 0.33544 0.0
O1180 O 0.8067 0.59711 0.27967 0.0
O1181 O 0.82399 0.59362 0.30695 0.0
O1182 O 0.79922 0.5642 0.32702 0.0
C1183 C 0.82192 0.6024 0.29011 0.0
H1184 H 0.82962 0.51231 0.28967 0.0
H1185 H 0.75042 0.63289 0.32226 0.0
H1186 H 0.75075 0.52538 0.2998 0.0
H1187 H 0.7626 0.55473 0.24464 0.0
Co1188 Co 0.66797 0.45641 0.94867 0.0
C1189 C 0.68986 0.42213 0.96563 0.0
C1190 C 0.70869 0.44646 0.95889 0.0
C1191 C 0.72025 0.43107 0.96486 0.0
N1192 N 0.68955 0.44101 0.95946 0.0
N1193 N 0.70842 0.41575 0.96894 0.0
H1194 H 0.67707 0.41267 0.9661 0.0
H1195 H 0.71416 0.46018 0.95315 0.0
C1196 C 0.68211 0.468 0.90773 0.0
O1197 O 0.66816 0.48117 0.90551 0.0
N1198 N 0.64645 0.47164 0.93745 0.0
C1199 C 0.63849 0.48884 0.94336 0.0
C1200 C 0.62157 0.49234 0.9324 0.0
C1201 C 0.6342 0.46491 0.9233 0.0
N1202 N 0.61888 0.47708 0.91997 0.0
C1203 C 0.68157 0.47883 0.98112 0.0
C1204 C 0.70788 0.50127 0.95971 0.0
C1205 C 0.7117 0.49794 0.97974 0.0
C1206 C 0.69744 0.48784 0.99073 0.0
C1207 C 0.69152 0.49231 0.95073 0.0
N1208 N 0.67988 0.47957 0.9611 0.0
H1209 H 0.67234 0.46897 0.98948 0.0
H1210 H 0.68974 0.49399 0.93511 0.0
H1211 H 0.64411 0.49787 0.95521 0.0
H1212 H 0.63649 0.45123 0.91549 0.0
O1213 O 0.64995 0.44776 0.96948 0.0
O1214 O 0.65437 0.43267 0.94103 0.0
O1215 O 0.68442 0.45896 0.92406 0.0
C1216 C 0.64492 0.43351 0.95761 0.0
H1217 H 0.7362 0.43076 0.96489 0.0
H1218 H 0.61162 0.50467 0.93403 0.0
H1219 H 0.71821 0.50947 0.95078 0.0
H1220 H 0.69963 0.48503 0.00627 0.0
Co1221 Co 0.79121 0.41569 0.20303 0.0
C1222 C 0.82668 0.43715 0.21658 0.0
C1223 C 0.80152 0.45595 0.21577 0.0
C1224 C 0.81785 0.46738 0.21914 0.0
N1225 N 0.80695 0.43685 0.21428 0.0
N1226 N 0.83363 0.4555 0.2194 0.0
H1227 H 0.83621 0.42468 0.214 0.0
H1228 H 0.78717 0.4617 0.2123 0.0
C1229 C 0.77963 0.43031 0.16232 0.0
O1230 O 0.76496 0.41778 0.16108 0.0
N1231 N 0.77611 0.3945 0.19115 0.0
C1232 C 0.75958 0.38531 0.19713 0.0
C1233 C 0.75619 0.36939 0.18473 0.0
C1234 C 0.78262 0.38392 0.17566 0.0
N1235 N 0.77072 0.3687 0.17116 0.0
C1236 C 0.7684 0.42928 0.23529 0.0
C1237 C 0.74651 0.45582 0.21364 0.0
C1238 C 0.75004 0.45978 0.2336 0.0
C1239 C 0.75966 0.44537 0.24479 0.0
C1240 C 0.75529 0.43937 0.20479 0.0
N1241 N 0.76791 0.42767 0.21523 0.0
H1242 H 0.77807 0.41993 0.24377 0.0
H1243 H 0.75363 0.43768 0.1892 0.0
H1244 H 0.75091 0.38952 0.20979 0.0
H1245 H 0.79613 0.38728 0.16796 0.0
O1246 O 0.79929 0.39752 0.22393 0.0
O1247 O 0.8148 0.40173 0.19567 0.0
O1248 O 0.78938 0.43229 0.17833 0.0
C1249 C 0.8137 0.39242 0.21231 0.0
H1250 H 0.81839 0.48329 0.21876 0.0
H1251 H 0.74405 0.35912 0.18574 0.0
H1252 H 0.7387 0.46634 0.20457 0.0
H1253 H 0.76257 0.44774 0.26029 0.0
Co1254 Co 0.83367 0.55161 0.45523 0.0
C1255 C 0.8103 0.58424 0.47298 0.0
C1256 C 0.79212 0.56054 0.4631 0.0
C1257 C 0.7801 0.57567 0.46883 0.0
N1258 N 0.81115 0.56578 0.46575 0.0
N1259 N 0.79156 0.59067 0.47477 0.0
H1260 H 0.82297 0.59367 0.4748 0.0
H1261 H 0.78709 0.5476 0.45547 0.0
C1262 C 0.82066 0.53704 0.41515 0.0
O1263 O 0.83343 0.52254 0.4156 0.0
N1264 N 0.85607 0.53779 0.44411 0.0
C1265 C 0.86575 0.52161 0.45028 0.0
C1266 C 0.8824 0.51916 0.43865 0.0
C1267 C 0.86695 0.54495 0.42913 0.0
N1268 N 0.88311 0.53405 0.42552 0.0
C1269 C 0.82384 0.52782 0.48779 0.0
C1270 C 0.79243 0.50957 0.46951 0.0
C1271 C 0.79111 0.51361 0.48973 0.0
C1272 C 0.80806 0.52094 0.49907 0.0
C1273 C 0.80874 0.5165 0.45876 0.0
N1274 N 0.82284 0.52784 0.46772 0.0
H1275 H 0.8354 0.53573 0.49528 0.0
H1276 H 0.80813 0.51508 0.44306 0.0
H1277 H 0.86145 0.51264 0.4627 0.0
H1278 H 0.86315 0.55811 0.42102 0.0
O1279 O 0.85097 0.56107 0.4763 0.0
O1280 O 0.84621 0.57625 0.44804 0.0
O1281 O 0.81814 0.54815 0.43012 0.0
C1282 C 0.85545 0.57569 0.46478 0.0
H1283 H 0.7643 0.57634 0.46681 0.0
H1284 H 0.89353 0.50788 0.4403 0.0
H1285 H 0.78009 0.50328 0.46161 0.0
H1286 H 0.80836 0.52324 0.51484 0.0
Co1287 Co 0.70646 0.5809 0.70381 0.0
C1288 C 0.66925 0.56573 0.72085 0.0
C1289 C 0.69297 0.54579 0.72613 0.0
C1290 C 0.67575 0.53687 0.73181 0.0
N1291 N 0.68905 0.5641 0.71938 0.0
N1292 N 0.66079 0.54935 0.72825 0.0
H1293 H 0.66084 0.57775 0.71472 0.0
H1294 H 0.70695 0.53837 0.7253 0.0
C1295 C 0.71199 0.55833 0.66557 0.0
O1296 O 0.72748 0.56878 0.66062 0.0
N1297 N 0.72301 0.59788 0.6876 0.0
C1298 C 0.74095 0.6054 0.69144 0.0
C1299 C 0.74521 0.6196 0.67742 0.0
C1300 C 0.7166 0.60777 0.67151 0.0
N1301 N 0.7298 0.62112 0.66485 0.0
C1302 C 0.73175 0.56885 0.73548 0.0
C1303 C 0.74888 0.53778 0.71568 0.0
C1304 C 0.74862 0.53712 0.73637 0.0
C1305 C 0.74136 0.55395 0.74615 0.0
C1306 C 0.73956 0.55318 0.70563 0.0
N1307 N 0.72933 0.56738 0.71556 0.0
H1308 H 0.72424 0.58031 0.74354 0.0
H1309 H 0.73936 0.55241 0.68995 0.0
H1310 H 0.74996 0.60149 0.70398 0.0
H1311 H 0.70211 0.60568 0.66527 0.0
O1312 O 0.70309 0.60259 0.72247 0.0
O1313 O 0.68441 0.59705 0.69636 0.0
O1314 O 0.70346 0.56085 0.68212 0.0
C1315 C 0.68827 0.60802 0.71152 0.0
H1316 H 0.67426 0.52178 0.73663 0.0
H1317 H 0.75847 0.62838 0.67688 0.0
H1318 H 0.75467 0.52576 0.70702 0.0
H1319 H 0.74173 0.55506 0.76202 0.0
Co1320 Co 0.55198 0.67353 0.54348 0.0
C1321 C 0.5355 0.69624 0.57705 0.0
C1322 C 0.54304 0.71471 0.55273 0.0
C1323 C 0.53844 0.72652 0.56844 0.0
N1324 N 0.54124 0.69565 0.55806 0.0
N1325 N 0.53383 0.71486 0.58372 0.0
H1326 H 0.53468 0.68352 0.58654 0.0
H1327 H 0.54923 0.71986 0.53907 0.0
C1328 C 0.59327 0.68617 0.53173 0.0
O1329 O 0.59378 0.67338 0.51725 0.0
N1330 N 0.56347 0.65139 0.52953 0.0
C1331 C 0.55699 0.64102 0.51389 0.0
C1332 C 0.56831 0.62403 0.51227 0.0
C1333 C 0.57827 0.64056 0.53719 0.0
N1334 N 0.5815 0.6238 0.52716 0.0
C1335 C 0.52062 0.68715 0.51956 0.0
C1336 C 0.54298 0.71324 0.49794 0.0
C1337 C 0.52292 0.71729 0.50069 0.0
C1338 C 0.51143 0.70314 0.51031 0.0
C1339 C 0.55153 0.69686 0.50716 0.0
N1340 N 0.54069 0.68529 0.51957 0.0
H1341 H 0.51178 0.67801 0.52907 0.0
H1342 H 0.56715 0.69516 0.50596 0.0
H1343 H 0.54437 0.64492 0.50499 0.0
H1344 H 0.58633 0.64473 0.55029 0.0
O1345 O 0.53018 0.65638 0.55138 0.0
O1346 O 0.55805 0.66003 0.56777 0.0
O1347 O 0.57748 0.68891 0.54165 0.0
C1348 C 0.54122 0.65107 0.56615 0.0
H1349 H 0.54014 0.74235 0.56913 0.0
H1350 H 0.56623 0.61228 0.50171 0.0
H1351 H 0.55232 0.72356 0.49016 0.0
H1352 H 0.49584 0.70557 0.51266 0.0
Co1353 Co 0.05713 0.83753 0.46046 0.0
C1354 C 0.03998 0.81725 0.42548 0.0
C1355 C 0.04296 0.79775 0.44994 0.0
C1356 C 0.03619 0.78716 0.43416 0.0
N1357 N 0.0451 0.81679 0.44469 0.0
N1358 N 0.03455 0.79938 0.41864 0.0
H1359 H 0.04181 0.82995 0.41617 0.0
H1360 H 0.04728 0.79146 0.46381 0.0
C1361 C 0.09798 0.82233 0.47086 0.0
O1362 O 0.09989 0.83517 0.48517 0.0
N1363 N 0.06943 0.85842 0.47573 0.0
C1364 C 0.06351 0.86705 0.4926 0.0
C1365 C 0.07485 0.88378 0.49572 0.0
C1366 C 0.08398 0.87007 0.46884 0.0
N1367 N 0.08755 0.88569 0.48057 0.0
C1368 C 0.02518 0.82457 0.48393 0.0
C1369 C 0.04618 0.79645 0.50444 0.0
C1370 C 0.02588 0.79348 0.50153 0.0
C1371 C 0.01521 0.80871 0.49249 0.0
C1372 C 0.05559 0.81267 0.4957 0.0
N1373 N 0.0453 0.82529 0.48383 0.0
H1374 H 0.01682 0.8346 0.47489 0.0
H1375 H 0.07133 0.81358 0.49683 0.0
H1376 H 0.05124 0.86217 0.50148 0.0
H1377 H 0.09166 0.86726 0.45518 0.0
O1378 O 0.03626 0.85608 0.45322 0.0
O1379 O 0.06394 0.85164 0.43674 0.0
O1380 O 0.08167 0.82059 0.46154 0.0
C1381 C 0.04731 0.86095 0.43833 0.0
H1382 H 0.03395 0.77141 0.43394 0.0
H1383 H 0.07313 0.89425 0.5076 0.0
H1384 H 0.05498 0.78553 0.512 0.0
H1385 H 0.99951 0.80739 0.49 0.0
Co1386 Co 0.42115 0.80447 0.70794 0.0
C1387 C 0.44875 0.79923 0.67524 0.0
C1388 C 0.44466 0.77229 0.69116 0.0
C1389 C 0.45734 0.76876 0.67576 0.0
N1390 N 0.43935 0.79138 0.69073 0.0
N1391 N 0.45989 0.78574 0.66583 0.0
H1392 H 0.44663 0.81422 0.67032 0.0
H1393 H 0.43924 0.76153 0.70153 0.0
C1394 C 0.43792 0.84471 0.71598 0.0
O1395 O 0.43075 0.84426 0.73393 0.0
N1396 N 0.40221 0.81777 0.72472 0.0
C1397 C 0.39252 0.81119 0.74071 0.0
C1398 C 0.37645 0.82336 0.74406 0.0
C1399 C 0.39186 0.83357 0.71858 0.0
N1400 N 0.37595 0.83732 0.7299 0.0
C1401 C 0.43427 0.77809 0.73876 0.0
C1402 C 0.47188 0.79355 0.74062 0.0
C1403 C 0.46895 0.77459 0.74798 0.0
C1404 C 0.44957 0.76713 0.74765 0.0
C1405 C 0.45657 0.80361 0.73148 0.0
N1406 N 0.43803 0.79576 0.72987 0.0
H1407 H 0.41993 0.77136 0.73718 0.0
H1408 H 0.4609 0.81657 0.72369 0.0
H1409 H 0.39595 0.79776 0.7485 0.0
H1410 H 0.39551 0.84156 0.70532 0.0
O1411 O 0.40274 0.78228 0.70506 0.0
O1412 O 0.40361 0.8088 0.68626 0.0
O1413 O 0.43617 0.82987 0.70453 0.0
C1414 C 0.39529 0.79217 0.69034 0.0
H1415 H 0.46369 0.7547 0.67183 0.0
H1416 H 0.36528 0.82123 0.75521 0.0
H1417 H 0.48649 0.79992 0.73992 0.0
H1418 H 0.44646 0.75253 0.75319 0.0
Co1419 Co 0.45051 0.16793 0.95961 0.0
C1420 C 0.46689 0.19181 0.9266 0.0
C1421 C 0.459 0.20941 0.95146 0.0
C1422 C 0.46377 0.22177 0.93628 0.0
N1423 N 0.461 0.19053 0.94552 0.0
N1424 N 0.46855 0.21068 0.92062 0.0
H1425 H 0.46792 0.17944 0.91667 0.0
H1426 H 0.45254 0.21408 0.96514 0.0
C1427 C 0.40922 0.18063 0.97181 0.0
O1428 O 0.40802 0.16693 0.98536 0.0
N1429 N 0.43931 0.14545 0.97329 0.0
C1430 C 0.44447 0.13678 0.99035 0.0
C1431 C 0.43245 0.1205 0.99321 0.0
C1432 C 0.42463 0.13421 0.96595 0.0
N1433 N 0.41988 0.119 0.97782 0.0
C1434 C 0.48213 0.18102 0.98339 0.0
C1435 C 0.45991 0.20729 0.00499 0.0
C1436 C 0.47987 0.21152 1.00166 0.0
C1437 C 0.49133 0.19725 0.99219 0.0
C1438 C 0.45136 0.19062 0.99625 0.0
N1439 N 0.46207 0.17911 0.98366 0.0
H1440 H 0.49088 0.17184 0.97384 0.0
H1441 H 0.43576 0.18869 0.99775 0.0
H1442 H 0.45613 0.1418 0.99998 0.0
H1443 H 0.41752 0.13726 0.95205 0.0
O1444 O 0.47223 0.1511 0.95105 0.0
O1445 O 0.44428 0.15523 0.93489 0.0
O1446 O 0.42516 0.18336 0.96216 0.0
C1447 C 0.46131 0.14656 0.93595 0.0
H1448 H 0.46209 0.23761 0.93621 0.0
H1449 H 0.43289 0.11068 0.00572 0.0
H1450 H 0.45062 0.21772 0.01268 0.0
H1451 H 0.50684 0.1998 0.98946 0.0
Co1452 Co 0.58657 0.70249 0.70589 0.0
C1453 C 0.56502 0.71939 0.67148 0.0
C1454 C 0.54605 0.71341 0.69589 0.0
C1455 C 0.53458 0.71904 0.68028 0.0
N1456 N 0.56521 0.71369 0.6905 0.0
N1457 N 0.54651 0.72266 0.66493 0.0
H1458 H 0.57782 0.71942 0.66202 0.0
H1459 H 0.5405 0.70797 0.70972 0.0
C1460 C 0.57179 0.66192 0.71753 0.0
O1461 O 0.58487 0.66003 0.73164 0.0
N1462 N 0.60786 0.69076 0.72097 0.0
C1463 C 0.61713 0.69722 0.73729 0.0
C1464 C 0.6335 0.68543 0.74059 0.0
C1465 C 0.61881 0.67551 0.71451 0.0
N1466 N 0.63454 0.67187 0.72607 0.0
C1467 C 0.57309 0.73501 0.72833 0.0
C1468 C 0.54723 0.7136 0.75128 0.0
C1469 C 0.54328 0.73358 0.74798 0.0
C1470 C 0.55732 0.74459 0.73756 0.0
C1471 C 0.56344 0.70466 0.74207 0.0
N1472 N 0.57488 0.71501 0.72913 0.0
H1473 H 0.58215 0.74335 0.71827 0.0
H1474 H 0.56528 0.68909 0.74382 0.0
H1475 H 0.61278 0.70998 0.74575 0.0
H1476 H 0.61513 0.66712 0.70148 0.0
O1477 O 0.60506 0.72294 0.69725 0.0
O1478 O 0.59999 0.69458 0.6822 0.0
O1479 O 0.56976 0.67813 0.70826 0.0
C1480 C 0.60986 0.7109 0.68306 0.0
H1481 H 0.51864 0.71904 0.67982 0.0
H1482 H 0.64417 0.68721 0.7523 0.0
H1483 H 0.53711 0.70465 0.75973 0.0
H1484 H 0.55503 0.7601 0.73476 0.0
Co1485 Co 0.95063 0.3337 0.04443 0.0
C1486 C 0.96717 0.31292 0.07944 0.0
C1487 C 0.96085 0.2933 0.05562 0.0
C1488 C 0.96601 0.28226 0.07169 0.0
N1489 N 0.96162 0.31261 0.06036 0.0
N1490 N 0.96985 0.29461 0.08667 0.0
H1491 H 0.9674 0.32597 0.08852 0.0
H1492 H 0.95523 0.28739 0.04202 0.0
C1493 C 0.90946 0.31939 0.03357 0.0
O1494 O 0.90772 0.33225 0.01928 0.0
N1495 N 0.93898 0.35478 0.02891 0.0
C1496 C 0.94425 0.36254 0.01142 0.0
C1497 C 0.93247 0.37886 0.00772 0.0
C1498 C 0.92442 0.36655 0.03558 0.0
N1499 N 0.92014 0.38137 0.02311 0.0
C1500 C 0.98266 0.31929 0.02178 0.0
C1501 C 0.96085 0.29226 1.00064 0.0
C1502 C 0.98097 0.28857 0.0037 0.0
C1503 C 0.99215 0.30314 0.01311 0.0
C1504 C 0.95199 0.30885 0.00924 0.0
N1505 N 0.96258 0.32095 0.02138 0.0
H1506 H 0.99124 0.32884 0.03116 0.0
H1507 H 0.93633 0.31046 0.00781 0.0
H1508 H 0.95608 0.35711 0.00227 0.0
H1509 H 0.91684 0.36411 0.04936 0.0
O1510 O 0.97187 0.35174 0.05199 0.0
O1511 O 0.94377 0.34818 0.06792 0.0
O1512 O 0.92568 0.31744 0.04297 0.0
C1513 C 0.96053 0.3573 0.06644 0.0
H1514 H 0.96545 0.26638 0.07273 0.0
H1515 H 0.93338 0.38848 0.99507 0.0
H1516 H 0.95174 0.2816 0.99304 0.0
H1517 H 0.00775 0.301 0.0157 0.0
Co1518 Co 0.41657 0.20436 0.799 0.0
C1519 C 0.43895 0.22099 0.83303 0.0
C1520 C 0.45765 0.21371 0.80882 0.0
C1521 C 0.46933 0.21885 0.82442 0.0
N1522 N 0.43849 0.21516 0.81403 0.0
N1523 N 0.45757 0.22317 0.83972 0.0
H1524 H 0.42619 0.22158 0.8425 0.0
H1525 H 0.46308 0.20727 0.79543 0.0
C1526 C 0.43061 0.16415 0.78573 0.0
O1527 O 0.41802 0.16377 0.77105 0.0
N1528 N 0.39474 0.19294 0.78447 0.0
C1529 C 0.38488 0.19966 0.76864 0.0
C1530 C 0.36853 0.18776 0.76562 0.0
C1531 C 0.3842 0.17741 0.79094 0.0
N1532 N 0.36811 0.17382 0.77981 0.0
C1533 C 0.42825 0.23668 0.77583 0.0
C1534 C 0.45836 0.21702 0.75685 0.0
C1535 C 0.46088 0.23698 0.76144 0.0
C1536 C 0.4446 0.24716 0.76908 0.0
C1537 C 0.44154 0.20708 0.76378 0.0
N1538 N 0.42812 0.2166 0.77546 0.0
H1539 H 0.41731 0.24462 0.78415 0.0
H1540 H 0.44112 0.19142 0.76196 0.0
H1541 H 0.38883 0.21263 0.76033 0.0
H1542 H 0.38841 0.16885 0.80367 0.0
O1543 O 0.3989 0.22543 0.80749 0.0
O1544 O 0.40322 0.19731 0.82316 0.0
O1545 O 0.43259 0.17948 0.79643 0.0
C1546 C 0.39411 0.21409 0.82216 0.0
H1547 H 0.48522 0.21763 0.82503 0.0
H1548 H 0.35746 0.18972 0.75432 0.0
H1549 H 0.47021 0.20862 0.7503 0.0
H1550 H 0.44542 0.26281 0.77196 0.0
Co1551 Co 0.08838 0.79967 0.29749 0.0
C1552 C 0.06013 0.79568 0.32973 0.0
C1553 C 0.06351 0.76846 0.31409 0.0
C1554 C 0.05066 0.76548 0.32944 0.0
N1555 N 0.06938 0.78739 0.31437 0.0
N1556 N 0.04859 0.78262 0.33922 0.0
H1557 H 0.06281 0.8106 0.33462 0.0
H1558 H 0.0688 0.75738 0.30399 0.0
C1559 C 0.07251 0.83973 0.2875 0.0
O1560 O 0.08032 0.83857 0.26986 0.0
N1561 N 0.10803 0.81216 0.28097 0.0
C1562 C 0.11752 0.80542 0.26491 0.0
C1563 C 0.13349 0.81763 0.26122 0.0
C1564 C 0.11839 0.82805 0.28683 0.0
N1565 N 0.13407 0.83174 0.27522 0.0
C1566 C 0.07642 0.77227 0.26704 0.0
C1567 C 0.03928 0.78829 0.26248 0.0
C1568 C 0.04231 0.76908 0.25588 0.0
C1569 C 0.06148 0.76129 0.25758 0.0
C1570 C 0.05418 0.79836 0.27225 0.0
N1571 N 0.07244 0.79026 0.27517 0.0
H1572 H 0.09053 0.76538 0.26967 0.0
H1573 H 0.04963 0.81163 0.27937 0.0
H1574 H 0.11388 0.79203 0.25715 0.0
H1575 H 0.11471 0.83636 0.2999 0.0
O1576 O 0.10666 0.7776 0.30212 0.0
O1577 O 0.10493 0.80488 0.31972 0.0
O1578 O 0.07343 0.82523 0.29942 0.0
C1579 C 0.11347 0.78814 0.31673 0.0
H1580 H 0.04406 0.7516 0.3336 0.0
H1581 H 0.14443 0.81554 0.24983 0.0
H1582 H 0.02477 0.79492 0.26212 0.0
H1583 H 0.06463 0.74647 0.25268 0.0
C1584 C 0.04692 0.12826 0.09911 0.0
C1585 C 0.03793 0.1282 0.0805 0.0
H1586 H 0.04983 0.11463 0.12709 0.0
C1587 C 0.0242 0.11332 0.07614 0.0
H1588 H 0.05729 0.13969 0.10313 0.0
C1589 C 0.02017 0.09839 0.08994 0.0
C1590 C 0.02964 0.09822 0.10843 0.0
H1591 H 0.01701 0.11292 0.06191 0.0
H1592 H 0.01002 0.08679 0.08594 0.0
C1593 C 0.04271 0.11367 0.11289 0.0
C1594 C 0.15032 0.75938 0.34814 0.0
C1595 C 0.16051 0.77497 0.35735 0.0
H1596 H 0.12726 0.75113 0.32778 0.0
C1597 C 0.15631 0.79429 0.35139 0.0
H1598 H 0.1533 0.74431 0.35234 0.0
C1599 C 0.14161 0.79812 0.33763 0.0
C1600 C 0.13064 0.78277 0.32916 0.0
H1601 H 0.16426 0.80664 0.35758 0.0
H1602 H 0.13858 0.81331 0.33388 0.0
C1603 C 0.13547 0.76325 0.33409 0.0
C1604 C 0.46985 0.88995 0.61243 0.0
C1605 C 0.48173 0.90607 0.60716 0.0
H1606 H 0.45516 0.86376 0.60328 0.0
C1607 C 0.48938 0.90675 0.58789 0.0
H1608 H 0.46422 0.8884 0.62723 0.0
C1609 C 0.48449 0.89207 0.57407 0.0
C1610 C 0.47169 0.87665 0.57926 0.0
H1611 H 0.49858 0.91891 0.58331 0.0
H1612 H 0.49015 0.89315 0.55921 0.0
C1613 C 0.46472 0.87565 0.59866 0.0
C1614 C 0.3499 0.23796 0.8472 0.0
C1615 C 0.34924 0.22765 0.86518 0.0
H1616 H 0.36468 0.24188 0.81946 0.0
C1617 C 0.36432 0.21397 0.86917 0.0
H1618 H 0.33861 0.24859 0.84356 0.0
C1619 C 0.37893 0.20993 0.8553 0.0
C1620 C 0.37923 0.21971 0.83713 0.0
H1621 H 0.36487 0.20616 0.88301 0.0
H1622 H 0.39 0.199 0.85882 0.0
C1623 C 0.36481 0.23409 0.83336 0.0
C1624 C 0.02219 0.90394 0.41231 0.0
C1625 C 0.03172 0.90376 0.39386 0.0
H1626 H 0.01952 0.89051 0.44091 0.0
C1627 C 0.0455 0.88872 0.39014 0.0
H1628 H 0.01153 0.91523 0.41581 0.0
C1629 C 0.05031 0.87495 0.40458 0.0
C1630 C 0.04121 0.87541 0.42312 0.0
H1631 H 0.05276 0.88752 0.37604 0.0
H1632 H 0.0612 0.86382 0.40115 0.0
C1633 C 0.02681 0.88982 0.42675 0.0
C1634 C 0.35062 0.79643 0.6579 0.0
C1635 C 0.34746 0.777 0.65162 0.0
H1636 H 0.36793 0.81618 0.67512 0.0
C1637 C 0.35877 0.76187 0.66022 0.0
H1638 H 0.34182 0.80838 0.65208 0.0
C1639 C 0.37382 0.76639 0.67385 0.0
C1640 C 0.37771 0.78607 0.67891 0.0
H1641 H 0.35663 0.74675 0.65571 0.0
H1642 H 0.383 0.75468 0.67956 0.0
C1643 C 0.36556 0.8009 0.67122 0.0
C1644 C 0.48666 0.10393 0.90975 0.0
C1645 C 0.47685 0.10384 0.89145 0.0
H1646 H 0.48958 0.11758 0.9382 0.0
C1647 C 0.46304 0.11885 0.88768 0.0
H1648 H 0.49735 0.09267 0.91327 0.0
C1649 C 0.45838 0.1328 0.90203 0.0
C1650 C 0.46765 0.13248 0.92049 0.0
H1651 H 0.45557 0.1198 0.87365 0.0
H1652 H 0.44736 0.14382 0.89866 0.0
C1653 C 0.48218 0.11818 0.92408 0.0
C1654 C 0.13794 0.20404 0.17166 0.0
C1655 C 0.12693 0.21874 0.18113 0.0
H1656 H 0.16032 0.19705 0.15086 0.0
C1657 C 0.13138 0.23857 0.17728 0.0
H1658 H 0.13516 0.18862 0.17458 0.0
C1659 C 0.14587 0.24347 0.16325 0.0
C1660 C 0.15605 0.22859 0.153 0.0
H1661 H 0.12308 0.25019 0.18437 0.0
H1662 H 0.14853 0.25879 0.15983 0.0
C1663 C 0.15232 0.20888 0.15791 0.0
C1664 C 0.11134 0.04711 0.11117 0.0
C1665 C 0.11266 0.02842 0.10233 0.0
H1666 H 0.09709 0.06559 0.13213 0.0
C1667 C 0.0994 0.01371 0.10854 0.0
H1668 H 0.12073 0.0591 0.10659 0.0
C1669 C 0.08535 0.01765 0.12328 0.0
C1670 C 0.08438 0.03633 0.13215 0.0
H1671 H 0.09996 0.99914 0.10216 0.0
H1672 H 0.07536 0.00608 0.12779 0.0
C1673 C 0.09755 0.05094 0.12586 0.0
C1674 C 0.24023 0.83996 0.34923 0.0
C1675 C 0.23072 0.85842 0.34907 0.0
H1676 H 0.24317 0.81177 0.3635 0.0
C1677 C 0.21736 0.86265 0.36433 0.0
H1678 H 0.25059 0.8361 0.33778 0.0
C1679 C 0.21286 0.84867 0.37864 0.0
C1680 C 0.22188 0.83009 0.37853 0.0
H1681 H 0.21018 0.87681 0.36531 0.0
H1682 H 0.20225 0.85252 0.3899 0.0
C1683 C 0.23593 0.82596 0.36391 0.0
C1684 C 0.402 0.95769 0.60407 0.0
C1685 C 0.39879 0.97703 0.59747 0.0
H1686 H 0.41792 0.93852 0.62314 0.0
C1687 C 0.41088 0.99213 0.60498 0.0
H1688 H 0.39354 0.94553 0.59823 0.0
C1689 C 0.42533 0.98798 0.6193 0.0
C1690 C 0.42783 0.96868 0.62636 0.0
H1691 H 0.40883 0.00717 0.6002 0.0
H1692 H 0.43413 0.99989 0.62519 0.0
C1693 C 0.41617 0.95362 0.61833 0.0
C1694 C 0.26121 0.15809 0.86009 0.0
C1695 C 0.27592 0.1454 0.85275 0.0
H1696 H 0.25391 0.18121 0.88055 0.0
C1697 C 0.29509 0.14716 0.86049 0.0
H1698 H 0.24629 0.1572 0.85454 0.0
C1699 C 0.29932 0.16063 0.8754 0.0
C1700 C 0.28465 0.17305 0.88298 0.0
H1701 H 0.30706 0.13825 0.85497 0.0
H1702 H 0.31428 0.16134 0.88092 0.0
C1703 C 0.26555 0.17182 0.87503 0.0
C1704 C 0.09975 0.99548 0.39305 0.0
C1705 C 0.10983 0.9805 0.40329 0.0
H1706 H 0.07852 0.00236 0.37036 0.0
C1707 C 0.10458 0.96086 0.39968 0.0
H1708 H 0.10342 0.01077 0.39563 0.0
C1709 C 0.09064 0.95614 0.38543 0.0
C1710 C 0.08131 0.9709 0.37438 0.0
H1711 H 0.11146 0.94897 0.40773 0.0
H1712 H 0.08743 0.94074 0.38282 0.0
C1713 C 0.08552 0.9907 0.37866 0.0
C1714 C 0.26982 0.83187 0.63407 0.0
C1715 C 0.28903 0.83059 0.62639 0.0
H1716 H 0.25031 0.84661 0.65424 0.0
C1717 C 0.30361 0.84304 0.63415 0.0
H1718 H 0.25827 0.82242 0.62846 0.0
C1719 C 0.29917 0.8566 0.64891 0.0
C1720 C 0.2799 0.85839 0.65636 0.0
H1721 H 0.31865 0.84227 0.62888 0.0
H1722 H 0.31105 0.86555 0.65458 0.0
C1723 C 0.26529 0.84567 0.64889 0.0
C1724 C 0.42337 0.01409 0.8799 0.0
C1725 C 0.42745 0.03403 0.8761 0.0
H1726 H 0.40586 0.99353 0.89663 0.0
C1727 C 0.4185 0.04843 0.88789 0.0
H1728 H 0.43006 0.00269 0.87101 0.0
C1729 C 0.40497 0.04328 0.90236 0.0
C1730 C 0.39974 0.02353 0.90543 0.0
H1731 H 0.42161 0.0639 0.88561 0.0
H1732 H 0.39823 0.05491 0.91091 0.0
C1733 C 0.40954 0.00887 0.89451 0.0
C1734 C 0.20333 0.15182 0.15419 0.0
C1735 C 0.22253 0.14911 0.16156 0.0
H1736 H 0.18452 0.16689 0.13402 0.0
C1737 C 0.23769 0.16114 0.15406 0.0
H1738 H 0.19107 0.14341 0.15987 0.0
C1739 C 0.23377 0.17508 0.13921 0.0
C1740 C 0.21465 0.17713 0.13149 0.0
H1741 H 0.25265 0.15951 0.15931 0.0
H1742 H 0.24575 0.18388 0.13347 0.0
C1743 C 0.1995 0.16547 0.13935 0.0
C1744 C 0.1241 0.08236 0.01735 0.0
C1745 C 0.12958 0.07883 0.03701 0.0
H1746 H 0.10589 0.09936 0.99766 0.0
C1747 C 0.11948 0.08881 0.05203 0.0
H1748 H 0.13163 0.07488 0.00546 0.0
C1749 C 0.1049 0.10255 0.04766 0.0
C1750 C 0.09997 0.10698 0.02807 0.0
H1751 H 0.123 0.08619 0.06737 0.0
H1752 H 0.09756 0.10981 0.05978 0.0
C1753 C 0.1094 0.09637 0.01291 0.0
C1754 C 0.61989 0.41797 0.98054 0.0
C1755 C 0.62882 0.41928 0.96192 0.0
H1756 H 0.59827 0.40352 0.99854 0.0
C1757 C 0.62196 0.40694 0.9468 0.0
H1758 H 0.62479 0.42732 0.99249 0.0
C1759 C 0.60669 0.39359 0.95013 0.0
C1760 C 0.59783 0.3919 0.96878 0.0
H1761 H 0.62824 0.40772 0.93217 0.0
H1762 H 0.60175 0.38476 0.93785 0.0
C1763 C 0.6046 0.40438 0.98396 0.0
C1764 C 0.8404 0.36951 0.20212 0.0
C1765 C 0.82821 0.37679 0.21713 0.0
H1766 H 0.86326 0.34984 0.19384 0.0
C1767 C 0.83031 0.36908 0.23622 0.0
H1768 H 0.839 0.37485 0.18716 0.0
C1769 C 0.84471 0.3547 0.24022 0.0
C1770 C 0.85718 0.3477 0.22517 0.0
H1771 H 0.82109 0.37437 0.2481 0.0
H1772 H 0.84631 0.34936 0.25514 0.0
C1773 C 0.85452 0.35515 0.20603 0.0
C1774 C 0.88422 0.58763 0.4852 0.0
C1775 C 0.87059 0.5907 0.4699 0.0
H1776 H 0.91013 0.59797 0.50008 0.0
C1777 C 0.87214 0.60795 0.45865 0.0
H1778 H 0.88345 0.57445 0.49412 0.0
C1779 C 0.88722 0.62153 0.4622 0.0
C1780 C 0.90146 0.61819 0.47694 0.0
H1781 H 0.86178 0.61091 0.44689 0.0
H1782 H 0.88773 0.63462 0.45318 0.0
C1783 C 0.89952 0.60118 0.48864 0.0
C1784 C 0.13709 0.13443 0.21836 0.0
C1785 C 0.14123 0.14961 0.23186 0.0
H1786 H 0.14754 0.10905 0.20298 0.0
C1787 C 0.15962 0.14938 0.24153 0.0
H1788 H 0.12297 0.13359 0.21103 0.0
C1789 C 0.1737 0.13482 0.23716 0.0
C1790 C 0.16976 0.12036 0.22288 0.0
H1791 H 0.16343 0.16076 0.25199 0.0
H1792 H 0.18791 0.13532 0.2444 0.0
C1793 C 0.15119 0.12019 0.2138 0.0
C1794 C 0.39619 0.90937 0.51564 0.0
C1795 C 0.40378 0.89667 0.53021 0.0
H1796 H 0.37575 0.93258 0.50868 0.0
C1797 C 0.39619 0.8983 0.54944 0.0
H1798 H 0.40153 0.90857 0.50067 0.0
C1799 C 0.38135 0.9118 0.5539 0.0
C1800 C 0.37368 0.92434 0.53939 0.0
H1801 H 0.40181 0.88933 0.56131 0.0
H1802 H 0.37601 0.91251 0.56891 0.0
C1803 C 0.38135 0.9231 0.5202 0.0
C1804 C 0.83272 0.63053 0.26823 0.0
C1805 C 0.83689 0.61678 0.28312 0.0
H1806 H 0.84278 0.65564 0.25192 0.0
C1807 C 0.85562 0.61708 0.2919 0.0
H1808 H 0.81843 0.63064 0.26114 0.0
C1809 C 0.86966 0.63108 0.28642 0.0
C1810 C 0.86533 0.64552 0.2722 0.0
H1811 H 0.85949 0.60647 0.30315 0.0
H1812 H 0.8839 0.63064 0.29355 0.0
C1813 C 0.84676 0.64482 0.26289 0.0
C1814 C 0.66825 0.3477 0.76153 0.0
C1815 C 0.65376 0.34162 0.77498 0.0
H1816 H 0.69222 0.36771 0.75577 0.0
C1817 C 0.65325 0.35047 0.79368 0.0
H1818 H 0.66893 0.3411 0.74704 0.0
C1819 C 0.66622 0.36559 0.79858 0.0
C1820 C 0.68029 0.37231 0.785 0.0
H1821 H 0.64249 0.34585 0.80448 0.0
H1822 H 0.66505 0.37214 0.81306 0.0
C1823 C 0.68145 0.36296 0.7665 0.0
C1824 C 0.54643 0.61092 0.60427 0.0
C1825 C 0.52711 0.60352 0.60617 0.0
H1826 H 0.56574 0.63155 0.59061 0.0
C1827 C 0.51224 0.61199 0.59437 0.0
H1828 H 0.55858 0.60476 0.61245 0.0
C1829 C 0.51661 0.62745 0.58127 0.0
C1830 C 0.53588 0.63493 0.57988 0.0
H1831 H 0.49719 0.60686 0.59532 0.0
H1832 H 0.5049 0.63365 0.57239 0.0
C1833 C 0.55066 0.62643 0.59153 0.0
C1834 C 0.64109 0.30744 0.84129 0.0
C1835 C 0.62957 0.29315 0.83177 0.0
H1836 H 0.66421 0.3135 0.8617 0.0
C1837 C 0.63342 0.27316 0.83562 0.0
H1838 H 0.63878 0.32296 0.83851 0.0
C1839 C 0.64817 0.26768 0.84913 0.0
C1840 C 0.65923 0.2821 0.85908 0.0
H1841 H 0.62486 0.26179 0.82844 0.0
H1842 H 0.65054 0.25224 0.85222 0.0
C1843 C 0.65568 0.30201 0.8547 0.0
C1844 C 0.95163 0.37987 0.09399 0.0
C1845 C 0.96585 0.37319 0.08056 0.0
H1846 H 0.94434 0.39958 0.11718 0.0
C1847 C 0.98464 0.38196 0.08089 0.0
H1848 H 0.93691 0.37371 0.09403 0.0
C1849 C 0.98909 0.39691 0.09458 0.0
C1850 C 0.97483 0.4034 0.10819 0.0
H1851 H 0.99592 0.37718 0.07069 0.0
H1852 H 0.00373 0.40319 0.09466 0.0
C1853 C 0.95599 0.39474 0.10748 0.0
C1854 C 0.8496 0.70209 0.34431 0.0
C1855 C 0.84352 0.72152 0.34802 0.0
H1856 H 0.86903 0.68299 0.32864 0.0
C1857 C 0.85164 0.73676 0.33655 0.0
H1858 H 0.84326 0.68989 0.35232 0.0
C1859 C 0.86635 0.73268 0.32252 0.0
C1860 C 0.87319 0.71334 0.31988 0.0
H1861 H 0.84727 0.75187 0.339 0.0
H1862 H 0.87303 0.74472 0.3145 0.0
C1863 C 0.8643 0.6981 0.33058 0.0
C1864 C 0.54554 0.38516 0.88551 0.0
C1865 C 0.52758 0.39559 0.88577 0.0
H1866 H 0.56377 0.36326 0.89883 0.0
C1867 C 0.51376 0.39067 0.9005 0.0
H1868 H 0.55682 0.38835 0.87479 0.0
C1869 C 0.51797 0.37612 0.91464 0.0
C1870 C 0.53606 0.36604 0.91438 0.0
H1871 H 0.49969 0.39808 0.90121 0.0
H1872 H 0.50712 0.37289 0.92585 0.0
C1873 C 0.54966 0.37066 0.89952 0.0
C1874 C 0.8699 0.27104 0.17668 0.0
C1875 C 0.88334 0.28627 0.1727 0.0
H1876 H 0.84462 0.25481 0.16682 0.0
C1877 C 0.88208 0.29601 0.15454 0.0
H1878 H 0.87049 0.26324 0.19056 0.0
C1879 C 0.86756 0.29102 0.14084 0.0
C1880 C 0.85352 0.27632 0.14496 0.0
H1881 H 0.89238 0.30762 0.15085 0.0
H1882 H 0.8674 0.29884 0.12699 0.0
C1883 C 0.85509 0.26617 0.163 0.0
C1884 C 0.99676 0.62318 0.42391 0.0
C1885 C 0.97718 0.62472 0.43048 0.0
H1886 H 0.01697 0.60776 0.40484 0.0
C1887 C 0.96363 0.61006 0.42506 0.0
H1888 H 0.00739 0.63448 0.42761 0.0
C1889 C 0.96919 0.59474 0.41254 0.0
C1890 C 0.98835 0.59388 0.40486 0.0
H1891 H 0.94842 0.61096 0.42981 0.0
H1892 H 0.9582 0.58422 0.40775 0.0
C1893 C 1.00224 0.60796 0.41094 0.0
C1894 C 0.63567 0.73289 0.6673 0.0
C1895 C 0.62626 0.71454 0.66898 0.0
H1896 H 0.65792 0.74995 0.65265 0.0
C1897 C 0.63294 0.69893 0.65718 0.0
H1898 H 0.63092 0.7452 0.67624 0.0
C1899 C 0.64847 0.7015 0.64399 0.0
C1900 C 0.6578 0.71987 0.64188 0.0
H1901 H 0.62632 0.68448 0.65826 0.0
H1902 H 0.65322 0.68884 0.63562 0.0
C1903 C 0.65123 0.73556 0.65383 0.0
C1904 C 0.56583 0.52772 0.6058 0.0
C1905 C 0.5716 0.52786 0.62566 0.0
H1906 H 0.57494 0.52354 0.57579 0.0
C1907 C 0.59044 0.5212 0.63071 0.0
H1908 H 0.55139 0.53305 0.6016 0.0
C1909 C 0.60371 0.5154 0.61611 0.0
C1910 C 0.59867 0.51666 0.59603 0.0
H1911 H 0.5952 0.52124 0.64594 0.0
H1912 H 0.6184 0.51097 0.62047 0.0
C1913 C 0.57929 0.52219 0.59105 0.0
C1914 C 0.73673 0.32663 0.87157 0.0
C1915 C 0.72181 0.331 0.88526 0.0
H1916 H 0.75217 0.33572 0.8455 0.0
C1917 C 0.71195 0.34908 0.8837 0.0
H1918 H 0.74458 0.31279 0.87236 0.0
C1919 C 0.71642 0.36225 0.86858 0.0
C1920 C 0.73071 0.35766 0.85428 0.0
H1921 H 0.70057 0.35306 0.89414 0.0
H1922 H 0.70849 0.37603 0.86812 0.0
C1923 C 0.7411 0.3398 0.85619 0.0
C1924 C 0.90559 0.4865 0.10536 0.0
C1925 C 0.89269 0.47157 0.09892 0.0
H1926 H 0.92973 0.49434 0.12436 0.0
C1927 C 0.89518 0.45251 0.10664 0.0
H1928 H 0.90413 0.50134 0.0998 0.0
C1929 C 0.90964 0.44859 0.12072 0.0
C1930 C 0.92225 0.46352 0.12744 0.0
H1931 H 0.88608 0.44041 0.10176 0.0
H1932 H 0.91092 0.43374 0.12637 0.0
C1933 C 0.92025 0.48251 0.11945 0.0
C1934 C 0.79604 0.63668 0.36511 0.0
C1935 C 0.7817 0.64001 0.35048 0.0
H1936 H 0.81104 0.64756 0.39059 0.0
C1937 C 0.77033 0.65734 0.35176 0.0
H1938 H 0.80476 0.62338 0.3652 0.0
C1939 C 0.77372 0.67116 0.36682 0.0
C1940 C 0.78865 0.66805 0.38083 0.0
H1941 H 0.75917 0.66054 0.34085 0.0
H1942 H 0.76513 0.68458 0.36708 0.0
C1943 C 0.79956 0.65053 0.37991 0.0
C1944 C 0.59703 0.45379 0.9028 0.0
C1945 C 0.60273 0.47329 0.90661 0.0
H1946 H 0.58005 0.4342 0.88506 0.0
C1947 C 0.5933 0.48857 0.89623 0.0
H1948 H 0.6035 0.44171 0.91092 0.0
C1949 C 0.57946 0.48422 0.88137 0.0
C1950 C 0.57496 0.46456 0.87675 0.0
H1951 H 0.59735 0.50373 0.8989 0.0
H1952 H 0.57316 0.4961 0.87281 0.0
C1953 C 0.58345 0.44949 0.88805 0.0
C1954 C 0.78592 0.35983 0.13931 0.0
C1955 C 0.77395 0.35467 0.15541 0.0
H1956 H 0.80057 0.35056 0.11314 0.0
C1957 C 0.76623 0.33543 0.15612 0.0
H1958 H 0.79162 0.3746 0.13773 0.0
C1959 C 0.77107 0.32156 0.14148 0.0
C1960 C 0.7839 0.32666 0.12606 0.0
H1961 H 0.75696 0.3309 0.16825 0.0
H1962 H 0.76533 0.30674 0.14258 0.0
C1963 C 0.79099 0.34601 0.12504 0.0
C1964 C 0.90305 0.55877 0.40809 0.0
C1965 C 0.89846 0.53894 0.41166 0.0
H1966 H 0.9196 0.57948 0.39131 0.0
C1967 C 0.90842 0.52435 0.40085 0.0
H1968 H 0.89597 0.57035 0.41643 0.0
C1969 C 0.92211 0.52961 0.38622 0.0
C1970 C 0.92617 0.54955 0.38232 0.0
H1971 H 0.90514 0.50896 0.40329 0.0
H1972 H 0.92922 0.51813 0.37776 0.0
C1973 C 0.9167 0.56399 0.39369 0.0
C1974 C 0.70833 0.64581 0.61986 0.0
C1975 C 0.71947 0.66319 0.61852 0.0
H1976 H 0.70317 0.61875 0.63485 0.0
C1977 C 0.73483 0.66609 0.63213 0.0
H1978 H 0.69654 0.64292 0.6095 0.0
C1979 C 0.7385 0.65222 0.64709 0.0
C1980 C 0.72699 0.63499 0.64875 0.0
H1981 H 0.7437 0.67931 0.63153 0.0
H1982 H 0.75005 0.6553 0.65761 0.0
C1983 C 0.71209 0.63191 0.6346 0.0
C1984 C 0.61945 0.58325 0.52562 0.0
C1985 C 0.6231 0.58034 0.54583 0.0
H1986 H 0.60308 0.59941 0.50374 0.0
C1987 C 0.61201 0.59112 0.55954 0.0
H1988 H 0.62768 0.57509 0.51469 0.0
C1989 C 0.59809 0.60487 0.55331 0.0
C1990 C 0.59478 0.6083 0.53316 0.0
H1991 H 0.61422 0.58914 0.57521 0.0
H1992 H 0.58993 0.61294 0.56435 0.0
C1993 C 0.60532 0.59706 0.51934 0.0
C1994 C 0.11899 0.92061 0.45176 0.0
C1995 C 0.12947 0.9306 0.46654 0.0
H1996 H 0.09727 0.89917 0.44457 0.0
C1997 C 0.12475 0.92681 0.48634 0.0
H1998 H 0.12197 0.92341 0.43635 0.0
C1999 C 0.11051 0.91246 0.49113 0.0
C2000 C 0.10082 0.90178 0.47618 0.0
H2001 H 0.13261 0.93428 0.49804 0.0
H2002 H 0.10765 0.9092 0.50645 0.0
C2003 C 0.10487 0.90654 0.45648 0.0
C2004 C 0.35804 0.85898 0.70663 0.0
C2005 C 0.36058 0.8516 0.72583 0.0
H2006 H 0.34248 0.87848 0.68755 0.0
C2007 C 0.34786 0.8585 0.74071 0.0
H2008 H 0.36695 0.85373 0.69455 0.0
C2009 C 0.33335 0.87273 0.73652 0.0
C2010 C 0.33135 0.88038 0.71738 0.0
H2011 H 0.34933 0.85319 0.75565 0.0
H2012 H 0.32398 0.87798 0.74829 0.0
C2013 C 0.34378 0.87318 0.70253 0.0
C2014 C 0.37519 0.0944 0.95612 0.0
C2015 C 0.37538 0.07588 0.96523 0.0
H2016 H 0.38829 0.12266 0.95347 0.0
C2017 C 0.38995 0.07195 0.97942 0.0
H2018 H 0.36396 0.09809 0.9454 0.0
C2019 C 0.40445 0.08611 0.98384 0.0
C2020 C 0.40451 0.10455 0.9743 0.0
H2021 H 0.39043 0.0578 0.98671 0.0
H2022 H 0.41582 0.08243 0.99437 0.0
C2023 C 0.38936 0.10854 0.96071 0.0
C2024 C 0.66529 0.63403 0.7001 0.0
C2025 C 0.67605 0.62562 0.71559 0.0
H2026 H 0.6445 0.65561 0.69105 0.0
C2027 C 0.67406 0.63357 0.7346 0.0
H2028 H 0.66675 0.62849 0.68521 0.0
C2029 C 0.66079 0.6491 0.73811 0.0
C2030 C 0.64944 0.657 0.72262 0.0
H2031 H 0.6822 0.62736 0.74682 0.0
H2032 H 0.65897 0.65448 0.75299 0.0
C2033 C 0.65234 0.64956 0.70351 0.0
C2034 C 0.90163 0.40239 0.04615 0.0
C2035 C 0.9059 0.39683 0.0267 0.0
H2036 H 0.88327 0.41886 0.06553 0.0
C2037 C 0.89525 0.40581 0.01129 0.0
H2038 H 0.9099 0.39635 0.05836 0.0
C2039 C 0.87988 0.41918 0.01547 0.0
C2040 C 0.87496 0.42361 0.03509 0.0
H2041 H 0.89823 0.40189 0.99615 0.0
H2042 H 0.87134 0.42529 0.00348 0.0
C2043 C 0.88637 0.41543 0.05027 0.0
C2044 C 0.34098 0.1518 0.76821 0.0
C2045 C 0.35338 0.15877 0.78336 0.0
H2046 H 0.31828 0.13126 0.75984 0.0
C2047 C 0.35142 0.15044 0.80222 0.0
H2048 H 0.34205 0.1578 0.75351 0.0
C2049 C 0.33811 0.13522 0.80571 0.0
C2050 C 0.32607 0.12792 0.79057 0.0
H2051 H 0.36013 0.15567 0.81447 0.0
H2052 H 0.33724 0.12917 0.82044 0.0
C2053 C 0.3274 0.13655 0.77181 0.0
C2054 C 0.17512 0.86857 0.26714 0.0
C2055 C 0.17727 0.87648 0.28616 0.0
H2056 H 0.15941 0.84822 0.2486 0.0
C2057 C 0.16565 0.86884 0.30143 0.0
H2058 H 0.18391 0.87415 0.25508 0.0
C2059 C 0.15195 0.85401 0.29784 0.0
C2060 C 0.14915 0.84644 0.27876 0.0
H2061 H 0.16715 0.87431 0.31634 0.0
H2062 H 0.14362 0.84846 0.3102 0.0
C2063 C 0.16113 0.8537 0.26346 0.0
C2064 C 0.1344 0.04641 0.2349 0.0
C2065 C 0.14799 0.03634 0.2231 0.0
H2066 H 0.10407 0.05259 0.2405 0.0
C2067 C 0.14115 0.02256 0.20926 0.0
H2068 H 0.13942 0.05708 0.24563 0.0
C2069 C 0.12098 0.02013 0.20616 0.0
C2070 C 0.1074 0.0312 0.21706 0.0
H2071 H 0.15135 0.01477 0.19983 0.0
H2072 H 0.11598 0.01036 0.1946 0.0
C2073 C 0.11424 0.04374 0.23202 0.0
C2074 C 0.2298 0.87489 0.44271 0.0
C2075 C 0.22784 0.86093 0.45783 0.0
H2076 H 0.22582 0.90486 0.43397 0.0
C2077 C 0.22301 0.8674 0.47688 0.0
H2078 H 0.23402 0.87043 0.42801 0.0
C2079 C 0.21844 0.8871 0.48029 0.0
C2080 C 0.21857 0.90067 0.46472 0.0
H2081 H 0.22132 0.85708 0.48887 0.0
H2082 H 0.21341 0.89134 0.49479 0.0
C2083 C 0.22513 0.89457 0.44611 0.0
C2084 C 0.36974 0.97491 0.72913 0.0
C2085 C 0.35835 0.96338 0.71636 0.0
H2086 H 0.39838 0.98717 0.73487 0.0
C2087 C 0.36646 0.95666 0.69866 0.0
H2088 H 0.36352 0.98035 0.74276 0.0
C2089 C 0.38593 0.96064 0.69407 0.0
C2090 C 0.39782 0.97145 0.70711 0.0
H2091 H 0.35772 0.94802 0.6885 0.0
H2092 H 0.39185 0.9544 0.68067 0.0
C2093 C 0.3895 0.97879 0.72461 0.0
C2094 C 0.31021 0.1171 0.96385 0.0
C2095 C 0.29605 0.10395 0.97126 0.0
H2096 H 0.31654 0.14654 0.95487 0.0
C2097 C 0.27757 0.11133 0.97714 0.0
H2098 H 0.32448 0.11211 0.95888 0.0
C2099 C 0.27304 0.13127 0.97461 0.0
C2100 C 0.2869 0.14388 0.96605 0.0
H2101 H 0.26646 0.10159 0.98308 0.0
H2102 H 0.25856 0.13668 0.97852 0.0
C2103 C 0.30564 0.13682 0.96127 0.0
C2104 C 0.11421 0.9477 0.27679 0.0
C2105 C 0.10846 0.96647 0.28318 0.0
H2106 H 0.13807 0.92894 0.26861 0.0
C2107 C 0.12233 0.98177 0.28322 0.0
H2108 H 0.10364 0.93579 0.27615 0.0
C2109 C 0.14206 0.97784 0.27915 0.0
C2110 C 0.14823 0.95855 0.27488 0.0
H2111 H 0.11832 0.9964 0.28804 0.0
H2112 H 0.15255 0.98967 0.28097 0.0
C2113 C 0.13391 0.94379 0.27256 0.0
C2114 C 0.27433 0.87019 0.55318 0.0
C2115 C 0.28587 0.85703 0.54228 0.0
H2116 H 0.268 0.90034 0.55963 0.0
C2117 C 0.29867 0.86432 0.52776 0.0
H2118 H 0.2644 0.86482 0.56442 0.0
C2119 C 0.30089 0.88454 0.52517 0.0
C2120 C 0.2901 0.89771 0.53678 0.0
H2121 H 0.30791 0.85446 0.51933 0.0
H2122 H 0.31162 0.88994 0.5147 0.0
C2123 C 0.2763 0.89041 0.55033 0.0
C2124 C 0.36233 0.02675 0.78177 0.0
C2125 C 0.35603 0.04604 0.77759 0.0
H2126 H 0.38623 0.00827 0.79044 0.0
C2127 C 0.37026 0.06087 0.77531 0.0
H2128 H 0.35189 0.01488 0.78358 0.0
C2129 C 0.39001 0.05703 0.7794 0.0
C2130 C 0.3959 0.03825 0.78564 0.0
H2131 H 0.36599 0.07572 0.77146 0.0
H2132 H 0.40052 0.06898 0.77871 0.0
C2133 C 0.3821 0.0229 0.78572 0.0
C2134 C 0.22215 0.14248 0.02941 0.0
C2135 C 0.22601 0.14848 0.04887 0.0
H2136 H 0.21429 0.1188 0.01034 0.0
C2137 C 0.22857 0.13406 0.06344 0.0
H2138 H 0.22015 0.15307 0.01772 0.0
C2139 C 0.22509 0.11431 0.05914 0.0
C2140 C 0.21915 0.10864 0.04017 0.0
H2141 H 0.2322 0.13812 0.07841 0.0
H2142 H 0.22599 0.10359 0.07089 0.0
C2143 C 0.21879 0.12273 0.02511 0.0
C2144 C 0.03818 0.23177 0.13557 0.0
C2145 C 0.03766 0.21651 0.14947 0.0
H2146 H 0.03615 0.23964 0.10529 0.0
C2147 C 0.03107 0.19782 0.14364 0.0
H2148 H 0.04323 0.24631 0.13963 0.0
C2149 C 0.02691 0.19397 0.12392 0.0
C2150 C 0.02938 0.20872 0.10967 0.0
H2151 H 0.03008 0.18593 0.15419 0.0
H2152 H 0.02276 0.17919 0.11968 0.0
C2153 C 0.0341 0.22791 0.11583 0.0
C2154 C 0.54423 0.27269 0.88527 0.0
C2155 C 0.5286 0.28314 0.89393 0.0
H2156 H 0.56277 0.2701 0.85998 0.0
C2157 C 0.51562 0.29366 0.88184 0.0
H2158 H 0.55439 0.26436 0.89429 0.0
C2159 C 0.52032 0.29674 0.86213 0.0
C2160 C 0.53818 0.28958 0.85453 0.0
H2161 H 0.50333 0.30156 0.88821 0.0
H2162 H 0.51152 0.30698 0.85365 0.0
C2163 C 0.54903 0.27593 0.86557 0.0
C2164 C 0.95812 0.27485 0.11459 0.0
C2165 C 0.9706 0.28956 0.10713 0.0
H2166 H 0.94541 0.26186 0.14036 0.0
C2167 C 0.98195 0.30082 0.12018 0.0
H2168 H 0.94903 0.26613 0.10483 0.0
C2169 C 0.98004 0.29817 0.14045 0.0
C2170 C 0.96648 0.28447 0.14791 0.0
H2171 H 0.99164 0.3122 0.11468 0.0
H2172 H 0.98813 0.30778 0.15027 0.0
C2173 C 0.95596 0.27245 0.13485 0.0
C2174 C 0.96977 0.73421 0.36517 0.0
C2175 C 0.96588 0.7198 0.35075 0.0
H2176 H 0.97741 0.73972 0.39542 0.0
C2177 C 0.97057 0.70005 0.35502 0.0
H2178 H 0.96687 0.74959 0.36231 0.0
C2179 C 0.97655 0.6946 0.37378 0.0
C2180 C 0.97838 0.70873 0.38856 0.0
H2181 H 0.96816 0.68837 0.34456 0.0
H2182 H 0.9785 0.67916 0.37718 0.0
C2183 C 0.97596 0.72867 0.38403 0.0
C2184 C 0.47391 0.77706 0.61354 0.0
C2185 C 0.47911 0.7962 0.60772 0.0
H2186 H 0.46358 0.7587 0.63684 0.0
C2187 C 0.48139 0.81081 0.62217 0.0
H2188 H 0.472 0.76547 0.60279 0.0
C2189 C 0.47643 0.80696 0.64168 0.0
C2190 C 0.46924 0.78838 0.64709 0.0
H2191 H 0.48587 0.82556 0.61816 0.0
H2192 H 0.47722 0.81878 0.65234 0.0
C2193 C 0.46903 0.77318 0.63309 0.0
C2194 C 0.61499 0.52136 0.71604 0.0
C2195 C 0.6011 0.53664 0.71518 0.0
H2196 H 0.64499 0.5134 0.72085 0.0
C2197 C 0.60653 0.55546 0.72184 0.0
H2198 H 0.61131 0.50672 0.71098 0.0
C2199 C 0.6259 0.55932 0.72754 0.0
C2200 C 0.64022 0.54444 0.72671 0.0
H2201 H 0.59599 0.56741 0.72183 0.0
H2202 H 0.6299 0.57416 0.73172 0.0
C2203 C 0.63436 0.52522 0.72175 0.0
C2204 C 0.70291 0.38242 0.98188 0.0
C2205 C 0.71443 0.39563 0.971 0.0
H2206 H 0.69689 0.35225 0.98849 0.0
C2207 C 0.73066 0.38851 0.9603 0.0
H2208 H 0.69043 0.38763 0.99031 0.0
C2209 C 0.73429 0.36837 0.9592 0.0
C2210 C 0.72196 0.35509 0.96899 0.0
H2211 H 0.73969 0.39833 0.95163 0.0
H2212 H 0.746 0.36304 0.94979 0.0
C2213 C 0.70674 0.36227 0.98101 0.0
C2214 C 0.86412 0.4733 0.22768 0.0
C2215 C 0.8532 0.46154 0.21472 0.0
H2216 H 0.89236 0.48616 0.23385 0.0
C2217 C 0.86153 0.45541 0.19692 0.0
H2218 H 0.85767 0.47832 0.24136 0.0
C2219 C 0.88091 0.46001 0.19251 0.0
C2220 C 0.89244 0.47081 0.20588 0.0
H2221 H 0.85309 0.44663 0.18661 0.0
H2222 H 0.88709 0.45408 0.17909 0.0
C2223 C 0.88377 0.47779 0.22335 0.0
C2224 C 0.7968 0.62426 0.48675 0.0
C2225 C 0.78602 0.611 0.47521 0.0
H2226 H 0.80525 0.6541 0.49121 0.0
C2227 C 0.77237 0.61827 0.46144 0.0
H2228 H 0.80729 0.61892 0.49752 0.0
C2229 C 0.77121 0.63839 0.45773 0.0
C2230 C 0.78353 0.65148 0.46784 0.0
H2231 H 0.7639 0.60838 0.45226 0.0
H2232 H 0.76166 0.64359 0.44607 0.0
C2233 C 0.79553 0.64437 0.48316 0.0
C2234 C 0.63539 0.4427 0.77509 0.0
C2235 C 0.65023 0.45681 0.77793 0.0
H2236 H 0.60488 0.43563 0.7785 0.0
C2237 C 0.64478 0.47603 0.78349 0.0
H2238 H 0.63898 0.42797 0.77024 0.0
C2239 C 0.62526 0.48043 0.78806 0.0
C2240 C 0.61087 0.46569 0.78724 0.0
H2241 H 0.65568 0.48738 0.78582 0.0
H2242 H 0.62178 0.49489 0.79373 0.0
C2243 C 0.61589 0.44709 0.77977 0.0
C2244 C 0.77912 0.35933 0.0259 0.0
C2245 C 0.77431 0.35351 0.04516 0.0
H2246 H 0.78871 0.38271 0.00727 0.0
C2247 C 0.77169 0.36802 0.05966 0.0
H2248 H 0.78121 0.34861 0.01433 0.0
C2249 C 0.77616 0.3876 0.05561 0.0
C2250 C 0.78311 0.39302 0.03694 0.0
H2251 H 0.76741 0.36405 0.07448 0.0
H2252 H 0.77526 0.39833 0.06736 0.0
C2253 C 0.78346 0.37895 0.02182 0.0
C2254 C 0.87351 0.5494 0.26792 0.0
C2255 C 0.86182 0.53741 0.27997 0.0
H2256 H 0.90058 0.56531 0.26556 0.0
C2257 C 0.87075 0.52724 0.29565 0.0
H2258 H 0.86699 0.55713 0.2556 0.0
C2259 C 0.88995 0.53194 0.30136 0.0
C2260 C 0.90024 0.54677 0.29141 0.0
H2261 H 0.86212 0.51781 0.30514 0.0
H2262 H 0.8956 0.52599 0.31503 0.0
C2263 C 0.89264 0.55411 0.27365 0.0
C2264 C 0.73919 0.62797 0.54835 0.0
C2265 C 0.72722 0.64012 0.53675 0.0
H2266 H 0.74136 0.60036 0.56318 0.0
C2267 C 0.71174 0.63163 0.5259 0.0
H2268 H 0.75138 0.63419 0.55657 0.0
C2269 C 0.70593 0.61232 0.52978 0.0
C2270 C 0.71562 0.60154 0.54446 0.0
H2271 H 0.70235 0.64065 0.51672 0.0
H2272 H 0.69224 0.60703 0.52354 0.0
C2273 C 0.73345 0.60869 0.55213 0.0
C2274 C 0.55207 0.73481 0.63135 0.0
C2275 C 0.54071 0.72393 0.64468 0.0
H2276 H 0.55843 0.74071 0.60111 0.0
C2277 C 0.52508 0.71234 0.63762 0.0
H2278 H 0.56413 0.74387 0.63654 0.0
C2279 C 0.52192 0.7104 0.61745 0.0
C2280 C 0.53411 0.72027 0.60409 0.0
H2281 H 0.51622 0.70365 0.6476 0.0
H2282 H 0.51066 0.7004 0.61221 0.0
C2283 C 0.54869 0.73312 0.61118 0.0
C2284 C 0.02971 0.8083 0.38373 0.0
C2285 C 0.03298 0.79388 0.39821 0.0
H2286 H 0.03208 0.81588 0.35325 0.0
C2287 C 0.03749 0.77459 0.39216 0.0
H2288 H 0.02544 0.8231 0.38773 0.0
C2289 C 0.04096 0.77044 0.37239 0.0
C2290 C 0.04007 0.78549 0.35832 0.0
H2291 H 0.03995 0.76295 0.40271 0.0
H2292 H 0.046 0.75586 0.36845 0.0
C2293 C 0.03339 0.80418 0.36397 0.0
C2294 C 0.47796 0.21027 0.86673 0.0
C2295 C 0.46324 0.22321 0.86005 0.0
H2296 H 0.49116 0.19617 0.89166 0.0
C2297 C 0.45235 0.23408 0.87378 0.0
H2298 H 0.48643 0.20152 0.85647 0.0
C2299 C 0.45519 0.23109 0.89388 0.0
C2300 C 0.46879 0.21697 0.9005 0.0
H2301 H 0.44097 0.24413 0.86891 0.0
H2302 H 0.44575 0.23876 0.90416 0.0
C2303 C 0.48061 0.20709 0.88681 0.0
C2304 C 0.06038 0.12473 0.22044 0.0
C2305 C 0.0563 0.14335 0.2125 0.0
H2306 H 0.05663 0.09357 0.21757 0.0
C2307 C 0.04334 0.14487 0.19645 0.0
H2308 H 0.07036 0.12316 0.23279 0.0
C2309 C 0.03528 0.12803 0.18792 0.0
C2310 C 0.04029 0.10931 0.19509 0.0
H2311 H 0.03982 0.15907 0.19012 0.0
H2312 H 0.02592 0.12967 0.17511 0.0
C2313 C 0.05257 0.10782 0.2117 0.0
C2314 C 0.15104 0.80831 0.46092 0.0
C2315 C 0.14887 0.79331 0.44683 0.0
H2316 H 0.13668 0.829 0.47983 0.0
C2317 C 0.12981 0.78657 0.44228 0.0
H2318 H 0.16552 0.81378 0.46482 0.0
C2319 C 0.11325 0.79542 0.45075 0.0
C2320 C 0.1154 0.81103 0.46414 0.0
H2321 H 0.12759 0.77505 0.43149 0.0
H2322 H 0.09876 0.79042 0.44631 0.0
C2323 C 0.13449 0.81699 0.46957 0.0
C2324 C 0.47108 0.87733 0.68561 0.0
C2325 C 0.46626 0.89611 0.69279 0.0
H2326 H 0.46572 0.84637 0.68722 0.0
C2327 C 0.45309 0.89774 0.70866 0.0
H2328 H 0.48106 0.87559 0.6733 0.0
C2329 C 0.44447 0.88092 0.71681 0.0
C2330 C 0.44857 0.86226 0.70895 0.0
H2331 H 0.44911 0.91204 0.71449 0.0
H2332 H 0.43399 0.88261 0.72871 0.0
C2333 C 0.46218 0.8606 0.69348 0.0
C2334 C 0.37636 0.21764 0.94643 0.0
C2335 C 0.35751 0.21025 0.95078 0.0
H2336 H 0.40749 0.21413 0.94975 0.0
C2337 C 0.35581 0.19442 0.96399 0.0
H2338 H 0.37823 0.22984 0.93636 0.0
C2339 C 0.37264 0.18548 0.97179 0.0
C2340 C 0.39151 0.19207 0.96638 0.0
H2341 H 0.3415 0.18842 0.9677 0.0
H2342 H 0.37086 0.17278 0.98124 0.0
C2343 C 0.39317 0.20859 0.95408 0.0
C2344 C 0.06108 0.89363 0.29412 0.0
C2345 C 0.0468 0.89306 0.30906 0.0
H2346 H 0.08012 0.87705 0.27523 0.0
C2347 C 0.04003 0.87479 0.31587 0.0
H2348 H 0.06652 0.90757 0.2886 0.0
C2349 C 0.04809 0.85737 0.30851 0.0
C2350 C 0.06269 0.85796 0.29388 0.0
H2351 H 0.02913 0.87396 0.32748 0.0
H2352 H 0.04311 0.84346 0.31448 0.0
C2353 C 0.06879 0.87621 0.28642 0.0
C2354 C 0.37778 0.81175 0.53719 0.0
C2355 C 0.39683 0.80818 0.5445 0.0
H2356 H 0.34684 0.80683 0.54057 0.0
C2357 C 0.39918 0.79487 0.56016 0.0
H2358 H 0.37542 0.82189 0.52513 0.0
C2359 C 0.38275 0.78606 0.56891 0.0
C2360 C 0.36363 0.79057 0.56233 0.0
H2361 H 0.41367 0.79172 0.56608 0.0
H2362 H 0.385 0.77646 0.58143 0.0
C2363 C 0.36136 0.80313 0.54607 0.0
C2364 C 0.46633 0.12991 0.81116 0.0
C2365 C 0.458 0.11152 0.80684 0.0
H2366 H 0.4641 0.16117 0.80784 0.0
C2367 C 0.44186 0.11048 0.79392 0.0
H2368 H 0.47875 0.13111 0.82111 0.0
C2369 C 0.4337 0.1276 0.78606 0.0
C2370 C 0.44129 0.1461 0.79129 0.0
H2371 H 0.43524 0.09645 0.79022 0.0
H2372 H 0.42083 0.12638 0.7767 0.0
C2373 C 0.45792 0.14709 0.8036 0.0
C2374 C 0.12427 0.2202 0.06724 0.0
C2375 C 0.14347 0.21444 0.06204 0.0
H2376 H 0.0933 0.21563 0.06323 0.0
C2377 C 0.14594 0.20053 0.04692 0.0
H2378 H 0.12183 0.23085 0.07885 0.0
C2379 C 0.12955 0.19196 0.03781 0.0
C2380 C 0.11035 0.1969 0.04381 0.0
H2381 H 0.16053 0.19583 0.04252 0.0
H2382 H 0.13199 0.1808 0.0267 0.0
C2383 C 0.10789 0.21143 0.05832 0.0
C2384 C 0.20226 0.04444 0.14705 0.0
C2385 C 0.21455 0.06107 0.14607 0.0
H2386 H 0.18489 0.02351 0.13101 0.0
C2387 C 0.22004 0.0684 0.12755 0.0
H2388 H 0.19785 0.03841 0.16114 0.0
C2389 C 0.21243 0.06004 0.1104 0.0
C2390 C 0.19945 0.04398 0.11139 0.0
H2391 H 0.22945 0.0812 0.12628 0.0
H2392 H 0.2163 0.06652 0.09635 0.0
C2393 C 0.1949 0.03586 0.12983 0.0
C2394 C 0.21231 0.94822 0.39256 0.0
C2395 C 0.19818 0.96319 0.39067 0.0
H2396 H 0.23117 0.92778 0.37791 0.0
C2397 C 0.19311 0.96989 0.37177 0.0
H2398 H 0.21658 0.94282 0.40695 0.0
C2399 C 0.20129 0.96106 0.35504 0.0
C2400 C 0.21497 0.94564 0.35695 0.0
H2401 H 0.18219 0.98135 0.36988 0.0
H2402 H 0.19657 0.96598 0.34062 0.0
C2403 C 0.22075 0.93968 0.3759 0.0
C2404 C 0.29274 0.9526 0.61059 0.0
C2405 C 0.30845 0.96589 0.61276 0.0
H2406 H 0.27251 0.93319 0.62484 0.0
C2407 C 0.31445 0.97133 0.6318 0.0
H2408 H 0.28767 0.94822 0.59611 0.0
C2409 C 0.30584 0.96259 0.64831 0.0
C2410 C 0.29094 0.94838 0.6461 0.0
H2411 H 0.3265 0.98154 0.63397 0.0
H2412 H 0.31144 0.96637 0.66277 0.0
C2413 C 0.28401 0.94401 0.62709 0.0
C2414 C 0.29307 0.0501 0.8946 0.0
C2415 C 0.30875 0.03692 0.89169 0.0
H2416 H 0.27235 0.06974 0.88136 0.0
C2417 C 0.3143 0.03208 0.87236 0.0
H2418 H 0.28836 0.05404 0.90932 0.0
C2419 C 0.30524 0.04123 0.8563 0.0
C2420 C 0.29028 0.05522 0.85927 0.0
H2421 H 0.32633 0.02198 0.86962 0.0
H2422 H 0.31044 0.03786 0.84161 0.0
C2423 C 0.28385 0.05906 0.87855 0.0
C2424 C 0.62651 0.28166 0.94061 0.0
C2425 C 0.64489 0.28917 0.94651 0.0
H2426 H 0.59516 0.28409 0.94256 0.0
C2427 C 0.64549 0.30389 0.96105 0.0
H2428 H 0.6255 0.27028 0.92949 0.0
C2429 C 0.62804 0.31172 0.96867 0.0
C2430 C 0.60967 0.30511 0.96175 0.0
H2431 H 0.65942 0.3099 0.966 0.0
H2432 H 0.62897 0.32364 0.9792 0.0
C2433 C 0.60909 0.28961 0.94807 0.0
C2434 C 0.96248 0.36001 0.20126 0.0
C2435 C 0.94678 0.36191 0.21461 0.0
H2436 H 0.98271 0.37473 0.18213 0.0
C2437 C 0.94086 0.38082 0.22051 0.0
H2438 H 0.96748 0.34563 0.19654 0.0
C2439 C 0.94948 0.39748 0.21213 0.0
C2440 C 0.96437 0.39556 0.19789 0.0
H2441 H 0.92884 0.38279 0.23079 0.0
H2442 H 0.94394 0.41185 0.21625 0.0
C2443 C 0.97128 0.37669 0.19306 0.0
C2444 C 0.90021 0.70984 0.43338 0.0
C2445 C 0.89982 0.69981 0.45145 0.0
H2446 H 0.88359 0.72503 0.4113 0.0
C2447 C 0.88195 0.69844 0.46177 0.0
H2448 H 0.91381 0.71122 0.42516 0.0
C2449 C 0.86462 0.70613 0.45375 0.0
C2450 C 0.8649 0.7157 0.43543 0.0
H2451 H 0.88119 0.69077 0.47572 0.0
H2452 H 0.85092 0.7042 0.46169 0.0
C2453 C 0.88295 0.71789 0.42554 0.0
C2454 C 0.97736 0.62029 0.29495 0.0
C2455 C 0.97886 0.62038 0.31555 0.0
H2456 H 0.96411 0.63364 0.26959 0.0
C2457 C 0.97088 0.63611 0.32623 0.0
H2458 H 0.98301 0.60801 0.28649 0.0
C2459 C 0.96017 0.65075 0.31663 0.0
C2460 C 0.95693 0.64962 0.29624 0.0
H2461 H 0.97143 0.63613 0.34218 0.0
H2462 H 0.95298 0.66193 0.3254 0.0
C2463 C 0.96627 0.63473 0.28535 0.0
C2464 C 0.53639 0.38081 0.78824 0.0
C2465 C 0.54831 0.39626 0.7951 0.0
H2466 H 0.53577 0.35226 0.77483 0.0
C2467 C 0.56851 0.39626 0.79041 0.0
H2468 H 0.52077 0.3805 0.79144 0.0
C2469 C 0.57695 0.38025 0.78082 0.0
C2470 C 0.56533 0.36415 0.77547 0.0
H2471 H 0.57811 0.40803 0.79519 0.0
H2472 H 0.59282 0.37974 0.77908 0.0
C2473 C 0.54489 0.36483 0.77845 0.0
C2474 C 0.56016 0.60915 0.70463 0.0
C2475 C 0.54478 0.61152 0.69097 0.0
H2476 H 0.5805 0.62325 0.72414 0.0
C2477 C 0.53703 0.63041 0.68776 0.0
H2478 H 0.56631 0.59475 0.70759 0.0
C2479 C 0.54516 0.64672 0.69722 0.0
C2480 C 0.56109 0.64447 0.71024 0.0
H2481 H 0.52512 0.63271 0.67739 0.0
H2482 H 0.53937 0.66119 0.69384 0.0
C2483 C 0.56817 0.62546 0.71426 0.0
C2484 C 0.87287 0.31473 0.03541 0.0
C2485 C 0.89195 0.3083 0.0403 0.0
H2486 H 0.84189 0.31201 0.04083 0.0
C2487 C 0.8941 0.2924 0.05332 0.0
H2488 H 0.87071 0.32699 0.02547 0.0
C2489 C 0.87759 0.28374 0.06199 0.0
C2490 C 0.85857 0.29092 0.05802 0.0
H2491 H 0.90859 0.28704 0.05732 0.0
H2492 H 0.87987 0.27196 0.07249 0.0
C2493 C 0.85634 0.30621 0.04428 0.0
C2494 C 0.61128 0.71088 0.55237 0.0
C2495 C 0.61169 0.69594 0.53807 0.0
H2496 H 0.62793 0.72885 0.57218 0.0
C2497 C 0.63001 0.68896 0.53142 0.0
H2498 H 0.59741 0.71665 0.55773 0.0
C2499 C 0.6475 0.69582 0.53983 0.0
C2500 C 0.64704 0.70998 0.5549 0.0
H2501 H 0.63086 0.67746 0.52042 0.0
H2502 H 0.66134 0.68953 0.53499 0.0
C2503 C 0.62879 0.71791 0.56062 0.0
C2504 C 0.67416 0.5309 0.63581 0.0
C2505 C 0.68543 0.52493 0.61962 0.0
H2506 H 0.67396 0.54586 0.66351 0.0
C2507 C 0.70597 0.5271 0.62013 0.0
H2508 H 0.65824 0.52976 0.63543 0.0
C2509 C 0.71492 0.53696 0.63579 0.0
C2510 C 0.70345 0.54441 0.65129 0.0
H2511 H 0.71486 0.52288 0.60759 0.0
H2512 H 0.73062 0.53975 0.63522 0.0
C2513 C 0.68316 0.54031 0.65173 0.0
C2514 C 0.71059 0.44967 0.89338 0.0
C2515 C 0.69401 0.46173 0.89061 0.0
H2516 H 0.7321 0.431 0.8801 0.0
C2517 C 0.68765 0.46575 0.87132 0.0
H2518 H 0.71595 0.4464 0.90804 0.0
C2519 C 0.69685 0.45677 0.85523 0.0
C2520 C 0.71268 0.44374 0.85813 0.0
H2521 H 0.67491 0.47497 0.8687 0.0
H2522 H 0.69104 0.45942 0.84062 0.0
C2523 C 0.71987 0.44085 0.87732 0.0
C2524 C 0.80812 0.46431 0.12857 0.0
C2525 C 0.80403 0.45601 0.11007 0.0
H2526 H 0.80362 0.46261 0.15976 0.0
C2527 C 0.79049 0.44044 0.10879 0.0
H2528 H 0.81853 0.47629 0.12999 0.0
C2529 C 0.7817 0.43286 0.12573 0.0
C2530 C 0.78654 0.44045 0.14436 0.0
H2531 H 0.78696 0.43383 0.0947 0.0
H2532 H 0.77181 0.42044 0.12427 0.0
C2533 C 0.79959 0.45647 0.1456 0.0
C2534 C 0.80991 0.54216 0.36082 0.0
C2535 C 0.79477 0.55626 0.36091 0.0
H2536 H 0.82977 0.52471 0.37798 0.0
C2537 C 0.78672 0.56221 0.37901 0.0
H2538 H 0.81634 0.53719 0.3471 0.0
C2539 C 0.7945 0.55517 0.39668 0.0
C2540 C 0.81034 0.54188 0.39662 0.0
H2541 H 0.77503 0.57304 0.3796 0.0
H2542 H 0.78855 0.5607 0.4104 0.0
C2543 C 0.81755 0.53494 0.37851 0.0
C2544 C 0.99167 0.98447 0.2539 0.0
C2545 C 1.00074 0.99326 0.27041 0.0
H2546 H 0.98561 0.98622 0.22291 0.0
C2547 C 0.00767 0.01269 0.26851 0.0
H2548 H 0.98575 0.96971 0.25483 0.0
C2549 C 0.00716 0.0223 0.25023 0.0
C2550 C 0.99986 0.01269 0.23337 0.0
H2551 H 0.01495 0.01993 0.2807 0.0
H2552 H 0.01392 0.03668 0.24899 0.0
C2553 C 0.99148 0.99394 0.23557 0.0
C2554 C 0.27696 0.76067 0.50528 0.0
C2555 C 0.26794 0.75075 0.52097 0.0
H2556 H 0.27513 0.7703 0.47561 0.0
C2557 C 0.25041 0.74042 0.51729 0.0
H2558 H 0.29028 0.76912 0.50774 0.0
C2559 C 0.24185 0.74043 0.49841 0.0
C2560 C 0.2502 0.75141 0.48281 0.0
H2561 H 0.2431 0.73264 0.52913 0.0
H2562 H 0.22839 0.7322 0.49635 0.0
C2563 C 0.26818 0.7612 0.48662 0.0
C2564 C 0.49949 0.99328 0.76768 0.0
C2565 C 0.50547 0.01302 0.76935 0.0
H2566 H 0.49423 0.96884 0.74842 0.0
C2567 C 0.51399 0.02209 0.75275 0.0
H2568 H 0.49265 0.98585 0.78 0.0
C2569 C 0.51462 0.01243 0.73453 0.0
C2570 C 0.50708 0.99329 0.73249 0.0
H2571 H 0.51907 0.03718 0.75353 0.0
H2572 H 0.52013 0.02029 0.72181 0.0
C2573 C 0.50033 0.98352 0.74948 0.0
C2574 C 0.24452 0.26411 0.9922 0.0
C2575 C 0.26185 0.25333 0.98891 0.0
H2576 H 0.22286 0.27368 0.0129 0.0
C2577 C 0.27082 0.24396 0.00496 0.0
H2578 H 0.23728 0.2715 0.98007 0.0
C2579 C 0.26224 0.24445 0.02366 0.0
C2580 C 0.24451 0.25478 0.02719 0.0
H2581 H 0.28399 0.2352 0.00283 0.0
H2582 H 0.26918 0.23569 0.03496 0.0
C2583 C 0.23616 0.26513 0.01114 0.0
C2584 C 0.25356 0.00466 0.97956 0.0
C2585 C 0.2705 0.99684 0.98863 0.0
H2586 H 0.22339 0.01342 0.98291 0.0
C2587 C 0.26862 0.98871 0.00754 0.0
H2588 H 0.25452 0.01124 0.96507 0.0
C2589 C 0.25065 0.98968 0.01767 0.0
C2590 C 0.23415 0.99916 0.00933 0.0
H2591 H 0.2813 0.9824 0.01488 0.0
H2592 H 0.25003 0.98399 0.03254 0.0
C2593 C 0.23562 0.00585 0.98979 0.0
C2594 C 0.26593 0.01567 0.25721 0.0
C2595 C 0.25496 0.01968 0.24015 0.0
H2596 H 0.2753 0.99422 0.27817 0.0
C2597 C 0.24511 0.00409 0.23086 0.0
H2598 H 0.27367 0.02743 0.26469 0.0
C2599 C 0.24524 0.98517 0.23897 0.0
C2600 C 0.25566 0.98097 0.2565 0.0
H2601 H 0.23622 0.0068 0.21788 0.0
H2602 H 0.23612 0.97424 0.23187 0.0
C2603 C 0.2666 0.99652 0.26505 0.0
C2604 C 0.26971 0.01582 0.49568 0.0
C2605 C 0.2709 0.00719 0.51442 0.0
H2606 H 0.25167 0.02235 0.47068 0.0
C2607 C 0.25346 1.00017 0.52314 0.0
H2608 H 0.28283 0.02151 0.48863 0.0
C2609 C 0.23561 1.00023 0.51269 0.0
C2610 C 0.23469 0.00748 0.4933 0.0
H2611 H 0.25391 0.99322 0.53748 0.0
H2612 H 0.22293 0.9932 0.51931 0.0
C2613 C 0.25181 0.01618 0.48536 0.0
C2614 C 0.23844 0.00699 0.76733 0.0
C2615 C 0.2491 0.02289 0.75908 0.0
H2616 H 0.2316 0.97604 0.76612 0.0
C2617 C 0.25947 0.01922 0.74142 0.0
H2618 H 0.22982 0.00887 0.78055 0.0
C2619 C 0.25971 1.00052 0.7328 0.0
C2620 C 0.25003 0.9846 0.74169 0.0
H2621 H 0.26841 0.03042 0.73456 0.0
H2622 H 0.26847 0.99825 0.71967 0.0
C2623 C 0.23922 0.98805 0.75895 0.0
C2624 C 0.99008 0.23399 0.01062 0.0
C2625 C 0.0083 0.23085 1.00103 0.0
H2626 H 0.96724 0.25427 0.01854 0.0
C2627 C 0.01634 0.24689 0.99046 0.0
H2628 H 0.98331 0.22265 0.01946 0.0
C2629 C 0.00721 0.26549 0.9906 0.0
C2630 C 0.98942 0.26849 1.00072 0.0
H2631 H 0.02998 0.24539 0.98241 0.0
H2632 H 0.01427 0.27766 0.98311 0.0
C2633 C 0.98075 0.25237 0.01026 0.0
C2634 C 0.48783 0.26559 0.99137 0.0
C2635 C 0.5059 0.26967 1.00089 0.0
H2636 H 0.46541 0.24444 0.9847 0.0
C2637 C 0.51399 0.25464 0.01285 0.0
H2638 H 0.481 0.27612 0.98162 0.0
C2639 C 0.50518 0.23594 0.01393 0.0
C2640 C 0.48762 0.23193 0.00377 0.0
H2641 H 0.52747 0.25695 0.02099 0.0
H2642 H 0.51235 0.22445 0.02233 0.0
C2643 C 0.47877 0.24716 0.99301 0.0
C2644 C 1.00199 0.27422 0.2507 0.0
C2645 C 0.98463 0.26524 0.25761 0.0
H2646 H 0.03258 0.27073 0.24367 0.0
C2647 C 0.98604 0.24649 0.26618 0.0
H2648 H 1.0014 0.28858 0.24381 0.0
C2649 C 0.00402 0.23636 0.26641 0.0
C2650 C 0.02101 0.24453 0.2577 0.0
H2651 H 0.973 0.23924 0.27181 0.0
H2652 H 0.00432 0.22157 0.2723 0.0
C2653 C 0.01995 0.26398 0.25068 0.0
C2654 C 0.02631 0.75638 0.49889 0.0
C2655 C 0.01645 0.77373 0.50463 0.0
H2656 H 0.02384 0.72577 0.49137 0.0
C2657 C 0.99659 0.7722 0.51034 0.0
H2658 H 0.04152 0.75692 0.49413 0.0
C2659 C 0.98646 0.75428 0.50873 0.0
C2660 C 0.99588 0.73734 0.50136 0.0
H2661 H 0.98855 0.7851 0.51514 0.0
H2662 H 0.97089 0.75395 0.51217 0.0
C2663 C 0.01616 0.73842 0.4973 0.0
C2664 C 0.49701 0.74057 0.4874 0.0
C2665 C 0.5149 0.73746 0.49733 0.0
H2666 H 0.47436 0.7609 0.47943 0.0
C2667 C 0.52403 0.75358 0.50647 0.0
H2668 H 0.48964 0.72841 0.48019 0.0
C2669 C 0.51498 0.77208 0.50678 0.0
C2670 C 0.49658 0.77527 0.49757 0.0
H2671 H 0.53765 0.75159 0.51457 0.0
H2672 H 0.52203 0.78347 0.51537 0.0
C2673 C 0.48816 0.75928 0.48721 0.0
C2674 C 0.00409 0.72826 0.25746 0.0
C2675 C 0.98743 0.73772 0.24948 0.0
H2676 H 0.03449 0.73063 0.2657 0.0
C2677 C 0.98998 0.7562 0.2406 0.0
H2678 H 1.00264 0.71407 0.26456 0.0
C2679 C 0.0084 0.76554 0.24089 0.0
C2680 C 0.02469 0.75688 0.25047 0.0
H2681 H 0.97755 0.76377 0.23409 0.0
H2682 H 0.00959 0.78009 0.23454 0.0
C2683 C 0.02246 0.73774 0.25801 0.0
C2684 C 0.48608 0.2569 0.77931 0.0
C2685 C 0.48092 0.24615 0.76239 0.0
H2686 H 0.50775 0.27401 0.79429 0.0
C2687 C 0.49528 0.24365 0.74759 0.0
H2688 H 0.47583 0.25847 0.79143 0.0
C2689 C 0.51397 0.25263 0.74935 0.0
C2690 C 0.51859 0.2641 0.76599 0.0
H2691 H 0.49191 0.23516 0.73453 0.0
H2692 H 0.52454 0.25111 0.73751 0.0
C2693 C 0.50453 0.26568 0.78107 0.0
C2694 C 0.50828 0.51379 0.76844 0.0
C2695 C 0.50073 0.4946 0.769 0.0
H2696 H 0.51513 0.53883 0.751 0.0
C2697 C 0.49106 0.4873 0.75216 0.0
H2698 H 0.5162 0.51968 0.78098 0.0
C2699 C 0.49011 0.49844 0.73478 0.0
C2700 C 0.4991 0.51709 0.73365 0.0
H2701 H 0.48514 0.47251 0.75214 0.0
H2702 H 0.48301 0.49203 0.72204 0.0
C2703 C 0.50763 0.5248 0.75103 0.0
C2704 C 0.76713 0.23568 0.00864 0.0
C2705 C 0.75875 0.24568 0.02488 0.0
H2706 H 0.76573 0.22954 0.97756 0.0
C2707 C 0.74054 0.25528 0.02178 0.0
H2708 H 0.78078 0.22764 0.01014 0.0
C2709 C 0.73161 0.25563 0.00321 0.0
C2710 C 0.74068 0.24678 0.9869 0.0
H2711 H 0.73352 0.26367 0.03332 0.0
H2712 H 0.71813 0.26397 1.00135 0.0
C2713 C 0.7584 0.23653 0.98987 0.0
C2714 C 0.97607 0.51321 0.23502 0.0
C2715 C 0.99161 0.49991 0.23173 0.0
H2716 H 0.96192 0.53319 0.25465 0.0
C2717 C 0.00516 0.49676 0.24719 0.0
H2718 H 0.9648 0.51552 0.22397 0.0
C2719 C 0.00338 0.507 0.26519 0.0
C2720 C 0.98803 0.52063 0.26811 0.0
H2721 H 0.01724 0.48652 0.24534 0.0
H2722 H 0.01417 0.50449 0.27667 0.0
C2723 C 0.97432 0.52334 0.25281 0.0
C2724 C 0.75041 0.7608 0.48541 0.0
C2725 C 0.76769 0.75041 0.48088 0.0
H2726 H 0.72874 0.76797 0.507 0.0
C2727 C 0.77657 0.73914 0.49573 0.0
H2728 H 0.74321 0.76957 0.47421 0.0
C2729 C 0.76786 0.73737 0.51433 0.0
C2730 C 0.75012 0.74723 0.51898 0.0
H2731 H 0.7897 0.73065 0.49259 0.0
H2732 H 0.77469 0.7273 0.52457 0.0
C2733 C 0.74197 0.75957 0.50428 0.0
C2734 C 0.73844 0.50076 0.5064 0.0
C2735 C 0.73466 0.51598 0.51995 0.0
H2736 H 0.75937 0.48762 0.4865 0.0
C2737 C 0.74935 0.53024 0.52302 0.0
H2738 H 0.7274 0.4896 0.50363 0.0
C2739 C 0.76745 0.52911 0.51341 0.0
C2740 C 0.77168 0.51365 0.50031 0.0
H2741 H 0.74679 0.54253 0.53286 0.0
H2742 H 0.77802 0.54076 0.51602 0.0
C2743 C 0.75679 0.4996 0.49667 0.0
C2744 C 0.76614 0.48446 0.74749 0.0
C2745 C 0.75625 0.48034 0.76515 0.0
H2746 H 0.77285 0.50568 0.72528 0.0
C2747 C 0.7456 0.49557 0.77424 0.0
H2748 H 0.77448 0.47304 0.74014 0.0
C2749 C 0.74394 0.5141 0.7654 0.0
C2750 C 0.75322 0.51827 0.74729 0.0
H2751 H 0.73748 0.4928 0.78767 0.0
H2752 H 0.73437 0.5247 0.77241 0.0
C2753 C 0.76494 0.50325 0.73887 0.0
C2754 C 0.76668 0.49397 0.98936 0.0
C2755 C 0.76811 0.50057 0.00896 0.0
H2756 H 0.74773 0.48817 0.96473 0.0
C2757 C 0.75138 0.50947 0.01748 0.0
H2758 H 0.77907 0.48684 0.98233 0.0
C2759 C 0.73329 0.5099 0.0075 0.0
C2760 C 0.73152 0.50186 0.98853 0.0
H2761 H 0.75194 0.5151 0.03238 0.0
H2762 H 0.72046 0.51568 0.01499 0.0
C2763 C 0.74862 0.49468 0.97926 0.0
C2764 C 0.74004 0.50279 0.2682 0.0
C2765 C 0.75128 0.51799 0.25945 0.0
H2766 H 0.73098 0.47244 0.26714 0.0
C2767 C 0.75985 0.51405 0.24093 0.0
H2768 H 0.73261 0.50503 0.28208 0.0
C2769 C 0.75807 0.49557 0.23203 0.0
C2770 C 0.74808 0.48016 0.24148 0.0
H2771 H 0.76902 0.52477 0.23359 0.0
H2772 H 0.76569 0.49296 0.21827 0.0
C2773 C 0.7388 0.48404 0.25952 0.0
C2774 C 0.50626 0.73284 0.74591 0.0
C2775 C 0.52355 0.74228 0.75244 0.0
H2776 H 0.47546 0.73554 0.73936 0.0
C2777 C 0.52189 0.76118 0.76061 0.0
H2778 H 0.50704 0.71834 0.73932 0.0
C2779 C 0.50368 0.77092 0.76102 0.0
C2780 C 0.48667 0.76223 0.7528 0.0
H2781 H 0.53487 0.76879 0.76594 0.0
H2782 H 0.50318 0.78576 0.76678 0.0
C2783 C 0.48806 0.74271 0.74601 0.0
loop_
_geom_bond_atom_site_label_1
_geom_bond_atom_site_label_2
_geom_bond_distance
_geom_bond_site_symmetry_2
_ccdc_geom_bond_type
Co0 N4 2.148 . S
Co0 N10 2.128 . S
Co0 N20 2.194 . S
Co0 O25 2.351 . S
Co0 O26 2.155 . S
Co0 O27 2.096 . S
C1 N4 1.301 . S
C1 N5 1.328 . S
C1 H6 0.930 . S
C2 C3 1.333 . S
C2 N4 1.317 . S
C2 H7 0.930 . S
C3 C2 1.333 . S
C3 N5 1.350 . S
C3 H29 0.931 . S
N4 Co0 2.148 . S
N4 C1 1.301 . S
N4 C2 1.317 . S
N5 C1 1.328 . S
N5 C3 1.350 . S
H6 C1 0.930 . S
H7 C2 0.930 . S
C8 O9 1.224 . S
C8 O27 1.247 . S
O9 C8 1.224 . S
N10 Co0 2.128 . S
N10 C11 1.355 . S
N10 C13 1.311 . S
C11 N10 1.355 . S
C11 C12 1.369 1_455 S
C11 H23 0.929 . S
C12 C11 1.369 1_655 S
C12 N14 1.374 1_655 S
C12 H30 0.926 . S
C13 N10 1.311 . S
C13 N14 1.388 . S
C13 H24 0.929 . S
N14 C12 1.374 1_455 S
N14 C13 1.388 . S
C15 C18 1.365 1_545 S
C15 N20 1.328 . S
C15 H21 0.929 . S
C16 C17 1.362 . S
C16 C19 1.378 . S
C16 H31 0.929 . S
C17 C16 1.362 . S
C17 C18 1.366 1_545 S
C18 C15 1.365 1_565 S
C18 C17 1.366 1_565 S
C18 H32 0.930 . S
C19 C16 1.378 . S
C19 N20 1.315 . S
C19 H22 0.930 . S
N20 Co0 2.194 . S
N20 C15 1.328 . S
N20 C19 1.315 . S
H21 C15 0.929 . S
H22 C19 0.930 . S
H23 C11 0.929 . S
H24 C13 0.929 . S
O25 Co0 2.351 . S
O25 C28 1.244 . S
O26 Co0 2.155 . S
O26 C28 1.240 . S
O27 Co0 2.096 . S
O27 C8 1.247 . S
C28 O25 1.244 . S
C28 O26 1.240 . S
H29 C3 0.931 . S
H30 C12 0.926 . S
H31 C16 0.929 . S
H32 C18 0.930 . S
Co33 N37 2.148 . S
Co33 N43 2.128 . S
Co33 N53 2.194 . S
Co33 O58 2.351 . S
Co33 O59 2.155 . S
Co33 O60 2.096 . S
C34 N37 1.301 . S
C34 N38 1.328 . S
C34 H39 0.930 . S
C35 C36 1.333 . S
C35 N37 1.317 . S
C35 H40 0.930 . S
C36 C35 1.333 . S
C36 N38 1.350 . S
C36 H62 0.931 . S
N37 Co33 2.148 . S
N37 C34 1.301 . S
N37 C35 1.317 . S
N38 C34 1.328 . S
N38 C36 1.350 . S
H39 C34 0.930 . S
H40 C35 0.930 . S
C41 O42 1.224 . S
C41 O60 1.247 . S
O42 C41 1.224 . S
N43 Co33 2.128 . S
N43 C44 1.355 . S
N43 C46 1.311 . S
C44 N43 1.355 . S
C44 C45 1.363 . S
C44 H56 0.929 . S
C45 C44 1.363 . S
C45 N47 1.375 . S
C45 H63 0.931 . S
C46 N43 1.311 . S
C46 N47 1.347 . S
C46 H57 0.929 . S
N47 C45 1.375 . S
N47 C46 1.347 . S
C48 C51 1.365 . S
C48 N53 1.328 . S
C48 H54 0.929 . S
C49 C50 1.362 . S
C49 C52 1.378 . S
C49 H64 0.929 . S
C50 C49 1.362 . S
C50 C51 1.366 . S
C51 C48 1.365 . S
C51 C50 1.366 . S
C51 H65 0.930 . S
C52 C49 1.378 . S
C52 N53 1.315 . S
C52 H55 0.930 . S
N53 Co33 2.194 . S
N53 C48 1.328 . S
N53 C52 1.315 . S
H54 C48 0.929 . S
H55 C52 0.930 . S
H56 C44 0.929 . S
H57 C46 0.929 . S
O58 Co33 2.351 . S
O58 C61 1.244 . S
O59 Co33 2.155 . S
O59 C61 1.240 . S
O60 Co33 2.096 . S
O60 C41 1.247 . S
C61 O58 1.244 . S
C61 O59 1.240 . S
H62 C36 0.931 . S
H63 C45 0.931 . S
H64 C49 0.929 . S
H65 C51 0.930 . S
Co66 N70 2.148 . S
Co66 N76 2.128 . S
Co66 N86 2.194 . S
Co66 O91 2.351 . S
Co66 O92 2.155 . S
Co66 O93 2.096 . S
C67 N70 1.301 . S
C67 N71 1.328 . S
C67 H72 0.930 . S
C68 C69 1.333 . S
C68 N70 1.317 . S
C68 H73 0.930 . S
C69 C68 1.333 . S
C69 N71 1.350 . S
C69 H95 0.931 . S
N70 Co66 2.148 . S
N70 C67 1.301 . S
N70 C68 1.317 . S
N71 C67 1.328 . S
N71 C69 1.350 . S
H72 C67 0.930 . S
H73 C68 0.930 . S
C74 O75 1.224 . S
C74 O93 1.247 . S
O75 C74 1.224 . S
N76 Co66 2.128 . S
N76 C77 1.355 . S
N76 C79 1.311 . S
C77 N76 1.355 . S
C77 C78 1.363 . S
C77 H89 0.929 . S
C78 C77 1.363 . S
C78 N80 1.375 . S
C78 H96 0.931 . S
C79 N76 1.311 . S
C79 N80 1.347 . S
C79 H90 0.929 . S
N80 C78 1.375 . S
N80 C79 1.347 . S
C81 C84 1.365 1_565 S
C81 N86 1.328 . S
C81 H87 0.929 . S
C82 C83 1.362 . S
C82 C85 1.378 . S
C82 H97 0.929 . S
C83 C82 1.362 . S
C83 C84 1.366 1_565 S
C84 C81 1.365 1_545 S
C84 C83 1.366 1_545 S
C84 H98 0.930 . S
C85 C82 1.378 . S
C85 N86 1.315 . S
C85 H88 0.930 . S
N86 Co66 2.194 . S
N86 C81 1.328 . S
N86 C85 1.315 . S
H87 C81 0.929 . S
H88 C85 0.930 . S
H89 C77 0.929 . S
H90 C79 0.929 . S
O91 Co66 2.351 . S
O91 C94 1.244 . S
O92 Co66 2.155 . S
O92 C94 1.240 . S
O93 Co66 2.096 . S
O93 C74 1.247 . S
C94 O91 1.244 . S
C94 O92 1.240 . S
H95 C69 0.931 . S
H96 C78 0.931 . S
H97 C82 0.929 . S
H98 C84 0.930 . S
Co99 N103 2.148 . S
Co99 N109 2.128 . S
Co99 N119 2.194 . S
Co99 O124 2.351 . S
Co99 O125 2.155 . S
Co99 O126 2.096 . S
C100 N103 1.301 . S
C100 N104 1.328 . S
C100 H105 0.930 . S
C101 C102 1.333 . S
C101 N103 1.317 . S
C101 H106 0.930 . S
C102 C101 1.333 . S
C102 N104 1.350 . S
C102 H128 0.931 . S
N103 Co99 2.148 . S
N103 C100 1.301 . S
N103 C101 1.317 . S
N104 C100 1.328 . S
N104 C102 1.350 . S
H105 C100 0.930 . S
H106 C101 0.930 . S
C107 O108 1.224 . S
C107 O126 1.247 . S
O108 C107 1.224 . S
N109 Co99 2.128 . S
N109 C110 1.355 . S
N109 C112 1.311 . S
C110 N109 1.355 . S
C110 C111 1.363 . S
C110 H122 0.929 . S
C111 C110 1.363 . S
C111 N113 1.375 . S
C111 H129 0.931 . S
C112 N109 1.311 . S
C112 N113 1.347 . S
C112 H123 0.929 . S
N113 C111 1.375 . S
N113 C112 1.347 . S
C114 C117 1.365 . S
C114 N119 1.328 . S
C114 H120 0.929 . S
C115 C116 1.362 . S
C115 C118 1.378 . S
C115 H130 0.929 . S
C116 C115 1.362 . S
C116 C117 1.366 . S
C117 C114 1.365 . S
C117 C116 1.366 . S
C117 H131 0.930 . S
C118 C115 1.378 . S
C118 N119 1.315 . S
C118 H121 0.930 . S
N119 Co99 2.194 . S
N119 C114 1.328 . S
N119 C118 1.315 . S
H120 C114 0.929 . S
H121 C118 0.930 . S
H122 C110 0.929 . S
H123 C112 0.929 . S
O124 Co99 2.351 . S
O124 C127 1.244 . S
O125 Co99 2.155 . S
O125 C127 1.240 . S
O126 Co99 2.096 . S
O126 C107 1.247 . S
C127 O124 1.244 . S
C127 O125 1.240 . S
H128 C102 0.931 . S
H129 C111 0.931 . S
H130 C115 0.929 . S
H131 C117 0.930 . S
Co132 N136 2.148 . S
Co132 N142 2.128 . S
Co132 N152 2.194 . S
Co132 O157 2.351 . S
Co132 O158 2.155 . S
Co132 O159 2.096 . S
C133 N136 1.301 . S
C133 N137 1.328 . S
C133 H138 0.930 . S
C134 C135 1.333 . S
C134 N136 1.317 . S
C134 H139 0.930 . S
C135 C134 1.333 . S
C135 N137 1.350 . S
C135 H161 0.931 . S
N136 Co132 2.148 . S
N136 C133 1.301 . S
N136 C134 1.317 . S
N137 C133 1.328 . S
N137 C135 1.350 . S
H138 C133 0.930 . S
H139 C134 0.930 . S
C140 O141 1.224 . S
C140 O159 1.247 . S
O141 C140 1.224 . S
N142 Co132 2.128 . S
N142 C143 1.355 . S
N142 C145 1.311 . S
C143 N142 1.355 . S
C143 C144 1.362 . S
C143 H155 0.929 . S
C144 C143 1.362 . S
C144 N146 1.374 . S
C144 H162 0.932 1_455 S
C145 N142 1.311 . S
C145 N146 1.392 . S
C145 H156 0.929 . S
N146 C144 1.374 . S
N146 C145 1.392 . S
C147 C150 1.365 1_565 S
C147 N152 1.328 . S
C147 H153 0.929 . S
C148 C149 1.362 . S
C148 C151 1.378 . S
C148 H163 0.929 . S
C149 C148 1.362 . S
C149 C150 1.366 1_565 S
C150 C147 1.365 1_545 S
C150 C149 1.366 1_545 S
C150 H164 0.930 . S
C151 C148 1.378 . S
C151 N152 1.315 . S
C151 H154 0.930 . S
N152 Co132 2.194 . S
N152 C147 1.328 . S
N152 C151 1.315 . S
H153 C147 0.929 . S
H154 C151 0.930 . S
H155 C143 0.929 . S
H156 C145 0.929 . S
O157 Co132 2.351 . S
O157 C160 1.244 . S
O158 Co132 2.155 . S
O158 C160 1.240 . S
O159 Co132 2.096 . S
O159 C140 1.247 . S
C160 O157 1.244 . S
C160 O158 1.240 . S
H161 C135 0.931 . S
H162 C144 0.932 1_655 S
H163 C148 0.929 . S
H164 C150 0.930 . S
Co165 N169 2.148 . S
Co165 N175 2.128 . S
Co165 N185 2.194 . S
Co165 O190 2.351 . S
Co165 O191 2.155 . S
Co165 O192 2.096 . S
C166 N169 1.301 . S
C166 N170 1.328 . S
C166 H171 0.930 . S
C167 C168 1.333 . S
C167 N169 1.317 . S
C167 H172 0.930 . S
C168 C167 1.333 . S
C168 N170 1.350 . S
C168 H194 0.931 . S
N169 Co165 2.148 . S
N169 C166 1.301 . S
N169 C167 1.317 . S
N170 C166 1.328 . S
N170 C168 1.350 . S
H171 C166 0.930 . S
H172 C167 0.930 . S
C173 O174 1.224 . S
C173 O192 1.247 . S
O174 C173 1.224 . S
N175 Co165 2.128 . S
N175 C176 1.355 . S
N175 C178 1.311 . S
C176 N175 1.355 . S
C176 C177 1.363 . S
C176 H188 0.929 . S
C177 C176 1.363 . S
C177 N179 1.375 . S
C177 H195 0.931 . S
C178 N175 1.311 . S
C178 N179 1.347 . S
C178 H189 0.929 . S
N179 C177 1.375 . S
N179 C178 1.347 . S
C180 C183 1.365 . S
C180 N185 1.328 . S
C180 H186 0.929 . S
C181 C182 1.362 . S
C181 C184 1.378 . S
C181 H196 0.929 . S
C182 C181 1.362 . S
C182 C183 1.366 . S
C183 C180 1.365 . S
C183 C182 1.366 . S
C183 H197 0.930 . S
C184 C181 1.378 . S
C184 N185 1.315 . S
C184 H187 0.930 . S
N185 Co165 2.194 . S
N185 C180 1.328 . S
N185 C184 1.315 . S
H186 C180 0.929 . S
H187 C184 0.930 . S
H188 C176 0.929 . S
H189 C178 0.929 . S
O190 Co165 2.351 . S
O190 C193 1.244 . S
O191 Co165 2.155 . S
O191 C193 1.240 . S
O192 Co165 2.096 . S
O192 C173 1.247 . S
C193 O190 1.244 . S
C193 O191 1.240 . S
H194 C168 0.931 . S
H195 C177 0.931 . S
H196 C181 0.929 . S
H197 C183 0.930 . S
Co198 N202 2.148 . S
Co198 N208 2.128 . S
Co198 N218 2.194 . S
Co198 O223 2.351 . S
Co198 O224 2.155 . S
Co198 O225 2.096 . S
C199 N202 1.301 . S
C199 N203 1.328 . S
C199 H204 0.930 . S
C200 C201 1.333 . S
C200 N202 1.317 . S
C200 H205 0.930 . S
C201 C200 1.333 . S
C201 N203 1.350 . S
C201 H227 0.931 . S
N202 Co198 2.148 . S
N202 C199 1.301 . S
N202 C200 1.317 . S
N203 C199 1.328 . S
N203 C201 1.350 . S
H204 C199 0.930 . S
H205 C200 0.930 . S
C206 O207 1.224 . S
C206 O225 1.247 . S
O207 C206 1.224 . S
N208 Co198 2.128 . S
N208 C209 1.355 . S
N208 C211 1.311 . S
C209 N208 1.355 . S
C209 C210 1.363 . S
C209 H221 0.929 . S
C210 C209 1.363 . S
C210 N212 1.375 . S
C210 H228 0.931 . S
C211 N208 1.311 . S
C211 N212 1.347 . S
C211 H222 0.929 . S
N212 C210 1.375 . S
N212 C211 1.347 . S
C213 C216 1.365 1_545 S
C213 N218 1.328 . S
C213 H219 0.929 . S
C214 C215 1.362 . S
C214 C217 1.378 . S
C214 H229 0.929 . S
C215 C214 1.362 . S
C215 C216 1.366 1_545 S
C216 C213 1.365 1_565 S
C216 C215 1.366 1_565 S
C216 H230 0.930 . S
C217 C214 1.378 . S
C217 N218 1.315 . S
C217 H220 0.930 . S
N218 Co198 2.194 . S
N218 C213 1.328 . S
N218 C217 1.315 . S
H219 C213 0.929 . S
H220 C217 0.930 . S
H221 C209 0.929 . S
H222 C211 0.929 . S
O223 Co198 2.351 . S
O223 C226 1.244 . S
O224 Co198 2.155 . S
O224 C226 1.240 . S
O225 Co198 2.096 . S
O225 C206 1.247 . S
C226 O223 1.244 . S
C226 O224 1.240 . S
H227 C201 0.931 . S
H228 C210 0.931 . S
H229 C214 0.929 . S
H230 C216 0.930 . S
Co231 N235 2.148 . S
Co231 N241 2.128 . S
Co231 N251 2.194 . S
Co231 O256 2.351 . S
Co231 O257 2.155 . S
Co231 O258 2.096 . S
C232 N235 1.301 . S
C232 N236 1.328 . S
C232 H237 0.930 . S
C233 C234 1.333 . S
C233 N235 1.317 . S
C233 H238 0.930 . S
C234 C233 1.333 . S
C234 N236 1.350 . S
C234 H260 0.931 . S
N235 Co231 2.148 . S
N235 C232 1.301 . S
N235 C233 1.317 . S
N236 C232 1.328 . S
N236 C234 1.350 . S
H237 C232 0.930 . S
H238 C233 0.930 . S
C239 O240 1.224 . S
C239 O258 1.247 . S
O240 C239 1.224 . S
N241 Co231 2.128 . S
N241 C242 1.355 . S
N241 C244 1.311 . S
C242 N241 1.355 . S
C242 C243 1.363 . S
C242 H254 0.929 . S
C243 C242 1.363 . S
C243 N245 1.375 . S
C243 H261 0.931 . S
C244 N241 1.311 . S
C244 N245 1.347 . S
C244 H255 0.929 . S
N245 C243 1.375 . S
N245 C244 1.347 . S
C246 C249 1.365 . S
C246 N251 1.328 . S
C246 H252 0.929 . S
C247 C248 1.362 . S
C247 C250 1.378 . S
C247 H262 0.929 . S
C248 C247 1.362 . S
C248 C249 1.366 . S
C249 C246 1.365 . S
C249 C248 1.366 . S
C249 H263 0.930 . S
C250 C247 1.378 . S
C250 N251 1.315 . S
C250 H253 0.930 . S
N251 Co231 2.194 . S
N251 C246 1.328 . S
N251 C250 1.315 . S
H252 C246 0.929 . S
H253 C250 0.930 . S
H254 C242 0.929 . S
H255 C244 0.929 . S
O256 Co231 2.351 . S
O256 C259 1.244 . S
O257 Co231 2.155 . S
O257 C259 1.240 . S
O258 Co231 2.096 . S
O258 C239 1.247 . S
C259 O256 1.244 . S
C259 O257 1.240 . S
H260 C234 0.931 . S
H261 C243 0.931 . S
H262 C247 0.929 . S
H263 C249 0.930 . S
Co264 N268 2.148 . S
Co264 N274 2.128 . S
Co264 N284 2.194 . S
Co264 O289 2.351 . S
Co264 O290 2.155 . S
Co264 O291 2.096 . S
C265 N268 1.301 . S
C265 N269 1.328 . S
C265 H270 0.930 . S
C266 C267 1.333 . S
C266 N268 1.317 . S
C266 H271 0.930 . S
C267 C266 1.333 . S
C267 N269 1.350 . S
C267 H293 0.931 . S
N268 Co264 2.148 . S
N268 C265 1.301 . S
N268 C266 1.317 . S
N269 C265 1.328 . S
N269 C267 1.350 . S
H270 C265 0.930 . S
H271 C266 0.930 . S
C272 O273 1.224 . S
C272 O291 1.247 . S
O273 C272 1.224 . S
N274 Co264 2.128 . S
N274 C275 1.355 . S
N274 C277 1.311 . S
C275 N274 1.355 . S
C275 C276 1.369 1_545 S
C275 H287 0.929 . S
C276 C275 1.369 1_565 S
C276 N278 1.374 1_565 S
C276 H294 0.926 . S
C277 N274 1.311 . S
C277 N278 1.388 . S
C277 H288 0.929 . S
N278 C276 1.374 1_545 S
N278 C277 1.388 . S
C279 C282 1.365 1_554 S
C279 N284 1.328 . S
C279 H285 0.929 . S
C280 C281 1.362 . S
C280 C283 1.378 . S
C280 H295 0.929 . S
C281 C280 1.362 . S
C281 C282 1.366 1_554 S
C282 C279 1.365 1_556 S
C282 C281 1.366 1_556 S
C282 H296 0.930 . S
C283 C280 1.378 . S
C283 N284 1.315 . S
C283 H286 0.930 . S
N284 Co264 2.194 . S
N284 C279 1.328 . S
N284 C283 1.315 . S
H285 C279 0.929 . S
H286 C283 0.930 . S
H287 C275 0.929 . S
H288 C277 0.929 . S
O289 Co264 2.351 . S
O289 C292 1.244 . S
O290 Co264 2.155 . S
O290 C292 1.240 . S
O291 Co264 2.096 . S
O291 C272 1.247 . S
C292 O289 1.244 . S
C292 O290 1.240 . S
H293 C267 0.931 . S
H294 C276 0.926 . S
H295 C280 0.929 . S
H296 C282 0.930 . S
Co297 N301 2.148 . S
Co297 N307 2.128 . S
Co297 N317 2.194 . S
Co297 O322 2.351 . S
Co297 O323 2.155 . S
Co297 O324 2.096 . S
C298 N301 1.301 . S
C298 N302 1.328 . S
C298 H303 0.930 . S
C299 C300 1.333 . S
C299 N301 1.317 . S
C299 H304 0.930 . S
C300 C299 1.333 . S
C300 N302 1.350 . S
C300 H326 0.931 . S
N301 Co297 2.148 . S
N301 C298 1.301 . S
N301 C299 1.317 . S
N302 C298 1.328 . S
N302 C300 1.350 . S
H303 C298 0.930 . S
H304 C299 0.930 . S
C305 O306 1.224 . S
C305 O324 1.247 . S
O306 C305 1.224 . S
N307 Co297 2.128 . S
N307 C308 1.355 . S
N307 C310 1.311 . S
C308 N307 1.355 . S
C308 C309 1.363 . S
C308 H320 0.929 . S
C309 C308 1.363 . S
C309 N311 1.375 . S
C309 H327 0.931 . S
C310 N307 1.311 . S
C310 N311 1.347 . S
C310 H321 0.929 . S
N311 C309 1.375 . S
N311 C310 1.347 . S
C312 C315 1.365 . S
C312 N317 1.328 . S
C312 H318 0.929 . S
C313 C314 1.362 . S
C313 C316 1.378 . S
C313 H328 0.929 . S
C314 C313 1.362 . S
C314 C315 1.366 . S
C315 C312 1.365 . S
C315 C314 1.366 . S
C315 H329 0.930 . S
C316 C313 1.378 . S
C316 N317 1.315 . S
C316 H319 0.930 . S
N317 Co297 2.194 . S
N317 C312 1.328 . S
N317 C316 1.315 . S
H318 C312 0.929 . S
H319 C316 0.930 . S
H320 C308 0.929 . S
H321 C310 0.929 . S
O322 Co297 2.351 . S
O322 C325 1.244 . S
O323 Co297 2.155 . S
O323 C325 1.240 . S
O324 Co297 2.096 . S
O324 C305 1.247 . S
C325 O322 1.244 . S
C325 O323 1.240 . S
H326 C300 0.931 . S
H327 C309 0.931 . S
H328 C313 0.929 . S
H329 C315 0.930 . S
Co330 N334 2.148 . S
Co330 N340 2.128 . S
Co330 N350 2.194 . S
Co330 O355 2.351 . S
Co330 O356 2.155 . S
Co330 O357 2.096 . S
C331 N334 1.301 . S
C331 N335 1.328 . S
C331 H336 0.930 . S
C332 C333 1.333 . S
C332 N334 1.317 . S
C332 H337 0.930 . S
C333 C332 1.333 . S
C333 N335 1.350 . S
C333 H359 0.931 . S
N334 Co330 2.148 . S
N334 C331 1.301 . S
N334 C332 1.317 . S
N335 C331 1.328 . S
N335 C333 1.350 . S
H336 C331 0.930 . S
H337 C332 0.930 . S
C338 O339 1.224 . S
C338 O357 1.247 . S
O339 C338 1.224 . S
N340 Co330 2.128 . S
N340 C341 1.355 . S
N340 C343 1.311 . S
C341 N340 1.355 . S
C341 C342 1.360 . S
C341 H353 0.929 . S
C342 C341 1.360 . S
C342 N344 1.374 . S
C342 H360 0.934 1_565 S
C343 N340 1.311 . S
C343 N344 1.392 . S
C343 H354 0.929 . S
N344 C342 1.374 . S
N344 C343 1.392 . S
C345 C348 1.365 . S
C345 N350 1.328 . S
C345 H351 0.929 . S
C346 C347 1.362 . S
C346 C349 1.378 . S
C346 H361 0.929 . S
C347 C346 1.362 . S
C347 C348 1.366 . S
C348 C345 1.365 . S
C348 C347 1.366 . S
C348 H362 0.930 . S
C349 C346 1.378 . S
C349 N350 1.315 . S
C349 H352 0.930 . S
N350 Co330 2.194 . S
N350 C345 1.328 . S
N350 C349 1.315 . S
H351 C345 0.929 . S
H352 C349 0.930 . S
H353 C341 0.929 . S
H354 C343 0.929 . S
O355 Co330 2.351 . S
O355 C358 1.244 . S
O356 Co330 2.155 . S
O356 C358 1.240 . S
O357 Co330 2.096 . S
O357 C338 1.247 . S
C358 O355 1.244 . S
C358 O356 1.240 . S
H359 C333 0.931 . S
H360 C342 0.934 1_545 S
H361 C346 0.929 . S
H362 C348 0.930 . S
Co363 N367 2.148 . S
Co363 N373 2.128 . S
Co363 N383 2.194 . S
Co363 O388 2.351 . S
Co363 O389 2.155 . S
Co363 O390 2.096 . S
C364 N367 1.301 . S
C364 N368 1.328 . S
C364 H369 0.930 . S
C365 C366 1.333 . S
C365 N367 1.317 . S
C365 H370 0.930 . S
C366 C365 1.333 . S
C366 N368 1.350 . S
C366 H392 0.931 . S
N367 Co363 2.148 . S
N367 C364 1.301 . S
N367 C365 1.317 . S
N368 C364 1.328 . S
N368 C366 1.350 . S
H369 C364 0.930 . S
H370 C365 0.930 . S
C371 O372 1.224 . S
C371 O390 1.247 . S
O372 C371 1.224 . S
N373 Co363 2.128 . S
N373 C374 1.355 . S
N373 C376 1.311 . S
C374 N373 1.355 . S
C374 C375 1.363 . S
C374 H386 0.929 . S
C375 C374 1.363 . S
C375 N377 1.375 . S
C375 H393 0.931 . S
C376 N373 1.311 . S
C376 N377 1.347 . S
C376 H387 0.929 . S
N377 C375 1.375 . S
N377 C376 1.347 . S
C378 C381 1.365 . S
C378 N383 1.328 . S
C378 H384 0.929 . S
C379 C380 1.362 . S
C379 C382 1.378 . S
C379 H394 0.929 . S
C380 C379 1.362 . S
C380 C381 1.366 . S
C381 C378 1.365 . S
C381 C380 1.366 . S
C381 H395 0.930 . S
C382 C379 1.378 . S
C382 N383 1.315 . S
C382 H385 0.930 . S
N383 Co363 2.194 . S
N383 C378 1.328 . S
N383 C382 1.315 . S
H384 C378 0.929 . S
H385 C382 0.930 . S
H386 C374 0.929 . S
H387 C376 0.929 . S
O388 Co363 2.351 . S
O388 C391 1.244 . S
O389 Co363 2.155 . S
O389 C391 1.240 . S
O390 Co363 2.096 . S
O390 C371 1.247 . S
C391 O388 1.244 . S
C391 O389 1.240 . S
H392 C366 0.931 . S
H393 C375 0.931 . S
H394 C379 0.929 . S
H395 C381 0.930 . S
Co396 N400 2.148 . S
Co396 N406 2.128 . S
Co396 N416 2.194 . S
Co396 O421 2.351 . S
Co396 O422 2.155 . S
Co396 O423 2.096 . S
C397 N400 1.301 . S
C397 N401 1.328 . S
C397 H402 0.930 . S
C398 C399 1.333 . S
C398 N400 1.317 . S
C398 H403 0.930 . S
C399 C398 1.333 . S
C399 N401 1.350 . S
C399 H425 0.931 . S
N400 Co396 2.148 . S
N400 C397 1.301 . S
N400 C398 1.317 . S
N401 C397 1.328 . S
N401 C399 1.350 . S
H402 C397 0.930 . S
H403 C398 0.930 . S
C404 O405 1.224 . S
C404 O423 1.247 . S
O405 C404 1.224 . S
N406 Co396 2.128 . S
N406 C407 1.355 . S
N406 C409 1.311 . S
C407 N406 1.355 . S
C407 C408 1.366 1_565 S
C407 H419 0.929 . S
C408 C407 1.366 1_545 S
C408 N410 1.374 1_545 S
C408 H426 0.928 . S
C409 N406 1.311 . S
C409 N410 1.385 . S
C409 H420 0.929 . S
N410 C408 1.374 1_565 S
N410 C409 1.385 . S
C411 C414 1.365 . S
C411 N416 1.328 . S
C411 H417 0.929 . S
C412 C413 1.362 . S
C412 C415 1.378 . S
C412 H427 0.929 . S
C413 C412 1.362 . S
C413 C414 1.366 . S
C414 C411 1.365 . S
C414 C413 1.366 . S
C414 H428 0.930 . S
C415 C412 1.378 . S
C415 N416 1.315 . S
C415 H418 0.930 . S
N416 Co396 2.194 . S
N416 C411 1.328 . S
N416 C415 1.315 . S
H417 C411 0.929 . S
H418 C415 0.930 . S
H419 C407 0.929 . S
H420 C409 0.929 . S
O421 Co396 2.351 . S
O421 C424 1.244 . S
O422 Co396 2.155 . S
O422 C424 1.240 . S
O423 Co396 2.096 . S
O423 C404 1.247 . S
C424 O421 1.244 . S
C424 O422 1.240 . S
H425 C399 0.931 . S
H426 C408 0.928 . S
H427 C412 0.929 . S
H428 C414 0.930 . S
Co429 N433 2.148 . S
Co429 N439 2.128 . S
Co429 N449 2.194 . S
Co429 O454 2.351 . S
Co429 O455 2.155 . S
Co429 O456 2.096 . S
C430 N433 1.301 . S
C430 N434 1.328 . S
C430 H435 0.930 . S
C431 C432 1.333 . S
C431 N433 1.317 . S
C431 H436 0.930 . S
C432 C431 1.333 . S
C432 N434 1.350 . S
C432 H458 0.931 . S
N433 Co429 2.148 . S
N433 C430 1.301 . S
N433 C431 1.317 . S
N434 C430 1.328 . S
N434 C432 1.350 . S
H435 C430 0.930 . S
H436 C431 0.930 . S
C437 O438 1.224 . S
C437 O456 1.247 . S
O438 C437 1.224 . S
N439 Co429 2.128 . S
N439 C440 1.355 . S
N439 C442 1.311 . S
C440 N439 1.355 . S
C440 C441 1.363 . S
C440 H452 0.929 . S
C441 C440 1.363 . S
C441 N443 1.375 . S
C441 H459 0.931 . S
C442 N439 1.311 . S
C442 N443 1.347 . S
C442 H453 0.929 . S
N443 C441 1.375 . S
N443 C442 1.347 . S
C444 C447 1.365 . S
C444 N449 1.328 . S
C444 H450 0.929 . S
C445 C446 1.362 . S
C445 C448 1.378 . S
C445 H460 0.929 . S
C446 C445 1.362 . S
C446 C447 1.366 . S
C447 C444 1.365 . S
C447 C446 1.366 . S
C447 H461 0.930 . S
C448 C445 1.378 . S
C448 N449 1.315 . S
C448 H451 0.930 . S
N449 Co429 2.194 . S
N449 C444 1.328 . S
N449 C448 1.315 . S
H450 C444 0.929 . S
H451 C448 0.930 . S
H452 C440 0.929 . S
H453 C442 0.929 . S
O454 Co429 2.351 . S
O454 C457 1.244 . S
O455 Co429 2.155 . S
O455 C457 1.240 . S
O456 Co429 2.096 . S
O456 C437 1.247 . S
C457 O454 1.244 . S
C457 O455 1.240 . S
H458 C432 0.931 . S
H459 C441 0.931 . S
H460 C445 0.929 . S
H461 C447 0.930 . S
Co462 N466 2.148 . S
Co462 N472 2.128 . S
Co462 N482 2.194 . S
Co462 O487 2.351 . S
Co462 O488 2.155 . S
Co462 O489 2.096 . S
C463 N466 1.301 . S
C463 N467 1.328 . S
C463 H468 0.930 . S
C464 C465 1.333 . S
C464 N466 1.317 . S
C464 H469 0.930 . S
C465 C464 1.333 . S
C465 N467 1.350 . S
C465 H491 0.931 . S
N466 Co462 2.148 . S
N466 C463 1.301 . S
N466 C464 1.317 . S
N467 C463 1.328 . S
N467 C465 1.350 . S
H468 C463 0.930 . S
H469 C464 0.930 . S
C470 O471 1.224 . S
C470 O489 1.247 . S
O471 C470 1.224 . S
N472 Co462 2.128 . S
N472 C473 1.355 . S
N472 C475 1.311 . S
C473 N472 1.355 . S
C473 C474 1.362 . S
C473 H485 0.929 . S
C474 C473 1.362 . S
C474 N476 1.374 . S
C474 H492 0.932 1_545 S
C475 N472 1.311 . S
C475 N476 1.392 . S
C475 H486 0.929 . S
N476 C474 1.374 . S
N476 C475 1.392 . S
C477 C480 1.365 1_556 S
C477 N482 1.328 . S
C477 H483 0.929 . S
C478 C479 1.362 . S
C478 C481 1.378 . S
C478 H493 0.929 . S
C479 C478 1.362 . S
C479 C480 1.366 1_556 S
C480 C477 1.365 1_554 S
C480 C479 1.366 1_554 S
C480 H494 0.930 . S
C481 C478 1.378 . S
C481 N482 1.315 . S
C481 H484 0.930 . S
N482 Co462 2.194 . S
N482 C477 1.328 . S
N482 C481 1.315 . S
H483 C477 0.929 . S
H484 C481 0.930 . S
H485 C473 0.929 . S
H486 C475 0.929 . S
O487 Co462 2.351 . S
O487 C490 1.244 . S
O488 Co462 2.155 . S
O488 C490 1.240 . S
O489 Co462 2.096 . S
O489 C470 1.247 . S
C490 O487 1.244 . S
C490 O488 1.240 . S
H491 C465 0.931 . S
H492 C474 0.932 1_565 S
H493 C478 0.929 . S
H494 C480 0.930 . S
Co495 N499 2.148 . S
Co495 N505 2.128 . S
Co495 N515 2.194 . S
Co495 O520 2.351 . S
Co495 O521 2.155 . S
Co495 O522 2.096 . S
C496 N499 1.301 . S
C496 N500 1.328 . S
C496 H501 0.930 . S
C497 C498 1.333 . S
C497 N499 1.317 . S
C497 H502 0.930 . S
C498 C497 1.333 . S
C498 N500 1.350 . S
C498 H524 0.931 . S
N499 Co495 2.148 . S
N499 C496 1.301 . S
N499 C497 1.317 . S
N500 C496 1.328 . S
N500 C498 1.350 . S
H501 C496 0.930 . S
H502 C497 0.930 . S
C503 O504 1.224 . S
C503 O522 1.247 . S
O504 C503 1.224 . S
N505 Co495 2.128 . S
N505 C506 1.355 . S
N505 C508 1.311 . S
C506 N505 1.355 . S
C506 C507 1.363 . S
C506 H518 0.929 . S
C507 C506 1.363 . S
C507 N509 1.375 . S
C507 H525 0.931 . S
C508 N505 1.311 . S
C508 N509 1.347 . S
C508 H519 0.929 . S
N509 C507 1.375 . S
N509 C508 1.347 . S
C510 C513 1.365 . S
C510 N515 1.328 . S
C510 H516 0.929 . S
C511 C512 1.362 . S
C511 C514 1.378 . S
C511 H526 0.929 . S
C512 C511 1.362 . S
C512 C513 1.366 . S
C513 C510 1.365 . S
C513 C512 1.366 . S
C513 H527 0.930 . S
C514 C511 1.378 . S
C514 N515 1.315 . S
C514 H517 0.930 . S
N515 Co495 2.194 . S
N515 C510 1.328 . S
N515 C514 1.315 . S
H516 C510 0.929 . S
H517 C514 0.930 . S
H518 C506 0.929 . S
H519 C508 0.929 . S
O520 Co495 2.351 . S
O520 C523 1.244 . S
O521 Co495 2.155 . S
O521 C523 1.240 . S
O522 Co495 2.096 . S
O522 C503 1.247 . S
C523 O520 1.244 . S
C523 O521 1.240 . S
H524 C498 0.931 . S
H525 C507 0.931 . S
H526 C511 0.929 . S
H527 C513 0.930 . S
Co528 N532 2.148 . S
Co528 N538 2.128 . S
Co528 N548 2.194 . S
Co528 O553 2.351 . S
Co528 O554 2.155 . S
Co528 O555 2.096 . S
C529 N532 1.301 . S
C529 N533 1.328 . S
C529 H534 0.930 . S
C530 C531 1.333 . S
C530 N532 1.317 . S
C530 H535 0.930 . S
C531 C530 1.333 . S
C531 N533 1.350 . S
C531 H557 0.931 . S
N532 Co528 2.148 . S
N532 C529 1.301 . S
N532 C530 1.317 . S
N533 C529 1.328 . S
N533 C531 1.350 . S
H534 C529 0.930 . S
H535 C530 0.930 . S
C536 O537 1.224 . S
C536 O555 1.247 . S
O537 C536 1.224 . S
N538 Co528 2.128 . S
N538 C539 1.355 . S
N538 C541 1.311 . S
C539 N538 1.355 . S
C539 C540 1.369 1_554 S
C539 H551 0.929 . S
C540 C539 1.369 1_556 S
C540 N542 1.374 1_556 S
C540 H558 0.926 . S
C541 N538 1.311 . S
C541 N542 1.388 . S
C541 H552 0.929 . S
N542 C540 1.374 1_554 S
N542 C541 1.388 . S
C543 C546 1.365 1_455 S
C543 N548 1.328 . S
C543 H549 0.929 . S
C544 C545 1.362 . S
C544 C547 1.378 . S
C544 H559 0.929 . S
C545 C544 1.362 . S
C545 C546 1.366 1_455 S
C546 C543 1.365 1_655 S
C546 C545 1.366 1_655 S
C546 H560 0.930 . S
C547 C544 1.378 . S
C547 N548 1.315 . S
C547 H550 0.930 . S
N548 Co528 2.194 . S
N548 C543 1.328 . S
N548 C547 1.315 . S
H549 C543 0.929 . S
H550 C547 0.930 . S
H551 C539 0.929 . S
H552 C541 0.929 . S
O553 Co528 2.351 . S
O553 C556 1.244 . S
O554 Co528 2.155 . S
O554 C556 1.240 . S
O555 Co528 2.096 . S
O555 C536 1.247 . S
C556 O553 1.244 . S
C556 O554 1.240 . S
H557 C531 0.931 . S
H558 C540 0.926 . S
H559 C544 0.929 . S
H560 C546 0.930 . S
Co561 N565 2.148 . S
Co561 N571 2.128 . S
Co561 N581 2.194 . S
Co561 O586 2.351 . S
Co561 O587 2.155 . S
Co561 O588 2.096 . S
C562 N565 1.301 . S
C562 N566 1.328 . S
C562 H567 0.930 . S
C563 C564 1.333 . S
C563 N565 1.317 . S
C563 H568 0.930 . S
C564 C563 1.333 . S
C564 N566 1.350 . S
C564 H590 0.931 . S
N565 Co561 2.148 . S
N565 C562 1.301 . S
N565 C563 1.317 . S
N566 C562 1.328 . S
N566 C564 1.350 . S
H567 C562 0.930 . S
H568 C563 0.930 . S
C569 O570 1.224 . S
C569 O588 1.247 . S
O570 C569 1.224 . S
N571 Co561 2.128 . S
N571 C572 1.355 . S
N571 C574 1.311 . S
C572 N571 1.355 . S
C572 C573 1.360 . S
C572 H584 0.929 . S
C573 C572 1.360 . S
C573 N575 1.374 . S
C573 H591 0.934 1_556 S
C574 N571 1.311 . S
C574 N575 1.392 . S
C574 H585 0.929 . S
N575 C573 1.374 . S
N575 C574 1.392 . S
C576 C579 1.365 . S
C576 N581 1.328 . S
C576 H582 0.929 . S
C577 C578 1.362 . S
C577 C580 1.378 . S
C577 H592 0.929 . S
C578 C577 1.362 . S
C578 C579 1.366 . S
C579 C576 1.365 . S
C579 C578 1.366 . S
C579 H593 0.930 . S
C580 C577 1.378 . S
C580 N581 1.315 . S
C580 H583 0.930 . S
N581 Co561 2.194 . S
N581 C576 1.328 . S
N581 C580 1.315 . S
H582 C576 0.929 . S
H583 C580 0.930 . S
H584 C572 0.929 . S
H585 C574 0.929 . S
O586 Co561 2.351 . S
O586 C589 1.244 . S
O587 Co561 2.155 . S
O587 C589 1.240 . S
O588 Co561 2.096 . S
O588 C569 1.247 . S
C589 O586 1.244 . S
C589 O587 1.240 . S
H590 C564 0.931 . S
H591 C573 0.934 1_554 S
H592 C577 0.929 . S
H593 C579 0.930 . S
Co594 N598 2.148 . S
Co594 N604 2.128 . S
Co594 N614 2.194 . S
Co594 O619 2.351 . S
Co594 O620 2.155 . S
Co594 O621 2.096 . S
C595 N598 1.301 . S
C595 N599 1.328 . S
C595 H600 0.930 . S
C596 C597 1.333 . S
C596 N598 1.317 . S
C596 H601 0.930 . S
C597 C596 1.333 . S
C597 N599 1.350 . S
C597 H623 0.931 . S
N598 Co594 2.148 . S
N598 C595 1.301 . S
N598 C596 1.317 . S
N599 C595 1.328 . S
N599 C597 1.350 . S
H600 C595 0.930 . S
H601 C596 0.930 . S
C602 O603 1.224 . S
C602 O621 1.247 . S
O603 C602 1.224 . S
N604 Co594 2.128 . S
N604 C605 1.355 . S
N604 C607 1.311 . S
C605 N604 1.355 . S
C605 C606 1.363 . S
C605 H617 0.929 . S
C606 C605 1.363 . S
C606 N608 1.375 . S
C606 H624 0.931 . S
C607 N604 1.311 . S
C607 N608 1.347 . S
C607 H618 0.929 . S
N608 C606 1.375 . S
N608 C607 1.347 . S
C609 C612 1.365 . S
C609 N614 1.328 . S
C609 H615 0.929 . S
C610 C611 1.362 . S
C610 C613 1.378 . S
C610 H625 0.929 . S
C611 C610 1.362 . S
C611 C612 1.366 . S
C612 C609 1.365 . S
C612 C611 1.366 . S
C612 H626 0.930 . S
C613 C610 1.378 . S
C613 N614 1.315 . S
C613 H616 0.930 . S
N614 Co594 2.194 . S
N614 C609 1.328 . S
N614 C613 1.315 . S
H615 C609 0.929 . S
H616 C613 0.930 . S
H617 C605 0.929 . S
H618 C607 0.929 . S
O619 Co594 2.351 . S
O619 C622 1.244 . S
O620 Co594 2.155 . S
O620 C622 1.240 . S
O621 Co594 2.096 . S
O621 C602 1.247 . S
C622 O619 1.244 . S
C622 O620 1.240 . S
H623 C597 0.931 . S
H624 C606 0.931 . S
H625 C610 0.929 . S
H626 C612 0.930 . S
Co627 N631 2.148 . S
Co627 N637 2.128 . S
Co627 N647 2.194 . S
Co627 O652 2.351 . S
Co627 O653 2.155 . S
Co627 O654 2.096 . S
C628 N631 1.301 . S
C628 N632 1.328 . S
C628 H633 0.930 . S
C629 C630 1.333 . S
C629 N631 1.317 . S
C629 H634 0.930 . S
C630 C629 1.333 . S
C630 N632 1.350 . S
C630 H656 0.931 . S
N631 Co627 2.148 . S
N631 C628 1.301 . S
N631 C629 1.317 . S
N632 C628 1.328 . S
N632 C630 1.350 . S
H633 C628 0.930 . S
H634 C629 0.930 . S
C635 O636 1.224 . S
C635 O654 1.247 . S
O636 C635 1.224 . S
N637 Co627 2.128 . S
N637 C638 1.355 . S
N637 C640 1.311 . S
C638 N637 1.355 . S
C638 C639 1.363 . S
C638 H650 0.929 . S
C639 C638 1.363 . S
C639 N641 1.375 . S
C639 H657 0.931 . S
C640 N637 1.311 . S
C640 N641 1.347 . S
C640 H651 0.929 . S
N641 C639 1.375 . S
N641 C640 1.347 . S
C642 C645 1.365 1_655 S
C642 N647 1.328 . S
C642 H648 0.929 . S
C643 C644 1.362 . S
C643 C646 1.378 . S
C643 H658 0.929 . S
C644 C643 1.362 . S
C644 C645 1.366 1_655 S
C645 C642 1.365 1_455 S
C645 C644 1.366 1_455 S
C645 H659 0.930 . S
C646 C643 1.378 . S
C646 N647 1.315 . S
C646 H649 0.930 . S
N647 Co627 2.194 . S
N647 C642 1.328 . S
N647 C646 1.315 . S
H648 C642 0.929 . S
H649 C646 0.930 . S
H650 C638 0.929 . S
H651 C640 0.929 . S
O652 Co627 2.351 . S
O652 C655 1.244 . S
O653 Co627 2.155 . S
O653 C655 1.240 . S
O654 Co627 2.096 . S
O654 C635 1.247 . S
C655 O652 1.244 . S
C655 O653 1.240 . S
H656 C630 0.931 . S
H657 C639 0.931 . S
H658 C643 0.929 . S
H659 C645 0.930 . S
Co660 N664 2.148 . S
Co660 N670 2.128 . S
Co660 N680 2.194 . S
Co660 O685 2.351 . S
Co660 O686 2.155 . S
Co660 O687 2.096 . S
C661 N664 1.301 . S
C661 N665 1.328 . S
C661 H666 0.930 . S
C662 C663 1.333 . S
C662 N664 1.317 . S
C662 H667 0.930 . S
C663 C662 1.333 . S
C663 N665 1.350 . S
C663 H689 0.931 . S
N664 Co660 2.148 . S
N664 C661 1.301 . S
N664 C662 1.317 . S
N665 C661 1.328 . S
N665 C663 1.350 . S
H666 C661 0.930 . S
H667 C662 0.930 . S
C668 O669 1.224 . S
C668 O687 1.247 . S
O669 C668 1.224 . S
N670 Co660 2.128 . S
N670 C671 1.355 . S
N670 C673 1.311 . S
C671 N670 1.355 . S
C671 C672 1.363 . S
C671 H683 0.929 . S
C672 C671 1.363 . S
C672 N674 1.375 . S
C672 H690 0.931 . S
C673 N670 1.311 . S
C673 N674 1.347 . S
C673 H684 0.929 . S
N674 C672 1.375 . S
N674 C673 1.347 . S
C675 C678 1.365 . S
C675 N680 1.328 . S
C675 H681 0.929 . S
C676 C677 1.362 . S
C676 C679 1.378 . S
C676 H691 0.929 . S
C677 C676 1.362 . S
C677 C678 1.366 . S
C678 C675 1.365 . S
C678 C677 1.366 . S
C678 H692 0.930 . S
C679 C676 1.378 . S
C679 N680 1.315 . S
C679 H682 0.930 . S
N680 Co660 2.194 . S
N680 C675 1.328 . S
N680 C679 1.315 . S
H681 C675 0.929 . S
H682 C679 0.930 . S
H683 C671 0.929 . S
H684 C673 0.929 . S
O685 Co660 2.351 . S
O685 C688 1.244 . S
O686 Co660 2.155 . S
O686 C688 1.240 . S
O687 Co660 2.096 . S
O687 C668 1.247 . S
C688 O685 1.244 . S
C688 O686 1.240 . S
H689 C663 0.931 . S
H690 C672 0.931 . S
H691 C676 0.929 . S
H692 C678 0.930 . S
Co693 N697 2.148 . S
Co693 N703 2.128 . S
Co693 N713 2.194 . S
Co693 O718 2.351 . S
Co693 O719 2.155 . S
Co693 O720 2.096 . S
C694 N697 1.301 . S
C694 N698 1.328 . S
C694 H699 0.930 . S
C695 C696 1.333 . S
C695 N697 1.317 . S
C695 H700 0.930 . S
C696 C695 1.333 . S
C696 N698 1.350 . S
C696 H722 0.931 . S
N697 Co693 2.148 . S
N697 C694 1.301 . S
N697 C695 1.317 . S
N698 C694 1.328 . S
N698 C696 1.350 . S
H699 C694 0.930 . S
H700 C695 0.930 . S
C701 O702 1.224 . S
C701 O720 1.247 . S
O702 C701 1.224 . S
N703 Co693 2.128 . S
N703 C704 1.355 . S
N703 C706 1.311 . S
C704 N703 1.355 . S
C704 C705 1.363 . S
C704 H716 0.929 . S
C705 C704 1.363 . S
C705 N707 1.375 . S
C705 H723 0.931 . S
C706 N703 1.311 . S
C706 N707 1.347 . S
C706 H717 0.929 . S
N707 C705 1.375 . S
N707 C706 1.347 . S
C708 C711 1.365 . S
C708 N713 1.328 . S
C708 H714 0.929 . S
C709 C710 1.362 . S
C709 C712 1.378 . S
C709 H724 0.929 . S
C710 C709 1.362 . S
C710 C711 1.366 . S
C711 C708 1.365 . S
C711 C710 1.366 . S
C711 H725 0.930 . S
C712 C709 1.378 . S
C712 N713 1.315 . S
C712 H715 0.930 . S
N713 Co693 2.194 . S
N713 C708 1.328 . S
N713 C712 1.315 . S
H714 C708 0.929 . S
H715 C712 0.930 . S
H716 C704 0.929 . S
H717 C706 0.929 . S
O718 Co693 2.351 . S
O718 C721 1.244 . S
O719 Co693 2.155 . S
O719 C721 1.240 . S
O720 Co693 2.096 . S
O720 C701 1.247 . S
C721 O718 1.244 . S
C721 O719 1.240 . S
H722 C696 0.931 . S
H723 C705 0.931 . S
H724 C709 0.929 . S
H725 C711 0.930 . S
Co726 N730 2.148 . S
Co726 N736 2.128 . S
Co726 N746 2.194 . S
Co726 O751 2.351 . S
Co726 O752 2.155 . S
Co726 O753 2.096 . S
C727 N730 1.301 . S
C727 N731 1.328 . S
C727 H732 0.930 . S
C728 C729 1.333 . S
C728 N730 1.317 . S
C728 H733 0.930 . S
C729 C728 1.333 . S
C729 N731 1.350 . S
C729 H755 0.931 . S
N730 Co726 2.148 . S
N730 C727 1.301 . S
N730 C728 1.317 . S
N731 C727 1.328 . S
N731 C729 1.350 . S
H732 C727 0.930 . S
H733 C728 0.930 . S
C734 O735 1.224 . S
C734 O753 1.247 . S
O735 C734 1.224 . S
N736 Co726 2.128 . S
N736 C737 1.355 . S
N736 C739 1.311 . S
C737 N736 1.355 . S
C737 C738 1.363 . S
C737 H749 0.929 . S
C738 C737 1.363 . S
C738 N740 1.375 . S
C738 H756 0.931 . S
C739 N736 1.311 . S
C739 N740 1.347 . S
C739 H750 0.929 . S
N740 C738 1.375 . S
N740 C739 1.347 . S
C741 C744 1.365 . S
C741 N746 1.328 . S
C741 H747 0.929 . S
C742 C743 1.362 . S
C742 C745 1.378 . S
C742 H757 0.929 . S
C743 C742 1.362 . S
C743 C744 1.366 . S
C744 C741 1.365 . S
C744 C743 1.366 . S
C744 H758 0.930 . S
C745 C742 1.378 . S
C745 N746 1.315 . S
C745 H748 0.930 . S
N746 Co726 2.194 . S
N746 C741 1.328 . S
N746 C745 1.315 . S
H747 C741 0.929 . S
H748 C745 0.930 . S
H749 C737 0.929 . S
H750 C739 0.929 . S
O751 Co726 2.351 . S
O751 C754 1.244 . S
O752 Co726 2.155 . S
O752 C754 1.240 . S
O753 Co726 2.096 . S
O753 C734 1.247 . S
C754 O751 1.244 . S
C754 O752 1.240 . S
H755 C729 0.931 . S
H756 C738 0.931 . S
H757 C742 0.929 . S
H758 C744 0.930 . S
Co759 N763 2.148 . S
Co759 N769 2.128 . S
Co759 N779 2.194 . S
Co759 O784 2.351 . S
Co759 O785 2.155 . S
Co759 O786 2.096 . S
C760 N763 1.301 . S
C760 N764 1.328 . S
C760 H765 0.930 . S
C761 C762 1.333 . S
C761 N763 1.317 . S
C761 H766 0.930 . S
C762 C761 1.333 . S
C762 N764 1.350 . S
C762 H788 0.931 . S
N763 Co759 2.148 . S
N763 C760 1.301 . S
N763 C761 1.317 . S
N764 C760 1.328 . S
N764 C762 1.350 . S
H765 C760 0.930 . S
H766 C761 0.930 . S
C767 O768 1.224 . S
C767 O786 1.247 . S
O768 C767 1.224 . S
N769 Co759 2.128 . S
N769 C770 1.355 . S
N769 C772 1.311 . S
C770 N769 1.355 . S
C770 C771 1.363 . S
C770 H782 0.929 . S
C771 C770 1.363 . S
C771 N773 1.375 . S
C771 H789 0.931 . S
C772 N769 1.311 . S
C772 N773 1.347 . S
C772 H783 0.929 . S
N773 C771 1.375 . S
N773 C772 1.347 . S
C774 C777 1.365 . S
C774 N779 1.328 . S
C774 H780 0.929 . S
C775 C776 1.362 . S
C775 C778 1.378 . S
C775 H790 0.929 . S
C776 C775 1.362 . S
C776 C777 1.366 . S
C777 C774 1.365 . S
C777 C776 1.366 . S
C777 H791 0.930 . S
C778 C775 1.378 . S
C778 N779 1.315 . S
C778 H781 0.930 . S
N779 Co759 2.194 . S
N779 C774 1.328 . S
N779 C778 1.315 . S
H780 C774 0.929 . S
H781 C778 0.930 . S
H782 C770 0.929 . S
H783 C772 0.929 . S
O784 Co759 2.351 . S
O784 C787 1.244 . S
O785 Co759 2.155 . S
O785 C787 1.240 . S
O786 Co759 2.096 . S
O786 C767 1.247 . S
C787 O784 1.244 . S
C787 O785 1.240 . S
H788 C762 0.931 . S
H789 C771 0.931 . S
H790 C775 0.929 . S
H791 C777 0.930 . S
Co792 N796 2.148 . S
Co792 N802 2.128 . S
Co792 N812 2.194 . S
Co792 O817 2.351 . S
Co792 O818 2.155 . S
Co792 O819 2.096 . S
C793 N796 1.301 . S
C793 N797 1.328 . S
C793 H798 0.930 . S
C794 C795 1.333 . S
C794 N796 1.317 . S
C794 H799 0.930 . S
C795 C794 1.333 . S
C795 N797 1.350 . S
C795 H821 0.931 . S
N796 Co792 2.148 . S
N796 C793 1.301 . S
N796 C794 1.317 . S
N797 C793 1.328 . S
N797 C795 1.350 . S
H798 C793 0.930 . S
H799 C794 0.930 . S
C800 O801 1.224 . S
C800 O819 1.247 . S
O801 C800 1.224 . S
N802 Co792 2.128 . S
N802 C803 1.355 . S
N802 C805 1.311 . S
C803 N802 1.355 . S
C803 C804 1.363 . S
C803 H815 0.929 . S
C804 C803 1.363 . S
C804 N806 1.375 . S
C804 H822 0.931 . S
C805 N802 1.311 . S
C805 N806 1.347 . S
C805 H816 0.929 . S
N806 C804 1.375 . S
N806 C805 1.347 . S
C807 C810 1.365 . S
C807 N812 1.328 . S
C807 H813 0.929 . S
C808 C809 1.362 . S
C808 C811 1.378 . S
C808 H823 0.929 . S
C809 C808 1.362 . S
C809 C810 1.366 . S
C810 C807 1.365 . S
C810 C809 1.366 . S
C810 H824 0.930 . S
C811 C808 1.378 . S
C811 N812 1.315 . S
C811 H814 0.930 . S
N812 Co792 2.194 . S
N812 C807 1.328 . S
N812 C811 1.315 . S
H813 C807 0.929 . S
H814 C811 0.930 . S
H815 C803 0.929 . S
H816 C805 0.929 . S
O817 Co792 2.351 . S
O817 C820 1.244 . S
O818 Co792 2.155 . S
O818 C820 1.240 . S
O819 Co792 2.096 . S
O819 C800 1.247 . S
C820 O817 1.244 . S
C820 O818 1.240 . S
H821 C795 0.931 . S
H822 C804 0.931 . S
H823 C808 0.929 . S
H824 C810 0.930 . S
Co825 N829 2.148 . S
Co825 N835 2.128 . S
Co825 N845 2.194 . S
Co825 O850 2.351 . S
Co825 O851 2.155 . S
Co825 O852 2.096 . S
C826 N829 1.301 . S
C826 N830 1.328 . S
C826 H831 0.930 . S
C827 C828 1.333 . S
C827 N829 1.317 . S
C827 H832 0.930 . S
C828 C827 1.333 . S
C828 N830 1.350 . S
C828 H854 0.931 . S
N829 Co825 2.148 . S
N829 C826 1.301 . S
N829 C827 1.317 . S
N830 C826 1.328 . S
N830 C828 1.350 . S
H831 C826 0.930 . S
H832 C827 0.930 . S
C833 O834 1.224 . S
C833 O852 1.247 . S
O834 C833 1.224 . S
N835 Co825 2.128 . S
N835 C836 1.355 . S
N835 C838 1.311 . S
C836 N835 1.355 . S
C836 C837 1.363 . S
C836 H848 0.929 . S
C837 C836 1.363 . S
C837 N839 1.375 . S
C837 H855 0.931 . S
C838 N835 1.311 . S
C838 N839 1.347 . S
C838 H849 0.929 . S
N839 C837 1.375 . S
N839 C838 1.347 . S
C840 C843 1.365 . S
C840 N845 1.328 . S
C840 H846 0.929 . S
C841 C842 1.362 . S
C841 C844 1.378 . S
C841 H856 0.929 . S
C842 C841 1.362 . S
C842 C843 1.366 . S
C843 C840 1.365 . S
C843 C842 1.366 . S
C843 H857 0.930 . S
C844 C841 1.378 . S
C844 N845 1.315 . S
C844 H847 0.930 . S
N845 Co825 2.194 . S
N845 C840 1.328 . S
N845 C844 1.315 . S
H846 C840 0.929 . S
H847 C844 0.930 . S
H848 C836 0.929 . S
H849 C838 0.929 . S
O850 Co825 2.351 . S
O850 C853 1.244 . S
O851 Co825 2.155 . S
O851 C853 1.240 . S
O852 Co825 2.096 . S
O852 C833 1.247 . S
C853 O850 1.244 . S
C853 O851 1.240 . S
H854 C828 0.931 . S
H855 C837 0.931 . S
H856 C841 0.929 . S
H857 C843 0.930 . S
Co858 N862 2.148 . S
Co858 N868 2.128 . S
Co858 N878 2.194 . S
Co858 O883 2.351 . S
Co858 O884 2.155 . S
Co858 O885 2.096 . S
C859 N862 1.301 . S
C859 N863 1.328 . S
C859 H864 0.930 . S
C860 C861 1.333 . S
C860 N862 1.317 . S
C860 H865 0.930 . S
C861 C860 1.333 . S
C861 N863 1.350 . S
C861 H887 0.931 . S
N862 Co858 2.148 . S
N862 C859 1.301 . S
N862 C860 1.317 . S
N863 C859 1.328 . S
N863 C861 1.350 . S
H864 C859 0.930 . S
H865 C860 0.930 . S
C866 O867 1.224 . S
C866 O885 1.247 . S
O867 C866 1.224 . S
N868 Co858 2.128 . S
N868 C869 1.355 . S
N868 C871 1.311 . S
C869 N868 1.355 . S
C869 C870 1.366 1_655 S
C869 H881 0.929 . S
C870 C869 1.366 1_455 S
C870 N872 1.374 1_455 S
C870 H888 0.928 . S
C871 N868 1.311 . S
C871 N872 1.385 . S
C871 H882 0.929 . S
N872 C870 1.374 1_655 S
N872 C871 1.385 . S
C873 C876 1.365 . S
C873 N878 1.328 . S
C873 H879 0.929 . S
C874 C875 1.362 . S
C874 C877 1.378 . S
C874 H889 0.929 . S
C875 C874 1.362 . S
C875 C876 1.366 . S
C876 C873 1.365 . S
C876 C875 1.366 . S
C876 H890 0.930 . S
C877 C874 1.378 . S
C877 N878 1.315 . S
C877 H880 0.930 . S
N878 Co858 2.194 . S
N878 C873 1.328 . S
N878 C877 1.315 . S
H879 C873 0.929 . S
H880 C877 0.930 . S
H881 C869 0.929 . S
H882 C871 0.929 . S
O883 Co858 2.351 . S
O883 C886 1.244 . S
O884 Co858 2.155 . S
O884 C886 1.240 . S
O885 Co858 2.096 . S
O885 C866 1.247 . S
C886 O883 1.244 . S
C886 O884 1.240 . S
H887 C861 0.931 . S
H888 C870 0.928 . S
H889 C874 0.929 . S
H890 C876 0.930 . S
Co891 N895 2.148 . S
Co891 N901 2.128 . S
Co891 N911 2.194 . S
Co891 O916 2.351 . S
Co891 O917 2.155 . S
Co891 O918 2.096 . S
C892 N895 1.301 . S
C892 N896 1.328 . S
C892 H897 0.930 . S
C893 C894 1.333 . S
C893 N895 1.317 . S
C893 H898 0.930 . S
C894 C893 1.333 . S
C894 N896 1.350 . S
C894 H920 0.931 . S
N895 Co891 2.148 . S
N895 C892 1.301 . S
N895 C893 1.317 . S
N896 C892 1.328 . S
N896 C894 1.350 . S
H897 C892 0.930 . S
H898 C893 0.930 . S
C899 O900 1.224 . S
C899 O918 1.247 . S
O900 C899 1.224 . S
N901 Co891 2.128 . S
N901 C902 1.355 . S
N901 C904 1.311 . S
C902 N901 1.355 . S
C902 C903 1.363 . S
C902 H914 0.929 . S
C903 C902 1.363 . S
C903 N905 1.375 . S
C903 H921 0.931 . S
C904 N901 1.311 . S
C904 N905 1.347 . S
C904 H915 0.929 . S
N905 C903 1.375 . S
N905 C904 1.347 . S
C906 C909 1.365 . S
C906 N911 1.328 . S
C906 H912 0.929 . S
C907 C908 1.362 . S
C907 C910 1.378 . S
C907 H922 0.929 . S
C908 C907 1.362 . S
C908 C909 1.366 . S
C909 C906 1.365 . S
C909 C908 1.366 . S
C909 H923 0.930 . S
C910 C907 1.378 . S
C910 N911 1.315 . S
C910 H913 0.930 . S
N911 Co891 2.194 . S
N911 C906 1.328 . S
N911 C910 1.315 . S
H912 C906 0.929 . S
H913 C910 0.930 . S
H914 C902 0.929 . S
H915 C904 0.929 . S
O916 Co891 2.351 . S
O916 C919 1.244 . S
O917 Co891 2.155 . S
O917 C919 1.240 . S
O918 Co891 2.096 . S
O918 C899 1.247 . S
C919 O916 1.244 . S
C919 O917 1.240 . S
H920 C894 0.931 . S
H921 C903 0.931 . S
H922 C907 0.929 . S
H923 C909 0.930 . S
Co924 N928 2.148 . S
Co924 N934 2.128 . S
Co924 N944 2.194 . S
Co924 O949 2.351 . S
Co924 O950 2.155 . S
Co924 O951 2.096 . S
C925 N928 1.301 . S
C925 N929 1.328 . S
C925 H930 0.930 . S
C926 C927 1.333 . S
C926 N928 1.317 . S
C926 H931 0.930 . S
C927 C926 1.333 . S
C927 N929 1.350 . S
C927 H953 0.931 . S
N928 Co924 2.148 . S
N928 C925 1.301 . S
N928 C926 1.317 . S
N929 C925 1.328 . S
N929 C927 1.350 . S
H930 C925 0.930 . S
H931 C926 0.930 . S
C932 O933 1.224 . S
C932 O951 1.247 . S
O933 C932 1.224 . S
N934 Co924 2.128 . S
N934 C935 1.355 . S
N934 C937 1.311 . S
C935 N934 1.355 . S
C935 C936 1.363 . S
C935 H947 0.929 . S
C936 C935 1.363 . S
C936 N938 1.375 . S
C936 H954 0.931 . S
C937 N934 1.311 . S
C937 N938 1.347 . S
C937 H948 0.929 . S
N938 C936 1.375 . S
N938 C937 1.347 . S
C939 C942 1.365 . S
C939 N944 1.328 . S
C939 H945 0.929 . S
C940 C941 1.362 . S
C940 C943 1.378 . S
C940 H955 0.929 . S
C941 C940 1.362 . S
C941 C942 1.366 . S
C942 C939 1.365 . S
C942 C941 1.366 . S
C942 H956 0.930 . S
C943 C940 1.378 . S
C943 N944 1.315 . S
C943 H946 0.930 . S
N944 Co924 2.194 . S
N944 C939 1.328 . S
N944 C943 1.315 . S
H945 C939 0.929 . S
H946 C943 0.930 . S
H947 C935 0.929 . S
H948 C937 0.929 . S
O949 Co924 2.351 . S
O949 C952 1.244 . S
O950 Co924 2.155 . S
O950 C952 1.240 . S
O951 Co924 2.096 . S
O951 C932 1.247 . S
C952 O949 1.244 . S
C952 O950 1.240 . S
H953 C927 0.931 . S
H954 C936 0.931 . S
H955 C940 0.929 . S
H956 C942 0.930 . S
Co957 N961 2.148 . S
Co957 N967 2.128 . S
Co957 N977 2.194 . S
Co957 O982 2.351 . S
Co957 O983 2.155 . S
Co957 O984 2.096 . S
C958 N961 1.301 . S
C958 N962 1.328 . S
C958 H963 0.930 . S
C959 C960 1.333 . S
C959 N961 1.317 . S
C959 H964 0.930 . S
C960 C959 1.333 . S
C960 N962 1.350 . S
C960 H986 0.931 . S
N961 Co957 2.148 . S
N961 C958 1.301 . S
N961 C959 1.317 . S
N962 C958 1.328 . S
N962 C960 1.350 . S
H963 C958 0.930 . S
H964 C959 0.930 . S
C965 O966 1.224 . S
C965 O984 1.247 . S
O966 C965 1.224 . S
N967 Co957 2.128 . S
N967 C968 1.355 . S
N967 C970 1.311 . S
C968 N967 1.355 . S
C968 C969 1.363 . S
C968 H980 0.929 . S
C969 C968 1.363 . S
C969 N971 1.375 . S
C969 H987 0.931 . S
C970 N967 1.311 . S
C970 N971 1.347 . S
C970 H981 0.929 . S
N971 C969 1.375 . S
N971 C970 1.347 . S
C972 C975 1.365 . S
C972 N977 1.328 . S
C972 H978 0.929 . S
C973 C974 1.362 . S
C973 C976 1.378 . S
C973 H988 0.929 . S
C974 C973 1.362 . S
C974 C975 1.366 . S
C975 C972 1.365 . S
C975 C974 1.366 . S
C975 H989 0.930 . S
C976 C973 1.378 . S
C976 N977 1.315 . S
C976 H979 0.930 . S
N977 Co957 2.194 . S
N977 C972 1.328 . S
N977 C976 1.315 . S
H978 C972 0.929 . S
H979 C976 0.930 . S
H980 C968 0.929 . S
H981 C970 0.929 . S
O982 Co957 2.351 . S
O982 C985 1.244 . S
O983 Co957 2.155 . S
O983 C985 1.240 . S
O984 Co957 2.096 . S
O984 C965 1.247 . S
C985 O982 1.244 . S
C985 O983 1.240 . S
H986 C960 0.931 . S
H987 C969 0.931 . S
H988 C973 0.929 . S
H989 C975 0.930 . S
Co990 N994 2.148 . S
Co990 N1000 2.128 . S
Co990 N1010 2.194 . S
Co990 O1015 2.351 . S
Co990 O1016 2.155 . S
Co990 O1017 2.096 . S
C991 N994 1.301 . S
C991 N995 1.328 . S
C991 H996 0.930 . S
C992 C993 1.333 . S
C992 N994 1.317 . S
C992 H997 0.930 . S
C993 C992 1.333 . S
C993 N995 1.350 . S
C993 H1019 0.931 . S
N994 Co990 2.148 . S
N994 C991 1.301 . S
N994 C992 1.317 . S
N995 C991 1.328 . S
N995 C993 1.350 . S
H996 C991 0.930 . S
H997 C992 0.930 . S
C998 O999 1.224 . S
C998 O1017 1.247 . S
O999 C998 1.224 . S
N1000 Co990 2.128 . S
N1000 C1001 1.355 . S
N1000 C1003 1.311 . S
C1001 N1000 1.355 . S
C1001 C1002 1.360 . S
C1001 H1013 0.929 . S
C1002 C1001 1.360 . S
C1002 N1004 1.374 . S
C1002 H1020 0.934 1_655 S
C1003 N1000 1.311 . S
C1003 N1004 1.392 . S
C1003 H1014 0.929 . S
N1004 C1002 1.374 . S
N1004 C1003 1.392 . S
C1005 C1008 1.365 . S
C1005 N1010 1.328 . S
C1005 H1011 0.929 . S
C1006 C1007 1.362 . S
C1006 C1009 1.378 . S
C1006 H1021 0.929 . S
C1007 C1006 1.362 . S
C1007 C1008 1.366 . S
C1008 C1005 1.365 . S
C1008 C1007 1.366 . S
C1008 H1022 0.930 . S
C1009 C1006 1.378 . S
C1009 N1010 1.315 . S
C1009 H1012 0.930 . S
N1010 Co990 2.194 . S
N1010 C1005 1.328 . S
N1010 C1009 1.315 . S
H1011 C1005 0.929 . S
H1012 C1009 0.930 . S
H1013 C1001 0.929 . S
H1014 C1003 0.929 . S
O1015 Co990 2.351 . S
O1015 C1018 1.244 . S
O1016 Co990 2.155 . S
O1016 C1018 1.240 . S
O1017 Co990 2.096 . S
O1017 C998 1.247 . S
C1018 O1015 1.244 . S
C1018 O1016 1.240 . S
H1019 C993 0.931 . S
H1020 C1002 0.934 1_455 S
H1021 C1006 0.929 . S
H1022 C1008 0.930 . S
Co1023 N1027 2.148 . S
Co1023 N1033 2.128 . S
Co1023 N1043 2.194 . S
Co1023 O1048 2.351 . S
Co1023 O1049 2.155 . S
Co1023 O1050 2.096 . S
C1024 N1027 1.301 . S
C1024 N1028 1.328 . S
C1024 H1029 0.930 . S
C1025 C1026 1.333 . S
C1025 N1027 1.317 . S
C1025 H1030 0.930 . S
C1026 C1025 1.333 . S
C1026 N1028 1.350 . S
C1026 H1052 0.931 . S
N1027 Co1023 2.148 . S
N1027 C1024 1.301 . S
N1027 C1025 1.317 . S
N1028 C1024 1.328 . S
N1028 C1026 1.350 . S
H1029 C1024 0.930 . S
H1030 C1025 0.930 . S
C1031 O1032 1.224 . S
C1031 O1050 1.247 . S
O1032 C1031 1.224 . S
N1033 Co1023 2.128 . S
N1033 C1034 1.355 . S
N1033 C1036 1.311 . S
C1034 N1033 1.355 . S
C1034 C1035 1.363 . S
C1034 H1046 0.929 . S
C1035 C1034 1.363 . S
C1035 N1037 1.375 . S
C1035 H1053 0.931 . S
C1036 N1033 1.311 . S
C1036 N1037 1.347 . S
C1036 H1047 0.929 . S
N1037 C1035 1.375 . S
N1037 C1036 1.347 . S
C1038 C1041 1.365 . S
C1038 N1043 1.328 . S
C1038 H1044 0.929 . S
C1039 C1040 1.362 . S
C1039 C1042 1.378 . S
C1039 H1054 0.929 . S
C1040 C1039 1.362 . S
C1040 C1041 1.366 . S
C1041 C1038 1.365 . S
C1041 C1040 1.366 . S
C1041 H1055 0.930 . S
C1042 C1039 1.378 . S
C1042 N1043 1.315 . S
C1042 H1045 0.930 . S
N1043 Co1023 2.194 . S
N1043 C1038 1.328 . S
N1043 C1042 1.315 . S
H1044 C1038 0.929 . S
H1045 C1042 0.930 . S
H1046 C1034 0.929 . S
H1047 C1036 0.929 . S
O1048 Co1023 2.351 . S
O1048 C1051 1.244 . S
O1049 Co1023 2.155 . S
O1049 C1051 1.240 . S
O1050 Co1023 2.096 . S
O1050 C1031 1.247 . S
C1051 O1048 1.244 . S
C1051 O1049 1.240 . S
H1052 C1026 0.931 . S
H1053 C1035 0.931 . S
H1054 C1039 0.929 . S
H1055 C1041 0.930 . S
Co1056 N1060 2.148 . S
Co1056 N1066 2.128 . S
Co1056 N1076 2.194 . S
Co1056 O1081 2.351 . S
Co1056 O1082 2.155 . S
Co1056 O1083 2.096 . S
C1057 N1060 1.301 . S
C1057 N1061 1.328 . S
C1057 H1062 0.930 . S
C1058 C1059 1.333 . S
C1058 N1060 1.317 . S
C1058 H1063 0.930 . S
C1059 C1058 1.333 . S
C1059 N1061 1.350 . S
C1059 H1085 0.931 . S
N1060 Co1056 2.148 . S
N1060 C1057 1.301 . S
N1060 C1058 1.317 . S
N1061 C1057 1.328 . S
N1061 C1059 1.350 . S
H1062 C1057 0.930 . S
H1063 C1058 0.930 . S
C1064 O1065 1.224 . S
C1064 O1083 1.247 . S
O1065 C1064 1.224 . S
N1066 Co1056 2.128 . S
N1066 C1067 1.355 . S
N1066 C1069 1.311 . S
C1067 N1066 1.355 . S
C1067 C1068 1.363 . S
C1067 H1079 0.929 . S
C1068 C1067 1.363 . S
C1068 N1070 1.375 . S
C1068 H1086 0.931 . S
C1069 N1066 1.311 . S
C1069 N1070 1.347 . S
C1069 H1080 0.929 . S
N1070 C1068 1.375 . S
N1070 C1069 1.347 . S
C1071 C1074 1.365 . S
C1071 N1076 1.328 . S
C1071 H1077 0.929 . S
C1072 C1073 1.362 . S
C1072 C1075 1.378 . S
C1072 H1087 0.929 . S
C1073 C1072 1.362 . S
C1073 C1074 1.366 . S
C1074 C1071 1.365 . S
C1074 C1073 1.366 . S
C1074 H1088 0.930 . S
C1075 C1072 1.378 . S
C1075 N1076 1.315 . S
C1075 H1078 0.930 . S
N1076 Co1056 2.194 . S
N1076 C1071 1.328 . S
N1076 C1075 1.315 . S
H1077 C1071 0.929 . S
H1078 C1075 0.930 . S
H1079 C1067 0.929 . S
H1080 C1069 0.929 . S
O1081 Co1056 2.351 . S
O1081 C1084 1.244 . S
O1082 Co1056 2.155 . S
O1082 C1084 1.240 . S
O1083 Co1056 2.096 . S
O1083 C1064 1.247 . S
C1084 O1081 1.244 . S
C1084 O1082 1.240 . S
H1085 C1059 0.931 . S
H1086 C1068 0.931 . S
H1087 C1072 0.929 . S
H1088 C1074 0.930 . S
Co1089 N1093 2.148 . S
Co1089 N1099 2.128 . S
Co1089 N1109 2.194 . S
Co1089 O1114 2.351 . S
Co1089 O1115 2.155 . S
Co1089 O1116 2.096 . S
C1090 N1093 1.301 . S
C1090 N1094 1.328 . S
C1090 H1095 0.930 . S
C1091 C1092 1.333 . S
C1091 N1093 1.317 . S
C1091 H1096 0.930 . S
C1092 C1091 1.333 . S
C1092 N1094 1.350 . S
C1092 H1118 0.931 . S
N1093 Co1089 2.148 . S
N1093 C1090 1.301 . S
N1093 C1091 1.317 . S
N1094 C1090 1.328 . S
N1094 C1092 1.350 . S
H1095 C1090 0.930 . S
H1096 C1091 0.930 . S
C1097 O1098 1.224 . S
C1097 O1116 1.247 . S
O1098 C1097 1.224 . S
N1099 Co1089 2.128 . S
N1099 C1100 1.355 . S
N1099 C1102 1.311 . S
C1100 N1099 1.355 . S
C1100 C1101 1.363 . S
C1100 H1112 0.929 . S
C1101 C1100 1.363 . S
C1101 N1103 1.375 . S
C1101 H1119 0.931 . S
C1102 N1099 1.311 . S
C1102 N1103 1.347 . S
C1102 H1113 0.929 . S
N1103 C1101 1.375 . S
N1103 C1102 1.347 . S
C1104 C1107 1.365 . S
C1104 N1109 1.328 . S
C1104 H1110 0.929 . S
C1105 C1106 1.362 . S
C1105 C1108 1.378 . S
C1105 H1120 0.929 . S
C1106 C1105 1.362 . S
C1106 C1107 1.366 . S
C1107 C1104 1.365 . S
C1107 C1106 1.366 . S
C1107 H1121 0.930 . S
C1108 C1105 1.378 . S
C1108 N1109 1.315 . S
C1108 H1111 0.930 . S
N1109 Co1089 2.194 . S
N1109 C1104 1.328 . S
N1109 C1108 1.315 . S
H1110 C1104 0.929 . S
H1111 C1108 0.930 . S
H1112 C1100 0.929 . S
H1113 C1102 0.929 . S
O1114 Co1089 2.351 . S
O1114 C1117 1.244 . S
O1115 Co1089 2.155 . S
O1115 C1117 1.240 . S
O1116 Co1089 2.096 . S
O1116 C1097 1.247 . S
C1117 O1114 1.244 . S
C1117 O1115 1.240 . S
H1118 C1092 0.931 . S
H1119 C1101 0.931 . S
H1120 C1105 0.929 . S
H1121 C1107 0.930 . S
Co1122 N1126 2.148 . S
Co1122 N1132 2.128 . S
Co1122 N1142 2.194 . S
Co1122 O1147 2.351 . S
Co1122 O1148 2.155 . S
Co1122 O1149 2.096 . S
C1123 N1126 1.301 . S
C1123 N1127 1.328 . S
C1123 H1128 0.930 . S
C1124 C1125 1.333 . S
C1124 N1126 1.317 . S
C1124 H1129 0.930 . S
C1125 C1124 1.333 . S
C1125 N1127 1.350 . S
C1125 H1151 0.931 . S
N1126 Co1122 2.148 . S
N1126 C1123 1.301 . S
N1126 C1124 1.317 . S
N1127 C1123 1.328 . S
N1127 C1125 1.350 . S
H1128 C1123 0.930 . S
H1129 C1124 0.930 . S
C1130 O1131 1.224 . S
C1130 O1149 1.247 . S
O1131 C1130 1.224 . S
N1132 Co1122 2.128 . S
N1132 C1133 1.355 . S
N1132 C1135 1.311 . S
C1133 N1132 1.355 . S
C1133 C1134 1.363 . S
C1133 H1145 0.929 . S
C1134 C1133 1.363 . S
C1134 N1136 1.375 . S
C1134 H1152 0.931 . S
C1135 N1132 1.311 . S
C1135 N1136 1.347 . S
C1135 H1146 0.929 . S
N1136 C1134 1.375 . S
N1136 C1135 1.347 . S
C1137 C1140 1.365 1_554 S
C1137 N1142 1.328 . S
C1137 H1143 0.929 . S
C1138 C1139 1.362 . S
C1138 C1141 1.378 . S
C1138 H1153 0.929 . S
C1139 C1138 1.362 . S
C1139 C1140 1.366 1_554 S
C1140 C1137 1.365 1_556 S
C1140 C1139 1.366 1_556 S
C1140 H1154 0.930 . S
C1141 C1138 1.378 . S
C1141 N1142 1.315 . S
C1141 H1144 0.930 . S
N1142 Co1122 2.194 . S
N1142 C1137 1.328 . S
N1142 C1141 1.315 . S
H1143 C1137 0.929 . S
H1144 C1141 0.930 . S
H1145 C1133 0.929 . S
H1146 C1135 0.929 . S
O1147 Co1122 2.351 . S
O1147 C1150 1.244 . S
O1148 Co1122 2.155 . S
O1148 C1150 1.240 . S
O1149 Co1122 2.096 . S
O1149 C1130 1.247 . S
C1150 O1147 1.244 . S
C1150 O1148 1.240 . S
H1151 C1125 0.931 . S
H1152 C1134 0.931 . S
H1153 C1138 0.929 . S
H1154 C1140 0.930 . S
Co1155 N1159 2.148 . S
Co1155 N1165 2.128 . S
Co1155 N1175 2.194 . S
Co1155 O1180 2.351 . S
Co1155 O1181 2.155 . S
Co1155 O1182 2.096 . S
C1156 N1159 1.301 . S
C1156 N1160 1.328 . S
C1156 H1161 0.930 . S
C1157 C1158 1.333 . S
C1157 N1159 1.317 . S
C1157 H1162 0.930 . S
C1158 C1157 1.333 . S
C1158 N1160 1.350 . S
C1158 H1184 0.931 . S
N1159 Co1155 2.148 . S
N1159 C1156 1.301 . S
N1159 C1157 1.317 . S
N1160 C1156 1.328 . S
N1160 C1158 1.350 . S
H1161 C1156 0.930 . S
H1162 C1157 0.930 . S
C1163 O1164 1.224 . S
C1163 O1182 1.247 . S
O1164 C1163 1.224 . S
N1165 Co1155 2.128 . S
N1165 C1166 1.355 . S
N1165 C1168 1.311 . S
C1166 N1165 1.355 . S
C1166 C1167 1.363 . S
C1166 H1178 0.929 . S
C1167 C1166 1.363 . S
C1167 N1169 1.375 . S
C1167 H1185 0.931 . S
C1168 N1165 1.311 . S
C1168 N1169 1.347 . S
C1168 H1179 0.929 . S
N1169 C1167 1.375 . S
N1169 C1168 1.347 . S
C1170 C1173 1.365 . S
C1170 N1175 1.328 . S
C1170 H1176 0.929 . S
C1171 C1172 1.362 . S
C1171 C1174 1.378 . S
C1171 H1186 0.929 . S
C1172 C1171 1.362 . S
C1172 C1173 1.366 . S
C1173 C1170 1.365 . S
C1173 C1172 1.366 . S
C1173 H1187 0.930 . S
C1174 C1171 1.378 . S
C1174 N1175 1.315 . S
C1174 H1177 0.930 . S
N1175 Co1155 2.194 . S
N1175 C1170 1.328 . S
N1175 C1174 1.315 . S
H1176 C1170 0.929 . S
H1177 C1174 0.930 . S
H1178 C1166 0.929 . S
H1179 C1168 0.929 . S
O1180 Co1155 2.351 . S
O1180 C1183 1.244 . S
O1181 Co1155 2.155 . S
O1181 C1183 1.240 . S
O1182 Co1155 2.096 . S
O1182 C1163 1.247 . S
C1183 O1180 1.244 . S
C1183 O1181 1.240 . S
H1184 C1158 0.931 . S
H1185 C1167 0.931 . S
H1186 C1171 0.929 . S
H1187 C1173 0.930 . S
Co1188 N1192 2.148 . S
Co1188 N1198 2.128 . S
Co1188 N1208 2.194 . S
Co1188 O1213 2.351 . S
Co1188 O1214 2.155 . S
Co1188 O1215 2.096 . S
C1189 N1192 1.301 . S
C1189 N1193 1.328 . S
C1189 H1194 0.930 . S
C1190 C1191 1.333 . S
C1190 N1192 1.317 . S
C1190 H1195 0.930 . S
C1191 C1190 1.333 . S
C1191 N1193 1.350 . S
C1191 H1217 0.931 . S
N1192 Co1188 2.148 . S
N1192 C1189 1.301 . S
N1192 C1190 1.317 . S
N1193 C1189 1.328 . S
N1193 C1191 1.350 . S
H1194 C1189 0.930 . S
H1195 C1190 0.930 . S
C1196 O1197 1.224 . S
C1196 O1215 1.247 . S
O1197 C1196 1.224 . S
N1198 Co1188 2.128 . S
N1198 C1199 1.355 . S
N1198 C1201 1.311 . S
C1199 N1198 1.355 . S
C1199 C1200 1.363 . S
C1199 H1211 0.929 . S
C1200 C1199 1.363 . S
C1200 N1202 1.375 . S
C1200 H1218 0.931 . S
C1201 N1198 1.311 . S
C1201 N1202 1.347 . S
C1201 H1212 0.929 . S
N1202 C1200 1.375 . S
N1202 C1201 1.347 . S
C1203 C1206 1.365 1_556 S
C1203 N1208 1.328 . S
C1203 H1209 0.929 . S
C1204 C1205 1.362 . S
C1204 C1207 1.378 . S
C1204 H1219 0.929 . S
C1205 C1204 1.362 . S
C1205 C1206 1.366 1_556 S
C1206 C1203 1.365 1_554 S
C1206 C1205 1.366 1_554 S
C1206 H1220 0.930 . S
C1207 C1204 1.378 . S
C1207 N1208 1.315 . S
C1207 H1210 0.930 . S
N1208 Co1188 2.194 . S
N1208 C1203 1.328 . S
N1208 C1207 1.315 . S
H1209 C1203 0.929 . S
H1210 C1207 0.930 . S
H1211 C1199 0.929 . S
H1212 C1201 0.929 . S
O1213 Co1188 2.351 . S
O1213 C1216 1.244 . S
O1214 Co1188 2.155 . S
O1214 C1216 1.240 . S
O1215 Co1188 2.096 . S
O1215 C1196 1.247 . S
C1216 O1213 1.244 . S
C1216 O1214 1.240 . S
H1217 C1191 0.931 . S
H1218 C1200 0.931 . S
H1219 C1204 0.929 . S
H1220 C1206 0.930 . S
Co1221 N1225 2.148 . S
Co1221 N1231 2.128 . S
Co1221 N1241 2.194 . S
Co1221 O1246 2.351 . S
Co1221 O1247 2.155 . S
Co1221 O1248 2.096 . S
C1222 N1225 1.301 . S
C1222 N1226 1.328 . S
C1222 H1227 0.930 . S
C1223 C1224 1.333 . S
C1223 N1225 1.317 . S
C1223 H1228 0.930 . S
C1224 C1223 1.333 . S
C1224 N1226 1.350 . S
C1224 H1250 0.931 . S
N1225 Co1221 2.148 . S
N1225 C1222 1.301 . S
N1225 C1223 1.317 . S
N1226 C1222 1.328 . S
N1226 C1224 1.350 . S
H1227 C1222 0.930 . S
H1228 C1223 0.930 . S
C1229 O1230 1.224 . S
C1229 O1248 1.247 . S
O1230 C1229 1.224 . S
N1231 Co1221 2.128 . S
N1231 C1232 1.355 . S
N1231 C1234 1.311 . S
C1232 N1231 1.355 . S
C1232 C1233 1.363 . S
C1232 H1244 0.929 . S
C1233 C1232 1.363 . S
C1233 N1235 1.375 . S
C1233 H1251 0.931 . S
C1234 N1231 1.311 . S
C1234 N1235 1.347 . S
C1234 H1245 0.929 . S
N1235 C1233 1.375 . S
N1235 C1234 1.347 . S
C1236 C1239 1.365 . S
C1236 N1241 1.328 . S
C1236 H1242 0.929 . S
C1237 C1238 1.362 . S
C1237 C1240 1.378 . S
C1237 H1252 0.929 . S
C1238 C1237 1.362 . S
C1238 C1239 1.366 . S
C1239 C1236 1.365 . S
C1239 C1238 1.366 . S
C1239 H1253 0.930 . S
C1240 C1237 1.378 . S
C1240 N1241 1.315 . S
C1240 H1243 0.930 . S
N1241 Co1221 2.194 . S
N1241 C1236 1.328 . S
N1241 C1240 1.315 . S
H1242 C1236 0.929 . S
H1243 C1240 0.930 . S
H1244 C1232 0.929 . S
H1245 C1234 0.929 . S
O1246 Co1221 2.351 . S
O1246 C1249 1.244 . S
O1247 Co1221 2.155 . S
O1247 C1249 1.240 . S
O1248 Co1221 2.096 . S
O1248 C1229 1.247 . S
C1249 O1246 1.244 . S
C1249 O1247 1.240 . S
H1250 C1224 0.931 . S
H1251 C1233 0.931 . S
H1252 C1237 0.929 . S
H1253 C1239 0.930 . S
Co1254 N1258 2.148 . S
Co1254 N1264 2.128 . S
Co1254 N1274 2.194 . S
Co1254 O1279 2.351 . S
Co1254 O1280 2.155 . S
Co1254 O1281 2.096 . S
C1255 N1258 1.301 . S
C1255 N1259 1.328 . S
C1255 H1260 0.930 . S
C1256 C1257 1.333 . S
C1256 N1258 1.317 . S
C1256 H1261 0.930 . S
C1257 C1256 1.333 . S
C1257 N1259 1.350 . S
C1257 H1283 0.931 . S
N1258 Co1254 2.148 . S
N1258 C1255 1.301 . S
N1258 C1256 1.317 . S
N1259 C1255 1.328 . S
N1259 C1257 1.350 . S
H1260 C1255 0.930 . S
H1261 C1256 0.930 . S
C1262 O1263 1.224 . S
C1262 O1281 1.247 . S
O1263 C1262 1.224 . S
N1264 Co1254 2.128 . S
N1264 C1265 1.355 . S
N1264 C1267 1.311 . S
C1265 N1264 1.355 . S
C1265 C1266 1.363 . S
C1265 H1277 0.929 . S
C1266 C1265 1.363 . S
C1266 N1268 1.375 . S
C1266 H1284 0.931 . S
C1267 N1264 1.311 . S
C1267 N1268 1.347 . S
C1267 H1278 0.929 . S
N1268 C1266 1.375 . S
N1268 C1267 1.347 . S
C1269 C1272 1.365 . S
C1269 N1274 1.328 . S
C1269 H1275 0.929 . S
C1270 C1271 1.362 . S
C1270 C1273 1.378 . S
C1270 H1285 0.929 . S
C1271 C1270 1.362 . S
C1271 C1272 1.366 . S
C1272 C1269 1.365 . S
C1272 C1271 1.366 . S
C1272 H1286 0.930 . S
C1273 C1270 1.378 . S
C1273 N1274 1.315 . S
C1273 H1276 0.930 . S
N1274 Co1254 2.194 . S
N1274 C1269 1.328 . S
N1274 C1273 1.315 . S
H1275 C1269 0.929 . S
H1276 C1273 0.930 . S
H1277 C1265 0.929 . S
H1278 C1267 0.929 . S
O1279 Co1254 2.351 . S
O1279 C1282 1.244 . S
O1280 Co1254 2.155 . S
O1280 C1282 1.240 . S
O1281 Co1254 2.096 . S
O1281 C1262 1.247 . S
C1282 O1279 1.244 . S
C1282 O1280 1.240 . S
H1283 C1257 0.931 . S
H1284 C1266 0.931 . S
H1285 C1270 0.929 . S
H1286 C1272 0.930 . S
Co1287 N1291 2.148 . S
Co1287 N1297 2.128 . S
Co1287 N1307 2.194 . S
Co1287 O1312 2.351 . S
Co1287 O1313 2.155 . S
Co1287 O1314 2.096 . S
C1288 N1291 1.301 . S
C1288 N1292 1.328 . S
C1288 H1293 0.930 . S
C1289 C1290 1.333 . S
C1289 N1291 1.317 . S
C1289 H1294 0.930 . S
C1290 C1289 1.333 . S
C1290 N1292 1.350 . S
C1290 H1316 0.931 . S
N1291 Co1287 2.148 . S
N1291 C1288 1.301 . S
N1291 C1289 1.317 . S
N1292 C1288 1.328 . S
N1292 C1290 1.350 . S
H1293 C1288 0.930 . S
H1294 C1289 0.930 . S
C1295 O1296 1.224 . S
C1295 O1314 1.247 . S
O1296 C1295 1.224 . S
N1297 Co1287 2.128 . S
N1297 C1298 1.355 . S
N1297 C1300 1.311 . S
C1298 N1297 1.355 . S
C1298 C1299 1.363 . S
C1298 H1310 0.929 . S
C1299 C1298 1.363 . S
C1299 N1301 1.375 . S
C1299 H1317 0.931 . S
C1300 N1297 1.311 . S
C1300 N1301 1.347 . S
C1300 H1311 0.929 . S
N1301 C1299 1.375 . S
N1301 C1300 1.347 . S
C1302 C1305 1.365 . S
C1302 N1307 1.328 . S
C1302 H1308 0.929 . S
C1303 C1304 1.362 . S
C1303 C1306 1.378 . S
C1303 H1318 0.929 . S
C1304 C1303 1.362 . S
C1304 C1305 1.366 . S
C1305 C1302 1.365 . S
C1305 C1304 1.366 . S
C1305 H1319 0.930 . S
C1306 C1303 1.378 . S
C1306 N1307 1.315 . S
C1306 H1309 0.930 . S
N1307 Co1287 2.194 . S
N1307 C1302 1.328 . S
N1307 C1306 1.315 . S
H1308 C1302 0.929 . S
H1309 C1306 0.930 . S
H1310 C1298 0.929 . S
H1311 C1300 0.929 . S
O1312 Co1287 2.351 . S
O1312 C1315 1.244 . S
O1313 Co1287 2.155 . S
O1313 C1315 1.240 . S
O1314 Co1287 2.096 . S
O1314 C1295 1.247 . S
C1315 O1312 1.244 . S
C1315 O1313 1.240 . S
H1316 C1290 0.931 . S
H1317 C1299 0.931 . S
H1318 C1303 0.929 . S
H1319 C1305 0.930 . S
Co1320 N1324 2.148 . S
Co1320 N1330 2.128 . S
Co1320 N1340 2.194 . S
Co1320 O1345 2.351 . S
Co1320 O1346 2.155 . S
Co1320 O1347 2.096 . S
C1321 N1324 1.301 . S
C1321 N1325 1.328 . S
C1321 H1326 0.930 . S
C1322 C1323 1.333 . S
C1322 N1324 1.317 . S
C1322 H1327 0.930 . S
C1323 C1322 1.333 . S
C1323 N1325 1.350 . S
C1323 H1349 0.931 . S
N1324 Co1320 2.148 . S
N1324 C1321 1.301 . S
N1324 C1322 1.317 . S
N1325 C1321 1.328 . S
N1325 C1323 1.350 . S
H1326 C1321 0.930 . S
H1327 C1322 0.930 . S
C1328 O1329 1.224 . S
C1328 O1347 1.247 . S
O1329 C1328 1.224 . S
N1330 Co1320 2.128 . S
N1330 C1331 1.355 . S
N1330 C1333 1.311 . S
C1331 N1330 1.355 . S
C1331 C1332 1.363 . S
C1331 H1343 0.929 . S
C1332 C1331 1.363 . S
C1332 N1334 1.375 . S
C1332 H1350 0.931 . S
C1333 N1330 1.311 . S
C1333 N1334 1.347 . S
C1333 H1344 0.929 . S
N1334 C1332 1.375 . S
N1334 C1333 1.347 . S
C1335 C1338 1.365 . S
C1335 N1340 1.328 . S
C1335 H1341 0.929 . S
C1336 C1337 1.362 . S
C1336 C1339 1.378 . S
C1336 H1351 0.929 . S
C1337 C1336 1.362 . S
C1337 C1338 1.366 . S
C1338 C1335 1.365 . S
C1338 C1337 1.366 . S
C1338 H1352 0.930 . S
C1339 C1336 1.378 . S
C1339 N1340 1.315 . S
C1339 H1342 0.930 . S
N1340 Co1320 2.194 . S
N1340 C1335 1.328 . S
N1340 C1339 1.315 . S
H1341 C1335 0.929 . S
H1342 C1339 0.930 . S
H1343 C1331 0.929 . S
H1344 C1333 0.929 . S
O1345 Co1320 2.351 . S
O1345 C1348 1.244 . S
O1346 Co1320 2.155 . S
O1346 C1348 1.240 . S
O1347 Co1320 2.096 . S
O1347 C1328 1.247 . S
C1348 O1345 1.244 . S
C1348 O1346 1.240 . S
H1349 C1323 0.931 . S
H1350 C1332 0.931 . S
H1351 C1336 0.929 . S
H1352 C1338 0.930 . S
Co1353 N1357 2.148 . S
Co1353 N1363 2.128 . S
Co1353 N1373 2.194 . S
Co1353 O1378 2.351 . S
Co1353 O1379 2.155 . S
Co1353 O1380 2.096 . S
C1354 N1357 1.301 . S
C1354 N1358 1.328 . S
C1354 H1359 0.930 . S
C1355 C1356 1.333 . S
C1355 N1357 1.317 . S
C1355 H1360 0.930 . S
C1356 C1355 1.333 . S
C1356 N1358 1.350 . S
C1356 H1382 0.931 . S
N1357 Co1353 2.148 . S
N1357 C1354 1.301 . S
N1357 C1355 1.317 . S
N1358 C1354 1.328 . S
N1358 C1356 1.350 . S
H1359 C1354 0.930 . S
H1360 C1355 0.930 . S
C1361 O1362 1.224 . S
C1361 O1380 1.247 . S
O1362 C1361 1.224 . S
N1363 Co1353 2.128 . S
N1363 C1364 1.355 . S
N1363 C1366 1.311 . S
C1364 N1363 1.355 . S
C1364 C1365 1.363 . S
C1364 H1376 0.929 . S
C1365 C1364 1.363 . S
C1365 N1367 1.375 . S
C1365 H1383 0.931 . S
C1366 N1363 1.311 . S
C1366 N1367 1.347 . S
C1366 H1377 0.929 . S
N1367 C1365 1.375 . S
N1367 C1366 1.347 . S
C1368 C1371 1.365 1_455 S
C1368 N1373 1.328 . S
C1368 H1374 0.929 . S
C1369 C1370 1.362 . S
C1369 C1372 1.378 . S
C1369 H1384 0.929 . S
C1370 C1369 1.362 . S
C1370 C1371 1.366 1_455 S
C1371 C1368 1.365 1_655 S
C1371 C1370 1.366 1_655 S
C1371 H1385 0.930 . S
C1372 C1369 1.378 . S
C1372 N1373 1.315 . S
C1372 H1375 0.930 . S
N1373 Co1353 2.194 . S
N1373 C1368 1.328 . S
N1373 C1372 1.315 . S
H1374 C1368 0.929 . S
H1375 C1372 0.930 . S
H1376 C1364 0.929 . S
H1377 C1366 0.929 . S
O1378 Co1353 2.351 . S
O1378 C1381 1.244 . S
O1379 Co1353 2.155 . S
O1379 C1381 1.240 . S
O1380 Co1353 2.096 . S
O1380 C1361 1.247 . S
C1381 O1378 1.244 . S
C1381 O1379 1.240 . S
H1382 C1356 0.931 . S
H1383 C1365 0.931 . S
H1384 C1369 0.929 . S
H1385 C1371 0.930 . S
Co1386 N1390 2.148 . S
Co1386 N1396 2.128 . S
Co1386 N1406 2.194 . S
Co1386 O1411 2.351 . S
Co1386 O1412 2.155 . S
Co1386 O1413 2.096 . S
C1387 N1390 1.301 . S
C1387 N1391 1.328 . S
C1387 H1392 0.930 . S
C1388 C1389 1.333 . S
C1388 N1390 1.317 . S
C1388 H1393 0.930 . S
C1389 C1388 1.333 . S
C1389 N1391 1.350 . S
C1389 H1415 0.931 . S
N1390 Co1386 2.148 . S
N1390 C1387 1.301 . S
N1390 C1388 1.317 . S
N1391 C1387 1.328 . S
N1391 C1389 1.350 . S
H1392 C1387 0.930 . S
H1393 C1388 0.930 . S
C1394 O1395 1.224 . S
C1394 O1413 1.247 . S
O1395 C1394 1.224 . S
N1396 Co1386 2.128 . S
N1396 C1397 1.355 . S
N1396 C1399 1.311 . S
C1397 N1396 1.355 . S
C1397 C1398 1.363 . S
C1397 H1409 0.929 . S
C1398 C1397 1.363 . S
C1398 N1400 1.375 . S
C1398 H1416 0.931 . S
C1399 N1396 1.311 . S
C1399 N1400 1.347 . S
C1399 H1410 0.929 . S
N1400 C1398 1.375 . S
N1400 C1399 1.347 . S
C1401 C1404 1.365 . S
C1401 N1406 1.328 . S
C1401 H1407 0.929 . S
C1402 C1403 1.362 . S
C1402 C1405 1.378 . S
C1402 H1417 0.929 . S
C1403 C1402 1.362 . S
C1403 C1404 1.366 . S
C1404 C1401 1.365 . S
C1404 C1403 1.366 . S
C1404 H1418 0.930 . S
C1405 C1402 1.378 . S
C1405 N1406 1.315 . S
C1405 H1408 0.930 . S
N1406 Co1386 2.194 . S
N1406 C1401 1.328 . S
N1406 C1405 1.315 . S
H1407 C1401 0.929 . S
H1408 C1405 0.930 . S
H1409 C1397 0.929 . S
H1410 C1399 0.929 . S
O1411 Co1386 2.351 . S
O1411 C1414 1.244 . S
O1412 Co1386 2.155 . S
O1412 C1414 1.240 . S
O1413 Co1386 2.096 . S
O1413 C1394 1.247 . S
C1414 O1411 1.244 . S
C1414 O1412 1.240 . S
H1415 C1389 0.931 . S
H1416 C1398 0.931 . S
H1417 C1402 0.929 . S
H1418 C1404 0.930 . S
Co1419 N1423 2.148 . S
Co1419 N1429 2.128 . S
Co1419 N1439 2.194 . S
Co1419 O1444 2.351 . S
Co1419 O1445 2.155 . S
Co1419 O1446 2.096 . S
C1420 N1423 1.301 . S
C1420 N1424 1.328 . S
C1420 H1425 0.930 . S
C1421 C1422 1.333 . S
C1421 N1423 1.317 . S
C1421 H1426 0.930 . S
C1422 C1421 1.333 . S
C1422 N1424 1.350 . S
C1422 H1448 0.931 . S
N1423 Co1419 2.148 . S
N1423 C1420 1.301 . S
N1423 C1421 1.317 . S
N1424 C1420 1.328 . S
N1424 C1422 1.350 . S
H1425 C1420 0.930 . S
H1426 C1421 0.930 . S
C1427 O1428 1.224 . S
C1427 O1446 1.247 . S
O1428 C1427 1.224 . S
N1429 Co1419 2.128 . S
N1429 C1430 1.355 . S
N1429 C1432 1.311 . S
C1430 N1429 1.355 . S
C1430 C1431 1.366 1_556 S
C1430 H1442 0.929 . S
C1431 C1430 1.366 1_554 S
C1431 N1433 1.374 1_554 S
C1431 H1449 0.928 . S
C1432 N1429 1.311 . S
C1432 N1433 1.385 . S
C1432 H1443 0.929 . S
N1433 C1431 1.374 1_556 S
N1433 C1432 1.385 . S
C1434 C1437 1.365 . S
C1434 N1439 1.328 . S
C1434 H1440 0.929 . S
C1435 C1436 1.362 . S
C1435 C1438 1.378 . S
C1435 H1450 0.929 . S
C1436 C1435 1.362 . S
C1436 C1437 1.366 . S
C1437 C1434 1.365 . S
C1437 C1436 1.366 . S
C1437 H1451 0.930 . S
C1438 C1435 1.378 . S
C1438 N1439 1.315 . S
C1438 H1441 0.930 . S
N1439 Co1419 2.194 . S
N1439 C1434 1.328 . S
N1439 C1438 1.315 . S
H1440 C1434 0.929 . S
H1441 C1438 0.930 . S
H1442 C1430 0.929 . S
H1443 C1432 0.929 . S
O1444 Co1419 2.351 . S
O1444 C1447 1.244 . S
O1445 Co1419 2.155 . S
O1445 C1447 1.240 . S
O1446 Co1419 2.096 . S
O1446 C1427 1.247 . S
C1447 O1444 1.244 . S
C1447 O1445 1.240 . S
H1448 C1422 0.931 . S
H1449 C1431 0.928 . S
H1450 C1435 0.929 . S
H1451 C1437 0.930 . S
Co1452 N1456 2.148 . S
Co1452 N1462 2.128 . S
Co1452 N1472 2.194 . S
Co1452 O1477 2.351 . S
Co1452 O1478 2.155 . S
Co1452 O1479 2.096 . S
C1453 N1456 1.301 . S
C1453 N1457 1.328 . S
C1453 H1458 0.930 . S
C1454 C1455 1.333 . S
C1454 N1456 1.317 . S
C1454 H1459 0.930 . S
C1455 C1454 1.333 . S
C1455 N1457 1.350 . S
C1455 H1481 0.931 . S
N1456 Co1452 2.148 . S
N1456 C1453 1.301 . S
N1456 C1454 1.317 . S
N1457 C1453 1.328 . S
N1457 C1455 1.350 . S
H1458 C1453 0.930 . S
H1459 C1454 0.930 . S
C1460 O1461 1.224 . S
C1460 O1479 1.247 . S
O1461 C1460 1.224 . S
N1462 Co1452 2.128 . S
N1462 C1463 1.355 . S
N1462 C1465 1.311 . S
C1463 N1462 1.355 . S
C1463 C1464 1.363 . S
C1463 H1475 0.929 . S
C1464 C1463 1.363 . S
C1464 N1466 1.375 . S
C1464 H1482 0.931 . S
C1465 N1462 1.311 . S
C1465 N1466 1.347 . S
C1465 H1476 0.929 . S
N1466 C1464 1.375 . S
N1466 C1465 1.347 . S
C1467 C1470 1.365 . S
C1467 N1472 1.328 . S
C1467 H1473 0.929 . S
C1468 C1469 1.362 . S
C1468 C1471 1.378 . S
C1468 H1483 0.929 . S
C1469 C1468 1.362 . S
C1469 C1470 1.366 . S
C1470 C1467 1.365 . S
C1470 C1469 1.366 . S
C1470 H1484 0.930 . S
C1471 C1468 1.378 . S
C1471 N1472 1.315 . S
C1471 H1474 0.930 . S
N1472 Co1452 2.194 . S
N1472 C1467 1.328 . S
N1472 C1471 1.315 . S
H1473 C1467 0.929 . S
H1474 C1471 0.930 . S
H1475 C1463 0.929 . S
H1476 C1465 0.929 . S
O1477 Co1452 2.351 . S
O1477 C1480 1.244 . S
O1478 Co1452 2.155 . S
O1478 C1480 1.240 . S
O1479 Co1452 2.096 . S
O1479 C1460 1.247 . S
C1480 O1477 1.244 . S
C1480 O1478 1.240 . S
H1481 C1455 0.931 . S
H1482 C1464 0.931 . S
H1483 C1468 0.929 . S
H1484 C1470 0.930 . S
Co1485 N1489 2.148 . S
Co1485 N1495 2.128 . S
Co1485 N1505 2.194 . S
Co1485 O1510 2.351 . S
Co1485 O1511 2.155 . S
Co1485 O1512 2.096 . S
C1486 N1489 1.301 . S
C1486 N1490 1.328 . S
C1486 H1491 0.930 . S
C1487 C1488 1.333 . S
C1487 N1489 1.317 . S
C1487 H1492 0.930 . S
C1488 C1487 1.333 . S
C1488 N1490 1.350 . S
C1488 H1514 0.931 . S
N1489 Co1485 2.148 . S
N1489 C1486 1.301 . S
N1489 C1487 1.317 . S
N1490 C1486 1.328 . S
N1490 C1488 1.350 . S
H1491 C1486 0.930 . S
H1492 C1487 0.930 . S
C1493 O1494 1.224 . S
C1493 O1512 1.247 . S
O1494 C1493 1.224 . S
N1495 Co1485 2.128 . S
N1495 C1496 1.355 . S
N1495 C1498 1.311 . S
C1496 N1495 1.355 . S
C1496 C1497 1.362 . S
C1496 H1508 0.929 . S
C1497 C1496 1.362 . S
C1497 N1499 1.374 . S
C1497 H1515 0.932 1_554 S
C1498 N1495 1.311 . S
C1498 N1499 1.392 . S
C1498 H1509 0.929 . S
N1499 C1497 1.374 . S
N1499 C1498 1.392 . S
C1500 C1503 1.365 1_655 S
C1500 N1505 1.328 . S
C1500 H1506 0.929 . S
C1501 C1502 1.362 . S
C1501 C1504 1.378 . S
C1501 H1516 0.929 . S
C1502 C1501 1.362 . S
C1502 C1503 1.366 1_655 S
C1503 C1500 1.365 1_455 S
C1503 C1502 1.366 1_455 S
C1503 H1517 0.930 . S
C1504 C1501 1.378 . S
C1504 N1505 1.315 . S
C1504 H1507 0.930 . S
N1505 Co1485 2.194 . S
N1505 C1500 1.328 . S
N1505 C1504 1.315 . S
H1506 C1500 0.929 . S
H1507 C1504 0.930 . S
H1508 C1496 0.929 . S
H1509 C1498 0.929 . S
O1510 Co1485 2.351 . S
O1510 C1513 1.244 . S
O1511 Co1485 2.155 . S
O1511 C1513 1.240 . S
O1512 Co1485 2.096 . S
O1512 C1493 1.247 . S
C1513 O1510 1.244 . S
C1513 O1511 1.240 . S
H1514 C1488 0.931 . S
H1515 C1497 0.932 1_556 S
H1516 C1501 0.929 . S
H1517 C1503 0.930 . S
Co1518 N1522 2.148 . S
Co1518 N1528 2.128 . S
Co1518 N1538 2.194 . S
Co1518 O1543 2.351 . S
Co1518 O1544 2.155 . S
Co1518 O1545 2.096 . S
C1519 N1522 1.301 . S
C1519 N1523 1.328 . S
C1519 H1524 0.930 . S
C1520 C1521 1.333 . S
C1520 N1522 1.317 . S
C1520 H1525 0.930 . S
C1521 C1520 1.333 . S
C1521 N1523 1.350 . S
C1521 H1547 0.931 . S
N1522 Co1518 2.148 . S
N1522 C1519 1.301 . S
N1522 C1520 1.317 . S
N1523 C1519 1.328 . S
N1523 C1521 1.350 . S
H1524 C1519 0.930 . S
H1525 C1520 0.930 . S
C1526 O1527 1.224 . S
C1526 O1545 1.247 . S
O1527 C1526 1.224 . S
N1528 Co1518 2.128 . S
N1528 C1529 1.355 . S
N1528 C1531 1.311 . S
C1529 N1528 1.355 . S
C1529 C1530 1.363 . S
C1529 H1541 0.929 . S
C1530 C1529 1.363 . S
C1530 N1532 1.375 . S
C1530 H1548 0.931 . S
C1531 N1528 1.311 . S
C1531 N1532 1.347 . S
C1531 H1542 0.929 . S
N1532 C1530 1.375 . S
N1532 C1531 1.347 . S
C1533 C1536 1.365 . S
C1533 N1538 1.328 . S
C1533 H1539 0.929 . S
C1534 C1535 1.362 . S
C1534 C1537 1.378 . S
C1534 H1549 0.929 . S
C1535 C1534 1.362 . S
C1535 C1536 1.366 . S
C1536 C1533 1.365 . S
C1536 C1535 1.366 . S
C1536 H1550 0.930 . S
C1537 C1534 1.378 . S
C1537 N1538 1.315 . S
C1537 H1540 0.930 . S
N1538 Co1518 2.194 . S
N1538 C1533 1.328 . S
N1538 C1537 1.315 . S
H1539 C1533 0.929 . S
H1540 C1537 0.930 . S
H1541 C1529 0.929 . S
H1542 C1531 0.929 . S
O1543 Co1518 2.351 . S
O1543 C1546 1.244 . S
O1544 Co1518 2.155 . S
O1544 C1546 1.240 . S
O1545 Co1518 2.096 . S
O1545 C1526 1.247 . S
C1546 O1543 1.244 . S
C1546 O1544 1.240 . S
H1547 C1521 0.931 . S
H1548 C1530 0.931 . S
H1549 C1534 0.929 . S
H1550 C1536 0.930 . S
Co1551 N1555 2.148 . S
Co1551 N1561 2.128 . S
Co1551 N1571 2.194 . S
Co1551 O1576 2.351 . S
Co1551 O1577 2.155 . S
Co1551 O1578 2.096 . S
C1552 N1555 1.301 . S
C1552 N1556 1.328 . S
C1552 H1557 0.930 . S
C1553 C1554 1.333 . S
C1553 N1555 1.317 . S
C1553 H1558 0.930 . S
C1554 C1553 1.333 . S
C1554 N1556 1.350 . S
C1554 H1580 0.931 . S
N1555 Co1551 2.148 . S
N1555 C1552 1.301 . S
N1555 C1553 1.317 . S
N1556 C1552 1.328 . S
N1556 C1554 1.350 . S
H1557 C1552 0.930 . S
H1558 C1553 0.930 . S
C1559 O1560 1.224 . S
C1559 O1578 1.247 . S
O1560 C1559 1.224 . S
N1561 Co1551 2.128 . S
N1561 C1562 1.355 . S
N1561 C1564 1.311 . S
C1562 N1561 1.355 . S
C1562 C1563 1.363 . S
C1562 H1574 0.929 . S
C1563 C1562 1.363 . S
C1563 N1565 1.375 . S
C1563 H1581 0.931 . S
C1564 N1561 1.311 . S
C1564 N1565 1.347 . S
C1564 H1575 0.929 . S
N1565 C1563 1.375 . S
N1565 C1564 1.347 . S
C1566 C1569 1.365 . S
C1566 N1571 1.328 . S
C1566 H1572 0.929 . S
C1567 C1568 1.362 . S
C1567 C1570 1.378 . S
C1567 H1582 0.929 . S
C1568 C1567 1.362 . S
C1568 C1569 1.366 . S
C1569 C1566 1.365 . S
C1569 C1568 1.366 . S
C1569 H1583 0.930 . S
C1570 C1567 1.378 . S
C1570 N1571 1.315 . S
C1570 H1573 0.930 . S
N1571 Co1551 2.194 . S
N1571 C1566 1.328 . S
N1571 C1570 1.315 . S
H1572 C1566 0.929 . S
H1573 C1570 0.930 . S
H1574 C1562 0.929 . S
H1575 C1564 0.929 . S
O1576 Co1551 2.351 . S
O1576 C1579 1.244 . S
O1577 Co1551 2.155 . S
O1577 C1579 1.240 . S
O1578 Co1551 2.096 . S
O1578 C1559 1.247 . S
C1579 O1576 1.244 . S
C1579 O1577 1.240 . S
H1580 C1554 0.931 . S
H1581 C1563 0.931 . S
H1582 C1567 0.929 . S
H1583 C1569 0.930 . S
C1584 C1585 1.387 . S
C1584 H1588 0.950 . S
C1584 C1593 1.390 . S
C1585 C1584 1.387 . S
C1585 C1587 1.387 . S
H1586 C1593 0.950 . S
C1587 C1585 1.387 . S
C1587 C1589 1.390 . S
C1587 H1591 0.950 . S
H1588 C1584 0.950 . S
C1589 C1587 1.390 . S
C1589 C1590 1.387 . S
C1589 H1592 0.950 . S
C1590 C1589 1.387 . S
C1590 C1593 1.387 . S
H1591 C1587 0.950 . S
H1592 C1589 0.950 . S
C1593 C1584 1.390 . S
C1593 H1586 0.950 . S
C1593 C1590 1.387 . S
C1594 C1595 1.387 . S
C1594 H1598 0.950 . S
C1594 C1603 1.390 . S
C1595 C1594 1.387 . S
C1595 C1597 1.387 . S
H1596 C1603 0.950 . S
C1597 C1595 1.387 . S
C1597 C1599 1.390 . S
C1597 H1601 0.950 . S
H1598 C1594 0.950 . S
C1599 C1597 1.390 . S
C1599 C1600 1.387 . S
C1599 H1602 0.950 . S
C1600 C1599 1.387 . S
C1600 C1603 1.387 . S
H1601 C1597 0.950 . S
H1602 C1599 0.950 . S
C1603 C1594 1.390 . S
C1603 H1596 0.950 . S
C1603 C1600 1.387 . S
C1604 C1605 1.387 . S
C1604 H1608 0.950 . S
C1604 C1613 1.390 . S
C1605 C1604 1.387 . S
C1605 C1607 1.387 . S
H1606 C1613 0.950 . S
C1607 C1605 1.387 . S
C1607 C1609 1.390 . S
C1607 H1611 0.950 . S
H1608 C1604 0.950 . S
C1609 C1607 1.390 . S
C1609 C1610 1.387 . S
C1609 H1612 0.950 . S
C1610 C1609 1.387 . S
C1610 C1613 1.387 . S
H1611 C1607 0.950 . S
H1612 C1609 0.950 . S
C1613 C1604 1.390 . S
C1613 H1606 0.950 . S
C1613 C1610 1.387 . S
C1614 C1615 1.387 . S
C1614 H1618 0.950 . S
C1614 C1623 1.390 . S
C1615 C1614 1.387 . S
C1615 C1617 1.387 . S
H1616 C1623 0.950 . S
C1617 C1615 1.387 . S
C1617 C1619 1.390 . S
C1617 H1621 0.950 . S
H1618 C1614 0.950 . S
C1619 C1617 1.390 . S
C1619 C1620 1.387 . S
C1619 H1622 0.950 . S
C1620 C1619 1.387 . S
C1620 C1623 1.387 . S
H1621 C1617 0.950 . S
H1622 C1619 0.950 . S
C1623 C1614 1.390 . S
C1623 H1616 0.950 . S
C1623 C1620 1.387 . S
C1624 C1625 1.387 . S
C1624 H1628 0.950 . S
C1624 C1633 1.390 . S
C1625 C1624 1.387 . S
C1625 C1627 1.387 . S
H1626 C1633 0.950 . S
C1627 C1625 1.387 . S
C1627 C1629 1.390 . S
C1627 H1631 0.950 . S
H1628 C1624 0.950 . S
C1629 C1627 1.390 . S
C1629 C1630 1.387 . S
C1629 H1632 0.950 . S
C1630 C1629 1.387 . S
C1630 C1633 1.387 . S
H1631 C1627 0.950 . S
H1632 C1629 0.950 . S
C1633 C1624 1.390 . S
C1633 H1626 0.950 . S
C1633 C1630 1.387 . S
C1634 C1635 1.387 . S
C1634 H1638 0.950 . S
C1634 C1643 1.390 . S
C1635 C1634 1.387 . S
C1635 C1637 1.387 . S
H1636 C1643 0.950 . S
C1637 C1635 1.387 . S
C1637 C1639 1.390 . S
C1637 H1641 0.950 . S
H1638 C1634 0.950 . S
C1639 C1637 1.390 . S
C1639 C1640 1.387 . S
C1639 H1642 0.950 . S
C1640 C1639 1.387 . S
C1640 C1643 1.387 . S
H1641 C1637 0.950 . S
H1642 C1639 0.950 . S
C1643 C1634 1.390 . S
C1643 H1636 0.950 . S
C1643 C1640 1.387 . S
C1644 C1645 1.387 . S
C1644 H1648 0.950 . S
C1644 C1653 1.390 . S
C1645 C1644 1.387 . S
C1645 C1647 1.387 . S
H1646 C1653 0.950 . S
C1647 C1645 1.387 . S
C1647 C1649 1.390 . S
C1647 H1651 0.950 . S
H1648 C1644 0.950 . S
C1649 C1647 1.390 . S
C1649 C1650 1.387 . S
C1649 H1652 0.950 . S
C1650 C1649 1.387 . S
C1650 C1653 1.387 . S
H1651 C1647 0.950 . S
H1652 C1649 0.950 . S
C1653 C1644 1.390 . S
C1653 H1646 0.950 . S
C1653 C1650 1.387 . S
C1654 C1655 1.387 . S
C1654 H1658 0.950 . S
C1654 C1663 1.390 . S
C1655 C1654 1.387 . S
C1655 C1657 1.387 . S
H1656 C1663 0.950 . S
C1657 C1655 1.387 . S
C1657 C1659 1.390 . S
C1657 H1661 0.950 . S
H1658 C1654 0.950 . S
C1659 C1657 1.390 . S
C1659 C1660 1.387 . S
C1659 H1662 0.950 . S
C1660 C1659 1.387 . S
C1660 C1663 1.387 . S
H1661 C1657 0.950 . S
H1662 C1659 0.950 . S
C1663 C1654 1.390 . S
C1663 H1656 0.950 . S
C1663 C1660 1.387 . S
C1664 C1665 1.387 . S
C1664 H1668 0.950 . S
C1664 C1673 1.390 . S
C1665 C1664 1.387 . S
C1665 C1667 1.387 1_545 S
H1666 C1673 0.950 . S
C1667 C1665 1.387 1_565 S
C1667 C1669 1.363 1_565 S
C1667 H1671 0.950 . S
H1668 C1664 0.950 . S
C1669 C1667 1.363 1_545 S
C1669 C1670 1.448 . S
C1669 H1672 0.918 1_545 S
C1670 C1669 1.448 . S
C1670 C1673 1.387 . S
H1671 C1667 0.950 . S
H1672 C1669 0.918 1_565 S
C1673 C1664 1.390 . S
C1673 H1666 0.950 . S
C1673 C1670 1.387 . S
C1674 C1675 1.387 . S
C1674 H1678 0.950 . S
C1674 C1683 1.390 . S
C1675 C1674 1.387 . S
C1675 C1677 1.387 . S
H1676 C1683 0.950 . S
C1677 C1675 1.387 . S
C1677 C1679 1.390 . S
C1677 H1681 0.950 . S
H1678 C1674 0.950 . S
C1679 C1677 1.390 . S
C1679 C1680 1.387 . S
C1679 H1682 0.950 . S
C1680 C1679 1.387 . S
C1680 C1683 1.387 . S
H1681 C1677 0.950 . S
H1682 C1679 0.950 . S
C1683 C1674 1.390 . S
C1683 H1676 0.950 . S
C1683 C1680 1.387 . S
C1684 C1685 1.387 . S
C1684 H1688 0.950 . S
C1684 C1693 1.390 . S
C1685 C1684 1.387 . S
C1685 C1687 1.387 1_565 S
H1686 C1693 0.950 . S
C1687 C1685 1.387 1_545 S
C1687 C1689 1.390 1_545 S
C1687 H1691 0.950 . S
H1688 C1684 0.950 . S
C1689 C1687 1.390 1_565 S
C1689 C1690 1.387 . S
C1689 H1692 0.950 1_565 S
C1690 C1689 1.387 . S
C1690 C1693 1.387 . S
H1691 C1687 0.950 . S
H1692 C1689 0.950 1_545 S
C1693 C1684 1.390 . S
C1693 H1686 0.950 . S
C1693 C1690 1.387 . S
C1694 C1695 1.387 . S
C1694 H1698 0.950 . S
C1694 C1703 1.390 . S
C1695 C1694 1.387 . S
C1695 C1697 1.387 . S
H1696 C1703 0.950 . S
C1697 C1695 1.387 . S
C1697 C1699 1.390 . S
C1697 H1701 0.950 . S
H1698 C1694 0.950 . S
C1699 C1697 1.390 . S
C1699 C1700 1.387 . S
C1699 H1702 0.950 . S
C1700 C1699 1.387 . S
C1700 C1703 1.387 . S
H1701 C1697 0.950 . S
H1702 C1699 0.950 . S
C1703 C1694 1.390 . S
C1703 H1696 0.950 . S
C1703 C1700 1.387 . S
C1704 C1705 1.387 1_545 S
C1704 H1708 0.950 . S
C1704 C1713 1.390 1_545 S
C1705 C1704 1.387 1_565 S
C1705 C1707 1.387 . S
H1706 C1713 0.950 1_545 S
C1707 C1705 1.387 . S
C1707 C1709 1.390 . S
C1707 H1711 0.950 . S
H1708 C1704 0.950 . S
C1709 C1707 1.390 . S
C1709 C1710 1.387 . S
C1709 H1712 0.950 . S
C1710 C1709 1.387 . S
C1710 C1713 1.387 . S
H1711 C1707 0.950 . S
H1712 C1709 0.950 . S
C1713 C1704 1.390 1_565 S
C1713 H1706 0.950 1_565 S
C1713 C1710 1.387 . S
C1714 C1715 1.387 . S
C1714 H1718 0.950 . S
C1714 C1723 1.390 . S
C1715 C1714 1.387 . S
C1715 C1717 1.387 . S
H1716 C1723 0.950 . S
C1717 C1715 1.387 . S
C1717 C1719 1.390 . S
C1717 H1721 0.950 . S
H1718 C1714 0.950 . S
C1719 C1717 1.390 . S
C1719 C1720 1.387 . S
C1719 H1722 0.950 . S
C1720 C1719 1.387 . S
C1720 C1723 1.387 . S
H1721 C1717 0.950 . S
H1722 C1719 0.950 . S
C1723 C1714 1.390 . S
C1723 H1716 0.950 . S
C1723 C1720 1.387 . S
C1724 C1725 1.387 . S
C1724 H1728 0.950 1_545 S
C1724 C1733 1.390 1_545 S
C1725 C1724 1.387 . S
C1725 C1727 1.387 . S
H1726 C1733 0.950 . S
C1727 C1725 1.387 . S
C1727 C1729 1.390 . S
C1727 H1731 0.950 . S
H1728 C1724 0.950 1_565 S
C1729 C1727 1.390 . S
C1729 C1730 1.387 . S
C1729 H1732 0.950 . S
C1730 C1729 1.387 . S
C1730 C1733 1.387 1_545 S
H1731 C1727 0.950 . S
H1732 C1729 0.950 . S
C1733 C1724 1.390 1_565 S
C1733 H1726 0.950 . S
C1733 C1730 1.387 1_565 S
C1734 C1735 1.387 . S
C1734 H1738 0.950 . S
C1734 C1743 1.390 . S
C1735 C1734 1.387 . S
C1735 C1737 1.387 . S
H1736 C1743 0.950 . S
C1737 C1735 1.387 . S
C1737 C1739 1.390 . S
C1737 H1741 0.950 . S
H1738 C1734 0.950 . S
C1739 C1737 1.390 . S
C1739 C1740 1.387 . S
C1739 H1742 0.950 . S
C1740 C1739 1.387 . S
C1740 C1743 1.387 . S
H1741 C1737 0.950 . S
H1742 C1739 0.950 . S
C1743 C1734 1.390 . S
C1743 H1736 0.950 . S
C1743 C1740 1.387 . S
C1744 C1745 1.387 . S
C1744 H1748 0.950 1_554 S
C1744 C1753 1.390 1_554 S
C1745 C1744 1.387 . S
C1745 C1747 1.387 . S
H1746 C1753 0.950 . S
C1747 C1745 1.387 . S
C1747 C1749 1.390 . S
C1747 H1751 0.950 . S
H1748 C1744 0.950 1_556 S
C1749 C1747 1.390 . S
C1749 C1750 1.387 . S
C1749 H1752 0.950 . S
C1750 C1749 1.387 . S
C1750 C1753 1.387 1_554 S
H1751 C1747 0.950 . S
H1752 C1749 0.950 . S
C1753 C1744 1.390 1_556 S
C1753 H1746 0.950 . S
C1753 C1750 1.387 1_556 S
C1754 C1755 1.387 . S
C1754 H1758 0.950 . S
C1754 C1763 1.390 . S
C1755 C1754 1.387 . S
C1755 C1757 1.387 . S
H1756 C1763 0.950 . S
C1757 C1755 1.387 . S
C1757 C1759 1.390 . S
C1757 H1761 0.950 . S
H1758 C1754 0.950 . S
C1759 C1757 1.390 . S
C1759 C1760 1.387 . S
C1759 H1762 0.950 . S
C1760 C1759 1.387 . S
C1760 C1763 1.387 . S
H1761 C1757 0.950 . S
H1762 C1759 0.950 . S
C1763 C1754 1.390 . S
C1763 H1756 0.950 . S
C1763 C1760 1.387 . S
C1764 C1765 1.387 . S
C1764 H1768 0.950 . S
C1764 C1773 1.390 . S
C1765 C1764 1.387 . S
C1765 C1767 1.387 . S
H1766 C1773 0.950 . S
C1767 C1765 1.387 . S
C1767 C1769 1.390 . S
C1767 H1771 0.950 . S
H1768 C1764 0.950 . S
C1769 C1767 1.390 . S
C1769 C1770 1.387 . S
C1769 H1772 0.950 . S
C1770 C1769 1.387 . S
C1770 C1773 1.387 . S
H1771 C1767 0.950 . S
H1772 C1769 0.950 . S
C1773 C1764 1.390 . S
C1773 H1766 0.950 . S
C1773 C1770 1.387 . S
C1774 C1775 1.387 . S
C1774 H1778 0.950 . S
C1774 C1783 1.390 . S
C1775 C1774 1.387 . S
C1775 C1777 1.387 . S
H1776 C1783 0.950 . S
C1777 C1775 1.387 . S
C1777 C1779 1.390 . S
C1777 H1781 0.950 . S
H1778 C1774 0.950 . S
C1779 C1777 1.390 . S
C1779 C1780 1.387 . S
C1779 H1782 0.950 . S
C1780 C1779 1.387 . S
C1780 C1783 1.387 . S
H1781 C1777 0.950 . S
H1782 C1779 0.950 . S
C1783 C1774 1.390 . S
C1783 H1776 0.950 . S
C1783 C1780 1.387 . S
C1784 C1785 1.387 . S
C1784 H1788 0.950 . S
C1784 C1793 1.390 . S
C1785 C1784 1.387 . S
C1785 C1787 1.387 . S
H1786 C1793 0.950 . S
C1787 C1785 1.387 . S
C1787 C1789 1.390 . S
C1787 H1791 0.950 . S
H1788 C1784 0.950 . S
C1789 C1787 1.390 . S
C1789 C1790 1.387 . S
C1789 H1792 0.950 . S
C1790 C1789 1.387 . S
C1790 C1793 1.387 . S
H1791 C1787 0.950 . S
H1792 C1789 0.950 . S
C1793 C1784 1.390 . S
C1793 H1786 0.950 . S
C1793 C1790 1.387 . S
C1794 C1795 1.387 . S
C1794 H1798 0.950 . S
C1794 C1803 1.390 . S
C1795 C1794 1.387 . S
C1795 C1797 1.387 . S
H1796 C1803 0.950 . S
C1797 C1795 1.387 . S
C1797 C1799 1.390 . S
C1797 H1801 0.950 . S
H1798 C1794 0.950 . S
C1799 C1797 1.390 . S
C1799 C1800 1.387 . S
C1799 H1802 0.950 . S
C1800 C1799 1.387 . S
C1800 C1803 1.387 . S
H1801 C1797 0.950 . S
H1802 C1799 0.950 . S
C1803 C1794 1.390 . S
C1803 H1796 0.950 . S
C1803 C1800 1.387 . S
C1804 C1805 1.387 . S
C1804 H1808 0.950 . S
C1804 C1813 1.390 . S
C1805 C1804 1.387 . S
C1805 C1807 1.387 . S
H1806 C1813 0.950 . S
C1807 C1805 1.387 . S
C1807 C1809 1.390 . S
C1807 H1811 0.950 . S
H1808 C1804 0.950 . S
C1809 C1807 1.390 . S
C1809 C1810 1.387 . S
C1809 H1812 0.950 . S
C1810 C1809 1.387 . S
C1810 C1813 1.387 . S
H1811 C1807 0.950 . S
H1812 C1809 0.950 . S
C1813 C1804 1.390 . S
C1813 H1806 0.950 . S
C1813 C1810 1.387 . S
C1814 C1815 1.387 . S
C1814 H1818 0.950 . S
C1814 C1823 1.390 . S
C1815 C1814 1.387 . S
C1815 C1817 1.387 . S
H1816 C1823 0.950 . S
C1817 C1815 1.387 . S
C1817 C1819 1.390 . S
C1817 H1821 0.950 . S
H1818 C1814 0.950 . S
C1819 C1817 1.390 . S
C1819 C1820 1.387 . S
C1819 H1822 0.950 . S
C1820 C1819 1.387 . S
C1820 C1823 1.387 . S
H1821 C1817 0.950 . S
H1822 C1819 0.950 . S
C1823 C1814 1.390 . S
C1823 H1816 0.950 . S
C1823 C1820 1.387 . S
C1824 C1825 1.387 . S
C1824 H1828 0.950 . S
C1824 C1833 1.390 . S
C1825 C1824 1.387 . S
C1825 C1827 1.387 . S
H1826 C1833 0.950 . S
C1827 C1825 1.387 . S
C1827 C1829 1.390 . S
C1827 H1831 0.950 . S
H1828 C1824 0.950 . S
C1829 C1827 1.390 . S
C1829 C1830 1.387 . S
C1829 H1832 0.950 . S
C1830 C1829 1.387 . S
C1830 C1833 1.387 . S
H1831 C1827 0.950 . S
H1832 C1829 0.950 . S
C1833 C1824 1.390 . S
C1833 H1826 0.950 . S
C1833 C1830 1.387 . S
C1834 C1835 1.387 . S
C1834 H1838 0.950 . S
C1834 C1843 1.390 . S
C1835 C1834 1.387 . S
C1835 C1837 1.387 . S
H1836 C1843 0.950 . S
C1837 C1835 1.387 . S
C1837 C1839 1.390 . S
C1837 H1841 0.950 . S
H1838 C1834 0.950 . S
C1839 C1837 1.390 . S
C1839 C1840 1.387 . S
C1839 H1842 0.950 . S
C1840 C1839 1.387 . S
C1840 C1843 1.387 . S
H1841 C1837 0.950 . S
H1842 C1839 0.950 . S
C1843 C1834 1.390 . S
C1843 H1836 0.950 . S
C1843 C1840 1.387 . S
C1844 C1845 1.387 . S
C1844 H1848 0.950 . S
C1844 C1853 1.390 . S
C1845 C1844 1.387 . S
C1845 C1847 1.387 . S
H1846 C1853 0.950 . S
C1847 C1845 1.387 . S
C1847 C1849 1.390 . S
C1847 H1851 0.950 . S
H1848 C1844 0.950 . S
C1849 C1847 1.390 . S
C1849 C1850 1.387 . S
C1849 H1852 0.950 1_655 S
C1850 C1849 1.387 . S
C1850 C1853 1.387 . S
H1851 C1847 0.950 . S
H1852 C1849 0.950 1_455 S
C1853 C1844 1.390 . S
C1853 H1846 0.950 . S
C1853 C1850 1.387 . S
C1854 C1855 1.387 . S
C1854 H1858 0.950 . S
C1854 C1863 1.390 . S
C1855 C1854 1.387 . S
C1855 C1857 1.387 . S
H1856 C1863 0.950 . S
C1857 C1855 1.387 . S
C1857 C1859 1.390 . S
C1857 H1861 0.950 . S
H1858 C1854 0.950 . S
C1859 C1857 1.390 . S
C1859 C1860 1.387 . S
C1859 H1862 0.950 . S
C1860 C1859 1.387 . S
C1860 C1863 1.387 . S
H1861 C1857 0.950 . S
H1862 C1859 0.950 . S
C1863 C1854 1.390 . S
C1863 H1856 0.950 . S
C1863 C1860 1.387 . S
C1864 C1865 1.387 . S
C1864 H1868 0.950 . S
C1864 C1873 1.390 . S
C1865 C1864 1.387 . S
C1865 C1867 1.387 . S
H1866 C1873 0.950 . S
C1867 C1865 1.387 . S
C1867 C1869 1.390 . S
C1867 H1871 0.950 . S
H1868 C1864 0.950 . S
C1869 C1867 1.390 . S
C1869 C1870 1.387 . S
C1869 H1872 0.950 . S
C1870 C1869 1.387 . S
C1870 C1873 1.387 . S
H1871 C1867 0.950 . S
H1872 C1869 0.950 . S
C1873 C1864 1.390 . S
C1873 H1866 0.950 . S
C1873 C1870 1.387 . S
C1874 C1875 1.387 . S
C1874 H1878 0.950 . S
C1874 C1883 1.390 . S
C1875 C1874 1.387 . S
C1875 C1877 1.387 . S
H1876 C1883 0.950 . S
C1877 C1875 1.387 . S
C1877 C1879 1.390 . S
C1877 H1881 0.950 . S
H1878 C1874 0.950 . S
C1879 C1877 1.390 . S
C1879 C1880 1.387 . S
C1879 H1882 0.950 . S
C1880 C1879 1.387 . S
C1880 C1883 1.387 . S
H1881 C1877 0.950 . S
H1882 C1879 0.950 . S
C1883 C1874 1.390 . S
C1883 H1876 0.950 . S
C1883 C1880 1.387 . S
C1884 C1885 1.387 . S
C1884 H1888 0.950 1_655 S
C1884 C1893 1.390 1_655 S
C1885 C1884 1.387 . S
C1885 C1887 1.387 . S
H1886 C1893 0.950 . S
C1887 C1885 1.387 . S
C1887 C1889 1.390 . S
C1887 H1891 0.950 . S
H1888 C1884 0.950 1_455 S
C1889 C1887 1.390 . S
C1889 C1890 1.387 . S
C1889 H1892 0.950 . S
C1890 C1889 1.387 . S
C1890 C1893 1.387 1_655 S
H1891 C1887 0.950 . S
H1892 C1889 0.950 . S
C1893 C1884 1.390 1_455 S
C1893 H1886 0.950 . S
C1893 C1890 1.387 1_455 S
C1894 C1895 1.387 . S
C1894 H1898 0.950 . S
C1894 C1903 1.390 . S
C1895 C1894 1.387 . S
C1895 C1897 1.387 . S
H1896 C1903 0.950 . S
C1897 C1895 1.387 . S
C1897 C1899 1.390 . S
C1897 H1901 0.950 . S
H1898 C1894 0.950 . S
C1899 C1897 1.390 . S
C1899 C1900 1.387 . S
C1899 H1902 0.950 . S
C1900 C1899 1.387 . S
C1900 C1903 1.387 . S
H1901 C1897 0.950 . S
H1902 C1899 0.950 . S
C1903 C1894 1.390 . S
C1903 H1896 0.950 . S
C1903 C1900 1.387 . S
C1904 C1905 1.387 . S
C1904 H1908 0.950 . S
C1904 C1913 1.390 . S
C1905 C1904 1.387 . S
C1905 C1907 1.387 . S
H1906 C1913 0.950 . S
C1907 C1905 1.387 . S
C1907 C1909 1.390 . S
C1907 H1911 0.950 . S
H1908 C1904 0.950 . S
C1909 C1907 1.390 . S
C1909 C1910 1.387 . S
C1909 H1912 0.950 . S
C1910 C1909 1.387 . S
C1910 C1913 1.387 . S
H1911 C1907 0.950 . S
H1912 C1909 0.950 . S
C1913 C1904 1.390 . S
C1913 H1906 0.950 . S
C1913 C1910 1.387 . S
C1914 C1915 1.387 . S
C1914 H1918 0.950 . S
C1914 C1923 1.390 . S
C1915 C1914 1.387 . S
C1915 C1917 1.387 . S
H1916 C1923 0.950 . S
C1917 C1915 1.387 . S
C1917 C1919 1.390 . S
C1917 H1921 0.950 . S
H1918 C1914 0.950 . S
C1919 C1917 1.390 . S
C1919 C1920 1.387 . S
C1919 H1922 0.950 . S
C1920 C1919 1.387 . S
C1920 C1923 1.387 . S
H1921 C1917 0.950 . S
H1922 C1919 0.950 . S
C1923 C1914 1.390 . S
C1923 H1916 0.950 . S
C1923 C1920 1.387 . S
C1924 C1925 1.387 . S
C1924 H1928 0.950 . S
C1924 C1933 1.390 . S
C1925 C1924 1.387 . S
C1925 C1927 1.387 . S
H1926 C1933 0.950 . S
C1927 C1925 1.387 . S
C1927 C1929 1.390 . S
C1927 H1931 0.950 . S
H1928 C1924 0.950 . S
C1929 C1927 1.390 . S
C1929 C1930 1.387 . S
C1929 H1932 0.950 . S
C1930 C1929 1.387 . S
C1930 C1933 1.387 . S
H1931 C1927 0.950 . S
H1932 C1929 0.950 . S
C1933 C1924 1.390 . S
C1933 H1926 0.950 . S
C1933 C1930 1.387 . S
C1934 C1935 1.387 . S
C1934 H1938 0.950 . S
C1934 C1943 1.390 . S
C1935 C1934 1.387 . S
C1935 C1937 1.387 . S
H1936 C1943 0.950 . S
C1937 C1935 1.387 . S
C1937 C1939 1.390 . S
C1937 H1941 0.950 . S
H1938 C1934 0.950 . S
C1939 C1937 1.390 . S
C1939 C1940 1.387 . S
C1939 H1942 0.950 . S
C1940 C1939 1.387 . S
C1940 C1943 1.387 . S
H1941 C1937 0.950 . S
H1942 C1939 0.950 . S
C1943 C1934 1.390 . S
C1943 H1936 0.950 . S
C1943 C1940 1.387 . S
C1944 C1945 1.387 . S
C1944 H1948 0.950 . S
C1944 C1953 1.390 . S
C1945 C1944 1.387 . S
C1945 C1947 1.387 . S
H1946 C1953 0.950 . S
C1947 C1945 1.387 . S
C1947 C1949 1.390 . S
C1947 H1951 0.950 . S
H1948 C1944 0.950 . S
C1949 C1947 1.390 . S
C1949 C1950 1.387 . S
C1949 H1952 0.950 . S
C1950 C1949 1.387 . S
C1950 C1953 1.387 . S
H1951 C1947 0.950 . S
H1952 C1949 0.950 . S
C1953 C1944 1.390 . S
C1953 H1946 0.950 . S
C1953 C1950 1.387 . S
C1954 C1955 1.387 . S
C1954 H1958 0.950 . S
C1954 C1963 1.390 . S
C1955 C1954 1.387 . S
C1955 C1957 1.387 . S
H1956 C1963 0.950 . S
C1957 C1955 1.387 . S
C1957 C1959 1.390 . S
C1957 H1961 0.950 . S
H1958 C1954 0.950 . S
C1959 C1957 1.390 . S
C1959 C1960 1.387 . S
C1959 H1962 0.950 . S
C1960 C1959 1.387 . S
C1960 C1963 1.387 . S
H1961 C1957 0.950 . S
H1962 C1959 0.950 . S
C1963 C1954 1.390 . S
C1963 H1956 0.950 . S
C1963 C1960 1.387 . S
C1964 C1965 1.387 . S
C1964 H1968 0.950 . S
C1964 C1973 1.390 . S
C1965 C1964 1.387 . S
C1965 C1967 1.387 . S
H1966 C1973 0.950 . S
C1967 C1965 1.387 . S
C1967 C1969 1.390 . S
C1967 H1971 0.950 . S
H1968 C1964 0.950 . S
C1969 C1967 1.390 . S
C1969 C1970 1.387 . S
C1969 H1972 0.950 . S
C1970 C1969 1.387 . S
C1970 C1973 1.387 . S
H1971 C1967 0.950 . S
H1972 C1969 0.950 . S
C1973 C1964 1.390 . S
C1973 H1966 0.950 . S
C1973 C1970 1.387 . S
C1974 C1975 1.387 . S
C1974 H1978 0.950 . S
C1974 C1983 1.390 . S
C1975 C1974 1.387 . S
C1975 C1977 1.387 . S
H1976 C1983 0.950 . S
C1977 C1975 1.387 . S
C1977 C1979 1.390 . S
C1977 H1981 0.950 . S
H1978 C1974 0.950 . S
C1979 C1977 1.390 . S
C1979 C1980 1.387 . S
C1979 H1982 0.950 . S
C1980 C1979 1.387 . S
C1980 C1983 1.387 . S
H1981 C1977 0.950 . S
H1982 C1979 0.950 . S
C1983 C1974 1.390 . S
C1983 H1976 0.950 . S
C1983 C1980 1.387 . S
C1984 C1985 1.387 . S
C1984 H1988 0.950 . S
C1984 C1993 1.390 . S
C1985 C1984 1.387 . S
C1985 C1987 1.387 . S
H1986 C1993 0.950 . S
C1987 C1985 1.387 . S
C1987 C1989 1.390 . S
C1987 H1991 0.950 . S
H1988 C1984 0.950 . S
C1989 C1987 1.390 . S
C1989 C1990 1.387 . S
C1989 H1992 0.950 . S
C1990 C1989 1.387 . S
C1990 C1993 1.387 . S
H1991 C1987 0.950 . S
H1992 C1989 0.950 . S
C1993 C1984 1.390 . S
C1993 H1986 0.950 . S
C1993 C1990 1.387 . S
C1994 C1995 1.387 . S
C1994 H1998 0.950 . S
C1994 C2003 1.390 . S
C1995 C1994 1.387 . S
C1995 C1997 1.387 . S
H1996 C2003 0.950 . S
C1997 C1995 1.387 . S
C1997 C1999 1.390 . S
C1997 H2001 0.950 . S
H1998 C1994 0.950 . S
C1999 C1997 1.390 . S
C1999 C2000 1.387 . S
C1999 H2002 0.950 . S
C2000 C1999 1.387 . S
C2000 C2003 1.387 . S
H2001 C1997 0.950 . S
H2002 C1999 0.950 . S
C2003 C1994 1.390 . S
C2003 H1996 0.950 . S
C2003 C2000 1.387 . S
C2004 C2005 1.387 . S
C2004 H2008 0.950 . S
C2004 C2013 1.390 . S
C2005 C2004 1.387 . S
C2005 C2007 1.387 . S
H2006 C2013 0.950 . S
C2007 C2005 1.387 . S
C2007 C2009 1.390 . S
C2007 H2011 0.950 . S
H2008 C2004 0.950 . S
C2009 C2007 1.390 . S
C2009 C2010 1.387 . S
C2009 H2012 0.950 . S
C2010 C2009 1.387 . S
C2010 C2013 1.387 . S
H2011 C2007 0.950 . S
H2012 C2009 0.950 . S
C2013 C2004 1.390 . S
C2013 H2006 0.950 . S
C2013 C2010 1.387 . S
C2014 C2015 1.387 . S
C2014 H2018 0.950 . S
C2014 C2023 1.379 1_556 S
C2015 C2014 1.387 . S
C2015 C2017 1.387 . S
H2016 C2023 0.964 . S
C2017 C2015 1.387 . S
C2017 C2019 1.390 . S
C2017 H2021 0.950 . S
H2018 C2014 0.950 . S
C2019 C2017 1.390 . S
C2019 C2020 1.387 . S
C2019 H2022 0.950 . S
C2020 C2019 1.387 . S
C2020 C2023 1.384 1_556 S
H2021 C2017 0.950 . S
H2022 C2019 0.950 . S
C2023 C2014 1.379 1_554 S
C2023 H2016 0.964 . S
C2023 C2020 1.384 1_554 S
C2024 C2025 1.387 . S
C2024 H2028 0.950 . S
C2024 C2033 1.390 . S
C2025 C2024 1.387 . S
C2025 C2027 1.387 . S
H2026 C2033 0.950 . S
C2027 C2025 1.387 . S
C2027 C2029 1.390 . S
C2027 H2031 0.950 . S
H2028 C2024 0.950 . S
C2029 C2027 1.390 . S
C2029 C2030 1.387 . S
C2029 H2032 0.950 . S
C2030 C2029 1.387 . S
C2030 C2033 1.387 . S
H2031 C2027 0.950 . S
H2032 C2029 0.950 . S
C2033 C2024 1.390 . S
C2033 H2026 0.950 . S
C2033 C2030 1.387 . S
C2034 C2035 1.387 . S
C2034 H2038 0.950 . S
C2034 C2043 1.390 . S
C2035 C2034 1.387 . S
C2035 C2037 1.387 1_554 S
H2036 C2043 0.950 . S
C2037 C2035 1.387 1_556 S
C2037 C2039 1.390 1_556 S
C2037 H2041 0.950 . S
H2038 C2034 0.950 . S
C2039 C2037 1.390 1_554 S
C2039 C2040 1.387 . S
C2039 H2042 0.950 1_554 S
C2040 C2039 1.387 . S
C2040 C2043 1.387 . S
H2041 C2037 0.950 . S
H2042 C2039 0.950 1_556 S
C2043 C2034 1.390 . S
C2043 H2036 0.950 . S
C2043 C2040 1.387 . S
C2044 C2045 1.387 . S
C2044 H2048 0.950 . S
C2044 C2053 1.390 . S
C2045 C2044 1.387 . S
C2045 C2047 1.387 . S
H2046 C2053 0.950 . S
C2047 C2045 1.387 . S
C2047 C2049 1.390 . S
C2047 H2051 0.950 . S
H2048 C2044 0.950 . S
C2049 C2047 1.390 . S
C2049 C2050 1.387 . S
C2049 H2052 0.950 . S
C2050 C2049 1.387 . S
C2050 C2053 1.387 . S
H2051 C2047 0.950 . S
H2052 C2049 0.950 . S
C2053 C2044 1.390 . S
C2053 H2046 0.950 . S
C2053 C2050 1.387 . S
C2054 C2055 1.387 . S
C2054 H2058 0.950 . S
C2054 C2063 1.390 . S
C2055 C2054 1.387 . S
C2055 C2057 1.387 . S
H2056 C2063 0.950 . S
C2057 C2055 1.387 . S
C2057 C2059 1.390 . S
C2057 H2061 0.950 . S
H2058 C2054 0.950 . S
C2059 C2057 1.390 . S
C2059 C2060 1.387 . S
C2059 H2062 0.950 . S
C2060 C2059 1.387 . S
C2060 C2063 1.387 . S
H2061 C2057 0.950 . S
H2062 C2059 0.950 . S
C2063 C2054 1.390 . S
C2063 H2056 0.950 . S
C2063 C2060 1.387 . S
C2064 C2065 1.387 . S
C2064 H2068 0.950 . S
C2064 C2073 1.390 . S
C2065 C2064 1.387 . S
C2065 C2067 1.387 . S
H2066 C2073 0.950 . S
C2067 C2065 1.387 . S
C2067 C2069 1.390 . S
C2067 H2071 0.950 . S
H2068 C2064 0.950 . S
C2069 C2067 1.390 . S
C2069 C2070 1.387 . S
C2069 H2072 0.950 . S
C2070 C2069 1.387 . S
C2070 C2073 1.387 . S
H2071 C2067 0.950 . S
H2072 C2069 0.950 . S
C2073 C2064 1.390 . S
C2073 H2066 0.950 . S
C2073 C2070 1.387 . S
C2074 C2075 1.387 . S
C2074 H2078 0.950 . S
C2074 C2083 1.390 . S
C2075 C2074 1.387 . S
C2075 C2077 1.387 . S
H2076 C2083 0.950 . S
C2077 C2075 1.387 . S
C2077 C2079 1.390 . S
C2077 H2081 0.950 . S
H2078 C2074 0.950 . S
C2079 C2077 1.390 . S
C2079 C2080 1.387 . S
C2079 H2082 0.950 . S
C2080 C2079 1.387 . S
C2080 C2083 1.387 . S
H2081 C2077 0.950 . S
H2082 C2079 0.950 . S
C2083 C2074 1.390 . S
C2083 H2076 0.950 . S
C2083 C2080 1.387 . S
C2084 C2085 1.387 . S
C2084 H2088 0.950 . S
C2084 C2093 1.390 . S
C2085 C2084 1.387 . S
C2085 C2087 1.387 . S
H2086 C2093 0.950 . S
C2087 C2085 1.387 . S
C2087 C2089 1.390 . S
C2087 H2091 0.950 . S
H2088 C2084 0.950 . S
C2089 C2087 1.390 . S
C2089 C2090 1.387 . S
C2089 H2092 0.950 . S
C2090 C2089 1.387 . S
C2090 C2093 1.387 . S
H2091 C2087 0.950 . S
H2092 C2089 0.950 . S
C2093 C2084 1.390 . S
C2093 H2086 0.950 . S
C2093 C2090 1.387 . S
C2094 C2095 1.387 . S
C2094 H2098 0.950 . S
C2094 C2103 1.390 . S
C2095 C2094 1.387 . S
C2095 C2097 1.387 . S
H2096 C2103 0.950 . S
C2097 C2095 1.387 . S
C2097 C2099 1.390 . S
C2097 H2101 0.950 . S
H2098 C2094 0.950 . S
C2099 C2097 1.390 . S
C2099 C2100 1.387 . S
C2099 H2102 0.950 . S
C2100 C2099 1.387 . S
C2100 C2103 1.387 . S
H2101 C2097 0.950 . S
H2102 C2099 0.950 . S
C2103 C2094 1.390 . S
C2103 H2096 0.950 . S
C2103 C2100 1.387 . S
C2104 C2105 1.387 . S
C2104 H2108 0.950 . S
C2104 C2113 1.390 . S
C2105 C2104 1.387 . S
C2105 C2107 1.387 . S
H2106 C2113 0.950 . S
C2107 C2105 1.387 . S
C2107 C2109 1.390 . S
C2107 H2111 0.950 . S
H2108 C2104 0.950 . S
C2109 C2107 1.390 . S
C2109 C2110 1.387 . S
C2109 H2112 0.950 . S
C2110 C2109 1.387 . S
C2110 C2113 1.387 . S
H2111 C2107 0.950 . S
H2112 C2109 0.950 . S
C2113 C2104 1.390 . S
C2113 H2106 0.950 . S
C2113 C2110 1.387 . S
C2114 C2115 1.387 . S
C2114 H2118 0.950 . S
C2114 C2123 1.390 . S
C2115 C2114 1.387 . S
C2115 C2117 1.387 . S
H2116 C2123 0.950 . S
C2117 C2115 1.387 . S
C2117 C2119 1.390 . S
C2117 H2121 0.950 . S
H2118 C2114 0.950 . S
C2119 C2117 1.390 . S
C2119 C2120 1.387 . S
C2119 H2122 0.950 . S
C2120 C2119 1.387 . S
C2120 C2123 1.387 . S
H2121 C2117 0.950 . S
H2122 C2119 0.950 . S
C2123 C2114 1.390 . S
C2123 H2116 0.950 . S
C2123 C2120 1.387 . S
C2124 C2125 1.387 . S
C2124 H2128 0.950 . S
C2124 C2133 1.390 . S
C2125 C2124 1.387 . S
C2125 C2127 1.387 . S
H2126 C2133 0.950 . S
C2127 C2125 1.387 . S
C2127 C2129 1.390 . S
C2127 H2131 0.950 . S
H2128 C2124 0.950 . S
C2129 C2127 1.390 . S
C2129 C2130 1.387 . S
C2129 H2132 0.950 . S
C2130 C2129 1.387 . S
C2130 C2133 1.387 . S
H2131 C2127 0.950 . S
H2132 C2129 0.950 . S
C2133 C2124 1.390 . S
C2133 H2126 0.950 . S
C2133 C2130 1.387 . S
C2134 C2135 1.387 . S
C2134 H2138 0.950 . S
C2134 C2143 1.390 . S
C2135 C2134 1.387 . S
C2135 C2137 1.387 . S
H2136 C2143 0.950 . S
C2137 C2135 1.387 . S
C2137 C2139 1.390 . S
C2137 H2141 0.950 . S
H2138 C2134 0.950 . S
C2139 C2137 1.390 . S
C2139 C2140 1.387 . S
C2139 H2142 0.950 . S
C2140 C2139 1.387 . S
C2140 C2143 1.387 . S
H2141 C2137 0.950 . S
H2142 C2139 0.950 . S
C2143 C2134 1.390 . S
C2143 H2136 0.950 . S
C2143 C2140 1.387 . S
C2144 C2145 1.387 . S
C2144 H2148 0.950 . S
C2144 C2153 1.390 . S
C2145 C2144 1.387 . S
C2145 C2147 1.387 . S
H2146 C2153 0.950 . S
C2147 C2145 1.387 . S
C2147 C2149 1.390 . S
C2147 H2151 0.950 . S
H2148 C2144 0.950 . S
C2149 C2147 1.390 . S
C2149 C2150 1.387 . S
C2149 H2152 0.950 . S
C2150 C2149 1.387 . S
C2150 C2153 1.387 . S
H2151 C2147 0.950 . S
H2152 C2149 0.950 . S
C2153 C2144 1.390 . S
C2153 H2146 0.950 . S
C2153 C2150 1.387 . S
C2154 C2155 1.387 . S
C2154 H2158 0.950 . S
C2154 C2163 1.390 . S
C2155 C2154 1.387 . S
C2155 C2157 1.387 . S
H2156 C2163 0.950 . S
C2157 C2155 1.387 . S
C2157 C2159 1.390 . S
C2157 H2161 0.950 . S
H2158 C2154 0.950 . S
C2159 C2157 1.390 . S
C2159 C2160 1.387 . S
C2159 H2162 0.950 . S
C2160 C2159 1.387 . S
C2160 C2163 1.387 . S
H2161 C2157 0.950 . S
H2162 C2159 0.950 . S
C2163 C2154 1.390 . S
C2163 H2156 0.950 . S
C2163 C2160 1.387 . S
C2164 C2165 1.387 . S
C2164 H2168 0.950 . S
C2164 C2173 1.390 . S
C2165 C2164 1.387 . S
C2165 C2167 1.387 . S
H2166 C2173 0.950 . S
C2167 C2165 1.387 . S
C2167 C2169 1.390 . S
C2167 H2171 0.950 . S
H2168 C2164 0.950 . S
C2169 C2167 1.390 . S
C2169 C2170 1.387 . S
C2169 H2172 0.950 . S
C2170 C2169 1.387 . S
C2170 C2173 1.387 . S
H2171 C2167 0.950 . S
H2172 C2169 0.950 . S
C2173 C2164 1.390 . S
C2173 H2166 0.950 . S
C2173 C2170 1.387 . S
C2174 C2175 1.387 . S
C2174 H2178 0.950 . S
C2174 C2183 1.390 . S
C2175 C2174 1.387 . S
C2175 C2177 1.387 . S
H2176 C2183 0.950 . S
C2177 C2175 1.387 . S
C2177 C2179 1.390 . S
C2177 H2181 0.950 . S
H2178 C2174 0.950 . S
C2179 C2177 1.390 . S
C2179 C2180 1.387 . S
C2179 H2182 0.950 . S
C2180 C2179 1.387 . S
C2180 C2183 1.387 . S
H2181 C2177 0.950 . S
H2182 C2179 0.950 . S
C2183 C2174 1.390 . S
C2183 H2176 0.950 . S
C2183 C2180 1.387 . S
C2184 C2185 1.387 . S
C2184 H2188 0.950 . S
C2184 C2193 1.390 . S
C2185 C2184 1.387 . S
C2185 C2187 1.387 . S
H2186 C2193 0.950 . S
C2187 C2185 1.387 . S
C2187 C2189 1.390 . S
C2187 H2191 0.950 . S
H2188 C2184 0.950 . S
C2189 C2187 1.390 . S
C2189 C2190 1.387 . S
C2189 H2192 0.950 . S
C2190 C2189 1.387 . S
C2190 C2193 1.387 . S
H2191 C2187 0.950 . S
H2192 C2189 0.950 . S
C2193 C2184 1.390 . S
C2193 H2186 0.950 . S
C2193 C2190 1.387 . S
C2194 C2195 1.387 . S
C2194 H2198 0.950 . S
C2194 C2203 1.390 . S
C2195 C2194 1.387 . S
C2195 C2197 1.387 . S
H2196 C2203 0.950 . S
C2197 C2195 1.387 . S
C2197 C2199 1.390 . S
C2197 H2201 0.950 . S
H2198 C2194 0.950 . S
C2199 C2197 1.390 . S
C2199 C2200 1.387 . S
C2199 H2202 0.950 . S
C2200 C2199 1.387 . S
C2200 C2203 1.387 . S
H2201 C2197 0.950 . S
H2202 C2199 0.950 . S
C2203 C2194 1.390 . S
C2203 H2196 0.950 . S
C2203 C2200 1.387 . S
C2204 C2205 1.387 . S
C2204 H2208 0.950 . S
C2204 C2213 1.390 . S
C2205 C2204 1.387 . S
C2205 C2207 1.387 . S
H2206 C2213 0.950 . S
C2207 C2205 1.387 . S
C2207 C2209 1.390 . S
C2207 H2211 0.950 . S
H2208 C2204 0.950 . S
C2209 C2207 1.390 . S
C2209 C2210 1.387 . S
C2209 H2212 0.950 . S
C2210 C2209 1.387 . S
C2210 C2213 1.387 . S
H2211 C2207 0.950 . S
H2212 C2209 0.950 . S
C2213 C2204 1.390 . S
C2213 H2206 0.950 . S
C2213 C2210 1.387 . S
C2214 C2215 1.387 . S
C2214 H2218 0.950 . S
C2214 C2223 1.390 . S
C2215 C2214 1.387 . S
C2215 C2217 1.387 . S
H2216 C2223 0.950 . S
C2217 C2215 1.387 . S
C2217 C2219 1.390 . S
C2217 H2221 0.950 . S
H2218 C2214 0.950 . S
C2219 C2217 1.390 . S
C2219 C2220 1.387 . S
C2219 H2222 0.950 . S
C2220 C2219 1.387 . S
C2220 C2223 1.387 . S
H2221 C2217 0.950 . S
H2222 C2219 0.950 . S
C2223 C2214 1.390 . S
C2223 H2216 0.950 . S
C2223 C2220 1.387 . S
C2224 C2225 1.387 . S
C2224 H2228 0.950 . S
C2224 C2233 1.390 . S
C2225 C2224 1.387 . S
C2225 C2227 1.387 . S
H2226 C2233 0.950 . S
C2227 C2225 1.387 . S
C2227 C2229 1.390 . S
C2227 H2231 0.950 . S
H2228 C2224 0.950 . S
C2229 C2227 1.390 . S
C2229 C2230 1.387 . S
C2229 H2232 0.950 . S
C2230 C2229 1.387 . S
C2230 C2233 1.387 . S
H2231 C2227 0.950 . S
H2232 C2229 0.950 . S
C2233 C2224 1.390 . S
C2233 H2226 0.950 . S
C2233 C2230 1.387 . S
C2234 C2235 1.387 . S
C2234 H2238 0.950 . S
C2234 C2243 1.390 . S
C2235 C2234 1.387 . S
C2235 C2237 1.387 . S
H2236 C2243 0.950 . S
C2237 C2235 1.387 . S
C2237 C2239 1.390 . S
C2237 H2241 0.950 . S
H2238 C2234 0.950 . S
C2239 C2237 1.390 . S
C2239 C2240 1.387 . S
C2239 H2242 0.950 . S
C2240 C2239 1.387 . S
C2240 C2243 1.387 . S
H2241 C2237 0.950 . S
H2242 C2239 0.950 . S
C2243 C2234 1.390 . S
C2243 H2236 0.950 . S
C2243 C2240 1.387 . S
C2244 C2245 1.387 . S
C2244 H2248 0.950 . S
C2244 C2253 1.390 . S
C2245 C2244 1.387 . S
C2245 C2247 1.387 . S
H2246 C2253 0.950 . S
C2247 C2245 1.387 . S
C2247 C2249 1.390 . S
C2247 H2251 0.950 . S
H2248 C2244 0.950 . S
C2249 C2247 1.390 . S
C2249 C2250 1.387 . S
C2249 H2252 0.950 . S
C2250 C2249 1.387 . S
C2250 C2253 1.387 . S
H2251 C2247 0.950 . S
H2252 C2249 0.950 . S
C2253 C2244 1.390 . S
C2253 H2246 0.950 . S
C2253 C2250 1.387 . S
C2254 C2255 1.387 . S
C2254 H2258 0.950 . S
C2254 C2263 1.390 . S
C2255 C2254 1.387 . S
C2255 C2257 1.387 . S
H2256 C2263 0.950 . S
C2257 C2255 1.387 . S
C2257 C2259 1.390 . S
C2257 H2261 0.950 . S
H2258 C2254 0.950 . S
C2259 C2257 1.390 . S
C2259 C2260 1.387 . S
C2259 H2262 0.950 . S
C2260 C2259 1.387 . S
C2260 C2263 1.387 . S
H2261 C2257 0.950 . S
H2262 C2259 0.950 . S
C2263 C2254 1.390 . S
C2263 H2256 0.950 . S
C2263 C2260 1.387 . S
C2264 C2265 1.387 . S
C2264 H2268 0.950 . S
C2264 C2273 1.390 . S
C2265 C2264 1.387 . S
C2265 C2267 1.387 . S
H2266 C2273 0.950 . S
C2267 C2265 1.387 . S
C2267 C2269 1.390 . S
C2267 H2271 0.950 . S
H2268 C2264 0.950 . S
C2269 C2267 1.390 . S
C2269 C2270 1.387 . S
C2269 H2272 0.950 . S
C2270 C2269 1.387 . S
C2270 C2273 1.387 . S
H2271 C2267 0.950 . S
H2272 C2269 0.950 . S
C2273 C2264 1.390 . S
C2273 H2266 0.950 . S
C2273 C2270 1.387 . S
C2274 C2275 1.387 . S
C2274 H2278 0.950 . S
C2274 C2283 1.390 . S
C2275 C2274 1.387 . S
C2275 C2277 1.387 . S
H2276 C2283 0.950 . S
C2277 C2275 1.387 . S
C2277 C2279 1.390 . S
C2277 H2281 0.950 . S
H2278 C2274 0.950 . S
C2279 C2277 1.390 . S
C2279 C2280 1.387 . S
C2279 H2282 0.950 . S
C2280 C2279 1.387 . S
C2280 C2283 1.387 . S
H2281 C2277 0.950 . S
H2282 C2279 0.950 . S
C2283 C2274 1.390 . S
C2283 H2276 0.950 . S
C2283 C2280 1.387 . S
C2284 C2285 1.387 . S
C2284 H2288 0.950 . S
C2284 C2293 1.390 . S
C2285 C2284 1.387 . S
C2285 C2287 1.387 . S
H2286 C2293 0.950 . S
C2287 C2285 1.387 . S
C2287 C2289 1.390 . S
C2287 H2291 0.950 . S
H2288 C2284 0.950 . S
C2289 C2287 1.390 . S
C2289 C2290 1.387 . S
C2289 H2292 0.950 . S
C2290 C2289 1.387 . S
C2290 C2293 1.387 . S
H2291 C2287 0.950 . S
H2292 C2289 0.950 . S
C2293 C2284 1.390 . S
C2293 H2286 0.950 . S
C2293 C2290 1.387 . S
C2294 C2295 1.387 . S
C2294 H2298 0.950 . S
C2294 C2303 1.390 . S
C2295 C2294 1.387 . S
C2295 C2297 1.387 . S
H2296 C2303 0.950 . S
C2297 C2295 1.387 . S
C2297 C2299 1.390 . S
C2297 H2301 0.950 . S
H2298 C2294 0.950 . S
C2299 C2297 1.390 . S
C2299 C2300 1.387 . S
C2299 H2302 0.950 . S
C2300 C2299 1.387 . S
C2300 C2303 1.387 . S
H2301 C2297 0.950 . S
H2302 C2299 0.950 . S
C2303 C2294 1.390 . S
C2303 H2296 0.950 . S
C2303 C2300 1.387 . S
C2304 C2305 1.387 . S
C2304 H2308 0.950 . S
C2304 C2313 1.390 . S
C2305 C2304 1.387 . S
C2305 C2307 1.387 . S
H2306 C2313 0.950 . S
C2307 C2305 1.387 . S
C2307 C2309 1.390 . S
C2307 H2311 0.950 . S
H2308 C2304 0.950 . S
C2309 C2307 1.390 . S
C2309 C2310 1.387 . S
C2309 H2312 0.950 . S
C2310 C2309 1.387 . S
C2310 C2313 1.387 . S
H2311 C2307 0.950 . S
H2312 C2309 0.950 . S
C2313 C2304 1.390 . S
C2313 H2306 0.950 . S
C2313 C2310 1.387 . S
C2314 C2315 1.387 . S
C2314 H2318 0.950 . S
C2314 C2323 1.390 . S
C2315 C2314 1.387 . S
C2315 C2317 1.387 . S
H2316 C2323 0.950 . S
C2317 C2315 1.387 . S
C2317 C2319 1.390 . S
C2317 H2321 0.950 . S
H2318 C2314 0.950 . S
C2319 C2317 1.390 . S
C2319 C2320 1.387 . S
C2319 H2322 0.950 . S
C2320 C2319 1.387 . S
C2320 C2323 1.387 . S
H2321 C2317 0.950 . S
H2322 C2319 0.950 . S
C2323 C2314 1.390 . S
C2323 H2316 0.950 . S
C2323 C2320 1.387 . S
C2324 C2325 1.387 . S
C2324 H2328 0.950 . S
C2324 C2333 1.390 . S
C2325 C2324 1.387 . S
C2325 C2327 1.387 . S
H2326 C2333 0.950 . S
C2327 C2325 1.387 . S
C2327 C2329 1.390 . S
C2327 H2331 0.950 . S
H2328 C2324 0.950 . S
C2329 C2327 1.390 . S
C2329 C2330 1.387 . S
C2329 H2332 0.950 . S
C2330 C2329 1.387 . S
C2330 C2333 1.387 . S
H2331 C2327 0.950 . S
H2332 C2329 0.950 . S
C2333 C2324 1.390 . S
C2333 H2326 0.950 . S
C2333 C2330 1.387 . S
C2334 C2335 1.387 . S
C2334 H2338 0.950 . S
C2334 C2343 1.390 . S
C2335 C2334 1.387 . S
C2335 C2337 1.387 . S
H2336 C2343 0.950 . S
C2337 C2335 1.387 . S
C2337 C2339 1.390 . S
C2337 H2341 0.950 . S
H2338 C2334 0.950 . S
C2339 C2337 1.390 . S
C2339 C2340 1.387 . S
C2339 H2342 0.950 . S
C2340 C2339 1.387 . S
C2340 C2343 1.387 . S
H2341 C2337 0.950 . S
H2342 C2339 0.950 . S
C2343 C2334 1.390 . S
C2343 H2336 0.950 . S
C2343 C2340 1.387 . S
C2344 C2345 1.387 . S
C2344 H2348 0.950 . S
C2344 C2353 1.390 . S
C2345 C2344 1.387 . S
C2345 C2347 1.387 . S
H2346 C2353 0.950 . S
C2347 C2345 1.387 . S
C2347 C2349 1.390 . S
C2347 H2351 0.950 . S
H2348 C2344 0.950 . S
C2349 C2347 1.390 . S
C2349 C2350 1.387 . S
C2349 H2352 0.950 . S
C2350 C2349 1.387 . S
C2350 C2353 1.387 . S
H2351 C2347 0.950 . S
H2352 C2349 0.950 . S
C2353 C2344 1.390 . S
C2353 H2346 0.950 . S
C2353 C2350 1.387 . S
C2354 C2355 1.387 . S
C2354 H2358 0.950 . S
C2354 C2363 1.390 . S
C2355 C2354 1.387 . S
C2355 C2357 1.387 . S
H2356 C2363 0.950 . S
C2357 C2355 1.387 . S
C2357 C2359 1.390 . S
C2357 H2361 0.950 . S
H2358 C2354 0.950 . S
C2359 C2357 1.390 . S
C2359 C2360 1.387 . S
C2359 H2362 0.950 . S
C2360 C2359 1.387 . S
C2360 C2363 1.387 . S
H2361 C2357 0.950 . S
H2362 C2359 0.950 . S
C2363 C2354 1.390 . S
C2363 H2356 0.950 . S
C2363 C2360 1.387 . S
C2364 C2365 1.387 . S
C2364 H2368 0.950 . S
C2364 C2373 1.390 . S
C2365 C2364 1.387 . S
C2365 C2367 1.387 . S
H2366 C2373 0.950 . S
C2367 C2365 1.387 . S
C2367 C2369 1.390 . S
C2367 H2371 0.950 . S
H2368 C2364 0.950 . S
C2369 C2367 1.390 . S
C2369 C2370 1.387 . S
C2369 H2372 0.950 . S
C2370 C2369 1.387 . S
C2370 C2373 1.387 . S
H2371 C2367 0.950 . S
H2372 C2369 0.950 . S
C2373 C2364 1.390 . S
C2373 H2366 0.950 . S
C2373 C2370 1.387 . S
C2374 C2375 1.387 . S
C2374 H2378 0.950 . S
C2374 C2383 1.390 . S
C2375 C2374 1.387 . S
C2375 C2377 1.387 . S
H2376 C2383 0.950 . S
C2377 C2375 1.387 . S
C2377 C2379 1.390 . S
C2377 H2381 0.950 . S
H2378 C2374 0.950 . S
C2379 C2377 1.390 . S
C2379 C2380 1.387 . S
C2379 H2382 0.950 . S
C2380 C2379 1.387 . S
C2380 C2383 1.387 . S
H2381 C2377 0.950 . S
H2382 C2379 0.950 . S
C2383 C2374 1.390 . S
C2383 H2376 0.950 . S
C2383 C2380 1.387 . S
C2384 C2385 1.387 . S
C2384 H2388 0.950 . S
C2384 C2393 1.390 . S
C2385 C2384 1.387 . S
C2385 C2387 1.387 . S
H2386 C2393 0.950 . S
C2387 C2385 1.387 . S
C2387 C2389 1.390 . S
C2387 H2391 0.950 . S
H2388 C2384 0.950 . S
C2389 C2387 1.390 . S
C2389 C2390 1.387 . S
C2389 H2392 0.950 . S
C2390 C2389 1.387 . S
C2390 C2393 1.387 . S
H2391 C2387 0.950 . S
H2392 C2389 0.950 . S
C2393 C2384 1.390 . S
C2393 H2386 0.950 . S
C2393 C2390 1.387 . S
C2394 C2395 1.387 . S
C2394 H2398 0.950 . S
C2394 C2403 1.390 . S
C2395 C2394 1.387 . S
C2395 C2397 1.387 . S
H2396 C2403 0.950 . S
C2397 C2395 1.387 . S
C2397 C2399 1.390 . S
C2397 H2401 0.950 . S
H2398 C2394 0.950 . S
C2399 C2397 1.390 . S
C2399 C2400 1.387 . S
C2399 H2402 0.950 . S
C2400 C2399 1.387 . S
C2400 C2403 1.387 . S
H2401 C2397 0.950 . S
H2402 C2399 0.950 . S
C2403 C2394 1.390 . S
C2403 H2396 0.950 . S
C2403 C2400 1.387 . S
C2404 C2405 1.387 . S
C2404 H2408 0.950 . S
C2404 C2413 1.390 . S
C2405 C2404 1.387 . S
C2405 C2407 1.387 . S
H2406 C2413 0.950 . S
C2407 C2405 1.387 . S
C2407 C2409 1.390 . S
C2407 H2411 0.950 . S
H2408 C2404 0.950 . S
C2409 C2407 1.390 . S
C2409 C2410 1.387 . S
C2409 H2412 0.950 . S
C2410 C2409 1.387 . S
C2410 C2413 1.387 . S
H2411 C2407 0.950 . S
H2412 C2409 0.950 . S
C2413 C2404 1.390 . S
C2413 H2406 0.950 . S
C2413 C2410 1.387 . S
C2414 C2415 1.387 . S
C2414 H2418 0.950 . S
C2414 C2423 1.390 . S
C2415 C2414 1.387 . S
C2415 C2417 1.387 . S
H2416 C2423 0.950 . S
C2417 C2415 1.387 . S
C2417 C2419 1.390 . S
C2417 H2421 0.950 . S
H2418 C2414 0.950 . S
C2419 C2417 1.390 . S
C2419 C2420 1.387 . S
C2419 H2422 0.950 . S
C2420 C2419 1.387 . S
C2420 C2423 1.387 . S
H2421 C2417 0.950 . S
H2422 C2419 0.950 . S
C2423 C2414 1.390 . S
C2423 H2416 0.950 . S
C2423 C2420 1.387 . S
C2424 C2425 1.387 . S
C2424 H2428 0.950 . S
C2424 C2433 1.390 . S
C2425 C2424 1.387 . S
C2425 C2427 1.387 . S
H2426 C2433 0.950 . S
C2427 C2425 1.387 . S
C2427 C2429 1.390 . S
C2427 H2431 0.950 . S
H2428 C2424 0.950 . S
C2429 C2427 1.390 . S
C2429 C2430 1.387 . S
C2429 H2432 0.950 . S
C2430 C2429 1.387 . S
C2430 C2433 1.387 . S
H2431 C2427 0.950 . S
H2432 C2429 0.950 . S
C2433 C2424 1.390 . S
C2433 H2426 0.950 . S
C2433 C2430 1.387 . S
C2434 C2435 1.387 . S
C2434 H2438 0.950 . S
C2434 C2443 1.390 . S
C2435 C2434 1.387 . S
C2435 C2437 1.387 . S
H2436 C2443 0.950 . S
C2437 C2435 1.387 . S
C2437 C2439 1.390 . S
C2437 H2441 0.950 . S
H2438 C2434 0.950 . S
C2439 C2437 1.390 . S
C2439 C2440 1.387 . S
C2439 H2442 0.950 . S
C2440 C2439 1.387 . S
C2440 C2443 1.387 . S
H2441 C2437 0.950 . S
H2442 C2439 0.950 . S
C2443 C2434 1.390 . S
C2443 H2436 0.950 . S
C2443 C2440 1.387 . S
C2444 C2445 1.387 . S
C2444 H2448 0.950 . S
C2444 C2453 1.390 . S
C2445 C2444 1.387 . S
C2445 C2447 1.387 . S
H2446 C2453 0.950 . S
C2447 C2445 1.387 . S
C2447 C2449 1.390 . S
C2447 H2451 0.950 . S
H2448 C2444 0.950 . S
C2449 C2447 1.390 . S
C2449 C2450 1.387 . S
C2449 H2452 0.950 . S
C2450 C2449 1.387 . S
C2450 C2453 1.387 . S
H2451 C2447 0.950 . S
H2452 C2449 0.950 . S
C2453 C2444 1.390 . S
C2453 H2446 0.950 . S
C2453 C2450 1.387 . S
C2454 C2455 1.387 . S
C2454 H2458 0.950 . S
C2454 C2463 1.390 . S
C2455 C2454 1.387 . S
C2455 C2457 1.387 . S
H2456 C2463 0.950 . S
C2457 C2455 1.387 . S
C2457 C2459 1.390 . S
C2457 H2461 0.950 . S
H2458 C2454 0.950 . S
C2459 C2457 1.390 . S
C2459 C2460 1.387 . S
C2459 H2462 0.950 . S
C2460 C2459 1.387 . S
C2460 C2463 1.387 . S
H2461 C2457 0.950 . S
H2462 C2459 0.950 . S
C2463 C2454 1.390 . S
C2463 H2456 0.950 . S
C2463 C2460 1.387 . S
C2464 C2465 1.387 . S
C2464 H2468 0.950 . S
C2464 C2473 1.390 . S
C2465 C2464 1.387 . S
C2465 C2467 1.387 . S
H2466 C2473 0.950 . S
C2467 C2465 1.387 . S
C2467 C2469 1.390 . S
C2467 H2471 0.950 . S
H2468 C2464 0.950 . S
C2469 C2467 1.390 . S
C2469 C2470 1.387 . S
C2469 H2472 0.950 . S
C2470 C2469 1.387 . S
C2470 C2473 1.387 . S
H2471 C2467 0.950 . S
H2472 C2469 0.950 . S
C2473 C2464 1.390 . S
C2473 H2466 0.950 . S
C2473 C2470 1.387 . S
C2474 C2475 1.387 . S
C2474 H2478 0.950 . S
C2474 C2483 1.390 . S
C2475 C2474 1.387 . S
C2475 C2477 1.387 . S
H2476 C2483 0.950 . S
C2477 C2475 1.387 . S
C2477 C2479 1.390 . S
C2477 H2481 0.950 . S
H2478 C2474 0.950 . S
C2479 C2477 1.390 . S
C2479 C2480 1.387 . S
C2479 H2482 0.950 . S
C2480 C2479 1.387 . S
C2480 C2483 1.387 . S
H2481 C2477 0.950 . S
H2482 C2479 0.950 . S
C2483 C2474 1.390 . S
C2483 H2476 0.950 . S
C2483 C2480 1.387 . S
C2484 C2485 1.387 . S
C2484 H2488 0.950 . S
C2484 C2493 1.390 . S
C2485 C2484 1.387 . S
C2485 C2487 1.387 . S
H2486 C2493 0.950 . S
C2487 C2485 1.387 . S
C2487 C2489 1.390 . S
C2487 H2491 0.950 . S
H2488 C2484 0.950 . S
C2489 C2487 1.390 . S
C2489 C2490 1.387 . S
C2489 H2492 0.950 . S
C2490 C2489 1.387 . S
C2490 C2493 1.387 . S
H2491 C2487 0.950 . S
H2492 C2489 0.950 . S
C2493 C2484 1.390 . S
C2493 H2486 0.950 . S
C2493 C2490 1.387 . S
C2494 C2495 1.387 . S
C2494 H2498 0.950 . S
C2494 C2503 1.390 . S
C2495 C2494 1.387 . S
C2495 C2497 1.387 . S
H2496 C2503 0.950 . S
C2497 C2495 1.387 . S
C2497 C2499 1.390 . S
C2497 H2501 0.950 . S
H2498 C2494 0.950 . S
C2499 C2497 1.390 . S
C2499 C2500 1.387 . S
C2499 H2502 0.950 . S
C2500 C2499 1.387 . S
C2500 C2503 1.387 . S
H2501 C2497 0.950 . S
H2502 C2499 0.950 . S
C2503 C2494 1.390 . S
C2503 H2496 0.950 . S
C2503 C2500 1.387 . S
C2504 C2505 1.387 . S
C2504 H2508 0.950 . S
C2504 C2513 1.390 . S
C2505 C2504 1.387 . S
C2505 C2507 1.387 . S
H2506 C2513 0.950 . S
C2507 C2505 1.387 . S
C2507 C2509 1.390 . S
C2507 H2511 0.950 . S
H2508 C2504 0.950 . S
C2509 C2507 1.390 . S
C2509 C2510 1.387 . S
C2509 H2512 0.950 . S
C2510 C2509 1.387 . S
C2510 C2513 1.387 . S
H2511 C2507 0.950 . S
H2512 C2509 0.950 . S
C2513 C2504 1.390 . S
C2513 H2506 0.950 . S
C2513 C2510 1.387 . S
C2514 C2515 1.387 . S
C2514 H2518 0.950 . S
C2514 C2523 1.390 . S
C2515 C2514 1.387 . S
C2515 C2517 1.387 . S
H2516 C2523 0.950 . S
C2517 C2515 1.387 . S
C2517 C2519 1.390 . S
C2517 H2521 0.950 . S
H2518 C2514 0.950 . S
C2519 C2517 1.390 . S
C2519 C2520 1.387 . S
C2519 H2522 0.950 . S
C2520 C2519 1.387 . S
C2520 C2523 1.387 . S
H2521 C2517 0.950 . S
H2522 C2519 0.950 . S
C2523 C2514 1.390 . S
C2523 H2516 0.950 . S
C2523 C2520 1.387 . S
C2524 C2525 1.387 . S
C2524 H2528 0.950 . S
C2524 C2533 1.390 . S
C2525 C2524 1.387 . S
C2525 C2527 1.387 . S
H2526 C2533 0.950 . S
C2527 C2525 1.387 . S
C2527 C2529 1.390 . S
C2527 H2531 0.950 . S
H2528 C2524 0.950 . S
C2529 C2527 1.390 . S
C2529 C2530 1.387 . S
C2529 H2532 0.950 . S
C2530 C2529 1.387 . S
C2530 C2533 1.387 . S
H2531 C2527 0.950 . S
H2532 C2529 0.950 . S
C2533 C2524 1.390 . S
C2533 H2526 0.950 . S
C2533 C2530 1.387 . S
C2534 C2535 1.387 . S
C2534 H2538 0.950 . S
C2534 C2543 1.390 . S
C2535 C2534 1.387 . S
C2535 C2537 1.387 . S
H2536 C2543 0.950 . S
C2537 C2535 1.387 . S
C2537 C2539 1.390 . S
C2537 H2541 0.950 . S
H2538 C2534 0.950 . S
C2539 C2537 1.390 . S
C2539 C2540 1.387 . S
C2539 H2542 0.950 . S
C2540 C2539 1.387 . S
C2540 C2543 1.387 . S
H2541 C2537 0.950 . S
H2542 C2539 0.950 . S
C2543 C2534 1.390 . S
C2543 H2536 0.950 . S
C2543 C2540 1.387 . S
C2544 C2545 1.390 1_655 S
C2544 H2548 0.952 . S
C2544 C2553 1.387 1_545 S
C2545 C2544 1.390 1_455 S
C2545 C2547 1.390 . S
H2546 C2553 0.952 . S
C2547 C2545 1.390 . S
C2547 C2549 1.387 1_545 S
C2547 H2551 0.952 . S
H2548 C2544 0.952 . S
C2549 C2547 1.387 1_565 S
C2549 C2550 1.390 . S
C2549 H2552 0.952 . S
C2550 C2549 1.390 . S
C2550 C2553 1.390 1_455 S
H2551 C2547 0.952 . S
H2552 C2549 0.952 . S
C2553 C2544 1.387 1_565 S
C2553 H2546 0.952 . S
C2553 C2550 1.390 1_655 S
C2554 C2555 1.387 . S
C2554 H2558 0.950 . S
C2554 C2563 1.390 . S
C2555 C2554 1.387 . S
C2555 C2557 1.387 . S
H2556 C2563 0.950 . S
C2557 C2555 1.387 . S
C2557 C2559 1.390 . S
C2557 H2561 0.950 . S
H2558 C2554 0.950 . S
C2559 C2557 1.390 . S
C2559 C2560 1.387 . S
C2559 H2562 0.950 . S
C2560 C2559 1.387 . S
C2560 C2563 1.387 . S
H2561 C2557 0.950 . S
H2562 C2559 0.950 . S
C2563 C2554 1.390 . S
C2563 H2556 0.950 . S
C2563 C2560 1.387 . S
C2564 C2565 1.388 . S
C2564 H2568 0.949 . S
C2564 C2573 1.389 1_565 S
C2565 C2564 1.388 . S
C2565 C2567 1.387 . S
H2566 C2573 0.950 . S
C2567 C2565 1.387 . S
C2567 C2569 1.388 1_565 S
C2567 H2571 0.950 . S
H2568 C2564 0.949 . S
C2569 C2567 1.388 1_545 S
C2569 C2570 1.389 . S
C2569 H2572 0.949 . S
C2570 C2569 1.389 . S
C2570 C2573 1.387 . S
H2571 C2567 0.950 . S
H2572 C2569 0.949 . S
C2573 C2564 1.389 1_545 S
C2573 H2566 0.950 . S
C2573 C2570 1.387 . S
C2574 C2575 1.387 . S
C2574 H2578 0.950 . S
C2574 C2583 1.390 1_556 S
C2575 C2574 1.387 . S
C2575 C2577 1.387 . S
H2576 C2583 0.950 . S
C2577 C2575 1.387 . S
C2577 C2579 1.390 1_556 S
C2577 H2581 0.950 . S
H2578 C2574 0.950 . S
C2579 C2577 1.390 1_554 S
C2579 C2580 1.387 . S
C2579 H2582 0.950 . S
C2580 C2579 1.387 . S
C2580 C2583 1.387 . S
H2581 C2577 0.950 . S
H2582 C2579 0.950 . S
C2583 C2574 1.390 1_554 S
C2583 H2576 0.950 . S
C2583 C2580 1.387 . S
C2584 C2585 1.391 . S
C2584 H2588 0.954 . S
C2584 C2593 1.385 1_554 S
C2585 C2584 1.391 . S
C2585 C2587 1.391 1_545 S
H2586 C2593 0.954 . S
C2587 C2585 1.391 1_565 S
C2587 C2589 1.385 1_554 S
C2587 H2591 0.954 . S
H2588 C2584 0.954 . S
C2589 C2587 1.385 1_556 S
C2589 C2590 1.391 1_565 S
C2589 H2592 0.954 . S
C2590 C2589 1.391 1_545 S
C2590 C2593 1.391 . S
H2591 C2587 0.954 . S
H2592 C2589 0.954 . S
C2593 C2584 1.385 1_556 S
C2593 H2586 0.954 . S
C2593 C2590 1.391 . S
C2594 C2595 1.387 . S
C2594 H2598 0.950 . S
C2594 C2603 1.390 1_545 S
C2595 C2594 1.387 . S
C2595 C2597 1.387 . S
H2596 C2603 0.950 . S
C2597 C2595 1.387 . S
C2597 C2599 1.390 1_545 S
C2597 H2601 0.950 . S
H2598 C2594 0.950 . S
C2599 C2597 1.390 1_565 S
C2599 C2600 1.387 . S
C2599 H2602 0.950 . S
C2600 C2599 1.387 . S
C2600 C2603 1.387 . S
H2601 C2597 0.950 . S
H2602 C2599 0.950 . S
C2603 C2594 1.390 1_565 S
C2603 H2596 0.950 . S
C2603 C2600 1.387 . S
C2604 C2605 1.387 1_545 S
C2604 H2608 0.950 . S
C2604 C2613 1.390 . S
C2605 C2604 1.387 1_565 S
C2605 C2607 1.387 . S
H2606 C2613 0.950 . S
C2607 C2605 1.387 . S
C2607 C2609 1.390 . S
C2607 H2611 0.950 . S
H2608 C2604 0.950 . S
C2609 C2607 1.390 . S
C2609 C2610 1.387 . S
C2609 H2612 0.950 . S
C2610 C2609 1.387 . S
C2610 C2613 1.387 1_565 S
H2611 C2607 0.950 . S
H2612 C2609 0.950 . S
C2613 C2604 1.390 . S
C2613 H2606 0.950 . S
C2613 C2610 1.387 1_545 S
C2614 C2615 1.387 . S
C2614 H2618 0.950 . S
C2614 C2623 1.390 1_545 S
C2615 C2614 1.387 . S
C2615 C2617 1.387 . S
H2616 C2623 0.950 . S
C2617 C2615 1.387 . S
C2617 C2619 1.390 1_545 S
C2617 H2621 0.950 . S
H2618 C2614 0.950 . S
C2619 C2617 1.390 1_565 S
C2619 C2620 1.387 . S
C2619 H2622 0.950 . S
C2620 C2619 1.387 . S
C2620 C2623 1.387 . S
H2621 C2617 0.950 . S
H2622 C2619 0.950 . S
C2623 C2614 1.390 1_565 S
C2623 H2616 0.950 . S
C2623 C2620 1.387 . S
C2624 C2625 1.391 . S
C2624 H2628 0.954 . S
C2624 C2633 1.385 1_655 S
C2625 C2624 1.391 . S
C2625 C2627 1.391 1_554 S
H2626 C2633 0.954 . S
C2627 C2625 1.391 1_556 S
C2627 C2629 1.385 1_655 S
C2627 H2631 0.954 . S
H2628 C2624 0.954 . S
C2629 C2627 1.385 1_455 S
C2629 C2630 1.391 1_556 S
C2629 H2632 0.954 . S
C2630 C2629 1.391 1_554 S
C2630 C2633 1.391 . S
H2631 C2627 0.954 . S
H2632 C2629 0.954 . S
C2633 C2624 1.385 1_455 S
C2633 H2626 0.954 . S
C2633 C2630 1.391 . S
C2634 C2635 1.387 . S
C2634 H2638 0.950 . S
C2634 C2643 1.390 . S
C2635 C2634 1.387 . S
C2635 C2637 1.387 1_556 S
H2636 C2643 0.950 . S
C2637 C2635 1.387 1_554 S
C2637 C2639 1.390 . S
C2637 H2641 0.950 . S
H2638 C2634 0.950 . S
C2639 C2637 1.390 . S
C2639 C2640 1.387 1_554 S
C2639 H2642 0.950 . S
C2640 C2639 1.387 1_556 S
C2640 C2643 1.387 . S
H2641 C2637 0.950 . S
H2642 C2639 0.950 . S
C2643 C2634 1.390 . S
C2643 H2636 0.950 . S
C2643 C2640 1.387 . S
C2644 C2645 1.387 . S
C2644 H2648 0.950 . S
C2644 C2653 1.390 1_655 S
C2645 C2644 1.387 . S
C2645 C2647 1.387 . S
H2646 C2653 0.950 . S
C2647 C2645 1.387 . S
C2647 C2649 1.390 1_655 S
C2647 H2651 0.950 . S
H2648 C2644 0.950 . S
C2649 C2647 1.390 1_455 S
C2649 C2650 1.387 . S
C2649 H2652 0.950 . S
C2650 C2649 1.387 . S
C2650 C2653 1.387 . S
H2651 C2647 0.950 . S
H2652 C2649 0.950 . S
C2653 C2644 1.390 1_455 S
C2653 H2646 0.950 . S
C2653 C2650 1.387 . S
C2654 C2655 1.388 1_455 S
C2654 H2658 0.950 1_455 S
C2654 C2663 1.390 . S
C2655 C2654 1.388 1_655 S
C2655 C2657 1.387 . S
H2656 C2663 0.950 . S
C2657 C2655 1.387 . S
C2657 C2659 1.390 1_655 S
C2657 H2661 0.950 . S
H2658 C2654 0.950 1_655 S
C2659 C2657 1.390 1_455 S
C2659 C2660 1.388 . S
C2659 H2662 0.950 . S
C2660 C2659 1.388 . S
C2660 C2663 1.387 . S
H2661 C2657 0.950 . S
H2662 C2659 0.950 . S
C2663 C2654 1.390 . S
C2663 H2656 0.950 . S
C2663 C2660 1.387 . S
C2664 C2665 1.387 . S
C2664 H2668 0.950 . S
C2664 C2673 1.390 . S
C2665 C2664 1.387 . S
C2665 C2667 1.387 . S
H2666 C2673 0.950 . S
C2667 C2665 1.387 . S
C2667 C2669 1.390 . S
C2667 H2671 0.950 . S
H2668 C2664 0.950 . S
C2669 C2667 1.390 . S
C2669 C2670 1.387 . S
C2669 H2672 0.950 . S
C2670 C2669 1.387 . S
C2670 C2673 1.387 . S
H2671 C2667 0.950 . S
H2672 C2669 0.950 . S
C2673 C2664 1.390 . S
C2673 H2666 0.950 . S
C2673 C2670 1.387 . S
C2674 C2675 1.387 . S
C2674 H2678 0.950 . S
C2674 C2683 1.390 1_655 S
C2675 C2674 1.387 . S
C2675 C2677 1.387 . S
H2676 C2683 0.950 . S
C2677 C2675 1.387 . S
C2677 C2679 1.390 1_655 S
C2677 H2681 0.950 . S
H2678 C2674 0.950 . S
C2679 C2677 1.390 1_455 S
C2679 C2680 1.387 . S
C2679 H2682 0.950 . S
C2680 C2679 1.387 . S
C2680 C2683 1.387 . S
H2681 C2677 0.950 . S
H2682 C2679 0.950 . S
C2683 C2674 1.390 1_455 S
C2683 H2676 0.950 . S
C2683 C2680 1.387 . S
C2684 C2685 1.387 . S
C2684 H2688 0.950 . S
C2684 C2693 1.390 . S
C2685 C2684 1.387 . S
C2685 C2687 1.387 . S
H2686 C2693 0.950 . S
C2687 C2685 1.387 . S
C2687 C2689 1.390 . S
C2687 H2691 0.950 . S
H2688 C2684 0.950 . S
C2689 C2687 1.390 . S
C2689 C2690 1.387 . S
C2689 H2692 0.950 . S
C2690 C2689 1.387 . S
C2690 C2693 1.387 . S
H2691 C2687 0.950 . S
H2692 C2689 0.950 . S
C2693 C2684 1.390 . S
C2693 H2686 0.950 . S
C2693 C2690 1.387 . S
C2694 C2695 1.387 . S
C2694 H2698 0.950 . S
C2694 C2703 1.390 . S
C2695 C2694 1.387 . S
C2695 C2697 1.387 . S
H2696 C2703 0.950 . S
C2697 C2695 1.387 . S
C2697 C2699 1.390 . S
C2697 H2701 0.950 . S
H2698 C2694 0.950 . S
C2699 C2697 1.390 . S
C2699 C2700 1.387 . S
C2699 H2702 0.950 . S
C2700 C2699 1.387 . S
C2700 C2703 1.387 . S
H2701 C2697 0.950 . S
H2702 C2699 0.950 . S
C2703 C2694 1.390 . S
C2703 H2696 0.950 . S
C2703 C2700 1.387 . S
C2704 C2705 1.387 . S
C2704 H2708 0.950 . S
C2704 C2713 1.390 1_554 S
C2705 C2704 1.387 . S
C2705 C2707 1.387 . S
H2706 C2713 0.950 . S
C2707 C2705 1.387 . S
C2707 C2709 1.390 1_554 S
C2707 H2711 0.950 . S
H2708 C2704 0.950 . S
C2709 C2707 1.390 1_556 S
C2709 C2710 1.387 . S
C2709 H2712 0.950 . S
C2710 C2709 1.387 . S
C2710 C2713 1.387 . S
H2711 C2707 0.950 . S
H2712 C2709 0.950 . S
C2713 C2704 1.390 1_556 S
C2713 H2706 0.950 . S
C2713 C2710 1.387 . S
C2714 C2715 1.387 . S
C2714 H2718 0.950 . S
C2714 C2723 1.390 . S
C2715 C2714 1.387 . S
C2715 C2717 1.387 1_655 S
H2716 C2723 0.950 . S
C2717 C2715 1.387 1_455 S
C2717 C2719 1.390 . S
C2717 H2721 0.950 . S
H2718 C2714 0.950 . S
C2719 C2717 1.390 . S
C2719 C2720 1.387 1_455 S
C2719 H2722 0.950 . S
C2720 C2719 1.387 1_655 S
C2720 C2723 1.387 . S
H2721 C2717 0.950 . S
H2722 C2719 0.950 . S
C2723 C2714 1.390 . S
C2723 H2716 0.950 . S
C2723 C2720 1.387 . S
C2724 C2725 1.387 . S
C2724 H2728 0.950 . S
C2724 C2733 1.390 . S
C2725 C2724 1.387 . S
C2725 C2727 1.387 . S
H2726 C2733 0.950 . S
C2727 C2725 1.387 . S
C2727 C2729 1.390 . S
C2727 H2731 0.950 . S
H2728 C2724 0.950 . S
C2729 C2727 1.390 . S
C2729 C2730 1.387 . S
C2729 H2732 0.950 . S
C2730 C2729 1.387 . S
C2730 C2733 1.387 . S
H2731 C2727 0.950 . S
H2732 C2729 0.950 . S
C2733 C2724 1.390 . S
C2733 H2726 0.950 . S
C2733 C2730 1.387 . S
C2734 C2735 1.387 . S
C2734 H2738 0.950 . S
C2734 C2743 1.390 . S
C2735 C2734 1.387 . S
C2735 C2737 1.387 . S
H2736 C2743 0.950 . S
C2737 C2735 1.387 . S
C2737 C2739 1.390 . S
C2737 H2741 0.950 . S
H2738 C2734 0.950 . S
C2739 C2737 1.390 . S
C2739 C2740 1.387 . S
C2739 H2742 0.950 . S
C2740 C2739 1.387 . S
C2740 C2743 1.387 . S
H2741 C2737 0.950 . S
H2742 C2739 0.950 . S
C2743 C2734 1.390 . S
C2743 H2736 0.950 . S
C2743 C2740 1.387 . S
C2744 C2745 1.387 . S
C2744 H2748 0.950 . S
C2744 C2753 1.390 . S
C2745 C2744 1.387 . S
C2745 C2747 1.387 . S
H2746 C2753 0.950 . S
C2747 C2745 1.387 . S
C2747 C2749 1.390 . S
C2747 H2751 0.950 . S
H2748 C2744 0.950 . S
C2749 C2747 1.390 . S
C2749 C2750 1.387 . S
C2749 H2752 0.950 . S
C2750 C2749 1.387 . S
C2750 C2753 1.387 . S
H2751 C2747 0.950 . S
H2752 C2749 0.950 . S
C2753 C2744 1.390 . S
C2753 H2746 0.950 . S
C2753 C2750 1.387 . S
C2754 C2755 1.387 . S
C2754 H2758 0.950 . S
C2754 C2763 1.391 . S
C2755 C2754 1.387 . S
C2755 C2757 1.385 1_556 S
H2756 C2763 0.950 . S
C2757 C2755 1.385 1_554 S
C2757 C2759 1.393 . S
C2757 H2761 0.950 . S
H2758 C2754 0.950 . S
C2759 C2757 1.393 . S
C2759 C2760 1.387 . S
C2759 H2762 0.950 . S
C2760 C2759 1.387 . S
C2760 C2763 1.386 1_554 S
H2761 C2757 0.950 . S
H2762 C2759 0.950 . S
C2763 C2754 1.391 . S
C2763 H2756 0.950 . S
C2763 C2760 1.386 1_556 S
C2764 C2765 1.387 . S
C2764 H2768 0.950 . S
C2764 C2773 1.390 . S
C2765 C2764 1.387 . S
C2765 C2767 1.387 . S
H2766 C2773 0.950 . S
C2767 C2765 1.387 . S
C2767 C2769 1.390 . S
C2767 H2771 0.950 . S
H2768 C2764 0.950 . S
C2769 C2767 1.390 . S
C2769 C2770 1.387 . S
C2769 H2772 0.950 . S
C2770 C2769 1.387 . S
C2770 C2773 1.387 . S
H2771 C2767 0.950 . S
H2772 C2769 0.950 . S
C2773 C2764 1.390 . S
C2773 H2766 0.950 . S
C2773 C2770 1.387 . S
C2774 C2775 1.387 . S
C2774 H2778 0.950 . S
C2774 C2783 1.390 . S
C2775 C2774 1.387 . S
C2775 C2777 1.387 . S
H2776 C2783 0.950 . S
C2777 C2775 1.387 . S
C2777 C2779 1.390 . S
C2777 H2781 0.950 . S
H2778 C2774 0.950 . S
C2779 C2777 1.390 . S
C2779 C2780 1.387 . S
C2779 H2782 0.950 . S
C2780 C2779 1.387 . S
C2780 C2783 1.387 . S
H2781 C2777 0.950 . S
H2782 C2779 0.950 . S
C2783 C2774 1.390 . S
C2783 H2776 0.950 . S
C2783 C2780 1.387 . S
C1585 C556 2.216 . S
C1590 N14 1.822 . S
C1595 N47 1.814 . S
C1600 C1579 2.215 . S
C1605 N80 1.819 . S
C1610 C721 2.218 . S
C1615 N113 1.813 . S
C1620 C1546 2.215 . S
C1625 N146 1.817 . S
C1630 C1381 2.216 . S
C1635 N179 1.817 . S
C1640 C1414 2.218 . S
C1645 N212 1.812 . S
C1650 C1447 2.214 . S
C1655 C688 2.217 . S
C1660 N245 1.817 . S
C1665 N278 1.819 . S
C1670 C28 2.216 . S
C1675 N311 1.813 . S
C1680 C61 2.215 . S
C1685 N344 1.818 . S
C1690 C94 2.215 . S
C1695 N377 1.818 . S
C1700 C127 2.218 . S
C1705 N410 1.820 . S
C1710 C160 2.218 . S
C1715 C193 2.215 . S
C1720 N443 1.816 . S
C1725 C226 2.216 . S
C1730 N476 1.820 . S
C1735 N509 1.817 . S
C1740 C259 2.217 . S
C1745 C292 2.216 . S
C1750 N542 1.820 . S
C1755 C1216 2.215 . S
C1760 N575 1.817 . S
C1765 C1249 2.215 . S
C1770 N608 1.814 . S
C1775 C1282 2.218 . S
C1780 N641 1.816 . S
C1785 N674 1.818 . S
C1790 C523 2.217 . S
C1795 N707 1.815 . S
C1800 C358 2.216 . S
C1805 C1183 2.215 . S
C1810 N740 1.816 . S
C1815 N773 1.818 . S
C1820 C1117 2.218 . S
C1825 N806 1.818 . S
C1830 C1348 2.217 . S
C1835 C787 2.215 . S
C1840 N839 1.813 . S
C1845 C1513 2.218 . S
C1850 N872 1.818 . S
C1855 N905 1.816 . S
C1860 C754 2.216 . S
C1865 N938 1.817 . S
C1870 C589 2.216 . S
C1875 C622 2.218 . S
C1880 N971 1.817 . S
C1885 C655 2.215 . S
C1890 N1004 1.818 . S
C1895 C1480 2.217 . S
C1900 N1037 1.816 . S
C1905 C820 2.216 . S
C1910 N1070 1.814 . S
C1915 C853 2.215 . S
C1920 N1103 1.813 . S
C1925 N1136 1.815 . S
C1930 C886 2.215 . S
C1935 N1169 1.818 . S
C1940 C919 2.218 . S
C1945 N1202 1.816 . S
C1950 C952 2.218 . S
C1955 N1235 1.818 . S
C1960 C985 2.216 . S
C1965 N1268 1.815 . S
C1970 C1018 2.216 . S
C1975 C1051 2.217 . S
C1980 N1301 1.815 . S
C1985 C1084 2.217 . S
C1990 N1334 1.818 . S
C1995 C424 2.215 . S
C2000 N1367 1.815 . S
C2005 N1400 1.815 . S
C2010 C457 2.216 . S
C2015 C490 2.218 . S
C2020 N1433 1.822 . S
C2025 C1315 2.217 . S
C2030 N1466 1.817 . S
C2035 N1499 1.821 . S
C2040 C1150 2.216 . S
C2045 N1532 1.816 . S
C2050 C391 2.216 . S
C2055 C325 2.218 . S
C2060 N1565 1.818 . S
C2065 N500 0.722 . S
C2070 N5 0.717 . S
C2075 N38 0.728 . S
C2080 N401 0.722 . S
C2085 N434 0.718 . S
C2090 N71 0.718 . S
C2095 N467 0.727 . S
C2100 N104 0.727 . S
C2105 N137 0.724 . S
C2110 N302 0.728 . S
C2115 N170 0.727 . S
C2120 N335 0.721 . S
C2125 N368 0.717 . S
C2130 N203 0.720 . S
C2135 N236 0.717 . S
C2140 N269 0.719 . S
C2145 N665 0.720 . S
C2150 N533 0.717 . S
C2155 N566 0.717 . S
C2160 N764 0.724 . S
C2165 N1490 0.720 . S
C2170 N599 0.727 . S
C2175 N731 0.724 . S
C2180 N632 0.717 . S
C2185 N698 0.716 . S
C2190 N1391 0.721 . S
C2195 N797 0.717 . S
C2200 N1292 0.720 . S
C2205 N1193 0.725 . S
C2210 N830 0.718 . S
C2215 N1226 0.717 . S
C2220 N863 0.719 . S
C2225 N1259 0.726 . S
C2230 N896 0.718 . S
C2235 N1094 0.727 . S
C2240 N929 0.727 . S
C2245 N962 0.717 . S
C2250 N1127 0.719 . S
C2255 N1160 0.728 . S
C2260 N995 0.722 . S
C2265 N1028 0.727 . S
C2270 N1061 0.719 . S
C2275 N1457 0.728 . S
C2280 N1325 0.722 . S
C2285 N1358 0.728 . S
C2290 N1556 0.726 . S
C2295 N1523 0.722 . S
C2300 N1424 0.728 . S
C2305 C668 1.492 . S
C2310 C8 1.493 . S
C2315 C41 1.494 . S
C2320 C1361 1.493 . S
C2325 C74 1.493 . S
C2330 C1394 1.494 . S
C2335 C107 1.493 . S
C2340 C1427 1.494 . S
C2345 C140 1.495 . S
C2350 C1559 1.494 . S
C2355 C701 1.496 . S
C2360 C173 1.496 . S
C2365 C206 1.493 . S
C2370 C1526 1.493 . S
C2375 C239 1.493 . S
C2380 C536 1.494 . S
C2385 C503 1.495 . S
C2390 C272 1.495 . S
C2395 C404 1.493 . S
C2400 C305 1.493 . S
C2405 C338 1.493 . S
C2410 C437 1.493 . S
C2415 C470 1.495 . S
C2420 C371 1.494 . S
C2425 C833 1.496 . S
C2430 C569 1.496 . S
C2435 C602 1.496 . S
C2440 C866 1.496 . S
C2445 C635 1.493 . S
C2450 C899 1.493 . S
C2455 C998 1.495 . S
C2460 C734 1.495 . S
C2465 C932 1.496 . S
C2470 C767 1.496 . S
C2475 C800 1.492 . S
C2480 C1460 1.493 . S
C2485 C1493 1.493 . S
C2490 C965 1.493 . S
C2495 C1328 1.493 . S
C2500 C1031 1.493 . S
C2505 C1064 1.492 . S
C2510 C1295 1.493 . S
C2515 C1196 1.493 . S
C2520 C1097 1.493 . S
C2525 C1130 1.494 . S
C2530 C1229 1.495 . S
C2535 C1163 1.495 . S
C2540 C1262 1.494 . S
C2545 C149 1.767 1_545 S
C2550 C17 1.767 1_565 S
C2555 C182 1.768 . S
C2560 C50 1.769 . S
C2565 C215 1.770 1_565 S
C2570 C83 1.769 1_545 S
C2575 C116 1.767 . S
C2580 C248 1.767 . S
C2585 C479 1.770 1_554 S
C2590 C281 1.770 1_556 S
C2595 C512 1.767 . S
C2600 C314 1.767 . S
C2605 C347 1.767 . S
C2610 C413 1.766 . S
C2615 C380 1.765 . S
C2620 C446 1.766 . S
C2625 C545 1.770 1_655 S
C2630 C1502 1.770 1_455 S
C2635 C578 1.770 . S
C2640 C1436 1.769 . S
C2645 C611 1.770 . S
C2650 C677 1.770 . S
C2655 C1370 1.770 1_655 S
C2660 C644 1.769 1_455 S
C2665 C1337 1.768 . S
C2670 C710 1.768 . S
C2675 C743 1.769 . S
C2680 C1568 1.768 . S
C2685 C1535 1.769 . S
C2690 C776 1.768 . S
C2695 C941 1.771 . S
C2700 C809 1.771 . S
C2705 C974 1.765 . S
C2710 C842 1.766 . S
C2715 C875 1.769 . S
C2720 C1007 1.770 . S
C2725 C908 1.767 . S
C2730 C1040 1.767 . S
C2735 C1073 1.768 . S
C2740 C1271 1.768 . S
C2745 C1106 1.767 . S
C2750 C1304 1.767 . S
C2755 C1139 1.770 1_556 S
C2760 C1205 1.769 1_554 S
C2765 C1172 1.764 . S
C2770 C1238 1.766 . S
C2775 C1469 1.770 . S
C2780 C1403 1.770 . S
