# Generated by pormake.
# Topology uow, (4)-cn, num edge types: 1
# Building blocks:
#     Node 0, Type 0, BuildingBlock: CEKHIL_clean_sbu_0, # of connection points: 4
#     Node 1, Type 0, BuildingBlock: CEKHIL_clean_sbu_0, # of connection points: 4
#     Node 2, Type 0, BuildingBlock: CEKHIL_clean_sbu_0, # of connection points: 4
#     Node 3, Type 0, BuildingBlock: CEKHIL_clean_sbu_0, # of connection points: 4
#     Node 4, Type 0, BuildingBlock: CEKHIL_clean_sbu_0, # of connection points: 4
#     Node 5, Type 0, BuildingBlock: CEKHIL_clean_sbu_0, # of connection points: 4
#     Node 6, Type 0, BuildingBlock: CEKHIL_clean_sbu_0, # of connection points: 4
#     Node 7, Type 0, BuildingBlock: CEKHIL_clean_sbu_0, # of connection points: 4
#     Node 8, Type 0, BuildingBlock: CEKHIL_clean_sbu_0, # of connection points: 4
#     Node 9, Type 0, BuildingBlock: CEKHIL_clean_sbu_0, # of connection points: 4
#     Node 10, Type 0, BuildingBlock: CEKHIL_clean_sbu_0, # of connection points: 4
#     Node 11, Type 0, BuildingBlock: CEKHIL_clean_sbu_0, # of connection points: 4
#     Node 12, Type 0, BuildingBlock: CEKHIL_clean_sbu_0, # of connection points: 4
#     Node 13, Type 0, BuildingBlock: CEKHIL_clean_sbu_0, # of connection points: 4
#     Node 14, Type 0, BuildingBlock: CEKHIL_clean_sbu_0, # of connection points: 4
#     Node 15, Type 0, BuildingBlock: CEKHIL_clean_sbu_0, # of connection points: 4
#     Node 16, Type 0, BuildingBlock: CEKHIL_clean_sbu_0, # of connection points: 4
#     Node 17, Type 0, BuildingBlock: CEKHIL_clean_sbu_0, # of connection points: 4
#     Node 18, Type 0, BuildingBlock: CEKHIL_clean_sbu_0, # of connection points: 4
#     Node 19, Type 0, BuildingBlock: CEKHIL_clean_sbu_0, # of connection points: 4
#     Node 20, Type 0, BuildingBlock: CEKHIL_clean_sbu_0, # of connection points: 4
#     Node 21, Type 0, BuildingBlock: CEKHIL_clean_sbu_0, # of connection points: 4
#     Node 22, Type 0, BuildingBlock: CEKHIL_clean_sbu_0, # of connection points: 4
#     Node 23, Type 0, BuildingBlock: CEKHIL_clean_sbu_0, # of connection points: 4
#     Node 24, Type 0, BuildingBlock: CEKHIL_clean_sbu_0, # of connection points: 4
#     Node 25, Type 0, BuildingBlock: CEKHIL_clean_sbu_0, # of connection points: 4
#     Node 26, Type 0, BuildingBlock: CEKHIL_clean_sbu_0, # of connection points: 4
#     Node 27, Type 0, BuildingBlock: CEKHIL_clean_sbu_0, # of connection points: 4
#     Node 28, Type 0, BuildingBlock: CEKHIL_clean_sbu_0, # of connection points: 4
#     Node 29, Type 0, BuildingBlock: CEKHIL_clean_sbu_0, # of connection points: 4
#     Node 30, Type 0, BuildingBlock: CEKHIL_clean_sbu_0, # of connection points: 4
#     Node 31, Type 0, BuildingBlock: CEKHIL_clean_sbu_0, # of connection points: 4
#     Edge 32, Type (0, 0), BuildingBlock: KIFKEQ_clean_linker_1, # of connection points: 2
#     Edge 33, Type (0, 0), BuildingBlock: KIFKEQ_clean_linker_1, # of connection points: 2
#     Edge 34, Type (0, 0), BuildingBlock: KIFKEQ_clean_linker_1, # of connection points: 2
#     Edge 35, Type (0, 0), BuildingBlock: KIFKEQ_clean_linker_1, # of connection points: 2
#     Edge 36, Type (0, 0), BuildingBlock: KIFKEQ_clean_linker_1, # of connection points: 2
#     Edge 37, Type (0, 0), BuildingBlock: KIFKEQ_clean_linker_1, # of connection points: 2
#     Edge 38, Type (0, 0), BuildingBlock: KIFKEQ_clean_linker_1, # of connection points: 2
#     Edge 39, Type (0, 0), BuildingBlock: KIFKEQ_clean_linker_1, # of connection points: 2
#     Edge 40, Type (0, 0), BuildingBlock: KIFKEQ_clean_linker_1, # of connection points: 2
#     Edge 41, Type (0, 0), BuildingBlock: KIFKEQ_clean_linker_1, # of connection points: 2
#     Edge 42, Type (0, 0), BuildingBlock: KIFKEQ_clean_linker_1, # of connection points: 2
#     Edge 43, Type (0, 0), BuildingBlock: KIFKEQ_clean_linker_1, # of connection points: 2
#     Edge 44, Type (0, 0), BuildingBlock: KIFKEQ_clean_linker_1, # of connection points: 2
#     Edge 45, Type (0, 0), BuildingBlock: KIFKEQ_clean_linker_1, # of connection points: 2
#     Edge 46, Type (0, 0), BuildingBlock: KIFKEQ_clean_linker_1, # of connection points: 2
#     Edge 47, Type (0, 0), BuildingBlock: KIFKEQ_clean_linker_1, # of connection points: 2
#     Edge 48, Type (0, 0), BuildingBlock: KIFKEQ_clean_linker_1, # of connection points: 2
#     Edge 49, Type (0, 0), BuildingBlock: KIFKEQ_clean_linker_1, # of connection points: 2
#     Edge 50, Type (0, 0), BuildingBlock: KIFKEQ_clean_linker_1, # of connection points: 2
#     Edge 51, Type (0, 0), BuildingBlock: KIFKEQ_clean_linker_1, # of connection points: 2
#     Edge 52, Type (0, 0), BuildingBlock: KIFKEQ_clean_linker_1, # of connection points: 2
#     Edge 53, Type (0, 0), BuildingBlock: KIFKEQ_clean_linker_1, # of connection points: 2
#     Edge 54, Type (0, 0), BuildingBlock: KIFKEQ_clean_linker_1, # of connection points: 2
#     Edge 55, Type (0, 0), BuildingBlock: KIFKEQ_clean_linker_1, # of connection points: 2
#     Edge 56, Type (0, 0), BuildingBlock: KIFKEQ_clean_linker_1, # of connection points: 2
#     Edge 57, Type (0, 0), BuildingBlock: KIFKEQ_clean_linker_1, # of connection points: 2
#     Edge 58, Type (0, 0), BuildingBlock: KIFKEQ_clean_linker_1, # of connection points: 2
#     Edge 59, Type (0, 0), BuildingBlock: KIFKEQ_clean_linker_1, # of connection points: 2
#     Edge 60, Type (0, 0), BuildingBlock: KIFKEQ_clean_linker_1, # of connection points: 2
#     Edge 61, Type (0, 0), BuildingBlock: KIFKEQ_clean_linker_1, # of connection points: 2
#     Edge 62, Type (0, 0), BuildingBlock: KIFKEQ_clean_linker_1, # of connection points: 2
#     Edge 63, Type (0, 0), BuildingBlock: KIFKEQ_clean_linker_1, # of connection points: 2
#     Edge 64, Type (0, 0), BuildingBlock: KIFKEQ_clean_linker_1, # of connection points: 2
#     Edge 65, Type (0, 0), BuildingBlock: KIFKEQ_clean_linker_1, # of connection points: 2
#     Edge 66, Type (0, 0), BuildingBlock: KIFKEQ_clean_linker_1, # of connection points: 2
#     Edge 67, Type (0, 0), BuildingBlock: KIFKEQ_clean_linker_1, # of connection points: 2
#     Edge 68, Type (0, 0), BuildingBlock: KIFKEQ_clean_linker_1, # of connection points: 2
#     Edge 69, Type (0, 0), BuildingBlock: KIFKEQ_clean_linker_1, # of connection points: 2
#     Edge 70, Type (0, 0), BuildingBlock: KIFKEQ_clean_linker_1, # of connection points: 2
#     Edge 71, Type (0, 0), BuildingBlock: KIFKEQ_clean_linker_1, # of connection points: 2
#     Edge 72, Type (0, 0), BuildingBlock: KIFKEQ_clean_linker_1, # of connection points: 2
#     Edge 73, Type (0, 0), BuildingBlock: KIFKEQ_clean_linker_1, # of connection points: 2
#     Edge 74, Type (0, 0), BuildingBlock: KIFKEQ_clean_linker_1, # of connection points: 2
#     Edge 75, Type (0, 0), BuildingBlock: KIFKEQ_clean_linker_1, # of connection points: 2
#     Edge 76, Type (0, 0), BuildingBlock: KIFKEQ_clean_linker_1, # of connection points: 2
#     Edge 77, Type (0, 0), BuildingBlock: KIFKEQ_clean_linker_1, # of connection points: 2
#     Edge 78, Type (0, 0), BuildingBlock: KIFKEQ_clean_linker_1, # of connection points: 2
#     Edge 79, Type (0, 0), BuildingBlock: KIFKEQ_clean_linker_1, # of connection points: 2
#     Edge 80, Type (0, 0), BuildingBlock: KIFKEQ_clean_linker_1, # of connection points: 2
#     Edge 81, Type (0, 0), BuildingBlock: KIFKEQ_clean_linker_1, # of connection points: 2
#     Edge 82, Type (0, 0), BuildingBlock: KIFKEQ_clean_linker_1, # of connection points: 2
#     Edge 83, Type (0, 0), BuildingBlock: KIFKEQ_clean_linker_1, # of connection points: 2
#     Edge 84, Type (0, 0), BuildingBlock: KIFKEQ_clean_linker_1, # of connection points: 2
#     Edge 85, Type (0, 0), BuildingBlock: KIFKEQ_clean_linker_1, # of connection points: 2
#     Edge 86, Type (0, 0), BuildingBlock: KIFKEQ_clean_linker_1, # of connection points: 2
#     Edge 87, Type (0, 0), BuildingBlock: KIFKEQ_clean_linker_1, # of connection points: 2
#     Edge 88, Type (0, 0), BuildingBlock: KIFKEQ_clean_linker_1, # of connection points: 2
#     Edge 89, Type (0, 0), BuildingBlock: KIFKEQ_clean_linker_1, # of connection points: 2
#     Edge 90, Type (0, 0), BuildingBlock: KIFKEQ_clean_linker_1, # of connection points: 2
#     Edge 91, Type (0, 0), BuildingBlock: KIFKEQ_clean_linker_1, # of connection points: 2
#     Edge 92, Type (0, 0), BuildingBlock: KIFKEQ_clean_linker_1, # of connection points: 2
#     Edge 93, Type (0, 0), BuildingBlock: KIFKEQ_clean_linker_1, # of connection points: 2
#     Edge 94, Type (0, 0), BuildingBlock: KIFKEQ_clean_linker_1, # of connection points: 2
#     Edge 95, Type (0, 0), BuildingBlock: KIFKEQ_clean_linker_1, # of connection points: 2
# Relax obj value: 0.098
# Max RMSD: 0.128
# Mean RMSD: 0.128
data_MOF--net-uow--node1-CEKHIL_clean_sbu_0--edge1-KIFKEQ_clean_linker_1
_symmetry_space_group_name_H-M    P1
_symmetry_Int_Tables_number       1
_symmetry_cell_setting            triclinic
loop_
_symmetry_equiv_pos_as_xyz
'x, y, z'
_cell_length_a     62.850869
_cell_length_b     62.838983
_cell_length_c     40.65823
_cell_angle_alpha  89.973461
_cell_angle_beta   89.972238
_cell_angle_gamma 90.004964
loop_
_atom_site_label
_atom_site_type_symbol
_atom_site_fract_x
_atom_site_fract_y
_atom_site_fract_z
_atom_type_partial_charge
Co0 Co 0.04094 0.38769 0.27308 0.0
O1 O 0.03417 0.41304 0.24871 0.0
O2 O 0.06301 0.40873 0.27937 0.0
C3 C 0.00842 0.38277 0.29566 0.0
O4 O 0.05313 0.36425 0.30214 0.0
Co5 Co 0.01758 0.34472 0.25926 0.0
O6 O 0.03188 0.33543 0.30034 0.0
C7 C 0.05079 0.36051 0.21358 0.0
C8 C 0.05174 0.42091 0.26026 0.0
C9 C 0.0477 0.34557 0.31213 0.0
O10 O 0.05611 0.37546 0.23362 0.0
O11 O 0.03478 0.34825 0.21818 0.0
O12 O 0.02168 0.39615 0.30886 0.0
O13 O 0.01445 0.37464 0.26814 0.0
Co14 Co 0.86321 0.7921 0.52672 0.0
O15 O 0.83585 0.78212 0.51346 0.0
O16 O 0.84205 0.8142 0.53409 0.0
C17 C 0.87295 0.76261 0.55454 0.0
O18 O 0.88962 0.80707 0.54412 0.0
Co19 Co 0.90301 0.76811 0.49985 0.0
O20 O 0.91831 0.78742 0.53041 0.0
C21 C 0.88043 0.79822 0.45712 0.0
C22 C 0.82847 0.80046 0.52247 0.0
C23 C 0.90978 0.80331 0.54484 0.0
O24 O 0.86883 0.80401 0.48156 0.0
O25 O 0.89347 0.78259 0.45839 0.0
O26 O 0.86083 0.77677 0.56839 0.0
O27 O 0.87652 0.76552 0.5236 0.0
Co28 Co 0.46518 0.61507 0.77494 0.0
O29 O 0.47262 0.59006 0.75027 0.0
O30 O 0.44375 0.59333 0.78123 0.0
C31 C 0.49758 0.62101 0.79721 0.0
O32 O 0.45254 0.63814 0.8043 0.0
Co33 Co 0.48711 0.65864 0.76014 0.0
O34 O 0.47314 0.66741 0.80178 0.0
C35 C 0.45451 0.64144 0.71492 0.0
C36 C 0.45526 0.58165 0.76169 0.0
C37 C 0.45774 0.65691 0.81418 0.0
O38 O 0.44947 0.62682 0.73568 0.0
O39 O 0.47028 0.6541 0.71892 0.0
O40 O 0.48484 0.60712 0.81044 0.0
O41 O 0.49122 0.62891 0.7697 0.0
Co42 Co 0.63726 0.21186 0.02526 0.0
O43 O 0.66354 0.21759 0.00299 0.0
O44 O 0.65647 0.18799 0.03067 0.0
C45 C 0.63394 0.2435 0.05097 0.0
O46 O 0.61194 0.20077 0.05162 0.0
Co47 Co 0.59734 0.23916 0.00774 0.0
O48 O 0.58405 0.2228 0.04402 0.0
C49 C 0.61107 0.20473 0.96317 0.0
C50 C 0.66977 0.199 0.01296 0.0
C51 C 0.59262 0.20657 0.05744 0.0
O52 O 0.62527 0.19877 0.98398 0.0
O53 O 0.59976 0.22151 0.96692 0.0
O54 O 0.64605 0.22875 0.06327 0.0
O55 O 0.62657 0.2396 0.022 0.0
Co56 Co 0.04112 0.61033 0.2152 0.0
O57 O 0.03309 0.58363 0.23451 0.0
O58 O 0.06414 0.59003 0.2105 0.0
C59 C 0.01074 0.61601 0.18695 0.0
O60 O 0.0547 0.63574 0.19212 0.0
Co61 Co 0.01527 0.65126 0.23241 0.0
O62 O 0.03449 0.66493 0.19994 0.0
C63 C 0.04479 0.63275 0.28088 0.0
C64 C 0.05169 0.57672 0.22571 0.0
C65 C 0.05061 0.65561 0.18743 0.0
O66 O 0.05267 0.62031 0.25889 0.0
O67 O 0.0283 0.64429 0.27603 0.0
O68 O 0.02542 0.60373 0.17483 0.0
O69 O 0.01396 0.62239 0.21664 0.0
Co70 Co 0.6415 0.78919 0.4571 0.0
O71 O 0.6692 0.78061 0.47111 0.0
O72 O 0.66134 0.81271 0.45186 0.0
C73 C 0.63431 0.75964 0.42763 0.0
O74 O 0.61463 0.80298 0.43896 0.0
Co75 Co 0.60233 0.76213 0.47918 0.0
O76 O 0.58679 0.7812 0.44857 0.0
C77 C 0.6229 0.79127 0.52607 0.0
C78 C 0.67554 0.79956 0.46326 0.0
C79 C 0.59483 0.798 0.43602 0.0
O80 O 0.63423 0.79935 0.50284 0.0
O81 O 0.61113 0.77483 0.52223 0.0
O82 O 0.64559 0.77485 0.41472 0.0
O83 O 0.62986 0.7619 0.45834 0.0
Co84 Co 0.46712 0.39309 0.70922 0.0
O85 O 0.47516 0.4201 0.72726 0.0
O86 O 0.44413 0.41334 0.70345 0.0
C87 C 0.49755 0.38661 0.68154 0.0
O88 O 0.45362 0.36709 0.68765 0.0
Co89 Co 0.49303 0.35273 0.72949 0.0
O90 O 0.47398 0.33827 0.69765 0.0
C91 C 0.46277 0.37206 0.77604 0.0
C92 C 0.45653 0.42683 0.71837 0.0
C93 C 0.45783 0.34712 0.68443 0.0
O94 O 0.45531 0.38413 0.75323 0.0
O95 O 0.4793 0.3604 0.77233 0.0
O96 O 0.48299 0.39868 0.66859 0.0
O97 O 0.49423 0.38107 0.7116 0.0
Co98 Co 0.85638 0.21459 0.96907 0.0
O99 O 0.82894 0.21996 0.98785 0.0
O100 O 0.83762 0.19075 0.96027 0.0
C101 C 0.86131 0.24651 0.94482 0.0
O102 O 0.88322 0.204 0.94625 0.0
Co103 Co 0.89469 0.2415 0.99453 0.0
O104 O 0.91045 0.22559 0.96005 0.0
C105 C 0.87787 0.2067 0.03513 0.0
C106 C 0.8234 0.20145 0.97666 0.0
C107 C 0.90287 0.20976 0.94426 0.0
O108 O 0.86595 0.20075 0.01119 0.0
O109 O 0.88883 0.22388 0.03473 0.0
O110 O 0.84982 0.23201 0.93058 0.0
O111 O 0.86682 0.24228 0.9747 0.0
Co112 Co 0.96311 0.6116 0.71489 0.0
O113 O 0.9691 0.58451 0.73444 0.0
O114 O 0.93989 0.59206 0.70608 0.0
C115 C 0.99504 0.6172 0.69121 0.0
O116 O 0.95204 0.63795 0.69109 0.0
Co117 Co 0.98879 0.65089 0.73987 0.0
O118 O 0.97313 0.66572 0.70416 0.0
C119 C 0.95482 0.63289 0.78085 0.0
C120 C 0.95087 0.57833 0.72302 0.0
C121 C 0.9576 0.65762 0.68827 0.0
O122 O 0.94882 0.62114 0.75672 0.0
O123 O 0.97182 0.64411 0.78036 0.0
O124 O 0.98099 0.60522 0.67684 0.0
O125 O 0.99041 0.62282 0.72088 0.0
Co126 Co 0.13591 0.21551 0.47821 0.0
O127 O 0.16096 0.22143 0.50374 0.0
O128 O 0.15659 0.19305 0.47208 0.0
C129 C 0.13197 0.24831 0.45615 0.0
O130 O 0.11261 0.2043 0.44792 0.0
Co131 Co 0.09335 0.23965 0.49168 0.0
O132 O 0.08453 0.22653 0.44947 0.0
C133 C 0.10709 0.20468 0.53577 0.0
C134 C 0.16867 0.20383 0.49202 0.0
C135 C 0.09431 0.21057 0.4374 0.0
O136 O 0.12273 0.19999 0.51665 0.0
O137 O 0.09502 0.22085 0.53131 0.0
O138 O 0.14538 0.23493 0.44332 0.0
O139 O 0.12339 0.24227 0.48337 0.0
Co140 Co 0.53981 0.38719 0.22139 0.0
O141 O 0.53267 0.41329 0.24323 0.0
O142 O 0.5632 0.40711 0.21759 0.0
C143 C 0.50903 0.38298 0.1936 0.0
O144 O 0.55244 0.36234 0.19575 0.0
Co145 Co 0.51331 0.34633 0.23661 0.0
O146 O 0.53139 0.33356 0.20183 0.0
C147 C 0.54517 0.36156 0.28434 0.0
C148 C 0.55131 0.4201 0.23444 0.0
C149 C 0.54761 0.34283 0.18952 0.0
O150 O 0.55196 0.37545 0.26359 0.0
O151 O 0.52863 0.3501 0.27938 0.0
O152 O 0.52374 0.39551 0.18221 0.0
O153 O 0.51238 0.37564 0.22275 0.0
Co154 Co 0.36178 0.78939 0.96769 0.0
O155 O 0.33497 0.78243 0.98756 0.0
O156 O 0.34073 0.8107 0.95612 0.0
C157 C 0.36961 0.75675 0.94786 0.0
O158 O 0.38743 0.80125 0.943 0.0
Co159 Co 0.40267 0.76763 0.99558 0.0
O160 O 0.41675 0.78346 0.95934 0.0
C161 C 0.3818 0.80165 0.03292 0.0
C162 C 0.32758 0.79957 0.97392 0.0
C163 C 0.40758 0.79748 0.94158 0.0
O164 O 0.37014 0.80619 0.00792 0.0
O165 O 0.39387 0.78528 0.03434 0.0
O166 O 0.35679 0.76921 0.93179 0.0
O167 O 0.37487 0.76333 0.97676 0.0
Co168 Co 0.96197 0.3916 0.78506 0.0
O169 O 0.97053 0.41781 0.76487 0.0
O170 O 0.93904 0.4122 0.78787 0.0
C171 C 0.992 0.38606 0.8142 0.0
O172 O 0.94794 0.3666 0.80867 0.0
Co173 Co 0.98779 0.35036 0.76946 0.0
O174 O 0.96822 0.33731 0.80204 0.0
C175 C 0.9593 0.36881 0.71965 0.0
C176 C 0.95177 0.425 0.77213 0.0
C177 C 0.95202 0.34679 0.81402 0.0
O178 O 0.95094 0.38113 0.74137 0.0
O179 O 0.97575 0.35734 0.72517 0.0
O180 O 0.97732 0.3986 0.82572 0.0
O181 O 0.98897 0.37935 0.78468 0.0
Co182 Co 0.3579 0.21297 0.53717 0.0
O183 O 0.331 0.22082 0.51848 0.0
O184 O 0.33735 0.19041 0.5444 0.0
C185 C 0.36459 0.24411 0.56283 0.0
O186 O 0.38364 0.19974 0.55983 0.0
Co187 Co 0.39885 0.23768 0.51627 0.0
O188 O 0.41184 0.22149 0.55315 0.0
C189 C 0.37933 0.20648 0.4712 0.0
C190 C 0.324 0.20257 0.52872 0.0
C191 C 0.40306 0.2051 0.56576 0.0
O192 O 0.36683 0.1999 0.4941 0.0
O193 O 0.39153 0.22269 0.47422 0.0
O194 O 0.35235 0.23002 0.57662 0.0
O195 O 0.3703 0.23988 0.53311 0.0
Co196 Co 0.53718 0.60786 0.28041 0.0
O197 O 0.53007 0.58027 0.26359 0.0
O198 O 0.56107 0.58872 0.2862 0.0
C199 C 0.50694 0.61364 0.30896 0.0
O200 O 0.54987 0.63464 0.30066 0.0
Co201 Co 0.50956 0.64688 0.25948 0.0
O202 O 0.52835 0.66254 0.29035 0.0
C203 C 0.53989 0.62797 0.21271 0.0
C204 C 0.54908 0.57449 0.27217 0.0
C205 C 0.54495 0.65447 0.30342 0.0
O206 O 0.5481 0.61662 0.23577 0.0
O207 O 0.52296 0.63904 0.21644 0.0
O208 O 0.5221 0.60226 0.32172 0.0
O209 O 0.50957 0.61882 0.27857 0.0
Co210 Co 0.13963 0.7869 0.02378 0.0
O211 O 0.16478 0.78057 -0.0013 0.0
O212 O 0.1596 0.81029 0.02692 0.0
C213 C 0.13706 0.75524 0.04979 0.0
O214 O 0.11605 0.79876 0.05297 0.0
Co215 Co 0.098 0.76065 0.01369 0.0
O216 O 0.08889 0.77543 0.05447 0.0
C217 C 0.10991 0.79429 0.96593 0.0
C218 C 0.17198 0.7989 0.00824 0.0
C219 C 0.09806 0.79232 0.06448 0.0
O220 O 0.12577 0.80004 0.98389 0.0
O221 O 0.09828 0.77808 0.97242 0.0
O222 O 0.1499 0.7698 0.06078 0.0
O223 O 0.12814 0.75944 0.022 0.0
Co224 Co 0.54102 0.88425 0.77286 0.0
O225 O 0.53302 0.90992 0.75036 0.0
O226 O 0.56351 0.9052 0.77675 0.0
C227 C 0.51004 0.87912 0.79996 0.0
O228 O 0.55446 0.86009 0.79922 0.0
Co229 Co 0.51626 0.8422 0.75822 0.0
O230 O 0.53472 0.83039 0.79329 0.0
C231 C 0.54797 0.85827 0.7107 0.0
C232 C 0.55125 0.91759 0.75947 0.0
C233 C 0.55047 0.8404 0.80562 0.0
O234 O 0.55402 0.87268 0.73113 0.0
O235 O 0.53188 0.84619 0.71574 0.0
O236 O 0.52418 0.89223 0.81149 0.0
O237 O 0.51406 0.8716 0.77115 0.0
Co238 Co 0.36478 0.29277 0.02014 0.0
O239 O 0.33842 0.28732 -0.00207 0.0
O240 O 0.34618 0.31714 0.02457 0.0
C241 C 0.36729 0.26144 0.047 0.0
O242 O 0.3901 0.30385 0.04631 0.0
Co243 Co 0.40443 0.26467 0.00464 0.0
O244 O 0.41805 0.28181 0.03978 0.0
C245 C 0.39078 0.29767 0.95754 0.0
C246 C 0.33264 0.3062 0.00727 0.0
C247 C 0.40939 0.29822 0.05249 0.0
O248 O 0.3772 0.30485 0.97843 0.0
O249 O 0.4015 0.2806 0.96218 0.0
O250 O 0.35546 0.27663 0.05867 0.0
O251 O 0.37499 0.2648 0.01806 0.0
Co252 Co 0.9634 0.11427 0.27537 0.0
O253 O 0.97425 0.08838 0.2572 0.0
O254 O 0.94331 0.0912 0.28291 0.0
C255 C 0.99386 0.12467 0.30006 0.0
O256 O 0.94778 0.13872 0.29796 0.0
Co257 Co 0.98346 0.15692 0.25061 0.0
O258 O 0.96438 0.16935 0.28445 0.0
C259 C 0.95336 0.13383 0.20866 0.0
C260 C 0.95705 0.07923 0.26762 0.0
C261 C 0.95 0.15909 0.29996 0.0
O262 O 0.94869 0.12136 0.23267 0.0
O263 O 0.9686 0.14733 0.20962 0.0
O264 O 0.98148 0.1109 0.31435 0.0
O265 O 0.98864 0.12955 0.27037 0.0
Co266 Co 0.14039 0.71288 0.52759 0.0
O267 O 0.16645 0.71831 0.50453 0.0
O268 O 0.159 0.68845 0.53133 0.0
C269 C 0.13852 0.74422 0.55453 0.0
O270 O 0.11532 0.7019 0.55454 0.0
Co271 Co 0.10076 0.74138 0.51369 0.0
O272 O 0.08777 0.72462 0.54983 0.0
C273 C 0.11322 0.70812 0.46612 0.0
C274 C 0.17234 0.69943 0.51367 0.0
C275 C 0.0963 0.70792 0.56184 0.0
O276 O 0.12733 0.70098 0.4862 0.0
O277 O 0.10255 0.72515 0.47139 0.0
O278 O 0.1503 0.7289 0.5659 0.0
O279 O 0.13039 0.74092 0.52588 0.0
Co280 Co 0.54009 0.10763 0.71404 0.0
O281 O 0.53148 0.08066 0.73182 0.0
O282 O 0.56179 0.08643 0.70533 0.0
C283 C 0.50887 0.11618 0.68973 0.0
O284 O 0.55402 0.13334 0.69214 0.0
Co285 Co 0.51722 0.14885 0.73853 0.0
O286 O 0.53586 0.16299 0.70576 0.0
C287 C 0.54689 0.12605 0.7818 0.0
C288 C 0.54941 0.07324 0.72094 0.0
C289 C 0.55085 0.15358 0.69037 0.0
O290 O 0.55395 0.11519 0.75731 0.0
O291 O 0.53049 0.13808 0.78007 0.0
O292 O 0.52215 0.10353 0.67491 0.0
O293 O 0.51387 0.12102 0.71949 0.0
Co294 Co 0.14683 0.29427 0.96112 0.0
O295 O 0.17481 0.2878 0.97682 0.0
O296 O 0.16473 0.31926 0.95736 0.0
C297 C 0.14242 0.26508 0.92986 0.0
O298 O 0.11938 0.30646 0.94242 0.0
Co299 Co 0.10929 0.26427 0.97982 0.0
O300 O 0.09252 0.28334 0.95076 0.0
C301 C 0.12681 0.29374 0.02912 0.0
C302 C 0.17959 0.3074 0.97006 0.0
C303 C 0.09981 0.30075 0.93919 0.0
O304 O 0.13802 0.30294 0.00681 0.0
O305 O 0.11616 0.2767 0.02395 0.0
O306 O 0.15277 0.28136 0.91835 0.0
O307 O 0.13729 0.26606 0.96052 0.0
Co308 Co 0.96182 0.88922 0.21264 0.0
O309 O 0.97003 0.9164 0.22989 0.0
O310 O 0.94046 0.91036 0.20155 0.0
C311 C 0.9938 0.88034 0.19127 0.0
O312 O 0.94883 0.86329 0.19023 0.0
Co313 Co 0.98353 0.84847 0.24114 0.0
O314 O 0.9671 0.8341 0.20584 0.0
C315 C 0.9505 0.87038 0.27932 0.0
C316 C 0.95264 0.92373 0.2171 0.0
C317 C 0.95261 0.84314 0.18886 0.0
O318 O 0.94597 0.88213 0.25439 0.0
O319 O 0.9665 0.8578 0.28026 0.0
O320 O 0.9811 0.89288 0.17512 0.0
O321 O 0.98783 0.87584 0.2208 0.0
Co322 Co 0.35879 0.71169 0.46375 0.0
O323 O 0.3316 0.71858 0.48227 0.0
O324 O 0.33959 0.68785 0.45837 0.0
C325 C 0.36377 0.74233 0.43582 0.0
O326 O 0.38505 0.69919 0.44163 0.0
Co327 Co 0.39837 0.73886 0.48308 0.0
O328 O 0.41333 0.72038 0.45095 0.0
C329 C 0.38023 0.70829 0.53031 0.0
C330 C 0.32566 0.69965 0.47348 0.0
C331 C 0.40484 0.704 0.43787 0.0
O332 O 0.36844 0.70032 0.50762 0.0
O333 O 0.3914 0.72514 0.5263 0.0
O334 O 0.35217 0.72724 0.42331 0.0
O335 O 0.36981 0.73932 0.46575 0.0
Co336 Co 0.45833 0.11685 0.22076 0.0
O337 O 0.46687 0.09121 0.24227 0.0
O338 O 0.43623 0.09538 0.21611 0.0
C339 C 0.48928 0.12316 0.19437 0.0
O340 O 0.44473 0.14133 0.1954 0.0
Co341 Co 0.48226 0.15865 0.23957 0.0
O342 O 0.46418 0.17095 0.20438 0.0
C343 C 0.45091 0.14028 0.28511 0.0
C344 C 0.44876 0.08322 0.23338 0.0
C345 C 0.44877 0.16121 0.19056 0.0
O346 O 0.44484 0.12718 0.26276 0.0
O347 O 0.46709 0.1525 0.28192 0.0
O348 O 0.4755 0.10997 0.18202 0.0
O349 O 0.48497 0.12992 0.22354 0.0
Co350 Co 0.63979 0.7126 0.97398 0.0
O351 O 0.66519 0.71858 -0.00135 0.0
O352 O 0.65925 0.68888 0.97069 0.0
C353 C 0.63749 0.7442 0.94769 0.0
O354 O 0.61599 0.70092 0.94521 0.0
Co355 Co 0.59849 0.73931 0.98415 0.0
O356 O 0.58879 0.72418 0.94401 0.0
C357 C 0.61019 0.70575 0.03213 0.0
C358 C 0.67195 0.70007 0.9891 0.0
C359 C 0.5979 0.70724 0.93405 0.0
O360 O 0.62594 0.69979 0.0141 0.0
O361 O 0.5987 0.72205 0.0256 0.0
O362 O 0.65013 0.72943 0.93674 0.0
O363 O 0.62863 0.74023 0.97563 0.0
Co364 Co 0.04282 0.89206 0.71341 0.0
O365 O 0.03218 0.91856 0.72931 0.0
O366 O 0.06523 0.91341 0.71187 0.0
C367 C 0.01457 0.88477 0.68109 0.0
O368 O 0.05868 0.86673 0.69399 0.0
Co369 Co 0.01716 0.85081 0.72973 0.0
O370 O 0.03848 0.83733 0.70036 0.0
C371 C 0.04345 0.87109 0.78072 0.0
C372 C 0.05087 0.92635 0.72343 0.0
C373 C 0.05511 0.84672 0.68966 0.0
O374 O 0.05188 0.88349 0.75915 0.0
O375 O 0.02769 0.85882 0.77453 0.0
O376 O 0.0296 0.8972 0.67043 0.0
O377 O 0.01619 0.87905 0.71139 0.0
Co378 Co 0.86503 0.29025 0.46991 0.0
O379 O 0.83967 0.28341 0.49411 0.0
O380 O 0.84512 0.31366 0.46729 0.0
C381 C 0.86778 0.25902 0.44267 0.0
O382 O 0.88882 0.30276 0.44184 0.0
Co383 Co 0.90664 0.26391 0.47959 0.0
O384 O 0.91627 0.27979 0.44009 0.0
C385 C 0.89382 0.29608 0.52912 0.0
C386 C 0.83258 0.30192 0.48516 0.0
C387 C 0.90703 0.29679 0.43065 0.0
O388 O 0.87844 0.30252 0.51075 0.0
O389 O 0.90546 0.27996 0.52213 0.0
O390 O 0.85509 0.27381 0.43199 0.0
O391 O 0.87656 0.26277 0.47072 0.0
Co392 Co 0.4591 0.89246 0.27949 0.0
O393 O 0.46892 0.91911 0.26284 0.0
O394 O 0.43735 0.91412 0.28578 0.0
C395 C 0.48903 0.88382 0.30695 0.0
O396 O 0.44432 0.86683 0.30011 0.0
Co397 Co 0.4827 0.85162 0.2556 0.0
O398 O 0.46365 0.8376 0.28801 0.0
C399 C 0.45248 0.87298 0.21165 0.0
C400 C 0.45085 0.92708 0.27193 0.0
C401 C 0.44801 0.84669 0.30231 0.0
O402 O 0.44653 0.88507 0.23542 0.0
O403 O 0.46828 0.86019 0.21361 0.0
O404 O 0.47514 0.8965 0.32021 0.0
O405 O 0.48555 0.87899 0.2766 0.0
Co406 Co 0.86064 0.70894 0.02882 0.0
O407 O 0.83346 0.71592 0.01037 0.0
O408 O 0.84077 0.68591 0.03682 0.0
C409 C 0.86683 0.74022 0.05423 0.0
O410 O 0.88685 0.69666 0.05134 0.0
Co411 Co 0.90041 0.73448 0.00525 0.0
O412 O 0.9153 0.71694 0.03873 0.0
C413 C 0.88158 0.70198 0.96227 0.0
C414 C 0.827 0.6976 0.02118 0.0
C415 C 0.90677 0.70128 0.05377 0.0
O416 O 0.86966 0.69557 0.98599 0.0
O417 O 0.89314 0.71873 0.96383 0.0
O418 O 0.8548 0.72595 0.06799 0.0
O419 O 0.87235 0.73619 0.0243 0.0
Co420 Co 0.03995 0.11403 0.78974 0.0
O421 O 0.02967 0.08644 0.778 0.0
O422 O 0.06226 0.09309 0.79633 0.0
C423 C 0.01102 0.12407 0.81867 0.0
O424 O 0.05555 0.14045 0.8056 0.0
Co425 Co 0.01573 0.15413 0.76443 0.0
O426 O 0.03737 0.16984 0.79046 0.0
C427 C 0.04224 0.12928 0.71908 0.0
C428 C 0.04832 0.07932 0.78599 0.0
C429 C 0.05294 0.16075 0.80484 0.0
O430 O 0.05033 0.11903 0.74342 0.0
O431 O 0.02635 0.14189 0.72201 0.0
O432 O 0.02553 0.11228 0.8324 0.0
O433 O 0.01347 0.12742 0.78764 0.0
Co434 Co 0.64455 0.28552 0.52973 0.0
O435 O 0.67173 0.27866 0.51095 0.0
O436 O 0.66385 0.30926 0.5353 0.0
C437 C 0.63955 0.25478 0.5575 0.0
O438 O 0.61846 0.29805 0.55222 0.0
Co439 Co 0.60469 0.25843 0.51116 0.0
O440 O 0.59001 0.27701 0.54348 0.0
C441 C 0.62203 0.28961 0.464 0.0
C442 C 0.67778 0.29748 0.52017 0.0
C443 C 0.59868 0.29338 0.55629 0.0
O444 O 0.63457 0.29715 0.48612 0.0
O445 O 0.61079 0.27283 0.46822 0.0
O446 O 0.65127 0.26976 0.57 0.0
O447 O 0.63342 0.25793 0.52765 0.0
H448 H 0.03995 0.3381 0.15921 0.0
H449 H 0.09286 0.3713 0.20384 0.0
H450 H 0.06364 0.32351 0.11787 0.0
H451 H 0.11672 0.35661 0.16148 0.0
H452 H 0.11167 0.27664 0.086 0.0
H453 H 0.09659 0.29611 0.13215 0.0
H454 H 0.11835 0.35531 0.09028 0.0
H455 H 0.1336 0.33587 0.04363 0.0
C456 C 0.0566 0.34254 0.15996 0.0
C457 C 0.06459 0.35555 0.18517 0.0
C458 C 0.07014 0.33412 0.13632 0.0
C459 C 0.09197 0.33859 0.13716 0.0
C460 C 0.0999 0.35286 0.1607 0.0
C461 C 0.08626 0.36129 0.18472 0.0
C462 C 0.1138 0.29374 0.08695 0.0
C463 C 0.12337 0.30476 0.06078 0.0
C464 C 0.10519 0.30485 0.11339 0.0
C465 C 0.10603 0.32714 0.11422 0.0
C466 C 0.11753 0.33809 0.08998 0.0
C467 C 0.12621 0.32693 0.06336 0.0
H468 H 0.95848 0.86832 0.34485 0.0
H469 H 0.9077 0.86639 0.27345 0.0
H470 H 0.93404 0.85521 0.38715 0.0
H471 H 0.88349 0.85236 0.31562 0.0
H472 H 0.8881 0.787 0.39344 0.0
H473 H 0.89925 0.81091 0.34913 0.0
H474 H 0.88864 0.86506 0.41208 0.0
H475 H 0.87667 0.8413 0.45614 0.0
C476 C 0.94192 0.86579 0.33856 0.0
C477 C 0.9349 0.86839 0.30608 0.0
C478 C 0.92798 0.85833 0.36266 0.0
C479 C 0.90701 0.85288 0.35439 0.0
C480 C 0.89957 0.85673 0.32245 0.0
C481 C 0.91337 0.8648 0.2985 0.0
C482 C 0.88732 0.80404 0.39735 0.0
C483 C 0.88161 0.81231 0.42818 0.0
C484 C 0.89362 0.81767 0.37204 0.0
C485 C 0.89471 0.83969 0.37745 0.0
C486 C 0.88766 0.84812 0.40743 0.0
C487 C 0.8808 0.83451 0.4325 0.0
H488 H 0.41203 0.63197 0.70749 0.0
H489 H 0.46584 0.6603 0.65767 0.0
H490 H 0.38833 0.64563 0.66412 0.0
H491 H 0.44229 0.67378 0.61508 0.0
H492 H 0.37466 0.66551 0.54081 0.0
H493 H 0.3892 0.64493 0.58697 0.0
H494 H 0.40796 0.70322 0.63476 0.0
H495 H 0.39362 0.7238 0.58909 0.0
C496 C 0.41884 0.64058 0.68694 0.0
C497 C 0.44072 0.6454 0.6862 0.0
C498 C 0.4053 0.64838 0.66232 0.0
C499 C 0.41361 0.66093 0.63684 0.0
C500 C 0.4356 0.66431 0.63483 0.0
C501 C 0.44903 0.65661 0.65921 0.0
C502 C 0.3812 0.67395 0.56173 0.0
C503 C 0.38342 0.69625 0.5611 0.0
C504 C 0.38946 0.66216 0.58804 0.0
C505 C 0.39979 0.67262 0.61394 0.0
C506 C 0.4001 0.69491 0.61481 0.0
C507 C 0.39197 0.70664 0.58865 0.0
H508 H 0.53205 0.12956 0.84396 0.0
H509 H 0.5902 0.12752 0.78743 0.0
H510 H 0.55134 0.14502 0.89011 0.0
H511 H 0.60954 0.14325 0.8339 0.0
H512 H 0.63002 0.16675 0.9456 0.0
H513 H 0.6173 0.14132 0.90406 0.0
H514 H 0.56723 0.18494 0.87729 0.0
H515 H 0.57974 0.21026 0.91778 0.0
C516 C 0.54912 0.13164 0.84192 0.0
C517 C 0.5596 0.12772 0.81206 0.0
C518 C 0.56012 0.1405 0.86826 0.0
C519 C 0.58174 0.14564 0.8651 0.0
C520 C 0.59284 0.13937 0.83676 0.0
C521 C 0.58179 0.13034 0.81029 0.0
C522 C 0.61649 0.17102 0.9305 0.0
C523 C 0.60577 0.19049 0.93531 0.0
C524 C 0.60924 0.15645 0.90689 0.0
C525 C 0.59108 0.1611 0.88822 0.0
C526 C 0.58105 0.18088 0.89196 0.0
C527 C 0.58834 0.19543 0.91506 0.0
H528 H 0.02837 0.64563 0.3392 0.0
H529 H 0.08768 0.62884 0.29209 0.0
H530 H 0.04792 0.66128 0.38479 0.0
H531 H 0.10733 0.6447 0.33818 0.0
H532 H 0.12673 0.66773 0.44961 0.0
H533 H 0.1119 0.64474 0.40647 0.0
H534 H 0.07125 0.6961 0.37477 0.0
H535 H 0.08588 0.71902 0.41701 0.0
C536 C 0.04559 0.64478 0.33901 0.0
C537 C 0.05651 0.6364 0.31182 0.0
C538 C 0.05675 0.65378 0.36505 0.0
C539 C 0.07905 0.65457 0.36446 0.0
C540 C 0.0901 0.6443 0.33901 0.0
C541 C 0.07886 0.63521 0.31276 0.0
C542 C 0.1149 0.67422 0.43305 0.0
C543 C 0.10725 0.69514 0.43714 0.0
C544 C 0.10643 0.66103 0.40849 0.0
C545 C 0.09014 0.66859 0.388 0.0
C546 C 0.08348 0.6898 0.39083 0.0
C547 C 0.09197 0.70294 0.41499 0.0
H548 H 0.61175 0.77514 0.58556 0.0
H549 H 0.62756 0.83413 0.53659 0.0
H550 H 0.59672 0.79509 0.63133 0.0
H551 H 0.61237 0.8541 0.58285 0.0
H552 H 0.58893 0.87158 0.69757 0.0
H553 H 0.61272 0.85745 0.65477 0.0
H554 H 0.56113 0.81963 0.61643 0.0
H555 H 0.53742 0.83366 0.65823 0.0
C556 C 0.61264 0.79235 0.58506 0.0
C557 C 0.62042 0.80307 0.55723 0.0
C558 C 0.60404 0.80374 0.61122 0.0
C559 C 0.60309 0.82603 0.61009 0.0
C560 C 0.61296 0.83689 0.58409 0.0
C561 C 0.62166 0.82544 0.55774 0.0
C562 C 0.58256 0.86063 0.67951 0.0
C563 C 0.56135 0.85347 0.68165 0.0
C564 C 0.5962 0.85254 0.65521 0.0
C565 C 0.58875 0.83716 0.63303 0.0
C566 C 0.56727 0.83119 0.63379 0.0
C567 C 0.55371 0.83929 0.6577 0.0
H568 H 0.41467 0.28583 0.90482 0.0
H569 H 0.37963 0.33924 0.94461 0.0
H570 H 0.42983 0.30888 0.86299 0.0
H571 H 0.39493 0.36232 0.90193 0.0
H572 H 0.47742 0.35831 0.83509 0.0
H573 H 0.45621 0.34304 0.87928 0.0
H574 H 0.39862 0.36236 0.82996 0.0
H575 H 0.41988 0.37774 0.78519 0.0
C576 C 0.4099 0.3024 0.90437 0.0
C577 C 0.39625 0.31076 0.92849 0.0
C578 C 0.41863 0.31557 0.88043 0.0
C579 C 0.41382 0.33734 0.87988 0.0
C580 C 0.39892 0.34555 0.90218 0.0
C581 C 0.39018 0.33232 0.92646 0.0
C582 C 0.46027 0.35987 0.83402 0.0
C583 C 0.4503 0.36882 0.80639 0.0
C584 C 0.44816 0.35112 0.85928 0.0
C585 C 0.42589 0.35124 0.85747 0.0
C586 C 0.41581 0.3621 0.83167 0.0
C587 C 0.42799 0.37091 0.8062 0.0
H588 H 0.87854 0.16344 0.03203 0.0
H589 H 0.88659 0.21616 0.09908 0.0
H590 H 0.89304 0.13916 0.07359 0.0
H591 H 0.90035 0.19169 0.14081 0.0
H592 H 0.91021 0.13247 0.21103 0.0
H593 H 0.88593 0.14606 0.16871 0.0
H594 H 0.9387 0.15326 0.10184 0.0
H595 H 0.96312 0.14047 0.14435 0.0
C596 C 0.8826 0.16969 0.05605 0.0
C597 C 0.88158 0.19169 0.06238 0.0
C598 C 0.89089 0.1558 0.07967 0.0
C599 C 0.8976 0.16368 0.11017 0.0
C600 C 0.895 0.18534 0.11745 0.0
C601 C 0.88724 0.1993 0.09362 0.0
C602 C 0.91648 0.13615 0.18686 0.0
C603 C 0.93851 0.13552 0.18084 0.0
C604 C 0.90261 0.14396 0.16282 0.0
C605 C 0.91059 0.15055 0.13229 0.0
C606 C 0.93228 0.14802 0.12523 0.0
C607 C 0.9462 0.14075 0.14947 0.0
H608 H 0.96532 0.63977 0.84486 0.0
H609 H 0.91152 0.63361 0.77946 0.0
H610 H 0.94154 0.65199 0.88865 0.0
H611 H 0.88789 0.64658 0.82314 0.0
H612 H 0.88821 0.7138 0.89876 0.0
H613 H 0.90152 0.69116 0.85431 0.0
H614 H 0.89705 0.63624 0.91754 0.0
H615 H 0.88297 0.65872 0.96184 0.0
C616 C 0.94837 0.64053 0.84015 0.0
C617 C 0.94023 0.63584 0.80884 0.0
C618 C 0.93482 0.64741 0.86515 0.0
C619 C 0.91303 0.65008 0.859 0.0
C620 C 0.90465 0.64436 0.82833 0.0
C621 C 0.91815 0.63695 0.8035 0.0
C622 C 0.88933 0.69679 0.90275 0.0
C623 C 0.88462 0.68798 0.93363 0.0
C624 C 0.89686 0.68389 0.87739 0.0
C625 C 0.90017 0.6621 0.88278 0.0
C626 C 0.89434 0.65301 0.91294 0.0
C627 C 0.88628 0.66585 0.93811 0.0
H628 H 0.12305 0.1646 0.54937 0.0
H629 H 0.07766 0.21147 0.58354 0.0
H630 H 0.10921 0.13918 0.59025 0.0
H631 H 0.06402 0.18623 0.62319 0.0
H632 H 0.0252 0.13481 0.6584 0.0
H633 H 0.04408 0.1485 0.61051 0.0
H634 H 0.10397 0.13999 0.66057 0.0
H635 H 0.08508 0.12598 0.70869 0.0
C636 C 0.11036 0.16957 0.56568 0.0
C637 C 0.10128 0.19 0.56284 0.0
C638 C 0.10244 0.155 0.58885 0.0
C639 C 0.08524 0.16068 0.60904 0.0
C640 C 0.07695 0.18134 0.60723 0.0
C641 C 0.08489 0.19583 0.58457 0.0
C642 C 0.04244 0.13501 0.65871 0.0
C643 C 0.05366 0.1298 0.68743 0.0
C644 C 0.05322 0.14282 0.63134 0.0
C645 C 0.07536 0.14564 0.63233 0.0
C646 C 0.08688 0.13791 0.65936 0.0
C647 C 0.07605 0.12991 0.68682 0.0
H648 H 0.6276 0.33253 0.45441 0.0
H649 H 0.6062 0.27512 0.40609 0.0
H650 H 0.61125 0.35389 0.41059 0.0
H651 H 0.58996 0.29642 0.36291 0.0
H652 H 0.53341 0.33813 0.33759 0.0
H653 H 0.5566 0.323 0.37922 0.0
H654 H 0.60991 0.35778 0.33952 0.0
H655 H 0.58667 0.37302 0.29704 0.0
C656 C 0.62007 0.32446 0.43396 0.0
C657 C 0.6178 0.30216 0.43398 0.0
C658 C 0.6107 0.33669 0.40903 0.0
C659 C 0.59905 0.3267 0.38399 0.0
C660 C 0.59861 0.30442 0.38236 0.0
C661 C 0.60793 0.29226 0.40705 0.0
C662 C 0.54997 0.34291 0.33788 0.0
C663 C 0.55826 0.35647 0.31356 0.0
C664 C 0.56323 0.33419 0.3617 0.0
C665 C 0.58502 0.33893 0.36195 0.0
C666 C 0.59313 0.35384 0.33952 0.0
C667 C 0.57981 0.36256 0.31536 0.0
H668 H 0.40933 0.8754 0.21014 0.0
H669 H 0.46432 0.86538 0.14829 0.0
H670 H 0.38617 0.86308 0.16558 0.0
H671 H 0.44102 0.85389 0.10346 0.0
H672 H 0.38737 0.84424 0.02621 0.0
H673 H 0.40104 0.86853 0.06853 0.0
H674 H 0.39548 0.81871 0.14101 0.0
H675 H 0.38273 0.79418 0.09861 0.0
C676 C 0.41638 0.87146 0.18659 0.0
C677 C 0.43861 0.87119 0.1826 0.0
C678 C 0.40312 0.86441 0.16124 0.0
C679 C 0.41192 0.85771 0.13132 0.0
C680 C 0.43396 0.85926 0.12632 0.0
C681 C 0.44725 0.86573 0.15192 0.0
C682 C 0.38835 0.83876 0.05144 0.0
C683 C 0.38406 0.81742 0.05935 0.0
C684 C 0.3962 0.85261 0.07548 0.0
C685 C 0.39913 0.84539 0.10779 0.0
C686 C 0.39306 0.82461 0.11624 0.0
C687 C 0.38584 0.81062 0.09208 0.0
H688 H 0.91666 0.37249 0.70645 0.0
H689 H 0.97709 0.35695 0.6618 0.0
H690 H 0.89815 0.35745 0.65866 0.0
H691 H 0.95868 0.34223 0.61437 0.0
H692 H 0.92228 0.28517 0.57655 0.0
H693 H 0.93648 0.30746 0.61982 0.0
H694 H 0.89375 0.35813 0.59213 0.0
H695 H 0.8793 0.3357 0.54796 0.0
C696 C 0.92597 0.36656 0.68599 0.0
C697 C 0.94829 0.36544 0.68806 0.0
C698 C 0.91538 0.35795 0.65874 0.0
C699 C 0.92705 0.34827 0.63339 0.0
C700 C 0.94936 0.34922 0.63402 0.0
C701 C 0.95987 0.35767 0.66111 0.0
C702 C 0.91569 0.30098 0.5796 0.0
C703 C 0.89985 0.30873 0.55838 0.0
C704 C 0.92395 0.31378 0.60434 0.0
C705 C 0.91655 0.33465 0.60867 0.0
C706 C 0.89981 0.34213 0.58896 0.0
C707 C 0.89155 0.32927 0.56383 0.0
H708 H 0.40806 0.13339 0.2908 0.0
H709 H 0.46322 0.15458 0.3452 0.0
H710 H 0.38493 0.14587 0.33554 0.0
H711 H 0.4401 0.1667 0.38966 0.0
H712 H 0.37644 0.16324 0.46557 0.0
H713 H 0.39042 0.14174 0.41994 0.0
H714 H 0.40271 0.19897 0.36459 0.0
H715 H 0.38912 0.22047 0.40996 0.0
C716 C 0.41527 0.14003 0.3127 0.0
C717 C 0.43742 0.14327 0.31443 0.0
C718 C 0.40204 0.14713 0.33815 0.0
C719 C 0.41091 0.15717 0.36567 0.0
C720 C 0.43306 0.15892 0.36851 0.0
C721 C 0.44622 0.15207 0.34308 0.0
C722 C 0.38138 0.17115 0.44315 0.0
C723 C 0.38196 0.1935 0.44132 0.0
C724 C 0.38936 0.15886 0.4172 0.0
C725 C 0.39758 0.16887 0.38913 0.0
C726 C 0.39634 0.19105 0.38613 0.0
C727 C 0.38864 0.20329 0.41205 0.0
H728 H 0.58301 0.62559 0.20347 0.0
H729 H 0.52395 0.63851 0.15287 0.0
H730 H 0.60279 0.64166 0.1578 0.0
H731 H 0.54369 0.6543 0.10747 0.0
H732 H 0.57905 0.71419 0.07675 0.0
H733 H 0.56385 0.69019 0.11695 0.0
H734 H 0.61019 0.64225 0.09171 0.0
H735 H 0.62565 0.66638 0.05056 0.0
C736 C 0.57432 0.63109 0.18209 0.0
C737 C 0.55192 0.63125 0.18196 0.0
C738 C 0.58565 0.6403 0.15604 0.0
C739 C 0.57466 0.64963 0.12968 0.0
C740 C 0.55245 0.64757 0.12794 0.0
C741 C 0.54118 0.6385 0.15386 0.0
C742 C 0.58623 0.69864 0.07971 0.0
C743 C 0.60342 0.69215 0.06 0.0
C744 C 0.57738 0.68484 0.10265 0.0
C745 C 0.58554 0.66424 0.10671 0.0
C746 C 0.60352 0.65802 0.08864 0.0
C747 C 0.61236 0.67186 0.06527 0.0
H748 H 0.08582 0.87545 0.79481 0.0
H749 H 0.02527 0.85909 0.83835 0.0
H750 H 0.10419 0.85963 0.84202 0.0
H751 H 0.04357 0.84365 0.8854 0.0
H752 H 0.07975 0.78541 0.92 0.0
H753 H 0.06492 0.80914 0.87914 0.0
H754 H 0.10963 0.85805 0.90695 0.0
H755 H 0.12474 0.83413 0.94867 0.0
C756 C 0.07644 0.86926 0.81502 0.0
C757 C 0.05413 0.86808 0.81268 0.0
C758 C 0.08697 0.86018 0.84196 0.0
C759 C 0.07526 0.84996 0.86678 0.0
C760 C 0.05294 0.85102 0.86613 0.0
C761 C 0.04248 0.85993 0.8393 0.0
C762 C 0.08662 0.80114 0.9175 0.0
C763 C 0.10329 0.80792 0.93801 0.0
C764 C 0.07797 0.8148 0.89419 0.0
C765 C 0.08576 0.83559 0.89057 0.0
C766 C 0.10321 0.84214 0.90961 0.0
C767 C 0.11187 0.82842 0.93332 0.0
H768 H 0.09036 0.35073 0.32274 0.0
H769 H 0.03556 0.31521 0.35601 0.0
H770 H 0.1132 0.32967 0.35931 0.0
H771 H 0.05828 0.29456 0.39278 0.0
H772 H 0.10168 0.27612 0.47675 0.0
H773 H 0.08255 0.30221 0.44382 0.0
H774 H 0.12278 0.28805 0.36063 0.0
H775 H 0.14185 0.26142 0.39349 0.0
C776 C 0.08317 0.3387 0.33826 0.0
C777 C 0.06119 0.33459 0.33657 0.0
C778 C 0.09624 0.3266 0.35893 0.0
C779 C 0.08745 0.31056 0.37878 0.0
C780 C 0.06541 0.30696 0.37787 0.0
C781 C 0.05243 0.31871 0.35678 0.0
C782 C 0.10667 0.27868 0.45155 0.0
C783 C 0.12308 0.26647 0.43755 0.0
C784 C 0.09568 0.29362 0.43276 0.0
C785 C 0.10108 0.29695 0.39969 0.0
C786 C 0.11838 0.28578 0.38616 0.0
C787 C 0.12925 0.27055 0.40492 0.0
H788 H 0.89909 0.83253 0.59223 0.0
H789 H 0.95268 0.80748 0.53793 0.0
H790 H 0.92327 0.85538 0.62356 0.0
H791 H 0.97662 0.8302 0.56912 0.0
H792 H 0.01241 0.88588 0.61388 0.0
H793 H 0.9856 0.8689 0.5789 0.0
H794 H 0.95204 0.84731 0.66541 0.0
H795 H 0.97872 0.86415 0.70023 0.0
C796 C 0.91595 0.83202 0.58678 0.0
C797 C 0.92398 0.81804 0.56282 0.0
C798 C 0.92977 0.84505 0.60474 0.0
C799 C 0.9518 0.84455 0.5987 0.0
C800 C 0.9597 0.83109 0.57405 0.0
C801 C 0.94598 0.81792 0.55643 0.0
C802 C 0.99917 0.87771 0.62534 0.0
C803 C 0.9977 0.87618 0.65971 0.0
C804 C 0.98389 0.86796 0.60538 0.0
C805 C 0.96677 0.85679 0.6195 0.0
C806 C 0.96492 0.856 0.65387 0.0
C807 C 0.98029 0.8655 0.67377 0.0
H808 H 0.4024 0.73304 0.97219 0.0
H809 H 0.36111 0.73921 0.88778 0.0
H810 H 0.42292 0.70581 0.94349 0.0
H811 H 0.38155 0.71169 0.85927 0.0
H812 H 0.41551 0.65039 0.82716 0.0
H813 H 0.39251 0.67182 0.86284 0.0
H814 H 0.44677 0.70934 0.89239 0.0
H815 H 0.46966 0.68821 0.85662 0.0
C816 C 0.39752 0.7284 0.94769 0.0
C817 C 0.38029 0.73845 0.93207 0.0
C818 C 0.40929 0.71281 0.93129 0.0
C819 C 0.40386 0.70673 0.89915 0.0
C820 C 0.38597 0.71598 0.88415 0.0
C821 C 0.37436 0.7318 0.90039 0.0
C822 C 0.42256 0.66297 0.84174 0.0
C823 C 0.44436 0.66771 0.839 0.0
C824 C 0.40939 0.67529 0.86195 0.0
C825 C 0.41787 0.69224 0.88026 0.0
C826 C 0.43983 0.69627 0.87873 0.0
C827 C 0.45291 0.68424 0.85813 0.0
H828 H 0.60474 0.17865 0.10615 0.0
H829 H 0.54954 0.20392 0.05621 0.0
H830 H 0.58135 0.1561 0.13992 0.0
H831 H 0.52655 0.18129 0.08926 0.0
H832 H 0.4948 0.12112 0.12791 0.0
H833 H 0.52157 0.13977 0.09507 0.0
H834 H 0.55011 0.16445 0.1837 0.0
H835 H 0.52314 0.14608 0.21666 0.0
C836 C 0.5877 0.17936 0.10235 0.0
C837 C 0.57898 0.19314 0.07865 0.0
C838 C 0.57437 0.16651 0.12163 0.0
C839 C 0.55223 0.16688 0.11688 0.0
C840 C 0.54359 0.18055 0.09312 0.0
C841 C 0.55678 0.19364 0.07442 0.0
C842 C 0.50695 0.13027 0.14041 0.0
C843 C 0.50682 0.13229 0.17479 0.0
C844 C 0.52221 0.14096 0.12164 0.0
C845 C 0.53781 0.15355 0.13694 0.0
C846 C 0.53833 0.15472 0.17139 0.0
C847 C 0.52284 0.14432 0.19016 0.0
H848 H 0.07965 0.64217 0.14137 0.0
H849 H 0.05572 0.69859 0.18962 0.0
H850 H 0.10407 0.66432 0.109 0.0
H851 H 0.08015 0.72045 0.15772 0.0
H852 H 0.13923 0.75182 0.11673 0.0
H853 H 0.12067 0.72586 0.15131 0.0
H854 H 0.09803 0.69354 0.06445 0.0
H855 H 0.11634 0.71958 0.02989 0.0
C856 C 0.07968 0.65922 0.1452 0.0
C857 C 0.06564 0.66863 0.16788 0.0
C858 C 0.09362 0.67186 0.1267 0.0
C859 C 0.09408 0.69405 0.13109 0.0
C860 C 0.08033 0.70336 0.15416 0.0
C861 C 0.06618 0.69083 0.17217 0.0
C862 C 0.13068 0.7389 0.10506 0.0
C863 C 0.12912 0.73774 0.07067 0.0
C864 C 0.11998 0.72415 0.12482 0.0
C865 C 0.10785 0.70779 0.11049 0.0
C866 C 0.10738 0.7059 0.07611 0.0
C867 C 0.11778 0.72084 0.05638 0.0
H868 H 0.52308 0.86155 0.28369 0.0
H869 H 0.49357 0.88324 0.37362 0.0
H870 H 0.55011 0.84273 0.31577 0.0
H871 H 0.52047 0.86423 0.4056 0.0
H872 H 0.55185 0.80113 0.44224 0.0
H873 H 0.52767 0.82402 0.41163 0.0
H874 H 0.58072 0.85032 0.3578 0.0
H875 H 0.60519 0.82746 0.38881 0.0
C876 C 0.52249 0.86244 0.31028 0.0
C877 C 0.50619 0.87377 0.3262 0.0
C878 C 0.53801 0.85178 0.32859 0.0
C879 C 0.5373 0.85202 0.3631 0.0
C880 C 0.52127 0.86372 0.37899 0.0
C881 C 0.50595 0.87464 0.3607 0.0
C882 C 0.55843 0.81182 0.42396 0.0
C883 C 0.58044 0.81244 0.41785 0.0
C884 C 0.54457 0.82503 0.40663 0.0
C885 C 0.55236 0.83894 0.38246 0.0
C886 C 0.57435 0.83967 0.37629 0.0
C887 C 0.58832 0.82667 0.39409 0.0
H888 H 0.38495 0.27868 0.53786 0.0
H889 H 0.36748 0.24865 0.62955 0.0
H890 H 0.40566 0.30521 0.56792 0.0
H891 H 0.38841 0.27513 0.6596 0.0
H892 H 0.45407 0.30404 0.68866 0.0
H893 H 0.42891 0.28104 0.66041 0.0
H894 H 0.40198 0.33554 0.61103 0.0
H895 H 0.42718 0.35888 0.63969 0.0
C896 C 0.38529 0.27795 0.56447 0.0
C897 C 0.37468 0.26158 0.58139 0.0
C898 C 0.39706 0.29319 0.58164 0.0
C899 C 0.39871 0.29213 0.61602 0.0
C900 C 0.38749 0.27619 0.63304 0.0
C901 C 0.37544 0.26113 0.61589 0.0
C902 C 0.44285 0.31121 0.67176 0.0
C903 C 0.44272 0.33333 0.66632 0.0
C904 C 0.42829 0.29802 0.65585 0.0
C905 C 0.41341 0.30654 0.63378 0.0
C906 C 0.41331 0.3286 0.62799 0.0
C907 C 0.4277 0.34192 0.64438 0.0
H908 H 0.9757 0.14334 0.79417 0.0
H909 H 0.00785 0.12874 0.88532 0.0
H910 H 0.94849 0.16297 0.8245 0.0
H911 H 0.98064 0.14856 0.91565 0.0
H912 H 0.94619 0.21052 0.94678 0.0
H913 H 0.97119 0.18816 0.91704 0.0
H914 H 0.91903 0.15689 0.86778 0.0
H915 H 0.8937 0.17928 0.89784 0.0
C916 C 0.97685 0.1442 0.82072 0.0
C917 C 0.99392 0.13461 0.83743 0.0
C918 C 0.96122 0.15533 0.83804 0.0
C919 C 0.96253 0.15732 0.87235 0.0
C920 C 0.97937 0.14737 0.88914 0.0
C921 C 0.99486 0.13598 0.87185 0.0
C922 C 0.93994 0.19898 0.92952 0.0
C923 C 0.91789 0.19675 0.92464 0.0
C924 C 0.95431 0.18603 0.91274 0.0
C925 C 0.94703 0.1707 0.89037 0.0
C926 C 0.92503 0.16863 0.88494 0.0
C927 C 0.91057 0.18142 0.90214 0.0
H928 H 0.95707 0.70093 0.68969 0.0
H929 H 0.92917 0.64711 0.63941 0.0
H930 H 0.93544 0.72503 0.65705 0.0
H931 H 0.90751 0.67158 0.60633 0.0
H932 H 0.89486 0.72834 0.53092 0.0
H933 H 0.91452 0.70168 0.5627 0.0
H934 H 0.89531 0.73255 0.65277 0.0
H935 H 0.87552 0.75902 0.62117 0.0
C936 C 0.94642 0.6942 0.67152 0.0
C937 C 0.94487 0.67204 0.66717 0.0
C938 C 0.93391 0.70805 0.65301 0.0
C939 C 0.91973 0.70015 0.62937 0.0
C940 C 0.91838 0.67805 0.62442 0.0
C941 C 0.93071 0.66409 0.64338 0.0
C942 C 0.8947 0.72929 0.55752 0.0
C943 C 0.88374 0.74578 0.5736 0.0
C944 C 0.90585 0.714 0.57565 0.0
C945 C 0.90648 0.71514 0.61013 0.0
C946 C 0.8952 0.73141 0.62618 0.0
C947 C 0.88382 0.7465 0.60811 0.0
H948 H 0.01742 0.15816 0.27806 0.0
H949 H 0.00948 0.11629 0.3615 0.0
H950 H 0.0443 0.17826 0.30816 0.0
H951 H 0.03662 0.13637 0.39151 0.0
H952 H 0.09901 0.16811 0.42451 0.0
H953 H 0.07666 0.14605 0.38886 0.0
H954 H 0.04156 0.20187 0.35907 0.0
H955 H 0.06367 0.22386 0.39477 0.0
C956 C 0.02153 0.15313 0.30273 0.0
C957 C 0.01121 0.13575 0.31755 0.0
C958 C 0.03691 0.16466 0.31992 0.0
C959 C 0.04249 0.15888 0.35213 0.0
C960 C 0.03273 0.14104 0.36657 0.0
C961 C 0.01713 0.12965 0.3495 0.0
C962 C 0.08677 0.1757 0.40989 0.0
C963 C 0.08303 0.19769 0.4125 0.0
C964 C 0.0739 0.16306 0.38973 0.0
C965 C 0.05735 0.17227 0.37138 0.0
C966 C 0.05428 0.19438 0.37282 0.0
C967 C 0.06689 0.20694 0.39333 0.0
H968 H 0.61208 0.2784 0.02996 0.0
H969 H 0.63604 0.24784 0.11765 0.0
H970 H 0.59341 0.30456 0.06396 0.0
H971 H 0.61715 0.27384 0.15151 0.0
H972 H 0.55203 0.29984 0.18994 0.0
H973 H 0.57599 0.27815 0.15701 0.0
H974 H 0.59993 0.33457 0.10907 0.0
H975 H 0.576 0.35661 0.14264 0.0
C976 C 0.61364 0.2775 0.05646 0.0
C977 C 0.62538 0.26102 0.07119 0.0
C978 C 0.60304 0.29251 0.07585 0.0
C979 C 0.60376 0.29108 0.11028 0.0
C980 C 0.61627 0.27517 0.12498 0.0
C981 C 0.62713 0.26037 0.10561 0.0
C982 C 0.56235 0.3077 0.17239 0.0
C983 C 0.56205 0.32995 0.16878 0.0
C984 C 0.57621 0.29527 0.15378 0.0
C985 C 0.58988 0.30473 0.13075 0.0
C986 C 0.58953 0.32695 0.12677 0.0
C987 C 0.57589 0.3395 0.14594 0.0
H988 H 0.39564 0.82262 0.88924 0.0
H989 H 0.45051 0.80255 0.94537 0.0
H990 H 0.41878 0.84488 0.85482 0.0
H991 H 0.47328 0.82475 0.91138 0.0
H992 H 0.50488 0.88265 0.86646 0.0
H993 H 0.47845 0.86455 0.90064 0.0
H994 H 0.44963 0.83769 0.8137 0.0
H995 H 0.47613 0.85564 0.77949 0.0
C996 C 0.41256 0.82296 0.89426 0.0
C997 C 0.42122 0.81072 0.91995 0.0
C998 C 0.42577 0.83566 0.87458 0.0
C999 C 0.44777 0.83665 0.88068 0.0
C1000 C 0.45635 0.82453 0.90643 0.0
C1001 C 0.44328 0.81163 0.92568 0.0
C1002 C 0.49272 0.87315 0.85463 0.0
C1003 C 0.49264 0.87043 0.82036 0.0
C1004 C 0.47766 0.86273 0.87418 0.0
C1005 C 0.46209 0.84964 0.85978 0.0
C1006 C 0.46138 0.84778 0.8254 0.0
C1007 C 0.47661 0.85796 0.80588 0.0
H1008 H 0.86009 0.25292 0.87856 0.0
H1009 H 0.88457 0.27988 0.96866 0.0
H1010 H 0.88004 0.27921 0.84684 0.0
H1011 H 0.90438 0.30637 0.93673 0.0
H1012 H 0.9239 0.36019 0.86162 0.0
H1013 H 0.89923 0.33799 0.89371 0.0
H1014 H 0.9211 0.28231 0.84162 0.0
H1015 H 0.94577 0.30413 0.81017 0.0
C1016 C 0.86942 0.26469 0.89162 0.0
C1017 C 0.87093 0.26423 0.92608 0.0
C1018 C 0.88087 0.27969 0.87345 0.0
C1019 C 0.89383 0.29469 0.88938 0.0
C1020 C 0.89441 0.29503 0.9239 0.0
C1021 C 0.88316 0.27982 0.94211 0.0
C1022 C 0.92337 0.34322 0.85706 0.0
C1023 C 0.93686 0.33389 0.83351 0.0
C1024 C 0.90932 0.33056 0.87543 0.0
C1025 C 0.90821 0.3085 0.86992 0.0
C1026 C 0.92148 0.29931 0.8461 0.0
C1027 C 0.93574 0.31181 0.8283 0.0
H1028 H 0.4833 0.14721 0.71427 0.0
H1029 H 0.49432 0.10976 0.62677 0.0
H1030 H 0.45624 0.16765 0.68542 0.0
H1031 H 0.46663 0.13015 0.59802 0.0
H1032 H 0.39997 0.16193 0.57364 0.0
H1033 H 0.4244 0.13863 0.60408 0.0
H1034 H 0.46061 0.1935 0.63466 0.0
H1035 H 0.43661 0.21669 0.60392 0.0
C1036 C 0.47984 0.14319 0.68894 0.0
C1037 C 0.49114 0.12701 0.67266 0.0
C1038 C 0.46432 0.15492 0.67248 0.0
C1039 C 0.45947 0.15051 0.63954 0.0
C1040 C 0.47006 0.13376 0.62352 0.0
C1041 C 0.48592 0.12218 0.6399 0.0
C1042 C 0.41302 0.16899 0.58717 0.0
C1043 C 0.41639 0.19112 0.58649 0.0
C1044 C 0.42705 0.15567 0.60429 0.0
C1045 C 0.44434 0.16432 0.62159 0.0
C1046 C 0.44733 0.18647 0.62161 0.0
C1047 C 0.43363 0.19971 0.604 0.0
H1048 H 0.62976 0.75766 0.36078 0.0
H1049 H 0.61645 0.7232 0.4504 0.0
H1050 H 0.60988 0.73097 0.32943 0.0
H1051 H 0.59676 0.69657 0.41913 0.0
H1052 H 0.57711 0.64393 0.34614 0.0
H1053 H 0.60136 0.66822 0.37465 0.0
H1054 H 0.57036 0.72183 0.32871 0.0
H1055 H 0.54616 0.6978 0.30042 0.0
C1056 C 0.62289 0.74423 0.37367 0.0
C1057 C 0.62453 0.74253 0.40799 0.0
C1058 C 0.61144 0.72904 0.35579 0.0
C1059 C 0.60173 0.71177 0.37192 0.0
C1060 C 0.6042 0.70962 0.40605 0.0
C1061 C 0.61538 0.72492 0.42394 0.0
C1062 C 0.5755 0.66089 0.34212 0.0
C1063 C 0.55961 0.66892 0.32117 0.0
C1064 C 0.58936 0.67476 0.35843 0.0
C1065 C 0.5878 0.69687 0.35368 0.0
C1066 C 0.57211 0.70485 0.33248 0.0
C1067 C 0.5581 0.69106 0.31656 0.0
H1068 H 0.10139 0.83541 0.07266 0.0
H1069 H 0.06786 0.78007 0.10867 0.0
H1070 H 0.07834 0.85833 0.10592 0.0
H1071 H 0.04505 0.80291 0.14193 0.0
H1072 H 0.01866 0.84908 0.21738 0.0
H1073 H 0.04658 0.82879 0.18996 0.0
H1074 H 0.03825 0.86673 0.10237 0.0
H1075 H 0.01009 0.887 0.12971 0.0
C1076 C 0.0894 0.82812 0.08816 0.0
C1077 C 0.08636 0.80595 0.08798 0.0
C1078 C 0.07613 0.84124 0.10695 0.0
C1079 C 0.05987 0.83239 0.12635 0.0
C1080 C 0.05753 0.81016 0.12736 0.0
C1081 C 0.07054 0.7971 0.10822 0.0
C1082 C 0.02287 0.85323 0.19236 0.0
C1083 C 0.01203 0.86951 0.17557 0.0
C1084 C 0.03884 0.84158 0.17669 0.0
C1085 C 0.04451 0.84615 0.14404 0.0
C1086 C 0.0343 0.863 0.12766 0.0
C1087 C 0.01812 0.87451 0.14323 0.0
H1088 H 0.64044 0.74755 0.88083 0.0
H1089 H 0.6161 0.7797 0.96685 0.0
H1090 H 0.62176 0.77301 0.84563 0.0
H1091 H 0.59764 0.80527 0.9316 0.0
H1092 H 0.57866 0.85545 0.85191 0.0
H1093 H 0.60329 0.83443 0.8858 0.0
H1094 H 0.58091 0.7769 0.83933 0.0
H1095 H 0.5563 0.79757 0.80607 0.0
C1096 C 0.63155 0.76035 0.8922 0.0
C1097 C 0.62958 0.76158 0.92655 0.0
C1098 C 0.62079 0.77484 0.87208 0.0
C1099 C 0.60817 0.79098 0.88596 0.0
C1100 C 0.60736 0.79305 0.9203 0.0
C1101 C 0.61784 0.77837 0.94042 0.0
C1102 C 0.57906 0.83832 0.84897 0.0
C1103 C 0.56542 0.82817 0.82649 0.0
C1104 C 0.59312 0.82634 0.86831 0.0
C1105 C 0.59411 0.80409 0.86488 0.0
C1106 C 0.58069 0.79405 0.84213 0.0
C1107 C 0.56643 0.8059 0.82335 0.0
H1108 H 0.50674 0.38353 0.12656 0.0
H1109 H 0.47331 0.36211 0.21331 0.0
H1110 H 0.48114 0.36458 0.09196 0.0
H1111 H 0.44757 0.34343 0.17865 0.0
H1112 H 0.39636 0.32738 0.09859 0.0
H1113 H 0.41894 0.35054 0.13241 0.0
H1114 H 0.47491 0.32366 0.08707 0.0
H1115 H 0.45262 0.30043 0.05379 0.0
C1116 C 0.49369 0.37515 0.13819 0.0
C1117 C 0.49204 0.37419 0.17259 0.0
C1118 C 0.47913 0.36423 0.11842 0.0
C1119 C 0.46249 0.35249 0.13272 0.0
C1120 C 0.4602 0.35246 0.16705 0.0
C1121 C 0.47495 0.36307 0.18683 0.0
C1122 C 0.41348 0.32642 0.09592 0.0
C1123 C 0.4227 0.31199 0.07365 0.0
C1124 C 0.42635 0.33964 0.11524 0.0
C1125 C 0.44861 0.33896 0.11206 0.0
C1126 C 0.45778 0.32467 0.08968 0.0
C1127 C 0.44499 0.31123 0.07088 0.0
H1128 H 0.8908 0.22445 0.46143 0.0
H1129 H 0.86177 0.25384 0.37653 0.0
H1130 H 0.90754 0.19795 0.42597 0.0
H1131 H 0.87856 0.22729 0.34102 0.0
H1132 H 0.94094 0.20117 0.29386 0.0
H1133 H 0.91743 0.22272 0.32751 0.0
H1134 H 0.90111 0.16749 0.38545 0.0
H1135 H 0.92482 0.14559 0.35138 0.0
C1136 C 0.8877 0.22501 0.43524 0.0
C1137 C 0.87515 0.24132 0.42169 0.0
C1138 C 0.89717 0.20975 0.41498 0.0
C1139 C 0.89446 0.21065 0.38074 0.0
C1140 C 0.88106 0.22635 0.36734 0.0
C1141 C 0.87139 0.24148 0.38766 0.0
C1142 C 0.93232 0.1935 0.31367 0.0
C1143 C 0.93491 0.17166 0.32012 0.0
C1144 C 0.91865 0.20585 0.33272 0.0
C1145 C 0.90735 0.19677 0.35898 0.0
C1146 C 0.90967 0.17488 0.36534 0.0
C1147 C 0.92319 0.16237 0.34585 0.0
H1148 H 0.05309 0.70737 0.56546 0.0
H1149 H 0.10913 0.67696 0.6054 0.0
H1150 H 0.0306 0.68328 0.59689 0.0
H1151 H 0.08627 0.65297 0.63755 0.0
H1152 H 0.02951 0.6381 0.71611 0.0
H1153 H 0.05592 0.65889 0.68542 0.0
H1154 H 0.02571 0.64092 0.5943 0.0
H1155 H 0.99961 0.61984 0.62472 0.0
C1156 C 0.06065 0.6957 0.58121 0.0
C1157 C 0.08294 0.6941 0.58293 0.0
C1158 C 0.04773 0.68181 0.59898 0.0
C1159 C 0.05675 0.66622 0.61932 0.0
C1160 C 0.079 0.66489 0.62191 0.0
C1161 C 0.09202 0.67857 0.60355 0.0
C1162 C 0.02878 0.63829 0.68949 0.0
C1163 C 0.01251 0.62741 0.67277 0.0
C1164 C 0.0439 0.6501 0.67201 0.0
C1165 C 0.04269 0.65154 0.63762 0.0
C1166 C 0.02686 0.6401 0.62086 0.0
C1167 C 0.01202 0.62798 0.63826 0.0
H1168 H 0.63964 0.25094 0.62448 0.0
H1169 H 0.61848 0.21969 0.53573 0.0
H1170 H 0.62031 0.2247 0.65743 0.0
H1171 H 0.59925 0.19347 0.56866 0.0
H1172 H 0.57929 0.14105 0.64264 0.0
H1173 H 0.60375 0.16375 0.6113 0.0
H1174 H 0.58063 0.21885 0.66364 0.0
H1175 H 0.5563 0.19648 0.69464 0.0
C1176 C 0.63118 0.23826 0.61205 0.0
C1177 C 0.63042 0.23744 0.57756 0.0
C1178 C 0.62004 0.22332 0.63087 0.0
C1179 C 0.60817 0.20714 0.61556 0.0
C1180 C 0.60837 0.20567 0.58111 0.0
C1181 C 0.61928 0.22075 0.56229 0.0
C1182 C 0.57948 0.158 0.64745 0.0
C1183 C 0.56573 0.16695 0.671 0.0
C1184 C 0.59345 0.17096 0.62952 0.0
C1185 C 0.59418 0.19303 0.63524 0.0
C1186 C 0.58064 0.20187 0.65903 0.0
C1187 C 0.56652 0.18903 0.67655 0.0
H1188 H 0.02891 0.36898 0.79243 0.0
H1189 H 0.99404 0.38301 0.88134 0.0
H1190 H 0.05602 0.35058 0.82456 0.0
H1191 H 0.02119 0.36426 0.91363 0.0
H1192 H 0.05646 0.30082 0.9431 0.0
H1193 H 0.03159 0.32447 0.91519 0.0
H1194 H 0.08412 0.35728 0.86925 0.0
H1195 H 0.10919 0.33368 0.89739 0.0
C1196 C 0.02722 0.36836 0.81893 0.0
C1197 C 0.0094 0.37737 0.83444 0.0
C1198 C 0.04278 0.35792 0.8373 0.0
C1199 C 0.04066 0.35597 0.87152 0.0
C1200 C 0.02312 0.36549 0.88722 0.0
C1201 C 0.0077 0.3763 0.86883 0.0
C1202 C 0.06276 0.31309 0.92711 0.0
C1203 C 0.08482 0.31527 0.92229 0.0
C1204 C 0.0485 0.32677 0.91142 0.0
C1205 C 0.05596 0.34274 0.89022 0.0
C1206 C 0.07799 0.34505 0.88547 0.0
C1207 C 0.0923 0.33156 0.90157 0.0
H1208 H 0.86519 0.74643 0.12051 0.0
H1209 H 0.89065 0.77333 0.03094 0.0
H1210 H 0.88455 0.77293 0.1526 0.0
H1211 H 0.90993 0.79997 0.0632 0.0
H1212 H 0.92666 0.85487 0.13743 0.0
H1213 H 0.90382 0.83159 0.1042 0.0
H1214 H 0.92477 0.77734 0.16069 0.0
H1215 H 0.94754 0.80025 0.19349 0.0
C1216 C 0.87467 0.75819 0.10765 0.0
C1217 C 0.87654 0.75772 0.07324 0.0
C1218 C 0.8858 0.77329 0.12602 0.0
C1219 C 0.89883 0.78838 0.11034 0.0
C1220 C 0.89991 0.78858 0.07585 0.0
C1221 C 0.88896 0.77328 0.05745 0.0
C1222 C 0.92638 0.83797 0.14268 0.0
C1223 C 0.93897 0.82942 0.16804 0.0
C1224 C 0.91336 0.82469 0.12365 0.0
C1225 C 0.91244 0.80273 0.13012 0.0
C1226 C 0.92497 0.79425 0.15547 0.0
C1227 C 0.93816 0.80739 0.17406 0.0
H1228 H 0.44817 0.70198 0.43919 0.0
H1229 H 0.3931 0.67274 0.39429 0.0
H1230 H 0.47131 0.67762 0.40943 0.0
H1231 H 0.41651 0.64836 0.36424 0.0
H1232 H 0.47078 0.63257 0.28695 0.0
H1233 H 0.44482 0.65272 0.31903 0.0
H1234 H 0.47914 0.63766 0.408 0.0
H1235 H 0.50509 0.61732 0.37591 0.0
C1236 C 0.44098 0.69041 0.42288 0.0
C1237 C 0.41876 0.68939 0.419 0.0
C1238 C 0.45426 0.67631 0.40611 0.0
C1239 C 0.44568 0.66103 0.38474 0.0
C1240 C 0.4235 0.66003 0.38059 0.0
C1241 C 0.41014 0.67396 0.39779 0.0
C1242 C 0.47259 0.63329 0.31343 0.0
C1243 C 0.48997 0.62345 0.32896 0.0
C1244 C 0.45769 0.64474 0.33176 0.0
C1245 C 0.46006 0.64683 0.36593 0.0
C1246 C 0.47706 0.63642 0.38162 0.0
C1247 C 0.49181 0.62469 0.36332 0.0
H1248 H 0.42244 0.1475 0.14073 0.0
H1249 H 0.44263 0.20391 0.19292 0.0
H1250 H 0.39937 0.16959 0.10579 0.0
H1251 H 0.41964 0.2256 0.15859 0.0
H1252 H 0.36244 0.25656 0.11328 0.0
H1253 H 0.37958 0.23005 0.14837 0.0
H1254 H 0.40672 0.19991 0.0627 0.0
H1255 H 0.38969 0.22649 0.0275 0.0
C1256 C 0.42186 0.16452 0.14487 0.0
C1257 C 0.43445 0.17397 0.16943 0.0
C1258 C 0.40872 0.17711 0.1249 0.0
C1259 C 0.40763 0.19925 0.12974 0.0
C1260 C 0.41995 0.20856 0.15462 0.0
C1261 C 0.43329 0.19611 0.17406 0.0
C1262 C 0.37174 0.24406 0.10188 0.0
C1263 C 0.37492 0.2437 0.0677 0.0
C1264 C 0.38158 0.22894 0.12196 0.0
C1265 C 0.39457 0.21305 0.10821 0.0
C1266 C 0.39669 0.21191 0.07389 0.0
C1267 C 0.38704 0.22719 0.05381 0.0
H1268 H 0.51166 0.61222 0.85976 0.0
H1269 H 0.52427 0.65178 0.77498 0.0
H1270 H 0.53869 0.6319 0.89089 0.0
H1271 H 0.55085 0.67141 0.80609 0.0
H1272 H 0.56748 0.71928 0.89015 0.0
H1273 H 0.54566 0.69637 0.85545 0.0
H1274 H 0.57948 0.64119 0.89106 0.0
H1275 H 0.6016 0.66419 0.92572 0.0
C1276 C 0.52039 0.62485 0.84765 0.0
C1277 C 0.51566 0.63062 0.81508 0.0
C1278 C 0.53587 0.63606 0.86541 0.0
C1279 C 0.54665 0.65329 0.85092 0.0
C1280 C 0.54257 0.65837 0.81794 0.0
C1281 C 0.52735 0.64708 0.80016 0.0
C1282 C 0.57044 0.7023 0.89032 0.0
C1283 C 0.58624 0.69354 0.91064 0.0
C1284 C 0.55801 0.6892 0.87038 0.0
C1285 C 0.5609 0.66703 0.87067 0.0
C1286 C 0.5769 0.65824 0.89056 0.0
C1287 C 0.58963 0.67141 0.91013 0.0
H1288 H 0.06165 0.80421 0.69591 0.0
H1289 H 0.08437 0.8596 0.64356 0.0
H1290 H 0.08596 0.78182 0.66481 0.0
H1291 H 0.10876 0.83691 0.612 0.0
H1292 H 0.11821 0.7802 0.5346 0.0
H1293 H 0.10166 0.80726 0.56927 0.0
H1294 H 0.12569 0.77554 0.65584 0.0
H1295 H 0.14239 0.74848 0.62113 0.0
C1296 C 0.07194 0.81163 0.67786 0.0
C1297 C 0.07097 0.83365 0.67198 0.0
C1298 C 0.08602 0.79881 0.66029 0.0
C1299 C 0.09928 0.80765 0.6361 0.0
C1300 C 0.09866 0.82973 0.63054 0.0
C1301 C 0.08477 0.84268 0.6486 0.0
C1302 C 0.1203 0.77924 0.561 0.0
C1303 C 0.13141 0.76215 0.57522 0.0
C1304 C 0.11095 0.7948 0.58081 0.0
C1305 C 0.11231 0.79341 0.6152 0.0
C1306 C 0.1243 0.77689 0.62936 0.0
C1307 C 0.1339 0.76147 0.60951 0.0
H1308 H 0.93661 0.28525 0.38521 0.0
H1309 H 0.90416 0.34011 0.42502 0.0
H1310 H 0.95852 0.30853 0.35119 0.0
H1311 H 0.92643 0.36351 0.39106 0.0
H1312 H 0.99542 0.39083 0.35908 0.0
H1313 H 0.96791 0.37159 0.39001 0.0
H1314 H 0.95283 0.33492 0.30338 0.0
H1315 H 0.97988 0.3541 0.27252 0.0
C1316 C 0.93404 0.30228 0.38646 0.0
C1317 C 0.91867 0.31086 0.40773 0.0
C1318 C 0.94652 0.31559 0.36692 0.0
C1319 C 0.94415 0.3378 0.36858 0.0
C1320 C 0.92859 0.34644 0.38947 0.0
C1321 C 0.91578 0.33305 0.40864 0.0
C1322 C 0.98593 0.37895 0.34655 0.0
C1323 C 0.99 0.37377 0.31352 0.0
C1324 C 0.97018 0.368 0.36419 0.0
C1325 C 0.95846 0.35163 0.34909 0.0
C1326 C 0.96183 0.34728 0.31568 0.0
C1327 C 0.97733 0.3583 0.29805 0.0
H1328 H 0.42001 0.85829 0.35119 0.0
H1329 H 0.44256 0.80398 0.29604 0.0
H1330 H 0.39654 0.83477 0.38298 0.0
H1331 H 0.41924 0.7808 0.32745 0.0
H1332 H 0.362 0.7471 0.36909 0.0
H1333 H 0.37986 0.77422 0.33592 0.0
H1334 H 0.40292 0.80442 0.42435 0.0
H1335 H 0.38513 0.77731 0.45754 0.0
C1336 C 0.41986 0.84143 0.34571 0.0
C1337 C 0.43325 0.83299 0.32126 0.0
C1338 C 0.40649 0.82799 0.36392 0.0
C1339 C 0.406 0.806 0.35751 0.0
C1340 C 0.41906 0.79772 0.33264 0.0
C1341 C 0.43259 0.81101 0.31487 0.0
C1342 C 0.37061 0.75971 0.38144 0.0
C1343 C 0.37233 0.76 0.41586 0.0
C1344 C 0.38088 0.77517 0.36247 0.0
C1345 C 0.39285 0.79134 0.37759 0.0
C1346 C 0.39367 0.79224 0.41207 0.0
C1347 C 0.3836 0.77664 0.43102 0.0
H1348 H 0.00729 0.61632 0.11992 0.0
H1349 H 0.97536 0.63647 0.2087 0.0
H1350 H 0.98069 0.6352 0.087 0.0
H1351 H 0.94875 0.65516 0.17581 0.0
H1352 H 0.89551 0.67225 0.1013 0.0
H1353 H 0.91926 0.64894 0.13277 0.0
H1354 H 0.9734 0.67511 0.08142 0.0
H1355 H 0.94995 0.69839 0.05028 0.0
C1356 C 0.9944 0.62447 0.13235 0.0
C1357 C 0.99343 0.62505 0.16683 0.0
C1358 C 0.97927 0.63534 0.11355 0.0
C1359 C 0.96275 0.64671 0.12891 0.0
C1360 C 0.96123 0.64642 0.16335 0.0
C1361 C 0.97651 0.63581 0.18213 0.0
C1362 C 0.91248 0.67301 0.09675 0.0
C1363 C 0.92083 0.68727 0.07342 0.0
C1364 C 0.92603 0.65969 0.11475 0.0
C1365 C 0.94812 0.66014 0.1093 0.0
C1366 C 0.95641 0.67423 0.08579 0.0
C1367 C 0.94296 0.68772 0.06822 0.0
H1368 H 0.14121 0.22254 0.94039 0.0
H1369 H 0.12216 0.27128 0.87191 0.0
H1370 H 0.12278 0.19581 0.90769 0.0
H1371 H 0.10195 0.24526 0.84069 0.0
H1372 H 0.07427 0.19404 0.77845 0.0
H1373 H 0.0994 0.21763 0.80572 0.0
H1374 H 0.09024 0.18261 0.89651 0.0
H1375 H 0.06676 0.15803 0.8679 0.0
C1376 C 0.13303 0.22743 0.91818 0.0
C1377 C 0.13318 0.24878 0.90835 0.0
C1378 C 0.12218 0.2122 0.8996 0.0
C1379 C 0.11047 0.21818 0.8715 0.0
C1380 C 0.11105 0.23971 0.86157 0.0
C1381 C 0.12255 0.25475 0.87954 0.0
C1382 C 0.07797 0.19136 0.80415 0.0
C1383 C 0.0687 0.17436 0.82121 0.0
C1384 C 0.09221 0.205 0.82 0.0
C1385 C 0.09688 0.2024 0.85368 0.0
C1386 C 0.08759 0.18507 0.8705 0.0
C1387 C 0.07393 0.17101 0.85427 0.0
H1388 H 0.61084 0.32483 0.59921 0.0
H1389 H 0.55539 0.29591 0.55496 0.0
H1390 H 0.5878 0.35002 0.62829 0.0
H1391 H 0.5326 0.3211 0.58371 0.0
H1392 H 0.49995 0.38261 0.61467 0.0
H1393 H 0.52577 0.3615 0.58348 0.0
H1394 H 0.55906 0.34653 0.67342 0.0
H1395 H 0.53322 0.3674 0.70458 0.0
C1396 C 0.59379 0.32384 0.59568 0.0
C1397 C 0.58496 0.30828 0.57491 0.0
C1398 C 0.58064 0.33824 0.61229 0.0
C1399 C 0.55847 0.33759 0.60796 0.0
C1400 C 0.54967 0.32214 0.58711 0.0
C1401 C 0.56274 0.30757 0.57094 0.0
C1402 C 0.513 0.37511 0.62765 0.0
C1403 C 0.51456 0.37654 0.66201 0.0
C1404 C 0.52766 0.36295 0.60987 0.0
C1405 C 0.54431 0.35232 0.62613 0.0
C1406 C 0.54646 0.35466 0.66028 0.0
C1407 C 0.53163 0.36653 0.67808 0.0
H1408 H 0.0415 0.44429 0.20633 0.0
H1409 H 0.07519 0.44769 0.29871 0.0
H1410 H 0.04734 0.4824 0.19783 0.0
H1411 H 0.08039 0.48607 0.29062 0.0
H1412 H 0.04076 0.55284 0.27842 0.0
H1413 H 0.04655 0.5147 0.2863 0.0
H1414 H 0.0809 0.51191 0.1945 0.0
H1415 H 0.07577 0.55044 0.18714 0.0
C1416 C 0.05043 0.45315 0.22455 0.0
C1417 C 0.0578 0.44313 0.25325 0.0
C1418 C 0.05388 0.47487 0.21957 0.0
C1419 C 0.06433 0.48704 0.24356 0.0
C1420 C 0.07238 0.47692 0.27174 0.0
C1421 C 0.06941 0.45504 0.27632 0.0
C1422 C 0.04996 0.54416 0.2603 0.0
C1423 C 0.05779 0.55447 0.23215 0.0
C1424 C 0.05336 0.52242 0.2649 0.0
C1425 C 0.06418 0.5105 0.24102 0.0
C1426 C 0.0726 0.52088 0.21329 0.0
C1427 C 0.06971 0.54283 0.20914 0.0
H1428 H 0.79686 0.77253 0.53172 0.0
H1429 H 0.80863 0.83789 0.50465 0.0
H1430 H 0.75977 0.77633 0.51636 0.0
H1431 H 0.77103 0.84164 0.48811 0.0
H1432 H 0.69337 0.83529 0.49107 0.0
H1433 H 0.73095 0.83919 0.50764 0.0
H1434 H 0.74556 0.77967 0.45956 0.0
H1435 H 0.70843 0.77556 0.44431 0.0
C1436 C 0.79138 0.78783 0.52279 0.0
C1437 C 0.80558 0.80482 0.51893 0.0
C1438 C 0.77018 0.78998 0.51379 0.0
C1439 C 0.76268 0.80908 0.50007 0.0
C1440 C 0.77647 0.82669 0.49838 0.0
C1441 C 0.79789 0.82458 0.50788 0.0
C1442 C 0.70485 0.82341 0.48348 0.0
C1443 C 0.69816 0.805 0.46683 0.0
C1444 C 0.72625 0.8256 0.49298 0.0
C1445 C 0.74101 0.80943 0.48565 0.0
C1446 C 0.73443 0.79207 0.46641 0.0
C1447 C 0.71323 0.78977 0.45746 0.0
H1448 H 0.46535 0.44924 0.77326 0.0
H1449 H 0.43381 0.45409 0.6793 0.0
H1450 H 0.45916 0.48708 0.7831 0.0
H1451 H 0.42827 0.49241 0.68869 0.0
H1452 H 0.46627 0.55963 0.70684 0.0
H1453 H 0.46058 0.52182 0.6958 0.0
H1454 H 0.42637 0.51567 0.78733 0.0
H1455 H 0.43151 0.55378 0.79803 0.0
C1456 C 0.45682 0.4584 0.75494 0.0
C1457 C 0.45011 0.44888 0.7255 0.0
C1458 C 0.45317 0.47998 0.76066 0.0
C1459 C 0.44322 0.49256 0.73667 0.0
C1460 C 0.43589 0.48294 0.70758 0.0
C1461 C 0.43901 0.46111 0.70225 0.0
C1462 C 0.45716 0.5503 0.72428 0.0
C1463 C 0.44946 0.55954 0.7534 0.0
C1464 C 0.45377 0.52874 0.71782 0.0
C1465 C 0.44301 0.51594 0.7407 0.0
C1466 C 0.43463 0.5253 0.76929 0.0
C1467 C 0.43758 0.54704 0.77538 0.0
H1468 H 0.79814 0.17811 0.93536 0.0
H1469 H 0.79996 0.20703 0.03157 0.0
H1470 H 0.76004 0.17044 0.94287 0.0
H1471 H 0.76237 0.19883 0.03945 0.0
H1472 H 0.69573 0.1738 0.05035 0.0
H1473 H 0.73384 0.16734 0.04126 0.0
H1474 H 0.73024 0.20073 0.94865 0.0
H1475 H 0.69253 0.20767 0.9581 0.0
C1476 C 0.79053 0.18223 0.95841 0.0
C1477 C 0.80179 0.19334 0.98277 0.0
C1478 C 0.76883 0.17786 0.9627 0.0
C1479 C 0.75837 0.18399 0.99178 0.0
C1480 C 0.77011 0.19371 0.01698 0.0
C1481 C 0.79154 0.19856 0.01236 0.0
C1482 C 0.70302 0.17925 0.02772 0.0
C1483 C 0.69136 0.19143 0.00508 0.0
C1484 C 0.72475 0.17557 0.02254 0.0
C1485 C 0.73489 0.18353 0.99424 0.0
C1486 C 0.72276 0.19424 0.97047 0.0
C1487 C 0.70125 0.19835 0.97602 0.0
H1488 H 0.96723 0.44767 0.72085 0.0
H1489 H 0.92252 0.45136 0.80131 0.0
H1490 H 0.96028 0.4848 0.70725 0.0
H1491 H 0.91595 0.489 0.78807 0.0
H1492 H 0.95124 0.55814 0.78149 0.0
H1493 H 0.94505 0.52032 0.79178 0.0
H1494 H 0.92892 0.51137 0.68953 0.0
H1495 H 0.93443 0.5496 0.6795 0.0
C1496 C 0.95571 0.45638 0.73538 0.0
C1497 C 0.94555 0.44674 0.76232 0.0
C1498 C 0.95158 0.47757 0.72738 0.0
C1499 C 0.93753 0.48969 0.74653 0.0
C1500 C 0.92679 0.4799 0.77287 0.0
C1501 C 0.93055 0.45845 0.78043 0.0
C1502 C 0.94576 0.54817 0.76146 0.0
C1503 C 0.94333 0.55661 0.72973 0.0
C1504 C 0.9421 0.52661 0.76738 0.0
C1505 C 0.93652 0.51299 0.74145 0.0
C1506 C 0.93313 0.52162 0.70993 0.0
C1507 C 0.93622 0.5434 0.70421 0.0
H1508 H 0.30059 0.21152 0.47481 0.0
H1509 H 0.29725 0.18026 0.5692 0.0
H1510 H 0.26251 0.20575 0.46685 0.0
H1511 H 0.25873 0.17512 0.56169 0.0
H1512 H 0.19157 0.21375 0.54655 0.0
H1513 H 0.22944 0.20734 0.55608 0.0
H1514 H 0.23354 0.17361 0.46389 0.0
H1515 H 0.19539 0.17948 0.45471 0.0
C1516 C 0.2917 0.20314 0.49363 0.0
C1517 C 0.30174 0.1964 0.52265 0.0
C1518 C 0.26998 0.19972 0.48899 0.0
C1519 C 0.25777 0.18997 0.51364 0.0
C1520 C 0.26789 0.1826 0.5423 0.0
C1521 C 0.28984 0.18549 0.54655 0.0
C1522 C 0.20045 0.20455 0.52868 0.0
C1523 C 0.19064 0.19724 0.49978 0.0
C1524 C 0.22205 0.20076 0.53427 0.0
C1525 C 0.23432 0.18999 0.51071 0.0
C1526 C 0.22434 0.18189 0.48244 0.0
C1527 C 0.20258 0.18524 0.47722 0.0
H1528 H 0.54141 0.55106 0.2179 0.0
H1529 H 0.57255 0.54868 0.3124 0.0
H1530 H 0.54877 0.51326 0.20964 0.0
H1531 H 0.57922 0.51039 0.30464 0.0
H1532 H 0.54038 0.44292 0.28831 0.0
H1533 H 0.54661 0.48078 0.29813 0.0
H1534 H 0.58242 0.48481 0.20779 0.0
H1535 H 0.57679 0.44657 0.19843 0.0
C1536 C 0.55014 0.54246 0.23665 0.0
C1537 C 0.55636 0.55263 0.26581 0.0
C1538 C 0.55448 0.52092 0.23182 0.0
C1539 C 0.56461 0.50903 0.25647 0.0
C1540 C 0.57152 0.51934 0.28522 0.0
C1541 C 0.56773 0.54114 0.28964 0.0
C1542 C 0.55004 0.45178 0.27098 0.0
C1543 C 0.558 0.44195 0.24251 0.0
C1544 C 0.55373 0.47336 0.27674 0.0
C1545 C 0.56501 0.48559 0.25373 0.0
C1546 C 0.57378 0.4756 0.22594 0.0
C1547 C 0.57057 0.45381 0.22061 0.0
H1548 H 0.19831 0.82503 0.04325 0.0
H1549 H 0.19508 0.78725 0.95473 0.0
H1550 H 0.23649 0.83067 0.03396 0.0
H1551 H 0.23298 0.79339 0.94504 0.0
H1552 H 0.30098 0.81954 0.93038 0.0
H1553 H 0.26238 0.82486 0.93661 0.0
H1554 H 0.26549 0.79888 0.03476 0.0
H1555 H 0.30364 0.79294 0.02819 0.0
C1556 C 0.20562 0.81847 0.02136 0.0
C1557 C 0.19385 0.80555 -0.00015 0.0
C1558 C 0.22741 0.82167 0.0161 0.0
C1559 C 0.23758 0.81247 0.98878 0.0
C1560 C 0.22546 0.80081 0.9661 0.0
C1561 C 0.20384 0.79719 0.97177 0.0
C1562 C 0.2934 0.81534 0.95343 0.0
C1563 C 0.30515 0.8057 0.97873 0.0
C1564 C 0.27141 0.81835 0.95696 0.0
C1565 C 0.26107 0.81236 0.98622 0.0
C1566 C 0.27312 0.80385 0.01211 0.0
C1567 C 0.29489 0.80032 0.00826 0.0
H1568 H 0.53932 0.94007 0.70564 0.0
H1569 H 0.57576 0.94506 0.79529 0.0
H1570 H 0.54448 0.97808 0.69542 0.0
H1571 H 0.5803 0.9834 0.78552 0.0
H1572 H 0.53985 0.04961 0.77448 0.0
H1573 H 0.5461 0.01161 0.78284 0.0
H1574 H 0.57731 0.00797 0.68847 0.0
H1575 H 0.57175 0.04643 0.68057 0.0
C1576 C 0.54871 0.94927 0.72287 0.0
C1577 C 0.55705 0.93972 0.75133 0.0
C1578 C 0.55178 0.97094 0.7169 0.0
C1579 C 0.56279 0.98355 0.73967 0.0
C1580 C 0.57183 0.9739 0.76756 0.0
C1581 C 0.56925 0.95204 0.7731 0.0
C1582 C 0.54839 0.04077 0.75578 0.0
C1583 C 0.55524 0.05084 0.72682 0.0
C1584 C 0.55209 0.01911 0.76069 0.0
C1585 C 0.56224 0.00698 0.73635 0.0
C1586 C 0.56957 0.01709 0.70764 0.0
C1587 C 0.5664 0.03899 0.70315 0.0
H1588 H 0.30756 0.3324 0.04426 0.0
H1589 H 0.30945 0.29756 0.95282 0.0
H1590 H 0.26965 0.33999 0.0353 0.0
H1591 H 0.27195 0.30572 0.94342 0.0
H1592 H 0.20494 0.33171 0.93044 0.0
H1593 H 0.24319 0.33851 0.93827 0.0
H1594 H 0.24038 0.30777 0.03313 0.0
H1595 H 0.20263 0.30031 0.02477 0.0
C1596 C 0.30004 0.32698 0.02181 0.0
C1597 C 0.31124 0.31422 -0.00062 0.0
C1598 C 0.27844 0.33132 0.0167 0.0
C1599 C 0.26802 0.3235 0.98862 0.0
C1600 C 0.27971 0.31214 0.96504 0.0
C1601 C 0.30108 0.30733 0.97056 0.0
C1602 C 0.21248 0.32696 0.95325 0.0
C1603 C 0.20108 0.31539 0.97695 0.0
C1604 C 0.23424 0.33082 0.95771 0.0
C1605 C 0.24458 0.32373 0.98636 0.0
C1606 C 0.2327 0.31362 0.01104 0.0
C1607 C 0.2112 0.30923 0.00617 0.0
H1608 H 0.98743 0.05007 0.25518 0.0
H1609 H 0.91942 0.05654 0.26639 0.0
H1610 H 0.98315 0.01295 0.24097 0.0
H1611 H 0.91495 0.01896 0.25089 0.0
H1612 H 0.92329 0.94363 0.25585 0.0
H1613 H 0.92194 0.9819 0.26812 0.0
H1614 H 0.97078 0.99299 0.19517 0.0
H1615 H 0.9726 0.95491 0.18429 0.0
C1616 C 0.97148 0.04353 0.25442 0.0
C1617 C 0.95375 0.05627 0.26157 0.0
C1618 C 0.969 0.02223 0.24596 0.0
C1619 C 0.94866 0.01305 0.24388 0.0
C1620 C 0.93084 0.02557 0.25214 0.0
C1621 C 0.93337 0.04704 0.26102 0.0
C1622 C 0.93328 0.95446 0.242 0.0
C1623 C 0.948 0.94657 0.21911 0.0
C1624 C 0.93255 0.97632 0.249 0.0
C1625 C 0.94658 0.99048 0.23314 0.0
C1626 C 0.96017 0.9825 0.20851 0.0
C1627 C 0.96106 0.96076 0.20191 0.0
H1628 H 0.30244 0.70825 0.52771 0.0
H1629 H 0.29995 0.67493 0.43499 0.0
H1630 H 0.26479 0.70069 0.53685 0.0
H1631 H 0.26181 0.668 0.44364 0.0
H1632 H 0.19459 0.70747 0.45807 0.0
H1633 H 0.23221 0.7002 0.44801 0.0
H1634 H 0.2364 0.66766 0.54126 0.0
H1635 H 0.19838 0.67433 0.5509 0.0
C1636 C 0.29386 0.699 0.50956 0.0
C1637 C 0.30393 0.69227 0.48058 0.0
C1638 C 0.27241 0.69453 0.51491 0.0
C1639 C 0.26052 0.68372 0.49098 0.0
C1640 C 0.27076 0.67623 0.46251 0.0
C1641 C 0.29247 0.68019 0.45758 0.0
C1642 C 0.20341 0.69823 0.47596 0.0
C1643 C 0.19373 0.69158 0.50534 0.0
C1644 C 0.22485 0.69394 0.47009 0.0
C1645 C 0.2371 0.68338 0.49387 0.0
C1646 C 0.22718 0.67573 0.52252 0.0
C1647 C 0.20551 0.67953 0.528 0.0
H1648 H 0.46607 0.06057 0.28293 0.0
H1649 H 0.41931 0.05613 0.20536 0.0
H1650 H 0.46216 0.02278 0.29402 0.0
H1651 H 0.41549 0.01775 0.21666 0.0
H1652 H 0.4132 0.94933 0.28017 0.0
H1653 H 0.40787 0.98797 0.27254 0.0
H1654 H 0.47382 0.99458 0.24494 0.0
H1655 H 0.47916 0.9567 0.25207 0.0
C1656 C 0.45469 0.05157 0.26855 0.0
C1657 C 0.44331 0.06118 0.24281 0.0
C1658 C 0.45237 0.02998 0.27509 0.0
C1659 C 0.43866 0.01746 0.25603 0.0
C1660 C 0.42606 0.02721 0.23179 0.0
C1661 C 0.42833 0.04906 0.22524 0.0
C1662 C 0.42646 0.95911 0.27234 0.0
C1663 C 0.44662 0.95 0.26693 0.0
C1664 C 0.42337 0.98108 0.26783 0.0
C1665 C 0.4405 0.99409 0.25835 0.0
C1666 C 0.46042 0.98486 0.25246 0.0
C1667 C 0.46343 0.96313 0.25656 0.0
H1668 H 0.80297 0.70462 0.96725 0.0
H1669 H 0.801 0.67634 0.06396 0.0
H1670 H 0.76477 0.69872 0.96111 0.0
H1671 H 0.76235 0.67113 0.05825 0.0
H1672 H 0.6958 0.71139 0.04199 0.0
H1673 H 0.7336 0.70421 0.05093 0.0
H1674 H 0.7353 0.66648 0.96234 0.0
H1675 H 0.69722 0.67312 0.95384 0.0
C1676 C 0.79436 0.6968 0.98695 0.0
C1677 C 0.8048 0.69097 0.01609 0.0
C1678 C 0.77258 0.69332 0.98336 0.0
C1679 C 0.76072 0.68445 0.0092 0.0
C1680 C 0.77125 0.67789 0.03796 0.0
C1681 C 0.79326 0.68083 0.04118 0.0
C1682 C 0.70413 0.70113 0.02488 0.0
C1683 C 0.69369 0.69293 0.99711 0.0
C1684 C 0.72567 0.6969 0.03014 0.0
C1685 C 0.73725 0.68479 0.00731 0.0
C1686 C 0.72662 0.67577 0.98032 0.0
C1687 C 0.7049 0.67957 0.9755 0.0
H1688 H 0.08508 0.06028 0.76414 0.0
H1689 H 0.02169 0.04713 0.79948 0.0
H1690 H 0.08899 0.02269 0.74795 0.0
H1691 H 0.02578 0.00991 0.78484 0.0
H1692 H 0.02308 0.95787 0.713 0.0
H1693 H 0.02585 0.99473 0.72984 0.0
H1694 H 0.08963 0.9834 0.76544 0.0
H1695 H 0.08699 0.94605 0.74718 0.0
C1696 C 0.07229 0.04921 0.76928 0.0
C1697 C 0.05296 0.0565 0.78253 0.0
C1698 C 0.0745 0.02778 0.76003 0.0
C1699 C 0.05745 0.01352 0.76428 0.0
C1700 C 0.03893 0.02065 0.78023 0.0
C1701 C 0.03662 0.04192 0.78885 0.0
C1702 C 0.03782 0.96327 0.72402 0.0
C1703 C 0.05471 0.94913 0.72925 0.0
C1704 C 0.03937 0.98436 0.73391 0.0
C1705 C 0.0577 0.99179 0.74996 0.0
C1706 C 0.07524 0.97803 0.75337 0.0
C1707 C 0.07377 0.95675 0.74292 0.0
H1708 H 0.70225 0.28832 0.46733 0.0
H1709 H 0.70278 0.32229 0.55958 0.0
H1710 H 0.74007 0.29605 0.45985 0.0
H1711 H 0.74105 0.32933 0.55262 0.0
H1712 H 0.80975 0.29109 0.53927 0.0
H1713 H 0.77164 0.29646 0.54831 0.0
H1714 H 0.76747 0.33136 0.45716 0.0
H1715 H 0.80587 0.32665 0.4486 0.0
C1716 C 0.71044 0.2977 0.48575 0.0
C1717 C 0.69973 0.30465 0.51407 0.0
C1718 C 0.73198 0.30223 0.48136 0.0
C1719 C 0.74333 0.31332 0.50562 0.0
C1720 C 0.73251 0.32088 0.53352 0.0
C1721 C 0.71072 0.31687 0.53746 0.0
C1722 C 0.8008 0.30041 0.52164 0.0
C1723 C 0.81064 0.30837 0.49317 0.0
C1724 C 0.77907 0.30358 0.52692 0.0
C1725 C 0.76676 0.31432 0.50342 0.0
C1726 C 0.77675 0.32314 0.47567 0.0
C1727 C 0.79864 0.32046 0.47082 0.0
loop_
_geom_bond_atom_site_label_1
_geom_bond_atom_site_label_2
_geom_bond_distance
_geom_bond_site_symmetry_2
_ccdc_geom_bond_type
Co0 O1 2.216 . S
Co0 O2 2.091 . S
Co0 O4 2.004 . S
Co0 O10 2.021 . S
Co0 O12 2.137 . S
Co0 O13 2.244 . S
O1 Co0 2.216 . S
O1 C8 1.247 . S
O2 Co0 2.091 . S
O2 C8 1.261 . S
C3 O12 1.247 . S
C3 O13 1.272 . S
O4 Co0 2.004 . S
O4 C9 1.259 . S
Co5 O6 2.061 . S
Co5 O11 2.052 . S
Co5 O13 2.135 . S
O6 Co5 2.061 . S
O6 C9 1.235 . S
C7 O10 1.238 . S
C7 O11 1.241 . S
C8 O1 1.247 . S
C8 O2 1.261 . S
C9 O4 1.259 . S
C9 O6 1.235 . S
O10 Co0 2.021 . S
O10 C7 1.238 . S
O11 Co5 2.052 . S
O11 C7 1.241 . S
O12 Co0 2.137 . S
O12 C3 1.247 . S
O13 Co0 2.244 . S
O13 C3 1.272 . S
O13 Co5 2.135 . S
Co14 O15 2.216 . S
Co14 O16 2.091 . S
Co14 O18 2.004 . S
Co14 O24 2.021 . S
Co14 O26 2.137 . S
Co14 O27 2.244 . S
O15 Co14 2.216 . S
O15 C22 1.247 . S
O16 Co14 2.091 . S
O16 C22 1.261 . S
C17 O26 1.247 . S
C17 O27 1.272 . S
O18 Co14 2.004 . S
O18 C23 1.259 . S
Co19 O20 2.061 . S
Co19 O25 2.052 . S
Co19 O27 2.135 . S
O20 Co19 2.061 . S
O20 C23 1.235 . S
C21 O24 1.238 . S
C21 O25 1.241 . S
C22 O15 1.247 . S
C22 O16 1.261 . S
C23 O18 1.259 . S
C23 O20 1.235 . S
O24 Co14 2.021 . S
O24 C21 1.238 . S
O25 Co19 2.052 . S
O25 C21 1.241 . S
O26 Co14 2.137 . S
O26 C17 1.247 . S
O27 Co14 2.244 . S
O27 C17 1.272 . S
O27 Co19 2.135 . S
Co28 O29 2.216 . S
Co28 O30 2.091 . S
Co28 O32 2.004 . S
Co28 O38 2.021 . S
Co28 O40 2.137 . S
Co28 O41 2.244 . S
O29 Co28 2.216 . S
O29 C36 1.247 . S
O30 Co28 2.091 . S
O30 C36 1.261 . S
C31 O40 1.247 . S
C31 O41 1.272 . S
O32 Co28 2.004 . S
O32 C37 1.259 . S
Co33 O34 2.061 . S
Co33 O39 2.052 . S
Co33 O41 2.135 . S
O34 Co33 2.061 . S
O34 C37 1.235 . S
C35 O38 1.238 . S
C35 O39 1.241 . S
C36 O29 1.247 . S
C36 O30 1.261 . S
C37 O32 1.259 . S
C37 O34 1.235 . S
O38 Co28 2.021 . S
O38 C35 1.238 . S
O39 Co33 2.052 . S
O39 C35 1.241 . S
O40 Co28 2.137 . S
O40 C31 1.247 . S
O41 Co28 2.244 . S
O41 C31 1.272 . S
O41 Co33 2.135 . S
Co42 O43 2.216 . S
Co42 O44 2.091 . S
Co42 O46 2.004 . S
Co42 O52 2.021 . S
Co42 O54 2.137 . S
Co42 O55 2.244 . S
O43 Co42 2.216 . S
O43 C50 1.247 . S
O44 Co42 2.091 . S
O44 C50 1.261 . S
C45 O54 1.247 . S
C45 O55 1.272 . S
O46 Co42 2.004 . S
O46 C51 1.259 . S
Co47 O48 2.061 . S
Co47 O53 2.052 1_554 S
Co47 O55 2.135 . S
O48 Co47 2.061 . S
O48 C51 1.235 . S
C49 O52 1.238 1_556 S
C49 O53 1.241 . S
C50 O43 1.247 . S
C50 O44 1.261 . S
C51 O46 1.259 . S
C51 O48 1.235 . S
O52 Co42 2.021 . S
O52 C49 1.238 1_554 S
O53 Co47 2.052 1_556 S
O53 C49 1.241 . S
O54 Co42 2.137 . S
O54 C45 1.247 . S
O55 Co42 2.244 . S
O55 C45 1.272 . S
O55 Co47 2.135 . S
Co56 O57 2.216 . S
Co56 O58 2.091 . S
Co56 O60 2.004 . S
Co56 O66 2.021 . S
Co56 O68 2.137 . S
Co56 O69 2.244 . S
O57 Co56 2.216 . S
O57 C64 1.247 . S
O58 Co56 2.091 . S
O58 C64 1.261 . S
C59 O68 1.247 . S
C59 O69 1.272 . S
O60 Co56 2.004 . S
O60 C65 1.259 . S
Co61 O62 2.061 . S
Co61 O67 2.052 . S
Co61 O69 2.135 . S
O62 Co61 2.061 . S
O62 C65 1.235 . S
C63 O66 1.238 . S
C63 O67 1.241 . S
C64 O57 1.247 . S
C64 O58 1.261 . S
C65 O60 1.259 . S
C65 O62 1.235 . S
O66 Co56 2.021 . S
O66 C63 1.238 . S
O67 Co61 2.052 . S
O67 C63 1.241 . S
O68 Co56 2.137 . S
O68 C59 1.247 . S
O69 Co56 2.244 . S
O69 C59 1.272 . S
O69 Co61 2.135 . S
Co70 O71 2.216 . S
Co70 O72 2.091 . S
Co70 O74 2.004 . S
Co70 O80 2.021 . S
Co70 O82 2.137 . S
Co70 O83 2.244 . S
O71 Co70 2.216 . S
O71 C78 1.247 . S
O72 Co70 2.091 . S
O72 C78 1.261 . S
C73 O82 1.247 . S
C73 O83 1.272 . S
O74 Co70 2.004 . S
O74 C79 1.259 . S
Co75 O76 2.061 . S
Co75 O81 2.052 . S
Co75 O83 2.135 . S
O76 Co75 2.061 . S
O76 C79 1.235 . S
C77 O80 1.238 . S
C77 O81 1.241 . S
C78 O71 1.247 . S
C78 O72 1.261 . S
C79 O74 1.259 . S
C79 O76 1.235 . S
O80 Co70 2.021 . S
O80 C77 1.238 . S
O81 Co75 2.052 . S
O81 C77 1.241 . S
O82 Co70 2.137 . S
O82 C73 1.247 . S
O83 Co70 2.244 . S
O83 C73 1.272 . S
O83 Co75 2.135 . S
Co84 O85 2.216 . S
Co84 O86 2.091 . S
Co84 O88 2.004 . S
Co84 O94 2.021 . S
Co84 O96 2.137 . S
Co84 O97 2.244 . S
O85 Co84 2.216 . S
O85 C92 1.247 . S
O86 Co84 2.091 . S
O86 C92 1.261 . S
C87 O96 1.247 . S
C87 O97 1.272 . S
O88 Co84 2.004 . S
O88 C93 1.259 . S
Co89 O90 2.061 . S
Co89 O95 2.052 . S
Co89 O97 2.135 . S
O90 Co89 2.061 . S
O90 C93 1.235 . S
C91 O94 1.238 . S
C91 O95 1.241 . S
C92 O85 1.247 . S
C92 O86 1.261 . S
C93 O88 1.259 . S
C93 O90 1.235 . S
O94 Co84 2.021 . S
O94 C91 1.238 . S
O95 Co89 2.052 . S
O95 C91 1.241 . S
O96 Co84 2.137 . S
O96 C87 1.247 . S
O97 Co84 2.244 . S
O97 C87 1.272 . S
O97 Co89 2.135 . S
Co98 O99 2.216 . S
Co98 O100 2.091 . S
Co98 O102 2.004 . S
Co98 O108 2.021 . S
Co98 O110 2.137 . S
Co98 O111 2.244 . S
O99 Co98 2.216 . S
O99 C106 1.247 . S
O100 Co98 2.091 . S
O100 C106 1.261 . S
C101 O110 1.247 . S
C101 O111 1.272 . S
O102 Co98 2.004 . S
O102 C107 1.259 . S
Co103 O104 2.061 . S
Co103 O109 2.052 1_556 S
Co103 O111 2.135 . S
O104 Co103 2.061 . S
O104 C107 1.235 . S
C105 O108 1.238 1_554 S
C105 O109 1.241 . S
C106 O99 1.247 . S
C106 O100 1.261 . S
C107 O102 1.259 . S
C107 O104 1.235 . S
O108 Co98 2.021 . S
O108 C105 1.238 1_556 S
O109 Co103 2.052 1_554 S
O109 C105 1.241 . S
O110 Co98 2.137 . S
O110 C101 1.247 . S
O111 Co98 2.244 . S
O111 C101 1.272 . S
O111 Co103 2.135 . S
Co112 O113 2.216 . S
Co112 O114 2.091 . S
Co112 O116 2.004 . S
Co112 O122 2.021 . S
Co112 O124 2.137 . S
Co112 O125 2.244 . S
O113 Co112 2.216 . S
O113 C120 1.247 . S
O114 Co112 2.091 . S
O114 C120 1.261 . S
C115 O124 1.247 . S
C115 O125 1.272 . S
O116 Co112 2.004 . S
O116 C121 1.259 . S
Co117 O118 2.061 . S
Co117 O123 2.052 . S
Co117 O125 2.135 . S
O118 Co117 2.061 . S
O118 C121 1.235 . S
C119 O122 1.238 . S
C119 O123 1.241 . S
C120 O113 1.247 . S
C120 O114 1.261 . S
C121 O116 1.259 . S
C121 O118 1.235 . S
O122 Co112 2.021 . S
O122 C119 1.238 . S
O123 Co117 2.052 . S
O123 C119 1.241 . S
O124 Co112 2.137 . S
O124 C115 1.247 . S
O125 Co112 2.244 . S
O125 C115 1.272 . S
O125 Co117 2.135 . S
Co126 O127 2.216 . S
Co126 O128 2.091 . S
Co126 O130 2.004 . S
Co126 O136 2.021 . S
Co126 O138 2.137 . S
Co126 O139 2.244 . S
O127 Co126 2.216 . S
O127 C134 1.247 . S
O128 Co126 2.091 . S
O128 C134 1.261 . S
C129 O138 1.247 . S
C129 O139 1.272 . S
O130 Co126 2.004 . S
O130 C135 1.259 . S
Co131 O132 2.061 . S
Co131 O137 2.052 . S
Co131 O139 2.135 . S
O132 Co131 2.061 . S
O132 C135 1.235 . S
C133 O136 1.238 . S
C133 O137 1.241 . S
C134 O127 1.247 . S
C134 O128 1.261 . S
C135 O130 1.259 . S
C135 O132 1.235 . S
O136 Co126 2.021 . S
O136 C133 1.238 . S
O137 Co131 2.052 . S
O137 C133 1.241 . S
O138 Co126 2.137 . S
O138 C129 1.247 . S
O139 Co126 2.244 . S
O139 C129 1.272 . S
O139 Co131 2.135 . S
Co140 O141 2.216 . S
Co140 O142 2.091 . S
Co140 O144 2.004 . S
Co140 O150 2.021 . S
Co140 O152 2.137 . S
Co140 O153 2.244 . S
O141 Co140 2.216 . S
O141 C148 1.247 . S
O142 Co140 2.091 . S
O142 C148 1.261 . S
C143 O152 1.247 . S
C143 O153 1.272 . S
O144 Co140 2.004 . S
O144 C149 1.259 . S
Co145 O146 2.061 . S
Co145 O151 2.052 . S
Co145 O153 2.135 . S
O146 Co145 2.061 . S
O146 C149 1.235 . S
C147 O150 1.238 . S
C147 O151 1.241 . S
C148 O141 1.247 . S
C148 O142 1.261 . S
C149 O144 1.259 . S
C149 O146 1.235 . S
O150 Co140 2.021 . S
O150 C147 1.238 . S
O151 Co145 2.052 . S
O151 C147 1.241 . S
O152 Co140 2.137 . S
O152 C143 1.247 . S
O153 Co140 2.244 . S
O153 C143 1.272 . S
O153 Co145 2.135 . S
Co154 O155 2.216 . S
Co154 O156 2.091 . S
Co154 O158 2.004 . S
Co154 O164 2.021 . S
Co154 O166 2.137 . S
Co154 O167 2.244 . S
O155 Co154 2.216 . S
O155 C162 1.247 . S
O156 Co154 2.091 . S
O156 C162 1.261 . S
C157 O166 1.247 . S
C157 O167 1.272 . S
O158 Co154 2.004 . S
O158 C163 1.259 . S
Co159 O160 2.061 . S
Co159 O165 2.052 1_556 S
Co159 O167 2.135 . S
O160 Co159 2.061 . S
O160 C163 1.235 . S
C161 O164 1.238 1_554 S
C161 O165 1.241 . S
C162 O155 1.247 . S
C162 O156 1.261 . S
C163 O158 1.259 . S
C163 O160 1.235 . S
O164 Co154 2.021 . S
O164 C161 1.238 1_556 S
O165 Co159 2.052 1_554 S
O165 C161 1.241 . S
O166 Co154 2.137 . S
O166 C157 1.247 . S
O167 Co154 2.244 . S
O167 C157 1.272 . S
O167 Co159 2.135 . S
Co168 O169 2.216 . S
Co168 O170 2.091 . S
Co168 O172 2.004 . S
Co168 O178 2.021 . S
Co168 O180 2.137 . S
Co168 O181 2.244 . S
O169 Co168 2.216 . S
O169 C176 1.247 . S
O170 Co168 2.091 . S
O170 C176 1.261 . S
C171 O180 1.247 . S
C171 O181 1.272 . S
O172 Co168 2.004 . S
O172 C177 1.259 . S
Co173 O174 2.061 . S
Co173 O179 2.052 . S
Co173 O181 2.135 . S
O174 Co173 2.061 . S
O174 C177 1.235 . S
C175 O178 1.238 . S
C175 O179 1.241 . S
C176 O169 1.247 . S
C176 O170 1.261 . S
C177 O172 1.259 . S
C177 O174 1.235 . S
O178 Co168 2.021 . S
O178 C175 1.238 . S
O179 Co173 2.052 . S
O179 C175 1.241 . S
O180 Co168 2.137 . S
O180 C171 1.247 . S
O181 Co168 2.244 . S
O181 C171 1.272 . S
O181 Co173 2.135 . S
Co182 O183 2.216 . S
Co182 O184 2.091 . S
Co182 O186 2.004 . S
Co182 O192 2.021 . S
Co182 O194 2.137 . S
Co182 O195 2.244 . S
O183 Co182 2.216 . S
O183 C190 1.247 . S
O184 Co182 2.091 . S
O184 C190 1.261 . S
C185 O194 1.247 . S
C185 O195 1.272 . S
O186 Co182 2.004 . S
O186 C191 1.259 . S
Co187 O188 2.061 . S
Co187 O193 2.052 . S
Co187 O195 2.135 . S
O188 Co187 2.061 . S
O188 C191 1.235 . S
C189 O192 1.238 . S
C189 O193 1.241 . S
C190 O183 1.247 . S
C190 O184 1.261 . S
C191 O186 1.259 . S
C191 O188 1.235 . S
O192 Co182 2.021 . S
O192 C189 1.238 . S
O193 Co187 2.052 . S
O193 C189 1.241 . S
O194 Co182 2.137 . S
O194 C185 1.247 . S
O195 Co182 2.244 . S
O195 C185 1.272 . S
O195 Co187 2.135 . S
Co196 O197 2.216 . S
Co196 O198 2.091 . S
Co196 O200 2.004 . S
Co196 O206 2.021 . S
Co196 O208 2.137 . S
Co196 O209 2.244 . S
O197 Co196 2.216 . S
O197 C204 1.247 . S
O198 Co196 2.091 . S
O198 C204 1.261 . S
C199 O208 1.247 . S
C199 O209 1.272 . S
O200 Co196 2.004 . S
O200 C205 1.259 . S
Co201 O202 2.061 . S
Co201 O207 2.052 . S
Co201 O209 2.135 . S
O202 Co201 2.061 . S
O202 C205 1.235 . S
C203 O206 1.238 . S
C203 O207 1.241 . S
C204 O197 1.247 . S
C204 O198 1.261 . S
C205 O200 1.259 . S
C205 O202 1.235 . S
O206 Co196 2.021 . S
O206 C203 1.238 . S
O207 Co201 2.052 . S
O207 C203 1.241 . S
O208 Co196 2.137 . S
O208 C199 1.247 . S
O209 Co196 2.244 . S
O209 C199 1.272 . S
O209 Co201 2.135 . S
Co210 O211 2.216 . S
Co210 O212 2.091 . S
Co210 O214 2.004 . S
Co210 O220 2.021 . S
Co210 O222 2.137 . S
Co210 O223 2.244 . S
O211 Co210 2.216 . S
O211 C218 1.247 . S
O212 Co210 2.091 . S
O212 C218 1.261 . S
C213 O222 1.247 . S
C213 O223 1.272 . S
O214 Co210 2.004 . S
O214 C219 1.259 . S
Co215 O216 2.061 . S
Co215 O221 2.052 1_554 S
Co215 O223 2.135 . S
O216 Co215 2.061 . S
O216 C219 1.235 . S
C217 O220 1.238 1_556 S
C217 O221 1.241 . S
C218 O211 1.247 . S
C218 O212 1.261 . S
C219 O214 1.259 . S
C219 O216 1.235 . S
O220 Co210 2.021 . S
O220 C217 1.238 1_554 S
O221 Co215 2.052 1_556 S
O221 C217 1.241 . S
O222 Co210 2.137 . S
O222 C213 1.247 . S
O223 Co210 2.244 . S
O223 C213 1.272 . S
O223 Co215 2.135 . S
Co224 O225 2.216 . S
Co224 O226 2.091 . S
Co224 O228 2.004 . S
Co224 O234 2.021 . S
Co224 O236 2.137 . S
Co224 O237 2.244 . S
O225 Co224 2.216 . S
O225 C232 1.247 . S
O226 Co224 2.091 . S
O226 C232 1.261 . S
C227 O236 1.247 . S
C227 O237 1.272 . S
O228 Co224 2.004 . S
O228 C233 1.259 . S
Co229 O230 2.061 . S
Co229 O235 2.052 . S
Co229 O237 2.135 . S
O230 Co229 2.061 . S
O230 C233 1.235 . S
C231 O234 1.238 . S
C231 O235 1.241 . S
C232 O225 1.247 . S
C232 O226 1.261 . S
C233 O228 1.259 . S
C233 O230 1.235 . S
O234 Co224 2.021 . S
O234 C231 1.238 . S
O235 Co229 2.052 . S
O235 C231 1.241 . S
O236 Co224 2.137 . S
O236 C227 1.247 . S
O237 Co224 2.244 . S
O237 C227 1.272 . S
O237 Co229 2.135 . S
Co238 O239 2.216 . S
Co238 O240 2.091 . S
Co238 O242 2.004 . S
Co238 O248 2.021 . S
Co238 O250 2.137 . S
Co238 O251 2.244 . S
O239 Co238 2.216 . S
O239 C246 1.247 . S
O240 Co238 2.091 . S
O240 C246 1.261 . S
C241 O250 1.247 . S
C241 O251 1.272 . S
O242 Co238 2.004 . S
O242 C247 1.259 . S
Co243 O244 2.061 . S
Co243 O249 2.052 1_554 S
Co243 O251 2.135 . S
O244 Co243 2.061 . S
O244 C247 1.235 . S
C245 O248 1.238 1_556 S
C245 O249 1.241 . S
C246 O239 1.247 . S
C246 O240 1.261 . S
C247 O242 1.259 . S
C247 O244 1.235 . S
O248 Co238 2.021 . S
O248 C245 1.238 1_554 S
O249 Co243 2.052 1_556 S
O249 C245 1.241 . S
O250 Co238 2.137 . S
O250 C241 1.247 . S
O251 Co238 2.244 . S
O251 C241 1.272 . S
O251 Co243 2.135 . S
Co252 O253 2.216 . S
Co252 O254 2.091 . S
Co252 O256 2.004 . S
Co252 O262 2.021 . S
Co252 O264 2.137 . S
Co252 O265 2.244 . S
O253 Co252 2.216 . S
O253 C260 1.247 . S
O254 Co252 2.091 . S
O254 C260 1.261 . S
C255 O264 1.247 . S
C255 O265 1.272 . S
O256 Co252 2.004 . S
O256 C261 1.259 . S
Co257 O258 2.061 . S
Co257 O263 2.052 . S
Co257 O265 2.135 . S
O258 Co257 2.061 . S
O258 C261 1.235 . S
C259 O262 1.238 . S
C259 O263 1.241 . S
C260 O253 1.247 . S
C260 O254 1.261 . S
C261 O256 1.259 . S
C261 O258 1.235 . S
O262 Co252 2.021 . S
O262 C259 1.238 . S
O263 Co257 2.052 . S
O263 C259 1.241 . S
O264 Co252 2.137 . S
O264 C255 1.247 . S
O265 Co252 2.244 . S
O265 C255 1.272 . S
O265 Co257 2.135 . S
Co266 O267 2.216 . S
Co266 O268 2.091 . S
Co266 O270 2.004 . S
Co266 O276 2.021 . S
Co266 O278 2.137 . S
Co266 O279 2.244 . S
O267 Co266 2.216 . S
O267 C274 1.247 . S
O268 Co266 2.091 . S
O268 C274 1.261 . S
C269 O278 1.247 . S
C269 O279 1.272 . S
O270 Co266 2.004 . S
O270 C275 1.259 . S
Co271 O272 2.061 . S
Co271 O277 2.052 . S
Co271 O279 2.135 . S
O272 Co271 2.061 . S
O272 C275 1.235 . S
C273 O276 1.238 . S
C273 O277 1.241 . S
C274 O267 1.247 . S
C274 O268 1.261 . S
C275 O270 1.259 . S
C275 O272 1.235 . S
O276 Co266 2.021 . S
O276 C273 1.238 . S
O277 Co271 2.052 . S
O277 C273 1.241 . S
O278 Co266 2.137 . S
O278 C269 1.247 . S
O279 Co266 2.244 . S
O279 C269 1.272 . S
O279 Co271 2.135 . S
Co280 O281 2.216 . S
Co280 O282 2.091 . S
Co280 O284 2.004 . S
Co280 O290 2.021 . S
Co280 O292 2.137 . S
Co280 O293 2.244 . S
O281 Co280 2.216 . S
O281 C288 1.247 . S
O282 Co280 2.091 . S
O282 C288 1.261 . S
C283 O292 1.247 . S
C283 O293 1.272 . S
O284 Co280 2.004 . S
O284 C289 1.259 . S
Co285 O286 2.061 . S
Co285 O291 2.052 . S
Co285 O293 2.135 . S
O286 Co285 2.061 . S
O286 C289 1.235 . S
C287 O290 1.238 . S
C287 O291 1.241 . S
C288 O281 1.247 . S
C288 O282 1.261 . S
C289 O284 1.259 . S
C289 O286 1.235 . S
O290 Co280 2.021 . S
O290 C287 1.238 . S
O291 Co285 2.052 . S
O291 C287 1.241 . S
O292 Co280 2.137 . S
O292 C283 1.247 . S
O293 Co280 2.244 . S
O293 C283 1.272 . S
O293 Co285 2.135 . S
Co294 O295 2.216 . S
Co294 O296 2.091 . S
Co294 O298 2.004 . S
Co294 O304 2.021 . S
Co294 O306 2.137 . S
Co294 O307 2.244 . S
O295 Co294 2.216 . S
O295 C302 1.247 . S
O296 Co294 2.091 . S
O296 C302 1.261 . S
C297 O306 1.247 . S
C297 O307 1.272 . S
O298 Co294 2.004 . S
O298 C303 1.259 . S
Co299 O300 2.061 . S
Co299 O305 2.052 1_556 S
Co299 O307 2.135 . S
O300 Co299 2.061 . S
O300 C303 1.235 . S
C301 O304 1.238 1_554 S
C301 O305 1.241 . S
C302 O295 1.247 . S
C302 O296 1.261 . S
C303 O298 1.259 . S
C303 O300 1.235 . S
O304 Co294 2.021 . S
O304 C301 1.238 1_556 S
O305 Co299 2.052 1_554 S
O305 C301 1.241 . S
O306 Co294 2.137 . S
O306 C297 1.247 . S
O307 Co294 2.244 . S
O307 C297 1.272 . S
O307 Co299 2.135 . S
Co308 O309 2.216 . S
Co308 O310 2.091 . S
Co308 O312 2.004 . S
Co308 O318 2.021 . S
Co308 O320 2.137 . S
Co308 O321 2.244 . S
O309 Co308 2.216 . S
O309 C316 1.247 . S
O310 Co308 2.091 . S
O310 C316 1.261 . S
C311 O320 1.247 . S
C311 O321 1.272 . S
O312 Co308 2.004 . S
O312 C317 1.259 . S
Co313 O314 2.061 . S
Co313 O319 2.052 . S
Co313 O321 2.135 . S
O314 Co313 2.061 . S
O314 C317 1.235 . S
C315 O318 1.238 . S
C315 O319 1.241 . S
C316 O309 1.247 . S
C316 O310 1.261 . S
C317 O312 1.259 . S
C317 O314 1.235 . S
O318 Co308 2.021 . S
O318 C315 1.238 . S
O319 Co313 2.052 . S
O319 C315 1.241 . S
O320 Co308 2.137 . S
O320 C311 1.247 . S
O321 Co308 2.244 . S
O321 C311 1.272 . S
O321 Co313 2.135 . S
Co322 O323 2.216 . S
Co322 O324 2.091 . S
Co322 O326 2.004 . S
Co322 O332 2.021 . S
Co322 O334 2.137 . S
Co322 O335 2.244 . S
O323 Co322 2.216 . S
O323 C330 1.247 . S
O324 Co322 2.091 . S
O324 C330 1.261 . S
C325 O334 1.247 . S
C325 O335 1.272 . S
O326 Co322 2.004 . S
O326 C331 1.259 . S
Co327 O328 2.061 . S
Co327 O333 2.052 . S
Co327 O335 2.135 . S
O328 Co327 2.061 . S
O328 C331 1.235 . S
C329 O332 1.238 . S
C329 O333 1.241 . S
C330 O323 1.247 . S
C330 O324 1.261 . S
C331 O326 1.259 . S
C331 O328 1.235 . S
O332 Co322 2.021 . S
O332 C329 1.238 . S
O333 Co327 2.052 . S
O333 C329 1.241 . S
O334 Co322 2.137 . S
O334 C325 1.247 . S
O335 Co322 2.244 . S
O335 C325 1.272 . S
O335 Co327 2.135 . S
Co336 O337 2.216 . S
Co336 O338 2.091 . S
Co336 O340 2.004 . S
Co336 O346 2.021 . S
Co336 O348 2.137 . S
Co336 O349 2.244 . S
O337 Co336 2.216 . S
O337 C344 1.247 . S
O338 Co336 2.091 . S
O338 C344 1.261 . S
C339 O348 1.247 . S
C339 O349 1.272 . S
O340 Co336 2.004 . S
O340 C345 1.259 . S
Co341 O342 2.061 . S
Co341 O347 2.052 . S
Co341 O349 2.135 . S
O342 Co341 2.061 . S
O342 C345 1.235 . S
C343 O346 1.238 . S
C343 O347 1.241 . S
C344 O337 1.247 . S
C344 O338 1.261 . S
C345 O340 1.259 . S
C345 O342 1.235 . S
O346 Co336 2.021 . S
O346 C343 1.238 . S
O347 Co341 2.052 . S
O347 C343 1.241 . S
O348 Co336 2.137 . S
O348 C339 1.247 . S
O349 Co336 2.244 . S
O349 C339 1.272 . S
O349 Co341 2.135 . S
Co350 O351 2.216 . S
Co350 O352 2.091 . S
Co350 O354 2.004 . S
Co350 O360 2.021 . S
Co350 O362 2.137 . S
Co350 O363 2.244 . S
O351 Co350 2.216 . S
O351 C358 1.247 . S
O352 Co350 2.091 . S
O352 C358 1.261 . S
C353 O362 1.247 . S
C353 O363 1.272 . S
O354 Co350 2.004 . S
O354 C359 1.259 . S
Co355 O356 2.061 . S
Co355 O361 2.052 1_556 S
Co355 O363 2.135 . S
O356 Co355 2.061 . S
O356 C359 1.235 . S
C357 O360 1.238 1_554 S
C357 O361 1.241 . S
C358 O351 1.247 . S
C358 O352 1.261 . S
C359 O354 1.259 . S
C359 O356 1.235 . S
O360 Co350 2.021 . S
O360 C357 1.238 1_556 S
O361 Co355 2.052 1_554 S
O361 C357 1.241 . S
O362 Co350 2.137 . S
O362 C353 1.247 . S
O363 Co350 2.244 . S
O363 C353 1.272 . S
O363 Co355 2.135 . S
Co364 O365 2.216 . S
Co364 O366 2.091 . S
Co364 O368 2.004 . S
Co364 O374 2.021 . S
Co364 O376 2.137 . S
Co364 O377 2.244 . S
O365 Co364 2.216 . S
O365 C372 1.247 . S
O366 Co364 2.091 . S
O366 C372 1.261 . S
C367 O376 1.247 . S
C367 O377 1.272 . S
O368 Co364 2.004 . S
O368 C373 1.259 . S
Co369 O370 2.061 . S
Co369 O375 2.052 . S
Co369 O377 2.135 . S
O370 Co369 2.061 . S
O370 C373 1.235 . S
C371 O374 1.238 . S
C371 O375 1.241 . S
C372 O365 1.247 . S
C372 O366 1.261 . S
C373 O368 1.259 . S
C373 O370 1.235 . S
O374 Co364 2.021 . S
O374 C371 1.238 . S
O375 Co369 2.052 . S
O375 C371 1.241 . S
O376 Co364 2.137 . S
O376 C367 1.247 . S
O377 Co364 2.244 . S
O377 C367 1.272 . S
O377 Co369 2.135 . S
Co378 O379 2.216 . S
Co378 O380 2.091 . S
Co378 O382 2.004 . S
Co378 O388 2.021 . S
Co378 O390 2.137 . S
Co378 O391 2.244 . S
O379 Co378 2.216 . S
O379 C386 1.247 . S
O380 Co378 2.091 . S
O380 C386 1.261 . S
C381 O390 1.247 . S
C381 O391 1.272 . S
O382 Co378 2.004 . S
O382 C387 1.259 . S
Co383 O384 2.061 . S
Co383 O389 2.052 . S
Co383 O391 2.135 . S
O384 Co383 2.061 . S
O384 C387 1.235 . S
C385 O388 1.238 . S
C385 O389 1.241 . S
C386 O379 1.247 . S
C386 O380 1.261 . S
C387 O382 1.259 . S
C387 O384 1.235 . S
O388 Co378 2.021 . S
O388 C385 1.238 . S
O389 Co383 2.052 . S
O389 C385 1.241 . S
O390 Co378 2.137 . S
O390 C381 1.247 . S
O391 Co378 2.244 . S
O391 C381 1.272 . S
O391 Co383 2.135 . S
Co392 O393 2.216 . S
Co392 O394 2.091 . S
Co392 O396 2.004 . S
Co392 O402 2.021 . S
Co392 O404 2.137 . S
Co392 O405 2.244 . S
O393 Co392 2.216 . S
O393 C400 1.247 . S
O394 Co392 2.091 . S
O394 C400 1.261 . S
C395 O404 1.247 . S
C395 O405 1.272 . S
O396 Co392 2.004 . S
O396 C401 1.259 . S
Co397 O398 2.061 . S
Co397 O403 2.052 . S
Co397 O405 2.135 . S
O398 Co397 2.061 . S
O398 C401 1.235 . S
C399 O402 1.238 . S
C399 O403 1.241 . S
C400 O393 1.247 . S
C400 O394 1.261 . S
C401 O396 1.259 . S
C401 O398 1.235 . S
O402 Co392 2.021 . S
O402 C399 1.238 . S
O403 Co397 2.052 . S
O403 C399 1.241 . S
O404 Co392 2.137 . S
O404 C395 1.247 . S
O405 Co392 2.244 . S
O405 C395 1.272 . S
O405 Co397 2.135 . S
Co406 O407 2.216 . S
Co406 O408 2.091 . S
Co406 O410 2.004 . S
Co406 O416 2.021 . S
Co406 O418 2.137 . S
Co406 O419 2.244 . S
O407 Co406 2.216 . S
O407 C414 1.247 . S
O408 Co406 2.091 . S
O408 C414 1.261 . S
C409 O418 1.247 . S
C409 O419 1.272 . S
O410 Co406 2.004 . S
O410 C415 1.259 . S
Co411 O412 2.061 . S
Co411 O417 2.052 1_554 S
Co411 O419 2.135 . S
O412 Co411 2.061 . S
O412 C415 1.235 . S
C413 O416 1.238 1_556 S
C413 O417 1.241 . S
C414 O407 1.247 . S
C414 O408 1.261 . S
C415 O410 1.259 . S
C415 O412 1.235 . S
O416 Co406 2.021 . S
O416 C413 1.238 1_554 S
O417 Co411 2.052 1_556 S
O417 C413 1.241 . S
O418 Co406 2.137 . S
O418 C409 1.247 . S
O419 Co406 2.244 . S
O419 C409 1.272 . S
O419 Co411 2.135 . S
Co420 O421 2.216 . S
Co420 O422 2.091 . S
Co420 O424 2.004 . S
Co420 O430 2.021 . S
Co420 O432 2.137 . S
Co420 O433 2.244 . S
O421 Co420 2.216 . S
O421 C428 1.247 . S
O422 Co420 2.091 . S
O422 C428 1.261 . S
C423 O432 1.247 . S
C423 O433 1.272 . S
O424 Co420 2.004 . S
O424 C429 1.259 . S
Co425 O426 2.061 . S
Co425 O431 2.052 . S
Co425 O433 2.135 . S
O426 Co425 2.061 . S
O426 C429 1.235 . S
C427 O430 1.238 . S
C427 O431 1.241 . S
C428 O421 1.247 . S
C428 O422 1.261 . S
C429 O424 1.259 . S
C429 O426 1.235 . S
O430 Co420 2.021 . S
O430 C427 1.238 . S
O431 Co425 2.052 . S
O431 C427 1.241 . S
O432 Co420 2.137 . S
O432 C423 1.247 . S
O433 Co420 2.244 . S
O433 C423 1.272 . S
O433 Co425 2.135 . S
Co434 O435 2.216 . S
Co434 O436 2.091 . S
Co434 O438 2.004 . S
Co434 O444 2.021 . S
Co434 O446 2.137 . S
Co434 O447 2.244 . S
O435 Co434 2.216 . S
O435 C442 1.247 . S
O436 Co434 2.091 . S
O436 C442 1.261 . S
C437 O446 1.247 . S
C437 O447 1.272 . S
O438 Co434 2.004 . S
O438 C443 1.259 . S
Co439 O440 2.061 . S
Co439 O445 2.052 . S
Co439 O447 2.135 . S
O440 Co439 2.061 . S
O440 C443 1.235 . S
C441 O444 1.238 . S
C441 O445 1.241 . S
C442 O435 1.247 . S
C442 O436 1.261 . S
C443 O438 1.259 . S
C443 O440 1.235 . S
O444 Co434 2.021 . S
O444 C441 1.238 . S
O445 Co439 2.052 . S
O445 C441 1.241 . S
O446 Co434 2.137 . S
O446 C437 1.247 . S
O447 Co434 2.244 . S
O447 C437 1.272 . S
O447 Co439 2.135 . S
H448 C456 0.950 . S
H449 C461 0.950 . S
H450 C458 0.950 . S
H451 C460 0.950 . S
H452 C462 0.950 . S
H453 C464 0.950 . S
H454 C466 0.950 . S
H455 C467 0.950 . S
C456 H448 0.950 . S
C456 C457 1.386 . S
C456 C458 1.391 . S
C457 C456 1.386 . S
C457 C461 1.393 . S
C458 H450 0.950 . S
C458 C456 1.391 . S
C458 C459 1.400 . S
C459 C458 1.400 . S
C459 C460 1.398 . S
C459 C465 1.491 . S
C460 H451 0.950 . S
C460 C459 1.398 . S
C460 C461 1.391 . S
C461 H449 0.950 . S
C461 C457 1.393 . S
C461 C460 1.391 . S
C462 H452 0.950 . S
C462 C463 1.386 . S
C462 C464 1.391 . S
C463 C462 1.386 . S
C463 C467 1.393 . S
C464 H453 0.950 . S
C464 C462 1.391 . S
C464 C465 1.400 . S
C465 C459 1.491 . S
C465 C464 1.400 . S
C465 C466 1.398 . S
C466 H454 0.950 . S
C466 C465 1.398 . S
C466 C467 1.391 . S
C467 H455 0.950 . S
C467 C463 1.393 . S
C467 C466 1.391 . S
H468 C476 0.950 . S
H469 C481 0.950 . S
H470 C478 0.950 . S
H471 C480 0.950 . S
H472 C482 0.950 . S
H473 C484 0.950 . S
H474 C486 0.950 . S
H475 C487 0.950 . S
C476 H468 0.950 . S
C476 C477 1.386 . S
C476 C478 1.391 . S
C477 C476 1.386 . S
C477 C481 1.393 . S
C478 H470 0.950 . S
C478 C476 1.391 . S
C478 C479 1.400 . S
C479 C478 1.400 . S
C479 C480 1.398 . S
C479 C485 1.491 . S
C480 H471 0.950 . S
C480 C479 1.398 . S
C480 C481 1.391 . S
C481 H469 0.950 . S
C481 C477 1.393 . S
C481 C480 1.391 . S
C482 H472 0.950 . S
C482 C483 1.386 . S
C482 C484 1.391 . S
C483 C482 1.386 . S
C483 C487 1.393 . S
C484 H473 0.950 . S
C484 C482 1.391 . S
C484 C485 1.400 . S
C485 C479 1.491 . S
C485 C484 1.400 . S
C485 C486 1.398 . S
C486 H474 0.950 . S
C486 C485 1.398 . S
C486 C487 1.391 . S
C487 H475 0.950 . S
C487 C483 1.393 . S
C487 C486 1.391 . S
H488 C496 0.950 . S
H489 C501 0.950 . S
H490 C498 0.950 . S
H491 C500 0.950 . S
H492 C502 0.950 . S
H493 C504 0.950 . S
H494 C506 0.950 . S
H495 C507 0.950 . S
C496 H488 0.950 . S
C496 C497 1.386 . S
C496 C498 1.391 . S
C497 C496 1.386 . S
C497 C501 1.393 . S
C498 H490 0.950 . S
C498 C496 1.391 . S
C498 C499 1.400 . S
C499 C498 1.400 . S
C499 C500 1.398 . S
C499 C505 1.491 . S
C500 H491 0.950 . S
C500 C499 1.398 . S
C500 C501 1.391 . S
C501 H489 0.950 . S
C501 C497 1.393 . S
C501 C500 1.391 . S
C502 H492 0.950 . S
C502 C503 1.386 . S
C502 C504 1.391 . S
C503 C502 1.386 . S
C503 C507 1.393 . S
C504 H493 0.950 . S
C504 C502 1.391 . S
C504 C505 1.400 . S
C505 C499 1.491 . S
C505 C504 1.400 . S
C505 C506 1.398 . S
C506 H494 0.950 . S
C506 C505 1.398 . S
C506 C507 1.391 . S
C507 H495 0.950 . S
C507 C503 1.393 . S
C507 C506 1.391 . S
H508 C516 0.950 . S
H509 C521 0.950 . S
H510 C518 0.950 . S
H511 C520 0.950 . S
H512 C522 0.950 . S
H513 C524 0.950 . S
H514 C526 0.950 . S
H515 C527 0.950 . S
C516 H508 0.950 . S
C516 C517 1.386 . S
C516 C518 1.391 . S
C517 C516 1.386 . S
C517 C521 1.393 . S
C518 H510 0.950 . S
C518 C516 1.391 . S
C518 C519 1.400 . S
C519 C518 1.400 . S
C519 C520 1.398 . S
C519 C525 1.491 . S
C520 H511 0.950 . S
C520 C519 1.398 . S
C520 C521 1.391 . S
C521 H509 0.950 . S
C521 C517 1.393 . S
C521 C520 1.391 . S
C522 H512 0.950 . S
C522 C523 1.386 . S
C522 C524 1.391 . S
C523 C522 1.386 . S
C523 C527 1.393 . S
C524 H513 0.950 . S
C524 C522 1.391 . S
C524 C525 1.400 . S
C525 C519 1.491 . S
C525 C524 1.400 . S
C525 C526 1.398 . S
C526 H514 0.950 . S
C526 C525 1.398 . S
C526 C527 1.391 . S
C527 H515 0.950 . S
C527 C523 1.393 . S
C527 C526 1.391 . S
H528 C536 0.950 . S
H529 C541 0.950 . S
H530 C538 0.950 . S
H531 C540 0.950 . S
H532 C542 0.950 . S
H533 C544 0.950 . S
H534 C546 0.950 . S
H535 C547 0.950 . S
C536 H528 0.950 . S
C536 C537 1.386 . S
C536 C538 1.391 . S
C537 C536 1.386 . S
C537 C541 1.393 . S
C538 H530 0.950 . S
C538 C536 1.391 . S
C538 C539 1.400 . S
C539 C538 1.400 . S
C539 C540 1.398 . S
C539 C545 1.491 . S
C540 H531 0.950 . S
C540 C539 1.398 . S
C540 C541 1.391 . S
C541 H529 0.950 . S
C541 C537 1.393 . S
C541 C540 1.391 . S
C542 H532 0.950 . S
C542 C543 1.386 . S
C542 C544 1.391 . S
C543 C542 1.386 . S
C543 C547 1.393 . S
C544 H533 0.950 . S
C544 C542 1.391 . S
C544 C545 1.400 . S
C545 C539 1.491 . S
C545 C544 1.400 . S
C545 C546 1.398 . S
C546 H534 0.950 . S
C546 C545 1.398 . S
C546 C547 1.391 . S
C547 H535 0.950 . S
C547 C543 1.393 . S
C547 C546 1.391 . S
H548 C556 0.950 . S
H549 C561 0.950 . S
H550 C558 0.950 . S
H551 C560 0.950 . S
H552 C562 0.950 . S
H553 C564 0.950 . S
H554 C566 0.950 . S
H555 C567 0.950 . S
C556 H548 0.950 . S
C556 C557 1.386 . S
C556 C558 1.391 . S
C557 C556 1.386 . S
C557 C561 1.393 . S
C558 H550 0.950 . S
C558 C556 1.391 . S
C558 C559 1.400 . S
C559 C558 1.400 . S
C559 C560 1.398 . S
C559 C565 1.491 . S
C560 H551 0.950 . S
C560 C559 1.398 . S
C560 C561 1.391 . S
C561 H549 0.950 . S
C561 C557 1.393 . S
C561 C560 1.391 . S
C562 H552 0.950 . S
C562 C563 1.386 . S
C562 C564 1.391 . S
C563 C562 1.386 . S
C563 C567 1.393 . S
C564 H553 0.950 . S
C564 C562 1.391 . S
C564 C565 1.400 . S
C565 C559 1.491 . S
C565 C564 1.400 . S
C565 C566 1.398 . S
C566 H554 0.950 . S
C566 C565 1.398 . S
C566 C567 1.391 . S
C567 H555 0.950 . S
C567 C563 1.393 . S
C567 C566 1.391 . S
H568 C576 0.950 . S
H569 C581 0.950 . S
H570 C578 0.950 . S
H571 C580 0.950 . S
H572 C582 0.950 . S
H573 C584 0.950 . S
H574 C586 0.950 . S
H575 C587 0.950 . S
C576 H568 0.950 . S
C576 C577 1.386 . S
C576 C578 1.391 . S
C577 C576 1.386 . S
C577 C581 1.393 . S
C578 H570 0.950 . S
C578 C576 1.391 . S
C578 C579 1.400 . S
C579 C578 1.400 . S
C579 C580 1.398 . S
C579 C585 1.491 . S
C580 H571 0.950 . S
C580 C579 1.398 . S
C580 C581 1.391 . S
C581 H569 0.950 . S
C581 C577 1.393 . S
C581 C580 1.391 . S
C582 H572 0.950 . S
C582 C583 1.386 . S
C582 C584 1.391 . S
C583 C582 1.386 . S
C583 C587 1.393 . S
C584 H573 0.950 . S
C584 C582 1.391 . S
C584 C585 1.400 . S
C585 C579 1.491 . S
C585 C584 1.400 . S
C585 C586 1.398 . S
C586 H574 0.950 . S
C586 C585 1.398 . S
C586 C587 1.391 . S
C587 H575 0.950 . S
C587 C583 1.393 . S
C587 C586 1.391 . S
H588 C596 0.950 . S
H589 C601 0.950 . S
H590 C598 0.950 . S
H591 C600 0.950 . S
H592 C602 0.950 . S
H593 C604 0.950 . S
H594 C606 0.950 . S
H595 C607 0.950 . S
C596 H588 0.950 . S
C596 C597 1.386 . S
C596 C598 1.391 . S
C597 C596 1.386 . S
C597 C601 1.393 . S
C598 H590 0.950 . S
C598 C596 1.391 . S
C598 C599 1.400 . S
C599 C598 1.400 . S
C599 C600 1.398 . S
C599 C605 1.491 . S
C600 H591 0.950 . S
C600 C599 1.398 . S
C600 C601 1.391 . S
C601 H589 0.950 . S
C601 C597 1.393 . S
C601 C600 1.391 . S
C602 H592 0.950 . S
C602 C603 1.386 . S
C602 C604 1.391 . S
C603 C602 1.386 . S
C603 C607 1.393 . S
C604 H593 0.950 . S
C604 C602 1.391 . S
C604 C605 1.400 . S
C605 C599 1.491 . S
C605 C604 1.400 . S
C605 C606 1.398 . S
C606 H594 0.950 . S
C606 C605 1.398 . S
C606 C607 1.391 . S
C607 H595 0.950 . S
C607 C603 1.393 . S
C607 C606 1.391 . S
H608 C616 0.950 . S
H609 C621 0.950 . S
H610 C618 0.950 . S
H611 C620 0.950 . S
H612 C622 0.950 . S
H613 C624 0.950 . S
H614 C626 0.950 . S
H615 C627 0.950 . S
C616 H608 0.950 . S
C616 C617 1.386 . S
C616 C618 1.391 . S
C617 C616 1.386 . S
C617 C621 1.393 . S
C618 H610 0.950 . S
C618 C616 1.391 . S
C618 C619 1.400 . S
C619 C618 1.400 . S
C619 C620 1.398 . S
C619 C625 1.491 . S
C620 H611 0.950 . S
C620 C619 1.398 . S
C620 C621 1.391 . S
C621 H609 0.950 . S
C621 C617 1.393 . S
C621 C620 1.391 . S
C622 H612 0.950 . S
C622 C623 1.386 . S
C622 C624 1.391 . S
C623 C622 1.386 . S
C623 C627 1.393 . S
C624 H613 0.950 . S
C624 C622 1.391 . S
C624 C625 1.400 . S
C625 C619 1.491 . S
C625 C624 1.400 . S
C625 C626 1.398 . S
C626 H614 0.950 . S
C626 C625 1.398 . S
C626 C627 1.391 . S
C627 H615 0.950 . S
C627 C623 1.393 . S
C627 C626 1.391 . S
H628 C636 0.950 . S
H629 C641 0.950 . S
H630 C638 0.950 . S
H631 C640 0.950 . S
H632 C642 0.950 . S
H633 C644 0.950 . S
H634 C646 0.950 . S
H635 C647 0.950 . S
C636 H628 0.950 . S
C636 C637 1.386 . S
C636 C638 1.391 . S
C637 C636 1.386 . S
C637 C641 1.393 . S
C638 H630 0.950 . S
C638 C636 1.391 . S
C638 C639 1.400 . S
C639 C638 1.400 . S
C639 C640 1.398 . S
C639 C645 1.491 . S
C640 H631 0.950 . S
C640 C639 1.398 . S
C640 C641 1.391 . S
C641 H629 0.950 . S
C641 C637 1.393 . S
C641 C640 1.391 . S
C642 H632 0.950 . S
C642 C643 1.386 . S
C642 C644 1.391 . S
C643 C642 1.386 . S
C643 C647 1.393 . S
C644 H633 0.950 . S
C644 C642 1.391 . S
C644 C645 1.400 . S
C645 C639 1.491 . S
C645 C644 1.400 . S
C645 C646 1.398 . S
C646 H634 0.950 . S
C646 C645 1.398 . S
C646 C647 1.391 . S
C647 H635 0.950 . S
C647 C643 1.393 . S
C647 C646 1.391 . S
H648 C656 0.950 . S
H649 C661 0.950 . S
H650 C658 0.950 . S
H651 C660 0.950 . S
H652 C662 0.950 . S
H653 C664 0.950 . S
H654 C666 0.950 . S
H655 C667 0.950 . S
C656 H648 0.950 . S
C656 C657 1.386 . S
C656 C658 1.391 . S
C657 C656 1.386 . S
C657 C661 1.393 . S
C658 H650 0.950 . S
C658 C656 1.391 . S
C658 C659 1.400 . S
C659 C658 1.400 . S
C659 C660 1.398 . S
C659 C665 1.491 . S
C660 H651 0.950 . S
C660 C659 1.398 . S
C660 C661 1.391 . S
C661 H649 0.950 . S
C661 C657 1.393 . S
C661 C660 1.391 . S
C662 H652 0.950 . S
C662 C663 1.386 . S
C662 C664 1.391 . S
C663 C662 1.386 . S
C663 C667 1.393 . S
C664 H653 0.950 . S
C664 C662 1.391 . S
C664 C665 1.400 . S
C665 C659 1.491 . S
C665 C664 1.400 . S
C665 C666 1.398 . S
C666 H654 0.950 . S
C666 C665 1.398 . S
C666 C667 1.391 . S
C667 H655 0.950 . S
C667 C663 1.393 . S
C667 C666 1.391 . S
H668 C676 0.950 . S
H669 C681 0.950 . S
H670 C678 0.950 . S
H671 C680 0.950 . S
H672 C682 0.950 . S
H673 C684 0.950 . S
H674 C686 0.950 . S
H675 C687 0.950 . S
C676 H668 0.950 . S
C676 C677 1.386 . S
C676 C678 1.391 . S
C677 C676 1.386 . S
C677 C681 1.393 . S
C678 H670 0.950 . S
C678 C676 1.391 . S
C678 C679 1.400 . S
C679 C678 1.400 . S
C679 C680 1.398 . S
C679 C685 1.491 . S
C680 H671 0.950 . S
C680 C679 1.398 . S
C680 C681 1.391 . S
C681 H669 0.950 . S
C681 C677 1.393 . S
C681 C680 1.391 . S
C682 H672 0.950 . S
C682 C683 1.386 . S
C682 C684 1.391 . S
C683 C682 1.386 . S
C683 C687 1.393 . S
C684 H673 0.950 . S
C684 C682 1.391 . S
C684 C685 1.400 . S
C685 C679 1.491 . S
C685 C684 1.400 . S
C685 C686 1.398 . S
C686 H674 0.950 . S
C686 C685 1.398 . S
C686 C687 1.391 . S
C687 H675 0.950 . S
C687 C683 1.393 . S
C687 C686 1.391 . S
H688 C696 0.950 . S
H689 C701 0.950 . S
H690 C698 0.950 . S
H691 C700 0.950 . S
H692 C702 0.950 . S
H693 C704 0.950 . S
H694 C706 0.950 . S
H695 C707 0.950 . S
C696 H688 0.950 . S
C696 C697 1.386 . S
C696 C698 1.391 . S
C697 C696 1.386 . S
C697 C701 1.393 . S
C698 H690 0.950 . S
C698 C696 1.391 . S
C698 C699 1.400 . S
C699 C698 1.400 . S
C699 C700 1.398 . S
C699 C705 1.491 . S
C700 H691 0.950 . S
C700 C699 1.398 . S
C700 C701 1.391 . S
C701 H689 0.950 . S
C701 C697 1.393 . S
C701 C700 1.391 . S
C702 H692 0.950 . S
C702 C703 1.386 . S
C702 C704 1.391 . S
C703 C702 1.386 . S
C703 C707 1.393 . S
C704 H693 0.950 . S
C704 C702 1.391 . S
C704 C705 1.400 . S
C705 C699 1.491 . S
C705 C704 1.400 . S
C705 C706 1.398 . S
C706 H694 0.950 . S
C706 C705 1.398 . S
C706 C707 1.391 . S
C707 H695 0.950 . S
C707 C703 1.393 . S
C707 C706 1.391 . S
H708 C716 0.950 . S
H709 C721 0.950 . S
H710 C718 0.950 . S
H711 C720 0.950 . S
H712 C722 0.950 . S
H713 C724 0.950 . S
H714 C726 0.950 . S
H715 C727 0.950 . S
C716 H708 0.950 . S
C716 C717 1.386 . S
C716 C718 1.391 . S
C717 C716 1.386 . S
C717 C721 1.393 . S
C718 H710 0.950 . S
C718 C716 1.391 . S
C718 C719 1.400 . S
C719 C718 1.400 . S
C719 C720 1.398 . S
C719 C725 1.491 . S
C720 H711 0.950 . S
C720 C719 1.398 . S
C720 C721 1.391 . S
C721 H709 0.950 . S
C721 C717 1.393 . S
C721 C720 1.391 . S
C722 H712 0.950 . S
C722 C723 1.386 . S
C722 C724 1.391 . S
C723 C722 1.386 . S
C723 C727 1.393 . S
C724 H713 0.950 . S
C724 C722 1.391 . S
C724 C725 1.400 . S
C725 C719 1.491 . S
C725 C724 1.400 . S
C725 C726 1.398 . S
C726 H714 0.950 . S
C726 C725 1.398 . S
C726 C727 1.391 . S
C727 H715 0.950 . S
C727 C723 1.393 . S
C727 C726 1.391 . S
H728 C736 0.950 . S
H729 C741 0.950 . S
H730 C738 0.950 . S
H731 C740 0.950 . S
H732 C742 0.950 . S
H733 C744 0.950 . S
H734 C746 0.950 . S
H735 C747 0.950 . S
C736 H728 0.950 . S
C736 C737 1.386 . S
C736 C738 1.391 . S
C737 C736 1.386 . S
C737 C741 1.393 . S
C738 H730 0.950 . S
C738 C736 1.391 . S
C738 C739 1.400 . S
C739 C738 1.400 . S
C739 C740 1.398 . S
C739 C745 1.491 . S
C740 H731 0.950 . S
C740 C739 1.398 . S
C740 C741 1.391 . S
C741 H729 0.950 . S
C741 C737 1.393 . S
C741 C740 1.391 . S
C742 H732 0.950 . S
C742 C743 1.386 . S
C742 C744 1.391 . S
C743 C742 1.386 . S
C743 C747 1.393 . S
C744 H733 0.950 . S
C744 C742 1.391 . S
C744 C745 1.400 . S
C745 C739 1.491 . S
C745 C744 1.400 . S
C745 C746 1.398 . S
C746 H734 0.950 . S
C746 C745 1.398 . S
C746 C747 1.391 . S
C747 H735 0.950 . S
C747 C743 1.393 . S
C747 C746 1.391 . S
H748 C756 0.950 . S
H749 C761 0.950 . S
H750 C758 0.950 . S
H751 C760 0.950 . S
H752 C762 0.950 . S
H753 C764 0.950 . S
H754 C766 0.950 . S
H755 C767 0.950 . S
C756 H748 0.950 . S
C756 C757 1.386 . S
C756 C758 1.391 . S
C757 C756 1.386 . S
C757 C761 1.393 . S
C758 H750 0.950 . S
C758 C756 1.391 . S
C758 C759 1.400 . S
C759 C758 1.400 . S
C759 C760 1.398 . S
C759 C765 1.491 . S
C760 H751 0.950 . S
C760 C759 1.398 . S
C760 C761 1.391 . S
C761 H749 0.950 . S
C761 C757 1.393 . S
C761 C760 1.391 . S
C762 H752 0.950 . S
C762 C763 1.386 . S
C762 C764 1.391 . S
C763 C762 1.386 . S
C763 C767 1.393 . S
C764 H753 0.950 . S
C764 C762 1.391 . S
C764 C765 1.400 . S
C765 C759 1.491 . S
C765 C764 1.400 . S
C765 C766 1.398 . S
C766 H754 0.950 . S
C766 C765 1.398 . S
C766 C767 1.391 . S
C767 H755 0.950 . S
C767 C763 1.393 . S
C767 C766 1.391 . S
H768 C776 0.950 . S
H769 C781 0.950 . S
H770 C778 0.950 . S
H771 C780 0.950 . S
H772 C782 0.950 . S
H773 C784 0.950 . S
H774 C786 0.950 . S
H775 C787 0.950 . S
C776 H768 0.950 . S
C776 C777 1.386 . S
C776 C778 1.391 . S
C777 C776 1.386 . S
C777 C781 1.393 . S
C778 H770 0.950 . S
C778 C776 1.391 . S
C778 C779 1.400 . S
C779 C778 1.400 . S
C779 C780 1.398 . S
C779 C785 1.491 . S
C780 H771 0.950 . S
C780 C779 1.398 . S
C780 C781 1.391 . S
C781 H769 0.950 . S
C781 C777 1.393 . S
C781 C780 1.391 . S
C782 H772 0.950 . S
C782 C783 1.386 . S
C782 C784 1.391 . S
C783 C782 1.386 . S
C783 C787 1.393 . S
C784 H773 0.950 . S
C784 C782 1.391 . S
C784 C785 1.400 . S
C785 C779 1.491 . S
C785 C784 1.400 . S
C785 C786 1.398 . S
C786 H774 0.950 . S
C786 C785 1.398 . S
C786 C787 1.391 . S
C787 H775 0.950 . S
C787 C783 1.393 . S
C787 C786 1.391 . S
H788 C796 0.950 . S
H789 C801 0.950 . S
H790 C798 0.950 . S
H791 C800 0.950 . S
H792 C802 0.950 . S
H793 C804 0.950 . S
H794 C806 0.950 . S
H795 C807 0.950 . S
C796 H788 0.950 . S
C796 C797 1.386 . S
C796 C798 1.391 . S
C797 C796 1.386 . S
C797 C801 1.393 . S
C798 H790 0.950 . S
C798 C796 1.391 . S
C798 C799 1.400 . S
C799 C798 1.400 . S
C799 C800 1.398 . S
C799 C805 1.491 . S
C800 H791 0.950 . S
C800 C799 1.398 . S
C800 C801 1.391 . S
C801 H789 0.950 . S
C801 C797 1.393 . S
C801 C800 1.391 . S
C802 H792 0.950 . S
C802 C803 1.386 . S
C802 C804 1.391 1_455 S
C803 C802 1.386 . S
C803 C807 1.393 . S
C804 H793 0.950 . S
C804 C802 1.391 1_655 S
C804 C805 1.400 . S
C805 C799 1.491 . S
C805 C804 1.400 . S
C805 C806 1.398 . S
C806 H794 0.950 . S
C806 C805 1.398 . S
C806 C807 1.391 1_655 S
C807 H795 0.950 . S
C807 C803 1.393 . S
C807 C806 1.391 1_455 S
H808 C816 0.950 . S
H809 C821 0.950 . S
H810 C818 0.950 . S
H811 C820 0.950 . S
H812 C822 0.950 . S
H813 C824 0.950 . S
H814 C826 0.950 . S
H815 C827 0.950 . S
C816 H808 0.950 . S
C816 C817 1.386 . S
C816 C818 1.391 . S
C817 C816 1.386 . S
C817 C821 1.393 . S
C818 H810 0.950 . S
C818 C816 1.391 . S
C818 C819 1.400 . S
C819 C818 1.400 . S
C819 C820 1.398 . S
C819 C825 1.491 . S
C820 H811 0.950 . S
C820 C819 1.398 . S
C820 C821 1.391 . S
C821 H809 0.950 . S
C821 C817 1.393 . S
C821 C820 1.391 . S
C822 H812 0.950 . S
C822 C823 1.386 . S
C822 C824 1.391 . S
C823 C822 1.386 . S
C823 C827 1.393 . S
C824 H813 0.950 . S
C824 C822 1.391 . S
C824 C825 1.400 . S
C825 C819 1.491 . S
C825 C824 1.400 . S
C825 C826 1.398 . S
C826 H814 0.950 . S
C826 C825 1.398 . S
C826 C827 1.391 . S
C827 H815 0.950 . S
C827 C823 1.393 . S
C827 C826 1.391 . S
H828 C836 0.950 . S
H829 C841 0.950 . S
H830 C838 0.950 . S
H831 C840 0.950 . S
H832 C842 0.950 . S
H833 C844 0.950 . S
H834 C846 0.950 . S
H835 C847 0.950 . S
C836 H828 0.950 . S
C836 C837 1.386 . S
C836 C838 1.391 . S
C837 C836 1.386 . S
C837 C841 1.393 . S
C838 H830 0.950 . S
C838 C836 1.391 . S
C838 C839 1.400 . S
C839 C838 1.400 . S
C839 C840 1.398 . S
C839 C845 1.491 . S
C840 H831 0.950 . S
C840 C839 1.398 . S
C840 C841 1.391 . S
C841 H829 0.950 . S
C841 C837 1.393 . S
C841 C840 1.391 . S
C842 H832 0.950 . S
C842 C843 1.386 . S
C842 C844 1.391 . S
C843 C842 1.386 . S
C843 C847 1.393 . S
C844 H833 0.950 . S
C844 C842 1.391 . S
C844 C845 1.400 . S
C845 C839 1.491 . S
C845 C844 1.400 . S
C845 C846 1.398 . S
C846 H834 0.950 . S
C846 C845 1.398 . S
C846 C847 1.391 . S
C847 H835 0.950 . S
C847 C843 1.393 . S
C847 C846 1.391 . S
H848 C856 0.950 . S
H849 C861 0.950 . S
H850 C858 0.950 . S
H851 C860 0.950 . S
H852 C862 0.950 . S
H853 C864 0.950 . S
H854 C866 0.950 . S
H855 C867 0.950 . S
C856 H848 0.950 . S
C856 C857 1.386 . S
C856 C858 1.391 . S
C857 C856 1.386 . S
C857 C861 1.393 . S
C858 H850 0.950 . S
C858 C856 1.391 . S
C858 C859 1.400 . S
C859 C858 1.400 . S
C859 C860 1.398 . S
C859 C865 1.491 . S
C860 H851 0.950 . S
C860 C859 1.398 . S
C860 C861 1.391 . S
C861 H849 0.950 . S
C861 C857 1.393 . S
C861 C860 1.391 . S
C862 H852 0.950 . S
C862 C863 1.386 . S
C862 C864 1.391 . S
C863 C862 1.386 . S
C863 C867 1.393 . S
C864 H853 0.950 . S
C864 C862 1.391 . S
C864 C865 1.400 . S
C865 C859 1.491 . S
C865 C864 1.400 . S
C865 C866 1.398 . S
C866 H854 0.950 . S
C866 C865 1.398 . S
C866 C867 1.391 . S
C867 H855 0.950 . S
C867 C863 1.393 . S
C867 C866 1.391 . S
H868 C876 0.950 . S
H869 C881 0.950 . S
H870 C878 0.950 . S
H871 C880 0.950 . S
H872 C882 0.950 . S
H873 C884 0.950 . S
H874 C886 0.950 . S
H875 C887 0.950 . S
C876 H868 0.950 . S
C876 C877 1.386 . S
C876 C878 1.391 . S
C877 C876 1.386 . S
C877 C881 1.393 . S
C878 H870 0.950 . S
C878 C876 1.391 . S
C878 C879 1.400 . S
C879 C878 1.400 . S
C879 C880 1.398 . S
C879 C885 1.491 . S
C880 H871 0.950 . S
C880 C879 1.398 . S
C880 C881 1.391 . S
C881 H869 0.950 . S
C881 C877 1.393 . S
C881 C880 1.391 . S
C882 H872 0.950 . S
C882 C883 1.386 . S
C882 C884 1.391 . S
C883 C882 1.386 . S
C883 C887 1.393 . S
C884 H873 0.950 . S
C884 C882 1.391 . S
C884 C885 1.400 . S
C885 C879 1.491 . S
C885 C884 1.400 . S
C885 C886 1.398 . S
C886 H874 0.950 . S
C886 C885 1.398 . S
C886 C887 1.391 . S
C887 H875 0.950 . S
C887 C883 1.393 . S
C887 C886 1.391 . S
H888 C896 0.950 . S
H889 C901 0.950 . S
H890 C898 0.950 . S
H891 C900 0.950 . S
H892 C902 0.950 . S
H893 C904 0.950 . S
H894 C906 0.950 . S
H895 C907 0.950 . S
C896 H888 0.950 . S
C896 C897 1.386 . S
C896 C898 1.391 . S
C897 C896 1.386 . S
C897 C901 1.393 . S
C898 H890 0.950 . S
C898 C896 1.391 . S
C898 C899 1.400 . S
C899 C898 1.400 . S
C899 C900 1.398 . S
C899 C905 1.491 . S
C900 H891 0.950 . S
C900 C899 1.398 . S
C900 C901 1.391 . S
C901 H889 0.950 . S
C901 C897 1.393 . S
C901 C900 1.391 . S
C902 H892 0.950 . S
C902 C903 1.386 . S
C902 C904 1.391 . S
C903 C902 1.386 . S
C903 C907 1.393 . S
C904 H893 0.950 . S
C904 C902 1.391 . S
C904 C905 1.400 . S
C905 C899 1.491 . S
C905 C904 1.400 . S
C905 C906 1.398 . S
C906 H894 0.950 . S
C906 C905 1.398 . S
C906 C907 1.391 . S
C907 H895 0.950 . S
C907 C903 1.393 . S
C907 C906 1.391 . S
H908 C916 0.950 1_455 S
H909 C921 0.950 . S
H910 C918 0.950 . S
H911 C920 0.950 . S
H912 C922 0.950 . S
H913 C924 0.950 . S
H914 C926 0.950 . S
H915 C927 0.950 . S
C916 H908 0.950 1_655 S
C916 C917 1.386 1_655 S
C916 C918 1.391 . S
C917 C916 1.386 1_455 S
C917 C921 1.393 . S
C918 H910 0.950 . S
C918 C916 1.391 . S
C918 C919 1.400 . S
C919 C918 1.400 . S
C919 C920 1.398 . S
C919 C925 1.491 . S
C920 H911 0.950 . S
C920 C919 1.398 . S
C920 C921 1.391 1_655 S
C921 H909 0.950 . S
C921 C917 1.393 . S
C921 C920 1.391 1_455 S
C922 H912 0.950 . S
C922 C923 1.386 . S
C922 C924 1.391 . S
C923 C922 1.386 . S
C923 C927 1.393 . S
C924 H913 0.950 . S
C924 C922 1.391 . S
C924 C925 1.400 . S
C925 C919 1.491 . S
C925 C924 1.400 . S
C925 C926 1.398 . S
C926 H914 0.950 . S
C926 C925 1.398 . S
C926 C927 1.391 . S
C927 H915 0.950 . S
C927 C923 1.393 . S
C927 C926 1.391 . S
H928 C936 0.950 . S
H929 C941 0.950 . S
H930 C938 0.950 . S
H931 C940 0.950 . S
H932 C942 0.950 . S
H933 C944 0.950 . S
H934 C946 0.950 . S
H935 C947 0.950 . S
C936 H928 0.950 . S
C936 C937 1.386 . S
C936 C938 1.391 . S
C937 C936 1.386 . S
C937 C941 1.393 . S
C938 H930 0.950 . S
C938 C936 1.391 . S
C938 C939 1.400 . S
C939 C938 1.400 . S
C939 C940 1.398 . S
C939 C945 1.491 . S
C940 H931 0.950 . S
C940 C939 1.398 . S
C940 C941 1.391 . S
C941 H929 0.950 . S
C941 C937 1.393 . S
C941 C940 1.391 . S
C942 H932 0.950 . S
C942 C943 1.386 . S
C942 C944 1.391 . S
C943 C942 1.386 . S
C943 C947 1.393 . S
C944 H933 0.950 . S
C944 C942 1.391 . S
C944 C945 1.400 . S
C945 C939 1.491 . S
C945 C944 1.400 . S
C945 C946 1.398 . S
C946 H934 0.950 . S
C946 C945 1.398 . S
C946 C947 1.391 . S
C947 H935 0.950 . S
C947 C943 1.393 . S
C947 C946 1.391 . S
H948 C956 0.955 . S
H949 C961 0.950 . S
H950 C958 0.950 . S
H951 C960 0.950 . S
H952 C962 0.950 . S
H953 C964 0.950 . S
H954 C966 0.950 . S
H955 C967 0.950 . S
C956 H948 0.955 . S
C956 C957 1.401 . S
C956 C958 1.371 1_655 S
C957 C956 1.401 . S
C957 C961 1.393 . S
C958 H950 0.950 . S
C958 C956 1.371 1_455 S
C958 C959 1.400 . S
C959 C958 1.400 . S
C959 C960 1.398 . S
C959 C965 1.491 . S
C960 H951 0.950 . S
C960 C959 1.398 . S
C960 C961 1.391 1_455 S
C961 H949 0.950 . S
C961 C957 1.393 . S
C961 C960 1.391 1_655 S
C962 H952 0.950 . S
C962 C963 1.386 . S
C962 C964 1.391 . S
C963 C962 1.386 . S
C963 C967 1.393 . S
C964 H953 0.950 . S
C964 C962 1.391 . S
C964 C965 1.400 . S
C965 C959 1.491 . S
C965 C964 1.400 . S
C965 C966 1.398 . S
C966 H954 0.950 . S
C966 C965 1.398 . S
C966 C967 1.391 . S
C967 H955 0.950 . S
C967 C963 1.393 . S
C967 C966 1.391 . S
H968 C976 0.950 . S
H969 C981 0.950 . S
H970 C978 0.950 . S
H971 C980 0.950 . S
H972 C982 0.950 . S
H973 C984 0.950 . S
H974 C986 0.950 . S
H975 C987 0.950 . S
C976 H968 0.950 . S
C976 C977 1.386 . S
C976 C978 1.391 . S
C977 C976 1.386 . S
C977 C981 1.393 . S
C978 H970 0.950 . S
C978 C976 1.391 . S
C978 C979 1.400 . S
C979 C978 1.400 . S
C979 C980 1.398 . S
C979 C985 1.491 . S
C980 H971 0.950 . S
C980 C979 1.398 . S
C980 C981 1.391 . S
C981 H969 0.950 . S
C981 C977 1.393 . S
C981 C980 1.391 . S
C982 H972 0.950 . S
C982 C983 1.386 . S
C982 C984 1.391 . S
C983 C982 1.386 . S
C983 C987 1.393 . S
C984 H973 0.950 . S
C984 C982 1.391 . S
C984 C985 1.400 . S
C985 C979 1.491 . S
C985 C984 1.400 . S
C985 C986 1.398 . S
C986 H974 0.950 . S
C986 C985 1.398 . S
C986 C987 1.391 . S
C987 H975 0.950 . S
C987 C983 1.393 . S
C987 C986 1.391 . S
H988 C996 0.950 . S
H989 C1001 0.950 . S
H990 C998 0.950 . S
H991 C1000 0.950 . S
H992 C1002 0.950 . S
H993 C1004 0.950 . S
H994 C1006 0.950 . S
H995 C1007 0.950 . S
C996 H988 0.950 . S
C996 C997 1.386 . S
C996 C998 1.391 . S
C997 C996 1.386 . S
C997 C1001 1.393 . S
C998 H990 0.950 . S
C998 C996 1.391 . S
C998 C999 1.400 . S
C999 C998 1.400 . S
C999 C1000 1.398 . S
C999 C1005 1.491 . S
C1000 H991 0.950 . S
C1000 C999 1.398 . S
C1000 C1001 1.391 . S
C1001 H989 0.950 . S
C1001 C997 1.393 . S
C1001 C1000 1.391 . S
C1002 H992 0.950 . S
C1002 C1003 1.386 . S
C1002 C1004 1.391 . S
C1003 C1002 1.386 . S
C1003 C1007 1.393 . S
C1004 H993 0.950 . S
C1004 C1002 1.391 . S
C1004 C1005 1.400 . S
C1005 C999 1.491 . S
C1005 C1004 1.400 . S
C1005 C1006 1.398 . S
C1006 H994 0.950 . S
C1006 C1005 1.398 . S
C1006 C1007 1.391 . S
C1007 H995 0.950 . S
C1007 C1003 1.393 . S
C1007 C1006 1.391 . S
H1008 C1016 0.950 . S
H1009 C1021 0.950 . S
H1010 C1018 0.950 . S
H1011 C1020 0.950 . S
H1012 C1022 0.950 . S
H1013 C1024 0.950 . S
H1014 C1026 0.950 . S
H1015 C1027 0.950 . S
C1016 H1008 0.950 . S
C1016 C1017 1.386 . S
C1016 C1018 1.391 . S
C1017 C1016 1.386 . S
C1017 C1021 1.393 . S
C1018 H1010 0.950 . S
C1018 C1016 1.391 . S
C1018 C1019 1.400 . S
C1019 C1018 1.400 . S
C1019 C1020 1.398 . S
C1019 C1025 1.491 . S
C1020 H1011 0.950 . S
C1020 C1019 1.398 . S
C1020 C1021 1.391 . S
C1021 H1009 0.950 . S
C1021 C1017 1.393 . S
C1021 C1020 1.391 . S
C1022 H1012 0.950 . S
C1022 C1023 1.386 . S
C1022 C1024 1.391 . S
C1023 C1022 1.386 . S
C1023 C1027 1.393 . S
C1024 H1013 0.950 . S
C1024 C1022 1.391 . S
C1024 C1025 1.400 . S
C1025 C1019 1.491 . S
C1025 C1024 1.400 . S
C1025 C1026 1.398 . S
C1026 H1014 0.950 . S
C1026 C1025 1.398 . S
C1026 C1027 1.391 . S
C1027 H1015 0.950 . S
C1027 C1023 1.393 . S
C1027 C1026 1.391 . S
H1028 C1036 0.950 . S
H1029 C1041 0.950 . S
H1030 C1038 0.950 . S
H1031 C1040 0.950 . S
H1032 C1042 0.950 . S
H1033 C1044 0.950 . S
H1034 C1046 0.950 . S
H1035 C1047 0.950 . S
C1036 H1028 0.950 . S
C1036 C1037 1.386 . S
C1036 C1038 1.391 . S
C1037 C1036 1.386 . S
C1037 C1041 1.393 . S
C1038 H1030 0.950 . S
C1038 C1036 1.391 . S
C1038 C1039 1.400 . S
C1039 C1038 1.400 . S
C1039 C1040 1.398 . S
C1039 C1045 1.491 . S
C1040 H1031 0.950 . S
C1040 C1039 1.398 . S
C1040 C1041 1.391 . S
C1041 H1029 0.950 . S
C1041 C1037 1.393 . S
C1041 C1040 1.391 . S
C1042 H1032 0.950 . S
C1042 C1043 1.386 . S
C1042 C1044 1.391 . S
C1043 C1042 1.386 . S
C1043 C1047 1.393 . S
C1044 H1033 0.950 . S
C1044 C1042 1.391 . S
C1044 C1045 1.400 . S
C1045 C1039 1.491 . S
C1045 C1044 1.400 . S
C1045 C1046 1.398 . S
C1046 H1034 0.950 . S
C1046 C1045 1.398 . S
C1046 C1047 1.391 . S
C1047 H1035 0.950 . S
C1047 C1043 1.393 . S
C1047 C1046 1.391 . S
H1048 C1056 0.950 . S
H1049 C1061 0.950 . S
H1050 C1058 0.950 . S
H1051 C1060 0.950 . S
H1052 C1062 0.950 . S
H1053 C1064 0.950 . S
H1054 C1066 0.950 . S
H1055 C1067 0.950 . S
C1056 H1048 0.950 . S
C1056 C1057 1.386 . S
C1056 C1058 1.391 . S
C1057 C1056 1.386 . S
C1057 C1061 1.393 . S
C1058 H1050 0.950 . S
C1058 C1056 1.391 . S
C1058 C1059 1.400 . S
C1059 C1058 1.400 . S
C1059 C1060 1.398 . S
C1059 C1065 1.491 . S
C1060 H1051 0.950 . S
C1060 C1059 1.398 . S
C1060 C1061 1.391 . S
C1061 H1049 0.950 . S
C1061 C1057 1.393 . S
C1061 C1060 1.391 . S
C1062 H1052 0.950 . S
C1062 C1063 1.386 . S
C1062 C1064 1.391 . S
C1063 C1062 1.386 . S
C1063 C1067 1.393 . S
C1064 H1053 0.950 . S
C1064 C1062 1.391 . S
C1064 C1065 1.400 . S
C1065 C1059 1.491 . S
C1065 C1064 1.400 . S
C1065 C1066 1.398 . S
C1066 H1054 0.950 . S
C1066 C1065 1.398 . S
C1066 C1067 1.391 . S
C1067 H1055 0.950 . S
C1067 C1063 1.393 . S
C1067 C1066 1.391 . S
H1068 C1076 0.950 . S
H1069 C1081 0.950 . S
H1070 C1078 0.950 . S
H1071 C1080 0.950 . S
H1072 C1082 0.950 . S
H1073 C1084 0.950 . S
H1074 C1086 0.950 . S
H1075 C1087 0.950 . S
C1076 H1068 0.950 . S
C1076 C1077 1.386 . S
C1076 C1078 1.391 . S
C1077 C1076 1.386 . S
C1077 C1081 1.393 . S
C1078 H1070 0.950 . S
C1078 C1076 1.391 . S
C1078 C1079 1.400 . S
C1079 C1078 1.400 . S
C1079 C1080 1.398 . S
C1079 C1085 1.491 . S
C1080 H1071 0.950 . S
C1080 C1079 1.398 . S
C1080 C1081 1.391 . S
C1081 H1069 0.950 . S
C1081 C1077 1.393 . S
C1081 C1080 1.391 . S
C1082 H1072 0.950 . S
C1082 C1083 1.386 1_455 S
C1082 C1084 1.391 . S
C1083 C1082 1.386 1_655 S
C1083 C1087 1.393 . S
C1084 H1073 0.950 . S
C1084 C1082 1.391 . S
C1084 C1085 1.400 . S
C1085 C1079 1.491 . S
C1085 C1084 1.400 . S
C1085 C1086 1.398 . S
C1086 H1074 0.950 . S
C1086 C1085 1.398 . S
C1086 C1087 1.391 1_455 S
C1087 H1075 0.950 . S
C1087 C1083 1.393 . S
C1087 C1086 1.391 1_655 S
H1088 C1096 0.950 . S
H1089 C1101 0.950 . S
H1090 C1098 0.950 . S
H1091 C1100 0.950 . S
H1092 C1102 0.950 . S
H1093 C1104 0.950 . S
H1094 C1106 0.950 . S
H1095 C1107 0.950 . S
C1096 H1088 0.950 . S
C1096 C1097 1.386 . S
C1096 C1098 1.391 . S
C1097 C1096 1.386 . S
C1097 C1101 1.393 . S
C1098 H1090 0.950 . S
C1098 C1096 1.391 . S
C1098 C1099 1.400 . S
C1099 C1098 1.400 . S
C1099 C1100 1.398 . S
C1099 C1105 1.491 . S
C1100 H1091 0.950 . S
C1100 C1099 1.398 . S
C1100 C1101 1.391 . S
C1101 H1089 0.950 . S
C1101 C1097 1.393 . S
C1101 C1100 1.391 . S
C1102 H1092 0.950 . S
C1102 C1103 1.386 . S
C1102 C1104 1.391 . S
C1103 C1102 1.386 . S
C1103 C1107 1.393 . S
C1104 H1093 0.950 . S
C1104 C1102 1.391 . S
C1104 C1105 1.400 . S
C1105 C1099 1.491 . S
C1105 C1104 1.400 . S
C1105 C1106 1.398 . S
C1106 H1094 0.950 . S
C1106 C1105 1.398 . S
C1106 C1107 1.391 . S
C1107 H1095 0.950 . S
C1107 C1103 1.393 . S
C1107 C1106 1.391 . S
H1108 C1116 0.950 . S
H1109 C1121 0.950 . S
H1110 C1118 0.950 . S
H1111 C1120 0.950 . S
H1112 C1122 0.950 . S
H1113 C1124 0.950 . S
H1114 C1126 0.950 . S
H1115 C1127 0.950 . S
C1116 H1108 0.950 . S
C1116 C1117 1.386 . S
C1116 C1118 1.391 . S
C1117 C1116 1.386 . S
C1117 C1121 1.393 . S
C1118 H1110 0.950 . S
C1118 C1116 1.391 . S
C1118 C1119 1.400 . S
C1119 C1118 1.400 . S
C1119 C1120 1.398 . S
C1119 C1125 1.491 . S
C1120 H1111 0.950 . S
C1120 C1119 1.398 . S
C1120 C1121 1.391 . S
C1121 H1109 0.950 . S
C1121 C1117 1.393 . S
C1121 C1120 1.391 . S
C1122 H1112 0.950 . S
C1122 C1123 1.386 . S
C1122 C1124 1.391 . S
C1123 C1122 1.386 . S
C1123 C1127 1.393 . S
C1124 H1113 0.950 . S
C1124 C1122 1.391 . S
C1124 C1125 1.400 . S
C1125 C1119 1.491 . S
C1125 C1124 1.400 . S
C1125 C1126 1.398 . S
C1126 H1114 0.950 . S
C1126 C1125 1.398 . S
C1126 C1127 1.391 . S
C1127 H1115 0.950 . S
C1127 C1123 1.393 . S
C1127 C1126 1.391 . S
H1128 C1136 0.950 . S
H1129 C1141 0.950 . S
H1130 C1138 0.950 . S
H1131 C1140 0.950 . S
H1132 C1142 0.950 . S
H1133 C1144 0.950 . S
H1134 C1146 0.950 . S
H1135 C1147 0.950 . S
C1136 H1128 0.950 . S
C1136 C1137 1.386 . S
C1136 C1138 1.391 . S
C1137 C1136 1.386 . S
C1137 C1141 1.393 . S
C1138 H1130 0.950 . S
C1138 C1136 1.391 . S
C1138 C1139 1.400 . S
C1139 C1138 1.400 . S
C1139 C1140 1.398 . S
C1139 C1145 1.491 . S
C1140 H1131 0.950 . S
C1140 C1139 1.398 . S
C1140 C1141 1.391 . S
C1141 H1129 0.950 . S
C1141 C1137 1.393 . S
C1141 C1140 1.391 . S
C1142 H1132 0.950 . S
C1142 C1143 1.386 . S
C1142 C1144 1.391 . S
C1143 C1142 1.386 . S
C1143 C1147 1.393 . S
C1144 H1133 0.950 . S
C1144 C1142 1.391 . S
C1144 C1145 1.400 . S
C1145 C1139 1.491 . S
C1145 C1144 1.400 . S
C1145 C1146 1.398 . S
C1146 H1134 0.950 . S
C1146 C1145 1.398 . S
C1146 C1147 1.391 . S
C1147 H1135 0.950 . S
C1147 C1143 1.393 . S
C1147 C1146 1.391 . S
H1148 C1156 0.950 . S
H1149 C1161 0.950 . S
H1150 C1158 0.950 . S
H1151 C1160 0.950 . S
H1152 C1162 0.957 . S
H1153 C1164 0.950 . S
H1154 C1166 0.950 . S
H1155 C1167 0.950 . S
C1156 H1148 0.950 . S
C1156 C1157 1.386 . S
C1156 C1158 1.391 . S
C1157 C1156 1.386 . S
C1157 C1161 1.393 . S
C1158 H1150 0.950 . S
C1158 C1156 1.391 . S
C1158 C1159 1.400 . S
C1159 C1158 1.400 . S
C1159 C1160 1.398 . S
C1159 C1165 1.491 . S
C1160 H1151 0.950 . S
C1160 C1159 1.398 . S
C1160 C1161 1.391 . S
C1161 H1149 0.950 . S
C1161 C1157 1.393 . S
C1161 C1160 1.391 . S
C1162 H1152 0.957 . S
C1162 C1163 1.386 1_455 S
C1162 C1164 1.391 . S
C1163 C1162 1.386 1_655 S
C1163 C1167 1.393 . S
C1164 H1153 0.950 . S
C1164 C1162 1.391 . S
C1164 C1165 1.400 . S
C1165 C1159 1.491 . S
C1165 C1164 1.400 . S
C1165 C1166 1.398 . S
C1166 H1154 0.950 . S
C1166 C1165 1.398 . S
C1166 C1167 1.391 1_455 S
C1167 H1155 0.950 . S
C1167 C1163 1.393 . S
C1167 C1166 1.391 1_655 S
H1168 C1176 0.950 . S
H1169 C1181 0.950 . S
H1170 C1178 0.950 . S
H1171 C1180 0.950 . S
H1172 C1182 0.950 . S
H1173 C1184 0.950 . S
H1174 C1186 0.950 . S
H1175 C1187 0.950 . S
C1176 H1168 0.950 . S
C1176 C1177 1.386 . S
C1176 C1178 1.391 . S
C1177 C1176 1.386 . S
C1177 C1181 1.393 . S
C1178 H1170 0.950 . S
C1178 C1176 1.391 . S
C1178 C1179 1.400 . S
C1179 C1178 1.400 . S
C1179 C1180 1.398 . S
C1179 C1185 1.491 . S
C1180 H1171 0.950 . S
C1180 C1179 1.398 . S
C1180 C1181 1.391 . S
C1181 H1169 0.950 . S
C1181 C1177 1.393 . S
C1181 C1180 1.391 . S
C1182 H1172 0.950 . S
C1182 C1183 1.386 . S
C1182 C1184 1.391 . S
C1183 C1182 1.386 . S
C1183 C1187 1.393 . S
C1184 H1173 0.950 . S
C1184 C1182 1.391 . S
C1184 C1185 1.400 . S
C1185 C1179 1.491 . S
C1185 C1184 1.400 . S
C1185 C1186 1.398 . S
C1186 H1174 0.950 . S
C1186 C1185 1.398 . S
C1186 C1187 1.391 . S
C1187 H1175 0.950 . S
C1187 C1183 1.393 . S
C1187 C1186 1.391 . S
H1188 C1196 0.951 1_655 S
H1189 C1201 0.950 . S
H1190 C1198 0.950 . S
H1191 C1200 0.950 . S
H1192 C1202 0.950 . S
H1193 C1204 0.950 . S
H1194 C1206 0.950 . S
H1195 C1207 0.950 . S
C1196 H1188 0.951 1_455 S
C1196 C1197 1.389 1_455 S
C1196 C1198 1.387 . S
C1197 C1196 1.389 1_655 S
C1197 C1201 1.393 . S
C1198 H1190 0.950 . S
C1198 C1196 1.387 . S
C1198 C1199 1.400 . S
C1199 C1198 1.400 . S
C1199 C1200 1.398 . S
C1199 C1205 1.491 . S
C1200 H1191 0.950 . S
C1200 C1199 1.398 . S
C1200 C1201 1.391 1_455 S
C1201 H1189 0.950 . S
C1201 C1197 1.393 . S
C1201 C1200 1.391 1_655 S
C1202 H1192 0.950 . S
C1202 C1203 1.386 . S
C1202 C1204 1.391 . S
C1203 C1202 1.386 . S
C1203 C1207 1.393 . S
C1204 H1193 0.950 . S
C1204 C1202 1.391 . S
C1204 C1205 1.400 . S
C1205 C1199 1.491 . S
C1205 C1204 1.400 . S
C1205 C1206 1.398 . S
C1206 H1194 0.950 . S
C1206 C1205 1.398 . S
C1206 C1207 1.391 . S
C1207 H1195 0.950 . S
C1207 C1203 1.393 . S
C1207 C1206 1.391 . S
H1208 C1216 0.950 . S
H1209 C1221 0.950 . S
H1210 C1218 0.950 . S
H1211 C1220 0.950 . S
H1212 C1222 0.950 . S
H1213 C1224 0.950 . S
H1214 C1226 0.950 . S
H1215 C1227 0.950 . S
C1216 H1208 0.950 . S
C1216 C1217 1.386 . S
C1216 C1218 1.391 . S
C1217 C1216 1.386 . S
C1217 C1221 1.393 . S
C1218 H1210 0.950 . S
C1218 C1216 1.391 . S
C1218 C1219 1.400 . S
C1219 C1218 1.400 . S
C1219 C1220 1.398 . S
C1219 C1225 1.491 . S
C1220 H1211 0.950 . S
C1220 C1219 1.398 . S
C1220 C1221 1.391 . S
C1221 H1209 0.950 . S
C1221 C1217 1.393 . S
C1221 C1220 1.391 . S
C1222 H1212 0.950 . S
C1222 C1223 1.386 . S
C1222 C1224 1.391 . S
C1223 C1222 1.386 . S
C1223 C1227 1.393 . S
C1224 H1213 0.950 . S
C1224 C1222 1.391 . S
C1224 C1225 1.400 . S
C1225 C1219 1.491 . S
C1225 C1224 1.400 . S
C1225 C1226 1.398 . S
C1226 H1214 0.950 . S
C1226 C1225 1.398 . S
C1226 C1227 1.391 . S
C1227 H1215 0.950 . S
C1227 C1223 1.393 . S
C1227 C1226 1.391 . S
H1228 C1236 0.950 . S
H1229 C1241 0.950 . S
H1230 C1238 0.950 . S
H1231 C1240 0.950 . S
H1232 C1242 0.950 . S
H1233 C1244 0.950 . S
H1234 C1246 0.950 . S
H1235 C1247 0.950 . S
C1236 H1228 0.950 . S
C1236 C1237 1.386 . S
C1236 C1238 1.391 . S
C1237 C1236 1.386 . S
C1237 C1241 1.393 . S
C1238 H1230 0.950 . S
C1238 C1236 1.391 . S
C1238 C1239 1.400 . S
C1239 C1238 1.400 . S
C1239 C1240 1.398 . S
C1239 C1245 1.491 . S
C1240 H1231 0.950 . S
C1240 C1239 1.398 . S
C1240 C1241 1.391 . S
C1241 H1229 0.950 . S
C1241 C1237 1.393 . S
C1241 C1240 1.391 . S
C1242 H1232 0.950 . S
C1242 C1243 1.386 . S
C1242 C1244 1.391 . S
C1243 C1242 1.386 . S
C1243 C1247 1.393 . S
C1244 H1233 0.950 . S
C1244 C1242 1.391 . S
C1244 C1245 1.400 . S
C1245 C1239 1.491 . S
C1245 C1244 1.400 . S
C1245 C1246 1.398 . S
C1246 H1234 0.950 . S
C1246 C1245 1.398 . S
C1246 C1247 1.391 . S
C1247 H1235 0.950 . S
C1247 C1243 1.393 . S
C1247 C1246 1.391 . S
H1248 C1256 0.950 . S
H1249 C1261 0.950 . S
H1250 C1258 0.950 . S
H1251 C1260 0.950 . S
H1252 C1262 0.950 . S
H1253 C1264 0.950 . S
H1254 C1266 0.950 . S
H1255 C1267 0.950 . S
C1256 H1248 0.950 . S
C1256 C1257 1.386 . S
C1256 C1258 1.391 . S
C1257 C1256 1.386 . S
C1257 C1261 1.393 . S
C1258 H1250 0.950 . S
C1258 C1256 1.391 . S
C1258 C1259 1.400 . S
C1259 C1258 1.400 . S
C1259 C1260 1.398 . S
C1259 C1265 1.491 . S
C1260 H1251 0.950 . S
C1260 C1259 1.398 . S
C1260 C1261 1.391 . S
C1261 H1249 0.950 . S
C1261 C1257 1.393 . S
C1261 C1260 1.391 . S
C1262 H1252 0.950 . S
C1262 C1263 1.386 . S
C1262 C1264 1.391 . S
C1263 C1262 1.386 . S
C1263 C1267 1.393 . S
C1264 H1253 0.950 . S
C1264 C1262 1.391 . S
C1264 C1265 1.400 . S
C1265 C1259 1.491 . S
C1265 C1264 1.400 . S
C1265 C1266 1.398 . S
C1266 H1254 0.950 . S
C1266 C1265 1.398 . S
C1266 C1267 1.391 . S
C1267 H1255 0.950 . S
C1267 C1263 1.393 . S
C1267 C1266 1.391 . S
H1268 C1276 0.950 . S
H1269 C1281 0.950 . S
H1270 C1278 0.950 . S
H1271 C1280 0.950 . S
H1272 C1282 0.950 . S
H1273 C1284 0.950 . S
H1274 C1286 0.950 . S
H1275 C1287 0.950 . S
C1276 H1268 0.950 . S
C1276 C1277 1.386 . S
C1276 C1278 1.391 . S
C1277 C1276 1.386 . S
C1277 C1281 1.393 . S
C1278 H1270 0.950 . S
C1278 C1276 1.391 . S
C1278 C1279 1.400 . S
C1279 C1278 1.400 . S
C1279 C1280 1.398 . S
C1279 C1285 1.491 . S
C1280 H1271 0.950 . S
C1280 C1279 1.398 . S
C1280 C1281 1.391 . S
C1281 H1269 0.950 . S
C1281 C1277 1.393 . S
C1281 C1280 1.391 . S
C1282 H1272 0.950 . S
C1282 C1283 1.386 . S
C1282 C1284 1.391 . S
C1283 C1282 1.386 . S
C1283 C1287 1.393 . S
C1284 H1273 0.950 . S
C1284 C1282 1.391 . S
C1284 C1285 1.400 . S
C1285 C1279 1.491 . S
C1285 C1284 1.400 . S
C1285 C1286 1.398 . S
C1286 H1274 0.950 . S
C1286 C1285 1.398 . S
C1286 C1287 1.391 . S
C1287 H1275 0.950 . S
C1287 C1283 1.393 . S
C1287 C1286 1.391 . S
H1288 C1296 0.950 . S
H1289 C1301 0.950 . S
H1290 C1298 0.950 . S
H1291 C1300 0.950 . S
H1292 C1302 0.950 . S
H1293 C1304 0.950 . S
H1294 C1306 0.950 . S
H1295 C1307 0.950 . S
C1296 H1288 0.950 . S
C1296 C1297 1.386 . S
C1296 C1298 1.391 . S
C1297 C1296 1.386 . S
C1297 C1301 1.393 . S
C1298 H1290 0.950 . S
C1298 C1296 1.391 . S
C1298 C1299 1.400 . S
C1299 C1298 1.400 . S
C1299 C1300 1.398 . S
C1299 C1305 1.491 . S
C1300 H1291 0.950 . S
C1300 C1299 1.398 . S
C1300 C1301 1.391 . S
C1301 H1289 0.950 . S
C1301 C1297 1.393 . S
C1301 C1300 1.391 . S
C1302 H1292 0.950 . S
C1302 C1303 1.386 . S
C1302 C1304 1.391 . S
C1303 C1302 1.386 . S
C1303 C1307 1.393 . S
C1304 H1293 0.950 . S
C1304 C1302 1.391 . S
C1304 C1305 1.400 . S
C1305 C1299 1.491 . S
C1305 C1304 1.400 . S
C1305 C1306 1.398 . S
C1306 H1294 0.950 . S
C1306 C1305 1.398 . S
C1306 C1307 1.391 . S
C1307 H1295 0.950 . S
C1307 C1303 1.393 . S
C1307 C1306 1.391 . S
H1308 C1316 0.950 . S
H1309 C1321 0.950 . S
H1310 C1318 0.950 . S
H1311 C1320 0.950 . S
H1312 C1322 0.950 . S
H1313 C1324 0.950 . S
H1314 C1326 0.950 . S
H1315 C1327 0.950 . S
C1316 H1308 0.950 . S
C1316 C1317 1.386 . S
C1316 C1318 1.391 . S
C1317 C1316 1.386 . S
C1317 C1321 1.393 . S
C1318 H1310 0.950 . S
C1318 C1316 1.391 . S
C1318 C1319 1.400 . S
C1319 C1318 1.400 . S
C1319 C1320 1.398 . S
C1319 C1325 1.491 . S
C1320 H1311 0.950 . S
C1320 C1319 1.398 . S
C1320 C1321 1.391 . S
C1321 H1309 0.950 . S
C1321 C1317 1.393 . S
C1321 C1320 1.391 . S
C1322 H1312 0.950 . S
C1322 C1323 1.386 . S
C1322 C1324 1.391 1_455 S
C1323 C1322 1.386 . S
C1323 C1327 1.393 1_455 S
C1324 H1313 0.950 . S
C1324 C1322 1.391 1_655 S
C1324 C1325 1.400 . S
C1325 C1319 1.491 . S
C1325 C1324 1.400 . S
C1325 C1326 1.398 . S
C1326 H1314 0.950 . S
C1326 C1325 1.398 . S
C1326 C1327 1.391 . S
C1327 H1315 0.950 . S
C1327 C1323 1.393 1_655 S
C1327 C1326 1.391 . S
H1328 C1336 0.950 . S
H1329 C1341 0.950 . S
H1330 C1338 0.950 . S
H1331 C1340 0.950 . S
H1332 C1342 0.950 . S
H1333 C1344 0.950 . S
H1334 C1346 0.950 . S
H1335 C1347 0.950 . S
C1336 H1328 0.950 . S
C1336 C1337 1.386 . S
C1336 C1338 1.391 . S
C1337 C1336 1.386 . S
C1337 C1341 1.393 . S
C1338 H1330 0.950 . S
C1338 C1336 1.391 . S
C1338 C1339 1.400 . S
C1339 C1338 1.400 . S
C1339 C1340 1.398 . S
C1339 C1345 1.491 . S
C1340 H1331 0.950 . S
C1340 C1339 1.398 . S
C1340 C1341 1.391 . S
C1341 H1329 0.950 . S
C1341 C1337 1.393 . S
C1341 C1340 1.391 . S
C1342 H1332 0.950 . S
C1342 C1343 1.386 . S
C1342 C1344 1.391 . S
C1343 C1342 1.386 . S
C1343 C1347 1.393 . S
C1344 H1333 0.950 . S
C1344 C1342 1.391 . S
C1344 C1345 1.400 . S
C1345 C1339 1.491 . S
C1345 C1344 1.400 . S
C1345 C1346 1.398 . S
C1346 H1334 0.950 . S
C1346 C1345 1.398 . S
C1346 C1347 1.391 . S
C1347 H1335 0.950 . S
C1347 C1343 1.393 . S
C1347 C1346 1.391 . S
H1348 C1356 0.950 . S
H1349 C1361 0.950 . S
H1350 C1358 0.950 . S
H1351 C1360 0.950 . S
H1352 C1362 0.950 . S
H1353 C1364 0.950 . S
H1354 C1366 0.950 . S
H1355 C1367 0.950 . S
C1356 H1348 0.950 . S
C1356 C1357 1.386 . S
C1356 C1358 1.391 1_455 S
C1357 C1356 1.386 . S
C1357 C1361 1.393 . S
C1358 H1350 0.950 . S
C1358 C1356 1.391 1_655 S
C1358 C1359 1.400 . S
C1359 C1358 1.400 . S
C1359 C1360 1.398 . S
C1359 C1365 1.491 . S
C1360 H1351 0.950 . S
C1360 C1359 1.398 . S
C1360 C1361 1.391 1_655 S
C1361 H1349 0.950 . S
C1361 C1357 1.393 . S
C1361 C1360 1.391 1_455 S
C1362 H1352 0.950 . S
C1362 C1363 1.386 . S
C1362 C1364 1.391 . S
C1363 C1362 1.386 . S
C1363 C1367 1.393 . S
C1364 H1353 0.950 . S
C1364 C1362 1.391 . S
C1364 C1365 1.400 . S
C1365 C1359 1.491 . S
C1365 C1364 1.400 . S
C1365 C1366 1.398 . S
C1366 H1354 0.950 . S
C1366 C1365 1.398 . S
C1366 C1367 1.391 . S
C1367 H1355 0.950 . S
C1367 C1363 1.393 . S
C1367 C1366 1.391 . S
H1368 C1376 0.950 . S
H1369 C1381 0.950 . S
H1370 C1378 0.950 . S
H1371 C1380 0.950 . S
H1372 C1382 0.950 . S
H1373 C1384 0.950 . S
H1374 C1386 0.950 . S
H1375 C1387 0.950 . S
C1376 H1368 0.950 . S
C1376 C1377 1.386 . S
C1376 C1378 1.391 . S
C1377 C1376 1.386 . S
C1377 C1381 1.393 . S
C1378 H1370 0.950 . S
C1378 C1376 1.391 . S
C1378 C1379 1.400 . S
C1379 C1378 1.400 . S
C1379 C1380 1.398 . S
C1379 C1385 1.491 . S
C1380 H1371 0.950 . S
C1380 C1379 1.398 . S
C1380 C1381 1.391 . S
C1381 H1369 0.950 . S
C1381 C1377 1.393 . S
C1381 C1380 1.391 . S
C1382 H1372 0.950 . S
C1382 C1383 1.386 . S
C1382 C1384 1.391 . S
C1383 C1382 1.386 . S
C1383 C1387 1.393 . S
C1384 H1373 0.950 . S
C1384 C1382 1.391 . S
C1384 C1385 1.400 . S
C1385 C1379 1.491 . S
C1385 C1384 1.400 . S
C1385 C1386 1.398 . S
C1386 H1374 0.950 . S
C1386 C1385 1.398 . S
C1386 C1387 1.391 . S
C1387 H1375 0.950 . S
C1387 C1383 1.393 . S
C1387 C1386 1.391 . S
H1388 C1396 0.950 . S
H1389 C1401 0.950 . S
H1390 C1398 0.950 . S
H1391 C1400 0.950 . S
H1392 C1402 0.950 . S
H1393 C1404 0.950 . S
H1394 C1406 0.950 . S
H1395 C1407 0.950 . S
C1396 H1388 0.950 . S
C1396 C1397 1.386 . S
C1396 C1398 1.391 . S
C1397 C1396 1.386 . S
C1397 C1401 1.393 . S
C1398 H1390 0.950 . S
C1398 C1396 1.391 . S
C1398 C1399 1.400 . S
C1399 C1398 1.400 . S
C1399 C1400 1.398 . S
C1399 C1405 1.491 . S
C1400 H1391 0.950 . S
C1400 C1399 1.398 . S
C1400 C1401 1.391 . S
C1401 H1389 0.950 . S
C1401 C1397 1.393 . S
C1401 C1400 1.391 . S
C1402 H1392 0.950 . S
C1402 C1403 1.386 . S
C1402 C1404 1.391 . S
C1403 C1402 1.386 . S
C1403 C1407 1.393 . S
C1404 H1393 0.950 . S
C1404 C1402 1.391 . S
C1404 C1405 1.400 . S
C1405 C1399 1.491 . S
C1405 C1404 1.400 . S
C1405 C1406 1.398 . S
C1406 H1394 0.950 . S
C1406 C1405 1.398 . S
C1406 C1407 1.391 . S
C1407 H1395 0.950 . S
C1407 C1403 1.393 . S
C1407 C1406 1.391 . S
H1408 C1416 0.950 . S
H1409 C1421 0.950 . S
H1410 C1418 0.950 . S
H1411 C1420 0.950 . S
H1412 C1422 0.950 . S
H1413 C1424 0.950 . S
H1414 C1426 0.950 . S
H1415 C1427 0.950 . S
C1416 H1408 0.950 . S
C1416 C1417 1.386 . S
C1416 C1418 1.391 . S
C1417 C1416 1.386 . S
C1417 C1421 1.393 . S
C1418 H1410 0.950 . S
C1418 C1416 1.391 . S
C1418 C1419 1.400 . S
C1419 C1418 1.400 . S
C1419 C1420 1.398 . S
C1419 C1425 1.491 . S
C1420 H1411 0.950 . S
C1420 C1419 1.398 . S
C1420 C1421 1.391 . S
C1421 H1409 0.950 . S
C1421 C1417 1.393 . S
C1421 C1420 1.391 . S
C1422 H1412 0.950 . S
C1422 C1423 1.386 . S
C1422 C1424 1.391 . S
C1423 C1422 1.386 . S
C1423 C1427 1.393 . S
C1424 H1413 0.950 . S
C1424 C1422 1.391 . S
C1424 C1425 1.400 . S
C1425 C1419 1.491 . S
C1425 C1424 1.400 . S
C1425 C1426 1.398 . S
C1426 H1414 0.950 . S
C1426 C1425 1.398 . S
C1426 C1427 1.391 . S
C1427 H1415 0.950 . S
C1427 C1423 1.393 . S
C1427 C1426 1.391 . S
H1428 C1436 0.950 . S
H1429 C1441 0.950 . S
H1430 C1438 0.950 . S
H1431 C1440 0.950 . S
H1432 C1442 0.950 . S
H1433 C1444 0.950 . S
H1434 C1446 0.950 . S
H1435 C1447 0.950 . S
C1436 H1428 0.950 . S
C1436 C1437 1.386 . S
C1436 C1438 1.391 . S
C1437 C1436 1.386 . S
C1437 C1441 1.393 . S
C1438 H1430 0.950 . S
C1438 C1436 1.391 . S
C1438 C1439 1.400 . S
C1439 C1438 1.400 . S
C1439 C1440 1.398 . S
C1439 C1445 1.491 . S
C1440 H1431 0.950 . S
C1440 C1439 1.398 . S
C1440 C1441 1.391 . S
C1441 H1429 0.950 . S
C1441 C1437 1.393 . S
C1441 C1440 1.391 . S
C1442 H1432 0.950 . S
C1442 C1443 1.386 . S
C1442 C1444 1.391 . S
C1443 C1442 1.386 . S
C1443 C1447 1.393 . S
C1444 H1433 0.950 . S
C1444 C1442 1.391 . S
C1444 C1445 1.400 . S
C1445 C1439 1.491 . S
C1445 C1444 1.400 . S
C1445 C1446 1.398 . S
C1446 H1434 0.950 . S
C1446 C1445 1.398 . S
C1446 C1447 1.391 . S
C1447 H1435 0.950 . S
C1447 C1443 1.393 . S
C1447 C1446 1.391 . S
H1448 C1456 0.950 . S
H1449 C1461 0.950 . S
H1450 C1458 0.950 . S
H1451 C1460 0.950 . S
H1452 C1462 0.950 . S
H1453 C1464 0.950 . S
H1454 C1466 0.950 . S
H1455 C1467 0.950 . S
C1456 H1448 0.950 . S
C1456 C1457 1.386 . S
C1456 C1458 1.391 . S
C1457 C1456 1.386 . S
C1457 C1461 1.393 . S
C1458 H1450 0.950 . S
C1458 C1456 1.391 . S
C1458 C1459 1.400 . S
C1459 C1458 1.400 . S
C1459 C1460 1.398 . S
C1459 C1465 1.491 . S
C1460 H1451 0.950 . S
C1460 C1459 1.398 . S
C1460 C1461 1.391 . S
C1461 H1449 0.950 . S
C1461 C1457 1.393 . S
C1461 C1460 1.391 . S
C1462 H1452 0.950 . S
C1462 C1463 1.386 . S
C1462 C1464 1.391 . S
C1463 C1462 1.386 . S
C1463 C1467 1.393 . S
C1464 H1453 0.950 . S
C1464 C1462 1.391 . S
C1464 C1465 1.400 . S
C1465 C1459 1.491 . S
C1465 C1464 1.400 . S
C1465 C1466 1.398 . S
C1466 H1454 0.950 . S
C1466 C1465 1.398 . S
C1466 C1467 1.391 . S
C1467 H1455 0.950 . S
C1467 C1463 1.393 . S
C1467 C1466 1.391 . S
H1468 C1476 0.950 . S
H1469 C1481 0.951 1_554 S
H1470 C1478 0.950 . S
H1471 C1480 0.950 . S
H1472 C1482 0.950 . S
H1473 C1484 0.950 . S
H1474 C1486 0.950 . S
H1475 C1487 0.951 1_556 S
C1476 H1468 0.950 . S
C1476 C1477 1.386 . S
C1476 C1478 1.391 . S
C1477 C1476 1.386 . S
C1477 C1481 1.391 . S
C1478 H1470 0.950 . S
C1478 C1476 1.391 . S
C1478 C1479 1.400 . S
C1479 C1478 1.400 . S
C1479 C1480 1.398 1_556 S
C1479 C1485 1.491 1_556 S
C1480 H1471 0.950 . S
C1480 C1479 1.398 1_554 S
C1480 C1481 1.391 1_554 S
C1481 H1469 0.951 1_556 S
C1481 C1477 1.391 . S
C1481 C1480 1.391 1_556 S
C1482 H1472 0.950 . S
C1482 C1483 1.386 . S
C1482 C1484 1.391 . S
C1483 C1482 1.386 . S
C1483 C1487 1.391 . S
C1484 H1473 0.950 . S
C1484 C1482 1.391 . S
C1484 C1485 1.400 . S
C1485 C1479 1.491 1_554 S
C1485 C1484 1.400 . S
C1485 C1486 1.398 1_554 S
C1486 H1474 0.950 . S
C1486 C1485 1.398 1_556 S
C1486 C1487 1.391 1_556 S
C1487 H1475 0.951 1_554 S
C1487 C1483 1.391 . S
C1487 C1486 1.391 1_554 S
H1488 C1496 0.950 . S
H1489 C1501 0.950 . S
H1490 C1498 0.950 . S
H1491 C1500 0.950 . S
H1492 C1502 0.950 . S
H1493 C1504 0.950 . S
H1494 C1506 0.950 . S
H1495 C1507 0.950 . S
C1496 H1488 0.950 . S
C1496 C1497 1.386 . S
C1496 C1498 1.391 . S
C1497 C1496 1.386 . S
C1497 C1501 1.393 . S
C1498 H1490 0.950 . S
C1498 C1496 1.391 . S
C1498 C1499 1.400 . S
C1499 C1498 1.400 . S
C1499 C1500 1.398 . S
C1499 C1505 1.491 . S
C1500 H1491 0.950 . S
C1500 C1499 1.398 . S
C1500 C1501 1.391 . S
C1501 H1489 0.950 . S
C1501 C1497 1.393 . S
C1501 C1500 1.391 . S
C1502 H1492 0.950 . S
C1502 C1503 1.386 . S
C1502 C1504 1.391 . S
C1503 C1502 1.386 . S
C1503 C1507 1.393 . S
C1504 H1493 0.950 . S
C1504 C1502 1.391 . S
C1504 C1505 1.400 . S
C1505 C1499 1.491 . S
C1505 C1504 1.400 . S
C1505 C1506 1.398 . S
C1506 H1494 0.950 . S
C1506 C1505 1.398 . S
C1506 C1507 1.391 . S
C1507 H1495 0.950 . S
C1507 C1503 1.393 . S
C1507 C1506 1.391 . S
H1508 C1516 0.950 . S
H1509 C1521 0.950 . S
H1510 C1518 0.950 . S
H1511 C1520 0.950 . S
H1512 C1522 0.950 . S
H1513 C1524 0.950 . S
H1514 C1526 0.950 . S
H1515 C1527 0.950 . S
C1516 H1508 0.950 . S
C1516 C1517 1.386 . S
C1516 C1518 1.391 . S
C1517 C1516 1.386 . S
C1517 C1521 1.393 . S
C1518 H1510 0.950 . S
C1518 C1516 1.391 . S
C1518 C1519 1.400 . S
C1519 C1518 1.400 . S
C1519 C1520 1.398 . S
C1519 C1525 1.491 . S
C1520 H1511 0.950 . S
C1520 C1519 1.398 . S
C1520 C1521 1.391 . S
C1521 H1509 0.950 . S
C1521 C1517 1.393 . S
C1521 C1520 1.391 . S
C1522 H1512 0.950 . S
C1522 C1523 1.386 . S
C1522 C1524 1.391 . S
C1523 C1522 1.386 . S
C1523 C1527 1.393 . S
C1524 H1513 0.950 . S
C1524 C1522 1.391 . S
C1524 C1525 1.400 . S
C1525 C1519 1.491 . S
C1525 C1524 1.400 . S
C1525 C1526 1.398 . S
C1526 H1514 0.950 . S
C1526 C1525 1.398 . S
C1526 C1527 1.391 . S
C1527 H1515 0.950 . S
C1527 C1523 1.393 . S
C1527 C1526 1.391 . S
H1528 C1536 0.950 . S
H1529 C1541 0.950 . S
H1530 C1538 0.950 . S
H1531 C1540 0.950 . S
H1532 C1542 0.950 . S
H1533 C1544 0.950 . S
H1534 C1546 0.950 . S
H1535 C1547 0.950 . S
C1536 H1528 0.950 . S
C1536 C1537 1.386 . S
C1536 C1538 1.391 . S
C1537 C1536 1.386 . S
C1537 C1541 1.393 . S
C1538 H1530 0.950 . S
C1538 C1536 1.391 . S
C1538 C1539 1.400 . S
C1539 C1538 1.400 . S
C1539 C1540 1.398 . S
C1539 C1545 1.491 . S
C1540 H1531 0.950 . S
C1540 C1539 1.398 . S
C1540 C1541 1.391 . S
C1541 H1529 0.950 . S
C1541 C1537 1.393 . S
C1541 C1540 1.391 . S
C1542 H1532 0.950 . S
C1542 C1543 1.386 . S
C1542 C1544 1.391 . S
C1543 C1542 1.386 . S
C1543 C1547 1.393 . S
C1544 H1533 0.950 . S
C1544 C1542 1.391 . S
C1544 C1545 1.400 . S
C1545 C1539 1.491 . S
C1545 C1544 1.400 . S
C1545 C1546 1.398 . S
C1546 H1534 0.950 . S
C1546 C1545 1.398 . S
C1546 C1547 1.391 . S
C1547 H1535 0.950 . S
C1547 C1543 1.393 . S
C1547 C1546 1.391 . S
H1548 C1556 0.950 . S
H1549 C1561 0.951 1_556 S
H1550 C1558 0.950 . S
H1551 C1560 0.950 . S
H1552 C1562 0.950 . S
H1553 C1564 0.950 . S
H1554 C1566 0.950 . S
H1555 C1567 0.951 1_554 S
C1556 H1548 0.950 . S
C1556 C1557 1.386 . S
C1556 C1558 1.391 . S
C1557 C1556 1.386 . S
C1557 C1561 1.391 . S
C1558 H1550 0.950 . S
C1558 C1556 1.391 . S
C1558 C1559 1.400 . S
C1559 C1558 1.400 . S
C1559 C1560 1.398 1_554 S
C1559 C1565 1.491 1_554 S
C1560 H1551 0.950 . S
C1560 C1559 1.398 1_556 S
C1560 C1561 1.391 1_556 S
C1561 H1549 0.951 1_554 S
C1561 C1557 1.391 . S
C1561 C1560 1.391 1_554 S
C1562 H1552 0.950 . S
C1562 C1563 1.386 . S
C1562 C1564 1.391 . S
C1563 C1562 1.386 . S
C1563 C1567 1.391 . S
C1564 H1553 0.950 . S
C1564 C1562 1.391 . S
C1564 C1565 1.400 . S
C1565 C1559 1.491 1_556 S
C1565 C1564 1.400 . S
C1565 C1566 1.398 1_556 S
C1566 H1554 0.950 . S
C1566 C1565 1.398 1_554 S
C1566 C1567 1.391 1_554 S
C1567 H1555 0.951 1_556 S
C1567 C1563 1.391 . S
C1567 C1566 1.391 1_556 S
H1568 C1576 0.950 . S
H1569 C1581 0.950 . S
H1570 C1578 0.950 . S
H1571 C1580 0.950 . S
H1572 C1582 0.950 . S
H1573 C1584 0.950 . S
H1574 C1586 0.950 . S
H1575 C1587 0.950 . S
C1576 H1568 0.950 . S
C1576 C1577 1.386 . S
C1576 C1578 1.391 . S
C1577 C1576 1.386 . S
C1577 C1581 1.393 . S
C1578 H1570 0.950 . S
C1578 C1576 1.391 . S
C1578 C1579 1.400 . S
C1579 C1578 1.400 . S
C1579 C1580 1.398 . S
C1579 C1585 1.491 1_565 S
C1580 H1571 0.950 . S
C1580 C1579 1.398 . S
C1580 C1581 1.391 . S
C1581 H1569 0.950 . S
C1581 C1577 1.393 . S
C1581 C1580 1.391 . S
C1582 H1572 0.950 . S
C1582 C1583 1.386 . S
C1582 C1584 1.391 . S
C1583 C1582 1.386 . S
C1583 C1587 1.393 . S
C1584 H1573 0.950 . S
C1584 C1582 1.391 . S
C1584 C1585 1.400 . S
C1585 C1579 1.491 1_545 S
C1585 C1584 1.400 . S
C1585 C1586 1.398 . S
C1586 H1574 0.950 . S
C1586 C1585 1.398 . S
C1586 C1587 1.391 . S
C1587 H1575 0.950 . S
C1587 C1583 1.393 . S
C1587 C1586 1.391 . S
H1588 C1596 0.950 . S
H1589 C1601 0.950 . S
H1590 C1598 0.950 . S
H1591 C1600 0.967 . S
H1592 C1602 0.950 . S
H1593 C1604 0.950 . S
H1594 C1606 0.967 . S
H1595 C1607 0.950 . S
C1596 H1588 0.950 . S
C1596 C1597 1.386 . S
C1596 C1598 1.391 . S
C1597 C1596 1.386 . S
C1597 C1601 1.393 . S
C1598 H1590 0.950 . S
C1598 C1596 1.391 . S
C1598 C1599 1.400 . S
C1599 C1598 1.400 . S
C1599 C1600 1.393 1_554 S
C1599 C1605 1.491 1_554 S
C1600 H1591 0.967 . S
C1600 C1599 1.393 1_556 S
C1600 C1601 1.380 1_556 S
C1601 H1589 0.950 . S
C1601 C1597 1.393 . S
C1601 C1600 1.380 1_554 S
C1602 H1592 0.950 . S
C1602 C1603 1.386 . S
C1602 C1604 1.391 . S
C1603 C1602 1.386 . S
C1603 C1607 1.393 . S
C1604 H1593 0.950 . S
C1604 C1602 1.391 . S
C1604 C1605 1.400 . S
C1605 C1599 1.491 1_556 S
C1605 C1604 1.400 . S
C1605 C1606 1.393 1_556 S
C1606 H1594 0.967 . S
C1606 C1605 1.393 1_554 S
C1606 C1607 1.380 1_554 S
C1607 H1595 0.950 . S
C1607 C1603 1.393 . S
C1607 C1606 1.380 1_556 S
H1608 C1616 0.950 . S
H1609 C1621 0.950 . S
H1610 C1618 0.950 . S
H1611 C1620 0.950 . S
H1612 C1622 0.950 . S
H1613 C1624 0.950 . S
H1614 C1626 0.950 . S
H1615 C1627 0.950 . S
C1616 H1608 0.950 . S
C1616 C1617 1.386 . S
C1616 C1618 1.391 . S
C1617 C1616 1.386 . S
C1617 C1621 1.393 . S
C1618 H1610 0.950 . S
C1618 C1616 1.391 . S
C1618 C1619 1.400 . S
C1619 C1618 1.400 . S
C1619 C1620 1.398 . S
C1619 C1625 1.491 1_545 S
C1620 H1611 0.950 . S
C1620 C1619 1.398 . S
C1620 C1621 1.391 . S
C1621 H1609 0.950 . S
C1621 C1617 1.393 . S
C1621 C1620 1.391 . S
C1622 H1612 0.950 . S
C1622 C1623 1.386 . S
C1622 C1624 1.391 . S
C1623 C1622 1.386 . S
C1623 C1627 1.393 . S
C1624 H1613 0.950 . S
C1624 C1622 1.391 . S
C1624 C1625 1.400 . S
C1625 C1619 1.491 1_565 S
C1625 C1624 1.400 . S
C1625 C1626 1.398 . S
C1626 H1614 0.950 . S
C1626 C1625 1.398 . S
C1626 C1627 1.391 . S
C1627 H1615 0.950 . S
C1627 C1623 1.393 . S
C1627 C1626 1.391 . S
H1628 C1636 0.950 . S
H1629 C1641 0.950 . S
H1630 C1638 0.950 . S
H1631 C1640 0.950 . S
H1632 C1642 0.950 . S
H1633 C1644 0.950 . S
H1634 C1646 0.950 . S
H1635 C1647 0.950 . S
C1636 H1628 0.950 . S
C1636 C1637 1.386 . S
C1636 C1638 1.391 . S
C1637 C1636 1.386 . S
C1637 C1641 1.393 . S
C1638 H1630 0.950 . S
C1638 C1636 1.391 . S
C1638 C1639 1.400 . S
C1639 C1638 1.400 . S
C1639 C1640 1.398 . S
C1639 C1645 1.491 . S
C1640 H1631 0.950 . S
C1640 C1639 1.398 . S
C1640 C1641 1.391 . S
C1641 H1629 0.950 . S
C1641 C1637 1.393 . S
C1641 C1640 1.391 . S
C1642 H1632 0.950 . S
C1642 C1643 1.386 . S
C1642 C1644 1.391 . S
C1643 C1642 1.386 . S
C1643 C1647 1.393 . S
C1644 H1633 0.950 . S
C1644 C1642 1.391 . S
C1644 C1645 1.400 . S
C1645 C1639 1.491 . S
C1645 C1644 1.400 . S
C1645 C1646 1.398 . S
C1646 H1634 0.950 . S
C1646 C1645 1.398 . S
C1646 C1647 1.391 . S
C1647 H1635 0.950 . S
C1647 C1643 1.393 . S
C1647 C1646 1.391 . S
H1648 C1656 0.950 . S
H1649 C1661 0.950 . S
H1650 C1658 0.950 . S
H1651 C1660 0.950 . S
H1652 C1662 0.950 . S
H1653 C1664 0.950 . S
H1654 C1666 0.950 . S
H1655 C1667 0.950 . S
C1656 H1648 0.950 . S
C1656 C1657 1.386 . S
C1656 C1658 1.391 . S
C1657 C1656 1.386 . S
C1657 C1661 1.393 . S
C1658 H1650 0.950 . S
C1658 C1656 1.391 . S
C1658 C1659 1.400 . S
C1659 C1658 1.400 . S
C1659 C1660 1.398 . S
C1659 C1665 1.491 1_545 S
C1660 H1651 0.950 . S
C1660 C1659 1.398 . S
C1660 C1661 1.391 . S
C1661 H1649 0.950 . S
C1661 C1657 1.393 . S
C1661 C1660 1.391 . S
C1662 H1652 0.950 . S
C1662 C1663 1.386 . S
C1662 C1664 1.391 . S
C1663 C1662 1.386 . S
C1663 C1667 1.393 . S
C1664 H1653 0.950 . S
C1664 C1662 1.391 . S
C1664 C1665 1.400 . S
C1665 C1659 1.491 1_565 S
C1665 C1664 1.400 . S
C1665 C1666 1.398 . S
C1666 H1654 0.950 . S
C1666 C1665 1.398 . S
C1666 C1667 1.391 . S
C1667 H1655 0.950 . S
C1667 C1663 1.393 . S
C1667 C1666 1.391 . S
H1668 C1676 0.950 . S
H1669 C1681 0.950 . S
H1670 C1678 0.950 . S
H1671 C1680 0.950 . S
H1672 C1682 0.950 . S
H1673 C1684 0.950 . S
H1674 C1686 0.950 . S
H1675 C1687 0.950 . S
C1676 H1668 0.950 . S
C1676 C1677 1.386 . S
C1676 C1678 1.391 1_554 S
C1677 C1676 1.386 . S
C1677 C1681 1.393 . S
C1678 H1670 0.950 . S
C1678 C1676 1.391 1_556 S
C1678 C1679 1.400 1_556 S
C1679 C1678 1.400 1_554 S
C1679 C1680 1.398 . S
C1679 C1685 1.491 1_554 S
C1680 H1671 0.950 . S
C1680 C1679 1.398 . S
C1680 C1681 1.391 . S
C1681 H1669 0.950 . S
C1681 C1677 1.393 . S
C1681 C1680 1.391 . S
C1682 H1672 0.950 . S
C1682 C1683 1.386 . S
C1682 C1684 1.391 1_556 S
C1683 C1682 1.386 . S
C1683 C1687 1.393 . S
C1684 H1673 0.950 . S
C1684 C1682 1.391 1_554 S
C1684 C1685 1.400 1_554 S
C1685 C1679 1.491 1_556 S
C1685 C1684 1.400 1_556 S
C1685 C1686 1.398 . S
C1686 H1674 0.950 . S
C1686 C1685 1.398 . S
C1686 C1687 1.391 . S
C1687 H1675 0.950 . S
C1687 C1683 1.393 . S
C1687 C1686 1.391 . S
H1688 C1696 0.950 . S
H1689 C1701 0.950 . S
H1690 C1698 0.950 . S
H1691 C1700 0.950 . S
H1692 C1702 0.950 . S
H1693 C1704 0.950 . S
H1694 C1706 0.950 . S
H1695 C1707 0.950 . S
C1696 H1688 0.950 . S
C1696 C1697 1.386 . S
C1696 C1698 1.391 . S
C1697 C1696 1.386 . S
C1697 C1701 1.393 . S
C1698 H1690 0.950 . S
C1698 C1696 1.391 . S
C1698 C1699 1.400 . S
C1699 C1698 1.400 . S
C1699 C1700 1.398 . S
C1699 C1705 1.491 1_545 S
C1700 H1691 0.950 . S
C1700 C1699 1.398 . S
C1700 C1701 1.391 . S
C1701 H1689 0.950 . S
C1701 C1697 1.393 . S
C1701 C1700 1.391 . S
C1702 H1692 0.950 . S
C1702 C1703 1.386 . S
C1702 C1704 1.391 . S
C1703 C1702 1.386 . S
C1703 C1707 1.393 . S
C1704 H1693 0.950 . S
C1704 C1702 1.391 . S
C1704 C1705 1.400 . S
C1705 C1699 1.491 1_565 S
C1705 C1704 1.400 . S
C1705 C1706 1.398 . S
C1706 H1694 0.950 . S
C1706 C1705 1.398 . S
C1706 C1707 1.391 . S
C1707 H1695 0.950 . S
C1707 C1703 1.393 . S
C1707 C1706 1.391 . S
H1708 C1716 0.950 . S
H1709 C1721 0.950 . S
H1710 C1718 0.950 . S
H1711 C1720 0.950 . S
H1712 C1722 0.950 . S
H1713 C1724 0.950 . S
H1714 C1726 0.950 . S
H1715 C1727 0.950 . S
C1716 H1708 0.950 . S
C1716 C1717 1.386 . S
C1716 C1718 1.391 . S
C1717 C1716 1.386 . S
C1717 C1721 1.393 . S
C1718 H1710 0.950 . S
C1718 C1716 1.391 . S
C1718 C1719 1.400 . S
C1719 C1718 1.400 . S
C1719 C1720 1.398 . S
C1719 C1725 1.491 . S
C1720 H1711 0.950 . S
C1720 C1719 1.398 . S
C1720 C1721 1.391 . S
C1721 H1709 0.950 . S
C1721 C1717 1.393 . S
C1721 C1720 1.391 . S
C1722 H1712 0.950 . S
C1722 C1723 1.386 . S
C1722 C1724 1.391 . S
C1723 C1722 1.386 . S
C1723 C1727 1.393 . S
C1724 H1713 0.950 . S
C1724 C1722 1.391 . S
C1724 C1725 1.400 . S
C1725 C1719 1.491 . S
C1725 C1724 1.400 . S
C1725 C1726 1.398 . S
C1726 H1714 0.950 . S
C1726 C1725 1.398 . S
C1726 C1727 1.391 . S
C1727 H1715 0.950 . S
C1727 C1723 1.393 . S
C1727 C1726 1.391 . S
C457 C7 1.343 . S
C463 C301 1.328 . S
C477 C315 1.349 . S
C483 C21 1.328 . S
C497 C35 1.330 . S
C503 C329 1.350 . S
C517 C287 1.350 . S
C523 C49 1.334 . S
C537 C63 1.350 . S
C543 C273 1.330 . S
C557 C77 1.350 . S
C563 C231 1.330 . S
C577 C245 1.347 . S
C583 C91 1.328 . S
C597 C105 1.328 . S
C603 C259 1.347 . S
C617 C119 1.328 . S
C623 C413 1.345 . S
C637 C133 1.340 . S
C643 C427 1.347 . S
C657 C441 1.347 . S
C663 C147 1.339 . S
C677 C399 1.348 . S
C683 C161 1.328 . S
C697 C175 1.347 . S
C703 C385 1.339 . S
C717 C343 1.345 . S
C723 C189 1.328 . S
C737 C203 1.349 . S
C743 C357 1.337 . S
C757 C371 1.345 . S
C763 C217 1.341 . S
C777 C9 1.328 . S
C783 C129 1.377 . S
C797 C23 1.301 . S
C803 C367 1.381 . S
C817 C157 1.380 . S
C823 C37 1.300 . S
C837 C51 1.312 . S
C843 C339 1.380 . S
C857 C65 1.300 . S
C863 C213 1.381 . S
C877 C395 1.381 . S
C883 C79 1.301 . S
C897 C185 1.377 . S
C903 C93 1.322 . S
C917 C423 1.377 . S
C923 C107 1.323 . S
C937 C121 1.315 . S
C943 C17 1.378 . S
C957 C255 1.376 . S
C963 C135 1.332 . S
C977 C45 1.376 . S
C983 C149 1.325 . S
C997 C163 1.308 . S
C1003 C227 1.380 . S
C1017 C101 1.381 . S
C1023 C177 1.303 . S
C1037 C283 1.378 . S
C1043 C191 1.323 . S
C1057 C73 1.381 . S
C1063 C205 1.300 . S
C1077 C219 1.311 . S
C1083 C311 1.378 . S
C1097 C353 1.376 . S
C1103 C233 1.331 . S
C1117 C143 1.376 . S
C1123 C247 1.330 . S
C1137 C381 1.381 . S
C1143 C261 1.302 . S
C1157 C275 1.316 . S
C1163 C115 1.379 . S
C1177 C437 1.376 . S
C1183 C289 1.332 . S
C1197 C171 1.376 . S
C1203 C303 1.325 . S
C1217 C409 1.376 . S
C1223 C317 1.328 . S
C1237 C331 1.331 . S
C1243 C199 1.376 . S
C1257 C345 1.329 . S
C1263 C241 1.376 . S
C1277 C31 1.380 . S
C1283 C359 1.300 . S
C1297 C373 1.303 . S
C1303 C269 1.381 . S
C1317 C387 1.316 . S
C1323 C3 1.379 . S
C1337 C401 1.312 . S
C1343 C325 1.380 . S
C1357 C59 1.381 . S
C1363 C415 1.301 . S
C1377 C297 1.378 . S
C1383 C429 1.321 . S
C1397 C443 1.315 . S
C1403 C87 1.379 . S
C1417 C8 1.286 . S
C1423 C64 1.291 . S
C1437 C22 1.296 . S
C1443 C78 1.297 . S
C1457 C92 1.282 . S
C1463 C36 1.282 . S
C1477 C106 1.291 . S
C1483 C50 1.286 . S
C1497 C176 1.283 . S
C1503 C120 1.282 . S
C1517 C190 1.297 . S
C1523 C134 1.295 . S
C1537 C204 1.297 . S
C1543 C148 1.297 . S
C1557 C218 1.286 . S
C1563 C162 1.291 . S
C1577 C232 1.296 . S
C1583 C288 1.297 . S
C1597 C246 1.284 . S
C1603 C302 1.282 . S
C1617 C260 1.297 . S
C1623 C316 1.297 . S
C1637 C330 1.290 . S
C1643 C274 1.295 . S
C1657 C344 1.287 . S
C1663 C400 1.283 . S
C1677 C414 1.297 . S
C1683 C358 1.294 . S
C1697 C428 1.297 . S
C1703 C372 1.297 . S
C1717 C442 1.289 . S
C1723 C386 1.284 . S
