# Generated by pormake.
# Topology rhr, (4)-cn, num edge types: 1
# Building blocks:
#     Node 0, Type 0, BuildingBlock: KOZSID_clean_sbu_0, # of connection points: 4
#     Node 1, Type 0, BuildingBlock: KOZSID_clean_sbu_0, # of connection points: 4
#     Node 2, Type 0, BuildingBlock: KOZSID_clean_sbu_0, # of connection points: 4
#     Node 3, Type 0, BuildingBlock: KOZSID_clean_sbu_0, # of connection points: 4
#     Node 4, Type 0, BuildingBlock: KOZSID_clean_sbu_0, # of connection points: 4
#     Node 5, Type 0, BuildingBlock: KOZSID_clean_sbu_0, # of connection points: 4
#     Node 6, Type 0, BuildingBlock: KOZSID_clean_sbu_0, # of connection points: 4
#     Node 7, Type 0, BuildingBlock: KOZSID_clean_sbu_0, # of connection points: 4
#     Node 8, Type 0, BuildingBlock: KOZSID_clean_sbu_0, # of connection points: 4
#     Node 9, Type 0, BuildingBlock: KOZSID_clean_sbu_0, # of connection points: 4
#     Node 10, Type 0, BuildingBlock: KOZSID_clean_sbu_0, # of connection points: 4
#     Node 11, Type 0, BuildingBlock: KOZSID_clean_sbu_0, # of connection points: 4
#     Node 12, Type 0, BuildingBlock: KOZSID_clean_sbu_0, # of connection points: 4
#     Node 13, Type 0, BuildingBlock: KOZSID_clean_sbu_0, # of connection points: 4
#     Node 14, Type 0, BuildingBlock: KOZSID_clean_sbu_0, # of connection points: 4
#     Node 15, Type 0, BuildingBlock: KOZSID_clean_sbu_0, # of connection points: 4
#     Node 16, Type 0, BuildingBlock: KOZSID_clean_sbu_0, # of connection points: 4
#     Node 17, Type 0, BuildingBlock: KOZSID_clean_sbu_0, # of connection points: 4
#     Node 18, Type 0, BuildingBlock: KOZSID_clean_sbu_0, # of connection points: 4
#     Node 19, Type 0, BuildingBlock: KOZSID_clean_sbu_0, # of connection points: 4
#     Node 20, Type 0, BuildingBlock: KOZSID_clean_sbu_0, # of connection points: 4
#     Node 21, Type 0, BuildingBlock: KOZSID_clean_sbu_0, # of connection points: 4
#     Node 22, Type 0, BuildingBlock: KOZSID_clean_sbu_0, # of connection points: 4
#     Node 23, Type 0, BuildingBlock: KOZSID_clean_sbu_0, # of connection points: 4
#     Edge 24, Type (0, 0), BuildingBlock: UVAHIK_clean_linker_0, # of connection points: 2
#     Edge 25, Type (0, 0), BuildingBlock: UVAHIK_clean_linker_0, # of connection points: 2
#     Edge 26, Type (0, 0), BuildingBlock: UVAHIK_clean_linker_0, # of connection points: 2
#     Edge 27, Type (0, 0), BuildingBlock: UVAHIK_clean_linker_0, # of connection points: 2
#     Edge 28, Type (0, 0), BuildingBlock: UVAHIK_clean_linker_0, # of connection points: 2
#     Edge 29, Type (0, 0), BuildingBlock: UVAHIK_clean_linker_0, # of connection points: 2
#     Edge 30, Type (0, 0), BuildingBlock: UVAHIK_clean_linker_0, # of connection points: 2
#     Edge 31, Type (0, 0), BuildingBlock: UVAHIK_clean_linker_0, # of connection points: 2
#     Edge 32, Type (0, 0), BuildingBlock: UVAHIK_clean_linker_0, # of connection points: 2
#     Edge 33, Type (0, 0), BuildingBlock: UVAHIK_clean_linker_0, # of connection points: 2
#     Edge 34, Type (0, 0), BuildingBlock: UVAHIK_clean_linker_0, # of connection points: 2
#     Edge 35, Type (0, 0), BuildingBlock: UVAHIK_clean_linker_0, # of connection points: 2
#     Edge 36, Type (0, 0), BuildingBlock: UVAHIK_clean_linker_0, # of connection points: 2
#     Edge 37, Type (0, 0), BuildingBlock: UVAHIK_clean_linker_0, # of connection points: 2
#     Edge 38, Type (0, 0), BuildingBlock: UVAHIK_clean_linker_0, # of connection points: 2
#     Edge 39, Type (0, 0), BuildingBlock: UVAHIK_clean_linker_0, # of connection points: 2
#     Edge 40, Type (0, 0), BuildingBlock: UVAHIK_clean_linker_0, # of connection points: 2
#     Edge 41, Type (0, 0), BuildingBlock: UVAHIK_clean_linker_0, # of connection points: 2
#     Edge 42, Type (0, 0), BuildingBlock: UVAHIK_clean_linker_0, # of connection points: 2
#     Edge 43, Type (0, 0), BuildingBlock: UVAHIK_clean_linker_0, # of connection points: 2
#     Edge 44, Type (0, 0), BuildingBlock: UVAHIK_clean_linker_0, # of connection points: 2
#     Edge 45, Type (0, 0), BuildingBlock: UVAHIK_clean_linker_0, # of connection points: 2
#     Edge 46, Type (0, 0), BuildingBlock: UVAHIK_clean_linker_0, # of connection points: 2
#     Edge 47, Type (0, 0), BuildingBlock: UVAHIK_clean_linker_0, # of connection points: 2
#     Edge 48, Type (0, 0), BuildingBlock: UVAHIK_clean_linker_0, # of connection points: 2
#     Edge 49, Type (0, 0), BuildingBlock: UVAHIK_clean_linker_0, # of connection points: 2
#     Edge 50, Type (0, 0), BuildingBlock: UVAHIK_clean_linker_0, # of connection points: 2
#     Edge 51, Type (0, 0), BuildingBlock: UVAHIK_clean_linker_0, # of connection points: 2
#     Edge 52, Type (0, 0), BuildingBlock: UVAHIK_clean_linker_0, # of connection points: 2
#     Edge 53, Type (0, 0), BuildingBlock: UVAHIK_clean_linker_0, # of connection points: 2
#     Edge 54, Type (0, 0), BuildingBlock: UVAHIK_clean_linker_0, # of connection points: 2
#     Edge 55, Type (0, 0), BuildingBlock: UVAHIK_clean_linker_0, # of connection points: 2
#     Edge 56, Type (0, 0), BuildingBlock: UVAHIK_clean_linker_0, # of connection points: 2
#     Edge 57, Type (0, 0), BuildingBlock: UVAHIK_clean_linker_0, # of connection points: 2
#     Edge 58, Type (0, 0), BuildingBlock: UVAHIK_clean_linker_0, # of connection points: 2
#     Edge 59, Type (0, 0), BuildingBlock: UVAHIK_clean_linker_0, # of connection points: 2
#     Edge 60, Type (0, 0), BuildingBlock: UVAHIK_clean_linker_0, # of connection points: 2
#     Edge 61, Type (0, 0), BuildingBlock: UVAHIK_clean_linker_0, # of connection points: 2
#     Edge 62, Type (0, 0), BuildingBlock: UVAHIK_clean_linker_0, # of connection points: 2
#     Edge 63, Type (0, 0), BuildingBlock: UVAHIK_clean_linker_0, # of connection points: 2
#     Edge 64, Type (0, 0), BuildingBlock: UVAHIK_clean_linker_0, # of connection points: 2
#     Edge 65, Type (0, 0), BuildingBlock: UVAHIK_clean_linker_0, # of connection points: 2
#     Edge 66, Type (0, 0), BuildingBlock: UVAHIK_clean_linker_0, # of connection points: 2
#     Edge 67, Type (0, 0), BuildingBlock: UVAHIK_clean_linker_0, # of connection points: 2
#     Edge 68, Type (0, 0), BuildingBlock: UVAHIK_clean_linker_0, # of connection points: 2
#     Edge 69, Type (0, 0), BuildingBlock: UVAHIK_clean_linker_0, # of connection points: 2
#     Edge 70, Type (0, 0), BuildingBlock: UVAHIK_clean_linker_0, # of connection points: 2
#     Edge 71, Type (0, 0), BuildingBlock: UVAHIK_clean_linker_0, # of connection points: 2
# Relax obj value: 0.003
# Max RMSD: 0.027
# Mean RMSD: 0.017
data_MOF--net-rhr--node1-KOZSID_clean_sbu_0--edge1-UVAHIK_clean_linker_0
_symmetry_space_group_name_H-M    P1
_symmetry_Int_Tables_number       1
_symmetry_cell_setting            triclinic
loop_
_symmetry_equiv_pos_as_xyz
'x, y, z'
_cell_length_a     78.299441
_cell_length_b     78.396161
_cell_length_c     78.274437
_cell_angle_alpha  87.551396
_cell_angle_beta   86.314358
_cell_angle_gamma 90.6355
loop_
_atom_site_label
_atom_site_type_symbol
_atom_site_fract_x
_atom_site_fract_y
_atom_site_fract_z
_atom_type_partial_charge
C0 C 0.38008 0.99277 0.34419 0.0
C1 C 0.39496 0.98684 0.351 0.0
C2 C 0.39625 0.99451 0.36619 0.0
C3 C 0.38208 0.00453 0.36792 0.0
N4 N 0.37171 0.00369 0.3548 0.0
Co5 Co 0.34947 0.01597 0.35268 0.0
N6 N 0.35192 0.02799 0.37461 0.0
C7 C 0.36534 0.02693 0.38464 0.0
C8 C 0.36371 0.03673 0.39872 0.0
C9 C 0.34826 0.04446 0.39773 0.0
C10 C 0.34123 0.03881 0.38311 0.0
N11 N 0.32699 0.02791 0.35081 0.0
C12 C 0.31835 0.03834 0.36175 0.0
C13 C 0.30261 0.04287 0.35585 0.0
C14 C 0.30125 0.03516 0.34069 0.0
C15 C 0.3161 0.02627 0.33822 0.0
N16 N 0.34724 0.00427 0.33051 0.0
C17 C 0.33436 0.00622 0.3199 0.0
C18 C 0.33663 0.99749 0.30516 0.0
C19 C 0.35195 0.98955 0.3063 0.0
C20 C 0.35815 0.99377 0.32183 0.0
N21 N 0.33716 0.99674 0.36563 0.0
C22 C 0.31785 0.97144 0.38521 0.0
C23 C 0.3133 0.97677 0.36889 0.0
C24 C 0.32307 0.98926 0.3594 0.0
C25 C 0.33259 0.97857 0.39132 0.0
C26 C 0.34202 0.99104 0.38137 0.0
N27 N 0.36174 0.03521 0.33969 0.0
C28 C 0.36396 0.05542 0.31542 0.0
C29 C 0.3803 0.06056 0.31944 0.0
C30 C 0.38693 0.05326 0.33416 0.0
C31 C 0.37749 0.04074 0.34404 0.0
C32 C 0.35497 0.04291 0.32565 0.0
H33 H 0.38334 0.03552 0.35496 0.0
H34 H 0.34267 0.03954 0.32178 0.0
H35 H 0.31877 0.99287 0.34717 0.0
H36 H 0.35305 0.99603 0.38679 0.0
C37 C 0.37871 0.01569 0.38114 0.0
C38 C 0.37464 0.98779 0.32751 0.0
C39 C 0.32428 0.04394 0.37804 0.0
C40 C 0.32024 0.0163 0.32419 0.0
H41 H 0.40405 0.978 0.3455 0.0
H42 H 0.40647 0.99316 0.37481 0.0
H43 H 0.37255 0.03785 0.4087 0.0
H44 H 0.34271 0.05313 0.40687 0.0
H45 H 0.29297 0.05077 0.36195 0.0
H46 H 0.29061 0.03582 0.33252 0.0
H47 H 0.32822 0.99708 0.29473 0.0
H48 H 0.35795 0.9817 0.29665 0.0
H49 H 0.30194 0.97171 0.3636 0.0
H50 H 0.33683 0.9746 0.40376 0.0
H51 H 0.35811 0.061 0.30436 0.0
H52 H 0.39956 0.05681 0.3378 0.0
C53 C 0.04655 0.36764 0.32991 0.0
C54 C 0.05183 0.38217 0.3378 0.0
C55 C 0.04309 0.38217 0.35343 0.0
C56 C 0.03297 0.36777 0.35419 0.0
N57 N 0.03471 0.3585 0.33998 0.0
Co58 Co 0.02218 0.33679 0.33557 0.0
N59 N 0.00858 0.33742 0.35818 0.0
C60 C 0.00929 0.34957 0.3699 0.0
C61 C 0.99817 0.34673 0.384 0.0
C62 C 0.98983 0.33186 0.38115 0.0
C63 C 0.99645 0.32645 0.36544 0.0
N64 N 0.00989 0.3149 0.33132 0.0
C65 C 0.99783 0.30593 0.34127 0.0
C66 C 0.99296 0.2911 0.33368 0.0
C67 C 0.00222 0.29069 0.31836 0.0
C68 C 0.01222 0.30519 0.31749 0.0
N69 N 0.03549 0.33637 0.31281 0.0
C70 C 0.03447 0.32444 0.3009 0.0
C71 C 0.04506 0.32766 0.28648 0.0
C72 C 0.05326 0.34262 0.28924 0.0
C73 C 0.0471 0.34772 0.30524 0.0
N74 N 0.04024 0.32353 0.34652 0.0
C75 C 0.06608 0.30498 0.36203 0.0
C76 C 0.06076 0.30071 0.34607 0.0
C77 C 0.04792 0.31008 0.33861 0.0
C78 C 0.05824 0.31864 0.37012 0.0
C79 C 0.04547 0.32765 0.36221 0.0
N80 N 0.00419 0.35007 0.32461 0.0
C81 C 0.98543 0.35441 0.30154 0.0
C82 C 0.98011 0.36993 0.30799 0.0
C83 C 0.98663 0.37514 0.3231 0.0
C84 C 0.99847 0.36503 0.33122 0.0
C85 C 0.99745 0.34478 0.30996 0.0
H86 H 0.00293 0.36969 0.3427 0.0
H87 H 0.00128 0.33325 0.30423 0.0
H88 H 0.04447 0.30618 0.32645 0.0
H89 H 0.03999 0.33785 0.3691 0.0
C90 C 0.02091 0.36323 0.36756 0.0
C91 C 0.05268 0.36345 0.31262 0.0
C92 C 0.99082 0.31076 0.35804 0.0
C93 C 0.02361 0.31023 0.30371 0.0
H94 H 0.06082 0.39196 0.33269 0.0
H95 H 0.04373 0.39175 0.36293 0.0
H96 H 0.99642 0.35448 0.39507 0.0
H97 H 0.98001 0.32567 0.38969 0.0
H98 H 0.9837 0.28151 0.33872 0.0
H99 H 0.00171 0.281 0.30895 0.0
H100 H 0.04665 0.32002 0.2753 0.0
H101 H 0.06271 0.34905 0.28046 0.0
H102 H 0.06656 0.29028 0.33926 0.0
H103 H 0.06172 0.32224 0.38266 0.0
H104 H 0.98073 0.34996 0.28977 0.0
H105 H 0.98263 0.387 0.32865 0.0
C106 C 0.68243 0.99162 0.32794 0.0
C107 C 0.68988 0.98649 0.31245 0.0
C108 C 0.70542 0.99457 0.31013 0.0
C109 C 0.70658 0.00419 0.32422 0.0
N110 N 0.69282 0.00261 0.33557 0.0
Co111 Co 0.68885 0.01536 0.35719 0.0
N112 N 0.7112 0.02825 0.3531 0.0
C113 C 0.72284 0.02665 0.33974 0.0
C114 C 0.73741 0.03627 0.34077 0.0
C115 C 0.7351 0.04438 0.35578 0.0
C116 C 0.71909 0.03934 0.36306 0.0
N117 N 0.68477 0.02826 0.3787 0.0
C118 C 0.69494 0.03961 0.38611 0.0
C119 C 0.68703 0.04551 0.40107 0.0
C120 C 0.67153 0.03733 0.40342 0.0
C121 C 0.67078 0.02703 0.38978 0.0
N122 N 0.66661 0.00235 0.3614 0.0
C123 C 0.65527 0.0034 0.37509 0.0
C124 C 0.641 0.99326 0.37434 0.0
C125 C 0.6432 0.98539 0.35915 0.0
C126 C 0.65873 0.99128 0.35144 0.0
N127 N 0.7008 0.99722 0.37044 0.0
C128 C 0.71901 0.97338 0.39037 0.0
C129 C 0.70337 0.97992 0.39658 0.0
C130 C 0.69456 0.99162 0.3865 0.0
C131 C 0.7251 0.97868 0.37376 0.0
C132 C 0.71589 0.99046 0.36413 0.0
N133 N 0.67689 0.03347 0.34396 0.0
C134 C 0.65167 0.05043 0.3397 0.0
C135 C 0.65854 0.05699 0.32379 0.0
C136 C 0.67504 0.05187 0.31843 0.0
C137 C 0.6839 0.04027 0.32862 0.0
C138 C 0.66098 0.0389 0.34949 0.0
H139 H 0.69634 0.03685 0.32371 0.0
H140 H 0.65486 0.03434 0.36137 0.0
H141 H 0.68278 0.99609 0.39209 0.0
H142 H 0.72138 0.99408 0.35169 0.0
C143 C 0.72003 0.01543 0.32679 0.0
C144 C 0.66516 0.98632 0.33443 0.0
C145 C 0.71229 0.04488 0.37977 0.0
C146 C 0.65769 0.01518 0.38766 0.0
H147 H 0.68449 0.97809 0.30354 0.0
H148 H 0.7146 0.99386 0.29925 0.0
H149 H 0.7486 0.03694 0.33187 0.0
H150 H 0.74436 0.05275 0.36094 0.0
H151 H 0.69205 0.05458 0.40956 0.0
H152 H 0.66212 0.03844 0.41405 0.0
H153 H 0.63003 0.99214 0.38349 0.0
H154 H 0.63423 0.97659 0.35414 0.0
H155 H 0.69785 0.97599 0.40919 0.0
H156 H 0.73718 0.97412 0.36831 0.0
H157 H 0.63892 0.05379 0.34449 0.0
H158 H 0.68118 0.0568 0.30642 0.0
C159 C 0.97705 0.72217 0.33372 0.0
C160 C 0.97545 0.73753 0.32449 0.0
C161 C 0.98742 0.73752 0.31104 0.0
C162 C 0.99556 0.72223 0.31282 0.0
N163 N 0.98949 0.7124 0.32657 0.0
Co164 Co 0.99747 0.68914 0.33391 0.0
N165 N 0.01517 0.68927 0.31422 0.0
C166 C 0.01881 0.70207 0.30234 0.0
C167 C 0.03185 0.69851 0.29058 0.0
C168 C 0.03672 0.68239 0.29507 0.0
C169 C 0.0262 0.67698 0.30928 0.0
N170 N 0.00535 0.66578 0.34114 0.0
C171 C 0.01696 0.65552 0.33329 0.0
C172 C 0.01798 0.63985 0.34212 0.0
C173 C 0.00666 0.64023 0.35606 0.0
C174 C 0.9993 0.65597 0.35491 0.0
N175 N 0.97981 0.68907 0.35368 0.0
C176 C 0.97674 0.6766 0.36605 0.0
C177 C 0.96392 0.6803 0.378 0.0
C178 C 0.9585 0.69611 0.37305 0.0
C179 C 0.96838 0.70113 0.35828 0.0
N180 N 0.98067 0.6786 0.31956 0.0
C181 C 0.95737 0.66291 0.29908 0.0
C182 C 0.95861 0.65749 0.31616 0.0
C183 C 0.97026 0.66541 0.32606 0.0
C184 C 0.96789 0.67641 0.29243 0.0
C185 C 0.97932 0.68407 0.30284 0.0
N186 N 0.01435 0.69967 0.3483 0.0
C187 C 0.02818 0.70056 0.37499 0.0
C188 C 0.03849 0.71431 0.36865 0.0
C189 C 0.03652 0.72068 0.35199 0.0
C190 C 0.02438 0.71331 0.34217 0.0
C191 C 0.01635 0.69346 0.36468 0.0
H192 H 0.02334 0.71893 0.32969 0.0
H193 H 0.00901 0.68295 0.37026 0.0
H194 H 0.97072 0.66051 0.33889 0.0
H195 H 0.987 0.69431 0.29707 0.0
C196 C 0.00922 0.71697 0.30208 0.0
C197 C 0.96669 0.71766 0.34937 0.0
C198 C 0.0267 0.65982 0.31715 0.0
C199 C 0.98607 0.66153 0.36605 0.0
H200 H 0.96663 0.74772 0.32728 0.0
H201 H 0.98999 0.74754 0.30124 0.0
H202 H 0.03699 0.70656 0.27984 0.0
H203 H 0.0467 0.67529 0.28843 0.0
H204 H 0.02583 0.6291 0.3387 0.0
H205 H 0.0038 0.63007 0.36566 0.0
H206 H 0.95913 0.67247 0.38903 0.0
H207 H 0.94849 0.7032 0.37964 0.0
H208 H 0.95089 0.64688 0.3218 0.0
H209 H 0.96726 0.68112 0.27927 0.0
H210 H 0.02938 0.69513 0.38782 0.0
H211 H 0.04411 0.7315 0.34664 0.0
C212 C 0.3346 0.98037 0.73227 0.0
C213 C 0.32644 0.97648 0.74826 0.0
C214 C 0.31242 0.98662 0.7496 0.0
C215 C 0.31282 0.99604 0.73442 0.0
N216 N 0.32623 0.99252 0.72342 0.0
Co217 Co 0.33155 0.00293 0.6998 0.0
N218 N 0.31165 0.01872 0.70233 0.0
C219 C 0.30092 0.02036 0.71641 0.0
C220 C 0.28893 0.03277 0.71454 0.0
C221 C 0.29209 0.0394 0.69825 0.0
C222 C 0.30578 0.03047 0.69105 0.0
N223 N 0.33646 0.0129 0.67593 0.0
C224 C 0.32763 0.02452 0.66682 0.0
C225 C 0.33473 0.02699 0.65015 0.0
C226 C 0.34857 0.01664 0.6487 0.0
C227 C 0.34907 0.00836 0.66442 0.0
N228 N 0.35187 0.98761 0.69755 0.0
C229 C 0.36334 0.98678 0.68392 0.0
C230 C 0.37624 0.97546 0.68638 0.0
C231 C 0.37296 0.96876 0.70264 0.0
C232 C 0.35816 0.97644 0.70913 0.0
N233 N 0.31675 0.98533 0.69052 0.0
C234 C 0.29551 0.9615 0.67605 0.0
C235 C 0.31279 0.96305 0.6707 0.0
C236 C 0.32306 0.97503 0.67795 0.0
C237 C 0.28903 0.97176 0.68899 0.0
C238 C 0.29986 0.98337 0.69617 0.0
N239 N 0.34635 0.02051 0.70906 0.0
C240 C 0.37255 0.03725 0.70713 0.0
C241 C 0.36789 0.04475 0.72254 0.0
C242 C 0.35221 0.04011 0.73102 0.0
C243 C 0.34175 0.02797 0.72416 0.0
C244 C 0.36162 0.02534 0.70061 0.0
H245 H 0.3301 0.02472 0.73138 0.0
H246 H 0.36586 0.02018 0.68875 0.0
H247 H 0.33598 0.97587 0.67293 0.0
H248 H 0.29422 0.99073 0.70611 0.0
C249 C 0.30168 0.00926 0.73074 0.0
C250 C 0.35066 0.97275 0.7264 0.0
C251 C 0.31224 0.03311 0.67324 0.0
C252 C 0.3613 0.9964 0.66879 0.0
H253 H 0.3304 0.9675 0.75807 0.0
H254 H 0.30329 0.98737 0.76052 0.0
H255 H 0.27886 0.03632 0.72379 0.0
H256 H 0.28491 0.04947 0.69226 0.0
H257 H 0.33029 0.03525 0.63999 0.0
H258 H 0.35716 0.0152 0.63747 0.0
H259 H 0.38676 0.97241 0.67741 0.0
H260 H 0.38059 0.95931 0.70901 0.0
H261 H 0.31825 0.95546 0.66053 0.0
H262 H 0.27567 0.97084 0.69354 0.0
H263 H 0.38453 0.04064 0.70004 0.0
H264 H 0.34818 0.04555 0.7431 0.0
C265 C 0.99394 0.35723 0.67827 0.0
C266 C 0.98943 0.3726 0.67046 0.0
C267 C 0.99874 0.37411 0.65511 0.0
C268 C 0.00833 0.3596 0.65436 0.0
N269 N 0.00556 0.34877 0.66819 0.0
Co270 Co 0.01742 0.32654 0.67247 0.0
N271 N 0.0326 0.32973 0.65077 0.0
C272 C 0.03254 0.34314 0.6393 0.0
C273 C 0.04376 0.34163 0.62531 0.0
C274 C 0.0514 0.32627 0.62786 0.0
C275 C 0.04444 0.31925 0.64339 0.0
N276 N 0.02925 0.30428 0.67672 0.0
C277 C 0.04133 0.2961 0.66693 0.0
C278 C 0.04575 0.28069 0.67473 0.0
C279 C 0.03592 0.27888 0.68975 0.0
C280 C 0.02615 0.29326 0.69036 0.0
N281 N 0.00232 0.32344 0.69423 0.0
C282 C 0.00225 0.30997 0.70564 0.0
C283 C 0.99125 0.31166 0.71977 0.0
C284 C 0.98399 0.32725 0.71743 0.0
C285 C 0.99096 0.33421 0.70188 0.0
N286 N 1.00014 0.31424 0.65952 0.0
C287 C 0.97767 0.29511 0.64011 0.0
C288 C 0.98075 0.29017 0.65706 0.0
C289 C 0.99196 0.29969 0.66633 0.0
C290 C 0.98577 0.31019 0.63334 0.0
C291 C 0.9966 0.31953 0.6432 0.0
N292 N 0.03466 0.33881 0.6854 0.0
C293 C 0.04927 0.34243 0.71146 0.0
C294 C 0.0568 0.35792 0.70507 0.0
C295 C 0.05335 0.36328 0.68833 0.0
C296 C 0.04231 0.35373 0.6789 0.0
C297 C 0.03858 0.3331 0.70146 0.0
H298 H 0.04 0.3588 0.66643 0.0
H299 H 0.0334 0.32143 0.70715 0.0
H300 H 0.99391 0.2949 0.67897 0.0
H301 H 0.00217 0.33089 0.6372 0.0
C302 C 0.02099 0.35645 0.64154 0.0
C303 C 0.98704 0.35144 0.6954 0.0
C304 C 0.04891 0.30225 0.65014 0.0
C305 C 0.01355 0.29647 0.70323 0.0
H306 H 0.98055 0.3819 0.67549 0.0
H307 H 0.99887 0.38475 0.64583 0.0
H308 H 0.04579 0.35044 0.61431 0.0
H309 H 0.06073 0.32071 0.61903 0.0
H310 H 0.055 0.27159 0.66997 0.0
H311 H 0.03574 0.26821 0.69902 0.0
H312 H 0.98917 0.30285 0.73076 0.0
H313 H 0.97494 0.33303 0.7264 0.0
H314 H 0.97456 0.27896 0.66333 0.0
H315 H 0.98414 0.31473 0.62031 0.0
H316 H 0.05121 0.33756 0.72433 0.0
H317 H 0.05911 0.37485 0.68237 0.0
C318 C 0.69577 0.02078 0.66803 0.0
C319 C 0.69185 0.02363 0.65108 0.0
C320 C 0.67747 0.01425 0.6489 0.0
C321 C 0.67349 0.00615 0.66451 0.0
N322 N 0.68454 0.00965 0.67655 0.0
Co323 Co 0.68357 1.00048 0.70095 0.0
N324 N 0.66228 0.9868 0.6977 0.0
C325 C 0.65419 0.98546 0.68304 0.0
C326 C 0.64013 0.97483 0.68463 0.0
C327 C 0.6391 0.96904 0.70133 0.0
C328 C 0.65261 0.9766 0.70901 0.0
N329 N 0.68237 0.99161 0.72546 0.0
C330 C 0.67056 0.98128 0.73425 0.0
C331 C 0.67416 0.97884 0.75132 0.0
C332 C 0.68884 0.98782 0.75338 0.0
C333 C 0.69328 0.9953 0.73756 0.0
N334 N 0.70505 0.01392 0.7041 0.0
C335 C 0.71372 0.01442 0.71849 0.0
C336 C 0.72781 0.02499 0.7169 0.0
C337 C 0.72825 0.03165 0.70051 0.0
C338 C 0.71436 0.02464 0.69296 0.0
N339 N 0.66949 0.02016 0.70782 0.0
C340 C 0.64903 0.04754 0.71829 0.0
C341 C 0.66366 0.04322 0.72671 0.0
C342 C 0.67361 0.02962 0.72131 0.0
C343 C 0.64492 0.03808 0.70438 0.0
C344 C 0.65529 0.02457 0.69936 0.0
N345 N 0.69769 0.98074 0.69409 0.0
C346 C 0.72074 0.96124 0.69914 0.0
C347 C 0.71831 0.95329 0.68384 0.0
C348 C 0.70521 0.95915 0.67391 0.0
C349 C 0.69511 0.97269 0.67926 0.0
C350 C 0.71041 0.97484 0.70395 0.0
H351 H 0.68543 0.97649 0.67106 0.0
H352 H 0.71304 0.98039 0.71566 0.0
H353 H 0.68448 0.0269 0.72837 0.0
H354 H 0.65151 0.01783 0.68866 0.0
C355 C 0.65975 0.9948 0.66811 0.0
C356 C 0.71034 0.02888 0.67534 0.0
C357 C 0.65567 0.97368 0.72708 0.0
C358 C 0.70766 0.00574 0.73365 0.0
H359 H 0.6987 0.03161 0.64124 0.0
H360 H 0.67078 0.01334 0.63729 0.0
H361 H 0.63156 0.97178 0.67485 0.0
H362 H 0.62946 0.96026 0.70719 0.0
H363 H 0.6669 0.97141 0.76132 0.0
H364 H 0.69544 0.98885 0.76503 0.0
H365 H 0.73652 0.02783 0.72663 0.0
H366 H 0.7376 0.04085 0.69488 0.0
H367 H 0.66723 0.05004 0.73772 0.0
H368 H 0.63378 0.04109 0.69736 0.0
H369 H 0.73058 0.95702 0.70741 0.0
H370 H 0.70296 0.95362 0.66179 0.0
C371 C 0.98918 0.66097 0.71256 0.0
C372 C 0.98193 0.66729 0.72763 0.0
C373 C 0.99027 0.68227 0.73002 0.0
C374 C 0.00205 0.68423 0.71635 0.0
N375 N 0.00156 0.67157 0.70516 0.0
Co376 Co 0.0171 0.66885 0.68409 0.0
N377 N 0.02993 0.69049 0.68804 0.0
C378 C 0.02647 0.70144 0.70067 0.0
C379 C 0.03659 0.71584 0.69941 0.0
C380 C 0.04701 0.71417 0.68496 0.0
C381 C 0.04271 0.69867 0.67829 0.0
N382 N 0.03313 0.66569 0.66347 0.0
C383 C 0.04619 0.67576 0.65658 0.0
C384 C 0.0545 0.66852 0.6425 0.0
C385 C 0.04611 0.65356 0.64015 0.0
C386 C 0.03332 0.65243 0.65296 0.0
N387 N 0.00385 0.64761 0.67972 0.0
C388 C 0.00625 0.63754 0.66619 0.0
C389 C 0.99522 0.62381 0.66672 0.0
C390 C 0.98524 0.6251 0.68153 0.0
C391 C 0.99079 0.63962 0.68921 0.0
N392 N 0.00137 0.68242 0.66979 0.0
C393 C 0.97975 0.70231 0.64919 0.0
C394 C 0.98911 0.68868 0.64255 0.0
C395 C 0.99956 0.67893 0.65297 0.0
C396 C 0.98139 0.70559 0.66647 0.0
C397 C 0.99223 0.69573 0.67635 0.0
N398 N 0.03279 0.65531 0.69835 0.0
C399 C 0.04832 0.62931 0.70412 0.0
C400 C 0.05418 0.6356 0.71919 0.0
C401 C 0.04922 0.65205 0.7235 0.0
C402 C 0.03864 0.66158 0.71302 0.0
C403 C 0.03778 0.63926 0.694 0.0
H404 H 0.03523 0.67395 0.71714 0.0
H405 H 0.03377 0.63365 0.68273 0.0
H406 H 0.00616 0.6687 0.64704 0.0
H407 H 0.99299 0.69921 0.68929 0.0
C408 C 0.01361 0.69786 0.71352 0.0
C409 C 0.98406 0.6447 0.706 0.0
C410 C 0.05057 0.69261 0.66229 0.0
C411 C 0.0203 0.64007 0.65443 0.0
H412 H 0.97177 0.66156 0.73608 0.0
H413 H 0.9881 0.69067 0.74055 0.0
H414 H 0.03624 0.72645 0.70784 0.0
H415 H 0.05646 0.72349 0.67981 0.0
H416 H 0.06524 0.67376 0.63449 0.0
H417 H 0.04866 0.64483 0.62997 0.0
H418 H 0.99497 0.61365 0.65779 0.0
H419 H 0.97538 0.61605 0.68638 0.0
H420 H 0.98867 0.68559 0.62924 0.0
H421 H 0.97425 0.71567 0.67255 0.0
H422 H 0.05197 0.61678 0.69999 0.0
H423 H 0.0532 0.65751 0.73511 0.0
C424 C 0.37927 0.34203 0.02391 0.0
C425 C 0.39449 0.34978 0.02776 0.0
C426 C 0.39564 0.36501 0.01863 0.0
C427 C 0.38107 0.36577 0.00985 0.0
N428 N 0.37065 0.35193 0.01276 0.0
Co429 Co 0.34784 0.3482 0.00297 0.0
N430 N 0.34979 0.37046 0.9892 0.0
C431 C 0.36324 0.38153 0.98815 0.0
C432 C 0.36123 0.39547 0.97736 0.0
C433 C 0.34552 0.39325 0.97113 0.0
C434 C 0.33875 0.37807 0.97863 0.0
N435 N 0.32481 0.34471 0.99356 0.0
C436 C 0.31584 0.35499 0.98305 0.0
C437 C 0.29987 0.34797 0.98054 0.0
C438 C 0.29876 0.33271 0.98961 0.0
C439 C 0.31397 0.33131 0.99725 0.0
N440 N 0.34612 0.32571 0.01637 0.0
C441 C 0.33325 0.31404 0.01641 0.0
C442 C 0.33578 0.29958 0.02634 0.0
C443 C 0.35123 0.30209 0.03302 0.0
C444 C 0.35723 0.31806 0.02684 0.0
N445 N 0.33661 0.35979 0.02258 0.0
C446 C 0.32039 0.3763 0.05028 0.0
C447 C 0.31512 0.36001 0.04611 0.0
C448 C 0.3233 0.35209 0.03231 0.0
C449 C 0.33406 0.38411 0.04046 0.0
C450 C 0.34194 0.37568 0.0268 0.0
N451 N 0.35914 0.33651 0.98342 0.0
C452 C 0.36073 0.31247 0.96511 0.0
C453 C 0.37706 0.31758 0.95857 0.0
C454 C 0.38386 0.33285 0.96391 0.0
C455 C 0.37471 0.34209 0.97618 0.0
C456 C 0.35204 0.32208 0.97739 0.0
H457 H 0.38067 0.3535 0.97984 0.0
H458 H 0.33979 0.31731 0.9821 0.0
H459 H 0.31857 0.33976 0.02977 0.0
H460 H 0.35223 0.38234 0.0198 0.0
C461 C 0.37718 0.37891 0.99818 0.0
C462 C 0.3736 0.32528 0.03121 0.0
C463 C 0.32174 0.37153 0.97533 0.0
C464 C 0.3186 0.31739 0.00761 0.0
H465 H 0.40385 0.34491 0.03624 0.0
H466 H 0.40595 0.37436 0.01832 0.0
H467 H 0.37004 0.4061 0.97452 0.0
H468 H 0.33969 0.40191 0.96215 0.0
H469 H 0.28998 0.35334 0.973 0.0
H470 H 0.28812 0.32372 0.99054 0.0
H471 H 0.32733 0.28858 0.02854 0.0
H472 H 0.35738 0.29315 0.04148 0.0
H473 H 0.30475 0.35332 0.0535 0.0
H474 H 0.33847 0.39683 0.04304 0.0
H475 H 0.35493 0.30071 0.96134 0.0
H476 H 0.39633 0.33752 0.95886 0.0
C477 C 0.68438 0.31726 0.04269 0.0
C478 C 0.69086 0.30159 0.04791 0.0
C479 C 0.70605 0.29976 0.03871 0.0
C480 C 0.70793 0.31425 0.02834 0.0
N481 N 0.69496 0.32539 0.03048 0.0
Co482 Co 0.69186 0.34736 0.01694 0.0
N483 N 0.71375 0.34412 0.0027 0.0
C484 C 0.72497 0.33124 0.00443 0.0
C485 C 0.73929 0.33288 0.99347 0.0
C486 C 0.7372 0.34775 0.98423 0.0
C487 C 0.72155 0.35429 0.99001 0.0
N488 N 0.68846 0.36907 0.00309 0.0
C489 C 0.69831 0.37652 0.9899 0.0
C490 C 0.6909 0.39124 0.98342 0.0
C491 C 0.676 0.39335 0.99305 0.0
C492 C 0.67507 0.37978 0.0047 0.0
N493 N 0.67023 0.35086 0.03148 0.0
C494 C 0.65976 0.36446 0.03078 0.0
C495 C 0.64603 0.36336 0.04256 0.0
C496 C 0.64772 0.34807 0.05122 0.0
C497 C 0.66237 0.34064 0.04407 0.0
N498 N 0.70486 0.36009 0.03335 0.0
C499 C 0.72432 0.37903 0.05511 0.0
C500 C 0.70941 0.38565 0.04875 0.0
C501 C 0.69995 0.37604 0.03802 0.0
C502 C 0.7291 0.36259 0.05077 0.0
C503 C 0.71926 0.35342 0.03998 0.0
N504 N 0.6789 0.33469 1.00053 0.0
C505 C 0.65345 0.33092 0.98514 0.0
C506 C 0.66016 0.31634 0.97773 0.0
C507 C 0.67646 0.31117 0.98184 0.0
C508 C 0.68552 0.32044 0.9932 0.0
C509 C 0.66297 0.33984 0.99637 0.0
H510 H 0.69783 0.3158 0.99587 0.0
H511 H 0.6571 0.3508 0.00162 0.0
H512 H 0.68881 0.3819 0.03356 0.0
H513 H 0.7237 0.34105 0.03704 0.0
C514 C 0.72157 0.31765 0.01628 0.0
C515 C 0.66787 0.32358 0.04922 0.0
C516 C 0.71487 0.37037 0.98331 0.0
C517 C 0.66232 0.3773 0.01792 0.0
H518 H 0.6851 0.29227 0.05718 0.0
H519 H 0.71456 0.28899 0.03928 0.0
H520 H 0.75002 0.32432 0.9924 0.0
H521 H 0.74628 0.35319 0.97445 0.0
H522 H 0.69585 0.39971 0.97293 0.0
H523 H 0.66704 0.40368 0.99186 0.0
H524 H 0.63576 0.37237 0.04431 0.0
H525 H 0.63894 0.3428 0.06139 0.0
H526 H 0.705 0.39821 0.05203 0.0
H527 H 0.74063 0.35695 0.05532 0.0
H528 H 0.64077 0.33531 0.98255 0.0
H529 H 0.68231 0.30008 0.97625 0.0
C530 C 0.70847 0.68805 0.04384 0.0
C531 C 0.72359 0.69596 0.04776 0.0
C532 C 0.7261 0.70964 0.03649 0.0
C533 C 0.71247 0.70924 0.02638 0.0
N534 N 0.70124 0.69629 0.03065 0.0
Co535 Co 0.68015 0.69034 0.0188 0.0
N536 N 0.68435 0.70992 0.00163 0.0
C537 C 0.69734 0.72151 1.0009 0.0
C538 C 0.69642 0.7339 0.98813 0.0
C539 C 0.68184 0.73016 0.98034 0.0
C540 C 0.67474 0.71557 0.98882 0.0
N541 N 0.65929 0.68414 0.00674 0.0
C542 C 0.65233 0.69204 0.99319 0.0
C543 C 0.63785 0.68343 0.98859 0.0
C544 C 0.6354 0.66973 0.99984 0.0
C545 C 0.64851 0.67072 0.01055 0.0
N546 N 0.67572 0.67102 0.03617 0.0
C547 C 0.66227 0.65995 0.03747 0.0
C548 C 0.66279 0.64807 0.05078 0.0
C549 C 0.67756 0.65164 0.05834 0.0
C550 C 0.68521 0.6655 0.04909 0.0
N551 N 0.66615 0.70564 0.03395 0.0
C552 C 0.64648 0.72705 0.056 0.0
C553 C 0.64025 0.7111 0.05162 0.0
C554 C 0.65014 0.70076 0.04069 0.0
C555 C 0.66275 0.73207 0.04891 0.0
C556 C 0.67223 0.72133 0.03806 0.0
N557 N 0.69417 0.675 0.00369 0.0
C558 C 0.69928 0.64718 0.99187 0.0
C559 C 0.71421 0.65309 0.98256 0.0
C560 C 0.71887 0.67023 0.98408 0.0
C561 C 0.70887 0.68079 0.99469 0.0
C562 C 0.68952 0.65822 0.00213 0.0
H563 H 0.71337 0.6936 0.99546 0.0
H564 H 0.67823 0.65287 0.00868 0.0
H565 H 0.64454 0.68882 0.03794 0.0
H566 H 0.68447 0.72604 0.03312 0.0
C567 C 0.71007 0.72058 0.01256 0.0
C568 C 0.70198 0.67225 0.05239 0.0
C569 C 0.65846 0.70807 0.98481 0.0
C570 C 0.65023 0.66009 0.02508 0.0
H571 H 0.73207 0.69205 0.05754 0.0
H572 H 0.73677 0.71861 0.03556 0.0
H573 H 0.70515 0.74455 0.98504 0.0
H574 H 0.67687 0.73753 0.96982 0.0
H575 H 0.62971 0.68694 0.97837 0.0
H576 H 0.62503 0.66044 1.00044 0.0
H577 H 0.65381 0.6377 0.05421 0.0
H578 H 0.68241 0.64457 0.06914 0.0
H579 H 0.62786 0.70636 0.05679 0.0
H580 H 0.66817 0.74439 0.05152 0.0
H581 H 0.69494 0.63409 0.99105 0.0
H582 H 0.7304 0.67546 0.97735 0.0
C583 C 0.37059 0.68951 0.99762 0.0
C584 C 0.38514 0.68158 0.99089 0.0
C585 C 0.38708 0.66709 1.0008 0.0
C586 C 0.3736 0.66692 0.01286 0.0
N587 N 0.36306 0.68036 0.01119 0.0
Co588 Co 0.34162 0.68482 0.0256 0.0
N589 N 0.34532 0.66429 0.04107 0.0
C590 C 0.3589 0.65376 0.04036 0.0
C591 C 0.35775 0.64065 0.05254 0.0
C592 C 0.34245 0.64282 0.06148 0.0
C593 C 0.33513 0.65721 0.05419 0.0
N594 N 0.31983 0.68888 0.03963 0.0
C595 C 0.31181 0.67913 0.05249 0.0
C596 C 0.29642 0.68615 0.0583 0.0
C597 C 0.29446 0.70071 0.0485 0.0
C598 C 0.3087 0.70173 0.03736 0.0
N599 N 0.33825 0.7057 0.01052 0.0
C600 C 0.32537 0.71701 0.01211 0.0
C601 C 0.32703 0.73072 1.00067 0.0
C602 C 0.342 0.72817 0.99131 0.0
C603 C 0.34855 0.71289 0.99752 0.0
N604 N 0.32842 0.67053 0.01033 0.0
C605 C 0.30942 0.65004 0.98909 0.0
C606 C 0.30498 0.66698 0.99186 0.0
C607 C 0.31446 0.67686 0.00253 0.0
C608 C 0.32359 0.64359 0.99712 0.0
C609 C 0.33287 0.65397 0.00745 0.0
N610 N 0.35488 0.69911 0.04085 0.0
C611 C 0.3576 0.72425 0.05761 0.0
C612 C 0.37426 0.71996 0.0615 0.0
C613 C 0.38092 0.70489 0.05497 0.0
C614 C 0.37112 0.69476 0.04485 0.0
C615 C 0.34826 0.71379 0.04737 0.0
H616 H 0.37702 0.68348 0.04036 0.0
H617 H 0.33575 0.71796 0.04478 0.0
H618 H 0.31018 0.68955 0.00436 0.0
H619 H 0.34362 0.64826 0.01299 0.0
C620 C 0.37137 0.65524 0.0268 0.0
C621 C 0.36491 0.70607 0.99116 0.0
C622 C 0.31798 0.66291 0.05928 0.0
C623 C 0.31193 0.71447 0.02456 0.0
H624 H 0.39367 0.68602 0.98015 0.0
H625 H 0.39738 0.65802 0.99965 0.0
H626 H 0.3666 0.63029 0.05421 0.0
H627 H 0.33705 0.63439 0.07178 0.0
H628 H 0.28745 0.68112 0.06841 0.0
H629 H 0.2838 0.70939 0.04924 0.0
H630 H 0.31853 0.74143 0.99947 0.0
H631 H 0.34755 0.73681 0.98127 0.0
H632 H 0.29401 0.67254 0.98608 0.0
H633 H 0.32768 0.63061 0.99524 0.0
H634 H 0.35184 0.73585 0.06216 0.0
H635 H 0.39363 0.70076 0.05779 0.0
C636 C 0.81937 0.47638 0.8455 0.0
C637 C 0.80393 0.47172 0.8391 0.0
C638 C 0.80246 0.48137 0.82439 0.0
C639 C 0.81693 0.49142 0.8227 0.0
N640 N 0.82775 0.4886 0.83529 0.0
Co641 Co 0.84943 0.50157 0.83868 0.0
N642 N 0.84661 0.51657 0.81767 0.0
C643 C 0.8339 0.51575 0.8068 0.0
C644 C 0.8357 0.52732 0.79317 0.0
C645 C 0.85061 0.53589 0.79528 0.0
C646 C 0.85706 0.52898 0.81013 0.0
N647 N 0.8708 0.51489 0.84242 0.0
C648 C 0.87869 0.52781 0.83279 0.0
C649 C 0.8934 0.53342 0.83997 0.0
C650 C 0.8949 0.52363 0.8546 0.0
C651 C 0.88111 0.51265 0.85553 0.0
N652 N 0.85256 0.48621 0.85934 0.0
C653 C 0.86591 0.48621 0.86948 0.0
C654 C 0.86455 0.47405 0.88262 0.0
C655 C 0.8493 0.46592 0.88091 0.0
C656 C 0.84218 0.47374 0.86685 0.0
N657 N 0.86306 0.48541 0.82413 0.0
C658 C 0.88289 0.46334 0.80293 0.0
C659 C 0.88912 0.46961 0.81787 0.0
C660 C 0.87912 0.48043 0.82816 0.0
C661 C 0.86641 0.46829 0.79895 0.0
C662 C 0.85686 0.47922 0.80956 0.0
N663 N 0.83584 0.51772 0.85322 0.0
C664 C 0.83036 0.53155 0.88023 0.0
C665 C 0.81615 0.54004 0.8742 0.0
C666 C 0.81208 0.53716 0.85739 0.0
C667 C 0.8219 0.52601 0.84728 0.0
C668 C 0.83999 0.52069 0.86963 0.0
H669 H 0.81786 0.5242 0.83473 0.0
H670 H 0.85074 0.51481 0.87502 0.0
H671 H 0.88473 0.48465 0.83931 0.0
H672 H 0.84451 0.48259 0.80561 0.0
C673 C 0.82043 0.50401 0.8098 0.0
C674 C 0.82512 0.46953 0.86174 0.0
C675 C 0.87333 0.53439 0.81631 0.0
C676 C 0.87852 0.49898 0.86746 0.0
H677 H 0.79447 0.4626 0.84466 0.0
H678 H 0.79187 0.48139 0.81614 0.0
H679 H 0.82725 0.52919 0.78285 0.0
H680 H 0.8562 0.54598 0.78677 0.0
H681 H 0.9024 0.54322 0.83491 0.0
H682 H 0.90519 0.52403 0.86319 0.0
H683 H 0.87328 0.47181 0.89263 0.0
H684 H 0.84379 0.45573 0.88936 0.0
H685 H 0.90164 0.46604 0.8218 0.0
H686 H 0.86095 0.46404 0.78748 0.0
H687 H 0.83425 0.53344 0.89305 0.0
H688 H 0.80112 0.54324 0.85209 0.0
C689 C 0.47961 0.83245 0.88552 0.0
C690 C 0.47277 0.83878 0.90076 0.0
C691 C 0.48084 0.854 0.9027 0.0
C692 C 0.492 0.85617 0.88854 0.0
N693 N 0.49148 0.8433 0.87758 0.0
Co694 Co 0.50518 0.84153 0.85517 0.0
N695 N 0.51772 0.8635 0.85852 0.0
C696 C 0.51588 0.87354 0.87215 0.0
C697 C 0.5265 0.88759 0.871 0.0
C698 C 0.53566 0.88655 0.85568 0.0
C699 C 0.52997 0.8719 0.8483 0.0
N700 N 0.51871 0.83989 0.83263 0.0
C701 C 0.53058 0.85075 0.82468 0.0
C702 C 0.53637 0.84511 0.80877 0.0
C703 C 0.52797 0.83011 0.80664 0.0
C704 C 0.5175 0.8275 0.82123 0.0
N705 N 0.49283 0.8194 0.85197 0.0
C706 C 0.49504 0.80911 0.83857 0.0
C707 C 0.48542 0.79439 0.84033 0.0
C708 C 0.47658 0.79521 0.85583 0.0
C709 C 0.48124 0.81055 0.86261 0.0
N710 N 0.48727 0.85427 0.84342 0.0
C711 C 0.46194 0.87248 0.82673 0.0
C712 C 0.46807 0.85713 0.82053 0.0
C713 C 0.48064 0.84832 0.82899 0.0
C714 C 0.46863 0.87853 0.84145 0.0
C715 C 0.48116 0.86931 0.84952 0.0
N716 N 0.52302 0.82877 0.86694 0.0
C717 C 0.5421 0.80484 0.86866 0.0
C718 C 0.5469 0.80958 0.88467 0.0
C719 C 0.53991 0.82433 0.89144 0.0
C720 C 0.5281 0.83365 0.88244 0.0
C721 C 0.53026 0.81457 0.86006 0.0
H722 H 0.52315 0.84466 0.88837 0.0
H723 H 0.52701 0.81021 0.84799 0.0
H724 H 0.48485 0.83679 0.82354 0.0
H725 H 0.48569 0.87464 0.86065 0.0
C726 C 0.50367 0.86973 0.8856 0.0
C727 C 0.47468 0.81591 0.87939 0.0
C728 C 0.53651 0.86663 0.8315 0.0
C729 C 0.50649 0.81349 0.82463 0.0
H730 H 0.46307 0.83292 0.90967 0.0
H731 H 0.47898 0.86237 0.91328 0.0
H732 H 0.52738 0.89749 0.88014 0.0
H733 H 0.54537 0.89561 0.8505 0.0
H734 H 0.54562 0.85125 0.79957 0.0
H735 H 0.52928 0.8221 0.79572 0.0
H736 H 0.48507 0.78415 0.8315 0.0
H737 H 0.46787 0.78546 0.86156 0.0
H738 H 0.46341 0.85205 0.80901 0.0
H739 H 0.46412 0.89028 0.84686 0.0
H740 H 0.54711 0.79344 0.86293 0.0
H741 H 0.54351 0.82871 0.90367 0.0
C742 C 0.15591 0.52422 0.84144 0.0
C743 C 0.13998 0.52786 0.84913 0.0
C744 C 0.13798 0.51777 0.86378 0.0
C745 C 0.15277 0.50862 0.86425 0.0
N746 N 0.16423 0.51241 0.85092 0.0
Co747 Co 0.18703 0.50147 0.84628 0.0
N748 N 0.18368 0.48595 0.86738 0.0
C749 C 0.16984 0.48514 0.87868 0.0
C750 C 0.17136 0.47368 0.89219 0.0
C751 C 0.18725 0.46695 0.88957 0.0
C752 C 0.19458 0.47479 0.87458 0.0
N753 N 0.20975 0.49037 0.84154 0.0
C754 C 0.21819 0.47872 0.85112 0.0
C755 C 0.23409 0.47506 0.84335 0.0
C756 C 0.2358 0.48474 0.82842 0.0
C757 C 0.22096 0.49379 0.82793 0.0
N758 N 0.19052 0.51721 0.82533 0.0
C759 C 0.20439 0.51803 0.81409 0.0
C760 C 0.20299 0.52961 0.80066 0.0
C761 C 0.18719 0.53652 0.80336 0.0
C762 C 0.17984 0.52876 0.81838 0.0
N763 N 0.19829 0.51867 0.86017 0.0
C764 C 0.21541 0.54138 0.88081 0.0
C765 C 0.22205 0.53789 0.86434 0.0
C766 C 0.21344 0.52654 0.85438 0.0
C767 C 0.19984 0.53356 0.8866 0.0
C768 C 0.1915 0.52251 0.87612 0.0
N769 N 0.17571 0.48427 0.83236 0.0
C770 C 0.17276 0.47094 0.80524 0.0
C771 C 0.15797 0.46211 0.81167 0.0
C772 C 0.15249 0.46418 0.82879 0.0
C773 C 0.16137 0.47531 0.83876 0.0
C774 C 0.18149 0.48164 0.81576 0.0
H775 H 0.15619 0.47664 0.85152 0.0
H776 H 0.19278 0.48778 0.81008 0.0
H777 H 0.21942 0.52416 0.84212 0.0
H778 H 0.17963 0.51711 0.88127 0.0
C779 C 0.15596 0.49591 0.87664 0.0
C780 C 0.16235 0.53208 0.82498 0.0
C781 C 0.21209 0.47153 0.86801 0.0
C782 C 0.21794 0.50678 0.81577 0.0
H783 H 0.13065 0.53673 0.84449 0.0
H784 H 0.12693 0.51696 0.87283 0.0
H785 H 0.16216 0.47085 0.90288 0.0
H786 H 0.19293 0.45754 0.89791 0.0
H787 H 0.24372 0.46668 0.84816 0.0
H788 H 0.24684 0.48559 0.81935 0.0
H789 H 0.21213 0.53228 0.78988 0.0
H790 H 0.18157 0.54587 0.79493 0.0
H791 H 0.23412 0.54354 0.85928 0.0
H792 H 0.194 0.53605 0.89916 0.0
H793 H 0.17767 0.46953 0.79212 0.0
H794 H 0.14108 0.45763 0.83436 0.0
C795 C 0.49105 0.21526 0.8423 0.0
C796 C 0.48553 0.23073 0.83547 0.0
C797 C 0.49594 0.23463 0.82118 0.0
C798 C 0.50723 0.22144 0.82015 0.0
N799 N 0.50456 0.20923 0.83282 0.0
Co800 Co 0.51854 0.18831 0.83675 0.0
N801 N 0.53356 0.19385 0.81544 0.0
C802 C 0.53237 0.20739 0.8043 0.0
C803 C 0.54376 0.20712 0.79028 0.0
C804 C 0.55254 0.19234 0.79239 0.0
C805 C 0.546 0.18449 0.80769 0.0
N806 N 0.53288 0.16773 0.84099 0.0
C807 C 0.54576 0.16124 0.83103 0.0
C808 C 0.55244 0.14668 0.83864 0.0
C809 C 0.54315 0.14365 0.85385 0.0
C810 C 0.53146 0.15653 0.85466 0.0
N811 N 0.50312 0.18235 0.85765 0.0
C812 C 0.50398 0.16843 0.8684 0.0
C813 C 0.49137 0.16765 0.8814 0.0
C814 C 0.48191 0.18193 0.87885 0.0
C815 C 0.48941 0.19067 0.86443 0.0
N816 N 0.50339 0.17484 0.82299 0.0
C817 C 0.48195 0.1556 0.80351 0.0
C818 C 0.48895 0.14832 0.81801 0.0
C819 C 0.49946 0.15813 0.82755 0.0
C820 C 0.48586 0.17264 0.79886 0.0
C821 C 0.49666 0.18193 0.80863 0.0
N822 N 0.53376 0.20179 0.85058 0.0
C823 C 0.54749 0.20566 0.87696 0.0
C824 C 0.55538 0.22077 0.87029 0.0
C825 C 0.55219 0.22629 0.85362 0.0
C826 C 0.5414 0.21671 0.84409 0.0
C827 C 0.53686 0.19646 0.86698 0.0
H828 H 0.5395 0.22166 0.83152 0.0
H829 H 0.53128 0.18511 0.87291 0.0
H830 H 0.50423 0.1519 0.83859 0.0
H831 H 0.49942 0.19479 0.8043 0.0
C832 C 0.5201 0.21989 0.80715 0.0
C833 C 0.48343 0.20713 0.8581 0.0
C834 C 0.55124 0.1677 0.81385 0.0
C835 C 0.51758 0.1571 0.86676 0.0
H836 H 0.47513 0.23849 0.84037 0.0
H837 H 0.49538 0.24577 0.81258 0.0
H838 H 0.5452 0.21636 0.77959 0.0
H839 H 0.56235 0.18768 0.78347 0.0
H840 H 0.56256 0.13876 0.83342 0.0
H841 H 0.54424 0.13289 0.86282 0.0
H842 H 0.48953 0.15805 0.89174 0.0
H843 H 0.47092 0.18568 0.88686 0.0
H844 H 0.48608 0.13517 0.82215 0.0
H845 H 0.48079 0.17871 0.7876 0.0
H846 H 0.54931 0.201 0.88994 0.0
H847 H 0.55814 0.23785 0.84781 0.0
C848 C 0.83691 0.49431 0.15203 0.0
C849 C 0.84573 0.489 0.13728 0.0
C850 C 0.86003 0.4991 0.13476 0.0
C851 C 0.85919 0.50987 0.14811 0.0
N852 N 0.84523 0.50723 0.15907 0.0
Co853 Co 0.83923 0.5196 0.18051 0.0
N854 N 0.85959 0.53532 0.17605 0.0
C855 C 0.8711 0.53563 0.16237 0.0
C856 C 0.88352 0.54803 0.16274 0.0
C857 C 0.87975 0.55615 0.17754 0.0
C858 C 0.86518 0.54817 0.18537 0.0
N859 N 0.83355 0.53159 0.20225 0.0
C860 C 0.842 0.54438 0.20937 0.0
C861 C 0.83398 0.54873 0.22488 0.0
C862 C 0.82001 0.53821 0.22775 0.0
C863 C 0.82032 0.52809 0.21389 0.0
N864 N 0.81852 0.50427 0.18463 0.0
C865 C 0.8065 0.50457 0.19783 0.0
C866 C 0.79337 0.49304 0.1968 0.0
C867 C 0.79711 0.48498 0.18196 0.0
C868 C 0.81245 0.49202 0.17484 0.0
N869 N 0.85309 0.50318 0.19346 0.0
C870 C 0.87295 0.48037 0.21215 0.0
C871 C 0.85582 0.48293 0.21725 0.0
C872 C 0.84622 0.49439 0.20784 0.0
C873 C 0.87998 0.48926 0.19752 0.0
C874 C 0.86988 0.50043 0.18838 0.0
N875 N 0.82539 0.53601 0.16758 0.0
C876 C 0.80024 0.55336 0.16566 0.0
C877 C 0.80581 0.55935 0.14918 0.0
C878 C 0.82134 0.55349 0.14206 0.0
C879 C 0.83085 0.54193 0.15141 0.0
C880 C 0.81014 0.54176 0.17455 0.0
H881 H 0.84257 0.53798 0.14527 0.0
H882 H 0.80513 0.53758 0.187 0.0
H883 H 0.83333 0.49598 0.21255 0.0
H884 H 0.87598 0.50671 0.17729 0.0
C885 C 0.87058 0.52337 0.14998 0.0
C886 C 0.82048 0.48697 0.15855 0.0
C887 C 0.8576 0.55279 0.20198 0.0
C888 C 0.80804 0.51564 0.21116 0.0
H889 H 0.84208 0.479 0.12906 0.0
H890 H 0.8697 0.49886 0.12425 0.0
H891 H 0.89425 0.5506 0.15353 0.0
H892 H 0.88708 0.56656 0.1822 0.0
H893 H 0.83781 0.55853 0.23325 0.0
H894 H 0.8107 0.53802 0.2386 0.0
H895 H 0.78235 0.49084 0.20572 0.0
H896 H 0.78934 0.47513 0.1769 0.0
H897 H 0.84993 0.47637 0.22863 0.0
H898 H 0.8932 0.48748 0.19304 0.0
H899 H 0.78816 0.55738 0.17161 0.0
H900 H 0.82625 0.55794 0.12937 0.0
C901 C 0.54212 0.85188 0.16609 0.0
C902 C 0.54885 0.85962 0.15082 0.0
C903 C 0.54132 0.87519 0.14932 0.0
C904 C 0.53048 0.8761 0.16372 0.0
N905 N 0.53078 0.86216 0.17446 0.0
Co906 Co 0.51651 0.85809 0.19659 0.0
N907 N 0.5038 0.88 0.19327 0.0
C908 C 0.50573 0.89111 0.17956 0.0
C909 C 0.49526 0.90496 0.18068 0.0
C910 C 0.4862 0.90269 0.1961 0.0
C911 C 0.49179 0.88758 0.20365 0.0
N912 N 0.50251 0.85421 0.21891 0.0
C913 C 0.491 0.86441 0.22719 0.0
C914 C 0.48532 0.85721 0.24309 0.0
C915 C 0.49344 0.842 0.24493 0.0
C916 C 0.5037 0.84079 0.2302 0.0
N917 N 0.52893 0.83595 0.19965 0.0
C918 C 0.52661 0.82448 0.21302 0.0
C919 C 0.53611 0.81001 0.2112 0.0
C920 C 0.54482 0.81219 0.19557 0.0
C921 C 0.54013 0.82794 0.18874 0.0
N922 N 0.53409 0.87045 0.20908 0.0
C923 C 0.55691 0.88905 0.22842 0.0
C924 C 0.55182 0.87228 0.23332 0.0
C925 C 0.54057 0.86333 0.22359 0.0
C926 C 0.55068 0.89612 0.21335 0.0
C927 C 0.53951 0.88668 0.20394 0.0
N928 N 0.499 0.84571 0.18413 0.0
C929 C 0.48051 0.82099 0.18171 0.0
C930 C 0.47676 0.82621 0.16505 0.0
C931 C 0.48392 0.84175 0.15841 0.0
C932 C 0.49482 0.85122 0.16808 0.0
C933 C 0.49148 0.83083 0.19093 0.0
H934 H 0.49997 0.86281 0.16215 0.0
H935 H 0.49389 0.826 0.20346 0.0
H936 H 0.53711 0.85073 0.22823 0.0
H937 H 0.53529 0.89289 0.19263 0.0
C938 C 0.51844 0.88888 0.16652 0.0
C939 C 0.54628 0.83446 0.17163 0.0
C940 C 0.48557 0.88127 0.22085 0.0
C941 C 0.5149 0.82742 0.22678 0.0
H942 H 0.55789 0.85434 0.1415 0.0
H943 H 0.54299 0.88443 0.13865 0.0
H944 H 0.49461 0.91567 0.17155 0.0
H945 H 0.47675 0.91134 0.20132 0.0
H946 H 0.4765 0.86251 0.25258 0.0
H947 H 0.49228 0.83305 0.25588 0.0
H948 H 0.53635 0.799 0.22 0.0
H949 H 0.55342 0.80309 0.1897 0.0
H950 H 0.55614 0.86616 0.2449 0.0
H951 H 0.55446 0.90891 0.20871 0.0
H952 H 0.47501 0.80932 0.18772 0.0
H953 H 0.48156 0.84644 0.14557 0.0
C954 C 0.1882 0.54476 0.15865 0.0
C955 C 0.18183 0.55012 0.14319 0.0
C956 C 0.16764 0.54032 0.14127 0.0
C957 C 0.16616 0.52958 0.15558 0.0
N958 N 0.17851 0.53197 0.16659 0.0
Co959 Co 0.18122 0.5191 0.18895 0.0
N960 N 0.16163 0.50329 0.18504 0.0
C961 C 0.15222 0.50328 0.17113 0.0
C962 C 0.13966 0.49092 0.17205 0.0
C963 C 0.14111 0.48249 0.18747 0.0
C964 C 0.15457 0.49021 0.19509 0.0
N965 N 0.18353 0.50668 0.21162 0.0
C966 C 0.17406 0.49362 0.21937 0.0
C967 C 0.17976 0.48901 0.23534 0.0
C968 C 0.19312 0.4997 0.23789 0.0
C969 C 0.19485 0.51015 0.2234 0.0
N970 N 0.20131 0.5344 0.19248 0.0
C971 C 0.21116 0.53405 0.20608 0.0
C972 C 0.22443 0.54566 0.20458 0.0
C973 C 0.22318 0.55375 0.18895 0.0
C974 C 0.20916 0.54655 0.18181 0.0
N975 N 0.16531 0.53511 0.20053 0.0
C976 C 0.14179 0.5556 0.21879 0.0
C977 C 0.15867 0.55418 0.2234 0.0
C978 C 0.17007 0.5439 0.21426 0.0
C979 C 0.13709 0.54706 0.20448 0.0
C980 C 0.14899 0.53715 0.19551 0.0
N981 N 0.19704 0.50306 0.17749 0.0
C982 C 0.22231 0.48568 0.17752 0.0
C983 C 0.21926 0.47991 0.16136 0.0
C984 C 0.20498 0.48603 0.15334 0.0
C985 C 0.19413 0.4975 0.16157 0.0
C986 C 0.21113 0.49717 0.18529 0.0
H987 H 0.18348 0.50171 0.15479 0.0
H988 H 0.21414 0.50108 0.19761 0.0
H989 H 0.18258 0.54315 0.21872 0.0
H990 H 0.14454 0.53106 0.18473 0.0
C991 C 0.15455 0.51594 0.15807 0.0
C992 C 0.20399 0.55153 0.16478 0.0
C993 C 0.15962 0.48521 0.21219 0.0
C994 C 0.20747 0.52279 0.22015 0.0
H995 H 0.18713 0.55977 0.13401 0.0
H996 H 0.15973 0.54055 0.13042 0.0
H997 H 0.13027 0.48862 0.16282 0.0
H998 H 0.1329 0.47207 0.19264 0.0
H999 H 0.17481 0.47892 0.24423 0.0
H1000 H 0.20075 0.49976 0.24894 0.0
H1001 H 0.23394 0.54789 0.21371 0.0
H1002 H 0.2317 0.56376 0.18338 0.0
H1003 H 0.16315 0.56092 0.23409 0.0
H1004 H 0.12415 0.54762 0.20037 0.0
H1005 H 0.23315 0.48118 0.18429 0.0
H1006 H 0.20226 0.48216 0.14067 0.0
C1007 C 0.48922 0.19063 0.20993 0.0
C1008 C 0.48263 0.19804 0.2247 0.0
C1009 C 0.49144 0.21299 0.22589 0.0
C1010 C 0.50291 0.2138 0.2119 0.0
N1011 N 0.50182 0.20042 0.20167 0.0
Co1012 Co 0.51692 0.19587 0.18068 0.0
N1013 N 0.53073 0.21724 0.18319 0.0
C1014 C 0.52814 0.22891 0.1953 0.0
C1015 C 0.53904 0.24272 0.19326 0.0
C1016 C 0.54913 0.23983 0.17887 0.0
C1017 C 0.54386 0.22426 0.17301 0.0
N1018 N 0.53224 0.19109 0.15995 0.0
C1019 C 0.54557 0.20031 0.15229 0.0
C1020 C 0.55304 0.19218 0.13833 0.0
C1021 C 0.54389 0.17746 0.1369 0.0
C1022 C 0.5315 0.17737 0.15008 0.0
N1023 N 0.50291 0.1747 0.17798 0.0
C1024 C 0.50469 0.16363 0.1652 0.0
C1025 C 0.49322 0.15024 0.16687 0.0
C1026 C 0.48366 0.15277 0.18172 0.0
C1027 C 0.48995 0.16758 0.18829 0.0
N1028 N 0.50136 0.20914 0.16595 0.0
C1029 C 0.48018 0.22845 0.14447 0.0
C1030 C 0.48734 0.21308 0.13932 0.0
C1031 C 0.49771 0.20373 0.15013 0.0
C1032 C 0.48371 0.23386 0.1607 0.0
C1033 C 0.49423 0.22415 0.1711 0.0
N1034 N 0.53247 0.1826 0.19536 0.0
C1035 C 0.5479 0.15667 0.2017 0.0
C1036 C 0.55401 0.16335 0.21649 0.0
C1037 C 0.5491 0.17993 0.22042 0.0
C1038 C 0.53844 0.18922 0.20981 0.0
C1039 C 0.53731 0.1664 0.19144 0.0
H1040 H 0.53516 0.20174 0.21359 0.0
H1041 H 0.53311 0.16045 0.18044 0.0
H1042 H 0.50268 0.19217 0.14534 0.0
H1043 H 0.49651 0.22913 0.1832 0.0
C1044 C 0.51522 0.22666 0.20834 0.0
C1045 C 0.48372 0.17392 0.20473 0.0
C1046 C 0.55127 0.217 0.15739 0.0
C1047 C 0.51832 0.16523 0.15282 0.0
H1048 H 0.47274 0.19302 0.2339 0.0
H1049 H 0.48995 0.22199 0.23597 0.0
H1050 H 0.53943 0.25372 0.20114 0.0
H1051 H 0.55906 0.2484 0.17321 0.0
H1052 H 0.56382 0.19658 0.12987 0.0
H1053 H 0.54581 0.16813 0.12718 0.0
H1054 H 0.49233 0.13958 0.15862 0.0
H1055 H 0.47349 0.14444 0.18732 0.0
H1056 H 0.48482 0.20811 0.12701 0.0
H1057 H 0.47865 0.24574 0.1653 0.0
H1058 H 0.55101 0.14383 0.19813 0.0
H1059 H 0.55361 0.18588 0.23157 0.0
C1060 C 0.83459 0.86723 0.50183 0.0
C1061 C 0.84061 0.88369 0.49755 0.0
C1062 C 0.85619 0.88514 0.50422 0.0
C1063 C 0.85885 0.86955 0.51211 0.0
N1064 N 0.84588 0.85819 0.51096 0.0
Co1065 Co 0.84481 0.83388 0.52039 0.0
N1066 N 0.86805 0.83589 0.5297 0.0
C1067 C 0.87858 0.84976 0.5282 0.0
C1068 C 0.8939 0.8473 0.53538 0.0
C1069 C 0.89313 0.83092 0.54199 0.0
C1070 C 0.87722 0.82431 0.53859 0.0
N1071 N 0.84369 0.8096 0.52991 0.0
C1072 C 0.85492 0.8006 0.5392 0.0
C1073 C 0.84859 0.78435 0.54396 0.0
C1074 C 0.833 0.78292 0.53729 0.0
C1075 C 0.83058 0.79835 0.52899 0.0
N1076 N 0.82161 0.83185 0.51096 0.0
C1077 C 0.81116 0.81793 0.51222 0.0
C1078 C 0.79614 0.8202 0.50439 0.0
C1079 C 0.79705 0.83653 0.49761 0.0
C1080 C 0.81266 0.8433 0.50167 0.0
N1081 N 0.85549 0.82617 0.49846 0.0
C1082 C 0.87065 0.81508 0.46736 0.0
C1083 C 0.85665 0.80631 0.47566 0.0
C1084 C 0.84931 0.81205 0.49103 0.0
C1085 C 0.87683 0.82959 0.47481 0.0
C1086 C 0.86915 0.83483 0.49024 0.0
N1087 N 0.8341 0.8416 0.54232 0.0
C1088 C 0.81227 0.83854 0.56555 0.0
C1089 C 0.81856 0.85289 0.5732 0.0
C1090 C 0.83295 0.86132 0.56525 0.0
C1091 C 0.8405 0.85545 0.55001 0.0
C1092 C 0.8201 0.83323 0.55022 0.0
H1093 H 0.85141 0.86243 0.54464 0.0
H1094 H 0.81453 0.82236 0.54501 0.0
H1095 H 0.83874 0.80477 0.49669 0.0
H1096 H 0.87453 0.84592 0.49526 0.0
C1097 C 0.87367 0.86498 0.5201 0.0
C1098 C 0.81831 0.86069 0.49644 0.0
C1099 C 0.87148 0.80698 0.54414 0.0
C1100 C 0.8159 0.80282 0.52066 0.0
H1101 H 0.83449 0.89358 0.49015 0.0
H1102 H 0.86471 0.89616 0.50319 0.0
H1103 H 0.90439 0.85636 0.53579 0.0
H1104 H 0.90319 0.82459 0.54856 0.0
H1105 H 0.85447 0.77455 0.55166 0.0
H1106 H 0.82434 0.77202 0.53857 0.0
H1107 H 0.7858 0.81104 0.50363 0.0
H1108 H 0.78732 0.84275 0.49046 0.0
H1109 H 0.85155 0.79483 0.47054 0.0
H1110 H 0.88754 0.83693 0.46877 0.0
H1111 H 0.80131 0.83138 0.57132 0.0
H1112 H 0.83821 0.87265 0.57051 0.0
C1113 C 0.17313 0.79954 0.54198 0.0
C1114 C 0.18061 0.78434 0.54714 0.0
C1115 C 0.19607 0.78366 0.53817 0.0
C1116 C 0.19714 0.79834 0.52803 0.0
N1117 N 0.18329 0.80843 0.52996 0.0
Co1118 Co 0.1794 0.83077 0.51739 0.0
N1119 N 0.2019 0.82933 0.50372 0.0
C1120 C 0.21331 0.81651 0.50442 0.0
C1121 C 0.22772 0.81922 0.49375 0.0
C1122 C 0.22548 0.83476 0.48579 0.0
C1123 C 0.20972 0.84063 0.49208 0.0
N1124 N 0.17564 0.85326 0.50504 0.0
C1125 C 0.1861 0.8624 0.49349 0.0
C1126 C 0.17875 0.87765 0.48834 0.0
C1127 C 0.16318 0.87831 0.49714 0.0
C1128 C 0.1619 0.86347 0.50708 0.0
N1129 N 0.15675 0.83208 0.53085 0.0
C1130 C 0.1451 0.84465 0.52976 0.0
C1131 C 0.13079 0.84204 0.5406 0.0
C1132 C 0.13334 0.82681 0.54905 0.0
C1133 C 0.14909 0.82094 0.54276 0.0
N1134 N 0.19072 0.84294 0.53535 0.0
C1135 C 0.2069 0.86086 0.56041 0.0
C1136 C 0.19063 0.86534 0.55558 0.0
C1137 C 0.18294 0.85642 0.54306 0.0
C1138 C 0.21484 0.84703 0.55261 0.0
C1139 C 0.20653 0.83825 0.54031 0.0
N1140 N 0.168 0.81856 0.49948 0.0
C1141 C 0.14376 0.81517 0.48227 0.0
C1142 C 0.15019 0.7999 0.47624 0.0
C1143 C 0.16599 0.7944 0.48145 0.0
C1144 C 0.1746 0.80384 0.49306 0.0
C1145 C 0.15287 0.8243 0.49366 0.0
H1146 H 0.1864 0.79881 0.49686 0.0
H1147 H 0.14725 0.83582 0.49773 0.0
H1148 H 0.17071 0.86075 0.53983 0.0
H1149 H 0.2132 0.8278 0.53492 0.0
C1150 C 0.21059 0.80258 0.516 0.0
C1151 C 0.15615 0.80468 0.54848 0.0
C1152 C 0.20313 0.85732 0.48719 0.0
C1153 C 0.14811 0.85893 0.51863 0.0
H1154 H 0.17536 0.77458 0.55623 0.0
H1155 H 0.2053 0.7735 0.53874 0.0
H1156 H 0.23873 0.81106 0.49225 0.0
H1157 H 0.23461 0.84117 0.47665 0.0
H1158 H 0.18416 0.88736 0.47927 0.0
H1159 H 0.15396 0.88847 0.4965 0.0
H1160 H 0.11983 0.85026 0.5422 0.0
H1161 H 0.12456 0.82072 0.55874 0.0
H1162 H 0.1837 0.87568 0.56147 0.0
H1163 H 0.22753 0.84313 0.55572 0.0
H1164 H 0.13169 0.82006 0.47827 0.0
H1165 H 0.17144 0.78261 0.47704 0.0
C1166 C 0.15725 0.18044 0.54015 0.0
C1167 C 0.14121 0.17356 0.54521 0.0
C1168 C 0.14008 0.15825 0.53767 0.0
C1169 C 0.15539 0.15662 0.52843 0.0
N1170 N 0.16627 0.16999 0.52954 0.0
Co1171 Co 0.18999 0.17242 0.51815 0.0
N1172 N 0.18767 0.15056 0.50587 0.0
C1173 C 0.17351 0.14049 0.50622 0.0
C1174 C 0.17524 0.12677 0.49601 0.0
C1175 C 0.19149 0.12813 0.48863 0.0
C1176 C 0.19887 0.14258 0.49493 0.0
N1177 N 0.21403 0.17441 0.50746 0.0
C1178 C 0.22311 0.16381 0.49705 0.0
C1179 C 0.23985 0.16963 0.49366 0.0
C1180 C 0.24137 0.18443 0.50205 0.0
C1181 C 0.22561 0.18675 0.5102 0.0
N1182 N 0.19194 0.19479 0.52963 0.0
C1183 C 0.20564 0.20553 0.52824 0.0
C1184 C 0.20326 0.22015 0.53703 0.0
C1185 C 0.18698 0.21879 0.54436 0.0
C1186 C 0.1803 0.20335 0.53959 0.0
N1187 N 0.19901 0.15985 0.53809 0.0
C1188 C 0.21466 0.14076 0.56393 0.0
C1189 C 0.21888 0.15796 0.56043 0.0
C1190 C 0.21104 0.16716 0.54755 0.0
C1191 C 0.20175 0.13355 0.55489 0.0
C1192 C 0.19402 0.14331 0.5423 0.0
N1193 N 0.1811 0.18497 0.49821 0.0
C1194 C 0.18412 0.20763 0.47631 0.0
C1195 C 0.16797 0.20383 0.47077 0.0
C1196 C 0.15869 0.19014 0.47892 0.0
C1197 C 0.16547 0.18091 0.49246 0.0
C1198 C 0.19037 0.19815 0.48996 0.0
H1199 H 0.15773 0.17071 0.49822 0.0
H1200 H 0.20266 0.20183 0.49369 0.0
H1201 H 0.21518 0.18007 0.54535 0.0
H1202 H 0.18429 0.13703 0.5359 0.0
C1203 C 0.15923 0.14362 0.5172 0.0
C1204 C 0.163 0.19724 0.54526 0.0
C1205 C 0.21657 0.14806 0.49021 0.0
C1206 C 0.22094 0.20095 0.51955 0.0
H1207 H 0.13118 0.17916 0.55321 0.0
H1208 H 0.12917 0.14958 0.5384 0.0
H1209 H 0.16588 0.11682 0.49431 0.0
H1210 H 0.19728 0.11939 0.47971 0.0
H1211 H 0.24995 0.1638 0.48594 0.0
H1212 H 0.2526 0.1926 0.50208 0.0
H1213 H 0.21237 0.23045 0.53821 0.0
H1214 H 0.18081 0.22804 0.55247 0.0
H1215 H 0.22839 0.16434 0.56745 0.0
H1216 H 0.19795 0.12028 0.55707 0.0
H1217 H 0.19193 0.21794 0.4702 0.0
H1218 H 0.14602 0.18681 0.47522 0.0
C1219 C 0.81355 0.16319 0.48919 0.0
C1220 C 0.79795 0.17025 0.48547 0.0
C1221 C 0.79677 0.18527 0.4936 0.0
C1222 C 0.81156 0.18651 0.50193 0.0
N1223 N 0.82224 0.17326 0.49953 0.0
Co1224 Co 0.84454 0.16957 0.51046 0.0
N1225 N 0.84266 0.19167 0.52257 0.0
C1226 C 0.82981 0.20302 0.5217 0.0
C1227 C 0.83187 0.21702 0.53128 0.0
C1228 C 0.84707 0.21463 0.53856 0.0
C1229 C 0.85353 0.19929 0.53288 0.0
N1230 N 0.86665 0.16567 0.5217 0.0
C1231 C 0.87534 0.17569 0.5321 0.0
C1232 C 0.89056 0.16821 0.53643 0.0
C1233 C 0.89144 0.15294 0.52873 0.0
C1234 C 0.87686 0.15195 0.52003 0.0
N1235 N 0.84666 0.14769 0.49799 0.0
C1236 C 0.8598 0.13665 0.49835 0.0
C1237 C 0.858 0.12293 0.48832 0.0
C1238 C 0.84272 0.12525 0.48115 0.0
C1239 C 0.83597 0.14024 0.48738 0.0
N1240 N 0.85714 0.18194 0.49082 0.0
C1241 C 0.87678 0.20119 0.46528 0.0
C1242 C 0.88247 0.18549 0.47163 0.0
C1243 C 0.87253 0.17616 0.48424 0.0
C1244 C 0.86069 0.20671 0.47135 0.0
C1245 C 0.85113 0.19693 0.48398 0.0
N1246 N 0.83195 0.1572 0.53017 0.0
C1247 C 0.82712 0.13163 0.54831 0.0
C1248 C 0.81306 0.1389 0.55706 0.0
C1249 C 0.80892 0.15567 0.55232 0.0
C1250 C 0.81835 0.16444 0.53891 0.0
C1251 C 0.83639 0.14098 0.53519 0.0
H1252 H 0.81429 0.17703 0.53582 0.0
H1253 H 0.84697 0.13468 0.52917 0.0
H1254 H 0.87774 0.16444 0.48866 0.0
H1255 H 0.83909 0.20193 0.48826 0.0
C1256 C 0.81574 0.19992 0.51213 0.0
C1257 C 0.81926 0.1467 0.48296 0.0
C1258 C 0.87004 0.19258 0.53768 0.0
C1259 C 0.87322 0.13907 0.50897 0.0
H1260 H 0.78827 0.16501 0.47786 0.0
H1261 H 0.78627 0.19413 0.49362 0.0
H1262 H 0.82331 0.22766 0.53284 0.0
H1263 H 0.85271 0.22325 0.54712 0.0
H1264 H 0.90028 0.17337 0.54403 0.0
H1265 H 0.90177 0.14389 0.52897 0.0
H1266 H 0.86664 0.11237 0.48661 0.0
H1267 H 0.83713 0.11675 0.47244 0.0
H1268 H 0.89466 0.18044 0.46701 0.0
H1269 H 0.85571 0.2188 0.46681 0.0
H1270 H 0.83083 0.11863 0.55126 0.0
H1271 H 0.79842 0.1621 0.5589 0.0
C1272 C 0.23275 0.12101 0.4841 0.0
C1273 C 0.22792 0.13749 0.4787 0.0
C1274 C 0.24312 0.111 0.47327 0.0
C1275 C 0.27372 0.11378 0.43454 0.0
H1276 H 0.26438 0.06521 0.43328 0.0
C1277 C 0.30913 0.07154 0.38442 0.0
C1278 C 0.3131 0.05471 0.38949 0.0
C1279 C 0.29877 0.08162 0.3952 0.0
C1280 C 0.26738 0.07871 0.43359 0.0
H1281 H 0.23019 0.15641 0.45774 0.0
H1282 H 0.2483 0.13904 0.43879 0.0
H1283 H 0.24658 0.08264 0.45213 0.0
H1284 H 0.30947 0.03531 0.4099 0.0
H1285 H 0.29169 0.05287 0.42889 0.0
H1286 H 0.29458 0.10985 0.41609 0.0
C1287 C 0.24423 0.13382 0.45145 0.0
C1288 C 0.2571 0.08876 0.44445 0.0
C1289 C 0.23379 0.14379 0.46226 0.0
C1290 C 0.30655 0.04822 0.40563 0.0
C1291 C 0.29624 0.05829 0.41645 0.0
C1292 C 0.28405 0.10371 0.42372 0.0
C1293 C 0.24904 0.11723 0.45675 0.0
C1294 C 0.26008 0.10647 0.44511 0.0
C1295 C 0.29214 0.07518 0.41143 0.0
C1296 C 0.28107 0.08599 0.42303 0.0
H1297 H 0.22848 0.11587 0.49673 0.0
H1298 H 0.24668 0.09844 0.47797 0.0
H1299 H 0.27665 0.12729 0.43483 0.0
H1300 H 0.31404 0.07689 0.37206 0.0
H1301 H 0.2958 0.09441 0.39067 0.0
C1302 C 0.98402 0.28909 0.3818 0.0
C1303 C 0.97853 0.29918 0.36807 0.0
C1304 C 0.97251 0.2781 0.39129 0.0
C1305 C 0.92657 0.27079 0.40243 0.0
H1306 H 0.9413 0.22557 0.41652 0.0
C1307 C 0.88105 0.22106 0.4392 0.0
C1308 C 0.88789 0.21195 0.45298 0.0
C1309 C 0.89165 0.23134 0.42784 0.0
C1310 C 0.93704 0.2382 0.41279 0.0
H1311 H 0.95702 0.30599 0.35331 0.0
H1312 H 0.93673 0.28664 0.36988 0.0
H1313 H 0.96071 0.24427 0.39856 0.0
H1314 H 0.91114 0.20684 0.46586 0.0
H1315 H 0.92954 0.22467 0.44611 0.0
H1316 H 0.90294 0.26476 0.41686 0.0
C1317 C 0.94986 0.28728 0.37343 0.0
C1318 C 0.94815 0.24891 0.40251 0.0
C1319 C 0.96141 0.29825 0.36391 0.0
C1320 C 0.90552 0.21338 0.45517 0.0
C1321 C 0.91608 0.22362 0.44384 0.0
C1322 C 0.91543 0.26006 0.41275 0.0
C1323 C 0.95531 0.27705 0.3872 0.0
C1324 C 0.94313 0.2654 0.39739 0.0
C1325 C 0.90928 0.2327 0.43004 0.0
C1326 C 0.92063 0.24373 0.41821 0.0
H1327 H 0.99721 0.28974 0.38516 0.0
H1328 H 0.97704 0.27059 0.40198 0.0
H1329 H 0.92238 0.28349 0.39883 0.0
H1330 H 0.86755 0.22009 0.43708 0.0
H1331 H 0.88607 0.23806 0.41723 0.0
C1332 C 0.79871 0.88559 0.49261 0.0
C1333 C 0.80752 0.87178 0.4856 0.0
C1334 C 0.78896 0.89628 0.48234 0.0
C1335 C 0.76801 0.8986 0.44081 0.0
H1336 H 0.76855 0.94727 0.44772 0.0
C1337 C 0.73787 0.94763 0.39406 0.0
C1338 C 0.72898 0.9614 0.40122 0.0
C1339 C 0.7473 0.93654 0.40427 0.0
C1340 C 0.76807 0.93369 0.44572 0.0
H1341 H 0.81306 0.85815 0.46251 0.0
H1342 H 0.79619 0.87686 0.44443 0.0
H1343 H 0.78506 0.9283 0.46557 0.0
H1344 H 0.72333 0.9743 0.42486 0.0
H1345 H 0.73948 0.95489 0.44262 0.0
H1346 H 0.75106 0.90404 0.42089 0.0
C1347 C 0.79656 0.8794 0.45789 0.0
C1348 C 0.77756 0.92277 0.456 0.0
C1349 C 0.8063 0.86871 0.46819 0.0
C1350 C 0.72981 0.96375 0.41889 0.0
C1351 C 0.73928 0.95271 0.42907 0.0
C1352 C 0.75854 0.90953 0.4305 0.0
C1353 C 0.78781 0.8934 0.46479 0.0
C1354 C 0.77766 0.90505 0.45374 0.0
C1355 C 0.74819 0.93895 0.42192 0.0
C1356 C 0.75839 0.92724 0.43282 0.0
H1357 H 0.79942 0.88813 0.50604 0.0
H1358 H 0.78221 0.90672 0.48822 0.0
H1359 H 0.76753 0.88502 0.43882 0.0
H1360 H 0.73742 0.94529 0.38056 0.0
H1361 H 0.7541 0.9262 0.39825 0.0
C1362 C 0.1227 0.78622 0.46941 0.0
C1363 C 0.14012 0.78956 0.46503 0.0
C1364 C 0.11298 0.77669 0.45884 0.0
C1365 C 0.11017 0.7654 0.41462 0.0
H1366 H 0.07932 0.72961 0.4341 0.0
C1367 C 0.06785 0.72583 0.37272 0.0
C1368 C 0.0511 0.72202 0.37941 0.0
C1369 C 0.07976 0.73299 0.38298 0.0
C1370 C 0.08773 0.73969 0.42847 0.0
H1371 H 0.16111 0.78559 0.44628 0.0
H1372 H 0.14395 0.769 0.42755 0.0
H1373 H 0.09835 0.74404 0.45247 0.0
H1374 H 0.03354 0.723 0.40188 0.0
H1375 H 0.05414 0.73584 0.41968 0.0
H1376 H 0.09918 0.76152 0.39075 0.0
C1377 C 0.1379 0.77374 0.43921 0.0
C1378 C 0.09867 0.74787 0.43898 0.0
C1379 C 0.1477 0.78311 0.44993 0.0
C1380 C 0.04644 0.72559 0.39649 0.0
C1381 C 0.05828 0.73288 0.40669 0.0
C1382 C 0.09909 0.75733 0.40412 0.0
C1383 C 0.12045 0.77046 0.4436 0.0
C1384 C 0.10984 0.76093 0.43219 0.0
C1385 C 0.0751 0.73662 0.40008 0.0
C1386 C 0.08759 0.74452 0.41097 0.0
H1387 H 0.1166 0.79093 0.48107 0.0
H1388 H 0.09952 0.77447 0.46244 0.0
H1389 H 0.11855 0.77556 0.40911 0.0
H1390 H 0.07181 0.72303 0.35964 0.0
H1391 H 0.09266 0.73549 0.37755 0.0
C1392 C 0.2132 0.88844 0.57402 0.0
C1393 C 0.21551 0.87072 0.57329 0.0
C1394 C 0.22096 0.89775 0.58624 0.0
C1395 C 0.24236 0.89286 0.62721 0.0
H1396 H 0.25836 0.93894 0.61447 0.0
C1397 C 0.289 0.93301 0.66467 0.0
C1398 C 0.28424 0.94996 0.66732 0.0
C1399 C 0.27936 0.9227 0.65468 0.0
C1400 C 0.25379 0.92615 0.61823 0.0
H1401 H 0.22792 0.84893 0.58496 0.0
H1402 H 0.24225 0.86534 0.60566 0.0
H1403 H 0.24487 0.92214 0.59353 0.0
H1404 H 0.26556 0.96936 0.66207 0.0
H1405 H 0.24884 0.95138 0.6443 0.0
H1406 H 0.25209 0.89685 0.65177 0.0
C1407 C 0.234 0.87197 0.59707 0.0
C1408 C 0.246 0.91651 0.60627 0.0
C1409 C 0.226 0.86259 0.58499 0.0
C1410 C 0.2694 0.95628 0.6603 0.0
C1411 C 0.25993 0.94608 0.65008 0.0
C1412 C 0.25044 0.90244 0.63909 0.0
C1413 C 0.23155 0.88967 0.59787 0.0
C1414 C 0.24008 0.89977 0.61062 0.0
C1415 C 0.26501 0.92931 0.64697 0.0
C1416 C 0.25611 0.91918 0.6347 0.0
H1417 H 0.20548 0.89524 0.56505 0.0
H1418 H 0.21853 0.9113 0.58661 0.0
H1419 H 0.23774 0.88013 0.63111 0.0
H1420 H 0.30039 0.92788 0.67001 0.0
H1421 H 0.28355 0.90983 0.65237 0.0
C1422 C 0.05485 0.27611 0.63298 0.0
C1423 C 0.06086 0.29116 0.63983 0.0
C1424 C 0.06591 0.26589 0.62305 0.0
C1425 C 0.10774 0.26723 0.5971 0.0
H1426 H 0.10335 0.2179 0.60091 0.0
C1427 C 0.14491 0.22344 0.54964 0.0
C1428 C 0.15135 0.20803 0.55625 0.0
C1429 C 0.13402 0.23352 0.55988 0.0
C1430 C 0.10488 0.23166 0.59972 0.0
H1431 H 0.08324 0.30714 0.64189 0.0
H1432 H 0.10261 0.28939 0.62463 0.0
H1433 H 0.08449 0.23533 0.61881 0.0
H1434 H 0.15153 0.19118 0.57883 0.0
H1435 H 0.13256 0.20869 0.59677 0.0
H1436 H 0.12827 0.26356 0.57819 0.0
C1437 C 0.08929 0.28552 0.62668 0.0
C1438 C 0.09388 0.24171 0.6099 0.0
C1439 C 0.07823 0.29568 0.63666 0.0
C1440 C 0.14667 0.20294 0.57336 0.0
C1441 C 0.13572 0.21297 0.5836 0.0
C1442 C 0.11869 0.25719 0.58687 0.0
C1443 C 0.08332 0.27046 0.61965 0.0
C1444 C 0.09512 0.25967 0.60878 0.0
C1445 C 0.1292 0.22845 0.57704 0.0
C1446 C 0.11746 0.23922 0.58801 0.0
H1447 H 0.04151 0.27234 0.63518 0.0
H1448 H 0.06071 0.25456 0.61776 0.0
H1449 H 0.10905 0.28099 0.59567 0.0
H1450 H 0.14827 0.22764 0.53647 0.0
H1451 H 0.12916 0.24519 0.55423 0.0
C1452 C 0.81021 0.11678 0.58143 0.0
C1453 C 0.80259 0.12893 0.57068 0.0
C1454 C 0.80024 0.10682 0.59359 0.0
C1455 C 0.75519 0.09256 0.60425 0.0
H1456 H 0.77324 0.0773 0.64722 0.0
C1457 C 0.71438 0.05692 0.659 0.0
C1458 C 0.72121 0.04137 0.66465 0.0
C1459 C 0.72431 0.06832 0.64822 0.0
C1460 C 0.76809 0.08147 0.63523 0.0
H1461 H 0.77838 0.1402 0.56461 0.0
H1462 H 0.76124 0.12366 0.5864 0.0
H1463 H 0.79043 0.09641 0.62737 0.0
H1464 H 0.74364 0.02549 0.66386 0.0
H1465 H 0.76131 0.04572 0.64535 0.0
H1466 H 0.73267 0.07789 0.61244 0.0
C1467 C 0.77487 0.12141 0.5851 0.0
C1468 C 0.77795 0.09233 0.6238 0.0
C1469 C 0.78479 0.13116 0.57275 0.0
C1470 C 0.73822 0.0375 0.6597 0.0
C1471 C 0.74826 0.04903 0.64918 0.0
C1472 C 0.74524 0.08196 0.61581 0.0
C1473 C 0.78241 0.10894 0.59554 0.0
C1474 C 0.7717 0.0979 0.60807 0.0
C1475 C 0.74133 0.06445 0.64321 0.0
C1476 C 0.75166 0.07621 0.63133 0.0
H1477 H 0.8239 0.11487 0.58046 0.0
H1478 H 0.80654 0.09723 0.60121 0.0
H1479 H 0.75004 0.09624 0.59214 0.0
H1480 H 0.70127 0.06011 0.66273 0.0
H1481 H 0.71873 0.08017 0.64383 0.0
C1482 C 0.96584 0.73039 0.64131 0.0
C1483 C 0.9685 0.71301 0.63824 0.0
C1484 C 0.95527 0.74036 0.63122 0.0
C1485 C 0.92186 0.73697 0.59898 0.0
H1486 H 0.93165 0.78539 0.59149 0.0
C1487 C 0.88911 0.78062 0.54888 0.0
C1488 C 0.88245 0.79596 0.55496 0.0
C1489 C 0.89939 0.77034 0.55902 0.0
C1490 C 0.9287 0.7719 0.59355 0.0
H1491 H 0.9617 0.69267 0.62184 0.0
H1492 H 0.94429 0.71015 0.60373 0.0
H1493 H 0.95019 0.7679 0.60866 0.0
H1494 H 0.88139 0.81264 0.5763 0.0
H1495 H 0.89983 0.79497 0.59384 0.0
H1496 H 0.90068 0.74107 0.58323 0.0
C1497 C 0.94997 0.71605 0.61429 0.0
C1498 C 0.93928 0.76181 0.60352 0.0
C1499 C 0.96031 0.70601 0.62458 0.0
C1500 C 0.88641 0.8009 0.57131 0.0
C1501 C 0.89697 0.79081 0.5813 0.0
C1502 C 0.91148 0.74702 0.58874 0.0
C1503 C 0.9472 0.7334 0.61746 0.0
C1504 C 0.936 0.74417 0.60652 0.0
C1505 C 0.90353 0.77537 0.57531 0.0
C1506 C 0.91471 0.76462 0.58599 0.0
H1507 H 0.97206 0.73649 0.65144 0.0
H1508 H 0.95335 0.75353 0.63439 0.0
H1509 H 0.91856 0.72358 0.60118 0.0
H1510 H 0.88636 0.77659 0.53627 0.0
H1511 H 0.90435 0.75859 0.554 0.0
C1512 C 0.37991 0.31368 0.06059 0.0
C1513 C 0.38459 0.3155 0.04299 0.0
C1514 C 0.39021 0.3045 0.07165 0.0
C1515 C 0.43444 0.28784 0.07477 0.0
H1516 H 0.41326 0.25931 0.11209 0.0
C1517 C 0.47339 0.24033 0.11521 0.0
C1518 C 0.46924 0.23873 0.13298 0.0
C1519 C 0.46314 0.24987 0.1044 0.0
C1520 C 0.41941 0.26736 0.10186 0.0
H1521 H 0.40355 0.30917 0.02306 0.0
H1522 H 0.42151 0.29292 0.04223 0.0
H1523 H 0.39534 0.27542 0.09301 0.0
H1524 H 0.45083 0.24593 0.1532 0.0
H1525 H 0.4331 0.26271 0.13441 0.0
H1526 H 0.4585 0.27968 0.08357 0.0
C1527 C 0.41005 0.29877 0.04765 0.0
C1528 C 0.40911 0.27664 0.09088 0.0
C1529 C 0.39974 0.30798 0.03662 0.0
C1530 C 0.45454 0.24698 0.13962 0.0
C1531 C 0.44424 0.25646 0.12879 0.0
C1532 C 0.44473 0.27852 0.08572 0.0
C1533 C 0.40545 0.29688 0.06535 0.0
C1534 C 0.41646 0.28702 0.07715 0.0
C1535 C 0.44839 0.25805 0.11102 0.0
C1536 C 0.43738 0.26813 0.09942 0.0
H1537 H 0.36829 0.31944 0.06578 0.0
H1538 H 0.38632 0.30357 0.08518 0.0
H1539 H 0.44062 0.2959 0.06456 0.0
H1540 H 0.48469 0.23434 0.10962 0.0
H1541 H 0.46668 0.25064 0.09078 0.0
C1542 C 0.81015 0.45765 0.15266 0.0
C1543 C 0.8114 0.47509 0.14798 0.0
C1544 C 0.8015 0.44651 0.14263 0.0
C1545 C 0.78688 0.44244 0.09916 0.0
H1546 H 0.75483 0.40899 0.12113 0.0
C1547 C 0.73793 0.40681 0.06171 0.0
C1548 C 0.73497 0.38937 0.06587 0.0
C1549 C 0.74797 0.41662 0.07174 0.0
C1550 C 0.76391 0.4181 0.11482 0.0
H1551 H 0.80495 0.49477 0.1294 0.0
H1552 H 0.78971 0.47536 0.11178 0.0
H1553 H 0.77122 0.42733 0.13867 0.0
H1554 H 0.74016 0.36855 0.08386 0.0
H1555 H 0.75797 0.38568 0.10128 0.0
H1556 H 0.77951 0.43332 0.07532 0.0
C1557 C 0.79548 0.4702 0.12307 0.0
C1558 C 0.77328 0.4286 0.12486 0.0
C1559 C 0.80408 0.48131 0.13313 0.0
C1560 C 0.74233 0.38193 0.08026 0.0
C1561 C 0.75237 0.39177 0.09032 0.0
C1562 C 0.77753 0.43194 0.08913 0.0
C1563 C 0.79408 0.45269 0.12772 0.0
C1564 C 0.78473 0.441 0.11712 0.0
C1565 C 0.75531 0.40922 0.08615 0.0
C1566 C 0.76582 0.41978 0.09684 0.0
H1567 H 0.81586 0.45269 0.16407 0.0
H1568 H 0.80077 0.43306 0.14643 0.0
H1569 H 0.79583 0.45168 0.09285 0.0
H1570 H 0.73262 0.41286 0.05057 0.0
H1571 H 0.74983 0.43008 0.06831 0.0
C1572 C 0.61816 0.73878 0.0678 0.0
C1573 C 0.63615 0.73827 0.06785 0.0
C1574 C 0.60853 0.74911 0.07895 0.0
C1575 C 0.61214 0.78676 0.10636 0.0
H1576 H 0.56867 0.76996 0.12736 0.0
C1577 C 0.57457 0.82341 0.15968 0.0
C1578 C 0.55663 0.82337 0.15985 0.0
C1579 C 0.58424 0.81308 0.14855 0.0
C1580 C 0.58067 0.77501 0.12147 0.0
H1581 H 0.65791 0.74838 0.08018 0.0
H1582 H 0.64122 0.76638 0.09942 0.0
H1583 H 0.58536 0.75214 0.10793 0.0
H1584 H 0.5347 0.81263 0.14857 0.0
H1585 H 0.55145 0.79473 0.12898 0.0
H1586 H 0.60743 0.80966 0.11983 0.0
C1587 C 0.63453 0.75893 0.09056 0.0
C1588 C 0.5903 0.76472 0.11027 0.0
C1589 C 0.64416 0.74855 0.07944 0.0
C1590 C 0.54853 0.81282 0.14871 0.0
C1591 C 0.55817 0.80249 0.13757 0.0
C1592 C 0.60249 0.79706 0.11753 0.0
C1593 C 0.61654 0.75937 0.09053 0.0
C1594 C 0.60621 0.77041 0.10252 0.0
C1595 C 0.57622 0.80243 0.13728 0.0
C1596 C 0.58658 0.79138 0.1253 0.0
H1597 H 0.61144 0.73136 0.05892 0.0
H1598 H 0.59476 0.74926 0.07827 0.0
H1599 H 0.62416 0.79177 0.10049 0.0
H1600 H 0.5811 0.83142 0.1682 0.0
H1601 H 0.59804 0.8133 0.14897 0.0
C1602 C 0.23076 0.55699 0.14625 0.0
C1603 C 0.21526 0.56303 0.15345 0.0
C1604 C 0.24174 0.5679 0.136 0.0
C1605 C 0.24281 0.60812 0.10982 0.0
H1606 H 0.29158 0.6067 0.11581 0.0
C1607 C 0.2927 0.64318 0.06299 0.0
C1608 C 0.30619 0.65158 0.07023 0.0
C1609 C 0.28145 0.63255 0.07323 0.0
C1610 C 0.27798 0.60733 0.11407 0.0
H1611 H 0.19891 0.58494 0.1559 0.0
H1612 H 0.2181 0.60418 0.13791 0.0
H1613 H 0.27211 0.58787 0.13363 0.0
H1614 H 0.31854 0.65593 0.0936 0.0
H1615 H 0.29882 0.63728 0.11167 0.0
H1616 H 0.24868 0.62775 0.0904 0.0
C1617 C 0.22173 0.591 0.13998 0.0
C1618 C 0.26686 0.59642 0.12414 0.0
C1619 C 0.21079 0.58008 0.15028 0.0
C1620 C 0.30826 0.64938 0.08783 0.0
C1621 C 0.29704 0.6387 0.09808 0.0
C1622 C 0.25395 0.619 0.0997 0.0
C1623 C 0.23736 0.58504 0.1328 0.0
C1624 C 0.24915 0.59668 0.12211 0.0
C1625 C 0.28351 0.63016 0.09088 0.0
C1626 C 0.27166 0.61872 0.10172 0.0
H1627 H 0.23438 0.54384 0.14863 0.0
H1628 H 0.25358 0.56288 0.13048 0.0
H1629 H 0.22925 0.60853 0.10786 0.0
H1630 H 0.29096 0.64481 0.0494 0.0
H1631 H 0.27127 0.62601 0.06728 0.0
C1632 C 0.37219 0.7204 0.96234 0.0
C1633 C 0.37651 0.71663 0.97917 0.0
C1634 C 0.38291 0.73086 0.95132 0.0
C1635 C 0.41822 0.76282 0.95189 0.0
H1636 H 0.42359 0.75473 0.90332 0.0
C1637 C 0.46929 0.79723 0.90589 0.0
C1638 C 0.46342 0.80424 0.8906 0.0
C1639 C 0.45867 0.78643 0.91662 0.0
C1640 C 0.4221 0.75718 0.91685 0.0
H1641 H 0.39548 0.72008 0.99766 0.0
H1642 H 0.41463 0.73782 0.97828 0.0
H1643 H 0.40539 0.73559 0.92219 0.0
H1644 H 0.44206 0.80574 0.87442 0.0
H1645 H 0.42347 0.78646 0.89306 0.0
H1646 H 0.43528 0.7842 0.94651 0.0
C1647 C 0.40274 0.73326 0.97367 0.0
C1648 C 0.41164 0.74627 0.92766 0.0
C1649 C 0.3919 0.723 0.98472 0.0
C1650 C 0.44682 0.80031 0.88612 0.0
C1651 C 0.43626 0.7893 0.89673 0.0
C1652 C 0.42884 0.77358 0.94111 0.0
C1653 C 0.39829 0.7375 0.95688 0.0
C1654 C 0.40954 0.74897 0.94533 0.0
C1655 C 0.44208 0.78232 0.9121 0.0
C1656 C 0.43084 0.77088 0.92349 0.0
H1657 H 0.36038 0.71548 0.95784 0.0
H1658 H 0.37896 0.73399 0.93858 0.0
H1659 H 0.41665 0.76554 0.96534 0.0
H1660 H 0.48209 0.80016 0.90951 0.0
H1661 H 0.46348 0.78111 0.92834 0.0
C1662 C 0.30389 0.39741 0.96948 0.0
C1663 C 0.31045 0.38175 0.96419 0.0
C1664 C 0.29343 0.40708 0.959 0.0
C1665 C 0.26525 0.40368 0.92289 0.0
H1666 H 0.27151 0.45281 0.91826 0.0
C1667 C 0.22905 0.445 0.87398 0.0
C1668 C 0.2237 0.46125 0.87875 0.0
C1669 C 0.23974 0.43533 0.88423 0.0
C1670 C 0.26939 0.43913 0.91956 0.0
H1671 H 0.31133 0.36395 0.94381 0.0
H1672 H 0.29297 0.38076 0.92547 0.0
H1673 H 0.28972 0.43599 0.93646 0.0
H1674 H 0.225 0.48004 0.89806 0.0
H1675 H 0.24334 0.46311 0.91621 0.0
H1676 H 0.2448 0.40678 0.90617 0.0
C1677 C 0.29577 0.38554 0.93777 0.0
C1678 C 0.27989 0.42946 0.93 0.0
C1679 C 0.30633 0.37593 0.94822 0.0
C1680 C 0.22909 0.46758 0.89405 0.0
C1681 C 0.2397 0.4579 0.90436 0.0
C1682 C 0.25468 0.41335 0.91252 0.0
C1683 C 0.28919 0.40128 0.943 0.0
C1684 C 0.27798 0.41159 0.93182 0.0
C1685 C 0.24523 0.44161 0.89961 0.0
C1686 C 0.25657 0.43124 0.91067 0.0
H1687 H 0.30685 0.40213 0.98177 0.0
H1688 H 0.28845 0.41902 0.96355 0.0
H1689 H 0.26323 0.38998 0.92416 0.0
H1690 H 0.22496 0.4398 0.86228 0.0
H1691 H 0.24385 0.42298 0.87997 0.0
C1692 C 0.5781 0.22224 0.89137 0.0
C1693 C 0.5668 0.23068 0.88071 0.0
C1694 C 0.58857 0.23151 0.90148 0.0
C1695 C 0.60787 0.27392 0.90548 0.0
H1696 H 0.61118 0.25891 0.95299 0.0
C1697 C 0.64018 0.31495 0.954 0.0
C1698 C 0.6501 0.30649 0.96599 0.0
C1699 C 0.63036 0.30567 0.94327 0.0
C1700 C 0.61058 0.26314 0.9397 0.0
H1701 H 0.55762 0.2555 0.87237 0.0
H1702 H 0.57608 0.27169 0.88993 0.0
H1703 H 0.59346 0.24274 0.93477 0.0
H1704 H 0.6575 0.28164 0.97609 0.0
H1705 H 0.64076 0.26546 0.95703 0.0
H1706 H 0.62507 0.29427 0.91035 0.0
C1707 C 0.5769 0.25789 0.89032 0.0
C1708 C 0.60041 0.2539 0.92928 0.0
C1709 C 0.56636 0.24862 0.88025 0.0
C1710 C 0.65014 0.28855 0.96687 0.0
C1711 C 0.64037 0.27927 0.9561 0.0
C1712 C 0.61812 0.28314 0.91588 0.0
C1713 C 0.58804 0.24942 0.9011 0.0
C1714 C 0.59893 0.25921 0.91208 0.0
C1715 C 0.63029 0.28773 0.94425 0.0
C1716 C 0.61957 0.27786 0.93311 0.0
H1717 H 0.57898 0.20846 0.89178 0.0
H1718 H 0.59722 0.22466 0.90948 0.0
H1719 H 0.60712 0.27818 0.8922 0.0
H1720 H 0.64003 0.32876 0.95286 0.0
H1721 H 0.6226 0.31257 0.9344 0.0
C1722 C 0.73172 0.64721 0.95511 0.0
C1723 C 0.72478 0.6415 0.97142 0.0
C1724 C 0.74146 0.63632 0.94463 0.0
C1725 C 0.75213 0.5899 0.93955 0.0
H1726 H 0.78869 0.60873 0.9084 0.0
C1727 C 0.8014 0.54724 0.90272 0.0
C1728 C 0.80568 0.5517 0.88533 0.0
C1729 C 0.79151 0.55809 0.91311 0.0
C1730 C 0.77844 0.60325 0.91692 0.0
H1731 H 0.72311 0.61978 0.98953 0.0
H1732 H 0.74038 0.60102 0.97162 0.0
H1733 H 0.77195 0.62761 0.92668 0.0
H1734 H 0.80294 0.57138 0.86543 0.0
H1735 H 0.78585 0.59032 0.88355 0.0
H1736 H 0.75899 0.56547 0.92998 0.0
C1737 C 0.73792 0.61376 0.96658 0.0
C1738 C 0.76872 0.61413 0.92743 0.0
C1739 C 0.72801 0.62459 0.97697 0.0
C1740 C 0.79983 0.56742 0.8787 0.0
C1741 C 0.79013 0.57837 0.88915 0.0
C1742 C 0.762 0.57901 0.92918 0.0
C1743 C 0.7448 0.61938 0.95017 0.0
C1744 C 0.75533 0.60768 0.93893 0.0
C1745 C 0.78576 0.57386 0.90651 0.0
C1746 C 0.77527 0.58551 0.91766 0.0
H1747 H 0.72934 0.66005 0.95027 0.0
H1748 H 0.74613 0.64119 0.93202 0.0
H1749 H 0.74179 0.58431 0.94787 0.0
H1750 H 0.80553 0.53522 0.90829 0.0
H1751 H 0.78854 0.5542 0.92642 0.0
C1752 C 0.0812 0.3779 0.3065 0.0
C1753 C 0.06425 0.3755 0.30223 0.0
C1754 C 0.09202 0.38942 0.29678 0.0
C1755 C 0.0982 0.41112 0.25432 0.0
H1756 H 0.12553 0.44346 0.27742 0.0
C1757 C 0.14975 0.45499 0.2185 0.0
C1758 C 0.14936 0.47218 0.22275 0.0
C1759 C 0.13978 0.44281 0.22829 0.0
C1760 C 0.11794 0.43453 0.27081 0.0
H1761 H 0.0452 0.38284 0.28461 0.0
H1762 H 0.06416 0.40294 0.26742 0.0
H1763 H 0.10711 0.4228 0.29431 0.0
H1764 H 0.13866 0.49029 0.24042 0.0
H1765 H 0.12127 0.46896 0.25773 0.0
H1766 H 0.10892 0.42294 0.23081 0.0
C1767 C 0.06912 0.39595 0.27822 0.0
C1768 C 0.10752 0.42262 0.28046 0.0
C1769 C 0.05828 0.38456 0.28804 0.0
C1770 C 0.13911 0.47705 0.23701 0.0
C1771 C 0.12926 0.46486 0.2469 0.0
C1772 C 0.10874 0.42292 0.24466 0.0
C1773 C 0.08608 0.39855 0.28255 0.0
C1774 C 0.09747 0.41087 0.27231 0.0
C1775 C 0.12942 0.44764 0.24257 0.0
C1776 C 0.11863 0.43481 0.25282 0.0
H1777 H 0.08602 0.3709 0.31737 0.0
H1778 H 0.10508 0.39105 0.30029 0.0
H1779 H 0.09068 0.40212 0.2477 0.0
H1780 H 0.15769 0.45105 0.20756 0.0
H1781 H 0.14027 0.42961 0.22477 0.0
C1782 C 0.15366 0.56067 0.81268 0.0
C1783 C 0.15092 0.54295 0.81465 0.0
C1784 C 0.14313 0.57078 0.80267 0.0
C1785 C 0.10069 0.57094 0.78367 0.0
H1786 H 0.12106 0.60768 0.75418 0.0
C1787 C 0.06245 0.60733 0.73286 0.0
C1788 C 0.06526 0.62506 0.73033 0.0
C1789 C 0.0728 0.59745 0.74328 0.0
C1790 C 0.11509 0.59762 0.76249 0.0
H1791 H 0.135 0.52187 0.80795 0.0
H1792 H 0.1166 0.53942 0.79036 0.0
H1793 H 0.13909 0.59036 0.77211 0.0
H1794 H 0.08144 0.64616 0.73681 0.0
H1795 H 0.09922 0.62903 0.75519 0.0
H1796 H 0.0767 0.57819 0.77405 0.0
C1797 C 0.12676 0.54562 0.79663 0.0
C1798 C 0.12547 0.58765 0.7728 0.0
C1799 C 0.13733 0.53553 0.80662 0.0
C1800 C 0.07874 0.6326 0.73855 0.0
C1801 C 0.0891 0.62271 0.74896 0.0
C1802 C 0.09032 0.58091 0.77337 0.0
C1803 C 0.12955 0.5634 0.79444 0.0
C1804 C 0.11843 0.57414 0.78354 0.0
C1805 C 0.08628 0.60498 0.75149 0.0
C1806 C 0.09736 0.59439 0.76259 0.0
H1807 H 0.16401 0.56667 0.81886 0.0
H1808 H 0.14554 0.58442 0.80152 0.0
H1809 H 0.09474 0.56085 0.79195 0.0
H1810 H 0.05211 0.60106 0.72694 0.0
H1811 H 0.07032 0.58383 0.74473 0.0
C1812 C 0.37323 0.07258 0.73592 0.0
C1813 C 0.37948 0.05711 0.72983 0.0
C1814 C 0.38425 0.08422 0.74279 0.0
C1815 C 0.43042 0.09494 0.74489 0.0
H1816 H 0.41433 0.11938 0.78473 0.0
C1817 C 0.47512 0.12898 0.78873 0.0
C1818 C 0.4705 0.14546 0.79347 0.0
C1819 C 0.46404 0.11913 0.77981 0.0
C1820 C 0.41892 0.11277 0.77349 0.0
H1821 H 0.40199 0.04149 0.72638 0.0
H1822 H 0.42115 0.06154 0.73879 0.0
H1823 H 0.39482 0.1002 0.77157 0.0
H1824 H 0.4508 0.16462 0.79264 0.0
H1825 H 0.43127 0.14725 0.77715 0.0
H1826 H 0.45471 0.10715 0.74727 0.0
C1827 C 0.40788 0.06498 0.73783 0.0
C1828 C 0.40775 0.10182 0.76591 0.0
C1829 C 0.39691 0.05344 0.73079 0.0
C1830 C 0.45468 0.15199 0.78901 0.0
C1831 C 0.44349 0.14203 0.78029 0.0
C1832 C 0.44164 0.10574 0.75261 0.0
C1833 C 0.4017 0.08053 0.74389 0.0
C1834 C 0.41339 0.09268 0.75157 0.0
C1835 C 0.44806 0.1255 0.77567 0.0
C1836 C 0.436 0.11467 0.76702 0.0
H1837 H 0.35987 0.07577 0.73515 0.0
H1838 H 0.37911 0.09619 0.74708 0.0
H1839 H 0.43511 0.08838 0.73367 0.0
H1840 H 0.48731 0.12373 0.79193 0.0
H1841 H 0.46779 0.10637 0.77649 0.0
C1842 C 0.91134 0.45442 0.78886 0.0
C1843 C 0.89351 0.45187 0.79164 0.0
C1844 C 0.92127 0.44372 0.77835 0.0
C1845 C 0.92105 0.40082 0.75925 0.0
H1846 H 0.95842 0.42004 0.7294 0.0
C1847 C 0.9585 0.36001 0.70925 0.0
C1848 C 0.97617 0.36307 0.70619 0.0
C1849 C 0.94839 0.37083 0.71946 0.0
C1850 C 0.94819 0.41434 0.7378 0.0
H1851 H 0.87234 0.43569 0.78542 0.0
H1852 H 0.88956 0.41723 0.76702 0.0
H1853 H 0.94108 0.43865 0.74744 0.0
H1854 H 0.99709 0.37992 0.71128 0.0
H1855 H 0.97963 0.39872 0.72927 0.0
H1856 H 0.9282 0.3765 0.74972 0.0
C1857 C 0.89592 0.42747 0.77308 0.0
C1858 C 0.93818 0.42509 0.74819 0.0
C1859 C 0.88597 0.43823 0.78353 0.0
C1860 C 0.98349 0.37728 0.71343 0.0
C1861 C 0.97341 0.38811 0.72366 0.0
C1862 C 0.93109 0.39006 0.7489 0.0
C1863 C 0.91375 0.43003 0.7703 0.0
C1864 C 0.92443 0.41852 0.75911 0.0
C1865 C 0.95567 0.38507 0.7269 0.0
C1866 C 0.94485 0.39662 0.73797 0.0
H1867 H 0.91766 0.46485 0.79467 0.0
H1868 H 0.93494 0.44607 0.77673 0.0
H1869 H 0.91079 0.39516 0.76764 0.0
H1870 H 0.95251 0.34921 0.70371 0.0
H1871 H 0.9348 0.36813 0.72132 0.0
C1872 C 0.62701 0.96864 0.74253 0.0
C1873 C 0.64354 0.96285 0.73821 0.0
C1874 C 0.61546 0.95833 0.75278 0.0
C1875 C 0.61325 0.92231 0.78449 0.0
H1876 H 0.56652 0.91752 0.77152 0.0
C1877 C 0.56593 0.8728 0.81816 0.0
C1878 C 0.5489 0.8778 0.82104 0.0
C1879 C 0.57754 0.88327 0.80815 0.0
C1880 C 0.57946 0.91889 0.77546 0.0
H1881 H 0.66114 0.942 0.74097 0.0
H1882 H 0.64096 0.92388 0.75906 0.0
H1883 H 0.5867 0.93578 0.75393 0.0
H1884 H 0.5305 0.89748 0.81615 0.0
H1885 H 0.55085 0.91609 0.79894 0.0
H1886 H 0.60601 0.90557 0.80609 0.0
C1887 C 0.63694 0.9364 0.75465 0.0
C1888 C 0.59101 0.92933 0.76536 0.0
C1889 C 0.64844 0.94668 0.74429 0.0
C1890 C 0.54362 0.89344 0.81397 0.0
C1891 C 0.55523 0.90397 0.80405 0.0
C1892 C 0.60167 0.91194 0.79465 0.0
C1893 C 0.62032 0.94211 0.75895 0.0
C1894 C 0.60803 0.93112 0.76975 0.0
C1895 C 0.57233 0.89898 0.80097 0.0
C1896 C 0.58464 0.91009 0.79024 0.0
H1897 H 0.62307 0.98113 0.73793 0.0
H1898 H 0.6028 0.96313 0.75603 0.0
H1899 H 0.62624 0.92363 0.7883 0.0
H1900 H 0.57018 0.86074 0.82355 0.0
H1901 H 0.59054 0.87894 0.80585 0.0
C1902 C 0.92894 0.64936 0.29483 0.0
C1903 C 0.94551 0.65411 0.28826 0.0
C1904 C 0.91823 0.63987 0.28517 0.0
C1905 C 0.91203 0.62622 0.24129 0.0
H1906 H 0.88772 0.58804 0.26529 0.0
C1907 C 0.86528 0.58277 0.20822 0.0
C1908 C 0.86655 0.56523 0.21201 0.0
C1909 C 0.87404 0.59446 0.21755 0.0
C1910 C 0.89448 0.5986 0.2584 0.0
H1911 H 0.96374 0.65295 0.26631 0.0
H1912 H 0.94506 0.63627 0.24943 0.0
H1913 H 0.90473 0.60726 0.28119 0.0
H1914 H 0.87763 0.54587 0.22821 0.0
H1915 H 0.89315 0.56625 0.24452 0.0
H1916 H 0.9022 0.61718 0.21839 0.0
C1917 C 0.94026 0.64009 0.26196 0.0
C1918 C 0.90405 0.60975 0.26753 0.0
C1919 C 0.95097 0.64963 0.27162 0.0
C1920 C 0.87651 0.55943 0.22523 0.0
C1921 C 0.88527 0.57108 0.23456 0.0
C1922 C 0.90244 0.61505 0.23214 0.0
C1923 C 0.92387 0.63488 0.26874 0.0
C1924 C 0.91304 0.62361 0.25907 0.0
C1925 C 0.88415 0.58873 0.23081 0.0
C1926 C 0.8937 0.60104 0.24058 0.0
H1927 H 0.9243 0.65289 0.30752 0.0
H1928 H 0.90555 0.63633 0.29061 0.0
H1929 H 0.91869 0.63687 0.23444 0.0
H1930 H 0.85757 0.58738 0.19803 0.0
H1931 H 0.87278 0.60798 0.21449 0.0
C1932 C 0.38068 0.96027 0.31253 0.0
C1933 C 0.38593 0.9768 0.31636 0.0
C1934 C 0.39127 0.95001 0.30218 0.0
C1935 C 0.42997 0.95207 0.27096 0.0
H1936 H 0.4296 0.90303 0.27969 0.0
C1937 C 0.47995 0.90785 0.23743 0.0
C1938 C 0.47406 0.89213 0.23192 0.0
C1939 C 0.4692 0.91814 0.24758 0.0
C1940 C 0.42977 0.91669 0.27694 0.0
H1941 H 0.4065 0.99545 0.31246 0.0
H1942 H 0.42523 0.97751 0.29486 0.0
H1943 H 0.41119 0.92082 0.2976 0.0
H1944 H 0.45218 0.87498 0.2326 0.0
H1945 H 0.43342 0.89278 0.25049 0.0
H1946 H 0.44878 0.94788 0.25045 0.0
C1947 C 0.41275 0.97249 0.29943 0.0
C1948 C 0.41912 0.92696 0.28723 0.0
C1949 C 0.40208 0.98279 0.30967 0.0
C1950 C 0.45713 0.88695 0.2368 0.0
C1951 C 0.44641 0.89715 0.24709 0.0
C1952 C 0.44071 0.9418 0.26076 0.0
C1953 C 0.40754 0.95591 0.29546 0.0
C1954 C 0.41899 0.94486 0.28442 0.0
C1955 C 0.45226 0.91295 0.25263 0.0
C1956 C 0.44077 0.92393 0.26356 0.0
H1957 H 0.36831 0.9553 0.31754 0.0
H1958 H 0.38656 0.93749 0.2993 0.0
H1959 H 0.43011 0.9657 0.26805 0.0
H1960 H 0.49294 0.91216 0.23388 0.0
H1961 H 0.47427 0.93009 0.2517 0.0
C1962 C 0.63741 0.08089 0.32014 0.0
C1963 C 0.64845 0.06875 0.31279 0.0
C1964 C 0.62757 0.09149 0.30989 0.0
C1965 C 0.6245 0.10871 0.26522 0.0
H1966 H 0.57729 0.11699 0.28022 0.0
C1967 C 0.57756 0.14199 0.2205 0.0
C1968 C 0.56528 0.15306 0.22767 0.0
C1969 C 0.58788 0.13211 0.23094 0.0
C1970 C 0.59051 0.11505 0.27591 0.0
H1971 H 0.65756 0.05836 0.28866 0.0
H1972 H 0.64058 0.07692 0.27085 0.0
H1973 H 0.59493 0.09928 0.2982 0.0
H1974 H 0.55436 0.16224 0.25169 0.0
H1975 H 0.57262 0.14544 0.26981 0.0
H1976 H 0.62015 0.12453 0.24297 0.0
C1977 C 0.63968 0.07836 0.28457 0.0
C1978 C 0.60065 0.10484 0.28624 0.0
C1979 C 0.64947 0.0677 0.29483 0.0
C1980 C 0.56375 0.15404 0.24563 0.0
C1981 C 0.57411 0.14418 0.25607 0.0
C1982 C 0.61439 0.11899 0.25491 0.0
C1983 C 0.62851 0.09035 0.29196 0.0
C1984 C 0.61778 0.10147 0.28103 0.0
C1985 C 0.5863 0.13301 0.2489 0.0
C1986 C 0.59721 0.12227 0.26006 0.0
H1987 H 0.63646 0.08234 0.33386 0.0
H1988 H 0.61934 0.10075 0.31602 0.0
H1989 H 0.6377 0.10664 0.26088 0.0
H1990 H 0.57933 0.14101 0.20675 0.0
H1991 H 0.59694 0.12356 0.22488 0.0
C1992 C 0.74743 0.94039 0.67991 0.0
C1993 C 0.72974 0.93948 0.67785 0.0
C1994 C 0.7584 0.92833 0.67273 0.0
C1995 C 0.75926 0.88665 0.65139 0.0
H1996 H 0.79979 0.90642 0.62676 0.0
C1997 C 0.79177 0.85913 0.591 0.0
C1998 C 0.80975 0.85946 0.5889 0.0
C1999 C 0.78337 0.86639 0.60511 0.0
C2000 C 0.78871 0.90062 0.63383 0.0
H2001 H 0.7096 0.92453 0.66759 0.0
H2002 H 0.72874 0.90398 0.65445 0.0
H2003 H 0.78247 0.92381 0.64594 0.0
H2004 H 0.83299 0.86697 0.60049 0.0
H2005 H 0.81822 0.88009 0.62493 0.0
H2006 H 0.76511 0.86371 0.6384 0.0
C2007 C 0.73417 0.91384 0.66182 0.0
C2008 C 0.77878 0.91057 0.64488 0.0
C2009 C 0.7232 0.9258 0.66912 0.0
C2010 C 0.81913 0.86679 0.60153 0.0
C2011 C 0.8107 0.87421 0.61557 0.0
C2012 C 0.76911 0.87674 0.6402 0.0
C2013 C 0.75195 0.91517 0.66321 0.0
C2014 C 0.76371 0.90383 0.65347 0.0
C2015 C 0.79275 0.87427 0.61735 0.0
C2016 C 0.7837 0.88378 0.63103 0.0
H2017 H 0.75292 0.95081 0.68647 0.0
H2018 H 0.772 0.92958 0.67426 0.0
H2019 H 0.74791 0.88096 0.65807 0.0
H2020 H 0.78411 0.85387 0.58141 0.0
H2021 H 0.76951 0.86651 0.60602 0.0
C2022 C 0.13087 0.78522 0.55502 0.0
C2023 C 0.14567 0.79299 0.56044 0.0
C2024 C 0.12091 0.77427 0.56624 0.0
C2025 C 0.11266 0.76222 0.61248 0.0
H2026 H 0.09101 0.72249 0.59481 0.0
C2027 C 0.0781 0.70897 0.65578 0.0
C2028 C 0.06186 0.70414 0.65094 0.0
C2029 C 0.08868 0.71976 0.64492 0.0
C2030 C 0.09691 0.7336 0.59989 0.0
H2031 H 0.16182 0.79562 0.58158 0.0
H2032 H 0.14477 0.77599 0.60115 0.0
H2033 H 0.10905 0.74129 0.57551 0.0
H2034 H 0.0439 0.70637 0.63112 0.0
H2035 H 0.0625 0.72505 0.61193 0.0
H2036 H 0.10069 0.75422 0.63695 0.0
C2037 C 0.14058 0.77858 0.5884 0.0
C2038 C 0.10719 0.74442 0.58883 0.0
C2039 C 0.15042 0.78968 0.57721 0.0
C2040 C 0.05641 0.71001 0.63505 0.0
C2041 C 0.06704 0.7206 0.6241 0.0
C2042 C 0.10253 0.75127 0.62357 0.0
C2043 C 0.12567 0.77074 0.58306 0.0
C2044 C 0.11509 0.75896 0.59495 0.0
C2045 C 0.08326 0.72561 0.62896 0.0
C2046 C 0.09445 0.73693 0.61734 0.0
H2047 H 0.127 0.78771 0.54212 0.0
H2048 H 0.10937 0.76875 0.56177 0.0
H2049 H 0.11831 0.77342 0.61761 0.0
H2050 H 0.08257 0.70439 0.66794 0.0
H2051 H 0.10119 0.72331 0.64889 0.0
C2052 C 0.2159 0.11704 0.58651 0.0
C2053 C 0.22417 0.13027 0.57631 0.0
C2054 C 0.22516 0.10663 0.5974 0.0
C2055 C 0.2638 0.10506 0.6209 0.0
H2056 H 0.26062 0.05601 0.6169 0.0
C2057 C 0.3093 0.05955 0.6547 0.0
C2058 C 0.30247 0.04393 0.66148 0.0
C2059 C 0.29971 0.07003 0.6442 0.0
C2060 C 0.26147 0.06965 0.6184 0.0
H2061 H 0.24873 0.14283 0.56963 0.0
H2062 H 0.26464 0.12504 0.58908 0.0
H2063 H 0.24327 0.07471 0.59958 0.0
H2064 H 0.28049 0.02687 0.66296 0.0
H2065 H 0.26337 0.0454 0.64516 0.0
H2066 H 0.28164 0.10013 0.63997 0.0
C2067 C 0.251 0.12279 0.58861 0.0
C2068 C 0.25157 0.08033 0.60844 0.0
C2069 C 0.24183 0.13303 0.57754 0.0
C2070 C 0.28596 0.03888 0.6577 0.0
C2071 C 0.27627 0.04944 0.64742 0.0
C2072 C 0.27352 0.09438 0.63105 0.0
C2073 C 0.24278 0.10941 0.59848 0.0
C2074 C 0.25273 0.09811 0.60954 0.0
C2075 C 0.283 0.06517 0.64057 0.0
C2076 C 0.27256 0.07654 0.62985 0.0
H2077 H 0.20228 0.11471 0.58613 0.0
H2078 H 0.21853 0.09645 0.60505 0.0
H2079 H 0.26478 0.11875 0.62205 0.0
H2080 H 0.32201 0.06365 0.65759 0.0
H2081 H 0.30542 0.08191 0.63892 0.0
C2082 C 0.88775 0.21904 0.54186 0.0
C2083 C 0.88137 0.20299 0.54815 0.0
C2084 C 0.89794 0.22902 0.55179 0.0
C2085 C 0.92762 0.22657 0.58607 0.0
H2086 H 0.91584 0.27366 0.59356 0.0
C2087 C 0.96467 0.26673 0.63258 0.0
C2088 C 0.96634 0.28457 0.62962 0.0
C2089 C 0.95419 0.25689 0.62282 0.0
C2090 C 0.91962 0.26066 0.59141 0.0
H2091 H 0.88067 0.18484 0.56981 0.0
H2092 H 0.89909 0.20195 0.58691 0.0
H2093 H 0.89837 0.25651 0.57595 0.0
H2094 H 0.95776 0.30577 0.61371 0.0
H2095 H 0.94061 0.28865 0.59613 0.0
H2096 H 0.94922 0.23069 0.60081 0.0
C2097 C 0.89608 0.20687 0.57433 0.0
C2098 C 0.90945 0.25078 0.58135 0.0
C2099 C 0.88556 0.19707 0.56455 0.0
C2100 C 0.95719 0.29212 0.61638 0.0
C2101 C 0.94697 0.28222 0.6064 0.0
C2102 C 0.93801 0.23653 0.59582 0.0
C2103 C 0.90231 0.22302 0.56812 0.0
C2104 C 0.91326 0.23359 0.57864 0.0
C2105 C 0.94521 0.26441 0.60945 0.0
C2106 C 0.93416 0.25376 0.59878 0.0
H2107 H 0.88475 0.22391 0.52925 0.0
H2108 H 0.90262 0.24135 0.54659 0.0
H2109 H 0.93101 0.21342 0.58407 0.0
H2110 H 0.97162 0.26019 0.64235 0.0
H2111 H 0.95308 0.24333 0.62596 0.0
C2112 C 0.72795 0.07232 0.38512 0.0
C2113 C 0.72307 0.05555 0.3905 0.0
C2114 C 0.73821 0.08218 0.39508 0.0
C2115 C 0.76756 0.07848 0.43108 0.0
H2116 H 0.76118 0.12738 0.43236 0.0
C2117 C 0.80132 0.12046 0.47872 0.0
C2118 C 0.80803 0.13636 0.47238 0.0
C2119 C 0.79099 0.11065 0.46878 0.0
C2120 C 0.76326 0.11376 0.43204 0.0
H2121 H 0.7248 0.03606 0.41067 0.0
H2122 H 0.74227 0.05331 0.42836 0.0
H2123 H 0.74304 0.11035 0.41528 0.0
H2124 H 0.80926 0.15441 0.45065 0.0
H2125 H 0.79106 0.13742 0.4333 0.0
H2126 H 0.78763 0.08193 0.44808 0.0
C2127 C 0.73862 0.05881 0.41623 0.0
C2128 C 0.75284 0.10394 0.42217 0.0
C2129 C 0.72846 0.04893 0.40618 0.0
C2130 C 0.80414 0.14226 0.45589 0.0
C2131 C 0.79368 0.13253 0.446 0.0
C2132 C 0.77787 0.08828 0.44106 0.0
C2133 C 0.74375 0.0756 0.41082 0.0
C2134 C 0.75483 0.08612 0.42148 0.0
C2135 C 0.78698 0.11655 0.45227 0.0
C2136 C 0.7759 0.10608 0.44166 0.0
H2137 H 0.72389 0.07775 0.3731 0.0
H2138 H 0.74201 0.0949 0.39027 0.0
H2139 H 0.7698 0.0649 0.43071 0.0
H2140 H 0.8041 0.11563 0.4914 0.0
H2141 H 0.78594 0.09851 0.47413 0.0
C2142 C 0.96282 0.74251 0.36779 0.0
C2143 C 0.95569 0.73064 0.35737 0.0
C2144 C 0.95236 0.7541 0.37635 0.0
C2145 C 0.90808 0.75863 0.39331 0.0
H2146 H 0.92359 0.80444 0.40198 0.0
C2147 C 0.86947 0.80164 0.4389 0.0
C2148 C 0.87915 0.80868 0.45146 0.0
C2149 C 0.87759 0.79438 0.42462 0.0
C2150 C 0.91909 0.79169 0.39963 0.0
H2151 H 0.93247 0.72155 0.34706 0.0
H2152 H 0.91398 0.74202 0.36193 0.0
H2153 H 0.94012 0.78744 0.38154 0.0
H2154 H 0.90494 0.81395 0.45865 0.0
H2155 H 0.91905 0.80141 0.43369 0.0
H2156 H 0.88732 0.7627 0.41172 0.0
C2157 C 0.92758 0.7423 0.36368 0.0
C2158 C 0.92855 0.78196 0.38797 0.0
C2159 C 0.93809 0.73069 0.35515 0.0
C2160 C 0.8971 0.80886 0.4491 0.0
C2161 C 0.9052 0.80168 0.43479 0.0
C2162 C 0.8986 0.76839 0.40491 0.0
C2163 C 0.93459 0.75398 0.37457 0.0
C2164 C 0.92338 0.76516 0.38503 0.0
C2165 C 0.89553 0.79412 0.42256 0.0
C2166 C 0.90425 0.78483 0.40851 0.0
H2167 H 0.97642 0.74252 0.36963 0.0
H2168 H 0.95811 0.76272 0.38486 0.0
H2169 H 0.90387 0.74567 0.3915 0.0
H2170 H 0.85562 0.80159 0.4402 0.0
H2171 H 0.86984 0.78879 0.41527 0.0
C2172 C 0.30348 0.96145 0.41352 0.0
C2173 C 0.30693 0.959 0.39595 0.0
C2174 C 0.29243 0.95032 0.42344 0.0
C2175 C 0.27244 0.90729 0.42441 0.0
H2176 H 0.23945 0.92663 0.45699 0.0
C2177 C 0.21735 0.86713 0.45889 0.0
C2178 C 0.2142 0.86953 0.47645 0.0
C2179 C 0.22847 0.87818 0.44897 0.0
C2180 C 0.24869 0.92102 0.44807 0.0
H2181 H 0.30184 0.94264 0.37515 0.0
H2182 H 0.28232 0.9234 0.39239 0.0
H2183 H 0.25969 0.94539 0.44004 0.0
H2184 H 0.21971 0.88524 0.4975 0.0
H2185 H 0.23926 0.90466 0.48019 0.0
H2186 H 0.2614 0.88293 0.43242 0.0
C2187 C 0.28826 0.93386 0.39853 0.0
C2188 C 0.26031 0.93176 0.43837 0.0
C2189 C 0.29931 0.94498 0.38861 0.0
C2190 C 0.222 0.88327 0.48393 0.0
C2191 C 0.2331 0.89436 0.47401 0.0
C2192 C 0.2608 0.89656 0.43409 0.0
C2193 C 0.28457 0.93648 0.41603 0.0
C2194 C 0.27233 0.92502 0.42644 0.0
C2195 C 0.23657 0.89185 0.45644 0.0
C2196 C 0.2488 0.9033 0.44603 0.0
H2197 H 0.309 0.97221 0.41954 0.0
H2198 H 0.29003 0.95257 0.43693 0.0
H2199 H 0.28169 0.90167 0.4155 0.0
H2200 H 0.21134 0.85658 0.45295 0.0
H2201 H 0.23069 0.87605 0.43543 0.0
C2202 C 0.16273 0.23235 0.45658 0.0
C2203 C 0.16054 0.21452 0.45711 0.0
C2204 C 0.15483 0.24257 0.44447 0.0
C2205 C 0.1329 0.24162 0.40396 0.0
H2206 H 0.11051 0.28183 0.42134 0.0
C2207 C 0.07941 0.27715 0.3702 0.0
C2208 C 0.07942 0.29506 0.37045 0.0
C2209 C 0.09126 0.26776 0.37915 0.0
C2210 C 0.11691 0.27081 0.4162 0.0
H2211 H 0.14891 0.19337 0.44488 0.0
H2212 H 0.13466 0.21126 0.42408 0.0
H2213 H 0.12773 0.26456 0.43998 0.0
H2214 H 0.09238 0.31722 0.37949 0.0
H2215 H 0.11299 0.30078 0.39523 0.0
H2216 H 0.12159 0.24772 0.38028 0.0
C2217 C 0.14267 0.21733 0.43289 0.0
C2218 C 0.1268 0.26091 0.42688 0.0
C2219 C 0.15065 0.20709 0.44496 0.0
C2220 C 0.09185 0.30341 0.37935 0.0
C2221 C 0.10367 0.29402 0.38832 0.0
C2222 C 0.12292 0.25151 0.39328 0.0
C2223 C 0.14447 0.23519 0.43269 0.0
C2224 C 0.1348 0.24614 0.42092 0.0
C2225 C 0.10331 0.2761 0.38853 0.0
C2226 C 0.11474 0.26613 0.39936 0.0
H2227 H 0.17013 0.23851 0.46585 0.0
H2228 H 0.15665 0.25628 0.44449 0.0
H2229 H 0.13909 0.23043 0.39894 0.0
H2230 H 0.06987 0.27035 0.36361 0.0
H2231 H 0.09056 0.25394 0.37927 0.0
C2232 C 0.6505 0.71937 0.9561 0.0
C2233 C 0.64704 0.71787 0.97388 0.0
C2234 C 0.63989 0.72912 0.94596 0.0
C2235 C 0.60871 0.76389 0.94881 0.0
H2236 H 0.59543 0.74839 0.90511 0.0
C2237 C 0.55572 0.79612 0.91223 0.0
C2238 C 0.55881 0.79903 0.89446 0.0
C2239 C 0.56684 0.7862 0.92154 0.0
C2240 C 0.5992 0.75295 0.91721 0.0
H2241 H 0.62989 0.72471 0.99518 0.0
H2242 H 0.61108 0.74157 0.97748 0.0
H2243 H 0.61411 0.73078 0.92217 0.0
H2244 H 0.57603 0.79388 0.87251 0.0
H2245 H 0.59547 0.77642 0.88883 0.0
H2246 H 0.59371 0.78598 0.94394 0.0
C2247 C 0.62211 0.73558 0.97134 0.0
C2248 C 0.60988 0.74289 0.92696 0.0
C2249 C 0.63274 0.72588 0.98144 0.0
C2250 C 0.57321 0.7917 0.88617 0.0
C2251 C 0.58433 0.78172 0.89549 0.0
C2252 C 0.59801 0.77391 0.9391 0.0
C2253 C 0.62567 0.73744 0.95351 0.0
C2254 C 0.61465 0.74821 0.94292 0.0
C2255 C 0.58127 0.77893 0.91327 0.0
C2256 C 0.59306 0.76849 0.92326 0.0
H2257 H 0.66151 0.71318 0.95013 0.0
H2258 H 0.64302 0.73043 0.93229 0.0
H2259 H 0.61244 0.7685 0.9609 0.0
H2260 H 0.54454 0.80129 0.91894 0.0
H2261 H 0.56401 0.78401 0.93519 0.0
C2262 C 0.29436 0.64554 0.96203 0.0
C2263 C 0.29939 0.63916 0.97799 0.0
C2264 C 0.28522 0.6352 0.95149 0.0
C2265 C 0.25689 0.59717 0.95242 0.0
H2266 H 0.27084 0.59555 0.90411 0.0
C2267 C 0.22653 0.54829 0.90929 0.0
C2268 C 0.22474 0.55287 0.89194 0.0
C2269 C 0.23553 0.55889 0.91969 0.0
C2270 C 0.26651 0.59601 0.9175 0.0
H2271 H 0.29841 0.61692 0.99547 0.0
H2272 H 0.28229 0.59897 0.9772 0.0
H2273 H 0.28632 0.61401 0.92227 0.0
H2274 H 0.23077 0.57244 0.87204 0.0
H2275 H 0.24594 0.59118 0.89018 0.0
H2276 H 0.23684 0.57957 0.94771 0.0
C2277 C 0.2855 0.61196 0.97279 0.0
C2278 C 0.27549 0.60659 0.92794 0.0
C2279 C 0.29486 0.62222 0.98321 0.0
C2280 C 0.23207 0.56842 0.8853 0.0
C2281 C 0.24087 0.57915 0.89575 0.0
C2282 C 0.24775 0.58677 0.94194 0.0
C2283 C 0.28063 0.61828 0.95675 0.0
C2284 C 0.27086 0.60724 0.94556 0.0
C2285 C 0.24283 0.57454 0.91312 0.0
C2286 C 0.25245 0.58592 0.9243 0.0
H2287 H 0.29773 0.65848 0.95755 0.0
H2288 H 0.28158 0.64051 0.93927 0.0
H2289 H 0.25283 0.59754 0.96589 0.0
H2290 H 0.22126 0.53629 0.91478 0.0
H2291 H 0.23698 0.5546 0.93284 0.0
C2292 C 0.37988 0.298 0.93402 0.0
C2293 C 0.38737 0.30649 0.94718 0.0
C2294 C 0.38943 0.28663 0.92414 0.0
C2295 C 0.42707 0.25928 0.92585 0.0
H2296 H 0.42587 0.25976 0.87638 0.0
C2297 C 0.47679 0.22482 0.8832 0.0
C2298 C 0.47116 0.21674 0.86895 0.0
C2299 C 0.46557 0.23474 0.89298 0.0
C2300 C 0.42613 0.2593 0.89021 0.0
H2301 H 0.41071 0.30982 0.96024 0.0
H2302 H 0.42741 0.29021 0.94283 0.0
H2303 H 0.40816 0.27958 0.89273 0.0
H2304 H 0.44965 0.21213 0.8537 0.0
H2305 H 0.42976 0.22944 0.87096 0.0
H2306 H 0.44508 0.2391 0.92338 0.0
C2307 C 0.41414 0.29222 0.94026 0.0
C2308 C 0.41603 0.27066 0.89955 0.0
C2309 C 0.40464 0.30362 0.95007 0.0
C2310 C 0.45413 0.21837 0.8647 0.0
C2311 C 0.44287 0.22831 0.87448 0.0
C2312 C 0.43712 0.24791 0.91653 0.0
C2313 C 0.40658 0.28347 0.92733 0.0
C2314 C 0.41659 0.27091 0.91743 0.0
C2315 C 0.44853 0.23671 0.88865 0.0
C2316 C 0.43693 0.24795 0.8986 0.0
H2317 H 0.36662 0.30007 0.93145 0.0
H2318 H 0.38327 0.28 0.91428 0.0
H2319 H 0.4275 0.25897 0.93966 0.0
H2320 H 0.48996 0.2237 0.88654 0.0
H2321 H 0.47038 0.24124 0.90366 0.0
C2322 C 0.72864 0.37535 0.95372 0.0
C2323 C 0.72538 0.38097 0.97036 0.0
C2324 C 0.73906 0.38508 0.94174 0.0
C2325 C 0.77211 0.41956 0.93894 0.0
H2326 H 0.7624 0.42207 0.89093 0.0
C2327 C 0.80739 0.46628 0.88937 0.0
C2328 C 0.8132 0.45942 0.87383 0.0
C2329 C 0.79648 0.45674 0.90103 0.0
C2330 C 0.76532 0.42137 0.90429 0.0
H2331 H 0.72987 0.40113 0.98759 0.0
H2332 H 0.74764 0.41852 0.96656 0.0
H2333 H 0.74331 0.40566 0.91152 0.0
H2334 H 0.81256 0.43735 0.85822 0.0
H2335 H 0.79314 0.42064 0.87854 0.0
H2336 H 0.79396 0.43553 0.93167 0.0
C2337 C 0.74261 0.40641 0.9628 0.0
C2338 C 0.75443 0.41194 0.91609 0.0
C2339 C 0.73234 0.39659 0.9748 0.0
C2340 C 0.808 0.4429 0.87008 0.0
C2341 C 0.79692 0.43341 0.88166 0.0
C2342 C 0.78289 0.42912 0.92717 0.0
C2343 C 0.74625 0.40071 0.94615 0.0
C2344 C 0.7577 0.41089 0.93357 0.0
C2345 C 0.79111 0.44023 0.89728 0.0
C2346 C 0.77962 0.43009 0.90973 0.0
H2347 H 0.72333 0.36331 0.9501 0.0
H2348 H 0.74174 0.38017 0.92914 0.0
H2349 H 0.77525 0.41877 0.95222 0.0
H2350 H 0.81133 0.47901 0.89247 0.0
H2351 H 0.79209 0.46235 0.91291 0.0
C2352 C 0.66012 0.30772 0.07718 0.0
C2353 C 0.65614 0.31232 0.0604 0.0
C2354 C 0.649 0.2971 0.08762 0.0
C2355 C 0.60411 0.28325 0.09373 0.0
H2356 H 0.62178 0.24454 0.11923 0.0
C2357 C 0.55904 0.2336 0.13 0.0
C2358 C 0.56375 0.22718 0.14598 0.0
C2359 C 0.57055 0.2436 0.11938 0.0
C2360 C 0.61665 0.25542 0.11238 0.0
H2361 H 0.63757 0.30987 0.04133 0.0
H2362 H 0.61792 0.29143 0.05967 0.0
H2363 H 0.64143 0.26312 0.10129 0.0
H2364 H 0.58405 0.22574 0.16342 0.0
H2365 H 0.60412 0.24368 0.14514 0.0
H2366 H 0.57942 0.27587 0.105 0.0
C2367 C 0.62962 0.29595 0.06475 0.0
C2368 C 0.62791 0.26602 0.10208 0.0
C2369 C 0.64082 0.3064 0.05426 0.0
C2370 C 0.58021 0.23066 0.15113 0.0
C2371 C 0.59168 0.24081 0.14059 0.0
C2372 C 0.59288 0.27276 0.10415 0.0
C2373 C 0.63362 0.29114 0.08152 0.0
C2374 C 0.62174 0.28 0.09261 0.0
C2375 C 0.58696 0.24749 0.12461 0.0
C2376 C 0.59898 0.25866 0.11356 0.0
H2377 H 0.67182 0.31234 0.08216 0.0
H2378 H 0.6523 0.29375 0.10056 0.0
H2379 H 0.59904 0.29408 0.08674 0.0
H2380 H 0.5464 0.23094 0.1258 0.0
H2381 H 0.56658 0.24823 0.10704 0.0
C2382 C 0.78754 0.5853 0.14744 0.0
C2383 C 0.79542 0.57147 0.13941 0.0
C2384 C 0.77762 0.59664 0.13822 0.0
C2385 C 0.75304 0.59968 0.09987 0.0
H2386 H 0.7574 0.64856 0.10463 0.0
C2387 C 0.72157 0.64775 0.05489 0.0
C2388 C 0.71342 0.6616 0.06245 0.0
C2389 C 0.73184 0.63712 0.06446 0.0
C2390 C 0.75592 0.63493 0.10332 0.0
H2391 H 0.79904 0.55859 0.11549 0.0
H2392 H 0.78191 0.57853 0.09932 0.0
H2393 H 0.77486 0.62915 0.12116 0.0
H2394 H 0.70935 0.67553 0.08557 0.0
H2395 H 0.72731 0.65679 0.10256 0.0
H2396 H 0.73411 0.6054 0.08208 0.0
C2397 C 0.7833 0.58053 0.11277 0.0
C2398 C 0.76591 0.62384 0.11276 0.0
C2399 C 0.79324 0.56923 0.12197 0.0
C2400 C 0.7157 0.66489 0.0796 0.0
C2401 C 0.72598 0.65424 0.08921 0.0
C2402 C 0.74306 0.61075 0.09045 0.0
C2403 C 0.77536 0.59431 0.12081 0.0
C2404 C 0.76461 0.60611 0.11105 0.0
C2405 C 0.73404 0.64017 0.08175 0.0
C2406 C 0.74447 0.62849 0.092 0.0
H2407 H 0.78914 0.58742 0.16083 0.0
H2408 H 0.77154 0.60708 0.14476 0.0
H2409 H 0.75156 0.58606 0.09853 0.0
H2410 H 0.71987 0.64513 0.04162 0.0
H2411 H 0.73808 0.62653 0.0583 0.0
C2412 C 0.37702 0.73921 0.08637 0.0
C2413 C 0.38464 0.73109 0.07216 0.0
C2414 C 0.38678 0.74954 0.09638 0.0
C2415 C 0.43183 0.7587 0.10658 0.0
H2416 H 0.41228 0.79955 0.12553 0.0
C2417 C 0.46674 0.79746 0.15572 0.0
C2418 C 0.46579 0.8154 0.15462 0.0
C2419 C 0.45673 0.78731 0.14579 0.0
C2420 C 0.41804 0.78827 0.12024 0.0
H2421 H 0.40859 0.72794 0.0572 0.0
H2422 H 0.42552 0.74595 0.07449 0.0
H2423 H 0.39535 0.78201 0.10777 0.0
H2424 H 0.45318 0.83659 0.14216 0.0
H2425 H 0.4361 0.81898 0.12461 0.0
H2426 H 0.45465 0.76516 0.11869 0.0
C2427 C 0.41204 0.74406 0.07817 0.0
C2428 C 0.40821 0.77804 0.1102 0.0
C2429 C 0.40229 0.7337 0.0682 0.0
C2430 C 0.45445 0.82286 0.14328 0.0
C2431 C 0.44445 0.8127 0.13333 0.0
C2432 C 0.44166 0.76892 0.1166 0.0
C2433 C 0.40446 0.75212 0.09245 0.0
C2434 C 0.41495 0.76309 0.1032 0.0
C2435 C 0.44546 0.79476 0.13439 0.0
C2436 C 0.43493 0.78387 0.12362 0.0
H2437 H 0.36353 0.73733 0.09 0.0
H2438 H 0.38048 0.75526 0.1074 0.0
H2439 H 0.43746 0.74721 0.10164 0.0
H2440 H 0.47543 0.79118 0.16409 0.0
H2441 H 0.45777 0.77357 0.14718 0.0
C2442 C 0.3205 0.39527 0.07532 0.0
C2443 C 0.31137 0.38525 0.06443 0.0
C2444 C 0.31185 0.40423 0.08819 0.0
C2445 C 0.27065 0.40636 0.11352 0.0
H2446 H 0.28198 0.45446 0.11578 0.0
C2447 C 0.22425 0.45432 0.14375 0.0
C2448 C 0.2309 0.46768 0.15283 0.0
C2449 C 0.23519 0.44319 0.13512 0.0
C2450 C 0.27886 0.44098 0.11556 0.0
H2451 H 0.28601 0.37677 0.05855 0.0
H2452 H 0.27098 0.39225 0.08108 0.0
H2453 H 0.29933 0.4367 0.09686 0.0
H2454 H 0.25425 0.47971 0.1602 0.0
H2455 H 0.27338 0.46002 0.14538 0.0
H2456 H 0.25 0.41069 0.13199 0.0
C2457 C 0.28483 0.39299 0.0798 0.0
C2458 C 0.28879 0.43082 0.10472 0.0
C2459 C 0.29345 0.38413 0.0669 0.0
C2460 C 0.24874 0.46945 0.15341 0.0
C2461 C 0.25969 0.45829 0.14479 0.0
C2462 C 0.26076 0.4165 0.12441 0.0
C2463 C 0.29393 0.40324 0.09047 0.0
C2464 C 0.28456 0.4135 0.10333 0.0
C2465 C 0.25302 0.44515 0.13543 0.0
C2466 C 0.26455 0.434 0.12528 0.0
H2467 H 0.33434 0.39618 0.07391 0.0
H2468 H 0.31917 0.41192 0.09636 0.0
H2469 H 0.26728 0.39298 0.11288 0.0
H2470 H 0.21056 0.45249 0.14325 0.0
H2471 H 0.22965 0.43332 0.12785 0.0
C2472 C 0.8873 0.56285 0.80897 0.0
C2473 C 0.88496 0.54572 0.80516 0.0
C2474 C 0.89806 0.57355 0.79822 0.0
C2475 C 0.91739 0.57805 0.75404 0.0
H2476 H 0.94863 0.60945 0.77355 0.0
C2477 C 0.95558 0.63054 0.71333 0.0
C2478 C 0.97272 0.63292 0.71695 0.0
C2479 C 0.94482 0.61978 0.724 0.0
C2480 C 0.94005 0.60067 0.76791 0.0
H2481 H 0.89168 0.52615 0.78738 0.0
H2482 H 0.91061 0.5448 0.76851 0.0
H2483 H 0.93007 0.59071 0.79247 0.0
H2484 H 0.99222 0.62626 0.7343 0.0
H2485 H 0.97347 0.60731 0.75302 0.0
H2486 H 0.92754 0.58785 0.72948 0.0
C2487 C 0.9041 0.55006 0.77969 0.0
C2488 C 0.92929 0.59008 0.77875 0.0
C2489 C 0.8934 0.53938 0.79048 0.0
C2490 C 0.979 0.6245 0.73134 0.0
C2491 C 0.96826 0.61379 0.74205 0.0
C2492 C 0.9281 0.5887 0.74321 0.0
C2493 C 0.90654 0.56727 0.78344 0.0
C2494 C 0.91787 0.57862 0.77193 0.0
C2495 C 0.95103 0.61134 0.73853 0.0
C2496 C 0.93958 0.6001 0.75002 0.0
H2497 H 0.88074 0.56794 0.82021 0.0
H2498 H 0.89951 0.58679 0.80133 0.0
H2499 H 0.90861 0.56948 0.74841 0.0
H2500 H 0.95053 0.63711 0.70233 0.0
H2501 H 0.93157 0.61831 0.72107 0.0
C2502 C 0.89983 0.47387 0.22644 0.0
C2503 C 0.88352 0.46866 0.22214 0.0
C2504 C 0.90989 0.46285 0.23583 0.0
C2505 C 0.90754 0.42377 0.26414 0.0
H2506 H 0.95651 0.42348 0.25291 0.0
C2507 C 0.95345 0.37409 0.29239 0.0
C2508 C 0.96836 0.38094 0.29864 0.0
C2509 C 0.94263 0.38453 0.28319 0.0
C2510 C 0.94287 0.42352 0.25622 0.0
H2511 H 0.8649 0.44791 0.22408 0.0
H2512 H 0.88265 0.42842 0.24017 0.0
H2513 H 0.93847 0.44205 0.23626 0.0
H2514 H 0.98378 0.4039 0.30013 0.0
H2515 H 0.9649 0.42213 0.28394 0.0
H2516 H 0.91205 0.40494 0.28395 0.0
C2517 C 0.88754 0.44114 0.23664 0.0
C2518 C 0.93253 0.43419 0.24676 0.0
C2519 C 0.8774 0.45225 0.22739 0.0
C2520 C 0.97227 0.39836 0.29557 0.0
C2521 C 0.96158 0.40873 0.28621 0.0
C2522 C 0.91788 0.41295 0.2735 0.0
C2523 C 0.90391 0.44632 0.24095 0.0
C2524 C 0.91477 0.43456 0.25071 0.0
C2525 C 0.94671 0.40189 0.2799 0.0
C2526 C 0.93564 0.41288 0.26971 0.0
H2527 H 0.90472 0.48657 0.22274 0.0
H2528 H 0.92229 0.46737 0.23924 0.0
H2529 H 0.89394 0.42391 0.26767 0.0
H2530 H 0.95015 0.3607 0.29469 0.0
H2531 H 0.93126 0.37897 0.27837 0.0
C2532 C 0.65728 0.95892 0.3209 0.0
C2533 C 0.65401 0.97619 0.32364 0.0
C2534 C 0.64688 0.9495 0.31067 0.0
C2535 C 0.61573 0.95462 0.2768 0.0
H2536 H 0.60357 0.9076 0.28989 0.0
C2537 C 0.56566 0.91661 0.24136 0.0
C2538 C 0.56837 0.89911 0.23904 0.0
C2539 C 0.57614 0.92596 0.25157 0.0
C2540 C 0.607 0.92064 0.28587 0.0
H2541 H 0.63725 0.99715 0.3181 0.0
H2542 H 0.61895 0.98077 0.30031 0.0
H2543 H 0.62159 0.92382 0.30781 0.0
H2544 H 0.58465 0.87792 0.24552 0.0
H2545 H 0.60294 0.89417 0.26316 0.0
H2546 H 0.60123 0.95145 0.25483 0.0
C2547 C 0.62968 0.97448 0.30582 0.0
C2548 C 0.61736 0.92999 0.29621 0.0
C2549 C 0.64007 0.98386 0.31609 0.0
C2550 C 0.58196 0.89128 0.24718 0.0
C2551 C 0.59247 0.90064 0.25736 0.0
C2552 C 0.60541 0.94527 0.26644 0.0
C2553 C 0.63293 0.95715 0.30292 0.0
C2554 C 0.62188 0.94714 0.29185 0.0
C2555 C 0.58971 0.91813 0.25977 0.0
C2556 C 0.60085 0.92812 0.27081 0.0
H2557 H 0.66796 0.95274 0.32662 0.0
H2558 H 0.64994 0.93628 0.30862 0.0
H2559 H 0.61914 0.96769 0.27283 0.0
H2560 H 0.55518 0.92306 0.23557 0.0
H2561 H 0.57336 0.9393 0.2533 0.0
C2562 C 0.1297 0.56589 0.24694 0.0
C2563 C 0.12913 0.56559 0.22903 0.0
C2564 C 0.11781 0.57519 0.25661 0.0
C2565 C 0.08632 0.60989 0.25243 0.0
H2566 H 0.07057 0.59333 0.29823 0.0
C2567 C 0.03202 0.64154 0.29215 0.0
C2568 C 0.03673 0.64664 0.30817 0.0
C2569 C 0.04239 0.63051 0.28273 0.0
C2570 C 0.07491 0.59806 0.28546 0.0
H2571 H 0.11551 0.57496 0.2073 0.0
H2572 H 0.09423 0.59038 0.22423 0.0
H2573 H 0.09029 0.57617 0.28092 0.0
H2574 H 0.05551 0.64417 0.32719 0.0
H2575 H 0.0735 0.6243 0.31088 0.0
H2576 H 0.07054 0.63158 0.25693 0.0
C2577 C 0.10417 0.58379 0.23078 0.0
C2578 C 0.08628 0.58833 0.27557 0.0
C2579 C 0.11624 0.57471 0.22107 0.0
C2580 C 0.05161 0.64017 0.31493 0.0
C2581 C 0.06184 0.62888 0.30564 0.0
C2582 C 0.07474 0.61944 0.2622 0.0
C2583 C 0.10485 0.58421 0.24867 0.0
C2584 C 0.09226 0.59421 0.25898 0.0
C2585 C 0.05745 0.62424 0.28933 0.0
C2586 C 0.06907 0.61366 0.27882 0.0
H2587 H 0.13925 0.55879 0.25357 0.0
H2588 H 0.11892 0.57542 0.27031 0.0
H2589 H 0.09089 0.61501 0.23987 0.0
H2590 H 0.02058 0.6465 0.28676 0.0
H2591 H 0.03875 0.62701 0.27021 0.0
C2592 C 0.45529 0.1663 0.21976 0.0
C2593 C 0.4727 0.16278 0.21671 0.0
C2594 C 0.44502 0.15583 0.23121 0.0
C2595 C 0.44742 0.12397 0.26723 0.0
H2596 H 0.40146 0.11185 0.25597 0.0
C2597 C 0.40032 0.08589 0.31487 0.0
C2598 C 0.39049 0.07303 0.30804 0.0
C2599 C 0.41004 0.09744 0.30403 0.0
C2600 C 0.4143 0.11504 0.25926 0.0
H2601 H 0.49313 0.14567 0.22273 0.0
H2602 H 0.47517 0.1271 0.24258 0.0
H2603 H 0.41919 0.13052 0.23626 0.0
H2604 H 0.38342 0.06203 0.28449 0.0
H2605 H 0.40038 0.0821 0.26562 0.0
H2606 H 0.44269 0.10811 0.29001 0.0
C2607 C 0.46946 0.1381 0.23647 0.0
C2608 C 0.42439 0.1259 0.24806 0.0
C2609 C 0.47971 0.14859 0.22505 0.0
C2610 C 0.3906 0.07199 0.29015 0.0
C2611 C 0.40032 0.0835 0.27933 0.0
C2612 C 0.43732 0.1131 0.27844 0.0
C2613 C 0.452 0.14162 0.23972 0.0
C2614 C 0.44111 0.13042 0.25185 0.0
C2615 C 0.41017 0.09636 0.28613 0.0
C2616 C 0.42068 0.10842 0.27453 0.0
H2617 H 0.4497 0.17721 0.21336 0.0
H2618 H 0.43167 0.159 0.23355 0.0
H2619 H 0.46016 0.12737 0.27064 0.0
H2620 H 0.40035 0.08715 0.32859 0.0
H2621 H 0.41732 0.10734 0.30967 0.0
C2622 C 0.07745 0.36076 0.72864 0.0
C2623 C 0.06786 0.36846 0.7158 0.0
C2624 C 0.08732 0.37066 0.73895 0.0
C2625 C 0.11035 0.41148 0.74008 0.0
H2626 H 0.10465 0.40522 0.7895 0.0
C2627 C 0.14365 0.45724 0.78435 0.0
C2628 C 0.14815 0.45108 0.80055 0.0
C2629 C 0.13402 0.44711 0.77406 0.0
C2630 C 0.10675 0.407 0.77574 0.0
H2631 H 0.06138 0.39303 0.70414 0.0
H2632 H 0.07921 0.41001 0.72151 0.0
H2633 H 0.08817 0.38752 0.77151 0.0
H2634 H 0.14638 0.42926 0.81848 0.0
H2635 H 0.13037 0.41125 0.80033 0.0
H2636 H 0.12935 0.43043 0.74406 0.0
C2637 C 0.07893 0.39626 0.72359 0.0
C2638 C 0.09715 0.39686 0.76542 0.0
C2639 C 0.06877 0.38642 0.71351 0.0
C2640 C 0.14297 0.43443 0.80612 0.0
C2641 C 0.13364 0.42415 0.79569 0.0
C2642 C 0.12023 0.42138 0.75037 0.0
C2643 C 0.08823 0.38851 0.73651 0.0
C2644 C 0.09874 0.39905 0.74747 0.0
C2645 C 0.12887 0.43033 0.77949 0.0
C2646 C 0.11853 0.41943 0.76842 0.0
H2647 H 0.07754 0.34703 0.7307 0.0
H2648 H 0.0945 0.36429 0.74868 0.0
H2649 H 0.11201 0.41335 0.72628 0.0
H2650 H 0.14726 0.4701 0.77978 0.0
H2651 H 0.13038 0.45264 0.76195 0.0
C2652 C 0.57803 0.15864 0.79792 0.0
C2653 C 0.56046 0.15633 0.802 0.0
C2654 C 0.58669 0.14762 0.78692 0.0
C2655 C 0.58394 0.10438 0.77105 0.0
H2656 H 0.61868 0.12136 0.73678 0.0
C2657 C 0.62001 0.05917 0.72596 0.0
C2658 C 0.63788 0.06141 0.7245 0.0
C2659 C 0.6096 0.07156 0.73336 0.0
C2660 C 0.60906 0.11644 0.74634 0.0
H2661 H 0.53799 0.14106 0.79812 0.0
H2662 H 0.55308 0.12172 0.77874 0.0
H2663 H 0.6023 0.14149 0.75403 0.0
H2664 H 0.65879 0.07875 0.72878 0.0
H2665 H 0.64066 0.10023 0.74199 0.0
H2666 H 0.59087 0.07934 0.76364 0.0
C2667 C 0.56022 0.13192 0.78406 0.0
C2668 C 0.59971 0.12795 0.75622 0.0
C2669 C 0.55159 0.14295 0.79503 0.0
C2670 C 0.64507 0.07658 0.72995 0.0
C2671 C 0.63467 0.08897 0.73734 0.0
C2672 C 0.59328 0.09288 0.76119 0.0
C2673 C 0.57788 0.1341 0.77993 0.0
C2674 C 0.58719 0.12202 0.7688 0.0
C2675 C 0.61686 0.08644 0.73942 0.0
C2676 C 0.60606 0.09878 0.74886 0.0
H2677 H 0.58502 0.16887 0.80335 0.0
H2678 H 0.60033 0.14946 0.78418 0.0
H2679 H 0.57454 0.09941 0.78081 0.0
H2680 H 0.6141 0.04757 0.72196 0.0
H2681 H 0.59588 0.06937 0.73461 0.0
C2682 C 0.43487 0.87388 0.81132 0.0
C2683 C 0.44888 0.88227 0.81778 0.0
C2684 C 0.42271 0.88314 0.80268 0.0
C2685 C 0.40605 0.92666 0.79633 0.0
H2686 H 0.39124 0.90979 0.75374 0.0
C2687 C 0.37363 0.96917 0.74668 0.0
C2688 C 0.36009 0.96204 0.73844 0.0
C2689 C 0.38306 0.95898 0.75755 0.0
C2690 C 0.39505 0.91454 0.76575 0.0
H2691 H 0.46123 0.90688 0.82011 0.0
H2692 H 0.44004 0.92304 0.805 0.0
H2693 H 0.41039 0.89268 0.77064 0.0
H2694 H 0.34544 0.93908 0.73489 0.0
H2695 H 0.36192 0.92107 0.75408 0.0
H2696 H 0.39095 0.94866 0.79126 0.0
C2697 C 0.43828 0.90935 0.80688 0.0
C2698 C 0.406 0.90475 0.77542 0.0
C2699 C 0.45043 0.9001 0.81552 0.0
C2700 C 0.3559 0.9447 0.74123 0.0
C2701 C 0.36535 0.93447 0.75209 0.0
C2702 C 0.39511 0.93646 0.78665 0.0
C2703 C 0.42433 0.90097 0.80033 0.0
C2704 C 0.41179 0.91082 0.79069 0.0
C2705 C 0.37909 0.9415 0.76028 0.0
C2706 C 0.38968 0.93059 0.77116 0.0
H2707 H 0.43323 0.86016 0.81309 0.0
H2708 H 0.41197 0.87637 0.79794 0.0
H2709 H 0.41007 0.93153 0.8082 0.0
H2710 H 0.37702 0.98257 0.74451 0.0
H2711 H 0.39373 0.9647 0.76348 0.0
loop_
_geom_bond_atom_site_label_1
_geom_bond_atom_site_label_2
_geom_bond_distance
_geom_bond_site_symmetry_2
_ccdc_geom_bond_type
C0 C1 1.443 . S
C0 N4 1.376 1_565 S
C0 C38 1.389 . S
C1 C0 1.443 . S
C1 C2 1.330 1_565 S
C1 H41 0.951 . S
C2 C1 1.330 1_545 S
C2 C3 1.449 . S
C2 H42 0.950 . S
C3 C2 1.449 . S
C3 N4 1.374 . S
C3 C37 1.395 . S
N4 C0 1.376 1_545 S
N4 C3 1.374 . S
N4 Co5 2.008 . S
Co5 N4 2.008 . S
Co5 N6 1.995 . S
Co5 N11 2.008 . S
Co5 N16 1.995 . S
Co5 N21 2.282 1_545 S
Co5 N27 2.282 . S
N6 Co5 1.995 . S
N6 C7 1.376 . S
N6 C10 1.383 . S
C7 N6 1.376 . S
C7 C8 1.446 . S
C7 C37 1.391 . S
C8 C7 1.446 . S
C8 C9 1.339 . S
C8 H43 0.949 . S
C9 C8 1.339 . S
C9 C10 1.439 . S
C9 H44 0.950 . S
C10 N6 1.383 . S
C10 C9 1.439 . S
C10 C39 1.392 . S
N11 Co5 2.008 . S
N11 C12 1.376 . S
N11 C15 1.374 . S
C12 N11 1.376 . S
C12 C13 1.443 . S
C12 C39 1.389 . S
C13 C12 1.443 . S
C13 C14 1.340 . S
C13 H45 0.951 . S
C14 C13 1.340 . S
C14 C15 1.439 . S
C14 H46 0.950 . S
C15 N11 1.374 . S
C15 C14 1.439 . S
C15 C40 1.395 . S
N16 Co5 1.995 . S
N16 C17 1.376 . S
N16 C20 1.383 1_545 S
C17 N16 1.376 . S
C17 C18 1.446 1_545 S
C17 C40 1.391 . S
C18 C17 1.446 1_565 S
C18 C19 1.339 . S
C18 H47 0.949 . S
C19 C18 1.339 . S
C19 C20 1.439 . S
C19 H48 0.950 . S
C20 N16 1.383 1_565 S
C20 C19 1.439 . S
C20 C38 1.392 . S
N21 Co5 2.282 1_565 S
N21 C24 1.332 . S
N21 C26 1.332 . S
C22 C23 1.386 . S
C22 C25 1.388 . S
C23 C22 1.386 . S
C23 C24 1.382 . S
C23 H49 0.950 . S
C24 N21 1.332 . S
C24 C23 1.382 . S
C24 H35 0.952 . S
C25 C22 1.388 . S
C25 C26 1.382 . S
C25 H50 0.950 . S
C26 N21 1.332 . S
C26 C25 1.382 . S
C26 H36 0.948 . S
N27 Co5 2.282 . S
N27 C31 1.332 . S
N27 C32 1.332 . S
C28 C29 1.388 . S
C28 C32 1.382 . S
C28 H51 0.950 . S
C29 C28 1.388 . S
C29 C30 1.386 . S
C30 C29 1.386 . S
C30 C31 1.382 . S
C30 H52 0.950 . S
C31 N27 1.332 . S
C31 C30 1.382 . S
C31 H33 0.952 . S
C32 N27 1.332 . S
C32 C28 1.382 . S
C32 H34 0.948 . S
H33 C31 0.952 . S
H34 C32 0.948 . S
H35 C24 0.952 . S
H36 C26 0.948 . S
C37 C3 1.395 . S
C37 C7 1.391 . S
C38 C0 1.389 . S
C38 C20 1.392 . S
C39 C10 1.392 . S
C39 C12 1.389 . S
C40 C15 1.395 . S
C40 C17 1.391 . S
H41 C1 0.951 . S
H42 C2 0.950 . S
H43 C8 0.949 . S
H44 C9 0.950 . S
H45 C13 0.951 . S
H46 C14 0.950 . S
H47 C18 0.949 . S
H48 C19 0.950 . S
H49 C23 0.950 . S
H50 C25 0.950 . S
H51 C28 0.950 . S
H52 C30 0.950 . S
C53 C54 1.443 . S
C53 N57 1.376 . S
C53 C91 1.389 . S
C54 C53 1.443 . S
C54 C55 1.340 . S
C54 H94 0.951 . S
C55 C54 1.340 . S
C55 C56 1.439 . S
C55 H95 0.950 . S
C56 C55 1.439 . S
C56 N57 1.374 . S
C56 C90 1.395 . S
N57 C53 1.376 . S
N57 C56 1.374 . S
N57 Co58 2.008 . S
Co58 N57 2.008 . S
Co58 N59 1.995 . S
Co58 N64 2.008 . S
Co58 N69 1.995 . S
Co58 N74 2.282 . S
Co58 N80 2.282 1_455 S
N59 Co58 1.995 . S
N59 C60 1.376 . S
N59 C63 1.383 1_455 S
C60 N59 1.376 . S
C60 C61 1.446 1_455 S
C60 C90 1.391 . S
C61 C60 1.446 1_655 S
C61 C62 1.339 . S
C61 H96 0.949 . S
C62 C61 1.339 . S
C62 C63 1.439 . S
C62 H97 0.950 . S
C63 N59 1.383 1_655 S
C63 C62 1.439 . S
C63 C92 1.392 . S
N64 Co58 2.008 . S
N64 C65 1.376 1_455 S
N64 C68 1.374 . S
C65 N64 1.376 1_655 S
C65 C66 1.443 . S
C65 C92 1.389 . S
C66 C65 1.443 . S
C66 C67 1.340 1_655 S
C66 H98 0.951 . S
C67 C66 1.340 1_455 S
C67 C68 1.439 . S
C67 H99 0.950 . S
C68 N64 1.374 . S
C68 C67 1.439 . S
C68 C93 1.395 . S
N69 Co58 1.995 . S
N69 C70 1.376 . S
N69 C73 1.383 . S
C70 N69 1.376 . S
C70 C71 1.446 . S
C70 C93 1.391 . S
C71 C70 1.446 . S
C71 C72 1.339 . S
C71 H100 0.949 . S
C72 C71 1.339 . S
C72 C73 1.439 . S
C72 H101 0.950 . S
C73 N69 1.383 . S
C73 C72 1.439 . S
C73 C91 1.392 . S
N74 Co58 2.282 . S
N74 C77 1.332 . S
N74 C79 1.332 . S
C75 C76 1.386 . S
C75 C78 1.388 . S
C76 C75 1.386 . S
C76 C77 1.382 . S
C76 H102 0.950 . S
C77 N74 1.332 . S
C77 C76 1.382 . S
C77 H88 0.952 . S
C78 C75 1.388 . S
C78 C79 1.382 . S
C78 H103 0.950 . S
C79 N74 1.332 . S
C79 C78 1.382 . S
C79 H89 0.948 . S
N80 Co58 2.282 1_655 S
N80 C84 1.332 . S
N80 C85 1.332 . S
C81 C82 1.388 . S
C81 C85 1.382 . S
C81 H104 0.950 . S
C82 C81 1.388 . S
C82 C83 1.386 . S
C83 C82 1.386 . S
C83 C84 1.382 . S
C83 H105 0.950 . S
C84 N80 1.332 . S
C84 C83 1.382 . S
C84 H86 0.952 . S
C85 N80 1.332 . S
C85 C81 1.382 . S
C85 H87 0.948 1_655 S
H86 C84 0.952 . S
H87 C85 0.948 1_455 S
H88 C77 0.952 . S
H89 C79 0.948 . S
C90 C56 1.395 . S
C90 C60 1.391 . S
C91 C53 1.389 . S
C91 C73 1.392 . S
C92 C63 1.392 . S
C92 C65 1.389 . S
C93 C68 1.395 . S
C93 C70 1.391 . S
H94 C54 0.951 . S
H95 C55 0.950 . S
H96 C61 0.949 . S
H97 C62 0.950 . S
H98 C66 0.951 . S
H99 C67 0.950 . S
H100 C71 0.949 . S
H101 C72 0.950 . S
H102 C76 0.950 . S
H103 C78 0.950 . S
H104 C81 0.950 . S
H105 C83 0.950 . S
C106 C107 1.443 . S
C106 N110 1.376 1_565 S
C106 C144 1.389 . S
C107 C106 1.443 . S
C107 C108 1.336 1_565 S
C107 H147 0.951 . S
C108 C107 1.336 1_545 S
C108 C109 1.443 . S
C108 H148 0.951 . S
C109 C108 1.443 . S
C109 N110 1.374 . S
C109 C143 1.395 . S
N110 C106 1.376 1_545 S
N110 C109 1.374 . S
N110 Co111 2.008 . S
Co111 N110 2.008 . S
Co111 N112 1.995 . S
Co111 N117 2.008 . S
Co111 N122 1.995 . S
Co111 N127 2.282 1_545 S
Co111 N133 2.282 . S
N112 Co111 1.995 . S
N112 C113 1.376 . S
N112 C116 1.383 . S
C113 N112 1.376 . S
C113 C114 1.446 . S
C113 C143 1.391 . S
C114 C113 1.446 . S
C114 C115 1.339 . S
C114 H149 0.949 . S
C115 C114 1.339 . S
C115 C116 1.439 . S
C115 H150 0.950 . S
C116 N112 1.383 . S
C116 C115 1.439 . S
C116 C145 1.392 . S
N117 Co111 2.008 . S
N117 C118 1.376 . S
N117 C121 1.374 . S
C118 N117 1.376 . S
C118 C119 1.443 . S
C118 C145 1.389 . S
C119 C118 1.443 . S
C119 C120 1.340 . S
C119 H151 0.951 . S
C120 C119 1.340 . S
C120 C121 1.439 . S
C120 H152 0.950 . S
C121 N117 1.374 . S
C121 C120 1.439 . S
C121 C146 1.395 . S
N122 Co111 1.995 . S
N122 C123 1.375 . S
N122 C126 1.383 1_545 S
C123 N122 1.375 . S
C123 C124 1.414 1_545 S
C123 C146 1.425 . S
C124 C123 1.414 1_565 S
C124 C125 1.339 . S
C124 H153 0.949 . S
C125 C124 1.339 . S
C125 C126 1.439 . S
C125 H154 0.950 . S
C126 N122 1.383 1_565 S
C126 C125 1.439 . S
C126 C144 1.392 . S
N127 Co111 2.282 1_565 S
N127 C130 1.332 . S
N127 C132 1.332 . S
C128 C129 1.386 . S
C128 C131 1.388 . S
C129 C128 1.386 . S
C129 C130 1.382 . S
C129 H155 0.950 . S
C130 N127 1.332 . S
C130 C129 1.382 . S
C130 H141 0.952 . S
C131 C128 1.388 . S
C131 C132 1.382 . S
C131 H156 0.950 . S
C132 N127 1.332 . S
C132 C131 1.382 . S
C132 H142 0.948 . S
N133 Co111 2.282 . S
N133 C137 1.332 . S
N133 C138 1.332 . S
C134 C135 1.388 . S
C134 C138 1.382 . S
C134 H157 0.950 . S
C135 C134 1.388 . S
C135 C136 1.386 . S
C136 C135 1.386 . S
C136 C137 1.382 . S
C136 H158 0.950 . S
C137 N133 1.332 . S
C137 C136 1.382 . S
C137 H139 0.952 . S
C138 N133 1.332 . S
C138 C134 1.382 . S
C138 H140 0.948 . S
H139 C137 0.952 . S
H140 C138 0.948 . S
H141 C130 0.952 . S
H142 C132 0.948 . S
C143 C109 1.395 . S
C143 C113 1.391 . S
C144 C106 1.389 . S
C144 C126 1.392 . S
C145 C116 1.392 . S
C145 C118 1.389 . S
C146 C121 1.395 . S
C146 C123 1.425 . S
H147 C107 0.951 . S
H148 C108 0.951 . S
H149 C114 0.949 . S
H150 C115 0.950 . S
H151 C119 0.951 . S
H152 C120 0.950 . S
H153 C124 0.949 . S
H154 C125 0.950 . S
H155 C129 0.950 . S
H156 C131 0.950 . S
H157 C134 0.950 . S
H158 C136 0.950 . S
C159 C160 1.443 . S
C159 N163 1.376 . S
C159 C197 1.389 . S
C160 C159 1.443 . S
C160 C161 1.340 . S
C160 H200 0.951 . S
C161 C160 1.340 . S
C161 C162 1.439 . S
C161 H201 0.950 . S
C162 C161 1.439 . S
C162 N163 1.374 . S
C162 C196 1.395 1_655 S
N163 C159 1.376 . S
N163 C162 1.374 . S
N163 Co164 2.002 1_655 S
Co164 N163 2.002 1_455 S
Co164 N165 2.002 . S
Co164 N170 2.014 . S
Co164 N175 1.987 1_455 S
Co164 N180 2.272 1_455 S
Co164 N186 2.293 . S
N165 Co164 2.002 . S
N165 C166 1.376 . S
N165 C169 1.383 . S
C166 N165 1.376 . S
C166 C167 1.446 . S
C166 C196 1.391 . S
C167 C166 1.446 . S
C167 C168 1.339 . S
C167 H202 0.949 . S
C168 C167 1.339 . S
C168 C169 1.439 . S
C168 H203 0.950 . S
C169 N165 1.383 . S
C169 C168 1.439 . S
C169 C198 1.392 . S
N170 Co164 2.014 . S
N170 C171 1.376 . S
N170 C174 1.374 . S
C171 N170 1.376 . S
C171 C172 1.443 . S
C171 C198 1.389 . S
C172 C171 1.443 . S
C172 C173 1.340 . S
C172 H204 0.951 . S
C173 C172 1.340 . S
C173 C174 1.439 . S
C173 H205 0.950 . S
C174 N170 1.374 . S
C174 C173 1.439 . S
C174 C199 1.395 1_455 S
N175 Co164 1.987 1_655 S
N175 C176 1.376 . S
N175 C179 1.383 . S
C176 N175 1.376 . S
C176 C177 1.446 . S
C176 C199 1.391 . S
C177 C176 1.446 . S
C177 C178 1.339 . S
C177 H206 0.949 . S
C178 C177 1.339 . S
C178 C179 1.439 . S
C178 H207 0.950 . S
C179 N175 1.383 . S
C179 C178 1.439 . S
C179 C197 1.392 . S
N180 Co164 2.272 1_655 S
N180 C183 1.332 . S
N180 C185 1.332 . S
C181 C182 1.386 . S
C181 C184 1.388 . S
C182 C181 1.386 . S
C182 C183 1.382 . S
C182 H208 0.950 . S
C183 N180 1.332 . S
C183 C182 1.382 . S
C183 H194 0.952 . S
C184 C181 1.388 . S
C184 C185 1.382 . S
C184 H209 0.950 . S
C185 N180 1.332 . S
C185 C184 1.382 . S
C185 H195 0.948 . S
N186 Co164 2.293 . S
N186 C190 1.332 . S
N186 C191 1.332 . S
C187 C188 1.388 . S
C187 C191 1.382 . S
C187 H210 0.950 . S
C188 C187 1.388 . S
C188 C189 1.386 . S
C189 C188 1.386 . S
C189 C190 1.382 . S
C189 H211 0.950 . S
C190 N186 1.332 . S
C190 C189 1.382 . S
C190 H192 0.952 . S
C191 N186 1.332 . S
C191 C187 1.382 . S
C191 H193 0.948 . S
H192 C190 0.952 . S
H193 C191 0.948 . S
H194 C183 0.952 . S
H195 C185 0.948 . S
C196 C162 1.395 1_455 S
C196 C166 1.391 . S
C197 C159 1.389 . S
C197 C179 1.392 . S
C198 C169 1.392 . S
C198 C171 1.389 . S
C199 C174 1.395 1_655 S
C199 C176 1.391 . S
H200 C160 0.951 . S
H201 C161 0.950 . S
H202 C167 0.949 . S
H203 C168 0.950 . S
H204 C172 0.951 . S
H205 C173 0.950 . S
H206 C177 0.949 . S
H207 C178 0.950 . S
H208 C182 0.950 . S
H209 C184 0.950 . S
H210 C187 0.950 . S
H211 C189 0.950 . S
C212 C213 1.443 . S
C212 N216 1.376 . S
C212 C250 1.389 . S
C213 C212 1.443 . S
C213 C214 1.340 . S
C213 H253 0.951 . S
C214 C213 1.340 . S
C214 C215 1.439 . S
C214 H254 0.950 . S
C215 C214 1.439 . S
C215 N216 1.374 . S
C215 C249 1.395 1_565 S
N216 C212 1.376 . S
N216 C215 1.374 . S
N216 Co217 2.008 1_565 S
Co217 N216 2.008 1_545 S
Co217 N218 1.995 . S
Co217 N223 2.008 . S
Co217 N228 1.995 1_545 S
Co217 N233 2.282 1_545 S
Co217 N239 2.282 . S
N218 Co217 1.995 . S
N218 C219 1.376 . S
N218 C222 1.383 . S
C219 N218 1.376 . S
C219 C220 1.446 . S
C219 C249 1.391 . S
C220 C219 1.446 . S
C220 C221 1.339 . S
C220 H255 0.949 . S
C221 C220 1.339 . S
C221 C222 1.439 . S
C221 H256 0.950 . S
C222 N218 1.383 . S
C222 C221 1.439 . S
C222 C251 1.392 . S
N223 Co217 2.008 . S
N223 C224 1.376 . S
N223 C227 1.374 . S
C224 N223 1.376 . S
C224 C225 1.443 . S
C224 C251 1.389 . S
C225 C224 1.443 . S
C225 C226 1.340 . S
C225 H257 0.951 . S
C226 C225 1.340 . S
C226 C227 1.439 . S
C226 H258 0.950 . S
C227 N223 1.374 . S
C227 C226 1.439 . S
C227 C252 1.395 . S
N228 Co217 1.995 1_565 S
N228 C229 1.376 . S
N228 C232 1.383 . S
C229 N228 1.376 . S
C229 C230 1.446 . S
C229 C252 1.391 1_565 S
C230 C229 1.446 . S
C230 C231 1.339 . S
C230 H259 0.949 . S
C231 C230 1.339 . S
C231 C232 1.439 . S
C231 H260 0.950 . S
C232 N228 1.383 . S
C232 C231 1.439 . S
C232 C250 1.392 . S
N233 Co217 2.282 1_565 S
N233 C236 1.332 . S
N233 C238 1.332 . S
C234 C235 1.386 . S
C234 C237 1.388 . S
C235 C234 1.386 . S
C235 C236 1.382 . S
C235 H261 0.950 . S
C236 N233 1.332 . S
C236 C235 1.382 . S
C236 H247 0.952 . S
C237 C234 1.388 . S
C237 C238 1.382 . S
C237 H262 0.950 . S
C238 N233 1.332 . S
C238 C237 1.382 . S
C238 H248 0.948 . S
N239 Co217 2.282 . S
N239 C243 1.332 . S
N239 C244 1.332 . S
C240 C241 1.388 . S
C240 C244 1.382 . S
C240 H263 0.950 . S
C241 C240 1.388 . S
C241 C242 1.386 . S
C242 C241 1.386 . S
C242 C243 1.382 . S
C242 H264 0.950 . S
C243 N239 1.332 . S
C243 C242 1.382 . S
C243 H245 0.952 . S
C244 N239 1.332 . S
C244 C240 1.382 . S
C244 H246 0.948 . S
H245 C243 0.952 . S
H246 C244 0.948 . S
H247 C236 0.952 . S
H248 C238 0.948 . S
C249 C215 1.395 1_545 S
C249 C219 1.391 . S
C250 C212 1.389 . S
C250 C232 1.392 . S
C251 C222 1.392 . S
C251 C224 1.389 . S
C252 C227 1.395 . S
C252 C229 1.391 1_545 S
H253 C213 0.951 . S
H254 C214 0.950 . S
H255 C220 0.949 . S
H256 C221 0.950 . S
H257 C225 0.951 . S
H258 C226 0.950 . S
H259 C230 0.949 . S
H260 C231 0.950 . S
H261 C235 0.950 . S
H262 C237 0.950 . S
H263 C240 0.950 . S
H264 C242 0.950 . S
C265 C266 1.443 . S
C265 N269 1.376 1_655 S
C265 C303 1.389 . S
C266 C265 1.443 . S
C266 C267 1.340 1_655 S
C266 H306 0.951 . S
C267 C266 1.340 1_455 S
C267 C268 1.439 . S
C267 H307 0.950 . S
C268 C267 1.439 . S
C268 N269 1.374 . S
C268 C302 1.395 . S
N269 C265 1.376 1_455 S
N269 C268 1.374 . S
N269 Co270 2.008 . S
Co270 N269 2.008 . S
Co270 N271 1.995 . S
Co270 N276 2.008 . S
Co270 N281 1.995 . S
Co270 N286 2.282 1_455 S
Co270 N292 2.282 . S
N271 Co270 1.995 . S
N271 C272 1.376 . S
N271 C275 1.383 . S
C272 N271 1.376 . S
C272 C273 1.446 . S
C272 C302 1.391 . S
C273 C272 1.446 . S
C273 C274 1.339 . S
C273 H308 0.949 . S
C274 C273 1.339 . S
C274 C275 1.439 . S
C274 H309 0.950 . S
C275 N271 1.383 . S
C275 C274 1.439 . S
C275 C304 1.392 . S
N276 Co270 2.008 . S
N276 C277 1.376 . S
N276 C280 1.374 . S
C277 N276 1.376 . S
C277 C278 1.443 . S
C277 C304 1.389 . S
C278 C277 1.443 . S
C278 C279 1.340 . S
C278 H310 0.951 . S
C279 C278 1.340 . S
C279 C280 1.439 . S
C279 H311 0.950 . S
C280 N276 1.374 . S
C280 C279 1.439 . S
C280 C305 1.395 . S
N281 Co270 1.995 . S
N281 C282 1.376 . S
N281 C285 1.383 1_455 S
C282 N281 1.376 . S
C282 C283 1.446 1_455 S
C282 C305 1.391 . S
C283 C282 1.446 1_655 S
C283 C284 1.339 . S
C283 H312 0.949 . S
C284 C283 1.339 . S
C284 C285 1.439 . S
C284 H313 0.950 . S
C285 N281 1.383 1_655 S
C285 C284 1.439 . S
C285 C303 1.392 . S
N286 Co270 2.282 1_655 S
N286 C289 1.332 . S
N286 C291 1.332 . S
C287 C288 1.386 . S
C287 C290 1.388 . S
C288 C287 1.386 . S
C288 C289 1.382 . S
C288 H314 0.950 . S
C289 N286 1.332 . S
C289 C288 1.382 . S
C289 H300 0.952 . S
C290 C287 1.388 . S
C290 C291 1.382 . S
C290 H315 0.950 . S
C291 N286 1.332 . S
C291 C290 1.382 . S
C291 H301 0.948 1_655 S
N292 Co270 2.282 . S
N292 C296 1.332 . S
N292 C297 1.332 . S
C293 C294 1.388 . S
C293 C297 1.382 . S
C293 H316 0.950 . S
C294 C293 1.388 . S
C294 C295 1.386 . S
C295 C294 1.386 . S
C295 C296 1.382 . S
C295 H317 0.950 . S
C296 N292 1.332 . S
C296 C295 1.382 . S
C296 H298 0.952 . S
C297 N292 1.332 . S
C297 C293 1.382 . S
C297 H299 0.948 . S
H298 C296 0.952 . S
H299 C297 0.948 . S
H300 C289 0.952 . S
H301 C291 0.948 1_455 S
C302 C268 1.395 . S
C302 C272 1.391 . S
C303 C265 1.389 . S
C303 C285 1.392 . S
C304 C275 1.392 . S
C304 C277 1.389 . S
C305 C280 1.395 . S
C305 C282 1.391 . S
H306 C266 0.951 . S
H307 C267 0.950 . S
H308 C273 0.949 . S
H309 C274 0.950 . S
H310 C278 0.951 . S
H311 C279 0.950 . S
H312 C283 0.949 . S
H313 C284 0.950 . S
H314 C288 0.950 . S
H315 C290 0.950 . S
H316 C293 0.950 . S
H317 C295 0.950 . S
C318 C319 1.443 . S
C318 N322 1.376 . S
C318 C356 1.389 . S
C319 C318 1.443 . S
C319 C320 1.340 . S
C319 H359 0.951 . S
C320 C319 1.340 . S
C320 C321 1.439 . S
C320 H360 0.950 . S
C321 C320 1.439 . S
C321 N322 1.374 . S
C321 C355 1.410 . S
N322 C318 1.376 . S
N322 C321 1.374 . S
N322 Co323 2.008 . S
Co323 N322 2.008 . S
Co323 N324 1.995 1_545 S
Co323 N329 2.008 1_545 S
Co323 N334 1.995 . S
Co323 N339 2.282 . S
Co323 N345 2.282 1_545 S
N324 Co323 1.995 1_565 S
N324 C325 1.376 . S
N324 C328 1.383 . S
C325 N324 1.376 . S
C325 C326 1.446 . S
C325 C355 1.379 1_565 S
C326 C325 1.446 . S
C326 C327 1.339 . S
C326 H361 0.949 . S
C327 C326 1.339 . S
C327 C328 1.439 . S
C327 H362 0.950 . S
C328 N324 1.383 . S
C328 C327 1.439 . S
C328 C357 1.392 . S
N329 Co323 2.008 1_565 S
N329 C330 1.376 . S
N329 C333 1.374 . S
C330 N329 1.376 . S
C330 C331 1.443 . S
C330 C357 1.389 . S
C331 C330 1.443 . S
C331 C332 1.340 . S
C331 H363 0.951 . S
C332 C331 1.340 . S
C332 C333 1.439 . S
C332 H364 0.950 . S
C333 N329 1.374 . S
C333 C332 1.439 . S
C333 C358 1.395 1_565 S
N334 Co323 1.995 . S
N334 C335 1.376 . S
N334 C338 1.383 . S
C335 N334 1.376 . S
C335 C336 1.446 . S
C335 C358 1.391 . S
C336 C335 1.446 . S
C336 C337 1.339 . S
C336 H365 0.949 . S
C337 C336 1.339 . S
C337 C338 1.439 . S
C337 H366 0.950 . S
C338 N334 1.383 . S
C338 C337 1.439 . S
C338 C356 1.392 . S
N339 Co323 2.282 . S
N339 C342 1.332 . S
N339 C344 1.332 . S
C340 C341 1.386 . S
C340 C343 1.388 . S
C341 C340 1.386 . S
C341 C342 1.382 . S
C341 H367 0.950 . S
C342 N339 1.332 . S
C342 C341 1.382 . S
C342 H353 0.952 . S
C343 C340 1.388 . S
C343 C344 1.382 . S
C343 H368 0.950 . S
C344 N339 1.332 . S
C344 C343 1.382 . S
C344 H354 0.948 . S
N345 Co323 2.282 1_565 S
N345 C349 1.332 . S
N345 C350 1.332 . S
C346 C347 1.388 . S
C346 C350 1.382 . S
C346 H369 0.950 . S
C347 C346 1.388 . S
C347 C348 1.386 . S
C348 C347 1.386 . S
C348 C349 1.382 . S
C348 H370 0.950 . S
C349 N345 1.332 . S
C349 C348 1.382 . S
C349 H351 0.952 . S
C350 N345 1.332 . S
C350 C346 1.382 . S
C350 H352 0.948 . S
H351 C349 0.952 . S
H352 C350 0.948 . S
H353 C342 0.952 . S
H354 C344 0.948 . S
C355 C321 1.410 . S
C355 C325 1.379 1_545 S
C356 C318 1.389 . S
C356 C338 1.392 . S
C357 C328 1.392 . S
C357 C330 1.389 . S
C358 C333 1.395 1_545 S
C358 C335 1.391 . S
H359 C319 0.951 . S
H360 C320 0.950 . S
H361 C326 0.949 . S
H362 C327 0.950 . S
H363 C331 0.951 . S
H364 C332 0.950 . S
H365 C336 0.949 . S
H366 C337 0.950 . S
H367 C341 0.950 . S
H368 C343 0.950 . S
H369 C346 0.950 . S
H370 C348 0.950 . S
C371 C372 1.443 . S
C371 N375 1.376 1_655 S
C371 C409 1.389 . S
C372 C371 1.443 . S
C372 C373 1.353 . S
C372 H412 0.951 . S
C373 C372 1.353 . S
C373 C374 1.427 1_655 S
C373 H413 0.951 . S
C374 C373 1.427 1_455 S
C374 N375 1.374 . S
C374 C408 1.395 . S
N375 C371 1.376 1_455 S
N375 C374 1.374 . S
N375 Co376 2.008 . S
Co376 N375 2.008 . S
Co376 N377 1.995 . S
Co376 N382 2.008 . S
Co376 N387 1.995 . S
Co376 N392 2.282 1_455 S
Co376 N398 2.282 . S
N377 Co376 1.995 . S
N377 C378 1.376 . S
N377 C381 1.383 . S
C378 N377 1.376 . S
C378 C379 1.446 . S
C378 C408 1.391 . S
C379 C378 1.446 . S
C379 C380 1.339 . S
C379 H414 0.949 . S
C380 C379 1.339 . S
C380 C381 1.439 . S
C380 H415 0.950 . S
C381 N377 1.383 . S
C381 C380 1.439 . S
C381 C410 1.392 . S
N382 Co376 2.008 . S
N382 C383 1.376 . S
N382 C386 1.374 . S
C383 N382 1.376 . S
C383 C384 1.443 . S
C383 C410 1.389 . S
C384 C383 1.443 . S
C384 C385 1.340 . S
C384 H416 0.951 . S
C385 C384 1.340 . S
C385 C386 1.439 . S
C385 H417 0.950 . S
C386 N382 1.374 . S
C386 C385 1.439 . S
C386 C411 1.395 . S
N387 Co376 1.995 . S
N387 C388 1.376 . S
N387 C391 1.383 1_455 S
C388 N387 1.376 . S
C388 C389 1.446 1_455 S
C388 C411 1.391 . S
C389 C388 1.446 1_655 S
C389 C390 1.339 . S
C389 H418 0.949 . S
C390 C389 1.339 . S
C390 C391 1.439 . S
C390 H419 0.950 . S
C391 N387 1.383 1_655 S
C391 C390 1.439 . S
C391 C409 1.392 . S
N392 Co376 2.282 1_655 S
N392 C395 1.332 . S
N392 C397 1.332 . S
C393 C394 1.386 . S
C393 C396 1.388 . S
C394 C393 1.386 . S
C394 C395 1.382 . S
C394 H420 0.950 . S
C395 N392 1.332 . S
C395 C394 1.382 . S
C395 H406 0.952 . S
C396 C393 1.388 . S
C396 C397 1.382 . S
C396 H421 0.950 . S
C397 N392 1.332 . S
C397 C396 1.382 . S
C397 H407 0.950 . S
N398 Co376 2.282 . S
N398 C402 1.332 . S
N398 C403 1.332 . S
C399 C400 1.388 . S
C399 C403 1.382 . S
C399 H422 0.950 . S
C400 C399 1.388 . S
C400 C401 1.386 . S
C401 C400 1.386 . S
C401 C402 1.382 . S
C401 H423 0.950 . S
C402 N398 1.332 . S
C402 C401 1.382 . S
C402 H404 0.952 . S
C403 N398 1.332 . S
C403 C399 1.382 . S
C403 H405 0.948 . S
H404 C402 0.952 . S
H405 C403 0.948 . S
H406 C395 0.952 . S
H407 C397 0.950 . S
C408 C374 1.395 . S
C408 C378 1.391 . S
C409 C371 1.389 . S
C409 C391 1.392 . S
C410 C381 1.392 . S
C410 C383 1.389 . S
C411 C386 1.395 . S
C411 C388 1.391 . S
H412 C372 0.951 . S
H413 C373 0.951 . S
H414 C379 0.949 . S
H415 C380 0.950 . S
H416 C384 0.951 . S
H417 C385 0.950 . S
H418 C389 0.949 . S
H419 C390 0.950 . S
H420 C394 0.950 . S
H421 C396 0.950 . S
H422 C399 0.950 . S
H423 C401 0.950 . S
C424 C425 1.443 . S
C424 N428 1.376 . S
C424 C462 1.389 . S
C425 C424 1.443 . S
C425 C426 1.340 . S
C425 H465 0.951 . S
C426 C425 1.340 . S
C426 C427 1.439 . S
C426 H466 0.950 . S
C427 C426 1.439 . S
C427 N428 1.374 . S
C427 C461 1.395 1_554 S
N428 C424 1.376 . S
N428 C427 1.374 . S
N428 Co429 2.020 . S
Co429 N428 2.020 . S
Co429 N430 1.979 1_554 S
Co429 N435 1.997 1_554 S
Co429 N440 2.010 . S
Co429 N445 2.301 . S
Co429 N451 2.264 1_554 S
N430 Co429 1.979 1_556 S
N430 C431 1.376 . S
N430 C434 1.383 . S
C431 N430 1.376 . S
C431 C432 1.446 . S
C431 C461 1.391 . S
C432 C431 1.446 . S
C432 C433 1.339 . S
C432 H467 0.949 . S
C433 C432 1.339 . S
C433 C434 1.439 . S
C433 H468 0.950 . S
C434 N430 1.383 . S
C434 C433 1.439 . S
C434 C463 1.392 . S
N435 Co429 1.997 1_556 S
N435 C436 1.376 . S
N435 C439 1.374 . S
C436 N435 1.376 . S
C436 C437 1.443 . S
C436 C463 1.389 . S
C437 C436 1.443 . S
C437 C438 1.340 . S
C437 H469 0.951 . S
C438 C437 1.340 . S
C438 C439 1.439 . S
C438 H470 0.950 . S
C439 N435 1.374 . S
C439 C438 1.439 . S
C439 C464 1.395 1_556 S
N440 Co429 2.010 . S
N440 C441 1.376 . S
N440 C444 1.383 . S
C441 N440 1.376 . S
C441 C442 1.446 . S
C441 C464 1.391 . S
C442 C441 1.446 . S
C442 C443 1.339 . S
C442 H471 0.949 . S
C443 C442 1.339 . S
C443 C444 1.439 . S
C443 H472 0.950 . S
C444 N440 1.383 . S
C444 C443 1.439 . S
C444 C462 1.392 . S
N445 Co429 2.301 . S
N445 C448 1.332 . S
N445 C450 1.332 . S
C446 C447 1.386 . S
C446 C449 1.388 . S
C447 C446 1.386 . S
C447 C448 1.382 . S
C447 H473 0.950 . S
C448 N445 1.332 . S
C448 C447 1.382 . S
C448 H459 0.952 . S
C449 C446 1.388 . S
C449 C450 1.382 . S
C449 H474 0.950 . S
C450 N445 1.332 . S
C450 C449 1.382 . S
C450 H460 0.948 . S
N451 Co429 2.264 1_556 S
N451 C455 1.332 . S
N451 C456 1.332 . S
C452 C453 1.388 . S
C452 C456 1.382 . S
C452 H475 0.950 . S
C453 C452 1.388 . S
C453 C454 1.386 . S
C454 C453 1.386 . S
C454 C455 1.382 . S
C454 H476 0.950 . S
C455 N451 1.332 . S
C455 C454 1.382 . S
C455 H457 0.952 . S
C456 N451 1.332 . S
C456 C452 1.382 . S
C456 H458 0.948 . S
H457 C455 0.952 . S
H458 C456 0.948 . S
H459 C448 0.952 . S
H460 C450 0.948 . S
C461 C427 1.395 1_556 S
C461 C431 1.391 . S
C462 C424 1.389 . S
C462 C444 1.392 . S
C463 C434 1.392 . S
C463 C436 1.389 . S
C464 C439 1.395 1_554 S
C464 C441 1.391 . S
H465 C425 0.951 . S
H466 C426 0.950 . S
H467 C432 0.949 . S
H468 C433 0.950 . S
H469 C437 0.951 . S
H470 C438 0.950 . S
H471 C442 0.949 . S
H472 C443 0.950 . S
H473 C447 0.950 . S
H474 C449 0.950 . S
H475 C452 0.950 . S
H476 C454 0.950 . S
C477 C478 1.443 . S
C477 N481 1.376 . S
C477 C515 1.389 . S
C478 C477 1.443 . S
C478 C479 1.340 . S
C478 H518 0.951 . S
C479 C478 1.340 . S
C479 C480 1.439 . S
C479 H519 0.950 . S
C480 C479 1.439 . S
C480 N481 1.374 . S
C480 C514 1.395 . S
N481 C477 1.376 . S
N481 C480 1.374 . S
N481 Co482 2.008 . S
Co482 N481 2.008 . S
Co482 N483 2.010 . S
Co482 N488 2.008 . S
Co482 N493 1.995 . S
Co482 N498 2.282 . S
Co482 N504 2.282 1_554 S
N483 Co482 2.010 . S
N483 C484 1.378 . S
N483 C487 1.365 1_554 S
C484 N483 1.378 . S
C484 C485 1.446 1_554 S
C484 C514 1.391 . S
C485 C484 1.446 1_556 S
C485 C486 1.339 . S
C485 H520 0.949 . S
C486 C485 1.339 . S
C486 C487 1.439 . S
C486 H521 0.950 . S
C487 N483 1.365 1_556 S
C487 C486 1.439 . S
C487 C516 1.392 . S
N488 Co482 2.008 . S
N488 C489 1.376 1_554 S
N488 C492 1.374 . S
C489 N488 1.376 1_556 S
C489 C490 1.443 . S
C489 C516 1.389 . S
C490 C489 1.443 . S
C490 C491 1.340 . S
C490 H522 0.951 . S
C491 C490 1.340 . S
C491 C492 1.439 1_556 S
C491 H523 0.950 . S
C492 N488 1.374 . S
C492 C491 1.439 1_554 S
C492 C517 1.395 . S
N493 Co482 1.995 . S
N493 C494 1.376 . S
N493 C497 1.383 . S
C494 N493 1.376 . S
C494 C495 1.446 . S
C494 C517 1.391 . S
C495 C494 1.446 . S
C495 C496 1.339 . S
C495 H524 0.949 . S
C496 C495 1.339 . S
C496 C497 1.439 . S
C496 H525 0.950 . S
C497 N493 1.383 . S
C497 C496 1.439 . S
C497 C515 1.392 . S
N498 Co482 2.282 . S
N498 C501 1.332 . S
N498 C503 1.332 . S
C499 C500 1.386 . S
C499 C502 1.388 . S
C500 C499 1.386 . S
C500 C501 1.382 . S
C500 H526 0.950 . S
C501 N498 1.332 . S
C501 C500 1.382 . S
C501 H512 0.952 . S
C502 C499 1.388 . S
C502 C503 1.382 . S
C502 H527 0.950 . S
C503 N498 1.332 . S
C503 C502 1.382 . S
C503 H513 0.948 . S
N504 Co482 2.282 1_556 S
N504 C508 1.332 . S
N504 C509 1.332 . S
C505 C506 1.388 . S
C505 C509 1.382 . S
C505 H528 0.950 . S
C506 C505 1.388 . S
C506 C507 1.386 . S
C507 C506 1.386 . S
C507 C508 1.382 . S
C507 H529 0.950 . S
C508 N504 1.332 . S
C508 C507 1.382 . S
C508 H510 0.952 . S
C509 N504 1.332 . S
C509 C505 1.382 . S
C509 H511 0.948 . S
H510 C508 0.952 . S
H511 C509 0.948 . S
H512 C501 0.952 . S
H513 C503 0.948 . S
C514 C480 1.395 . S
C514 C484 1.391 . S
C515 C477 1.389 . S
C515 C497 1.392 . S
C516 C487 1.392 . S
C516 C489 1.389 . S
C517 C492 1.395 . S
C517 C494 1.391 . S
H518 C478 0.951 . S
H519 C479 0.950 . S
H520 C485 0.949 . S
H521 C486 0.950 . S
H522 C490 0.951 . S
H523 C491 0.950 . S
H524 C495 0.949 . S
H525 C496 0.950 . S
H526 C500 0.950 . S
H527 C502 0.950 . S
H528 C505 0.950 . S
H529 C507 0.950 . S
C530 C531 1.443 . S
C530 N534 1.376 . S
C530 C568 1.389 . S
C531 C530 1.443 . S
C531 C532 1.340 . S
C531 H571 0.951 . S
C532 C531 1.340 . S
C532 C533 1.439 . S
C532 H572 0.950 . S
C533 C532 1.439 . S
C533 N534 1.374 . S
C533 C567 1.395 . S
N534 C530 1.376 . S
N534 C533 1.374 . S
N534 Co535 2.008 . S
Co535 N534 2.008 . S
Co535 N536 1.995 . S
Co535 N541 2.008 . S
Co535 N546 1.995 . S
Co535 N551 2.282 . S
Co535 N557 2.317 . S
N536 Co535 1.995 . S
N536 C537 1.376 . S
N536 C540 1.383 1_554 S
C537 N536 1.376 . S
C537 C538 1.446 1_554 S
C537 C567 1.391 . S
C538 C537 1.446 1_556 S
C538 C539 1.339 . S
C538 H573 0.949 . S
C539 C538 1.339 . S
C539 C540 1.439 . S
C539 H574 0.950 . S
C540 N536 1.383 1_556 S
C540 C539 1.439 . S
C540 C569 1.392 . S
N541 Co535 2.008 . S
N541 C542 1.376 . S
N541 C545 1.374 . S
C542 N541 1.376 . S
C542 C543 1.443 . S
C542 C569 1.389 1_554 S
C543 C542 1.443 . S
C543 C544 1.340 . S
C543 H575 0.951 1_554 S
C544 C543 1.340 . S
C544 C545 1.439 . S
C544 H576 0.950 . S
C545 N541 1.374 . S
C545 C544 1.439 . S
C545 C570 1.395 . S
N546 Co535 1.995 . S
N546 C547 1.376 . S
N546 C550 1.383 . S
C547 N546 1.376 . S
C547 C548 1.446 . S
C547 C570 1.391 . S
C548 C547 1.446 . S
C548 C549 1.339 . S
C548 H577 0.949 . S
C549 C548 1.339 . S
C549 C550 1.439 . S
C549 H578 0.950 . S
C550 N546 1.383 . S
C550 C549 1.439 . S
C550 C568 1.392 . S
N551 Co535 2.282 . S
N551 C554 1.332 . S
N551 C556 1.332 . S
C552 C553 1.386 . S
C552 C555 1.388 . S
C553 C552 1.386 . S
C553 C554 1.382 . S
C553 H579 0.950 . S
C554 N551 1.332 . S
C554 C553 1.382 . S
C554 H565 0.952 . S
C555 C552 1.388 . S
C555 C556 1.382 . S
C555 H580 0.950 . S
C556 N551 1.332 . S
C556 C555 1.382 . S
C556 H566 0.948 . S
N557 Co535 2.317 . S
N557 C561 1.309 1_554 S
N557 C562 1.330 . S
C558 C559 1.388 . S
C558 C562 1.371 1_556 S
C558 H581 0.950 . S
C559 C558 1.388 . S
C559 C560 1.386 . S
C560 C559 1.386 . S
C560 C561 1.382 . S
C560 H582 0.950 . S
C561 N557 1.309 1_556 S
C561 C560 1.382 . S
C561 H563 0.952 . S
C562 N557 1.330 . S
C562 C558 1.371 1_554 S
C562 H564 0.958 . S
H563 C561 0.952 . S
H564 C562 0.958 . S
H565 C554 0.952 . S
H566 C556 0.948 . S
C567 C533 1.395 . S
C567 C537 1.391 . S
C568 C530 1.389 . S
C568 C550 1.392 . S
C569 C540 1.392 . S
C569 C542 1.389 1_556 S
C570 C545 1.395 . S
C570 C547 1.391 . S
H571 C531 0.951 . S
H572 C532 0.950 . S
H573 C538 0.949 . S
H574 C539 0.950 . S
H575 C543 0.951 1_556 S
H576 C544 0.950 . S
H577 C548 0.949 . S
H578 C549 0.950 . S
H579 C553 0.950 . S
H580 C555 0.950 . S
H581 C558 0.950 . S
H582 C560 0.950 . S
C583 C584 1.446 . S
C583 N587 1.376 . S
C583 C621 1.389 1_554 S
C584 C583 1.446 . S
C584 C585 1.350 . S
C584 H624 0.941 1_554 S
C585 C584 1.350 . S
C585 C586 1.439 . S
C585 H625 0.950 . S
C586 C585 1.439 . S
C586 N587 1.374 . S
C586 C620 1.395 . S
N587 C583 1.376 . S
N587 C586 1.374 . S
N587 Co588 2.008 . S
Co588 N587 2.008 . S
Co588 N589 1.995 . S
Co588 N594 2.008 . S
Co588 N599 1.995 . S
Co588 N604 2.282 . S
Co588 N610 2.282 . S
N589 Co588 1.995 . S
N589 C590 1.376 . S
N589 C593 1.383 . S
C590 N589 1.376 . S
C590 C591 1.446 . S
C590 C620 1.391 . S
C591 C590 1.446 . S
C591 C592 1.339 . S
C591 H626 0.949 . S
C592 C591 1.339 . S
C592 C593 1.439 . S
C592 H627 0.950 . S
C593 N589 1.383 . S
C593 C592 1.439 . S
C593 C622 1.392 . S
N594 Co588 2.008 . S
N594 C595 1.376 . S
N594 C598 1.374 . S
C595 N594 1.376 . S
C595 C596 1.443 . S
C595 C622 1.389 . S
C596 C595 1.443 . S
C596 C597 1.340 . S
C596 H628 0.951 . S
C597 C596 1.340 . S
C597 C598 1.439 . S
C597 H629 0.950 . S
C598 N594 1.374 . S
C598 C597 1.439 . S
C598 C623 1.395 . S
N599 Co588 1.995 . S
N599 C600 1.376 . S
N599 C603 1.372 1_554 S
C600 N599 1.376 . S
C600 C601 1.446 1_554 S
C600 C623 1.391 . S
C601 C600 1.446 1_556 S
C601 C602 1.339 . S
C601 H630 0.949 . S
C602 C601 1.339 . S
C602 C603 1.447 . S
C602 H631 0.950 . S
C603 N599 1.372 1_556 S
C603 C602 1.447 . S
C603 C621 1.395 . S
N604 Co588 2.282 . S
N604 C607 1.332 1_554 S
N604 C609 1.332 . S
C605 C606 1.386 . S
C605 C608 1.388 . S
C606 C605 1.386 . S
C606 C607 1.382 . S
C606 H632 0.950 . S
C607 N604 1.332 1_556 S
C607 C606 1.382 . S
C607 H618 0.952 . S
C608 C605 1.388 . S
C608 C609 1.382 1_556 S
C608 H633 0.950 . S
C609 N604 1.332 . S
C609 C608 1.382 1_554 S
C609 H619 0.948 . S
N610 Co588 2.282 . S
N610 C614 1.332 . S
N610 C615 1.332 . S
C611 C612 1.388 . S
C611 C615 1.382 . S
C611 H634 0.950 . S
C612 C611 1.388 . S
C612 C613 1.386 . S
C613 C612 1.386 . S
C613 C614 1.382 . S
C613 H635 0.950 . S
C614 N610 1.332 . S
C614 C613 1.382 . S
C614 H616 0.952 . S
C615 N610 1.332 . S
C615 C611 1.382 . S
C615 H617 0.948 . S
H616 C614 0.952 . S
H617 C615 0.948 . S
H618 C607 0.952 . S
H619 C609 0.948 . S
C620 C586 1.395 . S
C620 C590 1.391 . S
C621 C583 1.389 1_556 S
C621 C603 1.395 . S
C622 C593 1.392 . S
C622 C595 1.389 . S
C623 C598 1.395 . S
C623 C600 1.391 . S
H624 C584 0.941 1_556 S
H625 C585 0.950 . S
H626 C591 0.949 . S
H627 C592 0.950 . S
H628 C596 0.951 . S
H629 C597 0.950 . S
H630 C601 0.949 . S
H631 C602 0.950 . S
H632 C606 0.950 . S
H633 C608 0.950 . S
H634 C611 0.950 . S
H635 C613 0.950 . S
C636 C637 1.443 . S
C636 N640 1.376 . S
C636 C674 1.389 . S
C637 C636 1.443 . S
C637 C638 1.340 . S
C637 H677 0.951 . S
C638 C637 1.340 . S
C638 C639 1.439 . S
C638 H678 0.950 . S
C639 C638 1.439 . S
C639 N640 1.374 . S
C639 C673 1.395 . S
N640 C636 1.376 . S
N640 C639 1.374 . S
N640 Co641 2.008 . S
Co641 N640 2.008 . S
Co641 N642 1.995 . S
Co641 N647 2.008 . S
Co641 N652 1.995 . S
Co641 N657 2.282 . S
Co641 N663 2.282 . S
N642 Co641 1.995 . S
N642 C643 1.376 . S
N642 C646 1.383 . S
C643 N642 1.376 . S
C643 C644 1.446 . S
C643 C673 1.391 . S
C644 C643 1.446 . S
C644 C645 1.339 . S
C644 H679 0.949 . S
C645 C644 1.339 . S
C645 C646 1.439 . S
C645 H680 0.950 . S
C646 N642 1.383 . S
C646 C645 1.439 . S
C646 C675 1.392 . S
N647 Co641 2.008 . S
N647 C648 1.376 . S
N647 C651 1.374 . S
C648 N647 1.376 . S
C648 C649 1.443 . S
C648 C675 1.389 . S
C649 C648 1.443 . S
C649 C650 1.340 . S
C649 H681 0.951 . S
C650 C649 1.340 . S
C650 C651 1.439 . S
C650 H682 0.950 . S
C651 N647 1.374 . S
C651 C650 1.439 . S
C651 C676 1.395 . S
N652 Co641 1.995 . S
N652 C653 1.376 . S
N652 C656 1.383 . S
C653 N652 1.376 . S
C653 C654 1.446 . S
C653 C676 1.391 . S
C654 C653 1.446 . S
C654 C655 1.339 . S
C654 H683 0.949 . S
C655 C654 1.339 . S
C655 C656 1.439 . S
C655 H684 0.950 . S
C656 N652 1.383 . S
C656 C655 1.439 . S
C656 C674 1.392 . S
N657 Co641 2.282 . S
N657 C660 1.332 . S
N657 C662 1.332 . S
C658 C659 1.386 . S
C658 C661 1.388 . S
C659 C658 1.386 . S
C659 C660 1.382 . S
C659 H685 0.950 . S
C660 N657 1.332 . S
C660 C659 1.382 . S
C660 H671 0.952 . S
C661 C658 1.388 . S
C661 C662 1.382 . S
C661 H686 0.950 . S
C662 N657 1.332 . S
C662 C661 1.382 . S
C662 H672 0.948 . S
N663 Co641 2.282 . S
N663 C667 1.332 . S
N663 C668 1.332 . S
C664 C665 1.388 . S
C664 C668 1.382 . S
C664 H687 0.950 . S
C665 C664 1.388 . S
C665 C666 1.386 . S
C666 C665 1.386 . S
C666 C667 1.382 . S
C666 H688 0.950 . S
C667 N663 1.332 . S
C667 C666 1.382 . S
C667 H669 0.952 . S
C668 N663 1.332 . S
C668 C664 1.382 . S
C668 H670 0.948 . S
H669 C667 0.952 . S
H670 C668 0.948 . S
H671 C660 0.952 . S
H672 C662 0.948 . S
C673 C639 1.395 . S
C673 C643 1.391 . S
C674 C636 1.389 . S
C674 C656 1.392 . S
C675 C646 1.392 . S
C675 C648 1.389 . S
C676 C651 1.395 . S
C676 C653 1.391 . S
H677 C637 0.951 . S
H678 C638 0.950 . S
H679 C644 0.949 . S
H680 C645 0.950 . S
H681 C649 0.951 . S
H682 C650 0.950 . S
H683 C654 0.949 . S
H684 C655 0.950 . S
H685 C659 0.950 . S
H686 C661 0.950 . S
H687 C664 0.950 . S
H688 C666 0.950 . S
C689 C690 1.443 . S
C689 N693 1.376 . S
C689 C727 1.389 . S
C690 C689 1.443 . S
C690 C691 1.340 . S
C690 H730 0.951 . S
C691 C690 1.340 . S
C691 C692 1.439 . S
C691 H731 0.950 . S
C692 C691 1.439 . S
C692 N693 1.374 . S
C692 C726 1.395 . S
N693 C689 1.376 . S
N693 C692 1.374 . S
N693 Co694 2.008 . S
Co694 N693 2.008 . S
Co694 N695 1.995 . S
Co694 N700 2.008 . S
Co694 N705 1.995 . S
Co694 N710 2.282 . S
Co694 N716 2.282 . S
N695 Co694 1.995 . S
N695 C696 1.376 . S
N695 C699 1.383 . S
C696 N695 1.376 . S
C696 C697 1.446 . S
C696 C726 1.391 . S
C697 C696 1.446 . S
C697 C698 1.339 . S
C697 H732 0.949 . S
C698 C697 1.339 . S
C698 C699 1.439 . S
C698 H733 0.950 . S
C699 N695 1.383 . S
C699 C698 1.439 . S
C699 C728 1.392 . S
N700 Co694 2.008 . S
N700 C701 1.376 . S
N700 C704 1.374 . S
C701 N700 1.376 . S
C701 C702 1.443 . S
C701 C728 1.389 . S
C702 C701 1.443 . S
C702 C703 1.340 . S
C702 H734 0.951 . S
C703 C702 1.340 . S
C703 C704 1.439 . S
C703 H735 0.950 . S
C704 N700 1.374 . S
C704 C703 1.439 . S
C704 C729 1.395 . S
N705 Co694 1.995 . S
N705 C706 1.376 . S
N705 C709 1.383 . S
C706 N705 1.376 . S
C706 C707 1.446 . S
C706 C729 1.391 . S
C707 C706 1.446 . S
C707 C708 1.339 . S
C707 H736 0.949 . S
C708 C707 1.339 . S
C708 C709 1.439 . S
C708 H737 0.950 . S
C709 N705 1.383 . S
C709 C708 1.439 . S
C709 C727 1.392 . S
N710 Co694 2.282 . S
N710 C713 1.332 . S
N710 C715 1.332 . S
C711 C712 1.386 . S
C711 C714 1.388 . S
C712 C711 1.386 . S
C712 C713 1.382 . S
C712 H738 0.950 . S
C713 N710 1.332 . S
C713 C712 1.382 . S
C713 H724 0.952 . S
C714 C711 1.388 . S
C714 C715 1.382 . S
C714 H739 0.950 . S
C715 N710 1.332 . S
C715 C714 1.382 . S
C715 H725 0.948 . S
N716 Co694 2.282 . S
N716 C720 1.332 . S
N716 C721 1.332 . S
C717 C718 1.388 . S
C717 C721 1.382 . S
C717 H740 0.950 . S
C718 C717 1.388 . S
C718 C719 1.386 . S
C719 C718 1.386 . S
C719 C720 1.382 . S
C719 H741 0.950 . S
C720 N716 1.332 . S
C720 C719 1.382 . S
C720 H722 0.952 . S
C721 N716 1.332 . S
C721 C717 1.382 . S
C721 H723 0.948 . S
H722 C720 0.952 . S
H723 C721 0.948 . S
H724 C713 0.952 . S
H725 C715 0.948 . S
C726 C692 1.395 . S
C726 C696 1.391 . S
C727 C689 1.389 . S
C727 C709 1.392 . S
C728 C699 1.392 . S
C728 C701 1.389 . S
C729 C704 1.395 . S
C729 C706 1.391 . S
H730 C690 0.951 . S
H731 C691 0.950 . S
H732 C697 0.949 . S
H733 C698 0.950 . S
H734 C702 0.951 . S
H735 C703 0.950 . S
H736 C707 0.949 . S
H737 C708 0.950 . S
H738 C712 0.950 . S
H739 C714 0.950 . S
H740 C717 0.950 . S
H741 C719 0.950 . S
C742 C743 1.443 . S
C742 N746 1.376 . S
C742 C780 1.389 . S
C743 C742 1.443 . S
C743 C744 1.340 . S
C743 H783 0.951 . S
C744 C743 1.340 . S
C744 C745 1.439 . S
C744 H784 0.950 . S
C745 C744 1.439 . S
C745 N746 1.374 . S
C745 C779 1.395 . S
N746 C742 1.376 . S
N746 C745 1.374 . S
N746 Co747 2.008 . S
Co747 N746 2.008 . S
Co747 N748 1.995 . S
Co747 N753 2.008 . S
Co747 N758 1.995 . S
Co747 N763 2.282 . S
Co747 N769 2.282 . S
N748 Co747 1.995 . S
N748 C749 1.376 . S
N748 C752 1.383 . S
C749 N748 1.376 . S
C749 C750 1.446 . S
C749 C779 1.391 . S
C750 C749 1.446 . S
C750 C751 1.339 . S
C750 H785 0.949 . S
C751 C750 1.339 . S
C751 C752 1.439 . S
C751 H786 0.950 . S
C752 N748 1.383 . S
C752 C751 1.439 . S
C752 C781 1.392 . S
N753 Co747 2.008 . S
N753 C754 1.376 . S
N753 C757 1.374 . S
C754 N753 1.376 . S
C754 C755 1.443 . S
C754 C781 1.389 . S
C755 C754 1.443 . S
C755 C756 1.340 . S
C755 H787 0.951 . S
C756 C755 1.340 . S
C756 C757 1.439 . S
C756 H788 0.950 . S
C757 N753 1.374 . S
C757 C756 1.439 . S
C757 C782 1.395 . S
N758 Co747 1.995 . S
N758 C759 1.376 . S
N758 C762 1.383 . S
C759 N758 1.376 . S
C759 C760 1.446 . S
C759 C782 1.391 . S
C760 C759 1.446 . S
C760 C761 1.339 . S
C760 H789 0.949 . S
C761 C760 1.339 . S
C761 C762 1.439 . S
C761 H790 0.950 . S
C762 N758 1.383 . S
C762 C761 1.439 . S
C762 C780 1.392 . S
N763 Co747 2.282 . S
N763 C766 1.332 . S
N763 C768 1.332 . S
C764 C765 1.386 . S
C764 C767 1.388 . S
C765 C764 1.386 . S
C765 C766 1.382 . S
C765 H791 0.950 . S
C766 N763 1.332 . S
C766 C765 1.382 . S
C766 H777 0.952 . S
C767 C764 1.388 . S
C767 C768 1.382 . S
C767 H792 0.950 . S
C768 N763 1.332 . S
C768 C767 1.382 . S
C768 H778 0.948 . S
N769 Co747 2.282 . S
N769 C773 1.332 . S
N769 C774 1.332 . S
C770 C771 1.388 . S
C770 C774 1.382 . S
C770 H793 0.950 . S
C771 C770 1.388 . S
C771 C772 1.386 . S
C772 C771 1.386 . S
C772 C773 1.382 . S
C772 H794 0.950 . S
C773 N769 1.332 . S
C773 C772 1.382 . S
C773 H775 0.952 . S
C774 N769 1.332 . S
C774 C770 1.382 . S
C774 H776 0.948 . S
H775 C773 0.952 . S
H776 C774 0.948 . S
H777 C766 0.952 . S
H778 C768 0.948 . S
C779 C745 1.395 . S
C779 C749 1.391 . S
C780 C742 1.389 . S
C780 C762 1.392 . S
C781 C752 1.392 . S
C781 C754 1.389 . S
C782 C757 1.395 . S
C782 C759 1.391 . S
H783 C743 0.951 . S
H784 C744 0.950 . S
H785 C750 0.949 . S
H786 C751 0.950 . S
H787 C755 0.951 . S
H788 C756 0.950 . S
H789 C760 0.949 . S
H790 C761 0.950 . S
H791 C765 0.950 . S
H792 C767 0.950 . S
H793 C770 0.950 . S
H794 C772 0.950 . S
C795 C796 1.443 . S
C795 N799 1.376 . S
C795 C833 1.389 . S
C796 C795 1.443 . S
C796 C797 1.340 . S
C796 H836 0.951 . S
C797 C796 1.340 . S
C797 C798 1.439 . S
C797 H837 0.950 . S
C798 C797 1.439 . S
C798 N799 1.374 . S
C798 C832 1.395 . S
N799 C795 1.376 . S
N799 C798 1.374 . S
N799 Co800 2.008 . S
Co800 N799 2.008 . S
Co800 N801 1.995 . S
Co800 N806 2.008 . S
Co800 N811 1.995 . S
Co800 N816 2.282 . S
Co800 N822 2.282 . S
N801 Co800 1.995 . S
N801 C802 1.376 . S
N801 C805 1.383 . S
C802 N801 1.376 . S
C802 C803 1.446 . S
C802 C832 1.391 . S
C803 C802 1.446 . S
C803 C804 1.339 . S
C803 H838 0.949 . S
C804 C803 1.339 . S
C804 C805 1.439 . S
C804 H839 0.950 . S
C805 N801 1.383 . S
C805 C804 1.439 . S
C805 C834 1.392 . S
N806 Co800 2.008 . S
N806 C807 1.376 . S
N806 C810 1.374 . S
C807 N806 1.376 . S
C807 C808 1.443 . S
C807 C834 1.389 . S
C808 C807 1.443 . S
C808 C809 1.340 . S
C808 H840 0.951 . S
C809 C808 1.340 . S
C809 C810 1.439 . S
C809 H841 0.950 . S
C810 N806 1.374 . S
C810 C809 1.439 . S
C810 C835 1.395 . S
N811 Co800 1.995 . S
N811 C812 1.376 . S
N811 C815 1.383 . S
C812 N811 1.376 . S
C812 C813 1.446 . S
C812 C835 1.391 . S
C813 C812 1.446 . S
C813 C814 1.339 . S
C813 H842 0.949 . S
C814 C813 1.339 . S
C814 C815 1.439 . S
C814 H843 0.950 . S
C815 N811 1.383 . S
C815 C814 1.439 . S
C815 C833 1.392 . S
N816 Co800 2.282 . S
N816 C819 1.332 . S
N816 C821 1.332 . S
C817 C818 1.386 . S
C817 C820 1.388 . S
C818 C817 1.386 . S
C818 C819 1.382 . S
C818 H844 0.950 . S
C819 N816 1.332 . S
C819 C818 1.382 . S
C819 H830 0.952 . S
C820 C817 1.388 . S
C820 C821 1.382 . S
C820 H845 0.950 . S
C821 N816 1.332 . S
C821 C820 1.382 . S
C821 H831 0.948 . S
N822 Co800 2.282 . S
N822 C826 1.332 . S
N822 C827 1.332 . S
C823 C824 1.388 . S
C823 C827 1.382 . S
C823 H846 0.950 . S
C824 C823 1.388 . S
C824 C825 1.386 . S
C825 C824 1.386 . S
C825 C826 1.382 . S
C825 H847 0.950 . S
C826 N822 1.332 . S
C826 C825 1.382 . S
C826 H828 0.952 . S
C827 N822 1.332 . S
C827 C823 1.382 . S
C827 H829 0.948 . S
H828 C826 0.952 . S
H829 C827 0.948 . S
H830 C819 0.952 . S
H831 C821 0.948 . S
C832 C798 1.395 . S
C832 C802 1.391 . S
C833 C795 1.389 . S
C833 C815 1.392 . S
C834 C805 1.392 . S
C834 C807 1.389 . S
C835 C810 1.395 . S
C835 C812 1.391 . S
H836 C796 0.951 . S
H837 C797 0.950 . S
H838 C803 0.949 . S
H839 C804 0.950 . S
H840 C808 0.951 . S
H841 C809 0.950 . S
H842 C813 0.949 . S
H843 C814 0.950 . S
H844 C818 0.950 . S
H845 C820 0.950 . S
H846 C823 0.950 . S
H847 C825 0.950 . S
C848 C849 1.443 . S
C848 N852 1.376 . S
C848 C886 1.389 . S
C849 C848 1.443 . S
C849 C850 1.340 . S
C849 H889 0.951 . S
C850 C849 1.340 . S
C850 C851 1.439 . S
C850 H890 0.950 . S
C851 C850 1.439 . S
C851 N852 1.374 . S
C851 C885 1.395 . S
N852 C848 1.376 . S
N852 C851 1.374 . S
N852 Co853 2.008 . S
Co853 N852 2.008 . S
Co853 N854 1.995 . S
Co853 N859 2.008 . S
Co853 N864 1.995 . S
Co853 N869 2.282 . S
Co853 N875 2.282 . S
N854 Co853 1.995 . S
N854 C855 1.376 . S
N854 C858 1.383 . S
C855 N854 1.376 . S
C855 C856 1.446 . S
C855 C885 1.391 . S
C856 C855 1.446 . S
C856 C857 1.339 . S
C856 H891 0.949 . S
C857 C856 1.339 . S
C857 C858 1.439 . S
C857 H892 0.950 . S
C858 N854 1.383 . S
C858 C857 1.439 . S
C858 C887 1.392 . S
N859 Co853 2.008 . S
N859 C860 1.376 . S
N859 C863 1.374 . S
C860 N859 1.376 . S
C860 C861 1.443 . S
C860 C887 1.389 . S
C861 C860 1.443 . S
C861 C862 1.340 . S
C861 H893 0.951 . S
C862 C861 1.340 . S
C862 C863 1.439 . S
C862 H894 0.950 . S
C863 N859 1.374 . S
C863 C862 1.439 . S
C863 C888 1.395 . S
N864 Co853 1.995 . S
N864 C865 1.376 . S
N864 C868 1.383 . S
C865 N864 1.376 . S
C865 C866 1.446 . S
C865 C888 1.391 . S
C866 C865 1.446 . S
C866 C867 1.339 . S
C866 H895 0.949 . S
C867 C866 1.339 . S
C867 C868 1.439 . S
C867 H896 0.950 . S
C868 N864 1.383 . S
C868 C867 1.439 . S
C868 C886 1.392 . S
N869 Co853 2.282 . S
N869 C872 1.332 . S
N869 C874 1.332 . S
C870 C871 1.386 . S
C870 C873 1.388 . S
C871 C870 1.386 . S
C871 C872 1.382 . S
C871 H897 0.950 . S
C872 N869 1.332 . S
C872 C871 1.382 . S
C872 H883 0.952 . S
C873 C870 1.388 . S
C873 C874 1.382 . S
C873 H898 0.950 . S
C874 N869 1.332 . S
C874 C873 1.382 . S
C874 H884 0.948 . S
N875 Co853 2.282 . S
N875 C879 1.332 . S
N875 C880 1.332 . S
C876 C877 1.388 . S
C876 C880 1.382 . S
C876 H899 0.950 . S
C877 C876 1.388 . S
C877 C878 1.386 . S
C878 C877 1.386 . S
C878 C879 1.382 . S
C878 H900 0.950 . S
C879 N875 1.332 . S
C879 C878 1.382 . S
C879 H881 0.952 . S
C880 N875 1.332 . S
C880 C876 1.382 . S
C880 H882 0.948 . S
H881 C879 0.952 . S
H882 C880 0.948 . S
H883 C872 0.952 . S
H884 C874 0.948 . S
C885 C851 1.395 . S
C885 C855 1.391 . S
C886 C848 1.389 . S
C886 C868 1.392 . S
C887 C858 1.392 . S
C887 C860 1.389 . S
C888 C863 1.395 . S
C888 C865 1.391 . S
H889 C849 0.951 . S
H890 C850 0.950 . S
H891 C856 0.949 . S
H892 C857 0.950 . S
H893 C861 0.951 . S
H894 C862 0.950 . S
H895 C866 0.949 . S
H896 C867 0.950 . S
H897 C871 0.950 . S
H898 C873 0.950 . S
H899 C876 0.950 . S
H900 C878 0.950 . S
C901 C902 1.443 . S
C901 N905 1.376 . S
C901 C939 1.389 . S
C902 C901 1.443 . S
C902 C903 1.340 . S
C902 H942 0.951 . S
C903 C902 1.340 . S
C903 C904 1.439 . S
C903 H943 0.950 . S
C904 C903 1.439 . S
C904 N905 1.374 . S
C904 C938 1.395 . S
N905 C901 1.376 . S
N905 C904 1.374 . S
N905 Co906 2.008 . S
Co906 N905 2.008 . S
Co906 N907 1.995 . S
Co906 N912 2.008 . S
Co906 N917 1.995 . S
Co906 N922 2.282 . S
Co906 N928 2.282 . S
N907 Co906 1.995 . S
N907 C908 1.376 . S
N907 C911 1.383 . S
C908 N907 1.376 . S
C908 C909 1.446 . S
C908 C938 1.391 . S
C909 C908 1.446 . S
C909 C910 1.339 . S
C909 H944 0.949 . S
C910 C909 1.339 . S
C910 C911 1.439 . S
C910 H945 0.950 . S
C911 N907 1.383 . S
C911 C910 1.439 . S
C911 C940 1.392 . S
N912 Co906 2.008 . S
N912 C913 1.376 . S
N912 C916 1.374 . S
C913 N912 1.376 . S
C913 C914 1.443 . S
C913 C940 1.389 . S
C914 C913 1.443 . S
C914 C915 1.340 . S
C914 H946 0.951 . S
C915 C914 1.340 . S
C915 C916 1.439 . S
C915 H947 0.950 . S
C916 N912 1.374 . S
C916 C915 1.439 . S
C916 C941 1.395 . S
N917 Co906 1.995 . S
N917 C918 1.376 . S
N917 C921 1.383 . S
C918 N917 1.376 . S
C918 C919 1.446 . S
C918 C941 1.391 . S
C919 C918 1.446 . S
C919 C920 1.339 . S
C919 H948 0.949 . S
C920 C919 1.339 . S
C920 C921 1.439 . S
C920 H949 0.950 . S
C921 N917 1.383 . S
C921 C920 1.439 . S
C921 C939 1.392 . S
N922 Co906 2.282 . S
N922 C925 1.332 . S
N922 C927 1.332 . S
C923 C924 1.386 . S
C923 C926 1.388 . S
C924 C923 1.386 . S
C924 C925 1.382 . S
C924 H950 0.950 . S
C925 N922 1.332 . S
C925 C924 1.382 . S
C925 H936 0.952 . S
C926 C923 1.388 . S
C926 C927 1.382 . S
C926 H951 0.950 . S
C927 N922 1.332 . S
C927 C926 1.382 . S
C927 H937 0.948 . S
N928 Co906 2.282 . S
N928 C932 1.332 . S
N928 C933 1.332 . S
C929 C930 1.388 . S
C929 C933 1.382 . S
C929 H952 0.950 . S
C930 C929 1.388 . S
C930 C931 1.386 . S
C931 C930 1.386 . S
C931 C932 1.382 . S
C931 H953 0.950 . S
C932 N928 1.332 . S
C932 C931 1.382 . S
C932 H934 0.952 . S
C933 N928 1.332 . S
C933 C929 1.382 . S
C933 H935 0.948 . S
H934 C932 0.952 . S
H935 C933 0.948 . S
H936 C925 0.952 . S
H937 C927 0.948 . S
C938 C904 1.395 . S
C938 C908 1.391 . S
C939 C901 1.389 . S
C939 C921 1.392 . S
C940 C911 1.392 . S
C940 C913 1.389 . S
C941 C916 1.395 . S
C941 C918 1.391 . S
H942 C902 0.951 . S
H943 C903 0.950 . S
H944 C909 0.949 . S
H945 C910 0.950 . S
H946 C914 0.951 . S
H947 C915 0.950 . S
H948 C919 0.949 . S
H949 C920 0.950 . S
H950 C924 0.950 . S
H951 C926 0.950 . S
H952 C929 0.950 . S
H953 C931 0.950 . S
C954 C955 1.443 . S
C954 N958 1.376 . S
C954 C992 1.389 . S
C955 C954 1.443 . S
C955 C956 1.340 . S
C955 H995 0.951 . S
C956 C955 1.340 . S
C956 C957 1.439 . S
C956 H996 0.950 . S
C957 C956 1.439 . S
C957 N958 1.374 . S
C957 C991 1.395 . S
N958 C954 1.376 . S
N958 C957 1.374 . S
N958 Co959 2.008 . S
Co959 N958 2.008 . S
Co959 N960 1.995 . S
Co959 N965 2.008 . S
Co959 N970 1.995 . S
Co959 N975 2.282 . S
Co959 N981 2.282 . S
N960 Co959 1.995 . S
N960 C961 1.376 . S
N960 C964 1.383 . S
C961 N960 1.376 . S
C961 C962 1.446 . S
C961 C991 1.391 . S
C962 C961 1.446 . S
C962 C963 1.339 . S
C962 H997 0.949 . S
C963 C962 1.339 . S
C963 C964 1.439 . S
C963 H998 0.950 . S
C964 N960 1.383 . S
C964 C963 1.439 . S
C964 C993 1.392 . S
N965 Co959 2.008 . S
N965 C966 1.376 . S
N965 C969 1.374 . S
C966 N965 1.376 . S
C966 C967 1.443 . S
C966 C993 1.389 . S
C967 C966 1.443 . S
C967 C968 1.340 . S
C967 H999 0.951 . S
C968 C967 1.340 . S
C968 C969 1.439 . S
C968 H1000 0.950 . S
C969 N965 1.374 . S
C969 C968 1.439 . S
C969 C994 1.395 . S
N970 Co959 1.995 . S
N970 C971 1.376 . S
N970 C974 1.383 . S
C971 N970 1.376 . S
C971 C972 1.446 . S
C971 C994 1.391 . S
C972 C971 1.446 . S
C972 C973 1.339 . S
C972 H1001 0.949 . S
C973 C972 1.339 . S
C973 C974 1.439 . S
C973 H1002 0.950 . S
C974 N970 1.383 . S
C974 C973 1.439 . S
C974 C992 1.392 . S
N975 Co959 2.282 . S
N975 C978 1.332 . S
N975 C980 1.332 . S
C976 C977 1.386 . S
C976 C979 1.388 . S
C977 C976 1.386 . S
C977 C978 1.382 . S
C977 H1003 0.950 . S
C978 N975 1.332 . S
C978 C977 1.382 . S
C978 H989 0.952 . S
C979 C976 1.388 . S
C979 C980 1.382 . S
C979 H1004 0.950 . S
C980 N975 1.332 . S
C980 C979 1.382 . S
C980 H990 0.948 . S
N981 Co959 2.282 . S
N981 C985 1.332 . S
N981 C986 1.332 . S
C982 C983 1.388 . S
C982 C986 1.382 . S
C982 H1005 0.950 . S
C983 C982 1.388 . S
C983 C984 1.386 . S
C984 C983 1.386 . S
C984 C985 1.382 . S
C984 H1006 0.950 . S
C985 N981 1.332 . S
C985 C984 1.382 . S
C985 H987 0.952 . S
C986 N981 1.332 . S
C986 C982 1.382 . S
C986 H988 0.948 . S
H987 C985 0.952 . S
H988 C986 0.948 . S
H989 C978 0.952 . S
H990 C980 0.948 . S
C991 C957 1.395 . S
C991 C961 1.391 . S
C992 C954 1.389 . S
C992 C974 1.392 . S
C993 C964 1.392 . S
C993 C966 1.389 . S
C994 C969 1.395 . S
C994 C971 1.391 . S
H995 C955 0.951 . S
H996 C956 0.950 . S
H997 C962 0.949 . S
H998 C963 0.950 . S
H999 C967 0.951 . S
H1000 C968 0.950 . S
H1001 C972 0.949 . S
H1002 C973 0.950 . S
H1003 C977 0.950 . S
H1004 C979 0.950 . S
H1005 C982 0.950 . S
H1006 C984 0.950 . S
C1007 C1008 1.443 . S
C1007 N1011 1.376 . S
C1007 C1045 1.389 . S
C1008 C1007 1.443 . S
C1008 C1009 1.340 . S
C1008 H1048 0.951 . S
C1009 C1008 1.340 . S
C1009 C1010 1.439 . S
C1009 H1049 0.950 . S
C1010 C1009 1.439 . S
C1010 N1011 1.374 . S
C1010 C1044 1.395 . S
N1011 C1007 1.376 . S
N1011 C1010 1.374 . S
N1011 Co1012 2.008 . S
Co1012 N1011 2.008 . S
Co1012 N1013 1.995 . S
Co1012 N1018 2.008 . S
Co1012 N1023 1.995 . S
Co1012 N1028 2.282 . S
Co1012 N1034 2.282 . S
N1013 Co1012 1.995 . S
N1013 C1014 1.376 . S
N1013 C1017 1.383 . S
C1014 N1013 1.376 . S
C1014 C1015 1.446 . S
C1014 C1044 1.391 . S
C1015 C1014 1.446 . S
C1015 C1016 1.339 . S
C1015 H1050 0.949 . S
C1016 C1015 1.339 . S
C1016 C1017 1.439 . S
C1016 H1051 0.950 . S
C1017 N1013 1.383 . S
C1017 C1016 1.439 . S
C1017 C1046 1.392 . S
N1018 Co1012 2.008 . S
N1018 C1019 1.376 . S
N1018 C1022 1.374 . S
C1019 N1018 1.376 . S
C1019 C1020 1.443 . S
C1019 C1046 1.389 . S
C1020 C1019 1.443 . S
C1020 C1021 1.340 . S
C1020 H1052 0.951 . S
C1021 C1020 1.340 . S
C1021 C1022 1.439 . S
C1021 H1053 0.950 . S
C1022 N1018 1.374 . S
C1022 C1021 1.439 . S
C1022 C1047 1.395 . S
N1023 Co1012 1.995 . S
N1023 C1024 1.376 . S
N1023 C1027 1.383 . S
C1024 N1023 1.376 . S
C1024 C1025 1.446 . S
C1024 C1047 1.391 . S
C1025 C1024 1.446 . S
C1025 C1026 1.339 . S
C1025 H1054 0.949 . S
C1026 C1025 1.339 . S
C1026 C1027 1.439 . S
C1026 H1055 0.950 . S
C1027 N1023 1.383 . S
C1027 C1026 1.439 . S
C1027 C1045 1.392 . S
N1028 Co1012 2.282 . S
N1028 C1031 1.332 . S
N1028 C1033 1.332 . S
C1029 C1030 1.386 . S
C1029 C1032 1.388 . S
C1030 C1029 1.386 . S
C1030 C1031 1.382 . S
C1030 H1056 0.950 . S
C1031 N1028 1.332 . S
C1031 C1030 1.382 . S
C1031 H1042 0.952 . S
C1032 C1029 1.388 . S
C1032 C1033 1.382 . S
C1032 H1057 0.950 . S
C1033 N1028 1.332 . S
C1033 C1032 1.382 . S
C1033 H1043 0.948 . S
N1034 Co1012 2.282 . S
N1034 C1038 1.332 . S
N1034 C1039 1.332 . S
C1035 C1036 1.388 . S
C1035 C1039 1.382 . S
C1035 H1058 0.950 . S
C1036 C1035 1.388 . S
C1036 C1037 1.386 . S
C1037 C1036 1.386 . S
C1037 C1038 1.382 . S
C1037 H1059 0.950 . S
C1038 N1034 1.332 . S
C1038 C1037 1.382 . S
C1038 H1040 0.952 . S
C1039 N1034 1.332 . S
C1039 C1035 1.382 . S
C1039 H1041 0.948 . S
H1040 C1038 0.952 . S
H1041 C1039 0.948 . S
H1042 C1031 0.952 . S
H1043 C1033 0.948 . S
C1044 C1010 1.395 . S
C1044 C1014 1.391 . S
C1045 C1007 1.389 . S
C1045 C1027 1.392 . S
C1046 C1017 1.392 . S
C1046 C1019 1.389 . S
C1047 C1022 1.395 . S
C1047 C1024 1.391 . S
H1048 C1008 0.951 . S
H1049 C1009 0.950 . S
H1050 C1015 0.949 . S
H1051 C1016 0.950 . S
H1052 C1020 0.951 . S
H1053 C1021 0.950 . S
H1054 C1025 0.949 . S
H1055 C1026 0.950 . S
H1056 C1030 0.950 . S
H1057 C1032 0.950 . S
H1058 C1035 0.950 . S
H1059 C1037 0.950 . S
C1060 C1061 1.443 . S
C1060 N1064 1.376 . S
C1060 C1098 1.389 . S
C1061 C1060 1.443 . S
C1061 C1062 1.340 . S
C1061 H1101 0.951 . S
C1062 C1061 1.340 . S
C1062 C1063 1.439 . S
C1062 H1102 0.950 . S
C1063 C1062 1.439 . S
C1063 N1064 1.374 . S
C1063 C1097 1.395 . S
N1064 C1060 1.376 . S
N1064 C1063 1.374 . S
N1064 Co1065 2.008 . S
Co1065 N1064 2.008 . S
Co1065 N1066 1.995 . S
Co1065 N1071 2.008 . S
Co1065 N1076 1.995 . S
Co1065 N1081 2.282 . S
Co1065 N1087 2.282 . S
N1066 Co1065 1.995 . S
N1066 C1067 1.376 . S
N1066 C1070 1.383 . S
C1067 N1066 1.376 . S
C1067 C1068 1.446 . S
C1067 C1097 1.391 . S
C1068 C1067 1.446 . S
C1068 C1069 1.339 . S
C1068 H1103 0.949 . S
C1069 C1068 1.339 . S
C1069 C1070 1.439 . S
C1069 H1104 0.950 . S
C1070 N1066 1.383 . S
C1070 C1069 1.439 . S
C1070 C1099 1.392 . S
N1071 Co1065 2.008 . S
N1071 C1072 1.376 . S
N1071 C1075 1.374 . S
C1072 N1071 1.376 . S
C1072 C1073 1.443 . S
C1072 C1099 1.389 . S
C1073 C1072 1.443 . S
C1073 C1074 1.340 . S
C1073 H1105 0.951 . S
C1074 C1073 1.340 . S
C1074 C1075 1.439 . S
C1074 H1106 0.950 . S
C1075 N1071 1.374 . S
C1075 C1074 1.439 . S
C1075 C1100 1.395 . S
N1076 Co1065 1.995 . S
N1076 C1077 1.376 . S
N1076 C1080 1.383 . S
C1077 N1076 1.376 . S
C1077 C1078 1.446 . S
C1077 C1100 1.391 . S
C1078 C1077 1.446 . S
C1078 C1079 1.339 . S
C1078 H1107 0.949 . S
C1079 C1078 1.339 . S
C1079 C1080 1.439 . S
C1079 H1108 0.950 . S
C1080 N1076 1.383 . S
C1080 C1079 1.439 . S
C1080 C1098 1.392 . S
N1081 Co1065 2.282 . S
N1081 C1084 1.332 . S
N1081 C1086 1.332 . S
C1082 C1083 1.386 . S
C1082 C1085 1.388 . S
C1083 C1082 1.386 . S
C1083 C1084 1.382 . S
C1083 H1109 0.950 . S
C1084 N1081 1.332 . S
C1084 C1083 1.382 . S
C1084 H1095 0.952 . S
C1085 C1082 1.388 . S
C1085 C1086 1.382 . S
C1085 H1110 0.950 . S
C1086 N1081 1.332 . S
C1086 C1085 1.382 . S
C1086 H1096 0.948 . S
N1087 Co1065 2.282 . S
N1087 C1091 1.332 . S
N1087 C1092 1.332 . S
C1088 C1089 1.388 . S
C1088 C1092 1.382 . S
C1088 H1111 0.950 . S
C1089 C1088 1.388 . S
C1089 C1090 1.386 . S
C1090 C1089 1.386 . S
C1090 C1091 1.382 . S
C1090 H1112 0.950 . S
C1091 N1087 1.332 . S
C1091 C1090 1.382 . S
C1091 H1093 0.952 . S
C1092 N1087 1.332 . S
C1092 C1088 1.382 . S
C1092 H1094 0.948 . S
H1093 C1091 0.952 . S
H1094 C1092 0.948 . S
H1095 C1084 0.952 . S
H1096 C1086 0.948 . S
C1097 C1063 1.395 . S
C1097 C1067 1.391 . S
C1098 C1060 1.389 . S
C1098 C1080 1.392 . S
C1099 C1070 1.392 . S
C1099 C1072 1.389 . S
C1100 C1075 1.395 . S
C1100 C1077 1.391 . S
H1101 C1061 0.951 . S
H1102 C1062 0.950 . S
H1103 C1068 0.949 . S
H1104 C1069 0.950 . S
H1105 C1073 0.951 . S
H1106 C1074 0.950 . S
H1107 C1078 0.949 . S
H1108 C1079 0.950 . S
H1109 C1083 0.950 . S
H1110 C1085 0.950 . S
H1111 C1088 0.950 . S
H1112 C1090 0.950 . S
C1113 C1114 1.443 . S
C1113 N1117 1.376 . S
C1113 C1151 1.389 . S
C1114 C1113 1.443 . S
C1114 C1115 1.340 . S
C1114 H1154 0.951 . S
C1115 C1114 1.340 . S
C1115 C1116 1.439 . S
C1115 H1155 0.950 . S
C1116 C1115 1.439 . S
C1116 N1117 1.374 . S
C1116 C1150 1.395 . S
N1117 C1113 1.376 . S
N1117 C1116 1.374 . S
N1117 Co1118 2.008 . S
Co1118 N1117 2.008 . S
Co1118 N1119 1.995 . S
Co1118 N1124 2.008 . S
Co1118 N1129 1.995 . S
Co1118 N1134 2.282 . S
Co1118 N1140 2.282 . S
N1119 Co1118 1.995 . S
N1119 C1120 1.376 . S
N1119 C1123 1.383 . S
C1120 N1119 1.376 . S
C1120 C1121 1.446 . S
C1120 C1150 1.391 . S
C1121 C1120 1.446 . S
C1121 C1122 1.339 . S
C1121 H1156 0.949 . S
C1122 C1121 1.339 . S
C1122 C1123 1.439 . S
C1122 H1157 0.950 . S
C1123 N1119 1.383 . S
C1123 C1122 1.439 . S
C1123 C1152 1.392 . S
N1124 Co1118 2.008 . S
N1124 C1125 1.376 . S
N1124 C1128 1.374 . S
C1125 N1124 1.376 . S
C1125 C1126 1.443 . S
C1125 C1152 1.389 . S
C1126 C1125 1.443 . S
C1126 C1127 1.340 . S
C1126 H1158 0.951 . S
C1127 C1126 1.340 . S
C1127 C1128 1.439 . S
C1127 H1159 0.950 . S
C1128 N1124 1.374 . S
C1128 C1127 1.439 . S
C1128 C1153 1.395 . S
N1129 Co1118 1.995 . S
N1129 C1130 1.376 . S
N1129 C1133 1.383 . S
C1130 N1129 1.376 . S
C1130 C1131 1.446 . S
C1130 C1153 1.391 . S
C1131 C1130 1.446 . S
C1131 C1132 1.339 . S
C1131 H1160 0.949 . S
C1132 C1131 1.339 . S
C1132 C1133 1.439 . S
C1132 H1161 0.950 . S
C1133 N1129 1.383 . S
C1133 C1132 1.439 . S
C1133 C1151 1.392 . S
N1134 Co1118 2.282 . S
N1134 C1137 1.332 . S
N1134 C1139 1.332 . S
C1135 C1136 1.386 . S
C1135 C1138 1.388 . S
C1136 C1135 1.386 . S
C1136 C1137 1.382 . S
C1136 H1162 0.950 . S
C1137 N1134 1.332 . S
C1137 C1136 1.382 . S
C1137 H1148 0.952 . S
C1138 C1135 1.388 . S
C1138 C1139 1.382 . S
C1138 H1163 0.950 . S
C1139 N1134 1.332 . S
C1139 C1138 1.382 . S
C1139 H1149 0.948 . S
N1140 Co1118 2.282 . S
N1140 C1144 1.332 . S
N1140 C1145 1.332 . S
C1141 C1142 1.388 . S
C1141 C1145 1.382 . S
C1141 H1164 0.950 . S
C1142 C1141 1.388 . S
C1142 C1143 1.386 . S
C1143 C1142 1.386 . S
C1143 C1144 1.382 . S
C1143 H1165 0.950 . S
C1144 N1140 1.332 . S
C1144 C1143 1.382 . S
C1144 H1146 0.952 . S
C1145 N1140 1.332 . S
C1145 C1141 1.382 . S
C1145 H1147 0.948 . S
H1146 C1144 0.952 . S
H1147 C1145 0.948 . S
H1148 C1137 0.952 . S
H1149 C1139 0.948 . S
C1150 C1116 1.395 . S
C1150 C1120 1.391 . S
C1151 C1113 1.389 . S
C1151 C1133 1.392 . S
C1152 C1123 1.392 . S
C1152 C1125 1.389 . S
C1153 C1128 1.395 . S
C1153 C1130 1.391 . S
H1154 C1114 0.951 . S
H1155 C1115 0.950 . S
H1156 C1121 0.949 . S
H1157 C1122 0.950 . S
H1158 C1126 0.951 . S
H1159 C1127 0.950 . S
H1160 C1131 0.949 . S
H1161 C1132 0.950 . S
H1162 C1136 0.950 . S
H1163 C1138 0.950 . S
H1164 C1141 0.950 . S
H1165 C1143 0.950 . S
C1166 C1167 1.443 . S
C1166 N1170 1.376 . S
C1166 C1204 1.389 . S
C1167 C1166 1.443 . S
C1167 C1168 1.340 . S
C1167 H1207 0.951 . S
C1168 C1167 1.340 . S
C1168 C1169 1.439 . S
C1168 H1208 0.950 . S
C1169 C1168 1.439 . S
C1169 N1170 1.374 . S
C1169 C1203 1.395 . S
N1170 C1166 1.376 . S
N1170 C1169 1.374 . S
N1170 Co1171 2.008 . S
Co1171 N1170 2.008 . S
Co1171 N1172 1.995 . S
Co1171 N1177 2.008 . S
Co1171 N1182 1.995 . S
Co1171 N1187 2.282 . S
Co1171 N1193 2.282 . S
N1172 Co1171 1.995 . S
N1172 C1173 1.376 . S
N1172 C1176 1.383 . S
C1173 N1172 1.376 . S
C1173 C1174 1.446 . S
C1173 C1203 1.391 . S
C1174 C1173 1.446 . S
C1174 C1175 1.339 . S
C1174 H1209 0.949 . S
C1175 C1174 1.339 . S
C1175 C1176 1.439 . S
C1175 H1210 0.950 . S
C1176 N1172 1.383 . S
C1176 C1175 1.439 . S
C1176 C1205 1.392 . S
N1177 Co1171 2.008 . S
N1177 C1178 1.376 . S
N1177 C1181 1.374 . S
C1178 N1177 1.376 . S
C1178 C1179 1.443 . S
C1178 C1205 1.389 . S
C1179 C1178 1.443 . S
C1179 C1180 1.340 . S
C1179 H1211 0.951 . S
C1180 C1179 1.340 . S
C1180 C1181 1.439 . S
C1180 H1212 0.950 . S
C1181 N1177 1.374 . S
C1181 C1180 1.439 . S
C1181 C1206 1.395 . S
N1182 Co1171 1.995 . S
N1182 C1183 1.376 . S
N1182 C1186 1.383 . S
C1183 N1182 1.376 . S
C1183 C1184 1.446 . S
C1183 C1206 1.391 . S
C1184 C1183 1.446 . S
C1184 C1185 1.339 . S
C1184 H1213 0.949 . S
C1185 C1184 1.339 . S
C1185 C1186 1.439 . S
C1185 H1214 0.950 . S
C1186 N1182 1.383 . S
C1186 C1185 1.439 . S
C1186 C1204 1.392 . S
N1187 Co1171 2.282 . S
N1187 C1190 1.332 . S
N1187 C1192 1.332 . S
C1188 C1189 1.386 . S
C1188 C1191 1.388 . S
C1189 C1188 1.386 . S
C1189 C1190 1.382 . S
C1189 H1215 0.950 . S
C1190 N1187 1.332 . S
C1190 C1189 1.382 . S
C1190 H1201 0.952 . S
C1191 C1188 1.388 . S
C1191 C1192 1.382 . S
C1191 H1216 0.950 . S
C1192 N1187 1.332 . S
C1192 C1191 1.382 . S
C1192 H1202 0.948 . S
N1193 Co1171 2.282 . S
N1193 C1197 1.332 . S
N1193 C1198 1.332 . S
C1194 C1195 1.388 . S
C1194 C1198 1.382 . S
C1194 H1217 0.950 . S
C1195 C1194 1.388 . S
C1195 C1196 1.386 . S
C1196 C1195 1.386 . S
C1196 C1197 1.382 . S
C1196 H1218 0.950 . S
C1197 N1193 1.332 . S
C1197 C1196 1.382 . S
C1197 H1199 0.952 . S
C1198 N1193 1.332 . S
C1198 C1194 1.382 . S
C1198 H1200 0.948 . S
H1199 C1197 0.952 . S
H1200 C1198 0.948 . S
H1201 C1190 0.952 . S
H1202 C1192 0.948 . S
C1203 C1169 1.395 . S
C1203 C1173 1.391 . S
C1204 C1166 1.389 . S
C1204 C1186 1.392 . S
C1205 C1176 1.392 . S
C1205 C1178 1.389 . S
C1206 C1181 1.395 . S
C1206 C1183 1.391 . S
H1207 C1167 0.951 . S
H1208 C1168 0.950 . S
H1209 C1174 0.949 . S
H1210 C1175 0.950 . S
H1211 C1179 0.951 . S
H1212 C1180 0.950 . S
H1213 C1184 0.949 . S
H1214 C1185 0.950 . S
H1215 C1189 0.950 . S
H1216 C1191 0.950 . S
H1217 C1194 0.950 . S
H1218 C1196 0.950 . S
C1219 C1220 1.443 . S
C1219 N1223 1.376 . S
C1219 C1257 1.389 . S
C1220 C1219 1.443 . S
C1220 C1221 1.340 . S
C1220 H1260 0.951 . S
C1221 C1220 1.340 . S
C1221 C1222 1.439 . S
C1221 H1261 0.950 . S
C1222 C1221 1.439 . S
C1222 N1223 1.374 . S
C1222 C1256 1.395 . S
N1223 C1219 1.376 . S
N1223 C1222 1.374 . S
N1223 Co1224 2.008 . S
Co1224 N1223 2.008 . S
Co1224 N1225 1.995 . S
Co1224 N1230 2.008 . S
Co1224 N1235 1.995 . S
Co1224 N1240 2.282 . S
Co1224 N1246 2.282 . S
N1225 Co1224 1.995 . S
N1225 C1226 1.376 . S
N1225 C1229 1.383 . S
C1226 N1225 1.376 . S
C1226 C1227 1.446 . S
C1226 C1256 1.391 . S
C1227 C1226 1.446 . S
C1227 C1228 1.339 . S
C1227 H1262 0.949 . S
C1228 C1227 1.339 . S
C1228 C1229 1.439 . S
C1228 H1263 0.950 . S
C1229 N1225 1.383 . S
C1229 C1228 1.439 . S
C1229 C1258 1.392 . S
N1230 Co1224 2.008 . S
N1230 C1231 1.376 . S
N1230 C1234 1.374 . S
C1231 N1230 1.376 . S
C1231 C1232 1.443 . S
C1231 C1258 1.389 . S
C1232 C1231 1.443 . S
C1232 C1233 1.340 . S
C1232 H1264 0.951 . S
C1233 C1232 1.340 . S
C1233 C1234 1.439 . S
C1233 H1265 0.950 . S
C1234 N1230 1.374 . S
C1234 C1233 1.439 . S
C1234 C1259 1.395 . S
N1235 Co1224 1.995 . S
N1235 C1236 1.376 . S
N1235 C1239 1.383 . S
C1236 N1235 1.376 . S
C1236 C1237 1.446 . S
C1236 C1259 1.391 . S
C1237 C1236 1.446 . S
C1237 C1238 1.339 . S
C1237 H1266 0.949 . S
C1238 C1237 1.339 . S
C1238 C1239 1.439 . S
C1238 H1267 0.950 . S
C1239 N1235 1.383 . S
C1239 C1238 1.439 . S
C1239 C1257 1.392 . S
N1240 Co1224 2.282 . S
N1240 C1243 1.332 . S
N1240 C1245 1.332 . S
C1241 C1242 1.386 . S
C1241 C1244 1.388 . S
C1242 C1241 1.386 . S
C1242 C1243 1.382 . S
C1242 H1268 0.950 . S
C1243 N1240 1.332 . S
C1243 C1242 1.382 . S
C1243 H1254 0.952 . S
C1244 C1241 1.388 . S
C1244 C1245 1.382 . S
C1244 H1269 0.950 . S
C1245 N1240 1.332 . S
C1245 C1244 1.382 . S
C1245 H1255 0.948 . S
N1246 Co1224 2.282 . S
N1246 C1250 1.332 . S
N1246 C1251 1.332 . S
C1247 C1248 1.388 . S
C1247 C1251 1.382 . S
C1247 H1270 0.950 . S
C1248 C1247 1.388 . S
C1248 C1249 1.386 . S
C1249 C1248 1.386 . S
C1249 C1250 1.382 . S
C1249 H1271 0.950 . S
C1250 N1246 1.332 . S
C1250 C1249 1.382 . S
C1250 H1252 0.952 . S
C1251 N1246 1.332 . S
C1251 C1247 1.382 . S
C1251 H1253 0.948 . S
H1252 C1250 0.952 . S
H1253 C1251 0.948 . S
H1254 C1243 0.952 . S
H1255 C1245 0.948 . S
C1256 C1222 1.395 . S
C1256 C1226 1.391 . S
C1257 C1219 1.389 . S
C1257 C1239 1.392 . S
C1258 C1229 1.392 . S
C1258 C1231 1.389 . S
C1259 C1234 1.395 . S
C1259 C1236 1.391 . S
H1260 C1220 0.951 . S
H1261 C1221 0.950 . S
H1262 C1227 0.949 . S
H1263 C1228 0.950 . S
H1264 C1232 0.951 . S
H1265 C1233 0.950 . S
H1266 C1237 0.949 . S
H1267 C1238 0.950 . S
H1268 C1242 0.950 . S
H1269 C1244 0.950 . S
H1270 C1247 0.950 . S
H1271 C1249 0.950 . S
C1272 C1273 1.349 . S
C1272 C1274 1.327 . S
C1272 H1297 0.950 . S
C1273 C1272 1.349 . S
C1273 C1289 1.349 . S
C1274 C1272 1.327 . S
C1274 C1293 1.429 . S
C1274 H1298 0.950 . S
C1275 C1292 1.574 . S
C1275 C1294 1.368 . S
C1275 H1299 0.949 . S
H1276 C1280 0.949 . S
C1277 C1278 1.349 . S
C1277 C1279 1.327 . S
C1277 H1300 0.950 . S
C1278 C1277 1.349 . S
C1278 C1290 1.349 . S
C1279 C1277 1.327 . S
C1279 C1295 1.429 . S
C1279 H1301 0.950 . S
C1280 H1276 0.949 . S
C1280 C1288 1.574 . S
C1280 C1296 1.368 . S
H1281 C1289 0.950 . S
H1282 C1287 0.950 . S
H1283 C1288 0.949 . S
H1284 C1290 0.950 . S
H1285 C1291 0.950 . S
H1286 C1292 0.949 . S
C1287 H1282 0.950 . S
C1287 C1289 1.327 . S
C1287 C1293 1.429 . S
C1288 C1280 1.574 . S
C1288 H1283 0.949 . S
C1288 C1294 1.368 . S
C1289 C1273 1.349 . S
C1289 H1281 0.950 . S
C1289 C1287 1.327 . S
C1290 C1278 1.349 . S
C1290 H1284 0.950 . S
C1290 C1291 1.327 . S
C1291 H1285 0.950 . S
C1291 C1290 1.327 . S
C1291 C1295 1.429 . S
C1292 C1275 1.574 . S
C1292 H1286 0.949 . S
C1292 C1296 1.368 . S
C1293 C1274 1.429 . S
C1293 C1287 1.429 . S
C1293 C1294 1.523 . S
C1294 C1275 1.368 . S
C1294 C1288 1.368 . S
C1294 C1293 1.523 . S
C1295 C1279 1.429 . S
C1295 C1291 1.429 . S
C1295 C1296 1.523 . S
C1296 C1280 1.368 . S
C1296 C1292 1.368 . S
C1296 C1295 1.523 . S
H1297 C1272 0.950 . S
H1298 C1274 0.950 . S
H1299 C1275 0.949 . S
H1300 C1277 0.950 . S
H1301 C1279 0.950 . S
C1302 C1303 1.349 . S
C1302 C1304 1.327 . S
C1302 H1327 0.950 . S
C1303 C1302 1.349 . S
C1303 C1319 1.349 . S
C1304 C1302 1.327 . S
C1304 C1323 1.429 . S
C1304 H1328 0.950 . S
C1305 C1322 1.574 . S
C1305 C1324 1.368 . S
C1305 H1329 0.949 . S
H1306 C1310 0.949 . S
C1307 C1308 1.349 . S
C1307 C1309 1.327 . S
C1307 H1330 0.950 . S
C1308 C1307 1.349 . S
C1308 C1320 1.349 . S
C1309 C1307 1.327 . S
C1309 C1325 1.429 . S
C1309 H1331 0.950 . S
C1310 H1306 0.949 . S
C1310 C1318 1.574 . S
C1310 C1326 1.368 . S
H1311 C1319 0.950 . S
H1312 C1317 0.950 . S
H1313 C1318 0.949 . S
H1314 C1320 0.950 . S
H1315 C1321 0.950 . S
H1316 C1322 0.949 . S
C1317 H1312 0.950 . S
C1317 C1319 1.327 . S
C1317 C1323 1.429 . S
C1318 C1310 1.574 . S
C1318 H1313 0.949 . S
C1318 C1324 1.368 . S
C1319 C1303 1.349 . S
C1319 H1311 0.950 . S
C1319 C1317 1.327 . S
C1320 C1308 1.349 . S
C1320 H1314 0.950 . S
C1320 C1321 1.327 . S
C1321 H1315 0.950 . S
C1321 C1320 1.327 . S
C1321 C1325 1.429 . S
C1322 C1305 1.574 . S
C1322 H1316 0.949 . S
C1322 C1326 1.368 . S
C1323 C1304 1.429 . S
C1323 C1317 1.429 . S
C1323 C1324 1.523 . S
C1324 C1305 1.368 . S
C1324 C1318 1.368 . S
C1324 C1323 1.523 . S
C1325 C1309 1.429 . S
C1325 C1321 1.429 . S
C1325 C1326 1.523 . S
C1326 C1310 1.368 . S
C1326 C1322 1.368 . S
C1326 C1325 1.523 . S
H1327 C1302 0.950 . S
H1328 C1304 0.950 . S
H1329 C1305 0.949 . S
H1330 C1307 0.950 . S
H1331 C1309 0.950 . S
C1332 C1333 1.349 . S
C1332 C1334 1.327 . S
C1332 H1357 0.950 . S
C1333 C1332 1.349 . S
C1333 C1349 1.349 . S
C1334 C1332 1.327 . S
C1334 C1353 1.429 . S
C1334 H1358 0.950 . S
C1335 C1352 1.574 . S
C1335 C1354 1.368 . S
C1335 H1359 0.949 . S
H1336 C1340 0.949 . S
C1337 C1338 1.349 . S
C1337 C1339 1.327 . S
C1337 H1360 0.950 . S
C1338 C1337 1.349 . S
C1338 C1350 1.349 . S
C1339 C1337 1.327 . S
C1339 C1355 1.429 . S
C1339 H1361 0.950 . S
C1340 H1336 0.949 . S
C1340 C1348 1.574 . S
C1340 C1356 1.368 . S
H1341 C1349 0.950 . S
H1342 C1347 0.950 . S
H1343 C1348 0.949 . S
H1344 C1350 0.950 . S
H1345 C1351 0.950 . S
H1346 C1352 0.949 . S
C1347 H1342 0.950 . S
C1347 C1349 1.327 . S
C1347 C1353 1.429 . S
C1348 C1340 1.574 . S
C1348 H1343 0.949 . S
C1348 C1354 1.368 . S
C1349 C1333 1.349 . S
C1349 H1341 0.950 . S
C1349 C1347 1.327 . S
C1350 C1338 1.349 . S
C1350 H1344 0.950 . S
C1350 C1351 1.327 . S
C1351 H1345 0.950 . S
C1351 C1350 1.327 . S
C1351 C1355 1.429 . S
C1352 C1335 1.574 . S
C1352 H1346 0.949 . S
C1352 C1356 1.368 . S
C1353 C1334 1.429 . S
C1353 C1347 1.429 . S
C1353 C1354 1.523 . S
C1354 C1335 1.368 . S
C1354 C1348 1.368 . S
C1354 C1353 1.523 . S
C1355 C1339 1.429 . S
C1355 C1351 1.429 . S
C1355 C1356 1.523 . S
C1356 C1340 1.368 . S
C1356 C1352 1.368 . S
C1356 C1355 1.523 . S
H1357 C1332 0.950 . S
H1358 C1334 0.950 . S
H1359 C1335 0.949 . S
H1360 C1337 0.950 . S
H1361 C1339 0.950 . S
C1362 C1363 1.349 . S
C1362 C1364 1.327 . S
C1362 H1387 0.950 . S
C1363 C1362 1.349 . S
C1363 C1379 1.349 . S
C1364 C1362 1.327 . S
C1364 C1383 1.429 . S
C1364 H1388 0.950 . S
C1365 C1382 1.574 . S
C1365 C1384 1.368 . S
C1365 H1389 0.949 . S
H1366 C1370 0.949 . S
C1367 C1368 1.349 . S
C1367 C1369 1.327 . S
C1367 H1390 0.950 . S
C1368 C1367 1.349 . S
C1368 C1380 1.349 . S
C1369 C1367 1.327 . S
C1369 C1385 1.429 . S
C1369 H1391 0.950 . S
C1370 H1366 0.949 . S
C1370 C1378 1.574 . S
C1370 C1386 1.368 . S
H1371 C1379 0.950 . S
H1372 C1377 0.950 . S
H1373 C1378 0.949 . S
H1374 C1380 0.950 . S
H1375 C1381 0.950 . S
H1376 C1382 0.949 . S
C1377 H1372 0.950 . S
C1377 C1379 1.327 . S
C1377 C1383 1.429 . S
C1378 C1370 1.574 . S
C1378 H1373 0.949 . S
C1378 C1384 1.368 . S
C1379 C1363 1.349 . S
C1379 H1371 0.950 . S
C1379 C1377 1.327 . S
C1380 C1368 1.349 . S
C1380 H1374 0.950 . S
C1380 C1381 1.327 . S
C1381 H1375 0.950 . S
C1381 C1380 1.327 . S
C1381 C1385 1.429 . S
C1382 C1365 1.574 . S
C1382 H1376 0.949 . S
C1382 C1386 1.368 . S
C1383 C1364 1.429 . S
C1383 C1377 1.429 . S
C1383 C1384 1.523 . S
C1384 C1365 1.368 . S
C1384 C1378 1.368 . S
C1384 C1383 1.523 . S
C1385 C1369 1.429 . S
C1385 C1381 1.429 . S
C1385 C1386 1.523 . S
C1386 C1370 1.368 . S
C1386 C1382 1.368 . S
C1386 C1385 1.523 . S
H1387 C1362 0.950 . S
H1388 C1364 0.950 . S
H1389 C1365 0.949 . S
H1390 C1367 0.950 . S
H1391 C1369 0.950 . S
C1392 C1393 1.349 . S
C1392 C1394 1.327 . S
C1392 H1417 0.950 . S
C1393 C1392 1.349 . S
C1393 C1409 1.349 . S
C1394 C1392 1.327 . S
C1394 C1413 1.429 . S
C1394 H1418 0.950 . S
C1395 C1412 1.574 . S
C1395 C1414 1.368 . S
C1395 H1419 0.949 . S
H1396 C1400 0.949 . S
C1397 C1398 1.349 . S
C1397 C1399 1.327 . S
C1397 H1420 0.950 . S
C1398 C1397 1.349 . S
C1398 C1410 1.349 . S
C1399 C1397 1.327 . S
C1399 C1415 1.429 . S
C1399 H1421 0.950 . S
C1400 H1396 0.949 . S
C1400 C1408 1.574 . S
C1400 C1416 1.368 . S
H1401 C1409 0.950 . S
H1402 C1407 0.950 . S
H1403 C1408 0.949 . S
H1404 C1410 0.950 . S
H1405 C1411 0.950 . S
H1406 C1412 0.949 . S
C1407 H1402 0.950 . S
C1407 C1409 1.327 . S
C1407 C1413 1.429 . S
C1408 C1400 1.574 . S
C1408 H1403 0.949 . S
C1408 C1414 1.368 . S
C1409 C1393 1.349 . S
C1409 H1401 0.950 . S
C1409 C1407 1.327 . S
C1410 C1398 1.349 . S
C1410 H1404 0.950 . S
C1410 C1411 1.327 . S
C1411 H1405 0.950 . S
C1411 C1410 1.327 . S
C1411 C1415 1.429 . S
C1412 C1395 1.574 . S
C1412 H1406 0.949 . S
C1412 C1416 1.368 . S
C1413 C1394 1.429 . S
C1413 C1407 1.429 . S
C1413 C1414 1.523 . S
C1414 C1395 1.368 . S
C1414 C1408 1.368 . S
C1414 C1413 1.523 . S
C1415 C1399 1.429 . S
C1415 C1411 1.429 . S
C1415 C1416 1.523 . S
C1416 C1400 1.368 . S
C1416 C1412 1.368 . S
C1416 C1415 1.523 . S
H1417 C1392 0.950 . S
H1418 C1394 0.950 . S
H1419 C1395 0.949 . S
H1420 C1397 0.950 . S
H1421 C1399 0.950 . S
C1422 C1423 1.349 . S
C1422 C1424 1.327 . S
C1422 H1447 0.950 . S
C1423 C1422 1.349 . S
C1423 C1439 1.349 . S
C1424 C1422 1.327 . S
C1424 C1443 1.429 . S
C1424 H1448 0.950 . S
C1425 C1442 1.574 . S
C1425 C1444 1.368 . S
C1425 H1449 0.949 . S
H1426 C1430 0.949 . S
C1427 C1428 1.349 . S
C1427 C1429 1.327 . S
C1427 H1450 0.950 . S
C1428 C1427 1.349 . S
C1428 C1440 1.349 . S
C1429 C1427 1.327 . S
C1429 C1445 1.429 . S
C1429 H1451 0.950 . S
C1430 H1426 0.949 . S
C1430 C1438 1.574 . S
C1430 C1446 1.368 . S
H1431 C1439 0.950 . S
H1432 C1437 0.950 . S
H1433 C1438 0.949 . S
H1434 C1440 0.950 . S
H1435 C1441 0.950 . S
H1436 C1442 0.949 . S
C1437 H1432 0.950 . S
C1437 C1439 1.327 . S
C1437 C1443 1.429 . S
C1438 C1430 1.574 . S
C1438 H1433 0.949 . S
C1438 C1444 1.368 . S
C1439 C1423 1.349 . S
C1439 H1431 0.950 . S
C1439 C1437 1.327 . S
C1440 C1428 1.349 . S
C1440 H1434 0.950 . S
C1440 C1441 1.327 . S
C1441 H1435 0.950 . S
C1441 C1440 1.327 . S
C1441 C1445 1.429 . S
C1442 C1425 1.574 . S
C1442 H1436 0.949 . S
C1442 C1446 1.368 . S
C1443 C1424 1.429 . S
C1443 C1437 1.429 . S
C1443 C1444 1.523 . S
C1444 C1425 1.368 . S
C1444 C1438 1.368 . S
C1444 C1443 1.523 . S
C1445 C1429 1.429 . S
C1445 C1441 1.429 . S
C1445 C1446 1.523 . S
C1446 C1430 1.368 . S
C1446 C1442 1.368 . S
C1446 C1445 1.523 . S
H1447 C1422 0.950 . S
H1448 C1424 0.950 . S
H1449 C1425 0.949 . S
H1450 C1427 0.950 . S
H1451 C1429 0.950 . S
C1452 C1453 1.349 . S
C1452 C1454 1.327 . S
C1452 H1477 0.950 . S
C1453 C1452 1.349 . S
C1453 C1469 1.349 . S
C1454 C1452 1.327 . S
C1454 C1473 1.429 . S
C1454 H1478 0.950 . S
C1455 C1472 1.574 . S
C1455 C1474 1.368 . S
C1455 H1479 0.949 . S
H1456 C1460 0.949 . S
C1457 C1458 1.349 . S
C1457 C1459 1.327 . S
C1457 H1480 0.950 . S
C1458 C1457 1.349 . S
C1458 C1470 1.349 . S
C1459 C1457 1.327 . S
C1459 C1475 1.429 . S
C1459 H1481 0.950 . S
C1460 H1456 0.949 . S
C1460 C1468 1.574 . S
C1460 C1476 1.368 . S
H1461 C1469 0.950 . S
H1462 C1467 0.950 . S
H1463 C1468 0.949 . S
H1464 C1470 0.950 . S
H1465 C1471 0.950 . S
H1466 C1472 0.949 . S
C1467 H1462 0.950 . S
C1467 C1469 1.327 . S
C1467 C1473 1.429 . S
C1468 C1460 1.574 . S
C1468 H1463 0.949 . S
C1468 C1474 1.368 . S
C1469 C1453 1.349 . S
C1469 H1461 0.950 . S
C1469 C1467 1.327 . S
C1470 C1458 1.349 . S
C1470 H1464 0.950 . S
C1470 C1471 1.327 . S
C1471 H1465 0.950 . S
C1471 C1470 1.327 . S
C1471 C1475 1.429 . S
C1472 C1455 1.574 . S
C1472 H1466 0.949 . S
C1472 C1476 1.368 . S
C1473 C1454 1.429 . S
C1473 C1467 1.429 . S
C1473 C1474 1.523 . S
C1474 C1455 1.368 . S
C1474 C1468 1.368 . S
C1474 C1473 1.523 . S
C1475 C1459 1.429 . S
C1475 C1471 1.429 . S
C1475 C1476 1.523 . S
C1476 C1460 1.368 . S
C1476 C1472 1.368 . S
C1476 C1475 1.523 . S
H1477 C1452 0.950 . S
H1478 C1454 0.950 . S
H1479 C1455 0.949 . S
H1480 C1457 0.950 . S
H1481 C1459 0.950 . S
C1482 C1483 1.349 . S
C1482 C1484 1.327 . S
C1482 H1507 0.950 . S
C1483 C1482 1.349 . S
C1483 C1499 1.349 . S
C1484 C1482 1.327 . S
C1484 C1503 1.429 . S
C1484 H1508 0.950 . S
C1485 C1502 1.574 . S
C1485 C1504 1.368 . S
C1485 H1509 0.949 . S
H1486 C1490 0.949 . S
C1487 C1488 1.349 . S
C1487 C1489 1.327 . S
C1487 H1510 0.950 . S
C1488 C1487 1.349 . S
C1488 C1500 1.349 . S
C1489 C1487 1.327 . S
C1489 C1505 1.429 . S
C1489 H1511 0.950 . S
C1490 H1486 0.949 . S
C1490 C1498 1.574 . S
C1490 C1506 1.368 . S
H1491 C1499 0.950 . S
H1492 C1497 0.950 . S
H1493 C1498 0.949 . S
H1494 C1500 0.950 . S
H1495 C1501 0.950 . S
H1496 C1502 0.949 . S
C1497 H1492 0.950 . S
C1497 C1499 1.327 . S
C1497 C1503 1.429 . S
C1498 C1490 1.574 . S
C1498 H1493 0.949 . S
C1498 C1504 1.368 . S
C1499 C1483 1.349 . S
C1499 H1491 0.950 . S
C1499 C1497 1.327 . S
C1500 C1488 1.349 . S
C1500 H1494 0.950 . S
C1500 C1501 1.327 . S
C1501 H1495 0.950 . S
C1501 C1500 1.327 . S
C1501 C1505 1.429 . S
C1502 C1485 1.574 . S
C1502 H1496 0.949 . S
C1502 C1506 1.368 . S
C1503 C1484 1.429 . S
C1503 C1497 1.429 . S
C1503 C1504 1.523 . S
C1504 C1485 1.368 . S
C1504 C1498 1.368 . S
C1504 C1503 1.523 . S
C1505 C1489 1.429 . S
C1505 C1501 1.429 . S
C1505 C1506 1.523 . S
C1506 C1490 1.368 . S
C1506 C1502 1.368 . S
C1506 C1505 1.523 . S
H1507 C1482 0.950 . S
H1508 C1484 0.950 . S
H1509 C1485 0.949 . S
H1510 C1487 0.950 . S
H1511 C1489 0.950 . S
C1512 C1513 1.349 . S
C1512 C1514 1.327 . S
C1512 H1537 0.950 . S
C1513 C1512 1.349 . S
C1513 C1529 1.349 . S
C1514 C1512 1.327 . S
C1514 C1533 1.429 . S
C1514 H1538 0.950 . S
C1515 C1532 1.574 . S
C1515 C1534 1.368 . S
C1515 H1539 0.949 . S
H1516 C1520 0.949 . S
C1517 C1518 1.349 . S
C1517 C1519 1.327 . S
C1517 H1540 0.950 . S
C1518 C1517 1.349 . S
C1518 C1530 1.349 . S
C1519 C1517 1.327 . S
C1519 C1535 1.429 . S
C1519 H1541 0.950 . S
C1520 H1516 0.949 . S
C1520 C1528 1.574 . S
C1520 C1536 1.368 . S
H1521 C1529 0.950 . S
H1522 C1527 0.950 . S
H1523 C1528 0.949 . S
H1524 C1530 0.950 . S
H1525 C1531 0.950 . S
H1526 C1532 0.949 . S
C1527 H1522 0.950 . S
C1527 C1529 1.327 . S
C1527 C1533 1.429 . S
C1528 C1520 1.574 . S
C1528 H1523 0.949 . S
C1528 C1534 1.368 . S
C1529 C1513 1.349 . S
C1529 H1521 0.950 . S
C1529 C1527 1.327 . S
C1530 C1518 1.349 . S
C1530 H1524 0.950 . S
C1530 C1531 1.327 . S
C1531 H1525 0.950 . S
C1531 C1530 1.327 . S
C1531 C1535 1.429 . S
C1532 C1515 1.574 . S
C1532 H1526 0.949 . S
C1532 C1536 1.368 . S
C1533 C1514 1.429 . S
C1533 C1527 1.429 . S
C1533 C1534 1.523 . S
C1534 C1515 1.368 . S
C1534 C1528 1.368 . S
C1534 C1533 1.523 . S
C1535 C1519 1.429 . S
C1535 C1531 1.429 . S
C1535 C1536 1.523 . S
C1536 C1520 1.368 . S
C1536 C1532 1.368 . S
C1536 C1535 1.523 . S
H1537 C1512 0.950 . S
H1538 C1514 0.950 . S
H1539 C1515 0.949 . S
H1540 C1517 0.950 . S
H1541 C1519 0.950 . S
C1542 C1543 1.349 . S
C1542 C1544 1.327 . S
C1542 H1567 0.950 . S
C1543 C1542 1.349 . S
C1543 C1559 1.349 . S
C1544 C1542 1.327 . S
C1544 C1563 1.429 . S
C1544 H1568 0.950 . S
C1545 C1562 1.574 . S
C1545 C1564 1.368 . S
C1545 H1569 0.949 . S
H1546 C1550 0.949 . S
C1547 C1548 1.349 . S
C1547 C1549 1.327 . S
C1547 H1570 0.950 . S
C1548 C1547 1.349 . S
C1548 C1560 1.349 . S
C1549 C1547 1.327 . S
C1549 C1565 1.429 . S
C1549 H1571 0.950 . S
C1550 H1546 0.949 . S
C1550 C1558 1.574 . S
C1550 C1566 1.368 . S
H1551 C1559 0.950 . S
H1552 C1557 0.950 . S
H1553 C1558 0.949 . S
H1554 C1560 0.950 . S
H1555 C1561 0.950 . S
H1556 C1562 0.949 . S
C1557 H1552 0.950 . S
C1557 C1559 1.327 . S
C1557 C1563 1.429 . S
C1558 C1550 1.574 . S
C1558 H1553 0.949 . S
C1558 C1564 1.368 . S
C1559 C1543 1.349 . S
C1559 H1551 0.950 . S
C1559 C1557 1.327 . S
C1560 C1548 1.349 . S
C1560 H1554 0.950 . S
C1560 C1561 1.327 . S
C1561 H1555 0.950 . S
C1561 C1560 1.327 . S
C1561 C1565 1.429 . S
C1562 C1545 1.574 . S
C1562 H1556 0.949 . S
C1562 C1566 1.368 . S
C1563 C1544 1.429 . S
C1563 C1557 1.429 . S
C1563 C1564 1.523 . S
C1564 C1545 1.368 . S
C1564 C1558 1.368 . S
C1564 C1563 1.523 . S
C1565 C1549 1.429 . S
C1565 C1561 1.429 . S
C1565 C1566 1.523 . S
C1566 C1550 1.368 . S
C1566 C1562 1.368 . S
C1566 C1565 1.523 . S
H1567 C1542 0.950 . S
H1568 C1544 0.950 . S
H1569 C1545 0.949 . S
H1570 C1547 0.950 . S
H1571 C1549 0.950 . S
C1572 C1573 1.349 . S
C1572 C1574 1.327 . S
C1572 H1597 0.950 . S
C1573 C1572 1.349 . S
C1573 C1589 1.349 . S
C1574 C1572 1.327 . S
C1574 C1593 1.429 . S
C1574 H1598 0.950 . S
C1575 C1592 1.574 . S
C1575 C1594 1.368 . S
C1575 H1599 0.949 . S
H1576 C1580 0.949 . S
C1577 C1578 1.349 . S
C1577 C1579 1.327 . S
C1577 H1600 0.950 . S
C1578 C1577 1.349 . S
C1578 C1590 1.349 . S
C1579 C1577 1.327 . S
C1579 C1595 1.429 . S
C1579 H1601 0.950 . S
C1580 H1576 0.949 . S
C1580 C1588 1.574 . S
C1580 C1596 1.368 . S
H1581 C1589 0.950 . S
H1582 C1587 0.950 . S
H1583 C1588 0.949 . S
H1584 C1590 0.950 . S
H1585 C1591 0.950 . S
H1586 C1592 0.949 . S
C1587 H1582 0.950 . S
C1587 C1589 1.327 . S
C1587 C1593 1.429 . S
C1588 C1580 1.574 . S
C1588 H1583 0.949 . S
C1588 C1594 1.368 . S
C1589 C1573 1.349 . S
C1589 H1581 0.950 . S
C1589 C1587 1.327 . S
C1590 C1578 1.349 . S
C1590 H1584 0.950 . S
C1590 C1591 1.327 . S
C1591 H1585 0.950 . S
C1591 C1590 1.327 . S
C1591 C1595 1.429 . S
C1592 C1575 1.574 . S
C1592 H1586 0.949 . S
C1592 C1596 1.368 . S
C1593 C1574 1.429 . S
C1593 C1587 1.429 . S
C1593 C1594 1.523 . S
C1594 C1575 1.368 . S
C1594 C1588 1.368 . S
C1594 C1593 1.523 . S
C1595 C1579 1.429 . S
C1595 C1591 1.429 . S
C1595 C1596 1.523 . S
C1596 C1580 1.368 . S
C1596 C1592 1.368 . S
C1596 C1595 1.523 . S
H1597 C1572 0.950 . S
H1598 C1574 0.950 . S
H1599 C1575 0.949 . S
H1600 C1577 0.950 . S
H1601 C1579 0.950 . S
C1602 C1603 1.349 . S
C1602 C1604 1.327 . S
C1602 H1627 0.950 . S
C1603 C1602 1.349 . S
C1603 C1619 1.349 . S
C1604 C1602 1.327 . S
C1604 C1623 1.429 . S
C1604 H1628 0.950 . S
C1605 C1622 1.574 . S
C1605 C1624 1.368 . S
C1605 H1629 0.949 . S
H1606 C1610 0.949 . S
C1607 C1608 1.349 . S
C1607 C1609 1.327 . S
C1607 H1630 0.950 . S
C1608 C1607 1.349 . S
C1608 C1620 1.349 . S
C1609 C1607 1.327 . S
C1609 C1625 1.429 . S
C1609 H1631 0.950 . S
C1610 H1606 0.949 . S
C1610 C1618 1.574 . S
C1610 C1626 1.368 . S
H1611 C1619 0.950 . S
H1612 C1617 0.950 . S
H1613 C1618 0.949 . S
H1614 C1620 0.950 . S
H1615 C1621 0.950 . S
H1616 C1622 0.949 . S
C1617 H1612 0.950 . S
C1617 C1619 1.327 . S
C1617 C1623 1.429 . S
C1618 C1610 1.574 . S
C1618 H1613 0.949 . S
C1618 C1624 1.368 . S
C1619 C1603 1.349 . S
C1619 H1611 0.950 . S
C1619 C1617 1.327 . S
C1620 C1608 1.349 . S
C1620 H1614 0.950 . S
C1620 C1621 1.327 . S
C1621 H1615 0.950 . S
C1621 C1620 1.327 . S
C1621 C1625 1.429 . S
C1622 C1605 1.574 . S
C1622 H1616 0.949 . S
C1622 C1626 1.368 . S
C1623 C1604 1.429 . S
C1623 C1617 1.429 . S
C1623 C1624 1.523 . S
C1624 C1605 1.368 . S
C1624 C1618 1.368 . S
C1624 C1623 1.523 . S
C1625 C1609 1.429 . S
C1625 C1621 1.429 . S
C1625 C1626 1.523 . S
C1626 C1610 1.368 . S
C1626 C1622 1.368 . S
C1626 C1625 1.523 . S
H1627 C1602 0.950 . S
H1628 C1604 0.950 . S
H1629 C1605 0.949 . S
H1630 C1607 0.950 . S
H1631 C1609 0.950 . S
C1632 C1633 1.349 . S
C1632 C1634 1.327 . S
C1632 H1657 0.950 . S
C1633 C1632 1.349 . S
C1633 C1649 1.349 . S
C1634 C1632 1.327 . S
C1634 C1653 1.429 . S
C1634 H1658 0.950 . S
C1635 C1652 1.574 . S
C1635 C1654 1.368 . S
C1635 H1659 0.949 . S
H1636 C1640 0.949 . S
C1637 C1638 1.349 . S
C1637 C1639 1.327 . S
C1637 H1660 0.950 . S
C1638 C1637 1.349 . S
C1638 C1650 1.349 . S
C1639 C1637 1.327 . S
C1639 C1655 1.429 . S
C1639 H1661 0.950 . S
C1640 H1636 0.949 . S
C1640 C1648 1.574 . S
C1640 C1656 1.368 . S
H1641 C1649 0.950 1_554 S
H1642 C1647 0.950 . S
H1643 C1648 0.949 . S
H1644 C1650 0.950 . S
H1645 C1651 0.950 . S
H1646 C1652 0.949 . S
C1647 H1642 0.950 . S
C1647 C1649 1.327 . S
C1647 C1653 1.429 . S
C1648 C1640 1.574 . S
C1648 H1643 0.949 . S
C1648 C1654 1.368 . S
C1649 C1633 1.349 . S
C1649 H1641 0.950 1_556 S
C1649 C1647 1.327 . S
C1650 C1638 1.349 . S
C1650 H1644 0.950 . S
C1650 C1651 1.327 . S
C1651 H1645 0.950 . S
C1651 C1650 1.327 . S
C1651 C1655 1.429 . S
C1652 C1635 1.574 . S
C1652 H1646 0.949 . S
C1652 C1656 1.368 . S
C1653 C1634 1.429 . S
C1653 C1647 1.429 . S
C1653 C1654 1.523 . S
C1654 C1635 1.368 . S
C1654 C1648 1.368 . S
C1654 C1653 1.523 . S
C1655 C1639 1.429 . S
C1655 C1651 1.429 . S
C1655 C1656 1.523 . S
C1656 C1640 1.368 . S
C1656 C1652 1.368 . S
C1656 C1655 1.523 . S
H1657 C1632 0.950 . S
H1658 C1634 0.950 . S
H1659 C1635 0.949 . S
H1660 C1637 0.950 . S
H1661 C1639 0.950 . S
C1662 C1663 1.349 . S
C1662 C1664 1.327 . S
C1662 H1687 0.950 . S
C1663 C1662 1.349 . S
C1663 C1679 1.349 . S
C1664 C1662 1.327 . S
C1664 C1683 1.429 . S
C1664 H1688 0.950 . S
C1665 C1682 1.574 . S
C1665 C1684 1.368 . S
C1665 H1689 0.949 . S
H1666 C1670 0.949 . S
C1667 C1668 1.349 . S
C1667 C1669 1.327 . S
C1667 H1690 0.950 . S
C1668 C1667 1.349 . S
C1668 C1680 1.349 . S
C1669 C1667 1.327 . S
C1669 C1685 1.429 . S
C1669 H1691 0.950 . S
C1670 H1666 0.949 . S
C1670 C1678 1.574 . S
C1670 C1686 1.368 . S
H1671 C1679 0.950 . S
H1672 C1677 0.950 . S
H1673 C1678 0.949 . S
H1674 C1680 0.950 . S
H1675 C1681 0.950 . S
H1676 C1682 0.949 . S
C1677 H1672 0.950 . S
C1677 C1679 1.327 . S
C1677 C1683 1.429 . S
C1678 C1670 1.574 . S
C1678 H1673 0.949 . S
C1678 C1684 1.368 . S
C1679 C1663 1.349 . S
C1679 H1671 0.950 . S
C1679 C1677 1.327 . S
C1680 C1668 1.349 . S
C1680 H1674 0.950 . S
C1680 C1681 1.327 . S
C1681 H1675 0.950 . S
C1681 C1680 1.327 . S
C1681 C1685 1.429 . S
C1682 C1665 1.574 . S
C1682 H1676 0.949 . S
C1682 C1686 1.368 . S
C1683 C1664 1.429 . S
C1683 C1677 1.429 . S
C1683 C1684 1.523 . S
C1684 C1665 1.368 . S
C1684 C1678 1.368 . S
C1684 C1683 1.523 . S
C1685 C1669 1.429 . S
C1685 C1681 1.429 . S
C1685 C1686 1.523 . S
C1686 C1670 1.368 . S
C1686 C1682 1.368 . S
C1686 C1685 1.523 . S
H1687 C1662 0.950 . S
H1688 C1664 0.950 . S
H1689 C1665 0.949 . S
H1690 C1667 0.950 . S
H1691 C1669 0.950 . S
C1692 C1693 1.349 . S
C1692 C1694 1.327 . S
C1692 H1717 0.950 . S
C1693 C1692 1.349 . S
C1693 C1709 1.349 . S
C1694 C1692 1.327 . S
C1694 C1713 1.429 . S
C1694 H1718 0.950 . S
C1695 C1712 1.574 . S
C1695 C1714 1.368 . S
C1695 H1719 0.949 . S
H1696 C1700 0.949 . S
C1697 C1698 1.349 . S
C1697 C1699 1.327 . S
C1697 H1720 0.950 . S
C1698 C1697 1.349 . S
C1698 C1710 1.349 . S
C1699 C1697 1.327 . S
C1699 C1715 1.429 . S
C1699 H1721 0.950 . S
C1700 H1696 0.949 . S
C1700 C1708 1.574 . S
C1700 C1716 1.368 . S
H1701 C1709 0.950 . S
H1702 C1707 0.950 . S
H1703 C1708 0.949 . S
H1704 C1710 0.950 . S
H1705 C1711 0.950 . S
H1706 C1712 0.949 . S
C1707 H1702 0.950 . S
C1707 C1709 1.327 . S
C1707 C1713 1.429 . S
C1708 C1700 1.574 . S
C1708 H1703 0.949 . S
C1708 C1714 1.368 . S
C1709 C1693 1.349 . S
C1709 H1701 0.950 . S
C1709 C1707 1.327 . S
C1710 C1698 1.349 . S
C1710 H1704 0.950 . S
C1710 C1711 1.327 . S
C1711 H1705 0.950 . S
C1711 C1710 1.327 . S
C1711 C1715 1.429 . S
C1712 C1695 1.574 . S
C1712 H1706 0.949 . S
C1712 C1716 1.368 . S
C1713 C1694 1.429 . S
C1713 C1707 1.429 . S
C1713 C1714 1.523 . S
C1714 C1695 1.368 . S
C1714 C1708 1.368 . S
C1714 C1713 1.523 . S
C1715 C1699 1.429 . S
C1715 C1711 1.429 . S
C1715 C1716 1.523 . S
C1716 C1700 1.368 . S
C1716 C1712 1.368 . S
C1716 C1715 1.523 . S
H1717 C1692 0.950 . S
H1718 C1694 0.950 . S
H1719 C1695 0.949 . S
H1720 C1697 0.950 . S
H1721 C1699 0.950 . S
C1722 C1723 1.349 . S
C1722 C1724 1.327 . S
C1722 H1747 0.950 . S
C1723 C1722 1.349 . S
C1723 C1739 1.349 . S
C1724 C1722 1.327 . S
C1724 C1743 1.429 . S
C1724 H1748 0.950 . S
C1725 C1742 1.574 . S
C1725 C1744 1.368 . S
C1725 H1749 0.949 . S
H1726 C1730 0.949 . S
C1727 C1728 1.349 . S
C1727 C1729 1.327 . S
C1727 H1750 0.950 . S
C1728 C1727 1.349 . S
C1728 C1740 1.349 . S
C1729 C1727 1.327 . S
C1729 C1745 1.429 . S
C1729 H1751 0.950 . S
C1730 H1726 0.949 . S
C1730 C1738 1.574 . S
C1730 C1746 1.368 . S
H1731 C1739 0.950 . S
H1732 C1737 0.950 . S
H1733 C1738 0.949 . S
H1734 C1740 0.950 . S
H1735 C1741 0.950 . S
H1736 C1742 0.949 . S
C1737 H1732 0.950 . S
C1737 C1739 1.327 . S
C1737 C1743 1.429 . S
C1738 C1730 1.574 . S
C1738 H1733 0.949 . S
C1738 C1744 1.368 . S
C1739 C1723 1.349 . S
C1739 H1731 0.950 . S
C1739 C1737 1.327 . S
C1740 C1728 1.349 . S
C1740 H1734 0.950 . S
C1740 C1741 1.327 . S
C1741 H1735 0.950 . S
C1741 C1740 1.327 . S
C1741 C1745 1.429 . S
C1742 C1725 1.574 . S
C1742 H1736 0.949 . S
C1742 C1746 1.368 . S
C1743 C1724 1.429 . S
C1743 C1737 1.429 . S
C1743 C1744 1.523 . S
C1744 C1725 1.368 . S
C1744 C1738 1.368 . S
C1744 C1743 1.523 . S
C1745 C1729 1.429 . S
C1745 C1741 1.429 . S
C1745 C1746 1.523 . S
C1746 C1730 1.368 . S
C1746 C1742 1.368 . S
C1746 C1745 1.523 . S
H1747 C1722 0.950 . S
H1748 C1724 0.950 . S
H1749 C1725 0.949 . S
H1750 C1727 0.950 . S
H1751 C1729 0.950 . S
C1752 C1753 1.349 . S
C1752 C1754 1.327 . S
C1752 H1777 0.950 . S
C1753 C1752 1.349 . S
C1753 C1769 1.349 . S
C1754 C1752 1.327 . S
C1754 C1773 1.429 . S
C1754 H1778 0.950 . S
C1755 C1772 1.574 . S
C1755 C1774 1.368 . S
C1755 H1779 0.949 . S
H1756 C1760 0.949 . S
C1757 C1758 1.349 . S
C1757 C1759 1.327 . S
C1757 H1780 0.950 . S
C1758 C1757 1.349 . S
C1758 C1770 1.349 . S
C1759 C1757 1.327 . S
C1759 C1775 1.429 . S
C1759 H1781 0.950 . S
C1760 H1756 0.949 . S
C1760 C1768 1.574 . S
C1760 C1776 1.368 . S
H1761 C1769 0.950 . S
H1762 C1767 0.950 . S
H1763 C1768 0.949 . S
H1764 C1770 0.950 . S
H1765 C1771 0.950 . S
H1766 C1772 0.949 . S
C1767 H1762 0.950 . S
C1767 C1769 1.327 . S
C1767 C1773 1.429 . S
C1768 C1760 1.574 . S
C1768 H1763 0.949 . S
C1768 C1774 1.368 . S
C1769 C1753 1.349 . S
C1769 H1761 0.950 . S
C1769 C1767 1.327 . S
C1770 C1758 1.349 . S
C1770 H1764 0.950 . S
C1770 C1771 1.327 . S
C1771 H1765 0.950 . S
C1771 C1770 1.327 . S
C1771 C1775 1.429 . S
C1772 C1755 1.574 . S
C1772 H1766 0.949 . S
C1772 C1776 1.368 . S
C1773 C1754 1.429 . S
C1773 C1767 1.429 . S
C1773 C1774 1.523 . S
C1774 C1755 1.368 . S
C1774 C1768 1.368 . S
C1774 C1773 1.523 . S
C1775 C1759 1.429 . S
C1775 C1771 1.429 . S
C1775 C1776 1.523 . S
C1776 C1760 1.368 . S
C1776 C1772 1.368 . S
C1776 C1775 1.523 . S
H1777 C1752 0.950 . S
H1778 C1754 0.950 . S
H1779 C1755 0.949 . S
H1780 C1757 0.950 . S
H1781 C1759 0.950 . S
C1782 C1783 1.349 . S
C1782 C1784 1.327 . S
C1782 H1807 0.950 . S
C1783 C1782 1.349 . S
C1783 C1799 1.349 . S
C1784 C1782 1.327 . S
C1784 C1803 1.429 . S
C1784 H1808 0.950 . S
C1785 C1802 1.574 . S
C1785 C1804 1.368 . S
C1785 H1809 0.949 . S
H1786 C1790 0.949 . S
C1787 C1788 1.349 . S
C1787 C1789 1.327 . S
C1787 H1810 0.950 . S
C1788 C1787 1.349 . S
C1788 C1800 1.349 . S
C1789 C1787 1.327 . S
C1789 C1805 1.429 . S
C1789 H1811 0.950 . S
C1790 H1786 0.949 . S
C1790 C1798 1.574 . S
C1790 C1806 1.368 . S
H1791 C1799 0.950 . S
H1792 C1797 0.950 . S
H1793 C1798 0.949 . S
H1794 C1800 0.950 . S
H1795 C1801 0.950 . S
H1796 C1802 0.949 . S
C1797 H1792 0.950 . S
C1797 C1799 1.327 . S
C1797 C1803 1.429 . S
C1798 C1790 1.574 . S
C1798 H1793 0.949 . S
C1798 C1804 1.368 . S
C1799 C1783 1.349 . S
C1799 H1791 0.950 . S
C1799 C1797 1.327 . S
C1800 C1788 1.349 . S
C1800 H1794 0.950 . S
C1800 C1801 1.327 . S
C1801 H1795 0.950 . S
C1801 C1800 1.327 . S
C1801 C1805 1.429 . S
C1802 C1785 1.574 . S
C1802 H1796 0.949 . S
C1802 C1806 1.368 . S
C1803 C1784 1.429 . S
C1803 C1797 1.429 . S
C1803 C1804 1.523 . S
C1804 C1785 1.368 . S
C1804 C1798 1.368 . S
C1804 C1803 1.523 . S
C1805 C1789 1.429 . S
C1805 C1801 1.429 . S
C1805 C1806 1.523 . S
C1806 C1790 1.368 . S
C1806 C1802 1.368 . S
C1806 C1805 1.523 . S
H1807 C1782 0.950 . S
H1808 C1784 0.950 . S
H1809 C1785 0.949 . S
H1810 C1787 0.950 . S
H1811 C1789 0.950 . S
C1812 C1813 1.349 . S
C1812 C1814 1.327 . S
C1812 H1837 0.950 . S
C1813 C1812 1.349 . S
C1813 C1829 1.349 . S
C1814 C1812 1.327 . S
C1814 C1833 1.429 . S
C1814 H1838 0.950 . S
C1815 C1832 1.574 . S
C1815 C1834 1.368 . S
C1815 H1839 0.949 . S
H1816 C1820 0.949 . S
C1817 C1818 1.349 . S
C1817 C1819 1.327 . S
C1817 H1840 0.950 . S
C1818 C1817 1.349 . S
C1818 C1830 1.349 . S
C1819 C1817 1.327 . S
C1819 C1835 1.429 . S
C1819 H1841 0.950 . S
C1820 H1816 0.949 . S
C1820 C1828 1.574 . S
C1820 C1836 1.368 . S
H1821 C1829 0.950 . S
H1822 C1827 0.950 . S
H1823 C1828 0.949 . S
H1824 C1830 0.950 . S
H1825 C1831 0.950 . S
H1826 C1832 0.949 . S
C1827 H1822 0.950 . S
C1827 C1829 1.327 . S
C1827 C1833 1.429 . S
C1828 C1820 1.574 . S
C1828 H1823 0.949 . S
C1828 C1834 1.368 . S
C1829 C1813 1.349 . S
C1829 H1821 0.950 . S
C1829 C1827 1.327 . S
C1830 C1818 1.349 . S
C1830 H1824 0.950 . S
C1830 C1831 1.327 . S
C1831 H1825 0.950 . S
C1831 C1830 1.327 . S
C1831 C1835 1.429 . S
C1832 C1815 1.574 . S
C1832 H1826 0.949 . S
C1832 C1836 1.368 . S
C1833 C1814 1.429 . S
C1833 C1827 1.429 . S
C1833 C1834 1.523 . S
C1834 C1815 1.368 . S
C1834 C1828 1.368 . S
C1834 C1833 1.523 . S
C1835 C1819 1.429 . S
C1835 C1831 1.429 . S
C1835 C1836 1.523 . S
C1836 C1820 1.368 . S
C1836 C1832 1.368 . S
C1836 C1835 1.523 . S
H1837 C1812 0.950 . S
H1838 C1814 0.950 . S
H1839 C1815 0.949 . S
H1840 C1817 0.950 . S
H1841 C1819 0.950 . S
C1842 C1843 1.349 . S
C1842 C1844 1.327 . S
C1842 H1867 0.950 . S
C1843 C1842 1.349 . S
C1843 C1859 1.349 . S
C1844 C1842 1.327 . S
C1844 C1863 1.429 . S
C1844 H1868 0.950 . S
C1845 C1862 1.574 . S
C1845 C1864 1.368 . S
C1845 H1869 0.949 . S
H1846 C1850 0.949 . S
C1847 C1848 1.349 . S
C1847 C1849 1.327 . S
C1847 H1870 0.950 . S
C1848 C1847 1.349 . S
C1848 C1860 1.349 . S
C1849 C1847 1.327 . S
C1849 C1865 1.429 . S
C1849 H1871 0.950 . S
C1850 H1846 0.949 . S
C1850 C1858 1.574 . S
C1850 C1866 1.368 . S
H1851 C1859 0.950 . S
H1852 C1857 0.950 . S
H1853 C1858 0.949 . S
H1854 C1860 0.950 . S
H1855 C1861 0.950 . S
H1856 C1862 0.949 . S
C1857 H1852 0.950 . S
C1857 C1859 1.327 . S
C1857 C1863 1.429 . S
C1858 C1850 1.574 . S
C1858 H1853 0.949 . S
C1858 C1864 1.368 . S
C1859 C1843 1.349 . S
C1859 H1851 0.950 . S
C1859 C1857 1.327 . S
C1860 C1848 1.349 . S
C1860 H1854 0.950 . S
C1860 C1861 1.327 . S
C1861 H1855 0.950 . S
C1861 C1860 1.327 . S
C1861 C1865 1.429 . S
C1862 C1845 1.574 . S
C1862 H1856 0.949 . S
C1862 C1866 1.368 . S
C1863 C1844 1.429 . S
C1863 C1857 1.429 . S
C1863 C1864 1.523 . S
C1864 C1845 1.368 . S
C1864 C1858 1.368 . S
C1864 C1863 1.523 . S
C1865 C1849 1.429 . S
C1865 C1861 1.429 . S
C1865 C1866 1.523 . S
C1866 C1850 1.368 . S
C1866 C1862 1.368 . S
C1866 C1865 1.523 . S
H1867 C1842 0.950 . S
H1868 C1844 0.950 . S
H1869 C1845 0.949 . S
H1870 C1847 0.950 . S
H1871 C1849 0.950 . S
C1872 C1873 1.349 . S
C1872 C1874 1.327 . S
C1872 H1897 0.950 . S
C1873 C1872 1.349 . S
C1873 C1889 1.349 . S
C1874 C1872 1.327 . S
C1874 C1893 1.429 . S
C1874 H1898 0.950 . S
C1875 C1892 1.574 . S
C1875 C1894 1.368 . S
C1875 H1899 0.949 . S
H1876 C1880 0.949 . S
C1877 C1878 1.349 . S
C1877 C1879 1.327 . S
C1877 H1900 0.950 . S
C1878 C1877 1.349 . S
C1878 C1890 1.349 . S
C1879 C1877 1.327 . S
C1879 C1895 1.429 . S
C1879 H1901 0.950 . S
C1880 H1876 0.949 . S
C1880 C1888 1.574 . S
C1880 C1896 1.368 . S
H1881 C1889 0.950 . S
H1882 C1887 0.950 . S
H1883 C1888 0.949 . S
H1884 C1890 0.950 . S
H1885 C1891 0.950 . S
H1886 C1892 0.949 . S
C1887 H1882 0.950 . S
C1887 C1889 1.327 . S
C1887 C1893 1.429 . S
C1888 C1880 1.574 . S
C1888 H1883 0.949 . S
C1888 C1894 1.368 . S
C1889 C1873 1.349 . S
C1889 H1881 0.950 . S
C1889 C1887 1.327 . S
C1890 C1878 1.349 . S
C1890 H1884 0.950 . S
C1890 C1891 1.327 . S
C1891 H1885 0.950 . S
C1891 C1890 1.327 . S
C1891 C1895 1.429 . S
C1892 C1875 1.574 . S
C1892 H1886 0.949 . S
C1892 C1896 1.368 . S
C1893 C1874 1.429 . S
C1893 C1887 1.429 . S
C1893 C1894 1.523 . S
C1894 C1875 1.368 . S
C1894 C1888 1.368 . S
C1894 C1893 1.523 . S
C1895 C1879 1.429 . S
C1895 C1891 1.429 . S
C1895 C1896 1.523 . S
C1896 C1880 1.368 . S
C1896 C1892 1.368 . S
C1896 C1895 1.523 . S
H1897 C1872 0.950 . S
H1898 C1874 0.950 . S
H1899 C1875 0.949 . S
H1900 C1877 0.950 . S
H1901 C1879 0.950 . S
C1902 C1903 1.349 . S
C1902 C1904 1.327 . S
C1902 H1927 0.950 . S
C1903 C1902 1.349 . S
C1903 C1919 1.349 . S
C1904 C1902 1.327 . S
C1904 C1923 1.429 . S
C1904 H1928 0.950 . S
C1905 C1922 1.574 . S
C1905 C1924 1.368 . S
C1905 H1929 0.949 . S
H1906 C1910 0.949 . S
C1907 C1908 1.349 . S
C1907 C1909 1.327 . S
C1907 H1930 0.950 . S
C1908 C1907 1.349 . S
C1908 C1920 1.349 . S
C1909 C1907 1.327 . S
C1909 C1925 1.429 . S
C1909 H1931 0.950 . S
C1910 H1906 0.949 . S
C1910 C1918 1.574 . S
C1910 C1926 1.368 . S
H1911 C1919 0.950 . S
H1912 C1917 0.950 . S
H1913 C1918 0.949 . S
H1914 C1920 0.950 . S
H1915 C1921 0.950 . S
H1916 C1922 0.949 . S
C1917 H1912 0.950 . S
C1917 C1919 1.327 . S
C1917 C1923 1.429 . S
C1918 C1910 1.574 . S
C1918 H1913 0.949 . S
C1918 C1924 1.368 . S
C1919 C1903 1.349 . S
C1919 H1911 0.950 . S
C1919 C1917 1.327 . S
C1920 C1908 1.349 . S
C1920 H1914 0.950 . S
C1920 C1921 1.327 . S
C1921 H1915 0.950 . S
C1921 C1920 1.327 . S
C1921 C1925 1.429 . S
C1922 C1905 1.574 . S
C1922 H1916 0.949 . S
C1922 C1926 1.368 . S
C1923 C1904 1.429 . S
C1923 C1917 1.429 . S
C1923 C1924 1.523 . S
C1924 C1905 1.368 . S
C1924 C1918 1.368 . S
C1924 C1923 1.523 . S
C1925 C1909 1.429 . S
C1925 C1921 1.429 . S
C1925 C1926 1.523 . S
C1926 C1910 1.368 . S
C1926 C1922 1.368 . S
C1926 C1925 1.523 . S
H1927 C1902 0.950 . S
H1928 C1904 0.950 . S
H1929 C1905 0.949 . S
H1930 C1907 0.950 . S
H1931 C1909 0.950 . S
C1932 C1933 1.349 . S
C1932 C1934 1.327 . S
C1932 H1957 0.950 . S
C1933 C1932 1.349 . S
C1933 C1949 1.349 . S
C1934 C1932 1.327 . S
C1934 C1953 1.429 . S
C1934 H1958 0.950 . S
C1935 C1952 1.574 . S
C1935 C1954 1.368 . S
C1935 H1959 0.949 . S
H1936 C1940 0.949 . S
C1937 C1938 1.349 . S
C1937 C1939 1.327 . S
C1937 H1960 0.950 . S
C1938 C1937 1.349 . S
C1938 C1950 1.349 . S
C1939 C1937 1.327 . S
C1939 C1955 1.429 . S
C1939 H1961 0.950 . S
C1940 H1936 0.949 . S
C1940 C1948 1.574 . S
C1940 C1956 1.368 . S
H1941 C1949 0.950 . S
H1942 C1947 0.950 . S
H1943 C1948 0.949 . S
H1944 C1950 0.950 . S
H1945 C1951 0.950 . S
H1946 C1952 0.949 . S
C1947 H1942 0.950 . S
C1947 C1949 1.327 . S
C1947 C1953 1.429 . S
C1948 C1940 1.574 . S
C1948 H1943 0.949 . S
C1948 C1954 1.368 . S
C1949 C1933 1.349 . S
C1949 H1941 0.950 . S
C1949 C1947 1.327 . S
C1950 C1938 1.349 . S
C1950 H1944 0.950 . S
C1950 C1951 1.327 . S
C1951 H1945 0.950 . S
C1951 C1950 1.327 . S
C1951 C1955 1.429 . S
C1952 C1935 1.574 . S
C1952 H1946 0.949 . S
C1952 C1956 1.368 . S
C1953 C1934 1.429 . S
C1953 C1947 1.429 . S
C1953 C1954 1.523 . S
C1954 C1935 1.368 . S
C1954 C1948 1.368 . S
C1954 C1953 1.523 . S
C1955 C1939 1.429 . S
C1955 C1951 1.429 . S
C1955 C1956 1.523 . S
C1956 C1940 1.368 . S
C1956 C1952 1.368 . S
C1956 C1955 1.523 . S
H1957 C1932 0.950 . S
H1958 C1934 0.950 . S
H1959 C1935 0.949 . S
H1960 C1937 0.950 . S
H1961 C1939 0.950 . S
C1962 C1963 1.349 . S
C1962 C1964 1.327 . S
C1962 H1987 0.950 . S
C1963 C1962 1.349 . S
C1963 C1979 1.349 . S
C1964 C1962 1.327 . S
C1964 C1983 1.429 . S
C1964 H1988 0.950 . S
C1965 C1982 1.574 . S
C1965 C1984 1.368 . S
C1965 H1989 0.949 . S
H1966 C1970 0.949 . S
C1967 C1968 1.349 . S
C1967 C1969 1.327 . S
C1967 H1990 0.950 . S
C1968 C1967 1.349 . S
C1968 C1980 1.349 . S
C1969 C1967 1.327 . S
C1969 C1985 1.429 . S
C1969 H1991 0.950 . S
C1970 H1966 0.949 . S
C1970 C1978 1.574 . S
C1970 C1986 1.368 . S
H1971 C1979 0.950 . S
H1972 C1977 0.950 . S
H1973 C1978 0.949 . S
H1974 C1980 0.950 . S
H1975 C1981 0.950 . S
H1976 C1982 0.949 . S
C1977 H1972 0.950 . S
C1977 C1979 1.327 . S
C1977 C1983 1.429 . S
C1978 C1970 1.574 . S
C1978 H1973 0.949 . S
C1978 C1984 1.368 . S
C1979 C1963 1.349 . S
C1979 H1971 0.950 . S
C1979 C1977 1.327 . S
C1980 C1968 1.349 . S
C1980 H1974 0.950 . S
C1980 C1981 1.327 . S
C1981 H1975 0.950 . S
C1981 C1980 1.327 . S
C1981 C1985 1.429 . S
C1982 C1965 1.574 . S
C1982 H1976 0.949 . S
C1982 C1986 1.368 . S
C1983 C1964 1.429 . S
C1983 C1977 1.429 . S
C1983 C1984 1.523 . S
C1984 C1965 1.368 . S
C1984 C1978 1.368 . S
C1984 C1983 1.523 . S
C1985 C1969 1.429 . S
C1985 C1981 1.429 . S
C1985 C1986 1.523 . S
C1986 C1970 1.368 . S
C1986 C1982 1.368 . S
C1986 C1985 1.523 . S
H1987 C1962 0.950 . S
H1988 C1964 0.950 . S
H1989 C1965 0.949 . S
H1990 C1967 0.950 . S
H1991 C1969 0.950 . S
C1992 C1993 1.349 . S
C1992 C1994 1.327 . S
C1992 H2017 0.950 . S
C1993 C1992 1.349 . S
C1993 C2009 1.349 . S
C1994 C1992 1.327 . S
C1994 C2013 1.429 . S
C1994 H2018 0.950 . S
C1995 C2012 1.574 . S
C1995 C2014 1.368 . S
C1995 H2019 0.949 . S
H1996 C2000 0.949 . S
C1997 C1998 1.349 . S
C1997 C1999 1.327 . S
C1997 H2020 0.950 . S
C1998 C1997 1.349 . S
C1998 C2010 1.349 . S
C1999 C1997 1.327 . S
C1999 C2015 1.429 . S
C1999 H2021 0.950 . S
C2000 H1996 0.949 . S
C2000 C2008 1.574 . S
C2000 C2016 1.368 . S
H2001 C2009 0.950 . S
H2002 C2007 0.950 . S
H2003 C2008 0.949 . S
H2004 C2010 0.950 . S
H2005 C2011 0.950 . S
H2006 C2012 0.949 . S
C2007 H2002 0.950 . S
C2007 C2009 1.327 . S
C2007 C2013 1.429 . S
C2008 C2000 1.574 . S
C2008 H2003 0.949 . S
C2008 C2014 1.368 . S
C2009 C1993 1.349 . S
C2009 H2001 0.950 . S
C2009 C2007 1.327 . S
C2010 C1998 1.349 . S
C2010 H2004 0.950 . S
C2010 C2011 1.327 . S
C2011 H2005 0.950 . S
C2011 C2010 1.327 . S
C2011 C2015 1.429 . S
C2012 C1995 1.574 . S
C2012 H2006 0.949 . S
C2012 C2016 1.368 . S
C2013 C1994 1.429 . S
C2013 C2007 1.429 . S
C2013 C2014 1.523 . S
C2014 C1995 1.368 . S
C2014 C2008 1.368 . S
C2014 C2013 1.523 . S
C2015 C1999 1.429 . S
C2015 C2011 1.429 . S
C2015 C2016 1.523 . S
C2016 C2000 1.368 . S
C2016 C2012 1.368 . S
C2016 C2015 1.523 . S
H2017 C1992 0.950 . S
H2018 C1994 0.950 . S
H2019 C1995 0.949 . S
H2020 C1997 0.950 . S
H2021 C1999 0.950 . S
C2022 C2023 1.349 . S
C2022 C2024 1.327 . S
C2022 H2047 0.950 . S
C2023 C2022 1.349 . S
C2023 C2039 1.349 . S
C2024 C2022 1.327 . S
C2024 C2043 1.429 . S
C2024 H2048 0.950 . S
C2025 C2042 1.574 . S
C2025 C2044 1.368 . S
C2025 H2049 0.949 . S
H2026 C2030 0.949 . S
C2027 C2028 1.349 . S
C2027 C2029 1.327 . S
C2027 H2050 0.950 . S
C2028 C2027 1.349 . S
C2028 C2040 1.349 . S
C2029 C2027 1.327 . S
C2029 C2045 1.429 . S
C2029 H2051 0.950 . S
C2030 H2026 0.949 . S
C2030 C2038 1.574 . S
C2030 C2046 1.368 . S
H2031 C2039 0.950 . S
H2032 C2037 0.950 . S
H2033 C2038 0.949 . S
H2034 C2040 0.950 . S
H2035 C2041 0.950 . S
H2036 C2042 0.949 . S
C2037 H2032 0.950 . S
C2037 C2039 1.327 . S
C2037 C2043 1.429 . S
C2038 C2030 1.574 . S
C2038 H2033 0.949 . S
C2038 C2044 1.368 . S
C2039 C2023 1.349 . S
C2039 H2031 0.950 . S
C2039 C2037 1.327 . S
C2040 C2028 1.349 . S
C2040 H2034 0.950 . S
C2040 C2041 1.327 . S
C2041 H2035 0.950 . S
C2041 C2040 1.327 . S
C2041 C2045 1.429 . S
C2042 C2025 1.574 . S
C2042 H2036 0.949 . S
C2042 C2046 1.368 . S
C2043 C2024 1.429 . S
C2043 C2037 1.429 . S
C2043 C2044 1.523 . S
C2044 C2025 1.368 . S
C2044 C2038 1.368 . S
C2044 C2043 1.523 . S
C2045 C2029 1.429 . S
C2045 C2041 1.429 . S
C2045 C2046 1.523 . S
C2046 C2030 1.368 . S
C2046 C2042 1.368 . S
C2046 C2045 1.523 . S
H2047 C2022 0.950 . S
H2048 C2024 0.950 . S
H2049 C2025 0.949 . S
H2050 C2027 0.950 . S
H2051 C2029 0.950 . S
C2052 C2053 1.349 . S
C2052 C2054 1.327 . S
C2052 H2077 0.950 . S
C2053 C2052 1.349 . S
C2053 C2069 1.349 . S
C2054 C2052 1.327 . S
C2054 C2073 1.429 . S
C2054 H2078 0.950 . S
C2055 C2072 1.574 . S
C2055 C2074 1.368 . S
C2055 H2079 0.949 . S
H2056 C2060 0.949 . S
C2057 C2058 1.349 . S
C2057 C2059 1.327 . S
C2057 H2080 0.950 . S
C2058 C2057 1.349 . S
C2058 C2070 1.349 . S
C2059 C2057 1.327 . S
C2059 C2075 1.429 . S
C2059 H2081 0.950 . S
C2060 H2056 0.949 . S
C2060 C2068 1.574 . S
C2060 C2076 1.368 . S
H2061 C2069 0.950 . S
H2062 C2067 0.950 . S
H2063 C2068 0.949 . S
H2064 C2070 0.950 . S
H2065 C2071 0.950 . S
H2066 C2072 0.949 . S
C2067 H2062 0.950 . S
C2067 C2069 1.327 . S
C2067 C2073 1.429 . S
C2068 C2060 1.574 . S
C2068 H2063 0.949 . S
C2068 C2074 1.368 . S
C2069 C2053 1.349 . S
C2069 H2061 0.950 . S
C2069 C2067 1.327 . S
C2070 C2058 1.349 . S
C2070 H2064 0.950 . S
C2070 C2071 1.327 . S
C2071 H2065 0.950 . S
C2071 C2070 1.327 . S
C2071 C2075 1.429 . S
C2072 C2055 1.574 . S
C2072 H2066 0.949 . S
C2072 C2076 1.368 . S
C2073 C2054 1.429 . S
C2073 C2067 1.429 . S
C2073 C2074 1.523 . S
C2074 C2055 1.368 . S
C2074 C2068 1.368 . S
C2074 C2073 1.523 . S
C2075 C2059 1.429 . S
C2075 C2071 1.429 . S
C2075 C2076 1.523 . S
C2076 C2060 1.368 . S
C2076 C2072 1.368 . S
C2076 C2075 1.523 . S
H2077 C2052 0.950 . S
H2078 C2054 0.950 . S
H2079 C2055 0.949 . S
H2080 C2057 0.950 . S
H2081 C2059 0.950 . S
C2082 C2083 1.349 . S
C2082 C2084 1.327 . S
C2082 H2107 0.950 . S
C2083 C2082 1.349 . S
C2083 C2099 1.349 . S
C2084 C2082 1.327 . S
C2084 C2103 1.429 . S
C2084 H2108 0.950 . S
C2085 C2102 1.574 . S
C2085 C2104 1.368 . S
C2085 H2109 0.949 . S
H2086 C2090 0.949 . S
C2087 C2088 1.349 . S
C2087 C2089 1.327 . S
C2087 H2110 0.950 . S
C2088 C2087 1.349 . S
C2088 C2100 1.349 . S
C2089 C2087 1.327 . S
C2089 C2105 1.429 . S
C2089 H2111 0.950 . S
C2090 H2086 0.949 . S
C2090 C2098 1.574 . S
C2090 C2106 1.368 . S
H2091 C2099 0.950 . S
H2092 C2097 0.950 . S
H2093 C2098 0.949 . S
H2094 C2100 0.950 . S
H2095 C2101 0.950 . S
H2096 C2102 0.949 . S
C2097 H2092 0.950 . S
C2097 C2099 1.327 . S
C2097 C2103 1.429 . S
C2098 C2090 1.574 . S
C2098 H2093 0.949 . S
C2098 C2104 1.368 . S
C2099 C2083 1.349 . S
C2099 H2091 0.950 . S
C2099 C2097 1.327 . S
C2100 C2088 1.349 . S
C2100 H2094 0.950 . S
C2100 C2101 1.327 . S
C2101 H2095 0.950 . S
C2101 C2100 1.327 . S
C2101 C2105 1.429 . S
C2102 C2085 1.574 . S
C2102 H2096 0.949 . S
C2102 C2106 1.368 . S
C2103 C2084 1.429 . S
C2103 C2097 1.429 . S
C2103 C2104 1.523 . S
C2104 C2085 1.368 . S
C2104 C2098 1.368 . S
C2104 C2103 1.523 . S
C2105 C2089 1.429 . S
C2105 C2101 1.429 . S
C2105 C2106 1.523 . S
C2106 C2090 1.368 . S
C2106 C2102 1.368 . S
C2106 C2105 1.523 . S
H2107 C2082 0.950 . S
H2108 C2084 0.950 . S
H2109 C2085 0.949 . S
H2110 C2087 0.950 . S
H2111 C2089 0.950 . S
C2112 C2113 1.349 . S
C2112 C2114 1.327 . S
C2112 H2137 0.950 . S
C2113 C2112 1.349 . S
C2113 C2129 1.349 . S
C2114 C2112 1.327 . S
C2114 C2133 1.429 . S
C2114 H2138 0.950 . S
C2115 C2132 1.574 . S
C2115 C2134 1.368 . S
C2115 H2139 0.949 . S
H2116 C2120 0.949 . S
C2117 C2118 1.349 . S
C2117 C2119 1.327 . S
C2117 H2140 0.950 . S
C2118 C2117 1.349 . S
C2118 C2130 1.349 . S
C2119 C2117 1.327 . S
C2119 C2135 1.429 . S
C2119 H2141 0.950 . S
C2120 H2116 0.949 . S
C2120 C2128 1.574 . S
C2120 C2136 1.368 . S
H2121 C2129 0.950 . S
H2122 C2127 0.950 . S
H2123 C2128 0.949 . S
H2124 C2130 0.950 . S
H2125 C2131 0.950 . S
H2126 C2132 0.949 . S
C2127 H2122 0.950 . S
C2127 C2129 1.327 . S
C2127 C2133 1.429 . S
C2128 C2120 1.574 . S
C2128 H2123 0.949 . S
C2128 C2134 1.368 . S
C2129 C2113 1.349 . S
C2129 H2121 0.950 . S
C2129 C2127 1.327 . S
C2130 C2118 1.349 . S
C2130 H2124 0.950 . S
C2130 C2131 1.327 . S
C2131 H2125 0.950 . S
C2131 C2130 1.327 . S
C2131 C2135 1.429 . S
C2132 C2115 1.574 . S
C2132 H2126 0.949 . S
C2132 C2136 1.368 . S
C2133 C2114 1.429 . S
C2133 C2127 1.429 . S
C2133 C2134 1.523 . S
C2134 C2115 1.368 . S
C2134 C2128 1.368 . S
C2134 C2133 1.523 . S
C2135 C2119 1.429 . S
C2135 C2131 1.429 . S
C2135 C2136 1.523 . S
C2136 C2120 1.368 . S
C2136 C2132 1.368 . S
C2136 C2135 1.523 . S
H2137 C2112 0.950 . S
H2138 C2114 0.950 . S
H2139 C2115 0.949 . S
H2140 C2117 0.950 . S
H2141 C2119 0.950 . S
C2142 C2143 1.349 . S
C2142 C2144 1.327 . S
C2142 H2167 0.950 . S
C2143 C2142 1.349 . S
C2143 C2159 1.349 . S
C2144 C2142 1.327 . S
C2144 C2163 1.429 . S
C2144 H2168 0.950 . S
C2145 C2162 1.574 . S
C2145 C2164 1.368 . S
C2145 H2169 0.949 . S
H2146 C2150 0.949 . S
C2147 C2148 1.349 . S
C2147 C2149 1.327 . S
C2147 H2170 0.950 . S
C2148 C2147 1.349 . S
C2148 C2160 1.349 . S
C2149 C2147 1.327 . S
C2149 C2165 1.429 . S
C2149 H2171 0.950 . S
C2150 H2146 0.949 . S
C2150 C2158 1.574 . S
C2150 C2166 1.368 . S
H2151 C2159 0.950 . S
H2152 C2157 0.950 . S
H2153 C2158 0.949 . S
H2154 C2160 0.950 . S
H2155 C2161 0.950 . S
H2156 C2162 0.949 . S
C2157 H2152 0.950 . S
C2157 C2159 1.327 . S
C2157 C2163 1.429 . S
C2158 C2150 1.574 . S
C2158 H2153 0.949 . S
C2158 C2164 1.368 . S
C2159 C2143 1.349 . S
C2159 H2151 0.950 . S
C2159 C2157 1.327 . S
C2160 C2148 1.349 . S
C2160 H2154 0.950 . S
C2160 C2161 1.327 . S
C2161 H2155 0.950 . S
C2161 C2160 1.327 . S
C2161 C2165 1.429 . S
C2162 C2145 1.574 . S
C2162 H2156 0.949 . S
C2162 C2166 1.368 . S
C2163 C2144 1.429 . S
C2163 C2157 1.429 . S
C2163 C2164 1.523 . S
C2164 C2145 1.368 . S
C2164 C2158 1.368 . S
C2164 C2163 1.523 . S
C2165 C2149 1.429 . S
C2165 C2161 1.429 . S
C2165 C2166 1.523 . S
C2166 C2150 1.368 . S
C2166 C2162 1.368 . S
C2166 C2165 1.523 . S
H2167 C2142 0.950 . S
H2168 C2144 0.950 . S
H2169 C2145 0.949 . S
H2170 C2147 0.950 . S
H2171 C2149 0.950 . S
C2172 C2173 1.349 . S
C2172 C2174 1.327 . S
C2172 H2197 0.950 . S
C2173 C2172 1.349 . S
C2173 C2189 1.349 . S
C2174 C2172 1.327 . S
C2174 C2193 1.429 . S
C2174 H2198 0.950 . S
C2175 C2192 1.574 . S
C2175 C2194 1.368 . S
C2175 H2199 0.949 . S
H2176 C2180 0.949 . S
C2177 C2178 1.349 . S
C2177 C2179 1.327 . S
C2177 H2200 0.950 . S
C2178 C2177 1.349 . S
C2178 C2190 1.349 . S
C2179 C2177 1.327 . S
C2179 C2195 1.429 . S
C2179 H2201 0.950 . S
C2180 H2176 0.949 . S
C2180 C2188 1.574 . S
C2180 C2196 1.368 . S
H2181 C2189 0.950 . S
H2182 C2187 0.950 . S
H2183 C2188 0.949 . S
H2184 C2190 0.950 . S
H2185 C2191 0.950 . S
H2186 C2192 0.949 . S
C2187 H2182 0.950 . S
C2187 C2189 1.327 . S
C2187 C2193 1.429 . S
C2188 C2180 1.574 . S
C2188 H2183 0.949 . S
C2188 C2194 1.368 . S
C2189 C2173 1.349 . S
C2189 H2181 0.950 . S
C2189 C2187 1.327 . S
C2190 C2178 1.349 . S
C2190 H2184 0.950 . S
C2190 C2191 1.327 . S
C2191 H2185 0.950 . S
C2191 C2190 1.327 . S
C2191 C2195 1.429 . S
C2192 C2175 1.574 . S
C2192 H2186 0.949 . S
C2192 C2196 1.368 . S
C2193 C2174 1.429 . S
C2193 C2187 1.429 . S
C2193 C2194 1.523 . S
C2194 C2175 1.368 . S
C2194 C2188 1.368 . S
C2194 C2193 1.523 . S
C2195 C2179 1.429 . S
C2195 C2191 1.429 . S
C2195 C2196 1.523 . S
C2196 C2180 1.368 . S
C2196 C2192 1.368 . S
C2196 C2195 1.523 . S
H2197 C2172 0.950 . S
H2198 C2174 0.950 . S
H2199 C2175 0.949 . S
H2200 C2177 0.950 . S
H2201 C2179 0.950 . S
C2202 C2203 1.349 . S
C2202 C2204 1.327 . S
C2202 H2227 0.950 . S
C2203 C2202 1.349 . S
C2203 C2219 1.349 . S
C2204 C2202 1.327 . S
C2204 C2223 1.429 . S
C2204 H2228 0.950 . S
C2205 C2222 1.574 . S
C2205 C2224 1.368 . S
C2205 H2229 0.949 . S
H2206 C2210 0.949 . S
C2207 C2208 1.349 . S
C2207 C2209 1.327 . S
C2207 H2230 0.950 . S
C2208 C2207 1.349 . S
C2208 C2220 1.349 . S
C2209 C2207 1.327 . S
C2209 C2225 1.429 . S
C2209 H2231 0.950 . S
C2210 H2206 0.949 . S
C2210 C2218 1.574 . S
C2210 C2226 1.368 . S
H2211 C2219 0.950 . S
H2212 C2217 0.950 . S
H2213 C2218 0.949 . S
H2214 C2220 0.950 . S
H2215 C2221 0.950 . S
H2216 C2222 0.949 . S
C2217 H2212 0.950 . S
C2217 C2219 1.327 . S
C2217 C2223 1.429 . S
C2218 C2210 1.574 . S
C2218 H2213 0.949 . S
C2218 C2224 1.368 . S
C2219 C2203 1.349 . S
C2219 H2211 0.950 . S
C2219 C2217 1.327 . S
C2220 C2208 1.349 . S
C2220 H2214 0.950 . S
C2220 C2221 1.327 . S
C2221 H2215 0.950 . S
C2221 C2220 1.327 . S
C2221 C2225 1.429 . S
C2222 C2205 1.574 . S
C2222 H2216 0.949 . S
C2222 C2226 1.368 . S
C2223 C2204 1.429 . S
C2223 C2217 1.429 . S
C2223 C2224 1.523 . S
C2224 C2205 1.368 . S
C2224 C2218 1.368 . S
C2224 C2223 1.523 . S
C2225 C2209 1.429 . S
C2225 C2221 1.429 . S
C2225 C2226 1.523 . S
C2226 C2210 1.368 . S
C2226 C2222 1.368 . S
C2226 C2225 1.523 . S
H2227 C2202 0.950 . S
H2228 C2204 0.950 . S
H2229 C2205 0.949 . S
H2230 C2207 0.950 . S
H2231 C2209 0.950 . S
C2232 C2233 1.349 . S
C2232 C2234 1.327 . S
C2232 H2257 0.950 . S
C2233 C2232 1.349 . S
C2233 C2249 1.349 . S
C2234 C2232 1.327 . S
C2234 C2253 1.429 . S
C2234 H2258 0.950 . S
C2235 C2252 1.574 . S
C2235 C2254 1.368 . S
C2235 H2259 0.949 . S
H2236 C2240 0.949 . S
C2237 C2238 1.349 . S
C2237 C2239 1.327 . S
C2237 H2260 0.950 . S
C2238 C2237 1.349 . S
C2238 C2250 1.349 . S
C2239 C2237 1.327 . S
C2239 C2255 1.429 . S
C2239 H2261 0.950 . S
C2240 H2236 0.949 . S
C2240 C2248 1.574 . S
C2240 C2256 1.368 . S
H2241 C2249 0.950 . S
H2242 C2247 0.950 . S
H2243 C2248 0.949 . S
H2244 C2250 0.950 . S
H2245 C2251 0.950 . S
H2246 C2252 0.949 . S
C2247 H2242 0.950 . S
C2247 C2249 1.327 . S
C2247 C2253 1.429 . S
C2248 C2240 1.574 . S
C2248 H2243 0.949 . S
C2248 C2254 1.368 . S
C2249 C2233 1.349 . S
C2249 H2241 0.950 . S
C2249 C2247 1.327 . S
C2250 C2238 1.349 . S
C2250 H2244 0.950 . S
C2250 C2251 1.327 . S
C2251 H2245 0.950 . S
C2251 C2250 1.327 . S
C2251 C2255 1.429 . S
C2252 C2235 1.574 . S
C2252 H2246 0.949 . S
C2252 C2256 1.368 . S
C2253 C2234 1.429 . S
C2253 C2247 1.429 . S
C2253 C2254 1.523 . S
C2254 C2235 1.368 . S
C2254 C2248 1.368 . S
C2254 C2253 1.523 . S
C2255 C2239 1.429 . S
C2255 C2251 1.429 . S
C2255 C2256 1.523 . S
C2256 C2240 1.368 . S
C2256 C2252 1.368 . S
C2256 C2255 1.523 . S
H2257 C2232 0.950 . S
H2258 C2234 0.950 . S
H2259 C2235 0.949 . S
H2260 C2237 0.950 . S
H2261 C2239 0.950 . S
C2262 C2263 1.349 . S
C2262 C2264 1.327 . S
C2262 H2287 0.950 . S
C2263 C2262 1.349 . S
C2263 C2279 1.349 . S
C2264 C2262 1.327 . S
C2264 C2283 1.429 . S
C2264 H2288 0.950 . S
C2265 C2282 1.574 . S
C2265 C2284 1.368 . S
C2265 H2289 0.949 . S
H2266 C2270 0.949 . S
C2267 C2268 1.349 . S
C2267 C2269 1.327 . S
C2267 H2290 0.950 . S
C2268 C2267 1.349 . S
C2268 C2280 1.349 . S
C2269 C2267 1.327 . S
C2269 C2285 1.429 . S
C2269 H2291 0.950 . S
C2270 H2266 0.949 . S
C2270 C2278 1.574 . S
C2270 C2286 1.368 . S
H2271 C2279 0.950 . S
H2272 C2277 0.950 . S
H2273 C2278 0.949 . S
H2274 C2280 0.950 . S
H2275 C2281 0.950 . S
H2276 C2282 0.949 . S
C2277 H2272 0.950 . S
C2277 C2279 1.327 . S
C2277 C2283 1.429 . S
C2278 C2270 1.574 . S
C2278 H2273 0.949 . S
C2278 C2284 1.368 . S
C2279 C2263 1.349 . S
C2279 H2271 0.950 . S
C2279 C2277 1.327 . S
C2280 C2268 1.349 . S
C2280 H2274 0.950 . S
C2280 C2281 1.327 . S
C2281 H2275 0.950 . S
C2281 C2280 1.327 . S
C2281 C2285 1.429 . S
C2282 C2265 1.574 . S
C2282 H2276 0.949 . S
C2282 C2286 1.368 . S
C2283 C2264 1.429 . S
C2283 C2277 1.429 . S
C2283 C2284 1.523 . S
C2284 C2265 1.368 . S
C2284 C2278 1.368 . S
C2284 C2283 1.523 . S
C2285 C2269 1.429 . S
C2285 C2281 1.429 . S
C2285 C2286 1.523 . S
C2286 C2270 1.368 . S
C2286 C2282 1.368 . S
C2286 C2285 1.523 . S
H2287 C2262 0.950 . S
H2288 C2264 0.950 . S
H2289 C2265 0.949 . S
H2290 C2267 0.950 . S
H2291 C2269 0.950 . S
C2292 C2293 1.349 . S
C2292 C2294 1.327 . S
C2292 H2317 0.950 . S
C2293 C2292 1.349 . S
C2293 C2309 1.349 . S
C2294 C2292 1.327 . S
C2294 C2313 1.429 . S
C2294 H2318 0.950 . S
C2295 C2312 1.574 . S
C2295 C2314 1.368 . S
C2295 H2319 0.949 . S
H2296 C2300 0.949 . S
C2297 C2298 1.349 . S
C2297 C2299 1.327 . S
C2297 H2320 0.950 . S
C2298 C2297 1.349 . S
C2298 C2310 1.349 . S
C2299 C2297 1.327 . S
C2299 C2315 1.429 . S
C2299 H2321 0.950 . S
C2300 H2296 0.949 . S
C2300 C2308 1.574 . S
C2300 C2316 1.368 . S
H2301 C2309 0.950 . S
H2302 C2307 0.950 . S
H2303 C2308 0.949 . S
H2304 C2310 0.950 . S
H2305 C2311 0.950 . S
H2306 C2312 0.949 . S
C2307 H2302 0.950 . S
C2307 C2309 1.327 . S
C2307 C2313 1.429 . S
C2308 C2300 1.574 . S
C2308 H2303 0.949 . S
C2308 C2314 1.368 . S
C2309 C2293 1.349 . S
C2309 H2301 0.950 . S
C2309 C2307 1.327 . S
C2310 C2298 1.349 . S
C2310 H2304 0.950 . S
C2310 C2311 1.327 . S
C2311 H2305 0.950 . S
C2311 C2310 1.327 . S
C2311 C2315 1.429 . S
C2312 C2295 1.574 . S
C2312 H2306 0.949 . S
C2312 C2316 1.368 . S
C2313 C2294 1.429 . S
C2313 C2307 1.429 . S
C2313 C2314 1.523 . S
C2314 C2295 1.368 . S
C2314 C2308 1.368 . S
C2314 C2313 1.523 . S
C2315 C2299 1.429 . S
C2315 C2311 1.429 . S
C2315 C2316 1.523 . S
C2316 C2300 1.368 . S
C2316 C2312 1.368 . S
C2316 C2315 1.523 . S
H2317 C2292 0.950 . S
H2318 C2294 0.950 . S
H2319 C2295 0.949 . S
H2320 C2297 0.950 . S
H2321 C2299 0.950 . S
C2322 C2323 1.349 . S
C2322 C2324 1.327 . S
C2322 H2347 0.950 . S
C2323 C2322 1.349 . S
C2323 C2339 1.349 . S
C2324 C2322 1.327 . S
C2324 C2343 1.429 . S
C2324 H2348 0.950 . S
C2325 C2342 1.574 . S
C2325 C2344 1.368 . S
C2325 H2349 0.949 . S
H2326 C2330 0.949 . S
C2327 C2328 1.349 . S
C2327 C2329 1.327 . S
C2327 H2350 0.950 . S
C2328 C2327 1.349 . S
C2328 C2340 1.349 . S
C2329 C2327 1.327 . S
C2329 C2345 1.429 . S
C2329 H2351 0.950 . S
C2330 H2326 0.949 . S
C2330 C2338 1.574 . S
C2330 C2346 1.368 . S
H2331 C2339 0.950 . S
H2332 C2337 0.950 . S
H2333 C2338 0.949 . S
H2334 C2340 0.950 . S
H2335 C2341 0.950 . S
H2336 C2342 0.949 . S
C2337 H2332 0.950 . S
C2337 C2339 1.327 . S
C2337 C2343 1.429 . S
C2338 C2330 1.574 . S
C2338 H2333 0.949 . S
C2338 C2344 1.368 . S
C2339 C2323 1.349 . S
C2339 H2331 0.950 . S
C2339 C2337 1.327 . S
C2340 C2328 1.349 . S
C2340 H2334 0.950 . S
C2340 C2341 1.327 . S
C2341 H2335 0.950 . S
C2341 C2340 1.327 . S
C2341 C2345 1.429 . S
C2342 C2325 1.574 . S
C2342 H2336 0.949 . S
C2342 C2346 1.368 . S
C2343 C2324 1.429 . S
C2343 C2337 1.429 . S
C2343 C2344 1.523 . S
C2344 C2325 1.368 . S
C2344 C2338 1.368 . S
C2344 C2343 1.523 . S
C2345 C2329 1.429 . S
C2345 C2341 1.429 . S
C2345 C2346 1.523 . S
C2346 C2330 1.368 . S
C2346 C2342 1.368 . S
C2346 C2345 1.523 . S
H2347 C2322 0.950 . S
H2348 C2324 0.950 . S
H2349 C2325 0.949 . S
H2350 C2327 0.950 . S
H2351 C2329 0.950 . S
C2352 C2353 1.349 . S
C2352 C2354 1.327 . S
C2352 H2377 0.950 . S
C2353 C2352 1.349 . S
C2353 C2369 1.349 . S
C2354 C2352 1.327 . S
C2354 C2373 1.429 . S
C2354 H2378 0.950 . S
C2355 C2372 1.574 . S
C2355 C2374 1.368 . S
C2355 H2379 0.949 . S
H2356 C2360 0.949 . S
C2357 C2358 1.349 . S
C2357 C2359 1.327 . S
C2357 H2380 0.950 . S
C2358 C2357 1.349 . S
C2358 C2370 1.349 . S
C2359 C2357 1.327 . S
C2359 C2375 1.429 . S
C2359 H2381 0.950 . S
C2360 H2356 0.949 . S
C2360 C2368 1.574 . S
C2360 C2376 1.368 . S
H2361 C2369 0.950 . S
H2362 C2367 0.950 . S
H2363 C2368 0.949 . S
H2364 C2370 0.950 . S
H2365 C2371 0.950 . S
H2366 C2372 0.949 . S
C2367 H2362 0.950 . S
C2367 C2369 1.327 . S
C2367 C2373 1.429 . S
C2368 C2360 1.574 . S
C2368 H2363 0.949 . S
C2368 C2374 1.368 . S
C2369 C2353 1.349 . S
C2369 H2361 0.950 . S
C2369 C2367 1.327 . S
C2370 C2358 1.349 . S
C2370 H2364 0.950 . S
C2370 C2371 1.327 . S
C2371 H2365 0.950 . S
C2371 C2370 1.327 . S
C2371 C2375 1.429 . S
C2372 C2355 1.574 . S
C2372 H2366 0.949 . S
C2372 C2376 1.368 . S
C2373 C2354 1.429 . S
C2373 C2367 1.429 . S
C2373 C2374 1.523 . S
C2374 C2355 1.368 . S
C2374 C2368 1.368 . S
C2374 C2373 1.523 . S
C2375 C2359 1.429 . S
C2375 C2371 1.429 . S
C2375 C2376 1.523 . S
C2376 C2360 1.368 . S
C2376 C2372 1.368 . S
C2376 C2375 1.523 . S
H2377 C2352 0.950 . S
H2378 C2354 0.950 . S
H2379 C2355 0.949 . S
H2380 C2357 0.950 . S
H2381 C2359 0.950 . S
C2382 C2383 1.349 . S
C2382 C2384 1.327 . S
C2382 H2407 0.950 . S
C2383 C2382 1.349 . S
C2383 C2399 1.349 . S
C2384 C2382 1.327 . S
C2384 C2403 1.429 . S
C2384 H2408 0.950 . S
C2385 C2402 1.574 . S
C2385 C2404 1.368 . S
C2385 H2409 0.949 . S
H2386 C2390 0.949 . S
C2387 C2388 1.349 . S
C2387 C2389 1.327 . S
C2387 H2410 0.950 . S
C2388 C2387 1.349 . S
C2388 C2400 1.349 . S
C2389 C2387 1.327 . S
C2389 C2405 1.429 . S
C2389 H2411 0.950 . S
C2390 H2386 0.949 . S
C2390 C2398 1.574 . S
C2390 C2406 1.368 . S
H2391 C2399 0.950 . S
H2392 C2397 0.950 . S
H2393 C2398 0.949 . S
H2394 C2400 0.950 . S
H2395 C2401 0.950 . S
H2396 C2402 0.949 . S
C2397 H2392 0.950 . S
C2397 C2399 1.327 . S
C2397 C2403 1.429 . S
C2398 C2390 1.574 . S
C2398 H2393 0.949 . S
C2398 C2404 1.368 . S
C2399 C2383 1.349 . S
C2399 H2391 0.950 . S
C2399 C2397 1.327 . S
C2400 C2388 1.349 . S
C2400 H2394 0.950 . S
C2400 C2401 1.327 . S
C2401 H2395 0.950 . S
C2401 C2400 1.327 . S
C2401 C2405 1.429 . S
C2402 C2385 1.574 . S
C2402 H2396 0.949 . S
C2402 C2406 1.368 . S
C2403 C2384 1.429 . S
C2403 C2397 1.429 . S
C2403 C2404 1.523 . S
C2404 C2385 1.368 . S
C2404 C2398 1.368 . S
C2404 C2403 1.523 . S
C2405 C2389 1.429 . S
C2405 C2401 1.429 . S
C2405 C2406 1.523 . S
C2406 C2390 1.368 . S
C2406 C2402 1.368 . S
C2406 C2405 1.523 . S
H2407 C2382 0.950 . S
H2408 C2384 0.950 . S
H2409 C2385 0.949 . S
H2410 C2387 0.950 . S
H2411 C2389 0.950 . S
C2412 C2413 1.349 . S
C2412 C2414 1.327 . S
C2412 H2437 0.950 . S
C2413 C2412 1.349 . S
C2413 C2429 1.349 . S
C2414 C2412 1.327 . S
C2414 C2433 1.429 . S
C2414 H2438 0.950 . S
C2415 C2432 1.574 . S
C2415 C2434 1.368 . S
C2415 H2439 0.949 . S
H2416 C2420 0.949 . S
C2417 C2418 1.349 . S
C2417 C2419 1.327 . S
C2417 H2440 0.950 . S
C2418 C2417 1.349 . S
C2418 C2430 1.349 . S
C2419 C2417 1.327 . S
C2419 C2435 1.429 . S
C2419 H2441 0.950 . S
C2420 H2416 0.949 . S
C2420 C2428 1.574 . S
C2420 C2436 1.368 . S
H2421 C2429 0.950 . S
H2422 C2427 0.950 . S
H2423 C2428 0.949 . S
H2424 C2430 0.950 . S
H2425 C2431 0.950 . S
H2426 C2432 0.949 . S
C2427 H2422 0.950 . S
C2427 C2429 1.327 . S
C2427 C2433 1.429 . S
C2428 C2420 1.574 . S
C2428 H2423 0.949 . S
C2428 C2434 1.368 . S
C2429 C2413 1.349 . S
C2429 H2421 0.950 . S
C2429 C2427 1.327 . S
C2430 C2418 1.349 . S
C2430 H2424 0.950 . S
C2430 C2431 1.327 . S
C2431 H2425 0.950 . S
C2431 C2430 1.327 . S
C2431 C2435 1.429 . S
C2432 C2415 1.574 . S
C2432 H2426 0.949 . S
C2432 C2436 1.368 . S
C2433 C2414 1.429 . S
C2433 C2427 1.429 . S
C2433 C2434 1.523 . S
C2434 C2415 1.368 . S
C2434 C2428 1.368 . S
C2434 C2433 1.523 . S
C2435 C2419 1.429 . S
C2435 C2431 1.429 . S
C2435 C2436 1.523 . S
C2436 C2420 1.368 . S
C2436 C2432 1.368 . S
C2436 C2435 1.523 . S
H2437 C2412 0.950 . S
H2438 C2414 0.950 . S
H2439 C2415 0.949 . S
H2440 C2417 0.950 . S
H2441 C2419 0.950 . S
C2442 C2443 1.349 . S
C2442 C2444 1.327 . S
C2442 H2467 0.950 . S
C2443 C2442 1.349 . S
C2443 C2459 1.349 . S
C2444 C2442 1.327 . S
C2444 C2463 1.429 . S
C2444 H2468 0.950 . S
C2445 C2462 1.574 . S
C2445 C2464 1.368 . S
C2445 H2469 0.949 . S
H2446 C2450 0.949 . S
C2447 C2448 1.349 . S
C2447 C2449 1.327 . S
C2447 H2470 0.950 . S
C2448 C2447 1.349 . S
C2448 C2460 1.349 . S
C2449 C2447 1.327 . S
C2449 C2465 1.429 . S
C2449 H2471 0.950 . S
C2450 H2446 0.949 . S
C2450 C2458 1.574 . S
C2450 C2466 1.368 . S
H2451 C2459 0.950 . S
H2452 C2457 0.950 . S
H2453 C2458 0.949 . S
H2454 C2460 0.950 . S
H2455 C2461 0.950 . S
H2456 C2462 0.949 . S
C2457 H2452 0.950 . S
C2457 C2459 1.327 . S
C2457 C2463 1.429 . S
C2458 C2450 1.574 . S
C2458 H2453 0.949 . S
C2458 C2464 1.368 . S
C2459 C2443 1.349 . S
C2459 H2451 0.950 . S
C2459 C2457 1.327 . S
C2460 C2448 1.349 . S
C2460 H2454 0.950 . S
C2460 C2461 1.327 . S
C2461 H2455 0.950 . S
C2461 C2460 1.327 . S
C2461 C2465 1.429 . S
C2462 C2445 1.574 . S
C2462 H2456 0.949 . S
C2462 C2466 1.368 . S
C2463 C2444 1.429 . S
C2463 C2457 1.429 . S
C2463 C2464 1.523 . S
C2464 C2445 1.368 . S
C2464 C2458 1.368 . S
C2464 C2463 1.523 . S
C2465 C2449 1.429 . S
C2465 C2461 1.429 . S
C2465 C2466 1.523 . S
C2466 C2450 1.368 . S
C2466 C2462 1.368 . S
C2466 C2465 1.523 . S
H2467 C2442 0.950 . S
H2468 C2444 0.950 . S
H2469 C2445 0.949 . S
H2470 C2447 0.950 . S
H2471 C2449 0.950 . S
C2472 C2473 1.349 . S
C2472 C2474 1.327 . S
C2472 H2497 0.950 . S
C2473 C2472 1.349 . S
C2473 C2489 1.349 . S
C2474 C2472 1.327 . S
C2474 C2493 1.429 . S
C2474 H2498 0.950 . S
C2475 C2492 1.574 . S
C2475 C2494 1.368 . S
C2475 H2499 0.949 . S
H2476 C2480 0.949 . S
C2477 C2478 1.349 . S
C2477 C2479 1.327 . S
C2477 H2500 0.950 . S
C2478 C2477 1.349 . S
C2478 C2490 1.349 . S
C2479 C2477 1.327 . S
C2479 C2495 1.429 . S
C2479 H2501 0.950 . S
C2480 H2476 0.949 . S
C2480 C2488 1.574 . S
C2480 C2496 1.368 . S
H2481 C2489 0.950 . S
H2482 C2487 0.950 . S
H2483 C2488 0.949 . S
H2484 C2490 0.950 . S
H2485 C2491 0.950 . S
H2486 C2492 0.949 . S
C2487 H2482 0.950 . S
C2487 C2489 1.327 . S
C2487 C2493 1.429 . S
C2488 C2480 1.574 . S
C2488 H2483 0.949 . S
C2488 C2494 1.368 . S
C2489 C2473 1.349 . S
C2489 H2481 0.950 . S
C2489 C2487 1.327 . S
C2490 C2478 1.349 . S
C2490 H2484 0.950 . S
C2490 C2491 1.327 . S
C2491 H2485 0.950 . S
C2491 C2490 1.327 . S
C2491 C2495 1.429 . S
C2492 C2475 1.574 . S
C2492 H2486 0.949 . S
C2492 C2496 1.368 . S
C2493 C2474 1.429 . S
C2493 C2487 1.429 . S
C2493 C2494 1.523 . S
C2494 C2475 1.368 . S
C2494 C2488 1.368 . S
C2494 C2493 1.523 . S
C2495 C2479 1.429 . S
C2495 C2491 1.429 . S
C2495 C2496 1.523 . S
C2496 C2480 1.368 . S
C2496 C2492 1.368 . S
C2496 C2495 1.523 . S
H2497 C2472 0.950 . S
H2498 C2474 0.950 . S
H2499 C2475 0.949 . S
H2500 C2477 0.950 . S
H2501 C2479 0.950 . S
C2502 C2503 1.349 . S
C2502 C2504 1.327 . S
C2502 H2527 0.950 . S
C2503 C2502 1.349 . S
C2503 C2519 1.349 . S
C2504 C2502 1.327 . S
C2504 C2523 1.429 . S
C2504 H2528 0.950 . S
C2505 C2522 1.574 . S
C2505 C2524 1.368 . S
C2505 H2529 0.949 . S
H2506 C2510 0.949 . S
C2507 C2508 1.349 . S
C2507 C2509 1.327 . S
C2507 H2530 0.950 . S
C2508 C2507 1.349 . S
C2508 C2520 1.349 . S
C2509 C2507 1.327 . S
C2509 C2525 1.429 . S
C2509 H2531 0.950 . S
C2510 H2506 0.949 . S
C2510 C2518 1.574 . S
C2510 C2526 1.368 . S
H2511 C2519 0.950 . S
H2512 C2517 0.950 . S
H2513 C2518 0.949 . S
H2514 C2520 0.950 . S
H2515 C2521 0.950 . S
H2516 C2522 0.949 . S
C2517 H2512 0.950 . S
C2517 C2519 1.327 . S
C2517 C2523 1.429 . S
C2518 C2510 1.574 . S
C2518 H2513 0.949 . S
C2518 C2524 1.368 . S
C2519 C2503 1.349 . S
C2519 H2511 0.950 . S
C2519 C2517 1.327 . S
C2520 C2508 1.349 . S
C2520 H2514 0.950 . S
C2520 C2521 1.327 . S
C2521 H2515 0.950 . S
C2521 C2520 1.327 . S
C2521 C2525 1.429 . S
C2522 C2505 1.574 . S
C2522 H2516 0.949 . S
C2522 C2526 1.368 . S
C2523 C2504 1.429 . S
C2523 C2517 1.429 . S
C2523 C2524 1.523 . S
C2524 C2505 1.368 . S
C2524 C2518 1.368 . S
C2524 C2523 1.523 . S
C2525 C2509 1.429 . S
C2525 C2521 1.429 . S
C2525 C2526 1.523 . S
C2526 C2510 1.368 . S
C2526 C2522 1.368 . S
C2526 C2525 1.523 . S
H2527 C2502 0.950 . S
H2528 C2504 0.950 . S
H2529 C2505 0.949 . S
H2530 C2507 0.950 . S
H2531 C2509 0.950 . S
C2532 C2533 1.349 . S
C2532 C2534 1.327 . S
C2532 H2557 0.950 . S
C2533 C2532 1.349 . S
C2533 C2549 1.349 . S
C2534 C2532 1.327 . S
C2534 C2553 1.429 . S
C2534 H2558 0.950 . S
C2535 C2552 1.574 . S
C2535 C2554 1.368 . S
C2535 H2559 0.949 . S
H2536 C2540 0.949 . S
C2537 C2538 1.349 . S
C2537 C2539 1.327 . S
C2537 H2560 0.950 . S
C2538 C2537 1.349 . S
C2538 C2550 1.349 . S
C2539 C2537 1.327 . S
C2539 C2555 1.429 . S
C2539 H2561 0.950 . S
C2540 H2536 0.949 . S
C2540 C2548 1.574 . S
C2540 C2556 1.368 . S
H2541 C2549 0.950 . S
H2542 C2547 0.950 . S
H2543 C2548 0.949 . S
H2544 C2550 0.950 . S
H2545 C2551 0.950 . S
H2546 C2552 0.949 . S
C2547 H2542 0.950 . S
C2547 C2549 1.327 . S
C2547 C2553 1.429 . S
C2548 C2540 1.574 . S
C2548 H2543 0.949 . S
C2548 C2554 1.368 . S
C2549 C2533 1.349 . S
C2549 H2541 0.950 . S
C2549 C2547 1.327 . S
C2550 C2538 1.349 . S
C2550 H2544 0.950 . S
C2550 C2551 1.327 . S
C2551 H2545 0.950 . S
C2551 C2550 1.327 . S
C2551 C2555 1.429 . S
C2552 C2535 1.574 . S
C2552 H2546 0.949 . S
C2552 C2556 1.368 . S
C2553 C2534 1.429 . S
C2553 C2547 1.429 . S
C2553 C2554 1.523 . S
C2554 C2535 1.368 . S
C2554 C2548 1.368 . S
C2554 C2553 1.523 . S
C2555 C2539 1.429 . S
C2555 C2551 1.429 . S
C2555 C2556 1.523 . S
C2556 C2540 1.368 . S
C2556 C2552 1.368 . S
C2556 C2555 1.523 . S
H2557 C2532 0.950 . S
H2558 C2534 0.950 . S
H2559 C2535 0.949 . S
H2560 C2537 0.950 . S
H2561 C2539 0.950 . S
C2562 C2563 1.349 . S
C2562 C2564 1.327 . S
C2562 H2587 0.950 . S
C2563 C2562 1.349 . S
C2563 C2579 1.349 . S
C2564 C2562 1.327 . S
C2564 C2583 1.429 . S
C2564 H2588 0.950 . S
C2565 C2582 1.574 . S
C2565 C2584 1.368 . S
C2565 H2589 0.949 . S
H2566 C2570 0.949 . S
C2567 C2568 1.349 . S
C2567 C2569 1.327 . S
C2567 H2590 0.950 . S
C2568 C2567 1.349 . S
C2568 C2580 1.349 . S
C2569 C2567 1.327 . S
C2569 C2585 1.429 . S
C2569 H2591 0.950 . S
C2570 H2566 0.949 . S
C2570 C2578 1.574 . S
C2570 C2586 1.368 . S
H2571 C2579 0.950 . S
H2572 C2577 0.950 . S
H2573 C2578 0.949 . S
H2574 C2580 0.950 . S
H2575 C2581 0.950 . S
H2576 C2582 0.949 . S
C2577 H2572 0.950 . S
C2577 C2579 1.327 . S
C2577 C2583 1.429 . S
C2578 C2570 1.574 . S
C2578 H2573 0.949 . S
C2578 C2584 1.368 . S
C2579 C2563 1.349 . S
C2579 H2571 0.950 . S
C2579 C2577 1.327 . S
C2580 C2568 1.349 . S
C2580 H2574 0.950 . S
C2580 C2581 1.327 . S
C2581 H2575 0.950 . S
C2581 C2580 1.327 . S
C2581 C2585 1.429 . S
C2582 C2565 1.574 . S
C2582 H2576 0.949 . S
C2582 C2586 1.368 . S
C2583 C2564 1.429 . S
C2583 C2577 1.429 . S
C2583 C2584 1.523 . S
C2584 C2565 1.368 . S
C2584 C2578 1.368 . S
C2584 C2583 1.523 . S
C2585 C2569 1.429 . S
C2585 C2581 1.429 . S
C2585 C2586 1.523 . S
C2586 C2570 1.368 . S
C2586 C2582 1.368 . S
C2586 C2585 1.523 . S
H2587 C2562 0.950 . S
H2588 C2564 0.950 . S
H2589 C2565 0.949 . S
H2590 C2567 0.950 . S
H2591 C2569 0.950 . S
C2592 C2593 1.349 . S
C2592 C2594 1.327 . S
C2592 H2617 0.950 . S
C2593 C2592 1.349 . S
C2593 C2609 1.349 . S
C2594 C2592 1.327 . S
C2594 C2613 1.429 . S
C2594 H2618 0.950 . S
C2595 C2612 1.574 . S
C2595 C2614 1.368 . S
C2595 H2619 0.949 . S
H2596 C2600 0.949 . S
C2597 C2598 1.349 . S
C2597 C2599 1.327 . S
C2597 H2620 0.950 . S
C2598 C2597 1.349 . S
C2598 C2610 1.349 . S
C2599 C2597 1.327 . S
C2599 C2615 1.429 . S
C2599 H2621 0.950 . S
C2600 H2596 0.949 . S
C2600 C2608 1.574 . S
C2600 C2616 1.368 . S
H2601 C2609 0.950 . S
H2602 C2607 0.950 . S
H2603 C2608 0.949 . S
H2604 C2610 0.950 . S
H2605 C2611 0.950 . S
H2606 C2612 0.949 . S
C2607 H2602 0.950 . S
C2607 C2609 1.327 . S
C2607 C2613 1.429 . S
C2608 C2600 1.574 . S
C2608 H2603 0.949 . S
C2608 C2614 1.368 . S
C2609 C2593 1.349 . S
C2609 H2601 0.950 . S
C2609 C2607 1.327 . S
C2610 C2598 1.349 . S
C2610 H2604 0.950 . S
C2610 C2611 1.327 . S
C2611 H2605 0.950 . S
C2611 C2610 1.327 . S
C2611 C2615 1.429 . S
C2612 C2595 1.574 . S
C2612 H2606 0.949 . S
C2612 C2616 1.368 . S
C2613 C2594 1.429 . S
C2613 C2607 1.429 . S
C2613 C2614 1.523 . S
C2614 C2595 1.368 . S
C2614 C2608 1.368 . S
C2614 C2613 1.523 . S
C2615 C2599 1.429 . S
C2615 C2611 1.429 . S
C2615 C2616 1.523 . S
C2616 C2600 1.368 . S
C2616 C2612 1.368 . S
C2616 C2615 1.523 . S
H2617 C2592 0.950 . S
H2618 C2594 0.950 . S
H2619 C2595 0.949 . S
H2620 C2597 0.950 . S
H2621 C2599 0.950 . S
C2622 C2623 1.349 . S
C2622 C2624 1.327 . S
C2622 H2647 0.950 . S
C2623 C2622 1.349 . S
C2623 C2639 1.349 . S
C2624 C2622 1.327 . S
C2624 C2643 1.429 . S
C2624 H2648 0.950 . S
C2625 C2642 1.574 . S
C2625 C2644 1.368 . S
C2625 H2649 0.949 . S
H2626 C2630 0.949 . S
C2627 C2628 1.349 . S
C2627 C2629 1.327 . S
C2627 H2650 0.950 . S
C2628 C2627 1.349 . S
C2628 C2640 1.349 . S
C2629 C2627 1.327 . S
C2629 C2645 1.429 . S
C2629 H2651 0.950 . S
C2630 H2626 0.949 . S
C2630 C2638 1.574 . S
C2630 C2646 1.368 . S
H2631 C2639 0.950 . S
H2632 C2637 0.950 . S
H2633 C2638 0.949 . S
H2634 C2640 0.950 . S
H2635 C2641 0.950 . S
H2636 C2642 0.949 . S
C2637 H2632 0.950 . S
C2637 C2639 1.327 . S
C2637 C2643 1.429 . S
C2638 C2630 1.574 . S
C2638 H2633 0.949 . S
C2638 C2644 1.368 . S
C2639 C2623 1.349 . S
C2639 H2631 0.950 . S
C2639 C2637 1.327 . S
C2640 C2628 1.349 . S
C2640 H2634 0.950 . S
C2640 C2641 1.327 . S
C2641 H2635 0.950 . S
C2641 C2640 1.327 . S
C2641 C2645 1.429 . S
C2642 C2625 1.574 . S
C2642 H2636 0.949 . S
C2642 C2646 1.368 . S
C2643 C2624 1.429 . S
C2643 C2637 1.429 . S
C2643 C2644 1.523 . S
C2644 C2625 1.368 . S
C2644 C2638 1.368 . S
C2644 C2643 1.523 . S
C2645 C2629 1.429 . S
C2645 C2641 1.429 . S
C2645 C2646 1.523 . S
C2646 C2630 1.368 . S
C2646 C2642 1.368 . S
C2646 C2645 1.523 . S
H2647 C2622 0.950 . S
H2648 C2624 0.950 . S
H2649 C2625 0.949 . S
H2650 C2627 0.950 . S
H2651 C2629 0.950 . S
C2652 C2653 1.349 . S
C2652 C2654 1.327 . S
C2652 H2677 0.950 . S
C2653 C2652 1.349 . S
C2653 C2669 1.349 . S
C2654 C2652 1.327 . S
C2654 C2673 1.429 . S
C2654 H2678 0.950 . S
C2655 C2672 1.574 . S
C2655 C2674 1.368 . S
C2655 H2679 0.949 . S
H2656 C2660 0.949 . S
C2657 C2658 1.349 . S
C2657 C2659 1.327 . S
C2657 H2680 0.950 . S
C2658 C2657 1.349 . S
C2658 C2670 1.349 . S
C2659 C2657 1.327 . S
C2659 C2675 1.429 . S
C2659 H2681 0.950 . S
C2660 H2656 0.949 . S
C2660 C2668 1.574 . S
C2660 C2676 1.368 . S
H2661 C2669 0.950 . S
H2662 C2667 0.950 . S
H2663 C2668 0.949 . S
H2664 C2670 0.950 . S
H2665 C2671 0.950 . S
H2666 C2672 0.949 . S
C2667 H2662 0.950 . S
C2667 C2669 1.327 . S
C2667 C2673 1.429 . S
C2668 C2660 1.574 . S
C2668 H2663 0.949 . S
C2668 C2674 1.368 . S
C2669 C2653 1.349 . S
C2669 H2661 0.950 . S
C2669 C2667 1.327 . S
C2670 C2658 1.349 . S
C2670 H2664 0.950 . S
C2670 C2671 1.327 . S
C2671 H2665 0.950 . S
C2671 C2670 1.327 . S
C2671 C2675 1.429 . S
C2672 C2655 1.574 . S
C2672 H2666 0.949 . S
C2672 C2676 1.368 . S
C2673 C2654 1.429 . S
C2673 C2667 1.429 . S
C2673 C2674 1.523 . S
C2674 C2655 1.368 . S
C2674 C2668 1.368 . S
C2674 C2673 1.523 . S
C2675 C2659 1.429 . S
C2675 C2671 1.429 . S
C2675 C2676 1.523 . S
C2676 C2660 1.368 . S
C2676 C2672 1.368 . S
C2676 C2675 1.523 . S
H2677 C2652 0.950 . S
H2678 C2654 0.950 . S
H2679 C2655 0.949 . S
H2680 C2657 0.950 . S
H2681 C2659 0.950 . S
C2682 C2683 1.349 . S
C2682 C2684 1.327 . S
C2682 H2707 0.950 . S
C2683 C2682 1.349 . S
C2683 C2699 1.349 . S
C2684 C2682 1.327 . S
C2684 C2703 1.429 . S
C2684 H2708 0.950 . S
C2685 C2702 1.574 . S
C2685 C2704 1.368 . S
C2685 H2709 0.949 . S
H2686 C2690 0.949 . S
C2687 C2688 1.349 . S
C2687 C2689 1.327 . S
C2687 H2710 0.950 . S
C2688 C2687 1.349 . S
C2688 C2700 1.349 . S
C2689 C2687 1.327 . S
C2689 C2705 1.429 . S
C2689 H2711 0.950 . S
C2690 H2686 0.949 . S
C2690 C2698 1.574 . S
C2690 C2706 1.368 . S
H2691 C2699 0.950 . S
H2692 C2697 0.950 . S
H2693 C2698 0.949 . S
H2694 C2700 0.950 . S
H2695 C2701 0.950 . S
H2696 C2702 0.949 . S
C2697 H2692 0.950 . S
C2697 C2699 1.327 . S
C2697 C2703 1.429 . S
C2698 C2690 1.574 . S
C2698 H2693 0.949 . S
C2698 C2704 1.368 . S
C2699 C2683 1.349 . S
C2699 H2691 0.950 . S
C2699 C2697 1.327 . S
C2700 C2688 1.349 . S
C2700 H2694 0.950 . S
C2700 C2701 1.327 . S
C2701 H2695 0.950 . S
C2701 C2700 1.327 . S
C2701 C2705 1.429 . S
C2702 C2685 1.574 . S
C2702 H2696 0.949 . S
C2702 C2706 1.368 . S
C2703 C2684 1.429 . S
C2703 C2697 1.429 . S
C2703 C2704 1.523 . S
C2704 C2685 1.368 . S
C2704 C2698 1.368 . S
C2704 C2703 1.523 . S
C2705 C2689 1.429 . S
C2705 C2701 1.429 . S
C2705 C2706 1.523 . S
C2706 C2690 1.368 . S
C2706 C2702 1.368 . S
C2706 C2705 1.523 . S
H2707 C2682 0.950 . S
H2708 C2684 0.950 . S
H2709 C2685 0.949 . S
H2710 C2687 0.950 . S
H2711 C2689 0.950 . S
C1273 C1205 1.880 . S
C1278 C39 1.880 . S
C1303 C92 1.466 . S
C1308 C1241 1.466 . S
C1333 C1098 1.571 . S
C1338 C128 1.573 . S
C1363 C1142 1.347 . S
C1368 C188 1.348 . S
C1393 C1135 1.280 . S
C1398 C234 1.280 . S
C1423 C304 1.834 . S
C1428 C1204 1.834 . S
C1453 C1248 1.463 . S
C1458 C356 1.463 . S
C1483 C393 1.702 . S
C1488 C1099 1.701 . S
C1513 C462 1.703 . S
C1518 C1029 1.703 . S
C1543 C886 1.502 . S
C1548 C499 1.503 . S
C1573 C552 1.668 . S
C1578 C939 1.668 . S
C1603 C992 1.600 . S
C1608 C622 1.601 . S
C1633 C621 1.579 . S
C1638 C727 1.580 . S
C1663 C463 1.704 . S
C1668 C781 1.704 . S
C1693 C824 1.337 . S
C1698 C506 1.337 . S
C1723 C559 1.703 . S
C1728 C665 1.702 . S
C1753 C91 1.618 . S
C1758 C993 1.617 . S
C1783 C780 1.692 . S
C1788 C400 1.692 . S
C1813 C241 1.208 . S
C1818 C817 1.209 . S
C1843 C658 1.832 . S
C1848 C303 1.831 . S
C1873 C357 1.578 . S
C1878 C728 1.578 . S
C1903 C181 1.378 . S
C1908 C887 1.378 . S
C1933 C38 1.858 . S
C1938 C940 1.860 . S
C1963 C135 1.518 . S
C1968 C1036 1.517 . S
C1993 C347 1.270 . S
C1998 C1089 1.270 . S
C2023 C1151 1.526 . S
C2028 C410 1.526 . S
C2053 C1188 1.405 . S
C2058 C251 1.405 . S
C2083 C1258 1.706 . S
C2088 C287 1.706 . S
C2113 C145 1.826 . S
C2118 C1257 1.827 . S
C2143 C197 1.207 . S
C2148 C1082 1.206 . S
C2173 C22 1.528 . S
C2178 C1152 1.529 . S
C2203 C1195 1.361 . S
C2208 C75 1.360 . S
C2233 C569 1.470 . S
C2238 C718 1.470 . S
C2263 C605 1.558 . S
C2268 C764 1.558 . S
C2293 C453 1.172 . S
C2298 C833 1.171 . S
C2323 C516 1.524 . S
C2328 C674 1.526 . S
C2353 C515 1.565 . S
C2358 C1046 1.563 . S
C2383 C877 1.259 . S
C2388 C568 1.259 . S
C2413 C612 1.575 . S
C2418 C930 1.576 . S
C2443 C446 1.229 . S
C2448 C983 1.230 . S
C2473 C675 1.590 . S
C2478 C409 1.591 . S
C2503 C870 1.248 . S
C2508 C82 1.248 . S
C2533 C144 1.662 . S
C2538 C923 1.660 . S
C2563 C976 1.259 . S
C2568 C198 1.258 . S
C2593 C1045 1.591 . S
C2598 C29 1.591 . S
C2623 C294 1.482 . S
C2628 C771 1.481 . S
C2653 C834 1.298 . S
C2658 C340 1.296 . S
C2683 C711 1.424 . S
C2688 C250 1.424 . S
