# Generated by pormake.
# Topology smc, (6)-cn, num edge types: 1
# Building blocks:
#     Node 0, Type 0, BuildingBlock: JUFBIX_clean_sbu_0, # of connection points: 6
#     Node 1, Type 0, BuildingBlock: JUFBIX_clean_sbu_0, # of connection points: 6
#     Node 2, Type 0, BuildingBlock: JUFBIX_clean_sbu_0, # of connection points: 6
#     Node 3, Type 0, BuildingBlock: JUFBIX_clean_sbu_0, # of connection points: 6
#     Node 4, Type 0, BuildingBlock: JUFBIX_clean_sbu_0, # of connection points: 6
#     Node 5, Type 0, BuildingBlock: JUFBIX_clean_sbu_0, # of connection points: 6
#     Node 6, Type 0, BuildingBlock: JUFBIX_clean_sbu_0, # of connection points: 6
#     Node 7, Type 0, BuildingBlock: JUFBIX_clean_sbu_0, # of connection points: 6
#     Node 8, Type 0, BuildingBlock: JUFBIX_clean_sbu_0, # of connection points: 6
#     Edge 9, Type (0, 0), BuildingBlock: TEMPAE_clean_linker_10, # of connection points: 2
#     Edge 10, Type (0, 0), BuildingBlock: TEMPAE_clean_linker_10, # of connection points: 2
#     Edge 11, Type (0, 0), BuildingBlock: TEMPAE_clean_linker_10, # of connection points: 2
#     Edge 12, Type (0, 0), BuildingBlock: TEMPAE_clean_linker_10, # of connection points: 2
#     Edge 13, Type (0, 0), BuildingBlock: TEMPAE_clean_linker_10, # of connection points: 2
#     Edge 14, Type (0, 0), BuildingBlock: TEMPAE_clean_linker_10, # of connection points: 2
#     Edge 15, Type (0, 0), BuildingBlock: TEMPAE_clean_linker_10, # of connection points: 2
#     Edge 16, Type (0, 0), BuildingBlock: TEMPAE_clean_linker_10, # of connection points: 2
#     Edge 17, Type (0, 0), BuildingBlock: TEMPAE_clean_linker_10, # of connection points: 2
#     Edge 18, Type (0, 0), BuildingBlock: TEMPAE_clean_linker_10, # of connection points: 2
#     Edge 19, Type (0, 0), BuildingBlock: TEMPAE_clean_linker_10, # of connection points: 2
#     Edge 20, Type (0, 0), BuildingBlock: TEMPAE_clean_linker_10, # of connection points: 2
#     Edge 21, Type (0, 0), BuildingBlock: TEMPAE_clean_linker_10, # of connection points: 2
#     Edge 22, Type (0, 0), BuildingBlock: TEMPAE_clean_linker_10, # of connection points: 2
#     Edge 23, Type (0, 0), BuildingBlock: TEMPAE_clean_linker_10, # of connection points: 2
#     Edge 24, Type (0, 0), BuildingBlock: TEMPAE_clean_linker_10, # of connection points: 2
#     Edge 25, Type (0, 0), BuildingBlock: TEMPAE_clean_linker_10, # of connection points: 2
#     Edge 26, Type (0, 0), BuildingBlock: TEMPAE_clean_linker_10, # of connection points: 2
#     Edge 27, Type (0, 0), BuildingBlock: TEMPAE_clean_linker_10, # of connection points: 2
#     Edge 28, Type (0, 0), BuildingBlock: TEMPAE_clean_linker_10, # of connection points: 2
#     Edge 29, Type (0, 0), BuildingBlock: TEMPAE_clean_linker_10, # of connection points: 2
#     Edge 30, Type (0, 0), BuildingBlock: TEMPAE_clean_linker_10, # of connection points: 2
#     Edge 31, Type (0, 0), BuildingBlock: TEMPAE_clean_linker_10, # of connection points: 2
#     Edge 32, Type (0, 0), BuildingBlock: TEMPAE_clean_linker_10, # of connection points: 2
#     Edge 33, Type (0, 0), BuildingBlock: TEMPAE_clean_linker_10, # of connection points: 2
#     Edge 34, Type (0, 0), BuildingBlock: TEMPAE_clean_linker_10, # of connection points: 2
#     Edge 35, Type (0, 0), BuildingBlock: TEMPAE_clean_linker_10, # of connection points: 2
# Relax obj value: 0.469
# Max RMSD: 0.315
# Mean RMSD: 0.306
data_MOF--net-smc--node1-JUFBIX_clean_sbu_0--edge1-TEMPAE_clean_linker_10
_symmetry_space_group_name_H-M    P1
_symmetry_Int_Tables_number       1
_symmetry_cell_setting            triclinic
loop_
_symmetry_equiv_pos_as_xyz
'x, y, z'
_cell_length_a     29.533058
_cell_length_b     34.08532
_cell_length_c     41.349976
_cell_angle_alpha  89.724632
_cell_angle_beta   89.228967
_cell_angle_gamma 120.08986
loop_
_atom_site_label
_atom_site_type_symbol
_atom_site_fract_x
_atom_site_fract_y
_atom_site_fract_z
_atom_type_partial_charge
Co0 Co 0.08327 0.50569 1.02002 0.0
C1 C 0.03836 0.45394 0.96435 0.0
Co2 Co 1.02456 0.43382 0.02963 0.0
C3 C 0.12909 0.60297 1.02279 0.0
C4 C 0.1728 0.58358 0.9916 0.0
N5 N 0.13051 0.56641 1.0116 0.0
N6 N 0.16874 0.64212 1.01057 0.0
C7 C 0.19653 0.6301 0.99107 0.0
H8 H 0.09949 0.601 0.03952 0.0
H9 H 0.18505 0.56354 0.97779 0.0
C10 C 0.06889 0.48029 0.0857 0.0
N11 N 0.97532 0.37313 0.03861 0.0
C12 C 0.92372 0.35099 0.03165 0.0
C13 C 0.98142 0.34411 0.05782 0.0
N14 N 0.89721 0.30974 0.04624 0.0
C15 C 0.93362 0.30526 0.06258 0.0
C16 C 0.13067 0.4543 1.02221 0.0
O17 O 0.09619 0.51422 0.06677 0.0
O18 O 0.03375 0.44364 0.07384 0.0
O19 O 0.08424 0.42136 0.02859 0.0
O20 O 0.13726 0.49323 1.01674 0.0
O21 O 1.0146 0.42275 0.98535 0.0
H22 H 1.01778 0.35159 0.06895 0.0
H23 H 0.90534 0.36588 1.01761 0.0
O24 O 0.07043 0.4942 0.9736 0.0
O25 O 0.02913 0.51986 1.02329 0.0
O26 O 0.96853 0.44922 0.03073 0.0
C27 C 0.9812 0.49077 0.02747 0.0
H28 H 0.23061 0.65325 0.97669 0.0
H29 H 0.92611 0.2764 0.07754 0.0
Co30 Co 0.60059 0.53949 0.04063 0.0
C31 C 0.621 0.60405 0.08751 0.0
Co32 Co 0.62594 0.60634 1.01983 0.0
C33 C 0.53225 0.44533 0.04519 0.0
C34 C 0.58834 0.46759 0.08303 0.0
N35 N 0.57477 0.48204 0.05644 0.0
N36 N 0.51781 0.40859 0.06399 0.0
C37 C 0.55325 0.4221 0.0877 0.0
H38 H 0.51152 0.44586 1.02396 0.0
H39 H 0.62029 0.48907 0.09862 0.0
C40 C 0.61001 0.54575 0.9723 0.0
N41 N 0.65094 0.66452 1.00432 0.0
C42 C 0.63342 0.69234 1.01383 0.0
C43 C 0.68889 0.68862 0.9821 0.0
N44 N 0.65863 0.73297 0.99853 0.0
C45 C 0.69357 0.73076 0.97837 0.0
C46 C 0.70624 0.58509 0.03296 0.0
O47 O 0.60074 0.51882 0.99628 0.0
O48 O 0.61906 0.58554 0.97757 0.0
O49 O 0.69819 0.61537 1.02018 0.0
O50 O 0.66791 0.54978 0.04501 0.0
O51 O 0.63374 0.6288 0.06231 0.0
H52 H 0.71129 0.67621 0.96929 0.0
H53 H 0.6016 0.68235 0.03116 0.0
O54 O 0.60301 0.56162 0.08429 0.0
O55 O 0.53083 0.52707 0.03665 0.0
O56 O 0.55287 0.59468 1.01912 0.0
C57 C 0.51689 0.55474 0.02733 0.0
H58 H 0.5526 0.40111 0.10764 0.0
H59 H 0.7204 0.7575 0.96202 0.0
Co60 Co 0.42951 0.99935 1.01862 0.0
C61 C 0.42762 0.06077 0.97374 0.0
Co62 Co 0.40243 0.04326 0.039 0.0
C63 C 0.48483 0.94926 1.01208 0.0
C64 C 0.4363 0.9417 0.97181 0.0
N65 N 0.45226 0.96276 1.00042 0.0
N66 N 0.48912 0.92018 0.99194 0.0
C67 C 0.45867 0.91537 0.96662 0.0
H68 H 0.50373 0.95947 0.03523 0.0
H69 H 0.40937 0.94475 0.95595 0.0
C70 C 0.40236 0.98319 0.0844 0.0
N71 N 0.37662 0.0773 0.05681 0.0
C72 C 0.3433 0.08801 0.04278 0.0
C73 C 0.38365 0.09441 0.08677 0.0
N74 N 0.32985 0.11207 0.06245 0.0
C75 C 0.35503 0.1158 0.0903 0.0
C76 C 0.32314 0.96116 1.01602 0.0
O77 O 0.41685 0.96786 0.06074 0.0
O78 O 0.39694 0.01721 0.07964 0.0
O79 O 0.33136 0.99645 0.03104 0.0
O80 O 0.36159 0.95702 1.0072 0.0
O81 O 0.40821 0.07052 0.99781 0.0
H82 H 0.40904 0.09252 0.10457 0.0
H83 H 0.33071 0.07978 1.01805 0.0
O84 O 0.44038 0.03042 0.97725 0.0
O85 O 0.49871 0.04231 0.02993 0.0
O86 O 0.47391 0.08949 0.04732 0.0
C87 C 0.51053 0.08086 0.04123 0.0
H88 H 0.45297 0.89424 0.94587 0.0
H89 H 0.35642 0.13597 0.11081 0.0
Co90 Co 0.7631 0.82015 0.35469 0.0
C91 C 0.70494 0.76384 0.30345 0.0
Co92 Co 0.69077 0.75785 0.36985 0.0
C93 C 0.82127 0.91727 0.35366 0.0
C94 C 0.85686 0.89259 0.32036 0.0
N95 N 0.81778 0.87843 0.34257 0.0
N96 N 0.85994 0.95499 0.33902 0.0
C97 C 0.88294 0.93957 0.31824 0.0
H98 H 0.79496 0.91786 0.37187 0.0
H99 H 0.86469 0.87027 0.30584 0.0
C100 C 0.74742 0.80993 0.42174 0.0
N101 N 0.63778 0.70331 0.3848 0.0
C102 C 0.5884 0.67797 0.3747 0.0
C103 C 0.6421 0.67968 0.40972 0.0
N104 N 0.56185 0.63955 0.39249 0.0
C105 C 0.59546 0.64047 0.41451 0.0
C106 C 0.78258 0.75259 0.3632 0.0
O107 O 0.77986 0.83613 0.40016 0.0
O108 O 0.70587 0.77549 0.41281 0.0
O109 O 0.73454 0.73298 0.37091 0.0
O110 O 0.80653 0.7943 0.35467 0.0
O111 O 0.6752 0.7397 0.32667 0.0
H112 H 0.67715 0.69029 0.42352 0.0
H113 H 0.5722 0.68779 0.35501 0.0
O114 O 0.7459 0.80178 0.30964 0.0
O115 O 0.71834 0.84435 0.35434 0.0
O116 O 0.64639 0.78236 0.36862 0.0
C117 C 0.66966 0.82388 0.36037 0.0
H118 H 0.91486 0.96054 0.30165 0.0
H119 H 0.58712 0.61438 0.43246 0.0
Co120 Co 0.21937 0.89711 0.37024 0.0
C121 C 0.26459 0.89979 0.31037 0.0
Co122 Co 0.30347 0.9265 0.37239 0.0
C123 C 0.11881 0.83627 0.39403 0.0
C124 C 0.11552 0.88067 0.35837 0.0
N125 N 0.14843 0.86949 0.37253 0.0
N126 N 0.06907 0.82657 0.39411 0.0
C127 C 0.06634 0.85416 0.37176 0.0
H128 H 0.13348 0.82032 0.41018 0.0
H129 H 0.12675 0.90698 0.34016 0.0
C130 C 0.26338 0.92841 0.43169 0.0
N131 N 0.37478 0.95574 0.37226 0.0
C132 C 0.40578 0.94214 0.35836 0.0
C133 C 0.40756 0.99544 0.38644 0.0
N134 N 0.45671 0.97154 0.36347 0.0
C135 C 0.45819 1.00511 0.38126 0.0
C136 C 0.26621 0.98876 0.36181 0.0
O137 O 0.22079 0.91067 0.41621 0.0
O138 O 0.30439 0.93476 0.41715 0.0
O139 O 0.30752 0.98627 0.3658 0.0
O140 O 0.22271 0.95243 0.36153 0.0
O141 O 0.30474 0.91918 0.32774 0.0
H142 H 0.39531 0.01542 0.40034 0.0
H143 H 0.39111 0.91016 0.34604 0.0
O144 O 0.21954 0.88587 0.32359 0.0
O145 O 0.21365 0.83971 0.37928 0.0
O146 O 0.29755 0.86551 0.37896 0.0
C147 C 0.25088 0.83163 0.38144 0.0
H148 H 0.03112 0.85444 0.36522 0.0
H149 H 0.49315 0.0337 0.39064 0.0
Co150 Co 0.10885 0.31588 0.35384 0.0
C151 C 0.10618 0.37065 0.3044 0.0
Co152 Co 0.08247 0.36395 0.37117 0.0
C153 C 0.15249 0.25315 0.35445 0.0
C154 C 0.10851 0.24861 0.31254 0.0
N155 N 0.12581 0.27154 0.34035 0.0
N156 N 0.15181 0.21947 0.3365 0.0
C157 C 0.12417 0.21697 0.31014 0.0
H158 H 0.17066 0.26331 0.37781 0.0
H159 H 0.08495 0.25397 0.29521 0.0
C160 C 0.08198 0.30989 0.42114 0.0
N161 N 0.06892 0.41258 0.38183 0.0
C162 C 0.10458 0.4566 0.38933 0.0
C163 C 0.02718 0.41525 0.37193 0.0
N164 N 0.08741 0.48629 0.38349 0.0
C165 C 0.03828 0.45981 0.37287 0.0
C166 C 1.0008 0.27994 0.35362 0.0
O167 O 0.09599 0.29252 0.39836 0.0
O168 O 0.07717 0.3444 0.41494 0.0
O169 O 1.00839 0.31717 0.36617 0.0
O170 O 0.03954 0.27578 0.34535 0.0
O171 O 0.08765 0.38262 0.32769 0.0
H172 H 0.99254 0.38738 0.3617 0.0
H173 H 0.14416 0.4676 0.3964 0.0
O174 O 0.11952 0.34085 0.30968 0.0
O175 O 0.17877 0.35624 0.3625 0.0
O176 O 0.15449 0.40531 0.37578 0.0
C177 C 0.19043 0.39572 0.3713 0.0
H178 H 0.11571 0.19377 0.29034 0.0
H179 H 1.01284 0.47203 0.36469 0.0
Co180 Co 0.4122 0.17418 0.6849 0.0
C181 C 0.36034 0.11003 0.63696 0.0
Co182 Co 0.36038 0.10548 0.70387 0.0
C183 C 0.45641 0.27056 0.68139 0.0
C184 C 0.49033 0.24717 0.64569 0.0
N185 N 0.4545 0.23274 0.67004 0.0
N186 N 0.49213 0.30798 0.6652 0.0
C187 C 0.51385 0.29358 0.64281 0.0
H188 H 0.43277 0.27077 0.70156 0.0
H189 H 0.49892 0.22535 0.63111 0.0
C190 C 0.40868 0.16396 0.753 0.0
N191 N 0.31632 0.04633 0.71857 0.0
C192 C 0.26607 0.01875 0.71007 0.0
C193 C 0.32572 0.02237 0.7408 0.0
N194 N 0.24341 0.97859 0.72622 0.0
C195 C 0.28102 0.98081 0.74558 0.0
C196 C 0.46666 0.12916 0.69155 0.0
O197 O 0.43308 0.19296 0.73022 0.0
O198 O 0.37356 0.12438 0.74588 0.0
O199 O 0.42335 0.09743 0.70384 0.0
O200 O 0.46811 0.16421 0.68032 0.0
O201 O 0.34579 0.08488 0.66192 0.0
H202 H 0.36239 0.03463 0.75312 0.0
H203 H 0.24606 0.02862 0.69296 0.0
O204 O 0.39038 0.15277 0.64036 0.0
O205 O 0.35724 0.18627 0.68927 0.0
O206 O 0.30069 0.11682 0.70398 0.0
C207 C 0.31085 0.15716 0.69737 0.0
H208 H 0.54427 0.31506 0.62553 0.0
H209 H 0.2767 0.95436 0.76209 0.0
Co210 Co 0.93653 0.21832 0.71016 0.0
C211 C 0.96265 0.29264 0.75064 0.0
Co212 Co 0.96508 0.2822 0.68448 0.0
C213 C 0.92587 0.13601 0.73802 0.0
C214 C 0.87073 0.15392 0.75671 0.0
N215 N 0.90861 0.1655 0.73387 0.0
N216 N 0.90087 0.10731 0.76302 0.0
C217 C 0.86586 0.11815 0.77461 0.0
H218 H 0.95729 0.13658 0.72384 0.0
H219 H 0.8494 0.1716 0.76097 0.0
C220 C 0.94374 0.2124 0.64291 0.0
N221 N 0.99296 0.33655 0.66258 0.0
C222 C 0.98287 0.36986 0.66953 0.0
C223 C 0.02822 0.35295 0.63789 0.0
N224 N 1.01056 0.40675 0.65048 0.0
C225 C 0.03887 0.39623 0.63019 0.0
C226 C 0.04198 0.25907 0.70224 0.0
O227 O 0.93483 0.18846 0.66877 0.0
O228 O 0.9538 0.25289 0.64524 0.0
O229 O 0.03554 0.28769 0.68568 0.0
O230 O 1.003 0.22757 0.71706 0.0
O231 O 0.97769 0.31385 0.72394 0.0
H232 H 0.04503 0.33467 0.62632 0.0
H233 H 0.95477 0.36664 0.68795 0.0
O234 O 0.94097 0.24965 0.75041 0.0
O235 O 0.86813 0.20686 0.70347 0.0
O236 O 0.89301 0.27381 0.68308 0.0
C237 C 0.85581 0.23473 0.69227 0.0
H238 H 0.83823 0.10095 0.79433 0.0
H239 H 0.06527 0.41813 0.61128 0.0
Co240 Co 0.77823 0.65726 0.68884 0.0
C241 C 0.77513 0.72226 0.64777 0.0
Co242 Co 0.75532 0.70215 0.7127 0.0
C243 C 0.83364 0.61114 0.67078 0.0
C244 C 0.77033 0.59637 0.63917 0.0
N245 N 0.79451 0.61981 0.66587 0.0
N246 N 0.83461 0.58313 0.6483 0.0
C247 C 0.79469 0.57342 0.62847 0.0
H248 H 0.86057 0.62468 0.69063 0.0
H249 H 0.7374 0.59632 0.62798 0.0
C250 C 0.75654 0.63695 0.75387 0.0
N251 N 0.73793 0.73863 0.73618 0.0
C252 C 0.77108 0.78163 0.74461 0.0
C253 C 0.69443 0.72583 0.75465 0.0
N254 N 0.75085 0.7956 0.76805 0.0
C255 C 0.70215 0.76126 0.77414 0.0
C256 C 0.6712 0.62499 0.69032 0.0
O257 O 0.76925 0.62322 0.72857 0.0
O258 O 0.75104 0.67142 0.75174 0.0
O259 O 0.68275 0.66052 0.70602 0.0
O260 O 0.70731 0.6182 0.68034 0.0
O261 O 0.75971 0.73359 0.67313 0.0
H262 H 0.66059 0.69207 0.75553 0.0
H263 H 0.81023 0.80221 0.73464 0.0
O264 O 0.78566 0.69043 0.64979 0.0
O265 O 0.85048 0.69699 0.69734 0.0
O266 O 0.8284 0.74318 0.71938 0.0
C267 C 0.86389 0.73452 0.71084 0.0
H268 H 0.78439 0.55177 0.60757 0.0
H269 H 0.67543 0.76112 0.79238 0.0
C270 C 0.42306 0.49195 0.03199 0.0
C271 C 0.45905 0.53832 1.02622 0.0
C272 C 0.36851 0.47425 0.03187 0.0
C273 C 0.34815 0.50324 1.02565 0.0
C274 C 0.38401 0.5502 1.01983 0.0
C275 C 0.43886 0.56713 1.02005 0.0
C276 C 0.33276 0.42407 0.03791 0.0
C277 C 0.36434 0.58267 1.01365 0.0
C278 C 0.20702 0.45382 0.99604 0.0
C279 C 0.17944 0.45187 1.02449 0.0
C280 C 0.26127 0.46901 0.99621 0.0
C281 C 0.28949 0.48424 1.02538 0.0
C282 C 0.26132 0.48079 0.05438 0.0
C283 C 0.20694 0.46465 0.05357 0.0
C284 C 0.28884 0.47065 0.96483 0.0
C285 C 0.2891 0.49628 0.08613 0.0
H286 H 0.43751 0.4689 0.03662 0.0
H287 H 0.46582 0.6029 1.01567 0.0
H288 H 0.29956 0.41747 0.05428 0.0
H289 H 0.31619 0.40732 1.01462 0.0
H290 H 0.35385 0.40808 0.04876 0.0
H291 H 0.39678 0.61812 1.01 0.0
H292 H 0.33956 0.57224 0.9919 0.0
H293 H 0.33945 0.58162 0.03437 0.0
H294 H 0.18671 0.44591 0.97325 0.0
H295 H 0.18653 0.46516 0.07543 0.0
H296 H 0.31098 0.4525 0.96767 0.0
H297 H 0.31753 0.50638 0.95826 0.0
H298 H 0.26114 0.45526 0.94463 0.0
H299 H 0.31122 0.47859 0.09118 0.0
H300 H 0.26157 0.4899 0.1067 0.0
H301 H 0.31786 0.53314 0.08467 0.0
C302 C 0.49638 0.85188 0.9872 0.0
C303 C 0.51797 0.89705 0.99666 0.0
C304 C 0.52458 0.82913 0.98992 0.0
C305 C 0.57605 0.8524 1.00201 0.0
C306 C 0.59789 0.89792 1.01209 0.0
C307 C 0.56829 0.91967 1.00954 0.0
C308 C 0.49941 0.78028 0.97952 0.0
C309 C 0.65282 0.92387 1.02478 0.0
C310 C 0.62234 0.77273 0.02966 0.0
C311 C 0.64625 0.76871 1.00128 0.0
C312 C 0.60215 0.80216 0.03102 0.0
C313 C 0.60659 0.82865 1.00345 0.0
C314 C 0.63443 0.82752 0.97565 0.0
C315 C 0.65378 0.7974 0.97484 0.0
C316 C 0.57285 0.80238 0.06117 0.0
C317 C 0.64064 0.85579 0.94591 0.0
H318 H 0.45713 0.83429 0.97773 0.0
H319 H 0.58497 0.95473 1.01663 0.0
H320 H 0.52229 0.77723 0.95919 0.0
H321 H 0.49942 0.75876 0.99974 0.0
H322 H 0.45844 0.76674 0.97168 0.0
H323 H 0.66314 0.95832 0.03296 0.0
H324 H 0.65738 0.90512 0.04529 0.0
H325 H 0.68114 0.92721 1.00554 0.0
H326 H 0.61777 0.75168 0.05055 0.0
H327 H 0.67222 0.79462 0.95285 0.0
H328 H 0.53032 0.78502 0.05625 0.0
H329 H 0.58505 0.8376 0.06828 0.0
H330 H 0.57904 0.78477 0.08185 0.0
H331 H 0.60236 0.8419 0.93386 0.0
H332 H 0.66948 0.85603 0.92826 0.0
H333 H 0.65328 0.89125 0.95263 0.0
C334 C 0.25079 0.89775 0.04552 0.0
C335 C 0.27163 0.92002 1.01586 0.0
C336 C 0.22054 0.85024 0.0471 0.0
C337 C 0.21041 0.82516 1.01826 0.0
C338 C 0.22403 0.84821 0.98801 0.0
C339 C 0.2553 0.89557 0.98717 0.0
C340 C 0.20592 0.82695 0.0798 0.0
C341 C 0.21204 0.82275 0.95664 0.0
C342 C 0.22966 0.7235 1.01709 0.0
C343 C 0.17824 0.68734 1.01559 0.0
C344 C 0.24022 0.76826 1.01942 0.0
C345 C 0.19819 0.77721 1.01973 0.0
C346 C 0.14597 0.74069 1.01933 0.0
C347 C 0.13659 0.69603 1.0174 0.0
C348 C 0.29661 0.8061 1.02056 0.0
C349 C 0.10007 0.74857 1.01919 0.0
H350 H 0.26405 0.91672 0.06775 0.0
H351 H 0.27177 0.91292 0.96427 0.0
H352 H 0.16548 0.79755 0.0798 0.0
H353 H 0.23265 0.81387 0.08534 0.0
H354 H 0.20898 0.85044 0.09929 0.0
H355 H 0.21576 0.84472 0.93565 0.0
H356 H 0.23991 0.81025 0.95285 0.0
H357 H 0.1719 0.79291 0.9574 0.0
H358 H 0.26172 0.71663 1.01618 0.0
H359 H 0.09675 0.66805 1.01596 0.0
H360 H 0.30238 0.82813 0.04159 0.0
H361 H 0.30673 0.82757 0.99839 0.0
H362 H 0.32433 0.79314 1.02232 0.0
H363 H 0.10768 0.77861 0.03355 0.0
H364 H 0.064 0.71857 0.02885 0.0
H365 H 0.09274 0.75468 0.99392 0.0
C366 C 0.29565 0.16228 0.0759 0.0
C367 C 0.31226 0.14254 0.05236 0.0
C368 C 0.30931 0.20781 0.0726 0.0
C369 C 0.34013 0.23267 0.04549 0.0
C370 C 0.34263 0.20924 1.01808 0.0
C371 C 0.32801 0.16358 1.02176 0.0
C372 C 0.30076 0.23123 0.10083 0.0
C373 C 0.37122 0.23413 0.98751 0.0
C374 C 0.42679 0.36054 0.0466 0.0
C375 C 0.47244 0.36482 0.06007 0.0
C376 C 0.38272 0.3178 0.04184 0.0
C377 C 0.38467 0.27869 0.05088 0.0
C378 C 0.4308 0.28304 0.06473 0.0
C379 C 0.4739 0.3261 0.06924 0.0
C380 C 0.33439 0.3152 0.02779 0.0
C381 C 0.43534 0.24236 0.07462 0.0
H382 H 0.28 0.14483 0.09885 0.0
H383 H 0.33794 0.14766 1.00251 0.0
H384 H 0.33521 0.24473 0.11678 0.0
H385 H 0.29632 0.26008 0.09244 0.0
H386 H 0.26555 0.20726 0.11532 0.0
H387 H 0.35836 0.21112 0.96644 0.0
H388 H 0.36497 0.26304 0.98242 0.0
H389 H 0.41384 0.24775 0.99044 0.0
H390 H 0.42535 0.39064 0.03999 0.0
H391 H 0.50939 0.32957 0.07931 0.0
H392 H 0.3113 0.31912 0.0476 0.0
H393 H 0.30888 0.28249 1.0158 0.0
H394 H 0.34519 0.34318 1.01001 0.0
H395 H 0.40589 0.22266 0.09382 0.0
H396 H 0.4746 0.25209 0.08405 0.0
H397 H 0.42799 0.21988 0.05367 0.0
C398 C 0.58232 0.1594 0.05601 0.0
C399 C 0.56681 0.11568 0.04485 0.0
C400 C 0.63574 0.19286 0.05741 0.0
C401 C 0.67459 0.18251 0.04718 0.0
C402 C 0.65909 0.13833 0.03624 0.0
C403 C 0.60568 0.10558 0.03534 0.0
C404 C 0.65062 0.23941 0.06954 0.0
C405 C 0.69895 0.12571 1.02497 0.0
C406 C 0.8108 0.27608 1.02014 0.0
C407 C 0.8412 0.27892 0.04678 0.0
C408 C 0.75643 0.24565 1.0202 0.0
C409 C 0.73155 0.21759 0.04771 0.0
C410 C 0.76185 0.2211 0.07497 0.0
C411 C 0.81618 0.25146 0.07411 0.0
C412 C 0.72583 0.24269 0.99046 0.0
C413 C 0.73698 0.19227 0.10493 0.0
H414 H 0.55272 0.16764 0.06335 0.0
H415 H 0.59441 0.07202 1.0266 0.0
H416 H 0.67751 0.24819 0.09018 0.0
H417 H 0.67188 0.26512 0.05019 0.0
H418 H 0.61597 0.24177 0.07744 0.0
H419 H 0.68053 0.08987 1.01718 0.0
H420 H 0.72243 0.148 1.0044 0.0
H421 H 0.72645 0.13096 0.0447 0.0
H422 H 0.8298 0.29694 0.99889 0.0
H423 H 0.83907 0.254 0.09505 0.0
H424 H 0.69259 0.24776 0.99701 0.0
H425 H 0.70909 0.20837 0.97997 0.0
H426 H 0.75041 0.26818 0.97163 0.0
H427 H 0.70403 0.19649 0.11371 0.0
H428 H 0.76531 0.20094 0.12478 0.0
H429 H 0.72058 0.15595 0.09908 0.0
C430 C 0.95996 0.55351 0.02887 0.0
C431 C 0.94212 0.50668 0.02796 0.0
C432 C 0.92516 0.57041 0.02868 0.0
C433 C 0.87059 0.54004 1.02724 0.0
C434 C 0.85212 0.49268 1.02605 0.0
C435 C 0.88797 0.47656 1.0266 0.0
C436 C 0.94697 0.62098 0.03031 0.0
C437 C 0.79434 0.45899 1.02424 0.0
C438 C 0.77491 0.57566 0.05988 0.0
C439 C 0.75711 0.58607 0.0316 0.0
C440 C 0.81285 0.56218 0.05881 0.0
C441 C 0.83301 0.55783 0.02858 0.0
C442 C 0.81668 0.57005 0.99992 0.0
C443 C 0.77906 0.58413 1.00177 0.0
C444 C 0.82952 0.55054 0.09008 0.0
C445 C 0.8365 0.56566 0.9671 0.0
H446 H 1.00159 0.57737 0.02993 0.0
H447 H 0.87361 0.44044 1.02565 0.0
H448 H 0.93488 0.63289 1.00884 0.0
H449 H 0.93095 0.62918 0.05201 0.0
H450 H 0.99035 0.64007 0.03135 0.0
H451 H 0.78619 0.42354 1.02223 0.0
H452 H 0.77383 0.46143 0.04615 0.0
H453 H 0.7776 0.46701 1.00306 0.0
H454 H 0.75707 0.57593 0.08292 0.0
H455 H 0.76407 0.59042 0.97974 0.0
H456 H 0.87283 0.5694 0.09162 0.0
H457 H 0.81654 0.51385 0.0908 0.0
H458 H 0.81291 0.55854 0.11164 0.0
H459 H 0.87976 0.58164 0.96684 0.0
H460 H 0.82509 0.5814 0.94763 0.0
H461 H 0.82014 0.52922 0.96163 0.0
C462 C 0.79385 0.69408 0.39213 0.0
C463 C 0.81053 0.7278 0.36787 0.0
C464 C 0.82836 0.68058 0.40369 0.0
C465 C 0.87979 0.70199 0.39082 0.0
C466 C 0.89029 0.72551 0.36065 0.0
C467 C 0.85642 0.74025 0.35039 0.0
C468 C 0.8121 0.6487 0.43239 0.0
C469 C 0.9406 0.74156 0.34171 0.0
C470 C 0.98824 0.79685 0.42533 0.0
C471 C 0.02608 0.7897 0.41062 0.0
C472 C 0.93685 0.76116 0.42839 0.0
C473 C 0.92383 0.71932 0.4136 0.0
C474 C 0.96405 0.70923 0.40768 0.0
C475 C 1.01579 0.74531 0.40569 0.0
C476 C 0.89593 0.77165 0.44098 0.0
C477 C 0.95213 0.66252 0.39807 0.0
H478 H 0.75641 0.68186 0.40442 0.0
H479 H 0.86736 0.76362 0.33002 0.0
H480 H 0.84296 0.64092 0.43937 0.0
H481 H 0.80214 0.6634 0.45333 0.0
H482 H 0.77606 0.61654 0.42652 0.0
H483 H 0.97161 0.77354 0.35202 0.0
H484 H 0.95319 0.71597 0.34238 0.0
H485 H 0.9363 0.74851 0.31599 0.0
H486 H 0.99759 0.83113 0.43093 0.0
H487 H 0.04627 0.7396 0.39602 0.0
H488 H 0.86427 0.74211 0.45424 0.0
H489 H 0.87875 0.78054 0.42049 0.0
H490 H 0.91319 0.80098 0.45755 0.0
H491 H 0.90976 0.63724 0.40051 0.0
H492 H 0.97446 0.65171 0.41355 0.0
H493 H 0.96542 0.6631 0.37274 0.0
C494 C 0.22082 0.20629 0.35982 0.0
C495 C 0.17351 0.19032 0.34341 0.0
C496 C 0.24345 0.17854 0.36434 0.0
C497 C 0.21799 0.13347 0.35256 0.0
C498 C 0.16974 0.11709 0.33658 0.0
C499 C 0.14842 0.14553 0.33217 0.0
C500 C 0.29486 0.19756 0.38148 0.0
C501 C 0.14029 0.06923 0.3241 0.0
C502 C 0.28423 0.06284 0.33609 0.0
C503 C 0.26547 0.03215 0.36227 0.0
C504 C 0.27184 0.09788 0.33352 0.0
C505 C 0.24003 0.10239 0.35769 0.0
C506 C 0.22392 0.07302 0.38509 0.0
C507 C 0.23637 0.03823 0.38684 0.0
C508 C 0.29 0.12822 0.30388 0.0
C509 C 0.19036 0.07619 0.41164 0.0
H510 H 0.24078 0.24083 0.36839 0.0
H511 H 0.11153 0.13244 0.31993 0.0
H512 H 0.29028 0.17643 0.40312 0.0
H513 H 0.32448 0.19648 0.36529 0.0
H514 H 0.30989 0.2331 0.38917 0.0
H515 H 0.10343 0.06165 0.31204 0.0
H516 H 0.16524 0.06367 0.30657 0.0
H517 H 0.13051 0.04467 0.34437 0.0
H518 H 0.30584 0.05781 0.31673 0.0
H519 H 0.22121 0.01425 0.40692 0.0
H520 H 0.30694 0.16423 0.31082 0.0
H521 H 0.256 0.1196 0.28833 0.0
H522 H 0.31963 0.12452 0.28946 0.0
H523 H 0.20658 0.11186 0.41926 0.0
H524 H 0.18705 0.05521 0.43317 0.0
H525 H 0.15047 0.06436 0.40248 0.0
C526 C 0.9405 0.21065 0.3837 0.0
C527 C 0.95078 0.23648 0.35516 0.0
C528 C 0.91786 0.16308 0.38284 0.0
C529 C 0.90372 0.14048 0.35277 0.0
C530 C 0.90739 0.16584 0.32457 0.0
C531 C 0.93134 0.21347 0.32605 0.0
C532 C 0.91467 0.13789 0.41367 0.0
C533 C 0.89099 0.14329 0.29217 0.0
C534 C 0.92205 0.0381 0.33918 0.0
C535 C 0.87095 1.00131 0.34299 0.0
C536 C 0.93314 0.08321 0.34291 0.0
C537 C 0.89202 0.0922 0.35007 0.0
C538 C 0.84031 0.05515 0.35399 0.0
C539 C 0.83049 1.01037 0.35051 0.0
C540 C 0.98911 0.12136 0.33917 0.0
C541 C 0.79487 0.06255 0.36095 0.0
H542 H 0.95667 0.22808 0.40617 0.0
H543 H 0.9402 0.23308 0.30377 0.0
H544 H 0.87695 0.10548 0.41557 0.0
H545 H 0.94654 0.12962 0.41348 0.0
H546 H 0.91887 0.15838 0.43543 0.0
H547 H 0.88827 0.16589 0.27382 0.0
H548 H 0.92006 0.13406 0.2834 0.0
H549 H 0.85254 0.11158 0.29434 0.0
H550 H 0.9536 0.03154 0.33369 0.0
H551 H 0.79071 0.98239 0.35299 0.0
H552 H 1.00085 0.14276 0.36106 0.0
H553 H 0.99272 0.14342 0.31833 0.0
H554 H 1.01687 0.10875 0.33527 0.0
H555 H 0.80548 0.09013 0.37858 0.0
H556 H 0.76016 0.03127 0.37055 0.0
H557 H 0.78375 0.0727 0.33821 0.0
C558 C 0.26495 0.76401 0.37106 0.0
C559 C 0.23673 0.78249 0.38585 0.0
C560 C 0.24532 0.71625 0.37106 0.0
C561 C 0.19652 0.68571 0.38659 0.0
C562 C 0.16931 0.70466 0.40268 0.0
C563 C 0.18928 0.75207 0.40186 0.0
C564 C 0.27572 0.69832 0.35303 0.0
C565 C 0.1178 0.67464 0.42005 0.0
C566 C 0.10821 0.56152 0.36011 0.0
C567 C 0.11711 0.53611 0.38356 0.0
C568 C 0.13519 0.60963 0.36008 0.0
C569 C 0.17184 0.63413 0.38452 0.0
C570 C 0.1816 0.60869 0.40804 0.0
C571 C 0.15486 0.56043 0.40704 0.0
C572 C 0.12378 0.63431 0.33391 0.0
C573 C 0.21921 0.63246 0.435 0.0
H574 H 0.30107 0.78659 0.35812 0.0
H575 H 0.16677 0.7654 0.41344 0.0
H576 H 0.28115 0.67447 0.36861 0.0
H577 H 0.25327 0.67909 0.33172 0.0
H578 H 0.31473 0.72593 0.34457 0.0
H579 H 0.10363 0.69447 0.43377 0.0
H580 H 0.08766 0.6535 0.40229 0.0
H581 H 0.12166 0.65126 0.43708 0.0
H582 H 0.08016 0.54367 0.34138 0.0
H583 H 0.16231 0.5416 0.42533 0.0
H584 H 0.16083 0.66058 0.32223 0.0
H585 H 0.10431 0.65191 0.34468 0.0
H586 H 0.09808 0.61103 0.31501 0.0
H587 H 0.2578 0.65854 0.42493 0.0
H588 H 0.22483 0.60856 0.45048 0.0
H589 H 0.20424 0.65025 0.45036 0.0
C590 C 0.25817 0.47608 0.37948 0.0
C591 C 0.24534 0.43101 0.37472 0.0
C592 C 0.3102 0.51044 0.38185 0.0
C593 C 0.35013 0.49928 0.37923 0.0
C594 C 0.33765 0.45395 0.37433 0.0
C595 C 0.28514 0.42017 0.37215 0.0
C596 C 0.3224 0.55861 0.38715 0.0
C597 C 0.3797 0.44121 0.37147 0.0
C598 C 0.48611 0.59435 0.35842 0.0
C599 C 0.50863 0.60459 0.389 0.0
C600 C 0.43437 0.55966 0.35476 0.0
C601 C 0.40499 0.53508 0.38242 0.0
C602 C 0.42749 0.54533 0.41336 0.0
C603 C 0.47922 0.58012 0.41627 0.0
C604 C 0.41118 0.54931 0.32142 0.0
C605 C 0.39683 0.51986 0.44336 0.0
H606 H 0.22768 0.48477 0.381 0.0
H607 H 0.27532 0.38534 0.36836 0.0
H608 H 0.34428 0.57169 0.40988 0.0
H609 H 0.34777 0.58088 0.36712 0.0
H610 H 0.28652 0.56141 0.38863 0.0
H611 H 0.3633 0.40443 0.36713 0.0
H612 H 0.40726 0.46063 0.35132 0.0
H613 H 0.40271 0.45023 0.39396 0.0
H614 H 0.50923 0.61299 0.33733 0.0
H615 H 0.49652 0.58863 0.43996 0.0
H616 H 0.37661 0.55396 0.3208 0.0
H617 H 0.39744 0.51339 0.31552 0.0
H618 H 0.4397 0.57135 0.30239 0.0
H619 H 0.36225 0.5242 0.44666 0.0
H620 H 0.42068 0.53161 0.46552 0.0
H621 H 0.38205 0.48304 0.44069 0.0
C622 C 0.49737 0.93885 0.32946 0.0
C623 C 0.49846 0.96277 0.35713 0.0
C624 C 0.53018 0.9205 0.32647 0.0
C625 C 0.56434 0.92625 0.35192 0.0
C626 C 0.56889 0.95379 0.37856 0.0
C627 C 0.53582 0.97197 0.38078 0.0
C628 C 0.52525 0.89209 0.29738 0.0
C629 C 0.60535 0.96082 0.40601 0.0
C630 C 0.59034 0.83063 0.3692 0.0
C631 C 0.64159 0.84898 0.35728 0.0
C632 C 0.56446 0.85544 0.36722 0.0
C633 C 0.59056 0.89924 0.3527 0.0
C634 C 0.64188 0.91754 0.34002 0.0
C635 C 0.6669 0.89216 0.34254 0.0
C636 C 0.50962 0.83519 0.38119 0.0
C637 C 0.6703 0.96382 0.32391 0.0
H638 H 0.46887 0.93253 0.31099 0.0
H639 H 0.5364 0.99033 0.40223 0.0
H640 H 0.56443 0.90063 0.28778 0.0
H641 H 0.50451 0.85573 0.30462 0.0
H642 H 0.50301 0.89674 0.27771 0.0
H643 H 0.60827 0.98704 0.42308 0.0
H644 H 0.59083 0.92845 0.41964 0.0
H645 H 0.64513 0.97102 0.39657 0.0
H646 H 0.57082 0.79728 0.38056 0.0
H647 H 0.70644 0.90627 0.33291 0.0
H648 H 0.48248 0.83353 0.36225 0.0
H649 H 0.50884 0.8571 0.4007 0.0
H650 H 0.49477 0.80052 0.3913 0.0
H651 H 0.64886 0.964 0.30215 0.0
H652 H 0.71103 0.97382 0.3165 0.0
H653 H 0.67153 0.98983 0.34046 0.0
C654 C 0.76206 0.17206 0.6925 0.0
C655 C 0.79822 0.219 0.69035 0.0
C656 C 0.70755 0.15456 0.69303 0.0
C657 C 0.68732 0.18436 0.69163 0.0
C658 C 0.72334 0.23188 0.68913 0.0
C659 C 0.77823 0.24862 0.68833 0.0
C660 C 0.6715 0.10381 0.69513 0.0
C661 C 0.70382 0.26509 0.68772 0.0
C662 C 0.54622 0.13791 0.66323 0.0
C663 C 0.51785 0.1304 0.69237 0.0
C664 C 0.60071 0.15453 0.6627 0.0
C665 C 0.62858 0.16531 0.69205 0.0
C666 C 0.59985 0.15662 0.72168 0.0
C667 C 0.54504 0.13927 0.72148 0.0
C668 C 0.62879 0.16221 0.6305 0.0
C669 C 0.62739 0.16768 0.75363 0.0
H670 H 0.77643 0.14842 0.69385 0.0
H671 H 0.80534 0.28481 0.68688 0.0
H672 H 0.64625 0.0948 0.71718 0.0
H673 H 0.6453 0.09215 0.67403 0.0
H674 H 0.69322 0.08504 0.69582 0.0
H675 H 0.73633 0.30081 0.6861 0.0
H676 H 0.67844 0.25804 0.66648 0.0
H677 H 0.67956 0.26097 0.7096 0.0
H678 H 0.526 0.13284 0.64059 0.0
H679 H 0.52406 0.13563 0.74404 0.0
H680 H 0.65171 0.14451 0.63013 0.0
H681 H 0.65687 0.19891 0.6268 0.0
H682 H 0.60137 0.15005 0.60996 0.0
H683 H 0.64963 0.14958 0.75614 0.0
H684 H 0.59971 0.15836 0.77454 0.0
H685 H 0.65606 0.20454 0.75453 0.0
C686 C 1.00876 0.46923 0.62143 0.0
C687 C 1.00551 0.44651 0.65045 0.0
C688 C 0.9917 0.50088 0.62014 0.0
C689 C 0.97038 0.50914 0.64842 0.0
C690 C 0.97238 0.48996 0.67838 0.0
C691 C 0.99056 0.45923 0.67905 0.0
C692 C 0.99178 0.52199 0.58797 0.0
C693 C 0.94999 0.49777 0.70914 0.0
C694 C 0.92297 0.59375 0.65277 0.0
C695 C 0.86967 0.56568 0.64657 0.0
C696 C 0.95721 0.57646 0.652 0.0
C697 C 0.93698 0.52988 0.64579 0.0
C698 C 0.88317 0.50163 0.63914 0.0
C699 C 0.8503 0.5201 0.63926 0.0
C700 C 1.01457 0.6077 0.65833 0.0
C701 C 0.85983 0.45151 0.63304 0.0
H702 H 1.02086 0.45987 0.59933 0.0
H703 H 0.98988 0.44287 0.70173 0.0
H704 H 0.95196 0.50348 0.57775 0.0
H705 H 1.00229 0.55791 0.59083 0.0
H706 H 1.01953 0.52036 0.57036 0.0
H707 H 0.96154 0.48592 0.73093 0.0
H708 H 0.96282 0.53419 0.7119 0.0
H709 H 0.90662 0.47897 0.70804 0.0
H710 H 0.93775 0.62921 0.65802 0.0
H711 H 0.80893 0.49856 0.63478 0.0
H712 H 0.03887 0.60415 0.63914 0.0
H713 H 1.02498 0.59829 0.68163 0.0
H714 H 1.02483 0.6438 0.65939 0.0
H715 H 0.88005 0.44621 0.61217 0.0
H716 H 0.81732 0.43452 0.62801 0.0
H717 H 0.86544 0.43472 0.65445 0.0
C718 C 0.59674 0.56744 0.66003 0.0
C719 C 0.61789 0.58652 0.68983 0.0
C720 C 0.56125 0.52088 0.65776 0.0
C721 C 0.54877 0.4931 0.68581 0.0
C722 C 0.56443 0.51339 0.7165 0.0
C723 C 0.59852 0.56032 0.71816 0.0
C724 C 0.54372 0.50078 0.62472 0.0
C725 C 0.55241 0.4852 0.74703 0.0
C726 C 0.46673 0.3649 0.67821 0.0
C727 C 0.50569 0.35395 0.67133 0.0
C728 C 0.47976 0.41009 0.68326 0.0
C729 C 0.533 0.44464 0.68198 0.0
C730 C 0.57248 0.43335 0.67591 0.0
C731 C 0.55819 0.3882 0.67029 0.0
C732 C 0.43663 0.42091 0.68893 0.0
C733 C 0.62996 0.469 0.67505 0.0
H734 H 0.61223 0.58789 0.63814 0.0
H735 H 0.61569 0.57521 0.74115 0.0
H736 H 0.56956 0.48812 0.61571 0.0
H737 H 0.50306 0.47173 0.62577 0.0
H738 H 0.54591 0.52641 0.6071 0.0
H739 H 0.55672 0.50549 0.76893 0.0
H740 H 0.51224 0.45548 0.74686 0.0
H741 H 0.58019 0.47233 0.74873 0.0
H742 H 0.42605 0.33821 0.67877 0.0
H743 H 0.58814 0.37941 0.66542 0.0
H744 H 0.43353 0.43881 0.66734 0.0
H745 H 0.44559 0.4439 0.70976 0.0
H746 H 0.3981 0.38986 0.69345 0.0
H747 H 0.63824 0.49315 0.65472 0.0
H748 H 0.65561 0.45405 0.67201 0.0
H749 H 0.64062 0.48869 0.69774 0.0
C750 C 0.75528 0.86585 0.78447 0.0
C751 C 0.77789 0.83853 0.78333 0.0
C752 C 0.78628 0.91226 0.79007 0.0
C753 C 0.84064 0.93083 0.79525 0.0
C754 C 0.86182 0.90205 0.79866 0.0
C755 C 0.83012 0.85596 0.79215 0.0
C756 C 0.76202 0.94192 0.78659 0.0
C757 C 0.91873 0.92051 0.80639 0.0
C758 C 0.90625 0.04026 0.74946 0.0
C759 C 0.90435 0.06873 0.77291 0.0
C760 C 0.89152 0.99551 0.7574 0.0
C761 C 0.87562 0.97984 0.78968 0.0
C762 C 0.88218 1.01071 0.81429 0.0
C763 C 0.89599 0.05503 0.80549 0.0
C764 C 0.8859 0.9637 0.73041 0.0
C765 C 0.8687 0.99597 0.84922 0.0
H766 H 0.71473 0.85175 0.77778 0.0
H767 H 0.8468 0.83396 0.79193 0.0
H768 H 0.77199 0.96491 0.80747 0.0
H769 H 0.77785 0.96333 0.76441 0.0
H770 H 0.71872 0.92174 0.78491 0.0
H771 H 0.92778 0.89305 0.81101 0.0
H772 H 0.94393 0.94195 0.78602 0.0
H773 H 0.92918 0.94242 0.82796 0.0
H774 H 0.91335 0.05129 0.72435 0.0
H775 H 0.89624 0.07789 0.82371 0.0
H776 H 0.84373 0.94074 0.72564 0.0
H777 H 0.9028 0.94231 0.73727 0.0
H778 H 0.90536 0.98226 0.70761 0.0
H779 H 0.82719 0.98576 0.85419 0.0
H780 H 0.89321 0.02435 0.86558 0.0
H781 H 0.87396 0.96671 0.85503 0.0
C782 C 0.93454 0.81197 0.72695 0.0
C783 C 0.92007 0.76885 0.71495 0.0
C784 C 0.98742 0.84581 0.72911 0.0
C785 C 0.02708 0.8363 0.71938 0.0
C786 C 1.01278 0.79258 0.70782 0.0
C787 C 0.95953 0.75947 0.70565 0.0
C788 C 1.00075 0.89191 0.74153 0.0
C789 C 0.05377 0.78093 0.69736 0.0
C790 C 0.16107 0.93613 0.69598 0.0
C791 C 0.18967 0.94212 0.7242 0.0
C792 C 0.10838 0.90171 0.69401 0.0
C793 C 0.08343 0.87232 0.72088 0.0
C794 C 0.11216 0.87782 0.7493 0.0
C795 C 0.1648 0.91258 0.75062 0.0
C796 C 0.07923 0.89707 0.66324 0.0
C797 C 0.08711 0.84726 0.77849 0.0
H798 H 0.90448 0.81965 0.73425 0.0
H799 H 0.94883 0.72629 0.69636 0.0
H800 H 1.02275 0.89876 0.76432 0.0
H801 H 0.02634 0.91873 0.72379 0.0
H802 H 0.96531 0.89463 0.74626 0.0
H803 H 0.03632 0.7451 0.68971 0.0
H804 H 0.07747 0.80334 0.6769 0.0
H805 H 0.08089 0.78687 0.71747 0.0
H806 H 0.17998 0.95821 0.67526 0.0
H807 H 0.18616 0.91715 0.77267 0.0
H808 H 0.04531 0.90179 0.66843 0.0
H809 H 0.06357 0.86248 0.65346 0.0
H810 H 0.10443 0.92213 0.64434 0.0
H811 H 0.05394 0.85088 0.78766 0.0
H812 H 0.11517 0.85505 0.79839 0.0
H813 H 0.07095 0.8113 0.77165 0.0
C814 C 0.28953 0.21916 0.70285 0.0
C815 C 0.27149 0.17256 0.69927 0.0
C816 C 0.25529 0.23655 0.70284 0.0
C817 C 0.20106 0.20694 0.69872 0.0
C818 C 0.18229 0.15975 0.69513 0.0
C819 C 0.21761 0.14304 0.69574 0.0
C820 C 0.27735 0.28683 0.70735 0.0
C821 C 0.12488 0.12701 0.69027 0.0
C822 C 0.10411 0.24171 0.73011 0.0
C823 C 0.09088 0.25656 0.7019 0.0
C824 C 0.14058 0.22663 0.72946 0.0
C825 C 0.1641 0.22534 0.6997 0.0
C826 C 0.15262 0.24214 0.67127 0.0
C827 C 0.11636 0.25776 0.67273 0.0
C828 C 0.15252 0.21055 0.76059 0.0
C829 C 0.17633 0.24128 0.63894 0.0
H830 H 0.331 0.24246 0.7058 0.0
H831 H 0.20327 0.10716 0.69266 0.0
H832 H 0.26823 0.30154 0.68614 0.0
H833 H 0.25884 0.29268 0.72891 0.0
H834 H 0.32044 0.30532 0.71045 0.0
H835 H 0.11653 0.0917 0.68681 0.0
H836 H 0.10182 0.12753 0.7115 0.0
H837 H 0.11121 0.13759 0.66883 0.0
H838 H 0.08407 0.24012 0.75267 0.0
H839 H 0.10542 0.26803 0.6507 0.0
H840 H 0.1954 0.22843 0.76433 0.0
H841 H 0.13889 0.17379 0.75918 0.0
H842 H 0.1334 0.2162 0.78196 0.0
H843 H 0.21901 0.25462 0.64086 0.0
H844 H 0.16987 0.26142 0.62027 0.0
H845 H 0.15831 0.20569 0.63072 0.0
C846 C 0.11247 0.37219 0.24303 0.0
C847 C 0.11197 0.39287 0.27216 0.0
C848 C 0.11167 0.39173 0.2129 0.0
C849 C 0.111 0.43317 0.21186 0.0
C850 C 0.11353 0.45528 0.2412 0.0
C851 C 0.1137 0.43488 0.27078 0.0
C852 C 0.10903 0.36695 0.18224 0.0
C853 C 0.11361 0.49962 0.24152 0.0
C854 C 0.13278 0.49515 0.13018 0.0
C855 C 0.08111 0.47852 0.12028 0.0
C856 C 0.14345 0.48155 0.16018 0.0
C857 C 0.10148 0.45066 0.18071 0.0
C858 C 0.04941 0.43595 0.17145 0.0
C859 C 0.03999 0.44996 0.14152 0.0
C860 C 0.19954 0.49837 0.16904 0.0
C861 C 1.00329 0.40355 0.19249 0.0
H862 H 0.11122 0.33987 0.24378 0.0
H863 H 0.11414 0.45165 0.29309 0.0
H864 H 0.07035 0.35458 0.171 0.0
H865 H 0.1393 0.39028 0.16454 0.0
H866 H 0.11458 0.33749 0.18673 0.0
H867 H 0.12121 0.51487 0.26594 0.0
H868 H 0.14373 0.52429 0.22432 0.0
H869 H 0.07509 0.49397 0.23353 0.0
H870 H 0.16476 0.51627 0.11362 0.0
H871 H 0.99995 0.43655 0.13389 0.0
H872 H 0.20788 0.47013 0.16718 0.0
H873 H 0.20646 0.51011 0.19442 0.0
H874 H 0.22751 0.52655 0.15289 0.0
H875 H 1.003 0.37102 0.19525 0.0
H876 H 0.96531 0.39638 0.1823 0.0
H877 H 1.00666 0.4177 0.21702 0.0
C878 C 0.6405 0.71319 0.26279 0.0
C879 C 0.69246 0.74518 0.27019 0.0
C880 C 0.62767 0.69041 0.23313 0.0
C881 C 0.66783 0.69895 0.21027 0.0
C882 C 0.72035 0.7318 0.21733 0.0
C883 C 0.73198 0.75485 0.24706 0.0
C884 C 0.57106 0.65668 0.22647 0.0
C885 C 0.76446 0.7416 0.19387 0.0
C886 C 0.63855 0.60729 0.14735 0.0
C887 C 0.62931 0.62597 0.11967 0.0
C888 C 0.65169 0.63084 0.17689 0.0
C889 C 0.65461 0.67364 0.17899 0.0
C890 C 0.64386 0.69193 0.15127 0.0
C891 C 0.63192 0.66818 0.12202 0.0
C892 C 0.66343 0.61031 0.20571 0.0
C893 C 0.6451 0.73674 0.15242 0.0
H894 H 0.60965 0.70551 0.28049 0.0
H895 H 0.77225 0.77899 0.25276 0.0
H896 H 0.55929 0.66573 0.2035 0.0
H897 H 0.56592 0.62236 0.22353 0.0
H898 H 0.54428 0.65516 0.24618 0.0
H899 H 0.80306 0.76815 0.20278 0.0
H900 H 0.76601 0.71016 0.18965 0.0
H901 H 0.75745 0.75285 0.17019 0.0
H902 H 0.63718 0.57499 0.14567 0.0
H903 H 0.62463 0.68286 0.10078 0.0
H904 H 0.63595 0.60518 0.22598 0.0
H905 H 0.70355 0.63388 0.21419 0.0
H906 H 0.66036 0.57723 0.20008 0.0
H907 H 0.61753 0.73548 0.17145 0.0
H908 H 0.63449 0.74576 0.12897 0.0
H909 H 0.68478 0.76415 0.15885 0.0
C910 C 0.39784 0.98939 0.14388 0.0
C911 C 0.38694 0.96134 0.11695 0.0
C912 C 0.37369 0.97203 0.17414 0.0
C913 C 0.33715 0.92514 0.1779 0.0
C914 C 0.32758 0.89611 0.15115 0.0
C915 C 0.3525 0.91457 0.1209 0.0
C916 C 0.38607 1.00441 0.20185 0.0
C917 C 0.28926 0.84594 0.15401 0.0
C918 C 0.31634 0.88999 0.26653 0.0
C919 C 0.27341 0.89503 0.2754 0.0
C920 C 0.33481 0.89592 0.23439 0.0
C921 C 0.31004 0.90749 0.21014 0.0
C922 C 0.26403 0.909 0.21843 0.0
C923 C 0.24613 0.90268 0.25101 0.0
C924 C 0.38349 0.89339 0.22696 0.0
C925 C 0.23598 0.92065 0.19329 0.0
H926 H 0.42395 0.02563 0.14088 0.0
H927 H 0.34269 0.89287 0.1 0.0
H928 H 0.35002 1.00426 0.21 0.0
H929 H 0.40039 0.99337 0.22271 0.0
H930 H 0.41615 0.03974 0.19512 0.0
H931 H 0.29287 0.82708 0.13323 0.0
H932 H 0.29505 0.83171 0.17673 0.0
H933 H 0.24883 0.84025 0.15481 0.0
H934 H 0.33742 0.88364 0.28521 0.0
H935 H 0.21315 0.90683 0.25763 0.0
H936 H 0.41689 0.92808 0.22227 0.0
H937 H 0.37828 0.87332 0.20487 0.0
H938 H 0.39381 0.87803 0.24727 0.0
H939 H 0.26025 0.957 0.18634 0.0
H940 H 0.19731 0.91446 0.20232 0.0
H941 H 0.2302 0.90051 0.17115 0.0
C942 C 0.43333 0.06393 0.91291 0.0
C943 C 0.43513 0.08495 0.9423 0.0
C944 C 0.43581 0.08528 0.88311 0.0
C945 C 0.44196 0.12938 0.88257 0.0
C946 C 0.44677 0.1517 0.91222 0.0
C947 C 0.44239 0.12897 0.94165 0.0
C948 C 0.42916 0.05962 0.85223 0.0
C949 C 0.45501 0.19911 0.91294 0.0
C950 C 0.47234 0.18389 0.79798 0.0
C951 C 0.42195 0.17158 0.78767 0.0
C952 C 0.48045 0.17347 0.82977 0.0
C953 C 0.437 0.14946 0.85134 0.0
C954 C 0.38691 0.14048 0.84167 0.0
C955 C 0.38024 0.15209 0.8102 0.0
C956 C 0.53483 0.18509 0.83932 0.0
C957 C 0.33916 0.11451 0.86336 0.0
H958 H 0.42765 0.02995 0.91323 0.0
H959 H 0.4445 0.14571 0.96427 0.0
H960 H 0.39295 0.05361 0.84011 0.0
H961 H 0.46241 0.07992 0.83528 0.0
H962 H 0.4266 0.02637 0.8566 0.0
H963 H 0.41868 0.19852 0.90563 0.0
H964 H 0.4655 0.21413 0.93739 0.0
H965 H 0.48644 0.22144 0.89545 0.0
H966 H 0.50454 0.19801 0.78053 0.0
H967 H 0.3411 0.14199 0.80217 0.0
H968 H 0.53855 0.15434 0.83779 0.0
H969 H 0.54256 0.19704 0.86464 0.0
H970 H 0.56518 0.2116 0.82312 0.0
H971 H 0.33131 0.07932 0.86691 0.0
H972 H 0.30373 0.11295 0.8531 0.0
H973 H 0.34589 0.13021 0.88753 0.0
C974 C 0.97733 0.41371 0.91967 0.0
C975 C 0.02896 0.44113 0.92984 0.0
C976 C 0.9663 0.39243 0.88944 0.0
C977 C 1.00789 0.39734 0.86913 0.0
C978 C 0.0603 0.42625 0.87885 0.0
C979 C 0.07023 0.4482 0.90898 0.0
C980 C 0.90992 0.3631 0.87989 0.0
C981 C 0.10585 0.43188 0.85832 0.0
C982 C 0.975 0.29984 0.81098 0.0
C983 C 0.97219 0.31841 0.78125 0.0
C984 C 0.98752 0.32542 0.83955 0.0
C985 C 0.99625 0.37036 0.83864 0.0
C986 C 0.9924 0.38888 0.80875 0.0
C987 C 0.98107 0.36297 0.78046 0.0
C988 C 0.99196 0.30446 0.87073 0.0
C989 C 0.99986 0.436 0.80664 0.0
H990 H 0.94533 0.40776 0.93596 0.0
H991 H 0.11013 0.46842 0.91712 0.0
H992 H 0.90414 0.37209 0.85506 0.0
H993 H 0.89961 0.32701 0.87976 0.0
H994 H 0.88251 0.36654 0.89672 0.0
H995 H 0.14413 0.45748 0.86824 0.0
H996 H 0.10479 0.39892 0.85687 0.0
H997 H 0.10295 0.44215 0.83329 0.0
H998 H 0.96869 0.26566 0.81178 0.0
H999 H 0.97878 0.3776 0.75763 0.0
H1000 H 0.96241 0.3022 0.88863 0.0
H1001 H 0.03109 0.32625 0.88124 0.0
H1002 H 0.98615 0.26995 0.86722 0.0
H1003 H 0.97123 0.43845 0.82294 0.0
H1004 H 0.99489 0.44529 0.78168 0.0
H1005 H 0.03951 0.46122 0.81486 0.0
C1006 C 0.70881 0.56492 0.78693 0.0
C1007 C 0.74283 0.61199 0.78526 0.0
C1008 C 0.68497 0.54311 0.81663 0.0
C1009 C 0.69576 0.569 0.84524 0.0
C1010 C 0.73309 0.61599 0.84381 0.0
C1011 C 0.75568 0.63682 0.81392 0.0
C1012 C 0.64549 0.49309 0.81689 0.0
C1013 C 0.74646 0.64514 0.87352 0.0
C1014 C 0.59842 0.54795 0.91315 0.0
C1015 C 0.61928 0.53558 0.93889 0.0
C1016 C 0.6197 0.55431 0.88166 0.0
C1017 C 0.66396 0.54933 0.87579 0.0
C1018 C 0.68238 0.53309 0.90117 0.0
C1019 C 0.65959 0.52616 0.93244 0.0
C1020 C 0.59798 0.57084 0.85543 0.0
C1021 C 0.72932 0.52724 0.89615 0.0
H1022 H 0.69789 0.54569 0.76475 0.0
H1023 H 0.78171 0.67325 0.8127 0.0
H1024 H 0.65071 0.47599 0.83823 0.0
H1025 H 0.60546 0.48821 0.81862 0.0
H1026 H 0.64839 0.4764 0.79457 0.0
H1027 H 0.78001 0.67988 0.86906 0.0
H1028 H 0.71207 0.64794 0.88126 0.0
H1029 H 0.75617 0.62944 0.89384 0.0
H1030 H 0.56772 0.55583 0.91815 0.0
H1031 H 0.67665 0.51759 0.9524 0.0
H1032 H 0.59384 0.55244 0.83262 0.0
H1033 H 0.62548 0.6074 0.8505 0.0
H1034 H 0.55927 0.56653 0.86243 0.0
H1035 H 0.72662 0.50997 0.87299 0.0
H1036 H 0.73344 0.50753 0.91623 0.0
H1037 H 0.76529 0.56108 0.89481 0.0
C1038 C 0.80956 0.83251 0.46839 0.0
C1039 C 0.7585 0.81417 0.45689 0.0
C1040 C 0.81833 0.82553 0.50089 0.0
C1041 C 0.77506 0.79929 0.5221 0.0
C1042 C 0.72373 0.7836 0.51103 0.0
C1043 C 0.7162 0.79155 0.4788 0.0
C1044 C 0.87371 0.84384 0.51196 0.0
C1045 C 0.67626 0.75506 0.53242 0.0
C1046 C 0.78142 0.7232 0.58728 0.0
C1047 C 0.77939 0.74442 0.61585 0.0
C1048 C 0.78232 0.74178 0.55671 0.0
C1049 C 0.78219 0.78323 0.5544 0.0
C1050 C 0.78269 0.80599 0.58314 0.0
C1051 C 0.78061 0.78606 0.61351 0.0
C1052 C 0.78085 0.7158 0.52684 0.0
C1053 C 0.78384 0.85072 0.58181 0.0
H1054 H 0.84243 0.84969 0.4516 0.0
H1055 H 0.67659 0.77746 0.47017 0.0
H1056 H 0.87928 0.86054 0.53571 0.0
H1057 H 0.88157 0.81549 0.51521 0.0
H1058 H 0.90284 0.86853 0.49428 0.0
H1059 H 0.63929 0.74837 0.52095 0.0
H1060 H 0.67365 0.72203 0.53775 0.0
H1061 H 0.67971 0.77196 0.55583 0.0
H1062 H 0.78053 0.69105 0.58876 0.0
H1063 H 0.77971 0.803 0.63542 0.0
H1064 H 0.81335 0.73784 0.50991 0.0
H1065 H 0.7437 0.70481 0.51399 0.0
H1066 H 0.78378 0.6853 0.53265 0.0
H1067 H 0.81419 0.87416 0.56418 0.0
H1068 H 0.79178 0.86721 0.6058 0.0
H1069 H 0.74559 0.84527 0.57347 0.0
C1070 C 0.23933 0.97059 0.47153 0.0
C1071 C 0.26888 0.95001 0.46363 0.0
C1072 C 0.25217 0.99971 0.49822 0.0
C1073 C 0.29486 1.00764 0.51792 0.0
C1074 C 0.32342 0.98545 0.51069 0.0
C1075 C 0.31051 0.95745 0.48351 0.0
C1076 C 0.2212 0.02319 0.50465 0.0
C1077 C 0.36814 0.99164 0.53149 0.0
C1078 C 0.3637 0.10804 0.57543 0.0
C1079 C 0.34094 0.08731 0.60527 0.0
C1080 C 0.34746 0.08319 0.54641 0.0
C1081 C 0.3079 0.03663 0.54736 0.0
C1082 C 0.2834 0.01639 0.57726 0.0
C1083 C 0.29988 0.04187 0.60555 0.0
C1084 C 0.37378 0.10627 0.51488 0.0
C1085 C 0.2413 0.96701 0.57972 0.0
H1086 H 0.20783 0.96581 0.4559 0.0
H1087 H 0.33383 0.94201 0.47737 0.0
H1088 H 0.20616 0.01695 0.52998 0.0
H1089 H 0.24713 0.06036 0.50149 0.0
H1090 H 0.18763 1.01177 0.48814 0.0
H1091 H 0.38612 0.97168 0.52278 0.0
H1092 H 0.39884 0.02797 0.53183 0.0
H1093 H 0.35406 0.98111 0.5568 0.0
H1094 H 0.39513 0.14305 0.57486 0.0
H1095 H 0.28111 0.02541 0.6283 0.0
H1096 H 0.344 0.1 0.49644 0.0
H1097 H 0.39774 0.09187 0.50562 0.0
H1098 H 0.39959 0.14345 0.51756 0.0
H1099 H 0.20948 0.95968 0.56262 0.0
H1100 H 0.22398 0.95708 0.6045 0.0
H1101 H 0.25807 0.94538 0.57295 0.0
C1102 C 1.00218 0.20444 0.60329 0.0
C1103 C 0.9529 0.19937 0.61035 0.0
C1104 C 1.02412 0.2155 0.57168 0.0
C1105 C 0.99585 0.22112 0.5463 0.0
C1106 C 0.94372 0.21095 0.55272 0.0
C1107 C 0.92326 0.20088 0.58463 0.0
C1108 C 0.07972 0.2259 0.56654 0.0
C1109 C 0.91121 0.21506 0.52651 0.0
C1110 C 0.06646 0.31271 0.48087 0.0
C1111 C 0.06584 0.28764 0.45386 0.0
C1112 C 0.04589 0.29165 0.51118 0.0
C1113 C 1.02269 0.24391 0.51474 0.0
C1114 C 1.02295 0.21847 0.48773 0.0
C1115 C 0.04485 0.24061 0.45777 0.0
C1116 C 0.04784 0.32055 0.53931 0.0
C1117 C 0.99838 0.16764 0.49016 0.0
H1118 H 0.02603 0.2047 0.62309 0.0
H1119 H 0.88576 0.19823 0.58996 0.0
H1120 H 0.08606 0.21638 0.54199 0.0
H1121 H 0.10654 0.2629 0.5692 0.0
H1122 H 0.09039 0.20795 0.58472 0.0
H1123 H 0.86927 0.19899 0.53384 0.0
H1124 H 0.92593 0.25145 0.52109 0.0
H1125 H 0.91446 0.19918 0.5039 0.0
H1126 H 0.08255 0.34899 0.4782 0.0
H1127 H 0.0434 0.22073 0.437 0.0
H1128 H 0.06606 0.31396 0.56039 0.0
H1129 H 1.00751 0.31156 0.54677 0.0
H1130 H 0.07029 0.35736 0.5333 0.0
H1131 H 1.01421 0.15817 0.51108 0.0
H1132 H 1.00517 0.15306 0.46789 0.0
H1133 H 0.95556 0.15206 0.49437 0.0
loop_
_geom_bond_atom_site_label_1
_geom_bond_atom_site_label_2
_geom_bond_distance
_geom_bond_site_symmetry_2
_ccdc_geom_bond_type
Co0 N5 2.057 1_554 S
Co0 O17 2.021 . S
Co0 O20 2.062 . S
Co0 O24 2.117 1_554 S
Co0 O25 2.020 1_455 S
C1 O21 1.259 . S
C1 O24 1.258 1_655 S
Co2 N11 2.057 . S
Co2 O18 2.117 . S
Co2 O19 2.020 1_655 S
Co2 O21 2.021 1_554 S
Co2 O26 2.062 . S
C3 N5 1.316 1_554 S
C3 N6 1.347 1_554 S
C3 H8 0.931 . S
C4 N5 1.375 . S
C4 C7 1.350 . S
C4 H9 0.930 . S
N5 Co0 2.057 1_556 S
N5 C3 1.316 1_556 S
N5 C4 1.375 . S
N6 C3 1.347 1_556 S
N6 C7 1.373 . S
C7 C4 1.350 . S
C7 N6 1.373 . S
C7 H28 0.931 . S
H8 C3 0.931 . S
H9 C4 0.930 . S
C10 O17 1.259 . S
C10 O18 1.258 1_455 S
N11 Co2 2.057 . S
N11 C12 1.313 1_554 S
N11 C13 1.375 . S
C12 N11 1.313 1_556 S
C12 N14 1.343 1_556 S
C12 H23 0.936 . S
C13 N11 1.375 . S
C13 C15 1.350 . S
C13 H22 0.930 . S
N14 C12 1.343 1_554 S
N14 C15 1.373 . S
C15 C13 1.350 . S
C15 N14 1.373 . S
C15 H29 0.931 . S
C16 O19 1.256 . S
C16 O20 1.255 . S
O17 Co0 2.021 . S
O17 C10 1.259 . S
O18 Co2 2.117 . S
O18 C10 1.258 1_655 S
O19 Co2 2.020 1_455 S
O19 C16 1.256 . S
O20 Co0 2.062 . S
O20 C16 1.255 . S
O21 C1 1.259 . S
O21 Co2 2.021 1_556 S
H22 C13 0.930 . S
H23 C12 0.936 . S
O24 Co0 2.117 1_556 S
O24 C1 1.258 1_455 S
O25 Co0 2.020 1_655 S
O25 C27 1.256 . S
O26 Co2 2.062 . S
O26 C27 1.255 . S
C27 O25 1.256 . S
C27 O26 1.255 . S
H28 C7 0.931 . S
H29 C15 0.931 . S
Co30 N35 2.057 . S
Co30 O47 2.021 1_554 S
Co30 O50 2.062 . S
Co30 O54 2.117 . S
Co30 O55 2.020 . S
C31 O51 1.259 . S
C31 O54 1.258 . S
Co32 N41 2.057 1_554 S
Co32 O48 2.117 1_554 S
Co32 O49 2.020 . S
Co32 O51 2.021 . S
Co32 O56 2.062 . S
C33 N35 1.316 . S
C33 N36 1.347 . S
C33 H38 0.931 1_554 S
C34 N35 1.375 . S
C34 C37 1.350 . S
C34 H39 0.930 . S
N35 Co30 2.057 . S
N35 C33 1.316 . S
N35 C34 1.375 . S
N36 C33 1.347 . S
N36 C37 1.373 . S
C37 C34 1.350 . S
C37 N36 1.373 . S
C37 H58 0.931 . S
H38 C33 0.931 1_556 S
H39 C34 0.930 . S
C40 O47 1.259 . S
C40 O48 1.258 . S
N41 Co32 2.057 1_556 S
N41 C42 1.316 1_556 S
N41 C43 1.375 . S
C42 N41 1.316 1_554 S
C42 N44 1.347 1_554 S
C42 H53 0.931 . S
C43 N41 1.375 . S
C43 C45 1.350 . S
C43 H52 0.930 . S
N44 C42 1.347 1_556 S
N44 C45 1.373 . S
C45 C43 1.350 . S
C45 N44 1.373 . S
C45 H59 0.931 . S
C46 O49 1.256 . S
C46 O50 1.255 . S
O47 Co30 2.021 1_556 S
O47 C40 1.259 . S
O48 Co32 2.117 1_556 S
O48 C40 1.258 . S
O49 Co32 2.020 . S
O49 C46 1.256 . S
O50 Co30 2.062 . S
O50 C46 1.255 . S
O51 C31 1.259 . S
O51 Co32 2.021 . S
H52 C43 0.930 . S
H53 C42 0.931 . S
O54 Co30 2.117 . S
O54 C31 1.258 . S
O55 Co30 2.020 . S
O55 C57 1.256 . S
O56 Co32 2.062 . S
O56 C57 1.255 . S
C57 O55 1.256 . S
C57 O56 1.255 . S
H58 C37 0.931 . S
H59 C45 0.931 . S
Co60 N65 2.057 1_554 S
Co60 O77 2.021 . S
Co60 O80 2.062 . S
Co60 O84 2.117 1_554 S
Co60 O85 2.020 1_565 S
C61 O81 1.259 . S
C61 O84 1.258 1_545 S
Co62 N71 2.057 . S
Co62 O78 2.117 . S
Co62 O79 2.020 1_545 S
Co62 O81 2.021 1_554 S
Co62 O86 2.062 . S
C63 N65 1.316 1_554 S
C63 N66 1.347 1_554 S
C63 H68 0.931 . S
C64 N65 1.375 . S
C64 C67 1.350 . S
C64 H69 0.930 . S
N65 Co60 2.057 1_556 S
N65 C63 1.316 1_556 S
N65 C64 1.375 . S
N66 C63 1.347 1_556 S
N66 C67 1.373 . S
C67 C64 1.350 . S
C67 N66 1.373 . S
C67 H88 0.931 . S
H68 C63 0.931 . S
H69 C64 0.930 . S
C70 O77 1.259 . S
C70 O78 1.258 1_565 S
N71 Co62 2.057 . S
N71 C72 1.314 1_554 S
N71 C73 1.375 . S
C72 N71 1.314 1_556 S
C72 N74 1.345 1_556 S
C72 H83 0.934 . S
C73 N71 1.375 . S
C73 C75 1.350 . S
C73 H82 0.930 . S
N74 C72 1.345 1_554 S
N74 C75 1.373 . S
C75 C73 1.350 . S
C75 N74 1.373 . S
C75 H89 0.931 . S
C76 O79 1.256 . S
C76 O80 1.255 . S
O77 Co60 2.021 . S
O77 C70 1.259 . S
O78 Co62 2.117 . S
O78 C70 1.258 1_545 S
O79 Co62 2.020 1_565 S
O79 C76 1.256 . S
O80 Co60 2.062 . S
O80 C76 1.255 . S
O81 C61 1.259 . S
O81 Co62 2.021 1_556 S
H82 C73 0.930 . S
H83 C72 0.934 . S
O84 Co60 2.117 1_556 S
O84 C61 1.258 1_565 S
O85 Co60 2.020 1_545 S
O85 C87 1.256 . S
O86 Co62 2.062 . S
O86 C87 1.255 . S
C87 O85 1.256 . S
C87 O86 1.255 . S
H88 C67 0.931 . S
H89 C75 0.931 . S
Co90 N95 2.057 . S
Co90 O107 2.021 . S
Co90 O110 2.062 . S
Co90 O114 2.117 . S
Co90 O115 2.020 . S
C91 O111 1.259 . S
C91 O114 1.258 . S
Co92 N101 2.057 . S
Co92 O108 2.117 . S
Co92 O109 2.020 . S
Co92 O111 2.021 . S
Co92 O116 2.062 . S
C93 N95 1.316 . S
C93 N96 1.347 . S
C93 H98 0.931 . S
C94 N95 1.375 . S
C94 C97 1.350 . S
C94 H99 0.930 . S
N95 Co90 2.057 . S
N95 C93 1.316 . S
N95 C94 1.375 . S
N96 C93 1.347 . S
N96 C97 1.373 . S
C97 C94 1.350 . S
C97 N96 1.373 . S
C97 H118 0.931 . S
H98 C93 0.931 . S
H99 C94 0.930 . S
C100 O107 1.259 . S
C100 O108 1.258 . S
N101 Co92 2.057 . S
N101 C102 1.316 . S
N101 C103 1.375 . S
C102 N101 1.316 . S
C102 N104 1.347 . S
C102 H113 0.931 . S
C103 N101 1.375 . S
C103 C105 1.350 . S
C103 H112 0.930 . S
N104 C102 1.347 . S
N104 C105 1.373 . S
C105 C103 1.350 . S
C105 N104 1.373 . S
C105 H119 0.931 . S
C106 O109 1.256 . S
C106 O110 1.255 . S
O107 Co90 2.021 . S
O107 C100 1.259 . S
O108 Co92 2.117 . S
O108 C100 1.258 . S
O109 Co92 2.020 . S
O109 C106 1.256 . S
O110 Co90 2.062 . S
O110 C106 1.255 . S
O111 C91 1.259 . S
O111 Co92 2.021 . S
H112 C103 0.930 . S
H113 C102 0.931 . S
O114 Co90 2.117 . S
O114 C91 1.258 . S
O115 Co90 2.020 . S
O115 C117 1.256 . S
O116 Co92 2.062 . S
O116 C117 1.255 . S
C117 O115 1.256 . S
C117 O116 1.255 . S
H118 C97 0.931 . S
H119 C105 0.931 . S
Co120 N125 2.057 . S
Co120 O137 2.021 . S
Co120 O140 2.062 . S
Co120 O144 2.117 . S
Co120 O145 2.020 . S
C121 O141 1.259 . S
C121 O144 1.258 . S
Co122 N131 2.057 . S
Co122 O138 2.117 . S
Co122 O139 2.020 . S
Co122 O141 2.021 . S
Co122 O146 2.062 . S
C123 N125 1.316 . S
C123 N126 1.347 . S
C123 H128 0.931 . S
C124 N125 1.375 . S
C124 C127 1.350 . S
C124 H129 0.930 . S
N125 Co120 2.057 . S
N125 C123 1.316 . S
N125 C124 1.375 . S
N126 C123 1.347 . S
N126 C127 1.373 . S
C127 C124 1.350 . S
C127 N126 1.373 . S
C127 H148 0.931 . S
H128 C123 0.931 . S
H129 C124 0.930 . S
C130 O137 1.259 . S
C130 O138 1.258 . S
N131 Co122 2.057 . S
N131 C132 1.316 . S
N131 C133 1.375 . S
C132 N131 1.316 . S
C132 N134 1.347 . S
C132 H143 0.931 . S
C133 N131 1.375 . S
C133 C135 1.350 . S
C133 H142 0.930 . S
N134 C132 1.347 . S
N134 C135 1.373 . S
C135 C133 1.350 . S
C135 N134 1.373 . S
C135 H149 0.931 . S
C136 O139 1.256 . S
C136 O140 1.255 . S
O137 Co120 2.021 . S
O137 C130 1.259 . S
O138 Co122 2.117 . S
O138 C130 1.258 . S
O139 Co122 2.020 . S
O139 C136 1.256 . S
O140 Co120 2.062 . S
O140 C136 1.255 . S
O141 C121 1.259 . S
O141 Co122 2.021 . S
H142 C133 0.930 . S
H143 C132 0.931 . S
O144 Co120 2.117 . S
O144 C121 1.258 . S
O145 Co120 2.020 . S
O145 C147 1.256 . S
O146 Co122 2.062 . S
O146 C147 1.255 . S
C147 O145 1.256 . S
C147 O146 1.255 . S
H148 C127 0.931 . S
H149 C135 0.931 . S
Co150 N155 2.057 . S
Co150 O167 2.021 . S
Co150 O170 2.062 . S
Co150 O174 2.117 . S
Co150 O175 2.020 . S
C151 O171 1.259 . S
C151 O174 1.258 . S
Co152 N161 2.057 . S
Co152 O168 2.117 . S
Co152 O169 2.020 . S
Co152 O171 2.021 . S
Co152 O176 2.062 . S
C153 N155 1.316 . S
C153 N156 1.347 . S
C153 H158 0.931 . S
C154 N155 1.375 . S
C154 C157 1.350 . S
C154 H159 0.930 . S
N155 Co150 2.057 . S
N155 C153 1.316 . S
N155 C154 1.375 . S
N156 C153 1.347 . S
N156 C157 1.373 . S
C157 C154 1.350 . S
C157 N156 1.373 . S
C157 H178 0.931 . S
H158 C153 0.931 . S
H159 C154 0.930 . S
C160 O167 1.259 . S
C160 O168 1.258 . S
N161 Co152 2.057 . S
N161 C162 1.316 . S
N161 C163 1.375 . S
C162 N161 1.316 . S
C162 N164 1.347 . S
C162 H173 0.931 . S
C163 N161 1.375 . S
C163 C165 1.350 . S
C163 H172 0.930 . S
N164 C162 1.347 . S
N164 C165 1.373 . S
C165 C163 1.350 . S
C165 N164 1.373 . S
C165 H179 0.931 . S
C166 O169 1.256 . S
C166 O170 1.255 . S
O167 Co150 2.021 . S
O167 C160 1.259 . S
O168 Co152 2.117 . S
O168 C160 1.258 . S
O169 Co152 2.020 . S
O169 C166 1.256 . S
O170 Co150 2.062 . S
O170 C166 1.255 . S
O171 C151 1.259 . S
O171 Co152 2.021 . S
H172 C163 0.930 . S
H173 C162 0.931 . S
O174 Co150 2.117 . S
O174 C151 1.258 . S
O175 Co150 2.020 . S
O175 C177 1.256 . S
O176 Co152 2.062 . S
O176 C177 1.255 . S
C177 O175 1.256 . S
C177 O176 1.255 . S
H178 C157 0.931 . S
H179 C165 0.931 . S
Co180 N185 2.057 . S
Co180 O197 2.021 . S
Co180 O200 2.062 . S
Co180 O204 2.117 . S
Co180 O205 2.020 . S
C181 O201 1.259 . S
C181 O204 1.258 . S
Co182 N191 2.057 . S
Co182 O198 2.117 . S
Co182 O199 2.020 . S
Co182 O201 2.021 . S
Co182 O206 2.062 . S
C183 N185 1.316 . S
C183 N186 1.347 . S
C183 H188 0.931 . S
C184 N185 1.375 . S
C184 C187 1.350 . S
C184 H189 0.930 . S
N185 Co180 2.057 . S
N185 C183 1.316 . S
N185 C184 1.375 . S
N186 C183 1.347 . S
N186 C187 1.373 . S
C187 C184 1.350 . S
C187 N186 1.373 . S
C187 H208 0.931 . S
H188 C183 0.931 . S
H189 C184 0.930 . S
C190 O197 1.259 . S
C190 O198 1.258 . S
N191 Co182 2.057 . S
N191 C192 1.316 1_545 S
N191 C193 1.375 1_545 S
C192 N191 1.316 1_565 S
C192 N194 1.347 . S
C192 H203 0.931 . S
C193 N191 1.375 1_565 S
C193 C195 1.350 . S
C193 H202 0.930 1_565 S
N194 C192 1.347 . S
N194 C195 1.373 . S
C195 C193 1.350 . S
C195 N194 1.373 . S
C195 H209 0.931 . S
C196 O199 1.256 . S
C196 O200 1.255 . S
O197 Co180 2.021 . S
O197 C190 1.259 . S
O198 Co182 2.117 . S
O198 C190 1.258 . S
O199 Co182 2.020 . S
O199 C196 1.256 . S
O200 Co180 2.062 . S
O200 C196 1.255 . S
O201 C181 1.259 . S
O201 Co182 2.021 . S
H202 C193 0.930 1_545 S
H203 C192 0.931 . S
O204 Co180 2.117 . S
O204 C181 1.258 . S
O205 Co180 2.020 . S
O205 C207 1.256 . S
O206 Co182 2.062 . S
O206 C207 1.255 . S
C207 O205 1.256 . S
C207 O206 1.255 . S
H208 C187 0.931 . S
H209 C195 0.931 . S
Co210 N215 2.057 . S
Co210 O227 2.021 . S
Co210 O230 2.062 . S
Co210 O234 2.117 . S
Co210 O235 2.020 . S
C211 O231 1.259 . S
C211 O234 1.258 . S
Co212 N221 2.057 . S
Co212 O228 2.117 . S
Co212 O229 2.020 . S
Co212 O231 2.021 . S
Co212 O236 2.062 . S
C213 N215 1.316 . S
C213 N216 1.347 . S
C213 H218 0.931 . S
C214 N215 1.375 . S
C214 C217 1.350 . S
C214 H219 0.930 . S
N215 Co210 2.057 . S
N215 C213 1.316 . S
N215 C214 1.375 . S
N216 C213 1.347 . S
N216 C217 1.373 . S
C217 C214 1.350 . S
C217 N216 1.373 . S
C217 H238 0.931 . S
H218 C213 0.931 . S
H219 C214 0.930 . S
C220 O227 1.259 . S
C220 O228 1.258 . S
N221 Co212 2.057 . S
N221 C222 1.316 . S
N221 C223 1.375 . S
C222 N221 1.316 . S
C222 N224 1.347 . S
C222 H233 0.931 . S
C223 N221 1.375 . S
C223 C225 1.350 . S
C223 H232 0.930 . S
N224 C222 1.347 . S
N224 C225 1.373 . S
C225 C223 1.350 . S
C225 N224 1.373 . S
C225 H239 0.931 . S
C226 O229 1.256 . S
C226 O230 1.255 . S
O227 Co210 2.021 . S
O227 C220 1.259 . S
O228 Co212 2.117 . S
O228 C220 1.258 . S
O229 Co212 2.020 . S
O229 C226 1.256 . S
O230 Co210 2.062 . S
O230 C226 1.255 . S
O231 C211 1.259 . S
O231 Co212 2.021 . S
H232 C223 0.930 . S
H233 C222 0.931 . S
O234 Co210 2.117 . S
O234 C211 1.258 . S
O235 Co210 2.020 . S
O235 C237 1.256 . S
O236 Co212 2.062 . S
O236 C237 1.255 . S
C237 O235 1.256 . S
C237 O236 1.255 . S
H238 C217 0.931 . S
H239 C225 0.931 . S
Co240 N245 2.057 . S
Co240 O257 2.021 . S
Co240 O260 2.062 . S
Co240 O264 2.117 . S
Co240 O265 2.020 . S
C241 O261 1.259 . S
C241 O264 1.258 . S
Co242 N251 2.057 . S
Co242 O258 2.117 . S
Co242 O259 2.020 . S
Co242 O261 2.021 . S
Co242 O266 2.062 . S
C243 N245 1.316 . S
C243 N246 1.347 . S
C243 H248 0.931 . S
C244 N245 1.375 . S
C244 C247 1.350 . S
C244 H249 0.930 . S
N245 Co240 2.057 . S
N245 C243 1.316 . S
N245 C244 1.375 . S
N246 C243 1.347 . S
N246 C247 1.373 . S
C247 C244 1.350 . S
C247 N246 1.373 . S
C247 H268 0.931 . S
H248 C243 0.931 . S
H249 C244 0.930 . S
C250 O257 1.259 . S
C250 O258 1.258 . S
N251 Co242 2.057 . S
N251 C252 1.316 . S
N251 C253 1.375 . S
C252 N251 1.316 . S
C252 N254 1.347 . S
C252 H263 0.931 . S
C253 N251 1.375 . S
C253 C255 1.350 . S
C253 H262 0.930 . S
N254 C252 1.347 . S
N254 C255 1.373 . S
C255 C253 1.350 . S
C255 N254 1.373 . S
C255 H269 0.931 . S
C256 O259 1.256 . S
C256 O260 1.255 . S
O257 Co240 2.021 . S
O257 C250 1.259 . S
O258 Co242 2.117 . S
O258 C250 1.258 . S
O259 Co242 2.020 . S
O259 C256 1.256 . S
O260 Co240 2.062 . S
O260 C256 1.255 . S
O261 C241 1.259 . S
O261 Co242 2.021 . S
H262 C253 0.930 . S
H263 C252 0.931 . S
O264 Co240 2.117 . S
O264 C241 1.258 . S
O265 Co240 2.020 . S
O265 C267 1.256 . S
O266 Co242 2.062 . S
O266 C267 1.255 . S
C267 O265 1.256 . S
C267 O266 1.255 . S
H268 C247 0.931 . S
H269 C255 0.931 . S
C270 C271 1.391 . S
C270 C272 1.394 . S
C270 H286 0.931 . S
C271 C270 1.391 . S
C271 C275 1.376 1_554 S
C272 C270 1.394 . S
C272 C273 1.369 . S
C272 C276 1.531 . S
C273 C272 1.369 . S
C273 C274 1.410 1_554 S
C273 C281 1.503 . S
C274 C273 1.410 1_556 S
C274 C275 1.392 . S
C274 C277 1.511 . S
C275 C271 1.376 1_556 S
C275 C274 1.392 . S
C275 H287 0.929 . S
C276 C272 1.531 . S
C276 H288 0.960 . S
C276 H289 0.962 . S
C276 H290 0.960 . S
C277 C274 1.511 . S
C277 H291 0.961 . S
C277 H292 0.961 . S
C277 H293 0.961 . S
C278 C279 1.370 1_556 S
C278 C280 1.363 . S
C278 H294 0.931 . S
C279 C278 1.370 1_554 S
C279 C283 1.408 . S
C280 C278 1.363 . S
C280 C281 1.370 1_556 S
C280 C284 1.524 . S
C281 C273 1.503 . S
C281 C280 1.370 1_554 S
C281 C282 1.403 . S
C282 C281 1.403 . S
C282 C283 1.404 . S
C282 C285 1.539 . S
C283 C279 1.408 . S
C283 C282 1.404 . S
C283 H295 0.930 . S
C284 C280 1.524 . S
C284 H296 0.956 . S
C284 H297 0.961 . S
C284 H298 0.961 . S
C285 C282 1.539 . S
C285 H299 0.958 . S
C285 H300 0.961 . S
C285 H301 0.960 . S
H286 C270 0.931 . S
H287 C275 0.929 . S
H288 C276 0.960 . S
H289 C276 0.962 . S
H290 C276 0.960 . S
H291 C277 0.961 . S
H292 C277 0.961 . S
H293 C277 0.961 . S
H294 C278 0.931 . S
H295 C283 0.930 . S
H296 C284 0.956 . S
H297 C284 0.961 . S
H298 C284 0.961 . S
H299 C285 0.958 . S
H300 C285 0.961 . S
H301 C285 0.960 . S
C302 C303 1.391 . S
C302 C304 1.394 . S
C302 H318 0.931 . S
C303 C302 1.391 . S
C303 C307 1.376 1_556 S
C304 C302 1.394 . S
C304 C305 1.369 . S
C304 C308 1.531 . S
C305 C304 1.369 . S
C305 C306 1.410 1_556 S
C305 C313 1.503 . S
C306 C305 1.410 1_554 S
C306 C307 1.392 . S
C306 C309 1.511 . S
C307 C303 1.376 1_554 S
C307 C306 1.392 . S
C307 H319 0.929 . S
C308 C304 1.531 . S
C308 H320 0.960 . S
C308 H321 0.962 . S
C308 H322 0.960 . S
C309 C306 1.511 . S
C309 H323 0.961 . S
C309 H324 0.961 . S
C309 H325 0.939 1_554 S
C310 C311 1.370 1_554 S
C310 C312 1.363 . S
C310 H326 0.931 . S
C311 C310 1.370 1_556 S
C311 C315 1.408 . S
C312 C310 1.363 . S
C312 C313 1.370 1_554 S
C312 C316 1.524 . S
C313 C305 1.503 . S
C313 C312 1.370 1_556 S
C313 C314 1.403 . S
C314 C313 1.403 . S
C314 C315 1.404 . S
C314 C317 1.539 . S
C315 C311 1.408 . S
C315 C314 1.404 . S
C315 H327 0.930 . S
C316 C312 1.524 . S
C316 H328 0.956 . S
C316 H329 0.961 . S
C316 H330 0.961 . S
C317 C314 1.539 . S
C317 H331 0.958 . S
C317 H332 0.961 . S
C317 H333 0.960 . S
H318 C302 0.931 . S
H319 C307 0.929 . S
H320 C308 0.960 . S
H321 C308 0.962 . S
H322 C308 0.960 . S
H323 C309 0.961 . S
H324 C309 0.961 . S
H325 C309 0.939 1_556 S
H326 C310 0.931 . S
H327 C315 0.930 . S
H328 C316 0.956 . S
H329 C316 0.961 . S
H330 C316 0.961 . S
H331 C317 0.958 . S
H332 C317 0.961 . S
H333 C317 0.960 . S
C334 C335 1.391 1_554 S
C334 C336 1.394 . S
C334 H350 0.931 . S
C335 C334 1.391 1_556 S
C335 C339 1.376 . S
C336 C334 1.394 . S
C336 C337 1.369 1_554 S
C336 C340 1.531 . S
C337 C336 1.369 1_556 S
C337 C338 1.410 . S
C337 C345 1.503 . S
C338 C337 1.410 . S
C338 C339 1.392 . S
C338 C341 1.511 . S
C339 C335 1.376 . S
C339 C338 1.392 . S
C339 H351 0.929 . S
C340 C336 1.531 . S
C340 H352 0.960 . S
C340 H353 0.962 . S
C340 H354 0.960 . S
C341 C338 1.511 . S
C341 H355 0.961 . S
C341 H356 0.961 . S
C341 H357 0.961 . S
C342 C343 1.370 1_554 S
C342 C344 1.363 . S
C342 H358 0.931 . S
C343 C342 1.370 1_556 S
C343 C347 1.408 . S
C344 C342 1.363 . S
C344 C345 1.370 1_554 S
C344 C348 1.524 . S
C345 C337 1.503 . S
C345 C344 1.370 1_556 S
C345 C346 1.403 . S
C346 C345 1.403 . S
C346 C347 1.404 . S
C346 C349 1.539 . S
C347 C343 1.408 . S
C347 C346 1.404 . S
C347 H359 0.930 . S
C348 C344 1.524 . S
C348 H360 0.956 . S
C348 H361 0.961 . S
C348 H362 0.961 . S
C349 C346 1.539 . S
C349 H363 0.958 . S
C349 H364 0.961 . S
C349 H365 0.960 . S
H350 C334 0.931 . S
H351 C339 0.929 . S
H352 C340 0.960 . S
H353 C340 0.962 . S
H354 C340 0.960 . S
H355 C341 0.961 . S
H356 C341 0.961 . S
H357 C341 0.961 . S
H358 C342 0.931 . S
H359 C347 0.930 . S
H360 C348 0.956 . S
H361 C348 0.961 . S
H362 C348 0.961 . S
H363 C349 0.958 . S
H364 C349 0.961 . S
H365 C349 0.960 . S
C366 C367 1.391 . S
C366 C368 1.394 . S
C366 H382 0.931 . S
C367 C366 1.391 . S
C367 C371 1.376 . S
C368 C366 1.394 . S
C368 C369 1.369 . S
C368 C372 1.531 . S
C369 C368 1.369 . S
C369 C370 1.410 . S
C369 C377 1.503 . S
C370 C369 1.410 . S
C370 C371 1.392 . S
C370 C373 1.511 . S
C371 C367 1.376 . S
C371 C370 1.392 . S
C371 H383 0.929 . S
C372 C368 1.531 . S
C372 H384 0.960 . S
C372 H385 0.962 . S
C372 H386 0.960 . S
C373 C370 1.511 . S
C373 H387 0.949 1_554 S
C373 H388 0.961 . S
C373 H389 0.961 . S
C374 C375 1.370 1_556 S
C374 C376 1.363 . S
C374 H390 0.931 . S
C375 C374 1.370 1_554 S
C375 C379 1.408 . S
C376 C374 1.363 . S
C376 C377 1.370 1_556 S
C376 C380 1.524 . S
C377 C369 1.503 . S
C377 C376 1.370 1_554 S
C377 C378 1.403 . S
C378 C377 1.403 . S
C378 C379 1.404 . S
C378 C381 1.539 . S
C379 C375 1.408 . S
C379 C378 1.404 . S
C379 H391 0.930 . S
C380 C376 1.524 . S
C380 H392 0.956 . S
C380 H393 0.961 . S
C380 H394 0.961 . S
C381 C378 1.539 . S
C381 H395 0.958 . S
C381 H396 0.961 . S
C381 H397 0.960 . S
H382 C366 0.931 . S
H383 C371 0.929 . S
H384 C372 0.960 . S
H385 C372 0.962 . S
H386 C372 0.960 . S
H387 C373 0.949 1_556 S
H388 C373 0.961 . S
H389 C373 0.961 . S
H390 C374 0.931 . S
H391 C379 0.930 . S
H392 C380 0.956 . S
H393 C380 0.961 . S
H394 C380 0.961 . S
H395 C381 0.958 . S
H396 C381 0.961 . S
H397 C381 0.960 . S
C398 C399 1.391 1_556 S
C398 C400 1.391 1_556 S
C398 H414 0.931 . S
C399 C398 1.391 1_554 S
C399 C403 1.376 . S
C400 C398 1.391 1_554 S
C400 C401 1.381 . S
C400 C404 1.521 1_554 S
C401 C400 1.381 . S
C401 C402 1.410 . S
C401 C409 1.503 . S
C402 C401 1.410 . S
C402 C403 1.392 . S
C402 C405 1.511 . S
C403 C399 1.376 . S
C403 C402 1.392 . S
C403 H415 0.929 . S
C404 C400 1.521 1_556 S
C404 H416 0.973 . S
C404 H417 0.962 . S
C404 H418 0.960 . S
C405 C402 1.511 . S
C405 H419 0.961 . S
C405 H420 0.961 . S
C405 H421 0.961 . S
C406 C407 1.370 1_556 S
C406 C408 1.363 . S
C406 H422 0.931 . S
C407 C406 1.370 1_554 S
C407 C411 1.408 . S
C408 C406 1.363 . S
C408 C409 1.370 1_556 S
C408 C412 1.524 . S
C409 C401 1.503 . S
C409 C408 1.370 1_554 S
C409 C410 1.403 . S
C410 C409 1.403 . S
C410 C411 1.404 . S
C410 C413 1.539 . S
C411 C407 1.408 . S
C411 C410 1.404 . S
C411 H423 0.930 . S
C412 C408 1.524 . S
C412 H424 0.956 . S
C412 H425 0.961 . S
C412 H426 0.961 . S
C413 C410 1.539 . S
C413 H427 0.958 . S
C413 H428 0.961 . S
C413 H429 0.960 . S
H414 C398 0.931 . S
H415 C403 0.929 . S
H416 C404 0.973 . S
H417 C404 0.962 . S
H418 C404 0.960 . S
H419 C405 0.961 . S
H420 C405 0.961 . S
H421 C405 0.961 . S
H422 C406 0.931 . S
H423 C411 0.930 . S
H424 C412 0.956 . S
H425 C412 0.961 . S
H426 C412 0.961 . S
H427 C413 0.958 . S
H428 C413 0.961 . S
H429 C413 0.960 . S
C430 C431 1.391 . S
C430 C432 1.394 . S
C430 H446 0.931 . S
C431 C430 1.391 . S
C431 C435 1.376 1_554 S
C432 C430 1.394 . S
C432 C433 1.369 . S
C432 C436 1.531 . S
C433 C432 1.369 . S
C433 C434 1.410 1_554 S
C433 C441 1.503 . S
C434 C433 1.410 1_556 S
C434 C435 1.392 . S
C434 C437 1.511 . S
C435 C431 1.376 1_556 S
C435 C434 1.392 . S
C435 H447 0.929 . S
C436 C432 1.531 . S
C436 H448 0.960 . S
C436 H449 0.962 . S
C436 H450 0.960 . S
C437 C434 1.511 . S
C437 H451 0.961 . S
C437 H452 0.961 . S
C437 H453 0.961 . S
C438 C439 1.370 . S
C438 C440 1.363 . S
C438 H454 0.931 . S
C439 C438 1.370 . S
C439 C443 1.408 1_554 S
C440 C438 1.363 . S
C440 C441 1.370 . S
C440 C444 1.524 . S
C441 C433 1.503 . S
C441 C440 1.370 . S
C441 C442 1.403 1_554 S
C442 C441 1.403 1_556 S
C442 C443 1.404 . S
C442 C445 1.539 . S
C443 C439 1.408 1_556 S
C443 C442 1.404 . S
C443 H455 0.930 . S
C444 C440 1.524 . S
C444 H456 0.956 . S
C444 H457 0.961 . S
C444 H458 0.961 . S
C445 C442 1.539 . S
C445 H459 0.958 . S
C445 H460 0.961 . S
C445 H461 0.960 . S
H446 C430 0.931 . S
H447 C435 0.929 . S
H448 C436 0.960 . S
H449 C436 0.962 . S
H450 C436 0.960 . S
H451 C437 0.961 . S
H452 C437 0.961 . S
H453 C437 0.961 . S
H454 C438 0.931 . S
H455 C443 0.930 . S
H456 C444 0.956 . S
H457 C444 0.961 . S
H458 C444 0.961 . S
H459 C445 0.958 . S
H460 C445 0.961 . S
H461 C445 0.960 . S
C462 C463 1.391 . S
C462 C464 1.394 . S
C462 H478 0.931 . S
C463 C462 1.391 . S
C463 C467 1.376 . S
C464 C462 1.394 . S
C464 C465 1.369 . S
C464 C468 1.531 . S
C465 C464 1.369 . S
C465 C466 1.410 . S
C465 C473 1.503 . S
C466 C465 1.410 . S
C466 C467 1.392 . S
C466 C469 1.511 . S
C467 C463 1.376 . S
C467 C466 1.392 . S
C467 H479 0.929 . S
C468 C464 1.531 . S
C468 H480 0.960 . S
C468 H481 0.962 . S
C468 H482 0.960 . S
C469 C466 1.511 . S
C469 H483 0.961 . S
C469 H484 0.961 . S
C469 H485 0.961 . S
C470 C471 1.370 1_655 S
C470 C472 1.363 . S
C470 H486 0.931 1_655 S
C471 C470 1.370 1_455 S
C471 C475 1.408 1_455 S
C472 C470 1.363 . S
C472 C473 1.370 . S
C472 C476 1.524 . S
C473 C465 1.503 . S
C473 C472 1.370 . S
C473 C474 1.403 . S
C474 C473 1.403 . S
C474 C475 1.404 . S
C474 C477 1.539 . S
C475 C471 1.408 1_655 S
C475 C474 1.404 . S
C475 H487 0.930 1_655 S
C476 C472 1.524 . S
C476 H488 0.956 . S
C476 H489 0.961 . S
C476 H490 0.961 . S
C477 C474 1.539 . S
C477 H491 0.958 . S
C477 H492 0.961 . S
C477 H493 0.960 . S
H478 C462 0.931 . S
H479 C467 0.929 . S
H480 C468 0.960 . S
H481 C468 0.962 . S
H482 C468 0.960 . S
H483 C469 0.961 . S
H484 C469 0.961 . S
H485 C469 0.961 . S
H486 C470 0.931 1_455 S
H487 C475 0.930 1_455 S
H488 C476 0.956 . S
H489 C476 0.961 . S
H490 C476 0.961 . S
H491 C477 0.958 . S
H492 C477 0.961 . S
H493 C477 0.960 . S
C494 C495 1.391 . S
C494 C496 1.394 . S
C494 H510 0.931 . S
C495 C494 1.391 . S
C495 C499 1.376 . S
C496 C494 1.394 . S
C496 C497 1.369 . S
C496 C500 1.531 . S
C497 C496 1.369 . S
C497 C498 1.410 . S
C497 C505 1.503 . S
C498 C497 1.410 . S
C498 C499 1.392 . S
C498 C501 1.511 . S
C499 C495 1.376 . S
C499 C498 1.392 . S
C499 H511 0.929 . S
C500 C496 1.531 . S
C500 H512 0.960 . S
C500 H513 0.962 . S
C500 H514 0.960 . S
C501 C498 1.511 . S
C501 H515 0.961 . S
C501 H516 0.961 . S
C501 H517 0.961 . S
C502 C503 1.370 . S
C502 C504 1.363 . S
C502 H518 0.931 . S
C503 C502 1.370 . S
C503 C507 1.408 . S
C504 C502 1.363 . S
C504 C505 1.370 . S
C504 C508 1.524 . S
C505 C497 1.503 . S
C505 C504 1.370 . S
C505 C506 1.403 . S
C506 C505 1.403 . S
C506 C507 1.404 . S
C506 C509 1.539 . S
C507 C503 1.408 . S
C507 C506 1.404 . S
C507 H519 0.930 1_545 S
C508 C504 1.524 . S
C508 H520 0.956 . S
C508 H521 0.961 . S
C508 H522 0.961 . S
C509 C506 1.539 . S
C509 H523 0.958 . S
C509 H524 0.961 . S
C509 H525 0.960 . S
H510 C494 0.931 . S
H511 C499 0.929 . S
H512 C500 0.960 . S
H513 C500 0.962 . S
H514 C500 0.960 . S
H515 C501 0.961 . S
H516 C501 0.961 . S
H517 C501 0.961 . S
H518 C502 0.931 . S
H519 C507 0.930 1_565 S
H520 C508 0.956 . S
H521 C508 0.961 . S
H522 C508 0.961 . S
H523 C509 0.958 . S
H524 C509 0.961 . S
H525 C509 0.960 . S
C526 C527 1.391 1_455 S
C526 C528 1.394 1_455 S
C526 H542 0.931 . S
C527 C526 1.391 1_655 S
C527 C531 1.376 . S
C528 C526 1.394 1_655 S
C528 C529 1.369 . S
C528 C532 1.531 1_655 S
C529 C528 1.369 . S
C529 C530 1.410 . S
C529 C537 1.503 . S
C530 C529 1.410 . S
C530 C531 1.392 . S
C530 C533 1.511 . S
C531 C527 1.376 . S
C531 C530 1.392 . S
C531 H543 0.929 . S
C532 C528 1.531 1_455 S
C532 H544 0.960 1_455 S
C532 H545 0.962 . S
C532 H546 0.960 . S
C533 C530 1.511 . S
C533 H547 0.961 . S
C533 H548 0.961 . S
C533 H549 0.961 . S
C534 C535 1.370 . S
C534 C536 1.363 . S
C534 H550 0.931 . S
C535 C534 1.370 . S
C535 C539 1.408 . S
C536 C534 1.363 . S
C536 C537 1.370 . S
C536 C540 1.524 . S
C537 C529 1.503 . S
C537 C536 1.370 . S
C537 C538 1.403 . S
C538 C537 1.403 . S
C538 C539 1.404 . S
C538 C541 1.539 . S
C539 C535 1.408 . S
C539 C538 1.404 . S
C539 H551 0.930 . S
C540 C536 1.524 . S
C540 H552 0.956 . S
C540 H553 0.961 . S
C540 H554 0.961 . S
C541 C538 1.539 . S
C541 H555 0.958 . S
C541 H556 0.961 . S
C541 H557 0.960 . S
H542 C526 0.931 . S
H543 C531 0.929 . S
H544 C532 0.960 1_655 S
H545 C532 0.962 . S
H546 C532 0.960 . S
H547 C533 0.961 . S
H548 C533 0.961 . S
H549 C533 0.961 . S
H550 C534 0.931 . S
H551 C539 0.930 . S
H552 C540 0.956 . S
H553 C540 0.961 . S
H554 C540 0.961 . S
H555 C541 0.958 . S
H556 C541 0.961 . S
H557 C541 0.960 . S
C558 C559 1.391 . S
C558 C560 1.394 . S
C558 H574 0.931 . S
C559 C558 1.391 . S
C559 C563 1.376 . S
C560 C558 1.394 . S
C560 C561 1.369 . S
C560 C564 1.531 . S
C561 C560 1.369 . S
C561 C562 1.410 . S
C561 C569 1.503 . S
C562 C561 1.410 . S
C562 C563 1.392 . S
C562 C565 1.511 . S
C563 C559 1.376 . S
C563 C562 1.392 . S
C563 H575 0.929 . S
C564 C560 1.531 . S
C564 H576 0.960 . S
C564 H577 0.962 . S
C564 H578 0.960 . S
C565 C562 1.511 . S
C565 H579 0.961 . S
C565 H580 0.961 . S
C565 H581 0.961 . S
C566 C567 1.370 . S
C566 C568 1.363 . S
C566 H582 0.931 . S
C567 C566 1.370 . S
C567 C571 1.408 . S
C568 C566 1.363 . S
C568 C569 1.370 . S
C568 C572 1.524 . S
C569 C561 1.503 . S
C569 C568 1.370 . S
C569 C570 1.403 . S
C570 C569 1.403 . S
C570 C571 1.404 . S
C570 C573 1.539 . S
C571 C567 1.408 . S
C571 C570 1.404 . S
C571 H583 0.930 . S
C572 C568 1.524 . S
C572 H584 0.956 . S
C572 H585 0.961 . S
C572 H586 0.961 . S
C573 C570 1.539 . S
C573 H587 0.958 . S
C573 H588 0.961 . S
C573 H589 0.960 . S
H574 C558 0.931 . S
H575 C563 0.929 . S
H576 C564 0.960 . S
H577 C564 0.962 . S
H578 C564 0.960 . S
H579 C565 0.961 . S
H580 C565 0.961 . S
H581 C565 0.961 . S
H582 C566 0.931 . S
H583 C571 0.930 . S
H584 C572 0.956 . S
H585 C572 0.961 . S
H586 C572 0.961 . S
H587 C573 0.958 . S
H588 C573 0.961 . S
H589 C573 0.960 . S
C590 C591 1.391 . S
C590 C592 1.394 . S
C590 H606 0.931 . S
C591 C590 1.391 . S
C591 C595 1.376 . S
C592 C590 1.394 . S
C592 C593 1.369 . S
C592 C596 1.531 . S
C593 C592 1.369 . S
C593 C594 1.410 . S
C593 C601 1.503 . S
C594 C593 1.410 . S
C594 C595 1.392 . S
C594 C597 1.511 . S
C595 C591 1.376 . S
C595 C594 1.392 . S
C595 H607 0.929 . S
C596 C592 1.531 . S
C596 H608 0.960 . S
C596 H609 0.962 . S
C596 H610 0.960 . S
C597 C594 1.511 . S
C597 H611 0.961 . S
C597 H612 0.961 . S
C597 H613 0.961 . S
C598 C599 1.370 . S
C598 C600 1.363 . S
C598 H614 0.931 . S
C599 C598 1.370 . S
C599 C603 1.408 . S
C600 C598 1.363 . S
C600 C601 1.370 . S
C600 C604 1.524 . S
C601 C593 1.503 . S
C601 C600 1.370 . S
C601 C602 1.403 . S
C602 C601 1.403 . S
C602 C603 1.404 . S
C602 C605 1.539 . S
C603 C599 1.408 . S
C603 C602 1.404 . S
C603 H615 0.930 . S
C604 C600 1.524 . S
C604 H616 0.956 . S
C604 H617 0.961 . S
C604 H618 0.961 . S
C605 C602 1.539 . S
C605 H619 0.958 . S
C605 H620 0.961 . S
C605 H621 0.960 . S
H606 C590 0.931 . S
H607 C595 0.929 . S
H608 C596 0.960 . S
H609 C596 0.962 . S
H610 C596 0.960 . S
H611 C597 0.961 . S
H612 C597 0.961 . S
H613 C597 0.961 . S
H614 C598 0.931 . S
H615 C603 0.930 . S
H616 C604 0.956 . S
H617 C604 0.961 . S
H618 C604 0.961 . S
H619 C605 0.958 . S
H620 C605 0.961 . S
H621 C605 0.960 . S
C622 C623 1.391 . S
C622 C624 1.394 . S
C622 H638 0.931 . S
C623 C622 1.391 . S
C623 C627 1.376 . S
C624 C622 1.394 . S
C624 C625 1.369 . S
C624 C628 1.531 . S
C625 C624 1.369 . S
C625 C626 1.410 . S
C625 C633 1.503 . S
C626 C625 1.410 . S
C626 C627 1.392 . S
C626 C629 1.511 . S
C627 C623 1.376 . S
C627 C626 1.392 . S
C627 H639 0.929 . S
C628 C624 1.531 . S
C628 H640 0.960 . S
C628 H641 0.962 . S
C628 H642 0.960 . S
C629 C626 1.511 . S
C629 H643 0.961 . S
C629 H644 0.961 . S
C629 H645 0.961 . S
C630 C631 1.370 . S
C630 C632 1.363 . S
C630 H646 0.931 . S
C631 C630 1.370 . S
C631 C635 1.408 . S
C632 C630 1.363 . S
C632 C633 1.370 . S
C632 C636 1.524 . S
C633 C625 1.503 . S
C633 C632 1.370 . S
C633 C634 1.403 . S
C634 C633 1.403 . S
C634 C635 1.404 . S
C634 C637 1.539 . S
C635 C631 1.408 . S
C635 C634 1.404 . S
C635 H647 0.930 . S
C636 C632 1.524 . S
C636 H648 0.956 . S
C636 H649 0.961 . S
C636 H650 0.961 . S
C637 C634 1.539 . S
C637 H651 0.958 . S
C637 H652 0.961 . S
C637 H653 0.960 . S
H638 C622 0.931 . S
H639 C627 0.929 . S
H640 C628 0.960 . S
H641 C628 0.962 . S
H642 C628 0.960 . S
H643 C629 0.961 . S
H644 C629 0.961 . S
H645 C629 0.961 . S
H646 C630 0.931 . S
H647 C635 0.930 . S
H648 C636 0.956 . S
H649 C636 0.961 . S
H650 C636 0.961 . S
H651 C637 0.958 . S
H652 C637 0.961 . S
H653 C637 0.960 . S
C654 C655 1.391 . S
C654 C656 1.394 . S
C654 H670 0.931 . S
C655 C654 1.391 . S
C655 C659 1.376 . S
C656 C654 1.394 . S
C656 C657 1.369 . S
C656 C660 1.531 . S
C657 C656 1.369 . S
C657 C658 1.410 . S
C657 C665 1.503 . S
C658 C657 1.410 . S
C658 C659 1.392 . S
C658 C661 1.511 . S
C659 C655 1.376 . S
C659 C658 1.392 . S
C659 H671 0.929 . S
C660 C656 1.531 . S
C660 H672 0.960 . S
C660 H673 0.962 . S
C660 H674 0.960 . S
C661 C658 1.511 . S
C661 H675 0.961 . S
C661 H676 0.961 . S
C661 H677 0.961 . S
C662 C663 1.370 . S
C662 C664 1.363 . S
C662 H678 0.931 . S
C663 C662 1.370 . S
C663 C667 1.408 . S
C664 C662 1.363 . S
C664 C665 1.370 . S
C664 C668 1.524 . S
C665 C657 1.503 . S
C665 C664 1.370 . S
C665 C666 1.403 . S
C666 C665 1.403 . S
C666 C667 1.404 . S
C666 C669 1.539 . S
C667 C663 1.408 . S
C667 C666 1.404 . S
C667 H679 0.930 . S
C668 C664 1.524 . S
C668 H680 0.956 . S
C668 H681 0.961 . S
C668 H682 0.961 . S
C669 C666 1.539 . S
C669 H683 0.958 . S
C669 H684 0.961 . S
C669 H685 0.960 . S
H670 C654 0.931 . S
H671 C659 0.929 . S
H672 C660 0.960 . S
H673 C660 0.962 . S
H674 C660 0.960 . S
H675 C661 0.961 . S
H676 C661 0.961 . S
H677 C661 0.961 . S
H678 C662 0.931 . S
H679 C667 0.930 . S
H680 C668 0.956 . S
H681 C668 0.961 . S
H682 C668 0.961 . S
H683 C669 0.958 . S
H684 C669 0.961 . S
H685 C669 0.960 . S
C686 C687 1.391 . S
C686 C688 1.394 . S
C686 H702 0.931 . S
C687 C686 1.391 . S
C687 C691 1.376 . S
C688 C686 1.394 . S
C688 C689 1.369 . S
C688 C692 1.531 . S
C689 C688 1.369 . S
C689 C690 1.410 . S
C689 C697 1.503 . S
C690 C689 1.410 . S
C690 C691 1.392 . S
C690 C693 1.511 . S
C691 C687 1.376 . S
C691 C690 1.392 . S
C691 H703 0.929 . S
C692 C688 1.531 . S
C692 H704 0.960 . S
C692 H705 0.962 . S
C692 H706 0.960 . S
C693 C690 1.511 . S
C693 H707 0.961 . S
C693 H708 0.961 . S
C693 H709 0.961 . S
C694 C695 1.370 . S
C694 C696 1.363 . S
C694 H710 0.931 . S
C695 C694 1.370 . S
C695 C699 1.408 . S
C696 C694 1.363 . S
C696 C697 1.370 . S
C696 C700 1.524 . S
C697 C689 1.503 . S
C697 C696 1.370 . S
C697 C698 1.403 . S
C698 C697 1.403 . S
C698 C699 1.404 . S
C698 C701 1.539 . S
C699 C695 1.408 . S
C699 C698 1.404 . S
C699 H711 0.930 . S
C700 C696 1.524 . S
C700 H712 0.956 . S
C700 H713 0.961 . S
C700 H714 0.961 . S
C701 C698 1.539 . S
C701 H715 0.958 . S
C701 H716 0.961 . S
C701 H717 0.960 . S
H702 C686 0.931 . S
H703 C691 0.929 . S
H704 C692 0.960 . S
H705 C692 0.962 . S
H706 C692 0.960 . S
H707 C693 0.961 . S
H708 C693 0.961 . S
H709 C693 0.961 . S
H710 C694 0.931 . S
H711 C699 0.930 . S
H712 C700 0.956 . S
H713 C700 0.961 . S
H714 C700 0.961 . S
H715 C701 0.958 . S
H716 C701 0.961 . S
H717 C701 0.960 . S
C718 C719 1.391 . S
C718 C720 1.394 . S
C718 H734 0.931 . S
C719 C718 1.391 . S
C719 C723 1.376 . S
C720 C718 1.394 . S
C720 C721 1.369 . S
C720 C724 1.531 . S
C721 C720 1.369 . S
C721 C722 1.410 . S
C721 C729 1.503 . S
C722 C721 1.410 . S
C722 C723 1.392 . S
C722 C725 1.511 . S
C723 C719 1.376 . S
C723 C722 1.392 . S
C723 H735 0.929 . S
C724 C720 1.531 . S
C724 H736 0.960 . S
C724 H737 0.962 . S
C724 H738 0.960 . S
C725 C722 1.511 . S
C725 H739 0.961 . S
C725 H740 0.961 . S
C725 H741 0.961 . S
C726 C727 1.370 . S
C726 C728 1.363 . S
C726 H742 0.931 . S
C727 C726 1.370 . S
C727 C731 1.408 . S
C728 C726 1.363 . S
C728 C729 1.370 . S
C728 C732 1.524 . S
C729 C721 1.503 . S
C729 C728 1.370 . S
C729 C730 1.403 . S
C730 C729 1.403 . S
C730 C731 1.404 . S
C730 C733 1.539 . S
C731 C727 1.408 . S
C731 C730 1.404 . S
C731 H743 0.930 . S
C732 C728 1.524 . S
C732 H744 0.956 . S
C732 H745 0.961 . S
C732 H746 0.961 . S
C733 C730 1.539 . S
C733 H747 0.958 . S
C733 H748 0.961 . S
C733 H749 0.960 . S
H734 C718 0.931 . S
H735 C723 0.929 . S
H736 C724 0.960 . S
H737 C724 0.962 . S
H738 C724 0.960 . S
H739 C725 0.961 . S
H740 C725 0.961 . S
H741 C725 0.961 . S
H742 C726 0.931 . S
H743 C731 0.930 . S
H744 C732 0.956 . S
H745 C732 0.961 . S
H746 C732 0.961 . S
H747 C733 0.958 . S
H748 C733 0.961 . S
H749 C733 0.960 . S
C750 C751 1.391 . S
C750 C752 1.394 . S
C750 H766 0.931 . S
C751 C750 1.391 . S
C751 C755 1.376 . S
C752 C750 1.394 . S
C752 C753 1.369 . S
C752 C756 1.531 . S
C753 C752 1.369 . S
C753 C754 1.410 . S
C753 C761 1.503 . S
C754 C753 1.410 . S
C754 C755 1.392 . S
C754 C757 1.511 . S
C755 C751 1.376 . S
C755 C754 1.392 . S
C755 H767 0.929 . S
C756 C752 1.531 . S
C756 H768 0.960 . S
C756 H769 0.962 . S
C756 H770 0.960 . S
C757 C754 1.511 . S
C757 H771 0.961 . S
C757 H772 0.961 . S
C757 H773 0.961 . S
C758 C759 1.370 . S
C758 C760 1.363 1_545 S
C758 H774 0.931 . S
C759 C758 1.370 . S
C759 C763 1.408 . S
C760 C758 1.363 1_565 S
C760 C761 1.370 . S
C760 C764 1.524 . S
C761 C753 1.503 . S
C761 C760 1.370 . S
C761 C762 1.403 . S
C762 C761 1.403 . S
C762 C763 1.404 1_565 S
C762 C765 1.539 . S
C763 C759 1.408 . S
C763 C762 1.404 1_545 S
C763 H775 0.930 . S
C764 C760 1.524 . S
C764 H776 0.956 . S
C764 H777 0.961 . S
C764 H778 0.961 . S
C765 C762 1.539 . S
C765 H779 0.958 . S
C765 H780 0.961 . S
C765 H781 0.960 . S
H766 C750 0.931 . S
H767 C755 0.929 . S
H768 C756 0.960 . S
H769 C756 0.962 . S
H770 C756 0.960 . S
H771 C757 0.961 . S
H772 C757 0.961 . S
H773 C757 0.961 . S
H774 C758 0.931 . S
H775 C763 0.930 . S
H776 C764 0.956 . S
H777 C764 0.961 . S
H778 C764 0.961 . S
H779 C765 0.958 . S
H780 C765 0.961 . S
H781 C765 0.960 . S
C782 C783 1.391 . S
C782 C784 1.394 . S
C782 H798 0.931 . S
C783 C782 1.391 . S
C783 C787 1.376 . S
C784 C782 1.394 . S
C784 C785 1.369 1_655 S
C784 C788 1.531 1_655 S
C785 C784 1.369 1_455 S
C785 C786 1.410 1_455 S
C785 C793 1.503 . S
C786 C785 1.410 1_655 S
C786 C787 1.392 . S
C786 C789 1.515 . S
C787 C783 1.376 . S
C787 C786 1.392 . S
C787 H799 0.929 . S
C788 C784 1.531 1_455 S
C788 H800 0.960 . S
C788 H801 0.962 . S
C788 H802 0.960 1_455 S
C789 C786 1.515 . S
C789 H803 0.981 . S
C789 H804 0.952 1_655 S
C789 H805 0.946 1_655 S
C790 C791 1.370 . S
C790 C792 1.363 . S
C790 H806 0.931 . S
C791 C790 1.370 . S
C791 C795 1.408 . S
C792 C790 1.363 . S
C792 C793 1.370 . S
C792 C796 1.524 . S
C793 C785 1.503 . S
C793 C792 1.370 . S
C793 C794 1.403 . S
C794 C793 1.403 . S
C794 C795 1.404 . S
C794 C797 1.539 . S
C795 C791 1.408 . S
C795 C794 1.404 . S
C795 H807 0.930 . S
C796 C792 1.524 . S
C796 H808 0.956 . S
C796 H809 0.961 . S
C796 H810 0.961 . S
C797 C794 1.539 . S
C797 H811 0.958 . S
C797 H812 0.961 . S
C797 H813 0.960 . S
H798 C782 0.931 . S
H799 C787 0.929 . S
H800 C788 0.960 . S
H801 C788 0.962 . S
H802 C788 0.960 1_655 S
H803 C789 0.981 . S
H804 C789 0.952 1_455 S
H805 C789 0.946 1_455 S
H806 C790 0.931 . S
H807 C795 0.930 . S
H808 C796 0.956 . S
H809 C796 0.961 . S
H810 C796 0.961 . S
H811 C797 0.958 . S
H812 C797 0.961 . S
H813 C797 0.960 . S
C814 C815 1.391 . S
C814 C816 1.394 . S
C814 H830 0.931 . S
C815 C814 1.391 . S
C815 C819 1.376 . S
C816 C814 1.394 . S
C816 C817 1.369 . S
C816 C820 1.531 . S
C817 C816 1.369 . S
C817 C818 1.410 . S
C817 C825 1.503 . S
C818 C817 1.410 . S
C818 C819 1.392 . S
C818 C821 1.511 . S
C819 C815 1.376 . S
C819 C818 1.392 . S
C819 H831 0.929 . S
C820 C816 1.531 . S
C820 H832 0.960 . S
C820 H833 0.962 . S
C820 H834 0.960 . S
C821 C818 1.511 . S
C821 H835 0.961 . S
C821 H836 0.961 . S
C821 H837 0.961 . S
C822 C823 1.370 . S
C822 C824 1.363 . S
C822 H838 0.931 . S
C823 C822 1.370 . S
C823 C827 1.408 . S
C824 C822 1.363 . S
C824 C825 1.370 . S
C824 C828 1.524 . S
C825 C817 1.503 . S
C825 C824 1.370 . S
C825 C826 1.403 . S
C826 C825 1.403 . S
C826 C827 1.404 . S
C826 C829 1.539 . S
C827 C823 1.408 . S
C827 C826 1.404 . S
C827 H839 0.930 . S
C828 C824 1.524 . S
C828 H840 0.956 . S
C828 H841 0.961 . S
C828 H842 0.961 . S
C829 C826 1.539 . S
C829 H843 0.958 . S
C829 H844 0.961 . S
C829 H845 0.960 . S
H830 C814 0.931 . S
H831 C819 0.929 . S
H832 C820 0.960 . S
H833 C820 0.962 . S
H834 C820 0.960 . S
H835 C821 0.961 . S
H836 C821 0.961 . S
H837 C821 0.961 . S
H838 C822 0.931 . S
H839 C827 0.930 . S
H840 C828 0.956 . S
H841 C828 0.961 . S
H842 C828 0.961 . S
H843 C829 0.958 . S
H844 C829 0.961 . S
H845 C829 0.960 . S
C846 C847 1.391 . S
C846 C848 1.394 . S
C846 H862 0.931 . S
C847 C846 1.391 . S
C847 C851 1.376 . S
C848 C846 1.394 . S
C848 C849 1.369 . S
C848 C852 1.531 . S
C849 C848 1.369 . S
C849 C850 1.410 . S
C849 C857 1.503 . S
C850 C849 1.410 . S
C850 C851 1.392 . S
C850 C853 1.511 . S
C851 C847 1.376 . S
C851 C850 1.392 . S
C851 H863 0.929 . S
C852 C848 1.531 . S
C852 H864 0.960 1_455 S
C852 H865 0.962 . S
C852 H866 0.958 1_455 S
C853 C850 1.511 . S
C853 H867 0.961 . S
C853 H868 0.961 . S
C853 H869 0.961 . S
C854 C855 1.370 . S
C854 C856 1.363 . S
C854 H870 0.931 . S
C855 C854 1.370 . S
C855 C859 1.401 1_455 S
C856 C854 1.363 . S
C856 C857 1.370 . S
C856 C860 1.524 . S
C857 C849 1.503 . S
C857 C856 1.370 . S
C857 C858 1.403 . S
C858 C857 1.403 . S
C858 C859 1.398 1_455 S
C858 C861 1.539 1_455 S
C859 C855 1.401 1_655 S
C859 C858 1.398 1_655 S
C859 H871 0.942 . S
C860 C856 1.524 . S
C860 H872 0.956 . S
C860 H873 0.961 . S
C860 H874 0.961 . S
C861 C858 1.539 1_655 S
C861 H875 0.958 . S
C861 H876 0.961 . S
C861 H877 0.960 . S
H862 C846 0.931 . S
H863 C851 0.929 . S
H864 C852 0.960 1_655 S
H865 C852 0.962 . S
H866 C852 0.958 1_655 S
H867 C853 0.961 . S
H868 C853 0.961 . S
H869 C853 0.961 . S
H870 C854 0.931 . S
H871 C859 0.942 . S
H872 C860 0.956 . S
H873 C860 0.961 . S
H874 C860 0.961 . S
H875 C861 0.958 . S
H876 C861 0.961 . S
H877 C861 0.960 . S
C878 C879 1.391 . S
C878 C880 1.394 . S
C878 H894 0.931 . S
C879 C878 1.391 . S
C879 C883 1.376 . S
C880 C878 1.394 . S
C880 C881 1.369 . S
C880 C884 1.531 . S
C881 C880 1.369 . S
C881 C882 1.410 . S
C881 C889 1.503 . S
C882 C881 1.410 . S
C882 C883 1.392 . S
C882 C885 1.511 . S
C883 C879 1.376 . S
C883 C882 1.392 . S
C883 H895 0.929 . S
C884 C880 1.531 . S
C884 H896 0.960 . S
C884 H897 0.962 . S
C884 H898 0.960 . S
C885 C882 1.511 . S
C885 H899 0.961 . S
C885 H900 0.961 . S
C885 H901 0.961 . S
C886 C887 1.370 . S
C886 C888 1.363 . S
C886 H902 0.931 . S
C887 C886 1.370 . S
C887 C891 1.408 . S
C888 C886 1.363 . S
C888 C889 1.370 . S
C888 C892 1.524 . S
C889 C881 1.503 . S
C889 C888 1.370 . S
C889 C890 1.403 . S
C890 C889 1.403 . S
C890 C891 1.404 . S
C890 C893 1.539 . S
C891 C887 1.408 . S
C891 C890 1.404 . S
C891 H903 0.930 . S
C892 C888 1.524 . S
C892 H904 0.956 . S
C892 H905 0.961 . S
C892 H906 0.961 . S
C893 C890 1.539 . S
C893 H907 0.958 . S
C893 H908 0.961 . S
C893 H909 0.960 . S
H894 C878 0.931 . S
H895 C883 0.929 . S
H896 C884 0.960 . S
H897 C884 0.962 . S
H898 C884 0.960 . S
H899 C885 0.961 . S
H900 C885 0.961 . S
H901 C885 0.961 . S
H902 C886 0.931 . S
H903 C891 0.930 . S
H904 C892 0.956 . S
H905 C892 0.961 . S
H906 C892 0.961 . S
H907 C893 0.958 . S
H908 C893 0.961 . S
H909 C893 0.960 . S
C910 C911 1.391 1_545 S
C910 C912 1.394 1_545 S
C910 H926 0.931 . S
C911 C910 1.391 1_565 S
C911 C915 1.376 . S
C912 C910 1.394 1_565 S
C912 C913 1.369 . S
C912 C916 1.531 1_565 S
C913 C912 1.369 . S
C913 C914 1.410 . S
C913 C921 1.503 . S
C914 C913 1.410 . S
C914 C915 1.392 . S
C914 C917 1.511 . S
C915 C911 1.376 . S
C915 C914 1.392 . S
C915 H927 0.929 . S
C916 C912 1.531 1_545 S
C916 H928 0.960 . S
C916 H929 0.962 . S
C916 H930 0.960 . S
C917 C914 1.511 . S
C917 H931 0.961 . S
C917 H932 0.961 . S
C917 H933 0.961 . S
C918 C919 1.370 . S
C918 C920 1.363 . S
C918 H934 0.931 . S
C919 C918 1.370 . S
C919 C923 1.408 . S
C920 C918 1.363 . S
C920 C921 1.370 . S
C920 C924 1.524 . S
C921 C913 1.503 . S
C921 C920 1.370 . S
C921 C922 1.403 . S
C922 C921 1.403 . S
C922 C923 1.404 . S
C922 C925 1.539 . S
C923 C919 1.408 . S
C923 C922 1.404 . S
C923 H935 0.930 . S
C924 C920 1.524 . S
C924 H936 0.956 . S
C924 H937 0.961 . S
C924 H938 0.961 . S
C925 C922 1.539 . S
C925 H939 0.958 . S
C925 H940 0.961 . S
C925 H941 0.960 . S
H926 C910 0.931 . S
H927 C915 0.929 . S
H928 C916 0.960 . S
H929 C916 0.962 . S
H930 C916 0.960 . S
H931 C917 0.961 . S
H932 C917 0.961 . S
H933 C917 0.961 . S
H934 C918 0.931 . S
H935 C923 0.930 . S
H936 C924 0.956 . S
H937 C924 0.961 . S
H938 C924 0.961 . S
H939 C925 0.958 . S
H940 C925 0.961 . S
H941 C925 0.960 . S
C942 C943 1.391 . S
C942 C944 1.394 . S
C942 H958 0.931 1_545 S
C943 C942 1.391 . S
C943 C947 1.376 . S
C944 C942 1.394 . S
C944 C945 1.369 . S
C944 C948 1.531 . S
C945 C944 1.369 . S
C945 C946 1.410 . S
C945 C953 1.503 . S
C946 C945 1.410 . S
C946 C947 1.392 . S
C946 C949 1.511 . S
C947 C943 1.376 . S
C947 C946 1.392 . S
C947 H959 0.929 . S
C948 C944 1.531 . S
C948 H960 0.960 . S
C948 H961 0.962 . S
C948 H962 0.960 1_545 S
C949 C946 1.511 . S
C949 H963 0.961 . S
C949 H964 0.961 . S
C949 H965 0.961 . S
C950 C951 1.370 . S
C950 C952 1.363 . S
C950 H966 0.931 . S
C951 C950 1.370 . S
C951 C955 1.408 . S
C952 C950 1.363 . S
C952 C953 1.370 . S
C952 C956 1.524 . S
C953 C945 1.503 . S
C953 C952 1.370 . S
C953 C954 1.403 . S
C954 C953 1.403 . S
C954 C955 1.404 . S
C954 C957 1.539 . S
C955 C951 1.408 . S
C955 C954 1.404 . S
C955 H967 0.930 . S
C956 C952 1.524 . S
C956 H968 0.956 . S
C956 H969 0.961 . S
C956 H970 0.961 . S
C957 C954 1.539 . S
C957 H971 0.958 1_545 S
C957 H972 0.961 . S
C957 H973 0.960 . S
H958 C942 0.931 1_565 S
H959 C947 0.929 . S
H960 C948 0.960 . S
H961 C948 0.962 . S
H962 C948 0.960 1_565 S
H963 C949 0.961 . S
H964 C949 0.961 . S
H965 C949 0.961 . S
H966 C950 0.931 . S
H967 C955 0.930 . S
H968 C956 0.956 . S
H969 C956 0.961 . S
H970 C956 0.961 . S
H971 C957 0.958 1_565 S
H972 C957 0.961 . S
H973 C957 0.960 . S
C974 C975 1.391 . S
C974 C976 1.394 . S
C974 H990 0.931 . S
C975 C974 1.391 . S
C975 C979 1.376 . S
C976 C974 1.394 . S
C976 C977 1.369 . S
C976 C980 1.531 . S
C977 C976 1.369 . S
C977 C978 1.410 . S
C977 C985 1.503 . S
C978 C977 1.410 . S
C978 C979 1.392 . S
C978 C981 1.511 1_655 S
C979 C975 1.376 . S
C979 C978 1.392 . S
C979 H991 0.929 1_655 S
C980 C976 1.531 . S
C980 H992 0.960 . S
C980 H993 0.962 . S
C980 H994 0.960 . S
C981 C978 1.511 1_455 S
C981 H995 0.961 . S
C981 H996 0.961 1_455 S
C981 H997 0.961 . S
C982 C983 1.370 . S
C982 C984 1.363 . S
C982 H998 0.931 . S
C983 C982 1.370 . S
C983 C987 1.408 . S
C984 C982 1.363 . S
C984 C985 1.370 . S
C984 C988 1.524 . S
C985 C977 1.503 . S
C985 C984 1.370 . S
C985 C986 1.403 . S
C986 C985 1.403 . S
C986 C987 1.404 . S
C986 C989 1.539 1_655 S
C987 C983 1.408 . S
C987 C986 1.404 . S
C987 H999 0.930 . S
C988 C984 1.524 . S
C988 H1000 0.956 . S
C988 H1001 0.961 . S
C988 H1002 0.961 . S
C989 C986 1.539 1_455 S
C989 H1003 0.958 . S
C989 H1004 0.961 . S
C989 H1005 0.960 . S
H990 C974 0.931 . S
H991 C979 0.929 1_455 S
H992 C980 0.960 . S
H993 C980 0.962 . S
H994 C980 0.960 . S
H995 C981 0.961 . S
H996 C981 0.961 1_655 S
H997 C981 0.961 . S
H998 C982 0.931 . S
H999 C987 0.930 . S
H1000 C988 0.956 . S
H1001 C988 0.961 . S
H1002 C988 0.961 . S
H1003 C989 0.958 . S
H1004 C989 0.961 . S
H1005 C989 0.960 . S
C1006 C1007 1.391 . S
C1006 C1008 1.394 . S
C1006 H1022 0.931 . S
C1007 C1006 1.391 . S
C1007 C1011 1.376 . S
C1008 C1006 1.394 . S
C1008 C1009 1.369 . S
C1008 C1012 1.531 . S
C1009 C1008 1.369 . S
C1009 C1010 1.410 . S
C1009 C1017 1.503 . S
C1010 C1009 1.410 . S
C1010 C1011 1.392 . S
C1010 C1013 1.511 . S
C1011 C1007 1.376 . S
C1011 C1010 1.392 . S
C1011 H1023 0.929 . S
C1012 C1008 1.531 . S
C1012 H1024 0.960 . S
C1012 H1025 0.962 . S
C1012 H1026 0.960 . S
C1013 C1010 1.511 . S
C1013 H1027 0.961 . S
C1013 H1028 0.961 . S
C1013 H1029 0.961 . S
C1014 C1015 1.370 . S
C1014 C1016 1.363 . S
C1014 H1030 0.931 . S
C1015 C1014 1.370 . S
C1015 C1019 1.408 . S
C1016 C1014 1.363 . S
C1016 C1017 1.370 . S
C1016 C1020 1.524 . S
C1017 C1009 1.503 . S
C1017 C1016 1.370 . S
C1017 C1018 1.403 . S
C1018 C1017 1.403 . S
C1018 C1019 1.404 . S
C1018 C1021 1.539 . S
C1019 C1015 1.408 . S
C1019 C1018 1.404 . S
C1019 H1031 0.930 . S
C1020 C1016 1.524 . S
C1020 H1032 0.956 . S
C1020 H1033 0.961 . S
C1020 H1034 0.961 . S
C1021 C1018 1.539 . S
C1021 H1035 0.958 . S
C1021 H1036 0.961 . S
C1021 H1037 0.960 . S
H1022 C1006 0.931 . S
H1023 C1011 0.929 . S
H1024 C1012 0.960 . S
H1025 C1012 0.962 . S
H1026 C1012 0.960 . S
H1027 C1013 0.961 . S
H1028 C1013 0.961 . S
H1029 C1013 0.961 . S
H1030 C1014 0.931 . S
H1031 C1019 0.930 . S
H1032 C1020 0.956 . S
H1033 C1020 0.961 . S
H1034 C1020 0.961 . S
H1035 C1021 0.958 . S
H1036 C1021 0.961 . S
H1037 C1021 0.960 . S
C1038 C1039 1.391 . S
C1038 C1040 1.394 . S
C1038 H1054 0.931 . S
C1039 C1038 1.391 . S
C1039 C1043 1.376 . S
C1040 C1038 1.394 . S
C1040 C1041 1.369 . S
C1040 C1044 1.531 . S
C1041 C1040 1.369 . S
C1041 C1042 1.410 . S
C1041 C1049 1.503 . S
C1042 C1041 1.410 . S
C1042 C1043 1.392 . S
C1042 C1045 1.511 . S
C1043 C1039 1.376 . S
C1043 C1042 1.392 . S
C1043 H1055 0.929 . S
C1044 C1040 1.531 . S
C1044 H1056 0.960 . S
C1044 H1057 0.962 . S
C1044 H1058 0.960 . S
C1045 C1042 1.511 . S
C1045 H1059 0.961 . S
C1045 H1060 0.961 . S
C1045 H1061 0.961 . S
C1046 C1047 1.370 . S
C1046 C1048 1.363 . S
C1046 H1062 0.931 . S
C1047 C1046 1.370 . S
C1047 C1051 1.408 . S
C1048 C1046 1.363 . S
C1048 C1049 1.370 . S
C1048 C1052 1.524 . S
C1049 C1041 1.503 . S
C1049 C1048 1.370 . S
C1049 C1050 1.403 . S
C1050 C1049 1.403 . S
C1050 C1051 1.404 . S
C1050 C1053 1.539 . S
C1051 C1047 1.408 . S
C1051 C1050 1.404 . S
C1051 H1063 0.930 . S
C1052 C1048 1.524 . S
C1052 H1064 0.956 . S
C1052 H1065 0.961 . S
C1052 H1066 0.961 . S
C1053 C1050 1.539 . S
C1053 H1067 0.958 . S
C1053 H1068 0.961 . S
C1053 H1069 0.960 . S
H1054 C1038 0.931 . S
H1055 C1043 0.929 . S
H1056 C1044 0.960 . S
H1057 C1044 0.962 . S
H1058 C1044 0.960 . S
H1059 C1045 0.961 . S
H1060 C1045 0.961 . S
H1061 C1045 0.961 . S
H1062 C1046 0.931 . S
H1063 C1051 0.930 . S
H1064 C1052 0.956 . S
H1065 C1052 0.961 . S
H1066 C1052 0.961 . S
H1067 C1053 0.958 . S
H1068 C1053 0.961 . S
H1069 C1053 0.960 . S
C1070 C1071 1.391 . S
C1070 C1072 1.394 . S
C1070 H1086 0.931 . S
C1071 C1070 1.391 . S
C1071 C1075 1.376 . S
C1072 C1070 1.394 . S
C1072 C1073 1.369 . S
C1072 C1076 1.531 . S
C1073 C1072 1.369 . S
C1073 C1074 1.410 . S
C1073 C1081 1.503 1_565 S
C1074 C1073 1.410 . S
C1074 C1075 1.392 . S
C1074 C1077 1.511 1_565 S
C1075 C1071 1.376 . S
C1075 C1074 1.392 . S
C1075 H1087 0.929 . S
C1076 C1072 1.531 . S
C1076 H1088 0.960 . S
C1076 H1089 0.962 . S
C1076 H1090 0.960 . S
C1077 C1074 1.511 1_545 S
C1077 H1091 0.961 . S
C1077 H1092 0.961 . S
C1077 H1093 0.961 1_545 S
C1078 C1079 1.370 . S
C1078 C1080 1.363 . S
C1078 H1094 0.931 . S
C1079 C1078 1.370 . S
C1079 C1083 1.408 . S
C1080 C1078 1.363 . S
C1080 C1081 1.370 . S
C1080 C1084 1.524 . S
C1081 C1073 1.503 1_545 S
C1081 C1080 1.370 . S
C1081 C1082 1.403 . S
C1082 C1081 1.403 . S
C1082 C1083 1.404 . S
C1082 C1085 1.539 1_545 S
C1083 C1079 1.408 . S
C1083 C1082 1.404 . S
C1083 H1095 0.930 . S
C1084 C1080 1.524 . S
C1084 H1096 0.956 . S
C1084 H1097 0.961 . S
C1084 H1098 0.961 . S
C1085 C1082 1.539 1_565 S
C1085 H1099 0.958 . S
C1085 H1100 0.961 . S
C1085 H1101 0.960 . S
H1086 C1070 0.931 . S
H1087 C1075 0.929 . S
H1088 C1076 0.960 . S
H1089 C1076 0.962 . S
H1090 C1076 0.960 . S
H1091 C1077 0.961 . S
H1092 C1077 0.961 . S
H1093 C1077 0.961 1_565 S
H1094 C1078 0.931 . S
H1095 C1083 0.930 . S
H1096 C1084 0.956 . S
H1097 C1084 0.961 . S
H1098 C1084 0.961 . S
H1099 C1085 0.958 . S
H1100 C1085 0.961 . S
H1101 C1085 0.960 . S
C1102 C1103 1.391 . S
C1102 C1104 1.394 . S
C1102 H1118 0.931 . S
C1103 C1102 1.391 . S
C1103 C1107 1.376 . S
C1104 C1102 1.394 . S
C1104 C1105 1.369 . S
C1104 C1108 1.531 1_655 S
C1105 C1104 1.369 . S
C1105 C1106 1.410 . S
C1105 C1113 1.503 1_655 S
C1106 C1105 1.410 . S
C1106 C1107 1.392 . S
C1106 C1109 1.518 . S
C1107 C1103 1.376 . S
C1107 C1106 1.392 . S
C1107 H1119 0.929 . S
C1108 C1104 1.531 1_455 S
C1108 H1120 0.960 . S
C1108 H1121 0.962 1_455 S
C1108 H1122 0.960 . S
C1109 C1106 1.518 . S
C1109 H1123 0.963 . S
C1109 H1124 0.961 1_655 S
C1109 H1125 0.951 1_655 S
C1110 C1111 1.370 . S
C1110 C1112 1.363 . S
C1110 H1126 0.931 . S
C1111 C1110 1.370 . S
C1111 C1115 1.408 . S
C1112 C1110 1.363 . S
C1112 C1113 1.370 . S
C1112 C1116 1.524 1_455 S
C1113 C1105 1.503 1_455 S
C1113 C1112 1.370 . S
C1113 C1114 1.403 . S
C1114 C1113 1.403 . S
C1114 C1115 1.404 . S
C1114 C1117 1.539 . S
C1115 C1111 1.408 . S
C1115 C1114 1.404 . S
C1115 H1127 0.930 . S
C1116 C1112 1.524 1_655 S
C1116 H1128 0.956 . S
C1116 H1129 0.961 . S
C1116 H1130 0.961 . S
C1117 C1114 1.539 . S
C1117 H1131 0.958 . S
C1117 H1132 0.961 . S
C1117 H1133 0.960 . S
H1118 C1102 0.931 . S
H1119 C1107 0.929 . S
H1120 C1108 0.960 . S
H1121 C1108 0.962 1_655 S
H1122 C1108 0.960 . S
H1123 C1109 0.963 . S
H1124 C1109 0.961 1_455 S
H1125 C1109 0.951 1_455 S
H1126 C1110 0.931 . S
H1127 C1115 0.930 . S
H1128 C1116 0.956 . S
H1129 C1116 0.961 . S
H1130 C1116 0.961 . S
H1131 C1117 0.958 . S
H1132 C1117 0.961 . S
H1133 C1117 0.960 . S
C271 C57 1.772 . S
C279 C16 1.726 . S
C303 N66 0.330 . S
C311 N44 0.406 . S
C335 C76 1.174 1_556 S
C343 N6 1.125 . S
C367 N74 0.502 . S
C375 N36 0.565 . S
C399 C87 0.962 . S
C407 N14 0.926 . S
C431 C27 1.981 . S
C439 C46 1.947 . S
C463 C106 0.537 . S
C471 N126 0.403 . S
C495 N156 1.389 . S
C503 C136 1.353 1_545 S
C527 C166 1.216 1_655 S
C535 N96 1.211 1_545 S
C559 C147 1.860 . S
C567 N164 1.802 . S
C591 C177 0.849 . S
C599 N104 0.826 . S
C623 N134 0.952 . S
C631 C117 0.890 . S
C655 C237 1.789 . S
C663 C196 1.756 . S
C687 N224 0.291 . S
C695 N246 0.442 . S
C719 C256 1.118 . S
C727 N186 1.137 . S
C751 N254 0.544 . S
C759 N216 0.560 . S
C783 C267 0.917 . S
C791 N194 0.944 . S
C815 C207 1.979 . S
C823 C226 1.916 1_455 S
C847 C151 2.036 . S
C855 C10 2.141 . S
C879 C91 2.165 . S
C887 C31 2.169 . S
C911 C70 1.937 . S
C919 C121 1.898 . S
C943 C61 2.030 . S
C951 C190 2.120 . S
C975 C1 2.199 . S
C983 C211 2.184 . S
C1007 C250 1.948 . S
C1015 C40 1.938 . S
C1039 C100 2.111 . S
C1047 C241 2.032 . S
C1071 C130 2.281 . S
C1079 C181 2.169 . S
C1103 C220 1.945 . S
C1111 C160 1.976 . S
