# Generated by pormake.
# Topology ukt, (4)-cn, num edge types: 1
# Building blocks:
#     Node 0, Type 0, BuildingBlock: NAHDIM_clean_sbu_0, # of connection points: 4
#     Node 1, Type 0, BuildingBlock: NAHDIM_clean_sbu_0, # of connection points: 4
#     Node 2, Type 0, BuildingBlock: NAHDIM_clean_sbu_0, # of connection points: 4
#     Node 3, Type 0, BuildingBlock: NAHDIM_clean_sbu_0, # of connection points: 4
#     Node 4, Type 0, BuildingBlock: NAHDIM_clean_sbu_0, # of connection points: 4
#     Node 5, Type 0, BuildingBlock: NAHDIM_clean_sbu_0, # of connection points: 4
#     Node 6, Type 0, BuildingBlock: NAHDIM_clean_sbu_0, # of connection points: 4
#     Node 7, Type 0, BuildingBlock: NAHDIM_clean_sbu_0, # of connection points: 4
#     Node 8, Type 0, BuildingBlock: NAHDIM_clean_sbu_0, # of connection points: 4
#     Node 9, Type 0, BuildingBlock: NAHDIM_clean_sbu_0, # of connection points: 4
#     Node 10, Type 0, BuildingBlock: NAHDIM_clean_sbu_0, # of connection points: 4
#     Node 11, Type 0, BuildingBlock: NAHDIM_clean_sbu_0, # of connection points: 4
#     Node 12, Type 0, BuildingBlock: NAHDIM_clean_sbu_0, # of connection points: 4
#     Node 13, Type 0, BuildingBlock: NAHDIM_clean_sbu_0, # of connection points: 4
#     Node 14, Type 0, BuildingBlock: NAHDIM_clean_sbu_0, # of connection points: 4
#     Node 15, Type 0, BuildingBlock: NAHDIM_clean_sbu_0, # of connection points: 4
#     Edge 16, Type (0, 0), BuildingBlock: XUDNAN_clean_linker_2, # of connection points: 2
#     Edge 17, Type (0, 0), BuildingBlock: XUDNAN_clean_linker_2, # of connection points: 2
#     Edge 18, Type (0, 0), BuildingBlock: XUDNAN_clean_linker_2, # of connection points: 2
#     Edge 19, Type (0, 0), BuildingBlock: XUDNAN_clean_linker_2, # of connection points: 2
#     Edge 20, Type (0, 0), BuildingBlock: XUDNAN_clean_linker_2, # of connection points: 2
#     Edge 21, Type (0, 0), BuildingBlock: XUDNAN_clean_linker_2, # of connection points: 2
#     Edge 22, Type (0, 0), BuildingBlock: XUDNAN_clean_linker_2, # of connection points: 2
#     Edge 23, Type (0, 0), BuildingBlock: XUDNAN_clean_linker_2, # of connection points: 2
#     Edge 24, Type (0, 0), BuildingBlock: XUDNAN_clean_linker_2, # of connection points: 2
#     Edge 25, Type (0, 0), BuildingBlock: XUDNAN_clean_linker_2, # of connection points: 2
#     Edge 26, Type (0, 0), BuildingBlock: XUDNAN_clean_linker_2, # of connection points: 2
#     Edge 27, Type (0, 0), BuildingBlock: XUDNAN_clean_linker_2, # of connection points: 2
#     Edge 28, Type (0, 0), BuildingBlock: XUDNAN_clean_linker_2, # of connection points: 2
#     Edge 29, Type (0, 0), BuildingBlock: XUDNAN_clean_linker_2, # of connection points: 2
#     Edge 30, Type (0, 0), BuildingBlock: XUDNAN_clean_linker_2, # of connection points: 2
#     Edge 31, Type (0, 0), BuildingBlock: XUDNAN_clean_linker_2, # of connection points: 2
#     Edge 32, Type (0, 0), BuildingBlock: XUDNAN_clean_linker_2, # of connection points: 2
#     Edge 33, Type (0, 0), BuildingBlock: XUDNAN_clean_linker_2, # of connection points: 2
#     Edge 34, Type (0, 0), BuildingBlock: XUDNAN_clean_linker_2, # of connection points: 2
#     Edge 35, Type (0, 0), BuildingBlock: XUDNAN_clean_linker_2, # of connection points: 2
#     Edge 36, Type (0, 0), BuildingBlock: XUDNAN_clean_linker_2, # of connection points: 2
#     Edge 37, Type (0, 0), BuildingBlock: XUDNAN_clean_linker_2, # of connection points: 2
#     Edge 38, Type (0, 0), BuildingBlock: XUDNAN_clean_linker_2, # of connection points: 2
#     Edge 39, Type (0, 0), BuildingBlock: XUDNAN_clean_linker_2, # of connection points: 2
#     Edge 40, Type (0, 0), BuildingBlock: XUDNAN_clean_linker_2, # of connection points: 2
#     Edge 41, Type (0, 0), BuildingBlock: XUDNAN_clean_linker_2, # of connection points: 2
#     Edge 42, Type (0, 0), BuildingBlock: XUDNAN_clean_linker_2, # of connection points: 2
#     Edge 43, Type (0, 0), BuildingBlock: XUDNAN_clean_linker_2, # of connection points: 2
#     Edge 44, Type (0, 0), BuildingBlock: XUDNAN_clean_linker_2, # of connection points: 2
#     Edge 45, Type (0, 0), BuildingBlock: XUDNAN_clean_linker_2, # of connection points: 2
#     Edge 46, Type (0, 0), BuildingBlock: XUDNAN_clean_linker_2, # of connection points: 2
#     Edge 47, Type (0, 0), BuildingBlock: XUDNAN_clean_linker_2, # of connection points: 2
# Relax obj value: 0.319
# Max RMSD: 0.219
# Mean RMSD: 0.219
data_MOF--net-ukt--node1-NAHDIM_clean_sbu_0--edge1-XUDNAN_clean_linker_2
_symmetry_space_group_name_H-M    P1
_symmetry_Int_Tables_number       1
_symmetry_cell_setting            triclinic
loop_
_symmetry_equiv_pos_as_xyz
'x, y, z'
_cell_length_a     42.597638
_cell_length_b     42.504872
_cell_length_c     35.198187
_cell_angle_alpha  90.121643
_cell_angle_beta   90.112474
_cell_angle_gamma 90.091975
loop_
_atom_site_label
_atom_site_type_symbol
_atom_site_fract_x
_atom_site_fract_y
_atom_site_fract_z
_atom_type_partial_charge
C0 C 0.50933 0.09639 0.02166 0.0
O1 O 0.52648 0.09038 0.05186 0.0
O2 O 0.53495 0.16933 0.08019 0.0
Zn3 Zn 0.54349 0.15293 0.02748 0.0
O4 O 0.58433 0.1286 0.02592 0.0
C5 C 0.53369 0.21566 -8e-05 0.0
O6 O 0.51444 0.21698 0.02899 0.0
O7 O 0.50988 0.12399 0.00792 0.0
C8 C 0.58792 0.10922 -0.00133 0.0
O9 O 0.566 0.10681 0.97254 0.0
C10 C 0.50862 0.16814 0.09707 0.0
O11 O 0.48506 0.15316 0.08106 0.0
O12 O 0.54798 0.19011 0.9928 0.0
C13 C 0.40857 0.52397 0.0575 0.0
O14 O 0.40241 0.53787 0.08997 0.0
O15 O 0.32452 0.5294 0.09197 0.0
Zn16 Zn 0.34796 0.54564 0.04609 0.0
O17 O 0.36513 0.58891 0.05529 0.0
C18 C 0.29142 0.53887 0.0004 0.0
O19 O 0.2817 0.52151 0.02891 0.0
O20 O 0.3865 0.5207 0.03344 0.0
C21 C 0.35196 0.61309 0.06918 0.0
O22 O 0.32278 0.61138 0.08103 0.0
C23 C 0.32949 0.54006 0.12522 0.0
O24 O 0.35157 0.56123 0.13045 0.0
O25 O 0.31916 0.54986 0.00105 0.0
C26 C 0.98564 0.41465 0.09995 0.0
O27 O 0.96948 0.41015 0.13124 0.0
O28 O 0.97973 0.32535 0.12627 0.0
Zn29 Zn 0.9625 0.35372 0.08565 0.0
O30 O 0.91957 0.36942 0.09908 0.0
C31 C 0.96586 0.3018 0.03213 0.0
O32 O 0.98362 0.28886 0.05832 0.0
O33 O 0.98847 0.39206 0.07653 0.0
C34 C 0.89573 0.35188 0.09438 0.0
O35 O 0.8999 0.32232 0.08467 0.0
C36 C 0.9678 0.3251 0.15929 0.0
O37 O 0.94549 0.34528 0.16755 0.0
O38 O 0.95616 0.32973 0.03696 0.0
C39 C 0.08978 0.97646 0.09483 0.0
O40 O 0.08339 0.94783 0.10649 0.0
O41 O 0.17316 0.97094 0.16473 0.0
Zn42 Zn 0.15342 0.95906 0.1144 0.0
O43 O 0.13946 0.91398 0.11426 0.0
C44 C 0.21462 0.9684 0.07896 0.0
O45 O 0.22354 0.97784 0.11287 0.0
O46 O 0.11769 0.98688 0.09796 0.0
C47 C 0.159 0.89212 0.1209 0.0
O48 O 0.18783 0.89945 0.13093 0.0
C49 C 0.16793 0.95559 0.19502 0.0
O50 O 0.14666 0.93318 0.19468 0.0
O51 O 0.18616 0.9607 0.07347 0.0
C52 C 0.49653 0.39385 0.41598 0.0
O53 O 0.51735 0.40443 0.39165 0.0
O54 O 0.50287 0.31243 0.34586 0.0
Zn55 Zn 0.52098 0.33413 0.39222 0.0
O56 O 0.56146 0.35689 0.38139 0.0
C57 C 0.52107 0.29691 0.46284 0.0
O58 O 0.49653 0.31343 0.47334 0.0
O59 O 0.49191 0.36437 0.41842 0.0
C60 C 0.58711 0.34167 0.38191 0.0
O61 O 0.58626 0.31088 0.38491 0.0
C62 C 0.51791 0.31235 0.31468 0.0
O63 O 0.54385 0.3289 0.31203 0.0
O64 O 0.53308 0.30126 0.43026 0.0
C65 C 0.0768 0.53057 0.38239 0.0
O66 O 0.08115 0.54769 0.35181 0.0
O67 O 0.16492 0.53196 0.35165 0.0
Zn68 Zn 0.13935 0.54956 0.39462 0.0
O69 O 0.12512 0.59351 0.38242 0.0
C70 C 0.18814 0.53724 0.45262 0.0
O71 O 0.1985 0.51489 0.43008 0.0
O72 O 0.09996 0.5254 0.40429 0.0
C73 C 0.13933 0.61743 0.39572 0.0
O74 O 0.16584 0.61349 0.41422 0.0
C75 C 0.19155 0.54442 0.34553 0.0
O76 O 0.20118 0.56731 0.36785 0.0
O77 O 0.16396 0.55279 0.44319 0.0
C78 C 0.95339 0.08046 0.41131 0.0
O79 O 0.93524 0.08332 0.38128 0.0
O80 O 0.94227 0.1619 0.36959 0.0
Zn81 Zn 0.93174 0.14156 0.41921 0.0
O82 O 0.88804 0.12426 0.41784 0.0
C83 C 0.95016 0.19922 0.45532 0.0
O84 O 0.96931 0.20054 0.42617 0.0
O85 O 0.95858 0.10458 0.43179 0.0
C86 C 0.86531 0.13241 0.3967 0.0
O87 O 0.86901 0.15545 0.37229 0.0
C88 C 0.96747 0.15873 0.35076 0.0
O89 O 0.98879 0.1385 0.36207 0.0
O90 O 0.93308 0.17496 0.45973 0.0
C91 C 0.39696 0.97235 0.49026 0.0
O92 O 0.40386 0.95842 0.45797 0.0
O93 O 0.3254 0.9454 0.43235 0.0
Zn94 Zn 0.34404 0.93237 0.48269 0.0
O95 O 0.37104 0.89334 0.47793 0.0
C96 C 0.29194 0.94228 0.53436 0.0
O97 O 0.29856 0.97223 0.52979 0.0
O98 O 0.37049 0.96682 0.50542 0.0
C99 C 0.39285 0.88959 0.50227 0.0
O100 O 0.39678 0.91064 0.52921 0.0
C101 C 0.30148 0.93041 0.42038 0.0
O102 O 0.29099 0.90647 0.44027 0.0
O103 O 0.30868 0.92173 0.51783 0.0
C104 C 0.46445 0.89759 0.89284 0.0
O105 O 0.44228 0.89262 0.86751 0.0
O106 O 0.43924 0.80857 0.87954 0.0
Zn107 Zn 0.43869 0.84176 0.92065 0.0
O108 O 0.39715 0.864 0.92231 0.0
C109 C 0.45797 0.79547 0.97611 0.0
O110 O 0.47731 0.78641 0.9492 0.0
O111 O 0.47096 0.87576 0.91615 0.0
C112 C 0.39577 0.88472 0.94835 0.0
O113 O 0.42059 0.88946 0.96987 0.0
C114 C 0.42092 0.78551 0.88597 0.0
O115 O 0.40294 0.7864 0.91625 0.0
O116 O 0.44166 0.82005 0.97104 0.0
C117 C 0.61134 0.50104 0.93093 0.0
O118 O 0.60688 0.48636 0.89846 0.0
O119 O 0.68852 0.48039 0.87786 0.0
Zn120 Zn 0.66796 0.46723 0.92665 0.0
O121 O 0.64249 0.4279 0.9177 0.0
C122 C 0.70884 0.42986 0.97329 0.0
O123 O 0.69615 0.40692 0.95347 0.0
O124 O 0.63807 0.49926 0.9468 0.0
C125 C 0.62308 0.41932 0.94302 0.0
O126 O 0.61999 0.43652 0.97385 0.0
C127 C 0.70018 0.45811 0.85837 0.0
O128 O 0.69809 0.42922 0.87132 0.0
O129 O 0.70072 0.45808 0.96652 0.0
C130 C 0.0271 0.60999 0.96264 0.0
O131 O 0.03981 0.60281 0.92977 0.0
O132 O 0.0301 0.68628 0.89836 0.0
Zn133 Zn 0.05335 0.66842 0.9431 0.0
O134 O 0.09147 0.64396 0.9274 0.0
C135 C 0.08803 0.69636 0.00305 0.0
O136 O 0.098 0.66722 0.00596 0.0
O137 O 0.02746 0.63845 0.97366 0.0
C138 C 0.11387 0.65204 0.90578 0.0
O139 O 0.11308 0.67956 0.88889 0.0
C140 C 0.03059 0.67313 0.86593 0.0
O141 O 0.04571 0.64645 0.86172 0.0
O142 O 0.06795 0.70309 0.97759 0.0
C143 C 0.91834 0.04992 0.93089 0.0
O144 O 0.91922 0.07202 0.90492 0.0
O145 O 0.84324 0.05005 0.86391 0.0
Zn146 Zn 0.85474 0.06168 0.91779 0.0
O147 O 0.86769 0.10691 0.92071 0.0
C148 C 0.79718 0.03411 0.94338 0.0
O149 O 0.80541 0.01204 0.91919 0.0
O150 O 0.89188 0.03812 0.93984 0.0
C151 C 0.85876 0.13126 0.90292 0.0
O152 O 0.83593 0.12924 0.8779 0.0
C153 C 0.85749 0.05958 0.83442 0.0
O154 O 0.88315 0.07647 0.8382 0.0
O155 O 0.81577 0.05701 0.94929 0.0
C156 C 0.44438 0.56313 0.5944 0.0
O157 O 0.4229 0.56286 0.6211 0.0
O158 O 0.43491 0.64109 0.65163 0.0
Zn159 Zn 0.42764 0.62667 0.59766 0.0
O160 O 0.38323 0.61261 0.59007 0.0
C161 C 0.45886 0.68083 0.56654 0.0
O162 O 0.48111 0.6725 0.59038 0.0
O163 O 0.45348 0.58948 0.58133 0.0
C164 C 0.35823 0.62589 0.60125 0.0
O165 O 0.35997 0.65214 0.62091 0.0
C166 C 0.41984 0.63046 0.67997 0.0
O167 O 0.40001 0.60712 0.67497 0.0
O168 O 0.43446 0.66379 0.56366 0.0
C169 C 0.88384 0.48675 0.52305 0.0
O170 O 0.89106 0.47213 0.55474 0.0
O171 O 0.81092 0.47041 0.5858 0.0
Zn172 Zn 0.82665 0.4546 0.53555 0.0
O173 O 0.85045 0.41404 0.5433 0.0
C174 C 0.78087 0.41905 0.49268 0.0
O175 O 0.79559 0.39502 0.50786 0.0
O176 O 0.85593 0.4849 0.51055 0.0
C177 C 0.86888 0.40442 0.51742 0.0
O178 O 0.8721 0.42122 0.48638 0.0
C179 C 0.79839 0.44975 0.60695 0.0
O180 O 0.79695 0.42053 0.59481 0.0
O181 O 0.78989 0.44682 0.50063 0.0
C182 C 0.00244 0.89161 0.55833 0.0
O183 O 0.01882 0.8998 0.58844 0.0
O184 O 0.00951 0.81034 0.61934 0.0
Zn185 Zn 0.02949 0.83181 0.57451 0.0
O186 O 0.06796 0.8552 0.59174 0.0
C187 C 0.02934 0.79429 0.50466 0.0
O188 O 0.00232 0.80789 0.49743 0.0
O189 O 0.00143 0.86284 0.54866 0.0
C190 C 0.09445 0.84163 0.59358 0.0
O191 O 0.09619 0.81133 0.58647 0.0
C192 C 0.0158 0.78158 0.62555 0.0
O193 O 0.0337 0.76635 0.60139 0.0
O194 O 0.04375 0.80062 0.53538 0.0
C195 C 0.59191 0.04155 0.61225 0.0
O196 O 0.59571 0.06347 0.63823 0.0
O197 O 0.68593 0.05506 0.62713 0.0
Zn198 Zn 0.65154 0.06444 0.58888 0.0
O199 O 0.63402 0.10792 0.5966 0.0
C200 C 0.68892 0.04347 0.52428 0.0
O201 O 0.69663 0.01988 0.54647 0.0
O202 O 0.61455 0.03528 0.59003 0.0
C203 C 0.64506 0.13117 0.57836 0.0
O204 O 0.67045 0.12724 0.55778 0.0
C205 C 0.71296 0.06628 0.6197 0.0
O206 O 0.71662 0.0832 0.58885 0.0
O207 O 0.6694 0.06375 0.53608 0.0
H208 H 0.52513 0.2762 0.02344 0.0
H209 H 0.56308 0.22029 0.9311 0.0
H210 H 0.58404 0.26853 0.90139 0.0
H211 H 0.50706 0.34881 0.96701 0.0
H212 H 0.51932 0.37406 0.00549 0.0
H213 H 0.5021 0.33621 0.01551 0.0
H214 H 0.55095 0.32137 0.05563 0.0
H215 H 0.56837 0.35896 0.04559 0.0
H216 H 0.58934 0.32336 0.03428 0.0
H217 H 0.6066 0.32135 0.88628 0.0
H218 H 0.63022 0.3744 0.88777 0.0
H219 H 0.5788 0.3954 0.99112 0.0
C220 C 0.53692 0.27423 0.9963 0.0
C221 C 0.54223 0.2446 0.97932 0.0
C222 C 0.55861 0.24283 0.94443 0.0
C223 C 0.57048 0.2701 0.92728 0.0
C224 C 0.56572 0.29888 0.94541 0.0
C225 C 0.54921 0.30114 0.9791 0.0
C226 C 0.55061 0.33415 0.99521 0.0
C227 C 0.51782 0.3492 0.99582 0.0
C228 C 0.56573 0.33445 0.03501 0.0
C229 C 0.5715 0.3498 0.96612 0.0
C230 C 0.57943 0.32927 0.9372 0.0
C231 C 0.60016 0.3378 0.90843 0.0
C232 C 0.61351 0.36796 0.90956 0.0
C233 C 0.60635 0.38901 0.93957 0.0
C234 C 0.5846 0.37991 0.9677 0.0
H235 H 0.12348 0.59666 0.94285 0.0
H236 H 0.16901 0.66316 0.86742 0.0
H237 H 0.21885 0.63401 0.87448 0.0
H238 H 0.18146 0.59371 0.00752 0.0
H239 H 0.17764 0.55258 0.01907 0.0
H240 H 0.1444 0.5738 0.00116 0.0
H241 H 0.13818 0.53338 0.94649 0.0
H242 H 0.17147 0.51179 0.96435 0.0
H243 H 0.171 0.52518 0.91579 0.0
H244 H 0.26508 0.60365 0.89859 0.0
H245 H 0.30373 0.57584 0.93845 0.0
H246 H 0.22786 0.52967 -0.00121 0.0
C247 C 0.14364 0.60458 0.92678 0.0
C248 C 0.14233 0.63217 0.90448 0.0
C249 C 0.16941 0.642 0.8845 0.0
C250 C 0.19779 0.62549 0.88822 0.0
C251 C 0.19855 0.59909 0.91172 0.0
C252 C 0.17204 0.58855 0.9304 0.0
C253 C 0.17972 0.56232 0.9579 0.0
C254 C 0.17026 0.57116 -0.0012 0.0
C255 C 0.16417 0.53133 0.94536 0.0
C256 C 0.21498 0.56089 0.95341 0.0
C257 C 0.22534 0.58171 0.92597 0.0
C258 C 0.25721 0.58679 0.91952 0.0
C259 C 0.279 0.57093 0.94241 0.0
C260 C 0.26882 0.55051 0.97172 0.0
C261 C 0.23641 0.54472 0.97627 0.0
H262 H 0.91176 0.13993 0.94483 0.0
H263 H 0.84117 0.19085 0.88065 0.0
H264 H 0.86599 0.2412 0.89997 0.0
H265 H 0.91296 0.18881 0.02254 0.0
H266 H 0.95454 0.18557 0.03127 0.0
H267 H 0.93398 0.15408 0.00785 0.0
H268 H 0.97243 0.15746 0.95107 0.0
H269 H 0.99321 0.1891 0.9743 0.0
H270 H 0.97789 0.19445 0.92699 0.0
H271 H 0.89491 0.28563 0.93278 0.0
H272 H 0.92422 0.3201 0.97686 0.0
H273 H 0.97571 0.23921 0.0188 0.0
C274 C 0.9017 0.16161 0.93424 0.0
C275 C 0.87447 0.16151 0.91129 0.0
C276 C 0.8621 0.19041 0.89816 0.0
C277 C 0.8761 0.21906 0.9089 0.0
C278 C 0.90262 0.21825 0.93226 0.0
C279 C 0.91536 0.19018 0.94453 0.0
C280 C 0.94226 0.19541 0.97191 0.0
C281 C 0.9355 0.18008 0.01067 0.0
C282 C 0.97328 0.1834 0.95504 0.0
C283 C 0.94193 0.23089 0.97448 0.0
C284 C 0.91928 0.24372 0.95096 0.0
C285 C 0.91306 0.27588 0.95079 0.0
C286 C 0.92985 0.29528 0.97597 0.0
C287 C 0.95237 0.28237 0.00122 0.0
C288 C 0.95898 0.24988 -0.00044 0.0
H289 H 0.3844 0.92429 0.00775 0.0
H290 H 0.34032 0.88244 0.90847 0.0
H291 H 0.28978 0.90662 0.92673 0.0
H292 H 0.32448 0.9089 0.06957 0.0
H293 H 0.32824 0.94469 0.09678 0.0
H294 H 0.36176 0.92893 0.07244 0.0
H295 H 0.36922 0.98176 0.03691 0.0
H296 H 0.33565 -0.00221 0.06129 0.0
H297 H 0.33703 -0.00196 0.01011 0.0
H298 H 0.24315 0.92952 0.95998 0.0
H299 H 0.20381 0.94768 0.00636 0.0
H300 H 0.27854 0.97388 0.08433 0.0
C301 C 0.36433 0.9208 0.98928 0.0
C302 C 0.36628 0.90158 0.95661 0.0
C303 C 0.33935 0.89718 0.93357 0.0
C304 C 0.31061 0.91095 0.94362 0.0
C305 C 0.30933 0.92915 0.9766 0.0
C306 C 0.33555 0.93418 -0.001 0.0
C307 C 0.32739 0.95178 0.03506 0.0
C308 C 0.33596 0.93241 0.07053 0.0
C309 C 0.34327 0.98428 0.03587 0.0
C310 C 0.29224 0.95469 0.03029 0.0
C311 C 0.28235 0.94207 0.99604 0.0
C312 C 0.25065 0.93993 0.98659 0.0
C313 C 0.22847 0.95025 0.01319 0.0
C314 C 0.2381 0.96225 0.04898 0.0
C315 C 0.27044 0.9652 0.05707 0.0
H316 H 0.5796 0.27186 0.45677 0.0
H317 H 0.49693 0.27193 0.52864 0.0
H318 H 0.52261 0.23354 0.57144 0.0
H319 H 0.59549 0.19184 0.46167 0.0
H320 H 0.63757 0.19638 0.4624 0.0
H321 H 0.61355 0.22571 0.43996 0.0
H322 H 0.63838 0.26876 0.48284 0.0
H323 H 0.66256 0.23946 0.50541 0.0
H324 H 0.63753 0.26431 0.53373 0.0
H325 H 0.55552 0.19108 0.60227 0.0
H326 H 0.59225 0.14806 0.61803 0.0
H327 H 0.65381 0.17826 0.52696 0.0
C328 C 0.5669 0.26401 0.48164 0.0
C329 C 0.5362 0.27469 0.48931 0.0
C330 C 0.52049 0.264 0.52227 0.0
C331 C 0.53493 0.24233 0.54678 0.0
C332 C 0.56521 0.23211 0.53816 0.0
C333 C 0.58104 0.2428 0.50647 0.0
C334 C 0.61268 0.2272 0.50229 0.0
C335 C 0.61492 0.20921 0.46435 0.0
C336 C 0.63937 0.25137 0.50633 0.0
C337 C 0.6118 0.20505 0.53579 0.0
C338 C 0.58441 0.20841 0.55642 0.0
C339 C 0.57728 0.18862 0.58674 0.0
C340 C 0.59828 0.16426 0.59548 0.0
C341 C 0.626 0.15994 0.57389 0.0
C342 C 0.63314 0.18124 0.54445 0.0
H343 H 0.34814 0.5742 0.55678 0.0
H344 H 0.29924 0.64785 0.6184 0.0
H345 H 0.24864 0.62781 0.59357 0.0
H346 H 0.30465 0.57939 0.47473 0.0
H347 H 0.30476 0.53787 0.46421 0.0
H348 H 0.33624 0.55484 0.49148 0.0
H349 H 0.32571 0.51515 0.54579 0.0
H350 H 0.29409 0.49798 0.51862 0.0
H351 H 0.28696 0.51237 0.56603 0.0
H352 H 0.20458 0.60387 0.55603 0.0
H353 H 0.17062 0.57908 0.50769 0.0
H354 H 0.24867 0.52121 0.47053 0.0
C355 C 0.32677 0.58578 0.5658 0.0
C356 C 0.32761 0.61256 0.58965 0.0
C357 C 0.29913 0.62723 0.60028 0.0
C358 C 0.2703 0.61592 0.58645 0.0
C359 C 0.27043 0.58985 0.5623 0.0
C360 C 0.29795 0.5749 0.55221 0.0
C361 C 0.29218 0.5493 0.52305 0.0
C362 C 0.31053 0.55576 0.4862 0.0
C363 C 0.30021 0.51677 0.53936 0.0
C364 C 0.25721 0.55292 0.51718 0.0
C365 C 0.24501 0.57607 0.54053 0.0
C366 C 0.21375 0.58535 0.53808 0.0
C367 C 0.19467 0.57115 0.51046 0.0
C368 C 0.20697 0.54808 0.48545 0.0
C369 C 0.23843 0.53834 0.48964 0.0
H370 H 0.9135 0.37991 0.47033 0.0
H371 H 0.85887 0.35887 0.57111 0.0
H372 H 0.88067 0.30507 0.57185 0.0
H373 H 0.9015 0.30978 0.42469 0.0
H374 H 0.94024 0.30673 0.40451 0.0
H375 H 0.92428 0.34474 0.41556 0.0
H376 H 0.97273 0.35701 0.45785 0.0
H377 H 0.98881 0.31885 0.44688 0.0
H378 H 0.98314 0.33044 0.49567 0.0
H379 H 0.9015 0.25165 0.55556 0.0
H380 H 0.92057 0.20326 0.52419 0.0
H381 H 0.96322 0.25977 0.43566 0.0
C382 C 0.90665 0.36423 0.49307 0.0
C383 C 0.8845 0.37354 0.52065 0.0
C384 C 0.87594 0.35227 0.54978 0.0
C385 C 0.88827 0.32169 0.5505 0.0
C386 C 0.90947 0.31299 0.52227 0.0
C387 C 0.91887 0.33377 0.49434 0.0
C388 C 0.93981 0.31791 0.46541 0.0
C389 C 0.92559 0.3199 0.42519 0.0
C390 C 0.9731 0.33188 0.46654 0.0
C391 C 0.93944 0.28457 0.48034 0.0
C392 C 0.92217 0.28225 0.51344 0.0
C393 C 0.91572 0.25326 0.53019 0.0
C394 C 0.92657 0.22591 0.51215 0.0
C395 C 0.94368 0.22782 0.47779 0.0
C396 C 0.95091 0.25761 0.46242 0.0
H397 H 0.1547 0.82315 0.57958 0.0
H398 H 0.09912 0.90347 0.61495 0.0
H399 H 0.14634 0.93714 0.61218 0.0
H400 H 0.22983 0.84684 0.62748 0.0
H401 H 0.25286 0.83254 0.58819 0.0
H402 H 0.21616 0.81377 0.59985 0.0
H403 H 0.19664 0.82256 0.53088 0.0
H404 H 0.23307 0.8415 0.5191 0.0
H405 H 0.19648 0.86183 0.51159 0.0
H406 H 0.19756 0.96335 0.59675 0.0
H407 H 0.24847 0.97986 0.56974 0.0
H408 H 0.27008 0.88236 0.54391 0.0
C409 C 0.15264 0.84759 0.58797 0.0
C410 C 0.12331 0.86065 0.59774 0.0
C411 C 0.12143 0.89293 0.60756 0.0
C412 C 0.14814 0.91222 0.60619 0.0
C413 C 0.17653 0.89882 0.59515 0.0
C414 C 0.17898 0.86717 0.58646 0.0
C415 C 0.21122 0.85922 0.57132 0.0
C416 C 0.22854 0.83677 0.59833 0.0
C417 C 0.20921 0.84549 0.53083 0.0
C418 C 0.22613 0.89153 0.57144 0.0
C419 C 0.20598 0.914 0.58586 0.0
C420 C 0.21376 0.94588 0.58605 0.0
C421 C 0.2427 0.95505 0.57056 0.0
C422 C 0.2633 0.93241 0.55482 0.0
C423 C 0.25504 0.90023 0.55609 0.0
H424 H 0.47171 0.7329 0.98058 0.0
H425 H 0.41993 0.80724 0.03707 0.0
H426 H 0.39212 0.76765 0.07552 0.0
H427 H 0.41067 0.6852 0.96734 0.0
H428 H 0.43055 0.64833 0.97493 0.0
H429 H 0.4523 0.68201 0.95907 0.0
H430 H 0.49009 0.67727 0.01655 0.0
H431 H 0.46883 0.643 0.03233 0.0
H432 H 0.47435 0.67593 0.06403 0.0
H433 H 0.36198 0.72031 0.09694 0.0
H434 H 0.33511 0.66892 0.10315 0.0
H435 H 0.40704 0.62579 0.03321 0.0
C436 C 0.45563 0.74097 0.00229 0.0
C437 C 0.44808 0.77314 0.00591 0.0
C438 C 0.4262 0.78269 0.03393 0.0
C439 C 0.41028 0.76036 0.05595 0.0
C440 C 0.4168 0.72864 0.04995 0.0
C441 C 0.43944 0.71897 0.02431 0.0
C442 C 0.43917 0.68361 0.01941 0.0
C443 C 0.43277 0.67427 0.97775 0.0
C444 C 0.46994 0.6691 0.03397 0.0
C445 C 0.41189 0.67508 0.04481 0.0
C446 C 0.39949 0.70124 0.0626 0.0
C447 C 0.37201 0.69951 0.08405 0.0
C448 C 0.35679 0.67029 0.08723 0.0
C449 C 0.36909 0.64333 0.06894 0.0
C450 C 0.39732 0.64583 0.04814 0.0
H451 H 0.7345 0.37263 0.98953 0.0
H452 H 0.73872 0.47131 0.02117 0.0
H453 H 0.78234 0.45974 0.06529 0.0
H454 H 0.75687 0.33979 0.08429 0.0
H455 H 0.77979 0.30898 0.0627 0.0
H456 H 0.74557 0.32405 0.03866 0.0
H457 H 0.77935 0.33658 0.97935 0.0
H458 H 0.81348 0.32147 0.00308 0.0
H459 H 0.81377 0.36097 0.98453 0.0
H460 H 0.82975 0.43894 0.09871 0.0
H461 H 0.87842 0.41116 0.11643 0.0
H462 H 0.84285 0.32598 0.06338 0.0
C463 C 0.74407 0.39172 0.00637 0.0
C464 C 0.73317 0.42286 0.00199 0.0
C465 C 0.74667 0.44725 0.02412 0.0
C466 C 0.77131 0.44087 0.04945 0.0
C467 C 0.78192 0.40996 0.05252 0.0
C468 C 0.76864 0.38577 0.03165 0.0
C469 C 0.78644 0.35531 0.03692 0.0
C470 C 0.76594 0.33058 0.05684 0.0
C471 C 0.79901 0.34288 -0.00128 0.0
C472 C 0.81273 0.36647 0.06258 0.0
C473 C 0.80936 0.3979 0.07191 0.0
C474 C 0.83234 0.41418 0.09224 0.0
C475 C 0.85992 0.39821 0.10214 0.0
C476 C 0.86435 0.36637 0.09142 0.0
C477 C 0.83992 0.35012 0.07262 0.0
H478 H 0.06809 0.75735 0.00975 0.0
H479 H 0.13743 0.69151 0.05255 0.0
H480 H 0.16081 0.73373 0.09177 0.0
H481 H 0.11844 0.82226 0.00132 0.0
H482 H 0.0898 0.85092 0.01612 0.0
H483 H 0.07719 0.81497 0.99375 0.0
H484 H 0.04155 0.80276 0.05152 0.0
H485 H 0.05413 0.83873 0.07412 0.0
H486 H 0.05841 0.80173 0.09853 0.0
H487 H 0.17942 0.78422 0.12184 0.0
H488 H 0.19104 0.83894 0.14139 0.0
H489 H 0.10834 0.87095 0.08058 0.0
C490 C 0.08798 0.7517 0.02768 0.0
C491 C 0.10094 0.72115 0.02809 0.0
C492 C 0.12703 0.71474 0.05187 0.0
C493 C 0.14045 0.73854 0.07429 0.0
C494 C 0.12728 0.76849 0.07292 0.0
C495 C 0.10148 0.77507 0.05043 0.0
C496 C 0.09254 0.80944 0.05288 0.0
C497 C 0.09464 0.82532 0.01369 0.0
C498 C 0.05971 0.81338 0.07031 0.0
C499 C 0.11781 0.82134 0.07952 0.0
C500 C 0.13757 0.79738 0.09091 0.0
C501 C 0.16384 0.80311 0.11359 0.0
C502 C 0.17028 0.83423 0.12449 0.0
C503 C 0.15045 0.85911 0.11279 0.0
C504 C 0.12364 0.85237 0.09055 0.0
H505 H 0.64772 0.12394 0.02128 0.0
H506 H 0.59185 0.05067 0.96811 0.0
H507 H 0.63975 0.01932 0.95716 0.0
H508 H 0.70782 0.12149 0.95592 0.0
H509 H 0.73925 0.12902 0.98909 0.0
H510 H 0.70034 0.14298 -0.00081 0.0
H511 H 0.70099 0.11336 0.06348 0.0
H512 H 0.74003 0.09926 0.05353 0.0
H513 H 0.70907 0.07174 0.06424 0.0
H514 H 0.69357 -0.00116 0.94541 0.0
H515 H 0.74959 0.99216 0.92997 0.0
H516 H 0.77098 0.07952 0.9888 0.0
C517 C 0.64559 0.10089 0.00836 0.0
C518 C 0.61622 0.0895 0.99581 0.0
C519 C 0.61424 0.05971 0.97794 0.0
C520 C 0.64126 0.04166 0.97187 0.0
C521 C 0.67005 0.05382 0.98371 0.0
C522 C 0.67244 0.08279 0.00151 0.0
C523 C 0.70646 0.09215 0.00715 0.0
C524 C 0.71389 0.12323 0.9866 0.0
C525 C 0.71461 0.09424 0.04963 0.0
C526 C 0.72275 0.0645 0.9885 0.0
C527 C 0.70135 0.04233 0.97595 0.0
C528 C 0.71062 0.01579 0.95558 0.0
C529 C 0.74252 0.01222 0.94692 0.0
C530 C 0.76471 0.03528 0.9582 0.0
C531 C 0.75467 0.06129 0.98012 0.0
H532 H 0.4143 0.7067 0.52004 0.0
H533 H 0.50437 0.72616 0.57304 0.0
H534 H 0.50091 0.78133 0.55196 0.0
H535 H 0.42307 0.76401 0.43827 0.0
H536 H 0.38206 0.7742 0.44062 0.0
H537 H 0.39463 0.73499 0.45279 0.0
H538 H 0.36749 0.74035 0.51829 0.0
H539 H 0.35508 0.7795 0.50654 0.0
H540 H 0.37788 0.77279 0.54896 0.0
H541 H 0.48308 0.8355 0.53699 0.0
H542 H 0.45315 0.88443 0.52655 0.0
H543 H 0.37534 0.83016 0.48127 0.0
C544 C 0.43381 0.72228 0.52612 0.0
C545 C 0.45963 0.71209 0.54816 0.0
C546 C 0.48442 0.73336 0.55605 0.0
C547 C 0.48271 0.76475 0.54409 0.0
C548 C 0.45629 0.77436 0.52378 0.0
C549 C 0.43248 0.75364 0.51432 0.0
C550 C 0.40505 0.77056 0.49608 0.0
C551 C 0.40097 0.76033 0.45446 0.0
C552 C 0.37461 0.76551 0.51884 0.0
C553 C 0.41638 0.80427 0.49877 0.0
C554 C 0.44621 0.80589 0.5143 0.0
C555 C 0.46012 0.83453 0.52382 0.0
C556 C 0.44291 0.86216 0.51799 0.0
C557 C 0.4122 0.86093 0.50267 0.0
C558 C 0.39914 0.83171 0.49199 0.0
H559 H 0.75582 0.36258 0.47089 0.0
H560 H 0.74345 0.46344 0.45885 0.0
H561 H 0.69544 0.45417 0.42097 0.0
H562 H 0.72524 0.34035 0.37579 0.0
H563 H 0.70642 0.3055 0.39398 0.0
H564 H 0.74188 0.32001 0.41593 0.0
H565 H 0.71369 0.32246 0.48119 0.0
H566 H 0.67849 0.30767 0.45932 0.0
H567 H 0.67754 0.34422 0.48534 0.0
H568 H 0.64576 0.43408 0.39112 0.0
H569 H 0.59794 0.40478 0.37275 0.0
H570 H 0.64358 0.31716 0.40338 0.0
C571 C 0.74336 0.38275 0.45974 0.0
C572 C 0.7534 0.41373 0.46779 0.0
C573 C 0.73624 0.43948 0.45296 0.0
C574 C 0.70902 0.43445 0.43128 0.0
C575 C 0.69951 0.40357 0.42438 0.0
C576 C 0.71626 0.37816 0.43804 0.0
C577 C 0.69982 0.34741 0.42927 0.0
C578 C 0.71952 0.32713 0.40212 0.0
C579 C 0.69191 0.32942 0.46597 0.0
C580 C 0.67056 0.35955 0.40986 0.0
C581 C 0.671 0.39197 0.4068 0.0
C582 C 0.64538 0.40866 0.39271 0.0
C583 C 0.61832 0.39182 0.38239 0.0
C584 C 0.61713 0.35868 0.38637 0.0
C585 C 0.64395 0.34241 0.3993 0.0
H586 H 0.15403 0.66763 0.44067 0.0
H587 H 0.08619 0.63508 0.35722 0.0
H588 H 0.05317 0.68153 0.37044 0.0
H589 H 0.10088 0.68861 0.50723 0.0
H590 H 0.12141 0.72279 0.52483 0.0
H591 H 0.143 0.69124 0.5032 0.0
H592 H 0.16735 0.73 0.45469 0.0
H593 H 0.14615 0.76189 0.47659 0.0
H594 H 0.14201 0.75454 0.42638 0.0
H595 H 0.02403 0.72698 0.39958 0.0
H596 H 0.00163 0.76782 0.44168 0.0
H597 H 0.08807 0.76896 0.5072 0.0
C598 C 0.13283 0.67084 0.4241 0.0
C599 C 0.12279 0.64789 0.39771 0.0
C600 C 0.09444 0.65252 0.37739 0.0
C601 C 0.07555 0.67886 0.38467 0.0
C602 C 0.08545 0.70033 0.41219 0.0
C603 C 0.11361 0.69674 0.43133 0.0
C604 C 0.11721 0.72083 0.46273 0.0
C605 C 0.12082 0.7049 0.50178 0.0
C606 C 0.14482 0.74314 0.45459 0.0
C607 C 0.08613 0.73768 0.45933 0.0
C608 C 0.06835 0.726 0.42959 0.0
C609 C 0.03795 0.73667 0.42254 0.0
C610 C 0.02539 0.75977 0.44667 0.0
C611 C 0.04308 0.7715 0.47773 0.0
C612 C 0.07396 0.76052 0.48365 0.0
H613 H 0.74876 0.02456 0.50999 0.0
H614 H 0.67341 0.08213 0.46529 0.0
H615 H 0.70984 0.10503 0.41839 0.0
H616 H 0.80227 0.08168 0.51174 0.0
H617 H 0.83597 0.05836 0.49901 0.0
H618 H 0.80291 0.04007 0.52154 0.0
H619 H 0.79775 0.00048 0.46578 0.0
H620 H 0.83127 0.01835 0.44318 0.0
H621 H 0.79464 0.01487 0.41777 0.0
H622 H 0.75605 0.12878 0.38522 0.0
H623 H 0.80793 0.15123 0.36903 0.0
H624 H 0.85308 0.07925 0.4371 0.0
C625 C 0.73958 0.04082 0.48911 0.0
C626 C 0.70823 0.05127 0.49086 0.0
C627 C 0.69733 0.07358 0.46409 0.0
C628 C 0.71784 0.08665 0.4373 0.0
C629 C 0.74912 0.0771 0.43762 0.0
C630 C 0.75988 0.05442 0.46263 0.0
C631 C 0.79527 0.05177 0.46144 0.0
C632 C 0.80994 0.05839 0.50074 0.0
C633 C 0.80532 0.01945 0.44611 0.0
C634 C 0.80284 0.0776 0.43343 0.0
C635 C 0.77595 0.09145 0.41924 0.0
C636 C 0.77727 0.11768 0.39549 0.0
C637 C 0.80681 0.13033 0.38652 0.0
C638 C 0.83449 0.11702 0.40185 0.0
C639 C 0.83234 0.08989 0.4248 0.0
H640 H 0.49773 0.91813 0.9548 0.0
H641 H 0.45094 0.95099 0.85262 0.0
H642 H 0.4566 0.0058 0.87495 0.0
H643 H 0.46149 0.96961 0.01721 0.0
H644 H 0.49531 0.97621 0.04705 0.0
H645 H 0.49134 0.93978 0.02132 0.0
H646 H 0.54538 0.9485 0.98909 0.0
H647 H 0.54998 0.9845 0.01563 0.0
H648 H 0.55294 0.98493 0.96457 0.0
H649 H 0.46317 0.0566 0.91118 0.0
H650 H 0.47566 0.10014 0.95531 0.0
H651 H 0.51683 0.03335 0.03412 0.0
C652 C 0.48946 0.93684 0.93652 0.0
C653 C 0.47394 0.93023 0.90189 0.0
C654 C 0.46304 0.95547 0.87918 0.0
C655 C 0.46598 0.98668 0.89172 0.0
C656 C 0.47999 0.99221 0.9269 0.0
C657 C 0.49205 0.96804 0.94867 0.0
C658 C 0.50485 0.98008 0.98609 0.0
C659 C 0.48718 0.96555 0.0199 0.0
C660 C 0.54039 0.97416 0.989 0.0
C661 C 0.49772 0.01475 0.98223 0.0
C662 C 0.48341 0.02132 0.94791 0.0
C663 C 0.47457 0.05177 0.93804 0.0
C664 C 0.48155 0.07631 0.96342 0.0
C665 C 0.49715 0.07017 -0.00177 0.0
C666 C 0.50468 0.03885 0.00792 0.0
H667 H 0.43096 0.50281 0.98881 0.0
H668 H 0.46087 0.53568 0.10012 0.0
H669 H 0.51575 0.53642 0.07835 0.0
H670 H 0.49896 0.45209 0.97202 0.0
H671 H 0.49999 0.46096 0.922 0.0
H672 H 0.46324 0.46181 0.94717 0.0
H673 H 0.45439 0.51908 0.92421 0.0
H674 H 0.4915 0.51866 0.89978 0.0
H675 H 0.48352 0.54869 0.93466 0.0
H676 H 0.56685 0.53645 0.04384 0.0
H677 H 0.61206 0.52867 0.00124 0.0
H678 H 0.54905 0.49552 0.91253 0.0
C679 C 0.44909 0.50965 0.00881 0.0
C680 C 0.44158 0.51928 0.04613 0.0
C681 C 0.46601 0.52818 0.07138 0.0
C682 C 0.49727 0.52889 0.05924 0.0
C683 C 0.50372 0.5204 0.02188 0.0
C684 C 0.48046 0.51037 0.99723 0.0
C685 C 0.49384 0.50224 0.95864 0.0
C686 C 0.48871 0.4672 0.94943 0.0
C687 C 0.47999 0.52344 0.92749 0.0
C688 C 0.52819 0.50951 0.96544 0.0
C689 C 0.53333 0.52016 0.00202 0.0
C690 C 0.56318 0.52801 0.01515 0.0
C691 C 0.58868 0.52369 0.99064 0.0
C692 C 0.58412 0.51149 0.95354 0.0
C693 C 0.55333 0.50513 0.94058 0.0
H694 H 0.03051 0.54661 0.95055 0.0
H695 H 0.00313 0.61626 0.0346 0.0
H696 H 0.99264 0.57372 0.08065 0.0
H697 H 0.97306 0.48819 0.97531 0.0
H698 H -0.00058 0.45579 0.96695 0.0
H699 H 0.00419 0.4919 0.94097 0.0
H700 H 0.06189 0.49551 0.96428 0.0
H701 H 0.05712 0.45967 0.99089 0.0
H702 H 0.0701 0.49505 0.01454 0.0
H703 H 0.98573 0.52343 0.1176 0.0
H704 H 0.97866 0.46911 0.14085 0.0
H705 H 0.01161 0.43307 0.0325 0.0
C706 C 0.02201 0.55299 0.97849 0.0
C707 C 0.01757 0.58475 0.98896 0.0
C708 C 0.00659 0.59205 0.02591 0.0
C709 C 0.00075 0.56809 0.05233 0.0
C710 C 0.00611 0.53705 0.04131 0.0
C711 C 0.01623 0.52947 0.00517 0.0
C712 C 0.01994 0.49434 0.00024 0.0
C713 C -0.00218 0.48183 0.96903 0.0
C714 C 0.0543 0.48565 0.99201 0.0
C715 C 0.01 0.48325 0.03917 0.0
C716 C 0.00235 0.50822 0.06258 0.0
C717 C 0.99172 0.50369 0.09956 0.0
C718 C 0.9879 0.47275 0.11255 0.0
C719 C 0.9946 0.44684 0.08851 0.0
C720 C 0.00649 0.45233 0.0517 0.0
H721 H 0.0287 0.95975 0.07921 0.0
H722 H 0.09777 0.03327 0.05978 0.0
H723 H 0.06096 0.05987 0.01643 0.0
H724 H 0.00042 0.95502 0.98543 0.0
H725 H 0.95987 0.949 -0.00192 0.0
H726 H 0.99055 0.93655 0.02991 0.0
H727 H 0.9666 0.97017 0.08404 0.0
H728 H 0.93557 0.98239 0.05252 0.0
H729 H 0.95945 0.01145 0.0763 0.0
H730 H 0.01915 0.076 0.97136 0.0
H731 H 0.97237 0.08403 0.93163 0.0
H732 H 0.92903 0.00109 0.98106 0.0
C733 C 0.03591 0.98173 0.06636 0.0
C734 C 0.06619 0.9944 0.07289 0.0
C735 C 0.07473 0.02312 0.05533 0.0
C736 C 0.05401 0.03837 0.03055 0.0
C737 C 0.02474 0.02478 0.0239 0.0
C738 C 0.01543 -0.00261 0.04168 0.0
C739 C 0.98282 0.98753 0.02891 0.0
C740 C 0.98348 0.9551 0.00942 0.0
C741 C 0.95975 0.98792 0.06244 0.0
C742 C 0.97551 0.01342 0.00072 0.0
C743 C 0.00013 0.03453 -0.00176 0.0
C744 C -0.00043 0.05983 0.97329 0.0
C745 C 0.97291 0.06402 0.95063 0.0
C746 C 0.94699 0.04315 0.95319 0.0
C747 C 0.94842 0.01745 0.97855 0.0
H748 H 0.47891 0.55562 0.52905 0.0
H749 H 0.42745 0.50358 0.6149 0.0
H750 H 0.43403 0.45489 0.57766 0.0
H751 H 0.4469 0.51651 0.4495 0.0
H752 H 0.48277 0.51607 0.42242 0.0
H753 H 0.47604 0.54675 0.4568 0.0
H754 H 0.52809 0.53292 0.49112 0.0
H755 H 0.53531 0.50261 0.4564 0.0
H756 H 0.53494 0.49302 0.50626 0.0
H757 H 0.44311 0.4126 0.52938 0.0
H758 H 0.45918 0.3782 0.47637 0.0
H759 H 0.50485 0.45767 0.42203 0.0
C760 C 0.46956 0.53389 0.54041 0.0
C761 C 0.45267 0.53344 0.57492 0.0
C762 C 0.44052 0.50454 0.58857 0.0
C763 C 0.444 0.47675 0.56755 0.0
C764 C 0.45981 0.47822 0.53304 0.0
C765 C 0.47281 0.50591 0.51979 0.0
C766 C 0.48833 0.5011 0.48155 0.0
C767 C 0.47256 0.52131 0.45076 0.0
C768 C 0.52377 0.5078 0.48399 0.0
C769 C 0.48182 0.46644 0.4753 0.0
C770 C 0.46521 0.45374 0.50525 0.0
C771 C 0.45629 0.42221 0.50584 0.0
C772 C 0.46537 0.40291 0.47547 0.0
C773 C 0.48329 0.4152 0.44502 0.0
C774 C 0.4911 0.44754 0.44479 0.0
H775 H 0.05927 0.50201 0.44876 0.0
H776 H 0.02162 0.54318 0.34547 0.0
H777 H 0.96797 0.53778 0.37103 0.0
H778 H 0.99547 0.44569 0.46401 0.0
H779 H -0.00301 0.45034 0.51489 0.0
H780 H 0.03202 0.4556 0.48705 0.0
H781 H 0.03923 0.51116 0.51643 0.0
H782 H 0.00385 0.50634 0.54372 0.0
H783 H 0.008 0.53954 0.51234 0.0
H784 H 0.91876 0.53061 0.40933 0.0
H785 H 0.87701 0.51753 0.45523 0.0
H786 H 0.94729 0.48189 0.53359 0.0
C787 C 0.03974 0.50939 0.43117 0.0
C788 C 0.04464 0.52302 0.3951 0.0
C789 C 0.01844 0.53259 0.37315 0.0
C790 C 0.98789 0.52976 0.38748 0.0
C791 C 0.984 0.51724 0.4237 0.0
C792 C 0.00917 0.50681 0.44503 0.0
C793 C -0.00129 0.49471 0.48337 0.0
C794 C 0.00624 0.45949 0.48756 0.0
C795 C 0.01332 0.5141 0.51587 0.0
C796 C 0.96375 0.50027 0.48043 0.0
C797 C 0.95572 0.51329 0.44582 0.0
C798 C 0.92474 0.52031 0.43648 0.0
C799 C 0.90122 0.51295 0.46282 0.0
C800 C 0.90889 0.49877 0.49804 0.0
C801 C 0.94066 0.49296 0.50709 0.0
H802 H 0.00613 0.95558 0.56668 0.0
H803 H 0.97212 0.88253 0.49046 0.0
H804 H 0.95796 0.92297 0.44329 0.0
H805 H 0.94646 0.01353 0.54352 0.0
H806 H 0.97353 0.04604 0.54708 0.0
H807 H 0.9797 0.01124 0.57518 0.0
H808 H 0.03568 0.00605 0.54707 0.0
H809 H 0.02945 0.04049 0.51834 0.0
H810 H 0.04061 0.00389 0.49627 0.0
H811 H 0.94956 0.97108 0.40346 0.0
H812 H 0.94257 0.02403 0.37618 0.0
H813 H 0.98244 0.06541 0.47843 0.0
C814 C 0.99531 0.94806 0.54031 0.0
C815 C 0.99024 0.91589 0.53227 0.0
C816 C 0.97616 0.90706 0.49731 0.0
C817 C 0.96819 0.92983 0.47024 0.0
C818 C 0.97439 0.96126 0.47864 0.0
C819 C 0.98724 0.97043 0.513 0.0
C820 C 0.99154 0.00574 0.51497 0.0
C821 C 0.97161 0.01997 0.54708 0.0
C822 C 0.02639 0.01454 0.51942 0.0
C823 C 0.97915 0.01498 0.47628 0.0
C824 C 0.96953 0.98898 0.4557 0.0
C825 C 0.95693 0.99165 0.41932 0.0
C826 C 0.95321 0.02182 0.40401 0.0
C827 C 0.96198 0.04886 0.42515 0.0
C828 C 0.9757 0.04523 0.46143 0.0
H829 H 0.57366 0.0068 0.55041 0.0
H830 H 0.53791 0.05095 0.6529 0.0
H831 H 0.48372 0.03872 0.63248 0.0
H832 H 0.51614 0.03576 0.48879 0.0
H833 H 0.51339 0.00069 0.46009 0.0
H834 H 0.54952 0.01002 0.48424 0.0
H835 H 0.54885 0.95578 0.51785 0.0
H836 H 0.51308 0.946 0.49312 0.0
H837 H 0.51456 0.94402 0.54424 0.0
H838 H 0.43326 0.02431 0.59888 0.0
H839 H 0.39064 0.00531 0.55687 0.0
H840 H 0.45999 0.97241 0.47581 0.0
C841 C 0.55453 0.0133 0.56904 0.0
C842 C 0.56005 0.02975 0.60334 0.0
C843 C 0.53426 0.03821 0.62657 0.0
C844 C 0.50339 0.03149 0.61515 0.0
C845 C 0.49876 0.0163 0.58046 0.0
C846 C 0.52365 0.00699 0.55798 0.0
C847 C 0.51239 0.99197 0.52139 0.0
C848 C 0.52353 0.01074 0.48658 0.0
C849 C 0.52283 0.95739 0.51903 0.0
C850 C 0.47727 0.99461 0.52658 0.0
C851 C 0.46983 0.0086 0.56086 0.0
C852 C 0.43881 0.01325 0.572 0.0
C853 C 0.41478 0.00255 0.54787 0.0
C854 C 0.42197 0.98755 0.51296 0.0
C855 C 0.45366 0.9841 0.50206 0.0
H856 H 0.55075 0.29966 0.24989 0.0
H857 H 0.46477 0.27573 0.30928 0.0
H858 H 0.45227 0.23645 0.2595 0.0
H859 H 0.52036 0.29051 0.15364 0.0
H860 H 0.55653 0.27396 0.13628 0.0
H861 H 0.5572 0.30159 0.17515 0.0
H862 H 0.58733 0.26105 0.21631 0.0
H863 H 0.58647 0.23319 0.17775 0.0
H864 H 0.57079 0.22244 0.22346 0.0
H865 H 0.45031 0.19837 0.20368 0.0
H866 H 0.45893 0.16529 0.14664 0.0
H867 H 0.54716 0.21358 0.12627 0.0
C868 C 0.52902 0.28655 0.25224 0.0
C869 C 0.50866 0.29089 0.28342 0.0
C870 C 0.48068 0.27289 0.28557 0.0
C871 C 0.4734 0.25051 0.25745 0.0
C872 C 0.49437 0.24641 0.22749 0.0
C873 C 0.52155 0.26405 0.22469 0.0
C874 C 0.54085 0.25441 0.1906 0.0
C875 C 0.5439 0.28174 0.16224 0.0
C876 C 0.57327 0.24203 0.20278 0.0
C877 C 0.52049 0.22831 0.17481 0.0
C878 C 0.49365 0.22415 0.1962 0.0
C879 C 0.47126 0.20145 0.18673 0.0
C880 C 0.47638 0.18275 0.15437 0.0
C881 C 0.50381 0.18668 0.13218 0.0
C882 C 0.52611 0.20971 0.14283 0.0
H883 H 0.24899 0.56728 0.32509 0.0
H884 H 0.17714 0.50034 0.29102 0.0
H885 H 0.20753 0.48782 0.23319 0.0
H886 H 0.26254 0.59831 0.23556 0.0
H887 H 0.30427 0.60328 0.24179 0.0
H888 H 0.27877 0.6041 0.28242 0.0
H889 H 0.31089 0.55927 0.31365 0.0
H890 H 0.33661 0.55836 0.27307 0.0
H891 H 0.31686 0.52298 0.28807 0.0
H892 H 0.24325 0.48672 0.17606 0.0
H893 H 0.28136 0.49697 0.12466 0.0
H894 H 0.32963 0.56428 0.19713 0.0
C895 C 0.23985 0.54957 0.30585 0.0
C896 C 0.21071 0.53476 0.31258 0.0
C897 C 0.19947 0.51192 0.28649 0.0
C898 C 0.2166 0.50461 0.25361 0.0
C899 C 0.24498 0.52013 0.2475 0.0
C900 C 0.2566 0.54199 0.27305 0.0
C901 C 0.28658 0.55693 0.25882 0.0
C902 C 0.28279 0.59276 0.25438 0.0
C903 C 0.31438 0.54889 0.28496 0.0
C904 C 0.28956 0.54077 0.22072 0.0
C905 C 0.26556 0.51938 0.2148 0.0
C906 C 0.2624 0.50306 0.18061 0.0
C907 C 0.28413 0.50908 0.15158 0.0
C908 C 0.30856 0.53132 0.15694 0.0
C909 C 0.31147 0.54688 0.19224 0.0
H910 H 0.93927 0.31186 0.22681 0.0
H911 H 0.01418 0.2807 0.15229 0.0
H912 H 0.024 0.23539 0.19457 0.0
H913 H 0.97567 0.28755 0.31674 0.0
H914 H 0.93863 0.27537 0.33657 0.0
H915 H 0.93993 0.3069 0.30248 0.0
H916 H 0.89976 0.27699 0.26025 0.0
H917 H 0.89862 0.24527 0.29397 0.0
H918 H 0.90837 0.2374 0.24506 0.0
H919 H 0.0236 0.19177 0.24375 0.0
H920 H 0.01284 0.15385 0.29556 0.0
H921 H 0.93694 0.21342 0.33525 0.0
C922 C 0.95816 0.29589 0.21969 0.0
C923 C 0.97606 0.2999 0.18636 0.0
C924 C 0.00025 0.27815 0.1778 0.0
C925 C 0.00601 0.25235 0.20163 0.0
C926 C 0.98739 0.2487 0.23383 0.0
C927 C 0.96405 0.26999 0.24293 0.0
C928 C 0.94611 0.25992 0.27786 0.0
C929 C 0.95036 0.28386 0.31033 0.0
C930 C 0.91116 0.25457 0.26871 0.0
C931 C 0.96257 0.22932 0.28658 0.0
C932 C 0.98656 0.22334 0.26125 0.0
C933 C 0.00492 0.19626 0.26381 0.0
C934 C -0.00139 0.17486 0.29321 0.0
C935 C 0.97392 0.18056 0.31917 0.0
C936 C 0.95577 0.20817 0.31561 0.0
H937 H 0.24921 0.90346 0.38864 0.0
H938 H 0.31576 0.97983 0.37322 0.0
H939 H 0.28706 0.99655 0.31558 0.0
H940 H 0.24044 0.88415 0.29059 0.0
H941 H 0.19919 0.87522 0.2944 0.0
H942 H 0.22456 0.87004 0.33485 0.0
H943 H 0.18868 0.90654 0.37473 0.0
H944 H 0.16329 0.912 0.33429 0.0
H945 H 0.18024 0.94567 0.35791 0.0
H946 H 0.25167 0.00394 0.25851 0.0
H947 H 0.21353 0.00045 0.20569 0.0
H948 H 0.17005 0.91957 0.25945 0.0
C949 C 0.25779 0.92375 0.37324 0.0
C950 C 0.28477 0.94034 0.38548 0.0
C951 C 0.29517 0.96673 0.3644 0.0
C952 C 0.27897 0.97646 0.33169 0.0
C953 C 0.25238 0.95961 0.32053 0.0
C954 C 0.24192 0.93378 0.34066 0.0
C955 C 0.21319 0.91923 0.32227 0.0
C956 C 0.21975 0.88515 0.30978 0.0
C957 C 0.18467 0.92098 0.34889 0.0
C958 C 0.20923 0.94075 0.28841 0.0
C959 C 0.23197 0.96397 0.28796 0.0
C960 C 0.23365 0.98596 0.25871 0.0
C961 C 0.21184 0.98382 0.22886 0.0
C962 C 0.18866 0.95984 0.22848 0.0
C963 C 0.18721 0.93838 0.25903 0.0
H964 H 0.4478 0.77837 0.81537 0.0
H965 H 0.39291 0.7291 0.90046 0.0
H966 H 0.39066 0.68238 0.85903 0.0
H967 H 0.40636 0.74943 0.73566 0.0
H968 H 0.4404 0.74589 0.70562 0.0
H969 H 0.43988 0.77466 0.74319 0.0
H970 H 0.4911 0.75108 0.77088 0.0
H971 H 0.49169 0.72213 0.7334 0.0
H972 H 0.49259 0.70979 0.78236 0.0
H973 H 0.39125 0.6423 0.8071 0.0
H974 H 0.39376 0.61198 0.74731 0.0
H975 H 0.44853 0.68686 0.69592 0.0
C976 C 0.43559 0.75764 0.82541 0.0
C977 C 0.42047 0.75743 0.8611 0.0
C978 C 0.40452 0.72992 0.87312 0.0
C979 C 0.40325 0.70316 0.8499 0.0
C980 C 0.41811 0.70421 0.81475 0.0
C981 C 0.434 0.73069 0.8025 0.0
C982 C 0.44656 0.72614 0.76262 0.0
C983 C 0.43244 0.75047 0.73516 0.0
C984 C 0.48263 0.72735 0.76232 0.0
C985 C 0.43463 0.69326 0.75413 0.0
C986 C 0.41855 0.68093 0.78472 0.0
C987 C 0.40407 0.65154 0.78305 0.0
C988 C 0.4056 0.63451 0.74896 0.0
C989 C 0.42144 0.64694 0.71699 0.0
C990 C 0.43658 0.67649 0.71998 0.0
H991 H 0.77616 0.40963 0.66096 0.0
H992 H 0.79083 0.50881 0.63761 0.0
H993 H 0.7675 0.52226 0.69992 0.0
H994 H 0.70229 0.41734 0.70721 0.0
H995 H 0.71028 0.38698 0.74155 0.0
H996 H 0.72843 0.38547 0.69544 0.0
H997 H 0.78339 0.38299 0.72711 0.0
H998 H 0.7654 0.38444 0.77333 0.0
H999 H 0.79476 0.4131 0.76059 0.0
H1000 H 0.74096 0.52451 0.76456 0.0
H1001 H 0.71523 0.51524 0.82658 0.0
H1002 H 0.71955 0.41452 0.80666 0.0
C1003 C 0.77455 0.43422 0.66887 0.0
C1004 C 0.78523 0.45819 0.64441 0.0
C1005 C 0.78279 0.49005 0.65596 0.0
C1006 C 0.76956 0.49791 0.69125 0.0
C1007 C 0.75909 0.47361 0.7146 0.0
C1008 C 0.76163 0.44242 0.7039 0.0
C1009 C 0.74876 0.42065 0.73397 0.0
C1010 C 0.72078 0.4015 0.71862 0.0
C1011 C 0.77462 0.39903 0.74968 0.0
C1012 C 0.7384 0.44443 0.76329 0.0
C1013 C 0.74442 0.47488 0.75168 0.0
C1014 C 0.73627 0.50075 0.77399 0.0
C1015 C 0.72164 0.49527 0.80911 0.0
C1016 C 0.7155 0.46417 0.8215 0.0
C1017 C 0.72409 0.43857 0.79816 0.0
H1018 H 0.03099 0.72257 0.65 0.0
H1019 H 0.98124 0.80718 0.68361 0.0
H1020 H 0.9729 0.78473 0.74744 0.0
H1021 H 0.9841 0.66592 0.70882 0.0
H1022 H 0.01853 0.64299 0.71959 0.0
H1023 H 0.01557 0.66328 0.6748 0.0
H1024 H 0.06838 0.69149 0.68853 0.0
H1025 H 0.07142 0.67154 0.73332 0.0
H1026 H 0.07282 0.7139 0.73177 0.0
H1027 H 0.97719 0.75684 0.8098 0.0
H1028 H 0.9931 0.72543 0.8655 0.0
H1029 H 0.03977 0.65891 0.79095 0.0
C1030 C 0.01755 0.73605 0.67039 0.0
C1031 C 0.00671 0.76661 0.66178 0.0
C1032 C 0.98966 0.78367 0.68951 0.0
C1033 C 0.98473 0.77106 0.72582 0.0
C1034 C -0.00332 0.74128 0.73377 0.0
C1035 C 0.01247 0.72385 0.70669 0.0
C1036 C 0.02576 0.69389 0.72339 0.0
C1037 C 0.01004 0.6648 0.70559 0.0
C1038 C 0.06171 0.69267 0.719 0.0
C1039 C 0.01626 0.69789 0.7645 0.0
C1040 C -0.00093 0.7251 0.76982 0.0
C1041 C 0.99007 0.73516 0.80589 0.0
C1042 C -0.00067 0.71722 0.83736 0.0
C1043 C 0.01754 0.68964 0.83254 0.0
C1044 C 0.02542 0.67958 0.79553 0.0
H1045 H 0.71249 0.04431 0.69323 0.0
H1046 H 0.77459 0.07765 0.60427 0.0
H1047 H 0.81962 0.07367 0.64799 0.0
H1048 H 0.74693 0.08683 0.76691 0.0
H1049 H 0.74245 0.0568 0.80258 0.0
H1050 H 0.71567 0.05834 0.76306 0.0
H1051 H 0.72906 0.00055 0.746 0.0
H1052 H 0.75593 -0.00114 0.78558 0.0
H1053 H 0.76941 0.9895 0.73838 0.0
H1054 H 0.85684 0.07165 0.70269 0.0
H1055 H 0.88355 0.07197 0.76501 0.0
H1056 H 0.79771 0.03943 0.81853 0.0
C1057 C 0.73566 0.05013 0.68276 0.0
C1058 C 0.74002 0.06127 0.64536 0.0
C1059 C 0.77064 0.06915 0.63287 0.0
C1060 C 0.79644 0.06681 0.65742 0.0
C1061 C 0.7913 0.05638 0.69434 0.0
C1062 C 0.76172 0.04802 0.70699 0.0
C1063 C 0.76227 0.03986 0.74886 0.0
C1064 C 0.74055 0.06177 0.77168 0.0
C1065 C 0.75366 0.00512 0.75506 0.0
C1066 C 0.79653 0.04595 0.75798 0.0
C1067 C 0.81294 0.05508 0.72603 0.0
C1068 C 0.84439 0.06406 0.72784 0.0
C1069 C 0.85935 0.06423 0.76337 0.0
C1070 C 0.84281 0.05555 0.79659 0.0
C1071 C 0.81117 0.04571 0.79358 0.0
loop_
_geom_bond_atom_site_label_1
_geom_bond_atom_site_label_2
_geom_bond_distance
_geom_bond_site_symmetry_2
_ccdc_geom_bond_type
C0 O1 1.160 . S
C0 O7 1.185 . S
O1 C0 1.160 . S
O2 Zn3 1.899 . S
O2 C10 1.284 . S
Zn3 O2 1.899 . S
Zn3 O4 2.032 . S
Zn3 O7 2.086 . S
Zn3 O12 1.977 . S
O4 Zn3 2.032 . S
O4 C8 1.278 . S
C5 O6 1.203 . S
C5 O12 1.267 . S
O6 C5 1.203 . S
O7 C0 1.185 . S
O7 Zn3 2.086 . S
C8 O4 1.278 . S
C8 O9 1.211 . S
O9 C8 1.211 . S
C10 O2 1.284 . S
C10 O11 1.273 . S
O11 C10 1.273 . S
O12 Zn3 1.977 . S
O12 C5 1.267 . S
C13 O14 1.160 . S
C13 O20 1.185 . S
O14 C13 1.160 . S
O15 Zn16 1.899 . S
O15 C23 1.284 . S
Zn16 O15 1.899 . S
Zn16 O17 2.032 . S
Zn16 O20 2.086 . S
Zn16 O25 1.977 . S
O17 Zn16 2.032 . S
O17 C21 1.278 . S
C18 O19 1.203 . S
C18 O25 1.267 . S
O19 C18 1.203 . S
O20 C13 1.185 . S
O20 Zn16 2.086 . S
C21 O17 1.278 . S
C21 O22 1.211 . S
O22 C21 1.211 . S
C23 O15 1.284 . S
C23 O24 1.273 . S
O24 C23 1.273 . S
O25 Zn16 1.977 . S
O25 C18 1.267 . S
C26 O27 1.160 . S
C26 O33 1.185 . S
O27 C26 1.160 . S
O28 Zn29 1.899 . S
O28 C36 1.284 . S
Zn29 O28 1.899 . S
Zn29 O30 2.032 . S
Zn29 O33 2.086 . S
Zn29 O38 1.977 . S
O30 Zn29 2.032 . S
O30 C34 1.278 . S
C31 O32 1.203 . S
C31 O38 1.267 . S
O32 C31 1.203 . S
O33 C26 1.185 . S
O33 Zn29 2.086 . S
C34 O30 1.278 . S
C34 O35 1.211 . S
O35 C34 1.211 . S
C36 O28 1.284 . S
C36 O37 1.273 . S
O37 C36 1.273 . S
O38 Zn29 1.977 . S
O38 C31 1.267 . S
C39 O40 1.160 . S
C39 O46 1.185 . S
O40 C39 1.160 . S
O41 Zn42 1.899 . S
O41 C49 1.284 . S
Zn42 O41 1.899 . S
Zn42 O43 2.032 . S
Zn42 O46 2.086 . S
Zn42 O51 1.977 . S
O43 Zn42 2.032 . S
O43 C47 1.278 . S
C44 O45 1.203 . S
C44 O51 1.267 . S
O45 C44 1.203 . S
O46 C39 1.185 . S
O46 Zn42 2.086 . S
C47 O43 1.278 . S
C47 O48 1.211 . S
O48 C47 1.211 . S
C49 O41 1.284 . S
C49 O50 1.273 . S
O50 C49 1.273 . S
O51 Zn42 1.977 . S
O51 C44 1.267 . S
C52 O53 1.160 . S
C52 O59 1.185 . S
O53 C52 1.160 . S
O54 Zn55 1.899 . S
O54 C62 1.284 . S
Zn55 O54 1.899 . S
Zn55 O56 2.032 . S
Zn55 O59 2.086 . S
Zn55 O64 1.977 . S
O56 Zn55 2.032 . S
O56 C60 1.278 . S
C57 O58 1.203 . S
C57 O64 1.267 . S
O58 C57 1.203 . S
O59 C52 1.185 . S
O59 Zn55 2.086 . S
C60 O56 1.278 . S
C60 O61 1.211 . S
O61 C60 1.211 . S
C62 O54 1.284 . S
C62 O63 1.273 . S
O63 C62 1.273 . S
O64 Zn55 1.977 . S
O64 C57 1.267 . S
C65 O66 1.160 . S
C65 O72 1.185 . S
O66 C65 1.160 . S
O67 Zn68 1.899 . S
O67 C75 1.284 . S
Zn68 O67 1.899 . S
Zn68 O69 2.032 . S
Zn68 O72 2.086 . S
Zn68 O77 1.977 . S
O69 Zn68 2.032 . S
O69 C73 1.278 . S
C70 O71 1.203 . S
C70 O77 1.267 . S
O71 C70 1.203 . S
O72 C65 1.185 . S
O72 Zn68 2.086 . S
C73 O69 1.278 . S
C73 O74 1.211 . S
O74 C73 1.211 . S
C75 O67 1.284 . S
C75 O76 1.273 . S
O76 C75 1.273 . S
O77 Zn68 1.977 . S
O77 C70 1.267 . S
C78 O79 1.160 . S
C78 O85 1.185 . S
O79 C78 1.160 . S
O80 Zn81 1.899 . S
O80 C88 1.284 . S
Zn81 O80 1.899 . S
Zn81 O82 2.032 . S
Zn81 O85 2.086 . S
Zn81 O90 1.977 . S
O82 Zn81 2.032 . S
O82 C86 1.278 . S
C83 O84 1.203 . S
C83 O90 1.267 . S
O84 C83 1.203 . S
O85 C78 1.185 . S
O85 Zn81 2.086 . S
C86 O82 1.278 . S
C86 O87 1.211 . S
O87 C86 1.211 . S
C88 O80 1.284 . S
C88 O89 1.273 . S
O89 C88 1.273 . S
O90 Zn81 1.977 . S
O90 C83 1.267 . S
C91 O92 1.160 . S
C91 O98 1.185 . S
O92 C91 1.160 . S
O93 Zn94 1.899 . S
O93 C101 1.284 . S
Zn94 O93 1.899 . S
Zn94 O95 2.032 . S
Zn94 O98 2.086 . S
Zn94 O103 1.977 . S
O95 Zn94 2.032 . S
O95 C99 1.278 . S
C96 O97 1.203 . S
C96 O103 1.267 . S
O97 C96 1.203 . S
O98 C91 1.185 . S
O98 Zn94 2.086 . S
C99 O95 1.278 . S
C99 O100 1.211 . S
O100 C99 1.211 . S
C101 O93 1.284 . S
C101 O102 1.273 . S
O102 C101 1.273 . S
O103 Zn94 1.977 . S
O103 C96 1.267 . S
C104 O105 1.160 . S
C104 O111 1.185 . S
O105 C104 1.160 . S
O106 Zn107 1.899 . S
O106 C114 1.284 . S
Zn107 O106 1.899 . S
Zn107 O108 2.032 . S
Zn107 O111 2.086 . S
Zn107 O116 1.977 . S
O108 Zn107 2.032 . S
O108 C112 1.278 . S
C109 O110 1.203 . S
C109 O116 1.267 . S
O110 C109 1.203 . S
O111 C104 1.185 . S
O111 Zn107 2.086 . S
C112 O108 1.278 . S
C112 O113 1.211 . S
O113 C112 1.211 . S
C114 O106 1.284 . S
C114 O115 1.273 . S
O115 C114 1.273 . S
O116 Zn107 1.977 . S
O116 C109 1.267 . S
C117 O118 1.160 . S
C117 O124 1.185 . S
O118 C117 1.160 . S
O119 Zn120 1.899 . S
O119 C127 1.284 . S
Zn120 O119 1.899 . S
Zn120 O121 2.032 . S
Zn120 O124 2.086 . S
Zn120 O129 1.977 . S
O121 Zn120 2.032 . S
O121 C125 1.278 . S
C122 O123 1.203 . S
C122 O129 1.267 . S
O123 C122 1.203 . S
O124 C117 1.185 . S
O124 Zn120 2.086 . S
C125 O121 1.278 . S
C125 O126 1.211 . S
O126 C125 1.211 . S
C127 O119 1.284 . S
C127 O128 1.273 . S
O128 C127 1.273 . S
O129 Zn120 1.977 . S
O129 C122 1.267 . S
C130 O131 1.160 . S
C130 O137 1.185 . S
O131 C130 1.160 . S
O132 Zn133 1.899 . S
O132 C140 1.284 . S
Zn133 O132 1.899 . S
Zn133 O134 2.032 . S
Zn133 O137 2.086 . S
Zn133 O142 1.977 . S
O134 Zn133 2.032 . S
O134 C138 1.278 . S
C135 O136 1.203 . S
C135 O142 1.267 . S
O136 C135 1.203 . S
O137 C130 1.185 . S
O137 Zn133 2.086 . S
C138 O134 1.278 . S
C138 O139 1.211 . S
O139 C138 1.211 . S
C140 O132 1.284 . S
C140 O141 1.273 . S
O141 C140 1.273 . S
O142 Zn133 1.977 . S
O142 C135 1.267 . S
C143 O144 1.160 . S
C143 O150 1.185 . S
O144 C143 1.160 . S
O145 Zn146 1.899 . S
O145 C153 1.284 . S
Zn146 O145 1.899 . S
Zn146 O147 2.032 . S
Zn146 O150 2.086 . S
Zn146 O155 1.977 . S
O147 Zn146 2.032 . S
O147 C151 1.278 . S
C148 O149 1.203 . S
C148 O155 1.267 . S
O149 C148 1.203 . S
O150 C143 1.185 . S
O150 Zn146 2.086 . S
C151 O147 1.278 . S
C151 O152 1.211 . S
O152 C151 1.211 . S
C153 O145 1.284 . S
C153 O154 1.273 . S
O154 C153 1.273 . S
O155 Zn146 1.977 . S
O155 C148 1.267 . S
C156 O157 1.160 . S
C156 O163 1.185 . S
O157 C156 1.160 . S
O158 Zn159 1.899 . S
O158 C166 1.284 . S
Zn159 O158 1.899 . S
Zn159 O160 2.032 . S
Zn159 O163 2.086 . S
Zn159 O168 1.977 . S
O160 Zn159 2.032 . S
O160 C164 1.278 . S
C161 O162 1.203 . S
C161 O168 1.267 . S
O162 C161 1.203 . S
O163 C156 1.185 . S
O163 Zn159 2.086 . S
C164 O160 1.278 . S
C164 O165 1.211 . S
O165 C164 1.211 . S
C166 O158 1.284 . S
C166 O167 1.273 . S
O167 C166 1.273 . S
O168 Zn159 1.977 . S
O168 C161 1.267 . S
C169 O170 1.160 . S
C169 O176 1.185 . S
O170 C169 1.160 . S
O171 Zn172 1.899 . S
O171 C179 1.284 . S
Zn172 O171 1.899 . S
Zn172 O173 2.032 . S
Zn172 O176 2.086 . S
Zn172 O181 1.977 . S
O173 Zn172 2.032 . S
O173 C177 1.278 . S
C174 O175 1.203 . S
C174 O181 1.267 . S
O175 C174 1.203 . S
O176 C169 1.185 . S
O176 Zn172 2.086 . S
C177 O173 1.278 . S
C177 O178 1.211 . S
O178 C177 1.211 . S
C179 O171 1.284 . S
C179 O180 1.273 . S
O180 C179 1.273 . S
O181 Zn172 1.977 . S
O181 C174 1.267 . S
C182 O183 1.160 . S
C182 O189 1.185 . S
O183 C182 1.160 . S
O184 Zn185 1.899 . S
O184 C192 1.284 . S
Zn185 O184 1.899 . S
Zn185 O186 2.032 . S
Zn185 O189 2.086 . S
Zn185 O194 1.977 . S
O186 Zn185 2.032 . S
O186 C190 1.278 . S
C187 O188 1.203 . S
C187 O194 1.267 . S
O188 C187 1.203 . S
O189 C182 1.185 . S
O189 Zn185 2.086 . S
C190 O186 1.278 . S
C190 O191 1.211 . S
O191 C190 1.211 . S
C192 O184 1.284 . S
C192 O193 1.273 . S
O193 C192 1.273 . S
O194 Zn185 1.977 . S
O194 C187 1.267 . S
C195 O196 1.160 . S
C195 O202 1.185 . S
O196 C195 1.160 . S
O197 Zn198 1.899 . S
O197 C205 1.284 . S
Zn198 O197 1.899 . S
Zn198 O199 2.032 . S
Zn198 O202 2.086 . S
Zn198 O207 1.977 . S
O199 Zn198 2.032 . S
O199 C203 1.278 . S
C200 O201 1.203 . S
C200 O207 1.267 . S
O201 C200 1.203 . S
O202 C195 1.185 . S
O202 Zn198 2.086 . S
C203 O199 1.278 . S
C203 O204 1.211 . S
O204 C203 1.211 . S
C205 O197 1.284 . S
C205 O206 1.273 . S
O206 C205 1.273 . S
O207 Zn198 1.977 . S
O207 C200 1.267 . S
H208 C220 0.930 . S
H209 C222 0.930 . S
H210 C223 0.930 . S
H211 C227 0.959 . S
H212 C227 0.959 . S
H213 C227 0.961 . S
H214 C228 0.960 . S
H215 C228 0.961 . S
H216 C228 0.959 1_556 S
H217 C231 0.929 . S
H218 C232 0.931 . S
H219 C234 0.930 . S
C220 H208 0.930 . S
C220 C221 1.399 . S
C220 C225 1.399 . S
C221 C220 1.399 . S
C221 C222 1.376 1_554 S
C222 H209 0.930 . S
C222 C221 1.376 1_556 S
C222 C223 1.388 . S
C223 H210 0.930 . S
C223 C222 1.388 . S
C223 C224 1.390 . S
C224 C223 1.390 . S
C224 C225 1.394 1_556 S
C224 C230 1.465 . S
C225 C220 1.399 . S
C225 C224 1.394 1_554 S
C225 C226 1.516 . S
C226 C225 1.516 . S
C226 C227 1.502 . S
C226 C228 1.561 . S
C226 C229 1.526 1_554 S
C227 H211 0.959 . S
C227 H212 0.959 . S
C227 H213 0.961 . S
C227 C226 1.502 . S
C228 H214 0.960 . S
C228 H215 0.961 . S
C228 H216 0.959 1_554 S
C228 C226 1.561 . S
C229 C226 1.526 1_556 S
C229 C230 1.396 . S
C229 C234 1.390 . S
C230 C224 1.465 . S
C230 C229 1.396 . S
C230 C231 1.399 . S
C231 H217 0.929 . S
C231 C230 1.399 . S
C231 C232 1.385 . S
C232 H218 0.931 . S
C232 C231 1.385 . S
C232 C233 1.389 . S
C233 C232 1.389 . S
C233 C234 1.387 . S
C234 H219 0.930 . S
C234 C229 1.390 . S
C234 C233 1.387 . S
H235 C247 0.930 . S
H236 C249 0.930 . S
H237 C250 0.930 . S
H238 C254 0.959 . S
H239 C254 0.959 . S
H240 C254 0.961 . S
H241 C255 0.960 . S
H242 C255 0.961 . S
H243 C255 0.959 . S
H244 C258 0.929 . S
H245 C259 0.931 . S
H246 C261 0.930 . S
C247 H235 0.930 . S
C247 C248 1.399 . S
C247 C252 1.399 . S
C248 C247 1.399 . S
C248 C249 1.376 . S
C249 H236 0.930 . S
C249 C248 1.376 . S
C249 C250 1.388 . S
C250 H237 0.930 . S
C250 C249 1.388 . S
C250 C251 1.390 . S
C251 C250 1.390 . S
C251 C252 1.394 . S
C251 C257 1.465 . S
C252 C247 1.399 . S
C252 C251 1.394 . S
C252 C253 1.516 1_556 S
C253 C252 1.516 1_554 S
C253 C254 1.502 . S
C253 C255 1.561 1_554 S
C253 C256 1.526 . S
C254 H238 0.959 . S
C254 H239 0.959 . S
C254 H240 0.961 . S
C254 C253 1.502 . S
C255 H241 0.960 . S
C255 H242 0.961 . S
C255 H243 0.959 . S
C255 C253 1.561 1_556 S
C256 C253 1.526 . S
C256 C257 1.396 1_554 S
C256 C261 1.390 . S
C257 C251 1.465 . S
C257 C256 1.396 1_556 S
C257 C258 1.399 . S
C258 H244 0.929 . S
C258 C257 1.399 . S
C258 C259 1.385 . S
C259 H245 0.931 . S
C259 C258 1.385 . S
C259 C260 1.389 1_556 S
C260 C259 1.389 1_554 S
C260 C261 1.387 . S
C261 H246 0.930 . S
C261 C256 1.390 . S
C261 C260 1.387 . S
H262 C274 0.930 . S
H263 C276 0.930 . S
H264 C277 0.930 . S
H265 C281 0.959 1_554 S
H266 C281 0.959 . S
H267 C281 0.961 . S
H268 C282 0.960 . S
H269 C282 0.961 . S
H270 C282 0.959 . S
H271 C285 0.929 . S
H272 C286 0.931 . S
H273 C288 0.930 . S
C274 H262 0.930 . S
C274 C275 1.399 . S
C274 C279 1.399 . S
C275 C274 1.399 . S
C275 C276 1.376 . S
C276 H263 0.930 . S
C276 C275 1.376 . S
C276 C277 1.388 . S
C277 H264 0.930 . S
C277 C276 1.388 . S
C277 C278 1.390 . S
C278 C277 1.390 . S
C278 C279 1.394 . S
C278 C284 1.465 . S
C279 C274 1.399 . S
C279 C278 1.394 . S
C279 C280 1.516 . S
C280 C279 1.516 . S
C280 C281 1.502 . S
C280 C282 1.561 . S
C280 C283 1.526 . S
C281 H265 0.959 1_556 S
C281 H266 0.959 . S
C281 H267 0.961 . S
C281 C280 1.502 . S
C282 H268 0.960 . S
C282 H269 0.961 . S
C282 H270 0.959 . S
C282 C280 1.561 . S
C283 C280 1.526 . S
C283 C284 1.396 . S
C283 C288 1.390 1_556 S
C284 C278 1.465 . S
C284 C283 1.396 . S
C284 C285 1.399 1_556 S
C285 H271 0.929 . S
C285 C284 1.399 1_554 S
C285 C286 1.385 . S
C286 H272 0.931 . S
C286 C285 1.385 . S
C286 C287 1.389 . S
C287 C286 1.389 . S
C287 C288 1.387 . S
C288 H273 0.930 . S
C288 C283 1.390 1_554 S
C288 C287 1.387 . S
H289 C301 0.930 . S
H290 C303 0.930 . S
H291 C304 0.930 . S
H292 C308 0.959 . S
H293 C308 0.959 . S
H294 C308 0.961 . S
H295 C309 0.960 . S
H296 C309 0.961 . S
H297 C309 0.959 . S
H298 C312 0.929 . S
H299 C313 0.931 . S
H300 C315 0.930 . S
C301 H289 0.930 . S
C301 C302 1.399 . S
C301 C306 1.399 . S
C302 C301 1.399 . S
C302 C303 1.376 . S
C303 H290 0.930 . S
C303 C302 1.376 . S
C303 C304 1.388 . S
C304 H291 0.930 . S
C304 C303 1.388 . S
C304 C305 1.390 . S
C305 C304 1.390 . S
C305 C306 1.394 . S
C305 C311 1.465 . S
C306 C301 1.399 . S
C306 C305 1.394 . S
C306 C307 1.516 1_556 S
C307 C306 1.516 1_554 S
C307 C308 1.502 . S
C307 C309 1.561 . S
C307 C310 1.526 . S
C308 H292 0.959 . S
C308 H293 0.959 . S
C308 H294 0.961 . S
C308 C307 1.502 . S
C309 H295 0.960 . S
C309 H296 0.961 . S
C309 H297 0.959 . S
C309 C307 1.561 . S
C310 C307 1.526 . S
C310 C311 1.396 1_554 S
C310 C315 1.390 . S
C311 C305 1.465 . S
C311 C310 1.396 1_556 S
C311 C312 1.399 . S
C312 H298 0.929 . S
C312 C311 1.399 . S
C312 C313 1.385 . S
C313 H299 0.931 . S
C313 C312 1.385 . S
C313 C314 1.389 1_556 S
C314 C313 1.389 1_554 S
C314 C315 1.387 . S
C315 H300 0.930 . S
C315 C310 1.390 . S
C315 C314 1.387 . S
H316 C328 0.930 . S
H317 C330 0.930 . S
H318 C331 0.930 . S
H319 C335 0.959 . S
H320 C335 0.959 . S
H321 C335 0.961 . S
H322 C336 0.960 . S
H323 C336 0.961 . S
H324 C336 0.959 . S
H325 C339 0.929 . S
H326 C340 0.931 . S
H327 C342 0.930 . S
C328 H316 0.930 . S
C328 C329 1.399 . S
C328 C333 1.399 . S
C329 C328 1.399 . S
C329 C330 1.376 . S
C330 H317 0.930 . S
C330 C329 1.376 . S
C330 C331 1.388 . S
C331 H318 0.930 . S
C331 C330 1.388 . S
C331 C332 1.390 . S
C332 C331 1.390 . S
C332 C333 1.394 . S
C332 C338 1.465 . S
C333 C328 1.399 . S
C333 C332 1.394 . S
C333 C334 1.516 . S
C334 C333 1.516 . S
C334 C335 1.502 . S
C334 C336 1.561 . S
C334 C337 1.526 . S
C335 H319 0.959 . S
C335 H320 0.959 . S
C335 H321 0.961 . S
C335 C334 1.502 . S
C336 H322 0.960 . S
C336 H323 0.961 . S
C336 H324 0.959 . S
C336 C334 1.561 . S
C337 C334 1.526 . S
C337 C338 1.396 . S
C337 C342 1.390 . S
C338 C332 1.465 . S
C338 C337 1.396 . S
C338 C339 1.399 . S
C339 H325 0.929 . S
C339 C338 1.399 . S
C339 C340 1.385 . S
C340 H326 0.931 . S
C340 C339 1.385 . S
C340 C341 1.389 . S
C341 C340 1.389 . S
C341 C342 1.387 . S
C342 H327 0.930 . S
C342 C337 1.390 . S
C342 C341 1.387 . S
H343 C355 0.930 . S
H344 C357 0.930 . S
H345 C358 0.930 . S
H346 C362 0.959 . S
H347 C362 0.959 . S
H348 C362 0.961 . S
H349 C363 0.960 . S
H350 C363 0.961 . S
H351 C363 0.959 . S
H352 C366 0.929 . S
H353 C367 0.931 . S
H354 C369 0.930 . S
C355 H343 0.930 . S
C355 C356 1.399 . S
C355 C360 1.399 . S
C356 C355 1.399 . S
C356 C357 1.376 . S
C357 H344 0.930 . S
C357 C356 1.376 . S
C357 C358 1.388 . S
C358 H345 0.930 . S
C358 C357 1.388 . S
C358 C359 1.390 . S
C359 C358 1.390 . S
C359 C360 1.394 . S
C359 C365 1.465 . S
C360 C355 1.399 . S
C360 C359 1.394 . S
C360 C361 1.516 . S
C361 C360 1.516 . S
C361 C362 1.502 . S
C361 C363 1.561 . S
C361 C364 1.526 . S
C362 H346 0.959 . S
C362 H347 0.959 . S
C362 H348 0.961 . S
C362 C361 1.502 . S
C363 H349 0.960 . S
C363 H350 0.961 . S
C363 H351 0.959 . S
C363 C361 1.561 . S
C364 C361 1.526 . S
C364 C365 1.396 . S
C364 C369 1.390 . S
C365 C359 1.465 . S
C365 C364 1.396 . S
C365 C366 1.399 . S
C366 H352 0.929 . S
C366 C365 1.399 . S
C366 C367 1.385 . S
C367 H353 0.931 . S
C367 C366 1.385 . S
C367 C368 1.389 . S
C368 C367 1.389 . S
C368 C369 1.387 . S
C369 H354 0.930 . S
C369 C364 1.390 . S
C369 C368 1.387 . S
H370 C382 0.930 . S
H371 C384 0.930 . S
H372 C385 0.930 . S
H373 C389 0.959 . S
H374 C389 0.959 . S
H375 C389 0.961 . S
H376 C390 0.960 . S
H377 C390 0.961 . S
H378 C390 0.959 . S
H379 C393 0.929 . S
H380 C394 0.931 . S
H381 C396 0.930 . S
C382 H370 0.930 . S
C382 C383 1.399 . S
C382 C387 1.399 . S
C383 C382 1.399 . S
C383 C384 1.376 . S
C384 H371 0.930 . S
C384 C383 1.376 . S
C384 C385 1.388 . S
C385 H372 0.930 . S
C385 C384 1.388 . S
C385 C386 1.390 . S
C386 C385 1.390 . S
C386 C387 1.394 . S
C386 C392 1.465 . S
C387 C382 1.399 . S
C387 C386 1.394 . S
C387 C388 1.516 . S
C388 C387 1.516 . S
C388 C389 1.502 . S
C388 C390 1.561 . S
C388 C391 1.526 . S
C389 H373 0.959 . S
C389 H374 0.959 . S
C389 H375 0.961 . S
C389 C388 1.502 . S
C390 H376 0.960 . S
C390 H377 0.961 . S
C390 H378 0.959 . S
C390 C388 1.561 . S
C391 C388 1.526 . S
C391 C392 1.396 . S
C391 C396 1.390 . S
C392 C386 1.465 . S
C392 C391 1.396 . S
C392 C393 1.399 . S
C393 H379 0.929 . S
C393 C392 1.399 . S
C393 C394 1.385 . S
C394 H380 0.931 . S
C394 C393 1.385 . S
C394 C395 1.389 . S
C395 C394 1.389 . S
C395 C396 1.387 . S
C396 H381 0.930 . S
C396 C391 1.390 . S
C396 C395 1.387 . S
H397 C409 0.930 . S
H398 C411 0.930 . S
H399 C412 0.930 . S
H400 C416 0.959 . S
H401 C416 0.959 . S
H402 C416 0.961 . S
H403 C417 0.960 . S
H404 C417 0.961 . S
H405 C417 0.959 . S
H406 C420 0.929 . S
H407 C421 0.931 . S
H408 C423 0.930 . S
C409 H397 0.930 . S
C409 C410 1.399 . S
C409 C414 1.399 . S
C410 C409 1.399 . S
C410 C411 1.376 . S
C411 H398 0.930 . S
C411 C410 1.376 . S
C411 C412 1.388 . S
C412 H399 0.930 . S
C412 C411 1.388 . S
C412 C413 1.390 . S
C413 C412 1.390 . S
C413 C414 1.394 . S
C413 C419 1.465 . S
C414 C409 1.399 . S
C414 C413 1.394 . S
C414 C415 1.516 . S
C415 C414 1.516 . S
C415 C416 1.502 . S
C415 C417 1.561 . S
C415 C418 1.526 . S
C416 H400 0.959 . S
C416 H401 0.959 . S
C416 H402 0.961 . S
C416 C415 1.502 . S
C417 H403 0.960 . S
C417 H404 0.961 . S
C417 H405 0.959 . S
C417 C415 1.561 . S
C418 C415 1.526 . S
C418 C419 1.396 . S
C418 C423 1.390 . S
C419 C413 1.465 . S
C419 C418 1.396 . S
C419 C420 1.399 . S
C420 H406 0.929 . S
C420 C419 1.399 . S
C420 C421 1.385 . S
C421 H407 0.931 . S
C421 C420 1.385 . S
C421 C422 1.389 . S
C422 C421 1.389 . S
C422 C423 1.387 . S
C423 H408 0.930 . S
C423 C418 1.390 . S
C423 C422 1.387 . S
H424 C436 0.930 . S
H425 C438 0.930 . S
H426 C439 0.930 . S
H427 C443 0.959 . S
H428 C443 0.959 . S
H429 C443 0.961 . S
H430 C444 0.960 1_556 S
H431 C444 0.961 . S
H432 C444 0.959 . S
H433 C447 0.929 . S
H434 C448 0.931 . S
H435 C450 0.930 . S
C436 H424 0.930 . S
C436 C437 1.399 . S
C436 C441 1.399 . S
C437 C436 1.399 . S
C437 C438 1.376 1_556 S
C438 H425 0.930 . S
C438 C437 1.376 1_554 S
C438 C439 1.388 . S
C439 H426 0.930 . S
C439 C438 1.388 . S
C439 C440 1.390 . S
C440 C439 1.390 . S
C440 C441 1.394 1_554 S
C440 C446 1.465 . S
C441 C436 1.399 . S
C441 C440 1.394 1_556 S
C441 C442 1.516 . S
C442 C441 1.516 . S
C442 C443 1.502 . S
C442 C444 1.561 1_556 S
C442 C445 1.526 1_556 S
C443 H427 0.959 . S
C443 H428 0.959 . S
C443 H429 0.961 . S
C443 C442 1.502 . S
C444 H430 0.960 1_554 S
C444 H431 0.961 . S
C444 H432 0.959 . S
C444 C442 1.561 1_554 S
C445 C442 1.526 1_554 S
C445 C446 1.396 . S
C445 C450 1.390 . S
C446 C440 1.465 . S
C446 C445 1.396 . S
C446 C447 1.399 . S
C447 H433 0.929 . S
C447 C446 1.399 . S
C447 C448 1.385 . S
C448 H434 0.931 . S
C448 C447 1.385 . S
C448 C449 1.389 . S
C449 C448 1.389 . S
C449 C450 1.387 . S
C450 H435 0.930 . S
C450 C445 1.390 . S
C450 C449 1.387 . S
H451 C463 0.930 . S
H452 C465 0.930 . S
H453 C466 0.930 1_554 S
H454 C470 0.959 . S
H455 C470 0.959 . S
H456 C470 0.961 . S
H457 C471 0.960 . S
H458 C471 0.961 . S
H459 C471 0.959 . S
H460 C474 0.929 . S
H461 C475 0.931 . S
H462 C477 0.930 . S
C463 H451 0.930 . S
C463 C464 1.399 . S
C463 C468 1.405 . S
C464 C463 1.399 . S
C464 C465 1.376 . S
C465 H452 0.930 . S
C465 C464 1.376 . S
C465 C466 1.388 . S
C466 H453 0.930 1_556 S
C466 C465 1.388 . S
C466 C467 1.390 1_556 S
C467 C466 1.390 1_554 S
C467 C468 1.391 1_554 S
C467 C473 1.465 . S
C468 C463 1.405 . S
C468 C467 1.391 1_556 S
C468 C469 1.513 1_556 S
C469 C468 1.513 1_554 S
C469 C470 1.502 . S
C469 C471 1.561 1_554 S
C469 C472 1.526 . S
C470 H454 0.959 . S
C470 H455 0.959 . S
C470 H456 0.961 . S
C470 C469 1.502 . S
C471 H457 0.960 . S
C471 H458 0.961 . S
C471 H459 0.959 . S
C471 C469 1.561 1_556 S
C472 C469 1.526 . S
C472 C473 1.396 . S
C472 C477 1.390 . S
C473 C467 1.465 . S
C473 C472 1.396 . S
C473 C474 1.399 . S
C474 H460 0.929 . S
C474 C473 1.399 . S
C474 C475 1.385 . S
C475 H461 0.931 . S
C475 C474 1.385 . S
C475 C476 1.389 . S
C476 C475 1.389 . S
C476 C477 1.387 . S
C477 H462 0.930 . S
C477 C472 1.390 . S
C477 C476 1.387 . S
H478 C490 0.930 . S
H479 C492 0.930 . S
H480 C493 0.930 . S
H481 C497 0.959 . S
H482 C497 0.959 . S
H483 C497 0.961 . S
H484 C498 0.960 . S
H485 C498 0.961 . S
H486 C498 0.959 . S
H487 C501 0.929 . S
H488 C502 0.931 . S
H489 C504 0.930 . S
C490 H478 0.930 . S
C490 C491 1.399 1_554 S
C490 C495 1.399 . S
C491 C490 1.399 1_556 S
C491 C492 1.376 . S
C492 H479 0.930 . S
C492 C491 1.376 . S
C492 C493 1.388 . S
C493 H480 0.930 . S
C493 C492 1.388 . S
C493 C494 1.390 . S
C494 C493 1.390 . S
C494 C495 1.394 1_556 S
C494 C500 1.465 1_556 S
C495 C490 1.399 . S
C495 C494 1.394 1_554 S
C495 C496 1.516 . S
C496 C495 1.516 . S
C496 C497 1.502 . S
C496 C498 1.561 . S
C496 C499 1.526 . S
C497 H481 0.959 . S
C497 H482 0.959 . S
C497 H483 0.961 . S
C497 C496 1.502 . S
C498 H484 0.960 . S
C498 H485 0.961 . S
C498 H486 0.959 . S
C498 C496 1.561 . S
C499 C496 1.526 . S
C499 C500 1.396 . S
C499 C504 1.390 . S
C500 C494 1.465 1_554 S
C500 C499 1.396 . S
C500 C501 1.399 1_554 S
C501 H487 0.929 . S
C501 C500 1.399 1_556 S
C501 C502 1.385 1_556 S
C502 H488 0.931 . S
C502 C501 1.385 1_554 S
C502 C503 1.389 . S
C503 C502 1.389 . S
C503 C504 1.387 . S
C504 H489 0.930 . S
C504 C499 1.390 . S
C504 C503 1.387 . S
H505 C517 0.930 . S
H506 C519 0.930 . S
H507 C520 0.909 1_556 S
H508 C524 0.959 . S
H509 C524 0.959 . S
H510 C524 0.961 . S
H511 C525 0.960 . S
H512 C525 0.961 . S
H513 C525 0.959 1_556 S
H514 C528 0.929 . S
H515 C529 0.931 . S
H516 C531 0.930 . S
C517 H505 0.930 . S
C517 C518 1.399 . S
C517 C522 1.399 . S
C518 C517 1.399 . S
C518 C519 1.376 . S
C519 H506 0.930 . S
C519 C518 1.376 . S
C519 C520 1.403 . S
C520 H507 0.909 1_554 S
C520 C519 1.403 . S
C520 C521 1.396 . S
C521 C520 1.396 . S
C521 C522 1.394 . S
C521 C527 1.465 1_554 S
C522 C517 1.399 . S
C522 C521 1.394 . S
C522 C523 1.516 . S
C523 C522 1.516 . S
C523 C524 1.502 . S
C523 C525 1.561 . S
C523 C526 1.526 . S
C524 H508 0.959 . S
C524 H509 0.959 . S
C524 H510 0.961 . S
C524 C523 1.502 . S
C525 H511 0.960 . S
C525 H512 0.961 . S
C525 H513 0.959 1_554 S
C525 C523 1.561 . S
C526 C523 1.526 . S
C526 C527 1.396 1_554 S
C526 C531 1.390 . S
C527 C521 1.465 1_556 S
C527 C526 1.396 1_556 S
C527 C528 1.399 . S
C528 H514 0.929 . S
C528 C527 1.399 . S
C528 C529 1.385 . S
C529 H515 0.931 . S
C529 C528 1.385 . S
C529 C530 1.389 . S
C530 C529 1.389 . S
C530 C531 1.387 1_556 S
C531 H516 0.930 . S
C531 C526 1.390 . S
C531 C530 1.387 1_554 S
H532 C544 0.930 . S
H533 C546 0.930 . S
H534 C547 0.930 . S
H535 C551 0.959 . S
H536 C551 0.959 . S
H537 C551 0.961 . S
H538 C552 0.960 . S
H539 C552 0.961 . S
H540 C552 0.959 . S
H541 C555 0.929 . S
H542 C556 0.931 . S
H543 C558 0.930 . S
C544 H532 0.930 . S
C544 C545 1.399 . S
C544 C549 1.399 . S
C545 C544 1.399 . S
C545 C546 1.376 . S
C546 H533 0.930 . S
C546 C545 1.376 . S
C546 C547 1.388 . S
C547 H534 0.930 . S
C547 C546 1.388 . S
C547 C548 1.390 . S
C548 C547 1.390 . S
C548 C549 1.394 . S
C548 C554 1.465 . S
C549 C544 1.399 . S
C549 C548 1.394 . S
C549 C550 1.516 . S
C550 C549 1.516 . S
C550 C551 1.502 . S
C550 C552 1.561 . S
C550 C553 1.526 . S
C551 H535 0.959 . S
C551 H536 0.959 . S
C551 H537 0.961 . S
C551 C550 1.502 . S
C552 H538 0.960 . S
C552 H539 0.961 . S
C552 H540 0.959 . S
C552 C550 1.561 . S
C553 C550 1.526 . S
C553 C554 1.396 . S
C553 C558 1.390 . S
C554 C548 1.465 . S
C554 C553 1.396 . S
C554 C555 1.399 . S
C555 H541 0.929 . S
C555 C554 1.399 . S
C555 C556 1.385 . S
C556 H542 0.931 . S
C556 C555 1.385 . S
C556 C557 1.389 . S
C557 C556 1.389 . S
C557 C558 1.387 . S
C558 H543 0.930 . S
C558 C553 1.390 . S
C558 C557 1.387 . S
H559 C571 0.930 . S
H560 C573 0.930 . S
H561 C574 0.930 . S
H562 C578 0.959 . S
H563 C578 0.959 . S
H564 C578 0.961 . S
H565 C579 0.960 . S
H566 C579 0.961 . S
H567 C579 0.959 . S
H568 C582 0.929 . S
H569 C583 0.931 . S
H570 C585 0.930 . S
C571 H559 0.930 . S
C571 C572 1.399 . S
C571 C576 1.399 . S
C572 C571 1.399 . S
C572 C573 1.376 . S
C573 H560 0.930 . S
C573 C572 1.376 . S
C573 C574 1.388 . S
C574 H561 0.930 . S
C574 C573 1.388 . S
C574 C575 1.390 . S
C575 C574 1.390 . S
C575 C576 1.394 . S
C575 C581 1.465 . S
C576 C571 1.399 . S
C576 C575 1.394 . S
C576 C577 1.516 . S
C577 C576 1.516 . S
C577 C578 1.502 . S
C577 C579 1.561 . S
C577 C580 1.526 . S
C578 H562 0.959 . S
C578 H563 0.959 . S
C578 H564 0.961 . S
C578 C577 1.502 . S
C579 H565 0.960 . S
C579 H566 0.961 . S
C579 H567 0.959 . S
C579 C577 1.561 . S
C580 C577 1.526 . S
C580 C581 1.396 . S
C580 C585 1.390 . S
C581 C575 1.465 . S
C581 C580 1.396 . S
C581 C582 1.399 . S
C582 H568 0.929 . S
C582 C581 1.399 . S
C582 C583 1.385 . S
C583 H569 0.931 . S
C583 C582 1.385 . S
C583 C584 1.389 . S
C584 C583 1.389 . S
C584 C585 1.387 . S
C585 H570 0.930 . S
C585 C580 1.390 . S
C585 C584 1.387 . S
H586 C598 0.930 . S
H587 C600 0.930 . S
H588 C601 0.930 . S
H589 C605 0.959 . S
H590 C605 0.959 . S
H591 C605 0.961 . S
H592 C606 0.960 . S
H593 C606 0.961 . S
H594 C606 0.959 . S
H595 C609 0.929 . S
H596 C610 0.931 . S
H597 C612 0.930 . S
C598 H586 0.930 . S
C598 C599 1.399 . S
C598 C603 1.399 . S
C599 C598 1.399 . S
C599 C600 1.376 . S
C600 H587 0.930 . S
C600 C599 1.376 . S
C600 C601 1.388 . S
C601 H588 0.930 . S
C601 C600 1.388 . S
C601 C602 1.390 . S
C602 C601 1.390 . S
C602 C603 1.394 . S
C602 C608 1.465 . S
C603 C598 1.399 . S
C603 C602 1.394 . S
C603 C604 1.516 . S
C604 C603 1.516 . S
C604 C605 1.502 . S
C604 C606 1.561 . S
C604 C607 1.526 . S
C605 H589 0.959 . S
C605 H590 0.959 . S
C605 H591 0.961 . S
C605 C604 1.502 . S
C606 H592 0.960 . S
C606 H593 0.961 . S
C606 H594 0.959 . S
C606 C604 1.561 . S
C607 C604 1.526 . S
C607 C608 1.396 . S
C607 C612 1.390 . S
C608 C602 1.465 . S
C608 C607 1.396 . S
C608 C609 1.399 . S
C609 H595 0.929 . S
C609 C608 1.399 . S
C609 C610 1.385 . S
C610 H596 0.931 . S
C610 C609 1.385 . S
C610 C611 1.389 . S
C611 C610 1.389 . S
C611 C612 1.387 . S
C612 H597 0.930 . S
C612 C607 1.390 . S
C612 C611 1.387 . S
H613 C625 0.930 . S
H614 C627 0.930 . S
H615 C628 0.930 . S
H616 C632 0.959 . S
H617 C632 0.959 . S
H618 C632 0.961 . S
H619 C633 0.960 . S
H620 C633 0.961 . S
H621 C633 0.959 . S
H622 C636 0.929 . S
H623 C637 0.931 . S
H624 C639 0.930 . S
C625 H613 0.930 . S
C625 C626 1.399 . S
C625 C630 1.399 . S
C626 C625 1.399 . S
C626 C627 1.376 . S
C627 H614 0.930 . S
C627 C626 1.376 . S
C627 C628 1.388 . S
C628 H615 0.930 . S
C628 C627 1.388 . S
C628 C629 1.390 . S
C629 C628 1.390 . S
C629 C630 1.394 . S
C629 C635 1.465 . S
C630 C625 1.399 . S
C630 C629 1.394 . S
C630 C631 1.516 . S
C631 C630 1.516 . S
C631 C632 1.502 . S
C631 C633 1.561 . S
C631 C634 1.526 . S
C632 H616 0.959 . S
C632 H617 0.959 . S
C632 H618 0.961 . S
C632 C631 1.502 . S
C633 H619 0.960 . S
C633 H620 0.961 . S
C633 H621 0.959 . S
C633 C631 1.561 . S
C634 C631 1.526 . S
C634 C635 1.396 . S
C634 C639 1.390 . S
C635 C629 1.465 . S
C635 C634 1.396 . S
C635 C636 1.399 . S
C636 H622 0.929 . S
C636 C635 1.399 . S
C636 C637 1.385 . S
C637 H623 0.931 . S
C637 C636 1.385 . S
C637 C638 1.389 . S
C638 C637 1.389 . S
C638 C639 1.387 . S
C639 H624 0.930 . S
C639 C634 1.390 . S
C639 C638 1.387 . S
H640 C652 0.930 1_554 S
H641 C654 0.930 . S
H642 C655 0.930 . S
H643 C659 0.949 1_545 S
H644 C659 0.959 1_545 S
H645 C659 0.961 . S
H646 C660 0.960 . S
H647 C660 0.961 . S
H648 C660 0.959 . S
H649 C663 0.929 . S
H650 C664 0.931 . S
H651 C666 0.930 . S
C652 H640 0.930 1_556 S
C652 C653 1.399 . S
C652 C657 1.399 1_556 S
C653 C652 1.399 . S
C653 C654 1.376 . S
C654 H641 0.930 . S
C654 C653 1.376 . S
C654 C655 1.388 . S
C655 H642 0.930 . S
C655 C654 1.388 . S
C655 C656 1.390 . S
C656 C655 1.390 . S
C656 C657 1.394 1_556 S
C656 C662 1.465 1_565 S
C657 C652 1.399 1_554 S
C657 C656 1.394 1_554 S
C657 C658 1.516 . S
C658 C657 1.516 . S
C658 C659 1.502 . S
C658 C660 1.561 . S
C658 C661 1.526 1_565 S
C659 H643 0.949 1_565 S
C659 H644 0.959 1_565 S
C659 H645 0.961 . S
C659 C658 1.502 . S
C660 H646 0.960 . S
C660 H647 0.961 . S
C660 H648 0.959 . S
C660 C658 1.561 . S
C661 C658 1.526 1_545 S
C661 C662 1.396 1_554 S
C661 C666 1.390 . S
C662 C656 1.465 1_545 S
C662 C661 1.396 1_556 S
C662 C663 1.399 . S
C663 H649 0.929 . S
C663 C662 1.399 . S
C663 C664 1.385 . S
C664 H650 0.931 . S
C664 C663 1.385 . S
C664 C665 1.389 1_556 S
C665 C664 1.389 1_554 S
C665 C666 1.387 . S
C666 H651 0.930 . S
C666 C661 1.390 . S
C666 C665 1.387 . S
H667 C679 0.930 . S
H668 C681 0.930 . S
H669 C682 0.930 . S
H670 C686 0.959 1_554 S
H671 C686 0.959 . S
H672 C686 0.961 . S
H673 C687 0.960 . S
H674 C687 0.961 . S
H675 C687 0.959 . S
H676 C690 0.929 1_554 S
H677 C691 0.931 . S
H678 C693 0.930 . S
C679 H667 0.930 . S
C679 C680 1.399 . S
C679 C684 1.399 . S
C680 C679 1.399 . S
C680 C681 1.376 . S
C681 H668 0.930 . S
C681 C680 1.376 . S
C681 C682 1.388 . S
C682 H669 0.930 . S
C682 C681 1.388 . S
C682 C683 1.390 . S
C683 C682 1.390 . S
C683 C684 1.394 . S
C683 C689 1.465 1_554 S
C684 C679 1.399 . S
C684 C683 1.394 . S
C684 C685 1.516 1_554 S
C685 C684 1.516 1_556 S
C685 C686 1.502 . S
C685 C687 1.561 . S
C685 C688 1.526 . S
C686 H670 0.959 1_556 S
C686 H671 0.959 . S
C686 H672 0.961 . S
C686 C685 1.502 . S
C687 H673 0.960 . S
C687 H674 0.961 . S
C687 H675 0.959 . S
C687 C685 1.561 . S
C688 C685 1.526 . S
C688 C689 1.396 . S
C688 C693 1.390 . S
C689 C683 1.465 1_556 S
C689 C688 1.396 . S
C689 C690 1.399 . S
C690 H676 0.929 1_556 S
C690 C689 1.399 . S
C690 C691 1.385 . S
C691 H677 0.931 . S
C691 C690 1.385 . S
C691 C692 1.389 . S
C692 C691 1.389 . S
C692 C693 1.387 . S
C693 H678 0.930 . S
C693 C688 1.390 . S
C693 C692 1.387 . S
H694 C706 0.930 . S
H695 C708 0.930 . S
H696 C709 0.930 . S
H697 C713 0.959 . S
H698 C713 0.959 . S
H699 C713 0.961 . S
H700 C714 0.960 . S
H701 C714 0.961 . S
H702 C714 0.959 . S
H703 C717 0.929 . S
H704 C718 0.931 . S
H705 C720 0.930 1_556 S
C706 H694 0.930 . S
C706 C707 1.399 . S
C706 C711 1.399 . S
C707 C706 1.399 . S
C707 C708 1.376 1_556 S
C708 H695 0.930 . S
C708 C707 1.376 1_554 S
C708 C709 1.388 . S
C709 H696 0.930 . S
C709 C708 1.388 . S
C709 C710 1.390 . S
C710 C709 1.390 . S
C710 C711 1.394 1_554 S
C710 C716 1.465 . S
C711 C706 1.399 . S
C711 C710 1.394 1_556 S
C711 C712 1.516 1_455 S
C712 C711 1.516 1_655 S
C712 C713 1.502 . S
C712 C714 1.561 1_655 S
C712 C715 1.526 . S
C713 H697 0.959 . S
C713 H698 0.959 . S
C713 H699 0.961 . S
C713 C712 1.502 . S
C714 H700 0.960 . S
C714 H701 0.961 . S
C714 H702 0.959 . S
C714 C712 1.561 1_455 S
C715 C712 1.526 . S
C715 C716 1.396 1_656 S
C715 C720 1.390 1_556 S
C716 C710 1.465 . S
C716 C715 1.396 1_454 S
C716 C717 1.399 . S
C717 H703 0.929 . S
C717 C716 1.399 . S
C717 C718 1.385 1_455 S
C718 H704 0.931 . S
C718 C717 1.385 1_655 S
C718 C719 1.389 . S
C719 C718 1.389 . S
C719 C720 1.387 . S
C720 H705 0.930 1_554 S
C720 C715 1.390 1_554 S
C720 C719 1.387 . S
H721 C733 0.930 . S
H722 C735 0.930 . S
H723 C736 0.930 . S
H724 C740 0.959 . S
H725 C740 0.959 1_655 S
H726 C740 0.961 . S
H727 C741 0.960 . S
H728 C741 0.961 . S
H729 C741 0.959 . S
H730 C744 0.938 . S
H731 C745 0.931 . S
H732 C747 0.930 . S
C733 H721 0.930 . S
C733 C734 1.399 . S
C733 C738 1.399 . S
C734 C733 1.399 . S
C734 C735 1.376 1_565 S
C735 H722 0.930 . S
C735 C734 1.376 1_545 S
C735 C736 1.388 . S
C736 H723 0.930 . S
C736 C735 1.388 . S
C736 C737 1.390 . S
C737 C736 1.390 . S
C737 C738 1.394 1_545 S
C737 C743 1.465 1_454 S
C738 C733 1.399 . S
C738 C737 1.394 1_565 S
C738 C739 1.509 1_454 S
C739 C738 1.509 1_656 S
C739 C740 1.520 1_655 S
C739 C741 1.543 1_556 S
C739 C742 1.532 . S
C740 H724 0.959 . S
C740 H725 0.959 1_455 S
C740 H726 0.961 . S
C740 C739 1.520 1_455 S
C741 H727 0.960 . S
C741 H728 0.961 . S
C741 H729 0.959 . S
C741 C739 1.543 1_554 S
C742 C739 1.532 . S
C742 C743 1.396 1_565 S
C742 C747 1.390 . S
C743 C737 1.465 1_656 S
C743 C742 1.396 1_545 S
C743 C744 1.399 . S
C744 H730 0.938 . S
C744 C743 1.399 . S
C744 C745 1.385 . S
C745 H731 0.931 . S
C745 C744 1.385 . S
C745 C746 1.389 . S
C746 C745 1.389 . S
C746 C747 1.387 1_545 S
C747 H732 0.930 . S
C747 C742 1.390 . S
C747 C746 1.387 1_565 S
H748 C760 0.930 . S
H749 C762 0.930 . S
H750 C763 0.930 . S
H751 C767 0.959 . S
H752 C767 0.959 . S
H753 C767 0.961 . S
H754 C768 0.960 . S
H755 C768 0.961 . S
H756 C768 0.959 . S
H757 C771 0.929 . S
H758 C772 0.931 . S
H759 C774 0.930 . S
C760 H748 0.930 . S
C760 C761 1.399 . S
C760 C765 1.399 . S
C761 C760 1.399 . S
C761 C762 1.376 . S
C762 H749 0.930 . S
C762 C761 1.376 . S
C762 C763 1.388 . S
C763 H750 0.930 . S
C763 C762 1.388 . S
C763 C764 1.390 . S
C764 C763 1.390 . S
C764 C765 1.394 . S
C764 C770 1.465 . S
C765 C760 1.399 . S
C765 C764 1.394 . S
C765 C766 1.516 . S
C766 C765 1.516 . S
C766 C767 1.502 . S
C766 C768 1.561 . S
C766 C769 1.526 . S
C767 H751 0.959 . S
C767 H752 0.959 . S
C767 H753 0.961 . S
C767 C766 1.502 . S
C768 H754 0.960 . S
C768 H755 0.961 . S
C768 H756 0.959 . S
C768 C766 1.561 . S
C769 C766 1.526 . S
C769 C770 1.396 . S
C769 C774 1.390 . S
C770 C764 1.465 . S
C770 C769 1.396 . S
C770 C771 1.399 . S
C771 H757 0.929 . S
C771 C770 1.399 . S
C771 C772 1.385 . S
C772 H758 0.931 . S
C772 C771 1.385 . S
C772 C773 1.389 . S
C773 C772 1.389 . S
C773 C774 1.387 . S
C774 H759 0.930 . S
C774 C769 1.390 . S
C774 C773 1.387 . S
H775 C787 0.930 . S
H776 C789 0.930 . S
H777 C790 0.930 . S
H778 C794 0.959 . S
H779 C794 0.959 . S
H780 C794 0.961 . S
H781 C795 0.960 . S
H782 C795 0.961 . S
H783 C795 0.959 . S
H784 C798 0.929 . S
H785 C799 0.931 . S
H786 C801 0.930 . S
C787 H775 0.930 . S
C787 C788 1.399 . S
C787 C792 1.399 . S
C788 C787 1.399 . S
C788 C789 1.376 . S
C789 H776 0.930 . S
C789 C788 1.376 . S
C789 C790 1.388 . S
C790 H777 0.930 . S
C790 C789 1.388 . S
C790 C791 1.390 . S
C791 C790 1.390 . S
C791 C792 1.394 . S
C791 C797 1.465 1_455 S
C792 C787 1.399 . S
C792 C791 1.394 . S
C792 C793 1.516 . S
C793 C792 1.516 . S
C793 C794 1.502 . S
C793 C795 1.561 . S
C793 C796 1.526 1_455 S
C794 H778 0.959 . S
C794 H779 0.959 . S
C794 H780 0.961 . S
C794 C793 1.502 . S
C795 H781 0.960 . S
C795 H782 0.961 . S
C795 H783 0.959 . S
C795 C793 1.561 . S
C796 C793 1.526 1_655 S
C796 C797 1.396 . S
C796 C801 1.390 . S
C797 C791 1.465 1_655 S
C797 C796 1.396 . S
C797 C798 1.399 . S
C798 H784 0.929 . S
C798 C797 1.399 . S
C798 C799 1.385 . S
C799 H785 0.931 . S
C799 C798 1.385 . S
C799 C800 1.389 . S
C800 C799 1.389 . S
C800 C801 1.387 . S
C801 H786 0.930 . S
C801 C796 1.390 . S
C801 C800 1.387 . S
H802 C814 0.930 . S
H803 C816 0.930 . S
H804 C817 0.930 . S
H805 C821 0.959 . S
H806 C821 0.959 . S
H807 C821 0.961 1_565 S
H808 C822 0.959 1_655 S
H809 C822 0.961 1_655 S
H810 C822 0.959 . S
H811 C825 0.929 . S
H812 C826 0.931 . S
H813 C828 0.930 . S
C814 H802 0.930 . S
C814 C815 1.399 1_655 S
C814 C819 1.399 . S
C815 C814 1.399 1_455 S
C815 C816 1.376 . S
C816 H803 0.930 . S
C816 C815 1.376 . S
C816 C817 1.388 . S
C817 H804 0.930 . S
C817 C816 1.388 . S
C817 C818 1.390 . S
C818 C817 1.390 . S
C818 C819 1.394 1_455 S
C818 C824 1.465 1_565 S
C819 C814 1.399 . S
C819 C818 1.394 1_655 S
C819 C820 1.516 1_565 S
C820 C819 1.516 1_545 S
C820 C821 1.502 . S
C820 C822 1.561 1_655 S
C820 C823 1.526 . S
C821 H805 0.959 . S
C821 H806 0.959 . S
C821 H807 0.961 1_545 S
C821 C820 1.502 . S
C822 H808 0.959 1_455 S
C822 H809 0.961 1_455 S
C822 H810 0.959 . S
C822 C820 1.561 1_455 S
C823 C820 1.526 . S
C823 C824 1.396 1_655 S
C823 C828 1.390 . S
C824 C818 1.465 1_545 S
C824 C823 1.396 1_455 S
C824 C825 1.399 . S
C825 H811 0.929 . S
C825 C824 1.399 . S
C825 C826 1.385 . S
C826 H812 0.931 . S
C826 C825 1.385 . S
C826 C827 1.389 1_455 S
C827 C826 1.389 1_655 S
C827 C828 1.387 . S
C828 H813 0.930 . S
C828 C823 1.390 . S
C828 C827 1.387 . S
H829 C841 0.930 . S
H830 C843 0.930 . S
H831 C844 0.930 . S
H832 C848 0.959 . S
H833 C848 0.959 . S
H834 C848 0.961 . S
H835 C849 0.960 . S
H836 C849 0.961 . S
H837 C849 0.959 . S
H838 C852 0.929 . S
H839 C853 0.931 . S
H840 C855 0.930 . S
C841 H829 0.930 . S
C841 C842 1.399 1_565 S
C841 C846 1.399 . S
C842 C841 1.399 1_545 S
C842 C843 1.376 . S
C843 H830 0.930 . S
C843 C842 1.376 . S
C843 C844 1.388 . S
C844 H831 0.930 . S
C844 C843 1.388 . S
C844 C845 1.390 . S
C845 C844 1.390 . S
C845 C846 1.394 1_545 S
C845 C851 1.465 . S
C846 C841 1.399 . S
C846 C845 1.394 1_565 S
C846 C847 1.516 . S
C847 C846 1.516 . S
C847 C848 1.502 . S
C847 C849 1.561 . S
C847 C850 1.526 . S
C848 H832 0.959 . S
C848 H833 0.959 . S
C848 H834 0.961 . S
C848 C847 1.502 . S
C849 H835 0.960 . S
C849 H836 0.961 . S
C849 H837 0.959 . S
C849 C847 1.561 . S
C850 C847 1.526 . S
C850 C851 1.396 1_565 S
C850 C855 1.390 . S
C851 C845 1.465 . S
C851 C850 1.396 1_545 S
C851 C852 1.399 . S
C852 H838 0.929 . S
C852 C851 1.399 . S
C852 C853 1.385 . S
C853 H839 0.931 . S
C853 C852 1.385 . S
C853 C854 1.389 1_545 S
C854 C853 1.389 1_565 S
C854 C855 1.387 . S
C855 H840 0.930 . S
C855 C850 1.390 . S
C855 C854 1.387 . S
H856 C868 0.930 . S
H857 C870 0.930 . S
H858 C871 0.930 . S
H859 C875 0.959 . S
H860 C875 0.959 . S
H861 C875 0.961 . S
H862 C876 0.960 . S
H863 C876 0.961 . S
H864 C876 0.959 . S
H865 C879 0.929 . S
H866 C880 0.931 . S
H867 C882 0.930 . S
C868 H856 0.930 . S
C868 C869 1.399 . S
C868 C873 1.399 . S
C869 C868 1.399 . S
C869 C870 1.376 . S
C870 H857 0.930 . S
C870 C869 1.376 . S
C870 C871 1.388 . S
C871 H858 0.930 . S
C871 C870 1.388 . S
C871 C872 1.390 . S
C872 C871 1.390 . S
C872 C873 1.394 . S
C872 C878 1.465 . S
C873 C868 1.399 . S
C873 C872 1.394 . S
C873 C874 1.516 . S
C874 C873 1.516 . S
C874 C875 1.502 . S
C874 C876 1.561 . S
C874 C877 1.526 . S
C875 H859 0.959 . S
C875 H860 0.959 . S
C875 H861 0.961 . S
C875 C874 1.502 . S
C876 H862 0.960 . S
C876 H863 0.961 . S
C876 H864 0.959 . S
C876 C874 1.561 . S
C877 C874 1.526 . S
C877 C878 1.396 . S
C877 C882 1.390 . S
C878 C872 1.465 . S
C878 C877 1.396 . S
C878 C879 1.399 . S
C879 H865 0.929 . S
C879 C878 1.399 . S
C879 C880 1.385 . S
C880 H866 0.931 . S
C880 C879 1.385 . S
C880 C881 1.389 . S
C881 C880 1.389 . S
C881 C882 1.387 . S
C882 H867 0.930 . S
C882 C877 1.390 . S
C882 C881 1.387 . S
H883 C895 0.930 . S
H884 C897 0.930 . S
H885 C898 0.930 . S
H886 C902 0.959 . S
H887 C902 0.959 . S
H888 C902 0.961 . S
H889 C903 0.960 . S
H890 C903 0.961 . S
H891 C903 0.959 . S
H892 C906 0.929 . S
H893 C907 0.931 . S
H894 C909 0.930 . S
C895 H883 0.930 . S
C895 C896 1.399 . S
C895 C900 1.399 . S
C896 C895 1.399 . S
C896 C897 1.376 . S
C897 H884 0.930 . S
C897 C896 1.376 . S
C897 C898 1.388 . S
C898 H885 0.930 . S
C898 C897 1.388 . S
C898 C899 1.390 . S
C899 C898 1.390 . S
C899 C900 1.394 . S
C899 C905 1.465 . S
C900 C895 1.399 . S
C900 C899 1.394 . S
C900 C901 1.516 . S
C901 C900 1.516 . S
C901 C902 1.502 . S
C901 C903 1.561 . S
C901 C904 1.526 . S
C902 H886 0.959 . S
C902 H887 0.959 . S
C902 H888 0.961 . S
C902 C901 1.502 . S
C903 H889 0.960 . S
C903 H890 0.961 . S
C903 H891 0.959 . S
C903 C901 1.561 . S
C904 C901 1.526 . S
C904 C905 1.396 . S
C904 C909 1.390 . S
C905 C899 1.465 . S
C905 C904 1.396 . S
C905 C906 1.399 . S
C906 H892 0.929 . S
C906 C905 1.399 . S
C906 C907 1.385 . S
C907 H893 0.931 . S
C907 C906 1.385 . S
C907 C908 1.389 . S
C908 C907 1.389 . S
C908 C909 1.387 . S
C909 H894 0.930 . S
C909 C904 1.390 . S
C909 C908 1.387 . S
H910 C922 0.930 . S
H911 C924 0.930 . S
H912 C925 0.930 . S
H913 C929 0.959 . S
H914 C929 0.959 . S
H915 C929 0.961 . S
H916 C930 0.960 . S
H917 C930 0.961 . S
H918 C930 0.959 . S
H919 C933 0.929 . S
H920 C934 0.931 . S
H921 C936 0.930 . S
C922 H910 0.930 . S
C922 C923 1.399 . S
C922 C927 1.399 . S
C923 C922 1.399 . S
C923 C924 1.376 . S
C924 H911 0.930 . S
C924 C923 1.376 . S
C924 C925 1.388 . S
C925 H912 0.930 . S
C925 C924 1.388 . S
C925 C926 1.390 . S
C926 C925 1.390 . S
C926 C927 1.394 . S
C926 C932 1.465 . S
C927 C922 1.399 . S
C927 C926 1.394 . S
C927 C928 1.516 . S
C928 C927 1.516 . S
C928 C929 1.502 . S
C928 C930 1.561 . S
C928 C931 1.526 . S
C929 H913 0.959 . S
C929 H914 0.959 . S
C929 H915 0.961 . S
C929 C928 1.502 . S
C930 H916 0.960 . S
C930 H917 0.961 . S
C930 H918 0.959 . S
C930 C928 1.561 . S
C931 C928 1.526 . S
C931 C932 1.396 . S
C931 C936 1.390 . S
C932 C926 1.465 . S
C932 C931 1.396 . S
C932 C933 1.399 . S
C933 H919 0.929 . S
C933 C932 1.399 . S
C933 C934 1.385 . S
C934 H920 0.931 . S
C934 C933 1.385 . S
C934 C935 1.389 . S
C935 C934 1.389 . S
C935 C936 1.387 . S
C936 H921 0.930 . S
C936 C931 1.390 . S
C936 C935 1.387 . S
H937 C949 0.930 . S
H938 C951 0.930 . S
H939 C952 0.930 . S
H940 C956 0.959 . S
H941 C956 0.959 . S
H942 C956 0.961 . S
H943 C957 0.960 . S
H944 C957 0.961 . S
H945 C957 0.959 . S
H946 C960 0.929 . S
H947 C961 0.931 . S
H948 C963 0.930 . S
C949 H937 0.930 . S
C949 C950 1.399 . S
C949 C954 1.399 . S
C950 C949 1.399 . S
C950 C951 1.376 . S
C951 H938 0.930 . S
C951 C950 1.376 . S
C951 C952 1.388 . S
C952 H939 0.930 . S
C952 C951 1.388 . S
C952 C953 1.390 . S
C953 C952 1.390 . S
C953 C954 1.394 . S
C953 C959 1.465 . S
C954 C949 1.399 . S
C954 C953 1.394 . S
C954 C955 1.516 . S
C955 C954 1.516 . S
C955 C956 1.502 . S
C955 C957 1.561 . S
C955 C958 1.526 . S
C956 H940 0.959 . S
C956 H941 0.959 . S
C956 H942 0.961 . S
C956 C955 1.502 . S
C957 H943 0.960 . S
C957 H944 0.961 . S
C957 H945 0.959 . S
C957 C955 1.561 . S
C958 C955 1.526 . S
C958 C959 1.396 . S
C958 C963 1.390 . S
C959 C953 1.465 . S
C959 C958 1.396 . S
C959 C960 1.399 . S
C960 H946 0.929 . S
C960 C959 1.399 . S
C960 C961 1.385 . S
C961 H947 0.931 . S
C961 C960 1.385 . S
C961 C962 1.389 . S
C962 C961 1.389 . S
C962 C963 1.387 . S
C963 H948 0.930 . S
C963 C958 1.390 . S
C963 C962 1.387 . S
H964 C976 0.930 . S
H965 C978 0.930 . S
H966 C979 0.930 . S
H967 C983 0.959 . S
H968 C983 0.959 . S
H969 C983 0.961 . S
H970 C984 0.960 . S
H971 C984 0.961 . S
H972 C984 0.959 . S
H973 C987 0.929 . S
H974 C988 0.931 . S
H975 C990 0.930 . S
C976 H964 0.930 . S
C976 C977 1.399 . S
C976 C981 1.399 . S
C977 C976 1.399 . S
C977 C978 1.376 . S
C978 H965 0.930 . S
C978 C977 1.376 . S
C978 C979 1.388 . S
C979 H966 0.930 . S
C979 C978 1.388 . S
C979 C980 1.390 . S
C980 C979 1.390 . S
C980 C981 1.394 . S
C980 C986 1.465 . S
C981 C976 1.399 . S
C981 C980 1.394 . S
C981 C982 1.516 . S
C982 C981 1.516 . S
C982 C983 1.502 . S
C982 C984 1.561 . S
C982 C985 1.526 . S
C983 H967 0.959 . S
C983 H968 0.959 . S
C983 H969 0.961 . S
C983 C982 1.502 . S
C984 H970 0.960 . S
C984 H971 0.961 . S
C984 H972 0.959 . S
C984 C982 1.561 . S
C985 C982 1.526 . S
C985 C986 1.396 . S
C985 C990 1.390 . S
C986 C980 1.465 . S
C986 C985 1.396 . S
C986 C987 1.399 . S
C987 H973 0.929 . S
C987 C986 1.399 . S
C987 C988 1.385 . S
C988 H974 0.931 . S
C988 C987 1.385 . S
C988 C989 1.389 . S
C989 C988 1.389 . S
C989 C990 1.387 . S
C990 H975 0.930 . S
C990 C985 1.390 . S
C990 C989 1.387 . S
H991 C1003 0.930 . S
H992 C1005 0.930 . S
H993 C1006 0.930 . S
H994 C1010 0.959 . S
H995 C1010 0.959 . S
H996 C1010 0.961 . S
H997 C1011 0.960 . S
H998 C1011 0.961 . S
H999 C1011 0.959 . S
H1000 C1014 0.929 . S
H1001 C1015 0.931 . S
H1002 C1017 0.930 . S
C1003 H991 0.930 . S
C1003 C1004 1.399 . S
C1003 C1008 1.399 . S
C1004 C1003 1.399 . S
C1004 C1005 1.376 . S
C1005 H992 0.930 . S
C1005 C1004 1.376 . S
C1005 C1006 1.388 . S
C1006 H993 0.930 . S
C1006 C1005 1.388 . S
C1006 C1007 1.390 . S
C1007 C1006 1.390 . S
C1007 C1008 1.394 . S
C1007 C1013 1.465 . S
C1008 C1003 1.399 . S
C1008 C1007 1.394 . S
C1008 C1009 1.516 . S
C1009 C1008 1.516 . S
C1009 C1010 1.502 . S
C1009 C1011 1.561 . S
C1009 C1012 1.526 . S
C1010 H994 0.959 . S
C1010 H995 0.959 . S
C1010 H996 0.961 . S
C1010 C1009 1.502 . S
C1011 H997 0.960 . S
C1011 H998 0.961 . S
C1011 H999 0.959 . S
C1011 C1009 1.561 . S
C1012 C1009 1.526 . S
C1012 C1013 1.396 . S
C1012 C1017 1.390 . S
C1013 C1007 1.465 . S
C1013 C1012 1.396 . S
C1013 C1014 1.399 . S
C1014 H1000 0.929 . S
C1014 C1013 1.399 . S
C1014 C1015 1.385 . S
C1015 H1001 0.931 . S
C1015 C1014 1.385 . S
C1015 C1016 1.389 . S
C1016 C1015 1.389 . S
C1016 C1017 1.387 . S
C1017 H1002 0.930 . S
C1017 C1012 1.390 . S
C1017 C1016 1.387 . S
H1018 C1030 0.930 . S
H1019 C1032 0.930 . S
H1020 C1033 0.930 . S
H1021 C1037 0.959 . S
H1022 C1037 0.959 . S
H1023 C1037 0.961 . S
H1024 C1038 0.960 . S
H1025 C1038 0.961 . S
H1026 C1038 0.959 . S
H1027 C1041 0.929 . S
H1028 C1042 0.931 . S
H1029 C1044 0.930 . S
C1030 H1018 0.930 . S
C1030 C1031 1.399 . S
C1030 C1035 1.399 . S
C1031 C1030 1.399 . S
C1031 C1032 1.376 . S
C1032 H1019 0.930 . S
C1032 C1031 1.376 . S
C1032 C1033 1.388 . S
C1033 H1020 0.930 . S
C1033 C1032 1.388 . S
C1033 C1034 1.390 . S
C1034 C1033 1.390 . S
C1034 C1035 1.394 . S
C1034 C1040 1.465 . S
C1035 C1030 1.399 . S
C1035 C1034 1.394 . S
C1035 C1036 1.516 . S
C1036 C1035 1.516 . S
C1036 C1037 1.502 . S
C1036 C1038 1.561 . S
C1036 C1039 1.526 . S
C1037 H1021 0.959 . S
C1037 H1022 0.959 . S
C1037 H1023 0.961 . S
C1037 C1036 1.502 . S
C1038 H1024 0.960 . S
C1038 H1025 0.961 . S
C1038 H1026 0.959 . S
C1038 C1036 1.561 . S
C1039 C1036 1.526 . S
C1039 C1040 1.396 . S
C1039 C1044 1.390 . S
C1040 C1034 1.465 . S
C1040 C1039 1.396 . S
C1040 C1041 1.399 . S
C1041 H1027 0.929 . S
C1041 C1040 1.399 . S
C1041 C1042 1.385 . S
C1042 H1028 0.931 . S
C1042 C1041 1.385 . S
C1042 C1043 1.389 . S
C1043 C1042 1.389 . S
C1043 C1044 1.387 . S
C1044 H1029 0.930 . S
C1044 C1039 1.390 . S
C1044 C1043 1.387 . S
H1045 C1057 0.930 . S
H1046 C1059 0.930 . S
H1047 C1060 0.930 . S
H1048 C1064 0.959 . S
H1049 C1064 0.959 1_565 S
H1050 C1064 0.961 1_565 S
H1051 C1065 0.960 . S
H1052 C1065 0.961 . S
H1053 C1065 0.959 1_545 S
H1054 C1068 0.929 . S
H1055 C1069 0.931 . S
H1056 C1071 0.930 . S
C1057 H1045 0.930 . S
C1057 C1058 1.399 . S
C1057 C1062 1.399 . S
C1058 C1057 1.399 . S
C1058 C1059 1.376 . S
C1059 H1046 0.930 . S
C1059 C1058 1.376 . S
C1059 C1060 1.388 . S
C1060 H1047 0.930 . S
C1060 C1059 1.388 . S
C1060 C1061 1.390 . S
C1061 C1060 1.390 . S
C1061 C1062 1.394 . S
C1061 C1067 1.465 . S
C1062 C1057 1.399 . S
C1062 C1061 1.394 . S
C1062 C1063 1.516 . S
C1063 C1062 1.516 . S
C1063 C1064 1.502 . S
C1063 C1065 1.561 1_545 S
C1063 C1066 1.526 . S
C1064 H1048 0.959 . S
C1064 H1049 0.959 1_545 S
C1064 H1050 0.961 1_545 S
C1064 C1063 1.502 . S
C1065 H1051 0.960 . S
C1065 H1052 0.961 . S
C1065 H1053 0.959 1_565 S
C1065 C1063 1.561 1_565 S
C1066 C1063 1.526 . S
C1066 C1067 1.396 . S
C1066 C1071 1.390 . S
C1067 C1061 1.465 . S
C1067 C1066 1.396 . S
C1067 C1068 1.399 . S
C1068 H1054 0.929 . S
C1068 C1067 1.399 . S
C1068 C1069 1.385 . S
C1069 H1055 0.931 . S
C1069 C1068 1.385 . S
C1069 C1070 1.389 . S
C1070 C1069 1.389 . S
C1070 C1071 1.387 . S
C1071 H1056 0.930 . S
C1071 C1066 1.390 . S
C1071 C1070 1.387 . S
C221 C5 0.762 . S
C233 C125 0.727 . S
C248 C138 0.683 . S
C260 C18 0.677 . S
C275 C151 0.627 . S
C287 C31 0.601 . S
C302 C112 0.729 . S
C314 C44 0.781 . S
C329 C57 0.780 . S
C341 C203 0.717 . S
C356 C164 0.636 . S
C368 C70 0.612 . S
C383 C177 0.728 . S
C395 C83 0.760 . S
C410 C190 0.577 . S
C422 C96 0.566 . S
C437 C109 0.717 . S
C449 C21 0.665 . S
C464 C122 0.722 . S
C476 C34 0.704 . S
C491 C135 0.563 . S
C503 C47 0.579 . S
C518 C8 0.580 . S
C530 C148 0.562 . S
C545 C161 0.563 . S
C557 C99 0.579 . S
C572 C174 0.783 . S
C584 C60 0.726 . S
C599 C73 0.658 . S
C611 C187 0.649 . S
C626 C200 0.683 . S
C638 C86 0.639 . S
C653 C104 1.533 . S
C665 C0 1.521 . S
C680 C13 1.495 . S
C692 C117 1.553 . S
C707 C130 1.524 . S
C719 C26 1.511 . S
C734 C39 1.535 . S
C746 C143 1.501 . S
C761 C156 1.536 . S
C773 C52 1.518 . S
C788 C65 1.490 . S
C800 C169 1.549 . S
C815 C182 1.510 . S
C827 C78 1.524 . S
C842 C195 1.489 . S
C854 C91 1.553 . S
C869 C62 1.602 . S
C881 C10 1.644 . S
C896 C75 1.634 . S
C908 C23 1.666 . S
C923 C36 1.602 . S
C935 C88 1.650 . S
C950 C101 1.637 . S
C962 C49 1.665 . S
C977 C114 1.616 . S
C989 C166 1.605 . S
C1004 C179 1.666 . S
C1016 C127 1.630 . S
C1031 C192 1.636 . S
C1043 C140 1.667 . S
C1058 C205 1.602 . S
C1070 C153 1.626 . S
