# Generated by pormake.
# Topology sxb, (6)-cn, num edge types: 1
# Building blocks:
#     Node 0, Type 0, BuildingBlock: KUMBUR_clean_sbu_1, # of connection points: 6
#     Node 1, Type 0, BuildingBlock: KUMBUR_clean_sbu_1, # of connection points: 6
#     Node 2, Type 0, BuildingBlock: KUMBUR_clean_sbu_1, # of connection points: 6
#     Node 3, Type 0, BuildingBlock: KUMBUR_clean_sbu_1, # of connection points: 6
#     Edge 4, Type (0, 0), BuildingBlock: ZUJKAS_clean_linker_0, # of connection points: 2
#     Edge 5, Type (0, 0), BuildingBlock: ZUJKAS_clean_linker_0, # of connection points: 2
#     Edge 6, Type (0, 0), BuildingBlock: ZUJKAS_clean_linker_0, # of connection points: 2
#     Edge 7, Type (0, 0), BuildingBlock: ZUJKAS_clean_linker_0, # of connection points: 2
#     Edge 8, Type (0, 0), BuildingBlock: ZUJKAS_clean_linker_0, # of connection points: 2
#     Edge 9, Type (0, 0), BuildingBlock: ZUJKAS_clean_linker_0, # of connection points: 2
#     Edge 10, Type (0, 0), BuildingBlock: ZUJKAS_clean_linker_0, # of connection points: 2
#     Edge 11, Type (0, 0), BuildingBlock: ZUJKAS_clean_linker_0, # of connection points: 2
#     Edge 12, Type (0, 0), BuildingBlock: ZUJKAS_clean_linker_0, # of connection points: 2
#     Edge 13, Type (0, 0), BuildingBlock: ZUJKAS_clean_linker_0, # of connection points: 2
#     Edge 14, Type (0, 0), BuildingBlock: ZUJKAS_clean_linker_0, # of connection points: 2
#     Edge 15, Type (0, 0), BuildingBlock: ZUJKAS_clean_linker_0, # of connection points: 2
# Relax obj value: 0.009
# Max RMSD: 0.046
# Mean RMSD: 0.046
data_MOF--net-sxb--node1-KUMBUR_clean_sbu_1--edge1-ZUJKAS_clean_linker_0
_symmetry_space_group_name_H-M    P1
_symmetry_Int_Tables_number       1
_symmetry_cell_setting            triclinic
loop_
_symmetry_equiv_pos_as_xyz
'x, y, z'
_cell_length_a     19.459855
_cell_length_b     55.414261
_cell_length_c     38.527196
_cell_angle_alpha  115.04608
_cell_angle_beta   89.976941
_cell_angle_gamma 89.924831
loop_
_atom_site_label
_atom_site_type_symbol
_atom_site_fract_x
_atom_site_fract_y
_atom_site_fract_z
_atom_type_partial_charge
Tb0 Tb 0.03125 0.96756 0.98116 0.0
C1 C 0.1612 0.07387 0.06536 0.0
N2 N 0.09993 0.06473 0.07208 0.0
C3 C 0.13005 0.07987 0.1385 0.0
C4 C 0.21056 0.08515 0.09462 0.0
C5 C 0.08219 0.06947 0.10879 0.0
C6 C 0.19509 0.08725 0.13123 0.0
C7 C 0.23215 0.08537 0.02264 0.0
C8 C 0.17192 0.07423 0.02999 0.0
C9 C 0.28284 0.0954 0.0511 0.0
C10 C 0.27211 0.09526 0.08699 0.0
Tb11 Tb 1.02611 0.04875 0.02075 0.0
N12 N 0.12201 0.06421 0.00301 0.0
C13 C 0.239 0.08645 0.98713 0.0
C14 C 0.12721 0.06599 0.96881 0.0
C15 C 0.18604 0.0769 0.96022 0.0
H16 H 0.03047 0.06627 0.11592 0.0
H17 H 0.19045 0.07798 0.93291 0.0
H18 H 0.96736 0.95325 0.89486 0.0
H19 H 0.95766 0.93716 0.09209 0.0
H20 H 0.08608 0.05883 0.94818 0.0
H21 H 0.28448 0.09491 0.98042 0.0
H22 H 0.03291 0.95781 0.0609 0.0
H23 H 0.11598 0.08294 0.16726 0.0
H24 H 0.32981 0.10384 0.04593 0.0
H25 H 0.31077 0.10382 0.10906 0.0
H26 H 0.8676 0.92911 0.85655 0.0
H27 H 0.23152 0.09586 0.15452 0.0
H28 H 0.85184 0.91386 0.05963 0.0
N29 N 0.93998 0.94645 0.94344 0.0
C30 C 0.89744 0.93337 0.95767 0.0
C31 C 0.87505 0.93038 0.88511 0.0
C32 C 0.84015 0.91913 0.93669 0.0
C33 C 0.93124 0.9443 0.90706 0.0
C34 C 0.82895 0.91792 0.90009 0.0
N35 N 0.9668 0.94898 0.01314 0.0
C36 C 0.98497 0.94912 0.04746 0.0
C37 C 0.86744 0.92214 0.01008 0.0
C38 C 0.91081 0.93503 0.99395 0.0
C39 C 0.88379 0.92353 0.04624 0.0
C40 C 0.94324 0.93683 0.06479 0.0
H41 H 0.78547 0.90717 0.88301 0.0
H42 H 0.75173 0.89555 0.93723 0.0
H43 H 0.77575 0.89809 0.00143 0.0
O44 O 0.07143 0.93199 0.98102 0.0
O45 O 0.92864 0.98498 0.98257 0.0
O46 O 0.92487 0.03122 0.01894 0.0
O47 O 0.09436 0.94353 0.93477 0.0
O48 O 0.0566 0.99355 0.04062 0.0
O49 O 0.98969 0.03122 0.05906 0.0
O50 O 0.98385 0.07545 0.00011 0.0
O51 O 0.11824 0.02509 0.99216 0.0
O52 O 0.11852 0.99194 0.01239 0.0
O53 O 0.98708 0.08546 0.06012 0.0
O54 O 0.99221 0.02471 0.96196 0.0
O55 O 0.05247 0.98465 0.94015 0.0
C56 C 0.89566 1.00776 0.00041 0.0
C57 C 0.1439 0.90142 0.92924 0.0
C58 C 0.19876 0.86125 0.92823 0.0
C59 C 0.22199 0.85499 0.89082 0.0
C60 C 0.16812 0.89463 0.89194 0.0
C61 C 0.20661 0.87153 0.87288 0.0
C62 C 0.15882 0.88446 0.94726 0.0
C63 C 1.01666 0.01177 0.0656 0.0
C64 C 0.10222 0.92588 0.94852 0.0
C65 C 0.79618 0.90657 0.95285 0.0
C66 C 0.80981 0.90806 0.98945 0.0
C67 C 0.15182 1.00804 0.00136 0.0
C68 C 0.99791 0.12104 0.04247 0.0
C69 C 0.97705 0.16519 0.04476 0.0
C70 C 0.04106 0.17358 0.06276 0.0
C71 C 0.06086 0.13016 0.06125 0.0
C72 C 0.95618 0.13863 0.03403 0.0
C73 C 0.08261 0.15613 0.07083 0.0
C74 C 1.02267 1.00419 0.93459 0.0
C75 C 0.97328 0.09398 0.0343 0.0
H76 H 0.2516 0.83706 0.87518 0.0
H77 H 0.15688 0.9071 0.87729 0.0
H78 H 0.22459 0.86638 0.84401 0.0
H79 H 0.14051 0.88947 0.97607 0.0
H80 H 0.05888 0.19375 0.07078 0.0
H81 H 0.09259 0.11751 0.06943 0.0
H82 H 0.90666 0.13196 0.02048 0.0
H83 H 0.13135 0.16289 0.08519 0.0
Tb84 Tb 0.0397 0.04775 0.52342 0.0
C85 C 0.15092 0.93149 0.4186 0.0
N86 N 0.08857 0.94206 0.417 0.0
C87 C 0.09102 0.92025 0.34834 0.0
C88 C 0.18627 0.91504 0.3849 0.0
C89 C 0.05775 0.93636 0.38256 0.0
C90 C 0.15567 0.90961 0.34949 0.0
C91 C 0.24404 0.92674 0.45719 0.0
C92 C 0.17952 0.93728 0.45427 0.0
C93 C 0.27952 0.91035 0.42368 0.0
C94 C 0.25075 0.90454 0.38764 0.0
Tb95 Tb 0.03984 0.96747 0.47487 0.0
N96 N 0.14486 0.954 0.48609 0.0
C97 C 0.27102 0.93314 0.49371 0.0
C98 C 0.16939 0.95932 0.52176 0.0
C99 C 0.23326 0.94933 0.52612 0.0
H100 H 1.0067 0.94359 0.38137 0.0
H101 H 0.25311 0.95397 0.55447 0.0
H102 H 0.06017 0.07123 0.61767 0.0
H103 H 0.84179 0.0641 0.43737 0.0
H104 H 0.13997 0.97114 0.54685 0.0
H105 H 0.32054 0.92549 0.49721 0.0
H106 H 0.95398 0.04847 0.44915 0.0
H107 H 0.06647 0.91581 0.32111 0.0
H108 H 0.32928 0.9021 0.42532 0.0
H109 H 0.27874 0.89186 0.36206 0.0
H110 H 0.99133 0.0962 0.67571 0.0
H111 H 0.18117 0.89705 0.32292 0.0
H112 H 0.76327 0.08838 0.49163 0.0
N113 N 0.98203 0.0714 0.57929 0.0
C114 C 0.9191 0.08073 0.57563 0.0
C115 C 0.9701 0.09175 0.6477 0.0
C116 C 0.87866 0.09573 0.60798 0.0
C117 C 1.00856 0.07717 0.61472 0.0
C118 C 0.90465 0.10093 0.64433 0.0
N119 N 0.93724 0.06145 0.50879 0.0
C120 C 0.91936 0.05794 0.47275 0.0
C121 C 0.8324 0.08595 0.53406 0.0
C122 C 0.89634 0.07599 0.53919 0.0
C123 C 0.8121 0.0811 0.49685 0.0
C124 C 0.85613 0.06728 0.46612 0.0
H125 H 0.87523 0.11242 0.66995 0.0
H126 H 0.78237 0.11689 0.62753 0.0
H127 H 0.74178 0.10825 0.5628 0.0
O128 O 0.08011 0.07074 0.49631 0.0
O129 O 0.94285 0.02671 0.52349 0.0
O130 O 0.94239 0.98579 0.47072 0.0
O131 O 0.08686 0.08442 0.55722 0.0
O132 O 0.06243 0.02537 0.46197 0.0
O133 O 1.00085 0.98599 0.43885 0.0
O134 O 1.01052 0.9452 0.50506 0.0
O135 O 0.13624 0.98818 0.47357 0.0
O136 O 0.13554 0.02843 0.5271 0.0
O137 O 0.99415 0.92995 0.44432 0.0
O138 O 1.01424 0.99022 0.53559 0.0
O139 O 0.07734 0.02902 0.55973 0.0
C140 C 0.91032 1.00619 0.49735 0.0
C141 C 0.07591 0.11734 0.53365 0.0
C142 C 0.09651 0.158 0.52497 0.0
C143 C 0.03311 0.16809 0.54275 0.0
C144 C 1.01383 0.12831 0.55214 0.0
C145 C 0.99231 0.15334 0.55632 0.0
C146 C 0.11779 0.13246 0.52041 0.0
C147 C 0.02944 1.00599 0.43431 0.0
C148 C 0.09737 0.09041 0.52849 0.0
C149 C 0.81433 0.10538 0.60302 0.0
C150 C 0.79125 0.1005 0.56615 0.0
C151 C 0.16812 1.00912 0.4992 0.0
C152 C 0.91695 0.91632 0.47966 0.0
C153 C 0.84615 0.88287 0.4883 0.0
C154 C 0.7874 0.89807 0.48944 0.0
C155 C 0.85792 0.93122 0.4813 0.0
C156 C 0.91104 0.89221 0.48325 0.0
C157 C 0.79344 0.92209 0.48604 0.0
C158 C 0.04839 1.00879 0.56355 0.0
C159 C 0.98509 0.92586 0.47483 0.0
H160 H 1.01586 0.18776 0.54706 0.0
H161 H 0.98221 0.1178 0.56393 0.0
H162 H 0.94416 0.16149 0.57059 0.0
H163 H 0.16638 0.12439 0.50656 0.0
H164 H 0.7366 0.89127 0.49252 0.0
H165 H 0.86189 0.94986 0.47892 0.0
H166 H 0.95706 0.88099 0.48266 0.0
H167 H 0.74796 0.93363 0.48702 0.0
Tb168 Tb 0.52664 0.47164 0.97477 0.0
C169 C 0.66085 0.58129 0.05873 0.0
N170 N 0.60581 0.57114 0.06976 0.0
C171 C 0.65078 0.58694 0.13347 0.0
C172 C 0.71397 0.59435 0.08475 0.0
C173 C 0.59959 0.57395 0.10658 0.0
C174 C 0.70823 0.59718 0.12253 0.0
C175 C 0.72284 0.58685 0.00797 0.0
C176 C 0.66523 0.57739 0.02065 0.0
C177 C 0.77603 0.59983 0.03379 0.0
C178 C 0.77153 0.60362 0.07207 0.0
Tb179 Tb 0.52359 0.5527 0.02439 0.0
N180 N 0.61295 0.56456 0.99627 0.0
C181 C 0.72477 0.58342 0.96987 0.0
C182 C 0.6123 0.56321 0.96004 0.0
C183 C 0.66879 0.57189 0.94599 0.0
H184 H 0.55467 0.56658 0.11543 0.0
H185 H 0.6683 0.57033 0.91702 0.0
H186 H 0.56085 0.45028 0.88215 0.0
H187 H 0.32473 0.4468 0.04999 0.0
H188 H 0.5675 0.55674 0.94228 0.0
H189 H 0.76812 0.59039 0.959 0.0
H190 H 0.43456 0.46699 0.04397 0.0
H191 H 0.64576 0.58916 0.16265 0.0
H192 H 0.82071 0.60717 0.02448 0.0
H193 H 0.81301 0.61364 0.0916 0.0
H194 H 0.50209 0.42421 0.82074 0.0
H195 H 0.74795 0.60713 0.14339 0.0
H196 H 0.2555 0.42105 0.99216 0.0
N197 N 0.47864 0.44709 0.91625 0.0
C198 C 0.4169 0.43577 0.9166 0.0
C199 C 0.47727 0.4275 0.84753 0.0
C200 C 0.38237 0.42004 0.88233 0.0
C201 C 0.50993 0.44266 0.88235 0.0
C202 C 0.41298 0.41627 0.84751 0.0
N203 N 0.42527 0.45433 0.98386 0.0
C204 C 0.40399 0.45639 0.01878 0.0
C205 C 0.32737 0.42687 0.95346 0.0
C206 C 0.38967 0.43911 0.95158 0.0
C207 C 0.30326 0.43012 0.98943 0.0
C208 C 0.34212 0.44472 0.02217 0.0
H209 H 0.38813 0.40431 0.82049 0.0
H210 H 0.29183 0.39608 0.85792 0.0
H211 H 0.24368 0.40208 0.92022 0.0
O212 O 0.57602 0.45176 0.00405 0.0
O213 O 0.42403 0.48994 0.98112 0.0
O214 O 0.42155 0.53566 0.02049 0.0
O215 O 0.57771 0.43545 0.94275 0.0
O216 O 0.54243 0.49349 0.03677 0.0
O217 O 0.484 0.53385 0.06003 0.0
O218 O 0.48836 0.58544 0.01355 0.0
O219 O 0.6152 0.53015 0.02817 0.0
O220 O 0.6163 0.49382 0.97032 0.0
O221 O 0.48343 0.58597 0.07027 0.0
O222 O 0.49073 0.53161 0.9642 0.0
O223 O 0.55674 0.49347 0.94148 0.0
C224 C 0.39161 0.51265 0.00032 0.0
C225 C 0.57426 0.4048 0.97056 0.0
C226 C 0.6006 0.36606 0.98298 0.0
C227 C 0.5359 0.35536 0.96846 0.0
C228 C 0.51116 0.39305 0.95478 0.0
C229 C 0.4917 0.36874 0.95423 0.0
C230 C 0.61969 0.39095 0.98417 0.0
C231 C 0.50731 0.51269 0.06364 0.0
C232 C 0.59264 0.43127 0.9726 0.0
C233 C 0.3193 0.4082 0.88395 0.0
C234 C 0.29189 0.41159 0.91944 0.0
C235 C 0.64899 0.51157 -0.00018 0.0
C236 C 0.44139 0.62583 0.06615 0.0
C237 C 0.38912 0.6642 0.06048 0.0
C238 C 0.37944 0.67633 0.10035 0.0
C239 C 0.4313 0.63861 0.10603 0.0
C240 C 0.42097 0.63894 0.04333 0.0
C241 C 0.40075 0.66367 0.12291 0.0
C242 C 0.5172 0.51066 0.93566 0.0
C243 C 0.47164 0.59874 0.0494 0.0
H244 H 0.52038 0.3362 0.96707 0.0
H245 H 0.47718 0.40236 0.94226 0.0
H246 H 0.44259 0.36007 0.94221 0.0
H247 H 0.66933 0.39944 0.99564 0.0
H248 H 0.35571 0.69582 0.11413 0.0
H249 H 0.44678 0.62919 0.12436 0.0
H250 H 0.42829 0.62941 0.01255 0.0
H251 H 0.39327 0.67327 0.15363 0.0
Tb252 Tb 0.52456 0.55065 0.52181 0.0
C253 C 0.66953 0.44358 0.44841 0.0
N254 N 0.61553 0.4526 0.43483 0.0
C255 C 0.66834 0.43672 0.37293 0.0
C256 C 0.72628 0.4313 0.42477 0.0
C257 C 0.61342 0.44901 0.39754 0.0
C258 C 0.7251 0.42789 0.38661 0.0
C259 C 0.72455 0.43898 0.50175 0.0
C260 C 0.66852 0.4475 0.48655 0.0
C261 C 0.78171 0.42706 0.47845 0.0
C262 C 0.78248 0.42315 0.44005 0.0
Tb263 Tb 0.52668 0.46954 0.47626 0.0
N264 N 0.61217 0.45905 0.50834 0.0
C265 C 0.72079 0.44209 0.53967 0.0
C266 C 0.60611 0.45992 0.54419 0.0
C267 C 0.66087 0.45223 0.56077 0.0
H268 H 0.56915 0.4554 0.38671 0.0
H269 H 0.65606 0.45345 0.58946 0.0
H270 H 0.56451 0.57351 0.61417 0.0
H271 H 0.31952 0.57531 0.44837 0.0
H272 H 0.55839 0.46524 0.55966 0.0
H273 H 0.76274 0.43581 0.55243 0.0
H274 H 0.42921 0.5543 0.45322 0.0
H275 H 0.66675 0.43396 0.3434 0.0
H276 H 0.82527 0.42047 0.48972 0.0
H277 H 0.82677 0.41378 0.42241 0.0
H278 H 0.50888 0.60076 0.67617 0.0
H279 H 0.76767 0.41847 0.3675 0.0
H280 H 0.25367 0.60238 0.50712 0.0
N281 N 0.48004 0.57615 0.58094 0.0
C282 C 0.41866 0.58792 0.58115 0.0
C283 C 0.4826 0.59708 0.64965 0.0
C284 C 0.38603 0.60441 0.61579 0.0
C285 C 0.51341 0.58121 0.61449 0.0
C286 C 0.41835 0.60857 0.65032 0.0
N287 N 0.42276 0.56799 0.51367 0.0
C288 C 0.40011 0.56571 0.47883 0.0
C289 C 0.32747 0.59676 0.54513 0.0
C290 C 0.38969 0.58418 0.54639 0.0
C291 C 0.30142 0.59306 0.50934 0.0
C292 C 0.33835 0.57773 0.47608 0.0
H293 H 0.39495 0.62109 0.67759 0.0
H294 H 0.29708 0.62928 0.64111 0.0
H295 H 0.24583 0.62258 0.57924 0.0
O296 O 0.57082 0.56826 0.48892 0.0
O297 O 0.4226 0.53197 0.51186 0.0
O298 O 0.42242 0.48538 0.48705 0.0
O299 O 0.56658 0.58907 0.55024 0.0
O300 O 0.5422 0.52709 0.46052 0.0
O301 O 0.48522 0.48671 0.43882 0.0
O302 O 0.49879 0.43462 0.48333 0.0
O303 O 0.61533 0.49331 0.47232 0.0
O304 O 0.6174 0.53083 0.52894 0.0
O305 O 0.48637 0.43729 0.42891 0.0
O306 O 0.49187 0.49152 0.53583 0.0
O307 O 0.55493 0.53035 0.5573 0.0
C308 C 0.39156 0.50872 0.49973 0.0
C309 C 0.65629 0.60033 0.51885 0.0
C310 C 0.73025 0.63408 0.51329 0.0
C311 C 0.7879 0.62049 0.51818 0.0
C312 C 0.71418 0.58717 0.52387 0.0
C313 C 0.77965 0.59728 0.52361 0.0
C314 C 0.66432 0.62379 0.51372 0.0
C315 C 0.5061 0.50789 0.4345 0.0
C316 C 0.58708 0.58992 0.51871 0.0
C317 C 0.32309 0.61658 0.61479 0.0
C318 C 0.29392 0.61279 0.57955 0.0
C319 C 0.64959 0.51139 0.50096 0.0
C320 C 0.45338 0.39518 0.42899 0.0
C321 C 0.40294 0.35552 0.43141 0.0
C322 C 0.39961 0.34357 0.39121 0.0
C323 C 0.44959 0.38265 0.38879 0.0
C324 C 0.43081 0.38133 0.45037 0.0
C325 C 0.42315 0.35701 0.37012 0.0
C326 C 0.51688 0.5131 0.56379 0.0
C327 C 0.48011 0.4227 0.44765 0.0
H328 H 0.8393 0.62807 0.51855 0.0
H329 H 0.70855 0.56925 0.52817 0.0
H330 H 0.82404 0.58722 0.52795 0.0
H331 H 0.61927 0.63385 0.50965 0.0
H332 H 0.37898 0.32367 0.37606 0.0
H333 H 0.46714 0.39268 0.37164 0.0
H334 H 0.43318 0.39074 0.48139 0.0
H335 H 0.42056 0.34755 0.33915 0.0
H336 H 0.46569 0.68194 0.01635 0.0
H337 H 0.4294 0.71457 0.99217 0.0
H338 H 0.22261 0.71201 0.03079 0.0
H339 H 0.25907 0.68004 0.05566 0.0
H340 H 0.32869 0.71642 0.94133 0.0
H341 H 0.2722 0.79027 0.08969 0.0
H342 H 0.31855 0.75978 0.07945 0.0
H343 H 0.22643 0.75947 0.07555 0.0
C344 C 0.41223 0.68792 0.01878 0.0
C345 C 0.36518 0.67867 0.03801 0.0
C346 C 0.3916 0.70666 0.00523 0.0
C347 C 0.3237 0.71633 0.01071 0.0
C348 C 0.27566 0.70546 0.02725 0.0
H349 H 0.11411 0.84061 0.96623 0.0
H350 H 0.14299 0.80579 0.98759 0.0
C351 C 0.29632 0.687 0.04106 0.0
C352 C 0.30369 0.73863 0.00091 0.0
H353 H 0.24144 0.80244 0.03972 0.0
C354 C 0.3098 0.73524 0.96284 0.0
C355 C 0.2789 0.76323 0.02903 0.0
C356 C 0.27415 0.76859 0.07079 0.0
C357 C 0.29095 0.75559 0.95202 0.0
C358 C 0.26655 0.78023 0.98016 0.0
C359 C 0.25995 0.78356 0.01818 0.0
C360 C 0.24987 0.80296 0.97068 0.0
C361 C 0.29633 0.75037 0.91036 0.0
C362 C 0.3009 0.81376 0.95576 0.0
C363 C 0.2846 0.83351 0.94363 0.0
C364 C 0.21695 0.84315 0.94645 0.0
C365 C 0.16664 0.83357 0.96366 0.0
C366 C 0.18301 0.8136 0.97568 0.0
H367 H 0.29719 0.7287 0.89133 0.0
H368 H 0.25281 0.75963 0.90176 0.0
H369 H 0.34483 0.75912 0.90575 0.0
H370 H 0.35325 0.80648 0.95273 0.0
H371 H 0.32478 0.84089 0.93122 0.0
H372 H 0.57736 0.34721 0.03643 0.0
H373 H 0.64511 0.31392 0.04757 0.0
H374 H 0.7948 0.3137 0.96475 0.0
H375 H 0.72796 0.34773 0.95456 0.0
H376 H 0.67032 0.2644 0.99509 0.0
H377 H 0.91796 0.316 0.04989 0.0
H378 H 0.84165 0.33353 0.04683 0.0
H379 H 0.89271 0.31545 0.00478 0.0
C380 C 0.62576 0.34056 0.02146 0.0
C381 C 0.64795 0.35011 0.99493 0.0
C382 C 0.66415 0.32143 0.02761 0.0
C383 C 0.7252 0.31134 0.00712 0.0
C384 C 0.74868 0.32156 0.98149 0.0
H385 H 0.90767 0.159 0.97948 0.0
H386 H 0.84376 0.19329 0.96827 0.0
C387 C 0.7106 0.341 0.9757 0.0
C388 C 0.76116 0.28889 0.01082 0.0
H389 H 0.91448 0.26978 0.03427 0.0
C390 C 0.7237 0.2656 0.00376 0.0
C391 C 0.83073 0.29048 0.02216 0.0
C392 C 0.87301 0.31529 0.0317 0.0
C393 C 0.7536 0.24399 0.00818 0.0
C394 C 0.82336 0.24547 0.01911 0.0
C395 C 0.86104 0.26863 0.02572 0.0
C396 C 0.85771 0.22393 0.02587 0.0
C397 C 0.70963 0.22014 0.00225 0.0
C398 C 0.88663 0.22972 0.06186 0.0
C399 C 0.92338 0.21033 0.06815 0.0
C400 C 0.93219 0.18469 0.03856 0.0
C401 C 0.9013 0.17855 0.00284 0.0
C402 C 0.86475 0.19811 0.99645 0.0
H403 H 0.65393 0.22486 0.0034 0.0
H404 H 0.72083 0.20392 0.97363 0.0
H405 H 0.7209 0.21265 0.0242 0.0
H406 H 0.88149 0.24943 0.08503 0.0
H407 H 0.94573 0.21551 0.09615 0.0
H408 H 0.23238 0.17086 0.54128 0.0
H409 H 0.29623 0.20587 0.53168 0.0
H410 H 0.12187 0.21884 0.47261 0.0
H411 H 0.05811 0.18418 0.48226 0.0
H412 H 0.32954 0.21493 0.46504 0.0
H413 H 0.15282 0.2918 0.56401 0.0
H414 H 0.15704 0.25844 0.56111 0.0
H415 H 0.10941 0.26503 0.52604 0.0
C416 C 0.20842 0.18081 0.52552 0.0
C417 C 0.14005 0.17508 0.51291 0.0
C418 C 0.24469 0.20088 0.52028 0.0
C419 C 0.21301 0.21542 0.50237 0.0
C420 C 0.1466 0.20835 0.48739 0.0
H421 H 0.27403 0.33644 0.42791 0.0
H422 H 0.23404 0.30435 0.4516 0.0
C423 C 0.11039 0.18847 0.49273 0.0
C424 C 0.24748 0.23872 0.50052 0.0
H425 H 0.22518 0.30512 0.52508 0.0
C426 C 0.30755 0.23476 0.47863 0.0
C427 C 0.21882 0.2646 0.51856 0.0
C428 C 0.15634 0.27035 0.54407 0.0
C429 C 0.33738 0.25572 0.47241 0.0
C430 C 0.30689 0.28135 0.48911 0.0
C431 C 0.24853 0.2855 0.51234 0.0
C432 C 0.32994 0.30326 0.47931 0.0
C433 C 0.39908 0.24995 0.44637 0.0
C434 C 0.39624 0.3142 0.48845 0.0
C435 C 0.41903 0.33279 0.47513 0.0
C436 C 0.37581 0.34053 0.45242 0.0
C437 C 0.30832 0.33071 0.44528 0.0
C438 C 0.28552 0.31236 0.45875 0.0
H439 H 0.40903 0.22824 0.43058 0.0
H440 H 0.39191 0.25851 0.42524 0.0
H441 H 0.44522 0.25931 0.46373 0.0
H442 H 0.43093 0.30777 0.50487 0.0
H443 H 0.47139 0.34002 0.48083 0.0
H444 H 0.76115 0.87211 0.53659 0.0
H445 H 0.74392 0.82954 0.54009 0.0
H446 H 0.89813 0.7933 0.45291 0.0
H447 H 0.91509 0.83578 0.44874 0.0
H448 H 0.70201 0.78158 0.47907 0.0
H449 H 0.95475 0.77067 0.53798 0.0
H450 H 0.92504 0.80203 0.53965 0.0
H451 H 0.95898 0.77689 0.49588 0.0
C452 C 0.79135 0.8551 0.51805 0.0
C453 C 0.83917 0.85736 0.49217 0.0
C454 C 0.78168 0.83082 0.52027 0.0
C455 C 0.82003 0.80833 0.49697 0.0
C456 C 0.86877 0.81054 0.4716 0.0
H457 H 0.82358 0.64416 0.46806 0.0
H458 H 0.84229 0.68604 0.46249 0.0
C459 C 0.87842 0.83485 0.46928 0.0
C460 C 0.80636 0.78233 0.49802 0.0
H461 H 0.87922 0.73384 0.51857 0.0
C462 C 0.74064 0.77114 0.48779 0.0
C463 C 0.85698 0.76875 0.50925 0.0
C464 C 0.92778 0.78023 0.52164 0.0
C465 C 0.72434 0.74653 0.48803 0.0
C466 C 0.77478 0.73302 0.49959 0.0
C467 C 0.84061 0.7442 0.50968 0.0
C468 C 0.76056 0.70733 0.50163 0.0
C469 C 0.65373 0.73501 0.4751 0.0
C470 C 0.70831 0.70536 0.52545 0.0
C471 C 0.69736 0.68141 0.52858 0.0
C472 C 0.73915 0.65909 0.50836 0.0
C473 C 0.79108 0.66109 0.48433 0.0
C474 C 0.80168 0.68497 0.48103 0.0
H475 H 0.62901 0.74361 0.45686 0.0
H476 H 0.65595 0.71303 0.4588 0.0
H477 H 0.62059 0.73975 0.50061 0.0
H478 H 0.67698 0.72251 0.54232 0.0
H479 H 0.65757 0.6806 0.54772 0.0
H480 H 0.23835 0.02808 0.96377 0.0
H481 H 0.36421 0.0284 0.9641 0.0
H482 H 0.36474 0.98451 0.0335 0.0
H483 H 0.23883 0.98517 0.03473 0.0
H484 H 0.45581 0.04845 0.03371 0.0
H485 H 0.48999 0.94107 0.9373 0.0
H486 H 0.41067 0.95867 0.93953 0.0
H487 H 0.43226 0.94901 0.97714 0.0
C488 C 0.26513 0.01896 0.97973 0.0
C489 C 0.2283 1.00715 -8e-05 0.0
C490 C 0.33716 0.01891 0.97956 0.0
C491 C 0.37395 1.00639 0.99869 0.0
C492 C 0.33744 0.99414 0.01832 0.0
H493 H 0.80905 0.97442 0.01517 0.0
H494 H 0.68329 0.97463 0.0152 0.0
C495 C 0.26541 0.99453 0.01896 0.0
C496 C 0.45049 1.00634 0.99844 0.0
H497 H 0.59031 0.9657 0.96435 0.0
C498 C 0.48541 0.0304 0.01849 0.0
C499 C 0.48887 0.98273 0.97893 0.0
C500 C 0.45385 0.95637 0.95674 0.0
C501 C 0.55771 0.03146 0.02018 0.0
C502 C 0.59657 1.0079 -0.0001 0.0
C503 C 0.56118 0.98382 0.97981 0.0
C504 C 0.67362 1.00765 0.99937 0.0
C505 C 0.59119 0.05771 0.04492 0.0
C506 C 0.71099 0.02571 0.98977 0.0
C507 C 0.78304 0.02581 0.99035 0.0
C508 C 0.81949 1.00723 0.99919 0.0
C509 C 0.78242 0.98862 0.00757 0.0
C510 C 0.71036 0.98888 0.00781 0.0
H511 H 0.55599 0.07074 0.06798 0.0
H512 H 0.63903 0.05483 0.05839 0.0
H513 H 0.60403 0.06836 0.02701 0.0
H514 H 0.68455 0.03974 0.98167 0.0
H515 H 0.81038 0.0402 0.98336 0.0
H516 H 0.25464 0.97722 0.44196 0.0
H517 H 0.37997 0.97595 0.44289 0.0
H518 H 0.38048 0.04144 0.55521 0.0
H519 H 0.25491 0.04188 0.55541 0.0
H520 H 0.47166 0.01363 0.4476 0.0
H521 H 0.5059 0.98975 0.5725 0.0
H522 H 0.42371 0.98727 0.54956 0.0
H523 H 0.4555 0.01915 0.58301 0.0
C524 C 0.28123 0.99104 0.46721 0.0
C525 C 0.24444 0.00928 0.49894 0.0
C526 C 0.35305 0.99042 0.46756 0.0
C527 C 0.38982 1.00822 0.49945 0.0
C528 C 0.35334 0.02698 0.53073 0.0
H529 H 0.82348 0.03672 0.55549 0.0
H530 H 0.69818 0.03811 0.55445 0.0
C531 C 0.28143 0.02741 0.53059 0.0
C532 C 0.46629 1.00774 0.49928 0.0
H533 H 0.60638 1.00167 0.54844 0.0
C534 C 0.50116 0.01089 0.46955 0.0
C535 C 0.50479 1.00424 0.528 0.0
C536 C 0.47062 0.99966 0.55987 0.0
C537 C 0.57331 0.01121 0.46812 0.0
C538 C 0.61192 1.00766 0.4968 0.0
C539 C 0.57697 1.00445 0.5265 0.0
C540 C 0.68849 1.00728 0.4967 0.0
C541 C 0.60715 0.01608 0.43641 0.0
C542 C 0.72523 0.98941 0.46471 0.0
C543 C 0.79712 0.98928 0.46475 0.0
C544 C 0.83397 1.00644 0.49723 0.0
C545 C 0.79702 0.02372 0.52963 0.0
C546 C 0.72517 0.02431 0.52924 0.0
H547 H 0.57194 0.02647 0.42448 0.0
H548 H 0.65457 0.02816 0.44658 0.0
H549 H 0.62112 0.99667 0.41273 0.0
H550 H 0.69836 0.97542 0.43971 0.0
H551 H 0.8238 0.97557 0.43935 0.0
H552 H 0.73615 0.53888 0.05964 0.0
H553 H 0.86143 0.54049 0.0584 0.0
H554 H 0.86066 0.48181 0.94085 0.0
H555 H 0.73536 0.48225 0.94085 0.0
H556 H 0.95349 0.50543 0.05024 0.0
H557 H 0.98859 0.53271 0.92885 0.0
H558 H 0.90555 0.5336 0.9501 0.0
H559 H 0.94008 0.50264 0.91504 0.0
C560 C 0.76251 0.52711 0.03312 0.0
C561 C 0.72538 0.5113 -2e-05 0.0
C562 C 0.83441 0.52768 0.03258 0.0
C563 C 0.87106 0.51185 0.99916 0.0
C564 C 0.83403 0.49508 0.96654 0.0
H565 H 0.30563 0.47815 0.94541 0.0
H566 H 0.17996 0.4771 0.94637 0.0
C567 C 0.76211 0.49506 0.96677 0.0
C568 C 0.94782 0.51204 0.99907 0.0
H569 H 0.08851 0.51759 0.94963 0.0
C570 C 0.98284 0.50832 0.02837 0.0
C571 C 0.98666 0.51579 0.97056 0.0
C572 C 0.95324 0.52169 0.93963 0.0
C573 C 0.05501 0.50781 0.02963 0.0
C574 C 0.09356 0.51118 0.00086 0.0
C575 C 0.05885 0.51484 0.97152 0.0
C576 C 0.16999 0.51135 0.00097 0.0
C577 C 0.0894 0.50323 0.06144 0.0
C578 C 0.20629 0.53105 0.03116 0.0
C579 C 0.27819 0.53145 0.03092 0.0
C580 C 0.31534 0.51218 0.0004 0.0
C581 C 0.27879 0.49273 0.96991 0.0
C582 C 0.20687 0.49231 0.97021 0.0
H583 H 0.05353 0.4944 0.07531 0.0
H584 H 0.13468 0.48991 0.05056 0.0
H585 H 0.10744 0.52259 0.08368 0.0
H586 H 0.17896 0.54629 0.0548 0.0
H587 H 0.30467 0.54679 0.0548 0.0
H588 H 0.30524 0.54435 0.55274 0.0
H589 H 0.17951 0.54424 0.55264 0.0
H590 H 0.18052 0.47352 0.44587 0.0
H591 H 0.30627 0.4732 0.4466 0.0
H592 H 0.08817 0.5492 0.50701 0.0
H593 H 0.05198 0.44936 0.50426 0.0
H594 H 0.13499 0.46517 0.5118 0.0
H595 H 0.10109 0.44784 0.46404 0.0
C596 C 0.27857 0.52885 0.52921 0.0
C597 C 0.3155 0.50876 0.49973 0.0
C598 C 0.20663 0.5287 0.52924 0.0
C599 C 0.17005 0.5085 0.49971 0.0
C600 C 0.20714 0.48878 0.46972 0.0
H601 H 0.73572 0.48764 0.43942 0.0
H602 H 0.86158 0.48642 0.43943 0.0
C603 C 0.27908 0.4887 0.47002 0.0
C604 C 0.09332 0.50851 0.49989 0.0
H605 H 0.95203 0.46988 0.49264 0.0
C606 C 0.05862 0.53187 0.50412 0.0
C607 C 0.05423 0.48596 0.49627 0.0
C608 C 0.0875 0.46078 0.49425 0.0
C609 C 0.98647 0.53315 0.50428 0.0
C610 C 0.9477 0.51052 0.49998 0.0
C611 C 0.982 0.48716 0.49569 0.0
C612 C 0.87136 0.51084 0.50025 0.0
C613 C 0.95202 0.55867 0.50885 0.0
C614 C 0.83512 0.52464 0.53453 0.0
C615 C 0.76313 0.52465 0.53478 0.0
C616 C 0.72597 0.51111 0.50066 0.0
C617 C 0.76261 0.49761 0.46633 0.0
C618 C 0.83457 0.49715 0.46621 0.0
H619 H 0.98868 0.5729 0.50552 0.0
H620 H 0.91014 0.55448 0.48751 0.0
H621 H 0.92902 0.56829 0.53791 0.0
H622 H 0.86258 0.53526 0.56114 0.0
H623 H 0.73654 0.53528 0.56173 0.0
H624 H 0.10908 0.03463 0.40701 0.0
H625 H 0.09985 0.0369 0.34526 0.0
H626 H 0.92955 0.98206 0.3146 0.0
H627 H 0.93864 0.97955 0.37635 0.0
H628 H 1.02318 0.96915 0.2569 0.0
H629 H 0.95588 0.07616 0.31262 0.0
H630 H 0.03372 0.0704 0.33293 0.0
H631 H 0.95343 0.05808 0.34209 0.0
C632 C 0.06955 0.02307 0.38718 0.0
C633 C 1.02487 1.00676 0.39647 0.0
C634 C 0.06404 0.02455 0.352 0.0
C635 C 1.0132 0.01004 0.32563 0.0
C636 C 0.96895 0.99352 0.33464 0.0
H637 H 0.91158 0.02983 0.11741 0.0
H638 H 0.90712 0.03004 0.18138 0.0
C639 C 0.97453 0.99196 0.36981 0.0
C640 C 1.0078 0.01143 0.28815 0.0
H641 H 0.98947 0.0547 0.24666 0.0
C642 C 1.01526 0.98783 0.25466 0.0
C643 C 0.99634 0.03575 0.28526 0.0
C644 C 0.98366 0.06149 0.32013 0.0
C645 C 1.0138 0.98799 0.21838 0.0
C646 C 1.00606 0.0125 0.21556 0.0
C647 C 0.99627 0.036 0.24895 0.0
C648 C 1.00968 0.01404 0.17815 0.0
C649 C 1.02005 0.96187 0.18333 0.0
C650 C 0.06949 1.00582 0.15587 0.0
C651 C 0.07191 1.00557 0.11956 0.0
C652 C 1.01471 0.01371 0.10496 0.0
C653 C 0.95601 0.02321 0.12798 0.0
C654 C 0.95347 0.02334 0.16438 0.0
H655 H 1.00612 0.94472 0.18969 0.0
H656 H 0.98656 0.96167 0.15991 0.0
H657 H 0.07401 0.95907 0.17305 0.0
H658 H 0.11412 0.99931 0.16641 0.0
H659 H 0.11845 0.99876 0.10274 0.0
H660 H 0.08323 0.96658 0.86975 0.0
H661 H 0.09017 0.96661 0.80644 0.0
H662 H 0.97997 0.04119 0.84868 0.0
H663 H 0.96989 0.04074 0.91136 0.0
H664 H 0.93166 1.00895 0.78209 0.0
H665 H 0.21552 1.00904 0.77145 0.0
H666 H 0.18377 0.98099 0.77828 0.0
H667 H 0.17175 0.01414 0.81529 0.0
C668 C 0.06027 0.98297 0.86558 0.0
C669 C 1.02623 1.00373 0.89583 0.0
C670 C 0.06499 0.98309 0.82941 0.0
C671 C 0.03697 1.00421 0.82295 0.0
C672 C 1.00238 0.02476 0.85297 0.0
H673 H 0.12512 0.039 0.6271 0.0
H674 H 0.12089 0.03843 0.6902 0.0
C675 C 0.99676 0.02447 0.88891 0.0
C676 C 0.04132 1.00464 0.7847 0.0
H677 H 0.15314 1.0019 0.71472 0.0
C678 C 0.98018 1.00753 0.76747 0.0
C679 C 0.1047 1.00321 0.76582 0.0
C680 C 0.1727 1.00196 0.78382 0.0
C681 C 0.98046 1.00889 0.73195 0.0
C682 C 0.04349 1.00626 0.71227 0.0
C683 C 0.10477 1.00361 0.72959 0.0
C684 C 0.04678 1.00639 0.67382 0.0
C685 C 0.91327 0.01387 0.71647 0.0
C686 C 1.00771 0.98825 0.6434 0.0
C687 C 1.00842 0.98909 0.60771 0.0
C688 C 0.04935 1.00776 0.60138 0.0
C689 C 0.0911 0.02504 0.63135 0.0
C690 C 0.08941 0.0245 0.66732 0.0
H691 H 0.87524 0.02373 0.73976 0.0
H692 H 0.92063 0.02652 0.70084 0.0
H693 H 0.89108 0.99455 0.69641 0.0
H694 H 0.9763 0.97345 0.64726 0.0
H695 H 0.97643 0.97513 0.58517 0.0
H696 H 0.58631 0.53489 0.40484 0.0
H697 H 0.57877 0.53499 0.34189 0.0
H698 H 0.40625 0.48124 0.31397 0.0
H699 H 0.4154 0.48019 0.37684 0.0
H700 H 0.48892 0.46672 0.25512 0.0
H701 H 0.44672 0.57499 0.30754 0.0
H702 H 0.52512 0.56841 0.32634 0.0
H703 H 0.44417 0.55849 0.33904 0.0
C704 C 0.5464 0.52317 0.38547 0.0
C705 C 0.50092 0.50771 0.39603 0.0
C706 C 0.54186 0.52341 0.34947 0.0
C707 C 0.49063 0.50878 0.32347 0.0
C708 C 0.44579 0.49294 0.33366 0.0
H709 H 0.41249 0.53781 0.12008 0.0
H710 H 0.40299 0.53584 0.18228 0.0
C711 C 0.45102 0.49234 0.36957 0.0
C712 C 0.4855 0.50949 0.28535 0.0
H713 H 0.48201 0.55189 0.24181 0.0
C714 C 0.48659 0.48535 0.25224 0.0
C715 C 0.481 0.53374 0.2814 0.0
C716 C 0.47339 0.56032 0.31551 0.0
C717 C 0.48562 0.48481 0.21544 0.0
C718 C 0.48617 0.50912 0.21154 0.0
C719 C 0.48273 0.53323 0.24464 0.0
C720 C 0.49127 0.51004 0.17352 0.0
C721 C 0.48296 0.4581 0.18124 0.0
C722 C 0.5446 0.49661 0.14806 0.0
C723 C 0.54932 0.49733 0.11233 0.0
C724 C 0.50194 0.51213 0.10164 0.0
C725 C 0.44973 0.52623 0.12752 0.0
C726 C 0.44428 0.5251 0.16306 0.0
H727 H 0.45872 0.44279 0.18874 0.0
H728 H 0.4538 0.45919 0.15718 0.0
H729 H 0.53607 0.45134 0.17138 0.0
H730 H 0.58309 0.48569 0.15589 0.0
H731 H 0.59086 0.48659 0.09331 0.0
H732 H 0.41671 0.49375 0.5944 0.0
H733 H 0.41433 0.49407 0.65821 0.0
H734 H 0.60823 0.53554 0.68503 0.0
H735 H 0.61099 0.53519 0.62134 0.0
H736 H 0.50869 0.47147 0.68931 0.0
H737 H 0.49027 0.58052 0.77769 0.0
H738 H 0.47468 0.56554 0.7267 0.0
H739 H 0.56118 0.57063 0.74473 0.0
C740 C 0.45841 0.50319 0.61411 0.0
C741 C 0.51335 0.51489 0.60318 0.0
C742 C 0.45706 0.50333 0.65048 0.0
C743 C 0.51054 0.5152 0.67661 0.0
C744 C 0.56555 0.52687 0.66572 0.0
H745 H 0.61066 0.4887 0.87765 0.0
H746 H 0.60747 0.48876 0.81428 0.0
C747 C 0.56692 0.52674 0.62936 0.0
C748 C 0.51003 0.51436 0.7146 0.0
H749 H 0.51118 0.55358 0.81092 0.0
C750 C 0.50892 0.48942 0.71592 0.0
C751 C 0.50995 0.5378 0.74926 0.0
C752 C 0.50846 0.56515 0.74969 0.0
C753 C 0.50834 0.48727 0.75096 0.0
C754 C 0.50982 0.5107 0.78561 0.0
C755 C 0.5103 0.53564 0.7843 0.0
C756 C 0.5106 0.50982 0.82356 0.0
C757 C 0.50511 0.45994 0.75056 0.0
C758 C 0.45776 0.52201 0.85011 0.0
C759 C 0.45927 0.52188 0.88633 0.0
C760 C 0.51375 0.5096 0.89666 0.0
C761 C 0.56686 0.49759 0.87012 0.0
C762 C 0.56527 0.49768 0.83392 0.0
H763 H 0.48596 0.44477 0.7227 0.0
H764 H 0.55747 0.45389 0.75516 0.0
H765 H 0.47133 0.45992 0.77379 0.0
H766 H 0.41533 0.53165 0.84278 0.0
H767 H 0.41795 0.53147 0.90631 0.0
loop_
_geom_bond_atom_site_label_1
_geom_bond_atom_site_label_2
_geom_bond_distance
_geom_bond_site_symmetry_2
_ccdc_geom_bond_type
Tb0 N29 2.617 . S
Tb0 N35 2.572 . S
Tb0 O44 2.465 1_655 S
Tb0 O45 2.387 . S
Tb0 O47 2.428 1_655 S
Tb0 O48 2.308 1_556 S
Tb0 O52 2.349 1_655 S
Tb0 O55 2.393 1_655 S
Tb0 C64 2.802 1_655 S
C1 N2 1.379 . S
C1 C4 1.416 . S
C1 C8 1.424 . S
N2 C1 1.379 . S
N2 C5 1.334 . S
N2 Tb11 2.617 . S
C3 C5 1.390 . S
C3 C6 1.339 . S
C3 H23 0.930 . S
C4 C1 1.416 . S
C4 C6 1.416 . S
C4 C10 1.448 . S
C5 N2 1.334 . S
C5 C3 1.390 . S
C5 H16 0.930 . S
C6 C3 1.339 . S
C6 C4 1.416 . S
C6 H27 0.930 . S
C7 C8 1.413 . S
C7 C9 1.427 . S
C7 C13 1.416 . S
C8 C1 1.424 . S
C8 C7 1.413 . S
C8 N12 1.361 . S
C9 C7 1.427 . S
C9 C10 1.328 . S
C9 H24 0.929 . S
C10 C4 1.448 . S
C10 C9 1.328 . S
C10 H25 0.930 . S
Tb11 N2 2.617 . S
Tb11 N12 2.572 . S
Tb11 O46 2.349 1_455 S
Tb11 O49 2.393 1_455 S
Tb11 O50 2.465 1_455 S
Tb11 O51 2.387 . S
Tb11 O53 2.428 1_455 S
Tb11 O54 2.308 1_554 S
Tb11 C75 2.802 1_455 S
N12 C8 1.361 . S
N12 Tb11 2.572 . S
N12 C14 1.340 1_554 S
C13 C7 1.416 . S
C13 C15 1.332 1_554 S
C13 H21 0.931 1_554 S
C14 N12 1.340 1_556 S
C14 C15 1.407 . S
C14 H20 0.930 . S
C15 C13 1.332 1_556 S
C15 C14 1.407 . S
C15 H17 0.929 . S
H16 C5 0.930 . S
H17 C15 0.929 . S
H18 C33 0.930 . S
H19 C40 0.929 . S
H20 C14 0.930 . S
H21 C13 0.931 1_556 S
H22 C36 0.930 . S
H23 C3 0.930 . S
H24 C9 0.929 . S
H25 C10 0.930 . S
H26 C31 0.930 . S
H27 C6 0.930 . S
H28 C39 0.931 1_554 S
N29 Tb0 2.617 . S
N29 C30 1.379 . S
N29 C33 1.334 . S
C30 N29 1.379 . S
C30 C32 1.416 . S
C30 C38 1.424 . S
C31 H26 0.930 . S
C31 C33 1.390 . S
C31 C34 1.339 . S
C32 C30 1.416 . S
C32 C34 1.416 . S
C32 C65 1.448 . S
C33 H18 0.930 . S
C33 N29 1.334 . S
C33 C31 1.390 . S
C34 C31 1.339 . S
C34 C32 1.416 . S
C34 H41 0.930 . S
N35 Tb0 2.572 . S
N35 C36 1.340 1_556 S
N35 C38 1.361 . S
C36 H22 0.930 . S
C36 N35 1.340 1_554 S
C36 C40 1.407 . S
C37 C38 1.413 . S
C37 C39 1.416 . S
C37 C66 1.427 . S
C38 C30 1.424 . S
C38 N35 1.361 . S
C38 C37 1.413 . S
C39 H28 0.931 1_556 S
C39 C37 1.416 . S
C39 C40 1.332 1_556 S
C40 H19 0.929 . S
C40 C36 1.407 . S
C40 C39 1.332 1_554 S
H41 C34 0.930 . S
H42 C65 0.930 . S
H43 C66 0.929 . S
O44 Tb0 2.465 1_455 S
O44 C64 1.264 . S
O45 Tb0 2.387 . S
O45 C56 1.264 1_565 S
O46 Tb11 2.349 1_655 S
O46 C56 1.243 1_554 S
O47 Tb0 2.428 1_455 S
O47 C64 1.256 . S
O48 Tb0 2.308 1_554 S
O48 C63 1.266 1_565 S
O49 Tb11 2.393 1_655 S
O49 C63 1.248 . S
O50 Tb11 2.465 1_655 S
O50 C75 1.264 . S
O51 Tb11 2.387 . S
O51 C67 1.264 1_545 S
O52 Tb0 2.349 1_455 S
O52 C67 1.243 1_556 S
O53 Tb11 2.428 1_655 S
O53 C75 1.256 . S
O54 Tb11 2.308 1_556 S
O54 C74 1.266 1_545 S
O55 Tb0 2.393 1_455 S
O55 C74 1.248 . S
C56 O45 1.264 1_545 S
C56 O46 1.243 1_556 S
C57 C60 1.399 . S
C57 C62 1.383 . S
C57 C64 1.496 . S
C58 C59 1.399 . S
C58 C62 1.389 . S
C59 C58 1.399 . S
C59 C61 1.380 . S
C59 H76 0.929 . S
C60 C57 1.399 . S
C60 C61 1.392 . S
C60 H77 0.929 . S
C61 C59 1.380 . S
C61 C60 1.392 . S
C61 H78 0.929 . S
C62 C57 1.383 . S
C62 C58 1.389 . S
C62 H79 0.931 1_556 S
C63 O48 1.266 1_545 S
C63 O49 1.248 . S
C64 Tb0 2.802 1_455 S
C64 O44 1.264 . S
C64 O47 1.256 . S
C64 C57 1.496 . S
C65 C32 1.448 . S
C65 H42 0.930 . S
C65 C66 1.328 . S
C66 C37 1.427 . S
C66 H43 0.929 . S
C66 C65 1.328 . S
C67 O51 1.264 1_565 S
C67 O52 1.243 1_554 S
C68 C71 1.399 . S
C68 C72 1.383 . S
C68 C75 1.496 . S
C69 C70 1.399 . S
C69 C72 1.389 . S
C70 C69 1.399 . S
C70 C73 1.380 . S
C70 H80 0.929 . S
C71 C68 1.399 . S
C71 C73 1.392 . S
C71 H81 0.929 . S
C72 C68 1.383 . S
C72 C69 1.389 . S
C72 H82 0.931 1_554 S
C73 C70 1.380 . S
C73 C71 1.392 . S
C73 H83 0.929 . S
C74 O54 1.266 1_565 S
C74 O55 1.248 . S
C75 Tb11 2.802 1_655 S
C75 O50 1.264 . S
C75 O53 1.256 . S
C75 C68 1.496 . S
H76 C59 0.929 . S
H77 C60 0.929 . S
H78 C61 0.929 . S
H79 C62 0.931 1_554 S
H80 C70 0.929 . S
H81 C71 0.929 . S
H82 C72 0.931 1_556 S
H83 C73 0.929 . S
Tb84 N113 2.617 . S
Tb84 N119 2.572 . S
Tb84 O128 2.465 1_655 S
Tb84 O129 2.387 . S
Tb84 O131 2.428 1_655 S
Tb84 O132 2.308 . S
Tb84 O136 2.349 1_655 S
Tb84 O139 2.393 1_655 S
Tb84 C148 2.802 1_655 S
C85 N86 1.379 . S
C85 C88 1.416 . S
C85 C92 1.424 . S
N86 C85 1.379 . S
N86 C89 1.334 . S
N86 Tb95 2.617 . S
C87 C89 1.390 . S
C87 C90 1.339 . S
C87 H107 0.930 . S
C88 C85 1.416 . S
C88 C90 1.416 . S
C88 C94 1.448 . S
C89 N86 1.334 . S
C89 C87 1.390 . S
C89 H100 0.930 . S
C90 C87 1.339 . S
C90 C88 1.416 . S
C90 H111 0.930 . S
C91 C92 1.413 . S
C91 C93 1.427 . S
C91 C97 1.416 . S
C92 C85 1.424 . S
C92 C91 1.413 . S
C92 N96 1.361 . S
C93 C91 1.427 . S
C93 C94 1.328 . S
C93 H108 0.929 . S
C94 C88 1.448 . S
C94 C93 1.328 . S
C94 H109 0.930 . S
Tb95 N86 2.617 . S
Tb95 N96 2.572 . S
Tb95 O130 2.349 1_455 S
Tb95 O133 2.393 1_455 S
Tb95 O134 2.465 1_455 S
Tb95 O135 2.387 . S
Tb95 O137 2.428 1_455 S
Tb95 O138 2.308 . S
Tb95 C159 2.802 1_455 S
N96 C92 1.361 . S
N96 Tb95 2.572 . S
N96 C98 1.340 . S
C97 C91 1.416 . S
C97 C99 1.332 . S
C97 H105 0.931 . S
C98 N96 1.340 . S
C98 C99 1.407 . S
C98 H104 0.930 . S
C99 C97 1.332 . S
C99 C98 1.407 . S
C99 H101 0.929 . S
H100 C89 0.930 . S
H101 C99 0.929 . S
H102 C117 0.930 . S
H103 C124 0.929 . S
H104 C98 0.930 . S
H105 C97 0.931 . S
H106 C120 0.930 . S
H107 C87 0.930 . S
H108 C93 0.929 . S
H109 C94 0.930 . S
H110 C115 0.930 . S
H111 C90 0.930 . S
H112 C123 0.931 . S
N113 Tb84 2.617 . S
N113 C114 1.379 . S
N113 C117 1.334 . S
C114 N113 1.379 . S
C114 C116 1.416 . S
C114 C122 1.424 . S
C115 H110 0.930 . S
C115 C117 1.390 . S
C115 C118 1.339 . S
C116 C114 1.416 . S
C116 C118 1.416 . S
C116 C149 1.448 . S
C117 H102 0.930 . S
C117 N113 1.334 . S
C117 C115 1.390 . S
C118 C115 1.339 . S
C118 C116 1.416 . S
C118 H125 0.930 . S
N119 Tb84 2.572 . S
N119 C120 1.340 . S
N119 C122 1.361 . S
C120 H106 0.930 . S
C120 N119 1.340 . S
C120 C124 1.407 . S
C121 C122 1.413 . S
C121 C123 1.416 . S
C121 C150 1.427 . S
C122 C114 1.424 . S
C122 N119 1.361 . S
C122 C121 1.413 . S
C123 H112 0.931 . S
C123 C121 1.416 . S
C123 C124 1.332 . S
C124 H103 0.929 . S
C124 C120 1.407 . S
C124 C123 1.332 . S
H125 C118 0.930 . S
H126 C149 0.930 . S
H127 C150 0.929 . S
O128 Tb84 2.465 1_455 S
O128 C148 1.264 . S
O129 Tb84 2.387 . S
O129 C140 1.264 1_545 S
O130 Tb95 2.349 1_655 S
O130 C140 1.243 . S
O131 Tb84 2.428 1_455 S
O131 C148 1.256 . S
O132 Tb84 2.308 . S
O132 C147 1.266 1_545 S
O133 Tb95 2.393 1_655 S
O133 C147 1.248 . S
O134 Tb95 2.465 1_655 S
O134 C159 1.264 . S
O135 Tb95 2.387 . S
O135 C151 1.264 1_565 S
O136 Tb84 2.349 1_455 S
O136 C151 1.243 . S
O137 Tb95 2.428 1_655 S
O137 C159 1.256 . S
O138 Tb95 2.308 . S
O138 C158 1.266 1_565 S
O139 Tb84 2.393 1_455 S
O139 C158 1.248 . S
C140 O129 1.264 1_565 S
C140 O130 1.243 . S
C141 C144 1.399 . S
C141 C146 1.383 . S
C141 C148 1.496 . S
C142 C143 1.399 . S
C142 C146 1.389 . S
C143 C142 1.399 . S
C143 C145 1.380 . S
C143 H160 0.929 . S
C144 C141 1.399 . S
C144 C145 1.392 . S
C144 H161 0.929 . S
C145 C143 1.380 . S
C145 C144 1.392 . S
C145 H162 0.929 . S
C146 C141 1.383 . S
C146 C142 1.389 . S
C146 H163 0.931 . S
C147 O132 1.266 1_565 S
C147 O133 1.248 . S
C148 Tb84 2.802 1_455 S
C148 O128 1.264 . S
C148 O131 1.256 . S
C148 C141 1.496 . S
C149 C116 1.448 . S
C149 H126 0.930 . S
C149 C150 1.328 . S
C150 C121 1.427 . S
C150 H127 0.929 . S
C150 C149 1.328 . S
C151 O135 1.264 1_545 S
C151 O136 1.243 . S
C152 C155 1.399 . S
C152 C156 1.383 . S
C152 C159 1.496 . S
C153 C154 1.399 . S
C153 C156 1.389 . S
C154 C153 1.399 . S
C154 C157 1.380 . S
C154 H164 0.929 . S
C155 C152 1.399 . S
C155 C157 1.392 . S
C155 H165 0.929 . S
C156 C152 1.383 . S
C156 C153 1.389 . S
C156 H166 0.931 . S
C157 C154 1.380 . S
C157 C155 1.392 . S
C157 H167 0.929 . S
C158 O138 1.266 1_545 S
C158 O139 1.248 . S
C159 Tb95 2.802 1_655 S
C159 O134 1.264 . S
C159 O137 1.256 . S
C159 C152 1.496 . S
H160 C143 0.929 . S
H161 C144 0.929 . S
H162 C145 0.929 . S
H163 C146 0.931 . S
H164 C154 0.929 . S
H165 C155 0.929 . S
H166 C156 0.931 . S
H167 C157 0.929 . S
Tb168 N197 2.617 . S
Tb168 N203 2.572 . S
Tb168 O212 2.465 . S
Tb168 O213 2.387 . S
Tb168 O215 2.428 . S
Tb168 O216 2.308 1_556 S
Tb168 O220 2.349 . S
Tb168 O223 2.393 . S
Tb168 C232 2.802 . S
C169 N170 1.379 . S
C169 C172 1.416 . S
C169 C176 1.424 . S
N170 C169 1.379 . S
N170 C173 1.334 . S
N170 Tb179 2.617 . S
C171 C173 1.390 . S
C171 C174 1.339 . S
C171 H191 0.930 . S
C172 C169 1.416 . S
C172 C174 1.416 . S
C172 C178 1.448 . S
C173 N170 1.334 . S
C173 C171 1.390 . S
C173 H184 0.930 . S
C174 C171 1.339 . S
C174 C172 1.416 . S
C174 H195 0.930 . S
C175 C176 1.413 . S
C175 C177 1.427 . S
C175 C181 1.416 . S
C176 C169 1.424 . S
C176 C175 1.413 . S
C176 N180 1.361 . S
C177 C175 1.427 . S
C177 C178 1.328 . S
C177 H192 0.929 . S
C178 C172 1.448 . S
C178 C177 1.328 . S
C178 H193 0.930 . S
Tb179 N170 2.617 . S
Tb179 N180 2.572 . S
Tb179 O214 2.349 . S
Tb179 O217 2.393 . S
Tb179 O218 2.465 . S
Tb179 O219 2.387 . S
Tb179 O221 2.428 . S
Tb179 O222 2.308 1_554 S
Tb179 C243 2.802 . S
N180 C176 1.361 . S
N180 Tb179 2.572 . S
N180 C182 1.340 1_554 S
C181 C175 1.416 . S
C181 C183 1.332 1_554 S
C181 H189 0.931 1_554 S
C182 N180 1.340 1_556 S
C182 C183 1.407 . S
C182 H188 0.930 . S
C183 C181 1.332 1_556 S
C183 C182 1.407 . S
C183 H185 0.929 . S
H184 C173 0.930 . S
H185 C183 0.929 . S
H186 C201 0.930 . S
H187 C208 0.929 . S
H188 C182 0.930 . S
H189 C181 0.931 1_556 S
H190 C204 0.930 . S
H191 C171 0.930 . S
H192 C177 0.929 . S
H193 C178 0.930 . S
H194 C199 0.930 . S
H195 C174 0.930 . S
H196 C207 0.931 1_554 S
N197 Tb168 2.617 . S
N197 C198 1.379 . S
N197 C201 1.334 . S
C198 N197 1.379 . S
C198 C200 1.416 . S
C198 C206 1.424 . S
C199 H194 0.930 . S
C199 C201 1.390 . S
C199 C202 1.339 . S
C200 C198 1.416 . S
C200 C202 1.416 . S
C200 C233 1.448 . S
C201 H186 0.930 . S
C201 N197 1.334 . S
C201 C199 1.390 . S
C202 C199 1.339 . S
C202 C200 1.416 . S
C202 H209 0.930 . S
N203 Tb168 2.572 . S
N203 C204 1.340 1_556 S
N203 C206 1.361 . S
C204 H190 0.930 . S
C204 N203 1.340 1_554 S
C204 C208 1.407 . S
C205 C206 1.413 . S
C205 C207 1.416 . S
C205 C234 1.427 . S
C206 C198 1.424 . S
C206 N203 1.361 . S
C206 C205 1.413 . S
C207 H196 0.931 1_556 S
C207 C205 1.416 . S
C207 C208 1.332 1_556 S
C208 H187 0.929 . S
C208 C204 1.407 . S
C208 C207 1.332 1_554 S
H209 C202 0.930 . S
H210 C233 0.930 . S
H211 C234 0.929 . S
O212 Tb168 2.465 . S
O212 C232 1.264 . S
O213 Tb168 2.387 . S
O213 C224 1.264 . S
O214 Tb179 2.349 . S
O214 C224 1.243 1_554 S
O215 Tb168 2.428 . S
O215 C232 1.256 . S
O216 Tb168 2.308 1_554 S
O216 C231 1.266 . S
O217 Tb179 2.393 . S
O217 C231 1.248 . S
O218 Tb179 2.465 . S
O218 C243 1.264 . S
O219 Tb179 2.387 . S
O219 C235 1.264 . S
O220 Tb168 2.349 . S
O220 C235 1.243 1_556 S
O221 Tb179 2.428 . S
O221 C243 1.256 . S
O222 Tb179 2.308 1_556 S
O222 C242 1.266 . S
O223 Tb168 2.393 . S
O223 C242 1.248 . S
C224 O213 1.264 . S
C224 O214 1.243 1_556 S
C225 C228 1.399 . S
C225 C230 1.383 . S
C225 C232 1.496 . S
C226 C227 1.399 . S
C226 C230 1.389 . S
C227 C226 1.399 . S
C227 C229 1.380 . S
C227 H244 0.929 . S
C228 C225 1.399 . S
C228 C229 1.392 . S
C228 H245 0.929 . S
C229 C227 1.380 . S
C229 C228 1.392 . S
C229 H246 0.929 . S
C230 C225 1.383 . S
C230 C226 1.389 . S
C230 H247 0.931 1_556 S
C231 O216 1.266 . S
C231 O217 1.248 . S
C232 Tb168 2.802 . S
C232 O212 1.264 . S
C232 O215 1.256 . S
C232 C225 1.496 . S
C233 C200 1.448 . S
C233 H210 0.930 . S
C233 C234 1.328 . S
C234 C205 1.427 . S
C234 H211 0.929 . S
C234 C233 1.328 . S
C235 O219 1.264 . S
C235 O220 1.243 1_554 S
C236 C239 1.399 . S
C236 C240 1.383 . S
C236 C243 1.496 . S
C237 C238 1.399 . S
C237 C240 1.389 . S
C238 C237 1.399 . S
C238 C241 1.380 . S
C238 H248 0.929 . S
C239 C236 1.399 . S
C239 C241 1.392 . S
C239 H249 0.929 . S
C240 C236 1.383 . S
C240 C237 1.389 . S
C240 H250 0.931 1_554 S
C241 C238 1.380 . S
C241 C239 1.392 . S
C241 H251 0.929 . S
C242 O222 1.266 . S
C242 O223 1.248 . S
C243 Tb179 2.802 . S
C243 O218 1.264 . S
C243 O221 1.256 . S
C243 C236 1.496 . S
H244 C227 0.929 . S
H245 C228 0.929 . S
H246 C229 0.929 . S
H247 C230 0.931 1_554 S
H248 C238 0.929 . S
H249 C239 0.929 . S
H250 C240 0.931 1_556 S
H251 C241 0.929 . S
Tb252 N281 2.617 . S
Tb252 N287 2.572 . S
Tb252 O296 2.465 . S
Tb252 O297 2.387 . S
Tb252 O299 2.428 . S
Tb252 O300 2.308 . S
Tb252 O304 2.349 . S
Tb252 O307 2.393 . S
Tb252 C316 2.802 . S
C253 N254 1.379 . S
C253 C256 1.416 . S
C253 C260 1.424 . S
N254 C253 1.379 . S
N254 C257 1.334 . S
N254 Tb263 2.617 . S
C255 C257 1.390 . S
C255 C258 1.339 . S
C255 H275 0.930 . S
C256 C253 1.416 . S
C256 C258 1.416 . S
C256 C262 1.448 . S
C257 N254 1.334 . S
C257 C255 1.390 . S
C257 H268 0.930 . S
C258 C255 1.339 . S
C258 C256 1.416 . S
C258 H279 0.930 . S
C259 C260 1.413 . S
C259 C261 1.427 . S
C259 C265 1.416 . S
C260 C253 1.424 . S
C260 C259 1.413 . S
C260 N264 1.361 . S
C261 C259 1.427 . S
C261 C262 1.328 . S
C261 H276 0.929 . S
C262 C256 1.448 . S
C262 C261 1.328 . S
C262 H277 0.930 . S
Tb263 N254 2.617 . S
Tb263 N264 2.572 . S
Tb263 O298 2.349 . S
Tb263 O301 2.393 . S
Tb263 O302 2.465 . S
Tb263 O303 2.387 . S
Tb263 O305 2.428 . S
Tb263 O306 2.308 . S
Tb263 C327 2.802 . S
N264 C260 1.361 . S
N264 Tb263 2.572 . S
N264 C266 1.340 . S
C265 C259 1.416 . S
C265 C267 1.332 . S
C265 H273 0.931 . S
C266 N264 1.340 . S
C266 C267 1.407 . S
C266 H272 0.930 . S
C267 C265 1.332 . S
C267 C266 1.407 . S
C267 H269 0.929 . S
H268 C257 0.930 . S
H269 C267 0.929 . S
H270 C285 0.930 . S
H271 C292 0.929 . S
H272 C266 0.930 . S
H273 C265 0.931 . S
H274 C288 0.930 . S
H275 C255 0.930 . S
H276 C261 0.929 . S
H277 C262 0.930 . S
H278 C283 0.930 . S
H279 C258 0.930 . S
H280 C291 0.931 . S
N281 Tb252 2.617 . S
N281 C282 1.379 . S
N281 C285 1.334 . S
C282 N281 1.379 . S
C282 C284 1.416 . S
C282 C290 1.424 . S
C283 H278 0.930 . S
C283 C285 1.390 . S
C283 C286 1.339 . S
C284 C282 1.416 . S
C284 C286 1.416 . S
C284 C317 1.448 . S
C285 H270 0.930 . S
C285 N281 1.334 . S
C285 C283 1.390 . S
C286 C283 1.339 . S
C286 C284 1.416 . S
C286 H293 0.930 . S
N287 Tb252 2.572 . S
N287 C288 1.340 . S
N287 C290 1.361 . S
C288 H274 0.930 . S
C288 N287 1.340 . S
C288 C292 1.407 . S
C289 C290 1.413 . S
C289 C291 1.416 . S
C289 C318 1.427 . S
C290 C282 1.424 . S
C290 N287 1.361 . S
C290 C289 1.413 . S
C291 H280 0.931 . S
C291 C289 1.416 . S
C291 C292 1.332 . S
C292 H271 0.929 . S
C292 C288 1.407 . S
C292 C291 1.332 . S
H293 C286 0.930 . S
H294 C317 0.930 . S
H295 C318 0.929 . S
O296 Tb252 2.465 . S
O296 C316 1.264 . S
O297 Tb252 2.387 . S
O297 C308 1.264 . S
O298 Tb263 2.349 . S
O298 C308 1.243 . S
O299 Tb252 2.428 . S
O299 C316 1.256 . S
O300 Tb252 2.308 . S
O300 C315 1.266 . S
O301 Tb263 2.393 . S
O301 C315 1.248 . S
O302 Tb263 2.465 . S
O302 C327 1.264 . S
O303 Tb263 2.387 . S
O303 C319 1.264 . S
O304 Tb252 2.349 . S
O304 C319 1.243 . S
O305 Tb263 2.428 . S
O305 C327 1.256 . S
O306 Tb263 2.308 . S
O306 C326 1.266 . S
O307 Tb252 2.393 . S
O307 C326 1.248 . S
C308 O297 1.264 . S
C308 O298 1.243 . S
C309 C312 1.399 . S
C309 C314 1.383 . S
C309 C316 1.496 . S
C310 C311 1.399 . S
C310 C314 1.389 . S
C311 C310 1.399 . S
C311 C313 1.380 . S
C311 H328 0.929 . S
C312 C309 1.399 . S
C312 C313 1.392 . S
C312 H329 0.929 . S
C313 C311 1.380 . S
C313 C312 1.392 . S
C313 H330 0.929 . S
C314 C309 1.383 . S
C314 C310 1.389 . S
C314 H331 0.931 . S
C315 O300 1.266 . S
C315 O301 1.248 . S
C316 Tb252 2.802 . S
C316 O296 1.264 . S
C316 O299 1.256 . S
C316 C309 1.496 . S
C317 C284 1.448 . S
C317 H294 0.930 . S
C317 C318 1.328 . S
C318 C289 1.427 . S
C318 H295 0.929 . S
C318 C317 1.328 . S
C319 O303 1.264 . S
C319 O304 1.243 . S
C320 C323 1.399 . S
C320 C324 1.383 . S
C320 C327 1.496 . S
C321 C322 1.399 . S
C321 C324 1.389 . S
C322 C321 1.399 . S
C322 C325 1.380 . S
C322 H332 0.929 . S
C323 C320 1.399 . S
C323 C325 1.392 . S
C323 H333 0.929 . S
C324 C320 1.383 . S
C324 C321 1.389 . S
C324 H334 0.931 . S
C325 C322 1.380 . S
C325 C323 1.392 . S
C325 H335 0.929 . S
C326 O306 1.266 . S
C326 O307 1.248 . S
C327 Tb263 2.802 . S
C327 O302 1.264 . S
C327 O305 1.256 . S
C327 C320 1.496 . S
H328 C311 0.929 . S
H329 C312 0.929 . S
H330 C313 0.929 . S
H331 C314 0.931 . S
H332 C322 0.929 . S
H333 C323 0.929 . S
H334 C324 0.931 . S
H335 C325 0.929 . S
H336 C344 0.929 . S
H337 C346 0.930 . S
H338 C348 0.930 . S
H339 C351 0.929 . S
H340 C354 0.930 . S
H341 C356 0.960 . S
H342 C356 0.960 . S
H343 C356 0.960 . S
C344 H336 0.929 . S
C344 C345 1.390 . S
C344 C346 1.384 . S
C345 C344 1.390 . S
C345 C351 1.387 1_556 S
C346 H337 0.930 . S
C346 C344 1.384 . S
C346 C347 1.375 . S
C347 C346 1.375 . S
C347 C348 1.386 1_556 S
C347 C352 1.501 . S
C348 H338 0.930 . S
C348 C347 1.386 1_554 S
C348 C351 1.386 . S
H349 C365 0.930 . S
H350 C366 0.931 . S
C351 H339 0.929 . S
C351 C345 1.387 1_554 S
C351 C348 1.386 . S
C352 C347 1.501 . S
C352 C354 1.395 . S
C352 C355 1.403 1_556 S
H353 C359 0.930 . S
C354 H340 0.930 . S
C354 C352 1.395 . S
C354 C357 1.403 . S
C355 C352 1.403 1_554 S
C355 C356 1.524 . S
C355 C359 1.400 . S
C356 H341 0.960 . S
C356 H342 0.960 . S
C356 H343 0.960 . S
C356 C355 1.524 . S
C357 C354 1.403 . S
C357 C358 1.392 . S
C357 C361 1.495 . S
C358 C357 1.392 . S
C358 C359 1.385 1_556 S
C358 C360 1.478 . S
C359 H353 0.930 . S
C359 C355 1.400 . S
C359 C358 1.385 1_554 S
C360 C358 1.478 . S
C360 C362 1.381 . S
C360 C366 1.383 1_556 S
C361 C357 1.495 . S
C361 H367 0.959 . S
C361 H368 0.961 . S
C361 H369 0.960 . S
C362 C360 1.381 . S
C362 C363 1.394 . S
C362 H370 0.930 . S
C363 C362 1.394 . S
C363 C364 1.383 . S
C363 H371 0.929 . S
C364 C363 1.383 . S
C364 C365 1.377 1_556 S
C365 H349 0.930 . S
C365 C364 1.377 1_554 S
C365 C366 1.379 . S
C366 H350 0.931 . S
C366 C360 1.383 1_554 S
C366 C365 1.379 . S
H367 C361 0.959 . S
H368 C361 0.961 . S
H369 C361 0.960 . S
H370 C362 0.930 . S
H371 C363 0.929 . S
H372 C380 0.929 . S
H373 C382 0.930 . S
H374 C384 0.930 . S
H375 C387 0.929 . S
H376 C390 0.930 . S
H377 C392 0.960 . S
H378 C392 0.960 1_554 S
H379 C392 0.960 . S
C380 H372 0.929 . S
C380 C381 1.377 . S
C380 C382 1.384 . S
C381 C380 1.377 . S
C381 C387 1.390 1_554 S
C382 H373 0.930 . S
C382 C380 1.384 . S
C382 C383 1.372 . S
C383 C382 1.372 . S
C383 C384 1.400 1_554 S
C383 C388 1.490 . S
C384 H374 0.930 . S
C384 C383 1.400 1_556 S
C384 C387 1.386 . S
H385 C401 0.930 . S
H386 C402 0.931 . S
C387 H375 0.929 . S
C387 C381 1.390 1_556 S
C387 C384 1.386 . S
C388 C383 1.490 . S
C388 C390 1.395 . S
C388 C391 1.404 1_554 S
H389 C395 0.930 . S
C390 H376 0.930 . S
C390 C388 1.395 . S
C390 C393 1.403 . S
C391 C388 1.404 1_556 S
C391 C392 1.528 . S
C391 C395 1.394 . S
C392 H377 0.960 . S
C392 H378 0.960 1_556 S
C392 H379 0.960 . S
C392 C391 1.528 . S
C393 C390 1.403 . S
C393 C394 1.392 . S
C393 C397 1.495 . S
C394 C393 1.392 . S
C394 C395 1.385 1_554 S
C394 C396 1.471 . S
C395 H389 0.930 . S
C395 C391 1.394 . S
C395 C394 1.385 1_556 S
C396 C394 1.471 . S
C396 C398 1.397 . S
C396 C402 1.373 1_554 S
C397 C393 1.495 . S
C397 H403 0.959 . S
C397 H404 0.961 1_554 S
C397 H405 0.960 . S
C398 C396 1.397 . S
C398 C399 1.394 . S
C398 H406 0.930 . S
C399 C398 1.394 . S
C399 C400 1.364 1_554 S
C399 H407 0.929 . S
C400 C399 1.364 1_556 S
C400 C401 1.410 . S
C401 H385 0.930 . S
C401 C400 1.410 . S
C401 C402 1.379 . S
C402 H386 0.931 . S
C402 C396 1.373 1_556 S
C402 C401 1.379 . S
H403 C397 0.959 . S
H404 C397 0.961 1_556 S
H405 C397 0.960 . S
H406 C398 0.930 . S
H407 C399 0.929 . S
H408 C416 0.929 . S
H409 C418 0.930 . S
H410 C420 0.930 . S
H411 C423 0.929 . S
H412 C426 0.930 . S
H413 C428 0.960 . S
H414 C428 0.960 . S
H415 C428 0.960 . S
C416 H408 0.929 . S
C416 C417 1.377 . S
C416 C418 1.384 . S
C417 C416 1.377 . S
C417 C423 1.390 . S
C418 H409 0.930 . S
C418 C416 1.384 . S
C418 C419 1.372 . S
C419 C418 1.372 . S
C419 C420 1.400 . S
C419 C424 1.490 . S
C420 H410 0.930 . S
C420 C419 1.400 . S
C420 C423 1.386 . S
H421 C437 0.930 . S
H422 C438 0.931 . S
C423 H411 0.929 . S
C423 C417 1.390 . S
C423 C420 1.386 . S
C424 C419 1.490 . S
C424 C426 1.395 . S
C424 C427 1.403 . S
H425 C431 0.930 . S
C426 H412 0.930 . S
C426 C424 1.395 . S
C426 C429 1.403 . S
C427 C424 1.403 . S
C427 C428 1.524 . S
C427 C431 1.400 . S
C428 H413 0.960 . S
C428 H414 0.960 . S
C428 H415 0.960 . S
C428 C427 1.524 . S
C429 C426 1.403 . S
C429 C430 1.392 . S
C429 C433 1.495 . S
C430 C429 1.392 . S
C430 C431 1.385 . S
C430 C432 1.478 . S
C431 H425 0.930 . S
C431 C427 1.400 . S
C431 C430 1.385 . S
C432 C430 1.478 . S
C432 C434 1.381 . S
C432 C438 1.383 . S
C433 C429 1.495 . S
C433 H439 0.959 . S
C433 H440 0.961 . S
C433 H441 0.960 . S
C434 C432 1.381 . S
C434 C435 1.394 . S
C434 H442 0.930 . S
C435 C434 1.394 . S
C435 C436 1.383 . S
C435 H443 0.929 . S
C436 C435 1.383 . S
C436 C437 1.377 . S
C437 H421 0.930 . S
C437 C436 1.377 . S
C437 C438 1.379 . S
C438 H422 0.931 . S
C438 C432 1.383 . S
C438 C437 1.379 . S
H439 C433 0.959 . S
H440 C433 0.961 . S
H441 C433 0.960 . S
H442 C434 0.930 . S
H443 C435 0.929 . S
H444 C452 0.929 . S
H445 C454 0.930 . S
H446 C456 0.930 . S
H447 C459 0.929 . S
H448 C462 0.930 . S
H449 C464 0.960 . S
H450 C464 0.960 . S
H451 C464 0.960 . S
C452 H444 0.929 . S
C452 C453 1.377 . S
C452 C454 1.384 . S
C453 C452 1.377 . S
C453 C459 1.390 . S
C454 H445 0.930 . S
C454 C452 1.384 . S
C454 C455 1.372 . S
C455 C454 1.372 . S
C455 C456 1.400 . S
C455 C460 1.490 . S
C456 H446 0.930 . S
C456 C455 1.400 . S
C456 C459 1.386 . S
H457 C473 0.930 . S
H458 C474 0.931 . S
C459 H447 0.929 . S
C459 C453 1.390 . S
C459 C456 1.386 . S
C460 C455 1.490 . S
C460 C462 1.395 . S
C460 C463 1.403 . S
H461 C467 0.930 . S
C462 H448 0.930 . S
C462 C460 1.395 . S
C462 C465 1.403 . S
C463 C460 1.403 . S
C463 C464 1.524 . S
C463 C467 1.400 . S
C464 H449 0.960 . S
C464 H450 0.960 . S
C464 H451 0.960 . S
C464 C463 1.524 . S
C465 C462 1.403 . S
C465 C466 1.392 . S
C465 C469 1.495 . S
C466 C465 1.392 . S
C466 C467 1.385 . S
C466 C468 1.478 . S
C467 H461 0.930 . S
C467 C463 1.400 . S
C467 C466 1.385 . S
C468 C466 1.478 . S
C468 C470 1.381 . S
C468 C474 1.383 . S
C469 C465 1.495 . S
C469 H475 0.959 . S
C469 H476 0.961 . S
C469 H477 0.960 . S
C470 C468 1.381 . S
C470 C471 1.394 . S
C470 H478 0.930 . S
C471 C470 1.394 . S
C471 C472 1.383 . S
C471 H479 0.929 . S
C472 C471 1.383 . S
C472 C473 1.377 . S
C473 H457 0.930 . S
C473 C472 1.377 . S
C473 C474 1.379 . S
C474 H458 0.931 . S
C474 C468 1.383 . S
C474 C473 1.379 . S
H475 C469 0.959 . S
H476 C469 0.961 . S
H477 C469 0.960 . S
H478 C470 0.930 . S
H479 C471 0.929 . S
H480 C488 0.929 . S
H481 C490 0.930 . S
H482 C492 0.930 . S
H483 C495 0.929 . S
H484 C498 0.930 . S
H485 C500 0.960 . S
H486 C500 0.960 . S
H487 C500 0.960 . S
C488 H480 0.929 . S
C488 C489 1.392 1_545 S
C488 C490 1.384 . S
C489 C488 1.392 1_565 S
C489 C495 1.375 1_556 S
C490 H481 0.930 . S
C490 C488 1.384 . S
C490 C491 1.355 1_545 S
C491 C490 1.355 1_565 S
C491 C492 1.418 1_556 S
C491 C496 1.489 1_565 S
C492 H482 0.930 . S
C492 C491 1.418 1_554 S
C492 C495 1.386 . S
H493 C509 0.907 1_565 S
H494 C510 0.931 1_565 S
C495 H483 0.929 . S
C495 C489 1.375 1_554 S
C495 C492 1.386 . S
C496 C491 1.489 1_545 S
C496 C498 1.395 1_556 S
C496 C499 1.403 1_545 S
H497 C503 0.930 . S
C498 H484 0.930 . S
C498 C496 1.395 1_554 S
C498 C501 1.403 . S
C499 C496 1.403 1_565 S
C499 C500 1.524 . S
C499 C503 1.400 . S
C500 H485 0.960 . S
C500 H486 0.960 . S
C500 H487 0.960 . S
C500 C499 1.524 . S
C501 C498 1.403 . S
C501 C502 1.392 . S
C501 C505 1.495 . S
C502 C501 1.392 . S
C502 C503 1.385 1_544 S
C502 C504 1.478 . S
C503 H497 0.930 . S
C503 C499 1.400 . S
C503 C502 1.385 1_566 S
C504 C502 1.478 . S
C504 C506 1.381 1_554 S
C504 C510 1.383 . S
C505 C501 1.495 . S
C505 H511 0.959 . S
C505 H512 0.961 . S
C505 H513 0.960 . S
C506 C504 1.381 1_556 S
C506 C507 1.394 . S
C506 H514 0.930 . S
C507 C506 1.394 . S
C507 C508 1.383 1_556 S
C507 H515 0.929 . S
C508 C507 1.383 1_554 S
C508 C509 1.398 . S
C509 H493 0.907 1_545 S
C509 C508 1.398 . S
C509 C510 1.381 . S
C510 H494 0.931 1_545 S
C510 C504 1.383 . S
C510 C509 1.381 . S
H511 C505 0.959 . S
H512 C505 0.961 . S
H513 C505 0.960 . S
H514 C506 0.930 . S
H515 C507 0.929 . S
H516 C524 0.929 . S
H517 C526 0.930 . S
H518 C528 0.930 . S
H519 C531 0.929 . S
H520 C534 0.930 . S
H521 C536 0.960 . S
H522 C536 0.960 . S
H523 C536 0.960 . S
C524 H516 0.929 . S
C524 C525 1.377 1_565 S
C524 C526 1.384 . S
C525 C524 1.377 1_545 S
C525 C531 1.390 . S
C526 H517 0.930 . S
C526 C524 1.384 . S
C526 C527 1.349 1_565 S
C527 C526 1.349 1_545 S
C527 C528 1.424 . S
C527 C532 1.489 1_545 S
C528 H518 0.930 . S
C528 C527 1.424 . S
C528 C531 1.386 . S
H529 C545 0.930 . S
H530 C546 0.931 . S
C531 H519 0.929 . S
C531 C525 1.390 . S
C531 C528 1.386 . S
C532 C527 1.489 1_565 S
C532 C534 1.397 . S
C532 C535 1.402 1_565 S
H533 C539 0.930 . S
C534 H520 0.930 . S
C534 C532 1.397 . S
C534 C537 1.403 . S
C535 C532 1.402 1_545 S
C535 C536 1.524 . S
C535 C539 1.400 . S
C536 H521 0.960 . S
C536 H522 0.960 . S
C536 H523 0.960 . S
C536 C535 1.524 . S
C537 C534 1.403 . S
C537 C538 1.392 . S
C537 C541 1.495 . S
C538 C537 1.392 . S
C538 C539 1.385 1_565 S
C538 C540 1.478 . S
C539 H533 0.930 . S
C539 C535 1.400 . S
C539 C538 1.385 1_545 S
C540 C538 1.478 . S
C540 C542 1.381 . S
C540 C546 1.383 1_565 S
C541 C537 1.495 . S
C541 H547 0.959 . S
C541 H548 0.961 . S
C541 H549 0.960 . S
C542 C540 1.381 . S
C542 C543 1.394 . S
C542 H550 0.930 . S
C543 C542 1.394 . S
C543 C544 1.383 . S
C543 H551 0.929 . S
C544 C543 1.383 . S
C544 C545 1.377 1_565 S
C545 H529 0.930 . S
C545 C544 1.377 1_545 S
C545 C546 1.379 . S
C546 H530 0.931 . S
C546 C540 1.383 1_545 S
C546 C545 1.379 . S
H547 C541 0.959 . S
H548 C541 0.961 . S
H549 C541 0.960 . S
H550 C542 0.930 . S
H551 C543 0.929 . S
H552 C560 0.929 . S
H553 C562 0.930 . S
H554 C564 0.930 . S
H555 C567 0.929 . S
H556 C570 0.930 . S
H557 C572 0.960 . S
H558 C572 0.960 . S
H559 C572 0.960 . S
C560 H552 0.929 . S
C560 C561 1.384 . S
C560 C562 1.384 . S
C561 C560 1.384 . S
C561 C567 1.383 1_554 S
C562 H553 0.930 . S
C562 C560 1.384 . S
C562 C563 1.372 . S
C563 C562 1.372 . S
C563 C564 1.400 1_554 S
C563 C568 1.490 . S
C564 H554 0.930 . S
C564 C563 1.400 1_556 S
C564 C567 1.386 . S
H565 C581 0.930 . S
H566 C582 0.931 . S
C567 H555 0.929 . S
C567 C561 1.383 1_556 S
C567 C564 1.386 . S
C568 C563 1.490 . S
C568 C570 1.395 . S
C568 C571 1.403 1_554 S
H569 C575 0.930 . S
C570 H556 0.930 . S
C570 C568 1.395 . S
C570 C573 1.403 1_655 S
C571 C568 1.403 1_556 S
C571 C572 1.524 . S
C571 C575 1.400 1_655 S
C572 H557 0.960 . S
C572 H558 0.960 . S
C572 H559 0.960 . S
C572 C571 1.524 . S
C573 C570 1.403 1_455 S
C573 C574 1.392 . S
C573 C577 1.495 . S
C574 C573 1.392 . S
C574 C575 1.385 1_554 S
C574 C576 1.478 . S
C575 H569 0.930 . S
C575 C571 1.400 1_455 S
C575 C574 1.385 1_556 S
C576 C574 1.478 . S
C576 C578 1.381 . S
C576 C582 1.383 1_554 S
C577 C573 1.495 . S
C577 H583 0.959 . S
C577 H584 0.961 . S
C577 H585 0.960 . S
C578 C576 1.381 . S
C578 C579 1.394 . S
C578 H586 0.930 . S
C579 C578 1.394 . S
C579 C580 1.383 . S
C579 H587 0.929 . S
C580 C579 1.383 . S
C580 C581 1.377 1_554 S
C581 H565 0.930 . S
C581 C580 1.377 1_556 S
C581 C582 1.379 . S
C582 H566 0.931 . S
C582 C576 1.383 1_556 S
C582 C581 1.379 . S
H583 C577 0.959 . S
H584 C577 0.961 . S
H585 C577 0.960 . S
H586 C578 0.930 . S
H587 C579 0.929 . S
H588 C596 0.929 . S
H589 C598 0.930 . S
H590 C600 0.930 . S
H591 C603 0.929 . S
H592 C606 0.930 . S
H593 C608 0.960 . S
H594 C608 0.960 . S
H595 C608 0.960 . S
C596 H588 0.929 . S
C596 C597 1.377 . S
C596 C598 1.384 . S
C597 C596 1.377 . S
C597 C603 1.390 . S
C598 H589 0.930 . S
C598 C596 1.384 . S
C598 C599 1.372 . S
C599 C598 1.372 . S
C599 C600 1.400 . S
C599 C604 1.490 . S
C600 H590 0.930 . S
C600 C599 1.400 . S
C600 C603 1.386 . S
H601 C617 0.930 . S
H602 C618 0.931 . S
C603 H591 0.929 . S
C603 C597 1.390 . S
C603 C600 1.386 . S
C604 C599 1.490 . S
C604 C606 1.395 . S
C604 C607 1.403 . S
H605 C611 0.930 . S
C606 H592 0.930 . S
C606 C604 1.395 . S
C606 C609 1.403 1_455 S
C607 C604 1.403 . S
C607 C608 1.524 . S
C607 C611 1.400 1_455 S
C608 H593 0.960 . S
C608 H594 0.960 . S
C608 H595 0.960 . S
C608 C607 1.524 . S
C609 C606 1.403 1_655 S
C609 C610 1.392 . S
C609 C613 1.495 . S
C610 C609 1.392 . S
C610 C611 1.385 . S
C610 C612 1.478 . S
C611 H605 0.930 . S
C611 C607 1.400 1_655 S
C611 C610 1.385 . S
C612 C610 1.478 . S
C612 C614 1.381 . S
C612 C618 1.383 . S
C613 C609 1.495 . S
C613 H619 0.959 . S
C613 H620 0.961 . S
C613 H621 0.960 . S
C614 C612 1.381 . S
C614 C615 1.394 . S
C614 H622 0.930 . S
C615 C614 1.394 . S
C615 C616 1.383 . S
C615 H623 0.929 . S
C616 C615 1.383 . S
C616 C617 1.377 . S
C617 H601 0.930 . S
C617 C616 1.377 . S
C617 C618 1.379 . S
C618 H602 0.931 . S
C618 C612 1.383 . S
C618 C617 1.379 . S
H619 C613 0.959 . S
H620 C613 0.961 . S
H621 C613 0.960 . S
H622 C614 0.930 . S
H623 C615 0.929 . S
H624 C632 0.929 . S
H625 C634 0.930 . S
H626 C636 0.930 . S
H627 C639 0.929 . S
H628 C642 0.930 . S
H629 C644 0.960 . S
H630 C644 0.960 . S
H631 C644 0.960 . S
C632 H624 0.929 . S
C632 C633 1.379 1_455 S
C632 C634 1.384 . S
C633 C632 1.379 1_655 S
C633 C639 1.388 1_545 S
C634 H625 0.930 . S
C634 C632 1.384 . S
C634 C635 1.372 . S
C635 C634 1.372 . S
C635 C636 1.400 1_445 S
C635 C640 1.490 . S
C636 H626 0.930 . S
C636 C635 1.400 1_665 S
C636 C639 1.386 . S
H637 C653 0.930 . S
H638 C654 0.931 . S
C639 H627 0.929 . S
C639 C633 1.388 1_565 S
C639 C636 1.386 . S
C640 C635 1.490 . S
C640 C642 1.395 1_545 S
C640 C643 1.403 1_455 S
H641 C647 0.930 . S
C642 H628 0.930 . S
C642 C640 1.395 1_565 S
C642 C645 1.403 . S
C643 C640 1.403 1_655 S
C643 C644 1.524 . S
C643 C647 1.400 . S
C644 H629 0.960 . S
C644 H630 0.960 . S
C644 H631 0.960 . S
C644 C643 1.524 . S
C645 C642 1.403 . S
C645 C646 1.392 . S
C645 C649 1.495 . S
C646 C645 1.392 . S
C646 C647 1.385 1_465 S
C646 C648 1.478 . S
C647 H641 0.930 . S
C647 C643 1.400 . S
C647 C646 1.385 1_645 S
C648 C646 1.478 . S
C648 C650 1.381 1_565 S
C648 C654 1.383 1_455 S
C649 C645 1.495 . S
C649 H655 0.959 . S
C649 H656 0.961 . S
C649 H657 0.960 . S
C650 C648 1.381 1_545 S
C650 C651 1.394 . S
C650 H658 0.930 . S
C651 C650 1.394 . S
C651 C652 1.374 1_545 S
C651 H659 0.929 . S
C652 C651 1.374 1_565 S
C652 C653 1.406 1_455 S
C653 H637 0.930 . S
C653 C652 1.406 1_655 S
C653 C654 1.379 . S
C654 H638 0.931 . S
C654 C648 1.383 1_655 S
C654 C653 1.379 . S
H655 C649 0.959 . S
H656 C649 0.961 . S
H657 C649 0.960 . S
H658 C650 0.930 . S
H659 C651 0.929 . S
H660 C668 0.929 . S
H661 C670 0.930 . S
H662 C672 0.930 . S
H663 C675 0.929 . S
H664 C678 0.930 . S
H665 C680 0.960 . S
H666 C680 0.960 . S
H667 C680 0.960 . S
C668 H660 0.929 . S
C668 C669 1.358 1_565 S
C668 C670 1.384 . S
C669 C668 1.358 1_545 S
C669 C675 1.425 1_455 S
C670 H661 0.930 . S
C670 C668 1.384 . S
C670 C671 1.402 . S
C671 C670 1.402 . S
C671 C672 1.383 1_465 S
C671 C676 1.477 1_455 S
C672 H662 0.930 . S
C672 C671 1.383 1_645 S
C672 C675 1.386 . S
H673 C689 0.930 . S
H674 C690 0.931 . S
C675 H663 0.929 . S
C675 C669 1.425 1_655 S
C675 C672 1.386 . S
C676 C671 1.477 1_655 S
C676 C678 1.405 . S
C676 C679 1.393 1_665 S
H677 C683 0.930 . S
C678 H664 0.930 . S
C678 C676 1.405 . S
C678 C681 1.403 . S
C679 C676 1.393 1_445 S
C679 C680 1.524 . S
C679 C683 1.400 . S
C680 H665 0.960 . S
C680 H666 0.960 . S
C680 H667 0.960 . S
C680 C679 1.524 . S
C681 C678 1.403 . S
C681 C682 1.392 . S
C681 C685 1.495 . S
C682 C681 1.392 . S
C682 C683 1.385 1_665 S
C682 C684 1.478 . S
C683 H677 0.930 . S
C683 C679 1.400 . S
C683 C682 1.385 1_445 S
C684 C682 1.478 . S
C684 C686 1.379 1_655 S
C684 C690 1.383 1_565 S
C685 C681 1.495 . S
C685 H691 0.959 . S
C685 H692 0.961 . S
C685 H693 0.960 . S
C686 C684 1.379 1_455 S
C686 C687 1.395 . S
C686 H694 0.931 . S
C687 C686 1.395 . S
C687 C688 1.412 1_455 S
C687 H695 0.929 . S
C688 C687 1.412 1_655 S
C688 C689 1.362 1_565 S
C689 H673 0.930 . S
C689 C688 1.362 1_545 S
C689 C690 1.379 . S
C690 H674 0.931 . S
C690 C684 1.383 1_545 S
C690 C689 1.379 . S
H691 C685 0.959 . S
H692 C685 0.961 . S
H693 C685 0.960 . S
H694 C686 0.931 . S
H695 C687 0.929 . S
H696 C704 0.929 . S
H697 C706 0.930 . S
H698 C708 0.930 . S
H699 C711 0.929 . S
H700 C714 0.930 . S
H701 C716 0.960 . S
H702 C716 0.960 . S
H703 C716 0.960 . S
C704 H696 0.929 . S
C704 C705 1.377 . S
C704 C706 1.384 . S
C705 C704 1.377 . S
C705 C711 1.390 . S
C706 H697 0.930 . S
C706 C704 1.384 . S
C706 C707 1.372 . S
C707 C706 1.372 . S
C707 C708 1.400 . S
C707 C712 1.490 . S
C708 H698 0.930 . S
C708 C707 1.400 . S
C708 C711 1.386 . S
H709 C725 0.930 . S
H710 C726 0.931 . S
C711 H699 0.929 . S
C711 C705 1.390 . S
C711 C708 1.386 . S
C712 C707 1.490 . S
C712 C714 1.395 . S
C712 C715 1.403 . S
H713 C719 0.930 . S
C714 H700 0.930 . S
C714 C712 1.395 . S
C714 C717 1.403 . S
C715 C712 1.403 . S
C715 C716 1.524 . S
C715 C719 1.400 . S
C716 H701 0.960 . S
C716 H702 0.960 . S
C716 H703 0.960 . S
C716 C715 1.524 . S
C717 C714 1.403 . S
C717 C718 1.392 . S
C717 C721 1.495 . S
C718 C717 1.392 . S
C718 C719 1.385 . S
C718 C720 1.478 . S
C719 H713 0.930 . S
C719 C715 1.400 . S
C719 C718 1.385 . S
C720 C718 1.478 . S
C720 C722 1.381 . S
C720 C726 1.383 . S
C721 C717 1.495 . S
C721 H727 0.959 . S
C721 H728 0.961 . S
C721 H729 0.960 . S
C722 C720 1.381 . S
C722 C723 1.394 . S
C722 H730 0.930 . S
C723 C722 1.394 . S
C723 C724 1.383 . S
C723 H731 0.929 . S
C724 C723 1.383 . S
C724 C725 1.377 . S
C725 H709 0.930 . S
C725 C724 1.377 . S
C725 C726 1.379 . S
C726 H710 0.931 . S
C726 C720 1.383 . S
C726 C725 1.379 . S
H727 C721 0.959 . S
H728 C721 0.961 . S
H729 C721 0.960 . S
H730 C722 0.930 . S
H731 C723 0.929 . S
H732 C740 0.929 . S
H733 C742 0.930 . S
H734 C744 0.930 . S
H735 C747 0.929 . S
H736 C750 0.930 . S
H737 C752 0.960 . S
H738 C752 0.960 . S
H739 C752 0.960 . S
C740 H732 0.929 . S
C740 C741 1.377 . S
C740 C742 1.384 . S
C741 C740 1.377 . S
C741 C747 1.390 . S
C742 H733 0.930 . S
C742 C740 1.384 . S
C742 C743 1.372 . S
C743 C742 1.372 . S
C743 C744 1.400 . S
C743 C748 1.490 . S
C744 H734 0.930 . S
C744 C743 1.400 . S
C744 C747 1.386 . S
H745 C761 0.930 . S
H746 C762 0.931 . S
C747 H735 0.929 . S
C747 C741 1.390 . S
C747 C744 1.386 . S
C748 C743 1.490 . S
C748 C750 1.395 . S
C748 C751 1.403 . S
H749 C755 0.930 . S
C750 H736 0.930 . S
C750 C748 1.395 . S
C750 C753 1.403 . S
C751 C748 1.403 . S
C751 C752 1.524 . S
C751 C755 1.400 . S
C752 H737 0.960 . S
C752 H738 0.960 . S
C752 H739 0.960 . S
C752 C751 1.524 . S
C753 C750 1.403 . S
C753 C754 1.392 . S
C753 C757 1.495 . S
C754 C753 1.392 . S
C754 C755 1.385 . S
C754 C756 1.478 . S
C755 H749 0.930 . S
C755 C751 1.400 . S
C755 C754 1.385 . S
C756 C754 1.478 . S
C756 C758 1.381 . S
C756 C762 1.383 . S
C757 C753 1.495 . S
C757 H763 0.959 . S
C757 H764 0.961 . S
C757 H765 0.960 . S
C758 C756 1.381 . S
C758 C759 1.394 . S
C758 H766 0.930 . S
C759 C758 1.394 . S
C759 C760 1.383 . S
C759 H767 0.929 . S
C760 C759 1.383 . S
C760 C761 1.377 . S
C761 H745 0.930 . S
C761 C760 1.377 . S
C761 C762 1.379 . S
C762 H746 0.931 . S
C762 C756 1.383 . S
C762 C761 1.379 . S
H763 C757 0.959 . S
H764 C757 0.961 . S
H765 C757 0.960 . S
H766 C758 0.930 . S
H767 C759 0.929 . S
C345 C237 1.360 1_556 S
C364 C58 1.337 . S
C381 C226 1.390 1_554 S
C400 C69 1.358 1_556 S
C417 C142 1.373 . S
C436 C321 1.365 . S
C453 C153 1.391 . S
C472 C310 1.401 . S
C489 C67 1.938 1_556 S
C508 C56 1.936 1_554 S
C525 C151 1.939 . S
C544 C140 1.940 . S
C561 C235 1.938 . S
C580 C224 1.937 1_554 S
C597 C308 1.937 . S
C616 C319 1.936 . S
C633 C147 1.482 1_545 S
C652 C63 1.469 1_465 S
C669 C74 1.457 1_545 S
C688 C158 1.475 1_665 S
C705 C315 1.482 . S
C724 C231 1.492 . S
C741 C326 1.478 . S
C760 C242 1.469 . S
