# Generated by pormake.
# Topology wiu, (6)-cn, num edge types: 1
# Building blocks:
#     Node 0, Type 0, BuildingBlock: BETGAK_clean_sbu_0, # of connection points: 6
#     Node 1, Type 0, BuildingBlock: BETGAK_clean_sbu_0, # of connection points: 6
#     Node 2, Type 0, BuildingBlock: BETGAK_clean_sbu_0, # of connection points: 6
#     Node 3, Type 0, BuildingBlock: BETGAK_clean_sbu_0, # of connection points: 6
#     Node 4, Type 0, BuildingBlock: BETGAK_clean_sbu_0, # of connection points: 6
#     Node 5, Type 0, BuildingBlock: BETGAK_clean_sbu_0, # of connection points: 6
#     Node 6, Type 0, BuildingBlock: BETGAK_clean_sbu_0, # of connection points: 6
#     Node 7, Type 0, BuildingBlock: BETGAK_clean_sbu_0, # of connection points: 6
#     Node 8, Type 0, BuildingBlock: BETGAK_clean_sbu_0, # of connection points: 6
#     Node 9, Type 0, BuildingBlock: BETGAK_clean_sbu_0, # of connection points: 6
#     Node 10, Type 0, BuildingBlock: BETGAK_clean_sbu_0, # of connection points: 6
#     Node 11, Type 0, BuildingBlock: BETGAK_clean_sbu_0, # of connection points: 6
#     Node 12, Type 0, BuildingBlock: BETGAK_clean_sbu_0, # of connection points: 6
#     Node 13, Type 0, BuildingBlock: BETGAK_clean_sbu_0, # of connection points: 6
#     Node 14, Type 0, BuildingBlock: BETGAK_clean_sbu_0, # of connection points: 6
#     Node 15, Type 0, BuildingBlock: BETGAK_clean_sbu_0, # of connection points: 6
#     Edge 16, Type (0, 0), BuildingBlock: EZIPEK_clean_linker_0, # of connection points: 2
#     Edge 17, Type (0, 0), BuildingBlock: EZIPEK_clean_linker_0, # of connection points: 2
#     Edge 18, Type (0, 0), BuildingBlock: EZIPEK_clean_linker_0, # of connection points: 2
#     Edge 19, Type (0, 0), BuildingBlock: EZIPEK_clean_linker_0, # of connection points: 2
#     Edge 20, Type (0, 0), BuildingBlock: EZIPEK_clean_linker_0, # of connection points: 2
#     Edge 21, Type (0, 0), BuildingBlock: EZIPEK_clean_linker_0, # of connection points: 2
#     Edge 22, Type (0, 0), BuildingBlock: EZIPEK_clean_linker_0, # of connection points: 2
#     Edge 23, Type (0, 0), BuildingBlock: EZIPEK_clean_linker_0, # of connection points: 2
#     Edge 24, Type (0, 0), BuildingBlock: EZIPEK_clean_linker_0, # of connection points: 2
#     Edge 25, Type (0, 0), BuildingBlock: EZIPEK_clean_linker_0, # of connection points: 2
#     Edge 26, Type (0, 0), BuildingBlock: EZIPEK_clean_linker_0, # of connection points: 2
#     Edge 27, Type (0, 0), BuildingBlock: EZIPEK_clean_linker_0, # of connection points: 2
#     Edge 28, Type (0, 0), BuildingBlock: EZIPEK_clean_linker_0, # of connection points: 2
#     Edge 29, Type (0, 0), BuildingBlock: EZIPEK_clean_linker_0, # of connection points: 2
#     Edge 30, Type (0, 0), BuildingBlock: EZIPEK_clean_linker_0, # of connection points: 2
#     Edge 31, Type (0, 0), BuildingBlock: EZIPEK_clean_linker_0, # of connection points: 2
#     Edge 32, Type (0, 0), BuildingBlock: EZIPEK_clean_linker_0, # of connection points: 2
#     Edge 33, Type (0, 0), BuildingBlock: EZIPEK_clean_linker_0, # of connection points: 2
#     Edge 34, Type (0, 0), BuildingBlock: EZIPEK_clean_linker_0, # of connection points: 2
#     Edge 35, Type (0, 0), BuildingBlock: EZIPEK_clean_linker_0, # of connection points: 2
#     Edge 36, Type (0, 0), BuildingBlock: EZIPEK_clean_linker_0, # of connection points: 2
#     Edge 37, Type (0, 0), BuildingBlock: EZIPEK_clean_linker_0, # of connection points: 2
#     Edge 38, Type (0, 0), BuildingBlock: EZIPEK_clean_linker_0, # of connection points: 2
#     Edge 39, Type (0, 0), BuildingBlock: EZIPEK_clean_linker_0, # of connection points: 2
#     Edge 40, Type (0, 0), BuildingBlock: EZIPEK_clean_linker_0, # of connection points: 2
#     Edge 41, Type (0, 0), BuildingBlock: EZIPEK_clean_linker_0, # of connection points: 2
#     Edge 42, Type (0, 0), BuildingBlock: EZIPEK_clean_linker_0, # of connection points: 2
#     Edge 43, Type (0, 0), BuildingBlock: EZIPEK_clean_linker_0, # of connection points: 2
#     Edge 44, Type (0, 0), BuildingBlock: EZIPEK_clean_linker_0, # of connection points: 2
#     Edge 45, Type (0, 0), BuildingBlock: EZIPEK_clean_linker_0, # of connection points: 2
#     Edge 46, Type (0, 0), BuildingBlock: EZIPEK_clean_linker_0, # of connection points: 2
#     Edge 47, Type (0, 0), BuildingBlock: EZIPEK_clean_linker_0, # of connection points: 2
#     Edge 48, Type (0, 0), BuildingBlock: EZIPEK_clean_linker_0, # of connection points: 2
#     Edge 49, Type (0, 0), BuildingBlock: EZIPEK_clean_linker_0, # of connection points: 2
#     Edge 50, Type (0, 0), BuildingBlock: EZIPEK_clean_linker_0, # of connection points: 2
#     Edge 51, Type (0, 0), BuildingBlock: EZIPEK_clean_linker_0, # of connection points: 2
#     Edge 52, Type (0, 0), BuildingBlock: EZIPEK_clean_linker_0, # of connection points: 2
#     Edge 53, Type (0, 0), BuildingBlock: EZIPEK_clean_linker_0, # of connection points: 2
#     Edge 54, Type (0, 0), BuildingBlock: EZIPEK_clean_linker_0, # of connection points: 2
#     Edge 55, Type (0, 0), BuildingBlock: EZIPEK_clean_linker_0, # of connection points: 2
#     Edge 56, Type (0, 0), BuildingBlock: EZIPEK_clean_linker_0, # of connection points: 2
#     Edge 57, Type (0, 0), BuildingBlock: EZIPEK_clean_linker_0, # of connection points: 2
#     Edge 58, Type (0, 0), BuildingBlock: EZIPEK_clean_linker_0, # of connection points: 2
#     Edge 59, Type (0, 0), BuildingBlock: EZIPEK_clean_linker_0, # of connection points: 2
#     Edge 60, Type (0, 0), BuildingBlock: EZIPEK_clean_linker_0, # of connection points: 2
#     Edge 61, Type (0, 0), BuildingBlock: EZIPEK_clean_linker_0, # of connection points: 2
#     Edge 62, Type (0, 0), BuildingBlock: EZIPEK_clean_linker_0, # of connection points: 2
#     Edge 63, Type (0, 0), BuildingBlock: EZIPEK_clean_linker_0, # of connection points: 2
# Relax obj value: 0.736
# Max RMSD: 0.340
# Mean RMSD: 0.340
data_MOF--net-wiu--node1-BETGAK_clean_sbu_0--edge1-EZIPEK_clean_linker_0
_symmetry_space_group_name_H-M    P1
_symmetry_Int_Tables_number       1
_symmetry_cell_setting            triclinic
loop_
_symmetry_equiv_pos_as_xyz
'x, y, z'
_cell_length_a     29.144091
_cell_length_b     29.119774
_cell_length_c     38.257576
_cell_angle_alpha  91.02056
_cell_angle_beta   90.655997
_cell_angle_gamma 89.864919
loop_
_atom_site_label
_atom_site_type_symbol
_atom_site_fract_x
_atom_site_fract_y
_atom_site_fract_z
_atom_type_partial_charge
La0 La 0.3833 0.23463 0.37714 0.0
La1 La 0.42856 0.15981 0.34354 0.0
C2 C 0.32977 0.29948 0.39535 0.0
C3 C 0.32901 0.34995 0.39545 0.0
C4 C 0.35032 0.37354 0.36833 0.0
C5 C 0.34051 0.41952 0.36265 0.0
C6 C 0.30838 0.44244 0.38347 0.0
C7 C 0.28876 0.42007 0.41183 0.0
C8 C 0.29925 0.3739 0.4179 0.0
C9 C 0.47453 0.25432 0.36857 0.0
C10 C 0.41744 0.15129 0.42528 0.0
C11 C 0.49079 0.11727 0.31165 0.0
C12 C 0.5288 0.13652 0.29217 0.0
C13 C 0.56316 0.10791 0.27891 0.0
C14 C 0.60367 0.12702 0.26674 0.0
C15 C 0.61083 0.17488 0.2686 0.0
C16 C 0.57555 0.20342 0.28081 0.0
C17 C 0.53441 0.18438 0.29173 0.0
C18 C 0.34419 0.13566 0.36615 0.0
C19 C 0.35881 0.21079 0.29417 0.0
O20 O 0.33174 0.28095 0.36436 0.0
O21 O 0.35655 0.27821 0.41734 0.0
O22 O 0.44881 0.26624 0.39424 0.0
O23 O 0.44732 0.23306 0.34735 0.0
O24 O 0.38658 0.18504 0.42171 0.0
O25 O 0.44389 0.14137 0.39825 0.0
O26 O 0.44971 0.12341 0.29845 0.0
O27 O 0.49263 0.12756 0.34501 0.0
O28 O 0.37812 0.1073 0.36075 0.0
O29 O 0.35861 0.17295 0.355 0.0
O30 O 0.39204 0.17975 0.29538 0.0
O31 O 0.35158 0.23731 0.3226 0.0
H32 H 0.37127 0.35551 0.34952 0.0
H33 H 0.35539 0.43627 0.34039 0.0
H34 H 0.26366 0.43754 0.428 0.0
H35 H 0.28177 0.35615 0.43852 0.0
H36 H 0.55948 0.0709 0.27928 0.0
H37 H 0.63032 0.1042 0.2573 0.0
H38 H 0.58021 0.2402 0.28302 0.0
H39 H 0.50801 0.20693 0.30184 0.0
La40 La 0.64129 0.65252 0.62838 0.0
La41 La 0.70952 0.69983 0.59943 0.0
C42 C 0.57939 0.60831 0.65954 0.0
C43 C 0.53182 0.59634 0.64957 0.0
C44 C 0.51458 0.60658 0.61611 0.0
C45 C 0.47036 0.59286 0.60592 0.0
C46 C 0.44296 0.56805 0.62883 0.0
C47 C 0.46019 0.55788 0.66231 0.0
C48 C 0.50429 0.57199 0.67261 0.0
C49 C 0.60889 0.73374 0.60295 0.0
C50 C 0.72089 0.69571 0.6796 0.0
C51 C 0.76254 0.74517 0.56298 0.0
C52 C 0.80538 0.72466 0.5494 0.0
C53 C 0.847 0.734 0.56679 0.0
C54 C 0.88648 0.70903 0.55878 0.0
C55 C 0.88627 0.675 0.5319 0.0
C56 C 0.84351 0.66393 0.5161 0.0
C57 C 0.80395 0.68881 0.52436 0.0
C58 C 0.74379 0.61938 0.62037 0.0
C59 C 0.66154 0.62214 0.54976 0.0
O60 O 0.61062 0.58953 0.63997 0.0
O61 O 0.58814 0.65165 0.66548 0.0
O62 O 0.59349 0.69314 0.5956 0.0
O63 O 0.64573 0.72724 0.62049 0.0
O64 O 0.68874 0.66332 0.67533 0.0
O65 O 0.72915 0.72185 0.65267 0.0
O66 O 0.7615 0.7494 0.59686 0.0
O67 O 0.72393 0.72861 0.55051 0.0
O68 O 0.76559 0.65755 0.61937 0.0
O69 O 0.70443 0.62688 0.60781 0.0
O70 O 0.68693 0.66007 0.55118 0.0
O71 O 0.64019 0.61076 0.57877 0.0
H72 H 0.53553 0.62462 0.59769 0.0
H73 H 0.45767 0.60111 0.58005 0.0
H74 H 0.43946 0.53892 0.6804 0.0
H75 H 0.51712 0.56338 0.69837 0.0
H76 H 0.84887 0.76014 0.58727 0.0
H77 H 0.91759 0.71819 0.5729 0.0
H78 H 0.84054 0.63729 0.49615 0.0
H79 H 0.7721 0.67944 0.51127 0.0
La80 La 0.21625 0.90634 0.87211 0.0
La81 La 0.17357 0.97817 0.83878 0.0
C82 C 0.26065 0.83549 0.8854 0.0
C83 C 0.28418 0.79269 0.89341 0.0
C84 C 0.25821 0.75378 0.90114 0.0
C85 C 0.27567 0.70987 0.89411 0.0
C86 C 0.31894 0.70484 0.87891 0.0
C87 C 0.34639 0.74367 0.87402 0.0
C88 C 0.32921 0.78742 0.88156 0.0
C89 C 0.12595 0.88849 0.86619 0.0
C90 C 0.18166 0.99038 0.91998 0.0
C91 C 0.11163 1.02405 0.80889 0.0
C92 C 0.06774 1.00832 0.79351 0.0
C93 C 1.05762 1.01753 0.75848 0.0
C94 C 1.02153 0.99475 0.74143 0.0
C95 C 0.99532 0.96218 0.75907 0.0
C96 C 1.00287 0.95584 0.79485 0.0
C97 C 1.03883 0.97882 0.81202 0.0
C98 C 0.25953 0.99878 0.86286 0.0
C99 C 0.24227 0.93002 0.78881 0.0
O100 O 0.22741 0.83636 0.86237 0.0
O101 O 0.26748 0.87406 0.9029 0.0
O102 O 0.1494 0.89135 0.89495 0.0
O103 O 0.15187 0.90549 0.84286 0.0
O104 O 0.21364 0.9573 0.91765 0.0
O105 O 0.15367 0.9948 0.89295 0.0
O106 O 0.14845 1.00931 0.79306 0.0
O107 O 0.11558 1.02062 0.84271 0.0
O108 O 0.22713 1.02863 0.85805 0.0
O109 O 0.24391 0.96313 0.84952 0.0
O110 O 0.20772 0.9594 0.7895 0.0
O111 O 0.25041 0.90618 0.81807 0.0
H112 H 0.22319 0.75749 0.90996 0.0
H113 H 0.25453 0.68004 0.89859 0.0
H114 H 0.3801 0.7402 0.8626 0.0
H115 H 0.3493 0.81714 0.87466 0.0
H116 H 0.07922 1.04026 0.74378 0.0
H117 H 1.01573 1.00055 0.71387 0.0
H118 H 0.98313 0.93081 0.80889 0.0
H119 H 1.04584 0.97091 0.83912 0.0
La120 La 0.96518 0.49519 1.13383 0.0
La121 La 0.89766 0.44426 1.09968 0.0
C122 C 1.02597 0.54065 1.16702 0.0
C123 C 0.07405 0.54861 1.15668 0.0
C124 C 0.08701 0.53998 1.12188 0.0
C125 C 0.13185 0.54809 1.11116 0.0
C126 C 0.16467 0.56537 1.13494 0.0
C127 C 0.15216 0.57372 1.1699 0.0
C128 C 0.10706 0.56523 1.18074 0.0
C129 C 0.99865 0.41319 1.10952 0.0
C130 C 0.88627 0.44619 1.17971 0.0
C131 C 0.86258 0.37896 1.06702 0.0
C132 C 0.86161 0.33237 1.08065 0.0
C133 C 0.82099 0.30715 1.07994 0.0
C134 C 0.82101 0.26219 1.09185 0.0
C135 C 0.86232 0.24141 1.10358 0.0
C136 C 0.90028 0.26998 1.11018 0.0
C137 C 0.90019 0.3148 1.09826 0.0
C138 C 0.86166 0.52163 1.12407 0.0
C139 C 0.94305 0.52462 1.05411 0.0
O140 O 0.99509 0.55901 1.14667 0.0
O141 O 1.01534 0.49834 1.17409 0.0
O142 O 1.0162 0.4532 1.10503 0.0
O143 O 0.96071 0.42121 1.12473 0.0
O144 O 0.91461 0.48227 1.17766 0.0
O145 O 0.88414 0.41845 1.15216 0.0
O146 O 0.90345 0.39476 1.05952 0.0
O147 O 0.83801 0.40849 1.08485 0.0
O148 O 0.83968 0.48363 1.11885 0.0
O149 O 0.90148 0.51636 1.11188 0.0
O150 O 0.91459 0.48886 1.05432 0.0
O151 O 0.9679 0.53312 1.08304 0.0
H152 H 0.06218 0.52779 1.10266 0.0
H153 H 0.14071 0.54191 1.08405 0.0
H154 H 0.17702 0.58752 1.18853 0.0
H155 H 0.09783 0.57224 1.20767 0.0
H156 H 0.78986 0.32139 1.06874 0.0
H157 H 0.78964 0.24283 1.08826 0.0
H158 H 0.93155 0.2567 1.12152 0.0
H159 H 0.931 0.33504 1.10163 0.0
La160 La 0.67477 0.96939 1.10767 0.0
La161 La 0.71528 0.89322 1.0815 0.0
C162 C 0.6351 1.03177 1.14105 0.0
C163 C 0.6593 0.0683 1.16105 0.0
C164 C 0.66926 0.11008 1.145 0.0
C165 C 0.69679 0.14286 1.16186 0.0
C166 C 0.714 0.13568 1.19594 0.0
C167 C 0.70634 0.09213 1.21076 0.0
C168 C 0.67897 1.05935 1.1938 0.0
C169 C 0.76333 0.98534 1.08929 0.0
C170 C 0.73847 0.91714 1.16314 0.0
C171 C 0.75902 0.83023 1.04953 0.0
C172 C 0.7696 0.78369 1.06092 0.0
C173 C 0.79001 0.75162 1.03817 0.0
C174 C 0.80274 0.70837 1.05041 0.0
C175 C 0.79526 0.6973 1.08546 0.0
C176 C 0.77445 0.72928 1.10798 0.0
C177 C 0.76148 0.7721 1.09575 0.0
C178 C 0.63154 0.86925 1.10499 0.0
C179 C 0.67659 0.97266 1.02845 0.0
O180 O 0.64136 1.033 1.10744 0.0
O181 O 0.6385 0.98986 1.15272 0.0
O182 O 0.72993 1.01432 1.08723 0.0
O183 O 0.74614 0.95159 1.10354 0.0
O184 O 0.70491 0.94738 1.15873 0.0
O185 O 0.74844 0.89016 1.13552 0.0
O186 O 0.77812 0.86242 1.0684 0.0
O187 O 0.71599 0.83935 1.04389 0.0
O188 O 0.67018 0.84914 1.11166 0.0
O189 O 0.64128 0.90566 1.08792 0.0
O190 O 0.70699 0.93896 1.03395 0.0
O191 O 0.651 0.98453 1.05505 0.0
H192 H 0.65597 0.11745 1.11913 0.0
H193 H 0.70269 0.17476 1.14861 0.0
H194 H 0.71907 0.08356 0.23647 0.0
H195 H 0.67341 1.02687 1.20645 0.0
H196 H 0.79668 0.76026 1.01127 0.0
H197 H 0.81881 0.68379 1.03282 0.0
H198 H 0.76918 0.72144 1.13518 0.0
H199 H 0.74617 0.79663 1.11376 0.0
La200 La 0.38338 0.43313 0.86758 0.0
La201 La 0.46059 0.47019 0.83921 0.0
C202 C 0.32923 0.37548 0.89161 0.0
C203 C 0.32467 0.32871 0.87759 0.0
C204 C 0.28952 0.30008 0.8882 0.0
C205 C 0.29222 0.25307 0.88081 0.0
C206 C 0.33145 0.23411 0.86404 0.0
C207 C 0.36136 0.2646 0.84775 0.0
C208 C 0.35828 0.31148 0.85487 0.0
C209 C 0.3713 0.52045 0.84519 0.0
C210 C 0.42995 0.49999 0.9215 0.0
C211 C 0.53479 0.50845 0.82736 0.0
C212 C 0.5782 0.53058 0.82036 0.0
C213 C 0.61506 0.50402 0.80806 0.0
C214 C 0.66004 0.51962 0.8128 0.0
C215 C 0.66821 0.5611 0.83098 0.0
C216 C 0.63098 0.58872 0.84132 0.0
C217 C 0.58621 0.57374 0.83571 0.0
C218 C 0.47296 0.37892 0.84344 0.0
C219 C 0.3809 0.43746 0.78675 0.0
O220 O 0.36925 0.38456 0.90585 0.0
O221 O 0.31619 0.40745 0.87039 0.0
O222 O 0.33919 0.49002 0.84673 0.0
O223 O 0.40446 0.5024 0.85992 0.0
O224 O 0.39658 0.46962 0.91761 0.0
O225 O 0.45853 0.50467 0.89422 0.0
O226 O 0.53025 0.47913 0.8524 0.0
O227 O 0.49774 0.51626 0.80863 0.0
O228 O 0.47423 0.40254 0.81533 0.0
O229 O 0.45494 0.40579 0.86645 0.0
O230 O 0.41278 0.47002 0.7919 0.0
O231 O 0.37516 0.40904 0.81281 0.0
H232 H 0.26214 0.31327 0.90449 0.0
H233 H 0.26623 0.23172 0.89219 0.0
H234 H 0.3901 0.25232 0.83264 0.0
H235 H 0.38467 0.33365 0.84504 0.0
H236 H 0.60923 0.47005 0.7969 0.0
H237 H 0.68839 0.49823 0.80428 0.0
H238 H 0.63667 0.62107 0.85513 0.0
H239 H 0.5581 0.59404 0.84611 0.0
La240 La 0.92572 0.16153 0.61683 0.0
La241 La 0.88011 0.22808 0.58279 0.0
C242 C 0.97354 0.10514 0.64908 0.0
C243 C 0.9573 1.05775 0.65386 0.0
C244 C 0.91212 1.05006 0.66477 0.0
C245 C 0.89526 1.00568 0.66791 0.0
C246 C 0.92379 0.96733 0.66164 0.0
C247 C 0.96699 0.97551 0.64612 0.0
C248 C 0.98369 1.02019 0.64277 0.0
C249 C 0.84579 0.12716 0.58986 0.0
C250 C 0.849 0.20519 0.66348 0.0
C251 C 0.82784 0.29363 0.56359 0.0
C252 C 0.82731 0.34442 0.56528 0.0
C253 C 0.85331 0.36825 0.59094 0.0
C254 C 0.84443 0.41459 0.59856 0.0
C255 C 0.80901 0.43777 0.581 0.0
C256 C 0.7846 0.41479 0.5541 0.0
C257 C 0.79375 0.36844 0.54628 0.0
C258 C 0.96961 0.25467 0.59338 0.0
C259 C 0.92298 0.14873 0.53597 0.0
O260 O 0.95014 0.13732 0.66509 0.0
O261 O 0.98195 0.11583 0.61685 0.0
O262 O 0.88258 0.10449 0.59636 0.0
O263 O 0.85403 0.16635 0.60215 0.0
O264 O 0.88385 0.17622 0.66333 0.0
O265 O 0.84218 0.23013 0.63478 0.0
O266 O 0.82746 0.27451 0.59386 0.0
O267 O 0.85598 0.27225 0.54262 0.0
O268 O 0.94609 0.25529 0.56485 0.0
O269 O 0.94344 0.23521 0.61535 0.0
O270 O 0.88604 0.17581 0.53864 0.0
O271 O 0.95147 0.14953 0.56311 0.0
H272 H 0.8897 0.07843 0.67146 0.0
H273 H 0.86089 1.00177 0.67781 0.0
H274 H 0.98965 0.94757 0.63881 0.0
H275 H 1.01757 1.02534 0.63217 0.0
H276 H 0.87844 0.35026 0.6067 0.0
H277 H 0.8634 0.43165 0.61954 0.0
H278 H 0.75702 0.4321 0.54037 0.0
H279 H 0.77267 0.35062 0.5269 0.0
La280 La 0.20883 0.69986 0.36576 0.0
La281 La 0.13825 0.64856 0.33574 0.0
C282 C 0.25879 0.76158 0.39131 0.0
C283 C 0.2823 0.79689 0.3712 0.0
C284 C 0.262 0.81424 0.34071 0.0
C285 C 0.27906 0.85378 0.32566 0.0
C286 C 0.31479 0.87799 0.34258 0.0
C287 C 0.34198 0.85369 0.36711 0.0
C288 C 0.3252 0.81354 0.38177 0.0
C289 C 0.24049 0.61948 0.34357 0.0
C290 C 0.16165 0.62519 0.41586 0.0
C291 C 0.07634 0.60081 0.30602 0.0
C292 C 1.0295 0.59122 0.31758 0.0
C293 C 1.01709 0.60103 0.35235 0.0
C294 C 0.97328 0.59039 0.36407 0.0
C295 C 0.94135 0.56961 0.34121 0.0
C296 C 0.95338 0.56065 0.30626 0.0
C297 C 0.99732 0.57127 0.29452 0.0
C298 C 0.10725 0.73253 0.35875 0.0
C299 C 0.21433 0.69055 0.28451 0.0
O300 O 0.27338 0.71988 0.38567 0.0
O301 O 0.21383 0.764 0.39149 0.0
O302 O 0.2622 0.65786 0.34205 0.0
O303 O 0.20223 0.62732 0.35753 0.0
O304 O 0.18708 0.66335 0.41456 0.0
O305 O 0.13941 0.61203 0.3868 0.0
O306 O 0.10857 0.584 0.32584 0.0
O307 O 0.08489 0.64329 0.29816 0.0
O308 O 0.08981 0.69267 0.36437 0.0
O309 O 0.14433 0.72325 0.34243 0.0
O310 O 0.18288 0.65792 0.28863 0.0
O311 O 0.22434 0.71741 0.31158 0.0
H312 H 0.23107 0.79946 0.33 0.0
H313 H 0.25955 0.86913 0.30465 0.0
H314 H 0.37242 0.86874 0.37897 0.0
H315 H 0.34356 0.79821 0.40343 0.0
H316 H 1.04152 0.61629 0.37061 0.0
H317 H 0.96449 0.59777 0.39102 0.0
H318 H 0.9288 0.54516 0.28821 0.0
H319 H 1.00627 0.56358 0.26763 0.0
La320 La 0.88207 0.73372 0.88208 0.0
La321 La 0.92864 0.66087 0.85071 0.0
C322 C 0.84266 0.79921 0.91433 0.0
C323 C 0.83215 0.84547 0.90142 0.0
C324 C 0.81727 0.8806 0.92416 0.0
C325 C 0.806 0.92391 0.91106 0.0
C326 C 0.80956 0.9324 0.87514 0.0
C327 C 0.82505 0.89746 0.85255 0.0
C328 C 0.83631 0.85438 0.86559 0.0
C329 C 0.96464 0.75973 0.85821 0.0
C330 C 0.92506 0.65282 0.93053 0.0
C331 C 0.99114 0.6166 0.82238 0.0
C332 C 1.03663 0.61188 0.83845 0.0
C333 C 0.06221 0.57179 0.83387 0.0
C334 C 0.10724 0.57005 0.84653 0.0
C335 C 0.12783 0.60955 0.86218 0.0
C336 C 0.09877 0.64557 0.87289 0.0
C337 C 1.05373 0.64711 0.86052 0.0
C338 C 0.84472 0.63512 0.87079 0.0
C339 C 0.85601 0.71254 0.80068 0.0
O340 O 0.82104 0.76602 0.89817 0.0
O341 O 0.88605 0.78942 0.91808 0.0
O342 O 0.92584 0.77926 0.85148 0.0
O343 O 0.9553 0.72352 0.875 0.0
O344 O 0.89073 0.68316 0.92673 0.0
O345 O 0.95312 0.64819 0.90404 0.0
O346 O 0.98028 0.65845 0.81305 0.0
O347 O 0.95835 0.59667 0.83938 0.0
O348 O 0.88024 0.60862 0.86836 0.0
O349 O 0.85688 0.67275 0.85848 0.0
O350 O 0.89212 0.6844 0.80221 0.0
O351 O 0.84511 0.73606 0.82983 0.0
H352 H 0.81383 0.87438 0.95184 0.0
H353 H 0.79378 0.95048 0.92875 0.0
H354 H 0.82773 0.90336 0.82476 0.0
H355 H 0.84758 0.82775 0.84754 0.0
H356 H 1.04833 0.5429 0.81902 0.0
H357 H 0.127 0.53963 0.84015 0.0
H358 H 0.11204 0.67505 0.88726 0.0
H359 H 1.03323 0.67718 0.86657 0.0
La360 La 0.14602 0.15831 1.12262 0.0
La361 La 0.21698 0.20293 1.09149 0.0
C362 C 0.07562 0.11262 1.13416 0.0
C363 C 1.03205 0.08985 1.14108 0.0
C364 C 0.99266 0.11641 1.14733 0.0
C365 C 0.94907 0.09808 1.14052 0.0
C366 C 0.94468 1.0531 1.12726 0.0
C367 C 0.98392 1.02544 1.1237 0.0
C368 C 1.02739 1.04369 1.13073 0.0
C369 C 0.12695 0.24957 1.1196 0.0
C370 C 0.22371 0.1965 1.17325 0.0
C371 C 0.26819 0.25625 1.05838 0.0
C372 C 0.30525 0.24558 1.034 0.0
C373 C 0.33139 0.20523 1.03782 0.0
C374 C 0.3531 0.18538 1.00889 0.0
C375 C 0.34984 0.20683 0.97655 0.0
C376 C 0.33042 0.25084 0.97444 0.0
C377 C 0.30755 0.26992 1.00294 0.0
C378 C 0.24487 0.11971 1.11232 0.0
C379 C 0.17127 0.12645 1.04159 0.0
O380 O 0.07759 0.14403 1.11039 0.0
O381 O 0.11288 0.10824 1.1534 0.0
O382 O 0.12594 0.2244 1.147 0.0
O383 O 0.14484 0.22417 1.09576 0.0
O384 O 0.19337 0.16257 1.16906 0.0
O385 O 0.22855 0.22488 1.14678 0.0
O386 O 0.27541 0.24503 1.09076 0.0
O387 O 0.22748 0.24357 1.04745 0.0
O388 O 0.27066 0.15558 1.11067 0.0
O389 O 0.20656 0.13128 1.10041 0.0
O390 O 0.20286 0.15937 1.04353 0.0
O391 O 0.14575 0.12043 1.06999 0.0
H392 H 0.99575 0.15219 1.15514 0.0
H393 H 0.91902 0.11958 1.14392 0.0
H394 H 0.981 0.99047 1.11379 0.0
H395 H 1.05742 1.02298 1.12502 0.0
H396 H 0.33145 0.18687 1.06214 0.0
H397 H 0.36858 0.15167 1.01096 0.0
H398 H 0.32884 0.26824 0.94975 0.0
H399 H 0.28816 0.30138 0.99967 0.0
La400 La 0.72411 0.40523 0.37985 0.0
La401 La 0.67778 0.47559 0.34952 0.0
C402 C 0.76781 0.34428 0.41299 0.0
C403 C 0.77684 0.29514 0.40523 0.0
C404 C 0.74252 0.26646 0.39075 0.0
C405 C 0.7527 0.22116 0.38063 0.0
C406 C 0.79738 0.20373 0.38472 0.0
C407 C 0.8315 0.23214 0.39963 0.0
C408 C 0.82132 0.27745 0.40978 0.0
C409 C 0.64287 0.37357 0.35199 0.0
C410 C 0.68017 0.48603 0.42959 0.0
C411 C 0.633 0.5272 0.31023 0.0
C412 C 0.65313 0.5663 0.29156 0.0
C413 C 0.64921 0.61063 0.30615 0.0
C414 C 0.67501 0.64685 0.29353 0.0
C415 C 0.70465 0.64061 0.26482 0.0
C416 C 0.70884 0.59556 0.25059 0.0
C417 C 0.68327 0.55915 0.26359 0.0
C418 C 0.75913 0.50554 0.37259 0.0
C419 C 0.75607 0.42648 0.30154 0.0
O420 O 0.78687 0.3729 0.39183 0.0
O421 O 0.72553 0.35614 0.41967 0.0
O422 O 0.68327 0.35612 0.34868 0.0
O423 O 0.64972 0.41123 0.36908 0.0
O424 O 0.71295 0.45407 0.42606 0.0
O425 O 0.65413 0.49422 0.40203 0.0
O426 O 0.63385 0.53205 0.34413 0.0
O427 O 0.64555 0.48575 0.30051 0.0
O428 O 0.72192 0.52958 0.37246 0.0
O429 O 0.74975 0.46707 0.35936 0.0
O430 O 0.72215 0.45712 0.30345 0.0
O431 O 0.7634 0.40068 0.32952 0.0
H432 H 0.70797 0.27919 0.38685 0.0
H433 H 0.72578 0.19979 0.36945 0.0
H434 H 0.86615 0.21944 0.40296 0.0
H435 H 0.84841 0.29899 0.4206 0.0
H436 H 0.62706 0.61715 0.32826 0.0
H437 H 0.67037 0.68002 0.30612 0.0
H438 H 0.73117 0.58803 1.22887 0.0
H439 H 0.68814 0.52517 0.25223 0.0
La440 La 0.46138 0.98924 0.6239 0.0
La441 La 0.38917 0.9419 0.59456 0.0
C442 C 0.52634 1.03224 0.65514 0.0
C443 C 0.57471 1.04053 0.64559 0.0
C444 C 0.59024 1.02878 0.61192 0.0
C445 C 0.63492 1.03955 0.60185 0.0
C446 C 0.66481 1.06277 0.62509 0.0
C447 C 0.64966 0.07403 0.65895 0.0
C448 C 0.60493 1.06287 0.66914 0.0
C449 C 0.48938 0.9053 0.59993 0.0
C450 C 0.38217 0.94649 0.67417 0.0
C451 C 0.34417 0.89008 0.55417 0.0
C452 C 0.32166 0.90264 0.52146 0.0
C453 C 0.31799 0.87022 0.49429 0.0
C454 C 0.30817 0.88468 0.46055 0.0
C455 C 0.30316 0.93155 0.45361 0.0
C456 C 0.30264 0.96362 0.48126 0.0
C457 C 0.31166 0.94909 0.51518 0.0
C458 C 0.35952 1.02349 0.61785 0.0
C459 C 0.4353 1.01896 0.54541 0.0
O460 O 0.49595 1.05123 0.63488 0.0
O461 O 0.51493 0.99006 0.66174 0.0
O462 O 0.50582 0.9446 0.59132 0.0
O463 O 0.45317 0.9149 0.61717 0.0
O464 O 0.41411 0.97923 0.67035 0.0
O465 O 0.37331 0.9193 0.64706 0.0
O466 O 0.32699 0.909 0.58231 0.0
O467 O 0.38897 0.89316 0.55355 0.0
O468 O 0.3353 0.98641 0.61563 0.0
O469 O 0.39784 1.01434 0.60428 0.0
O470 O 0.40657 0.98365 0.54739 0.0
O471 O 0.46119 1.0284 0.57357 0.0
H472 H 0.56744 1.01219 0.5931 0.0
H473 H 0.64581 1.03092 0.57556 0.0
H474 H 0.67213 0.09222 0.67717 0.0
H475 H 0.5936 0.07261 0.69511 0.0
H476 H 0.32543 0.83431 0.49874 0.0
H477 H 0.30699 0.85953 0.43961 0.0
H478 H 0.29807 0.99987 0.47644 0.0
H479 H 0.31385 0.9745 0.53612 0.0
La480 La 0.17513 0.47755 0.6135 0.0
La481 La 0.22079 0.40487 0.58092 0.0
C482 C 0.12515 0.52132 0.65531 0.0
C483 C 0.13819 0.54584 0.68785 0.0
C484 C 0.17447 0.57773 0.68842 0.0
C485 C 0.19223 0.5946 0.72011 0.0
C486 C 0.17218 0.58194 0.75154 0.0
C487 C 0.13479 0.55156 0.7509 0.0
C488 C 0.11811 0.53339 0.71932 0.0
C489 C 0.25871 0.50377 0.59445 0.0
C490 C 0.25125 0.42436 0.66136 0.0
C491 C 0.26418 0.34222 0.5483 0.0
C492 C 0.27596 0.29509 0.55925 0.0
C493 C 0.29331 0.26251 0.53529 0.0
C494 C 0.3051 0.21817 0.5463 0.0
C495 C 0.29974 0.206 0.58142 0.0
C496 C 0.28212 0.2385 0.60524 0.0
C497 C 0.27026 0.28256 0.59426 0.0
C498 C 0.13755 0.37749 0.60467 0.0
C499 C 0.17879 0.4891 0.53372 0.0
O500 O 0.1407 0.53857 0.62648 0.0
O501 O 0.12997 0.47658 0.65594 0.0
O502 O 0.22304 0.53038 0.59596 0.0
O503 O 0.2466 0.46532 0.60528 0.0
O504 O 0.21847 0.45634 0.65976 0.0
O505 O 0.25815 0.39863 0.63264 0.0
O506 O 0.28379 0.37514 0.56648 0.0
O507 O 0.22063 0.35073 0.54346 0.0
O508 O 0.17654 0.35717 0.60923 0.0
O509 O 0.1471 0.41495 0.5892 0.0
O510 O 0.21032 0.45549 0.53642 0.0
O511 O 0.15295 0.49795 0.56114 0.0
H512 H 0.18998 0.58879 0.66444 0.0
H513 H 0.22125 0.61779 0.72012 0.0
H514 H 0.11903 0.54112 0.77492 0.0
H515 H 0.09034 0.50872 0.71954 0.0
H516 H 0.29796 0.27142 0.50819 0.0
H517 H 0.31873 0.19351 0.52756 0.0
H518 H 0.27779 0.22977 0.63241 0.0
H519 H 0.25695 0.30701 0.61324 0.0
La520 La 0.88795 0.93821 0.3689 0.0
La521 La 0.95345 0.98521 0.33167 0.0
C522 C 0.85344 0.87776 0.40666 0.0
C523 C 0.87672 0.84396 0.42838 0.0
C524 C 0.8517 0.80871 0.44336 0.0
C525 C 0.87471 0.7718 0.45833 0.0
C526 C 0.92297 0.76905 0.45765 0.0
C527 C 0.9479 0.80545 0.44383 0.0
C528 C 0.92488 0.84311 0.4299 0.0
C529 C 0.8517 1.01684 0.34686 0.0
C530 C 0.93947 1.01468 0.41402 0.0
C531 C 1.01789 1.03569 0.3092 0.0
C532 C 0.06547 1.04775 0.32083 0.0
C533 C 0.10348 1.02373 0.30713 0.0
C534 C 0.14842 1.03632 0.31663 0.0
C535 C 0.15638 0.07302 0.34015 0.0
C536 C 0.11865 0.09703 0.35396 0.0
C537 C 0.0737 0.08461 0.34439 0.0
C538 C 0.97892 0.89582 0.3422 0.0
C539 C 0.87009 0.94314 0.28673 0.0
O540 O 0.85786 0.92062 0.41659 0.0
O541 O 0.86098 0.87211 0.37332 0.0
O542 O 0.82951 0.97864 0.34973 0.0
O543 O 0.89241 1.00921 0.35629 0.0
O544 O 0.90645 0.98352 0.41393 0.0
O545 O 0.96549 1.01782 0.38546 0.0
O546 O 0.98396 1.05075 0.32796 0.0
O547 O 1.01061 0.99357 0.29905 0.0
O548 O 0.98023 0.91785 0.31339 0.0
O549 O 0.96127 0.92413 0.36415 0.0
O550 O 0.90072 0.97719 0.28855 0.0
O551 O 0.86551 0.91744 0.31485 0.0
H552 H 0.81453 0.80883 0.44228 0.0
H553 H 0.8547 0.74433 0.46921 0.0
H554 H 0.98494 0.80408 0.44247 0.0
H555 H 0.94465 0.87022 0.41834 0.0
H556 H 0.09853 0.99561 0.28857 0.0
H557 H 0.17701 1.01814 0.30498 0.0
H558 H 0.12408 0.12593 0.37173 0.0
H559 H 1.04543 0.1043 0.35513 0.0
La560 La 0.42521 0.65827 1.12063 0.0
La561 La 0.37228 0.72501 1.08376 0.0
C562 C 0.49203 0.62577 1.15407 0.0
C563 C 0.53094 0.64899 1.1709 0.0
C564 C 0.56443 0.62326 1.18799 0.0
C565 C 0.60516 0.64416 1.19881 0.0
C566 C 0.61345 0.69077 1.19188 0.0
C567 C 0.57924 0.71689 1.17567 0.0
C568 C 0.53771 0.6962 1.16598 0.0
C569 C 0.34662 0.62108 1.09662 0.0
C570 C 0.34697 0.70392 1.16582 0.0
C571 C 0.31627 0.78684 1.06442 0.0
C572 C 0.31526 0.83736 1.06823 0.0
C573 C 0.33872 0.85923 1.09618 0.0
C574 C 0.33237 0.90606 1.10322 0.0
C575 C 0.30169 0.93158 1.08278 0.0
C576 C 0.27967 0.9103 1.05393 0.0
C577 C 0.28641 0.86344 1.0467 0.0
C578 C 0.46114 0.7525 1.09407 0.0
C579 C 0.41295 0.64144 1.03859 0.0
O580 O 0.45187 0.6331 1.16796 0.0
O581 O 0.49097 0.62975 1.12014 0.0
O582 O 0.38309 0.59802 1.10537 0.0
O583 O 0.35493 0.66175 1.10597 0.0
O584 O 0.38309 0.67615 1.16647 0.0
O585 O 0.3379 0.72737 1.13669 0.0
O586 O 0.31418 0.76521 1.0937 0.0
O587 O 0.34683 0.76834 1.04389 0.0
O588 O 0.43585 0.75924 1.067 0.0
O589 O 0.43529 0.73214 1.11547 0.0
O590 O 0.37902 0.67228 1.04071 0.0
O591 O 0.44117 0.6373 1.0659 0.0
H592 H 0.55978 0.5868 1.19188 0.0
H593 H 0.63104 0.62338 1.21146 0.0
H594 H 0.58496 0.75264 1.16975 0.0
H595 H 0.51156 0.71643 1.15329 0.0
H596 H 0.36011 0.83954 1.11364 0.0
H597 H 0.34966 0.92189 1.12556 0.0
H598 H 0.25615 0.92963 1.03771 0.0
H599 H 0.2677 0.84723 1.0252 0.0
La600 La 0.70928 0.18782 0.86371 0.0
La601 La 0.63864 0.14066 0.8318 0.0
C602 C 0.7518 0.23695 0.9074 0.0
C603 C 0.7768 0.22057 0.93811 0.0
C604 C 0.78873 0.17379 0.94021 0.0
C605 C 0.8088 0.15669 0.97059 0.0
C606 C 0.81766 0.18647 0.9989 0.0
C607 C 0.80706 0.23339 0.99637 0.0
C608 C 0.78635 0.25036 0.96622 0.0
C609 C 0.74176 0.10931 0.83765 0.0
C610 C 0.66296 0.10661 0.90923 0.0
C611 C 0.57445 0.09881 0.80015 0.0
C612 C 0.52909 0.08535 0.81367 0.0
C613 C 0.48866 0.10454 0.79984 0.0
C614 C 0.44587 0.09254 0.8132 0.0
C615 C 0.44296 1.06138 0.84067 0.0
C616 C 0.48323 1.04263 0.8548 0.0
C617 C 0.52589 1.05469 0.84164 0.0
C618 C 0.60833 0.22184 0.85854 0.0
C619 C 0.71652 0.1876 0.78322 0.0
O620 O 0.76909 0.22386 0.87751 0.0
O621 O 0.7073 0.23104 0.90824 0.0
O622 O 0.76495 0.1468 0.84196 0.0
O623 O 0.70281 0.11598 0.85113 0.0
O624 O 0.69217 0.14166 0.90854 0.0
O625 O 0.63716 0.09902 0.88077 0.0
O626 O 0.60981 0.07848 0.81404 0.0
O627 O 0.5817 0.1427 0.79714 0.0
O628 O 0.59156 0.18175 0.86449 0.0
O629 O 0.64538 0.21436 0.84177 0.0
O630 O 0.68427 0.15512 0.78569 0.0
O631 O 0.72622 0.21262 0.81154 0.0
H632 H 0.78209 0.15044 0.91844 0.0
H633 H 0.81733 0.12054 0.97204 0.0
H634 H 0.81462 0.25686 1.01781 0.0
H635 H 0.77744 0.28644 0.96499 0.0
H636 H 0.49016 0.12845 0.77852 0.0
H637 H 0.41495 0.10646 0.80146 0.0
H638 H 0.48151 1.01772 0.87545 0.0
H639 H 0.55627 1.0395 0.85324 0.0
C640 C 0.5129 0.33269 0.35485 0.0
C641 C 0.5169 0.28413 0.35933 0.0
C642 C 0.60076 0.29366 0.34943 0.0
C643 C 0.59833 0.34313 0.35157 0.0
N644 N 0.54785 0.40878 0.35586 0.0
N645 N 0.56856 0.22076 0.36752 0.0
C646 C 0.5531 0.36221 0.35439 0.0
C647 C 0.56206 0.26556 0.35881 0.0
N648 N 0.47027 0.35058 0.34925 0.0
N649 N 0.63867 0.27262 0.3359 0.0
H650 H 0.54145 0.19912 0.37366 0.0
H651 H 0.601 0.2064 0.37133 0.0
H652 H 0.66313 0.28981 0.32156 0.0
H653 H 0.64177 0.23715 0.33324 0.0
H654 H 0.46409 0.38458 0.34261 0.0
H655 H 0.44148 0.3296 0.34734 0.0
H656 H 0.5173 0.42485 0.36298 0.0
H657 H 0.5744 0.43156 0.35099 0.0
C658 C 0.59715 0.8226 0.60051 0.0
C659 C 0.57814 0.77782 0.60393 0.0
C660 C 0.50047 0.81588 0.60309 0.0
C661 C 0.51974 0.86099 0.60299 0.0
N662 N 0.58975 0.90355 0.61508 0.0
N663 N 0.50978 0.73653 0.6203 0.0
C664 C 0.56904 0.86326 0.60532 0.0
C665 C 0.52922 0.77579 0.60836 0.0
N666 N 0.64229 0.82695 0.59207 0.0
N667 N 0.45442 0.81056 0.59772 0.0
H668 H 0.5289 0.70854 0.62865 0.0
H669 H 0.47526 0.73425 0.62683 0.0
H670 H 0.43206 0.83813 0.59466 0.0
H671 H 0.43918 0.7786 0.59333 0.0
H672 H 0.65686 0.85832 0.58564 0.0
H673 H 0.66392 0.79883 0.58808 0.0
H674 H 0.62495 0.90634 0.61972 0.0
H675 H 0.57154 0.93202 0.6241 0.0
C676 C 0.08121 0.8167 0.88726 0.0
C677 C 0.08872 0.85015 0.86077 0.0
C678 C 1.02322 0.81209 0.82832 0.0
C679 C 1.00992 0.78735 0.85855 0.0
N680 N 1.02554 0.77366 0.91971 0.0
N681 N 0.06754 0.87356 0.80266 0.0
C682 C 1.03871 0.7918 0.88876 0.0
C683 C 1.06 0.84582 0.83024 0.0
N684 N 0.11627 0.80457 0.90923 0.0
N685 N 1.00145 0.80219 0.79723 0.0
H686 H 0.09401 0.89727 0.80169 0.0
H687 H 1.04571 0.87482 0.78118 0.0
H688 H 0.97536 0.77783 0.79484 0.0
H689 H 1.01183 0.81429 0.77316 0.0
H690 H 0.11338 0.77815 0.92711 0.0
H691 H 0.15013 0.81436 0.90532 0.0
H692 H 1.04344 0.78 0.94306 0.0
H693 H 0.99462 0.75659 0.92302 0.0
C694 C 1.04931 0.29109 1.13269 0.0
C695 C 0.09173 0.28938 1.11403 0.0
C696 C 0.0663 0.36278 1.08663 0.0
C697 C 1.02876 0.36873 1.11037 0.0
N698 N 0.99325 0.33877 1.16234 0.0
N699 N 0.14178 0.32953 1.07546 0.0
C700 C 1.02277 0.33296 1.13516 0.0
C701 C 0.10036 0.32694 1.09157 0.0
N702 N 1.03218 0.25192 1.14659 0.0
N703 N 0.06875 0.39023 1.05815 0.0
H704 H 0.16724 0.30467 1.07838 0.0
H705 H 0.15224 0.35831 1.06188 0.0
H706 H 1.04377 0.41463 1.05217 0.0
H707 H 0.09247 0.385 1.03829 0.0
H708 H 1.00009 0.25043 1.15825 0.0
H709 H 1.04648 0.21968 1.14188 0.0
H710 H 0.99133 0.31556 1.18271 0.0
H711 H 0.97473 0.36865 1.16714 0.0
C712 C 0.58682 0.79471 1.08694 0.0
C713 C 0.58646 0.8404 1.10191 0.0
C714 C 0.50329 0.82735 1.11504 0.0
C715 C 0.50494 0.78121 1.10154 0.0
N716 N 0.55191 0.71893 1.08103 0.0
N717 N 0.54368 0.89747 1.13389 0.0
C718 C 0.5479 0.76451 1.08962 0.0
C719 C 0.54428 0.85588 1.11684 0.0
N720 N 0.62336 0.78075 1.06753 0.0
N721 N 0.46209 0.84416 1.126 0.0
H722 H 0.57211 0.91917 1.13492 0.0
H723 H 0.51623 0.90946 1.14864 0.0
H724 H 0.43343 0.82313 1.12807 0.0
H725 H 0.4559 0.8786 1.13197 0.0
H726 H 0.6243 0.7503 1.05288 0.0
H727 H 0.65043 0.80225 1.06231 0.0
H728 H 0.58326 0.70258 1.07695 0.0
H729 H 0.52424 0.69633 1.0815 0.0
C730 C 0.54216 0.27356 0.88227 0.0
C731 C 0.57637 0.26471 0.85626 0.0
C732 C 0.55047 0.33752 0.829 0.0
C733 C 0.51027 0.34123 0.85034 0.0
N734 N 0.46806 0.30736 0.89709 0.0
N735 N 0.60246 0.28611 0.79881 0.0
C736 C 0.50635 0.30766 0.87697 0.0
C737 C 0.57743 0.296 0.82794 0.0
N738 N 0.5448 0.25081 0.91311 0.0
N739 N 0.56583 0.37469 0.81137 0.0
H740 H 0.61996 0.2554 0.79476 0.0
H741 H 0.6008 0.30624 0.77654 0.0
H742 H 0.55252 0.40752 0.815 0.0
H743 H 0.5967 0.37444 0.79783 0.0
H744 H 0.52476 0.25958 0.93461 0.0
H745 H 0.5705 0.22693 0.91858 0.0
H746 H 0.46072 0.28114 0.91429 0.0
H747 H 0.44201 0.33162 0.89476 0.0
C748 C 1.0554 0.35635 0.57904 0.0
C749 C 0.0915 0.34968 0.60417 0.0
C750 C 1.04735 0.28025 0.62366 0.0
C751 C 1.00984 0.28937 0.60044 0.0
N752 N 0.97418 0.34893 0.56605 0.0
N753 N 0.11277 0.31027 0.65704 0.0
C754 C 1.01282 0.33115 0.58116 0.0
C755 C 0.08465 0.31303 0.62836 0.0
N756 N 1.06162 0.38502 0.55166 0.0
N757 N 1.04851 0.23949 0.64069 0.0
H758 H 0.13828 0.33438 0.66279 0.0
H759 H 0.10727 0.28741 0.6772 0.0
H760 H 1.0223 0.21528 0.63839 0.0
H761 H 0.0771 0.22823 0.65474 0.0
H762 H 1.03829 0.38706 0.53087 0.0
H763 H 0.09183 0.40266 0.54722 0.0
H764 H 0.97335 0.38118 0.55466 0.0
H765 H 0.94177 0.33492 0.56931 0.0
C766 C 0.09132 0.82068 0.3439 0.0
C767 C 0.07668 0.77728 0.35739 0.0
C768 C 0.99743 0.81136 0.35887 0.0
C769 C 1.01294 0.85586 0.34992 0.0
N770 N 0.079 0.90361 0.34141 0.0
N771 N 1.01561 0.74182 0.38984 0.0
C772 C 1.06121 0.8606 0.34477 0.0
C773 C 1.0297 0.77586 0.36845 0.0
N774 N 0.13337 0.82439 0.32909 0.0
N775 N 0.95166 0.80197 0.35725 0.0
H776 H 1.03833 0.72112 0.40368 0.0
H777 H 0.9821 0.73925 0.39844 0.0
H778 H 0.92755 0.82629 0.34947 0.0
H779 H 0.93854 0.769 0.36022 0.0
H780 H 0.14372 0.85322 0.31551 0.0
H781 H 0.15631 0.79737 0.32739 0.0
H782 H 0.11413 0.91019 0.3412 0.0
H783 H 1.05876 0.93316 0.34275 0.0
C784 C 0.69617 0.17245 0.27502 0.0
C785 C 0.65659 0.19311 0.25944 0.0
C786 C 0.70525 0.21632 1.21205 0.0
C787 C 0.73027 0.17599 1.21815 0.0
N788 N 0.77434 0.14447 0.26455 0.0
N789 N 0.62788 0.24546 1.21501 0.0
C790 C 0.73577 0.16668 0.25384 0.0
C791 C 0.66266 0.22038 1.22922 0.0
N792 N 0.69393 0.15549 0.30794 0.0
N793 N 0.71977 0.24655 1.18794 0.0
H794 H 0.59562 0.24836 1.22613 0.0
H795 H 0.63103 0.26179 1.19112 0.0
H796 H 0.75048 0.24086 1.17467 0.0
H797 H 0.70291 0.27753 1.18333 0.0
H798 H 0.72086 0.13849 0.32028 0.0
H799 H 0.66452 0.15947 0.32303 0.0
H800 H 0.7788 0.1315 0.28943 0.0
H801 H 0.80131 0.13862 0.24724 0.0
C802 C 0.92724 0.6464 0.4804 0.0
C803 C 0.93082 0.6581 0.5161 0.0
C804 C 0.9711 0.72698 0.50234 0.0
C805 C 0.94547 0.72659 0.47027 0.0
N806 N 0.91171 0.67956 0.42372 0.0
N807 N 0.99588 0.67963 0.55126 0.0
C808 C 0.92926 0.6834 0.4568 0.0
C809 C 0.96832 0.68715 0.52307 0.0
N810 N 0.91706 0.60255 0.47043 0.0
N811 N 0.99298 0.76537 0.51461 0.0
H812 H 0.9904 0.65129 0.56707 0.0
H813 H 1.02473 0.69958 0.55706 0.0
H814 H 0.99519 0.79535 0.50041 0.0
H815 H 1.00769 0.76745 0.53955 0.0
H816 H 0.91473 0.59177 0.44435 0.0
H817 H 0.91339 0.57714 0.48915 0.0
H818 H 0.89582 0.64985 0.41405 0.0
H819 H 0.91183 0.70707 0.40662 0.0
C820 C 0.91519 0.93876 0.74032 0.0
C821 C 0.96366 0.93231 0.73849 0.0
C822 C 0.95154 0.8933 0.68232 0.0
C823 C 0.91317 0.92195 0.67851 0.0
N824 N 0.84241 0.92414 0.70967 0.0
N825 N 1.02692 0.8931 0.70941 0.0
C826 C 0.88894 0.92679 0.70999 0.0
C827 C 0.98153 0.90424 0.7107 0.0
N828 N 0.89536 0.95939 0.76862 0.0
N829 N 0.96182 0.86208 0.65679 0.0
H830 H 1.05027 0.90357 0.72874 0.0
H831 H 1.04146 0.87611 0.68803 0.0
H832 H 0.94013 0.85778 0.63504 0.0
H833 H 0.9895 0.83947 0.6587 0.0
H834 H 0.86067 0.96816 0.76917 0.0
H835 H 0.91396 0.96887 0.79099 0.0
H836 H 0.82299 0.92587 0.73237 0.0
H837 H 0.82453 0.91744 0.6863 0.0
C838 C 0.82985 0.16457 1.09433 0.0
C839 C 0.86997 0.19101 1.09765 0.0
C840 C 0.88676 0.17668 1.03676 0.0
C841 C 0.83904 0.16998 1.0314 0.0
N842 N 0.76625 0.14657 1.05487 0.0
N843 N 0.94834 0.18315 1.08012 0.0
C844 C 0.81098 0.15865 1.06015 0.0
C845 C 0.90291 0.18243 1.07163 0.0
N846 N 0.80801 0.15112 1.12358 0.0
N847 N 0.91529 0.18042 1.00898 0.0
H848 H 0.95914 0.18814 1.10597 0.0
H849 H 0.97415 0.17518 1.06238 0.0
H850 H 0.90372 0.17499 0.98331 0.0
H851 H 0.94967 0.18972 1.0115 0.0
H852 H 0.77947 0.12965 1.12281 0.0
H853 H 0.82159 0.15909 1.14835 0.0
H854 H 0.74333 0.14208 1.07523 0.0
H855 H 0.75241 0.14164 1.0298 0.0
C856 C 0.39245 0.18522 0.88723 0.0
C857 C 0.34775 0.18651 0.87252 0.0
C858 C 0.31622 0.16199 0.9268 0.0
C859 C 0.35589 0.18071 0.94364 0.0
N860 N 0.43701 0.19417 0.94127 0.0
N861 N 0.2807 0.14001 0.87079 0.0
C862 C 0.39638 0.18648 0.9243 0.0
C863 C 0.31543 0.15967 0.88969 0.0
N864 N 0.42946 0.18466 0.86591 0.0
N865 N 0.27859 0.15116 0.9458 0.0
H866 H 0.27982 0.14229 0.84355 0.0
H867 H 0.25555 0.11965 0.88179 0.0
H868 H 0.27899 0.15178 0.97308 0.0
H869 H 0.24728 0.14223 0.93437 0.0
H870 H 0.46323 0.18241 0.87492 0.0
H871 H 0.42508 0.18322 0.83879 0.0
H872 H 0.46772 0.19956 0.92844 0.0
H873 H 0.43937 0.19426 0.96853 0.0
C874 C 0.26221 0.94179 0.39651 0.0
C875 C 0.30286 0.9461 0.41696 0.0
C876 C 0.34714 0.95144 0.36334 0.0
C877 C 0.31008 0.92916 0.34651 0.0
N878 N 0.23048 0.94701 0.33764 0.0
N879 N 0.38273 0.96904 0.41991 0.0
C880 C 0.26674 0.94131 0.35978 0.0
C881 C 0.34504 0.95703 0.40039 0.0
N882 N 0.22074 0.9355 0.41181 0.0
N883 N 0.38505 0.96106 0.34448 0.0
H884 H 0.38143 0.97372 0.44697 0.0
H885 H 0.41501 0.97425 0.40935 0.0
H886 H 0.38573 0.9536 0.31766 0.0
H887 H 0.41366 0.97812 0.35474 0.0
H888 H 0.19099 0.92791 0.39748 0.0
H889 H 0.21686 0.93687 0.4389 0.0
H890 H 0.19788 0.95613 0.34632 0.0
H891 H 0.23496 0.94573 0.31059 0.0
C892 C 0.20657 0.56846 0.81082 0.0
C893 C 0.18939 0.59987 0.78561 0.0
C894 C 0.18137 0.65683 0.8323 0.0
C895 C 0.17724 0.61991 0.85531 0.0
N896 N 0.22297 0.55627 0.87283 0.0
N897 N 0.16772 0.6785 0.77242 0.0
C898 C 0.20454 0.58167 0.84673 0.0
C899 C 0.18057 0.64623 0.79604 0.0
N900 N 0.22085 0.52569 0.80066 0.0
N901 N 0.18098 0.7007 0.84502 0.0
H902 H 0.16606 0.67198 0.74561 0.0
H903 H 0.15664 0.71127 0.77982 0.0
H904 H 0.17916 0.70732 0.87186 0.0
H905 H 0.18604 0.72919 0.82942 0.0
H906 H 0.22949 0.50012 0.81826 0.0
H907 H 0.22371 0.5162 0.77432 0.0
H908 H 0.24482 0.52845 0.86839 0.0
H909 H 0.21823 0.56606 0.89897 0.0
C910 C 0.70316 0.72381 0.25405 0.0
C911 C 0.72494 0.68158 0.24672 0.0
C912 C 0.69755 0.68546 1.18735 0.0
C913 C 0.65918 0.70972 1.20088 0.0
N914 N 0.63246 0.76575 0.24347 0.0
N915 N 0.77386 0.65514 1.20076 0.0
C916 C 0.6649 0.73517 0.23261 0.0
C917 C 0.73376 0.67482 1.21094 0.0
N918 N 0.71629 0.74919 0.28256 0.0
N919 N 0.69598 0.66792 1.15418 0.0
H920 H 0.79879 0.64619 1.2193 0.0
H921 H 0.78253 0.65023 1.17464 0.0
H922 H 0.66918 0.67613 1.137 0.0
H923 H 0.72016 0.64466 1.14477 0.0
H924 H 0.70228 0.7813 0.28855 0.0
H925 H 0.74333 0.73816 0.29854 0.0
H926 H 0.63333 0.78151 0.26814 0.0
H927 H 0.60455 0.77452 1.22765 0.0
C928 C 0.25445 0.4902 0.34812 0.0
C929 C 0.29155 0.48781 0.37233 0.0
C930 C 0.30571 0.56983 0.36602 0.0
C931 C 0.2636 0.57399 0.34694 0.0
N932 N 0.19924 0.53762 0.31772 0.0
N933 N 0.34936 0.52536 0.40785 0.0
C934 C 0.23852 0.53387 0.33727 0.0
C935 C 0.31621 0.52767 0.38236 0.0
N936 N 0.23519 0.45066 0.33488 0.0
N937 N 0.3368 0.60488 0.36739 0.0
H938 H 0.35837 0.49478 0.42001 0.0
H939 H 0.36473 0.55432 0.41923 0.0
H940 H 0.33439 0.63385 0.35205 0.0
H941 H 0.36893 0.60209 0.37938 0.0
H942 H 0.21196 0.44981 0.31401 0.0
H943 H 0.24466 0.41803 0.34319 0.0
H944 H 0.17582 0.51103 0.31387 0.0
H945 H 0.18941 0.56816 0.30602 0.0
C946 C 0.35758 0.57232 0.63553 0.0
C947 C 0.39586 0.55308 0.61815 0.0
C948 C 0.34388 0.50433 0.58251 0.0
C949 C 0.30602 0.52114 0.60207 0.0
N950 N 0.28122 0.55802 0.65572 0.0
N951 N 0.42658 0.49496 0.57923 0.0
C952 C 0.31393 0.55173 0.63087 0.0
C953 C 0.38936 0.51761 0.59256 0.0
N954 N 0.36268 0.61058 0.65641 0.0
N955 N 0.33649 0.47526 0.55461 0.0
H956 H 0.46027 0.50332 0.58621 0.0
H957 H 0.42418 0.46551 0.5635 0.0
H958 H 0.30423 0.46214 0.54809 0.0
H959 H 0.36179 0.46618 0.53676 0.0
H960 H 0.33489 0.62839 0.667 0.0
H961 H 0.39411 0.62712 0.66024 0.0
H962 H 0.28702 0.57656 0.6789 0.0
H963 H 0.25082 0.53942 0.65557 0.0
C964 C 0.37305 0.63888 0.88333 0.0
C965 C 0.33501 0.65923 0.8665 0.0
C966 C 0.3298 0.59277 0.82589 0.0
C967 C 0.36438 0.57128 0.84586 0.0
N968 N 0.43798 0.59117 0.87113 0.0
N969 N 0.28829 0.66386 0.81418 0.0
C970 C 0.3921 0.59905 0.86822 0.0
C971 C 0.31657 0.63875 0.8352 0.0
N972 N 0.39146 0.65746 0.91335 0.0
N973 N 0.31277 0.57044 0.79692 0.0
H974 H 0.27879 0.69759 0.8203 0.0
H975 H 0.27666 0.65278 0.78969 0.0
H976 H 0.32428 0.53781 0.78934 0.0
H977 H 0.28917 0.58446 0.77956 0.0
H978 H 0.41801 0.6415 0.92707 0.0
H979 H 0.37787 0.68647 0.92588 0.0
H980 H 0.45994 0.61238 0.88583 0.0
H981 H 0.45443 0.56844 0.85405 0.0
C982 C 0.24672 0.54466 1.12097 0.0
C983 C 0.21097 0.5779 1.122 0.0
C984 C 0.26113 0.63344 1.09388 0.0
C985 C 0.29855 0.60243 1.09714 0.0
N986 N 0.32126 0.523 1.09804 0.0
N987 N 0.18372 0.65445 1.11049 0.0
C988 C 0.28981 0.55623 1.10611 0.0
C989 C 0.21795 0.62233 1.10842 0.0
N990 N 0.23993 0.50258 1.13527 0.0
N991 N 0.26627 0.67218 1.07472 0.0
H992 H 0.15115 0.64733 1.12001 0.0
H993 H 0.18837 0.68903 1.10514 0.0
H994 H 0.2962 0.67887 1.06113 0.0
H995 H 0.23961 0.69457 1.0686 0.0
H996 H 0.26606 0.47871 1.13912 0.0
H997 H 0.2086 0.49273 1.14571 0.0
H998 H 0.31586 0.4881 1.10164 0.0
H999 H 0.35011 0.52973 1.08312 0.0
C1000 C 0.7934 0.57236 1.11162 0.0
C1001 C 0.83869 0.56732 1.12478 0.0
C1002 C 0.85197 0.64969 1.11855 0.0
C1003 C 0.81012 0.65261 1.09932 0.0
N1004 N 0.74119 0.61707 1.07618 0.0
N1005 N 0.90213 0.60293 1.15472 0.0
C1006 C 0.78081 0.61404 1.09548 0.0
C1007 C 0.86534 0.60674 1.13255 0.0
N1008 N 0.76148 0.53909 1.11713 0.0
N1009 N 0.87967 0.68741 1.12195 0.0
H1010 H 0.90978 0.57214 1.16706 0.0
H1011 H 0.92198 0.63043 1.16367 0.0
H1012 H 0.8709 0.71937 1.11194 0.0
H1013 H 0.91259 0.68671 1.13269 0.0
H1014 H 0.72698 0.54243 1.11024 0.0
H1015 H 0.76785 0.51156 1.13355 0.0
H1016 H 0.72127 0.58862 1.0692 0.0
H1017 H 0.72972 0.6476 1.06516 0.0
C1018 C 0.72877 0.62015 0.82924 0.0
C1019 C 0.71529 0.57638 0.84028 0.0
C1020 C 0.78548 0.57159 0.87644 0.0
C1021 C 0.79683 0.61702 0.86669 0.0
N1022 N 0.76363 0.68949 0.85011 0.0
N1023 N 0.72567 0.51412 0.8807 0.0
C1024 C 0.76403 0.64293 0.84774 0.0
C1025 C 0.74232 0.55273 0.86553 0.0
N1026 N 0.70712 0.64061 0.80173 0.0
N1027 N 0.81486 0.54724 0.89711 0.0
H1028 H 0.6939 0.49986 0.87415 0.0
H1029 H 0.74159 0.49825 0.90179 0.0
H1030 H 0.84266 0.56236 0.91026 0.0
H1031 H 0.81174 0.51208 0.90101 0.0
H1032 H 0.71769 0.67202 0.79195 0.0
H1033 H 0.68184 0.62401 0.78669 0.0
H1034 H 0.73881 0.70983 0.83802 0.0
H1035 H 0.783 0.70622 0.86922 0.0
C1036 C 0.81967 0.52362 0.58408 0.0
C1037 C 0.79442 0.48434 0.59348 0.0
C1038 C 0.74108 0.53343 0.62669 0.0
C1039 C 0.76639 0.57294 0.61726 0.0
N1040 N 0.84068 0.60156 0.59939 0.0
N1041 N 0.73738 0.45027 0.62998 0.0
C1042 C 0.80908 0.567 0.59978 0.0
C1043 C 0.75694 0.48879 0.61668 0.0
N1044 N 0.85319 0.51976 0.5595 0.0
N1045 N 0.70186 0.53866 0.64554 0.0
H1046 H 0.74763 0.41706 0.62295 0.0
H1047 H 0.71339 0.45094 0.64992 0.0
H1048 H 0.69272 0.56984 0.6573 0.0
H1049 H 0.67807 0.51257 0.649 0.0
H1050 H 0.86884 0.54808 0.54843 0.0
H1051 H 0.86229 0.48845 0.54779 0.0
H1052 H 0.87315 0.59765 0.58862 0.0
H1053 H 0.83811 0.63138 0.61456 0.0
C1054 C 0.81225 0.56256 0.34453 0.0
C1055 C 0.80548 0.52585 0.36805 0.0
C1056 C 0.88912 0.51799 0.37473 0.0
C1057 C 0.89506 0.55702 0.35359 0.0
N1058 N 0.86236 0.62357 0.32632 0.0
N1059 N 0.83771 0.47219 0.4091 0.0
C1060 C 0.85658 0.58176 0.34133 0.0
C1061 C 0.84405 0.50497 0.38451 0.0
N1062 N 0.77784 0.57646 0.3226 0.0
N1063 N 0.92625 0.49183 0.38382 0.0
H1064 H 0.80551 0.45967 0.41553 0.0
H1065 H 0.86408 0.45968 0.4249 0.0
H1066 H 0.9598 0.50023 0.37727 0.0
H1067 H 0.92364 0.45993 0.39549 0.0
H1068 H 0.783 0.59984 0.30275 0.0
H1069 H 0.74603 0.56057 0.32084 0.0
H1070 H 0.835 0.64514 0.32003 0.0
H1071 H 0.89454 0.63865 0.32353 0.0
C1072 C 0.74814 0.9824 0.84979 0.0
C1073 C 0.79451 0.97697 0.86051 0.0
C1074 C 0.81125 1.05578 0.84221 0.0
C1075 C 0.76351 1.0625 0.83607 0.0
N1076 N 0.69465 1.02663 0.81521 0.0
N1077 N 0.87208 1.00525 0.86349 0.0
C1078 C 0.73429 1.024 0.83425 0.0
C1079 C 0.82685 1.01269 0.85539 0.0
N1080 N 0.71697 0.94837 0.85529 0.0
N1081 N 0.84141 0.08946 0.83361 0.0
H1082 H 0.88427 0.97393 0.87268 0.0
H1083 H 0.89779 1.02973 0.86184 0.0
H1084 H 0.83164 0.11708 0.81823 0.0
H1085 H 0.87658 0.08828 0.83819 0.0
H1086 H 0.68176 0.95285 0.85168 0.0
H1087 H 0.72584 0.91672 0.86581 0.0
H1088 H 0.67294 0.99881 0.8104 0.0
H1089 H 0.68761 1.05533 0.80011 0.0
C1090 C 0.84073 0.9767 1.12019 0.0
C1091 C 0.81283 0.999 1.09476 0.0
C1092 C 0.87829 1.04927 1.08411 0.0
C1093 C 0.89929 1.03502 1.11588 0.0
N1094 N 0.89665 0.98694 1.16653 0.0
N1095 N 0.81112 1.05198 1.04704 0.0
C1096 C 0.87889 0.99978 1.13499 0.0
C1097 C 0.83314 1.0345 1.07542 0.0
N1098 N 0.83568 0.93126 1.12627 0.0
N1099 N 0.90089 0.07585 1.06112 0.0
H1100 H 0.77719 1.04427 1.04076 0.0
H1101 H 0.82716 0.07408 1.02988 0.0
H1102 H 0.93489 0.08634 1.06455 0.0
H1103 H 0.93489 0.08634 1.06455 0.0
H1104 H 0.85667 0.91315 1.1435 0.0
H1105 H 0.81774 0.91069 1.10859 0.0
H1106 H 0.88094 0.96244 1.1819 0.0
H1107 H 0.9247 1.0033 1.17845 0.0
C1108 C 0.79818 0.07242 0.37957 0.0
C1109 C 0.83108 1.0638 0.35267 0.0
C1110 C 0.83651 0.14754 0.34387 0.0
C1111 C 0.80848 0.15566 0.37335 0.0
N1112 N 0.77007 0.12623 0.42352 0.0
N1113 N 0.88495 0.09475 0.3116 0.0
C1114 C 0.79121 0.11822 0.39224 0.0
C1115 C 0.85102 0.1019 0.33546 0.0
N1116 N 0.77295 1.03768 0.39326 0.0
N1117 N 0.84809 0.18336 0.32309 0.0
H1118 H 0.89504 1.06228 0.30289 0.0
H1119 H 0.90522 0.12098 0.30199 0.0
H1120 H 0.83779 0.21713 0.32818 0.0
H1121 H 0.86407 0.17916 0.29904 0.0
H1122 H 0.74513 1.04361 0.4096 0.0
H1123 H 0.77549 1.00334 0.3861 0.0
H1124 H 0.76229 0.10033 0.44091 0.0
H1125 H 0.76444 0.15911 0.43387 0.0
C1126 C 0.75966 0.13702 0.58702 0.0
C1127 C 0.79818 0.10709 0.58988 0.0
C1128 C 0.74873 1.04746 0.61397 0.0
C1129 C 0.71077 0.07802 0.61285 0.0
N1130 N 0.67733 0.14877 0.59299 0.0
N1131 N 0.82359 1.02819 0.59101 0.0
C1132 C 0.71545 0.12195 0.59772 0.0
C1133 C 0.79108 1.0605 0.59882 0.0
N1134 N 0.76555 0.17982 0.5737 0.0
N1135 N 0.74468 1.0063 0.63025 0.0
H1136 H 0.85196 1.03537 0.57573 0.0
H1137 H 0.81914 0.99321 0.595 0.0
H1138 H 0.71399 0.99518 0.64102 0.0
H1139 H 0.77258 0.98501 0.63558 0.0
H1140 H 0.7415 0.20618 0.57537 0.0
H1141 H 0.79517 0.18893 0.56047 0.0
H1142 H 0.67697 0.17936 0.57939 0.0
H1143 H 0.64477 0.13933 0.60128 0.0
C1144 C 0.28032 0.12393 0.59577 0.0
C1145 C 0.31336 0.15958 0.59387 0.0
C1146 C 0.37054 0.10886 0.62088 0.0
C1147 C 0.33979 0.07135 0.61759 0.0
N1148 N 0.2602 1.04759 0.61267 0.0
N1149 N 0.39099 0.18574 0.60349 0.0
C1150 C 0.29317 0.08015 0.60841 0.0
C1151 C 0.35876 0.15204 0.60633 0.0
N1152 N 0.23593 0.13051 0.58549 0.0
N1153 N 0.40974 0.10376 0.64025 0.0
H1154 H 0.38346 0.21823 0.59387 0.0
H1155 H 0.42583 0.18044 0.60829 0.0
H1156 H 0.41636 0.07379 0.65397 0.0
H1157 H 0.43221 0.13053 0.64641 0.0
H1158 H 0.22317 0.16124 0.57559 0.0
H1159 H 0.22317 0.16124 0.57559 0.0
H1160 H 0.22619 1.05238 0.60465 0.0
H1161 H 0.26542 1.01835 0.62745 0.0
C1162 C 0.23005 0.0693 0.37626 0.0
C1163 C 0.20414 0.08872 0.34844 0.0
C1164 C 0.26223 0.14799 0.34421 0.0
C1165 C 0.29398 0.12198 0.36429 0.0
N1166 N 0.30502 1.06015 0.40418 0.0
N1167 N 0.19922 0.14501 0.30294 0.0
C1168 C 0.27701 0.08295 0.38165 0.0
C1169 C 0.22175 0.12711 0.33108 0.0
N1170 N 0.20936 1.03913 0.39792 0.0
N1171 N 0.26692 0.1942 0.34197 0.0
H1172 H 0.16889 0.13105 0.29268 0.0
H1173 H 0.21314 0.17136 0.28829 0.0
H1174 H 0.28772 0.21169 0.35988 0.0
H1175 H 0.24371 0.21494 0.32852 0.0
H1176 H 0.22362 1.02889 0.42158 0.0
H1177 H 0.17588 1.02749 0.39373 0.0
H1178 H 0.29393 1.03393 0.41982 0.0
H1179 H 0.33958 0.06805 0.40783 0.0
C1180 C 0.29138 1.06142 1.07778 0.0
C1181 C 0.26242 0.07185 1.10666 0.0
C1182 C 0.25957 0.98939 1.12031 0.0
C1183 C 0.29037 0.97998 1.09257 0.0
N1184 N 0.34323 1.00739 1.04988 0.0
N1185 N 0.21043 1.04437 1.15022 0.0
C1186 C 0.30865 1.01616 1.07293 0.0
C1187 C 0.24464 1.03543 1.12687 0.0
N1188 N 0.2982 0.09319 1.05254 0.0
N1189 N 0.24482 0.95417 1.14054 0.0
H1190 H 0.19766 0.07718 1.15509 0.0
H1191 H 0.1919 1.01934 1.16294 0.0
H1192 H 0.25227 0.91977 1.13513 0.0
H1193 H 0.22734 0.95876 1.16389 0.0
H1194 H 0.31425 0.08571 1.02892 0.0
H1195 H 0.28251 0.12522 1.05281 0.0
H1196 H 0.36166 1.03319 1.03782 0.0
H1197 H 0.35649 0.97453 1.04535 0.0
C1198 C 0.3761 1.0552 0.88242 0.0
C1199 C 0.39792 1.04227 0.85052 0.0
C1200 C 0.33975 0.98412 0.84159 0.0
C1201 C 0.30997 1.00861 0.86409 0.0
N1202 N 0.30642 1.05176 0.91767 0.0
N1203 N 0.4011 0.98979 0.80065 0.0
C1204 C 0.33003 1.03999 0.88826 0.0
C1205 C 0.37953 1.00582 0.82994 0.0
N1206 N 0.39971 0.0806 0.9069 0.0
N1207 N 0.33549 0.9379 0.83729 0.0
H1208 H 0.43192 1.00312 0.79172 0.0
H1209 H 0.38663 0.96442 0.78442 0.0
H1210 H 0.31536 0.91926 0.85431 0.0
H1211 H 0.35819 0.91806 0.82245 0.0
H1212 H 0.38769 0.08803 0.93182 0.0
H1213 H 0.43296 0.09234 0.90281 0.0
H1214 H 0.32011 0.07073 0.93848 0.0
H1215 H 0.2733 1.03981 0.92206 0.0
C1216 C 0.30412 0.24811 0.24774 0.0
C1217 C 0.32313 0.20823 0.26374 0.0
C1218 C 0.27876 0.16118 1.21991 0.0
C1219 C 0.25615 0.20052 1.20583 0.0
N1220 N 0.24222 0.28174 1.21299 0.0
N1221 N 0.31481 0.12595 0.26986 0.0
C1222 C 0.26758 0.24407 1.22168 0.0
C1223 C 0.30644 0.1647 0.25118 0.0
N1224 N 0.32202 0.29012 0.25638 0.0
N1225 N 0.27648 0.12001 1.20251 0.0
H1226 H 0.33288 0.12578 0.29339 0.0
H1227 H 0.29875 0.09469 0.26423 0.0
H1228 H 0.2589 0.11557 1.17914 0.0
H1229 H 0.29662 0.09175 1.20913 0.0
H1230 H 0.31342 0.32001 0.24324 0.0
H1231 H 0.34874 0.2944 0.27449 0.0
H1232 H 0.24543 0.31343 1.22583 0.0
H1233 H 0.21451 0.28005 1.19554 0.0
C1234 C 0.71472 0.54225 0.47695 0.0
C1235 C 0.676 0.5181 0.46243 0.0
C1236 C 0.62689 0.56558 0.50291 0.0
C1237 C 0.66605 0.58701 0.51898 0.0
N1238 N 0.7486 0.58522 0.52543 0.0
N1239 N 0.59532 0.50238 0.46738 0.0
C1240 C 0.71017 0.57238 0.50704 0.0
C1241 C 0.63214 0.52878 0.4771 0.0
N1242 N 0.75627 0.53863 0.46114 0.0
N1243 N 0.58425 0.58152 0.51133 0.0
H1244 H 0.59788 0.4748 0.44973 0.0
H1245 H 0.56346 0.50469 0.47932 0.0
H1246 H 0.5791 0.60809 0.52953 0.0
H1247 H 0.55439 0.57143 0.49815 0.0
H1248 H 0.78377 0.56042 0.46686 0.0
H1249 H 0.76229 0.5166 0.44024 0.0
H1250 H 0.78092 0.57116 0.52084 0.0
H1251 H 0.748 0.60652 0.54745 0.0
C1252 C 0.30027 0.89462 0.74412 0.0
C1253 C 0.27947 0.93402 0.76014 0.0
C1254 C 0.32752 0.98244 0.72116 0.0
C1255 C 0.35053 0.94319 0.70658 0.0
N1256 N 0.36421 0.86195 0.71123 0.0
N1257 N 0.28552 1.01632 0.76941 0.0
C1258 C 0.33823 0.89935 0.72016 0.0
C1259 C 0.29645 0.97804 0.75005 0.0
N1260 N 0.28269 0.85227 0.75072 0.0
N1261 N 0.3335 1.02456 0.70683 0.0
H1262 H 0.26481 1.01586 0.79129 0.0
H1263 H 0.30156 1.04792 0.76636 0.0
H1264 H 0.35713 1.03109 0.68753 0.0
H1265 H 0.31241 1.05262 0.71248 0.0
H1266 H 0.2924 0.82252 0.7372 0.0
H1267 H 0.25528 0.84748 0.76754 0.0
H1268 H 0.36056 0.82996 0.72259 0.0
H1269 H 0.39282 0.86415 0.69521 0.0
C1270 C 0.92718 0.63718 0.99796 0.0
C1271 C 0.93045 0.62032 0.96268 0.0
C1272 C 0.94408 0.54151 0.98768 0.0
C1273 C 0.94165 0.55848 1.02282 0.0
N1274 N 0.93564 0.62543 1.06068 0.0
N1275 N 0.94778 0.55429 0.9254 0.0
C1276 C 0.93459 0.60713 1.02758 0.0
C1277 C 0.94057 0.57199 0.95817 0.0
N1278 N 0.91679 0.68251 1.00352 0.0
N1279 N 0.94931 0.49527 0.98211 0.0
H1280 H 0.93907 0.571 0.90266 0.0
H1281 H 0.96408 0.52304 0.92048 0.0
H1282 H 0.95851 0.47267 1.00182 0.0
H1283 H 0.94284 0.47873 0.95822 0.0
H1284 H 0.90663 0.69633 1.02747 0.0
H1285 H 0.91659 0.70661 0.98375 0.0
H1286 H 0.93862 0.66037 1.06628 0.0
H1287 H 0.93614 0.60579 1.08303 0.0
C1288 C 0.81365 0.97368 0.23876 0.0
C1289 C 0.83711 0.93596 0.25446 0.0
C1290 C 0.79166 0.88464 1.21306 0.0
C1291 C 0.77219 0.92287 1.19509 0.0
N1292 N 0.77828 1.00507 1.18694 0.0
N1293 N 0.85273 0.85472 0.25067 0.0
C1294 C 0.78692 0.96762 1.20699 0.0
C1295 C 0.82704 0.89122 0.23994 0.0
N1296 N 0.81476 1.01583 0.25488 0.0
N1297 N 0.77534 0.84168 1.20539 0.0
H1298 H 0.8794 0.858 0.26893 0.0
H1299 H 0.85078 0.82223 0.23893 0.0
H1300 H 0.74973 0.83562 1.18662 0.0
H1301 H 0.78394 0.81286 1.21983 0.0
H1302 H 0.79434 1.04326 0.24697 0.0
H1303 H 0.83183 1.02204 0.2784 0.0
H1304 H 0.79314 1.03706 1.19203 0.0
H1305 H 0.76137 1.00356 1.16291 0.0
C1306 C 0.46137 0.5935 0.99388 0.0
C1307 C 0.41741 0.60736 1.00695 0.0
C1308 C 0.38282 0.55664 0.96037 0.0
C1309 C 0.42641 0.53736 0.95094 0.0
N1310 N 0.50742 0.53531 0.96363 0.0
N1311 N 0.33585 0.59133 1.00531 0.0
C1312 C 0.46571 0.55541 0.96908 0.0
C1313 C 0.37818 0.5859 0.9909 0.0
N1314 N 0.4993 0.61814 1.00377 0.0
N1315 N 0.34542 0.54985 0.93906 0.0
H1316 H 0.32962 0.61138 1.02739 0.0
H1317 H 0.3075 0.57187 0.99733 0.0
H1318 H 0.34649 0.53183 0.91542 0.0
H1319 H 0.31456 0.56746 0.9425 0.0
H1320 H 0.53148 0.61292 0.99281 0.0
H1321 H 0.4976 0.64729 1.01992 0.0
H1322 H 0.53652 0.54328 0.97858 0.0
H1323 H 0.51192 0.50755 0.94641 0.0
C1324 C 0.7597 0.23657 0.73745 0.0
C1325 C 0.74689 0.1924 0.7502 0.0
C1326 C 0.79473 0.15816 0.70245 0.0
C1327 C 0.81251 0.2019 0.69278 0.0
N1328 N 0.81386 0.28313 0.70496 0.0
N1329 N 0.76154 0.11055 0.74666 0.0
C1330 C 0.79522 0.24119 0.71131 0.0
C1331 C 0.76683 0.1532 0.73303 0.0
N1332 N 0.73649 0.27445 0.74927 0.0
N1333 N 0.80246 0.12069 0.6814 0.0
H1334 H 0.74142 0.10389 0.7681 0.0
H1335 H 0.78067 0.0821 0.73851 0.0
H1336 H 0.82151 0.12211 0.65873 0.0
H1337 H 0.78581 0.08938 0.68431 0.0
H1338 H 0.74047 0.30698 0.73887 0.0
H1339 H 0.70962 0.27249 0.76695 0.0
H1340 H 0.80701 0.31243 0.72001 0.0
H1341 H 0.83927 0.28778 0.68639 0.0
C1342 C 0.21399 0.54597 0.48893 0.0
C1343 C 0.1751 0.52166 0.50171 0.0
C1344 C 0.12666 0.56992 0.46155 0.0
C1345 C 0.16603 0.59119 0.44679 0.0
N1346 N 0.24867 0.58946 0.44259 0.0
N1347 N 0.09437 0.50668 0.49442 0.0
C1348 C 0.20996 0.5764 0.45954 0.0
C1349 C 0.13147 0.53284 0.48635 0.0
N1350 N 0.25514 0.54214 0.50591 0.0
N1351 N 0.08417 0.58635 0.4529 0.0
H1352 H 0.09656 0.47906 0.51135 0.0
H1353 H 0.06266 0.50926 0.48179 0.0
H1354 H 0.07932 0.61337 0.43569 0.0
H1355 H 1.05419 0.57639 0.46519 0.0
H1356 H 0.28305 0.56341 0.50136 0.0
H1357 H 0.26013 0.5207 0.5269 0.0
H1358 H 0.28096 0.57566 0.44784 0.0
H1359 H 0.24836 0.61053 0.42096 0.0
C1360 C 0.77625 0.66039 0.72627 0.0
C1361 C 0.75281 0.69952 0.71253 0.0
C1362 C 0.80079 0.74798 0.75398 0.0
C1363 C 0.82125 0.7085 0.76955 0.0
N1364 N 0.81794 0.62571 0.77417 0.0
N1365 N 0.73849 0.78066 0.71905 0.0
C1366 C 0.80617 0.66449 0.75652 0.0
C1367 C 0.76413 0.74329 0.72806 0.0
N1368 N 0.77184 0.61872 0.70972 0.0
N1369 N 0.81763 0.79037 0.76289 0.0
H1370 H 0.711 0.77857 0.7014 0.0
H1371 H 0.74129 0.81256 0.73161 0.0
H1372 H 0.84433 0.79511 0.78096 0.0
H1373 H 0.80831 0.82028 0.75005 0.0
H1374 H 0.79328 0.59088 0.71482 0.0
H1375 H 0.7494 0.61265 0.689 0.0
H1376 H 0.80301 0.5938 0.76898 0.0
H1377 H 0.83829 0.62568 0.7966 0.0
C1378 C 0.17865 1.00989 0.98686 0.0
C1379 C 0.17763 1.02502 0.95156 0.0
C1380 C 0.16469 0.10526 0.97579 0.0
C1381 C 0.17106 0.09077 1.0108 0.0
N1382 N 0.1863 1.02739 1.04908 0.0
N1383 N 0.1714 0.09085 0.91351 0.0
C1384 C 0.17844 1.04253 1.01602 0.0
C1385 C 0.17077 0.07367 0.94648 0.0
N1386 N 0.17669 0.9638 0.99284 0.0
N1387 N 0.15037 0.14938 0.97039 0.0
H1388 H 0.17316 0.07096 0.89097 0.0
H1389 H 0.1731 0.1257 0.90814 0.0
H1390 H 0.14572 0.17324 0.9907 0.0
H1391 H 0.13865 0.16134 0.94642 0.0
H1392 H 0.1715 0.94995 1.01737 0.0
H1393 H 0.17543 0.93912 0.97281 0.0
H1394 H 0.19849 0.99467 1.05461 0.0
H1395 H 0.18317 1.0483 1.07116 0.0
C1396 C 0.80549 0.42724 1.20628 0.0
C1397 C 0.85336 0.43876 1.21131 0.0
C1398 C 0.83873 0.43617 0.2761 0.0
C1399 C 0.79047 0.42806 0.27066 0.0
N1400 N 0.72814 0.4209 1.22935 0.0
N1401 N 0.91492 0.45209 0.25261 0.0
C1402 C 0.77431 0.4251 0.23542 0.0
C1403 C 0.86949 0.4427 0.24678 0.0
N1404 N 0.78892 0.41665 1.17357 0.0
N1405 N 0.85558 0.43771 0.30958 0.0
H1406 H 0.93918 0.45153 0.23284 0.0
H1407 H 0.92922 0.46098 0.27677 0.0
H1408 H 0.83488 0.43687 0.33146 0.0
H1409 H 0.8902 0.43817 0.31632 0.0
H1410 H 0.75768 0.40021 1.16898 0.0
H1411 H 0.80673 0.42098 1.1507 0.0
H1412 H 0.71256 0.42702 1.20524 0.0
H1413 H 0.70469 0.41381 0.24889 0.0
C1414 C 0.38755 0.07509 0.50675 0.0
C1415 C 0.4307 1.05382 0.51506 0.0
C1416 C 0.4655 0.10446 0.47022 0.0
C1417 C 0.42155 0.12106 0.45858 0.0
N1418 N 0.33924 0.11697 0.4661 0.0
N1419 N 0.51027 1.04595 0.50049 0.0
C1420 C 0.38234 0.10517 0.47718 0.0
C1421 C 0.46943 0.06811 0.49559 0.0
N1422 N 0.35114 0.06833 0.52814 0.0
N1423 N 0.50419 0.12544 0.45862 0.0
H1424 H 0.51458 1.01984 0.51857 0.0
H1425 H 0.53856 1.05048 0.48452 0.0
H1426 H 0.50317 0.1539 0.44247 0.0
H1427 H 0.53694 0.11847 0.46834 0.0
H1428 H 0.32113 0.08776 0.52725 0.0
H1429 H 0.3522 1.04607 0.54895 0.0
H1430 H 0.30955 0.10151 0.4751 0.0
H1431 H 0.33246 0.13863 0.44544 0.0
C1432 C 0.36494 0.43696 0.71887 0.0
C1433 C 0.34819 0.4343 0.75384 0.0
C1434 C 0.26883 0.42324 0.72766 0.0
C1435 C 0.28556 0.42483 0.6929 0.0
N1436 N 0.35104 0.43359 0.65557 0.0
N1437 N 0.28194 0.42231 0.79012 0.0
C1438 C 0.33411 0.43175 0.68869 0.0
C1439 C 0.29959 0.42664 0.75754 0.0
N1440 N 0.41085 0.44409 0.71439 0.0
N1441 N 0.2225 0.41976 0.73242 0.0
H1442 H 0.29891 0.43382 0.81236 0.0
H1443 H 0.25045 0.40719 0.79523 0.0
H1444 H 0.19939 0.41188 0.7122 0.0
H1445 H 0.20629 0.42657 0.75605 0.0
H1446 H 0.42614 0.45136 0.69075 0.0
H1447 H 0.43464 0.44337 0.73487 0.0
H1448 H 0.38559 0.43467 0.64937 0.0
H1449 H 0.33041 0.43313 0.63327 0.0
C1450 C 0.94178 0.06698 0.50908 0.0
C1451 C 0.93115 0.11494 0.50431 0.0
C1452 C 0.9306 0.09798 0.43967 0.0
C1453 C 0.94156 1.05049 0.44462 0.0
N1454 N 0.96636 0.99287 0.48454 0.0
N1455 N 0.92634 0.1764 0.46334 0.0
C1456 C 0.94941 1.03612 0.47952 0.0
C1457 C 0.92847 0.13026 0.46904 0.0
N1458 N 0.94314 1.04969 0.54198 0.0
N1459 N 0.92053 0.11238 0.40672 0.0
H1460 H 0.92539 0.20082 0.48359 0.0
H1461 H 0.93035 0.19083 0.43888 0.0
H1462 H 0.92366 0.09123 0.38468 0.0
H1463 H 0.9066 0.14443 0.40134 0.0
H1464 H 0.94223 1.01474 0.54719 0.0
H1465 H 0.94307 0.06985 0.56447 0.0
H1466 H 0.97865 0.98125 0.50846 0.0
H1467 H 0.97237 0.96975 0.46393 0.0
C1468 C 0.26603 0.65396 0.23653 0.0
C1469 C 0.24449 0.69365 0.25158 0.0
C1470 C 0.29262 0.74115 1.21203 0.0
C1471 C 0.31126 0.70116 1.19531 0.0
N1472 N 0.30457 0.61882 1.18727 0.0
N1473 N 0.23213 0.77527 0.24775 0.0
C1474 C 0.29465 0.65757 1.20634 0.0
C1475 C 0.25649 0.73729 0.23758 0.0
N1476 N 0.26197 0.61239 0.2521 0.0
N1477 N 0.31064 0.78305 1.20459 0.0
H1478 H 0.2047 0.7737 0.26496 0.0
H1479 H 0.23583 0.80731 0.23649 0.0
H1480 H 0.33679 0.78716 1.18653 0.0
H1481 H 0.30266 0.81305 1.21846 0.0
H1482 H 0.28192 0.58391 0.24534 0.0
H1483 H 0.24228 0.60712 0.27397 0.0
H1484 H 0.28818 0.58752 1.19092 0.0
H1485 H 0.3256 0.61858 1.16561 0.0
C1486 C 0.71296 1.01598 0.97539 0.0
C1487 C 0.67338 1.00169 0.99439 0.0
C1488 C 0.6272 1.05704 0.95814 0.0
C1489 C 0.66634 0.07047 0.93878 0.0
N1490 N 0.74541 1.0544 0.92541 0.0
N1491 N 0.5907 1.00058 0.99494 0.0
C1492 C 0.70877 1.04753 0.94658 0.0
C1493 C 0.63002 1.02019 0.98316 0.0
N1494 N 0.75552 1.00093 0.98525 0.0
N1495 N 0.5871 0.08068 0.9536 0.0
H1496 H 0.59093 0.97189 1.01087 0.0
H1497 H 0.5581 1.0089 0.98558 0.0
H1498 H 0.58359 0.1072 0.93578 0.0
H1499 H 0.55872 0.07687 0.96958 0.0
H1500 H 0.7859 1.01539 0.97663 0.0
H1501 H 0.76155 0.97656 1.00418 0.0
H1502 H 0.77523 1.03471 0.92588 0.0
H1503 H 0.74488 0.0775 0.90513 0.0
loop_
_geom_bond_atom_site_label_1
_geom_bond_atom_site_label_2
_geom_bond_distance
_geom_bond_site_symmetry_2
_ccdc_geom_bond_type
La0 C2 2.928 . S
La0 O20 2.521 . S
La0 O21 2.628 . S
La0 O22 2.554 . S
La0 O23 2.757 . S
La0 O24 2.470 . S
La0 O29 2.482 . S
La0 O31 2.503 . S
La1 C11 2.928 . S
La1 O23 2.482 . S
La1 O25 2.503 . S
La1 O26 2.521 . S
La1 O27 2.628 . S
La1 O28 2.554 . S
La1 O29 2.757 . S
La1 O30 2.470 . S
C2 La0 2.928 . S
C2 C3 1.503 . S
C2 O20 1.261 . S
C2 O21 1.243 . S
C3 C2 1.503 . S
C3 C4 1.394 . S
C3 C8 1.373 . S
C4 C3 1.394 . S
C4 C5 1.380 . S
C4 H32 0.930 . S
C5 C4 1.380 . S
C5 C6 1.376 . S
C5 H33 0.930 . S
C6 C5 1.376 . S
C6 C7 1.370 . S
C7 C6 1.370 . S
C7 C8 1.396 . S
C7 H34 0.929 . S
C8 C3 1.373 . S
C8 C7 1.396 . S
C8 H35 0.929 . S
C9 O22 1.240 . S
C9 O23 1.289 . S
C10 O24 1.258 . S
C10 O25 1.256 . S
C11 La1 2.928 . S
C11 C12 1.503 . S
C11 O26 1.261 . S
C11 O27 1.243 . S
C12 C11 1.503 . S
C12 C13 1.394 1_545 S
C12 C17 1.373 . S
C13 C12 1.394 1_565 S
C13 C14 1.380 . S
C13 H36 0.930 . S
C14 C13 1.380 . S
C14 C15 1.376 . S
C14 H37 0.930 . S
C15 C14 1.376 . S
C15 C16 1.370 1_565 S
C16 C15 1.370 1_545 S
C16 C17 1.396 . S
C16 H38 0.929 1_554 S
C17 C12 1.373 . S
C17 C16 1.396 . S
C17 H39 0.929 . S
C18 O28 1.240 . S
C18 O29 1.289 . S
C19 O30 1.258 . S
C19 O31 1.256 . S
O20 La0 2.521 . S
O20 C2 1.261 . S
O21 La0 2.628 . S
O21 C2 1.243 . S
O22 La0 2.554 . S
O22 C9 1.240 . S
O23 La0 2.757 . S
O23 La1 2.482 . S
O23 C9 1.289 . S
O24 La0 2.470 . S
O24 C10 1.258 . S
O25 La1 2.503 . S
O25 C10 1.256 . S
O26 La1 2.521 . S
O26 C11 1.261 . S
O27 La1 2.628 . S
O27 C11 1.243 . S
O28 La1 2.554 . S
O28 C18 1.240 . S
O29 La0 2.482 . S
O29 La1 2.757 . S
O29 C18 1.289 . S
O30 La1 2.470 . S
O30 C19 1.258 . S
O31 La0 2.503 . S
O31 C19 1.256 . S
H32 C4 0.930 . S
H33 C5 0.930 . S
H34 C7 0.929 . S
H35 C8 0.929 . S
H36 C13 0.930 . S
H37 C14 0.930 . S
H38 C16 0.929 1_556 S
H39 C17 0.929 . S
La40 C42 2.928 . S
La40 O60 2.521 . S
La40 O61 2.628 . S
La40 O62 2.554 . S
La40 O63 2.757 . S
La40 O64 2.470 . S
La40 O69 2.482 . S
La40 O71 2.503 . S
La41 C51 2.928 . S
La41 O63 2.482 . S
La41 O65 2.503 . S
La41 O66 2.521 . S
La41 O67 2.628 . S
La41 O68 2.554 . S
La41 O69 2.757 . S
La41 O70 2.470 . S
C42 La40 2.928 . S
C42 C43 1.503 . S
C42 O60 1.261 . S
C42 O61 1.243 . S
C43 C42 1.503 . S
C43 C44 1.394 . S
C43 C48 1.373 . S
C44 C43 1.394 . S
C44 C45 1.380 . S
C44 H72 0.930 . S
C45 C44 1.380 . S
C45 C46 1.376 . S
C45 H73 0.930 . S
C46 C45 1.376 . S
C46 C47 1.370 . S
C47 C46 1.370 . S
C47 C48 1.396 . S
C47 H74 0.929 . S
C48 C43 1.373 . S
C48 C47 1.396 . S
C48 H75 0.929 . S
C49 O62 1.240 . S
C49 O63 1.289 . S
C50 O64 1.258 . S
C50 O65 1.256 . S
C51 La41 2.928 . S
C51 C52 1.503 . S
C51 O66 1.261 . S
C51 O67 1.243 . S
C52 C51 1.503 . S
C52 C53 1.394 . S
C52 C57 1.373 . S
C53 C52 1.394 . S
C53 C54 1.380 . S
C53 H76 0.930 . S
C54 C53 1.380 . S
C54 C55 1.376 . S
C54 H77 0.930 . S
C55 C54 1.376 . S
C55 C56 1.370 . S
C56 C55 1.370 . S
C56 C57 1.396 . S
C56 H78 0.929 . S
C57 C52 1.373 . S
C57 C56 1.396 . S
C57 H79 0.929 . S
C58 O68 1.240 . S
C58 O69 1.289 . S
C59 O70 1.258 . S
C59 O71 1.256 . S
O60 La40 2.521 . S
O60 C42 1.261 . S
O61 La40 2.628 . S
O61 C42 1.243 . S
O62 La40 2.554 . S
O62 C49 1.240 . S
O63 La40 2.757 . S
O63 La41 2.482 . S
O63 C49 1.289 . S
O64 La40 2.470 . S
O64 C50 1.258 . S
O65 La41 2.503 . S
O65 C50 1.256 . S
O66 La41 2.521 . S
O66 C51 1.261 . S
O67 La41 2.628 . S
O67 C51 1.243 . S
O68 La41 2.554 . S
O68 C58 1.240 . S
O69 La40 2.482 . S
O69 La41 2.757 . S
O69 C58 1.289 . S
O70 La41 2.470 . S
O70 C59 1.258 . S
O71 La40 2.503 . S
O71 C59 1.256 . S
H72 C44 0.930 . S
H73 C45 0.930 . S
H74 C47 0.929 . S
H75 C48 0.929 . S
H76 C53 0.930 . S
H77 C54 0.930 . S
H78 C56 0.929 . S
H79 C57 0.929 . S
La80 C82 2.928 . S
La80 O100 2.521 . S
La80 O101 2.628 . S
La80 O102 2.554 . S
La80 O103 2.757 . S
La80 O104 2.470 . S
La80 O109 2.482 . S
La80 O111 2.503 . S
La81 C91 2.928 . S
La81 O103 2.482 . S
La81 O105 2.503 . S
La81 O106 2.521 . S
La81 O107 2.628 . S
La81 O108 2.554 . S
La81 O109 2.757 . S
La81 O110 2.470 . S
C82 La80 2.928 . S
C82 C83 1.503 . S
C82 O100 1.261 . S
C82 O101 1.243 . S
C83 C82 1.503 . S
C83 C84 1.394 . S
C83 C88 1.373 . S
C84 C83 1.394 . S
C84 C85 1.380 . S
C84 H112 0.930 . S
C85 C84 1.380 . S
C85 C86 1.376 . S
C85 H113 0.930 . S
C86 C85 1.376 . S
C86 C87 1.370 . S
C87 C86 1.370 . S
C87 C88 1.396 . S
C87 H114 0.929 . S
C88 C83 1.373 . S
C88 C87 1.396 . S
C88 H115 0.929 . S
C89 O102 1.240 . S
C89 O103 1.289 . S
C90 O104 1.258 . S
C90 O105 1.256 . S
C91 La81 2.928 . S
C91 C92 1.503 . S
C91 O106 1.261 . S
C91 O107 1.243 . S
C92 C91 1.503 . S
C92 C93 1.394 1_565 S
C92 C97 1.373 . S
C93 C92 1.394 1_545 S
C93 C94 1.380 . S
C93 H116 0.930 . S
C94 C93 1.380 . S
C94 C95 1.376 . S
C94 H117 0.930 . S
C95 C94 1.376 . S
C95 C96 1.370 1_545 S
C96 C95 1.370 1_565 S
C96 C97 1.396 . S
C96 H118 0.929 . S
C97 C92 1.373 . S
C97 C96 1.396 . S
C97 H119 0.929 . S
C98 O108 1.240 . S
C98 O109 1.289 . S
C99 O110 1.258 . S
C99 O111 1.256 . S
O100 La80 2.521 . S
O100 C82 1.261 . S
O101 La80 2.628 . S
O101 C82 1.243 . S
O102 La80 2.554 . S
O102 C89 1.240 . S
O103 La80 2.757 . S
O103 La81 2.482 . S
O103 C89 1.289 . S
O104 La80 2.470 . S
O104 C90 1.258 . S
O105 La81 2.503 . S
O105 C90 1.256 . S
O106 La81 2.521 . S
O106 C91 1.261 . S
O107 La81 2.628 . S
O107 C91 1.243 . S
O108 La81 2.554 . S
O108 C98 1.240 . S
O109 La80 2.482 . S
O109 La81 2.757 . S
O109 C98 1.289 . S
O110 La81 2.470 . S
O110 C99 1.258 . S
O111 La80 2.503 . S
O111 C99 1.256 . S
H112 C84 0.930 . S
H113 C85 0.930 . S
H114 C87 0.929 . S
H115 C88 0.929 . S
H116 C93 0.930 . S
H117 C94 0.930 . S
H118 C96 0.929 . S
H119 C97 0.929 . S
La120 C122 2.928 1_655 S
La120 O140 2.521 1_655 S
La120 O141 2.628 . S
La120 O142 2.554 . S
La120 O143 2.757 . S
La120 O144 2.470 . S
La120 O149 2.482 . S
La120 O151 2.503 . S
La121 C131 2.928 . S
La121 O143 2.482 . S
La121 O145 2.503 . S
La121 O146 2.521 . S
La121 O147 2.628 . S
La121 O148 2.554 . S
La121 O149 2.757 . S
La121 O150 2.470 . S
C122 La120 2.928 1_455 S
C122 C123 1.503 . S
C122 O140 1.261 . S
C122 O141 1.243 1_455 S
C123 C122 1.503 . S
C123 C124 1.394 . S
C123 C128 1.373 . S
C124 C123 1.394 . S
C124 C125 1.380 . S
C124 H152 0.930 . S
C125 C124 1.380 . S
C125 C126 1.376 . S
C125 H153 0.930 . S
C126 C125 1.376 . S
C126 C127 1.370 . S
C127 C126 1.370 . S
C127 C128 1.396 . S
C127 H154 0.929 . S
C128 C123 1.373 . S
C128 C127 1.396 . S
C128 H155 0.929 1_455 S
C129 O142 1.240 . S
C129 O143 1.289 . S
C130 O144 1.258 . S
C130 O145 1.256 . S
C131 La121 2.928 . S
C131 C132 1.503 . S
C131 O146 1.261 . S
C131 O147 1.243 . S
C132 C131 1.503 . S
C132 C133 1.394 . S
C132 C137 1.373 . S
C133 C132 1.394 . S
C133 C134 1.380 . S
C133 H156 0.930 . S
C134 C133 1.380 . S
C134 C135 1.376 . S
C134 H157 0.930 . S
C135 C134 1.376 . S
C135 C136 1.370 . S
C136 C135 1.370 . S
C136 C137 1.396 . S
C136 H158 0.929 . S
C137 C132 1.373 . S
C137 C136 1.396 . S
C137 H159 0.929 . S
C138 O148 1.240 . S
C138 O149 1.289 . S
C139 O150 1.258 . S
C139 O151 1.256 . S
O140 La120 2.521 1_455 S
O140 C122 1.261 . S
O141 La120 2.628 . S
O141 C122 1.243 1_655 S
O142 La120 2.554 . S
O142 C129 1.240 . S
O143 La120 2.757 . S
O143 La121 2.482 . S
O143 C129 1.289 . S
O144 La120 2.470 . S
O144 C130 1.258 . S
O145 La121 2.503 . S
O145 C130 1.256 . S
O146 La121 2.521 . S
O146 C131 1.261 . S
O147 La121 2.628 . S
O147 C131 1.243 . S
O148 La121 2.554 . S
O148 C138 1.240 . S
O149 La120 2.482 . S
O149 La121 2.757 . S
O149 C138 1.289 . S
O150 La121 2.470 . S
O150 C139 1.258 . S
O151 La120 2.503 . S
O151 C139 1.256 . S
H152 C124 0.930 . S
H153 C125 0.930 . S
H154 C127 0.929 . S
H155 C128 0.929 1_655 S
H156 C133 0.930 . S
H157 C134 0.930 . S
H158 C136 0.929 . S
H159 C137 0.929 . S
La160 C162 2.928 . S
La160 O180 2.521 . S
La160 O181 2.628 . S
La160 O182 2.554 . S
La160 O183 2.757 . S
La160 O184 2.470 . S
La160 O189 2.482 . S
La160 O191 2.503 . S
La161 C171 2.928 . S
La161 O183 2.482 . S
La161 O185 2.503 . S
La161 O186 2.521 . S
La161 O187 2.628 . S
La161 O188 2.554 . S
La161 O189 2.757 . S
La161 O190 2.470 . S
C162 La160 2.928 . S
C162 C163 1.503 . S
C162 O180 1.261 . S
C162 O181 1.243 . S
C163 C162 1.503 . S
C163 C164 1.394 1_565 S
C163 C168 1.373 . S
C164 C163 1.394 1_545 S
C164 C165 1.380 . S
C164 H192 0.930 . S
C165 C164 1.380 . S
C165 C166 1.376 . S
C165 H193 0.930 . S
C166 C165 1.376 . S
C166 C167 1.370 1_545 S
C167 C166 1.370 1_565 S
C167 C168 1.396 . S
C167 H194 0.929 1_556 S
C168 C163 1.373 . S
C168 C167 1.396 . S
C168 H195 0.929 . S
C169 O182 1.240 . S
C169 O183 1.289 . S
C170 O184 1.258 . S
C170 O185 1.256 . S
C171 La161 2.928 . S
C171 C172 1.503 . S
C171 O186 1.261 . S
C171 O187 1.243 . S
C172 C171 1.503 . S
C172 C173 1.394 . S
C172 C177 1.373 . S
C173 C172 1.394 . S
C173 C174 1.380 . S
C173 H196 0.930 . S
C174 C173 1.380 . S
C174 C175 1.376 . S
C174 H197 0.930 . S
C175 C174 1.376 . S
C175 C176 1.370 . S
C176 C175 1.370 . S
C176 C177 1.396 . S
C176 H198 0.929 . S
C177 C172 1.373 . S
C177 C176 1.396 . S
C177 H199 0.929 . S
C178 O188 1.240 . S
C178 O189 1.289 . S
C179 O190 1.258 . S
C179 O191 1.256 . S
O180 La160 2.521 . S
O180 C162 1.261 . S
O181 La160 2.628 . S
O181 C162 1.243 . S
O182 La160 2.554 . S
O182 C169 1.240 . S
O183 La160 2.757 . S
O183 La161 2.482 . S
O183 C169 1.289 . S
O184 La160 2.470 . S
O184 C170 1.258 . S
O185 La161 2.503 . S
O185 C170 1.256 . S
O186 La161 2.521 . S
O186 C171 1.261 . S
O187 La161 2.628 . S
O187 C171 1.243 . S
O188 La161 2.554 . S
O188 C178 1.240 . S
O189 La160 2.482 . S
O189 La161 2.757 . S
O189 C178 1.289 . S
O190 La161 2.470 . S
O190 C179 1.258 . S
O191 La160 2.503 . S
O191 C179 1.256 . S
H192 C164 0.930 . S
H193 C165 0.930 . S
H194 C167 0.929 1_554 S
H195 C168 0.929 . S
H196 C173 0.930 . S
H197 C174 0.930 . S
H198 C176 0.929 . S
H199 C177 0.929 . S
La200 C202 2.928 . S
La200 O220 2.521 . S
La200 O221 2.628 . S
La200 O222 2.554 . S
La200 O223 2.757 . S
La200 O224 2.470 . S
La200 O229 2.482 . S
La200 O231 2.503 . S
La201 C211 2.928 . S
La201 O223 2.482 . S
La201 O225 2.503 . S
La201 O226 2.521 . S
La201 O227 2.628 . S
La201 O228 2.554 . S
La201 O229 2.757 . S
La201 O230 2.470 . S
C202 La200 2.928 . S
C202 C203 1.503 . S
C202 O220 1.261 . S
C202 O221 1.243 . S
C203 C202 1.503 . S
C203 C204 1.394 . S
C203 C208 1.373 . S
C204 C203 1.394 . S
C204 C205 1.380 . S
C204 H232 0.930 . S
C205 C204 1.380 . S
C205 C206 1.376 . S
C205 H233 0.930 . S
C206 C205 1.376 . S
C206 C207 1.370 . S
C207 C206 1.370 . S
C207 C208 1.396 . S
C207 H234 0.929 . S
C208 C203 1.373 . S
C208 C207 1.396 . S
C208 H235 0.929 . S
C209 O222 1.240 . S
C209 O223 1.289 . S
C210 O224 1.258 . S
C210 O225 1.256 . S
C211 La201 2.928 . S
C211 C212 1.503 . S
C211 O226 1.261 . S
C211 O227 1.243 . S
C212 C211 1.503 . S
C212 C213 1.394 . S
C212 C217 1.373 . S
C213 C212 1.394 . S
C213 C214 1.380 . S
C213 H236 0.930 . S
C214 C213 1.380 . S
C214 C215 1.376 . S
C214 H237 0.930 . S
C215 C214 1.376 . S
C215 C216 1.370 . S
C216 C215 1.370 . S
C216 C217 1.396 . S
C216 H238 0.929 . S
C217 C212 1.373 . S
C217 C216 1.396 . S
C217 H239 0.929 . S
C218 O228 1.240 . S
C218 O229 1.289 . S
C219 O230 1.258 . S
C219 O231 1.256 . S
O220 La200 2.521 . S
O220 C202 1.261 . S
O221 La200 2.628 . S
O221 C202 1.243 . S
O222 La200 2.554 . S
O222 C209 1.240 . S
O223 La200 2.757 . S
O223 La201 2.482 . S
O223 C209 1.289 . S
O224 La200 2.470 . S
O224 C210 1.258 . S
O225 La201 2.503 . S
O225 C210 1.256 . S
O226 La201 2.521 . S
O226 C211 1.261 . S
O227 La201 2.628 . S
O227 C211 1.243 . S
O228 La201 2.554 . S
O228 C218 1.240 . S
O229 La200 2.482 . S
O229 La201 2.757 . S
O229 C218 1.289 . S
O230 La201 2.470 . S
O230 C219 1.258 . S
O231 La200 2.503 . S
O231 C219 1.256 . S
H232 C204 0.930 . S
H233 C205 0.930 . S
H234 C207 0.929 . S
H235 C208 0.929 . S
H236 C213 0.930 . S
H237 C214 0.930 . S
H238 C216 0.929 . S
H239 C217 0.929 . S
La240 C242 2.928 . S
La240 O260 2.521 . S
La240 O261 2.628 . S
La240 O262 2.554 . S
La240 O263 2.757 . S
La240 O264 2.470 . S
La240 O269 2.482 . S
La240 O271 2.503 . S
La241 C251 2.928 . S
La241 O263 2.482 . S
La241 O265 2.503 . S
La241 O266 2.521 . S
La241 O267 2.628 . S
La241 O268 2.554 . S
La241 O269 2.757 . S
La241 O270 2.470 . S
C242 La240 2.928 . S
C242 C243 1.503 . S
C242 O260 1.261 . S
C242 O261 1.243 . S
C243 C242 1.503 . S
C243 C244 1.394 1_545 S
C243 C248 1.373 . S
C244 C243 1.394 1_565 S
C244 C245 1.380 . S
C244 H272 0.930 . S
C245 C244 1.380 . S
C245 C246 1.376 . S
C245 H273 0.930 . S
C246 C245 1.376 . S
C246 C247 1.370 1_565 S
C247 C246 1.370 1_545 S
C247 C248 1.396 . S
C247 H274 0.929 . S
C248 C243 1.373 . S
C248 C247 1.396 . S
C248 H275 0.929 . S
C249 O262 1.240 . S
C249 O263 1.289 . S
C250 O264 1.258 . S
C250 O265 1.256 . S
C251 La241 2.928 . S
C251 C252 1.503 . S
C251 O266 1.261 . S
C251 O267 1.243 . S
C252 C251 1.503 . S
C252 C253 1.394 . S
C252 C257 1.373 . S
C253 C252 1.394 . S
C253 C254 1.380 . S
C253 H276 0.930 . S
C254 C253 1.380 . S
C254 C255 1.376 . S
C254 H277 0.930 . S
C255 C254 1.376 . S
C255 C256 1.370 . S
C256 C255 1.370 . S
C256 C257 1.396 . S
C256 H278 0.929 . S
C257 C252 1.373 . S
C257 C256 1.396 . S
C257 H279 0.929 . S
C258 O268 1.240 . S
C258 O269 1.289 . S
C259 O270 1.258 . S
C259 O271 1.256 . S
O260 La240 2.521 . S
O260 C242 1.261 . S
O261 La240 2.628 . S
O261 C242 1.243 . S
O262 La240 2.554 . S
O262 C249 1.240 . S
O263 La240 2.757 . S
O263 La241 2.482 . S
O263 C249 1.289 . S
O264 La240 2.470 . S
O264 C250 1.258 . S
O265 La241 2.503 . S
O265 C250 1.256 . S
O266 La241 2.521 . S
O266 C251 1.261 . S
O267 La241 2.628 . S
O267 C251 1.243 . S
O268 La241 2.554 . S
O268 C258 1.240 . S
O269 La240 2.482 . S
O269 La241 2.757 . S
O269 C258 1.289 . S
O270 La241 2.470 . S
O270 C259 1.258 . S
O271 La240 2.503 . S
O271 C259 1.256 . S
H272 C244 0.930 . S
H273 C245 0.930 . S
H274 C247 0.929 . S
H275 C248 0.929 . S
H276 C253 0.930 . S
H277 C254 0.930 . S
H278 C256 0.929 . S
H279 C257 0.929 . S
La280 C282 2.928 . S
La280 O300 2.521 . S
La280 O301 2.628 . S
La280 O302 2.554 . S
La280 O303 2.757 . S
La280 O304 2.470 . S
La280 O309 2.482 . S
La280 O311 2.503 . S
La281 C291 2.928 1_455 S
La281 O303 2.482 . S
La281 O305 2.503 . S
La281 O306 2.521 1_455 S
La281 O307 2.628 . S
La281 O308 2.554 . S
La281 O309 2.757 . S
La281 O310 2.470 . S
C282 La280 2.928 . S
C282 C283 1.503 . S
C282 O300 1.261 . S
C282 O301 1.243 . S
C283 C282 1.503 . S
C283 C284 1.394 . S
C283 C288 1.373 . S
C284 C283 1.394 . S
C284 C285 1.380 . S
C284 H312 0.930 . S
C285 C284 1.380 . S
C285 C286 1.376 . S
C285 H313 0.930 . S
C286 C285 1.376 . S
C286 C287 1.370 . S
C287 C286 1.370 . S
C287 C288 1.396 . S
C287 H314 0.929 . S
C288 C283 1.373 . S
C288 C287 1.396 . S
C288 H315 0.929 . S
C289 O302 1.240 . S
C289 O303 1.289 . S
C290 O304 1.258 . S
C290 O305 1.256 . S
C291 La281 2.928 1_655 S
C291 C292 1.503 . S
C291 O306 1.261 . S
C291 O307 1.243 1_655 S
C292 C291 1.503 . S
C292 C293 1.394 . S
C292 C297 1.373 . S
C293 C292 1.394 . S
C293 C294 1.380 . S
C293 H316 0.930 . S
C294 C293 1.380 . S
C294 C295 1.376 . S
C294 H317 0.930 . S
C295 C294 1.376 . S
C295 C296 1.370 . S
C296 C295 1.370 . S
C296 C297 1.396 . S
C296 H318 0.929 . S
C297 C292 1.373 . S
C297 C296 1.396 . S
C297 H319 0.929 1_655 S
C298 O308 1.240 . S
C298 O309 1.289 . S
C299 O310 1.258 . S
C299 O311 1.256 . S
O300 La280 2.521 . S
O300 C282 1.261 . S
O301 La280 2.628 . S
O301 C282 1.243 . S
O302 La280 2.554 . S
O302 C289 1.240 . S
O303 La280 2.757 . S
O303 La281 2.482 . S
O303 C289 1.289 . S
O304 La280 2.470 . S
O304 C290 1.258 . S
O305 La281 2.503 . S
O305 C290 1.256 . S
O306 La281 2.521 1_655 S
O306 C291 1.261 . S
O307 La281 2.628 . S
O307 C291 1.243 1_455 S
O308 La281 2.554 . S
O308 C298 1.240 . S
O309 La280 2.482 . S
O309 La281 2.757 . S
O309 C298 1.289 . S
O310 La281 2.470 . S
O310 C299 1.258 . S
O311 La280 2.503 . S
O311 C299 1.256 . S
H312 C284 0.930 . S
H313 C285 0.930 . S
H314 C287 0.929 . S
H315 C288 0.929 . S
H316 C293 0.930 . S
H317 C294 0.930 . S
H318 C296 0.929 . S
H319 C297 0.929 1_455 S
La320 C322 2.928 . S
La320 O340 2.521 . S
La320 O341 2.628 . S
La320 O342 2.554 . S
La320 O343 2.757 . S
La320 O344 2.470 . S
La320 O349 2.482 . S
La320 O351 2.503 . S
La321 C331 2.928 . S
La321 O343 2.482 . S
La321 O345 2.503 . S
La321 O346 2.521 . S
La321 O347 2.628 . S
La321 O348 2.554 . S
La321 O349 2.757 . S
La321 O350 2.470 . S
C322 La320 2.928 . S
C322 C323 1.503 . S
C322 O340 1.261 . S
C322 O341 1.243 . S
C323 C322 1.503 . S
C323 C324 1.394 . S
C323 C328 1.373 . S
C324 C323 1.394 . S
C324 C325 1.380 . S
C324 H352 0.930 . S
C325 C324 1.380 . S
C325 C326 1.376 . S
C325 H353 0.930 . S
C326 C325 1.376 . S
C326 C327 1.370 . S
C327 C326 1.370 . S
C327 C328 1.396 . S
C327 H354 0.929 . S
C328 C323 1.373 . S
C328 C327 1.396 . S
C328 H355 0.929 . S
C329 O342 1.240 . S
C329 O343 1.289 . S
C330 O344 1.258 . S
C330 O345 1.256 . S
C331 La321 2.928 . S
C331 C332 1.503 . S
C331 O346 1.261 . S
C331 O347 1.243 . S
C332 C331 1.503 . S
C332 C333 1.394 . S
C332 C337 1.373 . S
C333 C332 1.394 . S
C333 C334 1.380 . S
C333 H356 0.930 . S
C334 C333 1.380 . S
C334 C335 1.376 . S
C334 H357 0.930 . S
C335 C334 1.376 . S
C335 C336 1.370 . S
C336 C335 1.370 . S
C336 C337 1.396 . S
C336 H358 0.929 . S
C337 C332 1.373 . S
C337 C336 1.396 . S
C337 H359 0.929 . S
C338 O348 1.240 . S
C338 O349 1.289 . S
C339 O350 1.258 . S
C339 O351 1.256 . S
O340 La320 2.521 . S
O340 C322 1.261 . S
O341 La320 2.628 . S
O341 C322 1.243 . S
O342 La320 2.554 . S
O342 C329 1.240 . S
O343 La320 2.757 . S
O343 La321 2.482 . S
O343 C329 1.289 . S
O344 La320 2.470 . S
O344 C330 1.258 . S
O345 La321 2.503 . S
O345 C330 1.256 . S
O346 La321 2.521 . S
O346 C331 1.261 . S
O347 La321 2.628 . S
O347 C331 1.243 . S
O348 La321 2.554 . S
O348 C338 1.240 . S
O349 La320 2.482 . S
O349 La321 2.757 . S
O349 C338 1.289 . S
O350 La321 2.470 . S
O350 C339 1.258 . S
O351 La320 2.503 . S
O351 C339 1.256 . S
H352 C324 0.930 . S
H353 C325 0.930 . S
H354 C327 0.929 . S
H355 C328 0.929 . S
H356 C333 0.930 . S
H357 C334 0.930 . S
H358 C336 0.929 . S
H359 C337 0.929 . S
La360 C362 2.928 1_445 S
La360 O380 2.521 1_455 S
La360 O381 2.628 1_545 S
La360 O382 2.554 . S
La360 O383 2.757 . S
La360 O384 2.470 . S
La360 O389 2.482 . S
La360 O391 2.503 . S
La361 C371 2.928 . S
La361 O383 2.482 . S
La361 O385 2.503 . S
La361 O386 2.521 . S
La361 O387 2.628 . S
La361 O388 2.554 . S
La361 O389 2.757 . S
La361 O390 2.470 . S
C362 La360 2.928 1_665 S
C362 C363 1.503 . S
C362 O380 1.261 1_565 S
C362 O381 1.243 1_655 S
C363 C362 1.503 . S
C363 C364 1.394 . S
C363 C368 1.373 . S
C364 C363 1.394 . S
C364 C365 1.380 . S
C364 H392 0.930 1_565 S
C365 C364 1.380 . S
C365 C366 1.376 . S
C365 H393 0.930 . S
C366 C365 1.376 . S
C366 C367 1.370 . S
C367 C366 1.370 . S
C367 C368 1.396 . S
C367 H394 0.929 . S
C368 C363 1.373 . S
C368 C367 1.396 . S
C368 H395 0.929 1_655 S
C369 O382 1.240 . S
C369 O383 1.289 . S
C370 O384 1.258 . S
C370 O385 1.256 . S
C371 La361 2.928 . S
C371 C372 1.503 . S
C371 O386 1.261 . S
C371 O387 1.243 . S
C372 C371 1.503 . S
C372 C373 1.394 . S
C372 C377 1.373 . S
C373 C372 1.394 . S
C373 C374 1.380 . S
C373 H396 0.930 . S
C374 C373 1.380 . S
C374 C375 1.376 . S
C374 H397 0.930 . S
C375 C374 1.376 . S
C375 C376 1.370 . S
C376 C375 1.370 . S
C376 C377 1.396 . S
C376 H398 0.929 . S
C377 C372 1.373 . S
C377 C376 1.396 . S
C377 H399 0.929 . S
C378 O388 1.240 1_565 S
C378 O389 1.289 1_565 S
C379 O390 1.258 . S
C379 O391 1.256 . S
O380 La360 2.521 1_655 S
O380 C362 1.261 1_545 S
O381 La360 2.628 1_565 S
O381 C362 1.243 1_455 S
O382 La360 2.554 . S
O382 C369 1.240 . S
O383 La360 2.757 . S
O383 La361 2.482 . S
O383 C369 1.289 . S
O384 La360 2.470 . S
O384 C370 1.258 . S
O385 La361 2.503 . S
O385 C370 1.256 . S
O386 La361 2.521 . S
O386 C371 1.261 . S
O387 La361 2.628 . S
O387 C371 1.243 . S
O388 La361 2.554 . S
O388 C378 1.240 1_545 S
O389 La360 2.482 . S
O389 La361 2.757 . S
O389 C378 1.289 1_545 S
O390 La361 2.470 . S
O390 C379 1.258 . S
O391 La360 2.503 . S
O391 C379 1.256 . S
H392 C364 0.930 1_545 S
H393 C365 0.930 . S
H394 C367 0.929 . S
H395 C368 0.929 1_455 S
H396 C373 0.930 . S
H397 C374 0.930 . S
H398 C376 0.929 . S
H399 C377 0.929 . S
La400 C402 2.928 . S
La400 O420 2.521 . S
La400 O421 2.628 . S
La400 O422 2.554 . S
La400 O423 2.757 . S
La400 O424 2.470 . S
La400 O429 2.482 . S
La400 O431 2.503 . S
La401 C411 2.928 . S
La401 O423 2.482 . S
La401 O425 2.503 . S
La401 O426 2.521 . S
La401 O427 2.628 . S
La401 O428 2.554 . S
La401 O429 2.757 . S
La401 O430 2.470 . S
C402 La400 2.928 . S
C402 C403 1.503 . S
C402 O420 1.261 . S
C402 O421 1.243 . S
C403 C402 1.503 . S
C403 C404 1.394 . S
C403 C408 1.373 . S
C404 C403 1.394 . S
C404 C405 1.380 . S
C404 H432 0.930 . S
C405 C404 1.380 . S
C405 C406 1.376 . S
C405 H433 0.930 . S
C406 C405 1.376 . S
C406 C407 1.370 . S
C407 C406 1.370 . S
C407 C408 1.396 . S
C407 H434 0.929 . S
C408 C403 1.373 . S
C408 C407 1.396 . S
C408 H435 0.929 . S
C409 O422 1.240 . S
C409 O423 1.289 . S
C410 O424 1.258 . S
C410 O425 1.256 . S
C411 La401 2.928 . S
C411 C412 1.503 . S
C411 O426 1.261 . S
C411 O427 1.243 . S
C412 C411 1.503 . S
C412 C413 1.394 . S
C412 C417 1.373 . S
C413 C412 1.394 . S
C413 C414 1.380 . S
C413 H436 0.930 . S
C414 C413 1.380 . S
C414 C415 1.376 . S
C414 H437 0.930 . S
C415 C414 1.376 . S
C415 C416 1.370 . S
C416 C415 1.370 . S
C416 C417 1.396 . S
C416 H438 0.929 1_554 S
C417 C412 1.373 . S
C417 C416 1.396 . S
C417 H439 0.929 . S
C418 O428 1.240 . S
C418 O429 1.289 . S
C419 O430 1.258 . S
C419 O431 1.256 . S
O420 La400 2.521 . S
O420 C402 1.261 . S
O421 La400 2.628 . S
O421 C402 1.243 . S
O422 La400 2.554 . S
O422 C409 1.240 . S
O423 La400 2.757 . S
O423 La401 2.482 . S
O423 C409 1.289 . S
O424 La400 2.470 . S
O424 C410 1.258 . S
O425 La401 2.503 . S
O425 C410 1.256 . S
O426 La401 2.521 . S
O426 C411 1.261 . S
O427 La401 2.628 . S
O427 C411 1.243 . S
O428 La401 2.554 . S
O428 C418 1.240 . S
O429 La400 2.482 . S
O429 La401 2.757 . S
O429 C418 1.289 . S
O430 La401 2.470 . S
O430 C419 1.258 . S
O431 La400 2.503 . S
O431 C419 1.256 . S
H432 C404 0.930 . S
H433 C405 0.930 . S
H434 C407 0.929 . S
H435 C408 0.929 . S
H436 C413 0.930 . S
H437 C414 0.930 . S
H438 C416 0.929 1_556 S
H439 C417 0.929 . S
La440 C442 2.928 1_565 S
La440 O460 2.521 . S
La440 O461 2.628 1_565 S
La440 O462 2.554 . S
La440 O463 2.757 . S
La440 O464 2.470 . S
La440 O469 2.482 . S
La440 O471 2.503 . S
La441 C451 2.928 . S
La441 O463 2.482 . S
La441 O465 2.503 . S
La441 O466 2.521 . S
La441 O467 2.628 . S
La441 O468 2.554 . S
La441 O469 2.757 . S
La441 O470 2.470 . S
C442 La440 2.928 1_545 S
C442 C443 1.503 . S
C442 O460 1.261 1_545 S
C442 O461 1.243 . S
C443 C442 1.503 . S
C443 C444 1.394 . S
C443 C448 1.373 . S
C444 C443 1.394 . S
C444 C445 1.380 . S
C444 H472 0.930 1_545 S
C445 C444 1.380 . S
C445 C446 1.376 . S
C445 H473 0.930 . S
C446 C445 1.376 . S
C446 C447 1.370 . S
C447 C446 1.370 . S
C447 C448 1.396 . S
C447 H474 0.929 . S
C448 C443 1.373 . S
C448 C447 1.396 . S
C448 H475 0.929 . S
C449 O462 1.240 . S
C449 O463 1.289 . S
C450 O464 1.258 . S
C450 O465 1.256 . S
C451 La441 2.928 . S
C451 C452 1.503 . S
C451 O466 1.261 . S
C451 O467 1.243 . S
C452 C451 1.503 . S
C452 C453 1.394 . S
C452 C457 1.373 . S
C453 C452 1.394 . S
C453 C454 1.380 . S
C453 H476 0.930 . S
C454 C453 1.380 . S
C454 C455 1.376 . S
C454 H477 0.930 . S
C455 C454 1.376 . S
C455 C456 1.370 . S
C456 C455 1.370 . S
C456 C457 1.396 . S
C456 H478 0.929 . S
C457 C452 1.373 . S
C457 C456 1.396 . S
C457 H479 0.929 . S
C458 O468 1.240 1_545 S
C458 O469 1.289 1_545 S
C459 O470 1.258 . S
C459 O471 1.256 . S
O460 La440 2.521 . S
O460 C442 1.261 1_565 S
O461 La440 2.628 1_545 S
O461 C442 1.243 . S
O462 La440 2.554 . S
O462 C449 1.240 . S
O463 La440 2.757 . S
O463 La441 2.482 . S
O463 C449 1.289 . S
O464 La440 2.470 . S
O464 C450 1.258 . S
O465 La441 2.503 . S
O465 C450 1.256 . S
O466 La441 2.521 . S
O466 C451 1.261 . S
O467 La441 2.628 . S
O467 C451 1.243 . S
O468 La441 2.554 . S
O468 C458 1.240 1_565 S
O469 La440 2.482 . S
O469 La441 2.757 . S
O469 C458 1.289 1_565 S
O470 La441 2.470 . S
O470 C459 1.258 . S
O471 La440 2.503 . S
O471 C459 1.256 . S
H472 C444 0.930 1_565 S
H473 C445 0.930 . S
H474 C447 0.929 . S
H475 C448 0.929 . S
H476 C453 0.930 . S
H477 C454 0.930 . S
H478 C456 0.929 . S
H479 C457 0.929 . S
La480 C482 2.928 . S
La480 O500 2.521 . S
La480 O501 2.628 . S
La480 O502 2.554 . S
La480 O503 2.757 . S
La480 O504 2.470 . S
La480 O509 2.482 . S
La480 O511 2.503 . S
La481 C491 2.928 . S
La481 O503 2.482 . S
La481 O505 2.503 . S
La481 O506 2.521 . S
La481 O507 2.628 . S
La481 O508 2.554 . S
La481 O509 2.757 . S
La481 O510 2.470 . S
C482 La480 2.928 . S
C482 C483 1.503 . S
C482 O500 1.261 . S
C482 O501 1.243 . S
C483 C482 1.503 . S
C483 C484 1.394 . S
C483 C488 1.373 . S
C484 C483 1.394 . S
C484 C485 1.380 . S
C484 H512 0.930 . S
C485 C484 1.380 . S
C485 C486 1.376 . S
C485 H513 0.930 . S
C486 C485 1.376 . S
C486 C487 1.370 . S
C487 C486 1.370 . S
C487 C488 1.396 . S
C487 H514 0.929 . S
C488 C483 1.373 . S
C488 C487 1.396 . S
C488 H515 0.929 . S
C489 O502 1.240 . S
C489 O503 1.289 . S
C490 O504 1.258 . S
C490 O505 1.256 . S
C491 La481 2.928 . S
C491 C492 1.503 . S
C491 O506 1.261 . S
C491 O507 1.243 . S
C492 C491 1.503 . S
C492 C493 1.394 . S
C492 C497 1.373 . S
C493 C492 1.394 . S
C493 C494 1.380 . S
C493 H516 0.930 . S
C494 C493 1.380 . S
C494 C495 1.376 . S
C494 H517 0.930 . S
C495 C494 1.376 . S
C495 C496 1.370 . S
C496 C495 1.370 . S
C496 C497 1.396 . S
C496 H518 0.929 . S
C497 C492 1.373 . S
C497 C496 1.396 . S
C497 H519 0.929 . S
C498 O508 1.240 . S
C498 O509 1.289 . S
C499 O510 1.258 . S
C499 O511 1.256 . S
O500 La480 2.521 . S
O500 C482 1.261 . S
O501 La480 2.628 . S
O501 C482 1.243 . S
O502 La480 2.554 . S
O502 C489 1.240 . S
O503 La480 2.757 . S
O503 La481 2.482 . S
O503 C489 1.289 . S
O504 La480 2.470 . S
O504 C490 1.258 . S
O505 La481 2.503 . S
O505 C490 1.256 . S
O506 La481 2.521 . S
O506 C491 1.261 . S
O507 La481 2.628 . S
O507 C491 1.243 . S
O508 La481 2.554 . S
O508 C498 1.240 . S
O509 La480 2.482 . S
O509 La481 2.757 . S
O509 C498 1.289 . S
O510 La481 2.470 . S
O510 C499 1.258 . S
O511 La480 2.503 . S
O511 C499 1.256 . S
H512 C484 0.930 . S
H513 C485 0.930 . S
H514 C487 0.929 . S
H515 C488 0.929 . S
H516 C493 0.930 . S
H517 C494 0.930 . S
H518 C496 0.929 . S
H519 C497 0.929 . S
La520 C522 2.928 . S
La520 O540 2.521 . S
La520 O541 2.628 . S
La520 O542 2.554 . S
La520 O543 2.757 . S
La520 O544 2.470 . S
La520 O549 2.482 . S
La520 O551 2.503 . S
La521 C531 2.928 1_665 S
La521 O543 2.482 . S
La521 O545 2.503 . S
La521 O546 2.521 1_655 S
La521 O547 2.628 1_565 S
La521 O548 2.554 . S
La521 O549 2.757 . S
La521 O550 2.470 . S
C522 La520 2.928 . S
C522 C523 1.503 . S
C522 O540 1.261 . S
C522 O541 1.243 . S
C523 C522 1.503 . S
C523 C524 1.394 . S
C523 C528 1.373 . S
C524 C523 1.394 . S
C524 C525 1.380 . S
C524 H552 0.930 . S
C525 C524 1.380 . S
C525 C526 1.376 . S
C525 H553 0.930 . S
C526 C525 1.376 . S
C526 C527 1.370 . S
C527 C526 1.370 . S
C527 C528 1.396 . S
C527 H554 0.929 . S
C528 C523 1.373 . S
C528 C527 1.396 . S
C528 H555 0.929 . S
C529 O542 1.240 1_545 S
C529 O543 1.289 1_545 S
C530 O544 1.258 . S
C530 O545 1.256 . S
C531 La521 2.928 1_445 S
C531 C532 1.503 . S
C531 O546 1.261 1_545 S
C531 O547 1.243 1_455 S
C532 C531 1.503 . S
C532 C533 1.394 . S
C532 C537 1.373 . S
C533 C532 1.394 . S
C533 C534 1.380 . S
C533 H556 0.930 1_545 S
C534 C533 1.380 . S
C534 C535 1.376 . S
C534 H557 0.930 . S
C535 C534 1.376 . S
C535 C536 1.370 . S
C536 C535 1.370 . S
C536 C537 1.396 . S
C536 H558 0.929 . S
C537 C532 1.373 . S
C537 C536 1.396 . S
C537 H559 0.929 1_455 S
C538 O548 1.240 . S
C538 O549 1.289 . S
C539 O550 1.258 . S
C539 O551 1.256 . S
O540 La520 2.521 . S
O540 C522 1.261 . S
O541 La520 2.628 . S
O541 C522 1.243 . S
O542 La520 2.554 . S
O542 C529 1.240 1_565 S
O543 La520 2.757 . S
O543 La521 2.482 . S
O543 C529 1.289 1_565 S
O544 La520 2.470 . S
O544 C530 1.258 . S
O545 La521 2.503 . S
O545 C530 1.256 . S
O546 La521 2.521 1_455 S
O546 C531 1.261 1_565 S
O547 La521 2.628 1_545 S
O547 C531 1.243 1_655 S
O548 La521 2.554 . S
O548 C538 1.240 . S
O549 La520 2.482 . S
O549 La521 2.757 . S
O549 C538 1.289 . S
O550 La521 2.470 . S
O550 C539 1.258 . S
O551 La520 2.503 . S
O551 C539 1.256 . S
H552 C524 0.930 . S
H553 C525 0.930 . S
H554 C527 0.929 . S
H555 C528 0.929 . S
H556 C533 0.930 1_565 S
H557 C534 0.930 . S
H558 C536 0.929 . S
H559 C537 0.929 1_655 S
La560 C562 2.928 . S
La560 O580 2.521 . S
La560 O581 2.628 . S
La560 O582 2.554 . S
La560 O583 2.757 . S
La560 O584 2.470 . S
La560 O589 2.482 . S
La560 O591 2.503 . S
La561 C571 2.928 . S
La561 O583 2.482 . S
La561 O585 2.503 . S
La561 O586 2.521 . S
La561 O587 2.628 . S
La561 O588 2.554 . S
La561 O589 2.757 . S
La561 O590 2.470 . S
C562 La560 2.928 . S
C562 C563 1.503 . S
C562 O580 1.261 . S
C562 O581 1.243 . S
C563 C562 1.503 . S
C563 C564 1.394 . S
C563 C568 1.373 . S
C564 C563 1.394 . S
C564 C565 1.380 . S
C564 H592 0.930 . S
C565 C564 1.380 . S
C565 C566 1.376 . S
C565 H593 0.930 . S
C566 C565 1.376 . S
C566 C567 1.370 . S
C567 C566 1.370 . S
C567 C568 1.396 . S
C567 H594 0.929 1_556 S
C568 C563 1.373 . S
C568 C567 1.396 . S
C568 H595 0.929 . S
C569 O582 1.240 . S
C569 O583 1.289 . S
C570 O584 1.258 . S
C570 O585 1.256 . S
C571 La561 2.928 . S
C571 C572 1.503 . S
C571 O586 1.261 . S
C571 O587 1.243 . S
C572 C571 1.503 . S
C572 C573 1.394 . S
C572 C577 1.373 . S
C573 C572 1.394 . S
C573 C574 1.380 . S
C573 H596 0.930 . S
C574 C573 1.380 . S
C574 C575 1.376 . S
C574 H597 0.930 . S
C575 C574 1.376 . S
C575 C576 1.370 . S
C576 C575 1.370 . S
C576 C577 1.396 . S
C576 H598 0.929 . S
C577 C572 1.373 . S
C577 C576 1.396 . S
C577 H599 0.929 . S
C578 O588 1.240 . S
C578 O589 1.289 . S
C579 O590 1.258 . S
C579 O591 1.256 . S
O580 La560 2.521 . S
O580 C562 1.261 . S
O581 La560 2.628 . S
O581 C562 1.243 . S
O582 La560 2.554 . S
O582 C569 1.240 . S
O583 La560 2.757 . S
O583 La561 2.482 . S
O583 C569 1.289 . S
O584 La560 2.470 . S
O584 C570 1.258 . S
O585 La561 2.503 . S
O585 C570 1.256 . S
O586 La561 2.521 . S
O586 C571 1.261 . S
O587 La561 2.628 . S
O587 C571 1.243 . S
O588 La561 2.554 . S
O588 C578 1.240 . S
O589 La560 2.482 . S
O589 La561 2.757 . S
O589 C578 1.289 . S
O590 La561 2.470 . S
O590 C579 1.258 . S
O591 La560 2.503 . S
O591 C579 1.256 . S
H592 C564 0.930 . S
H593 C565 0.930 . S
H594 C567 0.929 1_554 S
H595 C568 0.929 . S
H596 C573 0.930 . S
H597 C574 0.930 . S
H598 C576 0.929 . S
H599 C577 0.929 . S
La600 C602 2.928 . S
La600 O620 2.521 . S
La600 O621 2.628 . S
La600 O622 2.554 . S
La600 O623 2.757 . S
La600 O624 2.470 . S
La600 O629 2.482 . S
La600 O631 2.503 . S
La601 C611 2.928 1_545 S
La601 O623 2.482 . S
La601 O625 2.503 . S
La601 O626 2.521 . S
La601 O627 2.628 1_545 S
La601 O628 2.554 . S
La601 O629 2.757 . S
La601 O630 2.470 . S
C602 La600 2.928 . S
C602 C603 1.503 . S
C602 O620 1.261 . S
C602 O621 1.243 . S
C603 C602 1.503 . S
C603 C604 1.394 . S
C603 C608 1.373 . S
C604 C603 1.394 . S
C604 C605 1.380 . S
C604 H632 0.930 . S
C605 C604 1.380 . S
C605 C606 1.376 . S
C605 H633 0.930 . S
C606 C605 1.376 . S
C606 C607 1.370 . S
C607 C606 1.370 . S
C607 C608 1.396 . S
C607 H634 0.929 . S
C608 C603 1.373 . S
C608 C607 1.396 . S
C608 H635 0.929 . S
C609 O622 1.240 1_565 S
C609 O623 1.289 1_565 S
C610 O624 1.258 . S
C610 O625 1.256 . S
C611 La601 2.928 1_565 S
C611 C612 1.503 . S
C611 O626 1.261 1_565 S
C611 O627 1.243 . S
C612 C611 1.503 . S
C612 C613 1.394 . S
C612 C617 1.373 . S
C613 C612 1.394 . S
C613 C614 1.380 . S
C613 H636 0.930 1_565 S
C614 C613 1.380 . S
C614 C615 1.376 . S
C614 H637 0.930 . S
C615 C614 1.376 . S
C615 C616 1.370 . S
C616 C615 1.370 . S
C616 C617 1.396 . S
C616 H638 0.929 . S
C617 C612 1.373 . S
C617 C616 1.396 . S
C617 H639 0.929 . S
C618 O628 1.240 . S
C618 O629 1.289 . S
C619 O630 1.258 . S
C619 O631 1.256 . S
O620 La600 2.521 . S
O620 C602 1.261 . S
O621 La600 2.628 . S
O621 C602 1.243 . S
O622 La600 2.554 . S
O622 C609 1.240 1_545 S
O623 La600 2.757 . S
O623 La601 2.482 . S
O623 C609 1.289 1_545 S
O624 La600 2.470 . S
O624 C610 1.258 . S
O625 La601 2.503 . S
O625 C610 1.256 . S
O626 La601 2.521 . S
O626 C611 1.261 1_545 S
O627 La601 2.628 1_565 S
O627 C611 1.243 . S
O628 La601 2.554 . S
O628 C618 1.240 . S
O629 La600 2.482 . S
O629 La601 2.757 . S
O629 C618 1.289 . S
O630 La601 2.470 . S
O630 C619 1.258 . S
O631 La600 2.503 . S
O631 C619 1.256 . S
H632 C604 0.930 . S
H633 C605 0.930 . S
H634 C607 0.929 . S
H635 C608 0.929 . S
H636 C613 0.930 1_545 S
H637 C614 0.930 . S
H638 C616 0.929 . S
H639 C617 0.929 . S
C640 C641 1.363 . S
C640 C646 1.379 . S
C640 N648 1.356 . S
C641 C640 1.363 . S
C641 C647 1.363 . S
C642 C643 1.363 . S
C642 C647 1.379 . S
C642 N649 1.356 . S
C643 C642 1.363 . S
C643 C646 1.363 . S
N644 C646 1.356 . S
N644 H656 0.984 . S
N644 H657 0.985 . S
N645 C647 1.356 . S
N645 H650 0.984 . S
N645 H651 0.985 . S
C646 C640 1.379 . S
C646 C643 1.363 . S
C646 N644 1.356 . S
C647 C641 1.363 . S
C647 C642 1.379 . S
C647 N645 1.356 . S
N648 C640 1.356 . S
N648 H654 0.984 . S
N648 H655 0.984 . S
N649 C642 1.356 . S
N649 H652 0.984 . S
N649 H653 0.985 . S
H650 N645 0.984 . S
H651 N645 0.985 . S
H652 N649 0.984 . S
H653 N649 0.985 . S
H654 N648 0.984 . S
H655 N648 0.984 . S
H656 N644 0.984 . S
H657 N644 0.985 . S
C658 C659 1.363 . S
C658 C664 1.379 . S
C658 N666 1.356 . S
C659 C658 1.363 . S
C659 C665 1.363 . S
C660 C661 1.363 . S
C660 C665 1.379 . S
C660 N667 1.356 . S
C661 C660 1.363 . S
C661 C664 1.363 . S
N662 C664 1.356 . S
N662 H674 0.984 . S
N662 H675 0.985 . S
N663 C665 1.356 . S
N663 H668 0.984 . S
N663 H669 0.985 . S
C664 C658 1.379 . S
C664 C661 1.363 . S
C664 N662 1.356 . S
C665 C659 1.363 . S
C665 C660 1.379 . S
C665 N663 1.356 . S
N666 C658 1.356 . S
N666 H672 0.984 . S
N666 H673 0.984 . S
N667 C660 1.356 . S
N667 H670 0.984 . S
N667 H671 0.985 . S
H668 N663 0.984 . S
H669 N663 0.985 . S
H670 N667 0.984 . S
H671 N667 0.985 . S
H672 N666 0.984 . S
H673 N666 0.984 . S
H674 N662 0.984 . S
H675 N662 0.985 . S
C676 C677 1.363 . S
C676 C682 1.379 1_455 S
C676 N684 1.356 . S
C677 C676 1.363 . S
C677 C683 1.363 . S
C678 C679 1.363 . S
C678 C683 1.379 1_655 S
C678 N685 1.356 . S
C679 C678 1.363 . S
C679 C682 1.363 . S
N680 C682 1.356 . S
N680 H692 0.984 . S
N680 H693 0.985 . S
N681 C683 1.356 . S
N681 H686 0.984 . S
N681 H687 0.985 . S
C682 C676 1.379 1_655 S
C682 C679 1.363 . S
C682 N680 1.356 . S
C683 C677 1.363 . S
C683 C678 1.379 1_455 S
C683 N681 1.356 . S
N684 C676 1.356 . S
N684 H690 0.984 . S
N684 H691 0.984 . S
N685 C678 1.356 . S
N685 H688 0.984 . S
N685 H689 0.985 . S
H686 N681 0.984 . S
H687 N681 0.985 . S
H688 N685 0.984 . S
H689 N685 0.985 . S
H690 N684 0.984 . S
H691 N684 0.984 . S
H692 N680 0.984 . S
H693 N680 0.985 . S
C694 C695 1.363 1_655 S
C694 C700 1.379 . S
C694 N702 1.356 . S
C695 C694 1.363 1_455 S
C695 C701 1.363 . S
C696 C697 1.363 1_455 S
C696 C701 1.379 . S
C696 N703 1.356 . S
C697 C696 1.363 1_655 S
C697 C700 1.363 . S
N698 C700 1.356 . S
N698 H710 0.984 . S
N698 H711 0.985 . S
N699 C701 1.356 . S
N699 H704 0.984 . S
N699 H705 0.985 . S
C700 C694 1.379 . S
C700 C697 1.363 . S
C700 N698 1.356 . S
C701 C695 1.363 . S
C701 C696 1.379 . S
C701 N699 1.356 . S
N702 C694 1.356 . S
N702 H708 0.984 . S
N702 H709 0.984 1_655 S
N703 C696 1.356 . S
N703 H706 0.984 1_455 S
N703 H707 0.985 . S
H704 N699 0.984 . S
H705 N699 0.985 . S
H706 N703 0.984 1_655 S
H707 N703 0.985 . S
H708 N702 0.984 . S
H709 N702 0.984 1_455 S
H710 N698 0.984 . S
H711 N698 0.985 . S
C712 C713 1.363 . S
C712 C718 1.379 . S
C712 N720 1.356 . S
C713 C712 1.363 . S
C713 C719 1.363 . S
C714 C715 1.363 . S
C714 C719 1.379 . S
C714 N721 1.356 . S
C715 C714 1.363 . S
C715 C718 1.363 . S
N716 C718 1.356 . S
N716 H728 0.984 . S
N716 H729 0.985 . S
N717 C719 1.356 . S
N717 H722 0.984 . S
N717 H723 0.985 . S
C718 C712 1.379 . S
C718 C715 1.363 . S
C718 N716 1.356 . S
C719 C713 1.363 . S
C719 C714 1.379 . S
C719 N717 1.356 . S
N720 C712 1.356 . S
N720 H726 0.984 . S
N720 H727 0.984 . S
N721 C714 1.356 . S
N721 H724 0.984 . S
N721 H725 0.985 . S
H722 N717 0.984 . S
H723 N717 0.985 . S
H724 N721 0.984 . S
H725 N721 0.985 . S
H726 N720 0.984 . S
H727 N720 0.984 . S
H728 N716 0.984 . S
H729 N716 0.985 . S
C730 C731 1.363 . S
C730 C736 1.379 . S
C730 N738 1.356 . S
C731 C730 1.363 . S
C731 C737 1.363 . S
C732 C733 1.363 . S
C732 C737 1.379 . S
C732 N739 1.356 . S
C733 C732 1.363 . S
C733 C736 1.363 . S
N734 C736 1.356 . S
N734 H746 0.984 . S
N734 H747 0.985 . S
N735 C737 1.356 . S
N735 H740 0.984 . S
N735 H741 0.985 . S
C736 C730 1.379 . S
C736 C733 1.363 . S
C736 N734 1.356 . S
C737 C731 1.363 . S
C737 C732 1.379 . S
C737 N735 1.356 . S
N738 C730 1.356 . S
N738 H744 0.984 . S
N738 H745 0.984 . S
N739 C732 1.356 . S
N739 H742 0.984 . S
N739 H743 0.985 . S
H740 N735 0.984 . S
H741 N735 0.985 . S
H742 N739 0.984 . S
H743 N739 0.985 . S
H744 N738 0.984 . S
H745 N738 0.984 . S
H746 N734 0.984 . S
H747 N734 0.985 . S
C748 C749 1.363 . S
C748 C754 1.379 1_455 S
C748 N756 1.356 . S
C749 C748 1.363 . S
C749 C755 1.363 . S
C750 C751 1.363 . S
C750 C755 1.379 1_655 S
C750 N757 1.356 . S
C751 C750 1.363 . S
C751 C754 1.363 . S
N752 C754 1.356 . S
N752 H764 0.984 . S
N752 H765 0.985 . S
N753 C755 1.356 . S
N753 H758 0.984 . S
N753 H759 0.985 . S
C754 C748 1.379 1_655 S
C754 C751 1.363 . S
C754 N752 1.356 . S
C755 C749 1.363 . S
C755 C750 1.379 1_455 S
C755 N753 1.356 . S
N756 C748 1.356 . S
N756 H762 0.984 . S
N756 H763 0.984 . S
N757 C750 1.356 . S
N757 H760 0.984 . S
N757 H761 0.985 . S
H758 N753 0.984 . S
H759 N753 0.985 . S
H760 N757 0.984 . S
H761 N757 0.985 . S
H762 N756 0.984 . S
H763 N756 0.984 . S
H764 N752 0.984 . S
H765 N752 0.985 . S
C766 C767 1.363 . S
C766 C772 1.379 . S
C766 N774 1.356 . S
C767 C766 1.363 . S
C767 C773 1.363 1_455 S
C768 C769 1.363 . S
C768 C773 1.379 . S
C768 N775 1.356 . S
C769 C768 1.363 . S
C769 C772 1.363 1_655 S
N770 C772 1.356 . S
N770 H782 0.984 . S
N770 H783 0.985 1_455 S
N771 C773 1.356 . S
N771 H776 0.984 1_655 S
N771 H777 0.985 . S
C772 C766 1.379 . S
C772 C769 1.363 1_455 S
C772 N770 1.356 . S
C773 C767 1.363 1_655 S
C773 C768 1.379 . S
C773 N771 1.356 . S
N774 C766 1.356 . S
N774 H780 0.984 . S
N774 H781 0.984 . S
N775 C768 1.356 . S
N775 H778 0.984 . S
N775 H779 0.985 . S
H776 N771 0.984 1_455 S
H777 N771 0.985 . S
H778 N775 0.984 . S
H779 N775 0.985 . S
H780 N774 0.984 . S
H781 N774 0.984 . S
H782 N770 0.984 . S
H783 N770 0.985 1_655 S
C784 C785 1.363 1_554 S
C784 C790 1.379 . S
C784 N792 1.356 . S
C785 C784 1.363 1_556 S
C785 C791 1.363 1_565 S
C786 C787 1.363 1_556 S
C786 C791 1.379 . S
C786 N793 1.356 . S
C787 C786 1.363 1_554 S
C787 C790 1.363 1_545 S
N788 C790 1.356 . S
N788 H800 0.984 . S
N788 H801 0.985 . S
N789 C791 1.356 . S
N789 H794 0.984 . S
N789 H795 0.985 . S
C790 C784 1.379 . S
C790 C787 1.363 1_565 S
C790 N788 1.356 . S
C791 C785 1.363 1_545 S
C791 C786 1.379 . S
C791 N789 1.356 . S
N792 C784 1.356 . S
N792 H798 0.984 . S
N792 H799 0.984 . S
N793 C786 1.356 . S
N793 H796 0.984 . S
N793 H797 0.985 . S
H794 N789 0.984 . S
H795 N789 0.985 . S
H796 N793 0.984 . S
H797 N793 0.985 . S
H798 N792 0.984 . S
H799 N792 0.984 . S
H800 N788 0.984 . S
H801 N788 0.985 . S
C802 C803 1.363 . S
C802 C808 1.379 . S
C802 N810 1.356 . S
C803 C802 1.363 . S
C803 C809 1.363 . S
C804 C805 1.363 . S
C804 C809 1.379 . S
C804 N811 1.356 . S
C805 C804 1.363 . S
C805 C808 1.363 . S
N806 C808 1.356 . S
N806 H818 0.984 . S
N806 H819 0.985 . S
N807 C809 1.356 . S
N807 H812 0.984 . S
N807 H813 0.985 . S
C808 C802 1.379 . S
C808 C805 1.363 . S
C808 N806 1.356 . S
C809 C803 1.363 . S
C809 C804 1.379 . S
C809 N807 1.356 . S
N810 C802 1.356 . S
N810 H816 0.984 . S
N810 H817 0.984 . S
N811 C804 1.356 . S
N811 H814 0.984 . S
N811 H815 0.985 . S
H812 N807 0.984 . S
H813 N807 0.985 . S
H814 N811 0.984 . S
H815 N811 0.985 . S
H816 N810 0.984 . S
H817 N810 0.984 . S
H818 N806 0.984 . S
H819 N806 0.985 . S
C820 C821 1.363 1_565 S
C820 C826 1.379 1_455 S
C820 N828 1.356 . S
C821 C820 1.363 1_545 S
C821 C827 1.363 . S
C822 C823 1.363 1_545 S
C822 C827 1.379 1_655 S
C822 N829 1.356 . S
C823 C822 1.363 1_565 S
C823 C826 1.363 . S
N824 C826 1.356 . S
N824 H836 0.981 1_655 S
N824 H837 0.985 . S
N825 C827 1.356 . S
N825 H830 0.984 . S
N825 H831 0.981 1_455 S
C826 C820 1.379 1_655 S
C826 C823 1.363 . S
C826 N824 1.356 . S
C827 C821 1.363 . S
C827 C822 1.379 1_455 S
C827 N825 1.356 . S
N828 C820 1.356 . S
N828 H834 0.984 . S
N828 H835 0.984 1_565 S
N829 C822 1.356 . S
N829 H832 0.984 1_545 S
N829 H833 0.985 . S
H830 N825 0.984 . S
H831 N825 0.981 1_655 S
H832 N829 0.984 1_565 S
H833 N829 0.985 . S
H834 N828 0.984 . S
H835 N828 0.984 1_545 S
H836 N824 0.981 1_455 S
H837 N824 0.985 . S
C838 C839 1.363 . S
C838 C844 1.379 . S
C838 N846 1.356 . S
C839 C838 1.363 . S
C839 C845 1.363 . S
C840 C841 1.363 . S
C840 C845 1.379 . S
C840 N847 1.356 . S
C841 C840 1.363 . S
C841 C844 1.363 . S
N842 C844 1.356 . S
N842 H854 0.984 . S
N842 H855 0.985 . S
N843 C845 1.356 . S
N843 H848 0.984 . S
N843 H849 0.985 . S
C844 C838 1.379 . S
C844 C841 1.363 . S
C844 N842 1.356 . S
C845 C839 1.363 . S
C845 C840 1.379 . S
C845 N843 1.356 . S
N846 C838 1.356 . S
N846 H852 0.984 . S
N846 H853 0.984 . S
N847 C840 1.356 . S
N847 H850 0.984 . S
N847 H851 0.985 . S
H848 N843 0.984 . S
H849 N843 0.985 . S
H850 N847 0.984 . S
H851 N847 0.985 . S
H852 N846 0.984 . S
H853 N846 0.984 . S
H854 N842 0.984 . S
H855 N842 0.985 . S
C856 C857 1.363 . S
C856 C862 1.379 . S
C856 N864 1.356 . S
C857 C856 1.363 . S
C857 C863 1.363 . S
C858 C859 1.363 . S
C858 C863 1.379 . S
C858 N865 1.356 . S
C859 C858 1.363 . S
C859 C862 1.363 . S
N860 C862 1.356 . S
N860 H872 0.984 . S
N860 H873 0.985 . S
N861 C863 1.356 . S
N861 H866 0.984 . S
N861 H867 0.985 . S
C862 C856 1.379 . S
C862 C859 1.363 . S
C862 N860 1.356 . S
C863 C857 1.363 . S
C863 C858 1.379 . S
C863 N861 1.356 . S
N864 C856 1.356 . S
N864 H870 0.984 . S
N864 H871 0.984 . S
N865 C858 1.356 . S
N865 H868 0.984 . S
N865 H869 0.985 . S
H866 N861 0.984 . S
H867 N861 0.985 . S
H868 N865 0.984 . S
H869 N865 0.985 . S
H870 N864 0.984 . S
H871 N864 0.984 . S
H872 N860 0.984 . S
H873 N860 0.985 . S
C874 C875 1.363 . S
C874 C880 1.379 . S
C874 N882 1.356 . S
C875 C874 1.363 . S
C875 C881 1.363 . S
C876 C877 1.363 . S
C876 C881 1.379 . S
C876 N883 1.356 . S
C877 C876 1.363 . S
C877 C880 1.363 . S
N878 C880 1.356 . S
N878 H890 0.984 . S
N878 H891 0.985 . S
N879 C881 1.356 . S
N879 H884 0.984 . S
N879 H885 0.985 . S
C880 C874 1.379 . S
C880 C877 1.363 . S
C880 N878 1.356 . S
C881 C875 1.363 . S
C881 C876 1.379 . S
C881 N879 1.356 . S
N882 C874 1.356 . S
N882 H888 0.984 . S
N882 H889 0.984 . S
N883 C876 1.356 . S
N883 H886 0.984 . S
N883 H887 0.985 . S
H884 N879 0.984 . S
H885 N879 0.985 . S
H886 N883 0.984 . S
H887 N883 0.985 . S
H888 N882 0.984 . S
H889 N882 0.984 . S
H890 N878 0.984 . S
H891 N878 0.985 . S
C892 C893 1.363 . S
C892 C898 1.379 1_455 S
C892 N900 1.356 . S
C893 C892 1.363 . S
C893 C899 1.363 . S
C894 C895 1.363 . S
C894 C899 1.379 1_655 S
C894 N901 1.356 . S
C895 C894 1.363 . S
C895 C898 1.363 . S
N896 C898 1.356 . S
N896 H908 0.984 . S
N896 H909 0.985 . S
N897 C899 1.356 . S
N897 H902 0.984 . S
N897 H903 0.985 . S
C898 C892 1.379 1_655 S
C898 C895 1.363 . S
C898 N896 1.356 . S
C899 C893 1.363 . S
C899 C894 1.379 1_455 S
C899 N897 1.356 . S
N900 C892 1.356 . S
N900 H906 0.984 . S
N900 H907 0.984 . S
N901 C894 1.356 . S
N901 H904 0.984 . S
N901 H905 0.985 . S
H902 N897 0.984 . S
H903 N897 0.985 . S
H904 N901 0.984 . S
H905 N901 0.985 . S
H906 N900 0.984 . S
H907 N900 0.984 . S
H908 N896 0.984 . S
H909 N896 0.985 . S
C910 C911 1.363 1_554 S
C910 C916 1.379 . S
C910 N918 1.356 . S
C911 C910 1.363 1_556 S
C911 C917 1.363 . S
C912 C913 1.363 1_556 S
C912 C917 1.379 . S
C912 N919 1.356 . S
C913 C912 1.363 1_554 S
C913 C916 1.363 . S
N914 C916 1.356 . S
N914 H926 0.984 . S
N914 H927 0.985 . S
N915 C917 1.356 . S
N915 H920 0.984 . S
N915 H921 0.985 . S
C916 C910 1.379 . S
C916 C913 1.363 . S
C916 N914 1.356 . S
C917 C911 1.363 . S
C917 C912 1.379 . S
C917 N915 1.356 . S
N918 C910 1.356 . S
N918 H924 0.984 . S
N918 H925 0.984 . S
N919 C912 1.356 . S
N919 H922 0.984 . S
N919 H923 0.985 . S
H920 N915 0.984 . S
H921 N915 0.985 . S
H922 N919 0.984 . S
H923 N919 0.985 . S
H924 N918 0.984 . S
H925 N918 0.984 . S
H926 N914 0.984 . S
H927 N914 0.985 . S
C928 C929 1.363 . S
C928 C934 1.379 . S
C928 N936 1.356 . S
C929 C928 1.363 . S
C929 C935 1.363 . S
C930 C931 1.363 . S
C930 C935 1.379 . S
C930 N937 1.356 . S
C931 C930 1.363 . S
C931 C934 1.363 . S
N932 C934 1.356 . S
N932 H944 0.984 . S
N932 H945 0.985 . S
N933 C935 1.356 . S
N933 H938 0.984 . S
N933 H939 0.985 . S
C934 C928 1.379 . S
C934 C931 1.363 . S
C934 N932 1.356 . S
C935 C929 1.363 . S
C935 C930 1.379 . S
C935 N933 1.356 . S
N936 C928 1.356 . S
N936 H942 0.984 . S
N936 H943 0.984 . S
N937 C930 1.356 . S
N937 H940 0.984 . S
N937 H941 0.985 . S
H938 N933 0.984 . S
H939 N933 0.985 . S
H940 N937 0.984 . S
H941 N937 0.985 . S
H942 N936 0.984 . S
H943 N936 0.984 . S
H944 N932 0.984 . S
H945 N932 0.985 . S
C946 C947 1.363 . S
C946 C952 1.379 . S
C946 N954 1.356 . S
C947 C946 1.363 . S
C947 C953 1.363 . S
C948 C949 1.363 . S
C948 C953 1.379 . S
C948 N955 1.356 . S
C949 C948 1.363 . S
C949 C952 1.363 . S
N950 C952 1.356 . S
N950 H962 0.984 . S
N950 H963 0.985 . S
N951 C953 1.356 . S
N951 H956 0.984 . S
N951 H957 0.985 . S
C952 C946 1.379 . S
C952 C949 1.363 . S
C952 N950 1.356 . S
C953 C947 1.363 . S
C953 C948 1.379 . S
C953 N951 1.356 . S
N954 C946 1.356 . S
N954 H960 0.984 . S
N954 H961 0.984 . S
N955 C948 1.356 . S
N955 H958 0.984 . S
N955 H959 0.985 . S
H956 N951 0.984 . S
H957 N951 0.985 . S
H958 N955 0.984 . S
H959 N955 0.985 . S
H960 N954 0.984 . S
H961 N954 0.984 . S
H962 N950 0.984 . S
H963 N950 0.985 . S
C964 C965 1.363 . S
C964 C970 1.379 . S
C964 N972 1.356 . S
C965 C964 1.363 . S
C965 C971 1.363 . S
C966 C967 1.363 . S
C966 C971 1.379 . S
C966 N973 1.356 . S
C967 C966 1.363 . S
C967 C970 1.363 . S
N968 C970 1.356 . S
N968 H980 0.984 . S
N968 H981 0.985 . S
N969 C971 1.356 . S
N969 H974 0.984 . S
N969 H975 0.985 . S
C970 C964 1.379 . S
C970 C967 1.363 . S
C970 N968 1.356 . S
C971 C965 1.363 . S
C971 C966 1.379 . S
C971 N969 1.356 . S
N972 C964 1.356 . S
N972 H978 0.984 . S
N972 H979 0.984 . S
N973 C966 1.356 . S
N973 H976 0.984 . S
N973 H977 0.985 . S
H974 N969 0.984 . S
H975 N969 0.985 . S
H976 N973 0.984 . S
H977 N973 0.985 . S
H978 N972 0.984 . S
H979 N972 0.984 . S
H980 N968 0.984 . S
H981 N968 0.985 . S
C982 C983 1.363 . S
C982 C988 1.379 . S
C982 N990 1.356 . S
C983 C982 1.363 . S
C983 C989 1.363 . S
C984 C985 1.363 . S
C984 C989 1.379 . S
C984 N991 1.356 . S
C985 C984 1.363 . S
C985 C988 1.363 . S
N986 C988 1.356 . S
N986 H998 0.984 . S
N986 H999 0.985 . S
N987 C989 1.356 . S
N987 H992 0.984 . S
N987 H993 0.985 . S
C988 C982 1.379 . S
C988 C985 1.363 . S
C988 N986 1.356 . S
C989 C983 1.363 . S
C989 C984 1.379 . S
C989 N987 1.356 . S
N990 C982 1.356 . S
N990 H996 0.984 . S
N990 H997 0.984 . S
N991 C984 1.356 . S
N991 H994 0.984 . S
N991 H995 0.985 . S
H992 N987 0.984 . S
H993 N987 0.985 . S
H994 N991 0.984 . S
H995 N991 0.985 . S
H996 N990 0.984 . S
H997 N990 0.984 . S
H998 N986 0.984 . S
H999 N986 0.985 . S
C1000 C1001 1.363 . S
C1000 C1006 1.379 . S
C1000 N1008 1.356 . S
C1001 C1000 1.363 . S
C1001 C1007 1.363 . S
C1002 C1003 1.363 . S
C1002 C1007 1.379 . S
C1002 N1009 1.356 . S
C1003 C1002 1.363 . S
C1003 C1006 1.363 . S
N1004 C1006 1.356 . S
N1004 H1016 0.984 . S
N1004 H1017 0.985 . S
N1005 C1007 1.356 . S
N1005 H1010 0.984 . S
N1005 H1011 0.985 . S
C1006 C1000 1.379 . S
C1006 C1003 1.363 . S
C1006 N1004 1.356 . S
C1007 C1001 1.363 . S
C1007 C1002 1.379 . S
C1007 N1005 1.356 . S
N1008 C1000 1.356 . S
N1008 H1014 0.984 . S
N1008 H1015 0.984 . S
N1009 C1002 1.356 . S
N1009 H1012 0.984 . S
N1009 H1013 0.985 . S
H1010 N1005 0.984 . S
H1011 N1005 0.985 . S
H1012 N1009 0.984 . S
H1013 N1009 0.985 . S
H1014 N1008 0.984 . S
H1015 N1008 0.984 . S
H1016 N1004 0.984 . S
H1017 N1004 0.985 . S
C1018 C1019 1.363 . S
C1018 C1024 1.379 . S
C1018 N1026 1.356 . S
C1019 C1018 1.363 . S
C1019 C1025 1.363 . S
C1020 C1021 1.363 . S
C1020 C1025 1.379 . S
C1020 N1027 1.356 . S
C1021 C1020 1.363 . S
C1021 C1024 1.363 . S
N1022 C1024 1.356 . S
N1022 H1034 0.984 . S
N1022 H1035 0.985 . S
N1023 C1025 1.356 . S
N1023 H1028 0.984 . S
N1023 H1029 0.985 . S
C1024 C1018 1.379 . S
C1024 C1021 1.363 . S
C1024 N1022 1.356 . S
C1025 C1019 1.363 . S
C1025 C1020 1.379 . S
C1025 N1023 1.356 . S
N1026 C1018 1.356 . S
N1026 H1032 0.984 . S
N1026 H1033 0.984 . S
N1027 C1020 1.356 . S
N1027 H1030 0.984 . S
N1027 H1031 0.985 . S
H1028 N1023 0.984 . S
H1029 N1023 0.985 . S
H1030 N1027 0.984 . S
H1031 N1027 0.985 . S
H1032 N1026 0.984 . S
H1033 N1026 0.984 . S
H1034 N1022 0.984 . S
H1035 N1022 0.985 . S
C1036 C1037 1.363 . S
C1036 C1042 1.379 . S
C1036 N1044 1.356 . S
C1037 C1036 1.363 . S
C1037 C1043 1.363 . S
C1038 C1039 1.363 . S
C1038 C1043 1.379 . S
C1038 N1045 1.356 . S
C1039 C1038 1.363 . S
C1039 C1042 1.363 . S
N1040 C1042 1.356 . S
N1040 H1052 0.984 . S
N1040 H1053 0.985 . S
N1041 C1043 1.356 . S
N1041 H1046 0.984 . S
N1041 H1047 0.985 . S
C1042 C1036 1.379 . S
C1042 C1039 1.363 . S
C1042 N1040 1.356 . S
C1043 C1037 1.363 . S
C1043 C1038 1.379 . S
C1043 N1041 1.356 . S
N1044 C1036 1.356 . S
N1044 H1050 0.984 . S
N1044 H1051 0.984 . S
N1045 C1038 1.356 . S
N1045 H1048 0.984 . S
N1045 H1049 0.985 . S
H1046 N1041 0.984 . S
H1047 N1041 0.985 . S
H1048 N1045 0.984 . S
H1049 N1045 0.985 . S
H1050 N1044 0.984 . S
H1051 N1044 0.984 . S
H1052 N1040 0.984 . S
H1053 N1040 0.985 . S
C1054 C1055 1.363 . S
C1054 C1060 1.379 . S
C1054 N1062 1.356 . S
C1055 C1054 1.363 . S
C1055 C1061 1.363 . S
C1056 C1057 1.363 . S
C1056 C1061 1.379 . S
C1056 N1063 1.356 . S
C1057 C1056 1.363 . S
C1057 C1060 1.363 . S
N1058 C1060 1.356 . S
N1058 H1070 0.984 . S
N1058 H1071 0.985 . S
N1059 C1061 1.356 . S
N1059 H1064 0.984 . S
N1059 H1065 0.985 . S
C1060 C1054 1.379 . S
C1060 C1057 1.363 . S
C1060 N1058 1.356 . S
C1061 C1055 1.363 . S
C1061 C1056 1.379 . S
C1061 N1059 1.356 . S
N1062 C1054 1.356 . S
N1062 H1068 0.984 . S
N1062 H1069 0.984 . S
N1063 C1056 1.356 . S
N1063 H1066 0.984 . S
N1063 H1067 0.985 . S
H1064 N1059 0.984 . S
H1065 N1059 0.985 . S
H1066 N1063 0.984 . S
H1067 N1063 0.985 . S
H1068 N1062 0.984 . S
H1069 N1062 0.984 . S
H1070 N1058 0.984 . S
H1071 N1058 0.985 . S
C1072 C1073 1.363 . S
C1072 C1078 1.379 . S
C1072 N1080 1.356 . S
C1073 C1072 1.363 . S
C1073 C1079 1.363 . S
C1074 C1075 1.363 . S
C1074 C1079 1.379 . S
C1074 N1081 1.356 . S
C1075 C1074 1.363 . S
C1075 C1078 1.363 . S
N1076 C1078 1.356 . S
N1076 H1088 0.984 . S
N1076 H1089 0.985 . S
N1077 C1079 1.356 . S
N1077 H1082 0.984 . S
N1077 H1083 0.985 . S
C1078 C1072 1.379 . S
C1078 C1075 1.363 . S
C1078 N1076 1.356 . S
C1079 C1073 1.363 . S
C1079 C1074 1.379 . S
C1079 N1077 1.356 . S
N1080 C1072 1.356 . S
N1080 H1086 0.984 . S
N1080 H1087 0.984 . S
N1081 C1074 1.356 . S
N1081 H1084 0.984 . S
N1081 H1085 0.985 . S
H1082 N1077 0.984 . S
H1083 N1077 0.985 . S
H1084 N1081 0.984 . S
H1085 N1081 0.985 . S
H1086 N1080 0.984 . S
H1087 N1080 0.984 . S
H1088 N1076 0.984 . S
H1089 N1076 0.985 . S
C1090 C1091 1.363 . S
C1090 C1096 1.379 . S
C1090 N1098 1.356 . S
C1091 C1090 1.363 . S
C1091 C1097 1.363 . S
C1092 C1093 1.363 . S
C1092 C1097 1.379 . S
C1092 N1099 1.356 . S
C1093 C1092 1.363 . S
C1093 C1096 1.363 . S
N1094 C1096 1.356 . S
N1094 H1106 0.984 . S
N1094 H1107 0.985 . S
N1095 C1097 1.356 . S
N1095 H1100 0.984 . S
N1095 H1101 0.985 . S
C1096 C1090 1.379 . S
C1096 C1093 1.363 . S
C1096 N1094 1.356 . S
C1097 C1091 1.363 . S
C1097 C1092 1.379 . S
C1097 N1095 1.356 . S
N1098 C1090 1.356 . S
N1098 H1104 0.984 . S
N1098 H1105 0.984 . S
N1099 C1092 1.356 . S
N1099 H1102 0.984 . S
N1099 H1103 1.004 . S
H1100 N1095 0.984 . S
H1101 N1095 0.985 . S
H1102 N1099 0.984 . S
H1103 N1099 1.004 . S
H1104 N1098 0.984 . S
H1105 N1098 0.984 . S
H1106 N1094 0.984 . S
H1107 N1094 0.985 . S
C1108 C1109 1.363 . S
C1108 C1114 1.379 . S
C1108 N1116 1.356 . S
C1109 C1108 1.363 . S
C1109 C1115 1.363 . S
C1110 C1111 1.363 . S
C1110 C1115 1.379 . S
C1110 N1117 1.356 . S
C1111 C1110 1.363 . S
C1111 C1114 1.363 . S
N1112 C1114 1.356 . S
N1112 H1124 0.984 . S
N1112 H1125 0.985 . S
N1113 C1115 1.356 . S
N1113 H1118 0.984 . S
N1113 H1119 0.985 . S
C1114 C1108 1.379 . S
C1114 C1111 1.363 . S
C1114 N1112 1.356 . S
C1115 C1109 1.363 . S
C1115 C1110 1.379 . S
C1115 N1113 1.356 . S
N1116 C1108 1.356 . S
N1116 H1122 0.984 1_545 S
N1116 H1123 0.984 1_545 S
N1117 C1110 1.356 . S
N1117 H1120 0.984 . S
N1117 H1121 0.985 . S
H1118 N1113 0.984 . S
H1119 N1113 0.985 . S
H1120 N1117 0.984 . S
H1121 N1117 0.985 . S
H1122 N1116 0.984 1_565 S
H1123 N1116 0.984 1_565 S
H1124 N1112 0.984 . S
H1125 N1112 0.985 . S
C1126 C1127 1.363 . S
C1126 C1132 1.379 . S
C1126 N1134 1.356 . S
C1127 C1126 1.363 . S
C1127 C1133 1.363 . S
C1128 C1129 1.363 . S
C1128 C1133 1.379 . S
C1128 N1135 1.356 . S
C1129 C1128 1.363 . S
C1129 C1132 1.363 . S
N1130 C1132 1.356 . S
N1130 H1142 0.984 . S
N1130 H1143 0.985 . S
N1131 C1133 1.356 . S
N1131 H1136 0.984 . S
N1131 H1137 0.985 . S
C1132 C1126 1.379 . S
C1132 C1129 1.363 . S
C1132 N1130 1.356 . S
C1133 C1127 1.363 . S
C1133 C1128 1.379 . S
C1133 N1131 1.356 . S
N1134 C1126 1.356 . S
N1134 H1140 0.984 . S
N1134 H1141 0.984 . S
N1135 C1128 1.356 . S
N1135 H1138 0.984 . S
N1135 H1139 0.985 . S
H1136 N1131 0.984 . S
H1137 N1131 0.985 . S
H1138 N1135 0.984 . S
H1139 N1135 0.985 . S
H1140 N1134 0.984 . S
H1141 N1134 0.984 . S
H1142 N1130 0.984 . S
H1143 N1130 0.985 . S
C1144 C1145 1.363 . S
C1144 C1150 1.379 . S
C1144 N1152 1.356 . S
C1145 C1144 1.363 . S
C1145 C1151 1.363 . S
C1146 C1147 1.363 . S
C1146 C1151 1.379 . S
C1146 N1153 1.356 . S
C1147 C1146 1.363 . S
C1147 C1150 1.363 . S
N1148 C1150 1.356 . S
N1148 H1160 0.984 . S
N1148 H1161 0.985 . S
N1149 C1151 1.356 . S
N1149 H1154 0.984 . S
N1149 H1155 0.985 . S
C1150 C1144 1.379 . S
C1150 C1147 1.363 . S
C1150 N1148 1.356 . S
C1151 C1145 1.363 . S
C1151 C1146 1.379 . S
C1151 N1149 1.356 . S
N1152 C1144 1.356 . S
N1152 H1158 0.984 . S
N1152 H1159 0.984 . S
N1153 C1146 1.356 . S
N1153 H1156 0.984 . S
N1153 H1157 0.985 . S
H1154 N1149 0.984 . S
H1155 N1149 0.985 . S
H1156 N1153 0.984 . S
H1157 N1153 0.985 . S
H1158 N1152 0.984 . S
H1159 N1152 0.984 . S
H1160 N1148 0.984 . S
H1161 N1148 0.985 . S
C1162 C1163 1.363 . S
C1162 C1168 1.379 . S
C1162 N1170 1.356 . S
C1163 C1162 1.363 . S
C1163 C1169 1.363 . S
C1164 C1165 1.363 . S
C1164 C1169 1.379 . S
C1164 N1171 1.356 . S
C1165 C1164 1.363 . S
C1165 C1168 1.363 . S
N1166 C1168 1.356 . S
N1166 H1178 0.984 . S
N1166 H1179 0.985 . S
N1167 C1169 1.356 . S
N1167 H1172 0.984 . S
N1167 H1173 0.985 . S
C1168 C1162 1.379 . S
C1168 C1165 1.363 . S
C1168 N1166 1.356 . S
C1169 C1163 1.363 . S
C1169 C1164 1.379 . S
C1169 N1167 1.356 . S
N1170 C1162 1.356 . S
N1170 H1176 0.984 . S
N1170 H1177 0.984 . S
N1171 C1164 1.356 . S
N1171 H1174 0.984 . S
N1171 H1175 0.985 . S
H1172 N1167 0.984 . S
H1173 N1167 0.985 . S
H1174 N1171 0.984 . S
H1175 N1171 0.985 . S
H1176 N1170 0.984 . S
H1177 N1170 0.984 . S
H1178 N1166 0.984 . S
H1179 N1166 0.985 . S
C1180 C1181 1.363 . S
C1180 C1186 1.379 . S
C1180 N1188 1.356 . S
C1181 C1180 1.363 . S
C1181 C1187 1.363 . S
C1182 C1183 1.363 . S
C1182 C1187 1.379 . S
C1182 N1189 1.356 . S
C1183 C1182 1.363 . S
C1183 C1186 1.363 . S
N1184 C1186 1.356 . S
N1184 H1196 0.984 . S
N1184 H1197 0.985 . S
N1185 C1187 1.356 . S
N1185 H1190 0.984 . S
N1185 H1191 0.985 . S
C1186 C1180 1.379 . S
C1186 C1183 1.363 . S
C1186 N1184 1.356 . S
C1187 C1181 1.363 . S
C1187 C1182 1.379 . S
C1187 N1185 1.356 . S
N1188 C1180 1.356 . S
N1188 H1194 0.984 1_565 S
N1188 H1195 0.984 1_565 S
N1189 C1182 1.356 . S
N1189 H1192 0.984 . S
N1189 H1193 0.985 . S
H1190 N1185 0.984 . S
H1191 N1185 0.985 . S
H1192 N1189 0.984 . S
H1193 N1189 0.985 . S
H1194 N1188 0.984 1_545 S
H1195 N1188 0.984 1_545 S
H1196 N1184 0.984 . S
H1197 N1184 0.985 . S
C1198 C1199 1.363 . S
C1198 C1204 1.379 . S
C1198 N1206 1.356 . S
C1199 C1198 1.363 . S
C1199 C1205 1.363 . S
C1200 C1201 1.363 . S
C1200 C1205 1.379 . S
C1200 N1207 1.356 . S
C1201 C1200 1.363 . S
C1201 C1204 1.363 . S
N1202 C1204 1.356 . S
N1202 H1214 0.984 . S
N1202 H1215 0.985 . S
N1203 C1205 1.356 . S
N1203 H1208 0.984 . S
N1203 H1209 0.985 . S
C1204 C1198 1.379 . S
C1204 C1201 1.363 . S
C1204 N1202 1.356 . S
C1205 C1199 1.363 . S
C1205 C1200 1.379 . S
C1205 N1203 1.356 . S
N1206 C1198 1.356 . S
N1206 H1212 0.984 . S
N1206 H1213 0.984 . S
N1207 C1200 1.356 . S
N1207 H1210 0.984 . S
N1207 H1211 0.985 . S
H1208 N1203 0.984 . S
H1209 N1203 0.985 . S
H1210 N1207 0.984 . S
H1211 N1207 0.985 . S
H1212 N1206 0.984 . S
H1213 N1206 0.984 . S
H1214 N1202 0.984 . S
H1215 N1202 0.985 . S
C1216 C1217 1.363 . S
C1216 C1222 1.379 . S
C1216 N1224 1.356 . S
C1217 C1216 1.363 . S
C1217 C1223 1.363 . S
C1218 C1219 1.363 . S
C1218 C1223 1.379 . S
C1218 N1225 1.356 . S
C1219 C1218 1.363 . S
C1219 C1222 1.363 . S
N1220 C1222 1.356 . S
N1220 H1232 0.984 . S
N1220 H1233 0.985 . S
N1221 C1223 1.356 1_554 S
N1221 H1226 0.984 . S
N1221 H1227 0.985 . S
C1222 C1216 1.379 . S
C1222 C1219 1.363 . S
C1222 N1220 1.356 . S
C1223 C1217 1.363 . S
C1223 C1218 1.379 . S
C1223 N1221 1.356 1_556 S
N1224 C1216 1.356 . S
N1224 H1230 0.984 . S
N1224 H1231 1.013 . S
N1225 C1218 1.356 . S
N1225 H1228 0.984 . S
N1225 H1229 0.985 . S
H1226 N1221 0.984 . S
H1227 N1221 0.985 . S
H1228 N1225 0.984 . S
H1229 N1225 0.985 . S
H1230 N1224 0.984 . S
H1231 N1224 1.013 . S
H1232 N1220 0.984 . S
H1233 N1220 0.985 . S
C1234 C1235 1.363 . S
C1234 C1240 1.379 . S
C1234 N1242 1.356 . S
C1235 C1234 1.363 . S
C1235 C1241 1.363 . S
C1236 C1237 1.363 . S
C1236 C1241 1.379 . S
C1236 N1243 1.356 . S
C1237 C1236 1.363 . S
C1237 C1240 1.363 . S
N1238 C1240 1.356 . S
N1238 H1250 0.984 . S
N1238 H1251 0.985 . S
N1239 C1241 1.356 . S
N1239 H1244 0.984 . S
N1239 H1245 0.985 . S
C1240 C1234 1.379 . S
C1240 C1237 1.363 . S
C1240 N1238 1.356 . S
C1241 C1235 1.363 . S
C1241 C1236 1.379 . S
C1241 N1239 1.356 . S
N1242 C1234 1.356 . S
N1242 H1248 0.984 . S
N1242 H1249 0.984 . S
N1243 C1236 1.356 . S
N1243 H1246 0.984 . S
N1243 H1247 0.985 . S
H1244 N1239 0.984 . S
H1245 N1239 0.985 . S
H1246 N1243 0.984 . S
H1247 N1243 0.985 . S
H1248 N1242 0.984 . S
H1249 N1242 0.984 . S
H1250 N1238 0.984 . S
H1251 N1238 0.985 . S
C1252 C1253 1.363 . S
C1252 C1258 1.379 . S
C1252 N1260 1.356 . S
C1253 C1252 1.363 . S
C1253 C1259 1.363 . S
C1254 C1255 1.363 . S
C1254 C1259 1.379 . S
C1254 N1261 1.356 . S
C1255 C1254 1.363 . S
C1255 C1258 1.363 . S
N1256 C1258 1.356 . S
N1256 H1268 0.984 . S
N1256 H1269 0.985 . S
N1257 C1259 1.356 . S
N1257 H1262 0.984 . S
N1257 H1263 0.985 . S
C1258 C1252 1.379 . S
C1258 C1255 1.363 . S
C1258 N1256 1.356 . S
C1259 C1253 1.363 . S
C1259 C1254 1.379 . S
C1259 N1257 1.356 . S
N1260 C1252 1.356 . S
N1260 H1266 0.984 . S
N1260 H1267 0.984 . S
N1261 C1254 1.356 . S
N1261 H1264 0.984 . S
N1261 H1265 0.985 . S
H1262 N1257 0.984 . S
H1263 N1257 0.985 . S
H1264 N1261 0.984 . S
H1265 N1261 0.985 . S
H1266 N1260 0.984 . S
H1267 N1260 0.984 . S
H1268 N1256 0.984 . S
H1269 N1256 0.985 . S
C1270 C1271 1.363 . S
C1270 C1276 1.379 . S
C1270 N1278 1.356 . S
C1271 C1270 1.363 . S
C1271 C1277 1.363 . S
C1272 C1273 1.363 . S
C1272 C1277 1.379 . S
C1272 N1279 1.356 . S
C1273 C1272 1.363 . S
C1273 C1276 1.363 . S
N1274 C1276 1.356 . S
N1274 H1286 0.984 . S
N1274 H1287 0.985 . S
N1275 C1277 1.356 . S
N1275 H1280 0.984 . S
N1275 H1281 0.985 . S
C1276 C1270 1.379 . S
C1276 C1273 1.363 . S
C1276 N1274 1.356 . S
C1277 C1271 1.363 . S
C1277 C1272 1.379 . S
C1277 N1275 1.356 . S
N1278 C1270 1.356 . S
N1278 H1284 0.984 . S
N1278 H1285 0.984 . S
N1279 C1272 1.356 . S
N1279 H1282 0.984 . S
N1279 H1283 0.985 . S
H1280 N1275 0.984 . S
H1281 N1275 0.985 . S
H1282 N1279 0.984 . S
H1283 N1279 0.985 . S
H1284 N1278 0.984 . S
H1285 N1278 0.984 . S
H1286 N1274 0.984 . S
H1287 N1274 0.985 . S
C1288 C1289 1.363 . S
C1288 C1294 1.379 . S
C1288 N1296 1.356 . S
C1289 C1288 1.363 . S
C1289 C1295 1.363 . S
C1290 C1291 1.363 . S
C1290 C1295 1.379 . S
C1290 N1297 1.356 . S
C1291 C1290 1.363 . S
C1291 C1294 1.363 . S
N1292 C1294 1.349 1_556 S
N1292 H1304 0.983 1_556 S
N1292 H1305 0.993 . S
N1293 C1295 1.356 . S
N1293 H1298 0.984 . S
N1293 H1299 0.985 . S
C1294 C1288 1.379 . S
C1294 C1291 1.363 . S
C1294 N1292 1.349 1_554 S
C1295 C1289 1.363 . S
C1295 C1290 1.379 . S
C1295 N1293 1.356 . S
N1296 C1288 1.356 . S
N1296 H1302 0.984 . S
N1296 H1303 0.984 . S
N1297 C1290 1.356 . S
N1297 H1300 0.984 1_554 S
N1297 H1301 0.985 . S
H1298 N1293 0.984 . S
H1299 N1293 0.985 . S
H1300 N1297 0.984 1_556 S
H1301 N1297 0.985 . S
H1302 N1296 0.984 . S
H1303 N1296 0.984 . S
H1304 N1292 0.983 1_554 S
H1305 N1292 0.993 . S
C1306 C1307 1.363 . S
C1306 C1312 1.379 . S
C1306 N1314 1.356 . S
C1307 C1306 1.363 . S
C1307 C1313 1.363 . S
C1308 C1309 1.363 . S
C1308 C1313 1.379 . S
C1308 N1315 1.356 . S
C1309 C1308 1.363 . S
C1309 C1312 1.363 . S
N1310 C1312 1.356 . S
N1310 H1322 0.984 . S
N1310 H1323 0.985 . S
N1311 C1313 1.356 . S
N1311 H1316 0.984 . S
N1311 H1317 0.985 . S
C1312 C1306 1.379 . S
C1312 C1309 1.363 . S
C1312 N1310 1.356 . S
C1313 C1307 1.363 . S
C1313 C1308 1.379 . S
C1313 N1311 1.356 . S
N1314 C1306 1.356 . S
N1314 H1320 0.984 . S
N1314 H1321 0.984 . S
N1315 C1308 1.356 . S
N1315 H1318 0.984 . S
N1315 H1319 0.985 . S
H1316 N1311 0.984 . S
H1317 N1311 0.985 . S
H1318 N1315 0.984 . S
H1319 N1315 0.985 . S
H1320 N1314 0.984 . S
H1321 N1314 0.984 . S
H1322 N1310 0.984 . S
H1323 N1310 0.985 . S
C1324 C1325 1.363 . S
C1324 C1330 1.379 . S
C1324 N1332 1.356 . S
C1325 C1324 1.363 . S
C1325 C1331 1.363 . S
C1326 C1327 1.363 . S
C1326 C1331 1.379 . S
C1326 N1333 1.356 . S
C1327 C1326 1.363 . S
C1327 C1330 1.363 . S
N1328 C1330 1.356 . S
N1328 H1340 0.984 . S
N1328 H1341 0.985 . S
N1329 C1331 1.356 . S
N1329 H1334 0.984 . S
N1329 H1335 0.985 . S
C1330 C1324 1.379 . S
C1330 C1327 1.363 . S
C1330 N1328 1.356 . S
C1331 C1325 1.363 . S
C1331 C1326 1.379 . S
C1331 N1329 1.356 . S
N1332 C1324 1.356 . S
N1332 H1338 0.984 . S
N1332 H1339 0.984 . S
N1333 C1326 1.356 . S
N1333 H1336 0.984 . S
N1333 H1337 0.985 . S
H1334 N1329 0.984 . S
H1335 N1329 0.985 . S
H1336 N1333 0.984 . S
H1337 N1333 0.985 . S
H1338 N1332 0.984 . S
H1339 N1332 0.984 . S
H1340 N1328 0.984 . S
H1341 N1328 0.985 . S
C1342 C1343 1.363 . S
C1342 C1348 1.379 . S
C1342 N1350 1.356 . S
C1343 C1342 1.363 . S
C1343 C1349 1.363 . S
C1344 C1345 1.363 . S
C1344 C1349 1.379 . S
C1344 N1351 1.356 . S
C1345 C1344 1.363 . S
C1345 C1348 1.363 . S
N1346 C1348 1.356 . S
N1346 H1358 0.984 . S
N1346 H1359 0.985 . S
N1347 C1349 1.356 . S
N1347 H1352 0.984 . S
N1347 H1353 0.985 . S
C1348 C1342 1.379 . S
C1348 C1345 1.363 . S
C1348 N1346 1.356 . S
C1349 C1343 1.363 . S
C1349 C1344 1.379 . S
C1349 N1347 1.356 . S
N1350 C1342 1.356 . S
N1350 H1356 0.984 . S
N1350 H1357 0.984 . S
N1351 C1344 1.356 . S
N1351 H1354 0.984 . S
N1351 H1355 0.985 . S
H1352 N1347 0.984 . S
H1353 N1347 0.985 . S
H1354 N1351 0.984 . S
H1355 N1351 0.985 . S
H1356 N1350 0.984 . S
H1357 N1350 0.984 . S
H1358 N1346 0.984 . S
H1359 N1346 0.985 . S
C1360 C1361 1.363 . S
C1360 C1366 1.379 . S
C1360 N1368 1.356 . S
C1361 C1360 1.363 . S
C1361 C1367 1.363 . S
C1362 C1363 1.363 . S
C1362 C1367 1.379 . S
C1362 N1369 1.356 . S
C1363 C1362 1.363 . S
C1363 C1366 1.363 . S
N1364 C1366 1.356 . S
N1364 H1376 0.984 . S
N1364 H1377 0.985 . S
N1365 C1367 1.356 . S
N1365 H1370 0.984 . S
N1365 H1371 0.985 . S
C1366 C1360 1.379 . S
C1366 C1363 1.363 . S
C1366 N1364 1.356 . S
C1367 C1361 1.363 . S
C1367 C1362 1.379 . S
C1367 N1365 1.356 . S
N1368 C1360 1.356 . S
N1368 H1374 0.984 . S
N1368 H1375 0.984 . S
N1369 C1362 1.356 . S
N1369 H1372 0.984 . S
N1369 H1373 0.985 . S
H1370 N1365 0.984 . S
H1371 N1365 0.985 . S
H1372 N1369 0.984 . S
H1373 N1369 0.985 . S
H1374 N1368 0.984 . S
H1375 N1368 0.984 . S
H1376 N1364 0.984 . S
H1377 N1364 0.985 . S
C1378 C1379 1.363 . S
C1378 C1384 1.379 . S
C1378 N1386 1.356 . S
C1379 C1378 1.363 . S
C1379 C1385 1.363 . S
C1380 C1381 1.363 . S
C1380 C1385 1.379 . S
C1380 N1387 1.356 1_565 S
C1381 C1380 1.363 . S
C1381 C1384 1.363 . S
N1382 C1384 1.356 . S
N1382 H1394 0.984 . S
N1382 H1395 0.985 . S
N1383 C1385 1.356 . S
N1383 H1388 0.984 . S
N1383 H1389 0.985 . S
C1384 C1378 1.379 . S
C1384 C1381 1.363 . S
C1384 N1382 1.356 . S
C1385 C1379 1.363 . S
C1385 C1380 1.379 . S
C1385 N1383 1.356 . S
N1386 C1378 1.356 . S
N1386 H1392 0.984 . S
N1386 H1393 0.984 . S
N1387 C1380 1.356 1_545 S
N1387 H1390 0.984 . S
N1387 H1391 0.985 . S
H1388 N1383 0.984 . S
H1389 N1383 0.985 . S
H1390 N1387 0.984 . S
H1391 N1387 0.985 . S
H1392 N1386 0.984 . S
H1393 N1386 0.984 . S
H1394 N1382 0.984 . S
H1395 N1382 0.985 . S
C1396 C1397 1.363 . S
C1396 C1402 1.379 . S
C1396 N1404 1.356 . S
C1397 C1396 1.363 . S
C1397 C1403 1.363 . S
C1398 C1399 1.375 . S
C1398 C1403 1.412 . S
C1398 N1405 1.309 1_556 S
C1399 C1398 1.375 . S
C1399 C1402 1.363 . S
N1400 C1402 1.356 . S
N1400 H1412 0.984 . S
N1400 H1413 0.985 . S
N1401 C1403 1.356 . S
N1401 H1406 0.984 . S
N1401 H1407 0.985 . S
C1402 C1396 1.379 . S
C1402 C1399 1.363 . S
C1402 N1400 1.356 . S
C1403 C1397 1.363 . S
C1403 C1398 1.412 . S
C1403 N1401 1.356 . S
N1404 C1396 1.356 . S
N1404 H1410 0.984 . S
N1404 H1411 0.984 . S
N1405 C1398 1.309 1_554 S
N1405 H1408 0.984 . S
N1405 H1409 0.985 . S
H1406 N1401 0.984 . S
H1407 N1401 0.985 . S
H1408 N1405 0.984 . S
H1409 N1405 0.985 . S
H1410 N1404 0.984 . S
H1411 N1404 0.984 . S
H1412 N1400 0.984 . S
H1413 N1400 0.985 . S
C1414 C1415 1.363 . S
C1414 C1420 1.379 . S
C1414 N1422 1.356 . S
C1415 C1414 1.363 . S
C1415 C1421 1.363 . S
C1416 C1417 1.363 . S
C1416 C1421 1.379 . S
C1416 N1423 1.356 . S
C1417 C1416 1.363 . S
C1417 C1420 1.363 . S
N1418 C1420 1.356 . S
N1418 H1430 0.984 . S
N1418 H1431 0.985 . S
N1419 C1421 1.351 1_565 S
N1419 H1424 0.989 . S
N1419 H1425 0.986 . S
C1420 C1414 1.379 . S
C1420 C1417 1.363 . S
C1420 N1418 1.356 . S
C1421 C1415 1.363 . S
C1421 C1416 1.379 . S
C1421 N1419 1.351 1_545 S
N1422 C1414 1.356 . S
N1422 H1428 0.984 . S
N1422 H1429 0.984 . S
N1423 C1416 1.356 . S
N1423 H1426 0.984 . S
N1423 H1427 0.985 . S
H1424 N1419 0.989 . S
H1425 N1419 0.986 . S
H1426 N1423 0.984 . S
H1427 N1423 0.985 . S
H1428 N1422 0.984 . S
H1429 N1422 0.984 . S
H1430 N1418 0.984 . S
H1431 N1418 0.985 . S
C1432 C1433 1.363 . S
C1432 C1438 1.379 . S
C1432 N1440 1.356 . S
C1433 C1432 1.363 . S
C1433 C1439 1.363 . S
C1434 C1435 1.363 . S
C1434 C1439 1.379 . S
C1434 N1441 1.356 . S
C1435 C1434 1.363 . S
C1435 C1438 1.363 . S
N1436 C1438 1.356 . S
N1436 H1448 0.984 . S
N1436 H1449 0.985 . S
N1437 C1439 1.356 . S
N1437 H1442 0.984 . S
N1437 H1443 0.985 . S
C1438 C1432 1.379 . S
C1438 C1435 1.363 . S
C1438 N1436 1.356 . S
C1439 C1433 1.363 . S
C1439 C1434 1.379 . S
C1439 N1437 1.356 . S
N1440 C1432 1.356 . S
N1440 H1446 0.984 . S
N1440 H1447 0.984 . S
N1441 C1434 1.356 . S
N1441 H1444 0.984 . S
N1441 H1445 0.985 . S
H1442 N1437 0.984 . S
H1443 N1437 0.985 . S
H1444 N1441 0.984 . S
H1445 N1441 0.985 . S
H1446 N1440 0.984 . S
H1447 N1440 0.984 . S
H1448 N1436 0.984 . S
H1449 N1436 0.985 . S
C1450 C1451 1.363 . S
C1450 C1456 1.379 . S
C1450 N1458 1.356 . S
C1451 C1450 1.363 . S
C1451 C1457 1.363 . S
C1452 C1453 1.363 . S
C1452 C1457 1.379 . S
C1452 N1459 1.356 . S
C1453 C1452 1.363 . S
C1453 C1456 1.363 . S
N1454 C1456 1.356 1_565 S
N1454 H1466 0.984 . S
N1454 H1467 0.985 . S
N1455 C1457 1.356 . S
N1455 H1460 0.984 . S
N1455 H1461 0.985 . S
C1456 C1450 1.379 . S
C1456 C1453 1.363 . S
C1456 N1454 1.356 1_545 S
C1457 C1451 1.363 . S
C1457 C1452 1.379 . S
C1457 N1455 1.356 . S
N1458 C1450 1.356 . S
N1458 H1464 0.984 . S
N1458 H1465 0.984 . S
N1459 C1452 1.356 . S
N1459 H1462 0.984 . S
N1459 H1463 0.985 . S
H1460 N1455 0.984 . S
H1461 N1455 0.985 . S
H1462 N1459 0.984 . S
H1463 N1459 0.985 . S
H1464 N1458 0.984 . S
H1465 N1458 0.984 . S
H1466 N1454 0.984 . S
H1467 N1454 0.985 . S
C1468 C1469 1.363 . S
C1468 C1474 1.379 . S
C1468 N1476 1.356 . S
C1469 C1468 1.363 . S
C1469 C1475 1.363 . S
C1470 C1471 1.363 . S
C1470 C1475 1.379 . S
C1470 N1477 1.356 . S
C1471 C1470 1.363 . S
C1471 C1474 1.363 . S
N1472 C1474 1.356 1_556 S
N1472 H1484 0.984 . S
N1472 H1485 0.985 . S
N1473 C1475 1.356 . S
N1473 H1478 0.984 . S
N1473 H1479 0.985 . S
C1474 C1468 1.379 . S
C1474 C1471 1.363 . S
C1474 N1472 1.356 1_554 S
C1475 C1469 1.363 . S
C1475 C1470 1.379 . S
C1475 N1473 1.356 . S
N1476 C1468 1.356 . S
N1476 H1482 0.984 . S
N1476 H1483 0.984 . S
N1477 C1470 1.356 . S
N1477 H1480 0.984 1_554 S
N1477 H1481 0.985 . S
H1478 N1473 0.984 . S
H1479 N1473 0.985 . S
H1480 N1477 0.984 1_556 S
H1481 N1477 0.985 . S
H1482 N1476 0.984 . S
H1483 N1476 0.984 . S
H1484 N1472 0.984 . S
H1485 N1472 0.985 . S
C1486 C1487 1.363 . S
C1486 C1492 1.379 . S
C1486 N1494 1.356 . S
C1487 C1486 1.363 . S
C1487 C1493 1.363 . S
C1488 C1489 1.363 . S
C1488 C1493 1.379 . S
C1488 N1495 1.356 . S
C1489 C1488 1.363 . S
C1489 C1492 1.363 . S
N1490 C1492 1.356 . S
N1490 H1502 0.984 . S
N1490 H1503 0.985 . S
N1491 C1493 1.356 . S
N1491 H1496 0.984 . S
N1491 H1497 0.985 . S
C1492 C1486 1.379 . S
C1492 C1489 1.363 . S
C1492 N1490 1.356 . S
C1493 C1487 1.363 . S
C1493 C1488 1.379 . S
C1493 N1491 1.356 . S
N1494 C1486 1.356 . S
N1494 H1500 0.984 . S
N1494 H1501 0.984 . S
N1495 C1488 1.356 . S
N1495 H1498 0.984 1_565 S
N1495 H1499 0.985 . S
H1496 N1491 0.984 . S
H1497 N1491 0.985 . S
H1498 N1495 0.984 1_545 S
H1499 N1495 0.985 . S
H1500 N1494 0.984 . S
H1501 N1494 0.984 . S
H1502 N1490 0.984 . S
H1503 N1490 0.985 . S
C641 C9 3.028 . S
C643 C409 3.028 . S
C659 C49 3.028 . S
C661 C449 3.028 . S
C677 C89 3.028 . S
C679 C329 3.028 . S
C695 C369 3.028 . S
C697 C129 3.028 . S
C713 C178 3.028 . S
C715 C578 3.028 . S
C731 C618 3.028 . S
C733 C218 3.028 . S
C749 C498 3.028 . S
C751 C258 3.028 . S
C767 C298 3.028 . S
C769 C538 3.028 . S
C785 C15 1.461 1_556 S
C787 C166 1.461 1_554 S
C803 C55 1.461 . S
C805 C526 1.461 . S
C821 C95 1.461 . S
C823 C246 1.461 . S
C839 C135 1.461 . S
C841 C606 1.461 . S
C857 C206 1.461 . S
C859 C375 1.461 . S
C875 C455 1.461 . S
C877 C286 1.461 . S
C893 C486 1.461 . S
C895 C335 1.461 . S
C911 C415 1.461 1_556 S
C913 C566 1.461 1_554 S
C929 C6 1.624 . S
C931 C289 1.908 . S
C947 C46 1.624 . S
C949 C489 1.908 . S
C965 C86 1.624 . S
C967 C209 1.908 . S
C983 C126 1.624 . S
C985 C569 1.908 . S
C1001 C138 1.908 . S
C1003 C175 1.624 . S
C1019 C215 1.624 . S
C1021 C338 1.908 . S
C1037 C255 1.624 . S
C1039 C58 1.908 . S
C1055 C418 1.908 . S
C1057 C295 1.624 . S
C1073 C326 1.624 . S
C1075 C609 1.908 . S
C1091 C169 1.908 . S
C1093 C366 1.624 . S
C1109 C529 1.908 . S
C1111 C406 1.624 . S
C1127 C249 1.908 . S
C1129 C446 1.624 . S
C1145 C495 1.624 . S
C1147 C458 1.908 . S
C1163 C535 1.624 . S
C1165 C18 1.908 . S
C1181 C378 1.908 . S
C1183 C575 1.624 . S
C1199 C615 1.624 . S
C1201 C98 1.908 . S
C1217 C19 4.045 1_556 S
C1219 C370 4.109 . S
C1235 C410 4.109 . S
C1237 C59 4.045 . S
C1253 C99 4.045 . S
C1255 C450 4.109 . S
C1271 C330 4.109 . S
C1273 C139 4.045 . S
C1289 C539 4.109 . S
C1291 C170 4.045 1_554 S
C1307 C579 4.109 . S
C1309 C210 4.045 . S
C1325 C619 4.109 . S
C1327 C250 4.045 . S
C1343 C499 4.109 . S
C1345 C290 4.045 . S
C1361 C50 4.109 . S
C1363 C339 4.045 . S
C1379 C90 4.109 . S
C1381 C379 4.045 1_565 S
C1397 C130 4.109 . S
C1399 C419 4.045 1_556 S
C1415 C459 4.045 1_545 S
C1417 C10 4.109 . S
C1433 C219 4.109 . S
C1435 C490 4.045 . S
C1451 C259 4.109 . S
C1453 C530 4.045 1_545 S
C1469 C299 4.109 . S
C1471 C570 4.045 1_554 S
C1487 C179 4.109 . S
C1489 C610 4.045 1_565 S
