# Generated by pormake.
# Topology wio, (6)-cn, num edge types: 1
# Building blocks:
#     Node 0, Type 0, BuildingBlock: BETDEL_clean_sbu_0, # of connection points: 6
#     Node 1, Type 0, BuildingBlock: BETDEL_clean_sbu_0, # of connection points: 6
#     Node 2, Type 0, BuildingBlock: BETDEL_clean_sbu_0, # of connection points: 6
#     Node 3, Type 0, BuildingBlock: BETDEL_clean_sbu_0, # of connection points: 6
#     Node 4, Type 0, BuildingBlock: BETDEL_clean_sbu_0, # of connection points: 6
#     Node 5, Type 0, BuildingBlock: BETDEL_clean_sbu_0, # of connection points: 6
#     Node 6, Type 0, BuildingBlock: BETDEL_clean_sbu_0, # of connection points: 6
#     Node 7, Type 0, BuildingBlock: BETDEL_clean_sbu_0, # of connection points: 6
#     Node 8, Type 0, BuildingBlock: BETDEL_clean_sbu_0, # of connection points: 6
#     Node 9, Type 0, BuildingBlock: BETDEL_clean_sbu_0, # of connection points: 6
#     Node 10, Type 0, BuildingBlock: BETDEL_clean_sbu_0, # of connection points: 6
#     Node 11, Type 0, BuildingBlock: BETDEL_clean_sbu_0, # of connection points: 6
#     Node 12, Type 0, BuildingBlock: BETDEL_clean_sbu_0, # of connection points: 6
#     Node 13, Type 0, BuildingBlock: BETDEL_clean_sbu_0, # of connection points: 6
#     Node 14, Type 0, BuildingBlock: BETDEL_clean_sbu_0, # of connection points: 6
#     Node 15, Type 0, BuildingBlock: BETDEL_clean_sbu_0, # of connection points: 6
#     Node 16, Type 0, BuildingBlock: BETDEL_clean_sbu_0, # of connection points: 6
#     Node 17, Type 0, BuildingBlock: BETDEL_clean_sbu_0, # of connection points: 6
#     Node 18, Type 0, BuildingBlock: BETDEL_clean_sbu_0, # of connection points: 6
#     Node 19, Type 0, BuildingBlock: BETDEL_clean_sbu_0, # of connection points: 6
#     Node 20, Type 0, BuildingBlock: BETDEL_clean_sbu_0, # of connection points: 6
#     Node 21, Type 0, BuildingBlock: BETDEL_clean_sbu_0, # of connection points: 6
#     Node 22, Type 0, BuildingBlock: BETDEL_clean_sbu_0, # of connection points: 6
#     Node 23, Type 0, BuildingBlock: BETDEL_clean_sbu_0, # of connection points: 6
#     Node 24, Type 0, BuildingBlock: BETDEL_clean_sbu_0, # of connection points: 6
#     Node 25, Type 0, BuildingBlock: BETDEL_clean_sbu_0, # of connection points: 6
#     Node 26, Type 0, BuildingBlock: BETDEL_clean_sbu_0, # of connection points: 6
#     Node 27, Type 0, BuildingBlock: BETDEL_clean_sbu_0, # of connection points: 6
#     Node 28, Type 0, BuildingBlock: BETDEL_clean_sbu_0, # of connection points: 6
#     Node 29, Type 0, BuildingBlock: BETDEL_clean_sbu_0, # of connection points: 6
#     Node 30, Type 0, BuildingBlock: BETDEL_clean_sbu_0, # of connection points: 6
#     Node 31, Type 0, BuildingBlock: BETDEL_clean_sbu_0, # of connection points: 6
#     Edge 32, Type (0, 0), BuildingBlock: AJUNOK_clean_linker_0, # of connection points: 2
#     Edge 33, Type (0, 0), BuildingBlock: AJUNOK_clean_linker_0, # of connection points: 2
#     Edge 34, Type (0, 0), BuildingBlock: AJUNOK_clean_linker_0, # of connection points: 2
#     Edge 35, Type (0, 0), BuildingBlock: AJUNOK_clean_linker_0, # of connection points: 2
#     Edge 36, Type (0, 0), BuildingBlock: AJUNOK_clean_linker_0, # of connection points: 2
#     Edge 37, Type (0, 0), BuildingBlock: AJUNOK_clean_linker_0, # of connection points: 2
#     Edge 38, Type (0, 0), BuildingBlock: AJUNOK_clean_linker_0, # of connection points: 2
#     Edge 39, Type (0, 0), BuildingBlock: AJUNOK_clean_linker_0, # of connection points: 2
#     Edge 40, Type (0, 0), BuildingBlock: AJUNOK_clean_linker_0, # of connection points: 2
#     Edge 41, Type (0, 0), BuildingBlock: AJUNOK_clean_linker_0, # of connection points: 2
#     Edge 42, Type (0, 0), BuildingBlock: AJUNOK_clean_linker_0, # of connection points: 2
#     Edge 43, Type (0, 0), BuildingBlock: AJUNOK_clean_linker_0, # of connection points: 2
#     Edge 44, Type (0, 0), BuildingBlock: AJUNOK_clean_linker_0, # of connection points: 2
#     Edge 45, Type (0, 0), BuildingBlock: AJUNOK_clean_linker_0, # of connection points: 2
#     Edge 46, Type (0, 0), BuildingBlock: AJUNOK_clean_linker_0, # of connection points: 2
#     Edge 47, Type (0, 0), BuildingBlock: AJUNOK_clean_linker_0, # of connection points: 2
#     Edge 48, Type (0, 0), BuildingBlock: AJUNOK_clean_linker_0, # of connection points: 2
#     Edge 49, Type (0, 0), BuildingBlock: AJUNOK_clean_linker_0, # of connection points: 2
#     Edge 50, Type (0, 0), BuildingBlock: AJUNOK_clean_linker_0, # of connection points: 2
#     Edge 51, Type (0, 0), BuildingBlock: AJUNOK_clean_linker_0, # of connection points: 2
#     Edge 52, Type (0, 0), BuildingBlock: AJUNOK_clean_linker_0, # of connection points: 2
#     Edge 53, Type (0, 0), BuildingBlock: AJUNOK_clean_linker_0, # of connection points: 2
#     Edge 54, Type (0, 0), BuildingBlock: AJUNOK_clean_linker_0, # of connection points: 2
#     Edge 55, Type (0, 0), BuildingBlock: AJUNOK_clean_linker_0, # of connection points: 2
#     Edge 56, Type (0, 0), BuildingBlock: AJUNOK_clean_linker_0, # of connection points: 2
#     Edge 57, Type (0, 0), BuildingBlock: AJUNOK_clean_linker_0, # of connection points: 2
#     Edge 58, Type (0, 0), BuildingBlock: AJUNOK_clean_linker_0, # of connection points: 2
#     Edge 59, Type (0, 0), BuildingBlock: AJUNOK_clean_linker_0, # of connection points: 2
#     Edge 60, Type (0, 0), BuildingBlock: AJUNOK_clean_linker_0, # of connection points: 2
#     Edge 61, Type (0, 0), BuildingBlock: AJUNOK_clean_linker_0, # of connection points: 2
#     Edge 62, Type (0, 0), BuildingBlock: AJUNOK_clean_linker_0, # of connection points: 2
#     Edge 63, Type (0, 0), BuildingBlock: AJUNOK_clean_linker_0, # of connection points: 2
#     Edge 64, Type (0, 0), BuildingBlock: AJUNOK_clean_linker_0, # of connection points: 2
#     Edge 65, Type (0, 0), BuildingBlock: AJUNOK_clean_linker_0, # of connection points: 2
#     Edge 66, Type (0, 0), BuildingBlock: AJUNOK_clean_linker_0, # of connection points: 2
#     Edge 67, Type (0, 0), BuildingBlock: AJUNOK_clean_linker_0, # of connection points: 2
#     Edge 68, Type (0, 0), BuildingBlock: AJUNOK_clean_linker_0, # of connection points: 2
#     Edge 69, Type (0, 0), BuildingBlock: AJUNOK_clean_linker_0, # of connection points: 2
#     Edge 70, Type (0, 0), BuildingBlock: AJUNOK_clean_linker_0, # of connection points: 2
#     Edge 71, Type (0, 0), BuildingBlock: AJUNOK_clean_linker_0, # of connection points: 2
#     Edge 72, Type (0, 0), BuildingBlock: AJUNOK_clean_linker_0, # of connection points: 2
#     Edge 73, Type (0, 0), BuildingBlock: AJUNOK_clean_linker_0, # of connection points: 2
#     Edge 74, Type (0, 0), BuildingBlock: AJUNOK_clean_linker_0, # of connection points: 2
#     Edge 75, Type (0, 0), BuildingBlock: AJUNOK_clean_linker_0, # of connection points: 2
#     Edge 76, Type (0, 0), BuildingBlock: AJUNOK_clean_linker_0, # of connection points: 2
#     Edge 77, Type (0, 0), BuildingBlock: AJUNOK_clean_linker_0, # of connection points: 2
#     Edge 78, Type (0, 0), BuildingBlock: AJUNOK_clean_linker_0, # of connection points: 2
#     Edge 79, Type (0, 0), BuildingBlock: AJUNOK_clean_linker_0, # of connection points: 2
#     Edge 80, Type (0, 0), BuildingBlock: AJUNOK_clean_linker_0, # of connection points: 2
#     Edge 81, Type (0, 0), BuildingBlock: AJUNOK_clean_linker_0, # of connection points: 2
#     Edge 82, Type (0, 0), BuildingBlock: AJUNOK_clean_linker_0, # of connection points: 2
#     Edge 83, Type (0, 0), BuildingBlock: AJUNOK_clean_linker_0, # of connection points: 2
#     Edge 84, Type (0, 0), BuildingBlock: AJUNOK_clean_linker_0, # of connection points: 2
#     Edge 85, Type (0, 0), BuildingBlock: AJUNOK_clean_linker_0, # of connection points: 2
#     Edge 86, Type (0, 0), BuildingBlock: AJUNOK_clean_linker_0, # of connection points: 2
#     Edge 87, Type (0, 0), BuildingBlock: AJUNOK_clean_linker_0, # of connection points: 2
#     Edge 88, Type (0, 0), BuildingBlock: AJUNOK_clean_linker_0, # of connection points: 2
#     Edge 89, Type (0, 0), BuildingBlock: AJUNOK_clean_linker_0, # of connection points: 2
#     Edge 90, Type (0, 0), BuildingBlock: AJUNOK_clean_linker_0, # of connection points: 2
#     Edge 91, Type (0, 0), BuildingBlock: AJUNOK_clean_linker_0, # of connection points: 2
#     Edge 92, Type (0, 0), BuildingBlock: AJUNOK_clean_linker_0, # of connection points: 2
#     Edge 93, Type (0, 0), BuildingBlock: AJUNOK_clean_linker_0, # of connection points: 2
#     Edge 94, Type (0, 0), BuildingBlock: AJUNOK_clean_linker_0, # of connection points: 2
#     Edge 95, Type (0, 0), BuildingBlock: AJUNOK_clean_linker_0, # of connection points: 2
#     Edge 96, Type (0, 0), BuildingBlock: AJUNOK_clean_linker_0, # of connection points: 2
#     Edge 97, Type (0, 0), BuildingBlock: AJUNOK_clean_linker_0, # of connection points: 2
#     Edge 98, Type (0, 0), BuildingBlock: AJUNOK_clean_linker_0, # of connection points: 2
#     Edge 99, Type (0, 0), BuildingBlock: AJUNOK_clean_linker_0, # of connection points: 2
#     Edge 100, Type (0, 0), BuildingBlock: AJUNOK_clean_linker_0, # of connection points: 2
#     Edge 101, Type (0, 0), BuildingBlock: AJUNOK_clean_linker_0, # of connection points: 2
#     Edge 102, Type (0, 0), BuildingBlock: AJUNOK_clean_linker_0, # of connection points: 2
#     Edge 103, Type (0, 0), BuildingBlock: AJUNOK_clean_linker_0, # of connection points: 2
#     Edge 104, Type (0, 0), BuildingBlock: AJUNOK_clean_linker_0, # of connection points: 2
#     Edge 105, Type (0, 0), BuildingBlock: AJUNOK_clean_linker_0, # of connection points: 2
#     Edge 106, Type (0, 0), BuildingBlock: AJUNOK_clean_linker_0, # of connection points: 2
#     Edge 107, Type (0, 0), BuildingBlock: AJUNOK_clean_linker_0, # of connection points: 2
#     Edge 108, Type (0, 0), BuildingBlock: AJUNOK_clean_linker_0, # of connection points: 2
#     Edge 109, Type (0, 0), BuildingBlock: AJUNOK_clean_linker_0, # of connection points: 2
#     Edge 110, Type (0, 0), BuildingBlock: AJUNOK_clean_linker_0, # of connection points: 2
#     Edge 111, Type (0, 0), BuildingBlock: AJUNOK_clean_linker_0, # of connection points: 2
#     Edge 112, Type (0, 0), BuildingBlock: AJUNOK_clean_linker_0, # of connection points: 2
#     Edge 113, Type (0, 0), BuildingBlock: AJUNOK_clean_linker_0, # of connection points: 2
#     Edge 114, Type (0, 0), BuildingBlock: AJUNOK_clean_linker_0, # of connection points: 2
#     Edge 115, Type (0, 0), BuildingBlock: AJUNOK_clean_linker_0, # of connection points: 2
#     Edge 116, Type (0, 0), BuildingBlock: AJUNOK_clean_linker_0, # of connection points: 2
#     Edge 117, Type (0, 0), BuildingBlock: AJUNOK_clean_linker_0, # of connection points: 2
#     Edge 118, Type (0, 0), BuildingBlock: AJUNOK_clean_linker_0, # of connection points: 2
#     Edge 119, Type (0, 0), BuildingBlock: AJUNOK_clean_linker_0, # of connection points: 2
#     Edge 120, Type (0, 0), BuildingBlock: AJUNOK_clean_linker_0, # of connection points: 2
#     Edge 121, Type (0, 0), BuildingBlock: AJUNOK_clean_linker_0, # of connection points: 2
#     Edge 122, Type (0, 0), BuildingBlock: AJUNOK_clean_linker_0, # of connection points: 2
#     Edge 123, Type (0, 0), BuildingBlock: AJUNOK_clean_linker_0, # of connection points: 2
#     Edge 124, Type (0, 0), BuildingBlock: AJUNOK_clean_linker_0, # of connection points: 2
#     Edge 125, Type (0, 0), BuildingBlock: AJUNOK_clean_linker_0, # of connection points: 2
#     Edge 126, Type (0, 0), BuildingBlock: AJUNOK_clean_linker_0, # of connection points: 2
#     Edge 127, Type (0, 0), BuildingBlock: AJUNOK_clean_linker_0, # of connection points: 2
# Relax obj value: 0.203
# Max RMSD: 0.222
# Mean RMSD: 0.222
data_MOF--net-wio--node1-BETDEL_clean_sbu_0--edge1-AJUNOK_clean_linker_0
_symmetry_space_group_name_H-M    P1
_symmetry_Int_Tables_number       1
_symmetry_cell_setting            triclinic
loop_
_symmetry_equiv_pos_as_xyz
'x, y, z'
_cell_length_a     39.901513
_cell_length_b     39.886964
_cell_length_c     33.540045
_cell_angle_alpha  89.983319
_cell_angle_beta   89.98974
_cell_angle_gamma 90.019618
loop_
_atom_site_label
_atom_site_type_symbol
_atom_site_fract_x
_atom_site_fract_y
_atom_site_fract_z
_atom_type_partial_charge
Dy0 Dy 0.18124 0.12187 0.31134 0.0
C1 C 0.04369 0.12366 0.37089 0.0
C2 C 0.2379 0.10916 0.26569 0.0
Dy3 Dy 0.10521 0.12322 0.33474 0.0
O4 O 0.23547 0.13189 0.29351 0.0
O5 O 0.20972 0.09291 0.264 0.0
O6 O 0.19082 0.16323 0.35521 0.0
O7 O 0.14417 0.1605 0.32603 0.0
C8 C 0.16053 0.17534 0.35288 0.0
C9 C 0.12679 0.07125 0.29271 0.0
O10 O 0.09944 0.14798 0.27547 0.0
O11 O 0.15403 0.13647 0.25423 0.0
O12 O 0.05506 0.10075 0.34712 0.0
O13 O 0.06586 0.14755 0.37437 0.0
O14 O 0.09674 0.08325 0.28944 0.0
O15 O 0.14228 0.08548 0.32034 0.0
O16 O 0.18238 0.08867 0.36678 0.0
O17 O 0.1305 0.10541 0.39132 0.0
C18 C 0.12261 0.14617 0.24713 0.0
C19 C 0.15923 0.08884 0.39572 0.0
Dy20 Dy 0.1337 0.92631 0.55958 0.0
C21 C 0.11938 0.78696 0.61039 0.0
C22 C 0.15046 0.98439 0.51861 0.0
Dy23 Dy 0.12571 0.84961 0.57755 0.0
O24 O 0.12403 0.98028 0.54094 0.0
O25 O 0.16818 0.95708 0.52 0.0
O26 O 0.09437 0.93719 0.60549 0.0
O27 O 0.09198 0.89211 0.5728 0.0
C28 C 0.07934 0.90836 0.60135 0.0
C29 C 0.18049 0.86801 0.53768 0.0
O30 O 0.09857 0.85023 0.5193 0.0
O31 O 0.11768 0.90329 0.50078 0.0
O32 O 0.13608 0.79453 0.57851 0.0
O33 O 0.10434 0.81376 0.62363 0.0
O34 O 0.16602 0.83919 0.53305 0.0
O35 O 0.16638 0.88363 0.56532 0.0
O36 O 0.16603 0.92344 0.61531 0.0
O37 O 0.14956 0.86964 0.63428 0.0
C38 C 0.10357 0.87395 0.49214 0.0
C39 C 0.16622 0.89803 0.64138 0.0
Dy40 Dy 0.32874 0.8802 0.80814 0.0
C41 C 0.46627 0.87003 0.86445 0.0
C42 C 0.26948 0.89003 0.76619 0.0
Dy43 Dy 0.40429 0.87428 0.82951 0.0
O44 O 0.2799 0.86172 0.78095 0.0
O45 O 0.29096 0.91314 0.77572 0.0
O46 O 0.31779 0.84276 0.85624 0.0
O47 O 0.36306 0.83915 0.82412 0.0
C48 C 0.34649 0.82745 0.85296 0.0
C49 C 0.38717 0.92839 0.78738 0.0
O50 O 0.40602 0.84693 0.77142 0.0
O51 O 0.35514 0.8689 0.74989 0.0
O52 O 0.45883 0.88681 0.83264 0.0
O53 O 0.4398 0.85376 0.87653 0.0
O54 O 0.41591 0.91349 0.7845 0.0
O55 O 0.37031 0.91473 0.81448 0.0
O56 O 0.3289 0.91348 0.86318 0.0
O57 O 0.38218 0.89816 0.88504 0.0
C58 C 0.38416 0.85373 0.74274 0.0
C59 C 0.35332 0.91434 0.8905 0.0
Dy60 Dy 0.37319 0.07741 0.05646 0.0
C61 C 0.38446 0.21426 0.11366 0.0
C62 C 0.35986 0.0201 1.01207 0.0
Dy63 Dy 0.37961 0.1526 0.07817 0.0
O64 O 0.37794 0.02123 0.04444 0.0
O65 O 0.34873 0.05003 1.0049 0.0
O66 O 0.41407 0.06565 0.10028 0.0
O67 O 0.41468 0.11174 0.07009 0.0
C68 C 0.42839 0.09486 0.09725 0.0
C69 C 0.32385 0.13553 0.03887 0.0
O70 O 0.40576 0.15577 1.01945 0.0
O71 O 0.38916 0.10248 0.99893 0.0
O72 O 0.36583 0.20668 0.08337 0.0
O73 O 0.4021 0.18813 0.12388 0.0
O74 O 0.3393 0.16387 0.03453 0.0
O75 O 0.3385 0.11854 0.06508 0.0
O76 O 0.33871 0.07899 0.11079 0.0
O77 O 0.35858 0.12981 0.13493 0.0
C78 C 0.40194 0.13262 0.99144 0.0
C79 C 0.34039 0.1021 0.1397 0.0
Dy80 Dy 0.17327 0.88185 0.25803 0.0
C81 C 0.03521 0.86482 0.20029 0.0
C82 C 0.23104 0.89013 0.30303 0.0
Dy83 Dy 0.09809 0.87663 0.22904 0.0
O84 O 0.21817 0.86173 0.29157 0.0
O85 O 0.21281 0.91437 0.28856 0.0
O86 O 0.18597 0.84338 0.21121 0.0
O87 O 0.13888 0.84182 0.23885 0.0
C88 C 0.15673 0.8289 0.21208 0.0
C89 C 0.119 0.93761 0.24604 0.0
O90 O 0.09064 0.86262 0.29359 0.0
O91 O 0.14621 0.86872 0.31486 0.0
O92 O 0.04243 0.88258 0.2316 0.0
O93 O 0.06254 0.85149 0.18601 0.0
O94 O 0.0954 0.93166 0.2205 0.0
O95 O 0.12762 0.91129 0.26398 0.0
O96 O 0.17453 0.91476 0.20325 0.0
O97 O 0.12692 0.89203 0.17354 0.0
C98 C 0.11406 0.86234 0.32185 0.0
C99 C 0.15355 0.91231 0.17239 0.0
Dy100 Dy 0.37012 0.92528 0.50811 0.0
C101 C 0.3824 0.78821 0.45003 0.0
C102 C 0.3548 0.9803 0.55542 0.0
Dy103 Dy 0.37788 0.84944 0.48646 0.0
O104 O 0.37314 0.98115 0.52317 0.0
O105 O 0.34406 0.94986 0.56027 0.0
O106 O 0.41085 0.93774 0.46448 0.0
O107 O 0.41196 0.89137 0.49445 0.0
C108 C 0.42535 0.90857 0.46725 0.0
C109 C 0.3221 0.86688 0.5255 0.0
O110 O 0.40338 0.84659 0.5455 0.0
O111 O 0.38634 0.89993 0.56555 0.0
O112 O 0.36344 0.79566 0.48007 0.0
O113 O 0.40075 0.81414 0.44078 0.0
O114 O 0.33638 0.83786 0.52895 0.0
O115 O 0.33718 0.88334 0.4994 0.0
O116 O 0.33512 0.92254 0.45398 0.0
O117 O 0.35709 0.87262 0.42987 0.0
C118 C 0.39889 0.86973 0.57342 0.0
C119 C 0.33714 0.89912 0.42537 0.0
Dy120 Dy 0.32922 0.12156 0.76117 0.0
C121 C 0.46476 0.13016 0.69791 0.0
C122 C 0.27234 0.11014 0.80715 0.0
Dy123 Dy 0.40321 0.12624 0.73389 0.0
O124 O 0.27357 0.12831 0.77488 0.0
O125 O 0.30197 0.0979 0.81349 0.0
O126 O 0.31644 0.16259 0.71798 0.0
O127 O 0.36382 0.16245 0.74507 0.0
C128 C 0.3459 0.1765 0.71911 0.0
C129 C 0.38729 0.07077 0.77446 0.0
O130 O 0.40907 0.15191 0.79291 0.0
O131 O 0.35708 0.13523 0.81746 0.0
O132 O 0.45751 0.11347 0.72981 0.0
O133 O 0.4382 0.14635 0.68592 0.0
O134 O 0.41627 0.08527 0.77575 0.0
O135 O 0.36908 0.08592 0.74993 0.0
O136 O 0.32814 0.08596 0.708 0.0
O137 O 0.37781 0.10423 0.67888 0.0
C138 C 0.38765 0.14758 0.82275 0.0
C139 C 0.34966 0.08626 0.67733 0.0
Dy140 Dy 0.13261 0.07901 1.01141 0.0
C141 C 0.12302 0.21632 0.95465 0.0
C142 C 0.14635 0.02093 0.05414 0.0
Dy143 Dy 0.12672 0.1546 0.99033 0.0
O144 O 0.12388 0.02376 1.02613 0.0
O145 O 0.16148 0.04955 0.05781 0.0
O146 O 0.09367 0.06767 0.96531 0.0
O147 O 0.09141 0.11347 0.99647 0.0
C148 C 0.07895 0.09668 0.96825 0.0
C149 C 0.18102 0.13685 1.03159 0.0
O150 O 0.10172 0.1577 0.04984 0.0
O151 O 0.11688 0.10362 0.06932 0.0
O152 O 0.14429 0.2073 0.98172 0.0
O153 O 0.10224 0.19171 0.94788 0.0
O154 O 0.16579 0.16536 0.03578 0.0
O155 O 0.16717 0.12034 1.00432 0.0
O156 O 0.1671 0.0804 0.95734 0.0
O157 O 0.1488 0.13209 0.93395 0.0
C158 C 0.10517 0.13406 0.07743 0.0
C159 C 0.16654 0.1041 0.92911 0.0
Dy160 Dy 0.90283 0.87549 0.73507 0.0
C161 C 0.77006 0.89286 0.80269 0.0
C162 C 0.96447 0.87323 0.69929 0.0
Dy163 Dy 0.82727 0.87962 0.75812 0.0
O164 O 0.95554 0.89323 0.72775 0.0
O165 O 0.93977 0.85297 0.69097 0.0
O166 O 0.91316 0.91504 0.78034 0.0
O167 O 0.86762 0.91486 0.74996 0.0
C168 C 0.88395 0.92897 0.77708 0.0
C169 C 0.84582 0.82632 0.71463 0.0
O170 O 0.82723 0.91397 0.70387 0.0
O171 O 0.8789 0.89671 0.67907 0.0
O172 O 0.77288 0.86981 0.77532 0.0
O173 O 0.79822 0.90914 0.80458 0.0
O174 O 0.81633 0.84021 0.71221 0.0
O175 O 0.86253 0.8394 0.74246 0.0
O176 O 0.90708 0.84886 0.79332 0.0
O177 O 0.85364 0.86403 0.81509 0.0
C178 C 0.8504 0.91376 0.675 0.0
C179 C 0.88422 0.85199 0.82179 0.0
Dy180 Dy 0.87822 0.1522 0.48642 0.0
C181 C 0.85818 0.02071 0.55528 0.0
C182 C 0.88125 0.21459 0.45235 0.0
Dy183 Dy 0.87189 0.07776 0.5106 0.0
O184 O 0.86435 0.20634 0.48372 0.0
O185 O 0.89826 0.18865 0.44 0.0
O186 O 0.83831 0.16467 0.52981 0.0
O187 O 0.83703 0.11853 0.50108 0.0
C188 C 0.8228 0.13633 0.52681 0.0
C189 C 0.92706 0.09395 0.46875 0.0
O190 O 0.83653 0.07875 0.45717 0.0
O191 O 0.85659 0.12856 0.43039 0.0
O192 O 0.87512 0.0214 0.52204 0.0
O193 O 0.84852 0.051 0.56334 0.0
O194 O 0.91264 0.06474 0.4672 0.0
O195 O 0.91362 0.11162 0.49544 0.0
O196 O 0.90465 0.15614 0.54504 0.0
O197 O 0.88708 0.10382 0.56769 0.0
C198 C 0.83802 0.10094 0.42725 0.0
C199 C 0.90009 0.13399 0.57407 0.0
Dy200 Dy 0.60099 0.12815 0.23632 0.0
C201 C 0.73187 0.1081 0.30612 0.0
C202 C 0.53983 0.13179 0.19953 0.0
Dy203 Dy 0.67537 0.12153 0.2604 0.0
O204 O 0.54764 0.11251 0.2291 0.0
O205 O 0.56541 0.15077 0.1907 0.0
O206 O 0.58829 0.08942 0.28107 0.0
O207 O 0.63427 0.08682 0.25163 0.0
C208 C 0.61639 0.07341 0.27804 0.0
C209 C 0.65922 0.17662 0.21825 0.0
O210 O 0.67462 0.08604 0.207 0.0
O211 O 0.62474 0.10613 0.18067 0.0
O212 O 0.73145 0.12548 0.27318 0.0
O213 O 0.70166 0.09765 0.31316 0.0
O214 O 0.68833 0.16204 0.21637 0.0
O215 O 0.64174 0.16324 0.24515 0.0
O216 O 0.59655 0.15425 0.29506 0.0
O217 O 0.64931 0.13762 0.3173 0.0
C218 C 0.65224 0.08745 0.17731 0.0
C219 C 0.61896 0.1502 0.32391 0.0
Dy220 Dy 0.62482 0.85055 0.98634 0.0
C221 C 0.64583 0.98289 0.05356 0.0
C222 C 0.62127 0.78878 0.95085 0.0
Dy223 Dy 0.63169 0.92599 1.00867 0.0
O224 O 0.6383 0.79636 0.98241 0.0
O225 O 0.60423 0.81498 0.93939 0.0
O226 O 0.665 0.83917 1.03029 0.0
O227 O 0.66555 0.88452 1.00013 0.0
C228 C 0.68016 0.86769 1.02634 0.0
C229 C 0.57747 0.90886 0.96597 0.0
O230 O 0.66624 0.9245 0.95437 0.0
O231 O 0.64691 0.8734 0.93017 0.0
O232 O 0.62417 0.98107 1.02451 0.0
O233 O 0.6604 0.9539 0.05687 0.0
O234 O 0.59224 0.9379 0.96308 0.0
O235 O 0.59025 0.89199 0.99382 0.0
O236 O 0.59771 0.84758 0.04434 0.0
O237 O 0.61523 0.90037 0.06579 0.0
C238 C 0.66507 0.90118 0.92564 0.0
C239 C 0.60187 0.87036 0.07271 0.0
Dy240 Dy 0.90547 0.12554 0.83007 0.0
C241 C 0.77178 0.10633 0.76333 0.0
C242 C 0.96686 0.13144 0.8661 0.0
Dy243 Dy 0.82901 0.12 0.80792 0.0
O244 O 0.96025 0.11432 0.83424 0.0
O245 O 0.9398 0.14693 0.87773 0.0
O246 O 0.91637 0.08352 0.78823 0.0
O247 O 0.87034 0.08601 0.8165 0.0
C248 C 0.88676 0.07034 0.79085 0.0
C249 C 0.84804 0.17373 0.85045 0.0
O250 O 0.82969 0.0864 0.86298 0.0
O251 O 0.88231 0.10308 0.88591 0.0
O252 O 0.77562 0.1315 0.78776 0.0
O253 O 0.79878 0.08814 0.76473 0.0
O254 O 0.81857 0.15983 0.85373 0.0
O255 O 0.86428 0.1603 0.8225 0.0
O256 O 0.9083 0.15148 0.77124 0.0
O257 O 0.85506 0.13464 0.75041 0.0
C258 C 0.85365 0.08637 0.89101 0.0
C259 C 0.88529 0.14732 0.74312 0.0
Dy260 Dy 0.62591 0.15223 0.58039 0.0
C261 C 0.64612 0.0207 0.51033 0.0
C262 C 0.62091 0.21328 0.61731 0.0
Dy263 Dy 0.6326 0.07741 0.55582 0.0
O264 O 0.64082 0.20574 0.58821 0.0
O265 O 0.60214 0.18742 0.62569 0.0
O266 O 0.66466 0.16516 0.53558 0.0
O267 O 0.66679 0.11889 0.56455 0.0
C268 C 0.68023 0.13672 0.53815 0.0
C269 C 0.57821 0.09388 0.59866 0.0
O270 O 0.66749 0.07763 0.60974 0.0
O271 O 0.64924 0.12855 0.63555 0.0
O272 O 0.66024 0.04983 0.50665 0.0
O273 O 0.62483 0.02229 0.53977 0.0
O274 O 0.59299 0.06486 0.60108 0.0
O275 O 0.59121 0.11118 0.57137 0.0
O276 O 0.59985 0.15655 0.52165 0.0
O277 O 0.61665 0.10386 0.49908 0.0
C278 C 0.66728 0.10055 0.63893 0.0
C279 C 0.60386 0.13418 0.49275 0.0
Dy280 Dy 0.59847 0.87521 0.32966 0.0
C281 C 0.72996 0.89283 0.25936 0.0
C282 C 0.53697 0.87096 0.36579 0.0
Dy283 Dy 0.67276 0.88063 0.30442 0.0
O284 O 0.54418 0.88806 0.33417 0.0
O285 O 0.56351 0.85447 0.37726 0.0
O286 O 0.58575 0.91553 0.28698 0.0
O287 O 0.63246 0.91605 0.31453 0.0
C288 C 0.61442 0.93057 0.2892 0.0
C289 C 0.65562 0.82575 0.34628 0.0
O290 O 0.67333 0.91544 0.35827 0.0
O291 O 0.62281 0.89731 0.3851 0.0
O292 O 0.72835 0.87363 0.29076 0.0
O293 O 0.70054 0.90573 0.25344 0.0
O294 O 0.68483 0.84009 0.34868 0.0
O295 O 0.63837 0.83943 0.31946 0.0
O296 O 0.59351 0.84952 0.27066 0.0
O297 O 0.64589 0.8664 0.24751 0.0
C298 C 0.65102 0.91505 0.38809 0.0
C299 C 0.61545 0.85397 0.24139 0.0
Dy300 Dy 0.87562 0.84636 0.07742 0.0
C301 C 0.85885 0.98054 1.01291 0.0
C302 C 0.88018 0.78476 0.11274 0.0
Dy303 Dy 0.87093 0.92231 0.05587 0.0
O304 O 0.86118 0.79252 0.08284 0.0
O305 O 0.89821 0.81068 0.12275 0.0
O306 O 0.83587 0.8357 0.03272 0.0
O307 O 0.83607 0.88137 0.0628 0.0
C308 C 0.82196 0.86495 0.03571 0.0
C309 C 0.9241 0.90306 0.09917 0.0
O310 O 0.83653 0.92178 0.10999 0.0
O311 O 0.85273 0.86918 0.13323 0.0
O312 O 0.88253 0.97638 0.03921 0.0
O313 O 0.84122 0.95318 1.01127 0.0
O314 O 0.91006 0.93241 0.10257 0.0
O315 O 0.91108 0.88702 0.07082 0.0
O316 O 0.90225 0.84333 1.01905 0.0
O317 O 0.88634 0.89683 0.99827 0.0
C318 C 0.83609 0.89789 0.13802 0.0
C319 C 0.89856 0.86642 0.9909 0.0
Dy320 Dy 0.67478 0.6222 0.80705 0.0
C321 C 0.53746 0.632 0.86331 0.0
C322 C 0.72887 0.60837 0.75765 0.0
Dy323 Dy 0.59978 0.62886 0.82894 0.0
O324 O 0.73111 0.62131 0.79334 0.0
O325 O 0.69757 0.60236 0.75035 0.0
O326 O 0.68781 0.66304 0.85026 0.0
O327 O 0.64095 0.66396 0.82166 0.0
C328 C 0.65846 0.6772 0.84866 0.0
C329 C 0.61668 0.57369 0.78837 0.0
O330 O 0.59645 0.65531 0.77022 0.0
O331 O 0.64971 0.63877 0.75002 0.0
O332 O 0.54589 0.61415 0.83275 0.0
O333 O 0.56318 0.64984 0.87463 0.0
O334 O 0.58854 0.58944 0.78413 0.0
O335 O 0.63355 0.58769 0.81514 0.0
O336 O 0.67299 0.58678 0.86047 0.0
O337 O 0.62261 0.60707 0.88537 0.0
C338 C 0.61967 0.65148 0.74227 0.0
C339 C 0.65016 0.58855 0.88969 0.0
Dy340 Dy 0.63047 0.42946 0.06135 0.0
C341 C 0.62658 0.2912 0.11814 0.0
C342 C 0.64405 0.48629 1.01619 0.0
Dy343 Dy 0.6269 0.35298 0.08247 0.0
O344 O 0.62145 0.48404 0.0442 0.0
O345 O 0.65983 0.45786 1.0142 0.0
O346 O 0.5898 0.43972 0.10569 0.0
O347 O 0.59073 0.39332 0.07561 0.0
C348 C 0.57678 0.40981 0.10309 0.0
C349 C 0.67939 0.37422 0.04101 0.0
O350 O 0.60132 0.34891 1.02363 0.0
O351 O 0.61491 0.40339 1.00369 0.0
O352 O 0.64881 0.30227 0.09327 0.0
O353 O 0.60316 0.3137 0.12272 0.0
O354 O 0.66656 0.34459 0.03665 0.0
O355 O 0.66556 0.38933 0.06915 0.0
O356 O 0.66385 0.42853 0.11692 0.0
O357 O 0.64494 0.37685 0.13956 0.0
C358 C 0.60403 0.37245 0.99581 0.0
C359 C 0.66275 0.40463 0.14504 0.0
Dy360 Dy 0.82743 0.38144 0.30833 0.0
C361 C 0.96627 0.36175 0.3626 0.0
C362 C 0.76885 0.39354 0.26617 0.0
Dy363 Dy 0.90305 0.37361 0.33488 0.0
O364 O 0.77917 0.3645 0.27895 0.0
O365 O 0.7902 0.4163 0.27755 0.0
O366 O 0.81484 0.34356 0.35599 0.0
O367 O 0.86092 0.34032 0.32619 0.0
C368 C 0.84348 0.32804 0.35371 0.0
C369 C 0.88389 0.4353 0.3188 0.0
O370 O 0.90815 0.35844 0.27038 0.0
O371 O 0.85214 0.3655 0.25106 0.0
O372 O 0.95873 0.37891 0.3309 0.0
O373 O 0.93904 0.34851 0.3774 0.0
O374 O 0.9077 0.42837 0.34363 0.0
O375 O 0.87395 0.40941 0.30089 0.0
O376 O 0.82846 0.41413 0.36313 0.0
O377 O 0.87562 0.38927 0.39133 0.0
C378 C 0.88393 0.35819 0.24303 0.0
C379 C 0.84976 0.41043 0.39344 0.0
Dy380 Dy 0.87112 0.57712 0.55439 0.0
C381 C 0.88212 0.71347 0.61431 0.0
C382 C 0.85858 0.51925 0.51081 0.0
Dy383 Dy 0.87725 0.6516 0.57881 0.0
O384 O 0.87516 0.52061 0.54425 0.0
O385 O 0.84869 0.5493 0.50196 0.0
O386 O 0.91092 0.56433 0.59896 0.0
O387 O 0.91275 0.61105 0.5702 0.0
C388 C 0.9256 0.59339 0.59732 0.0
C389 C 0.82232 0.63607 0.53727 0.0
O390 O 0.90205 0.65579 0.51887 0.0
O391 O 0.88596 0.60272 0.49701 0.0
O392 O 0.86423 0.70593 0.58344 0.0
O393 O 0.89897 0.68703 0.6254 0.0
O394 O 0.83764 0.66461 0.53522 0.0
O395 O 0.83628 0.61813 0.56313 0.0
O396 O 0.83445 0.57837 0.60636 0.0
O397 O 0.85386 0.62804 0.63429 0.0
C398 C 0.8978 0.63327 0.49008 0.0
C399 C 0.83519 0.60039 0.63645 0.0
Dy400 Dy 0.67192 0.38149 0.75984 0.0
C401 C 0.53476 0.37221 0.70299 0.0
C402 C 0.73068 0.39314 0.80201 0.0
Dy403 Dy 0.59667 0.37636 0.7383 0.0
O404 O 0.72691 0.3712 0.77361 0.0
O405 O 0.70259 0.40915 0.80634 0.0
O406 O 0.68281 0.34168 0.71465 0.0
O407 O 0.63697 0.34039 0.74558 0.0
C408 C 0.65371 0.3272 0.71783 0.0
C409 C 0.6145 0.43096 0.779 0.0
O410 O 0.59341 0.35124 0.79786 0.0
O411 O 0.64692 0.36738 0.81804 0.0
O412 O 0.5426 0.39037 0.73357 0.0
O413 O 0.56081 0.35463 0.69232 0.0
O414 O 0.58579 0.41608 0.78274 0.0
O415 O 0.63119 0.41677 0.75214 0.0
O416 O 0.67165 0.41567 0.70548 0.0
O417 O 0.61927 0.39927 0.68229 0.0
C418 C 0.61655 0.35542 0.82587 0.0
C419 C 0.64786 0.41609 0.67739 0.0
Dy420 Dy 0.86779 0.42297 1.00576 0.0
C421 C 0.88782 0.2835 0.95314 0.0
C422 C 0.8571 0.48193 0.04773 0.0
Dy423 Dy 0.8749 0.34639 0.98118 0.0
O424 O 0.88583 0.47106 0.03461 0.0
O425 O 0.83386 0.46101 0.03657 0.0
O426 O 0.90601 0.43404 0.9577 0.0
O427 O 0.9081 0.38858 0.98882 0.0
C428 C 0.92088 0.40509 0.96089 0.0
C429 C 0.8136 0.36651 0.99725 0.0
O430 O 0.89066 0.34226 0.04557 0.0
O431 O 0.88387 0.39872 0.06331 0.0
O432 O 0.87024 0.29057 0.9847 0.0
O433 O 0.90065 0.311 0.93861 0.0
O434 O 0.82002 0.34176 0.97351 0.0
O435 O 0.83972 0.37668 1.01444 0.0
O436 O 0.83492 0.42131 0.9511 0.0
O437 O 0.85908 0.37314 0.92434 0.0
C438 C 0.89133 0.36708 0.07216 0.0
C439 C 0.83827 0.39925 0.92148 0.0
Dy440 Dy 0.82353 0.61877 0.25465 0.0
C441 C 0.96186 0.62608 0.19759 0.0
C442 C 0.76624 0.60518 0.29903 0.0
Dy443 Dy 0.90012 0.6233 0.2334 0.0
O444 O 0.76881 0.62774 0.27103 0.0
O445 O 0.79466 0.5894 0.3015 0.0
O446 O 0.81307 0.65972 0.21073 0.0
O447 O 0.85938 0.65886 0.24095 0.0
C448 C 0.84283 0.67296 0.21367 0.0
C449 C 0.8795 0.57008 0.27398 0.0
O450 O 0.90377 0.64842 0.29262 0.0
O451 O 0.84943 0.63414 0.31246 0.0
O452 O 0.95201 0.60399 0.22336 0.0
O453 O 0.93807 0.64805 0.19211 0.0
O454 O 0.9091 0.58299 0.27837 0.0
O455 O 0.86413 0.58422 0.24627 0.0
O456 O 0.82458 0.58584 0.19873 0.0
O457 O 0.87652 0.60445 0.1764 0.0
C458 C 0.8802 0.64546 0.32034 0.0
C459 C 0.84856 0.58692 0.17069 0.0
Dy460 Dy 0.63121 0.57819 0.50911 0.0
C461 C 0.61794 0.7143 0.44809 0.0
C462 C 0.64338 0.52025 0.55305 0.0
Dy463 Dy 0.62381 0.65294 0.48425 0.0
O464 O 0.61727 0.52586 0.53074 0.0
O465 O 0.66322 0.54596 0.5502 0.0
O466 O 0.59163 0.56569 0.46405 0.0
O467 O 0.58929 0.61188 0.49425 0.0
C468 C 0.57632 0.59439 0.46703 0.0
C469 C 0.67986 0.63765 0.5235 0.0
O470 O 0.59838 0.65645 0.54365 0.0
O471 O 0.61968 0.6057 0.56664 0.0
O472 O 0.63407 0.70788 0.48066 0.0
O473 O 0.60311 0.68704 0.43583 0.0
O474 O 0.66514 0.66651 0.52529 0.0
O475 O 0.66514 0.6196 0.4984 0.0
O476 O 0.66358 0.57739 0.45305 0.0
O477 O 0.64581 0.62906 0.42855 0.0
C478 C 0.60527 0.63525 0.57303 0.0
C479 C 0.66285 0.60055 0.42412 0.0
Dy480 Dy 0.40196 0.37575 0.23708 0.0
C481 C 0.26655 0.39127 0.29769 0.0
C482 C 0.46435 0.37241 0.20337 0.0
Dy483 Dy 0.32541 0.37965 0.25566 0.0
O484 O 0.45523 0.39238 0.23181 0.0
O485 O 0.43943 0.35275 0.19411 0.0
O486 O 0.41021 0.41664 0.2815 0.0
O487 O 0.36582 0.41492 0.24888 0.0
C488 C 0.38083 0.42981 0.27641 0.0
C489 C 0.3459 0.32614 0.21412 0.0
O490 O 0.32662 0.41239 0.19967 0.0
O491 O 0.38027 0.39645 0.17978 0.0
O492 O 0.27229 0.36585 0.27426 0.0
O493 O 0.29253 0.41091 0.29663 0.0
O494 O 0.31647 0.33985 0.20985 0.0
O495 O 0.36151 0.33962 0.24265 0.0
O496 O 0.40432 0.35014 0.29592 0.0
O497 O 0.3504 0.36634 0.31461 0.0
C498 C 0.35168 0.41272 0.17301 0.0
C499 C 0.38067 0.35427 0.32322 0.0
Dy500 Dy 0.37722 0.6511 0.98562 0.0
C501 C 0.3602 0.51564 0.04745 0.0
C502 C 0.3823 0.71352 0.95192 0.0
Dy503 Dy 0.3713 0.57493 1.006 0.0
O504 O 0.36541 0.70585 0.98359 0.0
O505 O 0.39816 0.68699 0.93927 0.0
O506 O 0.33615 0.66171 1.02883 0.0
O507 O 0.3372 0.61639 0.99887 0.0
C508 C 0.32195 0.63267 1.02502 0.0
C509 C 0.42441 0.59353 0.96229 0.0
O510 O 0.33863 0.57577 0.95039 0.0
O511 O 0.35383 0.6294 0.92936 0.0
O512 O 0.38882 0.52608 0.03355 0.0
O513 O 0.33722 0.53713 0.03717 0.0
O514 O 0.40953 0.56458 0.9586 0.0
O515 O 0.41217 0.60971 0.99112 0.0
O516 O 0.40349 0.65248 0.0444 0.0
O517 O 0.38278 0.60061 0.06467 0.0
C518 C 0.33771 0.6005 0.92339 0.0
C519 C 0.39716 0.62995 0.07255 0.0
Dy520 Dy 0.10209 0.6247 0.73142 0.0
C521 C 0.23558 0.60794 0.79694 0.0
C522 C 0.03971 0.62671 0.69729 0.0
Dy523 Dy 0.17843 0.62166 0.75262 0.0
O524 O 0.04937 0.60668 0.72539 0.0
O525 O 0.06418 0.64707 0.6883 0.0
O526 O 0.09318 0.58463 0.77656 0.0
O527 O 0.13845 0.58617 0.74516 0.0
C528 C 0.12299 0.57217 0.77296 0.0
C529 C 0.15836 0.67452 0.70967 0.0
O530 O 0.1786 0.58896 0.69681 0.0
O531 O 0.12521 0.60378 0.67487 0.0
O532 O 0.23114 0.63417 0.7743 0.0
O533 O 0.20935 0.58884 0.79378 0.0
O534 O 0.18814 0.66126 0.70668 0.0
O535 O 0.14219 0.66118 0.73787 0.0
O536 O 0.09847 0.65037 0.79048 0.0
O537 O 0.15247 0.63574 0.81069 0.0
C538 C 0.15432 0.5881 0.66921 0.0
C539 C 0.12173 0.64695 0.81852 0.0
Dy540 Dy 0.12357 0.34857 0.48698 0.0
C541 C 0.14558 0.48308 0.54684 0.0
C542 C 0.11927 0.28616 0.45347 0.0
Dy543 Dy 0.13031 0.42498 0.50477 0.0
O544 O 0.13773 0.29449 0.48363 0.0
O545 O 0.10134 0.31189 0.44251 0.0
O546 O 0.16246 0.33844 0.53258 0.0
O547 O 0.16438 0.38286 0.49967 0.0
C548 C 0.1779 0.36672 0.52754 0.0
C549 C 0.07619 0.40547 0.46303 0.0
O550 O 0.16395 0.4223 0.45006 0.0
O551 O 0.14645 0.36927 0.43003 0.0
O552 O 0.12196 0.48016 0.52014 0.0
O553 O 0.16094 0.45453 0.54957 0.0
O554 O 0.09068 0.43451 0.45818 0.0
O555 O 0.08928 0.39021 0.4919 0.0
O556 O 0.09637 0.34822 0.54519 0.0
O557 O 0.11349 0.40203 0.56325 0.0
C558 C 0.16361 0.39739 0.42335 0.0
C559 C 0.10036 0.3723 0.57213 0.0
Dy560 Dy 0.4021 0.62626 0.33047 0.0
C561 C 0.26981 0.60837 0.2612 0.0
C562 C 0.46386 0.63043 0.36589 0.0
Dy563 Dy 0.32636 0.62253 0.30638 0.0
O564 O 0.45645 0.61323 0.33438 0.0
O565 O 0.43743 0.647 0.37754 0.0
O566 O 0.41246 0.58308 0.28996 0.0
O567 O 0.36616 0.58735 0.31712 0.0
C568 C 0.38244 0.57087 0.2921 0.0
C569 C 0.34531 0.67699 0.34738 0.0
O570 O 0.32574 0.58948 0.3618 0.0
O571 O 0.37788 0.60539 0.38679 0.0
O572 O 0.27226 0.63233 0.28751 0.0
O573 O 0.29781 0.59178 0.26096 0.0
O574 O 0.31544 0.66387 0.34964 0.0
O575 O 0.36228 0.6625 0.32073 0.0
O576 O 0.40656 0.6508 0.27066 0.0
O577 O 0.3533 0.63507 0.24894 0.0
C578 C 0.34889 0.58904 0.39077 0.0
C579 C 0.38397 0.64665 0.24202 0.0
Dy580 Dy 0.12702 0.6526 0.07641 0.0
C581 C 0.14358 0.51848 1.01245 0.0
C582 C 0.12494 0.7146 0.11147 0.0
Dy583 Dy 0.13078 0.57696 0.05468 0.0
O584 O 0.14668 0.70447 0.08553 0.0
O585 O 0.10295 0.69093 0.11761 0.0
O586 O 0.16636 0.66245 1.03086 0.0
O587 O 0.16623 0.61717 0.06195 0.0
C588 C 0.18031 0.63326 0.03454 0.0
C589 C 0.0775 0.59562 0.09821 0.0
O590 O 0.16525 0.57736 0.10878 0.0
O591 O 0.1487 0.62947 0.13278 0.0
O592 O 0.12055 0.5222 0.03964 0.0
O593 O 0.16002 0.54647 1.00937 0.0
O594 O 0.09147 0.56618 0.10048 0.0
O595 O 0.09047 0.6124 0.07022 0.0
O596 O 0.10263 0.65668 1.01651 0.0
O597 O 0.11587 0.60216 0.99672 0.0
C598 C 0.16572 0.60095 0.13714 0.0
C599 C 0.10531 0.63308 0.98874 0.0
Dy600 Dy 0.09609 0.37645 0.83469 0.0
C601 C 0.22928 0.39241 0.7624 0.0
C602 C 0.03259 0.36542 0.86159 0.0
Dy603 Dy 0.17117 0.3827 0.80644 0.0
O604 O 0.04064 0.38328 0.83066 0.0
O605 O 0.05942 0.35146 0.87639 0.0
O606 O 0.0931 0.43123 0.84456 0.0
O607 O 0.12538 0.41195 0.80038 0.0
C608 C 0.11645 0.43786 0.81898 0.0
C609 C 0.15497 0.32921 0.8518 0.0
O610 O 0.17168 0.4149 0.86203 0.0
O611 O 0.12461 0.39029 0.89074 0.0
O612 O 0.21735 0.36373 0.77431 0.0
O613 O 0.20989 0.41615 0.77583 0.0
O614 O 0.18396 0.34414 0.85318 0.0
O615 O 0.13723 0.34208 0.82487 0.0
O616 O 0.0891 0.36201 0.77043 0.0
O617 O 0.14459 0.36907 0.74935 0.0
C618 C 0.15071 0.41112 0.89276 0.0
C619 C 0.11255 0.36211 0.74229 0.0
Dy620 Dy 0.37563 0.35128 0.58058 0.0
C621 C 0.35574 0.48235 0.5114 0.0
C622 C 0.37821 0.29002 0.61739 0.0
Dy623 Dy 0.36921 0.42619 0.55779 0.0
O624 O 0.3566 0.29945 0.59095 0.0
O625 O 0.40002 0.31395 0.62298 0.0
O626 O 0.33593 0.33937 0.53659 0.0
O627 O 0.33453 0.38514 0.56641 0.0
C628 C 0.32041 0.36771 0.54019 0.0
C629 C 0.42403 0.40936 0.59968 0.0
O630 O 0.3334 0.42426 0.6112 0.0
O631 O 0.356 0.37542 0.637 0.0
O632 O 0.37205 0.48259 0.54513 0.0
O633 O 0.3467 0.45178 0.50404 0.0
O634 O 0.40965 0.43857 0.60192 0.0
O635 O 0.41076 0.39221 0.5724 0.0
O636 O 0.40027 0.34677 0.52111 0.0
O637 O 0.38467 0.40034 0.50039 0.0
C638 C 0.33573 0.40168 0.6407 0.0
C639 C 0.39635 0.36975 0.49288 0.0
C640 C 0.26383 0.08188 0.20497 0.0
C641 C 0.26634 0.10499 0.23671 0.0
C642 C 0.28861 0.07973 0.17492 0.0
C643 C 0.31711 0.10068 0.17512 0.0
H644 H 0.24195 0.06595 0.20259 0.0
H645 H 0.28461 0.06243 0.1505 0.0
S646 S 0.33711 0.16371 0.25349 0.0
N647 N 0.30077 0.14787 0.26762 0.0
N648 N 0.34716 0.14392 0.21195 0.0
C649 C 0.32053 0.12295 0.20773 0.0
C650 C 0.29529 0.12509 0.23822 0.0
C651 C 0.13506 0.06448 0.45897 0.0
C652 C 0.16154 0.06534 0.43091 0.0
C653 C 0.13259 0.0392 0.48814 0.0
C654 C 0.15646 0.0134 0.49097 0.0
H655 H 0.11507 0.0828 0.4576 0.0
H656 H 0.111 0.03927 0.50773 0.0
S657 S 0.23306 0.00568 0.42857 0.0
N658 N 0.21403 0.03931 0.41082 0.0
N659 N 0.20922 0.99183 0.46534 0.0
C660 C 0.18414 0.01485 0.46478 0.0
C661 C 0.18675 0.04077 0.435 0.0
C662 C 0.22241 0.86566 0.72561 0.0
C663 C 0.24067 0.89402 0.73783 0.0
C664 C 0.19762 0.8677 0.69584 0.0
C665 C 0.18989 0.89821 0.67641 0.0
H666 H 0.22793 0.84133 0.73836 0.0
H667 H 0.18526 0.84466 0.68713 0.0
S668 S 0.22786 0.98078 0.70049 0.0
N669 N 0.24722 0.95431 0.73058 0.0
N670 N 0.20121 0.95807 0.6742 0.0
C671 C 0.20709 0.92708 0.68947 0.0
C672 C 0.23222 0.92502 0.7202 0.0
C673 C 0.33083 0.96698 0.92328 0.0
C674 C 0.35135 0.93824 0.92517 0.0
C675 C 0.33302 0.99269 0.95214 0.0
C676 C 0.35548 0.99071 0.98458 0.0
H677 H 0.31401 0.97048 0.8983 0.0
H678 H 0.31752 0.01476 0.94837 0.0
S679 S 0.41267 0.91954 1.00572 0.0
N680 N 0.39345 0.9086 0.96411 0.0
N681 N 0.39715 0.95649 1.01807 0.0
C682 C 0.37491 0.96142 0.98796 0.0
C683 C 0.37296 0.93538 0.95841 0.0
C684 C 0.29117 0.92561 0.38249 0.0
C685 C 0.31231 0.89816 0.39128 0.0
C686 C 0.26577 0.92345 0.35299 0.0
C687 C 0.25998 0.89357 0.33144 0.0
H688 H 0.29386 0.9488 0.39895 0.0
H689 H 0.24987 0.94505 0.34794 0.0
S690 S 0.30786 0.8143 0.34224 0.0
N691 N 0.32539 0.84003 0.37457 0.0
N692 N 0.27786 0.8362 0.32067 0.0
C693 C 0.28108 0.86619 0.33955 0.0
C694 C 0.30711 0.86842 0.36895 0.0
C695 C 0.36121 0.04101 0.57716 0.0
C696 C 0.35038 0.00805 0.58531 0.0
C697 C 0.35961 0.06654 0.60641 0.0
C698 C 0.34676 0.06038 0.64496 0.0
H699 H 0.3717 0.04698 0.54824 0.0
H700 H 0.36912 0.0912 0.59898 0.0
S701 S 0.31815 0.97771 0.68284 0.0
N702 N 0.32799 0.97049 0.63583 0.0
N703 N 0.32487 0.01807 0.69008 0.0
C704 C 0.3357 0.02758 0.65335 0.0
C705 C 0.33753 0.0016 0.62377 0.0
C706 C 0.21852 0.08093 0.89534 0.0
C707 C 0.19064 0.10268 0.89451 0.0
C708 C 0.24421 0.0829 0.86641 0.0
C709 C 0.24312 0.10644 0.83501 0.0
H710 H 0.22133 0.0631 0.91946 0.0
H711 H 0.26553 0.06626 0.86925 0.0
S712 S 0.17498 0.16799 0.81738 0.0
N713 N 0.16311 0.14771 0.85792 0.0
N714 N 0.21103 0.15106 0.80402 0.0
C715 C 0.21485 0.12743 0.83285 0.0
C716 C 0.18879 0.12564 0.8624 0.0
C717 C 0.13161 0.93738 0.10795 0.0
C718 C 0.15582 0.9374 0.13879 0.0
C719 C 0.1295 0.96367 0.07984 0.0
C720 C 0.15137 0.99134 0.08117 0.0
H721 H 0.11324 0.91746 0.10623 0.0
H722 H 0.10976 0.9628 0.05768 0.0
S723 S 0.221 0.00295 0.15338 0.0
N724 N 0.20357 0.96717 0.16686 0.0
N725 N 0.19946 0.01613 0.11441 0.0
C726 C 0.17658 0.9911 0.11066 0.0
C727 C 0.17882 0.96431 0.13922 0.0
C728 C 0.74302 0.92076 0.86242 0.0
C729 C 0.74111 0.89738 0.83088 0.0
C730 C 0.7176 0.92322 0.89167 0.0
C731 C 0.68903 0.90238 0.89084 0.0
H732 H 0.76488 0.93669 0.86529 0.0
H733 H 0.72113 0.9407 0.91602 0.0
S734 S 0.67049 0.83878 0.81263 0.0
N735 N 0.70719 0.85436 0.79945 0.0
N736 N 0.65962 0.85895 0.8536 0.0
C737 C 0.68623 0.87986 0.8584 0.0
C738 C 0.71213 0.87736 0.82874 0.0
C739 C 0.83249 0.9941 0.61628 0.0
C740 C 0.85322 0.99118 0.58238 0.0
C741 C 0.82979 0.96808 0.64466 0.0
C742 C 0.84816 0.93806 0.64079 0.0
H743 H 0.81889 0.01716 0.62157 0.0
H744 H 0.81447 0.97231 0.67081 0.0
S745 S 0.90401 0.91655 0.55579 0.0
N746 N 0.89062 0.95472 0.54528 0.0
N747 N 0.88612 0.90623 0.59847 0.0
C748 C 0.86791 0.93429 0.6061 0.0
C749 C 0.87031 0.96067 0.57701 0.0
C750 C 0.75712 0.08429 0.369 0.0
C751 C 0.76095 0.10358 0.33402 0.0
C752 C 0.78282 0.08186 0.39779 0.0
C753 C 0.81351 0.09898 0.39323 0.0
H754 H 0.73358 0.07171 0.37478 0.0
H755 H 0.77788 0.06769 0.42473 0.0
S756 S 0.83717 0.1514 0.30593 0.0
N757 N 0.79872 0.13875 0.29564 0.0
N758 N 0.84667 0.13467 0.34953 0.0
C759 C 0.81804 0.11753 0.35772 0.0
C760 C 0.79195 0.11971 0.32826 0.0
C761 C 0.67182 0.00881 0.11525 0.0
C762 C 0.65018 0.01168 0.08208 0.0
C763 C 0.67379 0.03408 0.14476 0.0
C764 C 0.65415 0.06345 0.14259 0.0
H765 H 0.68668 0.98632 0.11916 0.0
H766 H 0.68984 0.02983 0.17031 0.0
S767 S 0.59544 0.0846 0.06009 0.0
N768 N 0.61023 0.04736 0.04781 0.0
N769 N 0.61387 0.09457 0.10252 0.0
C770 C 0.63344 0.06716 0.10864 0.0
C771 C 0.63148 0.04145 0.07867 0.0
C772 C 0.71728 0.12553 0.73233 0.0
C773 C 0.74333 0.1018 0.73428 0.0
C774 C 0.69216 0.12389 0.70273 0.0
C775 C 0.69172 0.09841 0.67335 0.0
H776 H 0.71672 0.14623 0.75322 0.0
H777 H 0.67343 0.14352 0.70234 0.0
S778 S 0.75303 0.02849 0.66689 0.0
N779 N 0.76607 0.05077 0.70538 0.0
N780 N 0.71923 0.04768 0.65002 0.0
C781 C 0.71698 0.07374 0.67595 0.0
C782 C 0.74261 0.07544 0.70619 0.0
C783 C 0.62825 0.9646 0.48241 0.0
C784 C 0.65066 0.99186 0.48204 0.0
C785 C 0.6297 0.93916 0.4532 0.0
C786 C 0.65376 0.93956 0.42221 0.0
H787 H 0.6086 0.96346 0.50466 0.0
H788 H 0.611 0.91951 0.45436 0.0
S789 S 0.72053 0.00374 0.41018 0.0
N790 N 0.69932 0.01643 0.44966 0.0
N791 N 0.70217 0.96887 0.39519 0.0
C792 C 0.67738 0.9659 0.42274 0.0
C793 C 0.67577 0.99192 0.4524 0.0
C794 C 0.78309 0.92043 0.16988 0.0
C795 C 0.81192 0.90007 0.1724 0.0
C796 C 0.75734 0.91867 0.19874 0.0
C797 C 0.75928 0.89669 0.23165 0.0
H798 H 0.77958 0.93682 0.14448 0.0
H799 H 0.73526 0.93408 0.19456 0.0
S800 S 0.83055 0.84005 0.25436 0.0
N801 N 0.84155 0.85864 0.21236 0.0
N802 N 0.79352 0.85561 0.26618 0.0
C803 C 0.78857 0.87732 0.23552 0.0
C804 C 0.81471 0.87893 0.20607 0.0
C805 C 0.82939 0.03506 0.92538 0.0
C806 C 0.85183 0.06242 0.92573 0.0
C807 C 0.83104 0.0094 0.9544 0.0
C808 C 0.85517 0.00987 0.98518 0.0
H809 H 0.81124 0.03262 0.90155 0.0
H810 H 0.81389 0.98845 0.9519 0.0
S811 S 0.91808 0.07697 1.00195 0.0
N812 N 0.89765 0.08917 0.96171 0.0
N813 N 0.90072 0.04114 1.01544 0.0
C814 C 0.87683 0.03767 0.98687 0.0
C815 C 0.87516 0.06381 0.95745 0.0
C816 C 0.79039 0.60967 0.73733 0.0
C817 C 0.75646 0.60401 0.72757 0.0
C818 C 0.81599 0.60745 0.70816 0.0
C819 C 0.80881 0.59886 0.66823 0.0
H820 H 0.79716 0.61648 0.76752 0.0
H821 H 0.84158 0.61285 0.71684 0.0
S822 S 0.72388 0.58555 0.62609 0.0
N823 N 0.71717 0.5919 0.67403 0.0
N824 N 0.7649 0.58719 0.62018 0.0
C825 C 0.77504 0.59324 0.65819 0.0
C826 C 0.74904 0.59591 0.68756 0.0
C827 C 0.6724 0.53645 0.9244 0.0
C828 C 0.65183 0.56522 0.92507 0.0
C829 C 0.67057 0.51178 0.95463 0.0
C830 C 0.64816 0.51467 0.98705 0.0
H831 H 0.68915 0.53218 0.8995 0.0
H832 H 0.68619 0.4897 0.95185 0.0
S833 S 0.59091 0.58636 1.0053 0.0
N834 N 0.60989 0.59599 0.96308 0.0
N835 N 0.60649 0.54982 1.01911 0.0
C836 C 0.62851 0.54391 0.98901 0.0
C837 C 0.63033 0.56904 0.95833 0.0
C838 C 0.71135 0.4298 0.18474 0.0
C839 C 0.68641 0.40491 0.18033 0.0
C840 C 0.73712 0.4269 0.21366 0.0
C841 C 0.73927 0.39882 0.23921 0.0
H842 H 0.71184 0.45106 0.16466 0.0
H843 H 0.75631 0.44608 0.21479 0.0
S844 S 0.67857 0.32847 0.24383 0.0
N845 N 0.66427 0.35267 0.20777 0.0
N846 N 0.71271 0.34717 0.2604 0.0
C847 C 0.71375 0.37469 0.23648 0.0
C848 C 0.68735 0.37777 0.20765 0.0
C849 C 0.83296 0.49167 0.45066 0.0
C850 C 0.85388 0.48929 0.4844 0.0
C851 C 0.83025 0.46529 0.42291 0.0
C852 C 0.84858 0.43524 0.42724 0.0
H853 H 0.8191 0.51453 0.445 0.0
H854 H 0.81471 0.46926 0.39686 0.0
S855 S 0.90532 0.41532 0.51194 0.0
N856 N 0.89182 0.45358 0.52179 0.0
N857 N 0.88712 0.40424 0.46972 0.0
C858 C 0.86868 0.43207 0.46172 0.0
C859 C 0.87121 0.45893 0.4902 0.0
C860 C 0.76002 0.4204 0.86014 0.0
C861 C 0.7605 0.39677 0.8289 0.0
C862 C 0.78607 0.42223 0.88847 0.0
C863 C 0.81395 0.40045 0.88711 0.0
H864 H 0.7388 0.4371 0.86349 0.0
H865 H 0.78354 0.44011 0.91258 0.0
S866 S 0.8285 0.33541 0.80949 0.0
N867 N 0.79218 0.35225 0.79704 0.0
N868 N 0.84096 0.35553 0.84986 0.0
C869 C 0.81532 0.37753 0.85499 0.0
C870 C 0.78873 0.37573 0.8261 0.0
C871 C 0.82233 0.53944 0.13006 0.0
C872 C 0.84796 0.56353 0.13514 0.0
C873 C 0.82456 0.51401 0.10064 0.0
C874 C 0.85266 0.51133 0.07522 0.0
H875 H 0.80095 0.53936 0.14994 0.0
H876 H 0.80477 0.49547 0.09897 0.0
S877 S 0.92508 0.56964 0.07259 0.0
N878 N 0.90114 0.58423 0.10873 0.0
N879 N 0.90533 0.53642 0.0551 0.0
C880 C 0.87763 0.53598 0.07872 0.0
C881 C 0.87526 0.56204 0.10809 0.0
C882 C 0.73987 0.5789 0.3603 0.0
C883 C 0.73746 0.60116 0.32766 0.0
C884 C 0.71482 0.57732 0.3901 0.0
C885 C 0.68615 0.59801 0.38879 0.0
H886 H 0.76189 0.56327 0.36364 0.0
H887 H 0.71876 0.56077 0.41526 0.0
S888 S 0.66608 0.6584 0.30762 0.0
N889 N 0.70274 0.64265 0.29458 0.0
N890 N 0.65592 0.63973 0.34986 0.0
C891 C 0.68277 0.61926 0.35525 0.0
C892 C 0.70826 0.62082 0.32498 0.0
C893 C 0.6225 0.44309 0.61616 0.0
C894 C 0.64992 0.4401 0.64266 0.0
C895 C 0.62124 0.46814 0.58653 0.0
C896 C 0.64735 0.4915 0.58164 0.0
H897 H 0.60108 0.42658 0.61897 0.0
H898 H 0.59904 0.46977 0.56805 0.0
S899 S 0.7265 0.49311 0.63997 0.0
N900 N 0.70503 0.46186 0.65975 0.0
N901 N 0.70282 0.50832 0.60385 0.0
C902 C 0.67565 0.48794 0.60652 0.0
C903 C 0.6769 0.46248 0.63695 0.0
C904 C 0.21229 0.42254 0.38456 0.0
C905 C 0.18679 0.39815 0.38775 0.0
C906 C 0.23702 0.42086 0.35441 0.0
C907 C 0.23762 0.39471 0.32612 0.0
H908 H 0.21398 0.44251 0.40634 0.0
H909 H 0.2565 0.43969 0.35399 0.0
S910 S 0.17525 0.32593 0.31865 0.0
N911 N 0.1627 0.34808 0.35743 0.0
N912 N 0.20917 0.34497 0.30184 0.0
C913 C 0.2116 0.37094 0.32789 0.0
C914 C 0.1863 0.37266 0.35836 0.0
C915 C 0.38276 0.44764 0.12269 0.0
C916 C 0.35169 0.43669 0.13825 0.0
C917 C 0.3849 0.47214 0.09268 0.0
C918 C 0.35613 0.48713 0.07633 0.0
H919 H 0.40607 0.43801 0.13464 0.0
H920 H 0.40958 0.48005 0.08301 0.0
S921 S 0.2684 0.46419 0.10154 0.0
N922 N 0.29121 0.44079 0.13183 0.0
N923 N 0.2952 0.48676 0.07517 0.0
C924 C 0.32475 0.47557 0.09017 0.0
C925 C 0.32255 0.4505 0.12112 0.0
C926 C 0.28954 0.62681 0.82937 0.0
C927 C 0.26358 0.60305 0.82634 0.0
C928 C 0.31413 0.62474 0.85951 0.0
C929 C 0.31405 0.5988 0.88831 0.0
H930 H 0.29041 0.64781 0.80891 0.0
H931 H 0.33286 0.64435 0.86079 0.0
S932 S 0.25213 0.52921 0.8926 0.0
N933 N 0.24004 0.55185 0.85397 0.0
N934 N 0.28584 0.548 0.91041 0.0
C935 C 0.2888 0.57419 0.88473 0.0
C936 C 0.26374 0.57631 0.85394 0.0
C937 C 0.12936 0.56314 0.60654 0.0
C938 C 0.15627 0.56451 0.63402 0.0
C939 C 0.12693 0.53781 0.57735 0.0
C940 C 0.15115 0.51237 0.57419 0.0
H941 H 0.1091 0.58114 0.60836 0.0
H942 H 0.10508 0.53743 0.55819 0.0
S943 S 0.22897 0.50624 0.63463 0.0
N944 N 0.20962 0.53953 0.65276 0.0
N945 N 0.20469 0.49183 0.59862 0.0
C946 C 0.17915 0.51433 0.59981 0.0
C947 C 0.18184 0.54039 0.62937 0.0
C948 C 0.1879 0.6218 0.20346 0.0
C949 C 0.19008 0.59881 0.17145 0.0
C950 C 0.21299 0.62397 0.23307 0.0
C951 C 0.24161 0.60334 0.23212 0.0
H952 H 0.16699 0.63905 0.20518 0.0
H953 H 0.21035 0.64266 0.25628 0.0
S954 S 0.25989 0.53864 0.15564 0.0
N955 N 0.22349 0.55439 0.14168 0.0
N956 N 0.27031 0.55863 0.19685 0.0
C957 C 0.24372 0.57961 0.20107 0.0
C958 C 0.21813 0.57727 0.17098 0.0
C959 C 0.1729 0.46414 0.92496 0.0
C960 C 0.15235 0.43537 0.92721 0.0
C961 C 0.17073 0.49017 0.95336 0.0
C962 C 0.1479 0.48879 0.98543 0.0
H963 H 0.18991 0.46739 0.90009 0.0
H964 H 0.18636 0.51212 0.94932 0.0
S965 S 0.0903 0.4181 1.00753 0.0
N966 N 0.10983 0.40644 0.96642 0.0
N967 N 0.10578 0.45523 1.01912 0.0
C968 C 0.12822 0.45966 0.98911 0.0
C969 C 0.13045 0.43307 0.96027 0.0
C970 C 0.28763 0.42742 0.68084 0.0
C971 C 0.3111 0.40133 0.67506 0.0
C972 C 0.26209 0.42519 0.71017 0.0
C973 C 0.25849 0.39652 0.73455 0.0
H974 H 0.28846 0.44944 0.66197 0.0
H975 H 0.24428 0.44557 0.71273 0.0
S976 S 0.31368 0.32166 0.73339 0.0
N977 N 0.32933 0.3463 0.69855 0.0
N978 N 0.28135 0.34216 0.75192 0.0
C979 C 0.28211 0.37072 0.72976 0.0
C980 C 0.30834 0.37311 0.7006 0.0
C981 C 0.36869 0.54134 0.48746 0.0
C982 C 0.35068 0.51117 0.4832 0.0
C983 C 0.36674 0.56706 0.45851 0.0
C984 C 0.34621 0.56409 0.42432 0.0
H985 H 0.38541 0.54463 0.51259 0.0
H986 H 0.38218 0.58915 0.4625 0.0
S987 S 0.2929 0.49058 0.3999 0.0
N988 N 0.31098 0.48029 0.4424 0.0
N989 N 0.30676 0.52844 0.38896 0.0
C990 C 0.32711 0.53452 0.42063 0.0
C991 C 0.32951 0.50819 0.44971 0.0
C992 C 0.15337 0.23542 0.43966 0.0
C993 C 0.12557 0.25549 0.42971 0.0
C994 C 0.16408 0.20939 0.41479 0.0
C995 C 0.14711 0.2019 0.37925 0.0
H996 H 0.16796 0.24063 0.46619 0.0
H997 H 0.18615 0.19528 0.42331 0.0
S998 S 0.07104 0.24481 0.34116 0.0
N999 N 0.08011 0.26492 0.38286 0.0
N1000 N 0.09973 0.21521 0.33641 0.0
C1001 C 0.11825 0.22062 0.36977 0.0
C1002 C 0.1076 0.2476 0.39493 0.0
C1003 C 0.04366 0.91456 0.66167 0.0
C1004 C 0.05135 0.89663 0.62684 0.0
C1005 C 0.01646 0.90551 0.6857 0.0
C1006 C 0.99552 0.87836 0.67577 0.0
H1007 H 0.05852 0.9361 0.67027 0.0
H1008 H 0.01127 0.92073 0.71175 0.0
S1009 S 0.006 0.8219 0.58887 0.0
N1010 N 0.03695 0.84919 0.58456 0.0
N1011 N 0.98527 0.83255 0.6296 0.0
C1012 C 0.00346 0.85947 0.64168 0.0
C1013 C 0.03152 0.86854 0.61727 0.0
C1014 C 0.3823 0.777 0.86711 0.0
C1015 C 0.35822 0.80047 0.87991 0.0
C1016 C 0.39138 0.74958 0.89127 0.0
C1017 C 0.37713 0.74512 0.92931 0.0
H1018 H 0.39322 0.7791 0.83764 0.0
H1019 H 0.40878 0.73122 0.87956 0.0
S1020 S 0.3164 0.80233 0.97859 0.0
N1021 N 0.32265 0.81914 0.93425 0.0
N1022 N 0.34012 0.76845 0.97993 0.0
C1023 C 0.35457 0.76965 0.94325 0.0
C1024 C 0.34499 0.7971 0.91846 0.0
C1025 C 0.46291 0.08874 0.15846 0.0
C1026 C 0.45554 0.10692 0.12373 0.0
C1027 C 0.48914 0.09832 0.18365 0.0
C1028 C 0.50949 0.12622 0.17493 0.0
H1029 H 0.44851 0.06663 0.16615 0.0
H1030 H 0.49414 0.08288 0.20956 0.0
S1031 S 0.49928 0.18372 0.08896 0.0
N1032 N 0.46937 0.15549 0.08297 0.0
N1033 N 0.51939 0.17306 0.13013 0.0
C1034 C 0.50182 0.14534 0.14095 0.0
C1035 C 0.47468 0.13579 0.1154 0.0
C1036 C 0.16649 0.79241 0.15296 0.0
C1037 C 0.14612 0.8012 0.18543 0.0
C1038 C 0.15831 0.76533 0.12826 0.0
C1039 C 0.12953 0.74568 0.13513 0.0
H1040 H 0.18929 0.80625 0.14684 0.0
H1041 H 0.17537 0.75918 0.10422 0.0
S1042 S 0.0666 0.75947 0.21476 0.0
N1043 N 0.09486 0.78912 0.22212 0.0
N1044 N 0.07961 0.73799 0.17559 0.0
C1045 C 0.10826 0.75482 0.16667 0.0
C1046 C 0.11653 0.78262 0.19186 0.0
C1047 C 0.50211 0.86261 0.42764 0.0
C1048 C 0.50592 0.87647 0.3893 0.0
C1049 C 0.47525 0.87218 0.45243 0.0
C1050 C 0.45182 0.8964 0.43995 0.0
H1051 H 0.52055 0.84516 0.43907 0.0
H1052 H 0.47358 0.86155 0.4821 0.0
S1053 S 0.44815 0.93708 0.34067 0.0
N1054 N 0.48177 0.91305 0.33873 0.0
N1055 N 0.4323 0.93154 0.38563 0.0
C1056 C 0.45451 0.90921 0.40114 0.0
C1057 C 0.48129 0.89908 0.37571 0.0
C1058 C 0.34422 0.24027 0.63573 0.0
C1059 C 0.3734 0.25945 0.6419 0.0
C1060 C 0.33594 0.21346 0.6607 0.0
C1061 C 0.35663 0.20433 0.69274 0.0
H1062 H 0.32695 0.24653 0.61195 0.0
H1063 H 0.31286 0.19997 0.65497 0.0
S1064 S 0.43711 0.24485 0.72042 0.0
N1065 N 0.42385 0.2666 0.68156 0.0
N1066 N 0.4086 0.21552 0.72832 0.0
C1067 C 0.38657 0.22245 0.69858 0.0
C1068 C 0.39487 0.25017 0.67321 0.0
C1069 C 0.02791 0.13158 0.95344 0.0
C1070 C 0.05253 0.10867 0.94071 0.0
C1071 C 1.00088 0.14035 0.92848 0.0
C1072 C 0.99801 0.12698 0.88976 0.0
H1073 H 0.02875 0.14164 0.98342 0.0
H1074 H 0.98153 0.1567 0.9401 0.0
S1075 S 0.05898 0.07006 0.84047 0.0
N1076 N 0.07417 0.07553 0.88576 0.0
N1077 N 0.02426 0.0925 0.83866 0.0
C1078 C 0.02378 0.10582 0.87597 0.0
C1079 C 0.05081 0.09651 0.90151 0.0
C1080 C 0.88174 0.77586 0.70041 0.0
C1081 C 0.85814 0.79976 0.68748 0.0
C1082 C 0.89094 0.74864 0.67592 0.0
C1083 C 0.87729 0.74488 0.63746 0.0
H1084 H 0.89205 0.77738 0.73024 0.0
H1085 H 0.90782 0.72984 0.68772 0.0
S1086 S 0.81869 0.80395 0.58758 0.0
N1087 N 0.82413 0.81988 0.63251 0.0
N1088 N 0.84188 0.76971 0.58621 0.0
C1089 C 0.85545 0.77001 0.62339 0.0
C1090 C 0.84573 0.7972 0.64849 0.0
C1091 C 0.99366 0.08984 0.38866 0.0
C1092 C 0.01242 0.11935 0.39424 0.0
C1093 C 0.96599 0.08232 0.41264 0.0
C1094 C 0.95569 0.10405 0.44322 0.0
H1095 H 1.00082 0.07179 0.36607 0.0
H1096 H 0.95284 0.05898 0.4074 0.0
S1097 S 0.99472 0.18581 0.4686 0.0
N1098 N 0.01781 0.17134 0.43148 0.0
N1099 N 0.96539 0.15733 0.47664 0.0
C1100 C 0.97344 0.13428 0.4484 0.0
C1101 C 0.0019 0.14193 0.42391 0.0
C1102 C 0.66097 0.24145 0.13581 0.0
C1103 C 0.63162 0.26031 0.14205 0.0
C1104 C 0.66929 0.21436 0.16041 0.0
C1105 C 0.64854 0.20476 0.19225 0.0
H1106 H 0.67829 0.24812 0.11222 0.0
H1107 H 0.69245 0.20107 0.1546 0.0
S1108 S 0.56771 0.24451 0.22009 0.0
N1109 N 0.58093 0.26663 0.1815 0.0
N1110 N 0.59644 0.21539 0.22782 0.0
C1111 C 0.61851 0.22267 0.1982 0.0
C1112 C 0.61005 0.25051 0.1731 0.0
C1113 C 0.5011 0.86234 0.92633 0.0
C1114 C 0.49729 0.87596 0.88787 0.0
C1115 C 0.5278 0.87223 0.95115 0.0
C1116 C 0.55112 0.89656 0.93859 0.0
H1117 H 0.48275 0.84481 0.93784 0.0
H1118 H 0.52944 0.86174 0.98088 0.0
S1119 S 0.55468 0.93691 0.83912 0.0
N1120 N 0.52124 0.9126 0.8372 0.0
N1121 N 0.57049 0.93166 0.88415 0.0
C1122 C 0.54843 0.9092 0.8997 0.0
C1123 C 0.52176 0.89875 0.87424 0.0
C1124 C 0.85608 0.23087 0.94022 0.0
C1125 C 0.88281 0.25226 0.92992 0.0
C1126 C 0.84544 0.20527 0.91456 0.0
C1127 C 0.86147 0.19958 0.8779 0.0
H1128 H 0.84201 0.23497 0.96741 0.0
H1129 H 0.82403 0.19022 0.92325 0.0
S1130 S 0.93523 0.24591 0.83895 0.0
N1131 N 0.92669 0.26444 0.88181 0.0
N1132 N 0.90731 0.21559 0.83401 0.0
C1133 C 0.88955 0.21938 0.86827 0.0
C1134 C 0.90009 0.24589 0.89419 0.0
C1135 C 0.50045 0.13889 0.63685 0.0
C1136 C 0.4961 0.12474 0.67495 0.0
C1137 C 0.52778 0.12967 0.61264 0.0
C1138 C 0.55117 0.10551 0.62545 0.0
H1139 H 0.48213 0.15636 0.62519 0.0
H1140 H 0.52989 0.14055 0.58314 0.0
S1141 S 0.55337 0.06403 0.72428 0.0
N1142 N 0.51959 0.08786 0.72568 0.0
N1143 N 0.56996 0.07003 0.67978 0.0
C1144 C 0.54789 0.09235 0.66401 0.0
C1145 C 0.52061 0.10214 0.68888 0.0
C1146 C 0.6198 0.77539 0.36081 0.0
C1147 C 0.64345 0.79929 0.37359 0.0
C1148 C 0.61022 0.74856 0.38567 0.0
C1149 C 0.62343 0.74529 0.4244 0.0
H1150 H 0.60966 0.77667 0.33089 0.0
H1151 H 0.59326 0.72975 0.37403 0.0
S1152 S 0.68254 0.80428 0.47363 0.0
N1153 N 0.6775 0.81971 0.42837 0.0
N1154 N 0.6589 0.77035 0.47547 0.0
C1155 C 0.64549 0.77035 0.4382 0.0
C1156 C 0.65569 0.79708 0.41268 0.0
C1157 C 0.95643 0.90642 0.16252 0.0
C1158 C 0.95025 0.88989 0.12631 0.0
C1159 C 0.98245 0.89623 0.18777 0.0
C1160 C 0.00377 0.86946 0.17748 0.0
H1161 H 0.94148 0.9279 0.17114 0.0
H1162 H 0.98692 0.91068 0.2146 0.0
S1163 S 0.99595 0.81554 0.08796 0.0
N1164 N 0.96557 0.84338 0.08305 0.0
N1165 N 0.01519 0.8248 0.13016 0.0
C1166 C 0.99685 0.8516 0.14232 0.0
C1167 C 0.96993 0.8617 0.1168 0.0
C1168 C 0.62111 0.72611 0.86508 0.0
C1169 C 0.64694 0.7039 0.8761 0.0
C1170 C 0.61174 0.75294 0.89004 0.0
C1171 C 0.62741 0.75793 0.92717 0.0
H1172 H 0.60889 0.72344 0.83642 0.0
H1173 H 0.5928 0.77034 0.87972 0.0
S1174 S 0.69379 0.70423 0.97157 0.0
N1175 N 0.68625 0.68721 0.92765 0.0
N1176 N 0.66826 0.73664 0.97484 0.0
C1177 C 0.65203 0.73472 0.93926 0.0
C1178 C 0.66192 0.70797 0.91364 0.0
C1179 C 0.54182 0.41553 0.16397 0.0
C1180 C 0.54982 0.39723 0.12951 0.0
C1181 C 0.51531 0.4059 0.18872 0.0
C1182 C 0.49532 0.3778 0.17984 0.0
H1183 H 0.55584 0.43787 0.17167 0.0
H1184 H 0.50972 0.42151 0.21431 0.0
S1185 S 0.50747 0.31968 0.0948 0.0
N1186 N 0.53713 0.34821 0.08906 0.0
N1187 N 0.48667 0.33043 0.13546 0.0
C1188 C 0.50378 0.3584 0.14632 0.0
C1189 C 0.53119 0.36807 0.12119 0.0
C1190 C 0.88017 0.27853 0.36822 0.0
C1191 C 0.85496 0.30098 0.3806 0.0
C1192 C 0.88985 0.2513 0.39227 0.0
C1193 C 0.87509 0.24602 0.42982 0.0
H1194 H 0.89168 0.28135 0.33915 0.0
H1195 H 0.90823 0.23376 0.38087 0.0
S1196 S 0.81115 0.30043 0.47798 0.0
N1197 N 0.81756 0.31781 0.43397 0.0
N1198 N 0.83615 0.2675 0.47965 0.0
C1199 C 0.85124 0.26952 0.44338 0.0
C1200 C 0.84104 0.29676 0.41862 0.0
C1201 C 0.97492 0.63024 0.61389 0.0
C1202 C 0.95273 0.60427 0.62458 0.0
C1203 C 0.00237 0.63869 0.63836 0.0
C1204 C 0.00816 0.62177 0.67456 0.0
H1205 H 0.97177 0.64327 0.58579 0.0
H1206 H 0.01973 0.65776 0.62823 0.0
S1207 S 0.95446 0.55515 0.71846 0.0
N1208 N 0.9366 0.56395 0.67535 0.0
N1209 N 0.98734 0.58011 0.72151 0.0
C1210 C 0.9849 0.59716 0.68651 0.0
C1211 C 0.95741 0.58832 0.66146 0.0
C1212 C 0.66074 0.29238 0.6571 0.0
C1213 C 0.64227 0.29953 0.69169 0.0
C1214 C 0.65227 0.26544 0.63244 0.0
C1215 C 0.62522 0.2441 0.6415 0.0
H1216 H 0.68232 0.30747 0.64916 0.0
H1217 H 0.66794 0.26071 0.60665 0.0
S1218 S 0.56719 0.25335 0.72715 0.0
N1219 N 0.5942 0.28445 0.73258 0.0
N1220 N 0.57871 0.23305 0.68643 0.0
C1221 C 0.60571 0.25153 0.67528 0.0
C1222 C 0.61415 0.27944 0.70031 0.0
C1223 C 0.95383 0.40825 0.89774 0.0
C1224 C 0.94733 0.39212 0.9341 0.0
C1225 C 0.97998 0.39756 0.8729 0.0
C1226 C 1.00097 0.37066 0.8838 0.0
H1227 H 0.93902 0.42971 0.88869 0.0
H1228 H 0.98476 0.41166 0.84588 0.0
S1229 S 0.99253 0.31808 0.97435 0.0
N1230 N 0.96234 0.34619 0.97848 0.0
N1231 N 0.0119 0.32657 0.93201 0.0
C1232 C 0.99377 0.35332 0.91919 0.0
C1233 C 0.96687 0.36396 0.94433 0.0
C1234 C 0.84792 0.73296 0.12679 0.0
C1235 C 0.875 0.754 0.13665 0.0
C1236 C 0.83822 0.7066 0.1517 0.0
C1237 C 0.85551 0.69978 0.18722 0.0
H1238 H 0.83309 0.73762 0.1003 0.0
H1239 H 0.81663 0.69174 0.14326 0.0
S1240 S 0.93029 0.74517 0.22483 0.0
N1241 N 0.92038 0.76496 0.18317 0.0
N1242 N 0.90259 0.71464 0.22981 0.0
C1243 C 0.88376 0.71943 0.19655 0.0
C1244 C 0.89342 0.74674 0.1713 0.0
C1245 C 0.52603 0.63018 0.45206 0.0
C1246 C 0.54961 0.60605 0.4397 0.0
C1247 C 0.49899 0.63935 0.42735 0.0
C1248 C 0.49506 0.62514 0.38922 0.0
H1249 H 0.52776 0.64108 0.48157 0.0
H1250 H 0.48051 0.65679 0.43871 0.0
S1251 S 0.55302 0.56457 0.3409 0.0
N1252 N 0.5691 0.57062 0.38565 0.0
N1253 N 0.51917 0.58828 0.33895 0.0
C1254 C 0.51976 0.60258 0.37574 0.0
C1255 C 0.54679 0.59289 0.40107 0.0
C1256 C 0.35247 0.26637 0.12707 0.0
C1257 C 0.37909 0.24499 0.13765 0.0
C1258 C 0.34251 0.29277 0.15179 0.0
C1259 C 0.35903 0.2993 0.18792 0.0
H1260 H 0.3382 0.26198 0.10009 0.0
H1261 H 0.32128 0.30787 0.14271 0.0
S1262 S 0.43239 0.25292 0.22769 0.0
N1263 N 0.42321 0.23338 0.18563 0.0
N1264 N 0.40495 0.28375 0.23191 0.0
C1265 C 0.38683 0.27929 0.19804 0.0
C1266 C 0.39676 0.25194 0.17296 0.0
C1267 C 0.50147 0.64013 0.92429 0.0
C1268 C 0.50605 0.62626 0.88609 0.0
C1269 C 0.47427 0.63037 0.94847 0.0
C1270 C 0.45116 0.60598 0.93547 0.0
H1271 H 0.5196 0.65772 0.93614 0.0
H1272 H 0.47207 0.64099 0.97807 0.0
S1273 S 0.44965 0.56503 0.83629 0.0
N1274 N 0.48312 0.58932 0.83511 0.0
N1275 N 0.43291 0.57058 0.88078 0.0
C1276 C 0.45464 0.59314 0.89677 0.0
C1277 C 0.48185 0.6034 0.872 0.0
C1278 C 0.11162 0.75142 0.67177 0.0
C1279 C 0.12465 0.75536 0.63302 0.0
C1280 C 0.12148 0.72433 0.69607 0.0
C1281 C 0.1452 0.70076 0.68266 0.0
H1282 H 0.09472 0.77003 0.68397 0.0
H1283 H 0.11165 0.72271 0.72612 0.0
S1284 S 0.18336 0.69715 0.58199 0.0
N1285 N 0.15966 0.73105 0.58105 0.0
N1286 N 0.17873 0.68111 0.62702 0.0
C1287 C 0.157 0.70346 0.64339 0.0
C1288 C 0.14655 0.73051 0.61847 0.0
C1289 C 0.01866 0.39435 0.37399 0.0
C1290 C 0.99749 0.36778 0.38556 0.0
C1291 C 0.04425 0.40603 0.39904 0.0
C1292 C 0.05015 0.39125 0.43639 0.0
H1293 H 0.01443 0.40748 0.34616 0.0
H1294 H 0.05915 0.42721 0.3893 0.0
S1295 S 0.0044 0.31847 0.47892 0.0
N1296 N 0.98574 0.32544 0.43573 0.0
N1297 N 0.03449 0.34677 0.48245 0.0
C1298 C 0.03052 0.36337 0.44739 0.0
C1299 C 0.00406 0.35176 0.42205 0.0
C1300 C 0.34871 0.73775 0.43374 0.0
C1301 C 0.37676 0.75796 0.42525 0.0
C1302 C 0.33918 0.71155 0.40849 0.0
C1303 C 0.35754 0.704 0.37395 0.0
H1304 H 0.33314 0.74286 0.45949 0.0
H1305 H 0.31694 0.69729 0.41601 0.0
S1306 S 0.43444 0.7476 0.33947 0.0
N1307 N 0.4237 0.76778 0.38057 0.0
N1308 N 0.40624 0.71767 0.33343 0.0
C1309 C 0.38647 0.72305 0.36577 0.0
C1310 C 0.39596 0.75024 0.39133 0.0
C1311 C 0.04084 0.58632 0.15707 0.0
C1312 C 0.04937 0.60644 0.12421 0.0
C1313 C 0.01343 0.59403 0.18139 0.0
C1314 C 0.99306 0.62212 0.17388 0.0
H1315 H 0.05519 0.56398 0.16386 0.0
H1316 H 0.00767 0.57711 0.20572 0.0
S1317 S 0.00578 0.68437 0.09311 0.0
N1318 N 0.03629 0.6569 0.08654 0.0
N1319 N 0.98431 0.67126 0.13229 0.0
C1320 C 0.00184 0.64323 0.14192 0.0
C1321 C 0.03009 0.63542 0.11709 0.0
C1322 C 0.16387 0.2942 0.91235 0.0
C1323 C 0.14419 0.30187 0.87889 0.0
C1324 C 0.15559 0.26751 0.93762 0.0
C1325 C 0.12744 0.24708 0.93032 0.0
H1326 H 0.1862 0.30866 0.91886 0.0
H1327 H 0.17214 0.26226 0.96245 0.0
S1328 S 0.06637 0.25787 0.84803 0.0
N1329 N 0.09414 0.28801 0.84082 0.0
N1330 N 0.07883 0.23744 0.88825 0.0
C1331 C 0.10684 0.25509 0.89772 0.0
C1332 C 0.11516 0.28257 0.87202 0.0
C1333 C 0.49973 0.36279 0.64145 0.0
C1334 C 0.50378 0.37762 0.67924 0.0
C1335 C 0.47312 0.37223 0.61617 0.0
C1336 C 0.45015 0.39725 0.62759 0.0
H1337 H 0.51783 0.34466 0.63077 0.0
H1338 H 0.47132 0.36084 0.58692 0.0
S1339 S 0.44715 0.44066 0.72527 0.0
N1340 N 0.48029 0.41604 0.72824 0.0
N1341 N 0.43126 0.4342 0.68051 0.0
C1342 C 0.45303 0.41102 0.66594 0.0
C1343 C 0.47958 0.40107 0.69183 0.0
C1344 C 0.12495 0.03017 0.23898 0.0
C1345 C 0.13554 0.03849 0.27744 0.0
C1346 C 0.12295 0.99679 0.22748 0.0
C1347 C 0.13095 0.97116 0.25455 0.0
H1348 H 0.11586 0.04935 0.21879 0.0
H1349 H 0.11261 0.99101 0.19839 0.0
S1350 S 0.1652 0.98061 0.35634 0.0
N1351 N 0.15876 0.01931 0.34059 0.0
N1352 N 0.15422 0.95601 0.31902 0.0
C1353 C 0.14511 0.97927 0.29144 0.0
C1354 C 0.14756 0.01335 0.303 0.0
C1355 C 0.23561 0.8919 0.55538 0.0
C1356 C 0.21596 0.87238 0.52931 0.0
C1357 C 0.27046 0.89012 0.55414 0.0
C1358 C 0.28611 0.86894 0.52679 0.0
H1359 H 0.22416 0.90725 0.57822 0.0
H1360 H 0.28512 0.90462 0.57519 0.0
S1361 S 0.24635 0.81837 0.44719 0.0
N1362 N 0.21473 0.83512 0.47197 0.0
N1363 N 0.28066 0.83206 0.46942 0.0
C1364 C 0.26702 0.85142 0.49859 0.0
C1365 C 0.23165 0.85316 0.49984 0.0
C1366 C 0.41223 0.98103 0.76369 0.0
C1367 C 0.38406 0.96401 0.77843 0.0
C1368 C 0.41318 0.01581 0.76337 0.0
C1369 C 0.38569 0.03455 0.77686 0.0
H1370 H 0.43437 0.96753 0.75407 0.0
H1371 H 0.43563 0.02805 0.7524 0.0
S1372 S 0.30416 0.00215 0.81221 0.0
N1373 N 0.32691 0.96839 0.80338 0.0
N1374 N 0.32837 0.03428 0.8007 0.0
C1375 C 0.35653 0.01804 0.78882 0.0
C1376 C 0.35574 0.98253 0.79002 0.0
C1377 C 0.23483 0.16321 0.04894 0.0
C1378 C 0.21695 0.13417 0.03867 0.0
C1379 C 0.26961 0.16359 0.04756 0.0
C1380 C 0.28755 0.13474 0.03675 0.0
H1381 H 0.22198 0.18628 0.05647 0.0
H1382 H 0.2825 0.18658 0.05541 0.0
S1383 S 0.25273 0.05141 1.01181 0.0
N1384 N 0.21964 0.07531 1.01979 0.0
N1385 N 0.28557 0.07582 1.01919 0.0
C1386 C 0.27019 0.10508 1.02869 0.0
C1387 C 0.23466 0.10482 1.02923 0.0
C1388 C 0.86235 0.01921 0.76194 0.0
C1389 C 0.88356 0.0344 0.78965 0.0
C1390 C 0.8602 0.98437 0.76028 0.0
C1391 C 0.8794 0.96428 0.7862 0.0
H1392 H 0.84828 0.03421 0.74082 0.0
H1393 H 0.84496 0.97324 0.73713 0.0
S1394 S 0.93307 0.99337 0.86927 0.0
N1395 N 0.91986 0.02803 0.84739 0.0
N1396 N 0.91618 0.96215 0.84391 0.0
C1397 C 0.89848 0.97952 0.81612 0.0
C1398 C 0.90055 0.01485 0.81787 0.0
C1399 C 0.73375 0.16473 0.52401 0.0
C1400 C 0.71609 0.13484 0.53073 0.0
C1401 C 0.7685 0.16508 0.52451 0.0
C1402 C 0.78663 0.13539 0.53061 0.0
H1403 H 0.72078 0.18834 0.51988 0.0
H1404 H 0.78116 0.18874 0.51941 0.0
S1405 S 0.7523 0.05022 0.546 0.0
N1406 N 0.71907 0.07468 0.54233 0.0
N1407 N 0.78501 0.07516 0.54057 0.0
C1408 C 0.76945 0.10512 0.53549 0.0
C1409 C 0.73393 0.10486 0.53613 0.0
C1410 C 0.5867 0.01983 0.28481 0.0
C1411 C 0.61718 0.03735 0.28405 0.0
C1412 C 0.5862 0.98509 0.28427 0.0
C1413 C 0.61619 0.96672 0.28422 0.0
H1414 H 0.56291 0.03293 0.28453 0.0
H1415 H 0.56205 0.97267 0.2849 0.0
S1416 S 0.7025 1.00088 0.28367 0.0
N1417 N 0.678 0.03423 0.28292 0.0
N1418 N 0.67708 0.9682 0.28471 0.0
C1419 C 0.64686 0.98384 0.28435 0.0
C1420 C 0.64736 0.01941 0.28366 0.0
C1421 C 0.73325 0.89316 0.04797 0.0
C1422 C 0.71627 0.86824 1.02685 0.0
C1423 C 0.76817 0.89383 0.04795 0.0
C1424 C 0.7866 0.86958 1.02672 0.0
H1425 H 0.71956 0.91154 0.0653 0.0
H1426 H 0.78065 0.91237 0.06625 0.0
S1427 S 0.75258 0.80399 0.9598 0.0
N1428 N 0.71929 0.82235 0.97922 0.0
N1429 N 0.78523 0.8235 0.97921 0.0
C1430 C 0.76959 0.84645 1.0027 0.0
C1431 C 0.73418 0.8457 1.00289 0.0
C1432 C 0.58814 0.51961 0.79497 0.0
C1433 C 0.61726 0.53748 0.78513 0.0
C1434 C 0.58828 0.48485 0.79584 0.0
C1435 C 0.61735 0.46688 0.78594 0.0
H1436 H 0.56513 0.53254 0.80263 0.0
H1437 H 0.56503 0.47209 0.80284 0.0
S1438 S 0.70064 0.50247 0.76104 0.0
N1439 N 0.67639 0.53543 0.7685 0.0
N1440 N 0.67645 0.46938 0.76809 0.0
C1441 C 0.64694 0.4845 0.77719 0.0
C1442 C 0.64691 0.52007 0.77722 0.0
C1443 C 0.75473 0.36867 0.97747 0.0
C1444 C 0.77985 0.37835 1.00442 0.0
C1445 C 0.72121 0.37059 0.98822 0.0
C1446 C 0.71222 0.38278 1.0258 0.0
H1447 H 0.76105 0.3571 0.9492 0.0
H1448 H 0.70246 0.36022 0.96833 0.0
S1449 S 0.76856 0.41758 0.10338 0.0
N1450 N 0.7938 0.40492 0.06743 0.0
N1451 N 0.73022 0.4097 0.0874 0.0
C1452 C 0.73683 0.39657 0.05088 0.0
C1453 C 0.77107 0.39408 0.04015 0.0
C1454 C 0.88232 0.52796 0.32661 0.0
C1455 C 0.87101 0.53705 0.2887 0.0
C1456 C 0.88322 0.49445 0.33766 0.0
C1457 C 0.87343 0.46937 0.31068 0.0
H1458 H 0.89253 0.54662 0.34674 0.0
H1459 H 0.89395 0.48804 0.36637 0.0
S1460 S 0.83708 0.481 0.21022 0.0
N1461 N 0.84544 0.51926 0.2262 0.0
N1462 N 0.84819 0.45568 0.24682 0.0
C1463 C 0.85889 0.47832 0.2743 0.0
C1464 C 0.85747 0.51256 0.26324 0.0
C1465 C 0.73317 0.66365 0.54291 0.0
C1466 C 0.71568 0.63483 0.53099 0.0
C1467 C 0.7679 0.66397 0.54351 0.0
C1468 C 0.78619 0.63526 0.53313 0.0
H1469 H 0.72009 0.68657 0.55053 0.0
H1470 H 0.78045 0.68681 0.55268 0.0
S1471 S 0.75239 0.55238 0.50453 0.0
N1472 N 0.71902 0.57625 0.51099 0.0
N1473 N 0.78493 0.57663 0.51414 0.0
C1474 C 0.76919 0.6058 0.52322 0.0
C1475 C 0.73368 0.60561 0.52171 0.0
C1476 C 0.36268 0.52025 0.25751 0.0
C1477 C 0.37796 0.53506 0.29053 0.0
C1478 C 0.36102 0.48543 0.25465 0.0
C1479 C 0.37502 0.46503 0.28462 0.0
H1480 H 0.35312 0.53555 0.23333 0.0
H1481 H 0.35071 0.4746 0.22771 0.0
S1482 S 0.41268 0.49281 0.37977 0.0
N1483 N 0.40339 0.52782 0.35587 0.0
N1484 N 0.40074 0.46196 0.35013 0.0
C1485 C 0.38816 0.47978 0.319 0.0
C1486 C 0.38958 0.5151 0.32203 0.0
C1487 C 0.26941 0.60692 0.04817 0.0
C1488 C 0.28588 0.63101 1.02518 0.0
C1489 C 0.2345 0.60563 0.04827 0.0
C1490 C 0.21563 0.62848 1.02543 0.0
H1491 H 0.28345 0.58979 0.06687 0.0
H1492 H 0.22236 0.5879 0.06793 0.0
S1493 S 0.24836 0.69068 0.95328 0.0
N1494 N 0.28201 0.67404 0.97398 0.0
N1495 N 0.21606 0.67178 0.97435 0.0
C1496 C 0.23217 0.65046 0.99952 0.0
C1497 C 0.26756 0.65179 0.99948 0.0
C1498 C 0.11852 0.49715 0.83753 0.0
C1499 C 0.12749 0.47175 0.81061 0.0
C1500 C 0.12018 0.53061 0.82622 0.0
C1501 C 0.1314 0.53926 0.78809 0.0
H1502 H 0.10783 0.49111 0.86638 0.0
H1503 H 0.11051 0.54958 0.8463 0.0
S1504 S 0.16324 0.48209 0.70965 0.0
N1505 N 0.15195 0.45721 0.74658 0.0
N1506 N 0.15598 0.52063 0.72544 0.0
C1507 C 0.14417 0.51437 0.76269 0.0
C1508 C 0.14203 0.48022 0.77403 0.0
C1509 C 0.23111 0.34062 0.54771 0.0
C1510 C 0.2137 0.36937 0.53532 0.0
C1511 C 0.2659 0.34011 0.54787 0.0
C1512 C 0.28425 0.36858 0.53664 0.0
H1513 H 0.21793 0.31787 0.55584 0.0
H1514 H 0.27846 0.31736 0.5573 0.0
S1515 S 0.25065 0.45105 0.50608 0.0
N1516 N 0.21725 0.42742 0.51341 0.0
N1517 N 0.28311 0.4269 0.51633 0.0
C1518 C 0.26732 0.39798 0.52639 0.0
C1519 C 0.23182 0.39829 0.52513 0.0
C1520 C 0.12619 0.16589 0.1363 0.0
C1521 C 0.10274 0.1432 0.12021 0.0
C1522 C 0.13127 0.16839 0.17777 0.0
C1523 C 0.11222 0.14921 0.20471 0.0
H1524 H 0.14256 0.1799 0.11663 0.0
H1525 H 0.15118 0.18438 0.18874 0.0
S1526 S 0.04635 0.08754 0.17778 0.0
N1527 N 0.05991 0.10178 0.13442 0.0
N1528 N 0.06777 0.10801 0.21219 0.0
C1529 C 0.08723 0.12804 0.189 0.0
C1530 C 0.08293 0.12462 0.1468 0.0
C1531 C 0.08407 0.88985 0.42358 0.0
C1532 C 0.09875 0.86607 0.44923 0.0
C1533 C 0.08623 0.88655 0.38185 0.0
C1534 C 0.10406 0.85992 0.3643 0.0
H1535 H 0.07219 0.91198 0.43588 0.0
H1536 H 0.0761 0.90634 0.36328 0.0
S1537 S 0.1467 0.79088 0.41797 0.0
N1538 N 0.13042 0.81419 0.45378 0.0
N1539 N 0.13594 0.80907 0.3756 0.0
C1540 C 0.1179 0.83548 0.38951 0.0
C1541 C 0.11483 0.83825 0.43191 0.0
C1542 C 0.41219 0.88009 0.68455 0.0
C1543 C 0.39504 0.85234 0.70057 0.0
C1544 C 0.41568 0.88435 0.64315 0.0
C1545 C 0.40276 0.86065 0.61616 0.0
H1546 H 0.42101 0.89985 0.70405 0.0
H1547 H 0.4271 0.90719 0.63214 0.0
S1548 S 0.3568 0.78297 0.6431 0.0
N1549 N 0.3656 0.80054 0.68648 0.0
N1550 N 0.3732 0.8077 0.6087 0.0
C1551 C 0.38724 0.8318 0.63194 0.0
C1552 C 0.38302 0.8279 0.67414 0.0
C1553 C 0.38524 0.17277 0.89122 0.0
C1554 C 0.39961 0.14972 0.8645 0.0
C1555 C 0.38931 0.16915 0.93276 0.0
C1556 C 0.40682 0.14164 0.94893 0.0
H1557 H 0.36922 0.19259 0.88007 0.0
H1558 H 0.37623 0.18634 0.95234 0.0
S1559 S 0.45009 0.07508 0.89167 0.0
N1560 N 0.43383 0.09978 0.85722 0.0
N1561 N 0.43982 0.09197 0.93494 0.0
C1562 C 0.42243 0.11933 0.92246 0.0
C1563 C 0.41921 0.12361 0.88032 0.0
C1564 C 0.9153 0.87439 0.88014 0.0
C1565 C 0.8947 0.84917 0.86398 0.0
C1566 C 0.91854 0.87852 0.92161 0.0
C1567 C 0.90228 0.85679 0.94839 0.0
H1568 H 0.92696 0.89265 0.86066 0.0
H1569 H 0.93252 0.89982 0.93279 0.0
S1570 S 0.84783 0.78497 0.92094 0.0
N1571 N 0.85899 0.8014 0.87769 0.0
N1572 N 0.86669 0.80766 0.95553 0.0
C1573 C 0.88362 0.82996 0.93246 0.0
C1574 C 0.87937 0.82654 0.89026 0.0
C1575 C 0.91999 0.1308 0.68446 0.0
C1576 C 0.89483 0.15146 0.70071 0.0
C1577 C 0.92355 0.12702 0.64291 0.0
C1578 C 0.90294 0.14477 0.61623 0.0
H1579 H 0.93518 0.11535 0.70394 0.0
H1580 H 0.94132 0.10882 0.63162 0.0
S1581 S 0.835 0.20384 0.64381 0.0
N1582 N 0.84985 0.19064 0.68702 0.0
N1583 N 0.85788 0.18526 0.60922 0.0
C1584 C 0.87933 0.16726 0.63223 0.0
C1585 C 0.87493 0.17018 0.67441 0.0
C1586 C 0.62494 0.16704 0.43486 0.0
C1587 C 0.60076 0.14498 0.45062 0.0
C1588 C 0.62914 0.17082 0.39342 0.0
C1589 C 0.60855 0.15357 0.36624 0.0
H1590 H 0.64251 0.17942 0.4546 0.0
H1591 H 0.64977 0.18595 0.38255 0.0
S1592 S 0.54008 0.09459 0.39246 0.0
N1593 N 0.55538 0.10652 0.43599 0.0
N1594 N 0.56179 0.11511 0.35832 0.0
C1595 C 0.58277 0.13327 0.38177 0.0
C1596 C 0.57928 0.12855 0.42391 0.0
C1597 C 0.61712 0.83452 0.13087 0.0
C1598 C 0.59737 0.86058 0.11499 0.0
C1599 C 0.621 0.83056 0.17236 0.0
C1600 C 0.60424 0.8517 0.19934 0.0
H1601 H 0.63189 0.81887 0.11116 0.0
H1602 H 0.63859 0.81205 0.18335 0.0
S1603 S 0.54762 0.922 0.17283 0.0
N1604 N 0.56 0.90692 0.12938 0.0
N1605 N 0.56551 0.89821 0.20707 0.0
C1606 C 0.58255 0.87623 0.18373 0.0
C1607 C 0.57956 0.881 0.14161 0.0
C1608 C 0.58254 0.6409 0.68312 0.0
C1609 C 0.61129 0.65625 0.69945 0.0
C1610 C 0.57927 0.63601 0.64157 0.0
C1611 C 0.60418 0.64715 0.61498 0.0
H1612 H 0.56383 0.63009 0.7027 0.0
H1613 H 0.55805 0.6219 0.63042 0.0
S1614 S 0.68294 0.69088 0.64238 0.0
N1615 N 0.66417 0.68389 0.68545 0.0
N1616 N 0.65748 0.67585 0.60796 0.0
C1617 C 0.63185 0.66441 0.63087 0.0
C1618 C 0.63551 0.66876 0.67293 0.0
C1619 C 0.58619 0.37868 0.88461 0.0
C1620 C 0.60692 0.35348 0.86853 0.0
C1621 C 0.58363 0.38359 0.92612 0.0
C1622 C 0.60082 0.36278 0.95311 0.0
H1623 H 0.57381 0.39631 0.86495 0.0
H1624 H 0.56921 0.40466 0.9371 0.0
S1625 S 0.65718 0.29233 0.92614 0.0
N1626 N 0.64452 0.30733 0.88276 0.0
N1627 N 0.63821 0.31508 0.96055 0.0
C1628 C 0.62004 0.33627 0.93735 0.0
C1629 C 0.62352 0.33202 0.89513 0.0
C1630 C 0.87655 0.33475 0.13371 0.0
C1631 C 0.89644 0.35934 0.11507 0.0
C1632 C 0.87427 0.33284 0.17558 0.0
C1633 C 0.89271 0.35465 0.20025 0.0
H1634 H 0.86062 0.31863 0.1159 0.0
H1635 H 0.85677 0.31524 0.18871 0.0
S1636 S 0.95031 0.42172 0.16621 0.0
N1637 N 0.93598 0.40493 0.12453 0.0
N1638 N 0.93284 0.40033 0.20293 0.0
C1639 C 0.91438 0.37777 0.18196 0.0
C1640 C 0.91596 0.38037 0.13944 0.0
C1641 C 0.9148 0.62811 0.37895 0.0
C1642 C 0.88976 0.64909 0.36296 0.0
C1643 C 0.91928 0.6249 0.42047 0.0
C1644 C 0.89982 0.64356 0.44752 0.0
H1645 H 0.92932 0.61213 0.35935 0.0
H1646 H 0.93693 0.60648 0.43153 0.0
S1647 S 0.83251 0.70367 0.42072 0.0
N1648 N 0.846 0.68944 0.37733 0.0
N1649 N 0.85577 0.68511 0.45498 0.0
C1650 C 0.87624 0.66623 0.43171 0.0
C1651 C 0.87084 0.66856 0.38955 0.0
C1652 C 0.4127 0.37576 0.38166 0.0
C1653 C 0.39 0.35216 0.36593 0.0
C1654 C 0.41648 0.37999 0.4231 0.0
C1655 C 0.39873 0.35983 0.45029 0.0
H1656 H 0.42588 0.39269 0.36186 0.0
H1657 H 0.43231 0.40009 0.43393 0.0
S1658 S 0.33779 0.29305 0.42412 0.0
N1659 N 0.35018 0.30797 0.38058 0.0
N1660 N 0.35884 0.31425 0.45825 0.0
C1661 C 0.37756 0.33474 0.43478 0.0
C1662 C 0.37278 0.33133 0.39265 0.0
C1663 C 0.41095 0.61956 0.18369 0.0
C1664 C 0.3947 0.6478 0.19977 0.0
C1665 C 0.41383 0.61504 0.14225 0.0
C1666 C 0.40128 0.63897 0.11528 0.0
H1667 H 0.41939 0.59964 0.20324 0.0
H1668 H 0.42453 0.59186 0.1312 0.0
S1669 S 0.35801 0.71807 0.14235 0.0
N1670 N 0.36663 0.70037 0.18572 0.0
N1671 N 0.37331 0.69274 0.10787 0.0
C1672 C 0.38677 0.66829 0.13108 0.0
C1673 C 0.38306 0.67244 0.17332 0.0
C1674 C 0.13224 0.66739 0.88838 0.0
C1675 C 0.11195 0.64968 0.86128 0.0
C1676 C 0.12753 0.6644 0.92991 0.0
C1677 C 0.10321 0.64259 0.94595 0.0
H1678 H 0.15276 0.68262 0.87745 0.0
H1679 H 0.14469 0.67739 0.94959 0.0
S1680 S 0.04357 0.59071 0.88805 0.0
N1681 N 0.06553 0.61074 0.85373 0.0
N1682 N 0.05833 0.60349 0.93149 0.0
C1683 C 0.08229 0.6254 0.91924 0.0
C1684 C 0.08622 0.62939 0.87701 0.0
C1685 C 0.08491 0.38641 0.68235 0.0
C1686 C 0.10239 0.3596 0.69995 0.0
C1687 C 0.08202 0.38917 0.64066 0.0
C1688 C 0.09565 0.3647 0.61513 0.0
H1689 H 0.07556 0.40667 0.70078 0.0
H1690 H 0.07051 0.41145 0.62826 0.0
S1691 S 0.14187 0.28851 0.64675 0.0
N1692 N 0.13246 0.30762 0.689 0.0
N1693 N 0.1257 0.31182 0.61086 0.0
C1694 C 0.11124 0.33664 0.6326 0.0
C1695 C 0.11503 0.33438 0.67497 0.0
loop_
_geom_bond_atom_site_label_1
_geom_bond_atom_site_label_2
_geom_bond_distance
_geom_bond_site_symmetry_2
_ccdc_geom_bond_type
Dy0 O4 2.398 . S
Dy0 O5 2.491 . S
Dy0 O6 2.403 . S
Dy0 O7 2.664 . S
Dy0 O11 2.326 . S
Dy0 O15 2.310 . S
Dy0 O16 2.351 . S
C1 O12 1.185 . S
C1 O13 1.355 . S
C2 O4 1.185 . S
C2 O5 1.355 . S
Dy3 O7 2.310 . S
Dy3 O10 2.351 . S
Dy3 O12 2.398 . S
Dy3 O13 2.491 . S
Dy3 O14 2.403 . S
Dy3 O15 2.664 . S
Dy3 O17 2.326 . S
O4 Dy0 2.398 . S
O4 C2 1.185 . S
O5 Dy0 2.491 . S
O5 C2 1.355 . S
O6 Dy0 2.403 . S
O6 C8 1.254 . S
O7 Dy0 2.664 . S
O7 Dy3 2.310 . S
O7 C8 1.268 . S
C8 O6 1.254 . S
C8 O7 1.268 . S
C9 O14 1.254 . S
C9 O15 1.268 . S
O10 Dy3 2.351 . S
O10 C18 1.249 . S
O11 Dy0 2.326 . S
O11 C18 1.267 . S
O12 C1 1.185 . S
O12 Dy3 2.398 . S
O13 C1 1.355 . S
O13 Dy3 2.491 . S
O14 Dy3 2.403 . S
O14 C9 1.254 . S
O15 Dy0 2.310 . S
O15 Dy3 2.664 . S
O15 C9 1.268 . S
O16 Dy0 2.351 . S
O16 C19 1.249 . S
O17 Dy3 2.326 . S
O17 C19 1.267 . S
C18 O10 1.249 . S
C18 O11 1.267 . S
C19 O16 1.249 . S
C19 O17 1.267 . S
Dy20 O24 2.398 . S
Dy20 O25 2.491 . S
Dy20 O26 2.403 . S
Dy20 O27 2.664 . S
Dy20 O31 2.326 . S
Dy20 O35 2.310 . S
Dy20 O36 2.351 . S
C21 O32 1.185 . S
C21 O33 1.355 . S
C22 O24 1.185 . S
C22 O25 1.355 . S
Dy23 O27 2.310 . S
Dy23 O30 2.351 . S
Dy23 O32 2.398 . S
Dy23 O33 2.491 . S
Dy23 O34 2.403 . S
Dy23 O35 2.664 . S
Dy23 O37 2.326 . S
O24 Dy20 2.398 . S
O24 C22 1.185 . S
O25 Dy20 2.491 . S
O25 C22 1.355 . S
O26 Dy20 2.403 . S
O26 C28 1.254 . S
O27 Dy20 2.664 . S
O27 Dy23 2.310 . S
O27 C28 1.268 . S
C28 O26 1.254 . S
C28 O27 1.268 . S
C29 O34 1.254 . S
C29 O35 1.268 . S
O30 Dy23 2.351 . S
O30 C38 1.249 . S
O31 Dy20 2.326 . S
O31 C38 1.267 . S
O32 C21 1.185 . S
O32 Dy23 2.398 . S
O33 C21 1.355 . S
O33 Dy23 2.491 . S
O34 Dy23 2.403 . S
O34 C29 1.254 . S
O35 Dy20 2.310 . S
O35 Dy23 2.664 . S
O35 C29 1.268 . S
O36 Dy20 2.351 . S
O36 C39 1.249 . S
O37 Dy23 2.326 . S
O37 C39 1.267 . S
C38 O30 1.249 . S
C38 O31 1.267 . S
C39 O36 1.249 . S
C39 O37 1.267 . S
Dy40 O44 2.398 . S
Dy40 O45 2.491 . S
Dy40 O46 2.403 . S
Dy40 O47 2.664 . S
Dy40 O51 2.326 . S
Dy40 O55 2.310 . S
Dy40 O56 2.351 . S
C41 O52 1.185 . S
C41 O53 1.355 . S
C42 O44 1.185 . S
C42 O45 1.355 . S
Dy43 O47 2.310 . S
Dy43 O50 2.351 . S
Dy43 O52 2.398 . S
Dy43 O53 2.491 . S
Dy43 O54 2.403 . S
Dy43 O55 2.664 . S
Dy43 O57 2.326 . S
O44 Dy40 2.398 . S
O44 C42 1.185 . S
O45 Dy40 2.491 . S
O45 C42 1.355 . S
O46 Dy40 2.403 . S
O46 C48 1.254 . S
O47 Dy40 2.664 . S
O47 Dy43 2.310 . S
O47 C48 1.268 . S
C48 O46 1.254 . S
C48 O47 1.268 . S
C49 O54 1.254 . S
C49 O55 1.268 . S
O50 Dy43 2.351 . S
O50 C58 1.249 . S
O51 Dy40 2.326 . S
O51 C58 1.267 . S
O52 C41 1.185 . S
O52 Dy43 2.398 . S
O53 C41 1.355 . S
O53 Dy43 2.491 . S
O54 Dy43 2.403 . S
O54 C49 1.254 . S
O55 Dy40 2.310 . S
O55 Dy43 2.664 . S
O55 C49 1.268 . S
O56 Dy40 2.351 . S
O56 C59 1.249 . S
O57 Dy43 2.326 . S
O57 C59 1.267 . S
C58 O50 1.249 . S
C58 O51 1.267 . S
C59 O56 1.249 . S
C59 O57 1.267 . S
Dy60 O64 2.398 . S
Dy60 O65 2.491 1_554 S
Dy60 O66 2.403 . S
Dy60 O67 2.664 . S
Dy60 O71 2.326 1_554 S
Dy60 O75 2.310 . S
Dy60 O76 2.351 . S
C61 O72 1.185 . S
C61 O73 1.355 . S
C62 O64 1.185 1_556 S
C62 O65 1.355 . S
Dy63 O67 2.310 . S
Dy63 O70 2.351 1_554 S
Dy63 O72 2.398 . S
Dy63 O73 2.491 . S
Dy63 O74 2.403 . S
Dy63 O75 2.664 . S
Dy63 O77 2.326 . S
O64 Dy60 2.398 . S
O64 C62 1.185 1_554 S
O65 Dy60 2.491 1_556 S
O65 C62 1.355 . S
O66 Dy60 2.403 . S
O66 C68 1.254 . S
O67 Dy60 2.664 . S
O67 Dy63 2.310 . S
O67 C68 1.268 . S
C68 O66 1.254 . S
C68 O67 1.268 . S
C69 O74 1.254 . S
C69 O75 1.268 . S
O70 Dy63 2.351 1_556 S
O70 C78 1.249 . S
O71 Dy60 2.326 1_556 S
O71 C78 1.267 . S
O72 C61 1.185 . S
O72 Dy63 2.398 . S
O73 C61 1.355 . S
O73 Dy63 2.491 . S
O74 Dy63 2.403 . S
O74 C69 1.254 . S
O75 Dy60 2.310 . S
O75 Dy63 2.664 . S
O75 C69 1.268 . S
O76 Dy60 2.351 . S
O76 C79 1.249 . S
O77 Dy63 2.326 . S
O77 C79 1.267 . S
C78 O70 1.249 . S
C78 O71 1.267 . S
C79 O76 1.249 . S
C79 O77 1.267 . S
Dy80 O84 2.398 . S
Dy80 O85 2.491 . S
Dy80 O86 2.403 . S
Dy80 O87 2.664 . S
Dy80 O91 2.326 . S
Dy80 O95 2.310 . S
Dy80 O96 2.351 . S
C81 O92 1.185 . S
C81 O93 1.355 . S
C82 O84 1.185 . S
C82 O85 1.355 . S
Dy83 O87 2.310 . S
Dy83 O90 2.351 . S
Dy83 O92 2.398 . S
Dy83 O93 2.491 . S
Dy83 O94 2.403 . S
Dy83 O95 2.664 . S
Dy83 O97 2.326 . S
O84 Dy80 2.398 . S
O84 C82 1.185 . S
O85 Dy80 2.491 . S
O85 C82 1.355 . S
O86 Dy80 2.403 . S
O86 C88 1.254 . S
O87 Dy80 2.664 . S
O87 Dy83 2.310 . S
O87 C88 1.268 . S
C88 O86 1.254 . S
C88 O87 1.268 . S
C89 O94 1.254 . S
C89 O95 1.268 . S
O90 Dy83 2.351 . S
O90 C98 1.249 . S
O91 Dy80 2.326 . S
O91 C98 1.267 . S
O92 C81 1.185 . S
O92 Dy83 2.398 . S
O93 C81 1.355 . S
O93 Dy83 2.491 . S
O94 Dy83 2.403 . S
O94 C89 1.254 . S
O95 Dy80 2.310 . S
O95 Dy83 2.664 . S
O95 C89 1.268 . S
O96 Dy80 2.351 . S
O96 C99 1.249 . S
O97 Dy83 2.326 . S
O97 C99 1.267 . S
C98 O90 1.249 . S
C98 O91 1.267 . S
C99 O96 1.249 . S
C99 O97 1.267 . S
Dy100 O104 2.398 . S
Dy100 O105 2.491 . S
Dy100 O106 2.403 . S
Dy100 O107 2.664 . S
Dy100 O111 2.326 . S
Dy100 O115 2.310 . S
Dy100 O116 2.351 . S
C101 O112 1.185 . S
C101 O113 1.355 . S
C102 O104 1.185 . S
C102 O105 1.355 . S
Dy103 O107 2.310 . S
Dy103 O110 2.351 . S
Dy103 O112 2.398 . S
Dy103 O113 2.491 . S
Dy103 O114 2.403 . S
Dy103 O115 2.664 . S
Dy103 O117 2.326 . S
O104 Dy100 2.398 . S
O104 C102 1.185 . S
O105 Dy100 2.491 . S
O105 C102 1.355 . S
O106 Dy100 2.403 . S
O106 C108 1.254 . S
O107 Dy100 2.664 . S
O107 Dy103 2.310 . S
O107 C108 1.268 . S
C108 O106 1.254 . S
C108 O107 1.268 . S
C109 O114 1.254 . S
C109 O115 1.268 . S
O110 Dy103 2.351 . S
O110 C118 1.249 . S
O111 Dy100 2.326 . S
O111 C118 1.267 . S
O112 C101 1.185 . S
O112 Dy103 2.398 . S
O113 C101 1.355 . S
O113 Dy103 2.491 . S
O114 Dy103 2.403 . S
O114 C109 1.254 . S
O115 Dy100 2.310 . S
O115 Dy103 2.664 . S
O115 C109 1.268 . S
O116 Dy100 2.351 . S
O116 C119 1.249 . S
O117 Dy103 2.326 . S
O117 C119 1.267 . S
C118 O110 1.249 . S
C118 O111 1.267 . S
C119 O116 1.249 . S
C119 O117 1.267 . S
Dy120 O124 2.398 . S
Dy120 O125 2.491 . S
Dy120 O126 2.403 . S
Dy120 O127 2.664 . S
Dy120 O131 2.326 . S
Dy120 O135 2.310 . S
Dy120 O136 2.351 . S
C121 O132 1.185 . S
C121 O133 1.355 . S
C122 O124 1.185 . S
C122 O125 1.355 . S
Dy123 O127 2.310 . S
Dy123 O130 2.351 . S
Dy123 O132 2.398 . S
Dy123 O133 2.491 . S
Dy123 O134 2.403 . S
Dy123 O135 2.664 . S
Dy123 O137 2.326 . S
O124 Dy120 2.398 . S
O124 C122 1.185 . S
O125 Dy120 2.491 . S
O125 C122 1.355 . S
O126 Dy120 2.403 . S
O126 C128 1.254 . S
O127 Dy120 2.664 . S
O127 Dy123 2.310 . S
O127 C128 1.268 . S
C128 O126 1.254 . S
C128 O127 1.268 . S
C129 O134 1.254 . S
C129 O135 1.268 . S
O130 Dy123 2.351 . S
O130 C138 1.249 . S
O131 Dy120 2.326 . S
O131 C138 1.267 . S
O132 C121 1.185 . S
O132 Dy123 2.398 . S
O133 C121 1.355 . S
O133 Dy123 2.491 . S
O134 Dy123 2.403 . S
O134 C129 1.254 . S
O135 Dy120 2.310 . S
O135 Dy123 2.664 . S
O135 C129 1.268 . S
O136 Dy120 2.351 . S
O136 C139 1.249 . S
O137 Dy123 2.326 . S
O137 C139 1.267 . S
C138 O130 1.249 . S
C138 O131 1.267 . S
C139 O136 1.249 . S
C139 O137 1.267 . S
Dy140 O144 2.398 . S
Dy140 O145 2.491 1_556 S
Dy140 O146 2.403 . S
Dy140 O147 2.664 . S
Dy140 O151 2.326 1_556 S
Dy140 O155 2.310 . S
Dy140 O156 2.351 . S
C141 O152 1.185 . S
C141 O153 1.355 . S
C142 O144 1.185 1_554 S
C142 O145 1.355 . S
Dy143 O147 2.310 . S
Dy143 O150 2.351 1_556 S
Dy143 O152 2.398 . S
Dy143 O153 2.491 . S
Dy143 O154 2.403 . S
Dy143 O155 2.664 . S
Dy143 O157 2.326 . S
O144 Dy140 2.398 . S
O144 C142 1.185 1_556 S
O145 Dy140 2.491 1_554 S
O145 C142 1.355 . S
O146 Dy140 2.403 . S
O146 C148 1.254 . S
O147 Dy140 2.664 . S
O147 Dy143 2.310 . S
O147 C148 1.268 . S
C148 O146 1.254 . S
C148 O147 1.268 . S
C149 O154 1.254 . S
C149 O155 1.268 . S
O150 Dy143 2.351 1_554 S
O150 C158 1.249 . S
O151 Dy140 2.326 1_554 S
O151 C158 1.267 . S
O152 C141 1.185 . S
O152 Dy143 2.398 . S
O153 C141 1.355 . S
O153 Dy143 2.491 . S
O154 Dy143 2.403 . S
O154 C149 1.254 . S
O155 Dy140 2.310 . S
O155 Dy143 2.664 . S
O155 C149 1.268 . S
O156 Dy140 2.351 . S
O156 C159 1.249 . S
O157 Dy143 2.326 . S
O157 C159 1.267 . S
C158 O150 1.249 . S
C158 O151 1.267 . S
C159 O156 1.249 . S
C159 O157 1.267 . S
Dy160 O164 2.398 . S
Dy160 O165 2.491 . S
Dy160 O166 2.403 . S
Dy160 O167 2.664 . S
Dy160 O171 2.326 . S
Dy160 O175 2.310 . S
Dy160 O176 2.351 . S
C161 O172 1.185 . S
C161 O173 1.355 . S
C162 O164 1.185 . S
C162 O165 1.355 . S
Dy163 O167 2.310 . S
Dy163 O170 2.351 . S
Dy163 O172 2.398 . S
Dy163 O173 2.491 . S
Dy163 O174 2.403 . S
Dy163 O175 2.664 . S
Dy163 O177 2.326 . S
O164 Dy160 2.398 . S
O164 C162 1.185 . S
O165 Dy160 2.491 . S
O165 C162 1.355 . S
O166 Dy160 2.403 . S
O166 C168 1.254 . S
O167 Dy160 2.664 . S
O167 Dy163 2.310 . S
O167 C168 1.268 . S
C168 O166 1.254 . S
C168 O167 1.268 . S
C169 O174 1.254 . S
C169 O175 1.268 . S
O170 Dy163 2.351 . S
O170 C178 1.249 . S
O171 Dy160 2.326 . S
O171 C178 1.267 . S
O172 C161 1.185 . S
O172 Dy163 2.398 . S
O173 C161 1.355 . S
O173 Dy163 2.491 . S
O174 Dy163 2.403 . S
O174 C169 1.254 . S
O175 Dy160 2.310 . S
O175 Dy163 2.664 . S
O175 C169 1.268 . S
O176 Dy160 2.351 . S
O176 C179 1.249 . S
O177 Dy163 2.326 . S
O177 C179 1.267 . S
C178 O170 1.249 . S
C178 O171 1.267 . S
C179 O176 1.249 . S
C179 O177 1.267 . S
Dy180 O184 2.398 . S
Dy180 O185 2.491 . S
Dy180 O186 2.403 . S
Dy180 O187 2.664 . S
Dy180 O191 2.326 . S
Dy180 O195 2.310 . S
Dy180 O196 2.351 . S
C181 O192 1.185 . S
C181 O193 1.355 . S
C182 O184 1.185 . S
C182 O185 1.355 . S
Dy183 O187 2.310 . S
Dy183 O190 2.351 . S
Dy183 O192 2.398 . S
Dy183 O193 2.491 . S
Dy183 O194 2.403 . S
Dy183 O195 2.664 . S
Dy183 O197 2.326 . S
O184 Dy180 2.398 . S
O184 C182 1.185 . S
O185 Dy180 2.491 . S
O185 C182 1.355 . S
O186 Dy180 2.403 . S
O186 C188 1.254 . S
O187 Dy180 2.664 . S
O187 Dy183 2.310 . S
O187 C188 1.268 . S
C188 O186 1.254 . S
C188 O187 1.268 . S
C189 O194 1.254 . S
C189 O195 1.268 . S
O190 Dy183 2.351 . S
O190 C198 1.249 . S
O191 Dy180 2.326 . S
O191 C198 1.267 . S
O192 C181 1.185 . S
O192 Dy183 2.398 . S
O193 C181 1.355 . S
O193 Dy183 2.491 . S
O194 Dy183 2.403 . S
O194 C189 1.254 . S
O195 Dy180 2.310 . S
O195 Dy183 2.664 . S
O195 C189 1.268 . S
O196 Dy180 2.351 . S
O196 C199 1.249 . S
O197 Dy183 2.326 . S
O197 C199 1.267 . S
C198 O190 1.249 . S
C198 O191 1.267 . S
C199 O196 1.249 . S
C199 O197 1.267 . S
Dy200 O204 2.398 . S
Dy200 O205 2.491 . S
Dy200 O206 2.403 . S
Dy200 O207 2.664 . S
Dy200 O211 2.326 . S
Dy200 O215 2.310 . S
Dy200 O216 2.351 . S
C201 O212 1.185 . S
C201 O213 1.355 . S
C202 O204 1.185 . S
C202 O205 1.355 . S
Dy203 O207 2.310 . S
Dy203 O210 2.351 . S
Dy203 O212 2.398 . S
Dy203 O213 2.491 . S
Dy203 O214 2.403 . S
Dy203 O215 2.664 . S
Dy203 O217 2.326 . S
O204 Dy200 2.398 . S
O204 C202 1.185 . S
O205 Dy200 2.491 . S
O205 C202 1.355 . S
O206 Dy200 2.403 . S
O206 C208 1.254 . S
O207 Dy200 2.664 . S
O207 Dy203 2.310 . S
O207 C208 1.268 . S
C208 O206 1.254 . S
C208 O207 1.268 . S
C209 O214 1.254 . S
C209 O215 1.268 . S
O210 Dy203 2.351 . S
O210 C218 1.249 . S
O211 Dy200 2.326 . S
O211 C218 1.267 . S
O212 C201 1.185 . S
O212 Dy203 2.398 . S
O213 C201 1.355 . S
O213 Dy203 2.491 . S
O214 Dy203 2.403 . S
O214 C209 1.254 . S
O215 Dy200 2.310 . S
O215 Dy203 2.664 . S
O215 C209 1.268 . S
O216 Dy200 2.351 . S
O216 C219 1.249 . S
O217 Dy203 2.326 . S
O217 C219 1.267 . S
C218 O210 1.249 . S
C218 O211 1.267 . S
C219 O216 1.249 . S
C219 O217 1.267 . S
Dy220 O224 2.398 . S
Dy220 O225 2.491 . S
Dy220 O226 2.403 . S
Dy220 O227 2.664 . S
Dy220 O231 2.326 . S
Dy220 O235 2.310 . S
Dy220 O236 2.351 1_556 S
C221 O232 1.185 1_554 S
C221 O233 1.355 . S
C222 O224 1.185 . S
C222 O225 1.355 . S
Dy223 O227 2.310 . S
Dy223 O230 2.351 . S
Dy223 O232 2.398 . S
Dy223 O233 2.491 1_556 S
Dy223 O234 2.403 . S
Dy223 O235 2.664 . S
Dy223 O237 2.326 1_556 S
O224 Dy220 2.398 . S
O224 C222 1.185 . S
O225 Dy220 2.491 . S
O225 C222 1.355 . S
O226 Dy220 2.403 . S
O226 C228 1.254 . S
O227 Dy220 2.664 . S
O227 Dy223 2.310 . S
O227 C228 1.268 . S
C228 O226 1.254 . S
C228 O227 1.268 . S
C229 O234 1.254 . S
C229 O235 1.268 . S
O230 Dy223 2.351 . S
O230 C238 1.249 . S
O231 Dy220 2.326 . S
O231 C238 1.267 . S
O232 C221 1.185 1_556 S
O232 Dy223 2.398 . S
O233 C221 1.355 . S
O233 Dy223 2.491 1_554 S
O234 Dy223 2.403 . S
O234 C229 1.254 . S
O235 Dy220 2.310 . S
O235 Dy223 2.664 . S
O235 C229 1.268 . S
O236 Dy220 2.351 1_554 S
O236 C239 1.249 . S
O237 Dy223 2.326 1_554 S
O237 C239 1.267 . S
C238 O230 1.249 . S
C238 O231 1.267 . S
C239 O236 1.249 . S
C239 O237 1.267 . S
Dy240 O244 2.398 . S
Dy240 O245 2.491 . S
Dy240 O246 2.403 . S
Dy240 O247 2.664 . S
Dy240 O251 2.326 . S
Dy240 O255 2.310 . S
Dy240 O256 2.351 . S
C241 O252 1.185 . S
C241 O253 1.355 . S
C242 O244 1.185 . S
C242 O245 1.355 . S
Dy243 O247 2.310 . S
Dy243 O250 2.351 . S
Dy243 O252 2.398 . S
Dy243 O253 2.491 . S
Dy243 O254 2.403 . S
Dy243 O255 2.664 . S
Dy243 O257 2.326 . S
O244 Dy240 2.398 . S
O244 C242 1.185 . S
O245 Dy240 2.491 . S
O245 C242 1.355 . S
O246 Dy240 2.403 . S
O246 C248 1.254 . S
O247 Dy240 2.664 . S
O247 Dy243 2.310 . S
O247 C248 1.268 . S
C248 O246 1.254 . S
C248 O247 1.268 . S
C249 O254 1.254 . S
C249 O255 1.268 . S
O250 Dy243 2.351 . S
O250 C258 1.249 . S
O251 Dy240 2.326 . S
O251 C258 1.267 . S
O252 C241 1.185 . S
O252 Dy243 2.398 . S
O253 C241 1.355 . S
O253 Dy243 2.491 . S
O254 Dy243 2.403 . S
O254 C249 1.254 . S
O255 Dy240 2.310 . S
O255 Dy243 2.664 . S
O255 C249 1.268 . S
O256 Dy240 2.351 . S
O256 C259 1.249 . S
O257 Dy243 2.326 . S
O257 C259 1.267 . S
C258 O250 1.249 . S
C258 O251 1.267 . S
C259 O256 1.249 . S
C259 O257 1.267 . S
Dy260 O264 2.398 . S
Dy260 O265 2.491 . S
Dy260 O266 2.403 . S
Dy260 O267 2.664 . S
Dy260 O271 2.326 . S
Dy260 O275 2.310 . S
Dy260 O276 2.351 . S
C261 O272 1.185 . S
C261 O273 1.355 . S
C262 O264 1.185 . S
C262 O265 1.355 . S
Dy263 O267 2.310 . S
Dy263 O270 2.351 . S
Dy263 O272 2.398 . S
Dy263 O273 2.491 . S
Dy263 O274 2.403 . S
Dy263 O275 2.664 . S
Dy263 O277 2.326 . S
O264 Dy260 2.398 . S
O264 C262 1.185 . S
O265 Dy260 2.491 . S
O265 C262 1.355 . S
O266 Dy260 2.403 . S
O266 C268 1.254 . S
O267 Dy260 2.664 . S
O267 Dy263 2.310 . S
O267 C268 1.268 . S
C268 O266 1.254 . S
C268 O267 1.268 . S
C269 O274 1.254 . S
C269 O275 1.268 . S
O270 Dy263 2.351 . S
O270 C278 1.249 . S
O271 Dy260 2.326 . S
O271 C278 1.267 . S
O272 C261 1.185 . S
O272 Dy263 2.398 . S
O273 C261 1.355 . S
O273 Dy263 2.491 . S
O274 Dy263 2.403 . S
O274 C269 1.254 . S
O275 Dy260 2.310 . S
O275 Dy263 2.664 . S
O275 C269 1.268 . S
O276 Dy260 2.351 . S
O276 C279 1.249 . S
O277 Dy263 2.326 . S
O277 C279 1.267 . S
C278 O270 1.249 . S
C278 O271 1.267 . S
C279 O276 1.249 . S
C279 O277 1.267 . S
Dy280 O284 2.398 . S
Dy280 O285 2.491 . S
Dy280 O286 2.403 . S
Dy280 O287 2.664 . S
Dy280 O291 2.326 . S
Dy280 O295 2.310 . S
Dy280 O296 2.351 . S
C281 O292 1.185 . S
C281 O293 1.355 . S
C282 O284 1.185 . S
C282 O285 1.355 . S
Dy283 O287 2.310 . S
Dy283 O290 2.351 . S
Dy283 O292 2.398 . S
Dy283 O293 2.491 . S
Dy283 O294 2.403 . S
Dy283 O295 2.664 . S
Dy283 O297 2.326 . S
O284 Dy280 2.398 . S
O284 C282 1.185 . S
O285 Dy280 2.491 . S
O285 C282 1.355 . S
O286 Dy280 2.403 . S
O286 C288 1.254 . S
O287 Dy280 2.664 . S
O287 Dy283 2.310 . S
O287 C288 1.268 . S
C288 O286 1.254 . S
C288 O287 1.268 . S
C289 O294 1.254 . S
C289 O295 1.268 . S
O290 Dy283 2.351 . S
O290 C298 1.249 . S
O291 Dy280 2.326 . S
O291 C298 1.267 . S
O292 C281 1.185 . S
O292 Dy283 2.398 . S
O293 C281 1.355 . S
O293 Dy283 2.491 . S
O294 Dy283 2.403 . S
O294 C289 1.254 . S
O295 Dy280 2.310 . S
O295 Dy283 2.664 . S
O295 C289 1.268 . S
O296 Dy280 2.351 . S
O296 C299 1.249 . S
O297 Dy283 2.326 . S
O297 C299 1.267 . S
C298 O290 1.249 . S
C298 O291 1.267 . S
C299 O296 1.249 . S
C299 O297 1.267 . S
Dy300 O304 2.398 . S
Dy300 O305 2.491 . S
Dy300 O306 2.403 . S
Dy300 O307 2.664 . S
Dy300 O311 2.326 . S
Dy300 O315 2.310 . S
Dy300 O316 2.351 1_554 S
C301 O312 1.185 1_556 S
C301 O313 1.355 . S
C302 O304 1.185 . S
C302 O305 1.355 . S
Dy303 O307 2.310 . S
Dy303 O310 2.351 . S
Dy303 O312 2.398 . S
Dy303 O313 2.491 1_554 S
Dy303 O314 2.403 . S
Dy303 O315 2.664 . S
Dy303 O317 2.326 1_554 S
O304 Dy300 2.398 . S
O304 C302 1.185 . S
O305 Dy300 2.491 . S
O305 C302 1.355 . S
O306 Dy300 2.403 . S
O306 C308 1.254 . S
O307 Dy300 2.664 . S
O307 Dy303 2.310 . S
O307 C308 1.268 . S
C308 O306 1.254 . S
C308 O307 1.268 . S
C309 O314 1.254 . S
C309 O315 1.268 . S
O310 Dy303 2.351 . S
O310 C318 1.249 . S
O311 Dy300 2.326 . S
O311 C318 1.267 . S
O312 C301 1.185 1_554 S
O312 Dy303 2.398 . S
O313 C301 1.355 . S
O313 Dy303 2.491 1_556 S
O314 Dy303 2.403 . S
O314 C309 1.254 . S
O315 Dy300 2.310 . S
O315 Dy303 2.664 . S
O315 C309 1.268 . S
O316 Dy300 2.351 1_556 S
O316 C319 1.249 . S
O317 Dy303 2.326 1_556 S
O317 C319 1.267 . S
C318 O310 1.249 . S
C318 O311 1.267 . S
C319 O316 1.249 . S
C319 O317 1.267 . S
Dy320 O324 2.398 . S
Dy320 O325 2.491 . S
Dy320 O326 2.403 . S
Dy320 O327 2.664 . S
Dy320 O331 2.326 . S
Dy320 O335 2.310 . S
Dy320 O336 2.351 . S
C321 O332 1.185 . S
C321 O333 1.355 . S
C322 O324 1.185 . S
C322 O325 1.355 . S
Dy323 O327 2.310 . S
Dy323 O330 2.351 . S
Dy323 O332 2.398 . S
Dy323 O333 2.491 . S
Dy323 O334 2.403 . S
Dy323 O335 2.664 . S
Dy323 O337 2.326 . S
O324 Dy320 2.398 . S
O324 C322 1.185 . S
O325 Dy320 2.491 . S
O325 C322 1.355 . S
O326 Dy320 2.403 . S
O326 C328 1.254 . S
O327 Dy320 2.664 . S
O327 Dy323 2.310 . S
O327 C328 1.268 . S
C328 O326 1.254 . S
C328 O327 1.268 . S
C329 O334 1.254 . S
C329 O335 1.268 . S
O330 Dy323 2.351 . S
O330 C338 1.249 . S
O331 Dy320 2.326 . S
O331 C338 1.267 . S
O332 C321 1.185 . S
O332 Dy323 2.398 . S
O333 C321 1.355 . S
O333 Dy323 2.491 . S
O334 Dy323 2.403 . S
O334 C329 1.254 . S
O335 Dy320 2.310 . S
O335 Dy323 2.664 . S
O335 C329 1.268 . S
O336 Dy320 2.351 . S
O336 C339 1.249 . S
O337 Dy323 2.326 . S
O337 C339 1.267 . S
C338 O330 1.249 . S
C338 O331 1.267 . S
C339 O336 1.249 . S
C339 O337 1.267 . S
Dy340 O344 2.398 . S
Dy340 O345 2.491 1_554 S
Dy340 O346 2.403 . S
Dy340 O347 2.664 . S
Dy340 O351 2.326 1_554 S
Dy340 O355 2.310 . S
Dy340 O356 2.351 . S
C341 O352 1.185 . S
C341 O353 1.355 . S
C342 O344 1.185 1_556 S
C342 O345 1.355 . S
Dy343 O347 2.310 . S
Dy343 O350 2.351 1_554 S
Dy343 O352 2.398 . S
Dy343 O353 2.491 . S
Dy343 O354 2.403 . S
Dy343 O355 2.664 . S
Dy343 O357 2.326 . S
O344 Dy340 2.398 . S
O344 C342 1.185 1_554 S
O345 Dy340 2.491 1_556 S
O345 C342 1.355 . S
O346 Dy340 2.403 . S
O346 C348 1.254 . S
O347 Dy340 2.664 . S
O347 Dy343 2.310 . S
O347 C348 1.268 . S
C348 O346 1.254 . S
C348 O347 1.268 . S
C349 O354 1.254 . S
C349 O355 1.268 . S
O350 Dy343 2.351 1_556 S
O350 C358 1.249 . S
O351 Dy340 2.326 1_556 S
O351 C358 1.267 . S
O352 C341 1.185 . S
O352 Dy343 2.398 . S
O353 C341 1.355 . S
O353 Dy343 2.491 . S
O354 Dy343 2.403 . S
O354 C349 1.254 . S
O355 Dy340 2.310 . S
O355 Dy343 2.664 . S
O355 C349 1.268 . S
O356 Dy340 2.351 . S
O356 C359 1.249 . S
O357 Dy343 2.326 . S
O357 C359 1.267 . S
C358 O350 1.249 . S
C358 O351 1.267 . S
C359 O356 1.249 . S
C359 O357 1.267 . S
Dy360 O364 2.398 . S
Dy360 O365 2.491 . S
Dy360 O366 2.403 . S
Dy360 O367 2.664 . S
Dy360 O371 2.326 . S
Dy360 O375 2.310 . S
Dy360 O376 2.351 . S
C361 O372 1.185 . S
C361 O373 1.355 . S
C362 O364 1.185 . S
C362 O365 1.355 . S
Dy363 O367 2.310 . S
Dy363 O370 2.351 . S
Dy363 O372 2.398 . S
Dy363 O373 2.491 . S
Dy363 O374 2.403 . S
Dy363 O375 2.664 . S
Dy363 O377 2.326 . S
O364 Dy360 2.398 . S
O364 C362 1.185 . S
O365 Dy360 2.491 . S
O365 C362 1.355 . S
O366 Dy360 2.403 . S
O366 C368 1.254 . S
O367 Dy360 2.664 . S
O367 Dy363 2.310 . S
O367 C368 1.268 . S
C368 O366 1.254 . S
C368 O367 1.268 . S
C369 O374 1.254 . S
C369 O375 1.268 . S
O370 Dy363 2.351 . S
O370 C378 1.249 . S
O371 Dy360 2.326 . S
O371 C378 1.267 . S
O372 C361 1.185 . S
O372 Dy363 2.398 . S
O373 C361 1.355 . S
O373 Dy363 2.491 . S
O374 Dy363 2.403 . S
O374 C369 1.254 . S
O375 Dy360 2.310 . S
O375 Dy363 2.664 . S
O375 C369 1.268 . S
O376 Dy360 2.351 . S
O376 C379 1.249 . S
O377 Dy363 2.326 . S
O377 C379 1.267 . S
C378 O370 1.249 . S
C378 O371 1.267 . S
C379 O376 1.249 . S
C379 O377 1.267 . S
Dy380 O384 2.398 . S
Dy380 O385 2.491 . S
Dy380 O386 2.403 . S
Dy380 O387 2.664 . S
Dy380 O391 2.326 . S
Dy380 O395 2.310 . S
Dy380 O396 2.351 . S
C381 O392 1.185 . S
C381 O393 1.355 . S
C382 O384 1.185 . S
C382 O385 1.355 . S
Dy383 O387 2.310 . S
Dy383 O390 2.351 . S
Dy383 O392 2.398 . S
Dy383 O393 2.491 . S
Dy383 O394 2.403 . S
Dy383 O395 2.664 . S
Dy383 O397 2.326 . S
O384 Dy380 2.398 . S
O384 C382 1.185 . S
O385 Dy380 2.491 . S
O385 C382 1.355 . S
O386 Dy380 2.403 . S
O386 C388 1.254 . S
O387 Dy380 2.664 . S
O387 Dy383 2.310 . S
O387 C388 1.268 . S
C388 O386 1.254 . S
C388 O387 1.268 . S
C389 O394 1.254 . S
C389 O395 1.268 . S
O390 Dy383 2.351 . S
O390 C398 1.249 . S
O391 Dy380 2.326 . S
O391 C398 1.267 . S
O392 C381 1.185 . S
O392 Dy383 2.398 . S
O393 C381 1.355 . S
O393 Dy383 2.491 . S
O394 Dy383 2.403 . S
O394 C389 1.254 . S
O395 Dy380 2.310 . S
O395 Dy383 2.664 . S
O395 C389 1.268 . S
O396 Dy380 2.351 . S
O396 C399 1.249 . S
O397 Dy383 2.326 . S
O397 C399 1.267 . S
C398 O390 1.249 . S
C398 O391 1.267 . S
C399 O396 1.249 . S
C399 O397 1.267 . S
Dy400 O404 2.398 . S
Dy400 O405 2.491 . S
Dy400 O406 2.403 . S
Dy400 O407 2.664 . S
Dy400 O411 2.326 . S
Dy400 O415 2.310 . S
Dy400 O416 2.351 . S
C401 O412 1.185 . S
C401 O413 1.355 . S
C402 O404 1.185 . S
C402 O405 1.355 . S
Dy403 O407 2.310 . S
Dy403 O410 2.351 . S
Dy403 O412 2.398 . S
Dy403 O413 2.491 . S
Dy403 O414 2.403 . S
Dy403 O415 2.664 . S
Dy403 O417 2.326 . S
O404 Dy400 2.398 . S
O404 C402 1.185 . S
O405 Dy400 2.491 . S
O405 C402 1.355 . S
O406 Dy400 2.403 . S
O406 C408 1.254 . S
O407 Dy400 2.664 . S
O407 Dy403 2.310 . S
O407 C408 1.268 . S
C408 O406 1.254 . S
C408 O407 1.268 . S
C409 O414 1.254 . S
C409 O415 1.268 . S
O410 Dy403 2.351 . S
O410 C418 1.249 . S
O411 Dy400 2.326 . S
O411 C418 1.267 . S
O412 C401 1.185 . S
O412 Dy403 2.398 . S
O413 C401 1.355 . S
O413 Dy403 2.491 . S
O414 Dy403 2.403 . S
O414 C409 1.254 . S
O415 Dy400 2.310 . S
O415 Dy403 2.664 . S
O415 C409 1.268 . S
O416 Dy400 2.351 . S
O416 C419 1.249 . S
O417 Dy403 2.326 . S
O417 C419 1.267 . S
C418 O410 1.249 . S
C418 O411 1.267 . S
C419 O416 1.249 . S
C419 O417 1.267 . S
Dy420 O424 2.398 . S
Dy420 O425 2.491 1_556 S
Dy420 O426 2.403 . S
Dy420 O427 2.664 . S
Dy420 O431 2.326 1_556 S
Dy420 O435 2.310 . S
Dy420 O436 2.351 . S
C421 O432 1.185 . S
C421 O433 1.355 . S
C422 O424 1.185 1_554 S
C422 O425 1.355 . S
Dy423 O427 2.310 . S
Dy423 O430 2.351 1_556 S
Dy423 O432 2.398 . S
Dy423 O433 2.491 . S
Dy423 O434 2.403 . S
Dy423 O435 2.664 . S
Dy423 O437 2.326 . S
O424 Dy420 2.398 . S
O424 C422 1.185 1_556 S
O425 Dy420 2.491 1_554 S
O425 C422 1.355 . S
O426 Dy420 2.403 . S
O426 C428 1.254 . S
O427 Dy420 2.664 . S
O427 Dy423 2.310 . S
O427 C428 1.268 . S
C428 O426 1.254 . S
C428 O427 1.268 . S
C429 O434 1.254 . S
C429 O435 1.268 . S
O430 Dy423 2.351 1_554 S
O430 C438 1.249 . S
O431 Dy420 2.326 1_554 S
O431 C438 1.267 . S
O432 C421 1.185 . S
O432 Dy423 2.398 . S
O433 C421 1.355 . S
O433 Dy423 2.491 . S
O434 Dy423 2.403 . S
O434 C429 1.254 . S
O435 Dy420 2.310 . S
O435 Dy423 2.664 . S
O435 C429 1.268 . S
O436 Dy420 2.351 . S
O436 C439 1.249 . S
O437 Dy423 2.326 . S
O437 C439 1.267 . S
C438 O430 1.249 . S
C438 O431 1.267 . S
C439 O436 1.249 . S
C439 O437 1.267 . S
Dy440 O444 2.398 . S
Dy440 O445 2.491 . S
Dy440 O446 2.403 . S
Dy440 O447 2.664 . S
Dy440 O451 2.326 . S
Dy440 O455 2.310 . S
Dy440 O456 2.351 . S
C441 O452 1.185 . S
C441 O453 1.355 . S
C442 O444 1.185 . S
C442 O445 1.355 . S
Dy443 O447 2.310 . S
Dy443 O450 2.351 . S
Dy443 O452 2.398 . S
Dy443 O453 2.491 . S
Dy443 O454 2.403 . S
Dy443 O455 2.664 . S
Dy443 O457 2.326 . S
O444 Dy440 2.398 . S
O444 C442 1.185 . S
O445 Dy440 2.491 . S
O445 C442 1.355 . S
O446 Dy440 2.403 . S
O446 C448 1.254 . S
O447 Dy440 2.664 . S
O447 Dy443 2.310 . S
O447 C448 1.268 . S
C448 O446 1.254 . S
C448 O447 1.268 . S
C449 O454 1.254 . S
C449 O455 1.268 . S
O450 Dy443 2.351 . S
O450 C458 1.249 . S
O451 Dy440 2.326 . S
O451 C458 1.267 . S
O452 C441 1.185 . S
O452 Dy443 2.398 . S
O453 C441 1.355 . S
O453 Dy443 2.491 . S
O454 Dy443 2.403 . S
O454 C449 1.254 . S
O455 Dy440 2.310 . S
O455 Dy443 2.664 . S
O455 C449 1.268 . S
O456 Dy440 2.351 . S
O456 C459 1.249 . S
O457 Dy443 2.326 . S
O457 C459 1.267 . S
C458 O450 1.249 . S
C458 O451 1.267 . S
C459 O456 1.249 . S
C459 O457 1.267 . S
Dy460 O464 2.398 . S
Dy460 O465 2.491 . S
Dy460 O466 2.403 . S
Dy460 O467 2.664 . S
Dy460 O471 2.326 . S
Dy460 O475 2.310 . S
Dy460 O476 2.351 . S
C461 O472 1.185 . S
C461 O473 1.355 . S
C462 O464 1.185 . S
C462 O465 1.355 . S
Dy463 O467 2.310 . S
Dy463 O470 2.351 . S
Dy463 O472 2.398 . S
Dy463 O473 2.491 . S
Dy463 O474 2.403 . S
Dy463 O475 2.664 . S
Dy463 O477 2.326 . S
O464 Dy460 2.398 . S
O464 C462 1.185 . S
O465 Dy460 2.491 . S
O465 C462 1.355 . S
O466 Dy460 2.403 . S
O466 C468 1.254 . S
O467 Dy460 2.664 . S
O467 Dy463 2.310 . S
O467 C468 1.268 . S
C468 O466 1.254 . S
C468 O467 1.268 . S
C469 O474 1.254 . S
C469 O475 1.268 . S
O470 Dy463 2.351 . S
O470 C478 1.249 . S
O471 Dy460 2.326 . S
O471 C478 1.267 . S
O472 C461 1.185 . S
O472 Dy463 2.398 . S
O473 C461 1.355 . S
O473 Dy463 2.491 . S
O474 Dy463 2.403 . S
O474 C469 1.254 . S
O475 Dy460 2.310 . S
O475 Dy463 2.664 . S
O475 C469 1.268 . S
O476 Dy460 2.351 . S
O476 C479 1.249 . S
O477 Dy463 2.326 . S
O477 C479 1.267 . S
C478 O470 1.249 . S
C478 O471 1.267 . S
C479 O476 1.249 . S
C479 O477 1.267 . S
Dy480 O484 2.398 . S
Dy480 O485 2.491 . S
Dy480 O486 2.403 . S
Dy480 O487 2.664 . S
Dy480 O491 2.326 . S
Dy480 O495 2.310 . S
Dy480 O496 2.351 . S
C481 O492 1.185 . S
C481 O493 1.355 . S
C482 O484 1.185 . S
C482 O485 1.355 . S
Dy483 O487 2.310 . S
Dy483 O490 2.351 . S
Dy483 O492 2.398 . S
Dy483 O493 2.491 . S
Dy483 O494 2.403 . S
Dy483 O495 2.664 . S
Dy483 O497 2.326 . S
O484 Dy480 2.398 . S
O484 C482 1.185 . S
O485 Dy480 2.491 . S
O485 C482 1.355 . S
O486 Dy480 2.403 . S
O486 C488 1.254 . S
O487 Dy480 2.664 . S
O487 Dy483 2.310 . S
O487 C488 1.268 . S
C488 O486 1.254 . S
C488 O487 1.268 . S
C489 O494 1.254 . S
C489 O495 1.268 . S
O490 Dy483 2.351 . S
O490 C498 1.249 . S
O491 Dy480 2.326 . S
O491 C498 1.267 . S
O492 C481 1.185 . S
O492 Dy483 2.398 . S
O493 C481 1.355 . S
O493 Dy483 2.491 . S
O494 Dy483 2.403 . S
O494 C489 1.254 . S
O495 Dy480 2.310 . S
O495 Dy483 2.664 . S
O495 C489 1.268 . S
O496 Dy480 2.351 . S
O496 C499 1.249 . S
O497 Dy483 2.326 . S
O497 C499 1.267 . S
C498 O490 1.249 . S
C498 O491 1.267 . S
C499 O496 1.249 . S
C499 O497 1.267 . S
Dy500 O504 2.398 . S
Dy500 O505 2.491 . S
Dy500 O506 2.403 . S
Dy500 O507 2.664 . S
Dy500 O511 2.326 . S
Dy500 O515 2.310 . S
Dy500 O516 2.351 1_556 S
C501 O512 1.185 1_554 S
C501 O513 1.355 . S
C502 O504 1.185 . S
C502 O505 1.355 . S
Dy503 O507 2.310 . S
Dy503 O510 2.351 . S
Dy503 O512 2.398 . S
Dy503 O513 2.491 1_556 S
Dy503 O514 2.403 . S
Dy503 O515 2.664 . S
Dy503 O517 2.326 1_556 S
O504 Dy500 2.398 . S
O504 C502 1.185 . S
O505 Dy500 2.491 . S
O505 C502 1.355 . S
O506 Dy500 2.403 . S
O506 C508 1.254 . S
O507 Dy500 2.664 . S
O507 Dy503 2.310 . S
O507 C508 1.268 . S
C508 O506 1.254 . S
C508 O507 1.268 . S
C509 O514 1.254 . S
C509 O515 1.268 . S
O510 Dy503 2.351 . S
O510 C518 1.249 . S
O511 Dy500 2.326 . S
O511 C518 1.267 . S
O512 C501 1.185 1_556 S
O512 Dy503 2.398 . S
O513 C501 1.355 . S
O513 Dy503 2.491 1_554 S
O514 Dy503 2.403 . S
O514 C509 1.254 . S
O515 Dy500 2.310 . S
O515 Dy503 2.664 . S
O515 C509 1.268 . S
O516 Dy500 2.351 1_554 S
O516 C519 1.249 . S
O517 Dy503 2.326 1_554 S
O517 C519 1.267 . S
C518 O510 1.249 . S
C518 O511 1.267 . S
C519 O516 1.249 . S
C519 O517 1.267 . S
Dy520 O524 2.398 . S
Dy520 O525 2.491 . S
Dy520 O526 2.403 . S
Dy520 O527 2.664 . S
Dy520 O531 2.326 . S
Dy520 O535 2.310 . S
Dy520 O536 2.351 . S
C521 O532 1.185 . S
C521 O533 1.355 . S
C522 O524 1.185 . S
C522 O525 1.355 . S
Dy523 O527 2.310 . S
Dy523 O530 2.351 . S
Dy523 O532 2.398 . S
Dy523 O533 2.491 . S
Dy523 O534 2.403 . S
Dy523 O535 2.664 . S
Dy523 O537 2.326 . S
O524 Dy520 2.398 . S
O524 C522 1.185 . S
O525 Dy520 2.491 . S
O525 C522 1.355 . S
O526 Dy520 2.403 . S
O526 C528 1.254 . S
O527 Dy520 2.664 . S
O527 Dy523 2.310 . S
O527 C528 1.268 . S
C528 O526 1.254 . S
C528 O527 1.268 . S
C529 O534 1.254 . S
C529 O535 1.268 . S
O530 Dy523 2.351 . S
O530 C538 1.249 . S
O531 Dy520 2.326 . S
O531 C538 1.267 . S
O532 C521 1.185 . S
O532 Dy523 2.398 . S
O533 C521 1.355 . S
O533 Dy523 2.491 . S
O534 Dy523 2.403 . S
O534 C529 1.254 . S
O535 Dy520 2.310 . S
O535 Dy523 2.664 . S
O535 C529 1.268 . S
O536 Dy520 2.351 . S
O536 C539 1.249 . S
O537 Dy523 2.326 . S
O537 C539 1.267 . S
C538 O530 1.249 . S
C538 O531 1.267 . S
C539 O536 1.249 . S
C539 O537 1.267 . S
Dy540 O544 2.398 . S
Dy540 O545 2.491 . S
Dy540 O546 2.403 . S
Dy540 O547 2.664 . S
Dy540 O551 2.326 . S
Dy540 O555 2.310 . S
Dy540 O556 2.351 . S
C541 O552 1.185 . S
C541 O553 1.355 . S
C542 O544 1.185 . S
C542 O545 1.355 . S
Dy543 O547 2.310 . S
Dy543 O550 2.351 . S
Dy543 O552 2.398 . S
Dy543 O553 2.491 . S
Dy543 O554 2.403 . S
Dy543 O555 2.664 . S
Dy543 O557 2.326 . S
O544 Dy540 2.398 . S
O544 C542 1.185 . S
O545 Dy540 2.491 . S
O545 C542 1.355 . S
O546 Dy540 2.403 . S
O546 C548 1.254 . S
O547 Dy540 2.664 . S
O547 Dy543 2.310 . S
O547 C548 1.268 . S
C548 O546 1.254 . S
C548 O547 1.268 . S
C549 O554 1.254 . S
C549 O555 1.268 . S
O550 Dy543 2.351 . S
O550 C558 1.249 . S
O551 Dy540 2.326 . S
O551 C558 1.267 . S
O552 C541 1.185 . S
O552 Dy543 2.398 . S
O553 C541 1.355 . S
O553 Dy543 2.491 . S
O554 Dy543 2.403 . S
O554 C549 1.254 . S
O555 Dy540 2.310 . S
O555 Dy543 2.664 . S
O555 C549 1.268 . S
O556 Dy540 2.351 . S
O556 C559 1.249 . S
O557 Dy543 2.326 . S
O557 C559 1.267 . S
C558 O550 1.249 . S
C558 O551 1.267 . S
C559 O556 1.249 . S
C559 O557 1.267 . S
Dy560 O564 2.398 . S
Dy560 O565 2.491 . S
Dy560 O566 2.403 . S
Dy560 O567 2.664 . S
Dy560 O571 2.326 . S
Dy560 O575 2.310 . S
Dy560 O576 2.351 . S
C561 O572 1.185 . S
C561 O573 1.355 . S
C562 O564 1.185 . S
C562 O565 1.355 . S
Dy563 O567 2.310 . S
Dy563 O570 2.351 . S
Dy563 O572 2.398 . S
Dy563 O573 2.491 . S
Dy563 O574 2.403 . S
Dy563 O575 2.664 . S
Dy563 O577 2.326 . S
O564 Dy560 2.398 . S
O564 C562 1.185 . S
O565 Dy560 2.491 . S
O565 C562 1.355 . S
O566 Dy560 2.403 . S
O566 C568 1.254 . S
O567 Dy560 2.664 . S
O567 Dy563 2.310 . S
O567 C568 1.268 . S
C568 O566 1.254 . S
C568 O567 1.268 . S
C569 O574 1.254 . S
C569 O575 1.268 . S
O570 Dy563 2.351 . S
O570 C578 1.249 . S
O571 Dy560 2.326 . S
O571 C578 1.267 . S
O572 C561 1.185 . S
O572 Dy563 2.398 . S
O573 C561 1.355 . S
O573 Dy563 2.491 . S
O574 Dy563 2.403 . S
O574 C569 1.254 . S
O575 Dy560 2.310 . S
O575 Dy563 2.664 . S
O575 C569 1.268 . S
O576 Dy560 2.351 . S
O576 C579 1.249 . S
O577 Dy563 2.326 . S
O577 C579 1.267 . S
C578 O570 1.249 . S
C578 O571 1.267 . S
C579 O576 1.249 . S
C579 O577 1.267 . S
Dy580 O584 2.398 . S
Dy580 O585 2.491 . S
Dy580 O586 2.403 . S
Dy580 O587 2.664 . S
Dy580 O591 2.326 . S
Dy580 O595 2.310 . S
Dy580 O596 2.351 1_554 S
C581 O592 1.185 1_556 S
C581 O593 1.355 . S
C582 O584 1.185 . S
C582 O585 1.355 . S
Dy583 O587 2.310 . S
Dy583 O590 2.351 . S
Dy583 O592 2.398 . S
Dy583 O593 2.491 1_554 S
Dy583 O594 2.403 . S
Dy583 O595 2.664 . S
Dy583 O597 2.326 1_554 S
O584 Dy580 2.398 . S
O584 C582 1.185 . S
O585 Dy580 2.491 . S
O585 C582 1.355 . S
O586 Dy580 2.403 . S
O586 C588 1.254 . S
O587 Dy580 2.664 . S
O587 Dy583 2.310 . S
O587 C588 1.268 . S
C588 O586 1.254 . S
C588 O587 1.268 . S
C589 O594 1.254 . S
C589 O595 1.268 . S
O590 Dy583 2.351 . S
O590 C598 1.249 . S
O591 Dy580 2.326 . S
O591 C598 1.267 . S
O592 C581 1.185 1_554 S
O592 Dy583 2.398 . S
O593 C581 1.355 . S
O593 Dy583 2.491 1_556 S
O594 Dy583 2.403 . S
O594 C589 1.254 . S
O595 Dy580 2.310 . S
O595 Dy583 2.664 . S
O595 C589 1.268 . S
O596 Dy580 2.351 1_556 S
O596 C599 1.249 . S
O597 Dy583 2.326 1_556 S
O597 C599 1.267 . S
C598 O590 1.249 . S
C598 O591 1.267 . S
C599 O596 1.249 . S
C599 O597 1.267 . S
Dy600 O604 2.398 . S
Dy600 O605 2.491 . S
Dy600 O606 2.403 . S
Dy600 O607 2.664 . S
Dy600 O611 2.326 . S
Dy600 O615 2.310 . S
Dy600 O616 2.351 . S
C601 O612 1.185 . S
C601 O613 1.355 . S
C602 O604 1.185 . S
C602 O605 1.355 . S
Dy603 O607 2.310 . S
Dy603 O610 2.351 . S
Dy603 O612 2.398 . S
Dy603 O613 2.491 . S
Dy603 O614 2.403 . S
Dy603 O615 2.664 . S
Dy603 O617 2.326 . S
O604 Dy600 2.398 . S
O604 C602 1.185 . S
O605 Dy600 2.491 . S
O605 C602 1.355 . S
O606 Dy600 2.403 . S
O606 C608 1.254 . S
O607 Dy600 2.664 . S
O607 Dy603 2.310 . S
O607 C608 1.268 . S
C608 O606 1.254 . S
C608 O607 1.268 . S
C609 O614 1.254 . S
C609 O615 1.268 . S
O610 Dy603 2.351 . S
O610 C618 1.249 . S
O611 Dy600 2.326 . S
O611 C618 1.267 . S
O612 C601 1.185 . S
O612 Dy603 2.398 . S
O613 C601 1.355 . S
O613 Dy603 2.491 . S
O614 Dy603 2.403 . S
O614 C609 1.254 . S
O615 Dy600 2.310 . S
O615 Dy603 2.664 . S
O615 C609 1.268 . S
O616 Dy600 2.351 . S
O616 C619 1.249 . S
O617 Dy603 2.326 . S
O617 C619 1.267 . S
C618 O610 1.249 . S
C618 O611 1.267 . S
C619 O616 1.249 . S
C619 O617 1.267 . S
Dy620 O624 2.398 . S
Dy620 O625 2.491 . S
Dy620 O626 2.403 . S
Dy620 O627 2.664 . S
Dy620 O631 2.326 . S
Dy620 O635 2.310 . S
Dy620 O636 2.351 . S
C621 O632 1.185 . S
C621 O633 1.355 . S
C622 O624 1.185 . S
C622 O625 1.355 . S
Dy623 O627 2.310 . S
Dy623 O630 2.351 . S
Dy623 O632 2.398 . S
Dy623 O633 2.491 . S
Dy623 O634 2.403 . S
Dy623 O635 2.664 . S
Dy623 O637 2.326 . S
O624 Dy620 2.398 . S
O624 C622 1.185 . S
O625 Dy620 2.491 . S
O625 C622 1.355 . S
O626 Dy620 2.403 . S
O626 C628 1.254 . S
O627 Dy620 2.664 . S
O627 Dy623 2.310 . S
O627 C628 1.268 . S
C628 O626 1.254 . S
C628 O627 1.268 . S
C629 O634 1.254 . S
C629 O635 1.268 . S
O630 Dy623 2.351 . S
O630 C638 1.249 . S
O631 Dy620 2.326 . S
O631 C638 1.267 . S
O632 C621 1.185 . S
O632 Dy623 2.398 . S
O633 C621 1.355 . S
O633 Dy623 2.491 . S
O634 Dy623 2.403 . S
O634 C629 1.254 . S
O635 Dy620 2.310 . S
O635 Dy623 2.664 . S
O635 C629 1.268 . S
O636 Dy620 2.351 . S
O636 C639 1.249 . S
O637 Dy623 2.326 . S
O637 C639 1.267 . S
C638 O630 1.249 . S
C638 O631 1.267 . S
C639 O636 1.249 . S
C639 O637 1.267 . S
C640 C641 1.369 . S
C640 C642 1.419 . S
C640 H644 0.930 . S
C641 C640 1.369 . S
C641 C650 1.429 . S
C642 C640 1.419 . S
C642 C643 1.363 . S
C642 H645 0.929 . S
C643 C642 1.363 . S
C643 C649 1.428 . S
H644 C640 0.930 . S
H645 C642 0.929 . S
S646 N647 1.613 . S
S646 N648 1.610 . S
N647 S646 1.613 . S
N647 C650 1.350 . S
N648 S646 1.610 . S
N648 C649 1.351 . S
C649 C643 1.428 . S
C649 N648 1.351 . S
C649 C650 1.434 . S
C650 C641 1.429 . S
C650 N647 1.350 . S
C650 C649 1.434 . S
C651 C652 1.369 . S
C651 C653 1.419 . S
C651 H655 0.930 . S
C652 C651 1.369 . S
C652 C661 1.429 . S
C653 C651 1.419 . S
C653 C654 1.363 . S
C653 H656 0.929 . S
C654 C653 1.363 . S
C654 C660 1.428 1_545 S
H655 C651 0.930 . S
H656 C653 0.929 . S
S657 N658 1.613 1_565 S
S657 N659 1.610 . S
N658 S657 1.613 1_545 S
N658 C661 1.350 . S
N659 S657 1.610 . S
N659 C660 1.351 . S
C660 C654 1.428 1_565 S
C660 N659 1.351 . S
C660 C661 1.434 1_565 S
C661 C652 1.429 . S
C661 N658 1.350 . S
C661 C660 1.434 1_545 S
C662 C663 1.369 . S
C662 C664 1.419 . S
C662 H666 0.930 . S
C663 C662 1.369 . S
C663 C672 1.429 . S
C664 C662 1.419 . S
C664 C665 1.363 . S
C664 H667 0.929 . S
C665 C664 1.363 . S
C665 C671 1.428 . S
H666 C662 0.930 . S
H667 C664 0.929 . S
S668 N669 1.613 . S
S668 N670 1.610 . S
N669 S668 1.613 . S
N669 C672 1.350 . S
N670 S668 1.610 . S
N670 C671 1.351 . S
C671 C665 1.428 . S
C671 N670 1.351 . S
C671 C672 1.434 . S
C672 C663 1.429 . S
C672 N669 1.350 . S
C672 C671 1.434 . S
C673 C674 1.369 . S
C673 C675 1.419 . S
C673 H677 0.930 . S
C674 C673 1.369 . S
C674 C683 1.429 . S
C675 C673 1.419 . S
C675 C676 1.363 . S
C675 H678 0.929 . S
C676 C675 1.363 . S
C676 C682 1.428 . S
H677 C673 0.930 . S
H678 C675 0.929 . S
S679 N680 1.613 . S
S679 N681 1.610 . S
N680 S679 1.613 . S
N680 C683 1.350 . S
N681 S679 1.610 . S
N681 C682 1.351 . S
C682 C676 1.428 . S
C682 N681 1.351 . S
C682 C683 1.434 . S
C683 C674 1.429 . S
C683 N680 1.350 . S
C683 C682 1.434 . S
C684 C685 1.369 . S
C684 C686 1.419 . S
C684 H688 0.930 . S
C685 C684 1.369 . S
C685 C694 1.429 . S
C686 C684 1.419 . S
C686 C687 1.363 . S
C686 H689 0.929 . S
C687 C686 1.363 . S
C687 C693 1.428 . S
H688 C684 0.930 . S
H689 C686 0.929 . S
S690 N691 1.613 . S
S690 N692 1.610 . S
N691 S690 1.613 . S
N691 C694 1.350 . S
N692 S690 1.610 . S
N692 C693 1.351 . S
C693 C687 1.428 . S
C693 N692 1.351 . S
C693 C694 1.434 . S
C694 C685 1.429 . S
C694 N691 1.350 . S
C694 C693 1.434 . S
C695 C696 1.369 . S
C695 C697 1.419 . S
C695 H699 0.930 . S
C696 C695 1.369 . S
C696 C705 1.429 1_545 S
C697 C695 1.419 . S
C697 C698 1.363 . S
C697 H700 0.929 . S
C698 C697 1.363 . S
C698 C704 1.428 . S
H699 C695 0.930 . S
H700 C697 0.929 . S
S701 N702 1.613 . S
S701 N703 1.610 1_565 S
N702 S701 1.613 . S
N702 C705 1.350 . S
N703 S701 1.610 1_545 S
N703 C704 1.351 . S
C704 C698 1.428 . S
C704 N703 1.351 . S
C704 C705 1.434 1_545 S
C705 C696 1.429 1_565 S
C705 N702 1.350 . S
C705 C704 1.434 1_565 S
C706 C707 1.369 . S
C706 C708 1.419 . S
C706 H710 0.930 . S
C707 C706 1.369 . S
C707 C716 1.429 . S
C708 C706 1.419 . S
C708 C709 1.363 . S
C708 H711 0.929 . S
C709 C708 1.363 . S
C709 C715 1.428 . S
H710 C706 0.930 . S
H711 C708 0.929 . S
S712 N713 1.613 . S
S712 N714 1.610 . S
N713 S712 1.613 . S
N713 C716 1.350 . S
N714 S712 1.610 . S
N714 C715 1.351 . S
C715 C709 1.428 . S
C715 N714 1.351 . S
C715 C716 1.434 . S
C716 C707 1.429 . S
C716 N713 1.350 . S
C716 C715 1.434 . S
C717 C718 1.369 . S
C717 C719 1.419 . S
C717 H721 0.930 . S
C718 C717 1.369 . S
C718 C727 1.429 . S
C719 C717 1.419 . S
C719 C720 1.363 . S
C719 H722 0.929 1_565 S
C720 C719 1.363 . S
C720 C726 1.428 . S
H721 C717 0.930 . S
H722 C719 0.929 1_545 S
S723 N724 1.613 . S
S723 N725 1.610 . S
N724 S723 1.613 . S
N724 C727 1.350 . S
N725 S723 1.610 . S
N725 C726 1.351 . S
C726 C720 1.428 . S
C726 N725 1.351 . S
C726 C727 1.434 . S
C727 C718 1.429 . S
C727 N724 1.350 . S
C727 C726 1.434 . S
C728 C729 1.369 . S
C728 C730 1.419 . S
C728 H732 0.930 . S
C729 C728 1.369 . S
C729 C738 1.429 . S
C730 C728 1.419 . S
C730 C731 1.363 . S
C730 H733 0.929 . S
C731 C730 1.363 . S
C731 C737 1.428 . S
H732 C728 0.930 . S
H733 C730 0.929 . S
S734 N735 1.613 . S
S734 N736 1.610 . S
N735 S734 1.613 . S
N735 C738 1.350 . S
N736 S734 1.610 . S
N736 C737 1.351 . S
C737 C731 1.428 . S
C737 N736 1.351 . S
C737 C738 1.434 . S
C738 C729 1.429 . S
C738 N735 1.350 . S
C738 C737 1.434 . S
C739 C740 1.369 . S
C739 C741 1.419 . S
C739 H743 0.930 . S
C740 C739 1.369 . S
C740 C749 1.429 . S
C741 C739 1.419 . S
C741 C742 1.363 . S
C741 H744 0.929 . S
C742 C741 1.363 . S
C742 C748 1.428 . S
H743 C739 0.930 . S
H744 C741 0.929 . S
S745 N746 1.613 . S
S745 N747 1.610 . S
N746 S745 1.613 . S
N746 C749 1.350 . S
N747 S745 1.610 . S
N747 C748 1.351 . S
C748 C742 1.428 . S
C748 N747 1.351 . S
C748 C749 1.434 . S
C749 C740 1.429 . S
C749 N746 1.350 . S
C749 C748 1.434 . S
C750 C751 1.369 . S
C750 C752 1.419 . S
C750 H754 0.930 . S
C751 C750 1.369 . S
C751 C760 1.429 . S
C752 C750 1.419 . S
C752 C753 1.363 . S
C752 H755 0.929 . S
C753 C752 1.363 . S
C753 C759 1.428 . S
H754 C750 0.930 . S
H755 C752 0.929 . S
S756 N757 1.613 . S
S756 N758 1.610 . S
N757 S756 1.613 . S
N757 C760 1.350 . S
N758 S756 1.610 . S
N758 C759 1.351 . S
C759 C753 1.428 . S
C759 N758 1.351 . S
C759 C760 1.434 . S
C760 C751 1.429 . S
C760 N757 1.350 . S
C760 C759 1.434 . S
C761 C762 1.370 . S
C761 C763 1.425 . S
C761 H765 0.923 1_545 S
C762 C761 1.370 . S
C762 C771 1.429 . S
C763 C761 1.425 . S
C763 C764 1.363 . S
C763 H766 0.929 . S
C764 C763 1.363 . S
C764 C770 1.428 . S
H765 C761 0.923 1_565 S
H766 C763 0.929 . S
S767 N768 1.613 . S
S767 N769 1.610 . S
N768 S767 1.613 . S
N768 C771 1.350 . S
N769 S767 1.610 . S
N769 C770 1.351 . S
C770 C764 1.428 . S
C770 N769 1.351 . S
C770 C771 1.434 . S
C771 C762 1.429 . S
C771 N768 1.350 . S
C771 C770 1.434 . S
C772 C773 1.369 . S
C772 C774 1.419 . S
C772 H776 0.930 . S
C773 C772 1.369 . S
C773 C782 1.429 . S
C774 C772 1.419 . S
C774 C775 1.363 . S
C774 H777 0.929 . S
C775 C774 1.363 . S
C775 C781 1.428 . S
H776 C772 0.930 . S
H777 C774 0.929 . S
S778 N779 1.613 . S
S778 N780 1.610 . S
N779 S778 1.613 . S
N779 C782 1.350 . S
N780 S778 1.610 . S
N780 C781 1.351 . S
C781 C775 1.428 . S
C781 N780 1.351 . S
C781 C782 1.434 . S
C782 C773 1.429 . S
C782 N779 1.350 . S
C782 C781 1.434 . S
C783 C784 1.369 . S
C783 C785 1.419 . S
C783 H787 0.930 1_565 S
C784 C783 1.369 . S
C784 C793 1.429 . S
C785 C783 1.419 . S
C785 C786 1.363 . S
C785 H788 0.929 . S
C786 C785 1.363 . S
C786 C792 1.428 . S
H787 C783 0.930 1_545 S
H788 C785 0.929 . S
S789 N790 1.613 . S
S789 N791 1.610 . S
N790 S789 1.613 . S
N790 C793 1.350 . S
N791 S789 1.610 . S
N791 C792 1.351 . S
C792 C786 1.428 . S
C792 N791 1.351 . S
C792 C793 1.434 . S
C793 C784 1.429 . S
C793 N790 1.350 . S
C793 C792 1.434 . S
C794 C795 1.369 . S
C794 C796 1.419 . S
C794 H798 0.930 . S
C795 C794 1.369 . S
C795 C804 1.429 . S
C796 C794 1.419 . S
C796 C797 1.363 . S
C796 H799 0.929 . S
C797 C796 1.363 . S
C797 C803 1.428 . S
H798 C794 0.930 . S
H799 C796 0.929 . S
S800 N801 1.613 . S
S800 N802 1.610 . S
N801 S800 1.613 . S
N801 C804 1.350 . S
N802 S800 1.610 . S
N802 C803 1.351 . S
C803 C797 1.428 . S
C803 N802 1.351 . S
C803 C804 1.434 . S
C804 C795 1.429 . S
C804 N801 1.350 . S
C804 C803 1.434 . S
C805 C806 1.369 . S
C805 C807 1.419 . S
C805 H809 0.930 . S
C806 C805 1.369 . S
C806 C815 1.429 . S
C807 C805 1.419 . S
C807 C808 1.363 . S
C807 H810 0.929 . S
C808 C807 1.363 . S
C808 C814 1.428 . S
H809 C805 0.930 . S
H810 C807 0.929 . S
S811 N812 1.613 . S
S811 N813 1.610 1_545 S
N812 S811 1.613 . S
N812 C815 1.350 . S
N813 S811 1.610 1_565 S
N813 C814 1.351 1_565 S
C814 C808 1.428 . S
C814 N813 1.351 1_545 S
C814 C815 1.434 . S
C815 C806 1.429 . S
C815 N812 1.350 . S
C815 C814 1.434 . S
C816 C817 1.369 . S
C816 C818 1.419 . S
C816 H820 0.930 . S
C817 C816 1.369 . S
C817 C826 1.429 . S
C818 C816 1.419 . S
C818 C819 1.363 . S
C818 H821 0.929 . S
C819 C818 1.363 . S
C819 C825 1.428 . S
H820 C816 0.930 . S
H821 C818 0.929 . S
S822 N823 1.613 . S
S822 N824 1.610 . S
N823 S822 1.613 . S
N823 C826 1.350 . S
N824 S822 1.610 . S
N824 C825 1.351 . S
C825 C819 1.428 . S
C825 N824 1.351 . S
C825 C826 1.434 . S
C826 C817 1.429 . S
C826 N823 1.350 . S
C826 C825 1.434 . S
C827 C828 1.369 . S
C827 C829 1.419 . S
C827 H831 0.930 . S
C828 C827 1.369 . S
C828 C837 1.429 . S
C829 C827 1.419 . S
C829 C830 1.363 . S
C829 H832 0.929 . S
C830 C829 1.363 . S
C830 C836 1.428 . S
H831 C827 0.930 . S
H832 C829 0.929 . S
S833 N834 1.613 . S
S833 N835 1.610 . S
N834 S833 1.613 . S
N834 C837 1.350 . S
N835 S833 1.610 . S
N835 C836 1.351 . S
C836 C830 1.428 . S
C836 N835 1.351 . S
C836 C837 1.434 . S
C837 C828 1.429 . S
C837 N834 1.350 . S
C837 C836 1.434 . S
C838 C839 1.369 . S
C838 C840 1.419 . S
C838 H842 0.930 . S
C839 C838 1.369 . S
C839 C848 1.429 . S
C840 C838 1.419 . S
C840 C841 1.363 . S
C840 H843 0.929 . S
C841 C840 1.363 . S
C841 C847 1.428 . S
H842 C838 0.930 . S
H843 C840 0.929 . S
S844 N845 1.613 . S
S844 N846 1.610 . S
N845 S844 1.613 . S
N845 C848 1.350 . S
N846 S844 1.610 . S
N846 C847 1.351 . S
C847 C841 1.428 . S
C847 N846 1.351 . S
C847 C848 1.434 . S
C848 C839 1.429 . S
C848 N845 1.350 . S
C848 C847 1.434 . S
C849 C850 1.369 . S
C849 C851 1.419 . S
C849 H853 0.930 . S
C850 C849 1.369 . S
C850 C859 1.429 . S
C851 C849 1.419 . S
C851 C852 1.363 . S
C851 H854 0.929 . S
C852 C851 1.363 . S
C852 C858 1.428 . S
H853 C849 0.930 . S
H854 C851 0.929 . S
S855 N856 1.613 . S
S855 N857 1.610 . S
N856 S855 1.613 . S
N856 C859 1.350 . S
N857 S855 1.610 . S
N857 C858 1.351 . S
C858 C852 1.428 . S
C858 N857 1.351 . S
C858 C859 1.434 . S
C859 C850 1.429 . S
C859 N856 1.350 . S
C859 C858 1.434 . S
C860 C861 1.369 . S
C860 C862 1.419 . S
C860 H864 0.930 . S
C861 C860 1.369 . S
C861 C870 1.429 . S
C862 C860 1.419 . S
C862 C863 1.363 . S
C862 H865 0.929 . S
C863 C862 1.363 . S
C863 C869 1.428 . S
H864 C860 0.930 . S
H865 C862 0.929 . S
S866 N867 1.613 . S
S866 N868 1.610 . S
N867 S866 1.613 . S
N867 C870 1.350 . S
N868 S866 1.610 . S
N868 C869 1.351 . S
C869 C863 1.428 . S
C869 N868 1.351 . S
C869 C870 1.434 . S
C870 C861 1.429 . S
C870 N867 1.350 . S
C870 C869 1.434 . S
C871 C872 1.369 . S
C871 C873 1.419 . S
C871 H875 0.930 . S
C872 C871 1.369 . S
C872 C881 1.429 . S
C873 C871 1.419 . S
C873 C874 1.363 . S
C873 H876 0.929 . S
C874 C873 1.363 . S
C874 C880 1.428 . S
H875 C871 0.930 . S
H876 C873 0.929 . S
S877 N878 1.613 . S
S877 N879 1.610 . S
N878 S877 1.613 . S
N878 C881 1.350 . S
N879 S877 1.610 . S
N879 C880 1.351 . S
C880 C874 1.428 . S
C880 N879 1.351 . S
C880 C881 1.434 . S
C881 C872 1.429 . S
C881 N878 1.350 . S
C881 C880 1.434 . S
C882 C883 1.369 . S
C882 C884 1.419 . S
C882 H886 0.930 . S
C883 C882 1.369 . S
C883 C892 1.429 . S
C884 C882 1.419 . S
C884 C885 1.363 . S
C884 H887 0.929 . S
C885 C884 1.363 . S
C885 C891 1.428 . S
H886 C882 0.930 . S
H887 C884 0.929 . S
S888 N889 1.613 . S
S888 N890 1.610 . S
N889 S888 1.613 . S
N889 C892 1.350 . S
N890 S888 1.610 . S
N890 C891 1.351 . S
C891 C885 1.428 . S
C891 N890 1.351 . S
C891 C892 1.434 . S
C892 C883 1.429 . S
C892 N889 1.350 . S
C892 C891 1.434 . S
C893 C894 1.369 . S
C893 C895 1.419 . S
C893 H897 0.930 . S
C894 C893 1.369 . S
C894 C903 1.429 . S
C895 C893 1.419 . S
C895 C896 1.363 . S
C895 H898 0.929 . S
C896 C895 1.363 . S
C896 C902 1.428 . S
H897 C893 0.930 . S
H898 C895 0.929 . S
S899 N900 1.613 . S
S899 N901 1.610 . S
N900 S899 1.613 . S
N900 C903 1.350 . S
N901 S899 1.610 . S
N901 C902 1.351 . S
C902 C896 1.428 . S
C902 N901 1.351 . S
C902 C903 1.434 . S
C903 C894 1.429 . S
C903 N900 1.350 . S
C903 C902 1.434 . S
C904 C905 1.369 . S
C904 C906 1.419 . S
C904 H908 0.930 . S
C905 C904 1.369 . S
C905 C914 1.429 . S
C906 C904 1.419 . S
C906 C907 1.363 . S
C906 H909 0.929 . S
C907 C906 1.363 . S
C907 C913 1.428 . S
H908 C904 0.930 . S
H909 C906 0.929 . S
S910 N911 1.613 . S
S910 N912 1.610 . S
N911 S910 1.613 . S
N911 C914 1.350 . S
N912 S910 1.610 . S
N912 C913 1.351 . S
C913 C907 1.428 . S
C913 N912 1.351 . S
C913 C914 1.434 . S
C914 C905 1.429 . S
C914 N911 1.350 . S
C914 C913 1.434 . S
C915 C916 1.369 . S
C915 C917 1.419 . S
C915 H919 0.930 . S
C916 C915 1.369 . S
C916 C925 1.429 . S
C917 C915 1.419 . S
C917 C918 1.363 . S
C917 H920 0.929 . S
C918 C917 1.363 . S
C918 C924 1.428 . S
H919 C915 0.930 . S
H920 C917 0.929 . S
S921 N922 1.613 . S
S921 N923 1.610 . S
N922 S921 1.613 . S
N922 C925 1.350 . S
N923 S921 1.610 . S
N923 C924 1.351 . S
C924 C918 1.428 . S
C924 N923 1.351 . S
C924 C925 1.434 . S
C925 C916 1.429 . S
C925 N922 1.350 . S
C925 C924 1.434 . S
C926 C927 1.369 . S
C926 C928 1.419 . S
C926 H930 0.930 . S
C927 C926 1.369 . S
C927 C936 1.429 . S
C928 C926 1.419 . S
C928 C929 1.363 . S
C928 H931 0.929 . S
C929 C928 1.363 . S
C929 C935 1.428 . S
H930 C926 0.930 . S
H931 C928 0.929 . S
S932 N933 1.613 . S
S932 N934 1.610 . S
N933 S932 1.613 . S
N933 C936 1.350 . S
N934 S932 1.610 . S
N934 C935 1.351 . S
C935 C929 1.428 . S
C935 N934 1.351 . S
C935 C936 1.434 . S
C936 C927 1.429 . S
C936 N933 1.350 . S
C936 C935 1.434 . S
C937 C938 1.369 . S
C937 C939 1.419 . S
C937 H941 0.930 . S
C938 C937 1.369 . S
C938 C947 1.429 . S
C939 C937 1.419 . S
C939 C940 1.363 . S
C939 H942 0.929 . S
C940 C939 1.363 . S
C940 C946 1.428 . S
H941 C937 0.930 . S
H942 C939 0.929 . S
S943 N944 1.613 . S
S943 N945 1.610 . S
N944 S943 1.613 . S
N944 C947 1.350 . S
N945 S943 1.610 . S
N945 C946 1.351 . S
C946 C940 1.428 . S
C946 N945 1.351 . S
C946 C947 1.434 . S
C947 C938 1.429 . S
C947 N944 1.350 . S
C947 C946 1.434 . S
C948 C949 1.369 . S
C948 C950 1.419 . S
C948 H952 0.930 . S
C949 C948 1.369 . S
C949 C958 1.429 . S
C950 C948 1.419 . S
C950 C951 1.363 . S
C950 H953 0.929 . S
C951 C950 1.363 . S
C951 C957 1.428 . S
H952 C948 0.930 . S
H953 C950 0.929 . S
S954 N955 1.613 . S
S954 N956 1.610 . S
N955 S954 1.613 . S
N955 C958 1.350 . S
N956 S954 1.610 . S
N956 C957 1.351 . S
C957 C951 1.428 . S
C957 N956 1.351 . S
C957 C958 1.434 . S
C958 C949 1.429 . S
C958 N955 1.350 . S
C958 C957 1.434 . S
C959 C960 1.369 . S
C959 C961 1.419 . S
C959 H963 0.930 . S
C960 C959 1.369 . S
C960 C969 1.429 . S
C961 C959 1.419 . S
C961 C962 1.363 . S
C961 H964 0.929 . S
C962 C961 1.363 . S
C962 C968 1.428 . S
H963 C959 0.930 . S
H964 C961 0.929 . S
S965 N966 1.613 . S
S965 N967 1.610 . S
N966 S965 1.613 . S
N966 C969 1.350 . S
N967 S965 1.610 . S
N967 C968 1.351 . S
C968 C962 1.428 . S
C968 N967 1.351 . S
C968 C969 1.434 . S
C969 C960 1.429 . S
C969 N966 1.350 . S
C969 C968 1.434 . S
C970 C971 1.369 . S
C970 C972 1.419 . S
C970 H974 0.930 . S
C971 C970 1.369 . S
C971 C980 1.429 . S
C972 C970 1.419 . S
C972 C973 1.363 . S
C972 H975 0.929 . S
C973 C972 1.363 . S
C973 C979 1.428 . S
H974 C970 0.930 . S
H975 C972 0.929 . S
S976 N977 1.613 . S
S976 N978 1.610 . S
N977 S976 1.613 . S
N977 C980 1.350 . S
N978 S976 1.610 . S
N978 C979 1.351 . S
C979 C973 1.428 . S
C979 N978 1.351 . S
C979 C980 1.434 . S
C980 C971 1.429 . S
C980 N977 1.350 . S
C980 C979 1.434 . S
C981 C982 1.369 . S
C981 C983 1.419 . S
C981 H985 0.930 . S
C982 C981 1.369 . S
C982 C991 1.429 . S
C983 C981 1.419 . S
C983 C984 1.363 . S
C983 H986 0.929 . S
C984 C983 1.363 . S
C984 C990 1.428 . S
H985 C981 0.930 . S
H986 C983 0.929 . S
S987 N988 1.613 . S
S987 N989 1.610 . S
N988 S987 1.613 . S
N988 C991 1.350 . S
N989 S987 1.610 . S
N989 C990 1.351 . S
C990 C984 1.428 . S
C990 N989 1.351 . S
C990 C991 1.434 . S
C991 C982 1.429 . S
C991 N988 1.350 . S
C991 C990 1.434 . S
C992 C993 1.369 . S
C992 C994 1.419 . S
C992 H996 0.930 . S
C993 C992 1.369 . S
C993 C1002 1.429 . S
C994 C992 1.419 . S
C994 C995 1.363 . S
C994 H997 0.929 . S
C995 C994 1.363 . S
C995 C1001 1.428 . S
H996 C992 0.930 . S
H997 C994 0.929 . S
S998 N999 1.613 . S
S998 N1000 1.610 . S
N999 S998 1.613 . S
N999 C1002 1.350 . S
N1000 S998 1.610 . S
N1000 C1001 1.351 . S
C1001 C995 1.428 . S
C1001 N1000 1.351 . S
C1001 C1002 1.434 . S
C1002 C993 1.429 . S
C1002 N999 1.350 . S
C1002 C1001 1.434 . S
C1003 C1004 1.369 . S
C1003 C1005 1.419 . S
C1003 H1007 0.930 . S
C1004 C1003 1.369 . S
C1004 C1013 1.429 . S
C1005 C1003 1.419 . S
C1005 C1006 1.363 1_455 S
C1005 H1008 0.929 . S
C1006 C1005 1.363 1_655 S
C1006 C1012 1.428 . S
H1007 C1003 0.930 . S
H1008 C1005 0.929 . S
S1009 N1010 1.613 1_655 S
S1009 N1011 1.610 . S
N1010 S1009 1.613 1_455 S
N1010 C1013 1.350 . S
N1011 S1009 1.610 . S
N1011 C1012 1.351 . S
C1012 C1006 1.428 . S
C1012 N1011 1.351 . S
C1012 C1013 1.434 1_655 S
C1013 C1004 1.429 . S
C1013 N1010 1.350 . S
C1013 C1012 1.434 1_455 S
C1014 C1015 1.369 . S
C1014 C1016 1.419 . S
C1014 H1018 0.930 . S
C1015 C1014 1.369 . S
C1015 C1024 1.429 . S
C1016 C1014 1.419 . S
C1016 C1017 1.363 . S
C1016 H1019 0.929 . S
C1017 C1016 1.363 . S
C1017 C1023 1.428 . S
H1018 C1014 0.930 . S
H1019 C1016 0.929 . S
S1020 N1021 1.613 . S
S1020 N1022 1.610 . S
N1021 S1020 1.613 . S
N1021 C1024 1.350 . S
N1022 S1020 1.610 . S
N1022 C1023 1.351 . S
C1023 C1017 1.428 . S
C1023 N1022 1.351 . S
C1023 C1024 1.434 . S
C1024 C1015 1.429 . S
C1024 N1021 1.350 . S
C1024 C1023 1.434 . S
C1025 C1026 1.369 . S
C1025 C1027 1.419 . S
C1025 H1029 0.930 . S
C1026 C1025 1.369 . S
C1026 C1035 1.429 . S
C1027 C1025 1.419 . S
C1027 C1028 1.363 . S
C1027 H1030 0.929 . S
C1028 C1027 1.363 . S
C1028 C1034 1.428 . S
H1029 C1025 0.930 . S
H1030 C1027 0.929 . S
S1031 N1032 1.613 . S
S1031 N1033 1.610 . S
N1032 S1031 1.613 . S
N1032 C1035 1.350 . S
N1033 S1031 1.610 . S
N1033 C1034 1.351 . S
C1034 C1028 1.428 . S
C1034 N1033 1.351 . S
C1034 C1035 1.434 . S
C1035 C1026 1.429 . S
C1035 N1032 1.350 . S
C1035 C1034 1.434 . S
C1036 C1037 1.369 . S
C1036 C1038 1.419 . S
C1036 H1040 0.930 . S
C1037 C1036 1.369 . S
C1037 C1046 1.429 . S
C1038 C1036 1.419 . S
C1038 C1039 1.363 . S
C1038 H1041 0.929 . S
C1039 C1038 1.363 . S
C1039 C1045 1.428 . S
H1040 C1036 0.930 . S
H1041 C1038 0.929 . S
S1042 N1043 1.613 . S
S1042 N1044 1.610 . S
N1043 S1042 1.613 . S
N1043 C1046 1.350 . S
N1044 S1042 1.610 . S
N1044 C1045 1.351 . S
C1045 C1039 1.428 . S
C1045 N1044 1.351 . S
C1045 C1046 1.434 . S
C1046 C1037 1.429 . S
C1046 N1043 1.350 . S
C1046 C1045 1.434 . S
C1047 C1048 1.369 . S
C1047 C1049 1.419 . S
C1047 H1051 0.930 . S
C1048 C1047 1.369 . S
C1048 C1057 1.429 . S
C1049 C1047 1.419 . S
C1049 C1050 1.363 . S
C1049 H1052 0.929 . S
C1050 C1049 1.363 . S
C1050 C1056 1.428 . S
H1051 C1047 0.930 . S
H1052 C1049 0.929 . S
S1053 N1054 1.613 . S
S1053 N1055 1.610 . S
N1054 S1053 1.613 . S
N1054 C1057 1.350 . S
N1055 S1053 1.610 . S
N1055 C1056 1.351 . S
C1056 C1050 1.428 . S
C1056 N1055 1.351 . S
C1056 C1057 1.434 . S
C1057 C1048 1.429 . S
C1057 N1054 1.350 . S
C1057 C1056 1.434 . S
C1058 C1059 1.369 . S
C1058 C1060 1.419 . S
C1058 H1062 0.930 . S
C1059 C1058 1.369 . S
C1059 C1068 1.429 . S
C1060 C1058 1.419 . S
C1060 C1061 1.363 . S
C1060 H1063 0.929 . S
C1061 C1060 1.363 . S
C1061 C1067 1.428 . S
H1062 C1058 0.930 . S
H1063 C1060 0.929 . S
S1064 N1065 1.613 . S
S1064 N1066 1.610 . S
N1065 S1064 1.613 . S
N1065 C1068 1.350 . S
N1066 S1064 1.610 . S
N1066 C1067 1.351 . S
C1067 C1061 1.428 . S
C1067 N1066 1.351 . S
C1067 C1068 1.434 . S
C1068 C1059 1.429 . S
C1068 N1065 1.350 . S
C1068 C1067 1.434 . S
C1069 C1070 1.369 . S
C1069 C1071 1.419 . S
C1069 H1073 0.930 . S
C1070 C1069 1.369 . S
C1070 C1079 1.429 . S
C1071 C1069 1.419 . S
C1071 C1072 1.363 1_455 S
C1071 H1074 0.916 1_455 S
C1072 C1071 1.363 1_655 S
C1072 C1078 1.428 1_655 S
H1073 C1069 0.930 . S
H1074 C1071 0.916 1_655 S
S1075 N1076 1.613 . S
S1075 N1077 1.623 . S
N1076 S1075 1.613 . S
N1076 C1079 1.350 . S
N1077 S1075 1.623 . S
N1077 C1078 1.356 . S
C1078 C1072 1.428 1_455 S
C1078 N1077 1.356 . S
C1078 C1079 1.434 . S
C1079 C1070 1.429 . S
C1079 N1076 1.350 . S
C1079 C1078 1.434 . S
C1080 C1081 1.369 . S
C1080 C1082 1.419 . S
C1080 H1084 0.930 . S
C1081 C1080 1.369 . S
C1081 C1090 1.429 . S
C1082 C1080 1.419 . S
C1082 C1083 1.363 . S
C1082 H1085 0.929 . S
C1083 C1082 1.363 . S
C1083 C1089 1.428 . S
H1084 C1080 0.930 . S
H1085 C1082 0.929 . S
S1086 N1087 1.613 . S
S1086 N1088 1.610 . S
N1087 S1086 1.613 . S
N1087 C1090 1.350 . S
N1088 S1086 1.610 . S
N1088 C1089 1.351 . S
C1089 C1083 1.428 . S
C1089 N1088 1.351 . S
C1089 C1090 1.434 . S
C1090 C1081 1.429 . S
C1090 N1087 1.350 . S
C1090 C1089 1.434 . S
C1091 C1092 1.369 1_655 S
C1091 C1093 1.419 . S
C1091 H1095 0.930 . S
C1092 C1091 1.369 1_455 S
C1092 C1101 1.429 . S
C1093 C1091 1.419 . S
C1093 C1094 1.363 . S
C1093 H1096 0.929 . S
C1094 C1093 1.363 . S
C1094 C1100 1.428 . S
H1095 C1091 0.930 . S
H1096 C1093 0.929 . S
S1097 N1098 1.613 . S
S1097 N1099 1.610 1_455 S
N1098 S1097 1.613 . S
N1098 C1101 1.350 . S
N1099 S1097 1.610 1_655 S
N1099 C1100 1.351 . S
C1100 C1094 1.428 . S
C1100 N1099 1.351 . S
C1100 C1101 1.434 1_655 S
C1101 C1092 1.429 . S
C1101 N1098 1.350 . S
C1101 C1100 1.434 1_455 S
C1102 C1103 1.369 . S
C1102 C1104 1.419 . S
C1102 H1106 0.930 . S
C1103 C1102 1.369 . S
C1103 C1112 1.429 . S
C1104 C1102 1.419 . S
C1104 C1105 1.363 . S
C1104 H1107 0.929 . S
C1105 C1104 1.363 . S
C1105 C1111 1.428 . S
H1106 C1102 0.930 . S
H1107 C1104 0.929 . S
S1108 N1109 1.613 . S
S1108 N1110 1.610 . S
N1109 S1108 1.613 . S
N1109 C1112 1.350 . S
N1110 S1108 1.610 . S
N1110 C1111 1.351 . S
C1111 C1105 1.428 . S
C1111 N1110 1.351 . S
C1111 C1112 1.434 . S
C1112 C1103 1.429 . S
C1112 N1109 1.350 . S
C1112 C1111 1.434 . S
C1113 C1114 1.369 . S
C1113 C1115 1.419 . S
C1113 H1117 0.930 . S
C1114 C1113 1.369 . S
C1114 C1123 1.429 . S
C1115 C1113 1.419 . S
C1115 C1116 1.363 . S
C1115 H1118 0.929 . S
C1116 C1115 1.363 . S
C1116 C1122 1.428 . S
H1117 C1113 0.930 . S
H1118 C1115 0.929 . S
S1119 N1120 1.613 . S
S1119 N1121 1.610 . S
N1120 S1119 1.613 . S
N1120 C1123 1.350 . S
N1121 S1119 1.610 . S
N1121 C1122 1.351 . S
C1122 C1116 1.428 . S
C1122 N1121 1.351 . S
C1122 C1123 1.434 . S
C1123 C1114 1.429 . S
C1123 N1120 1.350 . S
C1123 C1122 1.434 . S
C1124 C1125 1.369 . S
C1124 C1126 1.419 . S
C1124 H1128 0.930 . S
C1125 C1124 1.369 . S
C1125 C1134 1.429 . S
C1126 C1124 1.419 . S
C1126 C1127 1.363 . S
C1126 H1129 0.929 . S
C1127 C1126 1.363 . S
C1127 C1133 1.428 . S
H1128 C1124 0.930 . S
H1129 C1126 0.929 . S
S1130 N1131 1.613 . S
S1130 N1132 1.610 . S
N1131 S1130 1.613 . S
N1131 C1134 1.350 . S
N1132 S1130 1.610 . S
N1132 C1133 1.351 . S
C1133 C1127 1.428 . S
C1133 N1132 1.351 . S
C1133 C1134 1.434 . S
C1134 C1125 1.429 . S
C1134 N1131 1.350 . S
C1134 C1133 1.434 . S
C1135 C1136 1.369 . S
C1135 C1137 1.419 . S
C1135 H1139 0.930 . S
C1136 C1135 1.369 . S
C1136 C1145 1.429 . S
C1137 C1135 1.419 . S
C1137 C1138 1.363 . S
C1137 H1140 0.929 . S
C1138 C1137 1.363 . S
C1138 C1144 1.428 . S
H1139 C1135 0.930 . S
H1140 C1137 0.929 . S
S1141 N1142 1.613 . S
S1141 N1143 1.610 . S
N1142 S1141 1.613 . S
N1142 C1145 1.350 . S
N1143 S1141 1.610 . S
N1143 C1144 1.351 . S
C1144 C1138 1.428 . S
C1144 N1143 1.351 . S
C1144 C1145 1.434 . S
C1145 C1136 1.429 . S
C1145 N1142 1.350 . S
C1145 C1144 1.434 . S
C1146 C1147 1.369 . S
C1146 C1148 1.419 . S
C1146 H1150 0.930 . S
C1147 C1146 1.369 . S
C1147 C1156 1.429 . S
C1148 C1146 1.419 . S
C1148 C1149 1.363 . S
C1148 H1151 0.929 . S
C1149 C1148 1.363 . S
C1149 C1155 1.428 . S
H1150 C1146 0.930 . S
H1151 C1148 0.929 . S
S1152 N1153 1.613 . S
S1152 N1154 1.610 . S
N1153 S1152 1.613 . S
N1153 C1156 1.350 . S
N1154 S1152 1.610 . S
N1154 C1155 1.351 . S
C1155 C1149 1.428 . S
C1155 N1154 1.351 . S
C1155 C1156 1.434 . S
C1156 C1147 1.429 . S
C1156 N1153 1.350 . S
C1156 C1155 1.434 . S
C1157 C1158 1.369 . S
C1157 C1159 1.419 . S
C1157 H1161 0.930 . S
C1158 C1157 1.369 . S
C1158 C1167 1.429 . S
C1159 C1157 1.419 . S
C1159 C1160 1.363 1_655 S
C1159 H1162 0.929 . S
C1160 C1159 1.363 1_455 S
C1160 C1166 1.428 . S
H1161 C1157 0.930 . S
H1162 C1159 0.929 . S
S1163 N1164 1.613 1_455 S
S1163 N1165 1.610 . S
N1164 S1163 1.613 1_655 S
N1164 C1167 1.350 . S
N1165 S1163 1.610 . S
N1165 C1166 1.351 . S
C1166 C1160 1.428 . S
C1166 N1165 1.351 . S
C1166 C1167 1.434 1_455 S
C1167 C1158 1.429 . S
C1167 N1164 1.350 . S
C1167 C1166 1.434 1_655 S
C1168 C1169 1.369 . S
C1168 C1170 1.419 . S
C1168 H1172 0.930 . S
C1169 C1168 1.369 . S
C1169 C1178 1.429 . S
C1170 C1168 1.419 . S
C1170 C1171 1.363 . S
C1170 H1173 0.929 . S
C1171 C1170 1.363 . S
C1171 C1177 1.428 . S
H1172 C1168 0.930 . S
H1173 C1170 0.929 . S
S1174 N1175 1.613 . S
S1174 N1176 1.610 . S
N1175 S1174 1.613 . S
N1175 C1178 1.350 . S
N1176 S1174 1.610 . S
N1176 C1177 1.351 . S
C1177 C1171 1.428 . S
C1177 N1176 1.351 . S
C1177 C1178 1.434 . S
C1178 C1169 1.429 . S
C1178 N1175 1.350 . S
C1178 C1177 1.434 . S
C1179 C1180 1.369 . S
C1179 C1181 1.419 . S
C1179 H1183 0.930 . S
C1180 C1179 1.369 . S
C1180 C1189 1.429 . S
C1181 C1179 1.419 . S
C1181 C1182 1.363 . S
C1181 H1184 0.929 . S
C1182 C1181 1.363 . S
C1182 C1188 1.428 . S
H1183 C1179 0.930 . S
H1184 C1181 0.929 . S
S1185 N1186 1.613 . S
S1185 N1187 1.610 . S
N1186 S1185 1.613 . S
N1186 C1189 1.350 . S
N1187 S1185 1.610 . S
N1187 C1188 1.351 . S
C1188 C1182 1.428 . S
C1188 N1187 1.351 . S
C1188 C1189 1.434 . S
C1189 C1180 1.429 . S
C1189 N1186 1.350 . S
C1189 C1188 1.434 . S
C1190 C1191 1.369 . S
C1190 C1192 1.419 . S
C1190 H1194 0.930 . S
C1191 C1190 1.369 . S
C1191 C1200 1.429 . S
C1192 C1190 1.419 . S
C1192 C1193 1.363 . S
C1192 H1195 0.929 . S
C1193 C1192 1.363 . S
C1193 C1199 1.428 . S
H1194 C1190 0.930 . S
H1195 C1192 0.929 . S
S1196 N1197 1.613 . S
S1196 N1198 1.610 . S
N1197 S1196 1.613 . S
N1197 C1200 1.350 . S
N1198 S1196 1.610 . S
N1198 C1199 1.351 . S
C1199 C1193 1.428 . S
C1199 N1198 1.351 . S
C1199 C1200 1.434 . S
C1200 C1191 1.429 . S
C1200 N1197 1.350 . S
C1200 C1199 1.434 . S
C1201 C1202 1.369 . S
C1201 C1203 1.419 1_655 S
C1201 H1205 0.930 . S
C1202 C1201 1.369 . S
C1202 C1211 1.429 . S
C1203 C1201 1.419 1_455 S
C1203 C1204 1.363 . S
C1203 H1206 0.929 . S
C1204 C1203 1.363 . S
C1204 C1210 1.428 1_455 S
H1205 C1201 0.930 . S
H1206 C1203 0.929 . S
S1207 N1208 1.613 . S
S1207 N1209 1.610 . S
N1208 S1207 1.613 . S
N1208 C1211 1.350 . S
N1209 S1207 1.610 . S
N1209 C1210 1.351 . S
C1210 C1204 1.428 1_655 S
C1210 N1209 1.351 . S
C1210 C1211 1.434 . S
C1211 C1202 1.429 . S
C1211 N1208 1.350 . S
C1211 C1210 1.434 . S
C1212 C1213 1.369 . S
C1212 C1214 1.419 . S
C1212 H1216 0.930 . S
C1213 C1212 1.369 . S
C1213 C1222 1.429 . S
C1214 C1212 1.419 . S
C1214 C1215 1.363 . S
C1214 H1217 0.929 . S
C1215 C1214 1.363 . S
C1215 C1221 1.428 . S
H1216 C1212 0.930 . S
H1217 C1214 0.929 . S
S1218 N1219 1.613 . S
S1218 N1220 1.610 . S
N1219 S1218 1.613 . S
N1219 C1222 1.350 . S
N1220 S1218 1.610 . S
N1220 C1221 1.351 . S
C1221 C1215 1.428 . S
C1221 N1220 1.351 . S
C1221 C1222 1.434 . S
C1222 C1213 1.429 . S
C1222 N1219 1.350 . S
C1222 C1221 1.434 . S
C1223 C1224 1.369 . S
C1223 C1225 1.419 . S
C1223 H1227 0.930 . S
C1224 C1223 1.369 . S
C1224 C1233 1.429 . S
C1225 C1223 1.419 . S
C1225 C1226 1.363 1_655 S
C1225 H1228 0.929 . S
C1226 C1225 1.363 1_455 S
C1226 C1232 1.428 1_455 S
H1227 C1223 0.930 . S
H1228 C1225 0.929 . S
S1229 N1230 1.613 . S
S1229 N1231 1.610 1_655 S
N1230 S1229 1.613 . S
N1230 C1233 1.350 . S
N1231 S1229 1.610 1_455 S
N1231 C1232 1.351 1_455 S
C1232 C1226 1.428 1_655 S
C1232 N1231 1.351 1_655 S
C1232 C1233 1.434 . S
C1233 C1224 1.429 . S
C1233 N1230 1.350 . S
C1233 C1232 1.434 . S
C1234 C1235 1.369 . S
C1234 C1236 1.419 . S
C1234 H1238 0.930 . S
C1235 C1234 1.369 . S
C1235 C1244 1.429 . S
C1236 C1234 1.419 . S
C1236 C1237 1.363 . S
C1236 H1239 0.929 . S
C1237 C1236 1.363 . S
C1237 C1243 1.428 . S
H1238 C1234 0.930 . S
H1239 C1236 0.929 . S
S1240 N1241 1.613 . S
S1240 N1242 1.610 . S
N1241 S1240 1.613 . S
N1241 C1244 1.350 . S
N1242 S1240 1.610 . S
N1242 C1243 1.351 . S
C1243 C1237 1.428 . S
C1243 N1242 1.351 . S
C1243 C1244 1.434 . S
C1244 C1235 1.429 . S
C1244 N1241 1.350 . S
C1244 C1243 1.434 . S
C1245 C1246 1.369 . S
C1245 C1247 1.419 . S
C1245 H1249 0.930 . S
C1246 C1245 1.369 . S
C1246 C1255 1.429 . S
C1247 C1245 1.419 . S
C1247 C1248 1.363 . S
C1247 H1250 0.929 . S
C1248 C1247 1.363 . S
C1248 C1254 1.428 . S
H1249 C1245 0.930 . S
H1250 C1247 0.929 . S
S1251 N1252 1.613 . S
S1251 N1253 1.610 . S
N1252 S1251 1.613 . S
N1252 C1255 1.350 . S
N1253 S1251 1.610 . S
N1253 C1254 1.351 . S
C1254 C1248 1.428 . S
C1254 N1253 1.351 . S
C1254 C1255 1.434 . S
C1255 C1246 1.429 . S
C1255 N1252 1.350 . S
C1255 C1254 1.434 . S
C1256 C1257 1.369 . S
C1256 C1258 1.419 . S
C1256 H1260 0.930 . S
C1257 C1256 1.369 . S
C1257 C1266 1.429 . S
C1258 C1256 1.419 . S
C1258 C1259 1.363 . S
C1258 H1261 0.929 . S
C1259 C1258 1.363 . S
C1259 C1265 1.428 . S
H1260 C1256 0.930 . S
H1261 C1258 0.929 . S
S1262 N1263 1.613 . S
S1262 N1264 1.610 . S
N1263 S1262 1.613 . S
N1263 C1266 1.350 . S
N1264 S1262 1.610 . S
N1264 C1265 1.351 . S
C1265 C1259 1.428 . S
C1265 N1264 1.351 . S
C1265 C1266 1.434 . S
C1266 C1257 1.429 . S
C1266 N1263 1.350 . S
C1266 C1265 1.434 . S
C1267 C1268 1.369 . S
C1267 C1269 1.419 . S
C1267 H1271 0.930 . S
C1268 C1267 1.369 . S
C1268 C1277 1.429 . S
C1269 C1267 1.419 . S
C1269 C1270 1.363 . S
C1269 H1272 0.929 . S
C1270 C1269 1.363 . S
C1270 C1276 1.428 . S
H1271 C1267 0.930 . S
H1272 C1269 0.929 . S
S1273 N1274 1.613 . S
S1273 N1275 1.610 . S
N1274 S1273 1.613 . S
N1274 C1277 1.350 . S
N1275 S1273 1.610 . S
N1275 C1276 1.351 . S
C1276 C1270 1.428 . S
C1276 N1275 1.351 . S
C1276 C1277 1.434 . S
C1277 C1268 1.429 . S
C1277 N1274 1.350 . S
C1277 C1276 1.434 . S
C1278 C1279 1.369 . S
C1278 C1280 1.419 . S
C1278 H1282 0.930 . S
C1279 C1278 1.369 . S
C1279 C1288 1.429 . S
C1280 C1278 1.419 . S
C1280 C1281 1.363 . S
C1280 H1283 0.929 . S
C1281 C1280 1.363 . S
C1281 C1287 1.428 . S
H1282 C1278 0.930 . S
H1283 C1280 0.929 . S
S1284 N1285 1.613 . S
S1284 N1286 1.610 . S
N1285 S1284 1.613 . S
N1285 C1288 1.350 . S
N1286 S1284 1.610 . S
N1286 C1287 1.351 . S
C1287 C1281 1.428 . S
C1287 N1286 1.351 . S
C1287 C1288 1.434 . S
C1288 C1279 1.429 . S
C1288 N1285 1.350 . S
C1288 C1287 1.434 . S
C1289 C1290 1.369 1_455 S
C1289 C1291 1.419 . S
C1289 H1293 0.930 . S
C1290 C1289 1.369 1_655 S
C1290 C1299 1.429 . S
C1291 C1289 1.419 . S
C1291 C1292 1.363 . S
C1291 H1294 0.929 . S
C1292 C1291 1.363 . S
C1292 C1298 1.428 . S
H1293 C1289 0.930 . S
H1294 C1291 0.929 . S
S1295 N1296 1.613 . S
S1295 N1297 1.610 1_655 S
N1296 S1295 1.613 . S
N1296 C1299 1.350 . S
N1297 S1295 1.610 1_455 S
N1297 C1298 1.351 . S
C1298 C1292 1.428 . S
C1298 N1297 1.351 . S
C1298 C1299 1.434 1_455 S
C1299 C1290 1.429 . S
C1299 N1296 1.350 . S
C1299 C1298 1.434 1_655 S
C1300 C1301 1.369 . S
C1300 C1302 1.419 . S
C1300 H1304 0.930 . S
C1301 C1300 1.369 . S
C1301 C1310 1.429 . S
C1302 C1300 1.419 . S
C1302 C1303 1.363 . S
C1302 H1305 0.929 . S
C1303 C1302 1.363 . S
C1303 C1309 1.428 . S
H1304 C1300 0.930 . S
H1305 C1302 0.929 . S
S1306 N1307 1.613 . S
S1306 N1308 1.610 . S
N1307 S1306 1.613 . S
N1307 C1310 1.350 . S
N1308 S1306 1.610 . S
N1308 C1309 1.351 . S
C1309 C1303 1.428 . S
C1309 N1308 1.351 . S
C1309 C1310 1.434 . S
C1310 C1301 1.429 . S
C1310 N1307 1.350 . S
C1310 C1309 1.434 . S
C1311 C1312 1.369 . S
C1311 C1313 1.419 . S
C1311 H1315 0.930 . S
C1312 C1311 1.369 . S
C1312 C1321 1.429 . S
C1313 C1311 1.419 . S
C1313 C1314 1.363 1_455 S
C1313 H1316 0.929 . S
C1314 C1313 1.363 1_655 S
C1314 C1320 1.428 . S
H1315 C1311 0.930 . S
H1316 C1313 0.929 . S
S1317 N1318 1.613 1_655 S
S1317 N1319 1.610 . S
N1318 S1317 1.613 1_455 S
N1318 C1321 1.350 . S
N1319 S1317 1.610 . S
N1319 C1320 1.351 . S
C1320 C1314 1.428 . S
C1320 N1319 1.351 . S
C1320 C1321 1.434 1_655 S
C1321 C1312 1.429 . S
C1321 N1318 1.350 . S
C1321 C1320 1.434 1_455 S
C1322 C1323 1.369 . S
C1322 C1324 1.419 . S
C1322 H1326 0.930 . S
C1323 C1322 1.369 . S
C1323 C1332 1.429 . S
C1324 C1322 1.419 . S
C1324 C1325 1.363 . S
C1324 H1327 0.929 . S
C1325 C1324 1.363 . S
C1325 C1331 1.428 . S
H1326 C1322 0.930 . S
H1327 C1324 0.929 . S
S1328 N1329 1.613 . S
S1328 N1330 1.610 . S
N1329 S1328 1.613 . S
N1329 C1332 1.350 . S
N1330 S1328 1.610 . S
N1330 C1331 1.351 . S
C1331 C1325 1.428 . S
C1331 N1330 1.351 . S
C1331 C1332 1.434 . S
C1332 C1323 1.429 . S
C1332 N1329 1.350 . S
C1332 C1331 1.434 . S
C1333 C1334 1.369 . S
C1333 C1335 1.419 . S
C1333 H1337 0.930 . S
C1334 C1333 1.369 . S
C1334 C1343 1.429 . S
C1335 C1333 1.419 . S
C1335 C1336 1.363 . S
C1335 H1338 0.929 . S
C1336 C1335 1.363 . S
C1336 C1342 1.428 . S
H1337 C1333 0.930 . S
H1338 C1335 0.929 . S
S1339 N1340 1.613 . S
S1339 N1341 1.610 . S
N1340 S1339 1.613 . S
N1340 C1343 1.350 . S
N1341 S1339 1.610 . S
N1341 C1342 1.351 . S
C1342 C1336 1.428 . S
C1342 N1341 1.351 . S
C1342 C1343 1.434 . S
C1343 C1334 1.429 . S
C1343 N1340 1.350 . S
C1343 C1342 1.434 . S
C1344 C1345 1.369 . S
C1344 C1346 1.419 1_545 S
C1344 H1348 0.930 . S
C1345 C1344 1.369 . S
C1345 C1354 1.429 . S
C1346 C1344 1.419 1_565 S
C1346 C1347 1.363 . S
C1346 H1349 0.929 . S
C1347 C1346 1.363 . S
C1347 C1353 1.428 . S
H1348 C1344 0.930 . S
H1349 C1346 0.929 . S
S1350 N1351 1.613 . S
S1350 N1352 1.610 1_545 S
N1351 S1350 1.613 . S
N1351 C1354 1.350 . S
N1352 S1350 1.610 1_565 S
N1352 C1353 1.351 . S
C1353 C1347 1.428 . S
C1353 N1352 1.351 . S
C1353 C1354 1.434 1_565 S
C1354 C1345 1.429 . S
C1354 N1351 1.350 . S
C1354 C1353 1.434 1_545 S
C1355 C1356 1.369 . S
C1355 C1357 1.419 . S
C1355 H1359 0.930 . S
C1356 C1355 1.369 . S
C1356 C1365 1.429 . S
C1357 C1355 1.419 . S
C1357 C1358 1.363 . S
C1357 H1360 0.929 . S
C1358 C1357 1.363 . S
C1358 C1364 1.428 . S
H1359 C1355 0.930 . S
H1360 C1357 0.929 . S
S1361 N1362 1.613 . S
S1361 N1363 1.610 . S
N1362 S1361 1.613 . S
N1362 C1365 1.350 . S
N1363 S1361 1.610 . S
N1363 C1364 1.351 . S
C1364 C1358 1.428 . S
C1364 N1363 1.351 . S
C1364 C1365 1.434 . S
C1365 C1356 1.429 . S
C1365 N1362 1.350 . S
C1365 C1364 1.434 . S
C1366 C1367 1.369 . S
C1366 C1368 1.419 1_565 S
C1366 H1370 0.930 . S
C1367 C1366 1.369 . S
C1367 C1376 1.429 . S
C1368 C1366 1.419 1_545 S
C1368 C1369 1.363 . S
C1368 H1371 0.929 . S
C1369 C1368 1.363 . S
C1369 C1375 1.428 . S
H1370 C1366 0.930 . S
H1371 C1368 0.929 . S
S1372 N1373 1.613 . S
S1372 N1374 1.610 1_565 S
N1373 S1372 1.613 . S
N1373 C1376 1.350 . S
N1374 S1372 1.610 1_545 S
N1374 C1375 1.351 . S
C1375 C1369 1.428 . S
C1375 N1374 1.351 . S
C1375 C1376 1.434 1_545 S
C1376 C1367 1.429 . S
C1376 N1373 1.350 . S
C1376 C1375 1.434 1_565 S
C1377 C1378 1.369 1_554 S
C1377 C1379 1.419 . S
C1377 H1381 0.930 . S
C1378 C1377 1.369 1_556 S
C1378 C1387 1.429 . S
C1379 C1377 1.419 . S
C1379 C1380 1.363 . S
C1379 H1382 0.929 . S
C1380 C1379 1.363 . S
C1380 C1386 1.428 1_554 S
H1381 C1377 0.930 . S
H1382 C1379 0.929 . S
S1383 N1384 1.613 . S
S1383 N1385 1.610 . S
N1384 S1383 1.613 . S
N1384 C1387 1.350 . S
N1385 S1383 1.610 . S
N1385 C1386 1.351 . S
C1386 C1380 1.428 1_556 S
C1386 N1385 1.351 . S
C1386 C1387 1.434 . S
C1387 C1378 1.429 . S
C1387 N1384 1.350 . S
C1387 C1386 1.434 . S
C1388 C1389 1.369 . S
C1388 C1390 1.419 1_545 S
C1388 H1392 0.930 . S
C1389 C1388 1.369 . S
C1389 C1398 1.429 . S
C1390 C1388 1.419 1_565 S
C1390 C1391 1.363 . S
C1390 H1393 0.929 . S
C1391 C1390 1.363 . S
C1391 C1397 1.428 . S
H1392 C1388 0.930 . S
H1393 C1390 0.929 . S
S1394 N1395 1.613 1_565 S
S1394 N1396 1.610 . S
N1395 S1394 1.613 1_545 S
N1395 C1398 1.350 . S
N1396 S1394 1.610 . S
N1396 C1397 1.351 . S
C1397 C1391 1.428 . S
C1397 N1396 1.351 . S
C1397 C1398 1.434 1_565 S
C1398 C1389 1.429 . S
C1398 N1395 1.350 . S
C1398 C1397 1.434 1_545 S
C1399 C1400 1.369 . S
C1399 C1401 1.419 . S
C1399 H1403 0.930 . S
C1400 C1399 1.369 . S
C1400 C1409 1.429 . S
C1401 C1399 1.419 . S
C1401 C1402 1.363 . S
C1401 H1404 0.929 . S
C1402 C1401 1.363 . S
C1402 C1408 1.428 . S
H1403 C1399 0.930 . S
H1404 C1401 0.929 . S
S1405 N1406 1.613 . S
S1405 N1407 1.610 . S
N1406 S1405 1.613 . S
N1406 C1409 1.350 . S
N1407 S1405 1.610 . S
N1407 C1408 1.351 . S
C1408 C1402 1.428 . S
C1408 N1407 1.351 . S
C1408 C1409 1.434 . S
C1409 C1400 1.429 . S
C1409 N1406 1.350 . S
C1409 C1408 1.434 . S
C1410 C1411 1.369 . S
C1410 C1412 1.419 1_545 S
C1410 H1414 0.930 . S
C1411 C1410 1.369 . S
C1411 C1420 1.429 . S
C1412 C1410 1.419 1_565 S
C1412 C1413 1.363 . S
C1412 H1415 0.929 . S
C1413 C1412 1.363 . S
C1413 C1419 1.428 . S
H1414 C1410 0.930 . S
H1415 C1412 0.929 . S
S1416 N1417 1.613 1_565 S
S1416 N1418 1.610 . S
N1417 S1416 1.613 1_545 S
N1417 C1420 1.350 . S
N1418 S1416 1.610 . S
N1418 C1419 1.351 . S
C1419 C1413 1.428 . S
C1419 N1418 1.351 . S
C1419 C1420 1.434 1_565 S
C1420 C1411 1.429 . S
C1420 N1417 1.350 . S
C1420 C1419 1.434 1_545 S
C1421 C1422 1.369 1_554 S
C1421 C1423 1.419 . S
C1421 H1425 0.930 . S
C1422 C1421 1.369 1_556 S
C1422 C1431 1.429 . S
C1423 C1421 1.419 . S
C1423 C1424 1.363 . S
C1423 H1426 0.929 . S
C1424 C1423 1.363 . S
C1424 C1430 1.428 1_554 S
H1425 C1421 0.930 . S
H1426 C1423 0.929 . S
S1427 N1428 1.613 . S
S1427 N1429 1.610 . S
N1428 S1427 1.613 . S
N1428 C1431 1.350 . S
N1429 S1427 1.610 . S
N1429 C1430 1.351 . S
C1430 C1424 1.428 1_556 S
C1430 N1429 1.351 . S
C1430 C1431 1.434 . S
C1431 C1422 1.429 . S
C1431 N1428 1.350 . S
C1431 C1430 1.434 . S
C1432 C1433 1.369 . S
C1432 C1434 1.419 . S
C1432 H1436 0.930 . S
C1433 C1432 1.369 . S
C1433 C1442 1.429 . S
C1434 C1432 1.419 . S
C1434 C1435 1.363 . S
C1434 H1437 0.929 . S
C1435 C1434 1.363 . S
C1435 C1441 1.428 . S
H1436 C1432 0.930 . S
H1437 C1434 0.929 . S
S1438 N1439 1.613 . S
S1438 N1440 1.610 . S
N1439 S1438 1.613 . S
N1439 C1442 1.350 . S
N1440 S1438 1.610 . S
N1440 C1441 1.351 . S
C1441 C1435 1.428 . S
C1441 N1440 1.351 . S
C1441 C1442 1.434 . S
C1442 C1433 1.429 . S
C1442 N1439 1.350 . S
C1442 C1441 1.434 . S
C1443 C1444 1.369 1_554 S
C1443 C1445 1.419 . S
C1443 H1447 0.930 . S
C1444 C1443 1.369 1_556 S
C1444 C1453 1.429 . S
C1445 C1443 1.419 . S
C1445 C1446 1.363 . S
C1445 H1448 0.929 . S
C1446 C1445 1.363 . S
C1446 C1452 1.428 1_554 S
H1447 C1443 0.930 . S
H1448 C1445 0.929 . S
S1449 N1450 1.613 . S
S1449 N1451 1.610 . S
N1450 S1449 1.613 . S
N1450 C1453 1.350 . S
N1451 S1449 1.610 . S
N1451 C1452 1.351 . S
C1452 C1446 1.428 1_556 S
C1452 N1451 1.351 . S
C1452 C1453 1.434 . S
C1453 C1444 1.429 . S
C1453 N1450 1.350 . S
C1453 C1452 1.434 . S
C1454 C1455 1.369 . S
C1454 C1456 1.419 . S
C1454 H1458 0.930 . S
C1455 C1454 1.369 . S
C1455 C1464 1.429 . S
C1456 C1454 1.419 . S
C1456 C1457 1.363 . S
C1456 H1459 0.929 . S
C1457 C1456 1.363 . S
C1457 C1463 1.428 . S
H1458 C1454 0.930 . S
H1459 C1456 0.929 . S
S1460 N1461 1.613 . S
S1460 N1462 1.610 . S
N1461 S1460 1.613 . S
N1461 C1464 1.350 . S
N1462 S1460 1.610 . S
N1462 C1463 1.351 . S
C1463 C1457 1.428 . S
C1463 N1462 1.351 . S
C1463 C1464 1.434 . S
C1464 C1455 1.429 . S
C1464 N1461 1.350 . S
C1464 C1463 1.434 . S
C1465 C1466 1.369 . S
C1465 C1467 1.419 . S
C1465 H1469 0.930 . S
C1466 C1465 1.369 . S
C1466 C1475 1.429 . S
C1467 C1465 1.419 . S
C1467 C1468 1.363 . S
C1467 H1470 0.929 . S
C1468 C1467 1.363 . S
C1468 C1474 1.428 . S
H1469 C1465 0.930 . S
H1470 C1467 0.929 . S
S1471 N1472 1.613 . S
S1471 N1473 1.610 . S
N1472 S1471 1.613 . S
N1472 C1475 1.350 . S
N1473 S1471 1.610 . S
N1473 C1474 1.351 . S
C1474 C1468 1.428 . S
C1474 N1473 1.351 . S
C1474 C1475 1.434 . S
C1475 C1466 1.429 . S
C1475 N1472 1.350 . S
C1475 C1474 1.434 . S
C1476 C1477 1.369 . S
C1476 C1478 1.419 . S
C1476 H1480 0.930 . S
C1477 C1476 1.369 . S
C1477 C1486 1.429 . S
C1478 C1476 1.419 . S
C1478 C1479 1.363 . S
C1478 H1481 0.929 . S
C1479 C1478 1.363 . S
C1479 C1485 1.428 . S
H1480 C1476 0.930 . S
H1481 C1478 0.929 . S
S1482 N1483 1.613 . S
S1482 N1484 1.610 . S
N1483 S1482 1.613 . S
N1483 C1486 1.350 . S
N1484 S1482 1.610 . S
N1484 C1485 1.351 . S
C1485 C1479 1.428 . S
C1485 N1484 1.351 . S
C1485 C1486 1.434 . S
C1486 C1477 1.429 . S
C1486 N1483 1.350 . S
C1486 C1485 1.434 . S
C1487 C1488 1.369 1_554 S
C1487 C1489 1.419 . S
C1487 H1491 0.930 . S
C1488 C1487 1.369 1_556 S
C1488 C1497 1.429 . S
C1489 C1487 1.419 . S
C1489 C1490 1.363 . S
C1489 H1492 0.929 . S
C1490 C1489 1.363 . S
C1490 C1496 1.428 1_554 S
H1491 C1487 0.930 . S
H1492 C1489 0.929 . S
S1493 N1494 1.613 . S
S1493 N1495 1.610 . S
N1494 S1493 1.613 . S
N1494 C1497 1.350 . S
N1495 S1493 1.610 . S
N1495 C1496 1.351 . S
C1496 C1490 1.428 1_556 S
C1496 N1495 1.351 . S
C1496 C1497 1.434 . S
C1497 C1488 1.429 . S
C1497 N1494 1.350 . S
C1497 C1496 1.434 . S
C1498 C1499 1.369 . S
C1498 C1500 1.419 . S
C1498 H1502 0.930 . S
C1499 C1498 1.369 . S
C1499 C1508 1.429 . S
C1500 C1498 1.419 . S
C1500 C1501 1.363 . S
C1500 H1503 0.929 . S
C1501 C1500 1.363 . S
C1501 C1507 1.428 . S
H1502 C1498 0.930 . S
H1503 C1500 0.929 . S
S1504 N1505 1.613 . S
S1504 N1506 1.610 . S
N1505 S1504 1.613 . S
N1505 C1508 1.350 . S
N1506 S1504 1.610 . S
N1506 C1507 1.351 . S
C1507 C1501 1.428 . S
C1507 N1506 1.351 . S
C1507 C1508 1.434 . S
C1508 C1499 1.429 . S
C1508 N1505 1.350 . S
C1508 C1507 1.434 . S
C1509 C1510 1.369 . S
C1509 C1511 1.419 . S
C1509 H1513 0.930 . S
C1510 C1509 1.369 . S
C1510 C1519 1.429 . S
C1511 C1509 1.419 . S
C1511 C1512 1.363 . S
C1511 H1514 0.929 . S
C1512 C1511 1.363 . S
C1512 C1518 1.428 . S
H1513 C1509 0.930 . S
H1514 C1511 0.929 . S
S1515 N1516 1.613 . S
S1515 N1517 1.610 . S
N1516 S1515 1.613 . S
N1516 C1519 1.350 . S
N1517 S1515 1.610 . S
N1517 C1518 1.351 . S
C1518 C1512 1.428 . S
C1518 N1517 1.351 . S
C1518 C1519 1.434 . S
C1519 C1510 1.429 . S
C1519 N1516 1.350 . S
C1519 C1518 1.434 . S
C1520 C1521 1.369 . S
C1520 C1522 1.419 . S
C1520 H1524 0.930 . S
C1521 C1520 1.369 . S
C1521 C1530 1.429 . S
C1522 C1520 1.419 . S
C1522 C1523 1.363 . S
C1522 H1525 0.929 . S
C1523 C1522 1.363 . S
C1523 C1529 1.428 . S
H1524 C1520 0.930 . S
H1525 C1522 0.929 . S
S1526 N1527 1.613 . S
S1526 N1528 1.610 . S
N1527 S1526 1.613 . S
N1527 C1530 1.350 . S
N1528 S1526 1.610 . S
N1528 C1529 1.351 . S
C1529 C1523 1.428 . S
C1529 N1528 1.351 . S
C1529 C1530 1.434 . S
C1530 C1521 1.429 . S
C1530 N1527 1.350 . S
C1530 C1529 1.434 . S
C1531 C1532 1.369 . S
C1531 C1533 1.419 . S
C1531 H1535 0.930 . S
C1532 C1531 1.369 . S
C1532 C1541 1.429 . S
C1533 C1531 1.419 . S
C1533 C1534 1.363 . S
C1533 H1536 0.929 . S
C1534 C1533 1.363 . S
C1534 C1540 1.428 . S
H1535 C1531 0.930 . S
H1536 C1533 0.929 . S
S1537 N1538 1.613 . S
S1537 N1539 1.610 . S
N1538 S1537 1.613 . S
N1538 C1541 1.350 . S
N1539 S1537 1.610 . S
N1539 C1540 1.351 . S
C1540 C1534 1.428 . S
C1540 N1539 1.351 . S
C1540 C1541 1.434 . S
C1541 C1532 1.429 . S
C1541 N1538 1.350 . S
C1541 C1540 1.434 . S
C1542 C1543 1.369 . S
C1542 C1544 1.419 . S
C1542 H1546 0.930 . S
C1543 C1542 1.369 . S
C1543 C1552 1.429 . S
C1544 C1542 1.419 . S
C1544 C1545 1.363 . S
C1544 H1547 0.929 . S
C1545 C1544 1.363 . S
C1545 C1551 1.428 . S
H1546 C1542 0.930 . S
H1547 C1544 0.929 . S
S1548 N1549 1.613 . S
S1548 N1550 1.610 . S
N1549 S1548 1.613 . S
N1549 C1552 1.350 . S
N1550 S1548 1.610 . S
N1550 C1551 1.351 . S
C1551 C1545 1.428 . S
C1551 N1550 1.351 . S
C1551 C1552 1.434 . S
C1552 C1543 1.429 . S
C1552 N1549 1.350 . S
C1552 C1551 1.434 . S
C1553 C1554 1.369 . S
C1553 C1555 1.419 . S
C1553 H1557 0.930 . S
C1554 C1553 1.369 . S
C1554 C1563 1.429 . S
C1555 C1553 1.419 . S
C1555 C1556 1.363 . S
C1555 H1558 0.929 . S
C1556 C1555 1.363 . S
C1556 C1562 1.428 . S
H1557 C1553 0.930 . S
H1558 C1555 0.929 . S
S1559 N1560 1.613 . S
S1559 N1561 1.610 . S
N1560 S1559 1.613 . S
N1560 C1563 1.350 . S
N1561 S1559 1.610 . S
N1561 C1562 1.351 . S
C1562 C1556 1.428 . S
C1562 N1561 1.351 . S
C1562 C1563 1.434 . S
C1563 C1554 1.429 . S
C1563 N1560 1.350 . S
C1563 C1562 1.434 . S
C1564 C1565 1.369 . S
C1564 C1566 1.419 . S
C1564 H1568 0.930 . S
C1565 C1564 1.369 . S
C1565 C1574 1.429 . S
C1566 C1564 1.419 . S
C1566 C1567 1.363 . S
C1566 H1569 0.929 . S
C1567 C1566 1.363 . S
C1567 C1573 1.428 . S
H1568 C1564 0.930 . S
H1569 C1566 0.929 . S
S1570 N1571 1.613 . S
S1570 N1572 1.610 . S
N1571 S1570 1.613 . S
N1571 C1574 1.350 . S
N1572 S1570 1.610 . S
N1572 C1573 1.351 . S
C1573 C1567 1.428 . S
C1573 N1572 1.351 . S
C1573 C1574 1.434 . S
C1574 C1565 1.429 . S
C1574 N1571 1.350 . S
C1574 C1573 1.434 . S
C1575 C1576 1.369 . S
C1575 C1577 1.419 . S
C1575 H1579 0.930 . S
C1576 C1575 1.369 . S
C1576 C1585 1.429 . S
C1577 C1575 1.419 . S
C1577 C1578 1.363 . S
C1577 H1580 0.929 . S
C1578 C1577 1.363 . S
C1578 C1584 1.428 . S
H1579 C1575 0.930 . S
H1580 C1577 0.929 . S
S1581 N1582 1.613 . S
S1581 N1583 1.610 . S
N1582 S1581 1.613 . S
N1582 C1585 1.350 . S
N1583 S1581 1.610 . S
N1583 C1584 1.351 . S
C1584 C1578 1.428 . S
C1584 N1583 1.351 . S
C1584 C1585 1.434 . S
C1585 C1576 1.429 . S
C1585 N1582 1.350 . S
C1585 C1584 1.434 . S
C1586 C1587 1.369 . S
C1586 C1588 1.419 . S
C1586 H1590 0.930 . S
C1587 C1586 1.369 . S
C1587 C1596 1.429 . S
C1588 C1586 1.419 . S
C1588 C1589 1.363 . S
C1588 H1591 0.929 . S
C1589 C1588 1.363 . S
C1589 C1595 1.428 . S
H1590 C1586 0.930 . S
H1591 C1588 0.929 . S
S1592 N1593 1.613 . S
S1592 N1594 1.610 . S
N1593 S1592 1.613 . S
N1593 C1596 1.350 . S
N1594 S1592 1.610 . S
N1594 C1595 1.351 . S
C1595 C1589 1.428 . S
C1595 N1594 1.351 . S
C1595 C1596 1.434 . S
C1596 C1587 1.429 . S
C1596 N1593 1.350 . S
C1596 C1595 1.434 . S
C1597 C1598 1.369 . S
C1597 C1599 1.419 . S
C1597 H1601 0.930 . S
C1598 C1597 1.369 . S
C1598 C1607 1.429 . S
C1599 C1597 1.419 . S
C1599 C1600 1.363 . S
C1599 H1602 0.929 . S
C1600 C1599 1.363 . S
C1600 C1606 1.428 . S
H1601 C1597 0.930 . S
H1602 C1599 0.929 . S
S1603 N1604 1.613 . S
S1603 N1605 1.610 . S
N1604 S1603 1.613 . S
N1604 C1607 1.350 . S
N1605 S1603 1.610 . S
N1605 C1606 1.351 . S
C1606 C1600 1.428 . S
C1606 N1605 1.351 . S
C1606 C1607 1.434 . S
C1607 C1598 1.429 . S
C1607 N1604 1.350 . S
C1607 C1606 1.434 . S
C1608 C1609 1.369 . S
C1608 C1610 1.419 . S
C1608 H1612 0.930 . S
C1609 C1608 1.369 . S
C1609 C1618 1.429 . S
C1610 C1608 1.419 . S
C1610 C1611 1.363 . S
C1610 H1613 0.929 . S
C1611 C1610 1.363 . S
C1611 C1617 1.428 . S
H1612 C1608 0.930 . S
H1613 C1610 0.929 . S
S1614 N1615 1.613 . S
S1614 N1616 1.610 . S
N1615 S1614 1.613 . S
N1615 C1618 1.350 . S
N1616 S1614 1.610 . S
N1616 C1617 1.351 . S
C1617 C1611 1.428 . S
C1617 N1616 1.351 . S
C1617 C1618 1.434 . S
C1618 C1609 1.429 . S
C1618 N1615 1.350 . S
C1618 C1617 1.434 . S
C1619 C1620 1.369 . S
C1619 C1621 1.419 . S
C1619 H1623 0.930 . S
C1620 C1619 1.369 . S
C1620 C1629 1.429 . S
C1621 C1619 1.419 . S
C1621 C1622 1.363 . S
C1621 H1624 0.929 . S
C1622 C1621 1.363 . S
C1622 C1628 1.428 . S
H1623 C1619 0.930 . S
H1624 C1621 0.929 . S
S1625 N1626 1.613 . S
S1625 N1627 1.610 . S
N1626 S1625 1.613 . S
N1626 C1629 1.350 . S
N1627 S1625 1.610 . S
N1627 C1628 1.351 . S
C1628 C1622 1.428 . S
C1628 N1627 1.351 . S
C1628 C1629 1.434 . S
C1629 C1620 1.429 . S
C1629 N1626 1.350 . S
C1629 C1628 1.434 . S
C1630 C1631 1.369 . S
C1630 C1632 1.419 . S
C1630 H1634 0.930 . S
C1631 C1630 1.369 . S
C1631 C1640 1.429 . S
C1632 C1630 1.419 . S
C1632 C1633 1.363 . S
C1632 H1635 0.929 . S
C1633 C1632 1.363 . S
C1633 C1639 1.428 . S
H1634 C1630 0.930 . S
H1635 C1632 0.929 . S
S1636 N1637 1.613 . S
S1636 N1638 1.610 . S
N1637 S1636 1.613 . S
N1637 C1640 1.350 . S
N1638 S1636 1.610 . S
N1638 C1639 1.351 . S
C1639 C1633 1.428 . S
C1639 N1638 1.351 . S
C1639 C1640 1.434 . S
C1640 C1631 1.429 . S
C1640 N1637 1.350 . S
C1640 C1639 1.434 . S
C1641 C1642 1.369 . S
C1641 C1643 1.419 . S
C1641 H1645 0.930 . S
C1642 C1641 1.369 . S
C1642 C1651 1.429 . S
C1643 C1641 1.419 . S
C1643 C1644 1.363 . S
C1643 H1646 0.929 . S
C1644 C1643 1.363 . S
C1644 C1650 1.428 . S
H1645 C1641 0.930 . S
H1646 C1643 0.929 . S
S1647 N1648 1.613 . S
S1647 N1649 1.610 . S
N1648 S1647 1.613 . S
N1648 C1651 1.350 . S
N1649 S1647 1.610 . S
N1649 C1650 1.351 . S
C1650 C1644 1.428 . S
C1650 N1649 1.351 . S
C1650 C1651 1.434 . S
C1651 C1642 1.429 . S
C1651 N1648 1.350 . S
C1651 C1650 1.434 . S
C1652 C1653 1.369 . S
C1652 C1654 1.419 . S
C1652 H1656 0.930 . S
C1653 C1652 1.369 . S
C1653 C1662 1.429 . S
C1654 C1652 1.419 . S
C1654 C1655 1.363 . S
C1654 H1657 0.929 . S
C1655 C1654 1.363 . S
C1655 C1661 1.428 . S
H1656 C1652 0.930 . S
H1657 C1654 0.929 . S
S1658 N1659 1.613 . S
S1658 N1660 1.610 . S
N1659 S1658 1.613 . S
N1659 C1662 1.350 . S
N1660 S1658 1.610 . S
N1660 C1661 1.351 . S
C1661 C1655 1.428 . S
C1661 N1660 1.351 . S
C1661 C1662 1.434 . S
C1662 C1653 1.429 . S
C1662 N1659 1.350 . S
C1662 C1661 1.434 . S
C1663 C1664 1.369 . S
C1663 C1665 1.419 . S
C1663 H1667 0.930 . S
C1664 C1663 1.369 . S
C1664 C1673 1.429 . S
C1665 C1663 1.419 . S
C1665 C1666 1.363 . S
C1665 H1668 0.929 . S
C1666 C1665 1.363 . S
C1666 C1672 1.428 . S
H1667 C1663 0.930 . S
H1668 C1665 0.929 . S
S1669 N1670 1.613 . S
S1669 N1671 1.610 . S
N1670 S1669 1.613 . S
N1670 C1673 1.350 . S
N1671 S1669 1.610 . S
N1671 C1672 1.351 . S
C1672 C1666 1.428 . S
C1672 N1671 1.351 . S
C1672 C1673 1.434 . S
C1673 C1664 1.429 . S
C1673 N1670 1.350 . S
C1673 C1672 1.434 . S
C1674 C1675 1.369 . S
C1674 C1676 1.419 . S
C1674 H1678 0.930 . S
C1675 C1674 1.369 . S
C1675 C1684 1.429 . S
C1676 C1674 1.419 . S
C1676 C1677 1.363 . S
C1676 H1679 0.929 . S
C1677 C1676 1.363 . S
C1677 C1683 1.428 . S
H1678 C1674 0.930 . S
H1679 C1676 0.929 . S
S1680 N1681 1.613 . S
S1680 N1682 1.610 . S
N1681 S1680 1.613 . S
N1681 C1684 1.350 . S
N1682 S1680 1.610 . S
N1682 C1683 1.351 . S
C1683 C1677 1.428 . S
C1683 N1682 1.351 . S
C1683 C1684 1.434 . S
C1684 C1675 1.429 . S
C1684 N1681 1.350 . S
C1684 C1683 1.434 . S
C1685 C1686 1.369 . S
C1685 C1687 1.419 . S
C1685 H1689 0.930 . S
C1686 C1685 1.369 . S
C1686 C1695 1.429 . S
C1687 C1685 1.419 . S
C1687 C1688 1.363 . S
C1687 H1690 0.929 . S
C1688 C1687 1.363 . S
C1688 C1694 1.428 . S
H1689 C1685 0.930 . S
H1690 C1687 0.929 . S
S1691 N1692 1.613 . S
S1691 N1693 1.610 . S
N1692 S1691 1.613 . S
N1692 C1695 1.350 . S
N1693 S1691 1.610 . S
N1693 C1694 1.351 . S
C1694 C1688 1.428 . S
C1694 N1693 1.351 . S
C1694 C1695 1.434 . S
C1695 C1686 1.429 . S
C1695 N1692 1.350 . S
C1695 C1694 1.434 . S
C641 C2 1.494 . S
C643 C79 1.416 . S
C652 C19 1.406 . S
C654 C22 1.496 1_545 S
C663 C42 1.496 . S
C665 C39 1.407 . S
C674 C59 1.414 . S
C676 C62 1.495 1_565 S
C685 C119 1.413 . S
C687 C82 1.495 . S
C696 C102 1.496 1_545 S
C698 C139 1.407 . S
C707 C159 1.408 . S
C709 C122 1.496 . S
C718 C99 1.414 . S
C720 C142 1.494 1_565 S
C729 C161 1.496 . S
C731 C238 1.410 . S
C740 C181 1.495 1_565 S
C742 C178 1.414 . S
C751 C201 1.496 . S
C753 C198 1.409 . S
C762 C221 1.494 1_545 S
C764 C218 1.415 . S
C773 C241 1.497 . S
C775 C278 1.407 . S
C784 C261 1.494 1_565 S
C786 C298 1.414 . S
C795 C318 1.409 . S
C797 C281 1.496 . S
C806 C258 1.407 . S
C808 C301 1.496 1_545 S
C817 C322 1.496 . S
C819 C399 1.407 . S
C828 C339 1.417 . S
C830 C342 1.494 . S
C839 C359 1.417 . S
C841 C362 1.494 . S
C850 C382 1.494 . S
C852 C379 1.416 . S
C861 C402 1.494 . S
C863 C439 1.416 . S
C872 C459 1.416 . S
C874 C422 1.495 . S
C883 C442 1.495 . S
C885 C479 1.413 . S
C894 C419 1.408 . S
C896 C462 1.495 . S
C905 C558 1.407 . S
C907 C481 1.496 . S
C916 C498 1.415 . S
C918 C501 1.494 . S
C927 C521 1.497 . S
C929 C518 1.407 . S
C938 C538 1.406 . S
C940 C541 1.496 . S
C949 C598 1.406 . S
C951 C561 1.496 . S
C960 C618 1.417 . S
C962 C581 1.494 . S
C971 C638 1.406 . S
C973 C601 1.496 . S
C982 C621 1.496 . S
C984 C578 1.407 . S
C993 C542 1.464 . S
C995 C8 1.460 . S
C1004 C28 1.455 . S
C1006 C162 1.470 . S
C1015 C48 1.453 . S
C1017 C502 1.470 . S
C1026 C68 1.458 . S
C1028 C202 1.469 . S
C1037 C88 1.461 . S
C1039 C582 1.467 . S
C1048 C282 1.467 . S
C1050 C108 1.454 . S
C1059 C622 1.463 . S
C1061 C128 1.459 . S
C1070 C148 1.452 . S
C1072 C242 1.468 . S
C1081 C169 1.454 . S
C1083 C381 1.470 . S
C1092 C1 1.471 . S
C1094 C189 1.456 . S
C1103 C341 1.468 . S
C1105 C209 1.460 . S
C1114 C41 1.470 . S
C1116 C229 1.454 . S
C1125 C421 1.467 . S
C1127 C249 1.460 . S
C1136 C121 1.464 . S
C1138 C269 1.455 . S
C1147 C289 1.452 . S
C1149 C461 1.467 . S
C1158 C309 1.460 . S
C1160 C81 1.468 . S
C1169 C328 1.453 . S
C1171 C222 1.466 . S
C1180 C348 1.457 . S
C1182 C482 1.470 . S
C1191 C368 1.455 . S
C1193 C182 1.465 . S
C1202 C388 1.455 . S
C1204 C522 1.465 . S
C1213 C408 1.454 . S
C1215 C262 1.470 . S
C1224 C428 1.461 . S
C1226 C602 1.467 . S
C1235 C302 1.465 . S
C1237 C448 1.460 . S
C1246 C468 1.452 . S
C1248 C562 1.469 . S
C1257 C61 1.469 . S
C1259 C489 1.459 . S
C1268 C321 1.468 . S
C1270 C509 1.453 . S
C1279 C21 1.464 . S
C1281 C529 1.456 . S
C1290 C361 1.470 . S
C1292 C549 1.458 . S
C1301 C101 1.469 . S
C1303 C569 1.459 . S
C1312 C589 1.460 . S
C1314 C441 1.468 . S
C1323 C609 1.457 . S
C1325 C141 1.470 . S
C1334 C401 1.471 . S
C1336 C629 1.454 . S
C1345 C9 0.559 . S
C1347 C89 0.550 . S
C1356 C29 0.543 . S
C1358 C109 0.539 . S
C1367 C49 0.558 . S
C1369 C129 0.549 . S
C1378 C149 0.557 . S
C1380 C69 0.555 . S
C1389 C248 0.537 . S
C1391 C168 0.545 . S
C1400 C268 0.545 . S
C1402 C188 0.555 . S
C1411 C208 0.547 . S
C1413 C288 0.556 . S
C1422 C228 0.537 . S
C1424 C308 0.548 . S
C1433 C329 0.550 . S
C1435 C409 0.556 . S
C1444 C429 0.557 . S
C1446 C349 0.554 . S
C1455 C449 0.537 . S
C1457 C369 0.545 . S
C1466 C469 0.550 . S
C1468 C389 0.556 . S
C1477 C568 0.539 . S
C1479 C488 0.551 . S
C1488 C508 0.539 . S
C1490 C588 0.552 . S
C1499 C608 0.548 . S
C1501 C528 0.539 . S
C1510 C548 0.557 . S
C1512 C628 0.544 . S
C1521 C158 1.996 . S
C1523 C18 1.995 . S
C1532 C38 1.995 . S
C1534 C98 1.997 . S
C1543 C58 1.997 . S
C1545 C118 1.995 . S
C1554 C138 1.996 . S
C1556 C78 1.995 . S
C1565 C179 1.996 . S
C1567 C319 1.994 . S
C1576 C259 1.996 . S
C1578 C199 1.995 . S
C1587 C279 1.997 . S
C1589 C219 1.996 . S
C1598 C239 1.996 . S
C1600 C299 1.994 . S
C1609 C338 1.997 . S
C1611 C478 1.994 . S
C1620 C418 1.997 . S
C1622 C358 1.995 . S
C1631 C438 1.996 . S
C1633 C378 1.995 . S
C1642 C458 1.997 . S
C1644 C398 1.995 . S
C1653 C499 1.995 . S
C1655 C639 1.995 . S
C1664 C579 1.997 . S
C1666 C519 1.996 . S
C1675 C539 1.994 . S
C1677 C599 1.996 . S
C1686 C619 1.997 . S
C1688 C559 1.995 . S
