# Generated by pormake.
# Topology ung, (4)-cn, num edge types: 1
# Building blocks:
#     Node 0, Type 0, BuildingBlock: CEKHIL_clean_sbu_0, # of connection points: 4
#     Node 1, Type 0, BuildingBlock: CEKHIL_clean_sbu_0, # of connection points: 4
#     Node 2, Type 0, BuildingBlock: CEKHIL_clean_sbu_0, # of connection points: 4
#     Node 3, Type 0, BuildingBlock: CEKHIL_clean_sbu_0, # of connection points: 4
#     Node 4, Type 0, BuildingBlock: CEKHIL_clean_sbu_0, # of connection points: 4
#     Node 5, Type 0, BuildingBlock: CEKHIL_clean_sbu_0, # of connection points: 4
#     Node 6, Type 0, BuildingBlock: CEKHIL_clean_sbu_0, # of connection points: 4
#     Node 7, Type 0, BuildingBlock: CEKHIL_clean_sbu_0, # of connection points: 4
#     Node 8, Type 0, BuildingBlock: CEKHIL_clean_sbu_0, # of connection points: 4
#     Node 9, Type 0, BuildingBlock: CEKHIL_clean_sbu_0, # of connection points: 4
#     Node 10, Type 0, BuildingBlock: CEKHIL_clean_sbu_0, # of connection points: 4
#     Node 11, Type 0, BuildingBlock: CEKHIL_clean_sbu_0, # of connection points: 4
#     Node 12, Type 0, BuildingBlock: CEKHIL_clean_sbu_0, # of connection points: 4
#     Node 13, Type 0, BuildingBlock: CEKHIL_clean_sbu_0, # of connection points: 4
#     Node 14, Type 0, BuildingBlock: CEKHIL_clean_sbu_0, # of connection points: 4
#     Node 15, Type 0, BuildingBlock: CEKHIL_clean_sbu_0, # of connection points: 4
#     Node 16, Type 0, BuildingBlock: CEKHIL_clean_sbu_0, # of connection points: 4
#     Node 17, Type 0, BuildingBlock: CEKHIL_clean_sbu_0, # of connection points: 4
#     Edge 18, Type (0, 0), BuildingBlock: EZIPEK_clean_linker_0, # of connection points: 2
#     Edge 19, Type (0, 0), BuildingBlock: EZIPEK_clean_linker_0, # of connection points: 2
#     Edge 20, Type (0, 0), BuildingBlock: EZIPEK_clean_linker_0, # of connection points: 2
#     Edge 21, Type (0, 0), BuildingBlock: EZIPEK_clean_linker_0, # of connection points: 2
#     Edge 22, Type (0, 0), BuildingBlock: EZIPEK_clean_linker_0, # of connection points: 2
#     Edge 23, Type (0, 0), BuildingBlock: EZIPEK_clean_linker_0, # of connection points: 2
#     Edge 24, Type (0, 0), BuildingBlock: EZIPEK_clean_linker_0, # of connection points: 2
#     Edge 25, Type (0, 0), BuildingBlock: EZIPEK_clean_linker_0, # of connection points: 2
#     Edge 26, Type (0, 0), BuildingBlock: EZIPEK_clean_linker_0, # of connection points: 2
#     Edge 27, Type (0, 0), BuildingBlock: EZIPEK_clean_linker_0, # of connection points: 2
#     Edge 28, Type (0, 0), BuildingBlock: EZIPEK_clean_linker_0, # of connection points: 2
#     Edge 29, Type (0, 0), BuildingBlock: EZIPEK_clean_linker_0, # of connection points: 2
#     Edge 30, Type (0, 0), BuildingBlock: EZIPEK_clean_linker_0, # of connection points: 2
#     Edge 31, Type (0, 0), BuildingBlock: EZIPEK_clean_linker_0, # of connection points: 2
#     Edge 32, Type (0, 0), BuildingBlock: EZIPEK_clean_linker_0, # of connection points: 2
#     Edge 33, Type (0, 0), BuildingBlock: EZIPEK_clean_linker_0, # of connection points: 2
#     Edge 34, Type (0, 0), BuildingBlock: EZIPEK_clean_linker_0, # of connection points: 2
#     Edge 35, Type (0, 0), BuildingBlock: EZIPEK_clean_linker_0, # of connection points: 2
#     Edge 36, Type (0, 0), BuildingBlock: EZIPEK_clean_linker_0, # of connection points: 2
#     Edge 37, Type (0, 0), BuildingBlock: EZIPEK_clean_linker_0, # of connection points: 2
#     Edge 38, Type (0, 0), BuildingBlock: EZIPEK_clean_linker_0, # of connection points: 2
#     Edge 39, Type (0, 0), BuildingBlock: EZIPEK_clean_linker_0, # of connection points: 2
#     Edge 40, Type (0, 0), BuildingBlock: EZIPEK_clean_linker_0, # of connection points: 2
#     Edge 41, Type (0, 0), BuildingBlock: EZIPEK_clean_linker_0, # of connection points: 2
#     Edge 42, Type (0, 0), BuildingBlock: EZIPEK_clean_linker_0, # of connection points: 2
#     Edge 43, Type (0, 0), BuildingBlock: EZIPEK_clean_linker_0, # of connection points: 2
#     Edge 44, Type (0, 0), BuildingBlock: EZIPEK_clean_linker_0, # of connection points: 2
#     Edge 45, Type (0, 0), BuildingBlock: EZIPEK_clean_linker_0, # of connection points: 2
#     Edge 46, Type (0, 0), BuildingBlock: EZIPEK_clean_linker_0, # of connection points: 2
#     Edge 47, Type (0, 0), BuildingBlock: EZIPEK_clean_linker_0, # of connection points: 2
#     Edge 48, Type (0, 0), BuildingBlock: EZIPEK_clean_linker_0, # of connection points: 2
#     Edge 49, Type (0, 0), BuildingBlock: EZIPEK_clean_linker_0, # of connection points: 2
#     Edge 50, Type (0, 0), BuildingBlock: EZIPEK_clean_linker_0, # of connection points: 2
#     Edge 51, Type (0, 0), BuildingBlock: EZIPEK_clean_linker_0, # of connection points: 2
#     Edge 52, Type (0, 0), BuildingBlock: EZIPEK_clean_linker_0, # of connection points: 2
#     Edge 53, Type (0, 0), BuildingBlock: EZIPEK_clean_linker_0, # of connection points: 2
# Relax obj value: 0.073
# Max RMSD: 0.191
# Mean RMSD: 0.184
data_MOF--net-ung--node1-CEKHIL_clean_sbu_0--edge1-EZIPEK_clean_linker_0
_symmetry_space_group_name_H-M    P1
_symmetry_Int_Tables_number       1
_symmetry_cell_setting            triclinic
loop_
_symmetry_equiv_pos_as_xyz
'x, y, z'
_cell_length_a     52.829796
_cell_length_b     53.126504
_cell_length_c     16.099169
_cell_angle_alpha  91.47314
_cell_angle_beta   91.228063
_cell_angle_gamma 119.98864
loop_
_atom_site_label
_atom_site_type_symbol
_atom_site_fract_x
_atom_site_fract_y
_atom_site_fract_z
_atom_type_partial_charge
Co0 Co 0.06197 0.6021 0.24675 0.0
O1 O 0.08427 0.59027 0.3138 0.0
O2 O 0.03598 0.5657 0.29883 0.0
C3 C 0.08565 0.64832 0.30371 0.0
O4 O 0.03227 0.60944 0.18346 0.0
Co5 Co 0.09521 0.64752 0.121 0.0
O6 O 0.05764 0.64618 0.09857 0.0
C7 C 0.07726 0.58738 0.07651 0.0
C8 C 0.05976 0.56857 0.33427 0.0
C9 C 0.03377 0.62758 0.12929 0.0
O10 O 0.06464 0.58035 0.14624 0.0
O11 O 0.09335 0.61375 0.05658 0.0
O12 O 0.06323 0.6273 0.33619 0.0
O13 O 0.09477 0.64035 0.23915 0.0
Co14 Co 0.53761 0.47744 0.25293 0.0
O15 O 0.57195 0.48475 0.19411 0.0
O16 O 0.55614 0.51599 0.20594 0.0
C17 C 0.50971 0.43305 0.19066 0.0
O18 O 0.50209 0.47606 0.30933 0.0
Co19 Co 0.51277 0.42626 0.3715 0.0
O20 O 0.48199 0.43667 0.38838 0.0
C21 C 0.56288 0.48221 0.4287 0.0
C22 C 0.57468 0.50934 0.17426 0.0
C23 C 0.48255 0.45909 0.35977 0.0
O24 O 0.56089 0.49349 0.36083 0.0
O25 O 0.54856 0.45486 0.43987 0.0
O26 O 0.51311 0.45614 0.15561 0.0
O27 O 0.52465 0.43742 0.25951 0.0
Co28 Co 0.63818 0.06232 0.2878 0.0
O29 O 0.60821 0.05456 0.36481 0.0
O30 O 0.64701 0.09784 0.35328 0.0
C31 C 0.64268 0.02394 0.32927 0.0
O32 O 0.67397 0.07636 0.21289 0.0
Co33 Co 0.62096 0.01701 0.15101 0.0
O34 O 0.66054 0.04167 0.11147 0.0
C35 C 0.60214 0.05923 0.13129 0.0
C36 C 0.62295 0.08124 0.39109 0.0
C37 C 0.67941 0.06583 0.14641 0.0
O38 O 0.616 0.07132 0.20046 0.0
O39 O 0.59983 0.03575 0.10073 0.0
O40 O 0.65739 0.04954 0.36485 0.0
O41 O 0.62356 0.02113 0.27207 0.0
Co42 Co 0.06789 0.47333 0.6956 0.0
O43 O 0.04737 0.48467 0.61983 0.0
O44 O 0.09528 0.50968 0.64547 0.0
C45 C 0.04597 0.42723 0.64377 0.0
O46 O 0.09538 0.46629 0.77072 0.0
Co47 Co 0.02948 0.42703 0.81912 0.0
O48 O 0.06651 0.42751 0.84575 0.0
C49 C 0.04656 0.48794 0.85511 0.0
C50 C 0.07238 0.50657 0.60368 0.0
C51 C 0.09166 0.44694 0.82354 0.0
O52 O 0.06241 0.49514 0.79096 0.0
O53 O 0.02885 0.4615 0.87178 0.0
O54 O 0.06893 0.44752 0.61041 0.0
O55 O 0.03539 0.43571 0.703 0.0
Co56 Co 0.65989 0.61279 0.81596 0.0
O57 O 0.63062 0.5915 0.89398 0.0
O58 O 0.66916 0.58642 0.87582 0.0
C59 C 0.666 0.65636 0.85606 0.0
O60 O 0.69425 0.63448 0.73769 0.0
Co61 Co 0.63725 0.63915 0.68353 0.0
O62 O 0.67672 0.65298 0.64191 0.0
C63 C 0.62059 0.57817 0.66367 0.0
C64 C 0.64548 0.57949 0.91613 0.0
C65 C 0.69731 0.64978 0.67294 0.0
O66 O 0.63749 0.58156 0.72656 0.0
O67 O 0.61534 0.59789 0.63953 0.0
O68 O 0.67934 0.64522 0.89573 0.0
O69 O 0.64642 0.63908 0.80052 0.0
Co70 Co 0.51552 0.07673 0.73824 0.0
O71 O 0.54866 0.10272 0.67539 0.0
O72 O 0.53397 0.05622 0.68795 0.0
C73 C 0.48469 0.09036 0.68145 0.0
O74 O 0.48111 0.04414 0.79929 0.0
Co75 Co 0.49424 0.1072 0.86257 0.0
O76 O 0.46254 0.0667 0.87697 0.0
C77 C 0.54362 0.09953 0.91332 0.0
C78 C 0.55177 0.08081 0.6549 0.0
C79 C 0.46219 0.04371 0.8502 0.0
O80 O 0.54057 0.08575 0.8435 0.0
O81 O 0.52976 0.11304 0.92863 0.0
O82 O 0.48937 0.07131 0.644 0.0
O83 O 0.50126 0.10294 0.74735 0.0
Co84 Co 0.69096 0.92612 0.57668 0.0
O85 O 0.666 0.89013 0.51529 0.0
O86 O 0.71426 0.91081 0.53035 0.0
C87 C 0.67064 0.95073 0.51753 0.0
O88 O 0.72405 0.96332 0.6309 0.0
Co89 Co 0.66514 0.94965 0.70195 0.0
O90 O 0.70582 0.98202 0.72278 0.0
C91 C 0.67667 0.90437 0.7547 0.0
C92 C 0.68971 0.88996 0.49761 0.0
C93 C 0.72716 0.9827 0.68578 0.0
O94 O 0.68762 0.90532 0.68332 0.0
O95 O 0.66323 0.91812 0.7719 0.0
O96 O 0.69083 0.94784 0.48204 0.0
O97 O 0.66126 0.93667 0.58542 0.0
Co98 Co 0.17521 0.80263 0.53103 0.0
O99 O 0.209 0.81842 0.46434 0.0
O100 O 0.17951 0.83657 0.47401 0.0
C101 C 0.15773 0.75656 0.48162 0.0
O102 O 0.13716 0.78944 0.59446 0.0
Co103 Co 0.17419 0.76231 0.66392 0.0
O104 O 0.13468 0.75584 0.6819 0.0
C105 C 0.20861 0.82453 0.6996 0.0
C106 C 0.20227 0.8374 0.44109 0.0
C107 C 0.12393 0.77028 0.64978 0.0
O108 O 0.1996 0.82829 0.62897 0.0
O109 O 0.20247 0.79961 0.72497 0.0
O110 O 0.15229 0.77456 0.44361 0.0
O111 O 0.17633 0.76763 0.54464 0.0
Co112 Co 0.33359 0.41136 0.56207 0.0
O113 O 0.31807 0.42967 0.49332 0.0
O114 O 0.29707 0.38222 0.50544 0.0
C115 C 0.38023 0.43741 0.5162 0.0
O116 O 0.3451 0.38532 0.62516 0.0
Co117 Co 0.37678 0.4494 0.699 0.0
O118 O 0.37911 0.41447 0.72259 0.0
C119 C 0.31539 0.42266 0.73496 0.0
C120 C 0.29667 0.40409 0.47173 0.0
C121 C 0.36337 0.38971 0.6858 0.0
O122 O 0.30993 0.41201 0.65973 0.0
O123 O 0.34134 0.43979 0.76396 0.0
O124 O 0.36009 0.41427 0.47647 0.0
O125 O 0.37094 0.44647 0.5781 0.0
Co126 Co 0.71106 0.81019 0.07491 0.0
O127 O 0.68243 0.81494 0.0123 0.0
O128 O 0.72858 0.84946 0.03396 0.0
C129 C 0.69889 0.76761 0.00904 0.0
O130 O 0.7466 0.81192 0.1359 0.0
Co131 Co 0.68822 0.75721 0.18719 0.0
O132 O 0.73037 0.77102 0.20756 0.0
C133 C 0.68699 0.80924 0.24609 0.0
C134 C 0.70301 0.84093 0.99825 0.0
C135 C 0.75097 0.7952 0.18387 0.0
O136 O 0.70063 0.82257 0.18167 0.0
O137 O 0.67685 0.78203 0.25508 0.0
O138 O 0.71737 0.79198 0.97755 0.0
O139 O 0.68692 0.76958 0.0762 0.0
Co140 Co 0.30169 0.94361 0.09632 0.0
O141 O 0.26657 0.92508 0.1574 0.0
O142 O 0.29832 0.90963 0.15091 0.0
C143 C 0.31412 0.98795 0.15322 0.0
O144 O 0.3411 0.95879 0.03946 0.0
Co145 Co 0.30652 0.98665 0.96913 0.0
O146 O 0.34656 0.99385 0.95371 0.0
C147 C 0.27089 0.92477 0.92503 0.0
C148 C 0.27449 0.90703 0.18138 0.0
C149 C 0.35595 0.9785 0.98717 0.0
O150 O 0.27976 0.91935 0.99356 0.0
O151 O 0.27676 0.9503 0.90613 0.0
O152 O 0.32182 0.97106 0.1884 0.0
O153 O 0.29817 0.97739 0.08504 0.0
Co154 Co 0.18771 0.39099 0.05017 0.0
O155 O 0.22137 0.41508 0.98666 0.0
O156 O 0.20176 0.36755 0.99244 0.0
C157 C 0.16204 0.41184 1.00093 0.0
O158 O 0.15168 0.35901 0.10905 0.0
Co159 Co 0.16955 0.41984 0.18408 0.0
O160 O 0.13638 0.38083 0.20078 0.0
C161 C 0.21543 0.40586 0.22612 0.0
C162 C 0.22165 0.39187 0.9626 0.0
C163 C 0.13384 0.35812 0.16466 0.0
O164 O 0.21391 0.39659 0.15061 0.0
O165 O 0.19976 0.41637 0.2518 0.0
O166 O 0.16212 0.39044 0.96072 0.0
O167 O 0.17884 0.42143 0.06769 0.0
Co168 Co 0.40008 0.27725 0.97998 0.0
O169 O 0.40726 0.25486 0.05725 0.0
O170 O 0.36346 0.24934 0.02843 0.0
C171 C 0.43634 0.3207 0.02937 0.0
O172 O 0.38734 0.29918 0.90202 0.0
Co173 Co 0.45014 0.30708 0.85774 0.0
O174 O 0.42363 0.31975 0.8114 0.0
C175 C 0.40682 0.24627 0.8251 0.0
C176 C 0.37976 0.2419 0.07141 0.0
C177 C 0.39932 0.31514 0.83925 0.0
O178 O 0.39298 0.24795 0.88743 0.0
O179 O 0.43169 0.26695 0.80506 0.0
O180 O 0.41129 0.308 0.06382 0.0
O181 O 0.4401 0.30487 0.97362 0.0
Co182 Co 0.83653 0.13702 0.84705 0.0
O183 O 0.86887 0.15093 0.77438 0.0
O184 O 0.84052 0.17021 0.78529 0.0
C185 C 0.81735 0.08978 0.80517 0.0
O186 O 0.80007 0.12552 0.91719 0.0
Co187 Co 0.83875 0.09927 0.98422 0.0
O188 O 0.8006 0.09493 0.0112 0.0
C189 C 0.87444 0.16174 0.00819 0.0
C190 C 0.86236 0.16991 0.74972 0.0
C191 C 0.78873 0.10825 0.9782 0.0
O192 O 0.86284 0.16426 0.94035 0.0
O193 O 0.86985 0.13737 0.03421 0.0
O194 O 0.81162 0.10728 0.76517 0.0
O195 O 0.8373 0.10211 0.86442 0.0
Co196 Co 0.96742 0.71246 0.93556 0.0
O197 O 0.93596 0.70312 0.00862 0.0
O198 O 0.97341 0.74746 0.99721 0.0
C199 C 0.97486 0.67605 0.97771 0.0
O200 O 0.00438 0.72847 0.86574 0.0
Co201 Co 0.95398 0.66738 0.79808 0.0
O202 O 0.99297 0.69565 0.76009 0.0
C203 C 0.93282 0.70743 0.77334 0.0
C204 C 0.9491 0.73012 0.03284 0.0
C205 C 0.01091 0.71957 0.79819 0.0
O206 O 0.94566 0.71997 0.84326 0.0
O207 O 0.9315 0.68415 0.74493 0.0
O208 O 0.98685 0.70118 0.01661 0.0
O209 O 0.95588 0.67216 0.91877 0.0
Co210 Co 0.36698 0.13404 0.41882 0.0
O211 O 0.34618 0.14783 0.35263 0.0
O212 O 0.39434 0.171 0.37253 0.0
C213 C 0.3437 0.08884 0.3578 0.0
O214 O 0.39526 0.12484 0.48178 0.0
Co215 Co 0.33138 0.08722 0.53894 0.0
O216 O 0.36845 0.08804 0.56492 0.0
C217 C 0.35356 0.14745 0.59319 0.0
C218 C 0.37131 0.16952 0.33616 0.0
C219 C 0.39282 0.10638 0.536 0.0
O220 O 0.36439 0.15494 0.52141 0.0
O221 O 0.33756 0.12099 0.61232 0.0
O222 O 0.36652 0.11006 0.32701 0.0
O223 O 0.3334 0.09582 0.42159 0.0
Co224 Co 0.97328 0.27096 0.40899 0.0
O225 O 0.93858 0.25922 0.47122 0.0
O226 O 0.961 0.23375 0.4613 0.0
C227 C 0.99581 0.3165 0.46551 0.0
O228 O 0.01086 0.27848 0.3497 0.0
Co229 Co 0.98797 0.31928 0.28407 0.0
O230 O 0.02429 0.31765 0.27164 0.0
C231 C 0.94326 0.25927 0.23682 0.0
C232 C 0.9401 0.23684 0.49287 0.0
C233 C 0.02861 0.29789 0.30014 0.0
O234 O 0.94899 0.25063 0.30489 0.0
O235 O 0.95412 0.28609 0.22036 0.0
O236 O 0.99716 0.29584 0.50249 0.0
O237 O 0.97941 0.30881 0.39829 0.0
Co238 Co 0.85386 0.74956 0.38405 0.0
O239 O 0.88751 0.76827 0.31622 0.0
O240 O 0.8598 0.72063 0.32382 0.0
C241 C 0.83368 0.77651 0.34099 0.0
O242 O 0.81669 0.72323 0.44706 0.0
Co243 Co 0.85032 0.78746 0.52327 0.0
O244 O 0.81367 0.75181 0.54756 0.0
C245 C 0.88512 0.76011 0.55596 0.0
C246 C 0.882 0.74267 0.29158 0.0
C247 C 0.80403 0.72716 0.50992 0.0
O248 O 0.8786 0.74909 0.48124 0.0
O249 O 0.87765 0.778 0.58455 0.0
O250 O 0.82976 0.75365 0.29911 0.0
O251 O 0.85256 0.78469 0.40325 0.0
C252 C 0.06209 0.51351 0.99664 0.0
C253 C 0.05088 0.51192 0.91424 0.0
C254 C 0.05732 0.56083 0.93687 0.0
C255 C 0.07123 0.56328 0.01586 0.0
N256 N 0.0933 0.54496 0.11093 0.0
N257 N 0.03805 0.53404 0.80456 0.0
C258 C 0.07538 0.54044 0.04282 0.0
C259 C 0.04872 0.5357 0.88392 0.0
N260 N 0.05973 0.48939 0.03223 0.0
N261 N 0.05114 0.58183 0.91374 0.0
H262 H 0.02853 0.51492 0.76732 0.0
H263 H 0.0394 0.55172 0.7743 0.0
H264 H 0.05761 0.60095 0.9488 0.0
H265 H 0.03793 0.57971 0.8621 0.0
H266 H 0.06464 0.48897 0.09504 0.0
H267 H 0.05024 0.46897 0.00243 0.0
H268 H 0.09985 0.53026 0.12832 0.0
H269 H 0.10415 0.56477 0.14494 0.0
C270 C 0.6149 0.5303 0.9702 0.0
C271 C 0.63516 0.56003 0.9873 0.0
C272 C 0.61933 0.55534 0.13185 0.0
C273 C 0.59598 0.52689 0.11076 0.0
N274 N 0.57002 0.48774 0.0072 0.0
N275 N 0.65747 0.60148 0.08326 0.0
C276 C 0.59363 0.51428 0.02955 0.0
C277 C 0.63785 0.57261 0.06831 0.0
N278 N 0.61578 0.51764 0.89617 0.0
N279 N 0.62419 0.56553 0.21282 0.0
H280 H 0.67257 0.61405 0.03968 0.0
H281 H 0.65815 0.61315 0.13702 0.0
H282 H 0.61098 0.55346 0.26051 0.0
H283 H 0.64251 0.58489 0.23397 0.0
H284 H 0.60341 0.49541 0.88182 0.0
H285 H 0.63111 0.52922 0.85196 0.0
H286 H 0.56533 0.47883 0.9467 0.0
H287 H 0.5535 0.47548 0.04742 0.0
C288 C 0.60421 0.09009 0.01326 0.0
C289 C 0.58947 0.07397 0.08283 0.0
C290 C 0.55053 0.08565 0.05867 0.0
C291 C 0.56237 0.09706 0.9803 0.0
N292 N 0.60237 0.11378 0.88783 0.0
N293 N 0.54845 0.05535 0.17167 0.0
C294 C 0.58997 0.10056 0.95954 0.0
C295 C 0.56282 0.07183 0.10617 0.0
N296 N 0.63204 0.09579 0.99974 0.0
N297 N 0.52791 0.08819 0.08907 0.0
H298 H 0.55714 0.04565 0.20955 0.0
H299 H 0.52701 0.04941 0.18489 0.0
H300 H 0.5177 0.09786 0.05853 0.0
H301 H 0.52093 0.08327 0.14954 0.0
H302 H 0.64525 0.10951 0.95482 0.0
H303 H 0.64293 0.08832 0.03776 0.0
H304 H 0.62043 0.11396 0.86266 0.0
H305 H 0.59409 0.12437 0.85217 0.0
C306 C 0.58922 0.09666 0.44652 0.0
C307 C 0.61185 0.09045 0.46285 0.0
C308 C 0.59768 0.08156 0.60883 0.0
C309 C 0.57254 0.08375 0.58919 0.0
N310 N 0.54293 0.09123 0.48717 0.0
N311 N 0.63879 0.07772 0.55829 0.0
C312 C 0.56815 0.09116 0.50769 0.0
C313 C 0.61663 0.08349 0.54415 0.0
N314 N 0.58784 0.10753 0.37158 0.0
N315 N 0.60368 0.0782 0.68947 0.0
H316 H 0.65393 0.08075 0.5134 0.0
H317 H 0.64166 0.06911 0.61265 0.0
H318 H 0.58991 0.07608 0.73756 0.0
H319 H 0.62305 0.07933 0.70994 0.0
H320 H 0.57355 0.11507 0.35725 0.0
H321 H 0.60311 0.11157 0.32623 0.0
H322 H 0.53689 0.09332 0.42692 0.0
H323 H 0.52661 0.08671 0.52906 0.0
C324 C 0.06065 0.56037 0.4856 0.0
C325 C 0.05996 0.55049 0.40229 0.0
C326 C 0.07178 0.51413 0.45144 0.0
C327 C 0.07375 0.52492 0.53445 0.0
N328 N 0.07514 0.56095 0.6304 0.0
N329 N 0.06725 0.52016 0.30367 0.0
C330 C 0.06974 0.54891 0.5514 0.0
C331 C 0.06619 0.52794 0.3846 0.0
N332 N 0.05202 0.5803 0.50161 0.0
N333 N 0.07463 0.49021 0.437 0.0
H334 H 0.06114 0.52841 0.25382 0.0
H335 H 0.0751 0.50647 0.2855 0.0
H336 H 0.08105 0.48107 0.48363 0.0
H337 H 0.06984 0.47886 0.37987 0.0
H338 H 0.0496 0.58672 0.56111 0.0
H339 H 0.04471 0.58862 0.45484 0.0
H340 H 0.07518 0.58007 0.64643 0.0
H341 H 0.08219 0.55307 0.67911 0.0
C342 C 0.58513 0.52509 0.63753 0.0
C343 C 0.609 0.5512 0.61123 0.0
C344 C 0.60867 0.5266 0.48013 0.0
C345 C 0.58111 0.50267 0.49855 0.0
N346 N 0.54224 0.47943 0.5966 0.0
N347 N 0.64491 0.57722 0.5095 0.0
C348 C 0.56936 0.50156 0.5785 0.0
C349 C 0.62135 0.55201 0.53328 0.0
N350 N 0.57723 0.52295 0.71851 0.0
N351 N 0.62289 0.52462 0.41248 0.0
H352 H 0.656 0.59574 0.54889 0.0
H353 H 0.65259 0.5803 0.44947 0.0
H354 H 0.6145 0.50575 0.3744 0.0
H355 H 0.64411 0.5403 0.39903 0.0
H356 H 0.56233 0.5034 0.74401 0.0
H357 H 0.58753 0.54019 0.76247 0.0
H358 H 0.53139 0.47971 0.64952 0.0
H359 H 0.5291 0.46167 0.55683 0.0
C360 C 0.67597 0.84766 0.29324 0.0
C361 C 0.68432 0.82702 0.31429 0.0
C362 C 0.69311 0.84567 0.45974 0.0
C363 C 0.6888 0.86866 0.43518 0.0
N364 N 0.68268 0.89527 0.32485 0.0
N365 N 0.70519 0.80915 0.41717 0.0
C366 C 0.68197 0.87068 0.35091 0.0
C367 C 0.69382 0.8265 0.39766 0.0
N368 N 0.66171 0.84492 0.21876 0.0
N369 N 0.69622 0.84195 0.54228 0.0
H370 H 0.70679 0.79498 0.37473 0.0
H371 H 0.71554 0.81065 0.4744 0.0
H372 H 0.69674 0.85617 0.58908 0.0
H373 H 0.69597 0.82359 0.56454 0.0
H374 H 0.65293 0.85801 0.20344 0.0
H375 H 0.65579 0.82753 0.17624 0.0
H376 H 0.68055 0.89897 0.2625 0.0
H377 H 0.68883 0.91337 0.36444 0.0
C378 C 0.21079 0.8468 0.29007 0.0
C379 C 0.21905 0.8569 0.37429 0.0
C380 C 0.26679 0.89573 0.33148 0.0
C381 C 0.25781 0.88677 0.24693 0.0
N382 N 0.22129 0.85515 0.14387 0.0
N383 N 0.25312 0.89206 0.47611 0.0
C384 C 0.22979 0.86261 0.22582 0.0
C385 C 0.24662 0.88172 0.39521 0.0
N386 N 0.18511 0.82152 0.27196 0.0
N387 N 0.29477 0.91753 0.35047 0.0
H388 H 0.23859 0.88228 0.52355 0.0
H389 H 0.27173 0.91137 0.49585 0.0
H390 H 0.30998 0.92807 0.30519 0.0
H391 H 0.30377 0.92384 0.41065 0.0
H392 H 0.17936 0.81079 0.21376 0.0
H393 H 0.16983 0.81043 0.31662 0.0
H394 H 0.20001 0.84026 0.12305 0.0
H395 H 0.23562 0.86475 0.0959 0.0
C396 C 0.2656 0.42353 0.41648 0.0
C397 C 0.27317 0.40138 0.41269 0.0
C398 C 0.23902 0.37916 0.29203 0.0
C399 C 0.23615 0.40438 0.28746 0.0
N400 N 0.25442 0.45432 0.33506 0.0
N401 N 0.2708 0.36076 0.33358 0.0
C402 C 0.25171 0.4277 0.34665 0.0
C403 C 0.2609 0.37979 0.34688 0.0
N404 N 0.27075 0.44011 0.48778 0.0
N405 N 0.22021 0.35417 0.24751 0.0
H406 H 0.28756 0.36103 0.36945 0.0
H407 H 0.26433 0.34663 0.2813 0.0
H408 H 0.20266 0.35193 0.21085 0.0
H409 H 0.22005 0.33465 0.25488 0.0
H410 H 0.26353 0.45504 0.49492 0.0
H411 H 0.27867 0.4361 0.54262 0.0
H412 H 0.26758 0.47243 0.37422 0.0
H413 H 0.24672 0.45921 0.2812 0.0
C414 C 0.26664 0.38984 0.92094 0.0
C415 C 0.24287 0.39404 0.8995 0.0
C416 C 0.26749 0.41854 0.77388 0.0
C417 C 0.29053 0.41296 0.79214 0.0
N418 N 0.30864 0.38726 0.87357 0.0
N419 N 0.21681 0.40421 0.7936 0.0
C420 C 0.28911 0.39678 0.86296 0.0
C421 C 0.24212 0.40581 0.82203 0.0
N422 N 0.2684 0.38035 0.99772 0.0
N423 N 0.27051 0.43737 0.71368 0.0
H424 H 0.1975 0.39365 0.82581 0.0
H425 H 0.21416 0.41028 0.73444 0.0
H426 H 0.28969 0.44862 0.68141 0.0
H427 H 0.25546 0.44426 0.70261 0.0
H428 H 0.28687 0.38014 0.02073 0.0
H429 H 0.25201 0.37438 0.04058 0.0
H430 H 0.30686 0.37294 0.91908 0.0
H431 H 0.32512 0.39154 0.83225 0.0
C432 C 0.68783 0.84646 0.85458 0.0
C433 C 0.69749 0.85827 0.93693 0.0
C434 C 0.69346 0.90081 0.90146 0.0
C435 C 0.68142 0.88773 0.82085 0.0
N436 N 0.66009 0.84454 0.73067 0.0
N437 N 0.70396 0.89372 0.04385 0.0
C438 C 0.67658 0.8595 0.80036 0.0
C439 C 0.69873 0.88461 0.96189 0.0
N440 N 0.69028 0.82326 0.82689 0.0
N441 N 0.70121 0.92908 0.91981 0.0
H442 H 0.70831 0.88266 0.08952 0.0
H443 H 0.70156 0.9108 0.06763 0.0
H444 H 0.69804 0.9422 0.879 0.0
H445 H 0.71327 0.94053 0.9735 0.0
H446 H 0.68649 0.81574 0.76493 0.0
H447 H 0.69906 0.81344 0.86374 0.0
H448 H 0.65348 0.8228 0.71687 0.0
H449 H 0.65027 0.85278 0.69138 0.0
C450 C 0.22576 0.8776 0.88373 0.0
C451 C 0.25397 0.90021 0.86412 0.0
C452 C 0.25302 0.87243 0.73861 0.0
C453 C 0.22453 0.85024 0.75707 0.0
N454 N 0.18125 0.8337 0.83682 0.0
N455 N 0.29248 0.92189 0.7661 0.0
C456 C 0.21019 0.85331 0.82697 0.0
C457 C 0.26696 0.89851 0.78924 0.0
N458 N 0.21382 0.87945 0.95659 0.0
N459 N 0.26715 0.86803 0.67447 0.0
H460 H 0.30395 0.94109 0.80231 0.0
H461 H 0.3013 0.92324 0.70808 0.0
H462 H 0.2575 0.84924 0.63588 0.0
H463 H 0.2891 0.88185 0.66306 0.0
H464 H 0.19504 0.86229 0.97967 0.0
H465 H 0.22352 0.89788 0.99663 0.0
H466 H 0.16855 0.83637 0.88081 0.0
H467 H 0.16905 0.81562 0.79664 0.0
C468 C 0.3934 0.19506 0.78664 0.0
C469 C 0.39163 0.22009 0.76914 0.0
C470 C 0.35893 0.19446 0.64774 0.0
C471 C 0.3637 0.17077 0.65919 0.0
N472 N 0.38912 0.15017 0.73287 0.0
N473 N 0.37431 0.24498 0.68157 0.0
C474 C 0.38162 0.17129 0.72743 0.0
C475 C 0.37476 0.22016 0.69932 0.0
N476 N 0.40628 0.19397 0.85999 0.0
N477 N 0.3387 0.19199 0.58879 0.0
H478 H 0.38471 0.26389 0.71956 0.0
H479 H 0.36524 0.24755 0.62665 0.0
H480 H 0.3265 0.17322 0.551 0.0
H481 H 0.33209 0.20731 0.58201 0.0
H482 H 0.40518 0.17504 0.88075 0.0
H483 H 0.41605 0.2114 0.90354 0.0
H484 H 0.40499 0.15147 0.77509 0.0
H485 H 0.38152 0.13245 0.69086 0.0
C486 C 0.90511 0.21558 0.70271 0.0
C487 C 0.87923 0.18901 0.68165 0.0
C488 C 0.89334 0.1932 0.53527 0.0
C489 C 0.92053 0.21827 0.55813 0.0
N490 N 0.95409 0.25147 0.66506 0.0
N491 N 0.84918 0.15099 0.57983 0.0
C492 C 0.92685 0.22898 0.64235 0.0
C493 C 0.87344 0.17745 0.59827 0.0
N494 N 0.90869 0.2281 0.78052 0.0
N495 N 0.88625 0.18488 0.4531 0.0
H496 H 0.83325 0.13987 0.62296 0.0
H497 H 0.84543 0.13948 0.5233 0.0
H498 H 0.9008 0.19517 0.40607 0.0
H499 H 0.86553 0.16893 0.43098 0.0
H500 H 0.92571 0.24878 0.79832 0.0
H501 H 0.89301 0.21875 0.82546 0.0
H502 H 0.96121 0.25864 0.72638 0.0
H503 H 0.97066 0.26132 0.62292 0.0
C504 C 0.93657 0.73634 0.64841 0.0
C505 C 0.92128 0.72207 0.71994 0.0
C506 C 0.88238 0.73261 0.68347 0.0
C507 C 0.89844 0.74842 0.61461 0.0
N508 N 0.94265 0.76923 0.53842 0.0
N509 N 0.88264 0.71113 0.81435 0.0
C510 C 0.92605 0.75131 0.59884 0.0
C511 C 0.89522 0.72178 0.74043 0.0
N512 N 0.96115 0.73553 0.62778 0.0
N513 N 0.85407 0.72619 0.69164 0.0
H514 H 0.89056 0.70173 0.85597 0.0
H515 H 0.86573 0.71366 0.83739 0.0
H516 H 0.84334 0.73293 0.6507 0.0
H517 H 0.8402 0.71183 0.73447 0.0
H518 H 0.97126 0.74229 0.57142 0.0
H519 H 0.97072 0.72659 0.66526 0.0
H520 H 0.96418 0.77468 0.52881 0.0
H521 H 0.93566 0.78067 0.50171 0.0
C522 C 0.92345 0.73544 0.24784 0.0
C523 C 0.89967 0.73957 0.22572 0.0
C524 C 0.91462 0.74621 0.08039 0.0
C525 C 0.93649 0.73918 0.10092 0.0
N526 N 0.96125 0.72555 0.20192 0.0
N527 N 0.87079 0.74665 0.12098 0.0
C528 C 0.94091 0.73358 0.18426 0.0
C529 C 0.89488 0.74455 0.14197 0.0
N530 N 0.92973 0.73401 0.32985 0.0
N531 N 0.9129 0.75452 1.00175 0.0
H532 H 0.85579 0.74526 0.16425 0.0
H533 H 0.8643 0.74756 0.0602 0.0
H534 H 0.92715 0.75588 0.95588 0.0
H535 H 0.89917 0.76233 0.9835 0.0
H536 H 0.94863 0.73435 0.3513 0.0
H537 H 0.91678 0.73423 0.37757 0.0
H538 H 0.9631 0.71745 0.25852 0.0
H539 H 0.97566 0.72585 0.1581 0.0
C540 C 0.37588 0.1807 0.18621 0.0
C541 C 0.37292 0.18858 0.26889 0.0
C542 C 0.36645 0.2282 0.21782 0.0
C543 C 0.36903 0.21993 0.13538 0.0
N544 N 0.36863 0.18465 0.03868 0.0
N545 N 0.36008 0.21601 0.36323 0.0
C546 C 0.37116 0.19483 0.11905 0.0
C547 C 0.36639 0.21109 0.28463 0.0
N548 N 0.38402 0.1603 0.17203 0.0
N549 N 0.36554 0.25318 0.23234 0.0
H550 H 0.36131 0.20484 0.41414 0.0
H551 H 0.35208 0.22993 0.37726 0.0
H552 H 0.36419 0.26533 0.18429 0.0
H553 H 0.36731 0.26248 0.29144 0.0
H554 H 0.3892 0.15558 0.11384 0.0
H555 H 0.38814 0.14979 0.2197 0.0
H556 H 0.36746 0.16502 0.02204 0.0
H557 H 0.36476 0.19466 0.98885 0.0
C558 C 0.89567 0.21525 0.19363 0.0
C559 C 0.92421 0.2367 0.17285 0.0
C560 C 0.91834 0.21107 0.03812 0.0
C561 C 0.8913 0.18799 0.06336 0.0
N562 N 0.85327 0.16764 0.16311 0.0
N563 N 0.96364 0.25515 0.07706 0.0
C564 C 0.87968 0.18997 0.14061 0.0
C565 C 0.93563 0.23493 0.09492 0.0
N566 N 0.88349 0.21979 0.26252 0.0
N567 N 0.92757 0.21006 0.95996 0.0
H568 H 0.97692 0.27347 0.11504 0.0
H569 H 0.97463 0.25312 0.0268 0.0
H570 H 0.91671 0.19202 0.91887 0.0
H571 H 0.94501 0.22767 0.93339 0.0
H572 H 0.86185 0.20649 0.27795 0.0
H573 H 0.89442 0.23848 0.30133 0.0
H574 H 0.84533 0.16577 0.22257 0.0
H575 H 0.83947 0.15006 0.12308 0.0
C576 C 0.1045 0.6785 0.4407 0.0
C577 C 0.10436 0.6767 0.35149 0.0
C578 C 0.14758 0.72561 0.35422 0.0
C579 C 0.14691 0.72729 0.44188 0.0
N580 N 0.13297 0.7019 0.56834 0.0
N581 N 0.12094 0.70245 0.22498 0.0
C582 C 0.12819 0.70246 0.485 0.0
C583 C 0.12496 0.70119 0.30853 0.0
N584 N 0.08088 0.65935 0.48353 0.0
N585 N 0.17033 0.74759 0.31525 0.0
H586 H 0.1022 0.68687 0.19199 0.0
H587 H 0.13378 0.72059 0.19071 0.0
H588 H 0.18743 0.76527 0.3486 0.0
H589 H 0.17389 0.74688 0.25211 0.0
H590 H 0.08007 0.66004 0.548 0.0
H591 H 0.0601 0.64648 0.4564 0.0
H592 H 0.12171 0.68338 0.6027 0.0
H593 H 0.15087 0.71893 0.60063 0.0
C594 C 0.46231 0.47178 0.4822 0.0
C595 C 0.46088 0.46636 0.39511 0.0
C596 C 0.41048 0.45704 0.39041 0.0
C597 C 0.40962 0.45458 0.47841 0.0
N598 N 0.43624 0.46385 0.60974 0.0
N599 N 0.43572 0.45945 0.26347 0.0
C600 C 0.43616 0.46392 0.52507 0.0
C601 C 0.4357 0.46118 0.34812 0.0
N602 N 0.48898 0.48479 0.52316 0.0
N603 N 0.38729 0.45605 0.34804 0.0
H604 H 0.45485 0.46554 0.23197 0.0
H605 H 0.41704 0.45188 0.225 0.0
H606 H 0.36936 0.45458 0.37839 0.0
H607 H 0.38701 0.45959 0.28483 0.0
H608 H 0.49234 0.49171 0.58554 0.0
H609 H 0.50821 0.49146 0.49141 0.0
H610 H 0.45391 0.46664 0.64685 0.0
H611 H 0.41808 0.4599 0.64299 0.0
C612 C 0.64964 0.95812 0.38473 0.0
C613 C 0.65582 0.96429 0.47187 0.0
C614 C 0.63913 -0.00047 0.46245 0.0
C615 C 0.64096 -0.00095 0.3746 0.0
N616 N 0.64772 0.97707 0.25067 0.0
N617 N 0.65801 0.99327 0.59297 0.0
C618 C 0.64575 0.97782 0.33496 0.0
C619 C 0.65052 0.98531 0.51101 0.0
N620 N 0.64638 0.93289 0.35027 0.0
N621 N 0.62605 0.01326 0.4994 0.0
H622 H 0.66721 0.98411 0.63033 0.0
H623 H 0.65749 0.01083 0.62157 0.0
H624 H 0.61595 0.02234 0.46482 0.0
H625 H 0.62205 0.01231 0.56269 0.0
H626 H 0.63994 0.92628 0.28818 0.0
H627 H 0.64642 0.91694 0.38661 0.0
H628 H 0.65454 0.96418 0.21963 0.0
H629 H 0.64416 0.99064 0.21248 0.0
C630 C 0.71905 0.06074 0.08131 0.0
C631 C 0.70909 0.07972 0.10944 0.0
C632 C 0.75207 0.12007 0.04647 0.0
C633 C 0.75909 0.0998 0.00947 0.0
N634 N 0.74218 0.04962 0.97031 0.0
N635 N 0.71405 0.12743 0.10513 0.0
C636 C 0.74012 0.06974 0.01977 0.0
C637 C 0.72501 0.10951 0.08833 0.0
N638 N 0.70921 0.03433 0.11566 0.0
N639 N 0.77142 0.14916 0.04442 0.0
H640 H 0.6944 0.1205 0.13458 0.0
H641 H 0.72332 0.14846 0.08381 0.0
H642 H 0.79104 0.15748 0.01384 0.0
H643 H 0.76882 0.16474 0.07773 0.0
H644 H 0.71754 0.02072 0.10082 0.0
H645 H 0.69562 0.02786 0.16623 0.0
H646 H 0.72745 0.02736 0.97198 0.0
H647 H 0.7564 0.0556 0.92121 0.0
C648 C 0.98686 0.63533 0.9693 0.0
C649 C 0.97792 0.65236 0.0158 0.0
C650 C 0.99531 0.64167 0.14547 0.0
C651 C 0.00713 0.62754 0.0981 0.0
N652 N 0.00372 0.60032 0.97343 0.0
N653 N 0.96191 0.66054 0.14753 0.0
C654 C 0.99918 0.6207 0.01255 0.0
C655 C 0.97809 0.65157 0.10402 0.0
N656 N 0.98536 0.63457 0.88456 0.0
N657 N 0.00207 0.64726 0.22868 0.0
H658 H 0.94836 0.66687 0.11766 0.0
H659 H 0.95952 0.65874 0.21152 0.0
H660 H 0.01387 0.63939 0.26082 0.0
H661 H 0.99706 0.66064 0.26474 0.0
H662 H 0.99484 0.62543 0.84748 0.0
H663 H 0.97559 0.6442 0.85129 0.0
H664 H 0.99676 0.59271 0.91224 0.0
H665 H 0.01161 0.58882 0.0064 0.0
C666 C 0.48664 0.35907 0.08558 0.0
C667 C 0.45793 0.35107 0.05625 0.0
C668 C 0.46258 0.39492 0.12465 0.0
C669 C 0.49189 0.40409 0.1486 0.0
N670 N 0.53417 0.39829 0.13488 0.0
N671 N 0.422 0.36565 0.02892 0.0
C672 C 0.5047 0.3872 0.12408 0.0
C673 C 0.4471 0.37047 0.06952 0.0
N674 N 0.49623 0.33951 0.08119 0.0
N675 N 0.44895 0.40868 0.15804 0.0
H676 H 0.41012 0.34816 0.98691 0.0
H677 H 0.4148 0.38069 0.02997 0.0
H678 H 0.45928 0.42571 0.20237 0.0
H679 H 0.42665 0.4011 0.1492 0.0
H680 H 0.5156 0.34316 0.11071 0.0
H681 H 0.48395 0.31874 0.05353 0.0
H682 H 0.54501 0.38813 0.11009 0.0
H683 H 0.54821 0.41888 0.1619 0.0
C684 C 0.98972 0.35666 0.53044 0.0
C685 C 0.00815 0.34547 0.50752 0.0
C686 C 0.04829 0.38401 0.59251 0.0
C687 C 0.03127 0.39743 0.60609 0.0
N688 N 0.98734 0.39933 0.57322 0.0
N689 N 0.05655 0.35184 0.50314 0.0
C690 C 0.00234 0.38455 0.57128 0.0
C691 C 0.03792 0.36013 0.53474 0.0
N692 N 0.9601 0.3403 0.51691 0.0
N693 N 0.07405 0.39362 0.63668 0.0
H694 H 0.04978 0.33518 0.45772 0.0
H695 H 0.0791 0.36345 0.51499 0.0
H696 H 0.08148 0.41024 0.68241 0.0
H697 H 0.08616 0.38304 0.63473 0.0
H698 H 0.94563 0.34634 0.54071 0.0
H699 H 0.94967 0.31944 0.48915 0.0
H700 H 0.96753 0.3921 0.54038 0.0
H701 H 0.99575 0.42002 0.60106 0.0
C702 C 0.73271 0.69658 0.61133 0.0
C703 C 0.7264 0.66848 0.63555 0.0
C704 C 0.77216 0.67744 0.57203 0.0
C705 C 0.77557 0.70353 0.53896 0.0
N706 N 0.75282 0.73168 0.50502 0.0
N707 N 0.73831 0.63015 0.62503 0.0
C708 C 0.75366 0.71088 0.5512 0.0
C709 C 0.74563 0.65822 0.6121 0.0
N710 N 0.71956 0.71036 0.64796 0.0
N711 N 0.7944 0.67146 0.56805 0.0
H712 H 0.71906 0.61549 0.65273 0.0
H713 H 0.7502 0.62087 0.60197 0.0
H714 H 0.81377 0.68478 0.5386 0.0
H715 H 0.79432 0.65442 0.59892 0.0
H716 H 0.7255 0.73182 0.63643 0.0
H717 H 0.70545 0.70183 0.69684 0.0
H718 H 0.73588 0.73637 0.50785 0.0
H719 H 0.7671 0.74152 0.45707 0.0
C720 C 0.44326 0.12855 0.60684 0.0
C721 C 0.4187 0.1046 0.5652 0.0
C722 C 0.43503 0.07196 0.61543 0.0
C723 C 0.46143 0.09601 0.64875 0.0
N724 N 0.49316 0.14828 0.65985 0.0
N725 N 0.39618 0.05513 0.51027 0.0
C726 C 0.46632 0.1247 0.64019 0.0
C727 C 0.41625 0.07685 0.56318 0.0
N728 N 0.44422 0.15461 0.61741 0.0
N729 N 0.42699 0.04436 0.63702 0.0
H730 H 0.38283 0.05832 0.46823 0.0
H731 H 0.39525 0.03516 0.50162 0.0
H732 H 0.43901 0.04009 0.68059 0.0
H733 H 0.4067 0.02637 0.62005 0.0
H734 H 0.45998 0.17167 0.65551 0.0
H735 H 0.428 0.15841 0.5936 0.0
H736 H 0.49856 0.16945 0.64668 0.0
H737 H 0.51091 0.1466 0.68187 0.0
C738 C 0.38852 0.97731 0.87845 0.0
C739 C 0.3853 0.98429 0.96187 0.0
C740 C 0.43816 0.01725 0.97601 0.0
C741 C 0.43979 0.01635 0.88824 0.0
N742 N 0.41934 0.99002 0.7582 0.0
N743 N 0.40731 0.00808 0.09426 0.0
C744 C 0.4159 0.99421 0.84014 0.0
C745 C 0.41038 0.0028 0.0127 0.0
N746 N 0.36515 0.95462 0.83677 0.0
N747 N 0.46344 0.03256 0.02323 0.0
H748 H 0.38732 0.99704 0.12295 0.0
H749 H 0.4242 0.02396 0.13249 0.0
H750 H 0.48379 0.04261 0.99606 0.0
H751 H 0.46446 0.03286 0.08793 0.0
H752 H 0.36557 0.94735 0.77649 0.0
H753 H 0.34568 0.94155 0.86626 0.0
H754 H 0.40233 0.9764 0.71648 0.0
H755 H 0.43986 0.00022 0.73233 0.0
C756 C 0.13782 0.44336 0.82832 0.0
C757 C 0.11697 0.448 0.86921 0.0
C758 C 0.12988 0.43474 1.00156 0.0
C759 C 0.14961 0.42843 0.96032 0.0
N760 N 0.18083 0.43839 0.84411 0.0
N761 N 0.10285 0.46047 0.99757 0.0
C762 C 0.15623 0.43636 0.87642 0.0
C763 C 0.11635 0.44783 0.95708 0.0
N764 N 0.13951 0.44469 0.74396 0.0
N765 N 0.12259 0.42675 0.08119 0.0
H766 H 0.09422 0.47144 0.96529 0.0
H767 H 0.10345 0.46312 0.06207 0.0
H768 H 0.13178 0.41688 0.11555 0.0
H769 H 0.1058 0.42791 0.11064 0.0
H770 H 0.15159 0.43773 0.70992 0.0
H771 H 0.1279 0.45177 0.7077 0.0
H772 H 0.18807 0.44612 0.78546 0.0
H773 H 0.19586 0.43573 0.88033 0.0
C774 C 0.70346 0.70732 0.89351 0.0
C775 C 0.6734 0.68652 0.87811 0.0
C776 C 0.66031 0.72132 0.93659 0.0
C777 C 0.68986 0.73963 0.96454 0.0
N778 N 0.73893 0.74794 0.98038 0.0
N779 N 0.62261 0.67247 0.89463 0.0
C780 C 0.71133 0.73219 0.94531 0.0
C781 C 0.65156 0.69322 0.90123 0.0
N782 N 0.72459 0.7033 0.8585 0.0
N783 N 0.64078 0.73101 0.94154 0.0
H784 H 0.61495 0.65159 0.8693 0.0
H785 H 0.60624 0.67534 0.92027 0.0
H786 H 0.64642 0.75162 0.96583 0.0
H787 H 0.61977 0.71971 0.91414 0.0
H788 H 0.74665 0.7192 0.86066 0.0
H789 H 0.71977 0.68537 0.81966 0.0
H790 H 0.75465 0.74165 0.97578 0.0
H791 H 0.74512 0.76565 0.02147 0.0
C792 C 0.7681 0.00813 0.79162 0.0
C793 C 0.75685 0.00656 0.70979 0.0
C794 C 0.79845 0.05426 0.68578 0.0
C795 C 0.80421 0.05911 0.7729 0.0
N796 N 0.79903 0.03872 0.90772 0.0
N797 N 0.76229 0.02726 0.57523 0.0
C798 C 0.79081 0.03529 0.8256 0.0
C799 C 0.77269 0.02907 0.65488 0.0
N800 N 0.75749 0.98339 0.83523 0.0
N801 N 0.81767 0.07405 0.63335 0.0
H802 H 0.74356 0.00895 0.55023 0.0
H803 H 0.77126 0.04458 0.53562 0.0
H804 H 0.83719 0.09215 0.65565 0.0
H805 H 0.81586 0.07089 0.56889 0.0
H806 H 0.76591 0.98239 0.89333 0.0
H807 H 0.74224 0.96312 0.80843 0.0
H808 H 0.78718 0.02363 0.95176 0.0
H809 H 0.81805 0.05678 0.93138 0.0
C810 C 0.08546 0.77892 0.71872 0.0
C811 C 0.09331 0.76073 0.67307 0.0
C812 C 0.05156 0.71812 0.72613 0.0
C813 C 0.04091 0.7354 0.76326 0.0
N814 N 0.04588 0.78315 0.77912 0.0
N815 N 0.07695 0.71329 0.61007 0.0
C816 C 0.0573 0.76619 0.75525 0.0
C817 C 0.07382 0.73045 0.66858 0.0
N818 N 0.10498 0.80793 0.72947 0.0
N819 N 0.04175 0.69027 0.74931 0.0
H820 H 0.09254 0.72208 0.56468 0.0
H821 H 0.06179 0.69118 0.60117 0.0
H822 H 0.02802 0.68137 0.79885 0.0
H823 H 0.05049 0.67773 0.727 0.0
H824 H 0.10165 0.82165 0.76948 0.0
H825 H 0.12526 0.81777 0.70205 0.0
H826 H 0.05592 0.80525 0.76775 0.0
H827 H 0.02518 0.77471 0.80328 0.0
C828 C 0.39957 0.37513 0.72054 0.0
C829 C 0.36974 0.36671 0.71113 0.0
C830 C 0.35737 0.3212 0.77897 0.0
C831 C 0.3875 0.33271 0.80151 0.0
N832 N 0.43551 0.37616 0.81585 0.0
N833 N 0.3196 0.33271 0.74115 0.0
C834 C 0.40811 0.36133 0.77884 0.0
C835 C 0.34827 0.33989 0.74273 0.0
N836 N 0.41988 0.39654 0.67402 0.0
N837 N 0.33771 0.29255 0.78899 0.0
H838 H 0.31224 0.34573 0.71477 0.0
H839 H 0.3036 0.31488 0.77122 0.0
H840 H 0.34365 0.27808 0.81263 0.0
H841 H 0.31606 0.28268 0.76659 0.0
H842 H 0.44184 0.40214 0.67561 0.0
H843 H 0.4139 0.40594 0.62698 0.0
H844 H 0.4502 0.39787 0.80455 0.0
H845 H 0.44215 0.36819 0.86519 0.0
C846 C 0.05679 0.29566 0.18154 0.0
C847 C 0.05514 0.29797 0.26884 0.0
C848 C 0.1087 0.32547 0.28045 0.0
C849 C 0.10943 0.33019 0.19372 0.0
N850 N 0.08465 0.31696 0.05911 0.0
N851 N 0.07927 0.30873 0.40328 0.0
C852 C 0.08372 0.3137 0.14298 0.0
C853 C 0.08116 0.31033 0.31906 0.0
N854 N 0.03218 0.27645 0.13637 0.0
N855 N 0.13454 0.33638 0.32527 0.0
H856 H 0.0593 0.29611 0.43094 0.0
H857 H 0.09702 0.31977 0.44523 0.0
H858 H 0.15466 0.3472 0.29694 0.0
H859 H 0.13614 0.33291 0.38798 0.0
H860 H 0.03176 0.2721 0.07276 0.0
H861 H 0.0129 0.26266 0.1658 0.0
H862 H 0.06608 0.30822 0.01968 0.0
H863 H 0.10421 0.32937 0.02941 0.0
C864 C 0.82349 0.79867 0.21882 0.0
C865 C 0.82153 0.79428 0.30582 0.0
C866 C 0.78391 0.80837 0.30948 0.0
C867 C 0.78049 0.80463 0.22183 0.0
N868 N 0.80057 0.80294 0.09114 0.0
N869 N 0.80332 0.79992 0.43683 0.0
C870 C 0.8018 0.80242 0.17574 0.0
C871 C 0.8033 0.80138 0.35246 0.0
N872 N 0.8463 0.79941 0.17836 0.0
N873 N 0.76841 0.81866 0.35072 0.0
H874 H 0.8185 0.79679 0.47001 0.0
H875 H 0.78795 0.80109 0.47364 0.0
H876 H 0.75502 0.82473 0.31869 0.0
H877 H 0.77097 0.82391 0.41423 0.0
H878 H 0.85023 0.80403 0.11599 0.0
H879 H 0.86295 0.79792 0.20994 0.0
H880 H 0.81298 0.79782 0.05224 0.0
H881 H 0.78672 0.80857 0.06002 0.0
C882 C 0.3243 0.03974 0.16811 0.0
C883 C 0.31527 0.01248 0.20304 0.0
C884 C 0.31833 0.03384 0.34255 0.0
C885 C 0.32756 0.0611 0.30751 0.0
N886 N 0.32727 0.08651 0.1857 0.0
N887 N 0.29208 0.98171 0.31824 0.0
C888 C 0.32646 0.06283 0.21966 0.0
C889 C 0.3086 0.00889 0.28872 0.0
N890 N 0.33252 0.0443 0.08758 0.0
N891 N 0.32005 0.03171 0.42646 0.0
H892 H 0.28256 0.96299 0.2796 0.0
H893 H 0.28474 0.97806 0.37872 0.0
H894 H 0.3262 0.04921 0.46815 0.0
H895 H 0.31715 0.01294 0.45397 0.0
H896 H 0.34219 0.06477 0.06226 0.0
H897 H 0.33217 0.02825 0.04836 0.0
H898 H 0.32437 0.08793 0.1221 0.0
H899 H 0.32735 0.10309 0.22217 0.0
loop_
_geom_bond_atom_site_label_1
_geom_bond_atom_site_label_2
_geom_bond_distance
_geom_bond_site_symmetry_2
_ccdc_geom_bond_type
Co0 O1 2.216 . S
Co0 O2 2.091 . S
Co0 O4 2.004 . S
Co0 O10 2.021 . S
Co0 O12 2.137 . S
Co0 O13 2.244 . S
O1 Co0 2.216 . S
O1 C8 1.247 . S
O2 Co0 2.091 . S
O2 C8 1.261 . S
C3 O12 1.247 . S
C3 O13 1.272 . S
O4 Co0 2.004 . S
O4 C9 1.259 . S
Co5 O6 2.061 . S
Co5 O11 2.052 . S
Co5 O13 2.135 . S
O6 Co5 2.061 . S
O6 C9 1.235 . S
C7 O10 1.238 . S
C7 O11 1.241 . S
C8 O1 1.247 . S
C8 O2 1.261 . S
C9 O4 1.259 . S
C9 O6 1.235 . S
O10 Co0 2.021 . S
O10 C7 1.238 . S
O11 Co5 2.052 . S
O11 C7 1.241 . S
O12 Co0 2.137 . S
O12 C3 1.247 . S
O13 Co0 2.244 . S
O13 C3 1.272 . S
O13 Co5 2.135 . S
Co14 O15 2.216 . S
Co14 O16 2.091 . S
Co14 O18 2.004 . S
Co14 O24 2.021 . S
Co14 O26 2.137 . S
Co14 O27 2.244 . S
O15 Co14 2.216 . S
O15 C22 1.247 . S
O16 Co14 2.091 . S
O16 C22 1.261 . S
C17 O26 1.247 . S
C17 O27 1.272 . S
O18 Co14 2.004 . S
O18 C23 1.259 . S
Co19 O20 2.061 . S
Co19 O25 2.052 . S
Co19 O27 2.135 . S
O20 Co19 2.061 . S
O20 C23 1.235 . S
C21 O24 1.238 . S
C21 O25 1.241 . S
C22 O15 1.247 . S
C22 O16 1.261 . S
C23 O18 1.259 . S
C23 O20 1.235 . S
O24 Co14 2.021 . S
O24 C21 1.238 . S
O25 Co19 2.052 . S
O25 C21 1.241 . S
O26 Co14 2.137 . S
O26 C17 1.247 . S
O27 Co14 2.244 . S
O27 C17 1.272 . S
O27 Co19 2.135 . S
Co28 O29 2.216 . S
Co28 O30 2.091 . S
Co28 O32 2.004 . S
Co28 O38 2.021 . S
Co28 O40 2.137 . S
Co28 O41 2.244 . S
O29 Co28 2.216 . S
O29 C36 1.247 . S
O30 Co28 2.091 . S
O30 C36 1.261 . S
C31 O40 1.247 . S
C31 O41 1.272 . S
O32 Co28 2.004 . S
O32 C37 1.259 . S
Co33 O34 2.061 . S
Co33 O39 2.052 . S
Co33 O41 2.135 . S
O34 Co33 2.061 . S
O34 C37 1.235 . S
C35 O38 1.238 . S
C35 O39 1.241 . S
C36 O29 1.247 . S
C36 O30 1.261 . S
C37 O32 1.259 . S
C37 O34 1.235 . S
O38 Co28 2.021 . S
O38 C35 1.238 . S
O39 Co33 2.052 . S
O39 C35 1.241 . S
O40 Co28 2.137 . S
O40 C31 1.247 . S
O41 Co28 2.244 . S
O41 C31 1.272 . S
O41 Co33 2.135 . S
Co42 O43 2.216 . S
Co42 O44 2.091 . S
Co42 O46 2.004 . S
Co42 O52 2.021 . S
Co42 O54 2.137 . S
Co42 O55 2.244 . S
O43 Co42 2.216 . S
O43 C50 1.247 . S
O44 Co42 2.091 . S
O44 C50 1.261 . S
C45 O54 1.247 . S
C45 O55 1.272 . S
O46 Co42 2.004 . S
O46 C51 1.259 . S
Co47 O48 2.061 . S
Co47 O53 2.052 . S
Co47 O55 2.135 . S
O48 Co47 2.061 . S
O48 C51 1.235 . S
C49 O52 1.238 . S
C49 O53 1.241 . S
C50 O43 1.247 . S
C50 O44 1.261 . S
C51 O46 1.259 . S
C51 O48 1.235 . S
O52 Co42 2.021 . S
O52 C49 1.238 . S
O53 Co47 2.052 . S
O53 C49 1.241 . S
O54 Co42 2.137 . S
O54 C45 1.247 . S
O55 Co42 2.244 . S
O55 C45 1.272 . S
O55 Co47 2.135 . S
Co56 O57 2.216 . S
Co56 O58 2.091 . S
Co56 O60 2.004 . S
Co56 O66 2.021 . S
Co56 O68 2.137 . S
Co56 O69 2.244 . S
O57 Co56 2.216 . S
O57 C64 1.247 . S
O58 Co56 2.091 . S
O58 C64 1.261 . S
C59 O68 1.247 . S
C59 O69 1.272 . S
O60 Co56 2.004 . S
O60 C65 1.259 . S
Co61 O62 2.061 . S
Co61 O67 2.052 . S
Co61 O69 2.135 . S
O62 Co61 2.061 . S
O62 C65 1.235 . S
C63 O66 1.238 . S
C63 O67 1.241 . S
C64 O57 1.247 . S
C64 O58 1.261 . S
C65 O60 1.259 . S
C65 O62 1.235 . S
O66 Co56 2.021 . S
O66 C63 1.238 . S
O67 Co61 2.052 . S
O67 C63 1.241 . S
O68 Co56 2.137 . S
O68 C59 1.247 . S
O69 Co56 2.244 . S
O69 C59 1.272 . S
O69 Co61 2.135 . S
Co70 O71 2.216 . S
Co70 O72 2.091 . S
Co70 O74 2.004 . S
Co70 O80 2.021 . S
Co70 O82 2.137 . S
Co70 O83 2.244 . S
O71 Co70 2.216 . S
O71 C78 1.247 . S
O72 Co70 2.091 . S
O72 C78 1.261 . S
C73 O82 1.247 . S
C73 O83 1.272 . S
O74 Co70 2.004 . S
O74 C79 1.259 . S
Co75 O76 2.061 . S
Co75 O81 2.052 . S
Co75 O83 2.135 . S
O76 Co75 2.061 . S
O76 C79 1.235 . S
C77 O80 1.238 . S
C77 O81 1.241 . S
C78 O71 1.247 . S
C78 O72 1.261 . S
C79 O74 1.259 . S
C79 O76 1.235 . S
O80 Co70 2.021 . S
O80 C77 1.238 . S
O81 Co75 2.052 . S
O81 C77 1.241 . S
O82 Co70 2.137 . S
O82 C73 1.247 . S
O83 Co70 2.244 . S
O83 C73 1.272 . S
O83 Co75 2.135 . S
Co84 O85 2.216 . S
Co84 O86 2.091 . S
Co84 O88 2.004 . S
Co84 O94 2.021 . S
Co84 O96 2.137 . S
Co84 O97 2.244 . S
O85 Co84 2.216 . S
O85 C92 1.247 . S
O86 Co84 2.091 . S
O86 C92 1.261 . S
C87 O96 1.247 . S
C87 O97 1.272 . S
O88 Co84 2.004 . S
O88 C93 1.259 1_565 S
Co89 O90 2.061 . S
Co89 O95 2.052 . S
Co89 O97 2.135 . S
O90 Co89 2.061 . S
O90 C93 1.235 1_565 S
C91 O94 1.238 . S
C91 O95 1.241 . S
C92 O85 1.247 . S
C92 O86 1.261 . S
C93 O88 1.259 1_545 S
C93 O90 1.235 1_545 S
O94 Co84 2.021 . S
O94 C91 1.238 . S
O95 Co89 2.052 . S
O95 C91 1.241 . S
O96 Co84 2.137 . S
O96 C87 1.247 . S
O97 Co84 2.244 . S
O97 C87 1.272 . S
O97 Co89 2.135 . S
Co98 O99 2.216 . S
Co98 O100 2.091 . S
Co98 O102 2.004 . S
Co98 O108 2.021 . S
Co98 O110 2.137 . S
Co98 O111 2.244 . S
O99 Co98 2.216 . S
O99 C106 1.247 . S
O100 Co98 2.091 . S
O100 C106 1.261 . S
C101 O110 1.247 . S
C101 O111 1.272 . S
O102 Co98 2.004 . S
O102 C107 1.259 . S
Co103 O104 2.061 . S
Co103 O109 2.052 . S
Co103 O111 2.135 . S
O104 Co103 2.061 . S
O104 C107 1.235 . S
C105 O108 1.238 . S
C105 O109 1.241 . S
C106 O99 1.247 . S
C106 O100 1.261 . S
C107 O102 1.259 . S
C107 O104 1.235 . S
O108 Co98 2.021 . S
O108 C105 1.238 . S
O109 Co103 2.052 . S
O109 C105 1.241 . S
O110 Co98 2.137 . S
O110 C101 1.247 . S
O111 Co98 2.244 . S
O111 C101 1.272 . S
O111 Co103 2.135 . S
Co112 O113 2.216 . S
Co112 O114 2.091 . S
Co112 O116 2.004 . S
Co112 O122 2.021 . S
Co112 O124 2.137 . S
Co112 O125 2.244 . S
O113 Co112 2.216 . S
O113 C120 1.247 . S
O114 Co112 2.091 . S
O114 C120 1.261 . S
C115 O124 1.247 . S
C115 O125 1.272 . S
O116 Co112 2.004 . S
O116 C121 1.259 . S
Co117 O118 2.061 . S
Co117 O123 2.052 . S
Co117 O125 2.135 . S
O118 Co117 2.061 . S
O118 C121 1.235 . S
C119 O122 1.238 . S
C119 O123 1.241 . S
C120 O113 1.247 . S
C120 O114 1.261 . S
C121 O116 1.259 . S
C121 O118 1.235 . S
O122 Co112 2.021 . S
O122 C119 1.238 . S
O123 Co117 2.052 . S
O123 C119 1.241 . S
O124 Co112 2.137 . S
O124 C115 1.247 . S
O125 Co112 2.244 . S
O125 C115 1.272 . S
O125 Co117 2.135 . S
Co126 O127 2.216 1_554 S
Co126 O128 2.091 1_554 S
Co126 O130 2.004 . S
Co126 O136 2.021 . S
Co126 O138 2.137 1_554 S
Co126 O139 2.244 . S
O127 Co126 2.216 1_556 S
O127 C134 1.247 . S
O128 Co126 2.091 1_556 S
O128 C134 1.261 . S
C129 O138 1.247 . S
C129 O139 1.272 1_556 S
O130 Co126 2.004 . S
O130 C135 1.259 . S
Co131 O132 2.061 . S
Co131 O137 2.052 . S
Co131 O139 2.135 . S
O132 Co131 2.061 . S
O132 C135 1.235 . S
C133 O136 1.238 . S
C133 O137 1.241 . S
C134 O127 1.247 . S
C134 O128 1.261 . S
C135 O130 1.259 . S
C135 O132 1.235 . S
O136 Co126 2.021 . S
O136 C133 1.238 . S
O137 Co131 2.052 . S
O137 C133 1.241 . S
O138 Co126 2.137 1_556 S
O138 C129 1.247 . S
O139 Co126 2.244 . S
O139 C129 1.272 1_554 S
O139 Co131 2.135 . S
Co140 O141 2.216 . S
Co140 O142 2.091 . S
Co140 O144 2.004 . S
Co140 O150 2.021 . S
Co140 O152 2.137 . S
Co140 O153 2.244 . S
O141 Co140 2.216 . S
O141 C148 1.247 . S
O142 Co140 2.091 . S
O142 C148 1.261 . S
C143 O152 1.247 . S
C143 O153 1.272 . S
O144 Co140 2.004 . S
O144 C149 1.259 . S
Co145 O146 2.061 . S
Co145 O151 2.052 . S
Co145 O153 2.135 1_556 S
O146 Co145 2.061 . S
O146 C149 1.235 1_556 S
C147 O150 1.238 1_556 S
C147 O151 1.241 . S
C148 O141 1.247 . S
C148 O142 1.261 . S
C149 O144 1.259 . S
C149 O146 1.235 1_554 S
O150 Co140 2.021 . S
O150 C147 1.238 1_554 S
O151 Co145 2.052 . S
O151 C147 1.241 . S
O152 Co140 2.137 . S
O152 C143 1.247 . S
O153 Co140 2.244 . S
O153 C143 1.272 . S
O153 Co145 2.135 1_554 S
Co154 O155 2.216 1_554 S
Co154 O156 2.091 1_554 S
Co154 O158 2.004 . S
Co154 O164 2.021 . S
Co154 O166 2.137 1_554 S
Co154 O167 2.244 . S
O155 Co154 2.216 1_556 S
O155 C162 1.247 . S
O156 Co154 2.091 1_556 S
O156 C162 1.261 . S
C157 O166 1.247 1_554 S
C157 O167 1.272 . S
O158 Co154 2.004 . S
O158 C163 1.259 . S
Co159 O160 2.061 . S
Co159 O165 2.052 . S
Co159 O167 2.135 . S
O160 Co159 2.061 . S
O160 C163 1.235 . S
C161 O164 1.238 . S
C161 O165 1.241 . S
C162 O155 1.247 . S
C162 O156 1.261 . S
C163 O158 1.259 . S
C163 O160 1.235 . S
O164 Co154 2.021 . S
O164 C161 1.238 . S
O165 Co159 2.052 . S
O165 C161 1.241 . S
O166 Co154 2.137 1_556 S
O166 C157 1.247 1_556 S
O167 Co154 2.244 . S
O167 C157 1.272 . S
O167 Co159 2.135 . S
Co168 O169 2.216 1_556 S
Co168 O170 2.091 1_556 S
Co168 O172 2.004 . S
Co168 O178 2.021 . S
Co168 O180 2.137 1_556 S
Co168 O181 2.244 . S
O169 Co168 2.216 1_554 S
O169 C176 1.247 . S
O170 Co168 2.091 1_554 S
O170 C176 1.261 . S
C171 O180 1.247 1_556 S
C171 O181 1.272 . S
O172 Co168 2.004 . S
O172 C177 1.259 . S
Co173 O174 2.061 . S
Co173 O179 2.052 . S
Co173 O181 2.135 . S
O174 Co173 2.061 . S
O174 C177 1.235 . S
C175 O178 1.238 . S
C175 O179 1.241 . S
C176 O169 1.247 . S
C176 O170 1.261 . S
C177 O172 1.259 . S
C177 O174 1.235 . S
O178 Co168 2.021 . S
O178 C175 1.238 . S
O179 Co173 2.052 . S
O179 C175 1.241 . S
O180 Co168 2.137 1_554 S
O180 C171 1.247 1_554 S
O181 Co168 2.244 . S
O181 C171 1.272 . S
O181 Co173 2.135 . S
Co182 O183 2.216 . S
Co182 O184 2.091 . S
Co182 O186 2.004 . S
Co182 O192 2.021 . S
Co182 O194 2.137 . S
Co182 O195 2.244 . S
O183 Co182 2.216 . S
O183 C190 1.247 . S
O184 Co182 2.091 . S
O184 C190 1.261 . S
C185 O194 1.247 . S
C185 O195 1.272 . S
O186 Co182 2.004 . S
O186 C191 1.259 1_556 S
Co187 O188 2.061 . S
Co187 O193 2.052 . S
Co187 O195 2.135 1_554 S
O188 Co187 2.061 . S
O188 C191 1.235 . S
C189 O192 1.238 1_554 S
C189 O193 1.241 . S
C190 O183 1.247 . S
C190 O184 1.261 . S
C191 O186 1.259 1_554 S
C191 O188 1.235 . S
O192 Co182 2.021 . S
O192 C189 1.238 1_556 S
O193 Co187 2.052 . S
O193 C189 1.241 . S
O194 Co182 2.137 . S
O194 C185 1.247 . S
O195 Co182 2.244 . S
O195 C185 1.272 . S
O195 Co187 2.135 1_556 S
Co196 O197 2.216 1_556 S
Co196 O198 2.091 1_556 S
Co196 O200 2.004 1_655 S
Co196 O206 2.021 . S
Co196 O208 2.137 1_556 S
Co196 O209 2.244 . S
O197 Co196 2.216 1_554 S
O197 C204 1.247 . S
O198 Co196 2.091 1_554 S
O198 C204 1.261 . S
C199 O208 1.247 1_556 S
C199 O209 1.272 . S
O200 Co196 2.004 1_455 S
O200 C205 1.259 . S
Co201 O202 2.061 1_655 S
Co201 O207 2.052 . S
Co201 O209 2.135 . S
O202 Co201 2.061 1_455 S
O202 C205 1.235 . S
C203 O206 1.238 . S
C203 O207 1.241 . S
C204 O197 1.247 . S
C204 O198 1.261 . S
C205 O200 1.259 . S
C205 O202 1.235 . S
O206 Co196 2.021 . S
O206 C203 1.238 . S
O207 Co201 2.052 . S
O207 C203 1.241 . S
O208 Co196 2.137 1_554 S
O208 C199 1.247 1_554 S
O209 Co196 2.244 . S
O209 C199 1.272 . S
O209 Co201 2.135 . S
Co210 O211 2.216 . S
Co210 O212 2.091 . S
Co210 O214 2.004 . S
Co210 O220 2.021 . S
Co210 O222 2.137 . S
Co210 O223 2.244 . S
O211 Co210 2.216 . S
O211 C218 1.247 . S
O212 Co210 2.091 . S
O212 C218 1.261 . S
C213 O222 1.247 . S
C213 O223 1.272 . S
O214 Co210 2.004 . S
O214 C219 1.259 . S
Co215 O216 2.061 . S
Co215 O221 2.052 . S
Co215 O223 2.135 . S
O216 Co215 2.061 . S
O216 C219 1.235 . S
C217 O220 1.238 . S
C217 O221 1.241 . S
C218 O211 1.247 . S
C218 O212 1.261 . S
C219 O214 1.259 . S
C219 O216 1.235 . S
O220 Co210 2.021 . S
O220 C217 1.238 . S
O221 Co215 2.052 . S
O221 C217 1.241 . S
O222 Co210 2.137 . S
O222 C213 1.247 . S
O223 Co210 2.244 . S
O223 C213 1.272 . S
O223 Co215 2.135 . S
Co224 O225 2.216 . S
Co224 O226 2.091 . S
Co224 O228 2.004 1_655 S
Co224 O234 2.021 . S
Co224 O236 2.137 . S
Co224 O237 2.244 . S
O225 Co224 2.216 . S
O225 C232 1.247 . S
O226 Co224 2.091 . S
O226 C232 1.261 . S
C227 O236 1.247 . S
C227 O237 1.272 . S
O228 Co224 2.004 1_455 S
O228 C233 1.259 . S
Co229 O230 2.061 1_655 S
Co229 O235 2.052 . S
Co229 O237 2.135 . S
O230 Co229 2.061 1_455 S
O230 C233 1.235 . S
C231 O234 1.238 . S
C231 O235 1.241 . S
C232 O225 1.247 . S
C232 O226 1.261 . S
C233 O228 1.259 . S
C233 O230 1.235 . S
O234 Co224 2.021 . S
O234 C231 1.238 . S
O235 Co229 2.052 . S
O235 C231 1.241 . S
O236 Co224 2.137 . S
O236 C227 1.247 . S
O237 Co224 2.244 . S
O237 C227 1.272 . S
O237 Co229 2.135 . S
Co238 O239 2.216 . S
Co238 O240 2.091 . S
Co238 O242 2.004 . S
Co238 O248 2.021 . S
Co238 O250 2.137 . S
Co238 O251 2.244 . S
O239 Co238 2.216 . S
O239 C246 1.247 . S
O240 Co238 2.091 . S
O240 C246 1.261 . S
C241 O250 1.247 . S
C241 O251 1.272 . S
O242 Co238 2.004 . S
O242 C247 1.259 . S
Co243 O244 2.061 . S
Co243 O249 2.052 . S
Co243 O251 2.135 . S
O244 Co243 2.061 . S
O244 C247 1.235 . S
C245 O248 1.238 . S
C245 O249 1.241 . S
C246 O239 1.247 . S
C246 O240 1.261 . S
C247 O242 1.259 . S
C247 O244 1.235 . S
O248 Co238 2.021 . S
O248 C245 1.238 . S
O249 Co243 2.052 . S
O249 C245 1.241 . S
O250 Co238 2.137 . S
O250 C241 1.247 . S
O251 Co238 2.244 . S
O251 C241 1.272 . S
O251 Co243 2.135 . S
C252 C253 1.363 1_554 S
C252 C258 1.379 . S
C252 N260 1.356 1_554 S
C253 C252 1.363 1_556 S
C253 C259 1.363 . S
C254 C255 1.363 1_556 S
C254 C259 1.379 . S
C254 N261 1.356 . S
C255 C254 1.363 1_554 S
C255 C258 1.363 . S
N256 C258 1.356 . S
N256 H268 0.984 . S
N256 H269 0.985 . S
N257 C259 1.356 . S
N257 H262 0.984 . S
N257 H263 0.985 . S
C258 C252 1.379 . S
C258 C255 1.363 . S
C258 N256 1.356 . S
C259 C253 1.363 . S
C259 C254 1.379 . S
C259 N257 1.356 . S
N260 C252 1.356 1_556 S
N260 H266 0.984 1_556 S
N260 H267 0.984 . S
N261 C254 1.356 . S
N261 H264 0.984 1_556 S
N261 H265 0.985 . S
H262 N257 0.984 . S
H263 N257 0.985 . S
H264 N261 0.984 1_554 S
H265 N261 0.985 . S
H266 N260 0.984 1_554 S
H267 N260 0.984 . S
H268 N256 0.984 . S
H269 N256 0.985 . S
C270 C271 1.363 . S
C270 C276 1.379 . S
C270 N278 1.356 . S
C271 C270 1.363 . S
C271 C277 1.363 1_556 S
C272 C273 1.363 . S
C272 C277 1.379 . S
C272 N279 1.356 . S
C273 C272 1.363 . S
C273 C276 1.363 1_554 S
N274 C276 1.356 . S
N274 H286 0.984 . S
N274 H287 0.985 1_556 S
N275 C277 1.356 . S
N275 H280 0.984 1_554 S
N275 H281 0.985 . S
C276 C270 1.379 . S
C276 C273 1.363 1_556 S
C276 N274 1.356 . S
C277 C271 1.363 1_554 S
C277 C272 1.379 . S
C277 N275 1.356 . S
N278 C270 1.356 . S
N278 H284 0.984 . S
N278 H285 0.984 . S
N279 C272 1.356 . S
N279 H282 0.984 . S
N279 H283 0.985 . S
H280 N275 0.984 1_556 S
H281 N275 0.985 . S
H282 N279 0.984 . S
H283 N279 0.985 . S
H284 N278 0.984 . S
H285 N278 0.984 . S
H286 N274 0.984 . S
H287 N274 0.985 1_554 S
C288 C289 1.363 1_556 S
C288 C294 1.379 . S
C288 N296 1.356 . S
C289 C288 1.363 1_554 S
C289 C295 1.363 . S
C290 C291 1.363 1_554 S
C290 C295 1.379 . S
C290 N297 1.356 . S
C291 C290 1.363 1_556 S
C291 C294 1.363 . S
N292 C294 1.356 . S
N292 H304 0.984 . S
N292 H305 0.985 . S
N293 C295 1.356 . S
N293 H298 0.984 . S
N293 H299 0.985 . S
C294 C288 1.379 . S
C294 C291 1.363 . S
C294 N292 1.356 . S
C295 C289 1.363 . S
C295 C290 1.379 . S
C295 N293 1.356 . S
N296 C288 1.356 . S
N296 H302 0.984 . S
N296 H303 0.984 1_556 S
N297 C290 1.356 . S
N297 H300 0.984 1_554 S
N297 H301 0.985 . S
H298 N293 0.984 . S
H299 N293 0.985 . S
H300 N297 0.984 1_556 S
H301 N297 0.985 . S
H302 N296 0.984 . S
H303 N296 0.984 1_554 S
H304 N292 0.984 . S
H305 N292 0.985 . S
C306 C307 1.363 . S
C306 C312 1.379 . S
C306 N314 1.356 . S
C307 C306 1.363 . S
C307 C313 1.363 . S
C308 C309 1.363 . S
C308 C313 1.379 . S
C308 N315 1.356 . S
C309 C308 1.363 . S
C309 C312 1.363 . S
N310 C312 1.356 . S
N310 H322 0.984 . S
N310 H323 0.985 . S
N311 C313 1.356 . S
N311 H316 0.984 . S
N311 H317 0.985 . S
C312 C306 1.379 . S
C312 C309 1.363 . S
C312 N310 1.356 . S
C313 C307 1.363 . S
C313 C308 1.379 . S
C313 N311 1.356 . S
N314 C306 1.356 . S
N314 H320 0.984 . S
N314 H321 0.984 . S
N315 C308 1.356 . S
N315 H318 0.984 . S
N315 H319 0.985 . S
H316 N311 0.984 . S
H317 N311 0.985 . S
H318 N315 0.984 . S
H319 N315 0.985 . S
H320 N314 0.984 . S
H321 N314 0.984 . S
H322 N310 0.984 . S
H323 N310 0.985 . S
C324 C325 1.363 . S
C324 C330 1.379 . S
C324 N332 1.356 . S
C325 C324 1.363 . S
C325 C331 1.363 . S
C326 C327 1.363 . S
C326 C331 1.379 . S
C326 N333 1.356 . S
C327 C326 1.363 . S
C327 C330 1.363 . S
N328 C330 1.356 . S
N328 H340 0.984 . S
N328 H341 0.985 . S
N329 C331 1.356 . S
N329 H334 0.984 . S
N329 H335 0.985 . S
C330 C324 1.379 . S
C330 C327 1.363 . S
C330 N328 1.356 . S
C331 C325 1.363 . S
C331 C326 1.379 . S
C331 N329 1.356 . S
N332 C324 1.356 . S
N332 H338 0.984 . S
N332 H339 0.984 . S
N333 C326 1.356 . S
N333 H336 0.984 . S
N333 H337 0.985 . S
H334 N329 0.984 . S
H335 N329 0.985 . S
H336 N333 0.984 . S
H337 N333 0.985 . S
H338 N332 0.984 . S
H339 N332 0.984 . S
H340 N328 0.984 . S
H341 N328 0.985 . S
C342 C343 1.363 . S
C342 C348 1.379 . S
C342 N350 1.356 . S
C343 C342 1.363 . S
C343 C349 1.363 . S
C344 C345 1.363 . S
C344 C349 1.379 . S
C344 N351 1.356 . S
C345 C344 1.363 . S
C345 C348 1.363 . S
N346 C348 1.356 . S
N346 H358 0.984 . S
N346 H359 0.985 . S
N347 C349 1.356 . S
N347 H352 0.984 . S
N347 H353 0.985 . S
C348 C342 1.379 . S
C348 C345 1.363 . S
C348 N346 1.356 . S
C349 C343 1.363 . S
C349 C344 1.379 . S
C349 N347 1.356 . S
N350 C342 1.356 . S
N350 H356 0.984 . S
N350 H357 0.984 . S
N351 C344 1.356 . S
N351 H354 0.984 . S
N351 H355 0.985 . S
H352 N347 0.984 . S
H353 N347 0.985 . S
H354 N351 0.984 . S
H355 N351 0.985 . S
H356 N350 0.984 . S
H357 N350 0.984 . S
H358 N346 0.984 . S
H359 N346 0.985 . S
C360 C361 1.363 . S
C360 C366 1.379 . S
C360 N368 1.356 . S
C361 C360 1.363 . S
C361 C367 1.363 . S
C362 C363 1.363 . S
C362 C367 1.379 . S
C362 N369 1.356 . S
C363 C362 1.363 . S
C363 C366 1.363 . S
N364 C366 1.356 . S
N364 H376 0.984 . S
N364 H377 0.985 . S
N365 C367 1.356 . S
N365 H370 0.984 . S
N365 H371 0.985 . S
C366 C360 1.379 . S
C366 C363 1.363 . S
C366 N364 1.356 . S
C367 C361 1.363 . S
C367 C362 1.379 . S
C367 N365 1.356 . S
N368 C360 1.356 . S
N368 H374 0.984 . S
N368 H375 0.984 . S
N369 C362 1.356 . S
N369 H372 0.984 . S
N369 H373 0.985 . S
H370 N365 0.984 . S
H371 N365 0.985 . S
H372 N369 0.984 . S
H373 N369 0.985 . S
H374 N368 0.984 . S
H375 N368 0.984 . S
H376 N364 0.984 . S
H377 N364 0.985 . S
C378 C379 1.363 . S
C378 C384 1.379 . S
C378 N386 1.356 . S
C379 C378 1.363 . S
C379 C385 1.363 . S
C380 C381 1.363 . S
C380 C385 1.379 . S
C380 N387 1.356 . S
C381 C380 1.363 . S
C381 C384 1.363 . S
N382 C384 1.356 . S
N382 H394 0.984 . S
N382 H395 0.985 . S
N383 C385 1.356 . S
N383 H388 0.984 . S
N383 H389 0.985 . S
C384 C378 1.379 . S
C384 C381 1.363 . S
C384 N382 1.356 . S
C385 C379 1.363 . S
C385 C380 1.379 . S
C385 N383 1.356 . S
N386 C378 1.356 . S
N386 H392 0.984 . S
N386 H393 0.984 . S
N387 C380 1.356 . S
N387 H390 0.984 . S
N387 H391 0.985 . S
H388 N383 0.984 . S
H389 N383 0.985 . S
H390 N387 0.984 . S
H391 N387 0.985 . S
H392 N386 0.984 . S
H393 N386 0.984 . S
H394 N382 0.984 . S
H395 N382 0.985 . S
C396 C397 1.363 . S
C396 C402 1.379 . S
C396 N404 1.356 . S
C397 C396 1.363 . S
C397 C403 1.363 . S
C398 C399 1.363 . S
C398 C403 1.379 . S
C398 N405 1.356 . S
C399 C398 1.363 . S
C399 C402 1.363 . S
N400 C402 1.356 . S
N400 H412 0.984 . S
N400 H413 0.985 . S
N401 C403 1.356 . S
N401 H406 0.984 . S
N401 H407 0.985 . S
C402 C396 1.379 . S
C402 C399 1.363 . S
C402 N400 1.356 . S
C403 C397 1.363 . S
C403 C398 1.379 . S
C403 N401 1.356 . S
N404 C396 1.356 . S
N404 H410 0.984 . S
N404 H411 0.984 . S
N405 C398 1.356 . S
N405 H408 0.984 . S
N405 H409 0.985 . S
H406 N401 0.984 . S
H407 N401 0.985 . S
H408 N405 0.984 . S
H409 N405 0.985 . S
H410 N404 0.984 . S
H411 N404 0.984 . S
H412 N400 0.984 . S
H413 N400 0.985 . S
C414 C415 1.363 . S
C414 C420 1.379 . S
C414 N422 1.356 . S
C415 C414 1.363 . S
C415 C421 1.363 . S
C416 C417 1.363 . S
C416 C421 1.379 . S
C416 N423 1.356 . S
C417 C416 1.363 . S
C417 C420 1.363 . S
N418 C420 1.356 . S
N418 H430 0.984 . S
N418 H431 0.985 . S
N419 C421 1.356 . S
N419 H424 0.984 . S
N419 H425 0.985 . S
C420 C414 1.379 . S
C420 C417 1.363 . S
C420 N418 1.356 . S
C421 C415 1.363 . S
C421 C416 1.379 . S
C421 N419 1.356 . S
N422 C414 1.356 . S
N422 H428 0.984 . S
N422 H429 0.984 . S
N423 C416 1.356 . S
N423 H426 0.984 . S
N423 H427 0.985 . S
H424 N419 0.984 . S
H425 N419 0.985 . S
H426 N423 0.984 . S
H427 N423 0.985 . S
H428 N422 0.984 . S
H429 N422 0.984 . S
H430 N418 0.984 . S
H431 N418 0.985 . S
C432 C433 1.363 . S
C432 C438 1.379 . S
C432 N440 1.356 . S
C433 C432 1.363 . S
C433 C439 1.363 . S
C434 C435 1.363 . S
C434 C439 1.379 . S
C434 N441 1.356 . S
C435 C434 1.363 . S
C435 C438 1.363 . S
N436 C438 1.356 . S
N436 H448 0.984 . S
N436 H449 0.985 . S
N437 C439 1.356 . S
N437 H442 0.984 1_556 S
N437 H443 0.985 1_556 S
C438 C432 1.379 . S
C438 C435 1.363 . S
C438 N436 1.356 . S
C439 C433 1.363 . S
C439 C434 1.379 . S
C439 N437 1.356 . S
N440 C432 1.356 . S
N440 H446 0.984 . S
N440 H447 0.984 . S
N441 C434 1.356 . S
N441 H444 0.984 . S
N441 H445 0.985 . S
H442 N437 0.984 1_554 S
H443 N437 0.985 1_554 S
H444 N441 0.984 . S
H445 N441 0.985 . S
H446 N440 0.984 . S
H447 N440 0.984 . S
H448 N436 0.984 . S
H449 N436 0.985 . S
C450 C451 1.363 . S
C450 C456 1.379 . S
C450 N458 1.356 . S
C451 C450 1.363 . S
C451 C457 1.363 . S
C452 C453 1.363 . S
C452 C457 1.379 . S
C452 N459 1.356 . S
C453 C452 1.363 . S
C453 C456 1.363 . S
N454 C456 1.356 . S
N454 H466 0.984 . S
N454 H467 0.985 . S
N455 C457 1.356 . S
N455 H460 0.984 . S
N455 H461 0.985 . S
C456 C450 1.379 . S
C456 C453 1.363 . S
C456 N454 1.356 . S
C457 C451 1.363 . S
C457 C452 1.379 . S
C457 N455 1.356 . S
N458 C450 1.356 . S
N458 H464 0.984 1_556 S
N458 H465 0.984 1_556 S
N459 C452 1.356 . S
N459 H462 0.984 . S
N459 H463 0.985 . S
H460 N455 0.984 . S
H461 N455 0.985 . S
H462 N459 0.984 . S
H463 N459 0.985 . S
H464 N458 0.984 1_554 S
H465 N458 0.984 1_554 S
H466 N454 0.984 . S
H467 N454 0.985 . S
C468 C469 1.363 . S
C468 C474 1.379 . S
C468 N476 1.356 . S
C469 C468 1.363 . S
C469 C475 1.363 . S
C470 C471 1.363 . S
C470 C475 1.379 . S
C470 N477 1.356 . S
C471 C470 1.363 . S
C471 C474 1.363 . S
N472 C474 1.356 . S
N472 H484 0.984 . S
N472 H485 0.985 . S
N473 C475 1.356 . S
N473 H478 0.984 . S
N473 H479 0.985 . S
C474 C468 1.379 . S
C474 C471 1.363 . S
C474 N472 1.356 . S
C475 C469 1.363 . S
C475 C470 1.379 . S
C475 N473 1.356 . S
N476 C468 1.356 . S
N476 H482 0.984 . S
N476 H483 0.984 . S
N477 C470 1.356 . S
N477 H480 0.984 . S
N477 H481 0.985 . S
H478 N473 0.984 . S
H479 N473 0.985 . S
H480 N477 0.984 . S
H481 N477 0.985 . S
H482 N476 0.984 . S
H483 N476 0.984 . S
H484 N472 0.984 . S
H485 N472 0.985 . S
C486 C487 1.363 . S
C486 C492 1.379 . S
C486 N494 1.356 . S
C487 C486 1.363 . S
C487 C493 1.363 . S
C488 C489 1.363 . S
C488 C493 1.379 . S
C488 N495 1.356 . S
C489 C488 1.363 . S
C489 C492 1.363 . S
N490 C492 1.356 . S
N490 H502 0.984 . S
N490 H503 0.985 . S
N491 C493 1.356 . S
N491 H496 0.984 . S
N491 H497 0.985 . S
C492 C486 1.379 . S
C492 C489 1.363 . S
C492 N490 1.356 . S
C493 C487 1.363 . S
C493 C488 1.379 . S
C493 N491 1.356 . S
N494 C486 1.356 . S
N494 H500 0.984 . S
N494 H501 0.984 . S
N495 C488 1.356 . S
N495 H498 0.984 . S
N495 H499 0.985 . S
H496 N491 0.984 . S
H497 N491 0.985 . S
H498 N495 0.984 . S
H499 N495 0.985 . S
H500 N494 0.984 . S
H501 N494 0.984 . S
H502 N490 0.984 . S
H503 N490 0.985 . S
C504 C505 1.363 . S
C504 C510 1.379 . S
C504 N512 1.356 . S
C505 C504 1.363 . S
C505 C511 1.363 . S
C506 C507 1.363 . S
C506 C511 1.379 . S
C506 N513 1.356 . S
C507 C506 1.363 . S
C507 C510 1.363 . S
N508 C510 1.356 . S
N508 H520 0.984 . S
N508 H521 0.985 . S
N509 C511 1.356 . S
N509 H514 0.984 . S
N509 H515 0.985 . S
C510 C504 1.379 . S
C510 C507 1.363 . S
C510 N508 1.356 . S
C511 C505 1.363 . S
C511 C506 1.379 . S
C511 N509 1.356 . S
N512 C504 1.356 . S
N512 H518 0.984 . S
N512 H519 0.984 . S
N513 C506 1.356 . S
N513 H516 0.984 . S
N513 H517 0.985 . S
H514 N509 0.984 . S
H515 N509 0.985 . S
H516 N513 0.984 . S
H517 N513 0.985 . S
H518 N512 0.984 . S
H519 N512 0.984 . S
H520 N508 0.984 . S
H521 N508 0.985 . S
C522 C523 1.363 . S
C522 C528 1.379 . S
C522 N530 1.356 . S
C523 C522 1.363 . S
C523 C529 1.363 . S
C524 C525 1.363 . S
C524 C529 1.379 . S
C524 N531 1.356 . S
C525 C524 1.363 . S
C525 C528 1.363 . S
N526 C528 1.356 . S
N526 H538 0.984 . S
N526 H539 0.985 . S
N527 C529 1.356 . S
N527 H532 0.984 . S
N527 H533 0.985 . S
C528 C522 1.379 . S
C528 C525 1.363 . S
C528 N526 1.356 . S
C529 C523 1.363 . S
C529 C524 1.379 . S
C529 N527 1.356 . S
N530 C522 1.356 . S
N530 H536 0.984 . S
N530 H537 0.984 . S
N531 C524 1.356 . S
N531 H534 0.984 . S
N531 H535 0.985 . S
H532 N527 0.984 . S
H533 N527 0.985 . S
H534 N531 0.984 . S
H535 N531 0.985 . S
H536 N530 0.984 . S
H537 N530 0.984 . S
H538 N526 0.984 . S
H539 N526 0.985 . S
C540 C541 1.363 . S
C540 C546 1.379 . S
C540 N548 1.356 . S
C541 C540 1.363 . S
C541 C547 1.363 . S
C542 C543 1.363 . S
C542 C547 1.379 . S
C542 N549 1.356 . S
C543 C542 1.363 . S
C543 C546 1.363 . S
N544 C546 1.356 . S
N544 H556 0.984 . S
N544 H557 0.985 . S
N545 C547 1.356 . S
N545 H550 0.984 . S
N545 H551 0.985 . S
C546 C540 1.379 . S
C546 C543 1.363 . S
C546 N544 1.356 . S
C547 C541 1.363 . S
C547 C542 1.379 . S
C547 N545 1.356 . S
N548 C540 1.356 . S
N548 H554 0.984 . S
N548 H555 0.984 . S
N549 C542 1.356 . S
N549 H552 0.984 . S
N549 H553 0.985 . S
H550 N545 0.984 . S
H551 N545 0.985 . S
H552 N549 0.984 . S
H553 N549 0.985 . S
H554 N548 0.984 . S
H555 N548 0.984 . S
H556 N544 0.984 . S
H557 N544 0.985 . S
C558 C559 1.363 . S
C558 C564 1.379 . S
C558 N566 1.356 . S
C559 C558 1.363 . S
C559 C565 1.363 . S
C560 C561 1.363 . S
C560 C565 1.379 . S
C560 N567 1.356 . S
C561 C560 1.363 . S
C561 C564 1.363 . S
N562 C564 1.356 . S
N562 H574 0.984 . S
N562 H575 0.985 . S
N563 C565 1.356 . S
N563 H568 0.984 . S
N563 H569 0.985 . S
C564 C558 1.379 . S
C564 C561 1.363 . S
C564 N562 1.356 . S
C565 C559 1.363 . S
C565 C560 1.379 . S
C565 N563 1.356 . S
N566 C558 1.356 . S
N566 H572 0.984 . S
N566 H573 0.984 . S
N567 C560 1.356 . S
N567 H570 0.984 1_554 S
N567 H571 0.985 1_554 S
H568 N563 0.984 . S
H569 N563 0.985 . S
H570 N567 0.984 1_556 S
H571 N567 0.985 1_556 S
H572 N566 0.984 . S
H573 N566 0.984 . S
H574 N562 0.984 . S
H575 N562 0.985 . S
C576 C577 1.363 . S
C576 C582 1.379 . S
C576 N584 1.356 . S
C577 C576 1.363 . S
C577 C583 1.363 . S
C578 C579 1.363 . S
C578 C583 1.379 . S
C578 N585 1.356 . S
C579 C578 1.363 . S
C579 C582 1.363 . S
N580 C582 1.356 . S
N580 H592 0.984 . S
N580 H593 0.985 . S
N581 C583 1.356 . S
N581 H586 0.984 . S
N581 H587 0.985 . S
C582 C576 1.379 . S
C582 C579 1.363 . S
C582 N580 1.356 . S
C583 C577 1.363 . S
C583 C578 1.379 . S
C583 N581 1.356 . S
N584 C576 1.356 . S
N584 H590 0.984 . S
N584 H591 0.984 . S
N585 C578 1.356 . S
N585 H588 0.984 . S
N585 H589 0.985 . S
H586 N581 0.984 . S
H587 N581 0.985 . S
H588 N585 0.984 . S
H589 N585 0.985 . S
H590 N584 0.984 . S
H591 N584 0.984 . S
H592 N580 0.984 . S
H593 N580 0.985 . S
C594 C595 1.363 . S
C594 C600 1.379 . S
C594 N602 1.356 . S
C595 C594 1.363 . S
C595 C601 1.363 . S
C596 C597 1.363 . S
C596 C601 1.379 . S
C596 N603 1.356 . S
C597 C596 1.363 . S
C597 C600 1.363 . S
N598 C600 1.356 . S
N598 H610 0.984 . S
N598 H611 0.985 . S
N599 C601 1.356 . S
N599 H604 0.984 . S
N599 H605 0.985 . S
C600 C594 1.379 . S
C600 C597 1.363 . S
C600 N598 1.356 . S
C601 C595 1.363 . S
C601 C596 1.379 . S
C601 N599 1.356 . S
N602 C594 1.356 . S
N602 H608 0.984 . S
N602 H609 0.984 . S
N603 C596 1.356 . S
N603 H606 0.984 . S
N603 H607 0.985 . S
H604 N599 0.984 . S
H605 N599 0.985 . S
H606 N603 0.984 . S
H607 N603 0.985 . S
H608 N602 0.984 . S
H609 N602 0.984 . S
H610 N598 0.984 . S
H611 N598 0.985 . S
C612 C613 1.363 . S
C612 C618 1.379 . S
C612 N620 1.356 . S
C613 C612 1.363 . S
C613 C619 1.363 . S
C614 C615 1.360 1_545 S
C614 C619 1.379 1_545 S
C614 N621 1.356 . S
C615 C614 1.360 1_565 S
C615 C618 1.379 . S
N616 C618 1.356 . S
N616 H628 0.984 . S
N616 H629 0.985 . S
N617 C619 1.356 . S
N617 H622 0.984 . S
N617 H623 0.985 1_565 S
C618 C612 1.379 . S
C618 C615 1.379 . S
C618 N616 1.356 . S
C619 C613 1.363 . S
C619 C614 1.379 1_565 S
C619 N617 1.356 . S
N620 C612 1.356 . S
N620 H626 0.984 . S
N620 H627 0.984 . S
N621 C614 1.356 . S
N621 H624 0.984 . S
N621 H625 0.985 . S
H622 N617 0.984 . S
H623 N617 0.985 1_545 S
H624 N621 0.984 . S
H625 N621 0.985 . S
H626 N620 0.984 . S
H627 N620 0.984 . S
H628 N616 0.984 . S
H629 N616 0.985 . S
C630 C631 1.363 . S
C630 C636 1.379 . S
C630 N638 1.356 . S
C631 C630 1.363 . S
C631 C637 1.363 . S
C632 C633 1.363 . S
C632 C637 1.379 . S
C632 N639 1.348 1_554 S
C633 C632 1.363 . S
C633 C636 1.363 . S
N634 C636 1.356 . S
N634 H646 0.984 . S
N634 H647 0.985 . S
N635 C637 1.356 . S
N635 H640 0.984 . S
N635 H641 0.985 . S
C636 C630 1.379 . S
C636 C633 1.363 . S
C636 N634 1.356 . S
C637 C631 1.363 . S
C637 C632 1.379 . S
C637 N635 1.356 . S
N638 C630 1.356 . S
N638 H644 0.984 . S
N638 H645 0.984 . S
N639 C632 1.348 1_556 S
N639 H642 0.991 . S
N639 H643 0.986 . S
H640 N635 0.984 . S
H641 N635 0.985 . S
H642 N639 0.991 . S
H643 N639 0.986 . S
H644 N638 0.984 . S
H645 N638 0.984 . S
H646 N634 0.984 . S
H647 N634 0.985 . S
C648 C649 1.363 1_456 S
C648 C654 1.379 1_556 S
C648 N656 1.356 1_455 S
C649 C648 1.363 1_654 S
C649 C655 1.363 . S
C650 C651 1.363 . S
C650 C655 1.379 1_455 S
C650 N657 1.356 . S
C651 C650 1.363 . S
C651 C654 1.363 . S
N652 C654 1.356 . S
N652 H664 0.984 1_554 S
N652 H665 0.985 . S
N653 C655 1.356 . S
N653 H658 0.984 . S
N653 H659 0.985 . S
C654 C648 1.379 1_554 S
C654 C651 1.363 . S
C654 N652 1.356 . S
C655 C649 1.363 . S
C655 C650 1.379 1_655 S
C655 N653 1.356 . S
N656 C648 1.356 1_655 S
N656 H662 1.002 . S
N656 H663 0.984 . S
N657 C650 1.356 . S
N657 H660 0.984 . S
N657 H661 0.985 . S
H658 N653 0.984 . S
H659 N653 0.985 . S
H660 N657 0.984 . S
H661 N657 0.985 . S
H662 N656 1.002 . S
H663 N656 0.984 . S
H664 N652 0.984 1_556 S
H665 N652 0.985 . S
C666 C667 1.363 . S
C666 C672 1.379 . S
C666 N674 1.356 1_554 S
C667 C666 1.363 . S
C667 C673 1.363 . S
C668 C669 1.363 . S
C668 C673 1.379 . S
C668 N675 1.356 . S
C669 C668 1.363 . S
C669 C672 1.363 . S
N670 C672 1.356 . S
N670 H682 0.984 . S
N670 H683 0.985 . S
N671 C673 1.356 . S
N671 H676 0.984 . S
N671 H677 0.985 . S
C672 C666 1.379 . S
C672 C669 1.363 . S
C672 N670 1.356 . S
C673 C667 1.363 . S
C673 C668 1.379 . S
C673 N671 1.356 . S
N674 C666 1.356 1_556 S
N674 H680 0.984 . S
N674 H681 0.984 . S
N675 C668 1.356 . S
N675 H678 0.984 . S
N675 H679 0.985 . S
H676 N671 0.984 . S
H677 N671 0.985 . S
H678 N675 0.984 . S
H679 N675 0.985 . S
H680 N674 0.984 . S
H681 N674 0.984 . S
H682 N670 0.984 . S
H683 N670 0.985 . S
C684 C685 1.363 . S
C684 C690 1.379 . S
C684 N692 1.356 . S
C685 C684 1.363 . S
C685 C691 1.363 1_655 S
C686 C687 1.363 . S
C686 C691 1.379 . S
C686 N693 1.356 . S
C687 C686 1.363 . S
C687 C690 1.363 1_455 S
N688 C690 1.356 . S
N688 H700 0.984 . S
N688 H701 0.987 . S
N689 C691 1.356 . S
N689 H694 0.984 . S
N689 H695 0.985 . S
C690 C684 1.379 . S
C690 C687 1.363 1_655 S
C690 N688 1.356 . S
C691 C685 1.363 1_455 S
C691 C686 1.379 . S
C691 N689 1.356 . S
N692 C684 1.356 . S
N692 H698 0.984 . S
N692 H699 0.984 . S
N693 C686 1.356 . S
N693 H696 0.984 . S
N693 H697 0.985 . S
H694 N689 0.984 . S
H695 N689 0.985 . S
H696 N693 0.984 . S
H697 N693 0.985 . S
H698 N692 0.984 . S
H699 N692 0.984 . S
H700 N688 0.984 . S
H701 N688 0.987 . S
C702 C703 1.363 . S
C702 C708 1.379 . S
C702 N710 1.356 . S
C703 C702 1.363 . S
C703 C709 1.363 . S
C704 C705 1.363 . S
C704 C709 1.379 . S
C704 N711 1.356 . S
C705 C704 1.363 . S
C705 C708 1.363 . S
N706 C708 1.356 . S
N706 H718 0.984 . S
N706 H719 0.985 . S
N707 C709 1.356 . S
N707 H712 0.984 . S
N707 H713 0.985 . S
C708 C702 1.379 . S
C708 C705 1.363 . S
C708 N706 1.356 . S
C709 C703 1.363 . S
C709 C704 1.379 . S
C709 N707 1.356 . S
N710 C702 1.356 . S
N710 H716 0.984 . S
N710 H717 0.984 . S
N711 C704 1.356 . S
N711 H714 0.984 . S
N711 H715 0.985 . S
H712 N707 0.984 . S
H713 N707 0.985 . S
H714 N711 0.984 . S
H715 N711 0.985 . S
H716 N710 0.984 . S
H717 N710 0.984 . S
H718 N706 0.984 . S
H719 N706 0.985 . S
C720 C721 1.363 . S
C720 C726 1.379 . S
C720 N728 1.356 . S
C721 C720 1.363 . S
C721 C727 1.363 . S
C722 C723 1.363 . S
C722 C727 1.379 . S
C722 N729 1.356 . S
C723 C722 1.363 . S
C723 C726 1.363 . S
N724 C726 1.356 . S
N724 H736 0.984 . S
N724 H737 0.985 . S
N725 C727 1.356 . S
N725 H730 0.984 . S
N725 H731 0.985 . S
C726 C720 1.379 . S
C726 C723 1.363 . S
C726 N724 1.356 . S
C727 C721 1.363 . S
C727 C722 1.379 . S
C727 N725 1.356 . S
N728 C720 1.356 . S
N728 H734 0.984 . S
N728 H735 0.984 . S
N729 C722 1.356 . S
N729 H732 0.984 . S
N729 H733 0.985 . S
H730 N725 0.984 . S
H731 N725 0.985 . S
H732 N729 0.984 . S
H733 N729 0.985 . S
H734 N728 0.984 . S
H735 N728 0.984 . S
H736 N724 0.984 . S
H737 N724 0.985 . S
C738 C739 1.363 . S
C738 C744 1.379 1_565 S
C738 N746 1.356 . S
C739 C738 1.363 . S
C739 C745 1.363 . S
C740 C741 1.363 . S
C740 C745 1.379 . S
C740 N747 1.356 . S
C741 C740 1.363 . S
C741 C744 1.363 1_565 S
N742 C744 1.356 . S
N742 H754 0.984 . S
N742 H755 0.985 . S
N743 C745 1.356 1_554 S
N743 H748 0.984 . S
N743 H749 0.985 . S
C744 C738 1.379 1_545 S
C744 C741 1.363 1_545 S
C744 N742 1.356 . S
C745 C739 1.363 . S
C745 C740 1.379 . S
C745 N743 1.356 1_556 S
N746 C738 1.356 . S
N746 H752 0.984 . S
N746 H753 0.984 . S
N747 C740 1.356 . S
N747 H750 0.984 . S
N747 H751 0.985 . S
H748 N743 0.984 . S
H749 N743 0.985 . S
H750 N747 0.984 . S
H751 N747 0.985 . S
H752 N746 0.984 . S
H753 N746 0.984 . S
H754 N742 0.984 . S
H755 N742 0.985 . S
C756 C757 1.363 . S
C756 C762 1.379 . S
C756 N764 1.356 . S
C757 C756 1.363 . S
C757 C763 1.363 . S
C758 C759 1.359 1_554 S
C758 C763 1.373 1_554 S
C758 N765 1.367 . S
C759 C758 1.359 1_556 S
C759 C762 1.363 . S
N760 C762 1.356 . S
N760 H772 0.984 . S
N760 H773 0.985 . S
N761 C763 1.356 . S
N761 H766 0.984 . S
N761 H767 0.985 1_556 S
C762 C756 1.379 . S
C762 C759 1.363 . S
C762 N760 1.356 . S
C763 C757 1.363 . S
C763 C758 1.373 1_556 S
C763 N761 1.356 . S
N764 C756 1.356 . S
N764 H770 0.984 . S
N764 H771 0.984 . S
N765 C758 1.367 . S
N765 H768 0.984 . S
N765 H769 0.985 . S
H766 N761 0.984 . S
H767 N761 0.985 1_554 S
H768 N765 0.984 . S
H769 N765 0.985 . S
H770 N764 0.984 . S
H771 N764 0.984 . S
H772 N760 0.984 . S
H773 N760 0.985 . S
C774 C775 1.363 . S
C774 C780 1.379 . S
C774 N782 1.356 . S
C775 C774 1.363 . S
C775 C781 1.363 . S
C776 C777 1.363 . S
C776 C781 1.379 . S
C776 N783 1.356 1_556 S
C777 C776 1.363 . S
C777 C780 1.363 . S
N778 C780 1.356 . S
N778 H790 0.984 . S
N778 H791 0.985 . S
N779 C781 1.356 . S
N779 H784 0.984 . S
N779 H785 0.985 . S
C780 C774 1.379 . S
C780 C777 1.363 . S
C780 N778 1.356 . S
C781 C775 1.363 . S
C781 C776 1.379 . S
C781 N779 1.356 . S
N782 C774 1.356 . S
N782 H788 0.984 . S
N782 H789 0.984 . S
N783 C776 1.356 1_554 S
N783 H786 0.984 . S
N783 H787 0.985 . S
H784 N779 0.984 . S
H785 N779 0.985 . S
H786 N783 0.984 . S
H787 N783 0.985 . S
H788 N782 0.984 . S
H789 N782 0.984 . S
H790 N778 0.984 . S
H791 N778 0.985 . S
C792 C793 1.363 . S
C792 C798 1.379 . S
C792 N800 1.356 1_545 S
C793 C792 1.363 . S
C793 C799 1.363 . S
C794 C795 1.363 . S
C794 C799 1.379 . S
C794 N801 1.356 . S
C795 C794 1.363 . S
C795 C798 1.363 . S
N796 C798 1.356 . S
N796 H808 0.984 . S
N796 H809 0.985 . S
N797 C799 1.356 . S
N797 H802 0.984 . S
N797 H803 0.985 . S
C798 C792 1.379 . S
C798 C795 1.363 . S
C798 N796 1.356 . S
C799 C793 1.363 . S
C799 C794 1.379 . S
C799 N797 1.356 . S
N800 C792 1.356 1_565 S
N800 H806 0.984 . S
N800 H807 0.984 . S
N801 C794 1.356 . S
N801 H804 0.984 . S
N801 H805 0.985 . S
H802 N797 0.984 . S
H803 N797 0.985 . S
H804 N801 0.984 . S
H805 N801 0.985 . S
H806 N800 0.984 . S
H807 N800 0.984 . S
H808 N796 0.984 . S
H809 N796 0.985 . S
C810 C811 1.363 . S
C810 C816 1.379 . S
C810 N818 1.356 . S
C811 C810 1.363 . S
C811 C817 1.363 . S
C812 C813 1.363 . S
C812 C817 1.379 . S
C812 N819 1.356 . S
C813 C812 1.363 . S
C813 C816 1.363 . S
N814 C816 1.356 . S
N814 H826 0.984 . S
N814 H827 0.985 . S
N815 C817 1.356 . S
N815 H820 0.984 . S
N815 H821 0.985 . S
C816 C810 1.379 . S
C816 C813 1.363 . S
C816 N814 1.356 . S
C817 C811 1.363 . S
C817 C812 1.379 . S
C817 N815 1.356 . S
N818 C810 1.356 . S
N818 H824 0.984 . S
N818 H825 0.984 . S
N819 C812 1.356 . S
N819 H822 0.984 . S
N819 H823 0.985 . S
H820 N815 0.984 . S
H821 N815 0.985 . S
H822 N819 0.984 . S
H823 N819 0.985 . S
H824 N818 0.984 . S
H825 N818 0.984 . S
H826 N814 0.984 . S
H827 N814 0.985 . S
C828 C829 1.363 . S
C828 C834 1.379 . S
C828 N836 1.356 . S
C829 C828 1.363 . S
C829 C835 1.363 . S
C830 C831 1.363 . S
C830 C835 1.379 . S
C830 N837 1.356 . S
C831 C830 1.363 . S
C831 C834 1.363 . S
N832 C834 1.356 . S
N832 H844 0.984 . S
N832 H845 0.985 . S
N833 C835 1.356 . S
N833 H838 0.984 . S
N833 H839 0.985 . S
C834 C828 1.379 . S
C834 C831 1.363 . S
C834 N832 1.356 . S
C835 C829 1.363 . S
C835 C830 1.379 . S
C835 N833 1.356 . S
N836 C828 1.356 . S
N836 H842 0.984 . S
N836 H843 0.984 . S
N837 C830 1.356 . S
N837 H840 0.984 . S
N837 H841 0.985 . S
H838 N833 0.984 . S
H839 N833 0.985 . S
H840 N837 0.984 . S
H841 N837 0.985 . S
H842 N836 0.984 . S
H843 N836 0.984 . S
H844 N832 0.984 . S
H845 N832 0.985 . S
C846 C847 1.363 . S
C846 C852 1.379 . S
C846 N854 1.356 . S
C847 C846 1.363 . S
C847 C853 1.363 . S
C848 C849 1.363 . S
C848 C853 1.379 . S
C848 N855 1.356 . S
C849 C848 1.363 . S
C849 C852 1.363 . S
N850 C852 1.356 . S
N850 H862 0.984 . S
N850 H863 0.985 . S
N851 C853 1.356 . S
N851 H856 0.984 . S
N851 H857 0.985 . S
C852 C846 1.379 . S
C852 C849 1.363 . S
C852 N850 1.356 . S
C853 C847 1.363 . S
C853 C848 1.379 . S
C853 N851 1.356 . S
N854 C846 1.356 . S
N854 H860 0.984 . S
N854 H861 0.984 . S
N855 C848 1.356 . S
N855 H858 0.984 . S
N855 H859 0.985 . S
H856 N851 0.984 . S
H857 N851 0.985 . S
H858 N855 0.984 . S
H859 N855 0.985 . S
H860 N854 0.984 . S
H861 N854 0.984 . S
H862 N850 0.984 . S
H863 N850 0.985 . S
C864 C865 1.363 . S
C864 C870 1.379 . S
C864 N872 1.356 . S
C865 C864 1.363 . S
C865 C871 1.363 . S
C866 C867 1.363 . S
C866 C871 1.379 . S
C866 N873 1.356 . S
C867 C866 1.363 . S
C867 C870 1.363 . S
N868 C870 1.356 . S
N868 H880 0.984 . S
N868 H881 0.985 . S
N869 C871 1.356 . S
N869 H874 0.984 . S
N869 H875 0.985 . S
C870 C864 1.379 . S
C870 C867 1.363 . S
C870 N868 1.356 . S
C871 C865 1.363 . S
C871 C866 1.379 . S
C871 N869 1.356 . S
N872 C864 1.356 . S
N872 H878 0.984 . S
N872 H879 0.984 . S
N873 C866 1.356 . S
N873 H876 0.984 . S
N873 H877 0.985 . S
H874 N869 0.984 . S
H875 N869 0.985 . S
H876 N873 0.984 . S
H877 N873 0.985 . S
H878 N872 0.984 . S
H879 N872 0.984 . S
H880 N868 0.984 . S
H881 N868 0.985 . S
C882 C883 1.363 . S
C882 C888 1.379 . S
C882 N890 1.356 . S
C883 C882 1.363 . S
C883 C889 1.363 . S
C884 C885 1.363 . S
C884 C889 1.379 . S
C884 N891 1.356 . S
C885 C884 1.363 . S
C885 C888 1.363 . S
N886 C888 1.356 . S
N886 H898 0.984 . S
N886 H899 0.985 . S
N887 C889 1.356 1_565 S
N887 H892 0.984 . S
N887 H893 0.985 . S
C888 C882 1.379 . S
C888 C885 1.363 . S
C888 N886 1.356 . S
C889 C883 1.363 . S
C889 C884 1.379 . S
C889 N887 1.356 1_545 S
N890 C882 1.356 . S
N890 H896 0.984 . S
N890 H897 0.984 . S
N891 C884 1.356 . S
N891 H894 0.984 . S
N891 H895 0.985 . S
H892 N887 0.984 . S
H893 N887 0.985 . S
H894 N891 0.984 . S
H895 N891 0.985 . S
H896 N890 0.984 . S
H897 N890 0.984 . S
H898 N886 0.984 . S
H899 N886 0.985 . S
C253 C49 1.453 . S
C255 C7 1.452 . S
C271 C64 1.454 . S
C273 C22 1.453 . S
C289 C35 1.472 . S
C291 C77 1.473 . S
C307 C36 1.412 . S
C309 C78 1.411 . S
C325 C8 1.391 . S
C327 C50 1.390 . S
C343 C63 1.402 . S
C345 C21 1.404 . S
C361 C133 1.359 . S
C363 C92 1.367 . S
C379 C106 1.380 . S
C381 C148 1.381 . S
C397 C120 1.395 . S
C399 C161 1.390 . S
C415 C162 1.502 . S
C417 C119 1.497 . S
C433 C134 1.477 . S
C435 C91 1.469 . S
C451 C147 1.487 . S
C453 C105 1.488 . S
C469 C175 1.454 . S
C471 C217 1.456 . S
C487 C190 1.459 . S
C489 C232 1.460 . S
C505 C203 1.481 . S
C507 C245 1.482 . S
C523 C246 1.414 . S
C525 C204 1.416 . S
C541 C218 1.396 . S
C543 C176 1.396 . S
C559 C231 1.410 . S
C561 C189 1.412 . S
C577 C3 1.336 . S
C579 C101 1.339 . S
C595 C23 1.340 . S
C597 C115 1.357 . S
C613 C87 1.342 . S
C615 C31 1.326 1_565 S
C631 C37 1.328 . S
C633 C191 1.324 . S
C649 C199 1.327 1_554 S
C651 C9 1.316 . S
C667 C171 1.312 1_554 S
C669 C17 1.314 . S
C685 C227 1.309 . S
C687 C45 1.310 . S
C703 C65 1.330 . S
C705 C247 1.328 . S
C721 C219 1.314 . S
C723 C73 1.327 . S
C739 C149 1.300 1_556 S
C741 C79 1.302 1_565 S
C757 C51 1.286 . S
C759 C157 1.305 1_556 S
C775 C59 1.285 . S
C777 C129 1.287 . S
C793 C93 1.282 . S
C795 C185 1.298 . S
C811 C107 1.300 . S
C813 C205 1.305 . S
C829 C121 1.297 . S
C831 C177 1.299 . S
C847 C233 1.351 . S
C849 C163 1.348 . S
C865 C241 1.352 . S
C867 C135 1.335 . S
C883 C143 1.340 1_545 S
C885 C213 1.339 . S
