# Generated by pormake.
# Topology ukr, (4)-cn, num edge types: 1
# Building blocks:
#     Node 0, Type 0, BuildingBlock: KUFVIS_clean_sbu_0, # of connection points: 4
#     Node 1, Type 0, BuildingBlock: KUFVIS_clean_sbu_0, # of connection points: 4
#     Node 2, Type 0, BuildingBlock: KUFVIS_clean_sbu_0, # of connection points: 4
#     Node 3, Type 0, BuildingBlock: KUFVIS_clean_sbu_0, # of connection points: 4
#     Node 4, Type 0, BuildingBlock: KUFVIS_clean_sbu_0, # of connection points: 4
#     Node 5, Type 0, BuildingBlock: KUFVIS_clean_sbu_0, # of connection points: 4
#     Node 6, Type 0, BuildingBlock: KUFVIS_clean_sbu_0, # of connection points: 4
#     Node 7, Type 0, BuildingBlock: KUFVIS_clean_sbu_0, # of connection points: 4
#     Node 8, Type 0, BuildingBlock: KUFVIS_clean_sbu_0, # of connection points: 4
#     Node 9, Type 0, BuildingBlock: KUFVIS_clean_sbu_0, # of connection points: 4
#     Node 10, Type 0, BuildingBlock: KUFVIS_clean_sbu_0, # of connection points: 4
#     Node 11, Type 0, BuildingBlock: KUFVIS_clean_sbu_0, # of connection points: 4
#     Node 12, Type 0, BuildingBlock: KUFVIS_clean_sbu_0, # of connection points: 4
#     Node 13, Type 0, BuildingBlock: KUFVIS_clean_sbu_0, # of connection points: 4
#     Node 14, Type 0, BuildingBlock: KUFVIS_clean_sbu_0, # of connection points: 4
#     Node 15, Type 0, BuildingBlock: KUFVIS_clean_sbu_0, # of connection points: 4
#     Node 16, Type 0, BuildingBlock: KUFVIS_clean_sbu_0, # of connection points: 4
#     Node 17, Type 0, BuildingBlock: KUFVIS_clean_sbu_0, # of connection points: 4
#     Node 18, Type 0, BuildingBlock: KUFVIS_clean_sbu_0, # of connection points: 4
#     Node 19, Type 0, BuildingBlock: KUFVIS_clean_sbu_0, # of connection points: 4
#     Node 20, Type 0, BuildingBlock: KUFVIS_clean_sbu_0, # of connection points: 4
#     Node 21, Type 0, BuildingBlock: KUFVIS_clean_sbu_0, # of connection points: 4
#     Node 22, Type 0, BuildingBlock: KUFVIS_clean_sbu_0, # of connection points: 4
#     Node 23, Type 0, BuildingBlock: KUFVIS_clean_sbu_0, # of connection points: 4
#     Node 24, Type 0, BuildingBlock: KUFVIS_clean_sbu_0, # of connection points: 4
#     Node 25, Type 0, BuildingBlock: KUFVIS_clean_sbu_0, # of connection points: 4
#     Node 26, Type 0, BuildingBlock: KUFVIS_clean_sbu_0, # of connection points: 4
#     Node 27, Type 0, BuildingBlock: KUFVIS_clean_sbu_0, # of connection points: 4
#     Node 28, Type 0, BuildingBlock: KUFVIS_clean_sbu_0, # of connection points: 4
#     Node 29, Type 0, BuildingBlock: KUFVIS_clean_sbu_0, # of connection points: 4
#     Node 30, Type 0, BuildingBlock: KUFVIS_clean_sbu_0, # of connection points: 4
#     Node 31, Type 0, BuildingBlock: KUFVIS_clean_sbu_0, # of connection points: 4
#     Node 32, Type 0, BuildingBlock: KUFVIS_clean_sbu_0, # of connection points: 4
#     Node 33, Type 0, BuildingBlock: KUFVIS_clean_sbu_0, # of connection points: 4
#     Node 34, Type 0, BuildingBlock: KUFVIS_clean_sbu_0, # of connection points: 4
#     Node 35, Type 0, BuildingBlock: KUFVIS_clean_sbu_0, # of connection points: 4
#     Node 36, Type 0, BuildingBlock: KUFVIS_clean_sbu_0, # of connection points: 4
#     Node 37, Type 0, BuildingBlock: KUFVIS_clean_sbu_0, # of connection points: 4
#     Node 38, Type 0, BuildingBlock: KUFVIS_clean_sbu_0, # of connection points: 4
#     Node 39, Type 0, BuildingBlock: KUFVIS_clean_sbu_0, # of connection points: 4
#     Node 40, Type 0, BuildingBlock: KUFVIS_clean_sbu_0, # of connection points: 4
#     Node 41, Type 0, BuildingBlock: KUFVIS_clean_sbu_0, # of connection points: 4
#     Node 42, Type 0, BuildingBlock: KUFVIS_clean_sbu_0, # of connection points: 4
#     Node 43, Type 0, BuildingBlock: KUFVIS_clean_sbu_0, # of connection points: 4
#     Node 44, Type 0, BuildingBlock: KUFVIS_clean_sbu_0, # of connection points: 4
#     Node 45, Type 0, BuildingBlock: KUFVIS_clean_sbu_0, # of connection points: 4
#     Node 46, Type 0, BuildingBlock: KUFVIS_clean_sbu_0, # of connection points: 4
#     Node 47, Type 0, BuildingBlock: KUFVIS_clean_sbu_0, # of connection points: 4
#     Edge 48, Type (0, 0), None
#     Edge 49, Type (0, 0), None
#     Edge 50, Type (0, 0), None
#     Edge 51, Type (0, 0), None
#     Edge 52, Type (0, 0), None
#     Edge 53, Type (0, 0), None
#     Edge 54, Type (0, 0), None
#     Edge 55, Type (0, 0), None
#     Edge 56, Type (0, 0), None
#     Edge 57, Type (0, 0), None
#     Edge 58, Type (0, 0), None
#     Edge 59, Type (0, 0), None
#     Edge 60, Type (0, 0), None
#     Edge 61, Type (0, 0), None
#     Edge 62, Type (0, 0), None
#     Edge 63, Type (0, 0), None
#     Edge 64, Type (0, 0), None
#     Edge 65, Type (0, 0), None
#     Edge 66, Type (0, 0), None
#     Edge 67, Type (0, 0), None
#     Edge 68, Type (0, 0), None
#     Edge 69, Type (0, 0), None
#     Edge 70, Type (0, 0), None
#     Edge 71, Type (0, 0), None
#     Edge 72, Type (0, 0), None
#     Edge 73, Type (0, 0), None
#     Edge 74, Type (0, 0), None
#     Edge 75, Type (0, 0), None
#     Edge 76, Type (0, 0), None
#     Edge 77, Type (0, 0), None
#     Edge 78, Type (0, 0), None
#     Edge 79, Type (0, 0), None
#     Edge 80, Type (0, 0), None
#     Edge 81, Type (0, 0), None
#     Edge 82, Type (0, 0), None
#     Edge 83, Type (0, 0), None
#     Edge 84, Type (0, 0), None
#     Edge 85, Type (0, 0), None
#     Edge 86, Type (0, 0), None
#     Edge 87, Type (0, 0), None
#     Edge 88, Type (0, 0), None
#     Edge 89, Type (0, 0), None
#     Edge 90, Type (0, 0), None
#     Edge 91, Type (0, 0), None
#     Edge 92, Type (0, 0), None
#     Edge 93, Type (0, 0), None
#     Edge 94, Type (0, 0), None
#     Edge 95, Type (0, 0), None
#     Edge 96, Type (0, 0), None
#     Edge 97, Type (0, 0), None
#     Edge 98, Type (0, 0), None
#     Edge 99, Type (0, 0), None
#     Edge 100, Type (0, 0), None
#     Edge 101, Type (0, 0), None
#     Edge 102, Type (0, 0), None
#     Edge 103, Type (0, 0), None
#     Edge 104, Type (0, 0), None
#     Edge 105, Type (0, 0), None
#     Edge 106, Type (0, 0), None
#     Edge 107, Type (0, 0), None
#     Edge 108, Type (0, 0), None
#     Edge 109, Type (0, 0), None
#     Edge 110, Type (0, 0), None
#     Edge 111, Type (0, 0), None
#     Edge 112, Type (0, 0), None
#     Edge 113, Type (0, 0), None
#     Edge 114, Type (0, 0), None
#     Edge 115, Type (0, 0), None
#     Edge 116, Type (0, 0), None
#     Edge 117, Type (0, 0), None
#     Edge 118, Type (0, 0), None
#     Edge 119, Type (0, 0), None
#     Edge 120, Type (0, 0), None
#     Edge 121, Type (0, 0), None
#     Edge 122, Type (0, 0), None
#     Edge 123, Type (0, 0), None
#     Edge 124, Type (0, 0), None
#     Edge 125, Type (0, 0), None
#     Edge 126, Type (0, 0), None
#     Edge 127, Type (0, 0), None
#     Edge 128, Type (0, 0), None
#     Edge 129, Type (0, 0), None
#     Edge 130, Type (0, 0), None
#     Edge 131, Type (0, 0), None
#     Edge 132, Type (0, 0), None
#     Edge 133, Type (0, 0), None
#     Edge 134, Type (0, 0), None
#     Edge 135, Type (0, 0), None
#     Edge 136, Type (0, 0), None
#     Edge 137, Type (0, 0), None
#     Edge 138, Type (0, 0), None
#     Edge 139, Type (0, 0), None
#     Edge 140, Type (0, 0), None
#     Edge 141, Type (0, 0), None
#     Edge 142, Type (0, 0), None
#     Edge 143, Type (0, 0), None
# Relax obj value: 0.427
# Max RMSD: 0.184
# Mean RMSD: 0.184
data_MOF--net-ukr--node1-KUFVIS_clean_sbu_0--edge1-none
_symmetry_space_group_name_H-M    P1
_symmetry_Int_Tables_number       1
_symmetry_cell_setting            triclinic
loop_
_symmetry_equiv_pos_as_xyz
'x, y, z'
_cell_length_a     33.218574
_cell_length_b     33.230015
_cell_length_c     33.20216
_cell_angle_alpha  90.005884
_cell_angle_beta   89.99108
_cell_angle_gamma 89.973454
loop_
_atom_site_label
_atom_site_type_symbol
_atom_site_fract_x
_atom_site_fract_y
_atom_site_fract_z
_atom_type_partial_charge
Mn0 Mn 0.08012 0.23388 0.13315 0.0
Mn1 Mn 0.04152 0.22107 0.22331 0.0
C2 C 0.07443 0.16718 0.16879 0.0
C3 C 0.13243 0.1896 0.09778 0.0
C4 C -0.01298 0.24647 0.15707 0.0
O5 O 0.0966 0.29046 0.17118 0.0
O6 O 0.06736 0.28024 0.23007 0.0
C7 C 0.11798 0.22765 0.24765 0.0
N8 N 0.07994 0.20171 0.25201 0.0
C9 C 0.06857 0.17709 0.33507 0.0
C10 C 0.10968 0.20093 0.3513 0.0
C11 C 0.14264 0.23961 0.28731 0.0
C12 C 0.05713 0.17913 0.28597 0.0
H13 H 0.1296 0.23608 0.21852 0.0
C14 C 0.09299 0.30183 0.20957 0.0
O15 O 0.09392 0.18603 0.09182 0.0
O16 O 0.13963 0.21483 0.12613 0.0
N17 N 0.01688 0.16567 0.22801 0.0
C18 C -0.0163 0.14623 0.19993 0.0
C19 C 0.93755 0.13312 0.21956 0.0
C20 C 0.94048 0.15115 0.29869 0.0
C21 C -0.0138 0.16636 0.3104 0.0
C22 C 0.02071 0.17084 0.27454 0.0
H23 H -0.01255 0.14675 0.16759 0.0
O24 O 0.06805 0.16873 0.13103 0.0
O25 O 0.07584 0.20241 0.18168 0.0
O26 O 0.0134 0.24362 0.12811 0.0
O27 O -0.0014 0.24203 0.19246 0.0
C28 C -0.00195 0.16536 0.35083 0.0
C29 C 0.03835 0.16809 0.36265 0.0
H30 H 0.11841 0.19825 0.38289 0.0
H31 H 0.16971 0.25536 0.28157 0.0
H32 H 0.91438 0.11984 0.20073 0.0
H33 H 0.91937 0.1492 0.32368 0.0
H34 H -0.02445 0.16008 0.37383 0.0
H35 H 0.04533 0.16807 0.3945 0.0
Mn36 Mn 0.19523 0.57723 0.63714 0.0
Mn37 Mn 0.20977 0.54033 0.72809 0.0
C38 C 0.262 0.57416 0.67276 0.0
C39 C 0.23901 0.6286 0.59956 0.0
C40 C 0.18385 0.48462 0.6624 0.0
O41 O 0.13905 0.59323 0.67597 0.0
O42 O 0.15033 0.56528 0.73529 0.0
C43 C 0.20243 0.61681 0.75355 0.0
N44 N 0.22811 0.57865 0.7574 0.0
C45 C 0.25597 0.56827 0.83958 0.0
C46 C 0.23347 0.61024 0.85611 0.0
C47 C 0.19284 0.64247 0.79305 0.0
C48 C 0.25176 0.55618 0.79075 0.0
H49 H 0.19305 0.62814 0.7246 0.0
C50 C 0.12814 0.59018 0.71451 0.0
O51 O 0.2425 0.58996 0.59463 0.0
O52 O 0.21419 0.63656 0.62814 0.0
N53 N 0.26591 0.51696 0.73219 0.0
C54 C 0.28554 0.4842 0.70363 0.0
C55 C 0.29972 0.43813 0.72284 0.0
C56 C 0.28285 0.44058 0.80234 0.0
C57 C 0.26716 0.48597 0.81451 0.0
C58 C 0.26139 0.52041 0.77888 0.0
H59 H 0.28417 0.48793 0.67132 0.0
O60 O 0.26036 0.56585 0.6354 0.0
O61 O 0.22693 0.57514 0.68603 0.0
O62 O 0.18547 0.51051 0.63303 0.0
O63 O 0.18989 0.49687 0.69729 0.0
C64 C 0.26885 0.49785 0.85498 0.0
C65 C 0.26606 0.53818 0.86691 0.0
H66 H 0.23746 0.61975 0.88737 0.0
H67 H 0.17933 0.6706 0.78683 0.0
H68 H 0.31211 0.41462 0.70354 0.0
H69 H 0.28526 0.41937 0.82719 0.0
H70 H 0.27502 0.47542 0.87781 0.0
H71 H 0.26717 0.54525 0.89872 0.0
Mn72 Mn 0.84811 0.69269 0.13481 0.0
Mn73 Mn 0.88701 0.70419 0.22516 0.0
C74 C 0.8527 0.75871 0.17168 0.0
C75 C 0.79694 0.73676 0.09832 0.0
C76 C 0.94102 0.68032 0.15764 0.0
O77 O 0.83188 0.63628 0.17308 0.0
O78 O 0.86081 0.64605 0.23223 0.0
C79 C 0.8108 0.69917 0.25328 0.0
N80 N 0.85017 0.72302 0.25618 0.0
C81 C 0.8637 0.75038 0.3381 0.0
C82 C 0.82108 0.73005 0.3556 0.0
C83 C 0.78546 0.69111 0.29334 0.0
C84 C 0.87446 0.74549 0.28902 0.0
H85 H 0.79841 0.69025 0.22461 0.0
C86 C 0.83528 0.62489 0.2115 0.0
O87 O 0.83554 0.74048 0.09338 0.0
O88 O 0.78886 0.71161 0.12659 0.0
N89 N 0.91192 0.75928 0.22935 0.0
C90 C 0.94377 0.77904 0.19989 0.0
C91 C -0.00977 0.79342 0.21792 0.0
C92 C -0.01002 0.77638 0.29734 0.0
C93 C 0.94525 0.76033 0.31073 0.0
C94 C 0.90993 0.75438 0.27611 0.0
H95 H 0.93906 0.77793 0.16769 0.0
O96 O 0.85999 0.75762 0.13411 0.0
O97 O 0.8512 0.72339 0.18441 0.0
O98 O 0.91455 0.68398 0.12908 0.0
O99 O 0.9294 0.68289 0.19325 0.0
C100 C 0.93461 0.76213 0.35155 0.0
C101 C 0.89462 0.75989 0.36463 0.0
H102 H 0.81214 0.73505 0.38689 0.0
H103 H 0.75602 0.68059 0.28742 0.0
H104 H 0.0127 0.80672 0.19819 0.0
H105 H 0.01151 0.77919 0.32176 0.0
H106 H 0.95772 0.76823 0.37371 0.0
H107 H 0.88838 0.76135 0.3966 0.0
Mn108 Mn 0.73695 0.3508 0.63743 0.0
Mn109 Mn 0.72166 0.38971 0.72786 0.0
C110 C 0.66942 0.35488 0.67295 0.0
C111 C 0.69559 0.29932 0.59921 0.0
C112 C 0.74758 0.44351 0.66069 0.0
O113 O 0.79209 0.33567 0.67692 0.0
O114 O 0.78006 0.36435 0.73594 0.0
C115 C 0.72728 0.31329 0.75537 0.0
N116 N 0.70293 0.35239 0.75829 0.0
C117 C 0.67443 0.36504 0.83993 0.0
C118 C 0.69497 0.32245 0.85736 0.0
C119 C 0.73511 0.28774 0.79532 0.0
C120 C 0.67977 0.37618 0.791 0.0
H121 H 0.73696 0.3013 0.72675 0.0
C122 C 0.80215 0.33919 0.71568 0.0
O123 O 0.69102 0.3379 0.5947 0.0
O124 O 0.71992 0.29118 0.62831 0.0
N125 N 0.66609 0.41406 0.73154 0.0
C126 C 0.64656 0.44628 0.70237 0.0
C127 C 0.63277 0.49284 0.72064 0.0
C128 C 0.65017 0.49213 0.79999 0.0
C129 C 0.66568 0.44704 0.81312 0.0
C130 C 0.67105 0.41179 0.77827 0.0
H131 H 0.64743 0.44165 0.67015 0.0
O132 O 0.67153 0.36138 0.63532 0.0
O133 O 0.70442 0.35394 0.68636 0.0
O134 O 0.74562 0.41709 0.63198 0.0
O135 O 0.74239 0.43214 0.69605 0.0
C136 C 0.66357 0.43607 0.85384 0.0
C137 C 0.66508 0.39593 0.86661 0.0
H138 H 0.68997 0.31337 0.88861 0.0
H139 H 0.74645 0.25858 0.78945 0.0
H140 H 0.61964 0.51551 0.70105 0.0
H141 H 0.64779 0.5137 0.82447 0.0
H142 H 0.65773 0.45909 0.87617 0.0
H143 H 0.66343 0.3895 0.89853 0.0
Mn144 Mn 0.08082 0.69439 0.80758 0.0
Mn145 Mn 0.04734 0.70375 0.71467 0.0
C146 C 0.07862 0.75838 0.76849 0.0
C147 C 0.13375 0.74101 0.83842 0.0
C148 C -0.01124 0.6857 0.78019 0.0
O149 O 0.09982 0.63629 0.77509 0.0
O150 O 0.06723 0.64168 0.71702 0.0
C151 C 0.11529 0.67814 0.67523 0.0
N152 N 0.08713 0.71465 0.68037 0.0
C153 C 0.08764 0.76121 0.60592 0.0
C154 C 0.11964 0.73134 0.5831 0.0
C155 C 0.1367 0.66962 0.63264 0.0
C156 C 0.0731 0.75016 0.65306 0.0
H157 H 0.13259 0.66857 0.70066 0.0
C158 C 0.09469 0.62227 0.73794 0.0
O159 O 0.09549 0.74663 0.84427 0.0
O160 O 0.13935 0.71102 0.81564 0.0
N161 N 0.02776 0.76152 0.70806 0.0
C162 C -0.00738 0.78047 0.73439 0.0
C163 C 0.94817 0.79476 0.71186 0.0
C164 C 0.95823 0.78054 0.63257 0.0
C165 C 0.00451 0.76656 0.62415 0.0
C166 C 0.03596 0.75993 0.66237 0.0
H167 H -0.00651 0.77809 0.76685 0.0
O168 O 0.06816 0.75866 0.80553 0.0
O169 O 0.08214 0.72279 0.75607 0.0
O170 O 0.01384 0.68503 0.81026 0.0
O171 O 0.00247 0.69186 0.74621 0.0
C172 C 0.01982 0.77615 0.58632 0.0
C173 C 0.06086 0.77939 0.57956 0.0
H174 H 0.12583 0.73653 0.55109 0.0
H175 H 0.149 0.64036 0.62684 0.0
H176 H 0.92304 0.80677 0.72919 0.0
H177 H 0.93966 0.78382 0.6058 0.0
H178 H -0.00052 0.78535 0.56254 0.0
H179 H 0.07066 0.78684 0.54935 0.0
Mn180 Mn 0.73241 0.58047 0.30628 0.0
Mn181 Mn 0.72086 0.54604 0.21368 0.0
C182 C 0.66735 0.5787 0.26786 0.0
C183 C 0.68735 0.63358 0.33852 0.0
C184 C 0.74052 0.4886 0.27972 0.0
O185 O 0.78977 0.59837 0.27266 0.0
O186 O 0.78308 0.56493 0.21519 0.0
C187 C 0.74768 0.6126 0.17186 0.0
N188 N 0.71064 0.58545 0.17859 0.0
C189 C 0.66055 0.5881 0.1066 0.0
C190 C 0.68996 0.61984 0.08269 0.0
C191 C 0.75456 0.63459 0.12928 0.0
C192 C 0.67355 0.57276 0.15299 0.0
H193 H 0.7581 0.63015 0.19672 0.0
C194 C 0.80307 0.59237 0.23546 0.0
O195 O 0.68131 0.59538 0.34426 0.0
O196 O 0.71652 0.63894 0.31465 0.0
N197 N 0.66273 0.52692 0.20795 0.0
C198 C 0.64534 0.49079 0.23389 0.0
C199 C 0.63294 0.44602 0.21094 0.0
C200 C 0.64624 0.4575 0.13172 0.0
C201 C 0.65804 0.5045 0.12378 0.0
C202 C 0.6636 0.53573 0.16233 0.0
H203 H 0.64752 0.49158 0.26636 0.0
O204 O 0.66776 0.56852 0.30495 0.0
O205 O 0.70282 0.58173 0.25494 0.0
O206 O 0.74267 0.51389 0.30943 0.0
O207 O 0.73234 0.50187 0.24606 0.0
C208 C 0.64682 0.52018 0.08649 0.0
C209 C 0.64173 0.56127 0.08069 0.0
H210 H 0.68337 0.6266 0.05107 0.0
H211 H 0.78397 0.64626 0.12235 0.0
H212 H 0.62173 0.4204 0.22799 0.0
H213 H 0.64341 0.43904 0.10477 0.0
H214 H 0.6377 0.49994 0.0626 0.0
H215 H 0.6329 0.57129 0.05092 0.0
Mn216 Mn 0.84639 0.23505 0.80969 0.0
Mn217 Mn 0.88377 0.22823 0.71816 0.0
C218 C 0.84802 0.17137 0.76854 0.0
C219 C 0.7935 0.18942 0.84037 0.0
C220 C 0.93908 0.24495 0.78713 0.0
O221 O 0.82831 0.29307 0.77687 0.0
O222 O 0.86303 0.28905 0.71997 0.0
C223 C 0.82102 0.25506 0.66903 0.0
N224 N 0.84825 0.21865 0.67891 0.0
C225 C 0.84651 0.16329 0.61093 0.0
C226 C 0.81399 0.19018 0.58487 0.0
C227 C 0.79833 0.25812 0.62622 0.0
C228 C 0.86135 0.17992 0.6562 0.0
H229 H 0.80238 0.26615 0.69253 0.0
C230 C 0.83454 0.30736 0.74003 0.0
O231 O 0.83166 0.18322 0.84612 0.0
O232 O 0.78795 0.21901 0.81703 0.0
N233 N 0.90405 0.17095 0.71371 0.0
C234 C 0.93843 0.15454 0.74249 0.0
C235 C -0.01621 0.13954 0.72269 0.0
C236 C -0.02322 0.14726 0.64239 0.0
C237 C 0.93027 0.15998 0.63121 0.0
C238 C 0.8975 0.1693 0.66774 0.0
H239 H 0.93592 0.15822 0.77473 0.0
O240 O 0.85823 0.1707 0.80557 0.0
O241 O 0.84543 0.20743 0.75659 0.0
O242 O 0.91322 0.24395 0.8163 0.0
O243 O 0.92584 0.23994 0.75286 0.0
C244 C 0.91546 0.14706 0.59405 0.0
C245 C 0.87425 0.14304 0.58686 0.0
H246 H 0.80691 0.18086 0.55401 0.0
H247 H 0.78535 0.28671 0.61757 0.0
H248 H 0.00733 0.12743 0.74176 0.0
H249 H -0.00372 0.14111 0.61675 0.0
H250 H 0.93627 0.13586 0.57158 0.0
H251 H 0.86507 0.13261 0.55734 0.0
Mn252 Mn 0.19573 0.34791 0.30498 0.0
Mn253 Mn 0.20798 0.3813 0.21252 0.0
C254 C 0.26109 0.3505 0.26785 0.0
C255 C 0.24188 0.29609 0.3379 0.0
C256 C 0.18671 0.43937 0.27746 0.0
O257 O 0.13851 0.32911 0.27095 0.0
O258 O 0.14557 0.36193 0.21326 0.0
C259 C 0.18246 0.31349 0.17223 0.0
N260 N 0.21933 0.34093 0.17887 0.0
C261 C 0.27019 0.33736 0.10745 0.0
C262 C 0.24107 0.30528 0.08371 0.0
C263 C 0.17604 0.29095 0.12988 0.0
C264 C 0.25668 0.35338 0.15347 0.0
H265 H 0.17164 0.29642 0.19727 0.0
C266 C 0.12526 0.3347 0.23362 0.0
O267 O 0.24649 0.33442 0.34408 0.0
O268 O 0.21353 0.28981 0.31322 0.0
N269 N 0.26612 0.40087 0.20728 0.0
C270 C 0.2827 0.43788 0.23247 0.0
C271 C 0.29456 0.4823 0.20859 0.0
C272 C 0.28215 0.46878 0.12956 0.0
C273 C 0.2712 0.42135 0.12266 0.0
C274 C 0.26586 0.39091 0.16193 0.0
H275 H 0.28032 0.4378 0.26495 0.0
O276 O 0.26008 0.36137 0.30475 0.0
O277 O 0.22587 0.34676 0.25448 0.0
O278 O 0.1842 0.4143 0.30736 0.0
O279 O 0.19562 0.42596 0.244 0.0
C280 C 0.28315 0.40497 0.08591 0.0
C281 C 0.28905 0.36385 0.08122 0.0
H282 H 0.24796 0.29821 0.05221 0.0
H283 H 0.14659 0.27971 0.12271 0.0
H284 H 0.30542 0.50839 0.22508 0.0
H285 H 0.285 0.48672 0.10222 0.0
H286 H 0.29221 0.42478 0.06164 0.0
H287 H 0.29842 0.35329 0.0518 0.0
Mn288 Mn 0.12918 0.08096 0.2369 0.0
Mn289 Mn 0.21911 0.04296 0.22298 0.0
C290 C 0.16429 0.07635 0.17 0.0
C291 C 0.09395 0.13324 0.19286 0.0
C292 C 0.15277 -0.01193 0.24751 0.0
O293 O 0.16764 0.09672 0.29361 0.0
O294 O 0.22626 0.06712 0.28299 0.0
C295 C 0.24513 0.11813 0.23224 0.0
N296 N 0.24813 0.08169 0.20408 0.0
C297 C 0.33 0.07189 0.17501 0.0
C298 C 0.34741 0.11136 0.20068 0.0
C299 C 0.28532 0.14174 0.24419 0.0
C300 C 0.28095 0.06029 0.17861 0.0
H301 H 0.21635 0.13011 0.24123 0.0
C302 C 0.20602 0.09272 0.30494 0.0
O303 O 0.08786 0.09479 0.18909 0.0
O304 O 0.12209 0.14037 0.21832 0.0
N305 N 0.22259 0.01955 0.16713 0.0
C306 C 0.19392 -0.01417 0.14959 0.0
C307 C 0.21345 0.93996 0.13568 0.0
C308 C 0.29333 0.94429 0.14863 0.0
C309 C 0.30529 -0.0099 0.1629 0.0
C310 C 0.26933 0.02414 0.16944 0.0
H311 H 0.16163 -0.01083 0.15183 0.0
O312 O 0.12672 0.06905 0.17169 0.0
O313 O 0.17759 0.0778 0.20517 0.0
O314 O 0.1238 0.01437 0.24575 0.0
O315 O 0.18806 -0.0001 0.24291 0.0
C316 C 0.3455 0.00217 0.16 0.0
C317 C 0.35721 0.04235 0.16331 0.0
H318 H 0.37905 0.11984 0.19772 0.0
H319 H 0.2803 0.16703 0.26245 0.0
H320 H 0.19432 0.91667 0.12312 0.0
H321 H 0.31851 0.92369 0.14487 0.0
H322 H 0.36833 -0.02008 0.15316 0.0
H323 H 0.38899 0.04948 0.16208 0.0
Mn324 Mn 0.34747 0.63354 0.73662 0.0
Mn325 Mn 0.38587 0.72335 0.72009 0.0
C326 C 0.35081 0.6678 0.66879 0.0
C327 C 0.29547 0.59599 0.6952 0.0
C328 C 0.44012 0.65671 0.74602 0.0
O329 O 0.33288 0.67358 0.7919 0.0
O330 O 0.36156 0.7323 0.77904 0.0
C331 C 0.31006 0.7508 0.7271 0.0
N332 N 0.34805 0.75315 0.70105 0.0
C333 C 0.35891 0.834 0.66974 0.0
C334 C 0.31736 0.85184 0.69193 0.0
C335 C 0.28491 0.79084 0.73526 0.0
C336 C 0.37057 0.78521 0.67585 0.0
H337 H 0.29824 0.72238 0.73738 0.0
C338 C 0.3367 0.71233 0.80177 0.0
O339 O 0.33398 0.59073 0.69071 0.0
O340 O 0.28781 0.62506 0.71962 0.0
N341 N 0.40948 0.72564 0.66432 0.0
C342 C 0.44266 0.69614 0.64698 0.0
C343 C 0.48891 0.71469 0.63271 0.0
C344 C 0.48595 0.79476 0.64493 0.0
C345 C 0.44055 0.80776 0.65922 0.0
C346 C 0.40601 0.77258 0.66639 0.0
H347 H 0.43874 0.66396 0.64958 0.0
O348 O 0.35803 0.63032 0.67125 0.0
O349 O 0.35005 0.68177 0.70365 0.0
O350 O 0.41383 0.62789 0.74477 0.0
O351 O 0.42842 0.69193 0.74071 0.0
C352 C 0.42912 0.84819 0.65571 0.0
C353 C 0.38899 0.86061 0.65816 0.0
H354 H 0.30804 0.88298 0.68675 0.0
H355 H 0.25663 0.78517 0.74842 0.0
H356 H 0.51203 0.69499 0.62057 0.0
H357 H 0.50683 0.81958 0.64089 0.0
H358 H 0.45177 0.87052 0.64862 0.0
H359 H 0.38217 0.89238 0.65578 0.0
Mn360 Mn 0.79739 0.84627 0.23659 0.0
Mn361 Mn 0.70829 0.8853 0.21896 0.0
C362 C 0.76418 0.85056 0.16817 0.0
C363 C 0.83309 0.79279 0.19522 0.0
C364 C 0.77463 0.93938 0.24539 0.0
O365 O 0.7576 0.83227 0.2921 0.0
O366 O 0.69941 0.86196 0.27896 0.0
C367 C 0.68267 0.80993 0.22822 0.0
N368 N 0.67983 0.84631 0.19992 0.0
C369 C 0.59831 0.85578 0.16995 0.0
C370 C 0.58073 0.81623 0.19552 0.0
C371 C 0.64248 0.7862 0.23969 0.0
C372 C 0.64732 0.86752 0.17401 0.0
H373 H 0.71132 0.79835 0.23816 0.0
C374 C 0.71891 0.83678 0.302 0.0
O375 O 0.83967 0.83109 0.19066 0.0
O376 O 0.80402 0.78624 0.2199 0.0
N377 N 0.70588 0.90831 0.16287 0.0
C378 C 0.73453 0.94238 0.14602 0.0
C379 C 0.71498 -0.01151 0.13286 0.0
C380 C 0.63508 -0.0162 0.14551 0.0
C381 C 0.62313 0.93775 0.1589 0.0
C382 C 0.65909 0.90364 0.16496 0.0
H383 H 0.76682 0.93899 0.14822 0.0
O384 O 0.80188 0.85671 0.17101 0.0
O385 O 0.75006 0.85007 0.20298 0.0
O386 O 0.80337 0.91279 0.24513 0.0
O387 O 0.73953 0.92804 0.23882 0.0
C388 C 0.58292 0.92567 0.15563 0.0
C389 C 0.57119 0.88543 0.15832 0.0
H390 H 0.54909 0.80774 0.19247 0.0
H391 H 0.64725 0.76099 0.25822 0.0
H392 H 0.73412 0.01207 0.12086 0.0
H393 H 0.60986 0.0044 0.14212 0.0
H394 H 0.56011 0.948 0.14901 0.0
H395 H 0.53942 0.87832 0.15683 0.0
Mn396 Mn 0.5814 0.29772 0.73651 0.0
Mn397 Mn 0.54755 0.20837 0.71224 0.0
C398 C 0.5771 0.26953 0.66567 0.0
C399 C 0.63515 0.3351 0.69624 0.0
C400 C 0.48931 0.27029 0.7414 0.0
O401 O 0.595 0.25732 0.79149 0.0
O402 O 0.56664 0.19939 0.77516 0.0
C403 C 0.62294 0.18836 0.72963 0.0
N404 N 0.5924 0.1855 0.6949 0.0
C405 C 0.5937 0.10572 0.65996 0.0
C406 C 0.62701 0.08835 0.69203 0.0
C407 C 0.6455 0.14781 0.74472 0.0
C408 C 0.57832 0.15357 0.66385 0.0
H409 H 0.63313 0.21732 0.74007 0.0
C410 C 0.59036 0.21853 0.80053 0.0
O411 O 0.59679 0.34199 0.69213 0.0
O412 O 0.64157 0.30554 0.72028 0.0
N413 N 0.52749 0.20562 0.65432 0.0
C414 C 0.48836 0.2285 0.63955 0.0
C415 C 0.44436 0.2024 0.63114 0.0
C416 C 0.46153 0.12454 0.64526 0.0
C417 C 0.50995 0.11979 0.65411 0.0
C418 C 0.53953 0.16035 0.65595 0.0
H419 H 0.48743 0.26102 0.64035 0.0
O420 O 0.57039 0.30694 0.6712 0.0
O421 O 0.57872 0.25327 0.69958 0.0
O422 O 0.51502 0.29947 0.74662 0.0
O423 O 0.50139 0.23693 0.72927 0.0
C424 C 0.52675 0.08205 0.64732 0.0
C425 C 0.56798 0.07639 0.64524 0.0
H426 H 0.63663 0.05696 0.6893 0.0
H427 H 0.66708 0.15175 0.76771 0.0
H428 H 0.41704 0.21753 0.62134 0.0
H429 H 0.44418 0.09663 0.64454 0.0
H430 H 0.50725 0.05663 0.64134 0.0
H431 H 0.57888 0.04586 0.64168 0.0
Mn432 Mn 0.12145 0.84455 0.69413 0.0
Mn433 Mn 0.21224 0.88156 0.6993 0.0
C434 C 0.1611 0.84946 0.7578 0.0
C435 C 0.09257 0.79314 0.74259 0.0
C436 C 0.14408 0.9371 0.68135 0.0
O437 O 0.15378 0.82438 0.63596 0.0
O438 O 0.21072 0.85876 0.63874 0.0
C439 C 0.25721 0.81544 0.67634 0.0
N440 N 0.24956 0.84509 0.71127 0.0
C441 C 0.32064 0.84712 0.76264 0.0
C442 C 0.34535 0.81329 0.73616 0.0
C443 C 0.29993 0.7932 0.67196 0.0
C444 C 0.2744 0.86077 0.74781 0.0
H445 H 0.23283 0.79691 0.66673 0.0
C446 C 0.19055 0.8299 0.62105 0.0
O447 O 0.08527 0.83132 0.74661 0.0
O448 O 0.11594 0.78659 0.71314 0.0
N449 N 0.21707 0.90369 0.75568 0.0
C450 C 0.18809 0.93802 0.77186 0.0
C451 C 0.20764 -0.01655 0.78665 0.0
C452 C 0.28795 -0.02312 0.77881 0.0
C453 C 0.29942 0.93047 0.7661 0.0
C454 C 0.26309 0.8974 0.75709 0.0
H455 H 0.1559 0.93549 0.76802 0.0
O456 O 0.12399 0.85956 0.75788 0.0
O457 O 0.17342 0.84519 0.72192 0.0
O458 O 0.11498 0.91114 0.68355 0.0
O459 O 0.1787 0.92425 0.68552 0.0
C460 C 0.33717 0.91634 0.77779 0.0
C461 C 0.34536 0.87538 0.7812 0.0
H462 H 0.37685 0.80718 0.74383 0.0
H463 H 0.30736 0.77963 0.64343 0.0
H464 H 0.1884 0.00702 0.79845 0.0
H465 H 0.31343 -0.0034 0.78476 0.0
H466 H 0.35964 0.93753 0.78819 0.0
H467 H 0.37543 0.86667 0.79034 0.0
Mn468 Mn 0.58065 0.62486 0.19503 0.0
Mn469 Mn 0.54698 0.71712 0.20649 0.0
C470 C 0.5766 0.66199 0.26038 0.0
C471 C 0.63224 0.59333 0.24237 0.0
C472 C 0.48916 0.65221 0.18404 0.0
O473 O 0.60035 0.65836 0.13786 0.0
O474 O 0.56784 0.71632 0.14434 0.0
C475 C 0.61651 0.75452 0.1836 0.0
N476 N 0.58719 0.75009 0.21923 0.0
C477 C 0.58743 0.82449 0.26574 0.0
C478 C 0.62074 0.84679 0.23666 0.0
C479 C 0.63867 0.79666 0.17551 0.0
C480 C 0.57263 0.77752 0.25443 0.0
H481 H 0.63307 0.72862 0.17388 0.0
C482 C 0.59521 0.69566 0.12441 0.0
O483 O 0.59392 0.58661 0.24642 0.0
O484 O 0.63871 0.61735 0.21351 0.0
N485 N 0.52629 0.72292 0.26404 0.0
C486 C 0.48998 0.69695 0.28091 0.0
C487 C 0.44512 0.71977 0.29303 0.0
C488 C 0.45634 0.79902 0.28021 0.0
C489 C 0.50363 0.80709 0.26862 0.0
C490 C 0.53509 0.76854 0.26328 0.0
H491 H 0.49073 0.66452 0.27848 0.0
O492 O 0.56608 0.625 0.25927 0.0
O493 O 0.58091 0.67521 0.22515 0.0
O494 O 0.51431 0.62228 0.18252 0.0
O495 O 0.50244 0.68578 0.19295 0.0
C496 C 0.51908 0.84473 0.27864 0.0
C497 C 0.56018 0.85119 0.28287 0.0
H498 H 0.6273 0.87867 0.24192 0.0
H499 H 0.65137 0.80218 0.14656 0.0
H500 H 0.41948 0.70256 0.3039 0.0
H501 H 0.43754 0.82579 0.283 0.0
H502 H 0.49867 0.86872 0.28707 0.0
H503 H 0.56998 0.88136 0.29039 0.0
Mn504 Mn 0.80356 0.08271 0.6963 0.0
Mn505 Mn 0.71159 0.05034 0.71142 0.0
C506 C 0.76913 0.07702 0.76353 0.0
C507 C 0.83514 0.13602 0.74204 0.0
C508 C 0.77443 -0.00834 0.68523 0.0
O509 O 0.76811 0.10176 0.63968 0.0
O510 O 0.7088 0.07252 0.64937 0.0
C511 C 0.68916 0.12557 0.69564 0.0
N512 N 0.68564 0.09338 0.72866 0.0
C513 C 0.60406 0.09084 0.75954 0.0
C514 C 0.58752 0.12508 0.72832 0.0
C515 C 0.64875 0.14763 0.67977 0.0
C516 C 0.65232 0.07693 0.75731 0.0
H517 H 0.71822 0.13777 0.6879 0.0
C518 C 0.72996 0.09816 0.6278 0.0
O519 O 0.84262 0.09789 0.74657 0.0
O520 O 0.81054 0.14131 0.71343 0.0
N521 N 0.70529 0.02828 0.76824 0.0
C522 C 0.72946 -0.0092 0.78503 0.0
C523 C 0.7049 0.94636 0.79487 0.0
C524 C 0.62664 0.95978 0.77859 0.0
C525 C 0.62025 0.00756 0.76749 0.0
C526 C 0.65978 0.03845 0.76516 0.0
H527 H 0.76199 -0.00916 0.78428 0.0
O528 O 0.8067 0.06904 0.76131 0.0
O529 O 0.75556 0.08085 0.72858 0.0
O530 O 0.80483 0.01642 0.68454 0.0
O531 O 0.7405 0.00472 0.6943 0.0
C532 C 0.58177 0.02322 0.77234 0.0
C533 C 0.57471 0.06427 0.77276 0.0
H534 H 0.55571 0.13345 0.72984 0.0
H535 H 0.65294 0.16933 0.6575 0.0
H536 H 0.72094 0.92012 0.806 0.0
H537 H 0.59942 0.94138 0.7795 0.0
H538 H 0.55681 0.00307 0.77807 0.0
H539 H 0.54375 0.07431 0.77485 0.0
Mn540 Mn 0.34776 0.30164 0.19727 0.0
Mn541 Mn 0.3818 0.20972 0.21106 0.0
C542 C 0.35201 0.26563 0.26362 0.0
C543 C 0.29635 0.33459 0.24348 0.0
C544 C 0.43895 0.27462 0.18707 0.0
O545 O 0.3289 0.26682 0.14061 0.0
O546 O 0.3617 0.20921 0.14851 0.0
C547 C 0.31195 0.17322 0.18833 0.0
N548 N 0.34104 0.17752 0.22412 0.0
C549 C 0.34 0.10333 0.27085 0.0
C550 C 0.30686 0.08107 0.24149 0.0
C551 C 0.28978 0.13117 0.18007 0.0
C552 C 0.35511 0.15022 0.25956 0.0
H553 H 0.29582 0.19928 0.17824 0.0
C554 C 0.33459 0.2294 0.12774 0.0
O555 O 0.33469 0.34124 0.24755 0.0
O556 O 0.28984 0.30949 0.21557 0.0
N557 N 0.4023 0.20439 0.26884 0.0
C558 C 0.43937 0.22973 0.28486 0.0
C559 C 0.48429 0.20629 0.29545 0.0
C560 C 0.47179 0.12729 0.28243 0.0
C561 C 0.42402 0.11989 0.27223 0.0
C562 C 0.39285 0.15887 0.26812 0.0
H563 H 0.43883 0.2622 0.28296 0.0
O564 O 0.36211 0.30268 0.26181 0.0
O565 O 0.3479 0.25196 0.22859 0.0
O566 O 0.41361 0.30421 0.18424 0.0
O567 O 0.42619 0.24125 0.19746 0.0
C568 C 0.40832 0.08243 0.28261 0.0
C569 C 0.36722 0.07648 0.28779 0.0
H570 H 0.30007 0.04924 0.24677 0.0
H571 H 0.27734 0.12574 0.15113 0.0
H572 H 0.51022 0.22304 0.30615 0.0
H573 H 0.49035 0.10028 0.28465 0.0
H574 H 0.42863 0.05818 0.29053 0.0
H575 H 0.35725 0.04642 0.2955 0.0
Mn576 Mn 0.2328 0.12943 0.08304 0.0
Mn577 Mn 0.22123 0.21893 0.04407 0.0
C578 C 0.16635 0.16558 0.07776 0.0
C579 C 0.18805 0.09544 0.13564 0.0
C580 C 0.24603 0.15192 -0.01013 0.0
O581 O 0.29014 0.16704 0.09893 0.0
O582 O 0.28012 0.22597 0.07007 0.0
C583 C 0.22747 0.24431 0.12033 0.0
N584 N 0.20156 0.24811 0.0822 0.0
C585 C 0.17631 0.33084 0.0701 0.0
C586 C 0.20003 0.34761 0.11114 0.0
C587 C 0.2391 0.28421 0.14464 0.0
C588 C 0.17874 0.28164 0.05909 0.0
H589 H 0.23611 0.21537 0.13224 0.0
C590 C 0.30165 0.20536 0.09558 0.0
O591 O 0.18447 0.08878 0.09724 0.0
O592 O 0.21355 0.12347 0.14244 0.0
N593 N 0.1662 0.2232 0.01913 0.0
C594 C 0.14764 0.19464 -0.0141 0.0
C595 C 0.13493 0.21379 0.93951 0.0
C596 C 0.15182 0.29305 0.94223 0.0
C597 C 0.16631 0.30528 -0.01205 0.0
C598 C 0.17082 0.26979 0.02273 0.0
H599 H 0.14847 0.16237 -0.01008 0.0
O600 O 0.16758 0.12791 0.07093 0.0
O601 O 0.20181 0.17814 0.07895 0.0
O602 O 0.24229 0.1233 0.0164 0.0
O603 O 0.24263 0.18749 0.00141 0.0
C604 C 0.16482 0.34579 -0.0006 0.0
C605 C 0.16721 0.35803 0.0396 0.0
H606 H 0.19727 0.37927 0.11958 0.0
H607 H 0.25474 0.27877 0.17179 0.0
H608 H 0.12203 0.19468 0.9164 0.0
H609 H 0.14974 0.31791 0.92105 0.0
H610 H 0.15952 0.3685 -0.02337 0.0
H611 H 0.16692 0.38993 0.04627 0.0
Mn612 Mn 0.23348 0.80711 0.84679 0.0
Mn613 Mn 0.22607 0.71578 0.88448 0.0
C614 C 0.16931 0.76732 0.85078 0.0
C615 C 0.1869 0.8369 0.7936 0.0
C616 C 0.2449 0.78411 0.93939 0.0
O617 O 0.29119 0.77391 0.82815 0.0
O618 O 0.28701 0.71724 0.86315 0.0
C619 C 0.25094 0.66987 0.81971 0.0
N620 N 0.21496 0.67815 0.8479 0.0
C621 C 0.16302 0.60752 0.84857 0.0
C622 C 0.1906 0.58228 0.81604 0.0
C623 C 0.25585 0.62691 0.79808 0.0
C624 C 0.1777 0.65378 0.86243 0.0
H625 H 0.26101 0.69388 0.80096 0.0
C626 C 0.30541 0.73707 0.83451 0.0
O627 O 0.18143 0.84363 0.83174 0.0
O628 O 0.2164 0.81349 0.78834 0.0
N629 N 0.1693 0.71094 0.90595 0.0
C630 C 0.15383 0.73919 0.94118 0.0
C631 C 0.14067 0.71885 -0.01313 0.0
C632 C 0.14897 0.6388 -0.02106 0.0
C633 C 0.16029 0.62811 0.93197 0.0
C634 C 0.16797 0.66496 0.89905 0.0
H635 H 0.15704 0.77146 0.9388 0.0
O636 O 0.16926 0.80463 0.85996 0.0
O637 O 0.20512 0.75491 0.84739 0.0
O638 O 0.244 0.81332 0.91348 0.0
O639 O 0.23889 0.74988 0.92655 0.0
C640 C 0.14817 0.59059 0.91763 0.0
C641 C 0.14394 0.58296 0.8766 0.0
H642 H 0.18292 0.5508 0.80991 0.0
H643 H 0.28471 0.61925 0.78528 0.0
H644 H 0.12893 0.73759 0.0108 0.0
H645 H 0.14373 0.61302 -0.00146 0.0
H646 H 0.1381 0.56789 0.93875 0.0
H647 H 0.13455 0.55303 0.86773 0.0
Mn648 Mn 0.62299 0.73387 0.34743 0.0
Mn649 Mn 0.71417 0.7261 0.38526 0.0
C650 C 0.6621 0.66947 0.35202 0.0
C651 C 0.59196 0.68648 0.29581 0.0
C652 C 0.64568 0.74595 0.4397 0.0
O653 O 0.6568 0.79138 0.32844 0.0
O654 O 0.71336 0.78694 0.36347 0.0
C655 C 0.76162 0.75052 0.32073 0.0
N656 N 0.75213 0.71483 0.349 0.0
C657 C 0.82021 0.65961 0.34821 0.0
C658 C 0.84598 0.68579 0.315 0.0
C659 C 0.80423 0.75321 0.29793 0.0
C660 C 0.775 0.67646 0.36292 0.0
H661 H 0.73794 0.7615 0.30217 0.0
C662 C 0.69373 0.80549 0.33475 0.0
O663 O 0.58522 0.68229 0.3341 0.0
O664 O 0.61638 0.71496 0.28943 0.0
N665 N 0.71839 0.66925 0.40715 0.0
C666 C 0.69056 0.65463 0.44303 0.0
C667 C 0.7114 0.64234 0.48875 0.0
C668 C 0.79139 0.65003 0.47972 0.0
C669 C 0.8015 0.66018 0.43227 0.0
C670 C 0.7642 0.6674 0.39973 0.0
H671 H 0.65823 0.65768 0.44088 0.0
O672 O 0.62495 0.66999 0.36187 0.0
O673 O 0.67499 0.70506 0.34814 0.0
O674 O 0.61653 0.74569 0.41377 0.0
O675 O 0.67977 0.73917 0.42691 0.0
C676 C 0.83834 0.64651 0.41741 0.0
C677 C 0.84467 0.64039 0.37632 0.0
H678 H 0.87694 0.67658 0.30825 0.0
H679 H 0.813 0.78178 0.28514 0.0
H680 H 0.69298 0.63037 0.51273 0.0
H681 H 0.81739 0.64472 0.4991 0.0
H682 H 0.86124 0.63641 0.43831 0.0
H683 H 0.87402 0.62956 0.36708 0.0
Mn684 Mn 0.69486 0.12381 0.84911 0.0
Mn685 Mn 0.69983 0.21513 0.886 0.0
C686 C 0.7579 0.16389 0.85353 0.0
C687 C 0.74454 0.09327 0.79878 0.0
C688 C 0.68111 0.14633 0.94074 0.0
O689 O 0.63596 0.15644 0.82962 0.0
O690 O 0.63923 0.21372 0.86326 0.0
C691 C 0.67561 0.26306 0.82179 0.0
N692 N 0.71106 0.25369 0.85036 0.0
C693 C 0.76554 0.32235 0.85085 0.0
C694 C 0.73949 0.34811 0.81753 0.0
C695 C 0.67273 0.30583 0.79927 0.0
C696 C 0.74898 0.2769 0.86499 0.0
H697 H 0.66495 0.23935 0.80317 0.0
C698 C 0.62132 0.19352 0.83453 0.0
O699 O 0.74743 0.0863 0.83712 0.0
O700 O 0.71629 0.118 0.792 0.0
N701 N 0.75651 0.21967 0.90804 0.0
C702 C 0.7722 0.19095 0.94278 0.0
C703 C 0.78609 0.21072 -0.01155 0.0
C704 C 0.77829 0.29094 -0.01858 0.0
C705 C 0.7666 0.30212 0.93461 0.0
C706 C 0.75821 0.26559 0.90157 0.0
H707 H 0.76863 0.15873 0.94026 0.0
O708 O 0.75812 0.12713 0.86477 0.0
O709 O 0.72212 0.17629 0.84921 0.0
O710 O 0.68273 0.11707 0.91509 0.0
O711 O 0.68665 0.18062 0.92774 0.0
C712 C 0.77967 0.33932 0.92021 0.0
C713 C 0.78474 0.34659 0.87916 0.0
H714 H 0.7485 0.37916 0.81105 0.0
H715 H 0.64433 0.31428 0.78583 0.0
H716 H 0.79819 0.19169 0.01196 0.0
H717 H 0.78407 0.31652 0.00115 0.0
H718 H 0.79018 0.36181 0.94135 0.0
H719 H 0.79516 0.37616 0.87026 0.0
Mn720 Mn 0.30269 0.19473 0.35052 0.0
Mn721 Mn 0.2105 0.20811 0.38445 0.0
C722 C 0.2661 0.26056 0.35368 0.0
C723 C 0.3361 0.24144 0.29917 0.0
C724 C 0.27505 0.18457 0.44185 0.0
O725 O 0.26791 0.1379 0.33173 0.0
O726 O 0.21054 0.14554 0.36499 0.0
C727 C 0.17048 0.18321 0.31666 0.0
N728 N 0.17726 0.22012 0.34395 0.0
C729 C 0.10589 0.27102 0.34058 0.0
C730 C 0.08191 0.24166 0.30889 0.0
C731 C 0.12799 0.17661 0.29458 0.0
C732 C 0.152 0.25758 0.35641 0.0
H733 H 0.19544 0.17231 0.29948 0.0
C734 C 0.23053 0.12492 0.33765 0.0
O735 O 0.34229 0.24547 0.33761 0.0
O736 O 0.31127 0.21342 0.29261 0.0
N737 N 0.20574 0.26616 0.4045 0.0
C738 C 0.23061 0.28135 0.44233 0.0
C739 C 0.20637 0.29177 0.48696 0.0
C740 C 0.12747 0.28043 0.47229 0.0
C741 C 0.12094 0.27119 0.42441 0.0
C742 C 0.16045 0.26662 0.39407 0.0
H743 H 0.26306 0.27887 0.44242 0.0
O744 O 0.30293 0.25907 0.36469 0.0
O745 O 0.2525 0.22548 0.34985 0.0
O746 O 0.30473 0.18148 0.41659 0.0
O747 O 0.24194 0.1952 0.42889 0.0
C748 C 0.08435 0.28368 0.40814 0.0
C749 C 0.07983 0.29009 0.36707 0.0
H750 H 0.05037 0.24849 0.30201 0.0
H751 H 0.1208 0.14723 0.28332 0.0
H752 H 0.22268 0.30158 0.51357 0.0
H753 H 0.1 0.28289 0.49014 0.0
H754 H 0.06005 0.29251 0.42802 0.0
H755 H 0.05049 0.29967 0.35652 0.0
Mn756 Mn 0.69683 0.79567 0.08101 0.0
Mn757 Mn 0.71069 0.70577 0.04251 0.0
C758 C 0.76367 0.76012 0.07671 0.0
C759 C 0.74105 0.83051 0.13378 0.0
C760 C 0.6844 0.77202 -0.012 0.0
O761 O 0.63997 0.75766 0.09628 0.0
O762 O 0.65107 0.69874 0.06761 0.0
C763 C 0.70324 0.68121 0.11875 0.0
N764 N 0.72957 0.67692 0.08097 0.0
C765 C 0.75479 0.59408 0.0699 0.0
C766 C 0.73062 0.57776 0.11103 0.0
C767 C 0.69137 0.64169 0.14338 0.0
C768 C 0.75261 0.64315 0.0584 0.0
H769 H 0.69429 0.71026 0.13016 0.0
C770 C 0.62885 0.71931 0.09273 0.0
O771 O 0.74463 0.837 0.09533 0.0
O772 O 0.71583 0.80217 0.14062 0.0
N773 N 0.76658 0.70145 0.01868 0.0
C774 C 0.78594 0.72986 -0.0143 0.0
C775 C 0.79936 0.71065 0.93942 0.0
C776 C 0.78202 0.63139 0.94178 0.0
C777 C 0.76674 0.61927 -0.01248 0.0
C778 C 0.76179 0.65487 0.02224 0.0
H779 H 0.78497 0.76215 -0.01042 0.0
O780 O 0.76215 0.79771 0.06948 0.0
O781 O 0.72845 0.74721 0.07729 0.0
O782 O 0.68668 0.80103 0.01432 0.0
O783 O 0.69047 0.73692 -0.00041 0.0
C784 C 0.7676 0.57878 -0.00073 0.0
C785 C 0.76425 0.56672 0.03956 0.0
H786 H 0.73304 0.54617 0.11981 0.0
H787 H 0.67539 0.64741 0.17034 0.0
H788 H 0.81198 0.72986 0.91605 0.0
H789 H 0.78407 0.60665 0.92039 0.0
H790 H 0.77316 0.55592 -0.02329 0.0
H791 H 0.76424 0.53486 0.04636 0.0
Mn792 Mn 0.63308 0.20197 0.57904 0.0
Mn793 Mn 0.72485 0.2103 0.54328 0.0
C794 C 0.67249 0.2664 0.57695 0.0
C795 C 0.59786 0.24844 0.63019 0.0
C796 C 0.65846 0.18594 0.48765 0.0
O797 O 0.66883 0.14356 0.5966 0.0
O798 O 0.72953 0.15228 0.57045 0.0
C799 C 0.75247 0.20511 0.61974 0.0
N800 N 0.75604 0.22877 0.58024 0.0
C801 C 0.83868 0.25411 0.56692 0.0
C802 C 0.85552 0.2335 0.6098 0.0
C803 C 0.79226 0.19624 0.64533 0.0
C804 C 0.78956 0.25036 0.55592 0.0
H805 H 0.72357 0.19666 0.63191 0.0
C806 C 0.70734 0.13155 0.59517 0.0
O807 O 0.59253 0.25216 0.59164 0.0
O808 O 0.62455 0.22201 0.63703 0.0
N809 N 0.73044 0.26518 0.51792 0.0
C810 C 0.70148 0.28547 0.48588 0.0
C811 C 0.71995 0.29968 0.43945 0.0
C812 C 0.79911 0.28152 0.43998 0.0
C813 C 0.81202 0.26516 0.48499 0.0
C814 C 0.77708 0.25965 0.52023 0.0
H815 H 0.66926 0.28463 0.49029 0.0
O816 O 0.63547 0.26671 0.5671 0.0
O817 O 0.684 0.2306 0.57834 0.0
O818 O 0.62906 0.19176 0.51272 0.0
O819 O 0.69358 0.18905 0.50042 0.0
C820 C 0.85276 0.26595 0.49595 0.0
C821 C 0.86554 0.26308 0.53605 0.0
H822 H 0.8869 0.23763 0.61883 0.0
H823 H 0.7862 0.18597 0.67492 0.0
H824 H 0.7004 0.31279 0.4166 0.0
H825 H 0.82352 0.28385 0.41827 0.0
H826 H 0.87519 0.27166 0.47299 0.0
H827 H 0.89749 0.26377 0.54246 0.0
Mn828 Mn 0.2939 0.73126 0.58082 0.0
Mn829 Mn 0.2047 0.71191 0.54238 0.0
C830 C 0.26141 0.66217 0.57706 0.0
C831 C 0.33025 0.69023 0.63443 0.0
C832 C 0.27007 0.74058 0.48776 0.0
O833 O 0.25393 0.78651 0.59468 0.0
O834 O 0.1957 0.77226 0.56574 0.0
C835 C 0.18187 0.72122 0.61881 0.0
N836 N 0.17758 0.69305 0.58231 0.0
C837 C 0.09519 0.66542 0.57409 0.0
C838 C 0.07899 0.69122 0.61415 0.0
C839 C 0.14238 0.73357 0.64343 0.0
C840 C 0.14408 0.66809 0.56155 0.0
H841 H 0.21087 0.73128 0.62937 0.0
C842 C 0.21521 0.79602 0.59037 0.0
O843 O 0.33697 0.68591 0.59607 0.0
O844 O 0.30074 0.71435 0.64094 0.0
N845 N 0.20155 0.65539 0.51965 0.0
C846 C 0.22901 0.63778 0.48496 0.0
C847 C 0.20849 0.62626 0.43878 0.0
C848 C 0.12916 0.64253 0.44447 0.0
C849 C 0.11835 0.6555 0.49115 0.0
C850 C 0.15498 0.65925 0.52498 0.0
H851 H 0.2614 0.63875 0.48794 0.0
O852 O 0.29905 0.66552 0.57072 0.0
O853 O 0.24715 0.69682 0.57682 0.0
O854 O 0.29902 0.74132 0.51423 0.0
O855 O 0.23557 0.73146 0.4991 0.0
C856 C 0.07825 0.65347 0.50391 0.0
C857 C 0.06728 0.65544 0.54452 0.0
H858 H 0.04741 0.68901 0.62314 0.0
H859 H 0.14774 0.752 0.66893 0.0
H860 H 0.22703 0.61482 0.41428 0.0
H861 H 0.10375 0.64117 0.42376 0.0
H862 H 0.05486 0.64827 0.48182 0.0
H863 H 0.03558 0.65495 0.5521 0.0
Mn864 Mn 0.85002 0.70287 0.79614 0.0
Mn865 Mn 0.88929 0.69919 0.70349 0.0
C866 C 0.85689 0.76735 0.75568 0.0
C867 C 0.79804 0.74726 0.8337 0.0
C868 C 0.94217 0.68205 0.77568 0.0
O869 O 0.83342 0.64448 0.76151 0.0
O870 O 0.86021 0.64726 0.70067 0.0
C871 C 0.80846 0.7007 0.68094 0.0
N872 N 0.84725 0.72506 0.67932 0.0
C873 C 0.85584 0.76512 0.60303 0.0
C874 C 0.81658 0.74004 0.58145 0.0
C875 C 0.78248 0.69496 0.64089 0.0
C876 C 0.86697 0.75489 0.65015 0.0
H877 H 0.79623 0.69142 0.70941 0.0
C878 C 0.83639 0.62988 0.72413 0.0
O879 O 0.83648 0.74998 0.83963 0.0
O880 O 0.79156 0.72455 0.80384 0.0
N881 N 0.92258 0.7401 0.68114 0.0
C882 C -0.03165 0.74066 0.68199 0.0
C883 C -0.00585 0.81679 0.67282 0.0
C884 C 0.95209 0.84506 0.66162 0.0
C885 C 0.9062 0.8223 0.65608 0.0
C886 C 0.89583 0.7741 0.66723 0.0
H887 H -0.01599 0.71204 0.68369 0.0
O888 O 0.86239 0.76653 0.79353 0.0
O889 O 0.85654 0.73081 0.74405 0.0
O890 O 0.91521 0.69322 0.80171 0.0
O891 O 0.93207 0.67638 0.73853 0.0
C892 C 0.88393 0.83428 0.62101 0.0
C893 C 0.86438 0.8062 0.59356 0.0
H894 H 0.80527 0.75012 0.55221 0.0
H895 H 0.75195 0.68759 0.64716 0.0
H896 H 0.02402 0.83053 0.6737 0.0
H897 H 0.95607 0.8759 0.65197 0.0
H898 H 0.88847 0.86457 0.60995 0.0
H899 H 0.85212 0.81818 0.56585 0.0
Mn900 Mn 0.72714 0.35012 0.29516 0.0
Mn901 Mn 0.7303 0.39012 0.20265 0.0
C902 C 0.66248 0.35741 0.25533 0.0
C903 C 0.68282 0.29826 0.33278 0.0
C904 C 0.74658 0.4425 0.27504 0.0
O905 O 0.78549 0.33343 0.26034 0.0
O906 O 0.78294 0.36129 0.19996 0.0
C907 C 0.72966 0.30899 0.18162 0.0
N908 N 0.70515 0.34764 0.17884 0.0
C909 C 0.66532 0.35393 0.10228 0.0
C910 C 0.69067 0.31425 0.0819 0.0
C911 C 0.73577 0.28202 0.14237 0.0
C912 C 0.67545 0.36645 0.14902 0.0
H913 H 0.73842 0.29725 0.21044 0.0
C914 C 0.80024 0.33681 0.22303 0.0
O915 O 0.68017 0.33668 0.33879 0.0
O916 O 0.70538 0.29174 0.30278 0.0
N917 N 0.68857 0.42299 0.17974 0.0
C918 C 0.68597 0.46874 0.18102 0.0
C919 C 0.60866 0.49139 0.17255 0.0
C920 C 0.58218 0.44829 0.16102 0.0
C921 C 0.60691 0.40349 0.1549 0.0
C922 C 0.65559 0.39509 0.16562 0.0
H923 H 0.71392 0.48558 0.18249 0.0
O924 O 0.66356 0.36266 0.29322 0.0
O925 O 0.69891 0.35717 0.24333 0.0
O926 O 0.73628 0.41514 0.30094 0.0
O927 O 0.75248 0.43295 0.23777 0.0
C928 C 0.59553 0.38071 0.11997 0.0
C929 C 0.62408 0.36159 0.09269 0.0
H930 H 0.68079 0.30215 0.05291 0.0
H931 H 0.74405 0.2519 0.14929 0.0
H932 H 0.59364 0.52063 0.17378 0.0
H933 H 0.55113 0.45104 0.15161 0.0
H934 H 0.56506 0.38428 0.10899 0.0
H935 H 0.61232 0.34862 0.06521 0.0
Mn936 Mn 0.07884 0.22823 0.8039 0.0
Mn937 Mn 0.04013 0.2351 0.71097 0.0
C938 C 0.06993 0.16519 0.76353 0.0
C939 C 0.1322 0.18241 0.83712 0.0
C940 C -0.01404 0.24804 0.78339 0.0
O941 O 0.09872 0.28607 0.77256 0.0
O942 O 0.06567 0.28943 0.71524 0.0
C943 C 0.11517 0.24681 0.67665 0.0
N944 N 0.08332 0.21447 0.68409 0.0
C945 C 0.08046 0.15899 0.61757 0.0
C946 C 0.11138 0.18645 0.58882 0.0
C947 C 0.13694 0.24976 0.63369 0.0
C948 C 0.06905 0.17549 0.6623 0.0
H949 H 0.13249 0.257 0.70153 0.0
C950 C 0.09294 0.30371 0.73724 0.0
O951 O 0.09397 0.17839 0.8437 0.0
O952 O 0.13738 0.20797 0.80941 0.0
N953 N 0.00987 0.19213 0.68855 0.0
C954 C 0.96402 0.19081 0.68801 0.0
C955 C 0.93951 0.11385 0.68387 0.0
C956 C -0.01777 0.08533 0.67672 0.0
C957 C 0.02817 0.10821 0.6716 0.0
C958 C 0.03789 0.15775 0.67878 0.0
H959 H 0.94789 0.21932 0.68909 0.0
O960 O 0.06483 0.16543 0.8016 0.0
O961 O 0.0722 0.20178 0.75127 0.0
O962 O 0.01324 0.23837 0.80984 0.0
O963 O -0.00407 0.25275 0.74623 0.0
C964 C 0.05259 0.09227 0.64017 0.0
C965 C 0.07295 0.11745 0.6113 0.0
H966 H 0.11728 0.17727 0.55774 0.0
H967 H 0.14848 0.2788 0.6258 0.0
H968 H 0.90979 0.09981 0.68519 0.0
H969 H -0.02097 0.05369 0.66976 0.0
H970 H 0.04855 0.06098 0.63207 0.0
H971 H 0.08527 0.10346 0.58456 0.0
Mn972 Mn 0.19933 0.57801 0.29179 0.0
Mn973 Mn 0.19713 0.53689 0.19949 0.0
C974 C 0.26439 0.57014 0.25273 0.0
C975 C 0.24261 0.62986 0.33068 0.0
C976 C 0.18024 0.48535 0.27233 0.0
O977 O 0.14129 0.59318 0.25625 0.0
O978 O 0.1445 0.56568 0.19582 0.0
C979 C 0.19806 0.61809 0.17853 0.0
N980 N 0.22222 0.57921 0.17538 0.0
C981 C 0.26193 0.57324 0.09873 0.0
C982 C 0.23692 0.61336 0.0787 0.0
C983 C 0.19219 0.64551 0.13947 0.0
C984 C 0.25162 0.56036 0.14534 0.0
H985 H 0.18932 0.62953 0.20754 0.0
C986 C 0.12695 0.58994 0.21893 0.0
O987 O 0.24463 0.59139 0.33654 0.0
O988 O 0.22166 0.63705 0.29942 0.0
N989 N 0.23883 0.5037 0.17644 0.0
C990 C 0.24217 0.45801 0.17877 0.0
C991 C 0.31993 0.43648 0.17146 0.0
C992 C 0.34578 0.47976 0.15913 0.0
C993 C 0.32035 0.524 0.15182 0.0
C994 C 0.27148 0.53178 0.16192 0.0
H995 H 0.21451 0.44074 0.18032 0.0
O996 O 0.26288 0.5656 0.29067 0.0
O997 O 0.22814 0.57013 0.24031 0.0
O998 O 0.1902 0.51302 0.29807 0.0
O999 O 0.17469 0.49444 0.23489 0.0
C1000 C 0.33172 0.54655 0.11673 0.0
C1001 C 0.30321 0.56553 0.08927 0.0
H1002 H 0.24691 0.62564 0.04982 0.0
H1003 H 0.18417 0.67569 0.14665 0.0
H1004 H 0.33544 0.40753 0.17346 0.0
H1005 H 0.37696 0.47734 0.15004 0.0
H1006 H 0.36227 0.54313 0.10593 0.0
H1007 H 0.31509 0.57853 0.06186 0.0
Mn1008 Mn 0.8485 0.23399 0.13047 0.0
Mn1009 Mn 0.88083 0.23271 0.22396 0.0
C1010 C 0.85698 0.1668 0.16576 0.0
C1011 C 0.79465 0.19066 0.0944 0.0
C1012 C 0.94014 0.2504 0.15818 0.0
O1013 O 0.82963 0.29202 0.16396 0.0
O1014 O 0.855 0.28738 0.22511 0.0
C1015 C 0.80062 0.23734 0.2381 0.0
N1016 N 0.83429 0.20676 0.24011 0.0
C1017 C 0.83499 0.16553 0.31556 0.0
C1018 C 0.8016 0.19702 0.33705 0.0
C1019 C 0.77725 0.2489 0.27836 0.0
C1020 C 0.84806 0.17343 0.26918 0.0
H1021 H 0.78944 0.24727 0.20942 0.0
C1022 C 0.83202 0.30604 0.20153 0.0
O1023 O 0.83306 0.18514 0.08955 0.0
O1024 O 0.78931 0.21708 0.12147 0.0
N1025 N 0.90969 0.18928 0.24587 0.0
C1026 C 0.95546 0.18847 0.24844 0.0
C1027 C -0.01992 0.11337 0.26356 0.0
C1028 C 0.93735 0.08531 0.27224 0.0
C1029 C 0.89102 0.10788 0.27225 0.0
C1030 C 0.88126 0.15564 0.2581 0.0
H1031 H -0.02884 0.21694 0.24816 0.0
O1032 O 0.8612 0.17 0.12763 0.0
O1033 O 0.85367 0.20263 0.17974 0.0
O1034 O 0.91461 0.24216 0.12948 0.0
O1035 O 0.92762 0.2545 0.19473 0.0
C1036 C 0.86532 0.09661 0.30495 0.0
C1037 C 0.84302 0.12562 0.32876 0.0
H1038 H 0.79263 0.19252 0.36832 0.0
H1039 H 0.75679 0.27184 0.27471 0.0
H1040 H 0.0099 0.09974 0.26642 0.0
H1041 H 0.94058 0.05499 0.28365 0.0
H1042 H 0.8694 0.06702 0.31795 0.0
H1043 H 0.8296 0.11568 0.35674 0.0
Mn1044 Mn 0.19362 0.34496 0.63883 0.0
Mn1045 Mn 0.20044 0.38037 0.73024 0.0
C1046 C 0.26333 0.35168 0.67018 0.0
C1047 C 0.23229 0.29123 0.59839 0.0
C1048 C 0.17944 0.43778 0.66453 0.0
O1049 O 0.13666 0.33063 0.67635 0.0
O1050 O 0.14648 0.35447 0.73742 0.0
C1051 C 0.19854 0.29995 0.74182 0.0
N1052 N 0.228 0.33462 0.74461 0.0
C1053 C 0.26942 0.33546 0.82016 0.0
C1054 C 0.23907 0.29987 0.84115 0.0
C1055 C 0.18817 0.27499 0.78134 0.0
C1056 C 0.26097 0.34903 0.77361 0.0
H1057 H 0.18781 0.29029 0.7129 0.0
C1058 C 0.12507 0.33324 0.71475 0.0
O1059 O 0.2365 0.32971 0.5931 0.0
O1060 O 0.21165 0.28438 0.63028 0.0
N1061 N 0.24438 0.40953 0.74993 0.0
C1062 C 0.24455 0.45515 0.7527 0.0
C1063 C 0.31944 0.48079 0.76671 0.0
C1064 C 0.34829 0.4384 0.77483 0.0
C1065 C 0.32636 0.39176 0.7751 0.0
C1066 C 0.27865 0.38154 0.76153 0.0
H1067 H 0.21578 0.47038 0.75311 0.0
O1068 O 0.25789 0.35564 0.63237 0.0
O1069 O 0.2281 0.35102 0.68569 0.0
O1070 O 0.18637 0.41137 0.63621 0.0
O1071 O 0.1764 0.42616 0.70143 0.0
C1072 C 0.33823 0.36606 0.80774 0.0
C1073 C 0.30985 0.34328 0.83209 0.0
H1074 H 0.24594 0.28806 0.87105 0.0
H1075 H 0.17046 0.2495 0.77553 0.0
H1076 H 0.33261 0.5108 0.76953 0.0
H1077 H 0.37871 0.44201 0.78585 0.0
H1078 H 0.36806 0.37022 0.82018 0.0
H1079 H 0.32069 0.3294 0.85949 0.0
Mn1080 Mn 0.07918 0.694 0.12868 0.0
Mn1081 Mn 0.04823 0.69442 0.22287 0.0
C1082 C 0.0724 0.76046 0.16521 0.0
C1083 C 0.13312 0.73755 0.09296 0.0
C1084 C -0.01204 0.67754 0.15783 0.0
O1085 O 0.09783 0.63548 0.1607 0.0
O1086 O 0.07313 0.63959 0.22215 0.0
C1087 C 0.1274 0.68763 0.24063 0.0
N1088 N 0.09473 0.71948 0.24001 0.0
C1089 C 0.09308 0.76417 0.31376 0.0
C1090 C 0.12479 0.73274 0.33739 0.0
C1091 C 0.14915 0.6775 0.28214 0.0
C1092 C 0.08092 0.75458 0.26737 0.0
H1093 H 0.13931 0.67611 0.21294 0.0
C1094 C 0.09542 0.62096 0.19797 0.0
O1095 O 0.09473 0.74359 0.08865 0.0
O1096 O 0.13845 0.71032 0.11919 0.0
N1097 N 0.02 0.73821 0.24411 0.0
C1098 C -0.02558 0.73808 0.24798 0.0
C1099 C 0.94852 0.81278 0.26292 0.0
C1100 C -0.00923 0.84191 0.26992 0.0
C1101 C 0.03757 0.82038 0.26888 0.0
C1102 C 0.04804 0.77247 0.25519 0.0
H1103 H 0.95926 0.70928 0.24779 0.0
O1104 O 0.06704 0.75801 0.12715 0.0
O1105 O 0.07563 0.7244 0.17868 0.0
O1106 O 0.01294 0.68618 0.12876 0.0
O1107 O 0.00109 0.67332 0.19403 0.0
C1108 C 0.06332 0.83276 0.30103 0.0
C1109 C 0.08517 0.80441 0.32582 0.0
H1110 H 0.13138 0.73698 0.36934 0.0
H1111 H 0.16313 0.64981 0.28362 0.0
H1112 H 0.91846 0.82574 0.26632 0.0
H1113 H -0.01284 0.87233 0.28096 0.0
H1114 H 0.05909 0.86266 0.31327 0.0
H1115 H 0.09812 0.81497 0.35378 0.0
Mn1116 Mn 0.7352 0.58107 0.63115 0.0
Mn1117 Mn 0.73228 0.55031 0.72538 0.0
C1118 C 0.66756 0.57353 0.66592 0.0
C1119 C 0.69262 0.63481 0.59393 0.0
C1120 C 0.7512 0.49019 0.66104 0.0
O1121 O 0.79269 0.59983 0.66508 0.0
O1122 O 0.78686 0.57578 0.72671 0.0
C1123 C 0.73695 0.63027 0.73877 0.0
N1124 N 0.70599 0.597 0.74042 0.0
C1125 C 0.66404 0.59641 0.81548 0.0
C1126 C 0.69574 0.62924 0.83737 0.0
C1127 C 0.74847 0.6532 0.77926 0.0
C1128 C 0.6722 0.58347 0.76912 0.0
H1129 H 0.74744 0.64121 0.71018 0.0
C1130 C 0.80597 0.59802 0.70291 0.0
O1131 O 0.6866 0.59639 0.58981 0.0
O1132 O 0.71919 0.64023 0.62081 0.0
N1133 N 0.68843 0.52188 0.74666 0.0
C1134 C 0.68807 0.47626 0.75043 0.0
C1135 C 0.6131 0.45129 0.76558 0.0
C1136 C 0.58451 0.49392 0.77291 0.0
C1137 C 0.60662 0.54043 0.77197 0.0
C1138 C 0.65443 0.55028 0.75794 0.0
H1139 H 0.71674 0.46087 0.75085 0.0
O1140 O 0.67106 0.56894 0.62786 0.0
O1141 O 0.70327 0.57679 0.68015 0.0
O1142 O 0.74313 0.51507 0.63174 0.0
O1143 O 0.75468 0.50326 0.69739 0.0
C1144 C 0.59505 0.56646 0.80432 0.0
C1145 C 0.62396 0.58865 0.82836 0.0
H1146 H 0.69127 0.63787 0.86875 0.0
H1147 H 0.77215 0.67285 0.7761 0.0
H1148 H 0.59979 0.42142 0.76914 0.0
H1149 H 0.55414 0.49069 0.78419 0.0
H1150 H 0.56534 0.56251 0.81712 0.0
H1151 H 0.61385 0.6021 0.85627 0.0
Mn1152 Mn 0.79016 0.85239 0.69436 0.0
Mn1153 Mn 0.69875 0.8939 0.69459 0.0
C1154 C 0.75405 0.86226 0.76129 0.0
C1155 C 0.83001 0.80014 0.73581 0.0
C1156 C 0.76979 0.94589 0.67737 0.0
O1157 O 0.75416 0.83709 0.63695 0.0
O1158 O 0.69447 0.86603 0.6409 0.0
C1159 C 0.68258 0.81285 0.69423 0.0
N1160 N 0.67729 0.85043 0.71981 0.0
C1161 C 0.59958 0.85234 0.75726 0.0
C1162 C 0.58167 0.81272 0.73004 0.0
C1163 C 0.64476 0.78497 0.6854 0.0
C1164 C 0.64589 0.86712 0.749 0.0
H1165 H 0.7122 0.80234 0.68654 0.0
C1166 C 0.71685 0.84134 0.62277 0.0
O1167 O 0.83515 0.83872 0.7384 0.0
O1168 O 0.79805 0.79236 0.71538 0.0
N1169 N 0.67558 0.92592 0.73712 0.0
C1170 C 0.6778 -0.02833 0.74145 0.0
C1171 C 0.66635 -0.00814 0.81883 0.0
C1172 C 0.65295 0.94822 0.84356 0.0
C1173 C 0.64735 0.9042 0.81734 0.0
C1174 C 0.65983 0.89706 0.76885 0.0
H1175 H 0.67876 -0.0105 0.71419 0.0
O1176 O 0.79212 0.8647 0.75819 0.0
O1177 O 0.74044 0.86177 0.72538 0.0
O1178 O 0.79589 0.91789 0.68588 0.0
O1179 O 0.73243 0.93693 0.672 0.0
C1180 C 0.61273 0.8804 0.82734 0.0
C1181 C 0.58766 0.85983 0.79786 0.0
H1182 H 0.55257 0.79957 0.73788 0.0
H1183 H 0.65271 0.7569 0.67282 0.0
H1184 H 0.66691 0.0206 0.83483 0.0
H1185 H 0.64229 0.95021 0.87428 0.0
H1186 H 0.60045 0.88355 0.85737 0.0
H1187 H 0.56024 0.8458 0.80845 0.0
Mn1188 Mn 0.5778 0.29013 0.19483 0.0
Mn1189 Mn 0.53655 0.19847 0.19611 0.0
C1190 C 0.56796 0.25448 0.26185 0.0
C1191 C 0.62981 0.33033 0.23581 0.0
C1192 C 0.48447 0.26967 0.17852 0.0
O1193 O 0.59291 0.25359 0.1379 0.0
O1194 O 0.56384 0.19397 0.14228 0.0
C1195 C 0.61754 0.18172 0.19499 0.0
N1196 N 0.58041 0.17729 0.22125 0.0
C1197 C 0.57842 0.10041 0.26022 0.0
C1198 C 0.61731 0.08145 0.23253 0.0
C1199 C 0.64489 0.14345 0.18623 0.0
C1200 C 0.56405 0.14668 0.25136 0.0
H1201 H 0.62834 0.21116 0.18717 0.0
C1202 C 0.58846 0.21625 0.124 0.0
O1203 O 0.59121 0.33544 0.23844 0.0
O1204 O 0.63773 0.29815 0.21578 0.0
N1205 N 0.50494 0.17498 0.23884 0.0
C1206 C 0.45924 0.17671 0.24325 0.0
C1207 C 0.43954 0.16822 0.32132 0.0
C1208 C 0.48357 0.15629 0.34619 0.0
C1209 C 0.52746 0.15008 0.31981 0.0
C1210 C 0.53409 0.16086 0.27094 0.0
H1211 H 0.44131 0.17786 0.21598 0.0
O1212 O 0.56549 0.29251 0.25863 0.0
O1213 O 0.56848 0.24063 0.2261 0.0
O1214 O 0.5125 0.29584 0.18638 0.0
O1215 O 0.49327 0.23213 0.17374 0.0
C1216 C 0.55151 0.11574 0.33046 0.0
C1217 C 0.57156 0.0897 0.30132 0.0
H1218 H 0.63041 0.05242 0.24077 0.0
H1219 H 0.67294 0.15121 0.17364 0.0
H1220 H 0.41089 0.16949 0.33745 0.0
H1221 H 0.48195 0.14683 0.37731 0.0
H1222 H 0.54879 0.10434 0.36087 0.0
H1223 H 0.58561 0.06251 0.31243 0.0
Mn1224 Mn 0.12574 0.07682 0.69702 0.0
Mn1225 Mn 0.21931 0.03909 0.69054 0.0
C1226 C 0.16731 0.07018 0.76037 0.0
C1227 C 0.09158 0.12992 0.74189 0.0
C1228 C 0.14727 -0.01593 0.67841 0.0
O1229 O 0.15603 0.09591 0.63847 0.0
O1230 O 0.21417 0.06405 0.63639 0.0
C1231 C 0.25568 0.11299 0.67696 0.0
N1232 N 0.24701 0.08211 0.71013 0.0
C1233 C 0.31251 0.07987 0.76712 0.0
C1234 C 0.34203 0.10976 0.73951 0.0
C1235 C 0.29907 0.1342 0.6745 0.0
C1236 C 0.26796 0.06845 0.75 0.0
H1237 H 0.23134 0.13035 0.66544 0.0
C1238 C 0.19162 0.09037 0.62137 0.0
O1239 O 0.08692 0.09157 0.74742 0.0
O1240 O 0.11809 0.13565 0.71501 0.0
N1241 N 0.24155 0.00944 0.73385 0.0
C1242 C 0.24235 0.96365 0.73536 0.0
C1243 C 0.24678 0.93947 0.81244 0.0
C1244 C 0.25364 -0.01775 0.84084 0.0
C1245 C 0.25838 0.02812 0.81779 0.0
C1246 C 0.2512 0.03764 0.76808 0.0
H1247 H 0.24145 0.94739 0.70692 0.0
O1248 O 0.12933 0.0646 0.76044 0.0
O1249 O 0.17912 0.07192 0.72351 0.0
O1250 O 0.12067 0.011 0.68838 0.0
O1251 O 0.18419 -0.00545 0.67345 0.0
C1252 C 0.28942 0.05276 0.8339 0.0
C1253 C 0.31838 0.07291 0.80881 0.0
H1254 H 0.37286 0.11576 0.74941 0.0
H1255 H 0.30778 0.14629 0.64571 0.0
H1256 H 0.24571 0.9098 0.82661 0.0
H1257 H 0.26061 -0.02081 0.87252 0.0
H1258 H 0.29725 0.04897 0.86531 0.0
H1259 H 0.34502 0.08529 0.82289 0.0
Mn1260 Mn 0.34952 0.63723 0.19308 0.0
Mn1261 Mn 0.39062 0.72819 0.19511 0.0
C1262 C 0.35852 0.67236 0.26081 0.0
C1263 C 0.29716 0.59699 0.23326 0.0
C1264 C 0.44313 0.65728 0.17692 0.0
O1265 O 0.33464 0.67434 0.13629 0.0
O1266 O 0.36314 0.73412 0.14162 0.0
C1267 C 0.30958 0.74547 0.19496 0.0
N1268 N 0.347 0.74915 0.221 0.0
C1269 C 0.35014 0.82559 0.26096 0.0
C1270 C 0.31114 0.84525 0.2339 0.0
C1271 C 0.28251 0.78413 0.18711 0.0
C1272 C 0.36392 0.77923 0.25145 0.0
H1273 H 0.29868 0.71631 0.18622 0.0
C1274 C 0.33881 0.71195 0.12288 0.0
O1275 O 0.33572 0.5918 0.2363 0.0
O1276 O 0.28941 0.62922 0.21323 0.0
N1277 N 0.42254 0.75133 0.23733 0.0
C1278 C 0.4683 0.75 0.24034 0.0
C1279 C 0.49018 0.75819 0.31781 0.0
C1280 C 0.44679 0.76944 0.34408 0.0
C1281 C 0.40209 0.77534 0.31908 0.0
C1282 C 0.39413 0.76477 0.27035 0.0
H1283 H 0.48542 0.74867 0.21254 0.0
O1284 O 0.3612 0.63438 0.25716 0.0
O1285 O 0.35828 0.68637 0.22508 0.0
O1286 O 0.41507 0.63116 0.18494 0.0
O1287 O 0.43406 0.69477 0.17224 0.0
C1288 C 0.37826 0.80958 0.33055 0.0
C1289 C 0.35773 0.83591 0.30203 0.0
H1290 H 0.29835 0.87426 0.24268 0.0
H1291 H 0.25401 0.77685 0.17508 0.0
H1292 H 0.51931 0.757 0.33308 0.0
H1293 H 0.44924 0.7787 0.37521 0.0
H1294 H 0.38168 0.82077 0.36097 0.0
H1295 H 0.34404 0.8631 0.31362 0.0
Mn1296 Mn 0.79948 0.0776 0.23116 0.0
Mn1297 Mn 0.70495 0.04325 0.23299 0.0
C1298 C 0.76137 0.07027 0.16663 0.0
C1299 C 0.83521 0.13065 0.18591 0.0
C1300 C 0.77339 -0.01396 0.2493 0.0
O1301 O 0.76685 0.0966 0.28937 0.0
O1302 O 0.70719 0.0676 0.28832 0.0
C1303 C 0.67755 0.11979 0.24349 0.0
N1304 N 0.68248 0.08833 0.21062 0.0
C1305 C 0.61295 0.08647 0.15929 0.0
C1306 C 0.58594 0.11692 0.18902 0.0
C1307 C 0.63489 0.14107 0.24994 0.0
C1308 C 0.65859 0.07479 0.17284 0.0
H1309 H 0.70368 0.1344 0.25462 0.0
C1310 C 0.73031 0.09234 0.30528 0.0
O1311 O 0.84075 0.09224 0.18172 0.0
O1312 O 0.80742 0.13611 0.21116 0.0
N1313 N 0.68473 0.01462 0.18794 0.0
C1314 C 0.68296 -0.03123 0.18585 0.0
C1315 C 0.67325 0.94565 0.10922 0.0
C1316 C 0.66579 -0.01128 0.08154 0.0
C1317 C 0.66348 0.03449 0.10502 0.0
C1318 C 0.67383 0.04351 0.15425 0.0
H1319 H 0.68201 0.95234 0.21398 0.0
O1320 O 0.7993 0.06423 0.16792 0.0
O1321 O 0.74827 0.07289 0.2028 0.0
O1322 O 0.80165 0.01183 0.24067 0.0
O1323 O 0.73668 -0.00224 0.25276 0.0
C1324 C 0.63159 0.05952 0.09108 0.0
C1325 C 0.60423 0.07958 0.11809 0.0
H1326 H 0.55431 0.12279 0.18207 0.0
H1327 H 0.62901 0.15148 0.27951 0.0
H1328 H 0.67191 0.91612 0.09478 0.0
H1329 H 0.65666 -0.01402 0.05039 0.0
H1330 H 0.62176 0.05598 0.0602 0.0
H1331 H 0.57682 0.0922 0.10581 0.0
Mn1332 Mn 0.35082 0.28596 0.73061 0.0
Mn1333 Mn 0.39341 0.19364 0.73232 0.0
C1334 C 0.35838 0.24753 0.66539 0.0
C1335 C 0.29797 0.32526 0.68775 0.0
C1336 C 0.44384 0.26602 0.74997 0.0
O1337 O 0.33597 0.25066 0.78879 0.0
O1338 O 0.3638 0.19039 0.78525 0.0
C1339 C 0.31196 0.17462 0.73107 0.0
N1340 N 0.35124 0.16972 0.70753 0.0
C1341 C 0.35509 0.09228 0.66932 0.0
C1342 C 0.3138 0.07428 0.69386 0.0
C1343 C 0.2831 0.13669 0.73701 0.0
C1344 C 0.36974 0.13851 0.67921 0.0
H1345 H 0.30127 0.20398 0.73958 0.0
C1346 C 0.33939 0.21341 0.80309 0.0
O1347 O 0.33639 0.33156 0.68618 0.0
O1348 O 0.29126 0.29346 0.70815 0.0
N1349 N 0.42718 0.17156 0.68913 0.0
C1350 C 0.47291 0.1754 0.68292 0.0
C1351 C 0.49033 0.16621 0.60453 0.0
C1352 C 0.4463 0.15159 0.58133 0.0
C1353 C 0.40367 0.14367 0.60917 0.0
C1354 C 0.39798 0.15471 0.65827 0.0
H1355 H 0.49184 0.17464 0.70942 0.0
O1356 O 0.36281 0.28545 0.6672 0.0
O1357 O 0.35936 0.2347 0.70157 0.0
O1358 O 0.41608 0.29164 0.73955 0.0
O1359 O 0.43498 0.22875 0.75584 0.0
C1360 C 0.38102 0.10842 0.59903 0.0
C1361 C 0.36236 0.08181 0.62829 0.0
H1362 H 0.30075 0.04564 0.68427 0.0
H1363 H 0.25317 0.14446 0.74571 0.0
H1364 H 0.5184 0.16774 0.58741 0.0
H1365 H 0.44749 0.14157 0.55035 0.0
H1366 H 0.38364 0.09713 0.56856 0.0
H1367 H 0.34871 0.05445 0.61707 0.0
Mn1368 Mn 0.12894 0.84951 0.23137 0.0
Mn1369 Mn 0.22285 0.88409 0.23475 0.0
C1370 C 0.16719 0.85768 0.16719 0.0
C1371 C 0.09437 0.79647 0.18544 0.0
C1372 C 0.15418 0.94122 0.2505 0.0
O1373 O 0.16072 0.82986 0.28961 0.0
O1374 O 0.21999 0.85944 0.28977 0.0
C1375 C 0.25072 0.80738 0.24507 0.0
N1376 N 0.24572 0.83925 0.21249 0.0
C1377 C 0.31494 0.84104 0.16058 0.0
C1378 C 0.34179 0.80998 0.18969 0.0
C1379 C 0.29322 0.78555 0.25073 0.0
C1380 C 0.26951 0.85302 0.17462 0.0
H1381 H 0.22472 0.7924 0.25617 0.0
C1382 C 0.19685 0.8344 0.30618 0.0
O1383 O 0.08809 0.83481 0.18181 0.0
O1384 O 0.12226 0.79106 0.21075 0.0
N1385 N 0.24354 0.91294 0.19038 0.0
C1386 C 0.24534 0.95873 0.18909 0.0
C1387 C 0.25532 -0.01687 0.11292 0.0
C1388 C 0.2628 0.94049 0.08452 0.0
C1389 C 0.2649 0.89432 0.10726 0.0
C1390 C 0.25442 0.88455 0.15633 0.0
H1391 H 0.24551 -0.02525 0.2175 0.0
O1392 O 0.12925 0.86375 0.16842 0.0
O1393 O 0.18021 0.85459 0.20342 0.0
O1394 O 0.1261 0.91531 0.24156 0.0
O1395 O 0.19086 0.92956 0.25419 0.0
C1396 C 0.29655 0.8693 0.09287 0.0
C1397 C 0.32368 0.84851 0.11949 0.0
H1398 H 0.37336 0.80404 0.18249 0.0
H1399 H 0.29938 0.77512 0.28034 0.0
H1400 H 0.25656 0.0129 0.09898 0.0
H1401 H 0.27196 0.94371 0.05342 0.0
H1402 H 0.30641 0.87328 0.06205 0.0
H1403 H 0.35097 0.83583 0.10698 0.0
Mn1404 Mn 0.57823 0.63103 0.73099 0.0
Mn1405 Mn 0.54463 0.72536 0.73218 0.0
C1406 C 0.57129 0.66847 0.66628 0.0
C1407 C 0.63135 0.59547 0.68572 0.0
C1408 C 0.48686 0.65768 0.749 0.0
O1409 O 0.59694 0.66371 0.78923 0.0
O1410 O 0.5684 0.72352 0.78758 0.0
C1411 C 0.62063 0.75324 0.74294 0.0
N1412 N 0.58983 0.74726 0.70962 0.0
C1413 C 0.58789 0.81584 0.65688 0.0
C1414 C 0.61757 0.84369 0.68659 0.0
C1415 C 0.64123 0.79625 0.74887 0.0
C1416 C 0.57651 0.7703 0.67108 0.0
H1417 H 0.63526 0.72758 0.75501 0.0
C1418 C 0.59267 0.70031 0.80496 0.0
O1419 O 0.59297 0.58949 0.68183 0.0
O1420 O 0.63672 0.62355 0.71071 0.0
N1421 N 0.51656 0.74487 0.68704 0.0
C1422 C 0.47085 0.7474 0.68586 0.0
C1423 C 0.44634 0.7571 0.60974 0.0
C1424 C 0.489 0.76354 0.58111 0.0
C1425 C 0.5353 0.7651 0.60366 0.0
C1426 C 0.54507 0.75493 0.65282 0.0
H1427 H 0.45497 0.74822 0.71434 0.0
O1428 O 0.56468 0.63064 0.66783 0.0
O1429 O 0.57399 0.68181 0.70237 0.0
O1430 O 0.51244 0.62912 0.74068 0.0
O1431 O 0.49883 0.69429 0.75198 0.0
C1432 C 0.56047 0.79654 0.58908 0.0
C1433 C 0.58083 0.8241 0.61561 0.0
H1434 H 0.62309 0.87528 0.67921 0.0
H1435 H 0.651 0.80289 0.77862 0.0
H1436 H 0.41652 0.75879 0.59593 0.0
H1437 H 0.4858 0.77249 0.54995 0.0
H1438 H 0.55665 0.80609 0.55814 0.0
H1439 H 0.59326 0.85142 0.60299 0.0
Mn1440 Mn 0.69385 0.79732 0.84881 0.0
Mn1441 Mn 0.69958 0.705 0.88273 0.0
C1442 C 0.76272 0.76569 0.85787 0.0
C1443 C 0.73425 0.83726 0.79539 0.0
C1444 C 0.67951 0.77044 0.94119 0.0
O1445 O 0.63666 0.76048 0.83292 0.0
O1446 O 0.64476 0.69953 0.85755 0.0
C1447 C 0.69586 0.69322 0.80274 0.0
N1448 N 0.72644 0.69055 0.83623 0.0
C1449 C 0.7679 0.61538 0.83579 0.0
C1450 C 0.73632 0.59412 0.80203 0.0
C1451 C 0.68406 0.65335 0.77859 0.0
C1452 C 0.75997 0.66167 0.84939 0.0
H1453 H 0.68612 0.72234 0.79294 0.0
C1454 C 0.6242 0.7224 0.83559 0.0
O1455 O 0.73775 0.84273 0.83395 0.0
O1456 O 0.71328 0.80579 0.78863 0.0
N1457 N 0.74351 0.68405 0.91131 0.0
C1458 C 0.74422 0.68118 0.95707 0.0
C1459 C 0.81933 0.66656 -0.01825 0.0
C1460 C 0.84762 0.6584 0.93898 0.0
C1461 C 0.8252 0.65854 0.89254 0.0
C1462 C 0.77742 0.67243 0.88279 0.0
H1463 H 0.71566 0.68098 -0.02731 0.0
O1464 O 0.75769 0.8036 0.86127 0.0
O1465 O 0.72759 0.75026 0.85559 0.0
O1466 O 0.68575 0.79922 0.9151 0.0
O1467 O 0.67664 0.73361 0.9292 0.0
C1468 C 0.83677 0.62622 0.86641 0.0
C1469 C 0.80802 0.60254 0.84355 0.0
H1470 H 0.74192 0.56355 0.7915 0.0
H1471 H 0.66352 0.6585 0.75533 0.0
H1472 H 0.83288 0.66356 0.0116 0.0
H1473 H 0.87802 0.64718 0.94221 0.0
H1474 H 0.86645 0.61339 0.8704 0.0
H1475 H 0.81826 0.57489 0.82972 0.0
Mn1476 Mn 0.69575 0.12819 0.07978 0.0
Mn1477 Mn 0.68934 0.22154 0.04244 0.0
C1478 C 0.7591 0.16913 0.07265 0.0
C1479 C 0.74116 0.09338 0.13173 0.0
C1480 C 0.67718 0.14985 -0.01265 0.0
O1481 O 0.63706 0.15885 0.09882 0.0
O1482 O 0.63459 0.21672 0.0667 0.0
C1483 C 0.67619 0.25394 0.11822 0.0
N1484 N 0.70891 0.24773 0.08641 0.0
C1485 C 0.7641 0.31447 0.0863 0.0
C1486 C 0.73616 0.34201 0.11788 0.0
C1487 C 0.67285 0.2961 0.14137 0.0
C1488 C 0.74792 0.27014 0.07325 0.0
H1489 H 0.66543 0.22849 0.13442 0.0
C1490 C 0.61936 0.19413 0.09292 0.0
O1491 O 0.74564 0.0884 0.09326 0.0
O1492 O 0.71538 0.12076 0.13819 0.0
N1493 N 0.73274 0.24464 0.01333 0.0
C1494 C 0.73517 0.24527 -0.03244 0.0
C1495 C 0.81272 0.24965 0.94484 0.0
C1496 C 0.84019 0.25681 -0.01172 0.0
C1497 C 0.81614 0.26173 0.03371 0.0
C1498 C 0.76639 0.25442 0.04218 0.0
H1499 H 0.70705 0.24407 0.95075 0.0
O1500 O 0.75896 0.13125 0.06653 0.0
O1501 O 0.72238 0.18115 0.07472 0.0
O1502 O 0.68645 0.12314 0.01435 0.0
O1503 O 0.67266 0.18693 -0.00248 0.0
C1504 C 0.83145 0.29278 0.05896 0.0
C1505 C 0.80579 0.321 0.07966 0.0
H1506 H 0.74512 0.3729 0.12488 0.0
H1507 H 0.64358 0.30348 0.15271 0.0
H1508 H 0.82748 0.24835 0.91544 0.0
H1509 H 0.8719 0.26381 -0.01414 0.0
H1510 H 0.8628 0.30102 0.05568 0.0
H1511 H 0.81949 0.34737 0.09297 0.0
Mn1512 Mn 0.28862 0.1905 0.5809 0.0
Mn1513 Mn 0.19657 0.19273 0.53844 0.0
C1514 C 0.25199 0.25754 0.57302 0.0
C1515 C 0.33023 0.22893 0.6331 0.0
C1516 C 0.26934 0.17564 0.48731 0.0
O1517 O 0.25134 0.13447 0.59513 0.0
O1518 O 0.19167 0.13952 0.566 0.0
C1519 C 0.17619 0.19253 0.61974 0.0
N1520 N 0.17238 0.21692 0.58106 0.0
C1521 C 0.09604 0.25739 0.57714 0.0
C1522 C 0.07677 0.2324 0.61759 0.0
C1523 C 0.13783 0.18691 0.64801 0.0
C1524 C 0.14219 0.24661 0.56303 0.0
H1525 H 0.2053 0.18368 0.63077 0.0
C1526 C 0.21379 0.12123 0.59068 0.0
O1527 O 0.33485 0.23246 0.59452 0.0
O1528 O 0.2976 0.20951 0.64122 0.0
N1529 N 0.17376 0.23552 0.50611 0.0
C1530 C 0.17648 0.24049 0.46052 0.0
C1531 C 0.16989 0.31898 0.44167 0.0
C1532 C 0.15733 0.3434 0.48576 0.0
C1533 C 0.14946 0.31651 0.52906 0.0
C1534 C 0.15904 0.26728 0.53517 0.0
H1535 H 0.1778 0.21343 0.4423 0.0
O1536 O 0.28997 0.25454 0.57045 0.0
O1537 O 0.23829 0.22182 0.5724 0.0
O1538 O 0.29504 0.18342 0.51568 0.0
O1539 O 0.23171 0.1706 0.49574 0.0
C1540 C 0.11452 0.32757 0.55196 0.0
C1541 C 0.08694 0.2989 0.57039 0.0
H1542 H 0.04837 0.24272 0.63067 0.0
H1543 H 0.14592 0.17873 0.67785 0.0
H1544 H 0.17222 0.33545 0.41327 0.0
H1545 H 0.14852 0.37471 0.48437 0.0
H1546 H 0.10404 0.35831 0.54943 0.0
H1547 H 0.05983 0.31078 0.58401 0.0
Mn1548 Mn 0.23204 0.8006 0.07904 0.0
Mn1549 Mn 0.23833 0.70755 0.04031 0.0
C1550 C 0.16868 0.75955 0.07173 0.0
C1551 C 0.18735 0.83502 0.13188 0.0
C1552 C 0.2497 0.78023 -0.01397 0.0
O1553 O 0.29055 0.76967 0.09788 0.0
O1554 O 0.29312 0.71227 0.06489 0.0
C1555 C 0.25201 0.67319 0.11545 0.0
N1556 N 0.21925 0.68003 0.08373 0.0
C1557 C 0.16353 0.61371 0.08321 0.0
C1558 C 0.19122 0.58571 0.11451 0.0
C1559 C 0.25497 0.63078 0.13833 0.0
C1560 C 0.18005 0.65805 0.07045 0.0
H1561 H 0.26254 0.69833 0.13228 0.0
C1562 C 0.30811 0.73439 0.09172 0.0
O1563 O 0.18241 0.84031 0.09352 0.0
O1564 O 0.21323 0.80758 0.13775 0.0
N1565 N 0.19454 0.68509 0.01088 0.0
C1566 C 0.19161 0.68492 -0.03499 0.0
C1567 C 0.11387 0.68017 0.9431 0.0
C1568 C 0.08686 0.67243 -0.01332 0.0
C1569 C 0.11132 0.66724 0.03182 0.0
C1570 C 0.16119 0.67465 0.03996 0.0
H1571 H 0.21952 0.6861 0.9479 0.0
O1572 O 0.16875 0.79753 0.06637 0.0
O1573 O 0.20542 0.74752 0.07345 0.0
O1574 O 0.24056 0.80653 0.01348 0.0
O1575 O 0.25476 0.7431 -0.00416 0.0
C1576 C 0.09611 0.63597 0.05679 0.0
C1577 C 0.12181 0.60744 0.07685 0.0
H1578 H 0.18191 0.55489 0.12133 0.0
H1579 H 0.28404 0.62305 0.15002 0.0
H1580 H 0.0988 0.68153 0.91387 0.0
H1581 H 0.05517 0.66526 -0.01552 0.0
H1582 H 0.06471 0.62786 0.05368 0.0
H1583 H 0.1081 0.58098 0.08999 0.0
Mn1584 Mn 0.62951 0.73323 0.57918 0.0
Mn1585 Mn 0.72241 0.74043 0.54036 0.0
C1586 C 0.67094 0.67026 0.57205 0.0
C1587 C 0.59498 0.688 0.63137 0.0
C1588 C 0.64964 0.75126 0.4862 0.0
O1589 O 0.65992 0.79203 0.59802 0.0
O1590 O 0.71701 0.79549 0.56461 0.0
C1591 C 0.7554 0.75476 0.61608 0.0
N1592 N 0.74984 0.72209 0.58402 0.0
C1593 C 0.81636 0.66663 0.58567 0.0
C1594 C 0.84317 0.69436 0.61809 0.0
C1595 C 0.7969 0.75776 0.64049 0.0
C1596 C 0.77242 0.68306 0.57141 0.0
H1597 H 0.72968 0.76458 0.63256 0.0
C1598 C 0.69479 0.81028 0.59156 0.0
O1599 O 0.58963 0.68368 0.59296 0.0
O1600 O 0.62273 0.71348 0.63772 0.0
N1601 N 0.74565 0.69654 0.51126 0.0
C1602 C 0.74529 0.6926 0.46544 0.0
C1603 C 0.74944 0.61435 0.44516 0.0
C1604 C 0.75764 0.58832 0.4893 0.0
C1605 C 0.76344 0.6138 0.53384 0.0
C1606 C 0.7563 0.66379 0.54092 0.0
H1607 H 0.74391 0.72013 0.44777 0.0
O1608 O 0.63305 0.67015 0.56608 0.0
O1609 O 0.68283 0.70706 0.57372 0.0
O1610 O 0.62343 0.74214 0.51374 0.0
O1611 O 0.68684 0.75618 0.49579 0.0
C1612 C 0.79456 0.59896 0.55928 0.0
C1613 C 0.82271 0.62484 0.57972 0.0
H1614 H 0.87379 0.6852 0.62597 0.0
H1615 H 0.80401 0.7869 0.65227 0.0
H1616 H 0.7476 0.59865 0.4163 0.0
H1617 H 0.76461 0.55656 0.48776 0.0
H1618 H 0.80267 0.56752 0.55669 0.0
H1619 H 0.8488 0.61118 0.59366 0.0
Mn1620 Mn 0.23392 0.12509 0.85073 0.0
Mn1621 Mn 0.23522 0.21875 0.88355 0.0
C1622 C 0.16825 0.16198 0.85859 0.0
C1623 C 0.18951 0.0911 0.79609 0.0
C1624 C 0.25028 0.15251 0.9429 0.0
O1625 O 0.29291 0.15588 0.83203 0.0
O1626 O 0.29032 0.21673 0.85822 0.0
C1627 C 0.24279 0.23752 0.8041 0.0
N1628 N 0.21108 0.2371 0.83709 0.0
C1629 C 0.16642 0.31087 0.83826 0.0
C1630 C 0.19748 0.33405 0.806 0.0
C1631 C 0.25252 0.27879 0.78166 0.0
C1632 C 0.17612 0.26463 0.85087 0.0
H1633 H 0.25373 0.20983 0.79164 0.0
C1634 C 0.30829 0.19267 0.83502 0.0
O1635 O 0.18386 0.08596 0.83444 0.0
O1636 O 0.21692 0.11727 0.7911 0.0
N1637 N 0.19112 0.24058 0.91209 0.0
C1638 C 0.1897 0.24344 0.9579 0.0
C1639 C 0.11399 0.25772 -0.01844 0.0
C1640 C 0.08631 0.26569 0.93857 0.0
C1641 C 0.10936 0.26574 0.89254 0.0
C1642 C 0.15765 0.25233 0.8833 0.0
H1643 H 0.21798 0.24348 -0.02599 0.0
O1644 O 0.1703 0.12385 0.86343 0.0
O1645 O 0.20435 0.17545 0.85532 0.0
O1646 O 0.24167 0.12399 0.91721 0.0
O1647 O 0.25537 0.18882 0.93042 0.0
C1648 C 0.09751 0.29823 0.86706 0.0
C1649 C 0.12622 0.32309 0.84593 0.0
H1650 H 0.19332 0.36597 0.79943 0.0
H1651 H 0.28043 0.28057 0.76792 0.0
H1652 H 0.09996 0.26055 0.01121 0.0
H1653 H 0.05577 0.27663 0.94141 0.0
H1654 H 0.06752 0.31042 0.87085 0.0
H1655 H 0.11584 0.35108 0.83288 0.0
Mn1656 Mn 0.29335 0.7324 0.34855 0.0
Mn1657 Mn 0.20108 0.72761 0.38479 0.0
C1658 C 0.26073 0.6641 0.35664 0.0
C1659 C 0.33316 0.69177 0.29496 0.0
C1660 C 0.26789 0.74725 0.44139 0.0
O1661 O 0.25673 0.78983 0.33353 0.0
O1662 O 0.19593 0.78218 0.35886 0.0
C1663 C 0.18935 0.7307 0.30414 0.0
N1664 N 0.18573 0.70124 0.33872 0.0
C1665 C 0.10983 0.66088 0.33837 0.0
C1666 C 0.08966 0.69157 0.30275 0.0
C1667 C 0.15026 0.74183 0.27864 0.0
C1668 C 0.15613 0.66881 0.3526 0.0
H1669 H 0.21867 0.74002 0.29431 0.0
C1670 C 0.21876 0.8025 0.33654 0.0
O1671 O 0.3387 0.68838 0.33351 0.0
O1672 O 0.30156 0.71267 0.28824 0.0
N1673 N 0.18053 0.68301 0.41391 0.0
C1674 C 0.17899 0.68022 0.45975 0.0
C1675 C 0.16601 0.60384 0.48152 0.0
C1676 C 0.15676 0.57742 0.43782 0.0
C1677 C 0.15508 0.6019 0.3925 0.0
C1678 C 0.16812 0.65015 0.38454 0.0
H1679 H 0.17775 0.70808 0.47652 0.0
O1680 O 0.29866 0.66859 0.36038 0.0
O1681 O 0.24561 0.69943 0.3556 0.0
O1682 O 0.29601 0.74025 0.41476 0.0
O1683 O 0.23085 0.75073 0.43028 0.0
C1684 C 0.12211 0.59112 0.36676 0.0
C1685 C 0.09772 0.62034 0.34512 0.0
H1686 H 0.05982 0.68505 0.29071 0.0
H1687 H 0.15656 0.75969 0.25333 0.0
H1688 H 0.16384 0.58896 0.5108 0.0
H1689 H 0.14593 0.54681 0.44004 0.0
H1690 H 0.10973 0.56116 0.36984 0.0
H1691 H 0.07035 0.60998 0.33083 0.0
Mn1692 Mn 0.63308 0.19426 0.34874 0.0
Mn1693 Mn 0.7254 0.20017 0.3818 0.0
C1694 C 0.66468 0.26303 0.35718 0.0
C1695 C 0.593 0.23478 0.29576 0.0
C1696 C 0.66032 0.18124 0.44091 0.0
O1697 O 0.67007 0.13675 0.33326 0.0
O1698 O 0.73121 0.14523 0.35708 0.0
C1699 C 0.73781 0.19596 0.30205 0.0
N1700 N 0.73983 0.22687 0.33524 0.0
C1701 C 0.81455 0.26926 0.33491 0.0
C1702 C 0.8364 0.23765 0.30149 0.0
C1703 C 0.77797 0.18452 0.27824 0.0
C1704 C 0.76822 0.26095 0.34832 0.0
H1705 H 0.70889 0.18557 0.29229 0.0
C1706 C 0.70823 0.12433 0.33562 0.0
O1707 O 0.58785 0.23847 0.33435 0.0
O1708 O 0.62422 0.21353 0.2887 0.0
N1709 N 0.74563 0.24417 0.40984 0.0
C1710 C 0.74921 0.24393 0.45545 0.0
C1711 C 0.765 0.31827 0.48142 0.0
C1712 C 0.77263 0.34739 0.43911 0.0
C1713 C 0.77144 0.32595 0.39219 0.0
C1714 C 0.75705 0.27843 0.38169 0.0
H1715 H 0.74854 0.21512 0.47062 0.0
O1716 O 0.6268 0.25811 0.36112 0.0
O1717 O 0.6801 0.22791 0.35469 0.0
O1718 O 0.63142 0.18692 0.41489 0.0
O1719 O 0.69703 0.17778 0.42877 0.0
C1720 C 0.80349 0.33787 0.36593 0.0
C1721 C 0.82717 0.30939 0.34276 0.0
H1722 H 0.86699 0.24347 0.29104 0.0
H1723 H 0.77307 0.16362 0.25541 0.0
H1724 H 0.76844 0.33115 0.51152 0.0
H1725 H 0.78409 0.37763 0.44278 0.0
H1726 H 0.81631 0.3675 0.37018 0.0
H1727 H 0.8548 0.31978 0.32899 0.0
loop_
_geom_bond_atom_site_label_1
_geom_bond_atom_site_label_2
_geom_bond_distance
_geom_bond_site_symmetry_2
_ccdc_geom_bond_type
Mn0 O5 2.095 . S
Mn0 O15 2.162 . S
Mn0 O16 2.297 . S
Mn0 O24 2.385 . S
Mn0 O25 2.209 . S
Mn0 O26 2.094 . S
Mn1 O6 2.121 . S
Mn1 N8 2.257 . S
Mn1 N17 2.282 . S
Mn1 O25 2.215 . S
Mn1 O27 2.117 . S
C2 O24 1.234 . S
C2 O25 1.283 . S
C3 O15 1.281 . S
C3 O16 1.236 . S
C4 O26 1.240 . S
C4 O27 1.264 . S
O5 Mn0 2.095 . S
O5 C14 1.250 . S
O6 Mn1 2.121 . S
O6 C14 1.258 . S
C7 N8 1.326 . S
C7 C11 1.460 . S
C7 H13 0.929 . S
N8 Mn1 2.257 . S
N8 C7 1.326 . S
N8 C12 1.362 . S
C9 C10 1.258 . S
C9 C12 1.431 . S
C9 C29 1.449 . S
C10 C9 1.258 . S
C10 C11 1.477 . S
C10 H30 0.931 . S
C11 C7 1.460 . S
C11 C10 1.477 . S
C11 H31 0.930 . S
C12 N8 1.362 . S
C12 C9 1.431 . S
C12 C22 1.476 . S
H13 C7 0.929 . S
C14 O5 1.250 . S
C14 O6 1.258 . S
O15 Mn0 2.162 . S
O15 C3 1.281 . S
O16 Mn0 2.297 . S
O16 C3 1.236 . S
N17 Mn1 2.282 . S
N17 C18 1.328 . S
N17 C22 1.318 . S
C18 N17 1.328 . S
C18 C19 1.457 1_455 S
C18 H23 0.929 1_455 S
C19 C18 1.457 1_655 S
C19 C20 1.291 1_655 S
C19 H32 0.931 . S
C20 C19 1.291 1_455 S
C20 C21 1.373 . S
C20 H33 0.929 1_455 S
C21 C20 1.373 . S
C21 C22 1.396 . S
C21 C28 1.403 . S
C22 C12 1.476 . S
C22 N17 1.318 . S
C22 C21 1.396 . S
H23 C18 0.929 1_655 S
O24 Mn0 2.385 . S
O24 C2 1.234 . S
O25 Mn0 2.209 . S
O25 Mn1 2.215 . S
O25 C2 1.283 . S
O26 Mn0 2.094 . S
O26 C4 1.240 . S
O27 Mn1 2.117 . S
O27 C4 1.264 . S
C28 C21 1.403 . S
C28 C29 1.399 . S
C28 H34 0.929 . S
C29 C9 1.449 . S
C29 C28 1.399 . S
C29 H35 0.930 . S
H30 C10 0.931 . S
H31 C11 0.930 . S
H32 C19 0.931 . S
H33 C20 0.929 1_655 S
H34 C28 0.929 . S
H35 C29 0.930 . S
Mn36 O41 2.095 . S
Mn36 O51 2.162 . S
Mn36 O52 2.297 . S
Mn36 O60 2.385 . S
Mn36 O61 2.209 . S
Mn36 O62 2.094 . S
Mn37 O42 2.121 . S
Mn37 N44 2.257 . S
Mn37 N53 2.282 . S
Mn37 O61 2.215 . S
Mn37 O63 2.117 . S
C38 O60 1.234 . S
C38 O61 1.283 . S
C39 O51 1.281 . S
C39 O52 1.236 . S
C40 O62 1.240 . S
C40 O63 1.264 . S
O41 Mn36 2.095 . S
O41 C50 1.250 . S
O42 Mn37 2.121 . S
O42 C50 1.258 . S
C43 N44 1.326 . S
C43 C47 1.460 . S
C43 H49 0.929 . S
N44 Mn37 2.257 . S
N44 C43 1.326 . S
N44 C48 1.362 . S
C45 C46 1.258 . S
C45 C48 1.431 . S
C45 C65 1.449 . S
C46 C45 1.258 . S
C46 C47 1.477 . S
C46 H66 0.931 . S
C47 C43 1.460 . S
C47 C46 1.477 . S
C47 H67 0.930 . S
C48 N44 1.362 . S
C48 C45 1.431 . S
C48 C58 1.476 . S
H49 C43 0.929 . S
C50 O41 1.250 . S
C50 O42 1.258 . S
O51 Mn36 2.162 . S
O51 C39 1.281 . S
O52 Mn36 2.297 . S
O52 C39 1.236 . S
N53 Mn37 2.282 . S
N53 C54 1.328 . S
N53 C58 1.318 . S
C54 N53 1.328 . S
C54 C55 1.457 . S
C54 H59 0.929 . S
C55 C54 1.457 . S
C55 C56 1.291 . S
C55 H68 0.931 . S
C56 C55 1.291 . S
C56 C57 1.373 . S
C56 H69 0.929 . S
C57 C56 1.373 . S
C57 C58 1.396 . S
C57 C64 1.403 . S
C58 C48 1.476 . S
C58 N53 1.318 . S
C58 C57 1.396 . S
H59 C54 0.929 . S
O60 Mn36 2.385 . S
O60 C38 1.234 . S
O61 Mn36 2.209 . S
O61 Mn37 2.215 . S
O61 C38 1.283 . S
O62 Mn36 2.094 . S
O62 C40 1.240 . S
O63 Mn37 2.117 . S
O63 C40 1.264 . S
C64 C57 1.403 . S
C64 C65 1.399 . S
C64 H70 0.929 . S
C65 C45 1.449 . S
C65 C64 1.399 . S
C65 H71 0.930 . S
H66 C46 0.931 . S
H67 C47 0.930 . S
H68 C55 0.931 . S
H69 C56 0.929 . S
H70 C64 0.929 . S
H71 C65 0.930 . S
Mn72 O77 2.095 . S
Mn72 O87 2.162 . S
Mn72 O88 2.297 . S
Mn72 O96 2.385 . S
Mn72 O97 2.209 . S
Mn72 O98 2.094 . S
Mn73 O78 2.121 . S
Mn73 N80 2.257 . S
Mn73 N89 2.282 . S
Mn73 O97 2.215 . S
Mn73 O99 2.117 . S
C74 O96 1.234 . S
C74 O97 1.283 . S
C75 O87 1.281 . S
C75 O88 1.236 . S
C76 O98 1.240 . S
C76 O99 1.264 . S
O77 Mn72 2.095 . S
O77 C86 1.250 . S
O78 Mn73 2.121 . S
O78 C86 1.258 . S
C79 N80 1.326 . S
C79 C83 1.460 . S
C79 H85 0.929 . S
N80 Mn73 2.257 . S
N80 C79 1.326 . S
N80 C84 1.362 . S
C81 C82 1.258 . S
C81 C84 1.431 . S
C81 C101 1.449 . S
C82 C81 1.258 . S
C82 C83 1.477 . S
C82 H102 0.931 . S
C83 C79 1.460 . S
C83 C82 1.477 . S
C83 H103 0.930 . S
C84 N80 1.362 . S
C84 C81 1.431 . S
C84 C94 1.476 . S
H85 C79 0.929 . S
C86 O77 1.250 . S
C86 O78 1.258 . S
O87 Mn72 2.162 . S
O87 C75 1.281 . S
O88 Mn72 2.297 . S
O88 C75 1.236 . S
N89 Mn73 2.282 . S
N89 C90 1.328 . S
N89 C94 1.318 . S
C90 N89 1.328 . S
C90 C91 1.457 1_655 S
C90 H95 0.929 1_655 S
C91 C90 1.457 1_455 S
C91 C92 1.291 1_455 S
C91 H104 0.931 . S
C92 C91 1.291 1_655 S
C92 C93 1.373 . S
C92 H105 0.929 1_655 S
C93 C92 1.373 . S
C93 C94 1.396 . S
C93 C100 1.403 . S
C94 C84 1.476 . S
C94 N89 1.318 . S
C94 C93 1.396 . S
H95 C90 0.929 1_455 S
O96 Mn72 2.385 . S
O96 C74 1.234 . S
O97 Mn72 2.209 . S
O97 Mn73 2.215 . S
O97 C74 1.283 . S
O98 Mn72 2.094 . S
O98 C76 1.240 . S
O99 Mn73 2.117 . S
O99 C76 1.264 . S
C100 C93 1.403 . S
C100 C101 1.399 . S
C100 H106 0.929 . S
C101 C81 1.449 . S
C101 C100 1.399 . S
C101 H107 0.930 . S
H102 C82 0.931 . S
H103 C83 0.930 . S
H104 C91 0.931 . S
H105 C92 0.929 1_455 S
H106 C100 0.929 . S
H107 C101 0.930 . S
Mn108 O113 2.095 . S
Mn108 O123 2.162 . S
Mn108 O124 2.297 . S
Mn108 O132 2.385 . S
Mn108 O133 2.209 . S
Mn108 O134 2.094 . S
Mn109 O114 2.121 . S
Mn109 N116 2.257 . S
Mn109 N125 2.282 . S
Mn109 O133 2.215 . S
Mn109 O135 2.117 . S
C110 O132 1.234 . S
C110 O133 1.283 . S
C111 O123 1.281 . S
C111 O124 1.236 . S
C112 O134 1.240 . S
C112 O135 1.264 . S
O113 Mn108 2.095 . S
O113 C122 1.250 . S
O114 Mn109 2.121 . S
O114 C122 1.258 . S
C115 N116 1.326 . S
C115 C119 1.460 . S
C115 H121 0.929 . S
N116 Mn109 2.257 . S
N116 C115 1.326 . S
N116 C120 1.362 . S
C117 C118 1.258 . S
C117 C120 1.431 . S
C117 C137 1.449 . S
C118 C117 1.258 . S
C118 C119 1.477 . S
C118 H138 0.931 . S
C119 C115 1.460 . S
C119 C118 1.477 . S
C119 H139 0.930 . S
C120 N116 1.362 . S
C120 C117 1.431 . S
C120 C130 1.476 . S
H121 C115 0.929 . S
C122 O113 1.250 . S
C122 O114 1.258 . S
O123 Mn108 2.162 . S
O123 C111 1.281 . S
O124 Mn108 2.297 . S
O124 C111 1.236 . S
N125 Mn109 2.282 . S
N125 C126 1.328 . S
N125 C130 1.318 . S
C126 N125 1.328 . S
C126 C127 1.457 . S
C126 H131 0.929 . S
C127 C126 1.457 . S
C127 C128 1.291 . S
C127 H140 0.931 . S
C128 C127 1.291 . S
C128 C129 1.373 . S
C128 H141 0.929 . S
C129 C128 1.373 . S
C129 C130 1.396 . S
C129 C136 1.403 . S
C130 C120 1.476 . S
C130 N125 1.318 . S
C130 C129 1.396 . S
H131 C126 0.929 . S
O132 Mn108 2.385 . S
O132 C110 1.234 . S
O133 Mn108 2.209 . S
O133 Mn109 2.215 . S
O133 C110 1.283 . S
O134 Mn108 2.094 . S
O134 C112 1.240 . S
O135 Mn109 2.117 . S
O135 C112 1.264 . S
C136 C129 1.403 . S
C136 C137 1.399 . S
C136 H142 0.929 . S
C137 C117 1.449 . S
C137 C136 1.399 . S
C137 H143 0.930 . S
H138 C118 0.931 . S
H139 C119 0.930 . S
H140 C127 0.931 . S
H141 C128 0.929 . S
H142 C136 0.929 . S
H143 C137 0.930 . S
Mn144 O149 2.095 . S
Mn144 O159 2.162 . S
Mn144 O160 2.297 . S
Mn144 O168 2.385 . S
Mn144 O169 2.209 . S
Mn144 O170 2.094 . S
Mn145 O150 2.121 . S
Mn145 N152 2.257 . S
Mn145 N161 2.282 . S
Mn145 O169 2.215 . S
Mn145 O171 2.117 . S
C146 O168 1.234 . S
C146 O169 1.283 . S
C147 O159 1.281 . S
C147 O160 1.236 . S
C148 O170 1.240 . S
C148 O171 1.264 . S
O149 Mn144 2.095 . S
O149 C158 1.250 . S
O150 Mn145 2.121 . S
O150 C158 1.258 . S
C151 N152 1.326 . S
C151 C155 1.460 . S
C151 H157 0.929 . S
N152 Mn145 2.257 . S
N152 C151 1.326 . S
N152 C156 1.362 . S
C153 C154 1.258 . S
C153 C156 1.431 . S
C153 C173 1.449 . S
C154 C153 1.258 . S
C154 C155 1.477 . S
C154 H174 0.931 . S
C155 C151 1.460 . S
C155 C154 1.477 . S
C155 H175 0.930 . S
C156 N152 1.362 . S
C156 C153 1.431 . S
C156 C166 1.476 . S
H157 C151 0.929 . S
C158 O149 1.250 . S
C158 O150 1.258 . S
O159 Mn144 2.162 . S
O159 C147 1.281 . S
O160 Mn144 2.297 . S
O160 C147 1.236 . S
N161 Mn145 2.282 . S
N161 C162 1.328 . S
N161 C166 1.318 . S
C162 N161 1.328 . S
C162 C163 1.457 1_455 S
C162 H167 0.929 1_455 S
C163 C162 1.457 1_655 S
C163 C164 1.291 1_655 S
C163 H176 0.931 . S
C164 C163 1.291 1_455 S
C164 C165 1.373 . S
C164 H177 0.929 1_455 S
C165 C164 1.373 . S
C165 C166 1.396 . S
C165 C172 1.403 . S
C166 C156 1.476 . S
C166 N161 1.318 . S
C166 C165 1.396 . S
H167 C162 0.929 1_655 S
O168 Mn144 2.385 . S
O168 C146 1.234 . S
O169 Mn144 2.209 . S
O169 Mn145 2.215 . S
O169 C146 1.283 . S
O170 Mn144 2.094 . S
O170 C148 1.240 . S
O171 Mn145 2.117 . S
O171 C148 1.264 . S
C172 C165 1.403 . S
C172 C173 1.399 . S
C172 H178 0.929 . S
C173 C153 1.449 . S
C173 C172 1.399 . S
C173 H179 0.930 . S
H174 C154 0.931 . S
H175 C155 0.930 . S
H176 C163 0.931 . S
H177 C164 0.929 1_655 S
H178 C172 0.929 . S
H179 C173 0.930 . S
Mn180 O185 2.095 . S
Mn180 O195 2.162 . S
Mn180 O196 2.297 . S
Mn180 O204 2.385 . S
Mn180 O205 2.209 . S
Mn180 O206 2.094 . S
Mn181 O186 2.121 . S
Mn181 N188 2.257 . S
Mn181 N197 2.282 . S
Mn181 O205 2.215 . S
Mn181 O207 2.117 . S
C182 O204 1.234 . S
C182 O205 1.283 . S
C183 O195 1.281 . S
C183 O196 1.236 . S
C184 O206 1.240 . S
C184 O207 1.264 . S
O185 Mn180 2.095 . S
O185 C194 1.250 . S
O186 Mn181 2.121 . S
O186 C194 1.258 . S
C187 N188 1.326 . S
C187 C191 1.460 . S
C187 H193 0.929 . S
N188 Mn181 2.257 . S
N188 C187 1.326 . S
N188 C192 1.362 . S
C189 C190 1.258 . S
C189 C192 1.431 . S
C189 C209 1.449 . S
C190 C189 1.258 . S
C190 C191 1.477 . S
C190 H210 0.931 . S
C191 C187 1.460 . S
C191 C190 1.477 . S
C191 H211 0.930 . S
C192 N188 1.362 . S
C192 C189 1.431 . S
C192 C202 1.476 . S
H193 C187 0.929 . S
C194 O185 1.250 . S
C194 O186 1.258 . S
O195 Mn180 2.162 . S
O195 C183 1.281 . S
O196 Mn180 2.297 . S
O196 C183 1.236 . S
N197 Mn181 2.282 . S
N197 C198 1.328 . S
N197 C202 1.318 . S
C198 N197 1.328 . S
C198 C199 1.457 . S
C198 H203 0.929 . S
C199 C198 1.457 . S
C199 C200 1.291 . S
C199 H212 0.931 . S
C200 C199 1.291 . S
C200 C201 1.373 . S
C200 H213 0.929 . S
C201 C200 1.373 . S
C201 C202 1.396 . S
C201 C208 1.403 . S
C202 C192 1.476 . S
C202 N197 1.318 . S
C202 C201 1.396 . S
H203 C198 0.929 . S
O204 Mn180 2.385 . S
O204 C182 1.234 . S
O205 Mn180 2.209 . S
O205 Mn181 2.215 . S
O205 C182 1.283 . S
O206 Mn180 2.094 . S
O206 C184 1.240 . S
O207 Mn181 2.117 . S
O207 C184 1.264 . S
C208 C201 1.403 . S
C208 C209 1.399 . S
C208 H214 0.929 . S
C209 C189 1.449 . S
C209 C208 1.399 . S
C209 H215 0.930 . S
H210 C190 0.931 . S
H211 C191 0.930 . S
H212 C199 0.931 . S
H213 C200 0.929 . S
H214 C208 0.929 . S
H215 C209 0.930 . S
Mn216 O221 2.095 . S
Mn216 O231 2.162 . S
Mn216 O232 2.297 . S
Mn216 O240 2.385 . S
Mn216 O241 2.209 . S
Mn216 O242 2.094 . S
Mn217 O222 2.121 . S
Mn217 N224 2.257 . S
Mn217 N233 2.282 . S
Mn217 O241 2.215 . S
Mn217 O243 2.117 . S
C218 O240 1.234 . S
C218 O241 1.283 . S
C219 O231 1.281 . S
C219 O232 1.236 . S
C220 O242 1.240 . S
C220 O243 1.264 . S
O221 Mn216 2.095 . S
O221 C230 1.250 . S
O222 Mn217 2.121 . S
O222 C230 1.258 . S
C223 N224 1.326 . S
C223 C227 1.460 . S
C223 H229 0.929 . S
N224 Mn217 2.257 . S
N224 C223 1.326 . S
N224 C228 1.362 . S
C225 C226 1.258 . S
C225 C228 1.431 . S
C225 C245 1.449 . S
C226 C225 1.258 . S
C226 C227 1.477 . S
C226 H246 0.931 . S
C227 C223 1.460 . S
C227 C226 1.477 . S
C227 H247 0.930 . S
C228 N224 1.362 . S
C228 C225 1.431 . S
C228 C238 1.476 . S
H229 C223 0.929 . S
C230 O221 1.250 . S
C230 O222 1.258 . S
O231 Mn216 2.162 . S
O231 C219 1.281 . S
O232 Mn216 2.297 . S
O232 C219 1.236 . S
N233 Mn217 2.282 . S
N233 C234 1.328 . S
N233 C238 1.318 . S
C234 N233 1.328 . S
C234 C235 1.457 1_655 S
C234 H239 0.929 1_655 S
C235 C234 1.457 1_455 S
C235 C236 1.291 1_455 S
C235 H248 0.931 . S
C236 C235 1.291 1_655 S
C236 C237 1.373 . S
C236 H249 0.929 1_655 S
C237 C236 1.373 . S
C237 C238 1.396 . S
C237 C244 1.403 . S
C238 C228 1.476 . S
C238 N233 1.318 . S
C238 C237 1.396 . S
H239 C234 0.929 1_455 S
O240 Mn216 2.385 . S
O240 C218 1.234 . S
O241 Mn216 2.209 . S
O241 Mn217 2.215 . S
O241 C218 1.283 . S
O242 Mn216 2.094 . S
O242 C220 1.240 . S
O243 Mn217 2.117 . S
O243 C220 1.264 . S
C244 C237 1.403 . S
C244 C245 1.399 . S
C244 H250 0.929 . S
C245 C225 1.449 . S
C245 C244 1.399 . S
C245 H251 0.930 . S
H246 C226 0.931 . S
H247 C227 0.930 . S
H248 C235 0.931 . S
H249 C236 0.929 1_455 S
H250 C244 0.929 . S
H251 C245 0.930 . S
Mn252 O257 2.095 . S
Mn252 O267 2.162 . S
Mn252 O268 2.297 . S
Mn252 O276 2.385 . S
Mn252 O277 2.209 . S
Mn252 O278 2.094 . S
Mn253 O258 2.121 . S
Mn253 N260 2.257 . S
Mn253 N269 2.282 . S
Mn253 O277 2.215 . S
Mn253 O279 2.117 . S
C254 O276 1.234 . S
C254 O277 1.283 . S
C255 O267 1.281 . S
C255 O268 1.236 . S
C256 O278 1.240 . S
C256 O279 1.264 . S
O257 Mn252 2.095 . S
O257 C266 1.250 . S
O258 Mn253 2.121 . S
O258 C266 1.258 . S
C259 N260 1.326 . S
C259 C263 1.460 . S
C259 H265 0.929 . S
N260 Mn253 2.257 . S
N260 C259 1.326 . S
N260 C264 1.362 . S
C261 C262 1.258 . S
C261 C264 1.431 . S
C261 C281 1.449 . S
C262 C261 1.258 . S
C262 C263 1.477 . S
C262 H282 0.931 . S
C263 C259 1.460 . S
C263 C262 1.477 . S
C263 H283 0.930 . S
C264 N260 1.362 . S
C264 C261 1.431 . S
C264 C274 1.476 . S
H265 C259 0.929 . S
C266 O257 1.250 . S
C266 O258 1.258 . S
O267 Mn252 2.162 . S
O267 C255 1.281 . S
O268 Mn252 2.297 . S
O268 C255 1.236 . S
N269 Mn253 2.282 . S
N269 C270 1.328 . S
N269 C274 1.318 . S
C270 N269 1.328 . S
C270 C271 1.457 . S
C270 H275 0.929 . S
C271 C270 1.457 . S
C271 C272 1.291 . S
C271 H284 0.931 . S
C272 C271 1.291 . S
C272 C273 1.373 . S
C272 H285 0.929 . S
C273 C272 1.373 . S
C273 C274 1.396 . S
C273 C280 1.403 . S
C274 C264 1.476 . S
C274 N269 1.318 . S
C274 C273 1.396 . S
H275 C270 0.929 . S
O276 Mn252 2.385 . S
O276 C254 1.234 . S
O277 Mn252 2.209 . S
O277 Mn253 2.215 . S
O277 C254 1.283 . S
O278 Mn252 2.094 . S
O278 C256 1.240 . S
O279 Mn253 2.117 . S
O279 C256 1.264 . S
C280 C273 1.403 . S
C280 C281 1.399 . S
C280 H286 0.929 . S
C281 C261 1.449 . S
C281 C280 1.399 . S
C281 H287 0.930 . S
H282 C262 0.931 . S
H283 C263 0.930 . S
H284 C271 0.931 . S
H285 C272 0.929 . S
H286 C280 0.929 . S
H287 C281 0.930 . S
Mn288 O293 2.095 . S
Mn288 O303 2.162 . S
Mn288 O304 2.297 . S
Mn288 O312 2.385 . S
Mn288 O313 2.209 . S
Mn288 O314 2.094 . S
Mn289 O294 2.121 . S
Mn289 N296 2.257 . S
Mn289 N305 2.282 . S
Mn289 O313 2.215 . S
Mn289 O315 2.117 . S
C290 O312 1.234 . S
C290 O313 1.283 . S
C291 O303 1.281 . S
C291 O304 1.236 . S
C292 O314 1.240 . S
C292 O315 1.264 . S
O293 Mn288 2.095 . S
O293 C302 1.250 . S
O294 Mn289 2.121 . S
O294 C302 1.258 . S
C295 N296 1.326 . S
C295 C299 1.460 . S
C295 H301 0.929 . S
N296 Mn289 2.257 . S
N296 C295 1.326 . S
N296 C300 1.362 . S
C297 C298 1.258 . S
C297 C300 1.431 . S
C297 C317 1.449 . S
C298 C297 1.258 . S
C298 C299 1.477 . S
C298 H318 0.931 . S
C299 C295 1.460 . S
C299 C298 1.477 . S
C299 H319 0.930 . S
C300 N296 1.362 . S
C300 C297 1.431 . S
C300 C310 1.476 . S
H301 C295 0.929 . S
C302 O293 1.250 . S
C302 O294 1.258 . S
O303 Mn288 2.162 . S
O303 C291 1.281 . S
O304 Mn288 2.297 . S
O304 C291 1.236 . S
N305 Mn289 2.282 . S
N305 C306 1.328 . S
N305 C310 1.318 . S
C306 N305 1.328 . S
C306 C307 1.457 1_545 S
C306 H311 0.929 1_545 S
C307 C306 1.457 1_565 S
C307 C308 1.291 1_565 S
C307 H320 0.931 . S
C308 C307 1.291 1_545 S
C308 C309 1.373 . S
C308 H321 0.929 1_545 S
C309 C308 1.373 . S
C309 C310 1.396 . S
C309 C316 1.403 . S
C310 C300 1.476 . S
C310 N305 1.318 . S
C310 C309 1.396 . S
H311 C306 0.929 1_565 S
O312 Mn288 2.385 . S
O312 C290 1.234 . S
O313 Mn288 2.209 . S
O313 Mn289 2.215 . S
O313 C290 1.283 . S
O314 Mn288 2.094 . S
O314 C292 1.240 . S
O315 Mn289 2.117 . S
O315 C292 1.264 . S
C316 C309 1.403 . S
C316 C317 1.399 . S
C316 H322 0.929 . S
C317 C297 1.449 . S
C317 C316 1.399 . S
C317 H323 0.930 . S
H318 C298 0.931 . S
H319 C299 0.930 . S
H320 C307 0.931 . S
H321 C308 0.929 1_565 S
H322 C316 0.929 . S
H323 C317 0.930 . S
Mn324 O329 2.095 . S
Mn324 O339 2.162 . S
Mn324 O340 2.297 . S
Mn324 O348 2.385 . S
Mn324 O349 2.209 . S
Mn324 O350 2.094 . S
Mn325 O330 2.121 . S
Mn325 N332 2.257 . S
Mn325 N341 2.282 . S
Mn325 O349 2.215 . S
Mn325 O351 2.117 . S
C326 O348 1.234 . S
C326 O349 1.283 . S
C327 O339 1.281 . S
C327 O340 1.236 . S
C328 O350 1.240 . S
C328 O351 1.264 . S
O329 Mn324 2.095 . S
O329 C338 1.250 . S
O330 Mn325 2.121 . S
O330 C338 1.258 . S
C331 N332 1.326 . S
C331 C335 1.460 . S
C331 H337 0.929 . S
N332 Mn325 2.257 . S
N332 C331 1.326 . S
N332 C336 1.362 . S
C333 C334 1.258 . S
C333 C336 1.431 . S
C333 C353 1.449 . S
C334 C333 1.258 . S
C334 C335 1.477 . S
C334 H354 0.931 . S
C335 C331 1.460 . S
C335 C334 1.477 . S
C335 H355 0.930 . S
C336 N332 1.362 . S
C336 C333 1.431 . S
C336 C346 1.476 . S
H337 C331 0.929 . S
C338 O329 1.250 . S
C338 O330 1.258 . S
O339 Mn324 2.162 . S
O339 C327 1.281 . S
O340 Mn324 2.297 . S
O340 C327 1.236 . S
N341 Mn325 2.282 . S
N341 C342 1.328 . S
N341 C346 1.318 . S
C342 N341 1.328 . S
C342 C343 1.457 . S
C342 H347 0.929 . S
C343 C342 1.457 . S
C343 C344 1.291 . S
C343 H356 0.931 . S
C344 C343 1.291 . S
C344 C345 1.373 . S
C344 H357 0.929 . S
C345 C344 1.373 . S
C345 C346 1.396 . S
C345 C352 1.403 . S
C346 C336 1.476 . S
C346 N341 1.318 . S
C346 C345 1.396 . S
H347 C342 0.929 . S
O348 Mn324 2.385 . S
O348 C326 1.234 . S
O349 Mn324 2.209 . S
O349 Mn325 2.215 . S
O349 C326 1.283 . S
O350 Mn324 2.094 . S
O350 C328 1.240 . S
O351 Mn325 2.117 . S
O351 C328 1.264 . S
C352 C345 1.403 . S
C352 C353 1.399 . S
C352 H358 0.929 . S
C353 C333 1.449 . S
C353 C352 1.399 . S
C353 H359 0.930 . S
H354 C334 0.931 . S
H355 C335 0.930 . S
H356 C343 0.931 . S
H357 C344 0.929 . S
H358 C352 0.929 . S
H359 C353 0.930 . S
Mn360 O365 2.095 . S
Mn360 O375 2.162 . S
Mn360 O376 2.297 . S
Mn360 O384 2.385 . S
Mn360 O385 2.209 . S
Mn360 O386 2.094 . S
Mn361 O366 2.121 . S
Mn361 N368 2.257 . S
Mn361 N377 2.282 . S
Mn361 O385 2.215 . S
Mn361 O387 2.117 . S
C362 O384 1.234 . S
C362 O385 1.283 . S
C363 O375 1.281 . S
C363 O376 1.236 . S
C364 O386 1.240 . S
C364 O387 1.264 . S
O365 Mn360 2.095 . S
O365 C374 1.250 . S
O366 Mn361 2.121 . S
O366 C374 1.258 . S
C367 N368 1.326 . S
C367 C371 1.460 . S
C367 H373 0.929 . S
N368 Mn361 2.257 . S
N368 C367 1.326 . S
N368 C372 1.362 . S
C369 C370 1.258 . S
C369 C372 1.431 . S
C369 C389 1.449 . S
C370 C369 1.258 . S
C370 C371 1.477 . S
C370 H390 0.931 . S
C371 C367 1.460 . S
C371 C370 1.477 . S
C371 H391 0.930 . S
C372 N368 1.362 . S
C372 C369 1.431 . S
C372 C382 1.476 . S
H373 C367 0.929 . S
C374 O365 1.250 . S
C374 O366 1.258 . S
O375 Mn360 2.162 . S
O375 C363 1.281 . S
O376 Mn360 2.297 . S
O376 C363 1.236 . S
N377 Mn361 2.282 . S
N377 C378 1.328 . S
N377 C382 1.318 . S
C378 N377 1.328 . S
C378 C379 1.457 1_565 S
C378 H383 0.929 1_565 S
C379 C378 1.457 1_545 S
C379 C380 1.291 1_545 S
C379 H392 0.931 . S
C380 C379 1.291 1_565 S
C380 C381 1.373 . S
C380 H393 0.929 1_565 S
C381 C380 1.373 . S
C381 C382 1.396 . S
C381 C388 1.403 . S
C382 C372 1.476 . S
C382 N377 1.318 . S
C382 C381 1.396 . S
H383 C378 0.929 1_545 S
O384 Mn360 2.385 . S
O384 C362 1.234 . S
O385 Mn360 2.209 . S
O385 Mn361 2.215 . S
O385 C362 1.283 . S
O386 Mn360 2.094 . S
O386 C364 1.240 . S
O387 Mn361 2.117 . S
O387 C364 1.264 . S
C388 C381 1.403 . S
C388 C389 1.399 . S
C388 H394 0.929 . S
C389 C369 1.449 . S
C389 C388 1.399 . S
C389 H395 0.930 . S
H390 C370 0.931 . S
H391 C371 0.930 . S
H392 C379 0.931 . S
H393 C380 0.929 1_545 S
H394 C388 0.929 . S
H395 C389 0.930 . S
Mn396 O401 2.095 . S
Mn396 O411 2.162 . S
Mn396 O412 2.297 . S
Mn396 O420 2.385 . S
Mn396 O421 2.209 . S
Mn396 O422 2.094 . S
Mn397 O402 2.121 . S
Mn397 N404 2.257 . S
Mn397 N413 2.282 . S
Mn397 O421 2.215 . S
Mn397 O423 2.117 . S
C398 O420 1.234 . S
C398 O421 1.283 . S
C399 O411 1.281 . S
C399 O412 1.236 . S
C400 O422 1.240 . S
C400 O423 1.264 . S
O401 Mn396 2.095 . S
O401 C410 1.250 . S
O402 Mn397 2.121 . S
O402 C410 1.258 . S
C403 N404 1.326 . S
C403 C407 1.460 . S
C403 H409 0.929 . S
N404 Mn397 2.257 . S
N404 C403 1.326 . S
N404 C408 1.362 . S
C405 C406 1.258 . S
C405 C408 1.431 . S
C405 C425 1.449 . S
C406 C405 1.258 . S
C406 C407 1.477 . S
C406 H426 0.931 . S
C407 C403 1.460 . S
C407 C406 1.477 . S
C407 H427 0.930 . S
C408 N404 1.362 . S
C408 C405 1.431 . S
C408 C418 1.476 . S
H409 C403 0.929 . S
C410 O401 1.250 . S
C410 O402 1.258 . S
O411 Mn396 2.162 . S
O411 C399 1.281 . S
O412 Mn396 2.297 . S
O412 C399 1.236 . S
N413 Mn397 2.282 . S
N413 C414 1.328 . S
N413 C418 1.318 . S
C414 N413 1.328 . S
C414 C415 1.457 . S
C414 H419 0.929 . S
C415 C414 1.457 . S
C415 C416 1.291 . S
C415 H428 0.931 . S
C416 C415 1.291 . S
C416 C417 1.373 . S
C416 H429 0.929 . S
C417 C416 1.373 . S
C417 C418 1.396 . S
C417 C424 1.403 . S
C418 C408 1.476 . S
C418 N413 1.318 . S
C418 C417 1.396 . S
H419 C414 0.929 . S
O420 Mn396 2.385 . S
O420 C398 1.234 . S
O421 Mn396 2.209 . S
O421 Mn397 2.215 . S
O421 C398 1.283 . S
O422 Mn396 2.094 . S
O422 C400 1.240 . S
O423 Mn397 2.117 . S
O423 C400 1.264 . S
C424 C417 1.403 . S
C424 C425 1.399 . S
C424 H430 0.929 . S
C425 C405 1.449 . S
C425 C424 1.399 . S
C425 H431 0.930 . S
H426 C406 0.931 . S
H427 C407 0.930 . S
H428 C415 0.931 . S
H429 C416 0.929 . S
H430 C424 0.929 . S
H431 C425 0.930 . S
Mn432 O437 2.095 . S
Mn432 O447 2.162 . S
Mn432 O448 2.297 . S
Mn432 O456 2.385 . S
Mn432 O457 2.209 . S
Mn432 O458 2.094 . S
Mn433 O438 2.121 . S
Mn433 N440 2.257 . S
Mn433 N449 2.282 . S
Mn433 O457 2.215 . S
Mn433 O459 2.117 . S
C434 O456 1.234 . S
C434 O457 1.283 . S
C435 O447 1.281 . S
C435 O448 1.236 . S
C436 O458 1.240 . S
C436 O459 1.264 . S
O437 Mn432 2.095 . S
O437 C446 1.250 . S
O438 Mn433 2.121 . S
O438 C446 1.258 . S
C439 N440 1.326 . S
C439 C443 1.460 . S
C439 H445 0.929 . S
N440 Mn433 2.257 . S
N440 C439 1.326 . S
N440 C444 1.362 . S
C441 C442 1.258 . S
C441 C444 1.431 . S
C441 C461 1.449 . S
C442 C441 1.258 . S
C442 C443 1.477 . S
C442 H462 0.931 . S
C443 C439 1.460 . S
C443 C442 1.477 . S
C443 H463 0.930 . S
C444 N440 1.362 . S
C444 C441 1.431 . S
C444 C454 1.476 . S
H445 C439 0.929 . S
C446 O437 1.250 . S
C446 O438 1.258 . S
O447 Mn432 2.162 . S
O447 C435 1.281 . S
O448 Mn432 2.297 . S
O448 C435 1.236 . S
N449 Mn433 2.282 . S
N449 C450 1.328 . S
N449 C454 1.318 . S
C450 N449 1.328 . S
C450 C451 1.457 1_565 S
C450 H455 0.929 1_565 S
C451 C450 1.457 1_545 S
C451 C452 1.291 1_545 S
C451 H464 0.931 . S
C452 C451 1.291 1_565 S
C452 C453 1.373 . S
C452 H465 0.929 1_565 S
C453 C452 1.373 . S
C453 C454 1.396 . S
C453 C460 1.403 . S
C454 C444 1.476 . S
C454 N449 1.318 . S
C454 C453 1.396 . S
H455 C450 0.929 1_545 S
O456 Mn432 2.385 . S
O456 C434 1.234 . S
O457 Mn432 2.209 . S
O457 Mn433 2.215 . S
O457 C434 1.283 . S
O458 Mn432 2.094 . S
O458 C436 1.240 . S
O459 Mn433 2.117 . S
O459 C436 1.264 . S
C460 C453 1.403 . S
C460 C461 1.399 . S
C460 H466 0.929 . S
C461 C441 1.449 . S
C461 C460 1.399 . S
C461 H467 0.930 . S
H462 C442 0.931 . S
H463 C443 0.930 . S
H464 C451 0.931 . S
H465 C452 0.929 1_545 S
H466 C460 0.929 . S
H467 C461 0.930 . S
Mn468 O473 2.095 . S
Mn468 O483 2.162 . S
Mn468 O484 2.297 . S
Mn468 O492 2.385 . S
Mn468 O493 2.209 . S
Mn468 O494 2.094 . S
Mn469 O474 2.121 . S
Mn469 N476 2.257 . S
Mn469 N485 2.282 . S
Mn469 O493 2.215 . S
Mn469 O495 2.117 . S
C470 O492 1.234 . S
C470 O493 1.283 . S
C471 O483 1.281 . S
C471 O484 1.236 . S
C472 O494 1.240 . S
C472 O495 1.264 . S
O473 Mn468 2.095 . S
O473 C482 1.250 . S
O474 Mn469 2.121 . S
O474 C482 1.258 . S
C475 N476 1.326 . S
C475 C479 1.460 . S
C475 H481 0.929 . S
N476 Mn469 2.257 . S
N476 C475 1.326 . S
N476 C480 1.362 . S
C477 C478 1.258 . S
C477 C480 1.431 . S
C477 C497 1.449 . S
C478 C477 1.258 . S
C478 C479 1.477 . S
C478 H498 0.931 . S
C479 C475 1.460 . S
C479 C478 1.477 . S
C479 H499 0.930 . S
C480 N476 1.362 . S
C480 C477 1.431 . S
C480 C490 1.476 . S
H481 C475 0.929 . S
C482 O473 1.250 . S
C482 O474 1.258 . S
O483 Mn468 2.162 . S
O483 C471 1.281 . S
O484 Mn468 2.297 . S
O484 C471 1.236 . S
N485 Mn469 2.282 . S
N485 C486 1.328 . S
N485 C490 1.318 . S
C486 N485 1.328 . S
C486 C487 1.457 . S
C486 H491 0.929 . S
C487 C486 1.457 . S
C487 C488 1.291 . S
C487 H500 0.931 . S
C488 C487 1.291 . S
C488 C489 1.373 . S
C488 H501 0.929 . S
C489 C488 1.373 . S
C489 C490 1.396 . S
C489 C496 1.403 . S
C490 C480 1.476 . S
C490 N485 1.318 . S
C490 C489 1.396 . S
H491 C486 0.929 . S
O492 Mn468 2.385 . S
O492 C470 1.234 . S
O493 Mn468 2.209 . S
O493 Mn469 2.215 . S
O493 C470 1.283 . S
O494 Mn468 2.094 . S
O494 C472 1.240 . S
O495 Mn469 2.117 . S
O495 C472 1.264 . S
C496 C489 1.403 . S
C496 C497 1.399 . S
C496 H502 0.929 . S
C497 C477 1.449 . S
C497 C496 1.399 . S
C497 H503 0.930 . S
H498 C478 0.931 . S
H499 C479 0.930 . S
H500 C487 0.931 . S
H501 C488 0.929 . S
H502 C496 0.929 . S
H503 C497 0.930 . S
Mn504 O509 2.095 . S
Mn504 O519 2.162 . S
Mn504 O520 2.297 . S
Mn504 O528 2.385 . S
Mn504 O529 2.209 . S
Mn504 O530 2.094 . S
Mn505 O510 2.121 . S
Mn505 N512 2.257 . S
Mn505 N521 2.282 . S
Mn505 O529 2.215 . S
Mn505 O531 2.117 . S
C506 O528 1.234 . S
C506 O529 1.283 . S
C507 O519 1.281 . S
C507 O520 1.236 . S
C508 O530 1.240 . S
C508 O531 1.264 . S
O509 Mn504 2.095 . S
O509 C518 1.250 . S
O510 Mn505 2.121 . S
O510 C518 1.258 . S
C511 N512 1.326 . S
C511 C515 1.460 . S
C511 H517 0.929 . S
N512 Mn505 2.257 . S
N512 C511 1.326 . S
N512 C516 1.362 . S
C513 C514 1.258 . S
C513 C516 1.431 . S
C513 C533 1.449 . S
C514 C513 1.258 . S
C514 C515 1.477 . S
C514 H534 0.931 . S
C515 C511 1.460 . S
C515 C514 1.477 . S
C515 H535 0.930 . S
C516 N512 1.362 . S
C516 C513 1.431 . S
C516 C526 1.476 . S
H517 C511 0.929 . S
C518 O509 1.250 . S
C518 O510 1.258 . S
O519 Mn504 2.162 . S
O519 C507 1.281 . S
O520 Mn504 2.297 . S
O520 C507 1.236 . S
N521 Mn505 2.282 . S
N521 C522 1.328 . S
N521 C526 1.318 . S
C522 N521 1.328 . S
C522 C523 1.457 1_545 S
C522 H527 0.929 1_545 S
C523 C522 1.457 1_565 S
C523 C524 1.291 1_565 S
C523 H536 0.931 . S
C524 C523 1.291 1_545 S
C524 C525 1.373 . S
C524 H537 0.929 1_545 S
C525 C524 1.373 . S
C525 C526 1.396 . S
C525 C532 1.403 . S
C526 C516 1.476 . S
C526 N521 1.318 . S
C526 C525 1.396 . S
H527 C522 0.929 1_565 S
O528 Mn504 2.385 . S
O528 C506 1.234 . S
O529 Mn504 2.209 . S
O529 Mn505 2.215 . S
O529 C506 1.283 . S
O530 Mn504 2.094 . S
O530 C508 1.240 . S
O531 Mn505 2.117 . S
O531 C508 1.264 . S
C532 C525 1.403 . S
C532 C533 1.399 . S
C532 H538 0.929 . S
C533 C513 1.449 . S
C533 C532 1.399 . S
C533 H539 0.930 . S
H534 C514 0.931 . S
H535 C515 0.930 . S
H536 C523 0.931 . S
H537 C524 0.929 1_565 S
H538 C532 0.929 . S
H539 C533 0.930 . S
Mn540 O545 2.095 . S
Mn540 O555 2.162 . S
Mn540 O556 2.297 . S
Mn540 O564 2.385 . S
Mn540 O565 2.209 . S
Mn540 O566 2.094 . S
Mn541 O546 2.121 . S
Mn541 N548 2.257 . S
Mn541 N557 2.282 . S
Mn541 O565 2.215 . S
Mn541 O567 2.117 . S
C542 O564 1.234 . S
C542 O565 1.283 . S
C543 O555 1.281 . S
C543 O556 1.236 . S
C544 O566 1.240 . S
C544 O567 1.264 . S
O545 Mn540 2.095 . S
O545 C554 1.250 . S
O546 Mn541 2.121 . S
O546 C554 1.258 . S
C547 N548 1.326 . S
C547 C551 1.460 . S
C547 H553 0.929 . S
N548 Mn541 2.257 . S
N548 C547 1.326 . S
N548 C552 1.362 . S
C549 C550 1.258 . S
C549 C552 1.431 . S
C549 C569 1.449 . S
C550 C549 1.258 . S
C550 C551 1.477 . S
C550 H570 0.931 . S
C551 C547 1.460 . S
C551 C550 1.477 . S
C551 H571 0.930 . S
C552 N548 1.362 . S
C552 C549 1.431 . S
C552 C562 1.476 . S
H553 C547 0.929 . S
C554 O545 1.250 . S
C554 O546 1.258 . S
O555 Mn540 2.162 . S
O555 C543 1.281 . S
O556 Mn540 2.297 . S
O556 C543 1.236 . S
N557 Mn541 2.282 . S
N557 C558 1.328 . S
N557 C562 1.318 . S
C558 N557 1.328 . S
C558 C559 1.457 . S
C558 H563 0.929 . S
C559 C558 1.457 . S
C559 C560 1.291 . S
C559 H572 0.931 . S
C560 C559 1.291 . S
C560 C561 1.373 . S
C560 H573 0.929 . S
C561 C560 1.373 . S
C561 C562 1.396 . S
C561 C568 1.403 . S
C562 C552 1.476 . S
C562 N557 1.318 . S
C562 C561 1.396 . S
H563 C558 0.929 . S
O564 Mn540 2.385 . S
O564 C542 1.234 . S
O565 Mn540 2.209 . S
O565 Mn541 2.215 . S
O565 C542 1.283 . S
O566 Mn540 2.094 . S
O566 C544 1.240 . S
O567 Mn541 2.117 . S
O567 C544 1.264 . S
C568 C561 1.403 . S
C568 C569 1.399 . S
C568 H574 0.929 . S
C569 C549 1.449 . S
C569 C568 1.399 . S
C569 H575 0.930 . S
H570 C550 0.931 . S
H571 C551 0.930 . S
H572 C559 0.931 . S
H573 C560 0.929 . S
H574 C568 0.929 . S
H575 C569 0.930 . S
Mn576 O581 2.095 . S
Mn576 O591 2.162 . S
Mn576 O592 2.297 . S
Mn576 O600 2.385 . S
Mn576 O601 2.209 . S
Mn576 O602 2.094 . S
Mn577 O582 2.121 . S
Mn577 N584 2.257 . S
Mn577 N593 2.282 . S
Mn577 O601 2.215 . S
Mn577 O603 2.117 . S
C578 O600 1.234 . S
C578 O601 1.283 . S
C579 O591 1.281 . S
C579 O592 1.236 . S
C580 O602 1.240 . S
C580 O603 1.264 . S
O581 Mn576 2.095 . S
O581 C590 1.250 . S
O582 Mn577 2.121 . S
O582 C590 1.258 . S
C583 N584 1.326 . S
C583 C587 1.460 . S
C583 H589 0.929 . S
N584 Mn577 2.257 . S
N584 C583 1.326 . S
N584 C588 1.362 . S
C585 C586 1.258 . S
C585 C588 1.431 . S
C585 C605 1.449 . S
C586 C585 1.258 . S
C586 C587 1.477 . S
C586 H606 0.931 . S
C587 C583 1.460 . S
C587 C586 1.477 . S
C587 H607 0.930 . S
C588 N584 1.362 . S
C588 C585 1.431 . S
C588 C598 1.476 . S
H589 C583 0.929 . S
C590 O581 1.250 . S
C590 O582 1.258 . S
O591 Mn576 2.162 . S
O591 C579 1.281 . S
O592 Mn576 2.297 . S
O592 C579 1.236 . S
N593 Mn577 2.282 . S
N593 C594 1.328 . S
N593 C598 1.318 . S
C594 N593 1.328 . S
C594 C595 1.457 1_554 S
C594 H599 0.929 1_554 S
C595 C594 1.457 1_556 S
C595 C596 1.291 1_556 S
C595 H608 0.931 . S
C596 C595 1.291 1_554 S
C596 C597 1.373 . S
C596 H609 0.929 1_554 S
C597 C596 1.373 . S
C597 C598 1.396 . S
C597 C604 1.403 . S
C598 C588 1.476 . S
C598 N593 1.318 . S
C598 C597 1.396 . S
H599 C594 0.929 1_556 S
O600 Mn576 2.385 . S
O600 C578 1.234 . S
O601 Mn576 2.209 . S
O601 Mn577 2.215 . S
O601 C578 1.283 . S
O602 Mn576 2.094 . S
O602 C580 1.240 . S
O603 Mn577 2.117 . S
O603 C580 1.264 . S
C604 C597 1.403 . S
C604 C605 1.399 . S
C604 H610 0.929 . S
C605 C585 1.449 . S
C605 C604 1.399 . S
C605 H611 0.930 . S
H606 C586 0.931 . S
H607 C587 0.930 . S
H608 C595 0.931 . S
H609 C596 0.929 1_556 S
H610 C604 0.929 . S
H611 C605 0.930 . S
Mn612 O617 2.095 . S
Mn612 O627 2.162 . S
Mn612 O628 2.297 . S
Mn612 O636 2.385 . S
Mn612 O637 2.209 . S
Mn612 O638 2.094 . S
Mn613 O618 2.121 . S
Mn613 N620 2.257 . S
Mn613 N629 2.282 . S
Mn613 O637 2.215 . S
Mn613 O639 2.117 . S
C614 O636 1.234 . S
C614 O637 1.283 . S
C615 O627 1.281 . S
C615 O628 1.236 . S
C616 O638 1.240 . S
C616 O639 1.264 . S
O617 Mn612 2.095 . S
O617 C626 1.250 . S
O618 Mn613 2.121 . S
O618 C626 1.258 . S
C619 N620 1.326 . S
C619 C623 1.460 . S
C619 H625 0.929 . S
N620 Mn613 2.257 . S
N620 C619 1.326 . S
N620 C624 1.362 . S
C621 C622 1.258 . S
C621 C624 1.431 . S
C621 C641 1.449 . S
C622 C621 1.258 . S
C622 C623 1.477 . S
C622 H642 0.931 . S
C623 C619 1.460 . S
C623 C622 1.477 . S
C623 H643 0.930 . S
C624 N620 1.362 . S
C624 C621 1.431 . S
C624 C634 1.476 . S
H625 C619 0.929 . S
C626 O617 1.250 . S
C626 O618 1.258 . S
O627 Mn612 2.162 . S
O627 C615 1.281 . S
O628 Mn612 2.297 . S
O628 C615 1.236 . S
N629 Mn613 2.282 . S
N629 C630 1.328 . S
N629 C634 1.318 . S
C630 N629 1.328 . S
C630 C631 1.457 1_556 S
C630 H635 0.929 1_556 S
C631 C630 1.457 1_554 S
C631 C632 1.291 1_554 S
C631 H644 0.931 . S
C632 C631 1.291 1_556 S
C632 C633 1.373 . S
C632 H645 0.929 1_556 S
C633 C632 1.373 . S
C633 C634 1.396 . S
C633 C640 1.403 . S
C634 C624 1.476 . S
C634 N629 1.318 . S
C634 C633 1.396 . S
H635 C630 0.929 1_554 S
O636 Mn612 2.385 . S
O636 C614 1.234 . S
O637 Mn612 2.209 . S
O637 Mn613 2.215 . S
O637 C614 1.283 . S
O638 Mn612 2.094 . S
O638 C616 1.240 . S
O639 Mn613 2.117 . S
O639 C616 1.264 . S
C640 C633 1.403 . S
C640 C641 1.399 . S
C640 H646 0.929 . S
C641 C621 1.449 . S
C641 C640 1.399 . S
C641 H647 0.930 . S
H642 C622 0.931 . S
H643 C623 0.930 . S
H644 C631 0.931 . S
H645 C632 0.929 1_554 S
H646 C640 0.929 . S
H647 C641 0.930 . S
Mn648 O653 2.095 . S
Mn648 O663 2.162 . S
Mn648 O664 2.297 . S
Mn648 O672 2.385 . S
Mn648 O673 2.209 . S
Mn648 O674 2.094 . S
Mn649 O654 2.121 . S
Mn649 N656 2.257 . S
Mn649 N665 2.282 . S
Mn649 O673 2.215 . S
Mn649 O675 2.117 . S
C650 O672 1.234 . S
C650 O673 1.283 . S
C651 O663 1.281 . S
C651 O664 1.236 . S
C652 O674 1.240 . S
C652 O675 1.264 . S
O653 Mn648 2.095 . S
O653 C662 1.250 . S
O654 Mn649 2.121 . S
O654 C662 1.258 . S
C655 N656 1.326 . S
C655 C659 1.460 . S
C655 H661 0.929 . S
N656 Mn649 2.257 . S
N656 C655 1.326 . S
N656 C660 1.362 . S
C657 C658 1.258 . S
C657 C660 1.431 . S
C657 C677 1.449 . S
C658 C657 1.258 . S
C658 C659 1.477 . S
C658 H678 0.931 . S
C659 C655 1.460 . S
C659 C658 1.477 . S
C659 H679 0.930 . S
C660 N656 1.362 . S
C660 C657 1.431 . S
C660 C670 1.476 . S
H661 C655 0.929 . S
C662 O653 1.250 . S
C662 O654 1.258 . S
O663 Mn648 2.162 . S
O663 C651 1.281 . S
O664 Mn648 2.297 . S
O664 C651 1.236 . S
N665 Mn649 2.282 . S
N665 C666 1.328 . S
N665 C670 1.318 . S
C666 N665 1.328 . S
C666 C667 1.457 . S
C666 H671 0.929 . S
C667 C666 1.457 . S
C667 C668 1.291 . S
C667 H680 0.931 . S
C668 C667 1.291 . S
C668 C669 1.373 . S
C668 H681 0.929 . S
C669 C668 1.373 . S
C669 C670 1.396 . S
C669 C676 1.403 . S
C670 C660 1.476 . S
C670 N665 1.318 . S
C670 C669 1.396 . S
H671 C666 0.929 . S
O672 Mn648 2.385 . S
O672 C650 1.234 . S
O673 Mn648 2.209 . S
O673 Mn649 2.215 . S
O673 C650 1.283 . S
O674 Mn648 2.094 . S
O674 C652 1.240 . S
O675 Mn649 2.117 . S
O675 C652 1.264 . S
C676 C669 1.403 . S
C676 C677 1.399 . S
C676 H682 0.929 . S
C677 C657 1.449 . S
C677 C676 1.399 . S
C677 H683 0.930 . S
H678 C658 0.931 . S
H679 C659 0.930 . S
H680 C667 0.931 . S
H681 C668 0.929 . S
H682 C676 0.929 . S
H683 C677 0.930 . S
Mn684 O689 2.095 . S
Mn684 O699 2.162 . S
Mn684 O700 2.297 . S
Mn684 O708 2.385 . S
Mn684 O709 2.209 . S
Mn684 O710 2.094 . S
Mn685 O690 2.121 . S
Mn685 N692 2.257 . S
Mn685 N701 2.282 . S
Mn685 O709 2.215 . S
Mn685 O711 2.117 . S
C686 O708 1.234 . S
C686 O709 1.283 . S
C687 O699 1.281 . S
C687 O700 1.236 . S
C688 O710 1.240 . S
C688 O711 1.264 . S
O689 Mn684 2.095 . S
O689 C698 1.250 . S
O690 Mn685 2.121 . S
O690 C698 1.258 . S
C691 N692 1.326 . S
C691 C695 1.460 . S
C691 H697 0.929 . S
N692 Mn685 2.257 . S
N692 C691 1.326 . S
N692 C696 1.362 . S
C693 C694 1.258 . S
C693 C696 1.431 . S
C693 C713 1.449 . S
C694 C693 1.258 . S
C694 C695 1.477 . S
C694 H714 0.931 . S
C695 C691 1.460 . S
C695 C694 1.477 . S
C695 H715 0.930 . S
C696 N692 1.362 . S
C696 C693 1.431 . S
C696 C706 1.476 . S
H697 C691 0.929 . S
C698 O689 1.250 . S
C698 O690 1.258 . S
O699 Mn684 2.162 . S
O699 C687 1.281 . S
O700 Mn684 2.297 . S
O700 C687 1.236 . S
N701 Mn685 2.282 . S
N701 C702 1.328 . S
N701 C706 1.318 . S
C702 N701 1.328 . S
C702 C703 1.457 1_556 S
C702 H707 0.929 1_556 S
C703 C702 1.457 1_554 S
C703 C704 1.291 1_554 S
C703 H716 0.931 . S
C704 C703 1.291 1_556 S
C704 C705 1.373 . S
C704 H717 0.929 1_556 S
C705 C704 1.373 . S
C705 C706 1.396 . S
C705 C712 1.403 . S
C706 C696 1.476 . S
C706 N701 1.318 . S
C706 C705 1.396 . S
H707 C702 0.929 1_554 S
O708 Mn684 2.385 . S
O708 C686 1.234 . S
O709 Mn684 2.209 . S
O709 Mn685 2.215 . S
O709 C686 1.283 . S
O710 Mn684 2.094 . S
O710 C688 1.240 . S
O711 Mn685 2.117 . S
O711 C688 1.264 . S
C712 C705 1.403 . S
C712 C713 1.399 . S
C712 H718 0.929 . S
C713 C693 1.449 . S
C713 C712 1.399 . S
C713 H719 0.930 . S
H714 C694 0.931 . S
H715 C695 0.930 . S
H716 C703 0.931 . S
H717 C704 0.929 1_554 S
H718 C712 0.929 . S
H719 C713 0.930 . S
Mn720 O725 2.095 . S
Mn720 O735 2.162 . S
Mn720 O736 2.297 . S
Mn720 O744 2.385 . S
Mn720 O745 2.209 . S
Mn720 O746 2.094 . S
Mn721 O726 2.121 . S
Mn721 N728 2.257 . S
Mn721 N737 2.282 . S
Mn721 O745 2.215 . S
Mn721 O747 2.117 . S
C722 O744 1.234 . S
C722 O745 1.283 . S
C723 O735 1.281 . S
C723 O736 1.236 . S
C724 O746 1.240 . S
C724 O747 1.264 . S
O725 Mn720 2.095 . S
O725 C734 1.250 . S
O726 Mn721 2.121 . S
O726 C734 1.258 . S
C727 N728 1.326 . S
C727 C731 1.460 . S
C727 H733 0.929 . S
N728 Mn721 2.257 . S
N728 C727 1.326 . S
N728 C732 1.362 . S
C729 C730 1.258 . S
C729 C732 1.431 . S
C729 C749 1.449 . S
C730 C729 1.258 . S
C730 C731 1.477 . S
C730 H750 0.931 . S
C731 C727 1.460 . S
C731 C730 1.477 . S
C731 H751 0.930 . S
C732 N728 1.362 . S
C732 C729 1.431 . S
C732 C742 1.476 . S
H733 C727 0.929 . S
C734 O725 1.250 . S
C734 O726 1.258 . S
O735 Mn720 2.162 . S
O735 C723 1.281 . S
O736 Mn720 2.297 . S
O736 C723 1.236 . S
N737 Mn721 2.282 . S
N737 C738 1.328 . S
N737 C742 1.318 . S
C738 N737 1.328 . S
C738 C739 1.457 . S
C738 H743 0.929 . S
C739 C738 1.457 . S
C739 C740 1.291 . S
C739 H752 0.931 . S
C740 C739 1.291 . S
C740 C741 1.373 . S
C740 H753 0.929 . S
C741 C740 1.373 . S
C741 C742 1.396 . S
C741 C748 1.403 . S
C742 C732 1.476 . S
C742 N737 1.318 . S
C742 C741 1.396 . S
H743 C738 0.929 . S
O744 Mn720 2.385 . S
O744 C722 1.234 . S
O745 Mn720 2.209 . S
O745 Mn721 2.215 . S
O745 C722 1.283 . S
O746 Mn720 2.094 . S
O746 C724 1.240 . S
O747 Mn721 2.117 . S
O747 C724 1.264 . S
C748 C741 1.403 . S
C748 C749 1.399 . S
C748 H754 0.929 . S
C749 C729 1.449 . S
C749 C748 1.399 . S
C749 H755 0.930 . S
H750 C730 0.931 . S
H751 C731 0.930 . S
H752 C739 0.931 . S
H753 C740 0.929 . S
H754 C748 0.929 . S
H755 C749 0.930 . S
Mn756 O761 2.095 . S
Mn756 O771 2.162 . S
Mn756 O772 2.297 . S
Mn756 O780 2.385 . S
Mn756 O781 2.209 . S
Mn756 O782 2.094 . S
Mn757 O762 2.121 . S
Mn757 N764 2.257 . S
Mn757 N773 2.282 . S
Mn757 O781 2.215 . S
Mn757 O783 2.117 . S
C758 O780 1.234 . S
C758 O781 1.283 . S
C759 O771 1.281 . S
C759 O772 1.236 . S
C760 O782 1.240 . S
C760 O783 1.264 . S
O761 Mn756 2.095 . S
O761 C770 1.250 . S
O762 Mn757 2.121 . S
O762 C770 1.258 . S
C763 N764 1.326 . S
C763 C767 1.460 . S
C763 H769 0.929 . S
N764 Mn757 2.257 . S
N764 C763 1.326 . S
N764 C768 1.362 . S
C765 C766 1.258 . S
C765 C768 1.431 . S
C765 C785 1.449 . S
C766 C765 1.258 . S
C766 C767 1.477 . S
C766 H786 0.931 . S
C767 C763 1.460 . S
C767 C766 1.477 . S
C767 H787 0.930 . S
C768 N764 1.362 . S
C768 C765 1.431 . S
C768 C778 1.476 . S
H769 C763 0.929 . S
C770 O761 1.250 . S
C770 O762 1.258 . S
O771 Mn756 2.162 . S
O771 C759 1.281 . S
O772 Mn756 2.297 . S
O772 C759 1.236 . S
N773 Mn757 2.282 . S
N773 C774 1.328 . S
N773 C778 1.318 . S
C774 N773 1.328 . S
C774 C775 1.457 1_554 S
C774 H779 0.929 1_554 S
C775 C774 1.457 1_556 S
C775 C776 1.291 1_556 S
C775 H788 0.931 . S
C776 C775 1.291 1_554 S
C776 C777 1.373 . S
C776 H789 0.929 1_554 S
C777 C776 1.373 . S
C777 C778 1.396 . S
C777 C784 1.403 . S
C778 C768 1.476 . S
C778 N773 1.318 . S
C778 C777 1.396 . S
H779 C774 0.929 1_556 S
O780 Mn756 2.385 . S
O780 C758 1.234 . S
O781 Mn756 2.209 . S
O781 Mn757 2.215 . S
O781 C758 1.283 . S
O782 Mn756 2.094 . S
O782 C760 1.240 . S
O783 Mn757 2.117 . S
O783 C760 1.264 . S
C784 C777 1.403 . S
C784 C785 1.399 . S
C784 H790 0.929 . S
C785 C765 1.449 . S
C785 C784 1.399 . S
C785 H791 0.930 . S
H786 C766 0.931 . S
H787 C767 0.930 . S
H788 C775 0.931 . S
H789 C776 0.929 1_556 S
H790 C784 0.929 . S
H791 C785 0.930 . S
Mn792 O797 2.095 . S
Mn792 O807 2.162 . S
Mn792 O808 2.297 . S
Mn792 O816 2.385 . S
Mn792 O817 2.209 . S
Mn792 O818 2.094 . S
Mn793 O798 2.121 . S
Mn793 N800 2.257 . S
Mn793 N809 2.282 . S
Mn793 O817 2.215 . S
Mn793 O819 2.117 . S
C794 O816 1.234 . S
C794 O817 1.283 . S
C795 O807 1.281 . S
C795 O808 1.236 . S
C796 O818 1.240 . S
C796 O819 1.264 . S
O797 Mn792 2.095 . S
O797 C806 1.250 . S
O798 Mn793 2.121 . S
O798 C806 1.258 . S
C799 N800 1.326 . S
C799 C803 1.460 . S
C799 H805 0.929 . S
N800 Mn793 2.257 . S
N800 C799 1.326 . S
N800 C804 1.362 . S
C801 C802 1.258 . S
C801 C804 1.431 . S
C801 C821 1.449 . S
C802 C801 1.258 . S
C802 C803 1.477 . S
C802 H822 0.931 . S
C803 C799 1.460 . S
C803 C802 1.477 . S
C803 H823 0.930 . S
C804 N800 1.362 . S
C804 C801 1.431 . S
C804 C814 1.476 . S
H805 C799 0.929 . S
C806 O797 1.250 . S
C806 O798 1.258 . S
O807 Mn792 2.162 . S
O807 C795 1.281 . S
O808 Mn792 2.297 . S
O808 C795 1.236 . S
N809 Mn793 2.282 . S
N809 C810 1.328 . S
N809 C814 1.318 . S
C810 N809 1.328 . S
C810 C811 1.457 . S
C810 H815 0.929 . S
C811 C810 1.457 . S
C811 C812 1.291 . S
C811 H824 0.931 . S
C812 C811 1.291 . S
C812 C813 1.373 . S
C812 H825 0.929 . S
C813 C812 1.373 . S
C813 C814 1.396 . S
C813 C820 1.403 . S
C814 C804 1.476 . S
C814 N809 1.318 . S
C814 C813 1.396 . S
H815 C810 0.929 . S
O816 Mn792 2.385 . S
O816 C794 1.234 . S
O817 Mn792 2.209 . S
O817 Mn793 2.215 . S
O817 C794 1.283 . S
O818 Mn792 2.094 . S
O818 C796 1.240 . S
O819 Mn793 2.117 . S
O819 C796 1.264 . S
C820 C813 1.403 . S
C820 C821 1.399 . S
C820 H826 0.929 . S
C821 C801 1.449 . S
C821 C820 1.399 . S
C821 H827 0.930 . S
H822 C802 0.931 . S
H823 C803 0.930 . S
H824 C811 0.931 . S
H825 C812 0.929 . S
H826 C820 0.929 . S
H827 C821 0.930 . S
Mn828 O833 2.095 . S
Mn828 O843 2.162 . S
Mn828 O844 2.297 . S
Mn828 O852 2.385 . S
Mn828 O853 2.209 . S
Mn828 O854 2.094 . S
Mn829 O834 2.121 . S
Mn829 N836 2.257 . S
Mn829 N845 2.282 . S
Mn829 O853 2.215 . S
Mn829 O855 2.117 . S
C830 O852 1.234 . S
C830 O853 1.283 . S
C831 O843 1.281 . S
C831 O844 1.236 . S
C832 O854 1.240 . S
C832 O855 1.264 . S
O833 Mn828 2.095 . S
O833 C842 1.250 . S
O834 Mn829 2.121 . S
O834 C842 1.258 . S
C835 N836 1.326 . S
C835 C839 1.460 . S
C835 H841 0.929 . S
N836 Mn829 2.257 . S
N836 C835 1.326 . S
N836 C840 1.362 . S
C837 C838 1.258 . S
C837 C840 1.431 . S
C837 C857 1.449 . S
C838 C837 1.258 . S
C838 C839 1.477 . S
C838 H858 0.931 . S
C839 C835 1.460 . S
C839 C838 1.477 . S
C839 H859 0.930 . S
C840 N836 1.362 . S
C840 C837 1.431 . S
C840 C850 1.476 . S
H841 C835 0.929 . S
C842 O833 1.250 . S
C842 O834 1.258 . S
O843 Mn828 2.162 . S
O843 C831 1.281 . S
O844 Mn828 2.297 . S
O844 C831 1.236 . S
N845 Mn829 2.282 . S
N845 C846 1.328 . S
N845 C850 1.318 . S
C846 N845 1.328 . S
C846 C847 1.457 . S
C846 H851 0.929 . S
C847 C846 1.457 . S
C847 C848 1.291 . S
C847 H860 0.931 . S
C848 C847 1.291 . S
C848 C849 1.373 . S
C848 H861 0.929 . S
C849 C848 1.373 . S
C849 C850 1.396 . S
C849 C856 1.403 . S
C850 C840 1.476 . S
C850 N845 1.318 . S
C850 C849 1.396 . S
H851 C846 0.929 . S
O852 Mn828 2.385 . S
O852 C830 1.234 . S
O853 Mn828 2.209 . S
O853 Mn829 2.215 . S
O853 C830 1.283 . S
O854 Mn828 2.094 . S
O854 C832 1.240 . S
O855 Mn829 2.117 . S
O855 C832 1.264 . S
C856 C849 1.403 . S
C856 C857 1.399 . S
C856 H862 0.929 . S
C857 C837 1.449 . S
C857 C856 1.399 . S
C857 H863 0.930 . S
H858 C838 0.931 . S
H859 C839 0.930 . S
H860 C847 0.931 . S
H861 C848 0.929 . S
H862 C856 0.929 . S
H863 C857 0.930 . S
Mn864 O869 2.095 . S
Mn864 O879 2.162 . S
Mn864 O880 2.297 . S
Mn864 O888 2.385 . S
Mn864 O889 2.209 . S
Mn864 O890 2.094 . S
Mn865 O870 2.121 . S
Mn865 N872 2.257 . S
Mn865 N881 2.282 . S
Mn865 O889 2.215 . S
Mn865 O891 2.117 . S
C866 O888 1.234 . S
C866 O889 1.283 . S
C867 O879 1.281 . S
C867 O880 1.236 . S
C868 O890 1.240 . S
C868 O891 1.264 . S
O869 Mn864 2.095 . S
O869 C878 1.250 . S
O870 Mn865 2.121 . S
O870 C878 1.258 . S
C871 N872 1.326 . S
C871 C875 1.460 . S
C871 H877 0.929 . S
N872 Mn865 2.257 . S
N872 C871 1.326 . S
N872 C876 1.362 . S
C873 C874 1.258 . S
C873 C876 1.431 . S
C873 C893 1.449 . S
C874 C873 1.258 . S
C874 C875 1.477 . S
C874 H894 0.931 . S
C875 C871 1.460 . S
C875 C874 1.477 . S
C875 H895 0.930 . S
C876 N872 1.362 . S
C876 C873 1.431 . S
C876 C886 1.476 . S
H877 C871 0.929 . S
C878 O869 1.250 . S
C878 O870 1.258 . S
O879 Mn864 2.162 . S
O879 C867 1.281 . S
O880 Mn864 2.297 . S
O880 C867 1.236 . S
N881 Mn865 2.282 . S
N881 C882 1.328 . S
N881 C886 1.318 . S
C882 N881 1.328 . S
C882 C883 1.457 1_655 S
C882 H887 0.929 1_655 S
C883 C882 1.457 1_455 S
C883 C884 1.291 1_455 S
C883 H896 0.931 . S
C884 C883 1.291 1_655 S
C884 C885 1.373 . S
C884 H897 0.929 1_655 S
C885 C884 1.373 . S
C885 C886 1.396 . S
C885 C892 1.403 . S
C886 C876 1.476 . S
C886 N881 1.318 . S
C886 C885 1.396 . S
H887 C882 0.929 1_455 S
O888 Mn864 2.385 . S
O888 C866 1.234 . S
O889 Mn864 2.209 . S
O889 Mn865 2.215 . S
O889 C866 1.283 . S
O890 Mn864 2.094 . S
O890 C868 1.240 . S
O891 Mn865 2.117 . S
O891 C868 1.264 . S
C892 C885 1.403 . S
C892 C893 1.399 . S
C892 H898 0.929 . S
C893 C873 1.449 . S
C893 C892 1.399 . S
C893 H899 0.930 . S
H894 C874 0.931 . S
H895 C875 0.930 . S
H896 C883 0.931 . S
H897 C884 0.929 1_455 S
H898 C892 0.929 . S
H899 C893 0.930 . S
Mn900 O905 2.095 . S
Mn900 O915 2.162 . S
Mn900 O916 2.297 . S
Mn900 O924 2.385 . S
Mn900 O925 2.209 . S
Mn900 O926 2.094 . S
Mn901 O906 2.121 . S
Mn901 N908 2.257 . S
Mn901 N917 2.282 . S
Mn901 O925 2.215 . S
Mn901 O927 2.117 . S
C902 O924 1.234 . S
C902 O925 1.283 . S
C903 O915 1.281 . S
C903 O916 1.236 . S
C904 O926 1.240 . S
C904 O927 1.264 . S
O905 Mn900 2.095 . S
O905 C914 1.250 . S
O906 Mn901 2.121 . S
O906 C914 1.258 . S
C907 N908 1.326 . S
C907 C911 1.460 . S
C907 H913 0.929 . S
N908 Mn901 2.257 . S
N908 C907 1.326 . S
N908 C912 1.362 . S
C909 C910 1.258 . S
C909 C912 1.431 . S
C909 C929 1.449 . S
C910 C909 1.258 . S
C910 C911 1.477 . S
C910 H930 0.931 . S
C911 C907 1.460 . S
C911 C910 1.477 . S
C911 H931 0.930 . S
C912 N908 1.362 . S
C912 C909 1.431 . S
C912 C922 1.476 . S
H913 C907 0.929 . S
C914 O905 1.250 . S
C914 O906 1.258 . S
O915 Mn900 2.162 . S
O915 C903 1.281 . S
O916 Mn900 2.297 . S
O916 C903 1.236 . S
N917 Mn901 2.282 . S
N917 C918 1.328 . S
N917 C922 1.318 . S
C918 N917 1.328 . S
C918 C919 1.457 . S
C918 H923 0.929 . S
C919 C918 1.457 . S
C919 C920 1.291 . S
C919 H932 0.931 . S
C920 C919 1.291 . S
C920 C921 1.373 . S
C920 H933 0.929 . S
C921 C920 1.373 . S
C921 C922 1.396 . S
C921 C928 1.403 . S
C922 C912 1.476 . S
C922 N917 1.318 . S
C922 C921 1.396 . S
H923 C918 0.929 . S
O924 Mn900 2.385 . S
O924 C902 1.234 . S
O925 Mn900 2.209 . S
O925 Mn901 2.215 . S
O925 C902 1.283 . S
O926 Mn900 2.094 . S
O926 C904 1.240 . S
O927 Mn901 2.117 . S
O927 C904 1.264 . S
C928 C921 1.403 . S
C928 C929 1.399 . S
C928 H934 0.929 . S
C929 C909 1.449 . S
C929 C928 1.399 . S
C929 H935 0.930 . S
H930 C910 0.931 . S
H931 C911 0.930 . S
H932 C919 0.931 . S
H933 C920 0.929 . S
H934 C928 0.929 . S
H935 C929 0.930 . S
Mn936 O941 2.095 . S
Mn936 O951 2.162 . S
Mn936 O952 2.297 . S
Mn936 O960 2.385 . S
Mn936 O961 2.209 . S
Mn936 O962 2.094 . S
Mn937 O942 2.121 . S
Mn937 N944 2.257 . S
Mn937 N953 2.282 . S
Mn937 O961 2.215 . S
Mn937 O963 2.117 . S
C938 O960 1.234 . S
C938 O961 1.283 . S
C939 O951 1.281 . S
C939 O952 1.236 . S
C940 O962 1.240 . S
C940 O963 1.264 . S
O941 Mn936 2.095 . S
O941 C950 1.250 . S
O942 Mn937 2.121 . S
O942 C950 1.258 . S
C943 N944 1.326 . S
C943 C947 1.460 . S
C943 H949 0.929 . S
N944 Mn937 2.257 . S
N944 C943 1.326 . S
N944 C948 1.362 . S
C945 C946 1.258 . S
C945 C948 1.431 . S
C945 C965 1.449 . S
C946 C945 1.258 . S
C946 C947 1.477 . S
C946 H966 0.931 . S
C947 C943 1.460 . S
C947 C946 1.477 . S
C947 H967 0.930 . S
C948 N944 1.362 . S
C948 C945 1.431 . S
C948 C958 1.476 . S
H949 C943 0.929 . S
C950 O941 1.250 . S
C950 O942 1.258 . S
O951 Mn936 2.162 . S
O951 C939 1.281 . S
O952 Mn936 2.297 . S
O952 C939 1.236 . S
N953 Mn937 2.282 . S
N953 C954 1.328 . S
N953 C958 1.318 . S
C954 N953 1.328 . S
C954 C955 1.457 1_455 S
C954 H959 0.929 1_455 S
C955 C954 1.457 1_655 S
C955 C956 1.291 1_655 S
C955 H968 0.931 . S
C956 C955 1.291 1_455 S
C956 C957 1.373 . S
C956 H969 0.929 1_455 S
C957 C956 1.373 . S
C957 C958 1.396 . S
C957 C964 1.403 . S
C958 C948 1.476 . S
C958 N953 1.318 . S
C958 C957 1.396 . S
H959 C954 0.929 1_655 S
O960 Mn936 2.385 . S
O960 C938 1.234 . S
O961 Mn936 2.209 . S
O961 Mn937 2.215 . S
O961 C938 1.283 . S
O962 Mn936 2.094 . S
O962 C940 1.240 . S
O963 Mn937 2.117 . S
O963 C940 1.264 . S
C964 C957 1.403 . S
C964 C965 1.399 . S
C964 H970 0.929 . S
C965 C945 1.449 . S
C965 C964 1.399 . S
C965 H971 0.930 . S
H966 C946 0.931 . S
H967 C947 0.930 . S
H968 C955 0.931 . S
H969 C956 0.929 1_655 S
H970 C964 0.929 . S
H971 C965 0.930 . S
Mn972 O977 2.095 . S
Mn972 O987 2.162 . S
Mn972 O988 2.297 . S
Mn972 O996 2.385 . S
Mn972 O997 2.209 . S
Mn972 O998 2.094 . S
Mn973 O978 2.121 . S
Mn973 N980 2.257 . S
Mn973 N989 2.282 . S
Mn973 O997 2.215 . S
Mn973 O999 2.117 . S
C974 O996 1.234 . S
C974 O997 1.283 . S
C975 O987 1.281 . S
C975 O988 1.236 . S
C976 O998 1.240 . S
C976 O999 1.264 . S
O977 Mn972 2.095 . S
O977 C986 1.250 . S
O978 Mn973 2.121 . S
O978 C986 1.258 . S
C979 N980 1.326 . S
C979 C983 1.460 . S
C979 H985 0.929 . S
N980 Mn973 2.257 . S
N980 C979 1.326 . S
N980 C984 1.362 . S
C981 C982 1.258 . S
C981 C984 1.431 . S
C981 C1001 1.449 . S
C982 C981 1.258 . S
C982 C983 1.477 . S
C982 H1002 0.931 . S
C983 C979 1.460 . S
C983 C982 1.477 . S
C983 H1003 0.930 . S
C984 N980 1.362 . S
C984 C981 1.431 . S
C984 C994 1.476 . S
H985 C979 0.929 . S
C986 O977 1.250 . S
C986 O978 1.258 . S
O987 Mn972 2.162 . S
O987 C975 1.281 . S
O988 Mn972 2.297 . S
O988 C975 1.236 . S
N989 Mn973 2.282 . S
N989 C990 1.328 . S
N989 C994 1.318 . S
C990 N989 1.328 . S
C990 C991 1.457 . S
C990 H995 0.929 . S
C991 C990 1.457 . S
C991 C992 1.291 . S
C991 H1004 0.931 . S
C992 C991 1.291 . S
C992 C993 1.373 . S
C992 H1005 0.929 . S
C993 C992 1.373 . S
C993 C994 1.396 . S
C993 C1000 1.403 . S
C994 C984 1.476 . S
C994 N989 1.318 . S
C994 C993 1.396 . S
H995 C990 0.929 . S
O996 Mn972 2.385 . S
O996 C974 1.234 . S
O997 Mn972 2.209 . S
O997 Mn973 2.215 . S
O997 C974 1.283 . S
O998 Mn972 2.094 . S
O998 C976 1.240 . S
O999 Mn973 2.117 . S
O999 C976 1.264 . S
C1000 C993 1.403 . S
C1000 C1001 1.399 . S
C1000 H1006 0.929 . S
C1001 C981 1.449 . S
C1001 C1000 1.399 . S
C1001 H1007 0.930 . S
H1002 C982 0.931 . S
H1003 C983 0.930 . S
H1004 C991 0.931 . S
H1005 C992 0.929 . S
H1006 C1000 0.929 . S
H1007 C1001 0.930 . S
Mn1008 O1013 2.095 . S
Mn1008 O1023 2.162 . S
Mn1008 O1024 2.297 . S
Mn1008 O1032 2.385 . S
Mn1008 O1033 2.209 . S
Mn1008 O1034 2.094 . S
Mn1009 O1014 2.121 . S
Mn1009 N1016 2.257 . S
Mn1009 N1025 2.282 . S
Mn1009 O1033 2.215 . S
Mn1009 O1035 2.117 . S
C1010 O1032 1.234 . S
C1010 O1033 1.283 . S
C1011 O1023 1.281 . S
C1011 O1024 1.236 . S
C1012 O1034 1.240 . S
C1012 O1035 1.264 . S
O1013 Mn1008 2.095 . S
O1013 C1022 1.250 . S
O1014 Mn1009 2.121 . S
O1014 C1022 1.258 . S
C1015 N1016 1.326 . S
C1015 C1019 1.460 . S
C1015 H1021 0.929 . S
N1016 Mn1009 2.257 . S
N1016 C1015 1.326 . S
N1016 C1020 1.362 . S
C1017 C1018 1.258 . S
C1017 C1020 1.431 . S
C1017 C1037 1.449 . S
C1018 C1017 1.258 . S
C1018 C1019 1.477 . S
C1018 H1038 0.931 . S
C1019 C1015 1.460 . S
C1019 C1018 1.477 . S
C1019 H1039 0.930 . S
C1020 N1016 1.362 . S
C1020 C1017 1.431 . S
C1020 C1030 1.476 . S
H1021 C1015 0.929 . S
C1022 O1013 1.250 . S
C1022 O1014 1.258 . S
O1023 Mn1008 2.162 . S
O1023 C1011 1.281 . S
O1024 Mn1008 2.297 . S
O1024 C1011 1.236 . S
N1025 Mn1009 2.282 . S
N1025 C1026 1.328 . S
N1025 C1030 1.318 . S
C1026 N1025 1.328 . S
C1026 C1027 1.457 1_655 S
C1026 H1031 0.929 1_655 S
C1027 C1026 1.457 1_455 S
C1027 C1028 1.291 1_455 S
C1027 H1040 0.931 . S
C1028 C1027 1.291 1_655 S
C1028 C1029 1.373 . S
C1028 H1041 0.929 1_655 S
C1029 C1028 1.373 . S
C1029 C1030 1.396 . S
C1029 C1036 1.403 . S
C1030 C1020 1.476 . S
C1030 N1025 1.318 . S
C1030 C1029 1.396 . S
H1031 C1026 0.929 1_455 S
O1032 Mn1008 2.385 . S
O1032 C1010 1.234 . S
O1033 Mn1008 2.209 . S
O1033 Mn1009 2.215 . S
O1033 C1010 1.283 . S
O1034 Mn1008 2.094 . S
O1034 C1012 1.240 . S
O1035 Mn1009 2.117 . S
O1035 C1012 1.264 . S
C1036 C1029 1.403 . S
C1036 C1037 1.399 . S
C1036 H1042 0.929 . S
C1037 C1017 1.449 . S
C1037 C1036 1.399 . S
C1037 H1043 0.930 . S
H1038 C1018 0.931 . S
H1039 C1019 0.930 . S
H1040 C1027 0.931 . S
H1041 C1028 0.929 1_455 S
H1042 C1036 0.929 . S
H1043 C1037 0.930 . S
Mn1044 O1049 2.095 . S
Mn1044 O1059 2.162 . S
Mn1044 O1060 2.297 . S
Mn1044 O1068 2.385 . S
Mn1044 O1069 2.209 . S
Mn1044 O1070 2.094 . S
Mn1045 O1050 2.121 . S
Mn1045 N1052 2.257 . S
Mn1045 N1061 2.282 . S
Mn1045 O1069 2.215 . S
Mn1045 O1071 2.117 . S
C1046 O1068 1.234 . S
C1046 O1069 1.283 . S
C1047 O1059 1.281 . S
C1047 O1060 1.236 . S
C1048 O1070 1.240 . S
C1048 O1071 1.264 . S
O1049 Mn1044 2.095 . S
O1049 C1058 1.250 . S
O1050 Mn1045 2.121 . S
O1050 C1058 1.258 . S
C1051 N1052 1.326 . S
C1051 C1055 1.460 . S
C1051 H1057 0.929 . S
N1052 Mn1045 2.257 . S
N1052 C1051 1.326 . S
N1052 C1056 1.362 . S
C1053 C1054 1.258 . S
C1053 C1056 1.431 . S
C1053 C1073 1.449 . S
C1054 C1053 1.258 . S
C1054 C1055 1.477 . S
C1054 H1074 0.931 . S
C1055 C1051 1.460 . S
C1055 C1054 1.477 . S
C1055 H1075 0.930 . S
C1056 N1052 1.362 . S
C1056 C1053 1.431 . S
C1056 C1066 1.476 . S
H1057 C1051 0.929 . S
C1058 O1049 1.250 . S
C1058 O1050 1.258 . S
O1059 Mn1044 2.162 . S
O1059 C1047 1.281 . S
O1060 Mn1044 2.297 . S
O1060 C1047 1.236 . S
N1061 Mn1045 2.282 . S
N1061 C1062 1.328 . S
N1061 C1066 1.318 . S
C1062 N1061 1.328 . S
C1062 C1063 1.457 . S
C1062 H1067 0.929 . S
C1063 C1062 1.457 . S
C1063 C1064 1.291 . S
C1063 H1076 0.931 . S
C1064 C1063 1.291 . S
C1064 C1065 1.373 . S
C1064 H1077 0.929 . S
C1065 C1064 1.373 . S
C1065 C1066 1.396 . S
C1065 C1072 1.403 . S
C1066 C1056 1.476 . S
C1066 N1061 1.318 . S
C1066 C1065 1.396 . S
H1067 C1062 0.929 . S
O1068 Mn1044 2.385 . S
O1068 C1046 1.234 . S
O1069 Mn1044 2.209 . S
O1069 Mn1045 2.215 . S
O1069 C1046 1.283 . S
O1070 Mn1044 2.094 . S
O1070 C1048 1.240 . S
O1071 Mn1045 2.117 . S
O1071 C1048 1.264 . S
C1072 C1065 1.403 . S
C1072 C1073 1.399 . S
C1072 H1078 0.929 . S
C1073 C1053 1.449 . S
C1073 C1072 1.399 . S
C1073 H1079 0.930 . S
H1074 C1054 0.931 . S
H1075 C1055 0.930 . S
H1076 C1063 0.931 . S
H1077 C1064 0.929 . S
H1078 C1072 0.929 . S
H1079 C1073 0.930 . S
Mn1080 O1085 2.095 . S
Mn1080 O1095 2.162 . S
Mn1080 O1096 2.297 . S
Mn1080 O1104 2.385 . S
Mn1080 O1105 2.209 . S
Mn1080 O1106 2.094 . S
Mn1081 O1086 2.121 . S
Mn1081 N1088 2.257 . S
Mn1081 N1097 2.282 . S
Mn1081 O1105 2.215 . S
Mn1081 O1107 2.117 . S
C1082 O1104 1.234 . S
C1082 O1105 1.283 . S
C1083 O1095 1.281 . S
C1083 O1096 1.236 . S
C1084 O1106 1.240 . S
C1084 O1107 1.264 . S
O1085 Mn1080 2.095 . S
O1085 C1094 1.250 . S
O1086 Mn1081 2.121 . S
O1086 C1094 1.258 . S
C1087 N1088 1.326 . S
C1087 C1091 1.460 . S
C1087 H1093 0.929 . S
N1088 Mn1081 2.257 . S
N1088 C1087 1.326 . S
N1088 C1092 1.362 . S
C1089 C1090 1.258 . S
C1089 C1092 1.431 . S
C1089 C1109 1.449 . S
C1090 C1089 1.258 . S
C1090 C1091 1.477 . S
C1090 H1110 0.931 . S
C1091 C1087 1.460 . S
C1091 C1090 1.477 . S
C1091 H1111 0.930 . S
C1092 N1088 1.362 . S
C1092 C1089 1.431 . S
C1092 C1102 1.476 . S
H1093 C1087 0.929 . S
C1094 O1085 1.250 . S
C1094 O1086 1.258 . S
O1095 Mn1080 2.162 . S
O1095 C1083 1.281 . S
O1096 Mn1080 2.297 . S
O1096 C1083 1.236 . S
N1097 Mn1081 2.282 . S
N1097 C1098 1.328 . S
N1097 C1102 1.318 . S
C1098 N1097 1.328 . S
C1098 C1099 1.457 1_455 S
C1098 H1103 0.929 1_455 S
C1099 C1098 1.457 1_655 S
C1099 C1100 1.291 1_655 S
C1099 H1112 0.931 . S
C1100 C1099 1.291 1_455 S
C1100 C1101 1.373 . S
C1100 H1113 0.929 1_455 S
C1101 C1100 1.373 . S
C1101 C1102 1.396 . S
C1101 C1108 1.403 . S
C1102 C1092 1.476 . S
C1102 N1097 1.318 . S
C1102 C1101 1.396 . S
H1103 C1098 0.929 1_655 S
O1104 Mn1080 2.385 . S
O1104 C1082 1.234 . S
O1105 Mn1080 2.209 . S
O1105 Mn1081 2.215 . S
O1105 C1082 1.283 . S
O1106 Mn1080 2.094 . S
O1106 C1084 1.240 . S
O1107 Mn1081 2.117 . S
O1107 C1084 1.264 . S
C1108 C1101 1.403 . S
C1108 C1109 1.399 . S
C1108 H1114 0.929 . S
C1109 C1089 1.449 . S
C1109 C1108 1.399 . S
C1109 H1115 0.930 . S
H1110 C1090 0.931 . S
H1111 C1091 0.930 . S
H1112 C1099 0.931 . S
H1113 C1100 0.929 1_655 S
H1114 C1108 0.929 . S
H1115 C1109 0.930 . S
Mn1116 O1121 2.095 . S
Mn1116 O1131 2.162 . S
Mn1116 O1132 2.297 . S
Mn1116 O1140 2.385 . S
Mn1116 O1141 2.209 . S
Mn1116 O1142 2.094 . S
Mn1117 O1122 2.121 . S
Mn1117 N1124 2.257 . S
Mn1117 N1133 2.282 . S
Mn1117 O1141 2.215 . S
Mn1117 O1143 2.117 . S
C1118 O1140 1.234 . S
C1118 O1141 1.283 . S
C1119 O1131 1.281 . S
C1119 O1132 1.236 . S
C1120 O1142 1.240 . S
C1120 O1143 1.264 . S
O1121 Mn1116 2.095 . S
O1121 C1130 1.250 . S
O1122 Mn1117 2.121 . S
O1122 C1130 1.258 . S
C1123 N1124 1.326 . S
C1123 C1127 1.460 . S
C1123 H1129 0.929 . S
N1124 Mn1117 2.257 . S
N1124 C1123 1.326 . S
N1124 C1128 1.362 . S
C1125 C1126 1.258 . S
C1125 C1128 1.431 . S
C1125 C1145 1.449 . S
C1126 C1125 1.258 . S
C1126 C1127 1.477 . S
C1126 H1146 0.931 . S
C1127 C1123 1.460 . S
C1127 C1126 1.477 . S
C1127 H1147 0.930 . S
C1128 N1124 1.362 . S
C1128 C1125 1.431 . S
C1128 C1138 1.476 . S
H1129 C1123 0.929 . S
C1130 O1121 1.250 . S
C1130 O1122 1.258 . S
O1131 Mn1116 2.162 . S
O1131 C1119 1.281 . S
O1132 Mn1116 2.297 . S
O1132 C1119 1.236 . S
N1133 Mn1117 2.282 . S
N1133 C1134 1.328 . S
N1133 C1138 1.318 . S
C1134 N1133 1.328 . S
C1134 C1135 1.457 . S
C1134 H1139 0.929 . S
C1135 C1134 1.457 . S
C1135 C1136 1.291 . S
C1135 H1148 0.931 . S
C1136 C1135 1.291 . S
C1136 C1137 1.373 . S
C1136 H1149 0.929 . S
C1137 C1136 1.373 . S
C1137 C1138 1.396 . S
C1137 C1144 1.403 . S
C1138 C1128 1.476 . S
C1138 N1133 1.318 . S
C1138 C1137 1.396 . S
H1139 C1134 0.929 . S
O1140 Mn1116 2.385 . S
O1140 C1118 1.234 . S
O1141 Mn1116 2.209 . S
O1141 Mn1117 2.215 . S
O1141 C1118 1.283 . S
O1142 Mn1116 2.094 . S
O1142 C1120 1.240 . S
O1143 Mn1117 2.117 . S
O1143 C1120 1.264 . S
C1144 C1137 1.403 . S
C1144 C1145 1.399 . S
C1144 H1150 0.929 . S
C1145 C1125 1.449 . S
C1145 C1144 1.399 . S
C1145 H1151 0.930 . S
H1146 C1126 0.931 . S
H1147 C1127 0.930 . S
H1148 C1135 0.931 . S
H1149 C1136 0.929 . S
H1150 C1144 0.929 . S
H1151 C1145 0.930 . S
Mn1152 O1157 2.095 . S
Mn1152 O1167 2.162 . S
Mn1152 O1168 2.297 . S
Mn1152 O1176 2.385 . S
Mn1152 O1177 2.209 . S
Mn1152 O1178 2.094 . S
Mn1153 O1158 2.121 . S
Mn1153 N1160 2.257 . S
Mn1153 N1169 2.282 . S
Mn1153 O1177 2.215 . S
Mn1153 O1179 2.117 . S
C1154 O1176 1.234 . S
C1154 O1177 1.283 . S
C1155 O1167 1.281 . S
C1155 O1168 1.236 . S
C1156 O1178 1.240 . S
C1156 O1179 1.264 . S
O1157 Mn1152 2.095 . S
O1157 C1166 1.250 . S
O1158 Mn1153 2.121 . S
O1158 C1166 1.258 . S
C1159 N1160 1.326 . S
C1159 C1163 1.460 . S
C1159 H1165 0.929 . S
N1160 Mn1153 2.257 . S
N1160 C1159 1.326 . S
N1160 C1164 1.362 . S
C1161 C1162 1.258 . S
C1161 C1164 1.431 . S
C1161 C1181 1.449 . S
C1162 C1161 1.258 . S
C1162 C1163 1.477 . S
C1162 H1182 0.931 . S
C1163 C1159 1.460 . S
C1163 C1162 1.477 . S
C1163 H1183 0.930 . S
C1164 N1160 1.362 . S
C1164 C1161 1.431 . S
C1164 C1174 1.476 . S
H1165 C1159 0.929 . S
C1166 O1157 1.250 . S
C1166 O1158 1.258 . S
O1167 Mn1152 2.162 . S
O1167 C1155 1.281 . S
O1168 Mn1152 2.297 . S
O1168 C1155 1.236 . S
N1169 Mn1153 2.282 . S
N1169 C1170 1.328 . S
N1169 C1174 1.318 . S
C1170 N1169 1.328 . S
C1170 C1171 1.457 1_565 S
C1170 H1175 0.929 1_565 S
C1171 C1170 1.457 1_545 S
C1171 C1172 1.291 1_545 S
C1171 H1184 0.931 . S
C1172 C1171 1.291 1_565 S
C1172 C1173 1.373 . S
C1172 H1185 0.929 1_565 S
C1173 C1172 1.373 . S
C1173 C1174 1.396 . S
C1173 C1180 1.403 . S
C1174 C1164 1.476 . S
C1174 N1169 1.318 . S
C1174 C1173 1.396 . S
H1175 C1170 0.929 1_545 S
O1176 Mn1152 2.385 . S
O1176 C1154 1.234 . S
O1177 Mn1152 2.209 . S
O1177 Mn1153 2.215 . S
O1177 C1154 1.283 . S
O1178 Mn1152 2.094 . S
O1178 C1156 1.240 . S
O1179 Mn1153 2.117 . S
O1179 C1156 1.264 . S
C1180 C1173 1.403 . S
C1180 C1181 1.399 . S
C1180 H1186 0.929 . S
C1181 C1161 1.449 . S
C1181 C1180 1.399 . S
C1181 H1187 0.930 . S
H1182 C1162 0.931 . S
H1183 C1163 0.930 . S
H1184 C1171 0.931 . S
H1185 C1172 0.929 1_545 S
H1186 C1180 0.929 . S
H1187 C1181 0.930 . S
Mn1188 O1193 2.095 . S
Mn1188 O1203 2.162 . S
Mn1188 O1204 2.297 . S
Mn1188 O1212 2.385 . S
Mn1188 O1213 2.209 . S
Mn1188 O1214 2.094 . S
Mn1189 O1194 2.121 . S
Mn1189 N1196 2.257 . S
Mn1189 N1205 2.282 . S
Mn1189 O1213 2.215 . S
Mn1189 O1215 2.117 . S
C1190 O1212 1.234 . S
C1190 O1213 1.283 . S
C1191 O1203 1.281 . S
C1191 O1204 1.236 . S
C1192 O1214 1.240 . S
C1192 O1215 1.264 . S
O1193 Mn1188 2.095 . S
O1193 C1202 1.250 . S
O1194 Mn1189 2.121 . S
O1194 C1202 1.258 . S
C1195 N1196 1.326 . S
C1195 C1199 1.460 . S
C1195 H1201 0.929 . S
N1196 Mn1189 2.257 . S
N1196 C1195 1.326 . S
N1196 C1200 1.362 . S
C1197 C1198 1.258 . S
C1197 C1200 1.431 . S
C1197 C1217 1.449 . S
C1198 C1197 1.258 . S
C1198 C1199 1.477 . S
C1198 H1218 0.931 . S
C1199 C1195 1.460 . S
C1199 C1198 1.477 . S
C1199 H1219 0.930 . S
C1200 N1196 1.362 . S
C1200 C1197 1.431 . S
C1200 C1210 1.476 . S
H1201 C1195 0.929 . S
C1202 O1193 1.250 . S
C1202 O1194 1.258 . S
O1203 Mn1188 2.162 . S
O1203 C1191 1.281 . S
O1204 Mn1188 2.297 . S
O1204 C1191 1.236 . S
N1205 Mn1189 2.282 . S
N1205 C1206 1.328 . S
N1205 C1210 1.318 . S
C1206 N1205 1.328 . S
C1206 C1207 1.457 . S
C1206 H1211 0.929 . S
C1207 C1206 1.457 . S
C1207 C1208 1.291 . S
C1207 H1220 0.931 . S
C1208 C1207 1.291 . S
C1208 C1209 1.373 . S
C1208 H1221 0.929 . S
C1209 C1208 1.373 . S
C1209 C1210 1.396 . S
C1209 C1216 1.403 . S
C1210 C1200 1.476 . S
C1210 N1205 1.318 . S
C1210 C1209 1.396 . S
H1211 C1206 0.929 . S
O1212 Mn1188 2.385 . S
O1212 C1190 1.234 . S
O1213 Mn1188 2.209 . S
O1213 Mn1189 2.215 . S
O1213 C1190 1.283 . S
O1214 Mn1188 2.094 . S
O1214 C1192 1.240 . S
O1215 Mn1189 2.117 . S
O1215 C1192 1.264 . S
C1216 C1209 1.403 . S
C1216 C1217 1.399 . S
C1216 H1222 0.929 . S
C1217 C1197 1.449 . S
C1217 C1216 1.399 . S
C1217 H1223 0.930 . S
H1218 C1198 0.931 . S
H1219 C1199 0.930 . S
H1220 C1207 0.931 . S
H1221 C1208 0.929 . S
H1222 C1216 0.929 . S
H1223 C1217 0.930 . S
Mn1224 O1229 2.095 . S
Mn1224 O1239 2.162 . S
Mn1224 O1240 2.297 . S
Mn1224 O1248 2.385 . S
Mn1224 O1249 2.209 . S
Mn1224 O1250 2.094 . S
Mn1225 O1230 2.121 . S
Mn1225 N1232 2.257 . S
Mn1225 N1241 2.282 . S
Mn1225 O1249 2.215 . S
Mn1225 O1251 2.117 . S
C1226 O1248 1.234 . S
C1226 O1249 1.283 . S
C1227 O1239 1.281 . S
C1227 O1240 1.236 . S
C1228 O1250 1.240 . S
C1228 O1251 1.264 . S
O1229 Mn1224 2.095 . S
O1229 C1238 1.250 . S
O1230 Mn1225 2.121 . S
O1230 C1238 1.258 . S
C1231 N1232 1.326 . S
C1231 C1235 1.460 . S
C1231 H1237 0.929 . S
N1232 Mn1225 2.257 . S
N1232 C1231 1.326 . S
N1232 C1236 1.362 . S
C1233 C1234 1.258 . S
C1233 C1236 1.431 . S
C1233 C1253 1.449 . S
C1234 C1233 1.258 . S
C1234 C1235 1.477 . S
C1234 H1254 0.931 . S
C1235 C1231 1.460 . S
C1235 C1234 1.477 . S
C1235 H1255 0.930 . S
C1236 N1232 1.362 . S
C1236 C1233 1.431 . S
C1236 C1246 1.476 . S
H1237 C1231 0.929 . S
C1238 O1229 1.250 . S
C1238 O1230 1.258 . S
O1239 Mn1224 2.162 . S
O1239 C1227 1.281 . S
O1240 Mn1224 2.297 . S
O1240 C1227 1.236 . S
N1241 Mn1225 2.282 . S
N1241 C1242 1.328 . S
N1241 C1246 1.318 . S
C1242 N1241 1.328 . S
C1242 C1243 1.457 1_545 S
C1242 H1247 0.929 1_545 S
C1243 C1242 1.457 1_565 S
C1243 C1244 1.291 1_565 S
C1243 H1256 0.931 . S
C1244 C1243 1.291 1_545 S
C1244 C1245 1.373 . S
C1244 H1257 0.929 1_545 S
C1245 C1244 1.373 . S
C1245 C1246 1.396 . S
C1245 C1252 1.403 . S
C1246 C1236 1.476 . S
C1246 N1241 1.318 . S
C1246 C1245 1.396 . S
H1247 C1242 0.929 1_565 S
O1248 Mn1224 2.385 . S
O1248 C1226 1.234 . S
O1249 Mn1224 2.209 . S
O1249 Mn1225 2.215 . S
O1249 C1226 1.283 . S
O1250 Mn1224 2.094 . S
O1250 C1228 1.240 . S
O1251 Mn1225 2.117 . S
O1251 C1228 1.264 . S
C1252 C1245 1.403 . S
C1252 C1253 1.399 . S
C1252 H1258 0.929 . S
C1253 C1233 1.449 . S
C1253 C1252 1.399 . S
C1253 H1259 0.930 . S
H1254 C1234 0.931 . S
H1255 C1235 0.930 . S
H1256 C1243 0.931 . S
H1257 C1244 0.929 1_565 S
H1258 C1252 0.929 . S
H1259 C1253 0.930 . S
Mn1260 O1265 2.095 . S
Mn1260 O1275 2.162 . S
Mn1260 O1276 2.297 . S
Mn1260 O1284 2.385 . S
Mn1260 O1285 2.209 . S
Mn1260 O1286 2.094 . S
Mn1261 O1266 2.121 . S
Mn1261 N1268 2.257 . S
Mn1261 N1277 2.282 . S
Mn1261 O1285 2.215 . S
Mn1261 O1287 2.117 . S
C1262 O1284 1.234 . S
C1262 O1285 1.283 . S
C1263 O1275 1.281 . S
C1263 O1276 1.236 . S
C1264 O1286 1.240 . S
C1264 O1287 1.264 . S
O1265 Mn1260 2.095 . S
O1265 C1274 1.250 . S
O1266 Mn1261 2.121 . S
O1266 C1274 1.258 . S
C1267 N1268 1.326 . S
C1267 C1271 1.460 . S
C1267 H1273 0.929 . S
N1268 Mn1261 2.257 . S
N1268 C1267 1.326 . S
N1268 C1272 1.362 . S
C1269 C1270 1.258 . S
C1269 C1272 1.431 . S
C1269 C1289 1.449 . S
C1270 C1269 1.258 . S
C1270 C1271 1.477 . S
C1270 H1290 0.931 . S
C1271 C1267 1.460 . S
C1271 C1270 1.477 . S
C1271 H1291 0.930 . S
C1272 N1268 1.362 . S
C1272 C1269 1.431 . S
C1272 C1282 1.476 . S
H1273 C1267 0.929 . S
C1274 O1265 1.250 . S
C1274 O1266 1.258 . S
O1275 Mn1260 2.162 . S
O1275 C1263 1.281 . S
O1276 Mn1260 2.297 . S
O1276 C1263 1.236 . S
N1277 Mn1261 2.282 . S
N1277 C1278 1.328 . S
N1277 C1282 1.318 . S
C1278 N1277 1.328 . S
C1278 C1279 1.457 . S
C1278 H1283 0.929 . S
C1279 C1278 1.457 . S
C1279 C1280 1.291 . S
C1279 H1292 0.931 . S
C1280 C1279 1.291 . S
C1280 C1281 1.373 . S
C1280 H1293 0.929 . S
C1281 C1280 1.373 . S
C1281 C1282 1.396 . S
C1281 C1288 1.403 . S
C1282 C1272 1.476 . S
C1282 N1277 1.318 . S
C1282 C1281 1.396 . S
H1283 C1278 0.929 . S
O1284 Mn1260 2.385 . S
O1284 C1262 1.234 . S
O1285 Mn1260 2.209 . S
O1285 Mn1261 2.215 . S
O1285 C1262 1.283 . S
O1286 Mn1260 2.094 . S
O1286 C1264 1.240 . S
O1287 Mn1261 2.117 . S
O1287 C1264 1.264 . S
C1288 C1281 1.403 . S
C1288 C1289 1.399 . S
C1288 H1294 0.929 . S
C1289 C1269 1.449 . S
C1289 C1288 1.399 . S
C1289 H1295 0.930 . S
H1290 C1270 0.931 . S
H1291 C1271 0.930 . S
H1292 C1279 0.931 . S
H1293 C1280 0.929 . S
H1294 C1288 0.929 . S
H1295 C1289 0.930 . S
Mn1296 O1301 2.095 . S
Mn1296 O1311 2.162 . S
Mn1296 O1312 2.297 . S
Mn1296 O1320 2.385 . S
Mn1296 O1321 2.209 . S
Mn1296 O1322 2.094 . S
Mn1297 O1302 2.121 . S
Mn1297 N1304 2.257 . S
Mn1297 N1313 2.282 . S
Mn1297 O1321 2.215 . S
Mn1297 O1323 2.117 . S
C1298 O1320 1.234 . S
C1298 O1321 1.283 . S
C1299 O1311 1.281 . S
C1299 O1312 1.236 . S
C1300 O1322 1.240 . S
C1300 O1323 1.264 . S
O1301 Mn1296 2.095 . S
O1301 C1310 1.250 . S
O1302 Mn1297 2.121 . S
O1302 C1310 1.258 . S
C1303 N1304 1.326 . S
C1303 C1307 1.460 . S
C1303 H1309 0.929 . S
N1304 Mn1297 2.257 . S
N1304 C1303 1.326 . S
N1304 C1308 1.362 . S
C1305 C1306 1.258 . S
C1305 C1308 1.431 . S
C1305 C1325 1.449 . S
C1306 C1305 1.258 . S
C1306 C1307 1.477 . S
C1306 H1326 0.931 . S
C1307 C1303 1.460 . S
C1307 C1306 1.477 . S
C1307 H1327 0.930 . S
C1308 N1304 1.362 . S
C1308 C1305 1.431 . S
C1308 C1318 1.476 . S
H1309 C1303 0.929 . S
C1310 O1301 1.250 . S
C1310 O1302 1.258 . S
O1311 Mn1296 2.162 . S
O1311 C1299 1.281 . S
O1312 Mn1296 2.297 . S
O1312 C1299 1.236 . S
N1313 Mn1297 2.282 . S
N1313 C1314 1.328 . S
N1313 C1318 1.318 . S
C1314 N1313 1.328 . S
C1314 C1315 1.457 1_545 S
C1314 H1319 0.929 1_545 S
C1315 C1314 1.457 1_565 S
C1315 C1316 1.291 1_565 S
C1315 H1328 0.931 . S
C1316 C1315 1.291 1_545 S
C1316 C1317 1.373 . S
C1316 H1329 0.929 1_545 S
C1317 C1316 1.373 . S
C1317 C1318 1.396 . S
C1317 C1324 1.403 . S
C1318 C1308 1.476 . S
C1318 N1313 1.318 . S
C1318 C1317 1.396 . S
H1319 C1314 0.929 1_565 S
O1320 Mn1296 2.385 . S
O1320 C1298 1.234 . S
O1321 Mn1296 2.209 . S
O1321 Mn1297 2.215 . S
O1321 C1298 1.283 . S
O1322 Mn1296 2.094 . S
O1322 C1300 1.240 . S
O1323 Mn1297 2.117 . S
O1323 C1300 1.264 . S
C1324 C1317 1.403 . S
C1324 C1325 1.399 . S
C1324 H1330 0.929 . S
C1325 C1305 1.449 . S
C1325 C1324 1.399 . S
C1325 H1331 0.930 . S
H1326 C1306 0.931 . S
H1327 C1307 0.930 . S
H1328 C1315 0.931 . S
H1329 C1316 0.929 1_565 S
H1330 C1324 0.929 . S
H1331 C1325 0.930 . S
Mn1332 O1337 2.095 . S
Mn1332 O1347 2.162 . S
Mn1332 O1348 2.297 . S
Mn1332 O1356 2.385 . S
Mn1332 O1357 2.209 . S
Mn1332 O1358 2.094 . S
Mn1333 O1338 2.121 . S
Mn1333 N1340 2.257 . S
Mn1333 N1349 2.282 . S
Mn1333 O1357 2.215 . S
Mn1333 O1359 2.117 . S
C1334 O1356 1.234 . S
C1334 O1357 1.283 . S
C1335 O1347 1.281 . S
C1335 O1348 1.236 . S
C1336 O1358 1.240 . S
C1336 O1359 1.264 . S
O1337 Mn1332 2.095 . S
O1337 C1346 1.250 . S
O1338 Mn1333 2.121 . S
O1338 C1346 1.258 . S
C1339 N1340 1.326 . S
C1339 C1343 1.460 . S
C1339 H1345 0.929 . S
N1340 Mn1333 2.257 . S
N1340 C1339 1.326 . S
N1340 C1344 1.362 . S
C1341 C1342 1.258 . S
C1341 C1344 1.431 . S
C1341 C1361 1.449 . S
C1342 C1341 1.258 . S
C1342 C1343 1.477 . S
C1342 H1362 0.931 . S
C1343 C1339 1.460 . S
C1343 C1342 1.477 . S
C1343 H1363 0.930 . S
C1344 N1340 1.362 . S
C1344 C1341 1.431 . S
C1344 C1354 1.476 . S
H1345 C1339 0.929 . S
C1346 O1337 1.250 . S
C1346 O1338 1.258 . S
O1347 Mn1332 2.162 . S
O1347 C1335 1.281 . S
O1348 Mn1332 2.297 . S
O1348 C1335 1.236 . S
N1349 Mn1333 2.282 . S
N1349 C1350 1.328 . S
N1349 C1354 1.318 . S
C1350 N1349 1.328 . S
C1350 C1351 1.457 . S
C1350 H1355 0.929 . S
C1351 C1350 1.457 . S
C1351 C1352 1.291 . S
C1351 H1364 0.931 . S
C1352 C1351 1.291 . S
C1352 C1353 1.373 . S
C1352 H1365 0.929 . S
C1353 C1352 1.373 . S
C1353 C1354 1.396 . S
C1353 C1360 1.403 . S
C1354 C1344 1.476 . S
C1354 N1349 1.318 . S
C1354 C1353 1.396 . S
H1355 C1350 0.929 . S
O1356 Mn1332 2.385 . S
O1356 C1334 1.234 . S
O1357 Mn1332 2.209 . S
O1357 Mn1333 2.215 . S
O1357 C1334 1.283 . S
O1358 Mn1332 2.094 . S
O1358 C1336 1.240 . S
O1359 Mn1333 2.117 . S
O1359 C1336 1.264 . S
C1360 C1353 1.403 . S
C1360 C1361 1.399 . S
C1360 H1366 0.929 . S
C1361 C1341 1.449 . S
C1361 C1360 1.399 . S
C1361 H1367 0.930 . S
H1362 C1342 0.931 . S
H1363 C1343 0.930 . S
H1364 C1351 0.931 . S
H1365 C1352 0.929 . S
H1366 C1360 0.929 . S
H1367 C1361 0.930 . S
Mn1368 O1373 2.095 . S
Mn1368 O1383 2.162 . S
Mn1368 O1384 2.297 . S
Mn1368 O1392 2.385 . S
Mn1368 O1393 2.209 . S
Mn1368 O1394 2.094 . S
Mn1369 O1374 2.121 . S
Mn1369 N1376 2.257 . S
Mn1369 N1385 2.282 . S
Mn1369 O1393 2.215 . S
Mn1369 O1395 2.117 . S
C1370 O1392 1.234 . S
C1370 O1393 1.283 . S
C1371 O1383 1.281 . S
C1371 O1384 1.236 . S
C1372 O1394 1.240 . S
C1372 O1395 1.264 . S
O1373 Mn1368 2.095 . S
O1373 C1382 1.250 . S
O1374 Mn1369 2.121 . S
O1374 C1382 1.258 . S
C1375 N1376 1.326 . S
C1375 C1379 1.460 . S
C1375 H1381 0.929 . S
N1376 Mn1369 2.257 . S
N1376 C1375 1.326 . S
N1376 C1380 1.362 . S
C1377 C1378 1.258 . S
C1377 C1380 1.431 . S
C1377 C1397 1.449 . S
C1378 C1377 1.258 . S
C1378 C1379 1.477 . S
C1378 H1398 0.931 . S
C1379 C1375 1.460 . S
C1379 C1378 1.477 . S
C1379 H1399 0.930 . S
C1380 N1376 1.362 . S
C1380 C1377 1.431 . S
C1380 C1390 1.476 . S
H1381 C1375 0.929 . S
C1382 O1373 1.250 . S
C1382 O1374 1.258 . S
O1383 Mn1368 2.162 . S
O1383 C1371 1.281 . S
O1384 Mn1368 2.297 . S
O1384 C1371 1.236 . S
N1385 Mn1369 2.282 . S
N1385 C1386 1.328 . S
N1385 C1390 1.318 . S
C1386 N1385 1.328 . S
C1386 C1387 1.457 1_565 S
C1386 H1391 0.929 1_565 S
C1387 C1386 1.457 1_545 S
C1387 C1388 1.291 1_545 S
C1387 H1400 0.931 . S
C1388 C1387 1.291 1_565 S
C1388 C1389 1.373 . S
C1388 H1401 0.929 1_565 S
C1389 C1388 1.373 . S
C1389 C1390 1.396 . S
C1389 C1396 1.403 . S
C1390 C1380 1.476 . S
C1390 N1385 1.318 . S
C1390 C1389 1.396 . S
H1391 C1386 0.929 1_545 S
O1392 Mn1368 2.385 . S
O1392 C1370 1.234 . S
O1393 Mn1368 2.209 . S
O1393 Mn1369 2.215 . S
O1393 C1370 1.283 . S
O1394 Mn1368 2.094 . S
O1394 C1372 1.240 . S
O1395 Mn1369 2.117 . S
O1395 C1372 1.264 . S
C1396 C1389 1.403 . S
C1396 C1397 1.399 . S
C1396 H1402 0.929 . S
C1397 C1377 1.449 . S
C1397 C1396 1.399 . S
C1397 H1403 0.930 . S
H1398 C1378 0.931 . S
H1399 C1379 0.930 . S
H1400 C1387 0.931 . S
H1401 C1388 0.929 1_545 S
H1402 C1396 0.929 . S
H1403 C1397 0.930 . S
Mn1404 O1409 2.095 . S
Mn1404 O1419 2.162 . S
Mn1404 O1420 2.297 . S
Mn1404 O1428 2.385 . S
Mn1404 O1429 2.209 . S
Mn1404 O1430 2.094 . S
Mn1405 O1410 2.121 . S
Mn1405 N1412 2.257 . S
Mn1405 N1421 2.282 . S
Mn1405 O1429 2.215 . S
Mn1405 O1431 2.117 . S
C1406 O1428 1.234 . S
C1406 O1429 1.283 . S
C1407 O1419 1.281 . S
C1407 O1420 1.236 . S
C1408 O1430 1.240 . S
C1408 O1431 1.264 . S
O1409 Mn1404 2.095 . S
O1409 C1418 1.250 . S
O1410 Mn1405 2.121 . S
O1410 C1418 1.258 . S
C1411 N1412 1.326 . S
C1411 C1415 1.460 . S
C1411 H1417 0.929 . S
N1412 Mn1405 2.257 . S
N1412 C1411 1.326 . S
N1412 C1416 1.362 . S
C1413 C1414 1.258 . S
C1413 C1416 1.431 . S
C1413 C1433 1.449 . S
C1414 C1413 1.258 . S
C1414 C1415 1.477 . S
C1414 H1434 0.931 . S
C1415 C1411 1.460 . S
C1415 C1414 1.477 . S
C1415 H1435 0.930 . S
C1416 N1412 1.362 . S
C1416 C1413 1.431 . S
C1416 C1426 1.476 . S
H1417 C1411 0.929 . S
C1418 O1409 1.250 . S
C1418 O1410 1.258 . S
O1419 Mn1404 2.162 . S
O1419 C1407 1.281 . S
O1420 Mn1404 2.297 . S
O1420 C1407 1.236 . S
N1421 Mn1405 2.282 . S
N1421 C1422 1.328 . S
N1421 C1426 1.318 . S
C1422 N1421 1.328 . S
C1422 C1423 1.457 . S
C1422 H1427 0.929 . S
C1423 C1422 1.457 . S
C1423 C1424 1.291 . S
C1423 H1436 0.931 . S
C1424 C1423 1.291 . S
C1424 C1425 1.373 . S
C1424 H1437 0.929 . S
C1425 C1424 1.373 . S
C1425 C1426 1.396 . S
C1425 C1432 1.403 . S
C1426 C1416 1.476 . S
C1426 N1421 1.318 . S
C1426 C1425 1.396 . S
H1427 C1422 0.929 . S
O1428 Mn1404 2.385 . S
O1428 C1406 1.234 . S
O1429 Mn1404 2.209 . S
O1429 Mn1405 2.215 . S
O1429 C1406 1.283 . S
O1430 Mn1404 2.094 . S
O1430 C1408 1.240 . S
O1431 Mn1405 2.117 . S
O1431 C1408 1.264 . S
C1432 C1425 1.403 . S
C1432 C1433 1.399 . S
C1432 H1438 0.929 . S
C1433 C1413 1.449 . S
C1433 C1432 1.399 . S
C1433 H1439 0.930 . S
H1434 C1414 0.931 . S
H1435 C1415 0.930 . S
H1436 C1423 0.931 . S
H1437 C1424 0.929 . S
H1438 C1432 0.929 . S
H1439 C1433 0.930 . S
Mn1440 O1445 2.095 . S
Mn1440 O1455 2.162 . S
Mn1440 O1456 2.297 . S
Mn1440 O1464 2.385 . S
Mn1440 O1465 2.209 . S
Mn1440 O1466 2.094 . S
Mn1441 O1446 2.121 . S
Mn1441 N1448 2.257 . S
Mn1441 N1457 2.282 . S
Mn1441 O1465 2.215 . S
Mn1441 O1467 2.117 . S
C1442 O1464 1.234 . S
C1442 O1465 1.283 . S
C1443 O1455 1.281 . S
C1443 O1456 1.236 . S
C1444 O1466 1.240 . S
C1444 O1467 1.264 . S
O1445 Mn1440 2.095 . S
O1445 C1454 1.250 . S
O1446 Mn1441 2.121 . S
O1446 C1454 1.258 . S
C1447 N1448 1.326 . S
C1447 C1451 1.460 . S
C1447 H1453 0.929 . S
N1448 Mn1441 2.257 . S
N1448 C1447 1.326 . S
N1448 C1452 1.362 . S
C1449 C1450 1.258 . S
C1449 C1452 1.431 . S
C1449 C1469 1.449 . S
C1450 C1449 1.258 . S
C1450 C1451 1.477 . S
C1450 H1470 0.931 . S
C1451 C1447 1.460 . S
C1451 C1450 1.477 . S
C1451 H1471 0.930 . S
C1452 N1448 1.362 . S
C1452 C1449 1.431 . S
C1452 C1462 1.476 . S
H1453 C1447 0.929 . S
C1454 O1445 1.250 . S
C1454 O1446 1.258 . S
O1455 Mn1440 2.162 . S
O1455 C1443 1.281 . S
O1456 Mn1440 2.297 . S
O1456 C1443 1.236 . S
N1457 Mn1441 2.282 . S
N1457 C1458 1.328 . S
N1457 C1462 1.318 . S
C1458 N1457 1.328 . S
C1458 C1459 1.457 1_556 S
C1458 H1463 0.929 1_556 S
C1459 C1458 1.457 1_554 S
C1459 C1460 1.291 1_554 S
C1459 H1472 0.931 . S
C1460 C1459 1.291 1_556 S
C1460 C1461 1.373 . S
C1460 H1473 0.929 1_556 S
C1461 C1460 1.373 . S
C1461 C1462 1.396 . S
C1461 C1468 1.403 . S
C1462 C1452 1.476 . S
C1462 N1457 1.318 . S
C1462 C1461 1.396 . S
H1463 C1458 0.929 1_554 S
O1464 Mn1440 2.385 . S
O1464 C1442 1.234 . S
O1465 Mn1440 2.209 . S
O1465 Mn1441 2.215 . S
O1465 C1442 1.283 . S
O1466 Mn1440 2.094 . S
O1466 C1444 1.240 . S
O1467 Mn1441 2.117 . S
O1467 C1444 1.264 . S
C1468 C1461 1.403 . S
C1468 C1469 1.399 . S
C1468 H1474 0.929 . S
C1469 C1449 1.449 . S
C1469 C1468 1.399 . S
C1469 H1475 0.930 . S
H1470 C1450 0.931 . S
H1471 C1451 0.930 . S
H1472 C1459 0.931 . S
H1473 C1460 0.929 1_554 S
H1474 C1468 0.929 . S
H1475 C1469 0.930 . S
Mn1476 O1481 2.095 . S
Mn1476 O1491 2.162 . S
Mn1476 O1492 2.297 . S
Mn1476 O1500 2.385 . S
Mn1476 O1501 2.209 . S
Mn1476 O1502 2.094 . S
Mn1477 O1482 2.121 . S
Mn1477 N1484 2.257 . S
Mn1477 N1493 2.282 . S
Mn1477 O1501 2.215 . S
Mn1477 O1503 2.117 . S
C1478 O1500 1.234 . S
C1478 O1501 1.283 . S
C1479 O1491 1.281 . S
C1479 O1492 1.236 . S
C1480 O1502 1.240 . S
C1480 O1503 1.264 . S
O1481 Mn1476 2.095 . S
O1481 C1490 1.250 . S
O1482 Mn1477 2.121 . S
O1482 C1490 1.258 . S
C1483 N1484 1.326 . S
C1483 C1487 1.460 . S
C1483 H1489 0.929 . S
N1484 Mn1477 2.257 . S
N1484 C1483 1.326 . S
N1484 C1488 1.362 . S
C1485 C1486 1.258 . S
C1485 C1488 1.431 . S
C1485 C1505 1.449 . S
C1486 C1485 1.258 . S
C1486 C1487 1.477 . S
C1486 H1506 0.931 . S
C1487 C1483 1.460 . S
C1487 C1486 1.477 . S
C1487 H1507 0.930 . S
C1488 N1484 1.362 . S
C1488 C1485 1.431 . S
C1488 C1498 1.476 . S
H1489 C1483 0.929 . S
C1490 O1481 1.250 . S
C1490 O1482 1.258 . S
O1491 Mn1476 2.162 . S
O1491 C1479 1.281 . S
O1492 Mn1476 2.297 . S
O1492 C1479 1.236 . S
N1493 Mn1477 2.282 . S
N1493 C1494 1.328 . S
N1493 C1498 1.318 . S
C1494 N1493 1.328 . S
C1494 C1495 1.457 1_554 S
C1494 H1499 0.929 1_554 S
C1495 C1494 1.457 1_556 S
C1495 C1496 1.291 1_556 S
C1495 H1508 0.931 . S
C1496 C1495 1.291 1_554 S
C1496 C1497 1.373 . S
C1496 H1509 0.929 1_554 S
C1497 C1496 1.373 . S
C1497 C1498 1.396 . S
C1497 C1504 1.403 . S
C1498 C1488 1.476 . S
C1498 N1493 1.318 . S
C1498 C1497 1.396 . S
H1499 C1494 0.929 1_556 S
O1500 Mn1476 2.385 . S
O1500 C1478 1.234 . S
O1501 Mn1476 2.209 . S
O1501 Mn1477 2.215 . S
O1501 C1478 1.283 . S
O1502 Mn1476 2.094 . S
O1502 C1480 1.240 . S
O1503 Mn1477 2.117 . S
O1503 C1480 1.264 . S
C1504 C1497 1.403 . S
C1504 C1505 1.399 . S
C1504 H1510 0.929 . S
C1505 C1485 1.449 . S
C1505 C1504 1.399 . S
C1505 H1511 0.930 . S
H1506 C1486 0.931 . S
H1507 C1487 0.930 . S
H1508 C1495 0.931 . S
H1509 C1496 0.929 1_556 S
H1510 C1504 0.929 . S
H1511 C1505 0.930 . S
Mn1512 O1517 2.095 . S
Mn1512 O1527 2.162 . S
Mn1512 O1528 2.297 . S
Mn1512 O1536 2.385 . S
Mn1512 O1537 2.209 . S
Mn1512 O1538 2.094 . S
Mn1513 O1518 2.121 . S
Mn1513 N1520 2.257 . S
Mn1513 N1529 2.282 . S
Mn1513 O1537 2.215 . S
Mn1513 O1539 2.117 . S
C1514 O1536 1.234 . S
C1514 O1537 1.283 . S
C1515 O1527 1.281 . S
C1515 O1528 1.236 . S
C1516 O1538 1.240 . S
C1516 O1539 1.264 . S
O1517 Mn1512 2.095 . S
O1517 C1526 1.250 . S
O1518 Mn1513 2.121 . S
O1518 C1526 1.258 . S
C1519 N1520 1.326 . S
C1519 C1523 1.460 . S
C1519 H1525 0.929 . S
N1520 Mn1513 2.257 . S
N1520 C1519 1.326 . S
N1520 C1524 1.362 . S
C1521 C1522 1.258 . S
C1521 C1524 1.431 . S
C1521 C1541 1.449 . S
C1522 C1521 1.258 . S
C1522 C1523 1.477 . S
C1522 H1542 0.931 . S
C1523 C1519 1.460 . S
C1523 C1522 1.477 . S
C1523 H1543 0.930 . S
C1524 N1520 1.362 . S
C1524 C1521 1.431 . S
C1524 C1534 1.476 . S
H1525 C1519 0.929 . S
C1526 O1517 1.250 . S
C1526 O1518 1.258 . S
O1527 Mn1512 2.162 . S
O1527 C1515 1.281 . S
O1528 Mn1512 2.297 . S
O1528 C1515 1.236 . S
N1529 Mn1513 2.282 . S
N1529 C1530 1.328 . S
N1529 C1534 1.318 . S
C1530 N1529 1.328 . S
C1530 C1531 1.457 . S
C1530 H1535 0.929 . S
C1531 C1530 1.457 . S
C1531 C1532 1.291 . S
C1531 H1544 0.931 . S
C1532 C1531 1.291 . S
C1532 C1533 1.373 . S
C1532 H1545 0.929 . S
C1533 C1532 1.373 . S
C1533 C1534 1.396 . S
C1533 C1540 1.403 . S
C1534 C1524 1.476 . S
C1534 N1529 1.318 . S
C1534 C1533 1.396 . S
H1535 C1530 0.929 . S
O1536 Mn1512 2.385 . S
O1536 C1514 1.234 . S
O1537 Mn1512 2.209 . S
O1537 Mn1513 2.215 . S
O1537 C1514 1.283 . S
O1538 Mn1512 2.094 . S
O1538 C1516 1.240 . S
O1539 Mn1513 2.117 . S
O1539 C1516 1.264 . S
C1540 C1533 1.403 . S
C1540 C1541 1.399 . S
C1540 H1546 0.929 . S
C1541 C1521 1.449 . S
C1541 C1540 1.399 . S
C1541 H1547 0.930 . S
H1542 C1522 0.931 . S
H1543 C1523 0.930 . S
H1544 C1531 0.931 . S
H1545 C1532 0.929 . S
H1546 C1540 0.929 . S
H1547 C1541 0.930 . S
Mn1548 O1553 2.095 . S
Mn1548 O1563 2.162 . S
Mn1548 O1564 2.297 . S
Mn1548 O1572 2.385 . S
Mn1548 O1573 2.209 . S
Mn1548 O1574 2.094 . S
Mn1549 O1554 2.121 . S
Mn1549 N1556 2.257 . S
Mn1549 N1565 2.282 . S
Mn1549 O1573 2.215 . S
Mn1549 O1575 2.117 . S
C1550 O1572 1.234 . S
C1550 O1573 1.283 . S
C1551 O1563 1.281 . S
C1551 O1564 1.236 . S
C1552 O1574 1.240 . S
C1552 O1575 1.264 . S
O1553 Mn1548 2.095 . S
O1553 C1562 1.250 . S
O1554 Mn1549 2.121 . S
O1554 C1562 1.258 . S
C1555 N1556 1.326 . S
C1555 C1559 1.460 . S
C1555 H1561 0.929 . S
N1556 Mn1549 2.257 . S
N1556 C1555 1.326 . S
N1556 C1560 1.362 . S
C1557 C1558 1.258 . S
C1557 C1560 1.431 . S
C1557 C1577 1.449 . S
C1558 C1557 1.258 . S
C1558 C1559 1.477 . S
C1558 H1578 0.931 . S
C1559 C1555 1.460 . S
C1559 C1558 1.477 . S
C1559 H1579 0.930 . S
C1560 N1556 1.362 . S
C1560 C1557 1.431 . S
C1560 C1570 1.476 . S
H1561 C1555 0.929 . S
C1562 O1553 1.250 . S
C1562 O1554 1.258 . S
O1563 Mn1548 2.162 . S
O1563 C1551 1.281 . S
O1564 Mn1548 2.297 . S
O1564 C1551 1.236 . S
N1565 Mn1549 2.282 . S
N1565 C1566 1.328 . S
N1565 C1570 1.318 . S
C1566 N1565 1.328 . S
C1566 C1567 1.457 1_554 S
C1566 H1571 0.929 1_554 S
C1567 C1566 1.457 1_556 S
C1567 C1568 1.291 1_556 S
C1567 H1580 0.931 . S
C1568 C1567 1.291 1_554 S
C1568 C1569 1.373 . S
C1568 H1581 0.929 1_554 S
C1569 C1568 1.373 . S
C1569 C1570 1.396 . S
C1569 C1576 1.403 . S
C1570 C1560 1.476 . S
C1570 N1565 1.318 . S
C1570 C1569 1.396 . S
H1571 C1566 0.929 1_556 S
O1572 Mn1548 2.385 . S
O1572 C1550 1.234 . S
O1573 Mn1548 2.209 . S
O1573 Mn1549 2.215 . S
O1573 C1550 1.283 . S
O1574 Mn1548 2.094 . S
O1574 C1552 1.240 . S
O1575 Mn1549 2.117 . S
O1575 C1552 1.264 . S
C1576 C1569 1.403 . S
C1576 C1577 1.399 . S
C1576 H1582 0.929 . S
C1577 C1557 1.449 . S
C1577 C1576 1.399 . S
C1577 H1583 0.930 . S
H1578 C1558 0.931 . S
H1579 C1559 0.930 . S
H1580 C1567 0.931 . S
H1581 C1568 0.929 1_556 S
H1582 C1576 0.929 . S
H1583 C1577 0.930 . S
Mn1584 O1589 2.095 . S
Mn1584 O1599 2.162 . S
Mn1584 O1600 2.297 . S
Mn1584 O1608 2.385 . S
Mn1584 O1609 2.209 . S
Mn1584 O1610 2.094 . S
Mn1585 O1590 2.121 . S
Mn1585 N1592 2.257 . S
Mn1585 N1601 2.282 . S
Mn1585 O1609 2.215 . S
Mn1585 O1611 2.117 . S
C1586 O1608 1.234 . S
C1586 O1609 1.283 . S
C1587 O1599 1.281 . S
C1587 O1600 1.236 . S
C1588 O1610 1.240 . S
C1588 O1611 1.264 . S
O1589 Mn1584 2.095 . S
O1589 C1598 1.250 . S
O1590 Mn1585 2.121 . S
O1590 C1598 1.258 . S
C1591 N1592 1.326 . S
C1591 C1595 1.460 . S
C1591 H1597 0.929 . S
N1592 Mn1585 2.257 . S
N1592 C1591 1.326 . S
N1592 C1596 1.362 . S
C1593 C1594 1.258 . S
C1593 C1596 1.431 . S
C1593 C1613 1.449 . S
C1594 C1593 1.258 . S
C1594 C1595 1.477 . S
C1594 H1614 0.931 . S
C1595 C1591 1.460 . S
C1595 C1594 1.477 . S
C1595 H1615 0.930 . S
C1596 N1592 1.362 . S
C1596 C1593 1.431 . S
C1596 C1606 1.476 . S
H1597 C1591 0.929 . S
C1598 O1589 1.250 . S
C1598 O1590 1.258 . S
O1599 Mn1584 2.162 . S
O1599 C1587 1.281 . S
O1600 Mn1584 2.297 . S
O1600 C1587 1.236 . S
N1601 Mn1585 2.282 . S
N1601 C1602 1.328 . S
N1601 C1606 1.318 . S
C1602 N1601 1.328 . S
C1602 C1603 1.457 . S
C1602 H1607 0.929 . S
C1603 C1602 1.457 . S
C1603 C1604 1.291 . S
C1603 H1616 0.931 . S
C1604 C1603 1.291 . S
C1604 C1605 1.373 . S
C1604 H1617 0.929 . S
C1605 C1604 1.373 . S
C1605 C1606 1.396 . S
C1605 C1612 1.403 . S
C1606 C1596 1.476 . S
C1606 N1601 1.318 . S
C1606 C1605 1.396 . S
H1607 C1602 0.929 . S
O1608 Mn1584 2.385 . S
O1608 C1586 1.234 . S
O1609 Mn1584 2.209 . S
O1609 Mn1585 2.215 . S
O1609 C1586 1.283 . S
O1610 Mn1584 2.094 . S
O1610 C1588 1.240 . S
O1611 Mn1585 2.117 . S
O1611 C1588 1.264 . S
C1612 C1605 1.403 . S
C1612 C1613 1.399 . S
C1612 H1618 0.929 . S
C1613 C1593 1.449 . S
C1613 C1612 1.399 . S
C1613 H1619 0.930 . S
H1614 C1594 0.931 . S
H1615 C1595 0.930 . S
H1616 C1603 0.931 . S
H1617 C1604 0.929 . S
H1618 C1612 0.929 . S
H1619 C1613 0.930 . S
Mn1620 O1625 2.095 . S
Mn1620 O1635 2.162 . S
Mn1620 O1636 2.297 . S
Mn1620 O1644 2.385 . S
Mn1620 O1645 2.209 . S
Mn1620 O1646 2.094 . S
Mn1621 O1626 2.121 . S
Mn1621 N1628 2.257 . S
Mn1621 N1637 2.282 . S
Mn1621 O1645 2.215 . S
Mn1621 O1647 2.117 . S
C1622 O1644 1.234 . S
C1622 O1645 1.283 . S
C1623 O1635 1.281 . S
C1623 O1636 1.236 . S
C1624 O1646 1.240 . S
C1624 O1647 1.264 . S
O1625 Mn1620 2.095 . S
O1625 C1634 1.250 . S
O1626 Mn1621 2.121 . S
O1626 C1634 1.258 . S
C1627 N1628 1.326 . S
C1627 C1631 1.460 . S
C1627 H1633 0.929 . S
N1628 Mn1621 2.257 . S
N1628 C1627 1.326 . S
N1628 C1632 1.362 . S
C1629 C1630 1.258 . S
C1629 C1632 1.431 . S
C1629 C1649 1.449 . S
C1630 C1629 1.258 . S
C1630 C1631 1.477 . S
C1630 H1650 0.931 . S
C1631 C1627 1.460 . S
C1631 C1630 1.477 . S
C1631 H1651 0.930 . S
C1632 N1628 1.362 . S
C1632 C1629 1.431 . S
C1632 C1642 1.476 . S
H1633 C1627 0.929 . S
C1634 O1625 1.250 . S
C1634 O1626 1.258 . S
O1635 Mn1620 2.162 . S
O1635 C1623 1.281 . S
O1636 Mn1620 2.297 . S
O1636 C1623 1.236 . S
N1637 Mn1621 2.282 . S
N1637 C1638 1.328 . S
N1637 C1642 1.318 . S
C1638 N1637 1.328 . S
C1638 C1639 1.457 1_556 S
C1638 H1643 0.929 1_556 S
C1639 C1638 1.457 1_554 S
C1639 C1640 1.291 1_554 S
C1639 H1652 0.931 . S
C1640 C1639 1.291 1_556 S
C1640 C1641 1.373 . S
C1640 H1653 0.929 1_556 S
C1641 C1640 1.373 . S
C1641 C1642 1.396 . S
C1641 C1648 1.403 . S
C1642 C1632 1.476 . S
C1642 N1637 1.318 . S
C1642 C1641 1.396 . S
H1643 C1638 0.929 1_554 S
O1644 Mn1620 2.385 . S
O1644 C1622 1.234 . S
O1645 Mn1620 2.209 . S
O1645 Mn1621 2.215 . S
O1645 C1622 1.283 . S
O1646 Mn1620 2.094 . S
O1646 C1624 1.240 . S
O1647 Mn1621 2.117 . S
O1647 C1624 1.264 . S
C1648 C1641 1.403 . S
C1648 C1649 1.399 . S
C1648 H1654 0.929 . S
C1649 C1629 1.449 . S
C1649 C1648 1.399 . S
C1649 H1655 0.930 . S
H1650 C1630 0.931 . S
H1651 C1631 0.930 . S
H1652 C1639 0.931 . S
H1653 C1640 0.929 1_554 S
H1654 C1648 0.929 . S
H1655 C1649 0.930 . S
Mn1656 O1661 2.095 . S
Mn1656 O1671 2.162 . S
Mn1656 O1672 2.297 . S
Mn1656 O1680 2.385 . S
Mn1656 O1681 2.209 . S
Mn1656 O1682 2.094 . S
Mn1657 O1662 2.121 . S
Mn1657 N1664 2.257 . S
Mn1657 N1673 2.282 . S
Mn1657 O1681 2.215 . S
Mn1657 O1683 2.117 . S
C1658 O1680 1.234 . S
C1658 O1681 1.283 . S
C1659 O1671 1.281 . S
C1659 O1672 1.236 . S
C1660 O1682 1.240 . S
C1660 O1683 1.264 . S
O1661 Mn1656 2.095 . S
O1661 C1670 1.250 . S
O1662 Mn1657 2.121 . S
O1662 C1670 1.258 . S
C1663 N1664 1.326 . S
C1663 C1667 1.460 . S
C1663 H1669 0.929 . S
N1664 Mn1657 2.257 . S
N1664 C1663 1.326 . S
N1664 C1668 1.362 . S
C1665 C1666 1.258 . S
C1665 C1668 1.431 . S
C1665 C1685 1.449 . S
C1666 C1665 1.258 . S
C1666 C1667 1.477 . S
C1666 H1686 0.931 . S
C1667 C1663 1.460 . S
C1667 C1666 1.477 . S
C1667 H1687 0.930 . S
C1668 N1664 1.362 . S
C1668 C1665 1.431 . S
C1668 C1678 1.476 . S
H1669 C1663 0.929 . S
C1670 O1661 1.250 . S
C1670 O1662 1.258 . S
O1671 Mn1656 2.162 . S
O1671 C1659 1.281 . S
O1672 Mn1656 2.297 . S
O1672 C1659 1.236 . S
N1673 Mn1657 2.282 . S
N1673 C1674 1.328 . S
N1673 C1678 1.318 . S
C1674 N1673 1.328 . S
C1674 C1675 1.457 . S
C1674 H1679 0.929 . S
C1675 C1674 1.457 . S
C1675 C1676 1.291 . S
C1675 H1688 0.931 . S
C1676 C1675 1.291 . S
C1676 C1677 1.373 . S
C1676 H1689 0.929 . S
C1677 C1676 1.373 . S
C1677 C1678 1.396 . S
C1677 C1684 1.403 . S
C1678 C1668 1.476 . S
C1678 N1673 1.318 . S
C1678 C1677 1.396 . S
H1679 C1674 0.929 . S
O1680 Mn1656 2.385 . S
O1680 C1658 1.234 . S
O1681 Mn1656 2.209 . S
O1681 Mn1657 2.215 . S
O1681 C1658 1.283 . S
O1682 Mn1656 2.094 . S
O1682 C1660 1.240 . S
O1683 Mn1657 2.117 . S
O1683 C1660 1.264 . S
C1684 C1677 1.403 . S
C1684 C1685 1.399 . S
C1684 H1690 0.929 . S
C1685 C1665 1.449 . S
C1685 C1684 1.399 . S
C1685 H1691 0.930 . S
H1686 C1666 0.931 . S
H1687 C1667 0.930 . S
H1688 C1675 0.931 . S
H1689 C1676 0.929 . S
H1690 C1684 0.929 . S
H1691 C1685 0.930 . S
Mn1692 O1697 2.095 . S
Mn1692 O1707 2.162 . S
Mn1692 O1708 2.297 . S
Mn1692 O1716 2.385 . S
Mn1692 O1717 2.209 . S
Mn1692 O1718 2.094 . S
Mn1693 O1698 2.121 . S
Mn1693 N1700 2.257 . S
Mn1693 N1709 2.282 . S
Mn1693 O1717 2.215 . S
Mn1693 O1719 2.117 . S
C1694 O1716 1.234 . S
C1694 O1717 1.283 . S
C1695 O1707 1.281 . S
C1695 O1708 1.236 . S
C1696 O1718 1.240 . S
C1696 O1719 1.264 . S
O1697 Mn1692 2.095 . S
O1697 C1706 1.250 . S
O1698 Mn1693 2.121 . S
O1698 C1706 1.258 . S
C1699 N1700 1.326 . S
C1699 C1703 1.460 . S
C1699 H1705 0.929 . S
N1700 Mn1693 2.257 . S
N1700 C1699 1.326 . S
N1700 C1704 1.362 . S
C1701 C1702 1.258 . S
C1701 C1704 1.431 . S
C1701 C1721 1.449 . S
C1702 C1701 1.258 . S
C1702 C1703 1.477 . S
C1702 H1722 0.931 . S
C1703 C1699 1.460 . S
C1703 C1702 1.477 . S
C1703 H1723 0.930 . S
C1704 N1700 1.362 . S
C1704 C1701 1.431 . S
C1704 C1714 1.476 . S
H1705 C1699 0.929 . S
C1706 O1697 1.250 . S
C1706 O1698 1.258 . S
O1707 Mn1692 2.162 . S
O1707 C1695 1.281 . S
O1708 Mn1692 2.297 . S
O1708 C1695 1.236 . S
N1709 Mn1693 2.282 . S
N1709 C1710 1.328 . S
N1709 C1714 1.318 . S
C1710 N1709 1.328 . S
C1710 C1711 1.457 . S
C1710 H1715 0.929 . S
C1711 C1710 1.457 . S
C1711 C1712 1.291 . S
C1711 H1724 0.931 . S
C1712 C1711 1.291 . S
C1712 C1713 1.373 . S
C1712 H1725 0.929 . S
C1713 C1712 1.373 . S
C1713 C1714 1.396 . S
C1713 C1720 1.403 . S
C1714 C1704 1.476 . S
C1714 N1709 1.318 . S
C1714 C1713 1.396 . S
H1715 C1710 0.929 . S
O1716 Mn1692 2.385 . S
O1716 C1694 1.234 . S
O1717 Mn1692 2.209 . S
O1717 Mn1693 2.215 . S
O1717 C1694 1.283 . S
O1718 Mn1692 2.094 . S
O1718 C1696 1.240 . S
O1719 Mn1693 2.117 . S
O1719 C1696 1.264 . S
C1720 C1713 1.403 . S
C1720 C1721 1.399 . S
C1720 H1726 0.929 . S
C1721 C1701 1.449 . S
C1721 C1720 1.399 . S
C1721 H1727 0.930 . S
H1722 C1702 0.931 . S
H1723 C1703 0.930 . S
H1724 C1711 0.931 . S
H1725 C1712 0.929 . S
H1726 C1720 0.929 . S
H1727 C1721 0.930 . S
C1012 C4 1.115 1_655 S
C40 C1048 1.115 . S
C1084 C76 1.115 1_455 S
C112 C1120 1.115 . S
C868 C148 1.115 1_655 S
C184 C904 1.115 . S
C940 C220 1.115 1_455 S
C256 C976 1.115 . S
C1372 C292 1.115 1_565 S
C1408 C328 1.115 . S
C1300 C364 1.115 1_545 S
C400 C1336 1.115 . S
C1228 C436 1.115 1_545 S
C1264 C472 1.115 . S
C508 C1156 1.115 1_545 S
C1192 C544 1.115 . S
C580 C1624 1.115 1_554 S
C1552 C616 1.115 1_554 S
C1588 C652 1.115 . S
C1480 C688 1.115 1_554 S
C1516 C724 1.115 . S
C760 C1444 1.115 1_554 S
C796 C1696 1.115 . S
C1660 C832 1.115 . S
C266 C14 1.501 . S
C158 C50 1.501 . S
C194 C86 1.501 . S
C230 C122 1.501 . S
C734 C302 1.501 . S
C626 C338 1.501 . S
C662 C374 1.501 . S
C698 C410 1.501 . S
C842 C446 1.501 . S
C770 C482 1.501 . S
C518 C806 1.501 . S
C590 C554 1.501 . S
C1130 C878 1.501 . S
C1022 C914 1.501 . S
C950 C1058 1.501 . S
C986 C1094 1.501 . S
C1166 C1598 1.501 . S
C1202 C1490 1.501 . S
C1526 C1238 1.501 . S
C1562 C1274 1.501 . S
C1706 C1310 1.501 . S
C1634 C1346 1.501 . S
C1670 C1382 1.501 . S
C1418 C1454 1.501 . S
C2 C291 1.644 . S
C327 C38 1.644 . S
C363 C74 1.644 . S
C399 C110 1.644 . S
C146 C435 1.644 . S
C471 C182 1.644 . S
C218 C507 1.644 . S
C543 C254 1.644 . S
C579 C290 1.644 . S
C831 C326 1.644 . S
C362 C759 1.644 . S
C398 C795 1.644 . S
C434 C615 1.644 . S
C470 C651 1.644 . S
C506 C687 1.644 . S
C542 C723 1.644 . S
C578 C3 1.644 . S
C614 C147 1.644 . S
C650 C183 1.644 . S
C686 C219 1.644 . S
C722 C255 1.644 . S
C758 C75 1.644 . S
C111 C794 1.644 . S
C39 C830 1.644 . S
C1155 C866 1.644 . S
C1191 C902 1.644 . S
C1227 C938 1.644 . S
C1263 C974 1.644 . S
C1299 C1010 1.644 . S
C1046 C1335 1.644 . S
C1371 C1082 1.644 . S
C1118 C1407 1.644 . S
C1443 C1154 1.644 . S
C1190 C1695 1.644 . S
C1226 C1623 1.644 . S
C1659 C1262 1.644 . S
C1479 C1298 1.644 . S
C1334 C1515 1.644 . S
C1370 C1551 1.644 . S
C1587 C1406 1.644 . S
C867 C1442 1.644 . S
C1011 C1478 1.644 . S
C1047 C1514 1.644 . S
C1550 C1083 1.644 . S
C1119 C1586 1.644 . S
C939 C1622 1.644 . S
C1658 C975 1.644 . S
C903 C1694 1.644 . S
