# Generated by pormake.
# Topology ukh, (4)-cn, num edge types: 1
# Building blocks:
#     Node 0, Type 0, BuildingBlock: KUFVIS_clean_sbu_0, # of connection points: 4
#     Node 1, Type 0, BuildingBlock: KUFVIS_clean_sbu_0, # of connection points: 4
#     Node 2, Type 0, BuildingBlock: KUFVIS_clean_sbu_0, # of connection points: 4
#     Node 3, Type 0, BuildingBlock: KUFVIS_clean_sbu_0, # of connection points: 4
#     Node 4, Type 0, BuildingBlock: KUFVIS_clean_sbu_0, # of connection points: 4
#     Node 5, Type 0, BuildingBlock: KUFVIS_clean_sbu_0, # of connection points: 4
#     Node 6, Type 0, BuildingBlock: KUFVIS_clean_sbu_0, # of connection points: 4
#     Node 7, Type 0, BuildingBlock: KUFVIS_clean_sbu_0, # of connection points: 4
#     Node 8, Type 0, BuildingBlock: KUFVIS_clean_sbu_0, # of connection points: 4
#     Node 9, Type 0, BuildingBlock: KUFVIS_clean_sbu_0, # of connection points: 4
#     Node 10, Type 0, BuildingBlock: KUFVIS_clean_sbu_0, # of connection points: 4
#     Node 11, Type 0, BuildingBlock: KUFVIS_clean_sbu_0, # of connection points: 4
#     Edge 12, Type (0, 0), BuildingBlock: ZUJKAS_clean_linker_0, # of connection points: 2
#     Edge 13, Type (0, 0), BuildingBlock: ZUJKAS_clean_linker_0, # of connection points: 2
#     Edge 14, Type (0, 0), BuildingBlock: ZUJKAS_clean_linker_0, # of connection points: 2
#     Edge 15, Type (0, 0), BuildingBlock: ZUJKAS_clean_linker_0, # of connection points: 2
#     Edge 16, Type (0, 0), BuildingBlock: ZUJKAS_clean_linker_0, # of connection points: 2
#     Edge 17, Type (0, 0), BuildingBlock: ZUJKAS_clean_linker_0, # of connection points: 2
#     Edge 18, Type (0, 0), BuildingBlock: ZUJKAS_clean_linker_0, # of connection points: 2
#     Edge 19, Type (0, 0), BuildingBlock: ZUJKAS_clean_linker_0, # of connection points: 2
#     Edge 20, Type (0, 0), BuildingBlock: ZUJKAS_clean_linker_0, # of connection points: 2
#     Edge 21, Type (0, 0), BuildingBlock: ZUJKAS_clean_linker_0, # of connection points: 2
#     Edge 22, Type (0, 0), BuildingBlock: ZUJKAS_clean_linker_0, # of connection points: 2
#     Edge 23, Type (0, 0), BuildingBlock: ZUJKAS_clean_linker_0, # of connection points: 2
#     Edge 24, Type (0, 0), BuildingBlock: ZUJKAS_clean_linker_0, # of connection points: 2
#     Edge 25, Type (0, 0), BuildingBlock: ZUJKAS_clean_linker_0, # of connection points: 2
#     Edge 26, Type (0, 0), BuildingBlock: ZUJKAS_clean_linker_0, # of connection points: 2
#     Edge 27, Type (0, 0), BuildingBlock: ZUJKAS_clean_linker_0, # of connection points: 2
#     Edge 28, Type (0, 0), BuildingBlock: ZUJKAS_clean_linker_0, # of connection points: 2
#     Edge 29, Type (0, 0), BuildingBlock: ZUJKAS_clean_linker_0, # of connection points: 2
#     Edge 30, Type (0, 0), BuildingBlock: ZUJKAS_clean_linker_0, # of connection points: 2
#     Edge 31, Type (0, 0), BuildingBlock: ZUJKAS_clean_linker_0, # of connection points: 2
#     Edge 32, Type (0, 0), BuildingBlock: ZUJKAS_clean_linker_0, # of connection points: 2
#     Edge 33, Type (0, 0), BuildingBlock: ZUJKAS_clean_linker_0, # of connection points: 2
#     Edge 34, Type (0, 0), BuildingBlock: ZUJKAS_clean_linker_0, # of connection points: 2
#     Edge 35, Type (0, 0), BuildingBlock: ZUJKAS_clean_linker_0, # of connection points: 2
# Relax obj value: 0.084
# Max RMSD: 0.124
# Mean RMSD: 0.124
data_MOF--net-ukh--node1-KUFVIS_clean_sbu_0--edge1-ZUJKAS_clean_linker_0
_symmetry_space_group_name_H-M    P1
_symmetry_Int_Tables_number       1
_symmetry_cell_setting            triclinic
loop_
_symmetry_equiv_pos_as_xyz
'x, y, z'
_cell_length_a     41.932478
_cell_length_b     41.877496
_cell_length_c     79.225495
_cell_angle_alpha  90.031189
_cell_angle_beta   89.957661
_cell_angle_gamma 120.05643
loop_
_atom_site_label
_atom_site_type_symbol
_atom_site_fract_x
_atom_site_fract_y
_atom_site_fract_z
_atom_type_partial_charge
Mn0 Mn 0.31477 0.2271 0.05244 0.0
Mn1 Mn 0.28307 0.26794 0.07909 0.0
C2 C 0.26919 0.23911 0.04381 0.0
C3 C 0.30998 0.17203 0.04231 0.0
C4 C 0.35399 0.31082 0.0592 0.0
O5 O 0.33434 0.22177 0.07513 0.0
O6 O 0.31148 0.24939 0.0915 0.0
C7 C 0.23088 0.20033 0.09767 0.0
N8 N 0.23759 0.23052 0.08844 0.0
C9 C 0.17484 0.21653 0.09149 0.0
C10 C 0.16725 0.18537 0.10108 0.0
C11 C 0.19536 0.17712 0.10409 0.0
C12 C 0.21059 0.23826 0.08516 0.0
H13 H 0.25248 0.19407 0.10014 0.0
C14 C 0.32984 0.23285 0.08945 0.0
O15 O 0.34014 0.20354 0.04032 0.0
O16 O 0.2836 0.17273 0.05045 0.0
N17 N 0.2547 0.28744 0.06933 0.0
C18 C 0.26664 0.31864 0.05994 0.0
C19 C 0.24195 0.33088 0.05587 0.0
C20 C 0.20556 0.31149 0.06187 0.0
C21 C 0.19406 0.2798 0.07176 0.0
C22 C 0.21979 0.26873 0.07526 0.0
H23 H 0.29477 0.33406 0.05557 0.0
O24 O 0.28865 0.23329 0.03284 0.0
O25 O 0.27602 0.23653 0.0596 0.0
O26 O 0.35343 0.28314 0.0519 0.0
O27 O 0.32914 0.30769 0.06953 0.0
C28 C 0.15819 0.25897 0.07843 0.0
C29 C 0.14844 0.22708 0.08809 0.0
H30 H 0.13998 0.16762 0.1062 0.0
H31 H 0.18973 0.15309 0.11146 0.0
H32 H 0.25105 0.35543 0.04829 0.0
H33 H 0.18672 0.32127 0.05885 0.0
H34 H 0.13779 0.26711 0.07615 0.0
H35 H 0.12065 0.21105 0.09295 0.0
Mn36 Mn 0.08043 0.31405 0.38609 0.0
Mn37 Mn 0.00825 0.28376 0.41284 0.0
C38 C 0.02206 0.27024 0.37724 0.0
C39 C 0.12939 0.30742 0.37592 0.0
C40 C 0.04041 0.35664 0.39398 0.0
O41 O 0.10545 0.333 0.40891 0.0
O42 O 0.05516 0.30748 0.4255 0.0
C43 C 0.01745 0.22567 0.42954 0.0
N44 N 0.99598 0.236 0.42093 0.0
C45 C 0.94344 0.17489 0.4229 0.0
C46 C 0.96485 0.16364 0.43194 0.0
C47 C 0.00211 0.18909 0.43516 0.0
C48 C 0.96041 0.21154 0.41738 0.0
H49 H 0.04604 0.2452 0.4321 0.0
C50 C 0.09005 0.32605 0.42338 0.0
O51 O 0.12934 0.33827 0.37406 0.0
O52 O 0.10182 0.2814 0.38401 0.0
N53 N 0.96045 0.25971 0.4027 0.0
C54 C 0.94375 0.27487 0.39363 0.0
C55 C 0.90652 0.25294 0.38914 0.0
C56 C 0.8866 0.21598 0.39442 0.0
C57 C 0.90419 0.20118 0.40403 0.0
C58 C 0.94145 0.22421 0.40791 0.0
H59 H 0.95871 0.3035 0.38987 0.0
O60 O 0.04785 0.289 0.36635 0.0
O61 O 0.03151 0.27648 0.39303 0.0
O62 O 0.06519 0.35393 0.38567 0.0
O63 O 0.01881 0.3325 0.40463 0.0
C64 C 0.88615 0.16457 0.41003 0.0
C65 C 0.90588 0.15127 0.41924 0.0
H66 H 0.95301 0.13553 0.43642 0.0
H67 H 0.01888 0.18059 0.44205 0.0
H68 H 0.89308 0.26461 0.3818 0.0
H69 H 0.85779 0.19926 0.39106 0.0
H70 H 0.85713 0.14628 0.40754 0.0
H71 H 0.89183 0.1229 0.42352 0.0
Mn72 Mn 0.7728 0.09431 0.7158 0.0
Mn73 Mn 0.72809 0.01732 0.73958 0.0
C74 C 0.76174 0.03828 0.705 0.0
C75 C 0.82951 0.14556 0.70828 0.0
C76 C 0.6897 0.05298 0.72153 0.0
O77 O 0.77441 0.11453 0.73944 0.0
O78 O 0.75063 0.06155 0.75424 0.0
C79 C 0.79211 0.02076 0.75707 0.0
N80 N 0.76122 0.00185 0.74749 0.0
C81 C 0.76752 0.94782 0.74734 0.0
C82 C 0.7992 0.96657 0.75736 0.0
C83 C 0.81164 0.00327 0.76217 0.0
C84 C 0.74921 0.96669 0.74265 0.0
H85 H 0.80177 0.04899 0.76074 0.0
C86 C 0.76581 0.09669 0.75334 0.0
O87 O 0.79873 0.14522 0.70559 0.0
O88 O 0.82717 0.11698 0.7157 0.0
N89 N 0.70486 0.97198 0.72724 0.0
C90 C 0.67533 0.95871 0.71665 0.0
C91 C 0.65974 0.92251 0.71048 0.0
C92 C 0.67448 0.9003 0.71535 0.0
C93 C 0.7051 0.91468 0.7261 0.0
C94 C 0.71911 0.95073 0.73205 0.0
H95 H 0.66355 0.97548 0.71307 0.0
O96 O 0.76954 0.06577 0.69504 0.0
O97 O 0.76157 0.04461 0.72106 0.0
O98 O 0.71768 0.07836 0.71371 0.0
O99 O 0.69161 0.03046 0.73179 0.0
C100 C 0.72249 0.89479 0.731 0.0
C101 C 0.75381 0.91142 0.74154 0.0
H102 H 0.8144 0.95321 0.76127 0.0
H103 H 0.83621 0.01801 0.7698 0.0
H104 H 0.63625 0.91166 0.70209 0.0
H105 H 0.66225 0.87231 0.71065 0.0
H106 H 0.71235 0.86689 0.72653 0.0
H107 H 0.76733 0.8961 0.74498 0.0
Mn108 Mn 0.67777 0.77285 0.04681 0.0
Mn109 Mn 0.71796 0.734 0.06921 0.0
C110 C 0.72419 0.76571 0.03489 0.0
C111 C 0.67929 0.82805 0.03946 0.0
C112 C 0.64271 0.68956 0.05254 0.0
O113 O 0.66109 0.77402 0.07086 0.0
O114 O 0.69321 0.75216 0.08462 0.0
C115 C 0.77507 0.80145 0.08627 0.0
N116 N 0.76575 0.77144 0.07637 0.0
C117 C 0.82895 0.78622 0.07447 0.0
C118 C 0.83921 0.8171 0.08478 0.0
C119 C 0.81216 0.82486 0.09062 0.0
C120 C 0.79161 0.76409 0.07044 0.0
H121 H 0.75435 0.80747 0.09079 0.0
C122 C 0.67168 0.76559 0.0844 0.0
O123 O 0.64945 0.79627 0.03739 0.0
O124 O 0.70695 0.82739 0.04621 0.0
N125 N 0.74341 0.71533 0.05608 0.0
C126 C 0.72916 0.68528 0.04574 0.0
C127 C 0.75272 0.67425 0.03853 0.0
C128 C 0.79056 0.69384 0.04222 0.0
C129 C 0.8045 0.72433 0.05309 0.0
C130 C 0.77973 0.73416 0.05983 0.0
H131 H 0.70011 0.67003 0.0429 0.0
O132 O 0.70203 0.77083 0.02539 0.0
O133 O 0.71901 0.76568 0.05103 0.0
O134 O 0.64113 0.71647 0.04562 0.0
O135 O 0.66956 0.69387 0.06181 0.0
C136 C 0.84201 0.7454 0.05747 0.0
C137 C 0.85431 0.77657 0.068 0.0
H138 H 0.86778 0.83514 0.08821 0.0
H139 H 0.81988 0.84876 0.0985 0.0
H140 H 0.74173 0.65067 0.03016 0.0
H141 H 0.80866 0.68528 0.03661 0.0
H142 H 0.86174 0.73818 0.05262 0.0
H143 H 0.88334 0.79297 0.07101 0.0
Mn144 Mn 0.90576 0.68125 0.38169 0.0
Mn145 Mn 0.98541 0.71759 0.40353 0.0
C146 C 0.96033 0.72355 0.36891 0.0
C147 C 0.85401 0.68573 0.37433 0.0
C148 C 0.94649 0.63968 0.38913 0.0
O149 O 0.88884 0.66823 0.40615 0.0
O150 O 0.94349 0.7005 0.41946 0.0
C151 C 0.98633 0.78315 0.4181 0.0
N152 N 0.00289 0.76824 0.40875 0.0
C153 C 0.05633 0.82795 0.40418 0.0
C154 C 0.03998 0.84393 0.41388 0.0
C155 C 0.00478 0.82143 0.42082 0.0
C156 C 0.03665 0.78964 0.40193 0.0
H157 H 0.95923 0.76596 0.4234 0.0
C158 C 0.90827 0.68064 0.41952 0.0
O159 O 0.85359 0.65454 0.37305 0.0
O160 O 0.88372 0.71334 0.38033 0.0
N161 N 0.02835 0.73553 0.38962 0.0
C162 C 0.03928 0.71608 0.37976 0.0
C163 C 0.07355 0.7346 0.37155 0.0
C164 C 0.09631 0.77283 0.37367 0.0
C165 C 0.08451 0.79227 0.38389 0.0
C166 C 0.05024 0.77228 0.39188 0.0
H167 H 0.02205 0.68665 0.37817 0.0
O168 O 0.93185 0.70207 0.35981 0.0
O169 O 0.95579 0.71999 0.38514 0.0
O170 O 0.92082 0.64133 0.38115 0.0
O171 O 0.97021 0.66587 0.39836 0.0
C172 C 0.10516 0.83077 0.38626 0.0
C173 C 0.09102 0.84861 0.39636 0.0
H174 H 0.05404 0.87346 0.41595 0.0
H175 H 0.99188 0.83359 0.42824 0.0
H176 H 0.08244 0.71942 0.36366 0.0
H177 H 0.12275 0.78698 0.36735 0.0
H178 H 0.13167 0.84698 0.38017 0.0
H179 H 0.10688 0.87829 0.39787 0.0
Mn180 Mn 0.23111 0.91287 0.71898 0.0
Mn181 Mn 0.27342 0.98416 0.74625 0.0
C182 C 0.24503 0.97135 0.71081 0.0
C183 C 0.17597 0.86344 0.7087 0.0
C184 C 0.31443 0.95454 0.72603 0.0
O185 O 0.22505 0.88696 0.74147 0.0
O186 O 0.25268 0.93656 0.75842 0.0
C187 C 0.20638 0.97123 0.76453 0.0
N188 N 0.23713 0.99403 0.75548 0.0
C189 C 0.22544 0.04442 0.75835 0.0
C190 C 0.19373 0.02156 0.76778 0.0
C191 C 0.18405 0.98473 0.77079 0.0
C192 C 0.24627 0.02925 0.7522 0.0
H193 H 0.19899 0.94298 0.76699 0.0
C194 C 0.23555 0.90169 0.75597 0.0
O195 O 0.20721 0.8644 0.70663 0.0
O196 O 0.17693 0.89059 0.71695 0.0
N197 N 0.29505 0.03254 0.73673 0.0
C198 C 0.32677 0.05108 0.72762 0.0
C199 C 0.34036 0.08832 0.72355 0.0
C200 C 0.32179 0.10637 0.72928 0.0
C201 C 0.28967 0.08696 0.73897 0.0
C202 C 0.27724 0.0498 0.74248 0.0
H203 H 0.34158 0.03756 0.72348 0.0
O204 O 0.23821 0.94609 0.69964 0.0
O205 O 0.24204 0.96134 0.72654 0.0
O206 O 0.2865 0.92891 0.71825 0.0
O207 O 0.31216 0.97602 0.73683 0.0
C208 C 0.26972 0.10312 0.74546 0.0
C209 C 0.23737 0.08175 0.75494 0.0
H210 H 0.17663 0.03198 0.77276 0.0
H211 H 0.15958 0.96688 0.77803 0.0
H212 H 0.3653 0.10319 0.71616 0.0
H213 H 0.33258 0.1352 0.72624 0.0
H214 H 0.27893 0.13195 0.74318 0.0
H215 H 0.22205 0.09439 0.75967 0.0
Mn216 Mn 0.77689 0.68211 0.62163 0.0
Mn217 Mn 0.7335 0.71882 0.60017 0.0
C218 C 0.76525 0.72463 0.63461 0.0
C219 C 0.83335 0.68659 0.6286 0.0
C220 C 0.6944 0.64088 0.61455 0.0
O221 O 0.78007 0.66894 0.59712 0.0
O222 O 0.75777 0.70149 0.58401 0.0
C223 C 0.79802 0.78416 0.58539 0.0
N224 N 0.76679 0.76942 0.5949 0.0
C225 C 0.7737 0.82931 0.59972 0.0
C226 C 0.80578 0.84512 0.58984 0.0
C227 C 0.81804 0.82244 0.58269 0.0
C228 C 0.75484 0.79099 0.60192 0.0
H229 H 0.8076 0.76683 0.57994 0.0
C230 C 0.77287 0.6814 0.58382 0.0
O231 O 0.80258 0.65543 0.63006 0.0
O232 O 0.83109 0.71413 0.62266 0.0
N233 N 0.70906 0.73699 0.61432 0.0
C234 C 0.67893 0.71769 0.62435 0.0
C235 C 0.6637 0.73641 0.6328 0.0
C236 C 0.67942 0.77469 0.63077 0.0
C237 C 0.71037 0.79397 0.62036 0.0
C238 C 0.72413 0.77378 0.61213 0.0
H239 H 0.66656 0.68823 0.62588 0.0
O240 O 0.77232 0.70307 0.6436 0.0
O241 O 0.7658 0.721 0.61836 0.0
O242 O 0.72179 0.64234 0.6224 0.0
O243 O 0.69688 0.66717 0.6054 0.0
C244 C 0.72845 0.83248 0.61804 0.0
C245 C 0.76015 0.85016 0.60776 0.0
H246 H 0.8214 0.87465 0.5878 0.0
H247 H 0.8429 0.83447 0.57515 0.0
H248 H 0.63986 0.72136 0.64084 0.0
H249 H 0.66757 0.78901 0.63731 0.0
H250 H 0.71854 0.84884 0.62432 0.0
H251 H 0.77416 0.87985 0.6063 0.0
Mn252 Mn 0.09198 0.77289 0.95362 0.0
Mn253 Mn 0.01362 0.73091 0.93068 0.0
C254 C 0.03757 0.76507 0.96464 0.0
C255 C 0.14469 0.82858 0.96139 0.0
C256 C 0.04385 0.68862 0.94941 0.0
O257 O 0.11136 0.7744 0.92991 0.0
O258 O 0.05725 0.74564 0.91604 0.0
C259 C 0.02689 0.79608 0.91061 0.0
N260 N 0.0051 0.768 0.92128 0.0
C261 C 0.95811 0.78493 0.92071 0.0
C262 C 0.97995 0.81391 0.90965 0.0
C263 C 0.01456 0.8196 0.90464 0.0
C264 C 0.97198 0.76258 0.92635 0.0
H265 H 0.05344 0.80046 0.90667 0.0
C266 C 0.09246 0.7615 0.91646 0.0
O267 O 0.14316 0.79706 0.96369 0.0
O268 O 0.11658 0.82743 0.95413 0.0
N269 N 0.96878 0.71517 0.94291 0.0
C270 C 0.95154 0.68666 0.95401 0.0
C271 C 0.91684 0.67772 0.96047 0.0
C272 C 0.89995 0.69776 0.95525 0.0
C273 C 0.91794 0.72657 0.94359 0.0
C274 C 0.95256 0.73434 0.93766 0.0
H275 H 0.96437 0.67118 0.95807 0.0
O276 O 0.06443 0.77058 0.97454 0.0
O277 O 0.04341 0.76476 0.94856 0.0
O278 O 0.0732 0.71657 0.95519 0.0
O279 O 0.0202 0.69143 0.94032 0.0
C280 C 0.90293 0.74797 0.93767 0.0
C281 C 0.92315 0.77736 0.92638 0.0
H282 H 0.97047 0.83202 0.90497 0.0
H283 H 0.03163 0.84197 0.89615 0.0
H284 H 0.90315 0.65544 0.96946 0.0
H285 H 0.87324 0.69086 0.96029 0.0
H286 H 0.87597 0.74226 0.94185 0.0
H287 H 0.91155 0.79397 0.92213 0.0
Mn288 Mn 0.32199 0.09251 0.28859 0.0
Mn289 Mn 0.29814 0.01534 0.26593 0.0
C290 C 0.28121 0.03525 0.29977 0.0
C291 C 0.31079 0.1404 0.29571 0.0
C292 C 0.37165 0.05935 0.2837 0.0
O293 O 0.3383 0.11208 0.26464 0.0
O294 O 0.31627 0.05823 0.25059 0.0
C295 C 0.23425 0.0095 0.24732 0.0
N296 N 0.24882 0.99435 0.25779 0.0
C297 C 0.1913 0.93701 0.25898 0.0
C298 C 0.17569 0.95193 0.24815 0.0
C299 C 0.19723 0.98837 0.24234 0.0
C300 C 0.22832 0.95938 0.26351 0.0
H301 H 0.25079 0.03748 0.24282 0.0
C302 C 0.33229 0.0935 0.25103 0.0
O303 O 0.34298 0.14366 0.29806 0.0
O304 O 0.28595 0.11013 0.28872 0.0
N305 N 0.28008 0.97152 0.2792 0.0
C306 C 0.29876 0.96208 0.29031 0.0
C307 C 0.28117 0.92654 0.29735 0.0
C308 C 0.24469 0.90108 0.29282 0.0
C309 C 0.22584 0.91162 0.28156 0.0
C310 C 0.24499 0.94719 0.27475 0.0
H311 H 0.32697 0.98139 0.29366 0.0
O312 O 0.29893 0.06361 0.30958 0.0
O313 O 0.28769 0.04133 0.2837 0.0
O314 O 0.36551 0.08297 0.291 0.0
O315 O 0.34887 0.0342 0.27383 0.0
C316 C 0.18876 0.88831 0.27692 0.0
C317 C 0.17145 0.90107 0.2657 0.0
H318 H 0.14712 0.93577 0.24431 0.0
H319 H 0.18533 1.00012 0.23403 0.0
H320 H 0.29578 0.91868 0.30613 0.0
H321 H 0.23135 0.87356 0.29813 0.0
H322 H 0.17318 0.8607 0.28207 0.0
H323 H 0.14277 0.8831 0.26242 0.0
Mn324 Mn 0.23326 0.31882 0.61818 0.0
Mn325 Mn 0.27473 0.28659 0.59229 0.0
C326 C 0.24625 0.2743 0.62775 0.0
C327 C 0.17765 0.31367 0.6273 0.0
C328 C 0.31594 0.36015 0.61069 0.0
O329 O 0.22895 0.33789 0.59506 0.0
O330 O 0.25169 0.3096 0.579 0.0
C331 C 0.20741 0.22757 0.57598 0.0
N332 N 0.23932 0.23844 0.58459 0.0
C333 C 0.23145 0.17759 0.58298 0.0
C334 C 0.19872 0.16578 0.57391 0.0
C335 C 0.18647 0.19082 0.57053 0.0
C336 C 0.25075 0.21435 0.58837 0.0
H337 H 0.19804 0.2468 0.57329 0.0
C338 C 0.23652 0.32933 0.58075 0.0
O339 O 0.20884 0.34398 0.62961 0.0
O340 O 0.17895 0.28719 0.61952 0.0
N341 N 0.29834 0.26307 0.60304 0.0
C342 C 0.32997 0.27865 0.6123 0.0
C343 C 0.34558 0.25714 0.61703 0.0
C344 C 0.32913 0.2202 0.61178 0.0
C345 C 0.29691 0.20493 0.60202 0.0
C346 C 0.28229 0.22752 0.59794 0.0
H347 H 0.34327 0.3073 0.61599 0.0
O348 O 0.23903 0.29348 0.6383 0.0
O349 O 0.24396 0.28045 0.61185 0.0
O350 O 0.28867 0.35782 0.61906 0.0
O351 O 0.31297 0.33576 0.60008 0.0
C352 C 0.27887 0.16828 0.59606 0.0
C353 C 0.24584 0.15443 0.5868 0.0
H354 H 0.18271 0.13755 0.56953 0.0
H355 H 0.16112 0.18188 0.56362 0.0
H356 H 0.37053 0.26915 0.6245 0.0
H357 H 0.34151 0.20383 0.61529 0.0
H358 H 0.28993 0.15033 0.59869 0.0
H359 H 0.23185 0.12599 0.5826 0.0
Mn360 Mn 0.90941 0.22705 0.95123 0.0
Mn361 Mn 0.98359 0.26621 0.9255 0.0
C362 C 0.96634 0.23869 0.96098 0.0
C363 C 0.85812 0.1721 0.96082 0.0
C364 C 0.95409 0.3101 0.9437 0.0
O365 O 0.88617 0.22209 0.92805 0.0
O366 O 0.93755 0.2455 0.91226 0.0
C367 C 0.97106 0.19754 0.90888 0.0
N368 N 0.9935 0.22898 0.91759 0.0
C369 C 0.04421 0.21766 0.91567 0.0
C370 C 0.02179 0.18533 0.90653 0.0
C371 C 0.98495 0.17506 0.90325 0.0
C372 C 0.02861 0.23853 0.92126 0.0
H373 H 0.94282 0.18973 0.90623 0.0
C374 C 0.90261 0.23034 0.91383 0.0
O375 O 0.85958 0.2037 0.96258 0.0
O376 O 0.88571 0.17268 0.95324 0.0
N377 N 0.03078 0.28753 0.93614 0.0
C378 C 0.04849 0.31915 0.94539 0.0
C379 C 0.0855 0.33307 0.9499 0.0
C380 C 0.1042 0.31495 0.94445 0.0
C381 C 0.08554 0.28272 0.93473 0.0
C382 C 0.04853 0.26985 0.93086 0.0
H383 H 0.03453 0.33372 0.94924 0.0
O384 O 0.94028 0.233 0.97147 0.0
O385 O 0.95798 0.23599 0.94507 0.0
O386 O 0.92731 0.28308 0.95149 0.0
O387 O 0.97559 0.30612 0.93355 0.0
C388 C 0.1023 0.26302 0.92862 0.0
C389 C 0.0815 0.23019 0.91934 0.0
H390 H 0.03254 0.16816 0.902 0.0
H391 H 0.9674 0.15006 0.89627 0.0
H392 H 0.09974 0.358 0.95736 0.0
H393 H 0.13289 0.32604 0.94778 0.0
H394 H 0.13109 0.27265 0.93113 0.0
H395 H 0.09452 0.21494 0.915 0.0
Mn396 Mn 0.68055 0.90924 0.28305 0.0
Mn397 Mn 0.71241 0.98277 0.25702 0.0
C398 C 0.72379 0.96723 0.29269 0.0
C399 C 0.68587 0.85936 0.2929 0.0
C400 C 0.63862 0.94973 0.27505 0.0
O401 O 0.663 0.88537 0.25988 0.0
O402 O 0.69004 0.93649 0.24385 0.0
C403 C 0.77196 0.97483 0.24109 0.0
N404 N 0.76074 0.9958 0.24955 0.0
C405 C 0.8214 0.04908 0.24811 0.0
C406 C 0.83357 0.02821 0.23921 0.0
C407 C 0.80879 0.99082 0.23582 0.0
C408 C 0.78456 0.03144 0.25333 0.0
H409 H 0.75293 0.94614 0.23838 0.0
C410 C 0.67133 0.90147 0.24557 0.0
O411 O 0.65515 0.85968 0.29444 0.0
O412 O 0.71265 0.88732 0.28532 0.0
N413 N 0.7354 0.03015 0.26762 0.0
C414 C 0.71943 0.04622 0.2766 0.0
C415 C 0.74062 0.08348 0.28126 0.0
C416 C 0.77765 0.10409 0.27621 0.0
C417 C 0.7933 0.08714 0.26671 0.0
C418 C 0.77102 0.04979 0.26269 0.0
H419 H 0.69072 0.03076 0.28013 0.0
O420 O 0.70446 0.94082 0.30323 0.0
O421 O 0.71854 0.95859 0.27679 0.0
O422 O 0.641 0.92476 0.28333 0.0
O423 O 0.66304 0.97156 0.26456 0.0
C424 C 0.83005 0.1059 0.26093 0.0
C425 C 0.84427 0.08676 0.25189 0.0
H426 H 0.86187 0.04057 0.23497 0.0
H427 H 0.818 0.97445 0.22905 0.0
H428 H 0.7283 0.09641 0.28853 0.0
H429 H 0.79378 0.13294 0.27968 0.0
H430 H 0.84778 0.13501 0.26353 0.0
H431 H 0.87277 0.10133 0.24782 0.0
H432 H 0.6451 0.62719 0.05949 0.0
H433 H 0.59677 0.56356 0.05673 0.0
H434 H 0.52324 0.59853 0.03715 0.0
H435 H 0.57253 0.66343 0.03947 0.0
H436 H 0.53274 0.53311 0.07375 0.0
H437 H 0.50595 0.51473 0.00476 0.0
H438 H 0.54681 0.55343 0.01353 0.0
H439 H 0.50366 0.55276 0.01399 0.0
C440 C 0.6189 0.62175 0.05439 0.0
C441 C 0.61282 0.65077 0.04977 0.0
C442 C 0.5912 0.58508 0.0528 0.0
C443 C 0.5564 0.5761 0.04665 0.0
C444 C 0.55012 0.60476 0.04166 0.0
H445 H 0.35815 0.37486 0.06954 0.0
H446 H 0.40718 0.43768 0.06492 0.0
C447 C 0.57821 0.64185 0.0431 0.0
C448 C 0.52645 0.53683 0.04696 0.0
H449 H 0.46558 0.4646 0.02242 0.0
C450 C 0.51818 0.51819 0.06249 0.0
C451 C 0.50775 0.51717 0.03225 0.0
C452 C 0.5166 0.53535 0.01514 0.0
C453 C 0.49163 0.4807 0.06377 0.0
C454 C 0.47214 0.46127 0.04919 0.0
C455 C 0.48059 0.47961 0.03357 0.0
C456 C 0.4413 0.42266 0.05039 0.0
C457 C 0.4847 0.46209 0.08077 0.0
C458 C 0.4437 0.39312 0.04333 0.0
C459 C 0.41532 0.35655 0.04592 0.0
C460 C 0.38417 0.3491 0.05562 0.0
C461 C 0.38172 0.37912 0.06217 0.0
C462 C 0.40979 0.4153 0.05953 0.0
H463 H 0.50807 0.47778 0.08958 0.0
H464 H 0.45967 0.4603 0.08647 0.0
H465 H 0.48002 0.43365 0.0795 0.0
H466 H 0.46788 0.39832 0.03619 0.0
H467 H 0.41805 0.33421 0.0406 0.0
H468 H 0.0619 0.4034 0.36651 0.0
H469 H 0.04526 0.45082 0.36054 0.0
H470 H 0.98828 0.42784 0.40823 0.0
H471 H 0.00414 0.38055 0.41416 0.0
H472 H 0.9465 0.42947 0.38146 0.0
H473 H 0.08699 0.55342 0.38175 0.0
H474 H 0.07951 0.51665 0.36765 0.0
H475 H 0.07795 0.50953 0.39004 0.0
C476 C 0.04629 0.40888 0.37581 0.0
C477 C 0.03437 0.38814 0.39081 0.0
C478 C 0.03675 0.43593 0.37237 0.0
C479 C 0.01553 0.44287 0.38395 0.0
C480 C 0.00442 0.42278 0.39905 0.0
H481 H 0.98379 0.61848 0.41004 0.0
H482 H 0.99829 0.56969 0.40576 0.0
C483 C 0.01369 0.39579 0.40244 0.0
C484 C 0.00409 0.47058 0.38061 0.0
H485 H 0.03699 0.56333 0.37855 0.0
C486 C 0.96624 0.45874 0.38057 0.0
C487 C 0.02993 0.5087 0.37947 0.0
C488 C 0.07089 0.52308 0.37983 0.0
C489 C 0.95355 0.48407 0.38029 0.0
C490 C 0.97944 0.52225 0.37977 0.0
C491 C 0.01722 0.534 0.37893 0.0
C492 C 0.96842 0.55054 0.38224 0.0
C493 C 0.91272 0.46992 0.38156 0.0
C494 C 0.94609 0.55562 0.37058 0.0
C495 C 0.93736 0.58358 0.37307 0.0
C496 C 0.9512 0.60704 0.38719 0.0
C497 C 0.9728 0.60113 0.39897 0.0
C498 C 0.98128 0.57328 0.39652 0.0
H499 H 0.89687 0.44 0.38458 0.0
H500 H 0.90699 0.48524 0.39143 0.0
H501 H 0.90259 0.47431 0.36934 0.0
H502 H 0.93618 0.5386 0.35937 0.0
H503 H 0.92098 0.58765 0.36368 0.0
H504 H 0.37726 0.99677 0.74389 0.0
H505 H 0.44002 0.01418 0.73638 0.0
H506 H 0.40115 0.94765 0.69137 0.0
H507 H 0.33735 0.92952 0.69891 0.0
H508 H 0.45378 0.93904 0.70846 0.0
H509 H 0.50313 0.08739 0.70017 0.0
H510 H 0.48047 0.07139 0.72013 0.0
H511 H 0.45472 0.05315 0.70089 0.0
C512 C 0.38178 0.98568 0.73236 0.0
C513 C 0.3521 0.96189 0.72193 0.0
C514 C 0.41787 0.99602 0.72801 0.0
C515 C 0.42542 0.9832 0.71305 0.0
C516 C 0.39594 0.95835 0.70285 0.0
H517 H 0.66511 0.07704 0.69464 0.0
H518 H 0.6009 0.06022 0.68861 0.0
C519 C 0.35951 0.94783 0.70723 0.0
C520 C 0.46424 0.99489 0.70876 0.0
H521 H 0.54996 0.07155 0.70735 0.0
C522 C 0.47473 0.96798 0.70781 0.0
C523 C 0.49159 0.03264 0.7075 0.0
C524 C 0.48184 0.06275 0.70703 0.0
C525 C 0.51204 0.97792 0.70714 0.0
C526 C 0.5395 0.0157 0.70776 0.0
C527 C 0.52894 0.04259 0.70718 0.0
C528 C 0.57862 0.0274 0.71123 0.0
C529 C 0.52176 0.94779 0.70642 0.0
C530 C 0.58743 0.01583 0.7262 0.0
C531 C 0.62368 0.02543 0.72969 0.0
C532 C 0.65228 0.04717 0.71833 0.0
C533 C 0.64376 0.06028 0.70364 0.0
C534 C 0.60711 0.05051 0.70013 0.0
H535 H 0.49957 0.92262 0.70023 0.0
H536 H 0.54796 0.95695 0.69948 0.0
H537 H 0.52504 0.9402 0.71946 0.0
H538 H 0.5661 0.999 0.73521 0.0
H539 H 0.62915 0.01525 0.74126 0.0
H540 H 0.66764 0.58876 0.63999 0.0
H541 H 0.60323 0.54005 0.64434 0.0
H542 H 0.57244 0.57157 0.59802 0.0
H543 H 0.63588 0.61999 0.59369 0.0
H544 H 0.52774 0.56577 0.62532 0.0
H545 H 0.54279 0.44148 0.61909 0.0
H546 H 0.57186 0.4757 0.63427 0.0
H547 H 0.57816 0.48655 0.61217 0.0
C548 C 0.6472 0.58484 0.63061 0.0
C549 C 0.65695 0.60834 0.61652 0.0
C550 C 0.61041 0.55707 0.63313 0.0
C551 C 0.58302 0.55224 0.6215 0.0
C552 C 0.59302 0.57498 0.60722 0.0
H553 H 0.37562 0.38328 0.59026 0.0
H554 H 0.43909 0.43015 0.59589 0.0
C555 C 0.62944 0.60262 0.60475 0.0
C556 C 0.54359 0.52424 0.62402 0.0
H557 H 0.48291 0.43162 0.62241 0.0
C558 C 0.51787 0.53638 0.62495 0.0
C559 C 0.53087 0.48598 0.62348 0.0
C560 C 0.5572 0.47142 0.62209 0.0
C561 C 0.47976 0.51139 0.6245 0.0
C562 C 0.46704 0.47318 0.62338 0.0
C563 C 0.49276 0.46096 0.6233 0.0
C564 C 0.42769 0.44574 0.62022 0.0
C565 C 0.45353 0.52619 0.62424 0.0
C566 C 0.39985 0.43923 0.63192 0.0
C567 C 0.36306 0.41241 0.62865 0.0
C568 C 0.35371 0.39146 0.6137 0.0
C569 C 0.38172 0.39868 0.60195 0.0
C570 C 0.41816 0.42543 0.60517 0.0
H571 H 0.46805 0.55652 0.62225 0.0
H572 H 0.43268 0.5127 0.61411 0.0
H573 H 0.43875 0.52007 0.63648 0.0
H574 H 0.40665 0.45429 0.64372 0.0
H575 H 0.34224 0.40727 0.63804 0.0
H576 H 0.91687 0.33512 0.96377 0.0
H577 H 0.93211 0.39954 0.96793 0.0
H578 H 0.02572 0.43639 0.93489 0.0
H579 H 0.01094 0.37314 0.93051 0.0
H580 H 0.00297 0.46552 0.9793 0.0
H581 H 0.96209 0.47705 0.91393 0.0
H582 H 0.94753 0.43315 0.92396 0.0
H583 H 0.99322 0.45943 0.91538 0.0
C584 C 0.94065 0.35694 0.95738 0.0
C585 C 0.9623 0.34864 0.94665 0.0
C586 C 0.94943 0.39372 0.95985 0.0
C587 C 0.97988 0.42266 0.95158 0.0
C588 C 0.00188 0.41448 0.94122 0.0
H589 H 0.09102 0.66422 0.96013 0.0
H590 H 0.07645 0.59963 0.96265 0.0
C591 C 0.9932 0.37807 0.93874 0.0
C592 C 0.98832 0.46147 0.95303 0.0
H593 H 0.99508 0.53266 0.92937 0.0
C594 C 0.00102 0.48023 0.96845 0.0
C595 C 0.98575 0.48054 0.93885 0.0
C596 C 0.97112 0.46151 0.92211 0.0
C597 C 0.01165 0.51782 0.96997 0.0
C598 C 0.00984 0.53704 0.95565 0.0
C599 C 0.99681 0.51804 0.94031 0.0
C600 C 0.01876 0.57616 0.9563 0.0
C601 C 0.02415 0.53655 0.98687 0.0
C602 C 0.9913 0.58439 0.95201 0.0
C603 C 0.99957 0.62083 0.95037 0.0
C604 C 0.03562 0.65034 0.95303 0.0
C605 C 0.06299 0.64223 0.95805 0.0
C606 C 0.05465 0.60534 0.95957 0.0
H607 H 0.01714 0.51634 0.99729 0.0
H608 H 0.0545 0.55497 0.98668 0.0
H609 H 0.01146 0.55378 0.98955 0.0
H610 H 0.96345 0.56243 0.94945 0.0
H611 H 0.97757 0.62569 0.94658 0.0
H612 H 0.40088 0.0558 0.314 0.0
H613 H 0.45039 0.04104 0.31815 0.0
H614 H 0.46786 0.04616 0.26434 0.0
H615 H 0.41828 0.06002 0.26018 0.0
H616 H 0.44557 0.97423 0.2998 0.0
H617 H 0.57375 0.10669 0.28713 0.0
H618 H 0.53202 0.10437 0.29483 0.0
H619 H 0.5362 0.09586 0.27295 0.0
C620 C 0.41623 0.05496 0.30317 0.0
C621 C 0.40627 0.05944 0.28679 0.0
C622 C 0.44417 0.04624 0.30553 0.0
C623 C 0.46282 0.04274 0.29154 0.0
C624 C 0.45408 0.04917 0.27529 0.0
H625 H 0.61017 0.97991 0.25378 0.0
H626 H 0.56652 1.00036 0.26047 0.0
C627 C 0.42588 0.05717 0.27293 0.0
C628 C 0.48887 0.02885 0.29338 0.0
H629 H 0.5773 0.05179 0.28432 0.0
C630 C 0.4746 0.99122 0.29681 0.0
C631 C 0.52653 0.05114 0.28936 0.0
C632 C 0.54325 0.09187 0.28598 0.0
C633 C 0.49658 0.97475 0.2952 0.0
C634 C 0.53393 0.99677 0.29036 0.0
C635 C 0.5486 0.03485 0.28791 0.0
C636 C 0.5576 0.98074 0.28627 0.0
C637 C 0.47909 0.93362 0.29765 0.0
C638 C 0.56642 0.96194 0.29841 0.0
C639 C 0.59112 0.94962 0.29451 0.0
C640 C 0.60778 0.95649 0.27849 0.0
C641 C 0.59791 0.97426 0.26625 0.0
C642 C 0.57306 0.98613 0.27008 0.0
H643 H 0.44853 0.91969 0.2979 0.0
H644 H 0.48751 0.92118 0.28745 0.0
H645 H 0.48841 0.92812 0.30985 0.0
H646 H 0.55531 0.95797 0.31107 0.0
H647 H 0.59861 0.93649 0.30428 0.0
H648 H 0.34342 0.06709 0.22162 0.0
H649 H 0.35593 0.09556 0.19384 0.0
H650 H 0.35857 0.19171 0.2151 0.0
H651 H 0.34663 0.16351 0.24323 0.0
H652 H 0.30911 0.11273 0.17815 0.0
H653 H 0.44755 0.23738 0.18351 0.0
H654 H 0.43033 0.20016 0.19866 0.0
H655 H 0.41573 0.23383 0.1996 0.0
C656 C 0.34711 0.09452 0.22049 0.0
C657 C 0.34369 0.11293 0.23463 0.0
C658 C 0.35442 0.11079 0.20458 0.0
C659 C 0.35844 0.14582 0.2024 0.0
C660 C 0.3563 0.16493 0.21655 0.0
H661 H 0.34104 0.26582 0.12018 0.0
H662 H 0.35407 0.24547 0.14677 0.0
C663 C 0.34925 0.14872 0.2326 0.0
C664 C 0.3608 0.16021 0.1851 0.0
H665 H 0.41223 0.23329 0.15906 0.0
C666 C 0.33191 0.13887 0.1739 0.0
C667 C 0.39053 0.19433 0.17964 0.0
C668 C 0.42299 0.21765 0.19092 0.0
C669 C 0.33131 0.15118 0.15754 0.0
C670 C 0.36072 0.18556 0.15214 0.0
C671 C 0.38993 0.20676 0.16323 0.0
C672 C 0.35944 0.20126 0.13563 0.0
C673 C 0.29844 0.12802 0.1464 0.0
C674 C 0.35957 0.18395 0.12046 0.0
C675 C 0.35202 0.19548 0.10514 0.0
C676 C 0.34411 0.22438 0.10486 0.0
C677 C 0.3465 0.24313 0.11998 0.0
C678 C 0.35417 0.23171 0.13519 0.0
H679 H 0.27527 0.10548 0.15353 0.0
H680 H 0.28849 0.14536 0.14038 0.0
H681 H 0.30662 0.11534 0.13622 0.0
H682 H 0.36398 0.16058 0.12057 0.0
H683 H 0.35051 0.18057 0.09371 0.0
H684 H 0.16033 0.38532 0.42719 0.0
H685 H 0.19571 0.40699 0.45359 0.0
H686 H 0.10654 0.31664 0.4804 0.0
H687 H 0.07093 0.29612 0.45459 0.0
H688 H 0.13196 0.37912 0.49776 0.0
H689 H 0.24953 0.36245 0.47649 0.0
H690 H 0.24087 0.39396 0.46472 0.0
H691 H 0.208 0.34539 0.4642 0.0
C692 C 0.14849 0.37015 0.43875 0.0
C693 C 0.1129 0.33899 0.4388 0.0
C694 C 0.16871 0.38249 0.4538 0.0
C695 C 0.15388 0.3633 0.46899 0.0
C696 C 0.11848 0.33215 0.46892 0.0
H697 H 0.22013 0.29461 0.55056 0.0
H698 H 0.20564 0.31396 0.52425 0.0
C699 C 0.09818 0.3203 0.45408 0.0
C700 C 0.17467 0.37406 0.48511 0.0
H701 H 0.2458 0.37252 0.50516 0.0
C702 C 0.15724 0.37833 0.4994 0.0
C703 C 0.20787 0.37347 0.48715 0.0
C704 C 0.22768 0.36837 0.47239 0.0
C705 C 0.16979 0.37798 0.51578 0.0
C706 C 0.20156 0.37475 0.51786 0.0
C707 C 0.22124 0.37461 0.50351 0.0
C708 C 0.21093 0.36452 0.5343 0.0
C709 C 0.14709 0.3778 0.53062 0.0
C710 C 0.21835 0.38625 0.5489 0.0
C711 C 0.22576 0.37459 0.56427 0.0
C712 C 0.22676 0.34156 0.56508 0.0
C713 C 0.21969 0.32025 0.55039 0.0
C714 C 0.21161 0.33143 0.53526 0.0
H715 H 0.12008 0.37424 0.52666 0.0
H716 H 0.14197 0.35528 0.53954 0.0
H717 H 0.16231 0.40441 0.53746 0.0
H718 H 0.21867 0.41223 0.54841 0.0
H719 H 0.23157 0.39175 0.57537 0.0
H720 H 0.7724 0.1644 0.75975 0.0
H721 H 0.78409 0.19567 0.78721 0.0
H722 H 0.7909 0.10608 0.81048 0.0
H723 H 0.77761 0.0743 0.78358 0.0
H724 H 0.75193 0.12577 0.82959 0.0
H725 H 0.88187 0.25145 0.8101 0.0
H726 H 0.84095 0.24207 0.79883 0.0
H727 H 0.85907 0.2114 0.79672 0.0
C728 C 0.77651 0.15157 0.77076 0.0
C729 C 0.77423 0.11698 0.7695 0.0
C730 C 0.78325 0.16946 0.78642 0.0
C731 C 0.78873 0.15341 0.80091 0.0
C732 C 0.7865 0.11895 0.79955 0.0
H733 H 0.92335 0.21927 0.88304 0.0
H734 H 0.88977 0.20527 0.85669 0.0
C735 C 0.77909 0.10086 0.78409 0.0
C736 C 0.7979 0.17208 0.81759 0.0
H737 H 0.86753 0.24419 0.83878 0.0
C738 C 0.77692 0.15198 0.83163 0.0
C739 C 0.83031 0.20645 0.82018 0.0
C740 C 0.85457 0.22909 0.80572 0.0
C741 C 0.7893 0.1634 0.84819 0.0
C742 C 0.82291 0.19664 0.85075 0.0
C743 C 0.84189 0.21858 0.83674 0.0
C744 C 0.84237 0.2058 0.86722 0.0
C745 C 0.76788 0.13826 0.86264 0.0
C746 C 0.82681 0.21048 0.88209 0.0
C747 C 0.84585 0.21777 0.89746 0.0
C748 C 0.88099 0.22128 0.89804 0.0
C749 C 0.89644 0.21695 0.88308 0.0
C750 C 0.87729 0.20909 0.86792 0.0
H751 H 0.74582 0.11082 0.85821 0.0
H752 H 0.78647 0.13409 0.87118 0.0
H753 H 0.75473 0.15104 0.87007 0.0
H754 H 0.80016 0.20871 0.88181 0.0
H755 H 0.83345 0.22134 0.90878 0.0
H756 H 0.6101 0.77054 0.0917 0.0
H757 H 0.5912 0.78141 0.11946 0.0
H758 H 0.68823 0.7881 0.14179 0.0
H759 H 0.7061 0.77556 0.11455 0.0
H760 H 0.63074 0.75014 0.16157 0.0
H761 H 0.63461 0.87969 0.14187 0.0
H762 H 0.60233 0.83867 0.13083 0.0
H763 H 0.65098 0.85633 0.12837 0.0
C764 C 0.62729 0.77433 0.10257 0.0
C765 C 0.6597 0.77242 0.10091 0.0
C766 C 0.61654 0.78064 0.11841 0.0
C767 C 0.63855 0.7861 0.13271 0.0
C768 C 0.67064 0.7838 0.13101 0.0
H769 H 0.70489 0.92228 0.21516 0.0
H770 H 0.68735 0.88828 0.18885 0.0
C771 C 0.68096 0.77681 0.11535 0.0
C772 C 0.62979 0.79569 0.14947 0.0
H773 H 0.62665 0.86513 0.17053 0.0
C774 C 0.62932 0.77503 0.16356 0.0
C775 C 0.62765 0.82802 0.15201 0.0
C776 C 0.62916 0.85217 0.13752 0.0
C777 C 0.63012 0.78749 0.18009 0.0
C778 C 0.62998 0.82086 0.18259 0.0
C779 C 0.62696 0.83964 0.16854 0.0
C780 C 0.63947 0.84025 0.1991 0.0
C781 C 0.634 0.76635 0.19461 0.0
C782 C 0.61865 0.82443 0.21381 0.0
C783 C 0.62923 0.84375 0.22916 0.0
C784 C 0.66024 0.8794 0.22987 0.0
C785 C 0.68073 0.89499 0.21508 0.0
C786 C 0.67062 0.87559 0.19996 0.0
H787 H 0.63999 0.74467 0.19025 0.0
H788 H 0.65641 0.78526 0.20324 0.0
H789 H 0.60791 0.75272 0.20191 0.0
H790 H 0.59414 0.79744 0.21339 0.0
H791 H 0.61275 0.83122 0.24034 0.0
H792 H 0.78359 0.62392 0.57509 0.0
H793 H 0.79929 0.6107 0.54709 0.0
H794 H 0.8018 0.7079 0.52726 0.0
H795 H 0.78467 0.72025 0.55478 0.0
H796 H 0.76712 0.65203 0.50618 0.0
H797 H 0.89913 0.66181 0.52566 0.0
H798 H 0.85898 0.62694 0.53635 0.0
H799 H 0.87342 0.67484 0.53949 0.0
C800 C 0.78759 0.64244 0.56473 0.0
C801 C 0.78302 0.67319 0.56716 0.0
C802 C 0.79669 0.63495 0.54876 0.0
C803 C 0.80224 0.65859 0.5351 0.0
C804 C 0.79755 0.68917 0.53756 0.0
H805 H 0.93523 0.7194 0.44859 0.0
H806 H 0.90547 0.70731 0.47603 0.0
C807 C 0.78786 0.69627 0.55336 0.0
C808 C 0.81337 0.65241 0.51818 0.0
H809 H 0.88357 0.65109 0.49698 0.0
C810 C 0.79244 0.6515 0.50415 0.0
C811 C 0.84642 0.65174 0.51558 0.0
C812 C 0.871 0.65418 0.53002 0.0
C813 C 0.80465 0.65213 0.48759 0.0
C814 C 0.83811 0.65227 0.48499 0.0
C815 C 0.85792 0.65097 0.49902 0.0
C816 C 0.85547 0.65837 0.46808 0.0
C817 C 0.78276 0.65498 0.47314 0.0
C818 C 0.8373 0.63486 0.45438 0.0
C819 C 0.85408 0.64219 0.43846 0.0
C820 C 0.88963 0.67264 0.43611 0.0
C821 C 0.90789 0.69563 0.44995 0.0
C822 C 0.89093 0.68868 0.46569 0.0
H823 H 0.76247 0.66288 0.4775 0.0
H824 H 0.80121 0.67562 0.46371 0.0
H825 H 0.76733 0.62782 0.46676 0.0
H826 H 0.81027 0.61082 0.45601 0.0
H827 H 0.83951 0.62375 0.42808 0.0
H828 H 0.16254 0.81501 0.90788 0.0
H829 H 0.18948 0.82886 0.87947 0.0
H830 H 0.09277 0.73327 0.85997 0.0
H831 H 0.06534 0.71983 0.8881 0.0
H832 H 0.20541 0.79069 0.85461 0.0
H833 H 0.09463 0.81793 0.83387 0.0
H834 H 0.10238 0.81227 0.85577 0.0
H835 H 0.07824 0.77259 0.84233 0.0
C836 C 0.14732 0.79663 0.89758 0.0
C837 C 0.11159 0.76671 0.90015 0.0
C838 C 0.16271 0.80457 0.88137 0.0
C839 C 0.14271 0.78256 0.86758 0.0
C840 C 0.10825 0.75112 0.87037 0.0
H841 H 0.18041 0.82965 0.7595 0.0
H842 H 0.15926 0.79444 0.78589 0.0
C843 C 0.09268 0.74345 0.88647 0.0
C844 C 0.15649 0.794 0.85015 0.0
H845 H 0.13687 0.82232 0.81317 0.0
C846 C 0.19037 0.79742 0.8455 0.0
C847 C 0.13679 0.80283 0.83831 0.0
C848 C 0.10117 0.80158 0.84281 0.0
C849 C 0.20521 0.8097 0.82932 0.0
C850 C 0.18573 0.819 0.81761 0.0
C851 C 0.15148 0.81471 0.82213 0.0
C852 C 0.20191 0.83711 0.8013 0.0
C853 C 0.24167 0.81288 0.8249 0.0
C854 C 0.2331 0.87246 0.80125 0.0
C855 C 0.245 0.89265 0.78631 0.0
C856 C 0.22592 0.8779 0.77109 0.0
C857 C 0.19577 0.8417 0.771 0.0
C858 C 0.18365 0.82158 0.78604 0.0
H859 H 0.24756 0.79482 0.83302 0.0
H860 H 0.24229 0.80557 0.81147 0.0
H861 H 0.26399 0.84179 0.82686 0.0
H862 H 0.24714 0.88525 0.81292 0.0
H863 H 0.26844 0.9204 0.7868 0.0
H864 H 0.15378 0.89651 0.95581 0.0
H865 H 0.19691 0.95438 0.96916 0.0
H866 H 0.24775 0.90089 0.99516 0.0
H867 H 0.20326 0.84175 0.98205 0.0
H868 H 0.23428 0.94085 0.01655 0.0
H869 H 0.30188 0.02945 0.96164 0.0
H870 H 0.25301 0.00786 0.95903 0.0
H871 H 0.27461 0.97989 0.95979 0.0
C872 C 0.17449 0.89694 0.96413 0.0
C873 C 0.175 0.86434 0.96784 0.0
C874 C 0.19952 0.93037 0.97166 0.0
C875 C 0.22628 0.93247 0.98294 0.0
C876 C 0.22763 0.90015 0.98637 0.0
H877 H 0.35827 0.15941 0.02356 0.0
H878 H 0.34567 0.10096 0.01039 0.0
C879 C 0.20229 0.86638 0.97883 0.0
C880 C 0.24979 0.96761 0.99228 0.0
H881 H 0.29732 0.06116 0.98676 0.0
C882 C 0.2488 0.96709 0.01001 0.0
C883 C 0.2697 0.00207 0.98392 0.0
C884 C 0.2752 0.00476 0.96505 0.0
C885 C 0.26439 0.99995 0.01946 0.0
C886 C 0.28049 0.03436 0.01097 0.0
C887 C 0.28429 0.03492 0.99334 0.0
C888 C 0.28987 0.06941 0.01991 0.0
C889 C 0.26271 0.99728 0.03846 0.0
C890 C 0.2628 0.07138 0.02953 0.0
C891 C 0.26999 0.10444 0.0371 0.0
C892 C 0.30432 0.13678 0.03506 0.0
C893 C 0.33162 0.13498 0.02546 0.0
C894 C 0.32442 0.10159 0.01791 0.0
H895 H 0.26371 0.97258 0.04281 0.0
H896 H 0.28573 0.02215 0.04443 0.0
H897 H 0.23624 0.99431 0.04288 0.0
H898 H 0.23554 0.04749 0.03084 0.0
H899 H 0.24812 0.10474 0.04426 0.0
H900 H 0.18878 0.35346 0.35585 0.0
H901 H 0.23191 0.33838 0.34178 0.0
H902 H 0.17622 0.23028 0.3645 0.0
H903 H 0.13408 0.2453 0.37879 0.0
H904 H 0.25026 0.25996 0.36537 0.0
H905 H 0.20516 0.27157 0.30074 0.0
H906 H 0.22315 0.3123 0.31361 0.0
H907 H 0.18066 0.2719 0.3194 0.0
C908 C 0.18605 0.32665 0.35796 0.0
C909 C 0.15782 0.30053 0.36836 0.0
C910 C 0.21053 0.31795 0.3498 0.0
C911 C 0.20695 0.28292 0.35184 0.0
C912 C 0.17956 0.25744 0.36268 0.0
H913 H 0.24455 0.13727 0.29341 0.0
H914 H 0.22599 0.1782 0.30635 0.0
C915 C 0.15536 0.2661 0.37083 0.0
C916 C 0.2305 0.27158 0.34245 0.0
H917 H 0.24722 0.2504 0.30295 0.0
C918 C 0.25008 0.25835 0.3517 0.0
C919 C 0.23001 0.26924 0.32461 0.0
C920 C 0.20844 0.28171 0.31395 0.0
C921 C 0.26763 0.24129 0.34371 0.0
C922 C 0.26642 0.23817 0.32589 0.0
C923 C 0.24831 0.25296 0.31659 0.0
C924 C 0.27963 0.21573 0.31686 0.0
C925 C 0.28529 0.22474 0.35453 0.0
C926 C 0.31635 0.2236 0.31803 0.0
C927 C 0.32707 0.19987 0.3107 0.0
C928 C 0.30132 0.1681 0.30193 0.0
C929 C 0.26511 0.16138 0.30011 0.0
C930 C 0.25442 0.18487 0.30749 0.0
H931 H 0.27723 0.22291 0.36801 0.0
H932 H 0.27759 0.19666 0.35005 0.0
H933 H 0.31569 0.24227 0.35375 0.0
H934 H 0.33655 0.24769 0.32485 0.0
H935 H 0.35522 0.20594 0.31224 0.0
H936 H 0.84371 0.19265 0.68151 0.0
H937 H 0.90373 0.23102 0.66772 0.0
H938 H 0.95661 0.20282 0.70691 0.0
H939 H 0.89702 0.16393 0.7204 0.0
H940 H 0.97559 0.29054 0.67695 0.0
H941 H 0.9761 0.16065 0.66397 0.0
H942 H 0.9357 0.16111 0.67145 0.0
H943 H 0.97153 0.16781 0.68597 0.0
C944 C 0.86829 0.19539 0.68737 0.0
C945 C 0.86564 0.17493 0.7019 0.0
C946 C 0.90255 0.21725 0.67947 0.0
C947 C 0.93455 0.2191 0.68609 0.0
C948 C 0.93222 0.20117 0.70138 0.0
H949 H 0.16534 0.34679 0.65457 0.0
H950 H 0.10578 0.32776 0.66817 0.0
C951 C 0.89812 0.17905 0.70911 0.0
C952 C 0.9696 0.23641 0.67632 0.0
H953 H 0.03119 0.21627 0.65806 0.0
C954 C 0.98774 0.27437 0.67272 0.0
C955 C 0.98514 0.21517 0.67055 0.0
C956 C 0.96598 0.17388 0.67302 0.0
C957 C 0.02144 0.29172 0.66383 0.0
C958 C 0.03762 0.27063 0.65864 0.0
C959 C 0.01904 0.23261 0.66207 0.0
C960 C 0.07334 0.28658 0.64936 0.0
C961 C 0.03901 0.33226 0.65983 0.0
C962 C 0.07515 0.27011 0.63421 0.0
C963 C 0.10905 0.2804 0.62668 0.0
C964 C 0.14206 0.30776 0.63397 0.0
C965 C 0.14031 0.32588 0.64858 0.0
C966 C 0.10622 0.3151 0.65632 0.0
H967 H 0.01856 0.34174 0.66021 0.0
H968 H 0.06057 0.34828 0.66936 0.0
H969 H 0.05219 0.33853 0.64718 0.0
H970 H 0.05029 0.24816 0.62853 0.0
H971 H 0.10948 0.26604 0.61537 0.0
H972 H 0.73673 0.89641 0.04572 0.0
H973 H 0.75058 0.95429 0.0327 0.0
H974 H 0.64703 0.89965 0.00604 0.0
H975 H 0.63332 0.8405 0.01883 0.0
H976 H 0.70072 0.94075 0.98502 0.0
H977 H 0.71887 0.02793 0.0401 0.0
H978 H 0.74669 0.00701 0.04292 0.0
H979 H 0.6972 0.97839 0.04179 0.0
C980 C 0.71642 0.89658 0.03733 0.0
C981 C 0.68385 0.86367 0.03333 0.0
C982 C 0.72429 0.93001 0.03 0.0
C983 C 0.69962 0.9318 0.01861 0.0
C984 C 0.66641 0.89915 0.01492 0.0
H985 H 0.79634 0.15962 0.97885 0.0
H986 H 0.74943 0.10102 0.99154 0.0
C987 C 0.65849 0.86537 0.02228 0.0
C988 C 0.71098 0.96701 0.00938 0.0
H989 H 0.75639 0.06043 0.0153 0.0
C990 C 0.71205 0.96684 0.99166 0.0
C991 C 0.72499 0.00127 0.01786 0.0
C992 C 0.72144 0.00357 0.03671 0.0
C993 C 0.72954 0.99989 0.98237 0.0
C994 C 0.74748 0.03413 0.99101 0.0
C995 C 0.7435 0.03433 0.00861 0.0
C996 C 0.77374 0.0693 0.98232 0.0
C997 C 0.7293 0.99761 0.96336 0.0
C998 C 0.80316 0.07122 0.97303 0.0
C999 C 0.82962 0.10435 0.96575 0.0
C1000 C 0.82787 0.13683 0.96774 0.0
C1001 C 0.79838 0.13509 0.97699 0.0
C1002 C 0.7716 0.10162 0.98426 0.0
H1003 H 0.70369 0.97306 0.9588 0.0
H1004 H 0.73153 0.02265 0.95741 0.0
H1005 H 0.75288 0.99457 0.95913 0.0
H1006 H 0.80635 0.04722 0.97178 0.0
H1007 H 0.85205 0.10458 0.95885 0.0
H1008 H 0.63663 0.79714 0.31057 0.0
H1009 H 0.64929 0.75201 0.32433 0.0
H1010 H 0.76111 0.81128 0.30593 0.0
H1011 H 0.74851 0.85537 0.2919 0.0
H1012 H 0.73254 0.73767 0.30316 0.0
H1013 H 0.70744 0.77299 0.36771 0.0
H1014 H 0.66949 0.7562 0.35321 0.0
H1015 H 0.7102 0.79997 0.34946 0.0
C1016 C 0.66377 0.80025 0.30934 0.0
C1017 C 0.69161 0.83002 0.30023 0.0
C1018 C 0.67105 0.7746 0.31731 0.0
C1019 C 0.70637 0.77857 0.31642 0.0
C1020 C 0.73366 0.80757 0.30684 0.0
H1021 H 0.84911 0.74766 0.37724 0.0
H1022 H 0.80528 0.76132 0.3638 0.0
C1023 C 0.7264 0.83291 0.29884 0.0
C1024 C 0.71621 0.75394 0.32584 0.0
H1025 H 0.73179 0.73364 0.36569 0.0
C1026 C 0.73181 0.7362 0.31683 0.0
C1027 C 0.71532 0.75214 0.3437 0.0
C1028 C 0.69998 0.77149 0.35416 0.0
C1029 C 0.74866 0.71884 0.32514 0.0
C1030 C 0.74908 0.71832 0.34301 0.0
C1031 C 0.73134 0.73395 0.352 0.0
C1032 C 0.77268 0.70731 0.35253 0.0
C1033 C 0.76817 0.70363 0.3147 0.0
C1034 C 0.76849 0.6719 0.35114 0.0
C1035 C 0.79399 0.66399 0.35878 0.0
C1036 C 0.82385 0.69132 0.36803 0.0
C1037 C 0.82663 0.72598 0.37012 0.0
C1038 C 0.80143 0.73385 0.36247 0.0
H1039 H 0.77067 0.712 0.30124 0.0
H1040 H 0.79622 0.71312 0.31974 0.0
H1041 H 0.75243 0.67305 0.31524 0.0
H1042 H 0.74606 0.65068 0.34384 0.0
H1043 H 0.79099 0.63698 0.357 0.0
H1044 H 0.1087 0.85789 0.71087 0.0
H1045 H 0.05155 0.81318 0.69736 0.0
H1046 H 0.10543 0.75736 0.67642 0.0
H1047 H 0.16362 0.80306 0.68971 0.0
H1048 H 0.06605 0.76766 0.65288 0.0
H1049 H 0.9773 0.70876 0.70872 0.0
H1050 H 0.99897 0.75803 0.70928 0.0
H1051 H 0.02681 0.73637 0.71037 0.0
C1052 C 0.10847 0.83588 0.70358 0.0
C1053 C 0.1408 0.83404 0.70142 0.0
C1054 C 0.07552 0.81003 0.69596 0.0
C1055 C 0.07379 0.78127 0.68616 0.0
C1056 C 0.10595 0.77905 0.68407 0.0
H1057 H 0.84775 0.63977 0.64742 0.0
H1058 H 0.90708 0.65426 0.66009 0.0
C1059 C 0.13917 0.80514 0.69168 0.0
C1060 C 0.03903 0.7558 0.67709 0.0
H1061 H 0.94569 0.70705 0.68257 0.0
C1062 C 0.03981 0.7537 0.65942 0.0
C1063 C 0.00468 0.73663 0.68554 0.0
C1064 C 0.00196 0.73472 0.70454 0.0
C1065 C 0.00711 0.73569 0.64995 0.0
C1066 C 0.97267 0.72016 0.65833 0.0
C1067 C 0.97197 0.7195 0.67605 0.0
C1068 C 0.93765 0.70881 0.64909 0.0
C1069 C 0.00989 0.73434 0.63101 0.0
C1070 C 0.93503 0.73442 0.63862 0.0
C1071 C 0.90146 0.72619 0.63138 0.0
C1072 C 0.86937 0.69225 0.63455 0.0
C1073 C 0.87201 0.66604 0.64464 0.0
C1074 C 0.90587 0.67435 0.65193 0.0
H1075 H 0.03495 0.73338 0.62729 0.0
H1076 H 0.98538 0.71001 0.62554 0.0
H1077 H 0.01219 0.75974 0.62546 0.0
H1078 H 0.9587 0.76156 0.63659 0.0
H1079 H 0.90048 0.74712 0.62373 0.0
H1080 H 0.01269 0.28795 0.98381 0.0
H1081 H 0.0654 0.28859 0.99745 0.0
H1082 H 0.04615 0.19388 0.9679 0.0
H1083 H 0.99485 0.1948 0.95358 0.0
H1084 H 0.06366 0.2381 0.01702 0.0
H1085 H 0.15491 0.25342 0.96307 0.0
H1086 H 0.1194 0.26549 0.96204 0.0
H1087 H 0.10771 0.21795 0.96037 0.0
C1088 C 0.02054 0.26801 0.97995 0.0
C1089 C 0.00064 0.24198 0.9674 0.0
C1090 C 0.05044 0.26821 0.98777 0.0
C1091 C 0.06022 0.24162 0.98356 0.0
C1092 C 0.04013 0.21549 0.97098 0.0
H1093 H 0.19716 0.1949 0.05188 0.0
H1094 H 0.14421 0.19398 0.0383 0.0
C1095 C 0.01073 0.21588 0.96286 0.0
C1096 C 0.08956 0.23982 0.99329 0.0
H1097 H 0.17077 0.24023 0.9894 0.0
C1098 C 0.08719 0.23874 0.01098 0.0
C1099 C 0.12026 0.2406 0.98546 0.0
C1100 C 0.12605 0.24464 0.96668 0.0
C1101 C 0.1151 0.2395 0.02102 0.0
C1102 C 0.14568 0.24002 0.01316 0.0
C1103 C 0.14742 0.23993 0.99547 0.0
C1104 C 0.17711 0.24222 0.0228 0.0
C1105 C 0.11243 0.24181 0.03987 0.0
C1106 C 0.21328 0.26917 0.01847 0.0
C1107 C 0.24335 0.26886 0.02579 0.0
C1108 C 0.23784 0.2425 0.03804 0.0
C1109 C 0.20187 0.21618 0.04281 0.0
C1110 C 0.17166 0.21582 0.03513 0.0
H1111 H 0.0925 0.25069 0.04359 0.0
H1112 H 0.10318 0.21437 0.04559 0.0
H1113 H 0.13973 0.26172 0.04507 0.0
H1114 H 0.21827 0.2898 0.00899 0.0
H1115 H 0.27095 0.28898 0.02176 0.0
H1116 H 0.71642 0.01225 0.31476 0.0
H1117 H 0.76584 0.06711 0.32856 0.0
H1118 H 0.84654 0.05321 0.3006 0.0
H1119 H 0.7969 0.99986 0.28605 0.0
H1120 H 0.81405 0.0695 0.34905 0.0
H1121 H 0.89177 0.16139 0.29569 0.0
H1122 H 0.84491 0.12427 0.29408 0.0
H1123 H 0.88241 0.11492 0.29299 0.0
C1124 C 0.74477 0.02177 0.31126 0.0
C1125 C 0.75309 0.00275 0.29909 0.0
C1126 C 0.77297 0.0529 0.31917 0.0
C1127 C 0.81006 0.0648 0.31547 0.0
C1128 C 0.81829 0.0456 0.30326 0.0
H1129 H 0.99058 0.19754 0.38479 0.0
H1130 H 0.93711 0.14658 0.37091 0.0
C1131 C 0.78997 0.01499 0.29501 0.0
C1132 C 0.83978 0.09515 0.32548 0.0
H1133 H 0.9208 0.17664 0.32223 0.0
C1134 C 0.83726 0.09306 0.34316 0.0
C1135 C 0.86992 0.12616 0.31788 0.0
C1136 C 0.87247 0.13215 0.2991 0.0
C1137 C 0.8638 0.12113 0.35339 0.0
C1138 C 0.89466 0.15139 0.34579 0.0
C1139 C 0.89732 0.15333 0.32812 0.0
C1140 C 0.9244 0.18182 0.35572 0.0
C1141 C 0.8574 0.11911 0.37214 0.0
C1142 C 0.93554 0.21863 0.35167 0.0
C1143 C 0.96667 0.24756 0.35921 0.0
C1144 C 0.98645 0.24026 0.37135 0.0
C1145 C 0.97486 0.20367 0.37583 0.0
C1146 C 0.94419 0.1746 0.36798 0.0
H1147 H 0.82833 0.09913 0.3755 0.0
H1148 H 0.87523 0.11032 0.37855 0.0
H1149 H 0.86425 0.14665 0.37691 0.0
H1150 H 0.92085 0.22494 0.34222 0.0
H1151 H 0.97567 0.27567 0.3554 0.0
H1152 H 0.80922 0.79625 0.62657 0.0
H1153 H 0.80918 0.84961 0.63907 0.0
H1154 H 0.72482 0.77774 0.67422 0.0
H1155 H 0.72366 0.72406 0.66102 0.0
H1156 H 0.70795 0.82464 0.66095 0.0
H1157 H 0.85302 0.90279 0.68181 0.0
H1158 H 0.84976 0.89354 0.65961 0.0
H1159 H 0.83214 0.85584 0.67443 0.0
C1160 C 0.79047 0.792 0.63686 0.0
C1161 C 0.76545 0.75631 0.6425 0.0
C1162 C 0.79094 0.82247 0.64421 0.0
C1163 C 0.76732 0.81775 0.65772 0.0
C1164 C 0.74323 0.782 0.66377 0.0
H1165 H 0.79771 0.0045 0.7169 0.0
H1166 H 0.79563 0.94906 0.70592 0.0
C1167 C 0.74254 0.75146 0.65629 0.0
C1168 C 0.76637 0.84988 0.66494 0.0
H1169 H 0.82063 0.93615 0.6809 0.0
C1170 C 0.73249 0.84891 0.66549 0.0
C1171 C 0.79837 0.88139 0.67098 0.0
C1172 C 0.83527 0.88332 0.67184 0.0
C1173 C 0.72958 0.87862 0.6718 0.0
C1174 C 0.76184 0.91082 0.67734 0.0
C1175 C 0.79579 0.91165 0.67674 0.0
C1176 C 0.7613 0.94353 0.68436 0.0
C1177 C 0.69169 0.87437 0.67249 0.0
C1178 C 0.74315 0.95947 0.67595 0.0
C1179 C 0.7423 0.98967 0.68296 0.0
C1180 C 0.76054 0.0051 0.6982 0.0
C1181 C 0.78118 0.99124 0.70584 0.0
C1182 C 0.7807 0.9601 0.69929 0.0
H1183 H 0.67013 0.84508 0.67445 0.0
H1184 H 0.68921 0.89103 0.68267 0.0
H1185 H 0.68586 0.88329 0.66025 0.0
H1186 H 0.72972 0.94872 0.66394 0.0
H1187 H 0.72766 0.00116 0.67642 0.0
H1188 H 0.7945 0.8163 0.04235 0.0
H1189 H 0.85054 0.82309 0.02933 0.0
H1190 H 0.7842 0.72708 0.99848 0.0
H1191 H 0.72822 0.72216 0.01068 0.0
H1192 H 0.88037 0.78464 0.02978 0.0
H1193 H 0.84917 0.7926 0.963 0.0
H1194 H 0.82113 0.79443 0.97981 0.0
H1195 H 0.81316 0.75063 0.97183 0.0
C1196 C 0.79214 0.79686 0.03271 0.0
C1197 C 0.75748 0.76832 0.02763 0.0
C1198 C 0.82404 0.80076 0.02525 0.0
C1199 C 0.8217 0.77604 0.01265 0.0
C1200 C 0.78682 0.74733 0.0077 0.0
H1201 H 0.99184 0.72448 0.98999 0.0
H1202 H 0.94058 0.72967 0.00179 0.0
C1203 C 0.75489 0.74414 0.01481 0.0
C1204 C 0.85572 0.77915 0.00532 0.0
H1205 H 0.89535 0.77586 0.96832 0.0
C1206 C 0.88342 0.78244 0.01635 0.0
C1207 C 0.86093 0.7784 0.9877 0.0
C1208 C 0.83467 0.7793 0.97494 0.0
C1209 C 0.91498 0.7827 0.01037 0.0
C1210 C 0.91857 0.77868 0.99286 0.0
C1211 C 0.89198 0.77758 0.98176 0.0
C1212 C 0.94946 0.77536 0.98575 0.0
C1213 C 0.94429 0.78787 0.02291 0.0
C1214 C 0.97055 0.79829 0.9724 0.0
C1215 C 0.99891 0.79442 0.96532 0.0
C1216 C 0.00644 0.7675 0.97146 0.0
C1217 C 0.98602 0.7451 0.985 0.0
C1218 C 0.95713 0.7484 0.99185 0.0
H1219 H 0.94374 0.80327 0.03423 0.0
H1220 H 0.939 0.76044 0.02723 0.0
H1221 H 0.97225 0.80296 0.01725 0.0
H1222 H 0.96515 0.81924 0.96747 0.0
H1223 H 0.01515 0.81263 0.95515 0.0
H1224 H 0.98861 0.79535 0.37681 0.0
H1225 H 0.04282 0.84827 0.36453 0.0
H1226 H 0.05509 0.77554 0.32983 0.0
H1227 H 0.00172 0.72231 0.34281 0.0
H1228 H 0.1187 0.82173 0.34345 0.0
H1229 H 0.05448 0.90175 0.32164 0.0
H1230 H 0.04767 0.89252 0.34382 0.0
H1231 H 0.02756 0.85485 0.32898 0.0
C1232 C 0.00321 0.79082 0.36666 0.0
C1233 C 0.99223 0.755 0.3611 0.0
C1234 C 0.03369 0.82104 0.35943 0.0
C1235 C 0.05279 0.81595 0.34612 0.0
C1236 C 0.0408 0.78009 0.34012 0.0
H1237 H 0.21257 0.99962 0.28677 0.0
H1238 H 0.1588 0.9445 0.29765 0.0
C1239 C 0.01045 0.7498 0.34749 0.0
C1240 C 0.0864 0.84778 0.33907 0.0
H1241 H 0.12021 0.9341 0.32282 0.0
C1242 C 0.11902 0.84621 0.33881 0.0
C1243 C 0.08668 0.87956 0.33285 0.0
C1244 C 0.05211 0.88214 0.33167 0.0
C1245 C 0.15206 0.87558 0.33265 0.0
C1246 C 0.15274 0.90798 0.32691 0.0
C1247 C 0.11995 0.90943 0.32718 0.0
C1248 C 0.18645 0.94018 0.31993 0.0
C1249 C 0.1854 0.87084 0.33219 0.0
C1250 C 0.22011 0.95647 0.32873 0.0
C1251 C 0.25144 0.98676 0.32192 0.0
C1252 C 0.24936 0.00168 0.30639 0.0
C1253 C 0.21534 0.98697 0.29817 0.0
C1254 C 0.18443 0.95597 0.30461 0.0
H1255 H 0.17738 0.84136 0.33073 0.0
H1256 H 0.20421 0.88665 0.32176 0.0
H1257 H 0.20055 0.8807 0.3443 0.0
H1258 H 0.22215 0.94606 0.34095 0.0
H1259 H 0.27717 0.99877 0.32883 0.0
H1260 H 0.29739 0.01912 0.68953 0.0
H1261 H 0.30151 0.07429 0.6768 0.0
H1262 H 0.20539 0.05556 0.70496 0.0
H1263 H 0.20306 0.00188 0.71853 0.0
H1264 H 0.25512 0.07515 0.65657 0.0
H1265 H 0.26439 0.16376 0.71052 0.0
H1266 H 0.27389 0.1265 0.71231 0.0
H1267 H 0.22704 0.11718 0.71245 0.0
C1268 C 0.27795 0.02765 0.69334 0.0
C1269 C 0.25055 0.00714 0.70526 0.0
C1270 C 0.28013 0.05898 0.68604 0.0
C1271 C 0.25404 0.06953 0.69003 0.0
C1272 C 0.22664 0.04896 0.70206 0.0
H1273 H 0.20533 0.20146 0.62031 0.0
H1274 H 0.20717 0.15064 0.6347 0.0
C1275 C 0.22513 0.01815 0.70974 0.0
C1276 C 0.25351 0.09958 0.68027 0.0
H1277 H 0.2511 0.17958 0.68387 0.0
C1278 C 0.25449 0.09811 0.66258 0.0
C1279 C 0.25288 0.12972 0.68803 0.0
C1280 C 0.25477 0.1347 0.70688 0.0
C1281 C 0.2555 0.12607 0.6525 0.0
C1282 C 0.25374 0.1556 0.66021 0.0
C1283 C 0.25224 0.15685 0.6779 0.0
C1284 C 0.25428 0.18604 0.65034 0.0
C1285 C 0.2608 0.12484 0.63378 0.0
C1286 C 0.27961 0.22287 0.65449 0.0
C1287 C 0.27784 0.25174 0.64661 0.0
C1288 C 0.25148 0.24434 0.63407 0.0
C1289 C 0.22668 0.20769 0.62957 0.0
C1290 C 0.22788 0.17871 0.63773 0.0
H1291 H 0.27044 0.10532 0.63038 0.0
H1292 H 0.23442 0.11598 0.62712 0.0
H1293 H 0.28147 0.15268 0.62934 0.0
H1294 H 0.30015 0.22928 0.66419 0.0
H1295 H 0.29676 0.27988 0.65045 0.0
loop_
_geom_bond_atom_site_label_1
_geom_bond_atom_site_label_2
_geom_bond_distance
_geom_bond_site_symmetry_2
_ccdc_geom_bond_type
Mn0 O5 2.095 . S
Mn0 O15 2.162 . S
Mn0 O16 2.297 . S
Mn0 O24 2.385 . S
Mn0 O25 2.209 . S
Mn0 O26 2.094 . S
Mn1 O6 2.121 . S
Mn1 N8 2.257 . S
Mn1 N17 2.282 . S
Mn1 O25 2.215 . S
Mn1 O27 2.117 . S
C2 O24 1.234 . S
C2 O25 1.283 . S
C3 O15 1.281 . S
C3 O16 1.236 . S
C4 O26 1.240 . S
C4 O27 1.264 . S
O5 Mn0 2.095 . S
O5 C14 1.250 . S
O6 Mn1 2.121 . S
O6 C14 1.258 . S
C7 N8 1.326 . S
C7 C11 1.460 . S
C7 H13 0.929 . S
N8 Mn1 2.257 . S
N8 C7 1.326 . S
N8 C12 1.362 . S
C9 C10 1.258 . S
C9 C12 1.431 . S
C9 C29 1.449 . S
C10 C9 1.258 . S
C10 C11 1.477 . S
C10 H30 0.931 . S
C11 C7 1.460 . S
C11 C10 1.477 . S
C11 H31 0.930 . S
C12 N8 1.362 . S
C12 C9 1.431 . S
C12 C22 1.476 . S
H13 C7 0.929 . S
C14 O5 1.250 . S
C14 O6 1.258 . S
O15 Mn0 2.162 . S
O15 C3 1.281 . S
O16 Mn0 2.297 . S
O16 C3 1.236 . S
N17 Mn1 2.282 . S
N17 C18 1.328 . S
N17 C22 1.318 . S
C18 N17 1.328 . S
C18 C19 1.457 . S
C18 H23 0.929 . S
C19 C18 1.457 . S
C19 C20 1.291 . S
C19 H32 0.931 . S
C20 C19 1.291 . S
C20 C21 1.373 . S
C20 H33 0.929 . S
C21 C20 1.373 . S
C21 C22 1.396 . S
C21 C28 1.403 . S
C22 C12 1.476 . S
C22 N17 1.318 . S
C22 C21 1.396 . S
H23 C18 0.929 . S
O24 Mn0 2.385 . S
O24 C2 1.234 . S
O25 Mn0 2.209 . S
O25 Mn1 2.215 . S
O25 C2 1.283 . S
O26 Mn0 2.094 . S
O26 C4 1.240 . S
O27 Mn1 2.117 . S
O27 C4 1.264 . S
C28 C21 1.403 . S
C28 C29 1.399 . S
C28 H34 0.929 . S
C29 C9 1.449 . S
C29 C28 1.399 . S
C29 H35 0.930 . S
H30 C10 0.931 . S
H31 C11 0.930 . S
H32 C19 0.931 . S
H33 C20 0.929 . S
H34 C28 0.929 . S
H35 C29 0.930 . S
Mn36 O41 2.095 . S
Mn36 O51 2.162 . S
Mn36 O52 2.297 . S
Mn36 O60 2.385 . S
Mn36 O61 2.209 . S
Mn36 O62 2.094 . S
Mn37 O42 2.121 . S
Mn37 N44 2.257 1_455 S
Mn37 N53 2.282 1_455 S
Mn37 O61 2.215 . S
Mn37 O63 2.117 . S
C38 O60 1.234 . S
C38 O61 1.283 . S
C39 O51 1.281 . S
C39 O52 1.236 . S
C40 O62 1.240 . S
C40 O63 1.264 . S
O41 Mn36 2.095 . S
O41 C50 1.250 . S
O42 Mn37 2.121 . S
O42 C50 1.258 . S
C43 N44 1.326 . S
C43 C47 1.460 . S
C43 H49 0.929 1_655 S
N44 Mn37 2.257 1_655 S
N44 C43 1.326 . S
N44 C48 1.362 . S
C45 C46 1.258 . S
C45 C48 1.431 . S
C45 C65 1.449 . S
C46 C45 1.258 . S
C46 C47 1.477 . S
C46 H66 0.931 . S
C47 C43 1.460 . S
C47 C46 1.477 . S
C47 H67 0.930 . S
C48 N44 1.362 . S
C48 C45 1.431 . S
C48 C58 1.476 . S
H49 C43 0.929 1_455 S
C50 O41 1.250 . S
C50 O42 1.258 . S
O51 Mn36 2.162 . S
O51 C39 1.281 . S
O52 Mn36 2.297 . S
O52 C39 1.236 . S
N53 Mn37 2.282 1_655 S
N53 C54 1.328 . S
N53 C58 1.318 . S
C54 N53 1.328 . S
C54 C55 1.457 . S
C54 H59 0.929 . S
C55 C54 1.457 . S
C55 C56 1.291 . S
C55 H68 0.931 . S
C56 C55 1.291 . S
C56 C57 1.373 . S
C56 H69 0.929 . S
C57 C56 1.373 . S
C57 C58 1.396 . S
C57 C64 1.403 . S
C58 C48 1.476 . S
C58 N53 1.318 . S
C58 C57 1.396 . S
H59 C54 0.929 . S
O60 Mn36 2.385 . S
O60 C38 1.234 . S
O61 Mn36 2.209 . S
O61 Mn37 2.215 . S
O61 C38 1.283 . S
O62 Mn36 2.094 . S
O62 C40 1.240 . S
O63 Mn37 2.117 . S
O63 C40 1.264 . S
C64 C57 1.403 . S
C64 C65 1.399 . S
C64 H70 0.929 . S
C65 C45 1.449 . S
C65 C64 1.399 . S
C65 H71 0.930 . S
H66 C46 0.931 . S
H67 C47 0.930 . S
H68 C55 0.931 . S
H69 C56 0.929 . S
H70 C64 0.929 . S
H71 C65 0.930 . S
Mn72 O77 2.095 . S
Mn72 O87 2.162 . S
Mn72 O88 2.297 . S
Mn72 O96 2.385 . S
Mn72 O97 2.209 . S
Mn72 O98 2.094 . S
Mn73 O78 2.121 . S
Mn73 N80 2.257 1_545 S
Mn73 N89 2.282 1_545 S
Mn73 O97 2.215 . S
Mn73 O99 2.117 . S
C74 O96 1.234 . S
C74 O97 1.283 . S
C75 O87 1.281 . S
C75 O88 1.236 . S
C76 O98 1.240 . S
C76 O99 1.264 . S
O77 Mn72 2.095 . S
O77 C86 1.250 . S
O78 Mn73 2.121 . S
O78 C86 1.258 . S
C79 N80 1.326 . S
C79 C83 1.460 . S
C79 H85 0.929 1_565 S
N80 Mn73 2.257 1_565 S
N80 C79 1.326 . S
N80 C84 1.362 . S
C81 C82 1.258 . S
C81 C84 1.431 . S
C81 C101 1.449 . S
C82 C81 1.258 . S
C82 C83 1.477 . S
C82 H102 0.931 . S
C83 C79 1.460 . S
C83 C82 1.477 . S
C83 H103 0.930 . S
C84 N80 1.362 . S
C84 C81 1.431 . S
C84 C94 1.476 . S
H85 C79 0.929 1_545 S
C86 O77 1.250 . S
C86 O78 1.258 . S
O87 Mn72 2.162 . S
O87 C75 1.281 . S
O88 Mn72 2.297 . S
O88 C75 1.236 . S
N89 Mn73 2.282 1_565 S
N89 C90 1.328 . S
N89 C94 1.318 . S
C90 N89 1.328 . S
C90 C91 1.457 . S
C90 H95 0.929 . S
C91 C90 1.457 . S
C91 C92 1.291 . S
C91 H104 0.931 . S
C92 C91 1.291 . S
C92 C93 1.373 . S
C92 H105 0.929 . S
C93 C92 1.373 . S
C93 C94 1.396 . S
C93 C100 1.403 . S
C94 C84 1.476 . S
C94 N89 1.318 . S
C94 C93 1.396 . S
H95 C90 0.929 . S
O96 Mn72 2.385 . S
O96 C74 1.234 . S
O97 Mn72 2.209 . S
O97 Mn73 2.215 . S
O97 C74 1.283 . S
O98 Mn72 2.094 . S
O98 C76 1.240 . S
O99 Mn73 2.117 . S
O99 C76 1.264 . S
C100 C93 1.403 . S
C100 C101 1.399 . S
C100 H106 0.929 . S
C101 C81 1.449 . S
C101 C100 1.399 . S
C101 H107 0.930 . S
H102 C82 0.931 . S
H103 C83 0.930 . S
H104 C91 0.931 . S
H105 C92 0.929 . S
H106 C100 0.929 . S
H107 C101 0.930 . S
Mn108 O113 2.095 . S
Mn108 O123 2.162 . S
Mn108 O124 2.297 . S
Mn108 O132 2.385 . S
Mn108 O133 2.209 . S
Mn108 O134 2.094 . S
Mn109 O114 2.121 . S
Mn109 N116 2.257 . S
Mn109 N125 2.282 . S
Mn109 O133 2.215 . S
Mn109 O135 2.117 . S
C110 O132 1.234 . S
C110 O133 1.283 . S
C111 O123 1.281 . S
C111 O124 1.236 . S
C112 O134 1.240 . S
C112 O135 1.264 . S
O113 Mn108 2.095 . S
O113 C122 1.250 . S
O114 Mn109 2.121 . S
O114 C122 1.258 . S
C115 N116 1.326 . S
C115 C119 1.460 . S
C115 H121 0.929 . S
N116 Mn109 2.257 . S
N116 C115 1.326 . S
N116 C120 1.362 . S
C117 C118 1.258 . S
C117 C120 1.431 . S
C117 C137 1.449 . S
C118 C117 1.258 . S
C118 C119 1.477 . S
C118 H138 0.931 . S
C119 C115 1.460 . S
C119 C118 1.477 . S
C119 H139 0.930 . S
C120 N116 1.362 . S
C120 C117 1.431 . S
C120 C130 1.476 . S
H121 C115 0.929 . S
C122 O113 1.250 . S
C122 O114 1.258 . S
O123 Mn108 2.162 . S
O123 C111 1.281 . S
O124 Mn108 2.297 . S
O124 C111 1.236 . S
N125 Mn109 2.282 . S
N125 C126 1.328 . S
N125 C130 1.318 . S
C126 N125 1.328 . S
C126 C127 1.457 . S
C126 H131 0.929 . S
C127 C126 1.457 . S
C127 C128 1.291 . S
C127 H140 0.931 . S
C128 C127 1.291 . S
C128 C129 1.373 . S
C128 H141 0.929 . S
C129 C128 1.373 . S
C129 C130 1.396 . S
C129 C136 1.403 . S
C130 C120 1.476 . S
C130 N125 1.318 . S
C130 C129 1.396 . S
H131 C126 0.929 . S
O132 Mn108 2.385 . S
O132 C110 1.234 . S
O133 Mn108 2.209 . S
O133 Mn109 2.215 . S
O133 C110 1.283 . S
O134 Mn108 2.094 . S
O134 C112 1.240 . S
O135 Mn109 2.117 . S
O135 C112 1.264 . S
C136 C129 1.403 . S
C136 C137 1.399 . S
C136 H142 0.929 . S
C137 C117 1.449 . S
C137 C136 1.399 . S
C137 H143 0.930 . S
H138 C118 0.931 . S
H139 C119 0.930 . S
H140 C127 0.931 . S
H141 C128 0.929 . S
H142 C136 0.929 . S
H143 C137 0.930 . S
Mn144 O149 2.095 . S
Mn144 O159 2.162 . S
Mn144 O160 2.297 . S
Mn144 O168 2.385 . S
Mn144 O169 2.209 . S
Mn144 O170 2.094 . S
Mn145 O150 2.121 . S
Mn145 N152 2.257 1_655 S
Mn145 N161 2.282 1_655 S
Mn145 O169 2.215 . S
Mn145 O171 2.117 . S
C146 O168 1.234 . S
C146 O169 1.283 . S
C147 O159 1.281 . S
C147 O160 1.236 . S
C148 O170 1.240 . S
C148 O171 1.264 . S
O149 Mn144 2.095 . S
O149 C158 1.250 . S
O150 Mn145 2.121 . S
O150 C158 1.258 . S
C151 N152 1.326 . S
C151 C155 1.460 . S
C151 H157 0.929 1_455 S
N152 Mn145 2.257 1_455 S
N152 C151 1.326 . S
N152 C156 1.362 . S
C153 C154 1.258 . S
C153 C156 1.431 . S
C153 C173 1.449 . S
C154 C153 1.258 . S
C154 C155 1.477 . S
C154 H174 0.931 . S
C155 C151 1.460 . S
C155 C154 1.477 . S
C155 H175 0.930 . S
C156 N152 1.362 . S
C156 C153 1.431 . S
C156 C166 1.476 . S
H157 C151 0.929 1_655 S
C158 O149 1.250 . S
C158 O150 1.258 . S
O159 Mn144 2.162 . S
O159 C147 1.281 . S
O160 Mn144 2.297 . S
O160 C147 1.236 . S
N161 Mn145 2.282 1_455 S
N161 C162 1.328 . S
N161 C166 1.318 . S
C162 N161 1.328 . S
C162 C163 1.457 . S
C162 H167 0.929 . S
C163 C162 1.457 . S
C163 C164 1.291 . S
C163 H176 0.931 . S
C164 C163 1.291 . S
C164 C165 1.373 . S
C164 H177 0.929 . S
C165 C164 1.373 . S
C165 C166 1.396 . S
C165 C172 1.403 . S
C166 C156 1.476 . S
C166 N161 1.318 . S
C166 C165 1.396 . S
H167 C162 0.929 . S
O168 Mn144 2.385 . S
O168 C146 1.234 . S
O169 Mn144 2.209 . S
O169 Mn145 2.215 . S
O169 C146 1.283 . S
O170 Mn144 2.094 . S
O170 C148 1.240 . S
O171 Mn145 2.117 . S
O171 C148 1.264 . S
C172 C165 1.403 . S
C172 C173 1.399 . S
C172 H178 0.929 . S
C173 C153 1.449 . S
C173 C172 1.399 . S
C173 H179 0.930 . S
H174 C154 0.931 . S
H175 C155 0.930 . S
H176 C163 0.931 . S
H177 C164 0.929 . S
H178 C172 0.929 . S
H179 C173 0.930 . S
Mn180 O185 2.095 . S
Mn180 O195 2.162 . S
Mn180 O196 2.297 . S
Mn180 O204 2.385 . S
Mn180 O205 2.209 . S
Mn180 O206 2.094 . S
Mn181 O186 2.121 . S
Mn181 N188 2.257 1_565 S
Mn181 N197 2.282 1_565 S
Mn181 O205 2.215 . S
Mn181 O207 2.117 . S
C182 O204 1.234 . S
C182 O205 1.283 . S
C183 O195 1.281 . S
C183 O196 1.236 . S
C184 O206 1.240 . S
C184 O207 1.264 . S
O185 Mn180 2.095 . S
O185 C194 1.250 . S
O186 Mn181 2.121 . S
O186 C194 1.258 . S
C187 N188 1.326 . S
C187 C191 1.460 . S
C187 H193 0.929 1_545 S
N188 Mn181 2.257 1_545 S
N188 C187 1.326 . S
N188 C192 1.362 . S
C189 C190 1.258 . S
C189 C192 1.431 . S
C189 C209 1.449 . S
C190 C189 1.258 . S
C190 C191 1.477 . S
C190 H210 0.931 . S
C191 C187 1.460 . S
C191 C190 1.477 . S
C191 H211 0.930 . S
C192 N188 1.362 . S
C192 C189 1.431 . S
C192 C202 1.476 . S
H193 C187 0.929 1_565 S
C194 O185 1.250 . S
C194 O186 1.258 . S
O195 Mn180 2.162 . S
O195 C183 1.281 . S
O196 Mn180 2.297 . S
O196 C183 1.236 . S
N197 Mn181 2.282 1_545 S
N197 C198 1.328 . S
N197 C202 1.318 . S
C198 N197 1.328 . S
C198 C199 1.457 . S
C198 H203 0.929 . S
C199 C198 1.457 . S
C199 C200 1.291 . S
C199 H212 0.931 . S
C200 C199 1.291 . S
C200 C201 1.373 . S
C200 H213 0.929 . S
C201 C200 1.373 . S
C201 C202 1.396 . S
C201 C208 1.403 . S
C202 C192 1.476 . S
C202 N197 1.318 . S
C202 C201 1.396 . S
H203 C198 0.929 . S
O204 Mn180 2.385 . S
O204 C182 1.234 . S
O205 Mn180 2.209 . S
O205 Mn181 2.215 . S
O205 C182 1.283 . S
O206 Mn180 2.094 . S
O206 C184 1.240 . S
O207 Mn181 2.117 . S
O207 C184 1.264 . S
C208 C201 1.403 . S
C208 C209 1.399 . S
C208 H214 0.929 . S
C209 C189 1.449 . S
C209 C208 1.399 . S
C209 H215 0.930 . S
H210 C190 0.931 . S
H211 C191 0.930 . S
H212 C199 0.931 . S
H213 C200 0.929 . S
H214 C208 0.929 . S
H215 C209 0.930 . S
Mn216 O221 2.095 . S
Mn216 O231 2.162 . S
Mn216 O232 2.297 . S
Mn216 O240 2.385 . S
Mn216 O241 2.209 . S
Mn216 O242 2.094 . S
Mn217 O222 2.121 . S
Mn217 N224 2.257 . S
Mn217 N233 2.282 . S
Mn217 O241 2.215 . S
Mn217 O243 2.117 . S
C218 O240 1.234 . S
C218 O241 1.283 . S
C219 O231 1.281 . S
C219 O232 1.236 . S
C220 O242 1.240 . S
C220 O243 1.264 . S
O221 Mn216 2.095 . S
O221 C230 1.250 . S
O222 Mn217 2.121 . S
O222 C230 1.258 . S
C223 N224 1.326 . S
C223 C227 1.460 . S
C223 H229 0.929 . S
N224 Mn217 2.257 . S
N224 C223 1.326 . S
N224 C228 1.362 . S
C225 C226 1.258 . S
C225 C228 1.431 . S
C225 C245 1.449 . S
C226 C225 1.258 . S
C226 C227 1.477 . S
C226 H246 0.931 . S
C227 C223 1.460 . S
C227 C226 1.477 . S
C227 H247 0.930 . S
C228 N224 1.362 . S
C228 C225 1.431 . S
C228 C238 1.476 . S
H229 C223 0.929 . S
C230 O221 1.250 . S
C230 O222 1.258 . S
O231 Mn216 2.162 . S
O231 C219 1.281 . S
O232 Mn216 2.297 . S
O232 C219 1.236 . S
N233 Mn217 2.282 . S
N233 C234 1.328 . S
N233 C238 1.318 . S
C234 N233 1.328 . S
C234 C235 1.457 . S
C234 H239 0.929 . S
C235 C234 1.457 . S
C235 C236 1.291 . S
C235 H248 0.931 . S
C236 C235 1.291 . S
C236 C237 1.373 . S
C236 H249 0.929 . S
C237 C236 1.373 . S
C237 C238 1.396 . S
C237 C244 1.403 . S
C238 C228 1.476 . S
C238 N233 1.318 . S
C238 C237 1.396 . S
H239 C234 0.929 . S
O240 Mn216 2.385 . S
O240 C218 1.234 . S
O241 Mn216 2.209 . S
O241 Mn217 2.215 . S
O241 C218 1.283 . S
O242 Mn216 2.094 . S
O242 C220 1.240 . S
O243 Mn217 2.117 . S
O243 C220 1.264 . S
C244 C237 1.403 . S
C244 C245 1.399 . S
C244 H250 0.929 . S
C245 C225 1.449 . S
C245 C244 1.399 . S
C245 H251 0.930 . S
H246 C226 0.931 . S
H247 C227 0.930 . S
H248 C235 0.931 . S
H249 C236 0.929 . S
H250 C244 0.929 . S
H251 C245 0.930 . S
Mn252 O257 2.095 . S
Mn252 O267 2.162 . S
Mn252 O268 2.297 . S
Mn252 O276 2.385 . S
Mn252 O277 2.209 . S
Mn252 O278 2.094 . S
Mn253 O258 2.121 . S
Mn253 N260 2.257 1_455 S
Mn253 N269 2.282 1_455 S
Mn253 O277 2.215 . S
Mn253 O279 2.117 . S
C254 O276 1.234 . S
C254 O277 1.283 . S
C255 O267 1.281 . S
C255 O268 1.236 . S
C256 O278 1.240 . S
C256 O279 1.264 . S
O257 Mn252 2.095 . S
O257 C266 1.250 . S
O258 Mn253 2.121 . S
O258 C266 1.258 . S
C259 N260 1.326 . S
C259 C263 1.460 . S
C259 H265 0.929 1_655 S
N260 Mn253 2.257 1_655 S
N260 C259 1.326 . S
N260 C264 1.362 . S
C261 C262 1.258 . S
C261 C264 1.431 . S
C261 C281 1.449 . S
C262 C261 1.258 . S
C262 C263 1.477 . S
C262 H282 0.931 . S
C263 C259 1.460 . S
C263 C262 1.477 . S
C263 H283 0.930 . S
C264 N260 1.362 . S
C264 C261 1.431 . S
C264 C274 1.476 . S
H265 C259 0.929 1_455 S
C266 O257 1.250 . S
C266 O258 1.258 . S
O267 Mn252 2.162 . S
O267 C255 1.281 . S
O268 Mn252 2.297 . S
O268 C255 1.236 . S
N269 Mn253 2.282 1_655 S
N269 C270 1.328 . S
N269 C274 1.318 . S
C270 N269 1.328 . S
C270 C271 1.457 . S
C270 H275 0.929 . S
C271 C270 1.457 . S
C271 C272 1.291 . S
C271 H284 0.931 . S
C272 C271 1.291 . S
C272 C273 1.373 . S
C272 H285 0.929 . S
C273 C272 1.373 . S
C273 C274 1.396 . S
C273 C280 1.403 . S
C274 C264 1.476 . S
C274 N269 1.318 . S
C274 C273 1.396 . S
H275 C270 0.929 . S
O276 Mn252 2.385 . S
O276 C254 1.234 . S
O277 Mn252 2.209 . S
O277 Mn253 2.215 . S
O277 C254 1.283 . S
O278 Mn252 2.094 . S
O278 C256 1.240 . S
O279 Mn253 2.117 . S
O279 C256 1.264 . S
C280 C273 1.403 . S
C280 C281 1.399 . S
C280 H286 0.929 . S
C281 C261 1.449 . S
C281 C280 1.399 . S
C281 H287 0.930 . S
H282 C262 0.931 . S
H283 C263 0.930 . S
H284 C271 0.931 . S
H285 C272 0.929 . S
H286 C280 0.929 . S
H287 C281 0.930 . S
Mn288 O293 2.095 . S
Mn288 O303 2.162 . S
Mn288 O304 2.297 . S
Mn288 O312 2.385 . S
Mn288 O313 2.209 . S
Mn288 O314 2.094 . S
Mn289 O294 2.121 . S
Mn289 N296 2.257 1_545 S
Mn289 N305 2.282 1_545 S
Mn289 O313 2.215 . S
Mn289 O315 2.117 . S
C290 O312 1.234 . S
C290 O313 1.283 . S
C291 O303 1.281 . S
C291 O304 1.236 . S
C292 O314 1.240 . S
C292 O315 1.264 . S
O293 Mn288 2.095 . S
O293 C302 1.250 . S
O294 Mn289 2.121 . S
O294 C302 1.258 . S
C295 N296 1.326 . S
C295 C299 1.460 . S
C295 H301 0.929 1_565 S
N296 Mn289 2.257 1_565 S
N296 C295 1.326 . S
N296 C300 1.362 . S
C297 C298 1.258 . S
C297 C300 1.431 . S
C297 C317 1.449 . S
C298 C297 1.258 . S
C298 C299 1.477 . S
C298 H318 0.931 . S
C299 C295 1.460 . S
C299 C298 1.477 . S
C299 H319 0.930 . S
C300 N296 1.362 . S
C300 C297 1.431 . S
C300 C310 1.476 . S
H301 C295 0.929 1_545 S
C302 O293 1.250 . S
C302 O294 1.258 . S
O303 Mn288 2.162 . S
O303 C291 1.281 . S
O304 Mn288 2.297 . S
O304 C291 1.236 . S
N305 Mn289 2.282 1_565 S
N305 C306 1.328 . S
N305 C310 1.318 . S
C306 N305 1.328 . S
C306 C307 1.457 . S
C306 H311 0.929 . S
C307 C306 1.457 . S
C307 C308 1.291 . S
C307 H320 0.931 . S
C308 C307 1.291 . S
C308 C309 1.373 . S
C308 H321 0.929 . S
C309 C308 1.373 . S
C309 C310 1.396 . S
C309 C316 1.403 . S
C310 C300 1.476 . S
C310 N305 1.318 . S
C310 C309 1.396 . S
H311 C306 0.929 . S
O312 Mn288 2.385 . S
O312 C290 1.234 . S
O313 Mn288 2.209 . S
O313 Mn289 2.215 . S
O313 C290 1.283 . S
O314 Mn288 2.094 . S
O314 C292 1.240 . S
O315 Mn289 2.117 . S
O315 C292 1.264 . S
C316 C309 1.403 . S
C316 C317 1.399 . S
C316 H322 0.929 . S
C317 C297 1.449 . S
C317 C316 1.399 . S
C317 H323 0.930 . S
H318 C298 0.931 . S
H319 C299 0.930 . S
H320 C307 0.931 . S
H321 C308 0.929 . S
H322 C316 0.929 . S
H323 C317 0.930 . S
Mn324 O329 2.095 . S
Mn324 O339 2.162 . S
Mn324 O340 2.297 . S
Mn324 O348 2.385 . S
Mn324 O349 2.209 . S
Mn324 O350 2.094 . S
Mn325 O330 2.121 . S
Mn325 N332 2.257 . S
Mn325 N341 2.282 . S
Mn325 O349 2.215 . S
Mn325 O351 2.117 . S
C326 O348 1.234 . S
C326 O349 1.283 . S
C327 O339 1.281 . S
C327 O340 1.236 . S
C328 O350 1.240 . S
C328 O351 1.264 . S
O329 Mn324 2.095 . S
O329 C338 1.250 . S
O330 Mn325 2.121 . S
O330 C338 1.258 . S
C331 N332 1.326 . S
C331 C335 1.460 . S
C331 H337 0.929 . S
N332 Mn325 2.257 . S
N332 C331 1.326 . S
N332 C336 1.362 . S
C333 C334 1.258 . S
C333 C336 1.431 . S
C333 C353 1.449 . S
C334 C333 1.258 . S
C334 C335 1.477 . S
C334 H354 0.931 . S
C335 C331 1.460 . S
C335 C334 1.477 . S
C335 H355 0.930 . S
C336 N332 1.362 . S
C336 C333 1.431 . S
C336 C346 1.476 . S
H337 C331 0.929 . S
C338 O329 1.250 . S
C338 O330 1.258 . S
O339 Mn324 2.162 . S
O339 C327 1.281 . S
O340 Mn324 2.297 . S
O340 C327 1.236 . S
N341 Mn325 2.282 . S
N341 C342 1.328 . S
N341 C346 1.318 . S
C342 N341 1.328 . S
C342 C343 1.457 . S
C342 H347 0.929 . S
C343 C342 1.457 . S
C343 C344 1.291 . S
C343 H356 0.931 . S
C344 C343 1.291 . S
C344 C345 1.373 . S
C344 H357 0.929 . S
C345 C344 1.373 . S
C345 C346 1.396 . S
C345 C352 1.403 . S
C346 C336 1.476 . S
C346 N341 1.318 . S
C346 C345 1.396 . S
H347 C342 0.929 . S
O348 Mn324 2.385 . S
O348 C326 1.234 . S
O349 Mn324 2.209 . S
O349 Mn325 2.215 . S
O349 C326 1.283 . S
O350 Mn324 2.094 . S
O350 C328 1.240 . S
O351 Mn325 2.117 . S
O351 C328 1.264 . S
C352 C345 1.403 . S
C352 C353 1.399 . S
C352 H358 0.929 . S
C353 C333 1.449 . S
C353 C352 1.399 . S
C353 H359 0.930 . S
H354 C334 0.931 . S
H355 C335 0.930 . S
H356 C343 0.931 . S
H357 C344 0.929 . S
H358 C352 0.929 . S
H359 C353 0.930 . S
Mn360 O365 2.095 . S
Mn360 O375 2.162 . S
Mn360 O376 2.297 . S
Mn360 O384 2.385 . S
Mn360 O385 2.209 . S
Mn360 O386 2.094 . S
Mn361 O366 2.121 . S
Mn361 N368 2.257 1_655 S
Mn361 N377 2.282 1_655 S
Mn361 O385 2.215 . S
Mn361 O387 2.117 . S
C362 O384 1.234 . S
C362 O385 1.283 . S
C363 O375 1.281 . S
C363 O376 1.236 . S
C364 O386 1.240 . S
C364 O387 1.264 . S
O365 Mn360 2.095 . S
O365 C374 1.250 . S
O366 Mn361 2.121 . S
O366 C374 1.258 . S
C367 N368 1.326 . S
C367 C371 1.460 . S
C367 H373 0.929 1_455 S
N368 Mn361 2.257 1_455 S
N368 C367 1.326 . S
N368 C372 1.362 . S
C369 C370 1.258 . S
C369 C372 1.431 . S
C369 C389 1.449 . S
C370 C369 1.258 . S
C370 C371 1.477 . S
C370 H390 0.931 . S
C371 C367 1.460 . S
C371 C370 1.477 . S
C371 H391 0.930 . S
C372 N368 1.362 . S
C372 C369 1.431 . S
C372 C382 1.476 . S
H373 C367 0.929 1_655 S
C374 O365 1.250 . S
C374 O366 1.258 . S
O375 Mn360 2.162 . S
O375 C363 1.281 . S
O376 Mn360 2.297 . S
O376 C363 1.236 . S
N377 Mn361 2.282 1_455 S
N377 C378 1.328 . S
N377 C382 1.318 . S
C378 N377 1.328 . S
C378 C379 1.457 . S
C378 H383 0.929 . S
C379 C378 1.457 . S
C379 C380 1.291 . S
C379 H392 0.931 . S
C380 C379 1.291 . S
C380 C381 1.373 . S
C380 H393 0.929 . S
C381 C380 1.373 . S
C381 C382 1.396 . S
C381 C388 1.403 . S
C382 C372 1.476 . S
C382 N377 1.318 . S
C382 C381 1.396 . S
H383 C378 0.929 . S
O384 Mn360 2.385 . S
O384 C362 1.234 . S
O385 Mn360 2.209 . S
O385 Mn361 2.215 . S
O385 C362 1.283 . S
O386 Mn360 2.094 . S
O386 C364 1.240 . S
O387 Mn361 2.117 . S
O387 C364 1.264 . S
C388 C381 1.403 . S
C388 C389 1.399 . S
C388 H394 0.929 . S
C389 C369 1.449 . S
C389 C388 1.399 . S
C389 H395 0.930 . S
H390 C370 0.931 . S
H391 C371 0.930 . S
H392 C379 0.931 . S
H393 C380 0.929 . S
H394 C388 0.929 . S
H395 C389 0.930 . S
Mn396 O401 2.095 . S
Mn396 O411 2.162 . S
Mn396 O412 2.297 . S
Mn396 O420 2.385 . S
Mn396 O421 2.209 . S
Mn396 O422 2.094 . S
Mn397 O402 2.121 . S
Mn397 N404 2.257 1_565 S
Mn397 N413 2.282 1_565 S
Mn397 O421 2.215 . S
Mn397 O423 2.117 . S
C398 O420 1.234 . S
C398 O421 1.283 . S
C399 O411 1.281 . S
C399 O412 1.236 . S
C400 O422 1.240 . S
C400 O423 1.264 . S
O401 Mn396 2.095 . S
O401 C410 1.250 . S
O402 Mn397 2.121 . S
O402 C410 1.258 . S
C403 N404 1.326 . S
C403 C407 1.460 . S
C403 H409 0.929 1_545 S
N404 Mn397 2.257 1_545 S
N404 C403 1.326 . S
N404 C408 1.362 . S
C405 C406 1.258 . S
C405 C408 1.431 . S
C405 C425 1.449 . S
C406 C405 1.258 . S
C406 C407 1.477 . S
C406 H426 0.931 . S
C407 C403 1.460 . S
C407 C406 1.477 . S
C407 H427 0.930 . S
C408 N404 1.362 . S
C408 C405 1.431 . S
C408 C418 1.476 . S
H409 C403 0.929 1_565 S
C410 O401 1.250 . S
C410 O402 1.258 . S
O411 Mn396 2.162 . S
O411 C399 1.281 . S
O412 Mn396 2.297 . S
O412 C399 1.236 . S
N413 Mn397 2.282 1_545 S
N413 C414 1.328 . S
N413 C418 1.318 . S
C414 N413 1.328 . S
C414 C415 1.457 . S
C414 H419 0.929 . S
C415 C414 1.457 . S
C415 C416 1.291 . S
C415 H428 0.931 . S
C416 C415 1.291 . S
C416 C417 1.373 . S
C416 H429 0.929 . S
C417 C416 1.373 . S
C417 C418 1.396 . S
C417 C424 1.403 . S
C418 C408 1.476 . S
C418 N413 1.318 . S
C418 C417 1.396 . S
H419 C414 0.929 . S
O420 Mn396 2.385 . S
O420 C398 1.234 . S
O421 Mn396 2.209 . S
O421 Mn397 2.215 . S
O421 C398 1.283 . S
O422 Mn396 2.094 . S
O422 C400 1.240 . S
O423 Mn397 2.117 . S
O423 C400 1.264 . S
C424 C417 1.403 . S
C424 C425 1.399 . S
C424 H430 0.929 . S
C425 C405 1.449 . S
C425 C424 1.399 . S
C425 H431 0.930 . S
H426 C406 0.931 . S
H427 C407 0.930 . S
H428 C415 0.931 . S
H429 C416 0.929 . S
H430 C424 0.929 . S
H431 C425 0.930 . S
H432 C440 0.929 . S
H433 C442 0.930 . S
H434 C444 0.930 . S
H435 C447 0.929 . S
H436 C450 0.930 . S
H437 C452 0.960 . S
H438 C452 0.960 . S
H439 C452 0.960 . S
C440 H432 0.929 . S
C440 C441 1.377 . S
C440 C442 1.384 . S
C441 C440 1.377 . S
C441 C447 1.390 . S
C442 H433 0.930 . S
C442 C440 1.384 . S
C442 C443 1.372 . S
C443 C442 1.372 . S
C443 C444 1.400 . S
C443 C448 1.490 . S
C444 H434 0.930 . S
C444 C443 1.400 . S
C444 C447 1.386 . S
H445 C461 0.930 . S
H446 C462 0.931 . S
C447 H435 0.929 . S
C447 C441 1.390 . S
C447 C444 1.386 . S
C448 C443 1.490 . S
C448 C450 1.395 . S
C448 C451 1.403 . S
H449 C455 0.930 . S
C450 H436 0.930 . S
C450 C448 1.395 . S
C450 C453 1.403 . S
C451 C448 1.403 . S
C451 C452 1.524 . S
C451 C455 1.400 . S
C452 H437 0.960 . S
C452 H438 0.960 . S
C452 H439 0.960 . S
C452 C451 1.524 . S
C453 C450 1.403 . S
C453 C454 1.392 . S
C453 C457 1.495 . S
C454 C453 1.392 . S
C454 C455 1.385 . S
C454 C456 1.478 . S
C455 H449 0.930 . S
C455 C451 1.400 . S
C455 C454 1.385 . S
C456 C454 1.478 . S
C456 C458 1.381 . S
C456 C462 1.383 . S
C457 C453 1.495 . S
C457 H463 0.959 . S
C457 H464 0.961 . S
C457 H465 0.960 . S
C458 C456 1.381 . S
C458 C459 1.394 . S
C458 H466 0.930 . S
C459 C458 1.394 . S
C459 C460 1.383 . S
C459 H467 0.929 . S
C460 C459 1.383 . S
C460 C461 1.377 . S
C461 H445 0.930 . S
C461 C460 1.377 . S
C461 C462 1.379 . S
C462 H446 0.931 . S
C462 C456 1.383 . S
C462 C461 1.379 . S
H463 C457 0.959 . S
H464 C457 0.961 . S
H465 C457 0.960 . S
H466 C458 0.930 . S
H467 C459 0.929 . S
H468 C476 0.929 . S
H469 C478 0.930 . S
H470 C480 0.930 . S
H471 C483 0.929 . S
H472 C486 0.930 . S
H473 C488 0.960 . S
H474 C488 0.960 . S
H475 C488 0.960 . S
C476 H468 0.929 . S
C476 C477 1.377 . S
C476 C478 1.384 . S
C477 C476 1.377 . S
C477 C483 1.390 . S
C478 H469 0.930 . S
C478 C476 1.384 . S
C478 C479 1.372 . S
C479 C478 1.372 . S
C479 C480 1.400 . S
C479 C484 1.490 . S
C480 H470 0.930 . S
C480 C479 1.400 . S
C480 C483 1.386 . S
H481 C497 0.930 . S
H482 C498 0.931 . S
C483 H471 0.929 . S
C483 C477 1.390 . S
C483 C480 1.386 . S
C484 C479 1.490 . S
C484 C486 1.395 1_455 S
C484 C487 1.403 . S
H485 C491 0.930 . S
C486 H472 0.930 . S
C486 C484 1.395 1_655 S
C486 C489 1.403 . S
C487 C484 1.403 . S
C487 C488 1.524 . S
C487 C491 1.400 . S
C488 H473 0.960 . S
C488 H474 0.960 . S
C488 H475 0.960 . S
C488 C487 1.524 . S
C489 C486 1.403 . S
C489 C490 1.392 . S
C489 C493 1.495 . S
C490 C489 1.392 . S
C490 C491 1.385 1_655 S
C490 C492 1.478 . S
C491 H485 0.930 . S
C491 C487 1.400 . S
C491 C490 1.385 1_455 S
C492 C490 1.478 . S
C492 C494 1.381 . S
C492 C498 1.383 . S
C493 C489 1.495 . S
C493 H499 0.959 . S
C493 H500 0.961 . S
C493 H501 0.960 . S
C494 C492 1.381 . S
C494 C495 1.394 . S
C494 H502 0.930 . S
C495 C494 1.394 . S
C495 C496 1.383 . S
C495 H503 0.929 . S
C496 C495 1.383 . S
C496 C497 1.377 . S
C497 H481 0.930 . S
C497 C496 1.377 . S
C497 C498 1.379 . S
C498 H482 0.931 . S
C498 C492 1.383 . S
C498 C497 1.379 . S
H499 C493 0.959 . S
H500 C493 0.961 . S
H501 C493 0.960 . S
H502 C494 0.930 . S
H503 C495 0.929 . S
H504 C512 0.929 . S
H505 C514 0.930 . S
H506 C516 0.930 . S
H507 C519 0.929 . S
H508 C522 0.930 . S
H509 C524 0.960 . S
H510 C524 0.960 . S
H511 C524 0.960 . S
C512 H504 0.929 . S
C512 C513 1.377 . S
C512 C514 1.384 . S
C513 C512 1.377 . S
C513 C519 1.390 . S
C514 H505 0.930 . S
C514 C512 1.384 . S
C514 C515 1.372 . S
C515 C514 1.372 . S
C515 C516 1.400 . S
C515 C520 1.490 . S
C516 H506 0.930 . S
C516 C515 1.400 . S
C516 C519 1.386 . S
H517 C533 0.930 . S
H518 C534 0.931 . S
C519 H507 0.929 . S
C519 C513 1.390 . S
C519 C516 1.386 . S
C520 C515 1.490 . S
C520 C522 1.395 . S
C520 C523 1.403 1_565 S
H521 C527 0.930 . S
C522 H508 0.930 . S
C522 C520 1.395 . S
C522 C525 1.403 . S
C523 C520 1.403 1_545 S
C523 C524 1.524 . S
C523 C527 1.400 . S
C524 H509 0.960 . S
C524 H510 0.960 . S
C524 H511 0.960 . S
C524 C523 1.524 . S
C525 C522 1.403 . S
C525 C526 1.392 1_565 S
C525 C529 1.495 . S
C526 C525 1.392 1_545 S
C526 C527 1.385 . S
C526 C528 1.478 . S
C527 H521 0.930 . S
C527 C523 1.400 . S
C527 C526 1.385 . S
C528 C526 1.478 . S
C528 C530 1.381 . S
C528 C534 1.383 . S
C529 C525 1.495 . S
C529 H535 0.959 . S
C529 H536 0.961 . S
C529 H537 0.960 . S
C530 C528 1.381 . S
C530 C531 1.394 . S
C530 H538 0.930 . S
C531 C530 1.394 . S
C531 C532 1.383 . S
C531 H539 0.929 . S
C532 C531 1.383 . S
C532 C533 1.377 . S
C533 H517 0.930 . S
C533 C532 1.377 . S
C533 C534 1.379 . S
C534 H518 0.931 . S
C534 C528 1.383 . S
C534 C533 1.379 . S
H535 C529 0.959 . S
H536 C529 0.961 . S
H537 C529 0.960 . S
H538 C530 0.930 . S
H539 C531 0.929 . S
H540 C548 0.929 . S
H541 C550 0.930 . S
H542 C552 0.930 . S
H543 C555 0.929 . S
H544 C558 0.930 . S
H545 C560 0.960 . S
H546 C560 0.960 . S
H547 C560 0.960 . S
C548 H540 0.929 . S
C548 C549 1.377 . S
C548 C550 1.384 . S
C549 C548 1.377 . S
C549 C555 1.390 . S
C550 H541 0.930 . S
C550 C548 1.384 . S
C550 C551 1.372 . S
C551 C550 1.372 . S
C551 C552 1.400 . S
C551 C556 1.490 . S
C552 H542 0.930 . S
C552 C551 1.400 . S
C552 C555 1.386 . S
H553 C569 0.930 . S
H554 C570 0.931 . S
C555 H543 0.929 . S
C555 C549 1.390 . S
C555 C552 1.386 . S
C556 C551 1.490 . S
C556 C558 1.395 . S
C556 C559 1.403 . S
H557 C563 0.930 . S
C558 H544 0.930 . S
C558 C556 1.395 . S
C558 C561 1.403 . S
C559 C556 1.403 . S
C559 C560 1.524 . S
C559 C563 1.400 . S
C560 H545 0.960 . S
C560 H546 0.960 . S
C560 H547 0.960 . S
C560 C559 1.524 . S
C561 C558 1.403 . S
C561 C562 1.392 . S
C561 C565 1.495 . S
C562 C561 1.392 . S
C562 C563 1.385 . S
C562 C564 1.478 . S
C563 H557 0.930 . S
C563 C559 1.400 . S
C563 C562 1.385 . S
C564 C562 1.478 . S
C564 C566 1.381 . S
C564 C570 1.383 . S
C565 C561 1.495 . S
C565 H571 0.959 . S
C565 H572 0.961 . S
C565 H573 0.960 . S
C566 C564 1.381 . S
C566 C567 1.394 . S
C566 H574 0.930 . S
C567 C566 1.394 . S
C567 C568 1.383 . S
C567 H575 0.929 . S
C568 C567 1.383 . S
C568 C569 1.377 . S
C569 H553 0.930 . S
C569 C568 1.377 . S
C569 C570 1.379 . S
C570 H554 0.931 . S
C570 C564 1.383 . S
C570 C569 1.379 . S
H571 C565 0.959 . S
H572 C565 0.961 . S
H573 C565 0.960 . S
H574 C566 0.930 . S
H575 C567 0.929 . S
H576 C584 0.929 . S
H577 C586 0.930 . S
H578 C588 0.930 1_455 S
H579 C591 0.929 . S
H580 C594 0.930 . S
H581 C596 0.960 . S
H582 C596 0.960 1_655 S
H583 C596 0.960 . S
C584 H576 0.929 . S
C584 C585 1.377 . S
C584 C586 1.384 . S
C585 C584 1.377 . S
C585 C591 1.390 . S
C586 H577 0.930 . S
C586 C584 1.384 . S
C586 C587 1.372 . S
C587 C586 1.372 . S
C587 C588 1.400 . S
C587 C592 1.490 . S
C588 H578 0.930 1_655 S
C588 C587 1.400 . S
C588 C591 1.386 . S
H589 C605 0.930 . S
H590 C606 0.931 . S
C591 H579 0.929 . S
C591 C585 1.390 . S
C591 C588 1.386 . S
C592 C587 1.490 . S
C592 C594 1.395 . S
C592 C595 1.403 1_655 S
H593 C599 0.930 . S
C594 H580 0.930 . S
C594 C592 1.395 . S
C594 C597 1.403 . S
C595 C592 1.403 1_455 S
C595 C596 1.524 . S
C595 C599 1.400 . S
C596 H581 0.960 . S
C596 H582 0.960 1_455 S
C596 H583 0.960 . S
C596 C595 1.524 . S
C597 C594 1.403 . S
C597 C598 1.392 1_655 S
C597 C601 1.495 . S
C598 C597 1.392 1_455 S
C598 C599 1.385 . S
C598 C600 1.478 . S
C599 H593 0.930 . S
C599 C595 1.400 . S
C599 C598 1.385 . S
C600 C598 1.478 . S
C600 C602 1.381 . S
C600 C606 1.383 . S
C601 C597 1.495 . S
C601 H607 0.959 . S
C601 H608 0.961 . S
C601 H609 0.960 . S
C602 C600 1.381 . S
C602 C603 1.394 . S
C602 H610 0.930 1_455 S
C603 C602 1.394 . S
C603 C604 1.383 . S
C603 H611 0.929 . S
C604 C603 1.383 . S
C604 C605 1.377 . S
C605 H589 0.930 . S
C605 C604 1.377 . S
C605 C606 1.379 . S
C606 H590 0.931 . S
C606 C600 1.383 . S
C606 C605 1.379 . S
H607 C601 0.959 . S
H608 C601 0.961 . S
H609 C601 0.960 . S
H610 C602 0.930 1_655 S
H611 C603 0.929 . S
H612 C620 0.929 . S
H613 C622 0.930 . S
H614 C624 0.930 . S
H615 C627 0.929 . S
H616 C630 0.930 . S
H617 C632 0.960 . S
H618 C632 0.960 . S
H619 C632 0.960 . S
C620 H612 0.929 . S
C620 C621 1.377 . S
C620 C622 1.384 . S
C621 C620 1.377 . S
C621 C627 1.390 . S
C622 H613 0.930 . S
C622 C620 1.384 . S
C622 C623 1.372 . S
C623 C622 1.372 . S
C623 C624 1.400 . S
C623 C628 1.490 . S
C624 H614 0.930 . S
C624 C623 1.400 . S
C624 C627 1.386 . S
H625 C641 0.930 . S
H626 C642 0.931 . S
C627 H615 0.929 . S
C627 C621 1.390 . S
C627 C624 1.386 . S
C628 C623 1.490 . S
C628 C630 1.395 1_545 S
C628 C631 1.403 . S
H629 C635 0.930 . S
C630 H616 0.930 . S
C630 C628 1.395 1_565 S
C630 C633 1.403 . S
C631 C628 1.403 . S
C631 C632 1.524 . S
C631 C635 1.400 . S
C632 H617 0.960 . S
C632 H618 0.960 . S
C632 H619 0.960 . S
C632 C631 1.524 . S
C633 C630 1.403 . S
C633 C634 1.392 . S
C633 C637 1.495 . S
C634 C633 1.392 . S
C634 C635 1.385 1_565 S
C634 C636 1.478 . S
C635 H629 0.930 . S
C635 C631 1.400 . S
C635 C634 1.385 1_545 S
C636 C634 1.478 . S
C636 C638 1.381 . S
C636 C642 1.383 . S
C637 C633 1.495 . S
C637 H643 0.959 . S
C637 H644 0.961 . S
C637 H645 0.960 . S
C638 C636 1.381 . S
C638 C639 1.394 . S
C638 H646 0.930 . S
C639 C638 1.394 . S
C639 C640 1.383 . S
C639 H647 0.929 . S
C640 C639 1.383 . S
C640 C641 1.377 . S
C641 H625 0.930 . S
C641 C640 1.377 . S
C641 C642 1.379 . S
C642 H626 0.931 . S
C642 C636 1.383 . S
C642 C641 1.379 . S
H643 C637 0.959 . S
H644 C637 0.961 . S
H645 C637 0.960 . S
H646 C638 0.930 . S
H647 C639 0.929 . S
H648 C656 0.929 . S
H649 C658 0.930 . S
H650 C660 0.930 . S
H651 C663 0.929 . S
H652 C666 0.930 . S
H653 C668 0.960 . S
H654 C668 0.960 . S
H655 C668 0.960 . S
C656 H648 0.929 . S
C656 C657 1.377 . S
C656 C658 1.384 . S
C657 C656 1.377 . S
C657 C663 1.390 . S
C658 H649 0.930 . S
C658 C656 1.384 . S
C658 C659 1.372 . S
C659 C658 1.372 . S
C659 C660 1.400 . S
C659 C664 1.490 . S
C660 H650 0.930 . S
C660 C659 1.400 . S
C660 C663 1.386 . S
H661 C677 0.930 . S
H662 C678 0.931 . S
C663 H651 0.929 . S
C663 C657 1.390 . S
C663 C660 1.386 . S
C664 C659 1.490 . S
C664 C666 1.395 . S
C664 C667 1.403 . S
H665 C671 0.930 . S
C666 H652 0.930 . S
C666 C664 1.395 . S
C666 C669 1.403 . S
C667 C664 1.403 . S
C667 C668 1.524 . S
C667 C671 1.400 . S
C668 H653 0.960 . S
C668 H654 0.960 . S
C668 H655 0.960 . S
C668 C667 1.524 . S
C669 C666 1.403 . S
C669 C670 1.392 . S
C669 C673 1.495 . S
C670 C669 1.392 . S
C670 C671 1.385 . S
C670 C672 1.478 . S
C671 H665 0.930 . S
C671 C667 1.400 . S
C671 C670 1.385 . S
C672 C670 1.478 . S
C672 C674 1.381 . S
C672 C678 1.383 . S
C673 C669 1.495 . S
C673 H679 0.959 . S
C673 H680 0.961 . S
C673 H681 0.960 . S
C674 C672 1.381 . S
C674 C675 1.394 . S
C674 H682 0.930 . S
C675 C674 1.394 . S
C675 C676 1.383 . S
C675 H683 0.929 . S
C676 C675 1.383 . S
C676 C677 1.377 . S
C677 H661 0.930 . S
C677 C676 1.377 . S
C677 C678 1.379 . S
C678 H662 0.931 . S
C678 C672 1.383 . S
C678 C677 1.379 . S
H679 C673 0.959 . S
H680 C673 0.961 . S
H681 C673 0.960 . S
H682 C674 0.930 . S
H683 C675 0.929 . S
H684 C692 0.929 . S
H685 C694 0.930 . S
H686 C696 0.930 . S
H687 C699 0.929 . S
H688 C702 0.930 . S
H689 C704 0.960 . S
H690 C704 0.960 . S
H691 C704 0.960 . S
C692 H684 0.929 . S
C692 C693 1.377 . S
C692 C694 1.384 . S
C693 C692 1.377 . S
C693 C699 1.390 . S
C694 H685 0.930 . S
C694 C692 1.384 . S
C694 C695 1.372 . S
C695 C694 1.372 . S
C695 C696 1.400 . S
C695 C700 1.490 . S
C696 H686 0.930 . S
C696 C695 1.400 . S
C696 C699 1.386 . S
H697 C713 0.930 . S
H698 C714 0.931 . S
C699 H687 0.929 . S
C699 C693 1.390 . S
C699 C696 1.386 . S
C700 C695 1.490 . S
C700 C702 1.395 . S
C700 C703 1.403 . S
H701 C707 0.930 . S
C702 H688 0.930 . S
C702 C700 1.395 . S
C702 C705 1.403 . S
C703 C700 1.403 . S
C703 C704 1.524 . S
C703 C707 1.400 . S
C704 H689 0.960 . S
C704 H690 0.960 . S
C704 H691 0.960 . S
C704 C703 1.524 . S
C705 C702 1.403 . S
C705 C706 1.392 . S
C705 C709 1.495 . S
C706 C705 1.392 . S
C706 C707 1.385 . S
C706 C708 1.478 . S
C707 H701 0.930 . S
C707 C703 1.400 . S
C707 C706 1.385 . S
C708 C706 1.478 . S
C708 C710 1.381 . S
C708 C714 1.383 . S
C709 C705 1.495 . S
C709 H715 0.959 . S
C709 H716 0.961 . S
C709 H717 0.960 . S
C710 C708 1.381 . S
C710 C711 1.394 . S
C710 H718 0.930 . S
C711 C710 1.394 . S
C711 C712 1.383 . S
C711 H719 0.929 . S
C712 C711 1.383 . S
C712 C713 1.377 . S
C713 H697 0.930 . S
C713 C712 1.377 . S
C713 C714 1.379 . S
C714 H698 0.931 . S
C714 C708 1.383 . S
C714 C713 1.379 . S
H715 C709 0.959 . S
H716 C709 0.961 . S
H717 C709 0.960 . S
H718 C710 0.930 . S
H719 C711 0.929 . S
H720 C728 0.929 . S
H721 C730 0.930 . S
H722 C732 0.930 . S
H723 C735 0.929 . S
H724 C738 0.930 . S
H725 C740 0.960 . S
H726 C740 0.960 . S
H727 C740 0.960 . S
C728 H720 0.929 . S
C728 C729 1.377 . S
C728 C730 1.384 . S
C729 C728 1.377 . S
C729 C735 1.390 . S
C730 H721 0.930 . S
C730 C728 1.384 . S
C730 C731 1.372 . S
C731 C730 1.372 . S
C731 C732 1.400 . S
C731 C736 1.490 . S
C732 H722 0.930 . S
C732 C731 1.400 . S
C732 C735 1.386 . S
H733 C749 0.930 . S
H734 C750 0.931 . S
C735 H723 0.929 . S
C735 C729 1.390 . S
C735 C732 1.386 . S
C736 C731 1.490 . S
C736 C738 1.395 . S
C736 C739 1.403 . S
H737 C743 0.930 . S
C738 H724 0.930 . S
C738 C736 1.395 . S
C738 C741 1.403 . S
C739 C736 1.403 . S
C739 C740 1.524 . S
C739 C743 1.400 . S
C740 H725 0.960 . S
C740 H726 0.960 . S
C740 H727 0.960 . S
C740 C739 1.524 . S
C741 C738 1.403 . S
C741 C742 1.392 . S
C741 C745 1.495 . S
C742 C741 1.392 . S
C742 C743 1.385 . S
C742 C744 1.478 . S
C743 H737 0.930 . S
C743 C739 1.400 . S
C743 C742 1.385 . S
C744 C742 1.478 . S
C744 C746 1.381 . S
C744 C750 1.383 . S
C745 C741 1.495 . S
C745 H751 0.959 . S
C745 H752 0.961 . S
C745 H753 0.960 . S
C746 C744 1.381 . S
C746 C747 1.394 . S
C746 H754 0.930 . S
C747 C746 1.394 . S
C747 C748 1.383 . S
C747 H755 0.929 . S
C748 C747 1.383 . S
C748 C749 1.377 . S
C749 H733 0.930 . S
C749 C748 1.377 . S
C749 C750 1.379 . S
C750 H734 0.931 . S
C750 C744 1.383 . S
C750 C749 1.379 . S
H751 C745 0.959 . S
H752 C745 0.961 . S
H753 C745 0.960 . S
H754 C746 0.930 . S
H755 C747 0.929 . S
H756 C764 0.929 . S
H757 C766 0.930 . S
H758 C768 0.930 . S
H759 C771 0.929 . S
H760 C774 0.930 . S
H761 C776 0.960 . S
H762 C776 0.960 . S
H763 C776 0.960 . S
C764 H756 0.929 . S
C764 C765 1.377 . S
C764 C766 1.384 . S
C765 C764 1.377 . S
C765 C771 1.390 . S
C766 H757 0.930 . S
C766 C764 1.384 . S
C766 C767 1.372 . S
C767 C766 1.372 . S
C767 C768 1.400 . S
C767 C772 1.490 . S
C768 H758 0.930 . S
C768 C767 1.400 . S
C768 C771 1.386 . S
H769 C785 0.930 . S
H770 C786 0.931 . S
C771 H759 0.929 . S
C771 C765 1.390 . S
C771 C768 1.386 . S
C772 C767 1.490 . S
C772 C774 1.395 . S
C772 C775 1.403 . S
H773 C779 0.930 . S
C774 H760 0.930 . S
C774 C772 1.395 . S
C774 C777 1.403 . S
C775 C772 1.403 . S
C775 C776 1.524 . S
C775 C779 1.400 . S
C776 H761 0.960 . S
C776 H762 0.960 . S
C776 H763 0.960 . S
C776 C775 1.524 . S
C777 C774 1.403 . S
C777 C778 1.392 . S
C777 C781 1.495 . S
C778 C777 1.392 . S
C778 C779 1.385 . S
C778 C780 1.478 . S
C779 H773 0.930 . S
C779 C775 1.400 . S
C779 C778 1.385 . S
C780 C778 1.478 . S
C780 C782 1.381 . S
C780 C786 1.383 . S
C781 C777 1.495 . S
C781 H787 0.959 . S
C781 H788 0.961 . S
C781 H789 0.960 . S
C782 C780 1.381 . S
C782 C783 1.394 . S
C782 H790 0.930 . S
C783 C782 1.394 . S
C783 C784 1.383 . S
C783 H791 0.929 . S
C784 C783 1.383 . S
C784 C785 1.377 . S
C785 H769 0.930 . S
C785 C784 1.377 . S
C785 C786 1.379 . S
C786 H770 0.931 . S
C786 C780 1.383 . S
C786 C785 1.379 . S
H787 C781 0.959 . S
H788 C781 0.961 . S
H789 C781 0.960 . S
H790 C782 0.930 . S
H791 C783 0.929 . S
H792 C800 0.929 . S
H793 C802 0.930 . S
H794 C804 0.930 . S
H795 C807 0.929 . S
H796 C810 0.930 . S
H797 C812 0.960 . S
H798 C812 0.960 . S
H799 C812 0.960 . S
C800 H792 0.929 . S
C800 C801 1.377 . S
C800 C802 1.384 . S
C801 C800 1.377 . S
C801 C807 1.390 . S
C802 H793 0.930 . S
C802 C800 1.384 . S
C802 C803 1.372 . S
C803 C802 1.372 . S
C803 C804 1.400 . S
C803 C808 1.490 . S
C804 H794 0.930 . S
C804 C803 1.400 . S
C804 C807 1.386 . S
H805 C821 0.930 . S
H806 C822 0.931 . S
C807 H795 0.929 . S
C807 C801 1.390 . S
C807 C804 1.386 . S
C808 C803 1.490 . S
C808 C810 1.395 . S
C808 C811 1.403 . S
H809 C815 0.930 . S
C810 H796 0.930 . S
C810 C808 1.395 . S
C810 C813 1.403 . S
C811 C808 1.403 . S
C811 C812 1.524 . S
C811 C815 1.400 . S
C812 H797 0.960 . S
C812 H798 0.960 . S
C812 H799 0.960 . S
C812 C811 1.524 . S
C813 C810 1.403 . S
C813 C814 1.392 . S
C813 C817 1.495 . S
C814 C813 1.392 . S
C814 C815 1.385 . S
C814 C816 1.478 . S
C815 H809 0.930 . S
C815 C811 1.400 . S
C815 C814 1.385 . S
C816 C814 1.478 . S
C816 C818 1.381 . S
C816 C822 1.383 . S
C817 C813 1.495 . S
C817 H823 0.959 . S
C817 H824 0.961 . S
C817 H825 0.960 . S
C818 C816 1.381 . S
C818 C819 1.394 . S
C818 H826 0.930 . S
C819 C818 1.394 . S
C819 C820 1.383 . S
C819 H827 0.929 . S
C820 C819 1.383 . S
C820 C821 1.377 . S
C821 H805 0.930 . S
C821 C820 1.377 . S
C821 C822 1.379 . S
C822 H806 0.931 . S
C822 C816 1.383 . S
C822 C821 1.379 . S
H823 C817 0.959 . S
H824 C817 0.961 . S
H825 C817 0.960 . S
H826 C818 0.930 . S
H827 C819 0.929 . S
H828 C836 0.929 . S
H829 C838 0.930 . S
H830 C840 0.930 . S
H831 C843 0.929 . S
H832 C846 0.930 . S
H833 C848 0.960 . S
H834 C848 0.960 . S
H835 C848 0.960 . S
C836 H828 0.929 . S
C836 C837 1.377 . S
C836 C838 1.384 . S
C837 C836 1.377 . S
C837 C843 1.390 . S
C838 H829 0.930 . S
C838 C836 1.384 . S
C838 C839 1.372 . S
C839 C838 1.372 . S
C839 C840 1.400 . S
C839 C844 1.490 . S
C840 H830 0.930 . S
C840 C839 1.400 . S
C840 C843 1.386 . S
H841 C857 0.930 . S
H842 C858 0.931 . S
C843 H831 0.929 . S
C843 C837 1.390 . S
C843 C840 1.386 . S
C844 C839 1.490 . S
C844 C846 1.395 . S
C844 C847 1.403 . S
H845 C851 0.930 . S
C846 H832 0.930 . S
C846 C844 1.395 . S
C846 C849 1.403 . S
C847 C844 1.403 . S
C847 C848 1.524 . S
C847 C851 1.400 . S
C848 H833 0.960 . S
C848 H834 0.960 . S
C848 H835 0.960 . S
C848 C847 1.524 . S
C849 C846 1.403 . S
C849 C850 1.392 . S
C849 C853 1.495 . S
C850 C849 1.392 . S
C850 C851 1.385 . S
C850 C852 1.478 . S
C851 H845 0.930 . S
C851 C847 1.400 . S
C851 C850 1.385 . S
C852 C850 1.478 . S
C852 C854 1.381 . S
C852 C858 1.383 . S
C853 C849 1.495 . S
C853 H859 0.959 . S
C853 H860 0.961 . S
C853 H861 0.960 . S
C854 C852 1.381 . S
C854 C855 1.394 . S
C854 H862 0.930 . S
C855 C854 1.394 . S
C855 C856 1.383 . S
C855 H863 0.929 . S
C856 C855 1.383 . S
C856 C857 1.377 . S
C857 H841 0.930 . S
C857 C856 1.377 . S
C857 C858 1.379 . S
C858 H842 0.931 . S
C858 C852 1.383 . S
C858 C857 1.379 . S
H859 C853 0.959 . S
H860 C853 0.961 . S
H861 C853 0.960 . S
H862 C854 0.930 . S
H863 C855 0.929 . S
H864 C872 0.929 . S
H865 C874 0.930 . S
H866 C876 0.930 . S
H867 C879 0.929 . S
H868 C882 0.930 . S
H869 C884 0.960 1_545 S
H870 C884 0.960 . S
H871 C884 0.960 . S
C872 H864 0.929 . S
C872 C873 1.377 . S
C872 C874 1.384 . S
C873 C872 1.377 . S
C873 C879 1.390 . S
C874 H865 0.930 . S
C874 C872 1.384 . S
C874 C875 1.372 . S
C875 C874 1.372 . S
C875 C876 1.400 . S
C875 C880 1.490 . S
C876 H866 0.930 . S
C876 C875 1.400 . S
C876 C879 1.386 . S
H877 C893 0.930 . S
H878 C894 0.931 . S
C879 H867 0.929 . S
C879 C873 1.390 . S
C879 C876 1.386 . S
C880 C875 1.490 . S
C880 C882 1.395 1_556 S
C880 C883 1.403 . S
H881 C887 0.930 . S
C882 H868 0.930 . S
C882 C880 1.395 1_554 S
C882 C885 1.403 1_565 S
C883 C880 1.403 . S
C883 C884 1.524 . S
C883 C887 1.400 1_565 S
C884 H869 0.960 1_565 S
C884 H870 0.960 . S
C884 H871 0.960 . S
C884 C883 1.524 . S
C885 C882 1.403 1_545 S
C885 C886 1.392 . S
C885 C889 1.495 . S
C886 C885 1.392 . S
C886 C887 1.385 1_554 S
C886 C888 1.478 . S
C887 H881 0.930 . S
C887 C883 1.400 1_545 S
C887 C886 1.385 1_556 S
C888 C886 1.478 . S
C888 C890 1.381 . S
C888 C894 1.383 . S
C889 C885 1.495 . S
C889 H895 0.959 1_545 S
C889 H896 0.961 . S
C889 H897 0.960 . S
C890 C888 1.381 . S
C890 C891 1.394 . S
C890 H898 0.930 . S
C891 C890 1.394 . S
C891 C892 1.383 . S
C891 H899 0.929 . S
C892 C891 1.383 . S
C892 C893 1.377 . S
C893 H877 0.930 . S
C893 C892 1.377 . S
C893 C894 1.379 . S
C894 H878 0.931 . S
C894 C888 1.383 . S
C894 C893 1.379 . S
H895 C889 0.959 1_565 S
H896 C889 0.961 . S
H897 C889 0.960 . S
H898 C890 0.930 . S
H899 C891 0.929 . S
H900 C908 0.929 . S
H901 C910 0.930 . S
H902 C912 0.930 . S
H903 C915 0.929 . S
H904 C918 0.930 . S
H905 C920 0.960 . S
H906 C920 0.960 . S
H907 C920 0.960 . S
C908 H900 0.929 . S
C908 C909 1.377 . S
C908 C910 1.384 . S
C909 C908 1.377 . S
C909 C915 1.390 . S
C910 H901 0.930 . S
C910 C908 1.384 . S
C910 C911 1.372 . S
C911 C910 1.372 . S
C911 C912 1.400 . S
C911 C916 1.490 . S
C912 H902 0.930 . S
C912 C911 1.400 . S
C912 C915 1.386 . S
H913 C929 0.930 . S
H914 C930 0.931 . S
C915 H903 0.929 . S
C915 C909 1.390 . S
C915 C912 1.386 . S
C916 C911 1.490 . S
C916 C918 1.395 . S
C916 C919 1.403 . S
H917 C923 0.930 . S
C918 H904 0.930 . S
C918 C916 1.395 . S
C918 C921 1.403 . S
C919 C916 1.403 . S
C919 C920 1.524 . S
C919 C923 1.400 . S
C920 H905 0.960 . S
C920 H906 0.960 . S
C920 H907 0.960 . S
C920 C919 1.524 . S
C921 C918 1.403 . S
C921 C922 1.392 . S
C921 C925 1.495 . S
C922 C921 1.392 . S
C922 C923 1.385 . S
C922 C924 1.478 . S
C923 H917 0.930 . S
C923 C919 1.400 . S
C923 C922 1.385 . S
C924 C922 1.478 . S
C924 C926 1.381 . S
C924 C930 1.383 . S
C925 C921 1.495 . S
C925 H931 0.959 . S
C925 H932 0.961 . S
C925 H933 0.960 . S
C926 C924 1.381 . S
C926 C927 1.394 . S
C926 H934 0.930 . S
C927 C926 1.394 . S
C927 C928 1.383 . S
C927 H935 0.929 . S
C928 C927 1.383 . S
C928 C929 1.377 . S
C929 H913 0.930 . S
C929 C928 1.377 . S
C929 C930 1.379 . S
C930 H914 0.931 . S
C930 C924 1.383 . S
C930 C929 1.379 . S
H931 C925 0.959 . S
H932 C925 0.961 . S
H933 C925 0.960 . S
H934 C926 0.930 . S
H935 C927 0.929 . S
H936 C944 0.929 . S
H937 C946 0.930 . S
H938 C948 0.930 . S
H939 C951 0.929 . S
H940 C954 0.930 . S
H941 C956 0.960 . S
H942 C956 0.960 . S
H943 C956 0.960 . S
C944 H936 0.929 . S
C944 C945 1.377 . S
C944 C946 1.384 . S
C945 C944 1.377 . S
C945 C951 1.390 . S
C946 H937 0.930 . S
C946 C944 1.384 . S
C946 C947 1.372 . S
C947 C946 1.372 . S
C947 C948 1.400 . S
C947 C952 1.490 . S
C948 H938 0.930 . S
C948 C947 1.400 . S
C948 C951 1.386 . S
H949 C965 0.930 . S
H950 C966 0.931 . S
C951 H939 0.929 . S
C951 C945 1.390 . S
C951 C948 1.386 . S
C952 C947 1.490 . S
C952 C954 1.395 . S
C952 C955 1.403 . S
H953 C959 0.930 . S
C954 H940 0.930 . S
C954 C952 1.395 . S
C954 C957 1.403 1_655 S
C955 C952 1.403 . S
C955 C956 1.524 . S
C955 C959 1.400 1_655 S
C956 H941 0.960 . S
C956 H942 0.960 . S
C956 H943 0.960 . S
C956 C955 1.524 . S
C957 C954 1.403 1_455 S
C957 C958 1.392 . S
C957 C961 1.495 . S
C958 C957 1.392 . S
C958 C959 1.385 . S
C958 C960 1.478 . S
C959 H953 0.930 . S
C959 C955 1.400 1_455 S
C959 C958 1.385 . S
C960 C958 1.478 . S
C960 C962 1.381 . S
C960 C966 1.383 . S
C961 C957 1.495 . S
C961 H967 0.959 . S
C961 H968 0.961 . S
C961 H969 0.960 . S
C962 C960 1.381 . S
C962 C963 1.394 . S
C962 H970 0.930 . S
C963 C962 1.394 . S
C963 C964 1.383 . S
C963 H971 0.929 . S
C964 C963 1.383 . S
C964 C965 1.377 . S
C965 H949 0.930 . S
C965 C964 1.377 . S
C965 C966 1.379 . S
C966 H950 0.931 . S
C966 C960 1.383 . S
C966 C965 1.379 . S
H967 C961 0.959 . S
H968 C961 0.961 . S
H969 C961 0.960 . S
H970 C962 0.930 . S
H971 C963 0.929 . S
H972 C980 0.929 . S
H973 C982 0.930 . S
H974 C984 0.930 . S
H975 C987 0.929 . S
H976 C990 0.930 . S
H977 C992 0.960 1_545 S
H978 C992 0.960 . S
H979 C992 0.960 . S
C980 H972 0.929 . S
C980 C981 1.377 . S
C980 C982 1.384 . S
C981 C980 1.377 . S
C981 C987 1.390 . S
C982 H973 0.930 . S
C982 C980 1.384 . S
C982 C983 1.372 . S
C983 C982 1.372 . S
C983 C984 1.400 . S
C983 C988 1.490 . S
C984 H974 0.930 . S
C984 C983 1.400 . S
C984 C987 1.386 . S
H985 C1001 0.930 . S
H986 C1002 0.931 . S
C987 H975 0.929 . S
C987 C981 1.390 . S
C987 C984 1.386 . S
C988 C983 1.490 . S
C988 C990 1.395 1_554 S
C988 C991 1.403 . S
H989 C995 0.930 . S
C990 H976 0.930 . S
C990 C988 1.395 1_556 S
C990 C993 1.403 1_565 S
C991 C988 1.403 . S
C991 C992 1.524 . S
C991 C995 1.400 1_565 S
C992 H977 0.960 1_565 S
C992 H978 0.960 . S
C992 H979 0.960 . S
C992 C991 1.524 . S
C993 C990 1.403 1_545 S
C993 C994 1.392 . S
C993 C997 1.495 . S
C994 C993 1.392 . S
C994 C995 1.385 1_556 S
C994 C996 1.478 . S
C995 H989 0.930 . S
C995 C991 1.400 1_545 S
C995 C994 1.385 1_554 S
C996 C994 1.478 . S
C996 C998 1.381 . S
C996 C1002 1.383 . S
C997 C993 1.495 . S
C997 H1003 0.959 1_545 S
C997 H1004 0.961 . S
C997 H1005 0.960 . S
C998 C996 1.381 . S
C998 C999 1.394 . S
C998 H1006 0.930 . S
C999 C998 1.394 . S
C999 C1000 1.383 . S
C999 H1007 0.929 . S
C1000 C999 1.383 . S
C1000 C1001 1.377 . S
C1001 H985 0.930 . S
C1001 C1000 1.377 . S
C1001 C1002 1.379 . S
C1002 H986 0.931 . S
C1002 C996 1.383 . S
C1002 C1001 1.379 . S
H1003 C997 0.959 1_565 S
H1004 C997 0.961 . S
H1005 C997 0.960 . S
H1006 C998 0.930 . S
H1007 C999 0.929 . S
H1008 C1016 0.929 . S
H1009 C1018 0.930 . S
H1010 C1020 0.930 . S
H1011 C1023 0.929 . S
H1012 C1026 0.930 . S
H1013 C1028 0.960 . S
H1014 C1028 0.960 . S
H1015 C1028 0.960 . S
C1016 H1008 0.929 . S
C1016 C1017 1.377 . S
C1016 C1018 1.384 . S
C1017 C1016 1.377 . S
C1017 C1023 1.390 . S
C1018 H1009 0.930 . S
C1018 C1016 1.384 . S
C1018 C1019 1.372 . S
C1019 C1018 1.372 . S
C1019 C1020 1.400 . S
C1019 C1024 1.490 . S
C1020 H1010 0.930 . S
C1020 C1019 1.400 . S
C1020 C1023 1.386 . S
H1021 C1037 0.930 . S
H1022 C1038 0.931 . S
C1023 H1011 0.929 . S
C1023 C1017 1.390 . S
C1023 C1020 1.386 . S
C1024 C1019 1.490 . S
C1024 C1026 1.395 . S
C1024 C1027 1.403 . S
H1025 C1031 0.930 . S
C1026 H1012 0.930 . S
C1026 C1024 1.395 . S
C1026 C1029 1.403 . S
C1027 C1024 1.403 . S
C1027 C1028 1.524 . S
C1027 C1031 1.400 . S
C1028 H1013 0.960 . S
C1028 H1014 0.960 . S
C1028 H1015 0.960 . S
C1028 C1027 1.524 . S
C1029 C1026 1.403 . S
C1029 C1030 1.392 . S
C1029 C1033 1.495 . S
C1030 C1029 1.392 . S
C1030 C1031 1.385 . S
C1030 C1032 1.478 . S
C1031 H1025 0.930 . S
C1031 C1027 1.400 . S
C1031 C1030 1.385 . S
C1032 C1030 1.478 . S
C1032 C1034 1.381 . S
C1032 C1038 1.383 . S
C1033 C1029 1.495 . S
C1033 H1039 0.959 . S
C1033 H1040 0.961 . S
C1033 H1041 0.960 . S
C1034 C1032 1.381 . S
C1034 C1035 1.394 . S
C1034 H1042 0.930 . S
C1035 C1034 1.394 . S
C1035 C1036 1.383 . S
C1035 H1043 0.929 . S
C1036 C1035 1.383 . S
C1036 C1037 1.377 . S
C1037 H1021 0.930 . S
C1037 C1036 1.377 . S
C1037 C1038 1.379 . S
C1038 H1022 0.931 . S
C1038 C1032 1.383 . S
C1038 C1037 1.379 . S
H1039 C1033 0.959 . S
H1040 C1033 0.961 . S
H1041 C1033 0.960 . S
H1042 C1034 0.930 . S
H1043 C1035 0.929 . S
H1044 C1052 0.929 . S
H1045 C1054 0.930 . S
H1046 C1056 0.930 . S
H1047 C1059 0.929 . S
H1048 C1062 0.930 . S
H1049 C1064 0.960 1_655 S
H1050 C1064 0.960 . S
H1051 C1064 0.960 . S
C1052 H1044 0.929 . S
C1052 C1053 1.377 . S
C1052 C1054 1.384 . S
C1053 C1052 1.377 . S
C1053 C1059 1.390 . S
C1054 H1045 0.930 . S
C1054 C1052 1.384 . S
C1054 C1055 1.372 . S
C1055 C1054 1.372 . S
C1055 C1056 1.400 . S
C1055 C1060 1.490 . S
C1056 H1046 0.930 . S
C1056 C1055 1.400 . S
C1056 C1059 1.386 . S
H1057 C1073 0.930 . S
H1058 C1074 0.931 . S
C1059 H1047 0.929 . S
C1059 C1053 1.390 . S
C1059 C1056 1.386 . S
C1060 C1055 1.490 . S
C1060 C1062 1.395 . S
C1060 C1063 1.403 . S
H1061 C1067 0.930 . S
C1062 H1048 0.930 . S
C1062 C1060 1.395 . S
C1062 C1065 1.403 1_455 S
C1063 C1060 1.403 . S
C1063 C1064 1.524 . S
C1063 C1067 1.400 1_455 S
C1064 H1049 0.960 1_455 S
C1064 H1050 0.960 . S
C1064 H1051 0.960 . S
C1064 C1063 1.524 . S
C1065 C1062 1.403 1_655 S
C1065 C1066 1.392 . S
C1065 C1069 1.495 . S
C1066 C1065 1.392 . S
C1066 C1067 1.385 . S
C1066 C1068 1.478 . S
C1067 H1061 0.930 . S
C1067 C1063 1.400 1_655 S
C1067 C1066 1.385 . S
C1068 C1066 1.478 . S
C1068 C1070 1.381 . S
C1068 C1074 1.383 . S
C1069 C1065 1.495 . S
C1069 H1075 0.959 1_655 S
C1069 H1076 0.961 . S
C1069 H1077 0.960 . S
C1070 C1068 1.381 . S
C1070 C1071 1.394 . S
C1070 H1078 0.930 . S
C1071 C1070 1.394 . S
C1071 C1072 1.383 . S
C1071 H1079 0.929 . S
C1072 C1071 1.383 . S
C1072 C1073 1.377 . S
C1073 H1057 0.930 . S
C1073 C1072 1.377 . S
C1073 C1074 1.379 . S
C1074 H1058 0.931 . S
C1074 C1068 1.383 . S
C1074 C1073 1.379 . S
H1075 C1069 0.959 1_455 S
H1076 C1069 0.961 . S
H1077 C1069 0.960 . S
H1078 C1070 0.930 . S
H1079 C1071 0.929 . S
H1080 C1088 0.929 . S
H1081 C1090 0.930 . S
H1082 C1092 0.930 . S
H1083 C1095 0.929 1_655 S
H1084 C1098 0.930 . S
H1085 C1100 0.960 . S
H1086 C1100 0.960 . S
H1087 C1100 0.960 . S
C1088 H1080 0.929 . S
C1088 C1089 1.377 1_455 S
C1088 C1090 1.384 . S
C1089 C1088 1.377 1_655 S
C1089 C1095 1.390 1_655 S
C1090 H1081 0.930 . S
C1090 C1088 1.384 . S
C1090 C1091 1.372 . S
C1091 C1090 1.372 . S
C1091 C1092 1.400 . S
C1091 C1096 1.490 . S
C1092 H1082 0.930 . S
C1092 C1091 1.400 . S
C1092 C1095 1.386 . S
H1093 C1109 0.930 . S
H1094 C1110 0.931 . S
C1095 H1083 0.929 1_455 S
C1095 C1089 1.390 1_455 S
C1095 C1092 1.386 . S
C1096 C1091 1.490 . S
C1096 C1098 1.395 1_556 S
C1096 C1099 1.403 . S
H1097 C1103 0.930 . S
C1098 H1084 0.930 . S
C1098 C1096 1.395 1_554 S
C1098 C1101 1.403 . S
C1099 C1096 1.403 . S
C1099 C1100 1.524 . S
C1099 C1103 1.400 . S
C1100 H1085 0.960 . S
C1100 H1086 0.960 . S
C1100 H1087 0.960 . S
C1100 C1099 1.524 . S
C1101 C1098 1.403 . S
C1101 C1102 1.392 . S
C1101 C1105 1.495 . S
C1102 C1101 1.392 . S
C1102 C1103 1.385 1_554 S
C1102 C1104 1.478 . S
C1103 H1097 0.930 . S
C1103 C1099 1.400 . S
C1103 C1102 1.385 1_556 S
C1104 C1102 1.478 . S
C1104 C1106 1.381 . S
C1104 C1110 1.383 . S
C1105 C1101 1.495 . S
C1105 H1111 0.959 . S
C1105 H1112 0.961 . S
C1105 H1113 0.960 . S
C1106 C1104 1.381 . S
C1106 C1107 1.394 . S
C1106 H1114 0.930 . S
C1107 C1106 1.394 . S
C1107 C1108 1.383 . S
C1107 H1115 0.929 . S
C1108 C1107 1.383 . S
C1108 C1109 1.377 . S
C1109 H1093 0.930 . S
C1109 C1108 1.377 . S
C1109 C1110 1.379 . S
C1110 H1094 0.931 . S
C1110 C1104 1.383 . S
C1110 C1109 1.379 . S
H1111 C1105 0.959 . S
H1112 C1105 0.961 . S
H1113 C1105 0.960 . S
H1114 C1106 0.930 . S
H1115 C1107 0.929 . S
H1116 C1124 0.929 . S
H1117 C1126 0.930 . S
H1118 C1128 0.930 . S
H1119 C1131 0.929 . S
H1120 C1134 0.930 . S
H1121 C1136 0.960 . S
H1122 C1136 0.960 . S
H1123 C1136 0.960 . S
C1124 H1116 0.929 . S
C1124 C1125 1.377 1_545 S
C1124 C1126 1.384 . S
C1125 C1124 1.377 1_565 S
C1125 C1131 1.390 . S
C1126 H1117 0.930 . S
C1126 C1124 1.384 . S
C1126 C1127 1.372 . S
C1127 C1126 1.372 . S
C1127 C1128 1.400 . S
C1127 C1132 1.490 . S
C1128 H1118 0.930 . S
C1128 C1127 1.400 . S
C1128 C1131 1.386 1_545 S
H1129 C1145 0.930 1_455 S
H1130 C1146 0.931 . S
C1131 H1119 0.929 . S
C1131 C1125 1.390 . S
C1131 C1128 1.386 1_565 S
C1132 C1127 1.490 . S
C1132 C1134 1.395 . S
C1132 C1135 1.403 . S
H1133 C1139 0.930 . S
C1134 H1120 0.930 . S
C1134 C1132 1.395 . S
C1134 C1137 1.403 . S
C1135 C1132 1.403 . S
C1135 C1136 1.524 . S
C1135 C1139 1.400 . S
C1136 H1121 0.960 . S
C1136 H1122 0.960 . S
C1136 H1123 0.960 . S
C1136 C1135 1.524 . S
C1137 C1134 1.403 . S
C1137 C1138 1.392 . S
C1137 C1141 1.495 . S
C1138 C1137 1.392 . S
C1138 C1139 1.385 . S
C1138 C1140 1.478 . S
C1139 H1133 0.930 . S
C1139 C1135 1.400 . S
C1139 C1138 1.385 . S
C1140 C1138 1.478 . S
C1140 C1142 1.381 . S
C1140 C1146 1.383 . S
C1141 C1137 1.495 . S
C1141 H1147 0.959 . S
C1141 H1148 0.961 . S
C1141 H1149 0.960 . S
C1142 C1140 1.381 . S
C1142 C1143 1.394 . S
C1142 H1150 0.930 . S
C1143 C1142 1.394 . S
C1143 C1144 1.382 1_655 S
C1143 H1151 0.929 . S
C1144 C1143 1.382 1_455 S
C1144 C1145 1.377 1_455 S
C1145 H1129 0.930 1_655 S
C1145 C1144 1.377 1_655 S
C1145 C1146 1.379 . S
C1146 H1130 0.931 . S
C1146 C1140 1.383 . S
C1146 C1145 1.379 . S
H1147 C1141 0.959 . S
H1148 C1141 0.961 . S
H1149 C1141 0.960 . S
H1150 C1142 0.930 . S
H1151 C1143 0.929 . S
H1152 C1160 0.929 . S
H1153 C1162 0.930 . S
H1154 C1164 0.930 . S
H1155 C1167 0.929 . S
H1156 C1170 0.930 . S
H1157 C1172 0.960 . S
H1158 C1172 0.960 . S
H1159 C1172 0.960 . S
C1160 H1152 0.929 . S
C1160 C1161 1.377 . S
C1160 C1162 1.384 . S
C1161 C1160 1.377 . S
C1161 C1167 1.390 . S
C1162 H1153 0.930 . S
C1162 C1160 1.384 . S
C1162 C1163 1.372 . S
C1163 C1162 1.372 . S
C1163 C1164 1.400 . S
C1163 C1168 1.490 . S
C1164 H1154 0.930 . S
C1164 C1163 1.400 . S
C1164 C1167 1.386 . S
H1165 C1181 0.930 . S
H1166 C1182 0.931 . S
C1167 H1155 0.929 . S
C1167 C1161 1.390 . S
C1167 C1164 1.386 . S
C1168 C1163 1.490 . S
C1168 C1170 1.395 . S
C1168 C1171 1.403 . S
H1169 C1175 0.930 . S
C1170 H1156 0.930 . S
C1170 C1168 1.395 . S
C1170 C1173 1.403 . S
C1171 C1168 1.403 . S
C1171 C1172 1.524 . S
C1171 C1175 1.400 . S
C1172 H1157 0.960 . S
C1172 H1158 0.960 . S
C1172 H1159 0.960 . S
C1172 C1171 1.524 . S
C1173 C1170 1.403 . S
C1173 C1174 1.392 . S
C1173 C1177 1.495 . S
C1174 C1173 1.392 . S
C1174 C1175 1.385 . S
C1174 C1176 1.478 . S
C1175 H1169 0.930 . S
C1175 C1171 1.400 . S
C1175 C1174 1.385 . S
C1176 C1174 1.478 . S
C1176 C1178 1.381 . S
C1176 C1182 1.383 . S
C1177 C1173 1.495 . S
C1177 H1183 0.959 . S
C1177 H1184 0.961 . S
C1177 H1185 0.960 . S
C1178 C1176 1.381 . S
C1178 C1179 1.394 1_565 S
C1178 H1186 0.930 . S
C1179 C1178 1.394 1_545 S
C1179 C1180 1.383 . S
C1179 H1187 0.929 . S
C1180 C1179 1.383 . S
C1180 C1181 1.377 1_545 S
C1181 H1165 0.930 . S
C1181 C1180 1.377 1_565 S
C1181 C1182 1.379 . S
C1182 H1166 0.931 . S
C1182 C1176 1.383 . S
C1182 C1181 1.379 . S
H1183 C1177 0.959 . S
H1184 C1177 0.961 . S
H1185 C1177 0.960 . S
H1186 C1178 0.930 . S
H1187 C1179 0.929 . S
H1188 C1196 0.929 . S
H1189 C1198 0.930 . S
H1190 C1200 0.930 . S
H1191 C1203 0.929 . S
H1192 C1206 0.930 . S
H1193 C1208 0.960 . S
H1194 C1208 0.960 . S
H1195 C1208 0.960 . S
C1196 H1188 0.929 . S
C1196 C1197 1.377 . S
C1196 C1198 1.384 . S
C1197 C1196 1.377 . S
C1197 C1203 1.390 . S
C1198 H1189 0.930 . S
C1198 C1196 1.384 . S
C1198 C1199 1.372 . S
C1199 C1198 1.372 . S
C1199 C1200 1.400 . S
C1199 C1204 1.490 . S
C1200 H1190 0.930 . S
C1200 C1199 1.400 . S
C1200 C1203 1.386 . S
H1201 C1217 0.930 . S
H1202 C1218 0.931 . S
C1203 H1191 0.929 . S
C1203 C1197 1.390 . S
C1203 C1200 1.386 . S
C1204 C1199 1.490 . S
C1204 C1206 1.395 . S
C1204 C1207 1.403 1_554 S
H1205 C1211 0.930 . S
C1206 H1192 0.930 . S
C1206 C1204 1.395 . S
C1206 C1209 1.403 . S
C1207 C1204 1.403 1_556 S
C1207 C1208 1.524 . S
C1207 C1211 1.400 . S
C1208 H1193 0.960 . S
C1208 H1194 0.960 . S
C1208 H1195 0.960 . S
C1208 C1207 1.524 . S
C1209 C1206 1.403 . S
C1209 C1210 1.392 1_554 S
C1209 C1213 1.495 . S
C1210 C1209 1.392 1_556 S
C1210 C1211 1.385 . S
C1210 C1212 1.478 . S
C1211 H1205 0.930 . S
C1211 C1207 1.400 . S
C1211 C1210 1.385 . S
C1212 C1210 1.478 . S
C1212 C1214 1.381 . S
C1212 C1218 1.383 . S
C1213 C1209 1.495 . S
C1213 H1219 0.959 . S
C1213 H1220 0.961 . S
C1213 H1221 0.960 . S
C1214 C1212 1.381 . S
C1214 C1215 1.394 1_655 S
C1214 H1222 0.930 . S
C1215 C1214 1.394 1_455 S
C1215 C1216 1.383 . S
C1215 H1223 0.929 . S
C1216 C1215 1.383 . S
C1216 C1217 1.377 1_455 S
C1217 H1201 0.930 . S
C1217 C1216 1.377 1_655 S
C1217 C1218 1.379 . S
C1218 H1202 0.931 . S
C1218 C1212 1.383 . S
C1218 C1217 1.379 . S
H1219 C1213 0.959 . S
H1220 C1213 0.961 . S
H1221 C1213 0.960 . S
H1222 C1214 0.930 . S
H1223 C1215 0.929 . S
H1224 C1232 0.929 . S
H1225 C1234 0.930 . S
H1226 C1236 0.930 . S
H1227 C1239 0.928 . S
H1228 C1242 0.930 . S
H1229 C1244 0.960 . S
H1230 C1244 0.960 . S
H1231 C1244 0.960 . S
C1232 H1224 0.929 . S
C1232 C1233 1.377 1_455 S
C1232 C1234 1.384 . S
C1233 C1232 1.377 1_655 S
C1233 C1239 1.390 . S
C1234 H1225 0.930 . S
C1234 C1232 1.384 . S
C1234 C1235 1.372 . S
C1235 C1234 1.372 . S
C1235 C1236 1.400 . S
C1235 C1240 1.490 . S
C1236 H1226 0.930 . S
C1236 C1235 1.400 . S
C1236 C1239 1.387 1_455 S
H1237 C1253 0.930 . S
H1238 C1254 0.931 . S
C1239 H1227 0.928 . S
C1239 C1233 1.390 . S
C1239 C1236 1.387 1_655 S
C1240 C1235 1.490 . S
C1240 C1242 1.395 . S
C1240 C1243 1.403 . S
H1241 C1247 0.930 . S
C1242 H1228 0.930 . S
C1242 C1240 1.395 . S
C1242 C1245 1.403 . S
C1243 C1240 1.403 . S
C1243 C1244 1.524 . S
C1243 C1247 1.400 . S
C1244 H1229 0.960 . S
C1244 H1230 0.960 . S
C1244 H1231 0.960 . S
C1244 C1243 1.524 . S
C1245 C1242 1.403 . S
C1245 C1246 1.392 . S
C1245 C1249 1.495 . S
C1246 C1245 1.392 . S
C1246 C1247 1.385 . S
C1246 C1248 1.478 . S
C1247 H1241 0.930 . S
C1247 C1243 1.400 . S
C1247 C1246 1.385 . S
C1248 C1246 1.478 . S
C1248 C1250 1.381 . S
C1248 C1254 1.383 . S
C1249 C1245 1.495 . S
C1249 H1255 0.959 . S
C1249 H1256 0.961 . S
C1249 H1257 0.960 . S
C1250 C1248 1.381 . S
C1250 C1251 1.394 . S
C1250 H1258 0.930 . S
C1251 C1250 1.394 . S
C1251 C1252 1.382 1_565 S
C1251 H1259 0.929 1_565 S
C1252 C1251 1.382 1_545 S
C1252 C1253 1.369 1_545 S
C1253 H1237 0.930 . S
C1253 C1252 1.369 1_565 S
C1253 C1254 1.379 . S
C1254 H1238 0.931 . S
C1254 C1248 1.383 . S
C1254 C1253 1.379 . S
H1255 C1249 0.959 . S
H1256 C1249 0.961 . S
H1257 C1249 0.960 . S
H1258 C1250 0.930 . S
H1259 C1251 0.929 1_545 S
H1260 C1268 0.929 . S
H1261 C1270 0.930 . S
H1262 C1272 0.930 . S
H1263 C1275 0.924 1_565 S
H1264 C1278 0.930 . S
H1265 C1280 0.960 . S
H1266 C1280 0.960 . S
H1267 C1280 0.960 . S
C1268 H1260 0.929 . S
C1268 C1269 1.377 1_545 S
C1268 C1270 1.384 . S
C1269 C1268 1.377 1_565 S
C1269 C1275 1.390 1_565 S
C1270 H1261 0.930 . S
C1270 C1268 1.384 . S
C1270 C1271 1.372 . S
C1271 C1270 1.372 . S
C1271 C1272 1.400 . S
C1271 C1276 1.490 . S
C1272 H1262 0.930 . S
C1272 C1271 1.400 . S
C1272 C1275 1.386 . S
H1273 C1289 0.930 . S
H1274 C1290 0.931 . S
C1275 H1263 0.924 1_545 S
C1275 C1269 1.390 1_545 S
C1275 C1272 1.386 . S
C1276 C1271 1.490 . S
C1276 C1278 1.395 . S
C1276 C1279 1.403 . S
H1277 C1283 0.930 . S
C1278 H1264 0.930 . S
C1278 C1276 1.395 . S
C1278 C1281 1.403 . S
C1279 C1276 1.403 . S
C1279 C1280 1.524 . S
C1279 C1283 1.400 . S
C1280 H1265 0.960 . S
C1280 H1266 0.960 . S
C1280 H1267 0.960 . S
C1280 C1279 1.524 . S
C1281 C1278 1.403 . S
C1281 C1282 1.392 . S
C1281 C1285 1.495 . S
C1282 C1281 1.392 . S
C1282 C1283 1.385 . S
C1282 C1284 1.478 . S
C1283 H1277 0.930 . S
C1283 C1279 1.400 . S
C1283 C1282 1.385 . S
C1284 C1282 1.478 . S
C1284 C1286 1.381 . S
C1284 C1290 1.383 . S
C1285 C1281 1.495 . S
C1285 H1291 0.959 . S
C1285 H1292 0.961 . S
C1285 H1293 0.960 . S
C1286 C1284 1.381 . S
C1286 C1287 1.394 . S
C1286 H1294 0.930 . S
C1287 C1286 1.394 . S
C1287 C1288 1.383 . S
C1287 H1295 0.929 . S
C1288 C1287 1.383 . S
C1288 C1289 1.377 . S
C1289 H1273 0.930 . S
C1289 C1288 1.377 . S
C1289 C1290 1.379 . S
C1290 H1274 0.931 . S
C1290 C1284 1.383 . S
C1290 C1289 1.379 . S
H1291 C1285 0.959 . S
H1292 C1285 0.961 . S
H1293 C1285 0.960 . S
H1294 C1286 0.930 . S
H1295 C1287 0.929 . S
C441 C112 1.268 . S
C460 C4 1.268 . S
C477 C40 1.273 . S
C496 C148 1.290 . S
C513 C184 1.267 . S
C532 C76 1.243 . S
C549 C220 1.277 . S
C568 C328 1.296 . S
C585 C364 1.272 . S
C604 C256 1.262 . S
C621 C292 1.275 . S
C640 C400 1.294 . S
C657 C302 1.592 . S
C676 C14 1.583 . S
C693 C50 1.600 . S
C712 C338 1.609 . S
C729 C86 1.599 . S
C748 C374 1.613 . S
C765 C122 1.600 . S
C784 C410 1.611 . S
C801 C230 1.600 . S
C820 C158 1.613 . S
C837 C266 1.600 . S
C856 C194 1.594 . S
C873 C255 0.937 . S
C892 C3 0.923 . S
C909 C39 0.946 . S
C928 C291 0.957 . S
C945 C75 0.943 . S
C964 C327 0.959 . S
C981 C111 0.937 . S
C1000 C363 0.921 . S
C1017 C399 0.946 . S
C1036 C147 0.952 . S
C1053 C183 0.938 . S
C1072 C219 0.936 . S
C1089 C362 1.484 . S
C1108 C2 1.492 . S
C1125 C398 1.484 . S
C1144 C38 1.492 . S
C1161 C218 1.481 . S
C1180 C74 1.467 . S
C1197 C110 1.479 . S
C1216 C254 1.465 . S
C1233 C146 1.483 . S
C1252 C290 1.488 . S
C1269 C182 1.482 . S
C1288 C326 1.490 . S
