# Generated by pormake.
# Topology bcu, (8)-cn, num edge types: 1
# Building blocks:
#     Node 0, Type 0, BuildingBlock: TAGTUT_clean_sbu_3, # of connection points: 8
#     Node 1, Type 0, BuildingBlock: TAGTUT_clean_sbu_3, # of connection points: 8
#     Edge 2, Type (0, 0), BuildingBlock: FUNLAD_clean_linker_1, # of connection points: 2
#     Edge 3, Type (0, 0), BuildingBlock: FUNLAD_clean_linker_1, # of connection points: 2
#     Edge 4, Type (0, 0), BuildingBlock: FUNLAD_clean_linker_1, # of connection points: 2
#     Edge 5, Type (0, 0), BuildingBlock: FUNLAD_clean_linker_1, # of connection points: 2
#     Edge 6, Type (0, 0), BuildingBlock: FUNLAD_clean_linker_1, # of connection points: 2
#     Edge 7, Type (0, 0), BuildingBlock: FUNLAD_clean_linker_1, # of connection points: 2
#     Edge 8, Type (0, 0), BuildingBlock: FUNLAD_clean_linker_1, # of connection points: 2
#     Edge 9, Type (0, 0), BuildingBlock: FUNLAD_clean_linker_1, # of connection points: 2
# Relax obj value: 0.012
# Max RMSD: 0.063
# Mean RMSD: 0.063
data_MOF--net-bcu--node1-TAGTUT_clean_sbu_3--edge1-FUNLAD_clean_linker_1
_symmetry_space_group_name_H-M    P1
_symmetry_Int_Tables_number       1
_symmetry_cell_setting            triclinic
loop_
_symmetry_equiv_pos_as_xyz
'x, y, z'
_cell_length_a     20.385781
_cell_length_b     20.470258
_cell_length_c     21.723109
_cell_angle_alpha  91.738879
_cell_angle_beta   88.940575
_cell_angle_gamma 106.21095
loop_
_atom_site_label
_atom_site_type_symbol
_atom_site_fract_x
_atom_site_fract_y
_atom_site_fract_z
_atom_type_partial_charge
C0 C 0.11351 0.08085 0.06387 0.0
C1 C 0.12452 0.83014 0.08375 0.0
C2 C 0.05041 0.80121 0.8989 0.0
Mg3 Mg 0.01008 0.14253 0.98622 0.0
Mg4 Mg 0.85466 0.0495 0.95891 0.0
O5 O 0.94771 0.0567 0.95003 0.0
Mg6 Mg 0.98624 -0.01358 0.98667 0.0
O7 O 0.03194 0.92183 0.02265 0.0
Mg8 Mg 0.12308 0.94846 0.97974 0.0
Mg9 Mg 0.98798 0.82862 0.02096 0.0
C10 C 0.85184 0.90114 0.90915 0.0
O11 O 0.90018 0.95039 0.05896 0.0
O12 O 0.95977 0.20108 0.91686 0.0
O13 O 0.89185 0.83773 0.05847 0.0
O14 O 0.93275 0.15565 0.06187 0.0
O15 O 0.85307 0.13277 0.90238 0.0
O16 O 0.83222 0.07769 0.05091 0.0
O17 O 0.0744 0.01314 0.9167 0.0
O18 O 0.08544 0.12504 0.91411 0.0
C19 C 0.10406 0.07244 0.89674 0.0
C20 C 0.90037 0.18734 0.8919 0.0
O21 O 0.9139 0.90625 0.92416 0.0
O22 O 0.15689 0.88118 0.05145 0.0
O23 O 0.82114 0.94683 0.92188 0.0
O24 O 0.0979 0.85554 0.91127 0.0
O25 O 0.0601 0.80251 0.07935 0.0
O26 O 0.99622 0.78371 0.93167 0.0
O27 O 0.05174 0.07201 0.04715 0.0
O28 O 0.14763 0.03952 0.04678 0.0
C29 C 0.87174 0.12775 0.0803 0.0
C30 C 0.86975 0.88895 0.0742 0.0
C31 C 0.60127 0.59209 0.58343 0.0
C32 C 0.70879 0.39715 0.54726 0.0
C33 C 0.60462 0.36671 0.37081 0.0
Mg34 Mg 0.47038 0.6287 0.52807 0.0
Mg35 Mg 0.33128 0.51059 0.48491 0.0
O36 O 0.42647 0.54208 0.48138 0.0
Mg37 Mg 0.49239 0.48797 0.4965 0.0
O38 O 0.5663 0.44337 0.51269 0.0
Mg39 Mg 0.64582 0.50522 0.46807 0.0
Mg40 Mg 0.5571 0.35071 0.50443 0.0
C41 C 0.37051 0.38781 0.41328 0.0
O42 O 0.42402 0.41378 0.56474 0.0
O43 O 0.40098 0.6789 0.47313 0.0
O44 O 0.45982 0.31879 0.55145 0.0
O45 O 0.38919 0.60491 0.60616 0.0
O46 O 0.31519 0.59361 0.43432 0.0
O47 O 0.29733 0.52121 0.57866 0.0
O48 O 0.56655 0.55317 0.42696 0.0
O49 O 0.54766 0.65306 0.45035 0.0
C50 C 0.57815 0.61686 0.41844 0.0
C51 C 0.34855 0.65677 0.43852 0.0
O52 O 0.43518 0.41107 0.42265 0.0
O53 O 0.7168 0.4529 0.51869 0.0
O54 O 0.32515 0.41372 0.43759 0.0
O55 O 0.63852 0.42791 0.38521 0.0
O56 O 0.65136 0.35103 0.54899 0.0
O57 O 0.56352 0.32887 0.40841 0.0
O58 O 0.5381 0.56678 0.57116 0.0
O59 O 0.64858 0.57671 0.55146 0.0
C60 C 0.32948 0.56621 0.61767 0.0
C61 C 0.41817 0.35051 0.57375 0.0
H62 H 0.13112 0.18551 0.10256 0.0
C63 C 0.14695 0.13912 0.10408 0.0
H64 H 0.21001 0.08671 0.14431 0.0
H65 H 0.45197 0.31359 0.24766 0.0
H66 H 0.50718 0.25536 0.17304 0.0
H67 H 0.4392 0.17016 0.09945 0.0
H68 H 0.31553 0.14108 0.10126 0.0
C69 C 0.19565 0.134 0.1431 0.0
C70 C 0.23544 0.19158 0.18239 0.0
C71 C 0.30799 0.21013 0.17861 0.0
C72 C 0.34742 0.26091 0.21946 0.0
C73 C 0.41961 0.27614 0.21693 0.0
C74 C 0.45203 0.24323 0.17424 0.0
C75 C 0.41371 0.19508 0.13298 0.0
C76 C 0.3426 0.17861 0.1348 0.0
H77 H 0.3088 0.28621 0.38428 0.0
C78 C 0.34599 0.33204 0.36871 0.0
H79 H 0.39014 0.39062 0.29243 0.0
H80 H 0.09768 0.16158 0.2105 0.0
H81 H 0.04325 0.22737 0.27789 0.0
H82 H 0.11181 0.3286 0.33521 0.0
H83 H 0.23543 0.36246 0.32719 0.0
C84 C 0.35519 0.34357 0.30836 0.0
C85 C 0.31433 0.29469 0.26229 0.0
C86 C 0.24198 0.27983 0.26295 0.0
C87 C 0.20236 0.22557 0.22554 0.0
C88 C 0.13038 0.20584 0.23364 0.0
C89 C 0.09835 0.24267 0.27298 0.0
C90 C 0.13692 0.29934 0.30554 0.0
C91 C 0.2079 0.31784 0.30091 0.0
H92 H 0.88032 0.20325 0.1562 0.0
C93 C 0.84466 0.1613 0.13188 0.0
H94 H 0.74086 0.11026 0.11642 0.0
H95 H 0.74808 0.30359 0.37388 0.0
H96 H 0.80972 0.23262 0.42057 0.0
H97 H 0.84337 0.14353 0.35928 0.0
H98 H 0.81587 0.12521 0.25085 0.0
C99 C 0.77728 0.14947 0.14288 0.0
C100 C 0.75089 0.19784 0.18201 0.0
C101 C 0.76636 0.20705 0.24562 0.0
C102 C 0.7458 0.25756 0.28116 0.0
C103 C 0.76238 0.26603 0.34456 0.0
C104 C 0.79763 0.2255 0.37205 0.0
C105 C 0.81666 0.17542 0.33754 0.0
C106 C 0.80106 0.16584 0.27516 0.0
H107 H 0.58405 0.28736 0.29749 0.0
C108 C 0.62108 0.33366 0.31381 0.0
H109 H 0.72449 0.39103 0.31182 0.0
H110 H 0.71085 0.1923 0.06144 0.0
H111 H 0.64579 0.26075 0.01602 0.0
H112 H 0.60893 0.34712 0.07838 0.0
H113 H 0.63716 0.36558 0.18676 0.0
C114 C 0.68538 0.34858 0.29185 0.0
C115 C 0.70821 0.29751 0.25343 0.0
C116 C 0.69105 0.28706 0.19038 0.0
C117 C 0.71233 0.23714 0.15456 0.0
C118 C 0.69552 0.22882 0.09124 0.0
C119 C 0.65832 0.268 0.06442 0.0
C120 C 0.63762 0.31667 0.0995 0.0
C121 C 0.65392 0.32655 0.1617 0.0
H122 H 0.80518 0.9191 0.1464 0.0
C123 C 0.81215 0.87667 0.11826 0.0
H124 H 0.7844 0.77004 0.1035 0.0
H125 H 0.75763 0.71491 0.38602 0.0
H126 H 0.87648 0.718 0.37011 0.0
H127 H 0.93536 0.75601 0.27183 0.0
H128 H 0.87593 0.79187 0.18937 0.0
C129 C 0.77671 0.8126 0.131 0.0
C130 C 0.7423 0.79563 0.19116 0.0
C131 C 0.77764 0.7735 0.23832 0.0
C132 C 0.74337 0.74992 0.29418 0.0
C133 C 0.7805 0.73083 0.34167 0.0
C134 C 0.84897 0.73293 0.33337 0.0
C135 C 0.88213 0.75443 0.27811 0.0
C136 C 0.84726 0.7747 0.23105 0.0
H137 H 0.64739 0.61761 0.33884 0.0
C138 C 0.62452 0.64912 0.36857 0.0
H139 H 0.61085 0.7469 0.38556 0.0
H140 H 0.66281 0.83969 0.11132 0.0
H141 H 0.54456 0.83987 0.12816 0.0
H142 H 0.4842 0.79789 0.22479 0.0
H143 H 0.54059 0.75372 0.30437 0.0
C144 C 0.63509 0.71554 0.35706 0.0
C145 C 0.67335 0.74659 0.30173 0.0
C146 C 0.63908 0.77212 0.25582 0.0
C147 C 0.67381 0.79671 0.20027 0.0
C148 C 0.63852 0.82068 0.15443 0.0
C149 C 0.57078 0.82104 0.16351 0.0
C150 C 0.53671 0.79719 0.21786 0.0
C151 C 0.56993 0.77237 0.26339 0.0
H152 H 0.13088 0.75766 0.15408 0.0
C153 C 0.16026 0.80295 0.13065 0.0
H154 H 0.25526 0.87908 0.12764 0.0
H155 H 0.22034 0.75385 0.40952 0.0
H156 H 0.15184 0.83246 0.42701 0.0
H157 H 0.12982 0.90121 0.34254 0.0
H158 H 0.17577 0.89114 0.23976 0.0
C159 C 0.22407 0.8336 0.14941 0.0
C160 C 0.25144 0.80573 0.20257 0.0
C161 C 0.22684 0.81435 0.2629 0.0
C162 C 0.2411 0.77607 0.31193 0.0
C163 C 0.2126 0.78287 0.37091 0.0
C164 C 0.17293 0.82766 0.38155 0.0
C165 C 0.1604 0.86626 0.33396 0.0
C166 C 0.18679 0.8598 0.2752 0.0
H167 H 0.35637 0.75926 0.40377 0.0
C168 C 0.33076 0.70532 0.39749 0.0
H169 H 0.26735 0.62958 0.34003 0.0
H170 H 0.31384 0.78524 0.09434 0.0
H171 H 0.38727 0.71083 0.07728 0.0
H172 H 0.41363 0.6454 0.1624 0.0
H173 H 0.36697 0.65392 0.26502 0.0
C174 C 0.28969 0.68371 0.34895 0.0
C175 C 0.28143 0.73059 0.30062 0.0
C176 C 0.31013 0.72583 0.24118 0.0
C177 C 0.29526 0.76369 0.19214 0.0
C178 C 0.32355 0.75729 0.13304 0.0
C179 C 0.36578 0.71493 0.1227 0.0
C180 C 0.38053 0.678 0.1706 0.0
C181 C 0.35326 0.68322 0.22926 0.0
H182 H 0.02134 0.70645 0.84202 0.0
C183 C 0.06236 0.75216 0.85158 0.0
H184 H 0.16753 0.80071 0.84027 0.0
H185 H 0.26077 0.53765 0.78876 0.0
H186 H 0.29128 0.56013 0.89644 0.0
H187 H 0.25376 0.64718 0.9573 0.0
H188 H 0.18473 0.71153 0.91117 0.0
C189 C 0.12484 0.75753 0.82742 0.0
C190 C 0.14119 0.7004 0.79191 0.0
C191 C 0.18242 0.6639 0.81922 0.0
C192 C 0.20555 0.61489 0.78376 0.0
C193 C 0.24423 0.57731 0.81301 0.0
C194 C 0.2615 0.58924 0.8749 0.0
C195 C 0.24028 0.63817 0.90919 0.0
C196 C 0.20096 0.675 0.88202 0.0
H197 H 0.32311 0.62531 0.7024 0.0
C198 C 0.29359 0.58448 0.67251 0.0
H199 H 0.19493 0.52537 0.64814 0.0
H200 H 0.05714 0.75615 0.72731 0.0
H201 H 0.0222 0.72997 0.62134 0.0
H202 H 0.06391 0.64684 0.55896 0.0
H203 H 0.1402 0.58912 0.6021 0.0
C204 C 0.22511 0.56409 0.67941 0.0
C205 C 0.18951 0.60404 0.72031 0.0
C206 C 0.14387 0.6368 0.69427 0.0
C207 C 0.11976 0.68504 0.73017 0.0
C208 C 0.07626 0.71859 0.70248 0.0
C209 C 0.05598 0.70424 0.64155 0.0
C210 C 0.07944 0.65741 0.60646 0.0
C211 C 0.12324 0.6244 0.63204 0.0
H212 H 0.34021 0.34159 0.64682 0.0
C213 C 0.36341 0.31289 0.61441 0.0
H214 H 0.36791 0.21585 0.58185 0.0
H215 H 0.29134 0.08698 0.84286 0.0
H216 H 0.40008 0.06457 0.81994 0.0
H217 H 0.46458 0.10711 0.72526 0.0
H218 H 0.42083 0.17203 0.65308 0.0
C219 C 0.34496 0.24446 0.6145 0.0
C220 C 0.30016 0.20712 0.66381 0.0
C221 C 0.32612 0.16757 0.70447 0.0
C222 C 0.28907 0.14293 0.75895 0.0
C223 C 0.31705 0.10607 0.80037 0.0
C224 C 0.37954 0.09306 0.78789 0.0
C225 C 0.41585 0.11703 0.7346 0.0
C226 C 0.38996 0.15421 0.69342 0.0
H227 H 0.15805 0.03657 0.81913 0.0
C228 C 0.15561 0.0806 0.84736 0.0
H229 H 0.18956 0.18727 0.86069 0.0
H230 H 0.22852 0.26495 0.5868 0.0
H231 H 0.11967 0.28755 0.60956 0.0
H232 H 0.0591 0.25211 0.70748 0.0
H233 H 0.10469 0.19051 0.78167 0.0
C234 C 0.19289 0.14335 0.83267 0.0
C235 C 0.22661 0.15805 0.77206 0.0
C236 C 0.19839 0.19329 0.7292 0.0
C237 C 0.23457 0.21642 0.67416 0.0
C238 C 0.20435 0.2491 0.63072 0.0
C239 C 0.14165 0.26173 0.64291 0.0
C240 C 0.10728 0.24133 0.69787 0.0
C241 C 0.13452 0.20668 0.74033 0.0
H242 H 0.82965 0.23263 0.84607 0.0
C243 C 0.88332 0.23416 0.84875 0.0
H244 H 0.97905 0.26486 0.80331 0.0
H245 H 0.80464 0.25049 0.55764 0.0
H246 H 0.85308 0.15556 0.54016 0.0
H247 H 0.92133 0.12298 0.62036 0.0
H248 H 0.94209 0.1854 0.71814 0.0
C249 C 0.92662 0.26769 0.80553 0.0
C250 C 0.89811 0.29587 0.75288 0.0
C251 C 0.88633 0.25872 0.69606 0.0
C252 C 0.84552 0.27636 0.65044 0.0
C253 C 0.83433 0.23834 0.59419 0.0
C254 C 0.86196 0.18394 0.58353 0.0
C255 C 0.90049 0.16569 0.62863 0.0
C256 C 0.91228 0.20214 0.68447 0.0
H257 H 0.81547 0.42781 0.58067 0.0
C258 C 0.76695 0.38863 0.58294 0.0
H259 H 0.71175 0.29686 0.62352 0.0
H260 H 0.92208 0.38486 0.85117 0.0
H261 H 0.87496 0.48093 0.86839 0.0
H262 H 0.79881 0.50781 0.79212 0.0
H263 H 0.77087 0.44055 0.69755 0.0
C264 C 0.75971 0.33679 0.6214 0.0
C265 C 0.81545 0.33015 0.66209 0.0
C266 C 0.83143 0.37055 0.71699 0.0
C267 C 0.87363 0.35383 0.762 0.0
C268 C 0.8891 0.39481 0.8163 0.0
C269 C 0.86263 0.45006 0.82658 0.0
C270 C 0.81994 0.46535 0.78351 0.0
C271 C 0.80429 0.42624 0.72932 0.0
H272 H 0.58331 0.60836 0.68153 0.0
C273 C 0.61927 0.62498 0.64379 0.0
H274 H 0.71734 0.68082 0.61581 0.0
H275 H 0.68821 0.76165 0.91613 0.0
H276 H 0.57668 0.77872 0.89591 0.0
H277 H 0.52915 0.76035 0.79099 0.0
H278 H 0.58999 0.72136 0.7074 0.0
C279 C 0.68186 0.66627 0.6543 0.0
C280 C 0.70935 0.68248 0.71745 0.0
C281 C 0.67481 0.71132 0.76358 0.0
C282 C 0.70495 0.72861 0.82219 0.0
C283 C 0.66781 0.751 0.87005 0.0
C284 C 0.60427 0.76092 0.859 0.0
C285 C 0.57738 0.75021 0.80004 0.0
C286 C 0.61239 0.7265 0.75254 0.0
H287 H 0.78101 0.85743 0.83641 0.0
C288 C 0.81477 0.84489 0.86949 0.0
H289 H 0.85011 0.76667 0.90651 0.0
H290 H 0.7802 0.61038 0.64679 0.0
H291 H 0.88969 0.59297 0.67069 0.0
H292 H 0.94728 0.63717 0.76806 0.0
H293 H 0.89539 0.69964 0.84283 0.0
C294 C 0.81661 0.78018 0.87393 0.0
C295 C 0.77355 0.7284 0.83094 0.0
C296 C 0.80485 0.69302 0.78819 0.0
C297 C 0.77205 0.66875 0.73154 0.0
C298 C 0.80369 0.63208 0.68974 0.0
C299 C 0.86643 0.62137 0.703 0.0
C300 C 0.89899 0.64649 0.75791 0.0
C301 C 0.86893 0.6823 0.80015 0.0
loop_
_geom_bond_atom_site_label_1
_geom_bond_atom_site_label_2
_geom_bond_distance
_geom_bond_site_symmetry_2
_ccdc_geom_bond_type
C0 O27 1.312 . S
C0 O28 1.208 . S
C1 O22 1.331 . S
C1 O25 1.244 . S
C2 O24 1.264 . S
C2 O26 1.273 . S
Mg3 O5 1.936 . S
Mg3 O12 2.081 . S
Mg3 O14 2.023 1_556 S
Mg3 O18 2.031 1_655 S
Mg3 O27 2.291 1_656 S
Mg4 O5 1.963 . S
Mg4 O15 1.942 . S
Mg4 O16 1.955 1_556 S
Mg4 O23 1.986 1_545 S
O5 Mg3 1.936 . S
O5 Mg4 1.963 . S
O5 Mg6 1.915 1_546 S
Mg6 O5 1.915 1_564 S
Mg6 O7 1.915 1_655 S
Mg6 O11 2.013 . S
Mg6 O17 2.114 1_664 S
Mg6 O21 2.013 1_554 S
Mg6 O27 2.114 1_665 S
O7 Mg6 1.915 1_455 S
O7 Mg8 1.936 . S
O7 Mg9 1.963 . S
Mg8 O7 1.936 . S
Mg8 O17 2.291 1_564 S
Mg8 O22 2.081 . S
Mg8 O24 2.023 1_554 S
Mg8 O28 2.031 1_565 S
Mg9 O7 1.963 . S
Mg9 O13 1.986 1_455 S
Mg9 O25 1.942 . S
Mg9 O26 1.955 1_554 S
C10 O21 1.191 . S
C10 O23 1.307 . S
O11 Mg6 2.013 . S
O11 C30 1.191 . S
O12 Mg3 2.081 . S
O12 C20 1.331 . S
O13 Mg9 1.986 1_655 S
O13 C30 1.307 . S
O14 Mg3 2.023 1_554 S
O14 C29 1.264 . S
O15 Mg4 1.942 . S
O15 C20 1.244 . S
O16 Mg4 1.955 1_554 S
O16 C29 1.273 . S
O17 Mg6 2.114 1_446 S
O17 Mg8 2.291 1_546 S
O17 C19 1.312 . S
O18 Mg3 2.031 1_455 S
O18 C19 1.208 . S
C19 O17 1.312 . S
C19 O18 1.208 . S
C20 O12 1.331 . S
C20 O15 1.244 . S
O21 Mg6 2.013 1_556 S
O21 C10 1.191 . S
O22 C1 1.331 . S
O22 Mg8 2.081 . S
O23 Mg4 1.986 1_565 S
O23 C10 1.307 . S
O24 C2 1.264 . S
O24 Mg8 2.023 1_556 S
O25 C1 1.244 . S
O25 Mg9 1.942 . S
O26 C2 1.273 . S
O26 Mg9 1.955 1_556 S
O27 C0 1.312 . S
O27 Mg3 2.291 1_454 S
O27 Mg6 2.114 1_445 S
O28 C0 1.208 . S
O28 Mg8 2.031 1_545 S
C29 O14 1.264 . S
C29 O16 1.273 . S
C30 O11 1.191 . S
C30 O13 1.307 . S
C31 O58 1.312 . S
C31 O59 1.208 . S
C32 O53 1.331 . S
C32 O56 1.244 . S
C33 O55 1.264 . S
C33 O57 1.273 . S
Mg34 O36 1.936 . S
Mg34 O43 2.081 . S
Mg34 O45 2.023 . S
Mg34 O49 2.031 . S
Mg34 O58 2.291 . S
Mg35 O36 1.963 . S
Mg35 O46 1.942 . S
Mg35 O47 1.955 . S
Mg35 O54 1.986 . S
O36 Mg34 1.936 . S
O36 Mg35 1.963 . S
O36 Mg37 1.915 . S
Mg37 O36 1.915 . S
Mg37 O38 1.915 . S
Mg37 O42 2.013 . S
Mg37 O48 2.114 . S
Mg37 O52 2.013 . S
Mg37 O58 2.114 . S
O38 Mg37 1.915 . S
O38 Mg39 1.936 . S
O38 Mg40 1.963 . S
Mg39 O38 1.936 . S
Mg39 O48 2.291 . S
Mg39 O53 2.081 . S
Mg39 O55 2.023 . S
Mg39 O59 2.031 . S
Mg40 O38 1.963 . S
Mg40 O44 1.986 . S
Mg40 O56 1.942 . S
Mg40 O57 1.955 . S
C41 O52 1.191 . S
C41 O54 1.307 . S
O42 Mg37 2.013 . S
O42 C61 1.191 . S
O43 Mg34 2.081 . S
O43 C51 1.331 . S
O44 Mg40 1.986 . S
O44 C61 1.307 . S
O45 Mg34 2.023 . S
O45 C60 1.264 . S
O46 Mg35 1.942 . S
O46 C51 1.244 . S
O47 Mg35 1.955 . S
O47 C60 1.273 . S
O48 Mg37 2.114 . S
O48 Mg39 2.291 . S
O48 C50 1.312 . S
O49 Mg34 2.031 . S
O49 C50 1.208 . S
C50 O48 1.312 . S
C50 O49 1.208 . S
C51 O43 1.331 . S
C51 O46 1.244 . S
O52 Mg37 2.013 . S
O52 C41 1.191 . S
O53 C32 1.331 . S
O53 Mg39 2.081 . S
O54 Mg35 1.986 . S
O54 C41 1.307 . S
O55 C33 1.264 . S
O55 Mg39 2.023 . S
O56 C32 1.244 . S
O56 Mg40 1.942 . S
O57 C33 1.273 . S
O57 Mg40 1.955 . S
O58 C31 1.312 . S
O58 Mg34 2.291 . S
O58 Mg37 2.114 . S
O59 C31 1.208 . S
O59 Mg39 2.031 . S
C60 O45 1.264 . S
C60 O47 1.273 . S
C61 O42 1.191 . S
C61 O44 1.307 . S
H62 C63 0.951 . S
C63 H62 0.951 . S
C63 C69 1.265 . S
H64 C69 0.950 . S
H65 C73 0.949 . S
H66 C74 0.950 . S
H67 C75 0.951 . S
H68 C76 0.951 . S
C69 C63 1.265 . S
C69 H64 0.950 . S
C69 C70 1.478 . S
C70 C69 1.478 . S
C70 C71 1.397 . S
C70 C87 1.394 . S
C71 C70 1.397 . S
C71 C72 1.438 . S
C71 C76 1.429 . S
C72 C71 1.438 . S
C72 C73 1.428 . S
C72 C85 1.394 . S
C73 H65 0.949 . S
C73 C72 1.428 . S
C73 C74 1.345 . S
C74 H66 0.950 . S
C74 C73 1.345 . S
C74 C75 1.424 . S
C75 H67 0.951 . S
C75 C74 1.424 . S
C75 C76 1.347 . S
C76 H68 0.951 . S
C76 C71 1.429 . S
C76 C75 1.347 . S
H77 C78 0.951 . S
C78 H77 0.951 . S
C78 C84 1.265 . S
H79 C84 0.950 . S
H80 C88 0.949 . S
H81 C89 0.950 . S
H82 C90 0.951 . S
H83 C91 0.951 . S
C84 C78 1.265 . S
C84 H79 0.950 . S
C84 C85 1.478 . S
C85 C72 1.394 . S
C85 C84 1.478 . S
C85 C86 1.397 . S
C86 C85 1.397 . S
C86 C87 1.438 . S
C86 C91 1.429 . S
C87 C70 1.394 . S
C87 C86 1.438 . S
C87 C88 1.428 . S
C88 H80 0.949 . S
C88 C87 1.428 . S
C88 C89 1.345 . S
C89 H81 0.950 . S
C89 C88 1.345 . S
C89 C90 1.424 . S
C90 H82 0.951 . S
C90 C89 1.424 . S
C90 C91 1.347 . S
C91 H83 0.951 . S
C91 C86 1.429 . S
C91 C90 1.347 . S
H92 C93 0.951 . S
C93 H92 0.951 . S
C93 C99 1.265 . S
H94 C99 0.950 . S
H95 C103 0.949 . S
H96 C104 0.950 . S
H97 C105 0.951 . S
H98 C106 0.951 . S
C99 C93 1.265 . S
C99 H94 0.950 . S
C99 C100 1.478 . S
C100 C99 1.478 . S
C100 C101 1.397 . S
C100 C117 1.394 . S
C101 C100 1.397 . S
C101 C102 1.438 . S
C101 C106 1.429 . S
C102 C101 1.438 . S
C102 C103 1.428 . S
C102 C115 1.394 . S
C103 H95 0.949 . S
C103 C102 1.428 . S
C103 C104 1.345 . S
C104 H96 0.950 . S
C104 C103 1.345 . S
C104 C105 1.424 . S
C105 H97 0.951 . S
C105 C104 1.424 . S
C105 C106 1.347 . S
C106 H98 0.951 . S
C106 C101 1.429 . S
C106 C105 1.347 . S
H107 C108 0.951 . S
C108 H107 0.951 . S
C108 C114 1.265 . S
H109 C114 0.950 . S
H110 C118 0.949 . S
H111 C119 0.950 . S
H112 C120 0.951 . S
H113 C121 0.951 . S
C114 C108 1.265 . S
C114 H109 0.950 . S
C114 C115 1.478 . S
C115 C102 1.394 . S
C115 C114 1.478 . S
C115 C116 1.397 . S
C116 C115 1.397 . S
C116 C117 1.438 . S
C116 C121 1.429 . S
C117 C100 1.394 . S
C117 C116 1.438 . S
C117 C118 1.428 . S
C118 H110 0.949 . S
C118 C117 1.428 . S
C118 C119 1.345 . S
C119 H111 0.950 . S
C119 C118 1.345 . S
C119 C120 1.424 . S
C120 H112 0.951 . S
C120 C119 1.424 . S
C120 C121 1.347 . S
C121 H113 0.951 . S
C121 C116 1.429 . S
C121 C120 1.347 . S
H122 C123 0.951 . S
C123 H122 0.951 . S
C123 C129 1.265 . S
H124 C129 0.950 . S
H125 C133 0.949 . S
H126 C134 0.950 . S
H127 C135 0.951 . S
H128 C136 0.951 . S
C129 C123 1.265 . S
C129 H124 0.950 . S
C129 C130 1.478 . S
C130 C129 1.478 . S
C130 C131 1.397 . S
C130 C147 1.394 . S
C131 C130 1.397 . S
C131 C132 1.438 . S
C131 C136 1.429 . S
C132 C131 1.438 . S
C132 C133 1.428 . S
C132 C145 1.394 . S
C133 H125 0.949 . S
C133 C132 1.428 . S
C133 C134 1.345 . S
C134 H126 0.950 . S
C134 C133 1.345 . S
C134 C135 1.424 . S
C135 H127 0.951 . S
C135 C134 1.424 . S
C135 C136 1.347 . S
C136 H128 0.951 . S
C136 C131 1.429 . S
C136 C135 1.347 . S
H137 C138 0.951 . S
C138 H137 0.951 . S
C138 C144 1.265 . S
H139 C144 0.950 . S
H140 C148 0.949 . S
H141 C149 0.950 . S
H142 C150 0.951 . S
H143 C151 0.951 . S
C144 C138 1.265 . S
C144 H139 0.950 . S
C144 C145 1.478 . S
C145 C132 1.394 . S
C145 C144 1.478 . S
C145 C146 1.397 . S
C146 C145 1.397 . S
C146 C147 1.438 . S
C146 C151 1.429 . S
C147 C130 1.394 . S
C147 C146 1.438 . S
C147 C148 1.428 . S
C148 H140 0.949 . S
C148 C147 1.428 . S
C148 C149 1.345 . S
C149 H141 0.950 . S
C149 C148 1.345 . S
C149 C150 1.424 . S
C150 H142 0.951 . S
C150 C149 1.424 . S
C150 C151 1.347 . S
C151 H143 0.951 . S
C151 C146 1.429 . S
C151 C150 1.347 . S
H152 C153 0.951 . S
C153 H152 0.951 . S
C153 C159 1.265 . S
H154 C159 0.950 . S
H155 C163 0.949 . S
H156 C164 0.950 . S
H157 C165 0.951 . S
H158 C166 0.951 . S
C159 C153 1.265 . S
C159 H154 0.950 . S
C159 C160 1.478 . S
C160 C159 1.478 . S
C160 C161 1.397 . S
C160 C177 1.394 . S
C161 C160 1.397 . S
C161 C162 1.438 . S
C161 C166 1.429 . S
C162 C161 1.438 . S
C162 C163 1.428 . S
C162 C175 1.394 . S
C163 H155 0.949 . S
C163 C162 1.428 . S
C163 C164 1.345 . S
C164 H156 0.950 . S
C164 C163 1.345 . S
C164 C165 1.424 . S
C165 H157 0.951 . S
C165 C164 1.424 . S
C165 C166 1.347 . S
C166 H158 0.951 . S
C166 C161 1.429 . S
C166 C165 1.347 . S
H167 C168 0.951 . S
C168 H167 0.951 . S
C168 C174 1.265 . S
H169 C174 0.950 . S
H170 C178 0.949 . S
H171 C179 0.950 . S
H172 C180 0.951 . S
H173 C181 0.951 . S
C174 C168 1.265 . S
C174 H169 0.950 . S
C174 C175 1.478 . S
C175 C162 1.394 . S
C175 C174 1.478 . S
C175 C176 1.397 . S
C176 C175 1.397 . S
C176 C177 1.438 . S
C176 C181 1.429 . S
C177 C160 1.394 . S
C177 C176 1.438 . S
C177 C178 1.428 . S
C178 H170 0.949 . S
C178 C177 1.428 . S
C178 C179 1.345 . S
C179 H171 0.950 . S
C179 C178 1.345 . S
C179 C180 1.424 . S
C180 H172 0.951 . S
C180 C179 1.424 . S
C180 C181 1.347 . S
C181 H173 0.951 . S
C181 C176 1.429 . S
C181 C180 1.347 . S
H182 C183 0.951 . S
C183 H182 0.951 . S
C183 C189 1.265 . S
H184 C189 0.950 . S
H185 C193 0.949 . S
H186 C194 0.950 . S
H187 C195 0.951 . S
H188 C196 0.951 . S
C189 C183 1.265 . S
C189 H184 0.950 . S
C189 C190 1.478 . S
C190 C189 1.478 . S
C190 C191 1.397 . S
C190 C207 1.394 . S
C191 C190 1.397 . S
C191 C192 1.438 . S
C191 C196 1.429 . S
C192 C191 1.438 . S
C192 C193 1.428 . S
C192 C205 1.394 . S
C193 H185 0.949 . S
C193 C192 1.428 . S
C193 C194 1.345 . S
C194 H186 0.950 . S
C194 C193 1.345 . S
C194 C195 1.424 . S
C195 H187 0.951 . S
C195 C194 1.424 . S
C195 C196 1.347 . S
C196 H188 0.951 . S
C196 C191 1.429 . S
C196 C195 1.347 . S
H197 C198 0.951 . S
C198 H197 0.951 . S
C198 C204 1.265 . S
H199 C204 0.950 . S
H200 C208 0.949 . S
H201 C209 0.950 . S
H202 C210 0.951 . S
H203 C211 0.951 . S
C204 C198 1.265 . S
C204 H199 0.950 . S
C204 C205 1.478 . S
C205 C192 1.394 . S
C205 C204 1.478 . S
C205 C206 1.397 . S
C206 C205 1.397 . S
C206 C207 1.438 . S
C206 C211 1.429 . S
C207 C190 1.394 . S
C207 C206 1.438 . S
C207 C208 1.428 . S
C208 H200 0.949 . S
C208 C207 1.428 . S
C208 C209 1.345 . S
C209 H201 0.950 . S
C209 C208 1.345 . S
C209 C210 1.424 . S
C210 H202 0.951 . S
C210 C209 1.424 . S
C210 C211 1.347 . S
C211 H203 0.951 . S
C211 C206 1.429 . S
C211 C210 1.347 . S
H212 C213 0.951 . S
C213 H212 0.951 . S
C213 C219 1.265 . S
H214 C219 0.950 . S
H215 C223 0.949 . S
H216 C224 0.950 . S
H217 C225 0.951 . S
H218 C226 0.951 . S
C219 C213 1.265 . S
C219 H214 0.950 . S
C219 C220 1.478 . S
C220 C219 1.478 . S
C220 C221 1.397 . S
C220 C237 1.394 . S
C221 C220 1.397 . S
C221 C222 1.438 . S
C221 C226 1.429 . S
C222 C221 1.438 . S
C222 C223 1.428 . S
C222 C235 1.394 . S
C223 H215 0.949 . S
C223 C222 1.428 . S
C223 C224 1.345 . S
C224 H216 0.950 . S
C224 C223 1.345 . S
C224 C225 1.424 . S
C225 H217 0.951 . S
C225 C224 1.424 . S
C225 C226 1.347 . S
C226 H218 0.951 . S
C226 C221 1.429 . S
C226 C225 1.347 . S
H227 C228 0.951 . S
C228 H227 0.951 . S
C228 C234 1.265 . S
H229 C234 0.950 . S
H230 C238 0.949 . S
H231 C239 0.950 . S
H232 C240 0.951 . S
H233 C241 0.951 . S
C234 C228 1.265 . S
C234 H229 0.950 . S
C234 C235 1.478 . S
C235 C222 1.394 . S
C235 C234 1.478 . S
C235 C236 1.397 . S
C236 C235 1.397 . S
C236 C237 1.438 . S
C236 C241 1.429 . S
C237 C220 1.394 . S
C237 C236 1.438 . S
C237 C238 1.428 . S
C238 H230 0.949 . S
C238 C237 1.428 . S
C238 C239 1.345 . S
C239 H231 0.950 . S
C239 C238 1.345 . S
C239 C240 1.424 . S
C240 H232 0.951 . S
C240 C239 1.424 . S
C240 C241 1.347 . S
C241 H233 0.951 . S
C241 C236 1.429 . S
C241 C240 1.347 . S
H242 C243 0.951 . S
C243 H242 0.951 . S
C243 C249 1.265 . S
H244 C249 0.950 . S
H245 C253 0.949 . S
H246 C254 0.950 . S
H247 C255 0.951 . S
H248 C256 0.951 . S
C249 C243 1.265 . S
C249 H244 0.950 . S
C249 C250 1.478 . S
C250 C249 1.478 . S
C250 C251 1.397 . S
C250 C267 1.394 . S
C251 C250 1.397 . S
C251 C252 1.438 . S
C251 C256 1.429 . S
C252 C251 1.438 . S
C252 C253 1.428 . S
C252 C265 1.394 . S
C253 H245 0.949 . S
C253 C252 1.428 . S
C253 C254 1.345 . S
C254 H246 0.950 . S
C254 C253 1.345 . S
C254 C255 1.424 . S
C255 H247 0.951 . S
C255 C254 1.424 . S
C255 C256 1.347 . S
C256 H248 0.951 . S
C256 C251 1.429 . S
C256 C255 1.347 . S
H257 C258 0.951 . S
C258 H257 0.951 . S
C258 C264 1.265 . S
H259 C264 0.950 . S
H260 C268 0.949 . S
H261 C269 0.950 . S
H262 C270 0.951 . S
H263 C271 0.951 . S
C264 C258 1.265 . S
C264 H259 0.950 . S
C264 C265 1.478 . S
C265 C252 1.394 . S
C265 C264 1.478 . S
C265 C266 1.397 . S
C266 C265 1.397 . S
C266 C267 1.438 . S
C266 C271 1.429 . S
C267 C250 1.394 . S
C267 C266 1.438 . S
C267 C268 1.428 . S
C268 H260 0.949 . S
C268 C267 1.428 . S
C268 C269 1.345 . S
C269 H261 0.950 . S
C269 C268 1.345 . S
C269 C270 1.424 . S
C270 H262 0.951 . S
C270 C269 1.424 . S
C270 C271 1.347 . S
C271 H263 0.951 . S
C271 C266 1.429 . S
C271 C270 1.347 . S
H272 C273 0.951 . S
C273 H272 0.951 . S
C273 C279 1.265 . S
H274 C279 0.950 . S
H275 C283 0.949 . S
H276 C284 0.950 . S
H277 C285 0.951 . S
H278 C286 0.951 . S
C279 C273 1.265 . S
C279 H274 0.950 . S
C279 C280 1.478 . S
C280 C279 1.478 . S
C280 C281 1.397 . S
C280 C297 1.394 . S
C281 C280 1.397 . S
C281 C282 1.438 . S
C281 C286 1.429 . S
C282 C281 1.438 . S
C282 C283 1.428 . S
C282 C295 1.394 . S
C283 H275 0.949 . S
C283 C282 1.428 . S
C283 C284 1.345 . S
C284 H276 0.950 . S
C284 C283 1.345 . S
C284 C285 1.424 . S
C285 H277 0.951 . S
C285 C284 1.424 . S
C285 C286 1.347 . S
C286 H278 0.951 . S
C286 C281 1.429 . S
C286 C285 1.347 . S
H287 C288 0.951 . S
C288 H287 0.951 . S
C288 C294 1.265 . S
H289 C294 0.950 . S
H290 C298 0.949 . S
H291 C299 0.950 . S
H292 C300 0.951 . S
H293 C301 0.951 . S
C294 C288 1.265 . S
C294 H289 0.950 . S
C294 C295 1.478 . S
C295 C282 1.394 . S
C295 C294 1.478 . S
C295 C296 1.397 . S
C296 C295 1.397 . S
C296 C297 1.438 . S
C296 C301 1.429 . S
C297 C280 1.394 . S
C297 C296 1.438 . S
C297 C298 1.428 . S
C298 H290 0.949 . S
C298 C297 1.428 . S
C298 C299 1.345 . S
C299 H291 0.950 . S
C299 C298 1.345 . S
C299 C300 1.424 . S
C300 H292 0.951 . S
C300 C299 1.424 . S
C300 C301 1.347 . S
C301 H293 0.951 . S
C301 C296 1.429 . S
C301 C300 1.347 . S
C63 C0 1.195 . S
C78 C41 1.223 . S
C93 C29 1.736 . S
C108 C33 1.737 . S
C123 C30 1.246 . S
C138 C50 1.242 . S
C153 C1 1.576 . S
C168 C51 1.594 . S
C183 C2 1.730 . S
C198 C60 1.724 . S
C213 C61 1.228 . S
C228 C19 1.222 . S
C243 C20 1.539 . S
C258 C32 1.560 . S
C273 C31 1.180 . S
C288 C10 1.199 . S
