# Generated by pormake.
# Topology uno, (4)-cn, num edge types: 1
# Building blocks:
#     Node 0, Type 0, BuildingBlock: NAWXER_clean_sbu_0, # of connection points: 4
#     Node 1, Type 0, BuildingBlock: NAWXER_clean_sbu_0, # of connection points: 4
#     Node 2, Type 0, BuildingBlock: NAWXER_clean_sbu_0, # of connection points: 4
#     Node 3, Type 0, BuildingBlock: NAWXER_clean_sbu_0, # of connection points: 4
#     Node 4, Type 0, BuildingBlock: NAWXER_clean_sbu_0, # of connection points: 4
#     Node 5, Type 0, BuildingBlock: NAWXER_clean_sbu_0, # of connection points: 4
#     Node 6, Type 0, BuildingBlock: NAWXER_clean_sbu_0, # of connection points: 4
#     Node 7, Type 0, BuildingBlock: NAWXER_clean_sbu_0, # of connection points: 4
#     Node 8, Type 0, BuildingBlock: NAWXER_clean_sbu_0, # of connection points: 4
#     Node 9, Type 0, BuildingBlock: NAWXER_clean_sbu_0, # of connection points: 4
#     Node 10, Type 0, BuildingBlock: NAWXER_clean_sbu_0, # of connection points: 4
#     Node 11, Type 0, BuildingBlock: NAWXER_clean_sbu_0, # of connection points: 4
#     Node 12, Type 0, BuildingBlock: NAWXER_clean_sbu_0, # of connection points: 4
#     Node 13, Type 0, BuildingBlock: NAWXER_clean_sbu_0, # of connection points: 4
#     Node 14, Type 0, BuildingBlock: NAWXER_clean_sbu_0, # of connection points: 4
#     Node 15, Type 0, BuildingBlock: NAWXER_clean_sbu_0, # of connection points: 4
#     Node 16, Type 0, BuildingBlock: NAWXER_clean_sbu_0, # of connection points: 4
#     Node 17, Type 0, BuildingBlock: NAWXER_clean_sbu_0, # of connection points: 4
#     Node 18, Type 0, BuildingBlock: NAWXER_clean_sbu_0, # of connection points: 4
#     Node 19, Type 0, BuildingBlock: NAWXER_clean_sbu_0, # of connection points: 4
#     Node 20, Type 0, BuildingBlock: NAWXER_clean_sbu_0, # of connection points: 4
#     Node 21, Type 0, BuildingBlock: NAWXER_clean_sbu_0, # of connection points: 4
#     Node 22, Type 0, BuildingBlock: NAWXER_clean_sbu_0, # of connection points: 4
#     Node 23, Type 0, BuildingBlock: NAWXER_clean_sbu_0, # of connection points: 4
#     Edge 24, Type (0, 0), BuildingBlock: KIFKEQ_clean_linker_1, # of connection points: 2
#     Edge 25, Type (0, 0), BuildingBlock: KIFKEQ_clean_linker_1, # of connection points: 2
#     Edge 26, Type (0, 0), BuildingBlock: KIFKEQ_clean_linker_1, # of connection points: 2
#     Edge 27, Type (0, 0), BuildingBlock: KIFKEQ_clean_linker_1, # of connection points: 2
#     Edge 28, Type (0, 0), BuildingBlock: KIFKEQ_clean_linker_1, # of connection points: 2
#     Edge 29, Type (0, 0), BuildingBlock: KIFKEQ_clean_linker_1, # of connection points: 2
#     Edge 30, Type (0, 0), BuildingBlock: KIFKEQ_clean_linker_1, # of connection points: 2
#     Edge 31, Type (0, 0), BuildingBlock: KIFKEQ_clean_linker_1, # of connection points: 2
#     Edge 32, Type (0, 0), BuildingBlock: KIFKEQ_clean_linker_1, # of connection points: 2
#     Edge 33, Type (0, 0), BuildingBlock: KIFKEQ_clean_linker_1, # of connection points: 2
#     Edge 34, Type (0, 0), BuildingBlock: KIFKEQ_clean_linker_1, # of connection points: 2
#     Edge 35, Type (0, 0), BuildingBlock: KIFKEQ_clean_linker_1, # of connection points: 2
#     Edge 36, Type (0, 0), BuildingBlock: KIFKEQ_clean_linker_1, # of connection points: 2
#     Edge 37, Type (0, 0), BuildingBlock: KIFKEQ_clean_linker_1, # of connection points: 2
#     Edge 38, Type (0, 0), BuildingBlock: KIFKEQ_clean_linker_1, # of connection points: 2
#     Edge 39, Type (0, 0), BuildingBlock: KIFKEQ_clean_linker_1, # of connection points: 2
#     Edge 40, Type (0, 0), BuildingBlock: KIFKEQ_clean_linker_1, # of connection points: 2
#     Edge 41, Type (0, 0), BuildingBlock: KIFKEQ_clean_linker_1, # of connection points: 2
#     Edge 42, Type (0, 0), BuildingBlock: KIFKEQ_clean_linker_1, # of connection points: 2
#     Edge 43, Type (0, 0), BuildingBlock: KIFKEQ_clean_linker_1, # of connection points: 2
#     Edge 44, Type (0, 0), BuildingBlock: KIFKEQ_clean_linker_1, # of connection points: 2
#     Edge 45, Type (0, 0), BuildingBlock: KIFKEQ_clean_linker_1, # of connection points: 2
#     Edge 46, Type (0, 0), BuildingBlock: KIFKEQ_clean_linker_1, # of connection points: 2
#     Edge 47, Type (0, 0), BuildingBlock: KIFKEQ_clean_linker_1, # of connection points: 2
#     Edge 48, Type (0, 0), BuildingBlock: KIFKEQ_clean_linker_1, # of connection points: 2
#     Edge 49, Type (0, 0), BuildingBlock: KIFKEQ_clean_linker_1, # of connection points: 2
#     Edge 50, Type (0, 0), BuildingBlock: KIFKEQ_clean_linker_1, # of connection points: 2
#     Edge 51, Type (0, 0), BuildingBlock: KIFKEQ_clean_linker_1, # of connection points: 2
#     Edge 52, Type (0, 0), BuildingBlock: KIFKEQ_clean_linker_1, # of connection points: 2
#     Edge 53, Type (0, 0), BuildingBlock: KIFKEQ_clean_linker_1, # of connection points: 2
#     Edge 54, Type (0, 0), BuildingBlock: KIFKEQ_clean_linker_1, # of connection points: 2
#     Edge 55, Type (0, 0), BuildingBlock: KIFKEQ_clean_linker_1, # of connection points: 2
#     Edge 56, Type (0, 0), BuildingBlock: KIFKEQ_clean_linker_1, # of connection points: 2
#     Edge 57, Type (0, 0), BuildingBlock: KIFKEQ_clean_linker_1, # of connection points: 2
#     Edge 58, Type (0, 0), BuildingBlock: KIFKEQ_clean_linker_1, # of connection points: 2
#     Edge 59, Type (0, 0), BuildingBlock: KIFKEQ_clean_linker_1, # of connection points: 2
#     Edge 60, Type (0, 0), BuildingBlock: KIFKEQ_clean_linker_1, # of connection points: 2
#     Edge 61, Type (0, 0), BuildingBlock: KIFKEQ_clean_linker_1, # of connection points: 2
#     Edge 62, Type (0, 0), BuildingBlock: KIFKEQ_clean_linker_1, # of connection points: 2
#     Edge 63, Type (0, 0), BuildingBlock: KIFKEQ_clean_linker_1, # of connection points: 2
#     Edge 64, Type (0, 0), BuildingBlock: KIFKEQ_clean_linker_1, # of connection points: 2
#     Edge 65, Type (0, 0), BuildingBlock: KIFKEQ_clean_linker_1, # of connection points: 2
#     Edge 66, Type (0, 0), BuildingBlock: KIFKEQ_clean_linker_1, # of connection points: 2
#     Edge 67, Type (0, 0), BuildingBlock: KIFKEQ_clean_linker_1, # of connection points: 2
#     Edge 68, Type (0, 0), BuildingBlock: KIFKEQ_clean_linker_1, # of connection points: 2
#     Edge 69, Type (0, 0), BuildingBlock: KIFKEQ_clean_linker_1, # of connection points: 2
#     Edge 70, Type (0, 0), BuildingBlock: KIFKEQ_clean_linker_1, # of connection points: 2
#     Edge 71, Type (0, 0), BuildingBlock: KIFKEQ_clean_linker_1, # of connection points: 2
# Relax obj value: 0.465
# Max RMSD: 0.255
# Mean RMSD: 0.237
data_MOF--net-uno--node1-NAWXER_clean_sbu_0--edge1-KIFKEQ_clean_linker_1
_symmetry_space_group_name_H-M    P1
_symmetry_Int_Tables_number       1
_symmetry_cell_setting            triclinic
loop_
_symmetry_equiv_pos_as_xyz
'x, y, z'
_cell_length_a     51.308876
_cell_length_b     51.298416
_cell_length_c     51.340126
_cell_angle_alpha  89.75824
_cell_angle_beta   89.740436
_cell_angle_gamma 89.705159
loop_
_atom_site_label
_atom_site_type_symbol
_atom_site_fract_x
_atom_site_fract_y
_atom_site_fract_z
_atom_type_partial_charge
C0 C 0.06481 0.27614 0.28707 0.0
C1 C 0.13077 0.32147 0.23737 0.0
O2 O 0.06526 0.2805 0.26271 0.0
Zn3 Zn 0.09463 0.30359 0.26226 0.0
O4 O 0.07959 0.28952 0.30204 0.0
Zn5 Zn 0.11069 0.31785 0.29682 0.0
O6 O 0.09924 0.35191 0.30889 0.0
O7 O 0.08035 0.34121 0.27212 0.0
O8 O 0.13321 0.32584 0.26184 0.0
O9 O 0.1107 0.30972 0.22918 0.0
O10 O 0.1239 0.27934 0.2813 0.0
O11 O 0.13693 0.29975 0.31682 0.0
C12 C 0.08409 0.35775 0.2903 0.0
C13 C 0.13798 0.27997 0.30191 0.0
C14 C 0.97087 0.79052 0.56827 0.0
C15 C 0.95481 0.87001 0.51652 0.0
O16 O 0.96952 0.78729 0.5436 0.0
Zn17 Zn 0.96248 0.80867 0.50901 0.0
O18 O 0.96517 0.81269 0.57799 0.0
Zn19 Zn 0.95821 0.83112 0.54518 0.0
O20 O 0.92262 0.81538 0.53102 0.0
O21 O 0.93079 0.79415 0.49449 0.0
O22 O 0.95458 0.86949 0.54138 0.0
O23 O 0.95669 0.84873 0.50387 0.0
O24 O 0.99741 0.80677 0.49241 0.0
O25 O 0.99597 0.82843 0.52955 0.0
C26 C 0.91457 0.80196 0.51165 0.0
C27 C 0.00892 0.81948 0.5103 0.0
C28 C 0.46825 0.72639 0.76222 0.0
C29 C 0.39565 0.68396 0.72125 0.0
O30 O 0.46457 0.7221 0.73821 0.0
Zn31 Zn 0.43486 0.69981 0.74156 0.0
O32 O 0.45538 0.71305 0.77913 0.0
Zn33 Zn 0.42377 0.68459 0.77749 0.0
O34 O 0.43636 0.65013 0.78712 0.0
O35 O 0.44881 0.66081 0.74752 0.0
O36 O 0.39667 0.67777 0.74552 0.0
O37 O 0.41434 0.6965 0.71095 0.0
O38 O 0.40852 0.7236 0.76536 0.0
O39 O 0.40017 0.70145 0.8015 0.0
C40 C 0.44759 0.64396 0.76598 0.0
C41 C 0.39715 0.72189 0.78765 0.0
C42 C 0.59832 0.17488 0.96195 0.0
C43 C 0.52474 0.12321 0.98919 0.0
O44 O 0.5951 0.15771 0.97929 0.0
Zn45 Zn 0.55852 0.15164 0.97594 0.0
O46 O 0.57828 0.18343 0.94968 0.0
Zn47 Zn 0.53698 0.17422 0.95184 0.0
O48 O 0.51981 0.20507 0.96345 0.0
O49 O 0.53606 0.18236 0.99591 0.0
O50 O 0.5167 0.14074 0.97285 0.0
O51 O 0.54841 0.123 0.99615 0.0
O52 O 0.55129 0.13583 0.9363 0.0
O53 O 0.52925 0.16724 0.91664 0.0
C54 C 0.52208 0.20155 0.9877 0.0
C55 C 0.53936 0.1447 0.91603 0.0
C56 C 0.00455 0.01036 0.38932 0.0
C57 C 0.01794 0.094 0.34295 0.0
O58 O 0.98528 0.02608 0.38808 0.0
Zn59 Zn 0.97378 0.06281 0.37431 0.0
O60 O 0.02611 0.01628 0.37829 0.0
Zn61 Zn 0.01374 0.05042 0.36398 0.0
O62 O 0.00965 0.06931 0.39967 0.0
O63 O 0.9686 0.07902 0.40879 0.0
O64 O 0.03478 0.07571 0.34462 0.0
O65 O 0.99523 0.09086 0.35288 0.0
O66 O 0.94584 0.05175 0.35119 0.0
O67 O 0.98456 0.03824 0.33765 0.0
C68 C 0.9926 0.07875 0.41517 0.0
C69 C 0.95978 0.03921 0.33483 0.0
C70 C 0.20805 0.70346 0.56102 0.0
C71 C 0.18185 0.75422 0.63512 0.0
O72 O 0.20366 0.72776 0.56217 0.0
Zn73 Zn 0.18984 0.72859 0.59662 0.0
O74 O 0.19917 0.6885 0.57913 0.0
Zn75 Zn 0.17896 0.69453 0.61626 0.0
O76 O 0.14267 0.68369 0.61423 0.0
O77 O 0.14945 0.72057 0.59337 0.0
O78 O 0.17715 0.72995 0.63892 0.0
O79 O 0.18939 0.76196 0.61282 0.0
O80 O 0.22019 0.70871 0.61914 0.0
O81 O 0.20185 0.67477 0.6387 0.0
C82 C 0.1338 0.70294 0.60143 0.0
C83 C 0.22189 0.6886 0.63406 0.0
C84 C 0.49242 0.91521 0.80092 0.0
C85 C 0.47948 0.00995 0.80737 0.0
O86 O 0.50486 0.92483 0.8202 0.0
Zn87 Zn 0.50972 0.96271 0.83656 0.0
O88 O 0.47891 0.9303 0.78664 0.0
Zn89 Zn 0.48481 0.96348 0.80356 0.0
O90 O 0.52443 0.97419 0.79561 0.0
O91 O 0.5461 0.97205 0.83253 0.0
O92 O 0.46923 0.99583 0.78979 0.0
O93 O 0.49393 0.9998 0.82495 0.0
O94 O 0.49486 0.96128 0.87118 0.0
O95 O 0.4648 0.96286 0.84062 0.0
C96 C 0.54523 0.97854 0.80859 0.0
C97 C 0.47099 0.96324 0.86481 0.0
C98 C 0.35681 0.26778 0.06598 0.0
C99 C 0.28251 0.2921 0.12115 0.0
O100 O 0.35252 0.28935 0.07725 0.0
Zn101 Zn 0.31828 0.28155 0.0923 0.0
O102 O 0.33881 0.25061 0.06577 0.0
Zn103 Zn 0.30056 0.24655 0.08108 0.0
O104 O 0.27624 0.24618 0.0525 0.0
O105 O 0.2884 0.28589 0.06278 0.0
O106 O 0.27966 0.27036 0.10922 0.0
O107 O 0.30323 0.30533 0.1177 0.0
O108 O 0.32506 0.24829 0.11792 0.0
O109 O 0.30425 0.21504 0.10054 0.0
C110 C 0.27323 0.27065 0.0502 0.0
C111 C 0.31829 0.22421 0.11863 0.0
C112 C 0.30599 0.12234 0.28389 0.0
C113 C 0.29446 0.07343 0.36503 0.0
O114 O 0.32129 0.12247 0.30339 0.0
Zn115 Zn 0.30168 0.097 0.32342 0.0
O116 O 0.28554 0.10803 0.28442 0.0
Zn117 Zn 0.26668 0.08033 0.31026 0.0
O118 O 0.23372 0.0973 0.31534 0.0
O119 O 0.2669 0.1198 0.33045 0.0
O120 O 0.27636 0.06874 0.34868 0.0
O121 O 0.3134 0.0878 0.35833 0.0
O122 O 0.30652 0.06427 0.29705 0.0
O123 O 0.2671 0.04951 0.28913 0.0
C124 C 0.24238 0.1177 0.32621 0.0
C125 C 0.29145 0.04877 0.28463 0.0
C126 C 0.14577 0.94918 0.5415 0.0
C127 C 0.21152 0.01248 0.52541 0.0
O128 O 0.16782 0.94811 0.5305 0.0
Zn129 Zn 0.17854 0.98134 0.53943 0.0
O130 O 0.1395 0.96963 0.55488 0.0
Zn131 Zn 0.16035 0.00808 0.56131 0.0
O132 O 0.13436 0.03205 0.55191 0.0
O133 O 0.14712 0.00588 0.52017 0.0
O134 O 0.1938 0.0238 0.53913 0.0
O135 O 0.21038 0.98816 0.52243 0.0
O136 O 0.18773 0.97727 0.5808 0.0
O137 O 0.16814 0.01142 0.59739 0.0
C138 C 0.1322 0.02444 0.52861 0.0
C139 C 0.1823 0.99153 0.60059 0.0
C140 C 0.21804 0.86817 0.78808 0.0
C141 C 0.23233 0.91986 0.86558 0.0
O142 O 0.20421 0.86906 0.80871 0.0
Zn143 Zn 0.22457 0.8953 0.82512 0.0
O144 O 0.23839 0.88257 0.78595 0.0
Zn145 Zn 0.25808 0.912 0.8097 0.0
O146 O 0.29173 0.89645 0.81311 0.0
O147 O 0.26034 0.87292 0.83077 0.0
O148 O 0.25015 0.92435 0.84863 0.0
O149 O 0.21336 0.90544 0.8596 0.0
O150 O 0.21758 0.9265 0.79701 0.0
O151 O 0.25635 0.94222 0.78755 0.0
C152 C 0.2845 0.87584 0.8248 0.0
C153 C 0.23197 0.94202 0.78359 0.0
C154 C 0.3958 0.99806 0.05734 0.0
C155 C 0.30899 0.96855 0.03305 0.0
O156 O 0.37863 0.01614 0.0564 0.0
Zn157 Zn 0.33846 0.02115 0.04899 0.0
O158 O 0.38899 0.9743 0.05541 0.0
Zn159 Zn 0.35174 0.98111 0.0506 0.0
O160 O 0.35579 1.00049 0.0142 0.0
O161 O 0.3428 0.04165 0.01667 0.0
O162 O 0.32772 0.95389 0.04034 0.0
O163 O 0.31068 0.99325 0.03624 0.0
O164 O 0.32518 0.03606 0.0811 0.0
O165 O 0.33803 0.9954 0.08715 0.0
C166 C 0.35234 0.02276 0.00355 0.0
C167 C 0.32855 0.01668 0.09626 0.0
C168 C 0.77959 0.23225 0.91015 0.0
C169 C 0.8366 0.28199 0.85502 0.0
O170 O 0.7829 0.25652 0.90775 0.0
Zn171 Zn 0.81177 0.25619 0.88458 0.0
O172 O 0.79639 0.21664 0.89983 0.0
Zn173 Zn 0.83174 0.22253 0.8761 0.0
O174 O 0.8625 0.21343 0.89584 0.0
O175 O 0.84653 0.25154 0.90714 0.0
O176 O 0.84367 0.2579 0.8543 0.0
O177 O 0.81847 0.28917 0.87025 0.0
O178 O 0.79871 0.23427 0.85005 0.0
O179 O 0.82474 0.19981 0.84784 0.0
C180 C 0.86449 0.23422 0.90887 0.0
C181 C 0.80592 0.21307 0.83864 0.0
C182 C 0.03765 0.5359 0.14367 0.0
C183 C 0.01946 0.60929 0.20045 0.0
O184 O 0.05165 0.55572 0.14818 0.0
Zn185 Zn 0.03011 0.56969 0.17542 0.0
O186 O 0.01711 0.53185 0.1576 0.0
Zn187 Zn 0.9968 0.55254 0.18942 0.0
O188 O 0.96336 0.55493 0.17501 0.0
O189 O 0.99353 0.57663 0.15311 0.0
O190 O 0.00167 0.59196 0.20261 0.0
O191 O 0.04012 0.60381 0.18799 0.0
O192 O 0.03721 0.54147 0.20661 0.0
O193 O 0.99785 0.53031 0.21904 0.0
C194 C 0.96973 0.56904 0.15569 0.0
C195 C 0.02223 0.52803 0.22157 0.0
C196 C 0.72455 0.77713 0.47681 0.0
C197 C 0.68324 0.73238 0.40605 0.0
O198 O 0.71851 0.75323 0.47564 0.0
Zn199 Zn 0.69811 0.75495 0.44418 0.0
O200 O 0.713 0.79345 0.4617 0.0
Zn201 Zn 0.68585 0.79085 0.42955 0.0
O202 O 0.65182 0.80396 0.44009 0.0
O203 O 0.65852 0.76388 0.45379 0.0
O204 O 0.67831 0.75697 0.4048 0.0
O205 O 0.69433 0.72298 0.4261 0.0
O206 O 0.72441 0.77476 0.41714 0.0
O207 O 0.70526 0.81158 0.40493 0.0
C208 C 0.6432 0.78346 0.45086 0.0
C209 C 0.72473 0.7961 0.40396 0.0
C210 C 0.88771 0.8201 0.29974 0.0
C211 C 0.96187 0.78775 0.25142 0.0
O212 O 0.90788 0.80838 0.3082 0.0
Zn213 Zn 0.92658 0.80855 0.2761 0.0
O214 O 0.88673 0.82743 0.27579 0.0
Zn215 Zn 0.91215 0.82489 0.24164 0.0
O216 O 0.88844 0.80712 0.21867 0.0
O217 O 0.90091 0.7841 0.25301 0.0
O218 O 0.9462 0.80021 0.23636 0.0
O219 O 0.95923 0.78997 0.27586 0.0
O220 O 0.93419 0.84912 0.27265 0.0
O221 O 0.92077 0.8612 0.23386 0.0
C222 C 0.88775 0.78602 0.23184 0.0
C223 C 0.9306 0.8671 0.25567 0.0
C224 C 0.67068 0.17232 0.72034 0.0
C225 C 0.59299 0.22128 0.69614 0.0
O226 O 0.65683 0.17965 0.73985 0.0
Zn227 Zn 0.62047 0.19938 0.74748 0.0
O228 O 0.66229 0.17551 0.69722 0.0
Zn229 Zn 0.62946 0.19144 0.70755 0.0
O230 O 0.64597 0.22576 0.72367 0.0
O231 O 0.63456 0.23021 0.765 0.0
O232 O 0.60709 0.2072 0.68137 0.0
O233 O 0.59523 0.21905 0.72088 0.0
O234 O 0.60079 0.17345 0.76667 0.0
O235 O 0.61024 0.15992 0.72706 0.0
C236 C 0.64702 0.2384 0.74504 0.0
C237 C 0.6008 0.15539 0.74981 0.0
C238 C 0.51503 0.49084 0.62527 0.0
C239 C 0.53899 0.40808 0.6677 0.0
O240 O 0.49609 0.47678 0.63326 0.0
Zn241 Zn 0.48808 0.44159 0.6536 0.0
O242 O 0.53841 0.4842 0.63065 0.0
Zn243 Zn 0.52896 0.45191 0.64944 0.0
O244 O 0.51224 0.43184 0.61786 0.0
O245 O 0.47028 0.42433 0.62444 0.0
O246 O 0.55447 0.42619 0.66084 0.0
O247 O 0.51431 0.41181 0.66653 0.0
O248 O 0.46976 0.45544 0.68416 0.0
O249 O 0.51068 0.46816 0.68275 0.0
C250 C 0.49055 0.42272 0.61003 0.0
C251 C 0.48815 0.469 0.69357 0.0
C252 C 0.02339 0.32024 0.97749 0.0
C253 C 0.06226 0.40055 0.01119 0.0
O254 O 0.02652 0.32066 0.00222 0.0
Zn255 Zn 0.04238 0.34499 0.03149 0.0
O256 O 0.03308 0.33842 0.96355 0.0
Zn257 Zn 0.0466 0.35967 0.99195 0.0
O258 O 0.07991 0.33891 0.00583 0.0
O259 O 0.07177 0.32575 0.04601 0.0
O260 O 0.05891 0.3956 0.98713 0.0
O261 O 0.05724 0.38318 0.02837 0.0
O262 O 0.01029 0.35298 0.05127 0.0
O263 O 0.01093 0.36863 0.01101 0.0
C264 C 0.08726 0.32714 0.02663 0.0
C265 C 0.99925 0.36548 0.03279 0.0
C266 C 0.38901 0.68806 0.49307 0.0
C267 C 0.47118 0.65916 0.45717 0.0
O268 O 0.39527 0.6806 0.47048 0.0
Zn269 Zn 0.43232 0.67692 0.47468 0.0
O270 O 0.4071 0.69279 0.5095 0.0
Zn271 Zn 0.44903 0.6917 0.50744 0.0
O272 O 0.46153 0.72679 0.50806 0.0
O273 O 0.45171 0.71422 0.46852 0.0
O274 O 0.4749 0.67131 0.47876 0.0
O275 O 0.44844 0.65761 0.44761 0.0
O276 O 0.44014 0.64879 0.50666 0.0
O277 O 0.45782 0.6724 0.53775 0.0
C278 C 0.46243 0.73078 0.48375 0.0
C279 C 0.45098 0.65031 0.5292 0.0
C280 C 0.61463 0.53281 0.44274 0.0
C281 C 0.67895 0.47783 0.48206 0.0
O282 O 0.63286 0.53746 0.4586 0.0
Zn283 Zn 0.64727 0.50418 0.45855 0.0
O284 O 0.61237 0.50975 0.43307 0.0
Zn285 Zn 0.63477 0.4725 0.43833 0.0
O286 O 0.60732 0.44972 0.44888 0.0
O287 O 0.61499 0.48176 0.47641 0.0
O288 O 0.66451 0.46339 0.46775 0.0
O289 O 0.6763 0.50225 0.4809 0.0
O290 O 0.66211 0.50286 0.41943 0.0
O291 O 0.64938 0.46518 0.40412 0.0
C292 C 0.60174 0.46155 0.46987 0.0
C293 C 0.66126 0.4865 0.40069 0.0
C294 C 0.80969 0.41736 0.72895 0.0
C295 C 0.76558 0.45366 0.65394 0.0
O296 O 0.81779 0.41904 0.70554 0.0
Zn297 Zn 0.78886 0.43924 0.69375 0.0
O298 O 0.78791 0.42816 0.73555 0.0
Zn299 Zn 0.75688 0.45068 0.71514 0.0
O300 O 0.72795 0.4294 0.72389 0.0
O301 O 0.75849 0.40963 0.7005 0.0
O302 O 0.75097 0.45589 0.67411 0.0
O303 O 0.78919 0.44714 0.65694 0.0
O304 O 0.79545 0.47379 0.71704 0.0
O305 O 0.75659 0.48402 0.73197 0.0
C306 C 0.73675 0.4089 0.71313 0.0
C307 C 0.78086 0.48831 0.73131 0.0
C308 C 0.85521 0.48028 0.97425 0.0
C309 C 0.78492 0.5417 0.98424 0.0
O310 O 0.83134 0.47611 0.97911 0.0
Zn311 Zn 0.81891 0.51066 0.97242 0.0
O312 O 0.86208 0.5027 0.96531 0.0
Zn313 Zn 0.84204 0.53996 0.95789 0.0
O314 O 0.86475 0.56176 0.97688 0.0
O315 O 0.8425 0.53329 0.0007 0.0
O316 O 0.80494 0.55308 0.97436 0.0
O317 O 0.7841 0.51701 0.98442 0.0
O318 O 0.81712 0.51353 0.93053 0.0
O319 O 0.84178 0.54712 0.92118 0.0
C320 C 0.85905 0.55204 0.99898 0.0
C321 C 0.82695 0.52914 0.9136 0.0
C322 C 0.69928 0.63556 0.23898 0.0
C323 C 0.71947 0.59721 0.1547 0.0
O324 O 0.68682 0.63854 0.21779 0.0
Zn325 Zn 0.70856 0.61521 0.19788 0.0
O326 O 0.71976 0.62106 0.2397 0.0
Zn327 Zn 0.74211 0.59717 0.21241 0.0
O328 O 0.77516 0.61387 0.21297 0.0
O329 O 0.74399 0.63859 0.19637 0.0
O330 O 0.73676 0.59151 0.17172 0.0
O331 O 0.69905 0.60935 0.16172 0.0
O332 O 0.70182 0.57912 0.21934 0.0
O333 O 0.74076 0.56328 0.22823 0.0
C334 C 0.76793 0.6354 0.20302 0.0
C335 C 0.71618 0.5616 0.23015 0.0
H336 H 0.2818 0.33321 0.1558 0.0
H337 H 0.23353 0.27294 0.12295 0.0
H338 H 0.24469 0.34784 0.18257 0.0
H339 H 0.19727 0.28713 0.14945 0.0
H340 H 0.1294 0.32332 0.18432 0.0
H341 H 0.16659 0.32286 0.15468 0.0
H342 H 0.21884 0.33013 0.21996 0.0
H343 H 0.18155 0.33141 0.2496 0.0
C344 C 0.26335 0.32318 0.15423 0.0
C345 C 0.2607 0.30179 0.13743 0.0
C346 C 0.24216 0.33152 0.16951 0.0
C347 C 0.21796 0.31882 0.1679 0.0
C348 C 0.21541 0.29774 0.15079 0.0
C349 C 0.23642 0.28936 0.13581 0.0
C350 C 0.14878 0.32546 0.1923 0.0
C351 C 0.15259 0.32688 0.21931 0.0
C352 C 0.17009 0.32512 0.17534 0.0
C353 C 0.19567 0.32582 0.18506 0.0
C354 C 0.19939 0.32957 0.21187 0.0
C355 C 0.178 0.33019 0.22886 0.0
H356 H 0.93532 0.87837 0.46885 0.0
H357 H 0.98212 0.9147 0.52793 0.0
H358 H 0.95014 0.90973 0.43712 0.0
H359 H 0.99598 0.9479 0.49616 0.0
H360 H 0.96132 0.98171 0.38965 0.0
H361 H 0.94721 0.95132 0.4226 0.0
H362 H 0.02326 0.95446 0.45849 0.0
H363 H 0.03682 0.98699 0.42579 0.0
C364 C 0.94802 0.89386 0.47531 0.0
C365 C 0.95729 0.89421 0.50098 0.0
C366 C 0.95665 0.91197 0.457 0.0
C367 C 0.97445 0.93153 0.46383 0.0
C368 C 0.98264 0.93288 0.49001 0.0
C369 C 0.97417 0.91431 0.50843 0.0
C370 C 0.9753 0.97549 0.40422 0.0
C371 C 1.00029 0.98647 0.4049 0.0
C372 C 0.96718 0.95795 0.42326 0.0
C373 C 0.98399 0.95019 0.44344 0.0
C374 C 0.0096 0.96023 0.44351 0.0
C375 C 0.01766 0.97833 0.42442 0.0
H376 H 0.26854 0.68951 0.60955 0.0
H377 H 0.23245 0.6726 0.68368 0.0
H378 H 0.3114 0.68248 0.62842 0.0
H379 H 0.2754 0.6675 0.70342 0.0
H380 H 0.35603 0.64994 0.73239 0.0
H381 H 0.31466 0.6457 0.70952 0.0
H382 H 0.3394 0.70482 0.65446 0.0
H383 H 0.3809 0.70769 0.67625 0.0
C384 C 0.26991 0.68431 0.62999 0.0
C385 C 0.24736 0.6818 0.64529 0.0
C386 C 0.29447 0.6805 0.64093 0.0
C387 C 0.29712 0.67497 0.66769 0.0
C388 C 0.27432 0.67146 0.68273 0.0
C389 C 0.24965 0.67453 0.67153 0.0
C390 C 0.35268 0.66163 0.71509 0.0
C391 C 0.37172 0.67913 0.70612 0.0
C392 C 0.32887 0.6594 0.70208 0.0
C393 C 0.32339 0.675 0.68011 0.0
C394 C 0.34286 0.69199 0.67088 0.0
C395 C 0.36676 0.69381 0.68354 0.0
H396 H 0.53511 0.09184 0.91586 0.0
H397 H 0.52879 0.15966 0.86605 0.0
H398 H 0.51532 0.06529 0.88186 0.0
H399 H 0.50946 0.13275 0.8318 0.0
H400 H 0.50966 0.04492 0.78232 0.0
H401 H 0.5257 0.08302 0.80567 0.0
H402 H 0.46326 0.07501 0.86152 0.0
H403 H 0.44699 0.03732 0.83794 0.0
C404 C 0.53024 0.1009 0.8974 0.0
C405 C 0.53343 0.12779 0.89363 0.0
C406 C 0.51864 0.08582 0.87811 0.0
C407 C 0.51046 0.09725 0.85458 0.0
C408 C 0.51537 0.12369 0.84994 0.0
C409 C 0.52654 0.13893 0.86946 0.0
C410 C 0.49815 0.05261 0.79832 0.0
C411 C 0.47703 0.03829 0.80832 0.0
C412 C 0.50769 0.07407 0.812 0.0
C413 C 0.49605 0.08132 0.83566 0.0
C414 C 0.47264 0.06951 0.84339 0.0
C415 C 0.46298 0.04831 0.82957 0.0
H416 H 0.25597 0.1661 0.34331 0.0
H417 H 0.18973 0.12073 0.31878 0.0
H418 H 0.22954 0.20561 0.3414 0.0
H419 H 0.1632 0.16024 0.31746 0.0
H420 H 0.16802 0.27153 0.34549 0.0
H421 H 0.19128 0.23131 0.35728 0.0
H422 H 0.16596 0.19591 0.28558 0.0
H423 H 0.14281 0.23543 0.27398 0.0
C424 C 0.23559 0.16444 0.33817 0.0
C425 C 0.22506 0.14035 0.33066 0.0
C426 C 0.22044 0.1871 0.3372 0.0
C427 C 0.19448 0.18606 0.32877 0.0
C428 C 0.18336 0.16167 0.32346 0.0
C429 C 0.19851 0.13902 0.32434 0.0
C430 C 0.16755 0.25515 0.33227 0.0
C431 C 0.15358 0.25669 0.30881 0.0
C432 C 0.18077 0.23215 0.33905 0.0
C433 C 0.18004 0.21035 0.32256 0.0
C434 C 0.16633 0.21212 0.29902 0.0
C435 C 0.1533 0.23496 0.29224 0.0
H436 H 0.0447 0.81433 0.54792 0.0
H437 H 0.03273 0.84643 0.47111 0.0
H438 H 0.07973 0.84538 0.55543 0.0
H439 H 0.06831 0.87729 0.47839 0.0
H440 H 0.14687 0.9169 0.50005 0.0
H441 H 0.11786 0.8811 0.48992 0.0
H442 H 0.07386 0.89653 0.56005 0.0
H443 H 0.10295 0.9331 0.57022 0.0
C444 C 0.05056 0.82712 0.53211 0.0
C445 C 0.0362 0.82787 0.50884 0.0
C446 C 0.07019 0.84524 0.53664 0.0
C447 C 0.07616 0.86413 0.51778 0.0
C448 C 0.06391 0.86297 0.49332 0.0
C449 C 0.04393 0.84498 0.48891 0.0
C450 C 0.13107 0.91271 0.51348 0.0
C451 C 0.12732 0.92775 0.53614 0.0
C452 C 0.11442 0.89223 0.50751 0.0
C453 C 0.09382 0.88593 0.52425 0.0
C454 C 0.08989 0.90087 0.54696 0.0
C455 C 0.10636 0.92184 0.55273 0.0
H456 H 0.27358 0.82526 0.83775 0.0
H457 H 0.33732 0.8767 0.81843 0.0
H458 H 0.30258 0.78774 0.83311 0.0
H459 H 0.36636 0.83924 0.81436 0.0
H460 H 0.39234 0.76953 0.76489 0.0
H461 H 0.36721 0.80668 0.77979 0.0
H462 H 0.34186 0.76289 0.84727 0.0
H463 H 0.36706 0.72511 0.83207 0.0
C464 C 0.29394 0.82863 0.83326 0.0
C465 C 0.30306 0.85392 0.82797 0.0
C466 C 0.31057 0.8071 0.83067 0.0
C467 C 0.33661 0.81052 0.82285 0.0
C468 C 0.34622 0.83597 0.81981 0.0
C469 C 0.32961 0.85744 0.82227 0.0
C470 C 0.38148 0.76769 0.78293 0.0
C471 C 0.38161 0.74427 0.79722 0.0
C472 C 0.36728 0.78916 0.79165 0.0
C473 C 0.35278 0.78784 0.81488 0.0
C474 C 0.35285 0.76445 0.82928 0.0
C475 C 0.36726 0.74287 0.82059 0.0
H476 H 0.42517 0.02949 0.08744 0.0
H477 H 0.42421 0.98886 0.01414 0.0
H478 H 0.4588 0.05867 0.07059 0.0
H479 H 0.4574 0.01847 0.99692 0.0
H480 H 0.47923 0.10374 0.9688 0.0
H481 H 0.45264 0.06812 0.98675 0.0
H482 H 0.50487 0.0614 0.05213 0.0
H483 H 0.5313 0.09654 0.03436 0.0
C484 C 0.43323 0.02593 0.06823 0.0
C485 C 0.42265 0.0065 0.05236 0.0
C486 C 0.45215 0.04289 0.0584 0.0
C487 C 0.46036 0.04109 0.03229 0.0
C488 C 0.45122 0.02043 0.01702 0.0
C489 C 0.43272 0.00308 0.02709 0.0
C490 C 0.48488 0.09471 0.98705 0.0
C491 C 0.50729 0.10299 1.00017 0.0
C492 C 0.4699 0.07415 0.99715 0.0
C493 C 0.47688 0.06186 0.02073 0.0
C494 C 0.49905 0.07046 0.03394 0.0
C495 C 0.51415 0.09061 0.02371 0.0
H496 H 0.02556 0.11509 0.43378 0.0
H497 H 0.9831 0.04582 0.45475 0.0
H498 H 0.05987 0.10314 0.46443 0.0
H499 H 0.01768 0.03341 0.48495 0.0
H500 H 0.10322 0.00111 0.49056 0.0
H501 H 0.06393 0.0188 0.46969 0.0
H502 H 0.07374 0.09121 0.51095 0.0
H503 H 0.11268 0.07353 0.53192 0.0
C504 C 0.0227 0.09826 0.44628 0.0
C505 C 0.00157 0.08153 0.44205 0.0
C506 C 0.04264 0.09107 0.46342 0.0
C507 C 0.04179 0.06692 0.4764 0.0
C508 C 0.01904 0.05189 0.47477 0.0
C509 C 0.99887 0.05939 0.45803 0.0
C510 C 0.09718 0.02092 0.49481 0.0
C511 C 0.11107 0.03598 0.51272 0.0
C512 C 0.07448 0.03089 0.48326 0.0
C513 C 0.06554 0.05624 0.4891 0.0
C514 C 0.08004 0.07159 0.50624 0.0
C515 C 0.10239 0.06149 0.5181 0.0
H516 H 0.19007 0.80677 0.63407 0.0
H517 H 0.17234 0.74282 0.68626 0.0
H518 H 0.19544 0.83547 0.67132 0.0
H519 H 0.17828 0.77142 0.72345 0.0
H520 H 0.17577 0.8359 0.78476 0.0
H521 H 0.16251 0.80998 0.74729 0.0
H522 H 0.2296 0.83744 0.70425 0.0
H523 H 0.24258 0.86353 0.74125 0.0
C524 C 0.18701 0.79891 0.65345 0.0
C525 C 0.18113 0.77246 0.65724 0.0
C526 C 0.19023 0.81531 0.67478 0.0
C527 C 0.18769 0.80556 0.70028 0.0
C528 C 0.18025 0.77951 0.70402 0.0
C529 C 0.17696 0.76311 0.68269 0.0
C530 C 0.18766 0.83637 0.76729 0.0
C531 C 0.21025 0.85171 0.76599 0.0
C532 C 0.18007 0.82154 0.74587 0.0
C533 C 0.19489 0.82189 0.72279 0.0
C534 C 0.21748 0.83719 0.72158 0.0
C535 C 0.22507 0.85193 0.74292 0.0
H536 H 0.33509 0.99995 0.95994 0.0
H537 H 0.39619 0.04849 0.98993 0.0
H538 H 0.36337 0.98623 0.92432 0.0
H539 H 0.42468 0.03518 0.95402 0.0
H540 H 0.41939 0.97353 0.8564 0.0
H541 H 0.38872 0.99467 0.88587 0.0
H542 H 0.4468 0.99382 0.94654 0.0
H543 H 0.47779 0.97324 0.91681 0.0
C544 C 0.35407 0.00894 0.95791 0.0
C545 C 0.36327 0.02571 0.9773 0.0
C546 C 0.37048 0.0008 0.9377 0.0
C547 C 0.39653 0.00913 0.93661 0.0
C548 C 0.40488 0.02798 0.95459 0.0
C549 C 0.38836 0.0362 0.97477 0.0
C550 C 0.42558 0.97748 0.87615 0.0
C551 C 0.45111 0.97151 0.88424 0.0
C552 C 0.40796 0.98977 0.89301 0.0
C553 C 0.41537 0.99638 0.91845 0.0
C554 C 0.44062 0.98964 0.92684 0.0
C555 C 0.45828 0.97737 0.90995 0.0
H556 H 0.2775 0.1232 0.2396 0.0
H557 H 0.34731 0.15519 0.27359 0.0
H558 H 0.28615 0.14642 0.19956 0.0
H559 H 0.35622 0.17855 0.23265 0.0
H560 H 0.33537 0.24046 0.16623 0.0
H561 H 0.33683 0.21486 0.2064 0.0
H562 H 0.31667 0.14578 0.16324 0.0
H563 H 0.31448 0.17142 0.1233 0.0
C564 C 0.29482 0.13515 0.23854 0.0
C565 C 0.31171 0.13734 0.25989 0.0
C566 C 0.29993 0.14827 0.21537 0.0
C567 C 0.3221 0.16399 0.21276 0.0
C568 C 0.33899 0.1665 0.23412 0.0
C569 C 0.3339 0.15317 0.2575 0.0
C570 C 0.33178 0.2197 0.16524 0.0
C571 C 0.32429 0.20802 0.14171 0.0
C572 C 0.33273 0.20503 0.18825 0.0
C573 C 0.32636 0.17844 0.18804 0.0
C574 C 0.32106 0.16639 0.1641 0.0
C575 C 0.31989 0.18105 0.1412 0.0
H576 H 0.80197 0.41565 0.78129 0.0
H577 H 0.84929 0.38246 0.71984 0.0
H578 H 0.8195 0.38411 0.8118 0.0
H579 H 0.86739 0.3509 0.75076 0.0
H580 H 0.85146 0.33095 0.86655 0.0
H581 H 0.8558 0.36695 0.83571 0.0
H582 H 0.84776 0.31291 0.77188 0.0
H583 H 0.84467 0.27683 0.80291 0.0
C584 C 0.81659 0.40195 0.77443 0.0
C585 C 0.82392 0.40126 0.7481 0.0
C586 C 0.82691 0.38399 0.79202 0.0
C587 C 0.84484 0.36488 0.7837 0.0
C588 C 0.85345 0.36523 0.75768 0.0
C589 C 0.84315 0.38336 0.74003 0.0
C590 C 0.85173 0.32675 0.84588 0.0
C591 C 0.84741 0.30135 0.83695 0.0
C592 C 0.85403 0.34732 0.82824 0.0
C593 C 0.85133 0.34288 0.8014 0.0
C594 C 0.84995 0.31702 0.79242 0.0
C595 C 0.84815 0.29631 0.81015 0.0
H596 H 0.97318 0.60226 0.11365 0.0
H597 H 0.92255 0.54605 0.15073 0.0
H598 H 0.9433 0.60495 0.07682 0.0
H599 H 0.89393 0.5473 0.11374 0.0
H600 H 0.83985 0.55493 0.04841 0.0
H601 H 0.86351 0.56676 0.08766 0.0
H602 H 0.93294 0.57973 0.04121 0.0
H603 H 0.90857 0.56985 0.00208 0.0
C604 C 0.9556 0.59066 0.11402 0.0
C605 C 0.95037 0.57379 0.13497 0.0
C606 C 0.93855 0.59199 0.09283 0.0
C607 C 0.91624 0.57609 0.09198 0.0
C608 C 0.91053 0.56023 0.11364 0.0
C609 C 0.92721 0.55931 0.13492 0.0
C610 C 0.86007 0.56071 0.04672 0.0
C611 C 0.87253 0.56123 0.02239 0.0
C612 C 0.87373 0.56736 0.06918 0.0
C613 C 0.90039 0.5738 0.06784 0.0
C614 C 0.91242 0.57529 0.04318 0.0
C615 C 0.89854 0.56937 0.02069 0.0
H616 H 0.70534 0.68521 0.3963 0.0
H617 H 0.65237 0.74213 0.3636 0.0
H618 H 0.70464 0.66095 0.35614 0.0
H619 H 0.65022 0.71682 0.32351 0.0
H620 H 0.68382 0.686 0.24556 0.0
H621 H 0.67516 0.70796 0.28682 0.0
H622 H 0.68403 0.63432 0.32747 0.0
H623 H 0.69471 0.6132 0.28641 0.0
C624 C 0.69289 0.69214 0.38073 0.0
C625 C 0.67905 0.71568 0.38308 0.0
C626 C 0.69232 0.67807 0.35759 0.0
C627 C 0.67741 0.68682 0.33628 0.0
C628 C 0.66239 0.7097 0.3392 0.0
C629 C 0.6634 0.72411 0.36227 0.0
C630 C 0.68364 0.67464 0.2634 0.0
C631 C 0.6903 0.64813 0.26306 0.0
C632 C 0.67849 0.68711 0.28708 0.0
C633 C 0.67927 0.67308 0.31076 0.0
C634 C 0.68412 0.64605 0.30989 0.0
C635 C 0.69004 0.63383 0.28637 0.0
H636 H 0.8208 0.63302 0.20754 0.0
H637 H 0.75734 0.68708 0.19419 0.0
H638 H 0.85108 0.66925 0.20995 0.0
H639 H 0.78763 0.72349 0.19734 0.0
H640 H 0.88567 0.73794 0.2541 0.0
H641 H 0.85783 0.70181 0.24278 0.0
H642 H 0.82543 0.74678 0.17925 0.0
H643 H 0.85322 0.78358 0.19102 0.0
C644 C 0.81334 0.65264 0.20492 0.0
C645 C 0.78662 0.6572 0.20102 0.0
C646 C 0.83069 0.67343 0.20641 0.0
C647 C 0.82171 0.69929 0.20428 0.0
C648 C 0.79521 0.7038 0.19893 0.0
C649 C 0.77783 0.68294 0.19724 0.0
C650 C 0.87275 0.7402 0.2376 0.0
C651 C 0.87162 0.76373 0.22353 0.0
C652 C 0.85691 0.71932 0.23095 0.0
C653 C 0.83949 0.72131 0.20999 0.0
C654 C 0.83854 0.74471 0.19561 0.0
C655 C 0.85453 0.76571 0.20227 0.0
H656 H 0.68673 0.2494 0.71257 0.0
H657 H 0.64277 0.28149 0.77697 0.0
H658 H 0.70843 0.29044 0.70619 0.0
H659 H 0.66578 0.32307 0.77131 0.0
H660 H 0.68653 0.4005 0.729 0.0
H661 H 0.66655 0.35886 0.74046 0.0
H662 H 0.73909 0.31937 0.72264 0.0
H663 H 0.75848 0.36064 0.71006 0.0
C664 C 0.68202 0.26522 0.72574 0.0
C665 C 0.66278 0.26234 0.7451 0.0
C666 C 0.69473 0.28878 0.72221 0.0
C667 C 0.68885 0.31017 0.73816 0.0
C668 C 0.67046 0.30704 0.75843 0.0
C669 C 0.65753 0.28321 0.76192 0.0
C670 C 0.69803 0.38282 0.72726 0.0
C671 C 0.72389 0.38373 0.71816 0.0
C672 C 0.68673 0.35903 0.7342 0.0
C673 C 0.70119 0.33573 0.73251 0.0
C674 C 0.72718 0.33683 0.72372 0.0
C675 C 0.73831 0.36049 0.71639 0.0
H676 H 0.4474 0.59965 0.51314 0.0
H677 H 0.47422 0.64708 0.57694 0.0
H678 H 0.46585 0.5611 0.53416 0.0
H679 H 0.49231 0.60845 0.59808 0.0
H680 H 0.54259 0.53655 0.61757 0.0
H681 H 0.52765 0.57527 0.59326 0.0
H682 H 0.45724 0.53471 0.57231 0.0
H683 H 0.47209 0.49659 0.59585 0.0
C684 C 0.45683 0.60181 0.53184 0.0
C685 C 0.4591 0.62644 0.54343 0.0
C686 C 0.46755 0.57973 0.54383 0.0
C687 C 0.48075 0.58174 0.56771 0.0
C688 C 0.48271 0.60631 0.57947 0.0
C689 C 0.47199 0.62839 0.5675 0.0
C690 C 0.52415 0.53594 0.60742 0.0
C691 C 0.50844 0.51366 0.60882 0.0
C692 C 0.51547 0.55809 0.59371 0.0
C693 C 0.49117 0.55808 0.58095 0.0
C694 C 0.47611 0.53537 0.58165 0.0
C695 C 0.4846 0.51354 0.59538 0.0
H696 H 0.77443 0.24126 0.80627 0.0
H697 H 0.80643 0.16404 0.81803 0.0
H698 H 0.74922 0.22527 0.76951 0.0
H699 H 0.78087 0.14802 0.78135 0.0
H700 H 0.69015 0.13772 0.75513 0.0
H701 H 0.73061 0.14447 0.7788 0.0
H702 H 0.75264 0.20427 0.72367 0.0
H703 H 0.71229 0.19703 0.69966 0.0
C704 C 0.77629 0.22095 0.80082 0.0
C705 C 0.79217 0.20386 0.8152 0.0
C706 C 0.76213 0.21187 0.77957 0.0
C707 C 0.7633 0.18543 0.77247 0.0
C708 C 0.77977 0.16849 0.78634 0.0
C709 C 0.79429 0.17768 0.80735 0.0
C710 C 0.70444 0.15107 0.74714 0.0
C711 C 0.69822 0.16682 0.72562 0.0
C712 C 0.72753 0.1551 0.76079 0.0
C713 C 0.74444 0.17527 0.75333 0.0
C714 C 0.73976 0.18875 0.7299 0.0
C715 C 0.71687 0.18433 0.71595 0.0
H716 H 0.08423 0.5309 0.11781 0.0
H717 H 0.00518 0.50232 0.11874 0.0
H718 H 0.0941 0.5032 0.08023 0.0
H719 H 0.01498 0.47502 0.08107 0.0
H720 H 0.09973 0.4161 0.04444 0.0
H721 H 0.09584 0.45304 0.07413 0.0
H722 H 0.02791 0.47994 0.03242 0.0
H723 H 0.03224 0.44317 0.00238 0.0
C724 C 0.06896 0.51878 0.10997 0.0
C725 C 0.04398 0.51864 0.12139 0.0
C726 C 0.07461 0.50301 0.08843 0.0
C727 C 0.05523 0.48724 0.07752 0.0
C728 C 0.03019 0.48734 0.08877 0.0
C729 C 0.02468 0.50271 0.11056 0.0
C730 C 0.08489 0.43075 0.04076 0.0
C731 C 0.06657 0.42709 0.02089 0.0
C732 C 0.0825 0.45176 0.0579 0.0
C733 C 0.06134 0.46912 0.05581 0.0
C734 C 0.0443 0.46671 0.03457 0.0
C735 C 0.04703 0.44596 0.01709 0.0
H736 H 0.73369 0.83936 0.3734 0.0
H737 H 0.76953 0.76792 0.40087 0.0
H738 H 0.77391 0.85015 0.34987 0.0
H739 H 0.80905 0.77846 0.37731 0.0
H740 H 0.88433 0.81101 0.35205 0.0
H741 H 0.84487 0.80941 0.37853 0.0
H742 H 0.79919 0.83348 0.31207 0.0
H743 H 0.83873 0.8357 0.28568 0.0
C744 C 0.75005 0.82597 0.37436 0.0
C745 C 0.7484 0.80277 0.38894 0.0
C746 C 0.77303 0.83214 0.36092 0.0
C747 C 0.79471 0.81529 0.36201 0.0
C748 C 0.79291 0.79214 0.37654 0.0
C749 C 0.77008 0.78596 0.38984 0.0
C750 C 0.86594 0.81639 0.34318 0.0
C751 C 0.86458 0.82307 0.31668 0.0
C752 C 0.84333 0.81537 0.35832 0.0
C753 C 0.81891 0.82086 0.34723 0.0
C754 C 0.81774 0.82923 0.32118 0.0
C755 C 0.8404 0.83037 0.30604 0.0
H756 H 0.46804 0.45159 0.57243 0.0
H757 H 0.51457 0.3827 0.58552 0.0
H758 H 0.4913 0.45954 0.53162 0.0
H759 H 0.5375 0.3902 0.54456 0.0
H760 H 0.57725 0.41427 0.46844 0.0
H761 H 0.54076 0.3994 0.49549 0.0
H762 H 0.53912 0.47384 0.53437 0.0
H763 H 0.57565 0.48862 0.50765 0.0
C764 C 0.48183 0.43703 0.56562 0.0
C765 C 0.48965 0.41663 0.58219 0.0
C766 C 0.49557 0.44191 0.54251 0.0
C767 C 0.51676 0.42593 0.53536 0.0
C768 C 0.52138 0.40294 0.54962 0.0
C769 C 0.50791 0.39835 0.57293 0.0
C770 C 0.56899 0.42751 0.48267 0.0
C771 C 0.5795 0.45257 0.48607 0.0
C772 C 0.54804 0.419 0.49804 0.0
C773 C 0.53683 0.43556 0.51676 0.0
C774 C 0.54698 0.4608 0.51972 0.0
C775 C 0.56816 0.46915 0.50468 0.0
H776 H 0.95401 0.34716 0.01402 0.0
H777 H 0.98811 0.41269 0.05319 0.0
H778 H 0.9171 0.3743 0.00079 0.0
H779 H 0.95111 0.44002 0.04025 0.0
H780 H 0.90806 0.48666 0.97702 0.0
H781 H 0.93982 0.45728 0.99689 0.0
H782 H 0.87903 0.40129 0.01221 0.0
H783 H 0.84725 0.43053 0.99205 0.0
C784 C 0.9528 0.36703 0.02105 0.0
C785 C 0.97346 0.37769 0.03523 0.0
C786 C 0.93183 0.3827 0.01319 0.0
C787 C 0.93139 0.40946 0.01904 0.0
C788 C 0.95109 0.41958 0.03505 0.0
C789 C 0.97198 0.40383 0.04301 0.0
C790 C 0.90149 0.46793 0.98426 0.0
C791 C 0.87509 0.46096 0.98282 0.0
C792 C 0.91964 0.45125 0.99606 0.0
C793 C 0.91188 0.42711 0.0066 0.0
C794 C 0.88564 0.41974 0.00436 0.0
C795 C 0.86745 0.4365 0.9927 0.0
H796 H 0.5744 0.53332 0.40723 0.0
H797 H 0.61184 0.5799 0.46607 0.0
H798 H 0.54124 0.56742 0.40184 0.0
H799 H 0.57861 0.61262 0.46197 0.0
H800 H 0.52194 0.67358 0.45282 0.0
H801 H 0.55855 0.64589 0.44004 0.0
H802 H 0.50505 0.58286 0.4246 0.0
H803 H 0.46865 0.6114 0.43523 0.0
C804 C 0.57563 0.55083 0.41886 0.0
C805 C 0.59559 0.55377 0.43721 0.0
C806 C 0.55661 0.57033 0.4159 0.0
C807 C 0.55707 0.5929 0.43149 0.0
C808 C 0.57771 0.59602 0.44908 0.0
C809 C 0.59675 0.57689 0.45171 0.0
C810 C 0.51815 0.65401 0.44599 0.0
C811 C 0.49269 0.64439 0.44531 0.0
C812 C 0.53906 0.63802 0.43886 0.0
C813 C 0.53492 0.61177 0.43204 0.0
C814 C 0.50915 0.6029 0.42956 0.0
C815 C 0.48822 0.6192 0.43585 0.0
H816 H 0.98428 0.12968 0.32266 0.0
H817 H 0.06596 0.11704 0.33853 0.0
H818 H 0.99336 0.17453 0.30966 0.0
H819 H 0.07504 0.16219 0.32562 0.0
H820 H 0.0746 0.25135 0.33317 0.0
H821 H 0.06324 0.20674 0.34496 0.0
H822 H 0.01773 0.20015 0.27484 0.0
H823 H 0.02928 0.24482 0.26277 0.0
C824 C 0.00425 0.1364 0.32306 0.0
C825 C 0.02443 0.11981 0.33164 0.0
C826 C 0.00942 0.1621 0.31559 0.0
C827 C 0.03483 0.17197 0.3169 0.0
C828 C 0.05518 0.15519 0.32476 0.0
C829 C 0.05006 0.12928 0.33185 0.0
C830 C 0.06164 0.24069 0.32052 0.0
C831 C 0.05279 0.25176 0.29701 0.0
C832 C 0.05548 0.21495 0.32712 0.0
C833 C 0.04 0.1998 0.3106 0.0
C834 C 0.02979 0.21134 0.28791 0.0
C835 C 0.03627 0.23698 0.28109 0.0
H836 H 0.09557 0.6932 0.63734 0.0
H837 H 0.10865 0.7243 0.56015 0.0
H838 H 0.05025 0.70924 0.63609 0.0
H839 H 0.06336 0.73935 0.55862 0.0
H840 H 0.97509 0.73907 0.55681 0.0
H841 H 0.01196 0.71124 0.56838 0.0
H842 H 0.03738 0.76831 0.62398 0.0
H843 H 0.00078 0.79674 0.61199 0.0
C844 C 0.0885 0.70265 0.61982 0.0
C845 C 0.10549 0.70737 0.59873 0.0
C846 C 0.06274 0.71196 0.61923 0.0
C847 C 0.05353 0.72542 0.59726 0.0
C848 C 0.07009 0.72886 0.5757 0.0
C849 C 0.09591 0.72021 0.57654 0.0
C850 C 0.98784 0.74526 0.57235 0.0
C851 C 0.98524 0.77032 0.58319 0.0
C852 C 0.00894 0.72929 0.5789 0.0
C853 C 0.02747 0.73781 0.59685 0.0
C854 C 0.02314 0.76132 0.61018 0.0
C855 C 0.00209 0.77751 0.60342 0.0
H856 H 0.47441 0.88945 0.7581 0.0
H857 H 0.51287 0.87638 0.83172 0.0
H858 H 0.47483 0.8427 0.74994 0.0
H859 H 0.51331 0.82943 0.82346 0.0
H860 H 0.47041 0.74844 0.8108 0.0
H861 H 0.4804 0.7938 0.82056 0.0
H862 H 0.50498 0.80585 0.74093 0.0
H863 H 0.49494 0.7606 0.73107 0.0
C864 C 0.4831 0.87664 0.77249 0.0
C865 C 0.49354 0.88674 0.7956 0.0
C866 C 0.48355 0.8498 0.76771 0.0
C867 C 0.49425 0.83228 0.78598 0.0
C868 C 0.50485 0.84236 0.80903 0.0
C869 C 0.50465 0.86929 0.81371 0.0
C870 C 0.47876 0.76047 0.79555 0.0
C871 C 0.48157 0.75083 0.77005 0.0
C872 C 0.48441 0.78657 0.80115 0.0
C873 C 0.49293 0.80362 0.78137 0.0
C874 C 0.49788 0.79339 0.75646 0.0
C875 C 0.49237 0.76731 0.75089 0.0
H876 H 0.39906 0.29994 0.0578 0.0
H877 H 0.37436 0.21979 0.05166 0.0
H878 H 0.443 0.2871 0.04341 0.0
H879 H 0.41791 0.20717 0.03774 0.0
H880 H 0.50186 0.18596 0.03457 0.0
H881 H 0.46364 0.20464 0.05637 0.0
H882 H 0.46333 0.26861 0.0015 0.0
H883 H 0.50141 0.24994 0.97967 0.0
C884 C 0.40294 0.27967 0.05333 0.0
C885 C 0.3831 0.26095 0.05574 0.0
C886 C 0.42809 0.27233 0.0452 0.0
C887 C 0.43401 0.24606 0.03986 0.0
C888 C 0.41414 0.22746 0.04223 0.0
C889 C 0.38904 0.23481 0.0499 0.0
C890 C 0.49423 0.20449 0.02775 0.0
C891 C 0.50454 0.21638 0.0053 0.0
C892 C 0.47216 0.21503 0.04004 0.0
C893 C 0.46023 0.23785 0.03035 0.0
C894 C 0.47205 0.25103 0.00943 0.0
C895 C 0.49388 0.24031 0.99693 0.0
H896 H 0.33695 0.05841 0.25878 0.0
H897 H 0.26694 0.01212 0.25468 0.0
H898 H 0.34648 0.04852 0.21335 0.0
H899 H 0.27697 0.00184 0.20917 0.0
H900 H 0.32003 0.97711 0.13107 0.0
H901 H 0.3133 0.98048 0.17823 0.0
H902 H 0.31885 0.06421 0.17265 0.0
H903 H 0.32502 0.06098 0.1255 0.0
C904 C 0.32406 0.04535 0.24854 0.0
C905 C 0.30106 0.03617 0.26042 0.0
C906 C 0.3294 0.03997 0.22239 0.0
C907 C 0.31221 0.02483 0.20767 0.0
C908 C 0.29049 0.01365 0.22009 0.0
C909 C 0.28484 0.01944 0.24618 0.0
C910 C 0.31965 0.99625 0.1399 0.0
C911 C 0.32301 0.0188 0.12455 0.0
C912 C 0.3158 0.99813 0.16685 0.0
C913 C 0.31585 0.02255 0.17907 0.0
C914 C 0.31906 0.0451 0.16373 0.0
C915 C 0.32236 0.04327 0.13673 0.0
H916 H 0.20902 0.06242 0.50552 0.0
H917 H 0.25846 0.99415 0.50969 0.0
H918 H 0.23605 0.07938 0.46963 0.0
H919 H 0.28486 0.01083 0.47387 0.0
H920 H 0.27603 0.02697 0.38196 0.0
H921 H 0.26197 0.01575 0.42611 0.0
H922 H 0.28794 0.09061 0.45348 0.0
H923 H 0.30299 0.10154 0.40917 0.0
C924 C 0.22619 0.05158 0.49954 0.0
C925 C 0.23141 0.02681 0.51015 0.0
C926 C 0.24159 0.06122 0.47898 0.0
C927 C 0.26226 0.04616 0.46886 0.0
C928 C 0.26892 0.02268 0.48121 0.0
C929 C 0.25377 0.01319 0.50172 0.0
C930 C 0.27945 0.04069 0.39754 0.0
C931 C 0.29087 0.06494 0.39228 0.0
C932 C 0.27136 0.03434 0.42276 0.0
C933 C 0.27386 0.05238 0.44311 0.0
C934 C 0.28587 0.07642 0.43808 0.0
C935 C 0.29468 0.08251 0.41288 0.0
H936 H 0.18915 0.92738 0.75622 0.0
H937 H 0.25261 0.98241 0.75526 0.0
H938 H 0.17826 0.93955 0.71153 0.0
H939 H 0.24125 0.99493 0.71062 0.0
H940 H 0.19119 0.02544 0.63992 0.0
H941 H 0.20216 0.01556 0.68512 0.0
H942 H 0.20403 0.93346 0.66721 0.0
H943 H 0.19347 0.94339 0.62156 0.0
C944 C 0.20028 0.94266 0.7468 0.0
C945 C 0.22167 0.95407 0.75941 0.0
C946 C 0.19428 0.9493 0.72105 0.0
C947 C 0.20917 0.96787 0.70751 0.0
C948 C 0.22952 0.98048 0.72059 0.0
C949 C 0.23589 0.97345 0.74619 0.0
C950 C 0.19421 0.00527 0.64553 0.0
C951 C 0.19148 0.98515 0.6272 0.0
C952 C 0.20051 0.99966 0.67141 0.0
C953 C 0.20371 0.97377 0.6797 0.0
C954 C 0.2014 0.9536 0.66133 0.0
C955 C 0.19561 0.95926 0.63522 0.0
H956 H 0.21498 0.89598 0.90992 0.0
H957 H 0.2587 0.96247 0.88251 0.0
H958 H 0.22724 0.90613 0.95488 0.0
H959 H 0.27017 0.97299 0.92743 0.0
H960 H 0.26898 0.99624 0.01156 0.0
H961 H 0.24446 0.98456 0.97292 0.0
H962 H 0.27764 0.9072 0.97528 0.0
H963 H 0.30299 0.91895 0.01375 0.0
C964 C 0.22658 0.91316 0.91356 0.0
C965 C 0.23587 0.92851 0.89274 0.0
C966 C 0.23368 0.91881 0.93922 0.0
C967 C 0.24955 0.94032 0.94449 0.0
C968 C 0.25771 0.95641 0.92382 0.0
C969 C 0.25119 0.95039 0.89816 0.0
C970 C 0.27059 0.97646 0.00441 0.0
C971 C 0.28839 0.95866 0.01554 0.0
C972 C 0.25654 0.96987 0.98221 0.0
C973 C 0.25949 0.94517 0.97102 0.0
C974 C 0.27507 0.92641 0.98363 0.0
C975 C 0.28952 0.93313 0.00569 0.0
H976 H 0.11694 0.31965 0.07022 0.0
H977 H 0.11895 0.31216 0.98648 0.0
H978 H 0.16306 0.30719 0.07212 0.0
H979 H 0.1649 0.29907 0.98854 0.0
H980 H 0.23807 0.24627 0.01831 0.0
H981 H 0.19269 0.25951 0.0108 0.0
H982 H 0.2059 0.33073 0.05292 0.0
H983 H 0.25118 0.31808 0.05987 0.0
C984 C 0.12709 0.31496 0.05228 0.0
C985 C 0.11431 0.31692 0.02821 0.0
C986 C 0.15351 0.30804 0.05335 0.0
C987 C 0.16754 0.30238 0.03044 0.0
C988 C 0.15454 0.30336 0.00646 0.0
C989 C 0.12828 0.31086 0.00533 0.0
C990 C 0.23152 0.26513 0.02523 0.0
C991 C 0.24835 0.2811 0.03963 0.0
C992 C 0.20552 0.2726 0.02107 0.0
C993 C 0.19575 0.29591 0.03171 0.0
C994 C 0.21289 0.31251 0.04482 0.0
C995 C 0.23894 0.30535 0.04848 0.0
H996 H 0.74028 0.26157 0.93086 0.0
H997 H 0.76183 0.18172 0.91445 0.0
H998 H 0.69684 0.24763 0.94354 0.0
H999 H 0.71802 0.16775 0.92752 0.0
H1000 H 0.64408 0.15315 0.97818 0.0
H1001 H 0.68836 0.1662 0.96717 0.0
H1002 H 0.6581 0.22907 0.91985 0.0
H1003 H 0.6135 0.21592 0.93077 0.0
C1004 C 0.73591 0.24095 0.93025 0.0
C1005 C 0.75466 0.22276 0.92154 0.0
C1006 C 0.71086 0.23303 0.93733 0.0
C1007 C 0.70387 0.20667 0.93619 0.0
C1008 C 0.72286 0.18824 0.9286 0.0
C1009 C 0.74797 0.19622 0.9212 0.0
C1010 C 0.64677 0.16983 0.96546 0.0
C1011 C 0.62516 0.18358 0.95543 0.0
C1012 C 0.67221 0.17715 0.95902 0.0
C1013 C 0.67675 0.19863 0.94266 0.0
C1014 C 0.6552 0.21253 0.93271 0.0
C1015 C 0.62967 0.20498 0.93889 0.0
H1016 H 0.10481 0.40345 0.30777 0.0
H1017 H 0.03958 0.37211 0.26552 0.0
H1018 H 0.09065 0.44783 0.2963 0.0
H1019 H 0.02521 0.41623 0.25464 0.0
H1020 H 0.99461 0.49786 0.25548 0.0
H1021 H 0.00919 0.45844 0.27763 0.0
H1022 H 0.08756 0.47149 0.24994 0.0
H1023 H 0.07296 0.51109 0.22725 0.0
C1024 C 0.08709 0.40607 0.29665 0.0
C1025 C 0.07323 0.38436 0.28757 0.0
C1026 C 0.07916 0.43141 0.28992 0.0
C1027 C 0.05689 0.43541 0.27458 0.0
C1028 C 0.04235 0.41372 0.26667 0.0
C1029 C 0.05057 0.38847 0.27287 0.0
C1030 C 0.01509 0.49271 0.25443 0.0
C1031 C 0.03256 0.50748 0.23922 0.0
C1032 C 0.02337 0.47007 0.26713 0.0
C1033 C 0.04939 0.46179 0.26524 0.0
C1034 C 0.06738 0.47753 0.25176 0.0
C1035 C 0.05901 0.50017 0.23875 0.0
H1036 H 0.88703 0.79445 0.46684 0.0
H1037 H 0.87809 0.7991 0.55037 0.0
H1038 H 0.83965 0.79066 0.46237 0.0
H1039 H 0.83077 0.79454 0.54584 0.0
H1040 H 0.75219 0.75056 0.5143 0.0
H1041 H 0.79831 0.75671 0.52495 0.0
H1042 H 0.80046 0.82499 0.47576 0.0
H1043 H 0.75445 0.81949 0.46566 0.0
C1044 C 0.875 0.79427 0.48423 0.0
C1045 C 0.88627 0.79709 0.50894 0.0
C1046 C 0.84792 0.79231 0.48167 0.0
C1047 C 0.83164 0.79251 0.50378 0.0
C1048 C 0.84292 0.79439 0.52853 0.0
C1049 C 0.86995 0.79699 0.53107 0.0
C1050 C 0.76225 0.7674 0.5065 0.0
C1051 C 0.74954 0.78453 0.48917 0.0
C1052 C 0.78867 0.77079 0.51246 0.0
C1053 C 0.80294 0.79104 0.50077 0.0
C1054 C 0.78991 0.80905 0.48477 0.0
C1055 C 0.76344 0.80604 0.47928 0.0
H1056 H 0.22566 0.72572 0.51583 0.0
H1057 H 0.24026 0.66181 0.56896 0.0
H1058 H 0.2691 0.71986 0.497 0.0
H1059 H 0.28372 0.65624 0.55031 0.0
H1060 H 0.36829 0.6889 0.54224 0.0
H1061 H 0.32222 0.68793 0.55455 0.0
H1062 H 0.30061 0.68874 0.47339 0.0
H1063 H 0.34668 0.68947 0.46099 0.0
C1064 C 0.23775 0.70981 0.52283 0.0
C1065 C 0.22952 0.69432 0.54395 0.0
C1066 C 0.26268 0.70656 0.51214 0.0
C1067 C 0.27995 0.68797 0.52261 0.0
C1068 C 0.27092 0.671 0.54218 0.0
C1069 C 0.24585 0.67396 0.55257 0.0
C1070 C 0.35373 0.68901 0.52702 0.0
C1071 C 0.36114 0.68934 0.50066 0.0
C1072 C 0.32737 0.68814 0.53406 0.0
C1073 C 0.30786 0.68794 0.51489 0.0
C1074 C 0.31524 0.6888 0.48854 0.0
C1075 C 0.3416 0.68926 0.48149 0.0
H1076 H 0.97947 0.02497 0.28769 0.0
H1077 H 0.9152 0.01102 0.34037 0.0
H1078 H 0.96932 0.98486 0.26435 0.0
H1079 H 0.90532 0.97068 0.31723 0.0
H1080 H 0.93689 0.88572 0.30463 0.0
H1081 H 0.93815 0.93081 0.31871 0.0
H1082 H 0.93326 0.95674 0.23883 0.0
H1083 H 0.93134 0.91107 0.22443 0.0
C1084 C 0.96252 0.01387 0.29361 0.0
C1085 C 0.94817 0.02106 0.3159 0.0
C1086 C 0.95676 0.9909 0.28027 0.0
C1087 C 0.93682 0.97452 0.28927 0.0
C1088 C 0.92094 0.98292 0.31005 0.0
C1089 C 0.92641 0.00615 0.32312 0.0
C1090 C 0.93623 0.9009 0.28991 0.0
C1091 C 0.93415 0.89472 0.26334 0.0
C1092 C 0.93659 0.92678 0.29807 0.0
C1093 C 0.9353 0.94724 0.2799 0.0
C1094 C 0.93401 0.94127 0.25323 0.0
C1095 C 0.93308 0.91519 0.24502 0.0
H1096 H 0.55074 0.9939 0.75802 0.0
H1097 H 0.5784 0.01025 0.83555 0.0
H1098 H 0.56549 0.03634 0.7434 0.0
H1099 H 0.59415 0.05254 0.82065 0.0
H1100 H 0.58106 0.13787 0.79649 0.0
H1101 H 0.57351 0.09288 0.80981 0.0
H1102 H 0.59839 0.06647 0.73377 0.0
H1103 H 0.60521 0.11138 0.7203 0.0
C1104 C 0.561 0.00611 0.77173 0.0
C1105 C 0.56313 0.99867 0.79804 0.0
C1106 C 0.56941 0.03063 0.76333 0.0
C1107 C 0.58047 0.04828 0.78097 0.0
C1108 C 0.58502 0.03978 0.80668 0.0
C1109 C 0.57649 0.01523 0.81512 0.0
C1110 C 0.58461 0.12248 0.78252 0.0
C1111 C 0.59353 0.12835 0.75724 0.0
C1112 C 0.58064 0.09658 0.79027 0.0
C1113 C 0.5855 0.07585 0.77295 0.0
C1114 C 0.59414 0.08182 0.74759 0.0
C1115 C 0.59802 0.10768 0.73982 0.0
H1116 H 0.61275 0.25417 0.66001 0.0
H1117 H 0.54701 0.24385 0.71145 0.0
H1118 H 0.60095 0.29937 0.65357 0.0
H1119 H 0.53319 0.28857 0.70308 0.0
H1120 H 0.52856 0.37604 0.70892 0.0
H1121 H 0.54004 0.33014 0.71346 0.0
H1122 H 0.57872 0.33309 0.63827 0.0
H1123 H 0.5694 0.37942 0.63556 0.0
C1124 C 0.5949 0.2613 0.6689 0.0
C1125 C 0.58064 0.24537 0.68601 0.0
C1126 C 0.58805 0.28751 0.6653 0.0
C1127 C 0.56617 0.29841 0.67808 0.0
C1128 C 0.55073 0.28162 0.69358 0.0
C1129 C 0.55821 0.25564 0.69793 0.0
C1130 C 0.54016 0.36683 0.69382 0.0
C1131 C 0.54869 0.38132 0.67226 0.0
C1132 C 0.54632 0.34025 0.69604 0.0
C1133 C 0.56021 0.32716 0.67612 0.0
C1134 C 0.56862 0.34204 0.65448 0.0
C1135 C 0.56329 0.3688 0.65281 0.0
H1136 H 0.87164 0.26735 0.94962 0.0
H1137 H 0.9133 0.21686 0.89653 0.0
H1138 H 0.91318 0.28371 0.96605 0.0
H1139 H 0.9548 0.23399 0.91242 0.0
H1140 H 0.0091 0.313 0.92624 0.0
H1141 H 0.97205 0.28733 0.91064 0.0
H1142 H 0.95726 0.26027 0.9889 0.0
H1143 H 0.99435 0.28494 0.00447 0.0
C1144 C 0.88965 0.25943 0.94182 0.0
C1145 C 0.88922 0.24067 0.92198 0.0
C1146 C 0.91336 0.26884 0.95112 0.0
C1147 C 0.93705 0.26018 0.9403 0.0
C1148 C 0.93674 0.24098 0.92095 0.0
C1149 C 0.91302 0.23104 0.91211 0.0
C1150 C 0.99841 0.30101 0.93997 0.0
C1151 C 0.00468 0.30121 0.96661 0.0
C1152 C 0.97723 0.28637 0.93106 0.0
C1153 C 0.9618 0.27209 0.9487 0.0
C1154 C 0.96882 0.27125 0.975 0.0
C1155 C 0.99017 0.28537 0.98381 0.0
H1156 H 0.95784 0.7646 0.20393 0.0
H1157 H 0.00139 0.76096 0.27574 0.0
H1158 H 0.97493 0.72188 0.19178 0.0
H1159 H 0.01895 0.7183 0.26303 0.0
H1160 H 0.05511 0.64794 0.20968 0.0
H1161 H 0.04593 0.69372 0.22064 0.0
H1162 H 0.96356 0.67745 0.22123 0.0
H1163 H 0.97253 0.63184 0.21108 0.0
C1164 C 0.97181 0.7552 0.21669 0.0
C1165 C 0.97812 0.76618 0.24091 0.0
C1166 C 0.9814 0.73062 0.20979 0.0
C1167 C 0.99794 0.71678 0.22665 0.0
C1168 C 0.00619 0.72865 0.24974 0.0
C1169 C 0.99619 0.75308 0.25693 0.0
C1170 C 0.03508 0.6541 0.2125 0.0
C1171 C 0.01455 0.63625 0.20959 0.0
C1172 C 0.02988 0.68024 0.2187 0.0
C1173 C 0.00406 0.68904 0.22141 0.0
C1174 C 0.98363 0.67114 0.21895 0.0
C1175 C 0.98881 0.645 0.21336 0.0
H1176 H 0.48698 0.72912 0.43661 0.0
H1177 H 0.48428 0.77239 0.50862 0.0
H1178 H 0.53008 0.74675 0.4274 0.0
H1179 H 0.52737 0.79038 0.49894 0.0
H1180 H 0.60584 0.82197 0.45543 0.0
H1181 H 0.55845 0.81602 0.45999 0.0
H1182 H 0.56964 0.73266 0.46175 0.0
H1183 H 0.61656 0.73837 0.45798 0.0
C1184 C 0.49493 0.74337 0.44986 0.0
C1185 C 0.48231 0.74907 0.47354 0.0
C1186 C 0.51974 0.75328 0.44465 0.0
C1187 C 0.53209 0.76952 0.4627 0.0
C1188 C 0.51821 0.77784 0.48477 0.0
C1189 C 0.49352 0.76759 0.49022 0.0
C1190 C 0.59815 0.80242 0.45714 0.0
C1191 C 0.61498 0.78065 0.45645 0.0
C1192 C 0.57111 0.79906 0.45961 0.0
C1193 C 0.56052 0.77389 0.46071 0.0
C1194 C 0.57735 0.75225 0.4605 0.0
C1195 C 0.60425 0.75558 0.45863 0.0
H1196 H 0.67232 0.53532 0.38327 0.0
H1197 H 0.67128 0.45487 0.35863 0.0
H1198 H 0.68313 0.54887 0.33901 0.0
H1199 H 0.68284 0.46867 0.31414 0.0
H1200 H 0.7386 0.51808 0.25196 0.0
H1201 H 0.72472 0.49629 0.29224 0.0
H1202 H 0.65527 0.54395 0.29408 0.0
H1203 H 0.66865 0.56538 0.25373 0.0
C1204 C 0.6748 0.52046 0.36852 0.0
C1205 C 0.67095 0.49399 0.3745 0.0
C1206 C 0.68075 0.52828 0.34313 0.0
C1207 C 0.68346 0.50981 0.3232 0.0
C1208 C 0.68069 0.48324 0.32922 0.0
C1209 C 0.67417 0.4754 0.35463 0.0
C1210 C 0.71993 0.52327 0.26047 0.0
C1211 C 0.7048 0.54356 0.2497 0.0
C1212 C 0.71205 0.51082 0.28352 0.0
C1213 C 0.68916 0.51877 0.29634 0.0
C1214 C 0.67312 0.53766 0.2846 0.0
C1215 C 0.68071 0.54975 0.26136 0.0
H1216 H 0.72611 0.49615 0.49599 0.0
H1217 H 0.66963 0.437 0.51513 0.0
H1218 H 0.74875 0.48768 0.53679 0.0
H1219 H 0.6923 0.4285 0.55635 0.0
H1220 H 0.71419 0.45645 0.6402 0.0
H1221 H 0.69593 0.45698 0.59637 0.0
H1222 H 0.77359 0.45556 0.56366 0.0
H1223 H 0.79192 0.45506 0.60748 0.0
C1224 C 0.71908 0.48069 0.5086 0.0
C1225 C 0.69621 0.46714 0.50241 0.0
C1226 C 0.732 0.47588 0.532 0.0
C1227 C 0.7221 0.45769 0.54995 0.0
C1228 C 0.70018 0.44288 0.54299 0.0
C1229 C 0.68744 0.44743 0.51928 0.0
C1230 C 0.72739 0.45641 0.62368 0.0
C1231 C 0.75453 0.45593 0.62737 0.0
C1232 C 0.71691 0.45633 0.59857 0.0
C1233 C 0.73332 0.45601 0.57656 0.0
C1234 C 0.76045 0.4558 0.58023 0.0
C1235 C 0.77093 0.45561 0.60535 0.0
H1236 H 0.82983 0.56673 0.87594 0.0
H1237 H 0.81159 0.48538 0.88772 0.0
H1238 H 0.82136 0.56214 0.82919 0.0
H1239 H 0.80392 0.4808 0.84083 0.0
H1240 H 0.82899 0.4819 0.75252 0.0
H1241 H 0.84158 0.49454 0.79648 0.0
H1242 H 0.77128 0.54027 0.80396 0.0
H1243 H 0.75806 0.52709 0.76013 0.0
C1244 C 0.82412 0.54787 0.86854 0.0
C1245 C 0.82135 0.52638 0.88548 0.0
C1246 C 0.8193 0.54532 0.84186 0.0
C1247 C 0.81223 0.52112 0.83161 0.0
C1248 C 0.80953 0.49962 0.84842 0.0
C1249 C 0.81377 0.50228 0.87518 0.0
C1250 C 0.81666 0.49551 0.76301 0.0
C1251 C 0.79244 0.50344 0.75282 0.0
C1252 C 0.82379 0.50247 0.78829 0.0
C1253 C 0.8072 0.51805 0.8035 0.0
C1254 C 0.78431 0.52819 0.79248 0.0
C1255 C 0.77687 0.52079 0.76737 0.0
H1256 H 0.76661 0.58962 0.13203 0.0
H1257 H 0.68436 0.5928 0.11453 0.0
H1258 H 0.7764 0.58184 0.08634 0.0
H1259 H 0.69435 0.58424 0.06836 0.0
H1260 H 0.73879 0.52499 0.00541 0.0
H1261 H 0.7181 0.54263 0.04457 0.0
H1262 H 0.7701 0.60838 0.04201 0.0
H1263 H 0.79066 0.59109 0.0028 0.0
C1264 C 0.75058 0.58853 0.11843 0.0
C1265 C 0.72469 0.59168 0.12691 0.0
C1266 C 0.75623 0.58437 0.0922 0.0
C1267 C 0.73614 0.58282 0.07383 0.0
C1268 C 0.71016 0.58561 0.08219 0.0
C1269 C 0.70449 0.5904 0.10852 0.0
C1270 C 0.7451 0.54376 0.01255 0.0
C1271 C 0.7667 0.55639 0.00124 0.0
C1272 C 0.73321 0.55384 0.03496 0.0
C1273 C 0.74288 0.57655 0.04649 0.0
C1274 C 0.76249 0.59066 0.03357 0.0
C1275 C 0.77415 0.5808 0.01101 0.0
H1276 H 0.48327 0.62699 0.73024 0.0
H1277 H 0.43134 0.59944 0.79066 0.0
H1278 H 0.49396 0.582 0.71888 0.0
H1279 H 0.44171 0.55427 0.77886 0.0
H1280 H 0.44099 0.48582 0.7135 0.0
H1281 H 0.43284 0.52699 0.73625 0.0
H1282 H 0.51556 0.54111 0.73936 0.0
H1283 H 0.52385 0.50007 0.71717 0.0
C1284 C 0.47442 0.61133 0.74133 0.0
C1285 C 0.45654 0.6168 0.7614 0.0
C1286 C 0.48058 0.58555 0.73487 0.0
C1287 C 0.46864 0.56462 0.74799 0.0
C1288 C 0.45114 0.57002 0.76841 0.0
C1289 C 0.44538 0.59587 0.77525 0.0
C1290 C 0.45747 0.49725 0.71981 0.0
C1291 C 0.48305 0.48972 0.71317 0.0
C1292 C 0.45279 0.52088 0.73278 0.0
C1293 C 0.47358 0.53745 0.73913 0.0
C1294 C 0.49916 0.52892 0.73433 0.0
C1295 C 0.50386 0.50529 0.7217 0.0
loop_
_geom_bond_atom_site_label_1
_geom_bond_atom_site_label_2
_geom_bond_distance
_geom_bond_site_symmetry_2
_ccdc_geom_bond_type
C0 O2 1.247 . S
C0 O4 1.258 . S
C1 O8 1.247 . S
C1 O9 1.258 . S
O2 C0 1.247 . S
O2 Zn3 2.028 . S
Zn3 O2 2.028 . S
Zn3 O7 2.035 . S
Zn3 O9 2.035 . S
Zn3 O10 2.028 . S
O4 C0 1.258 . S
O4 Zn5 2.035 . S
Zn5 O4 2.035 . S
Zn5 O6 2.028 . S
Zn5 O8 2.028 . S
Zn5 O11 2.035 . S
O6 Zn5 2.028 . S
O6 C12 1.247 . S
O7 Zn3 2.035 . S
O7 C12 1.258 . S
O8 C1 1.247 . S
O8 Zn5 2.028 . S
O9 C1 1.258 . S
O9 Zn3 2.035 . S
O10 Zn3 2.028 . S
O10 C13 1.247 . S
O11 Zn5 2.035 . S
O11 C13 1.258 . S
C12 O6 1.247 . S
C12 O7 1.258 . S
C13 O10 1.247 . S
C13 O11 1.258 . S
C14 O16 1.247 . S
C14 O18 1.258 . S
C15 O22 1.247 . S
C15 O23 1.258 . S
O16 C14 1.247 . S
O16 Zn17 2.028 . S
Zn17 O16 2.028 . S
Zn17 O21 2.035 1_455 S
Zn17 O23 2.035 1_455 S
Zn17 O24 2.028 . S
O18 C14 1.258 . S
O18 Zn19 2.035 1_455 S
Zn19 O18 2.035 1_655 S
Zn19 O20 2.028 . S
Zn19 O22 2.028 . S
Zn19 O25 2.035 1_655 S
O20 Zn19 2.028 . S
O20 C26 1.247 . S
O21 Zn17 2.035 1_655 S
O21 C26 1.258 . S
O22 C15 1.247 . S
O22 Zn19 2.028 . S
O23 C15 1.258 . S
O23 Zn17 2.035 1_655 S
O24 Zn17 2.028 . S
O24 C27 1.247 . S
O25 Zn19 2.035 1_455 S
O25 C27 1.258 . S
C26 O20 1.247 . S
C26 O21 1.258 . S
C27 O24 1.247 . S
C27 O25 1.258 . S
C28 O30 1.247 . S
C28 O32 1.258 . S
C29 O36 1.247 . S
C29 O37 1.258 . S
O30 C28 1.247 . S
O30 Zn31 2.028 . S
Zn31 O30 2.028 . S
Zn31 O35 2.035 . S
Zn31 O37 2.035 . S
Zn31 O38 2.028 . S
O32 C28 1.258 . S
O32 Zn33 2.035 . S
Zn33 O32 2.035 . S
Zn33 O34 2.028 . S
Zn33 O36 2.028 . S
Zn33 O39 2.035 . S
O34 Zn33 2.028 . S
O34 C40 1.247 . S
O35 Zn31 2.035 . S
O35 C40 1.258 . S
O36 C29 1.247 . S
O36 Zn33 2.028 . S
O37 C29 1.258 . S
O37 Zn31 2.035 . S
O38 Zn31 2.028 . S
O38 C41 1.247 . S
O39 Zn33 2.035 . S
O39 C41 1.258 . S
C40 O34 1.247 . S
C40 O35 1.258 . S
C41 O38 1.247 . S
C41 O39 1.258 . S
C42 O44 1.247 1_556 S
C42 O46 1.258 . S
C43 O50 1.247 1_554 S
C43 O51 1.258 . S
O44 C42 1.247 1_554 S
O44 Zn45 2.028 . S
Zn45 O44 2.028 . S
Zn45 O49 2.035 . S
Zn45 O51 2.035 . S
Zn45 O52 2.028 1_554 S
O46 C42 1.258 . S
O46 Zn47 2.035 . S
Zn47 O46 2.035 . S
Zn47 O48 2.028 1_556 S
Zn47 O50 2.028 . S
Zn47 O53 2.035 . S
O48 Zn47 2.028 1_554 S
O48 C54 1.247 . S
O49 Zn45 2.035 . S
O49 C54 1.258 . S
O50 C43 1.247 1_556 S
O50 Zn47 2.028 . S
O51 C43 1.258 . S
O51 Zn45 2.035 . S
O52 Zn45 2.028 1_556 S
O52 C55 1.247 . S
O53 Zn47 2.035 . S
O53 C55 1.258 . S
C54 O48 1.247 . S
C54 O49 1.258 . S
C55 O52 1.247 . S
C55 O53 1.258 . S
C56 O58 1.247 . S
C56 O60 1.258 1_655 S
C57 O64 1.247 . S
C57 O65 1.258 1_455 S
O58 C56 1.247 . S
O58 Zn59 2.028 1_565 S
Zn59 O58 2.028 1_545 S
Zn59 O63 2.035 1_655 S
Zn59 O65 2.035 . S
Zn59 O66 2.028 1_545 S
O60 C56 1.258 1_455 S
O60 Zn61 2.035 . S
Zn61 O60 2.035 . S
Zn61 O62 2.028 1_565 S
Zn61 O64 2.028 1_565 S
Zn61 O67 2.035 1_455 S
O62 Zn61 2.028 1_545 S
O62 C68 1.247 . S
O63 Zn59 2.035 1_455 S
O63 C68 1.258 . S
O64 C57 1.247 . S
O64 Zn61 2.028 1_545 S
O65 C57 1.258 1_655 S
O65 Zn59 2.035 . S
O66 Zn59 2.028 1_565 S
O66 C69 1.247 . S
O67 Zn61 2.035 1_655 S
O67 C69 1.258 . S
C68 O62 1.247 . S
C68 O63 1.258 . S
C69 O66 1.247 . S
C69 O67 1.258 . S
C70 O72 1.247 . S
C70 O74 1.258 . S
C71 O78 1.247 . S
C71 O79 1.258 . S
O72 C70 1.247 . S
O72 Zn73 2.028 . S
Zn73 O72 2.028 . S
Zn73 O77 2.035 . S
Zn73 O79 2.035 . S
Zn73 O80 2.028 . S
O74 C70 1.258 . S
O74 Zn75 2.035 . S
Zn75 O74 2.035 . S
Zn75 O76 2.028 . S
Zn75 O78 2.028 . S
Zn75 O81 2.035 . S
O76 Zn75 2.028 . S
O76 C82 1.247 . S
O77 Zn73 2.035 . S
O77 C82 1.258 . S
O78 C71 1.247 . S
O78 Zn75 2.028 . S
O79 C71 1.258 . S
O79 Zn73 2.035 . S
O80 Zn73 2.028 . S
O80 C83 1.247 . S
O81 Zn75 2.035 . S
O81 C83 1.258 . S
C82 O76 1.247 . S
C82 O77 1.258 . S
C83 O80 1.247 . S
C83 O81 1.258 . S
C84 O86 1.247 . S
C84 O88 1.258 . S
C85 O92 1.247 . S
C85 O93 1.258 . S
O86 C84 1.247 . S
O86 Zn87 2.028 . S
Zn87 O86 2.028 . S
Zn87 O91 2.035 1_565 S
Zn87 O93 2.035 1_565 S
Zn87 O94 2.028 . S
O88 C84 1.258 . S
O88 Zn89 2.035 1_565 S
Zn89 O88 2.035 1_545 S
Zn89 O90 2.028 . S
Zn89 O92 2.028 . S
Zn89 O95 2.035 1_545 S
O90 Zn89 2.028 . S
O90 C96 1.247 . S
O91 Zn87 2.035 1_545 S
O91 C96 1.258 . S
O92 C85 1.247 . S
O92 Zn89 2.028 . S
O93 C85 1.258 . S
O93 Zn87 2.035 1_545 S
O94 Zn87 2.028 . S
O94 C97 1.247 . S
O95 Zn89 2.035 1_565 S
O95 C97 1.258 . S
C96 O90 1.247 . S
C96 O91 1.258 . S
C97 O94 1.247 . S
C97 O95 1.258 . S
C98 O100 1.247 . S
C98 O102 1.258 . S
C99 O106 1.247 . S
C99 O107 1.258 . S
O100 C98 1.247 . S
O100 Zn101 2.028 . S
Zn101 O100 2.028 . S
Zn101 O105 2.035 . S
Zn101 O107 2.035 . S
Zn101 O108 2.028 . S
O102 C98 1.258 . S
O102 Zn103 2.035 . S
Zn103 O102 2.035 . S
Zn103 O104 2.028 . S
Zn103 O106 2.028 . S
Zn103 O109 2.035 . S
O104 Zn103 2.028 . S
O104 C110 1.247 . S
O105 Zn101 2.035 . S
O105 C110 1.258 . S
O106 C99 1.247 . S
O106 Zn103 2.028 . S
O107 C99 1.258 . S
O107 Zn101 2.035 . S
O108 Zn101 2.028 . S
O108 C111 1.247 . S
O109 Zn103 2.035 . S
O109 C111 1.258 . S
C110 O104 1.247 . S
C110 O105 1.258 . S
C111 O108 1.247 . S
C111 O109 1.258 . S
C112 O114 1.247 . S
C112 O116 1.258 . S
C113 O120 1.247 . S
C113 O121 1.258 . S
O114 C112 1.247 . S
O114 Zn115 2.028 . S
Zn115 O114 2.028 . S
Zn115 O119 2.035 . S
Zn115 O121 2.035 . S
Zn115 O122 2.028 . S
O116 C112 1.258 . S
O116 Zn117 2.035 . S
Zn117 O116 2.035 . S
Zn117 O118 2.028 . S
Zn117 O120 2.028 . S
Zn117 O123 2.035 . S
O118 Zn117 2.028 . S
O118 C124 1.247 . S
O119 Zn115 2.035 . S
O119 C124 1.258 . S
O120 C113 1.247 . S
O120 Zn117 2.028 . S
O121 C113 1.258 . S
O121 Zn115 2.035 . S
O122 Zn115 2.028 . S
O122 C125 1.247 . S
O123 Zn117 2.035 . S
O123 C125 1.258 . S
C124 O118 1.247 . S
C124 O119 1.258 . S
C125 O122 1.247 . S
C125 O123 1.258 . S
C126 O128 1.247 . S
C126 O130 1.258 . S
C127 O134 1.247 . S
C127 O135 1.258 . S
O128 C126 1.247 . S
O128 Zn129 2.028 . S
Zn129 O128 2.028 . S
Zn129 O133 2.035 . S
Zn129 O135 2.035 1_565 S
Zn129 O136 2.028 . S
O130 C126 1.258 . S
O130 Zn131 2.035 1_565 S
Zn131 O130 2.035 1_545 S
Zn131 O132 2.028 . S
Zn131 O134 2.028 . S
Zn131 O137 2.035 . S
O132 Zn131 2.028 . S
O132 C138 1.247 . S
O133 Zn129 2.035 . S
O133 C138 1.258 1_565 S
O134 C127 1.247 . S
O134 Zn131 2.028 . S
O135 C127 1.258 . S
O135 Zn129 2.035 1_545 S
O136 Zn129 2.028 . S
O136 C139 1.247 . S
O137 Zn131 2.035 . S
O137 C139 1.258 1_545 S
C138 O132 1.247 . S
C138 O133 1.258 1_545 S
C139 O136 1.247 . S
C139 O137 1.258 1_565 S
C140 O142 1.247 . S
C140 O144 1.258 . S
C141 O148 1.247 . S
C141 O149 1.258 . S
O142 C140 1.247 . S
O142 Zn143 2.028 . S
Zn143 O142 2.028 . S
Zn143 O147 2.035 . S
Zn143 O149 2.035 . S
Zn143 O150 2.028 . S
O144 C140 1.258 . S
O144 Zn145 2.035 . S
Zn145 O144 2.035 . S
Zn145 O146 2.028 . S
Zn145 O148 2.028 . S
Zn145 O151 2.035 . S
O146 Zn145 2.028 . S
O146 C152 1.247 . S
O147 Zn143 2.035 . S
O147 C152 1.258 . S
O148 C141 1.247 . S
O148 Zn145 2.028 . S
O149 C141 1.258 . S
O149 Zn143 2.035 . S
O150 Zn143 2.028 . S
O150 C153 1.247 . S
O151 Zn145 2.035 . S
O151 C153 1.258 . S
C152 O146 1.247 . S
C152 O147 1.258 . S
C153 O150 1.247 . S
C153 O151 1.258 . S
C154 O156 1.247 . S
C154 O158 1.258 . S
C155 O162 1.247 . S
C155 O163 1.258 . S
O156 C154 1.247 . S
O156 Zn157 2.028 1_554 S
Zn157 O156 2.028 1_556 S
Zn157 O161 2.035 . S
Zn157 O163 2.035 1_545 S
Zn157 O164 2.028 1_556 S
O158 C154 1.258 . S
O158 Zn159 2.035 1_545 S
Zn159 O158 2.035 1_565 S
Zn159 O160 2.028 1_554 S
Zn159 O162 2.028 1_554 S
Zn159 O165 2.035 . S
O160 Zn159 2.028 1_556 S
O160 C166 1.247 . S
O161 Zn157 2.035 . S
O161 C166 1.258 1_545 S
O162 C155 1.247 . S
O162 Zn159 2.028 1_556 S
O163 C155 1.258 . S
O163 Zn157 2.035 1_565 S
O164 Zn157 2.028 1_554 S
O164 C167 1.247 . S
O165 Zn159 2.035 . S
O165 C167 1.258 1_565 S
C166 O160 1.247 . S
C166 O161 1.258 1_565 S
C167 O164 1.247 . S
C167 O165 1.258 1_545 S
C168 O170 1.247 . S
C168 O172 1.258 . S
C169 O176 1.247 . S
C169 O177 1.258 . S
O170 C168 1.247 . S
O170 Zn171 2.028 . S
Zn171 O170 2.028 . S
Zn171 O175 2.035 . S
Zn171 O177 2.035 . S
Zn171 O178 2.028 . S
O172 C168 1.258 . S
O172 Zn173 2.035 . S
Zn173 O172 2.035 . S
Zn173 O174 2.028 . S
Zn173 O176 2.028 . S
Zn173 O179 2.035 . S
O174 Zn173 2.028 . S
O174 C180 1.247 . S
O175 Zn171 2.035 . S
O175 C180 1.258 . S
O176 C169 1.247 . S
O176 Zn173 2.028 . S
O177 C169 1.258 . S
O177 Zn171 2.035 . S
O178 Zn171 2.028 . S
O178 C181 1.247 . S
O179 Zn173 2.035 . S
O179 C181 1.258 . S
C180 O174 1.247 . S
C180 O175 1.258 . S
C181 O178 1.247 . S
C181 O179 1.258 . S
C182 O184 1.247 . S
C182 O186 1.258 1_455 S
C183 O190 1.247 . S
C183 O191 1.258 1_655 S
O184 C182 1.247 . S
O184 Zn185 2.028 . S
Zn185 O184 2.028 . S
Zn185 O189 2.035 1_455 S
Zn185 O191 2.035 . S
Zn185 O192 2.028 . S
O186 C182 1.258 1_655 S
O186 Zn187 2.035 . S
Zn187 O186 2.035 . S
Zn187 O188 2.028 . S
Zn187 O190 2.028 . S
Zn187 O193 2.035 1_655 S
O188 Zn187 2.028 . S
O188 C194 1.247 . S
O189 Zn185 2.035 1_655 S
O189 C194 1.258 . S
O190 C183 1.247 . S
O190 Zn187 2.028 . S
O191 C183 1.258 1_455 S
O191 Zn185 2.035 . S
O192 Zn185 2.028 . S
O192 C195 1.247 . S
O193 Zn187 2.035 1_455 S
O193 C195 1.258 . S
C194 O188 1.247 . S
C194 O189 1.258 . S
C195 O192 1.247 . S
C195 O193 1.258 . S
C196 O198 1.247 . S
C196 O200 1.258 . S
C197 O204 1.247 . S
C197 O205 1.258 . S
O198 C196 1.247 . S
O198 Zn199 2.028 . S
Zn199 O198 2.028 . S
Zn199 O203 2.035 . S
Zn199 O205 2.035 . S
Zn199 O206 2.028 . S
O200 C196 1.258 . S
O200 Zn201 2.035 . S
Zn201 O200 2.035 . S
Zn201 O202 2.028 . S
Zn201 O204 2.028 . S
Zn201 O207 2.035 . S
O202 Zn201 2.028 . S
O202 C208 1.247 . S
O203 Zn199 2.035 . S
O203 C208 1.258 . S
O204 C197 1.247 . S
O204 Zn201 2.028 . S
O205 C197 1.258 . S
O205 Zn199 2.035 . S
O206 Zn199 2.028 . S
O206 C209 1.247 . S
O207 Zn201 2.035 . S
O207 C209 1.258 . S
C208 O202 1.247 . S
C208 O203 1.258 . S
C209 O206 1.247 . S
C209 O207 1.258 . S
C210 O212 1.247 . S
C210 O214 1.258 . S
C211 O218 1.247 . S
C211 O219 1.258 . S
O212 C210 1.247 . S
O212 Zn213 2.028 . S
Zn213 O212 2.028 . S
Zn213 O217 2.035 . S
Zn213 O219 2.035 . S
Zn213 O220 2.028 . S
O214 C210 1.258 . S
O214 Zn215 2.035 . S
Zn215 O214 2.035 . S
Zn215 O216 2.028 . S
Zn215 O218 2.028 . S
Zn215 O221 2.035 . S
O216 Zn215 2.028 . S
O216 C222 1.247 . S
O217 Zn213 2.035 . S
O217 C222 1.258 . S
O218 C211 1.247 . S
O218 Zn215 2.028 . S
O219 C211 1.258 . S
O219 Zn213 2.035 . S
O220 Zn213 2.028 . S
O220 C223 1.247 . S
O221 Zn215 2.035 . S
O221 C223 1.258 . S
C222 O216 1.247 . S
C222 O217 1.258 . S
C223 O220 1.247 . S
C223 O221 1.258 . S
C224 O226 1.247 . S
C224 O228 1.258 . S
C225 O232 1.247 . S
C225 O233 1.258 . S
O226 C224 1.247 . S
O226 Zn227 2.028 . S
Zn227 O226 2.028 . S
Zn227 O231 2.035 . S
Zn227 O233 2.035 . S
Zn227 O234 2.028 . S
O228 C224 1.258 . S
O228 Zn229 2.035 . S
Zn229 O228 2.035 . S
Zn229 O230 2.028 . S
Zn229 O232 2.028 . S
Zn229 O235 2.035 . S
O230 Zn229 2.028 . S
O230 C236 1.247 . S
O231 Zn227 2.035 . S
O231 C236 1.258 . S
O232 C225 1.247 . S
O232 Zn229 2.028 . S
O233 C225 1.258 . S
O233 Zn227 2.035 . S
O234 Zn227 2.028 . S
O234 C237 1.247 . S
O235 Zn229 2.035 . S
O235 C237 1.258 . S
C236 O230 1.247 . S
C236 O231 1.258 . S
C237 O234 1.247 . S
C237 O235 1.258 . S
C238 O240 1.247 . S
C238 O242 1.258 . S
C239 O246 1.247 . S
C239 O247 1.258 . S
O240 C238 1.247 . S
O240 Zn241 2.028 . S
Zn241 O240 2.028 . S
Zn241 O245 2.035 . S
Zn241 O247 2.035 . S
Zn241 O248 2.028 . S
O242 C238 1.258 . S
O242 Zn243 2.035 . S
Zn243 O242 2.035 . S
Zn243 O244 2.028 . S
Zn243 O246 2.028 . S
Zn243 O249 2.035 . S
O244 Zn243 2.028 . S
O244 C250 1.247 . S
O245 Zn241 2.035 . S
O245 C250 1.258 . S
O246 C239 1.247 . S
O246 Zn243 2.028 . S
O247 C239 1.258 . S
O247 Zn241 2.035 . S
O248 Zn241 2.028 . S
O248 C251 1.247 . S
O249 Zn243 2.035 . S
O249 C251 1.258 . S
C250 O244 1.247 . S
C250 O245 1.258 . S
C251 O248 1.247 . S
C251 O249 1.258 . S
C252 O254 1.247 . S
C252 O256 1.258 . S
C253 O260 1.247 . S
C253 O261 1.258 . S
O254 C252 1.247 . S
O254 Zn255 2.028 1_556 S
Zn255 O254 2.028 1_554 S
Zn255 O259 2.035 1_655 S
Zn255 O261 2.035 1_655 S
Zn255 O262 2.028 . S
O256 C252 1.258 . S
O256 Zn257 2.035 1_655 S
Zn257 O256 2.035 1_455 S
Zn257 O258 2.028 . S
Zn257 O260 2.028 1_556 S
Zn257 O263 2.035 1_455 S
O258 Zn257 2.028 . S
O258 C264 1.247 1_556 S
O259 Zn255 2.035 1_455 S
O259 C264 1.258 . S
O260 C253 1.247 . S
O260 Zn257 2.028 1_554 S
O261 C253 1.258 . S
O261 Zn255 2.035 1_455 S
O262 Zn255 2.028 . S
O262 C265 1.247 1_554 S
O263 Zn257 2.035 1_655 S
O263 C265 1.258 . S
C264 O258 1.247 1_554 S
C264 O259 1.258 . S
C265 O262 1.247 1_556 S
C265 O263 1.258 . S
C266 O268 1.247 . S
C266 O270 1.258 . S
C267 O274 1.247 . S
C267 O275 1.258 . S
O268 C266 1.247 . S
O268 Zn269 2.028 . S
Zn269 O268 2.028 . S
Zn269 O273 2.035 . S
Zn269 O275 2.035 . S
Zn269 O276 2.028 . S
O270 C266 1.258 . S
O270 Zn271 2.035 . S
Zn271 O270 2.035 . S
Zn271 O272 2.028 . S
Zn271 O274 2.028 . S
Zn271 O277 2.035 . S
O272 Zn271 2.028 . S
O272 C278 1.247 . S
O273 Zn269 2.035 . S
O273 C278 1.258 . S
O274 C267 1.247 . S
O274 Zn271 2.028 . S
O275 C267 1.258 . S
O275 Zn269 2.035 . S
O276 Zn269 2.028 . S
O276 C279 1.247 . S
O277 Zn271 2.035 . S
O277 C279 1.258 . S
C278 O272 1.247 . S
C278 O273 1.258 . S
C279 O276 1.247 . S
C279 O277 1.258 . S
C280 O282 1.247 . S
C280 O284 1.258 . S
C281 O288 1.247 . S
C281 O289 1.258 . S
O282 C280 1.247 . S
O282 Zn283 2.028 . S
Zn283 O282 2.028 . S
Zn283 O287 2.035 . S
Zn283 O289 2.035 . S
Zn283 O290 2.028 . S
O284 C280 1.258 . S
O284 Zn285 2.035 . S
Zn285 O284 2.035 . S
Zn285 O286 2.028 . S
Zn285 O288 2.028 . S
Zn285 O291 2.035 . S
O286 Zn285 2.028 . S
O286 C292 1.247 . S
O287 Zn283 2.035 . S
O287 C292 1.258 . S
O288 C281 1.247 . S
O288 Zn285 2.028 . S
O289 C281 1.258 . S
O289 Zn283 2.035 . S
O290 Zn283 2.028 . S
O290 C293 1.247 . S
O291 Zn285 2.035 . S
O291 C293 1.258 . S
C292 O286 1.247 . S
C292 O287 1.258 . S
C293 O290 1.247 . S
C293 O291 1.258 . S
C294 O296 1.247 . S
C294 O298 1.258 . S
C295 O302 1.247 . S
C295 O303 1.258 . S
O296 C294 1.247 . S
O296 Zn297 2.028 . S
Zn297 O296 2.028 . S
Zn297 O301 2.035 . S
Zn297 O303 2.035 . S
Zn297 O304 2.028 . S
O298 C294 1.258 . S
O298 Zn299 2.035 . S
Zn299 O298 2.035 . S
Zn299 O300 2.028 . S
Zn299 O302 2.028 . S
Zn299 O305 2.035 . S
O300 Zn299 2.028 . S
O300 C306 1.247 . S
O301 Zn297 2.035 . S
O301 C306 1.258 . S
O302 C295 1.247 . S
O302 Zn299 2.028 . S
O303 C295 1.258 . S
O303 Zn297 2.035 . S
O304 Zn297 2.028 . S
O304 C307 1.247 . S
O305 Zn299 2.035 . S
O305 C307 1.258 . S
C306 O300 1.247 . S
C306 O301 1.258 . S
C307 O304 1.247 . S
C307 O305 1.258 . S
C308 O310 1.247 . S
C308 O312 1.258 . S
C309 O316 1.247 . S
C309 O317 1.258 . S
O310 C308 1.247 . S
O310 Zn311 2.028 1_556 S
Zn311 O310 2.028 1_554 S
Zn311 O315 2.035 . S
Zn311 O317 2.035 . S
Zn311 O318 2.028 1_554 S
O312 C308 1.258 . S
O312 Zn313 2.035 . S
Zn313 O312 2.035 . S
Zn313 O314 2.028 1_556 S
Zn313 O316 2.028 1_556 S
Zn313 O319 2.035 . S
O314 Zn313 2.028 1_554 S
O314 C320 1.247 . S
O315 Zn311 2.035 . S
O315 C320 1.258 . S
O316 C309 1.247 . S
O316 Zn313 2.028 1_554 S
O317 C309 1.258 . S
O317 Zn311 2.035 . S
O318 Zn311 2.028 1_556 S
O318 C321 1.247 . S
O319 Zn313 2.035 . S
O319 C321 1.258 . S
C320 O314 1.247 . S
C320 O315 1.258 . S
C321 O318 1.247 . S
C321 O319 1.258 . S
C322 O324 1.247 . S
C322 O326 1.258 . S
C323 O330 1.247 . S
C323 O331 1.258 . S
O324 C322 1.247 . S
O324 Zn325 2.028 . S
Zn325 O324 2.028 . S
Zn325 O329 2.035 . S
Zn325 O331 2.035 . S
Zn325 O332 2.028 . S
O326 C322 1.258 . S
O326 Zn327 2.035 . S
Zn327 O326 2.035 . S
Zn327 O328 2.028 . S
Zn327 O330 2.028 . S
Zn327 O333 2.035 . S
O328 Zn327 2.028 . S
O328 C334 1.247 . S
O329 Zn325 2.035 . S
O329 C334 1.258 . S
O330 C323 1.247 . S
O330 Zn327 2.028 . S
O331 C323 1.258 . S
O331 Zn325 2.035 . S
O332 Zn325 2.028 . S
O332 C335 1.247 . S
O333 Zn327 2.035 . S
O333 C335 1.258 . S
C334 O328 1.247 . S
C334 O329 1.258 . S
C335 O332 1.247 . S
C335 O333 1.258 . S
H336 C344 0.950 . S
H337 C349 0.950 . S
H338 C346 0.950 . S
H339 C348 0.950 . S
H340 C350 0.950 . S
H341 C352 0.950 . S
H342 C354 0.950 . S
H343 C355 0.950 . S
C344 H336 0.950 . S
C344 C345 1.386 . S
C344 C346 1.391 . S
C345 C344 1.386 . S
C345 C349 1.393 . S
C346 H338 0.950 . S
C346 C344 1.391 . S
C346 C347 1.400 . S
C347 C346 1.400 . S
C347 C348 1.398 . S
C347 C353 1.491 . S
C348 H339 0.950 . S
C348 C347 1.398 . S
C348 C349 1.391 . S
C349 H337 0.950 . S
C349 C345 1.393 . S
C349 C348 1.391 . S
C350 H340 0.950 . S
C350 C351 1.386 . S
C350 C352 1.391 . S
C351 C350 1.386 . S
C351 C355 1.393 . S
C352 H341 0.950 . S
C352 C350 1.391 . S
C352 C353 1.400 . S
C353 C347 1.491 . S
C353 C352 1.400 . S
C353 C354 1.398 . S
C354 H342 0.950 . S
C354 C353 1.398 . S
C354 C355 1.391 . S
C355 H343 0.950 . S
C355 C351 1.393 . S
C355 C354 1.391 . S
H356 C364 0.950 . S
H357 C369 0.950 . S
H358 C366 0.950 . S
H359 C368 0.950 . S
H360 C370 0.950 . S
H361 C372 0.950 . S
H362 C374 0.950 1_455 S
H363 C375 0.950 1_455 S
C364 H356 0.950 . S
C364 C365 1.386 . S
C364 C366 1.391 . S
C365 C364 1.386 . S
C365 C369 1.393 . S
C366 H358 0.950 . S
C366 C364 1.391 . S
C366 C367 1.400 . S
C367 C366 1.400 . S
C367 C368 1.398 . S
C367 C373 1.491 . S
C368 H359 0.950 . S
C368 C367 1.398 . S
C368 C369 1.391 . S
C369 H357 0.950 . S
C369 C365 1.393 . S
C369 C368 1.391 . S
C370 H360 0.950 . S
C370 C371 1.386 . S
C370 C372 1.391 . S
C371 C370 1.386 . S
C371 C375 1.393 . S
C372 H361 0.950 . S
C372 C370 1.391 . S
C372 C373 1.400 . S
C373 C367 1.491 . S
C373 C372 1.400 . S
C373 C374 1.398 . S
C374 H362 0.950 1_655 S
C374 C373 1.398 . S
C374 C375 1.391 . S
C375 H363 0.950 1_655 S
C375 C371 1.393 . S
C375 C374 1.391 . S
H376 C384 0.950 . S
H377 C389 0.950 . S
H378 C386 0.950 . S
H379 C388 0.950 . S
H380 C390 0.950 . S
H381 C392 0.950 . S
H382 C394 0.950 . S
H383 C395 0.950 . S
C384 H376 0.950 . S
C384 C385 1.386 . S
C384 C386 1.391 . S
C385 C384 1.386 . S
C385 C389 1.393 . S
C386 H378 0.950 . S
C386 C384 1.391 . S
C386 C387 1.400 . S
C387 C386 1.400 . S
C387 C388 1.398 . S
C387 C393 1.491 . S
C388 H379 0.950 . S
C388 C387 1.398 . S
C388 C389 1.391 . S
C389 H377 0.950 . S
C389 C385 1.393 . S
C389 C388 1.391 . S
C390 H380 0.950 . S
C390 C391 1.386 . S
C390 C392 1.391 . S
C391 C390 1.386 . S
C391 C395 1.393 . S
C392 H381 0.950 . S
C392 C390 1.391 . S
C392 C393 1.400 . S
C393 C387 1.491 . S
C393 C392 1.400 . S
C393 C394 1.398 . S
C394 H382 0.950 . S
C394 C393 1.398 . S
C394 C395 1.391 . S
C395 H383 0.950 . S
C395 C391 1.393 . S
C395 C394 1.391 . S
H396 C404 0.950 . S
H397 C409 0.950 . S
H398 C406 0.950 . S
H399 C408 0.950 . S
H400 C410 0.950 . S
H401 C412 0.950 . S
H402 C414 0.950 . S
H403 C415 0.950 . S
C404 H396 0.950 . S
C404 C405 1.386 . S
C404 C406 1.391 . S
C405 C404 1.386 . S
C405 C409 1.393 . S
C406 H398 0.950 . S
C406 C404 1.391 . S
C406 C407 1.400 . S
C407 C406 1.400 . S
C407 C408 1.398 . S
C407 C413 1.491 . S
C408 H399 0.950 . S
C408 C407 1.398 . S
C408 C409 1.391 . S
C409 H397 0.950 . S
C409 C405 1.393 . S
C409 C408 1.391 . S
C410 H400 0.950 . S
C410 C411 1.386 . S
C410 C412 1.391 . S
C411 C410 1.386 . S
C411 C415 1.393 . S
C412 H401 0.950 . S
C412 C410 1.391 . S
C412 C413 1.400 . S
C413 C407 1.491 . S
C413 C412 1.400 . S
C413 C414 1.398 . S
C414 H402 0.950 . S
C414 C413 1.398 . S
C414 C415 1.391 . S
C415 H403 0.950 . S
C415 C411 1.393 . S
C415 C414 1.391 . S
H416 C424 0.950 . S
H417 C429 0.950 . S
H418 C426 0.950 . S
H419 C428 0.950 . S
H420 C430 0.950 . S
H421 C432 0.950 . S
H422 C434 0.950 . S
H423 C435 0.950 . S
C424 H416 0.950 . S
C424 C425 1.386 . S
C424 C426 1.391 . S
C425 C424 1.386 . S
C425 C429 1.393 . S
C426 H418 0.950 . S
C426 C424 1.391 . S
C426 C427 1.400 . S
C427 C426 1.400 . S
C427 C428 1.398 . S
C427 C433 1.491 . S
C428 H419 0.950 . S
C428 C427 1.398 . S
C428 C429 1.391 . S
C429 H417 0.950 . S
C429 C425 1.393 . S
C429 C428 1.391 . S
C430 H420 0.950 . S
C430 C431 1.386 . S
C430 C432 1.391 . S
C431 C430 1.386 . S
C431 C435 1.393 . S
C432 H421 0.950 . S
C432 C430 1.391 . S
C432 C433 1.400 . S
C433 C427 1.491 . S
C433 C432 1.400 . S
C433 C434 1.398 . S
C434 H422 0.950 . S
C434 C433 1.398 . S
C434 C435 1.391 . S
C435 H423 0.950 . S
C435 C431 1.393 . S
C435 C434 1.391 . S
H436 C444 0.950 . S
H437 C449 0.950 . S
H438 C446 0.950 . S
H439 C448 0.950 . S
H440 C450 0.950 . S
H441 C452 0.950 . S
H442 C454 0.950 . S
H443 C455 0.950 . S
C444 H436 0.950 . S
C444 C445 1.386 . S
C444 C446 1.391 . S
C445 C444 1.386 . S
C445 C449 1.393 . S
C446 H438 0.950 . S
C446 C444 1.391 . S
C446 C447 1.400 . S
C447 C446 1.400 . S
C447 C448 1.398 . S
C447 C453 1.491 . S
C448 H439 0.950 . S
C448 C447 1.398 . S
C448 C449 1.391 . S
C449 H437 0.950 . S
C449 C445 1.393 . S
C449 C448 1.391 . S
C450 H440 0.950 . S
C450 C451 1.386 . S
C450 C452 1.391 . S
C451 C450 1.386 . S
C451 C455 1.393 . S
C452 H441 0.950 . S
C452 C450 1.391 . S
C452 C453 1.400 . S
C453 C447 1.491 . S
C453 C452 1.400 . S
C453 C454 1.398 . S
C454 H442 0.950 . S
C454 C453 1.398 . S
C454 C455 1.391 . S
C455 H443 0.950 . S
C455 C451 1.393 . S
C455 C454 1.391 . S
H456 C464 0.950 . S
H457 C469 0.950 . S
H458 C466 0.950 . S
H459 C468 0.950 . S
H460 C470 0.950 . S
H461 C472 0.950 . S
H462 C474 0.950 . S
H463 C475 0.950 . S
C464 H456 0.950 . S
C464 C465 1.386 . S
C464 C466 1.391 . S
C465 C464 1.386 . S
C465 C469 1.393 . S
C466 H458 0.950 . S
C466 C464 1.391 . S
C466 C467 1.400 . S
C467 C466 1.400 . S
C467 C468 1.398 . S
C467 C473 1.491 . S
C468 H459 0.950 . S
C468 C467 1.398 . S
C468 C469 1.391 . S
C469 H457 0.950 . S
C469 C465 1.393 . S
C469 C468 1.391 . S
C470 H460 0.950 . S
C470 C471 1.386 . S
C470 C472 1.391 . S
C471 C470 1.386 . S
C471 C475 1.393 . S
C472 H461 0.950 . S
C472 C470 1.391 . S
C472 C473 1.400 . S
C473 C467 1.491 . S
C473 C472 1.400 . S
C473 C474 1.398 . S
C474 H462 0.950 . S
C474 C473 1.398 . S
C474 C475 1.391 . S
C475 H463 0.950 . S
C475 C471 1.393 . S
C475 C474 1.391 . S
H476 C484 0.950 . S
H477 C489 0.950 . S
H478 C486 0.950 . S
H479 C488 0.950 . S
H480 C490 0.950 1_556 S
H481 C492 0.954 . S
H482 C494 0.950 . S
H483 C495 0.950 . S
C484 H476 0.950 . S
C484 C485 1.386 . S
C484 C486 1.391 . S
C485 C484 1.386 . S
C485 C489 1.393 . S
C486 H478 0.950 . S
C486 C484 1.391 . S
C486 C487 1.400 . S
C487 C486 1.400 . S
C487 C488 1.398 . S
C487 C493 1.491 . S
C488 H479 0.950 . S
C488 C487 1.398 . S
C488 C489 1.391 . S
C489 H477 0.950 . S
C489 C485 1.393 . S
C489 C488 1.391 . S
C490 H480 0.950 1_554 S
C490 C491 1.386 . S
C490 C492 1.391 . S
C491 C490 1.386 . S
C491 C495 1.393 . S
C492 H481 0.954 . S
C492 C490 1.391 . S
C492 C493 1.400 . S
C493 C487 1.491 . S
C493 C492 1.400 . S
C493 C494 1.398 . S
C494 H482 0.950 . S
C494 C493 1.398 . S
C494 C495 1.391 . S
C495 H483 0.950 . S
C495 C491 1.393 . S
C495 C494 1.391 . S
H496 C504 0.950 . S
H497 C509 0.950 . S
H498 C506 0.950 . S
H499 C508 0.950 . S
H500 C510 0.950 . S
H501 C512 0.950 . S
H502 C514 0.950 . S
H503 C515 0.950 . S
C504 H496 0.950 . S
C504 C505 1.386 . S
C504 C506 1.391 . S
C505 C504 1.386 . S
C505 C509 1.393 1_545 S
C506 H498 0.950 . S
C506 C504 1.391 . S
C506 C507 1.400 . S
C507 C506 1.400 . S
C507 C508 1.398 1_545 S
C507 C513 1.491 . S
C508 H499 0.950 . S
C508 C507 1.398 1_565 S
C508 C509 1.391 . S
C509 H497 0.950 . S
C509 C505 1.393 1_565 S
C509 C508 1.391 . S
C510 H500 0.950 . S
C510 C511 1.386 1_565 S
C510 C512 1.391 . S
C511 C510 1.386 1_545 S
C511 C515 1.393 . S
C512 H501 0.950 . S
C512 C510 1.391 . S
C512 C513 1.400 1_565 S
C513 C507 1.491 . S
C513 C512 1.400 1_545 S
C513 C514 1.398 . S
C514 H502 0.950 . S
C514 C513 1.398 . S
C514 C515 1.391 . S
C515 H503 0.950 . S
C515 C511 1.393 . S
C515 C514 1.391 . S
H516 C524 0.950 . S
H517 C529 0.950 . S
H518 C526 0.950 . S
H519 C528 0.950 . S
H520 C530 0.950 . S
H521 C532 0.950 . S
H522 C534 0.950 . S
H523 C535 0.950 . S
C524 H516 0.950 . S
C524 C525 1.386 . S
C524 C526 1.391 . S
C525 C524 1.386 . S
C525 C529 1.393 . S
C526 H518 0.950 . S
C526 C524 1.391 . S
C526 C527 1.400 . S
C527 C526 1.400 . S
C527 C528 1.398 . S
C527 C533 1.491 . S
C528 H519 0.950 . S
C528 C527 1.398 . S
C528 C529 1.391 . S
C529 H517 0.950 . S
C529 C525 1.393 . S
C529 C528 1.391 . S
C530 H520 0.950 . S
C530 C531 1.386 . S
C530 C532 1.391 . S
C531 C530 1.386 . S
C531 C535 1.393 . S
C532 H521 0.950 . S
C532 C530 1.391 . S
C532 C533 1.400 . S
C533 C527 1.491 . S
C533 C532 1.400 . S
C533 C534 1.398 . S
C534 H522 0.950 . S
C534 C533 1.398 . S
C534 C535 1.391 . S
C535 H523 0.950 . S
C535 C531 1.393 . S
C535 C534 1.391 . S
H536 C544 0.950 . S
H537 C549 0.968 . S
H538 C546 0.950 . S
H539 C548 0.950 1_545 S
H540 C550 0.950 1_545 S
H541 C552 0.950 1_545 S
H542 C554 0.950 . S
H543 C555 0.950 . S
C544 H536 0.950 . S
C544 C545 1.386 . S
C544 C546 1.391 . S
C545 C544 1.386 . S
C545 C549 1.378 1_565 S
C546 H538 0.950 . S
C546 C544 1.391 . S
C546 C547 1.400 . S
C547 C546 1.400 . S
C547 C548 1.398 . S
C547 C553 1.491 . S
C548 H539 0.950 1_565 S
C548 C547 1.398 . S
C548 C549 1.389 1_565 S
C549 H537 0.968 . S
C549 C545 1.378 1_545 S
C549 C548 1.389 1_545 S
C550 H540 0.950 1_565 S
C550 C551 1.386 . S
C550 C552 1.391 . S
C551 C550 1.386 . S
C551 C555 1.393 . S
C552 H541 0.950 1_565 S
C552 C550 1.391 . S
C552 C553 1.400 . S
C553 C547 1.491 . S
C553 C552 1.400 . S
C553 C554 1.398 . S
C554 H542 0.950 . S
C554 C553 1.398 . S
C554 C555 1.391 . S
C555 H543 0.950 . S
C555 C551 1.393 . S
C555 C554 1.391 . S
H556 C564 0.950 . S
H557 C569 0.950 . S
H558 C566 0.950 . S
H559 C568 0.950 . S
H560 C570 0.950 . S
H561 C572 0.950 . S
H562 C574 0.950 . S
H563 C575 0.950 . S
C564 H556 0.950 . S
C564 C565 1.386 . S
C564 C566 1.391 . S
C565 C564 1.386 . S
C565 C569 1.393 . S
C566 H558 0.950 . S
C566 C564 1.391 . S
C566 C567 1.400 . S
C567 C566 1.400 . S
C567 C568 1.398 . S
C567 C573 1.491 . S
C568 H559 0.950 . S
C568 C567 1.398 . S
C568 C569 1.391 . S
C569 H557 0.950 . S
C569 C565 1.393 . S
C569 C568 1.391 . S
C570 H560 0.950 . S
C570 C571 1.386 . S
C570 C572 1.391 . S
C571 C570 1.386 . S
C571 C575 1.393 . S
C572 H561 0.950 . S
C572 C570 1.391 . S
C572 C573 1.400 . S
C573 C567 1.491 . S
C573 C572 1.400 . S
C573 C574 1.398 . S
C574 H562 0.950 . S
C574 C573 1.398 . S
C574 C575 1.391 . S
C575 H563 0.950 . S
C575 C571 1.393 . S
C575 C574 1.391 . S
H576 C584 0.950 . S
H577 C589 0.950 . S
H578 C586 0.950 . S
H579 C588 0.950 . S
H580 C590 0.950 . S
H581 C592 0.950 . S
H582 C594 0.950 . S
H583 C595 0.950 . S
C584 H576 0.950 . S
C584 C585 1.386 . S
C584 C586 1.391 . S
C585 C584 1.386 . S
C585 C589 1.393 . S
C586 H578 0.950 . S
C586 C584 1.391 . S
C586 C587 1.400 . S
C587 C586 1.400 . S
C587 C588 1.398 . S
C587 C593 1.491 . S
C588 H579 0.950 . S
C588 C587 1.398 . S
C588 C589 1.391 . S
C589 H577 0.950 . S
C589 C585 1.393 . S
C589 C588 1.391 . S
C590 H580 0.950 . S
C590 C591 1.386 . S
C590 C592 1.391 . S
C591 C590 1.386 . S
C591 C595 1.393 . S
C592 H581 0.950 . S
C592 C590 1.391 . S
C592 C593 1.400 . S
C593 C587 1.491 . S
C593 C592 1.400 . S
C593 C594 1.398 . S
C594 H582 0.950 . S
C594 C593 1.398 . S
C594 C595 1.391 . S
C595 H583 0.950 . S
C595 C591 1.393 . S
C595 C594 1.391 . S
H596 C604 0.950 . S
H597 C609 0.950 . S
H598 C606 0.950 . S
H599 C608 0.950 . S
H600 C610 0.950 . S
H601 C612 0.950 . S
H602 C614 0.950 . S
H603 C615 0.950 . S
C604 H596 0.950 . S
C604 C605 1.386 . S
C604 C606 1.391 . S
C605 C604 1.386 . S
C605 C609 1.393 . S
C606 H598 0.950 . S
C606 C604 1.391 . S
C606 C607 1.400 . S
C607 C606 1.400 . S
C607 C608 1.398 . S
C607 C613 1.491 . S
C608 H599 0.950 . S
C608 C607 1.398 . S
C608 C609 1.391 . S
C609 H597 0.950 . S
C609 C605 1.393 . S
C609 C608 1.391 . S
C610 H600 0.950 . S
C610 C611 1.386 . S
C610 C612 1.391 . S
C611 C610 1.386 . S
C611 C615 1.393 . S
C612 H601 0.950 . S
C612 C610 1.391 . S
C612 C613 1.400 . S
C613 C607 1.491 . S
C613 C612 1.400 . S
C613 C614 1.398 . S
C614 H602 0.950 . S
C614 C613 1.398 . S
C614 C615 1.391 . S
C615 H603 0.950 . S
C615 C611 1.393 . S
C615 C614 1.391 . S
H616 C624 0.950 . S
H617 C629 0.950 . S
H618 C626 0.950 . S
H619 C628 0.950 . S
H620 C630 0.950 . S
H621 C632 0.950 . S
H622 C634 0.950 . S
H623 C635 0.950 . S
C624 H616 0.950 . S
C624 C625 1.386 . S
C624 C626 1.391 . S
C625 C624 1.386 . S
C625 C629 1.393 . S
C626 H618 0.950 . S
C626 C624 1.391 . S
C626 C627 1.400 . S
C627 C626 1.400 . S
C627 C628 1.398 . S
C627 C633 1.491 . S
C628 H619 0.950 . S
C628 C627 1.398 . S
C628 C629 1.391 . S
C629 H617 0.950 . S
C629 C625 1.393 . S
C629 C628 1.391 . S
C630 H620 0.950 . S
C630 C631 1.386 . S
C630 C632 1.391 . S
C631 C630 1.386 . S
C631 C635 1.393 . S
C632 H621 0.950 . S
C632 C630 1.391 . S
C632 C633 1.400 . S
C633 C627 1.491 . S
C633 C632 1.400 . S
C633 C634 1.398 . S
C634 H622 0.950 . S
C634 C633 1.398 . S
C634 C635 1.391 . S
C635 H623 0.950 . S
C635 C631 1.393 . S
C635 C634 1.391 . S
H636 C644 0.950 . S
H637 C649 0.950 . S
H638 C646 0.950 . S
H639 C648 0.950 . S
H640 C650 0.950 . S
H641 C652 0.950 . S
H642 C654 0.950 . S
H643 C655 0.950 . S
C644 H636 0.950 . S
C644 C645 1.386 . S
C644 C646 1.391 . S
C645 C644 1.386 . S
C645 C649 1.393 . S
C646 H638 0.950 . S
C646 C644 1.391 . S
C646 C647 1.400 . S
C647 C646 1.400 . S
C647 C648 1.398 . S
C647 C653 1.491 . S
C648 H639 0.950 . S
C648 C647 1.398 . S
C648 C649 1.391 . S
C649 H637 0.950 . S
C649 C645 1.393 . S
C649 C648 1.391 . S
C650 H640 0.950 . S
C650 C651 1.386 . S
C650 C652 1.391 . S
C651 C650 1.386 . S
C651 C655 1.393 . S
C652 H641 0.950 . S
C652 C650 1.391 . S
C652 C653 1.400 . S
C653 C647 1.491 . S
C653 C652 1.400 . S
C653 C654 1.398 . S
C654 H642 0.950 . S
C654 C653 1.398 . S
C654 C655 1.391 . S
C655 H643 0.950 . S
C655 C651 1.393 . S
C655 C654 1.391 . S
H656 C664 0.950 . S
H657 C669 0.950 . S
H658 C666 0.950 . S
H659 C668 0.950 . S
H660 C670 0.950 . S
H661 C672 0.950 . S
H662 C674 0.950 . S
H663 C675 0.950 . S
C664 H656 0.950 . S
C664 C665 1.386 . S
C664 C666 1.391 . S
C665 C664 1.386 . S
C665 C669 1.393 . S
C666 H658 0.950 . S
C666 C664 1.391 . S
C666 C667 1.400 . S
C667 C666 1.400 . S
C667 C668 1.398 . S
C667 C673 1.491 . S
C668 H659 0.950 . S
C668 C667 1.398 . S
C668 C669 1.391 . S
C669 H657 0.950 . S
C669 C665 1.393 . S
C669 C668 1.391 . S
C670 H660 0.950 . S
C670 C671 1.386 . S
C670 C672 1.391 . S
C671 C670 1.386 . S
C671 C675 1.393 . S
C672 H661 0.950 . S
C672 C670 1.391 . S
C672 C673 1.400 . S
C673 C667 1.491 . S
C673 C672 1.400 . S
C673 C674 1.398 . S
C674 H662 0.950 . S
C674 C673 1.398 . S
C674 C675 1.391 . S
C675 H663 0.950 . S
C675 C671 1.393 . S
C675 C674 1.391 . S
H676 C684 0.950 . S
H677 C689 0.950 . S
H678 C686 0.950 . S
H679 C688 0.950 . S
H680 C690 0.950 . S
H681 C692 0.950 . S
H682 C694 0.950 . S
H683 C695 0.950 . S
C684 H676 0.950 . S
C684 C685 1.386 . S
C684 C686 1.391 . S
C685 C684 1.386 . S
C685 C689 1.393 . S
C686 H678 0.950 . S
C686 C684 1.391 . S
C686 C687 1.400 . S
C687 C686 1.400 . S
C687 C688 1.398 . S
C687 C693 1.491 . S
C688 H679 0.950 . S
C688 C687 1.398 . S
C688 C689 1.391 . S
C689 H677 0.950 . S
C689 C685 1.393 . S
C689 C688 1.391 . S
C690 H680 0.950 . S
C690 C691 1.386 . S
C690 C692 1.391 . S
C691 C690 1.386 . S
C691 C695 1.393 . S
C692 H681 0.950 . S
C692 C690 1.391 . S
C692 C693 1.400 . S
C693 C687 1.491 . S
C693 C692 1.400 . S
C693 C694 1.398 . S
C694 H682 0.950 . S
C694 C693 1.398 . S
C694 C695 1.391 . S
C695 H683 0.950 . S
C695 C691 1.393 . S
C695 C694 1.391 . S
H696 C704 0.950 . S
H697 C709 0.950 . S
H698 C706 0.950 . S
H699 C708 0.950 . S
H700 C710 0.950 . S
H701 C712 0.950 . S
H702 C714 0.950 . S
H703 C715 0.950 . S
C704 H696 0.950 . S
C704 C705 1.386 . S
C704 C706 1.391 . S
C705 C704 1.386 . S
C705 C709 1.393 . S
C706 H698 0.950 . S
C706 C704 1.391 . S
C706 C707 1.400 . S
C707 C706 1.400 . S
C707 C708 1.398 . S
C707 C713 1.491 . S
C708 H699 0.950 . S
C708 C707 1.398 . S
C708 C709 1.391 . S
C709 H697 0.950 . S
C709 C705 1.393 . S
C709 C708 1.391 . S
C710 H700 0.950 . S
C710 C711 1.386 . S
C710 C712 1.391 . S
C711 C710 1.386 . S
C711 C715 1.393 . S
C712 H701 0.950 . S
C712 C710 1.391 . S
C712 C713 1.400 . S
C713 C707 1.491 . S
C713 C712 1.400 . S
C713 C714 1.398 . S
C714 H702 0.950 . S
C714 C713 1.398 . S
C714 C715 1.391 . S
C715 H703 0.950 . S
C715 C711 1.393 . S
C715 C714 1.391 . S
H716 C724 0.950 . S
H717 C729 0.950 . S
H718 C726 0.968 . S
H719 C728 0.950 . S
H720 C730 0.950 . S
H721 C732 0.950 . S
H722 C734 0.950 1_655 S
H723 C735 0.950 1_655 S
C724 H716 0.950 . S
C724 C725 1.386 1_655 S
C724 C726 1.393 . S
C725 C724 1.386 1_455 S
C725 C729 1.393 . S
C726 H718 0.968 . S
C726 C724 1.393 . S
C726 C727 1.381 1_655 S
C727 C726 1.381 1_455 S
C727 C728 1.398 . S
C727 C733 1.491 . S
C728 H719 0.950 . S
C728 C727 1.398 . S
C728 C729 1.391 . S
C729 H717 0.950 . S
C729 C725 1.393 . S
C729 C728 1.391 . S
C730 H720 0.950 . S
C730 C731 1.386 . S
C730 C732 1.391 . S
C731 C730 1.386 . S
C731 C735 1.393 . S
C732 H721 0.950 . S
C732 C730 1.391 . S
C732 C733 1.400 . S
C733 C727 1.491 . S
C733 C732 1.400 . S
C733 C734 1.398 . S
C734 H722 0.950 1_455 S
C734 C733 1.398 . S
C734 C735 1.391 . S
C735 H723 0.950 1_455 S
C735 C731 1.393 . S
C735 C734 1.391 . S
H736 C744 0.950 . S
H737 C749 0.950 . S
H738 C746 0.950 . S
H739 C748 0.950 . S
H740 C750 0.950 . S
H741 C752 0.950 . S
H742 C754 0.950 . S
H743 C755 0.950 . S
C744 H736 0.950 . S
C744 C745 1.386 . S
C744 C746 1.391 . S
C745 C744 1.386 . S
C745 C749 1.393 . S
C746 H738 0.950 . S
C746 C744 1.391 . S
C746 C747 1.400 . S
C747 C746 1.400 . S
C747 C748 1.398 . S
C747 C753 1.491 . S
C748 H739 0.950 . S
C748 C747 1.398 . S
C748 C749 1.391 . S
C749 H737 0.950 . S
C749 C745 1.393 . S
C749 C748 1.391 . S
C750 H740 0.950 . S
C750 C751 1.386 . S
C750 C752 1.391 . S
C751 C750 1.386 . S
C751 C755 1.393 . S
C752 H741 0.950 . S
C752 C750 1.391 . S
C752 C753 1.400 . S
C753 C747 1.491 . S
C753 C752 1.400 . S
C753 C754 1.398 . S
C754 H742 0.950 . S
C754 C753 1.398 . S
C754 C755 1.391 . S
C755 H743 0.950 . S
C755 C751 1.393 . S
C755 C754 1.391 . S
H756 C764 0.950 . S
H757 C769 0.950 . S
H758 C766 0.950 . S
H759 C768 0.950 . S
H760 C770 0.950 . S
H761 C772 0.950 . S
H762 C774 0.950 . S
H763 C775 0.950 . S
C764 H756 0.950 . S
C764 C765 1.386 . S
C764 C766 1.391 . S
C765 C764 1.386 . S
C765 C769 1.393 . S
C766 H758 0.950 . S
C766 C764 1.391 . S
C766 C767 1.400 . S
C767 C766 1.400 . S
C767 C768 1.398 . S
C767 C773 1.491 . S
C768 H759 0.950 . S
C768 C767 1.398 . S
C768 C769 1.391 . S
C769 H757 0.950 . S
C769 C765 1.393 . S
C769 C768 1.391 . S
C770 H760 0.950 . S
C770 C771 1.386 . S
C770 C772 1.391 . S
C771 C770 1.386 . S
C771 C775 1.393 . S
C772 H761 0.950 . S
C772 C770 1.391 . S
C772 C773 1.400 . S
C773 C767 1.491 . S
C773 C772 1.400 . S
C773 C774 1.398 . S
C774 H762 0.950 . S
C774 C773 1.398 . S
C774 C775 1.391 . S
C775 H763 0.950 . S
C775 C771 1.393 . S
C775 C774 1.391 . S
H776 C784 0.950 . S
H777 C789 0.950 . S
H778 C786 0.950 . S
H779 C788 0.950 . S
H780 C790 0.931 1_554 S
H781 C792 0.950 . S
H782 C794 0.950 . S
H783 C795 0.950 . S
C784 H776 0.950 . S
C784 C785 1.386 . S
C784 C786 1.391 . S
C785 C784 1.386 . S
C785 C789 1.393 1_556 S
C786 H778 0.950 . S
C786 C784 1.391 . S
C786 C787 1.400 . S
C787 C786 1.400 . S
C787 C788 1.398 1_556 S
C787 C793 1.491 . S
C788 H779 0.950 . S
C788 C787 1.398 1_554 S
C788 C789 1.391 . S
C789 H777 0.950 . S
C789 C785 1.393 1_554 S
C789 C788 1.391 . S
C790 H780 0.931 1_556 S
C790 C791 1.406 . S
C790 C792 1.390 1_556 S
C791 C790 1.406 . S
C791 C795 1.393 . S
C792 H781 0.950 . S
C792 C790 1.390 1_554 S
C792 C793 1.400 1_554 S
C793 C787 1.491 . S
C793 C792 1.400 1_556 S
C793 C794 1.398 . S
C794 H782 0.950 . S
C794 C793 1.398 . S
C794 C795 1.391 . S
C795 H783 0.950 . S
C795 C791 1.393 . S
C795 C794 1.391 . S
H796 C804 0.950 . S
H797 C809 0.950 . S
H798 C806 0.950 . S
H799 C808 0.950 . S
H800 C810 0.950 . S
H801 C812 0.950 . S
H802 C814 0.950 . S
H803 C815 0.950 . S
C804 H796 0.950 . S
C804 C805 1.386 . S
C804 C806 1.391 . S
C805 C804 1.386 . S
C805 C809 1.393 . S
C806 H798 0.950 . S
C806 C804 1.391 . S
C806 C807 1.400 . S
C807 C806 1.400 . S
C807 C808 1.398 . S
C807 C813 1.491 . S
C808 H799 0.950 . S
C808 C807 1.398 . S
C808 C809 1.391 . S
C809 H797 0.950 . S
C809 C805 1.393 . S
C809 C808 1.391 . S
C810 H800 0.950 . S
C810 C811 1.386 . S
C810 C812 1.391 . S
C811 C810 1.386 . S
C811 C815 1.393 . S
C812 H801 0.950 . S
C812 C810 1.391 . S
C812 C813 1.400 . S
C813 C807 1.491 . S
C813 C812 1.400 . S
C813 C814 1.398 . S
C814 H802 0.950 . S
C814 C813 1.398 . S
C814 C815 1.391 . S
C815 H803 0.950 . S
C815 C811 1.393 . S
C815 C814 1.391 . S
H816 C824 0.950 . S
H817 C829 0.965 . S
H818 C826 0.950 . S
H819 C828 0.950 . S
H820 C830 0.950 . S
H821 C832 0.950 . S
H822 C834 0.950 . S
H823 C835 0.950 . S
C824 H816 0.950 . S
C824 C825 1.386 . S
C824 C826 1.391 . S
C825 C824 1.386 . S
C825 C829 1.393 . S
C826 H818 0.950 . S
C826 C824 1.391 . S
C826 C827 1.400 . S
C827 C826 1.400 . S
C827 C828 1.398 . S
C827 C833 1.491 . S
C828 H819 0.950 . S
C828 C827 1.398 . S
C828 C829 1.391 . S
C829 H817 0.965 . S
C829 C825 1.393 . S
C829 C828 1.391 . S
C830 H820 0.950 . S
C830 C831 1.386 . S
C830 C832 1.391 . S
C831 C830 1.386 . S
C831 C835 1.393 . S
C832 H821 0.950 . S
C832 C830 1.391 . S
C832 C833 1.400 . S
C833 C827 1.491 . S
C833 C832 1.400 . S
C833 C834 1.398 . S
C834 H822 0.950 . S
C834 C833 1.398 . S
C834 C835 1.391 . S
C835 H823 0.950 . S
C835 C831 1.393 . S
C835 C834 1.391 . S
H836 C844 0.950 . S
H837 C849 0.950 . S
H838 C846 0.950 . S
H839 C848 0.950 . S
H840 C850 0.950 . S
H841 C852 0.950 . S
H842 C854 0.950 . S
H843 C855 0.950 . S
C844 H836 0.950 . S
C844 C845 1.386 . S
C844 C846 1.391 . S
C845 C844 1.386 . S
C845 C849 1.393 . S
C846 H838 0.950 . S
C846 C844 1.391 . S
C846 C847 1.400 . S
C847 C846 1.400 . S
C847 C848 1.398 . S
C847 C853 1.491 . S
C848 H839 0.950 . S
C848 C847 1.398 . S
C848 C849 1.391 . S
C849 H837 0.950 . S
C849 C845 1.393 . S
C849 C848 1.391 . S
C850 H840 0.950 . S
C850 C851 1.386 . S
C850 C852 1.391 . S
C851 C850 1.386 . S
C851 C855 1.393 . S
C852 H841 0.950 . S
C852 C850 1.391 . S
C852 C853 1.400 . S
C853 C847 1.491 . S
C853 C852 1.400 . S
C853 C854 1.398 . S
C854 H842 0.950 . S
C854 C853 1.398 . S
C854 C855 1.391 . S
C855 H843 0.950 . S
C855 C851 1.393 . S
C855 C854 1.391 . S
H856 C864 0.950 . S
H857 C869 0.950 . S
H858 C866 0.950 . S
H859 C868 0.950 . S
H860 C870 0.950 . S
H861 C872 0.950 . S
H862 C874 0.950 . S
H863 C875 0.950 . S
C864 H856 0.950 . S
C864 C865 1.386 . S
C864 C866 1.391 . S
C865 C864 1.386 . S
C865 C869 1.393 . S
C866 H858 0.950 . S
C866 C864 1.391 . S
C866 C867 1.400 . S
C867 C866 1.400 . S
C867 C868 1.398 . S
C867 C873 1.491 . S
C868 H859 0.950 . S
C868 C867 1.398 . S
C868 C869 1.391 . S
C869 H857 0.950 . S
C869 C865 1.393 . S
C869 C868 1.391 . S
C870 H860 0.950 . S
C870 C871 1.386 . S
C870 C872 1.391 . S
C871 C870 1.386 . S
C871 C875 1.393 . S
C872 H861 0.950 . S
C872 C870 1.391 . S
C872 C873 1.400 . S
C873 C867 1.491 . S
C873 C872 1.400 . S
C873 C874 1.398 . S
C874 H862 0.950 . S
C874 C873 1.398 . S
C874 C875 1.391 . S
C875 H863 0.950 . S
C875 C871 1.393 . S
C875 C874 1.391 . S
H876 C884 0.950 . S
H877 C889 0.950 . S
H878 C886 0.950 . S
H879 C888 0.950 . S
H880 C890 0.950 . S
H881 C892 0.950 . S
H882 C894 0.950 . S
H883 C895 0.950 . S
C884 H876 0.950 . S
C884 C885 1.386 . S
C884 C886 1.391 . S
C885 C884 1.386 . S
C885 C889 1.393 . S
C886 H878 0.950 . S
C886 C884 1.391 . S
C886 C887 1.400 . S
C887 C886 1.400 . S
C887 C888 1.398 . S
C887 C893 1.491 . S
C888 H879 0.950 . S
C888 C887 1.398 . S
C888 C889 1.391 . S
C889 H877 0.950 . S
C889 C885 1.393 . S
C889 C888 1.391 . S
C890 H880 0.950 . S
C890 C891 1.386 . S
C890 C892 1.391 . S
C891 C890 1.386 . S
C891 C895 1.393 . S
C892 H881 0.950 . S
C892 C890 1.391 . S
C892 C893 1.400 . S
C893 C887 1.491 . S
C893 C892 1.400 . S
C893 C894 1.398 . S
C894 H882 0.950 . S
C894 C893 1.398 . S
C894 C895 1.391 . S
C895 H883 0.950 . S
C895 C891 1.393 . S
C895 C894 1.391 . S
H896 C904 0.950 . S
H897 C909 0.950 . S
H898 C906 0.950 . S
H899 C908 0.950 . S
H900 C910 0.963 . S
H901 C912 0.950 . S
H902 C914 0.950 . S
H903 C915 0.950 . S
C904 H896 0.950 . S
C904 C905 1.386 . S
C904 C906 1.391 . S
C905 C904 1.386 . S
C905 C909 1.393 . S
C906 H898 0.950 . S
C906 C904 1.391 . S
C906 C907 1.400 . S
C907 C906 1.400 . S
C907 C908 1.398 . S
C907 C913 1.491 . S
C908 H899 0.950 . S
C908 C907 1.398 . S
C908 C909 1.391 . S
C909 H897 0.950 . S
C909 C905 1.393 . S
C909 C908 1.391 . S
C910 H900 0.963 . S
C910 C911 1.386 . S
C910 C912 1.391 . S
C911 C910 1.386 . S
C911 C915 1.393 . S
C912 H901 0.950 . S
C912 C910 1.391 . S
C912 C913 1.400 . S
C913 C907 1.491 . S
C913 C912 1.400 . S
C913 C914 1.398 . S
C914 H902 0.950 . S
C914 C913 1.398 . S
C914 C915 1.391 . S
C915 H903 0.950 . S
C915 C911 1.393 . S
C915 C914 1.391 . S
H916 C924 0.950 . S
H917 C929 0.950 . S
H918 C926 0.950 . S
H919 C928 0.950 . S
H920 C930 0.950 . S
H921 C932 0.950 . S
H922 C934 0.950 . S
H923 C935 0.950 . S
C924 H916 0.950 . S
C924 C925 1.386 . S
C924 C926 1.391 . S
C925 C924 1.386 . S
C925 C929 1.393 . S
C926 H918 0.950 . S
C926 C924 1.391 . S
C926 C927 1.400 . S
C927 C926 1.400 . S
C927 C928 1.398 . S
C927 C933 1.491 . S
C928 H919 0.950 . S
C928 C927 1.398 . S
C928 C929 1.391 . S
C929 H917 0.950 . S
C929 C925 1.393 . S
C929 C928 1.391 . S
C930 H920 0.950 . S
C930 C931 1.386 . S
C930 C932 1.391 . S
C931 C930 1.386 . S
C931 C935 1.393 . S
C932 H921 0.950 . S
C932 C930 1.391 . S
C932 C933 1.400 . S
C933 C927 1.491 . S
C933 C932 1.400 . S
C933 C934 1.398 . S
C934 H922 0.950 . S
C934 C933 1.398 . S
C934 C935 1.391 . S
C935 H923 0.950 . S
C935 C931 1.393 . S
C935 C934 1.391 . S
H936 C944 0.950 . S
H937 C949 0.950 . S
H938 C946 0.950 . S
H939 C948 0.950 . S
H940 C950 0.950 1_545 S
H941 C952 0.950 . S
H942 C954 0.950 . S
H943 C955 0.950 . S
C944 H936 0.950 . S
C944 C945 1.386 . S
C944 C946 1.391 . S
C945 C944 1.386 . S
C945 C949 1.393 . S
C946 H938 0.950 . S
C946 C944 1.391 . S
C946 C947 1.400 . S
C947 C946 1.400 . S
C947 C948 1.398 . S
C947 C953 1.491 . S
C948 H939 0.950 . S
C948 C947 1.398 . S
C948 C949 1.391 . S
C949 H937 0.950 . S
C949 C945 1.393 . S
C949 C948 1.391 . S
C950 H940 0.950 1_565 S
C950 C951 1.386 . S
C950 C952 1.391 . S
C951 C950 1.386 . S
C951 C955 1.393 . S
C952 H941 0.950 . S
C952 C950 1.391 . S
C952 C953 1.400 . S
C953 C947 1.491 . S
C953 C952 1.400 . S
C953 C954 1.398 . S
C954 H942 0.950 . S
C954 C953 1.398 . S
C954 C955 1.391 . S
C955 H943 0.950 . S
C955 C951 1.393 . S
C955 C954 1.391 . S
H956 C964 0.950 . S
H957 C969 0.950 . S
H958 C966 0.950 . S
H959 C968 0.950 . S
H960 C970 0.950 . S
H961 C972 0.950 . S
H962 C974 0.950 . S
H963 C975 0.950 . S
C964 H956 0.950 . S
C964 C965 1.386 . S
C964 C966 1.391 . S
C965 C964 1.386 . S
C965 C969 1.393 . S
C966 H958 0.950 . S
C966 C964 1.391 . S
C966 C967 1.400 . S
C967 C966 1.400 . S
C967 C968 1.398 . S
C967 C973 1.491 . S
C968 H959 0.950 . S
C968 C967 1.398 . S
C968 C969 1.391 . S
C969 H957 0.950 . S
C969 C965 1.393 . S
C969 C968 1.391 . S
C970 H960 0.950 . S
C970 C971 1.386 . S
C970 C972 1.391 . S
C971 C970 1.386 . S
C971 C975 1.393 . S
C972 H961 0.950 . S
C972 C970 1.391 . S
C972 C973 1.400 . S
C973 C967 1.491 . S
C973 C972 1.400 . S
C973 C974 1.398 . S
C974 H962 0.950 . S
C974 C973 1.398 . S
C974 C975 1.391 . S
C975 H963 0.950 . S
C975 C971 1.393 . S
C975 C974 1.391 . S
H976 C984 0.950 . S
H977 C989 0.950 1_556 S
H978 C986 0.950 . S
H979 C988 0.950 . S
H980 C990 0.950 . S
H981 C992 0.950 . S
H982 C994 0.950 . S
H983 C995 0.950 . S
C984 H976 0.950 . S
C984 C985 1.386 . S
C984 C986 1.391 . S
C985 C984 1.386 . S
C985 C989 1.393 . S
C986 H978 0.950 . S
C986 C984 1.391 . S
C986 C987 1.400 . S
C987 C986 1.400 . S
C987 C988 1.398 . S
C987 C993 1.491 . S
C988 H979 0.950 . S
C988 C987 1.398 . S
C988 C989 1.391 . S
C989 H977 0.950 1_554 S
C989 C985 1.393 . S
C989 C988 1.391 . S
C990 H980 0.950 . S
C990 C991 1.386 . S
C990 C992 1.391 . S
C991 C990 1.386 . S
C991 C995 1.393 . S
C992 H981 0.950 . S
C992 C990 1.391 . S
C992 C993 1.400 . S
C993 C987 1.491 . S
C993 C992 1.400 . S
C993 C994 1.398 . S
C994 H982 0.950 . S
C994 C993 1.398 . S
C994 C995 1.391 . S
C995 H983 0.950 . S
C995 C991 1.393 . S
C995 C994 1.391 . S
H996 C1004 0.950 . S
H997 C1009 0.950 . S
H998 C1006 0.950 . S
H999 C1008 0.950 . S
H1000 C1010 0.950 . S
H1001 C1012 0.950 . S
H1002 C1014 0.950 . S
H1003 C1015 0.950 . S
C1004 H996 0.950 . S
C1004 C1005 1.386 . S
C1004 C1006 1.391 . S
C1005 C1004 1.386 . S
C1005 C1009 1.393 . S
C1006 H998 0.950 . S
C1006 C1004 1.391 . S
C1006 C1007 1.400 . S
C1007 C1006 1.400 . S
C1007 C1008 1.398 . S
C1007 C1013 1.491 . S
C1008 H999 0.950 . S
C1008 C1007 1.398 . S
C1008 C1009 1.391 . S
C1009 H997 0.950 . S
C1009 C1005 1.393 . S
C1009 C1008 1.391 . S
C1010 H1000 0.950 . S
C1010 C1011 1.386 . S
C1010 C1012 1.391 . S
C1011 C1010 1.386 . S
C1011 C1015 1.393 . S
C1012 H1001 0.950 . S
C1012 C1010 1.391 . S
C1012 C1013 1.400 . S
C1013 C1007 1.491 . S
C1013 C1012 1.400 . S
C1013 C1014 1.398 . S
C1014 H1002 0.950 . S
C1014 C1013 1.398 . S
C1014 C1015 1.391 . S
C1015 H1003 0.950 . S
C1015 C1011 1.393 . S
C1015 C1014 1.391 . S
H1016 C1024 0.950 . S
H1017 C1029 0.950 . S
H1018 C1026 0.950 . S
H1019 C1028 0.950 . S
H1020 C1030 0.950 . S
H1021 C1032 0.950 . S
H1022 C1034 0.950 . S
H1023 C1035 0.950 . S
C1024 H1016 0.950 . S
C1024 C1025 1.386 . S
C1024 C1026 1.391 . S
C1025 C1024 1.386 . S
C1025 C1029 1.393 . S
C1026 H1018 0.950 . S
C1026 C1024 1.391 . S
C1026 C1027 1.400 . S
C1027 C1026 1.400 . S
C1027 C1028 1.398 . S
C1027 C1033 1.491 . S
C1028 H1019 0.950 . S
C1028 C1027 1.398 . S
C1028 C1029 1.391 . S
C1029 H1017 0.950 . S
C1029 C1025 1.393 . S
C1029 C1028 1.391 . S
C1030 H1020 0.950 . S
C1030 C1031 1.386 . S
C1030 C1032 1.391 . S
C1031 C1030 1.386 . S
C1031 C1035 1.393 . S
C1032 H1021 0.950 . S
C1032 C1030 1.391 . S
C1032 C1033 1.400 . S
C1033 C1027 1.491 . S
C1033 C1032 1.400 . S
C1033 C1034 1.398 . S
C1034 H1022 0.950 . S
C1034 C1033 1.398 . S
C1034 C1035 1.391 . S
C1035 H1023 0.950 . S
C1035 C1031 1.393 . S
C1035 C1034 1.391 . S
H1036 C1044 0.950 . S
H1037 C1049 0.950 . S
H1038 C1046 0.950 . S
H1039 C1048 0.950 . S
H1040 C1050 0.950 . S
H1041 C1052 0.950 . S
H1042 C1054 0.950 . S
H1043 C1055 0.950 . S
C1044 H1036 0.950 . S
C1044 C1045 1.386 . S
C1044 C1046 1.391 . S
C1045 C1044 1.386 . S
C1045 C1049 1.393 . S
C1046 H1038 0.950 . S
C1046 C1044 1.391 . S
C1046 C1047 1.400 . S
C1047 C1046 1.400 . S
C1047 C1048 1.398 . S
C1047 C1053 1.491 . S
C1048 H1039 0.950 . S
C1048 C1047 1.398 . S
C1048 C1049 1.391 . S
C1049 H1037 0.950 . S
C1049 C1045 1.393 . S
C1049 C1048 1.391 . S
C1050 H1040 0.950 . S
C1050 C1051 1.386 . S
C1050 C1052 1.391 . S
C1051 C1050 1.386 . S
C1051 C1055 1.393 . S
C1052 H1041 0.950 . S
C1052 C1050 1.391 . S
C1052 C1053 1.400 . S
C1053 C1047 1.491 . S
C1053 C1052 1.400 . S
C1053 C1054 1.398 . S
C1054 H1042 0.950 . S
C1054 C1053 1.398 . S
C1054 C1055 1.391 . S
C1055 H1043 0.950 . S
C1055 C1051 1.393 . S
C1055 C1054 1.391 . S
H1056 C1064 0.950 . S
H1057 C1069 0.950 . S
H1058 C1066 0.950 . S
H1059 C1068 0.950 . S
H1060 C1070 0.950 . S
H1061 C1072 0.950 . S
H1062 C1074 0.950 . S
H1063 C1075 0.950 . S
C1064 H1056 0.950 . S
C1064 C1065 1.386 . S
C1064 C1066 1.391 . S
C1065 C1064 1.386 . S
C1065 C1069 1.393 . S
C1066 H1058 0.950 . S
C1066 C1064 1.391 . S
C1066 C1067 1.400 . S
C1067 C1066 1.400 . S
C1067 C1068 1.398 . S
C1067 C1073 1.491 . S
C1068 H1059 0.950 . S
C1068 C1067 1.398 . S
C1068 C1069 1.391 . S
C1069 H1057 0.950 . S
C1069 C1065 1.393 . S
C1069 C1068 1.391 . S
C1070 H1060 0.950 . S
C1070 C1071 1.386 . S
C1070 C1072 1.391 . S
C1071 C1070 1.386 . S
C1071 C1075 1.393 . S
C1072 H1061 0.950 . S
C1072 C1070 1.391 . S
C1072 C1073 1.400 . S
C1073 C1067 1.491 . S
C1073 C1072 1.400 . S
C1073 C1074 1.398 . S
C1074 H1062 0.950 . S
C1074 C1073 1.398 . S
C1074 C1075 1.391 . S
C1075 H1063 0.950 . S
C1075 C1071 1.393 . S
C1075 C1074 1.391 . S
H1076 C1084 0.950 . S
H1077 C1089 0.950 . S
H1078 C1086 0.950 . S
H1079 C1088 0.950 . S
H1080 C1090 0.950 . S
H1081 C1092 0.950 . S
H1082 C1094 0.950 . S
H1083 C1095 0.950 . S
C1084 H1076 0.950 . S
C1084 C1085 1.386 . S
C1084 C1086 1.391 . S
C1085 C1084 1.386 . S
C1085 C1089 1.393 . S
C1086 H1078 0.950 . S
C1086 C1084 1.391 . S
C1086 C1087 1.400 . S
C1087 C1086 1.400 . S
C1087 C1088 1.398 . S
C1087 C1093 1.491 . S
C1088 H1079 0.950 . S
C1088 C1087 1.398 . S
C1088 C1089 1.391 . S
C1089 H1077 0.950 . S
C1089 C1085 1.393 . S
C1089 C1088 1.391 . S
C1090 H1080 0.950 . S
C1090 C1091 1.386 . S
C1090 C1092 1.391 . S
C1091 C1090 1.386 . S
C1091 C1095 1.393 . S
C1092 H1081 0.950 . S
C1092 C1090 1.391 . S
C1092 C1093 1.400 . S
C1093 C1087 1.491 . S
C1093 C1092 1.400 . S
C1093 C1094 1.398 . S
C1094 H1082 0.950 . S
C1094 C1093 1.398 . S
C1094 C1095 1.391 . S
C1095 H1083 0.950 . S
C1095 C1091 1.393 . S
C1095 C1094 1.391 . S
H1096 C1104 0.950 . S
H1097 C1109 0.950 . S
H1098 C1106 0.950 . S
H1099 C1108 0.950 . S
H1100 C1110 0.950 . S
H1101 C1112 0.950 . S
H1102 C1114 0.950 . S
H1103 C1115 0.950 . S
C1104 H1096 0.950 . S
C1104 C1105 1.386 . S
C1104 C1106 1.391 . S
C1105 C1104 1.386 . S
C1105 C1109 1.393 . S
C1106 H1098 0.950 . S
C1106 C1104 1.391 . S
C1106 C1107 1.400 . S
C1107 C1106 1.400 . S
C1107 C1108 1.398 . S
C1107 C1113 1.491 . S
C1108 H1099 0.950 . S
C1108 C1107 1.398 . S
C1108 C1109 1.391 . S
C1109 H1097 0.950 . S
C1109 C1105 1.393 . S
C1109 C1108 1.391 . S
C1110 H1100 0.950 . S
C1110 C1111 1.386 . S
C1110 C1112 1.391 . S
C1111 C1110 1.386 . S
C1111 C1115 1.393 . S
C1112 H1101 0.950 . S
C1112 C1110 1.391 . S
C1112 C1113 1.400 . S
C1113 C1107 1.491 . S
C1113 C1112 1.400 . S
C1113 C1114 1.398 . S
C1114 H1102 0.950 . S
C1114 C1113 1.398 . S
C1114 C1115 1.391 . S
C1115 H1103 0.950 . S
C1115 C1111 1.393 . S
C1115 C1114 1.391 . S
H1116 C1124 0.950 . S
H1117 C1129 0.950 . S
H1118 C1126 0.950 . S
H1119 C1128 0.950 . S
H1120 C1130 0.950 . S
H1121 C1132 0.950 . S
H1122 C1134 0.950 . S
H1123 C1135 0.950 . S
C1124 H1116 0.950 . S
C1124 C1125 1.386 . S
C1124 C1126 1.391 . S
C1125 C1124 1.386 . S
C1125 C1129 1.393 . S
C1126 H1118 0.950 . S
C1126 C1124 1.391 . S
C1126 C1127 1.400 . S
C1127 C1126 1.400 . S
C1127 C1128 1.398 . S
C1127 C1133 1.491 . S
C1128 H1119 0.950 . S
C1128 C1127 1.398 . S
C1128 C1129 1.391 . S
C1129 H1117 0.950 . S
C1129 C1125 1.393 . S
C1129 C1128 1.391 . S
C1130 H1120 0.950 . S
C1130 C1131 1.386 . S
C1130 C1132 1.391 . S
C1131 C1130 1.386 . S
C1131 C1135 1.393 . S
C1132 H1121 0.950 . S
C1132 C1130 1.391 . S
C1132 C1133 1.400 . S
C1133 C1127 1.491 . S
C1133 C1132 1.400 . S
C1133 C1134 1.398 . S
C1134 H1122 0.950 . S
C1134 C1133 1.398 . S
C1134 C1135 1.391 . S
C1135 H1123 0.950 . S
C1135 C1131 1.393 . S
C1135 C1134 1.391 . S
H1136 C1144 0.950 . S
H1137 C1149 0.950 . S
H1138 C1146 0.950 . S
H1139 C1148 0.950 . S
H1140 C1150 0.950 . S
H1141 C1152 0.950 . S
H1142 C1154 0.950 . S
H1143 C1155 0.950 . S
C1144 H1136 0.950 . S
C1144 C1145 1.386 . S
C1144 C1146 1.391 . S
C1145 C1144 1.386 . S
C1145 C1149 1.393 . S
C1146 H1138 0.950 . S
C1146 C1144 1.391 . S
C1146 C1147 1.400 . S
C1147 C1146 1.400 . S
C1147 C1148 1.398 . S
C1147 C1153 1.491 . S
C1148 H1139 0.950 . S
C1148 C1147 1.398 . S
C1148 C1149 1.391 . S
C1149 H1137 0.950 . S
C1149 C1145 1.393 . S
C1149 C1148 1.391 . S
C1150 H1140 0.950 . S
C1150 C1151 1.386 . S
C1150 C1152 1.391 . S
C1151 C1150 1.386 . S
C1151 C1155 1.393 . S
C1152 H1141 0.950 . S
C1152 C1150 1.391 . S
C1152 C1153 1.400 . S
C1153 C1147 1.491 . S
C1153 C1152 1.400 . S
C1153 C1154 1.398 . S
C1154 H1142 0.950 . S
C1154 C1153 1.398 . S
C1154 C1155 1.391 . S
C1155 H1143 0.950 . S
C1155 C1151 1.393 . S
C1155 C1154 1.391 . S
H1156 C1164 0.950 . S
H1157 C1169 0.950 . S
H1158 C1166 0.950 . S
H1159 C1168 0.950 . S
H1160 C1170 0.950 1_455 S
H1161 C1172 0.950 . S
H1162 C1174 0.950 . S
H1163 C1175 0.950 . S
C1164 H1156 0.950 . S
C1164 C1165 1.386 . S
C1164 C1166 1.391 . S
C1165 C1164 1.386 . S
C1165 C1169 1.393 . S
C1166 H1158 0.950 . S
C1166 C1164 1.391 . S
C1166 C1167 1.400 . S
C1167 C1166 1.400 . S
C1167 C1168 1.398 . S
C1167 C1173 1.491 . S
C1168 H1159 0.950 . S
C1168 C1167 1.398 . S
C1168 C1169 1.391 . S
C1169 H1157 0.950 . S
C1169 C1165 1.393 . S
C1169 C1168 1.391 . S
C1170 H1160 0.950 1_655 S
C1170 C1171 1.386 . S
C1170 C1172 1.391 . S
C1171 C1170 1.386 . S
C1171 C1175 1.393 . S
C1172 H1161 0.950 . S
C1172 C1170 1.391 . S
C1172 C1173 1.400 . S
C1173 C1167 1.491 . S
C1173 C1172 1.400 . S
C1173 C1174 1.398 . S
C1174 H1162 0.950 . S
C1174 C1173 1.398 . S
C1174 C1175 1.391 . S
C1175 H1163 0.950 . S
C1175 C1171 1.393 . S
C1175 C1174 1.391 . S
H1176 C1184 0.950 . S
H1177 C1189 0.950 . S
H1178 C1186 0.950 . S
H1179 C1188 0.950 . S
H1180 C1190 0.950 . S
H1181 C1192 0.950 . S
H1182 C1194 0.950 . S
H1183 C1195 0.950 . S
C1184 H1176 0.950 . S
C1184 C1185 1.386 . S
C1184 C1186 1.391 . S
C1185 C1184 1.386 . S
C1185 C1189 1.393 . S
C1186 H1178 0.950 . S
C1186 C1184 1.391 . S
C1186 C1187 1.400 . S
C1187 C1186 1.400 . S
C1187 C1188 1.398 . S
C1187 C1193 1.491 . S
C1188 H1179 0.950 . S
C1188 C1187 1.398 . S
C1188 C1189 1.391 . S
C1189 H1177 0.950 . S
C1189 C1185 1.393 . S
C1189 C1188 1.391 . S
C1190 H1180 0.950 . S
C1190 C1191 1.386 . S
C1190 C1192 1.391 . S
C1191 C1190 1.386 . S
C1191 C1195 1.393 . S
C1192 H1181 0.950 . S
C1192 C1190 1.391 . S
C1192 C1193 1.400 . S
C1193 C1187 1.491 . S
C1193 C1192 1.400 . S
C1193 C1194 1.398 . S
C1194 H1182 0.950 . S
C1194 C1193 1.398 . S
C1194 C1195 1.391 . S
C1195 H1183 0.950 . S
C1195 C1191 1.393 . S
C1195 C1194 1.391 . S
H1196 C1204 0.950 . S
H1197 C1209 0.950 . S
H1198 C1206 0.950 . S
H1199 C1208 0.950 . S
H1200 C1210 0.950 . S
H1201 C1212 0.950 . S
H1202 C1214 0.950 . S
H1203 C1215 0.950 . S
C1204 H1196 0.950 . S
C1204 C1205 1.386 . S
C1204 C1206 1.391 . S
C1205 C1204 1.386 . S
C1205 C1209 1.393 . S
C1206 H1198 0.950 . S
C1206 C1204 1.391 . S
C1206 C1207 1.400 . S
C1207 C1206 1.400 . S
C1207 C1208 1.398 . S
C1207 C1213 1.491 . S
C1208 H1199 0.950 . S
C1208 C1207 1.398 . S
C1208 C1209 1.391 . S
C1209 H1197 0.950 . S
C1209 C1205 1.393 . S
C1209 C1208 1.391 . S
C1210 H1200 0.950 . S
C1210 C1211 1.386 . S
C1210 C1212 1.391 . S
C1211 C1210 1.386 . S
C1211 C1215 1.393 . S
C1212 H1201 0.950 . S
C1212 C1210 1.391 . S
C1212 C1213 1.400 . S
C1213 C1207 1.491 . S
C1213 C1212 1.400 . S
C1213 C1214 1.398 . S
C1214 H1202 0.950 . S
C1214 C1213 1.398 . S
C1214 C1215 1.391 . S
C1215 H1203 0.950 . S
C1215 C1211 1.393 . S
C1215 C1214 1.391 . S
H1216 C1224 0.950 . S
H1217 C1229 0.950 . S
H1218 C1226 0.950 . S
H1219 C1228 0.950 . S
H1220 C1230 0.950 . S
H1221 C1232 0.950 . S
H1222 C1234 0.950 . S
H1223 C1235 0.950 . S
C1224 H1216 0.950 . S
C1224 C1225 1.386 . S
C1224 C1226 1.391 . S
C1225 C1224 1.386 . S
C1225 C1229 1.393 . S
C1226 H1218 0.950 . S
C1226 C1224 1.391 . S
C1226 C1227 1.400 . S
C1227 C1226 1.400 . S
C1227 C1228 1.398 . S
C1227 C1233 1.491 . S
C1228 H1219 0.950 . S
C1228 C1227 1.398 . S
C1228 C1229 1.391 . S
C1229 H1217 0.950 . S
C1229 C1225 1.393 . S
C1229 C1228 1.391 . S
C1230 H1220 0.950 . S
C1230 C1231 1.386 . S
C1230 C1232 1.391 . S
C1231 C1230 1.386 . S
C1231 C1235 1.393 . S
C1232 H1221 0.950 . S
C1232 C1230 1.391 . S
C1232 C1233 1.400 . S
C1233 C1227 1.491 . S
C1233 C1232 1.400 . S
C1233 C1234 1.398 . S
C1234 H1222 0.950 . S
C1234 C1233 1.398 . S
C1234 C1235 1.391 . S
C1235 H1223 0.950 . S
C1235 C1231 1.393 . S
C1235 C1234 1.391 . S
H1236 C1244 0.950 . S
H1237 C1249 0.950 . S
H1238 C1246 0.950 . S
H1239 C1248 0.950 . S
H1240 C1250 0.950 . S
H1241 C1252 0.950 . S
H1242 C1254 0.950 . S
H1243 C1255 0.950 . S
C1244 H1236 0.950 . S
C1244 C1245 1.386 . S
C1244 C1246 1.391 . S
C1245 C1244 1.386 . S
C1245 C1249 1.393 . S
C1246 H1238 0.950 . S
C1246 C1244 1.391 . S
C1246 C1247 1.400 . S
C1247 C1246 1.400 . S
C1247 C1248 1.398 . S
C1247 C1253 1.491 . S
C1248 H1239 0.950 . S
C1248 C1247 1.398 . S
C1248 C1249 1.391 . S
C1249 H1237 0.950 . S
C1249 C1245 1.393 . S
C1249 C1248 1.391 . S
C1250 H1240 0.950 . S
C1250 C1251 1.386 . S
C1250 C1252 1.391 . S
C1251 C1250 1.386 . S
C1251 C1255 1.393 . S
C1252 H1241 0.950 . S
C1252 C1250 1.391 . S
C1252 C1253 1.400 . S
C1253 C1247 1.491 . S
C1253 C1252 1.400 . S
C1253 C1254 1.398 . S
C1254 H1242 0.950 . S
C1254 C1253 1.398 . S
C1254 C1255 1.391 . S
C1255 H1243 0.950 . S
C1255 C1251 1.393 . S
C1255 C1254 1.391 . S
H1256 C1264 0.950 . S
H1257 C1269 0.950 . S
H1258 C1266 0.950 . S
H1259 C1268 0.950 . S
H1260 C1270 0.950 . S
H1261 C1272 0.950 . S
H1262 C1274 0.950 . S
H1263 C1275 0.950 . S
C1264 H1256 0.950 . S
C1264 C1265 1.386 . S
C1264 C1266 1.391 . S
C1265 C1264 1.386 . S
C1265 C1269 1.393 . S
C1266 H1258 0.950 . S
C1266 C1264 1.391 . S
C1266 C1267 1.400 . S
C1267 C1266 1.400 . S
C1267 C1268 1.398 . S
C1267 C1273 1.491 . S
C1268 H1259 0.950 . S
C1268 C1267 1.398 . S
C1268 C1269 1.391 . S
C1269 H1257 0.950 . S
C1269 C1265 1.393 . S
C1269 C1268 1.391 . S
C1270 H1260 0.950 . S
C1270 C1271 1.386 . S
C1270 C1272 1.391 . S
C1271 C1270 1.386 . S
C1271 C1275 1.393 . S
C1272 H1261 0.950 . S
C1272 C1270 1.391 . S
C1272 C1273 1.400 . S
C1273 C1267 1.491 . S
C1273 C1272 1.400 . S
C1273 C1274 1.398 . S
C1274 H1262 0.950 . S
C1274 C1273 1.398 . S
C1274 C1275 1.391 . S
C1275 H1263 0.950 . S
C1275 C1271 1.393 . S
C1275 C1274 1.391 . S
H1276 C1284 0.950 . S
H1277 C1289 0.950 . S
H1278 C1286 0.950 . S
H1279 C1288 0.950 . S
H1280 C1290 0.950 . S
H1281 C1292 0.950 . S
H1282 C1294 0.950 . S
H1283 C1295 0.950 . S
C1284 H1276 0.950 . S
C1284 C1285 1.386 . S
C1284 C1286 1.391 . S
C1285 C1284 1.386 . S
C1285 C1289 1.393 . S
C1286 H1278 0.950 . S
C1286 C1284 1.391 . S
C1286 C1287 1.400 . S
C1287 C1286 1.400 . S
C1287 C1288 1.398 . S
C1287 C1293 1.491 . S
C1288 H1279 0.950 . S
C1288 C1287 1.398 . S
C1288 C1289 1.391 . S
C1289 H1277 0.950 . S
C1289 C1285 1.393 . S
C1289 C1288 1.391 . S
C1290 H1280 0.950 . S
C1290 C1291 1.386 . S
C1290 C1292 1.391 . S
C1291 C1290 1.386 . S
C1291 C1295 1.393 . S
C1292 H1281 0.950 . S
C1292 C1290 1.391 . S
C1292 C1293 1.400 . S
C1293 C1287 1.491 . S
C1293 C1292 1.400 . S
C1293 C1294 1.398 . S
C1294 H1282 0.950 . S
C1294 C1293 1.398 . S
C1294 C1295 1.391 . S
C1295 H1283 0.950 . S
C1295 C1291 1.393 . S
C1295 C1294 1.391 . S
C345 C99 1.347 . S
C351 C1 1.279 . S
C365 C15 0.839 . S
C371 C56 0.798 . S
C385 C83 1.210 . S
C391 C29 1.197 . S
C405 C55 1.051 . S
C411 C85 1.060 . S
C425 C124 1.288 . S
C431 C13 1.348 . S
C445 C27 1.083 . S
C451 C126 1.050 . S
C465 C152 1.296 . S
C471 C41 1.375 . S
C485 C154 0.825 . S
C491 C43 0.802 . S
C505 C68 0.816 . S
C511 C138 0.819 . S
C525 C71 1.147 . S
C531 C140 1.166 . S
C545 C166 0.842 . S
C551 C97 0.808 . S
C565 C112 1.326 . S
C571 C111 1.307 . S
C585 C294 1.367 . S
C591 C169 1.302 . S
C605 C194 1.071 . S
C611 C320 1.077 . S
C625 C197 1.201 . S
C631 C322 1.210 . S
C645 C334 1.141 . S
C651 C222 1.176 . S
C665 C236 1.237 . S
C671 C306 1.180 . S
C685 C279 0.928 . S
C691 C238 0.962 . S
C705 C181 1.155 . S
C711 C224 1.124 . S
C725 C182 0.778 . S
C731 C253 0.808 . S
C745 C209 1.383 . S
C751 C210 1.311 . S
C765 C250 0.956 . S
C771 C292 0.944 . S
C785 C265 0.833 . S
C791 C308 0.833 . S
C805 C280 0.956 . S
C811 C267 0.983 . S
C825 C57 2.523 . S
C831 C0 2.436 . S
C845 C82 1.410 . S
C851 C14 1.381 . S
C865 C84 2.674 . S
C871 C28 2.601 . S
C885 C98 2.125 . S
C891 C54 2.074 . S
C905 C125 2.446 . S
C911 C167 2.527 . S
C925 C127 2.093 . S
C931 C113 2.134 . S
C945 C153 2.094 . S
C951 C139 2.166 . S
C965 C141 1.253 . S
C971 C155 1.236 . S
C985 C264 2.525 . S
C991 C110 2.444 . S
C1005 C168 2.064 . S
C1011 C42 2.151 . S
C1025 C12 2.131 . S
C1031 C195 2.093 . S
C1045 C26 2.683 . S
C1051 C196 2.618 . S
C1065 C70 2.060 . S
C1071 C266 2.126 . S
C1085 C69 1.219 . S
C1091 C223 1.254 . S
C1105 C96 1.362 . S
C1111 C237 1.404 . S
C1125 C225 2.086 . S
C1131 C239 2.135 . S
C1145 C180 1.256 . S
C1151 C252 1.217 . S
C1165 C211 2.093 . S
C1171 C183 2.168 . S
C1185 C278 2.353 . S
C1191 C208 2.403 . S
C1205 C293 2.136 . S
C1211 C335 2.087 . S
C1225 C281 2.341 . S
C1231 C295 2.384 . S
C1245 C321 2.672 . S
C1251 C307 2.603 . S
C1265 C323 1.423 . S
C1271 C309 1.381 . S
C1285 C40 2.397 . S
C1291 C251 2.345 . S
